# Generated by pormake.
# Topology ana-e, (6)-cn, num edge types: 1
# Building blocks:
#     Node 0, Type 0, BuildingBlock: CIFDUS_clean_sbu_1, # of connection points: 6
#     Node 1, Type 0, BuildingBlock: CIFDUS_clean_sbu_1, # of connection points: 6
#     Node 2, Type 0, BuildingBlock: CIFDUS_clean_sbu_1, # of connection points: 6
#     Node 3, Type 0, BuildingBlock: CIFDUS_clean_sbu_1, # of connection points: 6
#     Node 4, Type 0, BuildingBlock: CIFDUS_clean_sbu_1, # of connection points: 6
#     Node 5, Type 0, BuildingBlock: CIFDUS_clean_sbu_1, # of connection points: 6
#     Node 6, Type 0, BuildingBlock: CIFDUS_clean_sbu_1, # of connection points: 6
#     Node 7, Type 0, BuildingBlock: CIFDUS_clean_sbu_1, # of connection points: 6
#     Node 8, Type 0, BuildingBlock: CIFDUS_clean_sbu_1, # of connection points: 6
#     Node 9, Type 0, BuildingBlock: CIFDUS_clean_sbu_1, # of connection points: 6
#     Node 10, Type 0, BuildingBlock: CIFDUS_clean_sbu_1, # of connection points: 6
#     Node 11, Type 0, BuildingBlock: CIFDUS_clean_sbu_1, # of connection points: 6
#     Node 12, Type 0, BuildingBlock: CIFDUS_clean_sbu_1, # of connection points: 6
#     Node 13, Type 0, BuildingBlock: CIFDUS_clean_sbu_1, # of connection points: 6
#     Node 14, Type 0, BuildingBlock: CIFDUS_clean_sbu_1, # of connection points: 6
#     Node 15, Type 0, BuildingBlock: CIFDUS_clean_sbu_1, # of connection points: 6
#     Node 16, Type 0, BuildingBlock: CIFDUS_clean_sbu_1, # of connection points: 6
#     Node 17, Type 0, BuildingBlock: CIFDUS_clean_sbu_1, # of connection points: 6
#     Node 18, Type 0, BuildingBlock: CIFDUS_clean_sbu_1, # of connection points: 6
#     Node 19, Type 0, BuildingBlock: CIFDUS_clean_sbu_1, # of connection points: 6
#     Node 20, Type 0, BuildingBlock: CIFDUS_clean_sbu_1, # of connection points: 6
#     Node 21, Type 0, BuildingBlock: CIFDUS_clean_sbu_1, # of connection points: 6
#     Node 22, Type 0, BuildingBlock: CIFDUS_clean_sbu_1, # of connection points: 6
#     Node 23, Type 0, BuildingBlock: CIFDUS_clean_sbu_1, # of connection points: 6
#     Node 24, Type 0, BuildingBlock: CIFDUS_clean_sbu_1, # of connection points: 6
#     Node 25, Type 0, BuildingBlock: CIFDUS_clean_sbu_1, # of connection points: 6
#     Node 26, Type 0, BuildingBlock: CIFDUS_clean_sbu_1, # of connection points: 6
#     Node 27, Type 0, BuildingBlock: CIFDUS_clean_sbu_1, # of connection points: 6
#     Node 28, Type 0, BuildingBlock: CIFDUS_clean_sbu_1, # of connection points: 6
#     Node 29, Type 0, BuildingBlock: CIFDUS_clean_sbu_1, # of connection points: 6
#     Node 30, Type 0, BuildingBlock: CIFDUS_clean_sbu_1, # of connection points: 6
#     Node 31, Type 0, BuildingBlock: CIFDUS_clean_sbu_1, # of connection points: 6
#     Node 32, Type 0, BuildingBlock: CIFDUS_clean_sbu_1, # of connection points: 6
#     Node 33, Type 0, BuildingBlock: CIFDUS_clean_sbu_1, # of connection points: 6
#     Node 34, Type 0, BuildingBlock: CIFDUS_clean_sbu_1, # of connection points: 6
#     Node 35, Type 0, BuildingBlock: CIFDUS_clean_sbu_1, # of connection points: 6
#     Node 36, Type 0, BuildingBlock: CIFDUS_clean_sbu_1, # of connection points: 6
#     Node 37, Type 0, BuildingBlock: CIFDUS_clean_sbu_1, # of connection points: 6
#     Node 38, Type 0, BuildingBlock: CIFDUS_clean_sbu_1, # of connection points: 6
#     Node 39, Type 0, BuildingBlock: CIFDUS_clean_sbu_1, # of connection points: 6
#     Node 40, Type 0, BuildingBlock: CIFDUS_clean_sbu_1, # of connection points: 6
#     Node 41, Type 0, BuildingBlock: CIFDUS_clean_sbu_1, # of connection points: 6
#     Node 42, Type 0, BuildingBlock: CIFDUS_clean_sbu_1, # of connection points: 6
#     Node 43, Type 0, BuildingBlock: CIFDUS_clean_sbu_1, # of connection points: 6
#     Node 44, Type 0, BuildingBlock: CIFDUS_clean_sbu_1, # of connection points: 6
#     Node 45, Type 0, BuildingBlock: CIFDUS_clean_sbu_1, # of connection points: 6
#     Node 46, Type 0, BuildingBlock: CIFDUS_clean_sbu_1, # of connection points: 6
#     Node 47, Type 0, BuildingBlock: CIFDUS_clean_sbu_1, # of connection points: 6
#     Node 48, Type 0, BuildingBlock: CIFDUS_clean_sbu_1, # of connection points: 6
#     Node 49, Type 0, BuildingBlock: CIFDUS_clean_sbu_1, # of connection points: 6
#     Node 50, Type 0, BuildingBlock: CIFDUS_clean_sbu_1, # of connection points: 6
#     Node 51, Type 0, BuildingBlock: CIFDUS_clean_sbu_1, # of connection points: 6
#     Node 52, Type 0, BuildingBlock: CIFDUS_clean_sbu_1, # of connection points: 6
#     Node 53, Type 0, BuildingBlock: CIFDUS_clean_sbu_1, # of connection points: 6
#     Node 54, Type 0, BuildingBlock: CIFDUS_clean_sbu_1, # of connection points: 6
#     Node 55, Type 0, BuildingBlock: CIFDUS_clean_sbu_1, # of connection points: 6
#     Node 56, Type 0, BuildingBlock: CIFDUS_clean_sbu_1, # of connection points: 6
#     Node 57, Type 0, BuildingBlock: CIFDUS_clean_sbu_1, # of connection points: 6
#     Node 58, Type 0, BuildingBlock: CIFDUS_clean_sbu_1, # of connection points: 6
#     Node 59, Type 0, BuildingBlock: CIFDUS_clean_sbu_1, # of connection points: 6
#     Node 60, Type 0, BuildingBlock: CIFDUS_clean_sbu_1, # of connection points: 6
#     Node 61, Type 0, BuildingBlock: CIFDUS_clean_sbu_1, # of connection points: 6
#     Node 62, Type 0, BuildingBlock: CIFDUS_clean_sbu_1, # of connection points: 6
#     Node 63, Type 0, BuildingBlock: CIFDUS_clean_sbu_1, # of connection points: 6
#     Node 64, Type 0, BuildingBlock: CIFDUS_clean_sbu_1, # of connection points: 6
#     Node 65, Type 0, BuildingBlock: CIFDUS_clean_sbu_1, # of connection points: 6
#     Node 66, Type 0, BuildingBlock: CIFDUS_clean_sbu_1, # of connection points: 6
#     Node 67, Type 0, BuildingBlock: CIFDUS_clean_sbu_1, # of connection points: 6
#     Node 68, Type 0, BuildingBlock: CIFDUS_clean_sbu_1, # of connection points: 6
#     Node 69, Type 0, BuildingBlock: CIFDUS_clean_sbu_1, # of connection points: 6
#     Node 70, Type 0, BuildingBlock: CIFDUS_clean_sbu_1, # of connection points: 6
#     Node 71, Type 0, BuildingBlock: CIFDUS_clean_sbu_1, # of connection points: 6
#     Node 72, Type 0, BuildingBlock: CIFDUS_clean_sbu_1, # of connection points: 6
#     Node 73, Type 0, BuildingBlock: CIFDUS_clean_sbu_1, # of connection points: 6
#     Node 74, Type 0, BuildingBlock: CIFDUS_clean_sbu_1, # of connection points: 6
#     Node 75, Type 0, BuildingBlock: CIFDUS_clean_sbu_1, # of connection points: 6
#     Node 76, Type 0, BuildingBlock: CIFDUS_clean_sbu_1, # of connection points: 6
#     Node 77, Type 0, BuildingBlock: CIFDUS_clean_sbu_1, # of connection points: 6
#     Node 78, Type 0, BuildingBlock: CIFDUS_clean_sbu_1, # of connection points: 6
#     Node 79, Type 0, BuildingBlock: CIFDUS_clean_sbu_1, # of connection points: 6
#     Node 80, Type 0, BuildingBlock: CIFDUS_clean_sbu_1, # of connection points: 6
#     Node 81, Type 0, BuildingBlock: CIFDUS_clean_sbu_1, # of connection points: 6
#     Node 82, Type 0, BuildingBlock: CIFDUS_clean_sbu_1, # of connection points: 6
#     Node 83, Type 0, BuildingBlock: CIFDUS_clean_sbu_1, # of connection points: 6
#     Node 84, Type 0, BuildingBlock: CIFDUS_clean_sbu_1, # of connection points: 6
#     Node 85, Type 0, BuildingBlock: CIFDUS_clean_sbu_1, # of connection points: 6
#     Node 86, Type 0, BuildingBlock: CIFDUS_clean_sbu_1, # of connection points: 6
#     Node 87, Type 0, BuildingBlock: CIFDUS_clean_sbu_1, # of connection points: 6
#     Node 88, Type 0, BuildingBlock: CIFDUS_clean_sbu_1, # of connection points: 6
#     Node 89, Type 0, BuildingBlock: CIFDUS_clean_sbu_1, # of connection points: 6
#     Node 90, Type 0, BuildingBlock: CIFDUS_clean_sbu_1, # of connection points: 6
#     Node 91, Type 0, BuildingBlock: CIFDUS_clean_sbu_1, # of connection points: 6
#     Node 92, Type 0, BuildingBlock: CIFDUS_clean_sbu_1, # of connection points: 6
#     Node 93, Type 0, BuildingBlock: CIFDUS_clean_sbu_1, # of connection points: 6
#     Node 94, Type 0, BuildingBlock: CIFDUS_clean_sbu_1, # of connection points: 6
#     Node 95, Type 0, BuildingBlock: CIFDUS_clean_sbu_1, # of connection points: 6
#     Edge 96, Type (0, 0), BuildingBlock: OJICUG_clean_linker_0, # of connection points: 2
#     Edge 97, Type (0, 0), BuildingBlock: OJICUG_clean_linker_0, # of connection points: 2
#     Edge 98, Type (0, 0), BuildingBlock: OJICUG_clean_linker_0, # of connection points: 2
#     Edge 99, Type (0, 0), BuildingBlock: OJICUG_clean_linker_0, # of connection points: 2
#     Edge 100, Type (0, 0), BuildingBlock: OJICUG_clean_linker_0, # of connection points: 2
#     Edge 101, Type (0, 0), BuildingBlock: OJICUG_clean_linker_0, # of connection points: 2
#     Edge 102, Type (0, 0), BuildingBlock: OJICUG_clean_linker_0, # of connection points: 2
#     Edge 103, Type (0, 0), BuildingBlock: OJICUG_clean_linker_0, # of connection points: 2
#     Edge 104, Type (0, 0), BuildingBlock: OJICUG_clean_linker_0, # of connection points: 2
#     Edge 105, Type (0, 0), BuildingBlock: OJICUG_clean_linker_0, # of connection points: 2
#     Edge 106, Type (0, 0), BuildingBlock: OJICUG_clean_linker_0, # of connection points: 2
#     Edge 107, Type (0, 0), BuildingBlock: OJICUG_clean_linker_0, # of connection points: 2
#     Edge 108, Type (0, 0), BuildingBlock: OJICUG_clean_linker_0, # of connection points: 2
#     Edge 109, Type (0, 0), BuildingBlock: OJICUG_clean_linker_0, # of connection points: 2
#     Edge 110, Type (0, 0), BuildingBlock: OJICUG_clean_linker_0, # of connection points: 2
#     Edge 111, Type (0, 0), BuildingBlock: OJICUG_clean_linker_0, # of connection points: 2
#     Edge 112, Type (0, 0), BuildingBlock: OJICUG_clean_linker_0, # of connection points: 2
#     Edge 113, Type (0, 0), BuildingBlock: OJICUG_clean_linker_0, # of connection points: 2
#     Edge 114, Type (0, 0), BuildingBlock: OJICUG_clean_linker_0, # of connection points: 2
#     Edge 115, Type (0, 0), BuildingBlock: OJICUG_clean_linker_0, # of connection points: 2
#     Edge 116, Type (0, 0), BuildingBlock: OJICUG_clean_linker_0, # of connection points: 2
#     Edge 117, Type (0, 0), BuildingBlock: OJICUG_clean_linker_0, # of connection points: 2
#     Edge 118, Type (0, 0), BuildingBlock: OJICUG_clean_linker_0, # of connection points: 2
#     Edge 119, Type (0, 0), BuildingBlock: OJICUG_clean_linker_0, # of connection points: 2
#     Edge 120, Type (0, 0), BuildingBlock: OJICUG_clean_linker_0, # of connection points: 2
#     Edge 121, Type (0, 0), BuildingBlock: OJICUG_clean_linker_0, # of connection points: 2
#     Edge 122, Type (0, 0), BuildingBlock: OJICUG_clean_linker_0, # of connection points: 2
#     Edge 123, Type (0, 0), BuildingBlock: OJICUG_clean_linker_0, # of connection points: 2
#     Edge 124, Type (0, 0), BuildingBlock: OJICUG_clean_linker_0, # of connection points: 2
#     Edge 125, Type (0, 0), BuildingBlock: OJICUG_clean_linker_0, # of connection points: 2
#     Edge 126, Type (0, 0), BuildingBlock: OJICUG_clean_linker_0, # of connection points: 2
#     Edge 127, Type (0, 0), BuildingBlock: OJICUG_clean_linker_0, # of connection points: 2
#     Edge 128, Type (0, 0), BuildingBlock: OJICUG_clean_linker_0, # of connection points: 2
#     Edge 129, Type (0, 0), BuildingBlock: OJICUG_clean_linker_0, # of connection points: 2
#     Edge 130, Type (0, 0), BuildingBlock: OJICUG_clean_linker_0, # of connection points: 2
#     Edge 131, Type (0, 0), BuildingBlock: OJICUG_clean_linker_0, # of connection points: 2
#     Edge 132, Type (0, 0), BuildingBlock: OJICUG_clean_linker_0, # of connection points: 2
#     Edge 133, Type (0, 0), BuildingBlock: OJICUG_clean_linker_0, # of connection points: 2
#     Edge 134, Type (0, 0), BuildingBlock: OJICUG_clean_linker_0, # of connection points: 2
#     Edge 135, Type (0, 0), BuildingBlock: OJICUG_clean_linker_0, # of connection points: 2
#     Edge 136, Type (0, 0), BuildingBlock: OJICUG_clean_linker_0, # of connection points: 2
#     Edge 137, Type (0, 0), BuildingBlock: OJICUG_clean_linker_0, # of connection points: 2
#     Edge 138, Type (0, 0), BuildingBlock: OJICUG_clean_linker_0, # of connection points: 2
#     Edge 139, Type (0, 0), BuildingBlock: OJICUG_clean_linker_0, # of connection points: 2
#     Edge 140, Type (0, 0), BuildingBlock: OJICUG_clean_linker_0, # of connection points: 2
#     Edge 141, Type (0, 0), BuildingBlock: OJICUG_clean_linker_0, # of connection points: 2
#     Edge 142, Type (0, 0), BuildingBlock: OJICUG_clean_linker_0, # of connection points: 2
#     Edge 143, Type (0, 0), BuildingBlock: OJICUG_clean_linker_0, # of connection points: 2
#     Edge 144, Type (0, 0), BuildingBlock: OJICUG_clean_linker_0, # of connection points: 2
#     Edge 145, Type (0, 0), BuildingBlock: OJICUG_clean_linker_0, # of connection points: 2
#     Edge 146, Type (0, 0), BuildingBlock: OJICUG_clean_linker_0, # of connection points: 2
#     Edge 147, Type (0, 0), BuildingBlock: OJICUG_clean_linker_0, # of connection points: 2
#     Edge 148, Type (0, 0), BuildingBlock: OJICUG_clean_linker_0, # of connection points: 2
#     Edge 149, Type (0, 0), BuildingBlock: OJICUG_clean_linker_0, # of connection points: 2
#     Edge 150, Type (0, 0), BuildingBlock: OJICUG_clean_linker_0, # of connection points: 2
#     Edge 151, Type (0, 0), BuildingBlock: OJICUG_clean_linker_0, # of connection points: 2
#     Edge 152, Type (0, 0), BuildingBlock: OJICUG_clean_linker_0, # of connection points: 2
#     Edge 153, Type (0, 0), BuildingBlock: OJICUG_clean_linker_0, # of connection points: 2
#     Edge 154, Type (0, 0), BuildingBlock: OJICUG_clean_linker_0, # of connection points: 2
#     Edge 155, Type (0, 0), BuildingBlock: OJICUG_clean_linker_0, # of connection points: 2
#     Edge 156, Type (0, 0), BuildingBlock: OJICUG_clean_linker_0, # of connection points: 2
#     Edge 157, Type (0, 0), BuildingBlock: OJICUG_clean_linker_0, # of connection points: 2
#     Edge 158, Type (0, 0), BuildingBlock: OJICUG_clean_linker_0, # of connection points: 2
#     Edge 159, Type (0, 0), BuildingBlock: OJICUG_clean_linker_0, # of connection points: 2
#     Edge 160, Type (0, 0), BuildingBlock: OJICUG_clean_linker_0, # of connection points: 2
#     Edge 161, Type (0, 0), BuildingBlock: OJICUG_clean_linker_0, # of connection points: 2
#     Edge 162, Type (0, 0), BuildingBlock: OJICUG_clean_linker_0, # of connection points: 2
#     Edge 163, Type (0, 0), BuildingBlock: OJICUG_clean_linker_0, # of connection points: 2
#     Edge 164, Type (0, 0), BuildingBlock: OJICUG_clean_linker_0, # of connection points: 2
#     Edge 165, Type (0, 0), BuildingBlock: OJICUG_clean_linker_0, # of connection points: 2
#     Edge 166, Type (0, 0), BuildingBlock: OJICUG_clean_linker_0, # of connection points: 2
#     Edge 167, Type (0, 0), BuildingBlock: OJICUG_clean_linker_0, # of connection points: 2
#     Edge 168, Type (0, 0), BuildingBlock: OJICUG_clean_linker_0, # of connection points: 2
#     Edge 169, Type (0, 0), BuildingBlock: OJICUG_clean_linker_0, # of connection points: 2
#     Edge 170, Type (0, 0), BuildingBlock: OJICUG_clean_linker_0, # of connection points: 2
#     Edge 171, Type (0, 0), BuildingBlock: OJICUG_clean_linker_0, # of connection points: 2
#     Edge 172, Type (0, 0), BuildingBlock: OJICUG_clean_linker_0, # of connection points: 2
#     Edge 173, Type (0, 0), BuildingBlock: OJICUG_clean_linker_0, # of connection points: 2
#     Edge 174, Type (0, 0), BuildingBlock: OJICUG_clean_linker_0, # of connection points: 2
#     Edge 175, Type (0, 0), BuildingBlock: OJICUG_clean_linker_0, # of connection points: 2
#     Edge 176, Type (0, 0), BuildingBlock: OJICUG_clean_linker_0, # of connection points: 2
#     Edge 177, Type (0, 0), BuildingBlock: OJICUG_clean_linker_0, # of connection points: 2
#     Edge 178, Type (0, 0), BuildingBlock: OJICUG_clean_linker_0, # of connection points: 2
#     Edge 179, Type (0, 0), BuildingBlock: OJICUG_clean_linker_0, # of connection points: 2
#     Edge 180, Type (0, 0), BuildingBlock: OJICUG_clean_linker_0, # of connection points: 2
#     Edge 181, Type (0, 0), BuildingBlock: OJICUG_clean_linker_0, # of connection points: 2
#     Edge 182, Type (0, 0), BuildingBlock: OJICUG_clean_linker_0, # of connection points: 2
#     Edge 183, Type (0, 0), BuildingBlock: OJICUG_clean_linker_0, # of connection points: 2
#     Edge 184, Type (0, 0), BuildingBlock: OJICUG_clean_linker_0, # of connection points: 2
#     Edge 185, Type (0, 0), BuildingBlock: OJICUG_clean_linker_0, # of connection points: 2
#     Edge 186, Type (0, 0), BuildingBlock: OJICUG_clean_linker_0, # of connection points: 2
#     Edge 187, Type (0, 0), BuildingBlock: OJICUG_clean_linker_0, # of connection points: 2
#     Edge 188, Type (0, 0), BuildingBlock: OJICUG_clean_linker_0, # of connection points: 2
#     Edge 189, Type (0, 0), BuildingBlock: OJICUG_clean_linker_0, # of connection points: 2
#     Edge 190, Type (0, 0), BuildingBlock: OJICUG_clean_linker_0, # of connection points: 2
#     Edge 191, Type (0, 0), BuildingBlock: OJICUG_clean_linker_0, # of connection points: 2
#     Edge 192, Type (0, 0), BuildingBlock: OJICUG_clean_linker_0, # of connection points: 2
#     Edge 193, Type (0, 0), BuildingBlock: OJICUG_clean_linker_0, # of connection points: 2
#     Edge 194, Type (0, 0), BuildingBlock: OJICUG_clean_linker_0, # of connection points: 2
#     Edge 195, Type (0, 0), BuildingBlock: OJICUG_clean_linker_0, # of connection points: 2
#     Edge 196, Type (0, 0), BuildingBlock: OJICUG_clean_linker_0, # of connection points: 2
#     Edge 197, Type (0, 0), BuildingBlock: OJICUG_clean_linker_0, # of connection points: 2
#     Edge 198, Type (0, 0), BuildingBlock: OJICUG_clean_linker_0, # of connection points: 2
#     Edge 199, Type (0, 0), BuildingBlock: OJICUG_clean_linker_0, # of connection points: 2
#     Edge 200, Type (0, 0), BuildingBlock: OJICUG_clean_linker_0, # of connection points: 2
#     Edge 201, Type (0, 0), BuildingBlock: OJICUG_clean_linker_0, # of connection points: 2
#     Edge 202, Type (0, 0), BuildingBlock: OJICUG_clean_linker_0, # of connection points: 2
#     Edge 203, Type (0, 0), BuildingBlock: OJICUG_clean_linker_0, # of connection points: 2
#     Edge 204, Type (0, 0), BuildingBlock: OJICUG_clean_linker_0, # of connection points: 2
#     Edge 205, Type (0, 0), BuildingBlock: OJICUG_clean_linker_0, # of connection points: 2
#     Edge 206, Type (0, 0), BuildingBlock: OJICUG_clean_linker_0, # of connection points: 2
#     Edge 207, Type (0, 0), BuildingBlock: OJICUG_clean_linker_0, # of connection points: 2
#     Edge 208, Type (0, 0), BuildingBlock: OJICUG_clean_linker_0, # of connection points: 2
#     Edge 209, Type (0, 0), BuildingBlock: OJICUG_clean_linker_0, # of connection points: 2
#     Edge 210, Type (0, 0), BuildingBlock: OJICUG_clean_linker_0, # of connection points: 2
#     Edge 211, Type (0, 0), BuildingBlock: OJICUG_clean_linker_0, # of connection points: 2
#     Edge 212, Type (0, 0), BuildingBlock: OJICUG_clean_linker_0, # of connection points: 2
#     Edge 213, Type (0, 0), BuildingBlock: OJICUG_clean_linker_0, # of connection points: 2
#     Edge 214, Type (0, 0), BuildingBlock: OJICUG_clean_linker_0, # of connection points: 2
#     Edge 215, Type (0, 0), BuildingBlock: OJICUG_clean_linker_0, # of connection points: 2
#     Edge 216, Type (0, 0), BuildingBlock: OJICUG_clean_linker_0, # of connection points: 2
#     Edge 217, Type (0, 0), BuildingBlock: OJICUG_clean_linker_0, # of connection points: 2
#     Edge 218, Type (0, 0), BuildingBlock: OJICUG_clean_linker_0, # of connection points: 2
#     Edge 219, Type (0, 0), BuildingBlock: OJICUG_clean_linker_0, # of connection points: 2
#     Edge 220, Type (0, 0), BuildingBlock: OJICUG_clean_linker_0, # of connection points: 2
#     Edge 221, Type (0, 0), BuildingBlock: OJICUG_clean_linker_0, # of connection points: 2
#     Edge 222, Type (0, 0), BuildingBlock: OJICUG_clean_linker_0, # of connection points: 2
#     Edge 223, Type (0, 0), BuildingBlock: OJICUG_clean_linker_0, # of connection points: 2
#     Edge 224, Type (0, 0), BuildingBlock: OJICUG_clean_linker_0, # of connection points: 2
#     Edge 225, Type (0, 0), BuildingBlock: OJICUG_clean_linker_0, # of connection points: 2
#     Edge 226, Type (0, 0), BuildingBlock: OJICUG_clean_linker_0, # of connection points: 2
#     Edge 227, Type (0, 0), BuildingBlock: OJICUG_clean_linker_0, # of connection points: 2
#     Edge 228, Type (0, 0), BuildingBlock: OJICUG_clean_linker_0, # of connection points: 2
#     Edge 229, Type (0, 0), BuildingBlock: OJICUG_clean_linker_0, # of connection points: 2
#     Edge 230, Type (0, 0), BuildingBlock: OJICUG_clean_linker_0, # of connection points: 2
#     Edge 231, Type (0, 0), BuildingBlock: OJICUG_clean_linker_0, # of connection points: 2
#     Edge 232, Type (0, 0), BuildingBlock: OJICUG_clean_linker_0, # of connection points: 2
#     Edge 233, Type (0, 0), BuildingBlock: OJICUG_clean_linker_0, # of connection points: 2
#     Edge 234, Type (0, 0), BuildingBlock: OJICUG_clean_linker_0, # of connection points: 2
#     Edge 235, Type (0, 0), BuildingBlock: OJICUG_clean_linker_0, # of connection points: 2
#     Edge 236, Type (0, 0), BuildingBlock: OJICUG_clean_linker_0, # of connection points: 2
#     Edge 237, Type (0, 0), BuildingBlock: OJICUG_clean_linker_0, # of connection points: 2
#     Edge 238, Type (0, 0), BuildingBlock: OJICUG_clean_linker_0, # of connection points: 2
#     Edge 239, Type (0, 0), BuildingBlock: OJICUG_clean_linker_0, # of connection points: 2
#     Edge 240, Type (0, 0), BuildingBlock: OJICUG_clean_linker_0, # of connection points: 2
#     Edge 241, Type (0, 0), BuildingBlock: OJICUG_clean_linker_0, # of connection points: 2
#     Edge 242, Type (0, 0), BuildingBlock: OJICUG_clean_linker_0, # of connection points: 2
#     Edge 243, Type (0, 0), BuildingBlock: OJICUG_clean_linker_0, # of connection points: 2
#     Edge 244, Type (0, 0), BuildingBlock: OJICUG_clean_linker_0, # of connection points: 2
#     Edge 245, Type (0, 0), BuildingBlock: OJICUG_clean_linker_0, # of connection points: 2
#     Edge 246, Type (0, 0), BuildingBlock: OJICUG_clean_linker_0, # of connection points: 2
#     Edge 247, Type (0, 0), BuildingBlock: OJICUG_clean_linker_0, # of connection points: 2
#     Edge 248, Type (0, 0), BuildingBlock: OJICUG_clean_linker_0, # of connection points: 2
#     Edge 249, Type (0, 0), BuildingBlock: OJICUG_clean_linker_0, # of connection points: 2
#     Edge 250, Type (0, 0), BuildingBlock: OJICUG_clean_linker_0, # of connection points: 2
#     Edge 251, Type (0, 0), BuildingBlock: OJICUG_clean_linker_0, # of connection points: 2
#     Edge 252, Type (0, 0), BuildingBlock: OJICUG_clean_linker_0, # of connection points: 2
#     Edge 253, Type (0, 0), BuildingBlock: OJICUG_clean_linker_0, # of connection points: 2
#     Edge 254, Type (0, 0), BuildingBlock: OJICUG_clean_linker_0, # of connection points: 2
#     Edge 255, Type (0, 0), BuildingBlock: OJICUG_clean_linker_0, # of connection points: 2
#     Edge 256, Type (0, 0), BuildingBlock: OJICUG_clean_linker_0, # of connection points: 2
#     Edge 257, Type (0, 0), BuildingBlock: OJICUG_clean_linker_0, # of connection points: 2
#     Edge 258, Type (0, 0), BuildingBlock: OJICUG_clean_linker_0, # of connection points: 2
#     Edge 259, Type (0, 0), BuildingBlock: OJICUG_clean_linker_0, # of connection points: 2
#     Edge 260, Type (0, 0), BuildingBlock: OJICUG_clean_linker_0, # of connection points: 2
#     Edge 261, Type (0, 0), BuildingBlock: OJICUG_clean_linker_0, # of connection points: 2
#     Edge 262, Type (0, 0), BuildingBlock: OJICUG_clean_linker_0, # of connection points: 2
#     Edge 263, Type (0, 0), BuildingBlock: OJICUG_clean_linker_0, # of connection points: 2
#     Edge 264, Type (0, 0), BuildingBlock: OJICUG_clean_linker_0, # of connection points: 2
#     Edge 265, Type (0, 0), BuildingBlock: OJICUG_clean_linker_0, # of connection points: 2
#     Edge 266, Type (0, 0), BuildingBlock: OJICUG_clean_linker_0, # of connection points: 2
#     Edge 267, Type (0, 0), BuildingBlock: OJICUG_clean_linker_0, # of connection points: 2
#     Edge 268, Type (0, 0), BuildingBlock: OJICUG_clean_linker_0, # of connection points: 2
#     Edge 269, Type (0, 0), BuildingBlock: OJICUG_clean_linker_0, # of connection points: 2
#     Edge 270, Type (0, 0), BuildingBlock: OJICUG_clean_linker_0, # of connection points: 2
#     Edge 271, Type (0, 0), BuildingBlock: OJICUG_clean_linker_0, # of connection points: 2
#     Edge 272, Type (0, 0), BuildingBlock: OJICUG_clean_linker_0, # of connection points: 2
#     Edge 273, Type (0, 0), BuildingBlock: OJICUG_clean_linker_0, # of connection points: 2
#     Edge 274, Type (0, 0), BuildingBlock: OJICUG_clean_linker_0, # of connection points: 2
#     Edge 275, Type (0, 0), BuildingBlock: OJICUG_clean_linker_0, # of connection points: 2
#     Edge 276, Type (0, 0), BuildingBlock: OJICUG_clean_linker_0, # of connection points: 2
#     Edge 277, Type (0, 0), BuildingBlock: OJICUG_clean_linker_0, # of connection points: 2
#     Edge 278, Type (0, 0), BuildingBlock: OJICUG_clean_linker_0, # of connection points: 2
#     Edge 279, Type (0, 0), BuildingBlock: OJICUG_clean_linker_0, # of connection points: 2
#     Edge 280, Type (0, 0), BuildingBlock: OJICUG_clean_linker_0, # of connection points: 2
#     Edge 281, Type (0, 0), BuildingBlock: OJICUG_clean_linker_0, # of connection points: 2
#     Edge 282, Type (0, 0), BuildingBlock: OJICUG_clean_linker_0, # of connection points: 2
#     Edge 283, Type (0, 0), BuildingBlock: OJICUG_clean_linker_0, # of connection points: 2
#     Edge 284, Type (0, 0), BuildingBlock: OJICUG_clean_linker_0, # of connection points: 2
#     Edge 285, Type (0, 0), BuildingBlock: OJICUG_clean_linker_0, # of connection points: 2
#     Edge 286, Type (0, 0), BuildingBlock: OJICUG_clean_linker_0, # of connection points: 2
#     Edge 287, Type (0, 0), BuildingBlock: OJICUG_clean_linker_0, # of connection points: 2
#     Edge 288, Type (0, 0), BuildingBlock: OJICUG_clean_linker_0, # of connection points: 2
#     Edge 289, Type (0, 0), BuildingBlock: OJICUG_clean_linker_0, # of connection points: 2
#     Edge 290, Type (0, 0), BuildingBlock: OJICUG_clean_linker_0, # of connection points: 2
#     Edge 291, Type (0, 0), BuildingBlock: OJICUG_clean_linker_0, # of connection points: 2
#     Edge 292, Type (0, 0), BuildingBlock: OJICUG_clean_linker_0, # of connection points: 2
#     Edge 293, Type (0, 0), BuildingBlock: OJICUG_clean_linker_0, # of connection points: 2
#     Edge 294, Type (0, 0), BuildingBlock: OJICUG_clean_linker_0, # of connection points: 2
#     Edge 295, Type (0, 0), BuildingBlock: OJICUG_clean_linker_0, # of connection points: 2
#     Edge 296, Type (0, 0), BuildingBlock: OJICUG_clean_linker_0, # of connection points: 2
#     Edge 297, Type (0, 0), BuildingBlock: OJICUG_clean_linker_0, # of connection points: 2
#     Edge 298, Type (0, 0), BuildingBlock: OJICUG_clean_linker_0, # of connection points: 2
#     Edge 299, Type (0, 0), BuildingBlock: OJICUG_clean_linker_0, # of connection points: 2
#     Edge 300, Type (0, 0), BuildingBlock: OJICUG_clean_linker_0, # of connection points: 2
#     Edge 301, Type (0, 0), BuildingBlock: OJICUG_clean_linker_0, # of connection points: 2
#     Edge 302, Type (0, 0), BuildingBlock: OJICUG_clean_linker_0, # of connection points: 2
#     Edge 303, Type (0, 0), BuildingBlock: OJICUG_clean_linker_0, # of connection points: 2
#     Edge 304, Type (0, 0), BuildingBlock: OJICUG_clean_linker_0, # of connection points: 2
#     Edge 305, Type (0, 0), BuildingBlock: OJICUG_clean_linker_0, # of connection points: 2
#     Edge 306, Type (0, 0), BuildingBlock: OJICUG_clean_linker_0, # of connection points: 2
#     Edge 307, Type (0, 0), BuildingBlock: OJICUG_clean_linker_0, # of connection points: 2
#     Edge 308, Type (0, 0), BuildingBlock: OJICUG_clean_linker_0, # of connection points: 2
#     Edge 309, Type (0, 0), BuildingBlock: OJICUG_clean_linker_0, # of connection points: 2
#     Edge 310, Type (0, 0), BuildingBlock: OJICUG_clean_linker_0, # of connection points: 2
#     Edge 311, Type (0, 0), BuildingBlock: OJICUG_clean_linker_0, # of connection points: 2
#     Edge 312, Type (0, 0), BuildingBlock: OJICUG_clean_linker_0, # of connection points: 2
#     Edge 313, Type (0, 0), BuildingBlock: OJICUG_clean_linker_0, # of connection points: 2
#     Edge 314, Type (0, 0), BuildingBlock: OJICUG_clean_linker_0, # of connection points: 2
#     Edge 315, Type (0, 0), BuildingBlock: OJICUG_clean_linker_0, # of connection points: 2
#     Edge 316, Type (0, 0), BuildingBlock: OJICUG_clean_linker_0, # of connection points: 2
#     Edge 317, Type (0, 0), BuildingBlock: OJICUG_clean_linker_0, # of connection points: 2
#     Edge 318, Type (0, 0), BuildingBlock: OJICUG_clean_linker_0, # of connection points: 2
#     Edge 319, Type (0, 0), BuildingBlock: OJICUG_clean_linker_0, # of connection points: 2
#     Edge 320, Type (0, 0), BuildingBlock: OJICUG_clean_linker_0, # of connection points: 2
#     Edge 321, Type (0, 0), BuildingBlock: OJICUG_clean_linker_0, # of connection points: 2
#     Edge 322, Type (0, 0), BuildingBlock: OJICUG_clean_linker_0, # of connection points: 2
#     Edge 323, Type (0, 0), BuildingBlock: OJICUG_clean_linker_0, # of connection points: 2
#     Edge 324, Type (0, 0), BuildingBlock: OJICUG_clean_linker_0, # of connection points: 2
#     Edge 325, Type (0, 0), BuildingBlock: OJICUG_clean_linker_0, # of connection points: 2
#     Edge 326, Type (0, 0), BuildingBlock: OJICUG_clean_linker_0, # of connection points: 2
#     Edge 327, Type (0, 0), BuildingBlock: OJICUG_clean_linker_0, # of connection points: 2
#     Edge 328, Type (0, 0), BuildingBlock: OJICUG_clean_linker_0, # of connection points: 2
#     Edge 329, Type (0, 0), BuildingBlock: OJICUG_clean_linker_0, # of connection points: 2
#     Edge 330, Type (0, 0), BuildingBlock: OJICUG_clean_linker_0, # of connection points: 2
#     Edge 331, Type (0, 0), BuildingBlock: OJICUG_clean_linker_0, # of connection points: 2
#     Edge 332, Type (0, 0), BuildingBlock: OJICUG_clean_linker_0, # of connection points: 2
#     Edge 333, Type (0, 0), BuildingBlock: OJICUG_clean_linker_0, # of connection points: 2
#     Edge 334, Type (0, 0), BuildingBlock: OJICUG_clean_linker_0, # of connection points: 2
#     Edge 335, Type (0, 0), BuildingBlock: OJICUG_clean_linker_0, # of connection points: 2
#     Edge 336, Type (0, 0), BuildingBlock: OJICUG_clean_linker_0, # of connection points: 2
#     Edge 337, Type (0, 0), BuildingBlock: OJICUG_clean_linker_0, # of connection points: 2
#     Edge 338, Type (0, 0), BuildingBlock: OJICUG_clean_linker_0, # of connection points: 2
#     Edge 339, Type (0, 0), BuildingBlock: OJICUG_clean_linker_0, # of connection points: 2
#     Edge 340, Type (0, 0), BuildingBlock: OJICUG_clean_linker_0, # of connection points: 2
#     Edge 341, Type (0, 0), BuildingBlock: OJICUG_clean_linker_0, # of connection points: 2
#     Edge 342, Type (0, 0), BuildingBlock: OJICUG_clean_linker_0, # of connection points: 2
#     Edge 343, Type (0, 0), BuildingBlock: OJICUG_clean_linker_0, # of connection points: 2
#     Edge 344, Type (0, 0), BuildingBlock: OJICUG_clean_linker_0, # of connection points: 2
#     Edge 345, Type (0, 0), BuildingBlock: OJICUG_clean_linker_0, # of connection points: 2
#     Edge 346, Type (0, 0), BuildingBlock: OJICUG_clean_linker_0, # of connection points: 2
#     Edge 347, Type (0, 0), BuildingBlock: OJICUG_clean_linker_0, # of connection points: 2
#     Edge 348, Type (0, 0), BuildingBlock: OJICUG_clean_linker_0, # of connection points: 2
#     Edge 349, Type (0, 0), BuildingBlock: OJICUG_clean_linker_0, # of connection points: 2
#     Edge 350, Type (0, 0), BuildingBlock: OJICUG_clean_linker_0, # of connection points: 2
#     Edge 351, Type (0, 0), BuildingBlock: OJICUG_clean_linker_0, # of connection points: 2
#     Edge 352, Type (0, 0), BuildingBlock: OJICUG_clean_linker_0, # of connection points: 2
#     Edge 353, Type (0, 0), BuildingBlock: OJICUG_clean_linker_0, # of connection points: 2
#     Edge 354, Type (0, 0), BuildingBlock: OJICUG_clean_linker_0, # of connection points: 2
#     Edge 355, Type (0, 0), BuildingBlock: OJICUG_clean_linker_0, # of connection points: 2
#     Edge 356, Type (0, 0), BuildingBlock: OJICUG_clean_linker_0, # of connection points: 2
#     Edge 357, Type (0, 0), BuildingBlock: OJICUG_clean_linker_0, # of connection points: 2
#     Edge 358, Type (0, 0), BuildingBlock: OJICUG_clean_linker_0, # of connection points: 2
#     Edge 359, Type (0, 0), BuildingBlock: OJICUG_clean_linker_0, # of connection points: 2
#     Edge 360, Type (0, 0), BuildingBlock: OJICUG_clean_linker_0, # of connection points: 2
#     Edge 361, Type (0, 0), BuildingBlock: OJICUG_clean_linker_0, # of connection points: 2
#     Edge 362, Type (0, 0), BuildingBlock: OJICUG_clean_linker_0, # of connection points: 2
#     Edge 363, Type (0, 0), BuildingBlock: OJICUG_clean_linker_0, # of connection points: 2
#     Edge 364, Type (0, 0), BuildingBlock: OJICUG_clean_linker_0, # of connection points: 2
#     Edge 365, Type (0, 0), BuildingBlock: OJICUG_clean_linker_0, # of connection points: 2
#     Edge 366, Type (0, 0), BuildingBlock: OJICUG_clean_linker_0, # of connection points: 2
#     Edge 367, Type (0, 0), BuildingBlock: OJICUG_clean_linker_0, # of connection points: 2
#     Edge 368, Type (0, 0), BuildingBlock: OJICUG_clean_linker_0, # of connection points: 2
#     Edge 369, Type (0, 0), BuildingBlock: OJICUG_clean_linker_0, # of connection points: 2
#     Edge 370, Type (0, 0), BuildingBlock: OJICUG_clean_linker_0, # of connection points: 2
#     Edge 371, Type (0, 0), BuildingBlock: OJICUG_clean_linker_0, # of connection points: 2
#     Edge 372, Type (0, 0), BuildingBlock: OJICUG_clean_linker_0, # of connection points: 2
#     Edge 373, Type (0, 0), BuildingBlock: OJICUG_clean_linker_0, # of connection points: 2
#     Edge 374, Type (0, 0), BuildingBlock: OJICUG_clean_linker_0, # of connection points: 2
#     Edge 375, Type (0, 0), BuildingBlock: OJICUG_clean_linker_0, # of connection points: 2
#     Edge 376, Type (0, 0), BuildingBlock: OJICUG_clean_linker_0, # of connection points: 2
#     Edge 377, Type (0, 0), BuildingBlock: OJICUG_clean_linker_0, # of connection points: 2
#     Edge 378, Type (0, 0), BuildingBlock: OJICUG_clean_linker_0, # of connection points: 2
#     Edge 379, Type (0, 0), BuildingBlock: OJICUG_clean_linker_0, # of connection points: 2
#     Edge 380, Type (0, 0), BuildingBlock: OJICUG_clean_linker_0, # of connection points: 2
#     Edge 381, Type (0, 0), BuildingBlock: OJICUG_clean_linker_0, # of connection points: 2
#     Edge 382, Type (0, 0), BuildingBlock: OJICUG_clean_linker_0, # of connection points: 2
#     Edge 383, Type (0, 0), BuildingBlock: OJICUG_clean_linker_0, # of connection points: 2
# Relax obj value: 0.372
# Max RMSD: 0.217
# Mean RMSD: 0.217
data_MOF--net-ana-e--node1-CIFDUS_clean_sbu_1--edge1-OJICUG_clean_linker_0
_symmetry_space_group_name_H-M    P1
_symmetry_Int_Tables_number       1
_symmetry_cell_setting            triclinic
loop_
_symmetry_equiv_pos_as_xyz
'x, y, z'
_cell_length_a     55.480489
_cell_length_b     55.58088
_cell_length_c     55.601459
_cell_angle_alpha  89.980455
_cell_angle_beta   90.018134
_cell_angle_gamma 89.95466
loop_
_atom_site_label
_atom_site_type_symbol
_atom_site_fract_x
_atom_site_fract_y
_atom_site_fract_z
_atom_type_partial_charge
O0 O 0.00219 0.08329 0.34283 0.0
Mn1 Mn 0.0273 0.1109 0.35137 0.0
O2 O 0.00407 0.05882 0.37296 0.0
Mn3 Mn 0.00435 0.08638 0.39105 0.0
O4 O 0.04992 0.14022 0.35702 0.0
O5 O 0.02389 0.11946 0.31725 0.0
Mn6 Mn 0.05044 0.12692 0.30228 0.0
O7 O 0.05867 0.09084 0.34347 0.0
O8 O 0.06093 0.15306 0.31994 0.0
O9 O 0.99782 0.13176 0.35957 0.0
O10 O 0.97944 0.10825 0.38698 0.0
O11 O 0.02522 0.12996 0.28023 0.0
O12 O 0.06988 0.09989 0.30543 0.0
C13 C 0.03308 0.09843 0.41077 0.0
C14 C 0.99543 0.06368 0.35271 0.0
C15 C 0.06041 0.1552 0.34283 0.0
C16 C 0.01186 0.12374 0.29822 0.0
C17 C 0.07334 0.08914 0.32543 0.0
C18 C 0.98041 0.12713 0.37391 0.0
O19 O 0.03119 0.10356 0.38777 0.0
O20 O 0.01705 0.08436 0.42028 0.0
O21 O 0.1656 0.75373 0.59687 0.0
Mn22 Mn 0.13752 0.77813 0.60421 0.0
O23 O 0.19072 0.75736 0.62656 0.0
Mn24 Mn 0.16408 0.75756 0.64629 0.0
O25 O 0.10768 0.80061 0.60793 0.0
O26 O 0.12953 0.7738 0.56967 0.0
Mn27 Mn 0.12781 0.80108 0.55409 0.0
O28 O 0.15782 0.80937 0.59672 0.0
O29 O 0.10334 0.81638 0.57051 0.0
O30 O 0.11788 0.74838 0.61357 0.0
O31 O 0.14211 0.73235 0.64251 0.0
O32 O 0.1203 0.77722 0.53212 0.0
O33 O 0.15753 0.81581 0.55709 0.0
C34 C 0.14599 0.7857 0.66349 0.0
C35 C 0.18546 0.74776 0.60673 0.0
C36 C 0.09683 0.81417 0.59248 0.0
C37 C 0.12291 0.76302 0.55039 0.0
C38 C 0.16408 0.82179 0.57814 0.0
C39 C 0.12324 0.7321 0.6291 0.0
O40 O 0.14471 0.78201 0.64028 0.0
O41 O 0.16327 0.77425 0.67427 0.0
O42 O 0.49491 0.91531 0.84606 0.0
Mn43 Mn 0.47114 0.88653 0.85379 0.0
O44 O 0.49074 0.94105 0.87552 0.0
Mn45 Mn 0.48944 0.91544 0.8965 0.0
O46 O 0.44995 0.85602 0.85961 0.0
O47 O 0.47811 0.87639 0.82027 0.0
Mn48 Mn 0.45294 0.86605 0.80471 0.0
O49 O 0.43915 0.90449 0.84245 0.0
O50 O 0.44388 0.83996 0.82271 0.0
O51 O 0.50113 0.86871 0.86561 0.0
O52 O 0.51538 0.89396 0.89425 0.0
O53 O 0.47848 0.86412 0.78342 0.0
O54 O 0.43076 0.89085 0.80506 0.0
C55 C 0.46009 0.89657 0.91162 0.0
C56 C 0.50088 0.93519 0.85603 0.0
C57 C 0.44221 0.83926 0.84558 0.0
C58 C 0.49079 0.87231 0.80141 0.0
C59 C 0.42549 0.90335 0.82355 0.0
C60 C 0.51697 0.8749 0.88123 0.0
O61 O 0.46528 0.89644 0.88872 0.0
O62 O 0.4706 0.91376 0.92339 0.0
O63 O 0.33409 0.24529 0.09615 0.0
Mn64 Mn 0.36185 0.21989 0.10254 0.0
O65 O 0.30966 0.24293 0.12677 0.0
Mn66 Mn 0.33651 0.24022 0.14603 0.0
O67 O 0.3915 0.19674 0.10625 0.0
O68 O 0.3699 0.22586 0.0686 0.0
Mn69 Mn 0.37722 0.20055 0.05181 0.0
O70 O 0.34161 0.18908 0.09278 0.0
O71 O 0.40384 0.18957 0.06806 0.0
O72 O 0.38212 0.24878 0.11274 0.0
O73 O 0.35975 0.26452 0.1431 0.0
O74 O 0.37858 0.22674 0.03099 0.0
O75 O 0.35107 0.18004 0.05432 0.0
C76 C 0.35319 0.20999 0.16125 0.0
C77 C 0.31487 0.25222 0.10676 0.0
C78 C 0.40609 0.18729 0.09081 0.0
C79 C 0.37263 0.2389 0.0499 0.0
C80 C 0.34034 0.17523 0.07404 0.0
C81 C 0.37796 0.26473 0.12883 0.0
O82 O 0.35396 0.21484 0.13825 0.0
O83 O 0.33684 0.22181 0.17302 0.0
O84 O 0.00349 0.91505 0.15145 0.0
Mn85 Mn 0.02741 0.88634 0.14415 0.0
O86 O 0.00658 0.93976 0.12095 0.0
Mn87 Mn 0.00822 0.9136 0.10067 0.0
O88 O 0.04864 0.85592 0.13904 0.0
O89 O 0.02211 0.87729 0.17802 0.0
Mn90 Mn 0.04814 0.86942 0.19385 0.0
O91 O 0.05914 0.90498 0.15366 0.0
O92 O 0.05824 0.84305 0.17657 0.0
O93 O 0.99727 0.86771 0.13357 0.0
O94 O 0.9831 0.89141 0.10342 0.0
O95 O 0.02245 0.86651 0.21514 0.0
O96 O 0.06884 0.8956 0.1919 0.0
C97 C 0.03845 0.89534 0.08637 0.0
C98 C 0.99699 0.93445 0.14086 0.0
C99 C 0.05789 0.84055 0.15373 0.0
C100 C 0.00962 0.87277 0.19675 0.0
C101 C 0.07324 0.90637 0.17213 0.0
C102 C 0.98186 0.87283 0.11712 0.0
O103 O 0.03273 0.89537 0.10906 0.0
O104 O 0.02716 0.91148 0.07385 0.0
O105 O 0.33268 0.75451 0.39724 0.0
Mn106 Mn 0.36197 0.77902 0.39406 0.0
O107 O 0.31226 0.76301 0.36544 0.0
Mn108 Mn 0.33999 0.76306 0.34743 0.0
O109 O 0.39241 0.80053 0.39267 0.0
O110 O 0.36729 0.77212 0.42863 0.0
Mn111 Mn 0.37471 0.79774 0.44539 0.0
O112 O 0.34212 0.81025 0.4028 0.0
O113 O 0.40293 0.80809 0.43111 0.0
O114 O 0.38194 0.74948 0.38484 0.0
O115 O 0.3627 0.73805 0.35083 0.0
O116 O 0.37436 0.77209 0.46674 0.0
O117 O 0.34932 0.81919 0.44173 0.0
C118 C 0.35848 0.79289 0.33522 0.0
C119 C 0.31525 0.74935 0.38315 0.0
C120 C 0.40668 0.80947 0.40848 0.0
C121 C 0.36903 0.75956 0.44788 0.0
C122 C 0.33972 0.824 0.42144 0.0
C123 C 0.379 0.73528 0.36697 0.0
O124 O 0.3579 0.78669 0.35792 0.0
O125 O 0.34243 0.78272 0.32168 0.0
O126 O 0.49461 0.08224 0.64998 0.0
Mn127 Mn 0.47051 0.11068 0.64208 0.0
O128 O 0.49009 0.05619 0.62112 0.0
Mn129 Mn 0.48922 0.08192 0.60025 0.0
O130 O 0.44887 0.14097 0.63686 0.0
O131 O 0.47599 0.11991 0.67606 0.0
Mn132 Mn 0.44966 0.12714 0.69174 0.0
O133 O 0.43878 0.09197 0.65159 0.0
O134 O 0.43865 0.15314 0.67444 0.0
O135 O 0.50072 0.12897 0.63126 0.0
O136 O 0.51505 0.10329 0.60294 0.0
O137 O 0.475 0.13035 0.71333 0.0
O138 O 0.42957 0.10045 0.69009 0.0
C139 C 0.46061 0.10042 0.58371 0.0
C140 C 0.50039 0.06215 0.64045 0.0
C141 C 0.4388 0.15579 0.6516 0.0
C142 C 0.48816 0.12414 0.69517 0.0
C143 C 0.42501 0.08995 0.67022 0.0
C144 C 0.51663 0.12252 0.61573 0.0
O145 O 0.46531 0.1017 0.60671 0.0
O146 O 0.47132 0.08278 0.57281 0.0
O147 O 0.1661 0.24313 0.89917 0.0
Mn148 Mn 0.13664 0.21884 0.89481 0.0
O149 O 0.18784 0.23092 0.87009 0.0
Mn150 Mn 0.16125 0.23433 0.85075 0.0
O151 O 0.10623 0.19761 0.8927 0.0
O152 O 0.13075 0.22414 0.92981 0.0
Mn153 Mn 0.12671 0.19675 0.94512 0.0
O154 O 0.1565 0.18715 0.90199 0.0
O155 O 0.0998 0.18368 0.93034 0.0
O156 O 0.11736 0.24899 0.88583 0.0
O157 O 0.14075 0.26102 0.85469 0.0
O158 O 0.12245 0.22065 0.96771 0.0
O159 O 0.15464 0.17895 0.94139 0.0
C160 C 0.14102 0.20785 0.83525 0.0
C161 C 0.18476 0.24631 0.88621 0.0
C162 C 0.09402 0.1856 0.90815 0.0
C163 C 0.12554 0.23495 0.94958 0.0
C164 C 0.16189 0.1739 0.92031 0.0
C165 C 0.12275 0.26383 0.86896 0.0
O166 O 0.14021 0.21242 0.85834 0.0
O167 O 0.15894 0.21711 0.82349 0.0
O168 O 0.34784 0.00494 0.07999 0.0
Mn169 Mn 0.35526 0.02844 0.10905 0.0
O170 O 0.37827 0.00868 0.05526 0.0
Mn171 Mn 0.3985 0.00902 0.0815 0.0
O172 O 0.36044 0.04933 0.13966 0.0
O173 O 0.32135 0.02242 0.11856 0.0
Mn174 Mn 0.30529 0.04841 0.12559 0.0
O175 O 0.34535 0.06062 0.09079 0.0
O176 O 0.32278 0.06046 0.15095 0.0
O177 O 0.36569 0.9983 0.12709 0.0
O178 O 0.3945 0.98302 0.10257 0.0
O179 O 0.28438 0.02297 0.13056 0.0
O180 O 0.30602 0.06722 0.09828 0.0
C181 C 0.41365 0.03825 0.1007 0.0
C182 C 0.35838 -0.00111 0.06041 0.0
C183 C 0.34558 0.05968 0.15414 0.0
C184 C 0.3028 0.01004 0.12448 0.0
C185 C 0.32586 0.07328 0.08856 0.0
C186 C 0.38076 0.98187 0.12114 0.0
O187 O 0.39067 0.03336 0.10027 0.0
O188 O 0.42589 0.02704 0.08431 0.0
O189 O 0.24515 0.09586 0.33236 0.0
Mn190 Mn 0.2209 0.10514 0.36031 0.0
O191 O 0.2416 0.12493 0.30624 0.0
Mn192 Mn 0.24252 0.1461 0.33163 0.0
O193 O 0.19891 0.11216 0.38962 0.0
O194 O 0.22522 0.07151 0.37105 0.0
Mn195 Mn 0.19869 0.05655 0.37882 0.0
O196 O 0.18922 0.09566 0.34146 0.0
O197 O 0.18671 0.07562 0.40329 0.0
O198 O 0.25052 0.11531 0.37913 0.0
O199 O 0.26798 0.14187 0.35355 0.0
O200 O 0.22399 0.03491 0.38323 0.0
O201 O 0.17984 0.0574 0.35126 0.0
C202 C 0.2138 0.16355 0.34949 0.0
C203 C 0.25104 0.10513 0.31214 0.0
C204 C 0.18745 0.09858 0.40442 0.0
C205 C 0.2373 0.05253 0.37591 0.0
C206 C 0.17543 0.07694 0.34006 0.0
C207 C 0.26769 0.12943 0.37305 0.0
O208 O 0.21757 0.1404 0.35035 0.0
O209 O 0.22576 0.17434 0.33262 0.0
O210 O 0.15399 0.99174 0.58327 0.0
Mn211 Mn 0.14447 0.96913 0.61176 0.0
O212 O 0.12477 0.9893 0.55691 0.0
Mn213 Mn 0.10297 0.98907 0.582 0.0
O214 O 0.13746 0.94808 0.64143 0.0
O215 O 0.17821 0.97404 0.62296 0.0
Mn216 Mn 0.19319 0.94683 0.62855 0.0
O217 O 0.15398 0.93723 0.59353 0.0
O218 O 0.17402 0.93274 0.65181 0.0
O219 O 0.13371 -0.00029 0.62936 0.0
O220 O 0.10618 0.01486 0.60328 0.0
O221 O 0.21463 0.97128 0.63613 0.0
O222 O 0.19324 0.93015 0.59966 0.0
C223 C 0.08653 0.95994 0.60069 0.0
C224 C 0.14494 0.99798 0.56313 0.0
C225 C 0.15124 0.93492 0.65452 0.0
C226 C 0.19712 0.98536 0.62995 0.0
C227 C 0.17317 0.92458 0.59009 0.0
C228 C 0.11887 0.01612 0.62258 0.0
O229 O 0.10951 0.96477 0.60126 0.0
O230 O 0.07514 0.97138 0.58385 0.0
O231 O 0.25397 0.90185 0.83229 0.0
Mn232 Mn 0.27884 0.89419 0.86024 0.0
O233 O 0.2566 0.87182 0.80711 0.0
Mn234 Mn 0.25832 0.85148 0.83318 0.0
O235 O 0.3012 0.88876 0.89 0.0
O236 O 0.27356 0.92804 0.86981 0.0
Mn237 Mn 0.29968 0.94375 0.87723 0.0
O238 O 0.31015 0.90401 0.84076 0.0
O239 O 0.31096 0.92622 0.90283 0.0
O240 O 0.24936 0.8838 0.87955 0.0
O241 O 0.23363 0.85432 0.85602 0.0
O242 O 0.27414 0.96492 0.88157 0.0
O243 O 0.3196 0.94223 0.85057 0.0
C244 C 0.28812 0.83571 0.85044 0.0
C245 C 0.2472 0.8917 0.81277 0.0
C246 C 0.31113 0.90336 0.90505 0.0
C247 C 0.26114 0.94663 0.87536 0.0
C248 C 0.32422 0.9226 0.8396 0.0
C249 C 0.23326 0.86807 0.87458 0.0
O250 O 0.28345 0.85875 0.85112 0.0
O251 O 0.27655 0.82423 0.83375 0.0
O252 O 0.34789 0.99444 0.41519 0.0
Mn253 Mn 0.35487 0.97037 0.38651 0.0
O254 O 0.37766 0.98962 0.44041 0.0
Mn255 Mn 0.39798 0.98899 0.41425 0.0
O256 O 0.35929 0.94829 0.35646 0.0
O257 O 0.32053 0.97604 0.3773 0.0
Mn258 Mn 0.30487 0.94885 0.37411 0.0
O259 O 0.34597 0.93874 0.40576 0.0
O260 O 0.32169 0.93363 0.3499 0.0
O261 O 0.36545 0.00043 0.36796 0.0
O262 O 0.39429 0.01484 0.39309 0.0
O263 O 0.28304 0.97283 0.36692 0.0
O264 O 0.30626 0.93301 0.40336 0.0
C265 C 0.41314 0.95996 0.39503 0.0
C266 C 0.35817 8e-05 0.43501 0.0
C267 C 0.34416 0.93493 0.34496 0.0
C268 C 0.30112 0.98699 0.37089 0.0
C269 C 0.32687 0.9266 0.41095 0.0
C270 C 0.38087 0.0165 0.3743 0.0
O271 O 0.39023 0.96512 0.39503 0.0
O272 O 0.42527 0.97081 0.41175 0.0
O273 O 0.2539 0.0971 0.66327 0.0
Mn274 Mn 0.27835 0.10495 0.63545 0.0
O275 O 0.25923 0.12486 0.69041 0.0
Mn276 Mn 0.2608 0.14663 0.66544 0.0
O277 O 0.30119 0.11008 0.60599 0.0
O278 O 0.27191 0.07122 0.62536 0.0
Mn279 Mn 0.29829 0.055 0.61921 0.0
O280 O 0.30939 0.09432 0.65451 0.0
O281 O 0.31161 0.07229 0.59437 0.0
O282 O 0.24865 0.1175 0.61714 0.0
O283 O 0.23504 0.14532 0.64385 0.0
O284 O 0.27284 0.03391 0.61473 0.0
O285 O 0.3174 0.05554 0.64669 0.0
C286 C 0.28969 0.16255 0.6469 0.0
C287 C 0.24857 0.10593 0.68376 0.0
C288 C 0.31271 0.09517 0.5924 0.0
C289 C 0.25969 0.05214 0.62085 0.0
C290 C 0.32264 0.07539 0.65685 0.0
C291 C 0.23322 0.13339 0.6241 0.0
O292 O 0.28444 0.13971 0.6456 0.0
O293 O 0.27966 0.17349 0.66492 0.0
O294 O 0.15384 0.00256 0.91555 0.0
Mn295 Mn 0.1447 0.02614 0.88709 0.0
O296 O 0.1235 0.00501 0.94062 0.0
Mn297 Mn 0.10271 0.00393 0.91483 0.0
O298 O 0.13729 0.04754 0.85766 0.0
O299 O 0.17832 0.02202 0.87618 0.0
Mn300 Mn 0.19295 0.04847 0.86773 0.0
O301 O 0.15415 0.05792 0.90563 0.0
O302 O 0.1735 0.05971 0.84312 0.0
O303 O 0.13495 0.99637 0.86835 0.0
O304 O 0.10752 0.97865 0.89283 0.0
O305 O 0.21434 0.02321 0.86221 0.0
O306 O 0.19236 0.06737 0.89527 0.0
C307 C 0.08636 0.03351 0.89667 0.0
C308 C 0.14385 0.99625 0.93535 0.0
C309 C 0.15054 0.05836 0.84218 0.0
C310 C 0.19679 0.0099 0.86972 0.0
C311 C 0.17295 0.07169 0.9068 0.0
C312 C 0.12081 0.97914 0.87393 0.0
O313 O 0.10944 0.02929 0.89698 0.0
O314 O 0.07454 0.02099 0.91237 0.0
O315 O 0.24518 0.9027 0.1656 0.0
Mn316 Mn 0.22107 0.89573 0.13685 0.0
O317 O 0.24291 0.87122 0.18908 0.0
Mn318 Mn 0.242 0.85202 0.16214 0.0
O319 O 0.19966 0.891 0.10655 0.0
O320 O 0.22546 0.92992 0.12869 0.0
Mn321 Mn 0.19908 0.94558 0.12186 0.0
O322 O 0.18912 0.90394 0.15597 0.0
O323 O 0.18809 0.92857 0.09558 0.0
O324 O 0.2512 0.88674 0.11747 0.0
O325 O 0.26682 0.85629 0.13976 0.0
O326 O 0.2246 0.96708 0.11827 0.0
O327 O 0.17971 0.94276 0.14893 0.0
C328 C 0.21168 0.83727 0.14437 0.0
C329 C 0.25199 0.89154 0.18458 0.0
C330 C 0.18924 0.90585 0.09213 0.0
C331 C 0.23775 0.94869 0.12384 0.0
C332 C 0.17524 0.92246 0.15863 0.0
C333 C 0.26733 0.87078 0.12176 0.0
O334 O 0.21684 0.86012 0.14461 0.0
O335 O 0.22397 0.82465 0.15967 0.0
O336 O 0.08301 0.34638 0.00433 0.0
Mn337 Mn 0.11092 0.35365 0.02898 0.0
O338 O 0.05906 0.37749 0.00466 0.0
Mn339 Mn 0.08608 0.39658 0.00694 0.0
O340 O 0.14077 0.35783 0.05152 0.0
O341 O 0.11877 0.3194 0.02374 0.0
Mn342 Mn 0.12503 0.30319 0.0496 0.0
O343 O 0.09078 0.34509 0.06059 0.0
O344 O 0.15118 0.31963 0.06132 0.0
O345 O 0.13121 0.36272 -0.00043 0.0
O346 O 0.10939 0.39293 0.98281 0.0
O347 O 0.12726 0.2816 0.02428 0.0
O348 O 0.09785 0.30588 0.06838 0.0
C349 C 0.10272 0.41293 0.03651 0.0
C350 C 0.06402 0.35684 0.9967 0.0
C351 C 0.15462 0.34235 0.06195 0.0
C352 C 0.12166 0.30018 0.01142 0.0
C353 C 0.0885 0.32605 0.07391 0.0
C354 C 0.12745 0.37846 0.98315 0.0
O355 O 0.10345 0.38971 0.03268 0.0
O356 O 0.08631 0.42422 0.0243 0.0
O357 O 0.58171 0.15109 0.99302 0.0
Mn358 Mn 0.61053 0.14337 0.96919 0.0
O359 O 0.55797 0.12009 0.9903 0.0
Mn360 Mn 0.58505 0.10109 0.9918 0.0
O361 O 0.64073 0.13836 0.94772 0.0
O362 O 0.61855 0.17811 0.97233 0.0
Mn363 Mn 0.62292 0.19243 0.94472 0.0
O364 O 0.59096 0.14986 0.93708 0.0
O365 O 0.64851 0.17528 0.93207 0.0
O366 O 0.62988 0.13579 -0.00069 0.0
O367 O 0.60667 0.10711 0.01696 0.0
O368 O 0.62913 0.21522 0.96815 0.0
O369 O 0.5941 0.18918 0.92841 0.0
C370 C 0.60383 0.08367 0.96401 0.0
C371 C 0.56234 0.14037 -0.0006 0.0
C372 C 0.65347 0.15301 0.93507 0.0
C373 C 0.62512 0.19759 0.98281 0.0
C374 C 0.58621 0.16826 0.92362 0.0
C375 C 0.62488 0.12135 0.01654 0.0
O376 O 0.60388 0.10702 0.96695 0.0
O377 O 0.58746 0.07244 0.97628 0.0
O378 O 0.09574 0.3331 0.24362 0.0
Mn379 Mn 0.10458 0.36122 0.21962 0.0
O380 O 0.12421 0.3062 0.23878 0.0
Mn381 Mn 0.14648 0.33076 0.23832 0.0
O382 O 0.11184 0.39026 0.19752 0.0
O383 O 0.07159 0.37379 0.2261 0.0
Mn384 Mn 0.05588 0.38146 0.19995 0.0
O385 O 0.09252 0.34305 0.18826 0.0
O386 O 0.07524 0.40421 0.1857 0.0
O387 O 0.11707 0.37896 0.24914 0.0
O388 O 0.14406 0.35231 0.26419 0.0
O389 O 0.03576 0.38892 0.22541 0.0
O390 O 0.0539 0.35368 0.18192 0.0
C391 C 0.16197 0.34981 0.20905 0.0
C392 C 0.105 0.31272 0.24916 0.0
C393 C 0.09823 0.40466 0.1856 0.0
C394 C 0.05347 0.3812 0.23844 0.0
C395 C 0.0729 0.34246 0.17562 0.0
C396 C 0.13182 0.37194 0.26544 0.0
O397 O 0.13901 0.34963 0.21404 0.0
O398 O 0.17371 0.33269 0.21971 0.0
O399 O 0.91769 0.84679 0.49236 0.0
Mn400 Mn 0.88852 0.85405 0.46911 0.0
O401 O 0.94145 0.8775 0.48834 0.0
Mn402 Mn 0.91432 0.89642 0.49002 0.0
O403 O 0.85772 0.85841 0.44801 0.0
O404 O 0.88136 0.81927 0.47333 0.0
Mn405 Mn 0.87535 0.80451 0.44632 0.0
O406 O 0.90767 0.84709 0.437 0.0
O407 O 0.84864 0.82079 0.43526 0.0
O408 O 0.8697 0.86216 0.49962 0.0
O409 O 0.89337 0.89122 0.51592 0.0
O410 O 0.87322 0.78139 0.4701 0.0
O411 O 0.90262 0.80805 0.42767 0.0
C412 C 0.89568 0.91374 0.46221 0.0
C413 C 0.93724 0.85745 0.49798 0.0
C414 C 0.84416 0.8433 0.43681 0.0
C415 C 0.87852 0.79912 0.48422 0.0
C416 C 0.91147 0.82869 0.42331 0.0
C417 C 0.87509 0.87705 0.51639 0.0
O418 O 0.89475 0.89046 0.46568 0.0
O419 O 0.91237 0.92481 0.47418 0.0
O420 O 0.90143 0.16392 0.24348 0.0
Mn421 Mn 0.89445 0.13623 0.21835 0.0
O422 O 0.87098 0.18873 0.24059 0.0
Mn423 Mn 0.85102 0.16234 0.23868 0.0
O424 O 0.88989 0.10711 0.19535 0.0
O425 O 0.92857 0.12694 0.22339 0.0
Mn426 Mn 0.94469 0.12318 0.19667 0.0
O427 O 0.90352 0.15659 0.18744 0.0
O428 O 0.92756 0.09915 0.18147 0.0
O429 O 0.8844 0.11624 0.24747 0.0
O430 O 0.8546 0.13952 0.26317 0.0
O431 O 0.96578 0.11604 0.22155 0.0
O432 O 0.94319 0.15258 0.1811 0.0
C433 C 0.83588 0.14455 0.2087 0.0
C434 C 0.89094 0.18333 0.25009 0.0
C435 C 0.90487 0.09516 0.18229 0.0
C436 C 0.94738 0.12052 0.23511 0.0
C437 C 0.92277 0.16116 0.17519 0.0
C438 C 0.86854 0.12103 0.26353 0.0
O439 O 0.85888 0.14466 0.21365 0.0
O440 O 0.82374 0.16071 0.22035 0.0
O441 O 0.41435 0.65154 0.50291 0.0
Mn442 Mn 0.38685 0.64327 0.52784 0.0
O443 O 0.44097 0.6229 0.50723 0.0
Mn444 Mn 0.41591 0.60124 0.50831 0.0
O445 O 0.35801 0.63717 0.5508 0.0
O446 O 0.37576 0.67702 0.52271 0.0
Mn447 Mn 0.3717 0.69237 0.54996 0.0
O448 O 0.40682 0.65324 0.55891 0.0
O449 O 0.34873 0.67419 0.56541 0.0
O450 O 0.36763 0.63171 0.49838 0.0
O451 O 0.39342 0.60369 0.48333 0.0
O452 O 0.36312 0.7137 0.52597 0.0
O453 O 0.40076 0.69237 0.56616 0.0
C454 C 0.3977 0.58549 0.53768 0.0
C455 C 0.4345 0.6421 0.49692 0.0
C456 C 0.34579 0.65142 0.56436 0.0
C457 C 0.36806 0.69591 0.51178 0.0
C458 C 0.41015 0.67228 0.57187 0.0
C459 C 0.37379 0.61602 0.48252 0.0
O460 O 0.39724 0.6084 0.53275 0.0
O461 O 0.41481 0.57399 0.52673 0.0
O462 O 0.09733 0.66426 0.25233 0.0
Mn463 Mn 0.10534 0.63654 0.27719 0.0
O464 O 0.12679 0.69003 0.2559 0.0
Mn465 Mn 0.14755 0.66416 0.25648 0.0
O466 O 0.11082 0.60752 0.30017 0.0
O467 O 0.07115 0.62662 0.27295 0.0
Mn468 Mn 0.05591 0.62384 0.30042 0.0
O469 O 0.09681 0.65679 0.30811 0.0
O470 O 0.07382 0.60071 0.31628 0.0
O471 O 0.11538 0.61699 0.24775 0.0
O472 O 0.14322 0.64209 0.23147 0.0
O473 O 0.03413 0.61538 0.27664 0.0
O474 O 0.05725 0.6538 0.31488 0.0
C475 C 0.16377 0.64579 0.28556 0.0
C476 C 0.10708 0.68417 0.24615 0.0
C477 C 0.09638 0.59631 0.31443 0.0
C478 C 0.05196 0.61948 0.26224 0.0
C479 C 0.07789 0.66186 0.32059 0.0
C480 C 0.1301 0.62302 0.23098 0.0
O481 O 0.1407 0.64566 0.28115 0.0
O482 O 0.17542 0.6623 0.2739 0.0
O483 O 0.40261 0.33119 0.7542 0.0
Mn484 Mn 0.39437 0.36029 0.7774 0.0
O485 O 0.37154 0.30711 0.75661 0.0
Mn486 Mn 0.35167 0.33363 0.75582 0.0
O487 O 0.38813 0.39049 0.79801 0.0
O488 O 0.42934 0.3694 0.774 0.0
Mn489 Mn 0.44191 0.37449 0.80251 0.0
O490 O 0.40086 0.34139 0.81006 0.0
O491 O 0.42448 0.4005 0.81362 0.0
O492 O 0.38599 0.37887 0.74657 0.0
O493 O 0.35708 0.35494 0.7304 0.0
O494 O 0.46645 0.38012 0.78139 0.0
O495 O 0.43948 0.34666 0.82035 0.0
C496 C 0.33552 0.35276 0.78453 0.0
C497 C 0.39196 0.31182 0.74773 0.0
C498 C 0.40207 0.4043 0.81015 0.0
C499 C 0.44993 0.37609 0.76541 0.0
C500 C 0.41889 0.33761 0.82429 0.0
C501 C 0.37105 0.37338 0.72978 0.0
O502 O 0.35863 0.35224 0.78041 0.0
O503 O 0.32349 0.33679 0.77254 0.0
O504 O 0.99496 0.91316 0.65124 0.0
Mn505 Mn 0.96994 0.8855 0.64325 0.0
O506 O 0.99069 0.93979 0.62296 0.0
Mn507 Mn 0.98873 0.91442 0.60181 0.0
O508 O 0.9476 0.85563 0.63791 0.0
O509 O 0.97588 0.87567 0.67705 0.0
Mn510 Mn 0.94975 0.86814 0.69284 0.0
O511 O 0.93858 0.90469 0.65357 0.0
O512 O 0.93849 0.8424 0.6754 0.0
O513 O 0.99954 0.86665 0.63176 0.0
O514 O 0.01387 0.89202 0.60308 0.0
O515 O 0.97518 0.86468 0.71421 0.0
O516 O 0.92974 0.89486 0.69187 0.0
C517 C 0.95979 0.89757 0.58494 0.0
C518 C 0.00117 0.93324 0.64196 0.0
C519 C 0.93794 0.84039 0.65252 0.0
C520 C 0.98818 0.87127 0.69607 0.0
C521 C 0.92504 0.90612 0.67245 0.0
C522 C 0.01502 0.87261 0.61566 0.0
O523 O 0.96443 0.89503 0.60791 0.0
O524 O 0.97042 0.91574 0.57484 0.0
O525 O 0.82986 0.2433 0.40085 0.0
Mn526 Mn 0.85931 0.22028 0.39374 0.0
O527 O 0.80599 0.23973 0.36991 0.0
Mn528 Mn 0.83273 0.23973 0.35038 0.0
O529 O 0.89039 0.19975 0.38878 0.0
O530 O 0.86752 0.22634 0.42786 0.0
Mn531 Mn 0.87762 0.20105 0.44326 0.0
O532 O 0.84128 0.18779 0.40332 0.0
O533 O 0.90472 0.19284 0.42619 0.0
O534 O 0.87743 0.25085 0.38397 0.0
O535 O 0.8542 0.26556 0.35379 0.0
O536 O 0.87769 0.22605 0.46528 0.0
O537 O 0.85317 0.17865 0.44111 0.0
C538 C 0.85115 0.21044 0.33488 0.0
C539 C 0.81052 0.24936 0.38993 0.0
C540 C 0.90651 0.19162 0.40333 0.0
C541 C 0.87007 0.23859 0.44721 0.0
C542 C 0.84163 0.17363 0.42191 0.0
C543 C 0.87232 0.2668 0.36813 0.0
O544 O 0.85165 0.21528 0.35789 0.0
O545 O 0.8346 0.22189 0.32304 0.0
O546 O 0.50425 0.08348 0.15161 0.0
Mn547 Mn 0.52899 0.11132 0.14394 0.0
O548 O 0.5084 0.05695 0.12313 0.0
Mn549 Mn 0.51045 0.08243 0.10203 0.0
O550 O 0.55175 0.1411 0.13894 0.0
O551 O 0.52217 0.12097 0.17753 0.0
Mn552 Mn 0.54747 0.1294 0.19389 0.0
O553 O 0.56027 0.09224 0.15498 0.0
O554 O 0.55834 0.15525 0.17654 0.0
O555 O 0.49944 0.13012 0.13203 0.0
O556 O 0.48507 0.10455 0.10359 0.0
O557 O 0.52153 0.13154 0.21479 0.0
O558 O 0.5684 0.10348 0.19314 0.0
C559 C 0.53967 0.1001 0.08582 0.0
C560 C 0.49811 0.06341 0.1423 0.0
C561 C 0.561 0.15644 0.15376 0.0
C562 C 0.50929 0.12437 0.19634 0.0
C563 C 0.57365 0.09189 0.17407 0.0
C564 C 0.48381 0.12399 0.1161 0.0
O565 O 0.53474 0.10169 0.10877 0.0
O566 O 0.52905 0.0823 0.07507 0.0
O567 O 0.65625 0.80899 0.90226 0.0
Mn568 Mn 0.6369 0.77725 0.89439 0.0
O569 O 0.65258 0.81703 0.94163 0.0
Mn570 Mn 0.62392 0.80023 0.94401 0.0
O571 O 0.6185 0.74682 0.88534 0.0
O572 O 0.64374 0.78123 0.85811 0.0
Mn573 Mn 0.6645 0.75793 0.85249 0.0
O574 O 0.66578 0.75364 0.90183 0.0
O575 O 0.64437 0.73138 0.8576 0.0
O576 O 0.6069 0.79902 0.88959 0.0
O577 O 0.59953 0.81461 0.92662 0.0
O578 O 0.66229 0.77383 0.82408 0.0
O579 O 0.69048 0.76105 0.87269 0.0
C580 C 0.62164 0.76178 0.94778 0.0
C581 C 0.66055 0.82235 0.92081 0.0
C582 C 0.62535 0.73024 0.8708 0.0
C583 C 0.64483 0.78493 0.83488 0.0
C584 C 0.68588 0.74942 0.89155 0.0
C585 C 0.59524 0.81279 0.90411 0.0
O586 O 0.62835 0.77302 0.9288 0.0
O587 O 0.61711 0.77584 0.96577 0.0
O588 O 0.99558 0.08284 0.84706 0.0
Mn589 Mn 0.97075 0.11093 0.85396 0.0
O590 O 0.99285 0.05776 0.87726 0.0
Mn591 Mn 0.98966 0.08383 0.89742 0.0
O592 O 0.94833 0.14085 0.85863 0.0
O593 O 0.97779 0.12043 0.8202 0.0
Mn594 Mn 0.95217 0.12809 0.80386 0.0
O595 O 0.93921 0.09181 0.84304 0.0
O596 O 0.94048 0.15376 0.82084 0.0
O597 O 9e-05 0.13012 0.86565 0.0
O598 O 0.01425 0.10686 0.89614 0.0
O599 O 0.97778 0.13164 0.78295 0.0
O600 O 0.93193 0.1018 0.8044 0.0
C601 C 0.95925 0.10088 0.912 0.0
C602 C 0.00228 0.06339 0.85739 0.0
C603 C 0.93886 0.15583 0.84364 0.0
C604 C 0.99041 0.12508 0.8014 0.0
C605 C 0.92601 0.09114 0.82379 0.0
C606 C 0.01522 0.12547 0.88248 0.0
O607 O 0.96474 0.10166 0.88915 0.0
O608 O 0.97022 0.08398 0.92379 0.0
O609 O 0.66505 0.24472 0.59499 0.0
Mn610 Mn 0.63717 0.21986 0.60251 0.0
O611 O 0.68962 0.24196 0.62533 0.0
Mn612 Mn 0.66269 0.24223 0.6446 0.0
O613 O 0.60793 0.19684 0.60718 0.0
O614 O 0.62872 0.2244 0.56837 0.0
Mn615 Mn 0.62328 0.19819 0.55225 0.0
O616 O 0.65747 0.18862 0.59403 0.0
O617 O 0.59826 0.18481 0.56936 0.0
O618 O 0.61689 0.24896 0.61139 0.0
O619 O 0.64025 0.26708 0.63957 0.0
O620 O 0.61813 0.22377 0.53125 0.0
O621 O 0.6514 0.18053 0.55476 0.0
C622 C 0.64534 0.2135 0.66199 0.0
C623 C 0.68473 0.251 0.60514 0.0
C624 C 0.5951 0.18471 0.59214 0.0
C625 C 0.62325 0.23681 0.5498 0.0
C626 C 0.66037 0.17515 0.57519 0.0
C627 C 0.62166 0.26623 0.62581 0.0
O628 O 0.6445 0.21684 0.6387 0.0
O629 O 0.6617 0.22603 0.67293 0.0
O630 O 0.55934 0.90558 0.34297 0.0
Mn631 Mn 0.52814 0.88629 0.35244 0.0
O632 O 0.56918 0.89674 0.30472 0.0
Mn633 Mn 0.54874 0.87036 0.30248 0.0
O634 O 0.49836 0.86724 0.36359 0.0
O635 O 0.53354 0.89538 0.38757 0.0
Mn636 Mn 0.50906 0.91403 0.39521 0.0
O637 O 0.50386 0.91445 0.34502 0.0
O638 O 0.48403 0.89167 0.39313 0.0
O639 O 0.55031 0.85619 0.35713 0.0
O640 O 0.5594 0.84393 0.31929 0.0
O641 O 0.5278 0.91295 0.42215 0.0
O642 O 0.50714 0.93998 0.37464 0.0
C643 C 0.51037 0.87484 0.29907 0.0
C644 C 0.57333 0.90748 0.32453 0.0
C645 C 0.48304 0.87257 0.38013 0.0
C646 C 0.53885 0.89608 0.41039 0.0
C647 C 0.49755 0.9342 0.35488 0.0
C648 C 0.55996 0.84131 0.34212 0.0
O649 O 0.52257 0.8775 0.31841 0.0
O650 O 0.52335 0.86869 0.28076 0.0
O651 O 0.84032 0.80863 0.09696 0.0
Mn652 Mn 0.86079 0.77704 0.10343 0.0
O653 O 0.84092 0.8163 0.05751 0.0
Mn654 Mn 0.87056 0.80155 0.05411 0.0
O655 O 0.88089 0.74718 0.11145 0.0
O656 O 0.85415 0.78002 0.13977 0.0
Mn657 Mn 0.8355 0.75497 0.14541 0.0
O658 O 0.83267 0.75246 0.09592 0.0
O659 O 0.85773 0.7301 0.14051 0.0
O660 O 0.89052 0.79942 0.1078 0.0
O661 O 0.89509 0.81628 0.07094 0.0
O662 O 0.83632 0.77073 0.17385 0.0
O663 O 0.80842 0.75542 0.12637 0.0
C664 C 0.87547 0.76367 0.04898 0.0
C665 C 0.83431 0.82172 0.0787 0.0
C666 C 0.8762 0.73036 0.12655 0.0
C667 C 0.8528 0.78325 0.16305 0.0
C668 C 0.81316 0.74614 0.10629 0.0
C669 C 0.90151 0.81334 0.09285 0.0
O670 O 0.86866 0.7737 0.06864 0.0
O671 O 0.87817 0.77857 0.03129 0.0
O672 O 0.65294 0.99404 0.91514 0.0
Mn673 Mn 0.64382 0.9703 0.88676 0.0
O674 O 0.62306 0.99123 0.94072 0.0
Mn675 Mn 0.6021 0.99199 0.91507 0.0
O676 O 0.63633 0.94875 0.85736 0.0
O677 O 0.67727 0.97557 0.87571 0.0
Mn678 Mn 0.69168 0.95024 0.86432 0.0
O679 O 0.65445 0.93844 0.90491 0.0
O680 O 0.67205 0.94205 0.83885 0.0
O681 O 0.63319 -0.00017 0.86807 0.0
O682 O 0.60642 0.01753 0.89319 0.0
O683 O 0.71345 0.97556 0.86195 0.0
O684 O 0.69096 0.9284 0.8895 0.0
C685 C 0.58554 0.96263 0.89688 0.0
C686 C 0.64329 6e-05 0.9352 0.0
C687 C 0.64912 0.94084 0.83984 0.0
C688 C 0.69605 0.98806 0.87106 0.0
C689 C 0.67288 0.92416 0.90309 0.0
C690 C 0.61903 0.017 0.87383 0.0
O691 O 0.60869 0.96666 0.89707 0.0
O692 O 0.57399 0.97485 0.91303 0.0
O693 O 0.75181 0.90369 0.66169 0.0
Mn694 Mn 0.77839 0.89519 0.63541 0.0
O695 O 0.75587 0.8761 0.68828 0.0
Mn696 Mn 0.75766 0.85757 0.66106 0.0
O697 O 0.80205 0.89003 0.60684 0.0
O698 O 0.77382 0.92922 0.62614 0.0
Mn699 Mn 0.8004 0.94472 0.6195 0.0
O700 O 0.80866 0.90459 0.65636 0.0
O701 O 0.81215 0.92731 0.59388 0.0
O702 O 0.74987 0.88539 0.61403 0.0
O703 O 0.73245 0.85914 0.63935 0.0
O704 O 0.77504 0.96616 0.61483 0.0
O705 O 0.81961 0.94252 0.6468 0.0
C706 C 0.78519 0.83604 0.65088 0.0
C707 C 0.74573 0.89519 0.68208 0.0
C708 C 0.81238 0.90442 0.59195 0.0
C709 C 0.7617 0.94797 0.62056 0.0
C710 C 0.8232 0.92273 0.65791 0.0
C711 C 0.73292 0.87088 0.61963 0.0
O712 O 0.78448 0.85863 0.64336 0.0
O713 O 0.7691 0.82861 0.66612 0.0
O714 O 0.84627 0.00448 0.41466 0.0
Mn715 Mn 0.85377 0.02768 0.38567 0.0
O716 O 0.87609 0.00862 0.44003 0.0
Mn717 Mn 0.89684 0.00949 0.41416 0.0
O718 O 0.85874 0.04865 0.35501 0.0
O719 O 0.82007 0.02108 0.37603 0.0
Mn720 Mn 0.80346 0.04681 0.36937 0.0
O721 O 0.84327 0.05972 0.4039 0.0
O722 O 0.8208 0.05943 0.34434 0.0
O723 O 0.86513 0.99737 0.36784 0.0
O724 O 0.89444 0.98358 0.39281 0.0
O725 O 0.78306 0.021 0.36415 0.0
O726 O 0.80386 0.06578 0.39653 0.0
C727 C 0.9118 0.03869 0.39488 0.0
C728 C 0.85631 -0.0012 0.43455 0.0
C729 C 0.84356 0.05909 0.34089 0.0
C730 C 0.80177 0.00839 0.37004 0.0
C731 C 0.82369 0.07222 0.40604 0.0
C732 C 0.88124 0.98191 0.37388 0.0
O733 O 0.8889 0.03342 0.39497 0.0
O734 O 0.92385 0.02819 0.4119 0.0
O735 O 0.74678 0.09357 0.16139 0.0
Mn736 Mn 0.72018 0.10319 0.13575 0.0
O737 O 0.74159 0.11944 0.18887 0.0
Mn738 Mn 0.74105 0.13824 0.16165 0.0
O739 O 0.69665 0.1086 0.10731 0.0
O740 O 0.72481 0.06915 0.12665 0.0
Mn741 Mn 0.69885 0.05381 0.11813 0.0
O742 O 0.68978 0.09352 0.1566 0.0
O743 O 0.68908 0.07163 0.09199 0.0
O744 O 0.74835 0.11244 0.11436 0.0
O745 O 0.76712 0.13668 0.14051 0.0
O746 O 0.72443 0.03225 0.11533 0.0
O747 O 0.67832 0.05635 0.14434 0.0
C748 C 0.71674 0.16309 0.15132 0.0
C749 C 0.75238 0.10094 0.18221 0.0
C750 C 0.68795 0.09455 0.09116 0.0
C751 C 0.73732 0.05038 0.12212 0.0
C752 C 0.67497 0.07542 0.15675 0.0
C753 C 0.76613 0.12554 0.12046 0.0
O754 O 0.71489 0.14078 0.14274 0.0
O755 O 0.73178 0.1674 0.16863 0.0
O756 O 0.65369 0.05923 0.59132 0.0
Mn757 Mn 0.64372 0.0268 0.60933 0.0
O758 O 0.69164 0.0678 0.60366 0.0
Mn759 Mn 0.69188 0.04789 0.63023 0.0
O760 O 0.63391 0.9968 0.62789 0.0
O761 O 0.60827 0.03007 0.5996 0.0
Mn762 Mn 0.60167 0.00467 0.58171 0.0
O763 O 0.65282 0.00344 0.58064 0.0
O764 O 0.60629 0.97922 0.60361 0.0
O765 O 0.63626 0.04793 0.63883 0.0
O766 O 0.67234 0.05822 0.65496 0.0
O767 O 0.57347 0.02161 0.58389 0.0
O768 O 0.62226 0.00564 0.55578 0.0
C769 C 0.69576 0.00969 0.62658 0.0
C770 C 0.67266 0.07294 0.59175 0.0
C771 C 0.61972 0.97957 0.62242 0.0
C772 C 0.58507 0.034 0.59987 0.0
C773 C 0.6427 0.99703 0.56092 0.0
C774 C 0.64936 0.05777 0.65503 0.0
O775 O 0.67731 0.02204 0.62035 0.0
O776 O 0.71324 0.02262 0.63489 0.0
O777 O 0.74431 0.90187 0.33244 0.0
Mn778 Mn 0.7204 0.89402 0.36074 0.0
O779 O 0.74219 0.87153 0.30765 0.0
Mn780 Mn 0.74082 0.85144 0.33397 0.0
O781 O 0.69887 0.88891 0.39072 0.0
O782 O 0.72528 0.92795 0.36961 0.0
Mn783 Mn 0.69926 0.94397 0.37684 0.0
O784 O 0.68883 0.90315 0.34174 0.0
O785 O 0.68833 0.92648 0.40283 0.0
O786 O 0.75036 0.8842 0.37981 0.0
O787 O 0.76571 0.85432 0.35656 0.0
O788 O 0.72522 0.96498 0.38035 0.0
O789 O 0.67962 0.94185 0.34984 0.0
C790 C 0.71124 0.83533 0.35126 0.0
C791 C 0.75093 0.8918 0.31292 0.0
C792 C 0.68888 0.90363 0.40553 0.0
C793 C 0.73798 0.94647 0.37433 0.0
C794 C 0.67512 0.92185 0.33954 0.0
C795 C 0.76629 0.8682 0.37504 0.0
O796 O 0.71584 0.85838 0.35227 0.0
O797 O 0.72293 0.82402 0.33453 0.0
O798 O 0.84618 0.99351 0.08123 0.0
Mn799 Mn 0.8549 0.97005 0.10989 0.0
O800 O 0.87548 0.98932 0.05519 0.0
Mn801 Mn 0.89726 0.98877 0.08019 0.0
O802 O 0.86182 0.94906 0.1398 0.0
O803 O 0.82129 0.97576 0.12118 0.0
Mn804 Mn 0.8063 0.94911 0.12876 0.0
O805 O 0.84451 0.93793 0.09217 0.0
O806 O 0.82511 0.93731 0.1534 0.0
O807 O 0.86642 0.00035 0.12742 0.0
O808 O 0.89465 0.01458 0.10161 0.0
O809 O 0.78489 0.97382 0.1349 0.0
O810 O 0.80588 0.93013 0.10138 0.0
C811 C 0.91248 0.9595 0.0994 0.0
C812 C 0.85607 -0.00041 0.06132 0.0
C813 C 0.84804 0.93841 0.15498 0.0
C814 C 0.80251 0.98743 0.12804 0.0
C815 C 0.82539 0.92472 0.09064 0.0
C816 C 0.88188 0.01623 0.12083 0.0
O817 O 0.88961 0.96475 0.09925 0.0
O818 O 0.92443 0.97013 0.08243 0.0
O819 O 0.75359 0.09566 0.83348 0.0
Mn820 Mn 0.77865 0.10353 0.8612 0.0
O821 O 0.75598 0.12539 0.80811 0.0
Mn822 Mn 0.7578 0.14555 0.83426 0.0
O823 O 0.80106 0.10876 0.89082 0.0
O824 O 0.77336 0.06938 0.87093 0.0
Mn825 Mn 0.8002 0.05392 0.87629 0.0
O826 O 0.81028 0.09411 0.84142 0.0
O827 O 0.81343 0.07123 0.90104 0.0
O828 O 0.7492 0.11377 0.88075 0.0
O829 O 0.73321 0.1432 0.85729 0.0
O830 O 0.77575 0.03238 0.88279 0.0
O831 O 0.81794 0.055 0.84831 0.0
C832 C 0.78708 0.16258 0.85037 0.0
C833 C 0.7468 0.1055 0.81383 0.0
C834 C 0.81243 0.09391 0.90455 0.0
C835 C 0.76191 0.05044 0.8777 0.0
C836 C 0.82361 0.07508 0.83888 0.0
C837 C 0.73308 0.12958 0.87597 0.0
O838 O 0.78305 0.13943 0.85255 0.0
O839 O 0.77535 0.17295 0.83304 0.0
O840 O 0.91455 0.65163 0.99482 0.0
Mn841 Mn 0.88718 0.64424 0.96942 0.0
O842 O 0.93988 0.6216 0.99257 0.0
Mn843 Mn 0.91375 0.60135 0.99002 0.0
O844 O 0.85808 0.63922 0.94602 0.0
O845 O 0.87784 0.67818 0.97461 0.0
Mn846 Mn 0.87126 0.69408 0.94834 0.0
O847 O 0.9075 0.65391 0.93893 0.0
O848 O 0.84586 0.67683 0.93572 0.0
O849 O 0.86704 0.63374 0.99828 0.0
O850 O 0.89026 0.60397 0.0141 0.0
O851 O 0.86837 0.71566 0.97369 0.0
O852 O 0.89875 0.69239 0.92951 0.0
C853 C 0.89711 0.5859 0.95975 0.0
C854 C 0.9341 0.64157 0.00169 0.0
C855 C 0.84401 0.65392 0.93482 0.0
C856 C 0.87471 0.69747 0.98675 0.0
C857 C 0.90953 0.6726 0.92523 0.0
C858 C 0.87164 0.61774 0.01424 0.0
O859 O 0.89629 0.60885 0.96467 0.0
O860 O 0.9136 0.57428 0.97154 0.0
O861 O 0.41742 0.84541 0.00327 0.0
Mn862 Mn 0.38855 0.85327 0.02685 0.0
O863 O 0.44218 0.87562 0.00605 0.0
Mn864 Mn 0.41568 0.89554 0.00653 0.0
O865 O 0.35776 0.85862 0.04797 0.0
O866 O 0.37998 0.8192 0.02103 0.0
Mn867 Mn 0.37021 0.80382 0.04637 0.0
O868 O 0.40693 0.84363 0.05917 0.0
O869 O 0.34342 0.82118 0.0548 0.0
O870 O 0.37012 0.86303 0.99663 0.0
O871 O 0.39383 0.89237 0.98101 0.0
O872 O 0.36973 0.78183 0.0213 0.0
O873 O 0.39497 0.80589 0.06847 0.0
C874 C 0.39798 0.91247 0.03526 0.0
C875 C 0.43699 0.85561 0.99676 0.0
C876 C 0.34171 0.84404 0.05623 0.0
C877 C 0.37731 0.79989 0.00874 0.0
C878 C 0.40663 0.82505 0.07338 0.0
C879 C 0.37539 0.87842 0.98034 0.0
O880 O 0.39658 0.88927 0.03121 0.0
O881 O 0.41522 0.92323 0.02376 0.0
O882 O 0.90253 0.66581 0.75554 0.0
Mn883 Mn 0.89499 0.63716 0.77885 0.0
O884 O 0.87148 0.68974 0.75693 0.0
Mn885 Mn 0.85256 0.66251 0.75684 0.0
O886 O 0.89106 0.60695 0.8005 0.0
O887 O 0.92944 0.62963 0.77439 0.0
Mn888 Mn 0.94556 0.62581 0.80096 0.0
O889 O 0.90244 0.65664 0.81057 0.0
O890 O 0.92894 0.60045 0.81457 0.0
O891 O 0.88664 0.61776 0.74887 0.0
O892 O 0.85771 0.64085 0.73153 0.0
O893 O 0.96702 0.62061 0.77575 0.0
O894 O 0.94227 0.6547 0.81718 0.0
C895 C 0.83546 0.64476 0.7857 0.0
C896 C 0.89228 0.68525 0.74898 0.0
C897 C 0.9066 0.5949 0.81287 0.0
C898 C 0.94839 0.62457 0.76237 0.0
C899 C 0.92134 0.66198 0.82302 0.0
C900 C 0.87194 0.62264 0.73179 0.0
O901 O 0.85873 0.64402 0.78206 0.0
O902 O 0.82418 0.66081 0.77305 0.0
O903 O 0.08296 0.14711 0.5042 0.0
Mn904 Mn 0.11211 0.14327 0.52907 0.0
O905 O 0.06205 0.11687 0.51522 0.0
Mn906 Mn 0.08956 0.099 0.51129 0.0
O907 O 0.14186 0.14183 0.5513 0.0
O908 O 0.11773 0.17864 0.52428 0.0
Mn909 Mn 0.11807 0.19332 0.55226 0.0
O910 O 0.09119 0.14925 0.56042 0.0
O911 O 0.14309 0.17853 0.56875 0.0
O912 O 0.13231 0.13572 0.49943 0.0
O913 O 0.10976 0.10518 0.48471 0.0
O914 O 0.12464 0.2167 0.52989 0.0
O915 O 0.08815 0.18884 0.56572 0.0
C916 C 0.10922 0.08319 0.53824 0.0
C917 C 0.06458 0.1338 0.50062 0.0
C918 C 0.15096 0.15706 0.56608 0.0
C919 C 0.12345 0.19903 0.51477 0.0
C920 C 0.08343 0.16757 0.57243 0.0
C921 C 0.12718 0.12031 0.48306 0.0
O922 O 0.10959 0.10644 0.53436 0.0
O923 O 0.09252 0.07111 0.52731 0.0
O924 O 0.09577 0.83151 0.75428 0.0
Mn925 Mn 0.10426 0.85999 0.77794 0.0
O926 O 0.12576 0.80626 0.75806 0.0
Mn927 Mn 0.14657 0.83202 0.75717 0.0
O928 O 0.11086 0.88951 0.79939 0.0
O929 O 0.07017 0.87038 0.77335 0.0
Mn930 Mn 0.05565 0.87735 0.80041 0.0
O931 O 0.09522 0.84116 0.80968 0.0
O932 O 0.07418 0.90234 0.81206 0.0
O933 O 0.11427 0.8786 0.74808 0.0
O934 O 0.14193 0.85349 0.73155 0.0
O935 O 0.03361 0.88338 0.77614 0.0
O936 O 0.05664 0.84957 0.81889 0.0
C937 C 0.16277 0.85095 0.78613 0.0
C938 C 0.10579 0.8116 0.74851 0.0
C939 C 0.09705 0.90428 0.81052 0.0
C940 C 0.0511 0.87712 0.76209 0.0
C941 C 0.0765 0.83895 0.82335 0.0
C942 C 0.12885 0.8726 0.73125 0.0
O943 O 0.13968 0.8507 0.78177 0.0
O944 O 0.17457 0.83462 0.7744 0.0
O945 O 0.5862 0.34497 0.49601 0.0
Mn946 Mn 0.61199 0.35297 0.46913 0.0
O947 O 0.55911 0.37138 0.49048 0.0
Mn948 Mn 0.58643 0.39012 0.48929 0.0
O949 O 0.64069 0.35623 0.44497 0.0
O950 O 0.61943 0.31861 0.47397 0.0
Mn951 Mn 0.62406 0.30203 0.44781 0.0
O952 O 0.59024 0.34449 0.4392 0.0
O953 O 0.65007 0.31786 0.43471 0.0
O954 O 0.6335 0.36199 0.49728 0.0
O955 O 0.6081 0.38832 0.5149 0.0
O956 O 0.62795 0.28095 0.47358 0.0
O957 O 0.59617 0.30547 0.42971 0.0
C958 C 0.59859 0.41306 0.46394 0.0
C959 C 0.56552 0.3529 0.50149 0.0
C960 C 0.65374 0.34055 0.43383 0.0
C961 C 0.62372 0.29982 0.4865 0.0
C962 C 0.58688 0.32603 0.42541 0.0
C963 C 0.62776 0.37622 0.51439 0.0
O964 O 0.60621 0.39039 0.4639 0.0
O965 O 0.58053 0.41889 0.47755 0.0
O966 O 0.9022 0.33118 0.74364 0.0
Mn967 Mn 0.8941 0.36005 0.72031 0.0
O968 O 0.87217 0.30609 0.73966 0.0
Mn969 Mn 0.85159 0.33208 0.7404 0.0
O970 O 0.88848 0.39003 0.69888 0.0
O971 O 0.92815 0.37009 0.72547 0.0
Mn972 Mn 0.94367 0.37443 0.69852 0.0
O973 O 0.90309 0.3414 0.68805 0.0
O974 O 0.92564 0.39807 0.68374 0.0
O975 O 0.88407 0.37823 0.75073 0.0
O976 O 0.85603 0.35305 0.76638 0.0
O977 O 0.96505 0.38219 0.72279 0.0
O978 O 0.94288 0.34515 0.68295 0.0
C979 C 0.83564 0.35124 0.71153 0.0
C980 C 0.89211 0.31129 0.7493 0.0
C981 C 0.903 0.40207 0.68544 0.0
C982 C 0.94703 0.37729 0.73671 0.0
C983 C 0.9226 0.33712 0.67606 0.0
C984 C 0.86941 0.3719 0.76744 0.0
O985 O 0.85867 0.35112 0.7161 0.0
O986 O 0.82374 0.33483 0.72305 0.0
O987 O 0.59898 0.66581 0.24296 0.0
Mn988 Mn 0.60501 0.63647 0.21972 0.0
O989 O 0.62915 0.69013 0.23726 0.0
Mn990 Mn 0.64856 0.66327 0.23753 0.0
O991 O 0.60803 0.60572 0.19835 0.0
O992 O 0.57064 0.62909 0.22616 0.0
Mn993 Mn 0.55393 0.62412 0.20003 0.0
O994 O 0.5961 0.6552 0.18777 0.0
O995 O 0.56958 0.59803 0.18683 0.0
O996 O 0.61527 0.61827 0.25014 0.0
O997 O 0.64449 0.64313 0.26417 0.0
O998 O 0.53275 0.62053 0.22554 0.0
O999 O 0.5563 0.65182 0.18166 0.0
C1000 C 0.6638 0.64336 0.20914 0.0
C1001 C 0.60959 0.68555 0.24788 0.0
C1002 C 0.59214 0.59324 0.18686 0.0
C1003 C 0.55155 0.62509 0.23851 0.0
C1004 C 0.57689 0.6597 0.17543 0.0
C1005 C 0.63072 0.62463 0.26616 0.0
O1006 O 0.64081 0.64333 0.21413 0.0
O1007 O 0.67591 0.66025 0.21974 0.0
O1008 O 0.50379 0.58334 0.84608 0.0
Mn1009 Mn 0.52818 0.61131 0.85374 0.0
O1010 O 0.50729 0.55738 0.87537 0.0
Mn1011 Mn 0.50915 0.58309 0.89622 0.0
O1012 O 0.55058 0.64091 0.85875 0.0
O1013 O 0.52243 0.62095 0.81995 0.0
Mn1014 Mn 0.54879 0.62622 0.80364 0.0
O1015 O 0.55937 0.59192 0.84386 0.0
O1016 O 0.56223 0.65091 0.82096 0.0
O1017 O 0.49846 0.6303 0.86493 0.0
O1018 O 0.48401 0.60531 0.89388 0.0
O1019 O 0.52324 0.63213 0.78288 0.0
O1020 O 0.56709 0.59831 0.80475 0.0
C1021 C 0.53892 0.60097 0.91162 0.0
C1022 C 0.49762 0.56341 0.85569 0.0
C1023 C 0.56205 0.65432 0.84369 0.0
C1024 C 0.51013 0.62699 0.80142 0.0
C1025 C 0.57256 0.58894 0.82495 0.0
C1026 C 0.48285 0.62447 0.88097 0.0
O1027 O 0.53359 0.6018 0.88879 0.0
O1028 O 0.52775 0.58413 0.92328 0.0
O1029 O 0.66733 0.25502 0.0965 0.0
Mn1030 Mn 0.63711 0.27785 0.10232 0.0
O1031 O 0.68935 0.26836 0.12507 0.0
Mn1032 Mn 0.66419 0.26145 0.14518 0.0
O1033 O 0.60614 0.29829 0.10635 0.0
O1034 O 0.62962 0.2721 0.06794 0.0
Mn1035 Mn 0.62084 0.298 0.05239 0.0
O1036 O 0.6552 0.31056 0.09348 0.0
O1037 O 0.5942 0.30897 0.06892 0.0
O1038 O 0.61977 0.24685 0.11169 0.0
O1039 O 0.64612 0.23323 0.13977 0.0
O1040 O 0.61942 0.27291 0.03051 0.0
O1041 O 0.64655 0.31892 0.0547 0.0
C1042 C 0.64308 0.2876 0.16199 0.0
C1043 C 0.68704 0.25366 0.10816 0.0
C1044 C 0.59182 0.30903 0.09175 0.0
C1045 C 0.62642 0.26001 0.04859 0.0
C1046 C 0.65654 0.32432 0.07463 0.0
C1047 C 0.62726 0.23077 0.12647 0.0
O1048 O 0.64213 0.28328 0.13886 0.0
O1049 O 0.66055 0.27719 0.1734 0.0
O1050 O 0.99502 0.41413 0.34554 0.0
Mn1051 Mn 0.97052 0.38635 0.35387 0.0
O1052 O 0.99052 0.44094 0.37344 0.0
Mn1053 Mn 0.9897 0.41542 0.39453 0.0
O1054 O 0.94816 0.35642 0.35893 0.0
O1055 O 0.9761 0.37692 0.32003 0.0
Mn1056 Mn 0.94993 0.37072 0.30377 0.0
O1057 O 0.93927 0.40554 0.34409 0.0
O1058 O 0.93762 0.34533 0.32106 0.0
O1059 O 0.00035 0.36765 0.36491 0.0
O1060 O 0.01546 0.39376 0.39238 0.0
O1061 O 0.97576 0.36644 0.28285 0.0
O1062 O 0.93081 0.39814 0.30522 0.0
C1063 C 0.96126 0.39853 0.41236 0.0
C1064 C 0.00084 0.43448 0.35435 0.0
C1065 C 0.93752 0.34228 0.34386 0.0
C1066 C 0.98867 0.37217 0.30133 0.0
C1067 C 0.92583 0.40806 0.32528 0.0
C1068 C 0.01661 0.37421 0.38002 0.0
O1069 O 0.96549 0.3955 0.38939 0.0
O1070 O 0.97236 0.41661 0.42208 0.0
O1071 O 0.83187 0.74239 0.59773 0.0
Mn1072 Mn 0.86129 0.71812 0.60295 0.0
O1073 O 0.81064 0.72953 0.62668 0.0
Mn1074 Mn 0.8366 0.73511 0.64637 0.0
O1075 O 0.89161 0.69701 0.60644 0.0
O1076 O 0.86789 0.7225 0.56772 0.0
Mn1077 Mn 0.8734 0.69445 0.55402 0.0
O1078 O 0.84138 0.68643 0.59636 0.0
O1079 O 0.90067 0.6829 0.56952 0.0
O1080 O 0.88032 0.74822 0.61107 0.0
O1081 O 0.85694 0.76205 0.64155 0.0
O1082 O 0.8771 0.71691 0.53012 0.0
O1083 O 0.84614 0.67581 0.5577 0.0
C1084 C 0.85637 0.70882 0.663 0.0
C1085 C 0.8133 0.74524 0.61087 0.0
C1086 C 0.90508 0.6852 0.59194 0.0
C1087 C 0.8732 0.73217 0.5473 0.0
C1088 C 0.83721 0.67225 0.57844 0.0
C1089 C 0.87479 0.76402 0.6269 0.0
O1090 O 0.85762 0.71267 0.63977 0.0
O1091 O 0.83865 0.71898 0.67428 0.0
O1092 O 0.50384 0.41552 0.65108 0.0
Mn1093 Mn 0.52805 0.38715 0.64335 0.0
O1094 O 0.50647 0.44005 0.62046 0.0
Mn1095 Mn 0.50758 0.41381 0.60028 0.0
O1096 O 0.54959 0.35718 0.63735 0.0
O1097 O 0.52384 0.37847 0.6777 0.0
Mn1098 Mn 0.55011 0.36785 0.6914 0.0
O1099 O 0.55968 0.40627 0.65201 0.0
O1100 O 0.55613 0.34046 0.67383 0.0
O1101 O 0.49798 0.36792 0.63363 0.0
O1102 O 0.48281 0.39129 0.60369 0.0
O1103 O 0.52677 0.36874 0.71516 0.0
O1104 O 0.57298 0.39193 0.6877 0.0
C1105 C 0.53742 0.3958 0.58497 0.0
C1106 C 0.49714 0.43485 0.6405 0.0
C1107 C 0.55698 0.33997 0.65091 0.0
C1108 C 0.51313 0.37661 0.69801 0.0
C1109 C 0.57529 0.4054 0.66927 0.0
C1110 C 0.48219 0.37268 0.61741 0.0
O1111 O 0.53245 0.39572 0.60789 0.0
O1112 O 0.52571 0.41201 0.57293 0.0
O1113 O 0.83197 0.25405 0.90169 0.0
Mn1114 Mn 0.86089 0.27747 0.89371 0.0
O1115 O 0.8071 0.25898 0.87196 0.0
Mn1116 Mn 0.83337 0.25718 0.85192 0.0
O1117 O 0.89118 0.29878 0.88845 0.0
O1118 O 0.86971 0.2732 0.92789 0.0
Mn1119 Mn 0.87527 0.30002 0.94328 0.0
O1120 O 0.84208 0.30973 0.90175 0.0
O1121 O 0.90014 0.31331 0.92558 0.0
O1122 O 0.87933 0.24694 0.88477 0.0
O1123 O 0.85439 0.23117 0.85647 0.0
O1124 O 0.88087 0.27497 0.96482 0.0
O1125 O 0.84683 0.31746 0.94112 0.0
C1126 C 0.8522 0.28491 0.8345 0.0
C1127 C 0.81201 0.24876 0.89157 0.0
C1128 C 0.90391 0.31159 0.90295 0.0
C1129 C 0.87547 0.26136 0.94676 0.0
C1130 C 0.83815 0.32282 0.92059 0.0
C1131 C 0.87323 0.23036 0.86994 0.0
O1132 O 0.85326 0.28119 0.8577 0.0
O1133 O 0.83498 0.27348 0.82366 0.0
O1134 O 0.99535 0.58107 0.15135 0.0
Mn1135 Mn 0.97134 0.60976 0.14397 0.0
O1136 O 0.99264 0.55713 0.12033 0.0
Mn1137 Mn 0.99323 0.5841 0.10113 0.0
O1138 O 0.94948 0.63986 0.13894 0.0
O1139 O 0.97586 0.61802 0.17821 0.0
Mn1140 Mn 0.94955 0.6255 0.19359 0.0
O1141 O 0.93985 0.59031 0.1523 0.0
O1142 O 0.93923 0.65198 0.17648 0.0
O1143 O 0.00095 0.62927 0.13498 0.0
O1144 O 0.01861 0.60578 0.10664 0.0
O1145 O 0.97477 0.62765 0.21558 0.0
O1146 O 0.92957 0.59892 0.19064 0.0
C1147 C 0.96367 0.60235 0.08518 0.0
C1148 C 0.00144 0.56154 0.14079 0.0
C1149 C 0.93949 0.65474 0.15364 0.0
C1150 C 0.98797 0.62151 0.19744 0.0
C1151 C 0.92567 0.58833 0.17067 0.0
C1152 C 0.01812 0.62428 0.12046 0.0
O1153 O 0.96794 0.60205 0.10822 0.0
O1154 O 0.97631 0.58691 0.0731 0.0
O1155 O 0.66548 0.74428 0.40223 0.0
Mn1156 Mn 0.63718 0.72009 0.3944 0.0
O1157 O 0.69131 0.74019 0.3733 0.0
Mn1158 Mn 0.66524 0.73923 0.35292 0.0
O1159 O 0.60667 0.6984 0.38965 0.0
O1160 O 0.62812 0.72668 0.42805 0.0
Mn1161 Mn 0.61941 0.7018 0.44469 0.0
O1162 O 0.6557 0.68826 0.40502 0.0
O1163 O 0.59326 0.69131 0.42747 0.0
O1164 O 0.61865 0.7499 0.38355 0.0
O1165 O 0.64329 0.76485 0.35462 0.0
O1166 O 0.61753 0.72809 0.46521 0.0
O1167 O 0.64522 0.68089 0.44358 0.0
C1168 C 0.64878 0.71053 0.33547 0.0
C1169 C 0.68548 0.75026 0.39268 0.0
C1170 C 0.59124 0.68961 0.40465 0.0
C1171 C 0.6246 0.73995 0.44649 0.0
C1172 C 0.65599 0.67494 0.42421 0.0
C1173 C 0.62435 0.76581 0.3679 0.0
O1174 O 0.64565 0.71476 0.3585 0.0
O1175 O 0.66676 0.72172 0.32565 0.0
O1176 O 0.84434 0.50173 0.5858 0.0
Mn1177 Mn 0.8538 0.52687 0.61281 0.0
O1178 O 0.86995 0.50853 0.55806 0.0
Mn1179 Mn 0.88956 0.50817 0.58469 0.0
O1180 O 0.85957 0.5493 0.6419 0.0
O1181 O 0.82029 0.52128 0.62317 0.0
Mn1182 Mn 0.80414 0.54688 0.6314 0.0
O1183 O 0.843 0.55765 0.5936 0.0
O1184 O 0.82254 0.55862 0.65646 0.0
O1185 O 0.86447 0.4977 0.63242 0.0
O1186 O 0.88808 0.4812 0.60429 0.0
O1187 O 0.78388 0.52058 0.63609 0.0
O1188 O 0.8045 0.56592 0.60399 0.0
C1189 C 0.91273 0.53399 0.59596 0.0
C1190 C 0.85163 0.49723 0.56463 0.0
C1191 C 0.84555 0.55908 0.65745 0.0
C1192 C 0.80226 0.50824 0.62888 0.0
C1193 C 0.8238 0.57081 0.59252 0.0
C1194 C 0.8776 0.48048 0.62472 0.0
O1195 O 0.89041 0.53355 0.60447 0.0
O1196 O 0.91866 0.51899 0.57908 0.0
O1197 O 0.74394 0.596 0.83293 0.0
Mn1198 Mn 0.71928 0.60344 0.86074 0.0
O1199 O 0.73953 0.62411 0.80645 0.0
Mn1200 Mn 0.73695 0.64442 0.83247 0.0
O1201 O 0.69729 0.60701 0.8911 0.0
O1202 O 0.72568 0.56935 0.8691 0.0
Mn1203 Mn 0.69953 0.55261 0.87397 0.0
O1204 O 0.68782 0.59387 0.84147 0.0
O1205 O 0.68646 0.56862 0.89975 0.0
O1206 O 0.74921 0.61473 0.87943 0.0
O1207 O 0.7628 0.64367 0.8541 0.0
O1208 O 0.72517 0.53163 0.87814 0.0
O1209 O 0.68104 0.55443 0.84626 0.0
C1210 C 0.70837 0.66196 0.84857 0.0
C1211 C 0.74994 0.60505 0.81279 0.0
C1212 C 0.68646 0.59118 0.90423 0.0
C1213 C 0.73811 0.55043 0.87353 0.0
C1214 C 0.67519 0.57478 0.83756 0.0
C1215 C 0.76475 0.63078 0.87325 0.0
O1216 O 0.71287 0.63912 0.85263 0.0
O1217 O 0.7188 0.67116 0.82983 0.0
O1218 O 0.65256 0.49385 0.08404 0.0
Mn1219 Mn 0.64468 0.46954 0.11214 0.0
O1220 O 0.62387 0.4891 0.05761 0.0
Mn1221 Mn 0.60242 0.48813 0.08285 0.0
O1222 O 0.63921 0.44705 0.1417 0.0
O1223 O 0.67819 0.47597 0.12281 0.0
Mn1224 Mn 0.69464 0.44999 0.12913 0.0
O1225 O 0.65565 0.43821 0.09309 0.0
O1226 O 0.67693 0.43604 0.15324 0.0
O1227 O 0.63268 0.49919 0.1306 0.0
O1228 O 0.60458 0.51373 0.10466 0.0
O1229 O 0.715 0.47558 0.13539 0.0
O1230 O 0.69481 0.43177 0.1014 0.0
C1231 C 0.58679 0.4589 0.1014 0.0
C1232 C 0.64306 0.49957 0.06388 0.0
C1233 C 0.65402 0.43542 0.15531 0.0
C1234 C 0.69652 0.48843 0.12929 0.0
C1235 C 0.67518 0.4256 0.09127 0.0
C1236 C 0.617 0.51497 0.12417 0.0
O1237 O 0.60973 0.46398 0.10197 0.0
O1238 O 0.5753 0.46955 0.0841 0.0
O1239 O 0.75379 0.40173 0.33191 0.0
Mn1240 Mn 0.77822 0.39323 0.3598 0.0
O1241 O 0.75776 0.37331 0.30529 0.0
Mn1242 Mn 0.75918 0.35174 0.33039 0.0
O1243 O 0.80026 0.3873 0.3898 0.0
O1244 O 0.77277 0.42707 0.36968 0.0
Mn1245 Mn 0.79908 0.44238 0.37763 0.0
O1246 O 0.80968 0.4032 0.34091 0.0
O1247 O 0.80943 0.42461 0.40354 0.0
O1248 O 0.74826 0.38179 0.3783 0.0
O1249 O 0.73387 0.35353 0.3525 0.0
O1250 O 0.77405 0.46439 0.37997 0.0
O1251 O 0.81958 0.44108 0.35128 0.0
C1252 C 0.78809 0.33522 0.3483 0.0
C1253 C 0.74745 0.39244 0.31188 0.0
C1254 C 0.80981 0.40168 0.40534 0.0
C1255 C 0.76086 0.44653 0.373 0.0
C1256 C 0.82369 0.42172 0.33972 0.0
C1257 C 0.73265 0.36586 0.37205 0.0
O1258 O 0.78336 0.35819 0.34978 0.0
O1259 O 0.7775 0.32452 0.33047 0.0
O1260 O 0.84622 0.49496 0.9141 0.0
Mn1261 Mn 0.85478 0.47016 0.88659 0.0
O1262 O 0.87518 0.49122 0.94041 0.0
Mn1263 Mn 0.89668 0.49026 0.91523 0.0
O1264 O 0.86116 0.4474 0.85774 0.0
O1265 O 0.82107 0.47493 0.87578 0.0
Mn1266 Mn 0.80558 0.44809 0.87011 0.0
O1267 O 0.84489 0.43899 0.90608 0.0
O1268 O 0.82419 0.43383 0.8466 0.0
O1269 O 0.8658 0.49965 0.86744 0.0
O1270 O 0.89413 0.5151 0.89262 0.0
O1271 O 0.78445 0.47311 0.86319 0.0
O1272 O 0.80595 0.4308 0.89863 0.0
C1273 C 0.91291 0.46081 0.89767 0.0
C1274 C 0.85574 0.5012 0.93409 0.0
C1275 C 0.84713 0.43456 0.84457 0.0
C1276 C 0.80235 0.48672 0.86923 0.0
C1277 C 0.82598 0.42561 0.90857 0.0
C1278 C 0.88143 0.51565 0.87327 0.0
O1279 O 0.8899 0.46557 0.89672 0.0
O1280 O 0.92413 0.47215 0.91468 0.0
O1281 O 0.75539 0.5943 0.16529 0.0
Mn1282 Mn 0.77903 0.60244 0.13686 0.0
O1283 O 0.75815 0.6238 0.19095 0.0
Mn1284 Mn 0.75952 0.64452 0.1651 0.0
O1285 O 0.80036 0.60753 0.10647 0.0
O1286 O 0.77354 0.56872 0.12756 0.0
Mn1287 Mn 0.79934 0.55225 0.12076 0.0
O1288 O 0.8108 0.59279 0.15534 0.0
O1289 O 0.81109 0.56974 0.09518 0.0
O1290 O 0.74888 0.61304 0.11845 0.0
O1291 O 0.73419 0.64219 0.14303 0.0
O1292 O 0.77311 0.53167 0.11693 0.0
O1293 O 0.81841 0.55369 0.14813 0.0
C1294 C 0.7887 0.66079 0.14725 0.0
C1295 C 0.74887 0.60393 0.18507 0.0
C1296 C 0.81056 0.59253 0.09199 0.0
C1297 C 0.7606 0.55035 0.12293 0.0
C1298 C 0.82381 0.57369 0.15792 0.0
C1299 C 0.73315 0.629 0.12407 0.0
O1300 O 0.784 0.63779 0.14603 0.0
O1301 O 0.77762 0.67183 0.16457 0.0
O1302 O 0.65213 0.50499 0.41561 0.0
Mn1303 Mn 0.64538 0.52844 0.38616 0.0
O1304 O 0.62202 0.51457 0.43816 0.0
Mn1305 Mn 0.60271 0.50814 0.41224 0.0
O1306 O 0.64059 0.54986 0.35618 0.0
O1307 O 0.68012 0.52445 0.3775 0.0
Mn1308 Mn 0.69474 0.5521 0.37401 0.0
O1309 O 0.65268 0.56067 0.40566 0.0
O1310 O 0.67688 0.56771 0.35061 0.0
O1311 O 0.6372 0.49819 0.36761 0.0
O1312 O 0.61005 0.48113 0.39296 0.0
O1313 O 0.71697 0.5288 0.36572 0.0
O1314 O 0.69262 0.5663 0.40375 0.0
C1315 C 0.58549 0.53492 0.39173 0.0
C1316 C 0.6407 0.50216 0.43535 0.0
C1317 C 0.65462 0.56477 0.34549 0.0
C1318 C 0.69941 0.51408 0.36993 0.0
C1319 C 0.67189 0.57279 0.41094 0.0
C1320 C 0.62376 0.48071 0.3743 0.0
O1321 O 0.60878 0.53154 0.39181 0.0
O1322 O 0.57392 0.52313 0.40815 0.0
O1323 O 0.74543 0.40108 0.66372 0.0
Mn1324 Mn 0.72146 0.39334 0.63536 0.0
O1325 O 0.74163 0.37174 0.68954 0.0
Mn1326 Mn 0.7402 0.35081 0.66389 0.0
O1327 O 0.69983 0.38824 0.60528 0.0
O1328 O 0.727 0.42704 0.62565 0.0
Mn1329 Mn 0.70089 0.44338 0.61924 0.0
O1330 O 0.69008 0.40325 0.654 0.0
O1331 O 0.68853 0.42588 0.59402 0.0
O1332 O 0.75135 0.3822 0.61696 0.0
O1333 O 0.76553 0.35298 0.64186 0.0
O1334 O 0.72681 0.46395 0.61419 0.0
O1335 O 0.68205 0.44224 0.64679 0.0
C1336 C 0.71079 0.3354 0.64554 0.0
C1337 C 0.75145 0.39136 0.68365 0.0
C1338 C 0.68917 0.40309 0.59098 0.0
C1339 C 0.73961 0.44538 0.61997 0.0
C1340 C 0.67677 0.42213 0.65645 0.0
C1341 C 0.76679 0.36602 0.6228 0.0
O1342 O 0.716 0.35827 0.64485 0.0
O1343 O 0.72155 0.32381 0.66271 0.0
O1344 O 0.58293 0.84624 0.50244 0.0
Mn1345 Mn 0.61079 0.85384 0.52711 0.0
O1346 O 0.55844 0.87692 0.504 0.0
Mn1347 Mn 0.58505 0.89663 0.50542 0.0
O1348 O 0.64038 0.85858 0.54939 0.0
O1349 O 0.61961 0.81956 0.52283 0.0
Mn1350 Mn 0.62331 0.80391 0.54978 0.0
O1351 O 0.59066 0.84567 0.55837 0.0
O1352 O 0.64778 0.82121 0.56401 0.0
O1353 O 0.63076 0.86297 0.49781 0.0
O1354 O 0.60817 0.89277 0.48117 0.0
O1355 O 0.63063 0.7825 0.52522 0.0
O1356 O 0.59412 0.80613 0.56561 0.0
C1357 C 0.60232 0.91289 0.53481 0.0
C1358 C 0.56367 0.85663 0.49531 0.0
C1359 C 0.65276 0.84359 0.56202 0.0
C1360 C 0.62658 0.8008 0.51142 0.0
C1361 C 0.58624 0.82685 0.57132 0.0
C1362 C 0.62647 0.87859 0.48144 0.0
O1363 O 0.60279 0.88972 0.53079 0.0
O1364 O 0.58585 0.92432 0.52282 0.0
O1365 O 0.08055 0.65083 0.49071 0.0
Mn1366 Mn 0.11156 0.64527 0.46936 0.0
O1367 O 0.05984 0.62256 0.47573 0.0
Mn1368 Mn 0.08488 0.60274 0.48425 0.0
O1369 O 0.14345 0.64251 0.45027 0.0
O1370 O 0.11721 0.67985 0.47519 0.0
Mn1371 Mn 0.12509 0.69601 0.44943 0.0
O1372 O 0.09435 0.65306 0.43639 0.0
O1373 O 0.15287 0.68055 0.43941 0.0
O1374 O 0.12801 0.63653 0.50091 0.0
O1375 O 0.10177 0.60789 0.51332 0.0
O1376 O 0.12511 0.71773 0.47483 0.0
O1377 O 0.09945 0.69245 0.42835 0.0
C1378 C 0.10652 0.5852 0.45964 0.0
C1379 C 0.06115 0.63883 0.49117 0.0
C1380 C 0.15715 0.65793 0.43986 0.0
C1381 C 0.11927 0.69914 0.48754 0.0
C1382 C 0.09106 0.6718 0.423 0.0
C1383 C 0.12033 0.62144 0.51656 0.0
O1384 O 0.10818 0.60841 0.46351 0.0
O1385 O 0.08832 0.57429 0.46932 0.0
O1386 O 0.59611 0.83168 0.74314 0.0
Mn1387 Mn 0.60449 0.86035 0.71939 0.0
O1388 O 0.62755 0.80783 0.74165 0.0
Mn1389 Mn 0.64703 0.83458 0.74291 0.0
O1390 O 0.61105 0.88983 0.69775 0.0
O1391 O 0.57024 0.87027 0.72293 0.0
Mn1392 Mn 0.5558 0.87639 0.69574 0.0
O1393 O 0.59647 0.84115 0.68738 0.0
O1394 O 0.57448 0.90092 0.68317 0.0
O1395 O 0.61291 0.87976 0.74915 0.0
O1396 O 0.64061 0.85643 0.76798 0.0
O1397 O 0.53389 0.88349 0.71991 0.0
O1398 O 0.55727 0.84758 0.67915 0.0
C1399 C 0.6634 0.85298 0.71343 0.0
C1400 C 0.60674 0.81227 0.74974 0.0
C1401 C 0.59721 0.9037 0.68551 0.0
C1402 C 0.55142 0.87767 0.7341 0.0
C1403 C 0.57751 0.83798 0.67416 0.0
C1404 C 0.6267 0.87488 0.7669 0.0
O1405 O 0.64024 0.85189 0.71714 0.0
O1406 O 0.67552 0.83802 0.7266 0.0
O1407 O 0.41571 0.34586 0.99628 0.0
Mn1408 Mn 0.3881 0.35422 0.97139 0.0
O1409 O 0.44034 0.37657 0.99537 0.0
Mn1410 Mn 0.41398 0.39668 0.99423 0.0
O1411 O 0.35939 0.36023 0.94856 0.0
O1412 O 0.37798 0.32015 0.97503 0.0
Mn1413 Mn 0.37465 0.30492 0.94774 0.0
O1414 O 0.4082 0.34591 0.94008 0.0
O1415 O 0.35198 0.32357 0.93205 0.0
O1416 O 0.36786 0.36335 0.00049 0.0
O1417 O 0.39053 0.39241 0.01815 0.0
O1418 O 0.36556 0.28363 0.97179 0.0
O1419 O 0.40478 0.30629 0.93375 0.0
C1420 C 0.39712 0.41297 0.9643 0.0
C1421 C 0.43501 0.3561 0.00364 0.0
C1422 C 0.34802 0.34616 0.93418 0.0
C1423 C 0.37007 0.30149 0.986 0.0
C1424 C 0.41235 0.32689 0.92732 0.0
C1425 C 0.37213 0.37843 0.01732 0.0
O1426 O 0.397 0.38984 0.96837 0.0
O1427 O 0.41287 0.4246 0.97699 0.0
O1428 O 0.40104 0.66509 0.74228 0.0
Mn1429 Mn 0.39423 0.63608 0.71887 0.0
O1430 O 0.37148 0.69032 0.73727 0.0
Mn1431 Mn 0.35147 0.66392 0.73661 0.0
O1432 O 0.39053 0.60535 0.69762 0.0
O1433 O 0.42819 0.62781 0.72578 0.0
Mn1434 Mn 0.4453 0.62102 0.7005 0.0
O1435 O 0.40429 0.6545 0.6868 0.0
O1436 O 0.42899 0.59494 0.68854 0.0
O1437 O 0.3833 0.61803 0.74924 0.0
O1438 O 0.35434 0.64328 0.76301 0.0
O1439 O 0.46568 0.61788 0.72678 0.0
O1440 O 0.44381 0.64765 0.68059 0.0
C1441 C 0.33556 0.64508 0.70796 0.0
C1442 C 0.39104 0.68506 0.74758 0.0
C1443 C 0.40625 0.59146 0.68761 0.0
C1444 C 0.44664 0.62354 0.73894 0.0
C1445 C 0.42381 0.65695 0.67425 0.0
C1446 C 0.36768 0.62446 0.76507 0.0
O1447 O 0.35856 0.64396 0.71298 0.0
O1448 O 0.32419 0.66248 0.71858 0.0
O1449 O 0.91592 0.152 0.00369 0.0
Mn1450 Mn 0.88759 0.14419 0.02775 0.0
O1451 O 0.94106 0.12198 0.00673 0.0
Mn1452 Mn 0.915 0.10154 0.00793 0.0
O1453 O 0.85751 0.13882 0.04927 0.0
O1454 O 0.87814 0.17811 0.02228 0.0
Mn1455 Mn 0.87041 0.19377 0.04837 0.0
O1456 O 0.90655 0.15393 0.05928 0.0
O1457 O 0.84454 0.17619 0.05931 0.0
O1458 O 0.86884 0.13392 0.99798 0.0
O1459 O 0.89263 0.10429 0.98282 0.0
O1460 O 0.86648 0.21504 0.0229 0.0
O1461 O 0.89716 0.19237 0.06831 0.0
C1462 C 0.8974 0.08548 0.03732 0.0
C1463 C 0.9355 0.14181 0.99718 0.0
C1464 C 0.8423 0.15331 0.05905 0.0
C1465 C 0.8729 0.19683 0.00991 0.0
C1466 C 0.90804 0.1727 0.07301 0.0
C1467 C 0.87408 0.11814 0.98205 0.0
O1468 O 0.89636 0.10854 0.03264 0.0
O1469 O 0.91447 0.07425 0.02601 0.0
O1470 O 0.59584 0.16453 0.75211 0.0
Mn1471 Mn 0.60438 0.13609 0.7761 0.0
O1472 O 0.62643 0.18924 0.75493 0.0
Mn1473 Mn 0.64666 0.16303 0.75373 0.0
O1474 O 0.61117 0.10681 0.79795 0.0
O1475 O 0.57035 0.12553 0.77203 0.0
Mn1476 Mn 0.5558 0.11909 0.79915 0.0
O1477 O 0.5955 0.15523 0.80773 0.0
O1478 O 0.5747 0.0949 0.81208 0.0
O1479 O 0.61383 0.1169 0.74663 0.0
O1480 O 0.64108 0.14124 0.72845 0.0
O1481 O 0.53406 0.11208 0.77481 0.0
O1482 O 0.55655 0.1477 0.81617 0.0
C1483 C 0.663 0.14476 0.78324 0.0
C1484 C 0.60605 0.18433 0.74609 0.0
C1485 C 0.59753 0.09273 0.81015 0.0
C1486 C 0.55151 0.11837 0.76074 0.0
C1487 C 0.57656 0.15778 0.82108 0.0
C1488 C 0.62783 0.12231 0.72921 0.0
O1489 O 0.63989 0.14523 0.77911 0.0
O1490 O 0.67494 0.16019 0.7705 0.0
O1491 O 0.90181 0.8328 0.25322 0.0
Mn1492 Mn 0.89473 0.86129 0.27736 0.0
O1493 O 0.87098 0.8088 0.25627 0.0
Mn1494 Mn 0.85211 0.836 0.25557 0.0
O1495 O 0.89083 0.89116 0.29974 0.0
O1496 O 0.929 0.86923 0.2729 0.0
Mn1497 Mn 0.94552 0.87275 0.29922 0.0
O1498 O 0.9026 0.84148 0.30869 0.0
O1499 O 0.92872 0.89742 0.31385 0.0
O1500 O 0.88616 0.88102 0.24785 0.0
O1501 O 0.85761 0.8577 0.23025 0.0
O1502 O 0.96632 0.87908 0.27368 0.0
O1503 O 0.94257 0.84334 0.31448 0.0
C1504 C 0.83543 0.85388 0.28454 0.0
C1505 C 0.89141 0.81315 0.24742 0.0
C1506 C 0.90632 0.90286 0.31252 0.0
C1507 C 0.94748 0.87507 0.26061 0.0
C1508 C 0.92172 0.83634 0.3209 0.0
C1509 C 0.87176 0.87598 0.23062 0.0
O1510 O 0.85863 0.8543 0.28071 0.0
O1511 O 0.82385 0.83802 0.27197 0.0
O1512 O 0.49501 0.41564 0.15254 0.0
Mn1513 Mn 0.47136 0.38686 0.14477 0.0
O1514 O 0.49143 0.44085 0.12251 0.0
Mn1515 Mn 0.4907 0.41499 0.10181 0.0
O1516 O 0.45008 0.35651 0.13916 0.0
O1517 O 0.4767 0.37722 0.17872 0.0
Mn1518 Mn 0.45009 0.37027 0.1941 0.0
O1519 O 0.43954 0.4054 0.15416 0.0
O1520 O 0.43877 0.3446 0.17651 0.0
O1521 O 0.50157 0.3686 0.13401 0.0
O1522 O 0.51632 0.39334 0.10511 0.0
O1523 O 0.4752 0.36568 0.21569 0.0
O1524 O 0.43042 0.3973 0.19272 0.0
C1525 C 0.4611 0.39591 0.08706 0.0
C1526 C 0.50123 0.4353 0.14228 0.0
C1527 C 0.43969 0.34176 0.15372 0.0
C1528 C 0.48865 0.37169 0.19767 0.0
C1529 C 0.42576 0.40757 0.17275 0.0
C1530 C 0.51759 0.37444 0.11839 0.0
O1531 O 0.46639 0.39637 0.10984 0.0
O1532 O 0.47214 0.41231 0.07469 0.0
O1533 O 0.3327 0.74399 0.90106 0.0
Mn1534 Mn 0.36065 0.71915 0.89347 0.0
O1535 O 0.30846 0.74189 0.87049 0.0
Mn1536 Mn 0.3356 0.74171 0.85156 0.0
O1537 O 0.39022 0.69655 0.8892 0.0
O1538 O 0.36922 0.72329 0.92809 0.0
Mn1539 Mn 0.37074 0.69592 0.9433 0.0
O1540 O 0.34017 0.68738 0.90074 0.0
O1541 O 0.39425 0.6799 0.92622 0.0
O1542 O 0.38086 0.74865 0.88524 0.0
O1543 O 0.35812 0.76639 0.8563 0.0
O1544 O 0.37944 0.71912 0.96539 0.0
O1545 O 0.34048 0.68294 0.9406 0.0
C1546 C 0.3521 0.71314 0.83361 0.0
C1547 C 0.31329 0.75075 0.89073 0.0
C1548 C 0.40077 0.68242 0.90429 0.0
C1549 C 0.37668 0.73363 0.94739 0.0
C1550 C 0.33453 0.6754 0.91992 0.0
C1551 C 0.3764 0.76576 0.87048 0.0
O1552 O 0.35388 0.71619 0.85695 0.0
O1553 O 0.33566 0.72601 0.82314 0.0
O1554 O 0.00219 0.58541 0.65098 0.0
Mn1555 Mn 0.02892 0.61269 0.64466 0.0
O1556 O 0.01914 0.56167 0.62782 0.0
Mn1557 Mn 0.01231 0.58995 0.61158 0.0
O1558 O 0.0524 0.64134 0.64258 0.0
O1559 O 0.02389 0.61846 0.67945 0.0
Mn1560 Mn 0.05043 0.6242 0.69552 0.0
O1561 O 0.0591 0.59091 0.6524 0.0
O1562 O 0.06232 0.65154 0.68062 0.0
O1563 O 0.00099 0.63513 0.6371 0.0
O1564 O 0.98343 0.60744 0.61465 0.0
O1565 O 0.02511 0.62639 0.71729 0.0
O1566 O 0.06947 0.59709 0.69122 0.0
C1567 C 0.03241 0.60153 0.58439 0.0
C1568 C 0.00181 0.56472 0.64155 0.0
C1569 C 0.06272 0.65511 0.65792 0.0
C1570 C 0.01181 0.62197 0.69872 0.0
C1571 C 0.07316 0.58754 0.67068 0.0
C1572 C 0.98313 0.62788 0.62486 0.0
O1573 O 0.03679 0.61007 0.60633 0.0
O1574 O 0.01658 0.58478 0.58121 0.0
O1575 O 0.15791 0.3092 0.40104 0.0
Mn1576 Mn 0.13786 0.27763 0.39378 0.0
O1577 O 0.15136 0.31964 0.43966 0.0
Mn1578 Mn 0.12419 0.30074 0.4432 0.0
O1579 O 0.11805 0.24771 0.38548 0.0
O1580 O 0.14419 0.28102 0.35737 0.0
Mn1581 Mn 0.16312 0.25617 0.35148 0.0
O1582 O 0.16633 0.25339 0.40096 0.0
O1583 O 0.14146 0.23076 0.35659 0.0
O1584 O 0.10804 0.29995 0.38919 0.0
O1585 O 0.09784 0.31241 0.42668 0.0
O1586 O 0.16171 0.27209 0.32309 0.0
O1587 O 0.19029 0.2573 0.37037 0.0
C1588 C 0.12818 0.26277 0.44873 0.0
C1589 C 0.16105 0.32339 0.41924 0.0
C1590 C 0.12306 0.23078 0.37062 0.0
C1591 C 0.14529 0.2845 0.3341 0.0
C1592 C 0.18601 0.24783 0.39047 0.0
C1593 C 0.0947 0.31186 0.40392 0.0
O1594 O 0.13046 0.27366 0.42852 0.0
O1595 O 0.12243 0.27685 0.46634 0.0
O1596 O 0.49344 0.58182 0.34541 0.0
Mn1597 Mn 0.46973 0.61027 0.35354 0.0
O1598 O 0.492 0.557 0.37582 0.0
Mn1599 Mn 0.49079 0.58339 0.39584 0.0
O1600 O 0.44827 0.64054 0.35875 0.0
O1601 O 0.47432 0.61916 0.31942 0.0
Mn1602 Mn 0.44749 0.62421 0.30382 0.0
O1603 O 0.43781 0.59118 0.34516 0.0
O1604 O 0.43463 0.64936 0.32127 0.0
O1605 O 0.49998 0.62925 0.36296 0.0
O1606 O 0.51572 0.60579 0.39248 0.0
O1607 O 0.47256 0.6299 0.28234 0.0
O1608 O 0.43005 0.59585 0.30582 0.0
C1609 C 0.46128 0.60078 0.41221 0.0
C1610 C 0.50033 0.5623 0.35537 0.0
C1611 C 0.43653 0.65381 0.34378 0.0
C1612 C 0.48617 0.62501 0.30057 0.0
C1613 C 0.42478 0.58713 0.32632 0.0
C1614 C 0.51619 0.62431 0.37865 0.0
O1615 O 0.4657 0.60172 0.38915 0.0
O1616 O 0.47329 0.58426 0.42352 0.0
O1617 O 0.16447 0.74548 0.09547 0.0
Mn1618 Mn 0.13744 0.71993 0.10337 0.0
O1619 O 0.18906 0.74536 0.12639 0.0
Mn1620 Mn 0.16319 0.74152 0.14675 0.0
O1621 O 0.10892 0.69704 0.10959 0.0
O1622 O 0.12721 0.72479 0.06963 0.0
Mn1623 Mn 0.11835 0.69866 0.05464 0.0
O1624 O 0.15744 0.68921 0.09323 0.0
O1625 O 0.0926 0.68874 0.07316 0.0
O1626 O 0.11699 0.74847 0.11379 0.0
O1627 O 0.13859 0.76456 0.14449 0.0
O1628 O 0.11478 0.724 0.03305 0.0
O1629 O 0.14486 0.67819 0.05609 0.0
C1630 C 0.14736 0.71057 0.16158 0.0
C1631 C 0.18327 0.75364 0.10602 0.0
C1632 C 0.09248 0.68811 0.0961 0.0
C1633 C 0.12206 0.73706 0.05086 0.0
C1634 C 0.15747 0.67466 0.075 0.0
C1635 C 0.12039 0.76418 0.13021 0.0
O1636 O 0.14716 0.7155 0.13861 0.0
O1637 O 0.16347 0.72252 0.17352 0.0
O1638 O 0.06027 0.40574 0.84499 0.0
Mn1639 Mn 0.02867 0.38653 0.85388 0.0
O1640 O 0.06878 0.39951 0.80595 0.0
Mn1641 Mn 0.04917 0.37258 0.80333 0.0
O1642 O 0.99866 0.36746 0.86408 0.0
O1643 O 0.03382 0.39448 0.88926 0.0
Mn1644 Mn 0.0095 0.4132 0.89715 0.0
O1645 O 0.00449 0.41513 0.84721 0.0
O1646 O 0.98394 0.39164 0.89347 0.0
O1647 O 0.05068 0.35627 0.85783 0.0
O1648 O 0.06087 0.34623 0.81964 0.0
O1649 O 0.02775 0.41095 0.92433 0.0
O1650 O 0.00835 0.43981 0.87745 0.0
C1651 C 0.0106 0.37549 0.80065 0.0
C1652 C 0.07376 0.40876 0.8263 0.0
C1653 C 0.9826 0.37305 0.87977 0.0
C1654 C 0.03895 0.39451 0.91212 0.0
C1655 C 0.99846 0.43469 0.85765 0.0
C1656 C 0.06131 0.34261 0.84236 0.0
O1657 O 0.02307 0.37865 0.81972 0.0
O1658 O 0.02346 0.37024 0.78199 0.0
O1659 O 0.34165 0.30985 0.59446 0.0
Mn1660 Mn 0.36073 0.27791 0.60252 0.0
O1661 O 0.34779 0.31875 0.55536 0.0
Mn1662 Mn 0.37449 0.2989 0.55197 0.0
O1663 O 0.37974 0.2477 0.61124 0.0
O1664 O 0.35433 0.28206 0.63884 0.0
Mn1665 Mn 0.335 0.25757 0.64508 0.0
O1666 O 0.33181 0.25431 0.59555 0.0
O1667 O 0.3565 0.23188 0.64088 0.0
O1668 O 0.3914 0.29926 0.60634 0.0
O1669 O 0.40133 0.30977 0.56822 0.0
O1670 O 0.33613 0.27418 0.67304 0.0
O1671 O 0.30781 0.25788 0.62613 0.0
C1672 C 0.37087 0.26038 0.5492 0.0
C1673 C 0.33865 0.32353 0.57584 0.0
C1674 C 0.37472 0.23129 0.62661 0.0
C1675 C 0.35313 0.28583 0.66208 0.0
C1676 C 0.3123 0.24837 0.60609 0.0
C1677 C 0.4053 0.30959 0.5909 0.0
O1678 O 0.36787 0.27295 0.56818 0.0
O1679 O 0.37623 0.27317 0.53054 0.0
O1680 O 0.1518 0.49264 0.4141 0.0
Mn1681 Mn 0.14351 0.46913 0.38575 0.0
O1682 O 0.12263 0.4891 0.44028 0.0
Mn1683 Mn 0.10139 0.48839 0.41477 0.0
O1684 O 0.13821 0.44705 0.35608 0.0
O1685 O 0.17703 0.47476 0.37553 0.0
Mn1686 Mn 0.19391 0.44877 0.37049 0.0
O1687 O 0.15365 0.43764 0.40437 0.0
O1688 O 0.176 0.43395 0.3468 0.0
O1689 O 0.13232 0.49932 0.36756 0.0
O1690 O 0.10455 0.51429 0.39348 0.0
O1691 O 0.21396 0.47486 0.36418 0.0
O1692 O 0.19337 0.43219 0.39942 0.0
C1693 C 0.08564 0.45922 0.39589 0.0
C1694 C 0.14247 0.49853 0.43423 0.0
C1695 C 0.15314 0.43432 0.34366 0.0
C1696 C 0.19524 0.48753 0.3698 0.0
C1697 C 0.17321 0.42562 0.40812 0.0
C1698 C 0.1174 0.5157 0.37428 0.0
O1699 O 0.10857 0.46416 0.39568 0.0
O1700 O 0.07394 0.47025 0.41279 0.0
O1701 O 0.25372 0.40236 0.16648 0.0
Mn1702 Mn 0.27788 0.39466 0.13801 0.0
O1703 O 0.2572 0.37227 0.19157 0.0
Mn1704 Mn 0.25841 0.35168 0.16566 0.0
O1705 O 0.29935 0.38897 0.10799 0.0
O1706 O 0.27281 0.42863 0.12845 0.0
Mn1707 Mn 0.29929 0.44385 0.1208 0.0
O1708 O 0.30965 0.40402 0.15678 0.0
O1709 O 0.3099 0.42613 0.09488 0.0
O1710 O 0.24785 0.38419 0.11928 0.0
O1711 O 0.23325 0.35471 0.14353 0.0
O1712 O 0.27418 0.46557 0.11681 0.0
O1713 O 0.31934 0.44226 0.14752 0.0
C1714 C 0.28813 0.33656 0.14726 0.0
C1715 C 0.24724 0.39194 0.18597 0.0
C1716 C 0.30923 0.40326 0.09272 0.0
C1717 C 0.26082 0.4476 0.12317 0.0
C1718 C 0.32366 0.42253 0.15839 0.0
C1719 C 0.2322 0.36809 0.12469 0.0
O1720 O 0.28289 0.35942 0.14714 0.0
O1721 O 0.27689 0.3245 0.16375 0.0
O1722 O 0.347 0.50291 0.91432 0.0
Mn1723 Mn 0.35462 0.52773 0.88621 0.0
O1724 O 0.37783 0.5051 0.93876 0.0
Mn1725 Mn 0.39742 0.50536 0.9121 0.0
O1726 O 0.36 0.55062 0.85706 0.0
O1727 O 0.3206 0.52302 0.87633 0.0
Mn1728 Mn 0.30466 0.54964 0.8719 0.0
O1729 O 0.3456 0.55934 0.90609 0.0
O1730 O 0.3226 0.56493 0.84855 0.0
O1731 O 0.36412 0.49854 0.86622 0.0
O1732 O 0.39259 0.48069 0.88949 0.0
O1733 O 0.28382 0.52477 0.8641 0.0
O1734 O 0.30576 0.56462 0.9014 0.0
C1735 C 0.41342 0.53511 0.89464 0.0
C1736 C 0.35742 0.4964 0.93387 0.0
C1737 C 0.34536 0.56402 0.84502 0.0
C1738 C 0.30209 0.51124 0.86921 0.0
C1739 C 0.326 0.57157 0.90956 0.0
C1740 C 0.37877 0.48141 0.87097 0.0
O1741 O 0.39028 0.53103 0.89488 0.0
O1742 O 0.42538 0.52249 0.91021 0.0
O1743 O 0.24368 0.59586 0.66347 0.0
Mn1744 Mn 0.21947 0.60394 0.63531 0.0
O1745 O 0.23909 0.62427 0.69006 0.0
Mn1746 Mn 0.2383 0.64557 0.66469 0.0
O1747 O 0.19697 0.60918 0.6054 0.0
O1748 O 0.22551 0.5702 0.62538 0.0
Mn1749 Mn 0.19923 0.55395 0.61964 0.0
O1750 O 0.1882 0.59387 0.65421 0.0
O1751 O 0.18587 0.57135 0.59488 0.0
O1752 O 0.24937 0.6153 0.61707 0.0
O1753 O 0.26419 0.64285 0.64332 0.0
O1754 O 0.2248 0.53305 0.61441 0.0
O1755 O 0.18094 0.55471 0.64755 0.0
C1756 C 0.20944 0.66192 0.64632 0.0
C1757 C 0.24944 0.60505 0.68371 0.0
C1758 C 0.18555 0.59415 0.59181 0.0
C1759 C 0.23787 0.55143 0.62015 0.0
C1760 C 0.17535 0.57475 0.65712 0.0
C1761 C 0.26564 0.63023 0.62397 0.0
O1762 O 0.21426 0.63898 0.64512 0.0
O1763 O 0.22021 0.67294 0.66384 0.0
O1764 O 0.15253 0.55946 0.09081 0.0
Mn1765 Mn 0.14383 0.52754 0.10966 0.0
O1766 O 0.19181 0.56721 0.0966 0.0
Mn1767 Mn 0.19294 0.55036 0.1254 0.0
O1768 O 0.13418 0.49733 0.12805 0.0
O1769 O 0.10846 0.53091 0.10022 0.0
Mn1770 Mn 0.1022 0.50641 0.08121 0.0
O1771 O 0.15281 0.50393 0.0813 0.0
O1772 O 0.10681 0.48081 0.10266 0.0
O1773 O 0.13739 0.54913 0.13933 0.0
O1774 O 0.17426 0.56398 0.14927 0.0
O1775 O 0.07395 0.52321 0.0834 0.0
O1776 O 0.12324 0.5073 0.05563 0.0
C1777 C 0.19649 0.51175 0.12642 0.0
C1778 C 0.1715 0.57248 0.08729 0.0
C1779 C 0.1199 0.48032 0.12176 0.0
C1780 C 0.08527 0.53468 0.10026 0.0
C1781 C 0.14316 0.49785 0.06133 0.0
C1782 C 0.15148 0.56211 0.15231 0.0
O1783 O 0.17773 0.52342 0.1199 0.0
O1784 O 0.21437 0.52549 0.1322 0.0
O1785 O 0.24619 0.40296 0.83354 0.0
Mn1786 Mn 0.22172 0.39428 0.8615 0.0
O1787 O 0.24288 0.3743 0.80756 0.0
Mn1788 Mn 0.24159 0.35503 0.83433 0.0
O1789 O 0.20003 0.38883 0.89167 0.0
O1790 O 0.22675 0.42812 0.87066 0.0
Mn1791 Mn 0.20071 0.44373 0.87886 0.0
O1792 O 0.19016 0.40373 0.84256 0.0
O1793 O 0.19083 0.42619 0.90521 0.0
O1794 O 0.2519 0.38414 0.88063 0.0
O1795 O 0.26748 0.35686 0.8551 0.0
O1796 O 0.22635 0.46526 0.88112 0.0
O1797 O 0.1799 0.44167 0.85271 0.0
C1798 C 0.21281 0.33585 0.8468 0.0
C1799 C 0.25237 0.39392 0.8134 0.0
C1800 C 0.19076 0.40328 0.90725 0.0
C1801 C 0.2392 0.44703 0.87448 0.0
C1802 C 0.17587 0.42208 0.84144 0.0
C1803 C 0.26855 0.3694 0.87431 0.0
O1804 O 0.21578 0.35848 0.85298 0.0
O1805 O 0.22758 0.32663 0.83119 0.0
O1806 O 0.34599 0.49453 0.58169 0.0
Mn1807 Mn 0.35451 0.47031 0.60975 0.0
O1808 O 0.37543 0.49078 0.55584 0.0
Mn1809 Mn 0.39683 0.49025 0.58116 0.0
O1810 O 0.36112 0.44827 0.63911 0.0
O1811 O 0.32078 0.4751 0.62064 0.0
Mn1812 Mn 0.30565 0.44808 0.62661 0.0
O1813 O 0.34482 0.43893 0.59066 0.0
O1814 O 0.32443 0.43413 0.65033 0.0
O1815 O 0.36529 0.49999 0.62846 0.0
O1816 O 0.39383 0.51531 0.60347 0.0
O1817 O 0.28429 0.47287 0.63357 0.0
O1818 O 0.30584 0.43101 0.59793 0.0
C1819 C 0.41251 0.46072 0.59949 0.0
C1820 C 0.35583 0.5007 0.56182 0.0
C1821 C 0.3473 0.43562 0.65267 0.0
C1822 C 0.30194 0.48669 0.62726 0.0
C1823 C 0.32578 0.42589 0.58779 0.0
C1824 C 0.38088 0.51598 0.62265 0.0
O1825 O 0.38956 0.46569 0.59966 0.0
O1826 O 0.42426 0.47199 0.58279 0.0
O1827 O 0.25262 0.59369 0.33358 0.0
Mn1828 Mn 0.27763 0.60094 0.36142 0.0
O1829 O 0.25714 0.62266 0.3081 0.0
Mn1830 Mn 0.25774 0.6415 0.3352 0.0
O1831 O 0.30045 0.60483 0.3911 0.0
O1832 O 0.27258 0.56688 0.36962 0.0
Mn1833 Mn 0.2989 0.55033 0.37435 0.0
O1834 O 0.30867 0.59211 0.34136 0.0
O1835 O 0.31225 0.56675 0.39984 0.0
O1836 O 0.24811 0.61125 0.38164 0.0
O1837 O 0.23212 0.63874 0.35631 0.0
O1838 O 0.27306 0.52949 0.37919 0.0
O1839 O 0.31696 0.55286 0.34635 0.0
C1840 C 0.28695 0.65952 0.34903 0.0
C1841 C 0.2471 0.60316 0.31343 0.0
C1842 C 0.31211 0.58939 0.40399 0.0
C1843 C 0.26011 0.54832 0.37471 0.0
C1844 C 0.32207 0.57346 0.33769 0.0
C1845 C 0.23183 0.62671 0.37593 0.0
O1846 O 0.28331 0.63674 0.35383 0.0
O1847 O 0.27251 0.66992 0.33388 0.0
O1848 O 0.41685 0.15299 0.49271 0.0
Mn1849 Mn 0.38813 0.14384 0.46936 0.0
O1850 O 0.44311 0.12417 0.48767 0.0
Mn1851 Mn 0.4183 0.10226 0.48861 0.0
O1852 O 0.35839 0.13654 0.44829 0.0
O1853 O 0.37612 0.1773 0.47487 0.0
Mn1854 Mn 0.36923 0.1921 0.44795 0.0
O1855 O 0.40603 0.15432 0.43698 0.0
O1856 O 0.34595 0.17286 0.43429 0.0
O1857 O 0.37071 0.13259 0.49976 0.0
O1858 O 0.39709 0.10526 0.51473 0.0
O1859 O 0.36132 0.21326 0.47222 0.0
O1860 O 0.39732 0.1932 0.43036 0.0
C1861 C 0.39929 0.08579 0.46003 0.0
C1862 C 0.43707 0.14334 0.49825 0.0
C1863 C 0.34427 0.15003 0.43595 0.0
C1864 C 0.36808 0.19586 0.48616 0.0
C1865 C 0.40749 0.17369 0.42403 0.0
C1866 C 0.37762 0.11779 0.51609 0.0
O1867 O 0.39869 0.10882 0.46463 0.0
O1868 O 0.41672 0.07464 0.47085 0.0
O1869 O 0.91695 0.34694 0.50441 0.0
Mn1870 Mn 0.88797 0.35348 0.52821 0.0
O1871 O 0.94018 0.37802 0.50881 0.0
Mn1872 Mn 0.91271 0.39643 0.5072 0.0
O1873 O 0.85782 0.35698 0.54986 0.0
O1874 O 0.88037 0.31871 0.52379 0.0
Mn1875 Mn 0.87827 0.30335 0.55105 0.0
O1876 O 0.9078 0.34634 0.56039 0.0
O1877 O 0.85395 0.31993 0.56647 0.0
O1878 O 0.86856 0.36153 0.49799 0.0
O1879 O 0.89164 0.39085 0.48139 0.0
O1880 O 0.87044 0.2813 0.5275 0.0
O1881 O 0.90802 0.30644 0.56516 0.0
C1882 C 0.89413 0.41341 0.53529 0.0
C1883 C 0.93636 0.358 0.49899 0.0
C1884 C 0.84721 0.34177 0.56373 0.0
C1885 C 0.87317 0.29947 0.5132 0.0
C1886 C 0.9138 0.32728 0.57244 0.0
C1887 C 0.87359 0.37637 0.48107 0.0
O1888 O 0.89356 0.3901 0.53176 0.0
O1889 O 0.91045 0.42477 0.52308 0.0
O1890 O 0.40262 0.16428 0.2527 0.0
Mn1891 Mn 0.39446 0.13655 0.27738 0.0
O1892 O 0.37224 0.18915 0.25477 0.0
Mn1893 Mn 0.35213 0.16284 0.25507 0.0
O1894 O 0.38874 0.10762 0.30013 0.0
O1895 O 0.42868 0.12664 0.27326 0.0
Mn1896 Mn 0.4439 0.12303 0.30048 0.0
O1897 O 0.40282 0.15681 0.30894 0.0
O1898 O 0.42568 0.10004 0.31602 0.0
O1899 O 0.38533 0.11663 0.24795 0.0
O1900 O 0.35664 0.14009 0.23059 0.0
O1901 O 0.46545 0.1145 0.2765 0.0
O1902 O 0.44257 0.15281 0.31495 0.0
C1903 C 0.33526 0.14513 0.284 0.0
C1904 C 0.3925 0.18382 0.24596 0.0
C1905 C 0.40304 0.09614 0.31427 0.0
C1906 C 0.44758 0.11912 0.26227 0.0
C1907 C 0.42216 0.16102 0.3213 0.0
C1908 C 0.3704 0.12149 0.23106 0.0
O1909 O 0.35855 0.14495 0.28041 0.0
O1910 O 0.32395 0.16152 0.2718 0.0
O1911 O 0.58389 0.6503 0.00372 0.0
Mn1912 Mn 0.61179 0.64342 0.02852 0.0
O1913 O 0.55821 0.62088 0.00711 0.0
Mn1914 Mn 0.58432 0.60059 0.01003 0.0
O1915 O 0.64181 0.63945 0.051 0.0
O1916 O 0.62025 0.67737 0.02215 0.0
Mn1917 Mn 0.62701 0.69401 0.04785 0.0
O1918 O 0.59214 0.65345 0.05941 0.0
O1919 O 0.65346 0.67768 0.05907 0.0
O1920 O 0.63116 0.63208 -0.00078 0.0
O1921 O 0.60694 0.60226 0.9852 0.0
O1922 O 0.62915 0.71504 0.02201 0.0
O1923 O 0.60065 0.69203 0.06831 0.0
C1924 C 0.60171 0.58521 0.03975 0.0
C1925 C 0.56421 0.6404 0.99721 0.0
C1926 C 0.65633 0.65491 0.0605 0.0
C1927 C 0.62348 0.6963 0.00945 0.0
C1928 C 0.5903 0.67214 0.07313 0.0
C1929 C 0.62593 0.61546 0.98403 0.0
O1930 O 0.60306 0.60809 0.03448 0.0
O1931 O 0.5844 0.57388 0.02892 0.0
O1932 O 0.59662 0.33271 0.25504 0.0
Mn1933 Mn 0.60546 0.36054 0.2792 0.0
O1934 O 0.62577 0.30612 0.25778 0.0
Mn1935 Mn 0.6477 0.33097 0.25981 0.0
O1936 O 0.61253 0.38965 0.30132 0.0
O1937 O 0.57224 0.37241 0.27323 0.0
Mn1938 Mn 0.55674 0.38038 0.29939 0.0
O1939 O 0.59413 0.34202 0.31045 0.0
O1940 O 0.57587 0.40455 0.31166 0.0
O1941 O 0.61753 0.37889 0.24962 0.0
O1942 O 0.64551 0.35326 0.23465 0.0
O1943 O 0.53601 0.3863 0.27387 0.0
O1944 O 0.55581 0.35281 0.31818 0.0
C1945 C 0.66271 0.34947 0.28966 0.0
C1946 C 0.60607 0.31279 0.24836 0.0
C1947 C 0.59888 0.40513 0.31175 0.0
C1948 C 0.55381 0.3788 0.26087 0.0
C1949 C 0.57479 0.34099 0.32338 0.0
C1950 C 0.63288 0.37263 0.23354 0.0
O1951 O 0.63982 0.34905 0.28451 0.0
O1952 O 0.67474 0.33269 0.27878 0.0
O1953 O 0.08502 0.84617 0.99499 0.0
Mn1954 Mn 0.11245 0.85356 0.96974 0.0
O1955 O 0.06017 0.87666 0.99369 0.0
Mn1956 Mn 0.08644 0.89666 0.99067 0.0
O1957 O 0.14173 0.85837 0.94693 0.0
O1958 O 0.12158 0.81946 0.97467 0.0
Mn1959 Mn 0.12679 0.80356 0.94809 0.0
O1960 O 0.09216 0.84445 0.93893 0.0
O1961 O 0.15209 0.82066 0.93517 0.0
O1962 O 0.13271 0.8637 -0.00131 0.0
O1963 O 0.11028 0.89411 0.0144 0.0
O1964 O 0.13219 0.78226 0.97328 0.0
O1965 O 0.09857 0.80543 0.9303 0.0
C1966 C 0.10302 0.91213 0.96057 0.0
C1967 C 0.06581 0.85647 0.00241 0.0
C1968 C 0.15552 0.84339 0.93583 0.0
C1969 C 0.12719 0.80062 0.98667 0.0
C1970 C 0.08898 0.82571 0.92553 0.0
C1971 C 0.1287 0.88008 0.01441 0.0
O1972 O 0.10366 0.88909 0.96521 0.0
O1973 O 0.08638 0.92369 0.97218 0.0
O1974 O 0.40387 0.83515 0.24276 0.0
Mn1975 Mn 0.39388 0.86227 0.21846 0.0
O1976 O 0.37548 0.8077 0.24139 0.0
Mn1977 Mn 0.35272 0.83185 0.23891 0.0
O1978 O 0.386 0.89067 0.19581 0.0
O1979 O 0.42718 0.87534 0.22364 0.0
Mn1980 Mn 0.44191 0.87937 0.19605 0.0
O1981 O 0.40461 0.84287 0.18713 0.0
O1982 O 0.42233 0.90062 0.17986 0.0
O1983 O 0.38163 0.88087 0.24818 0.0
O1984 O 0.35443 0.85459 0.26355 0.0
O1985 O 0.46332 0.8896 0.2191 0.0
O1986 O 0.44385 0.84971 0.1815 0.0
C1987 C 0.33672 0.84968 0.20921 0.0
C1988 C 0.39518 0.81519 0.25017 0.0
C1989 C 0.3995 0.90289 0.18157 0.0
C1990 C 0.44624 0.88382 0.23387 0.0
C1991 C 0.4243 0.83977 0.17509 0.0
C1992 C 0.36635 0.87439 0.26435 0.0
O1993 O 0.35971 0.84989 0.21394 0.0
O1994 O 0.32533 0.83266 0.22039 0.0
O1995 O 0.09614 0.16404 0.74344 0.0
Mn1996 Mn 0.1048 0.13599 0.71956 0.0
O1997 O 0.12644 0.18904 0.74211 0.0
Mn1998 Mn 0.14629 0.16249 0.74272 0.0
O1999 O 0.11043 0.1068 0.69715 0.0
O2000 O 0.07069 0.12652 0.72345 0.0
Mn2001 Mn 0.05501 0.12275 0.69657 0.0
O2002 O 0.09675 0.15576 0.68807 0.0
O2003 O 0.07328 0.09932 0.68149 0.0
O2004 O 0.11372 0.11616 0.74903 0.0
O2005 O 0.14066 0.14047 0.76771 0.0
O2006 O 0.03378 0.11533 0.72147 0.0
O2007 O 0.05694 0.15266 0.68205 0.0
C2008 C 0.1638 0.14512 0.71363 0.0
C2009 C 0.10573 0.18388 0.74994 0.0
C2010 C 0.09593 0.09519 0.68331 0.0
C2011 C 0.05195 0.12012 0.73518 0.0
C2012 C 0.07754 0.16052 0.67582 0.0
C2013 C 0.1276 0.12142 0.76665 0.0
O2014 O 0.14057 0.14453 0.71713 0.0
O2015 O 0.17495 0.16084 0.72675 0.0
C2016 C 0.09072 0.21505 0.3456 0.0
C2017 C 0.10483 0.21262 0.36624 0.0
H2018 H 0.06491 0.19878 0.32243 0.0
C2019 C 0.10233 0.1924 0.3811 0.0
H2020 H 0.09239 0.23075 0.33415 0.0
C2021 C 0.0865 0.17395 0.37443 0.0
C2022 C 0.07339 0.17581 0.35286 0.0
H2023 H 0.11324 0.19046 0.39715 0.0
H2024 H 0.08555 0.1578 0.38531 0.0
C2025 C 0.07506 0.19683 0.33897 0.0
C2026 C 0.04319 0.85484 0.58688 0.0
C2027 C 0.03502 0.85634 0.61056 0.0
H2028 H 0.06861 0.84036 0.5627 0.0
C2029 C 0.04651 0.84299 0.62873 0.0
H2030 H 0.03431 0.86461 0.57251 0.0
C2031 C 0.06675 0.82895 0.62318 0.0
C2032 C 0.0753 0.82804 0.5994 0.0
H2033 H 0.04031 0.84399 0.64718 0.0
H2034 H 0.0758 0.81916 0.63742 0.0
C2035 C 0.06296 0.84084 0.58134 0.0
C2036 C 0.4153 0.82069 0.87661 0.0
C2037 C 0.42881 0.81877 0.85531 0.0
H2038 H 0.38741 0.80479 0.89831 0.0
C2039 C 0.4265 0.79815 0.84086 0.0
H2040 H 0.41673 0.83646 0.88794 0.0
C2041 C 0.4096 0.78076 0.84638 0.0
C2042 C 0.39512 0.78342 0.86668 0.0
H2043 H 0.43693 0.796 0.82452 0.0
H2044 H 0.40736 0.76551 0.83442 0.0
C2045 C 0.39845 0.80288 0.88236 0.0
C2046 C 0.43572 0.15556 0.08152 0.0
C2047 C 0.42574 0.17129 0.09866 0.0
H2048 H 0.4617 0.12869 0.07369 0.0
C2049 C 0.43474 0.17111 0.12228 0.0
H2050 H 0.42908 0.15483 0.06321 0.0
C2051 C 0.45393 0.15579 0.12831 0.0
C2052 C 0.46377 0.1403 0.11085 0.0
H2053 H 0.42723 0.18291 0.13586 0.0
H2054 H 0.46089 0.15586 0.14652 0.0
C2055 C 0.45438 0.1403 0.08754 0.0
C2056 C 0.07144 0.79882 0.15949 0.0
C2057 C 0.06997 0.81913 0.1445 0.0
H2058 H 0.08922 0.76547 0.16655 0.0
C2059 C 0.08295 0.81975 0.12285 0.0
H2060 H 0.06116 0.79773 0.17603 0.0
C2061 C 0.09883 0.80104 0.11738 0.0
C2062 C 0.10178 0.78203 0.13369 0.0
H2063 H 0.08201 0.83524 0.11106 0.0
H2064 H 0.10964 0.80203 0.10118 0.0
C2065 C 0.08745 0.78047 0.15421 0.0
C2066 C 0.45178 0.84202 0.36891 0.0
C2067 C 0.46438 0.85516 0.38639 0.0
H2068 H 0.42301 0.81712 0.36218 0.0
C2069 C 0.45901 0.85191 0.41076 0.0
H2070 H 0.45576 0.84433 0.34997 0.0
C2071 C 0.44102 0.83622 0.41775 0.0
C2072 C 0.42751 0.82374 0.40047 0.0
H2073 H 0.46864 0.86168 0.42458 0.0
H2074 H 0.43731 0.83453 0.4368 0.0
C2075 C 0.43317 0.82652 0.37591 0.0
C2076 C 0.41385 0.1764 0.62009 0.0
C2077 C 0.42547 0.17668 0.64256 0.0
H2078 H 0.38797 0.19407 0.59721 0.0
C2079 C 0.42171 0.1961 0.6583 0.0
H2080 H 0.41643 0.16156 0.60774 0.0
C2081 C 0.4053 0.21392 0.65262 0.0
C2082 C 0.39272 0.21295 0.63094 0.0
H2083 H 0.43075 0.19704 0.67556 0.0
H2084 H 0.40211 0.22831 0.66539 0.0
C2085 C 0.39751 0.19468 0.61421 0.0
C2086 C 0.05459 0.16716 0.91713 0.0
C2087 C 0.07241 0.17279 0.90018 0.0
H2088 H 0.02239 0.14767 0.92445 0.0
C2089 C 0.07004 0.16465 0.87635 0.0
H2090 H 0.05568 0.1737 0.93546 0.0
C2091 C 0.05072 0.14982 0.87003 0.0
C2092 C 0.03391 0.14305 0.88759 0.0
H2093 H 0.08358 0.16884 0.86299 0.0
H2094 H 0.0495 0.1428 0.85189 0.0
C2095 C 0.03557 0.1523 0.91089 0.0
C2096 C 0.33804 0.07642 0.19435 0.0
C2097 C 0.35443 0.07214 0.17557 0.0
H2098 H 0.33055 0.09592 0.22646 0.0
C2099 C 0.37767 0.08213 0.17663 0.0
H2100 H 0.3202 0.06849 0.19435 0.0
C2101 C 0.38365 0.09772 0.19547 0.0
C2102 C 0.36629 0.10331 0.21293 0.0
H2103 H 0.39059 0.07896 0.16239 0.0
H2104 H 0.40121 0.10623 0.19578 0.0
C2105 C 0.34385 0.09208 0.21271 0.0
C2106 C 0.16667 0.12558 0.46232 0.0
C2107 C 0.14216 0.11925 0.46148 0.0
H2108 H 0.20079 0.12395 0.44408 0.0
C2109 C 0.13236 0.10974 0.44028 0.0
H2110 H 0.17456 0.1329 0.47857 0.0
C2111 C 0.14719 0.1048 0.42086 0.0
C2112 C 0.17192 0.10949 0.42231 0.0
H2113 H 0.11343 0.1051 0.43907 0.0
H2114 H 0.13958 0.09603 0.4052 0.0
C2115 C 0.1816 0.12062 0.44271 0.0
C2116 C 0.12678 0.91344 0.71306 0.0
C2117 C 0.13095 0.8886 0.71059 0.0
H2118 H 0.13009 0.94817 0.69643 0.0
C2119 C 0.13869 0.87927 0.68853 0.0
H2120 H 0.12106 0.92102 0.73008 0.0
C2121 C 0.14337 0.8946 0.6695 0.0
C2122 C 0.14054 0.91942 0.67238 0.0
H2123 H 0.14212 0.86025 0.68628 0.0
H2124 H 0.15055 0.88718 0.65298 0.0
C2125 C 0.13172 0.9289 0.69394 0.0
C2126 C 0.34454 0.90421 0.96315 0.0
C2127 C 0.35756 0.88282 0.96186 0.0
H2128 H 0.31855 0.92679 0.94664 0.0
C2129 C 0.35314 0.86623 0.94337 0.0
H2130 H 0.34742 0.91682 0.97773 0.0
C2131 C 0.33669 0.872 0.92516 0.0
C2132 C 0.32459 0.89421 0.92578 0.0
H2133 H 0.36298 0.8494 0.94255 0.0
H2134 H 0.33437 0.8598 0.91016 0.0
C2135 C 0.32798 0.90975 0.94543 0.0
C2136 C 0.37136 0.92505 0.31005 0.0
C2137 C 0.35234 0.91901 0.32555 0.0
H2138 H 0.39073 0.91564 0.27793 0.0
C2139 C 0.33924 0.89782 0.3215 0.0
H2140 H 0.38174 0.94129 0.31293 0.0
C2141 C 0.34411 0.88349 0.3018 0.0
C2142 C 0.36236 0.88982 0.28554 0.0
H2143 H 0.32475 0.89241 0.33341 0.0
H2144 H 0.33313 0.86759 0.29922 0.0
C2145 C 0.3763 0.91053 0.29 0.0
C2146 C 0.35148 0.09038 0.57178 0.0
C2147 C 0.33035 0.10392 0.57493 0.0
H2148 H 0.38291 0.08416 0.55092 0.0
C2149 C 0.32606 0.124 0.56033 0.0
H2150 H 0.35551 0.07514 0.58328 0.0
C2151 C 0.34192 0.12921 0.54146 0.0
C2152 C 0.36224 0.11451 0.53736 0.0
H2153 H 0.30999 0.13482 0.56273 0.0
H2154 H 0.33791 0.14425 0.52972 0.0
C2155 C 0.36726 0.09561 0.55326 0.0
C2156 C 0.13276 0.07973 0.78134 0.0
C2157 C 0.1293 0.10425 0.78627 0.0
H2158 H 0.14262 0.04539 0.79601 0.0
C2159 C 0.12942 0.11249 0.81 0.0
H2160 H 0.13297 0.07319 0.76298 0.0
C2161 C 0.13392 0.09662 0.82869 0.0
C2162 C 0.13902 0.07252 0.82368 0.0
H2163 H 0.12704 0.1313 0.81397 0.0
H2164 H 0.13515 0.10354 0.84682 0.0
C2165 C 0.13805 0.06391 0.80006 0.0
C2166 C 0.16721 0.87368 0.06951 0.0
C2167 C 0.17721 0.89688 0.07049 0.0
H2168 H 0.14346 0.84994 0.05022 0.0
C2169 C 0.17351 0.91293 0.05132 0.0
H2170 H 0.16993 0.861 0.08406 0.0
C2171 C 0.15835 0.90681 0.03256 0.0
C2172 C 0.147 0.88443 0.03246 0.0
H2173 H 0.18151 0.93072 0.05131 0.0
H2174 H 0.15492 0.91985 0.01849 0.0
C2175 C 0.1521 0.86742 0.05038 0.0
C2176 C 0.18818 0.33251 0.0893 0.0
C2177 C 0.17523 0.35023 0.07665 0.0
H2178 H 0.21594 0.32452 0.11421 0.0
C2179 C 0.18182 0.37454 0.07921 0.0
H2180 H 0.18392 0.31355 0.08786 0.0
C2181 C 0.20091 0.38081 0.09454 0.0
C2182 C 0.21298 0.36281 0.10763 0.0
H2183 H 0.17219 0.38856 0.06967 0.0
H2184 H 0.20579 0.39957 0.09666 0.0
C2185 C 0.20661 0.33874 0.10463 0.0
C2186 C 0.71433 0.15471 0.90678 0.0
C2187 C 0.71417 0.13341 0.89351 0.0
H2188 H 0.69515 0.17715 0.93125 0.0
C2189 C 0.69536 0.11679 0.89622 0.0
H2190 H 0.72903 0.16745 0.90507 0.0
C2191 C 0.67583 0.12235 0.91109 0.0
C2192 C 0.67532 0.14446 0.92324 0.0
H2193 H 0.69525 0.10016 0.88606 0.0
H2194 H 0.66066 0.11014 0.91199 0.0
C2195 C 0.69507 0.16016 0.92168 0.0
C2196 C 0.10554 0.43885 0.12914 0.0
C2197 C 0.11826 0.45908 0.13723 0.0
H2198 H 0.08983 0.40517 0.13858 0.0
C2199 C 0.12803 0.45924 0.16062 0.0
H2200 H 0.09817 0.43799 0.11112 0.0
C2201 C 0.12332 0.44024 0.17631 0.0
C2202 C 0.10893 0.42115 0.16857 0.0
H2203 H 0.13813 0.47455 0.16721 0.0
H2204 H 0.12942 0.44125 0.1948 0.0
C2205 C 0.10091 0.42002 0.14473 0.0
C2206 C 0.81958 0.87553 0.41645 0.0
C2207 C 0.82249 0.85156 0.42405 0.0
H2208 H 0.79882 0.89985 0.39446 0.0
C2209 C 0.80539 0.83422 0.41721 0.0
H2210 H 0.83246 0.88925 0.42155 0.0
C2211 C 0.78698 0.84008 0.40155 0.0
C2212 C 0.78484 0.86351 0.39286 0.0
H2213 H 0.8067 0.81571 0.42321 0.0
H2214 H 0.77458 0.82614 0.39593 0.0
C2215 C 0.80058 0.88155 0.40095 0.0
C2216 C 0.90782 0.07395 0.14375 0.0
C2217 C 0.89606 0.07663 0.1659 0.0
H2218 H 0.91231 0.0532 0.11213 0.0
C2219 C 0.87782 0.06049 0.17248 0.0
H2220 H 0.92179 0.08635 0.13813 0.0
C2221 C 0.87256 0.04092 0.15755 0.0
C2222 C 0.88533 0.03766 0.13589 0.0
H2223 H 0.86855 0.06235 0.18952 0.0
H2224 H 0.85905 0.02807 0.16327 0.0
C2225 C 0.90242 0.05483 0.12885 0.0
C2226 C 0.32613 0.65192 0.60364 0.0
C2227 C 0.32772 0.64179 0.58064 0.0
H2228 H 0.30528 0.65628 0.63528 0.0
C2229 C 0.31012 0.62562 0.5727 0.0
H2230 H 0.33982 0.66422 0.61016 0.0
C2231 C 0.28999 0.62113 0.5871 0.0
C2232 C 0.28756 0.63276 0.60947 0.0
H2233 H 0.31119 0.61771 0.55492 0.0
H2234 H 0.27599 0.60936 0.58034 0.0
C2235 C 0.30626 0.64748 0.61793 0.0
C2236 C 0.1216 0.55992 0.32256 0.0
C2237 C 0.10561 0.57773 0.33056 0.0
H2238 H 0.1378 0.52574 0.33022 0.0
C2239 C 0.0957 0.57622 0.35369 0.0
H2240 H 0.1294 0.56087 0.30472 0.0
C2241 C 0.1003 0.55643 0.36807 0.0
C2242 C 0.11487 0.5376 0.35961 0.0
H2243 H 0.0836 0.59002 0.36035 0.0
H2244 H 0.09176 0.55565 0.38558 0.0
C2245 C 0.12618 0.53983 0.33704 0.0
C2246 C 0.39769 0.46638 0.83423 0.0
C2247 C 0.38144 0.46273 0.85308 0.0
H2248 H 0.41681 0.45003 0.80511 0.0
C2249 C 0.3691 0.44087 0.85533 0.0
H2250 H 0.40706 0.48338 0.83225 0.0
C2251 C 0.3743 0.42205 0.83966 0.0
C2252 C 0.39195 0.42516 0.82197 0.0
H2253 H 0.35617 0.438 0.86959 0.0
H2254 H 0.36585 0.40469 0.8424 0.0
C2255 C 0.40309 0.44754 0.81876 0.0
C2256 C 0.92163 0.79962 0.65854 0.0
C2257 C 0.92445 0.81963 0.64334 0.0
H2258 H 0.90322 0.76661 0.66506 0.0
C2259 C 0.91197 0.82043 0.62134 0.0
H2260 H 0.93132 0.79827 0.67542 0.0
C2261 C 0.89588 0.80196 0.61538 0.0
C2262 C 0.89215 0.78295 0.63155 0.0
H2263 H 0.9138 0.83572 0.60941 0.0
H2264 H 0.88579 0.8029 0.59872 0.0
C2265 C 0.90549 0.78157 0.65278 0.0
C2266 C 0.92991 0.17232 0.36953 0.0
C2267 C 0.92734 0.17811 0.39407 0.0
H2268 H 0.9495 0.15126 0.34348 0.0
C2269 C 0.94388 0.16876 0.4108 0.0
H2270 H 0.91748 0.17937 0.35625 0.0
C2271 C 0.9614 0.15272 0.40363 0.0
C2272 C 0.96322 0.14597 0.37955 0.0
H2273 H 0.9428 0.17296 0.42979 0.0
H2274 H 0.9733 0.1451 0.41713 0.0
C2275 C 0.94805 0.15634 0.36223 0.0
C2276 C 0.59004 0.18889 0.1628 0.0
C2277 C 0.5775 0.17549 0.14532 0.0
H2278 H 0.61585 0.21602 0.17027 0.0
C2279 C 0.58215 0.17987 0.12083 0.0
H2280 H 0.58721 0.18617 0.18188 0.0
C2281 C 0.59875 0.19777 0.11418 0.0
C2282 C 0.61121 0.21071 0.13201 0.0
H2283 H 0.57298 0.16968 0.10698 0.0
H2284 H 0.60195 0.20138 0.0953 0.0
C2285 C 0.6068 0.20596 0.15622 0.0
C2286 C 0.55742 0.86776 0.8986 0.0
C2287 C 0.53829 0.85957 0.88433 0.0
H2288 H 0.59073 0.85916 0.91553 0.0
C2289 C 0.53949 0.83648 0.87393 0.0
H2290 H 0.55735 0.88563 0.90639 0.0
C2291 C 0.5589 0.82129 0.87909 0.0
C2292 C 0.577 0.82913 0.89475 0.0
H2293 H 0.52508 0.82982 0.8626 0.0
H2294 H 0.55911 0.80315 0.87196 0.0
C2295 C 0.57656 0.85267 0.90377 0.0
C2296 C 0.90059 0.1968 0.88271 0.0
C2297 C 0.89061 0.21156 0.86478 0.0
H2298 H 0.92397 0.16677 0.89005 0.0
C2299 C 0.8978 0.20906 0.84093 0.0
H2300 H 0.89521 0.19884 0.90133 0.0
C2301 C 0.9144 0.19175 0.83468 0.0
C2302 C 0.9238 0.17591 0.85207 0.0
H2303 H 0.89063 0.22066 0.827 0.0
H2304 H 0.91932 0.19054 0.81586 0.0
C2305 C 0.91702 0.17871 0.8763 0.0
C2306 C 0.56253 0.17276 0.6212 0.0
C2307 C 0.57658 0.1681 0.60076 0.0
H2308 H 0.53188 0.16182 0.64209 0.0
C2309 C 0.57205 0.14751 0.58692 0.0
H2310 H 0.56596 0.18843 0.63225 0.0
C2311 C 0.55297 0.13258 0.59235 0.0
C2312 C 0.53787 0.13777 0.61186 0.0
H2313 H 0.58299 0.14312 0.57137 0.0
H2314 H 0.54977 0.11731 0.58068 0.0
C2315 C 0.54306 0.15767 0.62667 0.0
C2316 C 0.60026 0.80166 0.38007 0.0
C2317 C 0.60682 0.78447 0.36279 0.0
H2318 H 0.5799 0.83382 0.38702 0.0
C2319 C 0.59606 0.78453 0.34015 0.0
H2320 H 0.60836 0.80144 0.39781 0.0
C2321 C 0.57951 0.80219 0.3343 0.0
C2322 C 0.57388 0.82055 0.3508 0.0
H2323 H 0.60055 0.77092 0.32692 0.0
H2324 H 0.57175 0.80186 0.31642 0.0
C2325 C 0.58391 0.81988 0.37401 0.0
C2326 C 0.9295 0.82997 0.12456 0.0
C2327 C 0.92311 0.82672 0.10029 0.0
H2328 H 0.95378 0.84748 0.14921 0.0
C2329 C 0.93733 0.83725 0.08222 0.0
H2330 H 0.91893 0.82191 0.13882 0.0
C2331 C 0.95657 0.85177 0.08808 0.0
C2332 C 0.96243 0.85591 0.11214 0.0
H2333 H 0.93343 0.8347 0.0633 0.0
H2334 H 0.96679 0.86 0.07366 0.0
C2335 C 0.9493 0.84449 0.13048 0.0
C2336 C 0.64253 0.93241 0.7971 0.0
C2337 C 0.63766 0.92683 0.82114 0.0
H2338 H 0.64232 0.9198 0.76079 0.0
C2339 C 0.62681 0.9049 0.82722 0.0
H2340 H 0.6513 0.94916 0.79232 0.0
C2341 C 0.6226 0.88781 0.80941 0.0
C2342 C 0.62863 0.89299 0.78552 0.0
H2343 H 0.6234 0.90027 0.84586 0.0
H2344 H 0.61537 0.87047 0.81441 0.0
C2345 C 0.63767 0.91565 0.77926 0.0
C2346 C 0.83868 0.87299 0.57319 0.0
C2347 C 0.82577 0.8947 0.57151 0.0
H2348 H 0.86519 0.85016 0.55645 0.0
C2349 C 0.82769 0.90889 0.55072 0.0
H2350 H 0.83747 0.86187 0.58916 0.0
C2351 C 0.84337 0.90237 0.53253 0.0
C2352 C 0.85722 0.88153 0.53476 0.0
H2353 H 0.81765 0.92552 0.54885 0.0
H2354 H 0.84517 0.91397 0.51696 0.0
C2355 C 0.8545 0.8664 0.55474 0.0
C2356 C 0.87601 0.07896 0.31616 0.0
C2357 C 0.85181 0.07228 0.31958 0.0
H2358 H 0.90062 0.10011 0.2949 0.0
C2359 C 0.83423 0.08003 0.30307 0.0
H2360 H 0.88989 0.07309 0.32853 0.0
C2361 C 0.84017 0.09557 0.28476 0.0
C2362 C 0.86389 0.10322 0.28198 0.0
H2363 H 0.81548 0.07483 0.30467 0.0
H2364 H 0.82604 0.10192 0.27294 0.0
C2365 C 0.8821 0.09435 0.29714 0.0
C2366 C 0.64385 0.13129 0.05564 0.0
C2367 C 0.64316 0.1176 0.03453 0.0
H2368 H 0.65945 0.13464 0.09077 0.0
C2369 C 0.65922 0.09862 0.03094 0.0
H2370 H 0.63146 0.14611 0.05836 0.0
C2371 C 0.67505 0.09224 0.04903 0.0
C2372 C 0.67489 0.10477 0.07091 0.0
H2373 H 0.65882 0.08814 0.0145 0.0
H2374 H 0.68671 0.07681 0.04631 0.0
C2375 C 0.65987 0.12489 0.07391 0.0
C2376 C 0.63333 0.08068 0.71535 0.0
C2377 C 0.62963 0.10501 0.70981 0.0
H2378 H 0.64274 0.04598 0.70145 0.0
C2379 C 0.62873 0.11263 0.68586 0.0
H2380 H 0.63419 0.07463 0.73387 0.0
C2381 C 0.63251 0.09617 0.66749 0.0
C2382 C 0.63788 0.07224 0.67315 0.0
H2383 H 0.62588 0.13129 0.68139 0.0
H2384 H 0.63305 0.10245 0.64903 0.0
C2385 C 0.6379 0.06435 0.697 0.0
C2386 C 0.66378 0.87243 0.42573 0.0
C2387 C 0.67639 0.89431 0.42661 0.0
H2388 H 0.63742 0.8501 0.44314 0.0
C2389 C 0.6745 0.90916 0.44693 0.0
H2390 H 0.66503 0.86079 0.41016 0.0
C2391 C 0.65867 0.90332 0.46521 0.0
C2392 C 0.64484 0.88246 0.46351 0.0
H2393 H 0.68443 0.9259 0.44817 0.0
H2394 H 0.65666 0.91548 0.48031 0.0
C2395 C 0.64796 0.86646 0.44431 0.0
C2396 C 0.87562 0.90764 0.17137 0.0
C2397 C 0.85861 0.92588 0.17521 0.0
H2398 H 0.89313 0.87678 0.1865 0.0
C2399 C 0.8481 0.929 0.1979 0.0
H2400 H 0.88355 0.90492 0.15377 0.0
C2401 C 0.85339 0.91305 0.21629 0.0
C2402 C 0.869 0.89382 0.21199 0.0
H2403 H 0.83485 0.943 0.20098 0.0
H2404 H 0.84444 0.91504 0.23352 0.0
C2405 C 0.88075 0.89146 0.18982 0.0
C2406 C 0.84528 0.09147 0.96286 0.0
C2407 C 0.85662 0.1138 0.96326 0.0
H2408 H 0.82138 0.06823 0.94442 0.0
C2409 C 0.8513 0.13123 0.94577 0.0
H2410 H 0.84883 0.07815 0.97665 0.0
C2411 C 0.83572 0.12549 0.92684 0.0
C2412 C 0.82538 0.10246 0.92577 0.0
H2413 H 0.85988 0.14873 0.94625 0.0
H2414 H 0.83268 0.13848 0.91263 0.0
C2415 C 0.82958 0.08593 0.94445 0.0
C2416 C 0.80983 0.62627 0.92447 0.0
C2417 C 0.82575 0.64478 0.91816 0.0
H2418 H 0.77742 0.60739 0.91516 0.0
C2419 C 0.82279 0.65686 0.89622 0.0
H2420 H 0.81196 0.61669 0.94131 0.0
C2421 C 0.80335 0.65174 0.88146 0.0
C2422 C 0.78631 0.6344 0.88832 0.0
H2423 H 0.8352 0.67091 0.89078 0.0
H2424 H 0.80141 0.66194 0.86496 0.0
C2425 C 0.79006 0.62117 0.90963 0.0
C2426 C 0.31877 0.87715 0.07756 0.0
C2427 C 0.32097 0.85301 0.07015 0.0
H2428 H 0.2993 0.90213 0.10008 0.0
C2429 C 0.30416 0.836 0.07844 0.0
H2430 H 0.33141 0.89065 0.07141 0.0
C2431 C 0.28692 0.8423 0.09509 0.0
C2432 C 0.28527 0.8659 0.10331 0.0
H2433 H 0.30482 0.81732 0.07294 0.0
H2434 H 0.27502 0.82845 0.10182 0.0
C2435 C 0.30065 0.88367 0.09396 0.0
C2436 C 0.86853 0.5478 0.84441 0.0
C2437 C 0.88674 0.53484 0.85627 0.0
H2438 H 0.86048 0.57773 0.82124 0.0
C2439 C 0.9109 0.54058 0.85242 0.0
H2440 H 0.84972 0.54341 0.84723 0.0
C2441 C 0.91701 0.55948 0.83756 0.0
C2442 C 0.89906 0.57351 0.82649 0.0
H2443 H 0.9252 0.5305 0.86107 0.0
H2444 H 0.93601 0.56331 0.83524 0.0
C2445 C 0.87468 0.56729 0.82964 0.0
C2446 C 0.18565 0.12958 0.57538 0.0
C2447 C 0.17154 0.14982 0.58102 0.0
H2448 H 0.21669 0.10845 0.58458 0.0
C2449 C 0.1775 0.16388 0.60107 0.0
H2450 H 0.18134 0.11837 0.56003 0.0
C2451 C 0.19744 0.15829 0.61492 0.0
C2452 C 0.21199 0.13846 0.60913 0.0
H2453 H 0.16681 0.1794 0.60613 0.0
H2454 H 0.20151 0.16983 0.63008 0.0
C2455 C 0.20589 0.12398 0.58931 0.0
C2456 C 0.09916 0.94733 0.81934 0.0
C2457 C 0.10771 0.92403 0.82359 0.0
H2458 H 0.09713 0.98342 0.8325 0.0
C2459 C 0.1226 0.9192 0.84334 0.0
H2460 H 0.08748 0.95111 0.80417 0.0
C2461 C 0.12747 0.93739 0.85982 0.0
C2462 C 0.11776 0.96037 0.85622 0.0
H2463 H 0.12905 0.90113 0.84685 0.0
H2464 H 0.13821 0.93327 0.87548 0.0
C2465 C 0.10443 0.96557 0.83552 0.0
C2466 C 0.70339 0.37743 0.40465 0.0
C2467 C 0.71247 0.36049 0.38817 0.0
H2468 H 0.67702 0.38461 0.4321 0.0
C2469 C 0.70207 0.33761 0.38689 0.0
H2470 H 0.71116 0.39526 0.40583 0.0
C2471 C 0.68301 0.3316 0.40165 0.0
C2472 C 0.67371 0.34829 0.41822 0.0
H2473 H 0.70881 0.32408 0.37457 0.0
H2474 H 0.67558 0.31367 0.39991 0.0
C2475 C 0.68388 0.37141 0.41952 0.0
C2476 C 0.89853 0.44226 0.63221 0.0
C2477 C 0.88154 0.45927 0.63977 0.0
H2478 H 0.91872 0.41132 0.641 0.0
C2479 C 0.86959 0.45616 0.66188 0.0
H2480 H 0.90792 0.44393 0.61521 0.0
C2481 C 0.87549 0.43666 0.67668 0.0
C2482 C 0.89362 0.42063 0.66949 0.0
H2483 H 0.85621 0.46898 0.66796 0.0
H2484 H 0.86682 0.43477 0.69403 0.0
C2485 C 0.90466 0.42337 0.64701 0.0
C2486 C 0.58842 0.54458 0.14027 0.0
C2487 C 0.61172 0.53502 0.14041 0.0
H2488 H 0.56408 0.56993 0.15472 0.0
C2489 C 0.62911 0.54452 0.15619 0.0
H2490 H 0.57459 0.53746 0.12849 0.0
C2491 C 0.6231 0.56364 0.17152 0.0
C2492 C 0.59955 0.573 0.17142 0.0
H2493 H 0.64729 0.53739 0.15645 0.0
H2494 H 0.63672 0.57097 0.18339 0.0
C2495 C 0.58238 0.56318 0.15559 0.0
C2496 C 0.58261 0.67786 0.87658 0.0
C2497 C 0.57675 0.67454 0.85218 0.0
H2498 H 0.60314 0.6988 0.90199 0.0
C2499 C 0.58648 0.69014 0.83481 0.0
H2500 H 0.5754 0.66604 0.89029 0.0
C2501 C 0.60244 0.70789 0.84133 0.0
C2502 C 0.60865 0.71099 0.8654 0.0
H2503 H 0.58217 0.68851 0.81587 0.0
H2504 H 0.60984 0.71939 0.82744 0.0
C2505 C 0.59844 0.69633 0.88323 0.0
C2506 C 0.5389 0.33519 0.12495 0.0
C2507 C 0.53827 0.35837 0.11472 0.0
H2508 H 0.55693 0.3009 0.12565 0.0
C2509 C 0.55686 0.36563 0.09925 0.0
H2510 H 0.52493 0.32924 0.13718 0.0
C2511 C 0.57461 0.34947 0.09256 0.0
C2512 C 0.57431 0.3259 0.10143 0.0
H2513 H 0.5573 0.38353 0.09154 0.0
H2514 H 0.58835 0.35525 0.07995 0.0
C2515 C 0.55705 0.319 0.11841 0.0
C2516 C 0.90068 0.28611 0.34094 0.0
C2517 C 0.89002 0.28553 0.36361 0.0
H2518 H 0.92504 0.30362 0.31751 0.0
C2519 C 0.89683 0.30228 0.38126 0.0
H2520 H 0.89605 0.27293 0.32737 0.0
C2521 C 0.91335 0.3205 0.37553 0.0
C2522 C 0.9233 0.3216 0.35229 0.0
H2523 H 0.8888 0.30174 0.39901 0.0
H2524 H 0.91758 0.3341 0.38882 0.0
C2525 C 0.91737 0.30368 0.33543 0.0
C2526 C 0.96507 0.65444 0.5949 0.0
C2527 C 0.96444 0.64476 0.61812 0.0
H2528 H 0.94663 0.67536 0.56848 0.0
C2529 C 0.94537 0.65008 0.63366 0.0
H2530 H 0.97998 0.65057 0.5829 0.0
C2531 C 0.92629 0.66425 0.62546 0.0
C2532 C 0.92626 0.67293 0.60169 0.0
H2533 H 0.94483 0.6426 0.65166 0.0
H2534 H 0.91112 0.66748 0.63726 0.0
C2535 C 0.94608 0.66847 0.58671 0.0
C2536 C 0.56852 0.29728 0.65167 0.0
C2537 C 0.56982 0.31976 0.6403 0.0
H2538 H 0.5846 0.26255 0.65573 0.0
C2539 C 0.58671 0.3237 0.62193 0.0
H2540 H 0.55549 0.29393 0.66581 0.0
C2541 C 0.6035 0.30586 0.61643 0.0
C2542 C 0.60313 0.28415 0.62918 0.0
H2543 H 0.58806 0.34105 0.61315 0.0
H2544 H 0.61719 0.30935 0.60301 0.0
C2545 C 0.58513 0.27952 0.6461 0.0
C2546 C 0.92281 0.35124 0.90178 0.0
C2547 C 0.92242 0.32752 0.89337 0.0
H2548 H 0.94172 0.38428 0.90357 0.0
C2549 C 0.9408 0.31921 0.8782 0.0
H2550 H 0.9087 0.35803 0.91341 0.0
C2551 C 0.9603 0.33428 0.87283 0.0
C2552 C 0.96124 0.35769 0.88248 0.0
H2553 H 0.94072 0.30085 0.87166 0.0
H2554 H 0.97498 0.32732 0.86203 0.0
C2555 C 0.94187 0.36622 0.89625 0.0
C2556 C 0.90107 0.69494 0.11433 0.0
C2557 C 0.89466 0.71249 0.13126 0.0
H2558 H 0.92079 0.66222 0.10823 0.0
C2559 C 0.90518 0.71255 0.15405 0.0
H2560 H 0.89302 0.69493 0.09656 0.0
C2561 C 0.92107 0.69453 0.16051 0.0
C2562 C 0.9264 0.67578 0.14442 0.0
H2563 H 0.90063 0.72629 0.16711 0.0
H2564 H 0.92843 0.69482 0.17856 0.0
C2565 C 0.91693 0.67646 0.12095 0.0
C2566 C 0.53691 0.64991 0.40741 0.0
C2567 C 0.53454 0.6423 0.38366 0.0
H2568 H 0.55564 0.67146 0.43233 0.0
C2569 C 0.54953 0.6519 0.36572 0.0
H2570 H 0.5252 0.64303 0.42138 0.0
C2571 C 0.56784 0.66814 0.37204 0.0
C2572 C 0.57067 0.67513 0.3962 0.0
H2573 H 0.54764 0.64621 0.34718 0.0
H2574 H 0.58003 0.67463 0.35828 0.0
C2575 C 0.55445 0.66634 0.41357 0.0
C2576 C 0.87995 0.60604 0.69117 0.0
C2577 C 0.86844 0.6045 0.71354 0.0
H2578 H 0.88187 0.5918 0.65536 0.0
C2579 C 0.85185 0.58621 0.71821 0.0
H2580 H 0.89291 0.62012 0.68751 0.0
C2581 C 0.84554 0.57031 0.7001 0.0
C2582 C 0.85601 0.57247 0.67728 0.0
H2583 H 0.84298 0.58492 0.73554 0.0
H2584 H 0.83177 0.55694 0.7036 0.0
C2585 C 0.87385 0.58983 0.67302 0.0
C2586 C 0.65975 0.58048 0.93812 0.0
C2587 C 0.67237 0.59845 0.92548 0.0
H2588 H 0.63543 0.57199 0.9663 0.0
C2589 C 0.67063 0.62249 0.93316 0.0
H2590 H 0.66069 0.56168 0.93307 0.0
C2591 C 0.65598 0.62834 0.95286 0.0
C2592 C 0.64279 0.61022 0.96459 0.0
H2593 H 0.68023 0.63666 0.92386 0.0
H2594 H 0.65437 0.64695 0.95843 0.0
C2595 C 0.6451 0.58632 0.95727 0.0
C2596 C 0.62675 0.42432 0.18941 0.0
C2597 C 0.64515 0.41844 0.17323 0.0
H2598 H 0.60844 0.41428 0.22185 0.0
C2599 C 0.65776 0.39672 0.17579 0.0
H2600 H 0.61686 0.44103 0.18761 0.0
C2601 C 0.65329 0.38174 0.19509 0.0
C2602 C 0.63598 0.38807 0.21231 0.0
H2603 H 0.67183 0.39167 0.16321 0.0
H2604 H 0.66396 0.3655 0.19677 0.0
C2605 C 0.62221 0.40917 0.20902 0.0
C2606 C 0.8421 0.40155 0.46417 0.0
C2607 C 0.85549 0.38038 0.46269 0.0
H2608 H 0.81623 0.42423 0.44759 0.0
C2609 C 0.85176 0.36422 0.44367 0.0
H2610 H 0.84461 0.41394 0.47901 0.0
C2611 C 0.83554 0.37019 0.42527 0.0
C2612 C 0.82305 0.39221 0.42615 0.0
H2613 H 0.86202 0.34766 0.44258 0.0
H2614 H 0.83374 0.35835 0.40992 0.0
C2615 C 0.82586 0.40731 0.44621 0.0
C2616 C 0.85404 0.37879 0.80867 0.0
C2617 C 0.86747 0.38706 0.78897 0.0
H2618 H 0.83754 0.38771 0.84211 0.0
C2619 C 0.87759 0.41028 0.78961 0.0
H2620 H 0.84648 0.36082 0.80904 0.0
C2621 C 0.87257 0.42567 0.80884 0.0
C2622 C 0.85741 0.41782 0.82734 0.0
H2623 H 0.88831 0.41699 0.77477 0.0
H2624 H 0.87915 0.44402 0.80847 0.0
C2625 C 0.84901 0.39408 0.82766 0.0
C2626 C 0.84799 0.63065 0.05002 0.0
C2627 C 0.85368 0.61331 0.03259 0.0
H2628 H 0.82948 0.63757 0.08324 0.0
C2629 C 0.84293 0.59067 0.03322 0.0
H2630 H 0.85621 0.64832 0.04947 0.0
C2631 C 0.82758 0.58475 0.05184 0.0
C2632 C 0.8231 0.60123 0.07049 0.0
H2633 H 0.84683 0.57734 0.01957 0.0
H2634 H 0.81996 0.5668 0.05207 0.0
C2635 C 0.83274 0.62457 0.06911 0.0
C2636 C 0.64684 0.61914 0.30726 0.0
C2637 C 0.63333 0.61002 0.28797 0.0
H2638 H 0.66385 0.61171 0.34077 0.0
C2639 C 0.62398 0.58653 0.28928 0.0
H2640 H 0.65379 0.63735 0.30711 0.0
C2641 C 0.62967 0.57182 0.30887 0.0
C2642 C 0.64482 0.58056 0.32703 0.0
H2643 H 0.6133 0.57917 0.27474 0.0
H2644 H 0.62343 0.55335 0.30914 0.0
C2645 C 0.65259 0.60451 0.32655 0.0
C2646 C 0.65085 0.36443 0.55067 0.0
C2647 C 0.64547 0.38122 0.53266 0.0
H2648 H 0.6694 0.35836 0.58398 0.0
C2649 C 0.65632 0.40381 0.5325 0.0
H2650 H 0.64243 0.34685 0.55071 0.0
C2651 C 0.67181 0.41016 0.55088 0.0
C2652 C 0.67626 0.39412 0.56993 0.0
H2653 H 0.65239 0.41674 0.51841 0.0
H2654 H 0.67962 0.42802 0.55058 0.0
C2655 C 0.66625 0.37093 0.56944 0.0
C2656 C 0.70899 0.84085 0.59889 0.0
C2657 C 0.71429 0.86514 0.60227 0.0
H2658 H 0.68577 0.81512 0.58344 0.0
C2659 C 0.70044 0.88293 0.5909 0.0
H2660 H 0.71977 0.82691 0.60733 0.0
C2661 C 0.68037 0.87621 0.57718 0.0
C2662 C 0.67441 0.85172 0.57481 0.0
H2663 H 0.70447 0.90183 0.59351 0.0
H2664 H 0.66926 0.89005 0.56908 0.0
C2665 C 0.68937 0.83419 0.58526 0.0
C2666 C 0.20483 0.65736 0.39246 0.0
C2667 C 0.21328 0.6336 0.39331 0.0
H2668 H 0.18111 0.68354 0.4065 0.0
C2669 C 0.20407 0.61768 0.41062 0.0
H2670 H 0.21183 0.6702 0.37957 0.0
C2671 C 0.18594 0.62546 0.42639 0.0
C2672 C 0.17745 0.64933 0.42521 0.0
H2673 H 0.21045 0.59927 0.41156 0.0
H2674 H 0.17848 0.61285 0.43925 0.0
C2675 C 0.18731 0.66513 0.40821 0.0
C2676 C 0.59826 0.94683 0.67669 0.0
C2677 C 0.60759 0.92379 0.67259 0.0
H2678 H 0.59524 0.98287 0.66351 0.0
C2679 C 0.62293 0.9195 0.65308 0.0
H2680 H 0.58625 0.95021 0.69169 0.0
C2681 C 0.6275 0.93791 0.63669 0.0
C2682 C 0.61695 0.96058 0.64007 0.0
H2683 H 0.63 0.90164 0.64965 0.0
H2684 H 0.63865 0.93417 0.62122 0.0
C2685 C 0.60315 0.96527 0.66059 0.0
C2686 C 0.29227 0.37731 0.91195 0.0
C2687 C 0.29023 0.36662 0.88912 0.0
H2688 H 0.31303 0.37934 0.94455 0.0
C2689 C 0.30902 0.35207 0.88044 0.0
H2690 H 0.27817 0.38887 0.91888 0.0
C2691 C 0.32856 0.34683 0.89486 0.0
C2692 C 0.3298 0.35603 0.91821 0.0
H2693 H 0.30837 0.34394 0.86275 0.0
H2694 H 0.34232 0.33475 0.88804 0.0
C2695 C 0.31215 0.37207 0.92649 0.0
C2696 C 0.36803 0.54678 0.65292 0.0
C2697 C 0.38618 0.53492 0.63988 0.0
H2698 H 0.36006 0.57475 0.67844 0.0
C2699 C 0.41032 0.5407 0.64366 0.0
H2700 H 0.34922 0.54229 0.65018 0.0
C2701 C 0.41648 0.55832 0.65993 0.0
C2702 C 0.39858 0.57114 0.67251 0.0
H2703 H 0.42459 0.53146 0.6341 0.0
H2704 H 0.43549 0.56217 0.66209 0.0
C2705 C 0.37421 0.56515 0.66904 0.0
C2706 C 0.82232 0.12139 0.08348 0.0
C2707 C 0.82136 0.14371 0.07168 0.0
H2708 H 0.80489 0.09796 0.10885 0.0
C2709 C 0.80102 0.15853 0.07433 0.0
H2710 H 0.83789 0.10975 0.08169 0.0
C2711 C 0.7827 0.15203 0.08988 0.0
C2712 C 0.78438 0.13054 0.10271 0.0
H2713 H 0.7997 0.17566 0.0651 0.0
H2714 H 0.76754 0.16409 0.09243 0.0
C2715 C 0.80374 0.11478 0.09905 0.0
C2716 C 0.61488 0.07908 0.84813 0.0
C2717 C 0.60842 0.0739 0.82438 0.0
H2718 H 0.62264 0.06466 0.88277 0.0
C2719 C 0.6072 0.05007 0.81641 0.0
H2720 H 0.61544 0.09743 0.85456 0.0
C2721 C 0.61172 0.03139 0.83247 0.0
C2722 C 0.61664 0.03658 0.85667 0.0
H2723 H 0.6016 0.04595 0.7982 0.0
H2724 H 0.61006 0.01295 0.82636 0.0
C2725 C 0.6187 0.06043 0.8643 0.0
C2726 C 0.87444 0.93028 0.32998 0.0
C2727 C 0.89876 0.9237 0.32709 0.0
H2728 H 0.84956 0.95444 0.34737 0.0
C2729 C 0.91669 0.93696 0.33911 0.0
H2730 H 0.86025 0.9204 0.32096 0.0
C2731 C 0.91062 0.95569 0.35421 0.0
C2732 C 0.88651 0.96208 0.35747 0.0
H2733 H 0.93567 0.9328 0.33717 0.0
H2734 H 0.92496 0.96533 0.36329 0.0
C2735 C 0.86834 0.94962 0.34502 0.0
C2736 C 0.42504 0.30047 0.15979 0.0
C2737 C 0.42736 0.32043 0.14447 0.0
H2738 H 0.4071 0.26723 0.1666 0.0
C2739 C 0.41527 0.32068 0.12228 0.0
H2740 H 0.43453 0.29964 0.17682 0.0
C2741 C 0.39967 0.30183 0.11638 0.0
C2742 C 0.39613 0.28298 0.13279 0.0
H2743 H 0.41678 0.33595 0.11027 0.0
H2744 H 0.38955 0.30253 0.09972 0.0
C2745 C 0.40938 0.28199 0.15407 0.0
C2746 C 0.45437 0.64185 0.90956 0.0
C2747 C 0.46276 0.64068 0.88593 0.0
H2748 H 0.42871 0.65575 0.93373 0.0
C2749 C 0.45127 0.6541 0.8678 0.0
H2750 H 0.46318 0.63201 0.92393 0.0
C2751 C 0.43088 0.66796 0.8734 0.0
C2752 C 0.42219 0.66853 0.89716 0.0
H2753 H 0.4576 0.65334 0.84939 0.0
H2754 H 0.42187 0.6779 0.85924 0.0
C2755 C 0.43445 0.65556 0.91512 0.0
C2756 C 0.07957 0.69575 0.66411 0.0
C2757 C 0.0762 0.67585 0.64902 0.0
H2758 H 0.09708 0.72955 0.66896 0.0
C2759 C 0.08678 0.67554 0.62602 0.0
H2760 H 0.07129 0.69655 0.68174 0.0
C2761 C 0.10153 0.69453 0.61873 0.0
C2762 C 0.10556 0.71376 0.63443 0.0
H2763 H 0.08447 0.66027 0.61414 0.0
H2764 H 0.11047 0.69376 0.60142 0.0
C2765 C 0.09418 0.71458 0.65683 0.0
C2766 C 0.05917 0.32094 0.3777 0.0
C2767 C 0.07639 0.32823 0.39461 0.0
H2768 H 0.0261 0.32993 0.35987 0.0
C2769 C 0.07516 0.35132 0.40464 0.0
H2770 H 0.06003 0.30318 0.36972 0.0
C2771 C 0.05616 0.36646 0.39912 0.0
C2772 C 0.03786 0.35879 0.38351 0.0
H2773 H 0.08865 0.35744 0.41735 0.0
H2774 H 0.05555 0.38394 0.40772 0.0
C2775 C 0.03982 0.33616 0.37224 0.0
C2776 C 0.41618 0.67903 0.37553 0.0
C2777 C 0.42476 0.676 0.35193 0.0
H2778 H 0.39452 0.70095 0.39909 0.0
C2779 C 0.42044 0.69397 0.33472 0.0
H2780 H 0.41945 0.66545 0.38913 0.0
C2781 C 0.40619 0.71355 0.34021 0.0
C2782 C 0.39633 0.71596 0.36316 0.0
H2783 H 0.42738 0.69255 0.31656 0.0
H2784 H 0.4024 0.72654 0.32623 0.0
C2785 C 0.40201 0.69916 0.38119 0.0
C2786 C 0.03126 0.66489 0.10947 0.0
C2787 C 0.03711 0.64191 0.11799 0.0
H2788 H 0.04505 0.69804 0.09549 0.0
C2789 C 0.06112 0.6356 0.12239 0.0
H2790 H 0.01269 0.66987 0.10596 0.0
C2791 C 0.07939 0.65187 0.11728 0.0
C2792 C 0.0736 0.67417 0.10714 0.0
H2793 H 0.06584 0.618 0.12909 0.0
H2794 H 0.09801 0.64646 0.11966 0.0
C2795 C 0.04956 0.6809 0.10365 0.0
C2796 C 0.10549 0.29177 0.83961 0.0
C2797 C 0.10655 0.28391 0.86348 0.0
H2798 H 0.0906 0.31585 0.81442 0.0
C2799 C 0.09206 0.29508 0.88097 0.0
H2800 H 0.11613 0.28331 0.82562 0.0
C2801 C 0.07704 0.31437 0.87447 0.0
C2802 C 0.07619 0.32216 0.85039 0.0
H2803 H 0.09263 0.28919 0.89954 0.0
H2804 H 0.06623 0.32311 0.88814 0.0
C2805 C 0.09055 0.31048 0.83315 0.0
C2806 C 0.43143 0.32766 0.62347 0.0
C2807 C 0.42647 0.32339 0.599 0.0
H2808 H 0.45363 0.34689 0.64882 0.0
C2809 C 0.44117 0.33408 0.5814 0.0
H2810 H 0.42047 0.31959 0.63742 0.0
C2811 C 0.4593 0.34976 0.58785 0.0
C2812 C 0.4637 0.35483 0.61203 0.0
H2813 H 0.43831 0.33104 0.56238 0.0
H2814 H 0.46976 0.35819 0.57373 0.0
C2815 C 0.45025 0.34322 0.62999 0.0
C2816 C 0.15067 0.37978 0.30502 0.0
C2817 C 0.13472 0.38704 0.28688 0.0
H2818 H 0.16862 0.38926 0.33742 0.0
C2819 C 0.12221 0.40902 0.28924 0.0
H2820 H 0.16018 0.36278 0.30408 0.0
C2821 C 0.12688 0.42417 0.30872 0.0
C2822 C 0.14419 0.41746 0.32574 0.0
H2823 H 0.10945 0.41487 0.27569 0.0
H2824 H 0.11804 0.44153 0.30977 0.0
C2825 C 0.15542 0.39489 0.32419 0.0
C2826 C 0.33801 0.40139 0.03241 0.0
C2827 C 0.35358 0.38187 0.03519 0.0
H2828 H 0.3108 0.42296 0.04866 0.0
C2829 C 0.352 0.3669 0.0554 0.0
H2830 H 0.3389 0.41275 0.01659 0.0
C2831 C 0.33594 0.3727 0.07382 0.0
C2832 C 0.32161 0.39341 0.07183 0.0
H2833 H 0.36386 0.35154 0.05741 0.0
H2834 H 0.33591 0.36203 0.09014 0.0
C2835 C 0.322 0.40709 0.05062 0.0
C2836 C 0.34251 0.60244 0.82355 0.0
C2837 C 0.35449 0.58043 0.82659 0.0
H2838 H 0.33733 0.63346 0.80205 0.0
C2839 C 0.37289 0.57386 0.81061 0.0
H2840 H 0.32852 0.60814 0.83589 0.0
C2841 C 0.37792 0.5885 0.79072 0.0
C2842 C 0.36467 0.60982 0.78692 0.0
H2843 H 0.3824 0.55697 0.81279 0.0
H2844 H 0.39155 0.58277 0.778 0.0
C2845 C 0.34755 0.61696 0.80403 0.0
C2846 C 0.1593 0.58518 0.55699 0.0
C2847 C 0.16984 0.6026 0.57209 0.0
H2848 H 0.13483 0.57768 0.52858 0.0
C2849 C 0.16363 0.62695 0.56893 0.0
H2850 H 0.16376 0.56626 0.55847 0.0
C2851 C 0.14706 0.63352 0.55098 0.0
C2852 C 0.13619 0.6157 0.53669 0.0
H2853 H 0.17132 0.64073 0.58033 0.0
H2854 H 0.14255 0.65231 0.54843 0.0
C2855 C 0.14248 0.59162 0.53986 0.0
C2856 C 0.12819 0.56893 0.18993 0.0
C2857 C 0.14135 0.57792 0.17043 0.0
H2858 H 0.11436 0.57647 0.22515 0.0
C2859 C 0.14841 0.60206 0.16992 0.0
H2860 H 0.12293 0.55017 0.19059 0.0
C2861 C 0.14368 0.61686 0.18925 0.0
C2862 C 0.132 0.60773 0.20964 0.0
H2863 H 0.15879 0.60922 0.15505 0.0
H2864 H 0.15016 0.63523 0.18854 0.0
C2865 C 0.12351 0.58387 0.20962 0.0
C2866 C 0.17634 0.40842 0.94884 0.0
C2867 C 0.17816 0.39373 0.92836 0.0
H2868 H 0.15838 0.41486 0.98217 0.0
C2869 C 0.16519 0.37204 0.92736 0.0
H2870 H 0.18648 0.42502 0.95026 0.0
C2871 C 0.14916 0.36618 0.9459 0.0
C2872 C 0.14613 0.38208 0.96525 0.0
H2873 H 0.16632 0.36046 0.91172 0.0
H2874 H 0.13837 0.35 0.94456 0.0
C2875 C 0.1603 0.40272 0.96704 0.0
C2876 C 0.37042 0.42875 0.69043 0.0
C2877 C 0.35799 0.41972 0.67045 0.0
H2878 H 0.38439 0.42079 0.72553 0.0
C2879 C 0.35251 0.39522 0.66898 0.0
H2880 H 0.3744 0.44778 0.69185 0.0
C2881 C 0.35819 0.37997 0.6878 0.0
C2882 C 0.36919 0.38902 0.70862 0.0
H2883 H 0.34267 0.38803 0.65377 0.0
H2884 H 0.35282 0.3613 0.68647 0.0
C2885 C 0.37602 0.41338 0.70957 0.0
C2886 C 0.35653 0.58655 0.45475 0.0
C2887 C 0.35717 0.61031 0.4629 0.0
H2888 H 0.342 0.56148 0.43031 0.0
C2889 C 0.34236 0.62773 0.452 0.0
H2890 H 0.36753 0.5727 0.46301 0.0
C2891 C 0.32745 0.62129 0.43263 0.0
C2892 C 0.32705 0.59734 0.42445 0.0
H2893 H 0.34272 0.64625 0.45808 0.0
H2894 H 0.3164 0.63493 0.42412 0.0
C2895 C 0.34167 0.58013 0.43593 0.0
C2896 C 0.28452 0.12943 0.41439 0.0
C2897 C 0.28807 0.13142 0.38944 0.0
H2898 H 0.30042 0.13386 0.44929 0.0
C2899 C 0.31105 0.13626 0.38031 0.0
H2900 H 0.26677 0.12603 0.42176 0.0
C2901 C 0.33019 0.13982 0.3959 0.0
C2902 C 0.32635 0.1391 0.42074 0.0
H2903 H 0.31403 0.13813 0.36121 0.0
H2904 H 0.34766 0.14469 0.38863 0.0
C2905 C 0.30364 0.13356 0.43006 0.0
C2906 C 0.81205 0.33089 0.58845 0.0
C2907 C 0.82576 0.34899 0.57733 0.0
H2908 H 0.78279 0.32238 0.61151 0.0
C2909 C 0.81899 0.37322 0.58005 0.0
H2910 H 0.81634 0.31199 0.58636 0.0
C2911 C 0.79917 0.37913 0.59446 0.0
C2912 C 0.78642 0.36082 0.60632 0.0
H2913 H 0.82921 0.38748 0.57157 0.0
H2914 H 0.79433 0.39785 0.59697 0.0
C2915 C 0.79274 0.33677 0.60289 0.0
C2916 C 0.37684 0.06063 0.32267 0.0
C2917 C 0.39348 0.07791 0.33045 0.0
H2918 H 0.3598 0.02696 0.33064 0.0
C2919 C 0.40357 0.07627 0.35347 0.0
H2920 H 0.36886 0.06178 0.30492 0.0
C2921 C 0.39858 0.05673 0.36795 0.0
C2922 C 0.38344 0.03831 0.35968 0.0
H2923 H 0.41613 0.08971 0.35996 0.0
H2924 H 0.40735 0.05578 0.38534 0.0
C2925 C 0.37186 0.04076 0.33727 0.0
C2926 C 0.68223 0.62258 0.07936 0.0
C2927 C 0.6769 0.64699 0.07527 0.0
H2928 H 0.70495 0.59746 0.0983 0.0
C2929 C 0.69088 0.66477 0.08668 0.0
H2930 H 0.67178 0.60852 0.07082 0.0
C2931 C 0.70898 0.65851 0.10246 0.0
C2932 C 0.71405 0.63437 0.10695 0.0
H2933 H 0.68763 0.68379 0.08397 0.0
H2934 H 0.7191 0.67272 0.11117 0.0
C2935 C 0.70104 0.61627 0.09501 0.0
C2936 C 0.62984 0.4384 0.36117 0.0
C2937 C 0.6204 0.46144 0.3572 0.0
H2938 H 0.63093 0.40188 0.34857 0.0
C2939 C 0.60669 0.46637 0.33671 0.0
H2940 H 0.64062 0.43457 0.37696 0.0
C2941 C 0.60115 0.44802 0.32084 0.0
C2942 C 0.60966 0.42471 0.32513 0.0
H2943 H 0.59939 0.4842 0.33357 0.0
H2944 H 0.58932 0.45177 0.30576 0.0
C2945 C 0.62463 0.41998 0.34492 0.0
C2946 C 0.21477 0.84183 0.90432 0.0
C2947 C 0.21461 0.8638 0.89223 0.0
H2948 H 0.19642 0.81864 0.92845 0.0
C2949 C 0.19631 0.88069 0.89652 0.0
H2950 H 0.22913 0.82892 0.90149 0.0
C2951 C 0.17724 0.87476 0.91185 0.0
C2952 C 0.17675 0.85205 0.92291 0.0
H2953 H 0.19627 0.89787 0.8873 0.0
H2954 H 0.16248 0.88731 0.91411 0.0
C2955 C 0.1961 0.83606 0.9197 0.0
C2956 C 0.37332 0.96044 0.15984 0.0
C2957 C 0.38193 0.96025 0.13604 0.0
H2958 H 0.372 0.94146 0.19345 0.0
C2959 C 0.39245 0.93934 0.12668 0.0
H2960 H 0.36506 0.9764 0.16742 0.0
C2961 C 0.39575 0.91946 0.14127 0.0
C2962 C 0.3889 0.92035 0.16547 0.0
H2963 H 0.39903 0.93862 0.10836 0.0
H2964 H 0.40513 0.90393 0.13409 0.0
C2965 C 0.37691 0.94049 0.17461 0.0
C2966 C 0.09598 0.07575 0.64384 0.0
C2967 C 0.1054 0.07686 0.66718 0.0
H2968 H 0.09323 0.05602 0.61136 0.0
C2969 C 0.12153 0.05918 0.67517 0.0
H2970 H 0.08369 0.08942 0.63725 0.0
C2971 C 0.12677 0.03954 0.66035 0.0
C2972 C 0.11604 0.03774 0.63746 0.0
H2973 H 0.12894 0.05986 0.69319 0.0
H2974 H 0.1384 0.02543 0.66715 0.0
C2975 C 0.10136 0.0565 0.62907 0.0
C2976 C 0.97248 0.14191 0.29041 0.0
C2977 C 0.98582 0.12111 0.29566 0.0
H2978 H 0.94683 0.15772 0.26645 0.0
C2979 C 0.97728 0.09873 0.28791 0.0
H2980 H 0.9788 0.15935 0.29641 0.0
C2981 C 0.95904 0.09782 0.27065 0.0
C2982 C 0.94958 0.11929 0.26126 0.0
H2983 H 0.98735 0.08247 0.2918 0.0
H2984 H 0.95565 0.08087 0.26165 0.0
C2985 C 0.95405 0.14095 0.27332 0.0
C2986 C 0.13633 0.70361 0.52772 0.0
C2987 C 0.11557 0.70131 0.51345 0.0
H2988 H 0.15483 0.72608 0.55298 0.0
C2989 C 0.0944 0.713 0.52059 0.0
H2990 H 0.15285 0.69458 0.52254 0.0
C2991 C 0.09558 0.73115 0.53786 0.0
C2992 C 0.11788 0.73732 0.54805 0.0
H2993 H 0.07817 0.71142 0.50984 0.0
H2994 H 0.08016 0.74296 0.53997 0.0
C2995 C 0.13749 0.7217 0.54517 0.0
C2996 C 0.53131 0.85768 0.79333 0.0
C2997 C 0.51643 0.87748 0.79849 0.0
H2998 H 0.55551 0.84226 0.76762 0.0
C2999 C 0.522 0.89985 0.78834 0.0
H3000 H 0.52735 0.84025 0.80112 0.0
C3001 C 0.53795 0.90097 0.76897 0.0
C3002 C 0.54871 0.87983 0.76022 0.0
H3003 H 0.51079 0.91539 0.7921 0.0
H3004 H 0.53884 0.91746 0.75859 0.0
C3005 C 0.54745 0.8588 0.77403 0.0
C3006 C 0.34577 0.27113 0.03804 0.0
C3007 C 0.3679 0.26469 0.04829 0.0
H3008 H 0.32903 0.28976 0.00889 0.0
C3009 C 0.38795 0.27965 0.04465 0.0
H3010 H 0.33004 0.25989 0.04074 0.0
C3011 C 0.38738 0.29695 0.02639 0.0
C3012 C 0.36675 0.29903 0.01199 0.0
H3013 H 0.40517 0.27507 0.05265 0.0
H3014 H 0.40417 0.3052 0.02088 0.0
C3015 C 0.34523 0.28823 0.01968 0.0
C3016 C 0.97092 0.85373 0.20452 0.0
C3017 C 0.98348 0.87481 0.19858 0.0
H3018 H 0.94701 0.83749 0.2299 0.0
C3019 C 0.97442 0.89705 0.20619 0.0
H3020 H 0.97761 0.83638 0.19863 0.0
C3021 C 0.95706 0.89766 0.22433 0.0
C3022 C 0.94877 0.87606 0.23442 0.0
H3023 H 0.98381 0.91353 0.20167 0.0
H3024 H 0.95352 0.91464 0.23325 0.0
C3025 C 0.95333 0.85437 0.22246 0.0
C3026 C 0.34331 0.72633 0.45993 0.0
C3027 C 0.36525 0.73359 0.44984 0.0
H3028 H 0.32694 0.70659 0.48853 0.0
C3029 C 0.38582 0.71933 0.45364 0.0
H3030 H 0.32721 0.73706 0.45722 0.0
C3031 C 0.3857 0.70173 0.47167 0.0
C3032 C 0.36499 0.69863 0.48574 0.0
H3033 H 0.40294 0.72458 0.44588 0.0
H3034 H 0.40271 0.69394 0.47725 0.0
C3035 C 0.3432 0.70887 0.47796 0.0
C3036 C 0.54525 0.1393 0.72229 0.0
C3037 C 0.54842 0.11752 0.73458 0.0
H3038 H 0.52263 0.15845 0.69765 0.0
C3039 C 0.5384 0.09642 0.72494 0.0
H3040 H 0.55277 0.1558 0.72942 0.0
C3041 C 0.52134 0.0979 0.70654 0.0
C3042 C 0.51409 0.12051 0.69811 0.0
H3043 H 0.54069 0.07939 0.73417 0.0
H3044 H 0.51087 0.08201 0.70223 0.0
C3045 C 0.52794 0.1408 0.70405 0.0
C3046 C 0.09651 0.28499 0.9794 0.0
C3047 C 0.11743 0.2976 0.98565 0.0
H3048 H 0.08285 0.25398 0.96137 0.0
C3049 C 0.1379 0.29552 0.97095 0.0
H3050 H 0.08053 0.28631 0.99054 0.0
C3051 C 0.13932 0.27681 0.95414 0.0
C3052 C 0.12014 0.26058 0.95212 0.0
H3053 H 0.15418 0.30531 0.9754 0.0
H3054 H 0.15659 0.27275 0.94599 0.0
C3055 C 0.09791 0.26633 0.96273 0.0
C3056 C 0.2935 0.97338 0.1463 0.0
C3057 C 0.30109 0.98383 0.12458 0.0
H3058 H 0.26612 0.95213 0.16308 0.0
C3059 C 0.29443 0.97298 0.10285 0.0
H3060 H 0.29865 0.98142 0.1633 0.0
C3061 C 0.27556 0.95636 0.10271 0.0
C3062 C 0.26399 0.95034 0.12433 0.0
H3063 H 0.30026 0.98063 0.08589 0.0
H3064 H 0.26752 0.95149 0.08563 0.0
C3065 C 0.27477 0.95663 0.14619 0.0
C3066 C 0.28665 0.02122 0.3475 0.0
C3067 C 0.29804 0.01306 0.36855 0.0
H3068 H 0.25775 0.04236 0.33331 0.0
C3069 C 0.29575 0.02657 0.38969 0.0
H3070 H 0.28821 0.01101 0.33096 0.0
C3071 C 0.27801 0.04444 0.39109 0.0
C3072 C 0.263 0.04893 0.37125 0.0
H3073 H 0.3044 0.02062 0.40612 0.0
H3074 H 0.27354 0.05182 0.40856 0.0
C3075 C 0.26916 0.03924 0.34884 0.0
C3076 C 0.20303 0.02324 0.60769 0.0
C3077 C 0.20049 0.01155 0.62988 0.0
H3078 H 0.22451 0.04795 0.58742 0.0
C3079 C 0.21083 0.02196 0.65045 0.0
H3080 H 0.19543 0.01546 0.59155 0.0
C3081 C 0.22733 0.0408 0.64811 0.0
C3082 C 0.23386 0.04885 0.62514 0.0
H3083 H 0.20909 0.01319 0.66778 0.0
H3084 H 0.238 0.0458 0.66366 0.0
C3085 C 0.21975 0.04194 0.60534 0.0
C3086 C 0.22467 0.95391 0.85199 0.0
C3087 C 0.2349 0.94856 0.87437 0.0
H3088 H 0.20237 0.97881 0.8329 0.0
C3089 C 0.22331 0.95653 0.89536 0.0
H3090 H 0.23329 0.9479 0.83557 0.0
C3091 C 0.20544 0.97418 0.89386 0.0
C3092 C 0.19945 0.98378 0.87135 0.0
H3093 H 0.2309 0.95242 0.91285 0.0
H3094 H 0.19983 0.98318 0.91021 0.0
C3095 C 0.20696 0.97172 0.85047 0.0
C3096 C 0.60979 0.20258 0.02407 0.0
C3097 C 0.62958 0.20057 0.00858 0.0
H3098 H 0.59372 0.22397 0.05178 0.0
C3099 C 0.65151 0.21137 0.01506 0.0
H3100 H 0.59273 0.19434 0.01942 0.0
C3101 C 0.65214 0.22812 0.03371 0.0
C3102 C 0.63076 0.23427 0.04557 0.0
H3103 H 0.66704 0.20995 0.00331 0.0
H3104 H 0.66804 0.23929 0.03562 0.0
C3105 C 0.61041 0.21953 0.04268 0.0
C3106 C 0.04158 0.40025 0.27615 0.0
C3107 C 0.05084 0.37975 0.26462 0.0
H3108 H 0.0136 0.41373 0.29888 0.0
C3109 C 0.04618 0.35704 0.27453 0.0
H3110 H 0.04507 0.41799 0.26883 0.0
C3111 C 0.02796 0.3546 0.29174 0.0
C3112 C 0.01481 0.37487 0.29916 0.0
H3113 H 0.0531 0.34096 0.26598 0.0
H3114 H 0.02155 0.3367 0.29605 0.0
C3115 C 0.02351 0.39782 0.29346 0.0
C3116 C 0.90284 0.78096 0.5154 0.0
C3117 C 0.88245 0.79471 0.5098 0.0
H3118 H 0.9157 0.74951 0.53324 0.0
C3119 C 0.86203 0.79313 0.52465 0.0
H3120 H 0.91867 0.78169 0.50398 0.0
C3121 C 0.86019 0.77441 0.54146 0.0
C3122 C 0.8789 0.75758 0.54334 0.0
H3123 H 0.8461 0.80365 0.52055 0.0
H3124 H 0.84297 0.77103 0.55 0.0
C3125 C 0.90104 0.76238 0.5321 0.0
C3126 C 0.04582 0.63764 0.22247 0.0
C3127 C 0.04885 0.61674 0.23623 0.0
H3128 H 0.02299 0.65539 0.19697 0.0
C3129 C 0.03836 0.59518 0.22829 0.0
H3130 H 0.05376 0.65447 0.22827 0.0
C3131 C 0.02094 0.59565 0.21018 0.0
C3132 C 0.01388 0.61773 0.20031 0.0
H3133 H 0.04054 0.57882 0.23868 0.0
H3134 H 0.01015 0.57968 0.2072 0.0
C3135 C 0.02815 0.63816 0.2045 0.0
C3136 C 0.4853 0.40369 0.7177 0.0
C3137 C 0.48829 0.38352 0.70297 0.0
H3138 H 0.46913 0.41714 0.74975 0.0
C3139 C 0.47105 0.36503 0.70372 0.0
H3140 H 0.49854 0.41804 0.71756 0.0
C3141 C 0.45432 0.36421 0.72258 0.0
C3142 C 0.45489 0.38213 0.74027 0.0
H3143 H 0.47316 0.34931 0.69239 0.0
H3144 H 0.44383 0.34801 0.72526 0.0
C3145 C 0.46856 0.40302 0.7363 0.0
C3146 C 0.02103 0.89772 0.70773 0.0
C3147 C 0.01408 0.87512 0.69904 0.0
H3148 H 0.03993 0.91614 0.73569 0.0
C3149 C 0.02806 0.85489 0.70498 0.0
H3150 H 0.01045 0.91356 0.70344 0.0
C3151 C 0.04511 0.85635 0.72347 0.0
C3152 C 0.04799 0.87805 0.73592 0.0
H3153 H 0.02297 0.83727 0.69838 0.0
H3154 H 0.05269 0.83984 0.73055 0.0
C3155 C 0.03788 0.89915 0.72633 0.0
C3156 C 0.88422 0.27984 0.45187 0.0
C3157 C 0.86449 0.2641 0.45026 0.0
H3158 H 0.90242 0.30538 0.47433 0.0
C3159 C 0.84374 0.26912 0.46368 0.0
H3160 H 0.90038 0.27634 0.44149 0.0
C3161 C 0.84497 0.28556 0.48258 0.0
C3162 C 0.86683 0.29719 0.48774 0.0
H3163 H 0.82829 0.25722 0.46272 0.0
H3164 H 0.83031 0.28598 0.49546 0.0
C3165 C 0.88545 0.29646 0.47075 0.0
C3166 C 0.46191 0.09519 0.22827 0.0
C3167 C 0.45032 0.1162 0.23621 0.0
H3168 H 0.49028 0.08109 0.20645 0.0
C3169 C 0.45134 0.1369 0.22186 0.0
H3170 H 0.46125 0.07895 0.23906 0.0
C3171 C 0.46811 0.1381 0.2031 0.0
C3172 C 0.48371 0.11864 0.19889 0.0
H3173 H 0.44258 0.15333 0.2276 0.0
H3174 H 0.47179 0.15546 0.19503 0.0
C3175 C 0.47848 0.09636 0.20942 0.0
C3176 C 0.59736 0.70862 0.97679 0.0
C3177 C 0.61943 0.69844 0.98357 0.0
H3178 H 0.58075 0.73811 0.95852 0.0
C3179 C 0.63985 0.70283 0.96931 0.0
H3180 H 0.58134 0.70538 0.98748 0.0
C3181 C 0.63953 0.72159 0.95253 0.0
C3182 C 0.61874 0.7357 0.95015 0.0
H3183 H 0.65705 0.69496 0.97417 0.0
H3184 H 0.65644 0.72754 0.94484 0.0
C3185 C 0.59706 0.7275 0.96025 0.0
C3186 C 0.02443 0.09966 0.79096 0.0
C3187 C 0.01648 0.12217 0.79905 0.0
H3188 H 0.04341 0.08129 0.76297 0.0
C3189 C 0.02939 0.14281 0.79225 0.0
H3190 H 0.01475 0.08349 0.79601 0.0
C3191 C 0.04588 0.14159 0.77327 0.0
C3192 C 0.04954 0.11966 0.76141 0.0
H3193 H 0.02356 0.16039 0.79836 0.0
H3194 H 0.0523 0.15824 0.76544 0.0
C3195 C 0.04075 0.09842 0.77188 0.0
C3196 C 0.64477 0.27428 0.5421 0.0
C3197 C 0.62302 0.26307 0.54823 0.0
H3198 H 0.662 0.2972 0.51644 0.0
C3199 C 0.60124 0.27373 0.54104 0.0
H3200 H 0.6618 0.26645 0.5476 0.0
C3201 C 0.60134 0.29148 0.52326 0.0
C3202 C 0.62323 0.29832 0.51276 0.0
H3203 H 0.58422 0.26542 0.54577 0.0
H3204 H 0.5844 0.29629 0.5148 0.0
C3205 C 0.64487 0.29193 0.52418 0.0
C3206 C 0.45134 0.8646 0.27354 0.0
C3207 C 0.45039 0.88575 0.25984 0.0
H3208 H 0.47208 0.84464 0.29921 0.0
C3209 C 0.46311 0.90609 0.2678 0.0
H3210 H 0.44183 0.84865 0.26771 0.0
C3211 C 0.4804 0.9038 0.28588 0.0
C3212 C 0.48501 0.88115 0.29589 0.0
H3213 H 0.46263 0.92262 0.25746 0.0
H3214 H 0.49283 0.91855 0.28881 0.0
C3215 C 0.46876 0.86229 0.29161 0.0
C3216 C 0.86136 0.72181 0.04519 0.0
C3217 C 0.88066 0.73805 0.04564 0.0
H3218 H 0.84475 0.6934 0.02516 0.0
C3219 C 0.90196 0.73225 0.0333 0.0
H3220 H 0.84481 0.7259 0.05467 0.0
C3221 C 0.90203 0.71345 0.0167 0.0
C3222 C 0.88066 0.70084 0.01213 0.0
H3223 H 0.91713 0.74453 0.03351 0.0
H3224 H 0.91717 0.71195 0.00446 0.0
C3225 C 0.86137 0.70313 0.0283 0.0
C3226 C 0.72248 0.04597 0.85822 0.0
C3227 C 0.73571 0.0479 0.87958 0.0
H3228 H 0.69712 0.02442 0.83888 0.0
C3229 C 0.72689 0.03675 0.90049 0.0
H3230 H 0.72893 0.05438 0.84188 0.0
C3231 C 0.70858 0.01961 0.8988 0.0
C3232 C 0.69925 0.01366 0.87618 0.0
H3233 H 0.73682 0.03812 0.91722 0.0
H3234 H 0.70501 0.00822 0.91422 0.0
C3235 C 0.70424 0.02872 0.85651 0.0
C3236 C 0.70523 0.97485 0.60171 0.0
C3237 C 0.69845 0.98365 0.62431 0.0
H3238 H 0.732 0.95471 0.58272 0.0
C3239 C 0.70604 0.97136 0.64504 0.0
H3240 H 0.6995 0.98401 0.58548 0.0
C3241 C 0.7247 0.95458 0.6435 0.0
C3242 C 0.73546 0.9501 0.62118 0.0
H3243 H 0.70085 0.97786 0.66268 0.0
H3244 H 0.73332 0.94869 0.65996 0.0
C3245 C 0.72398 0.95814 0.60015 0.0
C3246 C 0.7737 0.95433 0.35005 0.0
C3247 C 0.76418 0.94799 0.37247 0.0
H3248 H 0.79611 0.97949 0.33159 0.0
C3249 C 0.77683 0.95423 0.39342 0.0
H3250 H 0.76422 0.94964 0.33366 0.0
C3251 C 0.79532 0.97124 0.39222 0.0
C3252 C 0.80053 0.98215 0.37013 0.0
H3253 H 0.76981 0.94929 0.41092 0.0
H3254 H 0.80185 0.97907 0.40883 0.0
C3255 C 0.79206 0.97144 0.34888 0.0
C3256 C 0.77193 0.04106 0.14758 0.0
C3257 C 0.76343 0.0481 0.12494 0.0
H3258 H 0.79354 0.01544 0.16643 0.0
C3259 C 0.77682 0.04203 0.10439 0.0
H3260 H 0.76182 0.04545 0.16367 0.0
C3261 C 0.79513 0.0248 0.10596 0.0
C3262 C 0.79965 0.01359 0.12806 0.0
H3263 H 0.77055 0.04743 0.08673 0.0
H3264 H 0.80232 0.01729 0.08948 0.0
C3265 C 0.79015 0.0238 0.14913 0.0
C3266 C 0.3641 0.79477 0.96713 0.0
C3267 C 0.38342 0.79666 0.98337 0.0
H3268 H 0.34694 0.77217 0.94101 0.0
C3269 C 0.40447 0.7835 0.97889 0.0
H3270 H 0.34772 0.80495 0.97019 0.0
C3271 C 0.40395 0.76461 0.9624 0.0
C3272 C 0.38251 0.75919 0.95012 0.0
H3273 H 0.4196 0.78466 0.99118 0.0
H3274 H 0.41881 0.75193 0.96235 0.0
C3275 C 0.36362 0.77593 0.95041 0.0
C3276 C 0.97453 0.64387 0.7065 0.0
C3277 C 0.98555 0.62187 0.70073 0.0
H3278 H 0.9515 0.662 0.73149 0.0
C3279 C 0.97484 0.60044 0.7085 0.0
H3280 H 0.98253 0.66064 0.70058 0.0
C3281 C 0.95711 0.60123 0.72632 0.0
C3282 C 0.9502 0.62343 0.73616 0.0
H3283 H 0.98304 0.58327 0.7042 0.0
H3284 H 0.95215 0.58461 0.73523 0.0
C3285 C 0.95671 0.64466 0.72423 0.0
C3286 C 0.1537 0.23321 0.46823 0.0
C3287 C 0.13373 0.23747 0.45341 0.0
H3288 H 0.16614 0.21586 0.50013 0.0
C3289 C 0.11458 0.22096 0.45354 0.0
H3290 H 0.16858 0.24584 0.46856 0.0
C3291 C 0.11312 0.2036 0.4718 0.0
C3292 C 0.13083 0.20299 0.48978 0.0
H3293 H 0.099 0.22396 0.44218 0.0
H3294 H 0.0965 0.19364 0.47403 0.0
C3295 C 0.15225 0.21602 0.48641 0.0
C3296 C 0.95267 0.35909 0.77648 0.0
C3297 C 0.94947 0.38001 0.76277 0.0
H3298 H 0.97577 0.34143 0.80179 0.0
C3299 C 0.9597 0.40164 0.77084 0.0
H3300 H 0.94486 0.34222 0.77062 0.0
C3301 C 0.97729 0.40122 0.78876 0.0
C3302 C 0.98462 0.37914 0.79844 0.0
H3303 H 0.95736 0.41803 0.7605 0.0
H3304 H 0.98803 0.41725 0.79166 0.0
C3305 C 0.97042 0.35865 0.79435 0.0
C3306 C 0.5225 0.64796 0.29099 0.0
C3307 C 0.51245 0.62603 0.29849 0.0
H3308 H 0.54592 0.66491 0.2656 0.0
C3309 C 0.52465 0.60459 0.29333 0.0
H3310 H 0.51336 0.66475 0.29489 0.0
C3311 C 0.54328 0.6047 0.27638 0.0
C3312 C 0.5495 0.62623 0.26471 0.0
H3313 H 0.5172 0.58747 0.29895 0.0
H3314 H 0.54953 0.58762 0.26935 0.0
C3315 C 0.54128 0.64806 0.27426 0.0
C3316 C 0.45417 0.60452 0.77762 0.0
C3317 C 0.44774 0.62552 0.76512 0.0
H3318 H 0.48016 0.58866 0.80123 0.0
C3319 C 0.45493 0.64785 0.7743 0.0
H3320 H 0.44861 0.58708 0.77091 0.0
C3321 C 0.47322 0.64874 0.79154 0.0
C3322 C 0.48383 0.62732 0.79974 0.0
H3323 H 0.45003 0.6643 0.76502 0.0
H3324 H 0.48177 0.66589 0.79514 0.0
C3325 C 0.47232 0.60541 0.79505 0.0
C3326 C 0.85293 0.2058 0.9719 0.0
C3327 C 0.87424 0.19897 0.98373 0.0
H3328 H 0.83672 0.23194 0.9487 0.0
C3329 C 0.89643 0.20603 0.97407 0.0
H3330 H 0.83559 0.20036 0.97902 0.0
C3331 C 0.89707 0.22435 0.95687 0.0
C3332 C 0.87552 0.23514 0.94914 0.0
H3333 H 0.9131 0.20087 0.98284 0.0
H3334 H 0.91424 0.23269 0.95278 0.0
C3335 C 0.85357 0.22394 0.9545 0.0
C3336 C 0.60941 0.79714 0.47091 0.0
C3337 C 0.62997 0.79894 0.48539 0.0
H3338 H 0.59193 0.776 0.44394 0.0
C3339 C 0.65163 0.78857 0.47744 0.0
H3340 H 0.59253 0.80507 0.47664 0.0
C3341 C 0.65133 0.77212 0.4585 0.0
C3342 C 0.62927 0.76574 0.44808 0.0
H3343 H 0.66779 0.78994 0.48833 0.0
H3344 H 0.66719 0.76111 0.45552 0.0
C3345 C 0.6091 0.78048 0.45207 0.0
C3346 C 0.79508 0.47355 0.60313 0.0
C3347 C 0.80075 0.48218 0.6261 0.0
H3348 H 0.77009 0.45244 0.58297 0.0
C3349 C 0.79341 0.46903 0.64635 0.0
H3350 H 0.80044 0.48347 0.58725 0.0
C3351 C 0.77588 0.4512 0.64389 0.0
C3352 C 0.76582 0.44691 0.62121 0.0
H3353 H 0.79779 0.47537 0.66426 0.0
H3354 H 0.76715 0.44451 0.65997 0.0
C3355 C 0.77753 0.45577 0.60069 0.0
C3356 C 0.77399 0.54203 0.8498 0.0
C3357 C 0.76433 0.54847 0.87216 0.0
H3358 H 0.7957 0.51621 0.83128 0.0
C3359 C 0.77629 0.54122 0.8932 0.0
H3360 H 0.76501 0.54742 0.83334 0.0
C3361 C 0.79406 0.52342 0.89204 0.0
C3362 C 0.7996 0.5129 0.86983 0.0
H3363 H 0.76907 0.54605 0.91066 0.0
H3364 H 0.80002 0.51508 0.90863 0.0
C3365 C 0.79156 0.52406 0.84864 0.0
C3366 C 0.72117 0.54268 0.10507 0.0
C3367 C 0.73447 0.54891 0.12561 0.0
H3368 H 0.69579 0.5178 0.09039 0.0
C3369 C 0.7257 0.54247 0.14831 0.0
H3370 H 0.72762 0.5477 0.08737 0.0
C3371 C 0.70743 0.52532 0.15003 0.0
C3372 C 0.69823 0.51467 0.12905 0.0
H3373 H 0.73572 0.54709 0.1644 0.0
H3374 H 0.70393 0.51724 0.16743 0.0
C3375 C 0.70279 0.5256 0.10682 0.0
C3376 C 0.70263 0.47252 0.38519 0.0
C3377 C 0.70259 0.48827 0.36552 0.0
H3378 H 0.72211 0.44417 0.40266 0.0
C3379 C 0.71514 0.48177 0.34457 0.0
H3380 H 0.69306 0.47717 0.40151 0.0
C3381 C 0.73149 0.46272 0.34512 0.0
C3382 C 0.73558 0.45046 0.36675 0.0
H3383 H 0.71528 0.49369 0.32912 0.0
H3384 H 0.74392 0.46068 0.3302 0.0
C3385 C 0.71927 0.45355 0.38581 0.0
C3386 C 0.52529 0.3951 0.20488 0.0
C3387 C 0.51488 0.37264 0.20027 0.0
H3388 H 0.54826 0.41473 0.2287 0.0
C3389 C 0.52635 0.3518 0.20886 0.0
H3390 H 0.51672 0.41141 0.19846 0.0
C3391 C 0.54462 0.35368 0.22605 0.0
C3392 C 0.55105 0.37641 0.2348 0.0
H3393 H 0.51857 0.33425 0.20541 0.0
H3394 H 0.55027 0.33755 0.23546 0.0
C3395 C 0.54341 0.39699 0.22225 0.0
C3396 C 0.1049 0.7936 0.02386 0.0
C3397 C 0.12709 0.79838 0.01287 0.0
H3398 H 0.08592 0.76924 0.0468 0.0
C3399 C 0.1483 0.78973 0.02362 0.0
H3400 H 0.08831 0.8001 0.01588 0.0
C3401 C 0.14695 0.77208 0.04147 0.0
C3402 C 0.12438 0.76315 0.04831 0.0
H3403 H 0.16564 0.79337 0.01544 0.0
H3404 H 0.16328 0.76259 0.04647 0.0
C3405 C 0.10355 0.77583 0.04158 0.0
C3406 C 0.38803 0.22031 0.5429 0.0
C3407 C 0.36745 0.23438 0.54723 0.0
H3408 H 0.40419 0.19449 0.51928 0.0
C3409 C 0.34518 0.22665 0.5383 0.0
H3410 H 0.40539 0.22592 0.54984 0.0
C3411 C 0.3445 0.20866 0.52082 0.0
C3412 C 0.3661 0.19857 0.51229 0.0
H3413 H 0.32907 0.23724 0.54144 0.0
H3414 H 0.32782 0.20593 0.51103 0.0
C3415 C 0.38734 0.20221 0.52541 0.0
C3416 C 0.20387 0.52249 0.3944 0.0
C3417 C 0.19688 0.51365 0.37187 0.0
H3418 H 0.23105 0.54232 0.41308 0.0
C3419 C 0.20397 0.52608 0.35109 0.0
H3420 H 0.19845 0.51326 0.41069 0.0
C3421 C 0.22261 0.54289 0.35244 0.0
C3422 C 0.23384 0.54707 0.3746 0.0
H3423 H 0.19851 0.51965 0.33352 0.0
H3424 H 0.23092 0.54893 0.33588 0.0
C3425 C 0.22267 0.5391 0.39577 0.0
C3426 C 0.20716 0.47464 0.14748 0.0
C3427 C 0.19927 0.48559 0.12612 0.0
H3428 H 0.23362 0.45146 0.1632 0.0
C3429 C 0.20501 0.47491 0.10405 0.0
H3430 H 0.20281 0.48262 0.16473 0.0
C3431 C 0.22288 0.45722 0.10318 0.0
C3432 C 0.23465 0.45016 0.1244 0.0
H3433 H 0.19913 0.48308 0.08735 0.0
H3434 H 0.23024 0.45225 0.08582 0.0
C3435 C 0.22481 0.45673 0.14662 0.0
C3436 C 0.27218 0.45801 0.84786 0.0
C3437 C 0.26508 0.44943 0.87044 0.0
H3438 H 0.29188 0.48546 0.82959 0.0
C3439 C 0.27947 0.45446 0.89058 0.0
H3440 H 0.26131 0.4543 0.83209 0.0
C3441 C 0.29716 0.4723 0.88915 0.0
C3442 C 0.30006 0.48506 0.86761 0.0
H3443 H 0.27431 0.44781 0.90817 0.0
H3444 H 0.30501 0.47896 0.90569 0.0
C3445 C 0.28973 0.47591 0.84645 0.0
C3446 C 0.27263 0.54229 0.64532 0.0
C3447 C 0.264 0.54888 0.62258 0.0
H3448 H 0.2932 0.51618 0.66477 0.0
C3449 C 0.27672 0.54139 0.60206 0.0
H3450 H 0.26306 0.54781 0.66139 0.0
C3451 C 0.29423 0.52338 0.60399 0.0
C3452 C 0.29876 0.51284 0.62644 0.0
H3453 H 0.27033 0.54633 0.58431 0.0
H3454 H 0.30081 0.51499 0.58768 0.0
C3455 C 0.28987 0.52405 0.64725 0.0
C3456 C 0.04772 0.13482 0.43334 0.0
C3457 C 0.04972 0.11009 0.42779 0.0
H3458 H 0.05145 0.16222 0.46084 0.0
C3459 C 0.05911 0.0946 0.44514 0.0
H3460 H 0.03982 0.14712 0.42043 0.0
C3461 C 0.06245 0.10243 0.46851 0.0
C3462 C 0.05985 0.12686 0.47495 0.0
H3463 H 0.06054 0.07547 0.44154 0.0
H3464 H 0.06681 0.08876 0.48164 0.0
C3465 C 0.05353 0.1433 0.45668 0.0
C3466 C 0.10817 0.77919 0.7179 0.0
C3467 C 0.10313 0.80328 0.72318 0.0
H3468 H 0.12473 0.75466 0.69352 0.0
C3469 C 0.10457 0.82025 0.70422 0.0
H3470 H 0.10705 0.76564 0.73188 0.0
C3471 C 0.11582 0.81416 0.68229 0.0
C3472 C 0.12471 0.79083 0.67888 0.0
H3473 H 0.10006 0.83891 0.7074 0.0
H3474 H 0.11976 0.8281 0.66928 0.0
C3475 C 0.11848 0.77299 0.69584 0.0
C3476 C 0.42644 0.85537 0.95294 0.0
C3477 C 0.44425 0.85314 0.97102 0.0
H3478 H 0.41699 0.87223 0.91928 0.0
C3479 C 0.46826 0.85743 0.96453 0.0
H3480 H 0.40786 0.85121 0.95694 0.0
C3481 C 0.47374 0.86736 0.94202 0.0
C3482 C 0.45524 0.87462 0.92613 0.0
H3483 H 0.48247 0.85576 0.9778 0.0
H3484 H 0.4922 0.87278 0.93866 0.0
C3485 C 0.43167 0.867 0.93102 0.0
C3486 C 0.39257 0.21539 0.21424 0.0
C3487 C 0.39561 0.19117 0.2204 0.0
H3488 H 0.37831 0.24034 0.18879 0.0
C3489 C 0.39246 0.17371 0.20215 0.0
H3490 H 0.39491 0.22929 0.2277 0.0
C3491 C 0.3812 0.17981 0.18027 0.0
C3492 C 0.37473 0.20375 0.17578 0.0
H3493 H 0.39555 0.15491 0.20599 0.0
H3494 H 0.3753 0.16562 0.16829 0.0
C3495 C 0.38292 0.22163 0.19186 0.0
C3496 C 0.02861 0.86345 0.05755 0.0
C3497 C 0.0461 0.87371 0.07284 0.0
H3498 H 0.02108 0.85006 0.02214 0.0
C3499 C 0.07046 0.86968 0.06762 0.0
H3500 H 0.00963 0.86622 0.06122 0.0
C3501 C 0.07698 0.85866 0.04579 0.0
C3502 C 0.05935 0.85338 0.0282 0.0
H3503 H 0.08437 0.87735 0.07893 0.0
H3504 H 0.09588 0.85739 0.04142 0.0
C3505 C 0.0351 0.85409 0.03508 0.0
C3506 C 0.39805 0.78583 0.28411 0.0
C3507 C 0.39895 0.80966 0.2761 0.0
H3508 H 0.38671 0.76211 0.31192 0.0
C3509 C 0.39545 0.82818 0.2932 0.0
H3510 H 0.40081 0.77114 0.27161 0.0
C3511 C 0.38538 0.82304 0.31581 0.0
C3512 C 0.38085 0.79914 0.32229 0.0
H3513 H 0.39723 0.8468 0.288 0.0
H3514 H 0.37855 0.83767 0.32675 0.0
C3515 C 0.39012 0.78073 0.30745 0.0
C3516 C 0.47416 0.12825 0.55198 0.0
C3517 C 0.45579 0.12176 0.56829 0.0
H3518 H 0.48263 0.14033 0.51637 0.0
C3519 C 0.43243 0.13041 0.56407 0.0
H3520 H 0.49247 0.12206 0.55487 0.0
C3521 C 0.42716 0.1426 0.54242 0.0
C3522 C 0.44469 0.14451 0.52401 0.0
H3523 H 0.41788 0.12579 0.5762 0.0
H3524 H 0.40866 0.1476 0.53892 0.0
C3525 C 0.46862 0.13896 0.52988 0.0
C3526 C 0.10105 0.1748 0.7936 0.0
C3527 C 0.1009 0.19206 0.77489 0.0
H3528 H 0.11423 0.1665 0.82919 0.0
C3529 C 0.10515 0.21614 0.78086 0.0
H3530 H 0.09715 0.15613 0.78976 0.0
C3531 C 0.11362 0.22205 0.80378 0.0
C3532 C 0.11925 0.20381 0.82052 0.0
H3533 H 0.10499 0.22989 0.76704 0.0
H3534 H 0.11962 0.24034 0.80688 0.0
C3535 C 0.11075 0.18058 0.81624 0.0
C3536 C 0.46549 0.03238 0.14152 0.0
C3537 C 0.47216 0.05652 0.14414 0.0
H3538 H 0.43953 0.00767 0.12756 0.0
C3539 C 0.45429 0.07429 0.14023 0.0
H3540 H 0.47857 0.01822 0.14459 0.0
C3541 C 0.43249 0.06843 0.12863 0.0
C3542 C 0.42748 0.04444 0.12271 0.0
H3543 H 0.45837 0.09306 0.14311 0.0
H3544 H 0.42098 0.08276 0.12209 0.0
C3545 C 0.44303 0.02641 0.13165 0.0
C3546 C 0.17791 0.20354 0.39061 0.0
C3547 C 0.19468 0.2226 0.39275 0.0
H3548 H 0.17041 0.16919 0.37412 0.0
C3549 C 0.21894 0.21769 0.38791 0.0
H3550 H 0.15914 0.20648 0.39492 0.0
C3551 C 0.22558 0.19578 0.37752 0.0
C3552 C 0.20799 0.17875 0.37069 0.0
H3553 H 0.23232 0.23181 0.38944 0.0
H3554 H 0.24413 0.1936 0.37178 0.0
C3555 C 0.18434 0.18198 0.3789 0.0
C3556 C 0.06691 0.9289 0.62743 0.0
C3557 C 0.07175 0.95305 0.62194 0.0
H3558 H 0.04122 0.90378 0.64153 0.0
C3559 C 0.05592 0.97076 0.63097 0.0
H3560 H 0.0786 0.91479 0.62076 0.0
C3561 C 0.03363 0.96441 0.64101 0.0
C3562 C 0.02718 0.94017 0.64344 0.0
H3563 H 0.05925 0.9896 0.62717 0.0
H3564 H 0.02047 0.97841 0.64443 0.0
C3565 C 0.04514 0.92263 0.63896 0.0
C3566 C 0.28171 0.78254 0.88969 0.0
C3567 C 0.30588 0.77639 0.89349 0.0
H3568 H 0.25715 0.80785 0.87447 0.0
C3569 C 0.32344 0.79463 0.89069 0.0
H3570 H 0.26772 0.7691 0.89172 0.0
C3571 C 0.31765 0.81645 0.87911 0.0
C3572 C 0.29385 0.82095 0.87198 0.0
H3573 H 0.34216 0.79083 0.89438 0.0
H3574 H 0.33202 0.8284 0.87355 0.0
C3575 C 0.27574 0.80485 0.87965 0.0
C3576 C 0.4319 0.92975 0.36721 0.0
C3577 C 0.42712 0.95375 0.3732 0.0
H3578 H 0.45787 0.90487 0.35332 0.0
C3579 C 0.44289 0.97169 0.36455 0.0
H3580 H 0.42017 0.91553 0.37355 0.0
C3581 C 0.46536 0.96554 0.35491 0.0
C3582 C 0.47182 0.94134 0.35234 0.0
H3583 H 0.43951 0.99044 0.36873 0.0
H3584 H 0.47863 0.97956 0.3521 0.0
C3585 C 0.4538 0.9237 0.35597 0.0
C3586 C 0.31703 0.18238 0.61654 0.0
C3587 C 0.29385 0.178 0.62551 0.0
H3588 H 0.34053 0.20808 0.59994 0.0
C3589 C 0.27531 0.1944 0.61965 0.0
H3590 H 0.33167 0.17012 0.6206 0.0
C3591 C 0.28066 0.21682 0.60955 0.0
C3592 C 0.3045 0.22281 0.60392 0.0
H3593 H 0.25712 0.19135 0.62608 0.0
H3594 H 0.26665 0.2304 0.60881 0.0
C3595 C 0.32208 0.20437 0.60498 0.0
C3596 C 0.06799 0.06583 0.87079 0.0
C3597 C 0.07234 0.0414 0.87531 0.0
H3598 H 0.04242 0.09203 0.85853 0.0
C3599 C 0.05623 0.02437 0.86551 0.0
H3600 H 0.07995 0.07941 0.87806 0.0
C3601 C 0.03397 0.03154 0.85601 0.0
C3602 C 0.02797 0.05598 0.85479 0.0
H3603 H 0.05923 0.00533 0.86853 0.0
H3604 H 0.02049 0.01797 0.8522 0.0
C3605 C 0.04621 0.07301 0.85988 0.0
C3606 C 0.22 0.80903 0.11158 0.0
C3607 C 0.20296 0.82399 0.12301 0.0
H3608 H 0.22722 0.77396 0.09716 0.0
C3609 C 0.17849 0.81852 0.12027 0.0
H3610 H 0.23902 0.8127 0.11361 0.0
C3611 C 0.17165 0.79677 0.10928 0.0
C3612 C 0.18915 0.77951 0.10267 0.0
H3613 H 0.16489 0.82952 0.12891 0.0
H3614 H 0.15281 0.79216 0.10903 0.0
C3615 C 0.21329 0.78668 0.10213 0.0
C3616 C 0.13174 0.44392 0.02379 0.0
C3617 C 0.12435 0.42775 0.04195 0.0
H3618 H 0.14349 0.47976 0.01574 0.0
C3619 C 0.13215 0.43198 0.06552 0.0
H3620 H 0.12642 0.44091 0.00528 0.0
C3621 C 0.14379 0.4538 0.07118 0.0
C3622 C 0.1459 0.47226 0.05375 0.0
H3623 H 0.12717 0.41976 0.07985 0.0
H3624 H 0.14806 0.45739 0.08979 0.0
C3625 C 0.14175 0.46624 0.02967 0.0
C3626 C 0.64314 0.03013 0.96821 0.0
C3627 C 0.6469 0.02516 0.94382 0.0
H3628 H 0.6278 0.05423 0.99388 0.0
C3629 C 0.64444 0.0443 0.92724 0.0
H3630 H 0.64507 0.016 0.9815 0.0
C3631 C 0.63309 0.06597 0.93412 0.0
C3632 C 0.62541 0.06904 0.95787 0.0
H3633 H 0.64809 0.04129 0.90838 0.0
H3634 H 0.628 0.07901 0.92061 0.0
C3635 C 0.63298 0.05208 0.9752 0.0
C3636 C 0.20331 0.39088 0.17507 0.0
C3637 C 0.22126 0.39367 0.19294 0.0
H3638 H 0.16974 0.37365 0.16573 0.0
C3639 C 0.21464 0.38957 0.21691 0.0
H3640 H 0.20739 0.39479 0.15648 0.0
C3641 C 0.19218 0.37942 0.22239 0.0
C3642 C 0.1764 0.37181 0.20398 0.0
H3643 H 0.2278 0.39167 0.23115 0.0
H3644 H 0.18877 0.37421 0.24087 0.0
C3645 C 0.18139 0.37915 0.18036 0.0
C3646 C 0.86679 0.94538 0.47338 0.0
C3647 C 0.87457 0.92882 0.45576 0.0
H3648 H 0.85493 0.98141 0.48045 0.0
C3649 C 0.86789 0.93286 0.43181 0.0
H3650 H 0.87146 0.94259 0.49211 0.0
C3651 C 0.85678 0.95473 0.42537 0.0
C3652 C 0.85387 0.97334 0.44251 0.0
H3653 H 0.87348 0.92048 0.41783 0.0
H3654 H 0.85355 0.95819 0.40651 0.0
C3655 C 0.85717 0.96769 0.4668 0.0
C3656 C 0.80603 0.11385 0.22003 0.0
C3657 C 0.82193 0.12262 0.20228 0.0
H3658 H 0.77087 0.09983 0.22761 0.0
C3659 C 0.81784 0.11587 0.17833 0.0
H3660 H 0.80866 0.11879 0.23867 0.0
C3661 C 0.79653 0.10347 0.17217 0.0
C3662 C 0.77827 0.0995 0.18953 0.0
H3663 H 0.82966 0.12222 0.16419 0.0
H3664 H 0.79304 0.09997 0.15338 0.0
C3665 C 0.78423 0.10289 0.21374 0.0
C3666 C 0.36828 0.55499 0.52482 0.0
C3667 C 0.37596 0.57088 0.54307 0.0
H3668 H 0.35578 0.51947 0.51646 0.0
C3669 C 0.36858 0.56629 0.56673 0.0
H3670 H 0.37354 0.55814 0.50632 0.0
C3671 C 0.35676 0.54455 0.57229 0.0
C3672 C 0.35386 0.52647 0.55459 0.0
H3673 H 0.37413 0.57811 0.58119 0.0
H3674 H 0.35296 0.54066 0.59095 0.0
C3675 C 0.35792 0.53276 0.53055 0.0
C3676 C 0.18159 0.617 0.31581 0.0
C3677 C 0.17806 0.62411 0.29189 0.0
H3678 H 0.20612 0.60141 0.34121 0.0
C3679 C 0.19445 0.61583 0.27433 0.0
H3680 H 0.16932 0.62298 0.32972 0.0
C3681 C 0.21625 0.60508 0.28102 0.0
C3682 C 0.22158 0.6013 0.30534 0.0
H3683 H 0.192 0.62078 0.25563 0.0
H3684 H 0.23002 0.60244 0.26746 0.0
C3685 C 0.20293 0.60487 0.32234 0.0
C3686 C 0.30575 0.38396 0.77448 0.0
C3687 C 0.32176 0.37449 0.79178 0.0
H3688 H 0.27026 0.39771 0.76778 0.0
C3689 C 0.31784 0.38022 0.81601 0.0
H3690 H 0.30852 0.38012 0.75556 0.0
C3691 C 0.29648 0.39216 0.82282 0.0
C3692 C 0.27802 0.39656 0.80579 0.0
H3693 H 0.32983 0.37336 0.82978 0.0
H3694 H 0.29314 0.39491 0.84174 0.0
C3695 C 0.28379 0.39426 0.7814 0.0
C3696 C 0.92801 0.85567 0.54213 0.0
C3697 C 0.94536 0.85554 0.52345 0.0
H3698 H 0.91835 0.87031 0.57679 0.0
C3699 C 0.96901 0.86217 0.52916 0.0
H3700 H 0.90976 0.84987 0.53861 0.0
C3701 C 0.97425 0.87218 0.5516 0.0
C3702 C 0.95579 0.87692 0.56844 0.0
H3703 H 0.98282 0.86221 0.51538 0.0
H3704 H 0.99224 0.87924 0.55447 0.0
C3705 C 0.93292 0.86711 0.56423 0.0
C3706 C 0.87847 0.17962 0.31584 0.0
C3707 C 0.87261 0.20372 0.32039 0.0
H3708 H 0.89221 0.15437 0.29015 0.0
C3709 C 0.88112 0.22137 0.30423 0.0
H3710 H 0.87219 0.16558 0.32781 0.0
C3711 C 0.89079 0.21491 0.28189 0.0
C3712 C 0.89339 0.19064 0.27576 0.0
H3713 H 0.87681 0.24015 0.3072 0.0
H3714 H 0.89357 0.22876 0.26846 0.0
C3715 C 0.88961 0.17325 0.29397 0.0
C3716 C 0.57217 0.14176 0.04346 0.0
C3717 C 0.55461 0.14275 0.02502 0.0
H3718 H 0.58184 0.12623 0.07775 0.0
C3719 C 0.53078 0.13711 0.03112 0.0
H3720 H 0.59054 0.14696 0.03973 0.0
C3721 C 0.52545 0.12714 0.05362 0.0
C3722 C 0.54399 0.12132 0.07005 0.0
H3723 H 0.51675 0.13779 0.01757 0.0
H3724 H 0.50724 0.12081 0.05672 0.0
C3725 C 0.56717 0.13022 0.06551 0.0
C3726 C 0.61563 0.81421 0.81579 0.0
C3727 C 0.62369 0.79059 0.81942 0.0
H3728 H 0.60039 0.83922 0.79052 0.0
C3729 C 0.61715 0.77296 0.80236 0.0
H3730 H 0.62019 0.82816 0.82859 0.0
C3731 C 0.60734 0.77948 0.78011 0.0
C3732 C 0.60289 0.80371 0.77483 0.0
H3733 H 0.62292 0.75449 0.80473 0.0
H3734 H 0.60618 0.76603 0.76606 0.0
C3735 C 0.60452 0.82052 0.79383 0.0
C3736 C 0.93014 0.12974 0.93153 0.0
C3737 C 0.95385 0.12255 0.92668 0.0
H3738 H 0.90603 0.14504 0.95747 0.0
C3739 C 0.97219 0.13007 0.9426 0.0
H3740 H 0.91558 0.12425 0.91977 0.0
C3741 C 0.96659 0.14017 0.96495 0.0
C3742 C 0.94254 0.14408 0.97141 0.0
H3743 H 0.99065 0.12459 0.93948 0.0
H3744 H 0.98078 0.14217 0.97819 0.0
C3745 C 0.9247 0.14131 0.95343 0.0
C3746 C 0.60684 0.21754 0.71623 0.0
C3747 C 0.6027 0.19316 0.72102 0.0
H3748 H 0.62221 0.24323 0.6922 0.0
C3749 C 0.6049 0.17669 0.70176 0.0
H3750 H 0.60515 0.23075 0.73046 0.0
C3751 C 0.6162 0.18358 0.68008 0.0
C3752 C 0.62411 0.20729 0.6771 0.0
H3753 H 0.60096 0.15786 0.70464 0.0
H3754 H 0.62096 0.17007 0.66691 0.0
C3755 C 0.61691 0.22458 0.69427 0.0
C3756 C 0.53269 0.85631 0.46293 0.0
C3757 C 0.55685 0.85357 0.4696 0.0
H3758 H 0.50816 0.87054 0.43706 0.0
C3759 C 0.57469 0.85705 0.45177 0.0
H3760 H 0.51851 0.85369 0.47605 0.0
C3761 C 0.56894 0.86838 0.42986 0.0
C3762 C 0.54497 0.87452 0.42485 0.0
H3763 H 0.59345 0.85414 0.456 0.0
H3764 H 0.58334 0.87457 0.41825 0.0
C3765 C 0.52683 0.86606 0.44048 0.0
C3766 C 0.8811 0.77287 0.19551 0.0
C3767 C 0.87356 0.79009 0.17841 0.0
H3768 H 0.89293 0.76674 0.23168 0.0
C3769 C 0.88063 0.81405 0.18162 0.0
H3770 H 0.8762 0.75412 0.19333 0.0
C3771 C 0.8919 0.82096 0.20325 0.0
C3772 C 0.89457 0.80439 0.22237 0.0
H3773 H 0.87529 0.82772 0.16877 0.0
H3774 H 0.89541 0.8398 0.20624 0.0
C3775 C 0.89094 0.77999 0.21751 0.0
C3776 C 0.5451 0.9256 0.85759 0.0
C3777 C 0.52663 0.94283 0.85404 0.0
H3778 H 0.57903 0.91801 0.87506 0.0
C3779 C 0.53254 0.96713 0.85699 0.0
H3780 H 0.54157 0.90675 0.8545 0.0
C3781 C 0.55485 0.97369 0.86679 0.0
C3782 C 0.57115 0.95608 0.87526 0.0
H3783 H 0.51898 0.9809 0.85424 0.0
H3784 H 0.55779 0.9925 0.87105 0.0
C3785 C 0.56689 0.93203 0.86898 0.0
C3786 C 0.80232 0.81389 0.61467 0.0
C3787 C 0.79995 0.81675 0.63981 0.0
H3788 H 0.80894 0.78894 0.58541 0.0
C3789 C 0.80419 0.79682 0.65454 0.0
H3790 H 0.79874 0.82889 0.60276 0.0
C3791 C 0.8069 0.77409 0.64479 0.0
C3792 C 0.80859 0.77041 0.61972 0.0
H3793 H 0.80263 0.79829 0.67393 0.0
H3794 H 0.80776 0.75935 0.65746 0.0
C3795 C 0.80734 0.79089 0.60472 0.0
C3796 C 0.942 0.026 0.36499 0.0
C3797 C 0.92594 0.04407 0.37282 0.0
H3798 H 0.97746 0.01806 0.35194 0.0
C3799 C 0.93004 0.06775 0.36515 0.0
H3800 H 0.93929 0.00751 0.37056 0.0
C3801 C 0.95149 0.07353 0.35285 0.0
C3802 C 0.96983 0.05609 0.34981 0.0
H3803 H 0.9181 0.08209 0.37081 0.0
H3804 H 0.9551 0.09224 0.34898 0.0
C3805 C 0.96393 0.03196 0.35408 0.0
C3806 C 0.68531 0.20734 0.10745 0.0
C3807 C 0.69702 0.22915 0.11372 0.0
H3808 H 0.68203 0.169 0.1142 0.0
C3809 C 0.71561 0.22799 0.13073 0.0
H3810 H 0.67078 0.20742 0.09445 0.0
C3811 C 0.7208 0.2068 0.14283 0.0
C3812 C 0.70861 0.18508 0.13777 0.0
H3813 H 0.72526 0.24408 0.13607 0.0
H3814 H 0.73476 0.2078 0.1564 0.0
C3815 C 0.69133 0.18538 0.11916 0.0
C3816 C 0.53207 0.03012 0.63978 0.0
C3817 C 0.52616 0.05447 0.64242 0.0
H3818 H 0.55735 0.00453 0.62616 0.0
C3819 C 0.54468 0.0716 0.63874 0.0
H3820 H 0.51851 0.01642 0.64272 0.0
C3821 C 0.56645 0.065 0.62739 0.0
C3822 C 0.57071 0.04087 0.62142 0.0
H3823 H 0.54123 0.09047 0.64175 0.0
H3824 H 0.57856 0.07894 0.62113 0.0
C3825 C 0.55441 0.0234 0.63014 0.0
C3826 C 0.68127 0.81597 0.37952 0.0
C3827 C 0.70514 0.82033 0.37254 0.0
H3828 H 0.65656 0.79058 0.39484 0.0
C3829 C 0.72313 0.80415 0.38037 0.0
H3830 H 0.66697 0.82797 0.37382 0.0
C3831 C 0.71705 0.78202 0.39069 0.0
C3832 C 0.69286 0.77601 0.39449 0.0
H3833 H 0.74174 0.80702 0.37526 0.0
H3834 H 0.73102 0.76858 0.39304 0.0
C3835 C 0.67534 0.79426 0.39126 0.0
C3836 C 0.93129 0.92992 0.12812 0.0
C3837 C 0.92663 0.95377 0.12135 0.0
H3838 H 0.957 0.90535 0.14314 0.0
C3839 C 0.94251 0.97184 0.12952 0.0
H3840 H 0.91951 0.91557 0.12217 0.0
C3841 C 0.96486 0.96585 0.1396 0.0
C3842 C 0.97119 0.94171 0.14305 0.0
H3843 H 0.93928 0.99048 0.12474 0.0
H3844 H 0.97817 0.97989 0.14207 0.0
C3845 C 0.95309 0.92409 0.13978 0.0
C3846 C 0.77986 0.21793 0.8871 0.0
C3847 C 0.80377 0.22325 0.89307 0.0
H3848 H 0.75573 0.19321 0.8704 0.0
C3849 C 0.8209 0.20437 0.89193 0.0
H3850 H 0.76618 0.23185 0.88785 0.0
C3851 C 0.81534 0.18255 0.8802 0.0
C3852 C 0.79209 0.17878 0.8711 0.0
H3853 H 0.83937 0.20753 0.89723 0.0
H3854 H 0.82964 0.16987 0.87628 0.0
C3855 C 0.77401 0.19575 0.87682 0.0
C3856 C 0.86903 0.56676 0.92959 0.0
C3857 C 0.87563 0.57126 0.9535 0.0
H3858 H 0.85413 0.54121 0.90484 0.0
C3859 C 0.86736 0.55531 0.97144 0.0
H3860 H 0.87508 0.5786 0.91535 0.0
C3861 C 0.85706 0.53318 0.96536 0.0
C3862 C 0.85372 0.52698 0.9412 0.0
H3863 H 0.87221 0.55828 0.99008 0.0
H3864 H 0.85442 0.51986 0.97935 0.0
C3865 C 0.85732 0.54506 0.92362 0.0
C3866 C 0.37052 0.94497 0.02247 0.0
C3867 C 0.37683 0.92817 0.04048 0.0
H3868 H 0.35977 0.98121 0.01466 0.0
C3869 C 0.36863 0.93238 0.06394 0.0
H3870 H 0.37625 0.94211 0.00405 0.0
C3871 C 0.35766 0.95456 0.06973 0.0
C3872 C 0.35616 0.97328 0.05249 0.0
H3873 H 0.37279 0.9197 0.07813 0.0
H3874 H 0.35321 0.95806 0.08832 0.0
C3875 C 0.36091 0.96748 0.02845 0.0
C3876 C 0.79389 0.60731 0.82331 0.0
C3877 C 0.77585 0.60315 0.80578 0.0
H3878 H 0.82758 0.62508 0.83107 0.0
C3879 C 0.78233 0.60513 0.78155 0.0
H3880 H 0.78997 0.60477 0.84215 0.0
C3881 C 0.80483 0.61457 0.77518 0.0
C3882 C 0.82065 0.6237 0.79285 0.0
H3883 H 0.76914 0.60177 0.76759 0.0
H3884 H 0.80831 0.618 0.7563 0.0
C3885 C 0.8158 0.61847 0.81701 0.0
C3886 C 0.13709 0.06398 0.56786 0.0
C3887 C 0.13095 0.06901 0.544 0.0
H3888 H 0.14999 0.03733 0.59238 0.0
C3889 C 0.13874 0.05306 0.52585 0.0
H3890 H 0.13154 0.07596 0.5822 0.0
C3891 C 0.1468 0.02997 0.53176 0.0
C3892 C 0.14911 0.02335 0.5559 0.0
H3893 H 0.13456 0.05679 0.50716 0.0
H3894 H 0.14849 0.01662 0.51768 0.0
C3895 C 0.14716 0.04152 0.57362 0.0
C3896 C 0.21508 0.89156 0.78135 0.0
C3897 C 0.22138 0.89416 0.8056 0.0
H3898 H 0.18962 0.87749 0.75618 0.0
C3899 C 0.20327 0.89013 0.82305 0.0
H3900 H 0.2284 0.8946 0.76743 0.0
C3901 C 0.18151 0.87863 0.81679 0.0
C3902 C 0.17691 0.87269 0.79271 0.0
H3903 H 0.20717 0.89282 0.84188 0.0
H3904 H 0.16972 0.87216 0.8309 0.0
C3905 C 0.19279 0.88158 0.77498 0.0
C3906 C 0.6142 0.45384 0.47306 0.0
C3907 C 0.61463 0.43373 0.45754 0.0
H3908 H 0.62339 0.49057 0.47888 0.0
C3909 C 0.62968 0.43474 0.43723 0.0
H3910 H 0.60374 0.45365 0.48951 0.0
C3911 C 0.64158 0.4565 0.43127 0.0
C3912 C 0.63855 0.4774 0.44558 0.0
H3913 H 0.63107 0.41941 0.42529 0.0
H3914 H 0.65134 0.45753 0.41446 0.0
C3915 C 0.62604 0.47509 0.46732 0.0
C3916 C 0.78312 0.39149 0.71551 0.0
C3917 C 0.77711 0.39379 0.69117 0.0
H3918 H 0.80845 0.3779 0.74107 0.0
C3919 C 0.79545 0.38983 0.67393 0.0
H3920 H 0.76962 0.39458 0.72924 0.0
C3921 C 0.81722 0.37858 0.68053 0.0
C3922 C 0.82154 0.37288 0.70469 0.0
H3923 H 0.79177 0.39235 0.65502 0.0
H3924 H 0.82921 0.37204 0.66662 0.0
C3925 C 0.80544 0.38181 0.7222 0.0
C3926 C 0.70518 0.604 0.17408 0.0
C3927 C 0.72309 0.60103 0.19196 0.0
H3928 H 0.67144 0.62105 0.16515 0.0
C3929 C 0.71629 0.60386 0.21603 0.0
H3930 H 0.70945 0.60092 0.15537 0.0
C3931 C 0.69355 0.6132 0.22173 0.0
C3932 C 0.67791 0.62144 0.20346 0.0
H3933 H 0.72942 0.60149 0.23025 0.0
H3934 H 0.68988 0.6176 0.24037 0.0
C3935 C 0.68307 0.6151 0.17963 0.0
C3936 C 0.53337 0.64047 0.96441 0.0
C3937 C 0.55754 0.64251 0.97131 0.0
H3938 H 0.50861 0.62755 0.93798 0.0
C3939 C 0.57545 0.63849 0.95364 0.0
H3940 H 0.51915 0.6436 0.97738 0.0
C3941 C 0.56956 0.62754 0.93158 0.0
C3942 C 0.54546 0.6223 0.92622 0.0
H3943 H 0.59427 0.64085 0.95799 0.0
H3944 H 0.58388 0.62097 0.92008 0.0
C3945 C 0.52742 0.63119 0.94175 0.0
C3946 C 0.6051 0.28191 0.21574 0.0
C3947 C 0.60307 0.30605 0.22259 0.0
H3948 H 0.61753 0.25719 0.18909 0.0
C3949 C 0.60636 0.32388 0.20473 0.0
H3950 H 0.60254 0.26774 0.22887 0.0
C3951 C 0.61665 0.31798 0.18235 0.0
C3952 C 0.62195 0.29395 0.17695 0.0
H3953 H 0.60404 0.34267 0.20909 0.0
H3954 H 0.6228 0.33228 0.17062 0.0
C3955 C 0.61373 0.27594 0.19284 0.0
C3956 C 0.9745 0.37338 0.4464 0.0
C3957 C 0.95647 0.3783 0.42915 0.0
H3958 H 0.98223 0.36281 0.48262 0.0
C3959 C 0.93344 0.36862 0.43273 0.0
H3960 H 0.99261 0.38028 0.44396 0.0
C3961 C 0.92793 0.35705 0.45463 0.0
C3962 C 0.94492 0.35645 0.47365 0.0
H3963 H 0.91922 0.37194 0.41979 0.0
H3964 H 0.90954 0.35142 0.45769 0.0
C3965 C 0.96871 0.36306 0.46856 0.0
C3966 C 0.88527 0.68055 0.68309 0.0
C3967 C 0.87767 0.70403 0.67817 0.0
H3968 H 0.89966 0.65671 0.7097 0.0
C3969 C 0.88392 0.72248 0.69446 0.0
H3970 H 0.88069 0.66596 0.67101 0.0
C3971 C 0.8925 0.71691 0.71741 0.0
C3972 C 0.89653 0.69293 0.72379 0.0
H3973 H 0.87832 0.74084 0.69101 0.0
H3974 H 0.89312 0.73094 0.73092 0.0
C3975 C 0.8957 0.67527 0.70552 0.0
C3976 C 0.52704 0.36494 0.55505 0.0
C3977 C 0.54454 0.37418 0.57098 0.0
H3978 H 0.51996 0.35092 0.51983 0.0
C3979 C 0.56875 0.3683 0.56686 0.0
H3980 H 0.50819 0.36911 0.5578 0.0
C3981 C 0.57536 0.35622 0.54555 0.0
C3982 C 0.55811 0.35174 0.5273 0.0
H3983 H 0.58269 0.37506 0.5787 0.0
H3984 H 0.59429 0.35327 0.54215 0.0
C3985 C 0.53373 0.35441 0.53318 0.0
C3986 C 0.88153 0.31401 0.81542 0.0
C3987 C 0.87342 0.29044 0.81915 0.0
H3988 H 0.89718 0.33876 0.79031 0.0
C3989 C 0.88007 0.27263 0.80231 0.0
H3990 H 0.87691 0.3281 0.82806 0.0
C3991 C 0.89005 0.27892 0.78011 0.0
C3992 C 0.89465 0.30306 0.77469 0.0
H3993 H 0.87426 0.2542 0.8048 0.0
H3994 H 0.89141 0.26531 0.76621 0.0
C3995 C 0.89286 0.32009 0.79355 0.0
C3996 C 0.96563 0.64362 0.03357 0.0
C3997 C 0.9412 0.64445 0.02734 0.0
H3998 H 0.9918 0.63136 0.05897 0.0
C3999 C 0.92403 0.63907 0.04535 0.0
H4000 H 0.9793 0.64773 0.02029 0.0
C4001 C 0.93112 0.62792 0.06696 0.0
C4002 C 0.9556 0.62377 0.07149 0.0
H4003 H 0.90501 0.64036 0.04146 0.0
H4004 H 0.9175 0.62028 0.07864 0.0
C4005 C 0.97271 0.63408 0.05579 0.0
C4006 C 0.60849 0.67704 0.29233 0.0
C4007 C 0.60824 0.69402 0.27331 0.0
H4008 H 0.62247 0.66844 0.32758 0.0
C4009 C 0.61438 0.71783 0.27864 0.0
H4010 H 0.6031 0.65863 0.28911 0.0
C4011 C 0.62383 0.72371 0.30119 0.0
C4012 C 0.62859 0.70572 0.31853 0.0
H4013 H 0.61424 0.73139 0.26463 0.0
H4014 H 0.6304 0.74188 0.30387 0.0
C4015 C 0.61933 0.68262 0.31459 0.0
C4016 C 0.93368 0.55281 0.63266 0.0
C4017 C 0.93336 0.54627 0.60809 0.0
H4018 H 0.95565 0.5641 0.6629 0.0
C4019 C 0.95531 0.54621 0.59558 0.0
H4020 H 0.91715 0.55273 0.64301 0.0
C4021 C 0.97697 0.55012 0.60726 0.0
C4022 C 0.9779 0.55663 0.63171 0.0
H4023 H 0.95607 0.54159 0.57666 0.0
H4024 H 0.99313 0.54844 0.59654 0.0
C4025 C 0.95579 0.5586 0.64422 0.0
C4026 C 0.68261 0.68265 0.88046 0.0
C4027 C 0.70456 0.67957 0.86835 0.0
H4028 H 0.66004 0.7073 0.89993 0.0
C4029 C 0.72253 0.69728 0.87116 0.0
H4030 H 0.66854 0.66923 0.87898 0.0
C4031 C 0.71743 0.71929 0.88202 0.0
C4032 C 0.69443 0.72395 0.89122 0.0
H4033 H 0.73993 0.6952 0.86252 0.0
H4034 H 0.73069 0.73355 0.88087 0.0
C4035 C 0.67781 0.70459 0.8924 0.0
C4036 C 0.5672 0.43027 0.13059 0.0
C4037 C 0.57196 0.45385 0.12307 0.0
H4038 H 0.5413 0.40627 0.14612 0.0
C4039 C 0.55592 0.47222 0.13031 0.0
H4040 H 0.57912 0.41572 0.12541 0.0
C4041 C 0.53341 0.46661 0.1402 0.0
C4042 C 0.52703 0.4426 0.1444 0.0
H4043 H 0.55923 0.49068 0.12498 0.0
H4044 H 0.52006 0.48074 0.14198 0.0
C4045 C 0.54522 0.42488 0.14208 0.0
C4046 C 0.77379 0.30333 0.37553 0.0
C4047 C 0.79237 0.31961 0.36957 0.0
H4048 H 0.76498 0.26752 0.3868 0.0
C4049 C 0.81554 0.31518 0.37858 0.0
H4050 H 0.75561 0.30639 0.36906 0.0
C4051 C 0.8205 0.29332 0.39045 0.0
C4052 C 0.80284 0.27499 0.39176 0.0
H4053 H 0.83022 0.3273 0.37437 0.0
H4054 H 0.83891 0.28958 0.3956 0.0
C4055 C 0.77904 0.28102 0.38594 0.0
C4056 C 0.93231 0.43109 0.86934 0.0
C4057 C 0.92798 0.4549 0.87639 0.0
H4058 H 0.95789 0.40631 0.85447 0.0
C4059 C 0.94442 0.47279 0.86894 0.0
H4060 H 0.92002 0.41691 0.87464 0.0
C4061 C 0.96685 0.46657 0.85926 0.0
C4062 C 0.97279 0.44239 0.85553 0.0
H4063 H 0.94147 0.49139 0.87394 0.0
H4064 H 0.98045 0.4804 0.85726 0.0
C4065 C 0.95429 0.42505 0.85814 0.0
C4066 C 0.77571 0.69241 0.11905 0.0
C4067 C 0.79394 0.67607 0.12594 0.0
H4068 H 0.76752 0.72817 0.10717 0.0
C4069 C 0.8175 0.68034 0.11794 0.0
H4070 H 0.7573 0.68956 0.12487 0.0
C4071 C 0.82305 0.70213 0.10619 0.0
C4072 C 0.80553 0.72053 0.10399 0.0
H4073 H 0.83194 0.66817 0.12284 0.0
H4074 H 0.84169 0.70575 0.10187 0.0
C4075 C 0.78148 0.71461 0.10872 0.0
C4076 C 0.55487 0.52405 0.36181 0.0
C4077 C 0.57109 0.54166 0.37032 0.0
H4078 H 0.51856 0.51678 0.35067 0.0
C4079 C 0.56639 0.56581 0.36492 0.0
H4080 H 0.55823 0.50517 0.36545 0.0
C4081 C 0.54413 0.57229 0.35465 0.0
C4082 C 0.52579 0.55492 0.35142 0.0
H4083 H 0.57848 0.57979 0.37112 0.0
H4084 H 0.54016 0.59119 0.3525 0.0
C4085 C 0.53208 0.53061 0.35321 0.0
C4086 C 0.72307 0.30436 0.61651 0.0
C4087 C 0.70511 0.32073 0.62397 0.0
H4088 H 0.73066 0.2685 0.60449 0.0
C4089 C 0.68132 0.31664 0.61658 0.0
H4090 H 0.74165 0.30711 0.62184 0.0
C4091 C 0.67533 0.29495 0.60493 0.0
C4092 C 0.69263 0.27644 0.60233 0.0
H4093 H 0.66707 0.32882 0.62198 0.0
H4094 H 0.6566 0.29137 0.60114 0.0
C4095 C 0.71686 0.28217 0.60637 0.0
C4096 C 0.6419 0.96595 0.52876 0.0
C4097 C 0.64603 0.97167 0.55292 0.0
H4098 H 0.62629 0.94111 0.50404 0.0
C4099 C 0.64357 0.95312 0.57011 0.0
H4100 H 0.64376 0.97964 0.515 0.0
C4101 C 0.63165 0.9315 0.56422 0.0
C4102 C 0.62399 0.92753 0.54054 0.0
H4103 H 0.64769 0.95677 0.5887 0.0
H4104 H 0.62629 0.91931 0.57844 0.0
C4105 C 0.63162 0.94382 0.5226 0.0
C4106 C 0.14424 0.54242 0.42444 0.0
C4107 C 0.14581 0.52394 0.44191 0.0
H4108 H 0.12948 0.57733 0.41609 0.0
C4109 C 0.14242 0.5301 0.46606 0.0
H4110 H 0.14755 0.53852 0.40568 0.0
C4111 C 0.13393 0.55299 0.47213 0.0
C4112 C 0.12738 0.56962 0.4541 0.0
H4113 H 0.14366 0.51648 0.47994 0.0
H4114 H 0.12892 0.55626 0.49067 0.0
C4115 C 0.13426 0.56492 0.43035 0.0
C4116 C 0.70158 0.89135 0.67303 0.0
C4117 C 0.71998 0.89714 0.6897 0.0
H4118 H 0.66858 0.87162 0.66723 0.0
C4119 C 0.71445 0.89566 0.71422 0.0
H4120 H 0.70477 0.89319 0.65396 0.0
C4121 C 0.69284 0.88508 0.7218 0.0
C4122 C 0.67684 0.87458 0.70509 0.0
H4123 H 0.72799 0.90007 0.72756 0.0
H4124 H 0.69036 0.88199 0.74089 0.0
C4125 C 0.6805 0.87933 0.68059 0.0
C4126 C 0.35829 0.45233 0.92552 0.0
C4127 C 0.35425 0.4711 0.94215 0.0
H4128 H 0.37623 0.41846 0.91905 0.0
C4129 C 0.35681 0.46585 0.96665 0.0
H4130 H 0.35573 0.45563 0.9066 0.0
C4131 C 0.3668 0.44388 0.97394 0.0
C4132 C 0.37572 0.42728 0.95689 0.0
H4133 H 0.35384 0.47974 0.97999 0.0
H4134 H 0.37082 0.44149 0.99288 0.0
C4135 C 0.36977 0.43084 0.93265 0.0
C4136 C 0.30425 0.61654 0.72085 0.0
C4137 C 0.32042 0.62371 0.7026 0.0
H4138 H 0.26825 0.60523 0.72918 0.0
C4139 C 0.31564 0.61646 0.67896 0.0
H4140 H 0.30762 0.62164 0.73937 0.0
C4141 C 0.29353 0.60528 0.67342 0.0
C4142 C 0.27526 0.60305 0.69106 0.0
H4143 H 0.32769 0.62155 0.66451 0.0
H4144 H 0.28965 0.60136 0.65478 0.0
C4145 C 0.28163 0.607 0.7151 0.0
C4146 C 0.86876 0.05417 0.02452 0.0
C4147 C 0.87601 0.07027 0.04278 0.0
H4148 H 0.85682 0.01849 0.01604 0.0
C4149 C 0.86857 0.06551 0.0664 0.0
H4150 H 0.87419 0.05733 0.00607 0.0
C4151 C 0.8569 0.04361 0.07183 0.0
C4152 C 0.85438 0.02546 0.05414 0.0
H4153 H 0.87381 0.0774 0.08091 0.0
H4154 H 0.85275 0.03976 0.09042 0.0
C4155 C 0.85868 0.03179 0.03015 0.0
C4156 C 0.69297 0.11324 0.77463 0.0
C4157 C 0.67689 0.12341 0.79148 0.0
H4158 H 0.72863 0.09956 0.76849 0.0
C4159 C 0.68116 0.11917 0.81597 0.0
H4160 H 0.69004 0.11602 0.75555 0.0
C4161 C 0.7028 0.10807 0.82331 0.0
C4162 C 0.7211 0.10268 0.80644 0.0
H4163 H 0.66923 0.12671 0.82943 0.0
H4164 H 0.70645 0.10673 0.84231 0.0
C4165 C 0.71515 0.10364 0.78198 0.0
C4166 C 0.81666 0.88035 0.31602 0.0
C4167 C 0.82103 0.87511 0.29179 0.0
H4168 H 0.79099 0.89333 0.34166 0.0
C4169 C 0.80491 0.88422 0.27437 0.0
H4170 H 0.82872 0.87372 0.32984 0.0
C4171 C 0.78245 0.89344 0.28114 0.0
C4172 C 0.77642 0.89518 0.30549 0.0
H4173 H 0.80805 0.88075 0.25544 0.0
H4174 H 0.76891 0.89651 0.26743 0.0
C4175 C 0.79476 0.89122 0.32272 0.0
C4176 C 0.42433 0.35669 0.04712 0.0
C4177 C 0.44196 0.35257 0.02925 0.0
H4178 H 0.41624 0.37511 0.08026 0.0
C4179 C 0.46623 0.35471 0.03582 0.0
H4180 H 0.4055 0.35425 0.04298 0.0
C4181 C 0.47246 0.36456 0.05814 0.0
C4182 C 0.45458 0.37388 0.07359 0.0
H4183 H 0.48027 0.35156 0.02266 0.0
H4184 H 0.49131 0.36845 0.06153 0.0
C4185 C 0.43045 0.36826 0.06878 0.0
C4186 C 0.39046 0.67615 0.79186 0.0
C4187 C 0.39299 0.69319 0.77307 0.0
H4188 H 0.37427 0.66864 0.82637 0.0
C4189 C 0.38941 0.71747 0.77858 0.0
H4190 H 0.39414 0.65735 0.78859 0.0
C4191 C 0.38005 0.7241 0.80097 0.0
C4192 C 0.37264 0.70652 0.81778 0.0
H4193 H 0.39144 0.73108 0.76477 0.0
H4194 H 0.37547 0.74286 0.80377 0.0
C4195 C 0.37948 0.68259 0.81379 0.0
C4196 C 0.03846 0.59865 0.54062 0.0
C4197 C 0.04265 0.61176 0.56183 0.0
H4198 H 0.03826 0.59748 0.50275 0.0
C4199 C 0.05241 0.63507 0.55979 0.0
H4200 H 0.03129 0.58053 0.5411 0.0
C4201 C 0.05767 0.64481 0.53682 0.0
C4202 C 0.05241 0.63168 0.51563 0.0
H4203 H 0.05557 0.64581 0.57573 0.0
H4204 H 0.06592 0.66242 0.53563 0.0
C4205 C 0.04234 0.60863 0.5182 0.0
C4206 C 0.1178 0.31537 0.31501 0.0
C4207 C 0.12433 0.29133 0.31893 0.0
H4208 H 0.10317 0.34083 0.28997 0.0
C4209 C 0.11623 0.27382 0.30241 0.0
H4210 H 0.12365 0.32927 0.32735 0.0
C4211 C 0.10627 0.28053 0.2803 0.0
C4212 C 0.103 0.30487 0.27473 0.0
H4213 H 0.12074 0.25503 0.30511 0.0
H4214 H 0.1037 0.26691 0.26661 0.0
C4215 C 0.10638 0.32195 0.29332 0.0
C4216 C 0.42428 0.63996 0.45302 0.0
C4217 C 0.44176 0.64385 0.47117 0.0
H4218 H 0.41641 0.62209 0.41946 0.0
C4219 C 0.46604 0.64073 0.46514 0.0
H4220 H 0.40541 0.64299 0.45673 0.0
C4221 C 0.47238 0.6304 0.44311 0.0
C4222 C 0.4546 0.62197 0.42704 0.0
H4223 H 0.47995 0.64362 0.47851 0.0
H4224 H 0.49112 0.62577 0.44026 0.0
C4225 C 0.43054 0.62828 0.43139 0.0
C4226 C 0.11745 0.72227 0.19208 0.0
C4227 C 0.12551 0.70446 0.17584 0.0
H4228 H 0.10559 0.72981 0.228 0.0
C4229 C 0.11869 0.68057 0.18014 0.0
H4230 H 0.12212 0.74097 0.18911 0.0
C4231 C 0.10745 0.67441 0.20205 0.0
C4232 C 0.10459 0.69173 0.22049 0.0
H4233 H 0.12424 0.66646 0.16791 0.0
H4234 H 0.10402 0.65563 0.20567 0.0
C4235 C 0.10784 0.71596 0.21447 0.0
C4236 C 0.03328 0.35464 0.96408 0.0
C4237 C 0.05744 0.35298 0.97108 0.0
H4238 H 0.00852 0.36718 0.93746 0.0
C4239 C 0.07536 0.35665 0.95338 0.0
H4240 H 0.01904 0.35175 0.97709 0.0
C4241 C 0.06949 0.36742 0.93125 0.0
C4242 C 0.0454 0.37269 0.92593 0.0
H4243 H 0.09415 0.35449 0.95788 0.0
H4244 H 0.08382 0.37405 0.9198 0.0
C4245 C 0.02734 0.3636 0.9413 0.0
C4246 C 0.39072 0.27968 0.71657 0.0
C4247 C 0.395 0.30382 0.72228 0.0
H4248 H 0.37564 0.25498 0.69139 0.0
C4249 C 0.39329 0.32097 0.70351 0.0
H4250 H 0.39206 0.26596 0.73036 0.0
C4251 C 0.38226 0.31498 0.68144 0.0
C4252 C 0.37435 0.29139 0.67744 0.0
H4253 H 0.3975 0.33963 0.70693 0.0
H4254 H 0.37778 0.32909 0.66877 0.0
C4255 C 0.38113 0.27349 0.69415 0.0
C4256 C 0.0666 0.42965 0.36733 0.0
C4257 C 0.07127 0.45347 0.37412 0.0
H4258 H 0.04097 0.40523 0.35205 0.0
C4259 C 0.05548 0.47162 0.36592 0.0
H4260 H 0.07838 0.41526 0.37323 0.0
C4261 C 0.03311 0.46574 0.35584 0.0
C4262 C 0.02671 0.44162 0.35244 0.0
H4263 H 0.05879 0.49025 0.37063 0.0
H4264 H 0.01987 0.47984 0.3533 0.0
C4265 C 0.04483 0.42394 0.3556 0.0
C4266 C 0.27719 0.30677 0.11646 0.0
C4267 C 0.29494 0.32248 0.1256 0.0
H4268 H 0.26954 0.27127 0.10336 0.0
C4269 C 0.31912 0.31765 0.12013 0.0
H4270 H 0.25833 0.31006 0.12033 0.0
C4271 C 0.3254 0.2959 0.10872 0.0
C4272 C 0.30783 0.278 0.10436 0.0
H4273 H 0.33325 0.32927 0.1269 0.0
H4274 H 0.34428 0.29184 0.10639 0.0
C4275 C 0.28354 0.28445 0.10661 0.0
C4276 C 0.44332 0.52497 0.8637 0.0
C4277 C 0.42733 0.54237 0.87309 0.0
H4278 H 0.47924 0.51797 0.85117 0.0
C4279 C 0.43184 0.56664 0.86808 0.0
H4280 H 0.44011 0.50601 0.867 0.0
C4281 C 0.45371 0.57335 0.85718 0.0
C4282 C 0.47197 0.55607 0.85296 0.0
H4283 H 0.41992 0.58047 0.87494 0.0
H4284 H 0.45751 0.5923 0.85517 0.0
C4285 C 0.4658 0.53173 0.85451 0.0
C4286 C 0.18083 0.68181 0.61734 0.0
C4287 C 0.20441 0.67717 0.62502 0.0
H4288 H 0.15669 0.70778 0.60217 0.0
C4289 C 0.22276 0.6934 0.61825 0.0
H4290 H 0.16632 0.6697 0.62217 0.0
C4291 C 0.21706 0.71595 0.60864 0.0
C4292 C 0.193 0.72216 0.60432 0.0
H4293 H 0.24124 0.69013 0.62372 0.0
H4294 H 0.23111 0.72941 0.60722 0.0
C4295 C 0.17535 0.70389 0.60619 0.0
C4296 C 0.04562 0.5698 0.14201 0.0
C4297 C 0.02666 0.55295 0.14396 0.0
H4298 H 0.08 0.57756 0.12545 0.0
C4299 C 0.03191 0.52874 0.13942 0.0
H4300 H 0.04236 0.58844 0.1464 0.0
C4301 C 0.05401 0.5223 0.12916 0.0
C4302 C 0.07075 0.54005 0.12206 0.0
H4303 H 0.01791 0.51525 0.14094 0.0
H4304 H 0.05642 0.50379 0.12348 0.0
C4305 C 0.06731 0.5636 0.1303 0.0
C4306 C 0.19341 0.29126 0.89373 0.0
C4307 C 0.18904 0.27175 0.87808 0.0
H4308 H 0.20488 0.32845 0.89604 0.0
C4309 C 0.18736 0.27674 0.85326 0.0
H4310 H 0.19471 0.28828 0.91294 0.0
C4311 C 0.18891 0.2999 0.84442 0.0
C4312 C 0.1969 0.31854 0.85914 0.0
H4313 H 0.18462 0.26271 0.84011 0.0
H4314 H 0.18762 0.30243 0.82511 0.0
C4315 C 0.19829 0.31445 0.8842 0.0
C4316 C 0.4651 0.46626 0.63971 0.0
C4317 C 0.47136 0.44206 0.64287 0.0
H4318 H 0.43974 0.4911 0.62496 0.0
C4319 C 0.45323 0.42453 0.63927 0.0
H4320 H 0.47844 0.48022 0.64239 0.0
C4321 C 0.43146 0.43057 0.62764 0.0
C4322 C 0.42689 0.45452 0.62118 0.0
H4323 H 0.45709 0.40574 0.64241 0.0
H4324 H 0.41962 0.41634 0.62152 0.0
C4325 C 0.44283 0.47242 0.62958 0.0
C4326 C 0.29852 0.6823 0.38605 0.0
C4327 C 0.30355 0.67541 0.36209 0.0
H4328 H 0.29899 0.71126 0.41215 0.0
C4329 C 0.31555 0.69161 0.34723 0.0
H4330 H 0.2886 0.67029 0.39778 0.0
C4331 C 0.3177 0.71544 0.35401 0.0
C4332 C 0.31211 0.72323 0.37747 0.0
H4333 H 0.31917 0.68701 0.32861 0.0
H4334 H 0.32268 0.72795 0.34004 0.0
C4335 C 0.3036 0.70598 0.39398 0.0
C4336 C 0.35864 0.04433 0.42548 0.0
C4337 C 0.35662 0.02578 0.44283 0.0
H4338 H 0.37479 0.0786 0.41688 0.0
C4339 C 0.36121 0.03167 0.46689 0.0
H4340 H 0.35431 0.04081 0.40687 0.0
C4341 C 0.37099 0.05412 0.47286 0.0
C4342 C 0.37778 0.07067 0.4548 0.0
H4343 H 0.35968 0.01806 0.48076 0.0
H4344 H 0.37648 0.05709 0.49133 0.0
C4345 C 0.36998 0.06631 0.43121 0.0
C4346 C 0.86483 0.44508 0.5248 0.0
C4347 C 0.87285 0.42823 0.54206 0.0
H4348 H 0.85164 0.48078 0.51844 0.0
C4349 C 0.86567 0.43142 0.56601 0.0
H4350 H 0.86978 0.44295 0.50606 0.0
C4351 C 0.85364 0.45272 0.57284 0.0
C4352 C 0.85033 0.47174 0.55618 0.0
H4353 H 0.87139 0.4188 0.57972 0.0
H4354 H 0.84989 0.45546 0.59172 0.0
C4355 C 0.85421 0.46681 0.5318 0.0
C4356 C 0.31736 0.11567 0.31372 0.0
C4357 C 0.32054 0.12355 0.29 0.0
H4358 H 0.2925 0.10085 0.33936 0.0
C4359 C 0.30351 0.11623 0.27261 0.0
H4360 H 0.33047 0.12038 0.32732 0.0
C4361 C 0.28153 0.10601 0.27945 0.0
C4362 C 0.27641 0.1021 0.30379 0.0
H4363 H 0.30563 0.12163 0.254 0.0
H4364 H 0.26745 0.10413 0.26607 0.0
C4365 C 0.29553 0.10451 0.3205 0.0
C4366 C 0.64034 0.53156 0.03253 0.0
C4367 C 0.64465 0.52534 0.05655 0.0
H4368 H 0.62488 0.55711 0.00837 0.0
C4369 C 0.64213 0.54351 0.07422 0.0
H4370 H 0.64217 0.5182 0.01846 0.0
C4371 C 0.6306 0.56543 0.0687 0.0
C4372 C 0.62309 0.57005 0.04509 0.0
H4373 H 0.64606 0.53963 0.09287 0.0
H4374 H 0.62542 0.57742 0.08316 0.0
C4375 C 0.63029 0.55394 0.02683 0.0
C4376 C 0.6919 0.37998 0.27625 0.0
C4377 C 0.67668 0.3717 0.29483 0.0
H4378 H 0.72715 0.3929 0.26704 0.0
C4379 C 0.68195 0.37873 0.31847 0.0
H4380 H 0.68819 0.37507 0.25775 0.0
C4381 C 0.70373 0.39077 0.32354 0.0
C4382 C 0.72134 0.39402 0.3054 0.0
H4383 H 0.67068 0.37277 0.33322 0.0
H4384 H 0.70805 0.39453 0.34211 0.0
C4385 C 0.71431 0.39034 0.28149 0.0
C4386 C 0.1321 0.94301 0.97331 0.0
C4387 C 0.12477 0.92675 0.95521 0.0
H4388 H 0.14419 0.97874 0.9812 0.0
C4389 C 0.13279 0.93079 0.93167 0.0
H4390 H 0.12633 0.94032 0.99173 0.0
C4391 C 0.14486 0.95239 0.92602 0.0
C4392 C 0.14707 0.97088 0.9433 0.0
H4393 H 0.12757 0.91866 0.91735 0.0
H4394 H 0.14924 0.95608 0.90749 0.0
C4395 C 0.14257 0.9651 0.96738 0.0
C4396 C 0.28386 0.88972 0.21609 0.0
C4397 C 0.27772 0.89389 0.19201 0.0
H4398 H 0.30909 0.87394 0.24048 0.0
C4399 C 0.29595 0.89097 0.17446 0.0
H4400 H 0.27045 0.89189 0.23008 0.0
C4401 C 0.31766 0.879 0.18013 0.0
C4402 C 0.32207 0.87148 0.2038 0.0
H4403 H 0.29219 0.89489 0.1558 0.0
H4404 H 0.32958 0.87349 0.16572 0.0
C4405 C 0.30606 0.87921 0.22195 0.0
C4406 C 0.19488 0.11495 0.723 0.0
C4407 C 0.17855 0.12425 0.70588 0.0
H4408 H 0.23077 0.10203 0.72943 0.0
C4409 C 0.18269 0.11933 0.68153 0.0
H4410 H 0.19193 0.11816 0.74201 0.0
C4411 C 0.20445 0.10837 0.67447 0.0
C4412 C 0.22294 0.10393 0.69146 0.0
H4413 H 0.1705 0.12614 0.66791 0.0
H4414 H 0.20793 0.10632 0.65547 0.0
C4415 C 0.21717 0.10556 0.71589 0.0
C4416 C 0.11216 0.06759 0.31503 0.0
C4417 C 0.09879 0.08278 0.33032 0.0
H4418 H 0.1473 0.05332 0.30624 0.0
C4419 C 0.11123 0.09685 0.34723 0.0
H4420 H 0.10309 0.05715 0.30131 0.0
C4421 C 0.13634 0.0961 0.34867 0.0
C4422 C 0.14976 0.08065 0.33385 0.0
H4423 H 0.10157 0.10937 0.35865 0.0
H4424 H 0.14529 0.10718 0.36198 0.0
C4425 C 0.13742 0.06591 0.31737 0.0
C4426 C 0.15364 0.88556 0.59811 0.0
C4427 C 0.17005 0.89878 0.58418 0.0
H4428 H 0.14027 0.85104 0.60827 0.0
C4429 C 0.18584 0.88627 0.5688 0.0
H4430 H 0.14155 0.89463 0.61043 0.0
C4431 C 0.18465 0.86098 0.56703 0.0
C4432 C 0.16875 0.84781 0.58176 0.0
H4433 H 0.19898 0.89602 0.55821 0.0
H4434 H 0.19619 0.85172 0.55433 0.0
C4435 C 0.15333 0.86049 0.59729 0.0
C4436 C 0.3823 0.89226 0.82066 0.0
C4437 C 0.39964 0.91021 0.82527 0.0
H4438 H 0.34515 0.88202 0.82099 0.0
C4439 C 0.39168 0.93327 0.8316 0.0
H4440 H 0.38791 0.87419 0.81591 0.0
C4441 C 0.36683 0.93798 0.83393 0.0
C4442 C 0.34947 0.91955 0.8306 0.0
H4443 H 0.40458 0.94749 0.83501 0.0
H4444 H 0.36134 0.95579 0.83962 0.0
C4445 C 0.35765 0.89679 0.82336 0.0
C4446 C 0.33049 0.1088 0.06032 0.0
C4447 C 0.32799 0.09935 0.08352 0.0
H4448 H 0.33503 0.14053 0.03889 0.0
C4449 C 0.32616 0.11533 0.10308 0.0
H4450 H 0.33141 0.0969 0.04492 0.0
C4451 C 0.32796 0.14022 0.0998 0.0
C4452 C 0.33163 0.14991 0.07677 0.0
H4453 H 0.32396 0.10843 0.12119 0.0
H4454 H 0.32779 0.15171 0.11553 0.0
C4455 C 0.33217 0.13384 0.05696 0.0
C4456 C 0.13547 0.90806 0.14528 0.0
C4457 C 0.14943 0.91811 0.16378 0.0
H4458 H 0.10048 0.89778 0.13295 0.0
C4459 C 0.13774 0.92684 0.18444 0.0
H4460 H 0.14396 0.9018 0.12887 0.0
C4461 C 0.11257 0.92424 0.18697 0.0
C4462 C 0.09863 0.91405 0.16833 0.0
H4463 H 0.14804 0.93533 0.19864 0.0
H4464 H 0.10403 0.92992 0.20354 0.0
C4465 C 0.11045 0.90633 0.14737 0.0
C4466 C 0.32024 0.88835 0.43498 0.0
C4467 C 0.32983 0.9004 0.41494 0.0
H4468 H 0.31581 0.85426 0.45295 0.0
C4469 C 0.33974 0.88671 0.39614 0.0
H4470 H 0.3119 0.89844 0.44942 0.0
C4471 C 0.3406 0.86163 0.3974 0.0
C4472 C 0.33221 0.84944 0.41788 0.0
H4473 H 0.34671 0.89547 0.38019 0.0
H4474 H 0.34917 0.85188 0.38285 0.0
C4475 C 0.32199 0.86309 0.43672 0.0
C4476 C 0.38677 0.06712 0.6809 0.0
C4477 C 0.39937 0.08353 0.66622 0.0
H4478 H 0.35228 0.05103 0.68922 0.0
C4479 C 0.38624 0.0977 0.64994 0.0
H4480 H 0.39639 0.05644 0.69407 0.0
C4481 C 0.36122 0.0958 0.64836 0.0
C4482 C 0.34851 0.07916 0.66253 0.0
H4483 H 0.3953 0.11102 0.63892 0.0
H4484 H 0.35181 0.10696 0.63541 0.0
C4485 C 0.36156 0.0644 0.6785 0.0
C4486 C 0.18397 0.13519 0.9301 0.0
C4487 C 0.16734 0.14816 0.91599 0.0
H4488 H 0.19928 0.10034 0.93814 0.0
C4489 C 0.1517 0.13535 0.90083 0.0
H4490 H 0.19572 0.14456 0.94251 0.0
C4491 C 0.15234 0.11028 0.89996 0.0
C4492 C 0.16935 0.09724 0.91333 0.0
H4493 H 0.13813 0.14469 0.89033 0.0
H4494 H 0.13996 0.10101 0.88812 0.0
C4495 C 0.18555 0.10993 0.92813 0.0
C4496 C 0.09713 0.31746 0.117 0.0
C4497 C 0.08189 0.32837 0.09976 0.0
H4498 H 0.10633 0.31307 0.1542 0.0
C4499 C 0.06222 0.34188 0.1079 0.0
H4500 H 0.11278 0.30723 0.11136 0.0
C4501 C 0.05813 0.34459 0.13273 0.0
C4502 C 0.0741 0.33455 0.14997 0.0
H4503 H 0.05026 0.35056 0.09517 0.0
H4504 H 0.04317 0.35578 0.13835 0.0
C4505 C 0.09346 0.32069 0.14167 0.0
C4506 C 0.56322 0.17738 0.85984 0.0
C4507 C 0.58001 0.16353 0.84684 0.0
H4508 H 0.55203 0.19008 0.89477 0.0
C4509 C 0.59719 0.1501 0.85964 0.0
H4510 H 0.54937 0.18741 0.85044 0.0
C4511 C 0.59736 0.14998 0.88476 0.0
C4512 C 0.58101 0.16414 0.89785 0.0
H4513 H 0.61002 0.13891 0.85016 0.0
H4514 H 0.6111 0.13959 0.89396 0.0
C4515 C 0.56425 0.17832 0.88514 0.0
C4516 C 0.93178 0.81539 0.38516 0.0
C4517 C 0.91827 0.83265 0.39794 0.0
H4518 H 0.94367 0.80293 0.3504 0.0
C4519 C 0.90561 0.85026 0.38498 0.0
H4520 H 0.94121 0.80125 0.39472 0.0
C4521 C 0.90561 0.85011 0.35989 0.0
C4522 C 0.91887 0.83281 0.34705 0.0
H4523 H 0.89445 0.86334 0.39421 0.0
H4524 H 0.89557 0.86395 0.35048 0.0
C4525 C 0.93262 0.8159 0.35989 0.0
C4526 C 0.92238 0.18981 0.11274 0.0
C4527 C 0.91645 0.16972 0.09829 0.0
H4528 H 0.92918 0.20316 0.14864 0.0
C4529 C 0.91311 0.1474 0.10963 0.0
H4530 H 0.92473 0.20738 0.10462 0.0
C4531 C 0.91445 0.14543 0.13462 0.0
C4532 C 0.91979 0.16543 0.14907 0.0
H4533 H 0.90795 0.13166 0.09937 0.0
H4534 H 0.91112 0.1281 0.14277 0.0
C4535 C 0.92445 0.18759 0.13793 0.0
C4536 C 0.4188 0.68549 0.63881 0.0
C4537 C 0.42178 0.66224 0.64812 0.0
H4538 H 0.41398 0.70715 0.6072 0.0
C4539 C 0.42399 0.64289 0.63194 0.0
H4540 H 0.41748 0.70077 0.65082 0.0
C4541 C 0.42223 0.64639 0.60705 0.0
C4542 C 0.41825 0.66946 0.59748 0.0
H4543 H 0.42651 0.62475 0.63867 0.0
H4544 H 0.42284 0.63076 0.59543 0.0
C4545 C 0.41717 0.68908 0.61374 0.0
C4546 C 0.09504 0.64924 0.35955 0.0
C4547 C 0.08151 0.66625 0.34659 0.0
H4548 H 0.10725 0.63686 0.39383 0.0
C4549 C 0.06887 0.68408 0.35935 0.0
H4550 H 0.10445 0.6349 0.35028 0.0
C4551 C 0.0709 0.68552 0.38458 0.0
C4552 C 0.08441 0.66828 0.39744 0.0
H4553 H 0.05777 0.69699 0.34984 0.0
H4554 H 0.06213 0.70015 0.39402 0.0
C4555 C 0.09615 0.64999 0.38459 0.0
C4556 C 0.40204 0.34887 0.8638 0.0
C4557 C 0.41433 0.33172 0.84986 0.0
H4558 H 0.39312 0.36164 0.89899 0.0
C4559 C 0.42721 0.31342 0.86172 0.0
H4560 H 0.39261 0.36365 0.85521 0.0
C4561 C 0.42739 0.31213 0.88702 0.0
C4562 C 0.41584 0.32991 0.90096 0.0
H4563 H 0.43741 0.30038 0.85143 0.0
H4564 H 0.43671 0.29737 0.89571 0.0
C4565 C 0.40303 0.34817 0.88894 0.0
C4566 C 0.85933 0.89637 0.65908 0.0
C4567 C 0.84846 0.9182 0.6658 0.0
H4568 H 0.89203 0.87638 0.65482 0.0
C4569 C 0.86337 0.9368 0.67466 0.0
H4570 H 0.84869 0.88192 0.65146 0.0
C4571 C 0.88852 0.93347 0.67678 0.0
C4572 C 0.8992 0.9119 0.66901 0.0
H4573 H 0.85562 0.95402 0.67952 0.0
H4574 H 0.89956 0.94776 0.6841 0.0
C4575 C 0.88429 0.89339 0.66043 0.0
C4576 C 0.82032 0.14008 0.39967 0.0
C4577 C 0.83283 0.14822 0.42001 0.0
H4578 H 0.80745 0.10971 0.37978 0.0
C4579 C 0.84052 0.13087 0.43712 0.0
H4580 H 0.81439 0.15265 0.386 0.0
C4581 C 0.83726 0.10613 0.43317 0.0
C4582 C 0.8254 0.09812 0.4125 0.0
H4583 H 0.85037 0.13623 0.45305 0.0
H4584 H 0.84439 0.09331 0.44602 0.0
C4585 C 0.81643 0.1154 0.39613 0.0
C4586 C 0.61586 0.1057 0.17127 0.0
C4587 C 0.59964 0.08625 0.17151 0.0
H4588 H 0.65225 0.11764 0.16729 0.0
C4589 C 0.60883 0.06279 0.17024 0.0
H4590 H 0.60919 0.12402 0.17231 0.0
C4591 C 0.63384 0.05906 0.16776 0.0
C4592 C 0.65006 0.07871 0.16641 0.0
H4593 H 0.59677 0.04749 0.17084 0.0
H4594 H 0.64037 0.0408 0.16581 0.0
C4595 C 0.64066 0.10204 0.16881 0.0
C4596 C 0.66714 0.88238 0.88979 0.0
C4597 C 0.67003 0.8984 0.90913 0.0
H4598 H 0.66294 0.84613 0.87805 0.0
C4599 C 0.67254 0.88904 0.93243 0.0
H4600 H 0.66547 0.88917 0.87158 0.0
C4601 C 0.67129 0.86397 0.93623 0.0
C4602 C 0.66775 0.84792 0.91677 0.0
H4603 H 0.67539 0.90097 0.94755 0.0
H4604 H 0.67239 0.85722 0.95447 0.0
C4605 C 0.66614 0.85759 0.89348 0.0
C4606 C 0.86629 0.05913 0.83613 0.0
C4607 C 0.84931 0.07751 0.83081 0.0
H4608 H 0.90377 0.04892 0.83892 0.0
C4609 C 0.85813 0.09946 0.82202 0.0
H4610 H 0.8604 0.04196 0.84321 0.0
C4611 C 0.88298 0.10315 0.81931 0.0
C4612 C 0.89989 0.08523 0.8257 0.0
H4613 H 0.84592 0.11416 0.8181 0.0
H4614 H 0.88909 0.12057 0.81306 0.0
C4615 C 0.89127 0.06307 0.83397 0.0
C4616 C 0.6728 0.11532 0.60528 0.0
C4617 C 0.67039 0.09893 0.5861 0.0
H4618 H 0.67235 0.15196 0.61701 0.0
C4619 C 0.6676 0.10797 0.56276 0.0
H4620 H 0.67516 0.1088 0.62351 0.0
C4621 C 0.66655 0.13301 0.55891 0.0
C4622 C 0.66795 0.14949 0.57836 0.0
H4623 H 0.6662 0.0958 0.54762 0.0
H4624 H 0.66359 0.13939 0.54074 0.0
C4625 C 0.67157 0.14016 0.60152 0.0
C4626 C 0.63679 0.9328 0.31719 0.0
C4627 C 0.64954 0.91782 0.33319 0.0
H4628 H 0.6022 0.94111 0.30131 0.0
C4629 C 0.63663 0.90123 0.34717 0.0
H4630 H 0.64626 0.94624 0.30673 0.0
C4631 C 0.61163 0.89954 0.34535 0.0
C4632 C 0.59882 0.91388 0.32896 0.0
H4633 H 0.64584 0.89001 0.36024 0.0
H4634 H 0.60236 0.88627 0.35623 0.0
C4635 C 0.61162 0.93028 0.3145 0.0
C4636 C 0.81419 0.8866 0.06827 0.0
C4637 C 0.82841 0.89876 0.08533 0.0
H4638 H 0.80495 0.85236 0.0525 0.0
C4639 C 0.84251 0.88512 0.10129 0.0
H4640 H 0.80259 0.89664 0.05623 0.0
C4641 C 0.84259 0.85999 0.10028 0.0
C4642 C 0.82906 0.84766 0.08281 0.0
H4643 H 0.85303 0.89395 0.11515 0.0
H4644 H 0.85417 0.85025 0.11261 0.0
C4645 C 0.81507 0.86128 0.06656 0.0
C4646 C 0.90696 0.6482 0.86254 0.0
C4647 C 0.91803 0.66641 0.84898 0.0
H4648 H 0.89715 0.63521 0.89732 0.0
C4649 C 0.92919 0.68561 0.86108 0.0
H4650 H 0.89894 0.63277 0.85371 0.0
C4651 C 0.92787 0.68722 0.88633 0.0
C4652 C 0.91665 0.66891 0.89984 0.0
H4653 H 0.93853 0.69945 0.85103 0.0
H4654 H 0.93524 0.70289 0.89527 0.0
C4655 C 0.90659 0.64924 0.88759 0.0
C4656 C 0.42578 0.84835 0.10745 0.0
C4657 C 0.41563 0.82695 0.09875 0.0
H4658 H 0.43655 0.86873 0.1383 0.0
C4659 C 0.41009 0.80861 0.11566 0.0
H4660 H 0.42996 0.86299 0.09529 0.0
C4661 C 0.4131 0.81223 0.14051 0.0
C4662 C 0.42255 0.83393 0.14904 0.0
H4663 H 0.40214 0.7918 0.10986 0.0
H4664 H 0.40772 0.79826 0.153 0.0
C4665 C 0.42939 0.85166 0.13219 0.0
C4666 C 0.08953 0.14556 0.61108 0.0
C4667 C 0.07854 0.16464 0.5986 0.0
H4668 H 0.09945 0.13073 0.64514 0.0
C4669 C 0.06804 0.18344 0.61212 0.0
H4670 H 0.09832 0.13105 0.60147 0.0
C4671 C 0.06838 0.18297 0.63743 0.0
C4672 C 0.08024 0.16429 0.64964 0.0
H4673 H 0.05991 0.1987 0.6031 0.0
H4674 H 0.05955 0.19719 0.64742 0.0
C4675 C 0.09073 0.14566 0.63617 0.0
C4676 C 0.06589 0.81635 0.86153 0.0
C4677 C 0.08046 0.83284 0.84896 0.0
H4678 H 0.05731 0.80065 0.89603 0.0
C4679 C 0.09608 0.84772 0.8621 0.0
H4680 H 0.05321 0.80513 0.85187 0.0
C4681 C 0.09709 0.84643 0.88713 0.0
C4682 C 0.08305 0.82969 0.89983 0.0
H4683 H 0.10698 0.86108 0.85299 0.0
H4684 H 0.10965 0.85802 0.89654 0.0
C4685 C 0.06778 0.81422 0.88676 0.0
C4686 C 0.58682 0.35397 0.36385 0.0
C4687 C 0.57757 0.33557 0.34927 0.0
H4688 H 0.59573 0.3659 0.3992 0.0
C4689 C 0.56853 0.31467 0.36024 0.0
H4690 H 0.59341 0.3705 0.35585 0.0
C4691 C 0.57003 0.31186 0.38542 0.0
C4692 C 0.57957 0.33037 0.40001 0.0
H4693 H 0.56069 0.3005 0.3494 0.0
H4694 H 0.56419 0.29509 0.39345 0.0
C4695 C 0.58757 0.35156 0.3888 0.0
C4696 C 0.92203 0.35189 0.60966 0.0
C4697 C 0.91967 0.32931 0.59867 0.0
H4698 H 0.92475 0.37142 0.64269 0.0
C4699 C 0.91857 0.30872 0.61376 0.0
H4700 H 0.92268 0.36816 0.59894 0.0
C4701 C 0.91892 0.31081 0.63899 0.0
C4702 C 0.92066 0.33351 0.64969 0.0
H4703 H 0.91651 0.29092 0.60613 0.0
H4704 H 0.91781 0.29479 0.65003 0.0
C4705 C 0.92272 0.35384 0.63476 0.0
C4706 C 0.58732 0.64664 0.10984 0.0
C4707 C 0.58244 0.66873 0.09854 0.0
H4708 H 0.59049 0.62725 0.14295 0.0
C4709 C 0.57536 0.68839 0.11304 0.0
H4710 H 0.59336 0.63125 0.09951 0.0
C4711 C 0.57356 0.68597 0.13823 0.0
C4712 C 0.57974 0.66413 0.14934 0.0
H4713 H 0.5718 0.70576 0.10495 0.0
H4714 H 0.56783 0.70118 0.14898 0.0
C4715 C 0.58623 0.64448 0.13485 0.0
C4716 C 0.61272 0.57441 0.80855 0.0
C4717 C 0.59818 0.58142 0.82822 0.0
H4718 H 0.64871 0.56661 0.79581 0.0
C4719 C 0.60954 0.58613 0.85033 0.0
H4720 H 0.60463 0.57105 0.79114 0.0
C4721 C 0.63457 0.58467 0.85257 0.0
C4722 C 0.64908 0.57801 0.83298 0.0
H4723 H 0.59923 0.59217 0.86574 0.0
H4724 H 0.64268 0.58874 0.86983 0.0
C4725 C 0.63795 0.5723 0.81103 0.0
C4726 C 0.6777 0.35765 0.09733 0.0
C4727 C 0.66523 0.34973 0.07687 0.0
H4728 H 0.6909 0.38775 0.11738 0.0
C4729 C 0.6577 0.36724 0.05988 0.0
H4730 H 0.68345 0.34494 0.11094 0.0
C4731 C 0.66128 0.39193 0.06392 0.0
C4732 C 0.67331 0.39973 0.08461 0.0
H4733 H 0.64776 0.36203 0.04395 0.0
H4734 H 0.65428 0.40489 0.05114 0.0
C4735 C 0.68193 0.38226 0.10096 0.0
C4736 C 0.88662 0.42812 0.31268 0.0
C4737 C 0.90011 0.41428 0.32916 0.0
H4738 H 0.85143 0.44194 0.30318 0.0
C4739 C 0.88782 0.40212 0.34758 0.0
H4740 H 0.89557 0.43719 0.29793 0.0
C4741 C 0.86281 0.40349 0.34951 0.0
C4742 C 0.84928 0.4176 0.33351 0.0
H4743 H 0.8975 0.39069 0.36009 0.0
H4744 H 0.85402 0.39399 0.36411 0.0
C4745 C 0.86141 0.4304 0.31532 0.0
C4746 C 0.81635 0.63372 0.56659 0.0
C4747 C 0.82968 0.64722 0.58346 0.0
H4748 H 0.80363 0.5985 0.55619 0.0
C4749 C 0.84107 0.63511 0.60247 0.0
H4750 H 0.80782 0.64258 0.55147 0.0
C4751 C 0.84004 0.61012 0.60413 0.0
C4752 C 0.82704 0.59657 0.58725 0.0
H4753 H 0.85203 0.64483 0.61536 0.0
H4754 H 0.8492 0.60133 0.61895 0.0
C4755 C 0.81447 0.60856 0.56889 0.0
C4756 C 0.63728 0.43362 0.67631 0.0
C4757 C 0.65091 0.41819 0.66155 0.0
H4758 H 0.60204 0.4416 0.69079 0.0
C4759 C 0.63885 0.4007 0.64786 0.0
H4760 H 0.64609 0.44769 0.68653 0.0
C4761 C 0.61388 0.3984 0.64901 0.0
C4762 C 0.60025 0.41308 0.66435 0.0
H4763 H 0.64874 0.38907 0.6357 0.0
H4764 H 0.60526 0.38431 0.63862 0.0
C4765 C 0.61213 0.43056 0.67829 0.0
C4766 C 0.8129 0.36051 0.92658 0.0
C4767 C 0.8332 0.3488 0.91697 0.0
H4768 H 0.79438 0.39434 0.93134 0.0
C4769 C 0.85165 0.36283 0.90692 0.0
H4770 H 0.79867 0.35016 0.93497 0.0
C4771 C 0.85005 0.38792 0.90638 0.0
C4772 C 0.82948 0.39983 0.91511 0.0
H4773 H 0.86765 0.35431 0.89974 0.0
H4774 H 0.86452 0.39791 0.89791 0.0
C4775 C 0.81074 0.38579 0.92502 0.0
C4776 C 0.86359 0.58732 0.14414 0.0
C4777 C 0.84976 0.57708 0.16263 0.0
H4778 H 0.89851 0.59753 0.13167 0.0
C4779 C 0.86152 0.56764 0.18292 0.0
H4780 H 0.85496 0.59416 0.12803 0.0
C4781 C 0.88672 0.56983 0.18518 0.0
C4782 C 0.90052 0.58036 0.16663 0.0
H4783 H 0.85126 0.55906 0.19708 0.0
H4784 H 0.89538 0.56376 0.20156 0.0
C4785 C 0.88861 0.58866 0.14595 0.0
C4786 C 0.658 0.60758 0.43669 0.0
C4787 C 0.6696 0.59885 0.41618 0.0
H4788 H 0.64584 0.63847 0.45596 0.0
C4789 C 0.67892 0.61547 0.39938 0.0
H4790 H 0.6507 0.59522 0.44988 0.0
C4791 C 0.67585 0.6403 0.40246 0.0
C4792 C 0.66383 0.64923 0.42275 0.0
H4793 H 0.68784 0.60915 0.38323 0.0
H4794 H 0.68218 0.65241 0.38856 0.0
C4795 C 0.6555 0.63247 0.44014 0.0
C4796 C 0.5893 0.85233 0.63402 0.0
C4797 C 0.58089 0.83322 0.64824 0.0
H4798 H 0.59616 0.86595 0.59878 0.0
C4799 C 0.57146 0.81277 0.63678 0.0
H4800 H 0.59581 0.86869 0.64239 0.0
C4801 C 0.57175 0.81106 0.61149 0.0
C4802 C 0.58041 0.83025 0.59724 0.0
H4803 H 0.56403 0.79817 0.64733 0.0
H4804 H 0.56555 0.79462 0.60308 0.0
C4805 C 0.58882 0.85103 0.60895 0.0
C4806 C 0.38769 0.40218 0.1503 0.0
C4807 C 0.40016 0.41422 0.16869 0.0
H4808 H 0.35372 0.39445 0.13384 0.0
C4809 C 0.38689 0.42839 0.18503 0.0
H4810 H 0.39723 0.39056 0.13786 0.0
C4811 C 0.3617 0.43101 0.18238 0.0
C4812 C 0.34934 0.41826 0.16432 0.0
H4813 H 0.39597 0.43741 0.19972 0.0
H4814 H 0.35191 0.44275 0.19448 0.0
C4815 C 0.36267 0.40391 0.14836 0.0
C4816 C 0.32038 0.61337 0.89443 0.0
C4817 C 0.32774 0.59799 0.91328 0.0
H4818 H 0.31661 0.64962 0.88146 0.0
C4819 C 0.3358 0.60828 0.93475 0.0
H4820 H 0.314 0.60587 0.87763 0.0
C4821 C 0.33639 0.63345 0.93727 0.0
C4822 C 0.32956 0.64897 0.91815 0.0
H4823 H 0.34151 0.59695 0.94956 0.0
H4824 H 0.34315 0.6407 0.95404 0.0
C4825 C 0.32158 0.63848 0.89666 0.0
C4826 C 0.11147 0.59602 0.65016 0.0
C4827 C 0.09857 0.58106 0.66589 0.0
H4828 H 0.14579 0.60656 0.63636 0.0
C4829 C 0.1114 0.56454 0.68022 0.0
H4830 H 0.10221 0.60954 0.63954 0.0
C4831 C 0.13665 0.5625 0.67806 0.0
C4832 C 0.14947 0.57807 0.66274 0.0
H4833 H 0.10194 0.55335 0.69308 0.0
H4834 H 0.14616 0.54903 0.68849 0.0
C4835 C 0.13653 0.5948 0.64887 0.0
C4836 C 0.15929 0.3859 0.39419 0.0
C4837 C 0.17072 0.39945 0.41219 0.0
H4838 H 0.14887 0.35116 0.38148 0.0
C4839 C 0.18204 0.38733 0.43126 0.0
H4840 H 0.15082 0.39479 0.37906 0.0
C4841 C 0.18049 0.36208 0.43296 0.0
C4842 C 0.16878 0.34856 0.41492 0.0
H4843 H 0.1915 0.39735 0.44504 0.0
H4844 H 0.18789 0.35315 0.44864 0.0
C4845 C 0.15869 0.36083 0.39528 0.0
C4846 C 0.38688 0.5635 0.31664 0.0
C4847 C 0.39893 0.58142 0.32989 0.0
H4848 H 0.35277 0.5465 0.30885 0.0
C4849 C 0.38519 0.59753 0.34368 0.0
H4850 H 0.39699 0.5513 0.30529 0.0
C4851 C 0.36009 0.59586 0.34437 0.0
C4852 C 0.3479 0.57758 0.33185 0.0
H4853 H 0.39387 0.612 0.35345 0.0
H4854 H 0.35025 0.6084 0.35562 0.0
C4855 C 0.3616 0.56113 0.31822 0.0
C4856 C 0.15568 0.61198 0.09976 0.0
C4857 C 0.16783 0.59842 0.08227 0.0
H4858 H 0.14471 0.64673 0.11206 0.0
C4859 C 0.17906 0.61058 0.06313 0.0
H4860 H 0.14706 0.60309 0.11479 0.0
C4861 C 0.17694 0.63582 0.06102 0.0
C4862 C 0.16503 0.64933 0.07891 0.0
H4863 H 0.18901 0.60059 0.04967 0.0
H4864 H 0.18436 0.64473 0.04536 0.0
C4865 C 0.15475 0.63704 0.09843 0.0
C4866 C 0.11293 0.39749 0.84397 0.0
C4867 C 0.0996 0.41411 0.83036 0.0
H4868 H 0.1475 0.38631 0.85678 0.0
C4869 C 0.11201 0.43247 0.8181 0.0
H4870 H 0.10394 0.38271 0.853 0.0
C4871 C 0.13721 0.43484 0.82066 0.0
C4872 C 0.15046 0.41796 0.83423 0.0
H4873 H 0.10223 0.44509 0.8069 0.0
H4874 H 0.14632 0.44984 0.81218 0.0
C4875 C 0.13798 0.39917 0.8456 0.0
C4876 C 0.34416 0.36169 0.59795 0.0
C4877 C 0.33203 0.34911 0.57973 0.0
H4878 H 0.35316 0.39586 0.61309 0.0
C4879 C 0.3185 0.36234 0.56276 0.0
H4880 H 0.35544 0.35223 0.61076 0.0
C4881 C 0.31654 0.38758 0.56465 0.0
C4882 C 0.32941 0.40002 0.58255 0.0
H4883 H 0.30959 0.35317 0.54805 0.0
H4884 H 0.30531 0.39736 0.55205 0.0
C4885 C 0.34328 0.38676 0.59898 0.0
C4886 C 0.42473 0.15082 0.38871 0.0
C4887 C 0.415 0.17211 0.39817 0.0
H4888 H 0.43461 0.13109 0.35716 0.0
C4889 C 0.40848 0.1906 0.38178 0.0
H4890 H 0.4296 0.13606 0.40048 0.0
C4891 C 0.41056 0.1874 0.35675 0.0
C4892 C 0.41988 0.16592 0.34751 0.0
H4893 H 0.40064 0.20725 0.38818 0.0
H4894 H 0.40478 0.2016 0.3447 0.0
C4895 C 0.42735 0.14792 0.36381 0.0
loop_
_geom_bond_atom_site_label_1
_geom_bond_atom_site_label_2
_geom_bond_distance
_geom_bond_site_symmetry_2
_ccdc_geom_bond_type
O0 Mn1 2.163 . S
O0 C14 1.244 1_455 S
Mn1 O0 2.163 . S
Mn1 O4 2.160 . S
Mn1 O5 2.221 . S
Mn1 O7 2.163 . S
Mn1 O9 2.160 1_455 S
Mn1 O19 2.221 . S
O2 Mn3 2.087 . S
O2 C14 1.256 . S
Mn3 O2 2.087 . S
Mn3 O10 2.089 . S
Mn3 O19 2.290 1_655 S
Mn3 O20 2.251 1_655 S
O4 Mn1 2.160 . S
O4 C15 1.239 . S
O5 Mn1 2.221 . S
O5 Mn6 2.290 . S
O5 C16 1.278 . S
Mn6 O5 2.290 . S
Mn6 O8 2.089 . S
Mn6 O11 2.251 . S
Mn6 O12 2.087 . S
O7 Mn1 2.163 . S
O7 C17 1.244 . S
O8 Mn6 2.089 . S
O8 C15 1.256 . S
O9 Mn1 2.160 1_655 S
O9 C18 1.239 . S
O10 Mn3 2.089 . S
O10 C18 1.256 . S
O11 Mn6 2.251 . S
O11 C16 1.241 . S
O12 Mn6 2.087 . S
O12 C17 1.256 . S
C13 O19 1.278 . S
C13 O20 1.241 . S
C14 O0 1.244 1_655 S
C14 O2 1.256 . S
C15 O4 1.239 . S
C15 O8 1.256 . S
C16 O5 1.278 . S
C16 O11 1.241 . S
C17 O7 1.244 . S
C17 O12 1.256 . S
C18 O9 1.239 . S
C18 O10 1.256 . S
O19 Mn1 2.221 . S
O19 Mn3 2.290 1_455 S
O19 C13 1.278 . S
O20 Mn3 2.251 1_455 S
O20 C13 1.241 . S
O21 Mn22 2.163 . S
O21 C35 1.244 . S
Mn22 O21 2.163 . S
Mn22 O25 2.160 . S
Mn22 O26 2.221 . S
Mn22 O28 2.163 . S
Mn22 O30 2.160 . S
Mn22 O40 2.221 . S
O23 Mn24 2.087 . S
O23 C35 1.256 . S
Mn24 O23 2.087 . S
Mn24 O31 2.089 . S
Mn24 O40 2.290 . S
Mn24 O41 2.251 . S
O25 Mn22 2.160 . S
O25 C36 1.239 . S
O26 Mn22 2.221 . S
O26 Mn27 2.290 . S
O26 C37 1.278 . S
Mn27 O26 2.290 . S
Mn27 O29 2.089 . S
Mn27 O32 2.251 . S
Mn27 O33 2.087 . S
O28 Mn22 2.163 . S
O28 C38 1.244 . S
O29 Mn27 2.089 . S
O29 C36 1.256 . S
O30 Mn22 2.160 . S
O30 C39 1.239 . S
O31 Mn24 2.089 . S
O31 C39 1.256 . S
O32 Mn27 2.251 . S
O32 C37 1.241 . S
O33 Mn27 2.087 . S
O33 C38 1.256 . S
C34 O40 1.278 . S
C34 O41 1.241 . S
C35 O21 1.244 . S
C35 O23 1.256 . S
C36 O25 1.239 . S
C36 O29 1.256 . S
C37 O26 1.278 . S
C37 O32 1.241 . S
C38 O28 1.244 . S
C38 O33 1.256 . S
C39 O30 1.239 . S
C39 O31 1.256 . S
O40 Mn22 2.221 . S
O40 Mn24 2.290 . S
O40 C34 1.278 . S
O41 Mn24 2.251 . S
O41 C34 1.241 . S
O42 Mn43 2.163 . S
O42 C56 1.244 . S
Mn43 O42 2.163 . S
Mn43 O46 2.160 . S
Mn43 O47 2.221 . S
Mn43 O49 2.163 . S
Mn43 O51 2.160 . S
Mn43 O61 2.221 . S
O44 Mn45 2.087 . S
O44 C56 1.256 . S
Mn45 O44 2.087 . S
Mn45 O52 2.089 . S
Mn45 O61 2.290 . S
Mn45 O62 2.251 . S
O46 Mn43 2.160 . S
O46 C57 1.239 . S
O47 Mn43 2.221 . S
O47 Mn48 2.290 . S
O47 C58 1.278 . S
Mn48 O47 2.290 . S
Mn48 O50 2.089 . S
Mn48 O53 2.251 . S
Mn48 O54 2.087 . S
O49 Mn43 2.163 . S
O49 C59 1.244 . S
O50 Mn48 2.089 . S
O50 C57 1.256 . S
O51 Mn43 2.160 . S
O51 C60 1.239 . S
O52 Mn45 2.089 . S
O52 C60 1.256 . S
O53 Mn48 2.251 . S
O53 C58 1.241 . S
O54 Mn48 2.087 . S
O54 C59 1.256 . S
C55 O61 1.278 . S
C55 O62 1.241 . S
C56 O42 1.244 . S
C56 O44 1.256 . S
C57 O46 1.239 . S
C57 O50 1.256 . S
C58 O47 1.278 . S
C58 O53 1.241 . S
C59 O49 1.244 . S
C59 O54 1.256 . S
C60 O51 1.239 . S
C60 O52 1.256 . S
O61 Mn43 2.221 . S
O61 Mn45 2.290 . S
O61 C55 1.278 . S
O62 Mn45 2.251 . S
O62 C55 1.241 . S
O63 Mn64 2.163 . S
O63 C77 1.244 . S
Mn64 O63 2.163 . S
Mn64 O67 2.160 . S
Mn64 O68 2.221 . S
Mn64 O70 2.163 . S
Mn64 O72 2.160 . S
Mn64 O82 2.221 . S
O65 Mn66 2.087 . S
O65 C77 1.256 . S
Mn66 O65 2.087 . S
Mn66 O73 2.089 . S
Mn66 O82 2.290 . S
Mn66 O83 2.251 . S
O67 Mn64 2.160 . S
O67 C78 1.239 . S
O68 Mn64 2.221 . S
O68 Mn69 2.290 . S
O68 C79 1.278 . S
Mn69 O68 2.290 . S
Mn69 O71 2.089 . S
Mn69 O74 2.251 . S
Mn69 O75 2.087 . S
O70 Mn64 2.163 . S
O70 C80 1.244 . S
O71 Mn69 2.089 . S
O71 C78 1.256 . S
O72 Mn64 2.160 . S
O72 C81 1.239 . S
O73 Mn66 2.089 . S
O73 C81 1.256 . S
O74 Mn69 2.251 . S
O74 C79 1.241 . S
O75 Mn69 2.087 . S
O75 C80 1.256 . S
C76 O82 1.278 . S
C76 O83 1.241 . S
C77 O63 1.244 . S
C77 O65 1.256 . S
C78 O67 1.239 . S
C78 O71 1.256 . S
C79 O68 1.278 . S
C79 O74 1.241 . S
C80 O70 1.244 . S
C80 O75 1.256 . S
C81 O72 1.239 . S
C81 O73 1.256 . S
O82 Mn64 2.221 . S
O82 Mn66 2.290 . S
O82 C76 1.278 . S
O83 Mn66 2.251 . S
O83 C76 1.241 . S
O84 Mn85 2.163 . S
O84 C98 1.244 1_455 S
Mn85 O84 2.163 . S
Mn85 O88 2.160 . S
Mn85 O89 2.221 . S
Mn85 O91 2.163 . S
Mn85 O93 2.160 1_455 S
Mn85 O103 2.221 . S
O86 Mn87 2.087 . S
O86 C98 1.256 . S
Mn87 O86 2.087 . S
Mn87 O94 2.089 . S
Mn87 O103 2.290 1_655 S
Mn87 O104 2.251 1_655 S
O88 Mn85 2.160 . S
O88 C99 1.239 . S
O89 Mn85 2.221 . S
O89 Mn90 2.290 . S
O89 C100 1.278 . S
Mn90 O89 2.290 . S
Mn90 O92 2.089 . S
Mn90 O95 2.251 . S
Mn90 O96 2.087 . S
O91 Mn85 2.163 . S
O91 C101 1.244 . S
O92 Mn90 2.089 . S
O92 C99 1.256 . S
O93 Mn85 2.160 1_655 S
O93 C102 1.239 . S
O94 Mn87 2.089 . S
O94 C102 1.256 . S
O95 Mn90 2.251 . S
O95 C100 1.241 . S
O96 Mn90 2.087 . S
O96 C101 1.256 . S
C97 O103 1.278 . S
C97 O104 1.241 . S
C98 O84 1.244 1_655 S
C98 O86 1.256 . S
C99 O88 1.239 . S
C99 O92 1.256 . S
C100 O89 1.278 . S
C100 O95 1.241 . S
C101 O91 1.244 . S
C101 O96 1.256 . S
C102 O93 1.239 . S
C102 O94 1.256 . S
O103 Mn85 2.221 . S
O103 Mn87 2.290 1_455 S
O103 C97 1.278 . S
O104 Mn87 2.251 1_455 S
O104 C97 1.241 . S
O105 Mn106 2.163 . S
O105 C119 1.244 . S
Mn106 O105 2.163 . S
Mn106 O109 2.160 . S
Mn106 O110 2.221 . S
Mn106 O112 2.163 . S
Mn106 O114 2.160 . S
Mn106 O124 2.221 . S
O107 Mn108 2.087 . S
O107 C119 1.256 . S
Mn108 O107 2.087 . S
Mn108 O115 2.089 . S
Mn108 O124 2.290 . S
Mn108 O125 2.251 . S
O109 Mn106 2.160 . S
O109 C120 1.239 . S
O110 Mn106 2.221 . S
O110 Mn111 2.290 . S
O110 C121 1.278 . S
Mn111 O110 2.290 . S
Mn111 O113 2.089 . S
Mn111 O116 2.251 . S
Mn111 O117 2.087 . S
O112 Mn106 2.163 . S
O112 C122 1.244 . S
O113 Mn111 2.089 . S
O113 C120 1.256 . S
O114 Mn106 2.160 . S
O114 C123 1.239 . S
O115 Mn108 2.089 . S
O115 C123 1.256 . S
O116 Mn111 2.251 . S
O116 C121 1.241 . S
O117 Mn111 2.087 . S
O117 C122 1.256 . S
C118 O124 1.278 . S
C118 O125 1.241 . S
C119 O105 1.244 . S
C119 O107 1.256 . S
C120 O109 1.239 . S
C120 O113 1.256 . S
C121 O110 1.278 . S
C121 O116 1.241 . S
C122 O112 1.244 . S
C122 O117 1.256 . S
C123 O114 1.239 . S
C123 O115 1.256 . S
O124 Mn106 2.221 . S
O124 Mn108 2.290 . S
O124 C118 1.278 . S
O125 Mn108 2.251 . S
O125 C118 1.241 . S
O126 Mn127 2.163 . S
O126 C140 1.244 . S
Mn127 O126 2.163 . S
Mn127 O130 2.160 . S
Mn127 O131 2.221 . S
Mn127 O133 2.163 . S
Mn127 O135 2.160 . S
Mn127 O145 2.221 . S
O128 Mn129 2.087 . S
O128 C140 1.256 . S
Mn129 O128 2.087 . S
Mn129 O136 2.089 . S
Mn129 O145 2.290 . S
Mn129 O146 2.251 . S
O130 Mn127 2.160 . S
O130 C141 1.239 . S
O131 Mn127 2.221 . S
O131 Mn132 2.290 . S
O131 C142 1.278 . S
Mn132 O131 2.290 . S
Mn132 O134 2.089 . S
Mn132 O137 2.251 . S
Mn132 O138 2.087 . S
O133 Mn127 2.163 . S
O133 C143 1.244 . S
O134 Mn132 2.089 . S
O134 C141 1.256 . S
O135 Mn127 2.160 . S
O135 C144 1.239 . S
O136 Mn129 2.089 . S
O136 C144 1.256 . S
O137 Mn132 2.251 . S
O137 C142 1.241 . S
O138 Mn132 2.087 . S
O138 C143 1.256 . S
C139 O145 1.278 . S
C139 O146 1.241 . S
C140 O126 1.244 . S
C140 O128 1.256 . S
C141 O130 1.239 . S
C141 O134 1.256 . S
C142 O131 1.278 . S
C142 O137 1.241 . S
C143 O133 1.244 . S
C143 O138 1.256 . S
C144 O135 1.239 . S
C144 O136 1.256 . S
O145 Mn127 2.221 . S
O145 Mn129 2.290 . S
O145 C139 1.278 . S
O146 Mn129 2.251 . S
O146 C139 1.241 . S
O147 Mn148 2.163 . S
O147 C161 1.244 . S
Mn148 O147 2.163 . S
Mn148 O151 2.160 . S
Mn148 O152 2.221 . S
Mn148 O154 2.163 . S
Mn148 O156 2.160 . S
Mn148 O166 2.221 . S
O149 Mn150 2.087 . S
O149 C161 1.256 . S
Mn150 O149 2.087 . S
Mn150 O157 2.089 . S
Mn150 O166 2.290 . S
Mn150 O167 2.251 . S
O151 Mn148 2.160 . S
O151 C162 1.239 . S
O152 Mn148 2.221 . S
O152 Mn153 2.290 . S
O152 C163 1.278 . S
Mn153 O152 2.290 . S
Mn153 O155 2.089 . S
Mn153 O158 2.251 . S
Mn153 O159 2.087 . S
O154 Mn148 2.163 . S
O154 C164 1.244 . S
O155 Mn153 2.089 . S
O155 C162 1.256 . S
O156 Mn148 2.160 . S
O156 C165 1.239 . S
O157 Mn150 2.089 . S
O157 C165 1.256 . S
O158 Mn153 2.251 . S
O158 C163 1.241 . S
O159 Mn153 2.087 . S
O159 C164 1.256 . S
C160 O166 1.278 . S
C160 O167 1.241 . S
C161 O147 1.244 . S
C161 O149 1.256 . S
C162 O151 1.239 . S
C162 O155 1.256 . S
C163 O152 1.278 . S
C163 O158 1.241 . S
C164 O154 1.244 . S
C164 O159 1.256 . S
C165 O156 1.239 . S
C165 O157 1.256 . S
O166 Mn148 2.221 . S
O166 Mn150 2.290 . S
O166 C160 1.278 . S
O167 Mn150 2.251 . S
O167 C160 1.241 . S
O168 Mn169 2.163 . S
O168 C182 1.244 1_545 S
Mn169 O168 2.163 . S
Mn169 O172 2.160 . S
Mn169 O173 2.221 . S
Mn169 O175 2.163 . S
Mn169 O177 2.160 1_545 S
Mn169 O187 2.221 . S
O170 Mn171 2.087 . S
O170 C182 1.256 . S
Mn171 O170 2.087 . S
Mn171 O178 2.089 . S
Mn171 O187 2.290 1_565 S
Mn171 O188 2.251 1_565 S
O172 Mn169 2.160 . S
O172 C183 1.239 . S
O173 Mn169 2.221 . S
O173 Mn174 2.290 . S
O173 C184 1.278 . S
Mn174 O173 2.290 . S
Mn174 O176 2.089 . S
Mn174 O179 2.251 . S
Mn174 O180 2.087 . S
O175 Mn169 2.163 . S
O175 C185 1.244 . S
O176 Mn174 2.089 . S
O176 C183 1.256 . S
O177 Mn169 2.160 1_565 S
O177 C186 1.239 . S
O178 Mn171 2.089 . S
O178 C186 1.256 . S
O179 Mn174 2.251 . S
O179 C184 1.241 . S
O180 Mn174 2.087 . S
O180 C185 1.256 . S
C181 O187 1.278 . S
C181 O188 1.241 . S
C182 O168 1.244 1_565 S
C182 O170 1.256 . S
C183 O172 1.239 . S
C183 O176 1.256 . S
C184 O173 1.278 . S
C184 O179 1.241 . S
C185 O175 1.244 . S
C185 O180 1.256 . S
C186 O177 1.239 . S
C186 O178 1.256 . S
O187 Mn169 2.221 . S
O187 Mn171 2.290 1_545 S
O187 C181 1.278 . S
O188 Mn171 2.251 1_545 S
O188 C181 1.241 . S
O189 Mn190 2.163 . S
O189 C203 1.244 . S
Mn190 O189 2.163 . S
Mn190 O193 2.160 . S
Mn190 O194 2.221 . S
Mn190 O196 2.163 . S
Mn190 O198 2.160 . S
Mn190 O208 2.221 . S
O191 Mn192 2.087 . S
O191 C203 1.256 . S
Mn192 O191 2.087 . S
Mn192 O199 2.089 . S
Mn192 O208 2.290 . S
Mn192 O209 2.251 . S
O193 Mn190 2.160 . S
O193 C204 1.239 . S
O194 Mn190 2.221 . S
O194 Mn195 2.290 . S
O194 C205 1.278 . S
Mn195 O194 2.290 . S
Mn195 O197 2.089 . S
Mn195 O200 2.251 . S
Mn195 O201 2.087 . S
O196 Mn190 2.163 . S
O196 C206 1.244 . S
O197 Mn195 2.089 . S
O197 C204 1.256 . S
O198 Mn190 2.160 . S
O198 C207 1.239 . S
O199 Mn192 2.089 . S
O199 C207 1.256 . S
O200 Mn195 2.251 . S
O200 C205 1.241 . S
O201 Mn195 2.087 . S
O201 C206 1.256 . S
C202 O208 1.278 . S
C202 O209 1.241 . S
C203 O189 1.244 . S
C203 O191 1.256 . S
C204 O193 1.239 . S
C204 O197 1.256 . S
C205 O194 1.278 . S
C205 O200 1.241 . S
C206 O196 1.244 . S
C206 O201 1.256 . S
C207 O198 1.239 . S
C207 O199 1.256 . S
O208 Mn190 2.221 . S
O208 Mn192 2.290 . S
O208 C202 1.278 . S
O209 Mn192 2.251 . S
O209 C202 1.241 . S
O210 Mn211 2.163 . S
O210 C224 1.244 1_565 S
Mn211 O210 2.163 . S
Mn211 O214 2.160 . S
Mn211 O215 2.221 . S
Mn211 O217 2.163 . S
Mn211 O219 2.160 1_565 S
Mn211 O229 2.221 . S
O212 Mn213 2.087 . S
O212 C224 1.256 . S
Mn213 O212 2.087 . S
Mn213 O220 2.089 . S
Mn213 O229 2.290 1_545 S
Mn213 O230 2.251 1_545 S
O214 Mn211 2.160 . S
O214 C225 1.239 . S
O215 Mn211 2.221 . S
O215 Mn216 2.290 . S
O215 C226 1.278 . S
Mn216 O215 2.290 . S
Mn216 O218 2.089 . S
Mn216 O221 2.251 . S
Mn216 O222 2.087 . S
O217 Mn211 2.163 . S
O217 C227 1.244 . S
O218 Mn216 2.089 . S
O218 C225 1.256 . S
O219 Mn211 2.160 1_545 S
O219 C228 1.239 . S
O220 Mn213 2.089 . S
O220 C228 1.256 . S
O221 Mn216 2.251 . S
O221 C226 1.241 . S
O222 Mn216 2.087 . S
O222 C227 1.256 . S
C223 O229 1.278 . S
C223 O230 1.241 . S
C224 O210 1.244 1_545 S
C224 O212 1.256 . S
C225 O214 1.239 . S
C225 O218 1.256 . S
C226 O215 1.278 . S
C226 O221 1.241 . S
C227 O217 1.244 . S
C227 O222 1.256 . S
C228 O219 1.239 . S
C228 O220 1.256 . S
O229 Mn211 2.221 . S
O229 Mn213 2.290 1_565 S
O229 C223 1.278 . S
O230 Mn213 2.251 1_565 S
O230 C223 1.241 . S
O231 Mn232 2.163 . S
O231 C245 1.244 . S
Mn232 O231 2.163 . S
Mn232 O235 2.160 . S
Mn232 O236 2.221 . S
Mn232 O238 2.163 . S
Mn232 O240 2.160 . S
Mn232 O250 2.221 . S
O233 Mn234 2.087 . S
O233 C245 1.256 . S
Mn234 O233 2.087 . S
Mn234 O241 2.089 . S
Mn234 O250 2.290 . S
Mn234 O251 2.251 . S
O235 Mn232 2.160 . S
O235 C246 1.239 . S
O236 Mn232 2.221 . S
O236 Mn237 2.290 . S
O236 C247 1.278 . S
Mn237 O236 2.290 . S
Mn237 O239 2.089 . S
Mn237 O242 2.251 . S
Mn237 O243 2.087 . S
O238 Mn232 2.163 . S
O238 C248 1.244 . S
O239 Mn237 2.089 . S
O239 C246 1.256 . S
O240 Mn232 2.160 . S
O240 C249 1.239 . S
O241 Mn234 2.089 . S
O241 C249 1.256 . S
O242 Mn237 2.251 . S
O242 C247 1.241 . S
O243 Mn237 2.087 . S
O243 C248 1.256 . S
C244 O250 1.278 . S
C244 O251 1.241 . S
C245 O231 1.244 . S
C245 O233 1.256 . S
C246 O235 1.239 . S
C246 O239 1.256 . S
C247 O236 1.278 . S
C247 O242 1.241 . S
C248 O238 1.244 . S
C248 O243 1.256 . S
C249 O240 1.239 . S
C249 O241 1.256 . S
O250 Mn232 2.221 . S
O250 Mn234 2.290 . S
O250 C244 1.278 . S
O251 Mn234 2.251 . S
O251 C244 1.241 . S
O252 Mn253 2.163 . S
O252 C266 1.244 1_565 S
Mn253 O252 2.163 . S
Mn253 O256 2.160 . S
Mn253 O257 2.221 . S
Mn253 O259 2.163 . S
Mn253 O261 2.160 1_565 S
Mn253 O271 2.221 . S
O254 Mn255 2.087 . S
O254 C266 1.256 . S
Mn255 O254 2.087 . S
Mn255 O262 2.089 . S
Mn255 O271 2.290 1_545 S
Mn255 O272 2.251 1_545 S
O256 Mn253 2.160 . S
O256 C267 1.239 . S
O257 Mn253 2.221 . S
O257 Mn258 2.290 . S
O257 C268 1.278 . S
Mn258 O257 2.290 . S
Mn258 O260 2.089 . S
Mn258 O263 2.251 . S
Mn258 O264 2.087 . S
O259 Mn253 2.163 . S
O259 C269 1.244 . S
O260 Mn258 2.089 . S
O260 C267 1.256 . S
O261 Mn253 2.160 1_545 S
O261 C270 1.239 . S
O262 Mn255 2.089 . S
O262 C270 1.256 . S
O263 Mn258 2.251 . S
O263 C268 1.241 . S
O264 Mn258 2.087 . S
O264 C269 1.256 . S
C265 O271 1.278 . S
C265 O272 1.241 . S
C266 O252 1.244 1_545 S
C266 O254 1.256 . S
C267 O256 1.239 . S
C267 O260 1.256 . S
C268 O257 1.278 . S
C268 O263 1.241 . S
C269 O259 1.244 . S
C269 O264 1.256 . S
C270 O261 1.239 . S
C270 O262 1.256 . S
O271 Mn253 2.221 . S
O271 Mn255 2.290 1_565 S
O271 C265 1.278 . S
O272 Mn255 2.251 1_565 S
O272 C265 1.241 . S
O273 Mn274 2.163 . S
O273 C287 1.244 . S
Mn274 O273 2.163 . S
Mn274 O277 2.160 . S
Mn274 O278 2.221 . S
Mn274 O280 2.163 . S
Mn274 O282 2.160 . S
Mn274 O292 2.221 . S
O275 Mn276 2.087 . S
O275 C287 1.256 . S
Mn276 O275 2.087 . S
Mn276 O283 2.089 . S
Mn276 O292 2.290 . S
Mn276 O293 2.251 . S
O277 Mn274 2.160 . S
O277 C288 1.239 . S
O278 Mn274 2.221 . S
O278 Mn279 2.290 . S
O278 C289 1.278 . S
Mn279 O278 2.290 . S
Mn279 O281 2.089 . S
Mn279 O284 2.251 . S
Mn279 O285 2.087 . S
O280 Mn274 2.163 . S
O280 C290 1.244 . S
O281 Mn279 2.089 . S
O281 C288 1.256 . S
O282 Mn274 2.160 . S
O282 C291 1.239 . S
O283 Mn276 2.089 . S
O283 C291 1.256 . S
O284 Mn279 2.251 . S
O284 C289 1.241 . S
O285 Mn279 2.087 . S
O285 C290 1.256 . S
C286 O292 1.278 . S
C286 O293 1.241 . S
C287 O273 1.244 . S
C287 O275 1.256 . S
C288 O277 1.239 . S
C288 O281 1.256 . S
C289 O278 1.278 . S
C289 O284 1.241 . S
C290 O280 1.244 . S
C290 O285 1.256 . S
C291 O282 1.239 . S
C291 O283 1.256 . S
O292 Mn274 2.221 . S
O292 Mn276 2.290 . S
O292 C286 1.278 . S
O293 Mn276 2.251 . S
O293 C286 1.241 . S
O294 Mn295 2.163 . S
O294 C308 1.244 1_545 S
Mn295 O294 2.163 . S
Mn295 O298 2.160 . S
Mn295 O299 2.221 . S
Mn295 O301 2.163 . S
Mn295 O303 2.160 1_545 S
Mn295 O313 2.221 . S
O296 Mn297 2.087 . S
O296 C308 1.256 . S
Mn297 O296 2.087 . S
Mn297 O304 2.089 . S
Mn297 O313 2.290 1_565 S
Mn297 O314 2.251 1_565 S
O298 Mn295 2.160 . S
O298 C309 1.239 . S
O299 Mn295 2.221 . S
O299 Mn300 2.290 . S
O299 C310 1.278 . S
Mn300 O299 2.290 . S
Mn300 O302 2.089 . S
Mn300 O305 2.251 . S
Mn300 O306 2.087 . S
O301 Mn295 2.163 . S
O301 C311 1.244 . S
O302 Mn300 2.089 . S
O302 C309 1.256 . S
O303 Mn295 2.160 1_565 S
O303 C312 1.239 . S
O304 Mn297 2.089 . S
O304 C312 1.256 . S
O305 Mn300 2.251 . S
O305 C310 1.241 . S
O306 Mn300 2.087 . S
O306 C311 1.256 . S
C307 O313 1.278 . S
C307 O314 1.241 . S
C308 O294 1.244 1_565 S
C308 O296 1.256 . S
C309 O298 1.239 . S
C309 O302 1.256 . S
C310 O299 1.278 . S
C310 O305 1.241 . S
C311 O301 1.244 . S
C311 O306 1.256 . S
C312 O303 1.239 . S
C312 O304 1.256 . S
O313 Mn295 2.221 . S
O313 Mn297 2.290 1_545 S
O313 C307 1.278 . S
O314 Mn297 2.251 1_545 S
O314 C307 1.241 . S
O315 Mn316 2.163 . S
O315 C329 1.244 . S
Mn316 O315 2.163 . S
Mn316 O319 2.160 . S
Mn316 O320 2.221 . S
Mn316 O322 2.163 . S
Mn316 O324 2.160 . S
Mn316 O334 2.221 . S
O317 Mn318 2.087 . S
O317 C329 1.256 . S
Mn318 O317 2.087 . S
Mn318 O325 2.089 . S
Mn318 O334 2.290 . S
Mn318 O335 2.251 . S
O319 Mn316 2.160 . S
O319 C330 1.239 . S
O320 Mn316 2.221 . S
O320 Mn321 2.290 . S
O320 C331 1.278 . S
Mn321 O320 2.290 . S
Mn321 O323 2.089 . S
Mn321 O326 2.251 . S
Mn321 O327 2.087 . S
O322 Mn316 2.163 . S
O322 C332 1.244 . S
O323 Mn321 2.089 . S
O323 C330 1.256 . S
O324 Mn316 2.160 . S
O324 C333 1.239 . S
O325 Mn318 2.089 . S
O325 C333 1.256 . S
O326 Mn321 2.251 . S
O326 C331 1.241 . S
O327 Mn321 2.087 . S
O327 C332 1.256 . S
C328 O334 1.278 . S
C328 O335 1.241 . S
C329 O315 1.244 . S
C329 O317 1.256 . S
C330 O319 1.239 . S
C330 O323 1.256 . S
C331 O320 1.278 . S
C331 O326 1.241 . S
C332 O322 1.244 . S
C332 O327 1.256 . S
C333 O324 1.239 . S
C333 O325 1.256 . S
O334 Mn316 2.221 . S
O334 Mn318 2.290 . S
O334 C328 1.278 . S
O335 Mn318 2.251 . S
O335 C328 1.241 . S
O336 Mn337 2.163 . S
O336 C350 1.244 1_554 S
Mn337 O336 2.163 . S
Mn337 O340 2.160 . S
Mn337 O341 2.221 . S
Mn337 O343 2.163 . S
Mn337 O345 2.160 1_554 S
Mn337 O355 2.221 . S
O338 Mn339 2.087 . S
O338 C350 1.256 . S
Mn339 O338 2.087 . S
Mn339 O346 2.089 . S
Mn339 O355 2.290 1_556 S
Mn339 O356 2.251 1_556 S
O340 Mn337 2.160 . S
O340 C351 1.239 . S
O341 Mn337 2.221 . S
O341 Mn342 2.290 . S
O341 C352 1.278 . S
Mn342 O341 2.290 . S
Mn342 O344 2.089 . S
Mn342 O347 2.251 . S
Mn342 O348 2.087 . S
O343 Mn337 2.163 . S
O343 C353 1.244 . S
O344 Mn342 2.089 . S
O344 C351 1.256 . S
O345 Mn337 2.160 1_556 S
O345 C354 1.239 . S
O346 Mn339 2.089 . S
O346 C354 1.256 . S
O347 Mn342 2.251 . S
O347 C352 1.241 . S
O348 Mn342 2.087 . S
O348 C353 1.256 . S
C349 O355 1.278 . S
C349 O356 1.241 . S
C350 O336 1.244 1_556 S
C350 O338 1.256 . S
C351 O340 1.239 . S
C351 O344 1.256 . S
C352 O341 1.278 . S
C352 O347 1.241 . S
C353 O343 1.244 . S
C353 O348 1.256 . S
C354 O345 1.239 . S
C354 O346 1.256 . S
O355 Mn337 2.221 . S
O355 Mn339 2.290 1_554 S
O355 C349 1.278 . S
O356 Mn339 2.251 1_554 S
O356 C349 1.241 . S
O357 Mn358 2.163 . S
O357 C371 1.244 1_556 S
Mn358 O357 2.163 . S
Mn358 O361 2.160 . S
Mn358 O362 2.221 . S
Mn358 O364 2.163 . S
Mn358 O366 2.160 1_556 S
Mn358 O376 2.221 . S
O359 Mn360 2.087 . S
O359 C371 1.256 . S
Mn360 O359 2.087 . S
Mn360 O367 2.089 . S
Mn360 O376 2.290 1_554 S
Mn360 O377 2.251 1_554 S
O361 Mn358 2.160 . S
O361 C372 1.239 . S
O362 Mn358 2.221 . S
O362 Mn363 2.290 . S
O362 C373 1.278 . S
Mn363 O362 2.290 . S
Mn363 O365 2.089 . S
Mn363 O368 2.251 . S
Mn363 O369 2.087 . S
O364 Mn358 2.163 . S
O364 C374 1.244 . S
O365 Mn363 2.089 . S
O365 C372 1.256 . S
O366 Mn358 2.160 1_554 S
O366 C375 1.239 . S
O367 Mn360 2.089 . S
O367 C375 1.256 . S
O368 Mn363 2.251 . S
O368 C373 1.241 . S
O369 Mn363 2.087 . S
O369 C374 1.256 . S
C370 O376 1.278 . S
C370 O377 1.241 . S
C371 O357 1.244 1_554 S
C371 O359 1.256 . S
C372 O361 1.239 . S
C372 O365 1.256 . S
C373 O362 1.278 . S
C373 O368 1.241 . S
C374 O364 1.244 . S
C374 O369 1.256 . S
C375 O366 1.239 . S
C375 O367 1.256 . S
O376 Mn358 2.221 . S
O376 Mn360 2.290 1_556 S
O376 C370 1.278 . S
O377 Mn360 2.251 1_556 S
O377 C370 1.241 . S
O378 Mn379 2.163 . S
O378 C392 1.244 . S
Mn379 O378 2.163 . S
Mn379 O382 2.160 . S
Mn379 O383 2.221 . S
Mn379 O385 2.163 . S
Mn379 O387 2.160 . S
Mn379 O397 2.221 . S
O380 Mn381 2.087 . S
O380 C392 1.256 . S
Mn381 O380 2.087 . S
Mn381 O388 2.089 . S
Mn381 O397 2.290 . S
Mn381 O398 2.251 . S
O382 Mn379 2.160 . S
O382 C393 1.239 . S
O383 Mn379 2.221 . S
O383 Mn384 2.290 . S
O383 C394 1.278 . S
Mn384 O383 2.290 . S
Mn384 O386 2.089 . S
Mn384 O389 2.251 . S
Mn384 O390 2.087 . S
O385 Mn379 2.163 . S
O385 C395 1.244 . S
O386 Mn384 2.089 . S
O386 C393 1.256 . S
O387 Mn379 2.160 . S
O387 C396 1.239 . S
O388 Mn381 2.089 . S
O388 C396 1.256 . S
O389 Mn384 2.251 . S
O389 C394 1.241 . S
O390 Mn384 2.087 . S
O390 C395 1.256 . S
C391 O397 1.278 . S
C391 O398 1.241 . S
C392 O378 1.244 . S
C392 O380 1.256 . S
C393 O382 1.239 . S
C393 O386 1.256 . S
C394 O383 1.278 . S
C394 O389 1.241 . S
C395 O385 1.244 . S
C395 O390 1.256 . S
C396 O387 1.239 . S
C396 O388 1.256 . S
O397 Mn379 2.221 . S
O397 Mn381 2.290 . S
O397 C391 1.278 . S
O398 Mn381 2.251 . S
O398 C391 1.241 . S
O399 Mn400 2.163 . S
O399 C413 1.244 . S
Mn400 O399 2.163 . S
Mn400 O403 2.160 . S
Mn400 O404 2.221 . S
Mn400 O406 2.163 . S
Mn400 O408 2.160 . S
Mn400 O418 2.221 . S
O401 Mn402 2.087 . S
O401 C413 1.256 . S
Mn402 O401 2.087 . S
Mn402 O409 2.089 . S
Mn402 O418 2.290 . S
Mn402 O419 2.251 . S
O403 Mn400 2.160 . S
O403 C414 1.239 . S
O404 Mn400 2.221 . S
O404 Mn405 2.290 . S
O404 C415 1.278 . S
Mn405 O404 2.290 . S
Mn405 O407 2.089 . S
Mn405 O410 2.251 . S
Mn405 O411 2.087 . S
O406 Mn400 2.163 . S
O406 C416 1.244 . S
O407 Mn405 2.089 . S
O407 C414 1.256 . S
O408 Mn400 2.160 . S
O408 C417 1.239 . S
O409 Mn402 2.089 . S
O409 C417 1.256 . S
O410 Mn405 2.251 . S
O410 C415 1.241 . S
O411 Mn405 2.087 . S
O411 C416 1.256 . S
C412 O418 1.278 . S
C412 O419 1.241 . S
C413 O399 1.244 . S
C413 O401 1.256 . S
C414 O403 1.239 . S
C414 O407 1.256 . S
C415 O404 1.278 . S
C415 O410 1.241 . S
C416 O406 1.244 . S
C416 O411 1.256 . S
C417 O408 1.239 . S
C417 O409 1.256 . S
O418 Mn400 2.221 . S
O418 Mn402 2.290 . S
O418 C412 1.278 . S
O419 Mn402 2.251 . S
O419 C412 1.241 . S
O420 Mn421 2.163 . S
O420 C434 1.244 . S
Mn421 O420 2.163 . S
Mn421 O424 2.160 . S
Mn421 O425 2.221 . S
Mn421 O427 2.163 . S
Mn421 O429 2.160 . S
Mn421 O439 2.221 . S
O422 Mn423 2.087 . S
O422 C434 1.256 . S
Mn423 O422 2.087 . S
Mn423 O430 2.089 . S
Mn423 O439 2.290 . S
Mn423 O440 2.251 . S
O424 Mn421 2.160 . S
O424 C435 1.239 . S
O425 Mn421 2.221 . S
O425 Mn426 2.290 . S
O425 C436 1.278 . S
Mn426 O425 2.290 . S
Mn426 O428 2.089 . S
Mn426 O431 2.251 . S
Mn426 O432 2.087 . S
O427 Mn421 2.163 . S
O427 C437 1.244 . S
O428 Mn426 2.089 . S
O428 C435 1.256 . S
O429 Mn421 2.160 . S
O429 C438 1.239 . S
O430 Mn423 2.089 . S
O430 C438 1.256 . S
O431 Mn426 2.251 . S
O431 C436 1.241 . S
O432 Mn426 2.087 . S
O432 C437 1.256 . S
C433 O439 1.278 . S
C433 O440 1.241 . S
C434 O420 1.244 . S
C434 O422 1.256 . S
C435 O424 1.239 . S
C435 O428 1.256 . S
C436 O425 1.278 . S
C436 O431 1.241 . S
C437 O427 1.244 . S
C437 O432 1.256 . S
C438 O429 1.239 . S
C438 O430 1.256 . S
O439 Mn421 2.221 . S
O439 Mn423 2.290 . S
O439 C433 1.278 . S
O440 Mn423 2.251 . S
O440 C433 1.241 . S
O441 Mn442 2.163 . S
O441 C455 1.244 . S
Mn442 O441 2.163 . S
Mn442 O445 2.160 . S
Mn442 O446 2.221 . S
Mn442 O448 2.163 . S
Mn442 O450 2.160 . S
Mn442 O460 2.221 . S
O443 Mn444 2.087 . S
O443 C455 1.256 . S
Mn444 O443 2.087 . S
Mn444 O451 2.089 . S
Mn444 O460 2.290 . S
Mn444 O461 2.251 . S
O445 Mn442 2.160 . S
O445 C456 1.239 . S
O446 Mn442 2.221 . S
O446 Mn447 2.290 . S
O446 C457 1.278 . S
Mn447 O446 2.290 . S
Mn447 O449 2.089 . S
Mn447 O452 2.251 . S
Mn447 O453 2.087 . S
O448 Mn442 2.163 . S
O448 C458 1.244 . S
O449 Mn447 2.089 . S
O449 C456 1.256 . S
O450 Mn442 2.160 . S
O450 C459 1.239 . S
O451 Mn444 2.089 . S
O451 C459 1.256 . S
O452 Mn447 2.251 . S
O452 C457 1.241 . S
O453 Mn447 2.087 . S
O453 C458 1.256 . S
C454 O460 1.278 . S
C454 O461 1.241 . S
C455 O441 1.244 . S
C455 O443 1.256 . S
C456 O445 1.239 . S
C456 O449 1.256 . S
C457 O446 1.278 . S
C457 O452 1.241 . S
C458 O448 1.244 . S
C458 O453 1.256 . S
C459 O450 1.239 . S
C459 O451 1.256 . S
O460 Mn442 2.221 . S
O460 Mn444 2.290 . S
O460 C454 1.278 . S
O461 Mn444 2.251 . S
O461 C454 1.241 . S
O462 Mn463 2.163 . S
O462 C476 1.244 . S
Mn463 O462 2.163 . S
Mn463 O466 2.160 . S
Mn463 O467 2.221 . S
Mn463 O469 2.163 . S
Mn463 O471 2.160 . S
Mn463 O481 2.221 . S
O464 Mn465 2.087 . S
O464 C476 1.256 . S
Mn465 O464 2.087 . S
Mn465 O472 2.089 . S
Mn465 O481 2.290 . S
Mn465 O482 2.251 . S
O466 Mn463 2.160 . S
O466 C477 1.239 . S
O467 Mn463 2.221 . S
O467 Mn468 2.290 . S
O467 C478 1.278 . S
Mn468 O467 2.290 . S
Mn468 O470 2.089 . S
Mn468 O473 2.251 . S
Mn468 O474 2.087 . S
O469 Mn463 2.163 . S
O469 C479 1.244 . S
O470 Mn468 2.089 . S
O470 C477 1.256 . S
O471 Mn463 2.160 . S
O471 C480 1.239 . S
O472 Mn465 2.089 . S
O472 C480 1.256 . S
O473 Mn468 2.251 . S
O473 C478 1.241 . S
O474 Mn468 2.087 . S
O474 C479 1.256 . S
C475 O481 1.278 . S
C475 O482 1.241 . S
C476 O462 1.244 . S
C476 O464 1.256 . S
C477 O466 1.239 . S
C477 O470 1.256 . S
C478 O467 1.278 . S
C478 O473 1.241 . S
C479 O469 1.244 . S
C479 O474 1.256 . S
C480 O471 1.239 . S
C480 O472 1.256 . S
O481 Mn463 2.221 . S
O481 Mn465 2.290 . S
O481 C475 1.278 . S
O482 Mn465 2.251 . S
O482 C475 1.241 . S
O483 Mn484 2.163 . S
O483 C497 1.244 . S
Mn484 O483 2.163 . S
Mn484 O487 2.160 . S
Mn484 O488 2.221 . S
Mn484 O490 2.163 . S
Mn484 O492 2.160 . S
Mn484 O502 2.221 . S
O485 Mn486 2.087 . S
O485 C497 1.256 . S
Mn486 O485 2.087 . S
Mn486 O493 2.089 . S
Mn486 O502 2.290 . S
Mn486 O503 2.251 . S
O487 Mn484 2.160 . S
O487 C498 1.239 . S
O488 Mn484 2.221 . S
O488 Mn489 2.290 . S
O488 C499 1.278 . S
Mn489 O488 2.290 . S
Mn489 O491 2.089 . S
Mn489 O494 2.251 . S
Mn489 O495 2.087 . S
O490 Mn484 2.163 . S
O490 C500 1.244 . S
O491 Mn489 2.089 . S
O491 C498 1.256 . S
O492 Mn484 2.160 . S
O492 C501 1.239 . S
O493 Mn486 2.089 . S
O493 C501 1.256 . S
O494 Mn489 2.251 . S
O494 C499 1.241 . S
O495 Mn489 2.087 . S
O495 C500 1.256 . S
C496 O502 1.278 . S
C496 O503 1.241 . S
C497 O483 1.244 . S
C497 O485 1.256 . S
C498 O487 1.239 . S
C498 O491 1.256 . S
C499 O488 1.278 . S
C499 O494 1.241 . S
C500 O490 1.244 . S
C500 O495 1.256 . S
C501 O492 1.239 . S
C501 O493 1.256 . S
O502 Mn484 2.221 . S
O502 Mn486 2.290 . S
O502 C496 1.278 . S
O503 Mn486 2.251 . S
O503 C496 1.241 . S
O504 Mn505 2.163 . S
O504 C518 1.244 1_655 S
Mn505 O504 2.163 . S
Mn505 O508 2.160 . S
Mn505 O509 2.221 . S
Mn505 O511 2.163 . S
Mn505 O513 2.160 1_655 S
Mn505 O523 2.221 . S
O506 Mn507 2.087 . S
O506 C518 1.256 . S
Mn507 O506 2.087 . S
Mn507 O514 2.089 . S
Mn507 O523 2.290 1_455 S
Mn507 O524 2.251 1_455 S
O508 Mn505 2.160 . S
O508 C519 1.239 . S
O509 Mn505 2.221 . S
O509 Mn510 2.290 . S
O509 C520 1.278 . S
Mn510 O509 2.290 . S
Mn510 O512 2.089 . S
Mn510 O515 2.251 . S
Mn510 O516 2.087 . S
O511 Mn505 2.163 . S
O511 C521 1.244 . S
O512 Mn510 2.089 . S
O512 C519 1.256 . S
O513 Mn505 2.160 1_455 S
O513 C522 1.239 . S
O514 Mn507 2.089 . S
O514 C522 1.256 . S
O515 Mn510 2.251 . S
O515 C520 1.241 . S
O516 Mn510 2.087 . S
O516 C521 1.256 . S
C517 O523 1.278 . S
C517 O524 1.241 . S
C518 O504 1.244 1_455 S
C518 O506 1.256 . S
C519 O508 1.239 . S
C519 O512 1.256 . S
C520 O509 1.278 . S
C520 O515 1.241 . S
C521 O511 1.244 . S
C521 O516 1.256 . S
C522 O513 1.239 . S
C522 O514 1.256 . S
O523 Mn505 2.221 . S
O523 Mn507 2.290 1_655 S
O523 C517 1.278 . S
O524 Mn507 2.251 1_655 S
O524 C517 1.241 . S
O525 Mn526 2.163 . S
O525 C539 1.244 . S
Mn526 O525 2.163 . S
Mn526 O529 2.160 . S
Mn526 O530 2.221 . S
Mn526 O532 2.163 . S
Mn526 O534 2.160 . S
Mn526 O544 2.221 . S
O527 Mn528 2.087 . S
O527 C539 1.256 . S
Mn528 O527 2.087 . S
Mn528 O535 2.089 . S
Mn528 O544 2.290 . S
Mn528 O545 2.251 . S
O529 Mn526 2.160 . S
O529 C540 1.239 . S
O530 Mn526 2.221 . S
O530 Mn531 2.290 . S
O530 C541 1.278 . S
Mn531 O530 2.290 . S
Mn531 O533 2.089 . S
Mn531 O536 2.251 . S
Mn531 O537 2.087 . S
O532 Mn526 2.163 . S
O532 C542 1.244 . S
O533 Mn531 2.089 . S
O533 C540 1.256 . S
O534 Mn526 2.160 . S
O534 C543 1.239 . S
O535 Mn528 2.089 . S
O535 C543 1.256 . S
O536 Mn531 2.251 . S
O536 C541 1.241 . S
O537 Mn531 2.087 . S
O537 C542 1.256 . S
C538 O544 1.278 . S
C538 O545 1.241 . S
C539 O525 1.244 . S
C539 O527 1.256 . S
C540 O529 1.239 . S
C540 O533 1.256 . S
C541 O530 1.278 . S
C541 O536 1.241 . S
C542 O532 1.244 . S
C542 O537 1.256 . S
C543 O534 1.239 . S
C543 O535 1.256 . S
O544 Mn526 2.221 . S
O544 Mn528 2.290 . S
O544 C538 1.278 . S
O545 Mn528 2.251 . S
O545 C538 1.241 . S
O546 Mn547 2.163 . S
O546 C560 1.244 . S
Mn547 O546 2.163 . S
Mn547 O550 2.160 . S
Mn547 O551 2.221 . S
Mn547 O553 2.163 . S
Mn547 O555 2.160 . S
Mn547 O565 2.221 . S
O548 Mn549 2.087 . S
O548 C560 1.256 . S
Mn549 O548 2.087 . S
Mn549 O556 2.089 . S
Mn549 O565 2.290 . S
Mn549 O566 2.251 . S
O550 Mn547 2.160 . S
O550 C561 1.239 . S
O551 Mn547 2.221 . S
O551 Mn552 2.290 . S
O551 C562 1.278 . S
Mn552 O551 2.290 . S
Mn552 O554 2.089 . S
Mn552 O557 2.251 . S
Mn552 O558 2.087 . S
O553 Mn547 2.163 . S
O553 C563 1.244 . S
O554 Mn552 2.089 . S
O554 C561 1.256 . S
O555 Mn547 2.160 . S
O555 C564 1.239 . S
O556 Mn549 2.089 . S
O556 C564 1.256 . S
O557 Mn552 2.251 . S
O557 C562 1.241 . S
O558 Mn552 2.087 . S
O558 C563 1.256 . S
C559 O565 1.278 . S
C559 O566 1.241 . S
C560 O546 1.244 . S
C560 O548 1.256 . S
C561 O550 1.239 . S
C561 O554 1.256 . S
C562 O551 1.278 . S
C562 O557 1.241 . S
C563 O553 1.244 . S
C563 O558 1.256 . S
C564 O555 1.239 . S
C564 O556 1.256 . S
O565 Mn547 2.221 . S
O565 Mn549 2.290 . S
O565 C559 1.278 . S
O566 Mn549 2.251 . S
O566 C559 1.241 . S
O567 Mn568 2.163 . S
O567 C581 1.244 . S
Mn568 O567 2.163 . S
Mn568 O571 2.160 . S
Mn568 O572 2.221 . S
Mn568 O574 2.163 . S
Mn568 O576 2.160 . S
Mn568 O586 2.221 . S
O569 Mn570 2.087 . S
O569 C581 1.256 . S
Mn570 O569 2.087 . S
Mn570 O577 2.089 . S
Mn570 O586 2.290 . S
Mn570 O587 2.251 . S
O571 Mn568 2.160 . S
O571 C582 1.239 . S
O572 Mn568 2.221 . S
O572 Mn573 2.290 . S
O572 C583 1.278 . S
Mn573 O572 2.290 . S
Mn573 O575 2.089 . S
Mn573 O578 2.251 . S
Mn573 O579 2.087 . S
O574 Mn568 2.163 . S
O574 C584 1.244 . S
O575 Mn573 2.089 . S
O575 C582 1.256 . S
O576 Mn568 2.160 . S
O576 C585 1.239 . S
O577 Mn570 2.089 . S
O577 C585 1.256 . S
O578 Mn573 2.251 . S
O578 C583 1.241 . S
O579 Mn573 2.087 . S
O579 C584 1.256 . S
C580 O586 1.278 . S
C580 O587 1.241 . S
C581 O567 1.244 . S
C581 O569 1.256 . S
C582 O571 1.239 . S
C582 O575 1.256 . S
C583 O572 1.278 . S
C583 O578 1.241 . S
C584 O574 1.244 . S
C584 O579 1.256 . S
C585 O576 1.239 . S
C585 O577 1.256 . S
O586 Mn568 2.221 . S
O586 Mn570 2.290 . S
O586 C580 1.278 . S
O587 Mn570 2.251 . S
O587 C580 1.241 . S
O588 Mn589 2.163 . S
O588 C602 1.244 1_655 S
Mn589 O588 2.163 . S
Mn589 O592 2.160 . S
Mn589 O593 2.221 . S
Mn589 O595 2.163 . S
Mn589 O597 2.160 1_655 S
Mn589 O607 2.221 . S
O590 Mn591 2.087 . S
O590 C602 1.256 . S
Mn591 O590 2.087 . S
Mn591 O598 2.089 . S
Mn591 O607 2.290 1_455 S
Mn591 O608 2.251 1_455 S
O592 Mn589 2.160 . S
O592 C603 1.239 . S
O593 Mn589 2.221 . S
O593 Mn594 2.290 . S
O593 C604 1.278 . S
Mn594 O593 2.290 . S
Mn594 O596 2.089 . S
Mn594 O599 2.251 . S
Mn594 O600 2.087 . S
O595 Mn589 2.163 . S
O595 C605 1.244 . S
O596 Mn594 2.089 . S
O596 C603 1.256 . S
O597 Mn589 2.160 1_455 S
O597 C606 1.239 . S
O598 Mn591 2.089 . S
O598 C606 1.256 . S
O599 Mn594 2.251 . S
O599 C604 1.241 . S
O600 Mn594 2.087 . S
O600 C605 1.256 . S
C601 O607 1.278 . S
C601 O608 1.241 . S
C602 O588 1.244 1_455 S
C602 O590 1.256 . S
C603 O592 1.239 . S
C603 O596 1.256 . S
C604 O593 1.278 . S
C604 O599 1.241 . S
C605 O595 1.244 . S
C605 O600 1.256 . S
C606 O597 1.239 . S
C606 O598 1.256 . S
O607 Mn589 2.221 . S
O607 Mn591 2.290 1_655 S
O607 C601 1.278 . S
O608 Mn591 2.251 1_655 S
O608 C601 1.241 . S
O609 Mn610 2.163 . S
O609 C623 1.244 . S
Mn610 O609 2.163 . S
Mn610 O613 2.160 . S
Mn610 O614 2.221 . S
Mn610 O616 2.163 . S
Mn610 O618 2.160 . S
Mn610 O628 2.221 . S
O611 Mn612 2.087 . S
O611 C623 1.256 . S
Mn612 O611 2.087 . S
Mn612 O619 2.089 . S
Mn612 O628 2.290 . S
Mn612 O629 2.251 . S
O613 Mn610 2.160 . S
O613 C624 1.239 . S
O614 Mn610 2.221 . S
O614 Mn615 2.290 . S
O614 C625 1.278 . S
Mn615 O614 2.290 . S
Mn615 O617 2.089 . S
Mn615 O620 2.251 . S
Mn615 O621 2.087 . S
O616 Mn610 2.163 . S
O616 C626 1.244 . S
O617 Mn615 2.089 . S
O617 C624 1.256 . S
O618 Mn610 2.160 . S
O618 C627 1.239 . S
O619 Mn612 2.089 . S
O619 C627 1.256 . S
O620 Mn615 2.251 . S
O620 C625 1.241 . S
O621 Mn615 2.087 . S
O621 C626 1.256 . S
C622 O628 1.278 . S
C622 O629 1.241 . S
C623 O609 1.244 . S
C623 O611 1.256 . S
C624 O613 1.239 . S
C624 O617 1.256 . S
C625 O614 1.278 . S
C625 O620 1.241 . S
C626 O616 1.244 . S
C626 O621 1.256 . S
C627 O618 1.239 . S
C627 O619 1.256 . S
O628 Mn610 2.221 . S
O628 Mn612 2.290 . S
O628 C622 1.278 . S
O629 Mn612 2.251 . S
O629 C622 1.241 . S
O630 Mn631 2.163 . S
O630 C644 1.244 . S
Mn631 O630 2.163 . S
Mn631 O634 2.160 . S
Mn631 O635 2.221 . S
Mn631 O637 2.163 . S
Mn631 O639 2.160 . S
Mn631 O649 2.221 . S
O632 Mn633 2.087 . S
O632 C644 1.256 . S
Mn633 O632 2.087 . S
Mn633 O640 2.089 . S
Mn633 O649 2.290 . S
Mn633 O650 2.251 . S
O634 Mn631 2.160 . S
O634 C645 1.239 . S
O635 Mn631 2.221 . S
O635 Mn636 2.290 . S
O635 C646 1.278 . S
Mn636 O635 2.290 . S
Mn636 O638 2.089 . S
Mn636 O641 2.251 . S
Mn636 O642 2.087 . S
O637 Mn631 2.163 . S
O637 C647 1.244 . S
O638 Mn636 2.089 . S
O638 C645 1.256 . S
O639 Mn631 2.160 . S
O639 C648 1.239 . S
O640 Mn633 2.089 . S
O640 C648 1.256 . S
O641 Mn636 2.251 . S
O641 C646 1.241 . S
O642 Mn636 2.087 . S
O642 C647 1.256 . S
C643 O649 1.278 . S
C643 O650 1.241 . S
C644 O630 1.244 . S
C644 O632 1.256 . S
C645 O634 1.239 . S
C645 O638 1.256 . S
C646 O635 1.278 . S
C646 O641 1.241 . S
C647 O637 1.244 . S
C647 O642 1.256 . S
C648 O639 1.239 . S
C648 O640 1.256 . S
O649 Mn631 2.221 . S
O649 Mn633 2.290 . S
O649 C643 1.278 . S
O650 Mn633 2.251 . S
O650 C643 1.241 . S
O651 Mn652 2.163 . S
O651 C665 1.244 . S
Mn652 O651 2.163 . S
Mn652 O655 2.160 . S
Mn652 O656 2.221 . S
Mn652 O658 2.163 . S
Mn652 O660 2.160 . S
Mn652 O670 2.221 . S
O653 Mn654 2.087 . S
O653 C665 1.256 . S
Mn654 O653 2.087 . S
Mn654 O661 2.089 . S
Mn654 O670 2.290 . S
Mn654 O671 2.251 . S
O655 Mn652 2.160 . S
O655 C666 1.239 . S
O656 Mn652 2.221 . S
O656 Mn657 2.290 . S
O656 C667 1.278 . S
Mn657 O656 2.290 . S
Mn657 O659 2.089 . S
Mn657 O662 2.251 . S
Mn657 O663 2.087 . S
O658 Mn652 2.163 . S
O658 C668 1.244 . S
O659 Mn657 2.089 . S
O659 C666 1.256 . S
O660 Mn652 2.160 . S
O660 C669 1.239 . S
O661 Mn654 2.089 . S
O661 C669 1.256 . S
O662 Mn657 2.251 . S
O662 C667 1.241 . S
O663 Mn657 2.087 . S
O663 C668 1.256 . S
C664 O670 1.278 . S
C664 O671 1.241 . S
C665 O651 1.244 . S
C665 O653 1.256 . S
C666 O655 1.239 . S
C666 O659 1.256 . S
C667 O656 1.278 . S
C667 O662 1.241 . S
C668 O658 1.244 . S
C668 O663 1.256 . S
C669 O660 1.239 . S
C669 O661 1.256 . S
O670 Mn652 2.221 . S
O670 Mn654 2.290 . S
O670 C664 1.278 . S
O671 Mn654 2.251 . S
O671 C664 1.241 . S
O672 Mn673 2.163 . S
O672 C686 1.244 1_565 S
Mn673 O672 2.163 . S
Mn673 O676 2.160 . S
Mn673 O677 2.221 . S
Mn673 O679 2.163 . S
Mn673 O681 2.160 1_565 S
Mn673 O691 2.221 . S
O674 Mn675 2.087 . S
O674 C686 1.256 . S
Mn675 O674 2.087 . S
Mn675 O682 2.089 . S
Mn675 O691 2.290 1_545 S
Mn675 O692 2.251 1_545 S
O676 Mn673 2.160 . S
O676 C687 1.239 . S
O677 Mn673 2.221 . S
O677 Mn678 2.290 . S
O677 C688 1.278 . S
Mn678 O677 2.290 . S
Mn678 O680 2.089 . S
Mn678 O683 2.251 . S
Mn678 O684 2.087 . S
O679 Mn673 2.163 . S
O679 C689 1.244 . S
O680 Mn678 2.089 . S
O680 C687 1.256 . S
O681 Mn673 2.160 1_545 S
O681 C690 1.239 . S
O682 Mn675 2.089 . S
O682 C690 1.256 . S
O683 Mn678 2.251 . S
O683 C688 1.241 . S
O684 Mn678 2.087 . S
O684 C689 1.256 . S
C685 O691 1.278 . S
C685 O692 1.241 . S
C686 O672 1.244 1_545 S
C686 O674 1.256 . S
C687 O676 1.239 . S
C687 O680 1.256 . S
C688 O677 1.278 . S
C688 O683 1.241 . S
C689 O679 1.244 . S
C689 O684 1.256 . S
C690 O681 1.239 . S
C690 O682 1.256 . S
O691 Mn673 2.221 . S
O691 Mn675 2.290 1_565 S
O691 C685 1.278 . S
O692 Mn675 2.251 1_565 S
O692 C685 1.241 . S
O693 Mn694 2.163 . S
O693 C707 1.244 . S
Mn694 O693 2.163 . S
Mn694 O697 2.160 . S
Mn694 O698 2.221 . S
Mn694 O700 2.163 . S
Mn694 O702 2.160 . S
Mn694 O712 2.221 . S
O695 Mn696 2.087 . S
O695 C707 1.256 . S
Mn696 O695 2.087 . S
Mn696 O703 2.089 . S
Mn696 O712 2.290 . S
Mn696 O713 2.251 . S
O697 Mn694 2.160 . S
O697 C708 1.239 . S
O698 Mn694 2.221 . S
O698 Mn699 2.290 . S
O698 C709 1.278 . S
Mn699 O698 2.290 . S
Mn699 O701 2.089 . S
Mn699 O704 2.251 . S
Mn699 O705 2.087 . S
O700 Mn694 2.163 . S
O700 C710 1.244 . S
O701 Mn699 2.089 . S
O701 C708 1.256 . S
O702 Mn694 2.160 . S
O702 C711 1.239 . S
O703 Mn696 2.089 . S
O703 C711 1.256 . S
O704 Mn699 2.251 . S
O704 C709 1.241 . S
O705 Mn699 2.087 . S
O705 C710 1.256 . S
C706 O712 1.278 . S
C706 O713 1.241 . S
C707 O693 1.244 . S
C707 O695 1.256 . S
C708 O697 1.239 . S
C708 O701 1.256 . S
C709 O698 1.278 . S
C709 O704 1.241 . S
C710 O700 1.244 . S
C710 O705 1.256 . S
C711 O702 1.239 . S
C711 O703 1.256 . S
O712 Mn694 2.221 . S
O712 Mn696 2.290 . S
O712 C706 1.278 . S
O713 Mn696 2.251 . S
O713 C706 1.241 . S
O714 Mn715 2.163 . S
O714 C728 1.244 1_545 S
Mn715 O714 2.163 . S
Mn715 O718 2.160 . S
Mn715 O719 2.221 . S
Mn715 O721 2.163 . S
Mn715 O723 2.160 1_545 S
Mn715 O733 2.221 . S
O716 Mn717 2.087 . S
O716 C728 1.256 . S
Mn717 O716 2.087 . S
Mn717 O724 2.089 . S
Mn717 O733 2.290 1_565 S
Mn717 O734 2.251 1_565 S
O718 Mn715 2.160 . S
O718 C729 1.239 . S
O719 Mn715 2.221 . S
O719 Mn720 2.290 . S
O719 C730 1.278 . S
Mn720 O719 2.290 . S
Mn720 O722 2.089 . S
Mn720 O725 2.251 . S
Mn720 O726 2.087 . S
O721 Mn715 2.163 . S
O721 C731 1.244 . S
O722 Mn720 2.089 . S
O722 C729 1.256 . S
O723 Mn715 2.160 1_565 S
O723 C732 1.239 . S
O724 Mn717 2.089 . S
O724 C732 1.256 . S
O725 Mn720 2.251 . S
O725 C730 1.241 . S
O726 Mn720 2.087 . S
O726 C731 1.256 . S
C727 O733 1.278 . S
C727 O734 1.241 . S
C728 O714 1.244 1_565 S
C728 O716 1.256 . S
C729 O718 1.239 . S
C729 O722 1.256 . S
C730 O719 1.278 . S
C730 O725 1.241 . S
C731 O721 1.244 . S
C731 O726 1.256 . S
C732 O723 1.239 . S
C732 O724 1.256 . S
O733 Mn715 2.221 . S
O733 Mn717 2.290 1_545 S
O733 C727 1.278 . S
O734 Mn717 2.251 1_545 S
O734 C727 1.241 . S
O735 Mn736 2.163 . S
O735 C749 1.244 . S
Mn736 O735 2.163 . S
Mn736 O739 2.160 . S
Mn736 O740 2.221 . S
Mn736 O742 2.163 . S
Mn736 O744 2.160 . S
Mn736 O754 2.221 . S
O737 Mn738 2.087 . S
O737 C749 1.256 . S
Mn738 O737 2.087 . S
Mn738 O745 2.089 . S
Mn738 O754 2.290 . S
Mn738 O755 2.251 . S
O739 Mn736 2.160 . S
O739 C750 1.239 . S
O740 Mn736 2.221 . S
O740 Mn741 2.290 . S
O740 C751 1.278 . S
Mn741 O740 2.290 . S
Mn741 O743 2.089 . S
Mn741 O746 2.251 . S
Mn741 O747 2.087 . S
O742 Mn736 2.163 . S
O742 C752 1.244 . S
O743 Mn741 2.089 . S
O743 C750 1.256 . S
O744 Mn736 2.160 . S
O744 C753 1.239 . S
O745 Mn738 2.089 . S
O745 C753 1.256 . S
O746 Mn741 2.251 . S
O746 C751 1.241 . S
O747 Mn741 2.087 . S
O747 C752 1.256 . S
C748 O754 1.278 . S
C748 O755 1.241 . S
C749 O735 1.244 . S
C749 O737 1.256 . S
C750 O739 1.239 . S
C750 O743 1.256 . S
C751 O740 1.278 . S
C751 O746 1.241 . S
C752 O742 1.244 . S
C752 O747 1.256 . S
C753 O744 1.239 . S
C753 O745 1.256 . S
O754 Mn736 2.221 . S
O754 Mn738 2.290 . S
O754 C748 1.278 . S
O755 Mn738 2.251 . S
O755 C748 1.241 . S
O756 Mn757 2.163 . S
O756 C770 1.244 . S
Mn757 O756 2.163 . S
Mn757 O760 2.160 1_545 S
Mn757 O761 2.221 . S
Mn757 O763 2.163 . S
Mn757 O765 2.160 . S
Mn757 O775 2.221 . S
O758 Mn759 2.087 . S
O758 C770 1.256 . S
Mn759 O758 2.087 . S
Mn759 O766 2.089 . S
Mn759 O775 2.290 . S
Mn759 O776 2.251 . S
O760 Mn757 2.160 1_565 S
O760 C771 1.239 . S
O761 Mn757 2.221 . S
O761 Mn762 2.290 1_545 S
O761 C772 1.278 . S
Mn762 O761 2.290 1_565 S
Mn762 O764 2.089 . S
Mn762 O767 2.251 1_565 S
Mn762 O768 2.087 . S
O763 Mn757 2.163 . S
O763 C773 1.244 1_545 S
O764 Mn762 2.089 . S
O764 C771 1.256 . S
O765 Mn757 2.160 . S
O765 C774 1.239 . S
O766 Mn759 2.089 . S
O766 C774 1.256 . S
O767 Mn762 2.251 1_545 S
O767 C772 1.241 . S
O768 Mn762 2.087 . S
O768 C773 1.256 . S
C769 O775 1.278 . S
C769 O776 1.241 . S
C770 O756 1.244 . S
C770 O758 1.256 . S
C771 O760 1.239 . S
C771 O764 1.256 . S
C772 O761 1.278 . S
C772 O767 1.241 . S
C773 O763 1.244 1_565 S
C773 O768 1.256 . S
C774 O765 1.239 . S
C774 O766 1.256 . S
O775 Mn757 2.221 . S
O775 Mn759 2.290 . S
O775 C769 1.278 . S
O776 Mn759 2.251 . S
O776 C769 1.241 . S
O777 Mn778 2.163 . S
O777 C791 1.244 . S
Mn778 O777 2.163 . S
Mn778 O781 2.160 . S
Mn778 O782 2.221 . S
Mn778 O784 2.163 . S
Mn778 O786 2.160 . S
Mn778 O796 2.221 . S
O779 Mn780 2.087 . S
O779 C791 1.256 . S
Mn780 O779 2.087 . S
Mn780 O787 2.089 . S
Mn780 O796 2.290 . S
Mn780 O797 2.251 . S
O781 Mn778 2.160 . S
O781 C792 1.239 . S
O782 Mn778 2.221 . S
O782 Mn783 2.290 . S
O782 C793 1.278 . S
Mn783 O782 2.290 . S
Mn783 O785 2.089 . S
Mn783 O788 2.251 . S
Mn783 O789 2.087 . S
O784 Mn778 2.163 . S
O784 C794 1.244 . S
O785 Mn783 2.089 . S
O785 C792 1.256 . S
O786 Mn778 2.160 . S
O786 C795 1.239 . S
O787 Mn780 2.089 . S
O787 C795 1.256 . S
O788 Mn783 2.251 . S
O788 C793 1.241 . S
O789 Mn783 2.087 . S
O789 C794 1.256 . S
C790 O796 1.278 . S
C790 O797 1.241 . S
C791 O777 1.244 . S
C791 O779 1.256 . S
C792 O781 1.239 . S
C792 O785 1.256 . S
C793 O782 1.278 . S
C793 O788 1.241 . S
C794 O784 1.244 . S
C794 O789 1.256 . S
C795 O786 1.239 . S
C795 O787 1.256 . S
O796 Mn778 2.221 . S
O796 Mn780 2.290 . S
O796 C790 1.278 . S
O797 Mn780 2.251 . S
O797 C790 1.241 . S
O798 Mn799 2.163 . S
O798 C812 1.244 1_565 S
Mn799 O798 2.163 . S
Mn799 O802 2.160 . S
Mn799 O803 2.221 . S
Mn799 O805 2.163 . S
Mn799 O807 2.160 1_565 S
Mn799 O817 2.221 . S
O800 Mn801 2.087 . S
O800 C812 1.256 . S
Mn801 O800 2.087 . S
Mn801 O808 2.089 . S
Mn801 O817 2.290 1_545 S
Mn801 O818 2.251 1_545 S
O802 Mn799 2.160 . S
O802 C813 1.239 . S
O803 Mn799 2.221 . S
O803 Mn804 2.290 . S
O803 C814 1.278 . S
Mn804 O803 2.290 . S
Mn804 O806 2.089 . S
Mn804 O809 2.251 . S
Mn804 O810 2.087 . S
O805 Mn799 2.163 . S
O805 C815 1.244 . S
O806 Mn804 2.089 . S
O806 C813 1.256 . S
O807 Mn799 2.160 1_545 S
O807 C816 1.239 . S
O808 Mn801 2.089 . S
O808 C816 1.256 . S
O809 Mn804 2.251 . S
O809 C814 1.241 . S
O810 Mn804 2.087 . S
O810 C815 1.256 . S
C811 O817 1.278 . S
C811 O818 1.241 . S
C812 O798 1.244 1_545 S
C812 O800 1.256 . S
C813 O802 1.239 . S
C813 O806 1.256 . S
C814 O803 1.278 . S
C814 O809 1.241 . S
C815 O805 1.244 . S
C815 O810 1.256 . S
C816 O807 1.239 . S
C816 O808 1.256 . S
O817 Mn799 2.221 . S
O817 Mn801 2.290 1_565 S
O817 C811 1.278 . S
O818 Mn801 2.251 1_565 S
O818 C811 1.241 . S
O819 Mn820 2.163 . S
O819 C833 1.244 . S
Mn820 O819 2.163 . S
Mn820 O823 2.160 . S
Mn820 O824 2.221 . S
Mn820 O826 2.163 . S
Mn820 O828 2.160 . S
Mn820 O838 2.221 . S
O821 Mn822 2.087 . S
O821 C833 1.256 . S
Mn822 O821 2.087 . S
Mn822 O829 2.089 . S
Mn822 O838 2.290 . S
Mn822 O839 2.251 . S
O823 Mn820 2.160 . S
O823 C834 1.239 . S
O824 Mn820 2.221 . S
O824 Mn825 2.290 . S
O824 C835 1.278 . S
Mn825 O824 2.290 . S
Mn825 O827 2.089 . S
Mn825 O830 2.251 . S
Mn825 O831 2.087 . S
O826 Mn820 2.163 . S
O826 C836 1.244 . S
O827 Mn825 2.089 . S
O827 C834 1.256 . S
O828 Mn820 2.160 . S
O828 C837 1.239 . S
O829 Mn822 2.089 . S
O829 C837 1.256 . S
O830 Mn825 2.251 . S
O830 C835 1.241 . S
O831 Mn825 2.087 . S
O831 C836 1.256 . S
C832 O838 1.278 . S
C832 O839 1.241 . S
C833 O819 1.244 . S
C833 O821 1.256 . S
C834 O823 1.239 . S
C834 O827 1.256 . S
C835 O824 1.278 . S
C835 O830 1.241 . S
C836 O826 1.244 . S
C836 O831 1.256 . S
C837 O828 1.239 . S
C837 O829 1.256 . S
O838 Mn820 2.221 . S
O838 Mn822 2.290 . S
O838 C832 1.278 . S
O839 Mn822 2.251 . S
O839 C832 1.241 . S
O840 Mn841 2.163 . S
O840 C854 1.244 1_556 S
Mn841 O840 2.163 . S
Mn841 O844 2.160 . S
Mn841 O845 2.221 . S
Mn841 O847 2.163 . S
Mn841 O849 2.160 1_556 S
Mn841 O859 2.221 . S
O842 Mn843 2.087 . S
O842 C854 1.256 . S
Mn843 O842 2.087 . S
Mn843 O850 2.089 . S
Mn843 O859 2.290 1_554 S
Mn843 O860 2.251 1_554 S
O844 Mn841 2.160 . S
O844 C855 1.239 . S
O845 Mn841 2.221 . S
O845 Mn846 2.290 . S
O845 C856 1.278 . S
Mn846 O845 2.290 . S
Mn846 O848 2.089 . S
Mn846 O851 2.251 . S
Mn846 O852 2.087 . S
O847 Mn841 2.163 . S
O847 C857 1.244 . S
O848 Mn846 2.089 . S
O848 C855 1.256 . S
O849 Mn841 2.160 1_554 S
O849 C858 1.239 . S
O850 Mn843 2.089 . S
O850 C858 1.256 . S
O851 Mn846 2.251 . S
O851 C856 1.241 . S
O852 Mn846 2.087 . S
O852 C857 1.256 . S
C853 O859 1.278 . S
C853 O860 1.241 . S
C854 O840 1.244 1_554 S
C854 O842 1.256 . S
C855 O844 1.239 . S
C855 O848 1.256 . S
C856 O845 1.278 . S
C856 O851 1.241 . S
C857 O847 1.244 . S
C857 O852 1.256 . S
C858 O849 1.239 . S
C858 O850 1.256 . S
O859 Mn841 2.221 . S
O859 Mn843 2.290 1_556 S
O859 C853 1.278 . S
O860 Mn843 2.251 1_556 S
O860 C853 1.241 . S
O861 Mn862 2.163 . S
O861 C875 1.244 1_554 S
Mn862 O861 2.163 . S
Mn862 O865 2.160 . S
Mn862 O866 2.221 . S
Mn862 O868 2.163 . S
Mn862 O870 2.160 1_554 S
Mn862 O880 2.221 . S
O863 Mn864 2.087 . S
O863 C875 1.256 . S
Mn864 O863 2.087 . S
Mn864 O871 2.089 . S
Mn864 O880 2.290 1_556 S
Mn864 O881 2.251 1_556 S
O865 Mn862 2.160 . S
O865 C876 1.239 . S
O866 Mn862 2.221 . S
O866 Mn867 2.290 . S
O866 C877 1.278 . S
Mn867 O866 2.290 . S
Mn867 O869 2.089 . S
Mn867 O872 2.251 . S
Mn867 O873 2.087 . S
O868 Mn862 2.163 . S
O868 C878 1.244 . S
O869 Mn867 2.089 . S
O869 C876 1.256 . S
O870 Mn862 2.160 1_556 S
O870 C879 1.239 . S
O871 Mn864 2.089 . S
O871 C879 1.256 . S
O872 Mn867 2.251 . S
O872 C877 1.241 . S
O873 Mn867 2.087 . S
O873 C878 1.256 . S
C874 O880 1.278 . S
C874 O881 1.241 . S
C875 O861 1.244 1_556 S
C875 O863 1.256 . S
C876 O865 1.239 . S
C876 O869 1.256 . S
C877 O866 1.278 . S
C877 O872 1.241 . S
C878 O868 1.244 . S
C878 O873 1.256 . S
C879 O870 1.239 . S
C879 O871 1.256 . S
O880 Mn862 2.221 . S
O880 Mn864 2.290 1_554 S
O880 C874 1.278 . S
O881 Mn864 2.251 1_554 S
O881 C874 1.241 . S
O882 Mn883 2.163 . S
O882 C896 1.244 . S
Mn883 O882 2.163 . S
Mn883 O886 2.160 . S
Mn883 O887 2.221 . S
Mn883 O889 2.163 . S
Mn883 O891 2.160 . S
Mn883 O901 2.221 . S
O884 Mn885 2.087 . S
O884 C896 1.256 . S
Mn885 O884 2.087 . S
Mn885 O892 2.089 . S
Mn885 O901 2.290 . S
Mn885 O902 2.251 . S
O886 Mn883 2.160 . S
O886 C897 1.239 . S
O887 Mn883 2.221 . S
O887 Mn888 2.290 . S
O887 C898 1.278 . S
Mn888 O887 2.290 . S
Mn888 O890 2.089 . S
Mn888 O893 2.251 . S
Mn888 O894 2.087 . S
O889 Mn883 2.163 . S
O889 C899 1.244 . S
O890 Mn888 2.089 . S
O890 C897 1.256 . S
O891 Mn883 2.160 . S
O891 C900 1.239 . S
O892 Mn885 2.089 . S
O892 C900 1.256 . S
O893 Mn888 2.251 . S
O893 C898 1.241 . S
O894 Mn888 2.087 . S
O894 C899 1.256 . S
C895 O901 1.278 . S
C895 O902 1.241 . S
C896 O882 1.244 . S
C896 O884 1.256 . S
C897 O886 1.239 . S
C897 O890 1.256 . S
C898 O887 1.278 . S
C898 O893 1.241 . S
C899 O889 1.244 . S
C899 O894 1.256 . S
C900 O891 1.239 . S
C900 O892 1.256 . S
O901 Mn883 2.221 . S
O901 Mn885 2.290 . S
O901 C895 1.278 . S
O902 Mn885 2.251 . S
O902 C895 1.241 . S
O903 Mn904 2.163 . S
O903 C917 1.244 . S
Mn904 O903 2.163 . S
Mn904 O907 2.160 . S
Mn904 O908 2.221 . S
Mn904 O910 2.163 . S
Mn904 O912 2.160 . S
Mn904 O922 2.221 . S
O905 Mn906 2.087 . S
O905 C917 1.256 . S
Mn906 O905 2.087 . S
Mn906 O913 2.089 . S
Mn906 O922 2.290 . S
Mn906 O923 2.251 . S
O907 Mn904 2.160 . S
O907 C918 1.239 . S
O908 Mn904 2.221 . S
O908 Mn909 2.290 . S
O908 C919 1.278 . S
Mn909 O908 2.290 . S
Mn909 O911 2.089 . S
Mn909 O914 2.251 . S
Mn909 O915 2.087 . S
O910 Mn904 2.163 . S
O910 C920 1.244 . S
O911 Mn909 2.089 . S
O911 C918 1.256 . S
O912 Mn904 2.160 . S
O912 C921 1.239 . S
O913 Mn906 2.089 . S
O913 C921 1.256 . S
O914 Mn909 2.251 . S
O914 C919 1.241 . S
O915 Mn909 2.087 . S
O915 C920 1.256 . S
C916 O922 1.278 . S
C916 O923 1.241 . S
C917 O903 1.244 . S
C917 O905 1.256 . S
C918 O907 1.239 . S
C918 O911 1.256 . S
C919 O908 1.278 . S
C919 O914 1.241 . S
C920 O910 1.244 . S
C920 O915 1.256 . S
C921 O912 1.239 . S
C921 O913 1.256 . S
O922 Mn904 2.221 . S
O922 Mn906 2.290 . S
O922 C916 1.278 . S
O923 Mn906 2.251 . S
O923 C916 1.241 . S
O924 Mn925 2.163 . S
O924 C938 1.244 . S
Mn925 O924 2.163 . S
Mn925 O928 2.160 . S
Mn925 O929 2.221 . S
Mn925 O931 2.163 . S
Mn925 O933 2.160 . S
Mn925 O943 2.221 . S
O926 Mn927 2.087 . S
O926 C938 1.256 . S
Mn927 O926 2.087 . S
Mn927 O934 2.089 . S
Mn927 O943 2.290 . S
Mn927 O944 2.251 . S
O928 Mn925 2.160 . S
O928 C939 1.239 . S
O929 Mn925 2.221 . S
O929 Mn930 2.290 . S
O929 C940 1.278 . S
Mn930 O929 2.290 . S
Mn930 O932 2.089 . S
Mn930 O935 2.251 . S
Mn930 O936 2.087 . S
O931 Mn925 2.163 . S
O931 C941 1.244 . S
O932 Mn930 2.089 . S
O932 C939 1.256 . S
O933 Mn925 2.160 . S
O933 C942 1.239 . S
O934 Mn927 2.089 . S
O934 C942 1.256 . S
O935 Mn930 2.251 . S
O935 C940 1.241 . S
O936 Mn930 2.087 . S
O936 C941 1.256 . S
C937 O943 1.278 . S
C937 O944 1.241 . S
C938 O924 1.244 . S
C938 O926 1.256 . S
C939 O928 1.239 . S
C939 O932 1.256 . S
C940 O929 1.278 . S
C940 O935 1.241 . S
C941 O931 1.244 . S
C941 O936 1.256 . S
C942 O933 1.239 . S
C942 O934 1.256 . S
O943 Mn925 2.221 . S
O943 Mn927 2.290 . S
O943 C937 1.278 . S
O944 Mn927 2.251 . S
O944 C937 1.241 . S
O945 Mn946 2.163 . S
O945 C959 1.244 . S
Mn946 O945 2.163 . S
Mn946 O949 2.160 . S
Mn946 O950 2.221 . S
Mn946 O952 2.163 . S
Mn946 O954 2.160 . S
Mn946 O964 2.221 . S
O947 Mn948 2.087 . S
O947 C959 1.256 . S
Mn948 O947 2.087 . S
Mn948 O955 2.089 . S
Mn948 O964 2.290 . S
Mn948 O965 2.251 . S
O949 Mn946 2.160 . S
O949 C960 1.239 . S
O950 Mn946 2.221 . S
O950 Mn951 2.290 . S
O950 C961 1.278 . S
Mn951 O950 2.290 . S
Mn951 O953 2.089 . S
Mn951 O956 2.251 . S
Mn951 O957 2.087 . S
O952 Mn946 2.163 . S
O952 C962 1.244 . S
O953 Mn951 2.089 . S
O953 C960 1.256 . S
O954 Mn946 2.160 . S
O954 C963 1.239 . S
O955 Mn948 2.089 . S
O955 C963 1.256 . S
O956 Mn951 2.251 . S
O956 C961 1.241 . S
O957 Mn951 2.087 . S
O957 C962 1.256 . S
C958 O964 1.278 . S
C958 O965 1.241 . S
C959 O945 1.244 . S
C959 O947 1.256 . S
C960 O949 1.239 . S
C960 O953 1.256 . S
C961 O950 1.278 . S
C961 O956 1.241 . S
C962 O952 1.244 . S
C962 O957 1.256 . S
C963 O954 1.239 . S
C963 O955 1.256 . S
O964 Mn946 2.221 . S
O964 Mn948 2.290 . S
O964 C958 1.278 . S
O965 Mn948 2.251 . S
O965 C958 1.241 . S
O966 Mn967 2.163 . S
O966 C980 1.244 . S
Mn967 O966 2.163 . S
Mn967 O970 2.160 . S
Mn967 O971 2.221 . S
Mn967 O973 2.163 . S
Mn967 O975 2.160 . S
Mn967 O985 2.221 . S
O968 Mn969 2.087 . S
O968 C980 1.256 . S
Mn969 O968 2.087 . S
Mn969 O976 2.089 . S
Mn969 O985 2.290 . S
Mn969 O986 2.251 . S
O970 Mn967 2.160 . S
O970 C981 1.239 . S
O971 Mn967 2.221 . S
O971 Mn972 2.290 . S
O971 C982 1.278 . S
Mn972 O971 2.290 . S
Mn972 O974 2.089 . S
Mn972 O977 2.251 . S
Mn972 O978 2.087 . S
O973 Mn967 2.163 . S
O973 C983 1.244 . S
O974 Mn972 2.089 . S
O974 C981 1.256 . S
O975 Mn967 2.160 . S
O975 C984 1.239 . S
O976 Mn969 2.089 . S
O976 C984 1.256 . S
O977 Mn972 2.251 . S
O977 C982 1.241 . S
O978 Mn972 2.087 . S
O978 C983 1.256 . S
C979 O985 1.278 . S
C979 O986 1.241 . S
C980 O966 1.244 . S
C980 O968 1.256 . S
C981 O970 1.239 . S
C981 O974 1.256 . S
C982 O971 1.278 . S
C982 O977 1.241 . S
C983 O973 1.244 . S
C983 O978 1.256 . S
C984 O975 1.239 . S
C984 O976 1.256 . S
O985 Mn967 2.221 . S
O985 Mn969 2.290 . S
O985 C979 1.278 . S
O986 Mn969 2.251 . S
O986 C979 1.241 . S
O987 Mn988 2.163 . S
O987 C1001 1.244 . S
Mn988 O987 2.163 . S
Mn988 O991 2.160 . S
Mn988 O992 2.221 . S
Mn988 O994 2.163 . S
Mn988 O996 2.160 . S
Mn988 O1006 2.221 . S
O989 Mn990 2.087 . S
O989 C1001 1.256 . S
Mn990 O989 2.087 . S
Mn990 O997 2.089 . S
Mn990 O1006 2.290 . S
Mn990 O1007 2.251 . S
O991 Mn988 2.160 . S
O991 C1002 1.239 . S
O992 Mn988 2.221 . S
O992 Mn993 2.290 . S
O992 C1003 1.278 . S
Mn993 O992 2.290 . S
Mn993 O995 2.089 . S
Mn993 O998 2.251 . S
Mn993 O999 2.087 . S
O994 Mn988 2.163 . S
O994 C1004 1.244 . S
O995 Mn993 2.089 . S
O995 C1002 1.256 . S
O996 Mn988 2.160 . S
O996 C1005 1.239 . S
O997 Mn990 2.089 . S
O997 C1005 1.256 . S
O998 Mn993 2.251 . S
O998 C1003 1.241 . S
O999 Mn993 2.087 . S
O999 C1004 1.256 . S
C1000 O1006 1.278 . S
C1000 O1007 1.241 . S
C1001 O987 1.244 . S
C1001 O989 1.256 . S
C1002 O991 1.239 . S
C1002 O995 1.256 . S
C1003 O992 1.278 . S
C1003 O998 1.241 . S
C1004 O994 1.244 . S
C1004 O999 1.256 . S
C1005 O996 1.239 . S
C1005 O997 1.256 . S
O1006 Mn988 2.221 . S
O1006 Mn990 2.290 . S
O1006 C1000 1.278 . S
O1007 Mn990 2.251 . S
O1007 C1000 1.241 . S
O1008 Mn1009 2.163 . S
O1008 C1022 1.244 . S
Mn1009 O1008 2.163 . S
Mn1009 O1012 2.160 . S
Mn1009 O1013 2.221 . S
Mn1009 O1015 2.163 . S
Mn1009 O1017 2.160 . S
Mn1009 O1027 2.221 . S
O1010 Mn1011 2.087 . S
O1010 C1022 1.256 . S
Mn1011 O1010 2.087 . S
Mn1011 O1018 2.089 . S
Mn1011 O1027 2.290 . S
Mn1011 O1028 2.251 . S
O1012 Mn1009 2.160 . S
O1012 C1023 1.239 . S
O1013 Mn1009 2.221 . S
O1013 Mn1014 2.290 . S
O1013 C1024 1.278 . S
Mn1014 O1013 2.290 . S
Mn1014 O1016 2.089 . S
Mn1014 O1019 2.251 . S
Mn1014 O1020 2.087 . S
O1015 Mn1009 2.163 . S
O1015 C1025 1.244 . S
O1016 Mn1014 2.089 . S
O1016 C1023 1.256 . S
O1017 Mn1009 2.160 . S
O1017 C1026 1.239 . S
O1018 Mn1011 2.089 . S
O1018 C1026 1.256 . S
O1019 Mn1014 2.251 . S
O1019 C1024 1.241 . S
O1020 Mn1014 2.087 . S
O1020 C1025 1.256 . S
C1021 O1027 1.278 . S
C1021 O1028 1.241 . S
C1022 O1008 1.244 . S
C1022 O1010 1.256 . S
C1023 O1012 1.239 . S
C1023 O1016 1.256 . S
C1024 O1013 1.278 . S
C1024 O1019 1.241 . S
C1025 O1015 1.244 . S
C1025 O1020 1.256 . S
C1026 O1017 1.239 . S
C1026 O1018 1.256 . S
O1027 Mn1009 2.221 . S
O1027 Mn1011 2.290 . S
O1027 C1021 1.278 . S
O1028 Mn1011 2.251 . S
O1028 C1021 1.241 . S
O1029 Mn1030 2.163 . S
O1029 C1043 1.244 . S
Mn1030 O1029 2.163 . S
Mn1030 O1033 2.160 . S
Mn1030 O1034 2.221 . S
Mn1030 O1036 2.163 . S
Mn1030 O1038 2.160 . S
Mn1030 O1048 2.221 . S
O1031 Mn1032 2.087 . S
O1031 C1043 1.256 . S
Mn1032 O1031 2.087 . S
Mn1032 O1039 2.089 . S
Mn1032 O1048 2.290 . S
Mn1032 O1049 2.251 . S
O1033 Mn1030 2.160 . S
O1033 C1044 1.239 . S
O1034 Mn1030 2.221 . S
O1034 Mn1035 2.290 . S
O1034 C1045 1.278 . S
Mn1035 O1034 2.290 . S
Mn1035 O1037 2.089 . S
Mn1035 O1040 2.251 . S
Mn1035 O1041 2.087 . S
O1036 Mn1030 2.163 . S
O1036 C1046 1.244 . S
O1037 Mn1035 2.089 . S
O1037 C1044 1.256 . S
O1038 Mn1030 2.160 . S
O1038 C1047 1.239 . S
O1039 Mn1032 2.089 . S
O1039 C1047 1.256 . S
O1040 Mn1035 2.251 . S
O1040 C1045 1.241 . S
O1041 Mn1035 2.087 . S
O1041 C1046 1.256 . S
C1042 O1048 1.278 . S
C1042 O1049 1.241 . S
C1043 O1029 1.244 . S
C1043 O1031 1.256 . S
C1044 O1033 1.239 . S
C1044 O1037 1.256 . S
C1045 O1034 1.278 . S
C1045 O1040 1.241 . S
C1046 O1036 1.244 . S
C1046 O1041 1.256 . S
C1047 O1038 1.239 . S
C1047 O1039 1.256 . S
O1048 Mn1030 2.221 . S
O1048 Mn1032 2.290 . S
O1048 C1042 1.278 . S
O1049 Mn1032 2.251 . S
O1049 C1042 1.241 . S
O1050 Mn1051 2.163 . S
O1050 C1064 1.244 1_655 S
Mn1051 O1050 2.163 . S
Mn1051 O1054 2.160 . S
Mn1051 O1055 2.221 . S
Mn1051 O1057 2.163 . S
Mn1051 O1059 2.160 1_655 S
Mn1051 O1069 2.221 . S
O1052 Mn1053 2.087 . S
O1052 C1064 1.256 . S
Mn1053 O1052 2.087 . S
Mn1053 O1060 2.089 . S
Mn1053 O1069 2.290 1_455 S
Mn1053 O1070 2.251 1_455 S
O1054 Mn1051 2.160 . S
O1054 C1065 1.239 . S
O1055 Mn1051 2.221 . S
O1055 Mn1056 2.290 . S
O1055 C1066 1.278 . S
Mn1056 O1055 2.290 . S
Mn1056 O1058 2.089 . S
Mn1056 O1061 2.251 . S
Mn1056 O1062 2.087 . S
O1057 Mn1051 2.163 . S
O1057 C1067 1.244 . S
O1058 Mn1056 2.089 . S
O1058 C1065 1.256 . S
O1059 Mn1051 2.160 1_455 S
O1059 C1068 1.239 . S
O1060 Mn1053 2.089 . S
O1060 C1068 1.256 . S
O1061 Mn1056 2.251 . S
O1061 C1066 1.241 . S
O1062 Mn1056 2.087 . S
O1062 C1067 1.256 . S
C1063 O1069 1.278 . S
C1063 O1070 1.241 . S
C1064 O1050 1.244 1_455 S
C1064 O1052 1.256 . S
C1065 O1054 1.239 . S
C1065 O1058 1.256 . S
C1066 O1055 1.278 . S
C1066 O1061 1.241 . S
C1067 O1057 1.244 . S
C1067 O1062 1.256 . S
C1068 O1059 1.239 . S
C1068 O1060 1.256 . S
O1069 Mn1051 2.221 . S
O1069 Mn1053 2.290 1_655 S
O1069 C1063 1.278 . S
O1070 Mn1053 2.251 1_655 S
O1070 C1063 1.241 . S
O1071 Mn1072 2.163 . S
O1071 C1085 1.244 . S
Mn1072 O1071 2.163 . S
Mn1072 O1075 2.160 . S
Mn1072 O1076 2.221 . S
Mn1072 O1078 2.163 . S
Mn1072 O1080 2.160 . S
Mn1072 O1090 2.221 . S
O1073 Mn1074 2.087 . S
O1073 C1085 1.256 . S
Mn1074 O1073 2.087 . S
Mn1074 O1081 2.089 . S
Mn1074 O1090 2.290 . S
Mn1074 O1091 2.251 . S
O1075 Mn1072 2.160 . S
O1075 C1086 1.239 . S
O1076 Mn1072 2.221 . S
O1076 Mn1077 2.290 . S
O1076 C1087 1.278 . S
Mn1077 O1076 2.290 . S
Mn1077 O1079 2.089 . S
Mn1077 O1082 2.251 . S
Mn1077 O1083 2.087 . S
O1078 Mn1072 2.163 . S
O1078 C1088 1.244 . S
O1079 Mn1077 2.089 . S
O1079 C1086 1.256 . S
O1080 Mn1072 2.160 . S
O1080 C1089 1.239 . S
O1081 Mn1074 2.089 . S
O1081 C1089 1.256 . S
O1082 Mn1077 2.251 . S
O1082 C1087 1.241 . S
O1083 Mn1077 2.087 . S
O1083 C1088 1.256 . S
C1084 O1090 1.278 . S
C1084 O1091 1.241 . S
C1085 O1071 1.244 . S
C1085 O1073 1.256 . S
C1086 O1075 1.239 . S
C1086 O1079 1.256 . S
C1087 O1076 1.278 . S
C1087 O1082 1.241 . S
C1088 O1078 1.244 . S
C1088 O1083 1.256 . S
C1089 O1080 1.239 . S
C1089 O1081 1.256 . S
O1090 Mn1072 2.221 . S
O1090 Mn1074 2.290 . S
O1090 C1084 1.278 . S
O1091 Mn1074 2.251 . S
O1091 C1084 1.241 . S
O1092 Mn1093 2.163 . S
O1092 C1106 1.244 . S
Mn1093 O1092 2.163 . S
Mn1093 O1096 2.160 . S
Mn1093 O1097 2.221 . S
Mn1093 O1099 2.163 . S
Mn1093 O1101 2.160 . S
Mn1093 O1111 2.221 . S
O1094 Mn1095 2.087 . S
O1094 C1106 1.256 . S
Mn1095 O1094 2.087 . S
Mn1095 O1102 2.089 . S
Mn1095 O1111 2.290 . S
Mn1095 O1112 2.251 . S
O1096 Mn1093 2.160 . S
O1096 C1107 1.239 . S
O1097 Mn1093 2.221 . S
O1097 Mn1098 2.290 . S
O1097 C1108 1.278 . S
Mn1098 O1097 2.290 . S
Mn1098 O1100 2.089 . S
Mn1098 O1103 2.251 . S
Mn1098 O1104 2.087 . S
O1099 Mn1093 2.163 . S
O1099 C1109 1.244 . S
O1100 Mn1098 2.089 . S
O1100 C1107 1.256 . S
O1101 Mn1093 2.160 . S
O1101 C1110 1.239 . S
O1102 Mn1095 2.089 . S
O1102 C1110 1.256 . S
O1103 Mn1098 2.251 . S
O1103 C1108 1.241 . S
O1104 Mn1098 2.087 . S
O1104 C1109 1.256 . S
C1105 O1111 1.278 . S
C1105 O1112 1.241 . S
C1106 O1092 1.244 . S
C1106 O1094 1.256 . S
C1107 O1096 1.239 . S
C1107 O1100 1.256 . S
C1108 O1097 1.278 . S
C1108 O1103 1.241 . S
C1109 O1099 1.244 . S
C1109 O1104 1.256 . S
C1110 O1101 1.239 . S
C1110 O1102 1.256 . S
O1111 Mn1093 2.221 . S
O1111 Mn1095 2.290 . S
O1111 C1105 1.278 . S
O1112 Mn1095 2.251 . S
O1112 C1105 1.241 . S
O1113 Mn1114 2.163 . S
O1113 C1127 1.244 . S
Mn1114 O1113 2.163 . S
Mn1114 O1117 2.160 . S
Mn1114 O1118 2.221 . S
Mn1114 O1120 2.163 . S
Mn1114 O1122 2.160 . S
Mn1114 O1132 2.221 . S
O1115 Mn1116 2.087 . S
O1115 C1127 1.256 . S
Mn1116 O1115 2.087 . S
Mn1116 O1123 2.089 . S
Mn1116 O1132 2.290 . S
Mn1116 O1133 2.251 . S
O1117 Mn1114 2.160 . S
O1117 C1128 1.239 . S
O1118 Mn1114 2.221 . S
O1118 Mn1119 2.290 . S
O1118 C1129 1.278 . S
Mn1119 O1118 2.290 . S
Mn1119 O1121 2.089 . S
Mn1119 O1124 2.251 . S
Mn1119 O1125 2.087 . S
O1120 Mn1114 2.163 . S
O1120 C1130 1.244 . S
O1121 Mn1119 2.089 . S
O1121 C1128 1.256 . S
O1122 Mn1114 2.160 . S
O1122 C1131 1.239 . S
O1123 Mn1116 2.089 . S
O1123 C1131 1.256 . S
O1124 Mn1119 2.251 . S
O1124 C1129 1.241 . S
O1125 Mn1119 2.087 . S
O1125 C1130 1.256 . S
C1126 O1132 1.278 . S
C1126 O1133 1.241 . S
C1127 O1113 1.244 . S
C1127 O1115 1.256 . S
C1128 O1117 1.239 . S
C1128 O1121 1.256 . S
C1129 O1118 1.278 . S
C1129 O1124 1.241 . S
C1130 O1120 1.244 . S
C1130 O1125 1.256 . S
C1131 O1122 1.239 . S
C1131 O1123 1.256 . S
O1132 Mn1114 2.221 . S
O1132 Mn1116 2.290 . S
O1132 C1126 1.278 . S
O1133 Mn1116 2.251 . S
O1133 C1126 1.241 . S
O1134 Mn1135 2.163 . S
O1134 C1148 1.244 1_655 S
Mn1135 O1134 2.163 . S
Mn1135 O1138 2.160 . S
Mn1135 O1139 2.221 . S
Mn1135 O1141 2.163 . S
Mn1135 O1143 2.160 1_655 S
Mn1135 O1153 2.221 . S
O1136 Mn1137 2.087 . S
O1136 C1148 1.256 . S
Mn1137 O1136 2.087 . S
Mn1137 O1144 2.089 . S
Mn1137 O1153 2.290 1_455 S
Mn1137 O1154 2.251 1_455 S
O1138 Mn1135 2.160 . S
O1138 C1149 1.239 . S
O1139 Mn1135 2.221 . S
O1139 Mn1140 2.290 . S
O1139 C1150 1.278 . S
Mn1140 O1139 2.290 . S
Mn1140 O1142 2.089 . S
Mn1140 O1145 2.251 . S
Mn1140 O1146 2.087 . S
O1141 Mn1135 2.163 . S
O1141 C1151 1.244 . S
O1142 Mn1140 2.089 . S
O1142 C1149 1.256 . S
O1143 Mn1135 2.160 1_455 S
O1143 C1152 1.239 . S
O1144 Mn1137 2.089 . S
O1144 C1152 1.256 . S
O1145 Mn1140 2.251 . S
O1145 C1150 1.241 . S
O1146 Mn1140 2.087 . S
O1146 C1151 1.256 . S
C1147 O1153 1.278 . S
C1147 O1154 1.241 . S
C1148 O1134 1.244 1_455 S
C1148 O1136 1.256 . S
C1149 O1138 1.239 . S
C1149 O1142 1.256 . S
C1150 O1139 1.278 . S
C1150 O1145 1.241 . S
C1151 O1141 1.244 . S
C1151 O1146 1.256 . S
C1152 O1143 1.239 . S
C1152 O1144 1.256 . S
O1153 Mn1135 2.221 . S
O1153 Mn1137 2.290 1_655 S
O1153 C1147 1.278 . S
O1154 Mn1137 2.251 1_655 S
O1154 C1147 1.241 . S
O1155 Mn1156 2.163 . S
O1155 C1169 1.244 . S
Mn1156 O1155 2.163 . S
Mn1156 O1159 2.160 . S
Mn1156 O1160 2.221 . S
Mn1156 O1162 2.163 . S
Mn1156 O1164 2.160 . S
Mn1156 O1174 2.221 . S
O1157 Mn1158 2.087 . S
O1157 C1169 1.256 . S
Mn1158 O1157 2.087 . S
Mn1158 O1165 2.089 . S
Mn1158 O1174 2.290 . S
Mn1158 O1175 2.251 . S
O1159 Mn1156 2.160 . S
O1159 C1170 1.239 . S
O1160 Mn1156 2.221 . S
O1160 Mn1161 2.290 . S
O1160 C1171 1.278 . S
Mn1161 O1160 2.290 . S
Mn1161 O1163 2.089 . S
Mn1161 O1166 2.251 . S
Mn1161 O1167 2.087 . S
O1162 Mn1156 2.163 . S
O1162 C1172 1.244 . S
O1163 Mn1161 2.089 . S
O1163 C1170 1.256 . S
O1164 Mn1156 2.160 . S
O1164 C1173 1.239 . S
O1165 Mn1158 2.089 . S
O1165 C1173 1.256 . S
O1166 Mn1161 2.251 . S
O1166 C1171 1.241 . S
O1167 Mn1161 2.087 . S
O1167 C1172 1.256 . S
C1168 O1174 1.278 . S
C1168 O1175 1.241 . S
C1169 O1155 1.244 . S
C1169 O1157 1.256 . S
C1170 O1159 1.239 . S
C1170 O1163 1.256 . S
C1171 O1160 1.278 . S
C1171 O1166 1.241 . S
C1172 O1162 1.244 . S
C1172 O1167 1.256 . S
C1173 O1164 1.239 . S
C1173 O1165 1.256 . S
O1174 Mn1156 2.221 . S
O1174 Mn1158 2.290 . S
O1174 C1168 1.278 . S
O1175 Mn1158 2.251 . S
O1175 C1168 1.241 . S
O1176 Mn1177 2.163 . S
O1176 C1190 1.244 . S
Mn1177 O1176 2.163 . S
Mn1177 O1180 2.160 . S
Mn1177 O1181 2.221 . S
Mn1177 O1183 2.163 . S
Mn1177 O1185 2.160 . S
Mn1177 O1195 2.221 . S
O1178 Mn1179 2.087 . S
O1178 C1190 1.256 . S
Mn1179 O1178 2.087 . S
Mn1179 O1186 2.089 . S
Mn1179 O1195 2.290 . S
Mn1179 O1196 2.251 . S
O1180 Mn1177 2.160 . S
O1180 C1191 1.239 . S
O1181 Mn1177 2.221 . S
O1181 Mn1182 2.290 . S
O1181 C1192 1.278 . S
Mn1182 O1181 2.290 . S
Mn1182 O1184 2.089 . S
Mn1182 O1187 2.251 . S
Mn1182 O1188 2.087 . S
O1183 Mn1177 2.163 . S
O1183 C1193 1.244 . S
O1184 Mn1182 2.089 . S
O1184 C1191 1.256 . S
O1185 Mn1177 2.160 . S
O1185 C1194 1.239 . S
O1186 Mn1179 2.089 . S
O1186 C1194 1.256 . S
O1187 Mn1182 2.251 . S
O1187 C1192 1.241 . S
O1188 Mn1182 2.087 . S
O1188 C1193 1.256 . S
C1189 O1195 1.278 . S
C1189 O1196 1.241 . S
C1190 O1176 1.244 . S
C1190 O1178 1.256 . S
C1191 O1180 1.239 . S
C1191 O1184 1.256 . S
C1192 O1181 1.278 . S
C1192 O1187 1.241 . S
C1193 O1183 1.244 . S
C1193 O1188 1.256 . S
C1194 O1185 1.239 . S
C1194 O1186 1.256 . S
O1195 Mn1177 2.221 . S
O1195 Mn1179 2.290 . S
O1195 C1189 1.278 . S
O1196 Mn1179 2.251 . S
O1196 C1189 1.241 . S
O1197 Mn1198 2.163 . S
O1197 C1211 1.244 . S
Mn1198 O1197 2.163 . S
Mn1198 O1201 2.160 . S
Mn1198 O1202 2.221 . S
Mn1198 O1204 2.163 . S
Mn1198 O1206 2.160 . S
Mn1198 O1216 2.221 . S
O1199 Mn1200 2.087 . S
O1199 C1211 1.256 . S
Mn1200 O1199 2.087 . S
Mn1200 O1207 2.089 . S
Mn1200 O1216 2.290 . S
Mn1200 O1217 2.251 . S
O1201 Mn1198 2.160 . S
O1201 C1212 1.239 . S
O1202 Mn1198 2.221 . S
O1202 Mn1203 2.290 . S
O1202 C1213 1.278 . S
Mn1203 O1202 2.290 . S
Mn1203 O1205 2.089 . S
Mn1203 O1208 2.251 . S
Mn1203 O1209 2.087 . S
O1204 Mn1198 2.163 . S
O1204 C1214 1.244 . S
O1205 Mn1203 2.089 . S
O1205 C1212 1.256 . S
O1206 Mn1198 2.160 . S
O1206 C1215 1.239 . S
O1207 Mn1200 2.089 . S
O1207 C1215 1.256 . S
O1208 Mn1203 2.251 . S
O1208 C1213 1.241 . S
O1209 Mn1203 2.087 . S
O1209 C1214 1.256 . S
C1210 O1216 1.278 . S
C1210 O1217 1.241 . S
C1211 O1197 1.244 . S
C1211 O1199 1.256 . S
C1212 O1201 1.239 . S
C1212 O1205 1.256 . S
C1213 O1202 1.278 . S
C1213 O1208 1.241 . S
C1214 O1204 1.244 . S
C1214 O1209 1.256 . S
C1215 O1206 1.239 . S
C1215 O1207 1.256 . S
O1216 Mn1198 2.221 . S
O1216 Mn1200 2.290 . S
O1216 C1210 1.278 . S
O1217 Mn1200 2.251 . S
O1217 C1210 1.241 . S
O1218 Mn1219 2.163 . S
O1218 C1232 1.244 . S
Mn1219 O1218 2.163 . S
Mn1219 O1222 2.160 . S
Mn1219 O1223 2.221 . S
Mn1219 O1225 2.163 . S
Mn1219 O1227 2.160 . S
Mn1219 O1237 2.221 . S
O1220 Mn1221 2.087 . S
O1220 C1232 1.256 . S
Mn1221 O1220 2.087 . S
Mn1221 O1228 2.089 . S
Mn1221 O1237 2.290 . S
Mn1221 O1238 2.251 . S
O1222 Mn1219 2.160 . S
O1222 C1233 1.239 . S
O1223 Mn1219 2.221 . S
O1223 Mn1224 2.290 . S
O1223 C1234 1.278 . S
Mn1224 O1223 2.290 . S
Mn1224 O1226 2.089 . S
Mn1224 O1229 2.251 . S
Mn1224 O1230 2.087 . S
O1225 Mn1219 2.163 . S
O1225 C1235 1.244 . S
O1226 Mn1224 2.089 . S
O1226 C1233 1.256 . S
O1227 Mn1219 2.160 . S
O1227 C1236 1.239 . S
O1228 Mn1221 2.089 . S
O1228 C1236 1.256 . S
O1229 Mn1224 2.251 . S
O1229 C1234 1.241 . S
O1230 Mn1224 2.087 . S
O1230 C1235 1.256 . S
C1231 O1237 1.278 . S
C1231 O1238 1.241 . S
C1232 O1218 1.244 . S
C1232 O1220 1.256 . S
C1233 O1222 1.239 . S
C1233 O1226 1.256 . S
C1234 O1223 1.278 . S
C1234 O1229 1.241 . S
C1235 O1225 1.244 . S
C1235 O1230 1.256 . S
C1236 O1227 1.239 . S
C1236 O1228 1.256 . S
O1237 Mn1219 2.221 . S
O1237 Mn1221 2.290 . S
O1237 C1231 1.278 . S
O1238 Mn1221 2.251 . S
O1238 C1231 1.241 . S
O1239 Mn1240 2.163 . S
O1239 C1253 1.244 . S
Mn1240 O1239 2.163 . S
Mn1240 O1243 2.160 . S
Mn1240 O1244 2.221 . S
Mn1240 O1246 2.163 . S
Mn1240 O1248 2.160 . S
Mn1240 O1258 2.221 . S
O1241 Mn1242 2.087 . S
O1241 C1253 1.256 . S
Mn1242 O1241 2.087 . S
Mn1242 O1249 2.089 . S
Mn1242 O1258 2.290 . S
Mn1242 O1259 2.251 . S
O1243 Mn1240 2.160 . S
O1243 C1254 1.239 . S
O1244 Mn1240 2.221 . S
O1244 Mn1245 2.290 . S
O1244 C1255 1.278 . S
Mn1245 O1244 2.290 . S
Mn1245 O1247 2.089 . S
Mn1245 O1250 2.251 . S
Mn1245 O1251 2.087 . S
O1246 Mn1240 2.163 . S
O1246 C1256 1.244 . S
O1247 Mn1245 2.089 . S
O1247 C1254 1.256 . S
O1248 Mn1240 2.160 . S
O1248 C1257 1.239 . S
O1249 Mn1242 2.089 . S
O1249 C1257 1.256 . S
O1250 Mn1245 2.251 . S
O1250 C1255 1.241 . S
O1251 Mn1245 2.087 . S
O1251 C1256 1.256 . S
C1252 O1258 1.278 . S
C1252 O1259 1.241 . S
C1253 O1239 1.244 . S
C1253 O1241 1.256 . S
C1254 O1243 1.239 . S
C1254 O1247 1.256 . S
C1255 O1244 1.278 . S
C1255 O1250 1.241 . S
C1256 O1246 1.244 . S
C1256 O1251 1.256 . S
C1257 O1248 1.239 . S
C1257 O1249 1.256 . S
O1258 Mn1240 2.221 . S
O1258 Mn1242 2.290 . S
O1258 C1252 1.278 . S
O1259 Mn1242 2.251 . S
O1259 C1252 1.241 . S
O1260 Mn1261 2.163 . S
O1260 C1274 1.244 . S
Mn1261 O1260 2.163 . S
Mn1261 O1264 2.160 . S
Mn1261 O1265 2.221 . S
Mn1261 O1267 2.163 . S
Mn1261 O1269 2.160 . S
Mn1261 O1279 2.221 . S
O1262 Mn1263 2.087 . S
O1262 C1274 1.256 . S
Mn1263 O1262 2.087 . S
Mn1263 O1270 2.089 . S
Mn1263 O1279 2.290 . S
Mn1263 O1280 2.251 . S
O1264 Mn1261 2.160 . S
O1264 C1275 1.239 . S
O1265 Mn1261 2.221 . S
O1265 Mn1266 2.290 . S
O1265 C1276 1.278 . S
Mn1266 O1265 2.290 . S
Mn1266 O1268 2.089 . S
Mn1266 O1271 2.251 . S
Mn1266 O1272 2.087 . S
O1267 Mn1261 2.163 . S
O1267 C1277 1.244 . S
O1268 Mn1266 2.089 . S
O1268 C1275 1.256 . S
O1269 Mn1261 2.160 . S
O1269 C1278 1.239 . S
O1270 Mn1263 2.089 . S
O1270 C1278 1.256 . S
O1271 Mn1266 2.251 . S
O1271 C1276 1.241 . S
O1272 Mn1266 2.087 . S
O1272 C1277 1.256 . S
C1273 O1279 1.278 . S
C1273 O1280 1.241 . S
C1274 O1260 1.244 . S
C1274 O1262 1.256 . S
C1275 O1264 1.239 . S
C1275 O1268 1.256 . S
C1276 O1265 1.278 . S
C1276 O1271 1.241 . S
C1277 O1267 1.244 . S
C1277 O1272 1.256 . S
C1278 O1269 1.239 . S
C1278 O1270 1.256 . S
O1279 Mn1261 2.221 . S
O1279 Mn1263 2.290 . S
O1279 C1273 1.278 . S
O1280 Mn1263 2.251 . S
O1280 C1273 1.241 . S
O1281 Mn1282 2.163 . S
O1281 C1295 1.244 . S
Mn1282 O1281 2.163 . S
Mn1282 O1285 2.160 . S
Mn1282 O1286 2.221 . S
Mn1282 O1288 2.163 . S
Mn1282 O1290 2.160 . S
Mn1282 O1300 2.221 . S
O1283 Mn1284 2.087 . S
O1283 C1295 1.256 . S
Mn1284 O1283 2.087 . S
Mn1284 O1291 2.089 . S
Mn1284 O1300 2.290 . S
Mn1284 O1301 2.251 . S
O1285 Mn1282 2.160 . S
O1285 C1296 1.239 . S
O1286 Mn1282 2.221 . S
O1286 Mn1287 2.290 . S
O1286 C1297 1.278 . S
Mn1287 O1286 2.290 . S
Mn1287 O1289 2.089 . S
Mn1287 O1292 2.251 . S
Mn1287 O1293 2.087 . S
O1288 Mn1282 2.163 . S
O1288 C1298 1.244 . S
O1289 Mn1287 2.089 . S
O1289 C1296 1.256 . S
O1290 Mn1282 2.160 . S
O1290 C1299 1.239 . S
O1291 Mn1284 2.089 . S
O1291 C1299 1.256 . S
O1292 Mn1287 2.251 . S
O1292 C1297 1.241 . S
O1293 Mn1287 2.087 . S
O1293 C1298 1.256 . S
C1294 O1300 1.278 . S
C1294 O1301 1.241 . S
C1295 O1281 1.244 . S
C1295 O1283 1.256 . S
C1296 O1285 1.239 . S
C1296 O1289 1.256 . S
C1297 O1286 1.278 . S
C1297 O1292 1.241 . S
C1298 O1288 1.244 . S
C1298 O1293 1.256 . S
C1299 O1290 1.239 . S
C1299 O1291 1.256 . S
O1300 Mn1282 2.221 . S
O1300 Mn1284 2.290 . S
O1300 C1294 1.278 . S
O1301 Mn1284 2.251 . S
O1301 C1294 1.241 . S
O1302 Mn1303 2.163 . S
O1302 C1316 1.244 . S
Mn1303 O1302 2.163 . S
Mn1303 O1306 2.160 . S
Mn1303 O1307 2.221 . S
Mn1303 O1309 2.163 . S
Mn1303 O1311 2.160 . S
Mn1303 O1321 2.221 . S
O1304 Mn1305 2.087 . S
O1304 C1316 1.256 . S
Mn1305 O1304 2.087 . S
Mn1305 O1312 2.089 . S
Mn1305 O1321 2.290 . S
Mn1305 O1322 2.251 . S
O1306 Mn1303 2.160 . S
O1306 C1317 1.239 . S
O1307 Mn1303 2.221 . S
O1307 Mn1308 2.290 . S
O1307 C1318 1.278 . S
Mn1308 O1307 2.290 . S
Mn1308 O1310 2.089 . S
Mn1308 O1313 2.251 . S
Mn1308 O1314 2.087 . S
O1309 Mn1303 2.163 . S
O1309 C1319 1.244 . S
O1310 Mn1308 2.089 . S
O1310 C1317 1.256 . S
O1311 Mn1303 2.160 . S
O1311 C1320 1.239 . S
O1312 Mn1305 2.089 . S
O1312 C1320 1.256 . S
O1313 Mn1308 2.251 . S
O1313 C1318 1.241 . S
O1314 Mn1308 2.087 . S
O1314 C1319 1.256 . S
C1315 O1321 1.278 . S
C1315 O1322 1.241 . S
C1316 O1302 1.244 . S
C1316 O1304 1.256 . S
C1317 O1306 1.239 . S
C1317 O1310 1.256 . S
C1318 O1307 1.278 . S
C1318 O1313 1.241 . S
C1319 O1309 1.244 . S
C1319 O1314 1.256 . S
C1320 O1311 1.239 . S
C1320 O1312 1.256 . S
O1321 Mn1303 2.221 . S
O1321 Mn1305 2.290 . S
O1321 C1315 1.278 . S
O1322 Mn1305 2.251 . S
O1322 C1315 1.241 . S
O1323 Mn1324 2.163 . S
O1323 C1337 1.244 . S
Mn1324 O1323 2.163 . S
Mn1324 O1327 2.160 . S
Mn1324 O1328 2.221 . S
Mn1324 O1330 2.163 . S
Mn1324 O1332 2.160 . S
Mn1324 O1342 2.221 . S
O1325 Mn1326 2.087 . S
O1325 C1337 1.256 . S
Mn1326 O1325 2.087 . S
Mn1326 O1333 2.089 . S
Mn1326 O1342 2.290 . S
Mn1326 O1343 2.251 . S
O1327 Mn1324 2.160 . S
O1327 C1338 1.239 . S
O1328 Mn1324 2.221 . S
O1328 Mn1329 2.290 . S
O1328 C1339 1.278 . S
Mn1329 O1328 2.290 . S
Mn1329 O1331 2.089 . S
Mn1329 O1334 2.251 . S
Mn1329 O1335 2.087 . S
O1330 Mn1324 2.163 . S
O1330 C1340 1.244 . S
O1331 Mn1329 2.089 . S
O1331 C1338 1.256 . S
O1332 Mn1324 2.160 . S
O1332 C1341 1.239 . S
O1333 Mn1326 2.089 . S
O1333 C1341 1.256 . S
O1334 Mn1329 2.251 . S
O1334 C1339 1.241 . S
O1335 Mn1329 2.087 . S
O1335 C1340 1.256 . S
C1336 O1342 1.278 . S
C1336 O1343 1.241 . S
C1337 O1323 1.244 . S
C1337 O1325 1.256 . S
C1338 O1327 1.239 . S
C1338 O1331 1.256 . S
C1339 O1328 1.278 . S
C1339 O1334 1.241 . S
C1340 O1330 1.244 . S
C1340 O1335 1.256 . S
C1341 O1332 1.239 . S
C1341 O1333 1.256 . S
O1342 Mn1324 2.221 . S
O1342 Mn1326 2.290 . S
O1342 C1336 1.278 . S
O1343 Mn1326 2.251 . S
O1343 C1336 1.241 . S
O1344 Mn1345 2.163 . S
O1344 C1358 1.244 . S
Mn1345 O1344 2.163 . S
Mn1345 O1348 2.160 . S
Mn1345 O1349 2.221 . S
Mn1345 O1351 2.163 . S
Mn1345 O1353 2.160 . S
Mn1345 O1363 2.221 . S
O1346 Mn1347 2.087 . S
O1346 C1358 1.256 . S
Mn1347 O1346 2.087 . S
Mn1347 O1354 2.089 . S
Mn1347 O1363 2.290 . S
Mn1347 O1364 2.251 . S
O1348 Mn1345 2.160 . S
O1348 C1359 1.239 . S
O1349 Mn1345 2.221 . S
O1349 Mn1350 2.290 . S
O1349 C1360 1.278 . S
Mn1350 O1349 2.290 . S
Mn1350 O1352 2.089 . S
Mn1350 O1355 2.251 . S
Mn1350 O1356 2.087 . S
O1351 Mn1345 2.163 . S
O1351 C1361 1.244 . S
O1352 Mn1350 2.089 . S
O1352 C1359 1.256 . S
O1353 Mn1345 2.160 . S
O1353 C1362 1.239 . S
O1354 Mn1347 2.089 . S
O1354 C1362 1.256 . S
O1355 Mn1350 2.251 . S
O1355 C1360 1.241 . S
O1356 Mn1350 2.087 . S
O1356 C1361 1.256 . S
C1357 O1363 1.278 . S
C1357 O1364 1.241 . S
C1358 O1344 1.244 . S
C1358 O1346 1.256 . S
C1359 O1348 1.239 . S
C1359 O1352 1.256 . S
C1360 O1349 1.278 . S
C1360 O1355 1.241 . S
C1361 O1351 1.244 . S
C1361 O1356 1.256 . S
C1362 O1353 1.239 . S
C1362 O1354 1.256 . S
O1363 Mn1345 2.221 . S
O1363 Mn1347 2.290 . S
O1363 C1357 1.278 . S
O1364 Mn1347 2.251 . S
O1364 C1357 1.241 . S
O1365 Mn1366 2.163 . S
O1365 C1379 1.244 . S
Mn1366 O1365 2.163 . S
Mn1366 O1369 2.160 . S
Mn1366 O1370 2.221 . S
Mn1366 O1372 2.163 . S
Mn1366 O1374 2.160 . S
Mn1366 O1384 2.221 . S
O1367 Mn1368 2.087 . S
O1367 C1379 1.256 . S
Mn1368 O1367 2.087 . S
Mn1368 O1375 2.089 . S
Mn1368 O1384 2.290 . S
Mn1368 O1385 2.251 . S
O1369 Mn1366 2.160 . S
O1369 C1380 1.239 . S
O1370 Mn1366 2.221 . S
O1370 Mn1371 2.290 . S
O1370 C1381 1.278 . S
Mn1371 O1370 2.290 . S
Mn1371 O1373 2.089 . S
Mn1371 O1376 2.251 . S
Mn1371 O1377 2.087 . S
O1372 Mn1366 2.163 . S
O1372 C1382 1.244 . S
O1373 Mn1371 2.089 . S
O1373 C1380 1.256 . S
O1374 Mn1366 2.160 . S
O1374 C1383 1.239 . S
O1375 Mn1368 2.089 . S
O1375 C1383 1.256 . S
O1376 Mn1371 2.251 . S
O1376 C1381 1.241 . S
O1377 Mn1371 2.087 . S
O1377 C1382 1.256 . S
C1378 O1384 1.278 . S
C1378 O1385 1.241 . S
C1379 O1365 1.244 . S
C1379 O1367 1.256 . S
C1380 O1369 1.239 . S
C1380 O1373 1.256 . S
C1381 O1370 1.278 . S
C1381 O1376 1.241 . S
C1382 O1372 1.244 . S
C1382 O1377 1.256 . S
C1383 O1374 1.239 . S
C1383 O1375 1.256 . S
O1384 Mn1366 2.221 . S
O1384 Mn1368 2.290 . S
O1384 C1378 1.278 . S
O1385 Mn1368 2.251 . S
O1385 C1378 1.241 . S
O1386 Mn1387 2.163 . S
O1386 C1400 1.244 . S
Mn1387 O1386 2.163 . S
Mn1387 O1390 2.160 . S
Mn1387 O1391 2.221 . S
Mn1387 O1393 2.163 . S
Mn1387 O1395 2.160 . S
Mn1387 O1405 2.221 . S
O1388 Mn1389 2.087 . S
O1388 C1400 1.256 . S
Mn1389 O1388 2.087 . S
Mn1389 O1396 2.089 . S
Mn1389 O1405 2.290 . S
Mn1389 O1406 2.251 . S
O1390 Mn1387 2.160 . S
O1390 C1401 1.239 . S
O1391 Mn1387 2.221 . S
O1391 Mn1392 2.290 . S
O1391 C1402 1.278 . S
Mn1392 O1391 2.290 . S
Mn1392 O1394 2.089 . S
Mn1392 O1397 2.251 . S
Mn1392 O1398 2.087 . S
O1393 Mn1387 2.163 . S
O1393 C1403 1.244 . S
O1394 Mn1392 2.089 . S
O1394 C1401 1.256 . S
O1395 Mn1387 2.160 . S
O1395 C1404 1.239 . S
O1396 Mn1389 2.089 . S
O1396 C1404 1.256 . S
O1397 Mn1392 2.251 . S
O1397 C1402 1.241 . S
O1398 Mn1392 2.087 . S
O1398 C1403 1.256 . S
C1399 O1405 1.278 . S
C1399 O1406 1.241 . S
C1400 O1386 1.244 . S
C1400 O1388 1.256 . S
C1401 O1390 1.239 . S
C1401 O1394 1.256 . S
C1402 O1391 1.278 . S
C1402 O1397 1.241 . S
C1403 O1393 1.244 . S
C1403 O1398 1.256 . S
C1404 O1395 1.239 . S
C1404 O1396 1.256 . S
O1405 Mn1387 2.221 . S
O1405 Mn1389 2.290 . S
O1405 C1399 1.278 . S
O1406 Mn1389 2.251 . S
O1406 C1399 1.241 . S
O1407 Mn1408 2.163 . S
O1407 C1421 1.244 1_556 S
Mn1408 O1407 2.163 . S
Mn1408 O1411 2.160 . S
Mn1408 O1412 2.221 . S
Mn1408 O1414 2.163 . S
Mn1408 O1416 2.160 1_556 S
Mn1408 O1426 2.221 . S
O1409 Mn1410 2.087 . S
O1409 C1421 1.256 . S
Mn1410 O1409 2.087 . S
Mn1410 O1417 2.089 . S
Mn1410 O1426 2.290 1_554 S
Mn1410 O1427 2.251 1_554 S
O1411 Mn1408 2.160 . S
O1411 C1422 1.239 . S
O1412 Mn1408 2.221 . S
O1412 Mn1413 2.290 . S
O1412 C1423 1.278 . S
Mn1413 O1412 2.290 . S
Mn1413 O1415 2.089 . S
Mn1413 O1418 2.251 . S
Mn1413 O1419 2.087 . S
O1414 Mn1408 2.163 . S
O1414 C1424 1.244 . S
O1415 Mn1413 2.089 . S
O1415 C1422 1.256 . S
O1416 Mn1408 2.160 1_554 S
O1416 C1425 1.239 . S
O1417 Mn1410 2.089 . S
O1417 C1425 1.256 . S
O1418 Mn1413 2.251 . S
O1418 C1423 1.241 . S
O1419 Mn1413 2.087 . S
O1419 C1424 1.256 . S
C1420 O1426 1.278 . S
C1420 O1427 1.241 . S
C1421 O1407 1.244 1_554 S
C1421 O1409 1.256 . S
C1422 O1411 1.239 . S
C1422 O1415 1.256 . S
C1423 O1412 1.278 . S
C1423 O1418 1.241 . S
C1424 O1414 1.244 . S
C1424 O1419 1.256 . S
C1425 O1416 1.239 . S
C1425 O1417 1.256 . S
O1426 Mn1408 2.221 . S
O1426 Mn1410 2.290 1_556 S
O1426 C1420 1.278 . S
O1427 Mn1410 2.251 1_556 S
O1427 C1420 1.241 . S
O1428 Mn1429 2.163 . S
O1428 C1442 1.244 . S
Mn1429 O1428 2.163 . S
Mn1429 O1432 2.160 . S
Mn1429 O1433 2.221 . S
Mn1429 O1435 2.163 . S
Mn1429 O1437 2.160 . S
Mn1429 O1447 2.221 . S
O1430 Mn1431 2.087 . S
O1430 C1442 1.256 . S
Mn1431 O1430 2.087 . S
Mn1431 O1438 2.089 . S
Mn1431 O1447 2.290 . S
Mn1431 O1448 2.251 . S
O1432 Mn1429 2.160 . S
O1432 C1443 1.239 . S
O1433 Mn1429 2.221 . S
O1433 Mn1434 2.290 . S
O1433 C1444 1.278 . S
Mn1434 O1433 2.290 . S
Mn1434 O1436 2.089 . S
Mn1434 O1439 2.251 . S
Mn1434 O1440 2.087 . S
O1435 Mn1429 2.163 . S
O1435 C1445 1.244 . S
O1436 Mn1434 2.089 . S
O1436 C1443 1.256 . S
O1437 Mn1429 2.160 . S
O1437 C1446 1.239 . S
O1438 Mn1431 2.089 . S
O1438 C1446 1.256 . S
O1439 Mn1434 2.251 . S
O1439 C1444 1.241 . S
O1440 Mn1434 2.087 . S
O1440 C1445 1.256 . S
C1441 O1447 1.278 . S
C1441 O1448 1.241 . S
C1442 O1428 1.244 . S
C1442 O1430 1.256 . S
C1443 O1432 1.239 . S
C1443 O1436 1.256 . S
C1444 O1433 1.278 . S
C1444 O1439 1.241 . S
C1445 O1435 1.244 . S
C1445 O1440 1.256 . S
C1446 O1437 1.239 . S
C1446 O1438 1.256 . S
O1447 Mn1429 2.221 . S
O1447 Mn1431 2.290 . S
O1447 C1441 1.278 . S
O1448 Mn1431 2.251 . S
O1448 C1441 1.241 . S
O1449 Mn1450 2.163 . S
O1449 C1463 1.244 1_554 S
Mn1450 O1449 2.163 . S
Mn1450 O1453 2.160 . S
Mn1450 O1454 2.221 . S
Mn1450 O1456 2.163 . S
Mn1450 O1458 2.160 1_554 S
Mn1450 O1468 2.221 . S
O1451 Mn1452 2.087 . S
O1451 C1463 1.256 . S
Mn1452 O1451 2.087 . S
Mn1452 O1459 2.089 . S
Mn1452 O1468 2.290 1_556 S
Mn1452 O1469 2.251 1_556 S
O1453 Mn1450 2.160 . S
O1453 C1464 1.239 . S
O1454 Mn1450 2.221 . S
O1454 Mn1455 2.290 . S
O1454 C1465 1.278 . S
Mn1455 O1454 2.290 . S
Mn1455 O1457 2.089 . S
Mn1455 O1460 2.251 . S
Mn1455 O1461 2.087 . S
O1456 Mn1450 2.163 . S
O1456 C1466 1.244 . S
O1457 Mn1455 2.089 . S
O1457 C1464 1.256 . S
O1458 Mn1450 2.160 1_556 S
O1458 C1467 1.239 . S
O1459 Mn1452 2.089 . S
O1459 C1467 1.256 . S
O1460 Mn1455 2.251 . S
O1460 C1465 1.241 . S
O1461 Mn1455 2.087 . S
O1461 C1466 1.256 . S
C1462 O1468 1.278 . S
C1462 O1469 1.241 . S
C1463 O1449 1.244 1_556 S
C1463 O1451 1.256 . S
C1464 O1453 1.239 . S
C1464 O1457 1.256 . S
C1465 O1454 1.278 . S
C1465 O1460 1.241 . S
C1466 O1456 1.244 . S
C1466 O1461 1.256 . S
C1467 O1458 1.239 . S
C1467 O1459 1.256 . S
O1468 Mn1450 2.221 . S
O1468 Mn1452 2.290 1_554 S
O1468 C1462 1.278 . S
O1469 Mn1452 2.251 1_554 S
O1469 C1462 1.241 . S
O1470 Mn1471 2.163 . S
O1470 C1484 1.244 . S
Mn1471 O1470 2.163 . S
Mn1471 O1474 2.160 . S
Mn1471 O1475 2.221 . S
Mn1471 O1477 2.163 . S
Mn1471 O1479 2.160 . S
Mn1471 O1489 2.221 . S
O1472 Mn1473 2.087 . S
O1472 C1484 1.256 . S
Mn1473 O1472 2.087 . S
Mn1473 O1480 2.089 . S
Mn1473 O1489 2.290 . S
Mn1473 O1490 2.251 . S
O1474 Mn1471 2.160 . S
O1474 C1485 1.239 . S
O1475 Mn1471 2.221 . S
O1475 Mn1476 2.290 . S
O1475 C1486 1.278 . S
Mn1476 O1475 2.290 . S
Mn1476 O1478 2.089 . S
Mn1476 O1481 2.251 . S
Mn1476 O1482 2.087 . S
O1477 Mn1471 2.163 . S
O1477 C1487 1.244 . S
O1478 Mn1476 2.089 . S
O1478 C1485 1.256 . S
O1479 Mn1471 2.160 . S
O1479 C1488 1.239 . S
O1480 Mn1473 2.089 . S
O1480 C1488 1.256 . S
O1481 Mn1476 2.251 . S
O1481 C1486 1.241 . S
O1482 Mn1476 2.087 . S
O1482 C1487 1.256 . S
C1483 O1489 1.278 . S
C1483 O1490 1.241 . S
C1484 O1470 1.244 . S
C1484 O1472 1.256 . S
C1485 O1474 1.239 . S
C1485 O1478 1.256 . S
C1486 O1475 1.278 . S
C1486 O1481 1.241 . S
C1487 O1477 1.244 . S
C1487 O1482 1.256 . S
C1488 O1479 1.239 . S
C1488 O1480 1.256 . S
O1489 Mn1471 2.221 . S
O1489 Mn1473 2.290 . S
O1489 C1483 1.278 . S
O1490 Mn1473 2.251 . S
O1490 C1483 1.241 . S
O1491 Mn1492 2.163 . S
O1491 C1505 1.244 . S
Mn1492 O1491 2.163 . S
Mn1492 O1495 2.160 . S
Mn1492 O1496 2.221 . S
Mn1492 O1498 2.163 . S
Mn1492 O1500 2.160 . S
Mn1492 O1510 2.221 . S
O1493 Mn1494 2.087 . S
O1493 C1505 1.256 . S
Mn1494 O1493 2.087 . S
Mn1494 O1501 2.089 . S
Mn1494 O1510 2.290 . S
Mn1494 O1511 2.251 . S
O1495 Mn1492 2.160 . S
O1495 C1506 1.239 . S
O1496 Mn1492 2.221 . S
O1496 Mn1497 2.290 . S
O1496 C1507 1.278 . S
Mn1497 O1496 2.290 . S
Mn1497 O1499 2.089 . S
Mn1497 O1502 2.251 . S
Mn1497 O1503 2.087 . S
O1498 Mn1492 2.163 . S
O1498 C1508 1.244 . S
O1499 Mn1497 2.089 . S
O1499 C1506 1.256 . S
O1500 Mn1492 2.160 . S
O1500 C1509 1.239 . S
O1501 Mn1494 2.089 . S
O1501 C1509 1.256 . S
O1502 Mn1497 2.251 . S
O1502 C1507 1.241 . S
O1503 Mn1497 2.087 . S
O1503 C1508 1.256 . S
C1504 O1510 1.278 . S
C1504 O1511 1.241 . S
C1505 O1491 1.244 . S
C1505 O1493 1.256 . S
C1506 O1495 1.239 . S
C1506 O1499 1.256 . S
C1507 O1496 1.278 . S
C1507 O1502 1.241 . S
C1508 O1498 1.244 . S
C1508 O1503 1.256 . S
C1509 O1500 1.239 . S
C1509 O1501 1.256 . S
O1510 Mn1492 2.221 . S
O1510 Mn1494 2.290 . S
O1510 C1504 1.278 . S
O1511 Mn1494 2.251 . S
O1511 C1504 1.241 . S
O1512 Mn1513 2.163 . S
O1512 C1526 1.244 . S
Mn1513 O1512 2.163 . S
Mn1513 O1516 2.160 . S
Mn1513 O1517 2.221 . S
Mn1513 O1519 2.163 . S
Mn1513 O1521 2.160 . S
Mn1513 O1531 2.221 . S
O1514 Mn1515 2.087 . S
O1514 C1526 1.256 . S
Mn1515 O1514 2.087 . S
Mn1515 O1522 2.089 . S
Mn1515 O1531 2.290 . S
Mn1515 O1532 2.251 . S
O1516 Mn1513 2.160 . S
O1516 C1527 1.239 . S
O1517 Mn1513 2.221 . S
O1517 Mn1518 2.290 . S
O1517 C1528 1.278 . S
Mn1518 O1517 2.290 . S
Mn1518 O1520 2.089 . S
Mn1518 O1523 2.251 . S
Mn1518 O1524 2.087 . S
O1519 Mn1513 2.163 . S
O1519 C1529 1.244 . S
O1520 Mn1518 2.089 . S
O1520 C1527 1.256 . S
O1521 Mn1513 2.160 . S
O1521 C1530 1.239 . S
O1522 Mn1515 2.089 . S
O1522 C1530 1.256 . S
O1523 Mn1518 2.251 . S
O1523 C1528 1.241 . S
O1524 Mn1518 2.087 . S
O1524 C1529 1.256 . S
C1525 O1531 1.278 . S
C1525 O1532 1.241 . S
C1526 O1512 1.244 . S
C1526 O1514 1.256 . S
C1527 O1516 1.239 . S
C1527 O1520 1.256 . S
C1528 O1517 1.278 . S
C1528 O1523 1.241 . S
C1529 O1519 1.244 . S
C1529 O1524 1.256 . S
C1530 O1521 1.239 . S
C1530 O1522 1.256 . S
O1531 Mn1513 2.221 . S
O1531 Mn1515 2.290 . S
O1531 C1525 1.278 . S
O1532 Mn1515 2.251 . S
O1532 C1525 1.241 . S
O1533 Mn1534 2.163 . S
O1533 C1547 1.244 . S
Mn1534 O1533 2.163 . S
Mn1534 O1537 2.160 . S
Mn1534 O1538 2.221 . S
Mn1534 O1540 2.163 . S
Mn1534 O1542 2.160 . S
Mn1534 O1552 2.221 . S
O1535 Mn1536 2.087 . S
O1535 C1547 1.256 . S
Mn1536 O1535 2.087 . S
Mn1536 O1543 2.089 . S
Mn1536 O1552 2.290 . S
Mn1536 O1553 2.251 . S
O1537 Mn1534 2.160 . S
O1537 C1548 1.239 . S
O1538 Mn1534 2.221 . S
O1538 Mn1539 2.290 . S
O1538 C1549 1.278 . S
Mn1539 O1538 2.290 . S
Mn1539 O1541 2.089 . S
Mn1539 O1544 2.251 . S
Mn1539 O1545 2.087 . S
O1540 Mn1534 2.163 . S
O1540 C1550 1.244 . S
O1541 Mn1539 2.089 . S
O1541 C1548 1.256 . S
O1542 Mn1534 2.160 . S
O1542 C1551 1.239 . S
O1543 Mn1536 2.089 . S
O1543 C1551 1.256 . S
O1544 Mn1539 2.251 . S
O1544 C1549 1.241 . S
O1545 Mn1539 2.087 . S
O1545 C1550 1.256 . S
C1546 O1552 1.278 . S
C1546 O1553 1.241 . S
C1547 O1533 1.244 . S
C1547 O1535 1.256 . S
C1548 O1537 1.239 . S
C1548 O1541 1.256 . S
C1549 O1538 1.278 . S
C1549 O1544 1.241 . S
C1550 O1540 1.244 . S
C1550 O1545 1.256 . S
C1551 O1542 1.239 . S
C1551 O1543 1.256 . S
O1552 Mn1534 2.221 . S
O1552 Mn1536 2.290 . S
O1552 C1546 1.278 . S
O1553 Mn1536 2.251 . S
O1553 C1546 1.241 . S
O1554 Mn1555 2.163 . S
O1554 C1568 1.244 1_455 S
Mn1555 O1554 2.163 . S
Mn1555 O1558 2.160 . S
Mn1555 O1559 2.221 . S
Mn1555 O1561 2.163 . S
Mn1555 O1563 2.160 1_455 S
Mn1555 O1573 2.221 . S
O1556 Mn1557 2.087 . S
O1556 C1568 1.256 . S
Mn1557 O1556 2.087 . S
Mn1557 O1564 2.089 . S
Mn1557 O1573 2.290 1_655 S
Mn1557 O1574 2.251 1_655 S
O1558 Mn1555 2.160 . S
O1558 C1569 1.239 . S
O1559 Mn1555 2.221 . S
O1559 Mn1560 2.290 . S
O1559 C1570 1.278 . S
Mn1560 O1559 2.290 . S
Mn1560 O1562 2.089 . S
Mn1560 O1565 2.251 . S
Mn1560 O1566 2.087 . S
O1561 Mn1555 2.163 . S
O1561 C1571 1.244 . S
O1562 Mn1560 2.089 . S
O1562 C1569 1.256 . S
O1563 Mn1555 2.160 1_655 S
O1563 C1572 1.239 . S
O1564 Mn1557 2.089 . S
O1564 C1572 1.256 . S
O1565 Mn1560 2.251 . S
O1565 C1570 1.241 . S
O1566 Mn1560 2.087 . S
O1566 C1571 1.256 . S
C1567 O1573 1.278 . S
C1567 O1574 1.241 . S
C1568 O1554 1.244 1_655 S
C1568 O1556 1.256 . S
C1569 O1558 1.239 . S
C1569 O1562 1.256 . S
C1570 O1559 1.278 . S
C1570 O1565 1.241 . S
C1571 O1561 1.244 . S
C1571 O1566 1.256 . S
C1572 O1563 1.239 . S
C1572 O1564 1.256 . S
O1573 Mn1555 2.221 . S
O1573 Mn1557 2.290 1_455 S
O1573 C1567 1.278 . S
O1574 Mn1557 2.251 1_455 S
O1574 C1567 1.241 . S
O1575 Mn1576 2.163 . S
O1575 C1589 1.244 . S
Mn1576 O1575 2.163 . S
Mn1576 O1579 2.160 . S
Mn1576 O1580 2.221 . S
Mn1576 O1582 2.163 . S
Mn1576 O1584 2.160 . S
Mn1576 O1594 2.221 . S
O1577 Mn1578 2.087 . S
O1577 C1589 1.256 . S
Mn1578 O1577 2.087 . S
Mn1578 O1585 2.089 . S
Mn1578 O1594 2.290 . S
Mn1578 O1595 2.251 . S
O1579 Mn1576 2.160 . S
O1579 C1590 1.239 . S
O1580 Mn1576 2.221 . S
O1580 Mn1581 2.290 . S
O1580 C1591 1.278 . S
Mn1581 O1580 2.290 . S
Mn1581 O1583 2.089 . S
Mn1581 O1586 2.251 . S
Mn1581 O1587 2.087 . S
O1582 Mn1576 2.163 . S
O1582 C1592 1.244 . S
O1583 Mn1581 2.089 . S
O1583 C1590 1.256 . S
O1584 Mn1576 2.160 . S
O1584 C1593 1.239 . S
O1585 Mn1578 2.089 . S
O1585 C1593 1.256 . S
O1586 Mn1581 2.251 . S
O1586 C1591 1.241 . S
O1587 Mn1581 2.087 . S
O1587 C1592 1.256 . S
C1588 O1594 1.278 . S
C1588 O1595 1.241 . S
C1589 O1575 1.244 . S
C1589 O1577 1.256 . S
C1590 O1579 1.239 . S
C1590 O1583 1.256 . S
C1591 O1580 1.278 . S
C1591 O1586 1.241 . S
C1592 O1582 1.244 . S
C1592 O1587 1.256 . S
C1593 O1584 1.239 . S
C1593 O1585 1.256 . S
O1594 Mn1576 2.221 . S
O1594 Mn1578 2.290 . S
O1594 C1588 1.278 . S
O1595 Mn1578 2.251 . S
O1595 C1588 1.241 . S
O1596 Mn1597 2.163 . S
O1596 C1610 1.244 . S
Mn1597 O1596 2.163 . S
Mn1597 O1600 2.160 . S
Mn1597 O1601 2.221 . S
Mn1597 O1603 2.163 . S
Mn1597 O1605 2.160 . S
Mn1597 O1615 2.221 . S
O1598 Mn1599 2.087 . S
O1598 C1610 1.256 . S
Mn1599 O1598 2.087 . S
Mn1599 O1606 2.089 . S
Mn1599 O1615 2.290 . S
Mn1599 O1616 2.251 . S
O1600 Mn1597 2.160 . S
O1600 C1611 1.239 . S
O1601 Mn1597 2.221 . S
O1601 Mn1602 2.290 . S
O1601 C1612 1.278 . S
Mn1602 O1601 2.290 . S
Mn1602 O1604 2.089 . S
Mn1602 O1607 2.251 . S
Mn1602 O1608 2.087 . S
O1603 Mn1597 2.163 . S
O1603 C1613 1.244 . S
O1604 Mn1602 2.089 . S
O1604 C1611 1.256 . S
O1605 Mn1597 2.160 . S
O1605 C1614 1.239 . S
O1606 Mn1599 2.089 . S
O1606 C1614 1.256 . S
O1607 Mn1602 2.251 . S
O1607 C1612 1.241 . S
O1608 Mn1602 2.087 . S
O1608 C1613 1.256 . S
C1609 O1615 1.278 . S
C1609 O1616 1.241 . S
C1610 O1596 1.244 . S
C1610 O1598 1.256 . S
C1611 O1600 1.239 . S
C1611 O1604 1.256 . S
C1612 O1601 1.278 . S
C1612 O1607 1.241 . S
C1613 O1603 1.244 . S
C1613 O1608 1.256 . S
C1614 O1605 1.239 . S
C1614 O1606 1.256 . S
O1615 Mn1597 2.221 . S
O1615 Mn1599 2.290 . S
O1615 C1609 1.278 . S
O1616 Mn1599 2.251 . S
O1616 C1609 1.241 . S
O1617 Mn1618 2.163 . S
O1617 C1631 1.244 . S
Mn1618 O1617 2.163 . S
Mn1618 O1621 2.160 . S
Mn1618 O1622 2.221 . S
Mn1618 O1624 2.163 . S
Mn1618 O1626 2.160 . S
Mn1618 O1636 2.221 . S
O1619 Mn1620 2.087 . S
O1619 C1631 1.256 . S
Mn1620 O1619 2.087 . S
Mn1620 O1627 2.089 . S
Mn1620 O1636 2.290 . S
Mn1620 O1637 2.251 . S
O1621 Mn1618 2.160 . S
O1621 C1632 1.239 . S
O1622 Mn1618 2.221 . S
O1622 Mn1623 2.290 . S
O1622 C1633 1.278 . S
Mn1623 O1622 2.290 . S
Mn1623 O1625 2.089 . S
Mn1623 O1628 2.251 . S
Mn1623 O1629 2.087 . S
O1624 Mn1618 2.163 . S
O1624 C1634 1.244 . S
O1625 Mn1623 2.089 . S
O1625 C1632 1.256 . S
O1626 Mn1618 2.160 . S
O1626 C1635 1.239 . S
O1627 Mn1620 2.089 . S
O1627 C1635 1.256 . S
O1628 Mn1623 2.251 . S
O1628 C1633 1.241 . S
O1629 Mn1623 2.087 . S
O1629 C1634 1.256 . S
C1630 O1636 1.278 . S
C1630 O1637 1.241 . S
C1631 O1617 1.244 . S
C1631 O1619 1.256 . S
C1632 O1621 1.239 . S
C1632 O1625 1.256 . S
C1633 O1622 1.278 . S
C1633 O1628 1.241 . S
C1634 O1624 1.244 . S
C1634 O1629 1.256 . S
C1635 O1626 1.239 . S
C1635 O1627 1.256 . S
O1636 Mn1618 2.221 . S
O1636 Mn1620 2.290 . S
O1636 C1630 1.278 . S
O1637 Mn1620 2.251 . S
O1637 C1630 1.241 . S
O1638 Mn1639 2.163 . S
O1638 C1652 1.244 . S
Mn1639 O1638 2.163 . S
Mn1639 O1642 2.160 1_455 S
Mn1639 O1643 2.221 . S
Mn1639 O1645 2.163 . S
Mn1639 O1647 2.160 . S
Mn1639 O1657 2.221 . S
O1640 Mn1641 2.087 . S
O1640 C1652 1.256 . S
Mn1641 O1640 2.087 . S
Mn1641 O1648 2.089 . S
Mn1641 O1657 2.290 . S
Mn1641 O1658 2.251 . S
O1642 Mn1639 2.160 1_655 S
O1642 C1653 1.239 . S
O1643 Mn1639 2.221 . S
O1643 Mn1644 2.290 1_455 S
O1643 C1654 1.278 . S
Mn1644 O1643 2.290 1_655 S
Mn1644 O1646 2.089 . S
Mn1644 O1649 2.251 1_655 S
Mn1644 O1650 2.087 . S
O1645 Mn1639 2.163 . S
O1645 C1655 1.244 1_455 S
O1646 Mn1644 2.089 . S
O1646 C1653 1.256 . S
O1647 Mn1639 2.160 . S
O1647 C1656 1.239 . S
O1648 Mn1641 2.089 . S
O1648 C1656 1.256 . S
O1649 Mn1644 2.251 1_455 S
O1649 C1654 1.241 . S
O1650 Mn1644 2.087 . S
O1650 C1655 1.256 . S
C1651 O1657 1.278 . S
C1651 O1658 1.241 . S
C1652 O1638 1.244 . S
C1652 O1640 1.256 . S
C1653 O1642 1.239 . S
C1653 O1646 1.256 . S
C1654 O1643 1.278 . S
C1654 O1649 1.241 . S
C1655 O1645 1.244 1_655 S
C1655 O1650 1.256 . S
C1656 O1647 1.239 . S
C1656 O1648 1.256 . S
O1657 Mn1639 2.221 . S
O1657 Mn1641 2.290 . S
O1657 C1651 1.278 . S
O1658 Mn1641 2.251 . S
O1658 C1651 1.241 . S
O1659 Mn1660 2.163 . S
O1659 C1673 1.244 . S
Mn1660 O1659 2.163 . S
Mn1660 O1663 2.160 . S
Mn1660 O1664 2.221 . S
Mn1660 O1666 2.163 . S
Mn1660 O1668 2.160 . S
Mn1660 O1678 2.221 . S
O1661 Mn1662 2.087 . S
O1661 C1673 1.256 . S
Mn1662 O1661 2.087 . S
Mn1662 O1669 2.089 . S
Mn1662 O1678 2.290 . S
Mn1662 O1679 2.251 . S
O1663 Mn1660 2.160 . S
O1663 C1674 1.239 . S
O1664 Mn1660 2.221 . S
O1664 Mn1665 2.290 . S
O1664 C1675 1.278 . S
Mn1665 O1664 2.290 . S
Mn1665 O1667 2.089 . S
Mn1665 O1670 2.251 . S
Mn1665 O1671 2.087 . S
O1666 Mn1660 2.163 . S
O1666 C1676 1.244 . S
O1667 Mn1665 2.089 . S
O1667 C1674 1.256 . S
O1668 Mn1660 2.160 . S
O1668 C1677 1.239 . S
O1669 Mn1662 2.089 . S
O1669 C1677 1.256 . S
O1670 Mn1665 2.251 . S
O1670 C1675 1.241 . S
O1671 Mn1665 2.087 . S
O1671 C1676 1.256 . S
C1672 O1678 1.278 . S
C1672 O1679 1.241 . S
C1673 O1659 1.244 . S
C1673 O1661 1.256 . S
C1674 O1663 1.239 . S
C1674 O1667 1.256 . S
C1675 O1664 1.278 . S
C1675 O1670 1.241 . S
C1676 O1666 1.244 . S
C1676 O1671 1.256 . S
C1677 O1668 1.239 . S
C1677 O1669 1.256 . S
O1678 Mn1660 2.221 . S
O1678 Mn1662 2.290 . S
O1678 C1672 1.278 . S
O1679 Mn1662 2.251 . S
O1679 C1672 1.241 . S
O1680 Mn1681 2.163 . S
O1680 C1694 1.244 . S
Mn1681 O1680 2.163 . S
Mn1681 O1684 2.160 . S
Mn1681 O1685 2.221 . S
Mn1681 O1687 2.163 . S
Mn1681 O1689 2.160 . S
Mn1681 O1699 2.221 . S
O1682 Mn1683 2.087 . S
O1682 C1694 1.256 . S
Mn1683 O1682 2.087 . S
Mn1683 O1690 2.089 . S
Mn1683 O1699 2.290 . S
Mn1683 O1700 2.251 . S
O1684 Mn1681 2.160 . S
O1684 C1695 1.239 . S
O1685 Mn1681 2.221 . S
O1685 Mn1686 2.290 . S
O1685 C1696 1.278 . S
Mn1686 O1685 2.290 . S
Mn1686 O1688 2.089 . S
Mn1686 O1691 2.251 . S
Mn1686 O1692 2.087 . S
O1687 Mn1681 2.163 . S
O1687 C1697 1.244 . S
O1688 Mn1686 2.089 . S
O1688 C1695 1.256 . S
O1689 Mn1681 2.160 . S
O1689 C1698 1.239 . S
O1690 Mn1683 2.089 . S
O1690 C1698 1.256 . S
O1691 Mn1686 2.251 . S
O1691 C1696 1.241 . S
O1692 Mn1686 2.087 . S
O1692 C1697 1.256 . S
C1693 O1699 1.278 . S
C1693 O1700 1.241 . S
C1694 O1680 1.244 . S
C1694 O1682 1.256 . S
C1695 O1684 1.239 . S
C1695 O1688 1.256 . S
C1696 O1685 1.278 . S
C1696 O1691 1.241 . S
C1697 O1687 1.244 . S
C1697 O1692 1.256 . S
C1698 O1689 1.239 . S
C1698 O1690 1.256 . S
O1699 Mn1681 2.221 . S
O1699 Mn1683 2.290 . S
O1699 C1693 1.278 . S
O1700 Mn1683 2.251 . S
O1700 C1693 1.241 . S
O1701 Mn1702 2.163 . S
O1701 C1715 1.244 . S
Mn1702 O1701 2.163 . S
Mn1702 O1705 2.160 . S
Mn1702 O1706 2.221 . S
Mn1702 O1708 2.163 . S
Mn1702 O1710 2.160 . S
Mn1702 O1720 2.221 . S
O1703 Mn1704 2.087 . S
O1703 C1715 1.256 . S
Mn1704 O1703 2.087 . S
Mn1704 O1711 2.089 . S
Mn1704 O1720 2.290 . S
Mn1704 O1721 2.251 . S
O1705 Mn1702 2.160 . S
O1705 C1716 1.239 . S
O1706 Mn1702 2.221 . S
O1706 Mn1707 2.290 . S
O1706 C1717 1.278 . S
Mn1707 O1706 2.290 . S
Mn1707 O1709 2.089 . S
Mn1707 O1712 2.251 . S
Mn1707 O1713 2.087 . S
O1708 Mn1702 2.163 . S
O1708 C1718 1.244 . S
O1709 Mn1707 2.089 . S
O1709 C1716 1.256 . S
O1710 Mn1702 2.160 . S
O1710 C1719 1.239 . S
O1711 Mn1704 2.089 . S
O1711 C1719 1.256 . S
O1712 Mn1707 2.251 . S
O1712 C1717 1.241 . S
O1713 Mn1707 2.087 . S
O1713 C1718 1.256 . S
C1714 O1720 1.278 . S
C1714 O1721 1.241 . S
C1715 O1701 1.244 . S
C1715 O1703 1.256 . S
C1716 O1705 1.239 . S
C1716 O1709 1.256 . S
C1717 O1706 1.278 . S
C1717 O1712 1.241 . S
C1718 O1708 1.244 . S
C1718 O1713 1.256 . S
C1719 O1710 1.239 . S
C1719 O1711 1.256 . S
O1720 Mn1702 2.221 . S
O1720 Mn1704 2.290 . S
O1720 C1714 1.278 . S
O1721 Mn1704 2.251 . S
O1721 C1714 1.241 . S
O1722 Mn1723 2.163 . S
O1722 C1736 1.244 . S
Mn1723 O1722 2.163 . S
Mn1723 O1726 2.160 . S
Mn1723 O1727 2.221 . S
Mn1723 O1729 2.163 . S
Mn1723 O1731 2.160 . S
Mn1723 O1741 2.221 . S
O1724 Mn1725 2.087 . S
O1724 C1736 1.256 . S
Mn1725 O1724 2.087 . S
Mn1725 O1732 2.089 . S
Mn1725 O1741 2.290 . S
Mn1725 O1742 2.251 . S
O1726 Mn1723 2.160 . S
O1726 C1737 1.239 . S
O1727 Mn1723 2.221 . S
O1727 Mn1728 2.290 . S
O1727 C1738 1.278 . S
Mn1728 O1727 2.290 . S
Mn1728 O1730 2.089 . S
Mn1728 O1733 2.251 . S
Mn1728 O1734 2.087 . S
O1729 Mn1723 2.163 . S
O1729 C1739 1.244 . S
O1730 Mn1728 2.089 . S
O1730 C1737 1.256 . S
O1731 Mn1723 2.160 . S
O1731 C1740 1.239 . S
O1732 Mn1725 2.089 . S
O1732 C1740 1.256 . S
O1733 Mn1728 2.251 . S
O1733 C1738 1.241 . S
O1734 Mn1728 2.087 . S
O1734 C1739 1.256 . S
C1735 O1741 1.278 . S
C1735 O1742 1.241 . S
C1736 O1722 1.244 . S
C1736 O1724 1.256 . S
C1737 O1726 1.239 . S
C1737 O1730 1.256 . S
C1738 O1727 1.278 . S
C1738 O1733 1.241 . S
C1739 O1729 1.244 . S
C1739 O1734 1.256 . S
C1740 O1731 1.239 . S
C1740 O1732 1.256 . S
O1741 Mn1723 2.221 . S
O1741 Mn1725 2.290 . S
O1741 C1735 1.278 . S
O1742 Mn1725 2.251 . S
O1742 C1735 1.241 . S
O1743 Mn1744 2.163 . S
O1743 C1757 1.244 . S
Mn1744 O1743 2.163 . S
Mn1744 O1747 2.160 . S
Mn1744 O1748 2.221 . S
Mn1744 O1750 2.163 . S
Mn1744 O1752 2.160 . S
Mn1744 O1762 2.221 . S
O1745 Mn1746 2.087 . S
O1745 C1757 1.256 . S
Mn1746 O1745 2.087 . S
Mn1746 O1753 2.089 . S
Mn1746 O1762 2.290 . S
Mn1746 O1763 2.251 . S
O1747 Mn1744 2.160 . S
O1747 C1758 1.239 . S
O1748 Mn1744 2.221 . S
O1748 Mn1749 2.290 . S
O1748 C1759 1.278 . S
Mn1749 O1748 2.290 . S
Mn1749 O1751 2.089 . S
Mn1749 O1754 2.251 . S
Mn1749 O1755 2.087 . S
O1750 Mn1744 2.163 . S
O1750 C1760 1.244 . S
O1751 Mn1749 2.089 . S
O1751 C1758 1.256 . S
O1752 Mn1744 2.160 . S
O1752 C1761 1.239 . S
O1753 Mn1746 2.089 . S
O1753 C1761 1.256 . S
O1754 Mn1749 2.251 . S
O1754 C1759 1.241 . S
O1755 Mn1749 2.087 . S
O1755 C1760 1.256 . S
C1756 O1762 1.278 . S
C1756 O1763 1.241 . S
C1757 O1743 1.244 . S
C1757 O1745 1.256 . S
C1758 O1747 1.239 . S
C1758 O1751 1.256 . S
C1759 O1748 1.278 . S
C1759 O1754 1.241 . S
C1760 O1750 1.244 . S
C1760 O1755 1.256 . S
C1761 O1752 1.239 . S
C1761 O1753 1.256 . S
O1762 Mn1744 2.221 . S
O1762 Mn1746 2.290 . S
O1762 C1756 1.278 . S
O1763 Mn1746 2.251 . S
O1763 C1756 1.241 . S
O1764 Mn1765 2.163 . S
O1764 C1778 1.244 . S
Mn1765 O1764 2.163 . S
Mn1765 O1768 2.160 . S
Mn1765 O1769 2.221 . S
Mn1765 O1771 2.163 . S
Mn1765 O1773 2.160 . S
Mn1765 O1783 2.221 . S
O1766 Mn1767 2.087 . S
O1766 C1778 1.256 . S
Mn1767 O1766 2.087 . S
Mn1767 O1774 2.089 . S
Mn1767 O1783 2.290 . S
Mn1767 O1784 2.251 . S
O1768 Mn1765 2.160 . S
O1768 C1779 1.239 . S
O1769 Mn1765 2.221 . S
O1769 Mn1770 2.290 . S
O1769 C1780 1.278 . S
Mn1770 O1769 2.290 . S
Mn1770 O1772 2.089 . S
Mn1770 O1775 2.251 . S
Mn1770 O1776 2.087 . S
O1771 Mn1765 2.163 . S
O1771 C1781 1.244 . S
O1772 Mn1770 2.089 . S
O1772 C1779 1.256 . S
O1773 Mn1765 2.160 . S
O1773 C1782 1.239 . S
O1774 Mn1767 2.089 . S
O1774 C1782 1.256 . S
O1775 Mn1770 2.251 . S
O1775 C1780 1.241 . S
O1776 Mn1770 2.087 . S
O1776 C1781 1.256 . S
C1777 O1783 1.278 . S
C1777 O1784 1.241 . S
C1778 O1764 1.244 . S
C1778 O1766 1.256 . S
C1779 O1768 1.239 . S
C1779 O1772 1.256 . S
C1780 O1769 1.278 . S
C1780 O1775 1.241 . S
C1781 O1771 1.244 . S
C1781 O1776 1.256 . S
C1782 O1773 1.239 . S
C1782 O1774 1.256 . S
O1783 Mn1765 2.221 . S
O1783 Mn1767 2.290 . S
O1783 C1777 1.278 . S
O1784 Mn1767 2.251 . S
O1784 C1777 1.241 . S
O1785 Mn1786 2.163 . S
O1785 C1799 1.244 . S
Mn1786 O1785 2.163 . S
Mn1786 O1789 2.160 . S
Mn1786 O1790 2.221 . S
Mn1786 O1792 2.163 . S
Mn1786 O1794 2.160 . S
Mn1786 O1804 2.221 . S
O1787 Mn1788 2.087 . S
O1787 C1799 1.256 . S
Mn1788 O1787 2.087 . S
Mn1788 O1795 2.089 . S
Mn1788 O1804 2.290 . S
Mn1788 O1805 2.251 . S
O1789 Mn1786 2.160 . S
O1789 C1800 1.239 . S
O1790 Mn1786 2.221 . S
O1790 Mn1791 2.290 . S
O1790 C1801 1.278 . S
Mn1791 O1790 2.290 . S
Mn1791 O1793 2.089 . S
Mn1791 O1796 2.251 . S
Mn1791 O1797 2.087 . S
O1792 Mn1786 2.163 . S
O1792 C1802 1.244 . S
O1793 Mn1791 2.089 . S
O1793 C1800 1.256 . S
O1794 Mn1786 2.160 . S
O1794 C1803 1.239 . S
O1795 Mn1788 2.089 . S
O1795 C1803 1.256 . S
O1796 Mn1791 2.251 . S
O1796 C1801 1.241 . S
O1797 Mn1791 2.087 . S
O1797 C1802 1.256 . S
C1798 O1804 1.278 . S
C1798 O1805 1.241 . S
C1799 O1785 1.244 . S
C1799 O1787 1.256 . S
C1800 O1789 1.239 . S
C1800 O1793 1.256 . S
C1801 O1790 1.278 . S
C1801 O1796 1.241 . S
C1802 O1792 1.244 . S
C1802 O1797 1.256 . S
C1803 O1794 1.239 . S
C1803 O1795 1.256 . S
O1804 Mn1786 2.221 . S
O1804 Mn1788 2.290 . S
O1804 C1798 1.278 . S
O1805 Mn1788 2.251 . S
O1805 C1798 1.241 . S
O1806 Mn1807 2.163 . S
O1806 C1820 1.244 . S
Mn1807 O1806 2.163 . S
Mn1807 O1810 2.160 . S
Mn1807 O1811 2.221 . S
Mn1807 O1813 2.163 . S
Mn1807 O1815 2.160 . S
Mn1807 O1825 2.221 . S
O1808 Mn1809 2.087 . S
O1808 C1820 1.256 . S
Mn1809 O1808 2.087 . S
Mn1809 O1816 2.089 . S
Mn1809 O1825 2.290 . S
Mn1809 O1826 2.251 . S
O1810 Mn1807 2.160 . S
O1810 C1821 1.239 . S
O1811 Mn1807 2.221 . S
O1811 Mn1812 2.290 . S
O1811 C1822 1.278 . S
Mn1812 O1811 2.290 . S
Mn1812 O1814 2.089 . S
Mn1812 O1817 2.251 . S
Mn1812 O1818 2.087 . S
O1813 Mn1807 2.163 . S
O1813 C1823 1.244 . S
O1814 Mn1812 2.089 . S
O1814 C1821 1.256 . S
O1815 Mn1807 2.160 . S
O1815 C1824 1.239 . S
O1816 Mn1809 2.089 . S
O1816 C1824 1.256 . S
O1817 Mn1812 2.251 . S
O1817 C1822 1.241 . S
O1818 Mn1812 2.087 . S
O1818 C1823 1.256 . S
C1819 O1825 1.278 . S
C1819 O1826 1.241 . S
C1820 O1806 1.244 . S
C1820 O1808 1.256 . S
C1821 O1810 1.239 . S
C1821 O1814 1.256 . S
C1822 O1811 1.278 . S
C1822 O1817 1.241 . S
C1823 O1813 1.244 . S
C1823 O1818 1.256 . S
C1824 O1815 1.239 . S
C1824 O1816 1.256 . S
O1825 Mn1807 2.221 . S
O1825 Mn1809 2.290 . S
O1825 C1819 1.278 . S
O1826 Mn1809 2.251 . S
O1826 C1819 1.241 . S
O1827 Mn1828 2.163 . S
O1827 C1841 1.244 . S
Mn1828 O1827 2.163 . S
Mn1828 O1831 2.160 . S
Mn1828 O1832 2.221 . S
Mn1828 O1834 2.163 . S
Mn1828 O1836 2.160 . S
Mn1828 O1846 2.221 . S
O1829 Mn1830 2.087 . S
O1829 C1841 1.256 . S
Mn1830 O1829 2.087 . S
Mn1830 O1837 2.089 . S
Mn1830 O1846 2.290 . S
Mn1830 O1847 2.251 . S
O1831 Mn1828 2.160 . S
O1831 C1842 1.239 . S
O1832 Mn1828 2.221 . S
O1832 Mn1833 2.290 . S
O1832 C1843 1.278 . S
Mn1833 O1832 2.290 . S
Mn1833 O1835 2.089 . S
Mn1833 O1838 2.251 . S
Mn1833 O1839 2.087 . S
O1834 Mn1828 2.163 . S
O1834 C1844 1.244 . S
O1835 Mn1833 2.089 . S
O1835 C1842 1.256 . S
O1836 Mn1828 2.160 . S
O1836 C1845 1.239 . S
O1837 Mn1830 2.089 . S
O1837 C1845 1.256 . S
O1838 Mn1833 2.251 . S
O1838 C1843 1.241 . S
O1839 Mn1833 2.087 . S
O1839 C1844 1.256 . S
C1840 O1846 1.278 . S
C1840 O1847 1.241 . S
C1841 O1827 1.244 . S
C1841 O1829 1.256 . S
C1842 O1831 1.239 . S
C1842 O1835 1.256 . S
C1843 O1832 1.278 . S
C1843 O1838 1.241 . S
C1844 O1834 1.244 . S
C1844 O1839 1.256 . S
C1845 O1836 1.239 . S
C1845 O1837 1.256 . S
O1846 Mn1828 2.221 . S
O1846 Mn1830 2.290 . S
O1846 C1840 1.278 . S
O1847 Mn1830 2.251 . S
O1847 C1840 1.241 . S
O1848 Mn1849 2.163 . S
O1848 C1862 1.244 . S
Mn1849 O1848 2.163 . S
Mn1849 O1852 2.160 . S
Mn1849 O1853 2.221 . S
Mn1849 O1855 2.163 . S
Mn1849 O1857 2.160 . S
Mn1849 O1867 2.221 . S
O1850 Mn1851 2.087 . S
O1850 C1862 1.256 . S
Mn1851 O1850 2.087 . S
Mn1851 O1858 2.089 . S
Mn1851 O1867 2.290 . S
Mn1851 O1868 2.251 . S
O1852 Mn1849 2.160 . S
O1852 C1863 1.239 . S
O1853 Mn1849 2.221 . S
O1853 Mn1854 2.290 . S
O1853 C1864 1.278 . S
Mn1854 O1853 2.290 . S
Mn1854 O1856 2.089 . S
Mn1854 O1859 2.251 . S
Mn1854 O1860 2.087 . S
O1855 Mn1849 2.163 . S
O1855 C1865 1.244 . S
O1856 Mn1854 2.089 . S
O1856 C1863 1.256 . S
O1857 Mn1849 2.160 . S
O1857 C1866 1.239 . S
O1858 Mn1851 2.089 . S
O1858 C1866 1.256 . S
O1859 Mn1854 2.251 . S
O1859 C1864 1.241 . S
O1860 Mn1854 2.087 . S
O1860 C1865 1.256 . S
C1861 O1867 1.278 . S
C1861 O1868 1.241 . S
C1862 O1848 1.244 . S
C1862 O1850 1.256 . S
C1863 O1852 1.239 . S
C1863 O1856 1.256 . S
C1864 O1853 1.278 . S
C1864 O1859 1.241 . S
C1865 O1855 1.244 . S
C1865 O1860 1.256 . S
C1866 O1857 1.239 . S
C1866 O1858 1.256 . S
O1867 Mn1849 2.221 . S
O1867 Mn1851 2.290 . S
O1867 C1861 1.278 . S
O1868 Mn1851 2.251 . S
O1868 C1861 1.241 . S
O1869 Mn1870 2.163 . S
O1869 C1883 1.244 . S
Mn1870 O1869 2.163 . S
Mn1870 O1873 2.160 . S
Mn1870 O1874 2.221 . S
Mn1870 O1876 2.163 . S
Mn1870 O1878 2.160 . S
Mn1870 O1888 2.221 . S
O1871 Mn1872 2.087 . S
O1871 C1883 1.256 . S
Mn1872 O1871 2.087 . S
Mn1872 O1879 2.089 . S
Mn1872 O1888 2.290 . S
Mn1872 O1889 2.251 . S
O1873 Mn1870 2.160 . S
O1873 C1884 1.239 . S
O1874 Mn1870 2.221 . S
O1874 Mn1875 2.290 . S
O1874 C1885 1.278 . S
Mn1875 O1874 2.290 . S
Mn1875 O1877 2.089 . S
Mn1875 O1880 2.251 . S
Mn1875 O1881 2.087 . S
O1876 Mn1870 2.163 . S
O1876 C1886 1.244 . S
O1877 Mn1875 2.089 . S
O1877 C1884 1.256 . S
O1878 Mn1870 2.160 . S
O1878 C1887 1.239 . S
O1879 Mn1872 2.089 . S
O1879 C1887 1.256 . S
O1880 Mn1875 2.251 . S
O1880 C1885 1.241 . S
O1881 Mn1875 2.087 . S
O1881 C1886 1.256 . S
C1882 O1888 1.278 . S
C1882 O1889 1.241 . S
C1883 O1869 1.244 . S
C1883 O1871 1.256 . S
C1884 O1873 1.239 . S
C1884 O1877 1.256 . S
C1885 O1874 1.278 . S
C1885 O1880 1.241 . S
C1886 O1876 1.244 . S
C1886 O1881 1.256 . S
C1887 O1878 1.239 . S
C1887 O1879 1.256 . S
O1888 Mn1870 2.221 . S
O1888 Mn1872 2.290 . S
O1888 C1882 1.278 . S
O1889 Mn1872 2.251 . S
O1889 C1882 1.241 . S
O1890 Mn1891 2.163 . S
O1890 C1904 1.244 . S
Mn1891 O1890 2.163 . S
Mn1891 O1894 2.160 . S
Mn1891 O1895 2.221 . S
Mn1891 O1897 2.163 . S
Mn1891 O1899 2.160 . S
Mn1891 O1909 2.221 . S
O1892 Mn1893 2.087 . S
O1892 C1904 1.256 . S
Mn1893 O1892 2.087 . S
Mn1893 O1900 2.089 . S
Mn1893 O1909 2.290 . S
Mn1893 O1910 2.251 . S
O1894 Mn1891 2.160 . S
O1894 C1905 1.239 . S
O1895 Mn1891 2.221 . S
O1895 Mn1896 2.290 . S
O1895 C1906 1.278 . S
Mn1896 O1895 2.290 . S
Mn1896 O1898 2.089 . S
Mn1896 O1901 2.251 . S
Mn1896 O1902 2.087 . S
O1897 Mn1891 2.163 . S
O1897 C1907 1.244 . S
O1898 Mn1896 2.089 . S
O1898 C1905 1.256 . S
O1899 Mn1891 2.160 . S
O1899 C1908 1.239 . S
O1900 Mn1893 2.089 . S
O1900 C1908 1.256 . S
O1901 Mn1896 2.251 . S
O1901 C1906 1.241 . S
O1902 Mn1896 2.087 . S
O1902 C1907 1.256 . S
C1903 O1909 1.278 . S
C1903 O1910 1.241 . S
C1904 O1890 1.244 . S
C1904 O1892 1.256 . S
C1905 O1894 1.239 . S
C1905 O1898 1.256 . S
C1906 O1895 1.278 . S
C1906 O1901 1.241 . S
C1907 O1897 1.244 . S
C1907 O1902 1.256 . S
C1908 O1899 1.239 . S
C1908 O1900 1.256 . S
O1909 Mn1891 2.221 . S
O1909 Mn1893 2.290 . S
O1909 C1903 1.278 . S
O1910 Mn1893 2.251 . S
O1910 C1903 1.241 . S
O1911 Mn1912 2.163 . S
O1911 C1925 1.244 1_554 S
Mn1912 O1911 2.163 . S
Mn1912 O1915 2.160 . S
Mn1912 O1916 2.221 . S
Mn1912 O1918 2.163 . S
Mn1912 O1920 2.160 1_554 S
Mn1912 O1930 2.221 . S
O1913 Mn1914 2.087 . S
O1913 C1925 1.256 . S
Mn1914 O1913 2.087 . S
Mn1914 O1921 2.089 . S
Mn1914 O1930 2.290 1_556 S
Mn1914 O1931 2.251 1_556 S
O1915 Mn1912 2.160 . S
O1915 C1926 1.239 . S
O1916 Mn1912 2.221 . S
O1916 Mn1917 2.290 . S
O1916 C1927 1.278 . S
Mn1917 O1916 2.290 . S
Mn1917 O1919 2.089 . S
Mn1917 O1922 2.251 . S
Mn1917 O1923 2.087 . S
O1918 Mn1912 2.163 . S
O1918 C1928 1.244 . S
O1919 Mn1917 2.089 . S
O1919 C1926 1.256 . S
O1920 Mn1912 2.160 1_556 S
O1920 C1929 1.239 . S
O1921 Mn1914 2.089 . S
O1921 C1929 1.256 . S
O1922 Mn1917 2.251 . S
O1922 C1927 1.241 . S
O1923 Mn1917 2.087 . S
O1923 C1928 1.256 . S
C1924 O1930 1.278 . S
C1924 O1931 1.241 . S
C1925 O1911 1.244 1_556 S
C1925 O1913 1.256 . S
C1926 O1915 1.239 . S
C1926 O1919 1.256 . S
C1927 O1916 1.278 . S
C1927 O1922 1.241 . S
C1928 O1918 1.244 . S
C1928 O1923 1.256 . S
C1929 O1920 1.239 . S
C1929 O1921 1.256 . S
O1930 Mn1912 2.221 . S
O1930 Mn1914 2.290 1_554 S
O1930 C1924 1.278 . S
O1931 Mn1914 2.251 1_554 S
O1931 C1924 1.241 . S
O1932 Mn1933 2.163 . S
O1932 C1946 1.244 . S
Mn1933 O1932 2.163 . S
Mn1933 O1936 2.160 . S
Mn1933 O1937 2.221 . S
Mn1933 O1939 2.163 . S
Mn1933 O1941 2.160 . S
Mn1933 O1951 2.221 . S
O1934 Mn1935 2.087 . S
O1934 C1946 1.256 . S
Mn1935 O1934 2.087 . S
Mn1935 O1942 2.089 . S
Mn1935 O1951 2.290 . S
Mn1935 O1952 2.251 . S
O1936 Mn1933 2.160 . S
O1936 C1947 1.239 . S
O1937 Mn1933 2.221 . S
O1937 Mn1938 2.290 . S
O1937 C1948 1.278 . S
Mn1938 O1937 2.290 . S
Mn1938 O1940 2.089 . S
Mn1938 O1943 2.251 . S
Mn1938 O1944 2.087 . S
O1939 Mn1933 2.163 . S
O1939 C1949 1.244 . S
O1940 Mn1938 2.089 . S
O1940 C1947 1.256 . S
O1941 Mn1933 2.160 . S
O1941 C1950 1.239 . S
O1942 Mn1935 2.089 . S
O1942 C1950 1.256 . S
O1943 Mn1938 2.251 . S
O1943 C1948 1.241 . S
O1944 Mn1938 2.087 . S
O1944 C1949 1.256 . S
C1945 O1951 1.278 . S
C1945 O1952 1.241 . S
C1946 O1932 1.244 . S
C1946 O1934 1.256 . S
C1947 O1936 1.239 . S
C1947 O1940 1.256 . S
C1948 O1937 1.278 . S
C1948 O1943 1.241 . S
C1949 O1939 1.244 . S
C1949 O1944 1.256 . S
C1950 O1941 1.239 . S
C1950 O1942 1.256 . S
O1951 Mn1933 2.221 . S
O1951 Mn1935 2.290 . S
O1951 C1945 1.278 . S
O1952 Mn1935 2.251 . S
O1952 C1945 1.241 . S
O1953 Mn1954 2.163 . S
O1953 C1967 1.244 1_556 S
Mn1954 O1953 2.163 . S
Mn1954 O1957 2.160 . S
Mn1954 O1958 2.221 . S
Mn1954 O1960 2.163 . S
Mn1954 O1962 2.160 1_556 S
Mn1954 O1972 2.221 . S
O1955 Mn1956 2.087 . S
O1955 C1967 1.256 . S
Mn1956 O1955 2.087 . S
Mn1956 O1963 2.089 . S
Mn1956 O1972 2.290 1_554 S
Mn1956 O1973 2.251 1_554 S
O1957 Mn1954 2.160 . S
O1957 C1968 1.239 . S
O1958 Mn1954 2.221 . S
O1958 Mn1959 2.290 . S
O1958 C1969 1.278 . S
Mn1959 O1958 2.290 . S
Mn1959 O1961 2.089 . S
Mn1959 O1964 2.251 . S
Mn1959 O1965 2.087 . S
O1960 Mn1954 2.163 . S
O1960 C1970 1.244 . S
O1961 Mn1959 2.089 . S
O1961 C1968 1.256 . S
O1962 Mn1954 2.160 1_554 S
O1962 C1971 1.239 . S
O1963 Mn1956 2.089 . S
O1963 C1971 1.256 . S
O1964 Mn1959 2.251 . S
O1964 C1969 1.241 . S
O1965 Mn1959 2.087 . S
O1965 C1970 1.256 . S
C1966 O1972 1.278 . S
C1966 O1973 1.241 . S
C1967 O1953 1.244 1_554 S
C1967 O1955 1.256 . S
C1968 O1957 1.239 . S
C1968 O1961 1.256 . S
C1969 O1958 1.278 . S
C1969 O1964 1.241 . S
C1970 O1960 1.244 . S
C1970 O1965 1.256 . S
C1971 O1962 1.239 . S
C1971 O1963 1.256 . S
O1972 Mn1954 2.221 . S
O1972 Mn1956 2.290 1_556 S
O1972 C1966 1.278 . S
O1973 Mn1956 2.251 1_556 S
O1973 C1966 1.241 . S
O1974 Mn1975 2.163 . S
O1974 C1988 1.244 . S
Mn1975 O1974 2.163 . S
Mn1975 O1978 2.160 . S
Mn1975 O1979 2.221 . S
Mn1975 O1981 2.163 . S
Mn1975 O1983 2.160 . S
Mn1975 O1993 2.221 . S
O1976 Mn1977 2.087 . S
O1976 C1988 1.256 . S
Mn1977 O1976 2.087 . S
Mn1977 O1984 2.089 . S
Mn1977 O1993 2.290 . S
Mn1977 O1994 2.251 . S
O1978 Mn1975 2.160 . S
O1978 C1989 1.239 . S
O1979 Mn1975 2.221 . S
O1979 Mn1980 2.290 . S
O1979 C1990 1.278 . S
Mn1980 O1979 2.290 . S
Mn1980 O1982 2.089 . S
Mn1980 O1985 2.251 . S
Mn1980 O1986 2.087 . S
O1981 Mn1975 2.163 . S
O1981 C1991 1.244 . S
O1982 Mn1980 2.089 . S
O1982 C1989 1.256 . S
O1983 Mn1975 2.160 . S
O1983 C1992 1.239 . S
O1984 Mn1977 2.089 . S
O1984 C1992 1.256 . S
O1985 Mn1980 2.251 . S
O1985 C1990 1.241 . S
O1986 Mn1980 2.087 . S
O1986 C1991 1.256 . S
C1987 O1993 1.278 . S
C1987 O1994 1.241 . S
C1988 O1974 1.244 . S
C1988 O1976 1.256 . S
C1989 O1978 1.239 . S
C1989 O1982 1.256 . S
C1990 O1979 1.278 . S
C1990 O1985 1.241 . S
C1991 O1981 1.244 . S
C1991 O1986 1.256 . S
C1992 O1983 1.239 . S
C1992 O1984 1.256 . S
O1993 Mn1975 2.221 . S
O1993 Mn1977 2.290 . S
O1993 C1987 1.278 . S
O1994 Mn1977 2.251 . S
O1994 C1987 1.241 . S
O1995 Mn1996 2.163 . S
O1995 C2009 1.244 . S
Mn1996 O1995 2.163 . S
Mn1996 O1999 2.160 . S
Mn1996 O2000 2.221 . S
Mn1996 O2002 2.163 . S
Mn1996 O2004 2.160 . S
Mn1996 O2014 2.221 . S
O1997 Mn1998 2.087 . S
O1997 C2009 1.256 . S
Mn1998 O1997 2.087 . S
Mn1998 O2005 2.089 . S
Mn1998 O2014 2.290 . S
Mn1998 O2015 2.251 . S
O1999 Mn1996 2.160 . S
O1999 C2010 1.239 . S
O2000 Mn1996 2.221 . S
O2000 Mn2001 2.290 . S
O2000 C2011 1.278 . S
Mn2001 O2000 2.290 . S
Mn2001 O2003 2.089 . S
Mn2001 O2006 2.251 . S
Mn2001 O2007 2.087 . S
O2002 Mn1996 2.163 . S
O2002 C2012 1.244 . S
O2003 Mn2001 2.089 . S
O2003 C2010 1.256 . S
O2004 Mn1996 2.160 . S
O2004 C2013 1.239 . S
O2005 Mn1998 2.089 . S
O2005 C2013 1.256 . S
O2006 Mn2001 2.251 . S
O2006 C2011 1.241 . S
O2007 Mn2001 2.087 . S
O2007 C2012 1.256 . S
C2008 O2014 1.278 . S
C2008 O2015 1.241 . S
C2009 O1995 1.244 . S
C2009 O1997 1.256 . S
C2010 O1999 1.239 . S
C2010 O2003 1.256 . S
C2011 O2000 1.278 . S
C2011 O2006 1.241 . S
C2012 O2002 1.244 . S
C2012 O2007 1.256 . S
C2013 O2004 1.239 . S
C2013 O2005 1.256 . S
O2014 Mn1996 2.221 . S
O2014 Mn1998 2.290 . S
O2014 C2008 1.278 . S
O2015 Mn1998 2.251 . S
O2015 C2008 1.241 . S
C2016 C2017 1.387 . S
C2016 H2020 0.950 . S
C2016 C2025 1.390 . S
C2017 C2016 1.387 . S
C2017 C2019 1.387 . S
H2018 C2025 0.950 . S
C2019 C2017 1.387 . S
C2019 C2021 1.390 . S
C2019 H2023 0.950 . S
H2020 C2016 0.950 . S
C2021 C2019 1.390 . S
C2021 C2022 1.387 . S
C2021 H2024 0.950 . S
C2022 C2021 1.387 . S
C2022 C2025 1.387 . S
H2023 C2019 0.950 . S
H2024 C2021 0.950 . S
C2025 C2016 1.390 . S
C2025 H2018 0.950 . S
C2025 C2022 1.387 . S
C2026 C2027 1.387 . S
C2026 H2030 0.950 . S
C2026 C2035 1.390 . S
C2027 C2026 1.387 . S
C2027 C2029 1.387 . S
H2028 C2035 0.950 . S
C2029 C2027 1.387 . S
C2029 C2031 1.390 . S
C2029 H2033 0.950 . S
H2030 C2026 0.950 . S
C2031 C2029 1.390 . S
C2031 C2032 1.387 . S
C2031 H2034 0.950 . S
C2032 C2031 1.387 . S
C2032 C2035 1.387 . S
H2033 C2029 0.950 . S
H2034 C2031 0.950 . S
C2035 C2026 1.390 . S
C2035 H2028 0.950 . S
C2035 C2032 1.387 . S
C2036 C2037 1.387 . S
C2036 H2040 0.950 . S
C2036 C2045 1.390 . S
C2037 C2036 1.387 . S
C2037 C2039 1.387 . S
H2038 C2045 0.950 . S
C2039 C2037 1.387 . S
C2039 C2041 1.390 . S
C2039 H2043 0.950 . S
H2040 C2036 0.950 . S
C2041 C2039 1.390 . S
C2041 C2042 1.387 . S
C2041 H2044 0.950 . S
C2042 C2041 1.387 . S
C2042 C2045 1.387 . S
H2043 C2039 0.950 . S
H2044 C2041 0.950 . S
C2045 C2036 1.390 . S
C2045 H2038 0.950 . S
C2045 C2042 1.387 . S
C2046 C2047 1.387 . S
C2046 H2050 0.950 . S
C2046 C2055 1.390 . S
C2047 C2046 1.387 . S
C2047 C2049 1.387 . S
H2048 C2055 0.950 . S
C2049 C2047 1.387 . S
C2049 C2051 1.390 . S
C2049 H2053 0.950 . S
H2050 C2046 0.950 . S
C2051 C2049 1.390 . S
C2051 C2052 1.387 . S
C2051 H2054 0.950 . S
C2052 C2051 1.387 . S
C2052 C2055 1.387 . S
H2053 C2049 0.950 . S
H2054 C2051 0.950 . S
C2055 C2046 1.390 . S
C2055 H2048 0.950 . S
C2055 C2052 1.387 . S
C2056 C2057 1.387 . S
C2056 H2060 0.950 . S
C2056 C2065 1.390 . S
C2057 C2056 1.387 . S
C2057 C2059 1.387 . S
H2058 C2065 0.950 . S
C2059 C2057 1.387 . S
C2059 C2061 1.390 . S
C2059 H2063 0.950 . S
H2060 C2056 0.950 . S
C2061 C2059 1.390 . S
C2061 C2062 1.387 . S
C2061 H2064 0.950 . S
C2062 C2061 1.387 . S
C2062 C2065 1.387 . S
H2063 C2059 0.950 . S
H2064 C2061 0.950 . S
C2065 C2056 1.390 . S
C2065 H2058 0.950 . S
C2065 C2062 1.387 . S
C2066 C2067 1.387 . S
C2066 H2070 0.950 . S
C2066 C2075 1.390 . S
C2067 C2066 1.387 . S
C2067 C2069 1.387 . S
H2068 C2075 0.950 . S
C2069 C2067 1.387 . S
C2069 C2071 1.390 . S
C2069 H2073 0.950 . S
H2070 C2066 0.950 . S
C2071 C2069 1.390 . S
C2071 C2072 1.387 . S
C2071 H2074 0.950 . S
C2072 C2071 1.387 . S
C2072 C2075 1.387 . S
H2073 C2069 0.950 . S
H2074 C2071 0.950 . S
C2075 C2066 1.390 . S
C2075 H2068 0.950 . S
C2075 C2072 1.387 . S
C2076 C2077 1.387 . S
C2076 H2080 0.950 . S
C2076 C2085 1.390 . S
C2077 C2076 1.387 . S
C2077 C2079 1.387 . S
H2078 C2085 0.950 . S
C2079 C2077 1.387 . S
C2079 C2081 1.390 . S
C2079 H2083 0.950 . S
H2080 C2076 0.950 . S
C2081 C2079 1.390 . S
C2081 C2082 1.387 . S
C2081 H2084 0.950 . S
C2082 C2081 1.387 . S
C2082 C2085 1.387 . S
H2083 C2079 0.950 . S
H2084 C2081 0.950 . S
C2085 C2076 1.390 . S
C2085 H2078 0.950 . S
C2085 C2082 1.387 . S
C2086 C2087 1.387 . S
C2086 H2090 0.950 . S
C2086 C2095 1.390 . S
C2087 C2086 1.387 . S
C2087 C2089 1.387 . S
H2088 C2095 0.950 . S
C2089 C2087 1.387 . S
C2089 C2091 1.390 . S
C2089 H2093 0.950 . S
H2090 C2086 0.950 . S
C2091 C2089 1.390 . S
C2091 C2092 1.387 . S
C2091 H2094 0.950 . S
C2092 C2091 1.387 . S
C2092 C2095 1.387 . S
H2093 C2089 0.950 . S
H2094 C2091 0.950 . S
C2095 C2086 1.390 . S
C2095 H2088 0.950 . S
C2095 C2092 1.387 . S
C2096 C2097 1.387 . S
C2096 H2100 0.950 . S
C2096 C2105 1.390 . S
C2097 C2096 1.387 . S
C2097 C2099 1.387 . S
H2098 C2105 0.950 . S
C2099 C2097 1.387 . S
C2099 C2101 1.390 . S
C2099 H2103 0.950 . S
H2100 C2096 0.950 . S
C2101 C2099 1.390 . S
C2101 C2102 1.387 . S
C2101 H2104 0.950 . S
C2102 C2101 1.387 . S
C2102 C2105 1.387 . S
H2103 C2099 0.950 . S
H2104 C2101 0.950 . S
C2105 C2096 1.390 . S
C2105 H2098 0.950 . S
C2105 C2102 1.387 . S
C2106 C2107 1.387 . S
C2106 H2110 0.950 . S
C2106 C2115 1.390 . S
C2107 C2106 1.387 . S
C2107 C2109 1.387 . S
H2108 C2115 0.950 . S
C2109 C2107 1.387 . S
C2109 C2111 1.390 . S
C2109 H2113 0.950 . S
H2110 C2106 0.950 . S
C2111 C2109 1.390 . S
C2111 C2112 1.387 . S
C2111 H2114 0.950 . S
C2112 C2111 1.387 . S
C2112 C2115 1.387 . S
H2113 C2109 0.950 . S
H2114 C2111 0.950 . S
C2115 C2106 1.390 . S
C2115 H2108 0.950 . S
C2115 C2112 1.387 . S
C2116 C2117 1.387 . S
C2116 H2120 0.950 . S
C2116 C2125 1.390 . S
C2117 C2116 1.387 . S
C2117 C2119 1.387 . S
H2118 C2125 0.950 . S
C2119 C2117 1.387 . S
C2119 C2121 1.390 . S
C2119 H2123 0.950 . S
H2120 C2116 0.950 . S
C2121 C2119 1.390 . S
C2121 C2122 1.387 . S
C2121 H2124 0.950 . S
C2122 C2121 1.387 . S
C2122 C2125 1.387 . S
H2123 C2119 0.950 . S
H2124 C2121 0.950 . S
C2125 C2116 1.390 . S
C2125 H2118 0.950 . S
C2125 C2122 1.387 . S
C2126 C2127 1.387 . S
C2126 H2130 0.950 . S
C2126 C2135 1.390 . S
C2127 C2126 1.387 . S
C2127 C2129 1.387 . S
H2128 C2135 0.950 . S
C2129 C2127 1.387 . S
C2129 C2131 1.390 . S
C2129 H2133 0.950 . S
H2130 C2126 0.950 . S
C2131 C2129 1.390 . S
C2131 C2132 1.387 . S
C2131 H2134 0.950 . S
C2132 C2131 1.387 . S
C2132 C2135 1.387 . S
H2133 C2129 0.950 . S
H2134 C2131 0.950 . S
C2135 C2126 1.390 . S
C2135 H2128 0.950 . S
C2135 C2132 1.387 . S
C2136 C2137 1.387 . S
C2136 H2140 0.950 . S
C2136 C2145 1.390 . S
C2137 C2136 1.387 . S
C2137 C2139 1.387 . S
H2138 C2145 0.950 . S
C2139 C2137 1.387 . S
C2139 C2141 1.390 . S
C2139 H2143 0.950 . S
H2140 C2136 0.950 . S
C2141 C2139 1.390 . S
C2141 C2142 1.387 . S
C2141 H2144 0.950 . S
C2142 C2141 1.387 . S
C2142 C2145 1.387 . S
H2143 C2139 0.950 . S
H2144 C2141 0.950 . S
C2145 C2136 1.390 . S
C2145 H2138 0.950 . S
C2145 C2142 1.387 . S
C2146 C2147 1.387 . S
C2146 H2150 0.950 . S
C2146 C2155 1.390 . S
C2147 C2146 1.387 . S
C2147 C2149 1.387 . S
H2148 C2155 0.950 . S
C2149 C2147 1.387 . S
C2149 C2151 1.390 . S
C2149 H2153 0.950 . S
H2150 C2146 0.950 . S
C2151 C2149 1.390 . S
C2151 C2152 1.387 . S
C2151 H2154 0.950 . S
C2152 C2151 1.387 . S
C2152 C2155 1.387 . S
H2153 C2149 0.950 . S
H2154 C2151 0.950 . S
C2155 C2146 1.390 . S
C2155 H2148 0.950 . S
C2155 C2152 1.387 . S
C2156 C2157 1.387 . S
C2156 H2160 0.950 . S
C2156 C2165 1.390 . S
C2157 C2156 1.387 . S
C2157 C2159 1.387 . S
H2158 C2165 0.950 . S
C2159 C2157 1.387 . S
C2159 C2161 1.390 . S
C2159 H2163 0.950 . S
H2160 C2156 0.950 . S
C2161 C2159 1.390 . S
C2161 C2162 1.387 . S
C2161 H2164 0.950 . S
C2162 C2161 1.387 . S
C2162 C2165 1.387 . S
H2163 C2159 0.950 . S
H2164 C2161 0.950 . S
C2165 C2156 1.390 . S
C2165 H2158 0.950 . S
C2165 C2162 1.387 . S
C2166 C2167 1.387 . S
C2166 H2170 0.950 . S
C2166 C2175 1.390 . S
C2167 C2166 1.387 . S
C2167 C2169 1.387 . S
H2168 C2175 0.950 . S
C2169 C2167 1.387 . S
C2169 C2171 1.390 . S
C2169 H2173 0.950 . S
H2170 C2166 0.950 . S
C2171 C2169 1.390 . S
C2171 C2172 1.387 . S
C2171 H2174 0.950 . S
C2172 C2171 1.387 . S
C2172 C2175 1.387 . S
H2173 C2169 0.950 . S
H2174 C2171 0.950 . S
C2175 C2166 1.390 . S
C2175 H2168 0.950 . S
C2175 C2172 1.387 . S
C2176 C2177 1.387 . S
C2176 H2180 0.950 . S
C2176 C2185 1.390 . S
C2177 C2176 1.387 . S
C2177 C2179 1.387 . S
H2178 C2185 0.950 . S
C2179 C2177 1.387 . S
C2179 C2181 1.390 . S
C2179 H2183 0.950 . S
H2180 C2176 0.950 . S
C2181 C2179 1.390 . S
C2181 C2182 1.387 . S
C2181 H2184 0.950 . S
C2182 C2181 1.387 . S
C2182 C2185 1.387 . S
H2183 C2179 0.950 . S
H2184 C2181 0.950 . S
C2185 C2176 1.390 . S
C2185 H2178 0.950 . S
C2185 C2182 1.387 . S
C2186 C2187 1.387 . S
C2186 H2190 0.950 . S
C2186 C2195 1.390 . S
C2187 C2186 1.387 . S
C2187 C2189 1.387 . S
H2188 C2195 0.950 . S
C2189 C2187 1.387 . S
C2189 C2191 1.390 . S
C2189 H2193 0.950 . S
H2190 C2186 0.950 . S
C2191 C2189 1.390 . S
C2191 C2192 1.387 . S
C2191 H2194 0.950 . S
C2192 C2191 1.387 . S
C2192 C2195 1.387 . S
H2193 C2189 0.950 . S
H2194 C2191 0.950 . S
C2195 C2186 1.390 . S
C2195 H2188 0.950 . S
C2195 C2192 1.387 . S
C2196 C2197 1.387 . S
C2196 H2200 0.950 . S
C2196 C2205 1.390 . S
C2197 C2196 1.387 . S
C2197 C2199 1.387 . S
H2198 C2205 0.950 . S
C2199 C2197 1.387 . S
C2199 C2201 1.390 . S
C2199 H2203 0.950 . S
H2200 C2196 0.950 . S
C2201 C2199 1.390 . S
C2201 C2202 1.387 . S
C2201 H2204 0.950 . S
C2202 C2201 1.387 . S
C2202 C2205 1.387 . S
H2203 C2199 0.950 . S
H2204 C2201 0.950 . S
C2205 C2196 1.390 . S
C2205 H2198 0.950 . S
C2205 C2202 1.387 . S
C2206 C2207 1.387 . S
C2206 H2210 0.950 . S
C2206 C2215 1.390 . S
C2207 C2206 1.387 . S
C2207 C2209 1.387 . S
H2208 C2215 0.950 . S
C2209 C2207 1.387 . S
C2209 C2211 1.390 . S
C2209 H2213 0.950 . S
H2210 C2206 0.950 . S
C2211 C2209 1.390 . S
C2211 C2212 1.387 . S
C2211 H2214 0.950 . S
C2212 C2211 1.387 . S
C2212 C2215 1.387 . S
H2213 C2209 0.950 . S
H2214 C2211 0.950 . S
C2215 C2206 1.390 . S
C2215 H2208 0.950 . S
C2215 C2212 1.387 . S
C2216 C2217 1.387 . S
C2216 H2220 0.950 . S
C2216 C2225 1.390 . S
C2217 C2216 1.387 . S
C2217 C2219 1.387 . S
H2218 C2225 0.950 . S
C2219 C2217 1.387 . S
C2219 C2221 1.390 . S
C2219 H2223 0.950 . S
H2220 C2216 0.950 . S
C2221 C2219 1.390 . S
C2221 C2222 1.387 . S
C2221 H2224 0.950 . S
C2222 C2221 1.387 . S
C2222 C2225 1.387 . S
H2223 C2219 0.950 . S
H2224 C2221 0.950 . S
C2225 C2216 1.390 . S
C2225 H2218 0.950 . S
C2225 C2222 1.387 . S
C2226 C2227 1.387 . S
C2226 H2230 0.950 . S
C2226 C2235 1.390 . S
C2227 C2226 1.387 . S
C2227 C2229 1.387 . S
H2228 C2235 0.950 . S
C2229 C2227 1.387 . S
C2229 C2231 1.390 . S
C2229 H2233 0.950 . S
H2230 C2226 0.950 . S
C2231 C2229 1.390 . S
C2231 C2232 1.387 . S
C2231 H2234 0.950 . S
C2232 C2231 1.387 . S
C2232 C2235 1.387 . S
H2233 C2229 0.950 . S
H2234 C2231 0.950 . S
C2235 C2226 1.390 . S
C2235 H2228 0.950 . S
C2235 C2232 1.387 . S
C2236 C2237 1.387 . S
C2236 H2240 0.950 . S
C2236 C2245 1.390 . S
C2237 C2236 1.387 . S
C2237 C2239 1.387 . S
H2238 C2245 0.950 . S
C2239 C2237 1.387 . S
C2239 C2241 1.390 . S
C2239 H2243 0.950 . S
H2240 C2236 0.950 . S
C2241 C2239 1.390 . S
C2241 C2242 1.387 . S
C2241 H2244 0.950 . S
C2242 C2241 1.387 . S
C2242 C2245 1.387 . S
H2243 C2239 0.950 . S
H2244 C2241 0.950 . S
C2245 C2236 1.390 . S
C2245 H2238 0.950 . S
C2245 C2242 1.387 . S
C2246 C2247 1.387 . S
C2246 H2250 0.950 . S
C2246 C2255 1.390 . S
C2247 C2246 1.387 . S
C2247 C2249 1.387 . S
H2248 C2255 0.950 . S
C2249 C2247 1.387 . S
C2249 C2251 1.390 . S
C2249 H2253 0.950 . S
H2250 C2246 0.950 . S
C2251 C2249 1.390 . S
C2251 C2252 1.387 . S
C2251 H2254 0.950 . S
C2252 C2251 1.387 . S
C2252 C2255 1.387 . S
H2253 C2249 0.950 . S
H2254 C2251 0.950 . S
C2255 C2246 1.390 . S
C2255 H2248 0.950 . S
C2255 C2252 1.387 . S
C2256 C2257 1.387 . S
C2256 H2260 0.950 . S
C2256 C2265 1.390 . S
C2257 C2256 1.387 . S
C2257 C2259 1.387 . S
H2258 C2265 0.950 . S
C2259 C2257 1.387 . S
C2259 C2261 1.390 . S
C2259 H2263 0.950 . S
H2260 C2256 0.950 . S
C2261 C2259 1.390 . S
C2261 C2262 1.387 . S
C2261 H2264 0.950 . S
C2262 C2261 1.387 . S
C2262 C2265 1.387 . S
H2263 C2259 0.950 . S
H2264 C2261 0.950 . S
C2265 C2256 1.390 . S
C2265 H2258 0.950 . S
C2265 C2262 1.387 . S
C2266 C2267 1.387 . S
C2266 H2270 0.950 . S
C2266 C2275 1.390 . S
C2267 C2266 1.387 . S
C2267 C2269 1.387 . S
H2268 C2275 0.950 . S
C2269 C2267 1.387 . S
C2269 C2271 1.390 . S
C2269 H2273 0.950 . S
H2270 C2266 0.950 . S
C2271 C2269 1.390 . S
C2271 C2272 1.387 . S
C2271 H2274 0.950 . S
C2272 C2271 1.387 . S
C2272 C2275 1.387 . S
H2273 C2269 0.950 . S
H2274 C2271 0.950 . S
C2275 C2266 1.390 . S
C2275 H2268 0.950 . S
C2275 C2272 1.387 . S
C2276 C2277 1.387 . S
C2276 H2280 0.950 . S
C2276 C2285 1.390 . S
C2277 C2276 1.387 . S
C2277 C2279 1.387 . S
H2278 C2285 0.950 . S
C2279 C2277 1.387 . S
C2279 C2281 1.390 . S
C2279 H2283 0.950 . S
H2280 C2276 0.950 . S
C2281 C2279 1.390 . S
C2281 C2282 1.387 . S
C2281 H2284 0.950 . S
C2282 C2281 1.387 . S
C2282 C2285 1.387 . S
H2283 C2279 0.950 . S
H2284 C2281 0.950 . S
C2285 C2276 1.390 . S
C2285 H2278 0.950 . S
C2285 C2282 1.387 . S
C2286 C2287 1.387 . S
C2286 H2290 0.950 . S
C2286 C2295 1.390 . S
C2287 C2286 1.387 . S
C2287 C2289 1.387 . S
H2288 C2295 0.950 . S
C2289 C2287 1.387 . S
C2289 C2291 1.390 . S
C2289 H2293 0.950 . S
H2290 C2286 0.950 . S
C2291 C2289 1.390 . S
C2291 C2292 1.387 . S
C2291 H2294 0.950 . S
C2292 C2291 1.387 . S
C2292 C2295 1.387 . S
H2293 C2289 0.950 . S
H2294 C2291 0.950 . S
C2295 C2286 1.390 . S
C2295 H2288 0.950 . S
C2295 C2292 1.387 . S
C2296 C2297 1.387 . S
C2296 H2300 0.950 . S
C2296 C2305 1.390 . S
C2297 C2296 1.387 . S
C2297 C2299 1.387 . S
H2298 C2305 0.950 . S
C2299 C2297 1.387 . S
C2299 C2301 1.390 . S
C2299 H2303 0.950 . S
H2300 C2296 0.950 . S
C2301 C2299 1.390 . S
C2301 C2302 1.387 . S
C2301 H2304 0.950 . S
C2302 C2301 1.387 . S
C2302 C2305 1.387 . S
H2303 C2299 0.950 . S
H2304 C2301 0.950 . S
C2305 C2296 1.390 . S
C2305 H2298 0.950 . S
C2305 C2302 1.387 . S
C2306 C2307 1.387 . S
C2306 H2310 0.950 . S
C2306 C2315 1.390 . S
C2307 C2306 1.387 . S
C2307 C2309 1.387 . S
H2308 C2315 0.950 . S
C2309 C2307 1.387 . S
C2309 C2311 1.390 . S
C2309 H2313 0.950 . S
H2310 C2306 0.950 . S
C2311 C2309 1.390 . S
C2311 C2312 1.387 . S
C2311 H2314 0.950 . S
C2312 C2311 1.387 . S
C2312 C2315 1.387 . S
H2313 C2309 0.950 . S
H2314 C2311 0.950 . S
C2315 C2306 1.390 . S
C2315 H2308 0.950 . S
C2315 C2312 1.387 . S
C2316 C2317 1.387 . S
C2316 H2320 0.950 . S
C2316 C2325 1.390 . S
C2317 C2316 1.387 . S
C2317 C2319 1.387 . S
H2318 C2325 0.950 . S
C2319 C2317 1.387 . S
C2319 C2321 1.390 . S
C2319 H2323 0.950 . S
H2320 C2316 0.950 . S
C2321 C2319 1.390 . S
C2321 C2322 1.387 . S
C2321 H2324 0.950 . S
C2322 C2321 1.387 . S
C2322 C2325 1.387 . S
H2323 C2319 0.950 . S
H2324 C2321 0.950 . S
C2325 C2316 1.390 . S
C2325 H2318 0.950 . S
C2325 C2322 1.387 . S
C2326 C2327 1.387 . S
C2326 H2330 0.950 . S
C2326 C2335 1.390 . S
C2327 C2326 1.387 . S
C2327 C2329 1.387 . S
H2328 C2335 0.950 . S
C2329 C2327 1.387 . S
C2329 C2331 1.390 . S
C2329 H2333 0.950 . S
H2330 C2326 0.950 . S
C2331 C2329 1.390 . S
C2331 C2332 1.387 . S
C2331 H2334 0.950 . S
C2332 C2331 1.387 . S
C2332 C2335 1.387 . S
H2333 C2329 0.950 . S
H2334 C2331 0.950 . S
C2335 C2326 1.390 . S
C2335 H2328 0.950 . S
C2335 C2332 1.387 . S
C2336 C2337 1.387 . S
C2336 H2340 0.950 . S
C2336 C2345 1.390 . S
C2337 C2336 1.387 . S
C2337 C2339 1.387 . S
H2338 C2345 0.950 . S
C2339 C2337 1.387 . S
C2339 C2341 1.390 . S
C2339 H2343 0.950 . S
H2340 C2336 0.950 . S
C2341 C2339 1.390 . S
C2341 C2342 1.387 . S
C2341 H2344 0.950 . S
C2342 C2341 1.387 . S
C2342 C2345 1.387 . S
H2343 C2339 0.950 . S
H2344 C2341 0.950 . S
C2345 C2336 1.390 . S
C2345 H2338 0.950 . S
C2345 C2342 1.387 . S
C2346 C2347 1.387 . S
C2346 H2350 0.950 . S
C2346 C2355 1.390 . S
C2347 C2346 1.387 . S
C2347 C2349 1.387 . S
H2348 C2355 0.950 . S
C2349 C2347 1.387 . S
C2349 C2351 1.390 . S
C2349 H2353 0.950 . S
H2350 C2346 0.950 . S
C2351 C2349 1.390 . S
C2351 C2352 1.387 . S
C2351 H2354 0.950 . S
C2352 C2351 1.387 . S
C2352 C2355 1.387 . S
H2353 C2349 0.950 . S
H2354 C2351 0.950 . S
C2355 C2346 1.390 . S
C2355 H2348 0.950 . S
C2355 C2352 1.387 . S
C2356 C2357 1.387 . S
C2356 H2360 0.950 . S
C2356 C2365 1.390 . S
C2357 C2356 1.387 . S
C2357 C2359 1.387 . S
H2358 C2365 0.950 . S
C2359 C2357 1.387 . S
C2359 C2361 1.390 . S
C2359 H2363 0.950 . S
H2360 C2356 0.950 . S
C2361 C2359 1.390 . S
C2361 C2362 1.387 . S
C2361 H2364 0.950 . S
C2362 C2361 1.387 . S
C2362 C2365 1.387 . S
H2363 C2359 0.950 . S
H2364 C2361 0.950 . S
C2365 C2356 1.390 . S
C2365 H2358 0.950 . S
C2365 C2362 1.387 . S
C2366 C2367 1.387 . S
C2366 H2370 0.950 . S
C2366 C2375 1.390 . S
C2367 C2366 1.387 . S
C2367 C2369 1.387 . S
H2368 C2375 0.950 . S
C2369 C2367 1.387 . S
C2369 C2371 1.390 . S
C2369 H2373 0.950 . S
H2370 C2366 0.950 . S
C2371 C2369 1.390 . S
C2371 C2372 1.387 . S
C2371 H2374 0.950 . S
C2372 C2371 1.387 . S
C2372 C2375 1.387 . S
H2373 C2369 0.950 . S
H2374 C2371 0.950 . S
C2375 C2366 1.390 . S
C2375 H2368 0.950 . S
C2375 C2372 1.387 . S
C2376 C2377 1.387 . S
C2376 H2380 0.950 . S
C2376 C2385 1.390 . S
C2377 C2376 1.387 . S
C2377 C2379 1.387 . S
H2378 C2385 0.950 . S
C2379 C2377 1.387 . S
C2379 C2381 1.390 . S
C2379 H2383 0.950 . S
H2380 C2376 0.950 . S
C2381 C2379 1.390 . S
C2381 C2382 1.387 . S
C2381 H2384 0.950 . S
C2382 C2381 1.387 . S
C2382 C2385 1.387 . S
H2383 C2379 0.950 . S
H2384 C2381 0.950 . S
C2385 C2376 1.390 . S
C2385 H2378 0.950 . S
C2385 C2382 1.387 . S
C2386 C2387 1.387 . S
C2386 H2390 0.950 . S
C2386 C2395 1.390 . S
C2387 C2386 1.387 . S
C2387 C2389 1.387 . S
H2388 C2395 0.950 . S
C2389 C2387 1.387 . S
C2389 C2391 1.390 . S
C2389 H2393 0.950 . S
H2390 C2386 0.950 . S
C2391 C2389 1.390 . S
C2391 C2392 1.387 . S
C2391 H2394 0.950 . S
C2392 C2391 1.387 . S
C2392 C2395 1.387 . S
H2393 C2389 0.950 . S
H2394 C2391 0.950 . S
C2395 C2386 1.390 . S
C2395 H2388 0.950 . S
C2395 C2392 1.387 . S
C2396 C2397 1.387 . S
C2396 H2400 0.950 . S
C2396 C2405 1.390 . S
C2397 C2396 1.387 . S
C2397 C2399 1.387 . S
H2398 C2405 0.950 . S
C2399 C2397 1.387 . S
C2399 C2401 1.390 . S
C2399 H2403 0.950 . S
H2400 C2396 0.950 . S
C2401 C2399 1.390 . S
C2401 C2402 1.387 . S
C2401 H2404 0.950 . S
C2402 C2401 1.387 . S
C2402 C2405 1.387 . S
H2403 C2399 0.950 . S
H2404 C2401 0.950 . S
C2405 C2396 1.390 . S
C2405 H2398 0.950 . S
C2405 C2402 1.387 . S
C2406 C2407 1.387 . S
C2406 H2410 0.950 . S
C2406 C2415 1.390 . S
C2407 C2406 1.387 . S
C2407 C2409 1.387 . S
H2408 C2415 0.950 . S
C2409 C2407 1.387 . S
C2409 C2411 1.390 . S
C2409 H2413 0.950 . S
H2410 C2406 0.950 . S
C2411 C2409 1.390 . S
C2411 C2412 1.387 . S
C2411 H2414 0.950 . S
C2412 C2411 1.387 . S
C2412 C2415 1.387 . S
H2413 C2409 0.950 . S
H2414 C2411 0.950 . S
C2415 C2406 1.390 . S
C2415 H2408 0.950 . S
C2415 C2412 1.387 . S
C2416 C2417 1.387 . S
C2416 H2420 0.950 . S
C2416 C2425 1.390 . S
C2417 C2416 1.387 . S
C2417 C2419 1.387 . S
H2418 C2425 0.950 . S
C2419 C2417 1.387 . S
C2419 C2421 1.390 . S
C2419 H2423 0.950 . S
H2420 C2416 0.950 . S
C2421 C2419 1.390 . S
C2421 C2422 1.387 . S
C2421 H2424 0.950 . S
C2422 C2421 1.387 . S
C2422 C2425 1.387 . S
H2423 C2419 0.950 . S
H2424 C2421 0.950 . S
C2425 C2416 1.390 . S
C2425 H2418 0.950 . S
C2425 C2422 1.387 . S
C2426 C2427 1.387 . S
C2426 H2430 0.950 . S
C2426 C2435 1.390 . S
C2427 C2426 1.387 . S
C2427 C2429 1.387 . S
H2428 C2435 0.950 . S
C2429 C2427 1.387 . S
C2429 C2431 1.390 . S
C2429 H2433 0.950 . S
H2430 C2426 0.950 . S
C2431 C2429 1.390 . S
C2431 C2432 1.387 . S
C2431 H2434 0.950 . S
C2432 C2431 1.387 . S
C2432 C2435 1.387 . S
H2433 C2429 0.950 . S
H2434 C2431 0.950 . S
C2435 C2426 1.390 . S
C2435 H2428 0.950 . S
C2435 C2432 1.387 . S
C2436 C2437 1.387 . S
C2436 H2440 0.950 . S
C2436 C2445 1.390 . S
C2437 C2436 1.387 . S
C2437 C2439 1.387 . S
H2438 C2445 0.950 . S
C2439 C2437 1.387 . S
C2439 C2441 1.390 . S
C2439 H2443 0.950 . S
H2440 C2436 0.950 . S
C2441 C2439 1.390 . S
C2441 C2442 1.387 . S
C2441 H2444 0.950 . S
C2442 C2441 1.387 . S
C2442 C2445 1.387 . S
H2443 C2439 0.950 . S
H2444 C2441 0.950 . S
C2445 C2436 1.390 . S
C2445 H2438 0.950 . S
C2445 C2442 1.387 . S
C2446 C2447 1.387 . S
C2446 H2450 0.950 . S
C2446 C2455 1.390 . S
C2447 C2446 1.387 . S
C2447 C2449 1.387 . S
H2448 C2455 0.950 . S
C2449 C2447 1.387 . S
C2449 C2451 1.390 . S
C2449 H2453 0.950 . S
H2450 C2446 0.950 . S
C2451 C2449 1.390 . S
C2451 C2452 1.387 . S
C2451 H2454 0.950 . S
C2452 C2451 1.387 . S
C2452 C2455 1.387 . S
H2453 C2449 0.950 . S
H2454 C2451 0.950 . S
C2455 C2446 1.390 . S
C2455 H2448 0.950 . S
C2455 C2452 1.387 . S
C2456 C2457 1.387 . S
C2456 H2460 0.950 . S
C2456 C2465 1.390 . S
C2457 C2456 1.387 . S
C2457 C2459 1.387 . S
H2458 C2465 0.950 . S
C2459 C2457 1.387 . S
C2459 C2461 1.390 . S
C2459 H2463 0.950 . S
H2460 C2456 0.950 . S
C2461 C2459 1.390 . S
C2461 C2462 1.387 . S
C2461 H2464 0.950 . S
C2462 C2461 1.387 . S
C2462 C2465 1.387 . S
H2463 C2459 0.950 . S
H2464 C2461 0.950 . S
C2465 C2456 1.390 . S
C2465 H2458 0.950 . S
C2465 C2462 1.387 . S
C2466 C2467 1.387 . S
C2466 H2470 0.950 . S
C2466 C2475 1.390 . S
C2467 C2466 1.387 . S
C2467 C2469 1.387 . S
H2468 C2475 0.950 . S
C2469 C2467 1.387 . S
C2469 C2471 1.390 . S
C2469 H2473 0.950 . S
H2470 C2466 0.950 . S
C2471 C2469 1.390 . S
C2471 C2472 1.387 . S
C2471 H2474 0.950 . S
C2472 C2471 1.387 . S
C2472 C2475 1.387 . S
H2473 C2469 0.950 . S
H2474 C2471 0.950 . S
C2475 C2466 1.390 . S
C2475 H2468 0.950 . S
C2475 C2472 1.387 . S
C2476 C2477 1.387 . S
C2476 H2480 0.950 . S
C2476 C2485 1.390 . S
C2477 C2476 1.387 . S
C2477 C2479 1.387 . S
H2478 C2485 0.950 . S
C2479 C2477 1.387 . S
C2479 C2481 1.390 . S
C2479 H2483 0.950 . S
H2480 C2476 0.950 . S
C2481 C2479 1.390 . S
C2481 C2482 1.387 . S
C2481 H2484 0.950 . S
C2482 C2481 1.387 . S
C2482 C2485 1.387 . S
H2483 C2479 0.950 . S
H2484 C2481 0.950 . S
C2485 C2476 1.390 . S
C2485 H2478 0.950 . S
C2485 C2482 1.387 . S
C2486 C2487 1.387 . S
C2486 H2490 0.950 . S
C2486 C2495 1.390 . S
C2487 C2486 1.387 . S
C2487 C2489 1.387 . S
H2488 C2495 0.950 . S
C2489 C2487 1.387 . S
C2489 C2491 1.390 . S
C2489 H2493 0.950 . S
H2490 C2486 0.950 . S
C2491 C2489 1.390 . S
C2491 C2492 1.387 . S
C2491 H2494 0.950 . S
C2492 C2491 1.387 . S
C2492 C2495 1.387 . S
H2493 C2489 0.950 . S
H2494 C2491 0.950 . S
C2495 C2486 1.390 . S
C2495 H2488 0.950 . S
C2495 C2492 1.387 . S
C2496 C2497 1.387 . S
C2496 H2500 0.950 . S
C2496 C2505 1.390 . S
C2497 C2496 1.387 . S
C2497 C2499 1.387 . S
H2498 C2505 0.950 . S
C2499 C2497 1.387 . S
C2499 C2501 1.390 . S
C2499 H2503 0.950 . S
H2500 C2496 0.950 . S
C2501 C2499 1.390 . S
C2501 C2502 1.387 . S
C2501 H2504 0.950 . S
C2502 C2501 1.387 . S
C2502 C2505 1.387 . S
H2503 C2499 0.950 . S
H2504 C2501 0.950 . S
C2505 C2496 1.390 . S
C2505 H2498 0.950 . S
C2505 C2502 1.387 . S
C2506 C2507 1.387 . S
C2506 H2510 0.950 . S
C2506 C2515 1.390 . S
C2507 C2506 1.387 . S
C2507 C2509 1.387 . S
H2508 C2515 0.950 . S
C2509 C2507 1.387 . S
C2509 C2511 1.390 . S
C2509 H2513 0.950 . S
H2510 C2506 0.950 . S
C2511 C2509 1.390 . S
C2511 C2512 1.387 . S
C2511 H2514 0.950 . S
C2512 C2511 1.387 . S
C2512 C2515 1.387 . S
H2513 C2509 0.950 . S
H2514 C2511 0.950 . S
C2515 C2506 1.390 . S
C2515 H2508 0.950 . S
C2515 C2512 1.387 . S
C2516 C2517 1.387 . S
C2516 H2520 0.950 . S
C2516 C2525 1.390 . S
C2517 C2516 1.387 . S
C2517 C2519 1.387 . S
H2518 C2525 0.950 . S
C2519 C2517 1.387 . S
C2519 C2521 1.390 . S
C2519 H2523 0.950 . S
H2520 C2516 0.950 . S
C2521 C2519 1.390 . S
C2521 C2522 1.387 . S
C2521 H2524 0.950 . S
C2522 C2521 1.387 . S
C2522 C2525 1.387 . S
H2523 C2519 0.950 . S
H2524 C2521 0.950 . S
C2525 C2516 1.390 . S
C2525 H2518 0.950 . S
C2525 C2522 1.387 . S
C2526 C2527 1.387 . S
C2526 H2530 0.950 . S
C2526 C2535 1.390 . S
C2527 C2526 1.387 . S
C2527 C2529 1.387 . S
H2528 C2535 0.950 . S
C2529 C2527 1.387 . S
C2529 C2531 1.390 . S
C2529 H2533 0.950 . S
H2530 C2526 0.950 . S
C2531 C2529 1.390 . S
C2531 C2532 1.387 . S
C2531 H2534 0.950 . S
C2532 C2531 1.387 . S
C2532 C2535 1.387 . S
H2533 C2529 0.950 . S
H2534 C2531 0.950 . S
C2535 C2526 1.390 . S
C2535 H2528 0.950 . S
C2535 C2532 1.387 . S
C2536 C2537 1.387 . S
C2536 H2540 0.950 . S
C2536 C2545 1.390 . S
C2537 C2536 1.387 . S
C2537 C2539 1.387 . S
H2538 C2545 0.950 . S
C2539 C2537 1.387 . S
C2539 C2541 1.390 . S
C2539 H2543 0.950 . S
H2540 C2536 0.950 . S
C2541 C2539 1.390 . S
C2541 C2542 1.387 . S
C2541 H2544 0.950 . S
C2542 C2541 1.387 . S
C2542 C2545 1.387 . S
H2543 C2539 0.950 . S
H2544 C2541 0.950 . S
C2545 C2536 1.390 . S
C2545 H2538 0.950 . S
C2545 C2542 1.387 . S
C2546 C2547 1.387 . S
C2546 H2550 0.950 . S
C2546 C2555 1.390 . S
C2547 C2546 1.387 . S
C2547 C2549 1.387 . S
H2548 C2555 0.950 . S
C2549 C2547 1.387 . S
C2549 C2551 1.390 . S
C2549 H2553 0.950 . S
H2550 C2546 0.950 . S
C2551 C2549 1.390 . S
C2551 C2552 1.387 . S
C2551 H2554 0.950 . S
C2552 C2551 1.387 . S
C2552 C2555 1.387 . S
H2553 C2549 0.950 . S
H2554 C2551 0.950 . S
C2555 C2546 1.390 . S
C2555 H2548 0.950 . S
C2555 C2552 1.387 . S
C2556 C2557 1.387 . S
C2556 H2560 0.950 . S
C2556 C2565 1.390 . S
C2557 C2556 1.387 . S
C2557 C2559 1.387 . S
H2558 C2565 0.950 . S
C2559 C2557 1.387 . S
C2559 C2561 1.390 . S
C2559 H2563 0.950 . S
H2560 C2556 0.950 . S
C2561 C2559 1.390 . S
C2561 C2562 1.387 . S
C2561 H2564 0.950 . S
C2562 C2561 1.387 . S
C2562 C2565 1.387 . S
H2563 C2559 0.950 . S
H2564 C2561 0.950 . S
C2565 C2556 1.390 . S
C2565 H2558 0.950 . S
C2565 C2562 1.387 . S
C2566 C2567 1.387 . S
C2566 H2570 0.950 . S
C2566 C2575 1.390 . S
C2567 C2566 1.387 . S
C2567 C2569 1.387 . S
H2568 C2575 0.950 . S
C2569 C2567 1.387 . S
C2569 C2571 1.390 . S
C2569 H2573 0.950 . S
H2570 C2566 0.950 . S
C2571 C2569 1.390 . S
C2571 C2572 1.387 . S
C2571 H2574 0.950 . S
C2572 C2571 1.387 . S
C2572 C2575 1.387 . S
H2573 C2569 0.950 . S
H2574 C2571 0.950 . S
C2575 C2566 1.390 . S
C2575 H2568 0.950 . S
C2575 C2572 1.387 . S
C2576 C2577 1.387 . S
C2576 H2580 0.950 . S
C2576 C2585 1.390 . S
C2577 C2576 1.387 . S
C2577 C2579 1.387 . S
H2578 C2585 0.950 . S
C2579 C2577 1.387 . S
C2579 C2581 1.390 . S
C2579 H2583 0.950 . S
H2580 C2576 0.950 . S
C2581 C2579 1.390 . S
C2581 C2582 1.387 . S
C2581 H2584 0.950 . S
C2582 C2581 1.387 . S
C2582 C2585 1.387 . S
H2583 C2579 0.950 . S
H2584 C2581 0.950 . S
C2585 C2576 1.390 . S
C2585 H2578 0.950 . S
C2585 C2582 1.387 . S
C2586 C2587 1.387 . S
C2586 H2590 0.950 . S
C2586 C2595 1.390 . S
C2587 C2586 1.387 . S
C2587 C2589 1.387 . S
H2588 C2595 0.950 . S
C2589 C2587 1.387 . S
C2589 C2591 1.390 . S
C2589 H2593 0.950 . S
H2590 C2586 0.950 . S
C2591 C2589 1.390 . S
C2591 C2592 1.387 . S
C2591 H2594 0.950 . S
C2592 C2591 1.387 . S
C2592 C2595 1.387 . S
H2593 C2589 0.950 . S
H2594 C2591 0.950 . S
C2595 C2586 1.390 . S
C2595 H2588 0.950 . S
C2595 C2592 1.387 . S
C2596 C2597 1.387 . S
C2596 H2600 0.950 . S
C2596 C2605 1.390 . S
C2597 C2596 1.387 . S
C2597 C2599 1.387 . S
H2598 C2605 0.950 . S
C2599 C2597 1.387 . S
C2599 C2601 1.390 . S
C2599 H2603 0.950 . S
H2600 C2596 0.950 . S
C2601 C2599 1.390 . S
C2601 C2602 1.387 . S
C2601 H2604 0.950 . S
C2602 C2601 1.387 . S
C2602 C2605 1.387 . S
H2603 C2599 0.950 . S
H2604 C2601 0.950 . S
C2605 C2596 1.390 . S
C2605 H2598 0.950 . S
C2605 C2602 1.387 . S
C2606 C2607 1.387 . S
C2606 H2610 0.950 . S
C2606 C2615 1.390 . S
C2607 C2606 1.387 . S
C2607 C2609 1.387 . S
H2608 C2615 0.950 . S
C2609 C2607 1.387 . S
C2609 C2611 1.390 . S
C2609 H2613 0.950 . S
H2610 C2606 0.950 . S
C2611 C2609 1.390 . S
C2611 C2612 1.387 . S
C2611 H2614 0.950 . S
C2612 C2611 1.387 . S
C2612 C2615 1.387 . S
H2613 C2609 0.950 . S
H2614 C2611 0.950 . S
C2615 C2606 1.390 . S
C2615 H2608 0.950 . S
C2615 C2612 1.387 . S
C2616 C2617 1.387 . S
C2616 H2620 0.950 . S
C2616 C2625 1.390 . S
C2617 C2616 1.387 . S
C2617 C2619 1.387 . S
H2618 C2625 0.950 . S
C2619 C2617 1.387 . S
C2619 C2621 1.390 . S
C2619 H2623 0.950 . S
H2620 C2616 0.950 . S
C2621 C2619 1.390 . S
C2621 C2622 1.387 . S
C2621 H2624 0.950 . S
C2622 C2621 1.387 . S
C2622 C2625 1.387 . S
H2623 C2619 0.950 . S
H2624 C2621 0.950 . S
C2625 C2616 1.390 . S
C2625 H2618 0.950 . S
C2625 C2622 1.387 . S
C2626 C2627 1.387 . S
C2626 H2630 0.950 . S
C2626 C2635 1.390 . S
C2627 C2626 1.387 . S
C2627 C2629 1.387 . S
H2628 C2635 0.950 . S
C2629 C2627 1.387 . S
C2629 C2631 1.390 . S
C2629 H2633 0.950 . S
H2630 C2626 0.950 . S
C2631 C2629 1.390 . S
C2631 C2632 1.387 . S
C2631 H2634 0.950 . S
C2632 C2631 1.387 . S
C2632 C2635 1.387 . S
H2633 C2629 0.950 . S
H2634 C2631 0.950 . S
C2635 C2626 1.390 . S
C2635 H2628 0.950 . S
C2635 C2632 1.387 . S
C2636 C2637 1.387 . S
C2636 H2640 0.950 . S
C2636 C2645 1.390 . S
C2637 C2636 1.387 . S
C2637 C2639 1.387 . S
H2638 C2645 0.950 . S
C2639 C2637 1.387 . S
C2639 C2641 1.390 . S
C2639 H2643 0.950 . S
H2640 C2636 0.950 . S
C2641 C2639 1.390 . S
C2641 C2642 1.387 . S
C2641 H2644 0.950 . S
C2642 C2641 1.387 . S
C2642 C2645 1.387 . S
H2643 C2639 0.950 . S
H2644 C2641 0.950 . S
C2645 C2636 1.390 . S
C2645 H2638 0.950 . S
C2645 C2642 1.387 . S
C2646 C2647 1.387 . S
C2646 H2650 0.950 . S
C2646 C2655 1.390 . S
C2647 C2646 1.387 . S
C2647 C2649 1.387 . S
H2648 C2655 0.950 . S
C2649 C2647 1.387 . S
C2649 C2651 1.390 . S
C2649 H2653 0.950 . S
H2650 C2646 0.950 . S
C2651 C2649 1.390 . S
C2651 C2652 1.387 . S
C2651 H2654 0.950 . S
C2652 C2651 1.387 . S
C2652 C2655 1.387 . S
H2653 C2649 0.950 . S
H2654 C2651 0.950 . S
C2655 C2646 1.390 . S
C2655 H2648 0.950 . S
C2655 C2652 1.387 . S
C2656 C2657 1.387 . S
C2656 H2660 0.950 . S
C2656 C2665 1.390 . S
C2657 C2656 1.387 . S
C2657 C2659 1.387 . S
H2658 C2665 0.950 . S
C2659 C2657 1.387 . S
C2659 C2661 1.390 . S
C2659 H2663 0.950 . S
H2660 C2656 0.950 . S
C2661 C2659 1.390 . S
C2661 C2662 1.387 . S
C2661 H2664 0.950 . S
C2662 C2661 1.387 . S
C2662 C2665 1.387 . S
H2663 C2659 0.950 . S
H2664 C2661 0.950 . S
C2665 C2656 1.390 . S
C2665 H2658 0.950 . S
C2665 C2662 1.387 . S
C2666 C2667 1.387 . S
C2666 H2670 0.950 . S
C2666 C2675 1.390 . S
C2667 C2666 1.387 . S
C2667 C2669 1.387 . S
H2668 C2675 0.950 . S
C2669 C2667 1.387 . S
C2669 C2671 1.390 . S
C2669 H2673 0.950 . S
H2670 C2666 0.950 . S
C2671 C2669 1.390 . S
C2671 C2672 1.387 . S
C2671 H2674 0.950 . S
C2672 C2671 1.387 . S
C2672 C2675 1.387 . S
H2673 C2669 0.950 . S
H2674 C2671 0.950 . S
C2675 C2666 1.390 . S
C2675 H2668 0.950 . S
C2675 C2672 1.387 . S
C2676 C2677 1.387 . S
C2676 H2680 0.950 . S
C2676 C2685 1.390 . S
C2677 C2676 1.387 . S
C2677 C2679 1.387 . S
H2678 C2685 0.950 . S
C2679 C2677 1.387 . S
C2679 C2681 1.390 . S
C2679 H2683 0.950 . S
H2680 C2676 0.950 . S
C2681 C2679 1.390 . S
C2681 C2682 1.387 . S
C2681 H2684 0.950 . S
C2682 C2681 1.387 . S
C2682 C2685 1.387 . S
H2683 C2679 0.950 . S
H2684 C2681 0.950 . S
C2685 C2676 1.390 . S
C2685 H2678 0.950 . S
C2685 C2682 1.387 . S
C2686 C2687 1.387 . S
C2686 H2690 0.950 . S
C2686 C2695 1.390 . S
C2687 C2686 1.387 . S
C2687 C2689 1.387 . S
H2688 C2695 0.950 . S
C2689 C2687 1.387 . S
C2689 C2691 1.390 . S
C2689 H2693 0.950 . S
H2690 C2686 0.950 . S
C2691 C2689 1.390 . S
C2691 C2692 1.387 . S
C2691 H2694 0.950 . S
C2692 C2691 1.387 . S
C2692 C2695 1.387 . S
H2693 C2689 0.950 . S
H2694 C2691 0.950 . S
C2695 C2686 1.390 . S
C2695 H2688 0.950 . S
C2695 C2692 1.387 . S
C2696 C2697 1.387 . S
C2696 H2700 0.950 . S
C2696 C2705 1.390 . S
C2697 C2696 1.387 . S
C2697 C2699 1.387 . S
H2698 C2705 0.950 . S
C2699 C2697 1.387 . S
C2699 C2701 1.390 . S
C2699 H2703 0.950 . S
H2700 C2696 0.950 . S
C2701 C2699 1.390 . S
C2701 C2702 1.387 . S
C2701 H2704 0.950 . S
C2702 C2701 1.387 . S
C2702 C2705 1.387 . S
H2703 C2699 0.950 . S
H2704 C2701 0.950 . S
C2705 C2696 1.390 . S
C2705 H2698 0.950 . S
C2705 C2702 1.387 . S
C2706 C2707 1.387 . S
C2706 H2710 0.950 . S
C2706 C2715 1.390 . S
C2707 C2706 1.387 . S
C2707 C2709 1.387 . S
H2708 C2715 0.950 . S
C2709 C2707 1.387 . S
C2709 C2711 1.390 . S
C2709 H2713 0.950 . S
H2710 C2706 0.950 . S
C2711 C2709 1.390 . S
C2711 C2712 1.387 . S
C2711 H2714 0.950 . S
C2712 C2711 1.387 . S
C2712 C2715 1.387 . S
H2713 C2709 0.950 . S
H2714 C2711 0.950 . S
C2715 C2706 1.390 . S
C2715 H2708 0.950 . S
C2715 C2712 1.387 . S
C2716 C2717 1.387 . S
C2716 H2720 0.950 . S
C2716 C2725 1.390 . S
C2717 C2716 1.387 . S
C2717 C2719 1.387 . S
H2718 C2725 0.950 . S
C2719 C2717 1.387 . S
C2719 C2721 1.390 . S
C2719 H2723 0.950 . S
H2720 C2716 0.950 . S
C2721 C2719 1.390 . S
C2721 C2722 1.387 . S
C2721 H2724 0.950 . S
C2722 C2721 1.387 . S
C2722 C2725 1.387 . S
H2723 C2719 0.950 . S
H2724 C2721 0.950 . S
C2725 C2716 1.390 . S
C2725 H2718 0.950 . S
C2725 C2722 1.387 . S
C2726 C2727 1.387 . S
C2726 H2730 0.950 . S
C2726 C2735 1.390 . S
C2727 C2726 1.387 . S
C2727 C2729 1.387 . S
H2728 C2735 0.950 . S
C2729 C2727 1.387 . S
C2729 C2731 1.390 . S
C2729 H2733 0.950 . S
H2730 C2726 0.950 . S
C2731 C2729 1.390 . S
C2731 C2732 1.387 . S
C2731 H2734 0.950 . S
C2732 C2731 1.387 . S
C2732 C2735 1.387 . S
H2733 C2729 0.950 . S
H2734 C2731 0.950 . S
C2735 C2726 1.390 . S
C2735 H2728 0.950 . S
C2735 C2732 1.387 . S
C2736 C2737 1.387 . S
C2736 H2740 0.950 . S
C2736 C2745 1.390 . S
C2737 C2736 1.387 . S
C2737 C2739 1.387 . S
H2738 C2745 0.950 . S
C2739 C2737 1.387 . S
C2739 C2741 1.390 . S
C2739 H2743 0.950 . S
H2740 C2736 0.950 . S
C2741 C2739 1.390 . S
C2741 C2742 1.387 . S
C2741 H2744 0.950 . S
C2742 C2741 1.387 . S
C2742 C2745 1.387 . S
H2743 C2739 0.950 . S
H2744 C2741 0.950 . S
C2745 C2736 1.390 . S
C2745 H2738 0.950 . S
C2745 C2742 1.387 . S
C2746 C2747 1.387 . S
C2746 H2750 0.950 . S
C2746 C2755 1.390 . S
C2747 C2746 1.387 . S
C2747 C2749 1.387 . S
H2748 C2755 0.950 . S
C2749 C2747 1.387 . S
C2749 C2751 1.390 . S
C2749 H2753 0.950 . S
H2750 C2746 0.950 . S
C2751 C2749 1.390 . S
C2751 C2752 1.387 . S
C2751 H2754 0.950 . S
C2752 C2751 1.387 . S
C2752 C2755 1.387 . S
H2753 C2749 0.950 . S
H2754 C2751 0.950 . S
C2755 C2746 1.390 . S
C2755 H2748 0.950 . S
C2755 C2752 1.387 . S
C2756 C2757 1.387 . S
C2756 H2760 0.950 . S
C2756 C2765 1.390 . S
C2757 C2756 1.387 . S
C2757 C2759 1.387 . S
H2758 C2765 0.950 . S
C2759 C2757 1.387 . S
C2759 C2761 1.390 . S
C2759 H2763 0.950 . S
H2760 C2756 0.950 . S
C2761 C2759 1.390 . S
C2761 C2762 1.387 . S
C2761 H2764 0.950 . S
C2762 C2761 1.387 . S
C2762 C2765 1.387 . S
H2763 C2759 0.950 . S
H2764 C2761 0.950 . S
C2765 C2756 1.390 . S
C2765 H2758 0.950 . S
C2765 C2762 1.387 . S
C2766 C2767 1.387 . S
C2766 H2770 0.950 . S
C2766 C2775 1.390 . S
C2767 C2766 1.387 . S
C2767 C2769 1.387 . S
H2768 C2775 0.950 . S
C2769 C2767 1.387 . S
C2769 C2771 1.390 . S
C2769 H2773 0.950 . S
H2770 C2766 0.950 . S
C2771 C2769 1.390 . S
C2771 C2772 1.387 . S
C2771 H2774 0.950 . S
C2772 C2771 1.387 . S
C2772 C2775 1.387 . S
H2773 C2769 0.950 . S
H2774 C2771 0.950 . S
C2775 C2766 1.390 . S
C2775 H2768 0.950 . S
C2775 C2772 1.387 . S
C2776 C2777 1.387 . S
C2776 H2780 0.950 . S
C2776 C2785 1.390 . S
C2777 C2776 1.387 . S
C2777 C2779 1.387 . S
H2778 C2785 0.950 . S
C2779 C2777 1.387 . S
C2779 C2781 1.390 . S
C2779 H2783 0.950 . S
H2780 C2776 0.950 . S
C2781 C2779 1.390 . S
C2781 C2782 1.387 . S
C2781 H2784 0.950 . S
C2782 C2781 1.387 . S
C2782 C2785 1.387 . S
H2783 C2779 0.950 . S
H2784 C2781 0.950 . S
C2785 C2776 1.390 . S
C2785 H2778 0.950 . S
C2785 C2782 1.387 . S
C2786 C2787 1.387 . S
C2786 H2790 0.950 . S
C2786 C2795 1.390 . S
C2787 C2786 1.387 . S
C2787 C2789 1.387 . S
H2788 C2795 0.950 . S
C2789 C2787 1.387 . S
C2789 C2791 1.390 . S
C2789 H2793 0.950 . S
H2790 C2786 0.950 . S
C2791 C2789 1.390 . S
C2791 C2792 1.387 . S
C2791 H2794 0.950 . S
C2792 C2791 1.387 . S
C2792 C2795 1.387 . S
H2793 C2789 0.950 . S
H2794 C2791 0.950 . S
C2795 C2786 1.390 . S
C2795 H2788 0.950 . S
C2795 C2792 1.387 . S
C2796 C2797 1.387 . S
C2796 H2800 0.950 . S
C2796 C2805 1.390 . S
C2797 C2796 1.387 . S
C2797 C2799 1.387 . S
H2798 C2805 0.950 . S
C2799 C2797 1.387 . S
C2799 C2801 1.390 . S
C2799 H2803 0.950 . S
H2800 C2796 0.950 . S
C2801 C2799 1.390 . S
C2801 C2802 1.387 . S
C2801 H2804 0.950 . S
C2802 C2801 1.387 . S
C2802 C2805 1.387 . S
H2803 C2799 0.950 . S
H2804 C2801 0.950 . S
C2805 C2796 1.390 . S
C2805 H2798 0.950 . S
C2805 C2802 1.387 . S
C2806 C2807 1.387 . S
C2806 H2810 0.950 . S
C2806 C2815 1.390 . S
C2807 C2806 1.387 . S
C2807 C2809 1.387 . S
H2808 C2815 0.950 . S
C2809 C2807 1.387 . S
C2809 C2811 1.390 . S
C2809 H2813 0.950 . S
H2810 C2806 0.950 . S
C2811 C2809 1.390 . S
C2811 C2812 1.387 . S
C2811 H2814 0.950 . S
C2812 C2811 1.387 . S
C2812 C2815 1.387 . S
H2813 C2809 0.950 . S
H2814 C2811 0.950 . S
C2815 C2806 1.390 . S
C2815 H2808 0.950 . S
C2815 C2812 1.387 . S
C2816 C2817 1.387 . S
C2816 H2820 0.950 . S
C2816 C2825 1.390 . S
C2817 C2816 1.387 . S
C2817 C2819 1.387 . S
H2818 C2825 0.950 . S
C2819 C2817 1.387 . S
C2819 C2821 1.390 . S
C2819 H2823 0.950 . S
H2820 C2816 0.950 . S
C2821 C2819 1.390 . S
C2821 C2822 1.387 . S
C2821 H2824 0.950 . S
C2822 C2821 1.387 . S
C2822 C2825 1.387 . S
H2823 C2819 0.950 . S
H2824 C2821 0.950 . S
C2825 C2816 1.390 . S
C2825 H2818 0.950 . S
C2825 C2822 1.387 . S
C2826 C2827 1.387 . S
C2826 H2830 0.950 . S
C2826 C2835 1.390 . S
C2827 C2826 1.387 . S
C2827 C2829 1.387 . S
H2828 C2835 0.950 . S
C2829 C2827 1.387 . S
C2829 C2831 1.390 . S
C2829 H2833 0.950 . S
H2830 C2826 0.950 . S
C2831 C2829 1.390 . S
C2831 C2832 1.387 . S
C2831 H2834 0.950 . S
C2832 C2831 1.387 . S
C2832 C2835 1.387 . S
H2833 C2829 0.950 . S
H2834 C2831 0.950 . S
C2835 C2826 1.390 . S
C2835 H2828 0.950 . S
C2835 C2832 1.387 . S
C2836 C2837 1.387 . S
C2836 H2840 0.950 . S
C2836 C2845 1.390 . S
C2837 C2836 1.387 . S
C2837 C2839 1.387 . S
H2838 C2845 0.950 . S
C2839 C2837 1.387 . S
C2839 C2841 1.390 . S
C2839 H2843 0.950 . S
H2840 C2836 0.950 . S
C2841 C2839 1.390 . S
C2841 C2842 1.387 . S
C2841 H2844 0.950 . S
C2842 C2841 1.387 . S
C2842 C2845 1.387 . S
H2843 C2839 0.950 . S
H2844 C2841 0.950 . S
C2845 C2836 1.390 . S
C2845 H2838 0.950 . S
C2845 C2842 1.387 . S
C2846 C2847 1.387 . S
C2846 H2850 0.950 . S
C2846 C2855 1.390 . S
C2847 C2846 1.387 . S
C2847 C2849 1.387 . S
H2848 C2855 0.950 . S
C2849 C2847 1.387 . S
C2849 C2851 1.390 . S
C2849 H2853 0.950 . S
H2850 C2846 0.950 . S
C2851 C2849 1.390 . S
C2851 C2852 1.387 . S
C2851 H2854 0.950 . S
C2852 C2851 1.387 . S
C2852 C2855 1.387 . S
H2853 C2849 0.950 . S
H2854 C2851 0.950 . S
C2855 C2846 1.390 . S
C2855 H2848 0.950 . S
C2855 C2852 1.387 . S
C2856 C2857 1.387 . S
C2856 H2860 0.950 . S
C2856 C2865 1.390 . S
C2857 C2856 1.387 . S
C2857 C2859 1.387 . S
H2858 C2865 0.950 . S
C2859 C2857 1.387 . S
C2859 C2861 1.390 . S
C2859 H2863 0.950 . S
H2860 C2856 0.950 . S
C2861 C2859 1.390 . S
C2861 C2862 1.387 . S
C2861 H2864 0.950 . S
C2862 C2861 1.387 . S
C2862 C2865 1.387 . S
H2863 C2859 0.950 . S
H2864 C2861 0.950 . S
C2865 C2856 1.390 . S
C2865 H2858 0.950 . S
C2865 C2862 1.387 . S
C2866 C2867 1.387 . S
C2866 H2870 0.950 . S
C2866 C2875 1.390 . S
C2867 C2866 1.387 . S
C2867 C2869 1.387 . S
H2868 C2875 0.950 . S
C2869 C2867 1.387 . S
C2869 C2871 1.390 . S
C2869 H2873 0.950 . S
H2870 C2866 0.950 . S
C2871 C2869 1.390 . S
C2871 C2872 1.387 . S
C2871 H2874 0.950 . S
C2872 C2871 1.387 . S
C2872 C2875 1.387 . S
H2873 C2869 0.950 . S
H2874 C2871 0.950 . S
C2875 C2866 1.390 . S
C2875 H2868 0.950 . S
C2875 C2872 1.387 . S
C2876 C2877 1.387 . S
C2876 H2880 0.950 . S
C2876 C2885 1.390 . S
C2877 C2876 1.387 . S
C2877 C2879 1.387 . S
H2878 C2885 0.950 . S
C2879 C2877 1.387 . S
C2879 C2881 1.390 . S
C2879 H2883 0.950 . S
H2880 C2876 0.950 . S
C2881 C2879 1.390 . S
C2881 C2882 1.387 . S
C2881 H2884 0.950 . S
C2882 C2881 1.387 . S
C2882 C2885 1.387 . S
H2883 C2879 0.950 . S
H2884 C2881 0.950 . S
C2885 C2876 1.390 . S
C2885 H2878 0.950 . S
C2885 C2882 1.387 . S
C2886 C2887 1.387 . S
C2886 H2890 0.950 . S
C2886 C2895 1.390 . S
C2887 C2886 1.387 . S
C2887 C2889 1.387 . S
H2888 C2895 0.950 . S
C2889 C2887 1.387 . S
C2889 C2891 1.390 . S
C2889 H2893 0.950 . S
H2890 C2886 0.950 . S
C2891 C2889 1.390 . S
C2891 C2892 1.387 . S
C2891 H2894 0.950 . S
C2892 C2891 1.387 . S
C2892 C2895 1.387 . S
H2893 C2889 0.950 . S
H2894 C2891 0.950 . S
C2895 C2886 1.390 . S
C2895 H2888 0.950 . S
C2895 C2892 1.387 . S
C2896 C2897 1.387 . S
C2896 H2900 0.950 . S
C2896 C2905 1.390 . S
C2897 C2896 1.387 . S
C2897 C2899 1.387 . S
H2898 C2905 0.950 . S
C2899 C2897 1.387 . S
C2899 C2901 1.390 . S
C2899 H2903 0.950 . S
H2900 C2896 0.950 . S
C2901 C2899 1.390 . S
C2901 C2902 1.387 . S
C2901 H2904 0.950 . S
C2902 C2901 1.387 . S
C2902 C2905 1.387 . S
H2903 C2899 0.950 . S
H2904 C2901 0.950 . S
C2905 C2896 1.390 . S
C2905 H2898 0.950 . S
C2905 C2902 1.387 . S
C2906 C2907 1.387 . S
C2906 H2910 0.950 . S
C2906 C2915 1.390 . S
C2907 C2906 1.387 . S
C2907 C2909 1.387 . S
H2908 C2915 0.950 . S
C2909 C2907 1.387 . S
C2909 C2911 1.390 . S
C2909 H2913 0.950 . S
H2910 C2906 0.950 . S
C2911 C2909 1.390 . S
C2911 C2912 1.387 . S
C2911 H2914 0.950 . S
C2912 C2911 1.387 . S
C2912 C2915 1.387 . S
H2913 C2909 0.950 . S
H2914 C2911 0.950 . S
C2915 C2906 1.390 . S
C2915 H2908 0.950 . S
C2915 C2912 1.387 . S
C2916 C2917 1.387 . S
C2916 H2920 0.950 . S
C2916 C2925 1.390 . S
C2917 C2916 1.387 . S
C2917 C2919 1.387 . S
H2918 C2925 0.950 . S
C2919 C2917 1.387 . S
C2919 C2921 1.390 . S
C2919 H2923 0.950 . S
H2920 C2916 0.950 . S
C2921 C2919 1.390 . S
C2921 C2922 1.387 . S
C2921 H2924 0.950 . S
C2922 C2921 1.387 . S
C2922 C2925 1.387 . S
H2923 C2919 0.950 . S
H2924 C2921 0.950 . S
C2925 C2916 1.390 . S
C2925 H2918 0.950 . S
C2925 C2922 1.387 . S
C2926 C2927 1.387 . S
C2926 H2930 0.950 . S
C2926 C2935 1.390 . S
C2927 C2926 1.387 . S
C2927 C2929 1.387 . S
H2928 C2935 0.950 . S
C2929 C2927 1.387 . S
C2929 C2931 1.390 . S
C2929 H2933 0.950 . S
H2930 C2926 0.950 . S
C2931 C2929 1.390 . S
C2931 C2932 1.387 . S
C2931 H2934 0.950 . S
C2932 C2931 1.387 . S
C2932 C2935 1.387 . S
H2933 C2929 0.950 . S
H2934 C2931 0.950 . S
C2935 C2926 1.390 . S
C2935 H2928 0.950 . S
C2935 C2932 1.387 . S
C2936 C2937 1.387 . S
C2936 H2940 0.950 . S
C2936 C2945 1.390 . S
C2937 C2936 1.387 . S
C2937 C2939 1.387 . S
H2938 C2945 0.950 . S
C2939 C2937 1.387 . S
C2939 C2941 1.390 . S
C2939 H2943 0.950 . S
H2940 C2936 0.950 . S
C2941 C2939 1.390 . S
C2941 C2942 1.387 . S
C2941 H2944 0.950 . S
C2942 C2941 1.387 . S
C2942 C2945 1.387 . S
H2943 C2939 0.950 . S
H2944 C2941 0.950 . S
C2945 C2936 1.390 . S
C2945 H2938 0.950 . S
C2945 C2942 1.387 . S
C2946 C2947 1.387 . S
C2946 H2950 0.950 . S
C2946 C2955 1.390 . S
C2947 C2946 1.387 . S
C2947 C2949 1.387 . S
H2948 C2955 0.950 . S
C2949 C2947 1.387 . S
C2949 C2951 1.390 . S
C2949 H2953 0.950 . S
H2950 C2946 0.950 . S
C2951 C2949 1.390 . S
C2951 C2952 1.387 . S
C2951 H2954 0.950 . S
C2952 C2951 1.387 . S
C2952 C2955 1.387 . S
H2953 C2949 0.950 . S
H2954 C2951 0.950 . S
C2955 C2946 1.390 . S
C2955 H2948 0.950 . S
C2955 C2952 1.387 . S
C2956 C2957 1.387 . S
C2956 H2960 0.950 . S
C2956 C2965 1.390 . S
C2957 C2956 1.387 . S
C2957 C2959 1.387 . S
H2958 C2965 0.950 . S
C2959 C2957 1.387 . S
C2959 C2961 1.390 . S
C2959 H2963 0.950 . S
H2960 C2956 0.950 . S
C2961 C2959 1.390 . S
C2961 C2962 1.387 . S
C2961 H2964 0.950 . S
C2962 C2961 1.387 . S
C2962 C2965 1.387 . S
H2963 C2959 0.950 . S
H2964 C2961 0.950 . S
C2965 C2956 1.390 . S
C2965 H2958 0.950 . S
C2965 C2962 1.387 . S
C2966 C2967 1.387 . S
C2966 H2970 0.950 . S
C2966 C2975 1.390 . S
C2967 C2966 1.387 . S
C2967 C2969 1.387 . S
H2968 C2975 0.950 . S
C2969 C2967 1.387 . S
C2969 C2971 1.390 . S
C2969 H2973 0.950 . S
H2970 C2966 0.950 . S
C2971 C2969 1.390 . S
C2971 C2972 1.387 . S
C2971 H2974 0.950 . S
C2972 C2971 1.387 . S
C2972 C2975 1.387 . S
H2973 C2969 0.950 . S
H2974 C2971 0.950 . S
C2975 C2966 1.390 . S
C2975 H2968 0.950 . S
C2975 C2972 1.387 . S
C2976 C2977 1.387 . S
C2976 H2980 0.950 . S
C2976 C2985 1.390 . S
C2977 C2976 1.387 . S
C2977 C2979 1.387 . S
H2978 C2985 0.950 . S
C2979 C2977 1.387 . S
C2979 C2981 1.390 . S
C2979 H2983 0.950 . S
H2980 C2976 0.950 . S
C2981 C2979 1.390 . S
C2981 C2982 1.387 . S
C2981 H2984 0.950 . S
C2982 C2981 1.387 . S
C2982 C2985 1.387 . S
H2983 C2979 0.950 . S
H2984 C2981 0.950 . S
C2985 C2976 1.390 . S
C2985 H2978 0.950 . S
C2985 C2982 1.387 . S
C2986 C2987 1.387 . S
C2986 H2990 0.950 . S
C2986 C2995 1.390 . S
C2987 C2986 1.387 . S
C2987 C2989 1.387 . S
H2988 C2995 0.950 . S
C2989 C2987 1.387 . S
C2989 C2991 1.390 . S
C2989 H2993 0.950 . S
H2990 C2986 0.950 . S
C2991 C2989 1.390 . S
C2991 C2992 1.387 . S
C2991 H2994 0.950 . S
C2992 C2991 1.387 . S
C2992 C2995 1.387 . S
H2993 C2989 0.950 . S
H2994 C2991 0.950 . S
C2995 C2986 1.390 . S
C2995 H2988 0.950 . S
C2995 C2992 1.387 . S
C2996 C2997 1.387 . S
C2996 H3000 0.950 . S
C2996 C3005 1.390 . S
C2997 C2996 1.387 . S
C2997 C2999 1.387 . S
H2998 C3005 0.950 . S
C2999 C2997 1.387 . S
C2999 C3001 1.390 . S
C2999 H3003 0.950 . S
H3000 C2996 0.950 . S
C3001 C2999 1.390 . S
C3001 C3002 1.387 . S
C3001 H3004 0.950 . S
C3002 C3001 1.387 . S
C3002 C3005 1.387 . S
H3003 C2999 0.950 . S
H3004 C3001 0.950 . S
C3005 C2996 1.390 . S
C3005 H2998 0.950 . S
C3005 C3002 1.387 . S
C3006 C3007 1.387 . S
C3006 H3010 0.950 . S
C3006 C3015 1.390 1_554 S
C3007 C3006 1.387 . S
C3007 C3009 1.387 . S
H3008 C3015 0.950 . S
C3009 C3007 1.387 . S
C3009 C3011 1.390 . S
C3009 H3013 0.950 . S
H3010 C3006 0.950 . S
C3011 C3009 1.390 . S
C3011 C3012 1.387 . S
C3011 H3014 0.950 . S
C3012 C3011 1.387 . S
C3012 C3015 1.387 1_554 S
H3013 C3009 0.950 . S
H3014 C3011 0.950 . S
C3015 C3006 1.390 1_556 S
C3015 H3008 0.950 . S
C3015 C3012 1.387 1_556 S
C3016 C3017 1.387 . S
C3016 H3020 0.950 . S
C3016 C3025 1.390 . S
C3017 C3016 1.387 . S
C3017 C3019 1.387 . S
H3018 C3025 0.950 . S
C3019 C3017 1.387 . S
C3019 C3021 1.390 . S
C3019 H3023 0.950 . S
H3020 C3016 0.950 . S
C3021 C3019 1.390 . S
C3021 C3022 1.387 . S
C3021 H3024 0.950 . S
C3022 C3021 1.387 . S
C3022 C3025 1.387 . S
H3023 C3019 0.950 . S
H3024 C3021 0.950 . S
C3025 C3016 1.390 . S
C3025 H3018 0.950 . S
C3025 C3022 1.387 . S
C3026 C3027 1.387 . S
C3026 H3030 0.950 . S
C3026 C3035 1.390 . S
C3027 C3026 1.387 . S
C3027 C3029 1.387 . S
H3028 C3035 0.950 . S
C3029 C3027 1.387 . S
C3029 C3031 1.390 . S
C3029 H3033 0.950 . S
H3030 C3026 0.950 . S
C3031 C3029 1.390 . S
C3031 C3032 1.387 . S
C3031 H3034 0.950 . S
C3032 C3031 1.387 . S
C3032 C3035 1.387 . S
H3033 C3029 0.950 . S
H3034 C3031 0.950 . S
C3035 C3026 1.390 . S
C3035 H3028 0.950 . S
C3035 C3032 1.387 . S
C3036 C3037 1.387 . S
C3036 H3040 0.950 . S
C3036 C3045 1.390 . S
C3037 C3036 1.387 . S
C3037 C3039 1.387 . S
H3038 C3045 0.950 . S
C3039 C3037 1.387 . S
C3039 C3041 1.390 . S
C3039 H3043 0.950 . S
H3040 C3036 0.950 . S
C3041 C3039 1.390 . S
C3041 C3042 1.387 . S
C3041 H3044 0.950 . S
C3042 C3041 1.387 . S
C3042 C3045 1.387 . S
H3043 C3039 0.950 . S
H3044 C3041 0.950 . S
C3045 C3036 1.390 . S
C3045 H3038 0.950 . S
C3045 C3042 1.387 . S
C3046 C3047 1.388 . S
C3046 H3050 0.946 1_556 S
C3046 C3055 1.393 . S
C3047 C3046 1.388 . S
C3047 C3049 1.387 . S
H3048 C3055 0.950 . S
C3049 C3047 1.387 . S
C3049 C3051 1.390 . S
C3049 H3053 0.950 . S
H3050 C3046 0.946 1_554 S
C3051 C3049 1.390 . S
C3051 C3052 1.387 . S
C3051 H3054 0.950 . S
C3052 C3051 1.387 . S
C3052 C3055 1.387 . S
H3053 C3049 0.950 . S
H3054 C3051 0.950 . S
C3055 C3046 1.393 . S
C3055 H3048 0.950 . S
C3055 C3052 1.387 . S
C3056 C3057 1.387 . S
C3056 H3060 0.950 1_565 S
C3056 C3065 1.390 . S
C3057 C3056 1.387 . S
C3057 C3059 1.387 . S
H3058 C3065 0.950 . S
C3059 C3057 1.387 . S
C3059 C3061 1.390 . S
C3059 H3063 0.950 . S
H3060 C3056 0.950 1_545 S
C3061 C3059 1.390 . S
C3061 C3062 1.387 . S
C3061 H3064 0.950 . S
C3062 C3061 1.387 . S
C3062 C3065 1.387 . S
H3063 C3059 0.950 . S
H3064 C3061 0.950 . S
C3065 C3056 1.390 . S
C3065 H3058 0.950 . S
C3065 C3062 1.387 . S
C3066 C3067 1.379 1_565 S
C3066 H3070 0.977 . S
C3066 C3075 1.371 1_565 S
C3067 C3066 1.379 1_545 S
C3067 C3069 1.387 . S
H3068 C3075 0.950 . S
C3069 C3067 1.387 . S
C3069 C3071 1.390 . S
C3069 H3073 0.950 . S
H3070 C3066 0.977 . S
C3071 C3069 1.390 . S
C3071 C3072 1.387 . S
C3071 H3074 0.950 . S
C3072 C3071 1.387 . S
C3072 C3075 1.387 . S
H3073 C3069 0.950 . S
H3074 C3071 0.950 . S
C3075 C3066 1.371 1_545 S
C3075 H3068 0.950 . S
C3075 C3072 1.387 . S
C3076 C3077 1.387 . S
C3076 H3080 0.950 . S
C3076 C3085 1.390 . S
C3077 C3076 1.387 . S
C3077 C3079 1.396 . S
H3078 C3085 0.950 . S
C3079 C3077 1.396 . S
C3079 C3081 1.412 . S
C3079 H3083 0.921 1_545 S
H3080 C3076 0.950 . S
C3081 C3079 1.412 . S
C3081 C3082 1.387 . S
C3081 H3084 0.950 . S
C3082 C3081 1.387 . S
C3082 C3085 1.387 . S
H3083 C3079 0.921 1_565 S
H3084 C3081 0.950 . S
C3085 C3076 1.390 . S
C3085 H3078 0.950 . S
C3085 C3082 1.387 . S
C3086 C3087 1.387 . S
C3086 H3090 0.950 . S
C3086 C3095 1.390 . S
C3087 C3086 1.387 . S
C3087 C3089 1.387 . S
H3088 C3095 0.950 1_545 S
C3089 C3087 1.387 . S
C3089 C3091 1.390 . S
C3089 H3093 0.950 . S
H3090 C3086 0.950 . S
C3091 C3089 1.390 . S
C3091 C3092 1.387 . S
C3091 H3094 0.950 . S
C3092 C3091 1.387 . S
C3092 C3095 1.387 . S
H3093 C3089 0.950 . S
H3094 C3091 0.950 . S
C3095 C3086 1.390 . S
C3095 H3088 0.950 1_565 S
C3095 C3092 1.387 . S
C3096 C3097 1.387 . S
C3096 H3100 0.950 . S
C3096 C3105 1.390 . S
C3097 C3096 1.387 . S
C3097 C3099 1.387 1_554 S
H3098 C3105 0.950 . S
C3099 C3097 1.387 1_556 S
C3099 C3101 1.390 1_556 S
C3099 H3103 0.950 . S
H3100 C3096 0.950 . S
C3101 C3099 1.390 1_554 S
C3101 C3102 1.387 . S
C3101 H3104 0.950 . S
C3102 C3101 1.387 . S
C3102 C3105 1.387 . S
H3103 C3099 0.950 . S
H3104 C3101 0.950 . S
C3105 C3096 1.390 . S
C3105 H3098 0.950 . S
C3105 C3102 1.387 . S
C3106 C3107 1.387 . S
C3106 H3110 0.950 . S
C3106 C3115 1.390 . S
C3107 C3106 1.387 . S
C3107 C3109 1.387 . S
H3108 C3115 0.950 . S
C3109 C3107 1.387 . S
C3109 C3111 1.390 . S
C3109 H3113 0.950 . S
H3110 C3106 0.950 . S
C3111 C3109 1.390 . S
C3111 C3112 1.387 . S
C3111 H3114 0.950 . S
C3112 C3111 1.387 . S
C3112 C3115 1.387 . S
H3113 C3109 0.950 . S
H3114 C3111 0.950 . S
C3115 C3106 1.390 . S
C3115 H3108 0.950 . S
C3115 C3112 1.387 . S
C3116 C3117 1.387 . S
C3116 H3120 0.950 . S
C3116 C3125 1.390 . S
C3117 C3116 1.387 . S
C3117 C3119 1.387 . S
H3118 C3125 0.950 . S
C3119 C3117 1.387 . S
C3119 C3121 1.390 . S
C3119 H3123 0.950 . S
H3120 C3116 0.950 . S
C3121 C3119 1.390 . S
C3121 C3122 1.387 . S
C3121 H3124 0.950 . S
C3122 C3121 1.387 . S
C3122 C3125 1.387 . S
H3123 C3119 0.950 . S
H3124 C3121 0.950 . S
C3125 C3116 1.390 . S
C3125 H3118 0.950 . S
C3125 C3122 1.387 . S
C3126 C3127 1.387 . S
C3126 H3130 0.950 . S
C3126 C3135 1.390 . S
C3127 C3126 1.387 . S
C3127 C3129 1.387 . S
H3128 C3135 0.950 . S
C3129 C3127 1.387 . S
C3129 C3131 1.390 . S
C3129 H3133 0.950 . S
H3130 C3126 0.950 . S
C3131 C3129 1.390 . S
C3131 C3132 1.387 . S
C3131 H3134 0.950 1_455 S
C3132 C3131 1.387 . S
C3132 C3135 1.387 . S
H3133 C3129 0.950 . S
H3134 C3131 0.950 1_655 S
C3135 C3126 1.390 . S
C3135 H3128 0.950 . S
C3135 C3132 1.387 . S
C3136 C3137 1.387 . S
C3136 H3140 0.950 . S
C3136 C3145 1.390 . S
C3137 C3136 1.387 . S
C3137 C3139 1.387 . S
H3138 C3145 0.950 . S
C3139 C3137 1.387 . S
C3139 C3141 1.390 . S
C3139 H3143 0.950 . S
H3140 C3136 0.950 . S
C3141 C3139 1.390 . S
C3141 C3142 1.387 . S
C3141 H3144 0.950 . S
C3142 C3141 1.387 . S
C3142 C3145 1.387 . S
H3143 C3139 0.950 . S
H3144 C3141 0.950 . S
C3145 C3136 1.390 . S
C3145 H3138 0.950 . S
C3145 C3142 1.387 . S
C3146 C3147 1.387 . S
C3146 H3150 0.950 . S
C3146 C3155 1.390 . S
C3147 C3146 1.387 . S
C3147 C3149 1.387 . S
H3148 C3155 0.950 . S
C3149 C3147 1.387 . S
C3149 C3151 1.390 . S
C3149 H3153 0.950 . S
H3150 C3146 0.950 . S
C3151 C3149 1.390 . S
C3151 C3152 1.387 . S
C3151 H3154 0.950 . S
C3152 C3151 1.387 . S
C3152 C3155 1.387 . S
H3153 C3149 0.950 . S
H3154 C3151 0.950 . S
C3155 C3146 1.390 . S
C3155 H3148 0.950 . S
C3155 C3152 1.387 . S
C3156 C3157 1.387 . S
C3156 H3160 0.950 . S
C3156 C3165 1.390 . S
C3157 C3156 1.387 . S
C3157 C3159 1.387 . S
H3158 C3165 0.950 . S
C3159 C3157 1.387 . S
C3159 C3161 1.390 . S
C3159 H3163 0.950 . S
H3160 C3156 0.950 . S
C3161 C3159 1.390 . S
C3161 C3162 1.387 . S
C3161 H3164 0.950 . S
C3162 C3161 1.387 . S
C3162 C3165 1.387 . S
H3163 C3159 0.950 . S
H3164 C3161 0.950 . S
C3165 C3156 1.390 . S
C3165 H3158 0.950 . S
C3165 C3162 1.387 . S
C3166 C3167 1.387 . S
C3166 H3170 0.950 . S
C3166 C3175 1.390 . S
C3167 C3166 1.387 . S
C3167 C3169 1.387 . S
H3168 C3175 0.950 . S
C3169 C3167 1.387 . S
C3169 C3171 1.390 . S
C3169 H3173 0.950 . S
H3170 C3166 0.950 . S
C3171 C3169 1.390 . S
C3171 C3172 1.387 . S
C3171 H3174 0.950 . S
C3172 C3171 1.387 . S
C3172 C3175 1.387 . S
H3173 C3169 0.950 . S
H3174 C3171 0.950 . S
C3175 C3166 1.390 . S
C3175 H3168 0.950 . S
C3175 C3172 1.387 . S
C3176 C3177 1.387 . S
C3176 H3180 0.950 1_556 S
C3176 C3185 1.390 . S
C3177 C3176 1.387 . S
C3177 C3179 1.387 . S
H3178 C3185 0.950 . S
C3179 C3177 1.387 . S
C3179 C3181 1.390 . S
C3179 H3183 0.950 . S
H3180 C3176 0.950 1_554 S
C3181 C3179 1.390 . S
C3181 C3182 1.387 . S
C3181 H3184 0.950 . S
C3182 C3181 1.387 . S
C3182 C3185 1.387 . S
H3183 C3179 0.950 . S
H3184 C3181 0.950 . S
C3185 C3176 1.390 . S
C3185 H3178 0.950 . S
C3185 C3182 1.387 . S
C3186 C3187 1.387 . S
C3186 H3190 0.950 . S
C3186 C3195 1.390 . S
C3187 C3186 1.387 . S
C3187 C3189 1.387 . S
H3188 C3195 0.950 . S
C3189 C3187 1.387 . S
C3189 C3191 1.390 . S
C3189 H3193 0.950 . S
H3190 C3186 0.950 . S
C3191 C3189 1.390 . S
C3191 C3192 1.387 . S
C3191 H3194 0.950 . S
C3192 C3191 1.387 . S
C3192 C3195 1.387 . S
H3193 C3189 0.950 . S
H3194 C3191 0.950 . S
C3195 C3186 1.390 . S
C3195 H3188 0.950 . S
C3195 C3192 1.387 . S
C3196 C3197 1.387 . S
C3196 H3200 0.950 . S
C3196 C3205 1.390 . S
C3197 C3196 1.387 . S
C3197 C3199 1.387 . S
H3198 C3205 0.950 . S
C3199 C3197 1.387 . S
C3199 C3201 1.390 . S
C3199 H3203 0.950 . S
H3200 C3196 0.950 . S
C3201 C3199 1.390 . S
C3201 C3202 1.387 . S
C3201 H3204 0.950 . S
C3202 C3201 1.387 . S
C3202 C3205 1.387 . S
H3203 C3199 0.950 . S
H3204 C3201 0.950 . S
C3205 C3196 1.390 . S
C3205 H3198 0.950 . S
C3205 C3202 1.387 . S
C3206 C3207 1.387 . S
C3206 H3210 0.950 . S
C3206 C3215 1.390 . S
C3207 C3206 1.387 . S
C3207 C3209 1.387 . S
H3208 C3215 0.950 . S
C3209 C3207 1.387 . S
C3209 C3211 1.390 . S
C3209 H3213 0.950 . S
H3210 C3206 0.950 . S
C3211 C3209 1.390 . S
C3211 C3212 1.387 . S
C3211 H3214 0.950 . S
C3212 C3211 1.387 . S
C3212 C3215 1.387 . S
H3213 C3209 0.950 . S
H3214 C3211 0.950 . S
C3215 C3206 1.390 . S
C3215 H3208 0.950 . S
C3215 C3212 1.387 . S
C3216 C3217 1.387 . S
C3216 H3220 0.950 . S
C3216 C3225 1.390 . S
C3217 C3216 1.387 . S
C3217 C3219 1.387 . S
H3218 C3225 0.950 . S
C3219 C3217 1.387 . S
C3219 C3221 1.390 . S
C3219 H3223 0.950 . S
H3220 C3216 0.950 . S
C3221 C3219 1.390 . S
C3221 C3222 1.387 . S
C3221 H3224 0.950 1_554 S
C3222 C3221 1.387 . S
C3222 C3225 1.387 . S
H3223 C3219 0.950 . S
H3224 C3221 0.950 1_556 S
C3225 C3216 1.390 . S
C3225 H3218 0.950 . S
C3225 C3222 1.387 . S
C3226 C3227 1.387 . S
C3226 H3230 0.950 . S
C3226 C3235 1.390 . S
C3227 C3226 1.387 . S
C3227 C3229 1.387 . S
H3228 C3235 0.950 . S
C3229 C3227 1.387 . S
C3229 C3231 1.390 . S
C3229 H3233 0.950 . S
H3230 C3226 0.950 . S
C3231 C3229 1.390 . S
C3231 C3232 1.387 . S
C3231 H3234 0.950 . S
C3232 C3231 1.387 . S
C3232 C3235 1.387 . S
H3233 C3229 0.950 . S
H3234 C3231 0.950 . S
C3235 C3226 1.390 . S
C3235 H3228 0.950 . S
C3235 C3232 1.387 . S
C3236 C3237 1.387 . S
C3236 H3240 0.950 . S
C3236 C3245 1.390 . S
C3237 C3236 1.387 . S
C3237 C3239 1.387 . S
H3238 C3245 0.950 . S
C3239 C3237 1.387 . S
C3239 C3241 1.390 . S
C3239 H3243 0.950 1_565 S
H3240 C3236 0.950 . S
C3241 C3239 1.390 . S
C3241 C3242 1.387 . S
C3241 H3244 0.950 . S
C3242 C3241 1.387 . S
C3242 C3245 1.387 . S
H3243 C3239 0.950 1_545 S
H3244 C3241 0.950 . S
C3245 C3236 1.390 . S
C3245 H3238 0.950 . S
C3245 C3242 1.387 . S
C3246 C3247 1.387 . S
C3246 H3250 0.950 . S
C3246 C3255 1.390 . S
C3247 C3246 1.387 . S
C3247 C3249 1.387 . S
H3248 C3255 0.950 1_545 S
C3249 C3247 1.387 . S
C3249 C3251 1.390 . S
C3249 H3253 0.950 . S
H3250 C3246 0.950 . S
C3251 C3249 1.390 . S
C3251 C3252 1.387 . S
C3251 H3254 0.950 . S
C3252 C3251 1.387 . S
C3252 C3255 1.387 . S
H3253 C3249 0.950 . S
H3254 C3251 0.950 . S
C3255 C3246 1.390 . S
C3255 H3248 0.950 1_565 S
C3255 C3252 1.387 . S
C3256 C3257 1.387 . S
C3256 H3260 0.950 . S
C3256 C3265 1.390 . S
C3257 C3256 1.387 . S
C3257 C3259 1.387 . S
H3258 C3265 0.950 1_565 S
C3259 C3257 1.387 . S
C3259 C3261 1.390 . S
C3259 H3263 0.950 . S
H3260 C3256 0.950 . S
C3261 C3259 1.390 . S
C3261 C3262 1.387 . S
C3261 H3264 0.950 . S
C3262 C3261 1.387 . S
C3262 C3265 1.387 . S
H3263 C3259 0.950 . S
H3264 C3261 0.950 . S
C3265 C3256 1.390 . S
C3265 H3258 0.950 1_545 S
C3265 C3262 1.387 . S
C3266 C3267 1.387 . S
C3266 H3270 0.950 . S
C3266 C3275 1.390 . S
C3267 C3266 1.387 . S
C3267 C3269 1.387 . S
H3268 C3275 0.950 . S
C3269 C3267 1.387 . S
C3269 C3271 1.390 . S
C3269 H3273 0.950 1_556 S
H3270 C3266 0.950 . S
C3271 C3269 1.390 . S
C3271 C3272 1.387 . S
C3271 H3274 0.950 . S
C3272 C3271 1.387 . S
C3272 C3275 1.387 . S
H3273 C3269 0.950 1_554 S
H3274 C3271 0.950 . S
C3275 C3266 1.390 . S
C3275 H3268 0.950 . S
C3275 C3272 1.387 . S
C3276 C3277 1.387 . S
C3276 H3280 0.940 1_655 S
C3276 C3285 1.390 . S
C3277 C3276 1.387 . S
C3277 C3279 1.387 . S
H3278 C3285 0.950 . S
C3279 C3277 1.387 . S
C3279 C3281 1.390 . S
C3279 H3283 0.950 . S
H3280 C3276 0.940 1_455 S
C3281 C3279 1.390 . S
C3281 C3282 1.387 . S
C3281 H3284 0.950 . S
C3282 C3281 1.387 . S
C3282 C3285 1.387 . S
H3283 C3279 0.950 . S
H3284 C3281 0.950 . S
C3285 C3276 1.390 . S
C3285 H3278 0.950 . S
C3285 C3282 1.387 . S
C3286 C3287 1.387 . S
C3286 H3290 0.950 . S
C3286 C3295 1.390 . S
C3287 C3286 1.387 . S
C3287 C3289 1.387 . S
H3288 C3295 0.950 . S
C3289 C3287 1.387 . S
C3289 C3291 1.390 . S
C3289 H3293 0.950 . S
H3290 C3286 0.950 . S
C3291 C3289 1.390 . S
C3291 C3292 1.387 . S
C3291 H3294 0.950 . S
C3292 C3291 1.387 . S
C3292 C3295 1.387 . S
H3293 C3289 0.950 . S
H3294 C3291 0.950 . S
C3295 C3286 1.390 . S
C3295 H3288 0.950 . S
C3295 C3292 1.387 . S
C3296 C3297 1.387 . S
C3296 H3300 0.950 . S
C3296 C3305 1.390 . S
C3297 C3296 1.387 . S
C3297 C3299 1.387 . S
H3298 C3305 0.950 . S
C3299 C3297 1.387 . S
C3299 C3301 1.390 . S
C3299 H3303 0.950 . S
H3300 C3296 0.950 . S
C3301 C3299 1.390 . S
C3301 C3302 1.387 . S
C3301 H3304 0.950 1_655 S
C3302 C3301 1.387 . S
C3302 C3305 1.387 . S
H3303 C3299 0.950 . S
H3304 C3301 0.950 1_455 S
C3305 C3296 1.390 . S
C3305 H3298 0.950 . S
C3305 C3302 1.387 . S
C3306 C3307 1.387 . S
C3306 H3310 0.950 . S
C3306 C3315 1.390 . S
C3307 C3306 1.387 . S
C3307 C3309 1.387 . S
H3308 C3315 0.950 . S
C3309 C3307 1.387 . S
C3309 C3311 1.390 . S
C3309 H3313 0.950 . S
H3310 C3306 0.950 . S
C3311 C3309 1.390 . S
C3311 C3312 1.387 . S
C3311 H3314 0.950 . S
C3312 C3311 1.387 . S
C3312 C3315 1.387 . S
H3313 C3309 0.950 . S
H3314 C3311 0.950 . S
C3315 C3306 1.390 . S
C3315 H3308 0.950 . S
C3315 C3312 1.387 . S
C3316 C3317 1.387 . S
C3316 H3320 0.950 . S
C3316 C3325 1.390 . S
C3317 C3316 1.387 . S
C3317 C3319 1.387 . S
H3318 C3325 0.950 . S
C3319 C3317 1.387 . S
C3319 C3321 1.390 . S
C3319 H3323 0.950 . S
H3320 C3316 0.950 . S
C3321 C3319 1.390 . S
C3321 C3322 1.387 . S
C3321 H3324 0.950 . S
C3322 C3321 1.387 . S
C3322 C3325 1.387 . S
H3323 C3319 0.950 . S
H3324 C3321 0.950 . S
C3325 C3316 1.390 . S
C3325 H3318 0.950 . S
C3325 C3322 1.387 . S
C3326 C3327 1.387 . S
C3326 H3330 0.970 . S
C3326 C3335 1.390 . S
C3327 C3326 1.387 . S
C3327 C3329 1.387 . S
H3328 C3335 0.950 . S
C3329 C3327 1.387 . S
C3329 C3331 1.390 . S
C3329 H3333 0.950 . S
H3330 C3326 0.970 . S
C3331 C3329 1.390 . S
C3331 C3332 1.387 . S
C3331 H3334 0.950 . S
C3332 C3331 1.387 . S
C3332 C3335 1.387 . S
H3333 C3329 0.950 . S
H3334 C3331 0.950 . S
C3335 C3326 1.390 . S
C3335 H3328 0.950 . S
C3335 C3332 1.387 . S
C3336 C3337 1.387 . S
C3336 H3340 0.950 . S
C3336 C3345 1.390 . S
C3337 C3336 1.387 . S
C3337 C3339 1.387 . S
H3338 C3345 0.950 . S
C3339 C3337 1.387 . S
C3339 C3341 1.390 . S
C3339 H3343 0.950 . S
H3340 C3336 0.950 . S
C3341 C3339 1.390 . S
C3341 C3342 1.387 . S
C3341 H3344 0.950 . S
C3342 C3341 1.387 . S
C3342 C3345 1.387 . S
H3343 C3339 0.950 . S
H3344 C3341 0.950 . S
C3345 C3336 1.390 . S
C3345 H3338 0.950 . S
C3345 C3342 1.387 . S
C3346 C3347 1.387 . S
C3346 H3350 0.950 . S
C3346 C3355 1.390 . S
C3347 C3346 1.387 . S
C3347 C3349 1.387 . S
H3348 C3355 0.950 . S
C3349 C3347 1.387 . S
C3349 C3351 1.390 . S
C3349 H3353 0.950 . S
H3350 C3346 0.950 . S
C3351 C3349 1.390 . S
C3351 C3352 1.387 . S
C3351 H3354 0.950 . S
C3352 C3351 1.387 . S
C3352 C3355 1.387 . S
H3353 C3349 0.950 . S
H3354 C3351 0.950 . S
C3355 C3346 1.390 . S
C3355 H3348 0.950 . S
C3355 C3352 1.387 . S
C3356 C3357 1.387 . S
C3356 H3360 0.950 . S
C3356 C3365 1.390 . S
C3357 C3356 1.387 . S
C3357 C3359 1.387 . S
H3358 C3365 0.950 . S
C3359 C3357 1.387 . S
C3359 C3361 1.390 . S
C3359 H3363 0.950 . S
H3360 C3356 0.950 . S
C3361 C3359 1.390 . S
C3361 C3362 1.387 . S
C3361 H3364 0.950 . S
C3362 C3361 1.387 . S
C3362 C3365 1.387 . S
H3363 C3359 0.950 . S
H3364 C3361 0.950 . S
C3365 C3356 1.390 . S
C3365 H3358 0.950 . S
C3365 C3362 1.387 . S
C3366 C3367 1.387 . S
C3366 H3370 0.950 . S
C3366 C3375 1.390 . S
C3367 C3366 1.387 . S
C3367 C3369 1.387 . S
H3368 C3375 0.950 . S
C3369 C3367 1.387 . S
C3369 C3371 1.390 . S
C3369 H3373 0.950 . S
H3370 C3366 0.950 . S
C3371 C3369 1.390 . S
C3371 C3372 1.387 . S
C3371 H3374 0.950 . S
C3372 C3371 1.387 . S
C3372 C3375 1.387 . S
H3373 C3369 0.950 . S
H3374 C3371 0.950 . S
C3375 C3366 1.390 . S
C3375 H3368 0.950 . S
C3375 C3372 1.387 . S
C3376 C3377 1.387 . S
C3376 H3380 0.950 . S
C3376 C3385 1.390 . S
C3377 C3376 1.387 . S
C3377 C3379 1.387 . S
H3378 C3385 0.950 . S
C3379 C3377 1.387 . S
C3379 C3381 1.390 . S
C3379 H3383 0.950 . S
H3380 C3376 0.950 . S
C3381 C3379 1.390 . S
C3381 C3382 1.387 . S
C3381 H3384 0.950 . S
C3382 C3381 1.387 . S
C3382 C3385 1.387 . S
H3383 C3379 0.950 . S
H3384 C3381 0.950 . S
C3385 C3376 1.390 . S
C3385 H3378 0.950 . S
C3385 C3382 1.387 . S
C3386 C3387 1.387 . S
C3386 H3390 0.950 . S
C3386 C3395 1.390 . S
C3387 C3386 1.387 . S
C3387 C3389 1.387 . S
H3388 C3395 0.950 . S
C3389 C3387 1.387 . S
C3389 C3391 1.390 . S
C3389 H3393 0.950 . S
H3390 C3386 0.950 . S
C3391 C3389 1.390 . S
C3391 C3392 1.387 . S
C3391 H3394 0.950 . S
C3392 C3391 1.387 . S
C3392 C3395 1.387 . S
H3393 C3389 0.950 . S
H3394 C3391 0.950 . S
C3395 C3386 1.390 . S
C3395 H3388 0.950 . S
C3395 C3392 1.387 . S
C3396 C3397 1.387 . S
C3396 H3400 0.950 . S
C3396 C3405 1.390 . S
C3397 C3396 1.387 . S
C3397 C3399 1.387 . S
H3398 C3405 0.950 . S
C3399 C3397 1.387 . S
C3399 C3401 1.390 . S
C3399 H3403 0.950 1_554 S
H3400 C3396 0.950 . S
C3401 C3399 1.390 . S
C3401 C3402 1.387 . S
C3401 H3404 0.950 . S
C3402 C3401 1.387 . S
C3402 C3405 1.387 . S
H3403 C3399 0.950 1_556 S
H3404 C3401 0.950 . S
C3405 C3396 1.390 . S
C3405 H3398 0.950 . S
C3405 C3402 1.387 . S
C3406 C3407 1.387 . S
C3406 H3410 0.950 . S
C3406 C3415 1.390 . S
C3407 C3406 1.387 . S
C3407 C3409 1.387 . S
H3408 C3415 0.950 . S
C3409 C3407 1.387 . S
C3409 C3411 1.390 . S
C3409 H3413 0.950 . S
H3410 C3406 0.950 . S
C3411 C3409 1.390 . S
C3411 C3412 1.387 . S
C3411 H3414 0.950 . S
C3412 C3411 1.387 . S
C3412 C3415 1.387 . S
H3413 C3409 0.950 . S
H3414 C3411 0.950 . S
C3415 C3406 1.390 . S
C3415 H3408 0.950 . S
C3415 C3412 1.387 . S
C3416 C3417 1.387 . S
C3416 H3420 0.950 . S
C3416 C3425 1.390 . S
C3417 C3416 1.387 . S
C3417 C3419 1.387 . S
H3418 C3425 0.950 . S
C3419 C3417 1.387 . S
C3419 C3421 1.390 . S
C3419 H3423 0.950 . S
H3420 C3416 0.950 . S
C3421 C3419 1.390 . S
C3421 C3422 1.387 . S
C3421 H3424 0.950 . S
C3422 C3421 1.387 . S
C3422 C3425 1.387 . S
H3423 C3419 0.950 . S
H3424 C3421 0.950 . S
C3425 C3416 1.390 . S
C3425 H3418 0.950 . S
C3425 C3422 1.387 . S
C3426 C3427 1.387 . S
C3426 H3430 0.950 . S
C3426 C3435 1.390 . S
C3427 C3426 1.387 . S
C3427 C3429 1.387 . S
H3428 C3435 0.950 . S
C3429 C3427 1.387 . S
C3429 C3431 1.390 . S
C3429 H3433 0.950 . S
H3430 C3426 0.950 . S
C3431 C3429 1.390 . S
C3431 C3432 1.387 . S
C3431 H3434 0.950 . S
C3432 C3431 1.387 . S
C3432 C3435 1.387 . S
H3433 C3429 0.950 . S
H3434 C3431 0.950 . S
C3435 C3426 1.390 . S
C3435 H3428 0.950 . S
C3435 C3432 1.387 . S
C3436 C3437 1.387 . S
C3436 H3440 0.950 . S
C3436 C3445 1.390 . S
C3437 C3436 1.387 . S
C3437 C3439 1.387 . S
H3438 C3445 0.950 . S
C3439 C3437 1.387 . S
C3439 C3441 1.390 . S
C3439 H3443 0.950 . S
H3440 C3436 0.950 . S
C3441 C3439 1.390 . S
C3441 C3442 1.387 . S
C3441 H3444 0.950 . S
C3442 C3441 1.387 . S
C3442 C3445 1.387 . S
H3443 C3439 0.950 . S
H3444 C3441 0.950 . S
C3445 C3436 1.390 . S
C3445 H3438 0.950 . S
C3445 C3442 1.387 . S
C3446 C3447 1.387 . S
C3446 H3450 0.950 . S
C3446 C3455 1.390 . S
C3447 C3446 1.387 . S
C3447 C3449 1.387 . S
H3448 C3455 0.950 . S
C3449 C3447 1.387 . S
C3449 C3451 1.390 . S
C3449 H3453 0.950 . S
H3450 C3446 0.950 . S
C3451 C3449 1.390 . S
C3451 C3452 1.387 . S
C3451 H3454 0.950 . S
C3452 C3451 1.387 . S
C3452 C3455 1.387 . S
H3453 C3449 0.950 . S
H3454 C3451 0.950 . S
C3455 C3446 1.390 . S
C3455 H3448 0.950 . S
C3455 C3452 1.387 . S
C3456 C3457 1.387 . S
C3456 H3460 0.950 . S
C3456 C3465 1.390 . S
C3457 C3456 1.387 . S
C3457 C3459 1.387 . S
H3458 C3465 0.950 . S
C3459 C3457 1.387 . S
C3459 C3461 1.390 . S
C3459 H3463 0.950 . S
H3460 C3456 0.950 . S
C3461 C3459 1.390 . S
C3461 C3462 1.387 . S
C3461 H3464 0.950 . S
C3462 C3461 1.387 . S
C3462 C3465 1.387 . S
H3463 C3459 0.950 . S
H3464 C3461 0.950 . S
C3465 C3456 1.390 . S
C3465 H3458 0.950 . S
C3465 C3462 1.387 . S
C3466 C3467 1.387 . S
C3466 H3470 0.950 . S
C3466 C3475 1.390 . S
C3467 C3466 1.387 . S
C3467 C3469 1.387 . S
H3468 C3475 0.950 . S
C3469 C3467 1.387 . S
C3469 C3471 1.390 . S
C3469 H3473 0.950 . S
H3470 C3466 0.950 . S
C3471 C3469 1.390 . S
C3471 C3472 1.387 . S
C3471 H3474 0.950 . S
C3472 C3471 1.387 . S
C3472 C3475 1.387 . S
H3473 C3469 0.950 . S
H3474 C3471 0.950 . S
C3475 C3466 1.390 . S
C3475 H3468 0.950 . S
C3475 C3472 1.387 . S
C3476 C3477 1.387 . S
C3476 H3480 0.950 . S
C3476 C3485 1.390 . S
C3477 C3476 1.387 . S
C3477 C3479 1.387 . S
H3478 C3485 0.950 . S
C3479 C3477 1.387 . S
C3479 C3481 1.390 . S
C3479 H3483 0.950 . S
H3480 C3476 0.950 . S
C3481 C3479 1.390 . S
C3481 C3482 1.387 . S
C3481 H3484 0.950 . S
C3482 C3481 1.387 . S
C3482 C3485 1.387 . S
H3483 C3479 0.950 . S
H3484 C3481 0.950 . S
C3485 C3476 1.390 . S
C3485 H3478 0.950 . S
C3485 C3482 1.387 . S
C3486 C3487 1.387 . S
C3486 H3490 0.950 . S
C3486 C3495 1.390 . S
C3487 C3486 1.387 . S
C3487 C3489 1.387 . S
H3488 C3495 0.950 . S
C3489 C3487 1.387 . S
C3489 C3491 1.390 . S
C3489 H3493 0.950 . S
H3490 C3486 0.950 . S
C3491 C3489 1.390 . S
C3491 C3492 1.387 . S
C3491 H3494 0.950 . S
C3492 C3491 1.387 . S
C3492 C3495 1.387 . S
H3493 C3489 0.950 . S
H3494 C3491 0.950 . S
C3495 C3486 1.390 . S
C3495 H3488 0.950 . S
C3495 C3492 1.387 . S
C3496 C3497 1.387 . S
C3496 H3500 0.950 . S
C3496 C3505 1.390 . S
C3497 C3496 1.387 . S
C3497 C3499 1.387 . S
H3498 C3505 0.950 . S
C3499 C3497 1.387 . S
C3499 C3501 1.390 . S
C3499 H3503 0.950 . S
H3500 C3496 0.950 . S
C3501 C3499 1.390 . S
C3501 C3502 1.387 . S
C3501 H3504 0.950 . S
C3502 C3501 1.387 . S
C3502 C3505 1.387 . S
H3503 C3499 0.950 . S
H3504 C3501 0.950 . S
C3505 C3496 1.390 . S
C3505 H3498 0.950 . S
C3505 C3502 1.387 . S
C3506 C3507 1.387 . S
C3506 H3510 0.950 . S
C3506 C3515 1.390 . S
C3507 C3506 1.387 . S
C3507 C3509 1.387 . S
H3508 C3515 0.950 . S
C3509 C3507 1.387 . S
C3509 C3511 1.390 . S
C3509 H3513 0.950 . S
H3510 C3506 0.950 . S
C3511 C3509 1.390 . S
C3511 C3512 1.387 . S
C3511 H3514 0.950 . S
C3512 C3511 1.387 . S
C3512 C3515 1.387 . S
H3513 C3509 0.950 . S
H3514 C3511 0.950 . S
C3515 C3506 1.390 . S
C3515 H3508 0.950 . S
C3515 C3512 1.387 . S
C3516 C3517 1.387 . S
C3516 H3520 0.950 . S
C3516 C3525 1.390 . S
C3517 C3516 1.387 . S
C3517 C3519 1.387 . S
H3518 C3525 0.950 . S
C3519 C3517 1.387 . S
C3519 C3521 1.390 . S
C3519 H3523 0.950 . S
H3520 C3516 0.950 . S
C3521 C3519 1.390 . S
C3521 C3522 1.387 . S
C3521 H3524 0.950 . S
C3522 C3521 1.387 . S
C3522 C3525 1.387 . S
H3523 C3519 0.950 . S
H3524 C3521 0.950 . S
C3525 C3516 1.390 . S
C3525 H3518 0.950 . S
C3525 C3522 1.387 . S
C3526 C3527 1.387 . S
C3526 H3530 0.950 . S
C3526 C3535 1.390 . S
C3527 C3526 1.387 . S
C3527 C3529 1.387 . S
H3528 C3535 0.950 . S
C3529 C3527 1.387 . S
C3529 C3531 1.390 . S
C3529 H3533 0.950 . S
H3530 C3526 0.950 . S
C3531 C3529 1.390 . S
C3531 C3532 1.387 . S
C3531 H3534 0.950 . S
C3532 C3531 1.387 . S
C3532 C3535 1.387 . S
H3533 C3529 0.950 . S
H3534 C3531 0.950 . S
C3535 C3526 1.390 . S
C3535 H3528 0.950 . S
C3535 C3532 1.387 . S
C3536 C3537 1.387 . S
C3536 H3540 0.950 . S
C3536 C3545 1.390 . S
C3537 C3536 1.387 . S
C3537 C3539 1.387 . S
H3538 C3545 0.950 . S
C3539 C3537 1.387 . S
C3539 C3541 1.390 . S
C3539 H3543 0.950 . S
H3540 C3536 0.950 . S
C3541 C3539 1.390 . S
C3541 C3542 1.387 . S
C3541 H3544 0.950 . S
C3542 C3541 1.387 . S
C3542 C3545 1.387 . S
H3543 C3539 0.950 . S
H3544 C3541 0.950 . S
C3545 C3536 1.390 . S
C3545 H3538 0.950 . S
C3545 C3542 1.387 . S
C3546 C3547 1.387 . S
C3546 H3550 0.950 . S
C3546 C3555 1.390 . S
C3547 C3546 1.387 . S
C3547 C3549 1.387 . S
H3548 C3555 0.950 . S
C3549 C3547 1.387 . S
C3549 C3551 1.390 . S
C3549 H3553 0.950 . S
H3550 C3546 0.950 . S
C3551 C3549 1.390 . S
C3551 C3552 1.387 . S
C3551 H3554 0.950 . S
C3552 C3551 1.387 . S
C3552 C3555 1.387 . S
H3553 C3549 0.950 . S
H3554 C3551 0.950 . S
C3555 C3546 1.390 . S
C3555 H3548 0.950 . S
C3555 C3552 1.387 . S
C3556 C3557 1.387 . S
C3556 H3560 0.950 . S
C3556 C3565 1.390 . S
C3557 C3556 1.387 . S
C3557 C3559 1.387 . S
H3558 C3565 0.950 . S
C3559 C3557 1.387 . S
C3559 C3561 1.390 . S
C3559 H3563 0.950 . S
H3560 C3556 0.950 . S
C3561 C3559 1.390 . S
C3561 C3562 1.387 . S
C3561 H3564 0.950 . S
C3562 C3561 1.387 . S
C3562 C3565 1.387 . S
H3563 C3559 0.950 . S
H3564 C3561 0.950 . S
C3565 C3556 1.390 . S
C3565 H3558 0.950 . S
C3565 C3562 1.387 . S
C3566 C3567 1.387 . S
C3566 H3570 0.950 . S
C3566 C3575 1.390 . S
C3567 C3566 1.387 . S
C3567 C3569 1.387 . S
H3568 C3575 0.950 . S
C3569 C3567 1.387 . S
C3569 C3571 1.390 . S
C3569 H3573 0.950 . S
H3570 C3566 0.950 . S
C3571 C3569 1.390 . S
C3571 C3572 1.387 . S
C3571 H3574 0.950 . S
C3572 C3571 1.387 . S
C3572 C3575 1.387 . S
H3573 C3569 0.950 . S
H3574 C3571 0.950 . S
C3575 C3566 1.390 . S
C3575 H3568 0.950 . S
C3575 C3572 1.387 . S
C3576 C3577 1.387 . S
C3576 H3580 0.950 . S
C3576 C3585 1.390 . S
C3577 C3576 1.387 . S
C3577 C3579 1.387 . S
H3578 C3585 0.950 . S
C3579 C3577 1.387 . S
C3579 C3581 1.390 . S
C3579 H3583 0.950 . S
H3580 C3576 0.950 . S
C3581 C3579 1.390 . S
C3581 C3582 1.387 . S
C3581 H3584 0.950 . S
C3582 C3581 1.387 . S
C3582 C3585 1.387 . S
H3583 C3579 0.950 . S
H3584 C3581 0.950 . S
C3585 C3576 1.390 . S
C3585 H3578 0.950 . S
C3585 C3582 1.387 . S
C3586 C3587 1.387 . S
C3586 H3590 0.950 . S
C3586 C3595 1.390 . S
C3587 C3586 1.387 . S
C3587 C3589 1.387 . S
H3588 C3595 0.950 . S
C3589 C3587 1.387 . S
C3589 C3591 1.390 . S
C3589 H3593 0.950 . S
H3590 C3586 0.950 . S
C3591 C3589 1.390 . S
C3591 C3592 1.387 . S
C3591 H3594 0.950 . S
C3592 C3591 1.387 . S
C3592 C3595 1.387 . S
H3593 C3589 0.950 . S
H3594 C3591 0.950 . S
C3595 C3586 1.390 . S
C3595 H3588 0.950 . S
C3595 C3592 1.387 . S
C3596 C3597 1.387 . S
C3596 H3600 0.950 . S
C3596 C3605 1.390 . S
C3597 C3596 1.387 . S
C3597 C3599 1.387 . S
H3598 C3605 0.950 . S
C3599 C3597 1.387 . S
C3599 C3601 1.390 . S
C3599 H3603 0.950 . S
H3600 C3596 0.950 . S
C3601 C3599 1.390 . S
C3601 C3602 1.387 . S
C3601 H3604 0.950 . S
C3602 C3601 1.387 . S
C3602 C3605 1.387 . S
H3603 C3599 0.950 . S
H3604 C3601 0.950 . S
C3605 C3596 1.390 . S
C3605 H3598 0.950 . S
C3605 C3602 1.387 . S
C3606 C3607 1.387 . S
C3606 H3610 0.950 . S
C3606 C3615 1.390 . S
C3607 C3606 1.387 . S
C3607 C3609 1.387 . S
H3608 C3615 0.950 . S
C3609 C3607 1.387 . S
C3609 C3611 1.390 . S
C3609 H3613 0.950 . S
H3610 C3606 0.950 . S
C3611 C3609 1.390 . S
C3611 C3612 1.387 . S
C3611 H3614 0.950 . S
C3612 C3611 1.387 . S
C3612 C3615 1.387 . S
H3613 C3609 0.950 . S
H3614 C3611 0.950 . S
C3615 C3606 1.390 . S
C3615 H3608 0.950 . S
C3615 C3612 1.387 . S
C3616 C3617 1.387 . S
C3616 H3620 0.950 . S
C3616 C3625 1.390 . S
C3617 C3616 1.387 . S
C3617 C3619 1.387 . S
H3618 C3625 0.950 . S
C3619 C3617 1.387 . S
C3619 C3621 1.390 . S
C3619 H3623 0.950 . S
H3620 C3616 0.950 . S
C3621 C3619 1.390 . S
C3621 C3622 1.387 . S
C3621 H3624 0.950 . S
C3622 C3621 1.387 . S
C3622 C3625 1.387 . S
H3623 C3619 0.950 . S
H3624 C3621 0.950 . S
C3625 C3616 1.390 . S
C3625 H3618 0.950 . S
C3625 C3622 1.387 . S
C3626 C3627 1.387 . S
C3626 H3630 0.950 . S
C3626 C3635 1.390 . S
C3627 C3626 1.387 . S
C3627 C3629 1.387 . S
H3628 C3635 0.950 . S
C3629 C3627 1.387 . S
C3629 C3631 1.390 . S
C3629 H3633 0.950 . S
H3630 C3626 0.950 . S
C3631 C3629 1.390 . S
C3631 C3632 1.387 . S
C3631 H3634 0.950 . S
C3632 C3631 1.387 . S
C3632 C3635 1.387 . S
H3633 C3629 0.950 . S
H3634 C3631 0.950 . S
C3635 C3626 1.390 . S
C3635 H3628 0.950 . S
C3635 C3632 1.387 . S
C3636 C3637 1.387 . S
C3636 H3640 0.950 . S
C3636 C3645 1.390 . S
C3637 C3636 1.387 . S
C3637 C3639 1.387 . S
H3638 C3645 0.950 . S
C3639 C3637 1.387 . S
C3639 C3641 1.390 . S
C3639 H3643 0.950 . S
H3640 C3636 0.950 . S
C3641 C3639 1.390 . S
C3641 C3642 1.387 . S
C3641 H3644 0.950 . S
C3642 C3641 1.387 . S
C3642 C3645 1.387 . S
H3643 C3639 0.950 . S
H3644 C3641 0.950 . S
C3645 C3636 1.390 . S
C3645 H3638 0.950 . S
C3645 C3642 1.387 . S
C3646 C3647 1.387 . S
C3646 H3650 0.950 . S
C3646 C3655 1.390 . S
C3647 C3646 1.387 . S
C3647 C3649 1.387 . S
H3648 C3655 0.950 . S
C3649 C3647 1.387 . S
C3649 C3651 1.390 . S
C3649 H3653 0.950 . S
H3650 C3646 0.950 . S
C3651 C3649 1.390 . S
C3651 C3652 1.387 . S
C3651 H3654 0.950 . S
C3652 C3651 1.387 . S
C3652 C3655 1.387 . S
H3653 C3649 0.950 . S
H3654 C3651 0.950 . S
C3655 C3646 1.390 . S
C3655 H3648 0.950 . S
C3655 C3652 1.387 . S
C3656 C3657 1.387 . S
C3656 H3660 0.950 . S
C3656 C3665 1.390 . S
C3657 C3656 1.387 . S
C3657 C3659 1.387 . S
H3658 C3665 0.950 . S
C3659 C3657 1.387 . S
C3659 C3661 1.390 . S
C3659 H3663 0.950 . S
H3660 C3656 0.950 . S
C3661 C3659 1.390 . S
C3661 C3662 1.387 . S
C3661 H3664 0.950 . S
C3662 C3661 1.387 . S
C3662 C3665 1.387 . S
H3663 C3659 0.950 . S
H3664 C3661 0.950 . S
C3665 C3656 1.390 . S
C3665 H3658 0.950 . S
C3665 C3662 1.387 . S
C3666 C3667 1.387 . S
C3666 H3670 0.950 . S
C3666 C3675 1.390 . S
C3667 C3666 1.387 . S
C3667 C3669 1.387 . S
H3668 C3675 0.950 . S
C3669 C3667 1.387 . S
C3669 C3671 1.390 . S
C3669 H3673 0.950 . S
H3670 C3666 0.950 . S
C3671 C3669 1.390 . S
C3671 C3672 1.387 . S
C3671 H3674 0.950 . S
C3672 C3671 1.387 . S
C3672 C3675 1.387 . S
H3673 C3669 0.950 . S
H3674 C3671 0.950 . S
C3675 C3666 1.390 . S
C3675 H3668 0.950 . S
C3675 C3672 1.387 . S
C3676 C3677 1.387 . S
C3676 H3680 0.950 . S
C3676 C3685 1.390 . S
C3677 C3676 1.387 . S
C3677 C3679 1.387 . S
H3678 C3685 0.950 . S
C3679 C3677 1.387 . S
C3679 C3681 1.390 . S
C3679 H3683 0.950 . S
H3680 C3676 0.950 . S
C3681 C3679 1.390 . S
C3681 C3682 1.387 . S
C3681 H3684 0.950 . S
C3682 C3681 1.387 . S
C3682 C3685 1.387 . S
H3683 C3679 0.950 . S
H3684 C3681 0.950 . S
C3685 C3676 1.390 . S
C3685 H3678 0.950 . S
C3685 C3682 1.387 . S
C3686 C3687 1.387 . S
C3686 H3690 0.950 . S
C3686 C3695 1.390 . S
C3687 C3686 1.387 . S
C3687 C3689 1.387 . S
H3688 C3695 0.950 . S
C3689 C3687 1.387 . S
C3689 C3691 1.390 . S
C3689 H3693 0.950 . S
H3690 C3686 0.950 . S
C3691 C3689 1.390 . S
C3691 C3692 1.387 . S
C3691 H3694 0.950 . S
C3692 C3691 1.387 . S
C3692 C3695 1.387 . S
H3693 C3689 0.950 . S
H3694 C3691 0.950 . S
C3695 C3686 1.390 . S
C3695 H3688 0.950 . S
C3695 C3692 1.387 . S
C3696 C3697 1.387 . S
C3696 H3700 0.950 . S
C3696 C3705 1.390 . S
C3697 C3696 1.387 . S
C3697 C3699 1.387 . S
H3698 C3705 0.950 . S
C3699 C3697 1.387 . S
C3699 C3701 1.390 . S
C3699 H3703 0.950 . S
H3700 C3696 0.950 . S
C3701 C3699 1.390 . S
C3701 C3702 1.387 . S
C3701 H3704 0.950 . S
C3702 C3701 1.387 . S
C3702 C3705 1.387 . S
H3703 C3699 0.950 . S
H3704 C3701 0.950 . S
C3705 C3696 1.390 . S
C3705 H3698 0.950 . S
C3705 C3702 1.387 . S
C3706 C3707 1.387 . S
C3706 H3710 0.950 . S
C3706 C3715 1.390 . S
C3707 C3706 1.387 . S
C3707 C3709 1.387 . S
H3708 C3715 0.950 . S
C3709 C3707 1.387 . S
C3709 C3711 1.390 . S
C3709 H3713 0.950 . S
H3710 C3706 0.950 . S
C3711 C3709 1.390 . S
C3711 C3712 1.387 . S
C3711 H3714 0.950 . S
C3712 C3711 1.387 . S
C3712 C3715 1.387 . S
H3713 C3709 0.950 . S
H3714 C3711 0.950 . S
C3715 C3706 1.390 . S
C3715 H3708 0.950 . S
C3715 C3712 1.387 . S
C3716 C3717 1.387 . S
C3716 H3720 0.950 . S
C3716 C3725 1.390 . S
C3717 C3716 1.387 . S
C3717 C3719 1.387 . S
H3718 C3725 0.950 . S
C3719 C3717 1.387 . S
C3719 C3721 1.390 . S
C3719 H3723 0.950 . S
H3720 C3716 0.950 . S
C3721 C3719 1.390 . S
C3721 C3722 1.387 . S
C3721 H3724 0.950 . S
C3722 C3721 1.387 . S
C3722 C3725 1.387 . S
H3723 C3719 0.950 . S
H3724 C3721 0.950 . S
C3725 C3716 1.390 . S
C3725 H3718 0.950 . S
C3725 C3722 1.387 . S
C3726 C3727 1.387 . S
C3726 H3730 0.950 . S
C3726 C3735 1.390 . S
C3727 C3726 1.387 . S
C3727 C3729 1.387 . S
H3728 C3735 0.950 . S
C3729 C3727 1.387 . S
C3729 C3731 1.390 . S
C3729 H3733 0.950 . S
H3730 C3726 0.950 . S
C3731 C3729 1.390 . S
C3731 C3732 1.387 . S
C3731 H3734 0.950 . S
C3732 C3731 1.387 . S
C3732 C3735 1.387 . S
H3733 C3729 0.950 . S
H3734 C3731 0.950 . S
C3735 C3726 1.390 . S
C3735 H3728 0.950 . S
C3735 C3732 1.387 . S
C3736 C3737 1.387 . S
C3736 H3740 0.950 . S
C3736 C3745 1.390 . S
C3737 C3736 1.387 . S
C3737 C3739 1.387 . S
H3738 C3745 0.950 . S
C3739 C3737 1.387 . S
C3739 C3741 1.390 . S
C3739 H3743 0.950 . S
H3740 C3736 0.950 . S
C3741 C3739 1.390 . S
C3741 C3742 1.387 . S
C3741 H3744 0.950 . S
C3742 C3741 1.387 . S
C3742 C3745 1.387 . S
H3743 C3739 0.950 . S
H3744 C3741 0.950 . S
C3745 C3736 1.390 . S
C3745 H3738 0.950 . S
C3745 C3742 1.387 . S
C3746 C3747 1.387 . S
C3746 H3750 0.950 . S
C3746 C3755 1.390 . S
C3747 C3746 1.387 . S
C3747 C3749 1.387 . S
H3748 C3755 0.950 . S
C3749 C3747 1.387 . S
C3749 C3751 1.390 . S
C3749 H3753 0.950 . S
H3750 C3746 0.950 . S
C3751 C3749 1.390 . S
C3751 C3752 1.387 . S
C3751 H3754 0.950 . S
C3752 C3751 1.387 . S
C3752 C3755 1.387 . S
H3753 C3749 0.950 . S
H3754 C3751 0.950 . S
C3755 C3746 1.390 . S
C3755 H3748 0.950 . S
C3755 C3752 1.387 . S
C3756 C3757 1.387 . S
C3756 H3760 0.950 . S
C3756 C3765 1.390 . S
C3757 C3756 1.387 . S
C3757 C3759 1.387 . S
H3758 C3765 0.950 . S
C3759 C3757 1.387 . S
C3759 C3761 1.390 . S
C3759 H3763 0.950 . S
H3760 C3756 0.950 . S
C3761 C3759 1.390 . S
C3761 C3762 1.387 . S
C3761 H3764 0.950 . S
C3762 C3761 1.387 . S
C3762 C3765 1.387 . S
H3763 C3759 0.950 . S
H3764 C3761 0.950 . S
C3765 C3756 1.390 . S
C3765 H3758 0.950 . S
C3765 C3762 1.387 . S
C3766 C3767 1.387 . S
C3766 H3770 0.950 . S
C3766 C3775 1.390 . S
C3767 C3766 1.387 . S
C3767 C3769 1.387 . S
H3768 C3775 0.950 . S
C3769 C3767 1.387 . S
C3769 C3771 1.390 . S
C3769 H3773 0.950 . S
H3770 C3766 0.950 . S
C3771 C3769 1.390 . S
C3771 C3772 1.387 . S
C3771 H3774 0.950 . S
C3772 C3771 1.387 . S
C3772 C3775 1.387 . S
H3773 C3769 0.950 . S
H3774 C3771 0.950 . S
C3775 C3766 1.390 . S
C3775 H3768 0.950 . S
C3775 C3772 1.387 . S
C3776 C3777 1.387 . S
C3776 H3780 0.950 . S
C3776 C3785 1.390 . S
C3777 C3776 1.387 . S
C3777 C3779 1.387 . S
H3778 C3785 0.950 . S
C3779 C3777 1.387 . S
C3779 C3781 1.390 . S
C3779 H3783 0.950 . S
H3780 C3776 0.950 . S
C3781 C3779 1.390 . S
C3781 C3782 1.387 . S
C3781 H3784 0.950 . S
C3782 C3781 1.387 . S
C3782 C3785 1.387 . S
H3783 C3779 0.950 . S
H3784 C3781 0.950 . S
C3785 C3776 1.390 . S
C3785 H3778 0.950 . S
C3785 C3782 1.387 . S
C3786 C3787 1.387 . S
C3786 H3790 0.950 . S
C3786 C3795 1.390 . S
C3787 C3786 1.387 . S
C3787 C3789 1.387 . S
H3788 C3795 0.950 . S
C3789 C3787 1.387 . S
C3789 C3791 1.390 . S
C3789 H3793 0.950 . S
H3790 C3786 0.950 . S
C3791 C3789 1.390 . S
C3791 C3792 1.387 . S
C3791 H3794 0.950 . S
C3792 C3791 1.387 . S
C3792 C3795 1.387 . S
H3793 C3789 0.950 . S
H3794 C3791 0.950 . S
C3795 C3786 1.390 . S
C3795 H3788 0.950 . S
C3795 C3792 1.387 . S
C3796 C3797 1.387 . S
C3796 H3800 0.950 . S
C3796 C3805 1.390 . S
C3797 C3796 1.387 . S
C3797 C3799 1.387 . S
H3798 C3805 0.950 . S
C3799 C3797 1.387 . S
C3799 C3801 1.390 . S
C3799 H3803 0.950 . S
H3800 C3796 0.950 . S
C3801 C3799 1.390 . S
C3801 C3802 1.387 . S
C3801 H3804 0.950 . S
C3802 C3801 1.387 . S
C3802 C3805 1.387 . S
H3803 C3799 0.950 . S
H3804 C3801 0.950 . S
C3805 C3796 1.390 . S
C3805 H3798 0.950 . S
C3805 C3802 1.387 . S
C3806 C3807 1.387 . S
C3806 H3810 0.950 . S
C3806 C3815 1.390 . S
C3807 C3806 1.387 . S
C3807 C3809 1.387 . S
H3808 C3815 0.950 . S
C3809 C3807 1.387 . S
C3809 C3811 1.390 . S
C3809 H3813 0.950 . S
H3810 C3806 0.950 . S
C3811 C3809 1.390 . S
C3811 C3812 1.387 . S
C3811 H3814 0.950 . S
C3812 C3811 1.387 . S
C3812 C3815 1.387 . S
H3813 C3809 0.950 . S
H3814 C3811 0.950 . S
C3815 C3806 1.390 . S
C3815 H3808 0.950 . S
C3815 C3812 1.387 . S
C3816 C3817 1.387 . S
C3816 H3820 0.950 . S
C3816 C3825 1.390 . S
C3817 C3816 1.387 . S
C3817 C3819 1.387 . S
H3818 C3825 0.950 . S
C3819 C3817 1.387 . S
C3819 C3821 1.390 . S
C3819 H3823 0.950 . S
H3820 C3816 0.950 . S
C3821 C3819 1.390 . S
C3821 C3822 1.387 . S
C3821 H3824 0.950 . S
C3822 C3821 1.387 . S
C3822 C3825 1.387 . S
H3823 C3819 0.950 . S
H3824 C3821 0.950 . S
C3825 C3816 1.390 . S
C3825 H3818 0.950 . S
C3825 C3822 1.387 . S
C3826 C3827 1.387 . S
C3826 H3830 0.950 . S
C3826 C3835 1.390 . S
C3827 C3826 1.387 . S
C3827 C3829 1.387 . S
H3828 C3835 0.950 . S
C3829 C3827 1.387 . S
C3829 C3831 1.390 . S
C3829 H3833 0.950 . S
H3830 C3826 0.950 . S
C3831 C3829 1.390 . S
C3831 C3832 1.387 . S
C3831 H3834 0.950 . S
C3832 C3831 1.387 . S
C3832 C3835 1.387 . S
H3833 C3829 0.950 . S
H3834 C3831 0.950 . S
C3835 C3826 1.390 . S
C3835 H3828 0.950 . S
C3835 C3832 1.387 . S
C3836 C3837 1.387 . S
C3836 H3840 0.950 . S
C3836 C3845 1.390 . S
C3837 C3836 1.387 . S
C3837 C3839 1.387 . S
H3838 C3845 0.950 . S
C3839 C3837 1.387 . S
C3839 C3841 1.390 . S
C3839 H3843 0.950 . S
H3840 C3836 0.950 . S
C3841 C3839 1.390 . S
C3841 C3842 1.387 . S
C3841 H3844 0.950 . S
C3842 C3841 1.387 . S
C3842 C3845 1.387 . S
H3843 C3839 0.950 . S
H3844 C3841 0.950 . S
C3845 C3836 1.390 . S
C3845 H3838 0.950 . S
C3845 C3842 1.387 . S
C3846 C3847 1.387 . S
C3846 H3850 0.950 . S
C3846 C3855 1.390 . S
C3847 C3846 1.387 . S
C3847 C3849 1.387 . S
H3848 C3855 0.950 . S
C3849 C3847 1.387 . S
C3849 C3851 1.390 . S
C3849 H3853 0.950 . S
H3850 C3846 0.950 . S
C3851 C3849 1.390 . S
C3851 C3852 1.387 . S
C3851 H3854 0.950 . S
C3852 C3851 1.387 . S
C3852 C3855 1.387 . S
H3853 C3849 0.950 . S
H3854 C3851 0.950 . S
C3855 C3846 1.390 . S
C3855 H3848 0.950 . S
C3855 C3852 1.387 . S
C3856 C3857 1.387 . S
C3856 H3860 0.950 . S
C3856 C3865 1.390 . S
C3857 C3856 1.387 . S
C3857 C3859 1.387 . S
H3858 C3865 0.950 . S
C3859 C3857 1.387 . S
C3859 C3861 1.390 . S
C3859 H3863 0.950 . S
H3860 C3856 0.950 . S
C3861 C3859 1.390 . S
C3861 C3862 1.387 . S
C3861 H3864 0.950 . S
C3862 C3861 1.387 . S
C3862 C3865 1.387 . S
H3863 C3859 0.950 . S
H3864 C3861 0.950 . S
C3865 C3856 1.390 . S
C3865 H3858 0.950 . S
C3865 C3862 1.387 . S
C3866 C3867 1.387 . S
C3866 H3870 0.950 . S
C3866 C3875 1.390 . S
C3867 C3866 1.387 . S
C3867 C3869 1.387 . S
H3868 C3875 0.950 . S
C3869 C3867 1.387 . S
C3869 C3871 1.390 . S
C3869 H3873 0.950 . S
H3870 C3866 0.950 . S
C3871 C3869 1.390 . S
C3871 C3872 1.387 . S
C3871 H3874 0.950 . S
C3872 C3871 1.387 . S
C3872 C3875 1.387 . S
H3873 C3869 0.950 . S
H3874 C3871 0.950 . S
C3875 C3866 1.390 . S
C3875 H3868 0.950 . S
C3875 C3872 1.387 . S
C3876 C3877 1.387 . S
C3876 H3880 0.950 . S
C3876 C3885 1.390 . S
C3877 C3876 1.387 . S
C3877 C3879 1.387 . S
H3878 C3885 0.950 . S
C3879 C3877 1.387 . S
C3879 C3881 1.390 . S
C3879 H3883 0.950 . S
H3880 C3876 0.950 . S
C3881 C3879 1.390 . S
C3881 C3882 1.387 . S
C3881 H3884 0.950 . S
C3882 C3881 1.387 . S
C3882 C3885 1.387 . S
H3883 C3879 0.950 . S
H3884 C3881 0.950 . S
C3885 C3876 1.390 . S
C3885 H3878 0.950 . S
C3885 C3882 1.387 . S
C3886 C3887 1.387 . S
C3886 H3890 0.950 . S
C3886 C3895 1.390 . S
C3887 C3886 1.387 . S
C3887 C3889 1.387 . S
H3888 C3895 0.950 . S
C3889 C3887 1.387 . S
C3889 C3891 1.390 . S
C3889 H3893 0.950 . S
H3890 C3886 0.950 . S
C3891 C3889 1.390 . S
C3891 C3892 1.387 . S
C3891 H3894 0.950 . S
C3892 C3891 1.387 . S
C3892 C3895 1.387 . S
H3893 C3889 0.950 . S
H3894 C3891 0.950 . S
C3895 C3886 1.390 . S
C3895 H3888 0.950 . S
C3895 C3892 1.387 . S
C3896 C3897 1.387 . S
C3896 H3900 0.950 . S
C3896 C3905 1.390 . S
C3897 C3896 1.387 . S
C3897 C3899 1.387 . S
H3898 C3905 0.950 . S
C3899 C3897 1.387 . S
C3899 C3901 1.390 . S
C3899 H3903 0.950 . S
H3900 C3896 0.950 . S
C3901 C3899 1.390 . S
C3901 C3902 1.387 . S
C3901 H3904 0.950 . S
C3902 C3901 1.387 . S
C3902 C3905 1.387 . S
H3903 C3899 0.950 . S
H3904 C3901 0.950 . S
C3905 C3896 1.390 . S
C3905 H3898 0.950 . S
C3905 C3902 1.387 . S
C3906 C3907 1.387 . S
C3906 H3910 0.950 . S
C3906 C3915 1.390 . S
C3907 C3906 1.387 . S
C3907 C3909 1.387 . S
H3908 C3915 0.950 . S
C3909 C3907 1.387 . S
C3909 C3911 1.390 . S
C3909 H3913 0.950 . S
H3910 C3906 0.950 . S
C3911 C3909 1.390 . S
C3911 C3912 1.387 . S
C3911 H3914 0.950 . S
C3912 C3911 1.387 . S
C3912 C3915 1.387 . S
H3913 C3909 0.950 . S
H3914 C3911 0.950 . S
C3915 C3906 1.390 . S
C3915 H3908 0.950 . S
C3915 C3912 1.387 . S
C3916 C3917 1.387 . S
C3916 H3920 0.950 . S
C3916 C3925 1.390 . S
C3917 C3916 1.387 . S
C3917 C3919 1.387 . S
H3918 C3925 0.950 . S
C3919 C3917 1.387 . S
C3919 C3921 1.390 . S
C3919 H3923 0.950 . S
H3920 C3916 0.950 . S
C3921 C3919 1.390 . S
C3921 C3922 1.387 . S
C3921 H3924 0.950 . S
C3922 C3921 1.387 . S
C3922 C3925 1.387 . S
H3923 C3919 0.950 . S
H3924 C3921 0.950 . S
C3925 C3916 1.390 . S
C3925 H3918 0.950 . S
C3925 C3922 1.387 . S
C3926 C3927 1.387 . S
C3926 H3930 0.950 . S
C3926 C3935 1.390 . S
C3927 C3926 1.387 . S
C3927 C3929 1.387 . S
H3928 C3935 0.950 . S
C3929 C3927 1.387 . S
C3929 C3931 1.390 . S
C3929 H3933 0.950 . S
H3930 C3926 0.950 . S
C3931 C3929 1.390 . S
C3931 C3932 1.387 . S
C3931 H3934 0.950 . S
C3932 C3931 1.387 . S
C3932 C3935 1.387 . S
H3933 C3929 0.950 . S
H3934 C3931 0.950 . S
C3935 C3926 1.390 . S
C3935 H3928 0.950 . S
C3935 C3932 1.387 . S
C3936 C3937 1.387 . S
C3936 H3940 0.950 . S
C3936 C3945 1.390 . S
C3937 C3936 1.387 . S
C3937 C3939 1.387 . S
H3938 C3945 0.950 . S
C3939 C3937 1.387 . S
C3939 C3941 1.390 . S
C3939 H3943 0.950 . S
H3940 C3936 0.950 . S
C3941 C3939 1.390 . S
C3941 C3942 1.387 . S
C3941 H3944 0.950 . S
C3942 C3941 1.387 . S
C3942 C3945 1.387 . S
H3943 C3939 0.950 . S
H3944 C3941 0.950 . S
C3945 C3936 1.390 . S
C3945 H3938 0.950 . S
C3945 C3942 1.387 . S
C3946 C3947 1.387 . S
C3946 H3950 0.950 . S
C3946 C3955 1.390 . S
C3947 C3946 1.387 . S
C3947 C3949 1.387 . S
H3948 C3955 0.950 . S
C3949 C3947 1.387 . S
C3949 C3951 1.390 . S
C3949 H3953 0.950 . S
H3950 C3946 0.950 . S
C3951 C3949 1.390 . S
C3951 C3952 1.387 . S
C3951 H3954 0.950 . S
C3952 C3951 1.387 . S
C3952 C3955 1.387 . S
H3953 C3949 0.950 . S
H3954 C3951 0.950 . S
C3955 C3946 1.390 . S
C3955 H3948 0.950 . S
C3955 C3952 1.387 . S
C3956 C3957 1.387 . S
C3956 H3960 0.950 . S
C3956 C3965 1.390 . S
C3957 C3956 1.387 . S
C3957 C3959 1.387 . S
H3958 C3965 0.950 . S
C3959 C3957 1.387 . S
C3959 C3961 1.390 . S
C3959 H3963 0.950 . S
H3960 C3956 0.950 . S
C3961 C3959 1.390 . S
C3961 C3962 1.387 . S
C3961 H3964 0.950 . S
C3962 C3961 1.387 . S
C3962 C3965 1.387 . S
H3963 C3959 0.950 . S
H3964 C3961 0.950 . S
C3965 C3956 1.390 . S
C3965 H3958 0.950 . S
C3965 C3962 1.387 . S
C3966 C3967 1.387 . S
C3966 H3970 0.950 . S
C3966 C3975 1.390 . S
C3967 C3966 1.387 . S
C3967 C3969 1.387 . S
H3968 C3975 0.950 . S
C3969 C3967 1.387 . S
C3969 C3971 1.390 . S
C3969 H3973 0.950 . S
H3970 C3966 0.950 . S
C3971 C3969 1.390 . S
C3971 C3972 1.387 . S
C3971 H3974 0.950 . S
C3972 C3971 1.387 . S
C3972 C3975 1.387 . S
H3973 C3969 0.950 . S
H3974 C3971 0.950 . S
C3975 C3966 1.390 . S
C3975 H3968 0.950 . S
C3975 C3972 1.387 . S
C3976 C3977 1.387 . S
C3976 H3980 0.950 . S
C3976 C3985 1.390 . S
C3977 C3976 1.387 . S
C3977 C3979 1.387 . S
H3978 C3985 0.950 . S
C3979 C3977 1.387 . S
C3979 C3981 1.390 . S
C3979 H3983 0.950 . S
H3980 C3976 0.950 . S
C3981 C3979 1.390 . S
C3981 C3982 1.387 . S
C3981 H3984 0.950 . S
C3982 C3981 1.387 . S
C3982 C3985 1.387 . S
H3983 C3979 0.950 . S
H3984 C3981 0.950 . S
C3985 C3976 1.390 . S
C3985 H3978 0.950 . S
C3985 C3982 1.387 . S
C3986 C3987 1.387 . S
C3986 H3990 0.950 . S
C3986 C3995 1.390 . S
C3987 C3986 1.387 . S
C3987 C3989 1.387 . S
H3988 C3995 0.950 . S
C3989 C3987 1.387 . S
C3989 C3991 1.390 . S
C3989 H3993 0.950 . S
H3990 C3986 0.950 . S
C3991 C3989 1.390 . S
C3991 C3992 1.387 . S
C3991 H3994 0.950 . S
C3992 C3991 1.387 . S
C3992 C3995 1.387 . S
H3993 C3989 0.950 . S
H3994 C3991 0.950 . S
C3995 C3986 1.390 . S
C3995 H3988 0.950 . S
C3995 C3992 1.387 . S
C3996 C3997 1.387 . S
C3996 H4000 0.950 . S
C3996 C4005 1.390 . S
C3997 C3996 1.387 . S
C3997 C3999 1.387 . S
H3998 C4005 0.950 . S
C3999 C3997 1.387 . S
C3999 C4001 1.390 . S
C3999 H4003 0.950 . S
H4000 C3996 0.950 . S
C4001 C3999 1.390 . S
C4001 C4002 1.387 . S
C4001 H4004 0.950 . S
C4002 C4001 1.387 . S
C4002 C4005 1.387 . S
H4003 C3999 0.950 . S
H4004 C4001 0.950 . S
C4005 C3996 1.390 . S
C4005 H3998 0.950 . S
C4005 C4002 1.387 . S
C4006 C4007 1.387 . S
C4006 H4010 0.950 . S
C4006 C4015 1.390 . S
C4007 C4006 1.387 . S
C4007 C4009 1.387 . S
H4008 C4015 0.950 . S
C4009 C4007 1.387 . S
C4009 C4011 1.390 . S
C4009 H4013 0.950 . S
H4010 C4006 0.950 . S
C4011 C4009 1.390 . S
C4011 C4012 1.387 . S
C4011 H4014 0.950 . S
C4012 C4011 1.387 . S
C4012 C4015 1.387 . S
H4013 C4009 0.950 . S
H4014 C4011 0.950 . S
C4015 C4006 1.390 . S
C4015 H4008 0.950 . S
C4015 C4012 1.387 . S
C4016 C4017 1.387 . S
C4016 H4020 0.950 . S
C4016 C4025 1.390 . S
C4017 C4016 1.387 . S
C4017 C4019 1.387 . S
H4018 C4025 0.950 . S
C4019 C4017 1.387 . S
C4019 C4021 1.390 . S
C4019 H4023 0.950 . S
H4020 C4016 0.950 . S
C4021 C4019 1.390 . S
C4021 C4022 1.387 . S
C4021 H4024 0.950 . S
C4022 C4021 1.387 . S
C4022 C4025 1.387 . S
H4023 C4019 0.950 . S
H4024 C4021 0.950 . S
C4025 C4016 1.390 . S
C4025 H4018 0.950 . S
C4025 C4022 1.387 . S
C4026 C4027 1.387 . S
C4026 H4030 0.950 . S
C4026 C4035 1.390 . S
C4027 C4026 1.387 . S
C4027 C4029 1.387 . S
H4028 C4035 0.950 . S
C4029 C4027 1.387 . S
C4029 C4031 1.390 . S
C4029 H4033 0.950 . S
H4030 C4026 0.950 . S
C4031 C4029 1.390 . S
C4031 C4032 1.387 . S
C4031 H4034 0.950 . S
C4032 C4031 1.387 . S
C4032 C4035 1.387 . S
H4033 C4029 0.950 . S
H4034 C4031 0.950 . S
C4035 C4026 1.390 . S
C4035 H4028 0.950 . S
C4035 C4032 1.387 . S
C4036 C4037 1.387 . S
C4036 H4040 0.950 . S
C4036 C4045 1.390 . S
C4037 C4036 1.387 . S
C4037 C4039 1.387 . S
H4038 C4045 0.950 . S
C4039 C4037 1.387 . S
C4039 C4041 1.390 . S
C4039 H4043 0.950 . S
H4040 C4036 0.950 . S
C4041 C4039 1.390 . S
C4041 C4042 1.387 . S
C4041 H4044 0.950 . S
C4042 C4041 1.387 . S
C4042 C4045 1.387 . S
H4043 C4039 0.950 . S
H4044 C4041 0.950 . S
C4045 C4036 1.390 . S
C4045 H4038 0.950 . S
C4045 C4042 1.387 . S
C4046 C4047 1.387 . S
C4046 H4050 0.950 . S
C4046 C4055 1.390 . S
C4047 C4046 1.387 . S
C4047 C4049 1.387 . S
H4048 C4055 0.950 . S
C4049 C4047 1.387 . S
C4049 C4051 1.390 . S
C4049 H4053 0.950 . S
H4050 C4046 0.950 . S
C4051 C4049 1.390 . S
C4051 C4052 1.387 . S
C4051 H4054 0.950 . S
C4052 C4051 1.387 . S
C4052 C4055 1.387 . S
H4053 C4049 0.950 . S
H4054 C4051 0.950 . S
C4055 C4046 1.390 . S
C4055 H4048 0.950 . S
C4055 C4052 1.387 . S
C4056 C4057 1.387 . S
C4056 H4060 0.950 . S
C4056 C4065 1.390 . S
C4057 C4056 1.387 . S
C4057 C4059 1.387 . S
H4058 C4065 0.950 . S
C4059 C4057 1.387 . S
C4059 C4061 1.390 . S
C4059 H4063 0.950 . S
H4060 C4056 0.950 . S
C4061 C4059 1.390 . S
C4061 C4062 1.387 . S
C4061 H4064 0.950 . S
C4062 C4061 1.387 . S
C4062 C4065 1.387 . S
H4063 C4059 0.950 . S
H4064 C4061 0.950 . S
C4065 C4056 1.390 . S
C4065 H4058 0.950 . S
C4065 C4062 1.387 . S
C4066 C4067 1.387 . S
C4066 H4070 0.950 . S
C4066 C4075 1.390 . S
C4067 C4066 1.387 . S
C4067 C4069 1.387 . S
H4068 C4075 0.950 . S
C4069 C4067 1.387 . S
C4069 C4071 1.390 . S
C4069 H4073 0.950 . S
H4070 C4066 0.950 . S
C4071 C4069 1.390 . S
C4071 C4072 1.387 . S
C4071 H4074 0.950 . S
C4072 C4071 1.387 . S
C4072 C4075 1.387 . S
H4073 C4069 0.950 . S
H4074 C4071 0.950 . S
C4075 C4066 1.390 . S
C4075 H4068 0.950 . S
C4075 C4072 1.387 . S
C4076 C4077 1.387 . S
C4076 H4080 0.950 . S
C4076 C4085 1.390 . S
C4077 C4076 1.387 . S
C4077 C4079 1.387 . S
H4078 C4085 0.950 . S
C4079 C4077 1.387 . S
C4079 C4081 1.390 . S
C4079 H4083 0.950 . S
H4080 C4076 0.950 . S
C4081 C4079 1.390 . S
C4081 C4082 1.387 . S
C4081 H4084 0.950 . S
C4082 C4081 1.387 . S
C4082 C4085 1.387 . S
H4083 C4079 0.950 . S
H4084 C4081 0.950 . S
C4085 C4076 1.390 . S
C4085 H4078 0.950 . S
C4085 C4082 1.387 . S
C4086 C4087 1.387 . S
C4086 H4090 0.950 . S
C4086 C4095 1.390 . S
C4087 C4086 1.387 . S
C4087 C4089 1.387 . S
H4088 C4095 0.950 . S
C4089 C4087 1.387 . S
C4089 C4091 1.390 . S
C4089 H4093 0.950 . S
H4090 C4086 0.950 . S
C4091 C4089 1.390 . S
C4091 C4092 1.387 . S
C4091 H4094 0.950 . S
C4092 C4091 1.387 . S
C4092 C4095 1.387 . S
H4093 C4089 0.950 . S
H4094 C4091 0.950 . S
C4095 C4086 1.390 . S
C4095 H4088 0.950 . S
C4095 C4092 1.387 . S
C4096 C4097 1.387 . S
C4096 H4100 0.950 . S
C4096 C4105 1.390 . S
C4097 C4096 1.387 . S
C4097 C4099 1.387 . S
H4098 C4105 0.950 . S
C4099 C4097 1.387 . S
C4099 C4101 1.390 . S
C4099 H4103 0.950 . S
H4100 C4096 0.950 . S
C4101 C4099 1.390 . S
C4101 C4102 1.387 . S
C4101 H4104 0.950 . S
C4102 C4101 1.387 . S
C4102 C4105 1.387 . S
H4103 C4099 0.950 . S
H4104 C4101 0.950 . S
C4105 C4096 1.390 . S
C4105 H4098 0.950 . S
C4105 C4102 1.387 . S
C4106 C4107 1.387 . S
C4106 H4110 0.950 . S
C4106 C4115 1.390 . S
C4107 C4106 1.387 . S
C4107 C4109 1.387 . S
H4108 C4115 0.950 . S
C4109 C4107 1.387 . S
C4109 C4111 1.390 . S
C4109 H4113 0.950 . S
H4110 C4106 0.950 . S
C4111 C4109 1.390 . S
C4111 C4112 1.387 . S
C4111 H4114 0.950 . S
C4112 C4111 1.387 . S
C4112 C4115 1.387 . S
H4113 C4109 0.950 . S
H4114 C4111 0.950 . S
C4115 C4106 1.390 . S
C4115 H4108 0.950 . S
C4115 C4112 1.387 . S
C4116 C4117 1.387 . S
C4116 H4120 0.950 . S
C4116 C4125 1.390 . S
C4117 C4116 1.387 . S
C4117 C4119 1.387 . S
H4118 C4125 0.950 . S
C4119 C4117 1.387 . S
C4119 C4121 1.390 . S
C4119 H4123 0.950 . S
H4120 C4116 0.950 . S
C4121 C4119 1.390 . S
C4121 C4122 1.387 . S
C4121 H4124 0.950 . S
C4122 C4121 1.387 . S
C4122 C4125 1.387 . S
H4123 C4119 0.950 . S
H4124 C4121 0.950 . S
C4125 C4116 1.390 . S
C4125 H4118 0.950 . S
C4125 C4122 1.387 . S
C4126 C4127 1.387 . S
C4126 H4130 0.950 . S
C4126 C4135 1.390 . S
C4127 C4126 1.387 . S
C4127 C4129 1.387 . S
H4128 C4135 0.950 . S
C4129 C4127 1.387 . S
C4129 C4131 1.390 . S
C4129 H4133 0.950 . S
H4130 C4126 0.950 . S
C4131 C4129 1.390 . S
C4131 C4132 1.387 . S
C4131 H4134 0.950 . S
C4132 C4131 1.387 . S
C4132 C4135 1.387 . S
H4133 C4129 0.950 . S
H4134 C4131 0.950 . S
C4135 C4126 1.390 . S
C4135 H4128 0.950 . S
C4135 C4132 1.387 . S
C4136 C4137 1.387 . S
C4136 H4140 0.950 . S
C4136 C4145 1.390 . S
C4137 C4136 1.387 . S
C4137 C4139 1.387 . S
H4138 C4145 0.950 . S
C4139 C4137 1.387 . S
C4139 C4141 1.390 . S
C4139 H4143 0.950 . S
H4140 C4136 0.950 . S
C4141 C4139 1.390 . S
C4141 C4142 1.387 . S
C4141 H4144 0.950 . S
C4142 C4141 1.387 . S
C4142 C4145 1.387 . S
H4143 C4139 0.950 . S
H4144 C4141 0.950 . S
C4145 C4136 1.390 . S
C4145 H4138 0.950 . S
C4145 C4142 1.387 . S
C4146 C4147 1.387 . S
C4146 H4150 0.950 . S
C4146 C4155 1.390 . S
C4147 C4146 1.387 . S
C4147 C4149 1.387 . S
H4148 C4155 0.950 . S
C4149 C4147 1.387 . S
C4149 C4151 1.390 . S
C4149 H4153 0.950 . S
H4150 C4146 0.950 . S
C4151 C4149 1.390 . S
C4151 C4152 1.387 . S
C4151 H4154 0.950 . S
C4152 C4151 1.387 . S
C4152 C4155 1.387 . S
H4153 C4149 0.950 . S
H4154 C4151 0.950 . S
C4155 C4146 1.390 . S
C4155 H4148 0.950 . S
C4155 C4152 1.387 . S
C4156 C4157 1.387 . S
C4156 H4160 0.950 . S
C4156 C4165 1.390 . S
C4157 C4156 1.387 . S
C4157 C4159 1.387 . S
H4158 C4165 0.950 . S
C4159 C4157 1.387 . S
C4159 C4161 1.390 . S
C4159 H4163 0.950 . S
H4160 C4156 0.950 . S
C4161 C4159 1.390 . S
C4161 C4162 1.387 . S
C4161 H4164 0.950 . S
C4162 C4161 1.387 . S
C4162 C4165 1.387 . S
H4163 C4159 0.950 . S
H4164 C4161 0.950 . S
C4165 C4156 1.390 . S
C4165 H4158 0.950 . S
C4165 C4162 1.387 . S
C4166 C4167 1.387 . S
C4166 H4170 0.950 . S
C4166 C4175 1.390 . S
C4167 C4166 1.387 . S
C4167 C4169 1.387 . S
H4168 C4175 0.950 . S
C4169 C4167 1.387 . S
C4169 C4171 1.390 . S
C4169 H4173 0.950 . S
H4170 C4166 0.950 . S
C4171 C4169 1.390 . S
C4171 C4172 1.387 . S
C4171 H4174 0.950 . S
C4172 C4171 1.387 . S
C4172 C4175 1.387 . S
H4173 C4169 0.950 . S
H4174 C4171 0.950 . S
C4175 C4166 1.390 . S
C4175 H4168 0.950 . S
C4175 C4172 1.387 . S
C4176 C4177 1.387 . S
C4176 H4180 0.950 . S
C4176 C4185 1.390 . S
C4177 C4176 1.387 . S
C4177 C4179 1.387 . S
H4178 C4185 0.950 . S
C4179 C4177 1.387 . S
C4179 C4181 1.390 . S
C4179 H4183 0.950 . S
H4180 C4176 0.950 . S
C4181 C4179 1.390 . S
C4181 C4182 1.387 . S
C4181 H4184 0.950 . S
C4182 C4181 1.387 . S
C4182 C4185 1.387 . S
H4183 C4179 0.950 . S
H4184 C4181 0.950 . S
C4185 C4176 1.390 . S
C4185 H4178 0.950 . S
C4185 C4182 1.387 . S
C4186 C4187 1.387 . S
C4186 H4190 0.950 . S
C4186 C4195 1.390 . S
C4187 C4186 1.387 . S
C4187 C4189 1.387 . S
H4188 C4195 0.950 . S
C4189 C4187 1.387 . S
C4189 C4191 1.390 . S
C4189 H4193 0.950 . S
H4190 C4186 0.950 . S
C4191 C4189 1.390 . S
C4191 C4192 1.387 . S
C4191 H4194 0.950 . S
C4192 C4191 1.387 . S
C4192 C4195 1.387 . S
H4193 C4189 0.950 . S
H4194 C4191 0.950 . S
C4195 C4186 1.390 . S
C4195 H4188 0.950 . S
C4195 C4192 1.387 . S
C4196 C4197 1.387 . S
C4196 H4200 0.950 . S
C4196 C4205 1.390 . S
C4197 C4196 1.387 . S
C4197 C4199 1.387 . S
H4198 C4205 0.950 . S
C4199 C4197 1.387 . S
C4199 C4201 1.390 . S
C4199 H4203 0.950 . S
H4200 C4196 0.950 . S
C4201 C4199 1.390 . S
C4201 C4202 1.387 . S
C4201 H4204 0.950 . S
C4202 C4201 1.387 . S
C4202 C4205 1.387 . S
H4203 C4199 0.950 . S
H4204 C4201 0.950 . S
C4205 C4196 1.390 . S
C4205 H4198 0.950 . S
C4205 C4202 1.387 . S
C4206 C4207 1.387 . S
C4206 H4210 0.950 . S
C4206 C4215 1.390 . S
C4207 C4206 1.387 . S
C4207 C4209 1.387 . S
H4208 C4215 0.950 . S
C4209 C4207 1.387 . S
C4209 C4211 1.390 . S
C4209 H4213 0.950 . S
H4210 C4206 0.950 . S
C4211 C4209 1.390 . S
C4211 C4212 1.387 . S
C4211 H4214 0.950 . S
C4212 C4211 1.387 . S
C4212 C4215 1.387 . S
H4213 C4209 0.950 . S
H4214 C4211 0.950 . S
C4215 C4206 1.390 . S
C4215 H4208 0.950 . S
C4215 C4212 1.387 . S
C4216 C4217 1.387 . S
C4216 H4220 0.950 . S
C4216 C4225 1.390 . S
C4217 C4216 1.387 . S
C4217 C4219 1.387 . S
H4218 C4225 0.950 . S
C4219 C4217 1.387 . S
C4219 C4221 1.390 . S
C4219 H4223 0.950 . S
H4220 C4216 0.950 . S
C4221 C4219 1.390 . S
C4221 C4222 1.387 . S
C4221 H4224 0.950 . S
C4222 C4221 1.387 . S
C4222 C4225 1.387 . S
H4223 C4219 0.950 . S
H4224 C4221 0.950 . S
C4225 C4216 1.390 . S
C4225 H4218 0.950 . S
C4225 C4222 1.387 . S
C4226 C4227 1.387 . S
C4226 H4230 0.950 . S
C4226 C4235 1.390 . S
C4227 C4226 1.387 . S
C4227 C4229 1.387 . S
H4228 C4235 0.950 . S
C4229 C4227 1.387 . S
C4229 C4231 1.390 . S
C4229 H4233 0.950 . S
H4230 C4226 0.950 . S
C4231 C4229 1.390 . S
C4231 C4232 1.387 . S
C4231 H4234 0.950 . S
C4232 C4231 1.387 . S
C4232 C4235 1.387 . S
H4233 C4229 0.950 . S
H4234 C4231 0.950 . S
C4235 C4226 1.390 . S
C4235 H4228 0.950 . S
C4235 C4232 1.387 . S
C4236 C4237 1.387 . S
C4236 H4240 0.950 . S
C4236 C4245 1.390 . S
C4237 C4236 1.387 . S
C4237 C4239 1.387 . S
H4238 C4245 0.950 . S
C4239 C4237 1.387 . S
C4239 C4241 1.390 . S
C4239 H4243 0.950 . S
H4240 C4236 0.950 . S
C4241 C4239 1.390 . S
C4241 C4242 1.387 . S
C4241 H4244 0.950 . S
C4242 C4241 1.387 . S
C4242 C4245 1.387 . S
H4243 C4239 0.950 . S
H4244 C4241 0.950 . S
C4245 C4236 1.390 . S
C4245 H4238 0.950 . S
C4245 C4242 1.387 . S
C4246 C4247 1.387 . S
C4246 H4250 0.950 . S
C4246 C4255 1.390 . S
C4247 C4246 1.387 . S
C4247 C4249 1.387 . S
H4248 C4255 0.950 . S
C4249 C4247 1.387 . S
C4249 C4251 1.390 . S
C4249 H4253 0.950 . S
H4250 C4246 0.950 . S
C4251 C4249 1.390 . S
C4251 C4252 1.387 . S
C4251 H4254 0.950 . S
C4252 C4251 1.387 . S
C4252 C4255 1.387 . S
H4253 C4249 0.950 . S
H4254 C4251 0.950 . S
C4255 C4246 1.390 . S
C4255 H4248 0.950 . S
C4255 C4252 1.387 . S
C4256 C4257 1.387 . S
C4256 H4260 0.950 . S
C4256 C4265 1.390 . S
C4257 C4256 1.387 . S
C4257 C4259 1.387 . S
H4258 C4265 0.950 . S
C4259 C4257 1.387 . S
C4259 C4261 1.390 . S
C4259 H4263 0.950 . S
H4260 C4256 0.950 . S
C4261 C4259 1.390 . S
C4261 C4262 1.387 . S
C4261 H4264 0.950 . S
C4262 C4261 1.387 . S
C4262 C4265 1.387 . S
H4263 C4259 0.950 . S
H4264 C4261 0.950 . S
C4265 C4256 1.390 . S
C4265 H4258 0.950 . S
C4265 C4262 1.387 . S
C4266 C4267 1.387 . S
C4266 H4270 0.950 . S
C4266 C4275 1.390 . S
C4267 C4266 1.387 . S
C4267 C4269 1.387 . S
H4268 C4275 0.950 . S
C4269 C4267 1.387 . S
C4269 C4271 1.390 . S
C4269 H4273 0.950 . S
H4270 C4266 0.950 . S
C4271 C4269 1.390 . S
C4271 C4272 1.387 . S
C4271 H4274 0.950 . S
C4272 C4271 1.387 . S
C4272 C4275 1.387 . S
H4273 C4269 0.950 . S
H4274 C4271 0.950 . S
C4275 C4266 1.390 . S
C4275 H4268 0.950 . S
C4275 C4272 1.387 . S
C4276 C4277 1.387 . S
C4276 H4280 0.950 . S
C4276 C4285 1.390 . S
C4277 C4276 1.387 . S
C4277 C4279 1.387 . S
H4278 C4285 0.950 . S
C4279 C4277 1.387 . S
C4279 C4281 1.390 . S
C4279 H4283 0.950 . S
H4280 C4276 0.950 . S
C4281 C4279 1.390 . S
C4281 C4282 1.387 . S
C4281 H4284 0.950 . S
C4282 C4281 1.387 . S
C4282 C4285 1.387 . S
H4283 C4279 0.950 . S
H4284 C4281 0.950 . S
C4285 C4276 1.390 . S
C4285 H4278 0.950 . S
C4285 C4282 1.387 . S
C4286 C4287 1.387 . S
C4286 H4290 0.950 . S
C4286 C4295 1.390 . S
C4287 C4286 1.387 . S
C4287 C4289 1.387 . S
H4288 C4295 0.950 . S
C4289 C4287 1.387 . S
C4289 C4291 1.390 . S
C4289 H4293 0.950 . S
H4290 C4286 0.950 . S
C4291 C4289 1.390 . S
C4291 C4292 1.387 . S
C4291 H4294 0.950 . S
C4292 C4291 1.387 . S
C4292 C4295 1.387 . S
H4293 C4289 0.950 . S
H4294 C4291 0.950 . S
C4295 C4286 1.390 . S
C4295 H4288 0.950 . S
C4295 C4292 1.387 . S
C4296 C4297 1.387 . S
C4296 H4300 0.950 . S
C4296 C4305 1.390 . S
C4297 C4296 1.387 . S
C4297 C4299 1.387 . S
H4298 C4305 0.950 . S
C4299 C4297 1.387 . S
C4299 C4301 1.390 . S
C4299 H4303 0.950 . S
H4300 C4296 0.950 . S
C4301 C4299 1.390 . S
C4301 C4302 1.387 . S
C4301 H4304 0.950 . S
C4302 C4301 1.387 . S
C4302 C4305 1.387 . S
H4303 C4299 0.950 . S
H4304 C4301 0.950 . S
C4305 C4296 1.390 . S
C4305 H4298 0.950 . S
C4305 C4302 1.387 . S
C4306 C4307 1.387 . S
C4306 H4310 0.950 . S
C4306 C4315 1.390 . S
C4307 C4306 1.387 . S
C4307 C4309 1.387 . S
H4308 C4315 0.950 . S
C4309 C4307 1.387 . S
C4309 C4311 1.390 . S
C4309 H4313 0.950 . S
H4310 C4306 0.950 . S
C4311 C4309 1.390 . S
C4311 C4312 1.387 . S
C4311 H4314 0.950 . S
C4312 C4311 1.387 . S
C4312 C4315 1.387 . S
H4313 C4309 0.950 . S
H4314 C4311 0.950 . S
C4315 C4306 1.390 . S
C4315 H4308 0.950 . S
C4315 C4312 1.387 . S
C4316 C4317 1.387 . S
C4316 H4320 0.950 . S
C4316 C4325 1.390 . S
C4317 C4316 1.387 . S
C4317 C4319 1.387 . S
H4318 C4325 0.950 . S
C4319 C4317 1.387 . S
C4319 C4321 1.390 . S
C4319 H4323 0.950 . S
H4320 C4316 0.950 . S
C4321 C4319 1.390 . S
C4321 C4322 1.387 . S
C4321 H4324 0.950 . S
C4322 C4321 1.387 . S
C4322 C4325 1.387 . S
H4323 C4319 0.950 . S
H4324 C4321 0.950 . S
C4325 C4316 1.390 . S
C4325 H4318 0.950 . S
C4325 C4322 1.387 . S
C4326 C4327 1.387 . S
C4326 H4330 0.950 . S
C4326 C4335 1.390 . S
C4327 C4326 1.387 . S
C4327 C4329 1.387 . S
H4328 C4335 0.950 . S
C4329 C4327 1.387 . S
C4329 C4331 1.390 . S
C4329 H4333 0.950 . S
H4330 C4326 0.950 . S
C4331 C4329 1.390 . S
C4331 C4332 1.387 . S
C4331 H4334 0.950 . S
C4332 C4331 1.387 . S
C4332 C4335 1.387 . S
H4333 C4329 0.950 . S
H4334 C4331 0.950 . S
C4335 C4326 1.390 . S
C4335 H4328 0.950 . S
C4335 C4332 1.387 . S
C4336 C4337 1.387 . S
C4336 H4340 0.950 . S
C4336 C4345 1.390 . S
C4337 C4336 1.387 . S
C4337 C4339 1.387 . S
H4338 C4345 0.950 . S
C4339 C4337 1.387 . S
C4339 C4341 1.390 . S
C4339 H4343 0.950 . S
H4340 C4336 0.950 . S
C4341 C4339 1.390 . S
C4341 C4342 1.387 . S
C4341 H4344 0.950 . S
C4342 C4341 1.387 . S
C4342 C4345 1.387 . S
H4343 C4339 0.950 . S
H4344 C4341 0.950 . S
C4345 C4336 1.390 . S
C4345 H4338 0.950 . S
C4345 C4342 1.387 . S
C4346 C4347 1.387 . S
C4346 H4350 0.950 . S
C4346 C4355 1.390 . S
C4347 C4346 1.387 . S
C4347 C4349 1.387 . S
H4348 C4355 0.950 . S
C4349 C4347 1.387 . S
C4349 C4351 1.390 . S
C4349 H4353 0.950 . S
H4350 C4346 0.950 . S
C4351 C4349 1.390 . S
C4351 C4352 1.387 . S
C4351 H4354 0.950 . S
C4352 C4351 1.387 . S
C4352 C4355 1.387 . S
H4353 C4349 0.950 . S
H4354 C4351 0.950 . S
C4355 C4346 1.390 . S
C4355 H4348 0.950 . S
C4355 C4352 1.387 . S
C4356 C4357 1.387 . S
C4356 H4360 0.950 . S
C4356 C4365 1.390 . S
C4357 C4356 1.387 . S
C4357 C4359 1.387 . S
H4358 C4365 0.950 . S
C4359 C4357 1.387 . S
C4359 C4361 1.390 . S
C4359 H4363 0.950 . S
H4360 C4356 0.950 . S
C4361 C4359 1.390 . S
C4361 C4362 1.387 . S
C4361 H4364 0.950 . S
C4362 C4361 1.387 . S
C4362 C4365 1.387 . S
H4363 C4359 0.950 . S
H4364 C4361 0.950 . S
C4365 C4356 1.390 . S
C4365 H4358 0.950 . S
C4365 C4362 1.387 . S
C4366 C4367 1.387 . S
C4366 H4370 0.950 . S
C4366 C4375 1.390 . S
C4367 C4366 1.387 . S
C4367 C4369 1.387 . S
H4368 C4375 0.950 . S
C4369 C4367 1.387 . S
C4369 C4371 1.390 . S
C4369 H4373 0.950 . S
H4370 C4366 0.950 . S
C4371 C4369 1.390 . S
C4371 C4372 1.387 . S
C4371 H4374 0.950 . S
C4372 C4371 1.387 . S
C4372 C4375 1.387 . S
H4373 C4369 0.950 . S
H4374 C4371 0.950 . S
C4375 C4366 1.390 . S
C4375 H4368 0.950 . S
C4375 C4372 1.387 . S
C4376 C4377 1.387 . S
C4376 H4380 0.950 . S
C4376 C4385 1.390 . S
C4377 C4376 1.387 . S
C4377 C4379 1.387 . S
H4378 C4385 0.950 . S
C4379 C4377 1.387 . S
C4379 C4381 1.390 . S
C4379 H4383 0.950 . S
H4380 C4376 0.950 . S
C4381 C4379 1.390 . S
C4381 C4382 1.387 . S
C4381 H4384 0.950 . S
C4382 C4381 1.387 . S
C4382 C4385 1.387 . S
H4383 C4379 0.950 . S
H4384 C4381 0.950 . S
C4385 C4376 1.390 . S
C4385 H4378 0.950 . S
C4385 C4382 1.387 . S
C4386 C4387 1.387 . S
C4386 H4390 0.950 . S
C4386 C4395 1.390 . S
C4387 C4386 1.387 . S
C4387 C4389 1.387 . S
H4388 C4395 0.950 . S
C4389 C4387 1.387 . S
C4389 C4391 1.390 . S
C4389 H4393 0.950 . S
H4390 C4386 0.950 . S
C4391 C4389 1.390 . S
C4391 C4392 1.387 . S
C4391 H4394 0.950 . S
C4392 C4391 1.387 . S
C4392 C4395 1.387 . S
H4393 C4389 0.950 . S
H4394 C4391 0.950 . S
C4395 C4386 1.390 . S
C4395 H4388 0.950 . S
C4395 C4392 1.387 . S
C4396 C4397 1.387 . S
C4396 H4400 0.950 . S
C4396 C4405 1.390 . S
C4397 C4396 1.387 . S
C4397 C4399 1.387 . S
H4398 C4405 0.950 . S
C4399 C4397 1.387 . S
C4399 C4401 1.390 . S
C4399 H4403 0.950 . S
H4400 C4396 0.950 . S
C4401 C4399 1.390 . S
C4401 C4402 1.387 . S
C4401 H4404 0.950 . S
C4402 C4401 1.387 . S
C4402 C4405 1.387 . S
H4403 C4399 0.950 . S
H4404 C4401 0.950 . S
C4405 C4396 1.390 . S
C4405 H4398 0.950 . S
C4405 C4402 1.387 . S
C4406 C4407 1.387 . S
C4406 H4410 0.950 . S
C4406 C4415 1.390 . S
C4407 C4406 1.387 . S
C4407 C4409 1.387 . S
H4408 C4415 0.950 . S
C4409 C4407 1.387 . S
C4409 C4411 1.390 . S
C4409 H4413 0.950 . S
H4410 C4406 0.950 . S
C4411 C4409 1.390 . S
C4411 C4412 1.387 . S
C4411 H4414 0.950 . S
C4412 C4411 1.387 . S
C4412 C4415 1.387 . S
H4413 C4409 0.950 . S
H4414 C4411 0.950 . S
C4415 C4406 1.390 . S
C4415 H4408 0.950 . S
C4415 C4412 1.387 . S
C4416 C4417 1.387 . S
C4416 H4420 0.950 . S
C4416 C4425 1.390 . S
C4417 C4416 1.387 . S
C4417 C4419 1.387 . S
H4418 C4425 0.950 . S
C4419 C4417 1.387 . S
C4419 C4421 1.390 . S
C4419 H4423 0.950 . S
H4420 C4416 0.950 . S
C4421 C4419 1.390 . S
C4421 C4422 1.387 . S
C4421 H4424 0.950 . S
C4422 C4421 1.387 . S
C4422 C4425 1.387 . S
H4423 C4419 0.950 . S
H4424 C4421 0.950 . S
C4425 C4416 1.390 . S
C4425 H4418 0.950 . S
C4425 C4422 1.387 . S
C4426 C4427 1.387 . S
C4426 H4430 0.950 . S
C4426 C4435 1.390 . S
C4427 C4426 1.387 . S
C4427 C4429 1.387 . S
H4428 C4435 0.950 . S
C4429 C4427 1.387 . S
C4429 C4431 1.390 . S
C4429 H4433 0.950 . S
H4430 C4426 0.950 . S
C4431 C4429 1.390 . S
C4431 C4432 1.387 . S
C4431 H4434 0.950 . S
C4432 C4431 1.387 . S
C4432 C4435 1.387 . S
H4433 C4429 0.950 . S
H4434 C4431 0.950 . S
C4435 C4426 1.390 . S
C4435 H4428 0.950 . S
C4435 C4432 1.387 . S
C4436 C4437 1.387 . S
C4436 H4440 0.950 . S
C4436 C4445 1.390 . S
C4437 C4436 1.387 . S
C4437 C4439 1.387 . S
H4438 C4445 0.950 . S
C4439 C4437 1.387 . S
C4439 C4441 1.390 . S
C4439 H4443 0.950 . S
H4440 C4436 0.950 . S
C4441 C4439 1.390 . S
C4441 C4442 1.387 . S
C4441 H4444 0.950 . S
C4442 C4441 1.387 . S
C4442 C4445 1.387 . S
H4443 C4439 0.950 . S
H4444 C4441 0.950 . S
C4445 C4436 1.390 . S
C4445 H4438 0.950 . S
C4445 C4442 1.387 . S
C4446 C4447 1.387 . S
C4446 H4450 0.950 . S
C4446 C4455 1.390 . S
C4447 C4446 1.387 . S
C4447 C4449 1.387 . S
H4448 C4455 0.950 . S
C4449 C4447 1.387 . S
C4449 C4451 1.390 . S
C4449 H4453 0.950 . S
H4450 C4446 0.950 . S
C4451 C4449 1.390 . S
C4451 C4452 1.387 . S
C4451 H4454 0.950 . S
C4452 C4451 1.387 . S
C4452 C4455 1.387 . S
H4453 C4449 0.950 . S
H4454 C4451 0.950 . S
C4455 C4446 1.390 . S
C4455 H4448 0.950 . S
C4455 C4452 1.387 . S
C4456 C4457 1.387 . S
C4456 H4460 0.950 . S
C4456 C4465 1.390 . S
C4457 C4456 1.387 . S
C4457 C4459 1.387 . S
H4458 C4465 0.950 . S
C4459 C4457 1.387 . S
C4459 C4461 1.390 . S
C4459 H4463 0.950 . S
H4460 C4456 0.950 . S
C4461 C4459 1.390 . S
C4461 C4462 1.387 . S
C4461 H4464 0.950 . S
C4462 C4461 1.387 . S
C4462 C4465 1.387 . S
H4463 C4459 0.950 . S
H4464 C4461 0.950 . S
C4465 C4456 1.390 . S
C4465 H4458 0.950 . S
C4465 C4462 1.387 . S
C4466 C4467 1.387 . S
C4466 H4470 0.950 . S
C4466 C4475 1.390 . S
C4467 C4466 1.387 . S
C4467 C4469 1.387 . S
H4468 C4475 0.950 . S
C4469 C4467 1.387 . S
C4469 C4471 1.390 . S
C4469 H4473 0.950 . S
H4470 C4466 0.950 . S
C4471 C4469 1.390 . S
C4471 C4472 1.387 . S
C4471 H4474 0.950 . S
C4472 C4471 1.387 . S
C4472 C4475 1.387 . S
H4473 C4469 0.950 . S
H4474 C4471 0.950 . S
C4475 C4466 1.390 . S
C4475 H4468 0.950 . S
C4475 C4472 1.387 . S
C4476 C4477 1.387 . S
C4476 H4480 0.950 . S
C4476 C4485 1.390 . S
C4477 C4476 1.387 . S
C4477 C4479 1.387 . S
H4478 C4485 0.950 . S
C4479 C4477 1.387 . S
C4479 C4481 1.390 . S
C4479 H4483 0.950 . S
H4480 C4476 0.950 . S
C4481 C4479 1.390 . S
C4481 C4482 1.387 . S
C4481 H4484 0.950 . S
C4482 C4481 1.387 . S
C4482 C4485 1.387 . S
H4483 C4479 0.950 . S
H4484 C4481 0.950 . S
C4485 C4476 1.390 . S
C4485 H4478 0.950 . S
C4485 C4482 1.387 . S
C4486 C4487 1.387 . S
C4486 H4490 0.950 . S
C4486 C4495 1.390 . S
C4487 C4486 1.387 . S
C4487 C4489 1.387 . S
H4488 C4495 0.950 . S
C4489 C4487 1.387 . S
C4489 C4491 1.390 . S
C4489 H4493 0.950 . S
H4490 C4486 0.950 . S
C4491 C4489 1.390 . S
C4491 C4492 1.387 . S
C4491 H4494 0.950 . S
C4492 C4491 1.387 . S
C4492 C4495 1.387 . S
H4493 C4489 0.950 . S
H4494 C4491 0.950 . S
C4495 C4486 1.390 . S
C4495 H4488 0.950 . S
C4495 C4492 1.387 . S
C4496 C4497 1.387 . S
C4496 H4500 0.950 . S
C4496 C4505 1.390 . S
C4497 C4496 1.387 . S
C4497 C4499 1.387 . S
H4498 C4505 0.950 . S
C4499 C4497 1.387 . S
C4499 C4501 1.390 . S
C4499 H4503 0.950 . S
H4500 C4496 0.950 . S
C4501 C4499 1.390 . S
C4501 C4502 1.387 . S
C4501 H4504 0.950 . S
C4502 C4501 1.387 . S
C4502 C4505 1.387 . S
H4503 C4499 0.950 . S
H4504 C4501 0.950 . S
C4505 C4496 1.390 . S
C4505 H4498 0.950 . S
C4505 C4502 1.387 . S
C4506 C4507 1.387 . S
C4506 H4510 0.950 . S
C4506 C4515 1.390 . S
C4507 C4506 1.387 . S
C4507 C4509 1.387 . S
H4508 C4515 0.950 . S
C4509 C4507 1.387 . S
C4509 C4511 1.390 . S
C4509 H4513 0.950 . S
H4510 C4506 0.950 . S
C4511 C4509 1.390 . S
C4511 C4512 1.387 . S
C4511 H4514 0.950 . S
C4512 C4511 1.387 . S
C4512 C4515 1.387 . S
H4513 C4509 0.950 . S
H4514 C4511 0.950 . S
C4515 C4506 1.390 . S
C4515 H4508 0.950 . S
C4515 C4512 1.387 . S
C4516 C4517 1.387 . S
C4516 H4520 0.950 . S
C4516 C4525 1.390 . S
C4517 C4516 1.387 . S
C4517 C4519 1.387 . S
H4518 C4525 0.950 . S
C4519 C4517 1.387 . S
C4519 C4521 1.390 . S
C4519 H4523 0.950 . S
H4520 C4516 0.950 . S
C4521 C4519 1.390 . S
C4521 C4522 1.387 . S
C4521 H4524 0.950 . S
C4522 C4521 1.387 . S
C4522 C4525 1.387 . S
H4523 C4519 0.950 . S
H4524 C4521 0.950 . S
C4525 C4516 1.390 . S
C4525 H4518 0.950 . S
C4525 C4522 1.387 . S
C4526 C4527 1.387 . S
C4526 H4530 0.950 . S
C4526 C4535 1.390 . S
C4527 C4526 1.387 . S
C4527 C4529 1.387 . S
H4528 C4535 0.950 . S
C4529 C4527 1.387 . S
C4529 C4531 1.390 . S
C4529 H4533 0.950 . S
H4530 C4526 0.950 . S
C4531 C4529 1.390 . S
C4531 C4532 1.387 . S
C4531 H4534 0.950 . S
C4532 C4531 1.387 . S
C4532 C4535 1.387 . S
H4533 C4529 0.950 . S
H4534 C4531 0.950 . S
C4535 C4526 1.390 . S
C4535 H4528 0.950 . S
C4535 C4532 1.387 . S
C4536 C4537 1.387 . S
C4536 H4540 0.950 . S
C4536 C4545 1.390 . S
C4537 C4536 1.387 . S
C4537 C4539 1.387 . S
H4538 C4545 0.950 . S
C4539 C4537 1.387 . S
C4539 C4541 1.390 . S
C4539 H4543 0.950 . S
H4540 C4536 0.950 . S
C4541 C4539 1.390 . S
C4541 C4542 1.387 . S
C4541 H4544 0.950 . S
C4542 C4541 1.387 . S
C4542 C4545 1.387 . S
H4543 C4539 0.950 . S
H4544 C4541 0.950 . S
C4545 C4536 1.390 . S
C4545 H4538 0.950 . S
C4545 C4542 1.387 . S
C4546 C4547 1.387 . S
C4546 H4550 0.950 . S
C4546 C4555 1.390 . S
C4547 C4546 1.387 . S
C4547 C4549 1.387 . S
H4548 C4555 0.950 . S
C4549 C4547 1.387 . S
C4549 C4551 1.390 . S
C4549 H4553 0.950 . S
H4550 C4546 0.950 . S
C4551 C4549 1.390 . S
C4551 C4552 1.387 . S
C4551 H4554 0.950 . S
C4552 C4551 1.387 . S
C4552 C4555 1.387 . S
H4553 C4549 0.950 . S
H4554 C4551 0.950 . S
C4555 C4546 1.390 . S
C4555 H4548 0.950 . S
C4555 C4552 1.387 . S
C4556 C4557 1.387 . S
C4556 H4560 0.950 . S
C4556 C4565 1.390 . S
C4557 C4556 1.387 . S
C4557 C4559 1.387 . S
H4558 C4565 0.950 . S
C4559 C4557 1.387 . S
C4559 C4561 1.390 . S
C4559 H4563 0.950 . S
H4560 C4556 0.950 . S
C4561 C4559 1.390 . S
C4561 C4562 1.387 . S
C4561 H4564 0.950 . S
C4562 C4561 1.387 . S
C4562 C4565 1.387 . S
H4563 C4559 0.950 . S
H4564 C4561 0.950 . S
C4565 C4556 1.390 . S
C4565 H4558 0.950 . S
C4565 C4562 1.387 . S
C4566 C4567 1.387 . S
C4566 H4570 0.950 . S
C4566 C4575 1.390 . S
C4567 C4566 1.387 . S
C4567 C4569 1.387 . S
H4568 C4575 0.950 . S
C4569 C4567 1.387 . S
C4569 C4571 1.390 . S
C4569 H4573 0.950 . S
H4570 C4566 0.950 . S
C4571 C4569 1.390 . S
C4571 C4572 1.387 . S
C4571 H4574 0.950 . S
C4572 C4571 1.387 . S
C4572 C4575 1.387 . S
H4573 C4569 0.950 . S
H4574 C4571 0.950 . S
C4575 C4566 1.390 . S
C4575 H4568 0.950 . S
C4575 C4572 1.387 . S
C4576 C4577 1.387 . S
C4576 H4580 0.950 . S
C4576 C4585 1.390 . S
C4577 C4576 1.387 . S
C4577 C4579 1.387 . S
H4578 C4585 0.950 . S
C4579 C4577 1.387 . S
C4579 C4581 1.390 . S
C4579 H4583 0.950 . S
H4580 C4576 0.950 . S
C4581 C4579 1.390 . S
C4581 C4582 1.387 . S
C4581 H4584 0.950 . S
C4582 C4581 1.387 . S
C4582 C4585 1.387 . S
H4583 C4579 0.950 . S
H4584 C4581 0.950 . S
C4585 C4576 1.390 . S
C4585 H4578 0.950 . S
C4585 C4582 1.387 . S
C4586 C4587 1.387 . S
C4586 H4590 0.950 . S
C4586 C4595 1.390 . S
C4587 C4586 1.387 . S
C4587 C4589 1.387 . S
H4588 C4595 0.950 . S
C4589 C4587 1.387 . S
C4589 C4591 1.390 . S
C4589 H4593 0.950 . S
H4590 C4586 0.950 . S
C4591 C4589 1.390 . S
C4591 C4592 1.387 . S
C4591 H4594 0.950 . S
C4592 C4591 1.387 . S
C4592 C4595 1.387 . S
H4593 C4589 0.950 . S
H4594 C4591 0.950 . S
C4595 C4586 1.390 . S
C4595 H4588 0.950 . S
C4595 C4592 1.387 . S
C4596 C4597 1.387 . S
C4596 H4600 0.950 . S
C4596 C4605 1.390 . S
C4597 C4596 1.387 . S
C4597 C4599 1.387 . S
H4598 C4605 0.950 . S
C4599 C4597 1.387 . S
C4599 C4601 1.390 . S
C4599 H4603 0.950 . S
H4600 C4596 0.950 . S
C4601 C4599 1.390 . S
C4601 C4602 1.387 . S
C4601 H4604 0.950 . S
C4602 C4601 1.387 . S
C4602 C4605 1.387 . S
H4603 C4599 0.950 . S
H4604 C4601 0.950 . S
C4605 C4596 1.390 . S
C4605 H4598 0.950 . S
C4605 C4602 1.387 . S
C4606 C4607 1.387 . S
C4606 H4610 0.950 . S
C4606 C4615 1.390 . S
C4607 C4606 1.387 . S
C4607 C4609 1.387 . S
H4608 C4615 0.950 . S
C4609 C4607 1.387 . S
C4609 C4611 1.390 . S
C4609 H4613 0.950 . S
H4610 C4606 0.950 . S
C4611 C4609 1.390 . S
C4611 C4612 1.387 . S
C4611 H4614 0.950 . S
C4612 C4611 1.387 . S
C4612 C4615 1.387 . S
H4613 C4609 0.950 . S
H4614 C4611 0.950 . S
C4615 C4606 1.390 . S
C4615 H4608 0.950 . S
C4615 C4612 1.387 . S
C4616 C4617 1.387 . S
C4616 H4620 0.950 . S
C4616 C4625 1.390 . S
C4617 C4616 1.387 . S
C4617 C4619 1.387 . S
H4618 C4625 0.950 . S
C4619 C4617 1.387 . S
C4619 C4621 1.390 . S
C4619 H4623 0.950 . S
H4620 C4616 0.950 . S
C4621 C4619 1.390 . S
C4621 C4622 1.387 . S
C4621 H4624 0.950 . S
C4622 C4621 1.387 . S
C4622 C4625 1.387 . S
H4623 C4619 0.950 . S
H4624 C4621 0.950 . S
C4625 C4616 1.390 . S
C4625 H4618 0.950 . S
C4625 C4622 1.387 . S
C4626 C4627 1.387 . S
C4626 H4630 0.950 . S
C4626 C4635 1.390 . S
C4627 C4626 1.387 . S
C4627 C4629 1.387 . S
H4628 C4635 0.950 . S
C4629 C4627 1.387 . S
C4629 C4631 1.390 . S
C4629 H4633 0.950 . S
H4630 C4626 0.950 . S
C4631 C4629 1.390 . S
C4631 C4632 1.387 . S
C4631 H4634 0.950 . S
C4632 C4631 1.387 . S
C4632 C4635 1.387 . S
H4633 C4629 0.950 . S
H4634 C4631 0.950 . S
C4635 C4626 1.390 . S
C4635 H4628 0.950 . S
C4635 C4632 1.387 . S
C4636 C4637 1.387 . S
C4636 H4640 0.950 . S
C4636 C4645 1.390 . S
C4637 C4636 1.387 . S
C4637 C4639 1.387 . S
H4638 C4645 0.950 . S
C4639 C4637 1.387 . S
C4639 C4641 1.390 . S
C4639 H4643 0.950 . S
H4640 C4636 0.950 . S
C4641 C4639 1.390 . S
C4641 C4642 1.387 . S
C4641 H4644 0.950 . S
C4642 C4641 1.387 . S
C4642 C4645 1.387 . S
H4643 C4639 0.950 . S
H4644 C4641 0.950 . S
C4645 C4636 1.390 . S
C4645 H4638 0.950 . S
C4645 C4642 1.387 . S
C4646 C4647 1.387 . S
C4646 H4650 0.950 . S
C4646 C4655 1.390 . S
C4647 C4646 1.387 . S
C4647 C4649 1.387 . S
H4648 C4655 0.950 . S
C4649 C4647 1.387 . S
C4649 C4651 1.390 . S
C4649 H4653 0.950 . S
H4650 C4646 0.950 . S
C4651 C4649 1.390 . S
C4651 C4652 1.387 . S
C4651 H4654 0.950 . S
C4652 C4651 1.387 . S
C4652 C4655 1.387 . S
H4653 C4649 0.950 . S
H4654 C4651 0.950 . S
C4655 C4646 1.390 . S
C4655 H4648 0.950 . S
C4655 C4652 1.387 . S
C4656 C4657 1.387 . S
C4656 H4660 0.950 . S
C4656 C4665 1.390 . S
C4657 C4656 1.387 . S
C4657 C4659 1.387 . S
H4658 C4665 0.950 . S
C4659 C4657 1.387 . S
C4659 C4661 1.390 . S
C4659 H4663 0.950 . S
H4660 C4656 0.950 . S
C4661 C4659 1.390 . S
C4661 C4662 1.387 . S
C4661 H4664 0.950 . S
C4662 C4661 1.387 . S
C4662 C4665 1.387 . S
H4663 C4659 0.950 . S
H4664 C4661 0.950 . S
C4665 C4656 1.390 . S
C4665 H4658 0.950 . S
C4665 C4662 1.387 . S
C4666 C4667 1.387 . S
C4666 H4670 0.950 . S
C4666 C4675 1.390 . S
C4667 C4666 1.387 . S
C4667 C4669 1.387 . S
H4668 C4675 0.950 . S
C4669 C4667 1.387 . S
C4669 C4671 1.390 . S
C4669 H4673 0.950 . S
H4670 C4666 0.950 . S
C4671 C4669 1.390 . S
C4671 C4672 1.387 . S
C4671 H4674 0.950 . S
C4672 C4671 1.387 . S
C4672 C4675 1.387 . S
H4673 C4669 0.950 . S
H4674 C4671 0.950 . S
C4675 C4666 1.390 . S
C4675 H4668 0.950 . S
C4675 C4672 1.387 . S
C4676 C4677 1.387 . S
C4676 H4680 0.950 . S
C4676 C4685 1.390 . S
C4677 C4676 1.387 . S
C4677 C4679 1.387 . S
H4678 C4685 0.950 . S
C4679 C4677 1.387 . S
C4679 C4681 1.390 . S
C4679 H4683 0.950 . S
H4680 C4676 0.950 . S
C4681 C4679 1.390 . S
C4681 C4682 1.387 . S
C4681 H4684 0.950 . S
C4682 C4681 1.387 . S
C4682 C4685 1.387 . S
H4683 C4679 0.950 . S
H4684 C4681 0.950 . S
C4685 C4676 1.390 . S
C4685 H4678 0.950 . S
C4685 C4682 1.387 . S
C4686 C4687 1.387 . S
C4686 H4690 0.950 . S
C4686 C4695 1.390 . S
C4687 C4686 1.387 . S
C4687 C4689 1.387 . S
H4688 C4695 0.950 . S
C4689 C4687 1.387 . S
C4689 C4691 1.390 . S
C4689 H4693 0.950 . S
H4690 C4686 0.950 . S
C4691 C4689 1.390 . S
C4691 C4692 1.387 . S
C4691 H4694 0.950 . S
C4692 C4691 1.387 . S
C4692 C4695 1.387 . S
H4693 C4689 0.950 . S
H4694 C4691 0.950 . S
C4695 C4686 1.390 . S
C4695 H4688 0.950 . S
C4695 C4692 1.387 . S
C4696 C4697 1.387 . S
C4696 H4700 0.950 . S
C4696 C4705 1.390 . S
C4697 C4696 1.387 . S
C4697 C4699 1.387 . S
H4698 C4705 0.950 . S
C4699 C4697 1.387 . S
C4699 C4701 1.390 . S
C4699 H4703 0.950 . S
H4700 C4696 0.950 . S
C4701 C4699 1.390 . S
C4701 C4702 1.387 . S
C4701 H4704 0.950 . S
C4702 C4701 1.387 . S
C4702 C4705 1.387 . S
H4703 C4699 0.950 . S
H4704 C4701 0.950 . S
C4705 C4696 1.390 . S
C4705 H4698 0.950 . S
C4705 C4702 1.387 . S
C4706 C4707 1.387 . S
C4706 H4710 0.950 . S
C4706 C4715 1.390 . S
C4707 C4706 1.387 . S
C4707 C4709 1.387 . S
H4708 C4715 0.950 . S
C4709 C4707 1.387 . S
C4709 C4711 1.390 . S
C4709 H4713 0.950 . S
H4710 C4706 0.950 . S
C4711 C4709 1.390 . S
C4711 C4712 1.387 . S
C4711 H4714 0.950 . S
C4712 C4711 1.387 . S
C4712 C4715 1.387 . S
H4713 C4709 0.950 . S
H4714 C4711 0.950 . S
C4715 C4706 1.390 . S
C4715 H4708 0.950 . S
C4715 C4712 1.387 . S
C4716 C4717 1.387 . S
C4716 H4720 0.950 . S
C4716 C4725 1.390 . S
C4717 C4716 1.387 . S
C4717 C4719 1.387 . S
H4718 C4725 0.950 . S
C4719 C4717 1.387 . S
C4719 C4721 1.390 . S
C4719 H4723 0.950 . S
H4720 C4716 0.950 . S
C4721 C4719 1.390 . S
C4721 C4722 1.387 . S
C4721 H4724 0.950 . S
C4722 C4721 1.387 . S
C4722 C4725 1.387 . S
H4723 C4719 0.950 . S
H4724 C4721 0.950 . S
C4725 C4716 1.390 . S
C4725 H4718 0.950 . S
C4725 C4722 1.387 . S
C4726 C4727 1.387 . S
C4726 H4730 0.950 . S
C4726 C4735 1.390 . S
C4727 C4726 1.387 . S
C4727 C4729 1.387 . S
H4728 C4735 0.950 . S
C4729 C4727 1.387 . S
C4729 C4731 1.390 . S
C4729 H4733 0.950 . S
H4730 C4726 0.950 . S
C4731 C4729 1.390 . S
C4731 C4732 1.387 . S
C4731 H4734 0.950 . S
C4732 C4731 1.387 . S
C4732 C4735 1.387 . S
H4733 C4729 0.950 . S
H4734 C4731 0.950 . S
C4735 C4726 1.390 . S
C4735 H4728 0.950 . S
C4735 C4732 1.387 . S
C4736 C4737 1.387 . S
C4736 H4740 0.950 . S
C4736 C4745 1.390 . S
C4737 C4736 1.387 . S
C4737 C4739 1.387 . S
H4738 C4745 0.950 . S
C4739 C4737 1.387 . S
C4739 C4741 1.390 . S
C4739 H4743 0.950 . S
H4740 C4736 0.950 . S
C4741 C4739 1.390 . S
C4741 C4742 1.387 . S
C4741 H4744 0.950 . S
C4742 C4741 1.387 . S
C4742 C4745 1.387 . S
H4743 C4739 0.950 . S
H4744 C4741 0.950 . S
C4745 C4736 1.390 . S
C4745 H4738 0.950 . S
C4745 C4742 1.387 . S
C4746 C4747 1.387 . S
C4746 H4750 0.950 . S
C4746 C4755 1.390 . S
C4747 C4746 1.387 . S
C4747 C4749 1.387 . S
H4748 C4755 0.950 . S
C4749 C4747 1.387 . S
C4749 C4751 1.390 . S
C4749 H4753 0.950 . S
H4750 C4746 0.950 . S
C4751 C4749 1.390 . S
C4751 C4752 1.387 . S
C4751 H4754 0.950 . S
C4752 C4751 1.387 . S
C4752 C4755 1.387 . S
H4753 C4749 0.950 . S
H4754 C4751 0.950 . S
C4755 C4746 1.390 . S
C4755 H4748 0.950 . S
C4755 C4752 1.387 . S
C4756 C4757 1.387 . S
C4756 H4760 0.950 . S
C4756 C4765 1.390 . S
C4757 C4756 1.387 . S
C4757 C4759 1.387 . S
H4758 C4765 0.950 . S
C4759 C4757 1.387 . S
C4759 C4761 1.390 . S
C4759 H4763 0.950 . S
H4760 C4756 0.950 . S
C4761 C4759 1.390 . S
C4761 C4762 1.387 . S
C4761 H4764 0.950 . S
C4762 C4761 1.387 . S
C4762 C4765 1.387 . S
H4763 C4759 0.950 . S
H4764 C4761 0.950 . S
C4765 C4756 1.390 . S
C4765 H4758 0.950 . S
C4765 C4762 1.387 . S
C4766 C4767 1.387 . S
C4766 H4770 0.950 . S
C4766 C4775 1.390 . S
C4767 C4766 1.387 . S
C4767 C4769 1.387 . S
H4768 C4775 0.950 . S
C4769 C4767 1.387 . S
C4769 C4771 1.390 . S
C4769 H4773 0.950 . S
H4770 C4766 0.950 . S
C4771 C4769 1.390 . S
C4771 C4772 1.387 . S
C4771 H4774 0.950 . S
C4772 C4771 1.387 . S
C4772 C4775 1.387 . S
H4773 C4769 0.950 . S
H4774 C4771 0.950 . S
C4775 C4766 1.390 . S
C4775 H4768 0.950 . S
C4775 C4772 1.387 . S
C4776 C4777 1.387 . S
C4776 H4780 0.950 . S
C4776 C4785 1.390 . S
C4777 C4776 1.387 . S
C4777 C4779 1.387 . S
H4778 C4785 0.950 . S
C4779 C4777 1.387 . S
C4779 C4781 1.390 . S
C4779 H4783 0.950 . S
H4780 C4776 0.950 . S
C4781 C4779 1.390 . S
C4781 C4782 1.387 . S
C4781 H4784 0.950 . S
C4782 C4781 1.387 . S
C4782 C4785 1.387 . S
H4783 C4779 0.950 . S
H4784 C4781 0.950 . S
C4785 C4776 1.390 . S
C4785 H4778 0.950 . S
C4785 C4782 1.387 . S
C4786 C4787 1.387 . S
C4786 H4790 0.950 . S
C4786 C4795 1.390 . S
C4787 C4786 1.387 . S
C4787 C4789 1.387 . S
H4788 C4795 0.950 . S
C4789 C4787 1.387 . S
C4789 C4791 1.390 . S
C4789 H4793 0.950 . S
H4790 C4786 0.950 . S
C4791 C4789 1.390 . S
C4791 C4792 1.387 . S
C4791 H4794 0.950 . S
C4792 C4791 1.387 . S
C4792 C4795 1.387 . S
H4793 C4789 0.950 . S
H4794 C4791 0.950 . S
C4795 C4786 1.390 . S
C4795 H4788 0.950 . S
C4795 C4792 1.387 . S
C4796 C4797 1.387 . S
C4796 H4800 0.950 . S
C4796 C4805 1.390 . S
C4797 C4796 1.387 . S
C4797 C4799 1.387 . S
H4798 C4805 0.950 . S
C4799 C4797 1.387 . S
C4799 C4801 1.390 . S
C4799 H4803 0.950 . S
H4800 C4796 0.950 . S
C4801 C4799 1.390 . S
C4801 C4802 1.387 . S
C4801 H4804 0.950 . S
C4802 C4801 1.387 . S
C4802 C4805 1.387 . S
H4803 C4799 0.950 . S
H4804 C4801 0.950 . S
C4805 C4796 1.390 . S
C4805 H4798 0.950 . S
C4805 C4802 1.387 . S
C4806 C4807 1.387 . S
C4806 H4810 0.950 . S
C4806 C4815 1.390 . S
C4807 C4806 1.387 . S
C4807 C4809 1.387 . S
H4808 C4815 0.950 . S
C4809 C4807 1.387 . S
C4809 C4811 1.390 . S
C4809 H4813 0.950 . S
H4810 C4806 0.950 . S
C4811 C4809 1.390 . S
C4811 C4812 1.387 . S
C4811 H4814 0.950 . S
C4812 C4811 1.387 . S
C4812 C4815 1.387 . S
H4813 C4809 0.950 . S
H4814 C4811 0.950 . S
C4815 C4806 1.390 . S
C4815 H4808 0.950 . S
C4815 C4812 1.387 . S
C4816 C4817 1.387 . S
C4816 H4820 0.950 . S
C4816 C4825 1.390 . S
C4817 C4816 1.387 . S
C4817 C4819 1.387 . S
H4818 C4825 0.950 . S
C4819 C4817 1.387 . S
C4819 C4821 1.390 . S
C4819 H4823 0.950 . S
H4820 C4816 0.950 . S
C4821 C4819 1.390 . S
C4821 C4822 1.387 . S
C4821 H4824 0.950 . S
C4822 C4821 1.387 . S
C4822 C4825 1.387 . S
H4823 C4819 0.950 . S
H4824 C4821 0.950 . S
C4825 C4816 1.390 . S
C4825 H4818 0.950 . S
C4825 C4822 1.387 . S
C4826 C4827 1.387 . S
C4826 H4830 0.950 . S
C4826 C4835 1.390 . S
C4827 C4826 1.387 . S
C4827 C4829 1.387 . S
H4828 C4835 0.950 . S
C4829 C4827 1.387 . S
C4829 C4831 1.390 . S
C4829 H4833 0.950 . S
H4830 C4826 0.950 . S
C4831 C4829 1.390 . S
C4831 C4832 1.387 . S
C4831 H4834 0.950 . S
C4832 C4831 1.387 . S
C4832 C4835 1.387 . S
H4833 C4829 0.950 . S
H4834 C4831 0.950 . S
C4835 C4826 1.390 . S
C4835 H4828 0.950 . S
C4835 C4832 1.387 . S
C4836 C4837 1.387 . S
C4836 H4840 0.950 . S
C4836 C4845 1.390 . S
C4837 C4836 1.387 . S
C4837 C4839 1.387 . S
H4838 C4845 0.950 . S
C4839 C4837 1.387 . S
C4839 C4841 1.390 . S
C4839 H4843 0.950 . S
H4840 C4836 0.950 . S
C4841 C4839 1.390 . S
C4841 C4842 1.387 . S
C4841 H4844 0.950 . S
C4842 C4841 1.387 . S
C4842 C4845 1.387 . S
H4843 C4839 0.950 . S
H4844 C4841 0.950 . S
C4845 C4836 1.390 . S
C4845 H4838 0.950 . S
C4845 C4842 1.387 . S
C4846 C4847 1.387 . S
C4846 H4850 0.950 . S
C4846 C4855 1.390 . S
C4847 C4846 1.387 . S
C4847 C4849 1.387 . S
H4848 C4855 0.950 . S
C4849 C4847 1.387 . S
C4849 C4851 1.390 . S
C4849 H4853 0.950 . S
H4850 C4846 0.950 . S
C4851 C4849 1.390 . S
C4851 C4852 1.387 . S
C4851 H4854 0.950 . S
C4852 C4851 1.387 . S
C4852 C4855 1.387 . S
H4853 C4849 0.950 . S
H4854 C4851 0.950 . S
C4855 C4846 1.390 . S
C4855 H4848 0.950 . S
C4855 C4852 1.387 . S
C4856 C4857 1.387 . S
C4856 H4860 0.950 . S
C4856 C4865 1.390 . S
C4857 C4856 1.387 . S
C4857 C4859 1.387 . S
H4858 C4865 0.950 . S
C4859 C4857 1.387 . S
C4859 C4861 1.390 . S
C4859 H4863 0.950 . S
H4860 C4856 0.950 . S
C4861 C4859 1.390 . S
C4861 C4862 1.387 . S
C4861 H4864 0.950 . S
C4862 C4861 1.387 . S
C4862 C4865 1.387 . S
H4863 C4859 0.950 . S
H4864 C4861 0.950 . S
C4865 C4856 1.390 . S
C4865 H4858 0.950 . S
C4865 C4862 1.387 . S
C4866 C4867 1.387 . S
C4866 H4870 0.950 . S
C4866 C4875 1.390 . S
C4867 C4866 1.387 . S
C4867 C4869 1.387 . S
H4868 C4875 0.950 . S
C4869 C4867 1.387 . S
C4869 C4871 1.390 . S
C4869 H4873 0.950 . S
H4870 C4866 0.950 . S
C4871 C4869 1.390 . S
C4871 C4872 1.387 . S
C4871 H4874 0.950 . S
C4872 C4871 1.387 . S
C4872 C4875 1.387 . S
H4873 C4869 0.950 . S
H4874 C4871 0.950 . S
C4875 C4866 1.390 . S
C4875 H4868 0.950 . S
C4875 C4872 1.387 . S
C4876 C4877 1.387 . S
C4876 H4880 0.950 . S
C4876 C4885 1.390 . S
C4877 C4876 1.387 . S
C4877 C4879 1.387 . S
H4878 C4885 0.950 . S
C4879 C4877 1.387 . S
C4879 C4881 1.390 . S
C4879 H4883 0.950 . S
H4880 C4876 0.950 . S
C4881 C4879 1.390 . S
C4881 C4882 1.387 . S
C4881 H4884 0.950 . S
C4882 C4881 1.387 . S
C4882 C4885 1.387 . S
H4883 C4879 0.950 . S
H4884 C4881 0.950 . S
C4885 C4876 1.390 . S
C4885 H4878 0.950 . S
C4885 C4882 1.387 . S
C4886 C4887 1.387 . S
C4886 H4890 0.950 . S
C4886 C4895 1.390 . S
C4887 C4886 1.387 . S
C4887 C4889 1.387 . S
H4888 C4895 0.950 . S
C4889 C4887 1.387 . S
C4889 C4891 1.390 . S
C4889 H4893 0.950 . S
H4890 C4886 0.950 . S
C4891 C4889 1.390 . S
C4891 C4892 1.387 . S
C4891 H4894 0.950 . S
C4892 C4891 1.387 . S
C4892 C4895 1.387 . S
H4893 C4889 0.950 . S
H4894 C4891 0.950 . S
C4895 C4886 1.390 . S
C4895 H4888 0.950 . S
C4895 C4892 1.387 . S
C2017 C1590 1.037 . S
C2022 C15 1.067 . S
C2027 C522 1.035 . S
C2032 C36 1.068 . S
C2037 C57 1.068 . S
C2042 C1551 1.033 . S
C2047 C78 1.068 . S
C2052 C564 1.035 . S
C2057 C99 1.067 . S
C2062 C1635 1.037 . S
C2067 C645 1.035 . S
C2072 C120 1.068 . S
C2077 C141 1.068 . S
C2082 C1674 1.033 . S
C2087 C162 1.067 . S
C2092 C606 1.036 . S
C2097 C183 1.067 . S
C2102 C1908 1.036 . S
C2107 C921 1.037 . S
C2112 C204 1.068 . S
C2117 C942 1.037 . S
C2122 C225 1.068 . S
C2127 C879 1.036 . S
C2132 C246 1.067 . S
C2137 C267 1.068 . S
C2142 C1992 1.036 . S
C2147 C288 1.068 . S
C2152 C1866 1.034 . S
C2157 C2013 1.037 . S
C2162 C309 1.068 . S
C2167 C330 1.068 . S
C2172 C1971 1.033 . S
C2177 C351 1.068 . S
C2182 C1719 1.035 . S
C2187 C837 1.037 . S
C2192 C372 1.067 . S
C2197 C1779 1.033 . S
C2202 C393 1.068 . S
C2207 C414 1.068 . S
C2212 C795 1.034 . S
C2217 C435 1.068 . S
C2222 C816 1.034 . S
C2227 C456 1.068 . S
C2232 C1761 1.033 . S
C2237 C477 1.068 . S
C2242 C1698 1.036 . S
C2247 C1740 1.037 . S
C2252 C498 1.067 . S
C2257 C519 1.068 . S
C2262 C1089 1.033 . S
C2267 C540 1.068 . S
C2272 C18 1.035 . S
C2277 C561 1.068 . S
C2282 C1047 1.034 . S
C2287 C60 1.036 . S
C2292 C585 1.068 . S
C2297 C1131 1.036 . S
C2302 C603 1.067 . S
C2307 C624 1.068 . S
C2312 C144 1.034 . S
C2317 C1173 1.036 . S
C2322 C648 1.067 . S
C2327 C669 1.068 . S
C2332 C102 1.035 . S
C2337 C687 1.068 . S
C2342 C1404 1.033 . S
C2347 C708 1.067 . S
C2352 C417 1.036 . S
C2357 C729 1.067 . S
C2362 C438 1.035 . S
C2367 C375 1.037 . S
C2372 C750 1.067 . S
C2377 C1488 1.033 . S
C2382 C774 1.068 . S
C2387 C792 1.067 . S
C2392 C1362 1.037 . S
C2397 C813 1.067 . S
C2402 C1509 1.037 . S
C2407 C1467 1.033 . S
C2412 C834 1.068 . S
C2417 C855 1.068 . S
C2422 C1215 1.034 . S
C2427 C876 1.067 . S
C2432 C333 1.035 . S
C2437 C1278 1.035 . S
C2442 C897 1.068 . S
C2447 C918 1.068 . S
C2452 C291 1.034 . S
C2457 C939 1.068 . S
C2462 C312 1.032 . S
C2467 C1257 1.035 . S
C2472 C960 1.068 . S
C2477 C1194 1.036 . S
C2482 C981 1.068 . S
C2487 C1236 1.035 . S
C2492 C1002 1.068 . S
C2497 C1023 1.068 . S
C2502 C582 1.034 . S
C2507 C1530 1.036 . S
C2512 C1044 1.068 . S
C2517 C543 1.036 . S
C2522 C1065 1.067 . S
C2527 C1572 1.036 . S
C2532 C1086 1.067 . S
C2537 C1107 1.067 . S
C2542 C627 1.037 . S
C2547 C1128 1.068 . S
C2552 C1653 1.033 . S
C2557 C666 1.034 . S
C2562 C1149 1.068 . S
C2567 C1614 1.036 . S
C2572 C1170 1.067 . S
C2577 C900 1.033 . S
C2582 C1191 1.068 . S
C2587 C1212 1.068 . S
C2592 C1929 1.035 . S
C2597 C1233 1.068 . S
C2602 C1950 1.036 . S
C2607 C1887 1.036 . S
C2612 C1254 1.067 . S
C2617 C984 1.033 . S
C2622 C1275 1.068 . S
C2627 C858 1.034 . S
C2632 C1296 1.068 . S
C2637 C1005 1.033 . S
C2642 C1317 1.068 . S
C2647 C963 1.033 . S
C2652 C1338 1.068 . S
C2657 C711 1.035 . S
C2662 C1359 1.068 . S
C2667 C1845 1.034 . S
C2672 C1380 1.068 . S
C2677 C1401 1.067 . S
C2682 C771 1.037 . S
C2687 C1803 1.036 . S
C2692 C1422 1.068 . S
C2697 C1824 1.035 . S
C2702 C1443 1.068 . S
C2707 C1464 1.068 . S
C2712 C753 1.033 . S
C2717 C1485 1.068 . S
C2722 C690 1.033 . S
C2727 C1506 1.068 . S
C2732 C732 1.035 . S
C2737 C1527 1.068 . S
C2742 C81 1.033 . S
C2747 C1026 1.035 . S
C2752 C1548 1.068 . S
C2757 C1569 1.068 . S
C2762 C39 1.033 . S
C2767 C1593 1.068 . S
C2772 C1068 1.034 . S
C2777 C1611 1.067 . S
C2782 C123 1.036 . S
C2787 C1152 1.032 . S
C2792 C1632 1.068 . S
C2797 C165 1.035 . S
C2802 C1656 1.068 . S
C2807 C1677 1.068 . S
C2812 C1110 1.035 . S
C2817 C396 1.036 . S
C2822 C1695 1.068 . S
C2827 C1425 1.033 . S
C2832 C1716 1.068 . S
C2837 C1737 1.068 . S
C2842 C1446 1.036 . S
C2847 C1758 1.068 . S
C2852 C1383 1.034 . S
C2857 C1782 1.068 . S
C2862 C480 1.033 . S
C2867 C1800 1.068 . S
C2872 C354 1.033 . S
C2877 C1821 1.068 . S
C2882 C501 1.033 . S
C2887 C459 1.035 . S
C2892 C1842 1.068 . S
C2897 C207 1.033 . S
C2902 C1863 1.068 . S
C2907 C1884 1.068 . S
C2912 C1341 1.034 . S
C2917 C1905 1.068 . S
C2922 C270 1.033 . S
C2927 C1926 1.068 . S
C2932 C1299 1.035 . S
C2937 C1320 1.037 . S
C2942 C1947 1.067 . S
C2947 C249 1.033 . S
C2952 C1968 1.068 . S
C2957 C186 1.033 . S
C2962 C1989 1.068 . S
C2967 C2010 1.068 . S
C2972 C228 1.036 . S
C2977 C16 1.534 1_655 S
C2982 C436 1.531 . S
C2987 C1381 1.534 . S
C2992 C37 1.533 . S
C2997 C58 1.534 . S
C3002 C1402 1.532 . S
C3007 C79 1.530 . S
C3012 C1423 1.532 1_554 S
C3017 C100 1.534 1_655 S
C3022 C1507 1.531 . S
C3027 C121 1.530 . S
C3032 C457 1.532 . S
C3037 C1486 1.532 . S
C3042 C142 1.534 . S
C3047 C352 1.531 1_556 S
C3052 C163 1.531 . S
C3057 C184 1.534 1_565 S
C3062 C331 1.530 . S
C3067 C268 1.532 1_545 S
C3072 C205 1.530 . S
C3077 C226 1.532 1_545 S
C3082 C289 1.534 . S
C3087 C247 1.531 . S
C3092 C310 1.534 1_565 S
C3097 C373 1.533 1_554 S
C3102 C1045 1.534 . S
C3107 C394 1.534 . S
C3112 C1066 1.530 1_455 S
C3117 C415 1.531 . S
C3122 C1087 1.531 . S
C3127 C478 1.532 . S
C3132 C1150 1.534 1_455 S
C3137 C1108 1.531 . S
C3142 C499 1.531 . S
C3147 C520 1.534 1_455 S
C3152 C940 1.532 . S
C3157 C541 1.530 . S
C3162 C1885 1.531 . S
C3167 C1906 1.532 . S
C3172 C562 1.534 . S
C3177 C1927 1.534 1_556 S
C3182 C580 1.532 . S
C3187 C604 1.534 1_455 S
C3192 C2011 1.531 . S
C3197 C625 1.534 . S
C3202 C961 1.530 . S
C3207 C1990 1.531 . S
C3212 C643 1.530 . S
C3217 C664 1.531 . S
C3222 C856 1.530 1_554 S
C3227 C835 1.533 . S
C3232 C688 1.530 1_545 S
C3237 C769 1.534 1_565 S
C3242 C709 1.531 . S
C3247 C793 1.534 . S
C3252 C730 1.531 1_565 S
C3257 C751 1.534 . S
C3262 C814 1.531 1_545 S
C3267 C877 1.530 1_556 S
C3272 C1549 1.531 . S
C3277 C1570 1.531 1_655 S
C3282 C898 1.534 . S
C3287 C1588 1.534 . S
C3292 C919 1.534 . S
C3297 C982 1.532 . S
C3302 C1651 1.530 1_655 S
C3307 C1612 1.531 . S
C3312 C1003 1.534 . S
C3317 C1444 1.534 . S
C3322 C1024 1.531 . S
C3327 C1465 1.534 1_556 S
C3332 C1129 1.531 . S
C3337 C1360 1.532 . S
C3342 C1171 1.534 . S
C3347 C1192 1.531 . S
C3352 C1339 1.534 . S
C3357 C1213 1.530 . S
C3362 C1276 1.534 . S
C3367 C1297 1.534 . S
C3372 C1234 1.531 . S
C3377 C1318 1.533 . S
C3382 C1255 1.534 . S
C3387 C1528 1.534 . S
C3392 C1948 1.530 . S
C3397 C1969 1.534 1_554 S
C3402 C1633 1.530 . S
C3407 C1672 1.530 . S
C3412 C1864 1.532 . S
C3417 C1696 1.534 . S
C3422 C1843 1.531 . S
C3427 C1777 1.531 . S
C3432 C1717 1.534 . S
C3437 C1801 1.534 . S
C3442 C1738 1.532 . S
C3447 C1759 1.534 . S
C3452 C1822 1.531 . S
C3457 C13 1.149 . S
C3462 C917 1.207 . S
C3467 C938 1.203 . S
C3472 C34 1.146 . S
C3477 C875 1.208 . S
C3482 C55 1.146 . S
C3487 C1904 1.203 . S
C3492 C76 1.146 . S
C3497 C97 1.148 . S
C3502 C1967 1.205 . S
C3507 C1988 1.204 . S
C3512 C118 1.148 . S
C3517 C139 1.145 . S
C3522 C1862 1.202 . S
C3527 C2009 1.208 . S
C3532 C160 1.145 . S
C3537 C560 1.204 . S
C3542 C181 1.147 . S
C3547 C1592 1.209 . S
C3552 C202 1.148 . S
C3557 C223 1.144 . S
C3562 C518 1.207 . S
C3567 C1547 1.203 . S
C3572 C244 1.146 . S
C3577 C265 1.144 . S
C3582 C647 1.207 . S
C3587 C286 1.148 . S
C3592 C1676 1.209 . S
C3597 C307 1.145 . S
C3602 C602 1.208 . S
C3607 C328 1.148 . S
C3612 C1631 1.205 . S
C3617 C349 1.146 . S
C3622 C1781 1.203 . S
C3627 C686 1.203 . S
C3632 C370 1.146 . S
C3637 C1715 1.207 . S
C3642 C391 1.145 . S
C3647 C412 1.146 . S
C3652 C728 1.203 . S
C3657 C433 1.147 . S
C3662 C749 1.203 . S
C3667 C454 1.146 . S
C3672 C1820 1.203 . S
C3677 C475 1.145 . S
C3682 C1841 1.207 . S
C3687 C496 1.148 . S
C3692 C1799 1.204 . S
C3697 C413 1.202 . S
C3702 C517 1.143 . S
C3707 C538 1.147 . S
C3712 C434 1.204 . S
C3717 C371 1.202 . S
C3722 C559 1.144 . S
C3727 C583 1.146 . S
C3732 C1400 1.203 . S
C3737 C601 1.146 . S
C3742 C1463 1.203 . S
C3747 C1484 1.208 . S
C3752 C622 1.146 . S
C3757 C1358 1.207 . S
C3762 C646 1.144 . S
C3767 C667 1.145 . S
C3772 C1505 1.207 . S
C3777 C56 1.203 . S
C3782 C685 1.147 . S
C3787 C706 1.142 . S
C3792 C1085 1.202 . S
C3797 C727 1.146 . S
C3802 C14 1.208 . S
C3807 C1043 1.202 . S
C3812 C748 1.143 . S
C3817 C140 1.207 . S
C3822 C772 1.145 . S
C3827 C790 1.145 . S
C3832 C1169 1.202 . S
C3837 C811 1.146 . S
C3842 C98 1.203 . S
C3847 C1127 1.209 . S
C3852 C832 1.148 . S
C3857 C853 1.146 . S
C3862 C1274 1.203 . S
C3867 C874 1.146 . S
C3872 C182 1.208 . S
C3877 C1211 1.204 . S
C3882 C895 1.147 . S
C3887 C916 1.146 . S
C3892 C224 1.203 . S
C3897 C245 1.207 . S
C3902 C937 1.145 . S
C3907 C958 1.149 . S
C3912 C1316 1.209 . S
C3917 C1337 1.207 . S
C3922 C979 1.145 . S
C3927 C1295 1.204 . S
C3932 C1000 1.147 . S
C3937 C1925 1.204 . S
C3942 C1021 1.148 . S
C3947 C1946 1.204 . S
C3952 C1042 1.148 . S
C3957 C1063 1.143 . S
C3962 C1883 1.202 . S
C3967 C1084 1.146 . S
C3972 C896 1.208 . S
C3977 C1105 1.147 . S
C3982 C959 1.203 . S
C3987 C1126 1.146 . S
C3992 C980 1.208 . S
C3997 C854 1.204 . S
C4002 C1147 1.147 . S
C4007 C1001 1.209 . S
C4012 C1168 1.148 . S
C4017 C1189 1.149 . S
C4022 C1568 1.208 . S
C4027 C1210 1.149 . S
C4032 C584 1.209 . S
C4037 C1231 1.145 . S
C4042 C1526 1.207 . S
C4047 C1252 1.144 . S
C4052 C539 1.202 . S
C4057 C1273 1.145 . S
C4062 C1655 1.207 . S
C4067 C1294 1.145 . S
C4072 C668 1.202 . S
C4077 C1315 1.147 . S
C4082 C1610 1.204 . S
C4087 C1336 1.146 . S
C4092 C623 1.203 . S
C4097 C773 1.203 . S
C4102 C1357 1.146 . S
C4107 C1694 1.207 . S
C4112 C1378 1.145 . S
C4117 C707 1.207 . S
C4122 C1399 1.144 . S
C4127 C1736 1.208 . S
C4132 C1420 1.145 . S
C4137 C1441 1.147 . S
C4142 C1757 1.203 . S
C4147 C1462 1.146 . S
C4152 C812 1.203 . S
C4157 C1483 1.147 . S
C4162 C833 1.203 . S
C4167 C1504 1.145 . S
C4172 C791 1.208 . S
C4177 C1421 1.204 . S
C4182 C1525 1.148 . S
C4187 C1442 1.203 . S
C4192 C1546 1.146 . S
C4197 C1567 1.149 . S
C4202 C1379 1.209 . S
C4207 C1591 1.146 . S
C4212 C392 1.203 . S
C4217 C455 1.204 . S
C4222 C1609 1.147 . S
C4227 C1630 1.146 . S
C4232 C476 1.208 . S
C4237 C350 1.206 . S
C4242 C1654 1.144 . S
C4247 C497 1.208 . S
C4252 C1675 1.146 . S
C4257 C1693 1.147 . S
C4262 C1064 1.203 . S
C4267 C1714 1.144 . S
C4272 C77 1.207 . S
C4277 C1735 1.145 . S
C4282 C1022 1.207 . S
C4287 C1756 1.145 . S
C4292 C35 1.202 . S
C4297 C1148 1.203 . S
C4302 C1780 1.147 . S
C4307 C161 1.203 . S
C4312 C1798 1.142 . S
C4317 C1106 1.207 . S
C4322 C1819 1.145 . S
C4327 C1840 1.143 . S
C4332 C119 1.205 . S
C4337 C266 1.203 . S
C4342 C1861 1.146 . S
C4347 C1882 1.145 . S
C4352 C1190 1.208 . S
C4357 C1903 1.147 . S
C4362 C203 1.203 . S
C4367 C1232 1.208 . S
C4372 C1924 1.146 . S
C4377 C1945 1.145 . S
C4382 C1253 1.207 . S
C4387 C1966 1.146 . S
C4392 C308 1.208 . S
C4397 C329 1.207 . S
C4402 C1987 1.145 . S
C4407 C2008 1.145 . S
C4412 C287 1.207 . S
C4417 C17 1.343 . S
C4422 C206 1.343 . S
C4427 C227 1.338 . S
C4432 C38 1.338 . S
C4437 C59 1.340 . S
C4442 C248 1.339 . S
C4447 C185 1.341 . S
C4452 C80 1.342 . S
C4457 C332 1.338 . S
C4462 C101 1.338 . S
C4467 C269 1.342 . S
C4472 C122 1.343 . S
C4477 C143 1.343 . S
C4482 C290 1.343 . S
C4487 C164 1.343 . S
C4492 C311 1.342 . S
C4497 C353 1.340 . S
C4502 C395 1.339 . S
C4507 C1487 1.343 . S
C4512 C374 1.343 . S
C4517 C416 1.343 . S
C4522 C1508 1.342 . S
C4527 C1466 1.342 . S
C4532 C437 1.342 . S
C4537 C1445 1.341 . S
C4542 C458 1.342 . S
C4547 C479 1.338 . S
C4552 C1382 1.338 . S
C4557 C500 1.339 . S
C4562 C1424 1.338 . S
C4567 C710 1.343 . S
C4572 C521 1.342 . S
C4577 C542 1.341 . S
C4582 C731 1.340 . S
C4587 C563 1.341 . S
C4592 C752 1.342 . S
C4597 C689 1.342 . S
C4602 C581 1.342 . S
C4607 C836 1.339 . S
C4612 C605 1.340 . S
C4617 C770 1.341 . S
C4622 C626 1.342 . S
C4627 C794 1.338 . S
C4632 C644 1.338 . S
C4637 C815 1.338 . S
C4642 C665 1.338 . S
C4647 C899 1.342 . S
C4652 C857 1.343 . S
C4657 C878 1.342 . S
C4662 C1991 1.341 . S
C4667 C920 1.342 . S
C4672 C2012 1.342 . S
C4677 C941 1.338 . S
C4682 C1970 1.338 . S
C4687 C1949 1.342 . S
C4692 C962 1.343 . S
C4697 C1886 1.342 . S
C4702 C983 1.341 . S
C4707 C1928 1.343 . S
C4712 C1004 1.342 . S
C4717 C1025 1.342 . S
C4722 C1214 1.342 . S
C4727 C1046 1.339 . S
C4732 C1235 1.340 . S
C4737 C1067 1.343 . S
C4742 C1256 1.343 . S
C4747 C1088 1.343 . S
C4752 C1193 1.342 . S
C4757 C1340 1.343 . S
C4762 C1109 1.343 . S
C4767 C1130 1.342 . S
C4772 C1277 1.343 . S
C4777 C1298 1.338 . S
C4782 C1151 1.338 . S
C4787 C1319 1.341 . S
C4792 C1172 1.342 . S
C4797 C1403 1.339 . S
C4802 C1361 1.338 . S
C4807 C1529 1.343 . S
C4812 C1718 1.343 . S
C4817 C1739 1.341 . S
C4822 C1550 1.342 . S
C4827 C1571 1.343 . S
C4832 C1760 1.343 . S
C4837 C1697 1.342 . S
C4842 C1589 1.343 . S
C4847 C1613 1.338 . S
C4852 C1844 1.338 . S
C4857 C1778 1.342 . S
C4862 C1634 1.343 . S
C4867 C1652 1.343 . S
C4872 C1802 1.343 . S
C4877 C1673 1.343 . S
C4882 C1823 1.342 . S
C4887 C1865 1.342 . S
C4892 C1907 1.341 . S
