# Generated by pormake.
# Topology ecf, (8)-cn, num edge types: 1
# Building blocks:
#     Node 0, Type 0, BuildingBlock: VETTIZ_charged_sbu_0, # of connection points: 8
#     Node 1, Type 0, BuildingBlock: VETTIZ_charged_sbu_0, # of connection points: 8
#     Node 2, Type 0, BuildingBlock: VETTIZ_charged_sbu_0, # of connection points: 8
#     Node 3, Type 0, BuildingBlock: VETTIZ_charged_sbu_0, # of connection points: 8
#     Node 4, Type 0, BuildingBlock: VETTIZ_charged_sbu_0, # of connection points: 8
#     Node 5, Type 0, BuildingBlock: VETTIZ_charged_sbu_0, # of connection points: 8
#     Edge 6, Type (0, 0), BuildingBlock: TEMPAE_clean_linker_10, # of connection points: 2
#     Edge 7, Type (0, 0), BuildingBlock: TEMPAE_clean_linker_10, # of connection points: 2
#     Edge 8, Type (0, 0), BuildingBlock: TEMPAE_clean_linker_10, # of connection points: 2
#     Edge 9, Type (0, 0), BuildingBlock: TEMPAE_clean_linker_10, # of connection points: 2
#     Edge 10, Type (0, 0), BuildingBlock: TEMPAE_clean_linker_10, # of connection points: 2
#     Edge 11, Type (0, 0), BuildingBlock: TEMPAE_clean_linker_10, # of connection points: 2
#     Edge 12, Type (0, 0), BuildingBlock: TEMPAE_clean_linker_10, # of connection points: 2
#     Edge 13, Type (0, 0), BuildingBlock: TEMPAE_clean_linker_10, # of connection points: 2
#     Edge 14, Type (0, 0), BuildingBlock: TEMPAE_clean_linker_10, # of connection points: 2
#     Edge 15, Type (0, 0), BuildingBlock: TEMPAE_clean_linker_10, # of connection points: 2
#     Edge 16, Type (0, 0), BuildingBlock: TEMPAE_clean_linker_10, # of connection points: 2
#     Edge 17, Type (0, 0), BuildingBlock: TEMPAE_clean_linker_10, # of connection points: 2
#     Edge 18, Type (0, 0), BuildingBlock: TEMPAE_clean_linker_10, # of connection points: 2
#     Edge 19, Type (0, 0), BuildingBlock: TEMPAE_clean_linker_10, # of connection points: 2
#     Edge 20, Type (0, 0), BuildingBlock: TEMPAE_clean_linker_10, # of connection points: 2
#     Edge 21, Type (0, 0), BuildingBlock: TEMPAE_clean_linker_10, # of connection points: 2
#     Edge 22, Type (0, 0), BuildingBlock: TEMPAE_clean_linker_10, # of connection points: 2
#     Edge 23, Type (0, 0), BuildingBlock: TEMPAE_clean_linker_10, # of connection points: 2
#     Edge 24, Type (0, 0), BuildingBlock: TEMPAE_clean_linker_10, # of connection points: 2
#     Edge 25, Type (0, 0), BuildingBlock: TEMPAE_clean_linker_10, # of connection points: 2
#     Edge 26, Type (0, 0), BuildingBlock: TEMPAE_clean_linker_10, # of connection points: 2
#     Edge 27, Type (0, 0), BuildingBlock: TEMPAE_clean_linker_10, # of connection points: 2
#     Edge 28, Type (0, 0), BuildingBlock: TEMPAE_clean_linker_10, # of connection points: 2
#     Edge 29, Type (0, 0), BuildingBlock: TEMPAE_clean_linker_10, # of connection points: 2
# Relax obj value: 0.148
# Max RMSD: 0.140
# Mean RMSD: 0.140
data_MOF--net-ecf--node1-VETTIZ_charged_sbu_0--edge1-TEMPAE_clean_linker_10
_symmetry_space_group_name_H-M    P1
_symmetry_Int_Tables_number       1
_symmetry_cell_setting            triclinic
loop_
_symmetry_equiv_pos_as_xyz
'x, y, z'
_cell_length_a     33.688967
_cell_length_b     33.694897
_cell_length_c     27.702588
_cell_angle_alpha  89.806513
_cell_angle_beta   89.789471
_cell_angle_gamma 119.78437
loop_
_atom_site_label
_atom_site_type_symbol
_atom_site_fract_x
_atom_site_fract_y
_atom_site_fract_z
_atom_type_partial_charge
Fe0 Fe 0.08266 0.26724 0.19901 0.0
O1 O 0.1169 0.31335 0.24742 0.0
Fe2 Fe 0.17578 0.37367 0.22694 0.0
Fe3 Fe 0.14064 0.29957 0.30701 0.0
O4 O 0.11786 0.31686 0.24449 0.0
O5 O 0.19914 0.36072 0.28832 0.0
O6 O 0.19806 0.35729 0.29148 0.0
Fe7 Fe 0.22879 0.40448 0.34122 0.0
C8 C 0.03782 0.22858 0.29561 0.0
O9 O 0.10217 0.22132 0.22433 0.0
O10 O 0.16357 0.26233 0.26956 0.0
O11 O 0.27922 0.43508 0.28887 0.0
O12 O 0.24101 0.43198 0.21808 0.0
O13 O 0.19883 0.3362 0.18823 0.0
O14 O 0.13442 0.29026 0.14872 0.0
O15 O 0.17392 0.29259 0.36824 0.0
O16 O 0.2454 0.35709 0.36728 0.0
C17 C 0.17771 0.31012 0.15276 0.0
O18 O 0.20639 0.4485 0.31823 0.0
O19 O 0.15301 0.41301 0.26198 0.0
O20 O 0.03397 0.24228 0.25291 0.0
O21 O 0.07646 0.2413 0.31736 0.0
C22 C 0.13833 0.22678 0.24504 0.0
C23 C 0.21638 0.31604 0.38233 0.0
C24 C 0.13246 0.34955 0.38618 0.0
O25 O 0.11693 0.33528 0.34461 0.0
O26 O 0.17547 0.37424 0.39206 0.0
C27 C 0.27782 0.44671 0.24431 0.0
O28 O 0.14242 0.37836 0.1639 0.0
O29 O 0.0695 0.31615 0.17104 0.0
C30 C 0.17432 0.44574 0.29158 0.0
C31 C 0.09935 0.35476 0.1515 0.0
Fe32 Fe 0.85638 0.13679 0.74508 0.0
O33 O 0.82804 0.12415 0.81111 0.0
Fe34 Fe 0.82513 0.21128 0.69733 0.0
Fe35 Fe 0.85253 0.10393 0.86406 0.0
O36 O 0.85171 0.19315 0.75013 0.0
O37 O 0.84922 0.1946 0.75372 0.0
O38 O 0.82577 0.12585 0.81487 0.0
Fe39 Fe 0.82309 0.18351 0.82118 0.0
C40 C 0.82731 0.04062 0.77902 0.0
O41 O 0.9214 0.17017 0.77289 0.0
O42 O 0.91211 0.11861 0.82812 0.0
O43 O 0.826 0.24738 0.81653 0.0
O44 O 0.84782 0.26935 0.73696 0.0
O45 O 0.88614 0.22735 0.66587 0.0
O46 O 0.88899 0.16098 0.67651 0.0
O47 O 0.88685 0.16543 0.89905 0.0
O48 O 0.88895 0.21823 0.84879 0.0
C49 C 0.90313 0.20113 0.6564 0.0
O50 O 0.75587 0.15143 0.79666 0.0
O51 O 0.76225 0.18999 0.72856 0.0
O52 O 0.85283 0.07298 0.74851 0.0
O53 O 0.82204 0.04624 0.82434 0.0
C54 C 0.93746 0.15036 0.79877 0.0
C55 C 0.90428 0.20682 0.88515 0.0
C56 C 0.78295 0.12228 0.91425 0.0
O57 O 0.79566 0.09337 0.90149 0.0
O58 O 0.79545 0.16153 0.89261 0.0
C59 C 0.84255 0.27751 0.78151 0.0
O60 O 0.79989 0.15061 0.65882 0.0
O61 O 0.79262 0.10133 0.71507 0.0
C62 C 0.73855 0.16474 0.76369 0.0
C63 C 0.78551 0.10959 0.67236 0.0
Fe64 Fe 0.75198 0.84717 0.19925 0.0
O65 O 0.69985 0.81811 0.24433 0.0
Fe66 Fe 0.64086 0.82172 0.2291 0.0
Fe67 Fe 0.70699 0.83441 0.31446 0.0
O68 O 0.69732 0.81808 0.24015 0.0
O69 O 0.64816 0.83832 0.29991 0.0
O70 O 0.65071 0.83804 0.30441 0.0
Fe71 Fe 0.59992 0.80759 0.35011 0.0
C72 C 0.77271 0.80277 0.28317 0.0
O73 O 0.79346 0.89879 0.24616 0.0
O74 O 0.74497 0.90205 0.29806 0.0
O75 O 0.57355 0.84057 0.31119 0.0
O76 O 0.58188 0.8285 0.2301 0.0
O77 O 0.67783 0.89061 0.20854 0.0
O78 O 0.73439 0.89095 0.16601 0.0
O79 O 0.70858 0.8564 0.38719 0.0
O80 O 0.64286 0.86107 0.39298 0.0
C81 C 0.70911 0.90809 0.17606 0.0
O82 O 0.5601 0.75182 0.30813 0.0
O83 O 0.60163 0.75291 0.24458 0.0
O84 O 0.76888 0.80596 0.23698 0.0
O85 O 0.76378 0.82507 0.31567 0.0
C86 C 0.78367 0.92017 0.27752 0.0
C87 C 0.68332 0.87129 0.40768 0.0
C88 C 0.64969 0.7538 0.37245 0.0
O89 O 0.67045 0.76626 0.3324 0.0
O90 O 0.62612 0.77146 0.38715 0.0
C91 C 0.56571 0.84197 0.26555 0.0
O92 O 0.64201 0.80195 0.15565 0.0
O93 O 0.70916 0.799 0.15122 0.0
C94 C 0.56639 0.73275 0.27161 0.0
C95 C 0.66999 0.79075 0.13442 0.0
Fe96 Fe 0.84703 0.75248 0.69922 0.0
O97 O 0.818 0.70036 0.74429 0.0
Fe98 Fe 0.82158 0.64137 0.72902 0.0
Fe99 Fe 0.83435 0.7075 0.8144 0.0
O100 O 0.81797 0.69784 0.74011 0.0
O101 O 0.83824 0.64868 0.79981 0.0
O102 O 0.83796 0.65123 0.80432 0.0
Fe103 Fe 0.80751 0.60046 0.85002 0.0
C104 C 0.92008 0.78418 0.77742 0.0
O105 O 0.80582 0.76936 0.737 0.0
O106 O 0.82501 0.76429 0.81566 0.0
O107 O 0.75169 0.56065 0.80808 0.0
O108 O 0.75278 0.6022 0.74458 0.0
O109 O 0.80175 0.64251 0.65561 0.0
O110 O 0.79883 0.70966 0.6512 0.0
O111 O 0.76619 0.67098 0.83239 0.0
O112 O 0.77142 0.62668 0.88712 0.0
C113 C 0.79056 0.67048 0.63439 0.0
O114 O 0.84045 0.57405 0.81105 0.0
O115 O 0.8283 0.58237 0.72998 0.0
O116 O 0.89867 0.79396 0.7461 0.0
O117 O 0.90199 0.74549 0.79794 0.0
C118 C 0.80265 0.77318 0.7832 0.0
C119 C 0.75375 0.65023 0.87244 0.0
C120 C 0.8713 0.68386 0.90754 0.0
O121 O 0.85639 0.7091 0.8871 0.0
O122 O 0.86105 0.64339 0.89284 0.0
C123 C 0.73261 0.56696 0.77159 0.0
O124 O 0.89046 0.67831 0.70838 0.0
O125 O 0.89081 0.7349 0.66594 0.0
C126 C 0.84178 0.56617 0.76541 0.0
C127 C 0.90796 0.70962 0.67595 0.0
Fe128 Fe 0.13668 0.85726 0.24483 0.0
O129 O 0.12399 0.82892 0.31085 0.0
Fe130 Fe 0.21146 0.82629 0.19723 0.0
Fe131 Fe 0.10357 0.85326 0.36376 0.0
O132 O 0.19314 0.85277 0.24999 0.0
O133 O 0.19459 0.85027 0.25358 0.0
O134 O 0.12568 0.82664 0.3146 0.0
Fe135 Fe 0.1834 0.82407 0.321 0.0
C136 C 0.14994 0.93824 0.29854 0.0
O137 O 0.07277 0.85353 0.24814 0.0
O138 O 0.04595 0.82269 0.32393 0.0
O139 O 0.15143 0.75689 0.29637 0.0
O140 O 0.19028 0.76344 0.22844 0.0
O141 O 0.15083 0.80094 0.15862 0.0
O142 O 0.10142 0.7935 0.21481 0.0
O143 O 0.09308 0.79641 0.40116 0.0
O144 O 0.16133 0.79634 0.39237 0.0
C145 C 0.10976 0.78645 0.17211 0.0
O146 O 0.24733 0.82708 0.31645 0.0
O147 O 0.26949 0.84909 0.23696 0.0
O148 O 0.16987 0.92228 0.27268 0.0
O149 O 0.11819 0.91282 0.32786 0.0
C150 C 0.04039 0.82795 0.27859 0.0
C151 C 0.12202 0.78375 0.41394 0.0
C152 C 0.20645 0.90514 0.38505 0.0
O153 O 0.16501 0.88766 0.39886 0.0
O154 O 0.21797 0.88988 0.3487 0.0
C155 C 0.16494 0.73967 0.26349 0.0
O156 O 0.22744 0.88726 0.16578 0.0
O157 O 0.16093 0.8899 0.1763 0.0
C158 C 0.27755 0.84375 0.28152 0.0
C159 C 0.20113 0.90415 0.15626 0.0
Fe160 Fe 0.26676 0.08354 0.69901 0.0
O161 O 0.31288 0.11786 0.74737 0.0
Fe162 Fe 0.37315 0.17677 0.72687 0.0
Fe163 Fe 0.29908 0.14157 0.80698 0.0
O164 O 0.31637 0.11883 0.74444 0.0
O165 O 0.36017 0.20012 0.78824 0.0
O166 O 0.35675 0.19904 0.79141 0.0
Fe167 Fe 0.40396 0.22982 0.84112 0.0
C168 C 0.22618 0.13908 0.74507 0.0
O169 O 0.24192 0.03488 0.75292 0.0
O170 O 0.24087 0.07734 0.81738 0.0
O171 O 0.44807 0.20753 0.81805 0.0
O172 O 0.41251 0.15405 0.76192 0.0
O173 O 0.37788 0.14343 0.66384 0.0
O174 O 0.31575 0.07049 0.67099 0.0
O175 O 0.33491 0.11797 0.84452 0.0
O176 O 0.37382 0.17653 0.89196 0.0
C177 C 0.35433 0.10037 0.65142 0.0
O178 O 0.43447 0.28023 0.78876 0.0
O179 O 0.43143 0.24202 0.71799 0.0
O180 O 0.22076 0.10293 0.72437 0.0
O181 O 0.26173 0.16438 0.76956 0.0
C182 C 0.22822 0.03872 0.79564 0.0
C183 C 0.3492 0.13351 0.88608 0.0
C184 C 0.31547 0.21728 0.88232 0.0
O185 O 0.29205 0.17482 0.86822 0.0
O186 O 0.35651 0.24633 0.86725 0.0
C187 C 0.44528 0.17542 0.79147 0.0
O188 O 0.33562 0.19974 0.68812 0.0
O189 O 0.28966 0.13526 0.64872 0.0
C190 C 0.44613 0.27883 0.7442 0.0
C191 C 0.30951 0.17855 0.65269 0.0
C192 C 0.12601 0.48141 0.26929 0.0
C193 C 0.16428 0.48431 0.29275 0.0
C194 C 0.11891 0.5193 0.26703 0.0
C195 C 0.15124 0.5615 0.28789 0.0
C196 C 0.18911 0.56415 0.31285 0.0
C197 C 0.19492 0.52564 0.3153 0.0
C198 C 0.07765 0.51462 0.24079 0.0
C199 C 0.22496 0.60845 0.33495 0.0
C200 C 0.173 0.67411 0.23247 0.0
C201 C 0.1551 0.69124 0.26748 0.0
C202 C 0.17045 0.63146 0.23799 0.0
C203 C 0.14871 0.60422 0.27923 0.0
C204 C 0.12826 0.61993 0.3135 0.0
C205 C 0.13196 0.66334 0.30745 0.0
C206 C 0.19325 0.61666 0.20069 0.0
C207 C 0.10393 0.59162 0.35749 0.0
H208 H 0.10191 0.44971 0.25196 0.0
H209 H 0.22473 0.52863 0.33344 0.0
H210 H 0.06017 0.52892 0.26279 0.0
H211 H 0.08867 0.5344 0.20652 0.0
H212 H 0.05275 0.47844 0.2322 0.0
H213 H 0.25075 0.60422 0.35577 0.0
H214 H 0.24294 0.63419 0.306 0.0
H215 H 0.2087 0.62237 0.35929 0.0
H216 H 0.1908 0.69486 0.20121 0.0
H217 H 0.11787 0.67589 0.33473 0.0
H218 H 0.16875 0.58212 0.18707 0.0
H219 H 0.22205 0.61459 0.21747 0.0
H220 H 0.20679 0.64064 0.16949 0.0
H221 H 0.07964 0.55583 0.34704 0.0
H222 H 0.08491 0.6056 0.37734 0.0
H223 H 0.12923 0.59071 0.38232 0.0
C224 C 0.52556 0.19656 0.8141 0.0
C225 C 0.48383 0.16536 0.79263 0.0
C226 C 0.56396 0.19055 0.81169 0.0
C227 C 0.56078 0.15192 0.78791 0.0
C228 C 0.51821 0.11911 0.76813 0.0
C229 C 0.48044 0.12642 0.77028 0.0
C230 C 0.60867 0.22693 0.83255 0.0
C231 C 0.51297 0.07704 0.74322 0.0
C232 C 0.67256 0.17171 0.73203 0.0
C233 C 0.69009 0.15484 0.76769 0.0
C234 C 0.62999 0.16938 0.73749 0.0
C235 C 0.60326 0.14892 0.77938 0.0
C236 C 0.61932 0.12938 0.81434 0.0
C237 C 0.66264 0.13284 0.80829 0.0
C238 C 0.6148 0.19114 0.6994 0.0
C239 C 0.59155 0.10641 0.85905 0.0
H240 H 0.52891 0.2269 0.83133 0.0
H241 H 0.44843 0.10191 0.7538 0.0
H242 H 0.62281 0.21132 0.85748 0.0
H243 H 0.63402 0.24389 0.80302 0.0
H244 H 0.6049 0.25346 0.85244 0.0
H245 H 0.47663 0.05204 0.73539 0.0
H246 H 0.53232 0.087 0.70865 0.0
H247 H 0.52742 0.06007 0.7658 0.0
H248 H 0.69296 0.18857 0.70025 0.0
H249 H 0.6755 0.11954 0.83609 0.0
H250 H 0.61314 0.22053 0.71516 0.0
H251 H 0.58 0.16635 0.68663 0.0
H252 H 0.63832 0.2036 0.66777 0.0
H253 H 0.59117 0.13248 0.88309 0.0
H254 H 0.60564 0.08779 0.87947 0.0
H255 H 0.55556 0.082 0.84937 0.0
C256 C 0.32631 0.52305 0.20618 0.0
C257 C 0.32197 0.48236 0.22462 0.0
C258 C 0.36955 0.56264 0.20278 0.0
C259 C 0.4089 0.56094 0.21781 0.0
C260 C 0.40493 0.5184 0.23047 0.0
C261 C 0.36138 0.47966 0.23417 0.0
C262 C 0.37233 0.60724 0.18869 0.0
C263 C 0.44595 0.51474 0.24578 0.0
C264 C 0.52607 0.66889 0.21194 0.0
C265 C 0.52892 0.68664 0.25842 0.0
C266 C 0.48749 0.62764 0.19795 0.0
C267 C 0.45107 0.60388 0.23121 0.0
C268 C 0.45454 0.621 0.27855 0.0
C269 C 0.49334 0.66193 0.29153 0.0
C270 C 0.48516 0.6103 0.14731 0.0
C271 C 0.41677 0.59657 0.31549 0.0
H272 H 0.29578 0.52515 0.199 0.0
H273 H 0.35792 0.44795 0.24809 0.0
H274 H 0.37601 0.62733 0.22171 0.0
H275 H 0.40264 0.62796 0.16541 0.0
H276 H 0.34114 0.60169 0.16938 0.0
H277 H 0.43887 0.47885 0.24465 0.0
H278 H 0.47598 0.53619 0.22243 0.0
H279 H 0.45513 0.52725 0.28334 0.0
H280 H 0.55327 0.68787 0.186 0.0
H281 H 0.4953 0.67508 0.32763 0.0
H282 H 0.45877 0.6136 0.1267 0.0
H283 H 0.47494 0.57352 0.14788 0.0
H284 H 0.51835 0.62963 0.12787 0.0
H285 H 0.38449 0.59372 0.30196 0.0
H286 H 0.42492 0.61448 0.35073 0.0
H287 H 0.41052 0.56136 0.32157 0.0
C288 C 0.89138 0.35889 0.76211 0.0
C289 C 0.85542 0.32529 0.79003 0.0
C290 C 0.89587 0.4019 0.75521 0.0
C291 C 0.86478 0.41208 0.77856 0.0
C292 C 0.83164 0.38015 0.81122 0.0
C293 C 0.82697 0.33656 0.81627 0.0
C294 C 0.93122 0.43473 0.71967 0.0
C295 C 0.7993 0.39101 0.83835 0.0
C296 C 0.89052 0.53391 0.78672 0.0
C297 C 0.85721 0.53328 0.75593 0.0
C298 C 0.8944 0.49498 0.79348 0.0
C299 C 0.86559 0.45526 0.76711 0.0
C300 C 0.83591 0.45623 0.7315 0.0
C301 C 0.83167 0.49542 0.7266 0.0
C302 C 0.92602 0.49516 0.83217 0.0
C303 C 0.8063 0.41485 0.70116 0.0
H304 H 0.91384 0.35018 0.74233 0.0
H305 H 0.79921 0.31054 0.83776 0.0
H306 H 0.91368 0.43758 0.68711 0.0
H307 H 0.95093 0.46943 0.73526 0.0
H308 H 0.95556 0.42328 0.70826 0.0
H309 H 0.7794 0.36484 0.86639 0.0
H310 H 0.81851 0.42492 0.85589 0.0
H311 H 0.77494 0.39269 0.81272 0.0
H312 H 0.91061 0.56364 0.80905 0.0
H313 H 0.80588 0.49499 0.70295 0.0
H314 H 0.94653 0.47997 0.81874 0.0
H315 H 0.9053 0.47394 0.86318 0.0
H316 H 0.94972 0.53019 0.84542 0.0
H317 H 0.82692 0.40049 0.68577 0.0
H318 H 0.7897 0.42305 0.67117 0.0
H319 H 0.77917 0.38793 0.72412 0.0
C320 C 0.33647 0.82804 0.31638 0.0
C321 C 0.32532 0.85656 0.29013 0.0
C322 C 0.38003 0.8326 0.31137 0.0
C323 C 0.41204 0.86572 0.27875 0.0
C324 C 0.40199 0.8969 0.25542 0.0
C325 C 0.35901 0.89251 0.26228 0.0
C326 C 0.39075 0.80016 0.33848 0.0
C327 C 0.43491 0.93223 0.21995 0.0
C328 C 0.53372 0.89095 0.28692 0.0
C329 C 0.53295 0.85759 0.25611 0.0
C330 C 0.4949 0.89503 0.29368 0.0
C331 C 0.45515 0.86637 0.26728 0.0
C332 C 0.45599 0.83664 0.23164 0.0
C333 C 0.49508 0.8322 0.22674 0.0
C334 C 0.49521 0.92669 0.33239 0.0
C335 C 0.41458 0.80717 0.20127 0.0
H336 H 0.31038 0.80029 0.33782 0.0
H337 H 0.35038 0.91502 0.24251 0.0
H338 H 0.39234 0.77577 0.31283 0.0
H339 H 0.42467 0.81928 0.35602 0.0
H340 H 0.36455 0.78033 0.36651 0.0
H341 H 0.42361 0.9567 0.20862 0.0
H342 H 0.46963 0.9518 0.23553 0.0
H343 H 0.43769 0.9147 0.18732 0.0
H344 H 0.56347 0.91092 0.30927 0.0
H345 H 0.49454 0.80637 0.20307 0.0
H346 H 0.47398 0.90601 0.36342 0.0
H347 H 0.48009 0.94727 0.31901 0.0
H348 H 0.53028 0.95031 0.34561 0.0
H349 H 0.38758 0.7801 0.22421 0.0
H350 H 0.4227 0.79053 0.17127 0.0
H351 H 0.40036 0.82792 0.18591 0.0
C352 C 0.52242 0.32722 0.7059 0.0
C353 C 0.48182 0.32297 0.72453 0.0
C354 C 0.56209 0.3704 0.70252 0.0
C355 C 0.56056 0.40977 0.71778 0.0
C356 C 0.51809 0.40591 0.73064 0.0
C357 C 0.47927 0.36242 0.7343 0.0
C358 C 0.6066 0.37307 0.68818 0.0
C359 C 0.51461 0.44696 0.74621 0.0
C360 C 0.66181 0.49386 0.79143 0.0
C361 C 0.68647 0.52953 0.75841 0.0
C362 C 0.62082 0.45514 0.77845 0.0
C363 C 0.6036 0.45183 0.73118 0.0
C364 C 0.62734 0.48832 0.698 0.0
C365 C 0.66864 0.52682 0.712 0.0
C366 C 0.59641 0.41728 0.81529 0.0
C367 C 0.60991 0.48616 0.64744 0.0
H368 H 0.52441 0.29666 0.69854 0.0
H369 H 0.44762 0.35903 0.74836 0.0
H370 H 0.62735 0.40344 0.665 0.0
H371 H 0.62673 0.37657 0.72112 0.0
H372 H 0.6009 0.34192 0.6687 0.0
H373 H 0.47874 0.43999 0.74526 0.0
H374 H 0.52724 0.45603 0.78375 0.0
H375 H 0.53606 0.47703 0.7229 0.0
H376 H 0.67503 0.49571 0.82747 0.0
H377 H 0.68759 0.55408 0.68613 0.0
H378 H 0.59346 0.38502 0.80157 0.0
H379 H 0.56123 0.41108 0.82153 0.0
H380 H 0.61441 0.4253 0.85048 0.0
H381 H 0.61307 0.45977 0.62667 0.0
H382 H 0.62926 0.51938 0.62808 0.0
H383 H 0.57314 0.47603 0.64816 0.0
C384 C 0.18796 0.19321 0.26722 0.0
C385 C 0.14821 0.18835 0.24538 0.0
C386 C 0.19496 0.15561 0.27267 0.0
C387 C 0.16128 0.11198 0.25627 0.0
C388 C 0.1222 0.10733 0.23215 0.0
C389 C 0.11625 0.14552 0.22682 0.0
C390 C 0.23733 0.16217 0.29813 0.0
C391 C 0.08525 0.06142 0.21438 0.0
C392 C 0.18074 0.00985 0.24782 0.0
C393 C 0.1589 0.9856 0.29014 0.0
C394 C 0.18346 0.05202 0.23694 0.0
C395 C 0.16393 0.0703 0.26917 0.0
C396 C 0.14381 0.04694 0.31293 0.0
C397 C 0.14161 0.00506 0.32285 0.0
C398 C 0.20547 0.07593 0.19004 0.0
C399 C 0.12264 0.06514 0.34842 0.0
H400 H 0.21311 0.22616 0.28137 0.0
H401 H 0.08548 0.14125 0.20975 0.0
H402 H 0.22786 0.14585 0.33436 0.0
H403 H 0.25336 0.14541 0.27777 0.0
H404 H 0.26298 0.1989 0.30275 0.0
H405 H 0.05893 0.06418 0.19289 0.0
H406 H 0.10033 0.04505 0.19186 0.0
H407 H 0.06811 0.03847 0.24569 0.0
H408 H 0.1941 0.99508 0.22223 0.0
H409 H 0.12506 0.98685 0.35584 0.0
H410 H 0.22983 0.1127 0.19637 0.0
H411 H 0.1788 0.07392 0.16516 0.0
H412 H 0.22392 0.06041 0.1719 0.0
H413 H 0.1478 0.10074 0.35857 0.0
H414 H 0.11037 0.04404 0.38184 0.0
H415 H 0.09323 0.06586 0.33141 0.0
C416 C 0.00443 0.14228 0.82306 0.0
C417 C 0.98485 0.1594 0.79033 0.0
C418 C 0.04634 0.14453 0.8131 0.0
C419 C 0.06959 0.16453 0.76927 0.0
C420 C 0.0512 0.18391 0.737 0.0
C421 C 0.00901 0.18114 0.74792 0.0
C422 C 0.06466 0.12353 0.84864 0.0
C423 C 0.07501 0.20579 0.69001 0.0
C424 C 0.19256 0.1887 0.76714 0.0
C425 C 0.1877 0.14891 0.74541 0.0
C426 C 0.15493 0.19567 0.77259 0.0
C427 C 0.11128 0.1619 0.75633 0.0
C428 C 0.10663 0.12277 0.73233 0.0
C429 C 0.14485 0.11686 0.72698 0.0
C430 C 0.16149 0.23809 0.79792 0.0
C431 C 0.06069 0.08573 0.71471 0.0
H432 H 0.98628 0.12581 0.85611 0.0
H433 H 0.99415 0.19437 0.7223 0.0
H434 H 0.06538 0.09408 0.83172 0.0
H435 H 0.10027 0.14875 0.85867 0.0
H436 H 0.04363 0.11135 0.88213 0.0
H437 H 0.05943 0.22418 0.67186 0.0
H438 H 0.11179 0.23017 0.69623 0.0
H439 H 0.07295 0.17906 0.6652 0.0
H440 H 0.22553 0.21391 0.78118 0.0
H441 H 0.14059 0.08605 0.71001 0.0
H442 H 0.14526 0.22873 0.83419 0.0
H443 H 0.14466 0.25402 0.77753 0.0
H444 H 0.19823 0.26379 0.80242 0.0
H445 H 0.03781 0.06868 0.74609 0.0
H446 H 0.06344 0.05937 0.6933 0.0
H447 H 0.04425 0.10071 0.69216 0.0
C448 C -0.00187 0.15872 0.34744 0.0
C449 C 0.99574 0.19049 0.31653 0.0
C450 C 0.95991 0.11516 0.35426 0.0
C451 C 0.91896 0.1037 0.32949 0.0
C452 C 0.91462 0.138 0.30449 0.0
C453 C 0.95318 0.18121 0.29848 0.0
C454 C 0.96534 0.07995 0.38278 0.0
C455 C 0.87123 0.1275 0.27835 0.0
C456 C 0.85933 0.99029 0.26538 0.0
C457 C 0.81894 0.9664 0.29233 0.0
C458 C 0.89275 0.03448 0.27831 0.0
C459 C 0.88567 0.05521 0.31941 0.0
C460 C 0.84562 0.03084 0.3477 0.0
C461 C 0.81256 0.98666 0.3337 0.0
C462 C 0.93512 0.05944 0.24705 0.0
C463 C 0.83753 0.05147 0.39234 0.0
H464 H 0.03073 0.16604 0.3625 0.0
H465 H 0.95082 0.20632 0.27593 0.0
H466 H 0.93308 0.0557 0.40155 0.0
H467 H 0.97443 0.06 0.35777 0.0
H468 H 0.99303 0.09636 0.40986 0.0
H469 H 0.87052 0.15915 0.26857 0.0
H470 H 0.86891 0.10878 0.24462 0.0
H471 H 0.84062 0.10538 0.30063 0.0
H472 H 0.86455 0.97477 0.23355 0.0
H473 H 0.78166 0.96805 0.35518 0.0
H474 H 0.96623 0.07056 0.26916 0.0
H475 H 0.93685 0.09059 0.23127 0.0
H476 H 0.93579 0.03794 0.21709 0.0
H477 H 0.86477 0.059 0.41906 0.0
H478 H 0.80384 0.02832 0.40938 0.0
H479 H 0.83917 0.08436 0.38336 0.0
C480 C 0.75426 0.9693 0.7812 0.0
C481 C 0.79885 0.99402 0.76236 0.0
C482 C 0.73225 0.92184 0.78467 0.0
C483 C 0.75547 0.89954 0.76787 0.0
C484 C 0.79612 0.92386 0.73972 0.0
C485 C 0.81795 0.97159 0.73782 0.0
C486 C 0.68783 0.89725 0.8125 0.0
C487 C 0.82006 0.90043 0.71766 0.0
C488 C 0.78783 0.82553 0.83247 0.0
C489 C 0.77331 0.79153 0.79759 0.0
C490 C 0.77357 0.85796 0.82948 0.0
C491 C 0.74594 0.85595 0.78994 0.0
C492 C 0.72285 0.81569 0.76271 0.0
C493 C 0.73657 0.78312 0.76739 0.0
C494 C 0.79495 0.89861 0.86269 0.0
C495 C 0.69065 0.81082 0.72256 0.0
H496 H 0.73883 0.98732 0.79835 0.0
H497 H 0.85186 0.99111 0.72206 0.0
H498 H 0.66944 0.85983 0.80632 0.0
H499 H 0.69497 0.90342 0.85167 0.0
H500 H 0.66514 0.9111 0.80248 0.0
H501 H 0.83715 0.89151 0.74646 0.0
H502 H 0.79516 0.86838 0.69952 0.0
H503 H 0.84645 0.92273 0.69084 0.0
H504 H 0.81465 0.83055 0.85742 0.0
H505 H 0.72336 0.75472 0.74236 0.0
H506 H 0.77004 0.90982 0.87218 0.0
H507 H 0.82453 0.9275 0.84418 0.0
H508 H 0.80737 0.89066 0.89646 0.0
H509 H 0.66401 0.77441 0.71802 0.0
H510 H 0.71017 0.82268 0.68815 0.0
H511 H 0.67384 0.83147 0.7292 0.0
C512 C 0.78276 0.73679 0.26724 0.0
C513 C 0.79115 0.77349 0.29749 0.0
C514 C 0.81542 0.72319 0.26238 0.0
C515 C 0.85576 0.74638 0.28947 0.0
C516 C 0.8578 0.77397 0.32906 0.0
C517 C 0.82527 0.78811 0.33223 0.0
C518 C 0.8105 0.69102 0.22217 0.0
C519 C 0.89855 0.79545 0.36214 0.0
C520 C 0.96915 0.75483 0.28065 0.0
C521 C 0.99382 0.79942 0.26185 0.0
C522 C 0.92168 0.73273 0.28408 0.0
C523 C 0.89932 0.75589 0.26729 0.0
C524 C 0.9236 0.79654 0.23916 0.0
C525 C 0.97134 0.81845 0.23729 0.0
C526 C 0.89713 0.68831 0.3119 0.0
C527 C 0.90009 0.82041 0.21712 0.0
H528 H 0.75428 0.72351 0.24232 0.0
H529 H 0.8303 0.81491 0.35721 0.0
H530 H 0.83134 0.67439 0.22859 0.0
H531 H 0.77411 0.66425 0.21785 0.0
H532 H 0.82208 0.71052 0.18773 0.0
H533 H 0.89066 0.80788 0.39595 0.0
H534 H 0.90986 0.77061 0.37156 0.0
H535 H 0.92736 0.82504 0.34354 0.0
H536 H 0.98721 0.73945 0.29781 0.0
H537 H 0.99082 0.85237 0.22156 0.0
H538 H 0.85971 0.66985 0.30564 0.0
H539 H 0.90321 0.69546 0.35107 0.0
H540 H 0.91108 0.66569 0.30192 0.0
H541 H 0.86802 0.79548 0.19904 0.0
H542 H 0.92235 0.84678 0.19026 0.0
H543 H 0.89119 0.83751 0.24592 0.0
C544 C 0.15833 -0.00109 0.84744 0.0
C545 C 0.19021 0.99661 0.8166 0.0
C546 C 0.11482 0.96062 0.85424 0.0
C547 C 0.10352 0.91968 0.82952 0.0
C548 C 0.13794 0.91544 0.80463 0.0
C549 C 0.1811 0.95407 0.79864 0.0
C550 C 0.07948 0.96593 0.88265 0.0
C551 C 0.12761 0.87207 0.77857 0.0
C552 C 0.98655 0.81315 0.83364 0.0
C553 C 0.96631 0.81947 0.79223 0.0
C554 C 0.03071 0.84627 0.84767 0.0
C555 C 0.05507 0.8863 0.81937 0.0
C556 C 0.03437 0.8933 0.7782 0.0
C557 C 0.99019 0.85983 0.76524 0.0
C558 C 0.0513 0.83825 0.89237 0.0
C559 C 0.05932 0.93564 0.74691 0.0
H560 H 0.16554 0.03149 0.86243 0.0
H561 H 0.2063 0.9518 0.77614 0.0
H562 H 0.05947 0.97487 0.85757 0.0
H563 H 0.05529 0.93368 0.90147 0.0
H564 H 0.09578 0.99369 0.90969 0.0
H565 H 0.15934 0.87145 0.7689 0.0
H566 H 0.10549 0.84146 0.80084 0.0
H567 H 0.10895 0.86967 0.74477 0.0
H568 H 0.96794 0.78228 0.85514 0.0
H569 H 0.97469 0.86499 0.73337 0.0
H570 H 0.05862 0.86543 0.91912 0.0
H571 H 0.08431 0.84009 0.88351 0.0
H572 H 0.02822 0.80452 0.90934 0.0
H573 H 0.07033 0.96675 0.76899 0.0
H574 H 0.03785 0.93623 0.71688 0.0
H575 H 0.09054 0.93743 0.73123 0.0
C576 C 0.18466 0.29415 0.06663 0.0
C577 C 0.20302 0.30271 0.11334 0.0
C578 C 0.20448 0.28204 0.02912 0.0
C579 C 0.2435 0.27788 0.0385 0.0
C580 C 0.263 0.28761 0.0853 0.0
C581 C 0.24266 0.30029 0.12221 0.0
C582 C 0.18294 0.27267 0.97968 0.0
C583 C 0.30439 0.28318 0.09671 0.0
C584 C 0.26222 0.20076 0.95257 0.0
C585 C 0.29602 0.23267 0.92137 0.0
C586 C 0.24573 0.21504 0.99161 0.0
C587 C 0.26297 0.26237 0.99931 0.0
C588 C 0.29692 0.29471 0.96785 0.0
C589 C 0.31319 0.2795 0.92946 0.0
C590 C 0.20975 0.17945 1.02456 0.0
C591 C 0.31576 0.34541 0.97446 0.0
H592 H 0.1542 0.29641 0.05946 0.0
H593 H 0.25665 0.30649 0.15836 0.0
H594 H 0.20871 0.29449 0.9522 0.0
H595 H 0.1706 0.23655 0.96971 0.0
H596 H 0.15366 0.27909 0.97798 0.0
H597 H 0.31652 0.29374 0.13422 0.0
H598 H 0.296 0.24715 0.09195 0.0
H599 H 0.33273 0.30436 0.07131 0.0
H600 H 0.24924 0.16454 0.94709 0.0
H601 H 0.3393 0.30442 0.90557 0.0
H602 H 0.17779 0.18122 1.02221 0.0
H603 H 0.22132 0.18633 0.0626 0.0
H604 H 0.20182 0.1442 1.01532 0.0
H605 H 0.28783 0.35362 0.97084 0.0
H606 H 0.34299 0.36618 0.94772 0.0
H607 H 0.32999 0.35568 1.01128 0.0
C608 C 0.95376 0.26256 0.59834 0.0
C609 C 0.94058 0.21964 0.61945 0.0
C610 C 0.98791 0.28177 0.56298 0.0
C611 C 0.01011 0.25779 0.54762 0.0
C612 C -0.00177 0.21502 0.56933 0.0
C613 C 0.96346 0.19632 0.60504 0.0
C614 C -0.00067 0.32747 0.54109 0.0
C615 C 0.02151 0.18864 0.55415 0.0
C616 C 0.05578 0.29326 0.42037 0.0
C617 C 0.10168 0.32655 0.42824 0.0
C618 C 0.02663 0.2682 0.45868 0.0
C619 C 0.04326 0.27699 0.50654 0.0
C620 C 0.08976 0.30971 0.51485 0.0
C621 C 0.11845 0.33403 0.47562 0.0
C622 C 0.97748 0.23332 0.44797 0.0
C623 C 0.10881 0.32013 0.56534 0.0
H624 H 0.93702 0.28156 0.60898 0.0
H625 H 0.95407 0.1635 0.6213 0.0
H626 H 0.03654 0.35186 0.54389 0.0
H627 H 0.99058 0.32324 0.50217 0.0
H628 H 0.98057 0.34283 0.55886 0.0
H629 H 0.01253 0.15892 0.57828 0.0
H630 H 0.01124 0.17598 0.5168 0.0
H631 H 0.0592 0.21117 0.55396 0.0
H632 H 0.04236 0.28655 0.38399 0.0
H633 H 0.15398 0.35896 0.48213 0.0
H634 H 0.95448 0.24497 0.4631 0.0
H635 H 0.96829 0.20015 0.46541 0.0
H636 H 0.97093 0.22767 0.40862 0.0
H637 H 0.09403 0.33836 0.58516 0.0
H638 H 0.14666 0.34178 0.56538 0.0
H639 H 0.09911 0.28801 0.58544 0.0
C640 C 0.69028 0.97044 0.15324 0.0
C641 C 0.71544 0.94789 0.14566 0.0
C642 C 0.69519 0.00603 0.12193 0.0
C643 C 0.72527 0.01886 0.08152 0.0
C644 C 0.75116 0.99665 0.07437 0.0
C645 C 0.74622 0.9621 0.10642 0.0
C646 C 0.6675 0.02918 0.13156 0.0
C647 C 0.78341 0.00842 0.03179 0.0
C648 C 0.71568 0.06622 0.96069 0.0
C649 C 0.75616 0.10873 0.95985 0.0
C650 C 0.7018 0.03837 1.00236 0.0
C651 C 0.72886 0.05349 0.04462 0.0
C652 C 0.76596 0.09909 0.04593 0.0
C653 C 0.77937 0.12608 1.00343 0.0
C654 C 0.66194 0.99033 0.9987 0.0
C655 C 0.79508 0.11744 0.09039 0.0
H656 H 0.66643 0.96004 0.18328 0.0
H657 H 0.76604 0.94533 0.09969 0.0
H658 H 0.68918 0.06683 0.12789 0.0
H659 H 0.63978 0.01784 0.10456 0.0
H660 H 0.65173 0.02096 0.16815 0.0
H661 H 0.80117 0.9881 0.0314 0.0
H662 H 0.76419 0.00211 0.99758 0.0
H663 H 0.80964 0.04521 0.03251 0.0
H664 H 0.698 0.05223 0.92698 0.0
H665 H 0.81117 0.15845 1.00302 0.0
H666 H 0.64109 0.98021 0.03224 0.0
H667 H 0.67509 0.96623 0.99363 0.0
H668 H 0.63957 0.98662 0.96767 0.0
H669 H 0.77372 0.10579 0.12362 0.0
H670 H 0.81501 0.15542 0.08996 0.0
H671 H 0.81954 0.10445 0.09195 0.0
C672 C 0.72375 0.63159 0.57835 0.0
C673 C 0.77053 0.66172 0.58531 0.0
C674 C 0.70066 0.63694 0.53844 0.0
C675 C 0.72455 0.67429 0.50596 0.0
C676 C 0.77257 0.70202 0.51061 0.0
C677 C 0.79488 0.69501 0.54977 0.0
C678 C 0.65009 0.60458 0.53301 0.0
C679 C 0.79989 0.74207 0.47706 0.0
C680 C 0.67819 0.69864 0.39 0.0
C681 C 0.66237 0.72766 0.40679 0.0
C682 C 0.69561 0.67836 0.42201 0.0
C683 C 0.69922 0.6888 0.47198 0.0
C684 C 0.68252 0.7175 0.48909 0.0
C685 C 0.66362 0.73575 0.45657 0.0
C686 C 0.71168 0.64733 0.40142 0.0
C687 C 0.68726 0.73146 0.54146 0.0
H688 H 0.7045 0.60625 0.60593 0.0
H689 H 0.83096 0.71876 0.55534 0.0
H690 H 0.63079 0.62095 0.54682 0.0
H691 H 0.64119 0.59631 0.4944 0.0
H692 H 0.63883 0.5723 0.55353 0.0
H693 H 0.83711 0.75969 0.48482 0.0
H694 H 0.79474 0.73047 0.43906 0.0
H695 H 0.78784 0.76721 0.48052 0.0
H696 H 0.67762 0.69225 0.3516 0.0
H697 H 0.65225 0.75868 0.46992 0.0
H698 H 0.71104 0.62282 0.42869 0.0
H699 H 0.74721 0.66836 0.38771 0.0
H700 H 0.69013 0.62777 0.37037 0.0
H701 H 0.66967 0.70078 0.56499 0.0
H702 H 0.67281 0.75413 0.54903 0.0
H703 H 0.72395 0.74973 0.55156 0.0
C704 C 0.90864 0.66966 0.97835 0.0
C705 C 0.9022 0.70096 0.95038 0.0
C706 C 0.9408 0.68404 1.01568 0.0
C707 C 0.96751 0.73114 0.02616 0.0
C708 C 0.96023 0.76303 0.99945 0.0
C709 C 0.92762 0.74759 0.96189 0.0
C710 C 0.94706 0.6487 0.0431 0.0
C711 C 0.98739 0.81347 1.0101 0.0
C712 C 0.02812 0.75958 0.14814 0.0
C713 C 0.07256 0.76954 0.13532 0.0
C714 C 0.99394 0.74818 0.11311 0.0
C715 C 0.00416 0.74643 0.06373 0.0
C716 C 0.04876 0.75582 0.05061 0.0
C717 C 0.0823 0.76737 0.08636 0.0
C718 C 0.94708 0.73866 0.12906 0.0
C719 C 0.06123 0.75393 0.9986 0.0
H720 H 0.88896 0.63344 0.97057 0.0
H721 H 0.92307 0.77212 0.94071 0.0
H722 H 0.98246 0.65516 0.03774 0.0
H723 H 0.94217 0.65131 0.08235 0.0
H724 H 0.9228 0.61326 0.0314 0.0
H725 H 0.97907 0.83409 0.98507 0.0
H726 H 0.98036 0.81967 0.04766 0.0
H727 H 0.02455 0.82557 1.00742 0.0
H728 H 0.0201 0.76127 0.18566 0.0
H729 H 0.11647 0.77531 0.07574 0.0
H730 H 0.9199 0.70711 0.11203 0.0
H731 H 0.942 0.76737 0.11747 0.0
H732 H 0.94264 0.73482 0.16886 0.0
H733 H 0.03694 0.72031 0.98273 0.0
H734 H 0.09649 0.75957 0.99457 0.0
H735 H 0.05871 0.78055 0.97743 0.0
C736 C 0.36663 0.10837 0.56274 0.0
C737 C 0.36466 0.08509 0.60553 0.0
C738 C 0.35375 0.08498 0.51847 0.0
C739 C 0.33858 0.03749 0.51742 0.0
C740 C 0.34366 0.01605 0.55917 0.0
C741 C 0.35664 0.04018 0.60278 0.0
C742 C 0.35054 0.1096 0.4744 0.0
C743 C 0.32876 0.96578 0.55977 0.0
C744 C 0.22777 0.96054 0.45282 0.0
C745 C 0.24183 0.94282 0.41478 0.0
C746 C 0.25923 0.99259 0.48494 0.0
C747 C 0.30653 0.00824 0.4789 0.0
C748 C 0.32145 0.99266 0.43901 0.0
C749 C 0.28888 0.95981 0.40756 0.0
C750 C 0.24135 0.00813 0.52675 0.0
C751 C 0.3715 0.00912 0.43044 0.0
H752 H 0.37265 0.14308 0.56466 0.0
H753 H 0.35529 0.0222 0.63584 0.0
H754 H 0.36084 0.09822 0.44147 0.0
H755 H 0.31459 0.10149 0.46967 0.0
H756 H 0.37228 0.14728 0.47781 0.0
H757 H 0.34216 0.9563 0.59176 0.0
H758 H 0.29083 0.94553 0.56087 0.0
H759 H 0.34043 0.95613 0.52665 0.0
H760 H 0.19168 0.9484 0.45853 0.0
H761 H 0.30026 0.9467 0.37815 0.0
H762 H 0.25747 0.04593 0.52655 0.0
H763 H 0.25025 -0.00207 0.56141 0.0
H764 H 0.20365 0.99334 0.52567 0.0
H765 H 0.393 0.0456 0.44044 0.0
H766 H 0.37838 0.00487 0.3921 0.0
H767 H 0.38205 0.98878 0.45307 0.0
C768 C 0.73567 0.66417 0.95656 0.0
C769 C 0.72757 0.66288 0.90678 0.0
C770 C 0.71737 0.68303 0.98908 0.0
C771 C 0.68858 0.69963 0.97198 0.0
C772 C 0.67814 0.69598 0.922 0.0
C773 C 0.69848 0.67862 0.89 0.0
C774 C 0.73134 0.68783 0.04144 0.0
C775 C 0.64704 0.71196 0.90141 0.0
C776 C 0.6312 0.72395 0.07836 0.0
C777 C 0.66123 0.77075 0.08532 0.0
C778 C 0.63663 0.70092 0.03845 0.0
C779 C 0.67397 0.72487 1.00597 0.0
C780 C 0.70159 0.7729 1.01061 0.0
C781 C 0.6945 0.79515 0.04977 0.0
C782 C 0.60436 0.65033 0.03302 0.0
C783 C 0.74161 0.80029 0.97704 0.0
H784 H 0.75866 0.65288 0.9699 0.0
H785 H 0.69208 0.67801 0.8516 0.0
H786 H 0.74954 0.72452 0.05152 0.0
H787 H 0.70068 0.67019 0.06499 0.0
H788 H 0.7541 0.67347 0.049 0.0
H789 H 0.62742 0.69031 0.87044 0.0
H790 H 0.62256 0.71139 0.9287 0.0
H791 H 0.66803 0.74744 0.88757 0.0
H792 H 0.60588 0.70466 0.10596 0.0
H793 H 0.71817 0.83125 0.05534 0.0
H794 H 0.62089 0.63111 0.04665 0.0
H795 H 0.596 0.64146 0.99442 0.0
H796 H 0.57212 0.63895 0.05367 0.0
H797 H 0.76682 0.78832 0.98043 0.0
H798 H 0.75917 0.8375 0.98483 0.0
H799 H 0.72998 0.79514 0.93905 0.0
C800 C 0.06588 0.71647 0.46029 0.0
C801 C 0.10844 0.75689 0.45948 0.0
C802 C 0.03808 0.70254 0.502 0.0
C803 C 0.05331 0.72947 0.54433 0.0
C804 C 0.09896 0.76649 0.54565 0.0
C805 C 0.12589 0.77996 0.50311 0.0
C806 C 0.98998 0.66277 0.49832 0.0
C807 C 0.11743 0.79545 0.5902 0.0
C808 C 0.96211 0.74695 0.60646 0.0
C809 C 0.94779 0.71601 0.64555 0.0
C810 C 0.99665 0.75191 0.57437 0.0
C811 C 0.01875 0.72589 0.58133 0.0
C812 C 0.00583 0.69567 0.62161 0.0
C813 C 0.97024 0.69073 0.65296 0.0
C814 C 0.00852 0.78432 0.53193 0.0
C815 C 0.02885 0.66783 0.63105 0.0
H816 H 0.05182 0.69889 0.42655 0.0
H817 H 0.15831 0.81171 0.50273 0.0
H818 H 0.97988 0.6418 0.53179 0.0
H819 H 0.96594 0.67601 0.49348 0.0
H820 H 0.98617 0.64049 0.46717 0.0
H821 H 0.15542 0.81528 0.58972 0.0
H822 H 0.10454 0.81999 0.59195 0.0
H823 H 0.10576 0.77399 0.62336 0.0
H824 H 0.94542 0.76686 0.59987 0.0
H825 H 0.95975 0.66676 0.68289 0.0
H826 H 0.00217 0.76522 0.49763 0.0
H827 H 0.04534 0.81047 0.5327 0.0
H828 H 0.98829 0.80217 0.53168 0.0
H829 H 0.01722 0.64002 0.60413 0.0
H830 H 0.02079 0.65217 0.66769 0.0
H831 H 0.06651 0.68936 0.62712 0.0
C832 C 0.29305 0.05681 0.92027 0.0
C833 C 0.32628 0.10272 0.92814 0.0
C834 C 0.26804 0.02764 0.95858 0.0
C835 C 0.27685 0.04426 1.00645 0.0
C836 C 0.30952 0.09078 1.01476 0.0
C837 C 0.33378 0.11948 0.97552 0.0
C838 C 0.23322 0.97848 0.94787 0.0
C839 C 0.31995 0.10981 0.06526 0.0
C840 C 0.19623 0.96441 0.10494 0.0
C841 C 0.2196 0.94158 0.11931 0.0
C842 C 0.21489 -0.00082 0.06925 0.0
C843 C 0.25768 0.01111 0.04752 0.0
C844 C 0.28171 0.98897 0.06284 0.0
C845 C 0.26254 0.95481 0.09819 0.0
C846 C 0.18846 0.02242 0.0541 0.0
C847 C 0.32743 0.00044 0.04093 0.0
H848 H 0.28633 0.0434 0.88389 0.0
H849 H 0.35867 0.15502 0.98204 0.0
H850 H 0.24492 0.95552 0.963 0.0
H851 H 0.20002 0.96924 0.96532 0.0
H852 H 0.22758 0.97192 0.90853 0.0
H853 H 0.34157 0.14766 0.06531 0.0
H854 H 0.28783 0.10007 0.0854 0.0
H855 H 0.33824 0.09507 0.08504 0.0
H856 H 0.16339 0.95499 0.12121 0.0
H857 H 0.28157 0.9381 0.10879 0.0
H858 H 0.17581 0.01215 1.01675 0.0
H859 H 0.21096 0.06011 0.05393 0.0
H860 H 0.15873 0.01339 0.07824 0.0
H861 H 0.32321 0.99169 1.00201 0.0
H862 H 0.34284 0.98172 0.05868 0.0
H863 H 0.3518 0.03765 0.04373 0.0
C864 C 0.30028 0.24382 0.62194 0.0
C865 C 0.30199 0.20377 0.61325 0.0
C866 C 0.28762 0.26417 0.58505 0.0
C867 C 0.27713 0.24426 0.53846 0.0
C868 C 0.28055 0.2048 0.52924 0.0
C869 C 0.29271 0.185 0.56671 0.0
C870 C 0.28403 0.30607 0.59628 0.0
C871 C 0.27035 0.18279 0.48001 0.0
C872 C 0.19994 0.26343 0.4531 0.0
C873 C 0.23179 0.29666 0.42139 0.0
C874 C 0.21429 0.24704 0.49216 0.0
C875 C 0.26161 0.26376 0.49931 0.0
C876 C 0.29389 0.29714 0.46733 0.0
C877 C 0.27862 0.31336 0.42896 0.0
C878 C 0.17878 0.2117 0.52568 0.0
C879 C 0.34457 0.31539 0.47336 0.0
H880 H 0.30706 0.25815 0.65794 0.0
H881 H 0.29445 0.15425 0.55964 0.0
H882 H 0.3052 0.33404 0.57051 0.0
H883 H 0.2481 0.29815 0.59194 0.0
H884 H 0.29514 0.31848 0.63361 0.0
H885 H 0.27618 0.15314 0.47842 0.0
H886 H 0.23422 0.17089 0.47045 0.0
H887 H 0.29213 0.20815 0.45219 0.0
H888 H 0.16373 0.25085 0.44802 0.0
H889 H 0.30347 0.33903 0.40466 0.0
H890 H 0.18625 0.22363 0.56358 0.0
H891 H 0.17996 0.17943 0.52351 0.0
H892 H 0.14358 0.20422 0.51686 0.0
H893 H 0.35538 0.32989 0.50999 0.0
H894 H 0.3653 0.34227 0.44627 0.0
H895 H 0.35224 0.2871 0.46979 0.0
C896 C 0.03898 0.35682 0.10296 0.0
C897 C 0.084 0.3651 0.10566 0.0
C898 C 0.01488 0.34386 0.05934 0.0
C899 C 0.03644 0.33909 1.01752 0.0
C900 C 0.08401 0.35456 1.01854 0.0
C901 C 0.10737 0.36739 0.06283 0.0
C902 C 0.96451 0.32865 0.05999 0.0
C903 C 0.10876 0.35175 0.97436 0.0
C904 C 0.95997 0.22832 0.95264 0.0
C905 C 0.94198 0.24228 0.9148 0.0
C906 C 0.99199 0.25982 0.98477 0.0
C907 C 0.00732 0.30706 0.97892 0.0
C908 C 0.99148 0.32191 0.93919 0.0
C909 C 0.95868 0.28928 0.90774 0.0
C910 C 0.00781 0.24202 0.02639 0.0
C911 C 0.0076 0.37189 0.9308 0.0
H912 H 0.02093 0.35525 0.13606 0.0
H913 H 0.14217 0.37363 0.06469 0.0
H914 H 0.95477 0.34038 0.02699 0.0
H915 H 0.94447 0.29071 0.06085 0.0
H916 H 0.95488 0.34174 0.09211 0.0
H917 H 0.14642 0.37355 0.97786 0.0
H918 H 0.10076 0.31587 0.9693 0.0
H919 H 0.09737 0.36223 0.94158 0.0
H920 H 0.94807 0.19226 0.95821 0.0
H921 H 0.94534 0.30059 0.87847 0.0
H922 H -0.00243 0.25071 0.06115 0.0
H923 H 0.04563 0.25836 0.02609 0.0
H924 H 0.99324 0.20436 0.02517 0.0
H925 H 0.9869 0.3821 0.95332 0.0
H926 H 0.00347 0.37883 0.89245 0.0
H927 H 0.04399 0.39362 0.94103 0.0
C928 C 0.76627 0.08199 0.58666 0.0
C929 C 0.76866 0.07236 0.6356 0.0
C930 C 0.75479 0.04845 0.55092 0.0
C931 C 0.74567 0.00396 0.56403 0.0
C932 C 0.74763 0.99383 0.61339 0.0
C933 C 0.75897 0.02801 0.64842 0.0
C934 C 0.75263 0.06081 0.49893 0.0
C935 C 0.73842 0.94708 0.62934 0.0
C936 C 0.66901 0.90828 0.47875 0.0
C937 C 0.70038 0.90209 0.4506 0.0
C938 C 0.68334 0.94039 0.51613 0.0
C939 C 0.73045 0.9673 0.52647 0.0
C940 C 0.76242 0.96025 0.49959 0.0
C941 C 0.74704 0.92769 0.46199 0.0
C942 C 0.64792 0.94638 0.54374 0.0
C943 C 0.81288 0.98762 0.51011 0.0
H944 H 0.77399 0.11609 0.57605 0.0
H945 H 0.76084 0.02006 0.68591 0.0
H946 H 0.77906 0.05812 0.47754 0.0
H947 H 0.71887 0.03654 0.48331 0.0
H948 H 0.75834 0.09608 0.49488 0.0
H949 H 0.73455 0.94263 0.66914 0.0
H950 H 0.70698 0.91976 0.61228 0.0
H951 H 0.76731 0.94227 0.6178 0.0
H952 H 0.63278 0.88845 0.47106 0.0
H953 H 0.77162 0.92331 0.44068 0.0
H954 H 0.65413 0.98169 0.53846 0.0
H955 H 0.65068 0.94151 0.58296 0.0
H956 H 0.61247 0.92197 0.53215 0.0
H957 H 0.82481 0.02473 0.5074 0.0
H958 H 0.83356 0.9794 0.48501 0.0
H959 H 0.81922 0.98068 0.54765 0.0
loop_
_geom_bond_atom_site_label_1
_geom_bond_atom_site_label_2
_geom_bond_distance
_geom_bond_site_symmetry_2
_ccdc_geom_bond_type
Fe0 O1 1.886 . S
Fe0 O4 1.715 . S
Fe0 O9 2.077 . S
Fe0 O14 1.935 . S
Fe0 O20 2.077 . S
Fe0 O29 1.935 . S
O1 Fe0 1.886 . S
O1 Fe3 1.715 . S
Fe2 O4 1.886 . S
Fe2 O5 1.715 . S
Fe2 O12 1.935 . S
Fe2 O13 2.077 . S
Fe2 O19 1.935 . S
Fe2 O28 2.077 . S
Fe3 O1 1.715 . S
Fe3 O6 1.886 . S
Fe3 O10 1.935 . S
Fe3 O15 2.077 . S
Fe3 O21 1.935 . S
Fe3 O25 2.077 . S
O4 Fe0 1.715 . S
O4 Fe2 1.886 . S
O5 Fe2 1.715 . S
O5 Fe7 1.886 . S
O6 Fe3 1.886 . S
O6 Fe7 1.715 . S
Fe7 O5 1.886 . S
Fe7 O6 1.715 . S
Fe7 O11 2.077 . S
Fe7 O16 1.935 . S
Fe7 O18 2.077 . S
Fe7 O26 1.935 . S
C8 O20 1.381 . S
C8 O21 1.421 . S
O9 Fe0 2.077 . S
O9 C22 1.381 . S
O10 Fe3 1.935 . S
O10 C22 1.421 . S
O11 Fe7 2.077 . S
O11 C27 1.381 . S
O12 Fe2 1.935 . S
O12 C27 1.421 . S
O13 Fe2 2.077 . S
O13 C17 1.381 . S
O14 Fe0 1.935 . S
O14 C17 1.421 . S
O15 Fe3 2.077 . S
O15 C23 1.381 . S
O16 Fe7 1.935 . S
O16 C23 1.421 . S
C17 O13 1.381 . S
C17 O14 1.421 . S
O18 Fe7 2.077 . S
O18 C30 1.381 . S
O19 Fe2 1.935 . S
O19 C30 1.421 . S
O20 Fe0 2.077 . S
O20 C8 1.381 . S
O21 Fe3 1.935 . S
O21 C8 1.421 . S
C22 O9 1.381 . S
C22 O10 1.421 . S
C23 O15 1.381 . S
C23 O16 1.421 . S
C24 O25 1.381 . S
C24 O26 1.421 . S
O25 Fe3 2.077 . S
O25 C24 1.381 . S
O26 Fe7 1.935 . S
O26 C24 1.421 . S
C27 O11 1.381 . S
C27 O12 1.421 . S
O28 Fe2 2.077 . S
O28 C31 1.381 . S
O29 Fe0 1.935 . S
O29 C31 1.421 . S
C30 O18 1.381 . S
C30 O19 1.421 . S
C31 O28 1.381 . S
C31 O29 1.421 . S
Fe32 O33 1.886 . S
Fe32 O36 1.715 . S
Fe32 O41 2.077 . S
Fe32 O46 1.935 . S
Fe32 O52 2.077 . S
Fe32 O61 1.935 . S
O33 Fe32 1.886 . S
O33 Fe35 1.715 . S
Fe34 O36 1.886 . S
Fe34 O37 1.715 . S
Fe34 O44 1.935 . S
Fe34 O45 2.077 . S
Fe34 O51 1.935 . S
Fe34 O60 2.077 . S
Fe35 O33 1.715 . S
Fe35 O38 1.886 . S
Fe35 O42 1.935 . S
Fe35 O47 2.077 . S
Fe35 O53 1.935 . S
Fe35 O57 2.077 . S
O36 Fe32 1.715 . S
O36 Fe34 1.886 . S
O37 Fe34 1.715 . S
O37 Fe39 1.886 . S
O38 Fe35 1.886 . S
O38 Fe39 1.715 . S
Fe39 O37 1.886 . S
Fe39 O38 1.715 . S
Fe39 O43 2.077 . S
Fe39 O48 1.935 . S
Fe39 O50 2.077 . S
Fe39 O58 1.935 . S
C40 O52 1.381 . S
C40 O53 1.421 . S
O41 Fe32 2.077 . S
O41 C54 1.381 . S
O42 Fe35 1.935 . S
O42 C54 1.421 . S
O43 Fe39 2.077 . S
O43 C59 1.381 . S
O44 Fe34 1.935 . S
O44 C59 1.421 . S
O45 Fe34 2.077 . S
O45 C49 1.381 . S
O46 Fe32 1.935 . S
O46 C49 1.421 . S
O47 Fe35 2.077 . S
O47 C55 1.381 . S
O48 Fe39 1.935 . S
O48 C55 1.421 . S
C49 O45 1.381 . S
C49 O46 1.421 . S
O50 Fe39 2.077 . S
O50 C62 1.381 . S
O51 Fe34 1.935 . S
O51 C62 1.421 . S
O52 Fe32 2.077 . S
O52 C40 1.381 . S
O53 Fe35 1.935 . S
O53 C40 1.421 . S
C54 O41 1.381 . S
C54 O42 1.421 . S
C55 O47 1.381 . S
C55 O48 1.421 . S
C56 O57 1.381 . S
C56 O58 1.421 . S
O57 Fe35 2.077 . S
O57 C56 1.381 . S
O58 Fe39 1.935 . S
O58 C56 1.421 . S
C59 O43 1.381 . S
C59 O44 1.421 . S
O60 Fe34 2.077 . S
O60 C63 1.381 . S
O61 Fe32 1.935 . S
O61 C63 1.421 . S
C62 O50 1.381 . S
C62 O51 1.421 . S
C63 O60 1.381 . S
C63 O61 1.421 . S
Fe64 O65 1.886 . S
Fe64 O68 1.715 . S
Fe64 O73 2.077 . S
Fe64 O78 1.935 . S
Fe64 O84 2.077 . S
Fe64 O93 1.935 . S
O65 Fe64 1.886 . S
O65 Fe67 1.715 . S
Fe66 O68 1.886 . S
Fe66 O69 1.715 . S
Fe66 O76 1.935 . S
Fe66 O77 2.077 . S
Fe66 O83 1.935 . S
Fe66 O92 2.077 . S
Fe67 O65 1.715 . S
Fe67 O70 1.886 . S
Fe67 O74 1.935 . S
Fe67 O79 2.077 . S
Fe67 O85 1.935 . S
Fe67 O89 2.077 . S
O68 Fe64 1.715 . S
O68 Fe66 1.886 . S
O69 Fe66 1.715 . S
O69 Fe71 1.886 . S
O70 Fe67 1.886 . S
O70 Fe71 1.715 . S
Fe71 O69 1.886 . S
Fe71 O70 1.715 . S
Fe71 O75 2.077 . S
Fe71 O80 1.935 . S
Fe71 O82 2.077 . S
Fe71 O90 1.935 . S
C72 O84 1.381 . S
C72 O85 1.421 . S
O73 Fe64 2.077 . S
O73 C86 1.381 . S
O74 Fe67 1.935 . S
O74 C86 1.421 . S
O75 Fe71 2.077 . S
O75 C91 1.381 . S
O76 Fe66 1.935 . S
O76 C91 1.421 . S
O77 Fe66 2.077 . S
O77 C81 1.381 . S
O78 Fe64 1.935 . S
O78 C81 1.421 . S
O79 Fe67 2.077 . S
O79 C87 1.381 . S
O80 Fe71 1.935 . S
O80 C87 1.421 . S
C81 O77 1.381 . S
C81 O78 1.421 . S
O82 Fe71 2.077 . S
O82 C94 1.381 . S
O83 Fe66 1.935 . S
O83 C94 1.421 . S
O84 Fe64 2.077 . S
O84 C72 1.381 . S
O85 Fe67 1.935 . S
O85 C72 1.421 . S
C86 O73 1.381 . S
C86 O74 1.421 . S
C87 O79 1.381 . S
C87 O80 1.421 . S
C88 O89 1.381 . S
C88 O90 1.421 . S
O89 Fe67 2.077 . S
O89 C88 1.381 . S
O90 Fe71 1.935 . S
O90 C88 1.421 . S
C91 O75 1.381 . S
C91 O76 1.421 . S
O92 Fe66 2.077 . S
O92 C95 1.381 . S
O93 Fe64 1.935 . S
O93 C95 1.421 . S
C94 O82 1.381 . S
C94 O83 1.421 . S
C95 O92 1.381 . S
C95 O93 1.421 . S
Fe96 O97 1.886 . S
Fe96 O100 1.715 . S
Fe96 O105 2.077 . S
Fe96 O110 1.935 . S
Fe96 O116 2.077 . S
Fe96 O125 1.935 . S
O97 Fe96 1.886 . S
O97 Fe99 1.715 . S
Fe98 O100 1.886 . S
Fe98 O101 1.715 . S
Fe98 O108 1.935 . S
Fe98 O109 2.077 . S
Fe98 O115 1.935 . S
Fe98 O124 2.077 . S
Fe99 O97 1.715 . S
Fe99 O102 1.886 . S
Fe99 O106 1.935 . S
Fe99 O111 2.077 . S
Fe99 O117 1.935 . S
Fe99 O121 2.077 . S
O100 Fe96 1.715 . S
O100 Fe98 1.886 . S
O101 Fe98 1.715 . S
O101 Fe103 1.886 . S
O102 Fe99 1.886 . S
O102 Fe103 1.715 . S
Fe103 O101 1.886 . S
Fe103 O102 1.715 . S
Fe103 O107 2.077 . S
Fe103 O112 1.935 . S
Fe103 O114 2.077 . S
Fe103 O122 1.935 . S
C104 O116 1.381 . S
C104 O117 1.421 . S
O105 Fe96 2.077 . S
O105 C118 1.381 . S
O106 Fe99 1.935 . S
O106 C118 1.421 . S
O107 Fe103 2.077 . S
O107 C123 1.381 . S
O108 Fe98 1.935 . S
O108 C123 1.421 . S
O109 Fe98 2.077 . S
O109 C113 1.381 . S
O110 Fe96 1.935 . S
O110 C113 1.421 . S
O111 Fe99 2.077 . S
O111 C119 1.381 . S
O112 Fe103 1.935 . S
O112 C119 1.421 . S
C113 O109 1.381 . S
C113 O110 1.421 . S
O114 Fe103 2.077 . S
O114 C126 1.381 . S
O115 Fe98 1.935 . S
O115 C126 1.421 . S
O116 Fe96 2.077 . S
O116 C104 1.381 . S
O117 Fe99 1.935 . S
O117 C104 1.421 . S
C118 O105 1.381 . S
C118 O106 1.421 . S
C119 O111 1.381 . S
C119 O112 1.421 . S
C120 O121 1.381 . S
C120 O122 1.421 . S
O121 Fe99 2.077 . S
O121 C120 1.381 . S
O122 Fe103 1.935 . S
O122 C120 1.421 . S
C123 O107 1.381 . S
C123 O108 1.421 . S
O124 Fe98 2.077 . S
O124 C127 1.381 . S
O125 Fe96 1.935 . S
O125 C127 1.421 . S
C126 O114 1.381 . S
C126 O115 1.421 . S
C127 O124 1.381 . S
C127 O125 1.421 . S
Fe128 O129 1.886 . S
Fe128 O132 1.715 . S
Fe128 O137 2.077 . S
Fe128 O142 1.935 . S
Fe128 O148 2.077 . S
Fe128 O157 1.935 . S
O129 Fe128 1.886 . S
O129 Fe131 1.715 . S
Fe130 O132 1.886 . S
Fe130 O133 1.715 . S
Fe130 O140 1.935 . S
Fe130 O141 2.077 . S
Fe130 O147 1.935 . S
Fe130 O156 2.077 . S
Fe131 O129 1.715 . S
Fe131 O134 1.886 . S
Fe131 O138 1.935 . S
Fe131 O143 2.077 . S
Fe131 O149 1.935 . S
Fe131 O153 2.077 . S
O132 Fe128 1.715 . S
O132 Fe130 1.886 . S
O133 Fe130 1.715 . S
O133 Fe135 1.886 . S
O134 Fe131 1.886 . S
O134 Fe135 1.715 . S
Fe135 O133 1.886 . S
Fe135 O134 1.715 . S
Fe135 O139 2.077 . S
Fe135 O144 1.935 . S
Fe135 O146 2.077 . S
Fe135 O154 1.935 . S
C136 O148 1.381 . S
C136 O149 1.421 . S
O137 Fe128 2.077 . S
O137 C150 1.381 . S
O138 Fe131 1.935 . S
O138 C150 1.421 . S
O139 Fe135 2.077 . S
O139 C155 1.381 . S
O140 Fe130 1.935 . S
O140 C155 1.421 . S
O141 Fe130 2.077 . S
O141 C145 1.381 . S
O142 Fe128 1.935 . S
O142 C145 1.421 . S
O143 Fe131 2.077 . S
O143 C151 1.381 . S
O144 Fe135 1.935 . S
O144 C151 1.421 . S
C145 O141 1.381 . S
C145 O142 1.421 . S
O146 Fe135 2.077 . S
O146 C158 1.381 . S
O147 Fe130 1.935 . S
O147 C158 1.421 . S
O148 Fe128 2.077 . S
O148 C136 1.381 . S
O149 Fe131 1.935 . S
O149 C136 1.421 . S
C150 O137 1.381 . S
C150 O138 1.421 . S
C151 O143 1.381 . S
C151 O144 1.421 . S
C152 O153 1.381 . S
C152 O154 1.421 . S
O153 Fe131 2.077 . S
O153 C152 1.381 . S
O154 Fe135 1.935 . S
O154 C152 1.421 . S
C155 O139 1.381 . S
C155 O140 1.421 . S
O156 Fe130 2.077 . S
O156 C159 1.381 . S
O157 Fe128 1.935 . S
O157 C159 1.421 . S
C158 O146 1.381 . S
C158 O147 1.421 . S
C159 O156 1.381 . S
C159 O157 1.421 . S
Fe160 O161 1.886 . S
Fe160 O164 1.715 . S
Fe160 O169 2.077 . S
Fe160 O174 1.935 . S
Fe160 O180 2.077 . S
Fe160 O189 1.935 . S
O161 Fe160 1.886 . S
O161 Fe163 1.715 . S
Fe162 O164 1.886 . S
Fe162 O165 1.715 . S
Fe162 O172 1.935 . S
Fe162 O173 2.077 . S
Fe162 O179 1.935 . S
Fe162 O188 2.077 . S
Fe163 O161 1.715 . S
Fe163 O166 1.886 . S
Fe163 O170 1.935 . S
Fe163 O175 2.077 . S
Fe163 O181 1.935 . S
Fe163 O185 2.077 . S
O164 Fe160 1.715 . S
O164 Fe162 1.886 . S
O165 Fe162 1.715 . S
O165 Fe167 1.886 . S
O166 Fe163 1.886 . S
O166 Fe167 1.715 . S
Fe167 O165 1.886 . S
Fe167 O166 1.715 . S
Fe167 O171 2.077 . S
Fe167 O176 1.935 . S
Fe167 O178 2.077 . S
Fe167 O186 1.935 . S
C168 O180 1.381 . S
C168 O181 1.421 . S
O169 Fe160 2.077 . S
O169 C182 1.381 . S
O170 Fe163 1.935 . S
O170 C182 1.421 . S
O171 Fe167 2.077 . S
O171 C187 1.381 . S
O172 Fe162 1.935 . S
O172 C187 1.421 . S
O173 Fe162 2.077 . S
O173 C177 1.381 . S
O174 Fe160 1.935 . S
O174 C177 1.421 . S
O175 Fe163 2.077 . S
O175 C183 1.381 . S
O176 Fe167 1.935 . S
O176 C183 1.421 . S
C177 O173 1.381 . S
C177 O174 1.421 . S
O178 Fe167 2.077 . S
O178 C190 1.381 . S
O179 Fe162 1.935 . S
O179 C190 1.421 . S
O180 Fe160 2.077 . S
O180 C168 1.381 . S
O181 Fe163 1.935 . S
O181 C168 1.421 . S
C182 O169 1.381 . S
C182 O170 1.421 . S
C183 O175 1.381 . S
C183 O176 1.421 . S
C184 O185 1.381 . S
C184 O186 1.421 . S
O185 Fe163 2.077 . S
O185 C184 1.381 . S
O186 Fe167 1.935 . S
O186 C184 1.421 . S
C187 O171 1.381 . S
C187 O172 1.421 . S
O188 Fe162 2.077 . S
O188 C191 1.381 . S
O189 Fe160 1.935 . S
O189 C191 1.421 . S
C190 O178 1.381 . S
C190 O179 1.421 . S
C191 O188 1.381 . S
C191 O189 1.421 . S
C192 C193 1.391 . S
C192 C194 1.394 . S
C192 H208 0.931 . S
C193 C192 1.391 . S
C193 C197 1.376 . S
C194 C192 1.394 . S
C194 C195 1.369 . S
C194 C198 1.531 . S
C195 C194 1.369 . S
C195 C196 1.410 . S
C195 C203 1.503 . S
C196 C195 1.410 . S
C196 C197 1.392 . S
C196 C199 1.511 . S
C197 C193 1.376 . S
C197 C196 1.392 . S
C197 H209 0.929 . S
C198 C194 1.531 . S
C198 H210 0.960 . S
C198 H211 0.962 . S
C198 H212 0.960 . S
C199 C196 1.511 . S
C199 H213 0.961 . S
C199 H214 0.961 . S
C199 H215 0.961 . S
C200 C201 1.370 . S
C200 C202 1.363 . S
C200 H216 0.931 . S
C201 C200 1.370 . S
C201 C205 1.408 . S
C202 C200 1.363 . S
C202 C203 1.370 . S
C202 C206 1.524 . S
C203 C195 1.503 . S
C203 C202 1.370 . S
C203 C204 1.403 . S
C204 C203 1.403 . S
C204 C205 1.404 . S
C204 C207 1.539 . S
C205 C201 1.408 . S
C205 C204 1.404 . S
C205 H217 0.930 . S
C206 C202 1.524 . S
C206 H218 0.956 . S
C206 H219 0.961 . S
C206 H220 0.961 . S
C207 C204 1.539 . S
C207 H221 0.958 . S
C207 H222 0.961 . S
C207 H223 0.960 . S
H208 C192 0.931 . S
H209 C197 0.929 . S
H210 C198 0.960 . S
H211 C198 0.962 . S
H212 C198 0.960 . S
H213 C199 0.961 . S
H214 C199 0.961 . S
H215 C199 0.961 . S
H216 C200 0.931 . S
H217 C205 0.930 . S
H218 C206 0.956 . S
H219 C206 0.961 . S
H220 C206 0.961 . S
H221 C207 0.958 . S
H222 C207 0.961 . S
H223 C207 0.960 . S
C224 C225 1.391 . S
C224 C226 1.394 . S
C224 H240 0.931 . S
C225 C224 1.391 . S
C225 C229 1.376 . S
C226 C224 1.394 . S
C226 C227 1.369 . S
C226 C230 1.531 . S
C227 C226 1.369 . S
C227 C228 1.410 . S
C227 C235 1.503 . S
C228 C227 1.410 . S
C228 C229 1.392 . S
C228 C231 1.511 . S
C229 C225 1.376 . S
C229 C228 1.392 . S
C229 H241 0.929 . S
C230 C226 1.531 . S
C230 H242 0.960 . S
C230 H243 0.962 . S
C230 H244 0.960 . S
C231 C228 1.511 . S
C231 H245 0.961 . S
C231 H246 0.961 . S
C231 H247 0.961 . S
C232 C233 1.370 . S
C232 C234 1.363 . S
C232 H248 0.931 . S
C233 C232 1.370 . S
C233 C237 1.408 . S
C234 C232 1.363 . S
C234 C235 1.370 . S
C234 C238 1.524 . S
C235 C227 1.503 . S
C235 C234 1.370 . S
C235 C236 1.403 . S
C236 C235 1.403 . S
C236 C237 1.404 . S
C236 C239 1.539 . S
C237 C233 1.408 . S
C237 C236 1.404 . S
C237 H249 0.930 . S
C238 C234 1.524 . S
C238 H250 0.956 . S
C238 H251 0.961 . S
C238 H252 0.961 . S
C239 C236 1.539 . S
C239 H253 0.958 . S
C239 H254 0.961 . S
C239 H255 0.960 . S
H240 C224 0.931 . S
H241 C229 0.929 . S
H242 C230 0.960 . S
H243 C230 0.962 . S
H244 C230 0.960 . S
H245 C231 0.961 . S
H246 C231 0.961 . S
H247 C231 0.961 . S
H248 C232 0.931 . S
H249 C237 0.930 . S
H250 C238 0.956 . S
H251 C238 0.961 . S
H252 C238 0.961 . S
H253 C239 0.958 . S
H254 C239 0.961 . S
H255 C239 0.960 . S
C256 C257 1.391 . S
C256 C258 1.394 . S
C256 H272 0.931 . S
C257 C256 1.391 . S
C257 C261 1.376 . S
C258 C256 1.394 . S
C258 C259 1.369 . S
C258 C262 1.531 . S
C259 C258 1.369 . S
C259 C260 1.410 . S
C259 C267 1.503 . S
C260 C259 1.410 . S
C260 C261 1.392 . S
C260 C263 1.511 . S
C261 C257 1.376 . S
C261 C260 1.392 . S
C261 H273 0.929 . S
C262 C258 1.531 . S
C262 H274 0.960 . S
C262 H275 0.962 . S
C262 H276 0.960 . S
C263 C260 1.511 . S
C263 H277 0.961 . S
C263 H278 0.961 . S
C263 H279 0.961 . S
C264 C265 1.370 . S
C264 C266 1.363 . S
C264 H280 0.931 . S
C265 C264 1.370 . S
C265 C269 1.408 . S
C266 C264 1.363 . S
C266 C267 1.370 . S
C266 C270 1.524 . S
C267 C259 1.503 . S
C267 C266 1.370 . S
C267 C268 1.403 . S
C268 C267 1.403 . S
C268 C269 1.404 . S
C268 C271 1.539 . S
C269 C265 1.408 . S
C269 C268 1.404 . S
C269 H281 0.930 . S
C270 C266 1.524 . S
C270 H282 0.956 . S
C270 H283 0.961 . S
C270 H284 0.961 . S
C271 C268 1.539 . S
C271 H285 0.958 . S
C271 H286 0.961 . S
C271 H287 0.960 . S
H272 C256 0.931 . S
H273 C261 0.929 . S
H274 C262 0.960 . S
H275 C262 0.962 . S
H276 C262 0.960 . S
H277 C263 0.961 . S
H278 C263 0.961 . S
H279 C263 0.961 . S
H280 C264 0.931 . S
H281 C269 0.930 . S
H282 C270 0.956 . S
H283 C270 0.961 . S
H284 C270 0.961 . S
H285 C271 0.958 . S
H286 C271 0.961 . S
H287 C271 0.960 . S
C288 C289 1.391 . S
C288 C290 1.394 . S
C288 H304 0.931 . S
C289 C288 1.391 . S
C289 C293 1.376 . S
C290 C288 1.394 . S
C290 C291 1.369 . S
C290 C294 1.531 . S
C291 C290 1.369 . S
C291 C292 1.410 . S
C291 C299 1.503 . S
C292 C291 1.410 . S
C292 C293 1.392 . S
C292 C295 1.511 . S
C293 C289 1.376 . S
C293 C292 1.392 . S
C293 H305 0.929 . S
C294 C290 1.531 . S
C294 H306 0.960 . S
C294 H307 0.962 . S
C294 H308 0.960 . S
C295 C292 1.511 . S
C295 H309 0.961 . S
C295 H310 0.961 . S
C295 H311 0.961 . S
C296 C297 1.370 . S
C296 C298 1.363 . S
C296 H312 0.931 . S
C297 C296 1.370 . S
C297 C301 1.408 . S
C298 C296 1.363 . S
C298 C299 1.370 . S
C298 C302 1.524 . S
C299 C291 1.503 . S
C299 C298 1.370 . S
C299 C300 1.403 . S
C300 C299 1.403 . S
C300 C301 1.404 . S
C300 C303 1.539 . S
C301 C297 1.408 . S
C301 C300 1.404 . S
C301 H313 0.930 . S
C302 C298 1.524 . S
C302 H314 0.956 . S
C302 H315 0.961 . S
C302 H316 0.961 . S
C303 C300 1.539 . S
C303 H317 0.958 . S
C303 H318 0.961 . S
C303 H319 0.960 . S
H304 C288 0.931 . S
H305 C293 0.929 . S
H306 C294 0.960 . S
H307 C294 0.962 . S
H308 C294 0.960 . S
H309 C295 0.961 . S
H310 C295 0.961 . S
H311 C295 0.961 . S
H312 C296 0.931 . S
H313 C301 0.930 . S
H314 C302 0.956 . S
H315 C302 0.961 . S
H316 C302 0.961 . S
H317 C303 0.958 . S
H318 C303 0.961 . S
H319 C303 0.960 . S
C320 C321 1.391 . S
C320 C322 1.394 . S
C320 H336 0.931 . S
C321 C320 1.391 . S
C321 C325 1.376 . S
C322 C320 1.394 . S
C322 C323 1.369 . S
C322 C326 1.531 . S
C323 C322 1.369 . S
C323 C324 1.410 . S
C323 C331 1.503 . S
C324 C323 1.410 . S
C324 C325 1.392 . S
C324 C327 1.511 . S
C325 C321 1.376 . S
C325 C324 1.392 . S
C325 H337 0.929 . S
C326 C322 1.531 . S
C326 H338 0.960 . S
C326 H339 0.962 . S
C326 H340 0.960 . S
C327 C324 1.511 . S
C327 H341 0.961 . S
C327 H342 0.961 . S
C327 H343 0.961 . S
C328 C329 1.370 . S
C328 C330 1.363 . S
C328 H344 0.931 . S
C329 C328 1.370 . S
C329 C333 1.408 . S
C330 C328 1.363 . S
C330 C331 1.370 . S
C330 C334 1.524 . S
C331 C323 1.503 . S
C331 C330 1.370 . S
C331 C332 1.403 . S
C332 C331 1.403 . S
C332 C333 1.404 . S
C332 C335 1.539 . S
C333 C329 1.408 . S
C333 C332 1.404 . S
C333 H345 0.930 . S
C334 C330 1.524 . S
C334 H346 0.956 . S
C334 H347 0.961 . S
C334 H348 0.961 . S
C335 C332 1.539 . S
C335 H349 0.958 . S
C335 H350 0.961 . S
C335 H351 0.960 . S
H336 C320 0.931 . S
H337 C325 0.929 . S
H338 C326 0.960 . S
H339 C326 0.962 . S
H340 C326 0.960 . S
H341 C327 0.961 . S
H342 C327 0.961 . S
H343 C327 0.961 . S
H344 C328 0.931 . S
H345 C333 0.930 . S
H346 C334 0.956 . S
H347 C334 0.961 . S
H348 C334 0.961 . S
H349 C335 0.958 . S
H350 C335 0.961 . S
H351 C335 0.960 . S
C352 C353 1.391 . S
C352 C354 1.394 . S
C352 H368 0.931 . S
C353 C352 1.391 . S
C353 C357 1.376 . S
C354 C352 1.394 . S
C354 C355 1.369 . S
C354 C358 1.531 . S
C355 C354 1.369 . S
C355 C356 1.410 . S
C355 C363 1.503 . S
C356 C355 1.410 . S
C356 C357 1.392 . S
C356 C359 1.511 . S
C357 C353 1.376 . S
C357 C356 1.392 . S
C357 H369 0.929 . S
C358 C354 1.531 . S
C358 H370 0.960 . S
C358 H371 0.962 . S
C358 H372 0.960 . S
C359 C356 1.511 . S
C359 H373 0.961 . S
C359 H374 0.961 . S
C359 H375 0.961 . S
C360 C361 1.370 . S
C360 C362 1.363 . S
C360 H376 0.931 . S
C361 C360 1.370 . S
C361 C365 1.408 . S
C362 C360 1.363 . S
C362 C363 1.370 . S
C362 C366 1.524 . S
C363 C355 1.503 . S
C363 C362 1.370 . S
C363 C364 1.403 . S
C364 C363 1.403 . S
C364 C365 1.404 . S
C364 C367 1.539 . S
C365 C361 1.408 . S
C365 C364 1.404 . S
C365 H377 0.930 . S
C366 C362 1.524 . S
C366 H378 0.956 . S
C366 H379 0.961 . S
C366 H380 0.961 . S
C367 C364 1.539 . S
C367 H381 0.958 . S
C367 H382 0.961 . S
C367 H383 0.960 . S
H368 C352 0.931 . S
H369 C357 0.929 . S
H370 C358 0.960 . S
H371 C358 0.962 . S
H372 C358 0.960 . S
H373 C359 0.961 . S
H374 C359 0.961 . S
H375 C359 0.961 . S
H376 C360 0.931 . S
H377 C365 0.930 . S
H378 C366 0.956 . S
H379 C366 0.961 . S
H380 C366 0.961 . S
H381 C367 0.958 . S
H382 C367 0.961 . S
H383 C367 0.960 . S
C384 C385 1.391 . S
C384 C386 1.394 . S
C384 H400 0.931 . S
C385 C384 1.391 . S
C385 C389 1.376 . S
C386 C384 1.394 . S
C386 C387 1.369 . S
C386 C390 1.531 . S
C387 C386 1.369 . S
C387 C388 1.410 . S
C387 C395 1.503 . S
C388 C387 1.410 . S
C388 C389 1.392 . S
C388 C391 1.511 . S
C389 C385 1.376 . S
C389 C388 1.392 . S
C389 H401 0.929 . S
C390 C386 1.531 . S
C390 H402 0.960 . S
C390 H403 0.962 . S
C390 H404 0.960 . S
C391 C388 1.511 . S
C391 H405 0.961 . S
C391 H406 0.961 . S
C391 H407 0.961 . S
C392 C393 1.370 1_545 S
C392 C394 1.363 . S
C392 H408 0.931 1_545 S
C393 C392 1.370 1_565 S
C393 C397 1.408 1_565 S
C394 C392 1.363 . S
C394 C395 1.370 . S
C394 C398 1.524 . S
C395 C387 1.503 . S
C395 C394 1.370 . S
C395 C396 1.403 . S
C396 C395 1.403 . S
C396 C397 1.404 . S
C396 C399 1.539 . S
C397 C393 1.408 1_545 S
C397 C396 1.404 . S
C397 H409 0.931 . S
C398 C394 1.524 . S
C398 H410 0.956 . S
C398 H411 0.961 . S
C398 H412 0.961 . S
C399 C396 1.539 . S
C399 H413 0.958 . S
C399 H414 0.961 . S
C399 H415 0.960 . S
H400 C384 0.931 . S
H401 C389 0.929 . S
H402 C390 0.960 . S
H403 C390 0.962 . S
H404 C390 0.960 . S
H405 C391 0.961 . S
H406 C391 0.961 . S
H407 C391 0.961 . S
H408 C392 0.931 1_565 S
H409 C397 0.931 . S
H410 C398 0.956 . S
H411 C398 0.961 . S
H412 C398 0.961 . S
H413 C399 0.958 . S
H414 C399 0.961 . S
H415 C399 0.960 . S
C416 C417 1.391 . S
C416 C418 1.394 1_655 S
C416 H432 0.931 . S
C417 C416 1.391 . S
C417 C421 1.376 1_655 S
C418 C416 1.394 1_455 S
C418 C419 1.369 . S
C418 C422 1.531 . S
C419 C418 1.369 . S
C419 C420 1.410 . S
C419 C427 1.503 . S
C420 C419 1.410 . S
C420 C421 1.392 . S
C420 C423 1.511 . S
C421 C417 1.376 1_455 S
C421 C420 1.392 . S
C421 H433 0.929 . S
C422 C418 1.531 . S
C422 H434 0.960 . S
C422 H435 0.962 . S
C422 H436 0.944 1_455 S
C423 C420 1.511 . S
C423 H437 0.961 . S
C423 H438 0.961 . S
C423 H439 0.961 . S
C424 C425 1.370 . S
C424 C426 1.363 . S
C424 H440 0.931 . S
C425 C424 1.370 . S
C425 C429 1.408 . S
C426 C424 1.363 . S
C426 C427 1.370 . S
C426 C430 1.524 . S
C427 C419 1.503 . S
C427 C426 1.370 . S
C427 C428 1.403 . S
C428 C427 1.403 . S
C428 C429 1.404 . S
C428 C431 1.539 . S
C429 C425 1.408 . S
C429 C428 1.404 . S
C429 H441 0.930 . S
C430 C426 1.524 . S
C430 H442 0.956 . S
C430 H443 0.961 . S
C430 H444 0.961 . S
C431 C428 1.539 . S
C431 H445 0.958 . S
C431 H446 0.961 . S
C431 H447 0.960 . S
H432 C416 0.931 . S
H433 C421 0.929 . S
H434 C422 0.960 . S
H435 C422 0.962 . S
H436 C422 0.944 1_655 S
H437 C423 0.961 . S
H438 C423 0.961 . S
H439 C423 0.961 . S
H440 C424 0.931 . S
H441 C429 0.930 . S
H442 C430 0.956 . S
H443 C430 0.961 . S
H444 C430 0.961 . S
H445 C431 0.958 . S
H446 C431 0.961 . S
H447 C431 0.960 . S
C448 C449 1.391 . S
C448 C450 1.394 1_455 S
C448 H464 0.931 . S
C449 C448 1.391 . S
C449 C453 1.376 1_455 S
C450 C448 1.394 1_655 S
C450 C451 1.369 . S
C450 C454 1.531 . S
C451 C450 1.369 . S
C451 C452 1.410 . S
C451 C459 1.503 . S
C452 C451 1.410 . S
C452 C453 1.392 . S
C452 C455 1.511 . S
C453 C449 1.376 1_655 S
C453 C452 1.392 . S
C453 H465 0.929 . S
C454 C450 1.531 . S
C454 H466 0.960 . S
C454 H467 0.962 . S
C454 H468 0.960 . S
C455 C452 1.511 . S
C455 H469 0.961 . S
C455 H470 0.961 . S
C455 H471 0.961 . S
C456 C457 1.370 . S
C456 C458 1.363 1_565 S
C456 H472 0.931 . S
C457 C456 1.370 . S
C457 C461 1.408 1_565 S
C458 C456 1.363 1_545 S
C458 C459 1.370 . S
C458 C462 1.524 . S
C459 C451 1.503 . S
C459 C458 1.370 . S
C459 C460 1.403 . S
C460 C459 1.403 . S
C460 C461 1.404 . S
C460 C463 1.539 . S
C461 C457 1.408 1_545 S
C461 C460 1.404 . S
C461 H473 0.930 . S
C462 C458 1.524 . S
C462 H474 0.956 . S
C462 H475 0.961 . S
C462 H476 0.961 . S
C463 C460 1.539 . S
C463 H477 0.958 . S
C463 H478 0.961 . S
C463 H479 0.960 . S
H464 C448 0.931 . S
H465 C453 0.929 . S
H466 C454 0.960 . S
H467 C454 0.962 . S
H468 C454 0.960 . S
H469 C455 0.961 . S
H470 C455 0.961 . S
H471 C455 0.961 . S
H472 C456 0.931 . S
H473 C461 0.930 . S
H474 C462 0.956 . S
H475 C462 0.961 . S
H476 C462 0.961 . S
H477 C463 0.958 . S
H478 C463 0.961 . S
H479 C463 0.960 . S
C480 C481 1.391 1_565 S
C480 C482 1.394 . S
C480 H496 0.931 . S
C481 C480 1.391 1_545 S
C481 C485 1.376 . S
C482 C480 1.394 . S
C482 C483 1.369 . S
C482 C486 1.531 . S
C483 C482 1.369 . S
C483 C484 1.410 . S
C483 C491 1.503 . S
C484 C483 1.410 . S
C484 C485 1.392 1_565 S
C484 C487 1.511 . S
C485 C481 1.376 . S
C485 C484 1.392 1_545 S
C485 H497 0.929 . S
C486 C482 1.531 . S
C486 H498 0.960 . S
C486 H499 0.962 . S
C486 H500 0.960 . S
C487 C484 1.511 . S
C487 H501 0.961 1_565 S
C487 H502 0.961 . S
C487 H503 0.961 . S
C488 C489 1.370 . S
C488 C490 1.363 . S
C488 H504 0.931 . S
C489 C488 1.370 . S
C489 C493 1.408 . S
C490 C488 1.363 . S
C490 C491 1.370 . S
C490 C494 1.524 . S
C491 C483 1.503 . S
C491 C490 1.370 . S
C491 C492 1.403 . S
C492 C491 1.403 . S
C492 C493 1.404 . S
C492 C495 1.539 . S
C493 C489 1.408 . S
C493 C492 1.404 . S
C493 H505 0.930 . S
C494 C490 1.524 . S
C494 H506 0.956 . S
C494 H507 0.961 . S
C494 H508 0.961 . S
C495 C492 1.539 . S
C495 H509 0.958 . S
C495 H510 0.961 . S
C495 H511 0.960 . S
H496 C480 0.931 . S
H497 C485 0.929 . S
H498 C486 0.960 . S
H499 C486 0.962 . S
H500 C486 0.960 . S
H501 C487 0.961 1_545 S
H502 C487 0.961 . S
H503 C487 0.961 . S
H504 C488 0.931 . S
H505 C493 0.930 . S
H506 C494 0.956 . S
H507 C494 0.961 . S
H508 C494 0.961 . S
H509 C495 0.958 . S
H510 C495 0.961 . S
H511 C495 0.960 . S
C512 C513 1.391 . S
C512 C514 1.394 . S
C512 H528 0.931 . S
C513 C512 1.391 . S
C513 C517 1.376 . S
C514 C512 1.394 . S
C514 C515 1.369 . S
C514 C518 1.531 . S
C515 C514 1.369 . S
C515 C516 1.410 . S
C515 C523 1.503 . S
C516 C515 1.410 . S
C516 C517 1.392 . S
C516 C519 1.511 . S
C517 C513 1.376 . S
C517 C516 1.392 . S
C517 H529 0.929 . S
C518 C514 1.531 . S
C518 H530 0.960 . S
C518 H531 0.962 . S
C518 H532 0.960 . S
C519 C516 1.511 . S
C519 H533 0.961 . S
C519 H534 0.961 . S
C519 H535 0.961 . S
C520 C521 1.370 1_655 S
C520 C522 1.363 . S
C520 H536 0.931 . S
C521 C520 1.370 1_455 S
C521 C525 1.408 . S
C522 C520 1.363 . S
C522 C523 1.370 . S
C522 C526 1.524 . S
C523 C515 1.503 . S
C523 C522 1.370 . S
C523 C524 1.403 . S
C524 C523 1.403 . S
C524 C525 1.404 1_655 S
C524 C527 1.539 . S
C525 C521 1.408 . S
C525 C524 1.404 1_455 S
C525 H537 0.930 . S
C526 C522 1.524 . S
C526 H538 0.956 . S
C526 H539 0.961 . S
C526 H540 0.961 . S
C527 C524 1.539 . S
C527 H541 0.958 . S
C527 H542 0.961 . S
C527 H543 0.960 . S
H528 C512 0.931 . S
H529 C517 0.929 . S
H530 C518 0.960 . S
H531 C518 0.962 . S
H532 C518 0.960 . S
H533 C519 0.961 . S
H534 C519 0.961 . S
H535 C519 0.961 . S
H536 C520 0.931 . S
H537 C525 0.930 . S
H538 C526 0.956 . S
H539 C526 0.961 . S
H540 C526 0.961 . S
H541 C527 0.958 . S
H542 C527 0.961 . S
H543 C527 0.960 . S
C544 C545 1.391 . S
C544 C546 1.394 1_545 S
C544 H560 0.931 . S
C545 C544 1.391 . S
C545 C549 1.376 1_545 S
C546 C544 1.394 1_565 S
C546 C547 1.369 . S
C546 C550 1.531 . S
C547 C546 1.369 . S
C547 C548 1.410 . S
C547 C555 1.503 . S
C548 C547 1.410 . S
C548 C549 1.392 . S
C548 C551 1.511 . S
C549 C545 1.376 1_565 S
C549 C548 1.392 . S
C549 H561 0.929 . S
C550 C546 1.531 . S
C550 H562 0.960 . S
C550 H563 0.962 . S
C550 H564 0.957 1_565 S
C551 C548 1.511 . S
C551 H565 0.961 . S
C551 H566 0.961 . S
C551 H567 0.961 . S
C552 C553 1.370 1_455 S
C552 C554 1.363 . S
C552 H568 0.931 1_455 S
C553 C552 1.370 1_655 S
C553 C557 1.408 1_655 S
C554 C552 1.363 . S
C554 C555 1.370 . S
C554 C558 1.524 . S
C555 C547 1.503 . S
C555 C554 1.370 . S
C555 C556 1.403 . S
C556 C555 1.403 . S
C556 C557 1.404 . S
C556 C559 1.539 . S
C557 C553 1.408 1_455 S
C557 C556 1.404 . S
C557 H569 0.930 1_455 S
C558 C554 1.524 . S
C558 H570 0.956 . S
C558 H571 0.961 . S
C558 H572 0.961 . S
C559 C556 1.539 . S
C559 H573 0.958 . S
C559 H574 0.961 . S
C559 H575 0.960 . S
H560 C544 0.931 . S
H561 C549 0.929 . S
H562 C550 0.960 . S
H563 C550 0.962 . S
H564 C550 0.957 1_545 S
H565 C551 0.961 . S
H566 C551 0.961 . S
H567 C551 0.961 . S
H568 C552 0.931 1_655 S
H569 C557 0.930 1_655 S
H570 C558 0.956 . S
H571 C558 0.961 . S
H572 C558 0.961 . S
H573 C559 0.958 . S
H574 C559 0.961 . S
H575 C559 0.960 . S
C576 C577 1.391 . S
C576 C578 1.394 . S
C576 H592 0.931 . S
C577 C576 1.391 . S
C577 C581 1.376 . S
C578 C576 1.394 . S
C578 C579 1.369 . S
C578 C582 1.531 1_554 S
C579 C578 1.369 . S
C579 C580 1.410 . S
C579 C587 1.503 1_554 S
C580 C579 1.410 . S
C580 C581 1.392 . S
C580 C583 1.511 . S
C581 C577 1.376 . S
C581 C580 1.392 . S
C581 H593 0.929 . S
C582 C578 1.531 1_556 S
C582 H594 0.960 . S
C582 H595 0.962 . S
C582 H596 0.960 1_556 S
C583 C580 1.511 . S
C583 H597 0.961 . S
C583 H598 0.961 . S
C583 H599 0.961 . S
C584 C585 1.370 . S
C584 C586 1.363 . S
C584 H600 0.931 . S
C585 C584 1.370 . S
C585 C589 1.408 . S
C586 C584 1.363 . S
C586 C587 1.370 . S
C586 C590 1.524 . S
C587 C579 1.503 1_556 S
C587 C586 1.370 . S
C587 C588 1.403 . S
C588 C587 1.403 . S
C588 C589 1.404 . S
C588 C591 1.539 1_556 S
C589 C585 1.408 . S
C589 C588 1.404 . S
C589 H601 0.930 . S
C590 C586 1.524 . S
C590 H602 0.956 . S
C590 H603 0.961 . S
C590 H604 0.961 . S
C591 C588 1.539 1_554 S
C591 H605 0.958 . S
C591 H606 0.961 . S
C591 H607 0.960 . S
H592 C576 0.931 . S
H593 C581 0.929 . S
H594 C582 0.960 . S
H595 C582 0.962 . S
H596 C582 0.960 1_554 S
H597 C583 0.961 . S
H598 C583 0.961 . S
H599 C583 0.961 . S
H600 C584 0.931 . S
H601 C589 0.930 . S
H602 C590 0.956 . S
H603 C590 0.961 . S
H604 C590 0.961 . S
H605 C591 0.958 . S
H606 C591 0.961 . S
H607 C591 0.960 . S
C608 C609 1.391 . S
C608 C610 1.394 . S
C608 H624 0.931 . S
C609 C608 1.391 . S
C609 C613 1.376 . S
C610 C608 1.394 . S
C610 C611 1.369 . S
C610 C614 1.531 . S
C611 C610 1.369 . S
C611 C612 1.410 . S
C611 C619 1.503 1_655 S
C612 C611 1.410 . S
C612 C613 1.393 . S
C612 C615 1.510 1_655 S
C613 C609 1.376 . S
C613 C612 1.393 . S
C613 H625 0.929 . S
C614 C610 1.531 . S
C614 H626 0.960 . S
C614 H627 0.962 . S
C614 H628 0.960 . S
C615 C612 1.510 1_455 S
C615 H629 0.961 . S
C615 H630 0.961 . S
C615 H631 0.961 . S
C616 C617 1.370 . S
C616 C618 1.363 . S
C616 H632 0.931 . S
C617 C616 1.370 . S
C617 C621 1.408 . S
C618 C616 1.363 . S
C618 C619 1.370 . S
C618 C622 1.524 1_455 S
C619 C611 1.503 1_455 S
C619 C618 1.370 . S
C619 C620 1.403 . S
C620 C619 1.403 . S
C620 C621 1.404 . S
C620 C623 1.539 . S
C621 C617 1.408 . S
C621 C620 1.404 . S
C621 H633 0.930 . S
C622 C618 1.524 1_655 S
C622 H634 0.956 . S
C622 H635 0.961 . S
C622 H636 0.961 . S
C623 C620 1.539 . S
C623 H637 0.958 . S
C623 H638 0.961 . S
C623 H639 0.960 . S
H624 C608 0.931 . S
H625 C613 0.929 . S
H626 C614 0.960 . S
H627 C614 0.962 . S
H628 C614 0.960 . S
H629 C615 0.961 . S
H630 C615 0.961 . S
H631 C615 0.961 . S
H632 C616 0.931 . S
H633 C621 0.930 . S
H634 C622 0.956 . S
H635 C622 0.961 . S
H636 C622 0.961 . S
H637 C623 0.958 . S
H638 C623 0.961 . S
H639 C623 0.960 . S
C640 C641 1.391 . S
C640 C642 1.394 . S
C640 H656 0.931 . S
C641 C640 1.391 . S
C641 C645 1.376 . S
C642 C640 1.394 . S
C642 C643 1.369 . S
C642 C646 1.531 . S
C643 C642 1.369 . S
C643 C644 1.410 . S
C643 C651 1.503 1_564 S
C644 C643 1.410 . S
C644 C645 1.392 . S
C644 C647 1.511 1_565 S
C645 C641 1.376 . S
C645 C644 1.392 . S
C645 H657 0.929 . S
C646 C642 1.531 . S
C646 H658 0.960 1_565 S
C646 H659 0.962 1_554 S
C646 H660 0.960 . S
C647 C644 1.511 1_545 S
C647 H661 0.961 1_545 S
C647 H662 0.961 . S
C647 H663 0.961 . S
C648 C649 1.370 . S
C648 C650 1.368 . S
C648 H664 0.931 . S
C649 C648 1.370 . S
C649 C653 1.408 . S
C650 C648 1.368 . S
C650 C651 1.375 . S
C650 C654 1.515 1_545 S
C651 C643 1.503 1_546 S
C651 C650 1.375 . S
C651 C652 1.403 . S
C652 C651 1.403 . S
C652 C653 1.404 . S
C652 C655 1.539 1_556 S
C653 C649 1.408 . S
C653 C652 1.404 . S
C653 H665 0.930 . S
C654 C650 1.515 1_565 S
C654 H666 0.956 . S
C654 H667 0.961 . S
C654 H668 0.961 . S
C655 C652 1.539 1_554 S
C655 H669 0.958 . S
C655 H670 0.961 . S
C655 H671 0.960 . S
H656 C640 0.931 . S
H657 C645 0.929 . S
H658 C646 0.960 1_545 S
H659 C646 0.962 1_556 S
H660 C646 0.960 . S
H661 C647 0.961 1_565 S
H662 C647 0.961 . S
H663 C647 0.961 . S
H664 C648 0.931 . S
H665 C653 0.930 . S
H666 C654 0.956 . S
H667 C654 0.961 . S
H668 C654 0.961 . S
H669 C655 0.958 . S
H670 C655 0.961 . S
H671 C655 0.960 . S
C672 C673 1.391 . S
C672 C674 1.394 . S
C672 H688 0.931 . S
C673 C672 1.391 . S
C673 C677 1.376 . S
C674 C672 1.394 . S
C674 C675 1.369 . S
C674 C678 1.531 . S
C675 C674 1.369 . S
C675 C676 1.410 . S
C675 C683 1.503 . S
C676 C675 1.410 . S
C676 C677 1.392 . S
C676 C679 1.511 . S
C677 C673 1.376 . S
C677 C676 1.392 . S
C677 H689 0.929 . S
C678 C674 1.531 . S
C678 H690 0.960 . S
C678 H691 0.962 . S
C678 H692 0.960 . S
C679 C676 1.511 . S
C679 H693 0.961 . S
C679 H694 0.961 . S
C679 H695 0.961 . S
C680 C681 1.370 . S
C680 C682 1.363 . S
C680 H696 0.931 . S
C681 C680 1.370 . S
C681 C685 1.408 . S
C682 C680 1.363 . S
C682 C683 1.370 . S
C682 C686 1.524 . S
C683 C675 1.503 . S
C683 C682 1.370 . S
C683 C684 1.403 . S
C684 C683 1.403 . S
C684 C685 1.404 . S
C684 C687 1.539 . S
C685 C681 1.408 . S
C685 C684 1.404 . S
C685 H697 0.930 . S
C686 C682 1.524 . S
C686 H698 0.956 . S
C686 H699 0.961 . S
C686 H700 0.961 . S
C687 C684 1.539 . S
C687 H701 0.958 . S
C687 H702 0.961 . S
C687 H703 0.960 . S
H688 C672 0.931 . S
H689 C677 0.929 . S
H690 C678 0.960 . S
H691 C678 0.962 . S
H692 C678 0.960 . S
H693 C679 0.961 . S
H694 C679 0.961 . S
H695 C679 0.961 . S
H696 C680 0.931 . S
H697 C685 0.930 . S
H698 C686 0.956 . S
H699 C686 0.961 . S
H700 C686 0.961 . S
H701 C687 0.958 . S
H702 C687 0.961 . S
H703 C687 0.960 . S
C704 C705 1.391 . S
C704 C706 1.394 1_655 S
C704 H720 0.931 . S
C705 C704 1.391 . S
C705 C709 1.376 . S
C706 C704 1.394 1_455 S
C706 C707 1.369 1_455 S
C706 C710 1.531 . S
C707 C706 1.369 1_655 S
C707 C708 1.410 . S
C707 C715 1.503 1_656 S
C708 C707 1.410 . S
C708 C709 1.392 . S
C708 C711 1.511 1_556 S
C709 C705 1.376 . S
C709 C708 1.392 . S
C709 H721 0.929 . S
C710 C706 1.531 . S
C710 H722 0.960 . S
C710 H723 0.962 . S
C710 H724 0.960 . S
C711 C708 1.511 1_554 S
C711 H725 0.961 . S
C711 H726 0.961 . S
C711 H727 0.961 . S
C712 C713 1.370 . S
C712 C714 1.363 . S
C712 H728 0.931 . S
C713 C712 1.370 . S
C713 C717 1.408 . S
C714 C712 1.363 . S
C714 C715 1.370 . S
C714 C718 1.524 1_455 S
C715 C707 1.503 1_454 S
C715 C714 1.370 . S
C715 C716 1.403 . S
C716 C715 1.403 . S
C716 C717 1.404 . S
C716 C719 1.539 . S
C717 C713 1.408 . S
C717 C716 1.404 . S
C717 H729 0.930 . S
C718 C714 1.524 1_655 S
C718 H730 0.956 1_655 S
C718 H731 0.961 . S
C718 H732 0.961 . S
C719 C716 1.539 . S
C719 H733 0.958 1_554 S
C719 H734 0.961 . S
C719 H735 0.960 1_554 S
H720 C704 0.931 . S
H721 C709 0.929 . S
H722 C710 0.960 . S
H723 C710 0.962 . S
H724 C710 0.960 . S
H725 C711 0.961 . S
H726 C711 0.961 . S
H727 C711 0.961 . S
H728 C712 0.931 . S
H729 C717 0.930 . S
H730 C718 0.956 1_455 S
H731 C718 0.961 . S
H732 C718 0.961 . S
H733 C719 0.958 1_556 S
H734 C719 0.961 . S
H735 C719 0.960 1_556 S
C736 C737 1.391 . S
C736 C738 1.394 . S
C736 H752 0.931 . S
C737 C736 1.391 . S
C737 C741 1.376 . S
C738 C736 1.394 . S
C738 C739 1.369 . S
C738 C742 1.531 . S
C739 C738 1.369 . S
C739 C740 1.410 1_545 S
C739 C747 1.503 1_545 S
C740 C739 1.410 1_565 S
C740 C741 1.392 1_565 S
C740 C743 1.511 . S
C741 C737 1.376 . S
C741 C740 1.392 1_545 S
C741 H753 0.929 . S
C742 C738 1.531 . S
C742 H754 0.960 . S
C742 H755 0.962 . S
C742 H756 0.960 . S
C743 C740 1.511 . S
C743 H757 0.961 . S
C743 H758 0.961 . S
C743 H759 0.961 . S
C744 C745 1.370 . S
C744 C746 1.363 . S
C744 H760 0.931 . S
C745 C744 1.370 . S
C745 C749 1.408 . S
C746 C744 1.363 . S
C746 C747 1.370 . S
C746 C750 1.524 . S
C747 C739 1.503 1_565 S
C747 C746 1.370 . S
C747 C748 1.403 . S
C748 C747 1.403 . S
C748 C749 1.404 . S
C748 C751 1.539 . S
C749 C745 1.408 . S
C749 C748 1.404 . S
C749 H761 0.930 . S
C750 C746 1.524 . S
C750 H762 0.956 1_565 S
C750 H763 0.961 . S
C750 H764 0.961 . S
C751 C748 1.539 . S
C751 H765 0.958 1_565 S
C751 H766 0.961 . S
C751 H767 0.960 . S
H752 C736 0.931 . S
H753 C741 0.929 . S
H754 C742 0.960 . S
H755 C742 0.962 . S
H756 C742 0.960 . S
H757 C743 0.961 . S
H758 C743 0.961 . S
H759 C743 0.961 . S
H760 C744 0.931 . S
H761 C749 0.930 . S
H762 C750 0.956 1_545 S
H763 C750 0.961 . S
H764 C750 0.961 . S
H765 C751 0.958 1_545 S
H766 C751 0.961 . S
H767 C751 0.960 . S
C768 C769 1.391 . S
C768 C770 1.394 . S
C768 H784 0.931 . S
C769 C768 1.391 . S
C769 C773 1.376 . S
C770 C768 1.394 . S
C770 C771 1.369 . S
C770 C774 1.531 1_556 S
C771 C770 1.369 . S
C771 C772 1.410 . S
C771 C779 1.503 1_556 S
C772 C771 1.410 . S
C772 C773 1.392 . S
C772 C775 1.511 . S
C773 C769 1.376 . S
C773 C772 1.392 . S
C773 H785 0.929 . S
C774 C770 1.531 1_554 S
C774 H786 0.960 . S
C774 H787 0.962 . S
C774 H788 0.960 . S
C775 C772 1.511 . S
C775 H789 0.961 . S
C775 H790 0.961 . S
C775 H791 0.961 . S
C776 C777 1.370 . S
C776 C778 1.363 . S
C776 H792 0.931 . S
C777 C776 1.370 . S
C777 C781 1.408 . S
C778 C776 1.363 . S
C778 C779 1.370 . S
C778 C782 1.524 . S
C779 C771 1.503 1_554 S
C779 C778 1.370 . S
C779 C780 1.403 . S
C780 C779 1.403 . S
C780 C781 1.404 . S
C780 C783 1.539 1_554 S
C781 C777 1.408 . S
C781 C780 1.404 . S
C781 H793 0.930 . S
C782 C778 1.524 . S
C782 H794 0.956 . S
C782 H795 0.961 . S
C782 H796 0.961 . S
C783 C780 1.539 1_556 S
C783 H797 0.958 . S
C783 H798 0.961 . S
C783 H799 0.960 . S
H784 C768 0.931 . S
H785 C773 0.929 . S
H786 C774 0.960 . S
H787 C774 0.962 . S
H788 C774 0.960 . S
H789 C775 0.961 . S
H790 C775 0.961 . S
H791 C775 0.961 . S
H792 C776 0.931 . S
H793 C781 0.930 . S
H794 C782 0.956 . S
H795 C782 0.961 . S
H796 C782 0.961 . S
H797 C783 0.958 . S
H798 C783 0.961 . S
H799 C783 0.960 . S
C800 C801 1.391 . S
C800 C802 1.394 1_455 S
C800 H816 0.931 . S
C801 C800 1.391 . S
C801 C805 1.376 . S
C802 C800 1.394 1_655 S
C802 C803 1.369 1_655 S
C802 C806 1.531 . S
C803 C802 1.369 1_455 S
C803 C804 1.410 . S
C803 C811 1.503 1_455 S
C804 C803 1.410 . S
C804 C805 1.392 . S
C804 C807 1.511 . S
C805 C801 1.376 . S
C805 C804 1.392 . S
C805 H817 0.929 . S
C806 C802 1.531 . S
C806 H818 0.960 . S
C806 H819 0.962 . S
C806 H820 0.960 . S
C807 C804 1.511 . S
C807 H821 0.961 . S
C807 H822 0.961 . S
C807 H823 0.961 . S
C808 C809 1.370 . S
C808 C810 1.363 . S
C808 H824 0.931 . S
C809 C808 1.370 . S
C809 C813 1.408 . S
C810 C808 1.363 . S
C810 C811 1.370 . S
C810 C814 1.524 1_655 S
C811 C803 1.503 1_655 S
C811 C810 1.370 . S
C811 C812 1.403 . S
C812 C811 1.403 . S
C812 C813 1.404 . S
C812 C815 1.539 . S
C813 C809 1.408 . S
C813 C812 1.404 . S
C813 H825 0.930 . S
C814 C810 1.524 1_455 S
C814 H826 0.954 1_455 S
C814 H827 0.961 . S
C814 H828 0.961 . S
C815 C812 1.539 . S
C815 H829 0.958 . S
C815 H830 0.961 . S
C815 H831 0.960 . S
H816 C800 0.931 . S
H817 C805 0.929 . S
H818 C806 0.960 . S
H819 C806 0.962 . S
H820 C806 0.960 . S
H821 C807 0.961 . S
H822 C807 0.961 . S
H823 C807 0.961 . S
H824 C808 0.931 . S
H825 C813 0.930 . S
H826 C814 0.954 1_655 S
H827 C814 0.961 . S
H828 C814 0.961 . S
H829 C815 0.958 . S
H830 C815 0.961 . S
H831 C815 0.960 . S
C832 C833 1.391 . S
C832 C834 1.394 1_545 S
C832 H848 0.931 . S
C833 C832 1.391 . S
C833 C837 1.376 . S
C834 C832 1.394 1_565 S
C834 C835 1.369 1_565 S
C834 C838 1.531 . S
C835 C834 1.369 1_545 S
C835 C836 1.410 . S
C835 C843 1.503 1_546 S
C836 C835 1.410 . S
C836 C837 1.392 . S
C836 C839 1.511 1_556 S
C837 C833 1.376 . S
C837 C836 1.392 . S
C837 H849 0.929 . S
C838 C834 1.531 . S
C838 H850 0.960 . S
C838 H851 0.962 . S
C838 H852 0.960 . S
C839 C836 1.511 1_554 S
C839 H853 0.961 . S
C839 H854 0.961 . S
C839 H855 0.961 . S
C840 C841 1.370 . S
C840 C842 1.363 . S
C840 H856 0.931 . S
C841 C840 1.370 . S
C841 C845 1.408 . S
C842 C840 1.363 . S
C842 C843 1.370 . S
C842 C846 1.524 1_565 S
C843 C835 1.503 1_564 S
C843 C842 1.370 . S
C843 C844 1.403 . S
C844 C843 1.403 . S
C844 C845 1.404 . S
C844 C847 1.539 1_554 S
C845 C841 1.408 . S
C845 C844 1.404 . S
C845 H857 0.930 . S
C846 C842 1.524 1_545 S
C846 H858 0.956 . S
C846 H859 0.961 . S
C846 H860 0.961 . S
C847 C844 1.539 1_556 S
C847 H861 0.958 . S
C847 H862 0.961 1_556 S
C847 H863 0.960 . S
H848 C832 0.931 . S
H849 C837 0.929 . S
H850 C838 0.960 . S
H851 C838 0.962 . S
H852 C838 0.960 . S
H853 C839 0.961 . S
H854 C839 0.961 . S
H855 C839 0.961 . S
H856 C840 0.931 . S
H857 C845 0.930 . S
H858 C846 0.956 . S
H859 C846 0.961 . S
H860 C846 0.961 . S
H861 C847 0.958 . S
H862 C847 0.961 1_554 S
H863 C847 0.960 . S
C864 C865 1.391 . S
C864 C866 1.394 . S
C864 H880 0.931 . S
C865 C864 1.391 . S
C865 C869 1.376 . S
C866 C864 1.394 . S
C866 C867 1.369 . S
C866 C870 1.531 . S
C867 C866 1.369 . S
C867 C868 1.410 . S
C867 C875 1.503 . S
C868 C867 1.410 . S
C868 C869 1.392 . S
C868 C871 1.511 . S
C869 C865 1.376 . S
C869 C868 1.392 . S
C869 H881 0.929 . S
C870 C866 1.531 . S
C870 H882 0.960 . S
C870 H883 0.962 . S
C870 H884 0.960 . S
C871 C868 1.511 . S
C871 H885 0.961 . S
C871 H886 0.961 . S
C871 H887 0.961 . S
C872 C873 1.370 . S
C872 C874 1.363 . S
C872 H888 0.931 . S
C873 C872 1.370 . S
C873 C877 1.408 . S
C874 C872 1.363 . S
C874 C875 1.370 . S
C874 C878 1.524 . S
C875 C867 1.503 . S
C875 C874 1.370 . S
C875 C876 1.403 . S
C876 C875 1.403 . S
C876 C877 1.404 . S
C876 C879 1.539 . S
C877 C873 1.408 . S
C877 C876 1.404 . S
C877 H889 0.930 . S
C878 C874 1.524 . S
C878 H890 0.956 . S
C878 H891 0.961 . S
C878 H892 0.961 . S
C879 C876 1.539 . S
C879 H893 0.958 . S
C879 H894 0.961 . S
C879 H895 0.960 . S
H880 C864 0.931 . S
H881 C869 0.929 . S
H882 C870 0.960 . S
H883 C870 0.962 . S
H884 C870 0.960 . S
H885 C871 0.961 . S
H886 C871 0.961 . S
H887 C871 0.961 . S
H888 C872 0.931 . S
H889 C877 0.930 . S
H890 C878 0.956 . S
H891 C878 0.961 . S
H892 C878 0.961 . S
H893 C879 0.958 . S
H894 C879 0.961 . S
H895 C879 0.960 . S
C896 C897 1.391 . S
C896 C898 1.394 1_455 S
C896 H912 0.931 . S
C897 C896 1.391 . S
C897 C901 1.376 . S
C898 C896 1.394 1_655 S
C898 C899 1.369 1_655 S
C898 C902 1.531 . S
C899 C898 1.369 1_455 S
C899 C900 1.410 . S
C899 C907 1.503 1_454 S
C900 C899 1.410 . S
C900 C901 1.392 . S
C900 C903 1.511 1_554 S
C901 C897 1.376 . S
C901 C900 1.392 . S
C901 H913 0.929 . S
C902 C898 1.531 . S
C902 H914 0.960 . S
C902 H915 0.962 . S
C902 H916 0.960 . S
C903 C900 1.511 1_556 S
C903 H917 0.961 . S
C903 H918 0.961 . S
C903 H919 0.961 . S
C904 C905 1.370 . S
C904 C906 1.363 . S
C904 H920 0.931 . S
C905 C904 1.370 . S
C905 C909 1.408 . S
C906 C904 1.363 . S
C906 C907 1.370 . S
C906 C910 1.524 . S
C907 C899 1.503 1_656 S
C907 C906 1.370 . S
C907 C908 1.403 . S
C908 C907 1.403 . S
C908 C909 1.404 . S
C908 C911 1.539 1_655 S
C909 C905 1.408 . S
C909 C908 1.404 . S
C909 H921 0.930 . S
C910 C906 1.524 . S
C910 H922 0.956 1_556 S
C910 H923 0.961 1_655 S
C910 H924 0.961 . S
C911 C908 1.539 1_455 S
C911 H925 0.958 1_455 S
C911 H926 0.961 . S
C911 H927 0.960 . S
H912 C896 0.931 . S
H913 C901 0.929 . S
H914 C902 0.960 . S
H915 C902 0.962 . S
H916 C902 0.960 . S
H917 C903 0.961 . S
H918 C903 0.961 . S
H919 C903 0.961 . S
H920 C904 0.931 . S
H921 C909 0.930 . S
H922 C910 0.956 1_554 S
H923 C910 0.961 1_455 S
H924 C910 0.961 . S
H925 C911 0.958 1_655 S
H926 C911 0.961 . S
H927 C911 0.960 . S
C928 C929 1.391 . S
C928 C930 1.394 . S
C928 H944 0.931 . S
C929 C928 1.391 . S
C929 C933 1.376 . S
C930 C928 1.394 . S
C930 C931 1.369 . S
C930 C934 1.531 . S
C931 C930 1.369 . S
C931 C932 1.410 . S
C931 C939 1.503 1_545 S
C932 C931 1.410 . S
C932 C933 1.392 . S
C932 C935 1.511 . S
C933 C929 1.376 . S
C933 C932 1.392 . S
C933 H945 0.929 . S
C934 C930 1.531 . S
C934 H946 0.960 . S
C934 H947 0.962 . S
C934 H948 0.960 . S
C935 C932 1.511 . S
C935 H949 0.954 1_545 S
C935 H950 0.961 1_545 S
C935 H951 0.961 . S
C936 C937 1.370 . S
C936 C938 1.363 . S
C936 H952 0.931 . S
C937 C936 1.370 . S
C937 C941 1.408 . S
C938 C936 1.363 . S
C938 C939 1.370 . S
C938 C942 1.524 . S
C939 C931 1.503 1_565 S
C939 C938 1.370 . S
C939 C940 1.403 1_565 S
C940 C939 1.403 1_545 S
C940 C941 1.404 1_545 S
C940 C943 1.539 . S
C941 C937 1.408 . S
C941 C940 1.404 1_565 S
C941 H953 0.930 . S
C942 C938 1.524 . S
C942 H954 0.956 . S
C942 H955 0.961 . S
C942 H956 0.961 . S
C943 C940 1.539 . S
C943 H957 0.958 . S
C943 H958 0.961 . S
C943 H959 0.960 . S
H944 C928 0.931 . S
H945 C933 0.929 . S
H946 C934 0.960 . S
H947 C934 0.962 . S
H948 C934 0.960 . S
H949 C935 0.954 1_565 S
H950 C935 0.961 1_565 S
H951 C935 0.961 . S
H952 C936 0.931 . S
H953 C941 0.930 . S
H954 C942 0.956 . S
H955 C942 0.961 . S
H956 C942 0.961 . S
H957 C943 0.958 . S
H958 C943 0.961 . S
H959 C943 0.960 . S
C193 C30 1.181 . S
C201 C155 1.158 . S
C225 C187 1.135 . S
C233 C62 1.142 . S
C257 C27 1.156 . S
C265 C94 1.150 . S
C289 C59 1.113 . S
C297 C126 1.128 . S
C321 C158 1.094 . S
C329 C91 1.123 . S
C353 C190 1.165 . S
C361 C123 1.154 . S
C385 C22 0.998 . S
C393 C136 0.989 . S
C417 C54 1.002 . S
C425 C168 0.998 . S
C449 C8 1.007 . S
C457 C86 1.000 . S
C481 C40 0.996 . S
C489 C118 0.989 . S
C513 C72 0.976 . S
C521 C150 0.981 . S
C545 C182 1.004 . S
C553 C104 0.998 . S
C577 C17 1.542 . S
C585 C184 1.530 . S
C609 C49 1.543 . S
C617 C24 1.531 . S
C641 C81 1.533 . S
C649 C56 1.525 . S
C673 C113 1.483 . S
C681 C88 1.525 . S
C705 C120 1.518 . S
C713 C145 1.498 . S
C737 C177 1.540 . S
C745 C152 1.541 . S
C769 C119 1.531 . S
C777 C95 1.497 . S
C801 C151 1.559 . S
C809 C127 1.523 . S
C833 C183 1.562 . S
C841 C159 1.520 . S
C865 C191 1.538 . S
C873 C23 1.546 . S
C897 C31 1.534 . S
C905 C55 1.547 . S
C929 C63 1.481 . S
C937 C87 1.540 . S
