# Generated by pormake.
# Topology uni, (4)-cn, num edge types: 1
# Building blocks:
#     Node 0, Type 0, BuildingBlock: GALJAG_clean_sbu_0, # of connection points: 4
#     Node 1, Type 0, BuildingBlock: GALJAG_clean_sbu_0, # of connection points: 4
#     Node 2, Type 0, BuildingBlock: GALJAG_clean_sbu_0, # of connection points: 4
#     Node 3, Type 0, BuildingBlock: GALJAG_clean_sbu_0, # of connection points: 4
#     Node 4, Type 0, BuildingBlock: GALJAG_clean_sbu_0, # of connection points: 4
#     Node 5, Type 0, BuildingBlock: GALJAG_clean_sbu_0, # of connection points: 4
#     Edge 6, Type (0, 0), BuildingBlock: EZIPEK_clean_linker_0, # of connection points: 2
#     Edge 7, Type (0, 0), BuildingBlock: EZIPEK_clean_linker_0, # of connection points: 2
#     Edge 8, Type (0, 0), BuildingBlock: EZIPEK_clean_linker_0, # of connection points: 2
#     Edge 9, Type (0, 0), BuildingBlock: EZIPEK_clean_linker_0, # of connection points: 2
#     Edge 10, Type (0, 0), BuildingBlock: EZIPEK_clean_linker_0, # of connection points: 2
#     Edge 11, Type (0, 0), BuildingBlock: EZIPEK_clean_linker_0, # of connection points: 2
#     Edge 12, Type (0, 0), BuildingBlock: EZIPEK_clean_linker_0, # of connection points: 2
#     Edge 13, Type (0, 0), BuildingBlock: EZIPEK_clean_linker_0, # of connection points: 2
#     Edge 14, Type (0, 0), BuildingBlock: EZIPEK_clean_linker_0, # of connection points: 2
#     Edge 15, Type (0, 0), BuildingBlock: EZIPEK_clean_linker_0, # of connection points: 2
#     Edge 16, Type (0, 0), BuildingBlock: EZIPEK_clean_linker_0, # of connection points: 2
#     Edge 17, Type (0, 0), BuildingBlock: EZIPEK_clean_linker_0, # of connection points: 2
# Relax obj value: 0.070
# Max RMSD: 0.134
# Mean RMSD: 0.134
data_MOF--net-uni--node1-GALJAG_clean_sbu_0--edge1-EZIPEK_clean_linker_0
_symmetry_space_group_name_H-M    P1
_symmetry_Int_Tables_number       1
_symmetry_cell_setting            triclinic
loop_
_symmetry_equiv_pos_as_xyz
'x, y, z'
_cell_length_a     27.655409
_cell_length_b     27.58484
_cell_length_c     18.541977
_cell_angle_alpha  89.885789
_cell_angle_beta   90.176027
_cell_angle_gamma 120.05187
loop_
_atom_site_label
_atom_site_type_symbol
_atom_site_fract_x
_atom_site_fract_y
_atom_site_fract_z
_atom_type_partial_charge
In0 In 0.63455 0.01403 0.05893 0.0
O1 O 0.59788 0.9783 0.94833 0.0
O2 O 0.58119 0.03954 0.99213 0.0
C3 C 0.64808 0.92827 0.10266 0.0
C4 C 0.733 0.10234 0.01951 0.0
C5 C 0.58087 0.02092 0.17614 0.0
O6 O 0.60714 0.92167 0.06528 0.0
O7 O 0.68343 0.97847 0.11722 0.0
O8 O 0.62956 0.05872 0.1596 0.0
O9 O 0.5587 0.98033 0.13274 0.0
C10 C 0.57491 0.00751 0.94011 0.0
O11 O 0.70473 0.10389 0.07174 0.0
O12 O 0.71262 0.05559 0.98809 0.0
In13 In 0.62664 0.62228 0.22054 0.0
O14 O 0.61333 0.56427 0.12592 0.0
O15 O 0.55154 0.58736 0.14423 0.0
C16 C 0.72856 0.63753 0.25445 0.0
C17 C 0.6439 0.72611 0.19349 0.0
C18 C 0.5612 0.56046 0.33058 0.0
O19 O 0.71119 0.63168 0.19045 0.0
O20 O 0.69555 0.63744 0.30095 0.0
O21 O 0.5735 0.6105 0.31969 0.0
O22 O 0.57995 0.54061 0.28425 0.0
C23 C 0.56833 0.56118 0.10546 0.0
O24 O 0.62686 0.70217 0.2535 0.0
O25 O 0.65394 0.69864 0.14781 0.0
In26 In 0.01874 0.63072 0.3837 0.0
O27 O 0.03961 0.62964 0.26472 0.0
O28 O 0.00968 0.55419 0.32442 0.0
C29 C 0.10725 0.72874 0.42342 0.0
C30 C 0.92888 0.63907 0.34701 0.0
C31 C 0.01301 0.57392 0.50435 0.0
O32 O 0.10954 0.70007 0.37198 0.0
O33 O 0.06032 0.70893 0.45353 0.0
O34 O 0.97716 0.58807 0.48954 0.0
O35 O 0.05087 0.58737 0.45785 0.0
C36 C 0.02543 0.5785 0.26434 0.0
O37 O 0.92498 0.59433 0.3705 0.0
O38 O 0.97792 0.68011 0.34339 0.0
In39 In 0.40835 0.01252 0.55778 0.0
O40 O 0.34809 0.91935 0.54085 0.0
O41 O 0.3179 0.97526 0.51966 0.0
C42 C 0.45921 0.00556 0.67846 0.0
C43 C 0.46611 0.02032 0.43702 0.0
C44 C 0.40137 0.10238 0.5973 0.0
O45 O 0.40907 0.97025 0.66371 0.0
O46 O 0.48387 0.04348 0.63191 0.0
O47 O 0.43492 0.10484 0.54947 0.0
O48 O 0.37069 0.05454 0.62442 0.0
C49 C 0.30808 0.92545 0.51981 0.0
O50 O 0.43657 0.04313 0.44263 0.0
O51 O 0.46725 0.99434 0.49241 0.0
In52 In 0.4013 0.39734 0.71968 0.0
O53 O 0.4398 0.34114 0.71651 0.0
O54 O 0.3565 0.30758 0.67793 0.0
C55 C 0.45672 0.44959 0.84095 0.0
C56 C 0.44924 0.4504 0.59539 0.0
C57 C 0.30364 0.39131 0.75294 0.0
O58 O 0.43242 0.39711 0.83363 0.0
O59 O 0.4541 0.476 0.78679 0.0
O60 O 0.33687 0.42515 0.70681 0.0
O61 O 0.31897 0.35958 0.7812 0.0
C62 C 0.39744 0.30028 0.68857 0.0
O63 O 0.3977 0.41575 0.60037 0.0
O64 O 0.47653 0.45923 0.6533 0.0
In65 In 0.01701 0.40431 0.88405 0.0
O66 O 0.10751 0.42573 0.8939 0.0
O67 O 0.05704 0.36442 0.81639 0.0
C68 C 0.02181 0.46343 1.002 0.0
C69 C 0.01324 0.46034 0.76682 0.0
C70 C 0.92932 0.30445 0.92247 0.0
O71 O 0.05648 0.44741 0.99036 0.0
O72 O 0.9849 0.45035 0.95393 0.0
O73 O 0.92615 0.33547 0.87502 0.0
O74 O 0.97723 0.32292 0.94967 0.0
C75 C 0.10465 0.39298 0.84472 0.0
O76 O 0.98153 0.40837 0.77481 0.0
O77 O 0.04639 0.48466 0.81854 0.0
C78 C 0.4967 0.01259 0.23863 0.0
C79 C 0.55235 0.02306 0.24258 0.0
C80 C 0.55379 0.04006 0.3725 0.0
C81 C 0.49605 0.02246 0.36986 0.0
N82 N 0.40968 0.98002 0.30219 0.0
N83 N 0.62988 0.03498 0.31636 0.0
C84 C 0.46663 0.00555 0.30337 0.0
C85 C 0.58001 0.03377 0.31033 0.0
N86 N 0.47304 0.01123 0.17328 0.0
N87 N 0.58412 0.06443 0.43353 0.0
H88 H 0.64955 0.02798 0.27306 0.0
H89 H 0.6488 0.03697 0.36581 0.0
H90 H 0.56681 0.07113 0.4797 0.0
H91 H 0.62748 0.08316 0.43572 0.0
H92 H 0.4345 0.00911 0.16799 0.0
H93 H 0.49431 0.01825 0.12458 0.0
H94 H 0.38589 0.9618 0.25601 0.0
H95 H 0.38585 0.97155 0.34878 0.0
C96 C 0.55378 0.50458 0.44162 0.0
C97 C 0.53056 0.52912 0.3959 0.0
C98 C 0.45582 0.5055 0.48372 0.0
C99 C 0.47623 0.47655 0.52595 0.0
N100 N 0.53598 0.43621 0.53478 0.0
N101 N 0.45274 0.54197 0.36586 0.0
C102 C 0.52268 0.47243 0.5019 0.0
C103 C 0.47954 0.52637 0.41472 0.0
N104 N 0.60672 0.51429 0.43016 0.0
N105 N 0.41558 0.51537 0.51064 0.0
H106 H 0.46801 0.55594 0.31403 0.0
H107 H 0.41272 0.5356 0.37404 0.0
H108 H 0.39809 0.50213 0.56167 0.0
H109 H 0.40343 0.54131 0.48526 0.0
H110 H 0.62752 0.50223 0.4666 0.0
H111 H 0.63224 0.53933 0.38849 0.0
H112 H 0.56597 0.42753 0.5146 0.0
H113 H 0.51307 0.41024 0.57748 0.0
C114 C 0.00603 0.5372 0.70365 0.0
C115 C 0.01321 0.48981 0.70002 0.0
C116 C 0.01262 0.49359 0.56804 0.0
C117 C 0.01154 0.54438 0.57176 0.0
N118 N 0.01848 0.62065 0.64354 0.0
N119 N 0.03581 0.43039 0.62923 0.0
C120 C 0.01124 0.56793 0.6397 0.0
C121 C 0.01991 0.46997 0.63233 0.0
N122 N 0.99214 0.55168 0.76754 0.0
N123 N 0.00465 0.46673 0.50347 0.0
H124 H 0.0437 0.41339 0.675 0.0
H125 H 0.04688 0.41874 0.58139 0.0
H126 H 0.99764 0.48183 0.45528 0.0
H127 H 0.99929 0.42668 0.49892 0.0
H128 H 0.98061 0.5822 0.77162 0.0
H129 H 0.98691 0.52968 0.8154 0.0
H130 H 0.02473 0.64214 0.69194 0.0
H131 H 0.02368 0.64521 0.59822 0.0
C132 C 0.48911 0.99595 0.87731 0.0
C133 C 0.5445 0.00566 0.8733 0.0
C134 C 0.5398 0.00611 0.74135 0.0
C135 C 0.48728 0.00337 0.7456 0.0
N136 N 0.41654 0.00635 0.81869 0.0
N137 N 0.62694 0.03178 0.80184 0.0
C138 C 0.463 1.00103 0.81386 0.0
C139 C 0.5711 0.01388 0.8054 0.0
N140 N 0.4606 0.97986 0.94106 0.0
N141 N 0.55903 0.9993 0.67648 0.0
H142 H 0.65211 0.04012 0.84737 0.0
H143 H 0.64949 0.044 0.75386 0.0
H144 H 0.53658 0.99169 0.6285 0.0
H145 H 0.59439 0.99529 0.67152 0.0
H146 H 0.41821 0.96663 0.94527 0.0
H147 H 0.4777 0.97433 0.98842 0.0
H148 H 0.40092 0.01117 0.86754 0.0
H149 H 0.39661 0.01142 0.77394 0.0
C150 C 0.56855 0.54984 0.97136 0.0
C151 C 0.53958 0.53234 0.03799 0.0
C152 C 0.45462 0.4645 0.97418 0.0
C153 C 0.48525 0.47798 0.90873 0.0
N154 N 0.5737 0.52635 0.84689 0.0
N155 N 0.45793 0.46707 0.10488 0.0
C156 C 0.54289 0.51874 0.90777 0.0
C157 C 0.48333 0.48803 0.04003 0.0
N158 N 0.61957 0.59766 0.96811 0.0
N159 N 0.39776 0.43114 0.97312 0.0
H160 H 0.47774 0.48292 0.15426 0.0
H161 H 0.41911 0.43087 0.10982 0.0
H162 H 0.37498 0.41395 0.92589 0.0
H163 H 0.37265 0.42475 0.01794 0.0
H164 H 0.63979 0.61572 0.91982 0.0
H165 H 0.63944 0.62248 0.01304 0.0
H166 H 0.61707 0.55104 0.84549 0.0
H167 H 0.55665 0.50394 0.79939 0.0
C168 C 0.97666 0.4681 0.11652 0.0
C169 C 0.02288 0.493 0.06895 0.0
C170 C 0.07352 0.57026 0.15412 0.0
C171 C 0.02491 0.54864 0.19768 0.0
N172 N 0.92644 0.48221 0.21295 0.0
N173 N 0.11198 0.57203 0.03622 0.0
C174 C 0.9754 0.49893 0.17697 0.0
C175 C 0.07048 0.5453 0.086 0.0
N176 N 0.93503 0.414 0.10588 0.0
N177 N 0.12321 0.61302 0.17912 0.0
H178 H 0.11104 0.55529 0.98549 0.0
H179 H 0.14477 0.61295 0.04262 0.0
H180 H 0.12761 0.63137 0.22963 0.0
H181 H 0.16114 0.62657 0.15299 0.0
H182 H 0.90333 0.39174 0.14313 0.0
H183 H 0.93521 0.38935 0.06345 0.0
H184 H 0.88798 0.45007 0.19478 0.0
H185 H 0.923 0.50356 0.25711 0.0
C186 C 0.60052 0.78703 0.18749 0.0
C187 C 0.64748 0.7802 0.17579 0.0
C188 C 0.69648 0.87196 0.11629 0.0
C189 C 0.65088 0.87999 0.13244 0.0
N190 N 0.56714 0.85243 0.20129 0.0
N191 N 0.74473 0.82107 0.14383 0.0
C192 C 0.60527 0.83976 0.17366 0.0
C193 C 0.69693 0.82417 0.14453 0.0
N194 N 0.55024 0.74249 0.20748 0.0
N195 N 0.73808 0.90848 0.07156 0.0
H196 H 0.74697 0.78737 0.16569 0.0
H197 H 0.78337 0.85419 0.12811 0.0
H198 H 0.73924 0.94394 0.04982 0.0
H199 H 0.76903 0.90126 0.05143 0.0
H200 H 0.51349 0.74424 0.2092 0.0
H201 H 0.54357 0.70214 0.21493 0.0
H202 H 0.53623 0.82665 0.23773 0.0
H203 H 0.57016 0.89139 0.1942 0.0
C204 C 0.86631 0.68093 0.34941 0.0
C205 C 0.87982 0.6417 0.32026 0.0
C206 C 0.79329 0.59856 0.24988 0.0
C207 C 0.78184 0.64051 0.27438 0.0
N208 N 0.81361 0.72885 0.3348 0.0
N209 N 0.86434 0.57383 0.22793 0.0
C210 C 0.82018 0.68389 0.32053 0.0
C211 C 0.84574 0.60365 0.26602 0.0
N212 N 0.89598 0.71373 0.40652 0.0
N213 N 0.75323 0.55223 0.21458 0.0
H214 H 0.90381 0.57853 0.23582 0.0
H215 H 0.84337 0.54945 0.18318 0.0
H216 H 0.71319 0.54522 0.20403 0.0
H217 H 0.75782 0.51789 0.20244 0.0
H218 H 0.88414 0.73866 0.43489 0.0
H219 H 0.92971 0.71241 0.4297 0.0
H220 H 0.84328 0.76431 0.36227 0.0
H221 H 0.78122 0.73328 0.31293 0.0
C222 C 0.18127 0.82867 0.40502 0.0
C223 C 0.15678 0.7803 0.44926 0.0
C224 C 0.22521 0.83126 0.54445 0.0
C225 C 0.25386 0.87737 0.49694 0.0
N226 N 0.26261 0.91854 0.37898 0.0
N227 N 0.15879 0.73222 0.55714 0.0
C228 C 0.23262 0.87597 0.42654 0.0
C229 C 0.17946 0.7807 0.51811 0.0
N230 N 0.15456 0.82993 0.34344 0.0
N231 N 0.24044 0.83651 0.61551 0.0
H232 H 0.1254 0.69417 0.5397 0.0
H233 H 0.17765 0.72852 0.60389 0.0
H234 H 0.27279 0.87347 0.63726 0.0
H235 H 0.21759 0.80637 0.65438 0.0
H236 H 0.16695 0.86604 0.31305 0.0
H237 H 0.117 0.7959 0.32588 0.0
H238 H 0.25291 0.91644 0.32435 0.0
H239 H 0.29964 0.95466 0.39259 0.0
C240 C 0.39223 0.23516 0.5913 0.0
C241 C 0.39718 0.24895 0.66566 0.0
C242 C 0.40957 0.16918 0.69442 0.0
C243 C 0.39918 0.15234 0.62103 0.0
N244 N 0.37049 0.1632 0.50188 0.0
N245 N 0.40133 0.2247 0.78962 0.0
C246 C 0.38771 0.18365 0.57 0.0
C247 C 0.40323 0.2147 0.71778 0.0
N248 N 0.3943 0.27234 0.54075 0.0
N249 N 0.4281 0.1435 0.74106 0.0
H250 H 0.39666 0.25767 0.80873 0.0
H251 H 0.39942 0.19755 0.83007 0.0
H252 H 0.43482 0.11101 0.72566 0.0
H253 H 0.44189 0.15779 0.7932 0.0
H254 H 0.39721 0.26725 0.48559 0.0
H255 H 0.39838 0.31095 0.55396 0.0
H256 H 0.35586 0.18132 0.46483 0.0
H257 H 0.36576 0.12513 0.48446 0.0
C258 C 0.20415 0.44278 0.80382 0.0
C259 C 0.15458 0.39161 0.81894 0.0
C260 C 0.20061 0.33987 0.78022 0.0
C261 C 0.25211 0.39109 0.77516 0.0
N262 N 0.3048 0.4905 0.80024 0.0
N263 N 0.10865 0.2912 0.83414 0.0
C264 C 0.25451 0.44241 0.79194 0.0
C265 C 0.15349 0.33994 0.81054 0.0
N266 N 0.20295 0.49156 0.79773 0.0
N267 N 0.19593 0.29153 0.7536 0.0
H268 H 0.07397 0.28954 0.85863 0.0
H269 H 0.10834 0.25329 0.83593 0.0
H270 H 0.22881 0.28998 0.72849 0.0
H271 H 0.15792 0.25423 0.74965 0.0
H272 H 0.2371 0.5289 0.78004 0.0
H273 H 0.16635 0.49347 0.80202 0.0
H274 H 0.30833 0.52768 0.81925 0.0
H275 H 0.34306 0.49188 0.79638 0.0
C276 C 0.83029 0.2533 0.96576 0.0
C277 C 0.87956 0.25226 0.9474 0.0
C278 C 0.83429 0.15329 0.98264 0.0
C279 C 0.78342 0.15317 0.9932 0.0
N280 N 0.72987 0.19973 0.97609 0.0
N281 N 0.9249 0.19832 0.92471 0.0
C282 C 0.78047 0.20222 0.97944 0.0
C283 C 0.8807 0.20143 0.9521 0.0
N284 N 0.83131 0.30311 0.97334 0.0
N285 N 0.83905 0.10844 1.00414 0.0
H286 H 0.95895 0.23209 0.89998 0.0
H287 H 0.92524 0.16086 0.9201 0.0
H288 H 0.80636 0.07282 0.02788 0.0
H289 H 0.87685 0.10872 1.0046 0.0
H290 H 0.79785 0.30597 0.99413 0.0
H291 H 0.86723 0.34196 0.9665 0.0
H292 H 0.72534 0.23328 0.95906 0.0
H293 H 0.69188 0.16263 0.98225 0.0
loop_
_geom_bond_atom_site_label_1
_geom_bond_atom_site_label_2
_geom_bond_distance
_geom_bond_site_symmetry_2
_ccdc_geom_bond_type
In0 O1 2.294 1_544 S
In0 O2 2.326 1_554 S
In0 O6 2.266 1_545 S
In0 O7 2.326 1_545 S
In0 O8 2.266 . S
In0 O9 2.326 1_545 S
In0 O11 2.294 . S
In0 O12 2.326 1_554 S
O1 In0 2.294 1_566 S
O1 C10 1.240 1_565 S
O2 In0 2.326 1_556 S
O2 C10 1.252 . S
C3 O6 1.252 . S
C3 O7 1.260 . S
C4 O11 1.240 1_556 S
C4 O12 1.252 . S
C5 O8 1.245 1_565 S
C5 O9 1.271 . S
O6 In0 2.266 1_565 S
O6 C3 1.252 . S
O7 In0 2.326 1_565 S
O7 C3 1.260 . S
O8 In0 2.266 . S
O8 C5 1.245 1_545 S
O9 In0 2.326 1_565 S
O9 C5 1.271 . S
C10 O1 1.240 1_545 S
C10 O2 1.252 . S
O11 In0 2.294 . S
O11 C4 1.240 1_554 S
O12 In0 2.326 1_556 S
O12 C4 1.252 . S
In13 O14 2.294 . S
In13 O15 2.326 . S
In13 O19 2.266 . S
In13 O20 2.326 . S
In13 O21 2.266 . S
In13 O22 2.326 . S
In13 O24 2.294 . S
In13 O25 2.326 . S
O14 In13 2.294 . S
O14 C23 1.240 . S
O15 In13 2.326 . S
O15 C23 1.252 . S
C16 O19 1.252 . S
C16 O20 1.260 . S
C17 O24 1.240 . S
C17 O25 1.252 . S
C18 O21 1.252 . S
C18 O22 1.260 . S
O19 In13 2.266 . S
O19 C16 1.252 . S
O20 In13 2.326 . S
O20 C16 1.260 . S
O21 In13 2.266 . S
O21 C18 1.252 . S
O22 In13 2.326 . S
O22 C18 1.260 . S
C23 O14 1.240 . S
C23 O15 1.252 . S
O24 In13 2.294 . S
O24 C17 1.240 . S
O25 In13 2.326 . S
O25 C17 1.252 . S
In26 O27 2.294 . S
In26 O28 2.326 1_455 S
In26 O32 2.266 . S
In26 O33 2.326 . S
In26 O34 2.266 1_455 S
In26 O35 2.326 . S
In26 O37 2.294 1_455 S
In26 O38 2.326 1_455 S
O27 In26 2.294 . S
O27 C36 1.240 . S
O28 In26 2.326 1_655 S
O28 C36 1.252 1_655 S
C29 O32 1.252 . S
C29 O33 1.260 . S
C30 O37 1.240 . S
C30 O38 1.252 . S
C31 O34 1.252 1_455 S
C31 O35 1.260 . S
O32 In26 2.266 . S
O32 C29 1.252 . S
O33 In26 2.326 . S
O33 C29 1.260 . S
O34 In26 2.266 1_655 S
O34 C31 1.252 1_655 S
O35 In26 2.326 . S
O35 C31 1.260 . S
C36 O27 1.240 . S
C36 O28 1.252 1_455 S
O37 In26 2.294 1_655 S
O37 C30 1.240 . S
O38 In26 2.326 1_655 S
O38 C30 1.252 . S
In39 O40 2.294 1_545 S
In39 O41 2.326 1_545 S
In39 O45 2.266 1_545 S
In39 O46 2.326 . S
In39 O47 2.266 . S
In39 O48 2.326 . S
In39 O50 2.294 . S
In39 O51 2.326 1_545 S
O40 In39 2.294 1_565 S
O40 C49 1.240 . S
O41 In39 2.326 1_565 S
O41 C49 1.252 . S
C42 O45 1.252 1_545 S
C42 O46 1.260 . S
C43 O50 1.240 1_565 S
C43 O51 1.252 . S
C44 O47 1.252 . S
C44 O48 1.260 . S
O45 In39 2.266 1_565 S
O45 C42 1.252 1_565 S
O46 In39 2.326 . S
O46 C42 1.260 . S
O47 In39 2.266 . S
O47 C44 1.252 . S
O48 In39 2.326 . S
O48 C44 1.260 . S
C49 O40 1.240 . S
C49 O41 1.252 . S
O50 In39 2.294 . S
O50 C43 1.240 1_545 S
O51 In39 2.326 1_565 S
O51 C43 1.252 . S
In52 O53 2.294 . S
In52 O54 2.326 . S
In52 O58 2.266 . S
In52 O59 2.326 . S
In52 O60 2.266 . S
In52 O61 2.326 . S
In52 O63 2.294 . S
In52 O64 2.326 . S
O53 In52 2.294 . S
O53 C62 1.240 . S
O54 In52 2.326 . S
O54 C62 1.252 . S
C55 O58 1.252 . S
C55 O59 1.260 . S
C56 O63 1.240 . S
C56 O64 1.252 . S
C57 O60 1.252 . S
C57 O61 1.260 . S
O58 In52 2.266 . S
O58 C55 1.252 . S
O59 In52 2.326 . S
O59 C55 1.260 . S
O60 In52 2.266 . S
O60 C57 1.252 . S
O61 In52 2.326 . S
O61 C57 1.260 . S
C62 O53 1.240 . S
C62 O54 1.252 . S
O63 In52 2.294 . S
O63 C56 1.240 . S
O64 In52 2.326 . S
O64 C56 1.252 . S
In65 O66 2.294 . S
In65 O67 2.326 . S
In65 O71 2.266 . S
In65 O72 2.326 1_455 S
In65 O73 2.266 1_455 S
In65 O74 2.326 1_455 S
In65 O76 2.294 1_455 S
In65 O77 2.326 . S
O66 In65 2.294 . S
O66 C75 1.240 . S
O67 In65 2.326 . S
O67 C75 1.252 . S
C68 O71 1.252 . S
C68 O72 1.260 1_455 S
C69 O76 1.240 1_455 S
C69 O77 1.252 . S
C70 O73 1.252 . S
C70 O74 1.260 . S
O71 In65 2.266 . S
O71 C68 1.252 . S
O72 In65 2.326 1_655 S
O72 C68 1.260 1_655 S
O73 In65 2.266 1_655 S
O73 C70 1.252 . S
O74 In65 2.326 1_655 S
O74 C70 1.260 . S
C75 O66 1.240 . S
C75 O67 1.252 . S
O76 In65 2.294 1_655 S
O76 C69 1.240 1_655 S
O77 In65 2.326 . S
O77 C69 1.252 . S
C78 C79 1.363 . S
C78 C84 1.379 . S
C78 N86 1.356 . S
C79 C78 1.363 . S
C79 C85 1.363 1_565 S
C80 C81 1.363 1_545 S
C80 C85 1.379 . S
C80 N87 1.356 . S
C81 C80 1.363 1_565 S
C81 C84 1.363 . S
N82 C84 1.356 . S
N82 H94 0.984 . S
N82 H95 0.985 . S
N83 C85 1.356 . S
N83 H88 0.984 . S
N83 H89 0.985 . S
C84 C78 1.379 . S
C84 C81 1.363 . S
C84 N82 1.356 . S
C85 C79 1.363 1_545 S
C85 C80 1.379 . S
C85 N83 1.356 . S
N86 C78 1.356 . S
N86 H92 0.984 . S
N86 H93 0.984 . S
N87 C80 1.356 . S
N87 H90 0.984 . S
N87 H91 0.985 . S
H88 N83 0.984 . S
H89 N83 0.985 . S
H90 N87 0.984 . S
H91 N87 0.985 . S
H92 N86 0.984 . S
H93 N86 0.984 . S
H94 N82 0.984 . S
H95 N82 0.985 . S
C96 C97 1.363 . S
C96 C102 1.379 . S
C96 N104 1.356 . S
C97 C96 1.363 . S
C97 C103 1.363 . S
C98 C99 1.363 . S
C98 C103 1.379 . S
C98 N105 1.356 . S
C99 C98 1.363 . S
C99 C102 1.363 . S
N100 C102 1.356 . S
N100 H112 0.984 . S
N100 H113 0.985 . S
N101 C103 1.356 . S
N101 H106 0.984 . S
N101 H107 0.985 . S
C102 C96 1.379 . S
C102 C99 1.363 . S
C102 N100 1.356 . S
C103 C97 1.363 . S
C103 C98 1.379 . S
C103 N101 1.356 . S
N104 C96 1.356 . S
N104 H110 0.984 . S
N104 H111 0.984 . S
N105 C98 1.356 . S
N105 H108 0.984 . S
N105 H109 0.985 . S
H106 N101 0.984 . S
H107 N101 0.985 . S
H108 N105 0.984 . S
H109 N105 0.985 . S
H110 N104 0.984 . S
H111 N104 0.984 . S
H112 N100 0.984 . S
H113 N100 0.985 . S
C114 C115 1.363 . S
C114 C120 1.379 . S
C114 N122 1.356 . S
C115 C114 1.363 . S
C115 C121 1.363 . S
C116 C117 1.363 . S
C116 C121 1.379 . S
C116 N123 1.356 1_455 S
C117 C116 1.363 . S
C117 C120 1.363 . S
N118 C120 1.356 . S
N118 H130 0.984 . S
N118 H131 0.985 . S
N119 C121 1.356 1_655 S
N119 H124 0.984 . S
N119 H125 0.985 . S
C120 C114 1.379 . S
C120 C117 1.363 . S
C120 N118 1.356 . S
C121 C115 1.363 . S
C121 C116 1.379 . S
C121 N119 1.356 1_455 S
N122 C114 1.356 . S
N122 H128 0.984 . S
N122 H129 0.984 . S
N123 C116 1.356 1_655 S
N123 H126 0.984 . S
N123 H127 0.985 . S
H124 N119 0.984 . S
H125 N119 0.985 . S
H126 N123 0.984 . S
H127 N123 0.985 . S
H128 N122 0.984 . S
H129 N122 0.984 . S
H130 N118 0.984 . S
H131 N118 0.985 . S
C132 C133 1.363 . S
C132 C138 1.379 . S
C132 N140 1.356 . S
C133 C132 1.363 . S
C133 C139 1.363 1_545 S
C134 C135 1.363 1_565 S
C134 C139 1.379 . S
C134 N141 1.356 . S
C135 C134 1.363 1_545 S
C135 C138 1.363 . S
N136 C138 1.356 . S
N136 H148 0.984 . S
N136 H149 0.985 . S
N137 C139 1.356 . S
N137 H142 0.984 . S
N137 H143 0.985 . S
C138 C132 1.379 . S
C138 C135 1.363 . S
C138 N136 1.356 . S
C139 C133 1.363 1_565 S
C139 C134 1.379 . S
C139 N137 1.356 . S
N140 C132 1.356 . S
N140 H146 0.984 . S
N140 H147 0.984 . S
N141 C134 1.356 . S
N141 H144 0.984 . S
N141 H145 0.985 . S
H142 N137 0.984 . S
H143 N137 0.985 . S
H144 N141 0.984 . S
H145 N141 0.985 . S
H146 N140 0.984 . S
H147 N140 0.984 . S
H148 N136 0.984 . S
H149 N136 0.985 . S
C150 C151 1.363 1_556 S
C150 C156 1.379 . S
C150 N158 1.356 . S
C151 C150 1.363 1_554 S
C151 C157 1.363 . S
C152 C153 1.363 . S
C152 C157 1.379 1_556 S
C152 N159 1.356 . S
C153 C152 1.363 . S
C153 C156 1.363 . S
N154 C156 1.356 . S
N154 H166 0.984 . S
N154 H167 0.985 . S
N155 C157 1.356 . S
N155 H160 0.984 . S
N155 H161 0.985 . S
C156 C150 1.379 . S
C156 C153 1.363 . S
C156 N154 1.356 . S
C157 C151 1.363 . S
C157 C152 1.379 1_554 S
C157 N155 1.356 . S
N158 C150 1.356 . S
N158 H164 0.984 . S
N158 H165 0.984 1_556 S
N159 C152 1.356 . S
N159 H162 0.984 . S
N159 H163 0.985 . S
H160 N155 0.984 . S
H161 N155 0.985 . S
H162 N159 0.984 . S
H163 N159 0.985 . S
H164 N158 0.984 . S
H165 N158 0.984 1_554 S
H166 N154 0.984 . S
H167 N154 0.985 . S
C168 C169 1.363 1_655 S
C168 C174 1.379 . S
C168 N176 1.356 . S
C169 C168 1.363 1_455 S
C169 C175 1.363 . S
C170 C171 1.363 . S
C170 C175 1.379 . S
C170 N177 1.356 . S
C171 C170 1.363 . S
C171 C174 1.363 1_455 S
N172 C174 1.356 . S
N172 H184 0.984 . S
N172 H185 0.985 . S
N173 C175 1.356 . S
N173 H178 0.984 1_554 S
N173 H179 0.985 . S
C174 C168 1.379 . S
C174 C171 1.363 1_655 S
C174 N172 1.356 . S
C175 C169 1.363 . S
C175 C170 1.379 . S
C175 N173 1.356 . S
N176 C168 1.356 . S
N176 H182 0.984 . S
N176 H183 0.984 . S
N177 C170 1.356 . S
N177 H180 0.984 . S
N177 H181 0.985 . S
H178 N173 0.984 1_556 S
H179 N173 0.985 . S
H180 N177 0.984 . S
H181 N177 0.985 . S
H182 N176 0.984 . S
H183 N176 0.984 . S
H184 N172 0.984 . S
H185 N172 0.985 . S
C186 C187 1.363 . S
C186 C192 1.379 . S
C186 N194 1.356 . S
C187 C186 1.363 . S
C187 C193 1.363 . S
C188 C189 1.363 . S
C188 C193 1.379 . S
C188 N195 1.356 . S
C189 C188 1.363 . S
C189 C192 1.363 . S
N190 C192 1.356 . S
N190 H202 0.984 . S
N190 H203 0.985 . S
N191 C193 1.356 . S
N191 H196 0.984 . S
N191 H197 0.985 . S
C192 C186 1.379 . S
C192 C189 1.363 . S
C192 N190 1.356 . S
C193 C187 1.363 . S
C193 C188 1.379 . S
C193 N191 1.356 . S
N194 C186 1.356 . S
N194 H200 0.984 . S
N194 H201 0.984 . S
N195 C188 1.356 . S
N195 H198 0.984 . S
N195 H199 0.985 1_554 S
H196 N191 0.984 . S
H197 N191 0.985 . S
H198 N195 0.984 . S
H199 N195 0.985 1_556 S
H200 N194 0.984 . S
H201 N194 0.984 . S
H202 N190 0.984 . S
H203 N190 0.985 . S
C204 C205 1.363 . S
C204 C210 1.379 . S
C204 N212 1.356 . S
C205 C204 1.363 . S
C205 C211 1.363 . S
C206 C207 1.363 . S
C206 C211 1.379 . S
C206 N213 1.356 . S
C207 C206 1.363 . S
C207 C210 1.363 . S
N208 C210 1.356 . S
N208 H220 0.984 . S
N208 H221 0.985 . S
N209 C211 1.356 . S
N209 H214 0.984 . S
N209 H215 0.985 . S
C210 C204 1.379 . S
C210 C207 1.363 . S
C210 N208 1.356 . S
C211 C205 1.363 . S
C211 C206 1.379 . S
C211 N209 1.356 . S
N212 C204 1.356 . S
N212 H218 0.984 . S
N212 H219 0.984 . S
N213 C206 1.356 . S
N213 H216 0.984 . S
N213 H217 0.985 . S
H214 N209 0.984 . S
H215 N209 0.985 . S
H216 N213 0.984 . S
H217 N213 0.985 . S
H218 N212 0.984 . S
H219 N212 0.984 . S
H220 N208 0.984 . S
H221 N208 0.985 . S
C222 C223 1.363 . S
C222 C228 1.379 . S
C222 N230 1.356 . S
C223 C222 1.363 . S
C223 C229 1.363 . S
C224 C225 1.363 . S
C224 C229 1.379 . S
C224 N231 1.356 . S
C225 C224 1.363 . S
C225 C228 1.363 . S
N226 C228 1.356 . S
N226 H238 0.984 . S
N226 H239 0.985 . S
N227 C229 1.356 . S
N227 H232 0.984 . S
N227 H233 0.985 . S
C228 C222 1.379 . S
C228 C225 1.363 . S
C228 N226 1.356 . S
C229 C223 1.363 . S
C229 C224 1.379 . S
C229 N227 1.356 . S
N230 C222 1.356 . S
N230 H236 0.984 . S
N230 H237 0.984 . S
N231 C224 1.356 . S
N231 H234 0.984 . S
N231 H235 0.985 . S
H232 N227 0.984 . S
H233 N227 0.985 . S
H234 N231 0.984 . S
H235 N231 0.985 . S
H236 N230 0.984 . S
H237 N230 0.984 . S
H238 N226 0.984 . S
H239 N226 0.985 . S
C240 C241 1.363 . S
C240 C246 1.379 . S
C240 N248 1.356 . S
C241 C240 1.363 . S
C241 C247 1.363 . S
C242 C243 1.363 . S
C242 C247 1.379 . S
C242 N249 1.356 . S
C243 C242 1.363 . S
C243 C246 1.363 . S
N244 C246 1.356 . S
N244 H256 0.984 . S
N244 H257 0.985 . S
N245 C247 1.356 . S
N245 H250 0.984 . S
N245 H251 0.985 . S
C246 C240 1.379 . S
C246 C243 1.363 . S
C246 N244 1.356 . S
C247 C241 1.363 . S
C247 C242 1.379 . S
C247 N245 1.356 . S
N248 C240 1.356 . S
N248 H254 0.984 . S
N248 H255 0.984 . S
N249 C242 1.356 . S
N249 H252 0.984 . S
N249 H253 0.985 . S
H250 N245 0.984 . S
H251 N245 0.985 . S
H252 N249 0.984 . S
H253 N249 0.985 . S
H254 N248 0.984 . S
H255 N248 0.984 . S
H256 N244 0.984 . S
H257 N244 0.985 . S
C258 C259 1.363 . S
C258 C264 1.379 . S
C258 N266 1.356 . S
C259 C258 1.363 . S
C259 C265 1.363 . S
C260 C261 1.363 . S
C260 C265 1.379 . S
C260 N267 1.356 . S
C261 C260 1.363 . S
C261 C264 1.363 . S
N262 C264 1.356 . S
N262 H274 0.984 . S
N262 H275 0.985 . S
N263 C265 1.356 . S
N263 H268 0.984 . S
N263 H269 0.985 . S
C264 C258 1.379 . S
C264 C261 1.363 . S
C264 N262 1.356 . S
C265 C259 1.363 . S
C265 C260 1.379 . S
C265 N263 1.356 . S
N266 C258 1.356 . S
N266 H272 0.984 . S
N266 H273 0.984 . S
N267 C260 1.356 . S
N267 H270 0.984 . S
N267 H271 0.985 . S
H268 N263 0.984 . S
H269 N263 0.985 . S
H270 N267 0.984 . S
H271 N267 0.985 . S
H272 N266 0.984 . S
H273 N266 0.984 . S
H274 N262 0.984 . S
H275 N262 0.985 . S
C276 C277 1.363 . S
C276 C282 1.379 . S
C276 N284 1.356 . S
C277 C276 1.363 . S
C277 C283 1.363 1_556 S
C278 C279 1.363 1_554 S
C278 C283 1.379 . S
C278 N285 1.356 . S
C279 C278 1.363 1_556 S
C279 C282 1.363 . S
N280 C282 1.356 . S
N280 H292 0.984 . S
N280 H293 0.985 . S
N281 C283 1.356 . S
N281 H286 0.984 . S
N281 H287 0.985 . S
C282 C276 1.379 . S
C282 C279 1.363 . S
C282 N280 1.356 . S
C283 C277 1.363 1_554 S
C283 C278 1.379 . S
C283 N281 1.356 . S
N284 C276 1.356 . S
N284 H290 0.984 . S
N284 H291 0.984 . S
N285 C278 1.356 . S
N285 H288 0.984 . S
N285 H289 0.985 . S
H286 N281 0.984 . S
H287 N281 0.985 . S
H288 N285 0.984 . S
H289 N285 0.985 . S
H290 N284 0.984 . S
H291 N284 0.984 . S
H292 N280 0.984 . S
H293 N280 0.985 . S
C79 C5 1.701 . S
C81 C43 1.705 . S
C97 C18 1.706 . S
C99 C56 1.705 . S
C115 C69 1.705 . S
C117 C31 1.706 . S
C133 C10 1.705 . S
C135 C42 1.706 . S
C151 C23 1.705 . S
C153 C55 1.706 . S
C169 C68 1.706 1_554 S
C171 C36 1.705 . S
C187 C17 1.469 . S
C189 C3 1.471 . S
C205 C30 1.469 . S
C207 C16 1.471 . S
C223 C29 1.471 . S
C225 C49 1.469 . S
C241 C62 1.469 . S
C243 C44 1.471 . S
C259 C75 1.469 . S
C261 C57 1.471 . S
C277 C70 1.471 . S
C279 C4 1.469 . S
