# Generated by pormake.
# Topology ukb, (4)-cn, num edge types: 1
# Building blocks:
#     Node 0, Type 0, BuildingBlock: QUQFOY_clean_sbu_3, # of connection points: 4
#     Node 1, Type 0, BuildingBlock: QUQFOY_clean_sbu_3, # of connection points: 4
#     Node 2, Type 0, BuildingBlock: QUQFOY_clean_sbu_3, # of connection points: 4
#     Node 3, Type 0, BuildingBlock: QUQFOY_clean_sbu_3, # of connection points: 4
#     Node 4, Type 0, BuildingBlock: QUQFOY_clean_sbu_3, # of connection points: 4
#     Node 5, Type 0, BuildingBlock: QUQFOY_clean_sbu_3, # of connection points: 4
#     Node 6, Type 0, BuildingBlock: QUQFOY_clean_sbu_3, # of connection points: 4
#     Node 7, Type 0, BuildingBlock: QUQFOY_clean_sbu_3, # of connection points: 4
#     Node 8, Type 0, BuildingBlock: QUQFOY_clean_sbu_3, # of connection points: 4
#     Node 9, Type 0, BuildingBlock: QUQFOY_clean_sbu_3, # of connection points: 4
#     Node 10, Type 0, BuildingBlock: QUQFOY_clean_sbu_3, # of connection points: 4
#     Node 11, Type 0, BuildingBlock: QUQFOY_clean_sbu_3, # of connection points: 4
#     Node 12, Type 0, BuildingBlock: QUQFOY_clean_sbu_3, # of connection points: 4
#     Node 13, Type 0, BuildingBlock: QUQFOY_clean_sbu_3, # of connection points: 4
#     Node 14, Type 0, BuildingBlock: QUQFOY_clean_sbu_3, # of connection points: 4
#     Node 15, Type 0, BuildingBlock: QUQFOY_clean_sbu_3, # of connection points: 4
#     Edge 16, Type (0, 0), BuildingBlock: UVAHIK_clean_linker_0, # of connection points: 2
#     Edge 17, Type (0, 0), BuildingBlock: UVAHIK_clean_linker_0, # of connection points: 2
#     Edge 18, Type (0, 0), BuildingBlock: UVAHIK_clean_linker_0, # of connection points: 2
#     Edge 19, Type (0, 0), BuildingBlock: UVAHIK_clean_linker_0, # of connection points: 2
#     Edge 20, Type (0, 0), BuildingBlock: UVAHIK_clean_linker_0, # of connection points: 2
#     Edge 21, Type (0, 0), BuildingBlock: UVAHIK_clean_linker_0, # of connection points: 2
#     Edge 22, Type (0, 0), BuildingBlock: UVAHIK_clean_linker_0, # of connection points: 2
#     Edge 23, Type (0, 0), BuildingBlock: UVAHIK_clean_linker_0, # of connection points: 2
#     Edge 24, Type (0, 0), BuildingBlock: UVAHIK_clean_linker_0, # of connection points: 2
#     Edge 25, Type (0, 0), BuildingBlock: UVAHIK_clean_linker_0, # of connection points: 2
#     Edge 26, Type (0, 0), BuildingBlock: UVAHIK_clean_linker_0, # of connection points: 2
#     Edge 27, Type (0, 0), BuildingBlock: UVAHIK_clean_linker_0, # of connection points: 2
#     Edge 28, Type (0, 0), BuildingBlock: UVAHIK_clean_linker_0, # of connection points: 2
#     Edge 29, Type (0, 0), BuildingBlock: UVAHIK_clean_linker_0, # of connection points: 2
#     Edge 30, Type (0, 0), BuildingBlock: UVAHIK_clean_linker_0, # of connection points: 2
#     Edge 31, Type (0, 0), BuildingBlock: UVAHIK_clean_linker_0, # of connection points: 2
#     Edge 32, Type (0, 0), BuildingBlock: UVAHIK_clean_linker_0, # of connection points: 2
#     Edge 33, Type (0, 0), BuildingBlock: UVAHIK_clean_linker_0, # of connection points: 2
#     Edge 34, Type (0, 0), BuildingBlock: UVAHIK_clean_linker_0, # of connection points: 2
#     Edge 35, Type (0, 0), BuildingBlock: UVAHIK_clean_linker_0, # of connection points: 2
#     Edge 36, Type (0, 0), BuildingBlock: UVAHIK_clean_linker_0, # of connection points: 2
#     Edge 37, Type (0, 0), BuildingBlock: UVAHIK_clean_linker_0, # of connection points: 2
#     Edge 38, Type (0, 0), BuildingBlock: UVAHIK_clean_linker_0, # of connection points: 2
#     Edge 39, Type (0, 0), BuildingBlock: UVAHIK_clean_linker_0, # of connection points: 2
#     Edge 40, Type (0, 0), BuildingBlock: UVAHIK_clean_linker_0, # of connection points: 2
#     Edge 41, Type (0, 0), BuildingBlock: UVAHIK_clean_linker_0, # of connection points: 2
#     Edge 42, Type (0, 0), BuildingBlock: UVAHIK_clean_linker_0, # of connection points: 2
#     Edge 43, Type (0, 0), BuildingBlock: UVAHIK_clean_linker_0, # of connection points: 2
#     Edge 44, Type (0, 0), BuildingBlock: UVAHIK_clean_linker_0, # of connection points: 2
#     Edge 45, Type (0, 0), BuildingBlock: UVAHIK_clean_linker_0, # of connection points: 2
#     Edge 46, Type (0, 0), BuildingBlock: UVAHIK_clean_linker_0, # of connection points: 2
#     Edge 47, Type (0, 0), BuildingBlock: UVAHIK_clean_linker_0, # of connection points: 2
# Relax obj value: 0.084
# Max RMSD: 0.047
# Mean RMSD: 0.047
data_MOF--net-ukb--node1-QUQFOY_clean_sbu_3--edge1-UVAHIK_clean_linker_0
_symmetry_space_group_name_H-M    P1
_symmetry_Int_Tables_number       1
_symmetry_cell_setting            triclinic
loop_
_symmetry_equiv_pos_as_xyz
'x, y, z'
_cell_length_a     59.578932
_cell_length_b     59.021344
_cell_length_c     51.130044
_cell_angle_alpha  89.793844
_cell_angle_beta   89.939959
_cell_angle_gamma 90.033591
loop_
_atom_site_label
_atom_site_type_symbol
_atom_site_fract_x
_atom_site_fract_y
_atom_site_fract_z
_atom_type_partial_charge
C0 C 0.51913 0.17632 0.10352 0.0
O1 O 0.53945 0.17035 0.10641 0.0
Cd2 Cd 0.55696 0.16328 0.14736 0.0
O3 O 0.50569 0.17663 0.12299 0.0
Cd4 Cd 0.50647 0.16528 0.1704 0.0
C5 C 0.53898 0.21136 0.18032 0.0
O6 O 0.5344 0.13519 0.16769 0.0
O7 O 0.5265 0.14633 0.20657 0.0
O8 O 0.47137 0.1453 0.16206 0.0
C9 C 0.53742 0.13292 0.19206 0.0
O10 O 0.55445 0.2 0.16921 0.0
C11 C 0.46153 0.15199 0.18268 0.0
O12 O 0.51932 0.20316 0.1831 0.0
O13 O 0.47231 0.16558 0.19723 0.0
C14 C 0.28098 0.52145 0.59958 0.0
O15 O 0.28762 0.54189 0.59988 0.0
Cd16 Cd 0.29461 0.56208 0.63934 0.0
O17 O 0.28022 0.50984 0.62065 0.0
Cd18 Cd 0.29142 0.514 0.66753 0.0
C19 C 0.24642 0.54776 0.67416 0.0
O20 O 0.32226 0.54133 0.66298 0.0
O21 O 0.30863 0.53702 0.7017 0.0
O22 O 0.31106 0.47824 0.66174 0.0
C23 C 0.32331 0.54611 0.6871 0.0
O24 O 0.25815 0.5622 0.66155 0.0
C25 C 0.30457 0.46939 0.68311 0.0
O26 O 0.25396 0.52795 0.67883 0.0
O27 O 0.29131 0.48105 0.69714 0.0
C28 C 0.93503 0.29045 0.10229 0.0
O29 O 0.91505 0.29765 0.10454 0.0
Cd30 Cd 0.89709 0.30433 0.14531 0.0
O31 O 0.94777 0.28892 0.12227 0.0
Cd32 Cd 0.94643 0.29959 0.16972 0.0
C33 C 0.91248 0.25466 0.17772 0.0
O34 O 0.91972 0.33102 0.16773 0.0
O35 O 0.9252 0.31646 0.20583 0.0
O36 O -0.01822 0.31918 0.16205 0.0
C37 C 0.91575 0.33158 0.19207 0.0
O38 O 0.8978 0.26703 0.1665 0.0
C39 C -0.00858 0.31205 0.18261 0.0
O40 O 0.93245 0.2618 0.18117 0.0
O41 O -0.01963 0.29844 0.19701 0.0
C42 C 0.17412 0.94255 0.60493 0.0
O43 O 0.1678 0.92206 0.60685 0.0
Cd44 Cd 0.16005 0.9033 0.64743 0.0
O45 O 0.17467 0.95528 0.62502 0.0
Cd46 Cd 0.1641 0.95297 0.67219 0.0
C47 C 0.2083 0.91824 0.68127 0.0
O48 O 0.13329 0.92543 0.67042 0.0
O49 O 0.14787 0.93124 0.70832 0.0
O50 O 0.14344 -0.01171 0.66692 0.0
C51 C 0.13298 0.92139 0.6948 0.0
O52 O 0.19598 0.90319 0.67065 0.0
C53 C 0.15182 -0.00202 0.68677 0.0
O54 O 0.20156 0.93867 0.68318 0.0
O55 O 0.16659 -0.013 0.69949 0.0
C56 C 0.51766 0.2923 0.86156 0.0
O57 O 0.53787 0.29873 0.85886 0.0
Cd58 Cd 0.55606 0.30391 0.81785 0.0
O59 O 0.5047 0.29073 0.84179 0.0
Cd60 Cd 0.50638 0.3004 0.79398 0.0
C61 C 0.53912 0.25433 0.78698 0.0
O62 O 0.5343 0.3308 0.79439 0.0
O63 O 0.528 0.3155 0.75699 0.0
O64 O 0.47189 0.32215 0.79901 0.0
C65 C 0.53817 0.33056 0.77002 0.0
O66 O 0.55436 0.26629 0.7977 0.0
C67 C 0.46187 0.31344 0.77959 0.0
O68 O 0.51938 0.26215 0.78367 0.0
O69 O 0.47229 0.29803 0.76724 0.0
C70 C 0.17424 0.51954 0.35972 0.0
O71 O 0.16863 0.54027 0.35868 0.0
Cd72 Cd 0.1628 0.56024 0.3187 0.0
O73 O 0.17465 0.50753 0.33903 0.0
Cd74 Cd 0.16414 0.51186 0.29187 0.0
C75 C 0.21055 0.54379 0.28477 0.0
O76 O 0.13437 0.54032 0.29542 0.0
O77 O 0.14846 0.53562 0.25702 0.0
O78 O 0.1423 0.47713 0.29616 0.0
C79 C 0.1338 0.5451 0.27125 0.0
O80 O 0.19946 0.55898 0.29684 0.0
C81 C 0.14999 0.4678 0.2757 0.0
O82 O 0.20211 0.52427 0.28072 0.0
O83 O 0.16485 0.47872 0.26301 0.0
C84 C 0.93928 0.17428 0.86158 0.0
O85 O 0.91944 0.16671 0.8592 0.0
Cd86 Cd 0.90146 0.1612 0.81829 0.0
O87 O 0.95192 0.17669 0.84159 0.0
Cd88 Cd 0.95069 0.16708 0.79379 0.0
C89 C 0.91649 0.21193 0.78772 0.0
O90 O 0.9243 0.13537 0.79489 0.0
O91 O 0.92942 0.15095 0.75725 0.0
O92 O -0.01376 0.14778 0.80089 0.0
C93 C 0.9202 0.13537 0.77058 0.0
O94 O 0.90193 0.19916 0.79862 0.0
C95 C -0.00427 0.1552 0.78034 0.0
O96 O 0.93647 0.20501 0.78377 0.0
O97 O -0.01548 0.16888 0.76623 0.0
C98 C 0.27977 0.94235 0.36184 0.0
O99 O 0.28543 0.92166 0.36049 0.0
Cd100 Cd 0.29046 0.90213 0.32017 0.0
O101 O 0.27908 0.95466 0.34129 0.0
Cd102 Cd 0.28903 0.95112 0.29389 0.0
C103 C 0.24225 0.91963 0.28779 0.0
O104 O 0.31839 0.92205 0.29591 0.0
O105 O 0.30347 0.92791 0.25815 0.0
O106 O 0.31144 -0.01447 0.29781 0.0
C107 C 0.31819 0.91773 0.27163 0.0
O108 O 0.25343 0.90417 0.29938 0.0
C109 C 0.30341 -0.00479 0.27767 0.0
O110 O 0.25077 0.93914 0.2837 0.0
O111 O 0.2881 -0.01533 0.26542 0.0
C112 C 0.44036 0.78413 0.86077 0.0
O113 O 0.4197 0.78932 0.85954 0.0
Cd114 Cd 0.4003 0.79681 0.81966 0.0
O115 O 0.45273 0.78491 0.84039 0.0
Cd116 Cd 0.44972 0.79717 0.79355 0.0
C117 C 0.41824 0.75041 0.78352 0.0
O118 O 0.42079 0.82624 0.79866 0.0
O119 O 0.42828 0.81638 0.7591 0.0
O120 O 0.48427 0.81808 0.80154 0.0
C121 C 0.41721 0.82898 0.77443 0.0
O122 O 0.40297 0.76091 0.79607 0.0
C123 C 0.49393 0.81218 0.7805 0.0
O124 O 0.43751 0.7593 0.77995 0.0
O125 O 0.48328 0.79866 0.76572 0.0
C126 C 0.67224 0.43785 0.36171 0.0
O127 O 0.6661 0.41741 0.35883 0.0
Cd128 Cd 0.65944 0.40029 0.31762 0.0
O129 O 0.6728 0.4514 0.34221 0.0
Cd130 Cd 0.66157 0.45065 0.29486 0.0
C131 C 0.70739 0.41855 0.28492 0.0
O132 O 0.6313 0.42275 0.29725 0.0
O133 O 0.64455 0.42924 0.2588 0.0
O134 O 0.64135 0.48582 0.30307 0.0
C135 C 0.63004 0.41927 0.27287 0.0
O136 O 0.69607 0.40278 0.2958 0.0
C137 C 0.64802 0.4959 0.2825 0.0
O138 O 0.69926 0.4384 0.28237 0.0
O139 O 0.66162 0.48518 0.26793 0.0
C140 C 0.01683 0.67351 0.86196 0.0
O141 O 0.03687 0.66649 0.85962 0.0
Cd142 Cd 0.05558 0.66149 0.81895 0.0
O143 O 0.00426 0.67575 0.84192 0.0
Cd144 Cd 0.00628 0.6667 0.79404 0.0
C145 C 0.04024 0.71202 0.78844 0.0
O146 O 0.03357 0.63571 0.79445 0.0
O147 O 0.02795 0.65179 0.75721 0.0
O148 O 0.97129 0.64566 0.7985 0.0
C149 C 0.03775 0.63636 0.77015 0.0
O150 O 0.05491 0.69946 0.79938 0.0
C151 C 0.96169 0.65467 0.77891 0.0
O152 O 0.02035 0.70483 0.78445 0.0
O153 O 0.97257 0.66995 0.76672 0.0
C154 C 0.78195 0.02172 0.36228 0.0
O155 O 0.78791 0.04232 0.36051 0.0
Cd156 Cd 0.79489 0.06159 0.32008 0.0
O157 O 0.78138 0.00916 0.34205 0.0
Cd158 Cd 0.7914 0.01214 0.29475 0.0
C159 C 0.74646 0.04613 0.28696 0.0
O160 O 0.82181 0.0401 0.29654 0.0
O161 O 0.8069 0.0346 0.25877 0.0
O162 O 0.81247 0.97697 0.29917 0.0
C163 C 0.82182 0.04445 0.27224 0.0
O164 O 0.75865 0.06134 0.29749 0.0
C165 C 0.8041 0.9675 0.27917 0.0
O166 O 0.75356 0.02585 0.28471 0.0
O167 O 0.78916 0.97852 0.26678 0.0
C168 C 0.44234 0.67555 0.10119 0.0
O169 O 0.4222 0.66853 0.10163 0.0
Cd170 Cd 0.40169 0.66222 0.14106 0.0
O171 O 0.45365 0.67705 0.12228 0.0
Cd172 Cd 0.44907 0.66673 0.16952 0.0
C173 C 0.41485 0.71175 0.17439 0.0
O174 O 0.42207 0.63544 0.16651 0.0
O175 O 0.42583 0.65081 0.2044 0.0
O176 O 0.48418 0.64587 0.16633 0.0
C177 C 0.41695 0.63545 0.19059 0.0
O178 O 0.40083 0.69947 0.16204 0.0
C179 C 0.49296 0.65416 0.18678 0.0
O180 O 0.43455 0.70454 0.17941 0.0
O181 O 0.48159 0.66899 0.19894 0.0
C182 C 0.78612 0.44043 0.60406 0.0
O183 O 0.79329 0.42032 0.6069 0.0
Cd184 Cd 0.79861 0.40255 0.6482 0.0
O185 O 0.78397 0.45349 0.62375 0.0
Cd186 Cd 0.79341 0.45276 0.67159 0.0
C187 C 0.74859 0.41866 0.67834 0.0
O188 O 0.82441 0.42562 0.67127 0.0
O189 O 0.80915 0.43175 0.70872 0.0
O190 O 0.81301 0.48838 0.66403 0.0
C191 C 0.82435 0.42188 0.69569 0.0
O192 O 0.76106 0.40368 0.66783 0.0
C193 C 0.80554 0.49825 0.68425 0.0
O194 O 0.75568 0.43881 0.68178 0.0
O195 O 0.79172 0.48722 0.69835 0.0
C196 C 0.0172 0.78831 0.10365 0.0
O197 O 0.03728 0.79511 0.10633 0.0
Cd198 Cd 0.0547 0.80153 0.14741 0.0
O199 O 0.00408 0.787 0.12336 0.0
Cd200 Cd 0.0051 0.79766 0.17087 0.0
C201 C 0.03819 0.75215 0.17949 0.0
O202 O 0.03219 0.8288 0.16918 0.0
O203 O 0.02626 0.81427 0.20721 0.0
O204 O 0.96992 0.81764 0.1633 0.0
C205 C 0.03586 0.8294 0.19357 0.0
O206 O 0.05332 0.76421 0.16859 0.0
C207 C 0.96022 0.81051 0.18386 0.0
O208 O 0.01832 0.75971 0.18247 0.0
O209 O 0.97112 0.79671 0.19812 0.0
C210 C 0.67548 0.02363 0.60394 0.0
O211 O 0.66964 0.04429 0.60479 0.0
Cd212 Cd 0.66403 0.06408 0.64482 0.0
O213 O 0.676 0.01164 0.62474 0.0
Cd214 Cd 0.66541 0.01579 0.67186 0.0
C215 C 0.71201 0.04741 0.67816 0.0
O216 O 0.63564 0.04433 0.66866 0.0
O217 O 0.6502 0.03951 0.70682 0.0
O218 O 0.64343 0.98118 0.66766 0.0
C219 C 0.63536 0.049 0.69284 0.0
O220 O 0.70087 0.06267 0.66617 0.0
C221 C 0.65103 0.97173 0.68815 0.0
O222 O 0.70352 0.02794 0.68247 0.0
O223 O 0.66591 -0.01749 0.70082 0.0
C224 C 0.43293 0.14255 0.21683 0.0
C225 C 0.43948 0.14267 0.19045 0.0
C226 C 0.4138 0.13066 0.22481 0.0
C227 C 0.37805 0.08302 0.20256 0.0
H228 H 0.34437 0.09735 0.26529 0.0
C229 C 0.30908 0.02371 0.24188 0.0
C230 C 0.31284 0.0168 0.26785 0.0
C231 C 0.32055 0.04237 0.23149 0.0
C232 C 0.35358 0.09323 0.24766 0.0
H233 H 0.43028 0.13195 0.15143 0.0
H234 H 0.39632 0.11215 0.16506 0.0
H235 H 0.37134 0.12475 0.2479 0.0
H236 H 0.33045 0.02482 0.30374 0.0
H237 H 0.35019 0.05762 0.28567 0.0
H238 H 0.36026 0.05152 0.20241 0.0
C239 C 0.40639 0.12039 0.17985 0.0
C240 C 0.36915 0.10884 0.23776 0.0
C241 C 0.42576 0.13191 0.17196 0.0
C242 C 0.32728 0.0297 0.28364 0.0
C243 C 0.33848 0.04854 0.27335 0.0
C244 C 0.36226 0.06763 0.21222 0.0
C245 C 0.40055 0.11892 0.20651 0.0
C246 C 0.38199 0.10372 0.21539 0.0
C247 C 0.3357 0.05467 0.24698 0.0
C248 C 0.35022 0.07236 0.23516 0.0
H249 H 0.44325 0.15062 0.23155 0.0
H250 H 0.41012 0.12976 0.24553 0.0
H251 H 0.38784 0.07813 0.18566 0.0
H252 H 0.29806 0.01412 0.22924 0.0
H253 H 0.31802 0.04684 0.21114 0.0
C254 C 0.32332 0.43243 0.674 0.0
C255 C 0.31366 0.44741 0.69204 0.0
C256 C 0.3347 0.41311 0.68262 0.0
C257 C 0.34802 0.37834 0.74227 0.0
H258 H 0.40323 0.36704 0.70429 0.0
C259 C 0.42768 0.33734 0.78623 0.0
C260 C 0.43999 0.32229 0.77053 0.0
C261 C 0.40861 0.34817 0.77638 0.0
C262 C 0.38769 0.36968 0.71488 0.0
H263 H 0.30746 0.45351 0.73316 0.0
H264 H 0.32812 0.42042 0.74836 0.0
H265 H 0.37655 0.39436 0.68731 0.0
H266 H 0.44133 0.30593 0.73265 0.0
H267 H 0.40818 0.32518 0.7153 0.0
H268 H 0.36018 0.35448 0.77069 0.0
C269 C 0.32646 0.42309 0.72749 0.0
C270 C 0.37227 0.38533 0.70509 0.0
C271 C 0.31468 0.44218 0.71881 0.0
C272 C 0.43222 0.31746 0.74521 0.0
C273 C 0.41331 0.32852 0.73524 0.0
C274 C 0.36367 0.3629 0.75227 0.0
C275 C 0.33715 0.40861 0.70953 0.0
C276 C 0.35234 0.39016 0.71881 0.0
C277 C 0.40163 0.34438 0.75053 0.0
C278 C 0.38379 0.35866 0.73881 0.0
H279 H 0.32255 0.43591 0.65321 0.0
H280 H 0.3421 0.40205 0.66814 0.0
H281 H 0.33271 0.38126 0.75317 0.0
H282 H 0.43321 0.34134 0.80586 0.0
H283 H 0.40003 0.36043 0.78853 0.0
C284 C 0.02765 0.33122 0.17179 0.0
C285 C 0.01362 0.3209 0.1904 0.0
C286 C 0.04717 0.34245 0.17957 0.0
C287 C 0.08423 0.35409 0.23735 0.0
H288 H 0.09358 0.41113 0.20106 0.0
C289 C 0.12648 0.4331 0.28213 0.0
C290 C 0.14069 0.44614 0.26609 0.0
C291 C 0.11534 0.41419 0.27209 0.0
C292 C 0.09148 0.39509 0.21113 0.0
H293 H 0.00944 0.31333 0.23161 0.0
H294 H 0.04289 0.33372 0.24539 0.0
H295 H 0.0659 0.38461 0.18472 0.0
H296 H 0.15522 0.44899 0.22731 0.0
H297 H 0.13542 0.41612 0.20965 0.0
H298 H 0.10904 0.36556 0.26469 0.0
C299 C 0.03931 0.33271 0.22468 0.0
C300 C 0.07562 0.37975 0.20171 0.0
C301 C 0.02001 0.32108 0.21682 0.0
C302 C 0.14435 0.43929 0.24014 0.0
C303 C 0.13297 0.42055 0.23 0.0
C304 C 0.0999 0.36964 0.24699 0.0
C305 C 0.05284 0.34408 0.20622 0.0
C306 C 0.07149 0.35917 0.21488 0.0
C307 C 0.11799 0.40812 0.24573 0.0
C308 C 0.10343 0.39042 0.23416 0.0
H309 H 0.02327 0.3311 0.15123 0.0
H310 H 0.05747 0.35041 0.16468 0.0
H311 H 0.08187 0.33827 0.24776 0.0
H312 H 0.12339 0.43791 0.30224 0.0
H313 H 0.10376 0.40503 0.2846 0.0
C314 C 0.14753 0.02749 0.72148 0.0
C315 C 0.14322 0.0201 0.69588 0.0
C316 C 0.13658 0.04656 0.73143 0.0
C317 C 0.10328 0.09725 0.71425 0.0
H318 H 0.07047 0.08324 0.77777 0.0
C319 C 0.0239 0.14614 0.74564 0.0
C320 C 0.0179 0.14655 0.77219 0.0
C321 C 0.04312 0.13452 0.73749 0.0
C322 C 0.07987 0.08785 0.76042 0.0
H323 H 0.12526 0.02774 0.66005 0.0
H324 H 0.10636 0.06119 0.67733 0.0
H325 H 0.09784 0.0565 0.76124 0.0
H326 H 0.02819 0.13684 0.81127 0.0
H327 H 0.06228 0.11761 0.79733 0.0
H328 H 0.08523 0.12858 0.71331 0.0
C329 C 0.11813 0.0522 0.68973 0.0
C330 C 0.09555 0.07238 0.75089 0.0
C331 C 0.12885 0.03297 0.6799 0.0
C332 C 0.03228 0.13653 0.79062 0.0
C333 C 0.05172 0.12533 0.78256 0.0
C334 C 0.08779 0.11293 0.724 0.0
C335 C 0.12135 0.05877 0.71584 0.0
C336 C 0.10706 0.07668 0.72743 0.0
C337 C 0.05698 0.1234 0.7558 0.0
C338 C 0.07549 0.10821 0.74693 0.0
H339 H 0.15854 0.01794 0.73427 0.0
H340 H 0.13948 0.05137 0.75157 0.0
H341 H 0.11207 0.10104 0.6962 0.0
H342 H 0.01306 0.15364 0.73099 0.0
H343 H 0.04638 0.13328 0.71672 0.0
C344 C 0.52934 0.83279 0.7914 0.0
C345 C 0.51571 0.82214 0.77274 0.0
C346 C 0.54851 0.84472 0.78368 0.0
C347 C 0.58567 0.85741 0.72614 0.0
H348 H 0.59387 0.91441 0.7624 0.0
C349 C 0.62759 0.93703 0.68163 0.0
C350 C 0.64162 0.95006 0.69778 0.0
C351 C 0.61641 0.91806 0.69162 0.0
C352 C 0.59207 0.89839 0.75234 0.0
H353 H 0.51188 0.81485 0.73148 0.0
H354 H 0.54472 0.8364 0.71783 0.0
H355 H 0.56641 0.88737 0.77853 0.0
H356 H 0.65571 0.95284 0.73672 0.0
H357 H 0.63582 0.91986 0.75429 0.0
H358 H 0.61058 0.86936 0.69904 0.0
C359 C 0.54109 0.83511 0.73853 0.0
C360 C 0.57635 0.88277 0.76163 0.0
C361 C 0.52213 0.82282 0.74632 0.0
C362 C 0.645 0.94315 0.72381 0.0
C363 C 0.63357 0.92435 0.7339 0.0
C364 C 0.6012 0.87323 0.71662 0.0
C365 C 0.55425 0.84669 0.75705 0.0
C366 C 0.57266 0.86218 0.74847 0.0
C367 C 0.61881 0.91191 0.71803 0.0
C368 C 0.60432 0.89399 0.72945 0.0
H369 H 0.52493 0.83231 0.81195 0.0
H370 H 0.55853 0.85285 0.79861 0.0
H371 H 0.58365 0.84159 0.71575 0.0
H372 H 0.62472 0.94189 0.66146 0.0
H373 H 0.60501 0.90889 0.679 0.0
C374 C 0.52813 0.63156 0.18134 0.0
C375 C 0.51449 0.6454 0.19702 0.0
C376 C 0.54686 0.62067 0.19196 0.0
C377 C 0.56462 0.59614 0.25327 0.0
H378 H 0.62191 0.58794 0.21856 0.0
C379 C 0.6279 0.53178 0.29348 0.0
C380 C 0.63879 0.5182 0.27491 0.0
C381 C 0.61659 0.55143 0.28576 0.0
C382 C 0.60596 0.5899 0.22844 0.0
H383 H 0.51038 0.65957 0.2358 0.0
H384 H 0.54294 0.64017 0.25448 0.0
H385 H 0.59494 0.61526 0.20114 0.0
H386 H 0.6472 0.51498 0.23386 0.0
H387 H 0.62673 0.54863 0.22016 0.0
H388 H 0.57471 0.56998 0.27957 0.0
C389 C 0.53913 0.63784 0.23396 0.0
C390 C 0.59059 0.60567 0.21852 0.0
C391 C 0.52057 0.649 0.22323 0.0
C392 C 0.63901 0.52517 0.24863 0.0
C393 C 0.62735 0.5446 0.24082 0.0
C394 C 0.5798 0.58018 0.26296 0.0
C395 C 0.55214 0.62317 0.21856 0.0
C396 C 0.56964 0.60867 0.23063 0.0
C397 C 0.61549 0.5577 0.2592 0.0
C398 C 0.60054 0.57654 0.25044 0.0
H399 H 0.52392 0.62853 0.16104 0.0
H400 H 0.55648 0.60933 0.17968 0.0
H401 H 0.54846 0.59784 0.26278 0.0
H402 H 0.62768 0.52695 0.31394 0.0
H403 H 0.60822 0.56138 0.30061 0.0
C404 C 0.92679 0.6317 0.78518 0.0
C405 C 0.93979 0.64622 0.76944 0.0
C406 C 0.90773 0.6211 0.77503 0.0
C407 C 0.88816 0.59862 0.71373 0.0
H408 H 0.83186 0.58895 0.75019 0.0
C409 C 0.82462 0.53484 0.67365 0.0
C410 C 0.81425 0.52064 0.69213 0.0
C411 C 0.83579 0.55447 0.68159 0.0
C412 C 0.84754 0.59133 0.73981 0.0
H413 H 0.9424 0.66193 0.73115 0.0
H414 H 0.90928 0.64303 0.71328 0.0
H415 H 0.85922 0.61582 0.76761 0.0
H416 H 0.80654 0.51629 0.73325 0.0
H417 H 0.82683 0.54986 0.74733 0.0
H418 H 0.87752 0.57326 0.68693 0.0
C419 C 0.91384 0.63995 0.73348 0.0
C420 C 0.86312 0.60684 0.74973 0.0
C421 C 0.93273 0.65081 0.74375 0.0
C422 C 0.81432 0.52699 0.71856 0.0
C423 C 0.8259 0.54637 0.72659 0.0
C424 C 0.87281 0.58289 0.70405 0.0
C425 C 0.90148 0.62459 0.74885 0.0
C426 C 0.88371 0.61037 0.73696 0.0
C427 C 0.83733 0.56006 0.70828 0.0
C428 C 0.85241 0.57872 0.71716 0.0
H429 H 0.93178 0.6279 0.80509 0.0
H430 H 0.89861 0.60922 0.78725 0.0
H431 H 0.90406 0.60074 0.7037 0.0
H432 H 0.82459 0.53048 0.65309 0.0
H433 H 0.84377 0.56489 0.6668 0.0
C434 C 0.80873 0.93871 0.24374 0.0
C435 C 0.81285 0.94561 0.26957 0.0
C436 C 0.81978 0.91984 0.23342 0.0
C437 C 0.85265 0.86872 0.24968 0.0
H438 H 0.88632 0.88374 0.18708 0.0
C439 C 0.93185 0.81963 0.21832 0.0
C440 C 0.93816 0.81957 0.19186 0.0
C441 C 0.91272 0.83139 0.22644 0.0
C442 C 0.87668 0.87887 0.20415 0.0
H443 H 0.83057 0.93732 0.30537 0.0
H444 H 0.8496 0.9042 0.28744 0.0
H445 H 0.85894 0.91036 0.2039 0.0
H446 H 0.92851 0.83017 0.15286 0.0
H447 H 0.89455 0.8497 0.16674 0.0
H448 H 0.87042 0.83722 0.25003 0.0
C449 C 0.83793 0.91343 0.27515 0.0
C450 C 0.861 0.89426 0.21385 0.0
C451 C 0.82713 0.93247 0.28536 0.0
C452 C 0.92418 0.83019 0.17345 0.0
C453 C 0.90481 0.84155 0.18148 0.0
C454 C 0.86812 0.85311 0.23974 0.0
C455 C 0.83488 0.90734 0.24886 0.0
C456 C 0.84919 0.88957 0.237 0.0
C457 C 0.89923 0.84303 0.20819 0.0
C458 C 0.88074 0.8582 0.21715 0.0
H459 H 0.79781 0.94848 0.23109 0.0
H460 H 0.81703 0.9154 0.21313 0.0
H461 H 0.84361 0.86464 0.26748 0.0
H462 H 0.94238 0.81166 0.23296 0.0
H463 H 0.90922 0.83228 0.24719 0.0
C464 C 0.5311 0.24498 0.20897 0.0
C465 C 0.54404 0.23458 0.18939 0.0
C466 C 0.5366 0.26672 0.21785 0.0
C467 C 0.56559 0.319 0.19895 0.0
H468 H 0.57777 0.32686 0.27281 0.0
C469 C 0.61938 0.39267 0.23699 0.0
C470 C 0.61553 0.4012 0.2622 0.0
C471 C 0.60719 0.37411 0.22783 0.0
C472 C 0.57398 0.32523 0.2522 0.0
H473 H 0.57244 0.23904 0.16325 0.0
H474 H 0.58166 0.27702 0.17835 0.0
H475 H 0.56217 0.29116 0.25732 0.0
H476 H 0.59512 0.39771 0.29709 0.0
H477 H 0.57326 0.36581 0.28079 0.0
H478 H 0.57724 0.35296 0.19364 0.0
C479 C 0.56741 0.26833 0.18696 0.0
C480 C 0.56511 0.3047 0.24336 0.0
C481 C 0.56222 0.24652 0.17847 0.0
C482 C 0.59859 0.39138 0.27765 0.0
C483 C 0.58617 0.37298 0.26835 0.0
C484 C 0.57413 0.33964 0.2078 0.0
C485 C 0.55479 0.27858 0.20685 0.0
C486 C 0.56136 0.30122 0.21659 0.0
C487 C 0.59061 0.3638 0.2435 0.0
C488 C 0.57901 0.34284 0.23447 0.0
H489 H 0.51702 0.23617 0.21776 0.0
H490 H 0.52662 0.27431 0.23322 0.0
H491 H 0.56259 0.3168 0.17822 0.0
H492 H 0.6324 0.39981 0.22465 0.0
H493 H 0.61142 0.36737 0.20879 0.0
C494 C 0.21299 0.54264 0.7037 0.0
C495 C 0.22374 0.55433 0.68322 0.0
C496 C 0.192 0.54981 0.71285 0.0
C497 C 0.15487 0.60051 0.7122 0.0
H498 H 0.1095 0.55835 0.73681 0.0
C499 C 0.06486 0.62909 0.73379 0.0
C500 C 0.05665 0.62346 0.75876 0.0
C501 C 0.0843 0.61889 0.72416 0.0
C502 C 0.12209 0.57027 0.73007 0.0
H503 H 0.22046 0.58203 0.65551 0.0
H504 H 0.18375 0.59394 0.67066 0.0
H505 H 0.14542 0.54393 0.7206 0.0
H506 H 0.06172 0.60185 0.79264 0.0
H507 H 0.09563 0.58371 0.77551 0.0
H508 H 0.13138 0.62676 0.72113 0.0
C509 C 0.19175 0.57979 0.68043 0.0
C510 C 0.1427 0.56206 0.72091 0.0
C511 C 0.2128 0.57286 0.67159 0.0
C512 C 0.06769 0.60659 0.77336 0.0
C513 C 0.08703 0.59616 0.76355 0.0
C514 C 0.13423 0.60864 0.72098 0.0
C515 C 0.18121 0.56864 0.70148 0.0
C516 C 0.15933 0.5771 0.71171 0.0
C517 C 0.0958 0.60264 0.73914 0.0
C518 C 0.11761 0.59363 0.72989 0.0
H519 H 0.22104 0.52831 0.71309 0.0
H520 H 0.18452 0.54092 0.72925 0.0
H521 H 0.16741 0.61268 0.70601 0.0
H522 H 0.05672 0.64196 0.722 0.0
H523 H 0.09059 0.62399 0.70514 0.0
C524 C 0.83004 0.07191 0.23617 0.0
C525 C 0.835 0.06349 0.26125 0.0
C526 C 0.84054 0.09146 0.22681 0.0
C527 C 0.88894 0.129 0.2332 0.0
H528 H 0.8476 0.17548 0.20967 0.0
C529 C 0.91762 0.22053 0.20669 0.0
C530 C 0.90594 0.23169 0.18656 0.0
C531 C 0.91033 0.19933 0.2158 0.0
C532 C 0.85948 0.16261 0.21569 0.0
H533 H 0.85576 0.06828 0.29561 0.0
H534 H 0.87448 0.10239 0.27891 0.0
H535 H 0.83312 0.13922 0.22468 0.0
H536 H 0.87824 0.22892 0.15928 0.0
H537 H 0.86617 0.19185 0.17426 0.0
H538 H 0.91539 0.1522 0.2236 0.0
C539 C 0.86229 0.09386 0.26669 0.0
C540 C 0.85112 0.14186 0.22443 0.0
C541 C 0.85154 0.07442 0.27625 0.0
C542 C 0.88738 0.22093 0.17512 0.0
C543 C 0.88036 0.19968 0.18388 0.0
C544 C 0.89739 0.14972 0.22404 0.0
C545 C 0.85646 0.10285 0.24215 0.0
C546 C 0.86574 0.12482 0.23314 0.0
C547 C 0.89142 0.18876 0.2047 0.0
C548 C 0.88274 0.16676 0.215 0.0
H549 H 0.81745 0.06386 0.22408 0.0
H550 H 0.83593 0.09794 0.2077 0.0
H551 H 0.90055 0.11607 0.23981 0.0
H552 H 0.93197 0.22844 0.2159 0.0
H553 H 0.91918 0.19156 0.232 0.0
C554 C 0.24612 0.92801 0.70013 0.0
C555 C 0.23078 0.91167 0.69114 0.0
C556 C 0.2675 0.92154 0.70876 0.0
C557 C 0.30814 0.87421 0.70383 0.0
H558 H 0.33505 0.90109 0.76537 0.0
C559 C 0.38228 0.85165 0.78206 0.0
C560 C 0.39849 0.84313 0.76471 0.0
C561 C 0.36327 0.86287 0.77256 0.0
C562 C 0.32773 0.89336 0.74819 0.0
H563 H 0.22576 0.87567 0.68479 0.0
H564 H 0.26262 0.86446 0.70016 0.0
H565 H 0.29851 0.91445 0.75017 0.0
H566 H 0.40819 0.84086 0.72394 0.0
H567 H 0.3754 0.86093 0.70739 0.0
H568 H 0.33671 0.85247 0.70238 0.0
C569 C 0.25843 0.88232 0.7 0.0
C570 C 0.3069 0.9012 0.73931 0.0
C571 C 0.23718 0.88875 0.69133 0.0
C572 C 0.39586 0.84701 0.73778 0.0
C573 C 0.37698 0.8584 0.72829 0.0
C574 C 0.32885 0.86633 0.71274 0.0
C575 C 0.27395 0.89861 0.7086 0.0
C576 C 0.29672 0.89147 0.71723 0.0
C577 C 0.36016 0.86597 0.7455 0.0
C578 C 0.33883 0.87563 0.73518 0.0
H579 H 0.24173 0.94581 0.70022 0.0
H580 H 0.2791 0.93453 0.71509 0.0
H581 H 0.30099 0.86659 0.6865 0.0
H582 H 0.38381 0.84889 0.80294 0.0
H583 H 0.35059 0.86825 0.78638 0.0
C584 C 0.5632 0.21975 0.78924 0.0
C585 C 0.54469 0.23111 0.77833 0.0
C586 C 0.56911 0.19815 0.78066 0.0
C587 C 0.56788 0.16215 0.72373 0.0
H588 H 0.58237 0.11406 0.77274 0.0
C589 C 0.60357 0.07657 0.68829 0.0
C590 C 0.62093 0.06719 0.70342 0.0
C591 C 0.59089 0.09472 0.69779 0.0
C592 C 0.57861 0.12735 0.75877 0.0
H593 H 0.51778 0.22866 0.74995 0.0
H594 H 0.52858 0.19093 0.73441 0.0
H595 H 0.56656 0.14949 0.78879 0.0
H596 H 0.63837 0.06921 0.74053 0.0
H597 H 0.61692 0.10119 0.75672 0.0
H598 H 0.58098 0.14067 0.69382 0.0
C599 C 0.53829 0.19879 0.74981 0.0
C600 C 0.56942 0.14757 0.76799 0.0
C601 C 0.53209 0.2203 0.75876 0.0
C602 C 0.62504 0.076 0.72843 0.0
C603 C 0.61258 0.09428 0.7378 0.0
C604 C 0.57739 0.14204 0.71451 0.0
C605 C 0.55689 0.18756 0.76068 0.0
C606 C 0.56431 0.16529 0.75061 0.0
C607 C 0.59545 0.10405 0.72253 0.0
C608 C 0.58327 0.12452 0.73198 0.0
H609 H 0.57318 0.22759 0.80443 0.0
H610 H 0.58365 0.18995 0.78918 0.0
H611 H 0.56428 0.17565 0.70995 0.0
H612 H 0.59991 0.07002 0.66899 0.0
H613 H 0.5776 0.10151 0.68565 0.0
C614 C 0.38901 0.6039 0.18579 0.0
C615 C 0.39867 0.62106 0.20108 0.0
C616 C 0.3706 0.59154 0.19513 0.0
C617 C 0.3375 0.57962 0.25586 0.0
H618 H 0.28926 0.56776 0.20689 0.0
C619 C 0.24548 0.56716 0.28668 0.0
C620 C 0.23354 0.54904 0.27559 0.0
C621 C 0.26702 0.57255 0.2779 0.0
C622 C 0.30272 0.57068 0.22071 0.0
H623 H 0.39692 0.63839 0.23835 0.0
H624 H 0.36459 0.61747 0.25427 0.0
H625 H 0.32468 0.58332 0.19095 0.0
H626 H 0.23485 0.52234 0.2466 0.0
H627 H 0.27247 0.53223 0.23075 0.0
H628 H 0.31496 0.56803 0.28574 0.0
C629 C 0.37143 0.61306 0.23533 0.0
C630 C 0.32308 0.57952 0.2116 0.0
C631 C 0.38992 0.62522 0.22611 0.0
C632 C 0.24366 0.53636 0.25556 0.0
C633 C 0.26512 0.54204 0.24643 0.0
C634 C 0.31705 0.57109 0.26497 0.0
C635 C 0.36134 0.5962 0.21988 0.0
C636 C 0.34059 0.58453 0.22913 0.0
C637 C 0.27698 0.56018 0.25756 0.0
C638 C 0.29936 0.56691 0.24755 0.0
H639 H 0.39548 0.60022 0.16646 0.0
H640 H 0.36353 0.57844 0.18286 0.0
H641 H 0.35075 0.58272 0.26987 0.0
H642 H 0.2382 0.5772 0.30222 0.0
H643 H 0.27571 0.58676 0.28663 0.0
C644 C 0.85461 0.39248 0.69265 0.0
C645 C 0.83773 0.40328 0.70726 0.0
C646 C 0.86551 0.3733 0.70259 0.0
C647 C 0.85445 0.32549 0.74526 0.0
H648 H 0.91875 0.31542 0.74507 0.0
C649 C 0.89135 0.2455 0.79192 0.0
C650 C 0.90981 0.2351 0.77981 0.0
C651 C 0.88421 0.26695 0.78402 0.0
C652 C 0.90074 0.31782 0.74494 0.0
H653 H 0.81972 0.40301 0.74417 0.0
H654 H 0.83851 0.36937 0.76127 0.0
H655 H 0.90367 0.35157 0.72942 0.0
H656 H 0.93552 0.23917 0.75017 0.0
H657 H 0.92251 0.27637 0.73553 0.0
H658 H 0.85114 0.29173 0.75969 0.0
C659 C 0.84326 0.37574 0.74215 0.0
C660 C 0.89216 0.33857 0.7361 0.0
C661 C 0.83259 0.39504 0.73239 0.0
C662 C 0.92126 0.24681 0.75989 0.0
C663 C 0.91385 0.26819 0.75162 0.0
C664 C 0.86294 0.30471 0.75368 0.0
C665 C 0.85951 0.36444 0.72715 0.0
C666 C 0.86894 0.34263 0.73642 0.0
C667 C 0.89504 0.27843 0.7634 0.0
C668 C 0.88622 0.30061 0.7539 0.0
H669 H 0.85898 0.39848 0.67326 0.0
H670 H 0.87793 0.36484 0.69062 0.0
H671 H 0.83644 0.32802 0.74521 0.0
H672 H 0.88239 0.23706 0.80763 0.0
H673 H 0.87011 0.27449 0.79412 0.0
C674 C 0.06221 0.83939 0.22978 0.0
C675 C 0.0538 0.84379 0.20462 0.0
C676 C 0.08065 0.85142 0.23929 0.0
C677 C 0.1293 0.88499 0.21585 0.0
H678 H 0.13753 0.89546 0.29006 0.0
C679 C 0.20879 0.92761 0.25935 0.0
C680 C 0.21908 0.91466 0.27912 0.0
C681 C 0.18723 0.92209 0.25054 0.0
C682 C 0.1354 0.89268 0.26927 0.0
H683 H 0.05739 0.86503 0.1702 0.0
H684 H 0.08911 0.88661 0.18713 0.0
H685 H 0.1017 0.88099 0.2742 0.0
H686 H 0.21459 0.88625 0.30567 0.0
H687 H 0.1769 0.87695 0.29061 0.0
H688 H 0.16309 0.89682 0.2111 0.0
C689 C 0.08192 0.87338 0.19925 0.0
C690 C 0.11493 0.88427 0.26017 0.0
C691 C 0.06362 0.86113 0.1896 0.0
C692 C 0.20718 0.89649 0.29032 0.0
C693 C 0.18554 0.89125 0.28185 0.0
C694 C 0.14965 0.89372 0.22495 0.0
C695 C 0.09096 0.86838 0.22403 0.0
C696 C 0.11178 0.87978 0.2334 0.0
C697 C 0.17544 0.90384 0.26171 0.0
C698 C 0.15306 0.89715 0.2518 0.0
H699 H 0.05507 0.82607 0.24181 0.0
H700 H 0.08729 0.84677 0.25827 0.0
H701 H 0.1277 0.88147 0.19517 0.0
H702 H 0.21757 0.94168 0.25032 0.0
H703 H 0.17977 0.93207 0.23501 0.0
C704 C 0.33585 0.57207 0.7227 0.0
C705 C 0.33836 0.56407 0.69704 0.0
C706 C 0.34876 0.5902 0.73164 0.0
C707 C 0.38124 0.6394 0.70734 0.0
H708 H 0.39687 0.64453 0.78069 0.0
C709 C 0.4254 0.7183 0.75239 0.0
C710 C 0.41333 0.72746 0.7735 0.0
C711 C 0.41986 0.69689 0.74252 0.0
C712 C 0.3927 0.64325 0.76013 0.0
H713 H 0.357 0.56822 0.6609 0.0
H714 H 0.38002 0.59957 0.67673 0.0
H715 H 0.38132 0.6091 0.76431 0.0
H716 H 0.38649 0.7211 0.8013 0.0
H717 H 0.37722 0.68371 0.78447 0.0
H718 H 0.39267 0.67372 0.70339 0.0
C719 C 0.36768 0.59217 0.68978 0.0
C720 C 0.38366 0.62303 0.75074 0.0
C721 C 0.3546 0.57411 0.68075 0.0
C722 C 0.39603 0.71459 0.78493 0.0
C723 C 0.39082 0.69311 0.77543 0.0
C724 C 0.39059 0.65955 0.7167 0.0
C725 C 0.3647 0.60066 0.71524 0.0
C726 C 0.37716 0.62105 0.72439 0.0
C727 C 0.40252 0.68412 0.75402 0.0
C728 C 0.3958 0.66185 0.74332 0.0
H729 H 0.32344 0.56477 0.73573 0.0
H730 H 0.34563 0.59647 0.75118 0.0
H731 H 0.37626 0.63863 0.68701 0.0
H732 H 0.43878 0.72787 0.74316 0.0
H733 H 0.42912 0.69029 0.72598 0.0
C734 C 0.88772 0.36302 0.18773 0.0
C735 C 0.89753 0.34578 0.20287 0.0
C736 C 0.86913 0.375 0.1971 0.0
C737 C 0.83506 0.38512 0.25753 0.0
H738 H 0.78744 0.3973 0.20777 0.0
C739 C 0.74225 0.39509 0.28621 0.0
C740 C 0.73044 0.41363 0.27576 0.0
C741 C 0.76397 0.39019 0.27772 0.0
C742 C 0.80073 0.39428 0.22181 0.0
H743 H 0.89593 0.32795 0.23998 0.0
H744 H 0.86324 0.34815 0.25593 0.0
H745 H 0.82332 0.38267 0.19229 0.0
H746 H 0.73213 0.44156 0.24814 0.0
H747 H 0.77008 0.43248 0.23268 0.0
H748 H 0.81182 0.39559 0.28715 0.0
C749 C 0.87009 0.35296 0.23709 0.0
C750 C 0.82136 0.38598 0.21297 0.0
C751 C 0.88882 0.34121 0.22787 0.0
C752 C 0.74084 0.42719 0.25658 0.0
C753 C 0.76247 0.42199 0.24769 0.0
C754 C 0.81433 0.39307 0.26637 0.0
C755 C 0.85978 0.36981 0.22171 0.0
C756 C 0.83868 0.38089 0.23078 0.0
C757 C 0.77423 0.40348 0.25827 0.0
C758 C 0.79687 0.39737 0.24863 0.0
H759 H 0.89418 0.36704 0.16845 0.0
H760 H 0.86194 0.38815 0.1849 0.0
H761 H 0.84813 0.38195 0.27178 0.0
H762 H 0.73476 0.38439 0.30111 0.0
H763 H 0.77259 0.37569 0.28599 0.0
C764 C 0.03543 0.74645 0.75993 0.0
C765 C 0.04672 0.73518 0.78028 0.0
C766 C 0.04284 0.76772 0.75121 0.0
C767 C 0.09368 0.80438 0.7529 0.0
H768 H 0.05327 0.85074 0.7269 0.0
C769 C 0.12398 0.89462 0.7313 0.0
C770 C 0.11947 0.90265 0.70593 0.0
C771 C 0.11318 0.87531 0.74087 0.0
C772 C 0.06469 0.83787 0.73405 0.0
H773 H 0.07378 0.73785 0.80842 0.0
H774 H 0.08604 0.7751 0.79413 0.0
H775 H 0.03799 0.81482 0.74316 0.0
H776 H 0.09921 0.89744 0.67125 0.0
H777 H 0.08001 0.86374 0.68829 0.0
H778 H 0.12028 0.82761 0.74435 0.0
C779 C 0.07208 0.76728 0.78404 0.0
C780 C 0.056 0.81725 0.74325 0.0
C781 C 0.06495 0.74594 0.7924 0.0
C782 C 0.10309 0.8916 0.69083 0.0
C783 C 0.09205 0.87239 0.70059 0.0
C784 C 0.10228 0.82502 0.74412 0.0
C785 C 0.06148 0.77827 0.76295 0.0
C786 C 0.07041 0.80026 0.75291 0.0
C787 C 0.09743 0.86377 0.72544 0.0
C788 C 0.0879 0.84199 0.73469 0.0
H789 H 0.02135 0.73853 0.75019 0.0
H790 H 0.03435 0.77553 0.73479 0.0
H791 H 0.10541 0.79154 0.75942 0.0
H792 H 0.13643 0.90279 0.74348 0.0
H793 H 0.11745 0.86912 0.76021 0.0
C794 C 0.55831 0.11587 0.22972 0.0
C795 C 0.55585 0.11884 0.20261 0.0
C796 C 0.57702 0.10459 0.23985 0.0
C797 C 0.6261 0.06859 0.22153 0.0
H798 H 0.65299 0.09701 0.28213 0.0
C799 C 0.70845 0.03568 0.2692 0.0
C800 C 0.72373 0.05231 0.27758 0.0
C801 C 0.68686 0.04177 0.26094 0.0
C802 C 0.64579 0.08893 0.26511 0.0
H803 H 0.57062 0.11155 0.16479 0.0
H804 H 0.60351 0.09242 0.1824 0.0
H805 H 0.61721 0.11068 0.2659 0.0
H806 H 0.72839 0.08844 0.2833 0.0
H807 H 0.69119 0.09901 0.26847 0.0
H808 H 0.65536 0.04756 0.22009 0.0
C809 C 0.59084 0.09841 0.19591 0.0
C810 C 0.62504 0.09655 0.25602 0.0
C811 C 0.57202 0.1095 0.18579 0.0
C812 C 0.71703 0.07514 0.27722 0.0
C813 C 0.69558 0.08121 0.26887 0.0
C814 C 0.64698 0.06104 0.23056 0.0
C815 C 0.59381 0.09621 0.2231 0.0
C816 C 0.61503 0.08669 0.23391 0.0
C817 C 0.68014 0.06462 0.26081 0.0
C818 C 0.65724 0.07138 0.25222 0.0
H819 H 0.546 0.12268 0.24317 0.0
H820 H 0.57849 0.10278 0.26086 0.0
H821 H 0.61876 0.0604 0.20467 0.0
H822 H 0.71306 0.01793 0.2693 0.0
H823 H 0.67534 0.02855 0.25506 0.0
C824 C 0.38953 0.74527 0.17092 0.0
C825 C 0.40776 0.73452 0.18312 0.0
C826 C 0.38181 0.76618 0.17982 0.0
C827 C 0.39629 0.81527 0.22228 0.0
H828 H 0.33181 0.82416 0.22067 0.0
C829 C 0.34804 0.88789 0.27543 0.0
C830 C 0.33146 0.89889 0.26051 0.0
C831 C 0.3592 0.86889 0.26552 0.0
C832 C 0.34987 0.82199 0.22105 0.0
H833 H 0.43253 0.73747 0.21394 0.0
H834 H 0.41854 0.77371 0.23018 0.0
H835 H 0.34761 0.78886 0.20481 0.0
H836 H 0.31413 0.89906 0.2232 0.0
H837 H 0.33336 0.86578 0.20616 0.0
H838 H 0.39818 0.84839 0.23944 0.0
C839 C 0.41049 0.76622 0.21332 0.0
C840 C 0.35899 0.80179 0.21183 0.0
C841 C 0.41846 0.74539 0.20411 0.0
C842 C 0.32675 0.89093 0.23523 0.0
C843 C 0.33768 0.87183 0.2255 0.0
C844 C 0.38708 0.83544 0.23187 0.0
C845 C 0.39185 0.77673 0.20149 0.0
C846 C 0.38234 0.79821 0.21201 0.0
C847 C 0.35376 0.86042 0.24068 0.0
C848 C 0.36379 0.83905 0.23107 0.0
H849 H 0.38113 0.73751 0.15444 0.0
H850 H 0.36786 0.77401 0.16969 0.0
H851 H 0.41435 0.81324 0.22252 0.0
H852 H 0.35208 0.89368 0.29494 0.0
H853 H 0.37149 0.86034 0.27764 0.0
C854 C 0.71406 0.42437 0.70584 0.0
C855 C 0.72556 0.41229 0.68637 0.0
C856 C 0.69277 0.4173 0.71421 0.0
C857 C 0.6558 0.36638 0.71342 0.0
H858 H 0.60986 0.40866 0.73573 0.0
C859 C 0.56544 0.33779 0.73373 0.0
C860 C 0.55709 0.34347 0.75857 0.0
C861 C 0.58493 0.34801 0.72413 0.0
C862 C 0.6226 0.39671 0.7296 0.0
H863 H 0.72335 0.38406 0.65947 0.0
H864 H 0.6861 0.37236 0.67313 0.0
H865 H 0.64605 0.42302 0.72016 0.0
H866 H 0.56193 0.3652 0.79222 0.0
H867 H 0.59589 0.3834 0.77511 0.0
H868 H 0.63217 0.34016 0.72231 0.0
C869 C 0.69372 0.38671 0.68283 0.0
C870 C 0.64338 0.40489 0.72082 0.0
C871 C 0.71507 0.39352 0.67483 0.0
C872 C 0.56801 0.36042 0.77305 0.0
C873 C 0.58737 0.37089 0.76325 0.0
C874 C 0.63499 0.35829 0.72177 0.0
C875 C 0.68241 0.39821 0.70298 0.0
C876 C 0.66025 0.3898 0.71253 0.0
C877 C 0.5963 0.36435 0.73899 0.0
C878 C 0.61819 0.37334 0.7299 0.0
H879 H 0.72177 0.43888 0.71514 0.0
H880 H 0.68472 0.42647 0.72994 0.0
H881 H 0.6685 0.35417 0.70795 0.0
H882 H 0.55739 0.32484 0.72206 0.0
H883 H 0.59136 0.34285 0.70525 0.0
C884 C 0.12345 0.57262 0.23601 0.0
C885 C 0.11943 0.5635 0.26097 0.0
C886 C 0.1111 0.59116 0.22699 0.0
C887 C 0.0765 0.6389 0.25123 0.0
H888 H 0.06535 0.6476 0.17716 0.0
C889 C 0.03132 0.71798 0.20788 0.0
C890 C 0.04395 0.72899 0.18837 0.0
C891 C 0.03753 0.69639 0.21674 0.0
C892 C 0.0683 0.64533 0.19791 0.0
H893 H 0.09866 0.56603 0.29567 0.0
H894 H 0.07653 0.59796 0.2796 0.0
H895 H 0.08092 0.61178 0.19261 0.0
H896 H 0.07255 0.72577 0.16233 0.0
H897 H 0.08301 0.68801 0.1774 0.0
H898 H 0.06368 0.67255 0.25633 0.0
C899 C 0.08968 0.59122 0.26724 0.0
C900 C 0.07736 0.62488 0.20679 0.0
C901 C 0.10225 0.57282 0.2764 0.0
C902 C 0.06254 0.7178 0.17748 0.0
C903 C 0.06846 0.69612 0.18596 0.0
C904 C 0.06711 0.65923 0.24236 0.0
C905 C 0.09417 0.60087 0.24256 0.0
C906 C 0.08213 0.6216 0.23349 0.0
C907 C 0.05615 0.68529 0.20581 0.0
C908 C 0.06343 0.66281 0.21556 0.0
H909 H 0.13665 0.56589 0.22369 0.0
H910 H 0.11539 0.5983 0.2081 0.0
H911 H 0.08018 0.63718 0.27187 0.0
H912 H 0.01694 0.72623 0.21666 0.0
H913 H 0.02777 0.68835 0.23206 0.0
C914 C 0.89326 0.1262 0.73467 0.0
C915 C 0.90206 0.12125 0.75951 0.0
C916 C 0.87456 0.11451 0.72528 0.0
C917 C 0.82599 0.08102 0.74906 0.0
H918 H 0.81644 0.07179 0.67485 0.0
C919 C 0.74559 0.03945 0.70643 0.0
C920 C 0.73515 0.05251 0.68687 0.0
C921 C 0.76723 0.04488 0.71503 0.0
C922 C 0.81893 0.07424 0.69563 0.0
H923 H 0.8989 0.09936 0.79344 0.0
H924 H 0.8667 0.07838 0.77672 0.0
H925 H 0.85265 0.08571 0.69018 0.0
H926 H 0.73943 0.08112 0.66055 0.0
H927 H 0.77724 0.09031 0.67528 0.0
H928 H 0.79218 0.06941 0.75434 0.0
C929 C 0.8738 0.09177 0.76477 0.0
C930 C 0.83962 0.08233 0.70444 0.0
C931 C 0.89237 0.10367 0.77429 0.0
C932 C 0.74695 0.07079 0.67574 0.0
C933 C 0.76866 0.07596 0.68402 0.0
C934 C 0.80541 0.07263 0.74025 0.0
C935 C 0.86436 0.09735 0.74036 0.0
C936 C 0.84326 0.08634 0.73123 0.0
C937 C 0.77895 0.06319 0.70387 0.0
C938 C 0.80153 0.06964 0.71341 0.0
H939 H 0.90028 0.13971 0.72283 0.0
H940 H 0.86762 0.11958 0.7066 0.0
H941 H 0.82799 0.08418 0.76977 0.0
H942 H 0.7369 0.02528 0.7154 0.0
H943 H 0.77484 0.03475 0.73034 0.0
C944 C 0.49406 0.20024 0.07514 0.0
C945 C 0.51193 0.18482 0.0776 0.0
C946 C 0.4902 0.21139 0.05131 0.0
C947 C 0.48252 0.22774 -0.00579 0.0
H948 H 0.53863 0.24907 0.96448 0.0
C949 C 0.49342 0.26792 0.89038 0.0
C950 C 0.51018 0.28456 0.88769 0.0
C951 C 0.48975 0.25737 0.91462 0.0
C952 C 0.52276 0.24351 0.97263 0.0
H953 H 0.53832 0.16736 0.05649 0.0
H954 H 0.53133 0.18638 0.01507 0.0
H955 H 0.53918 0.22584 0.00358 0.0
H956 H 0.53455 0.30483 0.90865 0.0
H957 H 0.5278 0.28692 0.95083 0.0
H958 H 0.46619 0.24578 0.96298 0.0
C959 C 0.52072 0.19041 0.03163 0.0
C960 C 0.5231 0.22986 -0.00514 0.0
C961 C 0.52467 0.17945 0.05535 0.0
C962 C 0.5218 0.29179 0.91002 0.0
C963 C 0.51799 0.28146 0.93417 0.0
C964 C 0.48218 0.24142 0.9717 0.0
C965 C 0.50409 0.20719 0.02961 0.0
C966 C 0.50305 0.22167 0.00585 0.0
C967 C 0.50269 0.26343 0.93651 0.0
C968 C 0.50235 0.24949 0.96075 0.0
H969 H 0.48394 0.2047 0.09197 0.0
H970 H 0.47725 0.22424 0.05032 0.0
H971 H 0.46681 0.22166 0.00228 0.0
H972 H 0.4842 0.26202 0.87348 0.0
H973 H 0.47785 0.24353 0.9158 0.0
C974 C 0.1763 0.52091 0.40843 0.0
C975 C 0.18194 0.51002 0.38494 0.0
C976 C 0.18593 0.51403 0.43201 0.0
C977 C 0.20355 0.49144 0.48132 0.0
H978 H 0.2686 0.49164 0.47814 0.0
C979 C 0.25769 0.49336 0.57478 0.0
C980 C 0.27268 0.51177 0.57476 0.0
C981 C 0.24751 0.48634 0.5515 0.0
C982 C 0.25044 0.49125 0.47931 0.0
H983 H 0.20128 0.48266 0.36791 0.0
H984 H 0.21848 0.47087 0.40929 0.0
H985 H 0.24687 0.49129 0.43766 0.0
H986 H 0.28985 0.53629 0.55016 0.0
H987 H 0.27233 0.52393 0.50968 0.0
H988 H 0.20713 0.49264 0.52295 0.0
C989 C 0.20651 0.48468 0.40933 0.0
C990 C 0.23801 0.49086 0.45616 0.0
C991 C 0.1966 0.49136 0.38572 0.0
C992 C 0.27827 0.52214 0.55085 0.0
C993 C 0.26837 0.51494 0.52761 0.0
C994 C 0.21599 0.49163 0.50448 0.0
C995 C 0.20161 0.49628 0.43262 0.0
C996 C 0.21445 0.49182 0.45693 0.0
C997 C 0.25245 0.49736 0.52777 0.0
C998 C 0.23956 0.4924 0.50366 0.0
H999 H 0.16497 0.53525 0.4085 0.0
H1000 H 0.182 0.52347 0.44957 0.0
H1001 H 0.1854 0.49201 0.48247 0.0
H1002 H 0.25303 0.48504 0.59291 0.0
H1003 H 0.23536 0.47269 0.55214 0.0
C1004 C 0.96033 0.2664 0.07447 0.0
C1005 C 0.94252 0.28194 0.07654 0.0
C1006 C 0.96454 0.25536 0.05073 0.0
C1007 C 0.97309 0.23951 -0.00633 0.0
H1008 H 0.91741 0.21773 0.96358 0.0
C1009 C 0.96296 0.19935 0.89001 0.0
C1010 C 0.9466 0.1823 0.88757 0.0
C1011 C 0.96643 0.21001 0.91412 0.0
C1012 C 0.93316 0.22345 0.97183 0.0
H1013 H 0.91663 0.2997 0.05482 0.0
H1014 H 0.92418 0.28078 0.0136 0.0
H1015 H 0.91634 0.24099 0.00249 0.0
H1016 H 0.92279 0.16144 0.90891 0.0
H1017 H 0.92915 0.17964 0.95084 0.0
H1018 H -0.01018 0.22165 0.96268 0.0
C1019 C 0.93449 0.27663 0.03039 0.0
C1020 C 0.93252 0.23709 -0.00605 0.0
C1021 C 0.93021 0.28752 0.054 0.0
C1022 C 0.93522 0.1748 0.91006 0.0
C1023 C 0.93881 0.18528 0.93407 0.0
C1024 C 0.97374 0.22588 0.97125 0.0
C1025 C 0.95106 0.25978 0.02875 0.0
C1026 C 0.95241 0.24539 0.00507 0.0
C1027 C 0.95369 0.20366 0.93613 0.0
C1028 C 0.95372 0.21764 0.9602 0.0
H1029 H 0.97014 0.26179 0.09149 0.0
H1030 H 0.97743 0.24244 0.05002 0.0
H1031 H -0.01131 0.24569 0.00187 0.0
H1032 H 0.972 0.20546 0.873 0.0
H1033 H -0.02199 0.22413 0.91512 0.0
C1034 C 0.2781 0.94037 0.4106 0.0
C1035 C 0.27211 0.95144 0.38725 0.0
C1036 C 0.26846 0.94675 0.43433 0.0
C1037 C 0.25081 0.969 0.4839 0.0
H1038 H 0.18574 0.9674 0.48181 0.0
C1039 C 0.19712 0.96963 0.57805 0.0
C1040 C 0.18239 0.95103 0.57941 0.0
C1041 C 0.20721 0.97566 0.55429 0.0
C1042 C 0.2039 0.96816 0.48266 0.0
H1043 H 0.25208 0.97856 0.37064 0.0
H1044 H 0.23485 -0.01055 0.41226 0.0
H1045 H 0.20707 0.96766 0.44095 0.0
H1046 H 0.16566 0.92507 0.55669 0.0
H1047 H 0.18298 0.93579 0.51529 0.0
H1048 H 0.24764 0.96847 0.52562 0.0
C1049 C 0.24712 0.97591 0.41208 0.0
C1050 C 0.21609 0.96849 0.4593 0.0
C1051 C 0.25706 0.96975 0.38832 0.0
C1052 C 0.17702 0.9394 0.55631 0.0
C1053 C 0.18682 0.94565 0.53255 0.0
C1054 C 0.2386 0.96893 0.50726 0.0
C1055 C 0.25239 0.96414 0.43522 0.0
C1056 C 0.23968 0.96816 0.45971 0.0
C1057 C 0.20243 0.96347 0.5314 0.0
C1058 C 0.21504 0.96774 0.50686 0.0
H1059 H 0.28972 0.92627 0.41042 0.0
H1060 H 0.2727 0.93722 0.45179 0.0
H1061 H 0.26897 0.96887 0.48475 0.0
H1062 H 0.20162 0.97889 0.59553 0.0
H1063 H 0.21912 -0.01046 0.55389 0.0
C1064 C 0.43827 0.78058 0.90938 0.0
C1065 C 0.44957 0.77584 0.8859 0.0
C1066 C 0.44525 0.77074 0.93284 0.0
C1067 C 0.46859 0.75385 0.98195 0.0
H1068 H 0.47127 0.68825 0.979 0.0
C1069 C 0.46954 0.69954 0.07577 0.0
C1070 C 0.45187 0.68373 0.07615 0.0
C1071 C 0.47607 0.70986 0.05227 0.0
C1072 C 0.47086 0.70657 0.9801 0.0
H1073 H 0.47759 0.75774 0.86874 0.0
H1074 H 0.48954 0.7401 0.90991 0.0
H1075 H 0.47036 0.71024 0.93842 0.0
H1076 H 0.42831 0.66517 0.05202 0.0
H1077 H 0.43984 0.68293 0.01114 0.0
H1078 H 0.4679 0.75016 0.0236 0.0
C1079 C 0.47536 0.75157 0.91004 0.0
C1080 C 0.47051 0.71916 0.95689 0.0
C1081 C 0.46857 0.76173 0.88655 0.0
C1082 C 0.44188 0.67739 0.05239 0.0
C1083 C 0.44861 0.68744 0.02892 0.0
C1084 C 0.46915 0.74128 0.00515 0.0
C1085 C 0.46351 0.75571 0.93332 0.0
C1086 C 0.46853 0.74288 0.95761 0.0
C1087 C 0.46531 0.70426 0.0287 0.0
C1088 C 0.46945 0.71748 0.00444 0.0
H1089 H 0.42364 0.79147 0.90954 0.0
H1090 H 0.43562 0.77405 0.9504 0.0
H1091 H 0.46724 0.77213 -0.01696 0.0
H1092 H 0.47755 0.70478 0.09377 0.0
H1093 H 0.48907 0.72269 0.05261 0.0
C1094 C 0.78562 0.43585 0.55564 0.0
C1095 C 0.7783 0.44764 0.57788 0.0
C1096 C 0.77541 0.43947 0.53148 0.0
C1097 C 0.73806 0.43432 0.49292 0.0
H1098 H 0.7164 0.49064 0.46291 0.0
C1099 C 0.67521 0.43207 0.40986 0.0
C1100 C 0.68059 0.44501 0.38763 0.0
C1101 C 0.68592 0.43604 0.4336 0.0
C1102 C 0.72243 0.47483 0.47108 0.0
H1103 H 0.7557 0.47371 0.59186 0.0
H1104 H 0.73746 0.47972 0.54952 0.0
H1105 H 0.73998 0.49144 0.50233 0.0
H1106 H 0.70028 0.47339 0.37331 0.0
H1107 H 0.71938 0.48014 0.41498 0.0
H1108 H 0.72089 0.41761 0.46194 0.0
C1109 C 0.75125 0.46783 0.5508 0.0
C1110 C 0.7358 0.47527 0.49365 0.0
C1111 C 0.76166 0.46435 0.57505 0.0
C1112 C 0.69581 0.46311 0.39011 0.0
C1113 C 0.70671 0.467 0.41397 0.0
C1114 C 0.72472 0.43387 0.47061 0.0
C1115 C 0.75745 0.45475 0.52902 0.0
C1116 C 0.74381 0.45497 0.50473 0.0
C1117 C 0.70246 0.45292 0.43566 0.0
C1118 C 0.71661 0.45405 0.4595 0.0
H1119 H 0.79866 0.42313 0.5571 0.0
H1120 H 0.78096 0.42955 0.5149 0.0
H1121 H 0.74359 0.41834 0.50117 0.0
H1122 H 0.66328 0.41825 0.4087 0.0
H1123 H 0.68187 0.42528 0.45016 0.0
C1124 C 0.02252 0.78583 0.05541 0.0
C1125 C 0.01001 0.77996 0.07773 0.0
C1126 C 0.01863 0.77505 0.03164 0.0
C1127 C -0.01909 0.73747 -0.00579 0.0
H1128 H 0.03722 0.71695 0.96446 0.0
C1129 C 0.02063 0.67392 0.91048 0.0
C1130 C 0.00919 0.68122 0.88798 0.0
C1131 C 0.01671 0.68423 0.93452 0.0
C1132 C 0.0213 0.72231 0.97261 0.0
H1133 H -0.01755 0.75939 0.09216 0.0
H1134 H 0.97585 0.7402 0.05044 0.0
H1135 H 0.03756 0.74001 0.00353 0.0
H1136 H -0.01665 0.70383 0.87343 0.0
H1137 H 0.97675 0.72221 0.9156 0.0
H1138 H 0.96476 0.71942 0.96299 0.0
C1139 C -0.01142 0.75328 0.05141 0.0
C1140 C 0.02151 0.73585 -0.00518 0.0
C1141 C -0.0076 0.76423 0.07529 0.0
C1142 C -0.00755 0.69787 0.89044 0.0
C1143 C -0.01136 0.70837 0.91459 0.0
C1144 C -0.0193 0.72393 0.97171 0.0
C1145 C 0.00228 0.75799 0.02965 0.0
C1146 C 0.00138 0.74371 0.00583 0.0
C1147 C 0.00142 0.70226 0.93661 0.0
C1148 C 0.00094 0.71614 0.96077 0.0
H1149 H 0.03596 0.79816 0.05651 0.0
H1150 H 0.02909 0.77943 0.01503 0.0
H1151 H 0.96514 0.7433 0.00231 0.0
H1152 H 0.03337 0.66087 0.90931 0.0
H1153 H 0.02641 0.67876 0.9513 0.0
C1154 C 0.69843 -0.00419 0.57834 0.0
C1155 C 0.68341 0.01418 0.57883 0.0
C1156 C 0.70854 -0.01078 0.55484 0.0
C1157 C 0.7054 -0.005 0.48285 0.0
H1158 H 0.77044 -0.00345 0.48554 0.0
C1159 C 0.77936 0.02447 0.41094 0.0
C1160 C 0.77397 0.01294 0.38779 0.0
C1161 C 0.76962 0.01809 0.43468 0.0
C1162 C 0.7523 -0.00422 0.48453 0.0
H1163 H 0.66607 0.03901 0.55492 0.0
H1164 H 0.68341 0.02732 0.514 0.0
H1165 H 0.74883 -0.00323 0.52619 0.0
H1166 H 0.75486 -0.01496 0.37156 0.0
H1167 H 0.73748 0.97414 0.41317 0.0
H1168 H 0.70884 -0.0049 0.44116 0.0
C1169 C 0.68748 0.01808 0.53171 0.0
C1170 C 0.73993 -0.00427 0.50777 0.0
C1171 C 0.67766 0.02488 0.55519 0.0
C1172 C 0.75937 -0.00577 0.38908 0.0
C1173 C 0.74935 -0.01195 0.41283 0.0
C1174 C 0.71776 -0.0052 0.45961 0.0
C1175 C 0.70348 0.00061 0.53139 0.0
C1176 C 0.71636 -0.00386 0.50713 0.0
C1177 C 0.75407 0.00021 0.43576 0.0
C1178 C 0.74132 -0.00401 0.46022 0.0
H1179 H 0.70322 -0.01273 0.59627 0.0
H1180 H 0.72076 0.97564 0.55509 0.0
H1181 H 0.68724 -0.00484 0.48182 0.0
H1182 H 0.79063 0.03888 0.41061 0.0
H1183 H 0.77342 0.02792 0.45197 0.0
loop_
_geom_bond_atom_site_label_1
_geom_bond_atom_site_label_2
_geom_bond_distance
_geom_bond_site_symmetry_2
_ccdc_geom_bond_type
C0 O1 1.306 . S
C0 O3 1.160 . S
O1 C0 1.306 . S
O1 Cd2 2.228 . S
Cd2 O1 2.228 . S
Cd2 O6 2.273 . S
Cd2 O10 2.277 . S
O3 C0 1.160 . S
O3 Cd4 2.203 . S
Cd4 O3 2.203 . S
Cd4 O6 2.411 . S
Cd4 O7 2.333 . S
Cd4 O8 2.352 . S
Cd4 O12 2.277 . S
Cd4 O13 2.356 . S
C5 O10 1.209 . S
C5 O12 1.226 . S
O6 Cd2 2.273 . S
O6 Cd4 2.411 . S
O6 C9 1.320 . S
O7 Cd4 2.333 . S
O7 C9 1.214 . S
O8 Cd4 2.352 . S
O8 C11 1.258 . S
C9 O6 1.320 . S
C9 O7 1.214 . S
O10 Cd2 2.277 . S
O10 C5 1.209 . S
C11 O8 1.258 . S
C11 O13 1.282 . S
O12 Cd4 2.277 . S
O12 C5 1.226 . S
O13 Cd4 2.356 . S
O13 C11 1.282 . S
C14 O15 1.306 . S
C14 O17 1.160 . S
O15 C14 1.306 . S
O15 Cd16 2.228 . S
Cd16 O15 2.228 . S
Cd16 O20 2.273 . S
Cd16 O24 2.277 . S
O17 C14 1.160 . S
O17 Cd18 2.203 . S
Cd18 O17 2.203 . S
Cd18 O20 2.411 . S
Cd18 O21 2.333 . S
Cd18 O22 2.352 . S
Cd18 O26 2.277 . S
Cd18 O27 2.356 . S
C19 O24 1.209 . S
C19 O26 1.226 . S
O20 Cd16 2.273 . S
O20 Cd18 2.411 . S
O20 C23 1.320 . S
O21 Cd18 2.333 . S
O21 C23 1.214 . S
O22 Cd18 2.352 . S
O22 C25 1.258 . S
C23 O20 1.320 . S
C23 O21 1.214 . S
O24 Cd16 2.277 . S
O24 C19 1.209 . S
C25 O22 1.258 . S
C25 O27 1.282 . S
O26 Cd18 2.277 . S
O26 C19 1.226 . S
O27 Cd18 2.356 . S
O27 C25 1.282 . S
C28 O29 1.306 . S
C28 O31 1.160 . S
O29 C28 1.306 . S
O29 Cd30 2.228 . S
Cd30 O29 2.228 . S
Cd30 O34 2.273 . S
Cd30 O38 2.277 . S
O31 C28 1.160 . S
O31 Cd32 2.203 . S
Cd32 O31 2.203 . S
Cd32 O34 2.411 . S
Cd32 O35 2.333 . S
Cd32 O36 2.352 1_655 S
Cd32 O40 2.277 . S
Cd32 O41 2.356 1_655 S
C33 O38 1.209 . S
C33 O40 1.226 . S
O34 Cd30 2.273 . S
O34 Cd32 2.411 . S
O34 C37 1.320 . S
O35 Cd32 2.333 . S
O35 C37 1.214 . S
O36 Cd32 2.352 1_455 S
O36 C39 1.258 . S
C37 O34 1.320 . S
C37 O35 1.214 . S
O38 Cd30 2.277 . S
O38 C33 1.209 . S
C39 O36 1.258 . S
C39 O41 1.282 . S
O40 Cd32 2.277 . S
O40 C33 1.226 . S
O41 Cd32 2.356 1_455 S
O41 C39 1.282 . S
C42 O43 1.306 . S
C42 O45 1.160 . S
O43 C42 1.306 . S
O43 Cd44 2.228 . S
Cd44 O43 2.228 . S
Cd44 O48 2.273 . S
Cd44 O52 2.277 . S
O45 C42 1.160 . S
O45 Cd46 2.203 . S
Cd46 O45 2.203 . S
Cd46 O48 2.411 . S
Cd46 O49 2.333 . S
Cd46 O50 2.352 1_565 S
Cd46 O54 2.277 . S
Cd46 O55 2.356 1_565 S
C47 O52 1.209 . S
C47 O54 1.226 . S
O48 Cd44 2.273 . S
O48 Cd46 2.411 . S
O48 C51 1.320 . S
O49 Cd46 2.333 . S
O49 C51 1.214 . S
O50 Cd46 2.352 1_545 S
O50 C53 1.258 . S
C51 O48 1.320 . S
C51 O49 1.214 . S
O52 Cd44 2.277 . S
O52 C47 1.209 . S
C53 O50 1.258 . S
C53 O55 1.282 . S
O54 Cd46 2.277 . S
O54 C47 1.226 . S
O55 Cd46 2.356 1_545 S
O55 C53 1.282 . S
C56 O57 1.306 . S
C56 O59 1.160 . S
O57 C56 1.306 . S
O57 Cd58 2.228 . S
Cd58 O57 2.228 . S
Cd58 O62 2.273 . S
Cd58 O66 2.277 . S
O59 C56 1.160 . S
O59 Cd60 2.203 . S
Cd60 O59 2.203 . S
Cd60 O62 2.411 . S
Cd60 O63 2.333 . S
Cd60 O64 2.352 . S
Cd60 O68 2.277 . S
Cd60 O69 2.356 . S
C61 O66 1.209 . S
C61 O68 1.226 . S
O62 Cd58 2.273 . S
O62 Cd60 2.411 . S
O62 C65 1.320 . S
O63 Cd60 2.333 . S
O63 C65 1.214 . S
O64 Cd60 2.352 . S
O64 C67 1.258 . S
C65 O62 1.320 . S
C65 O63 1.214 . S
O66 Cd58 2.277 . S
O66 C61 1.209 . S
C67 O64 1.258 . S
C67 O69 1.282 . S
O68 Cd60 2.277 . S
O68 C61 1.226 . S
O69 Cd60 2.356 . S
O69 C67 1.282 . S
C70 O71 1.306 . S
C70 O73 1.160 . S
O71 C70 1.306 . S
O71 Cd72 2.228 . S
Cd72 O71 2.228 . S
Cd72 O76 2.273 . S
Cd72 O80 2.277 . S
O73 C70 1.160 . S
O73 Cd74 2.203 . S
Cd74 O73 2.203 . S
Cd74 O76 2.411 . S
Cd74 O77 2.333 . S
Cd74 O78 2.352 . S
Cd74 O82 2.277 . S
Cd74 O83 2.356 . S
C75 O80 1.209 . S
C75 O82 1.226 . S
O76 Cd72 2.273 . S
O76 Cd74 2.411 . S
O76 C79 1.320 . S
O77 Cd74 2.333 . S
O77 C79 1.214 . S
O78 Cd74 2.352 . S
O78 C81 1.258 . S
C79 O76 1.320 . S
C79 O77 1.214 . S
O80 Cd72 2.277 . S
O80 C75 1.209 . S
C81 O78 1.258 . S
C81 O83 1.282 . S
O82 Cd74 2.277 . S
O82 C75 1.226 . S
O83 Cd74 2.356 . S
O83 C81 1.282 . S
C84 O85 1.306 . S
C84 O87 1.160 . S
O85 C84 1.306 . S
O85 Cd86 2.228 . S
Cd86 O85 2.228 . S
Cd86 O90 2.273 . S
Cd86 O94 2.277 . S
O87 C84 1.160 . S
O87 Cd88 2.203 . S
Cd88 O87 2.203 . S
Cd88 O90 2.411 . S
Cd88 O91 2.333 . S
Cd88 O92 2.352 1_655 S
Cd88 O96 2.277 . S
Cd88 O97 2.356 1_655 S
C89 O94 1.209 . S
C89 O96 1.226 . S
O90 Cd86 2.273 . S
O90 Cd88 2.411 . S
O90 C93 1.320 . S
O91 Cd88 2.333 . S
O91 C93 1.214 . S
O92 Cd88 2.352 1_455 S
O92 C95 1.258 . S
C93 O90 1.320 . S
C93 O91 1.214 . S
O94 Cd86 2.277 . S
O94 C89 1.209 . S
C95 O92 1.258 . S
C95 O97 1.282 . S
O96 Cd88 2.277 . S
O96 C89 1.226 . S
O97 Cd88 2.356 1_455 S
O97 C95 1.282 . S
C98 O99 1.306 . S
C98 O101 1.160 . S
O99 C98 1.306 . S
O99 Cd100 2.228 . S
Cd100 O99 2.228 . S
Cd100 O104 2.273 . S
Cd100 O108 2.277 . S
O101 C98 1.160 . S
O101 Cd102 2.203 . S
Cd102 O101 2.203 . S
Cd102 O104 2.411 . S
Cd102 O105 2.333 . S
Cd102 O106 2.352 1_565 S
Cd102 O110 2.277 . S
Cd102 O111 2.356 1_565 S
C103 O108 1.209 . S
C103 O110 1.226 . S
O104 Cd100 2.273 . S
O104 Cd102 2.411 . S
O104 C107 1.320 . S
O105 Cd102 2.333 . S
O105 C107 1.214 . S
O106 Cd102 2.352 1_545 S
O106 C109 1.258 . S
C107 O104 1.320 . S
C107 O105 1.214 . S
O108 Cd100 2.277 . S
O108 C103 1.209 . S
C109 O106 1.258 . S
C109 O111 1.282 . S
O110 Cd102 2.277 . S
O110 C103 1.226 . S
O111 Cd102 2.356 1_545 S
O111 C109 1.282 . S
C112 O113 1.306 . S
C112 O115 1.160 . S
O113 C112 1.306 . S
O113 Cd114 2.228 . S
Cd114 O113 2.228 . S
Cd114 O118 2.273 . S
Cd114 O122 2.277 . S
O115 C112 1.160 . S
O115 Cd116 2.203 . S
Cd116 O115 2.203 . S
Cd116 O118 2.411 . S
Cd116 O119 2.333 . S
Cd116 O120 2.352 . S
Cd116 O124 2.277 . S
Cd116 O125 2.356 . S
C117 O122 1.209 . S
C117 O124 1.226 . S
O118 Cd114 2.273 . S
O118 Cd116 2.411 . S
O118 C121 1.320 . S
O119 Cd116 2.333 . S
O119 C121 1.214 . S
O120 Cd116 2.352 . S
O120 C123 1.258 . S
C121 O118 1.320 . S
C121 O119 1.214 . S
O122 Cd114 2.277 . S
O122 C117 1.209 . S
C123 O120 1.258 . S
C123 O125 1.282 . S
O124 Cd116 2.277 . S
O124 C117 1.226 . S
O125 Cd116 2.356 . S
O125 C123 1.282 . S
C126 O127 1.306 . S
C126 O129 1.160 . S
O127 C126 1.306 . S
O127 Cd128 2.228 . S
Cd128 O127 2.228 . S
Cd128 O132 2.273 . S
Cd128 O136 2.277 . S
O129 C126 1.160 . S
O129 Cd130 2.203 . S
Cd130 O129 2.203 . S
Cd130 O132 2.411 . S
Cd130 O133 2.333 . S
Cd130 O134 2.352 . S
Cd130 O138 2.277 . S
Cd130 O139 2.356 . S
C131 O136 1.209 . S
C131 O138 1.226 . S
O132 Cd128 2.273 . S
O132 Cd130 2.411 . S
O132 C135 1.320 . S
O133 Cd130 2.333 . S
O133 C135 1.214 . S
O134 Cd130 2.352 . S
O134 C137 1.258 . S
C135 O132 1.320 . S
C135 O133 1.214 . S
O136 Cd128 2.277 . S
O136 C131 1.209 . S
C137 O134 1.258 . S
C137 O139 1.282 . S
O138 Cd130 2.277 . S
O138 C131 1.226 . S
O139 Cd130 2.356 . S
O139 C137 1.282 . S
C140 O141 1.306 . S
C140 O143 1.160 . S
O141 C140 1.306 . S
O141 Cd142 2.228 . S
Cd142 O141 2.228 . S
Cd142 O146 2.273 . S
Cd142 O150 2.277 . S
O143 C140 1.160 . S
O143 Cd144 2.203 . S
Cd144 O143 2.203 . S
Cd144 O146 2.411 . S
Cd144 O147 2.333 . S
Cd144 O148 2.352 1_455 S
Cd144 O152 2.277 . S
Cd144 O153 2.356 1_455 S
C145 O150 1.209 . S
C145 O152 1.226 . S
O146 Cd142 2.273 . S
O146 Cd144 2.411 . S
O146 C149 1.320 . S
O147 Cd144 2.333 . S
O147 C149 1.214 . S
O148 Cd144 2.352 1_655 S
O148 C151 1.258 . S
C149 O146 1.320 . S
C149 O147 1.214 . S
O150 Cd142 2.277 . S
O150 C145 1.209 . S
C151 O148 1.258 . S
C151 O153 1.282 . S
O152 Cd144 2.277 . S
O152 C145 1.226 . S
O153 Cd144 2.356 1_655 S
O153 C151 1.282 . S
C154 O155 1.306 . S
C154 O157 1.160 . S
O155 C154 1.306 . S
O155 Cd156 2.228 . S
Cd156 O155 2.228 . S
Cd156 O160 2.273 . S
Cd156 O164 2.277 . S
O157 C154 1.160 . S
O157 Cd158 2.203 . S
Cd158 O157 2.203 . S
Cd158 O160 2.411 . S
Cd158 O161 2.333 . S
Cd158 O162 2.352 1_545 S
Cd158 O166 2.277 . S
Cd158 O167 2.356 1_545 S
C159 O164 1.209 . S
C159 O166 1.226 . S
O160 Cd156 2.273 . S
O160 Cd158 2.411 . S
O160 C163 1.320 . S
O161 Cd158 2.333 . S
O161 C163 1.214 . S
O162 Cd158 2.352 1_565 S
O162 C165 1.258 . S
C163 O160 1.320 . S
C163 O161 1.214 . S
O164 Cd156 2.277 . S
O164 C159 1.209 . S
C165 O162 1.258 . S
C165 O167 1.282 . S
O166 Cd158 2.277 . S
O166 C159 1.226 . S
O167 Cd158 2.356 1_565 S
O167 C165 1.282 . S
C168 O169 1.306 . S
C168 O171 1.160 . S
O169 C168 1.306 . S
O169 Cd170 2.228 . S
Cd170 O169 2.228 . S
Cd170 O174 2.273 . S
Cd170 O178 2.277 . S
O171 C168 1.160 . S
O171 Cd172 2.203 . S
Cd172 O171 2.203 . S
Cd172 O174 2.411 . S
Cd172 O175 2.333 . S
Cd172 O176 2.352 . S
Cd172 O180 2.277 . S
Cd172 O181 2.356 . S
C173 O178 1.209 . S
C173 O180 1.226 . S
O174 Cd170 2.273 . S
O174 Cd172 2.411 . S
O174 C177 1.320 . S
O175 Cd172 2.333 . S
O175 C177 1.214 . S
O176 Cd172 2.352 . S
O176 C179 1.258 . S
C177 O174 1.320 . S
C177 O175 1.214 . S
O178 Cd170 2.277 . S
O178 C173 1.209 . S
C179 O176 1.258 . S
C179 O181 1.282 . S
O180 Cd172 2.277 . S
O180 C173 1.226 . S
O181 Cd172 2.356 . S
O181 C179 1.282 . S
C182 O183 1.306 . S
C182 O185 1.160 . S
O183 C182 1.306 . S
O183 Cd184 2.228 . S
Cd184 O183 2.228 . S
Cd184 O188 2.273 . S
Cd184 O192 2.277 . S
O185 C182 1.160 . S
O185 Cd186 2.203 . S
Cd186 O185 2.203 . S
Cd186 O188 2.411 . S
Cd186 O189 2.333 . S
Cd186 O190 2.352 . S
Cd186 O194 2.277 . S
Cd186 O195 2.356 . S
C187 O192 1.209 . S
C187 O194 1.226 . S
O188 Cd184 2.273 . S
O188 Cd186 2.411 . S
O188 C191 1.320 . S
O189 Cd186 2.333 . S
O189 C191 1.214 . S
O190 Cd186 2.352 . S
O190 C193 1.258 . S
C191 O188 1.320 . S
C191 O189 1.214 . S
O192 Cd184 2.277 . S
O192 C187 1.209 . S
C193 O190 1.258 . S
C193 O195 1.282 . S
O194 Cd186 2.277 . S
O194 C187 1.226 . S
O195 Cd186 2.356 . S
O195 C193 1.282 . S
C196 O197 1.306 . S
C196 O199 1.160 . S
O197 C196 1.306 . S
O197 Cd198 2.228 . S
Cd198 O197 2.228 . S
Cd198 O202 2.273 . S
Cd198 O206 2.277 . S
O199 C196 1.160 . S
O199 Cd200 2.203 . S
Cd200 O199 2.203 . S
Cd200 O202 2.411 . S
Cd200 O203 2.333 . S
Cd200 O204 2.352 1_455 S
Cd200 O208 2.277 . S
Cd200 O209 2.356 1_455 S
C201 O206 1.209 . S
C201 O208 1.226 . S
O202 Cd198 2.273 . S
O202 Cd200 2.411 . S
O202 C205 1.320 . S
O203 Cd200 2.333 . S
O203 C205 1.214 . S
O204 Cd200 2.352 1_655 S
O204 C207 1.258 . S
C205 O202 1.320 . S
C205 O203 1.214 . S
O206 Cd198 2.277 . S
O206 C201 1.209 . S
C207 O204 1.258 . S
C207 O209 1.282 . S
O208 Cd200 2.277 . S
O208 C201 1.226 . S
O209 Cd200 2.356 1_655 S
O209 C207 1.282 . S
C210 O211 1.306 . S
C210 O213 1.160 . S
O211 C210 1.306 . S
O211 Cd212 2.228 . S
Cd212 O211 2.228 . S
Cd212 O216 2.273 . S
Cd212 O220 2.277 . S
O213 C210 1.160 . S
O213 Cd214 2.203 . S
Cd214 O213 2.203 . S
Cd214 O216 2.411 . S
Cd214 O217 2.333 . S
Cd214 O218 2.352 1_545 S
Cd214 O222 2.277 . S
Cd214 O223 2.356 1_545 S
C215 O220 1.209 . S
C215 O222 1.226 . S
O216 Cd212 2.273 . S
O216 Cd214 2.411 . S
O216 C219 1.320 . S
O217 Cd214 2.333 . S
O217 C219 1.214 . S
O218 Cd214 2.352 1_565 S
O218 C221 1.258 . S
C219 O216 1.320 . S
C219 O217 1.214 . S
O220 Cd212 2.277 . S
O220 C215 1.209 . S
C221 O218 1.258 . S
C221 O223 1.282 . S
O222 Cd214 2.277 . S
O222 C215 1.226 . S
O223 Cd214 2.356 1_565 S
O223 C221 1.282 . S
C224 C225 1.349 . S
C224 C226 1.327 . S
C224 H249 0.950 . S
C225 C224 1.349 . S
C225 C241 1.349 . S
C226 C224 1.327 . S
C226 C245 1.429 . S
C226 H250 0.950 . S
C227 C244 1.574 . S
C227 C246 1.368 . S
C227 H251 0.949 . S
H228 C232 0.949 . S
C229 C230 1.349 . S
C229 C231 1.327 . S
C229 H252 0.950 . S
C230 C229 1.349 . S
C230 C242 1.349 . S
C231 C229 1.327 . S
C231 C247 1.429 . S
C231 H253 0.950 . S
C232 H228 0.949 . S
C232 C240 1.574 . S
C232 C248 1.368 . S
H233 C241 0.950 . S
H234 C239 0.950 . S
H235 C240 0.949 . S
H236 C242 0.950 . S
H237 C243 0.950 . S
H238 C244 0.949 . S
C239 H234 0.950 . S
C239 C241 1.327 . S
C239 C245 1.429 . S
C240 C232 1.574 . S
C240 H235 0.949 . S
C240 C246 1.368 . S
C241 C225 1.349 . S
C241 H233 0.950 . S
C241 C239 1.327 . S
C242 C230 1.349 . S
C242 H236 0.950 . S
C242 C243 1.327 . S
C243 H237 0.950 . S
C243 C242 1.327 . S
C243 C247 1.429 . S
C244 C227 1.574 . S
C244 H238 0.949 . S
C244 C248 1.368 . S
C245 C226 1.429 . S
C245 C239 1.429 . S
C245 C246 1.523 . S
C246 C227 1.368 . S
C246 C240 1.368 . S
C246 C245 1.523 . S
C247 C231 1.429 . S
C247 C243 1.429 . S
C247 C248 1.523 . S
C248 C232 1.368 . S
C248 C244 1.368 . S
C248 C247 1.523 . S
H249 C224 0.950 . S
H250 C226 0.950 . S
H251 C227 0.949 . S
H252 C229 0.950 . S
H253 C231 0.950 . S
C254 C255 1.349 . S
C254 C256 1.327 . S
C254 H279 0.950 . S
C255 C254 1.349 . S
C255 C271 1.349 . S
C256 C254 1.327 . S
C256 C275 1.429 . S
C256 H280 0.950 . S
C257 C274 1.574 . S
C257 C276 1.368 . S
C257 H281 0.949 . S
H258 C262 0.949 . S
C259 C260 1.349 . S
C259 C261 1.327 . S
C259 H282 0.950 . S
C260 C259 1.349 . S
C260 C272 1.349 . S
C261 C259 1.327 . S
C261 C277 1.429 . S
C261 H283 0.950 . S
C262 H258 0.949 . S
C262 C270 1.574 . S
C262 C278 1.368 . S
H263 C271 0.950 . S
H264 C269 0.950 . S
H265 C270 0.949 . S
H266 C272 0.950 . S
H267 C273 0.950 . S
H268 C274 0.949 . S
C269 H264 0.950 . S
C269 C271 1.327 . S
C269 C275 1.429 . S
C270 C262 1.574 . S
C270 H265 0.949 . S
C270 C276 1.368 . S
C271 C255 1.349 . S
C271 H263 0.950 . S
C271 C269 1.327 . S
C272 C260 1.349 . S
C272 H266 0.950 . S
C272 C273 1.327 . S
C273 H267 0.950 . S
C273 C272 1.327 . S
C273 C277 1.429 . S
C274 C257 1.574 . S
C274 H268 0.949 . S
C274 C278 1.368 . S
C275 C256 1.429 . S
C275 C269 1.429 . S
C275 C276 1.523 . S
C276 C257 1.368 . S
C276 C270 1.368 . S
C276 C275 1.523 . S
C277 C261 1.429 . S
C277 C273 1.429 . S
C277 C278 1.523 . S
C278 C262 1.368 . S
C278 C274 1.368 . S
C278 C277 1.523 . S
H279 C254 0.950 . S
H280 C256 0.950 . S
H281 C257 0.949 . S
H282 C259 0.950 . S
H283 C261 0.950 . S
C284 C285 1.349 . S
C284 C286 1.327 . S
C284 H309 0.950 . S
C285 C284 1.349 . S
C285 C301 1.349 . S
C286 C284 1.327 . S
C286 C305 1.429 . S
C286 H310 0.950 . S
C287 C304 1.574 . S
C287 C306 1.368 . S
C287 H311 0.949 . S
H288 C292 0.949 . S
C289 C290 1.349 . S
C289 C291 1.327 . S
C289 H312 0.950 . S
C290 C289 1.349 . S
C290 C302 1.349 . S
C291 C289 1.327 . S
C291 C307 1.429 . S
C291 H313 0.950 . S
C292 H288 0.949 . S
C292 C300 1.574 . S
C292 C308 1.368 . S
H293 C301 0.950 . S
H294 C299 0.950 . S
H295 C300 0.949 . S
H296 C302 0.950 . S
H297 C303 0.950 . S
H298 C304 0.949 . S
C299 H294 0.950 . S
C299 C301 1.327 . S
C299 C305 1.429 . S
C300 C292 1.574 . S
C300 H295 0.949 . S
C300 C306 1.368 . S
C301 C285 1.349 . S
C301 H293 0.950 . S
C301 C299 1.327 . S
C302 C290 1.349 . S
C302 H296 0.950 . S
C302 C303 1.327 . S
C303 H297 0.950 . S
C303 C302 1.327 . S
C303 C307 1.429 . S
C304 C287 1.574 . S
C304 H298 0.949 . S
C304 C308 1.368 . S
C305 C286 1.429 . S
C305 C299 1.429 . S
C305 C306 1.523 . S
C306 C287 1.368 . S
C306 C300 1.368 . S
C306 C305 1.523 . S
C307 C291 1.429 . S
C307 C303 1.429 . S
C307 C308 1.523 . S
C308 C292 1.368 . S
C308 C304 1.368 . S
C308 C307 1.523 . S
H309 C284 0.950 . S
H310 C286 0.950 . S
H311 C287 0.949 . S
H312 C289 0.950 . S
H313 C291 0.950 . S
C314 C315 1.349 . S
C314 C316 1.327 . S
C314 H339 0.950 . S
C315 C314 1.349 . S
C315 C331 1.349 . S
C316 C314 1.327 . S
C316 C335 1.429 . S
C316 H340 0.950 . S
C317 C334 1.574 . S
C317 C336 1.368 . S
C317 H341 0.949 . S
H318 C322 0.949 . S
C319 C320 1.349 . S
C319 C321 1.327 . S
C319 H342 0.950 . S
C320 C319 1.349 . S
C320 C332 1.349 . S
C321 C319 1.327 . S
C321 C337 1.429 . S
C321 H343 0.950 . S
C322 H318 0.949 . S
C322 C330 1.574 . S
C322 C338 1.368 . S
H323 C331 0.950 . S
H324 C329 0.950 . S
H325 C330 0.949 . S
H326 C332 0.950 . S
H327 C333 0.950 . S
H328 C334 0.949 . S
C329 H324 0.950 . S
C329 C331 1.327 . S
C329 C335 1.429 . S
C330 C322 1.574 . S
C330 H325 0.949 . S
C330 C336 1.368 . S
C331 C315 1.349 . S
C331 H323 0.950 . S
C331 C329 1.327 . S
C332 C320 1.349 . S
C332 H326 0.950 . S
C332 C333 1.327 . S
C333 H327 0.950 . S
C333 C332 1.327 . S
C333 C337 1.429 . S
C334 C317 1.574 . S
C334 H328 0.949 . S
C334 C338 1.368 . S
C335 C316 1.429 . S
C335 C329 1.429 . S
C335 C336 1.523 . S
C336 C317 1.368 . S
C336 C330 1.368 . S
C336 C335 1.523 . S
C337 C321 1.429 . S
C337 C333 1.429 . S
C337 C338 1.523 . S
C338 C322 1.368 . S
C338 C334 1.368 . S
C338 C337 1.523 . S
H339 C314 0.950 . S
H340 C316 0.950 . S
H341 C317 0.949 . S
H342 C319 0.950 . S
H343 C321 0.950 . S
C344 C345 1.349 . S
C344 C346 1.327 . S
C344 H369 0.950 . S
C345 C344 1.349 . S
C345 C361 1.349 . S
C346 C344 1.327 . S
C346 C365 1.429 . S
C346 H370 0.950 . S
C347 C364 1.574 . S
C347 C366 1.368 . S
C347 H371 0.949 . S
H348 C352 0.949 . S
C349 C350 1.349 . S
C349 C351 1.327 . S
C349 H372 0.950 . S
C350 C349 1.349 . S
C350 C362 1.349 . S
C351 C349 1.327 . S
C351 C367 1.429 . S
C351 H373 0.950 . S
C352 H348 0.949 . S
C352 C360 1.574 . S
C352 C368 1.368 . S
H353 C361 0.950 . S
H354 C359 0.950 . S
H355 C360 0.949 . S
H356 C362 0.950 . S
H357 C363 0.950 . S
H358 C364 0.949 . S
C359 H354 0.950 . S
C359 C361 1.327 . S
C359 C365 1.429 . S
C360 C352 1.574 . S
C360 H355 0.949 . S
C360 C366 1.368 . S
C361 C345 1.349 . S
C361 H353 0.950 . S
C361 C359 1.327 . S
C362 C350 1.349 . S
C362 H356 0.950 . S
C362 C363 1.327 . S
C363 H357 0.950 . S
C363 C362 1.327 . S
C363 C367 1.429 . S
C364 C347 1.574 . S
C364 H358 0.949 . S
C364 C368 1.368 . S
C365 C346 1.429 . S
C365 C359 1.429 . S
C365 C366 1.523 . S
C366 C347 1.368 . S
C366 C360 1.368 . S
C366 C365 1.523 . S
C367 C351 1.429 . S
C367 C363 1.429 . S
C367 C368 1.523 . S
C368 C352 1.368 . S
C368 C364 1.368 . S
C368 C367 1.523 . S
H369 C344 0.950 . S
H370 C346 0.950 . S
H371 C347 0.949 . S
H372 C349 0.950 . S
H373 C351 0.950 . S
C374 C375 1.349 . S
C374 C376 1.327 . S
C374 H399 0.950 . S
C375 C374 1.349 . S
C375 C391 1.349 . S
C376 C374 1.327 . S
C376 C395 1.429 . S
C376 H400 0.950 . S
C377 C394 1.574 . S
C377 C396 1.368 . S
C377 H401 0.949 . S
H378 C382 0.949 . S
C379 C380 1.349 . S
C379 C381 1.327 . S
C379 H402 0.950 . S
C380 C379 1.349 . S
C380 C392 1.349 . S
C381 C379 1.327 . S
C381 C397 1.429 . S
C381 H403 0.950 . S
C382 H378 0.949 . S
C382 C390 1.574 . S
C382 C398 1.368 . S
H383 C391 0.950 . S
H384 C389 0.950 . S
H385 C390 0.949 . S
H386 C392 0.950 . S
H387 C393 0.950 . S
H388 C394 0.949 . S
C389 H384 0.950 . S
C389 C391 1.327 . S
C389 C395 1.429 . S
C390 C382 1.574 . S
C390 H385 0.949 . S
C390 C396 1.368 . S
C391 C375 1.349 . S
C391 H383 0.950 . S
C391 C389 1.327 . S
C392 C380 1.349 . S
C392 H386 0.950 . S
C392 C393 1.327 . S
C393 H387 0.950 . S
C393 C392 1.327 . S
C393 C397 1.429 . S
C394 C377 1.574 . S
C394 H388 0.949 . S
C394 C398 1.368 . S
C395 C376 1.429 . S
C395 C389 1.429 . S
C395 C396 1.523 . S
C396 C377 1.368 . S
C396 C390 1.368 . S
C396 C395 1.523 . S
C397 C381 1.429 . S
C397 C393 1.429 . S
C397 C398 1.523 . S
C398 C382 1.368 . S
C398 C394 1.368 . S
C398 C397 1.523 . S
H399 C374 0.950 . S
H400 C376 0.950 . S
H401 C377 0.949 . S
H402 C379 0.950 . S
H403 C381 0.950 . S
C404 C405 1.349 . S
C404 C406 1.327 . S
C404 H429 0.950 . S
C405 C404 1.349 . S
C405 C421 1.349 . S
C406 C404 1.327 . S
C406 C425 1.429 . S
C406 H430 0.950 . S
C407 C424 1.574 . S
C407 C426 1.368 . S
C407 H431 0.949 . S
H408 C412 0.949 . S
C409 C410 1.349 . S
C409 C411 1.327 . S
C409 H432 0.950 . S
C410 C409 1.349 . S
C410 C422 1.349 . S
C411 C409 1.327 . S
C411 C427 1.429 . S
C411 H433 0.950 . S
C412 H408 0.949 . S
C412 C420 1.574 . S
C412 C428 1.368 . S
H413 C421 0.950 . S
H414 C419 0.950 . S
H415 C420 0.949 . S
H416 C422 0.950 . S
H417 C423 0.950 . S
H418 C424 0.949 . S
C419 H414 0.950 . S
C419 C421 1.327 . S
C419 C425 1.429 . S
C420 C412 1.574 . S
C420 H415 0.949 . S
C420 C426 1.368 . S
C421 C405 1.349 . S
C421 H413 0.950 . S
C421 C419 1.327 . S
C422 C410 1.349 . S
C422 H416 0.950 . S
C422 C423 1.327 . S
C423 H417 0.950 . S
C423 C422 1.327 . S
C423 C427 1.429 . S
C424 C407 1.574 . S
C424 H418 0.949 . S
C424 C428 1.368 . S
C425 C406 1.429 . S
C425 C419 1.429 . S
C425 C426 1.523 . S
C426 C407 1.368 . S
C426 C420 1.368 . S
C426 C425 1.523 . S
C427 C411 1.429 . S
C427 C423 1.429 . S
C427 C428 1.523 . S
C428 C412 1.368 . S
C428 C424 1.368 . S
C428 C427 1.523 . S
H429 C404 0.950 . S
H430 C406 0.950 . S
H431 C407 0.949 . S
H432 C409 0.950 . S
H433 C411 0.950 . S
C434 C435 1.349 . S
C434 C436 1.327 . S
C434 H459 0.950 . S
C435 C434 1.349 . S
C435 C451 1.349 . S
C436 C434 1.327 . S
C436 C455 1.429 . S
C436 H460 0.950 . S
C437 C454 1.574 . S
C437 C456 1.368 . S
C437 H461 0.949 . S
H438 C442 0.949 . S
C439 C440 1.349 . S
C439 C441 1.327 . S
C439 H462 0.950 . S
C440 C439 1.349 . S
C440 C452 1.349 . S
C441 C439 1.327 . S
C441 C457 1.429 . S
C441 H463 0.950 . S
C442 H438 0.949 . S
C442 C450 1.574 . S
C442 C458 1.368 . S
H443 C451 0.950 . S
H444 C449 0.950 . S
H445 C450 0.949 . S
H446 C452 0.950 . S
H447 C453 0.950 . S
H448 C454 0.949 . S
C449 H444 0.950 . S
C449 C451 1.327 . S
C449 C455 1.429 . S
C450 C442 1.574 . S
C450 H445 0.949 . S
C450 C456 1.368 . S
C451 C435 1.349 . S
C451 H443 0.950 . S
C451 C449 1.327 . S
C452 C440 1.349 . S
C452 H446 0.950 . S
C452 C453 1.327 . S
C453 H447 0.950 . S
C453 C452 1.327 . S
C453 C457 1.429 . S
C454 C437 1.574 . S
C454 H448 0.949 . S
C454 C458 1.368 . S
C455 C436 1.429 . S
C455 C449 1.429 . S
C455 C456 1.523 . S
C456 C437 1.368 . S
C456 C450 1.368 . S
C456 C455 1.523 . S
C457 C441 1.429 . S
C457 C453 1.429 . S
C457 C458 1.523 . S
C458 C442 1.368 . S
C458 C454 1.368 . S
C458 C457 1.523 . S
H459 C434 0.950 . S
H460 C436 0.950 . S
H461 C437 0.949 . S
H462 C439 0.950 . S
H463 C441 0.950 . S
C464 C465 1.349 . S
C464 C466 1.327 . S
C464 H489 0.950 . S
C465 C464 1.349 . S
C465 C481 1.349 . S
C466 C464 1.327 . S
C466 C485 1.429 . S
C466 H490 0.950 . S
C467 C484 1.574 . S
C467 C486 1.368 . S
C467 H491 0.949 . S
H468 C472 0.949 . S
C469 C470 1.349 . S
C469 C471 1.327 . S
C469 H492 0.950 . S
C470 C469 1.349 . S
C470 C482 1.349 . S
C471 C469 1.327 . S
C471 C487 1.429 . S
C471 H493 0.950 . S
C472 H468 0.949 . S
C472 C480 1.574 . S
C472 C488 1.368 . S
H473 C481 0.950 . S
H474 C479 0.950 . S
H475 C480 0.949 . S
H476 C482 0.950 . S
H477 C483 0.950 . S
H478 C484 0.949 . S
C479 H474 0.950 . S
C479 C481 1.327 . S
C479 C485 1.429 . S
C480 C472 1.574 . S
C480 H475 0.949 . S
C480 C486 1.368 . S
C481 C465 1.349 . S
C481 H473 0.950 . S
C481 C479 1.327 . S
C482 C470 1.349 . S
C482 H476 0.950 . S
C482 C483 1.327 . S
C483 H477 0.950 . S
C483 C482 1.327 . S
C483 C487 1.429 . S
C484 C467 1.574 . S
C484 H478 0.949 . S
C484 C488 1.368 . S
C485 C466 1.429 . S
C485 C479 1.429 . S
C485 C486 1.523 . S
C486 C467 1.368 . S
C486 C480 1.368 . S
C486 C485 1.523 . S
C487 C471 1.429 . S
C487 C483 1.429 . S
C487 C488 1.523 . S
C488 C472 1.368 . S
C488 C484 1.368 . S
C488 C487 1.523 . S
H489 C464 0.950 . S
H490 C466 0.950 . S
H491 C467 0.949 . S
H492 C469 0.950 . S
H493 C471 0.950 . S
C494 C495 1.349 . S
C494 C496 1.327 . S
C494 H519 0.950 . S
C495 C494 1.349 . S
C495 C511 1.349 . S
C496 C494 1.327 . S
C496 C515 1.429 . S
C496 H520 0.950 . S
C497 C514 1.574 . S
C497 C516 1.368 . S
C497 H521 0.949 . S
H498 C502 0.949 . S
C499 C500 1.349 . S
C499 C501 1.327 . S
C499 H522 0.950 . S
C500 C499 1.349 . S
C500 C512 1.349 . S
C501 C499 1.327 . S
C501 C517 1.429 . S
C501 H523 0.950 . S
C502 H498 0.949 . S
C502 C510 1.574 . S
C502 C518 1.368 . S
H503 C511 0.950 . S
H504 C509 0.950 . S
H505 C510 0.949 . S
H506 C512 0.950 . S
H507 C513 0.950 . S
H508 C514 0.949 . S
C509 H504 0.950 . S
C509 C511 1.327 . S
C509 C515 1.429 . S
C510 C502 1.574 . S
C510 H505 0.949 . S
C510 C516 1.368 . S
C511 C495 1.349 . S
C511 H503 0.950 . S
C511 C509 1.327 . S
C512 C500 1.349 . S
C512 H506 0.950 . S
C512 C513 1.327 . S
C513 H507 0.950 . S
C513 C512 1.327 . S
C513 C517 1.429 . S
C514 C497 1.574 . S
C514 H508 0.949 . S
C514 C518 1.368 . S
C515 C496 1.429 . S
C515 C509 1.429 . S
C515 C516 1.523 . S
C516 C497 1.368 . S
C516 C510 1.368 . S
C516 C515 1.523 . S
C517 C501 1.429 . S
C517 C513 1.429 . S
C517 C518 1.523 . S
C518 C502 1.368 . S
C518 C514 1.368 . S
C518 C517 1.523 . S
H519 C494 0.950 . S
H520 C496 0.950 . S
H521 C497 0.949 . S
H522 C499 0.950 . S
H523 C501 0.950 . S
C524 C525 1.349 . S
C524 C526 1.327 . S
C524 H549 0.950 . S
C525 C524 1.349 . S
C525 C541 1.349 . S
C526 C524 1.327 . S
C526 C545 1.429 . S
C526 H550 0.950 . S
C527 C544 1.574 . S
C527 C546 1.368 . S
C527 H551 0.949 . S
H528 C532 0.949 . S
C529 C530 1.349 . S
C529 C531 1.327 . S
C529 H552 0.950 . S
C530 C529 1.349 . S
C530 C542 1.349 . S
C531 C529 1.327 . S
C531 C547 1.429 . S
C531 H553 0.950 . S
C532 H528 0.949 . S
C532 C540 1.574 . S
C532 C548 1.368 . S
H533 C541 0.950 . S
H534 C539 0.950 . S
H535 C540 0.949 . S
H536 C542 0.950 . S
H537 C543 0.950 . S
H538 C544 0.949 . S
C539 H534 0.950 . S
C539 C541 1.327 . S
C539 C545 1.429 . S
C540 C532 1.574 . S
C540 H535 0.949 . S
C540 C546 1.368 . S
C541 C525 1.349 . S
C541 H533 0.950 . S
C541 C539 1.327 . S
C542 C530 1.349 . S
C542 H536 0.950 . S
C542 C543 1.327 . S
C543 H537 0.950 . S
C543 C542 1.327 . S
C543 C547 1.429 . S
C544 C527 1.574 . S
C544 H538 0.949 . S
C544 C548 1.368 . S
C545 C526 1.429 . S
C545 C539 1.429 . S
C545 C546 1.523 . S
C546 C527 1.368 . S
C546 C540 1.368 . S
C546 C545 1.523 . S
C547 C531 1.429 . S
C547 C543 1.429 . S
C547 C548 1.523 . S
C548 C532 1.368 . S
C548 C544 1.368 . S
C548 C547 1.523 . S
H549 C524 0.950 . S
H550 C526 0.950 . S
H551 C527 0.949 . S
H552 C529 0.950 . S
H553 C531 0.950 . S
C554 C555 1.349 . S
C554 C556 1.327 . S
C554 H579 0.950 . S
C555 C554 1.349 . S
C555 C571 1.349 . S
C556 C554 1.327 . S
C556 C575 1.429 . S
C556 H580 0.950 . S
C557 C574 1.574 . S
C557 C576 1.368 . S
C557 H581 0.949 . S
H558 C562 0.949 . S
C559 C560 1.349 . S
C559 C561 1.327 . S
C559 H582 0.950 . S
C560 C559 1.349 . S
C560 C572 1.349 . S
C561 C559 1.327 . S
C561 C577 1.429 . S
C561 H583 0.950 . S
C562 H558 0.949 . S
C562 C570 1.574 . S
C562 C578 1.368 . S
H563 C571 0.950 . S
H564 C569 0.950 . S
H565 C570 0.949 . S
H566 C572 0.950 . S
H567 C573 0.950 . S
H568 C574 0.949 . S
C569 H564 0.950 . S
C569 C571 1.327 . S
C569 C575 1.429 . S
C570 C562 1.574 . S
C570 H565 0.949 . S
C570 C576 1.368 . S
C571 C555 1.349 . S
C571 H563 0.950 . S
C571 C569 1.327 . S
C572 C560 1.349 . S
C572 H566 0.950 . S
C572 C573 1.327 . S
C573 H567 0.950 . S
C573 C572 1.327 . S
C573 C577 1.429 . S
C574 C557 1.574 . S
C574 H568 0.949 . S
C574 C578 1.368 . S
C575 C556 1.429 . S
C575 C569 1.429 . S
C575 C576 1.523 . S
C576 C557 1.368 . S
C576 C570 1.368 . S
C576 C575 1.523 . S
C577 C561 1.429 . S
C577 C573 1.429 . S
C577 C578 1.523 . S
C578 C562 1.368 . S
C578 C574 1.368 . S
C578 C577 1.523 . S
H579 C554 0.950 . S
H580 C556 0.950 . S
H581 C557 0.949 . S
H582 C559 0.950 . S
H583 C561 0.950 . S
C584 C585 1.349 . S
C584 C586 1.327 . S
C584 H609 0.950 . S
C585 C584 1.349 . S
C585 C601 1.349 . S
C586 C584 1.327 . S
C586 C605 1.429 . S
C586 H610 0.950 . S
C587 C604 1.574 . S
C587 C606 1.368 . S
C587 H611 0.949 . S
H588 C592 0.949 . S
C589 C590 1.349 . S
C589 C591 1.327 . S
C589 H612 0.950 . S
C590 C589 1.349 . S
C590 C602 1.349 . S
C591 C589 1.327 . S
C591 C607 1.429 . S
C591 H613 0.950 . S
C592 H588 0.949 . S
C592 C600 1.574 . S
C592 C608 1.368 . S
H593 C601 0.950 . S
H594 C599 0.950 . S
H595 C600 0.949 . S
H596 C602 0.950 . S
H597 C603 0.950 . S
H598 C604 0.949 . S
C599 H594 0.950 . S
C599 C601 1.327 . S
C599 C605 1.429 . S
C600 C592 1.574 . S
C600 H595 0.949 . S
C600 C606 1.368 . S
C601 C585 1.349 . S
C601 H593 0.950 . S
C601 C599 1.327 . S
C602 C590 1.349 . S
C602 H596 0.950 . S
C602 C603 1.327 . S
C603 H597 0.950 . S
C603 C602 1.327 . S
C603 C607 1.429 . S
C604 C587 1.574 . S
C604 H598 0.949 . S
C604 C608 1.368 . S
C605 C586 1.429 . S
C605 C599 1.429 . S
C605 C606 1.523 . S
C606 C587 1.368 . S
C606 C600 1.368 . S
C606 C605 1.523 . S
C607 C591 1.429 . S
C607 C603 1.429 . S
C607 C608 1.523 . S
C608 C592 1.368 . S
C608 C604 1.368 . S
C608 C607 1.523 . S
H609 C584 0.950 . S
H610 C586 0.950 . S
H611 C587 0.949 . S
H612 C589 0.950 . S
H613 C591 0.950 . S
C614 C615 1.349 . S
C614 C616 1.327 . S
C614 H639 0.950 . S
C615 C614 1.349 . S
C615 C631 1.349 . S
C616 C614 1.327 . S
C616 C635 1.429 . S
C616 H640 0.950 . S
C617 C634 1.574 . S
C617 C636 1.368 . S
C617 H641 0.949 . S
H618 C622 0.949 . S
C619 C620 1.349 . S
C619 C621 1.327 . S
C619 H642 0.950 . S
C620 C619 1.349 . S
C620 C632 1.349 . S
C621 C619 1.327 . S
C621 C637 1.429 . S
C621 H643 0.950 . S
C622 H618 0.949 . S
C622 C630 1.574 . S
C622 C638 1.368 . S
H623 C631 0.950 . S
H624 C629 0.950 . S
H625 C630 0.949 . S
H626 C632 0.950 . S
H627 C633 0.950 . S
H628 C634 0.949 . S
C629 H624 0.950 . S
C629 C631 1.327 . S
C629 C635 1.429 . S
C630 C622 1.574 . S
C630 H625 0.949 . S
C630 C636 1.368 . S
C631 C615 1.349 . S
C631 H623 0.950 . S
C631 C629 1.327 . S
C632 C620 1.349 . S
C632 H626 0.950 . S
C632 C633 1.327 . S
C633 H627 0.950 . S
C633 C632 1.327 . S
C633 C637 1.429 . S
C634 C617 1.574 . S
C634 H628 0.949 . S
C634 C638 1.368 . S
C635 C616 1.429 . S
C635 C629 1.429 . S
C635 C636 1.523 . S
C636 C617 1.368 . S
C636 C630 1.368 . S
C636 C635 1.523 . S
C637 C621 1.429 . S
C637 C633 1.429 . S
C637 C638 1.523 . S
C638 C622 1.368 . S
C638 C634 1.368 . S
C638 C637 1.523 . S
H639 C614 0.950 . S
H640 C616 0.950 . S
H641 C617 0.949 . S
H642 C619 0.950 . S
H643 C621 0.950 . S
C644 C645 1.349 . S
C644 C646 1.327 . S
C644 H669 0.950 . S
C645 C644 1.349 . S
C645 C661 1.349 . S
C646 C644 1.327 . S
C646 C665 1.429 . S
C646 H670 0.950 . S
C647 C664 1.574 . S
C647 C666 1.368 . S
C647 H671 0.949 . S
H648 C652 0.949 . S
C649 C650 1.349 . S
C649 C651 1.327 . S
C649 H672 0.950 . S
C650 C649 1.349 . S
C650 C662 1.349 . S
C651 C649 1.327 . S
C651 C667 1.429 . S
C651 H673 0.950 . S
C652 H648 0.949 . S
C652 C660 1.574 . S
C652 C668 1.368 . S
H653 C661 0.950 . S
H654 C659 0.950 . S
H655 C660 0.949 . S
H656 C662 0.950 . S
H657 C663 0.950 . S
H658 C664 0.949 . S
C659 H654 0.950 . S
C659 C661 1.327 . S
C659 C665 1.429 . S
C660 C652 1.574 . S
C660 H655 0.949 . S
C660 C666 1.368 . S
C661 C645 1.349 . S
C661 H653 0.950 . S
C661 C659 1.327 . S
C662 C650 1.349 . S
C662 H656 0.950 . S
C662 C663 1.327 . S
C663 H657 0.950 . S
C663 C662 1.327 . S
C663 C667 1.429 . S
C664 C647 1.574 . S
C664 H658 0.949 . S
C664 C668 1.368 . S
C665 C646 1.429 . S
C665 C659 1.429 . S
C665 C666 1.523 . S
C666 C647 1.368 . S
C666 C660 1.368 . S
C666 C665 1.523 . S
C667 C651 1.429 . S
C667 C663 1.429 . S
C667 C668 1.523 . S
C668 C652 1.368 . S
C668 C664 1.368 . S
C668 C667 1.523 . S
H669 C644 0.950 . S
H670 C646 0.950 . S
H671 C647 0.949 . S
H672 C649 0.950 . S
H673 C651 0.950 . S
C674 C675 1.349 . S
C674 C676 1.327 . S
C674 H699 0.950 . S
C675 C674 1.349 . S
C675 C691 1.349 . S
C676 C674 1.327 . S
C676 C695 1.429 . S
C676 H700 0.950 . S
C677 C694 1.574 . S
C677 C696 1.368 . S
C677 H701 0.949 . S
H678 C682 0.949 . S
C679 C680 1.349 . S
C679 C681 1.327 . S
C679 H702 0.950 . S
C680 C679 1.349 . S
C680 C692 1.349 . S
C681 C679 1.327 . S
C681 C697 1.429 . S
C681 H703 0.950 . S
C682 H678 0.949 . S
C682 C690 1.574 . S
C682 C698 1.368 . S
H683 C691 0.950 . S
H684 C689 0.950 . S
H685 C690 0.949 . S
H686 C692 0.950 . S
H687 C693 0.950 . S
H688 C694 0.949 . S
C689 H684 0.950 . S
C689 C691 1.327 . S
C689 C695 1.429 . S
C690 C682 1.574 . S
C690 H685 0.949 . S
C690 C696 1.368 . S
C691 C675 1.349 . S
C691 H683 0.950 . S
C691 C689 1.327 . S
C692 C680 1.349 . S
C692 H686 0.950 . S
C692 C693 1.327 . S
C693 H687 0.950 . S
C693 C692 1.327 . S
C693 C697 1.429 . S
C694 C677 1.574 . S
C694 H688 0.949 . S
C694 C698 1.368 . S
C695 C676 1.429 . S
C695 C689 1.429 . S
C695 C696 1.523 . S
C696 C677 1.368 . S
C696 C690 1.368 . S
C696 C695 1.523 . S
C697 C681 1.429 . S
C697 C693 1.429 . S
C697 C698 1.523 . S
C698 C682 1.368 . S
C698 C694 1.368 . S
C698 C697 1.523 . S
H699 C674 0.950 . S
H700 C676 0.950 . S
H701 C677 0.949 . S
H702 C679 0.950 . S
H703 C681 0.950 . S
C704 C705 1.349 . S
C704 C706 1.327 . S
C704 H729 0.950 . S
C705 C704 1.349 . S
C705 C721 1.349 . S
C706 C704 1.327 . S
C706 C725 1.429 . S
C706 H730 0.950 . S
C707 C724 1.574 . S
C707 C726 1.368 . S
C707 H731 0.949 . S
H708 C712 0.949 . S
C709 C710 1.349 . S
C709 C711 1.327 . S
C709 H732 0.950 . S
C710 C709 1.349 . S
C710 C722 1.349 . S
C711 C709 1.327 . S
C711 C727 1.429 . S
C711 H733 0.950 . S
C712 H708 0.949 . S
C712 C720 1.574 . S
C712 C728 1.368 . S
H713 C721 0.950 . S
H714 C719 0.950 . S
H715 C720 0.949 . S
H716 C722 0.950 . S
H717 C723 0.950 . S
H718 C724 0.949 . S
C719 H714 0.950 . S
C719 C721 1.327 . S
C719 C725 1.429 . S
C720 C712 1.574 . S
C720 H715 0.949 . S
C720 C726 1.368 . S
C721 C705 1.349 . S
C721 H713 0.950 . S
C721 C719 1.327 . S
C722 C710 1.349 . S
C722 H716 0.950 . S
C722 C723 1.327 . S
C723 H717 0.950 . S
C723 C722 1.327 . S
C723 C727 1.429 . S
C724 C707 1.574 . S
C724 H718 0.949 . S
C724 C728 1.368 . S
C725 C706 1.429 . S
C725 C719 1.429 . S
C725 C726 1.523 . S
C726 C707 1.368 . S
C726 C720 1.368 . S
C726 C725 1.523 . S
C727 C711 1.429 . S
C727 C723 1.429 . S
C727 C728 1.523 . S
C728 C712 1.368 . S
C728 C724 1.368 . S
C728 C727 1.523 . S
H729 C704 0.950 . S
H730 C706 0.950 . S
H731 C707 0.949 . S
H732 C709 0.950 . S
H733 C711 0.950 . S
C734 C735 1.349 . S
C734 C736 1.327 . S
C734 H759 0.950 . S
C735 C734 1.349 . S
C735 C751 1.349 . S
C736 C734 1.327 . S
C736 C755 1.429 . S
C736 H760 0.950 . S
C737 C754 1.574 . S
C737 C756 1.368 . S
C737 H761 0.949 . S
H738 C742 0.949 . S
C739 C740 1.349 . S
C739 C741 1.327 . S
C739 H762 0.950 . S
C740 C739 1.349 . S
C740 C752 1.349 . S
C741 C739 1.327 . S
C741 C757 1.429 . S
C741 H763 0.950 . S
C742 H738 0.949 . S
C742 C750 1.574 . S
C742 C758 1.368 . S
H743 C751 0.950 . S
H744 C749 0.950 . S
H745 C750 0.949 . S
H746 C752 0.950 . S
H747 C753 0.950 . S
H748 C754 0.949 . S
C749 H744 0.950 . S
C749 C751 1.327 . S
C749 C755 1.429 . S
C750 C742 1.574 . S
C750 H745 0.949 . S
C750 C756 1.368 . S
C751 C735 1.349 . S
C751 H743 0.950 . S
C751 C749 1.327 . S
C752 C740 1.349 . S
C752 H746 0.950 . S
C752 C753 1.327 . S
C753 H747 0.950 . S
C753 C752 1.327 . S
C753 C757 1.429 . S
C754 C737 1.574 . S
C754 H748 0.949 . S
C754 C758 1.368 . S
C755 C736 1.429 . S
C755 C749 1.429 . S
C755 C756 1.523 . S
C756 C737 1.368 . S
C756 C750 1.368 . S
C756 C755 1.523 . S
C757 C741 1.429 . S
C757 C753 1.429 . S
C757 C758 1.523 . S
C758 C742 1.368 . S
C758 C754 1.368 . S
C758 C757 1.523 . S
H759 C734 0.950 . S
H760 C736 0.950 . S
H761 C737 0.949 . S
H762 C739 0.950 . S
H763 C741 0.950 . S
C764 C765 1.349 . S
C764 C766 1.327 . S
C764 H789 0.950 . S
C765 C764 1.349 . S
C765 C781 1.349 . S
C766 C764 1.327 . S
C766 C785 1.429 . S
C766 H790 0.950 . S
C767 C784 1.574 . S
C767 C786 1.368 . S
C767 H791 0.949 . S
H768 C772 0.949 . S
C769 C770 1.349 . S
C769 C771 1.327 . S
C769 H792 0.950 . S
C770 C769 1.349 . S
C770 C782 1.349 . S
C771 C769 1.327 . S
C771 C787 1.429 . S
C771 H793 0.950 . S
C772 H768 0.949 . S
C772 C780 1.574 . S
C772 C788 1.368 . S
H773 C781 0.950 . S
H774 C779 0.950 . S
H775 C780 0.949 . S
H776 C782 0.950 . S
H777 C783 0.950 . S
H778 C784 0.949 . S
C779 H774 0.950 . S
C779 C781 1.327 . S
C779 C785 1.429 . S
C780 C772 1.574 . S
C780 H775 0.949 . S
C780 C786 1.368 . S
C781 C765 1.349 . S
C781 H773 0.950 . S
C781 C779 1.327 . S
C782 C770 1.349 . S
C782 H776 0.950 . S
C782 C783 1.327 . S
C783 H777 0.950 . S
C783 C782 1.327 . S
C783 C787 1.429 . S
C784 C767 1.574 . S
C784 H778 0.949 . S
C784 C788 1.368 . S
C785 C766 1.429 . S
C785 C779 1.429 . S
C785 C786 1.523 . S
C786 C767 1.368 . S
C786 C780 1.368 . S
C786 C785 1.523 . S
C787 C771 1.429 . S
C787 C783 1.429 . S
C787 C788 1.523 . S
C788 C772 1.368 . S
C788 C784 1.368 . S
C788 C787 1.523 . S
H789 C764 0.950 . S
H790 C766 0.950 . S
H791 C767 0.949 . S
H792 C769 0.950 . S
H793 C771 0.950 . S
C794 C795 1.349 . S
C794 C796 1.327 . S
C794 H819 0.950 . S
C795 C794 1.349 . S
C795 C811 1.349 . S
C796 C794 1.327 . S
C796 C815 1.429 . S
C796 H820 0.950 . S
C797 C814 1.574 . S
C797 C816 1.368 . S
C797 H821 0.949 . S
H798 C802 0.949 . S
C799 C800 1.349 . S
C799 C801 1.327 . S
C799 H822 0.950 . S
C800 C799 1.349 . S
C800 C812 1.349 . S
C801 C799 1.327 . S
C801 C817 1.429 . S
C801 H823 0.950 . S
C802 H798 0.949 . S
C802 C810 1.574 . S
C802 C818 1.368 . S
H803 C811 0.950 . S
H804 C809 0.950 . S
H805 C810 0.949 . S
H806 C812 0.950 . S
H807 C813 0.950 . S
H808 C814 0.949 . S
C809 H804 0.950 . S
C809 C811 1.327 . S
C809 C815 1.429 . S
C810 C802 1.574 . S
C810 H805 0.949 . S
C810 C816 1.368 . S
C811 C795 1.349 . S
C811 H803 0.950 . S
C811 C809 1.327 . S
C812 C800 1.349 . S
C812 H806 0.950 . S
C812 C813 1.327 . S
C813 H807 0.950 . S
C813 C812 1.327 . S
C813 C817 1.429 . S
C814 C797 1.574 . S
C814 H808 0.949 . S
C814 C818 1.368 . S
C815 C796 1.429 . S
C815 C809 1.429 . S
C815 C816 1.523 . S
C816 C797 1.368 . S
C816 C810 1.368 . S
C816 C815 1.523 . S
C817 C801 1.429 . S
C817 C813 1.429 . S
C817 C818 1.523 . S
C818 C802 1.368 . S
C818 C814 1.368 . S
C818 C817 1.523 . S
H819 C794 0.950 . S
H820 C796 0.950 . S
H821 C797 0.949 . S
H822 C799 0.950 . S
H823 C801 0.950 . S
C824 C825 1.349 . S
C824 C826 1.327 . S
C824 H849 0.950 . S
C825 C824 1.349 . S
C825 C841 1.349 . S
C826 C824 1.327 . S
C826 C845 1.429 . S
C826 H850 0.950 . S
C827 C844 1.574 . S
C827 C846 1.368 . S
C827 H851 0.949 . S
H828 C832 0.949 . S
C829 C830 1.349 . S
C829 C831 1.327 . S
C829 H852 0.950 . S
C830 C829 1.349 . S
C830 C842 1.349 . S
C831 C829 1.327 . S
C831 C847 1.429 . S
C831 H853 0.950 . S
C832 H828 0.949 . S
C832 C840 1.574 . S
C832 C848 1.368 . S
H833 C841 0.950 . S
H834 C839 0.950 . S
H835 C840 0.949 . S
H836 C842 0.950 . S
H837 C843 0.950 . S
H838 C844 0.949 . S
C839 H834 0.950 . S
C839 C841 1.327 . S
C839 C845 1.429 . S
C840 C832 1.574 . S
C840 H835 0.949 . S
C840 C846 1.368 . S
C841 C825 1.349 . S
C841 H833 0.950 . S
C841 C839 1.327 . S
C842 C830 1.349 . S
C842 H836 0.950 . S
C842 C843 1.327 . S
C843 H837 0.950 . S
C843 C842 1.327 . S
C843 C847 1.429 . S
C844 C827 1.574 . S
C844 H838 0.949 . S
C844 C848 1.368 . S
C845 C826 1.429 . S
C845 C839 1.429 . S
C845 C846 1.523 . S
C846 C827 1.368 . S
C846 C840 1.368 . S
C846 C845 1.523 . S
C847 C831 1.429 . S
C847 C843 1.429 . S
C847 C848 1.523 . S
C848 C832 1.368 . S
C848 C844 1.368 . S
C848 C847 1.523 . S
H849 C824 0.950 . S
H850 C826 0.950 . S
H851 C827 0.949 . S
H852 C829 0.950 . S
H853 C831 0.950 . S
C854 C855 1.349 . S
C854 C856 1.327 . S
C854 H879 0.950 . S
C855 C854 1.349 . S
C855 C871 1.349 . S
C856 C854 1.327 . S
C856 C875 1.429 . S
C856 H880 0.950 . S
C857 C874 1.574 . S
C857 C876 1.368 . S
C857 H881 0.949 . S
H858 C862 0.949 . S
C859 C860 1.349 . S
C859 C861 1.327 . S
C859 H882 0.950 . S
C860 C859 1.349 . S
C860 C872 1.349 . S
C861 C859 1.327 . S
C861 C877 1.429 . S
C861 H883 0.950 . S
C862 H858 0.949 . S
C862 C870 1.574 . S
C862 C878 1.368 . S
H863 C871 0.950 . S
H864 C869 0.950 . S
H865 C870 0.949 . S
H866 C872 0.950 . S
H867 C873 0.950 . S
H868 C874 0.949 . S
C869 H864 0.950 . S
C869 C871 1.327 . S
C869 C875 1.429 . S
C870 C862 1.574 . S
C870 H865 0.949 . S
C870 C876 1.368 . S
C871 C855 1.349 . S
C871 H863 0.950 . S
C871 C869 1.327 . S
C872 C860 1.349 . S
C872 H866 0.950 . S
C872 C873 1.327 . S
C873 H867 0.950 . S
C873 C872 1.327 . S
C873 C877 1.429 . S
C874 C857 1.574 . S
C874 H868 0.949 . S
C874 C878 1.368 . S
C875 C856 1.429 . S
C875 C869 1.429 . S
C875 C876 1.523 . S
C876 C857 1.368 . S
C876 C870 1.368 . S
C876 C875 1.523 . S
C877 C861 1.429 . S
C877 C873 1.429 . S
C877 C878 1.523 . S
C878 C862 1.368 . S
C878 C874 1.368 . S
C878 C877 1.523 . S
H879 C854 0.950 . S
H880 C856 0.950 . S
H881 C857 0.949 . S
H882 C859 0.950 . S
H883 C861 0.950 . S
C884 C885 1.349 . S
C884 C886 1.327 . S
C884 H909 0.950 . S
C885 C884 1.349 . S
C885 C901 1.349 . S
C886 C884 1.327 . S
C886 C905 1.429 . S
C886 H910 0.950 . S
C887 C904 1.574 . S
C887 C906 1.368 . S
C887 H911 0.949 . S
H888 C892 0.949 . S
C889 C890 1.349 . S
C889 C891 1.327 . S
C889 H912 0.950 . S
C890 C889 1.349 . S
C890 C902 1.349 . S
C891 C889 1.327 . S
C891 C907 1.429 . S
C891 H913 0.950 . S
C892 H888 0.949 . S
C892 C900 1.574 . S
C892 C908 1.368 . S
H893 C901 0.950 . S
H894 C899 0.950 . S
H895 C900 0.949 . S
H896 C902 0.950 . S
H897 C903 0.950 . S
H898 C904 0.949 . S
C899 H894 0.950 . S
C899 C901 1.327 . S
C899 C905 1.429 . S
C900 C892 1.574 . S
C900 H895 0.949 . S
C900 C906 1.368 . S
C901 C885 1.349 . S
C901 H893 0.950 . S
C901 C899 1.327 . S
C902 C890 1.349 . S
C902 H896 0.950 . S
C902 C903 1.327 . S
C903 H897 0.950 . S
C903 C902 1.327 . S
C903 C907 1.429 . S
C904 C887 1.574 . S
C904 H898 0.949 . S
C904 C908 1.368 . S
C905 C886 1.429 . S
C905 C899 1.429 . S
C905 C906 1.523 . S
C906 C887 1.368 . S
C906 C900 1.368 . S
C906 C905 1.523 . S
C907 C891 1.429 . S
C907 C903 1.429 . S
C907 C908 1.523 . S
C908 C892 1.368 . S
C908 C904 1.368 . S
C908 C907 1.523 . S
H909 C884 0.950 . S
H910 C886 0.950 . S
H911 C887 0.949 . S
H912 C889 0.950 . S
H913 C891 0.950 . S
C914 C915 1.349 . S
C914 C916 1.327 . S
C914 H939 0.950 . S
C915 C914 1.349 . S
C915 C931 1.349 . S
C916 C914 1.327 . S
C916 C935 1.429 . S
C916 H940 0.950 . S
C917 C934 1.574 . S
C917 C936 1.368 . S
C917 H941 0.949 . S
H918 C922 0.949 . S
C919 C920 1.349 . S
C919 C921 1.327 . S
C919 H942 0.950 . S
C920 C919 1.349 . S
C920 C932 1.349 . S
C921 C919 1.327 . S
C921 C937 1.429 . S
C921 H943 0.950 . S
C922 H918 0.949 . S
C922 C930 1.574 . S
C922 C938 1.368 . S
H923 C931 0.950 . S
H924 C929 0.950 . S
H925 C930 0.949 . S
H926 C932 0.950 . S
H927 C933 0.950 . S
H928 C934 0.949 . S
C929 H924 0.950 . S
C929 C931 1.327 . S
C929 C935 1.429 . S
C930 C922 1.574 . S
C930 H925 0.949 . S
C930 C936 1.368 . S
C931 C915 1.349 . S
C931 H923 0.950 . S
C931 C929 1.327 . S
C932 C920 1.349 . S
C932 H926 0.950 . S
C932 C933 1.327 . S
C933 H927 0.950 . S
C933 C932 1.327 . S
C933 C937 1.429 . S
C934 C917 1.574 . S
C934 H928 0.949 . S
C934 C938 1.368 . S
C935 C916 1.429 . S
C935 C929 1.429 . S
C935 C936 1.523 . S
C936 C917 1.368 . S
C936 C930 1.368 . S
C936 C935 1.523 . S
C937 C921 1.429 . S
C937 C933 1.429 . S
C937 C938 1.523 . S
C938 C922 1.368 . S
C938 C934 1.368 . S
C938 C937 1.523 . S
H939 C914 0.950 . S
H940 C916 0.950 . S
H941 C917 0.949 . S
H942 C919 0.950 . S
H943 C921 0.950 . S
C944 C945 1.349 . S
C944 C946 1.327 . S
C944 H969 0.950 . S
C945 C944 1.349 . S
C945 C961 1.349 . S
C946 C944 1.327 . S
C946 C965 1.429 . S
C946 H970 0.950 . S
C947 C964 1.574 1_554 S
C947 C966 1.368 . S
C947 H971 0.949 . S
H948 C952 0.949 . S
C949 C950 1.349 . S
C949 C951 1.327 . S
C949 H972 0.950 . S
C950 C949 1.349 . S
C950 C962 1.349 . S
C951 C949 1.327 . S
C951 C967 1.429 . S
C951 H973 0.950 . S
C952 H948 0.949 . S
C952 C960 1.574 1_556 S
C952 C968 1.368 . S
H953 C961 0.950 . S
H954 C959 0.950 . S
H955 C960 0.949 . S
H956 C962 0.950 . S
H957 C963 0.950 . S
H958 C964 0.949 . S
C959 H954 0.950 . S
C959 C961 1.327 . S
C959 C965 1.429 . S
C960 C952 1.574 1_554 S
C960 H955 0.949 . S
C960 C966 1.368 . S
C961 C945 1.349 . S
C961 H953 0.950 . S
C961 C959 1.327 . S
C962 C950 1.349 . S
C962 H956 0.950 . S
C962 C963 1.327 . S
C963 H957 0.950 . S
C963 C962 1.327 . S
C963 C967 1.429 . S
C964 C947 1.574 1_556 S
C964 H958 0.949 . S
C964 C968 1.368 . S
C965 C946 1.429 . S
C965 C959 1.429 . S
C965 C966 1.523 . S
C966 C947 1.368 . S
C966 C960 1.368 . S
C966 C965 1.523 . S
C967 C951 1.429 . S
C967 C963 1.429 . S
C967 C968 1.523 . S
C968 C952 1.368 . S
C968 C964 1.368 . S
C968 C967 1.523 . S
H969 C944 0.950 . S
H970 C946 0.950 . S
H971 C947 0.949 . S
H972 C949 0.950 . S
H973 C951 0.950 . S
C974 C975 1.349 . S
C974 C976 1.327 . S
C974 H999 0.950 . S
C975 C974 1.349 . S
C975 C991 1.349 . S
C976 C974 1.327 . S
C976 C995 1.429 . S
C976 H1000 0.950 . S
C977 C994 1.574 . S
C977 C996 1.368 . S
C977 H1001 0.949 . S
H978 C982 0.949 . S
C979 C980 1.349 . S
C979 C981 1.327 . S
C979 H1002 0.950 . S
C980 C979 1.349 . S
C980 C992 1.349 . S
C981 C979 1.327 . S
C981 C997 1.429 . S
C981 H1003 0.950 . S
C982 H978 0.949 . S
C982 C990 1.574 . S
C982 C998 1.368 . S
H983 C991 0.950 . S
H984 C989 0.950 . S
H985 C990 0.949 . S
H986 C992 0.950 . S
H987 C993 0.950 . S
H988 C994 0.949 . S
C989 H984 0.950 . S
C989 C991 1.327 . S
C989 C995 1.429 . S
C990 C982 1.574 . S
C990 H985 0.949 . S
C990 C996 1.368 . S
C991 C975 1.349 . S
C991 H983 0.950 . S
C991 C989 1.327 . S
C992 C980 1.349 . S
C992 H986 0.950 . S
C992 C993 1.327 . S
C993 H987 0.950 . S
C993 C992 1.327 . S
C993 C997 1.429 . S
C994 C977 1.574 . S
C994 H988 0.949 . S
C994 C998 1.368 . S
C995 C976 1.429 . S
C995 C989 1.429 . S
C995 C996 1.523 . S
C996 C977 1.368 . S
C996 C990 1.368 . S
C996 C995 1.523 . S
C997 C981 1.429 . S
C997 C993 1.429 . S
C997 C998 1.523 . S
C998 C982 1.368 . S
C998 C994 1.368 . S
C998 C997 1.523 . S
H999 C974 0.950 . S
H1000 C976 0.950 . S
H1001 C977 0.949 . S
H1002 C979 0.950 . S
H1003 C981 0.950 . S
C1004 C1005 1.349 . S
C1004 C1006 1.327 . S
C1004 H1029 0.950 . S
C1005 C1004 1.349 . S
C1005 C1021 1.328 1_655 S
C1006 C1004 1.327 . S
C1006 C1025 1.429 . S
C1006 H1030 0.950 . S
C1007 C1024 1.574 1_554 S
C1007 C1026 1.368 1_455 S
C1007 H1031 0.949 . S
H1008 C1012 0.949 . S
C1009 C1010 1.328 1_455 S
C1009 C1011 1.328 . S
C1009 H1032 0.972 . S
C1010 C1009 1.328 1_655 S
C1010 C1022 1.349 . S
C1011 C1009 1.328 . S
C1011 C1027 1.429 1_455 S
C1011 H1033 0.950 . S
C1012 H1008 0.949 . S
C1012 C1020 1.574 1_556 S
C1012 C1028 1.368 . S
H1013 C1021 0.972 . S
H1014 C1019 0.950 . S
H1015 C1020 0.949 . S
H1016 C1022 0.950 . S
H1017 C1023 0.950 . S
H1018 C1024 0.949 . S
C1019 H1014 0.950 . S
C1019 C1021 1.328 . S
C1019 C1025 1.429 1_455 S
C1020 C1012 1.574 1_554 S
C1020 H1015 0.949 . S
C1020 C1026 1.368 . S
C1021 C1005 1.328 1_455 S
C1021 H1013 0.972 . S
C1021 C1019 1.328 . S
C1022 C1010 1.349 . S
C1022 H1016 0.950 . S
C1022 C1023 1.327 . S
C1023 H1017 0.950 . S
C1023 C1022 1.327 . S
C1023 C1027 1.429 . S
C1024 C1007 1.574 1_556 S
C1024 H1018 0.949 . S
C1024 C1028 1.368 1_455 S
C1025 C1006 1.429 . S
C1025 C1019 1.429 1_655 S
C1025 C1026 1.523 . S
C1026 C1007 1.368 1_655 S
C1026 C1020 1.368 . S
C1026 C1025 1.523 . S
C1027 C1011 1.429 1_655 S
C1027 C1023 1.429 . S
C1027 C1028 1.523 . S
C1028 C1012 1.368 . S
C1028 C1024 1.368 1_655 S
C1028 C1027 1.523 . S
H1029 C1004 0.950 . S
H1030 C1006 0.950 . S
H1031 C1007 0.949 . S
H1032 C1009 0.972 . S
H1033 C1011 0.950 . S
C1034 C1035 1.349 . S
C1034 C1036 1.327 . S
C1034 H1059 0.950 . S
C1035 C1034 1.349 . S
C1035 C1051 1.349 1_565 S
C1036 C1034 1.327 . S
C1036 C1055 1.429 . S
C1036 H1060 0.950 . S
C1037 C1054 1.574 . S
C1037 C1056 1.368 1_545 S
C1037 H1061 0.949 . S
H1038 C1042 0.949 . S
C1039 C1040 1.349 1_545 S
C1039 C1041 1.327 . S
C1039 H1062 0.950 . S
C1040 C1039 1.349 1_565 S
C1040 C1052 1.349 . S
C1041 C1039 1.327 . S
C1041 C1057 1.429 1_545 S
C1041 H1063 0.950 . S
C1042 H1038 0.949 . S
C1042 C1050 1.574 . S
C1042 C1058 1.368 . S
H1043 C1051 0.950 . S
H1044 C1049 0.950 . S
H1045 C1050 0.949 . S
H1046 C1052 0.950 . S
H1047 C1053 0.950 . S
H1048 C1054 0.949 . S
C1049 H1044 0.950 . S
C1049 C1051 1.327 . S
C1049 C1055 1.429 1_545 S
C1050 C1042 1.574 . S
C1050 H1045 0.949 . S
C1050 C1056 1.368 . S
C1051 C1035 1.349 1_545 S
C1051 H1043 0.950 . S
C1051 C1049 1.327 . S
C1052 C1040 1.349 . S
C1052 H1046 0.950 . S
C1052 C1053 1.327 . S
C1053 H1047 0.950 . S
C1053 C1052 1.327 . S
C1053 C1057 1.429 . S
C1054 C1037 1.574 . S
C1054 H1048 0.949 . S
C1054 C1058 1.368 1_545 S
C1055 C1036 1.429 . S
C1055 C1049 1.429 1_565 S
C1055 C1056 1.523 . S
C1056 C1037 1.368 1_565 S
C1056 C1050 1.368 . S
C1056 C1055 1.523 . S
C1057 C1041 1.429 1_565 S
C1057 C1053 1.429 . S
C1057 C1058 1.523 . S
C1058 C1042 1.368 . S
C1058 C1054 1.368 1_565 S
C1058 C1057 1.523 . S
H1059 C1034 0.950 . S
H1060 C1036 0.950 . S
H1061 C1037 0.949 . S
H1062 C1039 0.950 . S
H1063 C1041 0.950 . S
C1064 C1065 1.349 . S
C1064 C1066 1.327 . S
C1064 H1089 0.950 . S
C1065 C1064 1.349 . S
C1065 C1081 1.349 . S
C1066 C1064 1.327 . S
C1066 C1085 1.429 . S
C1066 H1090 0.950 . S
C1067 C1084 1.574 1_556 S
C1067 C1086 1.368 . S
C1067 H1091 0.949 . S
H1068 C1072 0.949 . S
C1069 C1070 1.349 . S
C1069 C1071 1.327 . S
C1069 H1092 0.950 . S
C1070 C1069 1.349 . S
C1070 C1082 1.349 . S
C1071 C1069 1.327 . S
C1071 C1087 1.429 . S
C1071 H1093 0.950 . S
C1072 H1068 0.949 . S
C1072 C1080 1.574 1_554 S
C1072 C1088 1.368 . S
H1073 C1081 0.950 . S
H1074 C1079 0.950 . S
H1075 C1080 0.949 . S
H1076 C1082 0.950 . S
H1077 C1083 0.950 . S
H1078 C1084 0.949 . S
C1079 H1074 0.950 . S
C1079 C1081 1.327 . S
C1079 C1085 1.429 . S
C1080 C1072 1.574 1_556 S
C1080 H1075 0.949 . S
C1080 C1086 1.368 . S
C1081 C1065 1.349 . S
C1081 H1073 0.950 . S
C1081 C1079 1.327 . S
C1082 C1070 1.349 . S
C1082 H1076 0.950 . S
C1082 C1083 1.327 . S
C1083 H1077 0.950 . S
C1083 C1082 1.327 . S
C1083 C1087 1.429 . S
C1084 C1067 1.574 1_554 S
C1084 H1078 0.949 . S
C1084 C1088 1.368 . S
C1085 C1066 1.429 . S
C1085 C1079 1.429 . S
C1085 C1086 1.523 . S
C1086 C1067 1.368 . S
C1086 C1080 1.368 . S
C1086 C1085 1.523 . S
C1087 C1071 1.429 . S
C1087 C1083 1.429 . S
C1087 C1088 1.523 . S
C1088 C1072 1.368 . S
C1088 C1084 1.368 . S
C1088 C1087 1.523 . S
H1089 C1064 0.950 . S
H1090 C1066 0.950 . S
H1091 C1067 0.949 . S
H1092 C1069 0.950 . S
H1093 C1071 0.950 . S
C1094 C1095 1.349 . S
C1094 C1096 1.327 . S
C1094 H1119 0.950 . S
C1095 C1094 1.349 . S
C1095 C1111 1.349 . S
C1096 C1094 1.327 . S
C1096 C1115 1.429 . S
C1096 H1120 0.950 . S
C1097 C1114 1.574 . S
C1097 C1116 1.368 . S
C1097 H1121 0.949 . S
H1098 C1102 0.949 . S
C1099 C1100 1.349 . S
C1099 C1101 1.327 . S
C1099 H1122 0.950 . S
C1100 C1099 1.349 . S
C1100 C1112 1.349 . S
C1101 C1099 1.327 . S
C1101 C1117 1.429 . S
C1101 H1123 0.950 . S
C1102 H1098 0.949 . S
C1102 C1110 1.574 . S
C1102 C1118 1.368 . S
H1103 C1111 0.950 . S
H1104 C1109 0.950 . S
H1105 C1110 0.949 . S
H1106 C1112 0.950 . S
H1107 C1113 0.950 . S
H1108 C1114 0.949 . S
C1109 H1104 0.950 . S
C1109 C1111 1.327 . S
C1109 C1115 1.429 . S
C1110 C1102 1.574 . S
C1110 H1105 0.949 . S
C1110 C1116 1.368 . S
C1111 C1095 1.349 . S
C1111 H1103 0.950 . S
C1111 C1109 1.327 . S
C1112 C1100 1.349 . S
C1112 H1106 0.950 . S
C1112 C1113 1.327 . S
C1113 H1107 0.950 . S
C1113 C1112 1.327 . S
C1113 C1117 1.429 . S
C1114 C1097 1.574 . S
C1114 H1108 0.949 . S
C1114 C1118 1.368 . S
C1115 C1096 1.429 . S
C1115 C1109 1.429 . S
C1115 C1116 1.523 . S
C1116 C1097 1.368 . S
C1116 C1110 1.368 . S
C1116 C1115 1.523 . S
C1117 C1101 1.429 . S
C1117 C1113 1.429 . S
C1117 C1118 1.523 . S
C1118 C1102 1.368 . S
C1118 C1114 1.368 . S
C1118 C1117 1.523 . S
H1119 C1094 0.950 . S
H1120 C1096 0.950 . S
H1121 C1097 0.949 . S
H1122 C1099 0.950 . S
H1123 C1101 0.950 . S
C1124 C1125 1.349 . S
C1124 C1126 1.327 . S
C1124 H1149 0.950 . S
C1125 C1124 1.349 . S
C1125 C1141 1.349 . S
C1126 C1124 1.327 . S
C1126 C1145 1.429 . S
C1126 H1150 0.950 . S
C1127 C1144 1.574 1_554 S
C1127 C1146 1.368 . S
C1127 H1151 0.937 1_455 S
H1128 C1132 0.949 . S
C1129 C1130 1.349 . S
C1129 C1131 1.327 . S
C1129 H1152 0.944 1_455 S
C1130 C1129 1.349 . S
C1130 C1142 1.349 . S
C1131 C1129 1.327 . S
C1131 C1147 1.429 . S
C1131 H1153 0.938 1_455 S
C1132 H1128 0.949 . S
C1132 C1140 1.574 1_556 S
C1132 C1148 1.368 . S
H1133 C1141 0.944 1_655 S
H1134 C1139 0.938 1_655 S
H1135 C1140 0.949 . S
H1136 C1142 0.950 . S
H1137 C1143 0.950 . S
H1138 C1144 0.937 1_655 S
C1139 H1134 0.938 1_455 S
C1139 C1141 1.327 . S
C1139 C1145 1.429 . S
C1140 C1132 1.574 1_554 S
C1140 H1135 0.949 . S
C1140 C1146 1.368 . S
C1141 C1125 1.349 . S
C1141 H1133 0.944 1_455 S
C1141 C1139 1.327 . S
C1142 C1130 1.349 . S
C1142 H1136 0.950 . S
C1142 C1143 1.327 . S
C1143 H1137 0.950 . S
C1143 C1142 1.327 . S
C1143 C1147 1.429 . S
C1144 C1127 1.574 1_556 S
C1144 H1138 0.937 1_455 S
C1144 C1148 1.368 . S
C1145 C1126 1.429 . S
C1145 C1139 1.429 . S
C1145 C1146 1.523 . S
C1146 C1127 1.368 . S
C1146 C1140 1.368 . S
C1146 C1145 1.523 . S
C1147 C1131 1.429 . S
C1147 C1143 1.429 . S
C1147 C1148 1.523 . S
C1148 C1132 1.368 . S
C1148 C1144 1.368 . S
C1148 C1147 1.523 . S
H1149 C1124 0.950 . S
H1150 C1126 0.950 . S
H1151 C1127 0.937 1_655 S
H1152 C1129 0.944 1_655 S
H1153 C1131 0.938 1_655 S
C1154 C1155 1.349 1_565 S
C1154 C1156 1.327 . S
C1154 H1179 0.950 . S
C1155 C1154 1.349 1_545 S
C1155 C1171 1.349 . S
C1156 C1154 1.327 . S
C1156 C1175 1.429 1_565 S
C1156 H1180 0.950 . S
C1157 C1174 1.574 . S
C1157 C1176 1.368 . S
C1157 H1181 0.949 . S
H1158 C1162 0.949 . S
C1159 C1160 1.349 . S
C1159 C1161 1.327 . S
C1159 H1182 0.950 . S
C1160 C1159 1.349 . S
C1160 C1172 1.349 1_545 S
C1161 C1159 1.327 . S
C1161 C1177 1.429 . S
C1161 H1183 0.950 . S
C1162 H1158 0.949 . S
C1162 C1170 1.574 . S
C1162 C1178 1.368 1_565 S
H1163 C1171 0.950 . S
H1164 C1169 0.950 . S
H1165 C1170 0.949 . S
H1166 C1172 0.950 . S
H1167 C1173 0.950 . S
H1168 C1174 0.949 . S
C1169 H1164 0.950 . S
C1169 C1171 1.327 . S
C1169 C1175 1.429 . S
C1170 C1162 1.574 . S
C1170 H1165 0.949 . S
C1170 C1176 1.368 1_565 S
C1171 C1155 1.349 . S
C1171 H1163 0.950 . S
C1171 C1169 1.327 . S
C1172 C1160 1.349 1_565 S
C1172 H1166 0.950 . S
C1172 C1173 1.327 . S
C1173 H1167 0.950 . S
C1173 C1172 1.327 . S
C1173 C1177 1.429 1_565 S
C1174 C1157 1.574 . S
C1174 H1168 0.949 . S
C1174 C1178 1.368 . S
C1175 C1156 1.429 1_545 S
C1175 C1169 1.429 . S
C1175 C1176 1.523 . S
C1176 C1157 1.368 . S
C1176 C1170 1.368 1_545 S
C1176 C1175 1.523 . S
C1177 C1161 1.429 . S
C1177 C1173 1.429 1_545 S
C1177 C1178 1.523 . S
C1178 C1162 1.368 1_545 S
C1178 C1174 1.368 . S
C1178 C1177 1.523 . S
H1179 C1154 0.950 . S
H1180 C1156 0.950 . S
H1181 C1157 0.949 . S
H1182 C1159 0.950 . S
H1183 C1161 0.950 . S
C225 C11 1.242 . S
C230 C109 1.242 . S
C255 C25 1.241 . S
C260 C67 1.241 . S
C285 C39 1.241 . S
C290 C81 1.241 . S
C315 C53 1.241 . S
C320 C95 1.241 . S
C345 C123 1.242 . S
C350 C221 1.242 . S
C375 C179 1.241 . S
C380 C137 1.241 . S
C405 C151 1.241 . S
C410 C193 1.241 . S
C435 C165 1.241 . S
C440 C207 1.241 . S
C465 C5 1.424 . S
C470 C135 1.441 . S
C495 C19 1.424 . S
C500 C149 1.441 . S
C525 C163 1.441 . S
C530 C33 1.425 . S
C555 C47 1.424 . S
C560 C121 1.441 . S
C585 C61 1.424 . S
C590 C219 1.441 . S
C615 C177 1.441 . S
C620 C75 1.425 . S
C645 C191 1.441 . S
C650 C89 1.424 . S
C675 C205 1.441 . S
C680 C103 1.424 . S
C705 C23 1.441 . S
C710 C117 1.424 . S
C735 C37 1.441 . S
C740 C131 1.424 . S
C765 C145 1.425 . S
C770 C51 1.441 . S
C795 C9 1.441 . S
C800 C159 1.424 . S
C825 C173 1.424 . S
C830 C107 1.441 . S
C855 C187 1.425 . S
C860 C65 1.441 . S
C885 C79 1.441 . S
C890 C201 1.424 . S
C915 C93 1.441 . S
C920 C215 1.424 . S
C945 C0 1.583 . S
C950 C56 1.583 . S
C975 C70 1.583 . S
C980 C14 1.583 . S
C1005 C28 1.583 . S
C1010 C84 1.583 . S
C1035 C98 1.583 . S
C1040 C42 1.583 . S
C1065 C112 1.583 . S
C1070 C168 1.583 . S
C1095 C182 1.583 . S
C1100 C126 1.583 . S
C1125 C196 1.583 . S
C1130 C140 1.583 . S
C1155 C210 1.583 . S
C1160 C154 1.583 . S
