# Generated by pormake.
# Topology vbm, (6)-cn, num edge types: 1
# Building blocks:
#     Node 0, Type 0, BuildingBlock: VOLQOD_clean_sbu_1, # of connection points: 6
#     Node 1, Type 0, BuildingBlock: VOLQOD_clean_sbu_1, # of connection points: 6
#     Node 2, Type 0, BuildingBlock: VOLQOD_clean_sbu_1, # of connection points: 6
#     Node 3, Type 0, BuildingBlock: VOLQOD_clean_sbu_1, # of connection points: 6
#     Node 4, Type 0, BuildingBlock: VOLQOD_clean_sbu_1, # of connection points: 6
#     Node 5, Type 0, BuildingBlock: VOLQOD_clean_sbu_1, # of connection points: 6
#     Node 6, Type 0, BuildingBlock: VOLQOD_clean_sbu_1, # of connection points: 6
#     Node 7, Type 0, BuildingBlock: VOLQOD_clean_sbu_1, # of connection points: 6
#     Node 8, Type 0, BuildingBlock: VOLQOD_clean_sbu_1, # of connection points: 6
#     Node 9, Type 0, BuildingBlock: VOLQOD_clean_sbu_1, # of connection points: 6
#     Node 10, Type 0, BuildingBlock: VOLQOD_clean_sbu_1, # of connection points: 6
#     Node 11, Type 0, BuildingBlock: VOLQOD_clean_sbu_1, # of connection points: 6
#     Node 12, Type 0, BuildingBlock: VOLQOD_clean_sbu_1, # of connection points: 6
#     Node 13, Type 0, BuildingBlock: VOLQOD_clean_sbu_1, # of connection points: 6
#     Node 14, Type 0, BuildingBlock: VOLQOD_clean_sbu_1, # of connection points: 6
#     Node 15, Type 0, BuildingBlock: VOLQOD_clean_sbu_1, # of connection points: 6
#     Edge 16, Type (0, 0), BuildingBlock: XUDNAN_clean_linker_2, # of connection points: 2
#     Edge 17, Type (0, 0), BuildingBlock: XUDNAN_clean_linker_2, # of connection points: 2
#     Edge 18, Type (0, 0), BuildingBlock: XUDNAN_clean_linker_2, # of connection points: 2
#     Edge 19, Type (0, 0), BuildingBlock: XUDNAN_clean_linker_2, # of connection points: 2
#     Edge 20, Type (0, 0), BuildingBlock: XUDNAN_clean_linker_2, # of connection points: 2
#     Edge 21, Type (0, 0), BuildingBlock: XUDNAN_clean_linker_2, # of connection points: 2
#     Edge 22, Type (0, 0), BuildingBlock: XUDNAN_clean_linker_2, # of connection points: 2
#     Edge 23, Type (0, 0), BuildingBlock: XUDNAN_clean_linker_2, # of connection points: 2
#     Edge 24, Type (0, 0), BuildingBlock: XUDNAN_clean_linker_2, # of connection points: 2
#     Edge 25, Type (0, 0), BuildingBlock: XUDNAN_clean_linker_2, # of connection points: 2
#     Edge 26, Type (0, 0), BuildingBlock: XUDNAN_clean_linker_2, # of connection points: 2
#     Edge 27, Type (0, 0), BuildingBlock: XUDNAN_clean_linker_2, # of connection points: 2
#     Edge 28, Type (0, 0), BuildingBlock: XUDNAN_clean_linker_2, # of connection points: 2
#     Edge 29, Type (0, 0), BuildingBlock: XUDNAN_clean_linker_2, # of connection points: 2
#     Edge 30, Type (0, 0), BuildingBlock: XUDNAN_clean_linker_2, # of connection points: 2
#     Edge 31, Type (0, 0), BuildingBlock: XUDNAN_clean_linker_2, # of connection points: 2
#     Edge 32, Type (0, 0), BuildingBlock: XUDNAN_clean_linker_2, # of connection points: 2
#     Edge 33, Type (0, 0), BuildingBlock: XUDNAN_clean_linker_2, # of connection points: 2
#     Edge 34, Type (0, 0), BuildingBlock: XUDNAN_clean_linker_2, # of connection points: 2
#     Edge 35, Type (0, 0), BuildingBlock: XUDNAN_clean_linker_2, # of connection points: 2
#     Edge 36, Type (0, 0), BuildingBlock: XUDNAN_clean_linker_2, # of connection points: 2
#     Edge 37, Type (0, 0), BuildingBlock: XUDNAN_clean_linker_2, # of connection points: 2
#     Edge 38, Type (0, 0), BuildingBlock: XUDNAN_clean_linker_2, # of connection points: 2
#     Edge 39, Type (0, 0), BuildingBlock: XUDNAN_clean_linker_2, # of connection points: 2
#     Edge 40, Type (0, 0), BuildingBlock: XUDNAN_clean_linker_2, # of connection points: 2
#     Edge 41, Type (0, 0), BuildingBlock: XUDNAN_clean_linker_2, # of connection points: 2
#     Edge 42, Type (0, 0), BuildingBlock: XUDNAN_clean_linker_2, # of connection points: 2
#     Edge 43, Type (0, 0), BuildingBlock: XUDNAN_clean_linker_2, # of connection points: 2
#     Edge 44, Type (0, 0), BuildingBlock: XUDNAN_clean_linker_2, # of connection points: 2
#     Edge 45, Type (0, 0), BuildingBlock: XUDNAN_clean_linker_2, # of connection points: 2
#     Edge 46, Type (0, 0), BuildingBlock: XUDNAN_clean_linker_2, # of connection points: 2
#     Edge 47, Type (0, 0), BuildingBlock: XUDNAN_clean_linker_2, # of connection points: 2
#     Edge 48, Type (0, 0), BuildingBlock: XUDNAN_clean_linker_2, # of connection points: 2
#     Edge 49, Type (0, 0), BuildingBlock: XUDNAN_clean_linker_2, # of connection points: 2
#     Edge 50, Type (0, 0), BuildingBlock: XUDNAN_clean_linker_2, # of connection points: 2
#     Edge 51, Type (0, 0), BuildingBlock: XUDNAN_clean_linker_2, # of connection points: 2
#     Edge 52, Type (0, 0), BuildingBlock: XUDNAN_clean_linker_2, # of connection points: 2
#     Edge 53, Type (0, 0), BuildingBlock: XUDNAN_clean_linker_2, # of connection points: 2
#     Edge 54, Type (0, 0), BuildingBlock: XUDNAN_clean_linker_2, # of connection points: 2
#     Edge 55, Type (0, 0), BuildingBlock: XUDNAN_clean_linker_2, # of connection points: 2
#     Edge 56, Type (0, 0), BuildingBlock: XUDNAN_clean_linker_2, # of connection points: 2
#     Edge 57, Type (0, 0), BuildingBlock: XUDNAN_clean_linker_2, # of connection points: 2
#     Edge 58, Type (0, 0), BuildingBlock: XUDNAN_clean_linker_2, # of connection points: 2
#     Edge 59, Type (0, 0), BuildingBlock: XUDNAN_clean_linker_2, # of connection points: 2
#     Edge 60, Type (0, 0), BuildingBlock: XUDNAN_clean_linker_2, # of connection points: 2
#     Edge 61, Type (0, 0), BuildingBlock: XUDNAN_clean_linker_2, # of connection points: 2
#     Edge 62, Type (0, 0), BuildingBlock: XUDNAN_clean_linker_2, # of connection points: 2
#     Edge 63, Type (0, 0), BuildingBlock: XUDNAN_clean_linker_2, # of connection points: 2
# Relax obj value: 0.098
# Max RMSD: 0.118
# Mean RMSD: 0.118
data_MOF--net-vbm--node1-VOLQOD_clean_sbu_1--edge1-XUDNAN_clean_linker_2
_symmetry_space_group_name_H-M    P1
_symmetry_Int_Tables_number       1
_symmetry_cell_setting            triclinic
loop_
_symmetry_equiv_pos_as_xyz
'x, y, z'
_cell_length_a     64.482009
_cell_length_b     16.812986
_cell_length_c     67.19562
_cell_angle_alpha  89.985812
_cell_angle_beta   90.03397
_cell_angle_gamma 89.913936
loop_
_atom_site_label
_atom_site_type_symbol
_atom_site_fract_x
_atom_site_fract_y
_atom_site_fract_z
_atom_type_partial_charge
O0 O 0.11415 0.17272 0.09695 0.0
Zn1 Zn 0.11226 0.05358 0.09541 0.0
O2 O 0.13419 0.00809 0.11173 0.0
Zn3 Zn 0.15497 0.96153 0.09433 0.0
Zn4 Zn 0.14614 0.08846 0.12896 0.0
Zn5 Zn 0.12279 0.92817 0.12882 0.0
O6 O 0.15394 0.84098 0.09542 0.0
O7 O 0.12964 0.82106 0.11843 0.0
O8 O 0.11574 0.02927 0.06625 0.0
O9 O 0.14876 -0.0084 0.06632 0.0
O10 O 0.18333 0.00834 0.09941 0.0
O11 O 0.1761 0.10032 0.12218 0.0
O12 O 0.14499 0.06044 0.15813 0.0
O13 O 0.08415 0.01867 0.10501 0.0
O14 O 0.13465 0.93475 0.15612 0.0
O15 O 0.09185 0.93967 0.13057 0.0
C16 C 0.12269 0.22046 0.10915 0.0
C17 C 0.14241 0.79477 0.10561 0.0
C18 C 0.18884 0.06589 0.11057 0.0
C19 C 0.13245 0.01268 0.0571 0.0
C20 C 0.14177 -0.00712 0.16606 0.0
C21 C 0.07865 0.97543 0.11965 0.0
O22 O 0.1339 0.19565 0.12348 0.0
O23 O 0.88653 0.77719 0.10754 0.0
Zn24 Zn 0.88937 0.89416 0.10467 0.0
O25 O 0.87048 0.94482 0.12278 0.0
Zn26 Zn 0.84737 -0.0042 0.10912 0.0
Zn27 Zn 0.86126 0.87058 0.14265 0.0
Zn28 Zn 0.88551 0.02479 0.13627 0.0
O29 O 0.84798 0.11539 0.11323 0.0
O30 O 0.88082 0.12816 0.1231 0.0
O31 O 0.88201 0.92188 0.07665 0.0
O32 O 0.85163 0.98424 0.07978 0.0
O33 O 0.81974 0.94578 0.11699 0.0
O34 O 0.83081 0.86215 0.14037 0.0
O35 O 0.86583 0.91067 0.17066 0.0
O36 O 0.91922 0.92169 0.1107 0.0
O37 O 0.87507 0.03483 0.16376 0.0
O38 O 0.9158 0.00053 0.13703 0.0
C39 C 0.88009 0.73183 0.12138 0.0
C40 C 0.86403 0.15763 0.11649 0.0
C41 C 0.81627 0.89272 0.13015 0.0
C42 C 0.86622 0.95611 0.06914 0.0
C43 C 0.86887 0.98248 0.176 0.0
C44 C 0.92706 0.96117 0.12502 0.0
O45 O 0.87172 0.75966 0.1371 0.0
O46 O 0.11968 0.75819 0.37035 0.0
Zn47 Zn 0.1141 0.87401 0.37664 0.0
O48 O 0.13524 0.94199 0.36464 0.0
Zn49 Zn 0.14935 -0.00011 0.38574 0.0
Zn50 Zn 0.15547 0.88152 0.35031 0.0
Zn51 Zn 0.12327 0.01223 0.34514 0.0
O52 O 0.15272 0.115 0.37794 0.0
O53 O 0.13254 0.12117 0.35099 0.0
O54 O 0.11269 0.88951 0.40641 0.0
O55 O 0.13233 -0.00296 0.41054 0.0
O56 O 0.17722 0.94843 0.39216 0.0
O57 O 0.18246 0.882 0.36403 0.0
O58 O 0.15931 0.91121 0.3219 0.0
O59 O 0.08581 0.90624 0.36638 0.0
O60 O 0.13263 -0.00831 0.31715 0.0
O61 O 0.09249 0.00618 0.34561 0.0
C62 C 0.13314 0.728 0.35869 0.0
C63 C 0.1444 0.15359 0.3637 0.0
C64 C 0.18863 0.90563 0.38096 0.0
C65 C 0.11946 0.94623 0.41713 0.0
C66 C 0.14804 0.95292 0.31046 0.0
C67 C 0.07977 0.96053 0.35444 0.0
O68 O 0.14675 0.77 0.35005 0.0
O69 O 0.89423 0.21284 0.38695 0.0
Zn70 Zn 0.89533 0.09382 0.38787 0.0
O71 O 0.87377 0.04983 0.37103 0.0
Zn72 Zn 0.85633 0.97467 0.38505 0.0
Zn73 Zn 0.85665 0.13104 0.35944 0.0
Zn74 Zn 0.88767 -0.0047 0.35011 0.0
O75 O 0.86057 0.86326 0.37509 0.0
O76 O 0.88855 0.88065 0.35629 0.0
O77 O 0.89169 0.05657 0.41595 0.0
O78 O 0.86572 0.96979 0.41327 0.0
O79 O 0.82609 0.00845 0.38523 0.0
O80 O 0.82815 0.12649 0.37055 0.0
O81 O 0.85423 0.11888 0.32969 0.0
O82 O 0.92394 0.063 0.37837 0.0
O83 O 0.87327 0.01074 0.32445 0.0
O84 O 0.91707 0.02921 0.34714 0.0
C85 C 0.88254 0.26066 0.37745 0.0
C86 C 0.87599 0.83565 0.36546 0.0
C87 C 0.81781 0.07388 0.37979 0.0
C88 C 0.87954 0.00509 0.42346 0.0
C89 C 0.86101 0.06447 0.31822 0.0
C90 C 0.92993 0.04622 0.36081 0.0
O91 O 0.86795 0.23679 0.36622 0.0
O92 O 0.8746 0.74908 0.85117 0.0
Zn93 Zn 0.87939 0.86632 0.84917 0.0
O94 O 0.86493 0.91893 0.87051 0.0
Zn95 Zn 0.84119 0.97375 0.85982 0.0
Zn96 Zn 0.85609 0.83964 0.88949 0.0
Zn97 Zn 0.88236 -0.00478 0.88333 0.0
O98 O 0.8389 0.08537 0.86989 0.0
O99 O 0.87217 0.10475 0.87736 0.0
O100 O 0.86964 0.90456 0.82252 0.0
O101 O 0.84467 0.98921 0.83081 0.0
O102 O 0.81568 0.90751 0.8633 0.0
O103 O 0.82562 0.81804 0.88578 0.0
O104 O 0.86167 0.87456 0.91758 0.0
O105 O 0.90976 0.89199 0.85047 0.0
O106 O 0.88007 0.98477 0.9127 0.0
O107 O 0.91197 0.9833 0.87438 0.0
C108 C 0.87238 0.70494 0.86641 0.0
C109 C 0.85401 0.13134 0.87395 0.0
C110 C 0.81194 0.84737 0.87423 0.0
C111 C 0.85615 0.95653 0.81785 0.0
C112 C 0.87136 0.93498 0.9242 0.0
C113 C 0.92034 0.94014 0.86101 0.0
O114 O 0.86923 0.73399 0.88365 0.0
O115 O 0.10698 0.26582 0.83845 0.0
Zn116 Zn 0.10745 0.14569 0.83782 0.0
O117 O 0.12371 0.10459 0.85968 0.0
Zn118 Zn 0.14731 0.04665 0.84941 0.0
Zn119 Zn 0.13419 0.19018 0.87546 0.0
Zn120 Zn 0.10679 0.03612 0.87632 0.0
O121 O 0.14157 0.93016 0.85106 0.0
O122 O 0.1134 0.92201 0.87007 0.0
O123 O 0.11978 0.11218 0.81172 0.0
O124 O 0.15095 0.0667 0.82018 0.0
O125 O 0.17386 0.07661 0.86343 0.0
O126 O 0.16502 0.19837 0.87313 0.0
O127 O 0.12948 0.16938 0.90419 0.0
O128 O 0.07811 0.1055 0.83958 0.0
O129 O 0.11172 0.05639 0.90552 0.0
O130 O 0.07665 0.04972 0.86962 0.0
C131 C 0.11251 0.31552 0.85174 0.0
C132 C 0.12745 0.88961 0.8595 0.0
C133 C 0.17864 0.14474 0.87033 0.0
C134 C 0.13773 0.08664 0.80702 0.0
C135 C 0.12108 0.1136 0.91407 0.0
C136 C 0.06791 0.07275 0.85361 0.0
O137 O 0.12195 0.29382 0.86745 0.0
O138 O 0.87052 0.20584 0.62588 0.0
Zn139 Zn 0.87563 0.09662 0.6364 0.0
O140 O 0.86122 0.01921 0.62027 0.0
Zn141 Zn 0.8417 0.96535 0.63681 0.0
Zn142 Zn 0.84554 0.06812 0.59899 0.0
Zn143 Zn 0.88043 0.94279 0.60974 0.0
O144 O 0.84036 0.85073 0.62985 0.0
O145 O 0.87203 0.83327 0.6174 0.0
O146 O 0.86586 0.09249 0.66464 0.0
O147 O 0.84916 0.97692 0.66542 0.0
O148 O 0.81391 0.01496 0.63367 0.0
O149 O 0.81462 0.05934 0.60263 0.0
O150 O 0.85486 0.02944 0.57241 0.0
O151 O 0.90622 0.07394 0.63733 0.0
O152 O 0.88013 0.9444 0.58006 0.0
O153 O 0.90932 0.96482 0.61881 0.0
C154 C 0.85981 0.23099 0.61125 0.0
C155 C 0.85481 0.80589 0.62354 0.0
C156 C 0.80492 0.04656 0.6188 0.0
C157 C 0.85711 0.03654 0.67419 0.0
C158 C 0.86905 0.98088 0.56734 0.0
C159 C 0.91718 0.01894 0.62966 0.0
O160 O 0.84998 0.18426 0.59981 0.0
O161 O 0.11187 0.75936 0.63554 0.0
Zn162 Zn 0.10858 0.87788 0.63668 0.0
O163 O 0.12179 0.92551 0.61377 0.0
Zn164 Zn 0.14774 0.97478 0.62231 0.0
Zn165 Zn 0.12666 0.8439 0.594 0.0
Zn166 Zn 0.10357 0.00317 0.60206 0.0
O167 O 0.14694 0.09281 0.61738 0.0
O168 O 0.11442 0.11185 0.60723 0.0
O169 O 0.12146 0.91608 0.66183 0.0
O170 O 0.15134 0.96831 0.65208 0.0
O171 O 0.17235 0.92047 0.60966 0.0
O172 O 0.15718 0.82714 0.59132 0.0
O173 O 0.11539 0.87215 0.56689 0.0
O174 O 0.07841 0.90677 0.63809 0.0
O175 O 0.10135 -0.00973 0.57268 0.0
O176 O 0.07502 -0.00606 0.61337 0.0
C177 C 0.11337 0.71246 0.62074 0.0
C178 C 0.13201 0.13863 0.61255 0.0
C179 C 0.17341 0.86052 0.59808 0.0
C180 C 0.13882 0.94805 0.66579 0.0
C181 C 0.10619 0.93458 0.56076 0.0
C182 C 0.06743 0.95405 0.62769 0.0
O183 O 0.1161 0.7382 0.60312 0.0
O184 O 0.61629 0.77834 0.11823 0.0
Zn185 Zn 0.60772 0.66664 0.11209 0.0
O186 O 0.62555 0.59329 0.1255 0.0
Zn187 Zn 0.64693 0.5523 0.1081 0.0
Zn188 Zn 0.63778 0.64583 0.14805 0.0
Zn189 Zn 0.60907 0.50459 0.1337 0.0
O190 O 0.6493 0.43255 0.11227 0.0
O191 O 0.61627 0.40578 0.11877 0.0
O192 O 0.60962 0.64566 0.08286 0.0
O193 O 0.63816 0.5717 0.07966 0.0
O194 O 0.67466 0.60445 0.11407 0.0
O195 O 0.6684 0.64285 0.14516 0.0
O196 O 0.6312 0.5893 0.17387 0.0
O197 O 0.57816 0.65163 0.12062 0.0
O198 O 0.61603 0.48035 0.16196 0.0
O199 O 0.57854 0.52751 0.13199 0.0
C200 C 0.62512 0.80806 0.13347 0.0
C201 C 0.63452 0.38284 0.11442 0.0
C202 C 0.6808 0.63241 0.13069 0.0
C203 C 0.62262 0.60792 0.07212 0.0
C204 C 0.62398 0.51935 0.17627 0.0
C205 C 0.5688 0.59086 0.12744 0.0
O206 O 0.63211 0.7643 0.14748 0.0
O207 O 0.38254 0.30529 0.11136 0.0
Zn208 Zn 0.3863 0.4235 0.10984 0.0
O209 O 0.36327 0.47707 0.1231 0.0
Zn210 Zn 0.34466 0.5226 0.10316 0.0
Zn211 Zn 0.34877 0.40078 0.13989 0.0
Zn212 Zn 0.37347 0.56076 0.13993 0.0
O213 O 0.34022 0.6406 0.10723 0.0
O214 O 0.36337 0.66616 0.13088 0.0
O215 O 0.38699 0.44988 0.08065 0.0
O216 O 0.3577 0.5175 0.07621 0.0
O217 O 0.31782 0.46052 0.10239 0.0
O218 O 0.31943 0.39087 0.13055 0.0
O219 O 0.3488 0.42976 0.16909 0.0
O220 O 0.41382 0.45858 0.12134 0.0
O221 O 0.36394 0.54822 0.16792 0.0
O222 O 0.40441 0.56286 0.1396 0.0
C223 C 0.37193 0.26117 0.12288 0.0
C224 C 0.34988 0.68936 0.11838 0.0
C225 C 0.30981 0.41249 0.11491 0.0
C226 C 0.37444 0.48782 0.06955 0.0
C227 C 0.35488 0.49331 0.17754 0.0
C228 C 0.41838 0.51824 0.13221 0.0
O229 O 0.35985 0.29032 0.13596 0.0
O230 O 0.60786 0.14782 0.38296 0.0
Zn231 Zn 0.60422 0.26707 0.38649 0.0
O232 O 0.62246 0.32427 0.36827 0.0
Zn233 Zn 0.6422 0.39002 0.38245 0.0
Zn234 Zn 0.63693 0.25001 0.35198 0.0
Zn235 Zn 0.60671 0.38731 0.35038 0.0
O236 O 0.64177 0.50348 0.37202 0.0
O237 O 0.61141 0.49972 0.35614 0.0
O238 O 0.60918 0.30261 0.4149 0.0
O239 O 0.63259 0.39857 0.41062 0.0
O240 O 0.67076 0.33669 0.3829 0.0
O241 O 0.66443 0.23041 0.36405 0.0
O242 O 0.63998 0.28299 0.32324 0.0
O243 O 0.57409 0.29108 0.37976 0.0
O244 O 0.61585 0.37666 0.3224 0.0
O245 O 0.57676 0.36315 0.35209 0.0
C246 C 0.61315 0.11226 0.36698 0.0
C247 C 0.62678 0.53789 0.36305 0.0
C248 C 0.67619 0.26965 0.37561 0.0
C249 C 0.6202 0.35951 0.42163 0.0
C250 C 0.62959 0.33507 0.3138 0.0
C251 C 0.56591 0.32686 0.36497 0.0
O252 O 0.62219 0.14801 0.35278 0.0
O253 O 0.38863 0.67086 0.3903 0.0
Zn254 Zn 0.3878 0.55015 0.39252 0.0
O255 O 0.36416 0.50706 0.37755 0.0
Zn256 Zn 0.3444 0.45948 0.39607 0.0
Zn257 Zn 0.35106 0.5913 0.36295 0.0
Zn258 Zn 0.37295 0.42855 0.35811 0.0
O259 O 0.34612 0.33902 0.39464 0.0
O260 O 0.36431 0.31982 0.36688 0.0
O261 O 0.38484 0.53191 0.42202 0.0
O262 O 0.35212 0.49125 0.42359 0.0
O263 O 0.31524 0.5046 0.39299 0.0
O264 O 0.32213 0.6024 0.37183 0.0
O265 O 0.3504 0.57257 0.33384 0.0
O266 O 0.41454 0.50138 0.38272 0.0
O267 O 0.36279 0.45065 0.33006 0.0
O268 O 0.40392 0.42593 0.35744 0.0
C269 C 0.37814 0.71976 0.37985 0.0
C270 C 0.35454 0.29289 0.38189 0.0
C271 C 0.30962 0.56593 0.38319 0.0
C272 C 0.36868 0.5148 0.43195 0.0
C273 C 0.35477 0.51359 0.32282 0.0
C274 C 0.41833 0.45451 0.36824 0.0
O275 O 0.36394 0.69623 0.36818 0.0
O276 O 0.3774 0.24023 0.8567 0.0
Zn277 Zn 0.38243 0.35698 0.85195 0.0
O278 O 0.3697 0.41579 0.87355 0.0
Zn279 Zn 0.34404 0.46501 0.86487 0.0
Zn280 Zn 0.36409 0.34577 0.89556 0.0
Zn281 Zn 0.38828 0.49676 0.88243 0.0
O282 O 0.3443 0.58205 0.87067 0.0
O283 O 0.37831 0.60242 0.87315 0.0
O284 O 0.36951 0.38929 0.82596 0.0
O285 O 0.34152 0.45711 0.83523 0.0
O286 O 0.31913 0.41147 0.87673 0.0
O287 O 0.33353 0.32857 0.8984 0.0
O288 O 0.37528 0.38679 0.92149 0.0
O289 O 0.41316 0.37965 0.85006 0.0
O290 O 0.38949 0.50116 0.91223 0.0
O291 O 0.41683 0.47706 0.8722 0.0
C292 C 0.37558 0.20212 0.873 0.0
C293 C 0.3599 0.62841 0.87107 0.0
C294 C 0.31758 0.35712 0.88983 0.0
C295 C 0.35303 0.42761 0.82174 0.0
C296 C 0.38433 0.45188 0.92571 0.0
C297 C 0.42439 0.4297 0.85934 0.0
O298 O 0.37416 0.23716 0.88972 0.0
O299 O 0.61846 0.70519 0.86508 0.0
Zn300 Zn 0.61558 0.59378 0.85497 0.0
O301 O 0.62925 0.5219 0.87311 0.0
Zn302 Zn 0.64679 0.45309 0.85749 0.0
Zn303 Zn 0.64558 0.5751 0.89299 0.0
Zn304 Zn 0.60906 0.46529 0.88824 0.0
O305 O 0.64297 0.34048 0.86667 0.0
O306 O 0.61753 0.35214 0.88903 0.0
O307 O 0.62807 0.58645 0.82774 0.0
O308 O 0.64063 0.4632 0.82815 0.0
O309 O 0.67663 0.48809 0.86053 0.0
O310 O 0.67572 0.56736 0.88698 0.0
O311 O 0.63964 0.5412 0.92103 0.0
O312 O 0.58523 0.56477 0.85203 0.0
O313 O 0.60717 0.50295 0.91644 0.0
O314 O 0.58113 0.47465 0.87595 0.0
C315 C 0.62772 0.73296 0.88031 0.0
C316 C 0.63089 0.31078 0.87972 0.0
C317 C 0.68569 0.5329 0.87312 0.0
C318 C 0.63552 0.52617 0.81879 0.0
C319 C 0.62185 0.52392 0.92792 0.0
C320 C 0.57395 0.51603 0.86168 0.0
O321 O 0.63821 0.6894 0.89206 0.0
O322 O 0.38144 0.77019 0.65199 0.0
Zn323 Zn 0.38239 0.65023 0.65167 0.0
O324 O 0.36699 0.60894 0.62925 0.0
Zn325 Zn 0.34305 0.55208 0.63912 0.0
Zn326 Zn 0.3575 0.69472 0.61287 0.0
Zn327 Zn 0.3844 0.53933 0.61332 0.0
O328 O 0.34831 0.43558 0.63708 0.0
O329 O 0.37738 0.42555 0.61941 0.0
O330 O 0.37053 0.61021 0.67731 0.0
O331 O 0.33914 0.56884 0.66847 0.0
O332 O 0.31684 0.58406 0.62489 0.0
O333 O 0.32655 0.70173 0.61305 0.0
O334 O 0.36479 0.67648 0.58451 0.0
O335 O 0.41217 0.61628 0.65003 0.0
O336 O 0.38112 0.5602 0.58392 0.0
O337 O 0.41423 0.55348 0.62094 0.0
C338 C 0.37663 0.81999 0.63846 0.0
C339 C 0.36268 0.3941 0.6293 0.0
C340 C 0.31261 0.65024 0.61659 0.0
C341 C 0.35257 0.58454 0.68178 0.0
C342 C 0.37326 0.61984 0.57496 0.0
C343 C 0.42269 0.58145 0.63657 0.0
O344 O 0.36863 0.79832 0.62205 0.0
O345 O 0.61382 0.27145 0.64008 0.0
Zn346 Zn 0.61167 0.38965 0.64205 0.0
O347 O 0.62653 0.43965 0.6202 0.0
Zn348 Zn 0.6499 0.49606 0.63141 0.0
Zn349 Zn 0.63626 0.35904 0.60176 0.0
Zn350 Zn 0.60893 0.51308 0.60577 0.0
O351 O 0.6505 0.60919 0.62296 0.0
O352 O 0.61879 0.62439 0.6104 0.0
O353 O 0.62239 0.42169 0.66897 0.0
O354 O 0.64792 0.50353 0.66098 0.0
O355 O 0.67624 0.43823 0.62595 0.0
O356 O 0.66716 0.34482 0.60424 0.0
O357 O 0.62861 0.38318 0.57347 0.0
O358 O 0.58188 0.42241 0.64135 0.0
O359 O 0.60966 0.49307 0.57628 0.0
O360 O 0.57952 0.50523 0.61558 0.0
C361 C 0.61809 0.22603 0.62551 0.0
C362 C 0.63593 0.65309 0.61644 0.0
C363 C 0.68075 0.37904 0.61498 0.0
C364 C 0.63666 0.46978 0.67395 0.0
C365 C 0.61798 0.43894 0.5657 0.0
C366 C 0.57133 0.46804 0.63011 0.0
O367 O 0.62479 0.25288 0.60903 0.0
H368 H 0.21202 0.14192 0.13863 0.0
H369 H 0.21098 0.07772 0.07613 0.0
H370 H 0.24099 0.16593 0.07003 0.0
H371 H 0.22421 0.34257 0.13299 0.0
H372 H 0.24156 0.3483 0.15398 0.0
H373 H 0.22091 0.27636 0.15386 0.0
H374 H 0.24723 0.16168 0.15934 0.0
H375 H 0.26791 0.2335 0.16011 0.0
H376 H 0.26907 0.15183 0.14277 0.0
H377 H 0.26848 0.273 0.07027 0.0
H378 H 0.29643 0.36882 0.07798 0.0
H379 H 0.28061 0.35618 0.14063 0.0
C380 C 0.21845 0.14499 0.12377 0.0
C381 C 0.2093 0.10303 0.10785 0.0
C382 C 0.21801 0.10862 0.08856 0.0
C383 C 0.23486 0.15926 0.08493 0.0
C384 C 0.24297 0.20251 0.10082 0.0
C385 C 0.23547 0.19395 0.11996 0.0
C386 C 0.24712 0.24608 0.13449 0.0
C387 C 0.23258 0.30692 0.14441 0.0
C388 C 0.25851 0.19524 0.15009 0.0
C389 C 0.26214 0.28634 0.12049 0.0
C390 C 0.2593 0.26146 0.10108 0.0
C391 C 0.27101 0.29224 0.08545 0.0
C392 C 0.28666 0.34735 0.08992 0.0
C393 C 0.29058 0.36983 0.10987 0.0
C394 C 0.27788 0.34003 0.12524 0.0
H395 H 0.78496 0.86601 0.10294 0.0
H396 H 0.80072 0.84765 0.16559 0.0
H397 H 0.76823 0.77555 0.17193 0.0
H398 H 0.72835 0.88973 0.11018 0.0
H399 H 0.72205 0.83048 0.08866 0.0
H400 H 0.74581 0.88668 0.08924 0.0
H401 H 0.76646 0.75759 0.08199 0.0
H402 H 0.74281 0.70072 0.08184 0.0
H403 H 0.76366 0.67331 0.09836 0.0
H404 H 0.73585 0.70011 0.17158 0.0
H405 H 0.70247 0.63429 0.16513 0.0
H406 H 0.70699 0.69672 0.10257 0.0
C407 C 0.78122 0.84856 0.11803 0.0
C408 C 0.79522 0.86255 0.13382 0.0
C409 C 0.79014 0.8374 0.15332 0.0
C410 C 0.77179 0.79624 0.15707 0.0
C411 C 0.75869 0.78049 0.14113 0.0
C412 C 0.76291 0.8065 0.12204 0.0
C413 C 0.74624 0.77912 0.10764 0.0
C414 C 0.73494 0.85077 0.09839 0.0
C415 C 0.75534 0.72443 0.0915 0.0
C416 C 0.73218 0.73335 0.12166 0.0
C417 C 0.73979 0.73513 0.14088 0.0
C418 C 0.72963 0.69839 0.15662 0.0
C419 C 0.71076 0.66091 0.15279 0.0
C420 C 0.70226 0.66015 0.13336 0.0
C421 C 0.71334 0.69534 0.11749 0.0
H422 H 0.28981 0.66707 0.35834 0.0
H423 H 0.2842 0.55394 0.41611 0.0
H424 H 0.25411 0.64101 0.42384 0.0
H425 H 0.27906 0.86288 0.37435 0.0
H426 H 0.26488 0.88949 0.3522 0.0
H427 H 0.28512 0.81573 0.35098 0.0
H428 H 0.25949 0.71267 0.33607 0.0
H429 H 0.23944 0.78706 0.33654 0.0
H430 H 0.23542 0.69287 0.34875 0.0
H431 H 0.22504 0.74617 0.42514 0.0
H432 H 0.1967 0.84174 0.41767 0.0
H433 H 0.2235 0.88558 0.35962 0.0
C434 C 0.28211 0.65956 0.37254 0.0
C435 C 0.28929 0.60377 0.38662 0.0
C436 C 0.27875 0.59575 0.405 0.0
C437 C 0.26188 0.64571 0.40961 0.0
C438 C 0.25589 0.70297 0.39567 0.0
C439 C 0.26554 0.70883 0.37738 0.0
C440 C 0.25629 0.77388 0.36472 0.0
C441 C 0.2723 0.83934 0.36032 0.0
C442 C 0.2471 0.73956 0.34539 0.0
C443 C 0.23962 0.80349 0.37859 0.0
C444 C 0.2397 0.76299 0.39651 0.0
C445 C 0.22495 0.77851 0.41122 0.0
C446 C 0.2091 0.83363 0.40699 0.0
C447 C 0.20819 0.87135 0.38818 0.0
C448 C 0.2241 0.85834 0.37423 0.0
H449 H 0.79808 0.21743 0.37805 0.0
H450 H 0.7876 0.96738 0.39067 0.0
H451 H 0.75017 -0.00521 0.39487 0.0
H452 H 0.75839 0.29622 0.41285 0.0
H453 H 0.75138 0.37564 0.3961 0.0
H454 H 0.77756 0.33789 0.39636 0.0
H455 H 0.77526 0.30993 0.35851 0.0
H456 H 0.74912 0.3473 0.35812 0.0
H457 H 0.75456 0.24846 0.34912 0.0
H458 H 0.71394 0.04554 0.39307 0.0
H459 H 0.68114 0.11695 0.38678 0.0
H460 H 0.71511 0.3357 0.3769 0.0
C461 C 0.78799 0.16848 0.38198 0.0
C462 C 0.79572 0.0901 0.38396 0.0
C463 C 0.78201 0.02784 0.38915 0.0
C464 C 0.76076 0.04292 0.39159 0.0
C465 C 0.75362 0.12068 0.38914 0.0
C466 C 0.76685 0.18262 0.38468 0.0
C467 C 0.75513 0.25987 0.38165 0.0
C468 C 0.76096 0.32101 0.3977 0.0
C469 C 0.75873 0.29329 0.3606 0.0
C470 C 0.73309 0.23111 0.38429 0.0
C471 C 0.73262 0.1507 0.38876 0.0
C472 C 0.7141 0.10875 0.39004 0.0
C473 C 0.6956 0.14968 0.38636 0.0
C474 C 0.69574 0.23175 0.38163 0.0
C475 C 0.71466 0.27342 0.381 0.0
H476 H 0.71433 0.57802 0.90087 0.0
H477 H 0.70483 0.54997 0.83734 0.0
H478 H 0.73686 0.62583 0.83086 0.0
H479 H 0.73134 0.7698 0.90061 0.0
H480 H 0.7512 0.75954 0.91932 0.0
H481 H 0.72921 0.69379 0.91943 0.0
H482 H 0.7534 0.5708 0.91788 0.0
H483 H 0.77555 0.63604 0.9184 0.0
H484 H 0.77277 0.56449 0.8986 0.0
H485 H 0.7655 0.72527 0.83132 0.0
H486 H 0.79431 0.81745 0.8385 0.0
H487 H 0.78742 0.77166 0.90168 0.0
C488 C 0.71944 0.58546 0.88563 0.0
C489 C 0.70722 0.55814 0.86959 0.0
C490 C 0.71416 0.56951 0.84983 0.0
C491 C 0.73221 0.61314 0.846 0.0
C492 C 0.74333 0.64292 0.86213 0.0
C493 C 0.73768 0.62723 0.88157 0.0
C494 C 0.75211 0.66784 0.89618 0.0
C495 C 0.74024 0.72619 0.90967 0.0
C496 C 0.76418 0.60611 0.90849 0.0
C497 C 0.76622 0.71149 0.8819 0.0
C498 C 0.76072 0.69693 0.86235 0.0
C499 C 0.7703 0.73565 0.84653 0.0
C500 C 0.78641 0.78868 0.85077 0.0
C501 C 0.79296 0.80137 0.87062 0.0
C502 C 0.7827 0.76248 0.88638 0.0
H503 H 0.27904 0.41445 0.88023 0.0
H504 H 0.31058 0.20974 0.90557 0.0
H505 H 0.27797 0.13371 0.90446 0.0
H506 H 0.22888 0.38048 0.90659 0.0
H507 H 0.21406 0.41476 0.88551 0.0
H508 H 0.23945 0.45518 0.89025 0.0
H509 H 0.25068 0.41595 0.85455 0.0
H510 H 0.22551 0.37407 0.84981 0.0
H511 H 0.24841 0.31379 0.84669 0.0
H512 H 0.24345 0.07399 0.89573 0.0
H513 H 0.20767 0.04159 0.88503 0.0
H514 H 0.19816 0.28753 0.86774 0.0
C515 C 0.27896 0.35433 0.88602 0.0
C516 C 0.29736 0.31795 0.89288 0.0
C517 C 0.29666 0.23902 0.90029 0.0
C518 C 0.27823 0.19515 0.89965 0.0
C519 C 0.26056 0.23172 0.89202 0.0
C520 C 0.26062 0.31019 0.88585 0.0
C521 C 0.23966 0.33481 0.87781 0.0
C522 C 0.22994 0.40017 0.89082 0.0
C523 C 0.24117 0.36118 0.85592 0.0
C524 C 0.22803 0.25719 0.8798 0.0
C525 C 0.24037 0.19826 0.88791 0.0
C526 C 0.23348 0.12002 0.88977 0.0
C527 C 0.21326 0.102 0.8835 0.0
C528 C 0.20023 0.16228 0.87577 0.0
C529 C 0.20775 0.24066 0.87391 0.0
H530 H 0.70429 0.2957 0.58784 0.0
H531 H 0.70153 0.36885 0.64975 0.0
H532 H 0.73122 0.28218 0.65749 0.0
H533 H 0.71881 0.09448 0.59533 0.0
H534 H 0.73712 0.08995 0.5751 0.0
H535 H 0.71551 0.15783 0.5739 0.0
H536 H 0.74053 0.27652 0.5686 0.0
H537 H 0.76216 0.20869 0.56926 0.0
H538 H 0.76141 0.2924 0.586 0.0
H539 H 0.7584 0.17944 0.65937 0.0
H540 H 0.78809 0.09034 0.65413 0.0
H541 H 0.77637 0.09248 0.59043 0.0
C542 C 0.71023 0.29427 0.60292 0.0
C543 C 0.70069 0.33876 0.61821 0.0
C544 C 0.7088 0.33585 0.63779 0.0
C545 C 0.72547 0.28608 0.64239 0.0
C546 C 0.73413 0.24109 0.62715 0.0
C547 C 0.72735 0.24661 0.60769 0.0
C548 C 0.7404 0.19504 0.59405 0.0
C549 C 0.72716 0.1305 0.58401 0.0
C550 C 0.7518 0.24622 0.57857 0.0
C551 C 0.75534 0.15915 0.609 0.0
C552 C 0.75102 0.18524 0.62804 0.0
C553 C 0.76216 0.15923 0.64452 0.0
C554 C 0.77888 0.1079 0.64138 0.0
C555 C 0.78458 0.08468 0.62185 0.0
C556 C 0.77235 0.10928 0.6055 0.0
H557 H 0.21227 0.92021 0.60561 0.0
H558 H 0.18013 0.71067 0.58382 0.0
H559 H 0.21292 0.63579 0.58423 0.0
H560 H 0.26167 0.882 0.57782 0.0
H561 H 0.27719 0.91958 0.59805 0.0
H562 H 0.25162 0.95945 0.59368 0.0
H563 H 0.24159 0.9263 0.63009 0.0
H564 H 0.26694 0.88512 0.63448 0.0
H565 H 0.2442 0.82552 0.63894 0.0
H566 H 0.24755 0.57773 0.59242 0.0
H567 H 0.2834 0.54606 0.60303 0.0
H568 H 0.29359 0.79463 0.6172 0.0
C569 C 0.21224 0.85925 0.60041 0.0
C570 C 0.19363 0.82138 0.59473 0.0
C571 C 0.1942 0.74127 0.58813 0.0
C572 C 0.21274 0.69799 0.58837 0.0
C573 C 0.23064 0.73612 0.59483 0.0
C574 C 0.23068 0.81547 0.60025 0.0
C575 C 0.2519 0.84126 0.60737 0.0
C576 C 0.26114 0.9043 0.59339 0.0
C577 C 0.25109 0.87128 0.629 0.0
C578 C 0.2635 0.76327 0.60584 0.0
C579 C 0.25096 0.70325 0.59865 0.0
C580 C 0.25771 0.62453 0.5976 0.0
C581 C 0.27796 0.60696 0.60381 0.0
C582 C 0.29118 0.66812 0.61068 0.0
C583 C 0.28386 0.74712 0.61162 0.0
H584 H 0.13572 0.06288 0.28275 0.0
H585 H 0.16943 0.84074 0.28958 0.0
H586 H 0.1737 0.83246 0.25318 0.0
H587 H 0.10791 0.01192 0.24024 0.0
H588 H 0.10964 0.10794 0.22843 0.0
H589 H 0.11073 0.1005 0.25512 0.0
H590 H 0.14591 0.17483 0.25532 0.0
H591 H 0.14488 0.18299 0.22859 0.0
H592 H 0.16706 0.13776 0.24041 0.0
H593 H 0.17012 0.83844 0.21647 0.0
H594 H 0.16202 0.86563 0.18118 0.0
H595 H 0.13315 0.08898 0.19781 0.0
C596 C 0.14425 0.01314 0.27658 0.0
C597 C 0.1522 0.95232 0.28892 0.0
C598 C 0.16332 0.88819 0.28037 0.0
C599 C 0.1658 0.8829 0.25973 0.0
C600 C 0.15744 0.94303 0.24795 0.0
C601 C 0.14722 0.00768 0.25602 0.0
C602 C 0.13922 0.06293 0.23995 0.0
C603 C 0.11547 0.07125 0.241 0.0
C604 C 0.14991 0.14446 0.24114 0.0
C605 C 0.1459 0.01766 0.22157 0.0
C606 C 0.15635 0.94857 0.22657 0.0
C607 C 0.16241 0.89318 0.21231 0.0
C608 C 0.15765 0.90882 0.19239 0.0
C609 C 0.14725 0.97969 0.18696 0.0
C610 C 0.14154 0.03527 0.20167 0.0
H611 H 0.86171 0.93871 0.29294 0.0
H612 H 0.84925 0.19222 0.29557 0.0
H613 H 0.84643 0.19588 0.25888 0.0
H614 H 0.89397 0.94166 0.25308 0.0
H615 H 0.88513 0.85054 0.2418 0.0
H616 H 0.88263 0.86455 0.26821 0.0
H617 H 0.84309 0.83851 0.26605 0.0
H618 H 0.84548 0.82298 0.2396 0.0
H619 H 0.82748 0.89595 0.24902 0.0
H620 H 0.85111 0.17605 0.22245 0.0
H621 H 0.85923 0.13208 0.18836 0.0
H622 H 0.86745 0.89009 0.20954 0.0
C623 C 0.85787 -0.00536 0.28582 0.0
C624 C 0.85577 0.06528 0.29696 0.0
C625 C 0.85077 0.1374 0.28723 0.0
C626 C 0.84917 0.14001 0.26645 0.0
C627 C 0.85219 0.06969 0.25583 0.0
C628 C 0.856 -0.00199 0.2652 0.0
C629 C 0.86013 0.93212 0.25041 0.0
C630 C 0.88175 0.89511 0.25357 0.0
C631 C 0.84302 0.86865 0.25133 0.0
C632 C 0.85908 0.97873 0.23124 0.0
C633 C 0.85435 0.05783 0.23468 0.0
C634 C 0.85434 0.11399 0.2195 0.0
C635 C 0.85919 0.08853 0.20025 0.0
C636 C 0.8639 0.00761 0.19639 0.0
C637 C 0.86362 0.95201 0.21206 0.0
H638 H 0.86082 0.91392 0.70022 0.0
H639 H 0.85138 0.16904 0.69677 0.0
H640 H 0.84883 0.17557 0.7335 0.0
H641 H 0.82716 0.87396 0.74155 0.0
H642 H 0.84426 0.80133 0.75257 0.0
H643 H 0.84434 0.81636 0.72604 0.0
H644 H 0.88387 0.84424 0.72703 0.0
H645 H 0.88393 0.82904 0.75355 0.0
H646 H 0.89371 0.92067 0.7433 0.0
H647 H 0.84595 0.15292 0.77016 0.0
H648 H 0.8471 0.10563 0.80497 0.0
H649 H 0.86155 0.8673 0.78438 0.0
C650 C 0.8581 0.97097 0.70725 0.0
C651 C 0.85607 0.04092 0.69589 0.0
C652 C 0.85295 0.11495 0.70541 0.0
C653 C 0.85139 0.11911 0.72616 0.0
C654 C 0.85339 0.04887 0.73699 0.0
C655 C 0.85702 0.97643 0.72791 0.0
C656 C 0.85978 0.91058 0.74299 0.0
C657 C 0.84287 0.84681 0.74064 0.0
C658 C 0.88162 0.87402 0.74163 0.0
C659 C 0.857 0.95726 0.76199 0.0
C660 C 0.853 0.03665 0.75819 0.0
C661 C 0.84923 0.09108 0.77336 0.0
C662 C 0.84982 0.06368 0.79301 0.0
C663 C 0.85453 0.98312 0.79717 0.0
C664 C 0.85813 0.92934 0.7815 0.0
H665 H 0.11036 0.05936 0.77706 0.0
H666 H 0.17615 0.08045 0.78954 0.0
H667 H 0.18401 0.04856 0.75434 0.0
H668 H 0.11489 0.89153 0.74561 0.0
H669 H 0.09432 0.92199 0.7291 0.0
H670 H 0.09395 0.95253 0.75477 0.0
H671 H 0.09167 0.10042 0.74398 0.0
H672 H 0.09182 0.07029 0.71827 0.0
H673 H 0.11086 0.14009 0.7272 0.0
H674 H 0.18431 0.01426 0.71747 0.0
H675 H 0.17706 0.97523 0.68257 0.0
H676 H 0.11124 0.96829 0.69588 0.0
C677 C 0.12642 0.05866 0.77233 0.0
C678 C 0.14265 0.07333 0.78589 0.0
C679 C 0.16349 0.06978 0.77928 0.0
C680 C 0.16809 0.05179 0.75937 0.0
C681 C 0.15166 0.0365 0.74643 0.0
C682 C 0.13126 0.03937 0.75272 0.0
C683 C 0.11645 0.01651 0.73629 0.0
C684 C 0.10419 0.94116 0.74178 0.0
C685 C 0.10185 0.08598 0.73113 0.0
C686 C 0.13167 0.0005 0.71972 0.0
C687 C 0.1519 0.01301 0.72571 0.0
C688 C 0.16853 0.00383 0.71265 0.0
C689 C 0.16429 0.98166 0.69291 0.0
C690 C 0.14363 0.96787 0.68664 0.0
C691 C 0.12722 0.97707 0.70031 0.0
H692 H 0.62656 0.47527 0.29408 0.0
H693 H 0.63995 0.22469 0.28556 0.0
H694 H 0.64122 0.24601 0.24907 0.0
H695 H 0.59369 0.50164 0.25363 0.0
H696 H 0.60296 0.5992 0.24701 0.0
H697 H 0.60471 0.56563 0.27238 0.0
H698 H 0.64429 0.59176 0.27243 0.0
H699 H 0.64267 0.6265 0.24711 0.0
H700 H 0.66031 0.54719 0.25347 0.0
H701 H 0.63652 0.29193 0.21384 0.0
H702 H 0.63092 0.36187 0.182 0.0
H703 H 0.62312 0.58479 0.21368 0.0
C704 C 0.63007 0.42514 0.28452 0.0
C705 C 0.63306 0.34826 0.29246 0.0
C706 C 0.63773 0.28404 0.27965 0.0
C707 C 0.63839 0.2956 0.25897 0.0
C708 C 0.63481 0.37196 0.25158 0.0
C709 C 0.6312 0.43597 0.26399 0.0
C710 C 0.62759 0.51177 0.25233 0.0
C711 C 0.60595 0.54655 0.2566 0.0
C712 C 0.64474 0.5729 0.25659 0.0
C713 C 0.62907 0.48002 0.23134 0.0
C714 C 0.63312 0.39916 0.23125 0.0
C715 C 0.63373 0.35542 0.2137 0.0
C716 C 0.63036 0.39554 0.19574 0.0
C717 C 0.62668 0.47866 0.19548 0.0
C718 C 0.62615 0.52141 0.2135 0.0
H719 H 0.35973 0.39895 0.2937 0.0
H720 H 0.3414 0.64518 0.30291 0.0
H721 H 0.33693 0.66209 0.26691 0.0
H722 H 0.389 0.43059 0.25035 0.0
H723 H 0.38106 0.34071 0.2379 0.0
H724 H 0.38132 0.34481 0.26466 0.0
H725 H 0.34261 0.30388 0.26552 0.0
H726 H 0.34223 0.2995 0.23872 0.0
H727 H 0.32384 0.3613 0.25173 0.0
H728 H 0.33806 0.65836 0.23041 0.0
H729 H 0.34285 0.63104 0.19466 0.0
H730 H 0.35843 0.38576 0.20814 0.0
C731 C 0.35452 0.45606 0.28815 0.0
C732 C 0.35096 0.52069 0.30119 0.0
C733 C 0.34423 0.59461 0.29331 0.0
C734 C 0.34159 0.60494 0.27284 0.0
C735 C 0.34548 0.5406 0.26042 0.0
C736 C 0.35159 0.46733 0.26768 0.0
C737 C 0.35545 0.40913 0.25083 0.0
C738 C 0.37805 0.37961 0.25095 0.0
C739 C 0.34011 0.33932 0.25176 0.0
C740 C 0.35113 0.46208 0.23303 0.0
C741 C 0.34538 0.53763 0.239 0.0
C742 C 0.34215 0.59911 0.22548 0.0
C743 C 0.345 0.58318 0.20527 0.0
C744 C 0.35077 0.50626 0.19878 0.0
C745 C 0.35358 0.44459 0.21278 0.0
H746 H 0.38017 0.43789 0.79086 0.0
H747 H 0.31489 0.45898 0.80563 0.0
H748 H 0.30727 0.49961 0.77098 0.0
H749 H 0.38225 0.60958 0.76101 0.0
H750 H 0.40039 0.5689 0.74332 0.0
H751 H 0.4004 0.53376 0.76862 0.0
H752 H 0.3953 0.38887 0.75635 0.0
H753 H 0.39555 0.42343 0.73098 0.0
H754 H 0.37393 0.36603 0.74002 0.0
H755 H 0.30708 0.53962 0.73469 0.0
H756 H 0.31454 0.58008 0.69996 0.0
H757 H 0.38022 0.54205 0.71039 0.0
C758 C 0.36421 0.44943 0.7867 0.0
C759 C 0.34806 0.44443 0.80078 0.0
C760 C 0.32745 0.46211 0.79496 0.0
C761 C 0.32299 0.48514 0.77536 0.0
C762 C 0.33936 0.49107 0.76192 0.0
C763 C 0.35956 0.47392 0.76738 0.0
C764 C 0.37454 0.48956 0.75055 0.0
C765 C 0.39032 0.55431 0.75622 0.0
C766 C 0.38547 0.41237 0.7441 0.0
C767 C 0.35964 0.51865 0.73479 0.0
C768 C 0.33939 0.51817 0.7415 0.0
C769 C 0.32289 0.54065 0.7293 0.0
C770 C 0.32726 0.56362 0.70967 0.0
C771 C 0.34795 0.56519 0.70267 0.0
C772 C 0.36429 0.54291 0.71548 0.0
H773 H 0.62883 0.4086 0.79148 0.0
H774 H 0.64848 0.65399 0.79753 0.0
H775 H 0.65295 0.66329 0.76107 0.0
H776 H 0.66203 0.35401 0.74977 0.0
H777 H 0.64231 0.29498 0.73781 0.0
H778 H 0.64246 0.3052 0.76451 0.0
H779 H 0.60461 0.35719 0.7635 0.0
H780 H 0.60435 0.34715 0.73683 0.0
H781 H 0.59832 0.44168 0.74809 0.0
H782 H 0.65527 0.64606 0.72428 0.0
H783 H 0.65195 0.60813 0.68894 0.0
H784 H 0.62794 0.37747 0.70651 0.0
C785 C 0.63434 0.46379 0.78507 0.0
C786 C 0.63856 0.53039 0.79716 0.0
C787 C 0.64524 0.60241 0.78839 0.0
C788 C 0.64791 0.60808 0.76777 0.0
C789 C 0.64349 0.54155 0.75619 0.0
C790 C 0.63659 0.47108 0.76446 0.0
C791 C 0.63138 0.41063 0.74853 0.0
C792 C 0.64538 0.33685 0.75026 0.0
C793 C 0.60829 0.38786 0.74929 0.0
C794 C 0.63636 0.4583 0.73003 0.0
C795 C 0.64367 0.53311 0.73482 0.0
C796 C 0.64952 0.58773 0.72031 0.0
C797 C 0.64764 0.56557 0.70032 0.0
C798 C 0.63962 0.49007 0.69507 0.0
C799 C 0.63399 0.43577 0.71014 0.0
H800 H 0.09689 0.04502 0.94324 0.0
H801 H 0.15437 0.17354 0.93335 0.0
H802 H 0.16338 0.15863 0.96869 0.0
H803 H 0.08675 0.13344 0.9922 0.0
H804 H 0.07585 0.04338 0.0023 0.0
H805 H 0.07369 0.06398 0.97606 0.0
H806 H 0.09102 0.92844 0.9682 0.0
H807 H 0.09344 0.90782 0.99441 0.0
H808 H 0.11608 0.90578 0.97869 0.0
H809 H 0.16788 0.12056 0.00365 0.0
H810 H 0.16518 0.07957 0.03873 0.0
H811 H 0.10345 0.98664 0.0277 0.0
C812 C 0.11125 0.07052 0.94863 0.0
C813 C 0.12495 0.11034 0.93562 0.0
C814 C 0.14358 0.14339 0.94312 0.0
C815 C 0.14892 0.13479 0.96312 0.0
C816 C 0.13528 0.09432 0.9755 0.0
C817 C 0.11663 0.06423 0.96876 0.0
C818 C 0.10462 0.02556 0.98557 0.0
C819 C 0.08401 0.06922 0.98925 0.0
C820 C 0.10109 0.93662 0.98146 0.0
C821 C 0.11965 0.03781 0.00265 0.0
C822 C 0.13736 0.07644 -0.00368 0.0
C823 C 0.154 0.09122 0.00893 0.0
C824 C 0.15238 0.06719 0.02874 0.0
C825 C 0.1341 0.03029 0.03579 0.0
C826 C 0.11751 0.01532 0.02261 0.0
H827 H 0.87593 0.8314 0.95528 0.0
H828 H 0.86497 0.07933 0.94073 0.0
H829 H 0.86148 0.11097 0.97646 0.0
H830 H 0.84163 0.81692 -0.00311 0.0
H831 H 0.85878 0.75562 0.01154 0.0
H832 H 0.85986 0.75154 0.98478 0.0
H833 H 0.89908 0.78516 0.98575 0.0
H834 H 0.89814 0.78879 0.01252 0.0
H835 H 0.90766 0.87307 -0.0013 0.0
H836 H 0.85681 0.11388 0.01319 0.0
H837 H 0.8564 0.09184 0.0496 0.0
H838 H 0.8741 0.84556 0.04056 0.0
C839 C 0.87283 0.8922 0.95972 0.0
C840 C 0.87059 0.95302 0.94547 0.0
C841 C 0.86681 0.03221 0.9516 0.0
C842 C 0.86468 0.05062 0.97177 0.0
C843 C 0.86683 0.98931 0.98552 0.0
C844 C 0.87126 0.91206 0.97985 0.0
C845 C 0.87387 0.85835 -0.00227 0.0
C846 C 0.85756 0.79168 -0.00227 0.0
C847 C 0.89601 0.82437 -0.00127 0.0
C848 C 0.86996 0.91738 0.01429 0.0
C849 C 0.86557 -0.00776 0.00689 0.0
C850 C 0.86048 0.05586 0.01923 0.0
C851 C 0.86017 0.0428 0.03978 0.0
C852 C 0.86537 0.96736 0.04761 0.0
C853 C 0.87031 0.90394 0.03477 0.0
H854 H 0.11798 0.83164 0.44582 0.0
H855 H 0.10552 0.08097 0.43456 0.0
H856 H 0.09583 0.0997 0.46983 0.0
H857 H 0.0781 0.79915 0.48534 0.0
H858 H 0.09525 0.737 0.49976 0.0
H859 H 0.09745 0.73934 0.47302 0.0
H860 H 0.13626 0.77727 0.47617 0.0
H861 H 0.13417 0.7752 0.50285 0.0
H862 H 0.14342 0.86356 0.49054 0.0
H863 H 0.09053 0.09458 0.50622 0.0
H864 H 0.09293 0.06995 0.54221 0.0
H865 H 0.11125 0.82546 0.53064 0.0
C866 C 0.11261 0.88943 0.45077 0.0
C867 C 0.11209 0.95473 0.43763 0.0
C868 C 0.10579 0.03036 0.44454 0.0
C869 C 0.10015 0.04134 0.46445 0.0
C870 C 0.10119 0.97619 0.47722 0.0
C871 C 0.10742 0.90181 0.47074 0.0
C872 C 0.10984 0.84465 0.48802 0.0
C873 C 0.09423 0.77597 0.48644 0.0
C874 C 0.13225 0.81339 0.48948 0.0
C875 C 0.10461 0.89923 0.50523 0.0
C876 C 0.09915 0.97418 0.49859 0.0
C877 C 0.09457 0.03595 0.51164 0.0
C878 C 0.09601 0.02128 0.53207 0.0
C879 C 0.10234 0.94577 0.53927 0.0
C880 C 0.10631 0.88368 0.52561 0.0
H881 H 0.87055 0.09342 0.53858 0.0
H882 H 0.87684 0.83997 0.5489 0.0
H883 H 0.88236 0.81849 0.51279 0.0
H884 H 0.84373 0.08548 0.49327 0.0
H885 H 0.85717 0.16806 0.48208 0.0
H886 H 0.85441 0.16304 0.50869 0.0
H887 H 0.89431 0.17368 0.51276 0.0
H888 H 0.8972 0.17872 0.48612 0.0
H889 H 0.91088 0.10363 0.5001 0.0
H890 H 0.88296 0.82423 0.47556 0.0
H891 H 0.88233 0.85794 0.43966 0.0
H892 H 0.8796 0.10873 0.45429 0.0
C893 C 0.87318 0.03355 0.53316 0.0
C894 C 0.87308 0.96807 0.5462 0.0
C895 C 0.87686 0.89057 0.53891 0.0
C896 C 0.88 0.87795 0.51853 0.0
C897 C 0.87986 0.94387 0.50596 0.0
C898 C 0.87694 0.02027 0.51303 0.0
C899 C 0.87759 0.08092 0.49646 0.0
C900 C 0.857 0.12704 0.49505 0.0
C901 C 0.8961 0.13756 0.49901 0.0
C902 C 0.8806 0.02644 0.47884 0.0
C903 C 0.88176 0.94755 0.48462 0.0
C904 C 0.88259 0.88577 0.47084 0.0
C905 C 0.88215 0.90529 0.4506 0.0
C906 C 0.8813 0.98571 0.44453 0.0
C907 C 0.88081 0.04697 0.45875 0.0
H908 H 0.65069 0.57514 0.04259 0.0
H909 H 0.58552 0.62507 0.05314 0.0
H910 H 0.57819 0.60525 0.01747 0.0
H911 H 0.65335 0.67742 0.99516 0.0
H912 H 0.67116 0.60662 0.98449 0.0
H913 H 0.67124 0.62416 0.01093 0.0
H914 H 0.66572 0.47349 0.01715 0.0
H915 H 0.66543 0.4556 0.99073 0.0
H916 H 0.64389 0.42404 0.00586 0.0
H917 H 0.57757 0.57335 0.98125 0.0
H918 H 0.58432 0.54655 0.94574 0.0
H919 H 0.65015 0.52481 0.95834 0.0
C920 C 0.6349 0.58213 0.03736 0.0
C921 C 0.61866 0.60136 0.0506 0.0
C922 C 0.59822 0.61075 0.04322 0.0
C923 C 0.59387 0.59916 0.02302 0.0
C924 C 0.61018 0.57928 0.01041 0.0
C925 C 0.63033 0.57209 0.01719 0.0
C926 C 0.64508 0.55259 0.00037 0.0
C927 C 0.66115 0.61918 -0.00243 0.0
C928 C 0.65565 0.47161 0.00374 0.0
C929 C 0.63001 0.54938 0.98312 0.0
C930 C 0.60994 0.56402 0.98929 0.0
C931 C 0.59324 0.56238 0.97617 0.0
C932 C 0.59722 0.54668 0.95607 0.0
C933 C 0.61776 0.53394 0.94933 0.0
C934 C 0.63431 0.53488 0.96308 0.0
H935 H 0.38818 0.35145 0.95757 0.0
H936 H 0.38665 0.60122 0.9413 0.0
H937 H 0.38707 0.6382 0.97683 0.0
H938 H 0.35523 0.36154 -0.00212 0.0
H939 H 0.36913 0.29203 0.01338 0.0
H940 H 0.37101 0.28494 0.98674 0.0
H941 H 0.41104 0.29518 0.98893 0.0
H942 H 0.40931 0.30165 0.01566 0.0
H943 H 0.42265 0.37792 0.00184 0.0
H944 H 0.38174 0.64703 0.0135 0.0
H945 H 0.37537 0.62743 0.0495 0.0
H946 H 0.38366 0.37327 0.04234 0.0
C947 C 0.38836 0.41391 0.96152 0.0
C948 C 0.38734 0.47353 0.94676 0.0
C949 C 0.38758 0.55465 0.95241 0.0
C950 C 0.38778 0.57623 0.97253 0.0
C951 C 0.38825 0.51597 0.98674 0.0
C952 C 0.38902 0.4365 0.98152 0.0
C953 C 0.38872 0.38343 -0.00027 0.0
C954 C 0.3699 0.32721 -0.0006 0.0
C955 C 0.40915 0.3368 0.00165 0.0
C956 C 0.38674 0.44538 0.01594 0.0
C957 C 0.38646 0.52149 0.00812 0.0
C958 C 0.38254 0.58802 0.0199 0.0
C959 C 0.37884 0.57642 0.04022 0.0
C960 C 0.37945 0.49917 0.0485 0.0
C961 C 0.38371 0.43303 0.03631 0.0
H962 H 0.6186 0.26635 0.45506 0.0
H963 H 0.61672 0.51094 0.43465 0.0
H964 H 0.61338 0.55734 0.46938 0.0
H965 H 0.58337 0.28723 0.49742 0.0
H966 H 0.5985 0.22279 0.51323 0.0
H967 H 0.59855 0.20804 0.48667 0.0
H968 H 0.63864 0.219 0.48631 0.0
H969 H 0.63871 0.23378 0.51284 0.0
H970 H 0.65085 0.30585 0.49678 0.0
H971 H 0.61057 0.57729 0.50603 0.0
H972 H 0.61213 0.57078 0.54273 0.0
H973 H 0.61894 0.31419 0.53958 0.0
C974 C 0.61717 0.32947 0.45799 0.0
C975 C 0.61767 0.38528 0.44235 0.0
C976 C 0.6163 0.46755 0.44657 0.0
C977 C 0.6143 0.49435 0.46618 0.0
C978 C 0.61404 0.43804 0.48136 0.0
C979 C 0.6157 0.35741 0.47756 0.0
C980 C 0.61684 0.31013 0.49671 0.0
C981 C 0.5982 0.25372 0.49861 0.0
C982 C 0.63749 0.26453 0.49824 0.0
C983 C 0.6157 0.37685 0.51181 0.0
C984 C 0.61367 0.44997 0.50262 0.0
C985 C 0.61218 0.52044 0.51343 0.0
C986 C 0.61303 0.51615 0.53423 0.0
C987 C 0.61577 0.4421 0.5439 0.0
C988 C 0.617 0.37165 0.53252 0.0
H989 H 0.39584 0.53127 0.54797 0.0
H990 H 0.34699 0.70881 0.55253 0.0
H991 H 0.34153 0.70199 0.51644 0.0
H992 H 0.41635 0.60434 0.49996 0.0
H993 H 0.42214 0.50572 0.49101 0.0
H994 H 0.42308 0.52662 0.5173 0.0
H995 H 0.39709 0.41214 0.52378 0.0
H996 H 0.39591 0.39139 0.49752 0.0
H997 H 0.37243 0.41229 0.51111 0.0
H998 H 0.33833 0.6665 0.48127 0.0
H999 H 0.34083 0.61643 0.44688 0.0
H1000 H 0.39355 0.47006 0.46343 0.0
C1001 C 0.3842 0.56937 0.5413 0.0
C1002 C 0.37183 0.62044 0.55307 0.0
C1003 C 0.35676 0.66955 0.54383 0.0
C1004 C 0.35345 0.66596 0.52334 0.0
C1005 C 0.36558 0.61405 0.51223 0.0
C1006 C 0.38094 0.56773 0.5207 0.0
C1007 C 0.39168 0.51706 0.5051 0.0
C1008 C 0.41468 0.53983 0.50323 0.0
C1009 C 0.38911 0.42795 0.50966 0.0
C1010 C 0.37955 0.54099 0.48671 0.0
C1011 C 0.36446 0.59648 0.49133 0.0
C1012 C 0.3503 0.62415 0.47733 0.0
C1013 C 0.35173 0.59503 0.45795 0.0
C1014 C 0.3674 0.54 0.45273 0.0
C1015 C 0.38159 0.51282 0.46718 0.0
H1016 H 0.9574 0.96065 0.09665 0.0
H1017 H 0.94734 0.96034 0.16046 0.0
H1018 H 0.98525 0.95807 0.16603 0.0
H1019 H 0.00306 0.83534 0.09567 0.0
H1020 H 0.01573 0.89246 0.07651 0.0
H1021 H 0.98783 0.88868 0.07753 0.0
H1022 H 0.98631 0.04266 0.07894 0.0
H1023 H 0.01419 0.04691 0.07791 0.0
H1024 H 0.00052 0.09455 0.09805 0.0
H1025 H 0.02402 0.95238 0.1646 0.0
H1026 H 0.06136 0.95889 0.15637 0.0
H1027 H 0.0461 0.97538 0.09361 0.0
C1028 C 0.96325 0.95938 0.11176 0.0
C1029 C 0.94961 0.95987 0.12815 0.0
C1030 C 0.95766 0.95992 0.14775 0.0
C1031 C 0.9791 0.95825 0.15104 0.0
C1032 C 0.99219 0.95801 0.13457 0.0
C1033 C 0.98461 0.95977 0.11532 0.0
C1034 C 0.00203 0.96446 0.10028 0.0
C1035 C 0.00216 0.89084 0.0867 0.0
C1036 C 0.00068 0.04175 0.08808 0.0
C1037 C 0.02057 0.96494 0.11409 0.0
C1038 C 0.01456 0.95977 0.13378 0.0
C1039 C 0.02894 0.957 0.14925 0.0
C1040 C 0.05005 0.96046 0.14445 0.0
C1041 C 0.05648 0.96822 0.12441 0.0
C1042 C 0.04154 0.97036 0.10907 0.0
H1043 H 0.96123 0.00207 0.38587 0.0
H1044 H 0.94855 0.07841 0.32539 0.0
H1045 H 0.9857 0.06388 0.31709 0.0
H1046 H 0.01159 0.09427 0.39125 0.0
H1047 H 0.02238 0.01211 0.40506 0.0
H1048 H 0.99502 0.03306 0.40646 0.0
H1049 H 0.98699 0.88864 0.3954 0.0
H1050 H 0.01433 0.86747 0.39378 0.0
H1051 H -0.00216 0.85153 0.37249 0.0
H1052 H 0.02402 0.04355 0.31559 0.0
H1053 H 0.06118 0.01322 0.32057 0.0
H1054 H 0.0484 0.93987 0.38125 0.0
C1055 C 0.96637 0.01679 0.37098 0.0
C1056 C 0.95219 0.04221 0.35629 0.0
C1057 C 0.95928 0.05914 0.33682 0.0
C1058 C 0.9803 0.05109 0.33199 0.0
C1059 C 0.99386 0.02483 0.34673 0.0
C1060 C 0.9872 0.00742 0.36579 0.0
C1061 C 0.00482 0.97686 0.37858 0.0
C1062 C 0.00868 0.03241 0.39639 0.0
C1063 C 0.00074 0.89103 0.38546 0.0
C1064 C 0.02244 0.98041 0.36377 0.0
C1065 C 0.01581 0.00891 0.34555 0.0
C1066 C 0.0294 0.02054 0.32973 0.0
C1067 C 0.05041 0.00322 0.33269 0.0
C1068 C 0.05749 0.97347 0.3512 0.0
C1069 C 0.04328 0.96115 0.36684 0.0
H1070 H 0.03764 0.06437 0.88202 0.0
H1071 H 0.04845 0.04057 0.81856 0.0
H1072 H 0.01202 -0.00068 0.8138 0.0
H1073 H 0.00335 0.90024 0.88794 0.0
H1074 H 0.98648 0.94996 0.90534 0.0
H1075 H 0.01343 0.97727 0.90389 0.0
H1076 H 0.00316 0.12408 0.89734 0.0
H1077 H 0.97618 0.09739 0.89899 0.0
H1078 H 0.98578 0.14725 0.87712 0.0
H1079 H 0.97534 0.9522 0.81629 0.0
H1080 H 0.93905 0.92125 0.82503 0.0
H1081 H 0.95132 0.98585 0.88644 0.0
C1082 C 0.03226 0.05084 0.86713 0.0
C1083 C 0.04578 0.05522 0.85065 0.0
C1084 C 0.03825 0.03793 0.83134 0.0
C1085 C 0.01766 0.01395 0.82852 0.0
C1086 C 0.0048 0.00903 0.84511 0.0
C1087 C 0.01166 0.02855 0.86398 0.0
C1088 C 0.99443 0.02124 0.87916 0.0
C1089 C -0.00025 0.95843 0.89502 0.0
C1090 C 0.9896 0.10232 0.88871 0.0
C1091 C 0.97688 -0.00624 0.8659 0.0
C1092 C 0.98329 0.98592 0.84637 0.0
C1093 C 0.97005 0.95884 0.83148 0.0
C1094 C 0.94954 0.9409 0.83661 0.0
C1095 C 0.94244 0.95148 0.85638 0.0
C1096 C 0.95635 0.97778 0.8712 0.0
H1097 H 0.94765 -0.00548 0.60264 0.0
H1098 H 0.93665 0.0382 0.66532 0.0
H1099 H 0.97432 0.02391 0.67204 0.0
H1100 H 0.98772 0.85163 0.60733 0.0
H1101 H 0.00271 0.88892 0.58672 0.0
H1102 H 0.975 0.90194 0.587 0.0
H1103 H 0.97951 0.05433 0.58295 0.0
H1104 H 0.00725 0.04171 0.58247 0.0
H1105 H 0.99556 0.10794 0.60034 0.0
H1106 H 0.01276 -0.00668 0.67192 0.0
H1107 H 0.04991 0.96934 0.6644 0.0
H1108 H 0.03561 0.96015 0.6014 0.0
C1109 C 0.95326 0.00136 0.61775 0.0
C1110 C 0.9395 0.01673 0.63354 0.0
C1111 C 0.94717 0.02652 0.6531 0.0
C1112 C 0.96843 0.01812 0.65703 0.0
C1113 C 0.98164 0.00189 0.64112 0.0
C1114 C 0.9744 -0.00453 0.62182 0.0
C1115 C 0.99183 0.98118 0.60724 0.0
C1116 C 0.98915 0.90115 0.59645 0.0
C1117 C 0.99364 0.05043 0.59238 0.0
C1118 C 0.01002 0.97913 0.62139 0.0
C1119 C 0.00383 0.98993 0.64091 0.0
C1120 C 0.01784 0.98602 0.65669 0.0
C1121 C 0.0388 0.97196 0.65232 0.0
C1122 C 0.0454 0.96381 0.63236 0.0
C1123 C 0.03086 0.96736 0.61676 0.0
H1124 H 0.45308 0.42558 0.12655 0.0
H1125 H 0.4332 0.66274 0.14378 0.0
H1126 H 0.46963 0.70571 0.14543 0.0
H1127 H 0.49937 0.42148 0.1586 0.0
H1128 H 0.51451 0.36696 0.14064 0.0
H1129 H 0.48681 0.35356 0.14171 0.0
H1130 H 0.48405 0.38983 0.10431 0.0
H1131 H 0.51169 0.40393 0.10316 0.0
H1132 H 0.49449 0.48309 0.09568 0.0
H1133 H 0.50766 0.72701 0.14185 0.0
H1134 H 0.54561 0.72103 0.13684 0.0
H1135 H 0.54116 0.46852 0.12422 0.0
C1136 C 0.45642 0.48624 0.1309 0.0
C1137 C 0.44031 0.54078 0.135 0.0
C1138 C 0.44529 0.61969 0.14068 0.0
C1139 C 0.46593 0.64485 0.1416 0.0
C1140 C 0.48142 0.59008 0.13713 0.0
C1141 C 0.47699 0.51209 0.13223 0.0
C1142 C 0.49661 0.46553 0.12798 0.0
C1143 C 0.49949 0.39789 0.14314 0.0
C1144 C 0.4967 0.43376 0.10651 0.0
C1145 C 0.51268 0.53008 0.13084 0.0
C1146 C 0.50356 0.60158 0.13597 0.0
C1147 C 0.51506 0.6711 0.13817 0.0
C1148 C 0.53653 0.66727 0.13519 0.0
C1149 C 0.54622 0.59423 0.13035 0.0
C1150 C 0.53413 0.52481 0.12825 0.0
H1151 H 0.45092 0.44856 0.39442 0.0
H1152 H 0.43402 0.40296 0.33292 0.0
H1153 H 0.4696 0.35634 0.32609 0.0
H1154 H 0.50223 0.51886 0.38534 0.0
H1155 H 0.5133 0.47144 0.40694 0.0
H1156 H 0.48644 0.50062 0.40699 0.0
H1157 H 0.47591 0.356 0.41569 0.0
H1158 H 0.50276 0.32619 0.41546 0.0
H1159 H 0.48426 0.27556 0.39986 0.0
H1160 H 0.50708 0.32323 0.32532 0.0
H1161 H 0.54459 0.30295 0.33088 0.0
H1162 H 0.53686 0.36013 0.39335 0.0
C1163 C 0.45477 0.42914 0.37951 0.0
C1164 C 0.43982 0.42975 0.36415 0.0
C1165 C 0.44529 0.40289 0.34488 0.0
C1166 C 0.46541 0.37618 0.34087 0.0
C1167 C 0.47973 0.37557 0.35637 0.0
C1168 C 0.4747 0.40091 0.37532 0.0
C1169 C 0.49309 0.39418 0.38926 0.0
C1170 C 0.49912 0.47615 0.39761 0.0
C1171 C 0.48874 0.33441 0.40606 0.0
C1172 C 0.50936 0.36276 0.37504 0.0
C1173 C 0.50127 0.35254 0.35614 0.0
C1174 C 0.51354 0.32965 0.3401 0.0
C1175 C 0.53476 0.31829 0.34338 0.0
C1176 C 0.54333 0.32872 0.36257 0.0
C1177 C 0.53045 0.34972 0.37867 0.0
H1178 H 0.45507 0.45096 0.88624 0.0
H1179 H 0.4437 0.42058 0.82313 0.0
H1180 H 0.48108 0.4433 0.8163 0.0
H1181 H 0.49263 0.60292 0.88321 0.0
H1182 H 0.50842 0.5646 0.90318 0.0
H1183 H 0.48096 0.54554 0.9029 0.0
H1184 H 0.48784 0.39369 0.90478 0.0
H1185 H 0.51533 0.41232 0.90535 0.0
H1186 H 0.50456 0.34764 0.88662 0.0
H1187 H 0.5195 0.48082 0.81668 0.0
H1188 H 0.55644 0.5086 0.82456 0.0
H1189 H 0.54211 0.50229 0.88754 0.0
C1190 C 0.46051 0.44857 0.871 0.0
C1191 C 0.44669 0.43462 0.85516 0.0
C1192 C 0.45423 0.43093 0.83542 0.0
C1193 C 0.47533 0.44427 0.83143 0.0
C1194 C 0.48856 0.45946 0.84742 0.0
C1195 C 0.48147 0.45978 0.86684 0.0
C1196 C 0.49878 0.47468 0.88149 0.0
C1197 C 0.49496 0.5515 0.89339 0.0
C1198 C 0.50181 0.40279 0.89537 0.0
C1199 C 0.51675 0.48384 0.86732 0.0
C1200 C 0.51059 0.47617 0.8477 0.0
C1201 C 0.52453 0.48589 0.832 0.0
C1202 C 0.54537 0.50217 0.83656 0.0
C1203 C 0.55194 0.50684 0.85661 0.0
C1204 C 0.53742 0.49806 0.87209 0.0
H1205 H 0.45271 0.56789 0.60809 0.0
H1206 H 0.44288 0.56651 0.67198 0.0
H1207 H 0.47997 0.53586 0.67721 0.0
H1208 H 0.48922 0.40992 0.60578 0.0
H1209 H 0.50513 0.45564 0.58695 0.0
H1210 H 0.47785 0.47811 0.58815 0.0
H1211 H 0.48612 0.62857 0.59081 0.0
H1212 H 0.51343 0.60664 0.58946 0.0
H1213 H 0.50334 0.6631 0.6101 0.0
H1214 H 0.51721 0.49577 0.67535 0.0
H1215 H 0.5536 0.46529 0.6668 0.0
H1216 H 0.53979 0.50279 0.60427 0.0
C1217 C 0.45842 0.56148 0.62317 0.0
C1218 C 0.44503 0.5691 0.63965 0.0
C1219 C 0.45299 0.56119 0.65918 0.0
C1220 C 0.47396 0.54341 0.66229 0.0
C1221 C 0.48672 0.53522 0.64571 0.0
C1222 C 0.47938 0.54541 0.62655 0.0
C1223 C 0.49649 0.53541 0.61136 0.0
C1224 C 0.49189 0.46561 0.59723 0.0
C1225 C 0.50005 0.61306 0.59975 0.0
C1226 C 0.51455 0.51686 0.62497 0.0
C1227 C 0.5085 0.51611 0.6447 0.0
C1228 C 0.52221 0.49707 0.65998 0.0
C1229 C 0.54277 0.47938 0.65497 0.0
C1230 C 0.54941 0.48217 0.63491 0.0
C1231 C 0.5351 0.50109 0.61974 0.0
H1232 H 0.14088 0.67759 0.13321 0.0
H1233 H 0.14303 0.71986 0.06961 0.0
H1234 H 0.1364 0.57664 0.0635 0.0
H1235 H 0.16708 0.48328 0.13141 0.0
H1236 H 0.15172 0.44425 0.15157 0.0
H1237 H 0.15739 0.549 0.15046 0.0
H1238 H 0.118 0.57957 0.15215 0.0
H1239 H 0.11218 0.4749 0.15272 0.0
H1240 H 0.10089 0.53728 0.13376 0.0
H1241 H 0.12597 0.432 0.06471 0.0
H1242 H 0.11954 0.29076 0.07273 0.0
H1243 H 0.12666 0.34287 0.13561 0.0
C1244 C 0.14035 0.65618 0.11801 0.0
C1245 C 0.14245 0.70891 0.10184 0.0
C1246 C 0.14168 0.67963 0.08214 0.0
C1247 C 0.13771 0.59882 0.07856 0.0
C1248 C 0.13499 0.54866 0.09489 0.0
C1249 C 0.13687 0.57581 0.11422 0.0
C1250 C 0.13381 0.50962 0.12916 0.0
C1251 C 0.15368 0.49571 0.14136 0.0
C1252 C 0.11511 0.52639 0.14274 0.0
C1253 C 0.12953 0.44105 0.11524 0.0
C1254 C 0.12996 0.46496 0.09556 0.0
C1255 C 0.12583 0.41239 0.08005 0.0
C1256 C 0.12197 0.33257 0.08477 0.0
C1257 C 0.12261 0.30622 0.10479 0.0
C1258 C 0.12609 0.36154 0.12019 0.0
H1259 H 0.84777 0.27878 0.13824 0.0
H1260 H 0.8823 0.22393 0.08469 0.0
H1261 H 0.88969 0.36689 0.07978 0.0
H1262 H 0.82621 0.47384 0.12091 0.0
H1263 H 0.82894 0.51773 0.14524 0.0
H1264 H 0.82399 0.41271 0.14285 0.0
H1265 H 0.85672 0.38339 0.16404 0.0
H1266 H 0.86208 0.4881 0.16607 0.0
H1267 H 0.88147 0.4218 0.15614 0.0
H1268 H 0.89647 0.51106 0.08268 0.0
H1269 H 0.89949 0.65287 0.09116 0.0
H1270 H 0.86085 0.61525 0.14331 0.0
C1271 C 0.85615 0.29776 0.12511 0.0
C1272 C 0.86409 0.24186 0.1115 0.0
C1273 C 0.87577 0.26709 0.09491 0.0
C1274 C 0.88012 0.34773 0.09211 0.0
C1275 C 0.8727 0.40162 0.10613 0.0
C1276 C 0.86071 0.37816 0.12215 0.0
C1277 C 0.85582 0.44776 0.13566 0.0
C1278 C 0.83235 0.46397 0.13619 0.0
C1279 C 0.86455 0.43441 0.15672 0.0
C1280 C 0.86732 0.51343 0.12495 0.0
C1281 C 0.87689 0.4854 0.10795 0.0
C1282 C 0.88884 0.53412 0.09581 0.0
C1283 C 0.89055 0.61449 0.10085 0.0
C1284 C 0.88037 0.64526 0.11789 0.0
C1285 C 0.86888 0.59355 0.13024 0.0
H1286 H 0.13677 0.27172 0.39041 0.0
H1287 H 0.15916 0.22378 0.33079 0.0
H1288 H 0.15882 0.36743 0.32328 0.0
H1289 H 0.10115 0.41639 0.37659 0.0
H1290 H 0.10475 0.48057 0.39779 0.0
H1291 H 0.10974 0.37555 0.40001 0.0
H1292 H 0.14719 0.40332 0.41213 0.0
H1293 H 0.14213 0.50856 0.41052 0.0
H1294 H 0.1639 0.46607 0.39746 0.0
H1295 H 0.15311 0.51092 0.32108 0.0
H1296 H 0.14523 0.65328 0.32511 0.0
H1297 H 0.12481 0.61011 0.38572 0.0
C1298 C 0.14234 0.2923 0.3761 0.0
C1299 C 0.1484 0.23811 0.36123 0.0
C1300 C 0.15482 0.26553 0.34236 0.0
C1301 C 0.15457 0.34657 0.33796 0.0
C1302 C 0.14766 0.39864 0.3526 0.0
C1303 C 0.14188 0.3732 0.37137 0.0
C1304 C 0.13368 0.44152 0.38378 0.0
C1305 C 0.11098 0.42763 0.38989 0.0
C1306 C 0.14756 0.45572 0.40205 0.0
C1307 C 0.13546 0.50875 0.36891 0.0
C1308 C 0.14365 0.48237 0.35109 0.0
C1309 C 0.14683 0.53269 0.33498 0.0
C1310 C 0.1422 0.6131 0.33738 0.0
C1311 C 0.13435 0.64198 0.35567 0.0
C1312 C 0.1305 0.589 0.3715 0.0
H1313 H 0.85323 0.37547 0.3787 0.0
H1314 H 0.91975 0.33695 0.37886 0.0
H1315 H 0.92537 0.48235 0.37631 0.0
H1316 H 0.85148 0.52766 0.34401 0.0
H1317 H 0.83157 0.58488 0.35626 0.0
H1318 H 0.83273 0.47884 0.3597 0.0
H1319 H 0.83481 0.49726 0.39795 0.0
H1320 H 0.83326 0.60347 0.39468 0.0
H1321 H 0.85457 0.5606 0.40838 0.0
H1322 H 0.92337 0.62802 0.36944 0.0
H1323 H 0.91432 0.76893 0.36402 0.0
H1324 H 0.84902 0.71233 0.3707 0.0
C1325 C 0.86896 0.398 0.37854 0.0
C1326 C 0.8861 0.3461 0.37886 0.0
C1327 C 0.9065 0.37665 0.37874 0.0
C1328 C 0.9098 0.4587 0.3772 0.0
C1329 C 0.8925 0.50837 0.37628 0.0
C1330 C 0.8725 0.47941 0.37745 0.0
C1331 C 0.85658 0.54516 0.37601 0.0
C1332 C 0.84226 0.53339 0.35791 0.0
C1333 C 0.84407 0.55203 0.39541 0.0
C1334 C 0.87075 0.61555 0.37319 0.0
C1335 C 0.89139 0.59296 0.37325 0.0
C1336 C 0.90731 0.64678 0.36971 0.0
C1337 C 0.90199 0.72631 0.36645 0.0
C1338 C 0.88098 0.75094 0.36701 0.0
C1339 C 0.86519 0.69486 0.37037 0.0
H1340 H 0.8716 0.24734 0.8966 0.0
H1341 H 0.83138 0.20791 0.8458 0.0
H1342 H 0.8325 0.35147 0.83793 0.0
H1343 H 0.8484 0.44183 0.91046 0.0
H1344 H 0.87303 0.48122 0.91842 0.0
H1345 H 0.86791 0.37625 0.92053 0.0
H1346 H 0.90108 0.34694 0.90001 0.0
H1347 H 0.90602 0.45178 0.89738 0.0
H1348 H 0.90386 0.38994 0.87557 0.0
H1349 H 0.84185 0.49404 0.83312 0.0
H1350 H 0.85256 0.63457 0.83559 0.0
H1351 H 0.88413 0.58394 0.89122 0.0
C1352 C 0.86265 0.26953 0.88412 0.0
C1353 C 0.85136 0.21739 0.87179 0.0
C1354 C 0.83987 0.24762 0.85552 0.0
C1355 C 0.84059 0.32868 0.85084 0.0
C1356 C 0.85248 0.37828 0.86288 0.0
C1357 C 0.86277 0.35048 0.87955 0.0
C1358 C 0.8742 0.41663 0.89013 0.0
C1359 C 0.86535 0.42977 0.91113 0.0
C1360 C 0.89768 0.4003 0.8908 0.0
C1361 C 0.86918 0.48557 0.87651 0.0
C1362 C 0.85691 0.4618 0.86072 0.0
C1363 C 0.85116 0.5138 0.84557 0.0
C1364 C 0.85753 0.59307 0.84697 0.0
C1365 C 0.86916 0.61944 0.86357 0.0
C1366 C 0.87521 0.56492 0.87841 0.0
H1367 H 0.10532 0.43138 0.87914 0.0
H1368 H 0.1161 0.39191 0.8162 0.0
H1369 H 0.1201 0.53676 0.81118 0.0
H1370 H 0.07603 0.62231 0.87261 0.0
H1371 H 0.08693 0.66346 0.89506 0.0
H1372 H 0.08272 0.55781 0.89308 0.0
H1373 H 0.12141 0.53346 0.9016 0.0
H1374 H 0.12589 0.63886 0.90313 0.0
H1375 H 0.1412 0.57882 0.88645 0.0
H1376 H 0.12877 0.68101 0.81423 0.0
H1377 H 0.13488 0.82094 0.82374 0.0
H1378 H 0.11556 0.76845 0.88415 0.0
C1379 C 0.10793 0.45365 0.86422 0.0
C1380 C 0.1104 0.40113 0.84803 0.0
C1381 C 0.11392 0.43167 0.82872 0.0
C1382 C 0.11636 0.5136 0.82577 0.0
C1383 C 0.11469 0.56367 0.84221 0.0
C1384 C 0.10992 0.53522 0.86095 0.0
C1385 C 0.10942 0.60145 0.87619 0.0
C1386 C 0.08746 0.61188 0.88473 0.0
C1387 C 0.12544 0.58725 0.89282 0.0
C1388 C 0.11544 0.67116 0.86324 0.0
C1389 C 0.1186 0.64791 0.84373 0.0
C1390 C 0.12589 0.70039 0.82934 0.0
C1391 C 0.12955 0.7793 0.83492 0.0
C1392 C 0.12561 0.80489 0.85463 0.0
C1393 C 0.11848 0.75018 0.86895 0.0
H1394 H 0.88265 0.68773 0.62977 0.0
H1395 H 0.81883 0.73387 0.61278 0.0
H1396 H 0.81388 0.59071 0.6057 0.0
H1397 H 0.89387 0.53817 0.59411 0.0
H1398 H 0.90898 0.47765 0.61087 0.0
H1399 H 0.90762 0.58365 0.6145 0.0
H1400 H 0.8944 0.56293 0.65059 0.0
H1401 H 0.89609 0.45691 0.64719 0.0
H1402 H 0.87195 0.50148 0.65487 0.0
H1403 H 0.81675 0.44591 0.59849 0.0
H1404 H 0.82503 0.30276 0.59724 0.0
H1405 H 0.88626 0.35068 0.62129 0.0
C1406 C 0.86761 0.66731 0.62469 0.0
C1407 C 0.85111 0.72078 0.62168 0.0
C1408 C 0.83156 0.69289 0.61525 0.0
C1409 C 0.82869 0.61222 0.61103 0.0
C1410 C 0.84546 0.56107 0.61371 0.0
C1411 C 0.86437 0.58707 0.62085 0.0
C1412 C 0.87955 0.51937 0.62335 0.0
C1413 C 0.89863 0.53041 0.6099 0.0
C1414 C 0.88585 0.50959 0.6453 0.0
C1415 C 0.86624 0.45119 0.61635 0.0
C1416 C 0.84678 0.47677 0.6105 0.0
C1417 C 0.83186 0.42489 0.60314 0.0
C1418 C 0.83678 0.34403 0.60234 0.0
C1419 C 0.85627 0.31641 0.6092 0.0
C1420 C 0.87126 0.37068 0.61601 0.0
H1421 H 0.11529 0.25651 0.58988 0.0
H1422 H 0.15229 0.21311 0.64272 0.0
H1423 H 0.14992 0.35571 0.65153 0.0
H1424 H 0.13849 0.45121 0.57858 0.0
H1425 H 0.11435 0.4909 0.56936 0.0
H1426 H 0.11975 0.38615 0.56716 0.0
H1427 H 0.08539 0.35536 0.58563 0.0
H1428 H 0.08015 0.46002 0.58836 0.0
H1429 H 0.08102 0.39681 0.61002 0.0
H1430 H 0.14031 0.49916 0.65625 0.0
H1431 H 0.13052 0.64073 0.6531 0.0
H1432 H 0.10207 0.59177 0.59587 0.0
C1433 C 0.12322 0.27755 0.60308 0.0
C1434 C 0.13398 0.22455 0.61565 0.0
C1435 C 0.14418 0.25347 0.63282 0.0
C1436 C 0.14273 0.33395 0.63804 0.0
C1437 C 0.13137 0.38432 0.62568 0.0
C1438 C 0.12233 0.3578 0.60825 0.0
C1439 C 0.1115 0.42454 0.59729 0.0
C1440 C 0.12163 0.43907 0.5769 0.0
C1441 C 0.08813 0.40816 0.59521 0.0
C1442 C 0.11557 0.49253 0.61146 0.0
C1443 C 0.12673 0.46781 0.6279 0.0
C1444 C 0.13178 0.51952 0.64334 0.0
C1445 C 0.12595 0.59946 0.64152 0.0
C1446 C 0.11556 0.62669 0.62424 0.0
C1447 C 0.11002 0.57225 0.60922 0.0
H1448 H 0.60186 0.92756 0.11714 0.0
H1449 H 0.659 0.88159 0.14928 0.0
H1450 H 0.66911 0.02253 0.14524 0.0
H1451 H 0.6218 0.06639 0.08194 0.0
H1452 H 0.59936 0.13041 0.08249 0.0
H1453 H 0.59663 0.02579 0.08764 0.0
H1454 H 0.57958 0.05752 0.12167 0.0
H1455 H 0.58183 0.16213 0.11641 0.0
H1456 H 0.59281 0.12191 0.13895 0.0
H1457 H 0.67377 0.16709 0.13598 0.0
H1458 H 0.66967 0.3099 0.12791 0.0
H1459 H 0.60851 0.26237 0.10385 0.0
C1460 C 0.6164 0.94746 0.12348 0.0
C1461 C 0.62967 0.89398 0.13351 0.0
C1462 C 0.64853 0.92199 0.14172 0.0
C1463 C 0.6545 0.00162 0.1393 0.0
C1464 C 0.64129 0.05248 0.12891 0.0
C1465 C 0.6224 0.02698 0.12157 0.0
C1466 C 0.61054 0.09447 0.11193 0.0
C1467 C 0.60688 0.07826 0.08968 0.0
C1468 C 0.58998 0.10993 0.1229 0.0
C1469 C 0.62572 0.16193 0.11494 0.0
C1470 C 0.64355 0.13625 0.12439 0.0
C1471 C 0.65984 0.18799 0.12866 0.0
C1472 C 0.65748 0.26874 0.12384 0.0
C1473 C 0.63881 0.2968 0.11522 0.0
C1474 C 0.62297 0.2423 0.11037 0.0
H1475 H 0.34908 0.80579 0.14642 0.0
H1476 H 0.34809 0.7653 0.08272 0.0
H1477 H 0.35418 0.90875 0.07693 0.0
H1478 H 0.3228 0.00454 0.14423 0.0
H1479 H 0.33802 0.04169 0.16471 0.0
H1480 H 0.33157 0.93758 0.16344 0.0
H1481 H 0.37065 0.90289 0.16602 0.0
H1482 H 0.3773 0.00679 0.16666 0.0
H1483 H 0.38847 0.94297 0.14795 0.0
H1484 H 0.36592 0.05094 0.07845 0.0
H1485 H 0.37454 0.19019 0.08664 0.0
H1486 H 0.36506 0.14018 0.14933 0.0
C1487 C 0.34947 0.82782 0.13127 0.0
C1488 C 0.34802 0.77526 0.11498 0.0
C1489 C 0.34882 0.80528 0.09534 0.0
C1490 C 0.3525 0.88632 0.09194 0.0
C1491 C 0.35482 0.93616 0.10837 0.0
C1492 C 0.35261 0.90865 0.12763 0.0
C1493 C 0.35589 0.97447 0.14267 0.0
C1494 C 0.33587 -0.00947 0.15445 0.0
C1495 C 0.37416 0.9556 0.15664 0.0
C1496 C 0.36097 0.04274 0.12888 0.0
C1497 C 0.36054 0.01914 0.10917 0.0
C1498 C 0.36591 0.07056 0.09378 0.0
C1499 C 0.37106 0.14913 0.09861 0.0
C1500 C 0.37046 0.17556 0.11862 0.0
C1501 C 0.36558 0.12137 0.13392 0.0
H1502 H 0.62192 -0.00503 0.39396 0.0
H1503 H 0.59921 0.03858 0.33415 0.0
H1504 H 0.60157 0.89547 0.32667 0.0
H1505 H 0.65917 0.85324 0.38067 0.0
H1506 H 0.65568 0.78917 0.40192 0.0
H1507 H 0.65001 0.89379 0.4039 0.0
H1508 H 0.61258 0.86284 0.41557 0.0
H1509 H 0.61833 0.75808 0.4142 0.0
H1510 H 0.59648 0.79819 0.40078 0.0
H1511 H 0.60892 0.75371 0.32447 0.0
H1512 H 0.61657 0.61144 0.32901 0.0
H1513 H 0.63551 0.65607 0.38999 0.0
C1514 C 0.61676 0.97355 0.37959 0.0
C1515 C 0.61015 0.02676 0.36464 0.0
C1516 C 0.60413 -0.00209 0.34575 0.0
C1517 C 0.60554 0.91712 0.34135 0.0
C1518 C 0.61308 0.86645 0.35601 0.0
C1519 C 0.61827 0.89273 0.37485 0.0
C1520 C 0.62672 0.82527 0.38747 0.0
C1521 C 0.64923 0.84138 0.39386 0.0
C1522 C 0.61269 0.81019 0.40558 0.0
C1523 C 0.62558 0.75749 0.37266 0.0
C1524 C 0.61773 0.78321 0.35461 0.0
C1525 C 0.61497 0.73247 0.33853 0.0
C1526 C 0.61947 0.65214 0.34121 0.0
C1527 C 0.6267 0.62373 0.35978 0.0
C1528 C 0.63035 0.67709 0.37557 0.0
H1529 H 0.37216 0.83916 0.35305 0.0
H1530 H 0.38599 0.7939 0.41519 0.0
H1531 H 0.37996 0.93608 0.42284 0.0
H1532 H 0.39674 0.03777 0.35118 0.0
H1533 H 0.37743 0.07531 0.33418 0.0
H1534 H 0.38431 0.97146 0.33381 0.0
H1535 H 0.34559 0.93521 0.33874 0.0
H1536 H 0.33866 0.03889 0.33976 0.0
H1537 H 0.33182 0.9737 0.36001 0.0
H1538 H 0.36803 0.07965 0.42414 0.0
H1539 H 0.35861 0.22033 0.418 0.0
H1540 H 0.35482 0.17238 0.35469 0.0
C1541 C 0.37448 0.85972 0.36816 0.0
C1542 C 0.37964 0.80595 0.38353 0.0
C1543 C 0.38237 0.83455 0.40317 0.0
C1544 C 0.37872 0.91491 0.40768 0.0
C1545 C 0.37274 0.96574 0.3923 0.0
C1546 C 0.37128 0.93974 0.37283 0.0
C1547 C 0.36475 0.00627 0.359 0.0
C1548 C 0.38183 0.02375 0.34364 0.0
C1549 C 0.34397 0.98734 0.34879 0.0
C1550 C 0.36245 0.0736 0.37376 0.0
C1551 C 0.36677 0.04881 0.39293 0.0
C1552 C 0.36489 0.09999 0.40916 0.0
C1553 C 0.35928 0.17943 0.40556 0.0
C1554 C 0.35598 0.20687 0.38589 0.0
C1555 C 0.35726 0.15282 0.36988 0.0
H1556 H 0.38648 0.73725 0.85554 0.0
H1557 H 0.32644 0.71285 0.88405 0.0
H1558 H 0.3231 0.85921 0.88537 0.0
H1559 H 0.40449 0.89657 0.8827 0.0
H1560 H 0.41708 0.9471 0.86237 0.0
H1561 H 0.41389 0.84088 0.86161 0.0
H1562 H 0.39468 0.85198 0.82784 0.0
H1563 H 0.39804 0.95839 0.82833 0.0
H1564 H 0.37246 0.9166 0.82568 0.0
H1565 H 0.32867 0.00398 0.88816 0.0
H1566 H 0.34078 0.14293 0.8887 0.0
H1567 H 0.39607 0.07562 0.85606 0.0
C1568 C 0.37249 0.76292 0.86176 0.0
C1569 C 0.35674 0.7145 0.86981 0.0
C1570 C 0.33859 0.74943 0.87774 0.0
C1571 C 0.33659 0.83222 0.87857 0.0
C1572 C 0.35267 0.87839 0.87096 0.0
C1573 C 0.37006 0.84523 0.86231 0.0
C1574 C 0.38537 0.90832 0.85583 0.0
C1575 C 0.40644 0.89754 0.86626 0.0
C1576 C 0.38777 0.90885 0.83307 0.0
C1577 C 0.37428 0.98208 0.86305 0.0
C1578 C 0.35543 0.96318 0.87172 0.0
C1579 C 0.34314 0.01986 0.88105 0.0
C1580 C 0.35022 0.09816 0.88144 0.0
C1581 C 0.36926 0.1189 0.8724 0.0
C1582 C 0.38136 0.06067 0.86286 0.0
H1583 H 0.63521 0.19084 0.853 0.0
H1584 H 0.62778 0.24095 0.91591 0.0
H1585 H 0.6266 0.09675 0.92305 0.0
H1586 H 0.59912 0.03228 0.85192 0.0
H1587 H 0.61331 0.97379 0.83403 0.0
H1588 H 0.61565 0.08048 0.83397 0.0
H1589 H 0.65558 0.06855 0.83755 0.0
H1590 H 0.65339 0.96177 0.83737 0.0
H1591 H 0.66632 0.01092 0.85772 0.0
H1592 H 0.62634 0.94898 0.92327 0.0
H1593 H 0.62528 0.80455 0.9164 0.0
H1594 H 0.62953 0.85195 0.85306 0.0
C1595 C 0.63374 0.17107 0.86828 0.0
C1596 C 0.63186 0.22587 0.88399 0.0
C1597 C 0.62935 0.19895 0.90378 0.0
C1598 C 0.62869 0.11758 0.90795 0.0
C1599 C 0.6302 0.06476 0.89208 0.0
C1600 C 0.63253 0.09021 0.87264 0.0
C1601 C 0.6324 0.0213 0.85823 0.0
C1602 C 0.61402 0.02736 0.84369 0.0
C1603 C 0.65316 0.01529 0.84707 0.0
C1604 C 0.62964 0.95321 0.87263 0.0
C1605 C 0.62868 0.97952 0.89209 0.0
C1606 C 0.62692 0.92748 0.90811 0.0
C1607 C 0.62631 0.84598 0.90408 0.0
C1608 C 0.62706 0.81822 0.88423 0.0
C1609 C 0.62853 0.87233 0.86833 0.0
H1610 H 0.38639 0.93561 0.61188 0.0
H1611 H 0.36929 0.89619 0.6735 0.0
H1612 H 0.36479 0.04119 0.67812 0.0
H1613 H 0.41489 0.12583 0.62103 0.0
H1614 H 0.40631 0.1671 0.59767 0.0
H1615 H 0.41026 0.06139 0.60006 0.0
H1616 H 0.37259 0.03768 0.58801 0.0
H1617 H 0.36832 0.14315 0.58603 0.0
H1618 H 0.35138 0.08346 0.60124 0.0
H1619 H 0.35667 0.18569 0.67428 0.0
H1620 H 0.3517 0.32571 0.66426 0.0
H1621 H 0.37678 0.27251 0.60585 0.0
C1622 C 0.38226 0.95792 0.62648 0.0
C1623 C 0.37817 0.9055 0.64237 0.0
C1624 C 0.37269 0.93599 0.66126 0.0
C1625 C 0.36998 0.01796 0.66396 0.0
C1626 C 0.37332 0.06797 0.64773 0.0
C1627 C 0.37994 0.03945 0.62953 0.0
C1628 C 0.382 0.10556 0.61438 0.0
C1629 C 0.40472 0.11557 0.60791 0.0
C1630 C 0.36772 0.09158 0.59636 0.0
C1631 C 0.37474 0.17537 0.6267 0.0
C1632 C 0.36964 0.15225 0.64584 0.0
C1633 C 0.36103 0.20494 0.6595 0.0
C1634 C 0.35804 0.28392 0.6536 0.0
C1635 C 0.36392 0.30934 0.63432 0.0
C1636 C 0.37235 0.2544 0.62072 0.0
H1637 H 0.62097 0.77216 0.59266 0.0
H1638 H 0.65298 0.72585 0.64831 0.0
H1639 H 0.64953 0.86717 0.65756 0.0
H1640 H 0.64546 0.96715 0.58448 0.0
H1641 H 0.62245 0.00862 0.57327 0.0
H1642 H 0.62776 0.9038 0.57107 0.0
H1643 H 0.59163 0.87336 0.58615 0.0
H1644 H 0.58645 0.97808 0.58889 0.0
H1645 H 0.58496 0.91328 0.61022 0.0
H1646 H 0.63944 0.00835 0.66231 0.0
H1647 H 0.63082 0.15083 0.65898 0.0
H1648 H 0.60845 0.10901 0.59897 0.0
C1649 C 0.62757 0.79242 0.60659 0.0
C1650 C 0.63725 0.73887 0.61979 0.0
C1651 C 0.64575 0.76666 0.63792 0.0
C1652 C 0.64364 0.84638 0.64341 0.0
C1653 C 0.63341 0.89734 0.63037 0.0
C1654 C 0.62614 0.87232 0.61206 0.0
C1655 C 0.61665 0.94041 0.60048 0.0
C1656 C 0.62881 0.95592 0.58119 0.0
C1657 C 0.59355 0.92534 0.59619 0.0
C1658 C 0.61947 0.00716 0.61531 0.0
C1659 C 0.62875 0.98049 0.63262 0.0
C1660 C 0.6324 0.03039 0.64876 0.0
C1661 C 0.62724 0.11079 0.64682 0.0
C1662 C 0.619 0.14012 0.62874 0.0
C1663 C 0.61473 0.08754 0.61294 0.0
loop_
_geom_bond_atom_site_label_1
_geom_bond_atom_site_label_2
_geom_bond_distance
_geom_bond_site_symmetry_2
_ccdc_geom_bond_type
O0 Zn1 1.953 . S
O0 C16 1.225 . S
Zn1 O0 1.953 . S
Zn1 O2 1.949 . S
Zn1 O8 1.919 . S
Zn1 O13 1.924 . S
O2 Zn1 1.949 . S
O2 Zn3 1.923 1_545 S
O2 Zn4 1.950 . S
O2 Zn5 1.945 1_545 S
Zn3 O2 1.923 1_565 S
Zn3 O6 1.933 . S
Zn3 O9 1.941 1_565 S
Zn3 O10 1.965 1_565 S
Zn4 O2 1.950 . S
Zn4 O11 1.938 . S
Zn4 O12 1.906 . S
Zn4 O22 1.953 . S
Zn5 O2 1.945 1_565 S
Zn5 O7 1.932 . S
Zn5 O14 1.977 . S
Zn5 O15 1.910 . S
O6 Zn3 1.933 . S
O6 C17 1.226 . S
O7 Zn5 1.932 . S
O7 C17 1.307 . S
O8 Zn1 1.919 . S
O8 C19 1.253 . S
O9 Zn3 1.941 1_545 S
O9 C19 1.283 . S
O10 Zn3 1.965 1_545 S
O10 C18 1.303 . S
O11 Zn4 1.938 . S
O11 C18 1.247 . S
O12 Zn4 1.906 . S
O12 C20 1.304 . S
O13 Zn1 1.924 . S
O13 C21 1.311 . S
O14 Zn5 1.977 . S
O14 C20 1.272 1_565 S
O15 Zn5 1.910 . S
O15 C21 1.231 1_565 S
C16 O0 1.225 . S
C16 O22 1.298 . S
C17 O6 1.226 . S
C17 O7 1.307 . S
C18 O10 1.303 . S
C18 O11 1.247 . S
C19 O8 1.253 . S
C19 O9 1.283 . S
C20 O12 1.304 . S
C20 O14 1.272 1_545 S
C21 O13 1.311 . S
C21 O15 1.231 1_545 S
O22 Zn4 1.953 . S
O22 C16 1.298 . S
O23 Zn24 1.953 . S
O23 C39 1.225 . S
Zn24 O23 1.953 . S
Zn24 O25 1.949 . S
Zn24 O31 1.919 . S
Zn24 O36 1.924 . S
O25 Zn24 1.949 . S
O25 Zn26 1.923 1_565 S
O25 Zn27 1.950 . S
O25 Zn28 1.945 1_565 S
Zn26 O25 1.923 1_545 S
Zn26 O29 1.933 . S
Zn26 O32 1.941 1_545 S
Zn26 O33 1.965 1_545 S
Zn27 O25 1.950 . S
Zn27 O34 1.938 . S
Zn27 O35 1.906 . S
Zn27 O45 1.953 . S
Zn28 O25 1.945 1_545 S
Zn28 O30 1.932 . S
Zn28 O37 1.977 . S
Zn28 O38 1.910 . S
O29 Zn26 1.933 . S
O29 C40 1.226 . S
O30 Zn28 1.932 . S
O30 C40 1.307 . S
O31 Zn24 1.919 . S
O31 C42 1.253 . S
O32 Zn26 1.941 1_565 S
O32 C42 1.283 . S
O33 Zn26 1.965 1_565 S
O33 C41 1.303 . S
O34 Zn27 1.938 . S
O34 C41 1.247 . S
O35 Zn27 1.906 . S
O35 C43 1.304 . S
O36 Zn24 1.924 . S
O36 C44 1.311 . S
O37 Zn28 1.977 . S
O37 C43 1.272 1_545 S
O38 Zn28 1.910 . S
O38 C44 1.231 1_545 S
C39 O23 1.225 . S
C39 O45 1.298 . S
C40 O29 1.226 . S
C40 O30 1.307 . S
C41 O33 1.303 . S
C41 O34 1.247 . S
C42 O31 1.253 . S
C42 O32 1.283 . S
C43 O35 1.304 . S
C43 O37 1.272 1_565 S
C44 O36 1.311 . S
C44 O38 1.231 1_565 S
O45 Zn27 1.953 . S
O45 C39 1.298 . S
O46 Zn47 1.953 . S
O46 C62 1.225 . S
Zn47 O46 1.953 . S
Zn47 O48 1.949 . S
Zn47 O54 1.919 . S
Zn47 O59 1.924 . S
O48 Zn47 1.949 . S
O48 Zn49 1.923 1_565 S
O48 Zn50 1.950 . S
O48 Zn51 1.945 1_565 S
Zn49 O48 1.923 1_545 S
Zn49 O52 1.933 . S
Zn49 O55 1.941 1_545 S
Zn49 O56 1.965 1_545 S
Zn50 O48 1.950 . S
Zn50 O57 1.938 . S
Zn50 O58 1.906 . S
Zn50 O68 1.953 . S
Zn51 O48 1.945 1_545 S
Zn51 O53 1.932 . S
Zn51 O60 1.977 . S
Zn51 O61 1.910 . S
O52 Zn49 1.933 . S
O52 C63 1.226 . S
O53 Zn51 1.932 . S
O53 C63 1.307 . S
O54 Zn47 1.919 . S
O54 C65 1.253 . S
O55 Zn49 1.941 1_565 S
O55 C65 1.283 . S
O56 Zn49 1.965 1_565 S
O56 C64 1.303 . S
O57 Zn50 1.938 . S
O57 C64 1.247 . S
O58 Zn50 1.906 . S
O58 C66 1.304 . S
O59 Zn47 1.924 . S
O59 C67 1.311 . S
O60 Zn51 1.977 . S
O60 C66 1.272 1_545 S
O61 Zn51 1.910 . S
O61 C67 1.231 1_545 S
C62 O46 1.225 . S
C62 O68 1.298 . S
C63 O52 1.226 . S
C63 O53 1.307 . S
C64 O56 1.303 . S
C64 O57 1.247 . S
C65 O54 1.253 . S
C65 O55 1.283 . S
C66 O58 1.304 . S
C66 O60 1.272 1_565 S
C67 O59 1.311 . S
C67 O61 1.231 1_565 S
O68 Zn50 1.953 . S
O68 C62 1.298 . S
O69 Zn70 1.953 . S
O69 C85 1.225 . S
Zn70 O69 1.953 . S
Zn70 O71 1.949 . S
Zn70 O77 1.919 . S
Zn70 O82 1.924 . S
O71 Zn70 1.949 . S
O71 Zn72 1.923 1_545 S
O71 Zn73 1.950 . S
O71 Zn74 1.945 1_545 S
Zn72 O71 1.923 1_565 S
Zn72 O75 1.933 . S
Zn72 O78 1.941 1_565 S
Zn72 O79 1.965 1_565 S
Zn73 O71 1.950 . S
Zn73 O80 1.938 . S
Zn73 O81 1.906 . S
Zn73 O91 1.953 . S
Zn74 O71 1.945 1_565 S
Zn74 O76 1.932 . S
Zn74 O83 1.977 . S
Zn74 O84 1.910 . S
O75 Zn72 1.933 . S
O75 C86 1.226 . S
O76 Zn74 1.932 . S
O76 C86 1.307 . S
O77 Zn70 1.919 . S
O77 C88 1.253 . S
O78 Zn72 1.941 1_545 S
O78 C88 1.283 . S
O79 Zn72 1.965 1_545 S
O79 C87 1.303 . S
O80 Zn73 1.938 . S
O80 C87 1.247 . S
O81 Zn73 1.906 . S
O81 C89 1.304 . S
O82 Zn70 1.924 . S
O82 C90 1.311 . S
O83 Zn74 1.977 . S
O83 C89 1.272 1_565 S
O84 Zn74 1.910 . S
O84 C90 1.231 1_565 S
C85 O69 1.225 . S
C85 O91 1.298 . S
C86 O75 1.226 . S
C86 O76 1.307 . S
C87 O79 1.303 . S
C87 O80 1.247 . S
C88 O77 1.253 . S
C88 O78 1.283 . S
C89 O81 1.304 . S
C89 O83 1.272 1_545 S
C90 O82 1.311 . S
C90 O84 1.231 1_545 S
O91 Zn73 1.953 . S
O91 C85 1.298 . S
O92 Zn93 1.953 . S
O92 C108 1.225 . S
Zn93 O92 1.953 . S
Zn93 O94 1.949 . S
Zn93 O100 1.919 . S
Zn93 O105 1.924 . S
O94 Zn93 1.949 . S
O94 Zn95 1.923 1_565 S
O94 Zn96 1.950 . S
O94 Zn97 1.945 1_565 S
Zn95 O94 1.923 1_545 S
Zn95 O98 1.933 . S
Zn95 O101 1.941 1_545 S
Zn95 O102 1.965 1_545 S
Zn96 O94 1.950 . S
Zn96 O103 1.938 . S
Zn96 O104 1.906 . S
Zn96 O114 1.953 . S
Zn97 O94 1.945 1_545 S
Zn97 O99 1.932 . S
Zn97 O106 1.977 . S
Zn97 O107 1.910 . S
O98 Zn95 1.933 . S
O98 C109 1.226 . S
O99 Zn97 1.932 . S
O99 C109 1.307 . S
O100 Zn93 1.919 . S
O100 C111 1.253 . S
O101 Zn95 1.941 1_565 S
O101 C111 1.283 . S
O102 Zn95 1.965 1_565 S
O102 C110 1.303 . S
O103 Zn96 1.938 . S
O103 C110 1.247 . S
O104 Zn96 1.906 . S
O104 C112 1.304 . S
O105 Zn93 1.924 . S
O105 C113 1.311 . S
O106 Zn97 1.977 . S
O106 C112 1.272 1_545 S
O107 Zn97 1.910 . S
O107 C113 1.231 1_545 S
C108 O92 1.225 . S
C108 O114 1.298 . S
C109 O98 1.226 . S
C109 O99 1.307 . S
C110 O102 1.303 . S
C110 O103 1.247 . S
C111 O100 1.253 . S
C111 O101 1.283 . S
C112 O104 1.304 . S
C112 O106 1.272 1_565 S
C113 O105 1.311 . S
C113 O107 1.231 1_565 S
O114 Zn96 1.953 . S
O114 C108 1.298 . S
O115 Zn116 1.953 . S
O115 C131 1.225 . S
Zn116 O115 1.953 . S
Zn116 O117 1.949 . S
Zn116 O123 1.919 . S
Zn116 O128 1.924 . S
O117 Zn116 1.949 . S
O117 Zn118 1.923 1_545 S
O117 Zn119 1.950 . S
O117 Zn120 1.945 1_545 S
Zn118 O117 1.923 1_565 S
Zn118 O121 1.933 . S
Zn118 O124 1.941 1_565 S
Zn118 O125 1.965 1_565 S
Zn119 O117 1.950 . S
Zn119 O126 1.938 . S
Zn119 O127 1.906 . S
Zn119 O137 1.953 . S
Zn120 O117 1.945 1_565 S
Zn120 O122 1.932 . S
Zn120 O129 1.977 . S
Zn120 O130 1.910 . S
O121 Zn118 1.933 . S
O121 C132 1.226 . S
O122 Zn120 1.932 . S
O122 C132 1.307 . S
O123 Zn116 1.919 . S
O123 C134 1.253 . S
O124 Zn118 1.941 1_545 S
O124 C134 1.283 . S
O125 Zn118 1.965 1_545 S
O125 C133 1.303 . S
O126 Zn119 1.938 . S
O126 C133 1.247 . S
O127 Zn119 1.906 . S
O127 C135 1.304 . S
O128 Zn116 1.924 . S
O128 C136 1.311 . S
O129 Zn120 1.977 . S
O129 C135 1.272 1_565 S
O130 Zn120 1.910 . S
O130 C136 1.231 1_565 S
C131 O115 1.225 . S
C131 O137 1.298 . S
C132 O121 1.226 . S
C132 O122 1.307 . S
C133 O125 1.303 . S
C133 O126 1.247 . S
C134 O123 1.253 . S
C134 O124 1.283 . S
C135 O127 1.304 . S
C135 O129 1.272 1_545 S
C136 O128 1.311 . S
C136 O130 1.231 1_545 S
O137 Zn119 1.953 . S
O137 C131 1.298 . S
O138 Zn139 1.953 . S
O138 C154 1.225 . S
Zn139 O138 1.953 . S
Zn139 O140 1.949 . S
Zn139 O146 1.919 . S
Zn139 O151 1.924 . S
O140 Zn139 1.949 . S
O140 Zn141 1.923 1_545 S
O140 Zn142 1.950 . S
O140 Zn143 1.945 1_545 S
Zn141 O140 1.923 1_565 S
Zn141 O144 1.933 . S
Zn141 O147 1.941 1_565 S
Zn141 O148 1.965 1_565 S
Zn142 O140 1.950 . S
Zn142 O149 1.938 . S
Zn142 O150 1.906 . S
Zn142 O160 1.953 . S
Zn143 O140 1.945 1_565 S
Zn143 O145 1.932 . S
Zn143 O152 1.977 . S
Zn143 O153 1.910 . S
O144 Zn141 1.933 . S
O144 C155 1.226 . S
O145 Zn143 1.932 . S
O145 C155 1.307 . S
O146 Zn139 1.919 . S
O146 C157 1.253 . S
O147 Zn141 1.941 1_545 S
O147 C157 1.283 . S
O148 Zn141 1.965 1_545 S
O148 C156 1.303 . S
O149 Zn142 1.938 . S
O149 C156 1.247 . S
O150 Zn142 1.906 . S
O150 C158 1.304 . S
O151 Zn139 1.924 . S
O151 C159 1.311 . S
O152 Zn143 1.977 . S
O152 C158 1.272 1_565 S
O153 Zn143 1.910 . S
O153 C159 1.231 1_565 S
C154 O138 1.225 . S
C154 O160 1.298 . S
C155 O144 1.226 . S
C155 O145 1.307 . S
C156 O148 1.303 . S
C156 O149 1.247 . S
C157 O146 1.253 . S
C157 O147 1.283 . S
C158 O150 1.304 . S
C158 O152 1.272 1_545 S
C159 O151 1.311 . S
C159 O153 1.231 1_545 S
O160 Zn142 1.953 . S
O160 C154 1.298 . S
O161 Zn162 1.953 . S
O161 C177 1.225 . S
Zn162 O161 1.953 . S
Zn162 O163 1.949 . S
Zn162 O169 1.919 . S
Zn162 O174 1.924 . S
O163 Zn162 1.949 . S
O163 Zn164 1.923 1_565 S
O163 Zn165 1.950 . S
O163 Zn166 1.945 1_565 S
Zn164 O163 1.923 1_545 S
Zn164 O167 1.933 . S
Zn164 O170 1.941 1_545 S
Zn164 O171 1.965 1_545 S
Zn165 O163 1.950 . S
Zn165 O172 1.938 . S
Zn165 O173 1.906 . S
Zn165 O183 1.953 . S
Zn166 O163 1.945 1_545 S
Zn166 O168 1.932 . S
Zn166 O175 1.977 . S
Zn166 O176 1.910 . S
O167 Zn164 1.933 . S
O167 C178 1.226 . S
O168 Zn166 1.932 . S
O168 C178 1.307 . S
O169 Zn162 1.919 . S
O169 C180 1.253 . S
O170 Zn164 1.941 1_565 S
O170 C180 1.283 . S
O171 Zn164 1.965 1_565 S
O171 C179 1.303 . S
O172 Zn165 1.938 . S
O172 C179 1.247 . S
O173 Zn165 1.906 . S
O173 C181 1.304 . S
O174 Zn162 1.924 . S
O174 C182 1.311 . S
O175 Zn166 1.977 . S
O175 C181 1.272 1_545 S
O176 Zn166 1.910 . S
O176 C182 1.231 1_545 S
C177 O161 1.225 . S
C177 O183 1.298 . S
C178 O167 1.226 . S
C178 O168 1.307 . S
C179 O171 1.303 . S
C179 O172 1.247 . S
C180 O169 1.253 . S
C180 O170 1.283 . S
C181 O173 1.304 . S
C181 O175 1.272 1_565 S
C182 O174 1.311 . S
C182 O176 1.231 1_565 S
O183 Zn165 1.953 . S
O183 C177 1.298 . S
O184 Zn185 1.953 . S
O184 C200 1.225 . S
Zn185 O184 1.953 . S
Zn185 O186 1.949 . S
Zn185 O192 1.919 . S
Zn185 O197 1.924 . S
O186 Zn185 1.949 . S
O186 Zn187 1.923 . S
O186 Zn188 1.950 . S
O186 Zn189 1.945 . S
Zn187 O186 1.923 . S
Zn187 O190 1.933 . S
Zn187 O193 1.941 . S
Zn187 O194 1.965 . S
Zn188 O186 1.950 . S
Zn188 O195 1.938 . S
Zn188 O196 1.906 . S
Zn188 O206 1.953 . S
Zn189 O186 1.945 . S
Zn189 O191 1.932 . S
Zn189 O198 1.977 . S
Zn189 O199 1.910 . S
O190 Zn187 1.933 . S
O190 C201 1.226 . S
O191 Zn189 1.932 . S
O191 C201 1.307 . S
O192 Zn185 1.919 . S
O192 C203 1.253 . S
O193 Zn187 1.941 . S
O193 C203 1.283 . S
O194 Zn187 1.965 . S
O194 C202 1.303 . S
O195 Zn188 1.938 . S
O195 C202 1.247 . S
O196 Zn188 1.906 . S
O196 C204 1.304 . S
O197 Zn185 1.924 . S
O197 C205 1.311 . S
O198 Zn189 1.977 . S
O198 C204 1.272 . S
O199 Zn189 1.910 . S
O199 C205 1.231 . S
C200 O184 1.225 . S
C200 O206 1.298 . S
C201 O190 1.226 . S
C201 O191 1.307 . S
C202 O194 1.303 . S
C202 O195 1.247 . S
C203 O192 1.253 . S
C203 O193 1.283 . S
C204 O196 1.304 . S
C204 O198 1.272 . S
C205 O197 1.311 . S
C205 O199 1.231 . S
O206 Zn188 1.953 . S
O206 C200 1.298 . S
O207 Zn208 1.953 . S
O207 C223 1.225 . S
Zn208 O207 1.953 . S
Zn208 O209 1.949 . S
Zn208 O215 1.919 . S
Zn208 O220 1.924 . S
O209 Zn208 1.949 . S
O209 Zn210 1.923 . S
O209 Zn211 1.950 . S
O209 Zn212 1.945 . S
Zn210 O209 1.923 . S
Zn210 O213 1.933 . S
Zn210 O216 1.941 . S
Zn210 O217 1.965 . S
Zn211 O209 1.950 . S
Zn211 O218 1.938 . S
Zn211 O219 1.906 . S
Zn211 O229 1.953 . S
Zn212 O209 1.945 . S
Zn212 O214 1.932 . S
Zn212 O221 1.977 . S
Zn212 O222 1.910 . S
O213 Zn210 1.933 . S
O213 C224 1.226 . S
O214 Zn212 1.932 . S
O214 C224 1.307 . S
O215 Zn208 1.919 . S
O215 C226 1.253 . S
O216 Zn210 1.941 . S
O216 C226 1.283 . S
O217 Zn210 1.965 . S
O217 C225 1.303 . S
O218 Zn211 1.938 . S
O218 C225 1.247 . S
O219 Zn211 1.906 . S
O219 C227 1.304 . S
O220 Zn208 1.924 . S
O220 C228 1.311 . S
O221 Zn212 1.977 . S
O221 C227 1.272 . S
O222 Zn212 1.910 . S
O222 C228 1.231 . S
C223 O207 1.225 . S
C223 O229 1.298 . S
C224 O213 1.226 . S
C224 O214 1.307 . S
C225 O217 1.303 . S
C225 O218 1.247 . S
C226 O215 1.253 . S
C226 O216 1.283 . S
C227 O219 1.304 . S
C227 O221 1.272 . S
C228 O220 1.311 . S
C228 O222 1.231 . S
O229 Zn211 1.953 . S
O229 C223 1.298 . S
O230 Zn231 1.953 . S
O230 C246 1.225 . S
Zn231 O230 1.953 . S
Zn231 O232 1.949 . S
Zn231 O238 1.919 . S
Zn231 O243 1.924 . S
O232 Zn231 1.949 . S
O232 Zn233 1.923 . S
O232 Zn234 1.950 . S
O232 Zn235 1.945 . S
Zn233 O232 1.923 . S
Zn233 O236 1.933 . S
Zn233 O239 1.941 . S
Zn233 O240 1.965 . S
Zn234 O232 1.950 . S
Zn234 O241 1.938 . S
Zn234 O242 1.906 . S
Zn234 O252 1.953 . S
Zn235 O232 1.945 . S
Zn235 O237 1.932 . S
Zn235 O244 1.977 . S
Zn235 O245 1.910 . S
O236 Zn233 1.933 . S
O236 C247 1.226 . S
O237 Zn235 1.932 . S
O237 C247 1.307 . S
O238 Zn231 1.919 . S
O238 C249 1.253 . S
O239 Zn233 1.941 . S
O239 C249 1.283 . S
O240 Zn233 1.965 . S
O240 C248 1.303 . S
O241 Zn234 1.938 . S
O241 C248 1.247 . S
O242 Zn234 1.906 . S
O242 C250 1.304 . S
O243 Zn231 1.924 . S
O243 C251 1.311 . S
O244 Zn235 1.977 . S
O244 C250 1.272 . S
O245 Zn235 1.910 . S
O245 C251 1.231 . S
C246 O230 1.225 . S
C246 O252 1.298 . S
C247 O236 1.226 . S
C247 O237 1.307 . S
C248 O240 1.303 . S
C248 O241 1.247 . S
C249 O238 1.253 . S
C249 O239 1.283 . S
C250 O242 1.304 . S
C250 O244 1.272 . S
C251 O243 1.311 . S
C251 O245 1.231 . S
O252 Zn234 1.953 . S
O252 C246 1.298 . S
O253 Zn254 1.953 . S
O253 C269 1.225 . S
Zn254 O253 1.953 . S
Zn254 O255 1.949 . S
Zn254 O261 1.919 . S
Zn254 O266 1.924 . S
O255 Zn254 1.949 . S
O255 Zn256 1.923 . S
O255 Zn257 1.950 . S
O255 Zn258 1.945 . S
Zn256 O255 1.923 . S
Zn256 O259 1.933 . S
Zn256 O262 1.941 . S
Zn256 O263 1.965 . S
Zn257 O255 1.950 . S
Zn257 O264 1.938 . S
Zn257 O265 1.906 . S
Zn257 O275 1.953 . S
Zn258 O255 1.945 . S
Zn258 O260 1.932 . S
Zn258 O267 1.977 . S
Zn258 O268 1.910 . S
O259 Zn256 1.933 . S
O259 C270 1.226 . S
O260 Zn258 1.932 . S
O260 C270 1.307 . S
O261 Zn254 1.919 . S
O261 C272 1.253 . S
O262 Zn256 1.941 . S
O262 C272 1.283 . S
O263 Zn256 1.965 . S
O263 C271 1.303 . S
O264 Zn257 1.938 . S
O264 C271 1.247 . S
O265 Zn257 1.906 . S
O265 C273 1.304 . S
O266 Zn254 1.924 . S
O266 C274 1.311 . S
O267 Zn258 1.977 . S
O267 C273 1.272 . S
O268 Zn258 1.910 . S
O268 C274 1.231 . S
C269 O253 1.225 . S
C269 O275 1.298 . S
C270 O259 1.226 . S
C270 O260 1.307 . S
C271 O263 1.303 . S
C271 O264 1.247 . S
C272 O261 1.253 . S
C272 O262 1.283 . S
C273 O265 1.304 . S
C273 O267 1.272 . S
C274 O266 1.311 . S
C274 O268 1.231 . S
O275 Zn257 1.953 . S
O275 C269 1.298 . S
O276 Zn277 1.953 . S
O276 C292 1.225 . S
Zn277 O276 1.953 . S
Zn277 O278 1.949 . S
Zn277 O284 1.919 . S
Zn277 O289 1.924 . S
O278 Zn277 1.949 . S
O278 Zn279 1.923 . S
O278 Zn280 1.950 . S
O278 Zn281 1.945 . S
Zn279 O278 1.923 . S
Zn279 O282 1.933 . S
Zn279 O285 1.941 . S
Zn279 O286 1.965 . S
Zn280 O278 1.950 . S
Zn280 O287 1.938 . S
Zn280 O288 1.906 . S
Zn280 O298 1.953 . S
Zn281 O278 1.945 . S
Zn281 O283 1.932 . S
Zn281 O290 1.977 . S
Zn281 O291 1.910 . S
O282 Zn279 1.933 . S
O282 C293 1.226 . S
O283 Zn281 1.932 . S
O283 C293 1.307 . S
O284 Zn277 1.919 . S
O284 C295 1.253 . S
O285 Zn279 1.941 . S
O285 C295 1.283 . S
O286 Zn279 1.965 . S
O286 C294 1.303 . S
O287 Zn280 1.938 . S
O287 C294 1.247 . S
O288 Zn280 1.906 . S
O288 C296 1.304 . S
O289 Zn277 1.924 . S
O289 C297 1.311 . S
O290 Zn281 1.977 . S
O290 C296 1.272 . S
O291 Zn281 1.910 . S
O291 C297 1.231 . S
C292 O276 1.225 . S
C292 O298 1.298 . S
C293 O282 1.226 . S
C293 O283 1.307 . S
C294 O286 1.303 . S
C294 O287 1.247 . S
C295 O284 1.253 . S
C295 O285 1.283 . S
C296 O288 1.304 . S
C296 O290 1.272 . S
C297 O289 1.311 . S
C297 O291 1.231 . S
O298 Zn280 1.953 . S
O298 C292 1.298 . S
O299 Zn300 1.953 . S
O299 C315 1.225 . S
Zn300 O299 1.953 . S
Zn300 O301 1.949 . S
Zn300 O307 1.919 . S
Zn300 O312 1.924 . S
O301 Zn300 1.949 . S
O301 Zn302 1.923 . S
O301 Zn303 1.950 . S
O301 Zn304 1.945 . S
Zn302 O301 1.923 . S
Zn302 O305 1.933 . S
Zn302 O308 1.941 . S
Zn302 O309 1.965 . S
Zn303 O301 1.950 . S
Zn303 O310 1.938 . S
Zn303 O311 1.906 . S
Zn303 O321 1.953 . S
Zn304 O301 1.945 . S
Zn304 O306 1.932 . S
Zn304 O313 1.977 . S
Zn304 O314 1.910 . S
O305 Zn302 1.933 . S
O305 C316 1.226 . S
O306 Zn304 1.932 . S
O306 C316 1.307 . S
O307 Zn300 1.919 . S
O307 C318 1.253 . S
O308 Zn302 1.941 . S
O308 C318 1.283 . S
O309 Zn302 1.965 . S
O309 C317 1.303 . S
O310 Zn303 1.938 . S
O310 C317 1.247 . S
O311 Zn303 1.906 . S
O311 C319 1.304 . S
O312 Zn300 1.924 . S
O312 C320 1.311 . S
O313 Zn304 1.977 . S
O313 C319 1.272 . S
O314 Zn304 1.910 . S
O314 C320 1.231 . S
C315 O299 1.225 . S
C315 O321 1.298 . S
C316 O305 1.226 . S
C316 O306 1.307 . S
C317 O309 1.303 . S
C317 O310 1.247 . S
C318 O307 1.253 . S
C318 O308 1.283 . S
C319 O311 1.304 . S
C319 O313 1.272 . S
C320 O312 1.311 . S
C320 O314 1.231 . S
O321 Zn303 1.953 . S
O321 C315 1.298 . S
O322 Zn323 1.953 . S
O322 C338 1.225 . S
Zn323 O322 1.953 . S
Zn323 O324 1.949 . S
Zn323 O330 1.919 . S
Zn323 O335 1.924 . S
O324 Zn323 1.949 . S
O324 Zn325 1.923 . S
O324 Zn326 1.950 . S
O324 Zn327 1.945 . S
Zn325 O324 1.923 . S
Zn325 O328 1.933 . S
Zn325 O331 1.941 . S
Zn325 O332 1.965 . S
Zn326 O324 1.950 . S
Zn326 O333 1.938 . S
Zn326 O334 1.906 . S
Zn326 O344 1.953 . S
Zn327 O324 1.945 . S
Zn327 O329 1.932 . S
Zn327 O336 1.977 . S
Zn327 O337 1.910 . S
O328 Zn325 1.933 . S
O328 C339 1.226 . S
O329 Zn327 1.932 . S
O329 C339 1.307 . S
O330 Zn323 1.919 . S
O330 C341 1.253 . S
O331 Zn325 1.941 . S
O331 C341 1.283 . S
O332 Zn325 1.965 . S
O332 C340 1.303 . S
O333 Zn326 1.938 . S
O333 C340 1.247 . S
O334 Zn326 1.906 . S
O334 C342 1.304 . S
O335 Zn323 1.924 . S
O335 C343 1.311 . S
O336 Zn327 1.977 . S
O336 C342 1.272 . S
O337 Zn327 1.910 . S
O337 C343 1.231 . S
C338 O322 1.225 . S
C338 O344 1.298 . S
C339 O328 1.226 . S
C339 O329 1.307 . S
C340 O332 1.303 . S
C340 O333 1.247 . S
C341 O330 1.253 . S
C341 O331 1.283 . S
C342 O334 1.304 . S
C342 O336 1.272 . S
C343 O335 1.311 . S
C343 O337 1.231 . S
O344 Zn326 1.953 . S
O344 C338 1.298 . S
O345 Zn346 1.953 . S
O345 C361 1.225 . S
Zn346 O345 1.953 . S
Zn346 O347 1.949 . S
Zn346 O353 1.919 . S
Zn346 O358 1.924 . S
O347 Zn346 1.949 . S
O347 Zn348 1.923 . S
O347 Zn349 1.950 . S
O347 Zn350 1.945 . S
Zn348 O347 1.923 . S
Zn348 O351 1.933 . S
Zn348 O354 1.941 . S
Zn348 O355 1.965 . S
Zn349 O347 1.950 . S
Zn349 O356 1.938 . S
Zn349 O357 1.906 . S
Zn349 O367 1.953 . S
Zn350 O347 1.945 . S
Zn350 O352 1.932 . S
Zn350 O359 1.977 . S
Zn350 O360 1.910 . S
O351 Zn348 1.933 . S
O351 C362 1.226 . S
O352 Zn350 1.932 . S
O352 C362 1.307 . S
O353 Zn346 1.919 . S
O353 C364 1.253 . S
O354 Zn348 1.941 . S
O354 C364 1.283 . S
O355 Zn348 1.965 . S
O355 C363 1.303 . S
O356 Zn349 1.938 . S
O356 C363 1.247 . S
O357 Zn349 1.906 . S
O357 C365 1.304 . S
O358 Zn346 1.924 . S
O358 C366 1.311 . S
O359 Zn350 1.977 . S
O359 C365 1.272 . S
O360 Zn350 1.910 . S
O360 C366 1.231 . S
C361 O345 1.225 . S
C361 O367 1.298 . S
C362 O351 1.226 . S
C362 O352 1.307 . S
C363 O355 1.303 . S
C363 O356 1.247 . S
C364 O353 1.253 . S
C364 O354 1.283 . S
C365 O357 1.304 . S
C365 O359 1.272 . S
C366 O358 1.311 . S
C366 O360 1.231 . S
O367 Zn349 1.953 . S
O367 C361 1.298 . S
H368 C380 0.930 . S
H369 C382 0.930 . S
H370 C383 0.930 . S
H371 C387 0.959 . S
H372 C387 0.959 . S
H373 C387 0.961 . S
H374 C388 0.960 . S
H375 C388 0.961 . S
H376 C388 0.959 . S
H377 C391 0.929 . S
H378 C392 0.931 . S
H379 C394 0.930 . S
C380 H368 0.930 . S
C380 C381 1.399 . S
C380 C385 1.399 . S
C381 C380 1.399 . S
C381 C382 1.376 . S
C382 H369 0.930 . S
C382 C381 1.376 . S
C382 C383 1.388 . S
C383 H370 0.930 . S
C383 C382 1.388 . S
C383 C384 1.390 . S
C384 C383 1.390 . S
C384 C385 1.394 . S
C384 C390 1.465 . S
C385 C380 1.399 . S
C385 C384 1.394 . S
C385 C386 1.516 . S
C386 C385 1.516 . S
C386 C387 1.502 . S
C386 C388 1.561 . S
C386 C389 1.526 . S
C387 H371 0.959 . S
C387 H372 0.959 . S
C387 H373 0.961 . S
C387 C386 1.502 . S
C388 H374 0.960 . S
C388 H375 0.961 . S
C388 H376 0.959 . S
C388 C386 1.561 . S
C389 C386 1.526 . S
C389 C390 1.396 . S
C389 C394 1.390 . S
C390 C384 1.465 . S
C390 C389 1.396 . S
C390 C391 1.399 . S
C391 H377 0.929 . S
C391 C390 1.399 . S
C391 C392 1.385 . S
C392 H378 0.931 . S
C392 C391 1.385 . S
C392 C393 1.389 . S
C393 C392 1.389 . S
C393 C394 1.387 . S
C394 H379 0.930 . S
C394 C389 1.390 . S
C394 C393 1.387 . S
H395 C407 0.930 . S
H396 C409 0.930 . S
H397 C410 0.930 . S
H398 C414 0.959 . S
H399 C414 0.959 . S
H400 C414 0.961 . S
H401 C415 0.960 . S
H402 C415 0.961 . S
H403 C415 0.959 . S
H404 C418 0.929 . S
H405 C419 0.931 . S
H406 C421 0.930 . S
C407 H395 0.930 . S
C407 C408 1.399 . S
C407 C412 1.399 . S
C408 C407 1.399 . S
C408 C409 1.376 . S
C409 H396 0.930 . S
C409 C408 1.376 . S
C409 C410 1.388 . S
C410 H397 0.930 . S
C410 C409 1.388 . S
C410 C411 1.390 . S
C411 C410 1.390 . S
C411 C412 1.394 . S
C411 C417 1.465 . S
C412 C407 1.399 . S
C412 C411 1.394 . S
C412 C413 1.516 . S
C413 C412 1.516 . S
C413 C414 1.502 . S
C413 C415 1.561 . S
C413 C416 1.526 . S
C414 H398 0.959 . S
C414 H399 0.959 . S
C414 H400 0.961 . S
C414 C413 1.502 . S
C415 H401 0.960 . S
C415 H402 0.961 . S
C415 H403 0.959 . S
C415 C413 1.561 . S
C416 C413 1.526 . S
C416 C417 1.396 . S
C416 C421 1.390 . S
C417 C411 1.465 . S
C417 C416 1.396 . S
C417 C418 1.399 . S
C418 H404 0.929 . S
C418 C417 1.399 . S
C418 C419 1.385 . S
C419 H405 0.931 . S
C419 C418 1.385 . S
C419 C420 1.389 . S
C420 C419 1.389 . S
C420 C421 1.387 . S
C421 H406 0.930 . S
C421 C416 1.390 . S
C421 C420 1.387 . S
H422 C434 0.930 . S
H423 C436 0.930 . S
H424 C437 0.930 . S
H425 C441 0.959 . S
H426 C441 0.959 . S
H427 C441 0.961 . S
H428 C442 0.960 . S
H429 C442 0.961 . S
H430 C442 0.959 . S
H431 C445 0.929 . S
H432 C446 0.931 . S
H433 C448 0.930 . S
C434 H422 0.930 . S
C434 C435 1.399 . S
C434 C439 1.399 . S
C435 C434 1.399 . S
C435 C436 1.376 . S
C436 H423 0.930 . S
C436 C435 1.376 . S
C436 C437 1.388 . S
C437 H424 0.930 . S
C437 C436 1.388 . S
C437 C438 1.390 . S
C438 C437 1.390 . S
C438 C439 1.394 . S
C438 C444 1.465 . S
C439 C434 1.399 . S
C439 C438 1.394 . S
C439 C440 1.516 . S
C440 C439 1.516 . S
C440 C441 1.502 . S
C440 C442 1.561 . S
C440 C443 1.526 . S
C441 H425 0.959 . S
C441 H426 0.959 . S
C441 H427 0.961 . S
C441 C440 1.502 . S
C442 H428 0.960 . S
C442 H429 0.961 . S
C442 H430 0.959 . S
C442 C440 1.561 . S
C443 C440 1.526 . S
C443 C444 1.396 . S
C443 C448 1.390 . S
C444 C438 1.465 . S
C444 C443 1.396 . S
C444 C445 1.399 . S
C445 H431 0.929 . S
C445 C444 1.399 . S
C445 C446 1.385 . S
C446 H432 0.931 . S
C446 C445 1.385 . S
C446 C447 1.389 . S
C447 C446 1.389 . S
C447 C448 1.387 . S
C448 H433 0.930 . S
C448 C443 1.390 . S
C448 C447 1.387 . S
H449 C461 0.930 . S
H450 C463 0.930 . S
H451 C464 0.930 . S
H452 C468 0.959 . S
H453 C468 0.959 . S
H454 C468 0.961 . S
H455 C469 0.960 . S
H456 C469 0.961 . S
H457 C469 0.959 . S
H458 C472 0.929 . S
H459 C473 0.931 . S
H460 C475 0.930 . S
C461 H449 0.930 . S
C461 C462 1.399 . S
C461 C466 1.399 . S
C462 C461 1.399 . S
C462 C463 1.376 . S
C463 H450 0.930 . S
C463 C462 1.376 . S
C463 C464 1.388 . S
C464 H451 0.930 . S
C464 C463 1.388 . S
C464 C465 1.390 . S
C465 C464 1.390 . S
C465 C466 1.394 . S
C465 C471 1.465 . S
C466 C461 1.399 . S
C466 C465 1.394 . S
C466 C467 1.516 . S
C467 C466 1.516 . S
C467 C468 1.502 . S
C467 C469 1.561 . S
C467 C470 1.526 . S
C468 H452 0.959 . S
C468 H453 0.959 . S
C468 H454 0.961 . S
C468 C467 1.502 . S
C469 H455 0.960 . S
C469 H456 0.961 . S
C469 H457 0.959 . S
C469 C467 1.561 . S
C470 C467 1.526 . S
C470 C471 1.396 . S
C470 C475 1.390 . S
C471 C465 1.465 . S
C471 C470 1.396 . S
C471 C472 1.399 . S
C472 H458 0.929 . S
C472 C471 1.399 . S
C472 C473 1.385 . S
C473 H459 0.931 . S
C473 C472 1.385 . S
C473 C474 1.389 . S
C474 C473 1.389 . S
C474 C475 1.387 . S
C475 H460 0.930 . S
C475 C470 1.390 . S
C475 C474 1.387 . S
H476 C488 0.930 . S
H477 C490 0.930 . S
H478 C491 0.930 . S
H479 C495 0.959 . S
H480 C495 0.959 . S
H481 C495 0.961 . S
H482 C496 0.960 . S
H483 C496 0.961 . S
H484 C496 0.959 . S
H485 C499 0.929 . S
H486 C500 0.931 . S
H487 C502 0.930 . S
C488 H476 0.930 . S
C488 C489 1.399 . S
C488 C493 1.399 . S
C489 C488 1.399 . S
C489 C490 1.376 . S
C490 H477 0.930 . S
C490 C489 1.376 . S
C490 C491 1.388 . S
C491 H478 0.930 . S
C491 C490 1.388 . S
C491 C492 1.390 . S
C492 C491 1.390 . S
C492 C493 1.394 . S
C492 C498 1.465 . S
C493 C488 1.399 . S
C493 C492 1.394 . S
C493 C494 1.516 . S
C494 C493 1.516 . S
C494 C495 1.502 . S
C494 C496 1.561 . S
C494 C497 1.526 . S
C495 H479 0.959 . S
C495 H480 0.959 . S
C495 H481 0.961 . S
C495 C494 1.502 . S
C496 H482 0.960 . S
C496 H483 0.961 . S
C496 H484 0.959 . S
C496 C494 1.561 . S
C497 C494 1.526 . S
C497 C498 1.396 . S
C497 C502 1.390 . S
C498 C492 1.465 . S
C498 C497 1.396 . S
C498 C499 1.399 . S
C499 H485 0.929 . S
C499 C498 1.399 . S
C499 C500 1.385 . S
C500 H486 0.931 . S
C500 C499 1.385 . S
C500 C501 1.389 . S
C501 C500 1.389 . S
C501 C502 1.387 . S
C502 H487 0.930 . S
C502 C497 1.390 . S
C502 C501 1.387 . S
H503 C515 0.930 . S
H504 C517 0.930 . S
H505 C518 0.930 . S
H506 C522 0.959 . S
H507 C522 0.959 . S
H508 C522 0.961 . S
H509 C523 0.960 . S
H510 C523 0.961 . S
H511 C523 0.959 . S
H512 C526 0.929 . S
H513 C527 0.931 . S
H514 C529 0.930 . S
C515 H503 0.930 . S
C515 C516 1.399 . S
C515 C520 1.399 . S
C516 C515 1.399 . S
C516 C517 1.376 . S
C517 H504 0.930 . S
C517 C516 1.376 . S
C517 C518 1.388 . S
C518 H505 0.930 . S
C518 C517 1.388 . S
C518 C519 1.390 . S
C519 C518 1.390 . S
C519 C520 1.394 . S
C519 C525 1.465 . S
C520 C515 1.399 . S
C520 C519 1.394 . S
C520 C521 1.516 . S
C521 C520 1.516 . S
C521 C522 1.502 . S
C521 C523 1.561 . S
C521 C524 1.526 . S
C522 H506 0.959 . S
C522 H507 0.959 . S
C522 H508 0.961 . S
C522 C521 1.502 . S
C523 H509 0.960 . S
C523 H510 0.961 . S
C523 H511 0.959 . S
C523 C521 1.561 . S
C524 C521 1.526 . S
C524 C525 1.396 . S
C524 C529 1.390 . S
C525 C519 1.465 . S
C525 C524 1.396 . S
C525 C526 1.399 . S
C526 H512 0.929 . S
C526 C525 1.399 . S
C526 C527 1.385 . S
C527 H513 0.931 . S
C527 C526 1.385 . S
C527 C528 1.389 . S
C528 C527 1.389 . S
C528 C529 1.387 . S
C529 H514 0.930 . S
C529 C524 1.390 . S
C529 C528 1.387 . S
H530 C542 0.930 . S
H531 C544 0.930 . S
H532 C545 0.930 . S
H533 C549 0.959 . S
H534 C549 0.959 . S
H535 C549 0.961 . S
H536 C550 0.960 . S
H537 C550 0.961 . S
H538 C550 0.959 . S
H539 C553 0.929 . S
H540 C554 0.931 . S
H541 C556 0.930 . S
C542 H530 0.930 . S
C542 C543 1.399 . S
C542 C547 1.399 . S
C543 C542 1.399 . S
C543 C544 1.376 . S
C544 H531 0.930 . S
C544 C543 1.376 . S
C544 C545 1.388 . S
C545 H532 0.930 . S
C545 C544 1.388 . S
C545 C546 1.390 . S
C546 C545 1.390 . S
C546 C547 1.394 . S
C546 C552 1.465 . S
C547 C542 1.399 . S
C547 C546 1.394 . S
C547 C548 1.516 . S
C548 C547 1.516 . S
C548 C549 1.502 . S
C548 C550 1.561 . S
C548 C551 1.526 . S
C549 H533 0.959 . S
C549 H534 0.959 . S
C549 H535 0.961 . S
C549 C548 1.502 . S
C550 H536 0.960 . S
C550 H537 0.961 . S
C550 H538 0.959 . S
C550 C548 1.561 . S
C551 C548 1.526 . S
C551 C552 1.396 . S
C551 C556 1.390 . S
C552 C546 1.465 . S
C552 C551 1.396 . S
C552 C553 1.399 . S
C553 H539 0.929 . S
C553 C552 1.399 . S
C553 C554 1.385 . S
C554 H540 0.931 . S
C554 C553 1.385 . S
C554 C555 1.389 . S
C555 C554 1.389 . S
C555 C556 1.387 . S
C556 H541 0.930 . S
C556 C551 1.390 . S
C556 C555 1.387 . S
H557 C569 0.930 . S
H558 C571 0.930 . S
H559 C572 0.930 . S
H560 C576 0.959 . S
H561 C576 0.959 . S
H562 C576 0.961 . S
H563 C577 0.960 . S
H564 C577 0.961 . S
H565 C577 0.959 . S
H566 C580 0.929 . S
H567 C581 0.931 . S
H568 C583 0.930 . S
C569 H557 0.930 . S
C569 C570 1.399 . S
C569 C574 1.399 . S
C570 C569 1.399 . S
C570 C571 1.376 . S
C571 H558 0.930 . S
C571 C570 1.376 . S
C571 C572 1.388 . S
C572 H559 0.930 . S
C572 C571 1.388 . S
C572 C573 1.390 . S
C573 C572 1.390 . S
C573 C574 1.394 . S
C573 C579 1.465 . S
C574 C569 1.399 . S
C574 C573 1.394 . S
C574 C575 1.516 . S
C575 C574 1.516 . S
C575 C576 1.502 . S
C575 C577 1.561 . S
C575 C578 1.526 . S
C576 H560 0.959 . S
C576 H561 0.959 . S
C576 H562 0.961 . S
C576 C575 1.502 . S
C577 H563 0.960 . S
C577 H564 0.961 . S
C577 H565 0.959 . S
C577 C575 1.561 . S
C578 C575 1.526 . S
C578 C579 1.396 . S
C578 C583 1.390 . S
C579 C573 1.465 . S
C579 C578 1.396 . S
C579 C580 1.399 . S
C580 H566 0.929 . S
C580 C579 1.399 . S
C580 C581 1.385 . S
C581 H567 0.931 . S
C581 C580 1.385 . S
C581 C582 1.389 . S
C582 C581 1.389 . S
C582 C583 1.387 . S
C583 H568 0.930 . S
C583 C578 1.390 . S
C583 C582 1.387 . S
H584 C596 0.930 . S
H585 C598 0.930 . S
H586 C599 0.930 . S
H587 C603 0.959 . S
H588 C603 0.959 . S
H589 C603 0.961 . S
H590 C604 0.960 . S
H591 C604 0.961 . S
H592 C604 0.959 . S
H593 C607 0.929 . S
H594 C608 0.931 . S
H595 C610 0.930 . S
C596 H584 0.930 . S
C596 C597 1.399 1_545 S
C596 C601 1.399 . S
C597 C596 1.399 1_565 S
C597 C598 1.376 . S
C598 H585 0.930 . S
C598 C597 1.376 . S
C598 C599 1.388 . S
C599 H586 0.930 . S
C599 C598 1.388 . S
C599 C600 1.390 . S
C600 C599 1.390 . S
C600 C601 1.394 1_565 S
C600 C606 1.465 . S
C601 C596 1.399 . S
C601 C600 1.394 1_545 S
C601 C602 1.516 . S
C602 C601 1.516 . S
C602 C603 1.502 . S
C602 C604 1.561 . S
C602 C605 1.526 . S
C603 H587 0.959 . S
C603 H588 0.959 . S
C603 H589 0.961 . S
C603 C602 1.502 . S
C604 H590 0.960 . S
C604 H591 0.961 . S
C604 H592 0.959 . S
C604 C602 1.561 . S
C605 C602 1.526 . S
C605 C606 1.396 1_545 S
C605 C610 1.390 . S
C606 C600 1.465 . S
C606 C605 1.396 1_565 S
C606 C607 1.399 . S
C607 H593 0.929 . S
C607 C606 1.399 . S
C607 C608 1.385 . S
C608 H594 0.931 . S
C608 C607 1.385 . S
C608 C609 1.389 . S
C609 C608 1.389 . S
C609 C610 1.387 1_565 S
C610 H595 0.930 . S
C610 C605 1.390 . S
C610 C609 1.387 1_545 S
H611 C623 0.930 . S
H612 C625 0.930 . S
H613 C626 0.930 . S
H614 C630 0.959 . S
H615 C630 0.959 . S
H616 C630 0.961 . S
H617 C631 0.960 . S
H618 C631 0.961 . S
H619 C631 0.959 . S
H620 C634 0.929 . S
H621 C635 0.931 . S
H622 C637 0.930 . S
C623 H611 0.930 . S
C623 C624 1.399 1_565 S
C623 C628 1.399 . S
C624 C623 1.399 1_545 S
C624 C625 1.376 . S
C625 H612 0.930 . S
C625 C624 1.376 . S
C625 C626 1.388 . S
C626 H613 0.930 . S
C626 C625 1.388 . S
C626 C627 1.390 . S
C627 C626 1.390 . S
C627 C628 1.394 1_545 S
C627 C633 1.465 . S
C628 C623 1.399 . S
C628 C627 1.394 1_565 S
C628 C629 1.516 . S
C629 C628 1.516 . S
C629 C630 1.502 . S
C629 C631 1.561 . S
C629 C632 1.526 . S
C630 H614 0.959 . S
C630 H615 0.959 . S
C630 H616 0.961 . S
C630 C629 1.502 . S
C631 H617 0.960 . S
C631 H618 0.961 . S
C631 H619 0.959 . S
C631 C629 1.561 . S
C632 C629 1.526 . S
C632 C633 1.396 1_565 S
C632 C637 1.390 . S
C633 C627 1.465 . S
C633 C632 1.396 1_545 S
C633 C634 1.399 . S
C634 H620 0.929 . S
C634 C633 1.399 . S
C634 C635 1.385 . S
C635 H621 0.931 . S
C635 C634 1.385 . S
C635 C636 1.389 . S
C636 C635 1.389 . S
C636 C637 1.387 1_545 S
C637 H622 0.930 . S
C637 C632 1.390 . S
C637 C636 1.387 1_565 S
H638 C650 0.930 . S
H639 C652 0.930 . S
H640 C653 0.930 . S
H641 C657 0.959 . S
H642 C657 0.959 . S
H643 C657 0.961 . S
H644 C658 0.960 . S
H645 C658 0.961 . S
H646 C658 0.959 . S
H647 C661 0.929 . S
H648 C662 0.931 . S
H649 C664 0.930 . S
C650 H638 0.930 . S
C650 C651 1.399 1_565 S
C650 C655 1.399 . S
C651 C650 1.399 1_545 S
C651 C652 1.376 . S
C652 H639 0.930 . S
C652 C651 1.376 . S
C652 C653 1.388 . S
C653 H640 0.930 . S
C653 C652 1.388 . S
C653 C654 1.390 . S
C654 C653 1.390 . S
C654 C655 1.394 1_545 S
C654 C660 1.465 . S
C655 C650 1.399 . S
C655 C654 1.394 1_565 S
C655 C656 1.516 . S
C656 C655 1.516 . S
C656 C657 1.502 . S
C656 C658 1.561 . S
C656 C659 1.526 . S
C657 H641 0.959 . S
C657 H642 0.959 . S
C657 H643 0.961 . S
C657 C656 1.502 . S
C658 H644 0.960 . S
C658 H645 0.961 . S
C658 H646 0.959 . S
C658 C656 1.561 . S
C659 C656 1.526 . S
C659 C660 1.396 1_565 S
C659 C664 1.390 . S
C660 C654 1.465 . S
C660 C659 1.396 1_545 S
C660 C661 1.399 . S
C661 H647 0.929 . S
C661 C660 1.399 . S
C661 C662 1.385 . S
C662 H648 0.931 . S
C662 C661 1.385 . S
C662 C663 1.389 . S
C663 C662 1.389 . S
C663 C664 1.387 1_545 S
C664 H649 0.930 . S
C664 C659 1.390 . S
C664 C663 1.387 1_565 S
H665 C677 0.930 . S
H666 C679 0.930 . S
H667 C680 0.930 . S
H668 C684 0.959 . S
H669 C684 0.959 . S
H670 C684 0.961 . S
H671 C685 0.960 . S
H672 C685 0.961 . S
H673 C685 0.959 . S
H674 C688 0.929 . S
H675 C689 0.931 . S
H676 C691 0.930 . S
C677 H665 0.930 . S
C677 C678 1.399 1_565 S
C677 C682 1.399 . S
C678 C677 1.399 1_545 S
C678 C679 1.376 . S
C679 H666 0.930 . S
C679 C678 1.376 . S
C679 C680 1.388 . S
C680 H667 0.930 . S
C680 C679 1.388 . S
C680 C681 1.390 . S
C681 C680 1.390 . S
C681 C682 1.394 1_545 S
C681 C687 1.465 . S
C682 C677 1.399 . S
C682 C681 1.394 1_565 S
C682 C683 1.516 . S
C683 C682 1.516 . S
C683 C684 1.502 . S
C683 C685 1.561 . S
C683 C686 1.526 . S
C684 H668 0.959 . S
C684 H669 0.959 . S
C684 H670 0.961 . S
C684 C683 1.502 . S
C685 H671 0.960 . S
C685 H672 0.961 . S
C685 H673 0.959 . S
C685 C683 1.561 . S
C686 C683 1.526 . S
C686 C687 1.396 1_565 S
C686 C691 1.390 . S
C687 C681 1.465 . S
C687 C686 1.396 1_545 S
C687 C688 1.399 . S
C688 H674 0.929 . S
C688 C687 1.399 . S
C688 C689 1.385 . S
C689 H675 0.931 . S
C689 C688 1.385 . S
C689 C690 1.389 . S
C690 C689 1.389 . S
C690 C691 1.387 1_545 S
C691 H676 0.930 . S
C691 C686 1.390 . S
C691 C690 1.387 1_565 S
H692 C704 0.930 . S
H693 C706 0.930 . S
H694 C707 0.930 . S
H695 C711 0.959 . S
H696 C711 0.959 . S
H697 C711 0.961 . S
H698 C712 0.960 . S
H699 C712 0.961 . S
H700 C712 0.959 . S
H701 C715 0.929 . S
H702 C716 0.931 . S
H703 C718 0.930 . S
C704 H692 0.930 . S
C704 C705 1.399 . S
C704 C709 1.399 . S
C705 C704 1.399 . S
C705 C706 1.376 . S
C706 H693 0.930 . S
C706 C705 1.376 . S
C706 C707 1.388 . S
C707 H694 0.930 . S
C707 C706 1.388 . S
C707 C708 1.390 . S
C708 C707 1.390 . S
C708 C709 1.394 . S
C708 C714 1.465 . S
C709 C704 1.399 . S
C709 C708 1.394 . S
C709 C710 1.516 . S
C710 C709 1.516 . S
C710 C711 1.502 . S
C710 C712 1.561 . S
C710 C713 1.526 . S
C711 H695 0.959 . S
C711 H696 0.959 . S
C711 H697 0.961 . S
C711 C710 1.502 . S
C712 H698 0.960 . S
C712 H699 0.961 . S
C712 H700 0.959 . S
C712 C710 1.561 . S
C713 C710 1.526 . S
C713 C714 1.396 . S
C713 C718 1.390 . S
C714 C708 1.465 . S
C714 C713 1.396 . S
C714 C715 1.399 . S
C715 H701 0.929 . S
C715 C714 1.399 . S
C715 C716 1.385 . S
C716 H702 0.931 . S
C716 C715 1.385 . S
C716 C717 1.389 . S
C717 C716 1.389 . S
C717 C718 1.387 . S
C718 H703 0.930 . S
C718 C713 1.390 . S
C718 C717 1.387 . S
H719 C731 0.930 . S
H720 C733 0.930 . S
H721 C734 0.930 . S
H722 C738 0.959 . S
H723 C738 0.959 . S
H724 C738 0.961 . S
H725 C739 0.960 . S
H726 C739 0.961 . S
H727 C739 0.959 . S
H728 C742 0.929 . S
H729 C743 0.931 . S
H730 C745 0.930 . S
C731 H719 0.930 . S
C731 C732 1.399 . S
C731 C736 1.399 . S
C732 C731 1.399 . S
C732 C733 1.376 . S
C733 H720 0.930 . S
C733 C732 1.376 . S
C733 C734 1.388 . S
C734 H721 0.930 . S
C734 C733 1.388 . S
C734 C735 1.390 . S
C735 C734 1.390 . S
C735 C736 1.394 . S
C735 C741 1.465 . S
C736 C731 1.399 . S
C736 C735 1.394 . S
C736 C737 1.516 . S
C737 C736 1.516 . S
C737 C738 1.502 . S
C737 C739 1.561 . S
C737 C740 1.526 . S
C738 H722 0.959 . S
C738 H723 0.959 . S
C738 H724 0.961 . S
C738 C737 1.502 . S
C739 H725 0.960 . S
C739 H726 0.961 . S
C739 H727 0.959 . S
C739 C737 1.561 . S
C740 C737 1.526 . S
C740 C741 1.396 . S
C740 C745 1.390 . S
C741 C735 1.465 . S
C741 C740 1.396 . S
C741 C742 1.399 . S
C742 H728 0.929 . S
C742 C741 1.399 . S
C742 C743 1.385 . S
C743 H729 0.931 . S
C743 C742 1.385 . S
C743 C744 1.389 . S
C744 C743 1.389 . S
C744 C745 1.387 . S
C745 H730 0.930 . S
C745 C740 1.390 . S
C745 C744 1.387 . S
H746 C758 0.930 . S
H747 C760 0.930 . S
H748 C761 0.930 . S
H749 C765 0.959 . S
H750 C765 0.959 . S
H751 C765 0.961 . S
H752 C766 0.960 . S
H753 C766 0.961 . S
H754 C766 0.959 . S
H755 C769 0.929 . S
H756 C770 0.931 . S
H757 C772 0.930 . S
C758 H746 0.930 . S
C758 C759 1.399 . S
C758 C763 1.399 . S
C759 C758 1.399 . S
C759 C760 1.376 . S
C760 H747 0.930 . S
C760 C759 1.376 . S
C760 C761 1.388 . S
C761 H748 0.930 . S
C761 C760 1.388 . S
C761 C762 1.390 . S
C762 C761 1.390 . S
C762 C763 1.394 . S
C762 C768 1.465 . S
C763 C758 1.399 . S
C763 C762 1.394 . S
C763 C764 1.516 . S
C764 C763 1.516 . S
C764 C765 1.502 . S
C764 C766 1.561 . S
C764 C767 1.526 . S
C765 H749 0.959 . S
C765 H750 0.959 . S
C765 H751 0.961 . S
C765 C764 1.502 . S
C766 H752 0.960 . S
C766 H753 0.961 . S
C766 H754 0.959 . S
C766 C764 1.561 . S
C767 C764 1.526 . S
C767 C768 1.396 . S
C767 C772 1.390 . S
C768 C762 1.465 . S
C768 C767 1.396 . S
C768 C769 1.399 . S
C769 H755 0.929 . S
C769 C768 1.399 . S
C769 C770 1.385 . S
C770 H756 0.931 . S
C770 C769 1.385 . S
C770 C771 1.389 . S
C771 C770 1.389 . S
C771 C772 1.387 . S
C772 H757 0.930 . S
C772 C767 1.390 . S
C772 C771 1.387 . S
H773 C785 0.930 . S
H774 C787 0.930 . S
H775 C788 0.930 . S
H776 C792 0.959 . S
H777 C792 0.959 . S
H778 C792 0.961 . S
H779 C793 0.960 . S
H780 C793 0.961 . S
H781 C793 0.959 . S
H782 C796 0.929 . S
H783 C797 0.931 . S
H784 C799 0.930 . S
C785 H773 0.930 . S
C785 C786 1.399 . S
C785 C790 1.399 . S
C786 C785 1.399 . S
C786 C787 1.376 . S
C787 H774 0.930 . S
C787 C786 1.376 . S
C787 C788 1.388 . S
C788 H775 0.930 . S
C788 C787 1.388 . S
C788 C789 1.390 . S
C789 C788 1.390 . S
C789 C790 1.394 . S
C789 C795 1.465 . S
C790 C785 1.399 . S
C790 C789 1.394 . S
C790 C791 1.516 . S
C791 C790 1.516 . S
C791 C792 1.502 . S
C791 C793 1.561 . S
C791 C794 1.526 . S
C792 H776 0.959 . S
C792 H777 0.959 . S
C792 H778 0.961 . S
C792 C791 1.502 . S
C793 H779 0.960 . S
C793 H780 0.961 . S
C793 H781 0.959 . S
C793 C791 1.561 . S
C794 C791 1.526 . S
C794 C795 1.396 . S
C794 C799 1.390 . S
C795 C789 1.465 . S
C795 C794 1.396 . S
C795 C796 1.399 . S
C796 H782 0.929 . S
C796 C795 1.399 . S
C796 C797 1.385 . S
C797 H783 0.931 . S
C797 C796 1.385 . S
C797 C798 1.389 . S
C798 C797 1.389 . S
C798 C799 1.387 . S
C799 H784 0.930 . S
C799 C794 1.390 . S
C799 C798 1.387 . S
H800 C812 0.930 . S
H801 C814 0.930 . S
H802 C815 0.930 . S
H803 C819 0.965 . S
H804 C819 0.998 . S
H805 C819 0.920 1_556 S
H806 C820 0.940 1_556 S
H807 C820 0.979 . S
H808 C820 0.961 . S
H809 C823 0.929 . S
H810 C824 0.931 . S
H811 C826 0.930 . S
C812 H800 0.930 . S
C812 C813 1.399 1_565 S
C812 C817 1.399 . S
C813 C812 1.399 1_545 S
C813 C814 1.376 . S
C814 H801 0.930 . S
C814 C813 1.376 . S
C814 C815 1.388 . S
C815 H802 0.930 . S
C815 C814 1.388 . S
C815 C816 1.390 . S
C816 C815 1.390 . S
C816 C817 1.394 1_545 S
C816 C822 1.465 1_556 S
C817 C812 1.399 . S
C817 C816 1.394 1_565 S
C817 C818 1.506 1_556 S
C818 C817 1.506 1_554 S
C818 C819 1.501 . S
C818 C820 1.561 . S
C818 C821 1.536 . S
C819 H803 0.965 . S
C819 H804 0.998 . S
C819 H805 0.920 1_554 S
C819 C818 1.501 . S
C820 H806 0.940 1_554 S
C820 H807 0.979 . S
C820 H808 0.961 . S
C820 C818 1.561 . S
C821 C818 1.536 . S
C821 C822 1.396 1_565 S
C821 C826 1.390 . S
C822 C816 1.465 1_554 S
C822 C821 1.396 1_545 S
C822 C823 1.399 . S
C823 H809 0.929 . S
C823 C822 1.399 . S
C823 C824 1.385 . S
C824 H810 0.931 . S
C824 C823 1.385 . S
C824 C825 1.389 . S
C825 C824 1.389 . S
C825 C826 1.387 1_545 S
C826 H811 0.930 . S
C826 C821 1.390 . S
C826 C825 1.387 1_565 S
H827 C839 0.930 . S
H828 C841 0.930 . S
H829 C842 0.930 . S
H830 C846 0.960 . S
H831 C846 0.960 . S
H832 C846 0.960 1_556 S
H833 C847 0.963 . S
H834 C847 0.958 1_554 S
H835 C847 0.959 1_554 S
H836 C850 0.929 . S
H837 C851 0.931 . S
H838 C853 0.930 . S
C839 H827 0.930 . S
C839 C840 1.399 . S
C839 C844 1.399 . S
C840 C839 1.399 . S
C840 C841 1.376 1_565 S
C841 H828 0.930 . S
C841 C840 1.376 1_545 S
C841 C842 1.388 . S
C842 H829 0.930 . S
C842 C841 1.388 . S
C842 C843 1.390 . S
C843 C842 1.390 . S
C843 C844 1.394 1_545 S
C843 C849 1.465 1_556 S
C844 C839 1.399 . S
C844 C843 1.394 1_565 S
C844 C845 1.518 . S
C845 C844 1.518 . S
C845 C846 1.502 1_556 S
C845 C847 1.561 . S
C845 C848 1.524 1_556 S
C846 H830 0.960 . S
C846 H831 0.960 . S
C846 H832 0.960 1_554 S
C846 C845 1.502 1_554 S
C847 H833 0.963 . S
C847 H834 0.958 1_556 S
C847 H835 0.959 1_556 S
C847 C845 1.561 . S
C848 C845 1.524 1_554 S
C848 C849 1.396 1_565 S
C848 C853 1.390 . S
C849 C843 1.465 1_554 S
C849 C848 1.396 1_545 S
C849 C850 1.399 . S
C850 H836 0.929 . S
C850 C849 1.399 . S
C850 C851 1.385 . S
C851 H837 0.931 . S
C851 C850 1.385 . S
C851 C852 1.389 1_545 S
C852 C851 1.389 1_565 S
C852 C853 1.387 . S
C853 H838 0.930 . S
C853 C848 1.390 . S
C853 C852 1.387 . S
H854 C866 0.930 . S
H855 C868 0.930 . S
H856 C869 0.930 . S
H857 C873 0.959 . S
H858 C873 0.959 . S
H859 C873 0.961 . S
H860 C874 0.960 . S
H861 C874 0.961 . S
H862 C874 0.959 . S
H863 C877 0.929 . S
H864 C878 0.931 . S
H865 C880 0.930 . S
C866 H854 0.930 . S
C866 C867 1.399 . S
C866 C871 1.399 . S
C867 C866 1.399 . S
C867 C868 1.376 1_565 S
C868 H855 0.930 . S
C868 C867 1.376 1_545 S
C868 C869 1.388 . S
C869 H856 0.930 . S
C869 C868 1.388 . S
C869 C870 1.390 . S
C870 C869 1.390 . S
C870 C871 1.394 1_545 S
C870 C876 1.465 . S
C871 C866 1.399 . S
C871 C870 1.394 1_565 S
C871 C872 1.516 . S
C872 C871 1.516 . S
C872 C873 1.502 . S
C872 C874 1.561 . S
C872 C875 1.526 . S
C873 H857 0.959 . S
C873 H858 0.959 . S
C873 H859 0.961 . S
C873 C872 1.502 . S
C874 H860 0.960 . S
C874 H861 0.961 . S
C874 H862 0.959 . S
C874 C872 1.561 . S
C875 C872 1.526 . S
C875 C876 1.396 1_565 S
C875 C880 1.390 . S
C876 C870 1.465 . S
C876 C875 1.396 1_545 S
C876 C877 1.399 . S
C877 H863 0.929 . S
C877 C876 1.399 . S
C877 C878 1.385 . S
C878 H864 0.931 . S
C878 C877 1.385 . S
C878 C879 1.389 1_545 S
C879 C878 1.389 1_565 S
C879 C880 1.387 . S
C880 H865 0.930 . S
C880 C875 1.390 . S
C880 C879 1.387 . S
H881 C893 0.930 . S
H882 C895 0.930 . S
H883 C896 0.930 . S
H884 C900 0.959 . S
H885 C900 0.959 . S
H886 C900 0.961 . S
H887 C901 0.960 . S
H888 C901 0.961 . S
H889 C901 0.959 . S
H890 C904 0.929 . S
H891 C905 0.931 . S
H892 C907 0.930 . S
C893 H881 0.930 . S
C893 C894 1.399 . S
C893 C898 1.399 . S
C894 C893 1.399 . S
C894 C895 1.376 1_545 S
C895 H882 0.930 . S
C895 C894 1.376 1_565 S
C895 C896 1.388 . S
C896 H883 0.930 . S
C896 C895 1.388 . S
C896 C897 1.390 . S
C897 C896 1.390 . S
C897 C898 1.394 1_565 S
C897 C903 1.465 . S
C898 C893 1.399 . S
C898 C897 1.394 1_545 S
C898 C899 1.516 . S
C899 C898 1.516 . S
C899 C900 1.502 . S
C899 C901 1.561 . S
C899 C902 1.526 . S
C900 H884 0.959 . S
C900 H885 0.959 . S
C900 H886 0.961 . S
C900 C899 1.502 . S
C901 H887 0.960 . S
C901 H888 0.961 . S
C901 H889 0.959 . S
C901 C899 1.561 . S
C902 C899 1.526 . S
C902 C903 1.396 1_545 S
C902 C907 1.390 . S
C903 C897 1.465 . S
C903 C902 1.396 1_565 S
C903 C904 1.399 . S
C904 H890 0.929 . S
C904 C903 1.399 . S
C904 C905 1.385 . S
C905 H891 0.931 . S
C905 C904 1.385 . S
C905 C906 1.389 1_565 S
C906 C905 1.389 1_545 S
C906 C907 1.387 . S
C907 H892 0.930 . S
C907 C902 1.390 . S
C907 C906 1.387 . S
H908 C920 0.930 . S
H909 C922 0.930 . S
H910 C923 0.930 . S
H911 C927 0.960 . S
H912 C927 0.967 . S
H913 C927 0.952 1_554 S
H914 C928 0.969 . S
H915 C928 0.953 1_556 S
H916 C928 0.955 1_556 S
H917 C931 0.929 . S
H918 C932 0.931 . S
H919 C934 0.930 . S
C920 H908 0.930 . S
C920 C921 1.399 . S
C920 C925 1.399 . S
C921 C920 1.399 . S
C921 C922 1.376 . S
C922 H909 0.930 . S
C922 C921 1.376 . S
C922 C923 1.388 . S
C923 H910 0.930 . S
C923 C922 1.388 . S
C923 C924 1.390 . S
C924 C923 1.390 . S
C924 C925 1.394 . S
C924 C930 1.465 1_554 S
C925 C920 1.399 . S
C925 C924 1.394 . S
C925 C926 1.518 . S
C926 C925 1.518 . S
C926 C927 1.502 1_554 S
C926 C928 1.561 . S
C926 C929 1.524 1_554 S
C927 H911 0.960 . S
C927 H912 0.967 . S
C927 H913 0.952 1_556 S
C927 C926 1.502 1_556 S
C928 H914 0.969 . S
C928 H915 0.953 1_554 S
C928 H916 0.955 1_554 S
C928 C926 1.561 . S
C929 C926 1.524 1_556 S
C929 C930 1.396 . S
C929 C934 1.390 . S
C930 C924 1.465 1_556 S
C930 C929 1.396 . S
C930 C931 1.399 . S
C931 H917 0.929 . S
C931 C930 1.399 . S
C931 C932 1.385 . S
C932 H918 0.931 . S
C932 C931 1.385 . S
C932 C933 1.389 . S
C933 C932 1.389 . S
C933 C934 1.387 . S
C934 H919 0.930 . S
C934 C929 1.390 . S
C934 C933 1.387 . S
H935 C947 0.930 . S
H936 C949 0.930 . S
H937 C950 0.930 . S
H938 C954 0.960 . S
H939 C954 0.960 . S
H940 C954 0.960 1_556 S
H941 C955 0.964 . S
H942 C955 0.958 1_554 S
H943 C955 0.959 1_554 S
H944 C958 0.929 . S
H945 C959 0.931 . S
H946 C961 0.930 . S
C947 H935 0.930 . S
C947 C948 1.399 . S
C947 C952 1.399 . S
C948 C947 1.399 . S
C948 C949 1.376 . S
C949 H936 0.930 . S
C949 C948 1.376 . S
C949 C950 1.388 . S
C950 H937 0.930 . S
C950 C949 1.388 . S
C950 C951 1.390 . S
C951 C950 1.390 . S
C951 C952 1.394 . S
C951 C957 1.465 1_556 S
C952 C947 1.399 . S
C952 C951 1.394 . S
C952 C953 1.518 . S
C953 C952 1.518 . S
C953 C954 1.502 1_556 S
C953 C955 1.561 . S
C953 C956 1.524 1_556 S
C954 H938 0.960 . S
C954 H939 0.960 . S
C954 H940 0.960 1_554 S
C954 C953 1.502 1_554 S
C955 H941 0.964 . S
C955 H942 0.958 1_556 S
C955 H943 0.959 1_556 S
C955 C953 1.561 . S
C956 C953 1.524 1_554 S
C956 C957 1.396 . S
C956 C961 1.390 . S
C957 C951 1.465 1_554 S
C957 C956 1.396 . S
C957 C958 1.399 . S
C958 H944 0.929 . S
C958 C957 1.399 . S
C958 C959 1.385 . S
C959 H945 0.931 . S
C959 C958 1.385 . S
C959 C960 1.389 . S
C960 C959 1.389 . S
C960 C961 1.387 . S
C961 H946 0.930 . S
C961 C956 1.390 . S
C961 C960 1.387 . S
H962 C974 0.930 . S
H963 C976 0.930 . S
H964 C977 0.930 . S
H965 C981 0.959 . S
H966 C981 0.959 . S
H967 C981 0.961 . S
H968 C982 0.960 . S
H969 C982 0.961 . S
H970 C982 0.959 . S
H971 C985 0.929 . S
H972 C986 0.931 . S
H973 C988 0.930 . S
C974 H962 0.930 . S
C974 C975 1.399 . S
C974 C979 1.399 . S
C975 C974 1.399 . S
C975 C976 1.376 . S
C976 H963 0.930 . S
C976 C975 1.376 . S
C976 C977 1.388 . S
C977 H964 0.930 . S
C977 C976 1.388 . S
C977 C978 1.390 . S
C978 C977 1.390 . S
C978 C979 1.394 . S
C978 C984 1.465 . S
C979 C974 1.399 . S
C979 C978 1.394 . S
C979 C980 1.516 . S
C980 C979 1.516 . S
C980 C981 1.502 . S
C980 C982 1.561 . S
C980 C983 1.526 . S
C981 H965 0.959 . S
C981 H966 0.959 . S
C981 H967 0.961 . S
C981 C980 1.502 . S
C982 H968 0.960 . S
C982 H969 0.961 . S
C982 H970 0.959 . S
C982 C980 1.561 . S
C983 C980 1.526 . S
C983 C984 1.396 . S
C983 C988 1.390 . S
C984 C978 1.465 . S
C984 C983 1.396 . S
C984 C985 1.399 . S
C985 H971 0.929 . S
C985 C984 1.399 . S
C985 C986 1.385 . S
C986 H972 0.931 . S
C986 C985 1.385 . S
C986 C987 1.389 . S
C987 C986 1.389 . S
C987 C988 1.387 . S
C988 H973 0.930 . S
C988 C983 1.390 . S
C988 C987 1.387 . S
H989 C1001 0.930 . S
H990 C1003 0.930 . S
H991 C1004 0.930 . S
H992 C1008 0.959 . S
H993 C1008 0.959 . S
H994 C1008 0.961 . S
H995 C1009 0.960 . S
H996 C1009 0.961 . S
H997 C1009 0.959 . S
H998 C1012 0.929 . S
H999 C1013 0.931 . S
H1000 C1015 0.930 . S
C1001 H989 0.930 . S
C1001 C1002 1.399 . S
C1001 C1006 1.399 . S
C1002 C1001 1.399 . S
C1002 C1003 1.376 . S
C1003 H990 0.930 . S
C1003 C1002 1.376 . S
C1003 C1004 1.388 . S
C1004 H991 0.930 . S
C1004 C1003 1.388 . S
C1004 C1005 1.390 . S
C1005 C1004 1.390 . S
C1005 C1006 1.394 . S
C1005 C1011 1.465 . S
C1006 C1001 1.399 . S
C1006 C1005 1.394 . S
C1006 C1007 1.516 . S
C1007 C1006 1.516 . S
C1007 C1008 1.502 . S
C1007 C1009 1.561 . S
C1007 C1010 1.526 . S
C1008 H992 0.959 . S
C1008 H993 0.959 . S
C1008 H994 0.961 . S
C1008 C1007 1.502 . S
C1009 H995 0.960 . S
C1009 H996 0.961 . S
C1009 H997 0.959 . S
C1009 C1007 1.561 . S
C1010 C1007 1.526 . S
C1010 C1011 1.396 . S
C1010 C1015 1.390 . S
C1011 C1005 1.465 . S
C1011 C1010 1.396 . S
C1011 C1012 1.399 . S
C1012 H998 0.929 . S
C1012 C1011 1.399 . S
C1012 C1013 1.385 . S
C1013 H999 0.931 . S
C1013 C1012 1.385 . S
C1013 C1014 1.389 . S
C1014 C1013 1.389 . S
C1014 C1015 1.387 . S
C1015 H1000 0.930 . S
C1015 C1010 1.390 . S
C1015 C1014 1.387 . S
H1016 C1028 0.930 . S
H1017 C1030 0.930 . S
H1018 C1031 0.930 1_545 S
H1019 C1035 0.959 . S
H1020 C1035 0.959 . S
H1021 C1035 0.961 1_655 S
H1022 C1036 0.960 . S
H1023 C1036 0.961 1_455 S
H1024 C1036 0.959 . S
H1025 C1039 0.929 . S
H1026 C1040 0.931 . S
H1027 C1042 0.930 . S
C1028 H1016 0.930 . S
C1028 C1029 1.399 . S
C1028 C1033 1.399 . S
C1029 C1028 1.399 . S
C1029 C1030 1.376 . S
C1030 H1017 0.930 . S
C1030 C1029 1.376 . S
C1030 C1031 1.388 . S
C1031 H1018 0.930 1_565 S
C1031 C1030 1.388 . S
C1031 C1032 1.390 1_565 S
C1032 C1031 1.390 1_545 S
C1032 C1033 1.394 1_545 S
C1032 C1038 1.465 1_655 S
C1033 C1028 1.399 . S
C1033 C1032 1.394 1_565 S
C1033 C1034 1.512 1_655 S
C1034 C1033 1.512 1_455 S
C1034 C1035 1.503 . S
C1034 C1036 1.560 1_465 S
C1034 C1037 1.530 1_565 S
C1035 H1019 0.959 . S
C1035 H1020 0.959 . S
C1035 H1021 0.961 1_455 S
C1035 C1034 1.503 . S
C1036 H1022 0.960 . S
C1036 H1023 0.961 1_655 S
C1036 H1024 0.959 . S
C1036 C1034 1.560 1_645 S
C1037 C1034 1.530 1_545 S
C1037 C1038 1.396 . S
C1037 C1042 1.390 . S
C1038 C1032 1.465 1_455 S
C1038 C1037 1.396 . S
C1038 C1039 1.399 . S
C1039 H1025 0.929 . S
C1039 C1038 1.399 . S
C1039 C1040 1.385 . S
C1040 H1026 0.931 . S
C1040 C1039 1.385 . S
C1040 C1041 1.389 . S
C1041 C1040 1.389 . S
C1041 C1042 1.387 . S
C1042 H1027 0.930 . S
C1042 C1037 1.390 . S
C1042 C1041 1.387 . S
H1043 C1055 0.930 . S
H1044 C1057 0.930 . S
H1045 C1058 0.930 . S
H1046 C1062 0.959 . S
H1047 C1062 0.959 . S
H1048 C1062 0.961 1_655 S
H1049 C1063 0.973 1_545 S
H1050 C1063 0.947 1_455 S
H1051 C1063 0.962 . S
H1052 C1066 0.929 . S
H1053 C1067 0.931 . S
H1054 C1069 0.930 1_545 S
C1055 H1043 0.930 . S
C1055 C1056 1.399 . S
C1055 C1060 1.399 . S
C1056 C1055 1.399 . S
C1056 C1057 1.376 1_545 S
C1057 H1044 0.930 . S
C1057 C1056 1.376 1_565 S
C1057 C1058 1.388 . S
C1058 H1045 0.930 . S
C1058 C1057 1.388 . S
C1058 C1059 1.390 . S
C1059 C1058 1.390 . S
C1059 C1060 1.394 1_565 S
C1059 C1065 1.465 1_655 S
C1060 C1055 1.399 . S
C1060 C1059 1.394 1_545 S
C1060 C1061 1.516 1_655 S
C1061 C1060 1.516 1_455 S
C1061 C1062 1.502 . S
C1061 C1063 1.559 1_445 S
C1061 C1064 1.526 1_545 S
C1062 H1046 0.959 . S
C1062 H1047 0.959 . S
C1062 H1048 0.961 1_455 S
C1062 C1061 1.502 . S
C1063 H1049 0.973 1_565 S
C1063 H1050 0.947 1_655 S
C1063 H1051 0.962 . S
C1063 C1061 1.559 1_665 S
C1064 C1061 1.526 1_565 S
C1064 C1065 1.396 . S
C1064 C1069 1.390 . S
C1065 C1059 1.465 1_455 S
C1065 C1064 1.396 . S
C1065 C1066 1.399 . S
C1066 H1052 0.929 . S
C1066 C1065 1.399 . S
C1066 C1067 1.385 . S
C1067 H1053 0.931 . S
C1067 C1066 1.385 . S
C1067 C1068 1.389 . S
C1068 C1067 1.389 . S
C1068 C1069 1.387 . S
C1069 H1054 0.930 1_565 S
C1069 C1064 1.390 . S
C1069 C1068 1.387 . S
H1070 C1082 0.930 . S
H1071 C1084 0.930 . S
H1072 C1085 0.930 . S
H1073 C1089 0.959 . S
H1074 C1089 0.959 1_655 S
H1075 C1089 0.961 . S
H1076 C1090 0.960 1_455 S
H1077 C1090 0.961 . S
H1078 C1090 0.959 . S
H1079 C1093 0.929 . S
H1080 C1094 0.931 . S
H1081 C1096 0.930 . S
C1082 H1070 0.930 . S
C1082 C1083 1.399 . S
C1082 C1087 1.399 . S
C1083 C1082 1.399 . S
C1083 C1084 1.376 . S
C1084 H1071 0.930 . S
C1084 C1083 1.376 . S
C1084 C1085 1.388 . S
C1085 H1072 0.930 . S
C1085 C1084 1.388 . S
C1085 C1086 1.390 . S
C1086 C1085 1.390 . S
C1086 C1087 1.394 . S
C1086 C1092 1.465 1_455 S
C1087 C1082 1.399 . S
C1087 C1086 1.394 . S
C1087 C1088 1.516 1_545 S
C1088 C1087 1.516 1_565 S
C1088 C1089 1.502 . S
C1088 C1090 1.561 1_465 S
C1088 C1091 1.526 1_455 S
C1089 H1073 0.959 . S
C1089 H1074 0.959 1_455 S
C1089 H1075 0.961 . S
C1089 C1088 1.502 . S
C1090 H1076 0.960 1_655 S
C1090 H1077 0.961 . S
C1090 H1078 0.959 . S
C1090 C1088 1.561 1_645 S
C1091 C1088 1.526 1_655 S
C1091 C1092 1.396 1_565 S
C1091 C1096 1.390 . S
C1092 C1086 1.465 1_655 S
C1092 C1091 1.396 1_545 S
C1092 C1093 1.399 . S
C1093 H1079 0.929 . S
C1093 C1092 1.399 . S
C1093 C1094 1.385 1_545 S
C1094 H1080 0.931 . S
C1094 C1093 1.385 1_565 S
C1094 C1095 1.389 . S
C1095 C1094 1.389 . S
C1095 C1096 1.387 . S
C1096 H1081 0.930 . S
C1096 C1091 1.390 . S
C1096 C1095 1.387 . S
H1097 C1109 0.930 . S
H1098 C1111 0.930 . S
H1099 C1112 0.930 . S
H1100 C1116 0.959 . S
H1101 C1116 0.959 1_455 S
H1102 C1116 0.961 . S
H1103 C1117 0.960 1_655 S
H1104 C1117 0.961 . S
H1105 C1117 0.959 . S
H1106 C1120 0.926 1_545 S
H1107 C1121 0.931 . S
H1108 C1123 0.930 . S
C1109 H1097 0.930 . S
C1109 C1110 1.399 . S
C1109 C1114 1.399 . S
C1110 C1109 1.399 . S
C1110 C1111 1.376 . S
C1111 H1098 0.930 . S
C1111 C1110 1.376 . S
C1111 C1112 1.388 . S
C1112 H1099 0.930 . S
C1112 C1111 1.388 . S
C1112 C1113 1.390 . S
C1113 C1112 1.390 . S
C1113 C1114 1.394 . S
C1113 C1119 1.465 1_655 S
C1114 C1109 1.399 . S
C1114 C1113 1.394 . S
C1114 C1115 1.518 1_545 S
C1115 C1114 1.518 1_565 S
C1115 C1116 1.502 . S
C1115 C1117 1.561 1_665 S
C1115 C1118 1.524 1_655 S
C1116 H1100 0.959 . S
C1116 H1101 0.959 1_655 S
C1116 H1102 0.961 . S
C1116 C1115 1.502 . S
C1117 H1103 0.960 1_455 S
C1117 H1104 0.961 . S
C1117 H1105 0.959 . S
C1117 C1115 1.561 1_445 S
C1118 C1115 1.524 1_455 S
C1118 C1119 1.396 1_565 S
C1118 C1123 1.390 . S
C1119 C1113 1.465 1_455 S
C1119 C1118 1.396 1_545 S
C1119 C1120 1.398 1_545 S
C1120 H1106 0.926 1_565 S
C1120 C1119 1.398 1_565 S
C1120 C1121 1.389 . S
C1121 H1107 0.931 . S
C1121 C1120 1.389 . S
C1121 C1122 1.389 . S
C1122 C1121 1.389 . S
C1122 C1123 1.387 . S
C1123 H1108 0.930 . S
C1123 C1118 1.390 . S
C1123 C1122 1.387 . S
H1124 C1136 0.930 . S
H1125 C1138 0.930 . S
H1126 C1139 0.930 . S
H1127 C1143 0.959 . S
H1128 C1143 0.959 . S
H1129 C1143 0.961 . S
H1130 C1144 0.960 . S
H1131 C1144 0.961 . S
H1132 C1144 0.959 . S
H1133 C1147 0.929 . S
H1134 C1148 0.931 . S
H1135 C1150 0.930 . S
C1136 H1124 0.930 . S
C1136 C1137 1.399 . S
C1136 C1141 1.399 . S
C1137 C1136 1.399 . S
C1137 C1138 1.376 . S
C1138 H1125 0.930 . S
C1138 C1137 1.376 . S
C1138 C1139 1.388 . S
C1139 H1126 0.930 . S
C1139 C1138 1.388 . S
C1139 C1140 1.390 . S
C1140 C1139 1.390 . S
C1140 C1141 1.394 . S
C1140 C1146 1.465 . S
C1141 C1136 1.399 . S
C1141 C1140 1.394 . S
C1141 C1142 1.516 . S
C1142 C1141 1.516 . S
C1142 C1143 1.502 . S
C1142 C1144 1.561 . S
C1142 C1145 1.526 . S
C1143 H1127 0.959 . S
C1143 H1128 0.959 . S
C1143 H1129 0.961 . S
C1143 C1142 1.502 . S
C1144 H1130 0.960 . S
C1144 H1131 0.961 . S
C1144 H1132 0.959 . S
C1144 C1142 1.561 . S
C1145 C1142 1.526 . S
C1145 C1146 1.396 . S
C1145 C1150 1.390 . S
C1146 C1140 1.465 . S
C1146 C1145 1.396 . S
C1146 C1147 1.399 . S
C1147 H1133 0.929 . S
C1147 C1146 1.399 . S
C1147 C1148 1.385 . S
C1148 H1134 0.931 . S
C1148 C1147 1.385 . S
C1148 C1149 1.389 . S
C1149 C1148 1.389 . S
C1149 C1150 1.387 . S
C1150 H1135 0.930 . S
C1150 C1145 1.390 . S
C1150 C1149 1.387 . S
H1151 C1163 0.930 . S
H1152 C1165 0.930 . S
H1153 C1166 0.930 . S
H1154 C1170 0.959 . S
H1155 C1170 0.959 . S
H1156 C1170 0.961 . S
H1157 C1171 0.960 . S
H1158 C1171 0.961 . S
H1159 C1171 0.959 . S
H1160 C1174 0.929 . S
H1161 C1175 0.931 . S
H1162 C1177 0.930 . S
C1163 H1151 0.930 . S
C1163 C1164 1.399 . S
C1163 C1168 1.399 . S
C1164 C1163 1.399 . S
C1164 C1165 1.376 . S
C1165 H1152 0.930 . S
C1165 C1164 1.376 . S
C1165 C1166 1.388 . S
C1166 H1153 0.930 . S
C1166 C1165 1.388 . S
C1166 C1167 1.390 . S
C1167 C1166 1.390 . S
C1167 C1168 1.394 . S
C1167 C1173 1.465 . S
C1168 C1163 1.399 . S
C1168 C1167 1.394 . S
C1168 C1169 1.516 . S
C1169 C1168 1.516 . S
C1169 C1170 1.502 . S
C1169 C1171 1.561 . S
C1169 C1172 1.526 . S
C1170 H1154 0.959 . S
C1170 H1155 0.959 . S
C1170 H1156 0.961 . S
C1170 C1169 1.502 . S
C1171 H1157 0.960 . S
C1171 H1158 0.961 . S
C1171 H1159 0.959 . S
C1171 C1169 1.561 . S
C1172 C1169 1.526 . S
C1172 C1173 1.396 . S
C1172 C1177 1.390 . S
C1173 C1167 1.465 . S
C1173 C1172 1.396 . S
C1173 C1174 1.399 . S
C1174 H1160 0.929 . S
C1174 C1173 1.399 . S
C1174 C1175 1.385 . S
C1175 H1161 0.931 . S
C1175 C1174 1.385 . S
C1175 C1176 1.389 . S
C1176 C1175 1.389 . S
C1176 C1177 1.387 . S
C1177 H1162 0.930 . S
C1177 C1172 1.390 . S
C1177 C1176 1.387 . S
H1178 C1190 0.930 . S
H1179 C1192 0.930 . S
H1180 C1193 0.930 . S
H1181 C1197 0.959 . S
H1182 C1197 0.959 . S
H1183 C1197 0.961 . S
H1184 C1198 0.960 . S
H1185 C1198 0.961 . S
H1186 C1198 0.959 . S
H1187 C1201 0.929 . S
H1188 C1202 0.931 . S
H1189 C1204 0.930 . S
C1190 H1178 0.930 . S
C1190 C1191 1.399 . S
C1190 C1195 1.399 . S
C1191 C1190 1.399 . S
C1191 C1192 1.376 . S
C1192 H1179 0.930 . S
C1192 C1191 1.376 . S
C1192 C1193 1.388 . S
C1193 H1180 0.930 . S
C1193 C1192 1.388 . S
C1193 C1194 1.390 . S
C1194 C1193 1.390 . S
C1194 C1195 1.394 . S
C1194 C1200 1.465 . S
C1195 C1190 1.399 . S
C1195 C1194 1.394 . S
C1195 C1196 1.516 . S
C1196 C1195 1.516 . S
C1196 C1197 1.502 . S
C1196 C1198 1.561 . S
C1196 C1199 1.526 . S
C1197 H1181 0.959 . S
C1197 H1182 0.959 . S
C1197 H1183 0.961 . S
C1197 C1196 1.502 . S
C1198 H1184 0.960 . S
C1198 H1185 0.961 . S
C1198 H1186 0.959 . S
C1198 C1196 1.561 . S
C1199 C1196 1.526 . S
C1199 C1200 1.396 . S
C1199 C1204 1.390 . S
C1200 C1194 1.465 . S
C1200 C1199 1.396 . S
C1200 C1201 1.399 . S
C1201 H1187 0.929 . S
C1201 C1200 1.399 . S
C1201 C1202 1.385 . S
C1202 H1188 0.931 . S
C1202 C1201 1.385 . S
C1202 C1203 1.389 . S
C1203 C1202 1.389 . S
C1203 C1204 1.387 . S
C1204 H1189 0.930 . S
C1204 C1199 1.390 . S
C1204 C1203 1.387 . S
H1205 C1217 0.930 . S
H1206 C1219 0.930 . S
H1207 C1220 0.930 . S
H1208 C1224 0.959 . S
H1209 C1224 0.959 . S
H1210 C1224 0.961 . S
H1211 C1225 0.960 . S
H1212 C1225 0.961 . S
H1213 C1225 0.959 . S
H1214 C1228 0.929 . S
H1215 C1229 0.931 . S
H1216 C1231 0.930 . S
C1217 H1205 0.930 . S
C1217 C1218 1.399 . S
C1217 C1222 1.399 . S
C1218 C1217 1.399 . S
C1218 C1219 1.376 . S
C1219 H1206 0.930 . S
C1219 C1218 1.376 . S
C1219 C1220 1.388 . S
C1220 H1207 0.930 . S
C1220 C1219 1.388 . S
C1220 C1221 1.390 . S
C1221 C1220 1.390 . S
C1221 C1222 1.394 . S
C1221 C1227 1.465 . S
C1222 C1217 1.399 . S
C1222 C1221 1.394 . S
C1222 C1223 1.516 . S
C1223 C1222 1.516 . S
C1223 C1224 1.502 . S
C1223 C1225 1.561 . S
C1223 C1226 1.526 . S
C1224 H1208 0.959 . S
C1224 H1209 0.959 . S
C1224 H1210 0.961 . S
C1224 C1223 1.502 . S
C1225 H1211 0.960 . S
C1225 H1212 0.961 . S
C1225 H1213 0.959 . S
C1225 C1223 1.561 . S
C1226 C1223 1.526 . S
C1226 C1227 1.396 . S
C1226 C1231 1.390 . S
C1227 C1221 1.465 . S
C1227 C1226 1.396 . S
C1227 C1228 1.399 . S
C1228 H1214 0.929 . S
C1228 C1227 1.399 . S
C1228 C1229 1.385 . S
C1229 H1215 0.931 . S
C1229 C1228 1.385 . S
C1229 C1230 1.389 . S
C1230 C1229 1.389 . S
C1230 C1231 1.387 . S
C1231 H1216 0.930 . S
C1231 C1226 1.390 . S
C1231 C1230 1.387 . S
H1232 C1244 0.930 . S
H1233 C1246 0.930 . S
H1234 C1247 0.930 . S
H1235 C1251 0.959 . S
H1236 C1251 0.959 . S
H1237 C1251 0.961 . S
H1238 C1252 0.960 . S
H1239 C1252 0.961 . S
H1240 C1252 0.959 . S
H1241 C1255 0.929 . S
H1242 C1256 0.931 . S
H1243 C1258 0.930 . S
C1244 H1232 0.930 . S
C1244 C1245 1.399 . S
C1244 C1249 1.399 . S
C1245 C1244 1.399 . S
C1245 C1246 1.376 . S
C1246 H1233 0.930 . S
C1246 C1245 1.376 . S
C1246 C1247 1.388 . S
C1247 H1234 0.930 . S
C1247 C1246 1.388 . S
C1247 C1248 1.390 . S
C1248 C1247 1.390 . S
C1248 C1249 1.394 . S
C1248 C1254 1.465 . S
C1249 C1244 1.399 . S
C1249 C1248 1.394 . S
C1249 C1250 1.516 . S
C1250 C1249 1.516 . S
C1250 C1251 1.502 . S
C1250 C1252 1.561 . S
C1250 C1253 1.526 . S
C1251 H1235 0.959 . S
C1251 H1236 0.959 . S
C1251 H1237 0.961 . S
C1251 C1250 1.502 . S
C1252 H1238 0.960 . S
C1252 H1239 0.961 . S
C1252 H1240 0.959 . S
C1252 C1250 1.561 . S
C1253 C1250 1.526 . S
C1253 C1254 1.396 . S
C1253 C1258 1.390 . S
C1254 C1248 1.465 . S
C1254 C1253 1.396 . S
C1254 C1255 1.399 . S
C1255 H1241 0.929 . S
C1255 C1254 1.399 . S
C1255 C1256 1.385 . S
C1256 H1242 0.931 . S
C1256 C1255 1.385 . S
C1256 C1257 1.389 . S
C1257 C1256 1.389 . S
C1257 C1258 1.387 . S
C1258 H1243 0.930 . S
C1258 C1253 1.390 . S
C1258 C1257 1.387 . S
H1259 C1271 0.930 . S
H1260 C1273 0.930 . S
H1261 C1274 0.930 . S
H1262 C1278 0.959 . S
H1263 C1278 0.959 . S
H1264 C1278 0.961 . S
H1265 C1279 0.960 . S
H1266 C1279 0.961 . S
H1267 C1279 0.959 . S
H1268 C1282 0.929 . S
H1269 C1283 0.931 . S
H1270 C1285 0.930 . S
C1271 H1259 0.930 . S
C1271 C1272 1.399 . S
C1271 C1276 1.399 . S
C1272 C1271 1.399 . S
C1272 C1273 1.376 . S
C1273 H1260 0.930 . S
C1273 C1272 1.376 . S
C1273 C1274 1.388 . S
C1274 H1261 0.930 . S
C1274 C1273 1.388 . S
C1274 C1275 1.390 . S
C1275 C1274 1.390 . S
C1275 C1276 1.394 . S
C1275 C1281 1.465 . S
C1276 C1271 1.399 . S
C1276 C1275 1.394 . S
C1276 C1277 1.516 . S
C1277 C1276 1.516 . S
C1277 C1278 1.502 . S
C1277 C1279 1.561 . S
C1277 C1280 1.526 . S
C1278 H1262 0.959 . S
C1278 H1263 0.959 . S
C1278 H1264 0.961 . S
C1278 C1277 1.502 . S
C1279 H1265 0.960 . S
C1279 H1266 0.961 . S
C1279 H1267 0.959 . S
C1279 C1277 1.561 . S
C1280 C1277 1.526 . S
C1280 C1281 1.396 . S
C1280 C1285 1.390 . S
C1281 C1275 1.465 . S
C1281 C1280 1.396 . S
C1281 C1282 1.399 . S
C1282 H1268 0.929 . S
C1282 C1281 1.399 . S
C1282 C1283 1.385 . S
C1283 H1269 0.931 . S
C1283 C1282 1.385 . S
C1283 C1284 1.389 . S
C1284 C1283 1.389 . S
C1284 C1285 1.387 . S
C1285 H1270 0.930 . S
C1285 C1280 1.390 . S
C1285 C1284 1.387 . S
H1286 C1298 0.930 . S
H1287 C1300 0.930 . S
H1288 C1301 0.930 . S
H1289 C1305 0.959 . S
H1290 C1305 0.959 . S
H1291 C1305 0.961 . S
H1292 C1306 0.960 . S
H1293 C1306 0.961 . S
H1294 C1306 0.959 . S
H1295 C1309 0.929 . S
H1296 C1310 0.931 . S
H1297 C1312 0.930 . S
C1298 H1286 0.930 . S
C1298 C1299 1.399 . S
C1298 C1303 1.399 . S
C1299 C1298 1.399 . S
C1299 C1300 1.376 . S
C1300 H1287 0.930 . S
C1300 C1299 1.376 . S
C1300 C1301 1.388 . S
C1301 H1288 0.930 . S
C1301 C1300 1.388 . S
C1301 C1302 1.390 . S
C1302 C1301 1.390 . S
C1302 C1303 1.394 . S
C1302 C1308 1.465 . S
C1303 C1298 1.399 . S
C1303 C1302 1.394 . S
C1303 C1304 1.516 . S
C1304 C1303 1.516 . S
C1304 C1305 1.502 . S
C1304 C1306 1.561 . S
C1304 C1307 1.526 . S
C1305 H1289 0.959 . S
C1305 H1290 0.959 . S
C1305 H1291 0.961 . S
C1305 C1304 1.502 . S
C1306 H1292 0.960 . S
C1306 H1293 0.961 . S
C1306 H1294 0.959 . S
C1306 C1304 1.561 . S
C1307 C1304 1.526 . S
C1307 C1308 1.396 . S
C1307 C1312 1.390 . S
C1308 C1302 1.465 . S
C1308 C1307 1.396 . S
C1308 C1309 1.399 . S
C1309 H1295 0.929 . S
C1309 C1308 1.399 . S
C1309 C1310 1.385 . S
C1310 H1296 0.931 . S
C1310 C1309 1.385 . S
C1310 C1311 1.389 . S
C1311 C1310 1.389 . S
C1311 C1312 1.387 . S
C1312 H1297 0.930 . S
C1312 C1307 1.390 . S
C1312 C1311 1.387 . S
H1313 C1325 0.930 . S
H1314 C1327 0.930 . S
H1315 C1328 0.930 . S
H1316 C1332 0.959 . S
H1317 C1332 0.959 . S
H1318 C1332 0.961 . S
H1319 C1333 0.960 . S
H1320 C1333 0.961 . S
H1321 C1333 0.959 . S
H1322 C1336 0.929 . S
H1323 C1337 0.931 . S
H1324 C1339 0.930 . S
C1325 H1313 0.930 . S
C1325 C1326 1.399 . S
C1325 C1330 1.399 . S
C1326 C1325 1.399 . S
C1326 C1327 1.376 . S
C1327 H1314 0.930 . S
C1327 C1326 1.376 . S
C1327 C1328 1.388 . S
C1328 H1315 0.930 . S
C1328 C1327 1.388 . S
C1328 C1329 1.390 . S
C1329 C1328 1.390 . S
C1329 C1330 1.394 . S
C1329 C1335 1.465 . S
C1330 C1325 1.399 . S
C1330 C1329 1.394 . S
C1330 C1331 1.516 . S
C1331 C1330 1.516 . S
C1331 C1332 1.502 . S
C1331 C1333 1.561 . S
C1331 C1334 1.526 . S
C1332 H1316 0.959 . S
C1332 H1317 0.959 . S
C1332 H1318 0.961 . S
C1332 C1331 1.502 . S
C1333 H1319 0.960 . S
C1333 H1320 0.961 . S
C1333 H1321 0.959 . S
C1333 C1331 1.561 . S
C1334 C1331 1.526 . S
C1334 C1335 1.396 . S
C1334 C1339 1.390 . S
C1335 C1329 1.465 . S
C1335 C1334 1.396 . S
C1335 C1336 1.399 . S
C1336 H1322 0.929 . S
C1336 C1335 1.399 . S
C1336 C1337 1.385 . S
C1337 H1323 0.931 . S
C1337 C1336 1.385 . S
C1337 C1338 1.389 . S
C1338 C1337 1.389 . S
C1338 C1339 1.387 . S
C1339 H1324 0.930 . S
C1339 C1334 1.390 . S
C1339 C1338 1.387 . S
H1340 C1352 0.930 . S
H1341 C1354 0.930 . S
H1342 C1355 0.930 . S
H1343 C1359 0.959 . S
H1344 C1359 0.959 . S
H1345 C1359 0.961 . S
H1346 C1360 0.960 . S
H1347 C1360 0.961 . S
H1348 C1360 0.959 . S
H1349 C1363 0.929 . S
H1350 C1364 0.931 . S
H1351 C1366 0.930 . S
C1352 H1340 0.930 . S
C1352 C1353 1.399 . S
C1352 C1357 1.399 . S
C1353 C1352 1.399 . S
C1353 C1354 1.376 . S
C1354 H1341 0.930 . S
C1354 C1353 1.376 . S
C1354 C1355 1.388 . S
C1355 H1342 0.930 . S
C1355 C1354 1.388 . S
C1355 C1356 1.390 . S
C1356 C1355 1.390 . S
C1356 C1357 1.394 . S
C1356 C1362 1.465 . S
C1357 C1352 1.399 . S
C1357 C1356 1.394 . S
C1357 C1358 1.516 . S
C1358 C1357 1.516 . S
C1358 C1359 1.502 . S
C1358 C1360 1.561 . S
C1358 C1361 1.526 . S
C1359 H1343 0.959 . S
C1359 H1344 0.959 . S
C1359 H1345 0.961 . S
C1359 C1358 1.502 . S
C1360 H1346 0.960 . S
C1360 H1347 0.961 . S
C1360 H1348 0.959 . S
C1360 C1358 1.561 . S
C1361 C1358 1.526 . S
C1361 C1362 1.396 . S
C1361 C1366 1.390 . S
C1362 C1356 1.465 . S
C1362 C1361 1.396 . S
C1362 C1363 1.399 . S
C1363 H1349 0.929 . S
C1363 C1362 1.399 . S
C1363 C1364 1.385 . S
C1364 H1350 0.931 . S
C1364 C1363 1.385 . S
C1364 C1365 1.389 . S
C1365 C1364 1.389 . S
C1365 C1366 1.387 . S
C1366 H1351 0.930 . S
C1366 C1361 1.390 . S
C1366 C1365 1.387 . S
H1367 C1379 0.930 . S
H1368 C1381 0.930 . S
H1369 C1382 0.930 . S
H1370 C1386 0.959 . S
H1371 C1386 0.959 . S
H1372 C1386 0.961 . S
H1373 C1387 0.960 . S
H1374 C1387 0.961 . S
H1375 C1387 0.959 . S
H1376 C1390 0.929 . S
H1377 C1391 0.931 . S
H1378 C1393 0.930 . S
C1379 H1367 0.930 . S
C1379 C1380 1.399 . S
C1379 C1384 1.399 . S
C1380 C1379 1.399 . S
C1380 C1381 1.376 . S
C1381 H1368 0.930 . S
C1381 C1380 1.376 . S
C1381 C1382 1.388 . S
C1382 H1369 0.930 . S
C1382 C1381 1.388 . S
C1382 C1383 1.390 . S
C1383 C1382 1.390 . S
C1383 C1384 1.394 . S
C1383 C1389 1.465 . S
C1384 C1379 1.399 . S
C1384 C1383 1.394 . S
C1384 C1385 1.516 . S
C1385 C1384 1.516 . S
C1385 C1386 1.502 . S
C1385 C1387 1.561 . S
C1385 C1388 1.526 . S
C1386 H1370 0.959 . S
C1386 H1371 0.959 . S
C1386 H1372 0.961 . S
C1386 C1385 1.502 . S
C1387 H1373 0.960 . S
C1387 H1374 0.961 . S
C1387 H1375 0.959 . S
C1387 C1385 1.561 . S
C1388 C1385 1.526 . S
C1388 C1389 1.396 . S
C1388 C1393 1.390 . S
C1389 C1383 1.465 . S
C1389 C1388 1.396 . S
C1389 C1390 1.399 . S
C1390 H1376 0.929 . S
C1390 C1389 1.399 . S
C1390 C1391 1.385 . S
C1391 H1377 0.931 . S
C1391 C1390 1.385 . S
C1391 C1392 1.389 . S
C1392 C1391 1.389 . S
C1392 C1393 1.387 . S
C1393 H1378 0.930 . S
C1393 C1388 1.390 . S
C1393 C1392 1.387 . S
H1394 C1406 0.930 . S
H1395 C1408 0.930 . S
H1396 C1409 0.930 . S
H1397 C1413 0.959 . S
H1398 C1413 0.959 . S
H1399 C1413 0.961 . S
H1400 C1414 0.960 . S
H1401 C1414 0.961 . S
H1402 C1414 0.959 . S
H1403 C1417 0.929 . S
H1404 C1418 0.931 . S
H1405 C1420 0.930 . S
C1406 H1394 0.930 . S
C1406 C1407 1.399 . S
C1406 C1411 1.399 . S
C1407 C1406 1.399 . S
C1407 C1408 1.376 . S
C1408 H1395 0.930 . S
C1408 C1407 1.376 . S
C1408 C1409 1.388 . S
C1409 H1396 0.930 . S
C1409 C1408 1.388 . S
C1409 C1410 1.390 . S
C1410 C1409 1.390 . S
C1410 C1411 1.394 . S
C1410 C1416 1.465 . S
C1411 C1406 1.399 . S
C1411 C1410 1.394 . S
C1411 C1412 1.516 . S
C1412 C1411 1.516 . S
C1412 C1413 1.502 . S
C1412 C1414 1.561 . S
C1412 C1415 1.526 . S
C1413 H1397 0.959 . S
C1413 H1398 0.959 . S
C1413 H1399 0.961 . S
C1413 C1412 1.502 . S
C1414 H1400 0.960 . S
C1414 H1401 0.961 . S
C1414 H1402 0.959 . S
C1414 C1412 1.561 . S
C1415 C1412 1.526 . S
C1415 C1416 1.396 . S
C1415 C1420 1.390 . S
C1416 C1410 1.465 . S
C1416 C1415 1.396 . S
C1416 C1417 1.399 . S
C1417 H1403 0.929 . S
C1417 C1416 1.399 . S
C1417 C1418 1.385 . S
C1418 H1404 0.931 . S
C1418 C1417 1.385 . S
C1418 C1419 1.389 . S
C1419 C1418 1.389 . S
C1419 C1420 1.387 . S
C1420 H1405 0.930 . S
C1420 C1415 1.390 . S
C1420 C1419 1.387 . S
H1421 C1433 0.930 . S
H1422 C1435 0.930 . S
H1423 C1436 0.930 . S
H1424 C1440 0.959 . S
H1425 C1440 0.959 . S
H1426 C1440 0.961 . S
H1427 C1441 0.960 . S
H1428 C1441 0.961 . S
H1429 C1441 0.959 . S
H1430 C1444 0.929 . S
H1431 C1445 0.931 . S
H1432 C1447 0.930 . S
C1433 H1421 0.930 . S
C1433 C1434 1.399 . S
C1433 C1438 1.399 . S
C1434 C1433 1.399 . S
C1434 C1435 1.376 . S
C1435 H1422 0.930 . S
C1435 C1434 1.376 . S
C1435 C1436 1.388 . S
C1436 H1423 0.930 . S
C1436 C1435 1.388 . S
C1436 C1437 1.390 . S
C1437 C1436 1.390 . S
C1437 C1438 1.394 . S
C1437 C1443 1.465 . S
C1438 C1433 1.399 . S
C1438 C1437 1.394 . S
C1438 C1439 1.516 . S
C1439 C1438 1.516 . S
C1439 C1440 1.502 . S
C1439 C1441 1.561 . S
C1439 C1442 1.526 . S
C1440 H1424 0.959 . S
C1440 H1425 0.959 . S
C1440 H1426 0.961 . S
C1440 C1439 1.502 . S
C1441 H1427 0.960 . S
C1441 H1428 0.961 . S
C1441 H1429 0.959 . S
C1441 C1439 1.561 . S
C1442 C1439 1.526 . S
C1442 C1443 1.396 . S
C1442 C1447 1.390 . S
C1443 C1437 1.465 . S
C1443 C1442 1.396 . S
C1443 C1444 1.399 . S
C1444 H1430 0.929 . S
C1444 C1443 1.399 . S
C1444 C1445 1.385 . S
C1445 H1431 0.931 . S
C1445 C1444 1.385 . S
C1445 C1446 1.389 . S
C1446 C1445 1.389 . S
C1446 C1447 1.387 . S
C1447 H1432 0.930 . S
C1447 C1442 1.390 . S
C1447 C1446 1.387 . S
H1448 C1460 0.930 . S
H1449 C1462 0.930 . S
H1450 C1463 0.930 . S
H1451 C1467 0.959 . S
H1452 C1467 0.959 . S
H1453 C1467 0.961 1_565 S
H1454 C1468 0.960 1_565 S
H1455 C1468 0.961 . S
H1456 C1468 0.959 . S
H1457 C1471 0.929 . S
H1458 C1472 0.931 . S
H1459 C1474 0.930 . S
C1460 H1448 0.930 . S
C1460 C1461 1.399 . S
C1460 C1465 1.399 . S
C1461 C1460 1.399 . S
C1461 C1462 1.376 . S
C1462 H1449 0.930 . S
C1462 C1461 1.376 . S
C1462 C1463 1.388 . S
C1463 H1450 0.930 . S
C1463 C1462 1.388 . S
C1463 C1464 1.390 1_565 S
C1464 C1463 1.390 1_545 S
C1464 C1465 1.394 1_545 S
C1464 C1470 1.465 . S
C1465 C1460 1.399 . S
C1465 C1464 1.394 1_565 S
C1465 C1466 1.516 1_565 S
C1466 C1465 1.516 1_545 S
C1466 C1467 1.502 . S
C1466 C1468 1.561 . S
C1466 C1469 1.526 . S
C1467 H1451 0.959 . S
C1467 H1452 0.959 . S
C1467 H1453 0.961 1_545 S
C1467 C1466 1.502 . S
C1468 H1454 0.960 1_545 S
C1468 H1455 0.961 . S
C1468 H1456 0.959 . S
C1468 C1466 1.561 . S
C1469 C1466 1.526 . S
C1469 C1470 1.396 . S
C1469 C1474 1.390 . S
C1470 C1464 1.465 . S
C1470 C1469 1.396 . S
C1470 C1471 1.399 . S
C1471 H1457 0.929 . S
C1471 C1470 1.399 . S
C1471 C1472 1.385 . S
C1472 H1458 0.931 . S
C1472 C1471 1.385 . S
C1472 C1473 1.389 . S
C1473 C1472 1.389 . S
C1473 C1474 1.387 . S
C1474 H1459 0.930 . S
C1474 C1469 1.390 . S
C1474 C1473 1.387 . S
H1475 C1487 0.930 . S
H1476 C1489 0.930 . S
H1477 C1490 0.930 . S
H1478 C1494 0.959 . S
H1479 C1494 0.959 . S
H1480 C1494 0.961 . S
H1481 C1495 0.960 . S
H1482 C1495 0.961 . S
H1483 C1495 0.959 . S
H1484 C1498 0.929 . S
H1485 C1499 0.931 . S
H1486 C1501 0.930 . S
C1487 H1475 0.930 . S
C1487 C1488 1.399 . S
C1487 C1492 1.399 . S
C1488 C1487 1.399 . S
C1488 C1489 1.376 . S
C1489 H1476 0.930 . S
C1489 C1488 1.376 . S
C1489 C1490 1.388 . S
C1490 H1477 0.930 . S
C1490 C1489 1.388 . S
C1490 C1491 1.390 . S
C1491 C1490 1.390 . S
C1491 C1492 1.394 . S
C1491 C1497 1.475 . S
C1492 C1487 1.399 . S
C1492 C1491 1.394 . S
C1492 C1493 1.516 . S
C1493 C1492 1.516 . S
C1493 C1494 1.502 . S
C1493 C1495 1.561 . S
C1493 C1496 1.526 1_565 S
C1494 H1478 0.959 . S
C1494 H1479 0.959 . S
C1494 H1480 0.961 . S
C1494 C1493 1.502 . S
C1495 H1481 0.960 . S
C1495 H1482 0.961 . S
C1495 H1483 0.959 . S
C1495 C1493 1.561 . S
C1496 C1493 1.526 1_545 S
C1496 C1497 1.394 1_545 S
C1496 C1501 1.390 . S
C1497 C1491 1.475 . S
C1497 C1496 1.394 1_565 S
C1497 C1498 1.391 1_565 S
C1498 H1484 0.929 . S
C1498 C1497 1.391 1_545 S
C1498 C1499 1.385 . S
C1499 H1485 0.931 . S
C1499 C1498 1.385 . S
C1499 C1500 1.389 . S
C1500 C1499 1.389 . S
C1500 C1501 1.387 . S
C1501 H1486 0.930 . S
C1501 C1496 1.390 . S
C1501 C1500 1.387 . S
H1502 C1514 0.930 . S
H1503 C1516 0.930 . S
H1504 C1517 0.930 . S
H1505 C1521 0.959 . S
H1506 C1521 0.959 . S
H1507 C1521 0.961 1_545 S
H1508 C1522 0.961 1_545 S
H1509 C1522 0.961 . S
H1510 C1522 0.959 . S
H1511 C1525 0.929 . S
H1512 C1526 0.931 . S
H1513 C1528 0.930 . S
C1514 H1502 0.930 . S
C1514 C1515 1.399 . S
C1514 C1519 1.399 . S
C1515 C1514 1.399 . S
C1515 C1516 1.376 . S
C1516 H1503 0.930 . S
C1516 C1515 1.376 . S
C1516 C1517 1.388 . S
C1517 H1504 0.930 . S
C1517 C1516 1.388 . S
C1517 C1518 1.390 1_545 S
C1518 C1517 1.390 1_565 S
C1518 C1519 1.394 1_565 S
C1518 C1524 1.465 . S
C1519 C1514 1.399 . S
C1519 C1518 1.394 1_545 S
C1519 C1520 1.516 1_545 S
C1520 C1519 1.516 1_565 S
C1520 C1521 1.502 . S
C1520 C1522 1.561 . S
C1520 C1523 1.526 . S
C1521 H1505 0.959 . S
C1521 H1506 0.959 . S
C1521 H1507 0.961 1_565 S
C1521 C1520 1.502 . S
C1522 H1508 0.961 1_565 S
C1522 H1509 0.961 . S
C1522 H1510 0.959 . S
C1522 C1520 1.561 . S
C1523 C1520 1.526 . S
C1523 C1524 1.396 . S
C1523 C1528 1.390 . S
C1524 C1518 1.465 . S
C1524 C1523 1.396 . S
C1524 C1525 1.399 . S
C1525 H1511 0.929 . S
C1525 C1524 1.399 . S
C1525 C1526 1.385 . S
C1526 H1512 0.931 . S
C1526 C1525 1.385 . S
C1526 C1527 1.389 . S
C1527 C1526 1.389 . S
C1527 C1528 1.387 . S
C1528 H1513 0.930 . S
C1528 C1523 1.390 . S
C1528 C1527 1.387 . S
H1529 C1541 0.930 . S
H1530 C1543 0.930 . S
H1531 C1544 0.930 . S
H1532 C1548 0.959 . S
H1533 C1548 0.959 . S
H1534 C1548 0.961 . S
H1535 C1549 0.971 . S
H1536 C1549 0.961 . S
H1537 C1549 0.959 . S
H1538 C1552 0.929 . S
H1539 C1553 0.931 . S
H1540 C1555 0.930 . S
C1541 H1529 0.930 . S
C1541 C1542 1.399 . S
C1541 C1546 1.399 . S
C1542 C1541 1.399 . S
C1542 C1543 1.376 . S
C1543 H1530 0.930 . S
C1543 C1542 1.376 . S
C1543 C1544 1.388 . S
C1544 H1531 0.930 . S
C1544 C1543 1.388 . S
C1544 C1545 1.389 . S
C1545 C1544 1.389 . S
C1545 C1546 1.393 . S
C1545 C1551 1.467 1_565 S
C1546 C1541 1.399 . S
C1546 C1545 1.393 . S
C1546 C1547 1.516 1_565 S
C1547 C1546 1.516 1_545 S
C1547 C1548 1.502 . S
C1547 C1549 1.561 . S
C1547 C1550 1.526 . S
C1548 H1532 0.959 . S
C1548 H1533 0.959 . S
C1548 H1534 0.961 . S
C1548 C1547 1.502 . S
C1549 H1535 0.971 . S
C1549 H1536 0.961 . S
C1549 H1537 0.959 . S
C1549 C1547 1.561 . S
C1550 C1547 1.526 . S
C1550 C1551 1.396 . S
C1550 C1555 1.390 . S
C1551 C1545 1.467 1_545 S
C1551 C1550 1.396 . S
C1551 C1552 1.399 . S
C1552 H1538 0.929 . S
C1552 C1551 1.399 . S
C1552 C1553 1.385 . S
C1553 H1539 0.931 . S
C1553 C1552 1.385 . S
C1553 C1554 1.389 . S
C1554 C1553 1.389 . S
C1554 C1555 1.387 . S
C1555 H1540 0.930 . S
C1555 C1550 1.390 . S
C1555 C1554 1.387 . S
H1556 C1568 0.930 . S
H1557 C1570 0.930 . S
H1558 C1571 0.930 . S
H1559 C1575 0.959 . S
H1560 C1575 0.959 . S
H1561 C1575 0.961 . S
H1562 C1576 0.960 . S
H1563 C1576 0.961 . S
H1564 C1576 0.959 . S
H1565 C1579 0.929 . S
H1566 C1580 0.931 . S
H1567 C1582 0.930 . S
C1568 H1556 0.930 . S
C1568 C1569 1.399 . S
C1568 C1573 1.399 . S
C1569 C1568 1.399 . S
C1569 C1570 1.376 . S
C1570 H1557 0.930 . S
C1570 C1569 1.376 . S
C1570 C1571 1.388 . S
C1571 H1558 0.930 . S
C1571 C1570 1.388 . S
C1571 C1572 1.390 . S
C1572 C1571 1.390 . S
C1572 C1573 1.394 . S
C1572 C1578 1.465 1_565 S
C1573 C1568 1.399 . S
C1573 C1572 1.394 . S
C1573 C1574 1.516 . S
C1574 C1573 1.516 . S
C1574 C1575 1.502 . S
C1574 C1576 1.561 . S
C1574 C1577 1.526 1_565 S
C1575 H1559 0.959 . S
C1575 H1560 0.959 . S
C1575 H1561 0.961 . S
C1575 C1574 1.502 . S
C1576 H1562 0.960 . S
C1576 H1563 0.961 . S
C1576 H1564 0.959 . S
C1576 C1574 1.561 . S
C1577 C1574 1.526 1_545 S
C1577 C1578 1.396 . S
C1577 C1582 1.390 . S
C1578 C1572 1.465 1_545 S
C1578 C1577 1.396 . S
C1578 C1579 1.399 . S
C1579 H1565 0.929 . S
C1579 C1578 1.399 . S
C1579 C1580 1.385 . S
C1580 H1566 0.931 . S
C1580 C1579 1.385 . S
C1580 C1581 1.389 . S
C1581 C1580 1.389 . S
C1581 C1582 1.387 . S
C1582 H1567 0.930 . S
C1582 C1577 1.390 . S
C1582 C1581 1.387 . S
H1583 C1595 0.930 . S
H1584 C1597 0.930 . S
H1585 C1598 0.930 . S
H1586 C1602 0.959 . S
H1587 C1602 0.959 . S
H1588 C1602 0.961 . S
H1589 C1603 0.960 . S
H1590 C1603 0.961 . S
H1591 C1603 0.959 . S
H1592 C1606 0.929 . S
H1593 C1607 0.931 . S
H1594 C1609 0.930 . S
C1595 H1583 0.930 . S
C1595 C1596 1.399 . S
C1595 C1600 1.399 . S
C1596 C1595 1.399 . S
C1596 C1597 1.376 . S
C1597 H1584 0.930 . S
C1597 C1596 1.376 . S
C1597 C1598 1.388 . S
C1598 H1585 0.930 . S
C1598 C1597 1.388 . S
C1598 C1599 1.390 . S
C1599 C1598 1.390 . S
C1599 C1600 1.394 . S
C1599 C1605 1.465 1_545 S
C1600 C1595 1.399 . S
C1600 C1599 1.394 . S
C1600 C1601 1.516 . S
C1601 C1600 1.516 . S
C1601 C1602 1.502 . S
C1601 C1603 1.561 . S
C1601 C1604 1.526 1_545 S
C1602 H1586 0.959 . S
C1602 H1587 0.959 . S
C1602 H1588 0.961 . S
C1602 C1601 1.502 . S
C1603 H1589 0.960 . S
C1603 H1590 0.961 . S
C1603 H1591 0.959 . S
C1603 C1601 1.561 . S
C1604 C1601 1.526 1_565 S
C1604 C1605 1.396 . S
C1604 C1609 1.390 . S
C1605 C1599 1.465 1_565 S
C1605 C1604 1.396 . S
C1605 C1606 1.399 . S
C1606 H1592 0.929 . S
C1606 C1605 1.399 . S
C1606 C1607 1.385 . S
C1607 H1593 0.931 . S
C1607 C1606 1.385 . S
C1607 C1608 1.389 . S
C1608 C1607 1.389 . S
C1608 C1609 1.387 . S
C1609 H1594 0.930 . S
C1609 C1604 1.390 . S
C1609 C1608 1.387 . S
H1610 C1622 0.930 . S
H1611 C1624 0.930 . S
H1612 C1625 0.930 . S
H1613 C1629 0.959 . S
H1614 C1629 0.959 . S
H1615 C1629 0.961 . S
H1616 C1630 0.960 1_565 S
H1617 C1630 0.961 . S
H1618 C1630 0.959 . S
H1619 C1633 0.929 . S
H1620 C1634 0.931 . S
H1621 C1636 0.930 . S
C1622 H1610 0.930 . S
C1622 C1623 1.399 . S
C1622 C1627 1.399 . S
C1623 C1622 1.399 . S
C1623 C1624 1.376 . S
C1624 H1611 0.930 . S
C1624 C1623 1.376 . S
C1624 C1625 1.388 . S
C1625 H1612 0.930 . S
C1625 C1624 1.388 . S
C1625 C1626 1.390 . S
C1626 C1625 1.390 . S
C1626 C1627 1.394 . S
C1626 C1632 1.465 1_565 S
C1627 C1622 1.399 . S
C1627 C1626 1.394 . S
C1627 C1628 1.516 1_565 S
C1628 C1627 1.516 1_545 S
C1628 C1629 1.502 . S
C1628 C1630 1.561 . S
C1628 C1631 1.526 . S
C1629 H1613 0.959 . S
C1629 H1614 0.959 . S
C1629 H1615 0.961 . S
C1629 C1628 1.502 . S
C1630 H1616 0.960 1_545 S
C1630 H1617 0.961 . S
C1630 H1618 0.959 . S
C1630 C1628 1.561 . S
C1631 C1628 1.526 . S
C1631 C1632 1.396 . S
C1631 C1636 1.390 . S
C1632 C1626 1.465 1_545 S
C1632 C1631 1.396 . S
C1632 C1633 1.399 . S
C1633 H1619 0.929 . S
C1633 C1632 1.399 . S
C1633 C1634 1.385 . S
C1634 H1620 0.931 . S
C1634 C1633 1.385 . S
C1634 C1635 1.389 . S
C1635 C1634 1.389 . S
C1635 C1636 1.387 . S
C1636 H1621 0.930 . S
C1636 C1631 1.390 . S
C1636 C1635 1.387 . S
H1637 C1649 0.930 . S
H1638 C1651 0.930 . S
H1639 C1652 0.930 . S
H1640 C1656 0.959 . S
H1641 C1656 0.959 1_545 S
H1642 C1656 0.961 . S
H1643 C1657 0.960 . S
H1644 C1657 0.961 . S
H1645 C1657 0.959 . S
H1646 C1660 0.929 . S
H1647 C1661 0.931 . S
H1648 C1663 0.930 . S
C1649 H1637 0.930 . S
C1649 C1650 1.399 . S
C1649 C1654 1.399 . S
C1650 C1649 1.399 . S
C1650 C1651 1.376 . S
C1651 H1638 0.930 . S
C1651 C1650 1.376 . S
C1651 C1652 1.388 . S
C1652 H1639 0.930 . S
C1652 C1651 1.388 . S
C1652 C1653 1.390 . S
C1653 C1652 1.390 . S
C1653 C1654 1.394 . S
C1653 C1659 1.465 . S
C1654 C1649 1.399 . S
C1654 C1653 1.394 . S
C1654 C1655 1.516 . S
C1655 C1654 1.516 . S
C1655 C1656 1.502 . S
C1655 C1657 1.561 . S
C1655 C1658 1.526 1_565 S
C1656 H1640 0.959 . S
C1656 H1641 0.959 1_565 S
C1656 H1642 0.961 . S
C1656 C1655 1.502 . S
C1657 H1643 0.960 . S
C1657 H1644 0.961 . S
C1657 H1645 0.959 . S
C1657 C1655 1.561 . S
C1658 C1655 1.526 1_545 S
C1658 C1659 1.396 1_545 S
C1658 C1663 1.390 . S
C1659 C1653 1.465 . S
C1659 C1658 1.396 1_565 S
C1659 C1660 1.399 1_565 S
C1660 H1646 0.929 . S
C1660 C1659 1.399 1_545 S
C1660 C1661 1.385 . S
C1661 H1647 0.931 . S
C1661 C1660 1.385 . S
C1661 C1662 1.389 . S
C1662 C1661 1.389 . S
C1662 C1663 1.387 . S
C1663 H1648 0.930 . S
C1663 C1658 1.390 . S
C1663 C1662 1.387 . S
C381 C18 1.555 . S
C393 C225 1.555 . S
C408 C41 1.521 . S
C420 C202 1.514 . S
C435 C271 1.544 . S
C447 C64 1.552 . S
C462 C87 1.512 . S
C474 C248 1.517 . S
C489 C317 1.468 . S
C501 C110 1.472 . S
C516 C294 1.435 . S
C528 C133 1.431 . S
C543 C363 1.467 . S
C555 C156 1.471 . S
C570 C179 1.430 . S
C582 C340 1.427 . S
C597 C66 1.416 . S
C609 C20 1.456 1_565 S
C624 C89 1.422 . S
C636 C43 1.457 1_545 S
C651 C157 1.406 . S
C663 C111 1.443 1_545 S
C678 C134 1.395 . S
C690 C180 1.448 1_545 S
C705 C250 1.422 . S
C717 C204 1.456 . S
C732 C273 1.415 . S
C744 C227 1.456 . S
C759 C295 1.429 . S
C771 C341 1.383 . S
C786 C318 1.397 . S
C798 C364 1.447 . S
C813 C135 1.431 . S
C825 C19 1.398 . S
C840 C112 1.443 . S
C852 C42 1.460 . S
C867 C65 1.445 . S
C879 C181 1.465 . S
C894 C158 1.441 . S
C906 C88 1.460 . S
C921 C203 1.410 . S
C933 C319 1.408 . S
C948 C296 1.443 . S
C960 C226 1.460 . S
C975 C249 1.442 . S
C987 C365 1.465 . S
C1002 C342 1.431 . S
C1014 C272 1.398 . S
C1029 C44 1.437 . S
C1041 C21 1.469 . S
C1056 C90 1.422 . S
C1068 C67 1.480 . S
C1083 C136 1.571 . S
C1095 C113 1.527 . S
C1110 C159 1.564 . S
C1122 C182 1.533 . S
C1137 C228 1.430 . S
C1149 C205 1.474 . S
C1164 C274 1.452 . S
C1176 C251 1.454 . S
C1191 C297 1.567 . S
C1203 C320 1.531 . S
C1218 C343 1.568 . S
C1230 C366 1.530 . S
C1245 C17 1.277 . S
C1257 C16 1.282 . S
C1272 C40 1.265 . S
C1284 C39 1.298 . S
C1299 C63 1.288 . S
C1311 C62 1.278 . S
C1326 C85 1.300 . S
C1338 C86 1.265 . S
C1353 C109 1.272 . S
C1365 C108 1.289 . S
C1380 C131 1.266 . S
C1392 C132 1.291 . S
C1407 C155 1.297 . S
C1419 C154 1.267 . S
C1434 C178 1.274 . S
C1446 C177 1.286 . S
C1461 C200 1.300 . S
C1473 C201 1.267 . S
C1488 C224 1.294 . S
C1500 C223 1.263 . S
C1515 C246 1.299 . S
C1527 C247 1.268 . S
C1542 C269 1.260 . S
C1554 C270 1.297 . S
C1569 C293 1.296 . S
C1581 C292 1.268 . S
C1596 C316 1.296 . S
C1608 C315 1.269 . S
C1623 C338 1.262 . S
C1635 C339 1.295 . S
C1650 C362 1.272 . S
C1662 C361 1.289 . S
