# Generated by pormake.
# Topology uoy, (4)-cn, num edge types: 1
# Building blocks:
#     Node 0, Type 0, BuildingBlock: KUFVIS_clean_sbu_0, # of connection points: 4
#     Node 1, Type 0, BuildingBlock: KUFVIS_clean_sbu_0, # of connection points: 4
#     Node 2, Type 0, BuildingBlock: KUFVIS_clean_sbu_0, # of connection points: 4
#     Node 3, Type 0, BuildingBlock: KUFVIS_clean_sbu_0, # of connection points: 4
#     Node 4, Type 0, BuildingBlock: KUFVIS_clean_sbu_0, # of connection points: 4
#     Node 5, Type 0, BuildingBlock: KUFVIS_clean_sbu_0, # of connection points: 4
#     Node 6, Type 0, BuildingBlock: KUFVIS_clean_sbu_0, # of connection points: 4
#     Node 7, Type 0, BuildingBlock: KUFVIS_clean_sbu_0, # of connection points: 4
#     Node 8, Type 0, BuildingBlock: KUFVIS_clean_sbu_0, # of connection points: 4
#     Node 9, Type 0, BuildingBlock: KUFVIS_clean_sbu_0, # of connection points: 4
#     Node 10, Type 0, BuildingBlock: KUFVIS_clean_sbu_0, # of connection points: 4
#     Node 11, Type 0, BuildingBlock: KUFVIS_clean_sbu_0, # of connection points: 4
#     Node 12, Type 0, BuildingBlock: KUFVIS_clean_sbu_0, # of connection points: 4
#     Node 13, Type 0, BuildingBlock: KUFVIS_clean_sbu_0, # of connection points: 4
#     Node 14, Type 0, BuildingBlock: KUFVIS_clean_sbu_0, # of connection points: 4
#     Node 15, Type 0, BuildingBlock: KUFVIS_clean_sbu_0, # of connection points: 4
#     Edge 16, Type (0, 0), BuildingBlock: KIFKEQ_clean_linker_1, # of connection points: 2
#     Edge 17, Type (0, 0), BuildingBlock: KIFKEQ_clean_linker_1, # of connection points: 2
#     Edge 18, Type (0, 0), BuildingBlock: KIFKEQ_clean_linker_1, # of connection points: 2
#     Edge 19, Type (0, 0), BuildingBlock: KIFKEQ_clean_linker_1, # of connection points: 2
#     Edge 20, Type (0, 0), BuildingBlock: KIFKEQ_clean_linker_1, # of connection points: 2
#     Edge 21, Type (0, 0), BuildingBlock: KIFKEQ_clean_linker_1, # of connection points: 2
#     Edge 22, Type (0, 0), BuildingBlock: KIFKEQ_clean_linker_1, # of connection points: 2
#     Edge 23, Type (0, 0), BuildingBlock: KIFKEQ_clean_linker_1, # of connection points: 2
#     Edge 24, Type (0, 0), BuildingBlock: KIFKEQ_clean_linker_1, # of connection points: 2
#     Edge 25, Type (0, 0), BuildingBlock: KIFKEQ_clean_linker_1, # of connection points: 2
#     Edge 26, Type (0, 0), BuildingBlock: KIFKEQ_clean_linker_1, # of connection points: 2
#     Edge 27, Type (0, 0), BuildingBlock: KIFKEQ_clean_linker_1, # of connection points: 2
#     Edge 28, Type (0, 0), BuildingBlock: KIFKEQ_clean_linker_1, # of connection points: 2
#     Edge 29, Type (0, 0), BuildingBlock: KIFKEQ_clean_linker_1, # of connection points: 2
#     Edge 30, Type (0, 0), BuildingBlock: KIFKEQ_clean_linker_1, # of connection points: 2
#     Edge 31, Type (0, 0), BuildingBlock: KIFKEQ_clean_linker_1, # of connection points: 2
#     Edge 32, Type (0, 0), BuildingBlock: KIFKEQ_clean_linker_1, # of connection points: 2
#     Edge 33, Type (0, 0), BuildingBlock: KIFKEQ_clean_linker_1, # of connection points: 2
#     Edge 34, Type (0, 0), BuildingBlock: KIFKEQ_clean_linker_1, # of connection points: 2
#     Edge 35, Type (0, 0), BuildingBlock: KIFKEQ_clean_linker_1, # of connection points: 2
#     Edge 36, Type (0, 0), BuildingBlock: KIFKEQ_clean_linker_1, # of connection points: 2
#     Edge 37, Type (0, 0), BuildingBlock: KIFKEQ_clean_linker_1, # of connection points: 2
#     Edge 38, Type (0, 0), BuildingBlock: KIFKEQ_clean_linker_1, # of connection points: 2
#     Edge 39, Type (0, 0), BuildingBlock: KIFKEQ_clean_linker_1, # of connection points: 2
#     Edge 40, Type (0, 0), BuildingBlock: KIFKEQ_clean_linker_1, # of connection points: 2
#     Edge 41, Type (0, 0), BuildingBlock: KIFKEQ_clean_linker_1, # of connection points: 2
#     Edge 42, Type (0, 0), BuildingBlock: KIFKEQ_clean_linker_1, # of connection points: 2
#     Edge 43, Type (0, 0), BuildingBlock: KIFKEQ_clean_linker_1, # of connection points: 2
#     Edge 44, Type (0, 0), BuildingBlock: KIFKEQ_clean_linker_1, # of connection points: 2
#     Edge 45, Type (0, 0), BuildingBlock: KIFKEQ_clean_linker_1, # of connection points: 2
#     Edge 46, Type (0, 0), BuildingBlock: KIFKEQ_clean_linker_1, # of connection points: 2
#     Edge 47, Type (0, 0), BuildingBlock: KIFKEQ_clean_linker_1, # of connection points: 2
# Relax obj value: 0.051
# Max RMSD: 0.080
# Mean RMSD: 0.080
data_MOF--net-uoy--node1-KUFVIS_clean_sbu_0--edge1-KIFKEQ_clean_linker_1
_symmetry_space_group_name_H-M    P1
_symmetry_Int_Tables_number       1
_symmetry_cell_setting            triclinic
loop_
_symmetry_equiv_pos_as_xyz
'x, y, z'
_cell_length_a     27.906906
_cell_length_b     27.912002
_cell_length_c     106.58521
_cell_angle_alpha  89.892146
_cell_angle_beta   89.980626
_cell_angle_gamma 90.072967
loop_
_atom_site_label
_atom_site_type_symbol
_atom_site_fract_x
_atom_site_fract_y
_atom_site_fract_z
_atom_type_partial_charge
Mn0 Mn 0.28019 0.11073 0.18661 0.0
Mn1 Mn 0.20926 0.20378 0.1946 0.0
C2 C 0.27704 0.13665 0.20719 0.0
C3 C 0.35435 0.08057 0.18006 0.0
C4 C 0.17055 0.10411 0.1896 0.0
O5 O 0.26772 0.14308 0.1698 0.0
O6 O 0.22096 0.20423 0.17622 0.0
C7 C 0.27668 0.28246 0.18854 0.0
N8 N 0.24826 0.2593 0.197 0.0
C9 C 0.2706 0.31423 0.21335 0.0
C10 C 0.29981 0.33888 0.20479 0.0
C11 C 0.30283 0.32292 0.19233 0.0
C12 C 0.24475 0.27457 0.20899 0.0
H13 H 0.27956 0.27005 0.17898 0.0
C14 C 0.24317 0.18084 0.16768 0.0
O15 O 0.31504 0.05628 0.17852 0.0
O16 O 0.35019 0.12279 0.18497 0.0
N17 N 0.19588 0.20795 0.21216 0.0
C18 C 0.16855 0.17841 0.21943 0.0
C19 C 0.1632 0.18843 0.23226 0.0
C20 C 0.18601 0.22862 0.23747 0.0
C21 C 0.21351 0.25873 0.22976 0.0
C22 C 0.21685 0.24747 0.217 0.0
H23 H 0.15143 0.14715 0.2155 0.0
O24 O 0.29014 0.09316 0.20463 0.0
O25 O 0.26539 0.16325 0.19765 0.0
O26 O 0.21092 0.08474 0.18706 0.0
O27 O 0.1662 0.14821 0.19257 0.0
C28 C 0.23923 0.29842 0.23432 0.0
C29 C 0.26745 0.3264 0.22613 0.0
H30 H 0.32055 0.36972 0.20773 0.0
H31 H 0.32555 0.34155 0.18569 0.0
H32 H 0.14201 0.16494 0.23815 0.0
H33 H 0.18262 0.23571 0.24742 0.0
H34 H 0.23889 0.30667 0.24417 0.0
H35 H 0.28756 0.35642 0.22984 0.0
Mn36 Mn 0.89641 0.76506 0.43745 0.0
Mn37 Mn 0.80273 0.69373 0.4448 0.0
C38 C 0.87128 0.75889 0.4581 0.0
C39 C 0.9265 0.83966 0.43113 0.0
C40 C 0.90239 0.65562 0.43925 0.0
O41 O 0.86451 0.75395 0.42052 0.0
O42 O 0.80087 0.71032 0.42673 0.0
C43 C 0.72389 0.76259 0.44037 0.0
N44 N 0.74709 0.7314 0.4481 0.0
C45 C 0.68708 0.74056 0.4641 0.0
C46 C 0.66238 0.77262 0.4563 0.0
C47 C 0.68106 0.78393 0.44442 0.0
C48 C 0.7299 0.7209 0.45963 0.0
H49 H 0.73787 0.77099 0.43118 0.0
C50 C 0.8251 0.73231 0.4183 0.0
O51 O 0.95077 0.80051 0.42943 0.0
O52 O 0.88443 0.8352 0.43616 0.0
N53 N 0.79908 0.67534 0.46206 0.0
C54 C 0.82899 0.64638 0.46873 0.0
C55 C 0.81623 0.63258 0.48096 0.0
C56 C 0.77253 0.648 0.48611 0.0
C57 C 0.74243 0.678 0.47907 0.0
C58 C 0.75729 0.69095 0.467 0.0
H59 H 0.86209 0.63361 0.4647 0.0
O60 O 0.91439 0.77302 0.4554 0.0
O61 O 0.84382 0.74895 0.44858 0.0
O62 O 0.92259 0.69621 0.43759 0.0
O63 O 0.85787 0.65089 0.44174 0.0
C64 C 0.69818 0.69544 0.48353 0.0
C65 C 0.67091 0.72727 0.47613 0.0
H66 H 0.62915 0.78889 0.45936 0.0
H67 H 0.66228 0.80874 0.43835 0.0
H68 H 0.83969 0.60956 0.48635 0.0
H69 H 0.76256 0.6366 0.49547 0.0
H70 H 0.68476 0.68485 0.49265 0.0
H71 H 0.63752 0.74125 0.47979 0.0
Mn72 Mn 0.25581 0.4007 0.68757 0.0
Mn73 Mn 0.32613 0.30652 0.69502 0.0
C74 C 0.26132 0.37516 0.70823 0.0
C75 C 0.18145 0.43153 0.68132 0.0
C76 C 0.36548 0.406 0.68969 0.0
O77 O 0.26657 0.36893 0.67066 0.0
O78 O 0.31101 0.30594 0.67685 0.0
C79 C 0.25688 0.22846 0.68994 0.0
N80 N 0.28774 0.2509 0.6979 0.0
C81 C 0.27696 0.18981 0.71359 0.0
C82 C 0.24523 0.16588 0.70554 0.0
C83 C 0.2349 0.18548 0.6937 0.0
C84 C 0.29727 0.23282 0.70939 0.0
H85 H 0.24924 0.24315 0.68078 0.0
C86 C 0.28897 0.33006 0.66841 0.0
O87 O 0.22088 0.45547 0.6796 0.0
O88 O 0.18551 0.3894 0.68635 0.0
N89 N 0.34321 0.30153 0.71234 0.0
C90 C 0.37214 0.33066 0.71925 0.0
C91 C 0.38523 0.31679 0.73144 0.0
C92 C 0.36913 0.27282 0.73631 0.0
C93 C 0.33911 0.24356 0.72905 0.0
C94 C 0.32695 0.25947 0.71701 0.0
H95 H 0.38548 0.36396 0.71543 0.0
O96 O 0.24805 0.41854 0.70555 0.0
O97 O 0.27107 0.34778 0.6987 0.0
O98 O 0.32516 0.42612 0.68758 0.0
O99 O 0.36948 0.36166 0.69247 0.0
C100 C 0.32095 0.19913 0.73323 0.0
C101 C 0.28932 0.17266 0.72559 0.0
H102 H 0.22848 0.13254 0.70838 0.0
H103 H 0.21035 0.16731 0.68745 0.0
H104 H 0.40827 0.3396 0.737 0.0
H105 H 0.38007 0.26195 0.74563 0.0
H106 H 0.33083 0.18496 0.74232 0.0
H107 H 0.2748 0.1391 0.72903 0.0
Mn108 Mn 0.60606 0.74626 0.93699 0.0
Mn109 Mn 0.69851 0.81697 0.94549 0.0
C110 C 0.63083 0.74845 0.95772 0.0
C111 C 0.5771 0.67215 0.93004 0.0
C112 C 0.5998 0.8553 0.93883 0.0
O113 O 0.63994 0.76057 0.92043 0.0
O114 O 0.70528 0.80027 0.92747 0.0
C115 C 0.77993 0.74987 0.9428 0.0
N116 N 0.75304 0.77952 0.95009 0.0
C117 C 0.80134 0.76224 0.96824 0.0
C118 C 0.82973 0.73173 0.96092 0.0
C119 C 0.819 0.72558 0.94814 0.0
C120 C 0.76341 0.78621 0.96235 0.0
H121 H 0.77149 0.74463 0.93301 0.0
C122 C 0.68081 0.78044 0.9187 0.0
O123 O 0.55261 0.71126 0.92848 0.0
O124 O 0.619 0.67651 0.93516 0.0
N125 N 0.69538 0.83433 0.96282 0.0
C126 C 0.66219 0.86189 0.9688 0.0
C127 C 0.66638 0.86977 0.98175 0.0
C128 C 0.70443 0.84902 0.98843 0.0
C129 C 0.73816 0.82095 0.98205 0.0
C130 C 0.73274 0.8151 0.9691 0.0
H131 H 0.63244 0.87737 0.96376 0.0
O132 O 0.58762 0.73482 0.95496 0.0
O133 O 0.6574 0.76119 0.94829 0.0
O134 O 0.57918 0.81478 0.93749 0.0
O135 O 0.64437 0.85954 0.94128 0.0
C136 C 0.77577 0.79696 0.98814 0.0
C137 C 0.80777 0.76809 0.98126 0.0
H138 H 0.85938 0.71229 0.96505 0.0
H139 H 0.84055 0.70184 0.94245 0.0
H140 H 0.64004 0.8913 0.9866 0.0
H141 H 0.70708 0.85436 0.99847 0.0
H142 H 0.77898 0.79911 0.99819 0.0
H143 H 0.83612 0.74924 0.98613 0.0
Mn144 Mn 0.28203 0.40772 0.06352 0.0
Mn145 Mn 0.21127 0.31393 0.05585 0.0
C146 C 0.27842 0.38145 0.04299 0.0
C147 C 0.35606 0.43869 0.06992 0.0
C148 C 0.17246 0.41327 0.06101 0.0
O149 O 0.26966 0.37571 0.08044 0.0
O150 O 0.22434 0.31315 0.07413 0.0
C151 C 0.27947 0.23555 0.06134 0.0
N152 N 0.25026 0.25876 0.05309 0.0
C153 C 0.27106 0.20424 0.03653 0.0
C154 C 0.30109 0.17951 0.04485 0.0
C155 C 0.30529 0.19525 0.05732 0.0
C156 C 0.24563 0.24372 0.04112 0.0
H157 H 0.2832 0.24779 0.07089 0.0
C158 C 0.24595 0.33736 0.08262 0.0
O159 O 0.31662 0.46266 0.07147 0.0
O160 O 0.3521 0.3962 0.06514 0.0
N161 N 0.1965 0.31028 0.03837 0.0
C162 C 0.16867 0.34004 0.03132 0.0
C163 C 0.16225 0.33039 0.0185 0.0
C164 C 0.18449 0.29033 0.01308 0.0
C165 C 0.21255 0.26001 0.02058 0.0
C166 C 0.21702 0.27094 0.03332 0.0
H167 H 0.15196 0.37118 0.03541 0.0
O168 O 0.29173 0.42495 0.04548 0.0
O169 O 0.26707 0.35491 0.05258 0.0
O170 O 0.21289 0.4334 0.06302 0.0
O171 O 0.16798 0.36892 0.05833 0.0
C172 C 0.23773 0.22041 0.0158 0.0
C173 C 0.26668 0.19231 0.02375 0.0
H174 H 0.32155 0.1488 0.04174 0.0
H175 H 0.32863 0.17656 0.06378 0.0
H176 H 0.14064 0.35405 0.01278 0.0
H177 H 0.18024 0.2835 0.00314 0.0
H178 H 0.23631 0.21229 0.00595 0.0
H179 H 0.28638 0.16238 0.01987 0.0
Mn180 Mn 0.60862 0.77796 0.31292 0.0
Mn181 Mn 0.70282 0.70918 0.30456 0.0
C182 C 0.6344 0.77661 0.29229 0.0
C183 C 0.57794 0.85147 0.3198 0.0
C184 C 0.60375 0.66857 0.3098 0.0
O185 O 0.64103 0.76417 0.32967 0.0
O186 O 0.7043 0.72118 0.32289 0.0
C187 C 0.78071 0.77796 0.31017 0.0
N188 N 0.75753 0.7491 0.30185 0.0
C189 C 0.81112 0.77222 0.28523 0.0
C190 C 0.83582 0.80185 0.29364 0.0
C191 C 0.82055 0.8047 0.30617 0.0
C192 C 0.77215 0.74575 0.2898 0.0
H193 H 0.76879 0.78076 0.31978 0.0
C194 C 0.68022 0.74168 0.3316 0.0
O195 O 0.55389 0.81191 0.3212 0.0
O196 O 0.62023 0.84785 0.31488 0.0
N197 N 0.70603 0.69591 0.28698 0.0
C198 C 0.67636 0.66828 0.27986 0.0
C199 C 0.68561 0.66318 0.26698 0.0
C200 C 0.72513 0.68659 0.26156 0.0
C201 C 0.75537 0.71444 0.26912 0.0
C202 C 0.74494 0.71748 0.28193 0.0
H203 H 0.64559 0.65072 0.28395 0.0
O204 O 0.59085 0.7892 0.29495 0.0
O205 O 0.66114 0.76454 0.30175 0.0
O206 O 0.58346 0.7086 0.31218 0.0
O207 O 0.64807 0.66501 0.30692 0.0
C208 C 0.7943 0.74089 0.26435 0.0
C209 C 0.82247 0.76937 0.27239 0.0
H210 H 0.86613 0.82308 0.29054 0.0
H211 H 0.83919 0.82776 0.31271 0.0
H212 H 0.66201 0.64173 0.26121 0.0
H213 H 0.7316 0.6834 0.25157 0.0
H214 H 0.8017 0.74107 0.25444 0.0
H215 H 0.85185 0.79006 0.26852 0.0
Mn216 Mn 0.25566 0.1203 0.56199 0.0
Mn217 Mn 0.32628 0.21448 0.55458 0.0
C218 C 0.26116 0.14604 0.54136 0.0
C219 C 0.18123 0.08955 0.56829 0.0
C220 C 0.36532 0.11487 0.55976 0.0
O221 O 0.26662 0.15181 0.57893 0.0
O222 O 0.31149 0.21466 0.57278 0.0
C223 C 0.25732 0.2924 0.55991 0.0
N224 N 0.28799 0.27019 0.55186 0.0
C225 C 0.2771 0.33172 0.53631 0.0
C226 C 0.24557 0.35543 0.54444 0.0
C227 C 0.23538 0.33548 0.55626 0.0
C228 C 0.29737 0.28859 0.54039 0.0
H229 H 0.24978 0.27745 0.56905 0.0
C230 C 0.28933 0.19052 0.5812 0.0
O231 O 0.22056 0.06551 0.56995 0.0
O232 O 0.18542 0.1317 0.56328 0.0
N233 N 0.34307 0.21995 0.53725 0.0
C234 C 0.37177 0.19101 0.53024 0.0
C235 C 0.38461 0.20518 0.51805 0.0
C236 C 0.36853 0.24928 0.51329 0.0
C237 C 0.33879 0.27838 0.52065 0.0
C238 C 0.32685 0.26215 0.53268 0.0
H239 H 0.3851 0.1576 0.53398 0.0
O240 O 0.24772 0.10267 0.54401 0.0
O241 O 0.27104 0.17334 0.55089 0.0
O242 O 0.32495 0.09482 0.56192 0.0
O243 O 0.36946 0.15921 0.55698 0.0
C244 C 0.32071 0.32295 0.51659 0.0
C245 C 0.28929 0.34921 0.52432 0.0
H246 H 0.22886 0.38885 0.54169 0.0
H247 H 0.21098 0.35348 0.56258 0.0
H248 H 0.40744 0.1825 0.5124 0.0
H249 H 0.37925 0.26037 0.50396 0.0
H250 H 0.33051 0.33741 0.50752 0.0
H251 H 0.27483 0.38288 0.52097 0.0
Mn252 Mn 0.89551 0.75502 0.81254 0.0
Mn253 Mn 0.80129 0.82537 0.80522 0.0
C254 C 0.87025 0.76115 0.79188 0.0
C255 C 0.92608 0.68053 0.81873 0.0
C256 C 0.90073 0.86467 0.8106 0.0
O257 O 0.86364 0.76539 0.82948 0.0
O258 O 0.80027 0.80939 0.82337 0.0
C259 C 0.72324 0.75571 0.81 0.0
N260 N 0.74585 0.78698 0.80216 0.0
C261 C 0.68557 0.77633 0.78629 0.0
C262 C 0.66148 0.74416 0.79421 0.0
C263 C 0.68059 0.73358 0.80609 0.0
C264 C 0.72823 0.7968 0.79064 0.0
H265 H 0.73757 0.74785 0.81919 0.0
C266 C 0.82454 0.78735 0.83177 0.0
O267 O 0.95014 0.71984 0.82049 0.0
O268 O 0.88402 0.68478 0.8137 0.0
N269 N 0.79677 0.84328 0.78794 0.0
C270 C 0.82598 0.87274 0.78118 0.0
C271 C 0.8125 0.88632 0.76899 0.0
C272 C 0.76887 0.8701 0.76398 0.0
C273 C 0.73958 0.83945 0.77109 0.0
C274 C 0.75502 0.82695 0.78314 0.0
H275 H 0.85904 0.88614 0.7851 0.0
O276 O 0.91354 0.74766 0.79456 0.0
O277 O 0.84273 0.7706 0.80142 0.0
O278 O 0.92101 0.82433 0.81258 0.0
O279 O 0.8563 0.86866 0.80794 0.0
C280 C 0.69554 0.82102 0.76674 0.0
C281 C 0.66894 0.78892 0.77425 0.0
H282 H 0.6284 0.72727 0.79125 0.0
H283 H 0.66229 0.7087 0.81225 0.0
H284 H 0.83534 0.90984 0.76355 0.0
H285 H 0.75828 0.88154 0.75468 0.0
H286 H 0.68173 0.83109 0.75762 0.0
H287 H 0.63567 0.77426 0.77069 0.0
Mn288 Mn 0.78 0.6117 0.68614 0.0
Mn289 Mn 0.70899 0.70481 0.69406 0.0
C290 C 0.77714 0.63812 0.70668 0.0
C291 C 0.85416 0.58139 0.6796 0.0
C292 C 0.67043 0.6049 0.68942 0.0
O293 O 0.76712 0.64346 0.66926 0.0
O294 O 0.71977 0.7042 0.67565 0.0
C295 C 0.77607 0.78316 0.68747 0.0
N296 N 0.74798 0.76055 0.6961 0.0
C297 C 0.77067 0.81673 0.71212 0.0
C298 C 0.79953 0.84083 0.70338 0.0
C299 C 0.80222 0.82397 0.691 0.0
C300 C 0.74484 0.77666 0.70802 0.0
H301 H 0.77867 0.77008 0.67797 0.0
C302 C 0.7419 0.68074 0.66711 0.0
O303 O 0.81485 0.55702 0.67813 0.0
O304 O 0.84998 0.62379 0.6844 0.0
N305 N 0.6963 0.71012 0.71163 0.0
C306 C 0.6692 0.68109 0.7191 0.0
C307 C 0.66417 0.69207 0.73188 0.0
C308 C 0.687 0.73271 0.73684 0.0
C309 C 0.71418 0.76234 0.72892 0.0
C310 C 0.71726 0.75008 0.71623 0.0
H311 H 0.65204 0.6495 0.71535 0.0
O312 O 0.79029 0.59461 0.70417 0.0
O313 O 0.76533 0.66454 0.69711 0.0
O314 O 0.71073 0.58564 0.68674 0.0
O315 O 0.66607 0.64899 0.69239 0.0
C316 C 0.73984 0.80251 0.73322 0.0
C317 C 0.76779 0.8299 0.72484 0.0
H318 H 0.82025 0.87196 0.70611 0.0
H319 H 0.82466 0.84217 0.68421 0.0
H320 H 0.64321 0.66896 0.73793 0.0
H321 H 0.68385 0.74051 0.74676 0.0
H322 H 0.73962 0.81167 0.74302 0.0
H323 H 0.78785 0.86031 0.72835 0.0
Mn324 Mn 0.39623 0.26999 0.93672 0.0
Mn325 Mn 0.30294 0.19807 0.94409 0.0
C326 C 0.37136 0.2628 0.95738 0.0
C327 C 0.42709 0.34474 0.93075 0.0
C328 C 0.4024 0.1601 0.93871 0.0
O329 O 0.36379 0.26063 0.91983 0.0
O330 O 0.30317 0.21244 0.92586 0.0
C331 C 0.2247 0.26656 0.93862 0.0
N332 N 0.24695 0.23602 0.9467 0.0
C333 C 0.18534 0.24687 0.96221 0.0
C334 C 0.1616 0.27831 0.95404 0.0
C335 C 0.18156 0.28844 0.94222 0.0
C336 C 0.22852 0.22668 0.95817 0.0
H337 H 0.23968 0.27402 0.92947 0.0
C338 C 0.32639 0.2359 0.91751 0.0
O339 O 0.45082 0.30543 0.92881 0.0
O340 O 0.3851 0.34039 0.93584 0.0
N341 N 0.29723 0.18114 0.9614 0.0
C342 C 0.326 0.15213 0.96839 0.0
C343 C 0.31152 0.13876 0.98052 0.0
C344 C 0.26734 0.15472 0.98523 0.0
C345 C 0.23852 0.18497 0.9779 0.0
C346 C 0.25493 0.1972 0.96591 0.0
H347 H 0.35946 0.13887 0.96469 0.0
O348 O 0.41466 0.27638 0.95469 0.0
O349 O 0.34363 0.25362 0.94787 0.0
O350 O 0.42179 0.20064 0.93634 0.0
O351 O 0.35847 0.15551 0.94181 0.0
C352 C 0.19401 0.20318 0.98195 0.0
C353 C 0.16782 0.23468 0.9742 0.0
H354 H 0.12814 0.29497 0.95675 0.0
H355 H 0.16353 0.31275 0.93587 0.0
H356 H 0.33397 0.11556 0.98614 0.0
H357 H 0.25594 0.14332 0.99448 0.0
H358 H 0.17951 0.19338 0.99102 0.0
H359 H 0.13415 0.24916 0.97752 0.0
Mn360 Mn 0.75598 0.89977 0.18709 0.0
Mn361 Mn 0.82634 0.80544 0.19436 0.0
C362 C 0.76176 0.87394 0.20771 0.0
C363 C 0.68159 0.93078 0.18097 0.0
C364 C 0.86569 0.90503 0.18921 0.0
O365 O 0.76637 0.86835 0.17013 0.0
O366 O 0.8113 0.80554 0.17616 0.0
C367 C 0.75709 0.72761 0.18902 0.0
N368 N 0.78792 0.74971 0.19706 0.0
C369 C 0.77729 0.6878 0.21253 0.0
C370 C 0.74557 0.66423 0.20441 0.0
C371 C 0.73517 0.68442 0.19264 0.0
C372 C 0.7975 0.73106 0.20848 0.0
H373 H 0.74942 0.74274 0.17991 0.0
C374 C 0.789 0.8297 0.16779 0.0
O375 O 0.72101 0.95473 0.17923 0.0
O376 O 0.68568 0.88856 0.18593 0.0
N377 N 0.84337 0.79969 0.21166 0.0
C378 C 0.87224 0.82852 0.21866 0.0
C379 C 0.88532 0.81408 0.23081 0.0
C380 C 0.86931 0.76983 0.23553 0.0
C381 C 0.8394 0.74086 0.22816 0.0
C382 C 0.82718 0.75737 0.21619 0.0
H383 H 0.88553 0.86203 0.21496 0.0
O384 O 0.74855 0.91736 0.20507 0.0
O385 O 0.77129 0.8466 0.19815 0.0
O386 O 0.82537 0.92511 0.18706 0.0
O387 O 0.86969 0.86069 0.19197 0.0
C388 C 0.82135 0.69618 0.23219 0.0
C389 C 0.78972 0.67006 0.22447 0.0
H390 H 0.72889 0.63072 0.20713 0.0
H391 H 0.71064 0.66652 0.18633 0.0
H392 H 0.90829 0.83667 0.23646 0.0
H393 H 0.88018 0.75854 0.24483 0.0
H394 H 0.83123 0.68163 0.24125 0.0
H395 H 0.77527 0.63631 0.22779 0.0
Mn396 Mn 0.10602 0.24108 0.43644 0.0
Mn397 Mn 0.19964 0.31191 0.44421 0.0
C398 C 0.13336 0.24307 0.45689 0.0
C399 C 0.07567 0.16724 0.42971 0.0
C400 C 0.09963 0.3504 0.43965 0.0
O401 O 0.13697 0.25518 0.4195 0.0
O402 O 0.1992 0.30085 0.42585 0.0
C403 C 0.27796 0.24482 0.43785 0.0
N404 N 0.25523 0.27295 0.44642 0.0
C405 C 0.31084 0.25014 0.46258 0.0
C406 C 0.33507 0.22123 0.45391 0.0
C407 C 0.31856 0.2186 0.44149 0.0
C408 C 0.27105 0.2761 0.45836 0.0
H409 H 0.2651 0.24224 0.42832 0.0
C410 C 0.17484 0.2796 0.41732 0.0
O411 O 0.05109 0.20647 0.42846 0.0
O412 O 0.1183 0.17135 0.43441 0.0
N413 N 0.20458 0.32474 0.46178 0.0
C414 C 0.17532 0.3517 0.46917 0.0
C415 C 0.18586 0.35658 0.48199 0.0
C416 C 0.22626 0.33366 0.48707 0.0
C417 C 0.25607 0.30653 0.47923 0.0
C418 C 0.24431 0.30368 0.46649 0.0
H419 H 0.1439 0.36887 0.46534 0.0
O420 O 0.08982 0.22962 0.45448 0.0
O421 O 0.15926 0.25555 0.44728 0.0
O422 O 0.07977 0.31 0.4374 0.0
O423 O 0.14406 0.35502 0.44228 0.0
C424 C 0.29589 0.28064 0.48365 0.0
C425 C 0.32353 0.25281 0.47534 0.0
H426 H 0.36599 0.20042 0.45674 0.0
H427 H 0.33685 0.19611 0.43476 0.0
H428 H 0.1626 0.37748 0.48798 0.0
H429 H 0.23373 0.33667 0.49701 0.0
H430 H 0.3045 0.28043 0.49348 0.0
H431 H 0.35364 0.23255 0.47894 0.0
Mn432 Mn 0.7795 0.90976 0.56354 0.0
Mn433 Mn 0.70893 0.81645 0.5554 0.0
C434 C 0.7772 0.88373 0.54298 0.0
C435 C 0.85354 0.94013 0.5702 0.0
C436 C 0.66999 0.91612 0.56009 0.0
O437 O 0.76634 0.8776 0.58035 0.0
O438 O 0.71918 0.81683 0.57383 0.0
C439 C 0.77611 0.73845 0.56206 0.0
N440 N 0.74824 0.761 0.55338 0.0
C441 C 0.77216 0.7055 0.53733 0.0
C442 C 0.80081 0.68147 0.54611 0.0
C443 C 0.80276 0.69802 0.55853 0.0
C444 C 0.74577 0.74516 0.54143 0.0
H445 H 0.7782 0.75132 0.57159 0.0
C446 C 0.74116 0.84017 0.58243 0.0
O447 O 0.81421 0.9644 0.57166 0.0
O448 O 0.8494 0.8978 0.56535 0.0
N449 N 0.69686 0.81128 0.53779 0.0
C450 C 0.66981 0.84016 0.53029 0.0
C451 C 0.66541 0.82941 0.51747 0.0
C452 C 0.68886 0.78917 0.51251 0.0
C453 C 0.716 0.7597 0.52045 0.0
C454 C 0.71835 0.77165 0.53318 0.0
H455 H 0.65221 0.87146 0.53404 0.0
O456 O 0.79018 0.92726 0.54555 0.0
O457 O 0.7652 0.85709 0.55249 0.0
O458 O 0.71018 0.93547 0.56288 0.0
O459 O 0.66578 0.87206 0.55704 0.0
C460 C 0.74237 0.72003 0.51616 0.0
C461 C 0.7701 0.6927 0.52457 0.0
H462 H 0.82194 0.65067 0.54338 0.0
H463 H 0.82505 0.67988 0.56535 0.0
H464 H 0.64448 0.8524 0.5114 0.0
H465 H 0.68625 0.78158 0.50257 0.0
H466 H 0.74304 0.71131 0.50633 0.0
H467 H 0.7907 0.6627 0.52107 0.0
Mn468 Mn 0.1054 0.27938 0.81306 0.0
Mn469 Mn 0.19886 0.20891 0.8051 0.0
C470 C 0.13232 0.2774 0.79257 0.0
C471 C 0.07498 0.35318 0.81975 0.0
C472 C 0.09897 0.16993 0.80963 0.0
O473 O 0.13677 0.26594 0.82992 0.0
O474 O 0.19785 0.21901 0.82353 0.0
C475 C 0.27693 0.27589 0.8119 0.0
N476 N 0.25452 0.24817 0.80318 0.0
C477 C 0.31066 0.2721 0.78723 0.0
C478 C 0.33455 0.3006 0.79606 0.0
C479 C 0.31762 0.30246 0.80845 0.0
C480 C 0.27074 0.24577 0.79125 0.0
H481 H 0.26377 0.27789 0.82141 0.0
C482 C 0.17408 0.24081 0.83207 0.0
O483 O 0.05054 0.31383 0.82111 0.0
O484 O 0.11744 0.34922 0.81495 0.0
N485 N 0.20452 0.19701 0.7875 0.0
C486 C 0.1757 0.17017 0.77995 0.0
C487 C 0.18679 0.16593 0.76714 0.0
C488 C 0.22729 0.18935 0.76225 0.0
C489 C 0.25668 0.21629 0.77025 0.0
C490 C 0.24438 0.21849 0.78296 0.0
H491 H 0.14419 0.15261 0.78364 0.0
O492 O 0.08869 0.29032 0.79504 0.0
O493 O 0.15849 0.26522 0.80213 0.0
O494 O 0.07957 0.21012 0.81234 0.0
O495 O 0.14311 0.16573 0.80666 0.0
C496 C 0.29661 0.24259 0.76602 0.0
C497 C 0.32385 0.27014 0.77449 0.0
H498 H 0.36556 0.32167 0.79339 0.0
H499 H 0.33566 0.32462 0.81531 0.0
H500 H 0.16385 0.14517 0.76103 0.0
H501 H 0.23516 0.18685 0.75232 0.0
H502 H 0.30563 0.2433 0.75621 0.0
H503 H 0.35407 0.2907 0.77104 0.0
Mn504 Mn 0.75837 0.61805 0.06147 0.0
Mn505 Mn 0.83244 0.70973 0.0544 0.0
C506 C 0.76529 0.64377 0.04085 0.0
C507 C 0.68323 0.58929 0.06774 0.0
C508 C 0.86727 0.60945 0.06068 0.0
O509 O 0.7702 0.64982 0.0784 0.0
O510 O 0.81254 0.71456 0.07221 0.0
C511 C 0.76731 0.79273 0.05712 0.0
N512 N 0.79823 0.76651 0.05003 0.0
C513 C 0.79738 0.82554 0.03356 0.0
C514 C 0.76548 0.85322 0.04067 0.0
C515 C 0.75008 0.83655 0.05245 0.0
C516 C 0.81253 0.78177 0.03859 0.0
H517 H 0.75618 0.78041 0.06628 0.0
C518 C 0.79059 0.68997 0.08059 0.0
O519 O 0.72198 0.56442 0.06944 0.0
O520 O 0.68832 0.63136 0.06272 0.0
N521 N 0.85381 0.7096 0.03737 0.0
C522 C 0.88139 0.67672 0.0313 0.0
C523 C 0.89806 0.68681 0.01915 0.0
C524 C 0.88709 0.73096 0.01349 0.0
C525 C 0.85866 0.76419 0.01994 0.0
C526 C 0.84206 0.75163 0.03189 0.0
H527 H 0.89086 0.64325 0.03574 0.0
O528 O 0.75018 0.60086 0.04346 0.0
O529 O 0.77606 0.67043 0.05044 0.0
O530 O 0.82619 0.58967 0.06146 0.0
O531 O 0.87298 0.65406 0.05859 0.0
C532 C 0.84628 0.80936 0.01503 0.0
C533 C 0.81501 0.83971 0.02173 0.0
H534 H 0.75253 0.88729 0.03716 0.0
H535 H 0.72547 0.85771 0.05799 0.0
H536 H 0.91993 0.66094 0.01423 0.0
H537 H 0.90059 0.73892 0.00419 0.0
H538 H 0.85967 0.82064 0.00595 0.0
H539 H 0.8046 0.87374 0.01767 0.0
Mn540 Mn 0.39815 0.25354 0.31279 0.0
Mn541 Mn 0.30526 0.32562 0.30539 0.0
C542 C 0.373 0.26014 0.29215 0.0
C543 C 0.42833 0.17871 0.31888 0.0
C544 C 0.4052 0.36336 0.31053 0.0
O545 O 0.36596 0.2635 0.32969 0.0
O546 O 0.30549 0.31165 0.32365 0.0
C547 C 0.22656 0.25767 0.31107 0.0
N548 N 0.24897 0.28787 0.3029 0.0
C549 C 0.18708 0.2769 0.28747 0.0
C550 C 0.16319 0.24582 0.29573 0.0
C551 C 0.18321 0.23592 0.30755 0.0
C552 C 0.23049 0.29697 0.29143 0.0
H553 H 0.24157 0.25038 0.32021 0.0
C554 C 0.3286 0.28822 0.33201 0.0
O555 O 0.45249 0.2179 0.32072 0.0
O556 O 0.38635 0.18325 0.31382 0.0
N557 N 0.2995 0.34208 0.28805 0.0
C558 C 0.32844 0.37067 0.28096 0.0
C559 C 0.31397 0.38364 0.26881 0.0
C560 C 0.26963 0.36774 0.26416 0.0
C561 C 0.2406 0.33799 0.2716 0.0
C562 C 0.25704 0.32607 0.2836 0.0
H563 H 0.36203 0.38389 0.28461 0.0
O564 O 0.41626 0.24647 0.29482 0.0
O565 O 0.3455 0.26979 0.30167 0.0
O566 O 0.42436 0.32281 0.31296 0.0
O567 O 0.36117 0.368 0.30753 0.0
C568 C 0.19587 0.31996 0.26764 0.0
C569 C 0.16951 0.28884 0.27549 0.0
H570 H 0.12957 0.22927 0.29308 0.0
H571 H 0.16506 0.21189 0.31396 0.0
H572 H 0.33659 0.40647 0.26311 0.0
H573 H 0.25827 0.37875 0.25489 0.0
H574 H 0.18135 0.32958 0.25857 0.0
H575 H 0.13567 0.27447 0.27222 0.0
H576 H 0.17453 0.28474 0.0931 0.0
H577 H 0.31397 0.3449 0.10104 0.0
H578 H 0.1739 0.24595 0.11362 0.0
H579 H 0.31348 0.30521 0.12162 0.0
H580 H 0.31138 0.17297 0.14934 0.0
H581 H 0.31236 0.21351 0.12891 0.0
H582 H 0.17399 0.27532 0.13685 0.0
H583 H 0.17313 0.2356 0.15727 0.0
C584 C 0.20493 0.28988 0.09927 0.0
C585 C 0.24428 0.31792 0.0955 0.0
C586 C 0.2045 0.26772 0.111 0.0
C587 C 0.24375 0.27241 0.11912 0.0
C588 C 0.28298 0.3008 0.11545 0.0
C589 C 0.28303 0.32383 0.10376 0.0
C590 C 0.28099 0.1948 0.14665 0.0
C591 C 0.24211 0.20102 0.15487 0.0
C592 C 0.28182 0.21835 0.13505 0.0
C593 C 0.24338 0.24768 0.1314 0.0
C594 C 0.20402 0.25285 0.13947 0.0
C595 C 0.20357 0.23011 0.15113 0.0
H596 H 0.73556 0.70454 0.41101 0.0
H597 H 0.86757 0.76466 0.39659 0.0
H598 H 0.70053 0.70837 0.39018 0.0
H599 H 0.83194 0.76867 0.37566 0.0
H600 H 0.76922 0.71106 0.33855 0.0
H601 H 0.80427 0.71043 0.3594 0.0
H602 H 0.67397 0.77 0.37462 0.0
H603 H 0.6383 0.77049 0.35367 0.0
C604 C 0.75725 0.71851 0.4034 0.0
C605 C 0.8046 0.73407 0.40549 0.0
C606 C 0.73689 0.72107 0.39148 0.0
C607 C 0.76342 0.73894 0.38132 0.0
C608 C 0.81078 0.75441 0.38334 0.0
C609 C 0.83112 0.75222 0.39532 0.0
C610 C 0.74777 0.72393 0.34631 0.0
C611 C 0.70072 0.74063 0.34442 0.0
C612 C 0.76816 0.72394 0.35825 0.0
C613 C 0.74195 0.7403 0.36861 0.0
C614 C 0.69487 0.75687 0.36679 0.0
C615 C 0.67451 0.75725 0.3548 0.0
H616 H 0.25787 0.14715 0.60286 0.0
H617 H 0.31871 0.27926 0.5887 0.0
H618 H 0.25578 0.18144 0.62394 0.0
H619 H 0.31678 0.31297 0.60969 0.0
H620 H 0.25822 0.37348 0.64671 0.0
H621 H 0.25637 0.33913 0.62564 0.0
H622 H 0.31585 0.20726 0.64001 0.0
H623 H 0.31752 0.24103 0.661 0.0
C624 C 0.27086 0.18334 0.60422 0.0
C625 C 0.28868 0.21028 0.59408 0.0
C626 C 0.26977 0.20291 0.61629 0.0
C627 C 0.28602 0.24991 0.61842 0.0
C628 C 0.30352 0.27688 0.60829 0.0
C629 C 0.305 0.25728 0.59628 0.0
C630 C 0.2709 0.33719 0.64538 0.0
C631 C 0.28824 0.31018 0.65555 0.0
C632 C 0.26996 0.31759 0.63331 0.0
C633 C 0.28589 0.2705 0.63121 0.0
C634 C 0.30285 0.24343 0.64138 0.0
C635 C 0.30418 0.26306 0.65339 0.0
H636 H 0.7365 0.81818 0.83946 0.0
H637 H 0.86677 0.75285 0.85327 0.0
H638 H 0.70233 0.8147 0.8604 0.0
H639 H 0.83196 0.74907 0.87429 0.0
H640 H 0.77192 0.80572 0.91193 0.0
H641 H 0.80702 0.80592 0.89105 0.0
H642 H 0.67379 0.75366 0.87564 0.0
H643 H 0.63816 0.7538 0.89656 0.0
C644 C 0.75799 0.80314 0.84695 0.0
C645 C 0.80458 0.78596 0.84466 0.0
C646 C 0.73811 0.80078 0.85894 0.0
C647 C 0.76435 0.78144 0.86896 0.0
C648 C 0.81102 0.76448 0.86674 0.0
C649 C 0.83089 0.76653 0.8547 0.0
C650 C 0.74992 0.79429 0.90412 0.0
C651 C 0.70201 0.78002 0.90594 0.0
C652 C 0.77028 0.79405 0.89216 0.0
C653 C 0.74318 0.77983 0.88172 0.0
C654 C 0.6954 0.76527 0.88351 0.0
C655 C 0.67506 0.76518 0.8955 0.0
H656 H 0.67 0.78607 0.59264 0.0
H657 H 0.80857 0.84753 0.60097 0.0
H658 H 0.66986 0.74573 0.61298 0.0
H659 H 0.80853 0.80643 0.62132 0.0
H660 H 0.80979 0.67433 0.64865 0.0
H661 H 0.80934 0.715 0.62823 0.0
H662 H 0.66931 0.77271 0.63632 0.0
H663 H 0.66988 0.73285 0.65672 0.0
C664 C 0.70026 0.79124 0.59886 0.0
C665 C 0.73924 0.82009 0.59524 0.0
C666 C 0.70014 0.76814 0.61048 0.0
C667 C 0.73933 0.77274 0.61863 0.0
C668 C 0.7781 0.80201 0.61512 0.0
C669 C 0.77786 0.82589 0.60356 0.0
C670 C 0.77871 0.69521 0.64598 0.0
C671 C 0.73984 0.70038 0.65425 0.0
C672 C 0.7787 0.71883 0.63439 0.0
C673 C 0.73942 0.74716 0.63079 0.0
C674 C 0.69997 0.75103 0.63888 0.0
C675 C 0.70035 0.72822 0.65054 0.0
H676 H 0.27349 0.16554 0.90666 0.0
H677 H 0.33417 0.30546 0.89948 0.0
H678 H 0.23534 0.16665 0.88607 0.0
H679 H 0.2952 0.30667 0.87885 0.0
H680 H 0.16512 0.30742 0.85072 0.0
H681 H 0.2041 0.30642 0.87133 0.0
H682 H 0.26582 0.16845 0.86293 0.0
H683 H 0.22762 0.16954 0.84234 0.0
C684 C 0.27884 0.19643 0.90065 0.0
C685 C 0.30687 0.23539 0.90465 0.0
C686 C 0.25705 0.19699 0.88888 0.0
C687 C 0.26216 0.23685 0.88096 0.0
C688 C 0.29046 0.27572 0.88487 0.0
C689 C 0.31307 0.2748 0.89658 0.0
C690 C 0.18658 0.27669 0.85335 0.0
C691 C 0.19327 0.23851 0.84495 0.0
C692 C 0.20922 0.27638 0.86505 0.0
C693 C 0.23808 0.23748 0.86863 0.0
C694 C 0.24367 0.19879 0.86038 0.0
C695 C 0.22182 0.19947 0.84862 0.0
H696 H 0.81468 0.78057 0.08787 0.0
H697 H 0.76061 0.64599 0.10231 0.0
H698 H 0.81199 0.81447 0.10884 0.0
H699 H 0.75763 0.68046 0.12335 0.0
H700 H 0.81989 0.74178 0.1601 0.0
H701 H 0.81754 0.70826 0.1391 0.0
H702 H 0.75278 0.83836 0.1252 0.0
H703 H 0.75537 0.87251 0.14629 0.0
C704 C 0.80216 0.75813 0.0955 0.0
C705 C 0.78817 0.71033 0.0934 0.0
C706 C 0.80024 0.77782 0.10751 0.0
C707 C 0.7846 0.75015 0.11771 0.0
C708 C 0.77025 0.70249 0.11565 0.0
C709 C 0.77181 0.68282 0.1036 0.0
C710 C 0.80525 0.7635 0.15259 0.0
C711 C 0.78806 0.81006 0.15489 0.0
C712 C 0.80351 0.74398 0.14057 0.0
C713 C 0.78483 0.7706 0.13053 0.0
C714 C 0.76768 0.81716 0.13277 0.0
C715 C 0.76908 0.83665 0.14484 0.0
H716 H 0.2272 0.35172 0.40706 0.0
H717 H 0.16644 0.21303 0.39861 0.0
H718 H 0.26537 0.35367 0.38648 0.0
H719 H 0.20544 0.21486 0.37797 0.0
H720 H 0.33646 0.21839 0.34997 0.0
H721 H 0.29662 0.21606 0.37048 0.0
H722 H 0.23549 0.35543 0.36335 0.0
H723 H 0.27454 0.35766 0.34287 0.0
C724 C 0.22176 0.32179 0.40076 0.0
C725 C 0.19374 0.28226 0.40441 0.0
C726 C 0.24358 0.32297 0.389 0.0
C727 C 0.23852 0.2843 0.38072 0.0
C728 C 0.21013 0.24492 0.38427 0.0
C729 C 0.18748 0.24411 0.39599 0.0
C730 C 0.31491 0.24869 0.35285 0.0
C731 C 0.30868 0.28825 0.34485 0.0
C732 C 0.29177 0.2471 0.3645 0.0
C733 C 0.26285 0.28545 0.3684 0.0
C734 C 0.25766 0.32547 0.36054 0.0
C735 C 0.28 0.32668 0.34884 0.0
H736 H 0.25396 0.10149 0.23028 0.0
H737 H 0.32996 0.21577 0.21171 0.0
H738 H 0.27562 0.13511 0.25065 0.0
H739 H 0.34935 0.25149 0.23187 0.0
H740 H 0.41887 0.27525 0.27009 0.0
H741 H 0.39551 0.2461 0.24949 0.0
H742 H 0.2613 0.19529 0.26498 0.0
H743 H 0.28774 0.21979 0.28576 0.0
C744 C 0.27468 0.1343 0.23062 0.0
C745 C 0.28865 0.15727 0.21951 0.0
C746 C 0.28678 0.15398 0.24227 0.0
C747 C 0.31353 0.19682 0.24303 0.0
C748 C 0.32895 0.2185 0.23179 0.0
C749 C 0.31717 0.19855 0.22019 0.0
C750 C 0.38409 0.25849 0.26899 0.0
C751 C 0.35432 0.25133 0.27942 0.0
C752 C 0.37041 0.24191 0.25715 0.0
C753 C 0.32638 0.21799 0.25545 0.0
C754 C 0.29585 0.2126 0.26588 0.0
C755 C 0.31023 0.22804 0.27777 0.0
H756 H 0.78635 0.79944 0.4646 0.0
H757 H 0.91734 0.74324 0.48006 0.0
H758 H 0.76073 0.82442 0.4854 0.0
H759 H 0.89496 0.77305 0.50066 0.0
H760 H 0.75446 0.91877 0.51988 0.0
H761 H 0.77594 0.88484 0.49954 0.0
H762 H 0.84976 0.76894 0.51841 0.0
H763 H 0.8305 0.80495 0.53854 0.0
C764 C 0.80893 0.79105 0.47255 0.0
C765 C 0.85275 0.76745 0.47084 0.0
C766 C 0.79508 0.80684 0.48445 0.0
C767 C 0.82594 0.80156 0.49481 0.0
C768 C 0.86964 0.77721 0.49305 0.0
C769 C 0.88273 0.76022 0.48122 0.0
C770 C 0.77519 0.886 0.51956 0.0
C771 C 0.78911 0.86317 0.53068 0.0
C772 C 0.78718 0.86615 0.50793 0.0
C773 C 0.81375 0.82325 0.50721 0.0
C774 C 0.82942 0.80191 0.51846 0.0
C775 C 0.81771 0.82202 0.53004 0.0
H776 H 0.27579 0.42041 0.73037 0.0
H777 H 0.21977 0.29026 0.7144 0.0
H778 H 0.24503 0.39702 0.75083 0.0
H779 H 0.19389 0.26361 0.73505 0.0
H780 H 0.09824 0.25559 0.76933 0.0
H781 H 0.13303 0.27802 0.74912 0.0
H782 H 0.24847 0.35081 0.76845 0.0
H783 H 0.21156 0.33067 0.78845 0.0
C784 C 0.2586 0.38578 0.73138 0.0
C785 C 0.25175 0.3563 0.7209 0.0
C786 C 0.2411 0.3721 0.74314 0.0
C787 C 0.21658 0.32831 0.74472 0.0
C788 C 0.21159 0.29801 0.73425 0.0
C789 C 0.22788 0.31245 0.72243 0.0
C790 C 0.1311 0.27629 0.76914 0.0
C791 C 0.15351 0.28971 0.78035 0.0
C792 C 0.15144 0.28883 0.75759 0.0
C793 C 0.19444 0.31543 0.75704 0.0
C794 C 0.21543 0.33049 0.76837 0.0
C795 C 0.19481 0.31827 0.77987 0.0
H796 H 0.77551 0.59867 0.01854 0.0
H797 H 0.72763 0.73094 0.03507 0.0
H798 H 0.74272 0.62345 0.99841 0.0
H799 H 0.69933 0.75848 0.01472 0.0
H800 H 0.59876 0.76952 0.9813 0.0
H801 H 0.6351 0.74538 0.00124 0.0
H802 H 0.74661 0.67091 0.98089 0.0
H803 H 0.7086 0.69313 0.96122 0.0
C804 C 0.75975 0.634 0.01771 0.0
C805 C 0.75568 0.66359 0.02826 0.0
C806 C 0.74098 0.64842 0.00615 0.0
C807 C 0.71791 0.69304 0.00485 0.0
C808 C 0.71588 0.7235 0.01535 0.0
C809 C 0.73364 0.70848 0.02697 0.0
C810 C 0.63102 0.74798 0.98121 0.0
C811 C 0.65206 0.73463 0.96982 0.0
C812 C 0.65221 0.73444 0.99259 0.0
C813 C 0.69456 0.70682 0.99276 0.0
C814 C 0.71405 0.69187 0.98125 0.0
C815 C 0.69273 0.70521 0.96994 0.0
H816 H 0.25387 0.41721 0.02012 0.0
H817 H 0.33057 0.30222 0.03808 0.0
H818 H 0.27457 0.38463 0.99958 0.0
H819 H 0.3488 0.26733 0.01774 0.0
H820 H 0.4175 0.24614 0.97931 0.0
H821 H 0.39444 0.27368 8e-05 0.0
H822 H 0.26026 0.32582 0.98497 0.0
H823 H 0.28651 0.3031 0.96404 0.0
C824 C 0.27445 0.38438 0.01961 0.0
C825 C 0.28896 0.36098 0.03059 0.0
C826 C 0.28599 0.3653 0.00786 0.0
C827 C 0.31269 0.32255 0.00687 0.0
C828 C 0.32846 0.30029 0.01799 0.0
C829 C 0.31731 0.31973 0.02969 0.0
C830 C 0.38281 0.26289 0.98053 0.0
C831 C 0.35298 0.27092 0.97016 0.0
C832 C 0.36928 0.2785 0.99247 0.0
C833 C 0.32533 0.30229 0.99434 0.0
C834 C 0.29476 0.30859 0.98395 0.0
C835 C 0.30902 0.29418 0.97197 0.0
H836 H 0.60007 0.7539 0.26912 0.0
H837 H 0.7124 0.83134 0.28798 0.0
H838 H 0.63424 0.77637 0.24883 0.0
H839 H 0.74869 0.85156 0.26793 0.0
H840 H 0.776 0.91964 0.22977 0.0
H841 H 0.74513 0.89676 0.25024 0.0
H842 H 0.69499 0.76252 0.23472 0.0
H843 H 0.72089 0.78872 0.21402 0.0
C844 C 0.63255 0.77518 0.26886 0.0
C845 C 0.65492 0.78923 0.28002 0.0
C846 C 0.65254 0.78775 0.25726 0.0
C847 C 0.69513 0.81499 0.25662 0.0
C848 C 0.71595 0.83075 0.26791 0.0
C849 C 0.69568 0.8185 0.27945 0.0
C850 C 0.75902 0.88494 0.23084 0.0
C851 C 0.75243 0.85513 0.22041 0.0
C852 C 0.74143 0.87154 0.24261 0.0
C853 C 0.71715 0.82767 0.24426 0.0
C854 C 0.71247 0.797 0.23385 0.0
C855 C 0.72883 0.81117 0.22202 0.0
H856 H 0.09941 0.26545 0.48009 0.0
H857 H 0.21279 0.19031 0.46108 0.0
H858 H 0.13404 0.2434 0.50032 0.0
H859 H 0.24958 0.17055 0.48111 0.0
H860 H 0.22003 0.23103 0.53515 0.0
H861 H 0.19467 0.25776 0.51446 0.0
H862 H 0.24567 0.12434 0.49872 0.0
H863 H 0.27588 0.10085 0.51923 0.0
C864 C 0.13228 0.24486 0.4803 0.0
C865 C 0.15472 0.23128 0.46912 0.0
C866 C 0.15253 0.23254 0.49187 0.0
C867 C 0.19547 0.20597 0.49247 0.0
C868 C 0.21656 0.19084 0.48115 0.0
C869 C 0.19602 0.20284 0.46963 0.0
C870 C 0.22821 0.20884 0.52712 0.0
C871 C 0.25187 0.16495 0.52867 0.0
C872 C 0.21223 0.22334 0.51529 0.0
C873 C 0.21735 0.19307 0.50481 0.0
C874 C 0.24166 0.14925 0.50642 0.0
C875 C 0.25884 0.1355 0.5182 0.0
H876 H 0.75403 0.60251 0.7297 0.0
H877 H 0.8292 0.71778 0.71132 0.0
H878 H 0.77493 0.63606 0.75012 0.0
H879 H 0.84769 0.75354 0.73154 0.0
H880 H 0.91587 0.778 0.76989 0.0
H881 H 0.89323 0.74907 0.74921 0.0
H882 H 0.75983 0.69535 0.76453 0.0
H883 H 0.78577 0.71949 0.78537 0.0
C884 C 0.77438 0.63556 0.73009 0.0
C885 C 0.78831 0.6588 0.71902 0.0
C886 C 0.78602 0.65521 0.74177 0.0
C887 C 0.81224 0.69836 0.74261 0.0
C888 C 0.82768 0.72032 0.7314 0.0
C889 C 0.81639 0.70035 0.71977 0.0
C890 C 0.88141 0.76064 0.76873 0.0
C891 C 0.85173 0.75257 0.77913 0.0
C892 C 0.86813 0.74419 0.75685 0.0
C893 C 0.82457 0.7195 0.75507 0.0
C894 C 0.79407 0.71324 0.76548 0.0
C895 C 0.8081 0.7285 0.77741 0.0
H896 H 0.07958 0.13058 0.19625 0.0
H897 H 0.16032 1.01041 0.18196 0.0
H898 H 1.00683 0.08283 0.19574 0.0
H899 H 0.08693 0.96283 0.18119 0.0
H900 H 0.95699 0.87687 0.19507 0.0
H901 H 0.02993 0.92442 0.19481 0.0
H902 H 0.94966 0.04697 0.18176 0.0
H903 H 0.87613 0.99959 0.18228 0.0
C904 C 0.08189 0.09403 0.19291 0.0
C905 C 0.12613 0.07446 0.18915 0.0
C906 C 0.0399 0.06669 0.19254 0.0
C907 C 0.04076 0.01893 0.18838 0.0
C908 C 0.08493 0.9993 0.18459 0.0
C909 C 0.12707 0.02669 0.18498 0.0
C910 C 0.9547 0.91392 0.1921 0.0
C911 C 0.91037 0.93429 0.18871 0.0
C912 C 0.99679 0.94117 0.19188 0.0
C913 C 0.99591 0.98961 0.18825 0.0
C914 C 0.95167 1.00995 0.18477 0.0
C915 C 0.90946 0.98268 0.18501 0.0
H916 H 1.00333 0.36016 0.44408 0.0
H917 H 0.12964 0.44078 0.43397 0.0
H918 H 0.95634 0.43369 0.44399 0.0
H919 H 0.08255 0.51379 0.43307 0.0
H920 H 0.99801 0.64552 0.44431 0.0
H921 H 0.04483 0.57201 0.44453 0.0
H922 H 0.92023 0.49253 0.43223 0.0
H923 H 0.87308 0.56567 0.43282 0.0
C924 C 0.02089 0.39356 0.44166 0.0
C925 C 0.07023 0.39464 0.4391 0.0
C926 C 0.99389 0.43589 0.44152 0.0
C927 C 0.01533 0.48029 0.43853 0.0
C928 C 0.06466 0.48088 0.43572 0.0
C929 C 0.09176 0.43879 0.43614 0.0
C930 C 0.98077 0.61231 0.44162 0.0
C931 C 0.93183 0.61145 0.43858 0.0
C932 C 1.00769 0.56996 0.44167 0.0
C933 C 0.98663 0.52571 0.4384 0.0
C934 C 0.93776 0.52533 0.4351 0.0
C935 C 0.91067 0.56748 0.43532 0.0
H936 H 0.37591 0.5005 0.68273 0.0
H937 H 0.45688 0.37769 0.69541 0.0
H938 H 0.4495 0.54776 0.68207 0.0
H939 H 0.5299 0.42512 0.69501 0.0
H940 H 0.66003 0.5111 0.68185 0.0
H941 H 0.58662 0.4635 0.68126 0.0
H942 H 0.50699 0.58349 0.69599 0.0
H943 H 0.57973 0.63124 0.69634 0.0
C944 C 0.40927 0.48354 0.6854 0.0
C945 C 0.4102 0.43517 0.68911 0.0
C946 C 0.45153 0.51074 0.68508 0.0
C947 C 0.49581 0.49034 0.6885 0.0
C948 C 0.49671 0.44191 0.69213 0.0
C949 C 0.45458 0.41474 0.69243 0.0
C950 C 0.62688 0.52736 0.68495 0.0
C951 C 0.62606 0.57515 0.68912 0.0
C952 C 0.58473 0.49997 0.68466 0.0
C953 C 0.54068 0.51961 0.68855 0.0
C954 C 0.53996 0.56734 0.69272 0.0
C955 C 0.58196 0.59469 0.69299 0.0
H956 H 0.37644 0.06945 0.94575 0.0
H957 H 0.49509 0.14972 0.93022 0.0
H958 H 0.4239 0.9968 0.94508 0.0
H959 H 0.5424 0.07626 0.92925 0.0
H960 H 0.62924 0.94721 0.94342 0.0
H961 H 0.58215 0.02022 0.94277 0.0
H962 H 0.45807 0.93881 0.93122 0.0
H963 H 0.50501 0.86521 0.93218 0.0
C964 C 0.41257 0.07166 0.94207 0.0
C965 C 0.43185 0.11573 0.93804 0.0
C966 C 0.43974 0.0297 0.94161 0.0
C967 C 0.487 0.03041 0.93706 0.0
C968 C 0.50631 0.0744 0.93295 0.0
C969 C 0.4791 0.11656 0.93346 0.0
C970 C 0.59196 0.94469 0.94068 0.0
C971 C 0.57098 0.90002 0.93789 0.0
C972 C 0.56497 0.98682 0.94023 0.0
C973 C 0.51622 0.98562 0.93695 0.0
C974 C 0.49535 0.94108 0.93397 0.0
C975 C 0.52235 0.89881 0.93446 0.0
H976 H 0.08211 0.38211 0.06635 0.0
H977 H 0.1623 0.50992 0.0573 0.0
H978 H 1.0087 0.42865 0.06729 0.0
H979 H 0.08847 0.55638 0.0575 0.0
H980 H 0.95576 0.63752 0.0686 0.0
H981 H 0.02878 0.59031 0.06957 0.0
H982 H 0.95135 0.46737 0.05542 0.0
H983 H 0.87776 0.51422 0.05519 0.0
C984 C 0.08396 0.42021 0.06445 0.0
C985 C 0.12808 0.44233 0.06175 0.0
C986 C 0.04167 0.44697 0.0649 0.0
C987 C 0.0421 0.49652 0.06241 0.0
C988 C 0.08646 0.51858 0.05972 0.0
C989 C 0.12895 0.4919 0.05952 0.0
C990 C 0.95432 0.60026 0.06579 0.0
C991 C 0.91095 0.57959 0.06183 0.0
C992 C 0.9964 0.57318 0.06623 0.0
C993 C 0.99656 0.52485 0.06247 0.0
C994 C 0.95285 0.50413 0.05861 0.0
C995 C 0.91052 0.53104 0.05841 0.0
H996 H 0.63177 0.57755 0.30353 0.0
H997 H 0.5101 0.65739 0.31732 0.0
H998 H 0.58467 0.50422 0.30415 0.0
H999 H 0.46331 0.58366 0.3182 0.0
H1000 H 0.37828 0.4545 0.30424 0.0
H1001 H 0.42619 0.527 0.30442 0.0
H1002 H 0.5477 0.44657 0.31804 0.0
H1003 H 0.49981 0.37321 0.31761 0.0
C1004 C 0.59505 0.57954 0.30678 0.0
C1005 C 0.57481 0.62369 0.31034 0.0
C1006 C 0.56809 0.53725 0.30721 0.0
C1007 C 0.5201 0.53781 0.31123 0.0
C1008 C 0.49994 0.58187 0.31488 0.0
C1009 C 0.52689 0.62424 0.31443 0.0
C1010 C 0.41517 0.45201 0.30733 0.0
C1011 C 0.43503 0.40768 0.31093 0.0
C1012 C 0.44265 0.49389 0.3075 0.0
C1013 C 0.49085 0.49291 0.31129 0.0
C1014 C 0.51083 0.44866 0.31493 0.0
C1015 C 0.48328 0.40656 0.31474 0.0
H1016 H 0.65948 1.00985 0.56766 0.0
H1017 H 0.57933 0.88956 0.5531 0.0
H1018 H 0.58611 0.05732 0.56819 0.0
H1019 H 0.50659 0.9372 0.55339 0.0
H1020 H 0.37543 0.02025 0.56663 0.0
H1021 H 0.44888 0.97294 0.56727 0.0
H1022 H 0.52968 0.09563 0.55438 0.0
H1023 H 0.45681 0.14309 0.55401 0.0
C1024 C 0.62636 0.99352 0.56453 0.0
C1025 C 0.62558 0.94574 0.56036 0.0
C1026 C 0.58424 0.02084 0.56478 0.0
C1027 C 0.54023 1.00115 0.56085 0.0
C1028 C 0.53953 0.9534 0.55669 0.0
C1029 C 0.58152 0.92611 0.55645 0.0
C1030 C 0.40885 0.0372 0.56396 0.0
C1031 C 0.40993 0.08561 0.56028 0.0
C1032 C 0.45103 1.00997 0.56427 0.0
C1033 C 0.49539 0.03038 0.56087 0.0
C1034 C 0.49643 0.07882 0.55725 0.0
C1035 C 0.45438 0.10603 0.55696 0.0
H1036 H 0.12502 0.07945 0.80246 0.0
H1037 H 1.00583 0.15919 0.81771 0.0
H1038 H 0.07752 1.0065 0.80313 0.0
H1039 H 0.95858 0.08566 0.81863 0.0
H1040 H 0.87179 0.95607 0.80516 0.0
H1041 H 0.91917 0.02906 0.80519 0.0
H1042 H 0.04309 0.94876 0.8173 0.0
H1043 H 0.99582 0.87513 0.817 0.0
C1044 C 0.08874 0.0815 0.80603 0.0
C1045 C 0.06936 0.12549 0.81002 0.0
C1046 C 0.06155 0.0394 0.80649 0.0
C1047 C 0.01419 0.03995 0.81098 0.0
C1048 C 0.99474 0.08391 0.81498 0.0
C1049 C 0.02193 0.12613 0.81449 0.0
C1050 C 0.9091 0.95377 0.80789 0.0
C1051 C 0.92987 0.90941 0.81107 0.0
C1052 C 0.93627 0.9959 0.80797 0.0
C1053 C 0.98503 0.99502 0.81126 0.0
C1054 C 1.00579 0.95076 0.81455 0.0
C1055 C 0.97858 0.9085 0.81445 0.0
H1056 H 0.59419 0.88964 0.18494 0.0
H1057 H 0.66065 0.01904 0.17101 0.0
H1058 H 0.51561 0.9261 0.18267 0.0
H1059 H 0.58163 0.0553 0.16839 0.0
H1060 H 0.4415 0.12276 0.18355 0.0
H1061 H 0.52021 0.08621 0.1818 0.0
H1062 H 0.45492 0.95505 0.1687 0.0
H1063 H 0.37573 0.99145 0.1708 0.0
C1064 C 0.592 0.92566 0.18119 0.0
C1065 C 0.63378 0.95154 0.17825 0.0
C1066 C 0.54677 0.94652 0.1798 0.0
C1067 C 0.54207 0.99381 0.17539 0.0
C1068 C 0.58386 0.01908 0.172 0.0
C1069 C 0.62919 0.99821 0.17343 0.0
C1070 C 0.44388 0.0863 0.18014 0.0
C1071 C 0.40225 0.05991 0.1774 0.0
C1072 C 0.48919 0.06537 0.17906 0.0
C1073 C 0.49411 0.01749 0.17518 0.0
C1074 C 0.45249 0.99174 0.17192 0.0
C1075 C 0.40708 0.01269 0.17304 0.0
H1076 H 0.88542 0.92681 0.43531 0.0
H1077 H 0.01374 0.86111 0.42066 0.0
H1078 H 0.92155 1.00558 0.43285 0.0
H1079 H 0.04961 0.94028 0.41784 0.0
H1080 H 0.11831 0.08017 0.43274 0.0
H1081 H 0.08166 1.00144 0.43107 0.0
H1082 H 0.9493 0.06669 0.41883 0.0
H1083 H 0.98584 0.14591 0.42085 0.0
C1084 C 0.9211 0.92922 0.43136 0.0
C1085 C 0.94683 0.8876 0.42828 0.0
C1086 C 0.94176 0.97454 0.42986 0.0
C1087 C 0.98868 0.97949 0.42519 0.0
C1088 C 0.01371 0.93785 0.42165 0.0
C1089 C 0.99306 0.89244 0.4232 0.0
C1090 C 0.08156 0.07778 0.42953 0.0
C1091 C 0.05489 0.11941 0.42702 0.0
C1092 C 0.06056 0.03246 0.4285 0.0
C1093 C 0.01233 0.02751 0.42489 0.0
C1094 C 0.98627 0.06913 0.42184 0.0
C1095 C 1.0073 0.11457 0.42291 0.0
H1096 H 0.16064 0.51935 0.67109 0.0
H1097 H 0.09396 0.39059 0.68535 0.0
H1098 H 0.08167 0.55549 0.66826 0.0
H1099 H 0.01541 0.42696 0.68288 0.0
H1100 H 0.87566 0.49176 0.67067 0.0
H1101 H 0.95486 0.45522 0.66879 0.0
H1102 H 0.02001 0.58711 0.68143 0.0
H1103 H 0.94129 0.62377 0.68296 0.0
C1104 C 0.12914 0.49863 0.67354 0.0
C1105 C 0.13366 0.45219 0.6785 0.0
C1106 C 0.08384 0.51944 0.67199 0.0
C1107 C 0.04198 0.49433 0.67541 0.0
C1108 C 0.04662 0.44724 0.67998 0.0
C1109 C 0.09183 0.42644 0.68148 0.0
C1110 C 0.90698 0.51313 0.67285 0.0
C1111 C 0.90209 0.5606 0.67703 0.0
C1112 C 0.95241 0.49209 0.67187 0.0
C1113 C 0.994 0.51801 0.67506 0.0
C1114 C 0.98902 0.56612 0.67875 0.0
C1115 C 0.94371 0.58712 0.6797 0.0
H1116 H 0.38621 0.43208 0.93483 0.0
H1117 H 0.51529 0.36588 0.9208 0.0
H1118 H 0.42289 0.51072 0.93257 0.0
H1119 H 0.55178 0.44491 0.91823 0.0
H1120 H 0.61944 0.58509 0.93353 0.0
H1121 H 0.58286 0.50629 0.93175 0.0
H1122 H 0.45191 0.57135 0.91844 0.0
H1123 H 0.48834 0.65057 0.92055 0.0
C1124 C 0.4222 0.43435 0.93107 0.0
C1125 C 0.44793 0.39263 0.92808 0.0
C1126 C 0.44318 0.47958 0.92969 0.0
C1127 C 0.49045 0.48434 0.92526 0.0
C1128 C 0.51558 0.44261 0.92185 0.0
C1129 C 0.49457 0.39729 0.92325 0.0
C1130 C 0.58304 0.58262 0.93006 0.0
C1131 C 0.5567 0.6242 0.92727 0.0
C1132 C 0.56209 0.53728 0.92897 0.0
C1133 C 0.51424 0.53229 0.92503 0.0
C1134 C 0.48857 0.57384 0.92171 0.0
C1135 C 0.50956 0.61927 0.92282 0.0
H1136 H 0.66156 0.50301 0.07861 0.0
H1137 H 0.59601 0.63023 0.0632 0.0
H1138 H 0.58248 0.46721 0.08147 0.0
H1139 H 0.51712 0.59407 0.06574 0.0
H1140 H 0.37692 0.52922 0.07832 0.0
H1141 H 0.4559 0.56664 0.07999 0.0
H1142 H 0.52189 0.43427 0.06812 0.0
H1143 H 0.44342 0.39681 0.06678 0.0
C1144 C 0.63026 0.52348 0.07591 0.0
C1145 C 0.63513 0.56936 0.0706 0.0
C1146 C 0.58489 0.50285 0.07748 0.0
C1147 C 0.54329 0.52752 0.07375 0.0
C1148 C 0.54819 0.57415 0.06886 0.0
C1149 C 0.59354 0.59482 0.06733 0.0
C1150 C 0.40838 0.50796 0.07627 0.0
C1151 C 0.40383 0.46009 0.07237 0.0
C1152 C 0.45366 0.5295 0.07713 0.0
C1153 C 0.4954 0.50364 0.07411 0.0
C1154 C 0.49075 0.45522 0.07068 0.0
C1155 C 0.44559 0.43374 0.06983 0.0
H1156 H 0.3873 0.09153 0.31451 0.0
H1157 H 0.51554 0.15714 0.32931 0.0
H1158 H 0.4234 0.01276 0.31685 0.0
H1159 H 0.55137 0.07799 0.332 0.0
H1160 H 0.48792 0.87219 0.32866 0.0
H1161 H 0.45117 0.95124 0.33077 0.0
H1162 H 0.58348 0.01732 0.31865 0.0
H1163 H 0.6203 0.93881 0.31689 0.0
C1164 C 0.42296 0.0891 0.31846 0.0
C1165 C 0.44867 0.13071 0.32163 0.0
C1166 C 0.4436 0.04378 0.31989 0.0
C1167 C 0.49048 0.03881 0.32456 0.0
C1168 C 0.5155 0.08042 0.32818 0.0
C1169 C 0.49486 0.12583 0.32671 0.0
C1170 C 0.50932 0.90368 0.32665 0.0
C1171 C 0.55695 0.89914 0.32255 0.0
C1172 C 0.48817 0.94902 0.32777 0.0
C1173 C 0.51416 0.99083 0.32479 0.0
C1174 C 0.56241 0.98615 0.32118 0.0
C1175 C 0.58351 0.94095 0.32009 0.0
H1176 H 0.87519 0.02985 0.57909 0.0
H1177 H 0.94053 0.89764 0.56695 0.0
H1178 H 0.95451 0.06637 0.58097 0.0
H1179 H 0.01932 0.93426 0.56847 0.0
H1180 H 0.16015 1.00194 0.57864 0.0
H1181 H 0.08105 0.966 0.58158 0.0
H1182 H 0.0152 0.09441 0.56688 0.0
H1183 H 0.09388 0.13059 0.5643 0.0
C1184 C 0.90647 1.00843 0.57695 0.0
C1185 C 0.90147 0.96092 0.57281 0.0
C1186 C 0.95196 0.02945 0.57794 0.0
C1187 C 0.9935 1.00346 0.57478 0.0
C1188 C 0.9884 0.95532 0.57114 0.0
C1189 C 0.94303 0.93433 0.57018 0.0
C1190 C 0.12872 0.02267 0.57619 0.0
C1191 C 0.13338 0.06902 0.57117 0.0
C1192 C 0.08334 1.00198 0.5778 0.0
C1193 C 0.04155 0.0271 0.57439 0.0
C1194 C 0.04635 0.07411 0.56977 0.0
C1195 C 0.09163 0.0948 0.5682 0.0
H1196 H 0.8849 0.59333 0.8146 0.0
H1197 H 0.01368 0.65924 0.829 0.0
H1198 H 0.92101 0.51464 0.81698 0.0
H1199 H 0.04955 0.5801 0.83173 0.0
H1200 H 0.11759 0.44031 0.81664 0.0
H1201 H 0.08112 0.51899 0.81841 0.0
H1202 H 0.94904 0.45353 0.83094 0.0
H1203 H 0.98539 0.37435 0.8288 0.0
C1204 C 0.9207 0.59098 0.81848 0.0
C1205 C 0.94654 0.63264 0.82152 0.0
C1206 C 0.94134 0.5457 0.81994 0.0
C1207 C 0.98837 0.54081 0.82451 0.0
C1208 C 0.01355 0.58248 0.828 0.0
C1209 C 0.9929 0.62788 0.8265 0.0
C1210 C 0.08094 0.44264 0.81992 0.0
C1211 C 0.05428 0.40097 0.82248 0.0
C1212 C 0.06005 0.48793 0.82102 0.0
C1213 C 0.01195 0.49282 0.82475 0.0
C1214 C 0.98591 0.45114 0.82784 0.0
C1215 C 1.00683 0.40573 0.8267 0.0
loop_
_geom_bond_atom_site_label_1
_geom_bond_atom_site_label_2
_geom_bond_distance
_geom_bond_site_symmetry_2
_ccdc_geom_bond_type
Mn0 O5 2.095 . S
Mn0 O15 2.162 . S
Mn0 O16 2.297 . S
Mn0 O24 2.385 . S
Mn0 O25 2.209 . S
Mn0 O26 2.094 . S
Mn1 O6 2.121 . S
Mn1 N8 2.257 . S
Mn1 N17 2.282 . S
Mn1 O25 2.215 . S
Mn1 O27 2.117 . S
C2 O24 1.234 . S
C2 O25 1.283 . S
C3 O15 1.281 . S
C3 O16 1.236 . S
C4 O26 1.240 . S
C4 O27 1.264 . S
O5 Mn0 2.095 . S
O5 C14 1.250 . S
O6 Mn1 2.121 . S
O6 C14 1.258 . S
C7 N8 1.326 . S
C7 C11 1.460 . S
C7 H13 0.929 . S
N8 Mn1 2.257 . S
N8 C7 1.326 . S
N8 C12 1.362 . S
C9 C10 1.258 . S
C9 C12 1.431 . S
C9 C29 1.449 . S
C10 C9 1.258 . S
C10 C11 1.477 . S
C10 H30 0.931 . S
C11 C7 1.460 . S
C11 C10 1.477 . S
C11 H31 0.930 . S
C12 N8 1.362 . S
C12 C9 1.431 . S
C12 C22 1.476 . S
H13 C7 0.929 . S
C14 O5 1.250 . S
C14 O6 1.258 . S
O15 Mn0 2.162 . S
O15 C3 1.281 . S
O16 Mn0 2.297 . S
O16 C3 1.236 . S
N17 Mn1 2.282 . S
N17 C18 1.328 . S
N17 C22 1.318 . S
C18 N17 1.328 . S
C18 C19 1.457 . S
C18 H23 0.929 . S
C19 C18 1.457 . S
C19 C20 1.291 . S
C19 H32 0.931 . S
C20 C19 1.291 . S
C20 C21 1.373 . S
C20 H33 0.929 . S
C21 C20 1.373 . S
C21 C22 1.396 . S
C21 C28 1.403 . S
C22 C12 1.476 . S
C22 N17 1.318 . S
C22 C21 1.396 . S
H23 C18 0.929 . S
O24 Mn0 2.385 . S
O24 C2 1.234 . S
O25 Mn0 2.209 . S
O25 Mn1 2.215 . S
O25 C2 1.283 . S
O26 Mn0 2.094 . S
O26 C4 1.240 . S
O27 Mn1 2.117 . S
O27 C4 1.264 . S
C28 C21 1.403 . S
C28 C29 1.399 . S
C28 H34 0.929 . S
C29 C9 1.449 . S
C29 C28 1.399 . S
C29 H35 0.930 . S
H30 C10 0.931 . S
H31 C11 0.930 . S
H32 C19 0.931 . S
H33 C20 0.929 . S
H34 C28 0.929 . S
H35 C29 0.930 . S
Mn36 O41 2.095 . S
Mn36 O51 2.162 . S
Mn36 O52 2.297 . S
Mn36 O60 2.385 . S
Mn36 O61 2.209 . S
Mn36 O62 2.094 . S
Mn37 O42 2.121 . S
Mn37 N44 2.257 . S
Mn37 N53 2.282 . S
Mn37 O61 2.215 . S
Mn37 O63 2.117 . S
C38 O60 1.234 . S
C38 O61 1.283 . S
C39 O51 1.281 . S
C39 O52 1.236 . S
C40 O62 1.240 . S
C40 O63 1.264 . S
O41 Mn36 2.095 . S
O41 C50 1.250 . S
O42 Mn37 2.121 . S
O42 C50 1.258 . S
C43 N44 1.326 . S
C43 C47 1.460 . S
C43 H49 0.929 . S
N44 Mn37 2.257 . S
N44 C43 1.326 . S
N44 C48 1.362 . S
C45 C46 1.258 . S
C45 C48 1.431 . S
C45 C65 1.449 . S
C46 C45 1.258 . S
C46 C47 1.477 . S
C46 H66 0.931 . S
C47 C43 1.460 . S
C47 C46 1.477 . S
C47 H67 0.930 . S
C48 N44 1.362 . S
C48 C45 1.431 . S
C48 C58 1.476 . S
H49 C43 0.929 . S
C50 O41 1.250 . S
C50 O42 1.258 . S
O51 Mn36 2.162 . S
O51 C39 1.281 . S
O52 Mn36 2.297 . S
O52 C39 1.236 . S
N53 Mn37 2.282 . S
N53 C54 1.328 . S
N53 C58 1.318 . S
C54 N53 1.328 . S
C54 C55 1.457 . S
C54 H59 0.929 . S
C55 C54 1.457 . S
C55 C56 1.291 . S
C55 H68 0.931 . S
C56 C55 1.291 . S
C56 C57 1.373 . S
C56 H69 0.929 . S
C57 C56 1.373 . S
C57 C58 1.396 . S
C57 C64 1.403 . S
C58 C48 1.476 . S
C58 N53 1.318 . S
C58 C57 1.396 . S
H59 C54 0.929 . S
O60 Mn36 2.385 . S
O60 C38 1.234 . S
O61 Mn36 2.209 . S
O61 Mn37 2.215 . S
O61 C38 1.283 . S
O62 Mn36 2.094 . S
O62 C40 1.240 . S
O63 Mn37 2.117 . S
O63 C40 1.264 . S
C64 C57 1.403 . S
C64 C65 1.399 . S
C64 H70 0.929 . S
C65 C45 1.449 . S
C65 C64 1.399 . S
C65 H71 0.930 . S
H66 C46 0.931 . S
H67 C47 0.930 . S
H68 C55 0.931 . S
H69 C56 0.929 . S
H70 C64 0.929 . S
H71 C65 0.930 . S
Mn72 O77 2.095 . S
Mn72 O87 2.162 . S
Mn72 O88 2.297 . S
Mn72 O96 2.385 . S
Mn72 O97 2.209 . S
Mn72 O98 2.094 . S
Mn73 O78 2.121 . S
Mn73 N80 2.257 . S
Mn73 N89 2.282 . S
Mn73 O97 2.215 . S
Mn73 O99 2.117 . S
C74 O96 1.234 . S
C74 O97 1.283 . S
C75 O87 1.281 . S
C75 O88 1.236 . S
C76 O98 1.240 . S
C76 O99 1.264 . S
O77 Mn72 2.095 . S
O77 C86 1.250 . S
O78 Mn73 2.121 . S
O78 C86 1.258 . S
C79 N80 1.326 . S
C79 C83 1.460 . S
C79 H85 0.929 . S
N80 Mn73 2.257 . S
N80 C79 1.326 . S
N80 C84 1.362 . S
C81 C82 1.258 . S
C81 C84 1.431 . S
C81 C101 1.449 . S
C82 C81 1.258 . S
C82 C83 1.477 . S
C82 H102 0.931 . S
C83 C79 1.460 . S
C83 C82 1.477 . S
C83 H103 0.930 . S
C84 N80 1.362 . S
C84 C81 1.431 . S
C84 C94 1.476 . S
H85 C79 0.929 . S
C86 O77 1.250 . S
C86 O78 1.258 . S
O87 Mn72 2.162 . S
O87 C75 1.281 . S
O88 Mn72 2.297 . S
O88 C75 1.236 . S
N89 Mn73 2.282 . S
N89 C90 1.328 . S
N89 C94 1.318 . S
C90 N89 1.328 . S
C90 C91 1.457 . S
C90 H95 0.929 . S
C91 C90 1.457 . S
C91 C92 1.291 . S
C91 H104 0.931 . S
C92 C91 1.291 . S
C92 C93 1.373 . S
C92 H105 0.929 . S
C93 C92 1.373 . S
C93 C94 1.396 . S
C93 C100 1.403 . S
C94 C84 1.476 . S
C94 N89 1.318 . S
C94 C93 1.396 . S
H95 C90 0.929 . S
O96 Mn72 2.385 . S
O96 C74 1.234 . S
O97 Mn72 2.209 . S
O97 Mn73 2.215 . S
O97 C74 1.283 . S
O98 Mn72 2.094 . S
O98 C76 1.240 . S
O99 Mn73 2.117 . S
O99 C76 1.264 . S
C100 C93 1.403 . S
C100 C101 1.399 . S
C100 H106 0.929 . S
C101 C81 1.449 . S
C101 C100 1.399 . S
C101 H107 0.930 . S
H102 C82 0.931 . S
H103 C83 0.930 . S
H104 C91 0.931 . S
H105 C92 0.929 . S
H106 C100 0.929 . S
H107 C101 0.930 . S
Mn108 O113 2.095 . S
Mn108 O123 2.162 . S
Mn108 O124 2.297 . S
Mn108 O132 2.385 . S
Mn108 O133 2.209 . S
Mn108 O134 2.094 . S
Mn109 O114 2.121 . S
Mn109 N116 2.257 . S
Mn109 N125 2.282 . S
Mn109 O133 2.215 . S
Mn109 O135 2.117 . S
C110 O132 1.234 . S
C110 O133 1.283 . S
C111 O123 1.281 . S
C111 O124 1.236 . S
C112 O134 1.240 . S
C112 O135 1.264 . S
O113 Mn108 2.095 . S
O113 C122 1.250 . S
O114 Mn109 2.121 . S
O114 C122 1.258 . S
C115 N116 1.326 . S
C115 C119 1.460 . S
C115 H121 0.929 . S
N116 Mn109 2.257 . S
N116 C115 1.326 . S
N116 C120 1.362 . S
C117 C118 1.258 . S
C117 C120 1.431 . S
C117 C137 1.449 . S
C118 C117 1.258 . S
C118 C119 1.477 . S
C118 H138 0.931 . S
C119 C115 1.460 . S
C119 C118 1.477 . S
C119 H139 0.930 . S
C120 N116 1.362 . S
C120 C117 1.431 . S
C120 C130 1.476 . S
H121 C115 0.929 . S
C122 O113 1.250 . S
C122 O114 1.258 . S
O123 Mn108 2.162 . S
O123 C111 1.281 . S
O124 Mn108 2.297 . S
O124 C111 1.236 . S
N125 Mn109 2.282 . S
N125 C126 1.328 . S
N125 C130 1.318 . S
C126 N125 1.328 . S
C126 C127 1.457 . S
C126 H131 0.929 . S
C127 C126 1.457 . S
C127 C128 1.291 . S
C127 H140 0.931 . S
C128 C127 1.291 . S
C128 C129 1.373 . S
C128 H141 0.929 . S
C129 C128 1.373 . S
C129 C130 1.396 . S
C129 C136 1.403 . S
C130 C120 1.476 . S
C130 N125 1.318 . S
C130 C129 1.396 . S
H131 C126 0.929 . S
O132 Mn108 2.385 . S
O132 C110 1.234 . S
O133 Mn108 2.209 . S
O133 Mn109 2.215 . S
O133 C110 1.283 . S
O134 Mn108 2.094 . S
O134 C112 1.240 . S
O135 Mn109 2.117 . S
O135 C112 1.264 . S
C136 C129 1.403 . S
C136 C137 1.399 . S
C136 H142 0.929 . S
C137 C117 1.449 . S
C137 C136 1.399 . S
C137 H143 0.930 . S
H138 C118 0.931 . S
H139 C119 0.930 . S
H140 C127 0.931 . S
H141 C128 0.929 . S
H142 C136 0.929 . S
H143 C137 0.930 . S
Mn144 O149 2.095 . S
Mn144 O159 2.162 . S
Mn144 O160 2.297 . S
Mn144 O168 2.385 . S
Mn144 O169 2.209 . S
Mn144 O170 2.094 . S
Mn145 O150 2.121 . S
Mn145 N152 2.257 . S
Mn145 N161 2.282 . S
Mn145 O169 2.215 . S
Mn145 O171 2.117 . S
C146 O168 1.234 . S
C146 O169 1.283 . S
C147 O159 1.281 . S
C147 O160 1.236 . S
C148 O170 1.240 . S
C148 O171 1.264 . S
O149 Mn144 2.095 . S
O149 C158 1.250 . S
O150 Mn145 2.121 . S
O150 C158 1.258 . S
C151 N152 1.326 . S
C151 C155 1.460 . S
C151 H157 0.929 . S
N152 Mn145 2.257 . S
N152 C151 1.326 . S
N152 C156 1.362 . S
C153 C154 1.258 . S
C153 C156 1.431 . S
C153 C173 1.449 . S
C154 C153 1.258 . S
C154 C155 1.477 . S
C154 H174 0.931 . S
C155 C151 1.460 . S
C155 C154 1.477 . S
C155 H175 0.930 . S
C156 N152 1.362 . S
C156 C153 1.431 . S
C156 C166 1.476 . S
H157 C151 0.929 . S
C158 O149 1.250 . S
C158 O150 1.258 . S
O159 Mn144 2.162 . S
O159 C147 1.281 . S
O160 Mn144 2.297 . S
O160 C147 1.236 . S
N161 Mn145 2.282 . S
N161 C162 1.328 . S
N161 C166 1.318 . S
C162 N161 1.328 . S
C162 C163 1.457 . S
C162 H167 0.929 . S
C163 C162 1.457 . S
C163 C164 1.291 . S
C163 H176 0.931 . S
C164 C163 1.291 . S
C164 C165 1.373 . S
C164 H177 0.929 . S
C165 C164 1.373 . S
C165 C166 1.396 . S
C165 C172 1.403 . S
C166 C156 1.476 . S
C166 N161 1.318 . S
C166 C165 1.396 . S
H167 C162 0.929 . S
O168 Mn144 2.385 . S
O168 C146 1.234 . S
O169 Mn144 2.209 . S
O169 Mn145 2.215 . S
O169 C146 1.283 . S
O170 Mn144 2.094 . S
O170 C148 1.240 . S
O171 Mn145 2.117 . S
O171 C148 1.264 . S
C172 C165 1.403 . S
C172 C173 1.399 . S
C172 H178 0.929 . S
C173 C153 1.449 . S
C173 C172 1.399 . S
C173 H179 0.930 . S
H174 C154 0.931 . S
H175 C155 0.930 . S
H176 C163 0.931 . S
H177 C164 0.929 . S
H178 C172 0.929 . S
H179 C173 0.930 . S
Mn180 O185 2.095 . S
Mn180 O195 2.162 . S
Mn180 O196 2.297 . S
Mn180 O204 2.385 . S
Mn180 O205 2.209 . S
Mn180 O206 2.094 . S
Mn181 O186 2.121 . S
Mn181 N188 2.257 . S
Mn181 N197 2.282 . S
Mn181 O205 2.215 . S
Mn181 O207 2.117 . S
C182 O204 1.234 . S
C182 O205 1.283 . S
C183 O195 1.281 . S
C183 O196 1.236 . S
C184 O206 1.240 . S
C184 O207 1.264 . S
O185 Mn180 2.095 . S
O185 C194 1.250 . S
O186 Mn181 2.121 . S
O186 C194 1.258 . S
C187 N188 1.326 . S
C187 C191 1.460 . S
C187 H193 0.929 . S
N188 Mn181 2.257 . S
N188 C187 1.326 . S
N188 C192 1.362 . S
C189 C190 1.258 . S
C189 C192 1.431 . S
C189 C209 1.449 . S
C190 C189 1.258 . S
C190 C191 1.477 . S
C190 H210 0.931 . S
C191 C187 1.460 . S
C191 C190 1.477 . S
C191 H211 0.930 . S
C192 N188 1.362 . S
C192 C189 1.431 . S
C192 C202 1.476 . S
H193 C187 0.929 . S
C194 O185 1.250 . S
C194 O186 1.258 . S
O195 Mn180 2.162 . S
O195 C183 1.281 . S
O196 Mn180 2.297 . S
O196 C183 1.236 . S
N197 Mn181 2.282 . S
N197 C198 1.328 . S
N197 C202 1.318 . S
C198 N197 1.328 . S
C198 C199 1.457 . S
C198 H203 0.929 . S
C199 C198 1.457 . S
C199 C200 1.291 . S
C199 H212 0.931 . S
C200 C199 1.291 . S
C200 C201 1.373 . S
C200 H213 0.929 . S
C201 C200 1.373 . S
C201 C202 1.396 . S
C201 C208 1.403 . S
C202 C192 1.476 . S
C202 N197 1.318 . S
C202 C201 1.396 . S
H203 C198 0.929 . S
O204 Mn180 2.385 . S
O204 C182 1.234 . S
O205 Mn180 2.209 . S
O205 Mn181 2.215 . S
O205 C182 1.283 . S
O206 Mn180 2.094 . S
O206 C184 1.240 . S
O207 Mn181 2.117 . S
O207 C184 1.264 . S
C208 C201 1.403 . S
C208 C209 1.399 . S
C208 H214 0.929 . S
C209 C189 1.449 . S
C209 C208 1.399 . S
C209 H215 0.930 . S
H210 C190 0.931 . S
H211 C191 0.930 . S
H212 C199 0.931 . S
H213 C200 0.929 . S
H214 C208 0.929 . S
H215 C209 0.930 . S
Mn216 O221 2.095 . S
Mn216 O231 2.162 . S
Mn216 O232 2.297 . S
Mn216 O240 2.385 . S
Mn216 O241 2.209 . S
Mn216 O242 2.094 . S
Mn217 O222 2.121 . S
Mn217 N224 2.257 . S
Mn217 N233 2.282 . S
Mn217 O241 2.215 . S
Mn217 O243 2.117 . S
C218 O240 1.234 . S
C218 O241 1.283 . S
C219 O231 1.281 . S
C219 O232 1.236 . S
C220 O242 1.240 . S
C220 O243 1.264 . S
O221 Mn216 2.095 . S
O221 C230 1.250 . S
O222 Mn217 2.121 . S
O222 C230 1.258 . S
C223 N224 1.326 . S
C223 C227 1.460 . S
C223 H229 0.929 . S
N224 Mn217 2.257 . S
N224 C223 1.326 . S
N224 C228 1.362 . S
C225 C226 1.258 . S
C225 C228 1.431 . S
C225 C245 1.449 . S
C226 C225 1.258 . S
C226 C227 1.477 . S
C226 H246 0.931 . S
C227 C223 1.460 . S
C227 C226 1.477 . S
C227 H247 0.930 . S
C228 N224 1.362 . S
C228 C225 1.431 . S
C228 C238 1.476 . S
H229 C223 0.929 . S
C230 O221 1.250 . S
C230 O222 1.258 . S
O231 Mn216 2.162 . S
O231 C219 1.281 . S
O232 Mn216 2.297 . S
O232 C219 1.236 . S
N233 Mn217 2.282 . S
N233 C234 1.328 . S
N233 C238 1.318 . S
C234 N233 1.328 . S
C234 C235 1.457 . S
C234 H239 0.929 . S
C235 C234 1.457 . S
C235 C236 1.291 . S
C235 H248 0.931 . S
C236 C235 1.291 . S
C236 C237 1.373 . S
C236 H249 0.929 . S
C237 C236 1.373 . S
C237 C238 1.396 . S
C237 C244 1.403 . S
C238 C228 1.476 . S
C238 N233 1.318 . S
C238 C237 1.396 . S
H239 C234 0.929 . S
O240 Mn216 2.385 . S
O240 C218 1.234 . S
O241 Mn216 2.209 . S
O241 Mn217 2.215 . S
O241 C218 1.283 . S
O242 Mn216 2.094 . S
O242 C220 1.240 . S
O243 Mn217 2.117 . S
O243 C220 1.264 . S
C244 C237 1.403 . S
C244 C245 1.399 . S
C244 H250 0.929 . S
C245 C225 1.449 . S
C245 C244 1.399 . S
C245 H251 0.930 . S
H246 C226 0.931 . S
H247 C227 0.930 . S
H248 C235 0.931 . S
H249 C236 0.929 . S
H250 C244 0.929 . S
H251 C245 0.930 . S
Mn252 O257 2.095 . S
Mn252 O267 2.162 . S
Mn252 O268 2.297 . S
Mn252 O276 2.385 . S
Mn252 O277 2.209 . S
Mn252 O278 2.094 . S
Mn253 O258 2.121 . S
Mn253 N260 2.257 . S
Mn253 N269 2.282 . S
Mn253 O277 2.215 . S
Mn253 O279 2.117 . S
C254 O276 1.234 . S
C254 O277 1.283 . S
C255 O267 1.281 . S
C255 O268 1.236 . S
C256 O278 1.240 . S
C256 O279 1.264 . S
O257 Mn252 2.095 . S
O257 C266 1.250 . S
O258 Mn253 2.121 . S
O258 C266 1.258 . S
C259 N260 1.326 . S
C259 C263 1.460 . S
C259 H265 0.929 . S
N260 Mn253 2.257 . S
N260 C259 1.326 . S
N260 C264 1.362 . S
C261 C262 1.258 . S
C261 C264 1.431 . S
C261 C281 1.449 . S
C262 C261 1.258 . S
C262 C263 1.477 . S
C262 H282 0.931 . S
C263 C259 1.460 . S
C263 C262 1.477 . S
C263 H283 0.930 . S
C264 N260 1.362 . S
C264 C261 1.431 . S
C264 C274 1.476 . S
H265 C259 0.929 . S
C266 O257 1.250 . S
C266 O258 1.258 . S
O267 Mn252 2.162 . S
O267 C255 1.281 . S
O268 Mn252 2.297 . S
O268 C255 1.236 . S
N269 Mn253 2.282 . S
N269 C270 1.328 . S
N269 C274 1.318 . S
C270 N269 1.328 . S
C270 C271 1.457 . S
C270 H275 0.929 . S
C271 C270 1.457 . S
C271 C272 1.291 . S
C271 H284 0.931 . S
C272 C271 1.291 . S
C272 C273 1.373 . S
C272 H285 0.929 . S
C273 C272 1.373 . S
C273 C274 1.396 . S
C273 C280 1.403 . S
C274 C264 1.476 . S
C274 N269 1.318 . S
C274 C273 1.396 . S
H275 C270 0.929 . S
O276 Mn252 2.385 . S
O276 C254 1.234 . S
O277 Mn252 2.209 . S
O277 Mn253 2.215 . S
O277 C254 1.283 . S
O278 Mn252 2.094 . S
O278 C256 1.240 . S
O279 Mn253 2.117 . S
O279 C256 1.264 . S
C280 C273 1.403 . S
C280 C281 1.399 . S
C280 H286 0.929 . S
C281 C261 1.449 . S
C281 C280 1.399 . S
C281 H287 0.930 . S
H282 C262 0.931 . S
H283 C263 0.930 . S
H284 C271 0.931 . S
H285 C272 0.929 . S
H286 C280 0.929 . S
H287 C281 0.930 . S
Mn288 O293 2.095 . S
Mn288 O303 2.162 . S
Mn288 O304 2.297 . S
Mn288 O312 2.385 . S
Mn288 O313 2.209 . S
Mn288 O314 2.094 . S
Mn289 O294 2.121 . S
Mn289 N296 2.257 . S
Mn289 N305 2.282 . S
Mn289 O313 2.215 . S
Mn289 O315 2.117 . S
C290 O312 1.234 . S
C290 O313 1.283 . S
C291 O303 1.281 . S
C291 O304 1.236 . S
C292 O314 1.240 . S
C292 O315 1.264 . S
O293 Mn288 2.095 . S
O293 C302 1.250 . S
O294 Mn289 2.121 . S
O294 C302 1.258 . S
C295 N296 1.326 . S
C295 C299 1.460 . S
C295 H301 0.929 . S
N296 Mn289 2.257 . S
N296 C295 1.326 . S
N296 C300 1.362 . S
C297 C298 1.258 . S
C297 C300 1.431 . S
C297 C317 1.449 . S
C298 C297 1.258 . S
C298 C299 1.477 . S
C298 H318 0.931 . S
C299 C295 1.460 . S
C299 C298 1.477 . S
C299 H319 0.930 . S
C300 N296 1.362 . S
C300 C297 1.431 . S
C300 C310 1.476 . S
H301 C295 0.929 . S
C302 O293 1.250 . S
C302 O294 1.258 . S
O303 Mn288 2.162 . S
O303 C291 1.281 . S
O304 Mn288 2.297 . S
O304 C291 1.236 . S
N305 Mn289 2.282 . S
N305 C306 1.328 . S
N305 C310 1.318 . S
C306 N305 1.328 . S
C306 C307 1.457 . S
C306 H311 0.929 . S
C307 C306 1.457 . S
C307 C308 1.291 . S
C307 H320 0.931 . S
C308 C307 1.291 . S
C308 C309 1.373 . S
C308 H321 0.929 . S
C309 C308 1.373 . S
C309 C310 1.396 . S
C309 C316 1.403 . S
C310 C300 1.476 . S
C310 N305 1.318 . S
C310 C309 1.396 . S
H311 C306 0.929 . S
O312 Mn288 2.385 . S
O312 C290 1.234 . S
O313 Mn288 2.209 . S
O313 Mn289 2.215 . S
O313 C290 1.283 . S
O314 Mn288 2.094 . S
O314 C292 1.240 . S
O315 Mn289 2.117 . S
O315 C292 1.264 . S
C316 C309 1.403 . S
C316 C317 1.399 . S
C316 H322 0.929 . S
C317 C297 1.449 . S
C317 C316 1.399 . S
C317 H323 0.930 . S
H318 C298 0.931 . S
H319 C299 0.930 . S
H320 C307 0.931 . S
H321 C308 0.929 . S
H322 C316 0.929 . S
H323 C317 0.930 . S
Mn324 O329 2.095 . S
Mn324 O339 2.162 . S
Mn324 O340 2.297 . S
Mn324 O348 2.385 . S
Mn324 O349 2.209 . S
Mn324 O350 2.094 . S
Mn325 O330 2.121 . S
Mn325 N332 2.257 . S
Mn325 N341 2.282 . S
Mn325 O349 2.215 . S
Mn325 O351 2.117 . S
C326 O348 1.234 . S
C326 O349 1.283 . S
C327 O339 1.281 . S
C327 O340 1.236 . S
C328 O350 1.240 . S
C328 O351 1.264 . S
O329 Mn324 2.095 . S
O329 C338 1.250 . S
O330 Mn325 2.121 . S
O330 C338 1.258 . S
C331 N332 1.326 . S
C331 C335 1.460 . S
C331 H337 0.929 . S
N332 Mn325 2.257 . S
N332 C331 1.326 . S
N332 C336 1.362 . S
C333 C334 1.258 . S
C333 C336 1.431 . S
C333 C353 1.449 . S
C334 C333 1.258 . S
C334 C335 1.477 . S
C334 H354 0.931 . S
C335 C331 1.460 . S
C335 C334 1.477 . S
C335 H355 0.930 . S
C336 N332 1.362 . S
C336 C333 1.431 . S
C336 C346 1.476 . S
H337 C331 0.929 . S
C338 O329 1.250 . S
C338 O330 1.258 . S
O339 Mn324 2.162 . S
O339 C327 1.281 . S
O340 Mn324 2.297 . S
O340 C327 1.236 . S
N341 Mn325 2.282 . S
N341 C342 1.328 . S
N341 C346 1.318 . S
C342 N341 1.328 . S
C342 C343 1.457 . S
C342 H347 0.929 . S
C343 C342 1.457 . S
C343 C344 1.291 . S
C343 H356 0.931 . S
C344 C343 1.291 . S
C344 C345 1.373 . S
C344 H357 0.929 . S
C345 C344 1.373 . S
C345 C346 1.396 . S
C345 C352 1.403 . S
C346 C336 1.476 . S
C346 N341 1.318 . S
C346 C345 1.396 . S
H347 C342 0.929 . S
O348 Mn324 2.385 . S
O348 C326 1.234 . S
O349 Mn324 2.209 . S
O349 Mn325 2.215 . S
O349 C326 1.283 . S
O350 Mn324 2.094 . S
O350 C328 1.240 . S
O351 Mn325 2.117 . S
O351 C328 1.264 . S
C352 C345 1.403 . S
C352 C353 1.399 . S
C352 H358 0.929 . S
C353 C333 1.449 . S
C353 C352 1.399 . S
C353 H359 0.930 . S
H354 C334 0.931 . S
H355 C335 0.930 . S
H356 C343 0.931 . S
H357 C344 0.929 . S
H358 C352 0.929 . S
H359 C353 0.930 . S
Mn360 O365 2.095 . S
Mn360 O375 2.162 . S
Mn360 O376 2.297 . S
Mn360 O384 2.385 . S
Mn360 O385 2.209 . S
Mn360 O386 2.094 . S
Mn361 O366 2.121 . S
Mn361 N368 2.257 . S
Mn361 N377 2.282 . S
Mn361 O385 2.215 . S
Mn361 O387 2.117 . S
C362 O384 1.234 . S
C362 O385 1.283 . S
C363 O375 1.281 . S
C363 O376 1.236 . S
C364 O386 1.240 . S
C364 O387 1.264 . S
O365 Mn360 2.095 . S
O365 C374 1.250 . S
O366 Mn361 2.121 . S
O366 C374 1.258 . S
C367 N368 1.326 . S
C367 C371 1.460 . S
C367 H373 0.929 . S
N368 Mn361 2.257 . S
N368 C367 1.326 . S
N368 C372 1.362 . S
C369 C370 1.258 . S
C369 C372 1.431 . S
C369 C389 1.449 . S
C370 C369 1.258 . S
C370 C371 1.477 . S
C370 H390 0.931 . S
C371 C367 1.460 . S
C371 C370 1.477 . S
C371 H391 0.930 . S
C372 N368 1.362 . S
C372 C369 1.431 . S
C372 C382 1.476 . S
H373 C367 0.929 . S
C374 O365 1.250 . S
C374 O366 1.258 . S
O375 Mn360 2.162 . S
O375 C363 1.281 . S
O376 Mn360 2.297 . S
O376 C363 1.236 . S
N377 Mn361 2.282 . S
N377 C378 1.328 . S
N377 C382 1.318 . S
C378 N377 1.328 . S
C378 C379 1.457 . S
C378 H383 0.929 . S
C379 C378 1.457 . S
C379 C380 1.291 . S
C379 H392 0.931 . S
C380 C379 1.291 . S
C380 C381 1.373 . S
C380 H393 0.929 . S
C381 C380 1.373 . S
C381 C382 1.396 . S
C381 C388 1.403 . S
C382 C372 1.476 . S
C382 N377 1.318 . S
C382 C381 1.396 . S
H383 C378 0.929 . S
O384 Mn360 2.385 . S
O384 C362 1.234 . S
O385 Mn360 2.209 . S
O385 Mn361 2.215 . S
O385 C362 1.283 . S
O386 Mn360 2.094 . S
O386 C364 1.240 . S
O387 Mn361 2.117 . S
O387 C364 1.264 . S
C388 C381 1.403 . S
C388 C389 1.399 . S
C388 H394 0.929 . S
C389 C369 1.449 . S
C389 C388 1.399 . S
C389 H395 0.930 . S
H390 C370 0.931 . S
H391 C371 0.930 . S
H392 C379 0.931 . S
H393 C380 0.929 . S
H394 C388 0.929 . S
H395 C389 0.930 . S
Mn396 O401 2.095 . S
Mn396 O411 2.162 . S
Mn396 O412 2.297 . S
Mn396 O420 2.385 . S
Mn396 O421 2.209 . S
Mn396 O422 2.094 . S
Mn397 O402 2.121 . S
Mn397 N404 2.257 . S
Mn397 N413 2.282 . S
Mn397 O421 2.215 . S
Mn397 O423 2.117 . S
C398 O420 1.234 . S
C398 O421 1.283 . S
C399 O411 1.281 . S
C399 O412 1.236 . S
C400 O422 1.240 . S
C400 O423 1.264 . S
O401 Mn396 2.095 . S
O401 C410 1.250 . S
O402 Mn397 2.121 . S
O402 C410 1.258 . S
C403 N404 1.326 . S
C403 C407 1.460 . S
C403 H409 0.929 . S
N404 Mn397 2.257 . S
N404 C403 1.326 . S
N404 C408 1.362 . S
C405 C406 1.258 . S
C405 C408 1.431 . S
C405 C425 1.449 . S
C406 C405 1.258 . S
C406 C407 1.477 . S
C406 H426 0.931 . S
C407 C403 1.460 . S
C407 C406 1.477 . S
C407 H427 0.930 . S
C408 N404 1.362 . S
C408 C405 1.431 . S
C408 C418 1.476 . S
H409 C403 0.929 . S
C410 O401 1.250 . S
C410 O402 1.258 . S
O411 Mn396 2.162 . S
O411 C399 1.281 . S
O412 Mn396 2.297 . S
O412 C399 1.236 . S
N413 Mn397 2.282 . S
N413 C414 1.328 . S
N413 C418 1.318 . S
C414 N413 1.328 . S
C414 C415 1.457 . S
C414 H419 0.929 . S
C415 C414 1.457 . S
C415 C416 1.291 . S
C415 H428 0.931 . S
C416 C415 1.291 . S
C416 C417 1.373 . S
C416 H429 0.929 . S
C417 C416 1.373 . S
C417 C418 1.396 . S
C417 C424 1.403 . S
C418 C408 1.476 . S
C418 N413 1.318 . S
C418 C417 1.396 . S
H419 C414 0.929 . S
O420 Mn396 2.385 . S
O420 C398 1.234 . S
O421 Mn396 2.209 . S
O421 Mn397 2.215 . S
O421 C398 1.283 . S
O422 Mn396 2.094 . S
O422 C400 1.240 . S
O423 Mn397 2.117 . S
O423 C400 1.264 . S
C424 C417 1.403 . S
C424 C425 1.399 . S
C424 H430 0.929 . S
C425 C405 1.449 . S
C425 C424 1.399 . S
C425 H431 0.930 . S
H426 C406 0.931 . S
H427 C407 0.930 . S
H428 C415 0.931 . S
H429 C416 0.929 . S
H430 C424 0.929 . S
H431 C425 0.930 . S
Mn432 O437 2.095 . S
Mn432 O447 2.162 . S
Mn432 O448 2.297 . S
Mn432 O456 2.385 . S
Mn432 O457 2.209 . S
Mn432 O458 2.094 . S
Mn433 O438 2.121 . S
Mn433 N440 2.257 . S
Mn433 N449 2.282 . S
Mn433 O457 2.215 . S
Mn433 O459 2.117 . S
C434 O456 1.234 . S
C434 O457 1.283 . S
C435 O447 1.281 . S
C435 O448 1.236 . S
C436 O458 1.240 . S
C436 O459 1.264 . S
O437 Mn432 2.095 . S
O437 C446 1.250 . S
O438 Mn433 2.121 . S
O438 C446 1.258 . S
C439 N440 1.326 . S
C439 C443 1.460 . S
C439 H445 0.929 . S
N440 Mn433 2.257 . S
N440 C439 1.326 . S
N440 C444 1.362 . S
C441 C442 1.258 . S
C441 C444 1.431 . S
C441 C461 1.449 . S
C442 C441 1.258 . S
C442 C443 1.477 . S
C442 H462 0.931 . S
C443 C439 1.460 . S
C443 C442 1.477 . S
C443 H463 0.930 . S
C444 N440 1.362 . S
C444 C441 1.431 . S
C444 C454 1.476 . S
H445 C439 0.929 . S
C446 O437 1.250 . S
C446 O438 1.258 . S
O447 Mn432 2.162 . S
O447 C435 1.281 . S
O448 Mn432 2.297 . S
O448 C435 1.236 . S
N449 Mn433 2.282 . S
N449 C450 1.328 . S
N449 C454 1.318 . S
C450 N449 1.328 . S
C450 C451 1.457 . S
C450 H455 0.929 . S
C451 C450 1.457 . S
C451 C452 1.291 . S
C451 H464 0.931 . S
C452 C451 1.291 . S
C452 C453 1.373 . S
C452 H465 0.929 . S
C453 C452 1.373 . S
C453 C454 1.396 . S
C453 C460 1.403 . S
C454 C444 1.476 . S
C454 N449 1.318 . S
C454 C453 1.396 . S
H455 C450 0.929 . S
O456 Mn432 2.385 . S
O456 C434 1.234 . S
O457 Mn432 2.209 . S
O457 Mn433 2.215 . S
O457 C434 1.283 . S
O458 Mn432 2.094 . S
O458 C436 1.240 . S
O459 Mn433 2.117 . S
O459 C436 1.264 . S
C460 C453 1.403 . S
C460 C461 1.399 . S
C460 H466 0.929 . S
C461 C441 1.449 . S
C461 C460 1.399 . S
C461 H467 0.930 . S
H462 C442 0.931 . S
H463 C443 0.930 . S
H464 C451 0.931 . S
H465 C452 0.929 . S
H466 C460 0.929 . S
H467 C461 0.930 . S
Mn468 O473 2.095 . S
Mn468 O483 2.162 . S
Mn468 O484 2.297 . S
Mn468 O492 2.385 . S
Mn468 O493 2.209 . S
Mn468 O494 2.094 . S
Mn469 O474 2.121 . S
Mn469 N476 2.257 . S
Mn469 N485 2.282 . S
Mn469 O493 2.215 . S
Mn469 O495 2.117 . S
C470 O492 1.234 . S
C470 O493 1.283 . S
C471 O483 1.281 . S
C471 O484 1.236 . S
C472 O494 1.240 . S
C472 O495 1.264 . S
O473 Mn468 2.095 . S
O473 C482 1.250 . S
O474 Mn469 2.121 . S
O474 C482 1.258 . S
C475 N476 1.326 . S
C475 C479 1.460 . S
C475 H481 0.929 . S
N476 Mn469 2.257 . S
N476 C475 1.326 . S
N476 C480 1.362 . S
C477 C478 1.258 . S
C477 C480 1.431 . S
C477 C497 1.449 . S
C478 C477 1.258 . S
C478 C479 1.477 . S
C478 H498 0.931 . S
C479 C475 1.460 . S
C479 C478 1.477 . S
C479 H499 0.930 . S
C480 N476 1.362 . S
C480 C477 1.431 . S
C480 C490 1.476 . S
H481 C475 0.929 . S
C482 O473 1.250 . S
C482 O474 1.258 . S
O483 Mn468 2.162 . S
O483 C471 1.281 . S
O484 Mn468 2.297 . S
O484 C471 1.236 . S
N485 Mn469 2.282 . S
N485 C486 1.328 . S
N485 C490 1.318 . S
C486 N485 1.328 . S
C486 C487 1.457 . S
C486 H491 0.929 . S
C487 C486 1.457 . S
C487 C488 1.291 . S
C487 H500 0.931 . S
C488 C487 1.291 . S
C488 C489 1.373 . S
C488 H501 0.929 . S
C489 C488 1.373 . S
C489 C490 1.396 . S
C489 C496 1.403 . S
C490 C480 1.476 . S
C490 N485 1.318 . S
C490 C489 1.396 . S
H491 C486 0.929 . S
O492 Mn468 2.385 . S
O492 C470 1.234 . S
O493 Mn468 2.209 . S
O493 Mn469 2.215 . S
O493 C470 1.283 . S
O494 Mn468 2.094 . S
O494 C472 1.240 . S
O495 Mn469 2.117 . S
O495 C472 1.264 . S
C496 C489 1.403 . S
C496 C497 1.399 . S
C496 H502 0.929 . S
C497 C477 1.449 . S
C497 C496 1.399 . S
C497 H503 0.930 . S
H498 C478 0.931 . S
H499 C479 0.930 . S
H500 C487 0.931 . S
H501 C488 0.929 . S
H502 C496 0.929 . S
H503 C497 0.930 . S
Mn504 O509 2.095 . S
Mn504 O519 2.162 . S
Mn504 O520 2.297 . S
Mn504 O528 2.385 . S
Mn504 O529 2.209 . S
Mn504 O530 2.094 . S
Mn505 O510 2.121 . S
Mn505 N512 2.257 . S
Mn505 N521 2.282 . S
Mn505 O529 2.215 . S
Mn505 O531 2.117 . S
C506 O528 1.234 . S
C506 O529 1.283 . S
C507 O519 1.281 . S
C507 O520 1.236 . S
C508 O530 1.240 . S
C508 O531 1.264 . S
O509 Mn504 2.095 . S
O509 C518 1.250 . S
O510 Mn505 2.121 . S
O510 C518 1.258 . S
C511 N512 1.326 . S
C511 C515 1.460 . S
C511 H517 0.929 . S
N512 Mn505 2.257 . S
N512 C511 1.326 . S
N512 C516 1.362 . S
C513 C514 1.258 . S
C513 C516 1.431 . S
C513 C533 1.449 . S
C514 C513 1.258 . S
C514 C515 1.477 . S
C514 H534 0.931 . S
C515 C511 1.460 . S
C515 C514 1.477 . S
C515 H535 0.930 . S
C516 N512 1.362 . S
C516 C513 1.431 . S
C516 C526 1.476 . S
H517 C511 0.929 . S
C518 O509 1.250 . S
C518 O510 1.258 . S
O519 Mn504 2.162 . S
O519 C507 1.281 . S
O520 Mn504 2.297 . S
O520 C507 1.236 . S
N521 Mn505 2.282 . S
N521 C522 1.328 . S
N521 C526 1.318 . S
C522 N521 1.328 . S
C522 C523 1.457 . S
C522 H527 0.929 . S
C523 C522 1.457 . S
C523 C524 1.291 . S
C523 H536 0.931 . S
C524 C523 1.291 . S
C524 C525 1.373 . S
C524 H537 0.929 . S
C525 C524 1.373 . S
C525 C526 1.396 . S
C525 C532 1.403 . S
C526 C516 1.476 . S
C526 N521 1.318 . S
C526 C525 1.396 . S
H527 C522 0.929 . S
O528 Mn504 2.385 . S
O528 C506 1.234 . S
O529 Mn504 2.209 . S
O529 Mn505 2.215 . S
O529 C506 1.283 . S
O530 Mn504 2.094 . S
O530 C508 1.240 . S
O531 Mn505 2.117 . S
O531 C508 1.264 . S
C532 C525 1.403 . S
C532 C533 1.399 . S
C532 H538 0.929 . S
C533 C513 1.449 . S
C533 C532 1.399 . S
C533 H539 0.930 . S
H534 C514 0.931 . S
H535 C515 0.930 . S
H536 C523 0.931 . S
H537 C524 0.929 . S
H538 C532 0.929 . S
H539 C533 0.930 . S
Mn540 O545 2.095 . S
Mn540 O555 2.162 . S
Mn540 O556 2.297 . S
Mn540 O564 2.385 . S
Mn540 O565 2.209 . S
Mn540 O566 2.094 . S
Mn541 O546 2.121 . S
Mn541 N548 2.257 . S
Mn541 N557 2.282 . S
Mn541 O565 2.215 . S
Mn541 O567 2.117 . S
C542 O564 1.234 . S
C542 O565 1.283 . S
C543 O555 1.281 . S
C543 O556 1.236 . S
C544 O566 1.240 . S
C544 O567 1.264 . S
O545 Mn540 2.095 . S
O545 C554 1.250 . S
O546 Mn541 2.121 . S
O546 C554 1.258 . S
C547 N548 1.326 . S
C547 C551 1.460 . S
C547 H553 0.929 . S
N548 Mn541 2.257 . S
N548 C547 1.326 . S
N548 C552 1.362 . S
C549 C550 1.258 . S
C549 C552 1.431 . S
C549 C569 1.449 . S
C550 C549 1.258 . S
C550 C551 1.477 . S
C550 H570 0.931 . S
C551 C547 1.460 . S
C551 C550 1.477 . S
C551 H571 0.930 . S
C552 N548 1.362 . S
C552 C549 1.431 . S
C552 C562 1.476 . S
H553 C547 0.929 . S
C554 O545 1.250 . S
C554 O546 1.258 . S
O555 Mn540 2.162 . S
O555 C543 1.281 . S
O556 Mn540 2.297 . S
O556 C543 1.236 . S
N557 Mn541 2.282 . S
N557 C558 1.328 . S
N557 C562 1.318 . S
C558 N557 1.328 . S
C558 C559 1.457 . S
C558 H563 0.929 . S
C559 C558 1.457 . S
C559 C560 1.291 . S
C559 H572 0.931 . S
C560 C559 1.291 . S
C560 C561 1.373 . S
C560 H573 0.929 . S
C561 C560 1.373 . S
C561 C562 1.396 . S
C561 C568 1.403 . S
C562 C552 1.476 . S
C562 N557 1.318 . S
C562 C561 1.396 . S
H563 C558 0.929 . S
O564 Mn540 2.385 . S
O564 C542 1.234 . S
O565 Mn540 2.209 . S
O565 Mn541 2.215 . S
O565 C542 1.283 . S
O566 Mn540 2.094 . S
O566 C544 1.240 . S
O567 Mn541 2.117 . S
O567 C544 1.264 . S
C568 C561 1.403 . S
C568 C569 1.399 . S
C568 H574 0.929 . S
C569 C549 1.449 . S
C569 C568 1.399 . S
C569 H575 0.930 . S
H570 C550 0.931 . S
H571 C551 0.930 . S
H572 C559 0.931 . S
H573 C560 0.929 . S
H574 C568 0.929 . S
H575 C569 0.930 . S
H576 C584 0.950 . S
H577 C589 0.950 . S
H578 C586 0.950 . S
H579 C588 0.950 . S
H580 C590 0.950 . S
H581 C592 0.950 . S
H582 C594 0.950 . S
H583 C595 0.950 . S
C584 H576 0.950 . S
C584 C585 1.386 . S
C584 C586 1.391 . S
C585 C584 1.386 . S
C585 C589 1.393 . S
C586 H578 0.950 . S
C586 C584 1.391 . S
C586 C587 1.400 . S
C587 C586 1.400 . S
C587 C588 1.398 . S
C587 C593 1.491 . S
C588 H579 0.950 . S
C588 C587 1.398 . S
C588 C589 1.391 . S
C589 H577 0.950 . S
C589 C585 1.393 . S
C589 C588 1.391 . S
C590 H580 0.950 . S
C590 C591 1.386 . S
C590 C592 1.391 . S
C591 C590 1.386 . S
C591 C595 1.393 . S
C592 H581 0.950 . S
C592 C590 1.391 . S
C592 C593 1.400 . S
C593 C587 1.491 . S
C593 C592 1.400 . S
C593 C594 1.398 . S
C594 H582 0.950 . S
C594 C593 1.398 . S
C594 C595 1.391 . S
C595 H583 0.950 . S
C595 C591 1.393 . S
C595 C594 1.391 . S
H596 C604 0.950 . S
H597 C609 0.950 . S
H598 C606 0.950 . S
H599 C608 0.950 . S
H600 C610 0.950 . S
H601 C612 0.950 . S
H602 C614 0.950 . S
H603 C615 0.950 . S
C604 H596 0.950 . S
C604 C605 1.386 . S
C604 C606 1.391 . S
C605 C604 1.386 . S
C605 C609 1.393 . S
C606 H598 0.950 . S
C606 C604 1.391 . S
C606 C607 1.400 . S
C607 C606 1.400 . S
C607 C608 1.398 . S
C607 C613 1.491 . S
C608 H599 0.950 . S
C608 C607 1.398 . S
C608 C609 1.391 . S
C609 H597 0.950 . S
C609 C605 1.393 . S
C609 C608 1.391 . S
C610 H600 0.950 . S
C610 C611 1.386 . S
C610 C612 1.391 . S
C611 C610 1.386 . S
C611 C615 1.393 . S
C612 H601 0.950 . S
C612 C610 1.391 . S
C612 C613 1.400 . S
C613 C607 1.491 . S
C613 C612 1.400 . S
C613 C614 1.398 . S
C614 H602 0.950 . S
C614 C613 1.398 . S
C614 C615 1.391 . S
C615 H603 0.950 . S
C615 C611 1.393 . S
C615 C614 1.391 . S
H616 C624 0.950 . S
H617 C629 0.950 . S
H618 C626 0.950 . S
H619 C628 0.950 . S
H620 C630 0.950 . S
H621 C632 0.950 . S
H622 C634 0.950 . S
H623 C635 0.950 . S
C624 H616 0.950 . S
C624 C625 1.386 . S
C624 C626 1.391 . S
C625 C624 1.386 . S
C625 C629 1.393 . S
C626 H618 0.950 . S
C626 C624 1.391 . S
C626 C627 1.400 . S
C627 C626 1.400 . S
C627 C628 1.398 . S
C627 C633 1.491 . S
C628 H619 0.950 . S
C628 C627 1.398 . S
C628 C629 1.391 . S
C629 H617 0.950 . S
C629 C625 1.393 . S
C629 C628 1.391 . S
C630 H620 0.950 . S
C630 C631 1.386 . S
C630 C632 1.391 . S
C631 C630 1.386 . S
C631 C635 1.393 . S
C632 H621 0.950 . S
C632 C630 1.391 . S
C632 C633 1.400 . S
C633 C627 1.491 . S
C633 C632 1.400 . S
C633 C634 1.398 . S
C634 H622 0.950 . S
C634 C633 1.398 . S
C634 C635 1.391 . S
C635 H623 0.950 . S
C635 C631 1.393 . S
C635 C634 1.391 . S
H636 C644 0.950 . S
H637 C649 0.950 . S
H638 C646 0.950 . S
H639 C648 0.950 . S
H640 C650 0.950 . S
H641 C652 0.950 . S
H642 C654 0.950 . S
H643 C655 0.950 . S
C644 H636 0.950 . S
C644 C645 1.386 . S
C644 C646 1.391 . S
C645 C644 1.386 . S
C645 C649 1.393 . S
C646 H638 0.950 . S
C646 C644 1.391 . S
C646 C647 1.400 . S
C647 C646 1.400 . S
C647 C648 1.398 . S
C647 C653 1.491 . S
C648 H639 0.950 . S
C648 C647 1.398 . S
C648 C649 1.391 . S
C649 H637 0.950 . S
C649 C645 1.393 . S
C649 C648 1.391 . S
C650 H640 0.950 . S
C650 C651 1.386 . S
C650 C652 1.391 . S
C651 C650 1.386 . S
C651 C655 1.393 . S
C652 H641 0.950 . S
C652 C650 1.391 . S
C652 C653 1.400 . S
C653 C647 1.491 . S
C653 C652 1.400 . S
C653 C654 1.398 . S
C654 H642 0.950 . S
C654 C653 1.398 . S
C654 C655 1.391 . S
C655 H643 0.950 . S
C655 C651 1.393 . S
C655 C654 1.391 . S
H656 C664 0.950 . S
H657 C669 0.950 . S
H658 C666 0.950 . S
H659 C668 0.950 . S
H660 C670 0.950 . S
H661 C672 0.950 . S
H662 C674 0.950 . S
H663 C675 0.950 . S
C664 H656 0.950 . S
C664 C665 1.386 . S
C664 C666 1.391 . S
C665 C664 1.386 . S
C665 C669 1.393 . S
C666 H658 0.950 . S
C666 C664 1.391 . S
C666 C667 1.400 . S
C667 C666 1.400 . S
C667 C668 1.398 . S
C667 C673 1.491 . S
C668 H659 0.950 . S
C668 C667 1.398 . S
C668 C669 1.391 . S
C669 H657 0.950 . S
C669 C665 1.393 . S
C669 C668 1.391 . S
C670 H660 0.950 . S
C670 C671 1.386 . S
C670 C672 1.391 . S
C671 C670 1.386 . S
C671 C675 1.393 . S
C672 H661 0.950 . S
C672 C670 1.391 . S
C672 C673 1.400 . S
C673 C667 1.491 . S
C673 C672 1.400 . S
C673 C674 1.398 . S
C674 H662 0.950 . S
C674 C673 1.398 . S
C674 C675 1.391 . S
C675 H663 0.950 . S
C675 C671 1.393 . S
C675 C674 1.391 . S
H676 C684 0.950 . S
H677 C689 0.950 . S
H678 C686 0.950 . S
H679 C688 0.950 . S
H680 C690 0.950 . S
H681 C692 0.950 . S
H682 C694 0.950 . S
H683 C695 0.950 . S
C684 H676 0.950 . S
C684 C685 1.386 . S
C684 C686 1.391 . S
C685 C684 1.386 . S
C685 C689 1.393 . S
C686 H678 0.950 . S
C686 C684 1.391 . S
C686 C687 1.400 . S
C687 C686 1.400 . S
C687 C688 1.398 . S
C687 C693 1.491 . S
C688 H679 0.950 . S
C688 C687 1.398 . S
C688 C689 1.391 . S
C689 H677 0.950 . S
C689 C685 1.393 . S
C689 C688 1.391 . S
C690 H680 0.950 . S
C690 C691 1.386 . S
C690 C692 1.391 . S
C691 C690 1.386 . S
C691 C695 1.393 . S
C692 H681 0.950 . S
C692 C690 1.391 . S
C692 C693 1.400 . S
C693 C687 1.491 . S
C693 C692 1.400 . S
C693 C694 1.398 . S
C694 H682 0.950 . S
C694 C693 1.398 . S
C694 C695 1.391 . S
C695 H683 0.950 . S
C695 C691 1.393 . S
C695 C694 1.391 . S
H696 C704 0.950 . S
H697 C709 0.950 . S
H698 C706 0.950 . S
H699 C708 0.950 . S
H700 C710 0.950 . S
H701 C712 0.950 . S
H702 C714 0.950 . S
H703 C715 0.950 . S
C704 H696 0.950 . S
C704 C705 1.386 . S
C704 C706 1.391 . S
C705 C704 1.386 . S
C705 C709 1.393 . S
C706 H698 0.950 . S
C706 C704 1.391 . S
C706 C707 1.400 . S
C707 C706 1.400 . S
C707 C708 1.398 . S
C707 C713 1.491 . S
C708 H699 0.950 . S
C708 C707 1.398 . S
C708 C709 1.391 . S
C709 H697 0.950 . S
C709 C705 1.393 . S
C709 C708 1.391 . S
C710 H700 0.950 . S
C710 C711 1.386 . S
C710 C712 1.391 . S
C711 C710 1.386 . S
C711 C715 1.393 . S
C712 H701 0.950 . S
C712 C710 1.391 . S
C712 C713 1.400 . S
C713 C707 1.491 . S
C713 C712 1.400 . S
C713 C714 1.398 . S
C714 H702 0.950 . S
C714 C713 1.398 . S
C714 C715 1.391 . S
C715 H703 0.950 . S
C715 C711 1.393 . S
C715 C714 1.391 . S
H716 C724 0.950 . S
H717 C729 0.950 . S
H718 C726 0.950 . S
H719 C728 0.950 . S
H720 C730 0.950 . S
H721 C732 0.950 . S
H722 C734 0.950 . S
H723 C735 0.950 . S
C724 H716 0.950 . S
C724 C725 1.386 . S
C724 C726 1.391 . S
C725 C724 1.386 . S
C725 C729 1.393 . S
C726 H718 0.950 . S
C726 C724 1.391 . S
C726 C727 1.400 . S
C727 C726 1.400 . S
C727 C728 1.398 . S
C727 C733 1.491 . S
C728 H719 0.950 . S
C728 C727 1.398 . S
C728 C729 1.391 . S
C729 H717 0.950 . S
C729 C725 1.393 . S
C729 C728 1.391 . S
C730 H720 0.950 . S
C730 C731 1.386 . S
C730 C732 1.391 . S
C731 C730 1.386 . S
C731 C735 1.393 . S
C732 H721 0.950 . S
C732 C730 1.391 . S
C732 C733 1.400 . S
C733 C727 1.491 . S
C733 C732 1.400 . S
C733 C734 1.398 . S
C734 H722 0.950 . S
C734 C733 1.398 . S
C734 C735 1.391 . S
C735 H723 0.950 . S
C735 C731 1.393 . S
C735 C734 1.391 . S
H736 C744 0.950 . S
H737 C749 0.950 . S
H738 C746 0.950 . S
H739 C748 0.950 . S
H740 C750 0.950 . S
H741 C752 0.950 . S
H742 C754 0.950 . S
H743 C755 0.950 . S
C744 H736 0.950 . S
C744 C745 1.386 . S
C744 C746 1.391 . S
C745 C744 1.386 . S
C745 C749 1.393 . S
C746 H738 0.950 . S
C746 C744 1.391 . S
C746 C747 1.400 . S
C747 C746 1.400 . S
C747 C748 1.398 . S
C747 C753 1.491 . S
C748 H739 0.950 . S
C748 C747 1.398 . S
C748 C749 1.391 . S
C749 H737 0.950 . S
C749 C745 1.393 . S
C749 C748 1.391 . S
C750 H740 0.950 . S
C750 C751 1.386 . S
C750 C752 1.391 . S
C751 C750 1.386 . S
C751 C755 1.393 . S
C752 H741 0.950 . S
C752 C750 1.391 . S
C752 C753 1.400 . S
C753 C747 1.491 . S
C753 C752 1.400 . S
C753 C754 1.398 . S
C754 H742 0.950 . S
C754 C753 1.398 . S
C754 C755 1.391 . S
C755 H743 0.950 . S
C755 C751 1.393 . S
C755 C754 1.391 . S
H756 C764 0.950 . S
H757 C769 0.950 . S
H758 C766 0.950 . S
H759 C768 0.950 . S
H760 C770 0.950 . S
H761 C772 0.950 . S
H762 C774 0.950 . S
H763 C775 0.950 . S
C764 H756 0.950 . S
C764 C765 1.386 . S
C764 C766 1.391 . S
C765 C764 1.386 . S
C765 C769 1.393 . S
C766 H758 0.950 . S
C766 C764 1.391 . S
C766 C767 1.400 . S
C767 C766 1.400 . S
C767 C768 1.398 . S
C767 C773 1.491 . S
C768 H759 0.950 . S
C768 C767 1.398 . S
C768 C769 1.391 . S
C769 H757 0.950 . S
C769 C765 1.393 . S
C769 C768 1.391 . S
C770 H760 0.950 . S
C770 C771 1.386 . S
C770 C772 1.391 . S
C771 C770 1.386 . S
C771 C775 1.393 . S
C772 H761 0.950 . S
C772 C770 1.391 . S
C772 C773 1.400 . S
C773 C767 1.491 . S
C773 C772 1.400 . S
C773 C774 1.398 . S
C774 H762 0.950 . S
C774 C773 1.398 . S
C774 C775 1.391 . S
C775 H763 0.950 . S
C775 C771 1.393 . S
C775 C774 1.391 . S
H776 C784 0.950 . S
H777 C789 0.950 . S
H778 C786 0.950 . S
H779 C788 0.950 . S
H780 C790 0.950 . S
H781 C792 0.950 . S
H782 C794 0.950 . S
H783 C795 0.950 . S
C784 H776 0.950 . S
C784 C785 1.386 . S
C784 C786 1.391 . S
C785 C784 1.386 . S
C785 C789 1.393 . S
C786 H778 0.950 . S
C786 C784 1.391 . S
C786 C787 1.400 . S
C787 C786 1.400 . S
C787 C788 1.398 . S
C787 C793 1.491 . S
C788 H779 0.950 . S
C788 C787 1.398 . S
C788 C789 1.391 . S
C789 H777 0.950 . S
C789 C785 1.393 . S
C789 C788 1.391 . S
C790 H780 0.950 . S
C790 C791 1.386 . S
C790 C792 1.391 . S
C791 C790 1.386 . S
C791 C795 1.393 . S
C792 H781 0.950 . S
C792 C790 1.391 . S
C792 C793 1.400 . S
C793 C787 1.491 . S
C793 C792 1.400 . S
C793 C794 1.398 . S
C794 H782 0.950 . S
C794 C793 1.398 . S
C794 C795 1.391 . S
C795 H783 0.950 . S
C795 C791 1.393 . S
C795 C794 1.391 . S
H796 C804 0.950 . S
H797 C809 0.950 . S
H798 C806 0.950 . S
H799 C808 0.950 . S
H800 C810 0.950 . S
H801 C812 0.950 . S
H802 C814 0.950 . S
H803 C815 0.950 . S
C804 H796 0.950 . S
C804 C805 1.386 . S
C804 C806 1.391 . S
C805 C804 1.386 . S
C805 C809 1.393 . S
C806 H798 0.950 . S
C806 C804 1.391 . S
C806 C807 1.400 . S
C807 C806 1.400 . S
C807 C808 1.398 . S
C807 C813 1.491 1_554 S
C808 H799 0.950 . S
C808 C807 1.398 . S
C808 C809 1.391 . S
C809 H797 0.950 . S
C809 C805 1.393 . S
C809 C808 1.391 . S
C810 H800 0.950 . S
C810 C811 1.386 . S
C810 C812 1.391 . S
C811 C810 1.386 . S
C811 C815 1.393 . S
C812 H801 0.950 . S
C812 C810 1.391 . S
C812 C813 1.400 . S
C813 C807 1.491 1_556 S
C813 C812 1.400 . S
C813 C814 1.398 . S
C814 H802 0.950 . S
C814 C813 1.398 . S
C814 C815 1.391 . S
C815 H803 0.950 . S
C815 C811 1.393 . S
C815 C814 1.391 . S
H816 C824 0.950 . S
H817 C829 0.950 . S
H818 C826 0.950 . S
H819 C828 0.950 . S
H820 C830 0.950 . S
H821 C832 0.950 . S
H822 C834 0.950 . S
H823 C835 0.950 . S
C824 H816 0.950 . S
C824 C825 1.386 . S
C824 C826 1.391 . S
C825 C824 1.386 . S
C825 C829 1.393 . S
C826 H818 0.950 . S
C826 C824 1.391 . S
C826 C827 1.400 . S
C827 C826 1.400 . S
C827 C828 1.398 . S
C827 C833 1.491 1_554 S
C828 H819 0.950 . S
C828 C827 1.398 . S
C828 C829 1.391 . S
C829 H817 0.950 . S
C829 C825 1.393 . S
C829 C828 1.391 . S
C830 H820 0.950 . S
C830 C831 1.386 . S
C830 C832 1.391 . S
C831 C830 1.386 . S
C831 C835 1.393 . S
C832 H821 0.950 . S
C832 C830 1.391 . S
C832 C833 1.400 . S
C833 C827 1.491 1_556 S
C833 C832 1.400 . S
C833 C834 1.398 . S
C834 H822 0.950 . S
C834 C833 1.398 . S
C834 C835 1.391 . S
C835 H823 0.950 . S
C835 C831 1.393 . S
C835 C834 1.391 . S
H836 C844 0.950 . S
H837 C849 0.950 . S
H838 C846 0.950 . S
H839 C848 0.950 . S
H840 C850 0.950 . S
H841 C852 0.950 . S
H842 C854 0.950 . S
H843 C855 0.950 . S
C844 H836 0.950 . S
C844 C845 1.386 . S
C844 C846 1.391 . S
C845 C844 1.386 . S
C845 C849 1.393 . S
C846 H838 0.950 . S
C846 C844 1.391 . S
C846 C847 1.400 . S
C847 C846 1.400 . S
C847 C848 1.398 . S
C847 C853 1.491 . S
C848 H839 0.950 . S
C848 C847 1.398 . S
C848 C849 1.391 . S
C849 H837 0.950 . S
C849 C845 1.393 . S
C849 C848 1.391 . S
C850 H840 0.950 . S
C850 C851 1.386 . S
C850 C852 1.391 . S
C851 C850 1.386 . S
C851 C855 1.393 . S
C852 H841 0.950 . S
C852 C850 1.391 . S
C852 C853 1.400 . S
C853 C847 1.491 . S
C853 C852 1.400 . S
C853 C854 1.398 . S
C854 H842 0.950 . S
C854 C853 1.398 . S
C854 C855 1.391 . S
C855 H843 0.950 . S
C855 C851 1.393 . S
C855 C854 1.391 . S
H856 C864 0.950 . S
H857 C869 0.950 . S
H858 C866 0.950 . S
H859 C868 0.950 . S
H860 C870 0.950 . S
H861 C872 0.950 . S
H862 C874 0.950 . S
H863 C875 0.950 . S
C864 H856 0.950 . S
C864 C865 1.386 . S
C864 C866 1.391 . S
C865 C864 1.386 . S
C865 C869 1.393 . S
C866 H858 0.950 . S
C866 C864 1.391 . S
C866 C867 1.400 . S
C867 C866 1.400 . S
C867 C868 1.398 . S
C867 C873 1.491 . S
C868 H859 0.950 . S
C868 C867 1.398 . S
C868 C869 1.391 . S
C869 H857 0.950 . S
C869 C865 1.393 . S
C869 C868 1.391 . S
C870 H860 0.950 . S
C870 C871 1.386 . S
C870 C872 1.391 . S
C871 C870 1.386 . S
C871 C875 1.393 . S
C872 H861 0.950 . S
C872 C870 1.391 . S
C872 C873 1.400 . S
C873 C867 1.491 . S
C873 C872 1.400 . S
C873 C874 1.398 . S
C874 H862 0.950 . S
C874 C873 1.398 . S
C874 C875 1.391 . S
C875 H863 0.950 . S
C875 C871 1.393 . S
C875 C874 1.391 . S
H876 C884 0.950 . S
H877 C889 0.950 . S
H878 C886 0.950 . S
H879 C888 0.950 . S
H880 C890 0.950 . S
H881 C892 0.950 . S
H882 C894 0.950 . S
H883 C895 0.950 . S
C884 H876 0.950 . S
C884 C885 1.386 . S
C884 C886 1.391 . S
C885 C884 1.386 . S
C885 C889 1.393 . S
C886 H878 0.950 . S
C886 C884 1.391 . S
C886 C887 1.400 . S
C887 C886 1.400 . S
C887 C888 1.398 . S
C887 C893 1.491 . S
C888 H879 0.950 . S
C888 C887 1.398 . S
C888 C889 1.391 . S
C889 H877 0.950 . S
C889 C885 1.393 . S
C889 C888 1.391 . S
C890 H880 0.950 . S
C890 C891 1.386 . S
C890 C892 1.391 . S
C891 C890 1.386 . S
C891 C895 1.393 . S
C892 H881 0.950 . S
C892 C890 1.391 . S
C892 C893 1.400 . S
C893 C887 1.491 . S
C893 C892 1.400 . S
C893 C894 1.398 . S
C894 H882 0.950 . S
C894 C893 1.398 . S
C894 C895 1.391 . S
C895 H883 0.950 . S
C895 C891 1.393 . S
C895 C894 1.391 . S
H896 C904 0.950 . S
H897 C909 0.950 . S
H898 C906 0.950 . S
H899 C908 0.950 1_565 S
H900 C910 0.950 . S
H901 C912 0.950 . S
H902 C914 0.950 1_545 S
H903 C915 0.950 . S
C904 H896 0.950 . S
C904 C905 1.386 . S
C904 C906 1.391 . S
C905 C904 1.386 . S
C905 C909 1.393 . S
C906 H898 0.950 . S
C906 C904 1.391 . S
C906 C907 1.400 . S
C907 C906 1.400 . S
C907 C908 1.398 . S
C907 C913 1.491 1_445 S
C908 H899 0.950 1_545 S
C908 C907 1.398 . S
C908 C909 1.391 . S
C909 H897 0.950 . S
C909 C905 1.393 . S
C909 C908 1.391 . S
C910 H900 0.950 . S
C910 C911 1.386 . S
C910 C912 1.391 . S
C911 C910 1.386 . S
C911 C915 1.393 . S
C912 H901 0.950 . S
C912 C910 1.391 . S
C912 C913 1.400 . S
C913 C907 1.491 1_665 S
C913 C912 1.400 . S
C913 C914 1.398 . S
C914 H902 0.950 1_565 S
C914 C913 1.398 . S
C914 C915 1.391 . S
C915 H903 0.950 . S
C915 C911 1.393 . S
C915 C914 1.391 . S
H916 C924 0.950 . S
H917 C929 0.950 . S
H918 C926 0.949 1_655 S
H919 C928 0.950 . S
H920 C930 0.950 . S
H921 C932 0.948 1_455 S
H922 C934 0.950 . S
H923 C935 0.950 . S
C924 H916 0.950 . S
C924 C925 1.386 . S
C924 C926 1.392 . S
C925 C924 1.386 . S
C925 C929 1.393 . S
C926 H918 0.949 1_455 S
C926 C924 1.392 . S
C926 C927 1.400 . S
C927 C926 1.400 . S
C927 C928 1.398 . S
C927 C933 1.491 1_455 S
C928 H919 0.950 . S
C928 C927 1.398 . S
C928 C929 1.391 . S
C929 H917 0.950 . S
C929 C925 1.393 . S
C929 C928 1.391 . S
C930 H920 0.950 . S
C930 C931 1.386 . S
C930 C932 1.392 . S
C931 C930 1.386 . S
C931 C935 1.393 . S
C932 H921 0.948 1_655 S
C932 C930 1.392 . S
C932 C933 1.401 . S
C933 C927 1.491 1_655 S
C933 C932 1.401 . S
C933 C934 1.398 . S
C934 H922 0.950 . S
C934 C933 1.398 . S
C934 C935 1.391 . S
C935 H923 0.950 . S
C935 C931 1.393 . S
C935 C934 1.391 . S
H936 C944 0.950 . S
H937 C949 0.950 . S
H938 C946 0.950 . S
H939 C948 0.950 . S
H940 C950 0.950 . S
H941 C952 0.950 . S
H942 C954 0.950 . S
H943 C955 0.950 . S
C944 H936 0.950 . S
C944 C945 1.386 . S
C944 C946 1.391 . S
C945 C944 1.386 . S
C945 C949 1.393 . S
C946 H938 0.950 . S
C946 C944 1.391 . S
C946 C947 1.400 . S
C947 C946 1.400 . S
C947 C948 1.398 . S
C947 C953 1.491 . S
C948 H939 0.950 . S
C948 C947 1.398 . S
C948 C949 1.391 . S
C949 H937 0.950 . S
C949 C945 1.393 . S
C949 C948 1.391 . S
C950 H940 0.950 . S
C950 C951 1.386 . S
C950 C952 1.391 . S
C951 C950 1.386 . S
C951 C955 1.393 . S
C952 H941 0.950 . S
C952 C950 1.391 . S
C952 C953 1.400 . S
C953 C947 1.491 . S
C953 C952 1.400 . S
C953 C954 1.398 . S
C954 H942 0.950 . S
C954 C953 1.398 . S
C954 C955 1.391 . S
C955 H943 0.950 . S
C955 C951 1.393 . S
C955 C954 1.391 . S
H956 C964 0.950 . S
H957 C969 0.950 . S
H958 C966 0.950 . S
H959 C968 0.950 . S
H960 C970 0.950 . S
H961 C972 0.950 . S
H962 C974 0.950 . S
H963 C975 0.950 . S
C964 H956 0.950 . S
C964 C965 1.386 . S
C964 C966 1.391 . S
C965 C964 1.386 . S
C965 C969 1.393 . S
C966 H958 0.950 . S
C966 C964 1.391 . S
C966 C967 1.400 . S
C967 C966 1.400 . S
C967 C968 1.398 . S
C967 C973 1.491 1_545 S
C968 H959 0.950 . S
C968 C967 1.398 . S
C968 C969 1.391 . S
C969 H957 0.950 . S
C969 C965 1.393 . S
C969 C968 1.391 . S
C970 H960 0.950 . S
C970 C971 1.386 . S
C970 C972 1.391 . S
C971 C970 1.386 . S
C971 C975 1.393 . S
C972 H961 0.950 . S
C972 C970 1.391 . S
C972 C973 1.400 . S
C973 C967 1.491 1_565 S
C973 C972 1.400 . S
C973 C974 1.398 . S
C974 H962 0.950 . S
C974 C973 1.398 . S
C974 C975 1.391 . S
C975 H963 0.950 . S
C975 C971 1.393 . S
C975 C974 1.391 . S
H976 C984 0.950 . S
H977 C989 0.950 . S
H978 C986 0.950 1_655 S
H979 C988 0.950 . S
H980 C990 0.950 . S
H981 C992 0.950 1_455 S
H982 C994 0.950 . S
H983 C995 0.950 . S
C984 H976 0.950 . S
C984 C985 1.386 . S
C984 C986 1.391 . S
C985 C984 1.386 . S
C985 C989 1.393 . S
C986 H978 0.950 1_455 S
C986 C984 1.391 . S
C986 C987 1.400 . S
C987 C986 1.400 . S
C987 C988 1.398 . S
C987 C993 1.491 1_455 S
C988 H979 0.950 . S
C988 C987 1.398 . S
C988 C989 1.391 . S
C989 H977 0.950 . S
C989 C985 1.393 . S
C989 C988 1.391 . S
C990 H980 0.950 . S
C990 C991 1.386 . S
C990 C992 1.391 . S
C991 C990 1.386 . S
C991 C995 1.393 . S
C992 H981 0.950 1_655 S
C992 C990 1.391 . S
C992 C993 1.400 . S
C993 C987 1.491 1_655 S
C993 C992 1.400 . S
C993 C994 1.398 . S
C994 H982 0.950 . S
C994 C993 1.398 . S
C994 C995 1.391 . S
C995 H983 0.950 . S
C995 C991 1.393 . S
C995 C994 1.391 . S
H996 C1004 0.950 . S
H997 C1009 0.950 . S
H998 C1006 0.950 . S
H999 C1008 0.950 . S
H1000 C1010 0.950 . S
H1001 C1012 0.950 . S
H1002 C1014 0.950 . S
H1003 C1015 0.950 . S
C1004 H996 0.950 . S
C1004 C1005 1.386 . S
C1004 C1006 1.391 . S
C1005 C1004 1.386 . S
C1005 C1009 1.393 . S
C1006 H998 0.950 . S
C1006 C1004 1.391 . S
C1006 C1007 1.400 . S
C1007 C1006 1.400 . S
C1007 C1008 1.398 . S
C1007 C1013 1.491 . S
C1008 H999 0.950 . S
C1008 C1007 1.398 . S
C1008 C1009 1.391 . S
C1009 H997 0.950 . S
C1009 C1005 1.393 . S
C1009 C1008 1.391 . S
C1010 H1000 0.950 . S
C1010 C1011 1.386 . S
C1010 C1012 1.391 . S
C1011 C1010 1.386 . S
C1011 C1015 1.393 . S
C1012 H1001 0.950 . S
C1012 C1010 1.391 . S
C1012 C1013 1.400 . S
C1013 C1007 1.491 . S
C1013 C1012 1.400 . S
C1013 C1014 1.398 . S
C1014 H1002 0.950 . S
C1014 C1013 1.398 . S
C1014 C1015 1.391 . S
C1015 H1003 0.950 . S
C1015 C1011 1.393 . S
C1015 C1014 1.391 . S
H1016 C1024 0.950 . S
H1017 C1029 0.950 . S
H1018 C1026 0.950 . S
H1019 C1028 0.950 . S
H1020 C1030 0.950 . S
H1021 C1032 0.950 . S
H1022 C1034 0.950 . S
H1023 C1035 0.950 . S
C1024 H1016 0.950 . S
C1024 C1025 1.386 . S
C1024 C1026 1.391 1_565 S
C1025 C1024 1.386 . S
C1025 C1029 1.393 . S
C1026 H1018 0.950 . S
C1026 C1024 1.391 1_545 S
C1026 C1027 1.400 1_545 S
C1027 C1026 1.400 1_565 S
C1027 C1028 1.398 . S
C1027 C1033 1.491 1_565 S
C1028 H1019 0.950 . S
C1028 C1027 1.398 . S
C1028 C1029 1.391 . S
C1029 H1017 0.950 . S
C1029 C1025 1.393 . S
C1029 C1028 1.391 . S
C1030 H1020 0.950 . S
C1030 C1031 1.386 . S
C1030 C1032 1.391 1_545 S
C1031 C1030 1.386 . S
C1031 C1035 1.393 . S
C1032 H1021 0.950 . S
C1032 C1030 1.391 1_565 S
C1032 C1033 1.400 1_565 S
C1033 C1027 1.491 1_545 S
C1033 C1032 1.400 1_545 S
C1033 C1034 1.398 . S
C1034 H1022 0.950 . S
C1034 C1033 1.398 . S
C1034 C1035 1.391 . S
C1035 H1023 0.950 . S
C1035 C1031 1.393 . S
C1035 C1034 1.391 . S
H1036 C1044 0.950 . S
H1037 C1049 0.950 . S
H1038 C1046 0.950 . S
H1039 C1048 0.950 . S
H1040 C1050 0.950 . S
H1041 C1052 0.950 . S
H1042 C1054 0.950 . S
H1043 C1055 0.950 . S
C1044 H1036 0.950 . S
C1044 C1045 1.386 . S
C1044 C1046 1.391 . S
C1045 C1044 1.386 . S
C1045 C1049 1.393 . S
C1046 H1038 0.950 . S
C1046 C1044 1.391 . S
C1046 C1047 1.400 . S
C1047 C1046 1.400 . S
C1047 C1048 1.398 1_455 S
C1047 C1053 1.491 1_445 S
C1048 H1039 0.950 . S
C1048 C1047 1.398 1_655 S
C1048 C1049 1.391 1_655 S
C1049 H1037 0.950 . S
C1049 C1045 1.393 . S
C1049 C1048 1.391 1_455 S
C1050 H1040 0.950 . S
C1050 C1051 1.386 . S
C1050 C1052 1.391 . S
C1051 C1050 1.386 . S
C1051 C1055 1.393 . S
C1052 H1041 0.950 . S
C1052 C1050 1.391 . S
C1052 C1053 1.400 . S
C1053 C1047 1.491 1_665 S
C1053 C1052 1.400 . S
C1053 C1054 1.398 1_655 S
C1054 H1042 0.950 . S
C1054 C1053 1.398 1_455 S
C1054 C1055 1.391 1_455 S
C1055 H1043 0.950 . S
C1055 C1051 1.393 . S
C1055 C1054 1.391 1_655 S
H1056 C1064 0.950 . S
H1057 C1069 0.950 1_545 S
H1058 C1066 0.950 . S
H1059 C1068 0.950 . S
H1060 C1070 0.950 . S
H1061 C1072 0.950 . S
H1062 C1074 0.950 . S
H1063 C1075 0.950 1_565 S
C1064 H1056 0.950 . S
C1064 C1065 1.386 . S
C1064 C1066 1.391 . S
C1065 C1064 1.386 . S
C1065 C1069 1.393 . S
C1066 H1058 0.950 . S
C1066 C1064 1.391 . S
C1066 C1067 1.400 . S
C1067 C1066 1.400 . S
C1067 C1068 1.398 1_565 S
C1067 C1073 1.491 1_565 S
C1068 H1059 0.950 . S
C1068 C1067 1.398 1_545 S
C1068 C1069 1.391 1_545 S
C1069 H1057 0.950 1_565 S
C1069 C1065 1.393 . S
C1069 C1068 1.391 1_565 S
C1070 H1060 0.950 . S
C1070 C1071 1.386 . S
C1070 C1072 1.391 . S
C1071 C1070 1.386 . S
C1071 C1075 1.393 . S
C1072 H1061 0.950 . S
C1072 C1070 1.391 . S
C1072 C1073 1.400 . S
C1073 C1067 1.491 1_545 S
C1073 C1072 1.400 . S
C1073 C1074 1.398 1_545 S
C1074 H1062 0.950 . S
C1074 C1073 1.398 1_565 S
C1074 C1075 1.391 1_565 S
C1075 H1063 0.950 1_545 S
C1075 C1071 1.393 . S
C1075 C1074 1.391 1_545 S
H1076 C1084 0.950 . S
H1077 C1089 0.950 . S
H1078 C1086 0.950 . S
H1079 C1088 0.950 . S
H1080 C1090 0.950 . S
H1081 C1092 0.950 . S
H1082 C1094 0.950 . S
H1083 C1095 0.950 . S
C1084 H1076 0.950 . S
C1084 C1085 1.386 . S
C1084 C1086 1.391 . S
C1085 C1084 1.386 . S
C1085 C1089 1.393 . S
C1086 H1078 0.950 . S
C1086 C1084 1.391 . S
C1086 C1087 1.400 . S
C1087 C1086 1.400 . S
C1087 C1088 1.398 1_655 S
C1087 C1093 1.491 1_665 S
C1088 H1079 0.950 . S
C1088 C1087 1.398 1_455 S
C1088 C1089 1.391 1_455 S
C1089 H1077 0.950 . S
C1089 C1085 1.393 . S
C1089 C1088 1.391 1_655 S
C1090 H1080 0.950 . S
C1090 C1091 1.386 . S
C1090 C1092 1.391 . S
C1091 C1090 1.386 . S
C1091 C1095 1.393 . S
C1092 H1081 0.950 . S
C1092 C1090 1.391 . S
C1092 C1093 1.400 . S
C1093 C1087 1.491 1_445 S
C1093 C1092 1.400 . S
C1093 C1094 1.398 1_455 S
C1094 H1082 0.950 . S
C1094 C1093 1.398 1_655 S
C1094 C1095 1.391 1_655 S
C1095 H1083 0.950 . S
C1095 C1091 1.393 . S
C1095 C1094 1.391 1_455 S
H1096 C1104 0.950 . S
H1097 C1109 0.950 . S
H1098 C1106 0.950 . S
H1099 C1108 0.950 . S
H1100 C1110 0.950 . S
H1101 C1112 0.950 . S
H1102 C1114 0.950 . S
H1103 C1115 0.950 . S
C1104 H1096 0.950 . S
C1104 C1105 1.386 . S
C1104 C1106 1.391 . S
C1105 C1104 1.386 . S
C1105 C1109 1.393 . S
C1106 H1098 0.950 . S
C1106 C1104 1.391 . S
C1106 C1107 1.400 . S
C1107 C1106 1.400 . S
C1107 C1108 1.398 . S
C1107 C1113 1.491 1_455 S
C1108 H1099 0.950 . S
C1108 C1107 1.398 . S
C1108 C1109 1.391 . S
C1109 H1097 0.950 . S
C1109 C1105 1.393 . S
C1109 C1108 1.391 . S
C1110 H1100 0.950 . S
C1110 C1111 1.386 . S
C1110 C1112 1.391 . S
C1111 C1110 1.386 . S
C1111 C1115 1.393 . S
C1112 H1101 0.950 . S
C1112 C1110 1.391 . S
C1112 C1113 1.400 . S
C1113 C1107 1.491 1_655 S
C1113 C1112 1.400 . S
C1113 C1114 1.398 . S
C1114 H1102 0.950 . S
C1114 C1113 1.398 . S
C1114 C1115 1.391 . S
C1115 H1103 0.950 . S
C1115 C1111 1.393 . S
C1115 C1114 1.391 . S
H1116 C1124 0.950 . S
H1117 C1129 0.950 . S
H1118 C1126 0.950 . S
H1119 C1128 0.950 . S
H1120 C1130 0.950 . S
H1121 C1132 0.950 . S
H1122 C1134 0.950 . S
H1123 C1135 0.950 . S
C1124 H1116 0.950 . S
C1124 C1125 1.386 . S
C1124 C1126 1.391 . S
C1125 C1124 1.386 . S
C1125 C1129 1.393 . S
C1126 H1118 0.950 . S
C1126 C1124 1.391 . S
C1126 C1127 1.400 . S
C1127 C1126 1.400 . S
C1127 C1128 1.398 . S
C1127 C1133 1.491 . S
C1128 H1119 0.950 . S
C1128 C1127 1.398 . S
C1128 C1129 1.391 . S
C1129 H1117 0.950 . S
C1129 C1125 1.393 . S
C1129 C1128 1.391 . S
C1130 H1120 0.950 . S
C1130 C1131 1.386 . S
C1130 C1132 1.391 . S
C1131 C1130 1.386 . S
C1131 C1135 1.393 . S
C1132 H1121 0.950 . S
C1132 C1130 1.391 . S
C1132 C1133 1.400 . S
C1133 C1127 1.491 . S
C1133 C1132 1.400 . S
C1133 C1134 1.398 . S
C1134 H1122 0.950 . S
C1134 C1133 1.398 . S
C1134 C1135 1.391 . S
C1135 H1123 0.950 . S
C1135 C1131 1.393 . S
C1135 C1134 1.391 . S
H1136 C1144 0.950 . S
H1137 C1149 0.950 . S
H1138 C1146 0.950 . S
H1139 C1148 0.950 . S
H1140 C1150 0.950 . S
H1141 C1152 0.950 . S
H1142 C1154 0.950 . S
H1143 C1155 0.950 . S
C1144 H1136 0.950 . S
C1144 C1145 1.386 . S
C1144 C1146 1.391 . S
C1145 C1144 1.386 . S
C1145 C1149 1.393 . S
C1146 H1138 0.950 . S
C1146 C1144 1.391 . S
C1146 C1147 1.400 . S
C1147 C1146 1.400 . S
C1147 C1148 1.398 . S
C1147 C1153 1.491 . S
C1148 H1139 0.950 . S
C1148 C1147 1.398 . S
C1148 C1149 1.391 . S
C1149 H1137 0.950 . S
C1149 C1145 1.393 . S
C1149 C1148 1.391 . S
C1150 H1140 0.950 . S
C1150 C1151 1.386 . S
C1150 C1152 1.391 . S
C1151 C1150 1.386 . S
C1151 C1155 1.393 . S
C1152 H1141 0.950 . S
C1152 C1150 1.391 . S
C1152 C1153 1.400 . S
C1153 C1147 1.491 . S
C1153 C1152 1.400 . S
C1153 C1154 1.398 . S
C1154 H1142 0.950 . S
C1154 C1153 1.398 . S
C1154 C1155 1.391 . S
C1155 H1143 0.950 . S
C1155 C1151 1.393 . S
C1155 C1154 1.391 . S
H1156 C1164 0.950 . S
H1157 C1169 0.950 . S
H1158 C1166 0.950 . S
H1159 C1168 0.950 . S
H1160 C1170 0.950 . S
H1161 C1172 0.950 . S
H1162 C1174 0.950 . S
H1163 C1175 0.950 . S
C1164 H1156 0.950 . S
C1164 C1165 1.386 . S
C1164 C1166 1.391 . S
C1165 C1164 1.386 . S
C1165 C1169 1.393 . S
C1166 H1158 0.950 . S
C1166 C1164 1.391 . S
C1166 C1167 1.400 . S
C1167 C1166 1.400 . S
C1167 C1168 1.398 . S
C1167 C1173 1.491 1_545 S
C1168 H1159 0.950 . S
C1168 C1167 1.398 . S
C1168 C1169 1.391 . S
C1169 H1157 0.950 . S
C1169 C1165 1.393 . S
C1169 C1168 1.391 . S
C1170 H1160 0.950 . S
C1170 C1171 1.386 . S
C1170 C1172 1.391 . S
C1171 C1170 1.386 . S
C1171 C1175 1.393 . S
C1172 H1161 0.950 . S
C1172 C1170 1.391 . S
C1172 C1173 1.400 . S
C1173 C1167 1.491 1_565 S
C1173 C1172 1.400 . S
C1173 C1174 1.398 . S
C1174 H1162 0.950 . S
C1174 C1173 1.398 . S
C1174 C1175 1.391 . S
C1175 H1163 0.950 . S
C1175 C1171 1.393 . S
C1175 C1174 1.391 . S
H1176 C1184 0.950 1_545 S
H1177 C1189 0.950 . S
H1178 C1186 0.950 . S
H1179 C1188 0.950 . S
H1180 C1190 0.950 1_565 S
H1181 C1192 0.950 . S
H1182 C1194 0.950 . S
H1183 C1195 0.950 . S
C1184 H1176 0.950 1_565 S
C1184 C1185 1.386 . S
C1184 C1186 1.391 1_565 S
C1185 C1184 1.386 . S
C1185 C1189 1.393 . S
C1186 H1178 0.950 . S
C1186 C1184 1.391 1_545 S
C1186 C1187 1.400 1_545 S
C1187 C1186 1.400 1_565 S
C1187 C1188 1.398 . S
C1187 C1193 1.491 1_665 S
C1188 H1179 0.950 . S
C1188 C1187 1.398 . S
C1188 C1189 1.391 . S
C1189 H1177 0.950 . S
C1189 C1185 1.393 . S
C1189 C1188 1.391 . S
C1190 H1180 0.950 1_545 S
C1190 C1191 1.386 . S
C1190 C1192 1.391 1_545 S
C1191 C1190 1.386 . S
C1191 C1195 1.393 . S
C1192 H1181 0.950 . S
C1192 C1190 1.391 1_565 S
C1192 C1193 1.400 1_565 S
C1193 C1187 1.491 1_445 S
C1193 C1192 1.400 1_545 S
C1193 C1194 1.398 . S
C1194 H1182 0.950 . S
C1194 C1193 1.398 . S
C1194 C1195 1.391 . S
C1195 H1183 0.950 . S
C1195 C1191 1.393 . S
C1195 C1194 1.391 . S
H1196 C1204 0.950 . S
H1197 C1209 0.950 1_455 S
H1198 C1206 0.950 . S
H1199 C1208 0.950 . S
H1200 C1210 0.950 . S
H1201 C1212 0.950 . S
H1202 C1214 0.950 . S
H1203 C1215 0.950 1_655 S
C1204 H1196 0.950 . S
C1204 C1205 1.386 . S
C1204 C1206 1.391 . S
C1205 C1204 1.386 . S
C1205 C1209 1.393 . S
C1206 H1198 0.950 . S
C1206 C1204 1.391 . S
C1206 C1207 1.400 . S
C1207 C1206 1.400 . S
C1207 C1208 1.398 1_655 S
C1207 C1213 1.491 1_655 S
C1208 H1199 0.950 . S
C1208 C1207 1.398 1_455 S
C1208 C1209 1.391 1_455 S
C1209 H1197 0.950 1_655 S
C1209 C1205 1.393 . S
C1209 C1208 1.391 1_655 S
C1210 H1200 0.950 . S
C1210 C1211 1.386 . S
C1210 C1212 1.391 . S
C1211 C1210 1.386 . S
C1211 C1215 1.393 . S
C1212 H1201 0.950 . S
C1212 C1210 1.391 . S
C1212 C1213 1.400 . S
C1213 C1207 1.491 1_455 S
C1213 C1212 1.400 . S
C1213 C1214 1.398 1_455 S
C1214 H1202 0.950 . S
C1214 C1213 1.398 1_655 S
C1214 C1215 1.391 1_655 S
C1215 H1203 0.950 1_455 S
C1215 C1211 1.393 . S
C1215 C1214 1.391 1_455 S
C585 C158 1.266 . S
C591 C14 1.268 . S
C605 C50 1.276 . S
C611 C194 1.266 . S
C625 C230 1.265 . S
C631 C86 1.276 . S
C645 C266 1.280 . S
C651 C122 1.258 . S
C665 C446 1.263 . S
C671 C302 1.271 . S
C685 C338 1.272 . S
C691 C482 1.261 . S
C705 C518 1.276 . S
C711 C374 1.266 . S
C725 C410 1.265 . S
C731 C554 1.269 . S
C745 C2 1.312 . S
C751 C542 1.330 . S
C765 C38 1.313 . S
C771 C434 1.318 . S
C785 C74 1.323 . S
C791 C470 1.328 . S
C805 C506 1.314 . S
C811 C110 1.331 . S
C825 C146 1.310 . S
C831 C326 1.326 . S
C845 C182 1.311 . S
C851 C362 1.322 . S
C865 C398 1.325 . S
C871 C218 1.326 . S
C885 C290 1.311 . S
C891 C254 1.323 . S
C905 C4 1.626 . S
C911 C364 1.625 . S
C925 C400 1.622 . S
C931 C40 1.624 . S
C945 C76 1.624 . S
C951 C292 1.626 . S
C965 C328 1.623 . S
C971 C112 1.622 . S
C985 C148 1.625 . S
C991 C508 1.623 . S
C1005 C184 1.626 . S
C1011 C544 1.624 . S
C1025 C436 1.622 . S
C1031 C220 1.625 . S
C1045 C472 1.626 . S
C1051 C256 1.624 . S
C1065 C363 1.390 . S
C1071 C3 1.391 . S
C1085 C39 1.390 . S
C1091 C399 1.391 . S
C1105 C75 1.391 . S
C1111 C291 1.390 . S
C1125 C327 1.390 . S
C1131 C111 1.390 . S
C1145 C507 1.391 . S
C1151 C147 1.390 . S
C1165 C543 1.390 . S
C1171 C183 1.390 . S
C1185 C435 1.391 . S
C1191 C219 1.390 . S
C1205 C255 1.390 . S
C1211 C471 1.391 . S
