# Generated by pormake.
# Topology umw, (4)-cn, num edge types: 1
# Building blocks:
#     Node 0, Type 0, BuildingBlock: CEKHIL_clean_sbu_0, # of connection points: 4
#     Node 1, Type 0, BuildingBlock: CEKHIL_clean_sbu_0, # of connection points: 4
#     Node 2, Type 0, BuildingBlock: CEKHIL_clean_sbu_0, # of connection points: 4
#     Node 3, Type 0, BuildingBlock: CEKHIL_clean_sbu_0, # of connection points: 4
#     Node 4, Type 0, BuildingBlock: CEKHIL_clean_sbu_0, # of connection points: 4
#     Node 5, Type 0, BuildingBlock: CEKHIL_clean_sbu_0, # of connection points: 4
#     Node 6, Type 0, BuildingBlock: CEKHIL_clean_sbu_0, # of connection points: 4
#     Node 7, Type 0, BuildingBlock: CEKHIL_clean_sbu_0, # of connection points: 4
#     Edge 8, Type (0, 0), BuildingBlock: OJICUG_clean_linker_0, # of connection points: 2
#     Edge 9, Type (0, 0), BuildingBlock: OJICUG_clean_linker_0, # of connection points: 2
#     Edge 10, Type (0, 0), BuildingBlock: OJICUG_clean_linker_0, # of connection points: 2
#     Edge 11, Type (0, 0), BuildingBlock: OJICUG_clean_linker_0, # of connection points: 2
#     Edge 12, Type (0, 0), BuildingBlock: OJICUG_clean_linker_0, # of connection points: 2
#     Edge 13, Type (0, 0), BuildingBlock: OJICUG_clean_linker_0, # of connection points: 2
#     Edge 14, Type (0, 0), BuildingBlock: OJICUG_clean_linker_0, # of connection points: 2
#     Edge 15, Type (0, 0), BuildingBlock: OJICUG_clean_linker_0, # of connection points: 2
#     Edge 16, Type (0, 0), BuildingBlock: OJICUG_clean_linker_0, # of connection points: 2
#     Edge 17, Type (0, 0), BuildingBlock: OJICUG_clean_linker_0, # of connection points: 2
#     Edge 18, Type (0, 0), BuildingBlock: OJICUG_clean_linker_0, # of connection points: 2
#     Edge 19, Type (0, 0), BuildingBlock: OJICUG_clean_linker_0, # of connection points: 2
#     Edge 20, Type (0, 0), BuildingBlock: OJICUG_clean_linker_0, # of connection points: 2
#     Edge 21, Type (0, 0), BuildingBlock: OJICUG_clean_linker_0, # of connection points: 2
#     Edge 22, Type (0, 0), BuildingBlock: OJICUG_clean_linker_0, # of connection points: 2
#     Edge 23, Type (0, 0), BuildingBlock: OJICUG_clean_linker_0, # of connection points: 2
# Relax obj value: 0.130
# Max RMSD: 0.104
# Mean RMSD: 0.104
data_MOF--net-umw--node1-CEKHIL_clean_sbu_0--edge1-OJICUG_clean_linker_0
_symmetry_space_group_name_H-M    P1
_symmetry_Int_Tables_number       1
_symmetry_cell_setting            triclinic
loop_
_symmetry_equiv_pos_as_xyz
'x, y, z'
_cell_length_a     28.787432
_cell_length_b     28.877102
_cell_length_c     19.025152
_cell_angle_alpha  89.976706
_cell_angle_beta   90.194709
_cell_angle_gamma 89.957291
loop_
_atom_site_label
_atom_site_type_symbol
_atom_site_fract_x
_atom_site_fract_y
_atom_site_fract_z
_atom_type_partial_charge
Co0 Co 0.43955 0.23037 0.27808 0.0
O1 O 0.41888 0.29308 0.29716 0.0
O2 O 0.37777 0.23054 0.3203 0.0
C3 C 0.47072 0.24247 0.17009 0.0
O4 O 0.44924 0.15998 0.26814 0.0
Co5 Co 0.54594 0.21001 0.25609 0.0
O6 O 0.52354 0.14634 0.23715 0.0
C7 C 0.50963 0.23648 0.394 0.0
C8 C 0.38209 0.27527 0.32593 0.0
C9 C 0.48255 0.13221 0.25085 0.0
O10 O 0.46795 0.22854 0.37333 0.0
O11 O 0.54485 0.23617 0.35316 0.0
O12 O 0.42601 0.23595 0.17609 0.0
O13 O 0.4927 0.24588 0.22833 0.0
Co14 Co 0.82486 0.44012 0.5289 0.0
O15 O 0.76219 0.41686 0.54054 0.0
O16 O 0.82532 0.37874 0.57204 0.0
C17 C 0.81782 0.47058 0.41925 0.0
O18 O 0.89525 0.45281 0.52675 0.0
Co19 Co 0.84033 0.54712 0.5105 0.0
O20 O 0.90609 0.52799 0.49943 0.0
C21 C 0.80761 0.50902 0.64353 0.0
C22 C 0.78015 0.3812 0.57236 0.0
C23 C 0.92193 0.48764 0.51304 0.0
O24 O 0.82031 0.46844 0.62399 0.0
O25 O 0.80765 0.54429 0.60286 0.0
O26 O 0.82546 0.42625 0.42678 0.0
O27 O 0.80972 0.49232 0.47649 0.0
Co28 Co 0.61461 0.82552 0.78436 0.0
O29 O 0.6367 0.76212 0.79311 0.0
O30 O 0.67636 0.82373 0.82633 0.0
C31 C 0.58285 0.82189 0.67462 0.0
O32 O 0.60437 0.89595 0.78688 0.0
Co33 Co 0.50784 0.84536 0.76876 0.0
O34 O 0.52759 0.91087 0.77847 0.0
C35 C 0.54586 0.80713 0.89864 0.0
C36 C 0.67306 0.77882 0.82512 0.0
C37 C 0.56952 0.9241 0.78698 0.0
O38 O 0.58677 0.81951 0.8797 0.0
O39 O 0.51053 0.80872 0.85782 0.0
O40 O 0.62756 0.82803 0.68196 0.0
O41 O 0.56122 0.81344 0.73185 0.0
Co42 Co 0.23218 0.61122 0.03306 0.0
O43 O 0.29492 0.6338 0.04815 0.0
O44 O 0.23158 0.67258 0.07605 0.0
C45 C 0.24095 0.58077 0.9239 0.0
O46 O 0.16171 0.59943 0.02726 0.0
Co47 Co 0.2152 0.50455 0.01296 0.0
O48 O 0.15008 0.52476 -0.00244 0.0
C49 C 0.24633 0.54184 0.14789 0.0
C50 C 0.27669 0.66969 0.07881 0.0
C51 C 0.13472 0.56525 0.01121 0.0
O52 O 0.23466 0.58273 0.12818 0.0
O53 O 0.24619 0.5067 0.107 0.0
O54 O 0.23362 0.62517 0.93102 0.0
O55 O 0.24768 0.55888 0.9815 0.0
Co56 Co 0.44622 0.83552 0.30372 0.0
O57 O 0.42592 0.77163 0.29422 0.0
O58 O 0.38441 0.83232 0.26201 0.0
C59 C 0.47839 0.83105 0.41322 0.0
O60 O 0.45447 0.9063 0.30195 0.0
Co61 Co 0.55231 0.85844 0.31911 0.0
O62 O 0.53084 0.92334 0.30886 0.0
C63 C 0.51499 0.8171 0.19093 0.0
C64 C 0.38902 0.78751 0.26261 0.0
C65 C 0.48849 0.93542 0.30103 0.0
O66 O 0.47413 0.83053 0.2084 0.0
O67 O 0.5501 0.81963 0.2321 0.0
O68 O 0.43355 0.83649 0.40633 0.0
O69 O 0.5001 0.8244 0.35555 0.0
Co70 Co 0.21988 0.44505 0.55518 0.0
O71 O 0.28323 0.42341 0.54373 0.0
O72 O 0.22114 0.38344 0.51309 0.0
C73 C 0.22708 0.47655 0.66425 0.0
O74 O 0.14909 0.45574 0.5561 0.0
Co75 Co 0.2013 0.55183 0.57122 0.0
O76 O 0.13536 0.53236 0.5676 0.0
C77 C 0.23821 0.5131 0.44136 0.0
C78 C 0.2662 0.38713 0.5124 0.0
C79 C 0.12127 0.49086 0.55871 0.0
O80 O 0.22384 0.47289 0.45982 0.0
O81 O 0.23784 0.54824 0.48223 0.0
O82 O 0.22039 0.43202 0.6577 0.0
O83 O 0.23347 0.49813 0.60641 0.0
Co84 Co 0.60932 0.22043 0.80487 0.0
O85 O 0.628 0.28353 0.7844 0.0
O86 O 0.67153 0.22216 0.7641 0.0
C87 C 0.57666 0.2335 0.91163 0.0
O88 O 0.60191 0.14985 0.81674 0.0
Co89 Co 0.50348 0.19672 0.82485 0.0
O90 O 0.52764 0.13395 0.84535 0.0
C91 C 0.54048 0.22618 0.68868 0.0
C92 C 0.66573 0.26666 0.75714 0.0
C93 C 0.56932 0.12112 0.83349 0.0
O94 O 0.5819 0.2168 0.70917 0.0
O95 O 0.50516 0.22541 0.72931 0.0
O96 O 0.6216 0.22813 0.90687 0.0
O97 O 0.55509 0.2348 0.85282 0.0
Co98 Co 0.83642 0.60586 0.04974 0.0
O99 O 0.77278 0.62703 0.03806 0.0
O100 O 0.83456 0.66743 0.00776 0.0
C101 C 0.83011 0.57431 0.15887 0.0
O102 O 0.90731 0.59606 0.05071 0.0
Co103 Co 0.85664 0.49947 0.0658 0.0
O104 O 0.92234 0.51958 0.06056 0.0
C105 C 0.81769 0.53764 0.93651 0.0
C106 C 0.78953 0.66347 0.00692 0.0
C107 C 0.93569 0.56137 0.05244 0.0
O108 O 0.8322 0.57794 0.95444 0.0
O109 O 0.8188 0.5026 0.97758 0.0
O110 O 0.8363 0.61891 0.1522 0.0
O111 O 0.82366 0.55261 0.10108 0.0
C112 C 0.5633 0.24073 0.49612 0.0
C113 C 0.51784 0.24168 0.4694 0.0
H114 H 0.60619 0.2352 0.58711 0.0
C115 C 0.48006 0.2434 0.51578 0.0
H116 H 0.59315 0.24008 0.46156 0.0
C117 C 0.48755 0.24038 0.58768 0.0
C118 C 0.53285 0.23564 0.61409 0.0
H119 H 0.44463 0.24513 0.4966 0.0
H120 H 0.45765 0.23986 0.62214 0.0
C121 C 0.57079 0.23769 0.56802 0.0
C122 C 0.79702 0.56148 0.74563 0.0
C123 C 0.79858 0.51636 0.71834 0.0
H124 H 0.80146 0.60365 0.83731 0.0
C125 C 0.79736 0.47834 0.76429 0.0
H126 H 0.79688 0.59148 0.71143 0.0
C127 C 0.80012 0.48531 0.83637 0.0
C128 C 0.80417 0.5304 0.86317 0.0
H129 H 0.79724 0.44312 0.74462 0.0
H130 H 0.80222 0.45531 0.87043 0.0
C131 C 0.79987 0.56845 0.8177 0.0
C132 C 0.56825 0.79921 0.09201 0.0
C133 C 0.52281 0.80328 0.11786 0.0
H134 H 0.61129 0.79635 0.00118 0.0
C135 C 0.48502 0.79881 0.07159 0.0
H136 H 0.59809 0.8014 0.12668 0.0
C137 C 0.49258 0.79582 -0.00033 0.0
C138 C 0.53805 0.79747 0.97328 0.0
H139 H 0.44956 0.80043 0.09038 0.0
H140 H 0.46273 0.79564 0.96486 0.0
C141 C 0.57582 0.79633 0.02008 0.0
C142 C 0.25525 0.56517 0.34084 0.0
C143 C 0.25066 0.52015 0.36769 0.0
H144 H 0.25814 0.60738 0.24911 0.0
C145 C 0.25343 0.48205 0.3221 0.0
H146 H 0.25426 0.59517 0.37496 0.0
C147 C 0.25561 0.48904 0.25001 0.0
C148 C 0.25494 0.53421 0.22281 0.0
H149 H 0.2513 0.44687 0.34168 0.0
H150 H 0.25476 0.45909 0.21578 0.0
C151 C 0.25734 0.57216 0.26875 0.0
C152 C 0.36675 0.34653 0.39817 0.0
C153 C 0.35103 0.30372 0.37195 0.0
H154 H 0.35336 0.40519 0.46399 0.0
C155 C 0.3074 0.28751 0.39461 0.0
H156 H 0.40035 0.35997 0.38287 0.0
C157 C 0.27997 0.31394 0.4411 0.0
C158 C 0.29607 0.35659 0.46768 0.0
H159 H 0.29432 0.25454 0.37606 0.0
H160 H 0.24617 0.30096 0.45626 0.0
C161 C 0.33996 0.37228 0.44568 0.0
C162 C 0.76818 0.30808 0.64481 0.0
C163 C 0.75086 0.34988 0.61674 0.0
H164 H 0.75506 0.24871 0.71061 0.0
C165 C 0.70599 0.36401 0.63665 0.0
H166 H 0.80272 0.29628 0.63123 0.0
C167 C 0.67943 0.33764 0.68362 0.0
C168 C 0.6964 0.29572 0.71143 0.0
H169 H 0.69155 0.39619 0.61706 0.0
H170 H 0.64506 0.34991 0.69729 0.0
C171 C 0.74101 0.28099 0.69081 0.0
C172 C 0.71616 0.67835 0.93807 0.0
C173 C 0.7595 0.69427 0.96257 0.0
H174 H 0.656 0.69152 0.87423 0.0
C175 C 0.77511 0.7378 0.93902 0.0
H176 H 0.70324 0.64474 0.954 0.0
C177 C 0.74764 0.765 0.89344 0.0
C178 C 0.70446 0.74878 0.86852 0.0
H179 H 0.8085 0.75098 0.95613 0.0
H180 H 0.76025 0.79874 0.87763 0.0
C181 C 0.6893 0.70496 0.8913 0.0
C182 C 0.34914 0.68641 0.14871 0.0
C183 C 0.30536 0.70113 0.12411 0.0
H184 H 0.40876 0.70106 0.21282 0.0
C185 C 0.28834 0.74407 0.14796 0.0
H186 H 0.36321 0.65331 0.13249 0.0
C187 C 0.31489 0.77188 0.19391 0.0
C188 C 0.35854 0.75684 0.21886 0.0
H189 H 0.25462 0.75635 0.13074 0.0
H190 H 0.30123 0.80518 0.20994 0.0
C191 C 0.37507 0.71358 0.19579 0.0
C192 C 0.44531 1.01195 0.31245 0.0
C193 C 0.48016 0.98456 0.28159 0.0
H194 H 0.41833 0.08098 0.3269 0.0
C195 C 0.51033 1.0052 0.23298 0.0
H196 H 0.42138 0.99682 0.34976 0.0
C197 C 0.50811 0.0525 0.21894 0.0
C198 C 0.47602 0.08102 0.2538 0.0
H199 H 0.53684 0.9848 0.20703 0.0
H200 H 0.53329 0.06713 0.18303 0.0
C201 C 0.44341 0.06001 0.29895 0.0
C202 C 0.9958 0.44637 0.55343 0.0
C203 C 0.97356 0.48309 0.51761 0.0
H204 H 0.06046 0.41947 0.59483 0.0
C205 C 1.00121 0.51921 0.49126 0.0
H206 H 0.97562 0.41796 0.57448 0.0
C207 C 0.04883 0.52039 0.50386 0.0
C208 C 0.07095 0.48524 0.54255 0.0
H209 H 0.98587 0.54775 0.46236 0.0
H210 H 0.06841 0.54954 0.48377 0.0
C211 C 0.04428 0.44729 0.5654 0.0
C212 C 0.54546 0.99359 0.85392 0.0
C213 C 0.57638 0.9735 0.80587 0.0
H214 H 0.52052 0.05522 0.90256 0.0
C215 C 0.61056 1.00161 0.77485 0.0
H216 H 0.51945 0.97264 0.87996 0.0
C217 C 0.61101 0.04978 0.78751 0.0
C218 C 0.57762 0.07017 0.83198 0.0
H219 H 0.63503 0.98688 0.73796 0.0
H220 H 0.63552 0.07124 0.75933 0.0
C221 C 0.54627 0.04102 0.86716 0.0
C222 C 1.00764 0.53501 -0.00651 0.0
C223 C 0.98574 0.56802 0.03627 0.0
H224 H 0.07068 0.50939 0.95011 0.0
C225 C 1.01257 0.60444 0.06408 0.0
H226 H 0.98782 0.50716 0.96976 0.0
C227 C 0.06108 0.60558 0.05315 0.0
C228 C 0.08316 0.57061 0.01358 0.0
H229 H 0.99653 0.63057 0.09683 0.0
H230 H 0.08143 0.63243 0.07831 0.0
C231 C 0.05535 0.53642 0.98197 0.0
C232 C 0.50098 0.23315 0.97649 0.0
C233 C 0.55005 0.23504 0.97823 0.0
H234 H 0.43732 0.23355 0.0352 0.0
C235 C 0.57235 0.23963 0.04323 0.0
H236 H 0.48244 0.23 0.92719 0.0
C237 C 0.5462 0.24261 0.10495 0.0
C238 C 0.49715 0.24027 0.10332 0.0
H239 H 0.60987 0.24157 0.04638 0.0
H240 H 0.56474 0.24684 0.15409 0.0
C241 C 0.47485 0.23538 0.03834 0.0
C242 C 0.82388 0.57119 0.29055 0.0
C243 C 0.83043 0.54853 0.22638 0.0
H244 H 0.81356 0.5643 0.40102 0.0
C245 C 0.83422 0.49975 0.22617 0.0
H246 H 0.82049 0.60853 0.29247 0.0
C247 C 0.83086 0.47416 0.28852 0.0
C248 C 0.82298 0.49672 0.35246 0.0
H249 H 0.83929 0.48102 0.17759 0.0
H250 H 0.83366 0.43678 0.28644 0.0
C251 C 0.81979 0.54557 0.35273 0.0
C252 C 0.57923 0.83194 0.54306 0.0
C253 C 0.55655 0.82703 0.60759 0.0
H254 H 0.57233 0.83692 0.4315 0.0
C255 C 0.50745 0.82588 0.60806 0.0
H256 H 0.6168 0.833 0.54074 0.0
C257 C 0.48172 0.82881 0.54553 0.0
C258 C 0.50445 0.8323 0.48084 0.0
H259 H 0.48863 0.82206 0.65684 0.0
H260 H 0.44417 0.82701 0.54774 0.0
C261 C 0.5535 0.83425 0.48044 0.0
C262 C 0.2266 0.57686 0.79338 0.0
C263 C 0.23603 0.55456 0.85715 0.0
H264 H 0.21619 0.56964 0.68285 0.0
C265 C 0.24035 0.50579 0.85752 0.0
H266 H 0.22281 0.61416 0.79127 0.0
C267 C 0.23567 0.47999 0.7956 0.0
C268 C 0.22737 0.5024 0.73161 0.0
H269 H 0.24783 0.48728 0.90571 0.0
H270 H 0.23994 0.44273 0.79754 0.0
C271 C 0.22262 0.5511 0.7313 0.0
loop_
_geom_bond_atom_site_label_1
_geom_bond_atom_site_label_2
_geom_bond_distance
_geom_bond_site_symmetry_2
_ccdc_geom_bond_type
Co0 O1 2.216 . S
Co0 O2 2.091 . S
Co0 O4 2.004 . S
Co0 O10 2.021 . S
Co0 O12 2.137 . S
Co0 O13 2.244 . S
O1 Co0 2.216 . S
O1 C8 1.247 . S
O2 Co0 2.091 . S
O2 C8 1.261 . S
C3 O12 1.247 . S
C3 O13 1.272 . S
O4 Co0 2.004 . S
O4 C9 1.259 . S
Co5 O6 2.061 . S
Co5 O11 2.052 . S
Co5 O13 2.135 . S
O6 Co5 2.061 . S
O6 C9 1.235 . S
C7 O10 1.238 . S
C7 O11 1.241 . S
C8 O1 1.247 . S
C8 O2 1.261 . S
C9 O4 1.259 . S
C9 O6 1.235 . S
O10 Co0 2.021 . S
O10 C7 1.238 . S
O11 Co5 2.052 . S
O11 C7 1.241 . S
O12 Co0 2.137 . S
O12 C3 1.247 . S
O13 Co0 2.244 . S
O13 C3 1.272 . S
O13 Co5 2.135 . S
Co14 O15 2.216 . S
Co14 O16 2.091 . S
Co14 O18 2.004 . S
Co14 O24 2.021 . S
Co14 O26 2.137 . S
Co14 O27 2.244 . S
O15 Co14 2.216 . S
O15 C22 1.247 . S
O16 Co14 2.091 . S
O16 C22 1.261 . S
C17 O26 1.247 . S
C17 O27 1.272 . S
O18 Co14 2.004 . S
O18 C23 1.259 . S
Co19 O20 2.061 . S
Co19 O25 2.052 . S
Co19 O27 2.135 . S
O20 Co19 2.061 . S
O20 C23 1.235 . S
C21 O24 1.238 . S
C21 O25 1.241 . S
C22 O15 1.247 . S
C22 O16 1.261 . S
C23 O18 1.259 . S
C23 O20 1.235 . S
O24 Co14 2.021 . S
O24 C21 1.238 . S
O25 Co19 2.052 . S
O25 C21 1.241 . S
O26 Co14 2.137 . S
O26 C17 1.247 . S
O27 Co14 2.244 . S
O27 C17 1.272 . S
O27 Co19 2.135 . S
Co28 O29 2.216 . S
Co28 O30 2.091 . S
Co28 O32 2.004 . S
Co28 O38 2.021 . S
Co28 O40 2.137 . S
Co28 O41 2.244 . S
O29 Co28 2.216 . S
O29 C36 1.247 . S
O30 Co28 2.091 . S
O30 C36 1.261 . S
C31 O40 1.247 . S
C31 O41 1.272 . S
O32 Co28 2.004 . S
O32 C37 1.259 . S
Co33 O34 2.061 . S
Co33 O39 2.052 . S
Co33 O41 2.135 . S
O34 Co33 2.061 . S
O34 C37 1.235 . S
C35 O38 1.238 . S
C35 O39 1.241 . S
C36 O29 1.247 . S
C36 O30 1.261 . S
C37 O32 1.259 . S
C37 O34 1.235 . S
O38 Co28 2.021 . S
O38 C35 1.238 . S
O39 Co33 2.052 . S
O39 C35 1.241 . S
O40 Co28 2.137 . S
O40 C31 1.247 . S
O41 Co28 2.244 . S
O41 C31 1.272 . S
O41 Co33 2.135 . S
Co42 O43 2.216 . S
Co42 O44 2.091 . S
Co42 O46 2.004 . S
Co42 O52 2.021 . S
Co42 O54 2.137 1_554 S
Co42 O55 2.244 . S
O43 Co42 2.216 . S
O43 C50 1.247 . S
O44 Co42 2.091 . S
O44 C50 1.261 . S
C45 O54 1.247 . S
C45 O55 1.272 1_556 S
O46 Co42 2.004 . S
O46 C51 1.259 . S
Co47 O48 2.061 . S
Co47 O53 2.052 . S
Co47 O55 2.135 . S
O48 Co47 2.061 . S
O48 C51 1.235 . S
C49 O52 1.238 . S
C49 O53 1.241 . S
C50 O43 1.247 . S
C50 O44 1.261 . S
C51 O46 1.259 . S
C51 O48 1.235 . S
O52 Co42 2.021 . S
O52 C49 1.238 . S
O53 Co47 2.052 . S
O53 C49 1.241 . S
O54 Co42 2.137 1_556 S
O54 C45 1.247 . S
O55 Co42 2.244 . S
O55 C45 1.272 1_554 S
O55 Co47 2.135 . S
Co56 O57 2.216 . S
Co56 O58 2.091 . S
Co56 O60 2.004 . S
Co56 O66 2.021 . S
Co56 O68 2.137 . S
Co56 O69 2.244 . S
O57 Co56 2.216 . S
O57 C64 1.247 . S
O58 Co56 2.091 . S
O58 C64 1.261 . S
C59 O68 1.247 . S
C59 O69 1.272 . S
O60 Co56 2.004 . S
O60 C65 1.259 . S
Co61 O62 2.061 . S
Co61 O67 2.052 . S
Co61 O69 2.135 . S
O62 Co61 2.061 . S
O62 C65 1.235 . S
C63 O66 1.238 . S
C63 O67 1.241 . S
C64 O57 1.247 . S
C64 O58 1.261 . S
C65 O60 1.259 . S
C65 O62 1.235 . S
O66 Co56 2.021 . S
O66 C63 1.238 . S
O67 Co61 2.052 . S
O67 C63 1.241 . S
O68 Co56 2.137 . S
O68 C59 1.247 . S
O69 Co56 2.244 . S
O69 C59 1.272 . S
O69 Co61 2.135 . S
Co70 O71 2.216 . S
Co70 O72 2.091 . S
Co70 O74 2.004 . S
Co70 O80 2.021 . S
Co70 O82 2.137 . S
Co70 O83 2.244 . S
O71 Co70 2.216 . S
O71 C78 1.247 . S
O72 Co70 2.091 . S
O72 C78 1.261 . S
C73 O82 1.247 . S
C73 O83 1.272 . S
O74 Co70 2.004 . S
O74 C79 1.259 . S
Co75 O76 2.061 . S
Co75 O81 2.052 . S
Co75 O83 2.135 . S
O76 Co75 2.061 . S
O76 C79 1.235 . S
C77 O80 1.238 . S
C77 O81 1.241 . S
C78 O71 1.247 . S
C78 O72 1.261 . S
C79 O74 1.259 . S
C79 O76 1.235 . S
O80 Co70 2.021 . S
O80 C77 1.238 . S
O81 Co75 2.052 . S
O81 C77 1.241 . S
O82 Co70 2.137 . S
O82 C73 1.247 . S
O83 Co70 2.244 . S
O83 C73 1.272 . S
O83 Co75 2.135 . S
Co84 O85 2.216 . S
Co84 O86 2.091 . S
Co84 O88 2.004 . S
Co84 O94 2.021 . S
Co84 O96 2.137 . S
Co84 O97 2.244 . S
O85 Co84 2.216 . S
O85 C92 1.247 . S
O86 Co84 2.091 . S
O86 C92 1.261 . S
C87 O96 1.247 . S
C87 O97 1.272 . S
O88 Co84 2.004 . S
O88 C93 1.259 . S
Co89 O90 2.061 . S
Co89 O95 2.052 . S
Co89 O97 2.135 . S
O90 Co89 2.061 . S
O90 C93 1.235 . S
C91 O94 1.238 . S
C91 O95 1.241 . S
C92 O85 1.247 . S
C92 O86 1.261 . S
C93 O88 1.259 . S
C93 O90 1.235 . S
O94 Co84 2.021 . S
O94 C91 1.238 . S
O95 Co89 2.052 . S
O95 C91 1.241 . S
O96 Co84 2.137 . S
O96 C87 1.247 . S
O97 Co84 2.244 . S
O97 C87 1.272 . S
O97 Co89 2.135 . S
Co98 O99 2.216 . S
Co98 O100 2.091 . S
Co98 O102 2.004 . S
Co98 O108 2.021 1_554 S
Co98 O110 2.137 . S
Co98 O111 2.244 . S
O99 Co98 2.216 . S
O99 C106 1.247 . S
O100 Co98 2.091 . S
O100 C106 1.261 . S
C101 O110 1.247 . S
C101 O111 1.272 . S
O102 Co98 2.004 . S
O102 C107 1.259 . S
Co103 O104 2.061 . S
Co103 O109 2.052 1_554 S
Co103 O111 2.135 . S
O104 Co103 2.061 . S
O104 C107 1.235 . S
C105 O108 1.238 . S
C105 O109 1.241 . S
C106 O99 1.247 . S
C106 O100 1.261 . S
C107 O102 1.259 . S
C107 O104 1.235 . S
O108 Co98 2.021 1_556 S
O108 C105 1.238 . S
O109 Co103 2.052 1_556 S
O109 C105 1.241 . S
O110 Co98 2.137 . S
O110 C101 1.247 . S
O111 Co98 2.244 . S
O111 C101 1.272 . S
O111 Co103 2.135 . S
C112 C113 1.387 . S
C112 H116 0.950 . S
C112 C121 1.390 . S
C113 C112 1.387 . S
C113 C115 1.387 . S
H114 C121 0.950 . S
C115 C113 1.387 . S
C115 C117 1.390 . S
C115 H119 0.950 . S
H116 C112 0.950 . S
C117 C115 1.390 . S
C117 C118 1.387 . S
C117 H120 0.950 . S
C118 C117 1.387 . S
C118 C121 1.387 . S
H119 C115 0.950 . S
H120 C117 0.950 . S
C121 C112 1.390 . S
C121 H114 0.950 . S
C121 C118 1.387 . S
C122 C123 1.387 . S
C122 H126 0.950 . S
C122 C131 1.390 . S
C123 C122 1.387 . S
C123 C125 1.387 . S
H124 C131 0.950 . S
C125 C123 1.387 . S
C125 C127 1.390 . S
C125 H129 0.950 . S
H126 C122 0.950 . S
C127 C125 1.390 . S
C127 C128 1.387 . S
C127 H130 0.950 . S
C128 C127 1.387 . S
C128 C131 1.387 . S
H129 C125 0.950 . S
H130 C127 0.950 . S
C131 C122 1.390 . S
C131 H124 0.950 . S
C131 C128 1.387 . S
C132 C133 1.387 . S
C132 H136 0.950 . S
C132 C141 1.390 . S
C133 C132 1.387 . S
C133 C135 1.387 . S
H134 C141 0.950 1_556 S
C135 C133 1.387 . S
C135 C137 1.390 . S
C135 H139 0.950 . S
H136 C132 0.950 . S
C137 C135 1.390 . S
C137 C138 1.387 1_554 S
C137 H140 0.950 1_554 S
C138 C137 1.387 1_556 S
C138 C141 1.387 1_556 S
H139 C135 0.950 . S
H140 C137 0.950 1_556 S
C141 C132 1.390 . S
C141 H134 0.950 1_554 S
C141 C138 1.387 1_554 S
C142 C143 1.387 . S
C142 H146 0.950 . S
C142 C151 1.390 . S
C143 C142 1.387 . S
C143 C145 1.387 . S
H144 C151 0.950 . S
C145 C143 1.387 . S
C145 C147 1.390 . S
C145 H149 0.950 . S
H146 C142 0.950 . S
C147 C145 1.390 . S
C147 C148 1.387 . S
C147 H150 0.950 . S
C148 C147 1.387 . S
C148 C151 1.387 . S
H149 C145 0.950 . S
H150 C147 0.950 . S
C151 C142 1.390 . S
C151 H144 0.950 . S
C151 C148 1.387 . S
C152 C153 1.387 . S
C152 H156 0.950 . S
C152 C161 1.390 . S
C153 C152 1.387 . S
C153 C155 1.387 . S
H154 C161 0.950 . S
C155 C153 1.387 . S
C155 C157 1.390 . S
C155 H159 0.950 . S
H156 C152 0.950 . S
C157 C155 1.390 . S
C157 C158 1.387 . S
C157 H160 0.950 . S
C158 C157 1.387 . S
C158 C161 1.387 . S
H159 C155 0.950 . S
H160 C157 0.950 . S
C161 C152 1.390 . S
C161 H154 0.950 . S
C161 C158 1.387 . S
C162 C163 1.387 . S
C162 H166 0.950 . S
C162 C171 1.390 . S
C163 C162 1.387 . S
C163 C165 1.387 . S
H164 C171 0.950 . S
C165 C163 1.387 . S
C165 C167 1.390 . S
C165 H169 0.950 . S
H166 C162 0.950 . S
C167 C165 1.390 . S
C167 C168 1.387 . S
C167 H170 0.950 . S
C168 C167 1.387 . S
C168 C171 1.387 . S
H169 C165 0.950 . S
H170 C167 0.950 . S
C171 C162 1.390 . S
C171 H164 0.950 . S
C171 C168 1.387 . S
C172 C173 1.387 . S
C172 H176 0.950 . S
C172 C181 1.390 . S
C173 C172 1.387 . S
C173 C175 1.387 . S
H174 C181 0.950 . S
C175 C173 1.387 . S
C175 C177 1.390 . S
C175 H179 0.950 1_556 S
H176 C172 0.950 . S
C177 C175 1.390 . S
C177 C178 1.387 . S
C177 H180 0.950 . S
C178 C177 1.387 . S
C178 C181 1.387 . S
H179 C175 0.950 1_554 S
H180 C177 0.950 . S
C181 C172 1.390 . S
C181 H174 0.950 . S
C181 C178 1.387 . S
C182 C183 1.387 . S
C182 H186 0.950 . S
C182 C191 1.390 . S
C183 C182 1.387 . S
C183 C185 1.387 . S
H184 C191 0.950 . S
C185 C183 1.387 . S
C185 C187 1.390 . S
C185 H189 0.950 . S
H186 C182 0.950 . S
C187 C185 1.390 . S
C187 C188 1.387 . S
C187 H190 0.950 . S
C188 C187 1.387 . S
C188 C191 1.387 . S
H189 C185 0.950 . S
H190 C187 0.950 . S
C191 C182 1.390 . S
C191 H184 0.950 . S
C191 C188 1.387 . S
C192 C193 1.387 . S
C192 H196 0.950 . S
C192 C201 1.390 1_565 S
C193 C192 1.387 . S
C193 C195 1.387 . S
H194 C201 0.950 . S
C195 C193 1.387 . S
C195 C197 1.390 1_565 S
C195 H199 0.950 . S
H196 C192 0.950 . S
C197 C195 1.390 1_545 S
C197 C198 1.387 . S
C197 H200 0.950 . S
C198 C197 1.387 . S
C198 C201 1.387 . S
H199 C195 0.950 . S
H200 C197 0.950 . S
C201 C192 1.390 1_545 S
C201 H194 0.950 . S
C201 C198 1.387 . S
C202 C203 1.387 . S
C202 H206 0.950 . S
C202 C211 1.390 1_655 S
C203 C202 1.387 . S
C203 C205 1.387 . S
H204 C211 0.950 . S
C205 C203 1.387 . S
C205 C207 1.390 1_655 S
C205 H209 0.950 . S
H206 C202 0.950 . S
C207 C205 1.390 1_455 S
C207 C208 1.387 . S
C207 H210 0.950 . S
C208 C207 1.387 . S
C208 C211 1.387 . S
H209 C205 0.950 . S
H210 C207 0.950 . S
C211 C202 1.390 1_455 S
C211 H204 0.950 . S
C211 C208 1.387 . S
C212 C213 1.387 . S
C212 H216 0.950 . S
C212 C221 1.390 1_565 S
C213 C212 1.387 . S
C213 C215 1.387 . S
H214 C221 0.950 . S
C215 C213 1.387 . S
C215 C217 1.390 1_565 S
C215 H219 0.950 . S
H216 C212 0.950 . S
C217 C215 1.390 1_545 S
C217 C218 1.387 . S
C217 H220 0.950 . S
C218 C217 1.387 . S
C218 C221 1.387 . S
H219 C215 0.950 . S
H220 C217 0.950 . S
C221 C212 1.390 1_545 S
C221 H214 0.950 . S
C221 C218 1.387 . S
C222 C223 1.387 . S
C222 H226 0.950 . S
C222 C231 1.390 1_655 S
C223 C222 1.387 . S
C223 C225 1.387 . S
H224 C231 0.950 . S
C225 C223 1.387 . S
C225 C227 1.390 1_655 S
C225 H229 0.950 . S
H226 C222 0.950 . S
C227 C225 1.390 1_455 S
C227 C228 1.387 . S
C227 H230 0.950 . S
C228 C227 1.387 . S
C228 C231 1.387 . S
H229 C225 0.950 . S
H230 C227 0.950 . S
C231 C222 1.390 1_455 S
C231 H224 0.950 . S
C231 C228 1.387 . S
C232 C233 1.387 1_554 S
C232 H236 0.950 . S
C232 C241 1.390 . S
C233 C232 1.387 1_556 S
C233 C235 1.387 1_556 S
H234 C241 0.950 . S
C235 C233 1.387 1_554 S
C235 C237 1.390 . S
C235 H239 0.950 . S
H236 C232 0.950 . S
C237 C235 1.390 . S
C237 C238 1.387 . S
C237 H240 0.950 . S
C238 C237 1.387 . S
C238 C241 1.387 . S
H239 C235 0.950 . S
H240 C237 0.950 . S
C241 C232 1.390 . S
C241 H234 0.950 . S
C241 C238 1.387 . S
C242 C243 1.387 . S
C242 H246 0.950 . S
C242 C251 1.390 . S
C243 C242 1.387 . S
C243 C245 1.387 . S
H244 C251 0.950 . S
C245 C243 1.387 . S
C245 C247 1.390 . S
C245 H249 0.950 . S
H246 C242 0.950 . S
C247 C245 1.390 . S
C247 C248 1.387 . S
C247 H250 0.950 . S
C248 C247 1.387 . S
C248 C251 1.387 . S
H249 C245 0.950 . S
H250 C247 0.950 . S
C251 C242 1.390 . S
C251 H244 0.950 . S
C251 C248 1.387 . S
C252 C253 1.387 . S
C252 H256 0.950 . S
C252 C261 1.390 . S
C253 C252 1.387 . S
C253 C255 1.387 . S
H254 C261 0.950 . S
C255 C253 1.387 . S
C255 C257 1.390 . S
C255 H259 0.950 . S
H256 C252 0.950 . S
C257 C255 1.390 . S
C257 C258 1.387 . S
C257 H260 0.950 . S
C258 C257 1.387 . S
C258 C261 1.387 . S
H259 C255 0.950 . S
H260 C257 0.950 . S
C261 C252 1.390 . S
C261 H254 0.950 . S
C261 C258 1.387 . S
C262 C263 1.387 . S
C262 H266 0.950 . S
C262 C271 1.390 . S
C263 C262 1.387 . S
C263 C265 1.387 . S
H264 C271 0.950 . S
C265 C263 1.387 . S
C265 C267 1.390 . S
C265 H269 0.950 . S
H266 C262 0.950 . S
C267 C265 1.390 . S
C267 C268 1.387 . S
C267 H270 0.950 . S
C268 C267 1.387 . S
C268 C271 1.387 . S
H269 C265 0.950 . S
H270 C267 0.950 . S
C271 C262 1.390 . S
C271 H264 0.950 . S
C271 C268 1.387 . S
C113 C7 0.914 . S
C118 C91 0.914 . S
C123 C21 0.913 . S
C128 C105 0.913 . S
C133 C63 0.914 . S
C138 C35 0.914 . S
C143 C77 0.913 . S
C148 C49 0.913 . S
C153 C8 1.596 . S
C158 C78 1.595 . S
C163 C22 1.596 . S
C168 C92 1.597 . S
C173 C106 1.595 1_556 S
C178 C36 1.595 . S
C183 C50 1.596 . S
C188 C64 1.596 . S
C193 C65 1.498 . S
C198 C9 1.498 . S
C203 C23 1.498 . S
C208 C79 1.498 . S
C213 C37 1.498 . S
C218 C93 1.498 . S
C223 C107 1.498 . S
C228 C51 1.498 . S
C233 C87 1.539 . S
C238 C3 1.539 . S
C243 C101 1.539 . S
C248 C17 1.539 . S
C253 C31 1.539 . S
C258 C59 1.539 . S
C263 C45 1.539 . S
C268 C73 1.539 . S
