# Generated by pormake.
# Topology sml, (6)-cn, num edge types: 1
# Building blocks:
#     Node 0, Type 0, BuildingBlock: CUWYAW_clean_sbu_0, # of connection points: 6
#     Node 1, Type 0, BuildingBlock: CUWYAW_clean_sbu_0, # of connection points: 6
#     Node 2, Type 0, BuildingBlock: CUWYAW_clean_sbu_0, # of connection points: 6
#     Node 3, Type 0, BuildingBlock: CUWYAW_clean_sbu_0, # of connection points: 6
#     Node 4, Type 0, BuildingBlock: CUWYAW_clean_sbu_0, # of connection points: 6
#     Node 5, Type 0, BuildingBlock: CUWYAW_clean_sbu_0, # of connection points: 6
#     Edge 6, Type (0, 0), BuildingBlock: FUNLAD_clean_linker_0, # of connection points: 2
#     Edge 7, Type (0, 0), BuildingBlock: FUNLAD_clean_linker_0, # of connection points: 2
#     Edge 8, Type (0, 0), BuildingBlock: FUNLAD_clean_linker_0, # of connection points: 2
#     Edge 9, Type (0, 0), BuildingBlock: FUNLAD_clean_linker_0, # of connection points: 2
#     Edge 10, Type (0, 0), BuildingBlock: FUNLAD_clean_linker_0, # of connection points: 2
#     Edge 11, Type (0, 0), BuildingBlock: FUNLAD_clean_linker_0, # of connection points: 2
#     Edge 12, Type (0, 0), BuildingBlock: FUNLAD_clean_linker_0, # of connection points: 2
#     Edge 13, Type (0, 0), BuildingBlock: FUNLAD_clean_linker_0, # of connection points: 2
#     Edge 14, Type (0, 0), BuildingBlock: FUNLAD_clean_linker_0, # of connection points: 2
#     Edge 15, Type (0, 0), BuildingBlock: FUNLAD_clean_linker_0, # of connection points: 2
#     Edge 16, Type (0, 0), BuildingBlock: FUNLAD_clean_linker_0, # of connection points: 2
#     Edge 17, Type (0, 0), BuildingBlock: FUNLAD_clean_linker_0, # of connection points: 2
#     Edge 18, Type (0, 0), BuildingBlock: FUNLAD_clean_linker_0, # of connection points: 2
#     Edge 19, Type (0, 0), BuildingBlock: FUNLAD_clean_linker_0, # of connection points: 2
#     Edge 20, Type (0, 0), BuildingBlock: FUNLAD_clean_linker_0, # of connection points: 2
#     Edge 21, Type (0, 0), BuildingBlock: FUNLAD_clean_linker_0, # of connection points: 2
#     Edge 22, Type (0, 0), BuildingBlock: FUNLAD_clean_linker_0, # of connection points: 2
#     Edge 23, Type (0, 0), BuildingBlock: FUNLAD_clean_linker_0, # of connection points: 2
# Relax obj value: 0.214
# Max RMSD: 0.235
# Mean RMSD: 0.235
data_MOF--net-sml--node1-CUWYAW_clean_sbu_0--edge1-FUNLAD_clean_linker_0
_symmetry_space_group_name_H-M    P1
_symmetry_Int_Tables_number       1
_symmetry_cell_setting            triclinic
loop_
_symmetry_equiv_pos_as_xyz
'x, y, z'
_cell_length_a     38.956633
_cell_length_b     38.922581
_cell_length_c     27.820626
_cell_angle_alpha  89.895744
_cell_angle_beta   90.003736
_cell_angle_gamma 120.07311
loop_
_atom_site_label
_atom_site_type_symbol
_atom_site_fract_x
_atom_site_fract_y
_atom_site_fract_z
_atom_type_partial_charge
C0 C 0.20162 0.36981 0.12851 0.0
Eu1 Eu 0.20769 0.40408 0.04589 0.0
C2 C 0.20762 0.38157 0.17963 0.0
C3 C 0.21871 0.36154 0.21252 0.0
C4 C 0.22232 0.37098 0.26154 0.0
C5 C 0.21498 0.40075 0.2786 0.0
C6 C 0.20443 0.42114 0.24528 0.0
C7 C 0.20075 0.41161 0.19638 0.0
C8 C 0.27092 0.46278 0.99719 0.0
C9 C 0.20081 0.48506 0.05138 0.0
C10 C 0.16971 0.45691 0.86772 0.0
Eu11 Eu 0.18122 0.4364 0.95269 0.0
C12 C 0.17983 0.45416 0.8174 0.0
C13 C 0.15838 0.45928 0.78045 0.0
C14 C 0.16574 0.45463 0.7324 0.0
C15 C 0.19481 0.44473 0.72022 0.0
C16 C 0.21656 0.43995 0.75756 0.0
C17 C 0.20911 0.44461 0.80572 0.0
C18 C 0.12451 0.38905 0.01583 0.0
C19 C 0.20564 0.36665 0.94299 0.0
O20 O 0.17204 0.37057 0.1071 0.0
O21 O 0.23336 0.38371 0.10134 0.0
O22 O 0.27507 0.44613 0.0357 0.0
O23 O 0.23461 0.44768 0.98935 0.0
O24 O 0.20012 0.45459 0.07398 0.0
O25 O 0.19875 0.48722 1.00391 0.0
O26 O 0.19884 0.48097 0.89604 0.0
O27 O 0.14492 0.42315 0.88846 0.0
O28 O 0.12432 0.41817 0.99322 0.0
O29 O 0.15336 0.38527 1.00252 0.0
O30 O 0.20132 0.39525 0.92295 0.0
O31 O 0.20457 0.36083 0.99009 0.0
H32 H 0.22413 0.33825 0.20036 0.0
H33 H 0.23094 0.35501 0.28607 0.0
H34 H 0.19799 0.44381 0.25711 0.0
H35 H 0.19177 0.4272 0.17177 0.0
H36 H 0.13539 0.46627 0.78881 0.0
H37 H 0.14789 0.45783 0.70487 0.0
H38 H 0.2394 0.4327 0.74958 0.0
H39 H 0.22592 0.44039 0.83381 0.0
C40 C 0.83783 0.21579 0.46373 0.0
Eu41 Eu 0.80499 0.2089 0.37982 0.0
C42 C 0.82851 0.21131 0.51546 0.0
C43 C 0.85951 0.23126 0.54835 0.0
C44 C 0.85203 0.22724 0.59774 0.0
C45 C 0.81327 0.20313 0.61539 0.0
C46 C 0.78205 0.1835 0.58217 0.0
C47 C 0.78963 0.18751 0.53257 0.0
C48 C 0.80982 0.26788 0.32352 0.0
C49 C 0.71182 0.18583 0.38884 0.0
C50 C 0.71687 0.17179 0.20641 0.0
Eu51 Eu 0.75072 0.18156 0.2902 0.0
C52 C 0.72624 0.17657 0.1547 0.0
C53 C 0.69519 0.15784 0.12161 0.0
C54 C 0.70285 0.16208 0.07225 0.0
C55 C 0.74184 0.18522 0.05485 0.0
C56 C 0.77308 0.20366 0.08828 0.0
C57 C 0.76532 0.19941 0.13783 0.0
C58 C 0.74418 0.12336 0.34899 0.0
C59 C 0.84464 0.20739 0.28095 0.0
O60 O 0.82255 0.18332 0.43794 0.0
O61 O 0.83717 0.24516 0.44168 0.0
O62 O 0.83997 0.27 0.34617 0.0
O63 O 0.77848 0.23612 0.33379 0.0
O64 O 0.74391 0.18976 0.41045 0.0
O65 O 0.70904 0.1867 0.34152 0.0
O66 O 0.7303 0.20428 0.23185 0.0
O67 O 0.71994 0.14385 0.22876 0.0
O68 O 0.71432 0.12223 0.32687 0.0
O69 O 0.77612 0.15397 0.33719 0.0
O70 O 0.81219 0.20272 0.25961 0.0
O71 O 0.84754 0.206 0.32811 0.0
H72 H 0.88968 0.24994 0.53578 0.0
H73 H 0.87665 0.24333 0.62216 0.0
H74 H 0.75191 0.16447 0.59451 0.0
H75 H 0.76526 0.17186 0.50767 0.0
H76 H 0.66486 0.1399 0.134 0.0
H77 H 0.67817 0.14689 0.04768 0.0
H78 H 0.80341 0.22193 0.07616 0.0
H79 H 0.78972 0.2141 0.1629 0.0
C80 C 0.60999 0.83988 0.79574 0.0
Eu81 Eu 0.59057 0.80689 0.71112 0.0
C82 C 0.60341 0.8284 0.84686 0.0
C83 C 0.6053 0.85582 0.8808 0.0
C84 C 0.59965 0.84604 0.92964 0.0
C85 C 0.59203 0.80853 0.94565 0.0
C86 C 0.58981 0.78089 0.91131 0.0
C87 C 0.59543 0.79073 0.86233 0.0
C88 C 0.54259 0.81247 0.64509 0.0
C89 C 0.51913 0.71404 0.71864 0.0
C90 C 0.55203 0.71722 0.539 0.0
Eu91 Eu 0.56928 0.75099 0.62331 0.0
C92 C 0.55764 0.72878 0.48791 0.0
C93 C 0.55569 0.70166 0.45347 0.0
C94 C 0.5606 0.71167 0.40468 0.0
C95 C 0.56752 0.74908 0.38925 0.0
C96 C 0.56972 0.77637 0.42409 0.0
C97 C 0.56484 0.76631 0.47301 0.0
C98 C 0.61524 0.74411 0.69072 0.0
C99 C 0.63826 0.84503 0.61529 0.0
O100 O 0.63192 0.82939 0.77111 0.0
O101 O 0.57916 0.83538 0.77163 0.0
O102 O 0.56889 0.84266 0.6695 0.0
O103 O 0.54112 0.78096 0.6589 0.0
O104 O 0.5467 0.74604 0.74105 0.0
O105 O 0.51838 0.71064 0.6713 0.0
O106 O 0.52806 0.72493 0.56362 0.0
O107 O 0.58396 0.72485 0.56302 0.0
O108 O 0.5881 0.71418 0.66688 0.0
O109 O 0.61835 0.77618 0.67608 0.0
O110 O 0.61121 0.81252 0.59319 0.0
O111 O 0.63988 0.84834 0.66256 0.0
H112 H 0.61118 0.88494 0.8695 0.0
H113 H 0.60083 0.86779 0.95482 0.0
H114 H 0.58434 0.75187 0.92232 0.0
H115 H 0.59376 0.76905 0.83663 0.0
H116 H 0.5504 0.67265 0.46435 0.0
H117 H 0.55945 0.69019 0.37908 0.0
H118 H 0.57467 0.8053 0.41354 0.0
H119 H 0.5665 0.78771 0.49912 0.0
C120 C 0.76798 0.61799 0.14578 0.0
Eu121 Eu 0.77508 0.59349 0.06124 0.0
C122 C 0.77255 0.61113 0.19677 0.0
C123 C 0.74969 0.61697 0.23109 0.0
C124 C 0.75338 0.61082 0.27983 0.0
C125 C 0.78013 0.59877 0.29525 0.0
C126 C 0.80287 0.59266 0.26056 0.0
C127 C 0.79908 0.59875 0.21168 0.0
C128 C 0.71612 0.54306 1.00247 0.0
C129 C 0.79137 0.51882 0.0682 0.0
C130 C 0.8126 0.54428 0.88763 0.0
Eu131 Eu 0.80196 0.5667 0.97191 0.0
C132 C 0.81046 0.55282 0.83656 0.0
C133 C 0.83384 0.54674 0.80326 0.0
C134 C 0.83202 0.55402 0.75441 0.0
C135 C 0.80664 0.56746 0.73785 0.0
C136 C 0.78351 0.57395 0.77156 0.0
C137 C 0.78544 0.56673 0.82053 0.0
C138 C 0.85995 0.61547 0.0326 0.0
C139 C 0.78104 0.63833 0.9637 0.0
O140 O 0.80043 0.63584 0.11994 0.0
O141 O 0.7385 0.58865 0.12306 0.0
O142 O 0.71524 0.5715 0.02572 0.0
O143 O 0.74648 0.54118 0.01346 0.0
O144 O 0.79118 0.54866 0.09087 0.0
O145 O 0.79007 0.51615 0.02084 0.0
O146 O 0.77901 0.5262 0.91119 0.0
O147 O 0.8412 0.5726 0.91257 0.0
O148 O 0.85973 0.58591 0.01081 0.0
O149 O 0.83073 0.61883 0.02004 0.0
O150 O 0.78457 0.6101 0.94171 0.0
O151 O 0.78141 0.64133 0.01097 0.0
H152 H 0.72886 0.62624 0.22015 0.0
H153 H 0.73486 0.61506 0.30538 0.0
H154 H 0.82397 0.58368 0.2712 0.0
H155 H 0.81693 0.59397 0.18562 0.0
H156 H 0.85353 0.53628 0.81507 0.0
H157 H 0.85081 0.54944 0.72967 0.0
H158 H 0.76341 0.58396 0.76005 0.0
H159 H 0.76721 0.57173 0.84577 0.0
C160 C 0.15534 0.76429 0.47793 0.0
Eu161 Eu 0.19406 0.77938 0.39698 0.0
C162 C 0.16494 0.77194 0.52931 0.0
C163 C 0.13463 0.75367 0.56349 0.0
C164 C 0.14332 0.75973 0.61257 0.0
C165 C 0.18258 0.78418 0.6284 0.0
C166 C 0.2129 0.80268 0.5938 0.0
C167 C 0.20415 0.79656 0.54467 0.0
C168 C 0.20317 0.72801 0.3404 0.0
C169 C 0.28724 0.81552 0.39613 0.0
C170 C 0.27527 0.82748 0.22006 0.0
Eu171 Eu 0.23644 0.81301 0.3009 0.0
C172 C 0.26538 0.82002 0.16873 0.0
C173 C 0.2956 0.83766 0.13434 0.0
C174 C 0.28666 0.83148 0.08533 0.0
C175 C 0.24722 0.80752 0.06978 0.0
C176 C 0.21699 0.78969 0.10458 0.0
C177 C 0.226 0.79593 0.15364 0.0
C178 C 0.22767 0.8649 0.35705 0.0
C179 C 0.14267 0.7767 0.3024 0.0
O180 O 0.16396 0.79526 0.45106 0.0
O181 O 0.16463 0.73979 0.4575 0.0
O182 O 0.20561 0.72805 0.38693 0.0
O183 O 0.19403 0.7531 0.32658 0.0
O184 O 0.25676 0.80913 0.42314 0.0
O185 O 0.28497 0.81414 0.34854 0.0
O186 O 0.26577 0.79626 0.24677 0.0
O187 O 0.26704 0.85265 0.24073 0.0
O188 O 0.22597 0.86488 0.31047 0.0
O189 O 0.23651 0.83961 0.37116 0.0
O190 O 0.17362 0.78544 0.27483 0.0
O191 O 0.14464 0.77603 0.34991 0.0
H192 H 0.10419 0.73459 0.55222 0.0
H193 H 0.11917 0.74552 0.63811 0.0
H194 H 0.24349 0.82133 0.60468 0.0
H195 H 0.22798 0.81079 0.51871 0.0
H196 H 0.32617 0.85628 0.14541 0.0
H197 H 0.31073 0.84517 0.05962 0.0
H198 H 0.18628 0.77143 0.09391 0.0
H199 H 0.20224 0.78218 0.17977 0.0
C200 C 0.3882 0.15987 0.80424 0.0
Eu201 Eu 0.40979 0.19268 0.71951 0.0
C202 C 0.39396 0.17142 0.85514 0.0
C203 C 0.38703 0.14274 0.89012 0.0
C204 C 0.39221 0.15283 0.9388 0.0
C205 C 0.40449 0.1919 0.95342 0.0
C206 C 0.41149 0.22066 0.91808 0.0
C207 C 0.4063 0.2105 0.8693 0.0
C208 C 0.46338 0.1888 0.66127 0.0
C209 C 0.47833 0.28609 0.72654 0.0
C210 C 0.45796 0.27776 0.54469 0.0
Eu211 Eu 0.43438 0.24561 0.62939 0.0
C212 C 0.4513 0.26605 0.49382 0.0
C213 C 0.45837 0.29478 0.45884 0.0
C214 C 0.4526 0.28459 0.41019 0.0
C215 C 0.43958 0.24535 0.39559 0.0
C216 C 0.43234 0.21653 0.43093 0.0
C217 C 0.43813 0.22679 0.47966 0.0
C218 C 0.38281 0.2522 0.68795 0.0
C219 C 0.36532 0.15182 0.62302 0.0
O220 O 0.36738 0.17108 0.77857 0.0
O221 O 0.41931 0.16391 0.78133 0.0
O222 O 0.43511 0.15794 0.68276 0.0
O223 O 0.46273 0.21964 0.67273 0.0
O224 O 0.44938 0.25493 0.74884 0.0
O225 O 0.48232 0.28738 0.67932 0.0
O226 O 0.47674 0.26418 0.57044 0.0
O227 O 0.42809 0.27662 0.56761 0.0
O228 O 0.41066 0.2818 0.66421 0.0
O229 O 0.38185 0.22022 0.67749 0.0
O230 O 0.39342 0.18348 0.60047 0.0
O231 O 0.36207 0.15015 0.67027 0.0
H232 H 0.37742 0.11242 0.87978 0.0
H233 H 0.38601 0.12983 0.96503 0.0
H234 H 0.4214 0.2511 0.92806 0.0
H235 H 0.41189 0.23307 0.84269 0.0
H236 H 0.46862 0.32525 0.46915 0.0
H237 H 0.45898 0.30762 0.38396 0.0
H238 H 0.42186 0.18596 0.42098 0.0
H239 H 0.43242 0.20416 0.50623 0.0
C240 C 0.36168 0.29392 0.73187 0.0
C241 C 0.35614 0.25613 0.72218 0.0
C242 C 0.33676 0.29847 0.76388 0.0
C243 C 0.3057 0.26527 0.78698 0.0
C244 C 0.30066 0.22751 0.77822 0.0
C245 C 0.3254 0.22288 0.74553 0.0
C246 C 0.27916 0.27018 0.82095 0.0
C247 C 0.26752 0.29684 0.81228 0.0
C248 C 0.24577 0.30795 0.84686 0.0
C249 C 0.22753 0.32861 0.82918 0.0
C250 C 0.21243 0.34564 0.86055 0.0
C251 C 0.21549 0.3427 0.91057 0.0
H252 H 0.26121 0.28772 0.91196 0.0
C253 C 0.23167 0.32006 0.92845 0.0
C254 C 0.24681 0.30289 0.89689 0.0
H255 H 0.23456 0.31731 0.96679 0.0
H256 H 0.38537 0.32012 0.71475 0.0
H257 H 0.3422 0.32814 0.77098 0.0
H258 H 0.27712 0.20156 0.79592 0.0
H259 H 0.32031 0.19337 0.7383 0.0
H260 H 0.26895 0.25146 0.85273 0.0
H261 H 0.27515 0.31228 0.77789 0.0
H262 H 0.22628 0.33295 0.79086 0.0
H263 H 0.19973 0.36245 0.8454 0.0
C264 C 0.08644 0.32719 0.06456 0.0
C265 C 0.09727 0.36682 0.05533 0.0
C266 C 0.0588 0.30575 0.10064 0.0
C267 C 0.04228 0.32401 0.12847 0.0
C268 C 0.05445 0.36408 0.12033 0.0
C269 C 0.08124 0.38515 0.08359 0.0
C270 C 0.01172 0.30203 0.16554 0.0
C271 C 0.98199 0.26457 0.15887 0.0
C272 C 0.94732 0.24603 0.19159 0.0
C273 C 0.90919 0.22373 0.17199 0.0
C274 C 0.87569 0.21006 0.20128 0.0
C275 C 0.8798 0.21765 0.25094 0.0
H276 H 0.98064 0.26852 0.25774 0.0
C277 C 0.91803 0.23782 0.27099 0.0
C278 C 0.95152 0.25211 0.24154 0.0
H279 H 0.92217 0.24405 0.30914 0.0
H280 H 0.09868 0.31261 0.04323 0.0
H281 H 0.05044 0.27504 0.10679 0.0
H282 H 0.04229 0.37881 0.14154 0.0
H283 H 0.08952 0.41584 0.07736 0.0
H284 H 0.01077 0.31881 0.19622 0.0
H285 H 0.98045 0.24929 0.12558 0.0
H286 H 0.90527 0.21845 0.13362 0.0
H287 H 0.8466 0.19429 0.18485 0.0
C288 C 0.76903 0.08746 0.40013 0.0
C289 C 0.73971 0.09722 0.38958 0.0
C290 C 0.76292 0.06039 0.43699 0.0
C291 C 0.72786 0.04371 0.46445 0.0
C292 C 0.69963 0.05517 0.45528 0.0
C293 C 0.70518 0.08118 0.41768 0.0
C294 C 0.71907 0.01341 0.50194 0.0
C295 C 0.72544 0.98284 0.49509 0.0
C296 C 0.70779 0.94783 0.52746 0.0
C297 C 0.69069 0.90971 0.50746 0.0
C298 C 0.66911 0.8761 0.53627 0.0
C299 C 0.66501 0.88005 0.58585 0.0
H300 H 0.71902 0.98085 0.59389 0.0
C301 C 0.68435 0.91818 0.60632 0.0
C302 C 0.70537 0.95178 0.57736 0.0
H303 H 0.68192 0.92226 0.64441 0.0
H304 H 0.79602 0.09983 0.37903 0.0
H305 H 0.78544 0.05247 0.44397 0.0
H306 H 0.67255 0.04289 0.47622 0.0
H307 H 0.68243 0.08877 0.4106 0.0
H308 H 0.70167 0.01305 0.53269 0.0
H309 H 0.7388 0.98086 0.46166 0.0
H310 H 0.69238 0.90595 0.46911 0.0
H311 H 0.65481 0.84712 0.51947 0.0
C312 C 0.67367 0.77005 0.74575 0.0
C313 C 0.63531 0.74009 0.73322 0.0
C314 C 0.69354 0.7643 0.78409 0.0
C315 C 0.67476 0.72895 0.81105 0.0
C316 C 0.6356 0.70014 0.80007 0.0
C317 C 0.61625 0.70536 0.76099 0.0
C318 C 0.69562 0.72027 0.84936 0.0
C319 C 0.73272 0.7269 0.84334 0.0
C320 C 0.74948 0.70888 0.87584 0.0
C321 C 0.77032 0.69159 0.85596 0.0
C322 C 0.78172 0.66959 0.8848 0.0
C323 C 0.77331 0.66536 0.93429 0.0
H324 H 0.72732 0.71999 0.94205 0.0
C325 C 0.75473 0.68489 0.95469 0.0
C326 C 0.74268 0.70626 0.92567 0.0
H327 H 0.74794 0.68227 0.99273 0.0
H328 H 0.6887 0.79722 0.72493 0.0
H329 H 0.72356 0.78723 0.79244 0.0
H330 H 0.62049 0.67281 0.8206 0.0
H331 H 0.5864 0.68213 0.75237 0.0
H332 H 0.67803 0.70253 0.87969 0.0
H333 H 0.74859 0.74057 0.81023 0.0
H334 H 0.77605 0.69342 0.81766 0.0
H335 H 0.79628 0.65515 0.86811 0.0
C336 C 0.10154 0.77097 0.23069 0.0
C337 C 0.10374 0.76244 0.2793 0.0
C338 C 0.06504 0.75338 0.20702 0.0
C339 C 0.03009 0.72654 0.23144 0.0
C340 C 0.03215 0.71898 0.28035 0.0
C341 C 0.06857 0.73716 0.30428 0.0
C342 C 0.99235 0.70242 0.20527 0.0
C343 C 0.98217 0.71565 0.16619 0.0
C344 C 0.94855 0.68871 0.13509 0.0
C345 C 0.92591 0.7027 0.11192 0.0
C346 C 0.89608 0.67843 0.07951 0.0
C347 C 0.88944 0.64035 0.06877 0.0
H348 H 0.95868 0.63887 0.14156 0.0
C349 C 0.91196 0.62632 0.09202 0.0
C350 C 0.94107 0.65015 0.12514 0.0
H351 H 0.90725 0.59698 0.08437 0.0
H352 H 0.12818 0.7903 0.21052 0.0
H353 H 0.06463 0.75916 0.169 0.0
H354 H 0.00566 0.69812 0.29975 0.0
H355 H 0.06935 0.7298 0.34168 0.0
H356 H 0.97287 0.67225 0.21783 0.0
H357 H -0.00068 0.74676 0.15603 0.0
H358 H 0.93147 0.73246 0.11871 0.0
H359 H 0.87904 0.68983 0.06185 0.0
C360 C 0.34297 0.11557 0.54471 0.0
C361 C 0.33818 0.11631 0.59468 0.0
C362 C 0.31978 0.08085 0.51859 0.0
C363 C 0.29092 0.0461 0.54188 0.0
C364 C 0.28541 0.04726 0.59157 0.0
C365 C 0.30865 0.08196 0.61769 0.0
C366 C 0.26906 0.00732 0.51672 0.0
C367 C 0.26503 0.00368 0.46861 0.0
C368 C 0.24995 0.96535 0.44281 0.0
C369 C 0.2389 0.96319 0.39436 0.0
C370 C 0.22979 0.92967 0.36687 0.0
C371 C 0.23183 0.89776 0.3873 0.0
H372 H 0.25957 0.93305 0.50045 0.0
C373 C 0.24115 0.89902 0.43622 0.0
C374 C 0.25033 0.93251 0.46369 0.0
H375 H 0.24297 0.87479 0.45285 0.0
H376 H 0.36553 0.14143 0.52584 0.0
H377 H 0.32593 0.08113 0.48065 0.0
H378 H 0.26365 0.02092 0.61051 0.0
H379 H 0.30408 0.08146 0.65614 0.0
H380 H 0.2566 0.98087 0.53903 0.0
H381 H 0.27406 0.02993 0.44667 0.0
H382 H 0.23853 0.98804 0.37727 0.0
H383 H 0.22258 0.92938 0.32921 0.0
C384 C 0.1995 0.46244 0.63231 0.0
C385 C 0.20145 0.43845 0.66888 0.0
C386 C 0.20338 0.45519 0.58391 0.0
C387 C 0.20976 0.42388 0.57069 0.0
C388 C 0.21216 0.40023 0.60732 0.0
C389 C 0.20817 0.40743 0.65573 0.0
C390 C 0.21199 0.41354 0.51945 0.0
C391 C 0.21857 0.43814 0.48184 0.0
C392 C 0.21894 0.42738 0.43033 0.0
C393 C 0.23443 0.4579 0.39579 0.0
C394 C 0.23372 0.44937 0.34684 0.0
C395 C 0.21736 0.40996 0.33097 0.0
H396 H 0.1894 0.36318 0.4393 0.0
C397 C 0.20213 0.37935 0.36545 0.0
C398 C 0.20272 0.38786 0.41447 0.0
H399 H 0.18864 0.3486 0.35446 0.0
H400 H 0.19472 0.48683 0.64102 0.0
H401 H 0.20032 0.47371 0.55726 0.0
H402 H 0.21669 0.37569 0.59845 0.0
H403 H 0.20925 0.38793 0.68274 0.0
H404 H 0.20877 0.3846 0.51302 0.0
H405 H 0.22486 0.46817 0.48866 0.0
H406 H 0.24698 0.4886 0.40665 0.0
H407 H 0.24609 0.47375 0.32139 0.0
C408 C 0.7821 0.18908 0.98182 0.0
C409 C 0.74951 0.19007 1.00203 0.0
C410 C 0.78841 0.19247 0.93201 0.0
C411 C 0.76213 0.19685 0.90114 0.0
C412 C 0.73015 0.19873 0.92157 0.0
C413 C 0.72381 0.19525 0.97124 0.0
C414 C 0.76729 0.20058 0.84782 0.0
C415 C 0.78861 0.18817 0.82249 0.0
C416 C 0.79366 0.19189 0.76918 0.0
C417 C 0.82613 0.19097 0.74869 0.0
C418 C 0.83228 0.19437 0.69899 0.0
C419 C 0.80586 0.19844 0.66824 0.0
H420 H 0.74061 0.19481 0.7523 0.0
C421 C 0.77281 0.19847 0.68852 0.0
C422 C 0.76672 0.19522 0.73838 0.0
H423 H 0.75189 0.20158 0.66591 0.0
H424 H 0.80248 0.1851 1.00445 0.0
H425 H 0.81415 0.1921 0.9182 0.0
H426 H 0.70968 0.2026 0.89894 0.0
H427 H 0.69884 0.19692 0.98556 0.0
H428 H 0.75225 0.21367 0.82892 0.0
H429 H 0.80374 0.17515 0.8413 0.0
H430 H 0.84711 0.18793 0.7713 0.0
H431 H 0.85765 0.19348 0.6846 0.0
C432 C 0.54934 0.73098 0.30234 0.0
C433 C 0.57261 0.75946 0.33707 0.0
C434 C 0.55488 0.74017 0.25327 0.0
C435 C 0.58373 0.77834 0.23756 0.0
C436 C 0.60687 0.80679 0.27232 0.0
C437 C 0.60133 0.79757 0.3214 0.0
C438 C 0.59178 0.78943 0.18562 0.0
C439 C 0.56646 0.76914 0.14951 0.0
C440 C 0.57461 0.78008 0.09753 0.0
C441 C 0.55143 0.75159 0.06283 0.0
C442 C 0.55729 0.76057 0.01371 0.0
C443 C 0.5864 0.79847 0.99792 0.0
H444 H 0.62175 0.84143 0.10678 0.0
C445 C 0.60962 0.82704 0.03259 0.0
C446 C 0.60376 0.81809 0.0817 0.0
H447 H 0.63254 0.85646 0.02179 0.0
H448 H 0.5267 0.70141 0.31306 0.0
H449 H 0.53695 0.71688 0.22812 0.0
H450 H 0.62954 0.83633 0.26149 0.0
H451 H 0.62019 0.8201 0.347 0.0
H452 H 0.61995 0.81564 0.17735 0.0
H453 H 0.53828 0.74294 0.1578 0.0
H454 H 0.52853 0.72217 0.07375 0.0
H455 H 0.53843 0.73799 0.98815 0.0
C456 C 0.80533 0.54856 0.65119 0.0
C457 C 0.80434 0.57448 0.68561 0.0
C458 C 0.80395 0.55541 0.60208 0.0
C459 C 0.80115 0.58827 0.58608 0.0
C460 C 0.8003 0.61422 0.6205 0.0
C461 C 0.80174 0.60738 0.66964 0.0
C462 C 0.80022 0.59732 0.53414 0.0
C463 C 0.79025 0.57041 0.49855 0.0
C464 C 0.78896 0.57939 0.44667 0.0
C465 C 0.78999 0.55364 0.41209 0.0
C466 C 0.78769 0.56015 0.36303 0.0
C467 C 0.78399 0.59249 0.34733 0.0
H468 H 0.78325 0.63185 0.45605 0.0
C469 C 0.78302 0.61832 0.38189 0.0
C470 C 0.78529 0.61181 0.43092 0.0
H471 H 0.78049 0.6437 0.37107 0.0
H472 H 0.80703 0.52274 0.66219 0.0
H473 H 0.80581 0.53517 0.57712 0.0
H474 H 0.79852 0.63997 0.60936 0.0
H475 H 0.80152 0.6283 0.69507 0.0
H476 H 0.80779 0.62748 0.52541 0.0
H477 H 0.78274 0.54026 0.50721 0.0
H478 H 0.79244 0.52823 0.42306 0.0
H479 H 0.78795 0.53933 0.33748 0.0
C480 C 0.17264 0.75846 0.71334 0.0
C481 C 0.19178 0.79023 0.68075 0.0
C482 C 0.18086 0.76415 0.76258 0.0
C483 C 0.20873 0.80184 0.7805 0.0
C484 C 0.22763 0.83358 0.7479 0.0
C485 C 0.21942 0.82787 0.69867 0.0
C486 C 0.21813 0.80976 0.83272 0.0
C487 C 0.21085 0.78138 0.86571 0.0
C488 C 0.22039 0.78942 0.91789 0.0
C489 C 0.2012 0.75789 0.95071 0.0
C490 C 0.20962 0.76375 0.99989 0.0
C491 C 0.23777 0.80131 0.01751 0.0
H492 H 0.26517 0.85197 0.91165 0.0
C493 C 0.25719 0.83285 0.98468 0.0
C494 C 0.24876 0.82702 0.9355 0.0
H495 H 0.27888 0.86225 0.99701 0.0
H496 H 0.15136 0.729 0.70078 0.0
H497 H 0.1647 0.73899 0.78622 0.0
H498 H 0.24892 0.86303 0.76055 0.0
H499 H 0.23427 0.85315 0.67475 0.0
H500 H 0.23194 0.84053 0.84393 0.0
H501 H 0.19697 0.7506 0.85459 0.0
H502 H 0.17952 0.72851 0.93827 0.0
H503 H 0.19453 0.73864 0.02401 0.0
C504 C 0.41713 0.25086 0.31263 0.0
C505 C 0.43409 0.23487 0.34364 0.0
C506 C 0.41311 0.2421 0.26352 0.0
C507 C 0.42623 0.21726 0.24414 0.0
C508 C 0.44232 0.20059 0.27535 0.0
C509 C 0.44635 0.20936 0.32446 0.0
C510 C 0.42288 0.20725 0.19204 0.0
C511 C 0.4201 0.22977 0.157 0.0
C512 C 0.41691 0.21977 0.10491 0.0
C513 C 0.40048 0.23605 0.07361 0.0
C514 C 0.39672 0.22733 0.02449 0.0
C515 C 0.4096 0.20229 1.0054 0.0
H516 H 0.44491 0.18346 0.10795 0.0
C517 C 0.42689 0.18671 0.03651 0.0
C518 C 0.43063 0.19541 0.08562 0.0
H519 H 0.43799 0.16809 0.0228 0.0
H520 H 0.40652 0.26987 0.32642 0.0
H521 H 0.39913 0.25439 0.24128 0.0
H522 H 0.45239 0.18111 0.26158 0.0
H523 H 0.45981 0.19676 0.34722 0.0
H524 H 0.42335 0.18046 0.18258 0.0
H525 H 0.41958 0.25654 0.1664 0.0
H526 H 0.38997 0.25518 0.08732 0.0
H527 H 0.383 0.23961 1.00163 0.0
C528 C 0.20818 0.51753 0.13129 0.0
C529 C 0.20307 0.51763 0.08126 0.0
C530 C 0.20875 0.5471 0.16012 0.0
C531 C 0.20461 0.57787 0.13956 0.0
C532 C 0.19963 0.57809 0.08956 0.0
C533 C 0.19907 0.54843 0.06064 0.0
C534 C 0.20309 0.60881 0.16929 0.0
C535 C 0.21918 0.61922 0.21358 0.0
C536 C 0.21559 0.64819 0.24499 0.0
C537 C 0.22212 0.64757 0.29462 0.0
C538 C 0.21823 0.67357 0.32578 0.0
C539 C 0.20792 0.70086 0.30783 0.0
H540 H 0.20203 0.67884 0.18902 0.0
C541 C 0.20204 0.70208 0.2582 0.0
C542 C 0.20605 0.67624 0.22702 0.0
H543 H 0.19428 0.72304 0.24335 0.0
H544 H 0.21134 0.49433 0.14853 0.0
H545 H 0.21133 0.54489 0.19855 0.0
H546 H 0.19601 0.60122 0.07279 0.0
H547 H 0.19493 0.5494 0.02227 0.0
H548 H 0.18769 0.62291 0.15383 0.0
H549 H 0.23489 0.60522 0.22849 0.0
H550 H 0.2298 0.62655 0.30947 0.0
H551 H 0.22313 0.67218 0.36389 0.0
C552 C 0.68311 0.18728 0.46872 0.0
C553 C 0.67816 0.18041 0.41894 0.0
C554 C 0.65166 0.18288 0.49722 0.0
C555 C 0.61447 0.17129 0.47659 0.0
C556 C 0.60913 0.16324 0.42717 0.0
C557 C 0.64077 0.16813 0.39848 0.0
C558 C 0.58091 0.16733 0.50598 0.0
C559 C 0.58649 0.19198 0.54277 0.0
C560 C 0.55361 0.19009 0.57161 0.0
C561 C 0.55825 0.22535 0.59114 0.0
C562 C 0.52856 0.22481 0.61967 0.0
C563 C 0.49395 0.18883 0.63013 0.0
H564 H 0.51469 0.12617 0.56798 0.0
C565 C 0.48924 0.15338 0.611 0.0
C566 C 0.51877 0.15399 0.58169 0.0
H567 H 0.46279 0.12527 0.61866 0.0
H568 H 0.71141 0.19645 0.48574 0.0
H569 H 0.65645 0.18825 0.53547 0.0
H570 H 0.58064 0.1539 0.41056 0.0
H571 H 0.63586 0.16216 0.36033 0.0
H572 H 0.55098 0.14564 0.49496 0.0
H573 H 0.61622 0.21628 0.55027 0.0
H574 H 0.58491 0.25347 0.58414 0.0
H575 H 0.533 0.25258 0.63415 0.0
C576 C 0.29502 0.50181 0.92118 0.0
C577 C 0.30321 0.49265 0.96697 0.0
C578 C 0.32541 0.53035 0.8925 0.0
C579 C 0.36493 0.55004 0.90891 0.0
C580 C 0.37301 0.5406 0.95479 0.0
C581 C 0.3425 0.51205 0.98346 0.0
C582 C 0.39818 0.58168 0.88043 0.0
C583 C 0.39666 0.58652 0.83257 0.0
C584 C 0.42927 0.61923 0.8045 0.0
C585 C 0.42983 0.61553 0.75431 0.0
C586 C 0.45907 0.64609 0.72635 0.0
C587 C 0.48838 0.68123 0.74799 0.0
H588 H 0.45866 0.65939 0.86438 0.0
C589 C 0.48783 0.685 0.79821 0.0
C590 C 0.45855 0.65453 0.82612 0.0
H591 H 0.50977 0.71176 0.81614 0.0
H592 H 0.26512 0.4867 0.90738 0.0
H593 H 0.31744 0.53719 0.85803 0.0
H594 H 0.40306 0.55541 0.96858 0.0
H595 H 0.34961 0.50542 0.01867 0.0
H596 H 0.42527 0.60094 0.89987 0.0
H597 H 0.37095 0.56514 0.8124 0.0
H598 H 0.40748 0.58888 0.73658 0.0
H599 H 0.45854 0.64219 0.68777 0.0
C600 C 0.77615 0.29672 0.27548 0.0
C601 C 0.81109 0.30046 0.29498 0.0
C602 C 0.7772 0.32775 0.24896 0.0
C603 C 0.81328 0.3633 0.24171 0.0
C604 C 0.84809 0.36722 0.26189 0.0
C605 C 0.84709 0.33596 0.28794 0.0
C606 C 0.81516 0.39716 0.21478 0.0
C607 C 0.79076 0.3921 0.17784 0.0
C608 C 0.79245 0.42562 0.15037 0.0
C609 C 0.78131 0.41993 0.10182 0.0
C610 C 0.78155 0.45041 0.07503 0.0
C611 C 0.79215 0.48705 0.09655 0.0
H612 H 0.81101 0.46735 0.20971 0.0
C613 C 0.8029 0.49269 0.14536 0.0
C614 C 0.80322 0.46232 0.172 0.0
H615 H 0.81111 0.52055 0.163 0.0
H616 H 0.74786 0.27001 0.28123 0.0
H617 H 0.7496 0.32415 0.2352 0.0
H618 H 0.87618 0.39442 0.25718 0.0
H619 H 0.87445 0.33971 0.30285 0.0
H620 H 0.83861 0.42687 0.22407 0.0
H621 H 0.77008 0.36225 0.16544 0.0
H622 H 0.77256 0.39182 0.08445 0.0
H623 H 0.77281 0.44499 0.03761 0.0
C624 C 0.35249 0.8173 0.39867 0.0
C625 C 0.32482 0.82551 0.42032 0.0
C626 C 0.3863 0.82372 0.42395 0.0
C627 C 0.39316 0.83902 0.471 0.0
C628 C 0.36649 0.84905 0.4915 0.0
C629 C 0.33243 0.84192 0.46671 0.0
C630 C 0.42696 0.8437 0.50045 0.0
C631 C 0.43982 0.81744 0.49897 0.0
C632 C 0.46797 0.81741 0.53488 0.0
C633 C 0.46358 0.78092 0.54953 0.0
C634 C 0.48771 0.77938 0.58557 0.0
C635 C 0.51741 0.81441 0.60684 0.0
H636 H 0.5029 0.88132 0.54438 0.0
C637 C 0.52268 0.85109 0.59132 0.0
C638 C 0.49813 0.85262 0.55567 0.0
H639 H 0.54563 0.87856 0.60687 0.0
H640 H 0.34739 0.80476 0.36288 0.0
H641 H 0.40685 0.81652 0.40681 0.0
H642 H 0.37128 0.86114 0.52753 0.0
H643 H 0.31185 0.84898 0.48412 0.0
H644 H 0.43793 0.86628 0.52829 0.0
H645 H 0.42579 0.7924 0.47448 0.0
H646 H 0.44059 0.75339 0.5341 0.0
H647 H 0.48263 0.75068 0.59732 0.0
C648 C 0.68722 0.48317 0.95012 0.0
C649 C 0.68442 0.51457 0.97066 0.0
C650 C 0.6574 0.45609 0.91985 0.0
C651 C 0.62394 0.45969 0.90991 0.0
C652 C 0.62074 0.4906 0.93127 0.0
C653 C 0.65093 0.51809 0.96106 0.0
C654 C 0.59133 0.43042 0.87918 0.0
C655 C 0.59801 0.41307 0.84136 0.0
C656 C 0.56581 0.382 0.81182 0.0
C657 C 0.57344 0.37795 0.76353 0.0
C658 C 0.54461 0.34741 0.73544 0.0
C659 C 0.50782 0.31978 0.75547 0.0
H660 H 0.52224 0.35645 0.8692 0.0
C661 C 0.50009 0.32388 0.80383 0.0
C662 C 0.52874 0.35478 0.83173 0.0
H663 H 0.47203 0.30303 0.8203 0.0
H664 H 0.71225 0.47919 0.95786 0.0
H665 H 0.66017 0.43182 0.90525 0.0
H666 H 0.59501 0.49368 0.92456 0.0
H667 H 0.64797 0.54193 0.97675 0.0
H668 H 0.56138 0.42405 0.88704 0.0
H669 H 0.62835 0.42264 0.83072 0.0
H670 H 0.60191 0.39834 0.74753 0.0
H671 H 0.55159 0.3449 0.69838 0.0
loop_
_geom_bond_atom_site_label_1
_geom_bond_atom_site_label_2
_geom_bond_distance
_geom_bond_site_symmetry_2
_ccdc_geom_bond_type
C0 Eu1 2.835 . S
C0 C2 1.500 . S
C0 O20 1.257 . S
C0 O21 1.260 . S
Eu1 C0 2.835 . S
Eu1 O20 2.473 . S
Eu1 O21 2.480 . S
Eu1 O22 2.430 . S
Eu1 O23 2.670 1_554 S
Eu1 O24 2.394 . S
Eu1 O29 2.355 . S
Eu1 O31 2.374 1_554 S
C2 C0 1.500 . S
C2 C3 1.377 . S
C2 C7 1.377 . S
C3 C2 1.377 . S
C3 C4 1.395 . S
C3 H32 0.931 . S
C4 C3 1.395 . S
C4 C5 1.383 . S
C4 H33 0.931 . S
C5 C4 1.383 . S
C5 C6 1.394 . S
C6 C5 1.394 . S
C6 C7 1.378 . S
C6 H34 0.931 . S
C7 C2 1.377 . S
C7 C6 1.378 . S
C7 H35 0.931 . S
C8 O22 1.259 1_556 S
C8 O23 1.270 . S
C9 O24 1.251 . S
C9 O25 1.251 . S
C10 Eu11 2.835 . S
C10 C12 1.500 . S
C10 O26 1.257 . S
C10 O27 1.260 . S
Eu11 C10 2.835 . S
Eu11 O23 2.355 . S
Eu11 O25 2.374 1_556 S
Eu11 O26 2.473 . S
Eu11 O27 2.480 . S
Eu11 O28 2.430 . S
Eu11 O29 2.670 1_556 S
Eu11 O30 2.394 . S
C12 C10 1.500 . S
C12 C13 1.377 . S
C12 C17 1.377 . S
C13 C12 1.377 . S
C13 C14 1.395 . S
C13 H36 0.931 . S
C14 C13 1.395 . S
C14 C15 1.383 . S
C14 H37 0.931 . S
C15 C14 1.383 . S
C15 C16 1.394 . S
C16 C15 1.394 . S
C16 C17 1.378 . S
C16 H38 0.931 . S
C17 C12 1.377 . S
C17 C16 1.378 . S
C17 H39 0.931 . S
C18 O28 1.259 1_554 S
C18 O29 1.270 . S
C19 O30 1.251 . S
C19 O31 1.251 . S
O20 C0 1.257 . S
O20 Eu1 2.473 . S
O21 C0 1.260 . S
O21 Eu1 2.480 . S
O22 Eu1 2.430 . S
O22 C8 1.259 1_554 S
O23 Eu1 2.670 1_556 S
O23 C8 1.270 . S
O23 Eu11 2.355 . S
O24 Eu1 2.394 . S
O24 C9 1.251 . S
O25 C9 1.251 . S
O25 Eu11 2.374 1_554 S
O26 C10 1.257 . S
O26 Eu11 2.473 . S
O27 C10 1.260 . S
O27 Eu11 2.480 . S
O28 Eu11 2.430 . S
O28 C18 1.259 1_556 S
O29 Eu1 2.355 . S
O29 Eu11 2.670 1_554 S
O29 C18 1.270 . S
O30 Eu11 2.394 . S
O30 C19 1.251 . S
O31 Eu1 2.374 1_556 S
O31 C19 1.251 . S
H32 C3 0.931 . S
H33 C4 0.931 . S
H34 C6 0.931 . S
H35 C7 0.931 . S
H36 C13 0.931 . S
H37 C14 0.931 . S
H38 C16 0.931 . S
H39 C17 0.931 . S
C40 Eu41 2.835 . S
C40 C42 1.500 . S
C40 O60 1.257 . S
C40 O61 1.260 . S
Eu41 C40 2.835 . S
Eu41 O60 2.473 . S
Eu41 O61 2.480 . S
Eu41 O62 2.430 . S
Eu41 O63 2.670 . S
Eu41 O64 2.394 . S
Eu41 O69 2.355 . S
Eu41 O71 2.374 . S
C42 C40 1.500 . S
C42 C43 1.377 . S
C42 C47 1.377 . S
C43 C42 1.377 . S
C43 C44 1.395 . S
C43 H72 0.931 . S
C44 C43 1.395 . S
C44 C45 1.383 . S
C44 H73 0.931 . S
C45 C44 1.383 . S
C45 C46 1.394 . S
C46 C45 1.394 . S
C46 C47 1.378 . S
C46 H74 0.931 . S
C47 C42 1.377 . S
C47 C46 1.378 . S
C47 H75 0.931 . S
C48 O62 1.259 . S
C48 O63 1.270 . S
C49 O64 1.251 . S
C49 O65 1.251 . S
C50 Eu51 2.835 . S
C50 C52 1.500 . S
C50 O66 1.257 . S
C50 O67 1.260 . S
Eu51 C50 2.835 . S
Eu51 O63 2.355 . S
Eu51 O65 2.374 . S
Eu51 O66 2.473 . S
Eu51 O67 2.480 . S
Eu51 O68 2.430 . S
Eu51 O69 2.670 . S
Eu51 O70 2.394 . S
C52 C50 1.500 . S
C52 C53 1.377 . S
C52 C57 1.377 . S
C53 C52 1.377 . S
C53 C54 1.395 . S
C53 H76 0.931 . S
C54 C53 1.395 . S
C54 C55 1.383 . S
C54 H77 0.931 . S
C55 C54 1.383 . S
C55 C56 1.394 . S
C56 C55 1.394 . S
C56 C57 1.378 . S
C56 H78 0.931 . S
C57 C52 1.377 . S
C57 C56 1.378 . S
C57 H79 0.931 . S
C58 O68 1.259 . S
C58 O69 1.270 . S
C59 O70 1.251 . S
C59 O71 1.251 . S
O60 C40 1.257 . S
O60 Eu41 2.473 . S
O61 C40 1.260 . S
O61 Eu41 2.480 . S
O62 Eu41 2.430 . S
O62 C48 1.259 . S
O63 Eu41 2.670 . S
O63 C48 1.270 . S
O63 Eu51 2.355 . S
O64 Eu41 2.394 . S
O64 C49 1.251 . S
O65 C49 1.251 . S
O65 Eu51 2.374 . S
O66 C50 1.257 . S
O66 Eu51 2.473 . S
O67 C50 1.260 . S
O67 Eu51 2.480 . S
O68 Eu51 2.430 . S
O68 C58 1.259 . S
O69 Eu41 2.355 . S
O69 Eu51 2.670 . S
O69 C58 1.270 . S
O70 Eu51 2.394 . S
O70 C59 1.251 . S
O71 Eu41 2.374 . S
O71 C59 1.251 . S
H72 C43 0.931 . S
H73 C44 0.931 . S
H74 C46 0.931 . S
H75 C47 0.931 . S
H76 C53 0.931 . S
H77 C54 0.931 . S
H78 C56 0.931 . S
H79 C57 0.931 . S
C80 Eu81 2.835 . S
C80 C82 1.500 . S
C80 O100 1.257 . S
C80 O101 1.260 . S
Eu81 C80 2.835 . S
Eu81 O100 2.473 . S
Eu81 O101 2.480 . S
Eu81 O102 2.430 . S
Eu81 O103 2.670 . S
Eu81 O104 2.394 . S
Eu81 O109 2.355 . S
Eu81 O111 2.374 . S
C82 C80 1.500 . S
C82 C83 1.377 . S
C82 C87 1.377 . S
C83 C82 1.377 . S
C83 C84 1.395 . S
C83 H112 0.931 . S
C84 C83 1.395 . S
C84 C85 1.383 . S
C84 H113 0.931 . S
C85 C84 1.383 . S
C85 C86 1.394 . S
C86 C85 1.394 . S
C86 C87 1.378 . S
C86 H114 0.931 . S
C87 C82 1.377 . S
C87 C86 1.378 . S
C87 H115 0.931 . S
C88 O102 1.259 . S
C88 O103 1.270 . S
C89 O104 1.251 . S
C89 O105 1.251 . S
C90 Eu91 2.835 . S
C90 C92 1.500 . S
C90 O106 1.257 . S
C90 O107 1.260 . S
Eu91 C90 2.835 . S
Eu91 O103 2.355 . S
Eu91 O105 2.374 . S
Eu91 O106 2.473 . S
Eu91 O107 2.480 . S
Eu91 O108 2.430 . S
Eu91 O109 2.670 . S
Eu91 O110 2.394 . S
C92 C90 1.500 . S
C92 C93 1.377 . S
C92 C97 1.377 . S
C93 C92 1.377 . S
C93 C94 1.395 . S
C93 H116 0.931 . S
C94 C93 1.395 . S
C94 C95 1.383 . S
C94 H117 0.931 . S
C95 C94 1.383 . S
C95 C96 1.394 . S
C96 C95 1.394 . S
C96 C97 1.378 . S
C96 H118 0.931 . S
C97 C92 1.377 . S
C97 C96 1.378 . S
C97 H119 0.931 . S
C98 O108 1.259 . S
C98 O109 1.270 . S
C99 O110 1.251 . S
C99 O111 1.251 . S
O100 C80 1.257 . S
O100 Eu81 2.473 . S
O101 C80 1.260 . S
O101 Eu81 2.480 . S
O102 Eu81 2.430 . S
O102 C88 1.259 . S
O103 Eu81 2.670 . S
O103 C88 1.270 . S
O103 Eu91 2.355 . S
O104 Eu81 2.394 . S
O104 C89 1.251 . S
O105 C89 1.251 . S
O105 Eu91 2.374 . S
O106 C90 1.257 . S
O106 Eu91 2.473 . S
O107 C90 1.260 . S
O107 Eu91 2.480 . S
O108 Eu91 2.430 . S
O108 C98 1.259 . S
O109 Eu81 2.355 . S
O109 Eu91 2.670 . S
O109 C98 1.270 . S
O110 Eu91 2.394 . S
O110 C99 1.251 . S
O111 Eu81 2.374 . S
O111 C99 1.251 . S
H112 C83 0.931 . S
H113 C84 0.931 . S
H114 C86 0.931 . S
H115 C87 0.931 . S
H116 C93 0.931 . S
H117 C94 0.931 . S
H118 C96 0.931 . S
H119 C97 0.931 . S
C120 Eu121 2.835 . S
C120 C122 1.500 . S
C120 O140 1.257 . S
C120 O141 1.260 . S
Eu121 C120 2.835 . S
Eu121 O140 2.473 . S
Eu121 O141 2.480 . S
Eu121 O142 2.430 . S
Eu121 O143 2.670 1_554 S
Eu121 O144 2.394 . S
Eu121 O149 2.355 . S
Eu121 O151 2.374 1_554 S
C122 C120 1.500 . S
C122 C123 1.377 . S
C122 C127 1.377 . S
C123 C122 1.377 . S
C123 C124 1.395 . S
C123 H152 0.931 . S
C124 C123 1.395 . S
C124 C125 1.383 . S
C124 H153 0.931 . S
C125 C124 1.383 . S
C125 C126 1.394 . S
C126 C125 1.394 . S
C126 C127 1.378 . S
C126 H154 0.931 . S
C127 C122 1.377 . S
C127 C126 1.378 . S
C127 H155 0.931 . S
C128 O142 1.259 1_556 S
C128 O143 1.270 . S
C129 O144 1.251 . S
C129 O145 1.251 . S
C130 Eu131 2.835 . S
C130 C132 1.500 . S
C130 O146 1.257 . S
C130 O147 1.260 . S
Eu131 C130 2.835 . S
Eu131 O143 2.355 . S
Eu131 O145 2.374 1_556 S
Eu131 O146 2.473 . S
Eu131 O147 2.480 . S
Eu131 O148 2.430 . S
Eu131 O149 2.670 1_556 S
Eu131 O150 2.394 . S
C132 C130 1.500 . S
C132 C133 1.377 . S
C132 C137 1.377 . S
C133 C132 1.377 . S
C133 C134 1.395 . S
C133 H156 0.931 . S
C134 C133 1.395 . S
C134 C135 1.383 . S
C134 H157 0.931 . S
C135 C134 1.383 . S
C135 C136 1.394 . S
C136 C135 1.394 . S
C136 C137 1.378 . S
C136 H158 0.931 . S
C137 C132 1.377 . S
C137 C136 1.378 . S
C137 H159 0.931 . S
C138 O148 1.259 1_554 S
C138 O149 1.270 . S
C139 O150 1.251 . S
C139 O151 1.251 . S
O140 C120 1.257 . S
O140 Eu121 2.473 . S
O141 C120 1.260 . S
O141 Eu121 2.480 . S
O142 Eu121 2.430 . S
O142 C128 1.259 1_554 S
O143 Eu121 2.670 1_556 S
O143 C128 1.270 . S
O143 Eu131 2.355 . S
O144 Eu121 2.394 . S
O144 C129 1.251 . S
O145 C129 1.251 . S
O145 Eu131 2.374 1_554 S
O146 C130 1.257 . S
O146 Eu131 2.473 . S
O147 C130 1.260 . S
O147 Eu131 2.480 . S
O148 Eu131 2.430 . S
O148 C138 1.259 1_556 S
O149 Eu121 2.355 . S
O149 Eu131 2.670 1_554 S
O149 C138 1.270 . S
O150 Eu131 2.394 . S
O150 C139 1.251 . S
O151 Eu121 2.374 1_556 S
O151 C139 1.251 . S
H152 C123 0.931 . S
H153 C124 0.931 . S
H154 C126 0.931 . S
H155 C127 0.931 . S
H156 C133 0.931 . S
H157 C134 0.931 . S
H158 C136 0.931 . S
H159 C137 0.931 . S
C160 Eu161 2.835 . S
C160 C162 1.500 . S
C160 O180 1.257 . S
C160 O181 1.260 . S
Eu161 C160 2.835 . S
Eu161 O180 2.473 . S
Eu161 O181 2.480 . S
Eu161 O182 2.430 . S
Eu161 O183 2.670 . S
Eu161 O184 2.394 . S
Eu161 O189 2.355 . S
Eu161 O191 2.374 . S
C162 C160 1.500 . S
C162 C163 1.377 . S
C162 C167 1.377 . S
C163 C162 1.377 . S
C163 C164 1.395 . S
C163 H192 0.931 . S
C164 C163 1.395 . S
C164 C165 1.383 . S
C164 H193 0.931 . S
C165 C164 1.383 . S
C165 C166 1.394 . S
C166 C165 1.394 . S
C166 C167 1.378 . S
C166 H194 0.931 . S
C167 C162 1.377 . S
C167 C166 1.378 . S
C167 H195 0.931 . S
C168 O182 1.259 . S
C168 O183 1.270 . S
C169 O184 1.251 . S
C169 O185 1.251 . S
C170 Eu171 2.835 . S
C170 C172 1.500 . S
C170 O186 1.257 . S
C170 O187 1.260 . S
Eu171 C170 2.835 . S
Eu171 O183 2.355 . S
Eu171 O185 2.374 . S
Eu171 O186 2.473 . S
Eu171 O187 2.480 . S
Eu171 O188 2.430 . S
Eu171 O189 2.670 . S
Eu171 O190 2.394 . S
C172 C170 1.500 . S
C172 C173 1.377 . S
C172 C177 1.377 . S
C173 C172 1.377 . S
C173 C174 1.395 . S
C173 H196 0.931 . S
C174 C173 1.395 . S
C174 C175 1.383 . S
C174 H197 0.931 . S
C175 C174 1.383 . S
C175 C176 1.394 . S
C176 C175 1.394 . S
C176 C177 1.378 . S
C176 H198 0.931 . S
C177 C172 1.377 . S
C177 C176 1.378 . S
C177 H199 0.931 . S
C178 O188 1.259 . S
C178 O189 1.270 . S
C179 O190 1.251 . S
C179 O191 1.251 . S
O180 C160 1.257 . S
O180 Eu161 2.473 . S
O181 C160 1.260 . S
O181 Eu161 2.480 . S
O182 Eu161 2.430 . S
O182 C168 1.259 . S
O183 Eu161 2.670 . S
O183 C168 1.270 . S
O183 Eu171 2.355 . S
O184 Eu161 2.394 . S
O184 C169 1.251 . S
O185 C169 1.251 . S
O185 Eu171 2.374 . S
O186 C170 1.257 . S
O186 Eu171 2.473 . S
O187 C170 1.260 . S
O187 Eu171 2.480 . S
O188 Eu171 2.430 . S
O188 C178 1.259 . S
O189 Eu161 2.355 . S
O189 Eu171 2.670 . S
O189 C178 1.270 . S
O190 Eu171 2.394 . S
O190 C179 1.251 . S
O191 Eu161 2.374 . S
O191 C179 1.251 . S
H192 C163 0.931 . S
H193 C164 0.931 . S
H194 C166 0.931 . S
H195 C167 0.931 . S
H196 C173 0.931 . S
H197 C174 0.931 . S
H198 C176 0.931 . S
H199 C177 0.931 . S
C200 Eu201 2.835 . S
C200 C202 1.500 . S
C200 O220 1.257 . S
C200 O221 1.260 . S
Eu201 C200 2.835 . S
Eu201 O220 2.473 . S
Eu201 O221 2.480 . S
Eu201 O222 2.430 . S
Eu201 O223 2.670 . S
Eu201 O224 2.394 . S
Eu201 O229 2.355 . S
Eu201 O231 2.374 . S
C202 C200 1.500 . S
C202 C203 1.377 . S
C202 C207 1.377 . S
C203 C202 1.377 . S
C203 C204 1.395 . S
C203 H232 0.931 . S
C204 C203 1.395 . S
C204 C205 1.383 . S
C204 H233 0.931 . S
C205 C204 1.383 . S
C205 C206 1.394 . S
C206 C205 1.394 . S
C206 C207 1.378 . S
C206 H234 0.931 . S
C207 C202 1.377 . S
C207 C206 1.378 . S
C207 H235 0.931 . S
C208 O222 1.259 . S
C208 O223 1.270 . S
C209 O224 1.251 . S
C209 O225 1.251 . S
C210 Eu211 2.835 . S
C210 C212 1.500 . S
C210 O226 1.257 . S
C210 O227 1.260 . S
Eu211 C210 2.835 . S
Eu211 O223 2.355 . S
Eu211 O225 2.374 . S
Eu211 O226 2.473 . S
Eu211 O227 2.480 . S
Eu211 O228 2.430 . S
Eu211 O229 2.670 . S
Eu211 O230 2.394 . S
C212 C210 1.500 . S
C212 C213 1.377 . S
C212 C217 1.377 . S
C213 C212 1.377 . S
C213 C214 1.395 . S
C213 H236 0.931 . S
C214 C213 1.395 . S
C214 C215 1.383 . S
C214 H237 0.931 . S
C215 C214 1.383 . S
C215 C216 1.394 . S
C216 C215 1.394 . S
C216 C217 1.378 . S
C216 H238 0.931 . S
C217 C212 1.377 . S
C217 C216 1.378 . S
C217 H239 0.931 . S
C218 O228 1.259 . S
C218 O229 1.270 . S
C219 O230 1.251 . S
C219 O231 1.251 . S
O220 C200 1.257 . S
O220 Eu201 2.473 . S
O221 C200 1.260 . S
O221 Eu201 2.480 . S
O222 Eu201 2.430 . S
O222 C208 1.259 . S
O223 Eu201 2.670 . S
O223 C208 1.270 . S
O223 Eu211 2.355 . S
O224 Eu201 2.394 . S
O224 C209 1.251 . S
O225 C209 1.251 . S
O225 Eu211 2.374 . S
O226 C210 1.257 . S
O226 Eu211 2.473 . S
O227 C210 1.260 . S
O227 Eu211 2.480 . S
O228 Eu211 2.430 . S
O228 C218 1.259 . S
O229 Eu201 2.355 . S
O229 Eu211 2.670 . S
O229 C218 1.270 . S
O230 Eu211 2.394 . S
O230 C219 1.251 . S
O231 Eu201 2.374 . S
O231 C219 1.251 . S
H232 C203 0.931 . S
H233 C204 0.931 . S
H234 C206 0.931 . S
H235 C207 0.931 . S
H236 C213 0.931 . S
H237 C214 0.931 . S
H238 C216 0.931 . S
H239 C217 0.931 . S
C240 C241 1.386 . S
C240 C242 1.383 . S
C240 H256 0.951 . S
C241 C240 1.386 . S
C241 C245 1.383 . S
C242 C240 1.383 . S
C242 C243 1.402 . S
C242 H257 0.951 . S
C243 C242 1.402 . S
C243 C244 1.375 . S
C243 C246 1.481 . S
C244 C243 1.375 . S
C244 C245 1.367 . S
C244 H258 0.951 . S
C245 C241 1.383 . S
C245 C244 1.367 . S
C245 H259 0.950 . S
C246 C243 1.481 . S
C246 C247 1.297 . S
C246 H260 0.950 . S
C247 C246 1.297 . S
C247 C248 1.479 . S
C247 H261 0.950 . S
C248 C247 1.479 . S
C248 C249 1.375 . S
C248 C254 1.404 . S
C249 C248 1.375 . S
C249 C250 1.369 . S
C249 H262 0.950 . S
C250 C249 1.369 . S
C250 C251 1.392 . S
C250 H263 0.951 . S
C251 C250 1.392 . S
C251 C253 1.384 . S
H252 C254 0.949 . S
C253 C251 1.384 . S
C253 C254 1.385 . S
C253 H255 0.950 . S
C254 C248 1.404 . S
C254 H252 0.949 . S
C254 C253 1.385 . S
H255 C253 0.950 . S
H256 C240 0.951 . S
H257 C242 0.951 . S
H258 C244 0.951 . S
H259 C245 0.950 . S
H260 C246 0.950 . S
H261 C247 0.950 . S
H262 C249 0.950 . S
H263 C250 0.951 . S
C264 C265 1.386 . S
C264 C266 1.383 . S
C264 H280 0.951 . S
C265 C264 1.386 . S
C265 C269 1.383 . S
C266 C264 1.383 . S
C266 C267 1.402 . S
C266 H281 0.951 . S
C267 C266 1.402 . S
C267 C268 1.375 . S
C267 C270 1.481 . S
C268 C267 1.375 . S
C268 C269 1.367 . S
C268 H282 0.951 . S
C269 C265 1.383 . S
C269 C268 1.367 . S
C269 H283 0.950 . S
C270 C267 1.481 . S
C270 C271 1.297 1_455 S
C270 H284 0.950 . S
C271 C270 1.297 1_655 S
C271 C272 1.479 . S
C271 H285 0.950 . S
C272 C271 1.479 . S
C272 C273 1.375 . S
C272 C278 1.404 . S
C273 C272 1.375 . S
C273 C274 1.369 . S
C273 H286 0.950 . S
C274 C273 1.369 . S
C274 C275 1.392 . S
C274 H287 0.951 . S
C275 C274 1.392 . S
C275 C277 1.384 . S
H276 C278 0.949 . S
C277 C275 1.384 . S
C277 C278 1.385 . S
C277 H279 0.950 . S
C278 C272 1.404 . S
C278 H276 0.949 . S
C278 C277 1.385 . S
H279 C277 0.950 . S
H280 C264 0.951 . S
H281 C266 0.951 . S
H282 C268 0.951 . S
H283 C269 0.950 . S
H284 C270 0.950 . S
H285 C271 0.950 . S
H286 C273 0.950 . S
H287 C274 0.951 . S
C288 C289 1.386 . S
C288 C290 1.383 . S
C288 H304 0.951 . S
C289 C288 1.386 . S
C289 C293 1.383 . S
C290 C288 1.383 . S
C290 C291 1.402 . S
C290 H305 0.951 . S
C291 C290 1.402 . S
C291 C292 1.375 . S
C291 C294 1.481 . S
C292 C291 1.375 . S
C292 C293 1.367 . S
C292 H306 0.951 . S
C293 C289 1.383 . S
C293 C292 1.367 . S
C293 H307 0.950 . S
C294 C291 1.481 . S
C294 C295 1.297 1_545 S
C294 H308 0.950 . S
C295 C294 1.297 1_565 S
C295 C296 1.479 . S
C295 H309 0.950 . S
C296 C295 1.479 . S
C296 C297 1.375 . S
C296 C302 1.404 . S
C297 C296 1.375 . S
C297 C298 1.369 . S
C297 H310 0.950 . S
C298 C297 1.369 . S
C298 C299 1.392 . S
C298 H311 0.951 . S
C299 C298 1.392 . S
C299 C301 1.384 . S
H300 C302 0.949 . S
C301 C299 1.384 . S
C301 C302 1.385 . S
C301 H303 0.950 . S
C302 C296 1.404 . S
C302 H300 0.949 . S
C302 C301 1.385 . S
H303 C301 0.950 . S
H304 C288 0.951 . S
H305 C290 0.951 . S
H306 C292 0.951 . S
H307 C293 0.950 . S
H308 C294 0.950 . S
H309 C295 0.950 . S
H310 C297 0.950 . S
H311 C298 0.951 . S
C312 C313 1.386 . S
C312 C314 1.383 . S
C312 H328 0.951 . S
C313 C312 1.386 . S
C313 C317 1.383 . S
C314 C312 1.383 . S
C314 C315 1.402 . S
C314 H329 0.951 . S
C315 C314 1.402 . S
C315 C316 1.375 . S
C315 C318 1.481 . S
C316 C315 1.375 . S
C316 C317 1.367 . S
C316 H330 0.951 . S
C317 C313 1.383 . S
C317 C316 1.367 . S
C317 H331 0.950 . S
C318 C315 1.481 . S
C318 C319 1.297 . S
C318 H332 0.950 . S
C319 C318 1.297 . S
C319 C320 1.479 . S
C319 H333 0.950 . S
C320 C319 1.479 . S
C320 C321 1.375 . S
C320 C326 1.404 . S
C321 C320 1.375 . S
C321 C322 1.369 . S
C321 H334 0.950 . S
C322 C321 1.369 . S
C322 C323 1.392 . S
C322 H335 0.951 . S
C323 C322 1.392 . S
C323 C325 1.384 . S
H324 C326 0.949 . S
C325 C323 1.384 . S
C325 C326 1.385 . S
C325 H327 0.950 . S
C326 C320 1.404 . S
C326 H324 0.949 . S
C326 C325 1.385 . S
H327 C325 0.950 . S
H328 C312 0.951 . S
H329 C314 0.951 . S
H330 C316 0.951 . S
H331 C317 0.950 . S
H332 C318 0.950 . S
H333 C319 0.950 . S
H334 C321 0.950 . S
H335 C322 0.951 . S
C336 C337 1.386 . S
C336 C338 1.383 . S
C336 H352 0.951 . S
C337 C336 1.386 . S
C337 C341 1.383 . S
C338 C336 1.383 . S
C338 C339 1.402 . S
C338 H353 0.951 . S
C339 C338 1.402 . S
C339 C340 1.375 . S
C339 C342 1.481 . S
C340 C339 1.375 . S
C340 C341 1.367 . S
C340 H354 0.951 . S
C341 C337 1.383 . S
C341 C340 1.367 . S
C341 H355 0.950 . S
C342 C339 1.481 . S
C342 C343 1.297 . S
C342 H356 0.950 . S
C343 C342 1.297 . S
C343 C344 1.479 1_455 S
C343 H357 0.950 . S
C344 C343 1.479 1_655 S
C344 C345 1.375 . S
C344 C350 1.404 . S
C345 C344 1.375 . S
C345 C346 1.369 . S
C345 H358 0.950 . S
C346 C345 1.369 . S
C346 C347 1.392 . S
C346 H359 0.951 . S
C347 C346 1.392 . S
C347 C349 1.384 . S
H348 C350 0.949 . S
C349 C347 1.384 . S
C349 C350 1.385 . S
C349 H351 0.950 . S
C350 C344 1.404 . S
C350 H348 0.949 . S
C350 C349 1.385 . S
H351 C349 0.950 . S
H352 C336 0.951 . S
H353 C338 0.951 . S
H354 C340 0.951 . S
H355 C341 0.950 . S
H356 C342 0.950 . S
H357 C343 0.950 . S
H358 C345 0.950 . S
H359 C346 0.951 . S
C360 C361 1.386 . S
C360 C362 1.383 . S
C360 H376 0.951 . S
C361 C360 1.386 . S
C361 C365 1.383 . S
C362 C360 1.383 . S
C362 C363 1.402 . S
C362 H377 0.951 . S
C363 C362 1.402 . S
C363 C364 1.375 . S
C363 C366 1.481 1_545 S
C364 C363 1.375 . S
C364 C365 1.367 . S
C364 H378 0.951 . S
C365 C361 1.383 . S
C365 C364 1.367 . S
C365 H379 0.950 . S
C366 C363 1.481 1_565 S
C366 C367 1.297 . S
C366 H380 0.950 . S
C367 C366 1.297 . S
C367 C368 1.479 . S
C367 H381 0.950 . S
C368 C367 1.479 . S
C368 C369 1.375 . S
C368 C374 1.404 . S
C369 C368 1.375 . S
C369 C370 1.369 . S
C369 H382 0.950 . S
C370 C369 1.369 . S
C370 C371 1.392 . S
C370 H383 0.951 . S
C371 C370 1.392 . S
C371 C373 1.384 . S
H372 C374 0.949 . S
C373 C371 1.384 . S
C373 C374 1.385 . S
C373 H375 0.950 . S
C374 C368 1.404 . S
C374 H372 0.949 . S
C374 C373 1.385 . S
H375 C373 0.950 . S
H376 C360 0.951 . S
H377 C362 0.951 . S
H378 C364 0.951 . S
H379 C365 0.950 . S
H380 C366 0.950 . S
H381 C367 0.950 . S
H382 C369 0.950 . S
H383 C370 0.951 . S
C384 C385 1.386 . S
C384 C386 1.383 . S
C384 H400 0.951 . S
C385 C384 1.386 . S
C385 C389 1.383 . S
C386 C384 1.383 . S
C386 C387 1.402 . S
C386 H401 0.951 . S
C387 C386 1.402 . S
C387 C388 1.375 . S
C387 C390 1.481 . S
C388 C387 1.375 . S
C388 C389 1.367 . S
C388 H402 0.951 . S
C389 C385 1.383 . S
C389 C388 1.367 . S
C389 H403 0.950 . S
C390 C387 1.481 . S
C390 C391 1.297 . S
C390 H404 0.950 . S
C391 C390 1.297 . S
C391 C392 1.479 . S
C391 H405 0.950 . S
C392 C391 1.479 . S
C392 C393 1.375 . S
C392 C398 1.404 . S
C393 C392 1.375 . S
C393 C394 1.369 . S
C393 H406 0.950 . S
C394 C393 1.369 . S
C394 C395 1.392 . S
C394 H407 0.951 . S
C395 C394 1.392 . S
C395 C397 1.384 . S
H396 C398 0.949 . S
C397 C395 1.384 . S
C397 C398 1.385 . S
C397 H399 0.950 . S
C398 C392 1.404 . S
C398 H396 0.949 . S
C398 C397 1.385 . S
H399 C397 0.950 . S
H400 C384 0.951 . S
H401 C386 0.951 . S
H402 C388 0.951 . S
H403 C389 0.950 . S
H404 C390 0.950 . S
H405 C391 0.950 . S
H406 C393 0.950 . S
H407 C394 0.951 . S
C408 C409 1.386 . S
C408 C410 1.383 . S
C408 H424 0.951 . S
C409 C408 1.386 . S
C409 C413 1.383 . S
C410 C408 1.383 . S
C410 C411 1.402 . S
C410 H425 0.951 . S
C411 C410 1.402 . S
C411 C412 1.375 . S
C411 C414 1.481 . S
C412 C411 1.375 . S
C412 C413 1.367 . S
C412 H426 0.951 . S
C413 C409 1.383 . S
C413 C412 1.367 . S
C413 H427 0.950 1_556 S
C414 C411 1.481 . S
C414 C415 1.297 . S
C414 H428 0.950 . S
C415 C414 1.297 . S
C415 C416 1.479 . S
C415 H429 0.950 . S
C416 C415 1.479 . S
C416 C417 1.375 . S
C416 C422 1.404 . S
C417 C416 1.375 . S
C417 C418 1.369 . S
C417 H430 0.950 . S
C418 C417 1.369 . S
C418 C419 1.392 . S
C418 H431 0.951 . S
C419 C418 1.392 . S
C419 C421 1.384 . S
H420 C422 0.949 . S
C421 C419 1.384 . S
C421 C422 1.385 . S
C421 H423 0.950 . S
C422 C416 1.404 . S
C422 H420 0.949 . S
C422 C421 1.385 . S
H423 C421 0.950 . S
H424 C408 0.951 . S
H425 C410 0.951 . S
H426 C412 0.951 . S
H427 C413 0.950 1_554 S
H428 C414 0.950 . S
H429 C415 0.950 . S
H430 C417 0.950 . S
H431 C418 0.951 . S
C432 C433 1.386 . S
C432 C434 1.383 . S
C432 H448 0.951 . S
C433 C432 1.386 . S
C433 C437 1.383 . S
C434 C432 1.383 . S
C434 C435 1.402 . S
C434 H449 0.951 . S
C435 C434 1.402 . S
C435 C436 1.375 . S
C435 C438 1.481 . S
C436 C435 1.375 . S
C436 C437 1.367 . S
C436 H450 0.951 . S
C437 C433 1.383 . S
C437 C436 1.367 . S
C437 H451 0.950 . S
C438 C435 1.481 . S
C438 C439 1.297 . S
C438 H452 0.950 . S
C439 C438 1.297 . S
C439 C440 1.479 . S
C439 H453 0.950 . S
C440 C439 1.479 . S
C440 C441 1.375 . S
C440 C446 1.404 . S
C441 C440 1.375 . S
C441 C442 1.369 . S
C441 H454 0.950 . S
C442 C441 1.369 . S
C442 C443 1.392 . S
C442 H455 0.951 . S
C443 C442 1.392 . S
C443 C445 1.384 . S
H444 C446 0.949 . S
C445 C443 1.384 . S
C445 C446 1.385 . S
C445 H447 0.950 . S
C446 C440 1.404 . S
C446 H444 0.949 . S
C446 C445 1.385 . S
H447 C445 0.950 . S
H448 C432 0.951 . S
H449 C434 0.951 . S
H450 C436 0.951 . S
H451 C437 0.950 . S
H452 C438 0.950 . S
H453 C439 0.950 . S
H454 C441 0.950 . S
H455 C442 0.951 . S
C456 C457 1.386 . S
C456 C458 1.383 . S
C456 H472 0.951 . S
C457 C456 1.386 . S
C457 C461 1.383 . S
C458 C456 1.383 . S
C458 C459 1.402 . S
C458 H473 0.951 . S
C459 C458 1.402 . S
C459 C460 1.375 . S
C459 C462 1.481 . S
C460 C459 1.375 . S
C460 C461 1.367 . S
C460 H474 0.951 . S
C461 C457 1.383 . S
C461 C460 1.367 . S
C461 H475 0.950 . S
C462 C459 1.481 . S
C462 C463 1.297 . S
C462 H476 0.950 . S
C463 C462 1.297 . S
C463 C464 1.479 . S
C463 H477 0.950 . S
C464 C463 1.479 . S
C464 C465 1.375 . S
C464 C470 1.404 . S
C465 C464 1.375 . S
C465 C466 1.369 . S
C465 H478 0.950 . S
C466 C465 1.369 . S
C466 C467 1.392 . S
C466 H479 0.951 . S
C467 C466 1.392 . S
C467 C469 1.384 . S
H468 C470 0.949 . S
C469 C467 1.384 . S
C469 C470 1.385 . S
C469 H471 0.950 . S
C470 C464 1.404 . S
C470 H468 0.949 . S
C470 C469 1.385 . S
H471 C469 0.950 . S
H472 C456 0.951 . S
H473 C458 0.951 . S
H474 C460 0.951 . S
H475 C461 0.950 . S
H476 C462 0.950 . S
H477 C463 0.950 . S
H478 C465 0.950 . S
H479 C466 0.951 . S
C480 C481 1.386 . S
C480 C482 1.383 . S
C480 H496 0.951 . S
C481 C480 1.386 . S
C481 C485 1.383 . S
C482 C480 1.383 . S
C482 C483 1.402 . S
C482 H497 0.951 . S
C483 C482 1.402 . S
C483 C484 1.375 . S
C483 C486 1.481 . S
C484 C483 1.375 . S
C484 C485 1.367 . S
C484 H498 0.951 . S
C485 C481 1.383 . S
C485 C484 1.367 . S
C485 H499 0.950 . S
C486 C483 1.481 . S
C486 C487 1.297 . S
C486 H500 0.950 . S
C487 C486 1.297 . S
C487 C488 1.479 . S
C487 H501 0.950 . S
C488 C487 1.479 . S
C488 C489 1.375 . S
C488 C494 1.404 . S
C489 C488 1.375 . S
C489 C490 1.369 . S
C489 H502 0.950 . S
C490 C489 1.369 . S
C490 C491 1.392 . S
C490 H503 0.951 1_556 S
C491 C490 1.392 . S
C491 C493 1.384 . S
H492 C494 0.949 . S
C493 C491 1.384 . S
C493 C494 1.385 . S
C493 H495 0.950 . S
C494 C488 1.404 . S
C494 H492 0.949 . S
C494 C493 1.385 . S
H495 C493 0.950 . S
H496 C480 0.951 . S
H497 C482 0.951 . S
H498 C484 0.951 . S
H499 C485 0.950 . S
H500 C486 0.950 . S
H501 C487 0.950 . S
H502 C489 0.950 . S
H503 C490 0.951 1_554 S
C504 C505 1.386 . S
C504 C506 1.383 . S
C504 H520 0.951 . S
C505 C504 1.386 . S
C505 C509 1.383 . S
C506 C504 1.383 . S
C506 C507 1.402 . S
C506 H521 0.951 . S
C507 C506 1.402 . S
C507 C508 1.375 . S
C507 C510 1.481 . S
C508 C507 1.375 . S
C508 C509 1.367 . S
C508 H522 0.951 . S
C509 C505 1.383 . S
C509 C508 1.367 . S
C509 H523 0.950 . S
C510 C507 1.481 . S
C510 C511 1.297 . S
C510 H524 0.950 . S
C511 C510 1.297 . S
C511 C512 1.479 . S
C511 H525 0.950 . S
C512 C511 1.479 . S
C512 C513 1.375 . S
C512 C518 1.404 . S
C513 C512 1.375 . S
C513 C514 1.369 . S
C513 H526 0.950 . S
C514 C513 1.369 . S
C514 C515 1.392 . S
C514 H527 0.951 1_554 S
C515 C514 1.392 . S
C515 C517 1.384 . S
H516 C518 0.949 . S
C517 C515 1.384 . S
C517 C518 1.385 . S
C517 H519 0.950 . S
C518 C512 1.404 . S
C518 H516 0.949 . S
C518 C517 1.385 . S
H519 C517 0.950 . S
H520 C504 0.951 . S
H521 C506 0.951 . S
H522 C508 0.951 . S
H523 C509 0.950 . S
H524 C510 0.950 . S
H525 C511 0.950 . S
H526 C513 0.950 . S
H527 C514 0.951 1_556 S
C528 C529 1.386 . S
C528 C530 1.383 . S
C528 H544 0.951 . S
C529 C528 1.386 . S
C529 C533 1.383 . S
C530 C528 1.383 . S
C530 C531 1.402 . S
C530 H545 0.951 . S
C531 C530 1.402 . S
C531 C532 1.375 . S
C531 C534 1.481 . S
C532 C531 1.375 . S
C532 C533 1.367 . S
C532 H546 0.951 . S
C533 C529 1.383 . S
C533 C532 1.367 . S
C533 H547 0.950 . S
C534 C531 1.481 . S
C534 C535 1.297 . S
C534 H548 0.950 . S
C535 C534 1.297 . S
C535 C536 1.479 . S
C535 H549 0.950 . S
C536 C535 1.479 . S
C536 C537 1.375 . S
C536 C542 1.404 . S
C537 C536 1.375 . S
C537 C538 1.369 . S
C537 H550 0.950 . S
C538 C537 1.369 . S
C538 C539 1.392 . S
C538 H551 0.951 . S
C539 C538 1.392 . S
C539 C541 1.384 . S
H540 C542 0.949 . S
C541 C539 1.384 . S
C541 C542 1.385 . S
C541 H543 0.950 . S
C542 C536 1.404 . S
C542 H540 0.949 . S
C542 C541 1.385 . S
H543 C541 0.950 . S
H544 C528 0.951 . S
H545 C530 0.951 . S
H546 C532 0.951 . S
H547 C533 0.950 . S
H548 C534 0.950 . S
H549 C535 0.950 . S
H550 C537 0.950 . S
H551 C538 0.951 . S
C552 C553 1.386 . S
C552 C554 1.383 . S
C552 H568 0.951 . S
C553 C552 1.386 . S
C553 C557 1.383 . S
C554 C552 1.383 . S
C554 C555 1.402 . S
C554 H569 0.951 . S
C555 C554 1.402 . S
C555 C556 1.375 . S
C555 C558 1.481 . S
C556 C555 1.375 . S
C556 C557 1.367 . S
C556 H570 0.951 . S
C557 C553 1.383 . S
C557 C556 1.367 . S
C557 H571 0.950 . S
C558 C555 1.481 . S
C558 C559 1.297 . S
C558 H572 0.950 . S
C559 C558 1.297 . S
C559 C560 1.479 . S
C559 H573 0.950 . S
C560 C559 1.479 . S
C560 C561 1.375 . S
C560 C566 1.404 . S
C561 C560 1.375 . S
C561 C562 1.369 . S
C561 H574 0.950 . S
C562 C561 1.369 . S
C562 C563 1.392 . S
C562 H575 0.951 . S
C563 C562 1.392 . S
C563 C565 1.384 . S
H564 C566 0.949 . S
C565 C563 1.384 . S
C565 C566 1.385 . S
C565 H567 0.950 . S
C566 C560 1.404 . S
C566 H564 0.949 . S
C566 C565 1.385 . S
H567 C565 0.950 . S
H568 C552 0.951 . S
H569 C554 0.951 . S
H570 C556 0.951 . S
H571 C557 0.950 . S
H572 C558 0.950 . S
H573 C559 0.950 . S
H574 C561 0.950 . S
H575 C562 0.951 . S
C576 C577 1.386 . S
C576 C578 1.383 . S
C576 H592 0.951 . S
C577 C576 1.386 . S
C577 C581 1.383 . S
C578 C576 1.383 . S
C578 C579 1.402 . S
C578 H593 0.951 . S
C579 C578 1.402 . S
C579 C580 1.375 . S
C579 C582 1.481 . S
C580 C579 1.375 . S
C580 C581 1.367 . S
C580 H594 0.951 . S
C581 C577 1.383 . S
C581 C580 1.367 . S
C581 H595 0.950 1_556 S
C582 C579 1.481 . S
C582 C583 1.297 . S
C582 H596 0.950 . S
C583 C582 1.297 . S
C583 C584 1.479 . S
C583 H597 0.950 . S
C584 C583 1.479 . S
C584 C585 1.375 . S
C584 C590 1.404 . S
C585 C584 1.375 . S
C585 C586 1.369 . S
C585 H598 0.950 . S
C586 C585 1.369 . S
C586 C587 1.392 . S
C586 H599 0.951 . S
C587 C586 1.392 . S
C587 C589 1.384 . S
H588 C590 0.949 . S
C589 C587 1.384 . S
C589 C590 1.385 . S
C589 H591 0.950 . S
C590 C584 1.404 . S
C590 H588 0.949 . S
C590 C589 1.385 . S
H591 C589 0.950 . S
H592 C576 0.951 . S
H593 C578 0.951 . S
H594 C580 0.951 . S
H595 C581 0.950 1_554 S
H596 C582 0.950 . S
H597 C583 0.950 . S
H598 C585 0.950 . S
H599 C586 0.951 . S
C600 C601 1.386 . S
C600 C602 1.383 . S
C600 H616 0.951 . S
C601 C600 1.386 . S
C601 C605 1.383 . S
C602 C600 1.383 . S
C602 C603 1.402 . S
C602 H617 0.951 . S
C603 C602 1.402 . S
C603 C604 1.375 . S
C603 C606 1.481 . S
C604 C603 1.375 . S
C604 C605 1.367 . S
C604 H618 0.951 . S
C605 C601 1.383 . S
C605 C604 1.367 . S
C605 H619 0.950 . S
C606 C603 1.481 . S
C606 C607 1.297 . S
C606 H620 0.950 . S
C607 C606 1.297 . S
C607 C608 1.479 . S
C607 H621 0.950 . S
C608 C607 1.479 . S
C608 C609 1.375 . S
C608 C614 1.404 . S
C609 C608 1.375 . S
C609 C610 1.369 . S
C609 H622 0.950 . S
C610 C609 1.369 . S
C610 C611 1.392 . S
C610 H623 0.951 . S
C611 C610 1.392 . S
C611 C613 1.384 . S
H612 C614 0.949 . S
C613 C611 1.384 . S
C613 C614 1.385 . S
C613 H615 0.950 . S
C614 C608 1.404 . S
C614 H612 0.949 . S
C614 C613 1.385 . S
H615 C613 0.950 . S
H616 C600 0.951 . S
H617 C602 0.951 . S
H618 C604 0.951 . S
H619 C605 0.950 . S
H620 C606 0.950 . S
H621 C607 0.950 . S
H622 C609 0.950 . S
H623 C610 0.951 . S
C624 C625 1.386 . S
C624 C626 1.383 . S
C624 H640 0.951 . S
C625 C624 1.386 . S
C625 C629 1.383 . S
C626 C624 1.383 . S
C626 C627 1.402 . S
C626 H641 0.951 . S
C627 C626 1.402 . S
C627 C628 1.375 . S
C627 C630 1.481 . S
C628 C627 1.375 . S
C628 C629 1.367 . S
C628 H642 0.951 . S
C629 C625 1.383 . S
C629 C628 1.367 . S
C629 H643 0.950 . S
C630 C627 1.481 . S
C630 C631 1.297 . S
C630 H644 0.950 . S
C631 C630 1.297 . S
C631 C632 1.479 . S
C631 H645 0.950 . S
C632 C631 1.479 . S
C632 C633 1.375 . S
C632 C638 1.404 . S
C633 C632 1.375 . S
C633 C634 1.369 . S
C633 H646 0.950 . S
C634 C633 1.369 . S
C634 C635 1.392 . S
C634 H647 0.951 . S
C635 C634 1.392 . S
C635 C637 1.384 . S
H636 C638 0.949 . S
C637 C635 1.384 . S
C637 C638 1.385 . S
C637 H639 0.950 . S
C638 C632 1.404 . S
C638 H636 0.949 . S
C638 C637 1.385 . S
H639 C637 0.950 . S
H640 C624 0.951 . S
H641 C626 0.951 . S
H642 C628 0.951 . S
H643 C629 0.950 . S
H644 C630 0.950 . S
H645 C631 0.950 . S
H646 C633 0.950 . S
H647 C634 0.951 . S
C648 C649 1.386 . S
C648 C650 1.383 . S
C648 H664 0.951 . S
C649 C648 1.386 . S
C649 C653 1.383 . S
C650 C648 1.383 . S
C650 C651 1.402 . S
C650 H665 0.951 . S
C651 C650 1.402 . S
C651 C652 1.375 . S
C651 C654 1.481 . S
C652 C651 1.375 . S
C652 C653 1.367 . S
C652 H666 0.951 . S
C653 C649 1.383 . S
C653 C652 1.367 . S
C653 H667 0.950 . S
C654 C651 1.481 . S
C654 C655 1.297 . S
C654 H668 0.950 . S
C655 C654 1.297 . S
C655 C656 1.479 . S
C655 H669 0.950 . S
C656 C655 1.479 . S
C656 C657 1.375 . S
C656 C662 1.404 . S
C657 C656 1.375 . S
C657 C658 1.369 . S
C657 H670 0.950 . S
C658 C657 1.369 . S
C658 C659 1.392 . S
C658 H671 0.951 . S
C659 C658 1.392 . S
C659 C661 1.384 . S
H660 C662 0.949 . S
C661 C659 1.384 . S
C661 C662 1.385 . S
C661 H663 0.950 . S
C662 C656 1.404 . S
C662 H660 0.949 . S
C662 C661 1.385 . S
H663 C661 0.950 . S
H664 C648 0.951 . S
H665 C650 0.951 . S
H666 C652 0.951 . S
H667 C653 0.950 . S
H668 C654 0.950 . S
H669 C655 0.950 . S
H670 C657 0.950 . S
H671 C658 0.951 . S
C241 C218 1.295 . S
C251 C19 1.324 . S
C265 C18 1.259 . S
C275 C59 1.317 . S
C289 C58 1.258 . S
C299 C99 1.317 . S
C313 C98 1.268 . S
C323 C139 1.320 . S
C337 C179 1.313 . S
C347 C138 1.220 . S
C361 C219 1.318 . S
C371 C178 1.221 . S
C385 C15 1.225 . S
C395 C5 1.291 . S
C409 C55 1.257 1_556 S
C419 C45 1.203 . S
C433 C95 1.239 . S
C443 C85 1.305 1_554 S
C457 C135 1.224 . S
C467 C125 1.281 . S
C481 C165 1.231 . S
C491 C175 1.244 1_556 S
C505 C215 1.237 . S
C515 C205 1.231 1_554 S
C529 C9 1.684 . S
C539 C168 1.712 . S
C553 C49 1.700 . S
C563 C208 1.700 . S
C577 C8 1.702 . S
C587 C89 1.665 . S
C601 C48 1.692 . S
C611 C129 1.689 . S
C625 C169 1.707 . S
C635 C88 1.676 . S
C649 C128 1.698 . S
C659 C209 1.672 . S
