# Generated by pormake.
# Topology hbo, (4)-cn, num edge types: 1
# Building blocks:
#     Node 0, Type 0, BuildingBlock: ICAMEG_clean_sbu_1, # of connection points: 4
#     Node 1, Type 0, BuildingBlock: ICAMEG_clean_sbu_1, # of connection points: 4
#     Node 2, Type 0, BuildingBlock: ICAMEG_clean_sbu_1, # of connection points: 4
#     Node 3, Type 0, BuildingBlock: ICAMEG_clean_sbu_1, # of connection points: 4
#     Node 4, Type 0, BuildingBlock: ICAMEG_clean_sbu_1, # of connection points: 4
#     Node 5, Type 0, BuildingBlock: ICAMEG_clean_sbu_1, # of connection points: 4
#     Node 6, Type 0, BuildingBlock: ICAMEG_clean_sbu_1, # of connection points: 4
#     Node 7, Type 0, BuildingBlock: ICAMEG_clean_sbu_1, # of connection points: 4
#     Node 8, Type 0, BuildingBlock: ICAMEG_clean_sbu_1, # of connection points: 4
#     Node 9, Type 0, BuildingBlock: ICAMEG_clean_sbu_1, # of connection points: 4
#     Node 10, Type 0, BuildingBlock: ICAMEG_clean_sbu_1, # of connection points: 4
#     Node 11, Type 0, BuildingBlock: ICAMEG_clean_sbu_1, # of connection points: 4
#     Node 12, Type 0, BuildingBlock: ICAMEG_clean_sbu_1, # of connection points: 4
#     Node 13, Type 0, BuildingBlock: ICAMEG_clean_sbu_1, # of connection points: 4
#     Node 14, Type 0, BuildingBlock: ICAMEG_clean_sbu_1, # of connection points: 4
#     Node 15, Type 0, BuildingBlock: ICAMEG_clean_sbu_1, # of connection points: 4
#     Node 16, Type 0, BuildingBlock: ICAMEG_clean_sbu_1, # of connection points: 4
#     Node 17, Type 0, BuildingBlock: ICAMEG_clean_sbu_1, # of connection points: 4
#     Node 18, Type 0, BuildingBlock: ICAMEG_clean_sbu_1, # of connection points: 4
#     Node 19, Type 0, BuildingBlock: ICAMEG_clean_sbu_1, # of connection points: 4
#     Node 20, Type 0, BuildingBlock: ICAMEG_clean_sbu_1, # of connection points: 4
#     Node 21, Type 0, BuildingBlock: ICAMEG_clean_sbu_1, # of connection points: 4
#     Node 22, Type 0, BuildingBlock: ICAMEG_clean_sbu_1, # of connection points: 4
#     Node 23, Type 0, BuildingBlock: ICAMEG_clean_sbu_1, # of connection points: 4
#     Edge 24, Type (0, 0), BuildingBlock: OJICUG_clean_linker_0, # of connection points: 2
#     Edge 25, Type (0, 0), BuildingBlock: OJICUG_clean_linker_0, # of connection points: 2
#     Edge 26, Type (0, 0), BuildingBlock: OJICUG_clean_linker_0, # of connection points: 2
#     Edge 27, Type (0, 0), BuildingBlock: OJICUG_clean_linker_0, # of connection points: 2
#     Edge 28, Type (0, 0), BuildingBlock: OJICUG_clean_linker_0, # of connection points: 2
#     Edge 29, Type (0, 0), BuildingBlock: OJICUG_clean_linker_0, # of connection points: 2
#     Edge 30, Type (0, 0), BuildingBlock: OJICUG_clean_linker_0, # of connection points: 2
#     Edge 31, Type (0, 0), BuildingBlock: OJICUG_clean_linker_0, # of connection points: 2
#     Edge 32, Type (0, 0), BuildingBlock: OJICUG_clean_linker_0, # of connection points: 2
#     Edge 33, Type (0, 0), BuildingBlock: OJICUG_clean_linker_0, # of connection points: 2
#     Edge 34, Type (0, 0), BuildingBlock: OJICUG_clean_linker_0, # of connection points: 2
#     Edge 35, Type (0, 0), BuildingBlock: OJICUG_clean_linker_0, # of connection points: 2
#     Edge 36, Type (0, 0), BuildingBlock: OJICUG_clean_linker_0, # of connection points: 2
#     Edge 37, Type (0, 0), BuildingBlock: OJICUG_clean_linker_0, # of connection points: 2
#     Edge 38, Type (0, 0), BuildingBlock: OJICUG_clean_linker_0, # of connection points: 2
#     Edge 39, Type (0, 0), BuildingBlock: OJICUG_clean_linker_0, # of connection points: 2
#     Edge 40, Type (0, 0), BuildingBlock: OJICUG_clean_linker_0, # of connection points: 2
#     Edge 41, Type (0, 0), BuildingBlock: OJICUG_clean_linker_0, # of connection points: 2
#     Edge 42, Type (0, 0), BuildingBlock: OJICUG_clean_linker_0, # of connection points: 2
#     Edge 43, Type (0, 0), BuildingBlock: OJICUG_clean_linker_0, # of connection points: 2
#     Edge 44, Type (0, 0), BuildingBlock: OJICUG_clean_linker_0, # of connection points: 2
#     Edge 45, Type (0, 0), BuildingBlock: OJICUG_clean_linker_0, # of connection points: 2
#     Edge 46, Type (0, 0), BuildingBlock: OJICUG_clean_linker_0, # of connection points: 2
#     Edge 47, Type (0, 0), BuildingBlock: OJICUG_clean_linker_0, # of connection points: 2
#     Edge 48, Type (0, 0), BuildingBlock: OJICUG_clean_linker_0, # of connection points: 2
#     Edge 49, Type (0, 0), BuildingBlock: OJICUG_clean_linker_0, # of connection points: 2
#     Edge 50, Type (0, 0), BuildingBlock: OJICUG_clean_linker_0, # of connection points: 2
#     Edge 51, Type (0, 0), BuildingBlock: OJICUG_clean_linker_0, # of connection points: 2
#     Edge 52, Type (0, 0), BuildingBlock: OJICUG_clean_linker_0, # of connection points: 2
#     Edge 53, Type (0, 0), BuildingBlock: OJICUG_clean_linker_0, # of connection points: 2
#     Edge 54, Type (0, 0), BuildingBlock: OJICUG_clean_linker_0, # of connection points: 2
#     Edge 55, Type (0, 0), BuildingBlock: OJICUG_clean_linker_0, # of connection points: 2
#     Edge 56, Type (0, 0), BuildingBlock: OJICUG_clean_linker_0, # of connection points: 2
#     Edge 57, Type (0, 0), BuildingBlock: OJICUG_clean_linker_0, # of connection points: 2
#     Edge 58, Type (0, 0), BuildingBlock: OJICUG_clean_linker_0, # of connection points: 2
#     Edge 59, Type (0, 0), BuildingBlock: OJICUG_clean_linker_0, # of connection points: 2
#     Edge 60, Type (0, 0), BuildingBlock: OJICUG_clean_linker_0, # of connection points: 2
#     Edge 61, Type (0, 0), BuildingBlock: OJICUG_clean_linker_0, # of connection points: 2
#     Edge 62, Type (0, 0), BuildingBlock: OJICUG_clean_linker_0, # of connection points: 2
#     Edge 63, Type (0, 0), BuildingBlock: OJICUG_clean_linker_0, # of connection points: 2
#     Edge 64, Type (0, 0), BuildingBlock: OJICUG_clean_linker_0, # of connection points: 2
#     Edge 65, Type (0, 0), BuildingBlock: OJICUG_clean_linker_0, # of connection points: 2
#     Edge 66, Type (0, 0), BuildingBlock: OJICUG_clean_linker_0, # of connection points: 2
#     Edge 67, Type (0, 0), BuildingBlock: OJICUG_clean_linker_0, # of connection points: 2
#     Edge 68, Type (0, 0), BuildingBlock: OJICUG_clean_linker_0, # of connection points: 2
#     Edge 69, Type (0, 0), BuildingBlock: OJICUG_clean_linker_0, # of connection points: 2
#     Edge 70, Type (0, 0), BuildingBlock: OJICUG_clean_linker_0, # of connection points: 2
#     Edge 71, Type (0, 0), BuildingBlock: OJICUG_clean_linker_0, # of connection points: 2
# Relax obj value: 0.139
# Max RMSD: 0.174
# Mean RMSD: 0.174
data_MOF--net-hbo--node1-ICAMEG_clean_sbu_1--edge1-OJICUG_clean_linker_0
_symmetry_space_group_name_H-M    P1
_symmetry_Int_Tables_number       1
_symmetry_cell_setting            triclinic
loop_
_symmetry_equiv_pos_as_xyz
'x, y, z'
_cell_length_a     42.140108
_cell_length_b     42.106592
_cell_length_c     42.13098
_cell_angle_alpha  89.994457
_cell_angle_beta   90.015564
_cell_angle_gamma 90.021381
loop_
_atom_site_label
_atom_site_type_symbol
_atom_site_fract_x
_atom_site_fract_y
_atom_site_fract_z
_atom_type_partial_charge
Co0 Co 0.17663 0.37395 0.27318 0.0
Co1 Co 0.12794 0.32831 0.22626 0.0
O2 O 0.13724 0.36721 0.24972 0.0
C3 C 0.17143 0.43125 0.23238 0.0
O4 O 0.16346 0.41323 0.20823 0.0
C5 C 0.07046 0.33554 0.26676 0.0
O6 O 0.08817 0.33748 0.29234 0.0
O7 O 0.13799 0.30168 0.26408 0.0
O8 O 0.177 0.32913 0.2878 0.0
H9 H 0.14829 0.21684 0.1888 0.0
H10 H 0.12159 0.41647 0.28362 0.0
O11 O 0.17732 0.41911 0.2594 0.0
H12 H 0.14477 0.36956 0.38834 0.0
H13 H 0.25123 0.43563 0.34342 0.0
H14 H 0.23611 0.3373 0.28166 0.0
H15 H 0.17746 0.35596 0.34176 0.0
H16 H 0.20133 0.42617 0.31427 0.0
O17 O 0.08291 0.33133 0.2396 0.0
H18 H 0.16023 0.26629 0.21779 0.0
H19 H 0.07407 0.30733 0.18527 0.0
H20 H 0.28624 0.34565 0.31069 0.0
H21 H 0.08845 0.43096 0.32964 0.0
H22 H 0.29405 0.39513 0.34185 0.0
H23 H 0.09992 0.40738 0.38245 0.0
O24 O 0.20244 0.36193 0.23546 0.0
H25 H 0.07709 0.41977 0.16891 0.0
H26 H 0.14649 0.32617 0.15787 0.0
H27 H 0.13538 0.35948 0.11104 0.0
H28 H 0.10039 0.40664 0.11638 0.0
H29 H 0.08912 0.38602 0.2152 0.0
H30 H 0.06108 0.25821 0.15613 0.0
H31 H 0.09839 0.21258 0.15768 0.0
O32 O 0.17264 0.32459 0.21189 0.0
C33 C 0.16022 0.30421 0.28451 0.0
C34 C 0.13188 0.23659 0.18787 0.0
C35 C 0.08291 0.2598 0.16957 0.0
N36 N 0.11797 0.28975 0.20308 0.0
C37 C 0.13855 0.26469 0.20418 0.0
C38 C 0.09036 0.28752 0.18619 0.0
C39 C 0.10386 0.2342 0.17044 0.0
C40 C 0.12688 0.40629 0.30657 0.0
N41 N 0.15151 0.38547 0.31001 0.0
C42 C 0.10797 0.41451 0.33252 0.0
C43 C 0.11439 0.40124 0.36213 0.0
C44 C 0.13953 0.38 0.36545 0.0
C45 C 0.15791 0.37231 0.33896 0.0
C46 C 0.24809 0.41396 0.32996 0.0
C47 C 0.23926 0.35882 0.29529 0.0
C48 C 0.21993 0.40852 0.31333 0.0
N49 N 0.21575 0.38115 0.2964 0.0
C50 C 0.26773 0.36345 0.31162 0.0
C51 C 0.27211 0.39122 0.32907 0.0
C52 C 0.19852 0.33982 0.21512 0.0
C53 C 0.09232 0.39925 0.16626 0.0
C54 C 0.1314 0.34674 0.16044 0.0
C55 C 0.1251 0.36546 0.13381 0.0
C56 C 0.10543 0.39189 0.13681 0.0
N57 N 0.11845 0.3541 0.18926 0.0
C58 C 0.09911 0.37996 0.19237 0.0
Co59 Co 0.17239 0.62187 0.72622 0.0
Co60 Co 0.123 0.66627 0.77361 0.0
O61 O 0.13295 0.62771 0.74978 0.0
C62 C 0.16894 0.56413 0.76666 0.0
O63 O 0.16036 0.58163 0.79097 0.0
C64 C 0.06577 0.6589 0.73269 0.0
O65 O 0.08367 0.65773 0.7072 0.0
O66 O 0.13271 0.69353 0.73611 0.0
O67 O 0.17177 0.66674 0.7118 0.0
H68 H 0.14128 0.77772 0.81223 0.0
H69 H 0.11812 0.5784 0.71573 0.0
O70 O 0.17417 0.57667 0.7397 0.0
H71 H 0.14038 0.62582 0.61105 0.0
H72 H 0.24827 0.5624 0.6555 0.0
H73 H 0.23112 0.6598 0.71816 0.0
H74 H 0.17289 0.63993 0.65763 0.0
H75 H 0.19816 0.57055 0.68464 0.0
O76 O 0.07801 0.66264 0.76003 0.0
H77 H 0.1542 0.72877 0.78283 0.0
H78 H 0.06869 0.68583 0.81462 0.0
H79 H 0.28144 0.65277 0.68915 0.0
H80 H 0.08518 0.56337 0.66971 0.0
H81 H 0.29028 0.60377 0.65754 0.0
H82 H 0.09619 0.58721 0.61692 0.0
O83 O 0.19796 0.63414 0.76401 0.0
H84 H 0.07342 0.57344 0.82989 0.0
H85 H 0.14156 0.66791 0.84201 0.0
H86 H 0.13088 0.63393 0.88846 0.0
H87 H 0.09653 0.58634 0.88258 0.0
H88 H 0.08498 0.60788 0.78398 0.0
H89 H 0.05472 0.73442 0.84417 0.0
H90 H 0.09121 0.78076 0.84319 0.0
O91 O 0.16765 0.6706 0.78822 0.0
C92 C 0.15471 0.6914 0.7154 0.0
C93 C 0.12523 0.75765 0.81292 0.0
C94 C 0.07662 0.73337 0.83081 0.0
N95 N 0.11233 0.7044 0.79716 0.0
C96 C 0.13245 0.72984 0.79638 0.0
C97 C 0.08463 0.70595 0.81397 0.0
C98 C 0.09712 0.75936 0.83026 0.0
C99 C 0.12319 0.58872 0.69279 0.0
N100 N 0.14744 0.60999 0.68937 0.0
C101 C 0.10439 0.58019 0.66684 0.0
C102 C 0.11056 0.5936 0.63724 0.0
C103 C 0.13533 0.61528 0.63393 0.0
C104 C 0.1536 0.62328 0.66042 0.0
C105 C 0.24468 0.58387 0.66916 0.0
C106 C 0.2347 0.63849 0.70431 0.0
C107 C 0.21639 0.58857 0.68577 0.0
N108 N 0.21164 0.6157 0.70294 0.0
C109 C 0.26329 0.63461 0.688 0.0
C110 C 0.26824 0.6071 0.6703 0.0
C111 C 0.19374 0.6558 0.78476 0.0
C112 C 0.08836 0.59416 0.83278 0.0
C113 C 0.12672 0.64716 0.83921 0.0
C114 C 0.12067 0.62806 0.86563 0.0
C115 C 0.10137 0.60138 0.86232 0.0
N116 N 0.11385 0.63994 0.81031 0.0
C117 C 0.09489 0.61382 0.80689 0.0
Co118 Co 0.82558 0.62747 0.26934 0.0
Co119 Co 0.87254 0.67573 0.22323 0.0
O120 O 0.86504 0.6365 0.24681 0.0
C121 C 0.83375 0.56971 0.22931 0.0
O122 O 0.83676 0.58726 0.20371 0.0
C123 C 0.92797 0.6713 0.26632 0.0
O124 O 0.909 0.66326 0.28968 0.0
O125 O 0.85939 0.70191 0.26026 0.0
O126 O 0.8218 0.67223 0.28353 0.0
H127 H 0.84583 0.7852 0.18393 0.0
H128 H 0.88277 0.58839 0.28193 0.0
O129 O 0.82863 0.58236 0.25622 0.0
H130 H 0.85371 0.63486 0.38533 0.0
H131 H 0.7532 0.56119 0.33769 0.0
H132 H 0.76365 0.66023 0.27609 0.0
H133 H 0.82173 0.6461 0.33763 0.0
H134 H 0.80317 0.57382 0.30993 0.0
O135 O 0.91709 0.67661 0.23865 0.0
H136 H 0.83634 0.73527 0.21301 0.0
H137 H 0.92613 0.7 0.18379 0.0
H138 H 0.71336 0.64866 0.30366 0.0
H139 H 0.91521 0.57623 0.3291 0.0
H140 H 0.7079 0.59881 0.33474 0.0
H141 H 0.9008 0.59963 0.38126 0.0
O142 O 0.80003 0.63754 0.23085 0.0
H143 H 0.93154 0.58721 0.16937 0.0
H144 H 0.85653 0.67578 0.15419 0.0
H145 H 0.87168 0.64269 0.10834 0.0
H146 H 0.9095 0.59808 0.11577 0.0
H147 H 0.91554 0.62075 0.21462 0.0
H148 H 0.93673 0.74969 0.15463 0.0
H149 H 0.89635 0.79266 0.15447 0.0
O150 O 0.82823 0.67605 0.20717 0.0
C151 C 0.83707 0.6981 0.28033 0.0
C152 C 0.86357 0.76662 0.18374 0.0
C153 C 0.91461 0.7467 0.16733 0.0
N154 N 0.88056 0.71466 0.19992 0.0
C155 C 0.8583 0.73825 0.20009 0.0
C156 C 0.90851 0.71865 0.18395 0.0
C157 C 0.89194 0.7708 0.16724 0.0
C158 C 0.87617 0.59844 0.30459 0.0
N159 N 0.85033 0.6179 0.307 0.0
C160 C 0.8947 0.59156 0.3312 0.0
C161 C 0.88664 0.60474 0.36044 0.0
C162 C 0.86024 0.62454 0.36273 0.0
C163 C 0.84228 0.63092 0.33561 0.0
C164 C 0.75531 0.583 0.32425 0.0
C165 C 0.76153 0.63857 0.2897 0.0
C166 C 0.78352 0.59024 0.30842 0.0
N167 N 0.78639 0.61782 0.29154 0.0
C168 C 0.73296 0.63211 0.3052 0.0
C169 C 0.7299 0.60413 0.32261 0.0
C170 C 0.80314 0.65951 0.2102 0.0
C171 C 0.9151 0.60663 0.16581 0.0
C172 C 0.8729 0.65634 0.15764 0.0
C173 C 0.88145 0.63773 0.13157 0.0
C174 C 0.90269 0.61272 0.13575 0.0
N175 N 0.88523 0.65027 0.18703 0.0
C176 C 0.90603 0.62576 0.19132 0.0
Co177 Co 0.87667 0.32945 0.77109 0.0
Co178 Co 0.82915 0.37676 0.72392 0.0
O179 O 0.86829 0.3687 0.74765 0.0
C180 C 0.93286 0.33516 0.7286 0.0
O181 O 0.91452 0.34425 0.70511 0.0
C182 C 0.83334 0.43223 0.76733 0.0
O183 O 0.84236 0.41355 0.79058 0.0
O184 O 0.80241 0.3633 0.76053 0.0
O185 O 0.83245 0.32825 0.78706 0.0
H186 H 0.71997 0.35085 0.68345 0.0
H187 H 0.91902 0.38495 0.77988 0.0
O188 O 0.92133 0.32924 0.75588 0.0
H189 H 0.87497 0.36254 0.88597 0.0
H190 H 0.94196 0.25666 0.83995 0.0
H191 H 0.8416 0.26918 0.78104 0.0
H192 H 0.86038 0.32925 0.84007 0.0
H193 H 0.93052 0.30621 0.81087 0.0
O194 O 0.82811 0.4212 0.73971 0.0
H195 H 0.76955 0.34089 0.71289 0.0
H196 H 0.80554 0.4308 0.68461 0.0
H197 H 0.85194 0.21937 0.81003 0.0
H198 H 0.93449 0.41867 0.8252 0.0
H199 H 0.90245 0.21286 0.83974 0.0
H200 H 0.91234 0.40759 0.87869 0.0
O201 O 0.86401 0.30289 0.73405 0.0
H202 H 0.91784 0.4367 0.67135 0.0
H203 H 0.82995 0.36113 0.65479 0.0
H204 H 0.86339 0.3768 0.60939 0.0
H205 H 0.90767 0.4149 0.61752 0.0
H206 H 0.88397 0.42015 0.71616 0.0
H207 H 0.7562 0.44186 0.6551 0.0
H208 H 0.71304 0.40166 0.6543 0.0
O209 O 0.82876 0.33268 0.70749 0.0
C210 C 0.80634 0.34259 0.78228 0.0
C211 C 0.73863 0.36852 0.68355 0.0
C212 C 0.75895 0.41961 0.66767 0.0
N213 N 0.7905 0.38515 0.70032 0.0
C214 C 0.7668 0.36298 0.70011 0.0
C215 C 0.78681 0.41325 0.68449 0.0
C216 C 0.73475 0.39704 0.66722 0.0
C217 C 0.9095 0.37981 0.80314 0.0
N218 N 0.88891 0.3551 0.80734 0.0
C219 C 0.91825 0.39906 0.82869 0.0
C220 C 0.90578 0.39286 0.85868 0.0
C221 C 0.88478 0.3676 0.86278 0.0
C222 C 0.87653 0.34889 0.83668 0.0
C223 C 0.91985 0.25923 0.82712 0.0
C224 C 0.86356 0.26661 0.79406 0.0
C225 C 0.91328 0.2872 0.81055 0.0
N226 N 0.88536 0.29065 0.7944 0.0
C227 C 0.86931 0.23831 0.81037 0.0
C228 C 0.89767 0.23467 0.827 0.0
C229 C 0.84342 0.30672 0.71218 0.0
C230 C 0.89857 0.42014 0.66749 0.0
C231 C 0.84925 0.37761 0.65856 0.0
C232 C 0.86805 0.38646 0.63273 0.0
C233 C 0.89288 0.40786 0.6373 0.0
N234 N 0.85495 0.3898 0.68808 0.0
C235 C 0.87924 0.41078 0.69275 0.0
Co236 Co 0.22825 0.12371 0.32576 0.0
Co237 Co 0.27574 0.17053 0.37317 0.0
O238 O 0.25179 0.1315 0.36506 0.0
C239 C 0.2689 0.06626 0.33214 0.0
O240 O 0.29298 0.08401 0.34087 0.0
C241 C 0.23409 0.16478 0.42989 0.0
O242 O 0.21017 0.15656 0.41171 0.0
O243 O 0.2386 0.19722 0.36135 0.0
O244 O 0.21345 0.16846 0.32427 0.0
H245 H 0.31462 0.28061 0.34843 0.0
H246 H 0.21778 0.08194 0.38138 0.0
O247 O 0.24205 0.07858 0.32593 0.0
H248 H 0.11318 0.12879 0.35777 0.0
H249 H 0.15798 0.06026 0.25266 0.0
H250 H 0.22008 0.15875 0.26527 0.0
H251 H 0.15973 0.14192 0.32485 0.0
H252 H 0.18692 0.07102 0.30242 0.0
O253 O 0.26127 0.17052 0.41806 0.0
H254 H 0.2853 0.23094 0.33829 0.0
H255 H 0.31659 0.19328 0.42644 0.0
H256 H 0.19131 0.14907 0.21522 0.0
H257 H 0.17177 0.06788 0.41473 0.0
H258 H 0.15998 0.09951 0.20867 0.0
H259 H 0.11902 0.09146 0.40304 0.0
O260 O 0.26594 0.135 0.29962 0.0
H261 H 0.33025 0.08083 0.42982 0.0
H262 H 0.34448 0.17043 0.35579 0.0
H263 H 0.3904 0.13687 0.36957 0.0
H264 H 0.38345 0.09174 0.4069 0.0
H265 H 0.28489 0.1148 0.41513 0.0
H266 H 0.34605 0.24266 0.43767 0.0
H267 H 0.34527 0.28671 0.39844 0.0
O268 O 0.29119 0.17183 0.32863 0.0
C269 C 0.21746 0.19398 0.33992 0.0
C270 C 0.31522 0.26156 0.36567 0.0
C271 C 0.33282 0.24027 0.41577 0.0
N272 N 0.29939 0.20916 0.38166 0.0
C273 C 0.29873 0.23334 0.36003 0.0
C274 C 0.31604 0.21239 0.40932 0.0
C275 C 0.33238 0.26497 0.39375 0.0
C276 C 0.19484 0.09207 0.37598 0.0
N277 N 0.19145 0.11267 0.35114 0.0
C278 C 0.1689 0.08412 0.39502 0.0
C279 C 0.13932 0.0974 0.38848 0.0
C280 C 0.13604 0.11837 0.3631 0.0
C281 C 0.16252 0.12581 0.3446 0.0
C282 C 0.17151 0.08197 0.25524 0.0
C283 C 0.20636 0.13721 0.26268 0.0
C284 C 0.18801 0.08815 0.28334 0.0
N285 N 0.20503 0.11556 0.28682 0.0
C286 C 0.19018 0.13183 0.23425 0.0
C287 C 0.17263 0.104 0.23058 0.0
C288 C 0.28731 0.15618 0.3031 0.0
C289 C 0.3336 0.10047 0.41359 0.0
C290 C 0.34121 0.15074 0.37192 0.0
C291 C 0.36733 0.13188 0.37971 0.0
C292 C 0.36343 0.10658 0.40068 0.0
N293 N 0.31203 0.14463 0.3847 0.0
C294 C 0.30803 0.11987 0.40528 0.0
Co295 Co 0.32611 0.77345 0.87422 0.0
Co296 Co 0.37254 0.72358 0.8287 0.0
O297 O 0.36479 0.74883 0.86691 0.0
C298 C 0.3303 0.73265 0.9317 0.0
O299 O 0.33791 0.70823 0.9139 0.0
C300 C 0.42876 0.766 0.83159 0.0
O301 O 0.41028 0.78999 0.83895 0.0
O302 O 0.36012 0.75957 0.80056 0.0
O303 O 0.32556 0.78791 0.82948 0.0
H304 H 0.34619 0.67957 0.721 0.0
H305 H 0.38166 0.78235 0.91644 0.0
O306 O 0.32543 0.75981 0.9194 0.0
H307 H 0.36217 0.88739 0.86849 0.0
H308 H 0.25499 0.84671 0.93641 0.0
H309 H 0.26632 0.7836 0.83848 0.0
H310 H 0.32766 0.84188 0.85557 0.0
H311 H 0.30367 0.81577 0.92644 0.0
O312 O 0.41733 0.73833 0.8275 0.0
H313 H 0.3368 0.71125 0.7693 0.0
H314 H 0.4257 0.68215 0.8069 0.0
H315 H 0.21739 0.81444 0.84733 0.0
H316 H 0.41659 0.8273 0.93025 0.0
H317 H 0.21148 0.84628 0.89661 0.0
H318 H 0.40699 0.88025 0.90612 0.0
O319 O 0.2987 0.73656 0.8627 0.0
H320 H 0.43022 0.67295 0.91998 0.0
H321 H 0.35541 0.65482 0.8318 0.0
H322 H 0.36954 0.61034 0.86716 0.0
H323 H 0.40725 0.61926 0.9116 0.0
H324 H 0.4152 0.71683 0.88421 0.0
H325 H 0.43621 0.65039 0.75884 0.0
H326 H 0.39621 0.64885 0.71553 0.0
O327 O 0.32815 0.70813 0.82864 0.0
C328 C 0.33999 0.78198 0.80366 0.0
C329 C 0.36377 0.67999 0.73973 0.0
C330 C 0.41431 0.66365 0.76095 0.0
N331 N 0.3806 0.69841 0.79098 0.0
C332 C 0.35856 0.69783 0.76718 0.0
C333 C 0.40827 0.68174 0.78807 0.0
C334 C 0.39185 0.66278 0.73667 0.0
C335 C 0.37716 0.8054 0.90607 0.0
N336 N 0.35258 0.8095 0.8853 0.0
C337 C 0.39709 0.83073 0.91388 0.0
C338 C 0.39172 0.86042 0.9003 0.0
C339 C 0.36659 0.86443 0.87916 0.0
C340 C 0.34718 0.83855 0.87186 0.0
C341 C 0.25729 0.83295 0.91484 0.0
C342 C 0.264 0.79751 0.85992 0.0
C343 C 0.28476 0.8153 0.90912 0.0
N344 N 0.28789 0.79799 0.88185 0.0
C345 C 0.2362 0.81487 0.86482 0.0
C346 C 0.23289 0.83271 0.89249 0.0
C347 C 0.30223 0.71383 0.84297 0.0
C348 C 0.41382 0.66874 0.90065 0.0
C349 C 0.37173 0.65893 0.85115 0.0
C350 C 0.37971 0.63362 0.87105 0.0
C351 C 0.40089 0.63864 0.89597 0.0
N352 N 0.38454 0.68838 0.85588 0.0
C353 C 0.40533 0.69347 0.88025 0.0
Co354 Co 0.76786 0.87675 0.32848 0.0
Co355 Co 0.7205 0.82813 0.37391 0.0
O356 O 0.74452 0.86719 0.36735 0.0
C357 C 0.72725 0.93404 0.33644 0.0
O358 O 0.7017 0.91625 0.33795 0.0
C359 C 0.76332 0.83061 0.4296 0.0
O360 O 0.78687 0.83863 0.41085 0.0
O361 O 0.75731 0.8018 0.36051 0.0
O362 O 0.78229 0.83208 0.32449 0.0
H363 H 0.68004 0.71977 0.34452 0.0
H364 H 0.77895 0.91505 0.38656 0.0
O365 O 0.75444 0.92176 0.33194 0.0
H366 H 0.88313 0.8693 0.35932 0.0
H367 H 0.8376 0.94438 0.25876 0.0
H368 H 0.77644 0.8448 0.26632 0.0
H369 H 0.83626 0.85839 0.32602 0.0
H370 H 0.80857 0.93096 0.3078 0.0
O371 O 0.73557 0.82615 0.41855 0.0
H372 H 0.70989 0.76948 0.33638 0.0
H373 H 0.68034 0.80322 0.42667 0.0
H374 H 0.80531 0.85715 0.21695 0.0
H375 H 0.82527 0.92685 0.42032 0.0
H376 H 0.83618 0.90727 0.21294 0.0
H377 H 0.87782 0.90381 0.40683 0.0
O378 O 0.73006 0.86678 0.30177 0.0
H379 H 0.66728 0.91619 0.43417 0.0
H380 H 0.65159 0.82919 0.35742 0.0
H381 H 0.60605 0.86257 0.3728 0.0
H382 H 0.61375 0.90641 0.4115 0.0
H383 H 0.71222 0.88237 0.41792 0.0
H384 H 0.6504 0.75371 0.43593 0.0
H385 H 0.65002 0.71163 0.39461 0.0
O386 O 0.70487 0.82891 0.32954 0.0
C387 C 0.77821 0.8059 0.339 0.0
C388 C 0.67995 0.73796 0.36267 0.0
C389 C 0.66335 0.757 0.41399 0.0
N390 N 0.69668 0.78932 0.38094 0.0
C391 C 0.69674 0.7662 0.35816 0.0
C392 C 0.6804 0.78495 0.40865 0.0
C393 C 0.66314 0.7334 0.39079 0.0
C394 C 0.80178 0.90517 0.38035 0.0
N395 N 0.80488 0.88612 0.35427 0.0
C396 C 0.82791 0.91184 0.39964 0.0
C397 C 0.85737 0.89886 0.39208 0.0
C398 C 0.86036 0.87947 0.36545 0.0
C399 C 0.8337 0.87329 0.34673 0.0
C400 C 0.82427 0.92245 0.26023 0.0
C401 C 0.78994 0.86657 0.26483 0.0
C402 C 0.80771 0.91476 0.28791 0.0
N403 N 0.79096 0.88704 0.28999 0.0
C404 C 0.80619 0.87348 0.23678 0.0
C405 C 0.82347 0.90161 0.23454 0.0
C406 C 0.70883 0.84531 0.30449 0.0
C407 C 0.66361 0.89711 0.41735 0.0
C408 C 0.65515 0.84828 0.37417 0.0
C409 C 0.62926 0.86706 0.38286 0.0
C410 C 0.63359 0.89164 0.40459 0.0
N411 N 0.68451 0.85375 0.38685 0.0
C412 C 0.68894 0.87782 0.40814 0.0
Co413 Co 0.67643 0.22392 0.87334 0.0
Co414 Co 0.62744 0.27145 0.82855 0.0
O415 O 0.63719 0.24783 0.86726 0.0
C416 C 0.67373 0.2655 0.93007 0.0
O417 O 0.6655 0.28951 0.91198 0.0
C418 C 0.57007 0.2308 0.83631 0.0
O419 O 0.588 0.20537 0.83831 0.0
O420 O 0.63704 0.23368 0.80168 0.0
O421 O 0.67566 0.20893 0.82872 0.0
H422 H 0.64645 0.30907 0.71696 0.0
H423 H 0.62233 0.21449 0.91722 0.0
O424 O 0.6784 0.2381 0.91825 0.0
H425 H 0.64279 0.10913 0.87044 0.0
H426 H 0.75139 0.15312 0.93388 0.0
H427 H 0.73509 0.21463 0.83562 0.0
H428 H 0.67584 0.15518 0.85577 0.0
H429 H 0.70166 0.18278 0.92525 0.0
O430 O 0.58234 0.25807 0.83204 0.0
H431 H 0.65892 0.27993 0.76617 0.0
H432 H 0.57346 0.31269 0.80839 0.0
H433 H 0.78504 0.18509 0.84314 0.0
H434 H 0.58885 0.16902 0.93278 0.0
H435 H 0.79345 0.15405 0.89258 0.0
H436 H 0.59896 0.11588 0.90926 0.0
O437 O 0.70244 0.26124 0.86058 0.0
H438 H 0.5779 0.32856 0.92081 0.0
H439 H 0.64615 0.33984 0.82643 0.0
H440 H 0.6356 0.38658 0.86005 0.0
H441 H 0.60119 0.38111 0.9076 0.0
H442 H 0.58934 0.28236 0.88673 0.0
H443 H 0.55994 0.34201 0.75953 0.0
H444 H 0.59664 0.34041 0.71343 0.0
O445 O 0.67216 0.28588 0.82436 0.0
C446 C 0.65872 0.21264 0.804 0.0
C447 C 0.63031 0.31003 0.73692 0.0
C448 C 0.58174 0.32848 0.76081 0.0
N449 N 0.61705 0.29477 0.79021 0.0
C450 C 0.63728 0.29364 0.76489 0.0
C451 C 0.58948 0.31177 0.78838 0.0
C452 C 0.60235 0.32758 0.73495 0.0
C453 C 0.62702 0.19139 0.90707 0.0
N454 N 0.65108 0.18748 0.8857 0.0
C455 C 0.60792 0.16575 0.91589 0.0
C456 C 0.61358 0.13596 0.90266 0.0
C457 C 0.63815 0.13216 0.88085 0.0
C458 C 0.65674 0.15835 0.87257 0.0
C459 C 0.74799 0.16652 0.91222 0.0
C460 C 0.73849 0.20103 0.85712 0.0
C461 C 0.71991 0.18342 0.90724 0.0
N462 N 0.71539 0.20026 0.87987 0.0
C463 C 0.76686 0.18442 0.86128 0.0
C464 C 0.77157 0.16704 0.88903 0.0
C465 C 0.69829 0.28213 0.83905 0.0
C466 C 0.59287 0.33126 0.90011 0.0
C467 C 0.63129 0.33722 0.84716 0.0
C468 C 0.62531 0.3638 0.86605 0.0
C469 C 0.60598 0.36073 0.89271 0.0
N470 N 0.61833 0.30839 0.85455 0.0
C471 C 0.59933 0.3052 0.88065 0.0
Co472 Co 0.26863 0.82365 0.62416 0.0
Co473 Co 0.22299 0.87157 0.67225 0.0
O474 O 0.24575 0.8632 0.63262 0.0
C475 C 0.22631 0.83042 0.568 0.0
O476 O 0.20293 0.83959 0.58642 0.0
C477 C 0.2656 0.92746 0.66574 0.0
O478 O 0.28891 0.90869 0.65709 0.0
O479 O 0.26061 0.85914 0.69794 0.0
O480 O 0.2847 0.82198 0.66844 0.0
H481 H 0.18676 0.84723 0.78324 0.0
H482 H 0.27847 0.87914 0.58204 0.0
O483 O 0.25346 0.82394 0.5795 0.0
H484 H 0.3841 0.85462 0.62604 0.0
H485 H 0.33609 0.74985 0.55861 0.0
H486 H 0.27725 0.76302 0.65891 0.0
H487 H 0.3376 0.82215 0.64052 0.0
H488 H 0.30807 0.79993 0.57028 0.0
O489 O 0.23824 0.91626 0.67194 0.0
H490 H 0.21451 0.8367 0.73281 0.0
H491 H 0.18367 0.92546 0.69615 0.0
H492 H 0.30511 0.71264 0.64831 0.0
H493 H 0.3244 0.91205 0.56668 0.0
H494 H 0.3348 0.70581 0.59784 0.0
H495 H 0.37767 0.89991 0.58881 0.0
O496 O 0.23107 0.79788 0.63658 0.0
H497 H 0.16693 0.92935 0.58427 0.0
H498 H 0.15405 0.85513 0.6739 0.0
H499 H 0.10744 0.86971 0.64165 0.0
H500 H 0.11371 0.90713 0.5965 0.0
H501 H 0.21297 0.91388 0.61695 0.0
H502 H 0.15577 0.93707 0.7463 0.0
H503 H 0.15713 0.89774 0.79024 0.0
O504 O 0.20693 0.82719 0.67389 0.0
C505 C 0.28143 0.83751 0.69412 0.0
C506 C 0.18591 0.86451 0.76424 0.0
C507 C 0.16856 0.91495 0.74352 0.0
N508 N 0.20053 0.88035 0.71148 0.0
C509 C 0.20151 0.85865 0.73559 0.0
C510 C 0.18445 0.90828 0.7152 0.0
C511 C 0.16932 0.89287 0.76816 0.0
C512 C 0.30162 0.87354 0.59155 0.0
N513 N 0.30535 0.84869 0.61207 0.0
C514 C 0.32752 0.89233 0.58286 0.0
C515 C 0.35739 0.88553 0.59532 0.0
C516 C 0.36101 0.86014 0.61624 0.0
C517 C 0.33457 0.8419 0.62443 0.0
C518 C 0.32328 0.75256 0.58071 0.0
C519 C 0.29027 0.76031 0.63697 0.0
C520 C 0.30732 0.78084 0.58742 0.0
N521 N 0.29119 0.78447 0.61533 0.0
C522 C 0.30594 0.73169 0.63107 0.0
C523 C 0.32256 0.72786 0.60274 0.0
C524 C 0.21028 0.80155 0.65827 0.0
C525 C 0.16388 0.91308 0.60392 0.0
C526 C 0.15701 0.8713 0.6542 0.0
C527 C 0.13051 0.87955 0.63608 0.0
C528 C 0.13403 0.90057 0.61077 0.0
N529 N 0.1862 0.88371 0.64736 0.0
C530 C 0.18984 0.90434 0.62259 0.0
Co531 Co 0.62304 0.72765 0.17141 0.0
Co532 Co 0.66843 0.77599 0.12424 0.0
O533 O 0.62993 0.75163 0.13246 0.0
C534 C 0.56443 0.76662 0.16616 0.0
O535 O 0.58161 0.79239 0.16251 0.0
C536 C 0.66222 0.7362 0.06625 0.0
O537 O 0.66034 0.71048 0.08379 0.0
O538 O 0.69545 0.73838 0.13394 0.0
O539 O 0.66825 0.71437 0.17293 0.0
H540 H 0.77891 0.81486 0.14682 0.0
H541 H 0.58269 0.71612 0.11492 0.0
O542 O 0.57756 0.73978 0.17052 0.0
H543 H 0.63162 0.61263 0.1395 0.0
H544 H 0.56168 0.65516 0.24412 0.0
H545 H 0.65831 0.7201 0.23183 0.0
H546 H 0.64279 0.6595 0.17274 0.0
H547 H 0.57146 0.68488 0.19461 0.0
O548 O 0.6662 0.76332 0.07893 0.0
H549 H 0.72981 0.78484 0.15753 0.0
H550 H 0.68941 0.81831 0.07142 0.0
H551 H 0.64961 0.69056 0.28162 0.0
H552 H 0.57059 0.66978 0.08123 0.0
H553 H 0.60099 0.65779 0.288 0.0
H554 H 0.59521 0.61759 0.09339 0.0
O555 O 0.63308 0.7657 0.19762 0.0
H556 H 0.57624 0.83241 0.07379 0.0
H557 H 0.66936 0.84421 0.1437 0.0
H558 H 0.63528 0.8906 0.13312 0.0
H559 H 0.58836 0.88488 0.09787 0.0
H560 H 0.61078 0.78657 0.08526 0.0
H561 H 0.73818 0.84851 0.05965 0.0
H562 H 0.78332 0.847 0.09756 0.0
O563 O 0.67121 0.78977 0.1693 0.0
C564 C 0.69308 0.71782 0.15608 0.0
C565 C 0.75938 0.81579 0.13016 0.0
C566 C 0.73653 0.83463 0.08121 0.0
N567 N 0.70669 0.8 0.11525 0.0
C568 C 0.73148 0.7989 0.13614 0.0
C569 C 0.709 0.81743 0.08797 0.0
C570 C 0.76184 0.83379 0.1025 0.0
C571 C 0.59334 0.69344 0.12051 0.0
N572 N 0.61342 0.69053 0.14581 0.0
C573 C 0.58646 0.66731 0.10128 0.0
C574 C 0.60031 0.63804 0.1081 0.0
C575 C 0.62076 0.63525 0.13394 0.0
C576 C 0.62711 0.66191 0.15262 0.0
C577 C 0.58297 0.66932 0.2416 0.0
C578 C 0.63718 0.70575 0.23435 0.0
C579 C 0.5886 0.68626 0.21365 0.0
N580 N 0.61553 0.70403 0.21024 0.0
C581 C 0.63234 0.68915 0.26263 0.0
C582 C 0.60505 0.67079 0.26621 0.0
C583 C 0.65495 0.78644 0.19455 0.0
C584 C 0.59666 0.83523 0.08913 0.0
C585 C 0.64891 0.84148 0.12847 0.0
C586 C 0.62975 0.86786 0.12248 0.0
C587 C 0.60344 0.86464 0.10268 0.0
N588 N 0.64213 0.8127 0.11506 0.0
C589 C 0.61637 0.80937 0.09563 0.0
Co590 Co 0.72459 0.17533 0.62326 0.0
Co591 Co 0.7729 0.12727 0.6682 0.0
O592 O 0.74897 0.13636 0.62952 0.0
C593 C 0.76576 0.17275 0.56629 0.0
O594 O 0.78999 0.16503 0.58429 0.0
C595 C 0.7333 0.06908 0.66081 0.0
O596 O 0.70759 0.08651 0.65818 0.0
O597 O 0.73514 0.13654 0.69513 0.0
O598 O 0.70995 0.17483 0.668 0.0
H599 H 0.8106 0.148 0.77945 0.0
H600 H 0.71539 0.12069 0.57994 0.0
O601 O 0.73838 0.17704 0.57823 0.0
H602 H 0.61028 0.14046 0.62738 0.0
H603 H 0.65252 0.24897 0.56258 0.0
H604 H 0.71501 0.23432 0.66047 0.0
H605 H 0.65605 0.17417 0.64137 0.0
H606 H 0.68276 0.1996 0.57146 0.0
O607 O 0.76024 0.08193 0.66525 0.0
H608 H 0.78109 0.1595 0.73023 0.0
H609 H 0.81512 0.07413 0.68871 0.0
H610 H 0.6849 0.28393 0.6527 0.0
H611 H 0.67019 0.08655 0.56505 0.0
H612 H 0.65337 0.29149 0.60344 0.0
H613 H 0.61719 0.09631 0.5889 0.0
O614 O 0.76172 0.2019 0.63545 0.0
H615 H 0.83012 0.07774 0.57602 0.0
H616 H 0.84104 0.14684 0.66987 0.0
H617 H 0.88769 0.13663 0.63609 0.0
H618 H 0.88241 0.1018 0.5888 0.0
H619 H 0.784 0.08886 0.61027 0.0
H620 H 0.84482 0.06157 0.73758 0.0
H621 H 0.84277 0.09872 0.78334 0.0
O622 O 0.78674 0.17221 0.67188 0.0
C623 C 0.7139 0.15802 0.69278 0.0
C624 C 0.81176 0.13166 0.75964 0.0
C625 C 0.83092 0.08314 0.73615 0.0
N626 N 0.79653 0.11761 0.70654 0.0
C627 C 0.79516 0.13808 0.73168 0.0
C628 C 0.81399 0.09033 0.70857 0.0
C629 C 0.82978 0.104 0.76182 0.0
C630 C 0.69235 0.12523 0.59023 0.0
N631 N 0.68835 0.14946 0.61142 0.0
C632 C 0.66687 0.10576 0.58179 0.0
C633 C 0.63714 0.11122 0.59521 0.0
C634 C 0.63326 0.13597 0.61682 0.0
C635 C 0.65929 0.15493 0.62473 0.0
C636 C 0.66613 0.24593 0.58416 0.0
C637 C 0.7012 0.23736 0.63906 0.0
C638 C 0.68336 0.21806 0.58928 0.0
N639 N 0.70047 0.214 0.61654 0.0
C640 C 0.68426 0.26554 0.63475 0.0
C641 C 0.6666 0.26978 0.6071 0.0
C642 C 0.78277 0.19813 0.65688 0.0
C643 C 0.83274 0.09291 0.5966 0.0
C644 C 0.8385 0.13181 0.64926 0.0
C645 C 0.86503 0.12602 0.63027 0.0
C646 C 0.86206 0.10645 0.60376 0.0
N647 N 0.80981 0.11843 0.6421 0.0
C648 C 0.80674 0.09919 0.61615 0.0
Co649 Co 0.3767 0.2691 0.16784 0.0
Co650 Co 0.32783 0.22126 0.12322 0.0
O651 O 0.36703 0.24519 0.12929 0.0
C652 C 0.43405 0.22847 0.16023 0.0
O653 O 0.41625 0.2029 0.15876 0.0
C654 C 0.33077 0.26231 0.06605 0.0
O655 O 0.33871 0.28655 0.08396 0.0
O656 O 0.3018 0.2587 0.13561 0.0
O657 O 0.33203 0.28355 0.17176 0.0
H658 H 0.21918 0.18246 0.15347 0.0
H659 H 0.41481 0.27942 0.10953 0.0
O660 O 0.42173 0.2557 0.16449 0.0
H661 H 0.36893 0.38399 0.13535 0.0
H662 H 0.44426 0.34012 0.23635 0.0
H663 H 0.34496 0.27844 0.22998 0.0
H664 H 0.35824 0.33756 0.16937 0.0
H665 H 0.43081 0.3103 0.18778 0.0
O666 O 0.32609 0.23502 0.07814 0.0
H667 H 0.26906 0.21221 0.16085 0.0
H668 H 0.30277 0.17967 0.07158 0.0
H669 H 0.35735 0.30813 0.27888 0.0
H670 H 0.42641 0.3253 0.07506 0.0
H671 H 0.40732 0.33927 0.28228 0.0
H672 H 0.40331 0.37804 0.08784 0.0
O673 O 0.36691 0.2316 0.19511 0.0
H674 H 0.41573 0.16587 0.06477 0.0
H675 H 0.32822 0.15265 0.14131 0.0
H676 H 0.36133 0.10648 0.12724 0.0
H677 H 0.40542 0.11292 0.08866 0.0
H678 H 0.38218 0.21147 0.07974 0.0
H679 H 0.2531 0.14982 0.06308 0.0
H680 H 0.21095 0.15099 0.10428 0.0
O681 O 0.32841 0.20671 0.16798 0.0
C682 C 0.30593 0.27969 0.15706 0.0
C683 C 0.2374 0.1817 0.13537 0.0
C684 C 0.25643 0.16342 0.08463 0.0
N685 N 0.28888 0.19753 0.11675 0.0
C686 C 0.26573 0.19843 0.13945 0.0
C687 C 0.28446 0.18044 0.08953 0.0
C688 C 0.23279 0.16407 0.10776 0.0
C689 C 0.4049 0.30235 0.11543 0.0
N690 N 0.38592 0.3058 0.1415 0.0
C691 C 0.41145 0.32822 0.09574 0.0
C692 C 0.39845 0.35778 0.10289 0.0
C693 C 0.37913 0.36113 0.12953 0.0
C694 C 0.37307 0.33472 0.14865 0.0
C695 C 0.4224 0.32668 0.23514 0.0
C696 C 0.36668 0.29206 0.2312 0.0
C697 C 0.4147 0.30967 0.20773 0.0
N698 N 0.38704 0.29278 0.20597 0.0
C699 C 0.3736 0.30876 0.25899 0.0
C700 C 0.40165 0.3262 0.2609 0.0
C701 C 0.34511 0.21065 0.19283 0.0
C702 C 0.39654 0.16274 0.08156 0.0
C703 C 0.34744 0.15568 0.12462 0.0
C704 C 0.36605 0.12943 0.11667 0.0
C705 C 0.39077 0.13305 0.095 0.0
N706 N 0.35321 0.18471 0.1113 0.0
C707 C 0.37741 0.18845 0.09005 0.0
Co708 Co 0.87227 0.67161 0.77327 0.0
Co709 Co 0.82282 0.62477 0.72852 0.0
O710 O 0.86254 0.63195 0.75123 0.0
C711 C 0.92925 0.66227 0.7325 0.0
O712 O 0.91121 0.66013 0.70716 0.0
C713 C 0.82842 0.56817 0.77033 0.0
O714 O 0.83746 0.58637 0.79395 0.0
O715 O 0.79791 0.63758 0.76645 0.0
O716 O 0.82757 0.67628 0.7879 0.0
H717 H 0.71238 0.65236 0.69298 0.0
H718 H 0.91071 0.61402 0.78628 0.0
O719 O 0.91722 0.66756 0.75968 0.0
H720 H 0.86544 0.64501 0.88964 0.0
H721 H 0.94055 0.74373 0.83988 0.0
H722 H 0.84062 0.7342 0.77969 0.0
H723 H 0.85412 0.67647 0.8416 0.0
H724 H 0.9267 0.69359 0.81294 0.0
O725 O 0.82217 0.57995 0.74324 0.0
H726 H 0.7632 0.6613 0.72059 0.0
H727 H 0.79724 0.57181 0.6889 0.0
H728 H 0.85342 0.78468 0.80644 0.0
H729 H 0.92294 0.58211 0.83379 0.0
H730 H 0.90372 0.78968 0.83681 0.0
H731 H 0.90016 0.59749 0.88594 0.0
O732 O 0.86221 0.6969 0.73459 0.0
H733 H 0.90983 0.56633 0.67174 0.0
H734 H 0.8207 0.64118 0.65955 0.0
H735 H 0.85246 0.6264 0.61269 0.0
H736 H 0.89735 0.58865 0.61861 0.0
H737 H 0.8776 0.58198 0.71803 0.0
H738 H 0.74667 0.56177 0.66115 0.0
H739 H 0.70385 0.60227 0.66299 0.0
O740 O 0.82223 0.66926 0.71287 0.0
C741 C 0.80184 0.66055 0.78579 0.0
C742 C 0.73088 0.63456 0.69192 0.0
C743 C 0.75012 0.58371 0.6741 0.0
N744 N 0.78325 0.61719 0.7062 0.0
C745 C 0.75975 0.63952 0.70744 0.0
C746 C 0.77868 0.58948 0.68992 0.0
C747 C 0.72611 0.60645 0.67513 0.0
C748 C 0.90094 0.62105 0.80892 0.0
N749 N 0.88179 0.64715 0.81115 0.0
C750 C 0.90785 0.60281 0.83573 0.0
C751 C 0.89502 0.61142 0.86497 0.0
C752 C 0.87551 0.63806 0.86706 0.0
C753 C 0.86909 0.65572 0.83974 0.0
C754 C 0.91854 0.74182 0.82677 0.0
C755 C 0.86246 0.73611 0.79301 0.0
C756 C 0.91061 0.71351 0.81141 0.0
N757 N 0.88279 0.7109 0.79492 0.0
C758 C 0.86962 0.76479 0.80804 0.0
C759 C 0.89786 0.7676 0.82504 0.0
C760 C 0.83943 0.69403 0.71485 0.0
C761 C 0.89028 0.58275 0.66884 0.0
C762 C 0.84028 0.62487 0.66236 0.0
C763 C 0.85813 0.61651 0.63571 0.0
C764 C 0.8833 0.59531 0.63904 0.0
N765 N 0.84723 0.61239 0.69149 0.0
C766 C 0.87189 0.59162 0.69495 0.0
Co767 Co 0.82947 0.37567 0.27224 0.0
Co768 Co 0.87657 0.32898 0.22497 0.0
O769 O 0.86838 0.3679 0.24857 0.0
C770 C 0.83483 0.43293 0.23133 0.0
O771 O 0.83774 0.41485 0.20611 0.0
C772 C 0.93384 0.33506 0.26574 0.0
O773 O 0.91583 0.33742 0.29106 0.0
O774 O 0.86577 0.30237 0.26261 0.0
O775 O 0.82773 0.33088 0.28666 0.0
H776 H 0.85304 0.21849 0.18643 0.0
H777 H 0.88606 0.4163 0.28254 0.0
O778 O 0.83064 0.42077 0.25865 0.0
H779 H 0.86176 0.36996 0.38724 0.0
H780 H 0.75746 0.43985 0.34283 0.0
H781 H 0.769 0.34079 0.28151 0.0
H782 H 0.82839 0.3576 0.34078 0.0
H783 H 0.80668 0.42887 0.31312 0.0
O784 O 0.92167 0.33083 0.23843 0.0
H785 H 0.84251 0.26796 0.2159 0.0
H786 H 0.92993 0.30682 0.18404 0.0
H787 H 0.71952 0.35067 0.31111 0.0
H788 H 0.91988 0.42956 0.32843 0.0
H789 H 0.71351 0.40052 0.34206 0.0
H790 H 0.90786 0.40624 0.38124 0.0
O791 O 0.80295 0.36444 0.23469 0.0
H792 H 0.929 0.42005 0.16842 0.0
H793 H 0.85828 0.32751 0.1565 0.0
H794 H 0.87 0.36098 0.10994 0.0
H795 H 0.90565 0.40761 0.11572 0.0
H796 H 0.9164 0.38611 0.21442 0.0
H797 H 0.94155 0.25763 0.15444 0.0
H798 H 0.90288 0.21309 0.15541 0.0
O799 O 0.83176 0.3266 0.21066 0.0
C800 C 0.8437 0.30548 0.28314 0.0
C801 C 0.87004 0.23776 0.18575 0.0
C802 C 0.91974 0.25971 0.16784 0.0
N803 N 0.88549 0.29033 0.20154 0.0
C804 C 0.86418 0.26587 0.20233 0.0
C805 C 0.91307 0.28747 0.18472 0.0
C806 C 0.89802 0.23474 0.16838 0.0
C807 C 0.88052 0.40625 0.30548 0.0
N808 N 0.8552 0.38625 0.30897 0.0
C809 C 0.89983 0.41376 0.33137 0.0
C810 C 0.89309 0.40064 0.36098 0.0
C811 C 0.86725 0.38026 0.36435 0.0
C812 C 0.84848 0.37326 0.33793 0.0
C813 C 0.75981 0.41803 0.32946 0.0
C814 C 0.76664 0.36246 0.29504 0.0
C815 C 0.78759 0.41173 0.31252 0.0
N816 N 0.79078 0.38413 0.29574 0.0
C817 C 0.73852 0.36796 0.31169 0.0
C818 C 0.73516 0.39595 0.32903 0.0
C819 C 0.80623 0.34233 0.21421 0.0
C820 C 0.91348 0.39976 0.16557 0.0
C821 C 0.87368 0.34783 0.15925 0.0
C822 C 0.88031 0.36665 0.13277 0.0
C823 C 0.90034 0.39279 0.13603 0.0
N824 N 0.88668 0.35478 0.18815 0.0
C825 C 0.90634 0.38039 0.19152 0.0
Co826 Co 0.17385 0.37149 0.72151 0.0
Co827 Co 0.12579 0.32481 0.76859 0.0
O828 O 0.13449 0.36389 0.74499 0.0
C829 C 0.16912 0.42775 0.76376 0.0
O830 O 0.16083 0.40922 0.78741 0.0
C831 C 0.06909 0.33183 0.7269 0.0
O832 O 0.08725 0.34061 0.70316 0.0
O833 O 0.13761 0.29813 0.73137 0.0
O834 O 0.17445 0.32702 0.70598 0.0
H835 H 0.14918 0.21439 0.80735 0.0
H836 H 0.11909 0.41462 0.71211 0.0
O837 O 0.17452 0.4163 0.73634 0.0
H838 H 0.14103 0.36905 0.60656 0.0
H839 H 0.24757 0.43514 0.65214 0.0
H840 H 0.23358 0.33549 0.71203 0.0
H841 H 0.17391 0.3544 0.65272 0.0
H842 H 0.1979 0.42469 0.68131 0.0
O843 O 0.08094 0.32535 0.7539 0.0
H844 H 0.15996 0.26399 0.77815 0.0
H845 H 0.07205 0.30245 0.809 0.0
H846 H 0.2835 0.34484 0.68298 0.0
H847 H 0.08581 0.43019 0.66652 0.0
H848 H 0.29075 0.39499 0.65276 0.0
H849 H 0.09665 0.40727 0.6133 0.0
O850 O 0.2001 0.35888 0.75875 0.0
H851 H 0.07021 0.41508 0.82321 0.0
H852 H 0.14278 0.32435 0.83743 0.0
H853 H 0.12934 0.35795 0.88343 0.0
H854 H 0.09276 0.40367 0.87648 0.0
H855 H 0.08453 0.38103 0.77779 0.0
H856 H 0.06018 0.25314 0.83832 0.0
H857 H 0.09896 0.20873 0.83771 0.0
O858 O 0.17018 0.32291 0.78416 0.0
C859 C 0.15894 0.30143 0.71013 0.0
C860 C 0.13213 0.2336 0.80787 0.0
C861 C 0.08216 0.25534 0.82521 0.0
N862 N 0.11674 0.28616 0.792 0.0
C863 C 0.13813 0.26178 0.79144 0.0
C864 C 0.08897 0.28317 0.8085 0.0
C865 C 0.10394 0.23043 0.82487 0.0
C866 C 0.12413 0.40477 0.68897 0.0
N867 N 0.14847 0.38371 0.68507 0.0
C868 C 0.10512 0.41357 0.66327 0.0
C869 C 0.11119 0.40067 0.63342 0.0
C870 C 0.13607 0.3792 0.62963 0.0
C871 C 0.15455 0.37091 0.65588 0.0
C872 C 0.24468 0.41319 0.66519 0.0
C873 C 0.23647 0.3573 0.6988 0.0
C874 C 0.21664 0.40717 0.68181 0.0
N875 N 0.21277 0.37944 0.69822 0.0
C876 C 0.26483 0.36249 0.68246 0.0
C877 C 0.26889 0.39064 0.66554 0.0
C878 C 0.19616 0.33771 0.78004 0.0
C879 C 0.08611 0.39518 0.82656 0.0
C880 C 0.12696 0.34427 0.83418 0.0
C881 C 0.11936 0.36317 0.86034 0.0
C882 C 0.09881 0.3888 0.85643 0.0
N883 N 0.11438 0.35066 0.80496 0.0
C884 C 0.0942 0.37574 0.80095 0.0
Co885 Co 0.12035 0.67014 0.22648 0.0
Co886 Co 0.1665 0.62423 0.27637 0.0
O887 O 0.12795 0.63169 0.25151 0.0
C888 C 0.06374 0.66695 0.26845 0.0
O889 O 0.08166 0.65842 0.29247 0.0
C890 C 0.16356 0.56745 0.23454 0.0
O891 O 0.15551 0.58549 0.21043 0.0
O892 O 0.19414 0.63651 0.23996 0.0
O893 O 0.16467 0.67013 0.21104 0.0
H894 H 0.27474 0.65126 0.31857 0.0
H895 H 0.07752 0.61479 0.2194 0.0
O896 O 0.0756 0.67153 0.24108 0.0
H897 H 0.12305 0.63243 0.11304 0.0
H898 H 0.05695 0.74084 0.1538 0.0
H899 H 0.15627 0.72956 0.21468 0.0
H900 H 0.13743 0.66742 0.15772 0.0
H901 H 0.06732 0.69242 0.18508 0.0
O902 O 0.16781 0.57931 0.26198 0.0
H903 H 0.22593 0.66028 0.28757 0.0
H904 H 0.18903 0.57146 0.318 0.0
H905 H 0.14702 0.77823 0.18347 0.0
H906 H 0.06226 0.57939 0.17531 0.0
H907 H 0.09703 0.78411 0.15275 0.0
H908 H 0.08516 0.58807 0.12168 0.0
O909 O 0.13279 0.69804 0.26266 0.0
H910 H 0.07628 0.56621 0.32845 0.0
H911 H 0.16415 0.64179 0.34503 0.0
H912 H 0.1295 0.62761 0.39001 0.0
H913 H 0.08522 0.58951 0.38187 0.0
H914 H 0.11134 0.58129 0.28405 0.0
H915 H 0.2376 0.56133 0.34909 0.0
H916 H 0.28082 0.60146 0.34961 0.0
O917 O 0.16655 0.66873 0.29156 0.0
C918 C 0.19062 0.65598 0.21703 0.0
C919 C 0.25605 0.63362 0.3186 0.0
C920 C 0.23522 0.58313 0.33569 0.0
N921 N 0.20457 0.6165 0.30112 0.0
C922 C 0.22831 0.63863 0.30115 0.0
C923 C 0.2078 0.58896 0.31798 0.0
C924 C 0.25945 0.60567 0.33598 0.0
C925 C 0.08737 0.61887 0.19607 0.0
N926 N 0.10825 0.64321 0.19112 0.0
C927 C 0.07873 0.59868 0.17122 0.0
C928 C 0.09163 0.60354 0.14115 0.0
C929 C 0.11291 0.62841 0.13629 0.0
C930 C 0.12103 0.6481 0.16171 0.0
C931 C 0.07884 0.73854 0.16705 0.0
C932 C 0.13454 0.73186 0.20123 0.0
C933 C 0.0848 0.71121 0.18487 0.0
N934 N 0.11245 0.70808 0.20155 0.0
C935 C 0.1294 0.75951 0.18367 0.0
C936 C 0.10134 0.7628 0.16646 0.0
C937 C 0.15239 0.69467 0.2855 0.0
C938 C 0.09554 0.58278 0.33232 0.0
C939 C 0.14485 0.62531 0.34126 0.0
C940 C 0.12537 0.6173 0.36684 0.0
C941 C 0.10054 0.5959 0.36227 0.0
N942 N 0.13983 0.6123 0.31196 0.0
C943 C 0.11554 0.59131 0.30729 0.0
Co944 Co 0.77407 0.87418 0.66798 0.0
Co945 Co 0.72538 0.82684 0.6225 0.0
O946 O 0.75018 0.86547 0.62916 0.0
C947 C 0.73417 0.93207 0.66098 0.0
O948 O 0.70868 0.91434 0.65809 0.0
C949 C 0.76671 0.82965 0.5655 0.0
O950 O 0.79096 0.83772 0.58331 0.0
O951 O 0.76204 0.79976 0.63499 0.0
O952 O 0.78789 0.82918 0.67113 0.0
H953 H 0.68377 0.71876 0.65134 0.0
H954 H 0.78509 0.91337 0.61052 0.0
O955 O 0.76124 0.9195 0.6655 0.0
H956 H 0.88883 0.86541 0.63567 0.0
H957 H 0.84591 0.93936 0.73793 0.0
H958 H 0.78257 0.84121 0.7296 0.0
H959 H 0.84219 0.85465 0.66931 0.0
H960 H 0.81607 0.92728 0.68901 0.0
O961 O 0.73945 0.82509 0.57759 0.0
H962 H 0.7146 0.76789 0.65947 0.0
H963 H 0.68366 0.80329 0.57026 0.0
H964 H 0.81226 0.85222 0.77882 0.0
H965 H 0.8312 0.92505 0.57644 0.0
H966 H 0.84423 0.90161 0.78322 0.0
H967 H 0.88352 0.90091 0.58888 0.0
O968 O 0.73638 0.86452 0.69496 0.0
H969 H 0.67278 0.91664 0.56423 0.0
H970 H 0.65668 0.82881 0.63995 0.0
H971 H 0.61153 0.86323 0.62574 0.0
H972 H 0.61943 0.90749 0.58757 0.0
H973 H 0.71734 0.8818 0.57934 0.0
H974 H 0.65274 0.7544 0.56102 0.0
H975 H 0.65256 0.71178 0.60179 0.0
O976 O 0.7104 0.82736 0.66703 0.0
C977 C 0.78329 0.80325 0.65629 0.0
C978 C 0.6836 0.73719 0.63342 0.0
C979 C 0.66621 0.75718 0.58271 0.0
N980 N 0.70078 0.78851 0.61545 0.0
C981 C 0.70094 0.7651 0.63792 0.0
C982 C 0.68384 0.78477 0.58804 0.0
C983 C 0.66611 0.73328 0.60561 0.0
C984 C 0.80784 0.90299 0.61626 0.0
N985 N 0.81094 0.88339 0.64193 0.0
C986 C 0.83384 0.9096 0.5968 0.0
C987 C 0.86317 0.89601 0.60376 0.0
C988 C 0.86616 0.87606 0.62999 0.0
C989 C 0.83963 0.86996 0.6489 0.0
C990 C 0.8321 0.91774 0.73628 0.0
C991 C 0.79656 0.86267 0.73125 0.0
C992 C 0.81509 0.91082 0.70868 0.0
N993 N 0.79775 0.88347 0.70638 0.0
C994 C 0.81326 0.86881 0.75923 0.0
C995 C 0.83116 0.89654 0.76168 0.0
C996 C 0.71471 0.84352 0.69215 0.0
C997 C 0.66902 0.89739 0.58084 0.0
C998 C 0.66034 0.84809 0.62344 0.0
C999 C 0.63466 0.86745 0.61541 0.0
C1000 C 0.63911 0.89227 0.59397 0.0
N1001 N 0.68961 0.85323 0.61043 0.0
C1002 C 0.69414 0.87752 0.5894 0.0
Co1003 Co 0.67708 0.22377 0.12284 0.0
Co1004 Co 0.62748 0.2708 0.16739 0.0
O1005 O 0.63761 0.2473 0.12873 0.0
C1006 C 0.67411 0.26534 0.06614 0.0
O1007 O 0.66577 0.28927 0.08427 0.0
C1008 C 0.57059 0.2296 0.15936 0.0
O1009 O 0.5887 0.20426 0.15807 0.0
O1010 O 0.6372 0.23308 0.19422 0.0
O1011 O 0.67633 0.2088 0.16751 0.0
H1012 H 0.64533 0.30813 0.27926 0.0
H1013 H 0.62318 0.21368 0.07882 0.0
O1014 O 0.67899 0.23796 0.07792 0.0
H1015 H 0.64487 0.10858 0.12568 0.0
H1016 H 0.75312 0.15398 0.06254 0.0
H1017 H 0.73572 0.21518 0.16078 0.0
H1018 H 0.67727 0.15506 0.14046 0.0
H1019 H 0.70294 0.18293 0.07105 0.0
O1020 O 0.58257 0.25703 0.16348 0.0
H1021 H 0.6585 0.27943 0.22999 0.0
H1022 H 0.57295 0.31141 0.18729 0.0
H1023 H 0.78611 0.18637 0.15338 0.0
H1024 H 0.59034 0.16777 0.06314 0.0
H1025 H 0.79507 0.1555 0.10395 0.0
H1026 H 0.60108 0.11477 0.08669 0.0
O1027 O 0.70258 0.26138 0.13564 0.0
H1028 H 0.57808 0.32779 0.07494 0.0
H1029 H 0.64558 0.33932 0.16987 0.0
H1030 H 0.63481 0.3861 0.13636 0.0
H1031 H 0.60077 0.38052 0.08854 0.0
H1032 H 0.58972 0.28156 0.10893 0.0
H1033 H 0.55874 0.34029 0.2362 0.0
H1034 H 0.59512 0.33885 0.28259 0.0
O1035 O 0.67207 0.2856 0.17194 0.0
C1036 C 0.65914 0.21231 0.19208 0.0
C1037 C 0.62933 0.30903 0.25918 0.0
C1038 C 0.58071 0.32704 0.23502 0.0
N1039 N 0.61663 0.29392 0.20571 0.0
C1040 C 0.6367 0.29289 0.23118 0.0
C1041 C 0.58885 0.31058 0.20741 0.0
C1042 C 0.60114 0.32623 0.26104 0.0
C1043 C 0.62814 0.19064 0.08899 0.0
N1044 N 0.65219 0.18704 0.11044 0.0
C1045 C 0.6094 0.16476 0.0801 0.0
C1046 C 0.61541 0.13503 0.09335 0.0
C1047 C 0.63997 0.13155 0.11525 0.0
C1048 C 0.65818 0.15798 0.1236 0.0
C1049 C 0.74947 0.16731 0.0842 0.0
C1050 C 0.73935 0.20164 0.13929 0.0
C1051 C 0.72114 0.1838 0.08911 0.0
N1052 N 0.71633 0.20056 0.11647 0.0
C1053 C 0.76798 0.18545 0.1352 0.0
C1054 C 0.773 0.16816 0.10745 0.0
C1055 C 0.69823 0.28214 0.15724 0.0
C1056 C 0.59288 0.33055 0.09576 0.0
C1057 C 0.63089 0.33665 0.14902 0.0
C1058 C 0.62478 0.36325 0.13019 0.0
C1059 C 0.60566 0.36011 0.10337 0.0
N1060 N 0.61824 0.30773 0.14142 0.0
C1061 C 0.59946 0.30448 0.11517 0.0
Co1062 Co 0.22836 0.12136 0.67014 0.0
Co1063 Co 0.27639 0.16787 0.62289 0.0
O1064 O 0.25223 0.12895 0.631 0.0
C1065 C 0.26908 0.06381 0.66472 0.0
O1066 O 0.29325 0.08137 0.65586 0.0
C1067 C 0.23465 0.16274 0.56618 0.0
O1068 O 0.21068 0.15463 0.58435 0.0
O1069 O 0.2394 0.19487 0.63463 0.0
O1070 O 0.21347 0.16605 0.67109 0.0
H1071 H 0.31606 0.27767 0.64766 0.0
H1072 H 0.2186 0.0792 0.61471 0.0
O1073 O 0.24222 0.07626 0.67054 0.0
H1074 H 0.11361 0.12588 0.63684 0.0
H1075 H 0.15742 0.05839 0.74299 0.0
H1076 H 0.2195 0.15687 0.73025 0.0
H1077 H 0.15978 0.13937 0.67018 0.0
H1078 H 0.18686 0.06879 0.69346 0.0
O1079 O 0.26194 0.168 0.57799 0.0
H1080 H 0.2863 0.22825 0.65774 0.0
H1081 H 0.31746 0.19032 0.56968 0.0
H1082 H 0.19021 0.14756 0.78005 0.0
H1083 H 0.17298 0.06479 0.58094 0.0
H1084 H 0.15889 0.098 0.78667 0.0
H1085 H 0.12004 0.08827 0.59188 0.0
O1086 O 0.26575 0.13297 0.69664 0.0
H1087 H 0.33036 0.07779 0.56639 0.0
H1088 H 0.34509 0.1673 0.64042 0.0
H1089 H 0.3908 0.1334 0.62676 0.0
H1090 H 0.38359 0.08831 0.58944 0.0
H1091 H 0.28522 0.1121 0.58095 0.0
H1092 H 0.34734 0.23945 0.55852 0.0
H1093 H 0.34685 0.28351 0.59773 0.0
O1094 O 0.29175 0.1691 0.66742 0.0
C1095 C 0.21786 0.19161 0.65563 0.0
C1096 C 0.31653 0.25861 0.63043 0.0
C1097 C 0.33405 0.23717 0.58038 0.0
N1098 N 0.3003 0.20635 0.61441 0.0
C1099 C 0.29979 0.23054 0.63603 0.0
C1100 C 0.31703 0.20944 0.58679 0.0
C1101 C 0.33378 0.26188 0.60239 0.0
C1102 C 0.19558 0.0893 0.61978 0.0
N1103 N 0.19185 0.11004 0.64445 0.0
C1104 C 0.16986 0.08115 0.60051 0.0
C1105 C 0.14018 0.09437 0.60663 0.0
C1106 C 0.13656 0.1155 0.63183 0.0
C1107 C 0.16282 0.12314 0.65057 0.0
C1108 C 0.17095 0.08009 0.74037 0.0
C1109 C 0.20579 0.13532 0.73287 0.0
C1110 C 0.18773 0.08607 0.71242 0.0
N1111 N 0.20475 0.11348 0.7089 0.0
C1112 C 0.18931 0.13015 0.76116 0.0
C1113 C 0.17177 0.10233 0.76487 0.0
C1114 C 0.28742 0.15385 0.69311 0.0
C1115 C 0.33381 0.09741 0.58262 0.0
C1116 C 0.34172 0.14763 0.62429 0.0
C1117 C 0.36772 0.12858 0.61656 0.0
C1118 C 0.36366 0.1033 0.5956 0.0
N1119 N 0.31252 0.14173 0.61143 0.0
C1120 C 0.30837 0.117 0.59085 0.0
Co1121 Co 0.32197 0.77164 0.12617 0.0
Co1122 Co 0.36993 0.72458 0.17237 0.0
O1123 O 0.36129 0.74815 0.13334 0.0
C1124 C 0.32751 0.73149 0.06835 0.0
O1125 O 0.33502 0.70695 0.08603 0.0
C1126 C 0.42752 0.76495 0.1658 0.0
O1127 O 0.40973 0.79035 0.16257 0.0
O1128 O 0.35973 0.76244 0.19884 0.0
O1129 O 0.32081 0.78588 0.1711 0.0
H1130 H 0.34771 0.68735 0.2835 0.0
H1131 H 0.37767 0.78265 0.08472 0.0
O1132 O 0.32198 0.75842 0.08087 0.0
H1133 H 0.35364 0.88688 0.13232 0.0
H1134 H 0.24826 0.84264 0.0643 0.0
H1135 H 0.26177 0.77922 0.16178 0.0
H1136 H 0.32071 0.84011 0.14479 0.0
H1137 H 0.29812 0.81359 0.07424 0.0
O1138 O 0.41506 0.7378 0.17016 0.0
H1139 H 0.33673 0.71642 0.2339 0.0
H1140 H 0.42311 0.68309 0.19408 0.0
H1141 H 0.21165 0.80811 0.15294 0.0
H1142 H 0.41106 0.82887 0.07133 0.0
H1143 H 0.20465 0.84011 0.10389 0.0
H1144 H 0.39917 0.88144 0.09528 0.0
O1145 O 0.29611 0.73366 0.13734 0.0
H1146 H 0.42183 0.66711 0.08165 0.0
H1147 H 0.35095 0.65624 0.17413 0.0
H1148 H 0.3623 0.6094 0.14092 0.0
H1149 H 0.39803 0.61465 0.09433 0.0
H1150 H 0.40957 0.71343 0.1153 0.0
H1151 H 0.43516 0.65384 0.24336 0.0
H1152 H 0.39725 0.65575 0.28846 0.0
O1153 O 0.32513 0.71034 0.17539 0.0
C1154 C 0.33744 0.78277 0.19612 0.0
C1155 C 0.36439 0.68625 0.26399 0.0
C1156 C 0.41348 0.66749 0.24147 0.0
N1157 N 0.37916 0.70131 0.21104 0.0
C1158 C 0.35826 0.70261 0.23581 0.0
C1159 C 0.40658 0.68417 0.21365 0.0
C1160 C 0.39219 0.66856 0.26676 0.0
C1161 C 0.3722 0.8055 0.09504 0.0
N1162 N 0.34721 0.80868 0.11545 0.0
C1163 C 0.39125 0.83156 0.08745 0.0
C1164 C 0.38459 0.86104 0.10093 0.0
C1165 C 0.35907 0.86411 0.12173 0.0
C1166 C 0.34056 0.83751 0.12879 0.0
C1167 C 0.25104 0.82881 0.08578 0.0
C1168 C 0.25898 0.79322 0.14044 0.0
C1169 C 0.27918 0.81223 0.09148 0.0
N1170 N 0.28291 0.79484 0.11862 0.0
C1171 C 0.23051 0.80947 0.13554 0.0
C1172 C 0.22659 0.82739 0.10801 0.0
C1173 C 0.29962 0.71333 0.15953 0.0
C1174 C 0.40628 0.6645 0.10193 0.0
C1175 C 0.36638 0.65877 0.15381 0.0
C1176 C 0.37281 0.63213 0.13515 0.0
C1177 C 0.39288 0.63509 0.10903 0.0
N1178 N 0.37962 0.68755 0.14671 0.0
C1179 C 0.39935 0.69062 0.12115 0.0
Co1180 Co 0.72426 0.17664 0.37333 0.0
Co1181 Co 0.77178 0.12669 0.32963 0.0
O1182 O 0.74776 0.13713 0.36786 0.0
C1183 C 0.76554 0.17394 0.43018 0.0
O1184 O 0.78949 0.16557 0.41212 0.0
C1185 C 0.72976 0.07046 0.33726 0.0
O1186 O 0.70471 0.08898 0.33809 0.0
O1187 O 0.73469 0.13677 0.30206 0.0
O1188 O 0.70954 0.1755 0.32861 0.0
H1189 H 0.81157 0.1439 0.21851 0.0
H1190 H 0.71398 0.123 0.41766 0.0
O1191 O 0.73822 0.17887 0.4183 0.0
H1192 H 0.60918 0.14435 0.37014 0.0
H1193 H 0.65413 0.25322 0.43258 0.0
H1194 H 0.71587 0.23499 0.33486 0.0
H1195 H 0.65567 0.17674 0.35542 0.0
H1196 H 0.6832 0.20297 0.4247 0.0
O1197 O 0.7574 0.08196 0.33339 0.0
H1198 H 0.78195 0.15748 0.26712 0.0
H1199 H 0.81209 0.07163 0.31066 0.0
H1200 H 0.68694 0.28544 0.34162 0.0
H1201 H 0.66806 0.09019 0.43327 0.0
H1202 H 0.65579 0.29481 0.39079 0.0
H1203 H 0.61521 0.10075 0.40939 0.0
O1204 O 0.76191 0.20207 0.36056 0.0
H1205 H 0.82647 0.07687 0.42324 0.0
H1206 H 0.84046 0.14416 0.32846 0.0
H1207 H 0.88644 0.13301 0.36291 0.0
H1208 H 0.87961 0.09909 0.41066 0.0
H1209 H 0.78106 0.08887 0.38833 0.0
H1210 H 0.84185 0.057 0.26241 0.0
H1211 H 0.84181 0.09333 0.21595 0.0
O1212 O 0.78711 0.17114 0.32529 0.0
C1213 C 0.71361 0.15844 0.30403 0.0
C1214 C 0.81185 0.12792 0.23864 0.0
C1215 C 0.82881 0.07913 0.26326 0.0
N1216 N 0.79548 0.11548 0.29178 0.0
C1217 C 0.7952 0.13552 0.26626 0.0
C1218 C 0.81186 0.0875 0.29049 0.0
C1219 C 0.82879 0.09953 0.2372 0.0
C1220 C 0.69101 0.12788 0.40734 0.0
N1221 N 0.68749 0.15183 0.38573 0.0
C1222 C 0.66511 0.10916 0.41619 0.0
C1223 C 0.63548 0.11507 0.40276 0.0
C1224 C 0.63208 0.13952 0.38071 0.0
C1225 C 0.65852 0.15773 0.3724 0.0
C1226 C 0.66758 0.24939 0.41104 0.0
C1227 C 0.70221 0.23881 0.35623 0.0
C1228 C 0.68414 0.22102 0.40648 0.0
N1229 N 0.70104 0.21597 0.37926 0.0
C1230 C 0.68595 0.26746 0.35997 0.0
C1231 C 0.66851 0.27271 0.38757 0.0
C1232 C 0.78325 0.19747 0.33959 0.0
C1233 C 0.82977 0.09161 0.40245 0.0
C1234 C 0.83725 0.12949 0.34926 0.0
C1235 C 0.8634 0.12318 0.36863 0.0
C1236 C 0.85956 0.10413 0.39541 0.0
N1237 N 0.8081 0.11711 0.35631 0.0
C1238 C 0.80417 0.09839 0.38252 0.0
Co1239 Co 0.37524 0.26896 0.82734 0.0
Co1240 Co 0.32697 0.22122 0.87264 0.0
O1241 O 0.36599 0.2454 0.86622 0.0
C1242 C 0.43326 0.22927 0.83529 0.0
O1243 O 0.4158 0.20353 0.8375 0.0
C1244 C 0.33011 0.26245 0.92972 0.0
O1245 O 0.33786 0.28671 0.91174 0.0
O1246 O 0.3006 0.25844 0.86023 0.0
O1247 O 0.33033 0.28275 0.82333 0.0
H1248 H 0.21833 0.18164 0.84332 0.0
H1249 H 0.41344 0.28059 0.88534 0.0
O1250 O 0.42052 0.25626 0.83069 0.0
H1251 H 0.36594 0.38414 0.85834 0.0
H1252 H 0.44148 0.3401 0.75769 0.0
H1253 H 0.34323 0.27688 0.76513 0.0
H1254 H 0.35578 0.33712 0.82497 0.0
H1255 H 0.42863 0.31077 0.80671 0.0
O1256 O 0.32543 0.23515 0.91767 0.0
H1257 H 0.26798 0.21164 0.83546 0.0
H1258 H 0.30256 0.17966 0.92461 0.0
H1259 H 0.35503 0.30604 0.71577 0.0
H1260 H 0.42451 0.32708 0.91917 0.0
H1261 H 0.40447 0.33795 0.71183 0.0
H1262 H 0.40059 0.3793 0.9058 0.0
O1263 O 0.36591 0.23094 0.80064 0.0
H1264 H 0.4156 0.16669 0.93086 0.0
H1265 H 0.32771 0.15252 0.85489 0.0
H1266 H 0.36122 0.10665 0.86899 0.0
H1267 H 0.4055 0.11357 0.9073 0.0
H1268 H 0.38166 0.212 0.91585 0.0
H1269 H 0.25314 0.14955 0.93359 0.0
H1270 H 0.21066 0.15032 0.89269 0.0
O1271 O 0.32733 0.20642 0.82795 0.0
C1272 C 0.30438 0.27903 0.83833 0.0
C1273 C 0.23669 0.18106 0.86128 0.0
C1274 C 0.25621 0.16309 0.91197 0.0
N1275 N 0.28822 0.19726 0.87947 0.0
C1276 C 0.2649 0.19794 0.85694 0.0
C1277 C 0.28411 0.18025 0.9068 0.0
C1278 C 0.2324 0.16351 0.889 0.0
C1279 C 0.40317 0.30329 0.87919 0.0
N1280 N 0.38403 0.30613 0.85315 0.0
C1281 C 0.40943 0.3295 0.89851 0.0
C1282 C 0.39596 0.35878 0.89103 0.0
C1283 C 0.37649 0.36151 0.86442 0.0
C1284 C 0.37073 0.33477 0.84567 0.0
C1285 C 0.41984 0.32631 0.75913 0.0
C1286 C 0.36472 0.29084 0.76367 0.0
C1287 C 0.41248 0.30959 0.7868 0.0
N1288 N 0.38512 0.29227 0.78885 0.0
C1289 C 0.37131 0.30724 0.73562 0.0
C1290 C 0.39906 0.32511 0.73341 0.0
C1291 C 0.34412 0.21002 0.80312 0.0
C1292 C 0.39633 0.16336 0.91419 0.0
C1293 C 0.34701 0.15576 0.87144 0.0
C1294 C 0.36585 0.12967 0.87942 0.0
C1295 C 0.39068 0.13357 0.90094 0.0
N1296 N 0.35267 0.1849 0.88459 0.0
C1297 C 0.37698 0.1889 0.90569 0.0
Co1298 Co 0.26901 0.82608 0.37572 0.0
Co1299 Co 0.22256 0.87416 0.32841 0.0
O1300 O 0.24594 0.86562 0.36765 0.0
C1301 C 0.22668 0.83196 0.43191 0.0
O1302 O 0.20328 0.84122 0.41355 0.0
C1303 C 0.26547 0.92996 0.33414 0.0
O1304 O 0.28885 0.91127 0.34282 0.0
O1305 O 0.25962 0.86146 0.30203 0.0
O1306 O 0.28493 0.82494 0.33138 0.0
H1307 H 0.18397 0.84995 0.21817 0.0
H1308 H 0.27857 0.88123 0.41832 0.0
O1309 O 0.25391 0.82583 0.4204 0.0
H1310 H 0.38427 0.85781 0.37394 0.0
H1311 H 0.33711 0.75211 0.44044 0.0
H1312 H 0.27796 0.76585 0.34038 0.0
H1313 H 0.33795 0.82516 0.35925 0.0
H1314 H 0.30869 0.80209 0.42932 0.0
O1315 O 0.23803 0.91875 0.32837 0.0
H1316 H 0.21273 0.83933 0.26802 0.0
H1317 H 0.18305 0.92824 0.30524 0.0
H1318 H 0.30626 0.71559 0.35041 0.0
H1319 H 0.32432 0.91432 0.43389 0.0
H1320 H 0.33611 0.70847 0.40077 0.0
H1321 H 0.37762 0.90272 0.41158 0.0
O1322 O 0.23157 0.8001 0.36316 0.0
H1323 H 0.16848 0.93218 0.41744 0.0
H1324 H 0.15352 0.85805 0.32806 0.0
H1325 H 0.10762 0.87281 0.3612 0.0
H1326 H 0.11494 0.91019 0.40623 0.0
H1327 H 0.21381 0.91654 0.38386 0.0
H1328 H 0.15417 0.93995 0.25566 0.0
H1329 H 0.15442 0.90059 0.21174 0.0
O1330 O 0.20627 0.82996 0.32708 0.0
C1331 C 0.28089 0.84022 0.30565 0.0
C1332 C 0.1836 0.86726 0.23716 0.0
C1333 C 0.16692 0.91778 0.2582 0.0
N1334 N 0.19941 0.88306 0.2896 0.0
C1335 C 0.19978 0.86135 0.26549 0.0
C1336 C 0.18337 0.91106 0.28618 0.0
C1337 C 0.16706 0.89568 0.23357 0.0
C1338 C 0.30174 0.87588 0.40872 0.0
N1339 N 0.30559 0.85123 0.38798 0.0
C1340 C 0.32753 0.89476 0.41753 0.0
C1341 C 0.35742 0.88828 0.40496 0.0
C1342 C 0.36117 0.8631 0.38382 0.0
C1343 C 0.33483 0.84475 0.37551 0.0
C1344 C 0.32424 0.75495 0.41839 0.0
C1345 C 0.29105 0.76301 0.36226 0.0
C1346 C 0.30804 0.78317 0.41199 0.0
N1347 N 0.29184 0.78696 0.38414 0.0
C1348 C 0.30696 0.73446 0.36785 0.0
C1349 C 0.32367 0.73047 0.39612 0.0
C1350 C 0.21017 0.80407 0.34212 0.0
C1351 C 0.16497 0.91594 0.39784 0.0
C1352 C 0.15694 0.87421 0.34769 0.0
C1353 C 0.13083 0.88256 0.36632 0.0
C1354 C 0.13495 0.90355 0.39156 0.0
N1355 N 0.1863 0.8865 0.35396 0.0
C1356 C 0.19052 0.9071 0.37867 0.0
Co1357 Co 0.62281 0.72965 0.82411 0.0
Co1358 Co 0.66739 0.77827 0.87229 0.0
O1359 O 0.62899 0.75389 0.8631 0.0
C1360 C 0.56498 0.76986 0.82779 0.0
O1361 O 0.58246 0.79439 0.83578 0.0
C1362 C 0.66096 0.73751 0.92958 0.0
O1363 O 0.65929 0.71208 0.91161 0.0
O1364 O 0.69497 0.74106 0.86241 0.0
O1365 O 0.66766 0.71542 0.82453 0.0
H1366 H 0.77783 0.81845 0.85188 0.0
H1367 H 0.58005 0.71993 0.87906 0.0
O1368 O 0.57759 0.74291 0.82262 0.0
H1369 H 0.62751 0.61499 0.85805 0.0
H1370 H 0.5629 0.65725 0.75008 0.0
H1371 H 0.66014 0.72067 0.76517 0.0
H1372 H 0.64099 0.66106 0.82454 0.0
H1373 H 0.5714 0.68742 0.79956 0.0
O1374 O 0.66469 0.76488 0.91738 0.0
H1375 H 0.72917 0.78816 0.84001 0.0
H1376 H 0.68729 0.81992 0.92603 0.0
H1377 H 0.65276 0.69062 0.71547 0.0
H1378 H 0.56563 0.67443 0.913 0.0
H1379 H 0.60384 0.65862 0.70769 0.0
H1380 H 0.58951 0.62151 0.90263 0.0
O1381 O 0.63469 0.76707 0.79776 0.0
H1382 H 0.57468 0.83365 0.92292 0.0
H1383 H 0.6678 0.84658 0.85323 0.0
H1384 H 0.63337 0.89264 0.86406 0.0
H1385 H 0.58645 0.88635 0.89919 0.0
H1386 H 0.60955 0.78813 0.9112 0.0
H1387 H 0.73562 0.85035 0.93897 0.0
H1388 H 0.78128 0.84984 0.90169 0.0
O1389 O 0.67077 0.79257 0.82752 0.0
C1390 C 0.6926 0.71976 0.84099 0.0
C1391 C 0.75807 0.81893 0.86828 0.0
C1392 C 0.73439 0.8368 0.91718 0.0
N1393 N 0.70534 0.80242 0.8822 0.0
C1394 C 0.73042 0.80188 0.86165 0.0
C1395 C 0.70712 0.81945 0.90976 0.0
C1396 C 0.75999 0.83651 0.89624 0.0
C1397 C 0.59037 0.69693 0.87426 0.0
N1398 N 0.61133 0.69316 0.84981 0.0
C1399 C 0.58219 0.67127 0.89362 0.0
C1400 C 0.59562 0.6416 0.88781 0.0
C1401 C 0.61697 0.63793 0.86282 0.0
C1402 C 0.62462 0.66414 0.84399 0.0
C1403 C 0.58433 0.67108 0.75321 0.0
C1404 C 0.63886 0.70667 0.76203 0.0
C1405 C 0.58922 0.68829 0.78114 0.0
N1406 N 0.61631 0.70566 0.78532 0.0
C1407 C 0.63478 0.68977 0.7338 0.0
C1408 C 0.60732 0.67184 0.72944 0.0
C1409 C 0.65596 0.78833 0.80155 0.0
C1410 C 0.5951 0.83671 0.90764 0.0
C1411 C 0.64736 0.8436 0.86842 0.0
C1412 C 0.62799 0.8698 0.87455 0.0
C1413 C 0.60169 0.86626 0.89428 0.0
N1414 N 0.64076 0.81469 0.88163 0.0
C1415 C 0.61502 0.81105 0.90102 0.0
C1416 C 0.18555 0.51656 0.25398 0.0
C1417 C 0.16801 0.53291 0.23085 0.0
H1418 H 0.20079 0.472 0.2721 0.0
C1419 C 0.15393 0.5157 0.20595 0.0
H1420 H 0.19728 0.52912 0.27312 0.0
C1421 C 0.15596 0.48241 0.20537 0.0
C1422 C 0.17216 0.46616 0.22964 0.0
H1423 H 0.14036 0.52779 0.18776 0.0
H1424 H 0.14386 0.46941 0.18676 0.0
C1425 C 0.18762 0.4837 0.25337 0.0
C1426 C 0.98082 0.65247 0.75879 0.0
C1427 C 0.964 0.65839 0.73065 0.0
H1428 H 0.02565 0.64748 0.78123 0.0
C1429 C 0.98089 0.66183 0.70205 0.0
H1430 H 0.9686 0.64905 0.78117 0.0
C1431 C 0.01423 0.66098 0.7021 0.0
C1432 C 0.03086 0.65662 0.73073 0.0
H1433 H 0.96846 0.66624 0.67999 0.0
H1434 H 0.0269 0.66477 0.68006 0.0
C1435 C 0.01369 0.65155 0.75882 0.0
C1436 C 0.83477 0.48419 0.20012 0.0
C1437 C 0.83675 0.46786 0.22919 0.0
H1438 H 0.83222 0.52978 0.1771 0.0
C1439 C 0.83982 0.48533 0.25739 0.0
H1440 H 0.8326 0.47127 0.17799 0.0
C1441 C 0.83965 0.51821 0.25688 0.0
C1442 C 0.83637 0.53478 0.22815 0.0
H1443 H 0.84201 0.47364 0.2802 0.0
H1444 H 0.8417 0.53061 0.27933 0.0
C1445 C 0.83458 0.51756 0.1996 0.0
C1446 C 0.01714 0.3122 0.74591 0.0
C1447 C 0.03428 0.33007 0.72363 0.0
H1448 H 0.97199 0.2995 0.76445 0.0
C1449 C 0.01766 0.34745 0.70046 0.0
H1450 H 0.02917 0.29802 0.76368 0.0
C1451 C 0.98432 0.34831 0.70091 0.0
C1452 C 0.96747 0.33181 0.72454 0.0
H1453 H 0.03035 0.36139 0.68297 0.0
H1454 H 0.97189 0.36287 0.68374 0.0
C1455 C 0.98425 0.31306 0.74637 0.0
C1456 C 0.15618 0.47866 0.7925 0.0
C1457 C 0.17169 0.46245 0.76777 0.0
H1458 H 0.14302 0.52415 0.81168 0.0
C1459 C 0.18857 0.47994 0.745 0.0
H1460 H 0.14306 0.46568 0.8104 0.0
C1461 C 0.18858 0.51287 0.74574 0.0
C1462 C 0.17169 0.52931 0.76926 0.0
H1463 H 0.20131 0.4682 0.726 0.0
H1464 H 0.20131 0.52545 0.72727 0.0
C1465 C 0.15618 0.51201 0.79323 0.0
C1466 C 0.98039 0.69108 0.24909 0.0
C1467 C 0.96255 0.67332 0.27087 0.0
H1468 H 0.02616 0.70335 0.23182 0.0
C1469 C 0.97833 0.656 0.29467 0.0
H1470 H 0.96893 0.70518 0.23088 0.0
C1471 C 0.01163 0.6549 0.2952 0.0
C1472 C 0.02923 0.67111 0.27193 0.0
H1473 H 0.96503 0.64216 0.31178 0.0
H1474 H 0.02347 0.64025 0.3127 0.0
C1475 C 0.01326 0.69 0.24962 0.0
C1476 C 0.80843 0.51624 0.75168 0.0
C1477 C 0.82663 0.53339 0.77369 0.0
H1478 H 0.79603 0.47104 0.73292 0.0
C1479 C 0.84463 0.5168 0.79639 0.0
H1480 H 0.7938 0.52829 0.73429 0.0
C1481 C 0.84591 0.48347 0.79561 0.0
C1482 C 0.82923 0.46664 0.77209 0.0
H1483 H 0.85884 0.52953 0.81364 0.0
H1484 H 0.86104 0.47106 0.81229 0.0
C1485 C 0.80973 0.48335 0.75088 0.0
C1486 C 0.98589 0.34235 0.23961 0.0
C1487 C 0.9687 0.33768 0.26775 0.0
H1488 H 0.03096 0.3458 0.21748 0.0
C1489 C 0.98526 0.33461 0.29659 0.0
H1490 H 0.97397 0.34545 0.21702 0.0
C1491 C 0.0186 0.33478 0.29686 0.0
C1492 C 0.03557 0.33806 0.26829 0.0
H1493 H 0.97254 0.33118 0.31867 0.0
H1494 H 0.03101 0.33145 0.31913 0.0
C1495 C 0.01875 0.34257 0.23988 0.0
C1496 C 0.25378 0.18346 0.51471 0.0
C1497 C 0.23109 0.16578 0.5315 0.0
H1498 H 0.27201 0.19736 0.46979 0.0
C1499 C 0.20697 0.15002 0.51461 0.0
H1500 H 0.27229 0.19644 0.52699 0.0
C1501 C 0.20682 0.15054 0.48127 0.0
C1502 C 0.23077 0.16686 0.46467 0.0
H1503 H 0.18914 0.13629 0.52705 0.0
H1504 H 0.18888 0.1372 0.46857 0.0
C1505 C 0.25362 0.184 0.48181 0.0
C1506 C 0.3409 0.70416 0.98336 0.0
C1507 C 0.32753 0.72971 0.96651 0.0
H1508 H 0.35151 0.68453 0.02932 0.0
C1509 C 0.31229 0.75405 0.9834 0.0
H1510 H 0.35274 0.68504 0.9709 0.0
C1511 C 0.31156 0.75374 0.01631 0.0
C1512 C 0.32608 0.7291 0.03341 0.0
H1513 H 0.30122 0.77381 0.97123 0.0
H1514 H 0.29999 0.7733 0.02833 0.0
C1515 C 0.34019 0.70386 0.0167 0.0
C1516 C 0.79241 0.84313 0.48029 0.0
C1517 C 0.76788 0.82731 0.46408 0.0
H1518 H 0.81143 0.8564 0.52582 0.0
C1519 C 0.74563 0.80964 0.48143 0.0
H1520 H 0.8099 0.85686 0.46738 0.0
C1521 C 0.74654 0.80932 0.51432 0.0
C1522 C 0.76968 0.82672 0.5308 0.0
H1523 H 0.72684 0.79664 0.46961 0.0
H1524 H 0.72839 0.7961 0.52686 0.0
C1525 C 0.7933 0.84285 0.51361 0.0
C1526 C 0.6941 0.24597 0.01448 0.0
C1527 C 0.67699 0.26893 0.03148 0.0
H1528 H 0.70683 0.22738 0.96934 0.0
C1529 C 0.66127 0.29322 0.01482 0.0
H1530 H 0.70699 0.2273 0.02661 0.0
C1531 C 0.66118 0.29327 0.9815 0.0
C1532 C 0.6768 0.26901 0.96471 0.0
H1533 H 0.64796 0.31124 0.02744 0.0
H1534 H 0.6478 0.31132 0.96899 0.0
C1535 C 0.69401 0.24602 0.98157 0.0
C1536 C 0.24404 0.80965 0.48331 0.0
C1537 C 0.22265 0.82886 0.46652 0.0
H1538 H 0.26141 0.79475 0.52828 0.0
C1539 C 0.19966 0.84623 0.48337 0.0
H1540 H 0.2616 0.79544 0.47103 0.0
C1541 C 0.19955 0.84584 0.51671 0.0
C1542 C 0.22243 0.82806 0.53331 0.0
H1543 H 0.18284 0.86116 0.4709 0.0
H1544 H 0.18266 0.86048 0.5294 0.0
C1545 C 0.24393 0.80925 0.51621 0.0
C1546 C 0.66247 0.70627 0.0143 0.0
C1547 C 0.6595 0.73483 0.03136 0.0
H1548 H 0.66533 0.68451 0.96816 0.0
C1549 C 0.6548 0.7633 0.01467 0.0
H1550 H 0.66592 0.68396 0.02661 0.0
C1551 C 0.65443 0.76361 0.98179 0.0
C1552 C 0.65877 0.73546 0.96448 0.0
H1553 H 0.6518 0.78569 0.02698 0.0
H1554 H 0.65118 0.78623 0.96997 0.0
C1555 C 0.66212 0.70659 0.98095 0.0
C1556 C 0.7936 0.16088 0.51475 0.0
C1557 C 0.76907 0.17593 0.53164 0.0
H1558 H 0.81183 0.14833 0.46874 0.0
C1559 C 0.74573 0.19277 0.51489 0.0
H1560 H 0.81192 0.1478 0.52717 0.0
C1561 C 0.74569 0.1931 0.48198 0.0
C1562 C 0.76898 0.17658 0.46487 0.0
H1563 H 0.72687 0.20516 0.5272 0.0
H1564 H 0.72678 0.20571 0.46995 0.0
C1565 C 0.79355 0.16119 0.48144 0.0
C1566 C 0.31173 0.24179 0.0144 0.0
C1567 C 0.32792 0.26549 0.03131 0.0
H1568 H 0.29936 0.22269 0.96937 0.0
C1569 C 0.34257 0.29037 0.01452 0.0
H1570 H 0.29966 0.22261 0.02659 0.0
C1571 C 0.3424 0.29041 0.98118 0.0
C1572 C 0.32757 0.26559 0.96448 0.0
H1573 H 0.35517 0.30897 0.02703 0.0
H1574 H 0.35487 0.30905 0.96859 0.0
C1575 C 0.31154 0.24184 0.98149 0.0
C1576 C 0.51924 0.19865 0.16077 0.0
C1577 C 0.53575 0.22738 0.1565 0.0
H1578 H 0.47354 0.17623 0.16537 0.0
C1579 C 0.5185 0.25533 0.15089 0.0
H1580 H 0.532 0.17672 0.16497 0.0
C1581 C 0.48562 0.25506 0.15114 0.0
C1582 C 0.46888 0.22682 0.15699 0.0
H1583 H 0.53038 0.2778 0.14688 0.0
H1584 H 0.47333 0.27733 0.14729 0.0
C1585 C 0.4859 0.19837 0.16101 0.0
C1586 C 0.51335 0.74783 0.81046 0.0
C1587 C 0.5301 0.77209 0.82599 0.0
H1588 H 0.46853 0.72727 0.79979 0.0
C1589 C 0.51308 0.79646 0.8412 0.0
H1590 H 0.52567 0.729 0.798 0.0
C1591 C 0.47978 0.79547 0.84221 0.0
C1592 C 0.46333 0.77007 0.82807 0.0
H1593 H 0.52544 0.81548 0.85332 0.0
H1594 H 0.46706 0.81376 0.85504 0.0
C1595 C 0.48048 0.74681 0.81151 0.0
C1596 C 0.75381 0.98528 0.34709 0.0
C1597 C 0.7257 0.96884 0.34002 0.0
H1598 H 0.77682 0.02984 0.3522 0.0
C1599 C 0.69762 0.98613 0.3349 0.0
H1600 H 0.77576 0.97273 0.35183 0.0
C1601 C 0.69824 0.01949 0.3351 0.0
C1602 C 0.72696 0.03569 0.34044 0.0
H1603 H 0.67559 0.97398 0.32958 0.0
H1604 H 0.67668 0.03249 0.32993 0.0
C1605 C 0.75443 0.01817 0.34731 0.0
C1606 C 0.48532 0.19946 0.83592 0.0
C1607 C 0.4682 0.22806 0.83803 0.0
H1608 H 0.53147 0.17768 0.83367 0.0
C1609 C 0.48489 0.25669 0.84174 0.0
H1610 H 0.47304 0.17703 0.83321 0.0
C1611 C 0.51778 0.25706 0.84202 0.0
C1612 C 0.53514 0.22882 0.83858 0.0
H1613 H 0.47256 0.27916 0.84403 0.0
H1614 H 0.52959 0.2798 0.84449 0.0
C1615 C 0.51867 0.19984 0.83618 0.0
C1616 C 0.248 0.98182 0.31288 0.0
C1617 C 0.26988 0.96457 0.33113 0.0
H1618 H 0.23107 0.02713 0.29854 0.0
C1619 C 0.29395 0.98096 0.34746 0.0
H1620 H 0.22957 0.96991 0.29946 0.0
C1621 C 0.29482 0.01432 0.34694 0.0
C1622 C 0.27163 0.03141 0.33005 0.0
H1623 H 0.31116 0.96816 0.36163 0.0
H1624 H 0.31267 0.02666 0.36073 0.0
C1625 C 0.24887 0.01473 0.31234 0.0
C1626 C 0.5123 0.79624 0.16407 0.0
C1627 C 0.52942 0.76757 0.16478 0.0
H1628 H 0.46615 0.81813 0.16387 0.0
C1629 C 0.51273 0.73871 0.16451 0.0
H1630 H 0.52458 0.81884 0.16409 0.0
C1631 C 0.47987 0.73831 0.16433 0.0
C1632 C 0.4625 0.76676 0.16446 0.0
H1633 H 0.525 0.7161 0.16457 0.0
H1634 H 0.46814 0.71541 0.16429 0.0
C1635 C 0.47895 0.79583 0.16393 0.0
C1636 C 0.70356 0.98368 0.65968 0.0
C1637 C 0.73252 0.96706 0.65899 0.0
H1638 H 0.68086 0.02945 0.66083 0.0
C1639 C 0.76098 0.98429 0.65715 0.0
H1640 H 0.68124 0.97098 0.66092 0.0
C1641 C 0.76077 0.0172 0.65707 0.0
C1642 C 0.73208 0.03406 0.65885 0.0
H1643 H 0.78375 0.97239 0.65607 0.0
H1644 H 0.78338 0.0294 0.65593 0.0
C1645 C 0.70334 0.01705 0.65961 0.0
C1646 C 0.24892 0.01272 0.68553 0.0
C1647 C 0.27176 0.029 0.66755 0.0
H1648 H 0.22953 0.96821 0.69933 0.0
C1649 C 0.29499 0.01152 0.65115 0.0
H1650 H 0.23108 0.02543 0.69899 0.0
C1651 C 0.2941 0.97816 0.65137 0.0
C1652 C 0.26996 0.96214 0.66798 0.0
H1653 H 0.3129 0.02354 0.63716 0.0
H1654 H 0.31136 0.96504 0.63757 0.0
C1655 C 0.24802 0.9798 0.68573 0.0
C1656 C 0.15988 0.24552 0.29421 0.0
C1657 C 0.16986 0.27604 0.30312 0.0
H1658 H 0.16704 0.19557 0.29891 0.0
C1659 C 0.19248 0.27915 0.32756 0.0
H1660 H 0.14244 0.24224 0.2756 0.0
C1661 C 0.20655 0.25239 0.34106 0.0
C1662 C 0.19846 0.22191 0.3303 0.0
H1663 H 0.20057 0.30231 0.33525 0.0
H1664 H 0.225 0.25575 0.35865 0.0
C1665 C 0.17412 0.21873 0.30757 0.0
C1666 C 0.27799 0.66918 0.81222 0.0
C1667 C 0.27425 0.69499 0.83317 0.0
H1668 H 0.25559 0.63639 0.78064 0.0
C1669 C 0.24348 0.70482 0.84124 0.0
H1670 H 0.30135 0.66074 0.80565 0.0
C1671 C 0.21715 0.69079 0.82679 0.0
C1672 C 0.22106 0.66659 0.80401 0.0
H1673 H 0.2397 0.7245 0.85736 0.0
H1674 H 0.19384 0.70001 0.83244 0.0
C1675 C 0.2517 0.65514 0.79781 0.0
C1676 C 0.83593 0.75646 0.29144 0.0
C1677 C 0.82606 0.72557 0.29912 0.0
H1678 H 0.82862 0.80612 0.29812 0.0
C1679 C 0.80302 0.72137 0.32296 0.0
H1680 H 0.85367 0.76055 0.27329 0.0
C1681 C 0.78872 0.7475 0.33736 0.0
C1682 C 0.79699 0.7784 0.32807 0.0
H1683 H 0.79498 0.69788 0.32966 0.0
H1684 H 0.77009 0.74338 0.35459 0.0
C1685 C 0.82147 0.78261 0.30569 0.0
C1686 C 0.78258 0.30959 0.82558 0.0
C1687 C 0.77859 0.33175 0.80084 0.0
H1688 H 0.76044 0.27667 0.85722 0.0
C1689 C 0.74772 0.34027 0.79169 0.0
H1690 H 0.80603 0.30261 0.83344 0.0
C1691 C 0.72152 0.32525 0.80532 0.0
C1692 C 0.72563 0.30149 0.8285 0.0
H1693 H 0.74374 0.3573 0.77283 0.0
H1694 H 0.69813 0.33137 0.79663 0.0
C1695 C 0.7564 0.29465 0.83928 0.0
C1696 C 0.16788 0.777 0.69208 0.0
C1697 C 0.19126 0.77379 0.66839 0.0
H1698 H 0.13747 0.75343 0.72529 0.0
C1699 C 0.19872 0.74332 0.6572 0.0
H1700 H 0.1613 0.80018 0.70109 0.0
C1701 C 0.18515 0.71658 0.67119 0.0
C1702 C 0.1636 0.71967 0.69655 0.0
H1703 H 0.21641 0.73992 0.63886 0.0
H1704 H 0.19286 0.69344 0.66312 0.0
C1705 C 0.15409 0.75019 0.70595 0.0
C1706 C 0.75155 0.70708 0.15439 0.0
C1707 C 0.72112 0.69868 0.16499 0.0
H1708 H 0.8015 0.70098 0.16016 0.0
C1709 C 0.71798 0.6737 0.18701 0.0
H1710 H 0.75482 0.72605 0.13733 0.0
C1711 C 0.74471 0.6591 0.19994 0.0
C1712 C 0.7752 0.66939 0.1914 0.0
H1713 H 0.69489 0.66637 0.19555 0.0
H1714 H 0.74139 0.64115 0.21806 0.0
C1715 C 0.77833 0.69265 0.16755 0.0
C1716 C 0.82631 0.22174 0.68971 0.0
C1717 C 0.80222 0.22563 0.66685 0.0
H1718 H 0.85871 0.24425 0.7216 0.0
C1719 C 0.79526 0.2563 0.65583 0.0
H1720 H 0.83255 0.19842 0.69856 0.0
C1721 C 0.81037 0.28263 0.6691 0.0
C1722 C 0.83278 0.27886 0.69364 0.0
H1723 H 0.77705 0.26015 0.63809 0.0
H1724 H 0.80325 0.30603 0.66115 0.0
C1725 C 0.84148 0.24806 0.7029 0.0
C1726 C 0.25688 0.3382 0.20418 0.0
C1727 C 0.22594 0.32873 0.19628 0.0
H1728 H 0.30645 0.33021 0.1979 0.0
C1729 C 0.22163 0.30576 0.17235 0.0
H1730 H 0.26107 0.35587 0.22238 0.0
C1731 C 0.24767 0.29107 0.15816 0.0
C1732 C 0.27859 0.29889 0.16773 0.0
H1733 H 0.1981 0.29803 0.16548 0.0
H1734 H 0.24345 0.27248 0.1409 0.0
C1735 C 0.28293 0.32336 0.19012 0.0
C1736 C 0.31368 0.16721 0.21823 0.0
C1737 C 0.33571 0.19221 0.2212 0.0
H1738 H 0.28133 0.13597 0.24168 0.0
C1739 C 0.34504 0.2019 0.25167 0.0
H1740 H 0.30611 0.1589 0.19512 0.0
C1741 C 0.33062 0.18876 0.27849 0.0
C1742 C 0.30672 0.16554 0.27536 0.0
H1743 H 0.36203 0.22095 0.25484 0.0
H1744 H 0.33714 0.19801 0.30157 0.0
C1745 C 0.29939 0.15399 0.24499 0.0
C1746 C 0.30889 0.82592 0.77861 0.0
C1747 C 0.33002 0.8002 0.77534 0.0
H1748 H 0.27718 0.85811 0.75558 0.0
C1749 C 0.33828 0.78994 0.74475 0.0
H1750 H 0.30218 0.83468 0.80182 0.0
C1751 C 0.32383 0.80343 0.71815 0.0
C1752 C 0.30088 0.82752 0.7216 0.0
H1753 H 0.35456 0.77033 0.74134 0.0
H1754 H 0.32958 0.79386 0.695 0.0
C1755 C 0.29451 0.83944 0.75204 0.0
C1756 C 0.70006 0.84479 0.24574 0.0
C1757 C 0.69033 0.83566 0.27625 0.0
H1758 H 0.69651 0.83638 0.19595 0.0
C1759 C 0.66552 0.81343 0.27934 0.0
H1760 H 0.71896 0.86191 0.24246 0.0
C1761 C 0.65255 0.79876 0.25264 0.0
C1762 C 0.66419 0.80591 0.22227 0.0
H1763 H 0.65721 0.80603 0.30251 0.0
H1764 H 0.63467 0.78058 0.256 0.0
C1765 C 0.6872 0.82998 0.21903 0.0
C1766 C 0.67037 0.18921 0.71842 0.0
C1767 C 0.69499 0.16672 0.72104 0.0
H1768 H 0.63916 0.2211 0.74259 0.0
C1769 C 0.70376 0.15589 0.75128 0.0
H1770 H 0.66273 0.19788 0.69546 0.0
C1771 C 0.69024 0.16935 0.77835 0.0
C1772 C 0.66755 0.19379 0.77574 0.0
H1773 H 0.72244 0.13847 0.75418 0.0
H1774 H 0.69891 0.16173 0.80132 0.0
C1775 C 0.65672 0.20254 0.74549 0.0
C1776 C 0.79269 0.74459 0.65747 0.0
C1777 C 0.80178 0.77528 0.66672 0.0
H1778 H 0.79764 0.69483 0.66525 0.0
C1779 C 0.82671 0.77882 0.68874 0.0
H1780 H 0.77374 0.74097 0.64047 0.0
C1781 C 0.84066 0.75228 0.70286 0.0
C1782 C 0.82978 0.72166 0.69546 0.0
H1783 H 0.83454 0.80214 0.69623 0.0
H1784 H 0.85865 0.7559 0.72086 0.0
C1785 C 0.80646 0.71809 0.67176 0.0
C1786 C 0.72134 0.32526 0.19113 0.0
C1787 C 0.72547 0.30156 0.16789 0.0
H1788 H 0.74363 0.35723 0.22372 0.0
C1789 C 0.75622 0.29475 0.15712 0.0
H1790 H 0.69793 0.33133 0.19982 0.0
C1791 C 0.78239 0.30957 0.17092 0.0
C1792 C 0.77841 0.33167 0.19568 0.0
H1793 H 0.76029 0.27683 0.13913 0.0
H1794 H 0.80582 0.30253 0.16308 0.0
C1795 C 0.74756 0.34025 0.20481 0.0
C1796 C 0.1921 0.27669 0.66752 0.0
C1797 C 0.16917 0.27339 0.69164 0.0
H1798 H 0.22532 0.25349 0.63697 0.0
C1799 C 0.15936 0.24278 0.70044 0.0
H1800 H 0.20006 0.29993 0.6599 0.0
C1801 C 0.17398 0.21612 0.6873 0.0
C1802 C 0.19862 0.21948 0.66495 0.0
H1803 H 0.14169 0.23933 0.71879 0.0
H1804 H 0.16693 0.19292 0.69587 0.0
C1805 C 0.20663 0.25002 0.65428 0.0
C1806 C 0.24929 0.65704 0.2079 0.0
C1807 C 0.21862 0.66561 0.1982 0.0
H1808 H 0.29897 0.6652 0.20311 0.0
C1809 C 0.21508 0.68672 0.17248 0.0
H1810 H 0.2529 0.64074 0.22747 0.0
C1811 C 0.24154 0.70085 0.15846 0.0
C1812 C 0.27209 0.69419 0.16988 0.0
H1813 H 0.19178 0.69366 0.16413 0.0
H1814 H 0.23786 0.71823 0.13985 0.0
C1815 C 0.27574 0.6712 0.19392 0.0
C1816 C 0.84177 0.24674 0.29249 0.0
C1817 C 0.83325 0.27761 0.30172 0.0
H1818 H 0.83266 0.19708 0.29728 0.0
C1819 C 0.8112 0.28156 0.32651 0.0
H1820 H 0.85873 0.24285 0.27357 0.0
C1821 C 0.79625 0.25539 0.34014 0.0
C1822 C 0.80291 0.22464 0.32921 0.0
H1823 H 0.80423 0.305 0.33444 0.0
H1824 H 0.77832 0.25947 0.35811 0.0
C1825 C 0.82668 0.2205 0.30604 0.0
C1826 C 0.21976 0.30462 0.8234 0.0
C1827 C 0.22377 0.32711 0.79896 0.0
H1828 H 0.24203 0.27197 0.85527 0.0
C1829 C 0.25461 0.33645 0.79057 0.0
H1830 H 0.19632 0.297 0.83067 0.0
C1831 C 0.28084 0.32195 0.80465 0.0
C1832 C 0.27682 0.29791 0.82756 0.0
H1833 H 0.25859 0.35376 0.77197 0.0
H1834 H 0.30426 0.3287 0.79649 0.0
C1835 C 0.24601 0.29023 0.8376 0.0
C1836 C 0.19758 0.74598 0.3435 0.0
C1837 C 0.19081 0.77653 0.33206 0.0
H1838 H 0.19042 0.69616 0.33808 0.0
C1839 C 0.16762 0.78007 0.30821 0.0
H1840 H 0.21509 0.74236 0.36199 0.0
C1841 C 0.15341 0.7535 0.29439 0.0
C1842 C 0.1621 0.72284 0.30412 0.0
H1843 H 0.16152 0.8033 0.29902 0.0
H1844 H 0.13698 0.75702 0.27493 0.0
C1845 C 0.18339 0.71943 0.32969 0.0
C1846 C 0.74387 0.66012 0.79823 0.0
C1847 C 0.7744 0.6718 0.80455 0.0
H1848 H 0.69415 0.66598 0.80494 0.0
C1849 C 0.77799 0.69664 0.82669 0.0
H1850 H 0.7402 0.64092 0.78152 0.0
C1851 C 0.75142 0.71094 0.84044 0.0
C1852 C 0.72079 0.70086 0.83211 0.0
H1853 H 0.80123 0.70606 0.83234 0.0
H1854 H 0.7549 0.73104 0.85611 0.0
C1855 C 0.71738 0.67456 0.81175 0.0
C1856 C 0.70438 0.84426 0.75071 0.0
C1857 C 0.69547 0.8346 0.72011 0.0
H1858 H 0.69867 0.83738 0.80056 0.0
C1859 C 0.6702 0.81295 0.71668 0.0
H1860 H 0.72361 0.86098 0.75421 0.0
C1861 C 0.65587 0.79936 0.74322 0.0
C1862 C 0.66654 0.80706 0.77381 0.0
H1863 H 0.66246 0.80516 0.69344 0.0
H1864 H 0.63765 0.78156 0.73963 0.0
C1865 C 0.69008 0.83059 0.7773 0.0
C1866 C 0.67009 0.18915 0.27781 0.0
C1867 C 0.69497 0.16692 0.27553 0.0
H1868 H 0.63881 0.22062 0.25322 0.0
C1869 C 0.70422 0.15614 0.24541 0.0
H1870 H 0.6621 0.19776 0.30066 0.0
C1871 C 0.6909 0.16942 0.21815 0.0
C1872 C 0.66791 0.1936 0.22046 0.0
H1873 H 0.72312 0.13892 0.24278 0.0
H1874 H 0.69993 0.16189 0.1953 0.0
C1875 C 0.65663 0.20227 0.25056 0.0
C1876 C 0.33073 0.18642 0.71772 0.0
C1877 C 0.30656 0.16349 0.72095 0.0
H1878 H 0.36203 0.21886 0.74117 0.0
C1879 C 0.29863 0.15268 0.75143 0.0
H1880 H 0.33771 0.19509 0.69455 0.0
C1881 C 0.31259 0.16638 0.77814 0.0
C1882 C 0.3349 0.19111 0.77499 0.0
H1883 H 0.28034 0.13492 0.75483 0.0
H1884 H 0.30458 0.15864 0.8013 0.0
C1885 C 0.34482 0.20004 0.74447 0.0
C1886 C 0.32409 0.80739 0.28128 0.0
C1887 C 0.29981 0.83014 0.27784 0.0
H1888 H 0.35545 0.77483 0.25816 0.0
C1889 C 0.29146 0.84026 0.24723 0.0
H1890 H 0.33135 0.79921 0.30455 0.0
C1891 C 0.30521 0.82613 0.22066 0.0
C1892 C 0.32779 0.80172 0.22407 0.0
H1893 H 0.27302 0.85782 0.24366 0.0
H1894 H 0.29691 0.83337 0.19743 0.0
C1895 C 0.33802 0.7934 0.25466 0.0
loop_
_geom_bond_atom_site_label_1
_geom_bond_atom_site_label_2
_geom_bond_distance
_geom_bond_site_symmetry_2
_ccdc_geom_bond_type
Co0 O2 2.143 . S
Co0 O8 2.074 . S
Co0 O11 2.093 . S
Co0 O24 2.097 . S
Co0 N41 2.151 . S
Co0 N49 2.214 . S
Co1 O2 2.160 . S
Co1 O7 2.058 . S
Co1 O17 2.057 . S
Co1 O32 2.037 . S
Co1 N36 2.145 . S
Co1 N57 2.257 . S
O2 Co0 2.143 . S
O2 Co1 2.160 . S
C3 O4 1.278 . S
C3 O11 1.224 . S
O4 C3 1.278 . S
C5 O6 1.245 . S
C5 O17 1.232 . S
O6 C5 1.245 . S
O7 Co1 2.058 . S
O7 C33 1.269 . S
O8 Co0 2.074 . S
O8 C33 1.257 . S
H9 C34 0.930 . S
H10 C40 0.930 . S
O11 Co0 2.093 . S
O11 C3 1.224 . S
H12 C44 0.929 . S
H13 C46 0.930 . S
H14 C47 0.930 . S
H15 C45 0.929 . S
H16 C48 0.928 . S
O17 Co1 2.057 . S
O17 C5 1.232 . S
H18 C37 0.929 . S
H19 C38 0.929 . S
H20 C50 0.931 . S
H21 C42 0.929 . S
H22 C51 0.930 . S
H23 C43 0.931 . S
O24 Co0 2.097 . S
O24 C52 1.214 . S
H25 C53 0.929 . S
H26 C54 0.929 . S
H27 C55 0.930 . S
H28 C56 0.929 . S
H29 C58 0.930 . S
H30 C35 0.930 . S
H31 C39 0.930 . S
O32 Co1 2.037 . S
O32 C52 1.234 . S
C33 O7 1.269 . S
C33 O8 1.257 . S
C34 H9 0.930 . S
C34 C37 1.388 . S
C34 C39 1.418 . S
C35 H30 0.930 . S
C35 C38 1.404 . S
C35 C39 1.353 . S
N36 Co1 2.145 . S
N36 C37 1.397 . S
N36 C38 1.334 . S
C37 H18 0.929 . S
C37 C34 1.388 . S
C37 N36 1.397 . S
C38 H19 0.929 . S
C38 C35 1.404 . S
C38 N36 1.334 . S
C39 H31 0.930 . S
C39 C34 1.418 . S
C39 C35 1.353 . S
C40 H10 0.930 . S
C40 N41 1.330 . S
C40 C42 1.446 . S
N41 Co0 2.151 . S
N41 C40 1.330 . S
N41 C45 1.418 . S
C42 H21 0.929 . S
C42 C40 1.446 . S
C42 C43 1.332 . S
C43 H23 0.931 . S
C43 C42 1.332 . S
C43 C44 1.267 . S
C44 H12 0.929 . S
C44 C43 1.267 . S
C44 C45 1.251 . S
C45 H15 0.929 . S
C45 N41 1.418 . S
C45 C44 1.251 . S
C46 H13 0.930 . S
C46 C48 1.406 . S
C46 C51 1.261 . S
C47 H14 0.930 . S
C47 N49 1.325 . S
C47 C50 1.357 . S
C48 H16 0.928 . S
C48 C46 1.406 . S
C48 N49 1.261 . S
N49 Co0 2.214 . S
N49 C47 1.325 . S
N49 C48 1.261 . S
C50 H20 0.931 . S
C50 C47 1.357 . S
C50 C51 1.312 . S
C51 H22 0.930 . S
C51 C46 1.261 . S
C51 C50 1.312 . S
C52 O24 1.214 . S
C52 O32 1.234 . S
C53 H25 0.929 . S
C53 C56 1.391 . S
C53 C58 1.391 . S
C54 H26 0.929 . S
C54 C55 1.390 . S
C54 N57 1.391 . S
C55 H27 0.930 . S
C55 C54 1.390 . S
C55 C56 1.392 . S
C56 H28 0.929 . S
C56 C53 1.391 . S
C56 C55 1.392 . S
N57 Co1 2.257 . S
N57 C54 1.391 . S
N57 C58 1.388 . S
C58 H29 0.930 . S
C58 C53 1.391 . S
C58 N57 1.388 . S
Co59 O61 2.143 . S
Co59 O67 2.074 . S
Co59 O70 2.093 . S
Co59 O83 2.097 . S
Co59 N100 2.151 . S
Co59 N108 2.214 . S
Co60 O61 2.160 . S
Co60 O66 2.058 . S
Co60 O76 2.057 . S
Co60 O91 2.037 . S
Co60 N95 2.145 . S
Co60 N116 2.257 . S
O61 Co59 2.143 . S
O61 Co60 2.160 . S
C62 O63 1.278 . S
C62 O70 1.224 . S
O63 C62 1.278 . S
C64 O65 1.245 . S
C64 O76 1.232 . S
O65 C64 1.245 . S
O66 Co60 2.058 . S
O66 C92 1.269 . S
O67 Co59 2.074 . S
O67 C92 1.257 . S
H68 C93 0.930 . S
H69 C99 0.930 . S
O70 Co59 2.093 . S
O70 C62 1.224 . S
H71 C103 0.929 . S
H72 C105 0.930 . S
H73 C106 0.930 . S
H74 C104 0.929 . S
H75 C107 0.928 . S
O76 Co60 2.057 . S
O76 C64 1.232 . S
H77 C96 0.929 . S
H78 C97 0.929 . S
H79 C109 0.931 . S
H80 C101 0.929 . S
H81 C110 0.930 . S
H82 C102 0.931 . S
O83 Co59 2.097 . S
O83 C111 1.214 . S
H84 C112 0.929 . S
H85 C113 0.929 . S
H86 C114 0.930 . S
H87 C115 0.929 . S
H88 C117 0.930 . S
H89 C94 0.930 . S
H90 C98 0.930 . S
O91 Co60 2.037 . S
O91 C111 1.234 . S
C92 O66 1.269 . S
C92 O67 1.257 . S
C93 H68 0.930 . S
C93 C96 1.388 . S
C93 C98 1.418 . S
C94 H89 0.930 . S
C94 C97 1.404 . S
C94 C98 1.353 . S
N95 Co60 2.145 . S
N95 C96 1.397 . S
N95 C97 1.334 . S
C96 H77 0.929 . S
C96 C93 1.388 . S
C96 N95 1.397 . S
C97 H78 0.929 . S
C97 C94 1.404 . S
C97 N95 1.334 . S
C98 H90 0.930 . S
C98 C93 1.418 . S
C98 C94 1.353 . S
C99 H69 0.930 . S
C99 N100 1.330 . S
C99 C101 1.446 . S
N100 Co59 2.151 . S
N100 C99 1.330 . S
N100 C104 1.418 . S
C101 H80 0.929 . S
C101 C99 1.446 . S
C101 C102 1.332 . S
C102 H82 0.931 . S
C102 C101 1.332 . S
C102 C103 1.267 . S
C103 H71 0.929 . S
C103 C102 1.267 . S
C103 C104 1.251 . S
C104 H74 0.929 . S
C104 N100 1.418 . S
C104 C103 1.251 . S
C105 H72 0.930 . S
C105 C107 1.406 . S
C105 C110 1.261 . S
C106 H73 0.930 . S
C106 N108 1.325 . S
C106 C109 1.357 . S
C107 H75 0.928 . S
C107 C105 1.406 . S
C107 N108 1.261 . S
N108 Co59 2.214 . S
N108 C106 1.325 . S
N108 C107 1.261 . S
C109 H79 0.931 . S
C109 C106 1.357 . S
C109 C110 1.312 . S
C110 H81 0.930 . S
C110 C105 1.261 . S
C110 C109 1.312 . S
C111 O83 1.214 . S
C111 O91 1.234 . S
C112 H84 0.929 . S
C112 C115 1.391 . S
C112 C117 1.391 . S
C113 H85 0.929 . S
C113 C114 1.390 . S
C113 N116 1.391 . S
C114 H86 0.930 . S
C114 C113 1.390 . S
C114 C115 1.392 . S
C115 H87 0.929 . S
C115 C112 1.391 . S
C115 C114 1.392 . S
N116 Co60 2.257 . S
N116 C113 1.391 . S
N116 C117 1.388 . S
C117 H88 0.930 . S
C117 C112 1.391 . S
C117 N116 1.388 . S
Co118 O120 2.143 . S
Co118 O126 2.074 . S
Co118 O129 2.093 . S
Co118 O142 2.097 . S
Co118 N159 2.151 . S
Co118 N167 2.214 . S
Co119 O120 2.160 . S
Co119 O125 2.058 . S
Co119 O135 2.057 . S
Co119 O150 2.037 . S
Co119 N154 2.145 . S
Co119 N175 2.257 . S
O120 Co118 2.143 . S
O120 Co119 2.160 . S
C121 O122 1.278 . S
C121 O129 1.224 . S
O122 C121 1.278 . S
C123 O124 1.245 . S
C123 O135 1.232 . S
O124 C123 1.245 . S
O125 Co119 2.058 . S
O125 C151 1.269 . S
O126 Co118 2.074 . S
O126 C151 1.257 . S
H127 C152 0.930 . S
H128 C158 0.930 . S
O129 Co118 2.093 . S
O129 C121 1.224 . S
H130 C162 0.929 . S
H131 C164 0.930 . S
H132 C165 0.930 . S
H133 C163 0.929 . S
H134 C166 0.928 . S
O135 Co119 2.057 . S
O135 C123 1.232 . S
H136 C155 0.929 . S
H137 C156 0.929 . S
H138 C168 0.931 . S
H139 C160 0.929 . S
H140 C169 0.930 . S
H141 C161 0.931 . S
O142 Co118 2.097 . S
O142 C170 1.214 . S
H143 C171 0.929 . S
H144 C172 0.929 . S
H145 C173 0.930 . S
H146 C174 0.929 . S
H147 C176 0.930 . S
H148 C153 0.930 . S
H149 C157 0.930 . S
O150 Co119 2.037 . S
O150 C170 1.234 . S
C151 O125 1.269 . S
C151 O126 1.257 . S
C152 H127 0.930 . S
C152 C155 1.388 . S
C152 C157 1.418 . S
C153 H148 0.930 . S
C153 C156 1.404 . S
C153 C157 1.353 . S
N154 Co119 2.145 . S
N154 C155 1.397 . S
N154 C156 1.334 . S
C155 H136 0.929 . S
C155 C152 1.388 . S
C155 N154 1.397 . S
C156 H137 0.929 . S
C156 C153 1.404 . S
C156 N154 1.334 . S
C157 H149 0.930 . S
C157 C152 1.418 . S
C157 C153 1.353 . S
C158 H128 0.930 . S
C158 N159 1.330 . S
C158 C160 1.446 . S
N159 Co118 2.151 . S
N159 C158 1.330 . S
N159 C163 1.418 . S
C160 H139 0.929 . S
C160 C158 1.446 . S
C160 C161 1.332 . S
C161 H141 0.931 . S
C161 C160 1.332 . S
C161 C162 1.267 . S
C162 H130 0.929 . S
C162 C161 1.267 . S
C162 C163 1.251 . S
C163 H133 0.929 . S
C163 N159 1.418 . S
C163 C162 1.251 . S
C164 H131 0.930 . S
C164 C166 1.406 . S
C164 C169 1.261 . S
C165 H132 0.930 . S
C165 N167 1.325 . S
C165 C168 1.357 . S
C166 H134 0.928 . S
C166 C164 1.406 . S
C166 N167 1.261 . S
N167 Co118 2.214 . S
N167 C165 1.325 . S
N167 C166 1.261 . S
C168 H138 0.931 . S
C168 C165 1.357 . S
C168 C169 1.312 . S
C169 H140 0.930 . S
C169 C164 1.261 . S
C169 C168 1.312 . S
C170 O142 1.214 . S
C170 O150 1.234 . S
C171 H143 0.929 . S
C171 C174 1.391 . S
C171 C176 1.391 . S
C172 H144 0.929 . S
C172 C173 1.390 . S
C172 N175 1.391 . S
C173 H145 0.930 . S
C173 C172 1.390 . S
C173 C174 1.392 . S
C174 H146 0.929 . S
C174 C171 1.391 . S
C174 C173 1.392 . S
N175 Co119 2.257 . S
N175 C172 1.391 . S
N175 C176 1.388 . S
C176 H147 0.930 . S
C176 C171 1.391 . S
C176 N175 1.388 . S
Co177 O179 2.143 . S
Co177 O185 2.074 . S
Co177 O188 2.093 . S
Co177 O201 2.097 . S
Co177 N218 2.151 . S
Co177 N226 2.214 . S
Co178 O179 2.160 . S
Co178 O184 2.058 . S
Co178 O194 2.057 . S
Co178 O209 2.037 . S
Co178 N213 2.145 . S
Co178 N234 2.257 . S
O179 Co177 2.143 . S
O179 Co178 2.160 . S
C180 O181 1.278 . S
C180 O188 1.224 . S
O181 C180 1.278 . S
C182 O183 1.245 . S
C182 O194 1.232 . S
O183 C182 1.245 . S
O184 Co178 2.058 . S
O184 C210 1.269 . S
O185 Co177 2.074 . S
O185 C210 1.257 . S
H186 C211 0.930 . S
H187 C217 0.930 . S
O188 Co177 2.093 . S
O188 C180 1.224 . S
H189 C221 0.929 . S
H190 C223 0.930 . S
H191 C224 0.930 . S
H192 C222 0.929 . S
H193 C225 0.928 . S
O194 Co178 2.057 . S
O194 C182 1.232 . S
H195 C214 0.929 . S
H196 C215 0.929 . S
H197 C227 0.931 . S
H198 C219 0.929 . S
H199 C228 0.930 . S
H200 C220 0.931 . S
O201 Co177 2.097 . S
O201 C229 1.214 . S
H202 C230 0.929 . S
H203 C231 0.929 . S
H204 C232 0.930 . S
H205 C233 0.929 . S
H206 C235 0.930 . S
H207 C212 0.930 . S
H208 C216 0.930 . S
O209 Co178 2.037 . S
O209 C229 1.234 . S
C210 O184 1.269 . S
C210 O185 1.257 . S
C211 H186 0.930 . S
C211 C214 1.388 . S
C211 C216 1.418 . S
C212 H207 0.930 . S
C212 C215 1.404 . S
C212 C216 1.353 . S
N213 Co178 2.145 . S
N213 C214 1.397 . S
N213 C215 1.334 . S
C214 H195 0.929 . S
C214 C211 1.388 . S
C214 N213 1.397 . S
C215 H196 0.929 . S
C215 C212 1.404 . S
C215 N213 1.334 . S
C216 H208 0.930 . S
C216 C211 1.418 . S
C216 C212 1.353 . S
C217 H187 0.930 . S
C217 N218 1.330 . S
C217 C219 1.446 . S
N218 Co177 2.151 . S
N218 C217 1.330 . S
N218 C222 1.418 . S
C219 H198 0.929 . S
C219 C217 1.446 . S
C219 C220 1.332 . S
C220 H200 0.931 . S
C220 C219 1.332 . S
C220 C221 1.267 . S
C221 H189 0.929 . S
C221 C220 1.267 . S
C221 C222 1.251 . S
C222 H192 0.929 . S
C222 N218 1.418 . S
C222 C221 1.251 . S
C223 H190 0.930 . S
C223 C225 1.406 . S
C223 C228 1.261 . S
C224 H191 0.930 . S
C224 N226 1.325 . S
C224 C227 1.357 . S
C225 H193 0.928 . S
C225 C223 1.406 . S
C225 N226 1.261 . S
N226 Co177 2.214 . S
N226 C224 1.325 . S
N226 C225 1.261 . S
C227 H197 0.931 . S
C227 C224 1.357 . S
C227 C228 1.312 . S
C228 H199 0.930 . S
C228 C223 1.261 . S
C228 C227 1.312 . S
C229 O201 1.214 . S
C229 O209 1.234 . S
C230 H202 0.929 . S
C230 C233 1.391 . S
C230 C235 1.391 . S
C231 H203 0.929 . S
C231 C232 1.390 . S
C231 N234 1.391 . S
C232 H204 0.930 . S
C232 C231 1.390 . S
C232 C233 1.392 . S
C233 H205 0.929 . S
C233 C230 1.391 . S
C233 C232 1.392 . S
N234 Co178 2.257 . S
N234 C231 1.391 . S
N234 C235 1.388 . S
C235 H206 0.930 . S
C235 C230 1.391 . S
C235 N234 1.388 . S
Co236 O238 2.143 . S
Co236 O244 2.074 . S
Co236 O247 2.093 . S
Co236 O260 2.097 . S
Co236 N277 2.151 . S
Co236 N285 2.214 . S
Co237 O238 2.160 . S
Co237 O243 2.058 . S
Co237 O253 2.057 . S
Co237 O268 2.037 . S
Co237 N272 2.145 . S
Co237 N293 2.257 . S
O238 Co236 2.143 . S
O238 Co237 2.160 . S
C239 O240 1.278 . S
C239 O247 1.224 . S
O240 C239 1.278 . S
C241 O242 1.245 . S
C241 O253 1.232 . S
O242 C241 1.245 . S
O243 Co237 2.058 . S
O243 C269 1.269 . S
O244 Co236 2.074 . S
O244 C269 1.257 . S
H245 C270 0.930 . S
H246 C276 0.930 . S
O247 Co236 2.093 . S
O247 C239 1.224 . S
H248 C280 0.929 . S
H249 C282 0.930 . S
H250 C283 0.930 . S
H251 C281 0.929 . S
H252 C284 0.928 . S
O253 Co237 2.057 . S
O253 C241 1.232 . S
H254 C273 0.929 . S
H255 C274 0.929 . S
H256 C286 0.931 . S
H257 C278 0.929 . S
H258 C287 0.930 . S
H259 C279 0.931 . S
O260 Co236 2.097 . S
O260 C288 1.214 . S
H261 C289 0.929 . S
H262 C290 0.929 . S
H263 C291 0.930 . S
H264 C292 0.929 . S
H265 C294 0.930 . S
H266 C271 0.930 . S
H267 C275 0.930 . S
O268 Co237 2.037 . S
O268 C288 1.234 . S
C269 O243 1.269 . S
C269 O244 1.257 . S
C270 H245 0.930 . S
C270 C273 1.388 . S
C270 C275 1.418 . S
C271 H266 0.930 . S
C271 C274 1.404 . S
C271 C275 1.353 . S
N272 Co237 2.145 . S
N272 C273 1.397 . S
N272 C274 1.334 . S
C273 H254 0.929 . S
C273 C270 1.388 . S
C273 N272 1.397 . S
C274 H255 0.929 . S
C274 C271 1.404 . S
C274 N272 1.334 . S
C275 H267 0.930 . S
C275 C270 1.418 . S
C275 C271 1.353 . S
C276 H246 0.930 . S
C276 N277 1.330 . S
C276 C278 1.446 . S
N277 Co236 2.151 . S
N277 C276 1.330 . S
N277 C281 1.418 . S
C278 H257 0.929 . S
C278 C276 1.446 . S
C278 C279 1.332 . S
C279 H259 0.931 . S
C279 C278 1.332 . S
C279 C280 1.267 . S
C280 H248 0.929 . S
C280 C279 1.267 . S
C280 C281 1.251 . S
C281 H251 0.929 . S
C281 N277 1.418 . S
C281 C280 1.251 . S
C282 H249 0.930 . S
C282 C284 1.406 . S
C282 C287 1.261 . S
C283 H250 0.930 . S
C283 N285 1.325 . S
C283 C286 1.357 . S
C284 H252 0.928 . S
C284 C282 1.406 . S
C284 N285 1.261 . S
N285 Co236 2.214 . S
N285 C283 1.325 . S
N285 C284 1.261 . S
C286 H256 0.931 . S
C286 C283 1.357 . S
C286 C287 1.312 . S
C287 H258 0.930 . S
C287 C282 1.261 . S
C287 C286 1.312 . S
C288 O260 1.214 . S
C288 O268 1.234 . S
C289 H261 0.929 . S
C289 C292 1.391 . S
C289 C294 1.391 . S
C290 H262 0.929 . S
C290 C291 1.390 . S
C290 N293 1.391 . S
C291 H263 0.930 . S
C291 C290 1.390 . S
C291 C292 1.392 . S
C292 H264 0.929 . S
C292 C289 1.391 . S
C292 C291 1.392 . S
N293 Co237 2.257 . S
N293 C290 1.391 . S
N293 C294 1.388 . S
C294 H265 0.930 . S
C294 C289 1.391 . S
C294 N293 1.388 . S
Co295 O297 2.143 . S
Co295 O303 2.074 . S
Co295 O306 2.093 . S
Co295 O319 2.097 . S
Co295 N336 2.151 . S
Co295 N344 2.214 . S
Co296 O297 2.160 . S
Co296 O302 2.058 . S
Co296 O312 2.057 . S
Co296 O327 2.037 . S
Co296 N331 2.145 . S
Co296 N352 2.257 . S
O297 Co295 2.143 . S
O297 Co296 2.160 . S
C298 O299 1.278 . S
C298 O306 1.224 . S
O299 C298 1.278 . S
C300 O301 1.245 . S
C300 O312 1.232 . S
O301 C300 1.245 . S
O302 Co296 2.058 . S
O302 C328 1.269 . S
O303 Co295 2.074 . S
O303 C328 1.257 . S
H304 C329 0.930 . S
H305 C335 0.930 . S
O306 Co295 2.093 . S
O306 C298 1.224 . S
H307 C339 0.929 . S
H308 C341 0.930 . S
H309 C342 0.930 . S
H310 C340 0.929 . S
H311 C343 0.928 . S
O312 Co296 2.057 . S
O312 C300 1.232 . S
H313 C332 0.929 . S
H314 C333 0.929 . S
H315 C345 0.931 . S
H316 C337 0.929 . S
H317 C346 0.930 . S
H318 C338 0.931 . S
O319 Co295 2.097 . S
O319 C347 1.214 . S
H320 C348 0.929 . S
H321 C349 0.929 . S
H322 C350 0.930 . S
H323 C351 0.929 . S
H324 C353 0.930 . S
H325 C330 0.930 . S
H326 C334 0.930 . S
O327 Co296 2.037 . S
O327 C347 1.234 . S
C328 O302 1.269 . S
C328 O303 1.257 . S
C329 H304 0.930 . S
C329 C332 1.388 . S
C329 C334 1.418 . S
C330 H325 0.930 . S
C330 C333 1.404 . S
C330 C334 1.353 . S
N331 Co296 2.145 . S
N331 C332 1.397 . S
N331 C333 1.334 . S
C332 H313 0.929 . S
C332 C329 1.388 . S
C332 N331 1.397 . S
C333 H314 0.929 . S
C333 C330 1.404 . S
C333 N331 1.334 . S
C334 H326 0.930 . S
C334 C329 1.418 . S
C334 C330 1.353 . S
C335 H305 0.930 . S
C335 N336 1.330 . S
C335 C337 1.446 . S
N336 Co295 2.151 . S
N336 C335 1.330 . S
N336 C340 1.418 . S
C337 H316 0.929 . S
C337 C335 1.446 . S
C337 C338 1.332 . S
C338 H318 0.931 . S
C338 C337 1.332 . S
C338 C339 1.267 . S
C339 H307 0.929 . S
C339 C338 1.267 . S
C339 C340 1.251 . S
C340 H310 0.929 . S
C340 N336 1.418 . S
C340 C339 1.251 . S
C341 H308 0.930 . S
C341 C343 1.406 . S
C341 C346 1.261 . S
C342 H309 0.930 . S
C342 N344 1.325 . S
C342 C345 1.357 . S
C343 H311 0.928 . S
C343 C341 1.406 . S
C343 N344 1.261 . S
N344 Co295 2.214 . S
N344 C342 1.325 . S
N344 C343 1.261 . S
C345 H315 0.931 . S
C345 C342 1.357 . S
C345 C346 1.312 . S
C346 H317 0.930 . S
C346 C341 1.261 . S
C346 C345 1.312 . S
C347 O319 1.214 . S
C347 O327 1.234 . S
C348 H320 0.929 . S
C348 C351 1.391 . S
C348 C353 1.391 . S
C349 H321 0.929 . S
C349 C350 1.390 . S
C349 N352 1.391 . S
C350 H322 0.930 . S
C350 C349 1.390 . S
C350 C351 1.392 . S
C351 H323 0.929 . S
C351 C348 1.391 . S
C351 C350 1.392 . S
N352 Co296 2.257 . S
N352 C349 1.391 . S
N352 C353 1.388 . S
C353 H324 0.930 . S
C353 C348 1.391 . S
C353 N352 1.388 . S
Co354 O356 2.143 . S
Co354 O362 2.074 . S
Co354 O365 2.093 . S
Co354 O378 2.097 . S
Co354 N395 2.151 . S
Co354 N403 2.214 . S
Co355 O356 2.160 . S
Co355 O361 2.058 . S
Co355 O371 2.057 . S
Co355 O386 2.037 . S
Co355 N390 2.145 . S
Co355 N411 2.257 . S
O356 Co354 2.143 . S
O356 Co355 2.160 . S
C357 O358 1.278 . S
C357 O365 1.224 . S
O358 C357 1.278 . S
C359 O360 1.245 . S
C359 O371 1.232 . S
O360 C359 1.245 . S
O361 Co355 2.058 . S
O361 C387 1.269 . S
O362 Co354 2.074 . S
O362 C387 1.257 . S
H363 C388 0.930 . S
H364 C394 0.930 . S
O365 Co354 2.093 . S
O365 C357 1.224 . S
H366 C398 0.929 . S
H367 C400 0.930 . S
H368 C401 0.930 . S
H369 C399 0.929 . S
H370 C402 0.928 . S
O371 Co355 2.057 . S
O371 C359 1.232 . S
H372 C391 0.929 . S
H373 C392 0.929 . S
H374 C404 0.931 . S
H375 C396 0.929 . S
H376 C405 0.930 . S
H377 C397 0.931 . S
O378 Co354 2.097 . S
O378 C406 1.214 . S
H379 C407 0.929 . S
H380 C408 0.929 . S
H381 C409 0.930 . S
H382 C410 0.929 . S
H383 C412 0.930 . S
H384 C389 0.930 . S
H385 C393 0.930 . S
O386 Co355 2.037 . S
O386 C406 1.234 . S
C387 O361 1.269 . S
C387 O362 1.257 . S
C388 H363 0.930 . S
C388 C391 1.388 . S
C388 C393 1.418 . S
C389 H384 0.930 . S
C389 C392 1.404 . S
C389 C393 1.353 . S
N390 Co355 2.145 . S
N390 C391 1.397 . S
N390 C392 1.334 . S
C391 H372 0.929 . S
C391 C388 1.388 . S
C391 N390 1.397 . S
C392 H373 0.929 . S
C392 C389 1.404 . S
C392 N390 1.334 . S
C393 H385 0.930 . S
C393 C388 1.418 . S
C393 C389 1.353 . S
C394 H364 0.930 . S
C394 N395 1.330 . S
C394 C396 1.446 . S
N395 Co354 2.151 . S
N395 C394 1.330 . S
N395 C399 1.418 . S
C396 H375 0.929 . S
C396 C394 1.446 . S
C396 C397 1.332 . S
C397 H377 0.931 . S
C397 C396 1.332 . S
C397 C398 1.267 . S
C398 H366 0.929 . S
C398 C397 1.267 . S
C398 C399 1.251 . S
C399 H369 0.929 . S
C399 N395 1.418 . S
C399 C398 1.251 . S
C400 H367 0.930 . S
C400 C402 1.406 . S
C400 C405 1.261 . S
C401 H368 0.930 . S
C401 N403 1.325 . S
C401 C404 1.357 . S
C402 H370 0.928 . S
C402 C400 1.406 . S
C402 N403 1.261 . S
N403 Co354 2.214 . S
N403 C401 1.325 . S
N403 C402 1.261 . S
C404 H374 0.931 . S
C404 C401 1.357 . S
C404 C405 1.312 . S
C405 H376 0.930 . S
C405 C400 1.261 . S
C405 C404 1.312 . S
C406 O378 1.214 . S
C406 O386 1.234 . S
C407 H379 0.929 . S
C407 C410 1.391 . S
C407 C412 1.391 . S
C408 H380 0.929 . S
C408 C409 1.390 . S
C408 N411 1.391 . S
C409 H381 0.930 . S
C409 C408 1.390 . S
C409 C410 1.392 . S
C410 H382 0.929 . S
C410 C407 1.391 . S
C410 C409 1.392 . S
N411 Co355 2.257 . S
N411 C408 1.391 . S
N411 C412 1.388 . S
C412 H383 0.930 . S
C412 C407 1.391 . S
C412 N411 1.388 . S
Co413 O415 2.143 . S
Co413 O421 2.074 . S
Co413 O424 2.093 . S
Co413 O437 2.097 . S
Co413 N454 2.151 . S
Co413 N462 2.214 . S
Co414 O415 2.160 . S
Co414 O420 2.058 . S
Co414 O430 2.057 . S
Co414 O445 2.037 . S
Co414 N449 2.145 . S
Co414 N470 2.257 . S
O415 Co413 2.143 . S
O415 Co414 2.160 . S
C416 O417 1.278 . S
C416 O424 1.224 . S
O417 C416 1.278 . S
C418 O419 1.245 . S
C418 O430 1.232 . S
O419 C418 1.245 . S
O420 Co414 2.058 . S
O420 C446 1.269 . S
O421 Co413 2.074 . S
O421 C446 1.257 . S
H422 C447 0.930 . S
H423 C453 0.930 . S
O424 Co413 2.093 . S
O424 C416 1.224 . S
H425 C457 0.929 . S
H426 C459 0.930 . S
H427 C460 0.930 . S
H428 C458 0.929 . S
H429 C461 0.928 . S
O430 Co414 2.057 . S
O430 C418 1.232 . S
H431 C450 0.929 . S
H432 C451 0.929 . S
H433 C463 0.931 . S
H434 C455 0.929 . S
H435 C464 0.930 . S
H436 C456 0.931 . S
O437 Co413 2.097 . S
O437 C465 1.214 . S
H438 C466 0.929 . S
H439 C467 0.929 . S
H440 C468 0.930 . S
H441 C469 0.929 . S
H442 C471 0.930 . S
H443 C448 0.930 . S
H444 C452 0.930 . S
O445 Co414 2.037 . S
O445 C465 1.234 . S
C446 O420 1.269 . S
C446 O421 1.257 . S
C447 H422 0.930 . S
C447 C450 1.388 . S
C447 C452 1.418 . S
C448 H443 0.930 . S
C448 C451 1.404 . S
C448 C452 1.353 . S
N449 Co414 2.145 . S
N449 C450 1.397 . S
N449 C451 1.334 . S
C450 H431 0.929 . S
C450 C447 1.388 . S
C450 N449 1.397 . S
C451 H432 0.929 . S
C451 C448 1.404 . S
C451 N449 1.334 . S
C452 H444 0.930 . S
C452 C447 1.418 . S
C452 C448 1.353 . S
C453 H423 0.930 . S
C453 N454 1.330 . S
C453 C455 1.446 . S
N454 Co413 2.151 . S
N454 C453 1.330 . S
N454 C458 1.418 . S
C455 H434 0.929 . S
C455 C453 1.446 . S
C455 C456 1.332 . S
C456 H436 0.931 . S
C456 C455 1.332 . S
C456 C457 1.267 . S
C457 H425 0.929 . S
C457 C456 1.267 . S
C457 C458 1.251 . S
C458 H428 0.929 . S
C458 N454 1.418 . S
C458 C457 1.251 . S
C459 H426 0.930 . S
C459 C461 1.406 . S
C459 C464 1.261 . S
C460 H427 0.930 . S
C460 N462 1.325 . S
C460 C463 1.357 . S
C461 H429 0.928 . S
C461 C459 1.406 . S
C461 N462 1.261 . S
N462 Co413 2.214 . S
N462 C460 1.325 . S
N462 C461 1.261 . S
C463 H433 0.931 . S
C463 C460 1.357 . S
C463 C464 1.312 . S
C464 H435 0.930 . S
C464 C459 1.261 . S
C464 C463 1.312 . S
C465 O437 1.214 . S
C465 O445 1.234 . S
C466 H438 0.929 . S
C466 C469 1.391 . S
C466 C471 1.391 . S
C467 H439 0.929 . S
C467 C468 1.390 . S
C467 N470 1.391 . S
C468 H440 0.930 . S
C468 C467 1.390 . S
C468 C469 1.392 . S
C469 H441 0.929 . S
C469 C466 1.391 . S
C469 C468 1.392 . S
N470 Co414 2.257 . S
N470 C467 1.391 . S
N470 C471 1.388 . S
C471 H442 0.930 . S
C471 C466 1.391 . S
C471 N470 1.388 . S
Co472 O474 2.143 . S
Co472 O480 2.074 . S
Co472 O483 2.093 . S
Co472 O496 2.097 . S
Co472 N513 2.151 . S
Co472 N521 2.214 . S
Co473 O474 2.160 . S
Co473 O479 2.058 . S
Co473 O489 2.057 . S
Co473 O504 2.037 . S
Co473 N508 2.145 . S
Co473 N529 2.257 . S
O474 Co472 2.143 . S
O474 Co473 2.160 . S
C475 O476 1.278 . S
C475 O483 1.224 . S
O476 C475 1.278 . S
C477 O478 1.245 . S
C477 O489 1.232 . S
O478 C477 1.245 . S
O479 Co473 2.058 . S
O479 C505 1.269 . S
O480 Co472 2.074 . S
O480 C505 1.257 . S
H481 C506 0.930 . S
H482 C512 0.930 . S
O483 Co472 2.093 . S
O483 C475 1.224 . S
H484 C516 0.929 . S
H485 C518 0.930 . S
H486 C519 0.930 . S
H487 C517 0.929 . S
H488 C520 0.928 . S
O489 Co473 2.057 . S
O489 C477 1.232 . S
H490 C509 0.929 . S
H491 C510 0.929 . S
H492 C522 0.931 . S
H493 C514 0.929 . S
H494 C523 0.930 . S
H495 C515 0.931 . S
O496 Co472 2.097 . S
O496 C524 1.214 . S
H497 C525 0.929 . S
H498 C526 0.929 . S
H499 C527 0.930 . S
H500 C528 0.929 . S
H501 C530 0.930 . S
H502 C507 0.930 . S
H503 C511 0.930 . S
O504 Co473 2.037 . S
O504 C524 1.234 . S
C505 O479 1.269 . S
C505 O480 1.257 . S
C506 H481 0.930 . S
C506 C509 1.388 . S
C506 C511 1.418 . S
C507 H502 0.930 . S
C507 C510 1.404 . S
C507 C511 1.353 . S
N508 Co473 2.145 . S
N508 C509 1.397 . S
N508 C510 1.334 . S
C509 H490 0.929 . S
C509 C506 1.388 . S
C509 N508 1.397 . S
C510 H491 0.929 . S
C510 C507 1.404 . S
C510 N508 1.334 . S
C511 H503 0.930 . S
C511 C506 1.418 . S
C511 C507 1.353 . S
C512 H482 0.930 . S
C512 N513 1.330 . S
C512 C514 1.446 . S
N513 Co472 2.151 . S
N513 C512 1.330 . S
N513 C517 1.418 . S
C514 H493 0.929 . S
C514 C512 1.446 . S
C514 C515 1.332 . S
C515 H495 0.931 . S
C515 C514 1.332 . S
C515 C516 1.267 . S
C516 H484 0.929 . S
C516 C515 1.267 . S
C516 C517 1.251 . S
C517 H487 0.929 . S
C517 N513 1.418 . S
C517 C516 1.251 . S
C518 H485 0.930 . S
C518 C520 1.406 . S
C518 C523 1.261 . S
C519 H486 0.930 . S
C519 N521 1.325 . S
C519 C522 1.357 . S
C520 H488 0.928 . S
C520 C518 1.406 . S
C520 N521 1.261 . S
N521 Co472 2.214 . S
N521 C519 1.325 . S
N521 C520 1.261 . S
C522 H492 0.931 . S
C522 C519 1.357 . S
C522 C523 1.312 . S
C523 H494 0.930 . S
C523 C518 1.261 . S
C523 C522 1.312 . S
C524 O496 1.214 . S
C524 O504 1.234 . S
C525 H497 0.929 . S
C525 C528 1.391 . S
C525 C530 1.391 . S
C526 H498 0.929 . S
C526 C527 1.390 . S
C526 N529 1.391 . S
C527 H499 0.930 . S
C527 C526 1.390 . S
C527 C528 1.392 . S
C528 H500 0.929 . S
C528 C525 1.391 . S
C528 C527 1.392 . S
N529 Co473 2.257 . S
N529 C526 1.391 . S
N529 C530 1.388 . S
C530 H501 0.930 . S
C530 C525 1.391 . S
C530 N529 1.388 . S
Co531 O533 2.143 . S
Co531 O539 2.074 . S
Co531 O542 2.093 . S
Co531 O555 2.097 . S
Co531 N572 2.151 . S
Co531 N580 2.214 . S
Co532 O533 2.160 . S
Co532 O538 2.058 . S
Co532 O548 2.057 . S
Co532 O563 2.037 . S
Co532 N567 2.145 . S
Co532 N588 2.257 . S
O533 Co531 2.143 . S
O533 Co532 2.160 . S
C534 O535 1.278 . S
C534 O542 1.224 . S
O535 C534 1.278 . S
C536 O537 1.245 . S
C536 O548 1.232 . S
O537 C536 1.245 . S
O538 Co532 2.058 . S
O538 C564 1.269 . S
O539 Co531 2.074 . S
O539 C564 1.257 . S
H540 C565 0.930 . S
H541 C571 0.930 . S
O542 Co531 2.093 . S
O542 C534 1.224 . S
H543 C575 0.929 . S
H544 C577 0.930 . S
H545 C578 0.930 . S
H546 C576 0.929 . S
H547 C579 0.928 . S
O548 Co532 2.057 . S
O548 C536 1.232 . S
H549 C568 0.929 . S
H550 C569 0.929 . S
H551 C581 0.931 . S
H552 C573 0.929 . S
H553 C582 0.930 . S
H554 C574 0.931 . S
O555 Co531 2.097 . S
O555 C583 1.214 . S
H556 C584 0.929 . S
H557 C585 0.929 . S
H558 C586 0.930 . S
H559 C587 0.929 . S
H560 C589 0.930 . S
H561 C566 0.930 . S
H562 C570 0.930 . S
O563 Co532 2.037 . S
O563 C583 1.234 . S
C564 O538 1.269 . S
C564 O539 1.257 . S
C565 H540 0.930 . S
C565 C568 1.388 . S
C565 C570 1.418 . S
C566 H561 0.930 . S
C566 C569 1.404 . S
C566 C570 1.353 . S
N567 Co532 2.145 . S
N567 C568 1.397 . S
N567 C569 1.334 . S
C568 H549 0.929 . S
C568 C565 1.388 . S
C568 N567 1.397 . S
C569 H550 0.929 . S
C569 C566 1.404 . S
C569 N567 1.334 . S
C570 H562 0.930 . S
C570 C565 1.418 . S
C570 C566 1.353 . S
C571 H541 0.930 . S
C571 N572 1.330 . S
C571 C573 1.446 . S
N572 Co531 2.151 . S
N572 C571 1.330 . S
N572 C576 1.418 . S
C573 H552 0.929 . S
C573 C571 1.446 . S
C573 C574 1.332 . S
C574 H554 0.931 . S
C574 C573 1.332 . S
C574 C575 1.267 . S
C575 H543 0.929 . S
C575 C574 1.267 . S
C575 C576 1.251 . S
C576 H546 0.929 . S
C576 N572 1.418 . S
C576 C575 1.251 . S
C577 H544 0.930 . S
C577 C579 1.406 . S
C577 C582 1.261 . S
C578 H545 0.930 . S
C578 N580 1.325 . S
C578 C581 1.357 . S
C579 H547 0.928 . S
C579 C577 1.406 . S
C579 N580 1.261 . S
N580 Co531 2.214 . S
N580 C578 1.325 . S
N580 C579 1.261 . S
C581 H551 0.931 . S
C581 C578 1.357 . S
C581 C582 1.312 . S
C582 H553 0.930 . S
C582 C577 1.261 . S
C582 C581 1.312 . S
C583 O555 1.214 . S
C583 O563 1.234 . S
C584 H556 0.929 . S
C584 C587 1.391 . S
C584 C589 1.391 . S
C585 H557 0.929 . S
C585 C586 1.390 . S
C585 N588 1.391 . S
C586 H558 0.930 . S
C586 C585 1.390 . S
C586 C587 1.392 . S
C587 H559 0.929 . S
C587 C584 1.391 . S
C587 C586 1.392 . S
N588 Co532 2.257 . S
N588 C585 1.391 . S
N588 C589 1.388 . S
C589 H560 0.930 . S
C589 C584 1.391 . S
C589 N588 1.388 . S
Co590 O592 2.143 . S
Co590 O598 2.074 . S
Co590 O601 2.093 . S
Co590 O614 2.097 . S
Co590 N631 2.151 . S
Co590 N639 2.214 . S
Co591 O592 2.160 . S
Co591 O597 2.058 . S
Co591 O607 2.057 . S
Co591 O622 2.037 . S
Co591 N626 2.145 . S
Co591 N647 2.257 . S
O592 Co590 2.143 . S
O592 Co591 2.160 . S
C593 O594 1.278 . S
C593 O601 1.224 . S
O594 C593 1.278 . S
C595 O596 1.245 . S
C595 O607 1.232 . S
O596 C595 1.245 . S
O597 Co591 2.058 . S
O597 C623 1.269 . S
O598 Co590 2.074 . S
O598 C623 1.257 . S
H599 C624 0.930 . S
H600 C630 0.930 . S
O601 Co590 2.093 . S
O601 C593 1.224 . S
H602 C634 0.929 . S
H603 C636 0.930 . S
H604 C637 0.930 . S
H605 C635 0.929 . S
H606 C638 0.928 . S
O607 Co591 2.057 . S
O607 C595 1.232 . S
H608 C627 0.929 . S
H609 C628 0.929 . S
H610 C640 0.931 . S
H611 C632 0.929 . S
H612 C641 0.930 . S
H613 C633 0.931 . S
O614 Co590 2.097 . S
O614 C642 1.214 . S
H615 C643 0.929 . S
H616 C644 0.929 . S
H617 C645 0.930 . S
H618 C646 0.929 . S
H619 C648 0.930 . S
H620 C625 0.930 . S
H621 C629 0.930 . S
O622 Co591 2.037 . S
O622 C642 1.234 . S
C623 O597 1.269 . S
C623 O598 1.257 . S
C624 H599 0.930 . S
C624 C627 1.388 . S
C624 C629 1.418 . S
C625 H620 0.930 . S
C625 C628 1.404 . S
C625 C629 1.353 . S
N626 Co591 2.145 . S
N626 C627 1.397 . S
N626 C628 1.334 . S
C627 H608 0.929 . S
C627 C624 1.388 . S
C627 N626 1.397 . S
C628 H609 0.929 . S
C628 C625 1.404 . S
C628 N626 1.334 . S
C629 H621 0.930 . S
C629 C624 1.418 . S
C629 C625 1.353 . S
C630 H600 0.930 . S
C630 N631 1.330 . S
C630 C632 1.446 . S
N631 Co590 2.151 . S
N631 C630 1.330 . S
N631 C635 1.418 . S
C632 H611 0.929 . S
C632 C630 1.446 . S
C632 C633 1.332 . S
C633 H613 0.931 . S
C633 C632 1.332 . S
C633 C634 1.267 . S
C634 H602 0.929 . S
C634 C633 1.267 . S
C634 C635 1.251 . S
C635 H605 0.929 . S
C635 N631 1.418 . S
C635 C634 1.251 . S
C636 H603 0.930 . S
C636 C638 1.406 . S
C636 C641 1.261 . S
C637 H604 0.930 . S
C637 N639 1.325 . S
C637 C640 1.357 . S
C638 H606 0.928 . S
C638 C636 1.406 . S
C638 N639 1.261 . S
N639 Co590 2.214 . S
N639 C637 1.325 . S
N639 C638 1.261 . S
C640 H610 0.931 . S
C640 C637 1.357 . S
C640 C641 1.312 . S
C641 H612 0.930 . S
C641 C636 1.261 . S
C641 C640 1.312 . S
C642 O614 1.214 . S
C642 O622 1.234 . S
C643 H615 0.929 . S
C643 C646 1.391 . S
C643 C648 1.391 . S
C644 H616 0.929 . S
C644 C645 1.390 . S
C644 N647 1.391 . S
C645 H617 0.930 . S
C645 C644 1.390 . S
C645 C646 1.392 . S
C646 H618 0.929 . S
C646 C643 1.391 . S
C646 C645 1.392 . S
N647 Co591 2.257 . S
N647 C644 1.391 . S
N647 C648 1.388 . S
C648 H619 0.930 . S
C648 C643 1.391 . S
C648 N647 1.388 . S
Co649 O651 2.143 . S
Co649 O657 2.074 . S
Co649 O660 2.093 . S
Co649 O673 2.097 . S
Co649 N690 2.151 . S
Co649 N698 2.214 . S
Co650 O651 2.160 . S
Co650 O656 2.058 . S
Co650 O666 2.057 . S
Co650 O681 2.037 . S
Co650 N685 2.145 . S
Co650 N706 2.257 . S
O651 Co649 2.143 . S
O651 Co650 2.160 . S
C652 O653 1.278 . S
C652 O660 1.224 . S
O653 C652 1.278 . S
C654 O655 1.245 . S
C654 O666 1.232 . S
O655 C654 1.245 . S
O656 Co650 2.058 . S
O656 C682 1.269 . S
O657 Co649 2.074 . S
O657 C682 1.257 . S
H658 C683 0.930 . S
H659 C689 0.930 . S
O660 Co649 2.093 . S
O660 C652 1.224 . S
H661 C693 0.929 . S
H662 C695 0.930 . S
H663 C696 0.930 . S
H664 C694 0.929 . S
H665 C697 0.928 . S
O666 Co650 2.057 . S
O666 C654 1.232 . S
H667 C686 0.929 . S
H668 C687 0.929 . S
H669 C699 0.931 . S
H670 C691 0.929 . S
H671 C700 0.930 . S
H672 C692 0.931 . S
O673 Co649 2.097 . S
O673 C701 1.214 . S
H674 C702 0.929 . S
H675 C703 0.929 . S
H676 C704 0.930 . S
H677 C705 0.929 . S
H678 C707 0.930 . S
H679 C684 0.930 . S
H680 C688 0.930 . S
O681 Co650 2.037 . S
O681 C701 1.234 . S
C682 O656 1.269 . S
C682 O657 1.257 . S
C683 H658 0.930 . S
C683 C686 1.388 . S
C683 C688 1.418 . S
C684 H679 0.930 . S
C684 C687 1.404 . S
C684 C688 1.353 . S
N685 Co650 2.145 . S
N685 C686 1.397 . S
N685 C687 1.334 . S
C686 H667 0.929 . S
C686 C683 1.388 . S
C686 N685 1.397 . S
C687 H668 0.929 . S
C687 C684 1.404 . S
C687 N685 1.334 . S
C688 H680 0.930 . S
C688 C683 1.418 . S
C688 C684 1.353 . S
C689 H659 0.930 . S
C689 N690 1.330 . S
C689 C691 1.446 . S
N690 Co649 2.151 . S
N690 C689 1.330 . S
N690 C694 1.418 . S
C691 H670 0.929 . S
C691 C689 1.446 . S
C691 C692 1.332 . S
C692 H672 0.931 . S
C692 C691 1.332 . S
C692 C693 1.267 . S
C693 H661 0.929 . S
C693 C692 1.267 . S
C693 C694 1.251 . S
C694 H664 0.929 . S
C694 N690 1.418 . S
C694 C693 1.251 . S
C695 H662 0.930 . S
C695 C697 1.406 . S
C695 C700 1.261 . S
C696 H663 0.930 . S
C696 N698 1.325 . S
C696 C699 1.357 . S
C697 H665 0.928 . S
C697 C695 1.406 . S
C697 N698 1.261 . S
N698 Co649 2.214 . S
N698 C696 1.325 . S
N698 C697 1.261 . S
C699 H669 0.931 . S
C699 C696 1.357 . S
C699 C700 1.312 . S
C700 H671 0.930 . S
C700 C695 1.261 . S
C700 C699 1.312 . S
C701 O673 1.214 . S
C701 O681 1.234 . S
C702 H674 0.929 . S
C702 C705 1.391 . S
C702 C707 1.391 . S
C703 H675 0.929 . S
C703 C704 1.390 . S
C703 N706 1.391 . S
C704 H676 0.930 . S
C704 C703 1.390 . S
C704 C705 1.392 . S
C705 H677 0.929 . S
C705 C702 1.391 . S
C705 C704 1.392 . S
N706 Co650 2.257 . S
N706 C703 1.391 . S
N706 C707 1.388 . S
C707 H678 0.930 . S
C707 C702 1.391 . S
C707 N706 1.388 . S
Co708 O710 2.143 . S
Co708 O716 2.074 . S
Co708 O719 2.093 . S
Co708 O732 2.097 . S
Co708 N749 2.151 . S
Co708 N757 2.214 . S
Co709 O710 2.160 . S
Co709 O715 2.058 . S
Co709 O725 2.057 . S
Co709 O740 2.037 . S
Co709 N744 2.145 . S
Co709 N765 2.257 . S
O710 Co708 2.143 . S
O710 Co709 2.160 . S
C711 O712 1.278 . S
C711 O719 1.224 . S
O712 C711 1.278 . S
C713 O714 1.245 . S
C713 O725 1.232 . S
O714 C713 1.245 . S
O715 Co709 2.058 . S
O715 C741 1.269 . S
O716 Co708 2.074 . S
O716 C741 1.257 . S
H717 C742 0.930 . S
H718 C748 0.930 . S
O719 Co708 2.093 . S
O719 C711 1.224 . S
H720 C752 0.929 . S
H721 C754 0.930 . S
H722 C755 0.930 . S
H723 C753 0.929 . S
H724 C756 0.928 . S
O725 Co709 2.057 . S
O725 C713 1.232 . S
H726 C745 0.929 . S
H727 C746 0.929 . S
H728 C758 0.931 . S
H729 C750 0.929 . S
H730 C759 0.930 . S
H731 C751 0.931 . S
O732 Co708 2.097 . S
O732 C760 1.214 . S
H733 C761 0.929 . S
H734 C762 0.929 . S
H735 C763 0.930 . S
H736 C764 0.929 . S
H737 C766 0.930 . S
H738 C743 0.930 . S
H739 C747 0.930 . S
O740 Co709 2.037 . S
O740 C760 1.234 . S
C741 O715 1.269 . S
C741 O716 1.257 . S
C742 H717 0.930 . S
C742 C745 1.388 . S
C742 C747 1.418 . S
C743 H738 0.930 . S
C743 C746 1.404 . S
C743 C747 1.353 . S
N744 Co709 2.145 . S
N744 C745 1.397 . S
N744 C746 1.334 . S
C745 H726 0.929 . S
C745 C742 1.388 . S
C745 N744 1.397 . S
C746 H727 0.929 . S
C746 C743 1.404 . S
C746 N744 1.334 . S
C747 H739 0.930 . S
C747 C742 1.418 . S
C747 C743 1.353 . S
C748 H718 0.930 . S
C748 N749 1.330 . S
C748 C750 1.446 . S
N749 Co708 2.151 . S
N749 C748 1.330 . S
N749 C753 1.418 . S
C750 H729 0.929 . S
C750 C748 1.446 . S
C750 C751 1.332 . S
C751 H731 0.931 . S
C751 C750 1.332 . S
C751 C752 1.267 . S
C752 H720 0.929 . S
C752 C751 1.267 . S
C752 C753 1.251 . S
C753 H723 0.929 . S
C753 N749 1.418 . S
C753 C752 1.251 . S
C754 H721 0.930 . S
C754 C756 1.406 . S
C754 C759 1.261 . S
C755 H722 0.930 . S
C755 N757 1.325 . S
C755 C758 1.357 . S
C756 H724 0.928 . S
C756 C754 1.406 . S
C756 N757 1.261 . S
N757 Co708 2.214 . S
N757 C755 1.325 . S
N757 C756 1.261 . S
C758 H728 0.931 . S
C758 C755 1.357 . S
C758 C759 1.312 . S
C759 H730 0.930 . S
C759 C754 1.261 . S
C759 C758 1.312 . S
C760 O732 1.214 . S
C760 O740 1.234 . S
C761 H733 0.929 . S
C761 C764 1.391 . S
C761 C766 1.391 . S
C762 H734 0.929 . S
C762 C763 1.390 . S
C762 N765 1.391 . S
C763 H735 0.930 . S
C763 C762 1.390 . S
C763 C764 1.392 . S
C764 H736 0.929 . S
C764 C761 1.391 . S
C764 C763 1.392 . S
N765 Co709 2.257 . S
N765 C762 1.391 . S
N765 C766 1.388 . S
C766 H737 0.930 . S
C766 C761 1.391 . S
C766 N765 1.388 . S
Co767 O769 2.143 . S
Co767 O775 2.074 . S
Co767 O778 2.093 . S
Co767 O791 2.097 . S
Co767 N808 2.151 . S
Co767 N816 2.214 . S
Co768 O769 2.160 . S
Co768 O774 2.058 . S
Co768 O784 2.057 . S
Co768 O799 2.037 . S
Co768 N803 2.145 . S
Co768 N824 2.257 . S
O769 Co767 2.143 . S
O769 Co768 2.160 . S
C770 O771 1.278 . S
C770 O778 1.224 . S
O771 C770 1.278 . S
C772 O773 1.245 . S
C772 O784 1.232 . S
O773 C772 1.245 . S
O774 Co768 2.058 . S
O774 C800 1.269 . S
O775 Co767 2.074 . S
O775 C800 1.257 . S
H776 C801 0.930 . S
H777 C807 0.930 . S
O778 Co767 2.093 . S
O778 C770 1.224 . S
H779 C811 0.929 . S
H780 C813 0.930 . S
H781 C814 0.930 . S
H782 C812 0.929 . S
H783 C815 0.928 . S
O784 Co768 2.057 . S
O784 C772 1.232 . S
H785 C804 0.929 . S
H786 C805 0.929 . S
H787 C817 0.931 . S
H788 C809 0.929 . S
H789 C818 0.930 . S
H790 C810 0.931 . S
O791 Co767 2.097 . S
O791 C819 1.214 . S
H792 C820 0.929 . S
H793 C821 0.929 . S
H794 C822 0.930 . S
H795 C823 0.929 . S
H796 C825 0.930 . S
H797 C802 0.930 . S
H798 C806 0.930 . S
O799 Co768 2.037 . S
O799 C819 1.234 . S
C800 O774 1.269 . S
C800 O775 1.257 . S
C801 H776 0.930 . S
C801 C804 1.388 . S
C801 C806 1.418 . S
C802 H797 0.930 . S
C802 C805 1.404 . S
C802 C806 1.353 . S
N803 Co768 2.145 . S
N803 C804 1.397 . S
N803 C805 1.334 . S
C804 H785 0.929 . S
C804 C801 1.388 . S
C804 N803 1.397 . S
C805 H786 0.929 . S
C805 C802 1.404 . S
C805 N803 1.334 . S
C806 H798 0.930 . S
C806 C801 1.418 . S
C806 C802 1.353 . S
C807 H777 0.930 . S
C807 N808 1.330 . S
C807 C809 1.446 . S
N808 Co767 2.151 . S
N808 C807 1.330 . S
N808 C812 1.418 . S
C809 H788 0.929 . S
C809 C807 1.446 . S
C809 C810 1.332 . S
C810 H790 0.931 . S
C810 C809 1.332 . S
C810 C811 1.267 . S
C811 H779 0.929 . S
C811 C810 1.267 . S
C811 C812 1.251 . S
C812 H782 0.929 . S
C812 N808 1.418 . S
C812 C811 1.251 . S
C813 H780 0.930 . S
C813 C815 1.406 . S
C813 C818 1.261 . S
C814 H781 0.930 . S
C814 N816 1.325 . S
C814 C817 1.357 . S
C815 H783 0.928 . S
C815 C813 1.406 . S
C815 N816 1.261 . S
N816 Co767 2.214 . S
N816 C814 1.325 . S
N816 C815 1.261 . S
C817 H787 0.931 . S
C817 C814 1.357 . S
C817 C818 1.312 . S
C818 H789 0.930 . S
C818 C813 1.261 . S
C818 C817 1.312 . S
C819 O791 1.214 . S
C819 O799 1.234 . S
C820 H792 0.929 . S
C820 C823 1.391 . S
C820 C825 1.391 . S
C821 H793 0.929 . S
C821 C822 1.390 . S
C821 N824 1.391 . S
C822 H794 0.930 . S
C822 C821 1.390 . S
C822 C823 1.392 . S
C823 H795 0.929 . S
C823 C820 1.391 . S
C823 C822 1.392 . S
N824 Co768 2.257 . S
N824 C821 1.391 . S
N824 C825 1.388 . S
C825 H796 0.930 . S
C825 C820 1.391 . S
C825 N824 1.388 . S
Co826 O828 2.143 . S
Co826 O834 2.074 . S
Co826 O837 2.093 . S
Co826 O850 2.097 . S
Co826 N867 2.151 . S
Co826 N875 2.214 . S
Co827 O828 2.160 . S
Co827 O833 2.058 . S
Co827 O843 2.057 . S
Co827 O858 2.037 . S
Co827 N862 2.145 . S
Co827 N883 2.257 . S
O828 Co826 2.143 . S
O828 Co827 2.160 . S
C829 O830 1.278 . S
C829 O837 1.224 . S
O830 C829 1.278 . S
C831 O832 1.245 . S
C831 O843 1.232 . S
O832 C831 1.245 . S
O833 Co827 2.058 . S
O833 C859 1.269 . S
O834 Co826 2.074 . S
O834 C859 1.257 . S
H835 C860 0.930 . S
H836 C866 0.930 . S
O837 Co826 2.093 . S
O837 C829 1.224 . S
H838 C870 0.929 . S
H839 C872 0.930 . S
H840 C873 0.930 . S
H841 C871 0.929 . S
H842 C874 0.928 . S
O843 Co827 2.057 . S
O843 C831 1.232 . S
H844 C863 0.929 . S
H845 C864 0.929 . S
H846 C876 0.931 . S
H847 C868 0.929 . S
H848 C877 0.930 . S
H849 C869 0.931 . S
O850 Co826 2.097 . S
O850 C878 1.214 . S
H851 C879 0.929 . S
H852 C880 0.929 . S
H853 C881 0.930 . S
H854 C882 0.929 . S
H855 C884 0.930 . S
H856 C861 0.930 . S
H857 C865 0.930 . S
O858 Co827 2.037 . S
O858 C878 1.234 . S
C859 O833 1.269 . S
C859 O834 1.257 . S
C860 H835 0.930 . S
C860 C863 1.388 . S
C860 C865 1.418 . S
C861 H856 0.930 . S
C861 C864 1.404 . S
C861 C865 1.353 . S
N862 Co827 2.145 . S
N862 C863 1.397 . S
N862 C864 1.334 . S
C863 H844 0.929 . S
C863 C860 1.388 . S
C863 N862 1.397 . S
C864 H845 0.929 . S
C864 C861 1.404 . S
C864 N862 1.334 . S
C865 H857 0.930 . S
C865 C860 1.418 . S
C865 C861 1.353 . S
C866 H836 0.930 . S
C866 N867 1.330 . S
C866 C868 1.446 . S
N867 Co826 2.151 . S
N867 C866 1.330 . S
N867 C871 1.418 . S
C868 H847 0.929 . S
C868 C866 1.446 . S
C868 C869 1.332 . S
C869 H849 0.931 . S
C869 C868 1.332 . S
C869 C870 1.267 . S
C870 H838 0.929 . S
C870 C869 1.267 . S
C870 C871 1.251 . S
C871 H841 0.929 . S
C871 N867 1.418 . S
C871 C870 1.251 . S
C872 H839 0.930 . S
C872 C874 1.406 . S
C872 C877 1.261 . S
C873 H840 0.930 . S
C873 N875 1.325 . S
C873 C876 1.357 . S
C874 H842 0.928 . S
C874 C872 1.406 . S
C874 N875 1.261 . S
N875 Co826 2.214 . S
N875 C873 1.325 . S
N875 C874 1.261 . S
C876 H846 0.931 . S
C876 C873 1.357 . S
C876 C877 1.312 . S
C877 H848 0.930 . S
C877 C872 1.261 . S
C877 C876 1.312 . S
C878 O850 1.214 . S
C878 O858 1.234 . S
C879 H851 0.929 . S
C879 C882 1.391 . S
C879 C884 1.391 . S
C880 H852 0.929 . S
C880 C881 1.390 . S
C880 N883 1.391 . S
C881 H853 0.930 . S
C881 C880 1.390 . S
C881 C882 1.392 . S
C882 H854 0.929 . S
C882 C879 1.391 . S
C882 C881 1.392 . S
N883 Co827 2.257 . S
N883 C880 1.391 . S
N883 C884 1.388 . S
C884 H855 0.930 . S
C884 C879 1.391 . S
C884 N883 1.388 . S
Co885 O887 2.143 . S
Co885 O893 2.074 . S
Co885 O896 2.093 . S
Co885 O909 2.097 . S
Co885 N926 2.151 . S
Co885 N934 2.214 . S
Co886 O887 2.160 . S
Co886 O892 2.058 . S
Co886 O902 2.057 . S
Co886 O917 2.037 . S
Co886 N921 2.145 . S
Co886 N942 2.257 . S
O887 Co885 2.143 . S
O887 Co886 2.160 . S
C888 O889 1.278 . S
C888 O896 1.224 . S
O889 C888 1.278 . S
C890 O891 1.245 . S
C890 O902 1.232 . S
O891 C890 1.245 . S
O892 Co886 2.058 . S
O892 C918 1.269 . S
O893 Co885 2.074 . S
O893 C918 1.257 . S
H894 C919 0.930 . S
H895 C925 0.930 . S
O896 Co885 2.093 . S
O896 C888 1.224 . S
H897 C929 0.929 . S
H898 C931 0.930 . S
H899 C932 0.930 . S
H900 C930 0.929 . S
H901 C933 0.928 . S
O902 Co886 2.057 . S
O902 C890 1.232 . S
H903 C922 0.929 . S
H904 C923 0.929 . S
H905 C935 0.931 . S
H906 C927 0.929 . S
H907 C936 0.930 . S
H908 C928 0.931 . S
O909 Co885 2.097 . S
O909 C937 1.214 . S
H910 C938 0.929 . S
H911 C939 0.929 . S
H912 C940 0.930 . S
H913 C941 0.929 . S
H914 C943 0.930 . S
H915 C920 0.930 . S
H916 C924 0.930 . S
O917 Co886 2.037 . S
O917 C937 1.234 . S
C918 O892 1.269 . S
C918 O893 1.257 . S
C919 H894 0.930 . S
C919 C922 1.388 . S
C919 C924 1.418 . S
C920 H915 0.930 . S
C920 C923 1.404 . S
C920 C924 1.353 . S
N921 Co886 2.145 . S
N921 C922 1.397 . S
N921 C923 1.334 . S
C922 H903 0.929 . S
C922 C919 1.388 . S
C922 N921 1.397 . S
C923 H904 0.929 . S
C923 C920 1.404 . S
C923 N921 1.334 . S
C924 H916 0.930 . S
C924 C919 1.418 . S
C924 C920 1.353 . S
C925 H895 0.930 . S
C925 N926 1.330 . S
C925 C927 1.446 . S
N926 Co885 2.151 . S
N926 C925 1.330 . S
N926 C930 1.418 . S
C927 H906 0.929 . S
C927 C925 1.446 . S
C927 C928 1.332 . S
C928 H908 0.931 . S
C928 C927 1.332 . S
C928 C929 1.267 . S
C929 H897 0.929 . S
C929 C928 1.267 . S
C929 C930 1.251 . S
C930 H900 0.929 . S
C930 N926 1.418 . S
C930 C929 1.251 . S
C931 H898 0.930 . S
C931 C933 1.406 . S
C931 C936 1.261 . S
C932 H899 0.930 . S
C932 N934 1.325 . S
C932 C935 1.357 . S
C933 H901 0.928 . S
C933 C931 1.406 . S
C933 N934 1.261 . S
N934 Co885 2.214 . S
N934 C932 1.325 . S
N934 C933 1.261 . S
C935 H905 0.931 . S
C935 C932 1.357 . S
C935 C936 1.312 . S
C936 H907 0.930 . S
C936 C931 1.261 . S
C936 C935 1.312 . S
C937 O909 1.214 . S
C937 O917 1.234 . S
C938 H910 0.929 . S
C938 C941 1.391 . S
C938 C943 1.391 . S
C939 H911 0.929 . S
C939 C940 1.390 . S
C939 N942 1.391 . S
C940 H912 0.930 . S
C940 C939 1.390 . S
C940 C941 1.392 . S
C941 H913 0.929 . S
C941 C938 1.391 . S
C941 C940 1.392 . S
N942 Co886 2.257 . S
N942 C939 1.391 . S
N942 C943 1.388 . S
C943 H914 0.930 . S
C943 C938 1.391 . S
C943 N942 1.388 . S
Co944 O946 2.143 . S
Co944 O952 2.074 . S
Co944 O955 2.093 . S
Co944 O968 2.097 . S
Co944 N985 2.151 . S
Co944 N993 2.214 . S
Co945 O946 2.160 . S
Co945 O951 2.058 . S
Co945 O961 2.057 . S
Co945 O976 2.037 . S
Co945 N980 2.145 . S
Co945 N1001 2.257 . S
O946 Co944 2.143 . S
O946 Co945 2.160 . S
C947 O948 1.278 . S
C947 O955 1.224 . S
O948 C947 1.278 . S
C949 O950 1.245 . S
C949 O961 1.232 . S
O950 C949 1.245 . S
O951 Co945 2.058 . S
O951 C977 1.269 . S
O952 Co944 2.074 . S
O952 C977 1.257 . S
H953 C978 0.930 . S
H954 C984 0.930 . S
O955 Co944 2.093 . S
O955 C947 1.224 . S
H956 C988 0.929 . S
H957 C990 0.930 . S
H958 C991 0.930 . S
H959 C989 0.929 . S
H960 C992 0.928 . S
O961 Co945 2.057 . S
O961 C949 1.232 . S
H962 C981 0.929 . S
H963 C982 0.929 . S
H964 C994 0.931 . S
H965 C986 0.929 . S
H966 C995 0.930 . S
H967 C987 0.931 . S
O968 Co944 2.097 . S
O968 C996 1.214 . S
H969 C997 0.929 . S
H970 C998 0.929 . S
H971 C999 0.930 . S
H972 C1000 0.929 . S
H973 C1002 0.930 . S
H974 C979 0.930 . S
H975 C983 0.930 . S
O976 Co945 2.037 . S
O976 C996 1.234 . S
C977 O951 1.269 . S
C977 O952 1.257 . S
C978 H953 0.930 . S
C978 C981 1.388 . S
C978 C983 1.418 . S
C979 H974 0.930 . S
C979 C982 1.404 . S
C979 C983 1.353 . S
N980 Co945 2.145 . S
N980 C981 1.397 . S
N980 C982 1.334 . S
C981 H962 0.929 . S
C981 C978 1.388 . S
C981 N980 1.397 . S
C982 H963 0.929 . S
C982 C979 1.404 . S
C982 N980 1.334 . S
C983 H975 0.930 . S
C983 C978 1.418 . S
C983 C979 1.353 . S
C984 H954 0.930 . S
C984 N985 1.330 . S
C984 C986 1.446 . S
N985 Co944 2.151 . S
N985 C984 1.330 . S
N985 C989 1.418 . S
C986 H965 0.929 . S
C986 C984 1.446 . S
C986 C987 1.332 . S
C987 H967 0.931 . S
C987 C986 1.332 . S
C987 C988 1.267 . S
C988 H956 0.929 . S
C988 C987 1.267 . S
C988 C989 1.251 . S
C989 H959 0.929 . S
C989 N985 1.418 . S
C989 C988 1.251 . S
C990 H957 0.930 . S
C990 C992 1.406 . S
C990 C995 1.261 . S
C991 H958 0.930 . S
C991 N993 1.325 . S
C991 C994 1.357 . S
C992 H960 0.928 . S
C992 C990 1.406 . S
C992 N993 1.261 . S
N993 Co944 2.214 . S
N993 C991 1.325 . S
N993 C992 1.261 . S
C994 H964 0.931 . S
C994 C991 1.357 . S
C994 C995 1.312 . S
C995 H966 0.930 . S
C995 C990 1.261 . S
C995 C994 1.312 . S
C996 O968 1.214 . S
C996 O976 1.234 . S
C997 H969 0.929 . S
C997 C1000 1.391 . S
C997 C1002 1.391 . S
C998 H970 0.929 . S
C998 C999 1.390 . S
C998 N1001 1.391 . S
C999 H971 0.930 . S
C999 C998 1.390 . S
C999 C1000 1.392 . S
C1000 H972 0.929 . S
C1000 C997 1.391 . S
C1000 C999 1.392 . S
N1001 Co945 2.257 . S
N1001 C998 1.391 . S
N1001 C1002 1.388 . S
C1002 H973 0.930 . S
C1002 C997 1.391 . S
C1002 N1001 1.388 . S
Co1003 O1005 2.143 . S
Co1003 O1011 2.074 . S
Co1003 O1014 2.093 . S
Co1003 O1027 2.097 . S
Co1003 N1044 2.151 . S
Co1003 N1052 2.214 . S
Co1004 O1005 2.160 . S
Co1004 O1010 2.058 . S
Co1004 O1020 2.057 . S
Co1004 O1035 2.037 . S
Co1004 N1039 2.145 . S
Co1004 N1060 2.257 . S
O1005 Co1003 2.143 . S
O1005 Co1004 2.160 . S
C1006 O1007 1.278 . S
C1006 O1014 1.224 . S
O1007 C1006 1.278 . S
C1008 O1009 1.245 . S
C1008 O1020 1.232 . S
O1009 C1008 1.245 . S
O1010 Co1004 2.058 . S
O1010 C1036 1.269 . S
O1011 Co1003 2.074 . S
O1011 C1036 1.257 . S
H1012 C1037 0.930 . S
H1013 C1043 0.930 . S
O1014 Co1003 2.093 . S
O1014 C1006 1.224 . S
H1015 C1047 0.929 . S
H1016 C1049 0.930 . S
H1017 C1050 0.930 . S
H1018 C1048 0.929 . S
H1019 C1051 0.928 . S
O1020 Co1004 2.057 . S
O1020 C1008 1.232 . S
H1021 C1040 0.929 . S
H1022 C1041 0.929 . S
H1023 C1053 0.931 . S
H1024 C1045 0.929 . S
H1025 C1054 0.930 . S
H1026 C1046 0.931 . S
O1027 Co1003 2.097 . S
O1027 C1055 1.214 . S
H1028 C1056 0.929 . S
H1029 C1057 0.929 . S
H1030 C1058 0.930 . S
H1031 C1059 0.929 . S
H1032 C1061 0.930 . S
H1033 C1038 0.930 . S
H1034 C1042 0.930 . S
O1035 Co1004 2.037 . S
O1035 C1055 1.234 . S
C1036 O1010 1.269 . S
C1036 O1011 1.257 . S
C1037 H1012 0.930 . S
C1037 C1040 1.388 . S
C1037 C1042 1.418 . S
C1038 H1033 0.930 . S
C1038 C1041 1.404 . S
C1038 C1042 1.353 . S
N1039 Co1004 2.145 . S
N1039 C1040 1.397 . S
N1039 C1041 1.334 . S
C1040 H1021 0.929 . S
C1040 C1037 1.388 . S
C1040 N1039 1.397 . S
C1041 H1022 0.929 . S
C1041 C1038 1.404 . S
C1041 N1039 1.334 . S
C1042 H1034 0.930 . S
C1042 C1037 1.418 . S
C1042 C1038 1.353 . S
C1043 H1013 0.930 . S
C1043 N1044 1.330 . S
C1043 C1045 1.446 . S
N1044 Co1003 2.151 . S
N1044 C1043 1.330 . S
N1044 C1048 1.418 . S
C1045 H1024 0.929 . S
C1045 C1043 1.446 . S
C1045 C1046 1.332 . S
C1046 H1026 0.931 . S
C1046 C1045 1.332 . S
C1046 C1047 1.267 . S
C1047 H1015 0.929 . S
C1047 C1046 1.267 . S
C1047 C1048 1.251 . S
C1048 H1018 0.929 . S
C1048 N1044 1.418 . S
C1048 C1047 1.251 . S
C1049 H1016 0.930 . S
C1049 C1051 1.406 . S
C1049 C1054 1.261 . S
C1050 H1017 0.930 . S
C1050 N1052 1.325 . S
C1050 C1053 1.357 . S
C1051 H1019 0.928 . S
C1051 C1049 1.406 . S
C1051 N1052 1.261 . S
N1052 Co1003 2.214 . S
N1052 C1050 1.325 . S
N1052 C1051 1.261 . S
C1053 H1023 0.931 . S
C1053 C1050 1.357 . S
C1053 C1054 1.312 . S
C1054 H1025 0.930 . S
C1054 C1049 1.261 . S
C1054 C1053 1.312 . S
C1055 O1027 1.214 . S
C1055 O1035 1.234 . S
C1056 H1028 0.929 . S
C1056 C1059 1.391 . S
C1056 C1061 1.391 . S
C1057 H1029 0.929 . S
C1057 C1058 1.390 . S
C1057 N1060 1.391 . S
C1058 H1030 0.930 . S
C1058 C1057 1.390 . S
C1058 C1059 1.392 . S
C1059 H1031 0.929 . S
C1059 C1056 1.391 . S
C1059 C1058 1.392 . S
N1060 Co1004 2.257 . S
N1060 C1057 1.391 . S
N1060 C1061 1.388 . S
C1061 H1032 0.930 . S
C1061 C1056 1.391 . S
C1061 N1060 1.388 . S
Co1062 O1064 2.143 . S
Co1062 O1070 2.074 . S
Co1062 O1073 2.093 . S
Co1062 O1086 2.097 . S
Co1062 N1103 2.151 . S
Co1062 N1111 2.214 . S
Co1063 O1064 2.160 . S
Co1063 O1069 2.058 . S
Co1063 O1079 2.057 . S
Co1063 O1094 2.037 . S
Co1063 N1098 2.145 . S
Co1063 N1119 2.257 . S
O1064 Co1062 2.143 . S
O1064 Co1063 2.160 . S
C1065 O1066 1.278 . S
C1065 O1073 1.224 . S
O1066 C1065 1.278 . S
C1067 O1068 1.245 . S
C1067 O1079 1.232 . S
O1068 C1067 1.245 . S
O1069 Co1063 2.058 . S
O1069 C1095 1.269 . S
O1070 Co1062 2.074 . S
O1070 C1095 1.257 . S
H1071 C1096 0.930 . S
H1072 C1102 0.930 . S
O1073 Co1062 2.093 . S
O1073 C1065 1.224 . S
H1074 C1106 0.929 . S
H1075 C1108 0.930 . S
H1076 C1109 0.930 . S
H1077 C1107 0.929 . S
H1078 C1110 0.928 . S
O1079 Co1063 2.057 . S
O1079 C1067 1.232 . S
H1080 C1099 0.929 . S
H1081 C1100 0.929 . S
H1082 C1112 0.931 . S
H1083 C1104 0.929 . S
H1084 C1113 0.930 . S
H1085 C1105 0.931 . S
O1086 Co1062 2.097 . S
O1086 C1114 1.214 . S
H1087 C1115 0.929 . S
H1088 C1116 0.929 . S
H1089 C1117 0.930 . S
H1090 C1118 0.929 . S
H1091 C1120 0.930 . S
H1092 C1097 0.930 . S
H1093 C1101 0.930 . S
O1094 Co1063 2.037 . S
O1094 C1114 1.234 . S
C1095 O1069 1.269 . S
C1095 O1070 1.257 . S
C1096 H1071 0.930 . S
C1096 C1099 1.388 . S
C1096 C1101 1.418 . S
C1097 H1092 0.930 . S
C1097 C1100 1.404 . S
C1097 C1101 1.353 . S
N1098 Co1063 2.145 . S
N1098 C1099 1.397 . S
N1098 C1100 1.334 . S
C1099 H1080 0.929 . S
C1099 C1096 1.388 . S
C1099 N1098 1.397 . S
C1100 H1081 0.929 . S
C1100 C1097 1.404 . S
C1100 N1098 1.334 . S
C1101 H1093 0.930 . S
C1101 C1096 1.418 . S
C1101 C1097 1.353 . S
C1102 H1072 0.930 . S
C1102 N1103 1.330 . S
C1102 C1104 1.446 . S
N1103 Co1062 2.151 . S
N1103 C1102 1.330 . S
N1103 C1107 1.418 . S
C1104 H1083 0.929 . S
C1104 C1102 1.446 . S
C1104 C1105 1.332 . S
C1105 H1085 0.931 . S
C1105 C1104 1.332 . S
C1105 C1106 1.267 . S
C1106 H1074 0.929 . S
C1106 C1105 1.267 . S
C1106 C1107 1.251 . S
C1107 H1077 0.929 . S
C1107 N1103 1.418 . S
C1107 C1106 1.251 . S
C1108 H1075 0.930 . S
C1108 C1110 1.406 . S
C1108 C1113 1.261 . S
C1109 H1076 0.930 . S
C1109 N1111 1.325 . S
C1109 C1112 1.357 . S
C1110 H1078 0.928 . S
C1110 C1108 1.406 . S
C1110 N1111 1.261 . S
N1111 Co1062 2.214 . S
N1111 C1109 1.325 . S
N1111 C1110 1.261 . S
C1112 H1082 0.931 . S
C1112 C1109 1.357 . S
C1112 C1113 1.312 . S
C1113 H1084 0.930 . S
C1113 C1108 1.261 . S
C1113 C1112 1.312 . S
C1114 O1086 1.214 . S
C1114 O1094 1.234 . S
C1115 H1087 0.929 . S
C1115 C1118 1.391 . S
C1115 C1120 1.391 . S
C1116 H1088 0.929 . S
C1116 C1117 1.390 . S
C1116 N1119 1.391 . S
C1117 H1089 0.930 . S
C1117 C1116 1.390 . S
C1117 C1118 1.392 . S
C1118 H1090 0.929 . S
C1118 C1115 1.391 . S
C1118 C1117 1.392 . S
N1119 Co1063 2.257 . S
N1119 C1116 1.391 . S
N1119 C1120 1.388 . S
C1120 H1091 0.930 . S
C1120 C1115 1.391 . S
C1120 N1119 1.388 . S
Co1121 O1123 2.143 . S
Co1121 O1129 2.074 . S
Co1121 O1132 2.093 . S
Co1121 O1145 2.097 . S
Co1121 N1162 2.151 . S
Co1121 N1170 2.214 . S
Co1122 O1123 2.160 . S
Co1122 O1128 2.058 . S
Co1122 O1138 2.057 . S
Co1122 O1153 2.037 . S
Co1122 N1157 2.145 . S
Co1122 N1178 2.257 . S
O1123 Co1121 2.143 . S
O1123 Co1122 2.160 . S
C1124 O1125 1.278 . S
C1124 O1132 1.224 . S
O1125 C1124 1.278 . S
C1126 O1127 1.245 . S
C1126 O1138 1.232 . S
O1127 C1126 1.245 . S
O1128 Co1122 2.058 . S
O1128 C1154 1.269 . S
O1129 Co1121 2.074 . S
O1129 C1154 1.257 . S
H1130 C1155 0.930 . S
H1131 C1161 0.930 . S
O1132 Co1121 2.093 . S
O1132 C1124 1.224 . S
H1133 C1165 0.929 . S
H1134 C1167 0.930 . S
H1135 C1168 0.930 . S
H1136 C1166 0.929 . S
H1137 C1169 0.928 . S
O1138 Co1122 2.057 . S
O1138 C1126 1.232 . S
H1139 C1158 0.929 . S
H1140 C1159 0.929 . S
H1141 C1171 0.931 . S
H1142 C1163 0.929 . S
H1143 C1172 0.930 . S
H1144 C1164 0.931 . S
O1145 Co1121 2.097 . S
O1145 C1173 1.214 . S
H1146 C1174 0.929 . S
H1147 C1175 0.929 . S
H1148 C1176 0.930 . S
H1149 C1177 0.929 . S
H1150 C1179 0.930 . S
H1151 C1156 0.930 . S
H1152 C1160 0.930 . S
O1153 Co1122 2.037 . S
O1153 C1173 1.234 . S
C1154 O1128 1.269 . S
C1154 O1129 1.257 . S
C1155 H1130 0.930 . S
C1155 C1158 1.388 . S
C1155 C1160 1.418 . S
C1156 H1151 0.930 . S
C1156 C1159 1.404 . S
C1156 C1160 1.353 . S
N1157 Co1122 2.145 . S
N1157 C1158 1.397 . S
N1157 C1159 1.334 . S
C1158 H1139 0.929 . S
C1158 C1155 1.388 . S
C1158 N1157 1.397 . S
C1159 H1140 0.929 . S
C1159 C1156 1.404 . S
C1159 N1157 1.334 . S
C1160 H1152 0.930 . S
C1160 C1155 1.418 . S
C1160 C1156 1.353 . S
C1161 H1131 0.930 . S
C1161 N1162 1.330 . S
C1161 C1163 1.446 . S
N1162 Co1121 2.151 . S
N1162 C1161 1.330 . S
N1162 C1166 1.418 . S
C1163 H1142 0.929 . S
C1163 C1161 1.446 . S
C1163 C1164 1.332 . S
C1164 H1144 0.931 . S
C1164 C1163 1.332 . S
C1164 C1165 1.267 . S
C1165 H1133 0.929 . S
C1165 C1164 1.267 . S
C1165 C1166 1.251 . S
C1166 H1136 0.929 . S
C1166 N1162 1.418 . S
C1166 C1165 1.251 . S
C1167 H1134 0.930 . S
C1167 C1169 1.406 . S
C1167 C1172 1.261 . S
C1168 H1135 0.930 . S
C1168 N1170 1.325 . S
C1168 C1171 1.357 . S
C1169 H1137 0.928 . S
C1169 C1167 1.406 . S
C1169 N1170 1.261 . S
N1170 Co1121 2.214 . S
N1170 C1168 1.325 . S
N1170 C1169 1.261 . S
C1171 H1141 0.931 . S
C1171 C1168 1.357 . S
C1171 C1172 1.312 . S
C1172 H1143 0.930 . S
C1172 C1167 1.261 . S
C1172 C1171 1.312 . S
C1173 O1145 1.214 . S
C1173 O1153 1.234 . S
C1174 H1146 0.929 . S
C1174 C1177 1.391 . S
C1174 C1179 1.391 . S
C1175 H1147 0.929 . S
C1175 C1176 1.390 . S
C1175 N1178 1.391 . S
C1176 H1148 0.930 . S
C1176 C1175 1.390 . S
C1176 C1177 1.392 . S
C1177 H1149 0.929 . S
C1177 C1174 1.391 . S
C1177 C1176 1.392 . S
N1178 Co1122 2.257 . S
N1178 C1175 1.391 . S
N1178 C1179 1.388 . S
C1179 H1150 0.930 . S
C1179 C1174 1.391 . S
C1179 N1178 1.388 . S
Co1180 O1182 2.143 . S
Co1180 O1188 2.074 . S
Co1180 O1191 2.093 . S
Co1180 O1204 2.097 . S
Co1180 N1221 2.151 . S
Co1180 N1229 2.214 . S
Co1181 O1182 2.160 . S
Co1181 O1187 2.058 . S
Co1181 O1197 2.057 . S
Co1181 O1212 2.037 . S
Co1181 N1216 2.145 . S
Co1181 N1237 2.257 . S
O1182 Co1180 2.143 . S
O1182 Co1181 2.160 . S
C1183 O1184 1.278 . S
C1183 O1191 1.224 . S
O1184 C1183 1.278 . S
C1185 O1186 1.245 . S
C1185 O1197 1.232 . S
O1186 C1185 1.245 . S
O1187 Co1181 2.058 . S
O1187 C1213 1.269 . S
O1188 Co1180 2.074 . S
O1188 C1213 1.257 . S
H1189 C1214 0.930 . S
H1190 C1220 0.930 . S
O1191 Co1180 2.093 . S
O1191 C1183 1.224 . S
H1192 C1224 0.929 . S
H1193 C1226 0.930 . S
H1194 C1227 0.930 . S
H1195 C1225 0.929 . S
H1196 C1228 0.928 . S
O1197 Co1181 2.057 . S
O1197 C1185 1.232 . S
H1198 C1217 0.929 . S
H1199 C1218 0.929 . S
H1200 C1230 0.931 . S
H1201 C1222 0.929 . S
H1202 C1231 0.930 . S
H1203 C1223 0.931 . S
O1204 Co1180 2.097 . S
O1204 C1232 1.214 . S
H1205 C1233 0.929 . S
H1206 C1234 0.929 . S
H1207 C1235 0.930 . S
H1208 C1236 0.929 . S
H1209 C1238 0.930 . S
H1210 C1215 0.930 . S
H1211 C1219 0.930 . S
O1212 Co1181 2.037 . S
O1212 C1232 1.234 . S
C1213 O1187 1.269 . S
C1213 O1188 1.257 . S
C1214 H1189 0.930 . S
C1214 C1217 1.388 . S
C1214 C1219 1.418 . S
C1215 H1210 0.930 . S
C1215 C1218 1.404 . S
C1215 C1219 1.353 . S
N1216 Co1181 2.145 . S
N1216 C1217 1.397 . S
N1216 C1218 1.334 . S
C1217 H1198 0.929 . S
C1217 C1214 1.388 . S
C1217 N1216 1.397 . S
C1218 H1199 0.929 . S
C1218 C1215 1.404 . S
C1218 N1216 1.334 . S
C1219 H1211 0.930 . S
C1219 C1214 1.418 . S
C1219 C1215 1.353 . S
C1220 H1190 0.930 . S
C1220 N1221 1.330 . S
C1220 C1222 1.446 . S
N1221 Co1180 2.151 . S
N1221 C1220 1.330 . S
N1221 C1225 1.418 . S
C1222 H1201 0.929 . S
C1222 C1220 1.446 . S
C1222 C1223 1.332 . S
C1223 H1203 0.931 . S
C1223 C1222 1.332 . S
C1223 C1224 1.267 . S
C1224 H1192 0.929 . S
C1224 C1223 1.267 . S
C1224 C1225 1.251 . S
C1225 H1195 0.929 . S
C1225 N1221 1.418 . S
C1225 C1224 1.251 . S
C1226 H1193 0.930 . S
C1226 C1228 1.406 . S
C1226 C1231 1.261 . S
C1227 H1194 0.930 . S
C1227 N1229 1.325 . S
C1227 C1230 1.357 . S
C1228 H1196 0.928 . S
C1228 C1226 1.406 . S
C1228 N1229 1.261 . S
N1229 Co1180 2.214 . S
N1229 C1227 1.325 . S
N1229 C1228 1.261 . S
C1230 H1200 0.931 . S
C1230 C1227 1.357 . S
C1230 C1231 1.312 . S
C1231 H1202 0.930 . S
C1231 C1226 1.261 . S
C1231 C1230 1.312 . S
C1232 O1204 1.214 . S
C1232 O1212 1.234 . S
C1233 H1205 0.929 . S
C1233 C1236 1.391 . S
C1233 C1238 1.391 . S
C1234 H1206 0.929 . S
C1234 C1235 1.390 . S
C1234 N1237 1.391 . S
C1235 H1207 0.930 . S
C1235 C1234 1.390 . S
C1235 C1236 1.392 . S
C1236 H1208 0.929 . S
C1236 C1233 1.391 . S
C1236 C1235 1.392 . S
N1237 Co1181 2.257 . S
N1237 C1234 1.391 . S
N1237 C1238 1.388 . S
C1238 H1209 0.930 . S
C1238 C1233 1.391 . S
C1238 N1237 1.388 . S
Co1239 O1241 2.143 . S
Co1239 O1247 2.074 . S
Co1239 O1250 2.093 . S
Co1239 O1263 2.097 . S
Co1239 N1280 2.151 . S
Co1239 N1288 2.214 . S
Co1240 O1241 2.160 . S
Co1240 O1246 2.058 . S
Co1240 O1256 2.057 . S
Co1240 O1271 2.037 . S
Co1240 N1275 2.145 . S
Co1240 N1296 2.257 . S
O1241 Co1239 2.143 . S
O1241 Co1240 2.160 . S
C1242 O1243 1.278 . S
C1242 O1250 1.224 . S
O1243 C1242 1.278 . S
C1244 O1245 1.245 . S
C1244 O1256 1.232 . S
O1245 C1244 1.245 . S
O1246 Co1240 2.058 . S
O1246 C1272 1.269 . S
O1247 Co1239 2.074 . S
O1247 C1272 1.257 . S
H1248 C1273 0.930 . S
H1249 C1279 0.930 . S
O1250 Co1239 2.093 . S
O1250 C1242 1.224 . S
H1251 C1283 0.929 . S
H1252 C1285 0.930 . S
H1253 C1286 0.930 . S
H1254 C1284 0.929 . S
H1255 C1287 0.928 . S
O1256 Co1240 2.057 . S
O1256 C1244 1.232 . S
H1257 C1276 0.929 . S
H1258 C1277 0.929 . S
H1259 C1289 0.931 . S
H1260 C1281 0.929 . S
H1261 C1290 0.930 . S
H1262 C1282 0.931 . S
O1263 Co1239 2.097 . S
O1263 C1291 1.214 . S
H1264 C1292 0.929 . S
H1265 C1293 0.929 . S
H1266 C1294 0.930 . S
H1267 C1295 0.929 . S
H1268 C1297 0.930 . S
H1269 C1274 0.930 . S
H1270 C1278 0.930 . S
O1271 Co1240 2.037 . S
O1271 C1291 1.234 . S
C1272 O1246 1.269 . S
C1272 O1247 1.257 . S
C1273 H1248 0.930 . S
C1273 C1276 1.388 . S
C1273 C1278 1.418 . S
C1274 H1269 0.930 . S
C1274 C1277 1.404 . S
C1274 C1278 1.353 . S
N1275 Co1240 2.145 . S
N1275 C1276 1.397 . S
N1275 C1277 1.334 . S
C1276 H1257 0.929 . S
C1276 C1273 1.388 . S
C1276 N1275 1.397 . S
C1277 H1258 0.929 . S
C1277 C1274 1.404 . S
C1277 N1275 1.334 . S
C1278 H1270 0.930 . S
C1278 C1273 1.418 . S
C1278 C1274 1.353 . S
C1279 H1249 0.930 . S
C1279 N1280 1.330 . S
C1279 C1281 1.446 . S
N1280 Co1239 2.151 . S
N1280 C1279 1.330 . S
N1280 C1284 1.418 . S
C1281 H1260 0.929 . S
C1281 C1279 1.446 . S
C1281 C1282 1.332 . S
C1282 H1262 0.931 . S
C1282 C1281 1.332 . S
C1282 C1283 1.267 . S
C1283 H1251 0.929 . S
C1283 C1282 1.267 . S
C1283 C1284 1.251 . S
C1284 H1254 0.929 . S
C1284 N1280 1.418 . S
C1284 C1283 1.251 . S
C1285 H1252 0.930 . S
C1285 C1287 1.406 . S
C1285 C1290 1.261 . S
C1286 H1253 0.930 . S
C1286 N1288 1.325 . S
C1286 C1289 1.357 . S
C1287 H1255 0.928 . S
C1287 C1285 1.406 . S
C1287 N1288 1.261 . S
N1288 Co1239 2.214 . S
N1288 C1286 1.325 . S
N1288 C1287 1.261 . S
C1289 H1259 0.931 . S
C1289 C1286 1.357 . S
C1289 C1290 1.312 . S
C1290 H1261 0.930 . S
C1290 C1285 1.261 . S
C1290 C1289 1.312 . S
C1291 O1263 1.214 . S
C1291 O1271 1.234 . S
C1292 H1264 0.929 . S
C1292 C1295 1.391 . S
C1292 C1297 1.391 . S
C1293 H1265 0.929 . S
C1293 C1294 1.390 . S
C1293 N1296 1.391 . S
C1294 H1266 0.930 . S
C1294 C1293 1.390 . S
C1294 C1295 1.392 . S
C1295 H1267 0.929 . S
C1295 C1292 1.391 . S
C1295 C1294 1.392 . S
N1296 Co1240 2.257 . S
N1296 C1293 1.391 . S
N1296 C1297 1.388 . S
C1297 H1268 0.930 . S
C1297 C1292 1.391 . S
C1297 N1296 1.388 . S
Co1298 O1300 2.143 . S
Co1298 O1306 2.074 . S
Co1298 O1309 2.093 . S
Co1298 O1322 2.097 . S
Co1298 N1339 2.151 . S
Co1298 N1347 2.214 . S
Co1299 O1300 2.160 . S
Co1299 O1305 2.058 . S
Co1299 O1315 2.057 . S
Co1299 O1330 2.037 . S
Co1299 N1334 2.145 . S
Co1299 N1355 2.257 . S
O1300 Co1298 2.143 . S
O1300 Co1299 2.160 . S
C1301 O1302 1.278 . S
C1301 O1309 1.224 . S
O1302 C1301 1.278 . S
C1303 O1304 1.245 . S
C1303 O1315 1.232 . S
O1304 C1303 1.245 . S
O1305 Co1299 2.058 . S
O1305 C1331 1.269 . S
O1306 Co1298 2.074 . S
O1306 C1331 1.257 . S
H1307 C1332 0.930 . S
H1308 C1338 0.930 . S
O1309 Co1298 2.093 . S
O1309 C1301 1.224 . S
H1310 C1342 0.929 . S
H1311 C1344 0.930 . S
H1312 C1345 0.930 . S
H1313 C1343 0.929 . S
H1314 C1346 0.928 . S
O1315 Co1299 2.057 . S
O1315 C1303 1.232 . S
H1316 C1335 0.929 . S
H1317 C1336 0.929 . S
H1318 C1348 0.931 . S
H1319 C1340 0.929 . S
H1320 C1349 0.930 . S
H1321 C1341 0.931 . S
O1322 Co1298 2.097 . S
O1322 C1350 1.214 . S
H1323 C1351 0.929 . S
H1324 C1352 0.929 . S
H1325 C1353 0.930 . S
H1326 C1354 0.929 . S
H1327 C1356 0.930 . S
H1328 C1333 0.930 . S
H1329 C1337 0.930 . S
O1330 Co1299 2.037 . S
O1330 C1350 1.234 . S
C1331 O1305 1.269 . S
C1331 O1306 1.257 . S
C1332 H1307 0.930 . S
C1332 C1335 1.388 . S
C1332 C1337 1.418 . S
C1333 H1328 0.930 . S
C1333 C1336 1.404 . S
C1333 C1337 1.353 . S
N1334 Co1299 2.145 . S
N1334 C1335 1.397 . S
N1334 C1336 1.334 . S
C1335 H1316 0.929 . S
C1335 C1332 1.388 . S
C1335 N1334 1.397 . S
C1336 H1317 0.929 . S
C1336 C1333 1.404 . S
C1336 N1334 1.334 . S
C1337 H1329 0.930 . S
C1337 C1332 1.418 . S
C1337 C1333 1.353 . S
C1338 H1308 0.930 . S
C1338 N1339 1.330 . S
C1338 C1340 1.446 . S
N1339 Co1298 2.151 . S
N1339 C1338 1.330 . S
N1339 C1343 1.418 . S
C1340 H1319 0.929 . S
C1340 C1338 1.446 . S
C1340 C1341 1.332 . S
C1341 H1321 0.931 . S
C1341 C1340 1.332 . S
C1341 C1342 1.267 . S
C1342 H1310 0.929 . S
C1342 C1341 1.267 . S
C1342 C1343 1.251 . S
C1343 H1313 0.929 . S
C1343 N1339 1.418 . S
C1343 C1342 1.251 . S
C1344 H1311 0.930 . S
C1344 C1346 1.406 . S
C1344 C1349 1.261 . S
C1345 H1312 0.930 . S
C1345 N1347 1.325 . S
C1345 C1348 1.357 . S
C1346 H1314 0.928 . S
C1346 C1344 1.406 . S
C1346 N1347 1.261 . S
N1347 Co1298 2.214 . S
N1347 C1345 1.325 . S
N1347 C1346 1.261 . S
C1348 H1318 0.931 . S
C1348 C1345 1.357 . S
C1348 C1349 1.312 . S
C1349 H1320 0.930 . S
C1349 C1344 1.261 . S
C1349 C1348 1.312 . S
C1350 O1322 1.214 . S
C1350 O1330 1.234 . S
C1351 H1323 0.929 . S
C1351 C1354 1.391 . S
C1351 C1356 1.391 . S
C1352 H1324 0.929 . S
C1352 C1353 1.390 . S
C1352 N1355 1.391 . S
C1353 H1325 0.930 . S
C1353 C1352 1.390 . S
C1353 C1354 1.392 . S
C1354 H1326 0.929 . S
C1354 C1351 1.391 . S
C1354 C1353 1.392 . S
N1355 Co1299 2.257 . S
N1355 C1352 1.391 . S
N1355 C1356 1.388 . S
C1356 H1327 0.930 . S
C1356 C1351 1.391 . S
C1356 N1355 1.388 . S
Co1357 O1359 2.143 . S
Co1357 O1365 2.074 . S
Co1357 O1368 2.093 . S
Co1357 O1381 2.097 . S
Co1357 N1398 2.151 . S
Co1357 N1406 2.214 . S
Co1358 O1359 2.160 . S
Co1358 O1364 2.058 . S
Co1358 O1374 2.057 . S
Co1358 O1389 2.037 . S
Co1358 N1393 2.145 . S
Co1358 N1414 2.257 . S
O1359 Co1357 2.143 . S
O1359 Co1358 2.160 . S
C1360 O1361 1.278 . S
C1360 O1368 1.224 . S
O1361 C1360 1.278 . S
C1362 O1363 1.245 . S
C1362 O1374 1.232 . S
O1363 C1362 1.245 . S
O1364 Co1358 2.058 . S
O1364 C1390 1.269 . S
O1365 Co1357 2.074 . S
O1365 C1390 1.257 . S
H1366 C1391 0.930 . S
H1367 C1397 0.930 . S
O1368 Co1357 2.093 . S
O1368 C1360 1.224 . S
H1369 C1401 0.929 . S
H1370 C1403 0.930 . S
H1371 C1404 0.930 . S
H1372 C1402 0.929 . S
H1373 C1405 0.928 . S
O1374 Co1358 2.057 . S
O1374 C1362 1.232 . S
H1375 C1394 0.929 . S
H1376 C1395 0.929 . S
H1377 C1407 0.931 . S
H1378 C1399 0.929 . S
H1379 C1408 0.930 . S
H1380 C1400 0.931 . S
O1381 Co1357 2.097 . S
O1381 C1409 1.214 . S
H1382 C1410 0.929 . S
H1383 C1411 0.929 . S
H1384 C1412 0.930 . S
H1385 C1413 0.929 . S
H1386 C1415 0.930 . S
H1387 C1392 0.930 . S
H1388 C1396 0.930 . S
O1389 Co1358 2.037 . S
O1389 C1409 1.234 . S
C1390 O1364 1.269 . S
C1390 O1365 1.257 . S
C1391 H1366 0.930 . S
C1391 C1394 1.388 . S
C1391 C1396 1.418 . S
C1392 H1387 0.930 . S
C1392 C1395 1.404 . S
C1392 C1396 1.353 . S
N1393 Co1358 2.145 . S
N1393 C1394 1.397 . S
N1393 C1395 1.334 . S
C1394 H1375 0.929 . S
C1394 C1391 1.388 . S
C1394 N1393 1.397 . S
C1395 H1376 0.929 . S
C1395 C1392 1.404 . S
C1395 N1393 1.334 . S
C1396 H1388 0.930 . S
C1396 C1391 1.418 . S
C1396 C1392 1.353 . S
C1397 H1367 0.930 . S
C1397 N1398 1.330 . S
C1397 C1399 1.446 . S
N1398 Co1357 2.151 . S
N1398 C1397 1.330 . S
N1398 C1402 1.418 . S
C1399 H1378 0.929 . S
C1399 C1397 1.446 . S
C1399 C1400 1.332 . S
C1400 H1380 0.931 . S
C1400 C1399 1.332 . S
C1400 C1401 1.267 . S
C1401 H1369 0.929 . S
C1401 C1400 1.267 . S
C1401 C1402 1.251 . S
C1402 H1372 0.929 . S
C1402 N1398 1.418 . S
C1402 C1401 1.251 . S
C1403 H1370 0.930 . S
C1403 C1405 1.406 . S
C1403 C1408 1.261 . S
C1404 H1371 0.930 . S
C1404 N1406 1.325 . S
C1404 C1407 1.357 . S
C1405 H1373 0.928 . S
C1405 C1403 1.406 . S
C1405 N1406 1.261 . S
N1406 Co1357 2.214 . S
N1406 C1404 1.325 . S
N1406 C1405 1.261 . S
C1407 H1377 0.931 . S
C1407 C1404 1.357 . S
C1407 C1408 1.312 . S
C1408 H1379 0.930 . S
C1408 C1403 1.261 . S
C1408 C1407 1.312 . S
C1409 O1381 1.214 . S
C1409 O1389 1.234 . S
C1410 H1382 0.929 . S
C1410 C1413 1.391 . S
C1410 C1415 1.391 . S
C1411 H1383 0.929 . S
C1411 C1412 1.390 . S
C1411 N1414 1.391 . S
C1412 H1384 0.930 . S
C1412 C1411 1.390 . S
C1412 C1413 1.392 . S
C1413 H1385 0.929 . S
C1413 C1410 1.391 . S
C1413 C1412 1.392 . S
N1414 Co1358 2.257 . S
N1414 C1411 1.391 . S
N1414 C1415 1.388 . S
C1415 H1386 0.930 . S
C1415 C1410 1.391 . S
C1415 N1414 1.388 . S
C1416 C1417 1.387 . S
C1416 H1420 0.950 . S
C1416 C1425 1.390 . S
C1417 C1416 1.387 . S
C1417 C1419 1.387 . S
H1418 C1425 0.950 . S
C1419 C1417 1.387 . S
C1419 C1421 1.390 . S
C1419 H1423 0.950 . S
H1420 C1416 0.950 . S
C1421 C1419 1.390 . S
C1421 C1422 1.387 . S
C1421 H1424 0.950 . S
C1422 C1421 1.387 . S
C1422 C1425 1.387 . S
H1423 C1419 0.950 . S
H1424 C1421 0.950 . S
C1425 C1416 1.390 . S
C1425 H1418 0.950 . S
C1425 C1422 1.387 . S
C1426 C1427 1.387 . S
C1426 H1430 0.950 . S
C1426 C1435 1.390 1_655 S
C1427 C1426 1.387 . S
C1427 C1429 1.387 . S
H1428 C1435 0.950 . S
C1429 C1427 1.387 . S
C1429 C1431 1.390 1_655 S
C1429 H1433 0.950 . S
H1430 C1426 0.950 . S
C1431 C1429 1.390 1_455 S
C1431 C1432 1.387 . S
C1431 H1434 0.950 . S
C1432 C1431 1.387 . S
C1432 C1435 1.387 . S
H1433 C1429 0.950 . S
H1434 C1431 0.950 . S
C1435 C1426 1.390 1_455 S
C1435 H1428 0.950 . S
C1435 C1432 1.387 . S
C1436 C1437 1.387 . S
C1436 H1440 0.950 . S
C1436 C1445 1.390 . S
C1437 C1436 1.387 . S
C1437 C1439 1.387 . S
H1438 C1445 0.950 . S
C1439 C1437 1.387 . S
C1439 C1441 1.390 . S
C1439 H1443 0.950 . S
H1440 C1436 0.950 . S
C1441 C1439 1.390 . S
C1441 C1442 1.387 . S
C1441 H1444 0.950 . S
C1442 C1441 1.387 . S
C1442 C1445 1.387 . S
H1443 C1439 0.950 . S
H1444 C1441 0.950 . S
C1445 C1436 1.390 . S
C1445 H1438 0.950 . S
C1445 C1442 1.387 . S
C1446 C1447 1.387 . S
C1446 H1450 0.950 . S
C1446 C1455 1.390 1_455 S
C1447 C1446 1.387 . S
C1447 C1449 1.387 . S
H1448 C1455 0.950 . S
C1449 C1447 1.387 . S
C1449 C1451 1.390 1_455 S
C1449 H1453 0.950 . S
H1450 C1446 0.950 . S
C1451 C1449 1.390 1_655 S
C1451 C1452 1.387 . S
C1451 H1454 0.950 . S
C1452 C1451 1.387 . S
C1452 C1455 1.387 . S
H1453 C1449 0.950 . S
H1454 C1451 0.950 . S
C1455 C1446 1.390 1_655 S
C1455 H1448 0.950 . S
C1455 C1452 1.387 . S
C1456 C1457 1.387 . S
C1456 H1460 0.950 . S
C1456 C1465 1.390 . S
C1457 C1456 1.387 . S
C1457 C1459 1.387 . S
H1458 C1465 0.950 . S
C1459 C1457 1.387 . S
C1459 C1461 1.390 . S
C1459 H1463 0.950 . S
H1460 C1456 0.950 . S
C1461 C1459 1.390 . S
C1461 C1462 1.387 . S
C1461 H1464 0.950 . S
C1462 C1461 1.387 . S
C1462 C1465 1.387 . S
H1463 C1459 0.950 . S
H1464 C1461 0.950 . S
C1465 C1456 1.390 . S
C1465 H1458 0.950 . S
C1465 C1462 1.387 . S
C1466 C1467 1.387 . S
C1466 H1470 0.950 . S
C1466 C1475 1.390 1_655 S
C1467 C1466 1.387 . S
C1467 C1469 1.387 . S
H1468 C1475 0.950 . S
C1469 C1467 1.387 . S
C1469 C1471 1.390 1_655 S
C1469 H1473 0.950 . S
H1470 C1466 0.950 . S
C1471 C1469 1.390 1_455 S
C1471 C1472 1.387 . S
C1471 H1474 0.950 . S
C1472 C1471 1.387 . S
C1472 C1475 1.387 . S
H1473 C1469 0.950 . S
H1474 C1471 0.950 . S
C1475 C1466 1.390 1_455 S
C1475 H1468 0.950 . S
C1475 C1472 1.387 . S
C1476 C1477 1.387 . S
C1476 H1480 0.950 . S
C1476 C1485 1.390 . S
C1477 C1476 1.387 . S
C1477 C1479 1.387 . S
H1478 C1485 0.950 . S
C1479 C1477 1.387 . S
C1479 C1481 1.390 . S
C1479 H1483 0.950 . S
H1480 C1476 0.950 . S
C1481 C1479 1.390 . S
C1481 C1482 1.387 . S
C1481 H1484 0.950 . S
C1482 C1481 1.387 . S
C1482 C1485 1.387 . S
H1483 C1479 0.950 . S
H1484 C1481 0.950 . S
C1485 C1476 1.390 . S
C1485 H1478 0.950 . S
C1485 C1482 1.387 . S
C1486 C1487 1.387 . S
C1486 H1490 0.950 . S
C1486 C1495 1.390 1_655 S
C1487 C1486 1.387 . S
C1487 C1489 1.387 . S
H1488 C1495 0.950 . S
C1489 C1487 1.387 . S
C1489 C1491 1.390 1_655 S
C1489 H1493 0.950 . S
H1490 C1486 0.950 . S
C1491 C1489 1.390 1_455 S
C1491 C1492 1.387 . S
C1491 H1494 0.950 . S
C1492 C1491 1.387 . S
C1492 C1495 1.387 . S
H1493 C1489 0.950 . S
H1494 C1491 0.950 . S
C1495 C1486 1.390 1_455 S
C1495 H1488 0.950 . S
C1495 C1492 1.387 . S
C1496 C1497 1.387 . S
C1496 H1500 0.950 . S
C1496 C1505 1.390 . S
C1497 C1496 1.387 . S
C1497 C1499 1.387 . S
H1498 C1505 0.950 . S
C1499 C1497 1.387 . S
C1499 C1501 1.390 . S
C1499 H1503 0.950 . S
H1500 C1496 0.950 . S
C1501 C1499 1.390 . S
C1501 C1502 1.387 . S
C1501 H1504 0.950 . S
C1502 C1501 1.387 . S
C1502 C1505 1.387 . S
H1503 C1499 0.950 . S
H1504 C1501 0.950 . S
C1505 C1496 1.390 . S
C1505 H1498 0.950 . S
C1505 C1502 1.387 . S
C1506 C1507 1.387 . S
C1506 H1510 0.950 . S
C1506 C1515 1.390 1_556 S
C1507 C1506 1.387 . S
C1507 C1509 1.387 . S
H1508 C1515 0.950 . S
C1509 C1507 1.387 . S
C1509 C1511 1.390 1_556 S
C1509 H1513 0.950 . S
H1510 C1506 0.950 . S
C1511 C1509 1.390 1_554 S
C1511 C1512 1.387 . S
C1511 H1514 0.950 . S
C1512 C1511 1.387 . S
C1512 C1515 1.387 . S
H1513 C1509 0.950 . S
H1514 C1511 0.950 . S
C1515 C1506 1.390 1_554 S
C1515 H1508 0.950 . S
C1515 C1512 1.387 . S
C1516 C1517 1.387 . S
C1516 H1520 0.950 . S
C1516 C1525 1.390 . S
C1517 C1516 1.387 . S
C1517 C1519 1.387 . S
H1518 C1525 0.950 . S
C1519 C1517 1.387 . S
C1519 C1521 1.390 . S
C1519 H1523 0.950 . S
H1520 C1516 0.950 . S
C1521 C1519 1.390 . S
C1521 C1522 1.387 . S
C1521 H1524 0.950 . S
C1522 C1521 1.387 . S
C1522 C1525 1.387 . S
H1523 C1519 0.950 . S
H1524 C1521 0.950 . S
C1525 C1516 1.390 . S
C1525 H1518 0.950 . S
C1525 C1522 1.387 . S
C1526 C1527 1.387 . S
C1526 H1530 0.950 . S
C1526 C1535 1.390 1_554 S
C1527 C1526 1.387 . S
C1527 C1529 1.387 . S
H1528 C1535 0.950 . S
C1529 C1527 1.387 . S
C1529 C1531 1.390 1_554 S
C1529 H1533 0.950 . S
H1530 C1526 0.950 . S
C1531 C1529 1.390 1_556 S
C1531 C1532 1.387 . S
C1531 H1534 0.950 . S
C1532 C1531 1.387 . S
C1532 C1535 1.387 . S
H1533 C1529 0.950 . S
H1534 C1531 0.950 . S
C1535 C1526 1.390 1_556 S
C1535 H1528 0.950 . S
C1535 C1532 1.387 . S
C1536 C1537 1.387 . S
C1536 H1540 0.950 . S
C1536 C1545 1.390 . S
C1537 C1536 1.387 . S
C1537 C1539 1.387 . S
H1538 C1545 0.950 . S
C1539 C1537 1.387 . S
C1539 C1541 1.390 . S
C1539 H1543 0.950 . S
H1540 C1536 0.950 . S
C1541 C1539 1.390 . S
C1541 C1542 1.387 . S
C1541 H1544 0.950 . S
C1542 C1541 1.387 . S
C1542 C1545 1.387 . S
H1543 C1539 0.950 . S
H1544 C1541 0.950 . S
C1545 C1536 1.390 . S
C1545 H1538 0.950 . S
C1545 C1542 1.387 . S
C1546 C1547 1.387 . S
C1546 H1550 0.950 . S
C1546 C1555 1.390 1_554 S
C1547 C1546 1.387 . S
C1547 C1549 1.387 . S
H1548 C1555 0.950 . S
C1549 C1547 1.387 . S
C1549 C1551 1.390 1_554 S
C1549 H1553 0.950 . S
H1550 C1546 0.950 . S
C1551 C1549 1.390 1_556 S
C1551 C1552 1.387 . S
C1551 H1554 0.950 . S
C1552 C1551 1.387 . S
C1552 C1555 1.387 . S
H1553 C1549 0.950 . S
H1554 C1551 0.950 . S
C1555 C1546 1.390 1_556 S
C1555 H1548 0.950 . S
C1555 C1552 1.387 . S
C1556 C1557 1.387 . S
C1556 H1560 0.950 . S
C1556 C1565 1.390 . S
C1557 C1556 1.387 . S
C1557 C1559 1.387 . S
H1558 C1565 0.950 . S
C1559 C1557 1.387 . S
C1559 C1561 1.390 . S
C1559 H1563 0.950 . S
H1560 C1556 0.950 . S
C1561 C1559 1.390 . S
C1561 C1562 1.387 . S
C1561 H1564 0.950 . S
C1562 C1561 1.387 . S
C1562 C1565 1.387 . S
H1563 C1559 0.950 . S
H1564 C1561 0.950 . S
C1565 C1556 1.390 . S
C1565 H1558 0.950 . S
C1565 C1562 1.387 . S
C1566 C1567 1.387 . S
C1566 H1570 0.950 . S
C1566 C1575 1.390 1_554 S
C1567 C1566 1.387 . S
C1567 C1569 1.387 . S
H1568 C1575 0.950 . S
C1569 C1567 1.387 . S
C1569 C1571 1.390 1_554 S
C1569 H1573 0.950 . S
H1570 C1566 0.950 . S
C1571 C1569 1.390 1_556 S
C1571 C1572 1.387 . S
C1571 H1574 0.950 . S
C1572 C1571 1.387 . S
C1572 C1575 1.387 . S
H1573 C1569 0.950 . S
H1574 C1571 0.950 . S
C1575 C1566 1.390 1_556 S
C1575 H1568 0.950 . S
C1575 C1572 1.387 . S
C1576 C1577 1.387 . S
C1576 H1580 0.950 . S
C1576 C1585 1.390 . S
C1577 C1576 1.387 . S
C1577 C1579 1.387 . S
H1578 C1585 0.950 . S
C1579 C1577 1.387 . S
C1579 C1581 1.390 . S
C1579 H1583 0.950 . S
H1580 C1576 0.950 . S
C1581 C1579 1.390 . S
C1581 C1582 1.387 . S
C1581 H1584 0.950 . S
C1582 C1581 1.387 . S
C1582 C1585 1.387 . S
H1583 C1579 0.950 . S
H1584 C1581 0.950 . S
C1585 C1576 1.390 . S
C1585 H1578 0.950 . S
C1585 C1582 1.387 . S
C1586 C1587 1.387 . S
C1586 H1590 0.950 . S
C1586 C1595 1.390 . S
C1587 C1586 1.387 . S
C1587 C1589 1.387 . S
H1588 C1595 0.950 . S
C1589 C1587 1.387 . S
C1589 C1591 1.390 . S
C1589 H1593 0.950 . S
H1590 C1586 0.950 . S
C1591 C1589 1.390 . S
C1591 C1592 1.387 . S
C1591 H1594 0.950 . S
C1592 C1591 1.387 . S
C1592 C1595 1.387 . S
H1593 C1589 0.950 . S
H1594 C1591 0.950 . S
C1595 C1586 1.390 . S
C1595 H1588 0.950 . S
C1595 C1592 1.387 . S
C1596 C1597 1.387 . S
C1596 H1600 0.950 . S
C1596 C1605 1.390 1_565 S
C1597 C1596 1.387 . S
C1597 C1599 1.387 . S
H1598 C1605 0.950 . S
C1599 C1597 1.387 . S
C1599 C1601 1.390 1_565 S
C1599 H1603 0.950 . S
H1600 C1596 0.950 . S
C1601 C1599 1.390 1_545 S
C1601 C1602 1.387 . S
C1601 H1604 0.950 . S
C1602 C1601 1.387 . S
C1602 C1605 1.387 . S
H1603 C1599 0.950 . S
H1604 C1601 0.950 . S
C1605 C1596 1.390 1_545 S
C1605 H1598 0.950 . S
C1605 C1602 1.387 . S
C1606 C1607 1.387 . S
C1606 H1610 0.950 . S
C1606 C1615 1.390 . S
C1607 C1606 1.387 . S
C1607 C1609 1.387 . S
H1608 C1615 0.950 . S
C1609 C1607 1.387 . S
C1609 C1611 1.390 . S
C1609 H1613 0.950 . S
H1610 C1606 0.950 . S
C1611 C1609 1.390 . S
C1611 C1612 1.387 . S
C1611 H1614 0.950 . S
C1612 C1611 1.387 . S
C1612 C1615 1.387 . S
H1613 C1609 0.950 . S
H1614 C1611 0.950 . S
C1615 C1606 1.390 . S
C1615 H1608 0.950 . S
C1615 C1612 1.387 . S
C1616 C1617 1.387 . S
C1616 H1620 0.950 . S
C1616 C1625 1.390 1_565 S
C1617 C1616 1.387 . S
C1617 C1619 1.387 . S
H1618 C1625 0.950 . S
C1619 C1617 1.387 . S
C1619 C1621 1.390 1_565 S
C1619 H1623 0.950 . S
H1620 C1616 0.950 . S
C1621 C1619 1.390 1_545 S
C1621 C1622 1.387 . S
C1621 H1624 0.950 . S
C1622 C1621 1.387 . S
C1622 C1625 1.387 . S
H1623 C1619 0.950 . S
H1624 C1621 0.950 . S
C1625 C1616 1.390 1_545 S
C1625 H1618 0.950 . S
C1625 C1622 1.387 . S
C1626 C1627 1.387 . S
C1626 H1630 0.950 . S
C1626 C1635 1.390 . S
C1627 C1626 1.387 . S
C1627 C1629 1.387 . S
H1628 C1635 0.950 . S
C1629 C1627 1.387 . S
C1629 C1631 1.390 . S
C1629 H1633 0.950 . S
H1630 C1626 0.950 . S
C1631 C1629 1.390 . S
C1631 C1632 1.387 . S
C1631 H1634 0.950 . S
C1632 C1631 1.387 . S
C1632 C1635 1.387 . S
H1633 C1629 0.950 . S
H1634 C1631 0.950 . S
C1635 C1626 1.390 . S
C1635 H1628 0.950 . S
C1635 C1632 1.387 . S
C1636 C1637 1.387 . S
C1636 H1640 0.950 . S
C1636 C1645 1.390 1_565 S
C1637 C1636 1.387 . S
C1637 C1639 1.387 . S
H1638 C1645 0.950 . S
C1639 C1637 1.387 . S
C1639 C1641 1.390 1_565 S
C1639 H1643 0.950 . S
H1640 C1636 0.950 . S
C1641 C1639 1.390 1_545 S
C1641 C1642 1.387 . S
C1641 H1644 0.950 . S
C1642 C1641 1.387 . S
C1642 C1645 1.387 . S
H1643 C1639 0.950 . S
H1644 C1641 0.950 . S
C1645 C1636 1.390 1_545 S
C1645 H1638 0.950 . S
C1645 C1642 1.387 . S
C1646 C1647 1.387 . S
C1646 H1650 0.950 . S
C1646 C1655 1.390 1_545 S
C1647 C1646 1.387 . S
C1647 C1649 1.387 . S
H1648 C1655 0.950 . S
C1649 C1647 1.387 . S
C1649 C1651 1.390 1_545 S
C1649 H1653 0.950 . S
H1650 C1646 0.950 . S
C1651 C1649 1.390 1_565 S
C1651 C1652 1.387 . S
C1651 H1654 0.950 . S
C1652 C1651 1.387 . S
C1652 C1655 1.387 . S
H1653 C1649 0.950 . S
H1654 C1651 0.950 . S
C1655 C1646 1.390 1_565 S
C1655 H1648 0.950 . S
C1655 C1652 1.387 . S
C1656 C1657 1.387 . S
C1656 H1660 0.950 . S
C1656 C1665 1.390 . S
C1657 C1656 1.387 . S
C1657 C1659 1.387 . S
H1658 C1665 0.950 . S
C1659 C1657 1.387 . S
C1659 C1661 1.390 . S
C1659 H1663 0.950 . S
H1660 C1656 0.950 . S
C1661 C1659 1.390 . S
C1661 C1662 1.387 . S
C1661 H1664 0.950 . S
C1662 C1661 1.387 . S
C1662 C1665 1.387 . S
H1663 C1659 0.950 . S
H1664 C1661 0.950 . S
C1665 C1656 1.390 . S
C1665 H1658 0.950 . S
C1665 C1662 1.387 . S
C1666 C1667 1.387 . S
C1666 H1670 0.950 . S
C1666 C1675 1.390 . S
C1667 C1666 1.387 . S
C1667 C1669 1.387 . S
H1668 C1675 0.950 . S
C1669 C1667 1.387 . S
C1669 C1671 1.390 . S
C1669 H1673 0.950 . S
H1670 C1666 0.950 . S
C1671 C1669 1.390 . S
C1671 C1672 1.387 . S
C1671 H1674 0.950 . S
C1672 C1671 1.387 . S
C1672 C1675 1.387 . S
H1673 C1669 0.950 . S
H1674 C1671 0.950 . S
C1675 C1666 1.390 . S
C1675 H1668 0.950 . S
C1675 C1672 1.387 . S
C1676 C1677 1.387 . S
C1676 H1680 0.950 . S
C1676 C1685 1.390 . S
C1677 C1676 1.387 . S
C1677 C1679 1.387 . S
H1678 C1685 0.950 . S
C1679 C1677 1.387 . S
C1679 C1681 1.390 . S
C1679 H1683 0.950 . S
H1680 C1676 0.950 . S
C1681 C1679 1.390 . S
C1681 C1682 1.387 . S
C1681 H1684 0.950 . S
C1682 C1681 1.387 . S
C1682 C1685 1.387 . S
H1683 C1679 0.950 . S
H1684 C1681 0.950 . S
C1685 C1676 1.390 . S
C1685 H1678 0.950 . S
C1685 C1682 1.387 . S
C1686 C1687 1.387 . S
C1686 H1690 0.950 . S
C1686 C1695 1.390 . S
C1687 C1686 1.387 . S
C1687 C1689 1.387 . S
H1688 C1695 0.950 . S
C1689 C1687 1.387 . S
C1689 C1691 1.390 . S
C1689 H1693 0.950 . S
H1690 C1686 0.950 . S
C1691 C1689 1.390 . S
C1691 C1692 1.387 . S
C1691 H1694 0.950 . S
C1692 C1691 1.387 . S
C1692 C1695 1.387 . S
H1693 C1689 0.950 . S
H1694 C1691 0.950 . S
C1695 C1686 1.390 . S
C1695 H1688 0.950 . S
C1695 C1692 1.387 . S
C1696 C1697 1.387 . S
C1696 H1700 0.950 . S
C1696 C1705 1.390 . S
C1697 C1696 1.387 . S
C1697 C1699 1.387 . S
H1698 C1705 0.950 . S
C1699 C1697 1.387 . S
C1699 C1701 1.390 . S
C1699 H1703 0.950 . S
H1700 C1696 0.950 . S
C1701 C1699 1.390 . S
C1701 C1702 1.387 . S
C1701 H1704 0.950 . S
C1702 C1701 1.387 . S
C1702 C1705 1.387 . S
H1703 C1699 0.950 . S
H1704 C1701 0.950 . S
C1705 C1696 1.390 . S
C1705 H1698 0.950 . S
C1705 C1702 1.387 . S
C1706 C1707 1.387 . S
C1706 H1710 0.950 . S
C1706 C1715 1.390 . S
C1707 C1706 1.387 . S
C1707 C1709 1.387 . S
H1708 C1715 0.950 . S
C1709 C1707 1.387 . S
C1709 C1711 1.390 . S
C1709 H1713 0.950 . S
H1710 C1706 0.950 . S
C1711 C1709 1.390 . S
C1711 C1712 1.387 . S
C1711 H1714 0.950 . S
C1712 C1711 1.387 . S
C1712 C1715 1.387 . S
H1713 C1709 0.950 . S
H1714 C1711 0.950 . S
C1715 C1706 1.390 . S
C1715 H1708 0.950 . S
C1715 C1712 1.387 . S
C1716 C1717 1.387 . S
C1716 H1720 0.950 . S
C1716 C1725 1.390 . S
C1717 C1716 1.387 . S
C1717 C1719 1.387 . S
H1718 C1725 0.950 . S
C1719 C1717 1.387 . S
C1719 C1721 1.390 . S
C1719 H1723 0.950 . S
H1720 C1716 0.950 . S
C1721 C1719 1.390 . S
C1721 C1722 1.387 . S
C1721 H1724 0.950 . S
C1722 C1721 1.387 . S
C1722 C1725 1.387 . S
H1723 C1719 0.950 . S
H1724 C1721 0.950 . S
C1725 C1716 1.390 . S
C1725 H1718 0.950 . S
C1725 C1722 1.387 . S
C1726 C1727 1.387 . S
C1726 H1730 0.950 . S
C1726 C1735 1.390 . S
C1727 C1726 1.387 . S
C1727 C1729 1.387 . S
H1728 C1735 0.950 . S
C1729 C1727 1.387 . S
C1729 C1731 1.390 . S
C1729 H1733 0.950 . S
H1730 C1726 0.950 . S
C1731 C1729 1.390 . S
C1731 C1732 1.387 . S
C1731 H1734 0.950 . S
C1732 C1731 1.387 . S
C1732 C1735 1.387 . S
H1733 C1729 0.950 . S
H1734 C1731 0.950 . S
C1735 C1726 1.390 . S
C1735 H1728 0.950 . S
C1735 C1732 1.387 . S
C1736 C1737 1.387 . S
C1736 H1740 0.950 . S
C1736 C1745 1.390 . S
C1737 C1736 1.387 . S
C1737 C1739 1.387 . S
H1738 C1745 0.950 . S
C1739 C1737 1.387 . S
C1739 C1741 1.390 . S
C1739 H1743 0.950 . S
H1740 C1736 0.950 . S
C1741 C1739 1.390 . S
C1741 C1742 1.387 . S
C1741 H1744 0.950 . S
C1742 C1741 1.387 . S
C1742 C1745 1.387 . S
H1743 C1739 0.950 . S
H1744 C1741 0.950 . S
C1745 C1736 1.390 . S
C1745 H1738 0.950 . S
C1745 C1742 1.387 . S
C1746 C1747 1.387 . S
C1746 H1750 0.950 . S
C1746 C1755 1.390 . S
C1747 C1746 1.387 . S
C1747 C1749 1.387 . S
H1748 C1755 0.950 . S
C1749 C1747 1.387 . S
C1749 C1751 1.390 . S
C1749 H1753 0.950 . S
H1750 C1746 0.950 . S
C1751 C1749 1.390 . S
C1751 C1752 1.387 . S
C1751 H1754 0.950 . S
C1752 C1751 1.387 . S
C1752 C1755 1.387 . S
H1753 C1749 0.950 . S
H1754 C1751 0.950 . S
C1755 C1746 1.390 . S
C1755 H1748 0.950 . S
C1755 C1752 1.387 . S
C1756 C1757 1.387 . S
C1756 H1760 0.950 . S
C1756 C1765 1.390 . S
C1757 C1756 1.387 . S
C1757 C1759 1.387 . S
H1758 C1765 0.950 . S
C1759 C1757 1.387 . S
C1759 C1761 1.390 . S
C1759 H1763 0.950 . S
H1760 C1756 0.950 . S
C1761 C1759 1.390 . S
C1761 C1762 1.387 . S
C1761 H1764 0.950 . S
C1762 C1761 1.387 . S
C1762 C1765 1.387 . S
H1763 C1759 0.950 . S
H1764 C1761 0.950 . S
C1765 C1756 1.390 . S
C1765 H1758 0.950 . S
C1765 C1762 1.387 . S
C1766 C1767 1.387 . S
C1766 H1770 0.950 . S
C1766 C1775 1.390 . S
C1767 C1766 1.387 . S
C1767 C1769 1.387 . S
H1768 C1775 0.950 . S
C1769 C1767 1.387 . S
C1769 C1771 1.390 . S
C1769 H1773 0.950 . S
H1770 C1766 0.950 . S
C1771 C1769 1.390 . S
C1771 C1772 1.387 . S
C1771 H1774 0.950 . S
C1772 C1771 1.387 . S
C1772 C1775 1.387 . S
H1773 C1769 0.950 . S
H1774 C1771 0.950 . S
C1775 C1766 1.390 . S
C1775 H1768 0.950 . S
C1775 C1772 1.387 . S
C1776 C1777 1.387 . S
C1776 H1780 0.950 . S
C1776 C1785 1.390 . S
C1777 C1776 1.387 . S
C1777 C1779 1.387 . S
H1778 C1785 0.950 . S
C1779 C1777 1.387 . S
C1779 C1781 1.390 . S
C1779 H1783 0.950 . S
H1780 C1776 0.950 . S
C1781 C1779 1.390 . S
C1781 C1782 1.387 . S
C1781 H1784 0.950 . S
C1782 C1781 1.387 . S
C1782 C1785 1.387 . S
H1783 C1779 0.950 . S
H1784 C1781 0.950 . S
C1785 C1776 1.390 . S
C1785 H1778 0.950 . S
C1785 C1782 1.387 . S
C1786 C1787 1.387 . S
C1786 H1790 0.950 . S
C1786 C1795 1.390 . S
C1787 C1786 1.387 . S
C1787 C1789 1.387 . S
H1788 C1795 0.950 . S
C1789 C1787 1.387 . S
C1789 C1791 1.390 . S
C1789 H1793 0.950 . S
H1790 C1786 0.950 . S
C1791 C1789 1.390 . S
C1791 C1792 1.387 . S
C1791 H1794 0.950 . S
C1792 C1791 1.387 . S
C1792 C1795 1.387 . S
H1793 C1789 0.950 . S
H1794 C1791 0.950 . S
C1795 C1786 1.390 . S
C1795 H1788 0.950 . S
C1795 C1792 1.387 . S
C1796 C1797 1.387 . S
C1796 H1800 0.950 . S
C1796 C1805 1.390 . S
C1797 C1796 1.387 . S
C1797 C1799 1.387 . S
H1798 C1805 0.950 . S
C1799 C1797 1.387 . S
C1799 C1801 1.390 . S
C1799 H1803 0.950 . S
H1800 C1796 0.950 . S
C1801 C1799 1.390 . S
C1801 C1802 1.387 . S
C1801 H1804 0.950 . S
C1802 C1801 1.387 . S
C1802 C1805 1.387 . S
H1803 C1799 0.950 . S
H1804 C1801 0.950 . S
C1805 C1796 1.390 . S
C1805 H1798 0.950 . S
C1805 C1802 1.387 . S
C1806 C1807 1.387 . S
C1806 H1810 0.950 . S
C1806 C1815 1.390 . S
C1807 C1806 1.387 . S
C1807 C1809 1.387 . S
H1808 C1815 0.950 . S
C1809 C1807 1.387 . S
C1809 C1811 1.390 . S
C1809 H1813 0.950 . S
H1810 C1806 0.950 . S
C1811 C1809 1.390 . S
C1811 C1812 1.387 . S
C1811 H1814 0.950 . S
C1812 C1811 1.387 . S
C1812 C1815 1.387 . S
H1813 C1809 0.950 . S
H1814 C1811 0.950 . S
C1815 C1806 1.390 . S
C1815 H1808 0.950 . S
C1815 C1812 1.387 . S
C1816 C1817 1.387 . S
C1816 H1820 0.950 . S
C1816 C1825 1.390 . S
C1817 C1816 1.387 . S
C1817 C1819 1.387 . S
H1818 C1825 0.950 . S
C1819 C1817 1.387 . S
C1819 C1821 1.390 . S
C1819 H1823 0.950 . S
H1820 C1816 0.950 . S
C1821 C1819 1.390 . S
C1821 C1822 1.387 . S
C1821 H1824 0.950 . S
C1822 C1821 1.387 . S
C1822 C1825 1.387 . S
H1823 C1819 0.950 . S
H1824 C1821 0.950 . S
C1825 C1816 1.390 . S
C1825 H1818 0.950 . S
C1825 C1822 1.387 . S
C1826 C1827 1.387 . S
C1826 H1830 0.950 . S
C1826 C1835 1.390 . S
C1827 C1826 1.387 . S
C1827 C1829 1.387 . S
H1828 C1835 0.950 . S
C1829 C1827 1.387 . S
C1829 C1831 1.390 . S
C1829 H1833 0.950 . S
H1830 C1826 0.950 . S
C1831 C1829 1.390 . S
C1831 C1832 1.387 . S
C1831 H1834 0.950 . S
C1832 C1831 1.387 . S
C1832 C1835 1.387 . S
H1833 C1829 0.950 . S
H1834 C1831 0.950 . S
C1835 C1826 1.390 . S
C1835 H1828 0.950 . S
C1835 C1832 1.387 . S
C1836 C1837 1.387 . S
C1836 H1840 0.950 . S
C1836 C1845 1.390 . S
C1837 C1836 1.387 . S
C1837 C1839 1.387 . S
H1838 C1845 0.950 . S
C1839 C1837 1.387 . S
C1839 C1841 1.390 . S
C1839 H1843 0.950 . S
H1840 C1836 0.950 . S
C1841 C1839 1.390 . S
C1841 C1842 1.387 . S
C1841 H1844 0.950 . S
C1842 C1841 1.387 . S
C1842 C1845 1.387 . S
H1843 C1839 0.950 . S
H1844 C1841 0.950 . S
C1845 C1836 1.390 . S
C1845 H1838 0.950 . S
C1845 C1842 1.387 . S
C1846 C1847 1.387 . S
C1846 H1850 0.950 . S
C1846 C1855 1.390 . S
C1847 C1846 1.387 . S
C1847 C1849 1.387 . S
H1848 C1855 0.950 . S
C1849 C1847 1.387 . S
C1849 C1851 1.390 . S
C1849 H1853 0.950 . S
H1850 C1846 0.950 . S
C1851 C1849 1.390 . S
C1851 C1852 1.387 . S
C1851 H1854 0.950 . S
C1852 C1851 1.387 . S
C1852 C1855 1.387 . S
H1853 C1849 0.950 . S
H1854 C1851 0.950 . S
C1855 C1846 1.390 . S
C1855 H1848 0.950 . S
C1855 C1852 1.387 . S
C1856 C1857 1.387 . S
C1856 H1860 0.950 . S
C1856 C1865 1.390 . S
C1857 C1856 1.387 . S
C1857 C1859 1.387 . S
H1858 C1865 0.950 . S
C1859 C1857 1.387 . S
C1859 C1861 1.390 . S
C1859 H1863 0.950 . S
H1860 C1856 0.950 . S
C1861 C1859 1.390 . S
C1861 C1862 1.387 . S
C1861 H1864 0.950 . S
C1862 C1861 1.387 . S
C1862 C1865 1.387 . S
H1863 C1859 0.950 . S
H1864 C1861 0.950 . S
C1865 C1856 1.390 . S
C1865 H1858 0.950 . S
C1865 C1862 1.387 . S
C1866 C1867 1.387 . S
C1866 H1870 0.950 . S
C1866 C1875 1.390 . S
C1867 C1866 1.387 . S
C1867 C1869 1.387 . S
H1868 C1875 0.950 . S
C1869 C1867 1.387 . S
C1869 C1871 1.390 . S
C1869 H1873 0.950 . S
H1870 C1866 0.950 . S
C1871 C1869 1.390 . S
C1871 C1872 1.387 . S
C1871 H1874 0.950 . S
C1872 C1871 1.387 . S
C1872 C1875 1.387 . S
H1873 C1869 0.950 . S
H1874 C1871 0.950 . S
C1875 C1866 1.390 . S
C1875 H1868 0.950 . S
C1875 C1872 1.387 . S
C1876 C1877 1.387 . S
C1876 H1880 0.950 . S
C1876 C1885 1.390 . S
C1877 C1876 1.387 . S
C1877 C1879 1.387 . S
H1878 C1885 0.950 . S
C1879 C1877 1.387 . S
C1879 C1881 1.390 . S
C1879 H1883 0.950 . S
H1880 C1876 0.950 . S
C1881 C1879 1.390 . S
C1881 C1882 1.387 . S
C1881 H1884 0.950 . S
C1882 C1881 1.387 . S
C1882 C1885 1.387 . S
H1883 C1879 0.950 . S
H1884 C1881 0.950 . S
C1885 C1876 1.390 . S
C1885 H1878 0.950 . S
C1885 C1882 1.387 . S
C1886 C1887 1.387 . S
C1886 H1890 0.950 . S
C1886 C1895 1.390 . S
C1887 C1886 1.387 . S
C1887 C1889 1.387 . S
H1888 C1895 0.950 . S
C1889 C1887 1.387 . S
C1889 C1891 1.390 . S
C1889 H1893 0.950 . S
H1890 C1886 0.950 . S
C1891 C1889 1.390 . S
C1891 C1892 1.387 . S
C1891 H1894 0.950 . S
C1892 C1891 1.387 . S
C1892 C1895 1.387 . S
H1893 C1889 0.950 . S
H1894 C1891 0.950 . S
C1895 C1886 1.390 . S
C1895 H1888 0.950 . S
C1895 C1892 1.387 . S
C1417 C890 1.434 . S
C1422 C3 1.432 . S
C1427 C711 1.435 . S
C1432 C64 1.437 . S
C1437 C770 1.437 . S
C1442 C121 1.437 . S
C1447 C831 1.437 . S
C1452 C180 1.435 . S
C1457 C829 1.440 . S
C1462 C62 1.439 . S
C1467 C123 1.439 . S
C1472 C888 1.436 . S
C1477 C713 1.431 . S
C1482 C182 1.431 . S
C1487 C772 1.434 . S
C1492 C5 1.433 . S
C1497 C1067 1.429 . S
C1502 C241 1.429 . S
C1507 C298 1.442 . S
C1512 C1124 1.443 . S
C1517 C359 1.429 . S
C1522 C949 1.429 . S
C1527 C1006 1.441 . S
C1532 C416 1.442 . S
C1537 C1301 1.442 . S
C1542 C475 1.443 . S
C1547 C536 1.429 . S
C1552 C1362 1.429 . S
C1557 C593 1.441 . S
C1562 C1183 1.442 . S
C1567 C654 1.429 . S
C1572 C1244 1.429 . S
C1577 C1008 1.435 . S
C1582 C652 1.433 . S
C1587 C1360 1.434 . S
C1592 C300 1.437 . S
C1597 C357 1.436 . S
C1602 C1185 1.438 . S
C1607 C1242 1.435 . S
C1612 C418 1.437 . S
C1617 C1303 1.436 . S
C1622 C239 1.434 . S
C1627 C534 1.434 . S
C1632 C1126 1.437 . S
C1637 C947 1.432 . S
C1642 C595 1.434 . S
C1647 C1065 1.436 . S
C1652 C477 1.439 . S
C1657 C33 1.170 . S
C1662 C269 1.168 . S
C1667 C347 1.180 . S
C1672 C111 1.181 . S
C1677 C151 1.173 . S
C1682 C387 1.172 . S
C1687 C210 1.172 . S
C1692 C465 1.179 . S
C1697 C524 1.180 . S
C1702 C92 1.174 . S
C1707 C564 1.172 . S
C1712 C170 1.178 . S
C1717 C642 1.176 . S
C1722 C229 1.178 . S
C1727 C52 1.175 . S
C1732 C682 1.169 . S
C1737 C701 1.174 . S
C1742 C288 1.175 . S
C1747 C328 1.175 . S
C1752 C505 1.176 . S
C1757 C406 1.175 . S
C1762 C583 1.174 . S
C1767 C623 1.174 . S
C1772 C446 1.176 . S
C1777 C977 1.168 . S
C1782 C760 1.175 . S
C1787 C1055 1.179 . S
C1792 C819 1.179 . S
C1797 C859 1.173 . S
C1802 C1095 1.171 . S
C1807 C918 1.173 . S
C1812 C1173 1.179 . S
C1817 C800 1.173 . S
C1822 C1232 1.180 . S
C1827 C878 1.179 . S
C1832 C1272 1.172 . S
C1837 C1350 1.178 . S
C1842 C937 1.179 . S
C1847 C741 1.169 . S
C1852 C1390 1.170 . S
C1857 C996 1.174 . S
C1862 C1409 1.175 . S
C1867 C1213 1.175 . S
C1872 C1036 1.175 . S
C1877 C1114 1.175 . S
C1882 C1291 1.174 . S
C1887 C1331 1.177 . S
C1892 C1154 1.175 . S
