# Generated by pormake.
# Topology unw, (4)-cn, num edge types: 1
# Building blocks:
#     Node 0, Type 0, BuildingBlock: CEKHIL_clean_sbu_0, # of connection points: 4
#     Node 1, Type 0, BuildingBlock: CEKHIL_clean_sbu_0, # of connection points: 4
#     Node 2, Type 0, BuildingBlock: CEKHIL_clean_sbu_0, # of connection points: 4
#     Node 3, Type 0, BuildingBlock: CEKHIL_clean_sbu_0, # of connection points: 4
#     Node 4, Type 0, BuildingBlock: CEKHIL_clean_sbu_0, # of connection points: 4
#     Node 5, Type 0, BuildingBlock: CEKHIL_clean_sbu_0, # of connection points: 4
#     Node 6, Type 0, BuildingBlock: CEKHIL_clean_sbu_0, # of connection points: 4
#     Node 7, Type 0, BuildingBlock: CEKHIL_clean_sbu_0, # of connection points: 4
#     Node 8, Type 0, BuildingBlock: CEKHIL_clean_sbu_0, # of connection points: 4
#     Node 9, Type 0, BuildingBlock: CEKHIL_clean_sbu_0, # of connection points: 4
#     Node 10, Type 0, BuildingBlock: CEKHIL_clean_sbu_0, # of connection points: 4
#     Node 11, Type 0, BuildingBlock: CEKHIL_clean_sbu_0, # of connection points: 4
#     Node 12, Type 0, BuildingBlock: CEKHIL_clean_sbu_0, # of connection points: 4
#     Node 13, Type 0, BuildingBlock: CEKHIL_clean_sbu_0, # of connection points: 4
#     Node 14, Type 0, BuildingBlock: CEKHIL_clean_sbu_0, # of connection points: 4
#     Node 15, Type 0, BuildingBlock: CEKHIL_clean_sbu_0, # of connection points: 4
#     Node 16, Type 0, BuildingBlock: CEKHIL_clean_sbu_0, # of connection points: 4
#     Node 17, Type 0, BuildingBlock: CEKHIL_clean_sbu_0, # of connection points: 4
#     Node 18, Type 0, BuildingBlock: CEKHIL_clean_sbu_0, # of connection points: 4
#     Node 19, Type 0, BuildingBlock: CEKHIL_clean_sbu_0, # of connection points: 4
#     Node 20, Type 0, BuildingBlock: CEKHIL_clean_sbu_0, # of connection points: 4
#     Node 21, Type 0, BuildingBlock: CEKHIL_clean_sbu_0, # of connection points: 4
#     Node 22, Type 0, BuildingBlock: CEKHIL_clean_sbu_0, # of connection points: 4
#     Node 23, Type 0, BuildingBlock: CEKHIL_clean_sbu_0, # of connection points: 4
#     Edge 24, Type (0, 0), BuildingBlock: KIFKEQ_clean_linker_1, # of connection points: 2
#     Edge 25, Type (0, 0), BuildingBlock: KIFKEQ_clean_linker_1, # of connection points: 2
#     Edge 26, Type (0, 0), BuildingBlock: KIFKEQ_clean_linker_1, # of connection points: 2
#     Edge 27, Type (0, 0), BuildingBlock: KIFKEQ_clean_linker_1, # of connection points: 2
#     Edge 28, Type (0, 0), BuildingBlock: KIFKEQ_clean_linker_1, # of connection points: 2
#     Edge 29, Type (0, 0), BuildingBlock: KIFKEQ_clean_linker_1, # of connection points: 2
#     Edge 30, Type (0, 0), BuildingBlock: KIFKEQ_clean_linker_1, # of connection points: 2
#     Edge 31, Type (0, 0), BuildingBlock: KIFKEQ_clean_linker_1, # of connection points: 2
#     Edge 32, Type (0, 0), BuildingBlock: KIFKEQ_clean_linker_1, # of connection points: 2
#     Edge 33, Type (0, 0), BuildingBlock: KIFKEQ_clean_linker_1, # of connection points: 2
#     Edge 34, Type (0, 0), BuildingBlock: KIFKEQ_clean_linker_1, # of connection points: 2
#     Edge 35, Type (0, 0), BuildingBlock: KIFKEQ_clean_linker_1, # of connection points: 2
#     Edge 36, Type (0, 0), BuildingBlock: KIFKEQ_clean_linker_1, # of connection points: 2
#     Edge 37, Type (0, 0), BuildingBlock: KIFKEQ_clean_linker_1, # of connection points: 2
#     Edge 38, Type (0, 0), BuildingBlock: KIFKEQ_clean_linker_1, # of connection points: 2
#     Edge 39, Type (0, 0), BuildingBlock: KIFKEQ_clean_linker_1, # of connection points: 2
#     Edge 40, Type (0, 0), BuildingBlock: KIFKEQ_clean_linker_1, # of connection points: 2
#     Edge 41, Type (0, 0), BuildingBlock: KIFKEQ_clean_linker_1, # of connection points: 2
#     Edge 42, Type (0, 0), BuildingBlock: KIFKEQ_clean_linker_1, # of connection points: 2
#     Edge 43, Type (0, 0), BuildingBlock: KIFKEQ_clean_linker_1, # of connection points: 2
#     Edge 44, Type (0, 0), BuildingBlock: KIFKEQ_clean_linker_1, # of connection points: 2
#     Edge 45, Type (0, 0), BuildingBlock: KIFKEQ_clean_linker_1, # of connection points: 2
#     Edge 46, Type (0, 0), BuildingBlock: KIFKEQ_clean_linker_1, # of connection points: 2
#     Edge 47, Type (0, 0), BuildingBlock: KIFKEQ_clean_linker_1, # of connection points: 2
#     Edge 48, Type (0, 0), BuildingBlock: KIFKEQ_clean_linker_1, # of connection points: 2
#     Edge 49, Type (0, 0), BuildingBlock: KIFKEQ_clean_linker_1, # of connection points: 2
#     Edge 50, Type (0, 0), BuildingBlock: KIFKEQ_clean_linker_1, # of connection points: 2
#     Edge 51, Type (0, 0), BuildingBlock: KIFKEQ_clean_linker_1, # of connection points: 2
#     Edge 52, Type (0, 0), BuildingBlock: KIFKEQ_clean_linker_1, # of connection points: 2
#     Edge 53, Type (0, 0), BuildingBlock: KIFKEQ_clean_linker_1, # of connection points: 2
#     Edge 54, Type (0, 0), BuildingBlock: KIFKEQ_clean_linker_1, # of connection points: 2
#     Edge 55, Type (0, 0), BuildingBlock: KIFKEQ_clean_linker_1, # of connection points: 2
#     Edge 56, Type (0, 0), BuildingBlock: KIFKEQ_clean_linker_1, # of connection points: 2
#     Edge 57, Type (0, 0), BuildingBlock: KIFKEQ_clean_linker_1, # of connection points: 2
#     Edge 58, Type (0, 0), BuildingBlock: KIFKEQ_clean_linker_1, # of connection points: 2
#     Edge 59, Type (0, 0), BuildingBlock: KIFKEQ_clean_linker_1, # of connection points: 2
#     Edge 60, Type (0, 0), BuildingBlock: KIFKEQ_clean_linker_1, # of connection points: 2
#     Edge 61, Type (0, 0), BuildingBlock: KIFKEQ_clean_linker_1, # of connection points: 2
#     Edge 62, Type (0, 0), BuildingBlock: KIFKEQ_clean_linker_1, # of connection points: 2
#     Edge 63, Type (0, 0), BuildingBlock: KIFKEQ_clean_linker_1, # of connection points: 2
#     Edge 64, Type (0, 0), BuildingBlock: KIFKEQ_clean_linker_1, # of connection points: 2
#     Edge 65, Type (0, 0), BuildingBlock: KIFKEQ_clean_linker_1, # of connection points: 2
#     Edge 66, Type (0, 0), BuildingBlock: KIFKEQ_clean_linker_1, # of connection points: 2
#     Edge 67, Type (0, 0), BuildingBlock: KIFKEQ_clean_linker_1, # of connection points: 2
#     Edge 68, Type (0, 0), BuildingBlock: KIFKEQ_clean_linker_1, # of connection points: 2
#     Edge 69, Type (0, 0), BuildingBlock: KIFKEQ_clean_linker_1, # of connection points: 2
#     Edge 70, Type (0, 0), BuildingBlock: KIFKEQ_clean_linker_1, # of connection points: 2
#     Edge 71, Type (0, 0), BuildingBlock: KIFKEQ_clean_linker_1, # of connection points: 2
# Relax obj value: 0.378
# Max RMSD: 0.301
# Mean RMSD: 0.288
data_MOF--net-unw--node1-CEKHIL_clean_sbu_0--edge1-KIFKEQ_clean_linker_1
_symmetry_space_group_name_H-M    P1
_symmetry_Int_Tables_number       1
_symmetry_cell_setting            triclinic
loop_
_symmetry_equiv_pos_as_xyz
'x, y, z'
_cell_length_a     45.016377
_cell_length_b     45.873586
_cell_length_c     45.455749
_cell_angle_alpha  90.029175
_cell_angle_beta   90.142028
_cell_angle_gamma 90.528723
loop_
_atom_site_label
_atom_site_type_symbol
_atom_site_fract_x
_atom_site_fract_y
_atom_site_fract_z
_atom_type_partial_charge
Co0 Co 0.12535 0.39592 0.27643 0.0
O1 O 0.11727 0.43463 0.26312 0.0
O2 O 0.15679 0.42203 0.28927 0.0
C3 C 0.08036 0.38277 0.29285 0.0
O4 O 0.13986 0.35784 0.29431 0.0
Co5 Co 0.09547 0.34495 0.24222 0.0
O6 O 0.11059 0.32204 0.27599 0.0
C7 C 0.14777 0.37308 0.21683 0.0
C8 C 0.14266 0.44202 0.27462 0.0
C9 C 0.1306 0.33114 0.29376 0.0
O10 O 0.14943 0.38863 0.24018 0.0
O11 O 0.12643 0.35509 0.21198 0.0
O12 O 0.09753 0.3994 0.30885 0.0
O13 O 0.08867 0.37958 0.26579 0.0
Co14 Co 0.63319 0.10861 0.22692 0.0
O15 O 0.62042 0.07733 0.25169 0.0
O16 O 0.65032 0.07255 0.21325 0.0
C17 C 0.58921 0.13093 0.22181 0.0
O18 O 0.64999 0.13663 0.19628 0.0
Co19 Co 0.63 0.1715 0.25204 0.0
O20 O 0.63392 0.18107 0.20958 0.0
C21 C 0.67905 0.13387 0.27029 0.0
C22 C 0.6371 0.0607 0.2358 0.0
C23 C 0.64547 0.16379 0.19093 0.0
O24 O 0.66958 0.11453 0.25207 0.0
O25 O 0.66524 0.15764 0.2753 0.0
O26 O 0.59535 0.10823 0.20584 0.0
O27 O 0.60779 0.13638 0.24285 0.0
Co28 Co 0.88495 0.60906 0.28508 0.0
O29 O 0.89554 0.57289 0.26726 0.0
O30 O 0.85764 0.57913 0.29777 0.0
C31 C 0.92985 0.62509 0.29897 0.0
O32 O 0.86826 0.6432 0.30797 0.0
Co33 Co 0.90633 0.66638 0.25553 0.0
O34 O 0.89246 0.68373 0.29307 0.0
C35 C 0.85558 0.63508 0.23001 0.0
C36 C 0.87207 0.56214 0.27996 0.0
C37 C 0.87482 0.67046 0.31054 0.0
O38 O 0.85698 0.61719 0.2516 0.0
O39 O 0.87471 0.65551 0.22607 0.0
O40 O 0.91599 0.60556 0.31469 0.0
O41 O 0.91858 0.62992 0.27325 0.0
Co42 Co 0.36719 0.87218 0.22068 0.0
O43 O 0.40853 0.86373 0.21555 0.0
O44 O 0.37453 0.83175 0.23027 0.0
C45 C 0.37092 0.91453 0.24485 0.0
O46 O 0.32259 0.87385 0.229 0.0
Co47 Co 0.34071 0.92426 0.18685 0.0
O48 O 0.3077 0.91852 0.215 0.0
C49 C 0.34896 0.86975 0.15536 0.0
C50 C 0.40192 0.83704 0.22267 0.0
C51 C 0.30319 0.89438 0.22815 0.0
O52 O 0.35928 0.8595 0.17939 0.0
O53 O 0.33993 0.89597 0.15273 0.0
O54 O 0.37469 0.88992 0.25848 0.0
O55 O 0.3702 0.91291 0.21629 0.0
Co56 Co 0.13272 0.6092 0.7187 0.0
O57 O 0.1212 0.58066 0.74721 0.0
O58 O 0.14821 0.5717 0.70746 0.0
C59 C 0.08879 0.63173 0.71427 0.0
O60 O 0.14804 0.63361 0.68433 0.0
Co61 Co 0.13231 0.67459 0.73598 0.0
O62 O 0.13173 0.67901 0.69258 0.0
C63 C 0.18325 0.63873 0.75331 0.0
C64 C 0.13639 0.56224 0.73182 0.0
C65 C 0.14285 0.65981 0.67571 0.0
O66 O 0.1708 0.61673 0.74078 0.0
O67 O 0.17127 0.6639 0.75472 0.0
O68 O 0.09361 0.60748 0.70028 0.0
O69 O 0.10888 0.63908 0.73332 0.0
Co70 Co 0.38823 0.10675 0.77926 0.0
O71 O 0.40004 0.07098 0.76137 0.0
O72 O 0.36504 0.07519 0.79543 0.0
C73 C 0.43306 0.12665 0.78821 0.0
O74 O 0.37104 0.14016 0.80297 0.0
Co75 Co 0.4017 0.16419 0.74563 0.0
O76 O 0.38806 0.18201 0.78296 0.0
C77 C 0.35245 0.12751 0.72565 0.0
C78 C 0.37913 0.05877 0.77683 0.0
C79 C 0.37449 0.16804 0.80318 0.0
O80 O 0.35641 0.11153 0.74845 0.0
O81 O 0.36997 0.14852 0.71878 0.0
O82 O 0.42245 0.10657 0.80556 0.0
O83 O 0.41874 0.1299 0.76374 0.0
Co84 Co 0.87212 0.38142 0.72321 0.0
O85 O 0.91261 0.37346 0.71313 0.0
O86 O 0.88326 0.34372 0.73849 0.0
C87 C 0.87683 0.4276 0.73868 0.0
O88 O 0.8294 0.38304 0.73813 0.0
Co89 Co 0.83793 0.42548 0.68472 0.0
O90 O 0.80714 0.4206 0.71537 0.0
C91 C 0.84705 0.36728 0.66156 0.0
C92 C 0.90869 0.34824 0.72564 0.0
C93 C 0.80728 0.40041 0.73459 0.0
O94 O 0.85903 0.36124 0.68633 0.0
O95 O 0.83742 0.39264 0.65515 0.0
O96 O 0.88429 0.40605 0.75566 0.0
O97 O 0.87171 0.42071 0.71138 0.0
Co98 Co 0.61662 0.892 0.76896 0.0
O99 O 0.6038 0.927 0.75034 0.0
O100 O 0.64309 0.92385 0.77962 0.0
C101 C 0.57269 0.87507 0.78492 0.0
O102 O 0.63539 0.85884 0.7921 0.0
Co103 Co 0.59538 0.83363 0.74081 0.0
O104 O 0.61098 0.81786 0.7784 0.0
C105 C 0.6447 0.86546 0.71359 0.0
C106 C 0.62697 0.93955 0.76192 0.0
C107 C 0.62919 0.8315 0.79512 0.0
O108 O 0.64353 0.88377 0.73486 0.0
O109 O 0.62589 0.84459 0.71045 0.0
O110 O 0.58663 0.8954 0.79957 0.0
O111 O 0.58317 0.86976 0.75903 0.0
Co112 Co 0.27912 0.11937 0.39321 0.0
O113 O 0.30016 0.08317 0.3942 0.0
O114 O 0.27069 0.09734 0.35787 0.0
C115 C 0.26057 0.12015 0.43884 0.0
O116 O 0.25375 0.15513 0.38518 0.0
Co117 Co 0.30294 0.1703 0.43133 0.0
O118 O 0.26477 0.18834 0.42012 0.0
C119 C 0.33223 0.15835 0.3756 0.0
C120 C 0.28926 0.07827 0.36814 0.0
C121 C 0.24908 0.17954 0.39843 0.0
O122 O 0.31322 0.13777 0.37205 0.0
O123 O 0.333 0.17442 0.3986 0.0
O124 O 0.2482 0.10423 0.41846 0.0
O125 O 0.28664 0.13073 0.43237 0.0
Co126 Co 0.8899 0.22291 0.37425 0.0
O127 O 0.88201 0.20641 0.41228 0.0
O128 O 0.85074 0.2338 0.38682 0.0
C129 C 0.9356 0.24089 0.38127 0.0
O130 O 0.89066 0.24427 0.33505 0.0
Co131 Co 0.93708 0.19488 0.33432 0.0
O132 O 0.93013 0.2293 0.30898 0.0
C133 C 0.87985 0.16576 0.3399 0.0
C134 C 0.85582 0.21798 0.40998 0.0
C135 C 0.90816 0.24619 0.31273 0.0
O136 O 0.87194 0.18744 0.35563 0.0
O137 O 0.90597 0.16328 0.32925 0.0
O138 O 0.91254 0.25449 0.39134 0.0
O139 O 0.93065 0.21438 0.37214 0.0
Co140 Co 0.7059 0.86405 0.39997 0.0
O141 O 0.68552 0.90062 0.39629 0.0
O142 O 0.72191 0.88545 0.36736 0.0
C143 C 0.71449 0.86273 0.44852 0.0
O144 O 0.73264 0.82876 0.39695 0.0
Co145 Co 0.67587 0.8121 0.43167 0.0
O146 O 0.71404 0.79213 0.42429 0.0
C147 C 0.65534 0.82716 0.37299 0.0
C148 C 0.70192 0.90487 0.37308 0.0
C149 C 0.73429 0.80303 0.40806 0.0
O150 O 0.67648 0.84598 0.37224 0.0
O151 O 0.6497 0.81159 0.39566 0.0
O152 O 0.73073 0.87902 0.43139 0.0
O153 O 0.69049 0.8521 0.43655 0.0
Co154 Co 0.10177 0.80257 0.36751 0.0
O155 O 0.10906 0.82898 0.39961 0.0
O156 O 0.14129 0.79681 0.38234 0.0
C157 C 0.05692 0.78512 0.3796 0.0
O158 O 0.10228 0.77175 0.33527 0.0
Co159 Co 0.05201 0.81516 0.32225 0.0
O160 O 0.06217 0.7764 0.30612 0.0
C161 C 0.10851 0.84652 0.31712 0.0
C162 C 0.13548 0.81777 0.4006 0.0
C163 C 0.08563 0.76309 0.31382 0.0
O164 O 0.11781 0.83232 0.3395 0.0
O165 O 0.08231 0.84367 0.30652 0.0
O166 O 0.08063 0.77569 0.39275 0.0
O167 O 0.06066 0.80841 0.36374 0.0
Co168 Co 0.28072 0.87822 0.61217 0.0
O169 O 0.25226 0.89319 0.58509 0.0
O170 O 0.29093 0.86627 0.57263 0.0
C171 C 0.28755 0.91899 0.63874 0.0
O172 O 0.31473 0.85964 0.63508 0.0
Co173 Co 0.26408 0.87474 0.67854 0.0
O174 O 0.30781 0.87198 0.68249 0.0
C175 C 0.24394 0.82827 0.63808 0.0
C176 C 0.2669 0.87984 0.56467 0.0
C177 C 0.32384 0.86182 0.6619 0.0
O178 O 0.25659 0.84139 0.61651 0.0
O179 O 0.24354 0.83834 0.66435 0.0
O180 O 0.3013 0.91572 0.61384 0.0
O181 O 0.26741 0.8996 0.64445 0.0
Co182 Co 0.10321 0.20641 0.63756 0.0
O183 O 0.06627 0.22451 0.62839 0.0
O184 O 0.07212 0.19048 0.66248 0.0
C185 C 0.11978 0.19827 0.59181 0.0
O186 O 0.13877 0.18274 0.65161 0.0
Co187 Co 0.16022 0.24104 0.62122 0.0
O188 O 0.17779 0.20193 0.62704 0.0
C189 C 0.12798 0.25797 0.67399 0.0
C190 C 0.05484 0.20929 0.64964 0.0
C191 C 0.16588 0.18184 0.64254 0.0
O192 O 0.11065 0.2362 0.66912 0.0
O193 O 0.14888 0.26528 0.65636 0.0
O194 O 0.10013 0.18085 0.60354 0.0
O195 O 0.1244 0.22241 0.60596 0.0
Co196 Co 0.71744 0.13705 0.60916 0.0
O197 O 0.73291 0.12493 0.57208 0.0
O198 O 0.70083 0.16086 0.57827 0.0
C199 C 0.70709 0.09335 0.62857 0.0
O200 O 0.69615 0.15435 0.64443 0.0
Co201 Co 0.75316 0.12193 0.6653 0.0
O202 O 0.71505 0.13219 0.68442 0.0
C203 C 0.77322 0.17105 0.62924 0.0
C204 C 0.71783 0.14609 0.56065 0.0
C205 C 0.69546 0.14793 0.67201 0.0
O206 O 0.75031 0.16678 0.61294 0.0
O207 O 0.77977 0.15436 0.65082 0.0
O208 O 0.68898 0.10503 0.60969 0.0
O209 O 0.73279 0.10602 0.63105 0.0
Co210 Co 0.88271 0.7626 0.6232 0.0
O211 O 0.91703 0.7404 0.61344 0.0
O212 O 0.91739 0.77982 0.64177 0.0
C213 C 0.86131 0.76479 0.57855 0.0
O214 O 0.85086 0.79115 0.6366 0.0
Co215 Co 0.8222 0.72995 0.61862 0.0
O216 O 0.80728 0.77022 0.62318 0.0
C217 C 0.86045 0.7178 0.66871 0.0
C218 C 0.93181 0.75804 0.63044 0.0
C219 C 0.82256 0.79195 0.63228 0.0
O220 O 0.87728 0.73865 0.65982 0.0
O221 O 0.83785 0.70881 0.65406 0.0
O222 O 0.88343 0.78206 0.58519 0.0
O223 O 0.85676 0.74373 0.59702 0.0
Co224 Co 0.38763 0.26871 0.13092 0.0
O225 O 0.42324 0.24813 0.12226 0.0
O226 O 0.42002 0.28429 0.15451 0.0
C227 C 0.37056 0.27581 0.08528 0.0
O228 O 0.35356 0.29507 0.14379 0.0
Co229 Co 0.32908 0.23553 0.11752 0.0
O230 O 0.31321 0.27548 0.12146 0.0
C231 C 0.3611 0.22073 0.17097 0.0
C232 C 0.43598 0.26406 0.14226 0.0
C233 C 0.32626 0.29626 0.13512 0.0
O234 O 0.37921 0.24133 0.16429 0.0
O235 O 0.33963 0.21302 0.1541 0.0
O236 O 0.39179 0.2922 0.09581 0.0
O237 O 0.36493 0.25237 0.10033 0.0
Co238 Co 0.39012 0.70871 0.8666 0.0
O239 O 0.38232 0.69109 0.90408 0.0
O240 O 0.34983 0.71678 0.87837 0.0
C241 C 0.43438 0.7294 0.87597 0.0
O242 O 0.3907 0.73056 0.82746 0.0
Co243 Co 0.44152 0.68567 0.8282 0.0
O244 O 0.43427 0.72148 0.80509 0.0
C245 C 0.38472 0.65429 0.82756 0.0
C246 C 0.35557 0.70123 0.90159 0.0
C247 C 0.40997 0.73531 0.80701 0.0
O248 O 0.37523 0.67276 0.84633 0.0
O249 O 0.41107 0.65501 0.81708 0.0
O250 O 0.41003 0.74139 0.88509 0.0
O251 O 0.43146 0.70292 0.8661 0.0
Co252 Co 0.21392 0.36585 0.89414 0.0
O253 O 0.19465 0.40298 0.891 0.0
O254 O 0.22589 0.3846 0.85829 0.0
C255 C 0.22952 0.36705 0.94074 0.0
O256 O 0.23859 0.3292 0.89018 0.0
Co257 Co 0.1867 0.31743 0.93296 0.0
O258 O 0.22465 0.29729 0.92515 0.0
C259 C 0.16012 0.32816 0.87557 0.0
C260 C 0.20785 0.4053 0.86565 0.0
C261 C 0.24205 0.3053 0.90458 0.0
O262 O 0.1805 0.34737 0.8718 0.0
O263 O 0.15746 0.31348 0.89936 0.0
O264 O 0.24352 0.38161 0.92043 0.0
O265 O 0.20347 0.35695 0.93326 0.0
Co266 Co 0.60149 0.29636 0.87711 0.0
O267 O 0.60875 0.31748 0.91293 0.0
O268 O 0.63838 0.28396 0.8939 0.0
C269 C 0.55366 0.28393 0.88309 0.0
O270 O 0.60149 0.26975 0.84137 0.0
Co271 Co 0.55937 0.32156 0.82999 0.0
O272 O 0.56846 0.28542 0.8079 0.0
C273 C 0.61881 0.34644 0.83547 0.0
C274 C 0.63369 0.30338 0.91413 0.0
C275 C 0.58773 0.2672 0.81664 0.0
O276 O 0.62408 0.32683 0.85476 0.0
O277 O 0.59332 0.34961 0.82349 0.0
O278 O 0.57446 0.26982 0.89677 0.0
O279 O 0.56211 0.30808 0.87063 0.0
Co280 Co 0.78545 0.62669 0.89066 0.0
O281 O 0.80306 0.5886 0.88959 0.0
O282 O 0.77404 0.60703 0.85486 0.0
C283 C 0.76896 0.62741 0.93712 0.0
O284 O 0.76279 0.66444 0.88436 0.0
Co285 Co 0.8144 0.67493 0.92897 0.0
O286 O 0.78027 0.69852 0.91568 0.0
C287 C 0.84201 0.66071 0.87314 0.0
C288 C 0.79101 0.58597 0.86367 0.0
C289 C 0.76206 0.69009 0.8959 0.0
O290 O 0.82046 0.6428 0.869 0.0
O291 O 0.84499 0.6758 0.89664 0.0
O292 O 0.75434 0.61326 0.91685 0.0
O293 O 0.79533 0.63645 0.9297 0.0
Co294 Co 0.60728 0.71388 0.12997 0.0
O295 O 0.56942 0.73058 0.12131 0.0
O296 O 0.57683 0.69543 0.15386 0.0
C297 C 0.6244 0.70864 0.08379 0.0
O298 O 0.64385 0.69128 0.14352 0.0
Co299 Co 0.66268 0.75201 0.11523 0.0
O300 O 0.68312 0.71478 0.12341 0.0
C301 C 0.6285 0.76592 0.16764 0.0
C302 C 0.55864 0.71386 0.14175 0.0
C303 C 0.67166 0.69307 0.13685 0.0
O304 O 0.61304 0.74284 0.16268 0.0
O305 O 0.64866 0.7751 0.15004 0.0
O306 O 0.60564 0.68976 0.09462 0.0
O307 O 0.62798 0.73207 0.09931 0.0
Co308 Co 0.22755 0.63362 0.11423 0.0
O309 O 0.24573 0.6209 0.0786 0.0
O310 O 0.2088 0.65253 0.08102 0.0
C311 C 0.22277 0.5902 0.13662 0.0
O312 O 0.20295 0.65037 0.14772 0.0
Co313 Co 0.26371 0.62734 0.17198 0.0
O314 O 0.22397 0.6339 0.18949 0.0
C315 C 0.27856 0.67524 0.132 0.0
C316 C 0.22803 0.63859 0.06506 0.0
C317 C 0.20259 0.64587 0.17571 0.0
O318 O 0.25607 0.66761 0.11632 0.0
O319 O 0.28702 0.66076 0.15454 0.0
O320 O 0.20386 0.59805 0.1165 0.0
O321 O 0.24622 0.60662 0.13886 0.0
Co322 Co 0.78185 0.38259 0.11123 0.0
O323 O 0.75817 0.39327 0.07818 0.0
O324 O 0.79726 0.3641 0.07636 0.0
C325 C 0.78613 0.42685 0.13197 0.0
O326 O 0.81188 0.36782 0.14122 0.0
Co327 Co 0.75588 0.38953 0.17423 0.0
O328 O 0.79827 0.38566 0.18526 0.0
C329 C 0.73986 0.33777 0.1391 0.0
C330 C 0.77515 0.3764 0.06283 0.0
C331 C 0.81702 0.37325 0.16857 0.0
O332 O 0.75617 0.34704 0.11791 0.0
O333 O 0.73593 0.3519 0.16304 0.0
O334 O 0.80312 0.4198 0.11001 0.0
O335 O 0.76471 0.40878 0.13746 0.0
H336 H 0.17245 0.55727 0.13823 0.0
H337 H 0.25344 0.57468 0.18656 0.0
H338 H 0.15525 0.52557 0.17744 0.0
H339 H 0.23583 0.54298 0.22643 0.0
H340 H 0.20203 0.45274 0.26794 0.0
H341 H 0.22392 0.49082 0.23699 0.0
H342 H 0.13776 0.53054 0.22789 0.0
H343 H 0.11587 0.49212 0.25804 0.0
C344 C 0.18666 0.55426 0.15723 0.0
C345 C 0.21426 0.5686 0.15932 0.0
C346 C 0.17662 0.53634 0.17992 0.0
C347 C 0.19387 0.53227 0.20539 0.0
C348 C 0.22197 0.54582 0.20715 0.0
C349 C 0.23207 0.56388 0.18431 0.0
C350 C 0.18802 0.47025 0.26024 0.0
C351 C 0.1572 0.46936 0.26512 0.0
C352 C 0.20054 0.49198 0.24237 0.0
C353 C 0.1824 0.5132 0.22932 0.0
C354 C 0.15216 0.51398 0.23692 0.0
C355 C 0.13966 0.49219 0.25447 0.0
H356 H 0.55176 0.1273 0.17477 0.0
H357 H 0.57695 0.18367 0.24696 0.0
H358 H 0.51872 0.16466 0.15616 0.0
H359 H 0.54455 0.22161 0.22774 0.0
H360 H 0.45391 0.26429 0.19954 0.0
H361 H 0.49288 0.23371 0.22026 0.0
H362 H 0.52127 0.21118 0.13244 0.0
H363 H 0.48161 0.24075 0.11197 0.0
C364 C 0.5502 0.14767 0.1867 0.0
C365 C 0.56704 0.15255 0.21226 0.0
C366 C 0.53156 0.1693 0.17581 0.0
C367 C 0.52943 0.19643 0.19012 0.0
C368 C 0.54567 0.20101 0.21618 0.0
C369 C 0.56424 0.17925 0.22718 0.0
C370 C 0.46924 0.25366 0.18475 0.0
C371 C 0.46476 0.25472 0.15419 0.0
C372 C 0.49145 0.23596 0.19659 0.0
C373 C 0.50966 0.21933 0.17799 0.0
C374 C 0.50701 0.22293 0.14739 0.0
C375 C 0.48462 0.24023 0.13563 0.0
H376 H 0.75793 0.44116 0.18286 0.0
H377 H 0.83707 0.45959 0.13234 0.0
H378 H 0.77845 0.46838 0.2242 0.0
H379 H 0.85695 0.4882 0.17307 0.0
H380 H 0.9001 0.51627 0.25483 0.0
H381 H 0.87757 0.48147 0.22072 0.0
H382 H 0.79078 0.51557 0.24116 0.0
H383 H 0.81325 0.54918 0.27624 0.0
C384 C 0.77951 0.45149 0.18039 0.0
C385 C 0.79606 0.44798 0.15447 0.0
C386 C 0.79127 0.46711 0.20413 0.0
C387 C 0.81963 0.47998 0.20224 0.0
C388 C 0.83546 0.47775 0.17566 0.0
C389 C 0.82385 0.46181 0.15207 0.0
C390 C 0.87611 0.51544 0.25283 0.0
C391 C 0.85842 0.53544 0.26798 0.0
C392 C 0.86323 0.49591 0.23293 0.0
C393 C 0.83248 0.49643 0.22744 0.0
C394 C 0.81453 0.51457 0.24476 0.0
C395 C 0.8274 0.53375 0.26506 0.0
H396 H 0.53883 0.70318 0.19773 0.0
H397 H 0.5131 0.74157 0.11486 0.0
H398 H 0.49758 0.72823 0.22205 0.0
H399 H 0.47221 0.76639 0.1392 0.0
H400 H 0.39204 0.77776 0.22283 0.0
H401 H 0.42626 0.74008 0.20515 0.0
H402 H 0.4942 0.80566 0.19246 0.0
H403 H 0.46059 0.84313 0.21011 0.0
C404 C 0.52364 0.71585 0.18449 0.0
C405 C 0.52926 0.72057 0.15442 0.0
C406 C 0.50018 0.73024 0.19845 0.0
C407 C 0.48201 0.74919 0.18239 0.0
C408 C 0.48598 0.75176 0.15192 0.0
C409 C 0.50934 0.73754 0.13804 0.0
C410 C 0.41455 0.78398 0.21703 0.0
C411 C 0.42359 0.81345 0.21776 0.0
C412 C 0.43399 0.76245 0.20689 0.0
C413 C 0.46263 0.7702 0.19744 0.0
C414 C 0.47214 0.7993 0.19968 0.0
C415 C 0.45288 0.82069 0.2098 0.0
H416 H 0.17558 0.4541 0.87627 0.0
H417 H 0.22085 0.40773 0.80712 0.0
H418 H 0.15735 0.48902 0.84039 0.0
H419 H 0.20174 0.44209 0.77096 0.0
H420 H 0.18668 0.53086 0.72285 0.0
H421 H 0.20503 0.49168 0.75416 0.0
H422 H 0.1218 0.49089 0.80144 0.0
H423 H 0.10411 0.53075 0.77093 0.0
C424 C 0.18172 0.45146 0.8534 0.0
C425 C 0.19965 0.42824 0.84452 0.0
C426 C 0.17097 0.47124 0.83275 0.0
C427 C 0.17761 0.46804 0.80267 0.0
C428 C 0.19628 0.44525 0.79392 0.0
C429 C 0.20726 0.4256 0.81466 0.0
C430 C 0.17206 0.52168 0.7394 0.0
C431 C 0.14409 0.53388 0.74468 0.0
C432 C 0.1826 0.49933 0.75744 0.0
C433 C 0.16516 0.48867 0.78081 0.0
C434 C 0.13617 0.49926 0.78427 0.0
C435 C 0.12585 0.5218 0.76656 0.0
H436 H 0.52684 0.23868 0.91123 0.0
H437 H 0.51922 0.2924 0.83401 0.0
H438 H 0.49475 0.20251 0.88908 0.0
H439 H 0.49174 0.2547 0.80941 0.0
H440 H 0.44387 0.18088 0.76542 0.0
H441 H 0.46399 0.22209 0.79101 0.0
H442 H 0.49202 0.16479 0.86176 0.0
H443 H 0.46714 0.12474 0.83771 0.0
C444 C 0.51833 0.24261 0.88928 0.0
C445 C 0.52694 0.26758 0.87366 0.0
C446 C 0.50056 0.2213 0.87595 0.0
C447 C 0.49227 0.22368 0.84605 0.0
C448 C 0.49803 0.25061 0.83191 0.0
C449 C 0.51432 0.27262 0.846 0.0
C450 C 0.4539 0.17728 0.78673 0.0
C451 C 0.45273 0.14977 0.80009 0.0
C452 C 0.46599 0.2012 0.80165 0.0
C453 C 0.47919 0.19799 0.82968 0.0
C454 C 0.48067 0.16946 0.8414 0.0
C455 C 0.46704 0.14591 0.82715 0.0
H456 H 0.7926 0.58761 0.80378 0.0
H457 H 0.81126 0.53214 0.87806 0.0
H458 H 0.81564 0.55242 0.77091 0.0
H459 H 0.83263 0.49609 0.84527 0.0
H460 H 0.89678 0.44971 0.79014 0.0
H461 H 0.87565 0.48915 0.81848 0.0
H462 H 0.81437 0.50688 0.7474 0.0
H463 H 0.8375 0.46871 0.71807 0.0
C464 C 0.80091 0.56746 0.81295 0.0
C465 C 0.80019 0.56255 0.84346 0.0
C466 C 0.81418 0.54727 0.7941 0.0
C467 C 0.82661 0.52153 0.80535 0.0
C468 C 0.82431 0.51607 0.8358 0.0
C469 C 0.81164 0.53651 0.85464 0.0
C470 C 0.87922 0.46246 0.78031 0.0
C471 C 0.86825 0.45559 0.7522 0.0
C472 C 0.8667 0.48482 0.79677 0.0
C473 C 0.84236 0.50053 0.78586 0.0
C474 C 0.83286 0.49513 0.75675 0.0
C475 C 0.84602 0.47311 0.73992 0.0
H476 H 0.55789 0.87387 0.84305 0.0
H477 H 0.54268 0.8289 0.76077 0.0
H478 H 0.52917 0.83656 0.86878 0.0
H479 H 0.51344 0.79182 0.78646 0.0
H480 H 0.48369 0.71638 0.84295 0.0
H481 H 0.51908 0.7516 0.82228 0.0
H482 H 0.47798 0.82041 0.87224 0.0
H483 H 0.44308 0.78549 0.8929 0.0
C484 C 0.54807 0.85623 0.83039 0.0
C485 C 0.55243 0.85438 0.79986 0.0
C486 C 0.53172 0.83478 0.84517 0.0
C487 C 0.51931 0.81106 0.82971 0.0
C488 C 0.52328 0.80948 0.79909 0.0
C489 C 0.53966 0.83093 0.78431 0.0
C490 C 0.48267 0.73891 0.84995 0.0
C491 C 0.46021 0.74827 0.86904 0.0
C492 C 0.50273 0.75912 0.83792 0.0
C493 C 0.50092 0.78888 0.84518 0.0
C494 C 0.48001 0.79768 0.86616 0.0
C495 C 0.45994 0.77761 0.87798 0.0
H496 H 0.16166 0.22922 0.5606 0.0
H497 H 0.12591 0.14247 0.57317 0.0
H498 H 0.19778 0.20995 0.52551 0.0
H499 H 0.16247 0.12313 0.5396 0.0
H500 H 0.20489 0.1025 0.45264 0.0
H501 H 0.17192 0.12224 0.48919 0.0
H502 H 0.24172 0.18037 0.51941 0.0
H503 H 0.27481 0.1611 0.48136 0.0
C504 C 0.16147 0.20609 0.55579 0.0
C505 C 0.14058 0.18746 0.5692 0.0
C506 C 0.1824 0.19497 0.53601 0.0
C507 C 0.183 0.16496 0.52952 0.0
C508 C 0.16231 0.14643 0.54342 0.0
C509 C 0.14125 0.15755 0.56275 0.0
C510 C 0.21346 0.11931 0.46718 0.0
C511 C 0.24254 0.1302 0.46404 0.0
C512 C 0.19449 0.13058 0.48838 0.0
C513 C 0.20407 0.15288 0.50745 0.0
C514 C 0.23347 0.16343 0.50486 0.0
C515 C 0.25255 0.15218 0.48332 0.0
H516 H 0.73982 0.1142 0.51571 0.0
H517 H 0.7152 0.20179 0.53969 0.0
H518 H 0.76947 0.13332 0.4752 0.0
H519 H 0.74522 0.22099 0.49914 0.0
H520 H 0.79895 0.23893 0.41148 0.0
H521 H 0.758 0.22164 0.44268 0.0
H522 H 0.8176 0.16176 0.48544 0.0
H523 H 0.85825 0.17892 0.45473 0.0
C524 C 0.73985 0.13747 0.51162 0.0
C525 C 0.72561 0.15655 0.53103 0.0
C526 C 0.757 0.14841 0.4886 0.0
C527 C 0.76025 0.17862 0.48467 0.0
C528 C 0.74316 0.1976 0.50184 0.0
C529 C 0.72584 0.18659 0.52493 0.0
C530 C 0.8033 0.22229 0.42779 0.0
C531 C 0.83181 0.21027 0.43069 0.0
C532 C 0.77987 0.21237 0.44548 0.0
C533 C 0.78456 0.18999 0.46596 0.0
C534 C 0.81322 0.17858 0.46931 0.0
C535 C 0.83659 0.18866 0.45196 0.0
H536 H 0.75807 0.88694 0.48186 0.0
H537 H 0.70248 0.81014 0.47564 0.0
H538 H 0.79132 0.86155 0.51484 0.0
H539 H 0.73777 0.78322 0.50544 0.0
H540 H 0.8038 0.74484 0.57168 0.0
H541 H 0.76399 0.76993 0.54608 0.0
H542 H 0.82868 0.82947 0.5085 0.0
H543 H 0.86755 0.80636 0.53662 0.0
C544 C 0.75294 0.86454 0.48763 0.0
C545 C 0.72846 0.8501 0.47502 0.0
C546 C 0.7724 0.84967 0.50604 0.0
C547 C 0.7685 0.81964 0.51144 0.0
C548 C 0.74212 0.8061 0.50142 0.0
C549 C 0.7219 0.82148 0.48398 0.0
C550 C 0.80939 0.76339 0.55802 0.0
C551 C 0.83862 0.77436 0.55712 0.0
C552 C 0.78652 0.77775 0.5431 0.0
C553 C 0.79266 0.80269 0.526 0.0
C554 C 0.82254 0.81151 0.52273 0.0
C555 C 0.8451 0.79783 0.5384 0.0
H556 H 0.14234 0.87368 0.41867 0.0
H557 H 0.1808 0.78823 0.42626 0.0
H558 H 0.18004 0.89335 0.45181 0.0
H559 H 0.21727 0.80715 0.46127 0.0
H560 H 0.28673 0.84707 0.51812 0.0
H561 H 0.25901 0.8354 0.47325 0.0
H562 H 0.18875 0.89279 0.50135 0.0
H563 H 0.21699 0.90554 0.54455 0.0
C564 C 0.15874 0.85907 0.42781 0.0
C565 C 0.15846 0.82941 0.42048 0.0
C566 C 0.18035 0.87027 0.44683 0.0
C567 C 0.20156 0.85182 0.45973 0.0
C568 C 0.20167 0.8222 0.45157 0.0
C569 C 0.18053 0.8112 0.43182 0.0
C570 C 0.26576 0.85776 0.51412 0.0
C571 C 0.25387 0.87692 0.535 0.0
C572 C 0.24966 0.85083 0.48861 0.0
C573 C 0.2213 0.86271 0.48376 0.0
C574 C 0.21055 0.88336 0.50387 0.0
C575 C 0.22674 0.89054 0.52898 0.0
H576 H 0.68044 0.96761 0.77132 0.0
H577 H 0.59668 0.97538 0.7256 0.0
H578 H 0.70028 0.00872 0.74308 0.0
H579 H 0.61664 0.01466 0.69641 0.0
H580 H 0.65193 0.09241 0.6518 0.0
H581 H 0.63291 0.06145 0.69078 0.0
H582 H 0.71756 0.01764 0.69537 0.0
H583 H 0.73719 0.05069 0.65777 0.0
C584 C 0.6661 0.97845 0.75569 0.0
C585 C 0.63708 0.96811 0.75053 0.0
C586 C 0.67759 0.00172 0.73914 0.0
C587 C 0.66034 0.01488 0.71697 0.0
C588 C 0.63068 0.00558 0.71338 0.0
C589 C 0.61917 0.98275 0.73011 0.0
C590 C 0.6664 0.07605 0.66109 0.0
C591 C 0.69577 0.07334 0.65133 0.0
C592 C 0.65552 0.05824 0.6835 0.0
C593 C 0.67341 0.0365 0.69605 0.0
C594 C 0.70312 0.03426 0.68658 0.0
C595 C 0.71431 0.05283 0.66472 0.0
H596 H 0.97409 0.72939 0.59994 0.0
H597 H 0.95463 0.76503 0.68553 0.0
H598 H 0.01482 0.70161 0.62094 0.0
H599 H 0.99457 0.73626 0.70698 0.0
H600 H 0.07929 0.68741 0.73363 0.0
H601 H 0.04612 0.72352 0.71219 0.0
H602 H 0.01363 0.65878 0.65062 0.0
H603 H 0.04746 0.62322 0.67125 0.0
C604 C 0.97912 0.73186 0.62314 0.0
C605 C 0.96127 0.74925 0.64114 0.0
C606 C 0.00212 0.71562 0.63529 0.0
C607 C 0.00735 0.71597 0.66581 0.0
C608 C 0.99115 0.73542 0.6834 0.0
C609 C 0.96837 0.75208 0.6711 0.0
C610 C 0.06495 0.68091 0.71558 0.0
C611 C 0.06615 0.65253 0.70396 0.0
C612 C 0.04594 0.70162 0.7033 0.0
C613 C 0.02761 0.69426 0.67929 0.0
C614 C 0.0281 0.66551 0.66848 0.0
C615 C 0.0472 0.64494 0.68059 0.0
H616 H 0.32226 0.03908 0.78192 0.0
H617 H 0.40875 0.01519 0.74947 0.0
H618 H 0.29932 0.00193 0.75091 0.0
H619 H 0.38598 0.97715 0.71927 0.0
H620 H 0.33522 0.95573 0.63509 0.0
H621 H 0.35809 0.98374 0.67462 0.0
H622 H 0.29083 0.95254 0.73491 0.0
H623 H 0.26726 0.92532 0.69494 0.0
C624 C 0.33649 0.02493 0.76923 0.0
C625 C 0.36721 0.03025 0.76768 0.0
C626 C 0.32332 0.00369 0.75131 0.0
C627 C 0.34077 0.98725 0.73192 0.0
C628 C 0.37186 0.99019 0.73324 0.0
C629 C 0.38496 0.01166 0.75082 0.0
C630 C 0.32514 0.95507 0.6567 0.0
C631 C 0.2995 0.93831 0.66192 0.0
C632 C 0.33852 0.97072 0.67951 0.0
C633 C 0.32665 0.96985 0.70811 0.0
C634 C 0.30056 0.95361 0.71317 0.0
C635 C 0.28705 0.93807 0.69025 0.0
H636 H 0.00987 0.23595 0.6211 0.0
H637 H 0.03645 0.20538 0.70697 0.0
H638 H 0.97219 0.26642 0.64368 0.0
H639 H 0.9983 0.23603 0.72962 0.0
H640 H 0.90454 0.29095 0.74332 0.0
H641 H 0.93594 0.25047 0.7269 0.0
H642 H 0.99143 0.31134 0.67941 0.0
H643 H 0.96082 0.35153 0.69591 0.0
C644 C 0.00687 0.23487 0.64472 0.0
C645 C 0.02625 0.2185 0.66229 0.0
C646 C 0.98544 0.25244 0.65763 0.0
C647 C 0.98285 0.25389 0.68834 0.0
C648 C -3e-05 0.2352 0.70586 0.0
C649 C 0.02161 0.21755 0.69288 0.0
C650 C 0.92386 0.2957 0.72994 0.0
C651 C 0.93011 0.32444 0.72078 0.0
C652 C 0.94167 0.27255 0.7205 0.0
C653 C 0.96565 0.27788 0.70152 0.0
C654 C 0.97273 0.30669 0.69369 0.0
C655 C 0.95528 0.32971 0.70332 0.0
H656 H 0.72416 0.91121 0.31767 0.0
H657 H 0.66347 0.95001 0.37955 0.0
H658 H 0.70743 0.94473 0.27964 0.0
H659 H 0.64748 0.98419 0.3419 0.0
H660 H 0.60191 0.0236 0.2665 0.0
H661 H 0.61855 0.98384 0.29777 0.0
H662 H 0.70783 0.99492 0.26447 0.0
H663 H 0.69071 0.03396 0.23229 0.0
C664 C 0.70765 0.92729 0.32332 0.0
C665 C 0.69508 0.92798 0.35161 0.0
C666 C 0.69802 0.94645 0.30147 0.0
C667 C 0.67573 0.96681 0.30752 0.0
C668 C 0.66407 0.96821 0.33621 0.0
C669 C 0.67352 0.94891 0.35795 0.0
C670 C 0.62486 0.0168 0.26517 0.0
C671 C 0.64506 0.0318 0.24711 0.0
C672 C 0.63452 0.99437 0.2834 0.0
C673 C 0.66472 0.98684 0.28433 0.0
C674 C 0.68443 0.0002 0.26436 0.0
C675 C 0.67462 0.02243 0.24575 0.0
H676 H 0.9619 0.66792 0.27202 0.0
H677 H 0.94132 0.63214 0.35756 0.0
H678 H 0.98808 0.70854 0.29537 0.0
H679 H 0.96696 0.6731 0.38095 0.0
H680 H 0.04836 0.73219 0.40517 0.0
H681 H 0.01648 0.69307 0.38728 0.0
H682 H 0.97691 0.75204 0.32466 0.0
H683 H 0.00933 0.79132 0.34233 0.0
C684 C 0.96324 0.6686 0.2958 0.0
C685 C 0.94968 0.64681 0.31294 0.0
C686 C 0.9778 0.6921 0.3092 0.0
C687 C 0.97908 0.69431 0.34002 0.0
C688 C 0.96636 0.67199 0.35716 0.0
C689 C 0.95186 0.64843 0.34374 0.0
C690 C 0.03239 0.73706 0.38804 0.0
C691 C 0.0319 0.76466 0.37461 0.0
C692 C 0.01407 0.71458 0.37781 0.0
C693 C 0.99475 0.71928 0.35404 0.0
C694 C 0.99224 0.7476 0.34247 0.0
C695 C 0.01057 0.77016 0.35278 0.0
H696 H 0.36765 0.91947 0.30401 0.0
H697 H 0.35249 0.96796 0.22401 0.0
H698 H 0.34728 0.95882 0.33264 0.0
H699 H 0.33284 0.00847 0.25316 0.0
H700 H 0.26914 0.0598 0.31409 0.0
H701 H 0.29033 0.02166 0.28305 0.0
H702 H 0.35769 0.00626 0.34904 0.0
H703 H 0.33589 0.04314 0.38024 0.0
C704 C 0.36041 0.93883 0.2925 0.0
C705 C 0.36173 0.94056 0.26168 0.0
C706 C 0.34881 0.96156 0.30903 0.0
C707 C 0.33846 0.98696 0.29531 0.0
C708 C 0.3403 0.98907 0.26443 0.0
C709 C 0.35186 0.96605 0.24774 0.0
C710 C 0.28825 0.04795 0.32202 0.0
C711 C 0.30054 0.05415 0.34981 0.0
C712 C 0.30063 0.02637 0.30409 0.0
C713 C 0.32569 0.01076 0.31353 0.0
C714 C 0.33804 0.01733 0.34124 0.0
C715 C 0.32552 0.03855 0.3592 0.0
H716 H 0.0684 0.3773 0.35127 0.0
H717 H 0.04492 0.34161 0.26627 0.0
H718 H 0.03805 0.34019 0.37517 0.0
H719 H 0.01393 0.30467 0.29028 0.0
H720 H 0.98066 0.22682 0.34291 0.0
H721 H 0.01726 0.26085 0.32208 0.0
H722 H 0.98626 0.3283 0.38054 0.0
H723 H 0.9503 0.29458 0.40128 0.0
C724 C 0.05641 0.36178 0.33764 0.0
C725 C 0.05895 0.36249 0.30685 0.0
C726 C 0.03909 0.34041 0.35137 0.0
C727 C 0.02376 0.31931 0.33465 0.0
C728 C 0.02594 0.32027 0.3038 0.0
C729 C 0.04333 0.34168 0.29004 0.0
C730 C 0.98215 0.24873 0.35165 0.0
C731 C 0.96227 0.25817 0.37335 0.0
C732 C 0.00287 0.2683 0.33955 0.0
C733 C 0.00431 0.29742 0.34932 0.0
C734 C 0.98585 0.30606 0.37252 0.0
C735 C 0.96515 0.28667 0.3844 0.0
H736 H 0.77649 0.67901 0.96695 0.0
H737 H 0.72536 0.59919 0.96673 0.0
H738 H 0.74095 0.70109 -0.0003 0.0
H739 H 0.69214 0.61919 0.00309 0.0
H740 H 0.61687 0.66546 0.04347 0.0
H741 H 0.65313 0.64658 0.0095 0.0
H742 H 0.71675 0.71153 0.03992 0.0
H743 H 0.67871 0.73275 0.07027 0.0
C744 C 0.75793 0.66596 0.97451 0.0
C745 C 0.75303 0.63782 0.9634 0.0
C746 C 0.73748 0.6785 0.99379 0.0
C747 C 0.71242 0.66257 0.00371 0.0
C748 C 0.70974 0.63314 0.99491 0.0
C749 C 0.7293 0.62123 0.9745 0.0
C750 C 0.63848 0.67599 0.04234 0.0
C751 C 0.64515 0.7001 0.06017 0.0
C752 C 0.65977 0.66472 0.02326 0.0
C753 C 0.6889 0.67642 0.0224 0.0
C754 C 0.69495 0.7015 0.03947 0.0
C755 C 0.67309 0.71363 0.05742 0.0
H756 H 0.24958 0.60302 0.02296 0.0
H757 H 0.22202 0.69157 0.03845 0.0
H758 H 0.27569 0.61856 0.97871 0.0
H759 H 0.24878 0.70733 0.99427 0.0
H760 H 0.36091 0.66441 0.94788 0.0
H761 H 0.3226 0.64852 0.98185 0.0
H762 H 0.25889 0.70353 0.93816 0.0
H763 H 0.29764 0.71964 0.90366 0.0
C764 C 0.24825 0.62565 0.01628 0.0
C765 C 0.23413 0.64617 0.0342 0.0
C766 C 0.26338 0.63458 0.99111 0.0
C767 C 0.26492 0.66425 0.98359 0.0
C768 C 0.24799 0.68433 -0.00036 0.0
C769 C 0.23257 0.6753 0.02484 0.0
C770 C 0.3388 0.67323 0.94544 0.0
C771 C 0.33231 0.69327 0.92307 0.0
C772 C 0.31674 0.66387 0.96473 0.0
C773 C 0.28762 0.67438 0.96228 0.0
C774 C 0.28113 0.69497 0.94038 0.0
C775 C 0.30328 0.70419 0.92075 0.0
H776 H 0.28513 0.38318 0.95635 0.0
H777 H 0.21333 0.32551 0.98199 0.0
H778 H 0.31767 0.36005 0.99106 0.0
H779 H 0.24608 0.30284 0.01855 0.0
H780 H 0.32568 0.24813 0.05434 0.0
H781 H 0.28875 0.27105 0.02211 0.0
H782 H 0.32835 0.35537 0.04045 0.0
H783 H 0.36567 0.33259 0.07053 0.0
C784 C 0.27602 0.36592 0.96997 0.0
C785 C 0.24662 0.3561 0.96623 0.0
C786 C 0.29478 0.35266 0.99013 0.0
C787 C 0.28462 0.3295 0.00777 0.0
C788 C 0.25477 0.32035 0.00501 0.0
C789 C 0.23589 0.33357 0.98439 0.0
C790 C 0.32662 0.27149 0.05093 0.0
C791 C 0.34902 0.28842 0.06434 0.0
C792 C 0.30525 0.28469 0.03288 0.0
C793 C 0.3057 0.31509 0.02836 0.0
C794 C 0.32773 0.33186 0.04257 0.0
C795 C 0.34926 0.31871 0.0599 0.0
H796 H 0.74651 0.40932 0.02268 0.0
H797 H 0.78013 0.32279 0.03782 0.0
H798 H 0.71537 0.39076 0.98284 0.0
H799 H 0.7482 0.3039 0.99852 0.0
H800 H 0.69077 0.28368 0.91615 0.0
H801 H 0.73144 0.30252 0.94663 0.0
H802 H 0.67051 0.36115 0.98929 0.0
H803 H 0.63018 0.34283 0.95861 0.0
C804 C 0.74791 0.38648 0.01678 0.0
C805 C 0.76539 0.36739 0.03337 0.0
C806 C 0.72985 0.37578 0.99427 0.0
C807 C 0.72863 0.34574 0.98831 0.0
C808 C 0.74857 0.32714 0.00275 0.0
C809 C 0.76699 0.33796 0.02512 0.0
C810 C 0.68606 0.3004 0.93227 0.0
C811 C 0.65731 0.31186 0.935 0.0
C812 C 0.70937 0.31123 0.94959 0.0
C813 C 0.70429 0.33373 0.96986 0.0
C814 C 0.67531 0.3444 0.97322 0.0
C815 C 0.65209 0.33364 0.95594 0.0
H816 H 0.11239 0.27501 0.30305 0.0
H817 H 0.17975 0.33783 0.32907 0.0
H818 H 0.13728 0.23757 0.33146 0.0
H819 H 0.20478 0.30006 0.35738 0.0
H820 H 0.23107 0.23092 0.42264 0.0
H821 H 0.1993 0.26748 0.40052 0.0
H822 H 0.18452 0.21115 0.32564 0.0
H823 H 0.2162 0.1743 0.34779 0.0
C824 C 0.13245 0.28092 0.31492 0.0
C825 C 0.14432 0.30939 0.31345 0.0
C826 C 0.14671 0.25938 0.33114 0.0
C827 C 0.17309 0.2658 0.34637 0.0
C828 C 0.18433 0.29453 0.34599 0.0
C829 C 0.17007 0.31614 0.32968 0.0
C830 C 0.22082 0.2261 0.40159 0.0
C831 C 0.22649 0.19975 0.3868 0.0
C832 C 0.20272 0.24717 0.3889 0.0
C833 C 0.18974 0.24232 0.36124 0.0
C834 C 0.19412 0.21542 0.3471 0.0
C835 C 0.21233 0.19432 0.35976 0.0
H836 H 0.866 0.14383 0.2856 0.0
H837 H 0.83855 0.14328 0.37647 0.0
H838 H 0.81631 0.12714 0.27086 0.0
H839 H 0.7892 0.12637 0.36191 0.0
H840 H 0.70337 0.16313 0.31707 0.0
H841 H 0.75387 0.15965 0.33586 0.0
H842 H 0.77239 0.09128 0.2734 0.0
H843 H 0.72163 0.09453 0.25458 0.0
C844 C 0.84986 0.13864 0.30248 0.0
C845 C 0.8559 0.14508 0.33209 0.0
C846 C 0.82135 0.12926 0.29408 0.0
C847 C 0.79872 0.12621 0.31524 0.0
C848 C 0.80604 0.12913 0.34512 0.0
C849 C 0.83435 0.13853 0.35346 0.0
C850 C 0.71799 0.14702 0.30763 0.0
C851 C 0.70847 0.12931 0.28419 0.0
C852 C 0.7469 0.14485 0.31854 0.0
C853 C 0.76707 0.12512 0.3061 0.0
C854 C 0.75733 0.10669 0.28333 0.0
C855 C 0.72823 0.10857 0.27267 0.0
H856 H 0.82389 0.65666 0.34015 0.0
H857 H 0.89123 0.72391 0.33166 0.0
H858 H 0.79414 0.68921 0.37006 0.0
H859 H 0.86176 0.75626 0.36221 0.0
H860 H 0.77792 0.81448 0.36793 0.0
H861 H 0.81629 0.78165 0.35111 0.0
H862 H 0.7878 0.71734 0.41477 0.0
H863 H 0.74886 0.75001 0.43129 0.0
C864 C 0.83269 0.67812 0.3453 0.0
C865 C 0.85955 0.68797 0.33302 0.0
C866 C 0.81571 0.69676 0.36259 0.0
C867 C 0.82542 0.72548 0.36811 0.0
C868 C 0.8534 0.73447 0.35776 0.0
C869 C 0.87027 0.71593 0.34032 0.0
C870 C 0.78005 0.79353 0.37866 0.0
C871 C 0.75997 0.78467 0.40056 0.0
C872 C 0.80224 0.77476 0.36917 0.0
C873 C 0.80495 0.74679 0.38149 0.0
C874 C 0.78595 0.73857 0.40455 0.0
C875 C 0.76367 0.75732 0.414 0.0
H876 H 0.27131 0.84364 0.23258 0.0
H877 H 0.26858 0.93548 0.25339 0.0
H878 H 0.22047 0.83779 0.25109 0.0
H879 H 0.21807 0.92945 0.27231 0.0
H880 H 0.14953 0.88345 0.34029 0.0
H881 H 0.19616 0.89834 0.31702 0.0
H882 H 0.16698 0.85919 0.23544 0.0
H883 H 0.11988 0.84493 0.25857 0.0
C884 C 0.25995 0.86244 0.24138 0.0
C885 C 0.27378 0.88996 0.24161 0.0
C886 C 0.23083 0.8592 0.25156 0.0
C887 C 0.21538 0.88331 0.26266 0.0
C888 C 0.2295 0.91065 0.26362 0.0
C889 C 0.25834 0.91402 0.25289 0.0
C890 C 0.15261 0.87918 0.31705 0.0
C891 C 0.13117 0.8633 0.30108 0.0
C892 C 0.17929 0.8875 0.30383 0.0
C893 C 0.18517 0.87945 0.27466 0.0
C894 C 0.16292 0.86537 0.25807 0.0
C895 C 0.13589 0.85762 0.27113 0.0
H896 H 0.19859 0.64934 0.65625 0.0
H897 H 0.1193 0.69771 0.63644 0.0
H898 H 0.22862 0.68747 0.6333 0.0
H899 H 0.14926 0.73561 0.6132 0.0
H900 H 0.21652 0.80743 0.58824 0.0
H901 H 0.1948 0.75846 0.58096 0.0
H902 H 0.22354 0.73428 0.66822 0.0
H903 H 0.24411 0.78285 0.67579 0.0
C904 C 0.1874 0.66702 0.64511 0.0
C905 C 0.1568 0.67117 0.64883 0.0
C906 C 0.20464 0.68896 0.63212 0.0
C907 C 0.19122 0.7148 0.62242 0.0
C908 C 0.16014 0.716 0.62073 0.0
C909 C 0.14296 0.69426 0.63403 0.0
C910 C 0.21825 0.79146 0.6057 0.0
C911 C 0.2314 0.79897 0.63281 0.0
C912 C 0.20615 0.76351 0.6014 0.0
C913 C 0.20809 0.74252 0.62377 0.0
C914 C 0.22235 0.74983 0.65033 0.0
C915 C 0.23362 0.7778 0.6549 0.0
H916 H 0.33756 0.15233 0.67306 0.0
H917 H 0.3039 0.094 0.74012 0.0
H918 H 0.28873 0.15341 0.65039 0.0
H919 H 0.25483 0.09509 0.71719 0.0
H920 H 0.17361 0.16016 0.69783 0.0
H921 H 0.21844 0.13573 0.71506 0.0
H922 H 0.24834 0.12716 0.62524 0.0
H923 H 0.20392 0.15217 0.60826 0.0
C924 C 0.31993 0.1392 0.68259 0.0
C925 C 0.32457 0.12352 0.70868 0.0
C926 C 0.29191 0.1396 0.66944 0.0
C927 C 0.26783 0.12444 0.68213 0.0
C928 C 0.2729 0.10717 0.70709 0.0
C929 C 0.30106 0.10653 0.72013 0.0
C930 C 0.18914 0.15183 0.68179 0.0
C931 C 0.18572 0.15835 0.65186 0.0
C932 C 0.21486 0.13787 0.6916 0.0
C933 C 0.23726 0.13021 0.6715 0.0
C934 C 0.2318 0.13342 0.64125 0.0
C935 C 0.20632 0.14754 0.63154 0.0
H936 H 0.8201 0.1922 0.66172 0.0
H937 H 0.7654 0.21208 0.58612 0.0
H938 H 0.8422 0.24063 0.65917 0.0
H939 H 0.78783 0.26054 0.58348 0.0
H940 H 0.79652 0.35302 0.63122 0.0
H941 H 0.78308 0.30386 0.61488 0.0
H942 H 0.87264 0.27541 0.63241 0.0
H943 H 0.88567 0.32427 0.64939 0.0
C944 C 0.81327 0.2066 0.64413 0.0
C945 C 0.79064 0.19828 0.62446 0.0
C946 C 0.82608 0.23441 0.64253 0.0
C947 C 0.81662 0.25459 0.6212 0.0
C948 C 0.79532 0.24566 0.60039 0.0
C949 C 0.78255 0.2178 0.60191 0.0
C950 C 0.8136 0.33656 0.63028 0.0
C951 C 0.842 0.34228 0.64177 0.0
C952 C 0.80592 0.30832 0.62106 0.0
C953 C 0.82664 0.28553 0.62307 0.0
C954 C 0.85599 0.29228 0.63129 0.0
C955 C 0.86354 0.32033 0.6407 0.0
H956 H 0.78644 0.82024 0.59504 0.0
H957 H 0.81884 0.821 0.68438 0.0
H958 H 0.74398 0.84952 0.60961 0.0
H959 H 0.77616 0.85011 0.69923 0.0
H960 H 0.69447 0.89962 0.72028 0.0
H961 H 0.74215 0.89359 0.69586 0.0
H962 H 0.70332 0.82744 0.63974 0.0
H963 H 0.65573 0.83321 0.66411 0.0
C964 C 0.7851 0.82787 0.61756 0.0
C965 C 0.80559 0.81831 0.63872 0.0
C966 C 0.76072 0.84441 0.62593 0.0
C967 C 0.7564 0.85147 0.65564 0.0
C968 C 0.77894 0.84502 0.67614 0.0
C969 C 0.80347 0.82847 0.66769 0.0
C970 C 0.69584 0.88426 0.70223 0.0
C971 C 0.67133 0.86647 0.69449 0.0
C972 C 0.72324 0.88084 0.68833 0.0
C973 C 0.72654 0.85994 0.66609 0.0
C974 C 0.70143 0.84394 0.65666 0.0
C975 C 0.67414 0.8471 0.67077 0.0
H976 H 0.35105 0.12089 0.3336 0.0
H977 H 0.35258 0.212 0.35766 0.0
H978 H 0.36437 0.13364 0.28331 0.0
H979 H 0.36625 0.22474 0.30715 0.0
H980 H 0.32835 0.17621 0.19588 0.0
H981 H 0.33048 0.15935 0.24681 0.0
H982 H 0.40287 0.21922 0.26448 0.0
H983 H 0.40113 0.23595 0.21375 0.0
C984 C 0.35526 0.14361 0.32838 0.0
C985 C 0.35035 0.16552 0.34947 0.0
C986 C 0.36264 0.15087 0.29952 0.0
C987 C 0.3656 0.18016 0.2912 0.0
C988 C 0.36399 0.20193 0.31299 0.0
C989 C 0.35639 0.19466 0.34197 0.0
C990 C 0.34504 0.18544 0.21043 0.0
C991 C 0.36434 0.20759 0.20065 0.0
C992 C 0.34636 0.17571 0.23959 0.0
C993 C 0.36681 0.1881 0.2596 0.0
C994 C 0.38676 0.20948 0.2496 0.0
C995 C 0.38572 0.21895 0.22044 0.0
H996 H 0.86995 0.29181 0.31625 0.0
H997 H 0.93345 0.25138 0.25817 0.0
H998 H 0.85801 0.32685 0.27813 0.0
H999 H 0.92148 0.28683 0.21994 0.0
H1000 H 0.84719 0.39556 0.21521 0.0
H1001 H 0.87833 0.368 0.24897 0.0
H1002 H 0.87572 0.2946 0.18941 0.0
H1003 H 0.845 0.32242 0.15537 0.0
C1004 C 0.88158 0.29056 0.29546 0.0
C1005 C 0.90238 0.2686 0.29017 0.0
C1006 C 0.87501 0.31089 0.27371 0.0
C1007 C 0.889 0.30968 0.24611 0.0
C1008 C 0.91039 0.28822 0.241 0.0
C1009 C 0.91717 0.26797 0.26291 0.0
C1010 C 0.8542 0.37391 0.20888 0.0
C1011 C 0.84322 0.3608 0.18309 0.0
C1012 C 0.87187 0.35812 0.22823 0.0
C1013 C 0.87865 0.32893 0.22217 0.0
C1014 C 0.87074 0.31706 0.19468 0.0
C1015 C 0.85318 0.33298 0.17516 0.0
H1016 H 0.58583 0.75446 0.20893 0.0
H1017 H 0.66183 0.81024 0.19177 0.0
H1018 H 0.58371 0.77273 0.25917 0.0
H1019 H 0.65977 0.82822 0.24205 0.0
H1020 H 0.64602 0.86622 0.32925 0.0
H1021 H 0.6319 0.85547 0.27866 0.0
H1022 H 0.616 0.76546 0.30229 0.0
H1023 H 0.62968 0.77638 0.3532 0.0
C1024 C 0.60187 0.77091 0.2157 0.0
C1025 C 0.62433 0.78059 0.19637 0.0
C1026 C 0.60064 0.78128 0.24456 0.0
C1027 C 0.62169 0.8017 0.25469 0.0
C1028 C 0.64301 0.81269 0.23486 0.0
C1029 C 0.6443 0.80228 0.20601 0.0
C1030 C 0.63875 0.84427 0.32381 0.0
C1031 C 0.63939 0.82198 0.34504 0.0
C1032 C 0.63083 0.83812 0.29479 0.0
C1033 C 0.6235 0.80952 0.28634 0.0
C1034 C 0.62149 0.78776 0.30813 0.0
C1035 C 0.6293 0.79397 0.33731 0.0
H1036 H 0.16396 0.69 0.1631 0.0
H1037 H 0.18463 0.62511 0.22873 0.0
H1038 H 0.1292 0.71265 0.19721 0.0
H1039 H 0.14963 0.64737 0.2625 0.0
H1040 H 0.06152 0.74358 0.26193 0.0
H1041 H 0.08344 0.70931 0.22738 0.0
H1042 H 0.15492 0.69365 0.28879 0.0
H1043 H 0.13303 0.72752 0.32339 0.0
C1044 C 0.16049 0.68015 0.18449 0.0
C1045 C 0.17749 0.65627 0.19354 0.0
C1046 C 0.1405 0.69302 0.20399 0.0
C1047 C 0.13712 0.68204 0.23272 0.0
C1048 C 0.15229 0.65667 0.24075 0.0
C1049 C 0.17231 0.64396 0.2214 0.0
C1050 C 0.0816 0.73239 0.26833 0.0
C1051 C 0.0958 0.73865 0.29528 0.0
C1052 C 0.09418 0.71288 0.24844 0.0
C1053 C 0.12101 0.69903 0.25524 0.0
C1054 C 0.13408 0.7038 0.28297 0.0
C1055 C 0.12163 0.72339 0.30277 0.0
H1056 H 0.44847 0.77032 0.77679 0.0
H1057 H 0.35585 0.74558 0.783 0.0
H1058 H 0.43702 0.80153 0.73435 0.0
H1059 H 0.34475 0.77598 0.74026 0.0
H1060 H 0.33862 0.80648 0.64826 0.0
H1061 H 0.36658 0.77461 0.68114 0.0
H1062 H 0.39509 0.84927 0.73191 0.0
H1063 H 0.36645 0.8811 0.69956 0.0
C1064 C 0.42573 0.77157 0.76903 0.0
C1065 C 0.40294 0.75575 0.78314 0.0
C1066 C 0.41932 0.7892 0.74478 0.0
C1067 C 0.39021 0.79048 0.73389 0.0
C1068 C 0.36747 0.77479 0.74807 0.0
C1069 C 0.37372 0.75779 0.77269 0.0
C1070 C 0.35224 0.81624 0.66539 0.0
C1071 C 0.35034 0.84612 0.6716 0.0
C1072 C 0.36795 0.798 0.68434 0.0
C1073 C 0.38248 0.80964 0.70911 0.0
C1074 C 0.38405 0.83994 0.71286 0.0
C1075 C 0.36783 0.8581 0.6943 0.0
H1076 H 0.13625 0.27524 0.8595 0.0
H1077 H 0.14478 0.36489 0.83154 0.0
H1078 H 0.12141 0.26137 0.80956 0.0
H1079 H 0.12998 0.35108 0.78187 0.0
H1080 H 0.16171 0.30314 0.69629 0.0
H1081 H 0.16045 0.3227 0.74616 0.0
H1082 H 0.08602 0.26638 0.76679 0.0
H1083 H 0.08703 0.24683 0.71704 0.0
C1084 C 0.13378 0.29211 0.84304 0.0
C1085 C 0.14208 0.32103 0.84929 0.0
C1086 C 0.12543 0.28419 0.81439 0.0
C1087 C 0.12525 0.30509 0.79169 0.0
C1088 C 0.13058 0.33443 0.79876 0.0
C1089 C 0.13883 0.34233 0.82726 0.0
C1090 C 0.14472 0.2953 0.71123 0.0
C1091 C 0.12477 0.27316 0.70264 0.0
C1092 C 0.1439 0.30658 0.7398 0.0
C1093 C 0.12321 0.2959 0.76043 0.0
C1094 C 0.10239 0.27478 0.75148 0.0
C1095 C 0.10301 0.26368 0.72287 0.0
H1096 H 0.67535 0.1263 0.72398 0.0
H1097 H 0.66253 0.19684 0.66241 0.0
H1098 H 0.64228 0.14988 0.75876 0.0
H1099 H 0.62995 0.22083 0.69753 0.0
H1100 H 0.56446 0.2547 0.76226 0.0
H1101 H 0.58395 0.22078 0.726 0.0
H1102 H 0.6503 0.19293 0.78857 0.0
H1103 H 0.63064 0.22627 0.8249 0.0
C1104 C 0.66526 0.14676 0.7178 0.0
C1105 C 0.67201 0.16011 0.69078 0.0
C1106 C 0.64633 0.16024 0.73772 0.0
C1107 C 0.63393 0.18743 0.73111 0.0
C1108 C 0.63903 0.19978 0.70322 0.0
C1109 C 0.65782 0.18615 0.68315 0.0
C1110 C 0.5829 0.24099 0.76846 0.0
C1111 C 0.59633 0.24357 0.79635 0.0
C1112 C 0.59409 0.22164 0.74762 0.0
C1113 C 0.61883 0.20442 0.7543 0.0
C1114 C 0.63103 0.20569 0.78279 0.0
C1115 C 0.61987 0.225 0.8036 0.0
H1116 H 0.83162 0.67265 0.69645 0.0
H1117 H 0.90336 0.73504 0.70801 0.0
H1118 H 0.83829 0.65645 0.747 0.0
H1119 H 0.9099 0.71872 0.7586 0.0
H1120 H 0.85978 0.62135 0.83264 0.0
H1121 H 0.87296 0.6324 0.78191 0.0
H1122 H 0.87773 0.72405 0.80341 0.0
H1123 H 0.86476 0.71289 0.85438 0.0
C1124 C 0.84909 0.6826 0.70956 0.0
C1125 C 0.86665 0.70537 0.69819 0.0
C1126 C 0.8531 0.67317 0.7385 0.0
C1127 C 0.87465 0.68637 0.75677 0.0
C1128 C 0.89302 0.7083 0.74509 0.0
C1129 C 0.88921 0.71758 0.71606 0.0
C1130 C 0.86489 0.64375 0.8268 0.0
C1131 C 0.86087 0.66635 0.84728 0.0
C1132 C 0.87215 0.65007 0.7977 0.0
C1133 C 0.87554 0.67911 0.78855 0.0
C1134 C 0.87517 0.70143 0.80983 0.0
C1135 C 0.86792 0.69507 0.83909 0.0
H1136 H 0.15726 0.33994 0.16754 0.0
H1137 H 0.19833 0.40634 0.22214 0.0
H1138 H 0.20456 0.33219 0.14319 0.0
H1139 H 0.24565 0.39833 0.19777 0.0
H1140 H 0.28809 0.32267 0.09828 0.0
H1141 H 0.24566 0.352 0.11264 0.0
H1142 H 0.27865 0.35455 0.20195 0.0
H1143 H 0.32146 0.32545 0.18731 0.0
C1144 C 0.1761 0.35345 0.17381 0.0
C1145 C 0.17403 0.3733 0.19721 0.0
C1146 C 0.20325 0.34911 0.15976 0.0
C1147 C 0.22891 0.36445 0.16886 0.0
C1148 C 0.22633 0.38596 0.19059 0.0
C1149 C 0.19913 0.39052 0.20447 0.0
C1150 C 0.28684 0.33053 0.12073 0.0
C1151 C 0.3077 0.32157 0.14185 0.0
C1152 C 0.26249 0.34714 0.12896 0.0
C1153 C 0.25848 0.35494 0.1585 0.0
C1154 C 0.28118 0.34886 0.17897 0.0
C1155 C 0.30574 0.33227 0.17065 0.0
H1156 H 0.37349 0.64821 0.7694 0.0
H1157 H 0.34236 0.62206 0.85519 0.0
H1158 H 0.32409 0.6383 0.74894 0.0
H1159 H 0.29325 0.61132 0.83453 0.0
H1160 H 0.20933 0.58879 0.77334 0.0
H1161 H 0.26133 0.58246 0.78843 0.0
H1162 H 0.27855 0.67354 0.77136 0.0
H1163 H 0.22669 0.6802 0.75717 0.0
C1164 C 0.35666 0.63859 0.78348 0.0
C1165 C 0.36165 0.63587 0.81384 0.0
C1166 C 0.32833 0.63328 0.77185 0.0
C1167 C 0.30496 0.62446 0.79034 0.0
C1168 C 0.31099 0.61804 0.81989 0.0
C1169 C 0.33912 0.62396 0.83164 0.0
C1170 C 0.22422 0.60748 0.77303 0.0
C1171 C 0.21391 0.63509 0.76436 0.0
C1172 C 0.25389 0.60377 0.78146 0.0
C1173 C 0.27385 0.62739 0.78046 0.0
C1174 C 0.26359 0.6549 0.77179 0.0
C1175 C 0.23386 0.65879 0.76408 0.0
H1176 H 0.28326 0.31369 0.86139 0.0
H1177 H 0.25571 0.25215 0.9283 0.0
H1178 H 0.31958 0.27918 0.84372 0.0
H1179 H 0.29263 0.21772 0.91078 0.0
H1180 H 0.3929 0.22072 0.82372 0.0
H1181 H 0.36523 0.25379 0.85511 0.0
H1182 H 0.29685 0.18795 0.86611 0.0
H1183 H 0.32499 0.15458 0.83524 0.0
C1184 C 0.28523 0.29299 0.87264 0.0
C1185 C 0.26627 0.28556 0.89598 0.0
C1186 C 0.30629 0.27326 0.86267 0.0
C1187 C 0.30893 0.24569 0.87586 0.0
C1188 C 0.29086 0.23869 0.90001 0.0
C1189 C 0.26977 0.25847 0.91004 0.0
C1190 C 0.37221 0.21315 0.83332 0.0
C1191 C 0.36069 0.18537 0.82661 0.0
C1192 C 0.35637 0.23208 0.85122 0.0
C1193 C 0.3286 0.22368 0.86252 0.0
C1194 C 0.31825 0.19502 0.85778 0.0
C1195 C 0.33428 0.17593 0.84004 0.0
H1196 H 0.62478 0.37525 0.78294 0.0
H1197 H 0.6718 0.35477 0.86326 0.0
H1198 H 0.67123 0.39235 0.76104 0.0
H1199 H 0.71798 0.37204 0.84146 0.0
H1200 H 0.79492 0.35771 0.77517 0.0
H1201 H 0.74881 0.3505 0.80239 0.0
H1202 H 0.71261 0.42804 0.76274 0.0
H1203 H 0.75837 0.43519 0.73533 0.0
C1204 C 0.64481 0.37521 0.7962 0.0
C1205 C 0.6447 0.36325 0.82463 0.0
C1206 C 0.67144 0.38494 0.78366 0.0
C1207 C 0.69832 0.38294 0.79938 0.0
C1208 C 0.69773 0.37317 0.8286 0.0
C1209 C 0.67121 0.36347 0.84111 0.0
C1210 C 0.77725 0.37335 0.77244 0.0
C1211 C 0.78029 0.39681 0.75282 0.0
C1212 C 0.75089 0.36934 0.78816 0.0
C1213 C 0.72708 0.38871 0.7846 0.0
C1214 C 0.73043 0.41259 0.76564 0.0
C1215 C 0.75674 0.41664 0.74999 0.0
H1216 H 0.75425 0.74626 0.91448 0.0
H1217 H 0.71948 0.682 0.85345 0.0
H1218 H 0.71954 0.78198 0.89536 0.0
H1219 H 0.6851 0.71793 0.83417 0.0
H1220 H 0.6833 0.84316 0.82048 0.0
H1221 H 0.71348 0.80929 0.84898 0.0
H1222 H 0.64144 0.74641 0.84777 0.0
H1223 H 0.61152 0.77995 0.81904 0.0
C1224 C 0.73915 0.73966 0.89707 0.0
C1225 C 0.7398 0.71124 0.88536 0.0
C1226 C 0.71935 0.76022 0.88609 0.0
C1227 C 0.69964 0.75279 0.86329 0.0
C1228 C 0.69977 0.72421 0.85206 0.0
C1229 C 0.71962 0.70365 0.86297 0.0
C1230 C 0.67372 0.82237 0.82688 0.0
C1231 C 0.6453 0.81398 0.81708 0.0
C1232 C 0.69097 0.80297 0.8432 0.0
C1233 C 0.67998 0.77498 0.85008 0.0
C1234 C 0.65075 0.76754 0.84214 0.0
C1235 C 0.6336 0.78681 0.8258 0.0
H1236 H 0.71515 0.66941 0.10426 0.0
H1237 H 0.67647 0.66764 0.19099 0.0
H1238 H 0.75966 0.64592 0.12313 0.0
H1239 H 0.72132 0.64446 0.21016 0.0
H1240 H 0.80617 0.60037 0.23674 0.0
H1241 H 0.75888 0.60427 0.21082 0.0
H1242 H 0.79667 0.67086 0.15476 0.0
H1243 H 0.84386 0.66709 0.18052 0.0
C1244 C 0.71583 0.66302 0.12722 0.0
C1245 C 0.69266 0.67056 0.14632 0.0
C1246 C 0.74136 0.64979 0.13803 0.0
C1247 C 0.74427 0.64403 0.16821 0.0
C1248 C 0.71971 0.64863 0.18676 0.0
C1249 C 0.69397 0.6618 0.17584 0.0
C1250 C 0.80462 0.61548 0.21851 0.0
C1251 C 0.82879 0.63375 0.21097 0.0
C1252 C 0.77744 0.61772 0.20376 0.0
C1253 C 0.77399 0.63794 0.18089 0.0
C1254 C 0.79869 0.65482 0.17211 0.0
C1255 C 0.82575 0.6528 0.18701 0.0
H1256 H 0.29651 0.85732 0.12835 0.0
H1257 H 0.38805 0.83102 0.13365 0.0
H1258 H 0.28232 0.8082 0.11283 0.0
H1259 H 0.37414 0.78207 0.11757 0.0
H1260 H 0.26325 0.71478 0.08943 0.0
H1261 H 0.28377 0.7636 0.08194 0.0
H1262 H 0.3481 0.74828 0.15075 0.0
H1263 H 0.32781 0.69958 0.15822 0.0
C1264 C 0.31383 0.84158 0.12429 0.0
C1265 C 0.34331 0.84784 0.13234 0.0
C1266 C 0.3057 0.81327 0.11569 0.0
C1267 C 0.32704 0.79101 0.11489 0.0
C1268 C 0.35711 0.79856 0.1187 0.0
C1269 C 0.36516 0.82673 0.12742 0.0
C1270 C 0.28211 0.7216 0.10267 0.0
C1271 C 0.29365 0.70327 0.12475 0.0
C1272 C 0.29381 0.74964 0.09833 0.0
C1273 C 0.31754 0.75987 0.11569 0.0
C1274 C 0.33009 0.74097 0.13663 0.0
C1275 C 0.31827 0.71305 0.14113 0.0
H1276 H 0.73682 0.29842 0.18289 0.0
H1277 H 0.71626 0.30989 0.09077 0.0
H1278 H 0.71723 0.24884 0.18087 0.0
H1279 H 0.69521 0.26001 0.08913 0.0
H1280 H 0.61942 0.20221 0.15404 0.0
H1281 H 0.64641 0.24098 0.1285 0.0
H1282 H 0.72902 0.19756 0.14654 0.0
H1283 H 0.70194 0.1583 0.17143 0.0
C1284 C 0.72798 0.2903 0.16222 0.0
C1285 C 0.72756 0.30802 0.13712 0.0
C1286 C 0.71723 0.26183 0.16095 0.0
C1287 C 0.70525 0.25063 0.13472 0.0
C1288 C 0.70484 0.26817 0.10942 0.0
C1289 C 0.71655 0.2966 0.11047 0.0
C1290 C 0.64314 0.20002 0.15081 0.0
C1291 C 0.65875 0.17764 0.16496 0.0
C1292 C 0.65856 0.22215 0.13614 0.0
C1293 C 0.6897 0.22229 0.13603 0.0
C1294 C 0.70495 0.19772 0.14634 0.0
C1295 C 0.68946 0.17526 0.16052 0.0
loop_
_geom_bond_atom_site_label_1
_geom_bond_atom_site_label_2
_geom_bond_distance
_geom_bond_site_symmetry_2
_ccdc_geom_bond_type
Co0 O1 2.216 . S
Co0 O2 2.091 . S
Co0 O4 2.004 . S
Co0 O10 2.021 . S
Co0 O12 2.137 . S
Co0 O13 2.244 . S
O1 Co0 2.216 . S
O1 C8 1.247 . S
O2 Co0 2.091 . S
O2 C8 1.261 . S
C3 O12 1.247 . S
C3 O13 1.272 . S
O4 Co0 2.004 . S
O4 C9 1.259 . S
Co5 O6 2.061 . S
Co5 O11 2.052 . S
Co5 O13 2.135 . S
O6 Co5 2.061 . S
O6 C9 1.235 . S
C7 O10 1.238 . S
C7 O11 1.241 . S
C8 O1 1.247 . S
C8 O2 1.261 . S
C9 O4 1.259 . S
C9 O6 1.235 . S
O10 Co0 2.021 . S
O10 C7 1.238 . S
O11 Co5 2.052 . S
O11 C7 1.241 . S
O12 Co0 2.137 . S
O12 C3 1.247 . S
O13 Co0 2.244 . S
O13 C3 1.272 . S
O13 Co5 2.135 . S
Co14 O15 2.216 . S
Co14 O16 2.091 . S
Co14 O18 2.004 . S
Co14 O24 2.021 . S
Co14 O26 2.137 . S
Co14 O27 2.244 . S
O15 Co14 2.216 . S
O15 C22 1.247 . S
O16 Co14 2.091 . S
O16 C22 1.261 . S
C17 O26 1.247 . S
C17 O27 1.272 . S
O18 Co14 2.004 . S
O18 C23 1.259 . S
Co19 O20 2.061 . S
Co19 O25 2.052 . S
Co19 O27 2.135 . S
O20 Co19 2.061 . S
O20 C23 1.235 . S
C21 O24 1.238 . S
C21 O25 1.241 . S
C22 O15 1.247 . S
C22 O16 1.261 . S
C23 O18 1.259 . S
C23 O20 1.235 . S
O24 Co14 2.021 . S
O24 C21 1.238 . S
O25 Co19 2.052 . S
O25 C21 1.241 . S
O26 Co14 2.137 . S
O26 C17 1.247 . S
O27 Co14 2.244 . S
O27 C17 1.272 . S
O27 Co19 2.135 . S
Co28 O29 2.216 . S
Co28 O30 2.091 . S
Co28 O32 2.004 . S
Co28 O38 2.021 . S
Co28 O40 2.137 . S
Co28 O41 2.244 . S
O29 Co28 2.216 . S
O29 C36 1.247 . S
O30 Co28 2.091 . S
O30 C36 1.261 . S
C31 O40 1.247 . S
C31 O41 1.272 . S
O32 Co28 2.004 . S
O32 C37 1.259 . S
Co33 O34 2.061 . S
Co33 O39 2.052 . S
Co33 O41 2.135 . S
O34 Co33 2.061 . S
O34 C37 1.235 . S
C35 O38 1.238 . S
C35 O39 1.241 . S
C36 O29 1.247 . S
C36 O30 1.261 . S
C37 O32 1.259 . S
C37 O34 1.235 . S
O38 Co28 2.021 . S
O38 C35 1.238 . S
O39 Co33 2.052 . S
O39 C35 1.241 . S
O40 Co28 2.137 . S
O40 C31 1.247 . S
O41 Co28 2.244 . S
O41 C31 1.272 . S
O41 Co33 2.135 . S
Co42 O43 2.216 . S
Co42 O44 2.091 . S
Co42 O46 2.004 . S
Co42 O52 2.021 . S
Co42 O54 2.137 . S
Co42 O55 2.244 . S
O43 Co42 2.216 . S
O43 C50 1.247 . S
O44 Co42 2.091 . S
O44 C50 1.261 . S
C45 O54 1.247 . S
C45 O55 1.272 . S
O46 Co42 2.004 . S
O46 C51 1.259 . S
Co47 O48 2.061 . S
Co47 O53 2.052 . S
Co47 O55 2.135 . S
O48 Co47 2.061 . S
O48 C51 1.235 . S
C49 O52 1.238 . S
C49 O53 1.241 . S
C50 O43 1.247 . S
C50 O44 1.261 . S
C51 O46 1.259 . S
C51 O48 1.235 . S
O52 Co42 2.021 . S
O52 C49 1.238 . S
O53 Co47 2.052 . S
O53 C49 1.241 . S
O54 Co42 2.137 . S
O54 C45 1.247 . S
O55 Co42 2.244 . S
O55 C45 1.272 . S
O55 Co47 2.135 . S
Co56 O57 2.216 . S
Co56 O58 2.091 . S
Co56 O60 2.004 . S
Co56 O66 2.021 . S
Co56 O68 2.137 . S
Co56 O69 2.244 . S
O57 Co56 2.216 . S
O57 C64 1.247 . S
O58 Co56 2.091 . S
O58 C64 1.261 . S
C59 O68 1.247 . S
C59 O69 1.272 . S
O60 Co56 2.004 . S
O60 C65 1.259 . S
Co61 O62 2.061 . S
Co61 O67 2.052 . S
Co61 O69 2.135 . S
O62 Co61 2.061 . S
O62 C65 1.235 . S
C63 O66 1.238 . S
C63 O67 1.241 . S
C64 O57 1.247 . S
C64 O58 1.261 . S
C65 O60 1.259 . S
C65 O62 1.235 . S
O66 Co56 2.021 . S
O66 C63 1.238 . S
O67 Co61 2.052 . S
O67 C63 1.241 . S
O68 Co56 2.137 . S
O68 C59 1.247 . S
O69 Co56 2.244 . S
O69 C59 1.272 . S
O69 Co61 2.135 . S
Co70 O71 2.216 . S
Co70 O72 2.091 . S
Co70 O74 2.004 . S
Co70 O80 2.021 . S
Co70 O82 2.137 . S
Co70 O83 2.244 . S
O71 Co70 2.216 . S
O71 C78 1.247 . S
O72 Co70 2.091 . S
O72 C78 1.261 . S
C73 O82 1.247 . S
C73 O83 1.272 . S
O74 Co70 2.004 . S
O74 C79 1.259 . S
Co75 O76 2.061 . S
Co75 O81 2.052 . S
Co75 O83 2.135 . S
O76 Co75 2.061 . S
O76 C79 1.235 . S
C77 O80 1.238 . S
C77 O81 1.241 . S
C78 O71 1.247 . S
C78 O72 1.261 . S
C79 O74 1.259 . S
C79 O76 1.235 . S
O80 Co70 2.021 . S
O80 C77 1.238 . S
O81 Co75 2.052 . S
O81 C77 1.241 . S
O82 Co70 2.137 . S
O82 C73 1.247 . S
O83 Co70 2.244 . S
O83 C73 1.272 . S
O83 Co75 2.135 . S
Co84 O85 2.216 . S
Co84 O86 2.091 . S
Co84 O88 2.004 . S
Co84 O94 2.021 . S
Co84 O96 2.137 . S
Co84 O97 2.244 . S
O85 Co84 2.216 . S
O85 C92 1.247 . S
O86 Co84 2.091 . S
O86 C92 1.261 . S
C87 O96 1.247 . S
C87 O97 1.272 . S
O88 Co84 2.004 . S
O88 C93 1.259 . S
Co89 O90 2.061 . S
Co89 O95 2.052 . S
Co89 O97 2.135 . S
O90 Co89 2.061 . S
O90 C93 1.235 . S
C91 O94 1.238 . S
C91 O95 1.241 . S
C92 O85 1.247 . S
C92 O86 1.261 . S
C93 O88 1.259 . S
C93 O90 1.235 . S
O94 Co84 2.021 . S
O94 C91 1.238 . S
O95 Co89 2.052 . S
O95 C91 1.241 . S
O96 Co84 2.137 . S
O96 C87 1.247 . S
O97 Co84 2.244 . S
O97 C87 1.272 . S
O97 Co89 2.135 . S
Co98 O99 2.216 . S
Co98 O100 2.091 . S
Co98 O102 2.004 . S
Co98 O108 2.021 . S
Co98 O110 2.137 . S
Co98 O111 2.244 . S
O99 Co98 2.216 . S
O99 C106 1.247 . S
O100 Co98 2.091 . S
O100 C106 1.261 . S
C101 O110 1.247 . S
C101 O111 1.272 . S
O102 Co98 2.004 . S
O102 C107 1.259 . S
Co103 O104 2.061 . S
Co103 O109 2.052 . S
Co103 O111 2.135 . S
O104 Co103 2.061 . S
O104 C107 1.235 . S
C105 O108 1.238 . S
C105 O109 1.241 . S
C106 O99 1.247 . S
C106 O100 1.261 . S
C107 O102 1.259 . S
C107 O104 1.235 . S
O108 Co98 2.021 . S
O108 C105 1.238 . S
O109 Co103 2.052 . S
O109 C105 1.241 . S
O110 Co98 2.137 . S
O110 C101 1.247 . S
O111 Co98 2.244 . S
O111 C101 1.272 . S
O111 Co103 2.135 . S
Co112 O113 2.216 . S
Co112 O114 2.091 . S
Co112 O116 2.004 . S
Co112 O122 2.021 . S
Co112 O124 2.137 . S
Co112 O125 2.244 . S
O113 Co112 2.216 . S
O113 C120 1.247 . S
O114 Co112 2.091 . S
O114 C120 1.261 . S
C115 O124 1.247 . S
C115 O125 1.272 . S
O116 Co112 2.004 . S
O116 C121 1.259 . S
Co117 O118 2.061 . S
Co117 O123 2.052 . S
Co117 O125 2.135 . S
O118 Co117 2.061 . S
O118 C121 1.235 . S
C119 O122 1.238 . S
C119 O123 1.241 . S
C120 O113 1.247 . S
C120 O114 1.261 . S
C121 O116 1.259 . S
C121 O118 1.235 . S
O122 Co112 2.021 . S
O122 C119 1.238 . S
O123 Co117 2.052 . S
O123 C119 1.241 . S
O124 Co112 2.137 . S
O124 C115 1.247 . S
O125 Co112 2.244 . S
O125 C115 1.272 . S
O125 Co117 2.135 . S
Co126 O127 2.216 . S
Co126 O128 2.091 . S
Co126 O130 2.004 . S
Co126 O136 2.021 . S
Co126 O138 2.137 . S
Co126 O139 2.244 . S
O127 Co126 2.216 . S
O127 C134 1.247 . S
O128 Co126 2.091 . S
O128 C134 1.261 . S
C129 O138 1.247 . S
C129 O139 1.272 . S
O130 Co126 2.004 . S
O130 C135 1.259 . S
Co131 O132 2.061 . S
Co131 O137 2.052 . S
Co131 O139 2.135 . S
O132 Co131 2.061 . S
O132 C135 1.235 . S
C133 O136 1.238 . S
C133 O137 1.241 . S
C134 O127 1.247 . S
C134 O128 1.261 . S
C135 O130 1.259 . S
C135 O132 1.235 . S
O136 Co126 2.021 . S
O136 C133 1.238 . S
O137 Co131 2.052 . S
O137 C133 1.241 . S
O138 Co126 2.137 . S
O138 C129 1.247 . S
O139 Co126 2.244 . S
O139 C129 1.272 . S
O139 Co131 2.135 . S
Co140 O141 2.216 . S
Co140 O142 2.091 . S
Co140 O144 2.004 . S
Co140 O150 2.021 . S
Co140 O152 2.137 . S
Co140 O153 2.244 . S
O141 Co140 2.216 . S
O141 C148 1.247 . S
O142 Co140 2.091 . S
O142 C148 1.261 . S
C143 O152 1.247 . S
C143 O153 1.272 . S
O144 Co140 2.004 . S
O144 C149 1.259 . S
Co145 O146 2.061 . S
Co145 O151 2.052 . S
Co145 O153 2.135 . S
O146 Co145 2.061 . S
O146 C149 1.235 . S
C147 O150 1.238 . S
C147 O151 1.241 . S
C148 O141 1.247 . S
C148 O142 1.261 . S
C149 O144 1.259 . S
C149 O146 1.235 . S
O150 Co140 2.021 . S
O150 C147 1.238 . S
O151 Co145 2.052 . S
O151 C147 1.241 . S
O152 Co140 2.137 . S
O152 C143 1.247 . S
O153 Co140 2.244 . S
O153 C143 1.272 . S
O153 Co145 2.135 . S
Co154 O155 2.216 . S
Co154 O156 2.091 . S
Co154 O158 2.004 . S
Co154 O164 2.021 . S
Co154 O166 2.137 . S
Co154 O167 2.244 . S
O155 Co154 2.216 . S
O155 C162 1.247 . S
O156 Co154 2.091 . S
O156 C162 1.261 . S
C157 O166 1.247 . S
C157 O167 1.272 . S
O158 Co154 2.004 . S
O158 C163 1.259 . S
Co159 O160 2.061 . S
Co159 O165 2.052 . S
Co159 O167 2.135 . S
O160 Co159 2.061 . S
O160 C163 1.235 . S
C161 O164 1.238 . S
C161 O165 1.241 . S
C162 O155 1.247 . S
C162 O156 1.261 . S
C163 O158 1.259 . S
C163 O160 1.235 . S
O164 Co154 2.021 . S
O164 C161 1.238 . S
O165 Co159 2.052 . S
O165 C161 1.241 . S
O166 Co154 2.137 . S
O166 C157 1.247 . S
O167 Co154 2.244 . S
O167 C157 1.272 . S
O167 Co159 2.135 . S
Co168 O169 2.216 . S
Co168 O170 2.091 . S
Co168 O172 2.004 . S
Co168 O178 2.021 . S
Co168 O180 2.137 . S
Co168 O181 2.244 . S
O169 Co168 2.216 . S
O169 C176 1.247 . S
O170 Co168 2.091 . S
O170 C176 1.261 . S
C171 O180 1.247 . S
C171 O181 1.272 . S
O172 Co168 2.004 . S
O172 C177 1.259 . S
Co173 O174 2.061 . S
Co173 O179 2.052 . S
Co173 O181 2.135 . S
O174 Co173 2.061 . S
O174 C177 1.235 . S
C175 O178 1.238 . S
C175 O179 1.241 . S
C176 O169 1.247 . S
C176 O170 1.261 . S
C177 O172 1.259 . S
C177 O174 1.235 . S
O178 Co168 2.021 . S
O178 C175 1.238 . S
O179 Co173 2.052 . S
O179 C175 1.241 . S
O180 Co168 2.137 . S
O180 C171 1.247 . S
O181 Co168 2.244 . S
O181 C171 1.272 . S
O181 Co173 2.135 . S
Co182 O183 2.216 . S
Co182 O184 2.091 . S
Co182 O186 2.004 . S
Co182 O192 2.021 . S
Co182 O194 2.137 . S
Co182 O195 2.244 . S
O183 Co182 2.216 . S
O183 C190 1.247 . S
O184 Co182 2.091 . S
O184 C190 1.261 . S
C185 O194 1.247 . S
C185 O195 1.272 . S
O186 Co182 2.004 . S
O186 C191 1.259 . S
Co187 O188 2.061 . S
Co187 O193 2.052 . S
Co187 O195 2.135 . S
O188 Co187 2.061 . S
O188 C191 1.235 . S
C189 O192 1.238 . S
C189 O193 1.241 . S
C190 O183 1.247 . S
C190 O184 1.261 . S
C191 O186 1.259 . S
C191 O188 1.235 . S
O192 Co182 2.021 . S
O192 C189 1.238 . S
O193 Co187 2.052 . S
O193 C189 1.241 . S
O194 Co182 2.137 . S
O194 C185 1.247 . S
O195 Co182 2.244 . S
O195 C185 1.272 . S
O195 Co187 2.135 . S
Co196 O197 2.216 . S
Co196 O198 2.091 . S
Co196 O200 2.004 . S
Co196 O206 2.021 . S
Co196 O208 2.137 . S
Co196 O209 2.244 . S
O197 Co196 2.216 . S
O197 C204 1.247 . S
O198 Co196 2.091 . S
O198 C204 1.261 . S
C199 O208 1.247 . S
C199 O209 1.272 . S
O200 Co196 2.004 . S
O200 C205 1.259 . S
Co201 O202 2.061 . S
Co201 O207 2.052 . S
Co201 O209 2.135 . S
O202 Co201 2.061 . S
O202 C205 1.235 . S
C203 O206 1.238 . S
C203 O207 1.241 . S
C204 O197 1.247 . S
C204 O198 1.261 . S
C205 O200 1.259 . S
C205 O202 1.235 . S
O206 Co196 2.021 . S
O206 C203 1.238 . S
O207 Co201 2.052 . S
O207 C203 1.241 . S
O208 Co196 2.137 . S
O208 C199 1.247 . S
O209 Co196 2.244 . S
O209 C199 1.272 . S
O209 Co201 2.135 . S
Co210 O211 2.216 . S
Co210 O212 2.091 . S
Co210 O214 2.004 . S
Co210 O220 2.021 . S
Co210 O222 2.137 . S
Co210 O223 2.244 . S
O211 Co210 2.216 . S
O211 C218 1.247 . S
O212 Co210 2.091 . S
O212 C218 1.261 . S
C213 O222 1.247 . S
C213 O223 1.272 . S
O214 Co210 2.004 . S
O214 C219 1.259 . S
Co215 O216 2.061 . S
Co215 O221 2.052 . S
Co215 O223 2.135 . S
O216 Co215 2.061 . S
O216 C219 1.235 . S
C217 O220 1.238 . S
C217 O221 1.241 . S
C218 O211 1.247 . S
C218 O212 1.261 . S
C219 O214 1.259 . S
C219 O216 1.235 . S
O220 Co210 2.021 . S
O220 C217 1.238 . S
O221 Co215 2.052 . S
O221 C217 1.241 . S
O222 Co210 2.137 . S
O222 C213 1.247 . S
O223 Co210 2.244 . S
O223 C213 1.272 . S
O223 Co215 2.135 . S
Co224 O225 2.216 . S
Co224 O226 2.091 . S
Co224 O228 2.004 . S
Co224 O234 2.021 . S
Co224 O236 2.137 . S
Co224 O237 2.244 . S
O225 Co224 2.216 . S
O225 C232 1.247 . S
O226 Co224 2.091 . S
O226 C232 1.261 . S
C227 O236 1.247 . S
C227 O237 1.272 . S
O228 Co224 2.004 . S
O228 C233 1.259 . S
Co229 O230 2.061 . S
Co229 O235 2.052 . S
Co229 O237 2.135 . S
O230 Co229 2.061 . S
O230 C233 1.235 . S
C231 O234 1.238 . S
C231 O235 1.241 . S
C232 O225 1.247 . S
C232 O226 1.261 . S
C233 O228 1.259 . S
C233 O230 1.235 . S
O234 Co224 2.021 . S
O234 C231 1.238 . S
O235 Co229 2.052 . S
O235 C231 1.241 . S
O236 Co224 2.137 . S
O236 C227 1.247 . S
O237 Co224 2.244 . S
O237 C227 1.272 . S
O237 Co229 2.135 . S
Co238 O239 2.216 . S
Co238 O240 2.091 . S
Co238 O242 2.004 . S
Co238 O248 2.021 . S
Co238 O250 2.137 . S
Co238 O251 2.244 . S
O239 Co238 2.216 . S
O239 C246 1.247 . S
O240 Co238 2.091 . S
O240 C246 1.261 . S
C241 O250 1.247 . S
C241 O251 1.272 . S
O242 Co238 2.004 . S
O242 C247 1.259 . S
Co243 O244 2.061 . S
Co243 O249 2.052 . S
Co243 O251 2.135 . S
O244 Co243 2.061 . S
O244 C247 1.235 . S
C245 O248 1.238 . S
C245 O249 1.241 . S
C246 O239 1.247 . S
C246 O240 1.261 . S
C247 O242 1.259 . S
C247 O244 1.235 . S
O248 Co238 2.021 . S
O248 C245 1.238 . S
O249 Co243 2.052 . S
O249 C245 1.241 . S
O250 Co238 2.137 . S
O250 C241 1.247 . S
O251 Co238 2.244 . S
O251 C241 1.272 . S
O251 Co243 2.135 . S
Co252 O253 2.216 . S
Co252 O254 2.091 . S
Co252 O256 2.004 . S
Co252 O262 2.021 . S
Co252 O264 2.137 . S
Co252 O265 2.244 . S
O253 Co252 2.216 . S
O253 C260 1.247 . S
O254 Co252 2.091 . S
O254 C260 1.261 . S
C255 O264 1.247 . S
C255 O265 1.272 . S
O256 Co252 2.004 . S
O256 C261 1.259 . S
Co257 O258 2.061 . S
Co257 O263 2.052 . S
Co257 O265 2.135 . S
O258 Co257 2.061 . S
O258 C261 1.235 . S
C259 O262 1.238 . S
C259 O263 1.241 . S
C260 O253 1.247 . S
C260 O254 1.261 . S
C261 O256 1.259 . S
C261 O258 1.235 . S
O262 Co252 2.021 . S
O262 C259 1.238 . S
O263 Co257 2.052 . S
O263 C259 1.241 . S
O264 Co252 2.137 . S
O264 C255 1.247 . S
O265 Co252 2.244 . S
O265 C255 1.272 . S
O265 Co257 2.135 . S
Co266 O267 2.216 . S
Co266 O268 2.091 . S
Co266 O270 2.004 . S
Co266 O276 2.021 . S
Co266 O278 2.137 . S
Co266 O279 2.244 . S
O267 Co266 2.216 . S
O267 C274 1.247 . S
O268 Co266 2.091 . S
O268 C274 1.261 . S
C269 O278 1.247 . S
C269 O279 1.272 . S
O270 Co266 2.004 . S
O270 C275 1.259 . S
Co271 O272 2.061 . S
Co271 O277 2.052 . S
Co271 O279 2.135 . S
O272 Co271 2.061 . S
O272 C275 1.235 . S
C273 O276 1.238 . S
C273 O277 1.241 . S
C274 O267 1.247 . S
C274 O268 1.261 . S
C275 O270 1.259 . S
C275 O272 1.235 . S
O276 Co266 2.021 . S
O276 C273 1.238 . S
O277 Co271 2.052 . S
O277 C273 1.241 . S
O278 Co266 2.137 . S
O278 C269 1.247 . S
O279 Co266 2.244 . S
O279 C269 1.272 . S
O279 Co271 2.135 . S
Co280 O281 2.216 . S
Co280 O282 2.091 . S
Co280 O284 2.004 . S
Co280 O290 2.021 . S
Co280 O292 2.137 . S
Co280 O293 2.244 . S
O281 Co280 2.216 . S
O281 C288 1.247 . S
O282 Co280 2.091 . S
O282 C288 1.261 . S
C283 O292 1.247 . S
C283 O293 1.272 . S
O284 Co280 2.004 . S
O284 C289 1.259 . S
Co285 O286 2.061 . S
Co285 O291 2.052 . S
Co285 O293 2.135 . S
O286 Co285 2.061 . S
O286 C289 1.235 . S
C287 O290 1.238 . S
C287 O291 1.241 . S
C288 O281 1.247 . S
C288 O282 1.261 . S
C289 O284 1.259 . S
C289 O286 1.235 . S
O290 Co280 2.021 . S
O290 C287 1.238 . S
O291 Co285 2.052 . S
O291 C287 1.241 . S
O292 Co280 2.137 . S
O292 C283 1.247 . S
O293 Co280 2.244 . S
O293 C283 1.272 . S
O293 Co285 2.135 . S
Co294 O295 2.216 . S
Co294 O296 2.091 . S
Co294 O298 2.004 . S
Co294 O304 2.021 . S
Co294 O306 2.137 . S
Co294 O307 2.244 . S
O295 Co294 2.216 . S
O295 C302 1.247 . S
O296 Co294 2.091 . S
O296 C302 1.261 . S
C297 O306 1.247 . S
C297 O307 1.272 . S
O298 Co294 2.004 . S
O298 C303 1.259 . S
Co299 O300 2.061 . S
Co299 O305 2.052 . S
Co299 O307 2.135 . S
O300 Co299 2.061 . S
O300 C303 1.235 . S
C301 O304 1.238 . S
C301 O305 1.241 . S
C302 O295 1.247 . S
C302 O296 1.261 . S
C303 O298 1.259 . S
C303 O300 1.235 . S
O304 Co294 2.021 . S
O304 C301 1.238 . S
O305 Co299 2.052 . S
O305 C301 1.241 . S
O306 Co294 2.137 . S
O306 C297 1.247 . S
O307 Co294 2.244 . S
O307 C297 1.272 . S
O307 Co299 2.135 . S
Co308 O309 2.216 . S
Co308 O310 2.091 . S
Co308 O312 2.004 . S
Co308 O318 2.021 . S
Co308 O320 2.137 . S
Co308 O321 2.244 . S
O309 Co308 2.216 . S
O309 C316 1.247 . S
O310 Co308 2.091 . S
O310 C316 1.261 . S
C311 O320 1.247 . S
C311 O321 1.272 . S
O312 Co308 2.004 . S
O312 C317 1.259 . S
Co313 O314 2.061 . S
Co313 O319 2.052 . S
Co313 O321 2.135 . S
O314 Co313 2.061 . S
O314 C317 1.235 . S
C315 O318 1.238 . S
C315 O319 1.241 . S
C316 O309 1.247 . S
C316 O310 1.261 . S
C317 O312 1.259 . S
C317 O314 1.235 . S
O318 Co308 2.021 . S
O318 C315 1.238 . S
O319 Co313 2.052 . S
O319 C315 1.241 . S
O320 Co308 2.137 . S
O320 C311 1.247 . S
O321 Co308 2.244 . S
O321 C311 1.272 . S
O321 Co313 2.135 . S
Co322 O323 2.216 . S
Co322 O324 2.091 . S
Co322 O326 2.004 . S
Co322 O332 2.021 . S
Co322 O334 2.137 . S
Co322 O335 2.244 . S
O323 Co322 2.216 . S
O323 C330 1.247 . S
O324 Co322 2.091 . S
O324 C330 1.261 . S
C325 O334 1.247 . S
C325 O335 1.272 . S
O326 Co322 2.004 . S
O326 C331 1.259 . S
Co327 O328 2.061 . S
Co327 O333 2.052 . S
Co327 O335 2.135 . S
O328 Co327 2.061 . S
O328 C331 1.235 . S
C329 O332 1.238 . S
C329 O333 1.241 . S
C330 O323 1.247 . S
C330 O324 1.261 . S
C331 O326 1.259 . S
C331 O328 1.235 . S
O332 Co322 2.021 . S
O332 C329 1.238 . S
O333 Co327 2.052 . S
O333 C329 1.241 . S
O334 Co322 2.137 . S
O334 C325 1.247 . S
O335 Co322 2.244 . S
O335 C325 1.272 . S
O335 Co327 2.135 . S
H336 C344 0.950 . S
H337 C349 0.950 . S
H338 C346 0.950 . S
H339 C348 0.950 . S
H340 C350 0.950 . S
H341 C352 0.950 . S
H342 C354 0.950 . S
H343 C355 0.950 . S
C344 H336 0.950 . S
C344 C345 1.386 . S
C344 C346 1.391 . S
C345 C344 1.386 . S
C345 C349 1.393 . S
C346 H338 0.950 . S
C346 C344 1.391 . S
C346 C347 1.400 . S
C347 C346 1.400 . S
C347 C348 1.398 . S
C347 C353 1.491 . S
C348 H339 0.950 . S
C348 C347 1.398 . S
C348 C349 1.391 . S
C349 H337 0.950 . S
C349 C345 1.393 . S
C349 C348 1.391 . S
C350 H340 0.950 . S
C350 C351 1.386 . S
C350 C352 1.391 . S
C351 C350 1.386 . S
C351 C355 1.393 . S
C352 H341 0.950 . S
C352 C350 1.391 . S
C352 C353 1.400 . S
C353 C347 1.491 . S
C353 C352 1.400 . S
C353 C354 1.398 . S
C354 H342 0.950 . S
C354 C353 1.398 . S
C354 C355 1.391 . S
C355 H343 0.950 . S
C355 C351 1.393 . S
C355 C354 1.391 . S
H356 C364 0.950 . S
H357 C369 0.950 . S
H358 C366 0.950 . S
H359 C368 0.950 . S
H360 C370 0.950 . S
H361 C372 0.950 . S
H362 C374 0.950 . S
H363 C375 0.950 . S
C364 H356 0.950 . S
C364 C365 1.386 . S
C364 C366 1.391 . S
C365 C364 1.386 . S
C365 C369 1.393 . S
C366 H358 0.950 . S
C366 C364 1.391 . S
C366 C367 1.400 . S
C367 C366 1.400 . S
C367 C368 1.398 . S
C367 C373 1.491 . S
C368 H359 0.950 . S
C368 C367 1.398 . S
C368 C369 1.391 . S
C369 H357 0.950 . S
C369 C365 1.393 . S
C369 C368 1.391 . S
C370 H360 0.950 . S
C370 C371 1.386 . S
C370 C372 1.391 . S
C371 C370 1.386 . S
C371 C375 1.393 . S
C372 H361 0.950 . S
C372 C370 1.391 . S
C372 C373 1.400 . S
C373 C367 1.491 . S
C373 C372 1.400 . S
C373 C374 1.398 . S
C374 H362 0.950 . S
C374 C373 1.398 . S
C374 C375 1.391 . S
C375 H363 0.950 . S
C375 C371 1.393 . S
C375 C374 1.391 . S
H376 C384 0.950 . S
H377 C389 0.950 . S
H378 C386 0.950 . S
H379 C388 0.950 . S
H380 C390 0.950 . S
H381 C392 0.950 . S
H382 C394 0.950 . S
H383 C395 0.950 . S
C384 H376 0.950 . S
C384 C385 1.386 . S
C384 C386 1.391 . S
C385 C384 1.386 . S
C385 C389 1.393 . S
C386 H378 0.950 . S
C386 C384 1.391 . S
C386 C387 1.400 . S
C387 C386 1.400 . S
C387 C388 1.398 . S
C387 C393 1.491 . S
C388 H379 0.950 . S
C388 C387 1.398 . S
C388 C389 1.391 . S
C389 H377 0.950 . S
C389 C385 1.393 . S
C389 C388 1.391 . S
C390 H380 0.950 . S
C390 C391 1.386 . S
C390 C392 1.391 . S
C391 C390 1.386 . S
C391 C395 1.393 . S
C392 H381 0.950 . S
C392 C390 1.391 . S
C392 C393 1.400 . S
C393 C387 1.491 . S
C393 C392 1.400 . S
C393 C394 1.398 . S
C394 H382 0.950 . S
C394 C393 1.398 . S
C394 C395 1.391 . S
C395 H383 0.950 . S
C395 C391 1.393 . S
C395 C394 1.391 . S
H396 C404 0.950 . S
H397 C409 0.950 . S
H398 C406 0.950 . S
H399 C408 0.950 . S
H400 C410 0.950 . S
H401 C412 0.950 . S
H402 C414 0.950 . S
H403 C415 0.950 . S
C404 H396 0.950 . S
C404 C405 1.386 . S
C404 C406 1.391 . S
C405 C404 1.386 . S
C405 C409 1.393 . S
C406 H398 0.950 . S
C406 C404 1.391 . S
C406 C407 1.400 . S
C407 C406 1.400 . S
C407 C408 1.398 . S
C407 C413 1.491 . S
C408 H399 0.950 . S
C408 C407 1.398 . S
C408 C409 1.391 . S
C409 H397 0.950 . S
C409 C405 1.393 . S
C409 C408 1.391 . S
C410 H400 0.950 . S
C410 C411 1.386 . S
C410 C412 1.391 . S
C411 C410 1.386 . S
C411 C415 1.393 . S
C412 H401 0.950 . S
C412 C410 1.391 . S
C412 C413 1.400 . S
C413 C407 1.491 . S
C413 C412 1.400 . S
C413 C414 1.398 . S
C414 H402 0.950 . S
C414 C413 1.398 . S
C414 C415 1.391 . S
C415 H403 0.950 . S
C415 C411 1.393 . S
C415 C414 1.391 . S
H416 C424 0.950 . S
H417 C429 0.950 . S
H418 C426 0.950 . S
H419 C428 0.950 . S
H420 C430 0.950 . S
H421 C432 0.950 . S
H422 C434 0.950 . S
H423 C435 0.950 . S
C424 H416 0.950 . S
C424 C425 1.386 . S
C424 C426 1.391 . S
C425 C424 1.386 . S
C425 C429 1.393 . S
C426 H418 0.950 . S
C426 C424 1.391 . S
C426 C427 1.400 . S
C427 C426 1.400 . S
C427 C428 1.398 . S
C427 C433 1.491 . S
C428 H419 0.950 . S
C428 C427 1.398 . S
C428 C429 1.391 . S
C429 H417 0.950 . S
C429 C425 1.393 . S
C429 C428 1.391 . S
C430 H420 0.950 . S
C430 C431 1.386 . S
C430 C432 1.391 . S
C431 C430 1.386 . S
C431 C435 1.393 . S
C432 H421 0.950 . S
C432 C430 1.391 . S
C432 C433 1.400 . S
C433 C427 1.491 . S
C433 C432 1.400 . S
C433 C434 1.398 . S
C434 H422 0.950 . S
C434 C433 1.398 . S
C434 C435 1.391 . S
C435 H423 0.950 . S
C435 C431 1.393 . S
C435 C434 1.391 . S
H436 C444 0.950 . S
H437 C449 0.950 . S
H438 C446 0.950 . S
H439 C448 0.950 . S
H440 C450 0.950 . S
H441 C452 0.950 . S
H442 C454 0.950 . S
H443 C455 0.950 . S
C444 H436 0.950 . S
C444 C445 1.386 . S
C444 C446 1.391 . S
C445 C444 1.386 . S
C445 C449 1.393 . S
C446 H438 0.950 . S
C446 C444 1.391 . S
C446 C447 1.400 . S
C447 C446 1.400 . S
C447 C448 1.398 . S
C447 C453 1.491 . S
C448 H439 0.950 . S
C448 C447 1.398 . S
C448 C449 1.391 . S
C449 H437 0.950 . S
C449 C445 1.393 . S
C449 C448 1.391 . S
C450 H440 0.950 . S
C450 C451 1.386 . S
C450 C452 1.391 . S
C451 C450 1.386 . S
C451 C455 1.393 . S
C452 H441 0.950 . S
C452 C450 1.391 . S
C452 C453 1.400 . S
C453 C447 1.491 . S
C453 C452 1.400 . S
C453 C454 1.398 . S
C454 H442 0.950 . S
C454 C453 1.398 . S
C454 C455 1.391 . S
C455 H443 0.950 . S
C455 C451 1.393 . S
C455 C454 1.391 . S
H456 C464 0.950 . S
H457 C469 0.950 . S
H458 C466 0.950 . S
H459 C468 0.950 . S
H460 C470 0.950 . S
H461 C472 0.950 . S
H462 C474 0.950 . S
H463 C475 0.950 . S
C464 H456 0.950 . S
C464 C465 1.386 . S
C464 C466 1.391 . S
C465 C464 1.386 . S
C465 C469 1.393 . S
C466 H458 0.950 . S
C466 C464 1.391 . S
C466 C467 1.400 . S
C467 C466 1.400 . S
C467 C468 1.398 . S
C467 C473 1.491 . S
C468 H459 0.950 . S
C468 C467 1.398 . S
C468 C469 1.391 . S
C469 H457 0.950 . S
C469 C465 1.393 . S
C469 C468 1.391 . S
C470 H460 0.950 . S
C470 C471 1.386 . S
C470 C472 1.391 . S
C471 C470 1.386 . S
C471 C475 1.393 . S
C472 H461 0.950 . S
C472 C470 1.391 . S
C472 C473 1.400 . S
C473 C467 1.491 . S
C473 C472 1.400 . S
C473 C474 1.398 . S
C474 H462 0.950 . S
C474 C473 1.398 . S
C474 C475 1.391 . S
C475 H463 0.950 . S
C475 C471 1.393 . S
C475 C474 1.391 . S
H476 C484 0.950 . S
H477 C489 0.950 . S
H478 C486 0.950 . S
H479 C488 0.950 . S
H480 C490 0.950 . S
H481 C492 0.950 . S
H482 C494 0.950 . S
H483 C495 0.950 . S
C484 H476 0.950 . S
C484 C485 1.386 . S
C484 C486 1.391 . S
C485 C484 1.386 . S
C485 C489 1.393 . S
C486 H478 0.950 . S
C486 C484 1.391 . S
C486 C487 1.400 . S
C487 C486 1.400 . S
C487 C488 1.398 . S
C487 C493 1.491 . S
C488 H479 0.950 . S
C488 C487 1.398 . S
C488 C489 1.391 . S
C489 H477 0.950 . S
C489 C485 1.393 . S
C489 C488 1.391 . S
C490 H480 0.950 . S
C490 C491 1.386 . S
C490 C492 1.391 . S
C491 C490 1.386 . S
C491 C495 1.393 . S
C492 H481 0.950 . S
C492 C490 1.391 . S
C492 C493 1.400 . S
C493 C487 1.491 . S
C493 C492 1.400 . S
C493 C494 1.398 . S
C494 H482 0.950 . S
C494 C493 1.398 . S
C494 C495 1.391 . S
C495 H483 0.950 . S
C495 C491 1.393 . S
C495 C494 1.391 . S
H496 C504 0.950 . S
H497 C509 0.950 . S
H498 C506 0.950 . S
H499 C508 0.950 . S
H500 C510 0.950 . S
H501 C512 0.950 . S
H502 C514 0.950 . S
H503 C515 0.950 . S
C504 H496 0.950 . S
C504 C505 1.386 . S
C504 C506 1.391 . S
C505 C504 1.386 . S
C505 C509 1.393 . S
C506 H498 0.950 . S
C506 C504 1.391 . S
C506 C507 1.400 . S
C507 C506 1.400 . S
C507 C508 1.398 . S
C507 C513 1.491 . S
C508 H499 0.950 . S
C508 C507 1.398 . S
C508 C509 1.391 . S
C509 H497 0.950 . S
C509 C505 1.393 . S
C509 C508 1.391 . S
C510 H500 0.950 . S
C510 C511 1.386 . S
C510 C512 1.391 . S
C511 C510 1.386 . S
C511 C515 1.393 . S
C512 H501 0.950 . S
C512 C510 1.391 . S
C512 C513 1.400 . S
C513 C507 1.491 . S
C513 C512 1.400 . S
C513 C514 1.398 . S
C514 H502 0.950 . S
C514 C513 1.398 . S
C514 C515 1.391 . S
C515 H503 0.950 . S
C515 C511 1.393 . S
C515 C514 1.391 . S
H516 C524 0.950 . S
H517 C529 0.950 . S
H518 C526 0.950 . S
H519 C528 0.950 . S
H520 C530 0.950 . S
H521 C532 0.950 . S
H522 C534 0.950 . S
H523 C535 0.950 . S
C524 H516 0.950 . S
C524 C525 1.386 . S
C524 C526 1.391 . S
C525 C524 1.386 . S
C525 C529 1.393 . S
C526 H518 0.950 . S
C526 C524 1.391 . S
C526 C527 1.400 . S
C527 C526 1.400 . S
C527 C528 1.398 . S
C527 C533 1.491 . S
C528 H519 0.950 . S
C528 C527 1.398 . S
C528 C529 1.391 . S
C529 H517 0.950 . S
C529 C525 1.393 . S
C529 C528 1.391 . S
C530 H520 0.950 . S
C530 C531 1.386 . S
C530 C532 1.391 . S
C531 C530 1.386 . S
C531 C535 1.393 . S
C532 H521 0.950 . S
C532 C530 1.391 . S
C532 C533 1.400 . S
C533 C527 1.491 . S
C533 C532 1.400 . S
C533 C534 1.398 . S
C534 H522 0.950 . S
C534 C533 1.398 . S
C534 C535 1.391 . S
C535 H523 0.950 . S
C535 C531 1.393 . S
C535 C534 1.391 . S
H536 C544 0.950 . S
H537 C549 0.950 . S
H538 C546 0.950 . S
H539 C548 0.950 . S
H540 C550 0.950 . S
H541 C552 0.950 . S
H542 C554 0.950 . S
H543 C555 0.950 . S
C544 H536 0.950 . S
C544 C545 1.386 . S
C544 C546 1.391 . S
C545 C544 1.386 . S
C545 C549 1.393 . S
C546 H538 0.950 . S
C546 C544 1.391 . S
C546 C547 1.400 . S
C547 C546 1.400 . S
C547 C548 1.398 . S
C547 C553 1.491 . S
C548 H539 0.950 . S
C548 C547 1.398 . S
C548 C549 1.391 . S
C549 H537 0.950 . S
C549 C545 1.393 . S
C549 C548 1.391 . S
C550 H540 0.950 . S
C550 C551 1.386 . S
C550 C552 1.391 . S
C551 C550 1.386 . S
C551 C555 1.393 . S
C552 H541 0.950 . S
C552 C550 1.391 . S
C552 C553 1.400 . S
C553 C547 1.491 . S
C553 C552 1.400 . S
C553 C554 1.398 . S
C554 H542 0.950 . S
C554 C553 1.398 . S
C554 C555 1.391 . S
C555 H543 0.950 . S
C555 C551 1.393 . S
C555 C554 1.391 . S
H556 C564 0.950 . S
H557 C569 0.950 . S
H558 C566 0.950 . S
H559 C568 0.950 . S
H560 C570 0.950 . S
H561 C572 0.950 . S
H562 C574 0.950 . S
H563 C575 0.950 . S
C564 H556 0.950 . S
C564 C565 1.386 . S
C564 C566 1.391 . S
C565 C564 1.386 . S
C565 C569 1.393 . S
C566 H558 0.950 . S
C566 C564 1.391 . S
C566 C567 1.400 . S
C567 C566 1.400 . S
C567 C568 1.398 . S
C567 C573 1.491 . S
C568 H559 0.950 . S
C568 C567 1.398 . S
C568 C569 1.391 . S
C569 H557 0.950 . S
C569 C565 1.393 . S
C569 C568 1.391 . S
C570 H560 0.950 . S
C570 C571 1.386 . S
C570 C572 1.391 . S
C571 C570 1.386 . S
C571 C575 1.393 . S
C572 H561 0.950 . S
C572 C570 1.391 . S
C572 C573 1.400 . S
C573 C567 1.491 . S
C573 C572 1.400 . S
C573 C574 1.398 . S
C574 H562 0.950 . S
C574 C573 1.398 . S
C574 C575 1.391 . S
C575 H563 0.950 . S
C575 C571 1.393 . S
C575 C574 1.391 . S
H576 C584 0.950 . S
H577 C589 0.950 . S
H578 C586 0.950 . S
H579 C588 0.950 . S
H580 C590 0.950 . S
H581 C592 0.950 . S
H582 C594 0.950 . S
H583 C595 0.950 . S
C584 H576 0.950 . S
C584 C585 1.386 1_545 S
C584 C586 1.391 . S
C585 C584 1.386 1_565 S
C585 C589 1.393 . S
C586 H578 0.950 . S
C586 C584 1.391 . S
C586 C587 1.400 . S
C587 C586 1.400 . S
C587 C588 1.398 1_545 S
C587 C593 1.491 . S
C588 H579 0.950 . S
C588 C587 1.398 1_565 S
C588 C589 1.391 . S
C589 H577 0.950 . S
C589 C585 1.393 . S
C589 C588 1.391 . S
C590 H580 0.950 . S
C590 C591 1.386 . S
C590 C592 1.391 . S
C591 C590 1.386 . S
C591 C595 1.393 . S
C592 H581 0.950 . S
C592 C590 1.391 . S
C592 C593 1.400 . S
C593 C587 1.491 . S
C593 C592 1.400 . S
C593 C594 1.398 . S
C594 H582 0.950 . S
C594 C593 1.398 . S
C594 C595 1.391 . S
C595 H583 0.950 . S
C595 C591 1.393 . S
C595 C594 1.391 . S
H596 C604 0.950 . S
H597 C609 0.950 . S
H598 C606 0.950 . S
H599 C608 0.950 . S
H600 C610 0.950 . S
H601 C612 0.950 . S
H602 C614 0.950 . S
H603 C615 0.950 . S
C604 H596 0.950 . S
C604 C605 1.386 . S
C604 C606 1.391 1_655 S
C605 C604 1.386 . S
C605 C609 1.393 1_655 S
C606 H598 0.950 . S
C606 C604 1.391 1_455 S
C606 C607 1.400 . S
C607 C606 1.400 . S
C607 C608 1.398 . S
C607 C613 1.491 . S
C608 H599 0.950 . S
C608 C607 1.398 . S
C608 C609 1.391 . S
C609 H597 0.950 . S
C609 C605 1.393 1_455 S
C609 C608 1.391 . S
C610 H600 0.950 . S
C610 C611 1.386 . S
C610 C612 1.391 . S
C611 C610 1.386 . S
C611 C615 1.393 . S
C612 H601 0.950 . S
C612 C610 1.391 . S
C612 C613 1.400 . S
C613 C607 1.491 . S
C613 C612 1.400 . S
C613 C614 1.398 . S
C614 H602 0.950 . S
C614 C613 1.398 . S
C614 C615 1.391 . S
C615 H603 0.950 . S
C615 C611 1.393 . S
C615 C614 1.391 . S
H616 C624 0.950 . S
H617 C629 0.950 . S
H618 C626 0.950 . S
H619 C628 0.950 . S
H620 C630 0.950 . S
H621 C632 0.950 . S
H622 C634 0.950 . S
H623 C635 0.950 . S
C624 H616 0.950 . S
C624 C625 1.386 1_565 S
C624 C626 1.391 . S
C625 C624 1.386 1_545 S
C625 C629 1.393 . S
C626 H618 0.950 . S
C626 C624 1.391 . S
C626 C627 1.400 . S
C627 C626 1.400 . S
C627 C628 1.398 1_565 S
C627 C633 1.491 . S
C628 H619 0.950 . S
C628 C627 1.398 1_545 S
C628 C629 1.391 . S
C629 H617 0.950 . S
C629 C625 1.393 . S
C629 C628 1.391 . S
C630 H620 0.950 . S
C630 C631 1.386 . S
C630 C632 1.391 . S
C631 C630 1.386 . S
C631 C635 1.393 . S
C632 H621 0.950 . S
C632 C630 1.391 . S
C632 C633 1.400 . S
C633 C627 1.491 . S
C633 C632 1.400 . S
C633 C634 1.398 . S
C634 H622 0.950 . S
C634 C633 1.398 . S
C634 C635 1.391 . S
C635 H623 0.950 . S
C635 C631 1.393 . S
C635 C634 1.391 . S
H636 C644 0.950 . S
H637 C649 0.950 . S
H638 C646 0.950 . S
H639 C648 0.950 . S
H640 C650 0.950 . S
H641 C652 0.950 . S
H642 C654 0.950 . S
H643 C655 0.950 . S
C644 H636 0.950 . S
C644 C645 1.386 . S
C644 C646 1.391 . S
C645 C644 1.386 . S
C645 C649 1.393 1_455 S
C646 H638 0.950 . S
C646 C644 1.391 . S
C646 C647 1.400 1_455 S
C647 C646 1.400 1_655 S
C647 C648 1.398 . S
C647 C653 1.491 . S
C648 H639 0.950 . S
C648 C647 1.398 . S
C648 C649 1.391 . S
C649 H637 0.950 . S
C649 C645 1.393 1_655 S
C649 C648 1.391 . S
C650 H640 0.950 . S
C650 C651 1.386 . S
C650 C652 1.391 . S
C651 C650 1.386 . S
C651 C655 1.393 . S
C652 H641 0.950 . S
C652 C650 1.391 . S
C652 C653 1.400 . S
C653 C647 1.491 . S
C653 C652 1.400 . S
C653 C654 1.398 . S
C654 H642 0.950 . S
C654 C653 1.398 . S
C654 C655 1.391 . S
C655 H643 0.950 . S
C655 C651 1.393 . S
C655 C654 1.391 . S
H656 C664 0.950 . S
H657 C669 0.950 . S
H658 C666 0.950 . S
H659 C668 0.950 . S
H660 C670 0.950 . S
H661 C672 0.948 1_565 S
H662 C674 0.950 . S
H663 C675 0.950 . S
C664 H656 0.950 . S
C664 C665 1.386 . S
C664 C666 1.391 . S
C665 C664 1.386 . S
C665 C669 1.393 . S
C666 H658 0.950 . S
C666 C664 1.391 . S
C666 C667 1.400 . S
C667 C666 1.400 . S
C667 C668 1.398 . S
C667 C673 1.491 . S
C668 H659 0.950 . S
C668 C667 1.398 . S
C668 C669 1.391 . S
C669 H657 0.950 . S
C669 C665 1.393 . S
C669 C668 1.391 . S
C670 H660 0.950 . S
C670 C671 1.386 . S
C670 C672 1.404 . S
C671 C670 1.386 . S
C671 C675 1.393 . S
C672 H661 0.948 1_545 S
C672 C670 1.404 . S
C672 C673 1.389 1_545 S
C673 C667 1.491 . S
C673 C672 1.389 1_565 S
C673 C674 1.398 . S
C674 H662 0.950 . S
C674 C673 1.398 . S
C674 C675 1.391 1_565 S
C675 H663 0.950 . S
C675 C671 1.393 . S
C675 C674 1.391 1_545 S
H676 C684 0.950 . S
H677 C689 0.950 . S
H678 C686 0.950 . S
H679 C688 0.950 . S
H680 C690 0.948 . S
H681 C692 0.950 . S
H682 C694 0.950 . S
H683 C695 0.950 . S
C684 H676 0.950 . S
C684 C685 1.386 . S
C684 C686 1.391 . S
C685 C684 1.386 . S
C685 C689 1.393 . S
C686 H678 0.950 . S
C686 C684 1.391 . S
C686 C687 1.400 . S
C687 C686 1.400 . S
C687 C688 1.398 . S
C687 C693 1.491 . S
C688 H679 0.950 . S
C688 C687 1.398 . S
C688 C689 1.391 . S
C689 H677 0.950 . S
C689 C685 1.393 . S
C689 C688 1.391 . S
C690 H680 0.948 . S
C690 C691 1.385 1_655 S
C690 C692 1.392 . S
C691 C690 1.385 1_455 S
C691 C695 1.393 . S
C692 H681 0.950 . S
C692 C690 1.392 . S
C692 C693 1.400 . S
C693 C687 1.491 . S
C693 C692 1.400 . S
C693 C694 1.398 1_655 S
C694 H682 0.950 . S
C694 C693 1.398 1_455 S
C694 C695 1.391 . S
C695 H683 0.950 . S
C695 C691 1.393 . S
C695 C694 1.391 . S
H696 C704 0.950 . S
H697 C709 0.950 . S
H698 C706 0.950 . S
H699 C708 0.950 . S
H700 C710 0.950 . S
H701 C712 0.950 . S
H702 C714 0.950 1_565 S
H703 C715 0.950 . S
C704 H696 0.950 . S
C704 C705 1.386 . S
C704 C706 1.391 . S
C705 C704 1.386 . S
C705 C709 1.393 1_565 S
C706 H698 0.950 . S
C706 C704 1.391 . S
C706 C707 1.400 1_565 S
C707 C706 1.400 1_545 S
C707 C708 1.398 . S
C707 C713 1.491 . S
C708 H699 0.950 . S
C708 C707 1.398 . S
C708 C709 1.391 . S
C709 H697 0.950 . S
C709 C705 1.393 1_545 S
C709 C708 1.391 . S
C710 H700 0.950 . S
C710 C711 1.386 . S
C710 C712 1.391 . S
C711 C710 1.386 . S
C711 C715 1.393 . S
C712 H701 0.950 . S
C712 C710 1.391 . S
C712 C713 1.400 . S
C713 C707 1.491 . S
C713 C712 1.400 . S
C713 C714 1.398 . S
C714 H702 0.950 1_545 S
C714 C713 1.398 . S
C714 C715 1.391 . S
C715 H703 0.950 . S
C715 C711 1.393 . S
C715 C714 1.391 . S
H716 C724 0.950 . S
H717 C729 0.950 . S
H718 C726 0.950 . S
H719 C728 0.950 . S
H720 C730 0.950 . S
H721 C732 0.950 . S
H722 C734 0.950 . S
H723 C735 0.950 . S
C724 H716 0.950 . S
C724 C725 1.386 . S
C724 C726 1.391 . S
C725 C724 1.386 . S
C725 C729 1.393 . S
C726 H718 0.950 . S
C726 C724 1.391 . S
C726 C727 1.400 . S
C727 C726 1.400 . S
C727 C728 1.398 . S
C727 C733 1.491 . S
C728 H719 0.950 . S
C728 C727 1.398 . S
C728 C729 1.391 . S
C729 H717 0.950 . S
C729 C725 1.393 . S
C729 C728 1.391 . S
C730 H720 0.950 . S
C730 C731 1.386 1_455 S
C730 C732 1.391 . S
C731 C730 1.386 1_655 S
C731 C735 1.393 . S
C732 H721 0.950 . S
C732 C730 1.391 . S
C732 C733 1.400 . S
C733 C727 1.491 . S
C733 C732 1.400 . S
C733 C734 1.398 1_455 S
C734 H722 0.950 . S
C734 C733 1.398 1_655 S
C734 C735 1.391 . S
C735 H723 0.950 . S
C735 C731 1.393 . S
C735 C734 1.391 . S
H736 C744 0.950 . S
H737 C749 0.950 . S
H738 C746 0.951 . S
H739 C748 0.950 . S
H740 C750 0.950 . S
H741 C752 0.950 . S
H742 C754 0.950 . S
H743 C755 0.950 . S
C744 H736 0.950 . S
C744 C745 1.386 . S
C744 C746 1.386 1_556 S
C745 C744 1.386 . S
C745 C749 1.393 . S
C746 H738 0.951 . S
C746 C744 1.386 1_554 S
C746 C747 1.404 . S
C747 C746 1.404 . S
C747 C748 1.398 . S
C747 C753 1.491 . S
C748 H739 0.950 . S
C748 C747 1.398 . S
C748 C749 1.391 1_554 S
C749 H737 0.950 . S
C749 C745 1.393 . S
C749 C748 1.391 1_556 S
C750 H740 0.950 . S
C750 C751 1.386 . S
C750 C752 1.391 . S
C751 C750 1.386 . S
C751 C755 1.393 . S
C752 H741 0.950 . S
C752 C750 1.391 . S
C752 C753 1.400 . S
C753 C747 1.491 . S
C753 C752 1.400 . S
C753 C754 1.398 . S
C754 H742 0.950 . S
C754 C753 1.398 . S
C754 C755 1.391 . S
C755 H743 0.950 . S
C755 C751 1.393 . S
C755 C754 1.391 . S
H756 C764 0.950 . S
H757 C769 0.950 . S
H758 C766 0.950 . S
H759 C768 0.950 . S
H760 C770 0.950 . S
H761 C772 0.950 . S
H762 C774 0.950 . S
H763 C775 0.950 . S
C764 H756 0.950 . S
C764 C765 1.386 1_556 S
C764 C766 1.391 . S
C765 C764 1.386 1_554 S
C765 C769 1.393 . S
C766 H758 0.950 . S
C766 C764 1.391 . S
C766 C767 1.400 . S
C767 C766 1.400 . S
C767 C768 1.398 1_556 S
C767 C773 1.491 . S
C768 H759 0.950 . S
C768 C767 1.398 1_554 S
C768 C769 1.391 . S
C769 H757 0.950 . S
C769 C765 1.393 . S
C769 C768 1.391 . S
C770 H760 0.950 . S
C770 C771 1.386 . S
C770 C772 1.391 . S
C771 C770 1.386 . S
C771 C775 1.393 . S
C772 H761 0.950 . S
C772 C770 1.391 . S
C772 C773 1.400 . S
C773 C767 1.491 . S
C773 C772 1.400 . S
C773 C774 1.398 . S
C774 H762 0.950 . S
C774 C773 1.398 . S
C774 C775 1.391 . S
C775 H763 0.950 . S
C775 C771 1.393 . S
C775 C774 1.391 . S
H776 C784 0.950 . S
H777 C789 0.950 . S
H778 C786 0.950 . S
H779 C788 0.950 . S
H780 C790 0.950 . S
H781 C792 0.950 . S
H782 C794 0.950 . S
H783 C795 0.950 . S
C784 H776 0.950 . S
C784 C785 1.386 . S
C784 C786 1.391 . S
C785 C784 1.386 . S
C785 C789 1.393 1_556 S
C786 H778 0.950 . S
C786 C784 1.391 . S
C786 C787 1.400 1_556 S
C787 C786 1.400 1_554 S
C787 C788 1.398 . S
C787 C793 1.491 . S
C788 H779 0.950 . S
C788 C787 1.398 . S
C788 C789 1.391 . S
C789 H777 0.950 . S
C789 C785 1.393 1_554 S
C789 C788 1.391 . S
C790 H780 0.950 . S
C790 C791 1.386 . S
C790 C792 1.391 . S
C791 C790 1.386 . S
C791 C795 1.393 . S
C792 H781 0.950 . S
C792 C790 1.391 . S
C792 C793 1.400 . S
C793 C787 1.491 . S
C793 C792 1.400 . S
C793 C794 1.398 . S
C794 H782 0.950 . S
C794 C793 1.398 . S
C794 C795 1.391 . S
C795 H783 0.950 . S
C795 C791 1.393 . S
C795 C794 1.391 . S
H796 C804 0.950 . S
H797 C809 0.950 . S
H798 C806 0.950 . S
H799 C808 0.950 . S
H800 C810 0.950 . S
H801 C812 0.950 . S
H802 C814 0.950 . S
H803 C815 0.950 . S
C804 H796 0.950 . S
C804 C805 1.386 . S
C804 C806 1.391 . S
C805 C804 1.386 . S
C805 C809 1.393 1_554 S
C806 H798 0.950 . S
C806 C804 1.391 . S
C806 C807 1.400 1_554 S
C807 C806 1.400 1_556 S
C807 C808 1.398 . S
C807 C813 1.491 . S
C808 H799 0.950 . S
C808 C807 1.398 . S
C808 C809 1.391 . S
C809 H797 0.950 . S
C809 C805 1.393 1_556 S
C809 C808 1.391 . S
C810 H800 0.950 . S
C810 C811 1.386 . S
C810 C812 1.391 . S
C811 C810 1.386 . S
C811 C815 1.393 . S
C812 H801 0.950 . S
C812 C810 1.391 . S
C812 C813 1.400 . S
C813 C807 1.491 . S
C813 C812 1.400 . S
C813 C814 1.398 . S
C814 H802 0.950 . S
C814 C813 1.398 . S
C814 C815 1.391 . S
C815 H803 0.950 . S
C815 C811 1.393 . S
C815 C814 1.391 . S
H816 C824 0.950 . S
H817 C829 0.950 . S
H818 C826 0.950 . S
H819 C828 0.950 . S
H820 C830 0.950 . S
H821 C832 0.950 . S
H822 C834 0.950 . S
H823 C835 0.950 . S
C824 H816 0.950 . S
C824 C825 1.386 . S
C824 C826 1.391 . S
C825 C824 1.386 . S
C825 C829 1.393 . S
C826 H818 0.950 . S
C826 C824 1.391 . S
C826 C827 1.400 . S
C827 C826 1.400 . S
C827 C828 1.398 . S
C827 C833 1.491 . S
C828 H819 0.950 . S
C828 C827 1.398 . S
C828 C829 1.391 . S
C829 H817 0.950 . S
C829 C825 1.393 . S
C829 C828 1.391 . S
C830 H820 0.950 . S
C830 C831 1.386 . S
C830 C832 1.391 . S
C831 C830 1.386 . S
C831 C835 1.393 . S
C832 H821 0.950 . S
C832 C830 1.391 . S
C832 C833 1.400 . S
C833 C827 1.491 . S
C833 C832 1.400 . S
C833 C834 1.398 . S
C834 H822 0.950 . S
C834 C833 1.398 . S
C834 C835 1.391 . S
C835 H823 0.950 . S
C835 C831 1.393 . S
C835 C834 1.391 . S
H836 C844 0.950 . S
H837 C849 0.950 . S
H838 C846 0.950 . S
H839 C848 0.950 . S
H840 C850 0.950 . S
H841 C852 0.950 . S
H842 C854 0.950 . S
H843 C855 0.950 . S
C844 H836 0.950 . S
C844 C845 1.386 . S
C844 C846 1.391 . S
C845 C844 1.386 . S
C845 C849 1.393 . S
C846 H838 0.950 . S
C846 C844 1.391 . S
C846 C847 1.400 . S
C847 C846 1.400 . S
C847 C848 1.398 . S
C847 C853 1.491 . S
C848 H839 0.950 . S
C848 C847 1.398 . S
C848 C849 1.391 . S
C849 H837 0.950 . S
C849 C845 1.393 . S
C849 C848 1.391 . S
C850 H840 0.950 . S
C850 C851 1.386 . S
C850 C852 1.391 . S
C851 C850 1.386 . S
C851 C855 1.393 . S
C852 H841 0.950 . S
C852 C850 1.391 . S
C852 C853 1.400 . S
C853 C847 1.491 . S
C853 C852 1.400 . S
C853 C854 1.398 . S
C854 H842 0.950 . S
C854 C853 1.398 . S
C854 C855 1.391 . S
C855 H843 0.950 . S
C855 C851 1.393 . S
C855 C854 1.391 . S
H856 C864 0.950 . S
H857 C869 0.950 . S
H858 C866 0.950 . S
H859 C868 0.950 . S
H860 C870 0.950 . S
H861 C872 0.950 . S
H862 C874 0.950 . S
H863 C875 0.950 . S
C864 H856 0.950 . S
C864 C865 1.386 . S
C864 C866 1.391 . S
C865 C864 1.386 . S
C865 C869 1.393 . S
C866 H858 0.950 . S
C866 C864 1.391 . S
C866 C867 1.400 . S
C867 C866 1.400 . S
C867 C868 1.398 . S
C867 C873 1.491 . S
C868 H859 0.950 . S
C868 C867 1.398 . S
C868 C869 1.391 . S
C869 H857 0.950 . S
C869 C865 1.393 . S
C869 C868 1.391 . S
C870 H860 0.950 . S
C870 C871 1.386 . S
C870 C872 1.391 . S
C871 C870 1.386 . S
C871 C875 1.393 . S
C872 H861 0.950 . S
C872 C870 1.391 . S
C872 C873 1.400 . S
C873 C867 1.491 . S
C873 C872 1.400 . S
C873 C874 1.398 . S
C874 H862 0.950 . S
C874 C873 1.398 . S
C874 C875 1.391 . S
C875 H863 0.950 . S
C875 C871 1.393 . S
C875 C874 1.391 . S
H876 C884 0.950 . S
H877 C889 0.950 . S
H878 C886 0.950 . S
H879 C888 0.950 . S
H880 C890 0.950 . S
H881 C892 0.950 . S
H882 C894 0.950 . S
H883 C895 0.950 . S
C884 H876 0.950 . S
C884 C885 1.386 . S
C884 C886 1.391 . S
C885 C884 1.386 . S
C885 C889 1.393 . S
C886 H878 0.950 . S
C886 C884 1.391 . S
C886 C887 1.400 . S
C887 C886 1.400 . S
C887 C888 1.398 . S
C887 C893 1.491 . S
C888 H879 0.950 . S
C888 C887 1.398 . S
C888 C889 1.391 . S
C889 H877 0.950 . S
C889 C885 1.393 . S
C889 C888 1.391 . S
C890 H880 0.950 . S
C890 C891 1.386 . S
C890 C892 1.391 . S
C891 C890 1.386 . S
C891 C895 1.393 . S
C892 H881 0.950 . S
C892 C890 1.391 . S
C892 C893 1.400 . S
C893 C887 1.491 . S
C893 C892 1.400 . S
C893 C894 1.398 . S
C894 H882 0.950 . S
C894 C893 1.398 . S
C894 C895 1.391 . S
C895 H883 0.950 . S
C895 C891 1.393 . S
C895 C894 1.391 . S
H896 C904 0.950 . S
H897 C909 0.950 . S
H898 C906 0.950 . S
H899 C908 0.950 . S
H900 C910 0.950 . S
H901 C912 0.950 . S
H902 C914 0.950 . S
H903 C915 0.950 . S
C904 H896 0.950 . S
C904 C905 1.386 . S
C904 C906 1.391 . S
C905 C904 1.386 . S
C905 C909 1.393 . S
C906 H898 0.950 . S
C906 C904 1.391 . S
C906 C907 1.400 . S
C907 C906 1.400 . S
C907 C908 1.398 . S
C907 C913 1.491 . S
C908 H899 0.950 . S
C908 C907 1.398 . S
C908 C909 1.391 . S
C909 H897 0.950 . S
C909 C905 1.393 . S
C909 C908 1.391 . S
C910 H900 0.950 . S
C910 C911 1.386 . S
C910 C912 1.391 . S
C911 C910 1.386 . S
C911 C915 1.393 . S
C912 H901 0.950 . S
C912 C910 1.391 . S
C912 C913 1.400 . S
C913 C907 1.491 . S
C913 C912 1.400 . S
C913 C914 1.398 . S
C914 H902 0.950 . S
C914 C913 1.398 . S
C914 C915 1.391 . S
C915 H903 0.950 . S
C915 C911 1.393 . S
C915 C914 1.391 . S
H916 C924 0.950 . S
H917 C929 0.950 . S
H918 C926 0.950 . S
H919 C928 0.950 . S
H920 C930 0.950 . S
H921 C932 0.950 . S
H922 C934 0.950 . S
H923 C935 0.950 . S
C924 H916 0.950 . S
C924 C925 1.386 . S
C924 C926 1.391 . S
C925 C924 1.386 . S
C925 C929 1.393 . S
C926 H918 0.950 . S
C926 C924 1.391 . S
C926 C927 1.400 . S
C927 C926 1.400 . S
C927 C928 1.398 . S
C927 C933 1.491 . S
C928 H919 0.950 . S
C928 C927 1.398 . S
C928 C929 1.391 . S
C929 H917 0.950 . S
C929 C925 1.393 . S
C929 C928 1.391 . S
C930 H920 0.950 . S
C930 C931 1.386 . S
C930 C932 1.391 . S
C931 C930 1.386 . S
C931 C935 1.393 . S
C932 H921 0.950 . S
C932 C930 1.391 . S
C932 C933 1.400 . S
C933 C927 1.491 . S
C933 C932 1.400 . S
C933 C934 1.398 . S
C934 H922 0.950 . S
C934 C933 1.398 . S
C934 C935 1.391 . S
C935 H923 0.950 . S
C935 C931 1.393 . S
C935 C934 1.391 . S
H936 C944 0.950 . S
H937 C949 0.950 . S
H938 C946 0.950 . S
H939 C948 0.950 . S
H940 C950 0.950 . S
H941 C952 0.950 . S
H942 C954 0.950 . S
H943 C955 0.950 . S
C944 H936 0.950 . S
C944 C945 1.386 . S
C944 C946 1.391 . S
C945 C944 1.386 . S
C945 C949 1.393 . S
C946 H938 0.950 . S
C946 C944 1.391 . S
C946 C947 1.400 . S
C947 C946 1.400 . S
C947 C948 1.398 . S
C947 C953 1.491 . S
C948 H939 0.950 . S
C948 C947 1.398 . S
C948 C949 1.391 . S
C949 H937 0.950 . S
C949 C945 1.393 . S
C949 C948 1.391 . S
C950 H940 0.950 . S
C950 C951 1.386 . S
C950 C952 1.391 . S
C951 C950 1.386 . S
C951 C955 1.393 . S
C952 H941 0.950 . S
C952 C950 1.391 . S
C952 C953 1.400 . S
C953 C947 1.491 . S
C953 C952 1.400 . S
C953 C954 1.398 . S
C954 H942 0.950 . S
C954 C953 1.398 . S
C954 C955 1.391 . S
C955 H943 0.950 . S
C955 C951 1.393 . S
C955 C954 1.391 . S
H956 C964 0.950 . S
H957 C969 0.950 . S
H958 C966 0.950 . S
H959 C968 0.950 . S
H960 C970 0.950 . S
H961 C972 0.950 . S
H962 C974 0.950 . S
H963 C975 0.950 . S
C964 H956 0.950 . S
C964 C965 1.386 . S
C964 C966 1.391 . S
C965 C964 1.386 . S
C965 C969 1.393 . S
C966 H958 0.950 . S
C966 C964 1.391 . S
C966 C967 1.400 . S
C967 C966 1.400 . S
C967 C968 1.398 . S
C967 C973 1.491 . S
C968 H959 0.950 . S
C968 C967 1.398 . S
C968 C969 1.391 . S
C969 H957 0.950 . S
C969 C965 1.393 . S
C969 C968 1.391 . S
C970 H960 0.950 . S
C970 C971 1.386 . S
C970 C972 1.391 . S
C971 C970 1.386 . S
C971 C975 1.393 . S
C972 H961 0.950 . S
C972 C970 1.391 . S
C972 C973 1.400 . S
C973 C967 1.491 . S
C973 C972 1.400 . S
C973 C974 1.398 . S
C974 H962 0.950 . S
C974 C973 1.398 . S
C974 C975 1.391 . S
C975 H963 0.950 . S
C975 C971 1.393 . S
C975 C974 1.391 . S
H976 C984 0.950 . S
H977 C989 0.950 . S
H978 C986 0.950 . S
H979 C988 0.950 . S
H980 C990 0.950 . S
H981 C992 0.950 . S
H982 C994 0.950 . S
H983 C995 0.950 . S
C984 H976 0.950 . S
C984 C985 1.386 . S
C984 C986 1.391 . S
C985 C984 1.386 . S
C985 C989 1.393 . S
C986 H978 0.950 . S
C986 C984 1.391 . S
C986 C987 1.400 . S
C987 C986 1.400 . S
C987 C988 1.398 . S
C987 C993 1.491 . S
C988 H979 0.950 . S
C988 C987 1.398 . S
C988 C989 1.391 . S
C989 H977 0.950 . S
C989 C985 1.393 . S
C989 C988 1.391 . S
C990 H980 0.950 . S
C990 C991 1.386 . S
C990 C992 1.391 . S
C991 C990 1.386 . S
C991 C995 1.393 . S
C992 H981 0.950 . S
C992 C990 1.391 . S
C992 C993 1.400 . S
C993 C987 1.491 . S
C993 C992 1.400 . S
C993 C994 1.398 . S
C994 H982 0.950 . S
C994 C993 1.398 . S
C994 C995 1.391 . S
C995 H983 0.950 . S
C995 C991 1.393 . S
C995 C994 1.391 . S
H996 C1004 0.950 . S
H997 C1009 0.950 . S
H998 C1006 0.950 . S
H999 C1008 0.950 . S
H1000 C1010 0.950 . S
H1001 C1012 0.950 . S
H1002 C1014 0.950 . S
H1003 C1015 0.950 . S
C1004 H996 0.950 . S
C1004 C1005 1.386 . S
C1004 C1006 1.391 . S
C1005 C1004 1.386 . S
C1005 C1009 1.393 . S
C1006 H998 0.950 . S
C1006 C1004 1.391 . S
C1006 C1007 1.400 . S
C1007 C1006 1.400 . S
C1007 C1008 1.398 . S
C1007 C1013 1.491 . S
C1008 H999 0.950 . S
C1008 C1007 1.398 . S
C1008 C1009 1.391 . S
C1009 H997 0.950 . S
C1009 C1005 1.393 . S
C1009 C1008 1.391 . S
C1010 H1000 0.950 . S
C1010 C1011 1.386 . S
C1010 C1012 1.391 . S
C1011 C1010 1.386 . S
C1011 C1015 1.393 . S
C1012 H1001 0.950 . S
C1012 C1010 1.391 . S
C1012 C1013 1.400 . S
C1013 C1007 1.491 . S
C1013 C1012 1.400 . S
C1013 C1014 1.398 . S
C1014 H1002 0.950 . S
C1014 C1013 1.398 . S
C1014 C1015 1.391 . S
C1015 H1003 0.950 . S
C1015 C1011 1.393 . S
C1015 C1014 1.391 . S
H1016 C1024 0.950 . S
H1017 C1029 0.950 . S
H1018 C1026 0.950 . S
H1019 C1028 0.950 . S
H1020 C1030 0.950 . S
H1021 C1032 0.950 . S
H1022 C1034 0.950 . S
H1023 C1035 0.950 . S
C1024 H1016 0.950 . S
C1024 C1025 1.386 . S
C1024 C1026 1.391 . S
C1025 C1024 1.386 . S
C1025 C1029 1.393 . S
C1026 H1018 0.950 . S
C1026 C1024 1.391 . S
C1026 C1027 1.400 . S
C1027 C1026 1.400 . S
C1027 C1028 1.398 . S
C1027 C1033 1.491 . S
C1028 H1019 0.950 . S
C1028 C1027 1.398 . S
C1028 C1029 1.391 . S
C1029 H1017 0.950 . S
C1029 C1025 1.393 . S
C1029 C1028 1.391 . S
C1030 H1020 0.950 . S
C1030 C1031 1.386 . S
C1030 C1032 1.391 . S
C1031 C1030 1.386 . S
C1031 C1035 1.393 . S
C1032 H1021 0.950 . S
C1032 C1030 1.391 . S
C1032 C1033 1.400 . S
C1033 C1027 1.491 . S
C1033 C1032 1.400 . S
C1033 C1034 1.398 . S
C1034 H1022 0.950 . S
C1034 C1033 1.398 . S
C1034 C1035 1.391 . S
C1035 H1023 0.950 . S
C1035 C1031 1.393 . S
C1035 C1034 1.391 . S
H1036 C1044 0.950 . S
H1037 C1049 0.950 . S
H1038 C1046 0.950 . S
H1039 C1048 0.950 . S
H1040 C1050 0.950 . S
H1041 C1052 0.950 . S
H1042 C1054 0.950 . S
H1043 C1055 0.950 . S
C1044 H1036 0.950 . S
C1044 C1045 1.386 . S
C1044 C1046 1.391 . S
C1045 C1044 1.386 . S
C1045 C1049 1.393 . S
C1046 H1038 0.950 . S
C1046 C1044 1.391 . S
C1046 C1047 1.400 . S
C1047 C1046 1.400 . S
C1047 C1048 1.398 . S
C1047 C1053 1.491 . S
C1048 H1039 0.950 . S
C1048 C1047 1.398 . S
C1048 C1049 1.391 . S
C1049 H1037 0.950 . S
C1049 C1045 1.393 . S
C1049 C1048 1.391 . S
C1050 H1040 0.950 . S
C1050 C1051 1.386 . S
C1050 C1052 1.391 . S
C1051 C1050 1.386 . S
C1051 C1055 1.393 . S
C1052 H1041 0.950 . S
C1052 C1050 1.391 . S
C1052 C1053 1.400 . S
C1053 C1047 1.491 . S
C1053 C1052 1.400 . S
C1053 C1054 1.398 . S
C1054 H1042 0.950 . S
C1054 C1053 1.398 . S
C1054 C1055 1.391 . S
C1055 H1043 0.950 . S
C1055 C1051 1.393 . S
C1055 C1054 1.391 . S
H1056 C1064 0.950 . S
H1057 C1069 0.950 . S
H1058 C1066 0.950 . S
H1059 C1068 0.950 . S
H1060 C1070 0.950 . S
H1061 C1072 0.950 . S
H1062 C1074 0.950 . S
H1063 C1075 0.950 . S
C1064 H1056 0.950 . S
C1064 C1065 1.386 . S
C1064 C1066 1.391 . S
C1065 C1064 1.386 . S
C1065 C1069 1.393 . S
C1066 H1058 0.950 . S
C1066 C1064 1.391 . S
C1066 C1067 1.400 . S
C1067 C1066 1.400 . S
C1067 C1068 1.398 . S
C1067 C1073 1.491 . S
C1068 H1059 0.950 . S
C1068 C1067 1.398 . S
C1068 C1069 1.391 . S
C1069 H1057 0.950 . S
C1069 C1065 1.393 . S
C1069 C1068 1.391 . S
C1070 H1060 0.950 . S
C1070 C1071 1.386 . S
C1070 C1072 1.391 . S
C1071 C1070 1.386 . S
C1071 C1075 1.393 . S
C1072 H1061 0.950 . S
C1072 C1070 1.391 . S
C1072 C1073 1.400 . S
C1073 C1067 1.491 . S
C1073 C1072 1.400 . S
C1073 C1074 1.398 . S
C1074 H1062 0.950 . S
C1074 C1073 1.398 . S
C1074 C1075 1.391 . S
C1075 H1063 0.950 . S
C1075 C1071 1.393 . S
C1075 C1074 1.391 . S
H1076 C1084 0.950 . S
H1077 C1089 0.950 . S
H1078 C1086 0.950 . S
H1079 C1088 0.950 . S
H1080 C1090 0.950 . S
H1081 C1092 0.950 . S
H1082 C1094 0.950 . S
H1083 C1095 0.950 . S
C1084 H1076 0.950 . S
C1084 C1085 1.386 . S
C1084 C1086 1.391 . S
C1085 C1084 1.386 . S
C1085 C1089 1.393 . S
C1086 H1078 0.950 . S
C1086 C1084 1.391 . S
C1086 C1087 1.400 . S
C1087 C1086 1.400 . S
C1087 C1088 1.398 . S
C1087 C1093 1.491 . S
C1088 H1079 0.950 . S
C1088 C1087 1.398 . S
C1088 C1089 1.391 . S
C1089 H1077 0.950 . S
C1089 C1085 1.393 . S
C1089 C1088 1.391 . S
C1090 H1080 0.950 . S
C1090 C1091 1.386 . S
C1090 C1092 1.391 . S
C1091 C1090 1.386 . S
C1091 C1095 1.393 . S
C1092 H1081 0.950 . S
C1092 C1090 1.391 . S
C1092 C1093 1.400 . S
C1093 C1087 1.491 . S
C1093 C1092 1.400 . S
C1093 C1094 1.398 . S
C1094 H1082 0.950 . S
C1094 C1093 1.398 . S
C1094 C1095 1.391 . S
C1095 H1083 0.950 . S
C1095 C1091 1.393 . S
C1095 C1094 1.391 . S
H1096 C1104 0.950 . S
H1097 C1109 0.950 . S
H1098 C1106 0.950 . S
H1099 C1108 0.950 . S
H1100 C1110 0.950 . S
H1101 C1112 0.950 . S
H1102 C1114 0.950 . S
H1103 C1115 0.950 . S
C1104 H1096 0.950 . S
C1104 C1105 1.386 . S
C1104 C1106 1.391 . S
C1105 C1104 1.386 . S
C1105 C1109 1.393 . S
C1106 H1098 0.950 . S
C1106 C1104 1.391 . S
C1106 C1107 1.400 . S
C1107 C1106 1.400 . S
C1107 C1108 1.398 . S
C1107 C1113 1.491 . S
C1108 H1099 0.950 . S
C1108 C1107 1.398 . S
C1108 C1109 1.391 . S
C1109 H1097 0.950 . S
C1109 C1105 1.393 . S
C1109 C1108 1.391 . S
C1110 H1100 0.950 . S
C1110 C1111 1.386 . S
C1110 C1112 1.391 . S
C1111 C1110 1.386 . S
C1111 C1115 1.393 . S
C1112 H1101 0.950 . S
C1112 C1110 1.391 . S
C1112 C1113 1.400 . S
C1113 C1107 1.491 . S
C1113 C1112 1.400 . S
C1113 C1114 1.398 . S
C1114 H1102 0.950 . S
C1114 C1113 1.398 . S
C1114 C1115 1.391 . S
C1115 H1103 0.950 . S
C1115 C1111 1.393 . S
C1115 C1114 1.391 . S
H1116 C1124 0.950 . S
H1117 C1129 0.950 . S
H1118 C1126 0.950 . S
H1119 C1128 0.950 . S
H1120 C1130 0.950 . S
H1121 C1132 0.950 . S
H1122 C1134 0.950 . S
H1123 C1135 0.950 . S
C1124 H1116 0.950 . S
C1124 C1125 1.386 . S
C1124 C1126 1.391 . S
C1125 C1124 1.386 . S
C1125 C1129 1.393 . S
C1126 H1118 0.950 . S
C1126 C1124 1.391 . S
C1126 C1127 1.400 . S
C1127 C1126 1.400 . S
C1127 C1128 1.398 . S
C1127 C1133 1.491 . S
C1128 H1119 0.950 . S
C1128 C1127 1.398 . S
C1128 C1129 1.391 . S
C1129 H1117 0.950 . S
C1129 C1125 1.393 . S
C1129 C1128 1.391 . S
C1130 H1120 0.950 . S
C1130 C1131 1.386 . S
C1130 C1132 1.391 . S
C1131 C1130 1.386 . S
C1131 C1135 1.393 . S
C1132 H1121 0.950 . S
C1132 C1130 1.391 . S
C1132 C1133 1.400 . S
C1133 C1127 1.491 . S
C1133 C1132 1.400 . S
C1133 C1134 1.398 . S
C1134 H1122 0.950 . S
C1134 C1133 1.398 . S
C1134 C1135 1.391 . S
C1135 H1123 0.950 . S
C1135 C1131 1.393 . S
C1135 C1134 1.391 . S
H1136 C1144 0.950 . S
H1137 C1149 0.950 . S
H1138 C1146 0.950 . S
H1139 C1148 0.950 . S
H1140 C1150 0.950 . S
H1141 C1152 0.950 . S
H1142 C1154 0.950 . S
H1143 C1155 0.950 . S
C1144 H1136 0.950 . S
C1144 C1145 1.386 . S
C1144 C1146 1.391 . S
C1145 C1144 1.386 . S
C1145 C1149 1.393 . S
C1146 H1138 0.950 . S
C1146 C1144 1.391 . S
C1146 C1147 1.400 . S
C1147 C1146 1.400 . S
C1147 C1148 1.398 . S
C1147 C1153 1.491 . S
C1148 H1139 0.950 . S
C1148 C1147 1.398 . S
C1148 C1149 1.391 . S
C1149 H1137 0.950 . S
C1149 C1145 1.393 . S
C1149 C1148 1.391 . S
C1150 H1140 0.950 . S
C1150 C1151 1.386 . S
C1150 C1152 1.391 . S
C1151 C1150 1.386 . S
C1151 C1155 1.393 . S
C1152 H1141 0.950 . S
C1152 C1150 1.391 . S
C1152 C1153 1.400 . S
C1153 C1147 1.491 . S
C1153 C1152 1.400 . S
C1153 C1154 1.398 . S
C1154 H1142 0.950 . S
C1154 C1153 1.398 . S
C1154 C1155 1.391 . S
C1155 H1143 0.950 . S
C1155 C1151 1.393 . S
C1155 C1154 1.391 . S
H1156 C1164 0.950 . S
H1157 C1169 0.950 . S
H1158 C1166 0.950 . S
H1159 C1168 0.950 . S
H1160 C1170 0.950 . S
H1161 C1172 0.950 . S
H1162 C1174 0.950 . S
H1163 C1175 0.950 . S
C1164 H1156 0.950 . S
C1164 C1165 1.386 . S
C1164 C1166 1.391 . S
C1165 C1164 1.386 . S
C1165 C1169 1.393 . S
C1166 H1158 0.950 . S
C1166 C1164 1.391 . S
C1166 C1167 1.400 . S
C1167 C1166 1.400 . S
C1167 C1168 1.398 . S
C1167 C1173 1.491 . S
C1168 H1159 0.950 . S
C1168 C1167 1.398 . S
C1168 C1169 1.391 . S
C1169 H1157 0.950 . S
C1169 C1165 1.393 . S
C1169 C1168 1.391 . S
C1170 H1160 0.950 . S
C1170 C1171 1.386 . S
C1170 C1172 1.391 . S
C1171 C1170 1.386 . S
C1171 C1175 1.393 . S
C1172 H1161 0.950 . S
C1172 C1170 1.391 . S
C1172 C1173 1.400 . S
C1173 C1167 1.491 . S
C1173 C1172 1.400 . S
C1173 C1174 1.398 . S
C1174 H1162 0.950 . S
C1174 C1173 1.398 . S
C1174 C1175 1.391 . S
C1175 H1163 0.950 . S
C1175 C1171 1.393 . S
C1175 C1174 1.391 . S
H1176 C1184 0.950 . S
H1177 C1189 0.950 . S
H1178 C1186 0.950 . S
H1179 C1188 0.950 . S
H1180 C1190 0.950 . S
H1181 C1192 0.950 . S
H1182 C1194 0.950 . S
H1183 C1195 0.950 . S
C1184 H1176 0.950 . S
C1184 C1185 1.386 . S
C1184 C1186 1.391 . S
C1185 C1184 1.386 . S
C1185 C1189 1.393 . S
C1186 H1178 0.950 . S
C1186 C1184 1.391 . S
C1186 C1187 1.400 . S
C1187 C1186 1.400 . S
C1187 C1188 1.398 . S
C1187 C1193 1.491 . S
C1188 H1179 0.950 . S
C1188 C1187 1.398 . S
C1188 C1189 1.391 . S
C1189 H1177 0.950 . S
C1189 C1185 1.393 . S
C1189 C1188 1.391 . S
C1190 H1180 0.950 . S
C1190 C1191 1.386 . S
C1190 C1192 1.391 . S
C1191 C1190 1.386 . S
C1191 C1195 1.393 . S
C1192 H1181 0.950 . S
C1192 C1190 1.391 . S
C1192 C1193 1.400 . S
C1193 C1187 1.491 . S
C1193 C1192 1.400 . S
C1193 C1194 1.398 . S
C1194 H1182 0.950 . S
C1194 C1193 1.398 . S
C1194 C1195 1.391 . S
C1195 H1183 0.950 . S
C1195 C1191 1.393 . S
C1195 C1194 1.391 . S
H1196 C1204 0.950 . S
H1197 C1209 0.950 . S
H1198 C1206 0.950 . S
H1199 C1208 0.950 . S
H1200 C1210 0.950 . S
H1201 C1212 0.950 . S
H1202 C1214 0.950 . S
H1203 C1215 0.950 . S
C1204 H1196 0.950 . S
C1204 C1205 1.386 . S
C1204 C1206 1.391 . S
C1205 C1204 1.386 . S
C1205 C1209 1.393 . S
C1206 H1198 0.950 . S
C1206 C1204 1.391 . S
C1206 C1207 1.400 . S
C1207 C1206 1.400 . S
C1207 C1208 1.398 . S
C1207 C1213 1.491 . S
C1208 H1199 0.950 . S
C1208 C1207 1.398 . S
C1208 C1209 1.391 . S
C1209 H1197 0.950 . S
C1209 C1205 1.393 . S
C1209 C1208 1.391 . S
C1210 H1200 0.950 . S
C1210 C1211 1.386 . S
C1210 C1212 1.391 . S
C1211 C1210 1.386 . S
C1211 C1215 1.393 . S
C1212 H1201 0.950 . S
C1212 C1210 1.391 . S
C1212 C1213 1.400 . S
C1213 C1207 1.491 . S
C1213 C1212 1.400 . S
C1213 C1214 1.398 . S
C1214 H1202 0.950 . S
C1214 C1213 1.398 . S
C1214 C1215 1.391 . S
C1215 H1203 0.950 . S
C1215 C1211 1.393 . S
C1215 C1214 1.391 . S
H1216 C1224 0.950 . S
H1217 C1229 0.950 . S
H1218 C1226 0.950 . S
H1219 C1228 0.950 . S
H1220 C1230 0.950 . S
H1221 C1232 0.950 . S
H1222 C1234 0.950 . S
H1223 C1235 0.950 . S
C1224 H1216 0.950 . S
C1224 C1225 1.386 . S
C1224 C1226 1.391 . S
C1225 C1224 1.386 . S
C1225 C1229 1.393 . S
C1226 H1218 0.950 . S
C1226 C1224 1.391 . S
C1226 C1227 1.400 . S
C1227 C1226 1.400 . S
C1227 C1228 1.398 . S
C1227 C1233 1.491 . S
C1228 H1219 0.950 . S
C1228 C1227 1.398 . S
C1228 C1229 1.391 . S
C1229 H1217 0.950 . S
C1229 C1225 1.393 . S
C1229 C1228 1.391 . S
C1230 H1220 0.950 . S
C1230 C1231 1.386 . S
C1230 C1232 1.391 . S
C1231 C1230 1.386 . S
C1231 C1235 1.393 . S
C1232 H1221 0.950 . S
C1232 C1230 1.391 . S
C1232 C1233 1.400 . S
C1233 C1227 1.491 . S
C1233 C1232 1.400 . S
C1233 C1234 1.398 . S
C1234 H1222 0.950 . S
C1234 C1233 1.398 . S
C1234 C1235 1.391 . S
C1235 H1223 0.950 . S
C1235 C1231 1.393 . S
C1235 C1234 1.391 . S
H1236 C1244 0.950 . S
H1237 C1249 0.950 . S
H1238 C1246 0.950 . S
H1239 C1248 0.950 . S
H1240 C1250 0.950 . S
H1241 C1252 0.950 . S
H1242 C1254 0.950 . S
H1243 C1255 0.950 . S
C1244 H1236 0.950 . S
C1244 C1245 1.386 . S
C1244 C1246 1.391 . S
C1245 C1244 1.386 . S
C1245 C1249 1.393 . S
C1246 H1238 0.950 . S
C1246 C1244 1.391 . S
C1246 C1247 1.400 . S
C1247 C1246 1.400 . S
C1247 C1248 1.398 . S
C1247 C1253 1.491 . S
C1248 H1239 0.950 . S
C1248 C1247 1.398 . S
C1248 C1249 1.391 . S
C1249 H1237 0.950 . S
C1249 C1245 1.393 . S
C1249 C1248 1.391 . S
C1250 H1240 0.950 . S
C1250 C1251 1.386 . S
C1250 C1252 1.391 . S
C1251 C1250 1.386 . S
C1251 C1255 1.393 . S
C1252 H1241 0.950 . S
C1252 C1250 1.391 . S
C1252 C1253 1.400 . S
C1253 C1247 1.491 . S
C1253 C1252 1.400 . S
C1253 C1254 1.398 . S
C1254 H1242 0.950 . S
C1254 C1253 1.398 . S
C1254 C1255 1.391 . S
C1255 H1243 0.950 . S
C1255 C1251 1.393 . S
C1255 C1254 1.391 . S
H1256 C1264 0.950 . S
H1257 C1269 0.950 . S
H1258 C1266 0.950 . S
H1259 C1268 0.950 . S
H1260 C1270 0.950 . S
H1261 C1272 0.950 . S
H1262 C1274 0.950 . S
H1263 C1275 0.950 . S
C1264 H1256 0.950 . S
C1264 C1265 1.386 . S
C1264 C1266 1.391 . S
C1265 C1264 1.386 . S
C1265 C1269 1.393 . S
C1266 H1258 0.950 . S
C1266 C1264 1.391 . S
C1266 C1267 1.400 . S
C1267 C1266 1.400 . S
C1267 C1268 1.398 . S
C1267 C1273 1.491 . S
C1268 H1259 0.950 . S
C1268 C1267 1.398 . S
C1268 C1269 1.391 . S
C1269 H1257 0.950 . S
C1269 C1265 1.393 . S
C1269 C1268 1.391 . S
C1270 H1260 0.950 . S
C1270 C1271 1.386 . S
C1270 C1272 1.391 . S
C1271 C1270 1.386 . S
C1271 C1275 1.393 . S
C1272 H1261 0.950 . S
C1272 C1270 1.391 . S
C1272 C1273 1.400 . S
C1273 C1267 1.491 . S
C1273 C1272 1.400 . S
C1273 C1274 1.398 . S
C1274 H1262 0.950 . S
C1274 C1273 1.398 . S
C1274 C1275 1.391 . S
C1275 H1263 0.950 . S
C1275 C1271 1.393 . S
C1275 C1274 1.391 . S
H1276 C1284 0.950 . S
H1277 C1289 0.950 . S
H1278 C1286 0.950 . S
H1279 C1288 0.950 . S
H1280 C1290 0.950 . S
H1281 C1292 0.950 . S
H1282 C1294 0.950 . S
H1283 C1295 0.950 . S
C1284 H1276 0.950 . S
C1284 C1285 1.386 . S
C1284 C1286 1.391 . S
C1285 C1284 1.386 . S
C1285 C1289 1.393 . S
C1286 H1278 0.950 . S
C1286 C1284 1.391 . S
C1286 C1287 1.400 . S
C1287 C1286 1.400 . S
C1287 C1288 1.398 . S
C1287 C1293 1.491 . S
C1288 H1279 0.950 . S
C1288 C1287 1.398 . S
C1288 C1289 1.391 . S
C1289 H1277 0.950 . S
C1289 C1285 1.393 . S
C1289 C1288 1.391 . S
C1290 H1280 0.950 . S
C1290 C1291 1.386 . S
C1290 C1292 1.391 . S
C1291 C1290 1.386 . S
C1291 C1295 1.393 . S
C1292 H1281 0.950 . S
C1292 C1290 1.391 . S
C1292 C1293 1.400 . S
C1293 C1287 1.491 . S
C1293 C1292 1.400 . S
C1293 C1294 1.398 . S
C1294 H1282 0.950 . S
C1294 C1293 1.398 . S
C1294 C1295 1.391 . S
C1295 H1283 0.950 . S
C1295 C1291 1.393 . S
C1295 C1294 1.391 . S
C345 C311 2.034 . S
C351 C8 1.968 . S
C365 C17 2.004 . S
C371 C232 1.946 . S
C385 C325 1.970 . S
C391 C36 1.895 . S
C405 C302 1.935 . S
C411 C50 1.985 . S
C425 C260 1.990 . S
C431 C64 1.941 . S
C445 C269 1.875 . S
C451 C73 2.013 . S
C465 C288 2.011 . S
C471 C87 1.886 . S
C485 C101 1.990 . S
C491 C241 1.858 . S
C505 C185 2.030 . S
C511 C115 1.912 . S
C525 C204 1.932 . S
C531 C134 1.992 . S
C545 C143 1.924 . S
C551 C213 2.044 . S
C565 C162 1.992 . S
C571 C176 1.931 . S
C585 C106 1.953 . S
C591 C199 2.025 . S
C605 C218 1.949 . S
C611 C59 2.006 . S
C625 C78 1.892 . S
C631 C171 1.968 . S
C645 C190 1.946 . S
C651 C92 1.994 . S
C665 C148 1.975 . S
C671 C22 1.917 . S
C685 C31 1.997 . S
C691 C157 1.846 . S
C705 C45 1.906 . S
C711 C120 2.021 . S
C725 C3 1.987 . S
C731 C129 1.852 . S
C745 C283 1.891 . S
C751 C297 2.021 . S
C765 C316 1.926 . S
C771 C246 1.992 . S
C785 C255 1.919 . S
C791 C227 2.042 . S
C805 C330 1.931 . S
C811 C274 1.989 . S
C825 C9 0.771 . S
C831 C121 0.850 . S
C845 C133 0.837 . S
C851 C21 0.815 . S
C865 C37 0.801 . S
C871 C149 0.806 . S
C885 C51 0.835 . S
C891 C161 0.788 . S
C905 C65 0.814 . S
C911 C175 0.829 . S
C925 C77 0.862 . S
C931 C191 0.763 . S
C945 C203 0.843 . S
C951 C91 0.770 . S
C965 C219 0.788 . S
C971 C105 0.889 . S
C985 C119 0.844 . S
C991 C231 0.889 . S
C1005 C135 0.818 . S
C1011 C331 0.766 . S
C1025 C301 0.904 . S
C1031 C147 0.893 . S
C1045 C317 0.788 . S
C1051 C163 0.813 . S
C1065 C247 0.798 . S
C1071 C177 0.773 . S
C1085 C259 0.881 . S
C1091 C189 0.900 . S
C1105 C205 0.762 . S
C1111 C275 0.802 . S
C1125 C217 0.899 . S
C1131 C287 0.844 . S
C1145 C7 0.885 . S
C1151 C233 0.827 . S
C1165 C245 0.836 . S
C1171 C63 0.817 . S
C1185 C261 0.812 . S
C1191 C79 0.765 . S
C1205 C273 0.820 . S
C1211 C93 0.807 . S
C1225 C289 0.847 . S
C1231 C107 0.777 . S
C1245 C303 0.781 . S
C1251 C35 0.869 . S
C1265 C49 0.810 . S
C1271 C315 0.833 . S
C1285 C329 0.837 . S
C1291 C23 0.781 . S
