# Generated by pormake.
# Topology uog, (4)-cn, num edge types: 1
# Building blocks:
#     Node 0, Type 0, BuildingBlock: QUQFOY_clean_sbu_3, # of connection points: 4
#     Node 1, Type 0, BuildingBlock: QUQFOY_clean_sbu_3, # of connection points: 4
#     Node 2, Type 0, BuildingBlock: QUQFOY_clean_sbu_3, # of connection points: 4
#     Node 3, Type 0, BuildingBlock: QUQFOY_clean_sbu_3, # of connection points: 4
#     Node 4, Type 0, BuildingBlock: QUQFOY_clean_sbu_3, # of connection points: 4
#     Node 5, Type 0, BuildingBlock: QUQFOY_clean_sbu_3, # of connection points: 4
#     Edge 6, Type (0, 0), BuildingBlock: XIVTED_clean_linker_0, # of connection points: 2
#     Edge 7, Type (0, 0), BuildingBlock: XIVTED_clean_linker_0, # of connection points: 2
#     Edge 8, Type (0, 0), BuildingBlock: XIVTED_clean_linker_0, # of connection points: 2
#     Edge 9, Type (0, 0), BuildingBlock: XIVTED_clean_linker_0, # of connection points: 2
#     Edge 10, Type (0, 0), BuildingBlock: XIVTED_clean_linker_0, # of connection points: 2
#     Edge 11, Type (0, 0), BuildingBlock: XIVTED_clean_linker_0, # of connection points: 2
#     Edge 12, Type (0, 0), BuildingBlock: XIVTED_clean_linker_0, # of connection points: 2
#     Edge 13, Type (0, 0), BuildingBlock: XIVTED_clean_linker_0, # of connection points: 2
#     Edge 14, Type (0, 0), BuildingBlock: XIVTED_clean_linker_0, # of connection points: 2
#     Edge 15, Type (0, 0), BuildingBlock: XIVTED_clean_linker_0, # of connection points: 2
#     Edge 16, Type (0, 0), BuildingBlock: XIVTED_clean_linker_0, # of connection points: 2
#     Edge 17, Type (0, 0), BuildingBlock: XIVTED_clean_linker_0, # of connection points: 2
# Relax obj value: 0.081
# Max RMSD: 0.177
# Mean RMSD: 0.177
data_MOF--net-uog--node1-QUQFOY_clean_sbu_3--edge1-XIVTED_clean_linker_0
_symmetry_space_group_name_H-M    P1
_symmetry_Int_Tables_number       1
_symmetry_cell_setting            triclinic
loop_
_symmetry_equiv_pos_as_xyz
'x, y, z'
_cell_length_a     28.898631
_cell_length_b     28.904069
_cell_length_c     43.578347
_cell_angle_alpha  90.007345
_cell_angle_beta   89.799132
_cell_angle_gamma 119.9735
loop_
_atom_site_label
_atom_site_type_symbol
_atom_site_fract_x
_atom_site_fract_y
_atom_site_fract_z
_atom_type_partial_charge
C0 C 0.72828 0.36565 0.1921 0.0
O1 O 0.75703 0.40756 0.17652 0.0
Cd2 Cd 0.71704 0.42632 0.13318 0.0
O3 O 0.68174 0.33187 0.183 0.0
Cd4 Cd 0.61809 0.30902 0.14144 0.0
C5 C 0.60183 0.40865 0.1688 0.0
O6 O 0.67459 0.35446 0.09689 0.0
O7 O 0.59045 0.33003 0.09425 0.0
O8 O 0.62092 0.2272 0.13718 0.0
C9 C 0.63582 0.351 0.08124 0.0
O10 O 0.64778 0.43887 0.15706 0.0
C11 C 0.57142 0.19565 0.14158 0.0
O12 O 0.58058 0.35789 0.16799 0.0
O13 O 0.54234 0.21679 0.14566 0.0
C14 C 0.36534 0.7323 0.52889 0.0
O15 O 0.35243 0.76173 0.5139 0.0
Cd16 Cd 0.29168 0.72222 0.47129 0.0
O17 O 0.35128 0.68558 0.51949 0.0
Cd18 Cd 0.30811 0.62307 0.47773 0.0
C19 C 0.1936 0.60768 0.5067 0.0
O20 O 0.31735 0.67889 0.43308 0.0
O21 O 0.25619 0.59507 0.43195 0.0
O22 O 0.39206 0.62543 0.4708 0.0
C23 C 0.28057 0.63979 0.4183 0.0
O24 O 0.2097 0.65389 0.49533 0.0
C25 C 0.37445 0.57605 0.47534 0.0
O26 O 0.22265 0.58592 0.50532 0.0
O27 O 0.3246 0.54714 0.48072 0.0
C28 C 0.64023 0.36885 0.85864 0.0
O29 O 0.59913 0.35681 0.84266 0.0
Cd30 Cd 0.58008 0.2977 0.79938 0.0
O31 O 0.67346 0.35496 0.8499 0.0
Cd32 Cd 0.69538 0.31273 0.80852 0.0
C33 C 0.59307 0.19808 0.83541 0.0
O34 O 0.65207 0.32404 0.76316 0.0
O35 O 0.67329 0.26181 0.76223 0.0
O36 O 0.77964 0.39492 0.80269 0.0
C37 C 0.6543 0.28717 0.74834 0.0
O38 O 0.56401 0.21475 0.82326 0.0
C39 C 0.80919 0.37507 0.80835 0.0
O40 O 0.64393 0.22677 0.83509 0.0
O41 O 0.78575 0.32515 0.81394 0.0
C42 C 0.26393 0.63098 0.19604 0.0
O43 O 0.23485 0.58935 0.18046 0.0
Cd44 Cd 0.27617 0.57027 0.1376 0.0
O45 O 0.31089 0.66392 0.187 0.0
Cd46 Cd 0.37458 0.68517 0.14549 0.0
C47 C 0.38964 0.58547 0.17335 0.0
O48 O 0.32066 0.64035 0.10003 0.0
O49 O 0.40443 0.66254 0.09984 0.0
O50 O 0.3723 0.76695 0.13942 0.0
C51 C 0.36045 0.6431 0.0856 0.0
O52 O 0.34383 0.55571 0.16153 0.0
C53 C 0.42158 0.79854 0.14427 0.0
O54 O 0.41122 0.63627 0.17263 0.0
O55 O 0.45035 0.77742 0.14946 0.0
C56 C 0.63599 0.27161 0.52577 0.0
O57 O 0.64845 0.24249 0.51005 0.0
Cd58 Cd 0.70795 0.28306 0.46682 0.0
O59 O 0.64937 0.31835 0.51666 0.0
Cd60 Cd 0.6904 0.38166 0.47481 0.0
C61 C 0.80516 0.39713 0.50284 0.0
O62 O 0.68077 0.32665 0.42984 0.0
O63 O 0.74177 0.41053 0.42854 0.0
O64 O 0.60575 0.37845 0.46965 0.0
C65 C 0.71722 0.36594 0.41486 0.0
O66 O 0.78945 0.35135 0.491 0.0
C67 C 0.62329 0.42786 0.47398 0.0
O68 O 0.77592 0.41869 0.50193 0.0
O69 O 0.67331 0.45708 0.47849 0.0
C70 C 0.37213 0.63892 0.86276 0.0
O71 O 0.41458 0.65203 0.84772 0.0
Cd72 Cd 0.4346 0.71192 0.80459 0.0
O73 O 0.33897 0.65208 0.85306 0.0
Cd74 Cd 0.31859 0.69336 0.81071 0.0
C75 C 0.41553 0.80898 0.83909 0.0
O76 O 0.36617 0.68519 0.7661 0.0
O77 O 0.34265 0.74579 0.765 0.0
O78 O 0.23887 0.60847 0.80303 0.0
C79 C 0.36335 0.72176 0.7513 0.0
O80 O 0.44639 0.79348 0.82804 0.0
C81 C 0.2057 0.62422 0.80809 0.0
O82 O 0.36484 0.77926 0.8377 0.0
O83 O 0.22495 0.67363 0.81407 0.0
H84 H 0.6268 0.14209 0.13923 0.0
H85 H 0.36646 0.85207 0.13945 0.0
H86 H 0.46638 0.11598 0.14546 0.0
H87 H 0.52645 0.87827 0.14884 0.0
H88 H 0.40242 0.94845 0.13919 0.0
H89 H 0.59086 0.04571 0.1403 0.0
C90 C 0.58394 0.11606 0.14079 0.0
C91 C 0.5495 0.13717 0.14221 0.0
C92 C 0.42971 0.9332 0.14135 0.0
C93 C 0.50807 0.02653 0.1434 0.0
C94 C 0.40924 0.87812 0.14142 0.0
C95 C 0.44355 0.85704 0.14411 0.0
C96 C 0.485 0.96769 0.14379 0.0
C97 C 0.49857 0.89278 0.14671 0.0
C98 C 0.56348 0.06099 0.14148 0.0
C99 C 0.49437 0.10147 0.14431 0.0
N100 N 0.51761 0.94638 0.14639 0.0
N101 N 0.47535 0.04787 0.14475 0.0
H102 H 0.48301 0.63145 0.46993 0.0
H103 H 0.51448 0.37206 0.47067 0.0
H104 H 0.34971 0.47121 0.47971 0.0
H105 H 0.64791 0.53269 0.4775 0.0
H106 H 0.45359 0.40754 0.47097 0.0
H107 H 0.54375 0.59584 0.46962 0.0
C108 C 0.46645 0.58868 0.47196 0.0
C109 C 0.4111 0.55421 0.47484 0.0
C110 C 0.49616 0.43506 0.47244 0.0
C111 C 0.48069 0.51317 0.47447 0.0
C112 C 0.53104 0.41487 0.47219 0.0
C113 C 0.58646 0.44951 0.47404 0.0
C114 C 0.51674 0.49039 0.47434 0.0
C115 C 0.60551 0.50455 0.47605 0.0
C116 C 0.50125 0.56842 0.47187 0.0
C117 C 0.39206 0.49922 0.47746 0.0
N118 N 0.57069 0.52331 0.47607 0.0
N119 N 0.42681 0.48037 0.47715 0.0
H120 H 0.88417 0.34512 0.81875 0.0
H121 H 0.15627 0.5172 0.7971 0.0
H122 H 0.86826 0.48284 0.79901 0.0
H123 H 0.12266 0.64357 0.81771 0.0
H124 H 0.06102 0.45356 0.79689 0.0
H125 H 0.98106 0.40272 0.81948 0.0
C126 C 0.90112 0.38741 0.81426 0.0
C127 C 0.86807 0.40907 0.80855 0.0
C128 C 0.07418 0.49489 0.80206 0.0
C129 C 0.97923 0.47539 0.8086 0.0
C130 C 0.12878 0.53154 0.80183 0.0
C131 C 0.14757 0.58586 0.80761 0.0
C132 C 0.03778 0.5125 0.80827 0.0
C133 C 0.10996 0.60206 0.81328 0.0
C134 C 0.9566 0.42034 0.81438 0.0
C135 C 0.89221 0.46431 0.80329 0.0
N136 N 0.05681 0.56552 0.81338 0.0
N137 N 0.94626 0.49553 0.80352 0.0
H138 H 0.12745 0.64651 0.52138 0.0
H139 H 0.87066 0.35758 0.51721 0.0
H140 H 0.13319 0.50015 0.51868 0.0
H141 H 0.8649 0.50398 0.51662 0.0
H142 H 0.96565 0.40855 0.52884 0.0
H143 H 0.03159 0.5948 0.5309 0.0
C144 C 0.10869 0.60348 0.52326 0.0
C145 C 0.13825 0.57751 0.51857 0.0
C146 C 0.94355 0.42953 0.52661 0.0
C147 C 0.02819 0.51802 0.52918 0.0
C148 C 0.88923 0.40045 0.51993 0.0
C149 C 0.85998 0.42671 0.51529 0.0
C150 C 0.96908 0.4854 0.52841 0.0
C151 C 0.88599 0.48216 0.51966 0.0
C152 C 0.05386 0.57397 0.5287 0.0
C153 C 0.11192 0.5218 0.52179 0.0
N154 N 0.93931 0.50979 0.52547 0.0
N155 N 0.05818 0.49381 0.52637 0.0
H156 H 0.51951 0.87545 0.85502 0.0
H157 H 0.48679 0.13186 0.84696 0.0
H158 H 0.36731 0.86898 0.84913 0.0
H159 H 0.63903 0.13802 0.85106 0.0
H160 H 0.44206 0.03658 0.85818 0.0
H161 H 0.56271 0.97122 0.86424 0.0
C162 C 0.495 0.89405 0.85613 0.0
C163 C 0.43979 0.86431 0.85068 0.0
C164 C 0.48528 0.05883 0.85707 0.0
C165 C 0.48925 0.97429 0.86092 0.0
C166 C 0.51094 0.11333 0.85062 0.0
C167 C 0.56677 0.14282 0.84745 0.0
C168 C 0.51557 0.0334 0.86012 0.0
C169 C 0.5959 0.11678 0.85295 0.0
C170 C 0.51977 0.94883 0.8614 0.0
C171 C 0.41002 0.89042 0.8529 0.0
N172 N 0.56989 0.06334 0.85853 0.0
N173 N 0.43528 0.94414 0.85732 0.0
H174 H 0.35085 0.48005 0.18662 0.0
H175 H 0.64051 0.51357 0.18311 0.0
H176 H 0.4968 0.63252 0.18605 0.0
H177 H 0.49466 0.36103 0.18226 0.0
H178 H 0.58886 0.55705 0.19473 0.0
H179 H 0.40268 0.43597 0.19573 0.0
C180 C 0.3938 0.5044 0.18888 0.0
C181 C 0.41965 0.56004 0.18492 0.0
C182 C 0.56814 0.514 0.19244 0.0
C183 C 0.47931 0.50959 0.19507 0.0
C184 C 0.59761 0.48907 0.18576 0.0
C185 C 0.57173 0.43362 0.18108 0.0
C186 C 0.51225 0.4834 0.19417 0.0
C187 C 0.51621 0.40392 0.18534 0.0
C188 C 0.42338 0.47912 0.19409 0.0
C189 C 0.47525 0.58951 0.1886 0.0
N190 N 0.4882 0.42931 0.19114 0.0
N191 N 0.50333 0.56382 0.19294 0.0
H192 H 0.56383 0.37317 0.89414 0.0
H193 H 0.72638 0.39489 0.04552 0.0
H194 H 0.72892 0.4125 0.89473 0.0
H195 H 0.56008 0.35131 0.04431 0.0
H196 H 0.73326 0.41919 -0.00878 0.0
H197 H 0.56764 0.38525 0.94976 0.0
C198 C 0.60129 0.38578 0.90583 0.0
C199 C 0.64573 0.39056 0.88992 0.0
C200 C 0.69542 0.40488 0.00295 0.0
C201 C 0.65009 0.40335 0.9535 0.0
C202 C 0.69147 0.39084 0.0339 0.0
C203 C 0.64237 0.37011 0.04926 0.0
C204 C 0.64987 0.39789 -0.0127 0.0
C205 C 0.59855 0.36633 0.03323 0.0
C206 C 0.60335 0.39226 0.93764 0.0
C207 C 0.69331 0.40722 0.90622 0.0
N208 N 0.60318 0.37948 0.00305 0.0
N209 N 0.69396 0.41202 0.9372 0.0
H210 H 0.18427 0.55612 0.23278 0.0
H211 H 0.3274 0.72806 0.38082 0.0
H212 H 0.30808 0.72186 0.23028 0.0
H213 H 0.2021 0.56288 0.38313 0.0
H214 H 0.30883 0.73174 0.32639 0.0
H215 H 0.17631 0.56346 0.2882 0.0
C216 C 0.20873 0.59441 0.24373 0.0
C217 C 0.2478 0.63806 0.22706 0.0
C218 C 0.28497 0.69487 0.33892 0.0
C219 C 0.23977 0.64651 0.2904 0.0
C220 C 0.29571 0.69276 0.36995 0.0
C221 C 0.26702 0.64484 0.38632 0.0
C222 C 0.24549 0.64862 0.32421 0.0
C223 C 0.22589 0.60045 0.37124 0.0
C224 C 0.20449 0.59853 0.27543 0.0
C225 C 0.27826 0.68682 0.24241 0.0
N226 N 0.21682 0.60323 0.34096 0.0
N227 N 0.27433 0.68946 0.2733 0.0
H228 H 0.64939 0.20639 0.71367 0.0
H229 H 0.58822 0.31447 0.56052 0.0
H230 H 0.6161 0.33623 0.71039 0.0
H231 H 0.63596 0.19487 0.56282 0.0
H232 H 0.57666 0.30725 0.61606 0.0
H233 H 0.62543 0.18816 0.65971 0.0
C234 C 0.63669 0.23091 0.70164 0.0
C235 C 0.63567 0.27358 0.71639 0.0
C236 C 0.58869 0.28183 0.6044 0.0
C237 C 0.60804 0.25272 0.65454 0.0
C238 C 0.59507 0.28572 0.57265 0.0
C239 C 0.61427 0.25607 0.55713 0.0
C240 C 0.60203 0.24837 0.62076 0.0
C241 C 0.62167 0.2189 0.57391 0.0
C242 C 0.62281 0.22029 0.67083 0.0
C243 C 0.61813 0.30342 0.69979 0.0
N244 N 0.61659 0.21689 0.60497 0.0
N245 N 0.60559 0.29281 0.6696 0.0
H246 H 0.27944 0.58973 0.89568 0.0
H247 H 0.43766 0.63853 0.05197 0.0
H248 H 0.44646 0.63706 0.90099 0.0
H249 H 0.2756 0.60776 0.04605 0.0
H250 H 0.43542 0.61829 -0.00243 0.0
H251 H 0.27126 0.57438 0.95092 0.0
C252 C 0.31419 0.59578 0.90839 0.0
C253 C 0.36404 0.61587 0.89385 0.0
C254 C 0.40013 0.61538 0.00819 0.0
C255 C 0.35506 0.59916 0.95715 0.0
C256 C 0.40138 0.62712 0.03926 0.0
C257 C 0.35702 0.62582 0.05342 0.0
C258 C 0.35429 0.60251 -0.00896 0.0
C259 C 0.3109 0.60994 0.03594 0.0
C260 C 0.30949 0.58719 0.93996 0.0
C261 C 0.40742 0.62213 0.91133 0.0
N262 N 0.31095 0.59952 0.00552 0.0
N263 N 0.40217 0.61483 0.94223 0.0
H264 H 0.79749 0.44211 0.37988 0.0
H265 H 0.68597 0.27475 0.22654 0.0
H266 H 0.66815 0.27883 0.37686 0.0
H267 H 0.80546 0.44203 0.22892 0.0
H268 H 0.69465 0.26971 0.28187 0.0
H269 H 0.81463 0.43701 0.32557 0.0
C270 C 0.77288 0.40498 0.36783 0.0
C271 C 0.7306 0.36108 0.38276 0.0
C272 C 0.7197 0.3073 0.27026 0.0
C273 C 0.75018 0.35505 0.32051 0.0
C274 C 0.71495 0.3102 0.23863 0.0
C275 C 0.74419 0.35923 0.22324 0.0
C276 C 0.75359 0.35386 0.28663 0.0
C277 C 0.78171 0.40359 0.23993 0.0
C278 C 0.78287 0.40208 0.33682 0.0
C279 C 0.70066 0.31382 0.36612 0.0
N280 N 0.78456 0.40011 0.27089 0.0
N281 N 0.71061 0.31226 0.33574 0.0
H282 H 0.37005 0.80397 0.71732 0.0
H283 H 0.4135 0.68792 0.56173 0.0
H284 H 0.39844 0.67103 0.71223 0.0
H285 H 0.37045 0.81085 0.56653 0.0
H286 H 0.4304 0.69676 0.61676 0.0
H287 H 0.39055 0.82079 0.66283 0.0
C288 C 0.38103 0.77851 0.70477 0.0
C289 C 0.38148 0.73529 0.71918 0.0
C290 C 0.41821 0.72252 0.60573 0.0
C291 C 0.40501 0.75444 0.65669 0.0
C292 C 0.40871 0.71765 0.57427 0.0
C293 C 0.38931 0.74785 0.55968 0.0
C294 C 0.40781 0.75751 0.62276 0.0
C295 C 0.38474 0.78633 0.57692 0.0
C296 C 0.39292 0.78831 0.67365 0.0
C297 C 0.39691 0.70431 0.70191 0.0
N298 N 0.39285 0.78931 0.60773 0.0
N299 N 0.40737 0.71405 0.67142 0.0
loop_
_geom_bond_atom_site_label_1
_geom_bond_atom_site_label_2
_geom_bond_distance
_geom_bond_site_symmetry_2
_ccdc_geom_bond_type
C0 O1 1.306 . S
C0 O3 1.160 . S
O1 C0 1.306 . S
O1 Cd2 2.228 . S
Cd2 O1 2.228 . S
Cd2 O6 2.273 . S
Cd2 O10 2.277 . S
O3 C0 1.160 . S
O3 Cd4 2.203 . S
Cd4 O3 2.203 . S
Cd4 O6 2.411 . S
Cd4 O7 2.333 . S
Cd4 O8 2.352 . S
Cd4 O12 2.277 . S
Cd4 O13 2.356 . S
C5 O10 1.209 . S
C5 O12 1.226 . S
O6 Cd2 2.273 . S
O6 Cd4 2.411 . S
O6 C9 1.320 . S
O7 Cd4 2.333 . S
O7 C9 1.214 . S
O8 Cd4 2.352 . S
O8 C11 1.258 . S
C9 O6 1.320 . S
C9 O7 1.214 . S
O10 Cd2 2.277 . S
O10 C5 1.209 . S
C11 O8 1.258 . S
C11 O13 1.282 . S
O12 Cd4 2.277 . S
O12 C5 1.226 . S
O13 Cd4 2.356 . S
O13 C11 1.282 . S
C14 O15 1.306 . S
C14 O17 1.160 . S
O15 C14 1.306 . S
O15 Cd16 2.228 . S
Cd16 O15 2.228 . S
Cd16 O20 2.273 . S
Cd16 O24 2.277 . S
O17 C14 1.160 . S
O17 Cd18 2.203 . S
Cd18 O17 2.203 . S
Cd18 O20 2.411 . S
Cd18 O21 2.333 . S
Cd18 O22 2.352 . S
Cd18 O26 2.277 . S
Cd18 O27 2.356 . S
C19 O24 1.209 . S
C19 O26 1.226 . S
O20 Cd16 2.273 . S
O20 Cd18 2.411 . S
O20 C23 1.320 . S
O21 Cd18 2.333 . S
O21 C23 1.214 . S
O22 Cd18 2.352 . S
O22 C25 1.258 . S
C23 O20 1.320 . S
C23 O21 1.214 . S
O24 Cd16 2.277 . S
O24 C19 1.209 . S
C25 O22 1.258 . S
C25 O27 1.282 . S
O26 Cd18 2.277 . S
O26 C19 1.226 . S
O27 Cd18 2.356 . S
O27 C25 1.282 . S
C28 O29 1.306 . S
C28 O31 1.160 . S
O29 C28 1.306 . S
O29 Cd30 2.228 . S
Cd30 O29 2.228 . S
Cd30 O34 2.273 . S
Cd30 O38 2.277 . S
O31 C28 1.160 . S
O31 Cd32 2.203 . S
Cd32 O31 2.203 . S
Cd32 O34 2.411 . S
Cd32 O35 2.333 . S
Cd32 O36 2.352 . S
Cd32 O40 2.277 . S
Cd32 O41 2.356 . S
C33 O38 1.209 . S
C33 O40 1.226 . S
O34 Cd30 2.273 . S
O34 Cd32 2.411 . S
O34 C37 1.320 . S
O35 Cd32 2.333 . S
O35 C37 1.214 . S
O36 Cd32 2.352 . S
O36 C39 1.258 . S
C37 O34 1.320 . S
C37 O35 1.214 . S
O38 Cd30 2.277 . S
O38 C33 1.209 . S
C39 O36 1.258 . S
C39 O41 1.282 . S
O40 Cd32 2.277 . S
O40 C33 1.226 . S
O41 Cd32 2.356 . S
O41 C39 1.282 . S
C42 O43 1.306 . S
C42 O45 1.160 . S
O43 C42 1.306 . S
O43 Cd44 2.228 . S
Cd44 O43 2.228 . S
Cd44 O48 2.273 . S
Cd44 O52 2.277 . S
O45 C42 1.160 . S
O45 Cd46 2.203 . S
Cd46 O45 2.203 . S
Cd46 O48 2.411 . S
Cd46 O49 2.333 . S
Cd46 O50 2.352 . S
Cd46 O54 2.277 . S
Cd46 O55 2.356 . S
C47 O52 1.209 . S
C47 O54 1.226 . S
O48 Cd44 2.273 . S
O48 Cd46 2.411 . S
O48 C51 1.320 . S
O49 Cd46 2.333 . S
O49 C51 1.214 . S
O50 Cd46 2.352 . S
O50 C53 1.258 . S
C51 O48 1.320 . S
C51 O49 1.214 . S
O52 Cd44 2.277 . S
O52 C47 1.209 . S
C53 O50 1.258 . S
C53 O55 1.282 . S
O54 Cd46 2.277 . S
O54 C47 1.226 . S
O55 Cd46 2.356 . S
O55 C53 1.282 . S
C56 O57 1.306 . S
C56 O59 1.160 . S
O57 C56 1.306 . S
O57 Cd58 2.228 . S
Cd58 O57 2.228 . S
Cd58 O62 2.273 . S
Cd58 O66 2.277 . S
O59 C56 1.160 . S
O59 Cd60 2.203 . S
Cd60 O59 2.203 . S
Cd60 O62 2.411 . S
Cd60 O63 2.333 . S
Cd60 O64 2.352 . S
Cd60 O68 2.277 . S
Cd60 O69 2.356 . S
C61 O66 1.209 . S
C61 O68 1.226 . S
O62 Cd58 2.273 . S
O62 Cd60 2.411 . S
O62 C65 1.320 . S
O63 Cd60 2.333 . S
O63 C65 1.214 . S
O64 Cd60 2.352 . S
O64 C67 1.258 . S
C65 O62 1.320 . S
C65 O63 1.214 . S
O66 Cd58 2.277 . S
O66 C61 1.209 . S
C67 O64 1.258 . S
C67 O69 1.282 . S
O68 Cd60 2.277 . S
O68 C61 1.226 . S
O69 Cd60 2.356 . S
O69 C67 1.282 . S
C70 O71 1.306 . S
C70 O73 1.160 . S
O71 C70 1.306 . S
O71 Cd72 2.228 . S
Cd72 O71 2.228 . S
Cd72 O76 2.273 . S
Cd72 O80 2.277 . S
O73 C70 1.160 . S
O73 Cd74 2.203 . S
Cd74 O73 2.203 . S
Cd74 O76 2.411 . S
Cd74 O77 2.333 . S
Cd74 O78 2.352 . S
Cd74 O82 2.277 . S
Cd74 O83 2.356 . S
C75 O80 1.209 . S
C75 O82 1.226 . S
O76 Cd72 2.273 . S
O76 Cd74 2.411 . S
O76 C79 1.320 . S
O77 Cd74 2.333 . S
O77 C79 1.214 . S
O78 Cd74 2.352 . S
O78 C81 1.258 . S
C79 O76 1.320 . S
C79 O77 1.214 . S
O80 Cd72 2.277 . S
O80 C75 1.209 . S
C81 O78 1.258 . S
C81 O83 1.282 . S
O82 Cd74 2.277 . S
O82 C75 1.226 . S
O83 Cd74 2.356 . S
O83 C81 1.282 . S
H84 C90 0.930 . S
H85 C94 0.930 . S
H86 C99 0.929 . S
H87 C97 0.929 . S
H88 C92 0.929 . S
H89 C98 0.929 . S
C90 H84 0.930 . S
C90 C91 1.367 . S
C90 C98 1.378 . S
C91 C90 1.367 . S
C91 C99 1.433 . S
C92 H88 0.929 . S
C92 C94 1.378 . S
C92 C96 1.350 . S
C93 C96 1.463 1_545 S
C93 C98 1.350 . S
C93 N101 1.427 . S
C94 H85 0.930 . S
C94 C92 1.378 . S
C94 C95 1.367 . S
C95 C94 1.367 . S
C95 C97 1.433 . S
C96 C92 1.350 . S
C96 C93 1.463 1_565 S
C96 N100 1.427 . S
C97 H87 0.929 . S
C97 C95 1.433 . S
C97 N100 1.384 . S
C98 H89 0.929 . S
C98 C90 1.378 . S
C98 C93 1.350 . S
C99 H86 0.929 . S
C99 C91 1.433 . S
C99 N101 1.384 . S
N100 C96 1.427 . S
N100 C97 1.384 . S
N101 C93 1.427 . S
N101 C99 1.384 . S
H102 C108 0.930 . S
H103 C112 0.930 . S
H104 C117 0.929 . S
H105 C115 0.929 . S
H106 C110 0.929 . S
H107 C116 0.929 . S
C108 H102 0.930 . S
C108 C109 1.367 . S
C108 C116 1.378 . S
C109 C108 1.367 . S
C109 C117 1.433 . S
C110 H106 0.929 . S
C110 C112 1.378 . S
C110 C114 1.350 . S
C111 C114 1.463 . S
C111 C116 1.350 . S
C111 N119 1.427 . S
C112 H103 0.930 . S
C112 C110 1.378 . S
C112 C113 1.367 . S
C113 C112 1.367 . S
C113 C115 1.433 . S
C114 C110 1.350 . S
C114 C111 1.463 . S
C114 N118 1.427 . S
C115 H105 0.929 . S
C115 C113 1.433 . S
C115 N118 1.384 . S
C116 H107 0.929 . S
C116 C108 1.378 . S
C116 C111 1.350 . S
C117 H104 0.929 . S
C117 C109 1.433 . S
C117 N119 1.384 . S
N118 C114 1.427 . S
N118 C115 1.384 . S
N119 C111 1.427 . S
N119 C117 1.384 . S
H120 C126 0.930 . S
H121 C130 0.930 . S
H122 C135 0.929 . S
H123 C133 0.929 . S
H124 C128 0.929 . S
H125 C134 0.929 . S
C126 H120 0.930 . S
C126 C127 1.367 . S
C126 C134 1.378 . S
C127 C126 1.367 . S
C127 C135 1.433 . S
C128 H124 0.929 . S
C128 C130 1.378 . S
C128 C132 1.350 . S
C129 C132 1.463 1_655 S
C129 C134 1.350 . S
C129 N137 1.427 . S
C130 H121 0.930 . S
C130 C128 1.378 . S
C130 C131 1.367 . S
C131 C130 1.367 . S
C131 C133 1.433 . S
C132 C128 1.350 . S
C132 C129 1.463 1_455 S
C132 N136 1.427 . S
C133 H123 0.929 . S
C133 C131 1.433 . S
C133 N136 1.384 . S
C134 H125 0.929 . S
C134 C126 1.378 . S
C134 C129 1.350 . S
C135 H122 0.929 . S
C135 C127 1.433 . S
C135 N137 1.384 . S
N136 C132 1.427 . S
N136 C133 1.384 . S
N137 C129 1.427 . S
N137 C135 1.384 . S
H138 C144 0.930 . S
H139 C148 0.930 . S
H140 C153 0.929 . S
H141 C151 0.929 . S
H142 C146 0.929 . S
H143 C152 0.929 . S
C144 H138 0.930 . S
C144 C145 1.367 . S
C144 C152 1.378 . S
C145 C144 1.367 . S
C145 C153 1.433 . S
C146 H142 0.929 . S
C146 C148 1.378 . S
C146 C150 1.350 . S
C147 C150 1.463 1_455 S
C147 C152 1.350 . S
C147 N155 1.427 . S
C148 H139 0.930 . S
C148 C146 1.378 . S
C148 C149 1.367 . S
C149 C148 1.367 . S
C149 C151 1.433 . S
C150 C146 1.350 . S
C150 C147 1.463 1_655 S
C150 N154 1.427 . S
C151 H141 0.929 . S
C151 C149 1.433 . S
C151 N154 1.384 . S
C152 H143 0.929 . S
C152 C144 1.378 . S
C152 C147 1.350 . S
C153 H140 0.929 . S
C153 C145 1.433 . S
C153 N155 1.384 . S
N154 C150 1.427 . S
N154 C151 1.384 . S
N155 C147 1.427 . S
N155 C153 1.384 . S
H156 C162 0.930 . S
H157 C166 0.930 . S
H158 C171 0.929 . S
H159 C169 0.929 . S
H160 C164 0.929 . S
H161 C170 0.929 . S
C162 H156 0.930 . S
C162 C163 1.367 . S
C162 C170 1.378 . S
C163 C162 1.367 . S
C163 C171 1.433 . S
C164 H160 0.929 . S
C164 C166 1.378 . S
C164 C168 1.350 . S
C165 C168 1.463 1_565 S
C165 C170 1.350 . S
C165 N173 1.427 . S
C166 H157 0.930 . S
C166 C164 1.378 . S
C166 C167 1.367 . S
C167 C166 1.367 . S
C167 C169 1.433 . S
C168 C164 1.350 . S
C168 C165 1.463 1_545 S
C168 N172 1.427 . S
C169 H159 0.929 . S
C169 C167 1.433 . S
C169 N172 1.384 . S
C170 H161 0.929 . S
C170 C162 1.378 . S
C170 C165 1.350 . S
C171 H158 0.929 . S
C171 C163 1.433 . S
C171 N173 1.384 . S
N172 C168 1.427 . S
N172 C169 1.384 . S
N173 C165 1.427 . S
N173 C171 1.384 . S
H174 C180 0.930 . S
H175 C184 0.930 . S
H176 C189 0.929 . S
H177 C187 0.929 . S
H178 C182 0.929 . S
H179 C188 0.929 . S
C180 H174 0.930 . S
C180 C181 1.367 . S
C180 C188 1.378 . S
C181 C180 1.367 . S
C181 C189 1.433 . S
C182 H178 0.929 . S
C182 C184 1.378 . S
C182 C186 1.350 . S
C183 C186 1.463 . S
C183 C188 1.350 . S
C183 N191 1.427 . S
C184 H175 0.930 . S
C184 C182 1.378 . S
C184 C185 1.367 . S
C185 C184 1.367 . S
C185 C187 1.433 . S
C186 C182 1.350 . S
C186 C183 1.463 . S
C186 N190 1.427 . S
C187 H177 0.929 . S
C187 C185 1.433 . S
C187 N190 1.384 . S
C188 H179 0.929 . S
C188 C180 1.378 . S
C188 C183 1.350 . S
C189 H176 0.929 . S
C189 C181 1.433 . S
C189 N191 1.384 . S
N190 C186 1.427 . S
N190 C187 1.384 . S
N191 C183 1.427 . S
N191 C189 1.384 . S
H192 C198 0.930 . S
H193 C202 0.930 . S
H194 C207 0.929 . S
H195 C205 0.929 . S
H196 C200 0.929 . S
H197 C206 0.929 . S
C198 H192 0.930 . S
C198 C199 1.367 . S
C198 C206 1.378 . S
C199 C198 1.367 . S
C199 C207 1.433 . S
C200 H196 0.929 . S
C200 C202 1.378 . S
C200 C204 1.350 . S
C201 C204 1.463 1_556 S
C201 C206 1.350 . S
C201 N209 1.427 . S
C202 H193 0.930 . S
C202 C200 1.378 . S
C202 C203 1.367 . S
C203 C202 1.367 . S
C203 C205 1.433 . S
C204 C200 1.350 . S
C204 C201 1.463 1_554 S
C204 N208 1.427 . S
C205 H195 0.929 . S
C205 C203 1.433 . S
C205 N208 1.384 . S
C206 H197 0.929 . S
C206 C198 1.378 . S
C206 C201 1.350 . S
C207 H194 0.929 . S
C207 C199 1.433 . S
C207 N209 1.384 . S
N208 C204 1.427 . S
N208 C205 1.384 . S
N209 C201 1.427 . S
N209 C207 1.384 . S
H210 C216 0.930 . S
H211 C220 0.930 . S
H212 C225 0.929 . S
H213 C223 0.929 . S
H214 C218 0.929 . S
H215 C224 0.929 . S
C216 H210 0.930 . S
C216 C217 1.367 . S
C216 C224 1.378 . S
C217 C216 1.367 . S
C217 C225 1.433 . S
C218 H214 0.929 . S
C218 C220 1.378 . S
C218 C222 1.350 . S
C219 C222 1.463 . S
C219 C224 1.350 . S
C219 N227 1.427 . S
C220 H211 0.930 . S
C220 C218 1.378 . S
C220 C221 1.367 . S
C221 C220 1.367 . S
C221 C223 1.433 . S
C222 C218 1.350 . S
C222 C219 1.463 . S
C222 N226 1.427 . S
C223 H213 0.929 . S
C223 C221 1.433 . S
C223 N226 1.384 . S
C224 H215 0.929 . S
C224 C216 1.378 . S
C224 C219 1.350 . S
C225 H212 0.929 . S
C225 C217 1.433 . S
C225 N227 1.384 . S
N226 C222 1.427 . S
N226 C223 1.384 . S
N227 C219 1.427 . S
N227 C225 1.384 . S
H228 C234 0.930 . S
H229 C238 0.930 . S
H230 C243 0.929 . S
H231 C241 0.929 . S
H232 C236 0.929 . S
H233 C242 0.929 . S
C234 H228 0.930 . S
C234 C235 1.367 . S
C234 C242 1.378 . S
C235 C234 1.367 . S
C235 C243 1.433 . S
C236 H232 0.929 . S
C236 C238 1.378 . S
C236 C240 1.350 . S
C237 C240 1.463 . S
C237 C242 1.350 . S
C237 N245 1.427 . S
C238 H229 0.930 . S
C238 C236 1.378 . S
C238 C239 1.367 . S
C239 C238 1.367 . S
C239 C241 1.433 . S
C240 C236 1.350 . S
C240 C237 1.463 . S
C240 N244 1.427 . S
C241 H231 0.929 . S
C241 C239 1.433 . S
C241 N244 1.384 . S
C242 H233 0.929 . S
C242 C234 1.378 . S
C242 C237 1.350 . S
C243 H230 0.929 . S
C243 C235 1.433 . S
C243 N245 1.384 . S
N244 C240 1.427 . S
N244 C241 1.384 . S
N245 C237 1.427 . S
N245 C243 1.384 . S
H246 C252 0.930 . S
H247 C256 0.930 . S
H248 C261 0.929 . S
H249 C259 0.929 . S
H250 C254 0.929 . S
H251 C260 0.929 . S
C252 H246 0.930 . S
C252 C253 1.367 . S
C252 C260 1.378 . S
C253 C252 1.367 . S
C253 C261 1.433 . S
C254 H250 0.929 . S
C254 C256 1.378 . S
C254 C258 1.350 . S
C255 C258 1.463 1_556 S
C255 C260 1.350 . S
C255 N263 1.427 . S
C256 H247 0.930 . S
C256 C254 1.378 . S
C256 C257 1.367 . S
C257 C256 1.367 . S
C257 C259 1.433 . S
C258 C254 1.350 . S
C258 C255 1.463 1_554 S
C258 N262 1.427 . S
C259 H249 0.929 . S
C259 C257 1.433 . S
C259 N262 1.384 . S
C260 H251 0.929 . S
C260 C252 1.378 . S
C260 C255 1.350 . S
C261 H248 0.929 . S
C261 C253 1.433 . S
C261 N263 1.384 . S
N262 C258 1.427 . S
N262 C259 1.384 . S
N263 C255 1.427 . S
N263 C261 1.384 . S
H264 C270 0.930 . S
H265 C274 0.930 . S
H266 C279 0.929 . S
H267 C277 0.929 . S
H268 C272 0.929 . S
H269 C278 0.929 . S
C270 H264 0.930 . S
C270 C271 1.367 . S
C270 C278 1.378 . S
C271 C270 1.367 . S
C271 C279 1.433 . S
C272 H268 0.929 . S
C272 C274 1.378 . S
C272 C276 1.350 . S
C273 C276 1.463 . S
C273 C278 1.350 . S
C273 N281 1.427 . S
C274 H265 0.930 . S
C274 C272 1.378 . S
C274 C275 1.367 . S
C275 C274 1.367 . S
C275 C277 1.433 . S
C276 C272 1.350 . S
C276 C273 1.463 . S
C276 N280 1.427 . S
C277 H267 0.929 . S
C277 C275 1.433 . S
C277 N280 1.384 . S
C278 H269 0.929 . S
C278 C270 1.378 . S
C278 C273 1.350 . S
C279 H266 0.929 . S
C279 C271 1.433 . S
C279 N281 1.384 . S
N280 C276 1.427 . S
N280 C277 1.384 . S
N281 C273 1.427 . S
N281 C279 1.384 . S
H282 C288 0.930 . S
H283 C292 0.930 . S
H284 C297 0.929 . S
H285 C295 0.929 . S
H286 C290 0.929 . S
H287 C296 0.929 . S
C288 H282 0.930 . S
C288 C289 1.367 . S
C288 C296 1.378 . S
C289 C288 1.367 . S
C289 C297 1.433 . S
C290 H286 0.929 . S
C290 C292 1.378 . S
C290 C294 1.350 . S
C291 C294 1.463 . S
C291 C296 1.350 . S
C291 N299 1.427 . S
C292 H283 0.930 . S
C292 C290 1.378 . S
C292 C293 1.367 . S
C293 C292 1.367 . S
C293 C295 1.433 . S
C294 C290 1.350 . S
C294 C291 1.463 . S
C294 N298 1.427 . S
C295 H285 0.929 . S
C295 C293 1.433 . S
C295 N298 1.384 . S
C296 H287 0.929 . S
C296 C288 1.378 . S
C296 C291 1.350 . S
C297 H284 0.929 . S
C297 C289 1.433 . S
C297 N299 1.384 . S
N298 C294 1.427 . S
N298 C295 1.384 . S
N299 C291 1.427 . S
N299 C297 1.384 . S
C91 C11 1.357 . S
C95 C53 1.356 . S
C109 C25 1.356 . S
C113 C67 1.359 . S
C127 C39 1.356 . S
C131 C81 1.359 . S
C145 C19 1.544 . S
C149 C61 1.544 . S
C163 C75 1.545 . S
C167 C33 1.544 . S
C181 C47 1.544 . S
C185 C5 1.545 . S
C199 C28 1.282 . S
C203 C9 1.237 . S
C217 C42 1.276 . S
C221 C23 1.248 . S
C235 C37 1.232 . S
C239 C56 1.280 . S
C253 C70 1.270 . S
C257 C51 1.238 . S
C271 C65 1.228 . S
C275 C0 1.274 . S
C289 C79 1.235 . S
C293 C14 1.270 . S
