# Generated by pormake.
# Topology umb, (4)-cn, num edge types: 1
# Building blocks:
#     Node 0, Type 0, BuildingBlock: NAWXER_clean_sbu_0, # of connection points: 4
#     Node 1, Type 0, BuildingBlock: NAWXER_clean_sbu_0, # of connection points: 4
#     Node 2, Type 0, BuildingBlock: NAWXER_clean_sbu_0, # of connection points: 4
#     Node 3, Type 0, BuildingBlock: NAWXER_clean_sbu_0, # of connection points: 4
#     Node 4, Type 0, BuildingBlock: NAWXER_clean_sbu_0, # of connection points: 4
#     Node 5, Type 0, BuildingBlock: NAWXER_clean_sbu_0, # of connection points: 4
#     Node 6, Type 0, BuildingBlock: NAWXER_clean_sbu_0, # of connection points: 4
#     Node 7, Type 0, BuildingBlock: NAWXER_clean_sbu_0, # of connection points: 4
#     Node 8, Type 0, BuildingBlock: NAWXER_clean_sbu_0, # of connection points: 4
#     Node 9, Type 0, BuildingBlock: NAWXER_clean_sbu_0, # of connection points: 4
#     Node 10, Type 0, BuildingBlock: NAWXER_clean_sbu_0, # of connection points: 4
#     Node 11, Type 0, BuildingBlock: NAWXER_clean_sbu_0, # of connection points: 4
#     Edge 12, Type (0, 0), BuildingBlock: OJICUG_clean_linker_0, # of connection points: 2
#     Edge 13, Type (0, 0), BuildingBlock: OJICUG_clean_linker_0, # of connection points: 2
#     Edge 14, Type (0, 0), BuildingBlock: OJICUG_clean_linker_0, # of connection points: 2
#     Edge 15, Type (0, 0), BuildingBlock: OJICUG_clean_linker_0, # of connection points: 2
#     Edge 16, Type (0, 0), BuildingBlock: OJICUG_clean_linker_0, # of connection points: 2
#     Edge 17, Type (0, 0), BuildingBlock: OJICUG_clean_linker_0, # of connection points: 2
#     Edge 18, Type (0, 0), BuildingBlock: OJICUG_clean_linker_0, # of connection points: 2
#     Edge 19, Type (0, 0), BuildingBlock: OJICUG_clean_linker_0, # of connection points: 2
#     Edge 20, Type (0, 0), BuildingBlock: OJICUG_clean_linker_0, # of connection points: 2
#     Edge 21, Type (0, 0), BuildingBlock: OJICUG_clean_linker_0, # of connection points: 2
#     Edge 22, Type (0, 0), BuildingBlock: OJICUG_clean_linker_0, # of connection points: 2
#     Edge 23, Type (0, 0), BuildingBlock: OJICUG_clean_linker_0, # of connection points: 2
#     Edge 24, Type (0, 0), BuildingBlock: OJICUG_clean_linker_0, # of connection points: 2
#     Edge 25, Type (0, 0), BuildingBlock: OJICUG_clean_linker_0, # of connection points: 2
#     Edge 26, Type (0, 0), BuildingBlock: OJICUG_clean_linker_0, # of connection points: 2
#     Edge 27, Type (0, 0), BuildingBlock: OJICUG_clean_linker_0, # of connection points: 2
#     Edge 28, Type (0, 0), BuildingBlock: OJICUG_clean_linker_0, # of connection points: 2
#     Edge 29, Type (0, 0), BuildingBlock: OJICUG_clean_linker_0, # of connection points: 2
#     Edge 30, Type (0, 0), BuildingBlock: OJICUG_clean_linker_0, # of connection points: 2
#     Edge 31, Type (0, 0), BuildingBlock: OJICUG_clean_linker_0, # of connection points: 2
#     Edge 32, Type (0, 0), BuildingBlock: OJICUG_clean_linker_0, # of connection points: 2
#     Edge 33, Type (0, 0), BuildingBlock: OJICUG_clean_linker_0, # of connection points: 2
#     Edge 34, Type (0, 0), BuildingBlock: OJICUG_clean_linker_0, # of connection points: 2
#     Edge 35, Type (0, 0), BuildingBlock: OJICUG_clean_linker_0, # of connection points: 2
# Relax obj value: 0.192
# Max RMSD: 0.212
# Mean RMSD: 0.211
data_MOF--net-umb--node1-NAWXER_clean_sbu_0--edge1-OJICUG_clean_linker_0
_symmetry_space_group_name_H-M    P1
_symmetry_Int_Tables_number       1
_symmetry_cell_setting            triclinic
loop_
_symmetry_equiv_pos_as_xyz
'x, y, z'
_cell_length_a     34.672531
_cell_length_b     34.278665
_cell_length_c     26.301792
_cell_angle_alpha  89.514182
_cell_angle_beta   89.556855
_cell_angle_gamma 120.07434
loop_
_atom_site_label
_atom_site_type_symbol
_atom_site_fract_x
_atom_site_fract_y
_atom_site_fract_z
_atom_type_partial_charge
C0 C 0.60626 0.21796 0.37344 0.0
C1 C 0.56594 0.06378 0.34499 0.0
O2 O 0.62634 0.2035 0.34546 0.0
Zn3 Zn 0.58366 0.14122 0.35519 0.0
O4 O 0.56911 0.19036 0.39517 0.0
Zn5 Zn 0.52465 0.1189 0.39846 0.0
O6 O 0.52301 0.11039 0.47166 0.0
O7 O 0.58952 0.13405 0.43726 0.0
O8 O 0.53657 0.06623 0.37268 0.0
O9 O 0.59753 0.09907 0.32459 0.0
O10 O 0.53052 0.1388 0.31214 0.0
O11 O 0.47262 0.11441 0.36381 0.0
C12 C 0.56404 0.12269 0.47694 0.0
C13 C 0.49024 0.12915 0.32019 0.0
C14 C 0.30323 0.57895 0.69668 0.0
C15 C 0.35212 0.47735 0.64927 0.0
O16 O 0.3343 0.58488 0.66629 0.0
Zn17 Zn 0.32189 0.52514 0.66735 0.0
O18 O 0.2761 0.53972 0.71503 0.0
Zn19 Zn 0.26709 0.47304 0.70567 0.0
O20 O 0.26844 0.4592 0.77759 0.0
O21 O 0.3318 0.51579 0.74786 0.0
O22 O 0.31548 0.45587 0.67508 0.0
O23 O 0.36513 0.51706 0.63351 0.0
O24 O 0.26472 0.49562 0.6214 0.0
O25 O 0.2108 0.44224 0.66758 0.0
C26 C 0.30867 0.48986 0.78515 0.0
C27 C 0.22397 0.46481 0.62626 0.0
C28 C 0.83979 0.43942 0.14743 0.0
C29 C 0.81412 0.35509 0.98912 0.0
O30 O 0.84464 0.40559 0.13941 0.0
Zn31 Zn 0.83223 0.39995 0.06679 0.0
O32 O 0.83171 0.45807 0.10971 0.0
Zn33 Zn 0.82059 0.44716 1.02903 0.0
O34 O 0.76341 0.44164 1.02578 0.0
O35 O 0.76422 0.386 0.06817 0.0
O36 O 0.812 0.39116 0.98244 0.0
O37 O 0.82529 0.34722 1.03221 0.0
O38 O 0.8905 0.45637 1.03202 0.0
O39 O 0.86792 0.50066 0.99838 0.0
C40 C 0.74309 0.40517 1.05149 0.0
C41 C 0.89902 0.4926 1.00775 0.0
C42 C 0.47343 0.81373 0.45243 0.0
C43 C 0.49806 0.74745 0.29785 0.0
O44 O 0.49456 0.79229 0.44863 0.0
Zn45 Zn 0.49102 0.78632 0.37518 0.0
O46 O 0.45912 0.8232 0.41177 0.0
Zn47 Zn 0.45872 0.81007 0.32928 0.0
O48 O 0.3969 0.78019 0.31924 0.0
O49 O 0.419 0.74376 0.37048 0.0
O50 O 0.47728 0.7686 0.28811 0.0
O51 O 0.51352 0.75003 0.34205 0.0
O52 O 0.53051 0.85764 0.35346 0.0
O53 O 0.48933 0.86721 0.29693 0.0
C54 C 0.38777 0.74681 0.34823 0.0
C55 C 0.52455 0.88338 0.32261 0.0
C56 C 0.61662 0.47208 0.66179 0.0
C57 C 0.5267 0.40503 0.81733 0.0
O58 O 0.62276 0.48907 0.70579 0.0
Zn59 Zn 0.56872 0.44177 0.73815 0.0
O60 O 0.58098 0.43453 0.65323 0.0
Zn61 Zn 0.52355 0.38526 0.69719 0.0
O62 O 0.47245 0.38131 0.66664 0.0
O63 O 0.51431 0.44641 0.70425 0.0
O64 O 0.50975 0.38055 0.77808 0.0
O65 O 0.56027 0.44437 0.8114 0.0
O66 O 0.58159 0.38624 0.73582 0.0
O67 O 0.52813 0.33312 0.68976 0.0
C68 C 0.47965 0.42004 0.6785 0.0
C69 C 0.56285 0.34687 0.71634 0.0
C70 C 0.14181 0.65117 0.1105 0.0
C71 C 0.20576 0.74653 0.95584 0.0
O72 O 0.15382 0.69276 0.10505 0.0
Zn73 Zn 0.16872 0.6975 1.03307 0.0
O74 O 0.1427 0.6291 0.07158 0.0
Zn75 Zn 0.16209 0.64384 0.99038 0.0
O76 O 0.20617 0.62727 0.9857 0.0
O77 O 0.22253 0.68268 1.03937 0.0
O78 O 0.19326 0.7052 0.9476 0.0
O79 O 0.19753 0.75726 0.99896 0.0
O80 O 0.10207 0.6535 1.0031 0.0
O81 O 0.10935 0.60448 0.95627 0.0
C82 C 0.23187 0.65472 1.01842 0.0
C83 C 0.0847 0.61825 0.97513 0.0
C84 C 0.7191 0.39378 0.44088 0.0
C85 C 0.86743 0.4996 0.48723 0.0
O86 O 0.7443 0.38927 0.47209 0.0
Zn87 Zn 0.78999 0.44979 0.47016 0.0
O88 O 0.72997 0.43259 0.42198 0.0
Zn89 Zn 0.78567 0.50037 0.43081 0.0
O90 O 0.80125 0.5141 0.35928 0.0
O91 O 0.80974 0.45851 0.3893 0.0
O92 O 0.85134 0.51982 0.46092 0.0
O93 O 0.84172 0.46004 0.50401 0.0
O94 O 0.76032 0.47888 0.51519 0.0
O95 O 0.75855 0.53076 0.46741 0.0
C96 C 0.81193 0.48398 0.35187 0.0
C97 C 0.74929 0.50899 0.50923 0.0
C98 C 0.36508 0.75508 0.75828 0.0
C99 C 0.48034 0.90815 0.78387 0.0
O100 O 0.39932 0.76922 0.78593 0.0
Zn101 Zn 0.42037 0.83146 0.77388 0.0
O102 O 0.35686 0.78298 0.73493 0.0
Zn103 Zn 0.38548 0.8546 0.72903 0.0
O104 O 0.39402 0.86154 0.65553 0.0
O105 O 0.43488 0.83671 0.69203 0.0
O106 O 0.4496 0.90644 0.75541 0.0
O107 O 0.47561 0.87259 0.80479 0.0
O108 O 0.3699 0.83642 0.81555 0.0
O109 O 0.33796 0.86103 0.76241 0.0
C110 C 0.4221 0.84803 0.65151 0.0
C111 C 0.33994 0.84681 0.80657 0.0
C112 C 0.47611 0.32096 1.01805 0.0
C113 C 0.45197 0.22714 0.17126 0.0
O114 O 0.45451 0.27808 1.02197 0.0
Zn115 Zn 0.45959 0.27493 0.09486 0.0
O116 O 0.49155 0.34453 1.05845 0.0
Zn117 Zn 0.49285 0.33062 0.14073 0.0
O118 O 0.55502 0.36267 0.14964 0.0
O119 O 0.53176 0.30477 0.09786 0.0
O120 O 0.47342 0.26916 0.18149 0.0
O121 O 0.43642 0.21521 0.12703 0.0
O122 O 0.42084 0.30628 0.11776 0.0
O123 O 0.46297 0.3572 0.17349 0.0
C124 C 0.56355 0.33903 0.11976 0.0
C125 C 0.4274 0.33801 0.14836 0.0
C126 C 0.11235 0.56986 0.31252 0.0
C127 C 0.13493 0.50489 0.46984 0.0
O128 O 0.10696 0.53063 0.31929 0.0
Zn129 Zn 0.11827 0.53439 0.39246 0.0
O130 O 0.12007 0.59516 0.35118 0.0
Zn131 Zn 0.12993 0.59222 0.43185 0.0
O132 O 0.18693 0.64394 0.43727 0.0
O133 O 0.1864 0.58898 0.39305 0.0
O134 O 0.13716 0.54297 0.47723 0.0
O135 O 0.12452 0.48717 0.42619 0.0
O136 O 0.05993 0.53129 0.42743 0.0
O137 O 0.08315 0.59754 0.46273 0.0
C138 C 0.20741 0.62883 0.41118 0.0
C139 C 0.05179 0.55844 0.45256 0.0
C140 C 0.72632 0.2229 0.83436 0.0
C141 C 0.64194 0.15595 0.67824 0.0
O142 O 0.74097 0.21989 0.79108 0.0
Zn143 Zn 0.68384 0.18367 0.7565 0.0
O144 O 0.68429 0.20195 0.84272 0.0
Zn145 Zn 0.62621 0.16042 0.80027 0.0
O146 O 0.5989 0.10353 0.83316 0.0
O147 O 0.65161 0.11259 0.77896 0.0
O148 O 0.61677 0.14688 0.71794 0.0
O149 O 0.68413 0.17725 0.68335 0.0
O150 O 0.65449 0.22672 0.75865 0.0
O151 O 0.59406 0.19076 0.80765 0.0
C152 C 0.61893 0.0871 0.80896 0.0
C153 C 0.61956 0.2241 0.77921 0.0
C154 C 0.38405 0.53386 0.98772 0.0
C155 C 0.4553 0.61402 0.14542 0.0
O156 O 0.42483 0.56353 0.99375 0.0
Zn157 Zn 0.42203 0.57006 0.06668 0.0
O158 O 0.3579 0.51888 1.02687 0.0
Zn159 Zn 0.36227 0.5318 0.10879 0.0
O160 O 0.31925 0.55077 0.11635 0.0
O161 O 0.37724 0.59594 0.06746 0.0
O162 O 0.4149 0.58267 0.15275 0.0
O163 O 0.47341 0.61813 0.10202 0.0
O164 O 0.41049 0.50561 0.09436 0.0
O165 O 0.34833 0.47543 0.14044 0.0
C166 C 0.33965 0.58562 0.08793 0.0
C167 C 0.3809 0.47307 0.12188 0.0
C168 C 0.55636 0.11578 0.57256 0.0
C169 C 0.58337 0.12734 0.52853 0.0
H170 H 0.55343 0.11532 0.65399 0.0
C171 C 0.62966 0.14604 0.53436 0.0
H172 H 0.52063 0.10131 0.56965 0.0
C173 C 0.64856 0.15427 0.58282 0.0
C174 C 0.6217 0.1439 0.62682 0.0
H175 H 0.65159 0.15542 0.5014 0.0
H176 H 0.68439 0.16963 0.58569 0.0
C177 C 0.57526 0.12387 0.62103 0.0
C178 C 0.37393 0.52966 0.84353 0.0
C179 C 0.32855 0.4978 0.83682 0.0
H180 H 0.42706 0.56559 0.89579 0.0
C181 C 0.30232 0.47574 0.88016 0.0
H182 H 0.3953 0.54727 0.81112 0.0
C183 C 0.32064 0.48643 0.92897 0.0
C184 C 0.36573 0.51928 0.93573 0.0
H185 H 0.2673 0.45106 0.87655 0.0
H186 H 0.29911 0.46959 0.96152 0.0
C187 C 0.39227 0.54015 0.89223 0.0
C188 C 0.83382 0.44128 0.29188 0.0
C189 C 0.82397 0.47596 0.30002 0.0
H190 H 0.84701 0.40283 0.23774 0.0
C191 C 0.82322 0.5009 0.25772 0.0
H192 H 0.83483 0.42138 0.3235 0.0
C193 C 0.83032 0.49026 0.20846 0.0
C194 C 0.83837 0.45439 0.20013 0.0
H195 H 0.81589 0.52789 0.26245 0.0
H196 H 0.8281 0.50937 0.17674 0.0
C197 C 0.84095 0.43065 0.2426 0.0
C198 C 0.43657 0.84592 0.50768 0.0
C199 C 0.46308 0.82559 0.50333 0.0
H200 H 0.40298 0.86905 0.55728 0.0
C201 C 0.47778 0.81489 0.54827 0.0
H202 H 0.42459 0.85469 0.47401 0.0
C203 C 0.46546 0.82329 0.59612 0.0
C204 C 0.43796 0.84251 0.60049 0.0
H205 H 0.49823 0.79926 0.54657 0.0
H206 H 0.4768 0.81378 0.62976 0.0
C207 C 0.42412 0.85419 0.55556 0.0
C208 C 0.46623 0.31862 0.92319 0.0
C209 C 0.48575 0.34362 0.96713 0.0
H210 H 0.46317 0.31837 0.84197 0.0
C211 C 0.51641 0.39009 0.96155 0.0
H212 H 0.44237 0.28286 0.92593 0.0
C213 C 0.52859 0.41058 0.91313 0.0
C214 C 0.51014 0.38519 0.86909 0.0
H215 H 0.53213 0.41047 0.99452 0.0
H216 H 0.55335 0.44606 0.9102 0.0
C217 C 0.47811 0.33913 0.8749 0.0
C218 C 0.12296 0.63297 0.25373 0.0
C219 C 0.11455 0.58852 0.26037 0.0
H220 H 0.13792 0.68744 0.20178 0.0
C221 C 0.11218 0.56392 0.21682 0.0
H222 H 0.12507 0.65306 0.28627 0.0
C223 C 0.11964 0.58379 0.16816 0.0
C224 C 0.12969 0.6288 0.16172 0.0
H225 H 0.1059 0.52971 0.22034 0.0
H226 H 0.1187 0.56414 0.13567 0.0
C227 C 0.13043 0.65282 0.20513 0.0
C228 C 0.65019 0.32091 0.45309 0.0
C229 C 0.68219 0.35336 0.42011 0.0
H230 H 0.59964 0.25201 0.46304 0.0
C231 C 0.68479 0.34289 0.36925 0.0
H232 H 0.64841 0.32859 0.49264 0.0
C233 C 0.65818 0.29884 0.35272 0.0
C234 C 0.62808 0.26555 0.38668 0.0
H235 H 0.71003 0.36768 0.3437 0.0
H236 H 0.66262 0.29035 0.31436 0.0
C237 C 0.62261 0.2773 0.43616 0.0
C238 C 0.31912 0.69386 0.6993 0.0
C239 C 0.33797 0.70712 0.7476 0.0
H240 H 0.2928 0.64098 0.64478 0.0
C241 C 0.33558 0.67477 0.78242 0.0
H242 H 0.32059 0.71835 0.67186 0.0
C243 C 0.31816 0.63028 0.76738 0.0
C244 C 0.30422 0.61847 0.71719 0.0
H245 H 0.3496 0.68439 0.81999 0.0
H246 H 0.31983 0.60635 0.79318 0.0
C247 C 0.303 0.64976 0.68384 0.0
C248 C 0.62399 0.32471 0.09084 0.0
C249 C 0.60975 0.35505 0.1042 0.0
H250 H 0.67849 0.31719 1.06404 0.0
C251 C 0.63914 0.40159 0.09879 0.0
H252 H 0.60158 0.28866 0.09439 0.0
C253 C 0.68207 0.41768 0.07975 0.0
C254 C 0.69666 0.38751 0.06718 0.0
H255 H 0.62857 0.42558 0.10809 0.0
H256 H 0.70421 0.45377 0.07598 0.0
C257 C 0.6676 0.34093 0.0733 0.0
C258 C 0.32693 0.67024 0.37409 0.0
C259 C 0.34138 0.71552 0.36226 0.0
H260 H 0.27194 0.60651 0.3985 0.0
C261 C 0.31198 0.73214 0.36779 0.0
H262 H 0.34939 0.65704 0.37038 0.0
C263 C 0.26875 0.70403 0.38554 0.0
C264 C 0.25398 0.65863 0.39666 0.0
H265 H 0.32275 0.7672 0.35962 0.0
H266 H 0.24657 0.71756 0.38948 0.0
C267 C 0.28304 0.64164 0.39035 0.0
C268 C 0.62369 0.3315 0.73813 0.0
C269 C 0.57829 0.31577 0.73021 0.0
H270 H 0.67273 0.31395 0.75953 0.0
C271 C 0.54684 0.27032 0.73941 0.0
H272 H 0.64833 0.36664 0.73146 0.0
C273 C 0.56048 0.24095 0.75709 0.0
C274 C 0.60585 0.25639 0.76445 0.0
H275 H 0.51158 0.25773 0.7342 0.0
H276 H 0.5356 0.20592 0.76395 0.0
C277 C 0.63753 0.30166 0.75434 0.0
C278 C 0.29707 0.64502 1.00557 0.0
C279 C 0.26697 0.64795 1.03878 0.0
H280 H 0.34498 0.62378 0.99615 0.0
C281 C 0.26449 0.63518 0.09005 0.0
H282 H 0.29875 0.65418 0.96574 0.0
C283 C 0.28952 0.61619 0.10705 0.0
C284 C 0.31812 0.61125 0.07318 0.0
H285 H 0.24066 0.63653 0.11584 0.0
H286 H 0.28538 0.60396 0.14596 0.0
C287 C 0.32319 0.62752 1.02295 0.0
C288 C 0.56663 0.00471 0.29086 0.0
C289 C 0.56408 0.02033 0.33918 0.0
H290 H 0.55614 0.94754 0.24742 0.0
C291 C 0.55778 -0.00676 0.38221 0.0
H292 H 0.57176 0.02535 0.25726 0.0
C293 C 0.55128 0.94989 0.37683 0.0
C294 C 0.54938 0.9325 0.3282 0.0
H295 H 0.55632 0.00505 0.41988 0.0
H296 H 0.5433 0.9285 0.41039 0.0
C297 C 0.55841 0.96064 0.2853 0.0
C298 C 0.4299 0.49222 0.64489 0.0
C299 C 0.38392 0.46074 0.64779 0.0
H300 H 0.49625 0.50403 0.65373 0.0
C301 C 0.36984 0.41513 0.65682 0.0
H302 H 0.44189 0.52776 0.63848 0.0
C303 C 0.40126 0.40154 0.66451 0.0
C304 C 0.44703 0.4336 0.66483 0.0
H305 H 0.33468 0.39029 0.65955 0.0
H306 H 0.38969 0.36632 0.6727 0.0
C307 C 0.46113 0.47886 0.65412 0.0
C308 C 0.97402 0.51067 0.97652 0.0
C309 C 0.94511 0.52557 0.99268 0.0
H310 H 0.0405 0.52868 0.95596 0.0
C311 C 0.96125 0.57208 0.997 0.0
H312 H 0.96217 0.475 0.97252 0.0
C313 C 0.00654 0.60308 0.98866 0.0
C314 C 0.03589 0.58798 0.97432 0.0
H315 H 0.93937 0.58427 1.00946 0.0
H316 H 0.01882 0.63854 0.99513 0.0
C317 C 0.01879 0.54159 0.96662 0.0
C318 C -0.02399 0.50018 0.48175 0.0
C319 C 0.00593 0.54499 0.46792 0.0
H320 H 0.90898 0.45123 0.50115 0.0
C321 C -0.00879 0.57647 0.46677 0.0
H322 H -0.0132 0.47549 0.48339 0.0
C323 C 0.9463 0.56251 0.47591 0.0
C324 C 0.91591 0.51718 0.48784 0.0
H325 H 0.01391 0.61135 0.45622 0.0
H326 H 0.9351 0.58673 0.47185 0.0
C327 C 0.93158 0.48653 0.49242 0.0
C328 C 0.57412 0.00988 0.84565 0.0
C329 C 0.59482 0.03805 0.80312 0.0
H330 H 0.52154 0.94555 0.87259 0.0
C331 C 0.58099 0.02104 0.75415 0.0
H332 H 0.58367 0.02273 0.88374 0.0
C333 C 0.54417 0.97811 0.74795 0.0
C334 C 0.52179 0.95107 0.79055 0.0
H335 H 0.59568 0.04251 0.72084 0.0
H336 H 0.53218 0.96664 0.70996 0.0
C337 C 0.5383 0.9662 0.83931 0.0
C338 C 0.38596 0.41735 0.17892 0.0
C339 C 0.38391 0.43226 0.12974 0.0
H340 H 0.40141 0.37445 0.22374 0.0
C341 C 0.38758 0.40954 0.08756 0.0
H342 H 0.38303 0.43449 0.21188 0.0
C343 C 0.39585 0.37397 0.09431 0.0
C344 C 0.40217 0.36175 0.14332 0.0
H345 H 0.3857 0.42045 1.04931 0.0
H346 H 0.40155 0.35904 1.061 0.0
C347 C 0.39588 0.3828 0.18567 0.0
C348 C 0.4733 0.13869 0.22995 0.0
C349 C 0.4691 0.14446 0.28217 0.0
H350 H 0.46918 0.15909 0.15368 0.0
C351 C 0.4532 0.17319 0.29717 0.0
H352 H 0.48619 0.11735 0.21737 0.0
C353 C 0.44518 0.19841 0.26084 0.0
C354 C 0.45127 0.19413 0.20871 0.0
H355 H 0.45057 0.17905 0.33714 0.0
H356 H 0.43606 0.22272 0.27358 0.0
C357 C 0.4636 0.16262 0.19354 0.0
C358 C 0.17703 0.46681 0.49789 0.0
C359 C 0.14981 0.48506 0.51028 0.0
H360 H 0.22249 0.44629 0.52544 0.0
C361 C 0.14197 0.48954 0.56185 0.0
H362 H 0.18416 0.46353 0.45849 0.0
C363 C 0.16252 0.47793 0.60015 0.0
C364 C 0.19235 0.46293 0.58758 0.0
H365 H 0.12136 0.50374 0.57249 0.0
H366 H 0.15787 0.48414 0.63943 0.0
C367 C 0.19884 0.45675 0.53615 0.0
C368 C 0.77237 0.27458 0.96196 0.0
C369 C 0.79831 0.32057 0.94884 0.0
H370 H 0.72859 0.20747 0.9357 0.0
C371 C 0.80468 0.33318 0.8971 0.0
H372 H 0.76646 0.26389 1.00151 0.0
C373 C 0.78432 0.3006 0.85935 0.0
C374 C 0.75602 0.25504 0.87276 0.0
H375 H 0.82435 0.36838 0.88593 0.0
H376 H 0.78828 0.31144 0.8199 0.0
C377 C 0.75072 0.24227 0.92435 0.0
C378 C 0.47107 0.63739 0.23656 0.0
C379 C 0.47672 0.64925 0.18459 0.0
H380 H 0.47545 0.65984 0.31345 0.0
C381 C 0.49554 0.69499 0.17079 0.0
H382 H 0.45608 0.60234 0.24825 0.0
C383 C 0.5051 0.72763 0.20799 0.0
C384 C 0.49765 0.71548 0.25984 0.0
H385 H 0.4995 0.70504 0.13106 0.0
H386 H 0.51646 0.76209 0.1961 0.0
C387 C 0.48224 0.67031 0.27386 0.0
C388 C 0.69693 0.50611 0.63657 0.0
C389 C 0.6527 0.49149 0.6227 0.0
H390 H 0.76253 0.52274 0.61101 0.0
C391 C 0.64263 0.48958 0.5708 0.0
H392 H 0.70552 0.50728 0.67627 0.0
C393 C 0.67572 0.50019 0.53351 0.0
C394 C 0.71907 0.51138 0.54747 0.0
H395 H 0.60875 0.4781 0.55907 0.0
H396 H 0.6665 0.4961 0.49383 0.0
C397 C 0.72959 0.51505 0.5993 0.0
C398 C 0.27838 0.81514 0.93288 0.0
C399 C 0.23587 0.78113 0.91813 0.0
H400 H 0.34535 0.86277 0.90862 0.0
C401 C 0.22625 0.77511 0.86601 0.0
H402 H 0.287 0.8199 0.97274 0.0
C403 C 0.25917 0.8009 0.82934 0.0
C404 C 0.30284 0.83199 0.84406 0.0
H405 H 0.19398 0.74869 0.85359 0.0
H406 H 0.25154 0.79343 0.78951 0.0
C407 C 0.3118 0.8397 0.8962 0.0
loop_
_geom_bond_atom_site_label_1
_geom_bond_atom_site_label_2
_geom_bond_distance
_geom_bond_site_symmetry_2
_ccdc_geom_bond_type
C0 O2 1.247 . S
C0 O4 1.258 . S
C1 O8 1.247 . S
C1 O9 1.258 . S
O2 C0 1.247 . S
O2 Zn3 2.028 . S
Zn3 O2 2.028 . S
Zn3 O7 2.035 . S
Zn3 O9 2.035 . S
Zn3 O10 2.028 . S
O4 C0 1.258 . S
O4 Zn5 2.035 . S
Zn5 O4 2.035 . S
Zn5 O6 2.028 . S
Zn5 O8 2.028 . S
Zn5 O11 2.035 . S
O6 Zn5 2.028 . S
O6 C12 1.247 . S
O7 Zn3 2.035 . S
O7 C12 1.258 . S
O8 C1 1.247 . S
O8 Zn5 2.028 . S
O9 C1 1.258 . S
O9 Zn3 2.035 . S
O10 Zn3 2.028 . S
O10 C13 1.247 . S
O11 Zn5 2.035 . S
O11 C13 1.258 . S
C12 O6 1.247 . S
C12 O7 1.258 . S
C13 O10 1.247 . S
C13 O11 1.258 . S
C14 O16 1.247 . S
C14 O18 1.258 . S
C15 O22 1.247 . S
C15 O23 1.258 . S
O16 C14 1.247 . S
O16 Zn17 2.028 . S
Zn17 O16 2.028 . S
Zn17 O21 2.035 . S
Zn17 O23 2.035 . S
Zn17 O24 2.028 . S
O18 C14 1.258 . S
O18 Zn19 2.035 . S
Zn19 O18 2.035 . S
Zn19 O20 2.028 . S
Zn19 O22 2.028 . S
Zn19 O25 2.035 . S
O20 Zn19 2.028 . S
O20 C26 1.247 . S
O21 Zn17 2.035 . S
O21 C26 1.258 . S
O22 C15 1.247 . S
O22 Zn19 2.028 . S
O23 C15 1.258 . S
O23 Zn17 2.035 . S
O24 Zn17 2.028 . S
O24 C27 1.247 . S
O25 Zn19 2.035 . S
O25 C27 1.258 . S
C26 O20 1.247 . S
C26 O21 1.258 . S
C27 O24 1.247 . S
C27 O25 1.258 . S
C28 O30 1.247 . S
C28 O32 1.258 . S
C29 O36 1.247 . S
C29 O37 1.258 . S
O30 C28 1.247 . S
O30 Zn31 2.028 . S
Zn31 O30 2.028 . S
Zn31 O35 2.035 . S
Zn31 O37 2.035 1_554 S
Zn31 O38 2.028 . S
O32 C28 1.258 . S
O32 Zn33 2.035 1_554 S
Zn33 O32 2.035 1_556 S
Zn33 O34 2.028 . S
Zn33 O36 2.028 . S
Zn33 O39 2.035 . S
O34 Zn33 2.028 . S
O34 C40 1.247 1_556 S
O35 Zn31 2.035 . S
O35 C40 1.258 . S
O36 C29 1.247 . S
O36 Zn33 2.028 . S
O37 C29 1.258 . S
O37 Zn31 2.035 1_556 S
O38 Zn31 2.028 . S
O38 C41 1.247 1_554 S
O39 Zn33 2.035 . S
O39 C41 1.258 . S
C40 O34 1.247 1_554 S
C40 O35 1.258 . S
C41 O38 1.247 1_556 S
C41 O39 1.258 . S
C42 O44 1.247 . S
C42 O46 1.258 . S
C43 O50 1.247 . S
C43 O51 1.258 . S
O44 C42 1.247 . S
O44 Zn45 2.028 . S
Zn45 O44 2.028 . S
Zn45 O49 2.035 . S
Zn45 O51 2.035 . S
Zn45 O52 2.028 . S
O46 C42 1.258 . S
O46 Zn47 2.035 . S
Zn47 O46 2.035 . S
Zn47 O48 2.028 . S
Zn47 O50 2.028 . S
Zn47 O53 2.035 . S
O48 Zn47 2.028 . S
O48 C54 1.247 . S
O49 Zn45 2.035 . S
O49 C54 1.258 . S
O50 C43 1.247 . S
O50 Zn47 2.028 . S
O51 C43 1.258 . S
O51 Zn45 2.035 . S
O52 Zn45 2.028 . S
O52 C55 1.247 . S
O53 Zn47 2.035 . S
O53 C55 1.258 . S
C54 O48 1.247 . S
C54 O49 1.258 . S
C55 O52 1.247 . S
C55 O53 1.258 . S
C56 O58 1.247 . S
C56 O60 1.258 . S
C57 O64 1.247 . S
C57 O65 1.258 . S
O58 C56 1.247 . S
O58 Zn59 2.028 . S
Zn59 O58 2.028 . S
Zn59 O63 2.035 . S
Zn59 O65 2.035 . S
Zn59 O66 2.028 . S
O60 C56 1.258 . S
O60 Zn61 2.035 . S
Zn61 O60 2.035 . S
Zn61 O62 2.028 . S
Zn61 O64 2.028 . S
Zn61 O67 2.035 . S
O62 Zn61 2.028 . S
O62 C68 1.247 . S
O63 Zn59 2.035 . S
O63 C68 1.258 . S
O64 C57 1.247 . S
O64 Zn61 2.028 . S
O65 C57 1.258 . S
O65 Zn59 2.035 . S
O66 Zn59 2.028 . S
O66 C69 1.247 . S
O67 Zn61 2.035 . S
O67 C69 1.258 . S
C68 O62 1.247 . S
C68 O63 1.258 . S
C69 O66 1.247 . S
C69 O67 1.258 . S
C70 O72 1.247 . S
C70 O74 1.258 . S
C71 O78 1.247 . S
C71 O79 1.258 . S
O72 C70 1.247 . S
O72 Zn73 2.028 . S
Zn73 O72 2.028 . S
Zn73 O77 2.035 . S
Zn73 O79 2.035 1_554 S
Zn73 O80 2.028 . S
O74 C70 1.258 . S
O74 Zn75 2.035 1_554 S
Zn75 O74 2.035 1_556 S
Zn75 O76 2.028 . S
Zn75 O78 2.028 . S
Zn75 O81 2.035 . S
O76 Zn75 2.028 . S
O76 C82 1.247 1_556 S
O77 Zn73 2.035 . S
O77 C82 1.258 . S
O78 C71 1.247 . S
O78 Zn75 2.028 . S
O79 C71 1.258 . S
O79 Zn73 2.035 1_556 S
O80 Zn73 2.028 . S
O80 C83 1.247 1_554 S
O81 Zn75 2.035 . S
O81 C83 1.258 . S
C82 O76 1.247 1_554 S
C82 O77 1.258 . S
C83 O80 1.247 1_556 S
C83 O81 1.258 . S
C84 O86 1.247 . S
C84 O88 1.258 . S
C85 O92 1.247 . S
C85 O93 1.258 . S
O86 C84 1.247 . S
O86 Zn87 2.028 . S
Zn87 O86 2.028 . S
Zn87 O91 2.035 . S
Zn87 O93 2.035 . S
Zn87 O94 2.028 . S
O88 C84 1.258 . S
O88 Zn89 2.035 . S
Zn89 O88 2.035 . S
Zn89 O90 2.028 . S
Zn89 O92 2.028 . S
Zn89 O95 2.035 . S
O90 Zn89 2.028 . S
O90 C96 1.247 . S
O91 Zn87 2.035 . S
O91 C96 1.258 . S
O92 C85 1.247 . S
O92 Zn89 2.028 . S
O93 C85 1.258 . S
O93 Zn87 2.035 . S
O94 Zn87 2.028 . S
O94 C97 1.247 . S
O95 Zn89 2.035 . S
O95 C97 1.258 . S
C96 O90 1.247 . S
C96 O91 1.258 . S
C97 O94 1.247 . S
C97 O95 1.258 . S
C98 O100 1.247 . S
C98 O102 1.258 . S
C99 O106 1.247 . S
C99 O107 1.258 . S
O100 C98 1.247 . S
O100 Zn101 2.028 . S
Zn101 O100 2.028 . S
Zn101 O105 2.035 . S
Zn101 O107 2.035 . S
Zn101 O108 2.028 . S
O102 C98 1.258 . S
O102 Zn103 2.035 . S
Zn103 O102 2.035 . S
Zn103 O104 2.028 . S
Zn103 O106 2.028 . S
Zn103 O109 2.035 . S
O104 Zn103 2.028 . S
O104 C110 1.247 . S
O105 Zn101 2.035 . S
O105 C110 1.258 . S
O106 C99 1.247 . S
O106 Zn103 2.028 . S
O107 C99 1.258 . S
O107 Zn101 2.035 . S
O108 Zn101 2.028 . S
O108 C111 1.247 . S
O109 Zn103 2.035 . S
O109 C111 1.258 . S
C110 O104 1.247 . S
C110 O105 1.258 . S
C111 O108 1.247 . S
C111 O109 1.258 . S
C112 O114 1.247 . S
C112 O116 1.258 . S
C113 O120 1.247 . S
C113 O121 1.258 . S
O114 C112 1.247 . S
O114 Zn115 2.028 . S
Zn115 O114 2.028 . S
Zn115 O119 2.035 . S
Zn115 O121 2.035 1_556 S
Zn115 O122 2.028 . S
O116 C112 1.258 . S
O116 Zn117 2.035 1_556 S
Zn117 O116 2.035 1_554 S
Zn117 O118 2.028 . S
Zn117 O120 2.028 . S
Zn117 O123 2.035 . S
O118 Zn117 2.028 . S
O118 C124 1.247 1_554 S
O119 Zn115 2.035 . S
O119 C124 1.258 . S
O120 C113 1.247 . S
O120 Zn117 2.028 . S
O121 C113 1.258 . S
O121 Zn115 2.035 1_554 S
O122 Zn115 2.028 . S
O122 C125 1.247 1_556 S
O123 Zn117 2.035 . S
O123 C125 1.258 . S
C124 O118 1.247 1_556 S
C124 O119 1.258 . S
C125 O122 1.247 1_554 S
C125 O123 1.258 . S
C126 O128 1.247 . S
C126 O130 1.258 . S
C127 O134 1.247 . S
C127 O135 1.258 . S
O128 C126 1.247 . S
O128 Zn129 2.028 . S
Zn129 O128 2.028 . S
Zn129 O133 2.035 . S
Zn129 O135 2.035 . S
Zn129 O136 2.028 . S
O130 C126 1.258 . S
O130 Zn131 2.035 . S
Zn131 O130 2.035 . S
Zn131 O132 2.028 . S
Zn131 O134 2.028 . S
Zn131 O137 2.035 . S
O132 Zn131 2.028 . S
O132 C138 1.247 . S
O133 Zn129 2.035 . S
O133 C138 1.258 . S
O134 C127 1.247 . S
O134 Zn131 2.028 . S
O135 C127 1.258 . S
O135 Zn129 2.035 . S
O136 Zn129 2.028 . S
O136 C139 1.247 . S
O137 Zn131 2.035 . S
O137 C139 1.258 . S
C138 O132 1.247 . S
C138 O133 1.258 . S
C139 O136 1.247 . S
C139 O137 1.258 . S
C140 O142 1.247 . S
C140 O144 1.258 . S
C141 O148 1.247 . S
C141 O149 1.258 . S
O142 C140 1.247 . S
O142 Zn143 2.028 . S
Zn143 O142 2.028 . S
Zn143 O147 2.035 . S
Zn143 O149 2.035 . S
Zn143 O150 2.028 . S
O144 C140 1.258 . S
O144 Zn145 2.035 . S
Zn145 O144 2.035 . S
Zn145 O146 2.028 . S
Zn145 O148 2.028 . S
Zn145 O151 2.035 . S
O146 Zn145 2.028 . S
O146 C152 1.247 . S
O147 Zn143 2.035 . S
O147 C152 1.258 . S
O148 C141 1.247 . S
O148 Zn145 2.028 . S
O149 C141 1.258 . S
O149 Zn143 2.035 . S
O150 Zn143 2.028 . S
O150 C153 1.247 . S
O151 Zn145 2.035 . S
O151 C153 1.258 . S
C152 O146 1.247 . S
C152 O147 1.258 . S
C153 O150 1.247 . S
C153 O151 1.258 . S
C154 O156 1.247 . S
C154 O158 1.258 . S
C155 O162 1.247 . S
C155 O163 1.258 . S
O156 C154 1.247 . S
O156 Zn157 2.028 . S
Zn157 O156 2.028 . S
Zn157 O161 2.035 . S
Zn157 O163 2.035 1_556 S
Zn157 O164 2.028 . S
O158 C154 1.258 . S
O158 Zn159 2.035 1_556 S
Zn159 O158 2.035 1_554 S
Zn159 O160 2.028 . S
Zn159 O162 2.028 . S
Zn159 O165 2.035 . S
O160 Zn159 2.028 . S
O160 C166 1.247 1_554 S
O161 Zn157 2.035 . S
O161 C166 1.258 . S
O162 C155 1.247 . S
O162 Zn159 2.028 . S
O163 C155 1.258 . S
O163 Zn157 2.035 1_554 S
O164 Zn157 2.028 . S
O164 C167 1.247 1_556 S
O165 Zn159 2.035 . S
O165 C167 1.258 . S
C166 O160 1.247 1_556 S
C166 O161 1.258 . S
C167 O164 1.247 1_554 S
C167 O165 1.258 . S
C168 C169 1.387 . S
C168 H172 0.950 . S
C168 C177 1.390 . S
C169 C168 1.387 . S
C169 C171 1.387 . S
H170 C177 0.950 . S
C171 C169 1.387 . S
C171 C173 1.390 . S
C171 H175 0.950 . S
H172 C168 0.950 . S
C173 C171 1.390 . S
C173 C174 1.387 . S
C173 H176 0.950 . S
C174 C173 1.387 . S
C174 C177 1.387 . S
H175 C171 0.950 . S
H176 C173 0.950 . S
C177 C168 1.390 . S
C177 H170 0.950 . S
C177 C174 1.387 . S
C178 C179 1.387 . S
C178 H182 0.950 . S
C178 C187 1.390 . S
C179 C178 1.387 . S
C179 C181 1.387 . S
H180 C187 0.950 . S
C181 C179 1.387 . S
C181 C183 1.390 . S
C181 H185 0.950 . S
H182 C178 0.950 . S
C183 C181 1.390 . S
C183 C184 1.387 . S
C183 H186 0.950 . S
C184 C183 1.387 . S
C184 C187 1.387 . S
H185 C181 0.950 . S
H186 C183 0.950 . S
C187 C178 1.390 . S
C187 H180 0.950 . S
C187 C184 1.387 . S
C188 C189 1.387 . S
C188 H192 0.950 . S
C188 C197 1.390 . S
C189 C188 1.387 . S
C189 C191 1.387 . S
H190 C197 0.950 . S
C191 C189 1.387 . S
C191 C193 1.390 . S
C191 H195 0.950 . S
H192 C188 0.950 . S
C193 C191 1.390 . S
C193 C194 1.387 . S
C193 H196 0.950 . S
C194 C193 1.387 . S
C194 C197 1.387 . S
H195 C191 0.950 . S
H196 C193 0.950 . S
C197 C188 1.390 . S
C197 H190 0.950 . S
C197 C194 1.387 . S
C198 C199 1.387 . S
C198 H202 0.950 . S
C198 C207 1.390 . S
C199 C198 1.387 . S
C199 C201 1.387 . S
H200 C207 0.950 . S
C201 C199 1.387 . S
C201 C203 1.390 . S
C201 H205 0.950 . S
H202 C198 0.950 . S
C203 C201 1.390 . S
C203 C204 1.387 . S
C203 H206 0.950 . S
C204 C203 1.387 . S
C204 C207 1.387 . S
H205 C201 0.950 . S
H206 C203 0.950 . S
C207 C198 1.390 . S
C207 H200 0.950 . S
C207 C204 1.387 . S
C208 C209 1.387 . S
C208 H212 0.950 . S
C208 C217 1.390 . S
C209 C208 1.387 . S
C209 C211 1.387 . S
H210 C217 0.950 . S
C211 C209 1.387 . S
C211 C213 1.390 . S
C211 H215 0.950 . S
H212 C208 0.950 . S
C213 C211 1.390 . S
C213 C214 1.387 . S
C213 H216 0.950 . S
C214 C213 1.387 . S
C214 C217 1.387 . S
H215 C211 0.950 . S
H216 C213 0.950 . S
C217 C208 1.390 . S
C217 H210 0.950 . S
C217 C214 1.387 . S
C218 C219 1.387 . S
C218 H222 0.950 . S
C218 C227 1.390 . S
C219 C218 1.387 . S
C219 C221 1.387 . S
H220 C227 0.950 . S
C221 C219 1.387 . S
C221 C223 1.390 . S
C221 H225 0.950 . S
H222 C218 0.950 . S
C223 C221 1.390 . S
C223 C224 1.387 . S
C223 H226 0.950 . S
C224 C223 1.387 . S
C224 C227 1.387 . S
H225 C221 0.950 . S
H226 C223 0.950 . S
C227 C218 1.390 . S
C227 H220 0.950 . S
C227 C224 1.387 . S
C228 C229 1.387 . S
C228 H232 0.950 . S
C228 C237 1.390 . S
C229 C228 1.387 . S
C229 C231 1.387 . S
H230 C237 0.950 . S
C231 C229 1.387 . S
C231 C233 1.390 . S
C231 H235 0.950 . S
H232 C228 0.950 . S
C233 C231 1.390 . S
C233 C234 1.387 . S
C233 H236 0.950 . S
C234 C233 1.387 . S
C234 C237 1.387 . S
H235 C231 0.950 . S
H236 C233 0.950 . S
C237 C228 1.390 . S
C237 H230 0.950 . S
C237 C234 1.387 . S
C238 C239 1.387 . S
C238 H242 0.950 . S
C238 C247 1.390 . S
C239 C238 1.387 . S
C239 C241 1.387 . S
H240 C247 0.950 . S
C241 C239 1.387 . S
C241 C243 1.390 . S
C241 H245 0.950 . S
H242 C238 0.950 . S
C243 C241 1.390 . S
C243 C244 1.387 . S
C243 H246 0.950 . S
C244 C243 1.387 . S
C244 C247 1.387 . S
H245 C241 0.950 . S
H246 C243 0.950 . S
C247 C238 1.390 . S
C247 H240 0.950 . S
C247 C244 1.387 . S
C248 C249 1.388 . S
C248 H252 0.950 . S
C248 C257 1.390 1_556 S
C249 C248 1.388 . S
C249 C251 1.388 . S
H250 C257 0.950 . S
C251 C249 1.388 . S
C251 C253 1.389 1_556 S
C251 H255 0.950 . S
H252 C248 0.950 . S
C253 C251 1.389 1_554 S
C253 C254 1.388 . S
C253 H256 0.950 . S
C254 C253 1.388 . S
C254 C257 1.387 . S
H255 C251 0.950 . S
H256 C253 0.950 . S
C257 C248 1.390 1_554 S
C257 H250 0.950 . S
C257 C254 1.387 . S
C258 C259 1.387 . S
C258 H262 0.950 . S
C258 C267 1.390 . S
C259 C258 1.387 . S
C259 C261 1.387 . S
H260 C267 0.950 . S
C261 C259 1.387 . S
C261 C263 1.390 . S
C261 H265 0.950 . S
H262 C258 0.950 . S
C263 C261 1.390 . S
C263 C264 1.387 . S
C263 H266 0.950 . S
C264 C263 1.387 . S
C264 C267 1.387 . S
H265 C261 0.950 . S
H266 C263 0.950 . S
C267 C258 1.390 . S
C267 H260 0.950 . S
C267 C264 1.387 . S
C268 C269 1.387 . S
C268 H272 0.950 . S
C268 C277 1.390 . S
C269 C268 1.387 . S
C269 C271 1.387 . S
H270 C277 0.950 . S
C271 C269 1.387 . S
C271 C273 1.390 . S
C271 H275 0.950 . S
H272 C268 0.950 . S
C273 C271 1.390 . S
C273 C274 1.387 . S
C273 H276 0.950 . S
C274 C273 1.387 . S
C274 C277 1.387 . S
H275 C271 0.950 . S
H276 C273 0.950 . S
C277 C268 1.390 . S
C277 H270 0.950 . S
C277 C274 1.387 . S
C278 C279 1.388 . S
C278 H282 0.951 . S
C278 C287 1.389 1_554 S
C279 C278 1.388 . S
C279 C281 1.387 . S
H280 C287 0.950 . S
C281 C279 1.387 . S
C281 C283 1.390 1_554 S
C281 H285 0.950 . S
H282 C278 0.951 . S
C283 C281 1.390 1_556 S
C283 C284 1.387 . S
C283 H286 0.950 . S
C284 C283 1.387 . S
C284 C287 1.387 . S
H285 C281 0.950 . S
H286 C283 0.950 . S
C287 C278 1.389 1_556 S
C287 H280 0.950 . S
C287 C284 1.387 . S
C288 C289 1.387 . S
C288 H292 0.950 . S
C288 C297 1.390 1_545 S
C289 C288 1.387 . S
C289 C291 1.387 . S
H290 C297 0.950 . S
C291 C289 1.387 . S
C291 C293 1.390 1_545 S
C291 H295 0.950 . S
H292 C288 0.950 . S
C293 C291 1.390 1_565 S
C293 C294 1.387 . S
C293 H296 0.950 . S
C294 C293 1.387 . S
C294 C297 1.387 . S
H295 C291 0.950 . S
H296 C293 0.950 . S
C297 C288 1.390 1_565 S
C297 H290 0.950 . S
C297 C294 1.387 . S
C298 C299 1.387 . S
C298 H302 0.950 . S
C298 C307 1.390 . S
C299 C298 1.387 . S
C299 C301 1.387 . S
H300 C307 0.950 . S
C301 C299 1.387 . S
C301 C303 1.390 . S
C301 H305 0.950 . S
H302 C298 0.950 . S
C303 C301 1.390 . S
C303 C304 1.387 . S
C303 H306 0.950 . S
C304 C303 1.387 . S
C304 C307 1.387 . S
H305 C301 0.950 . S
H306 C303 0.950 . S
C307 C298 1.390 . S
C307 H300 0.950 . S
C307 C304 1.387 . S
C308 C309 1.387 . S
C308 H312 0.950 . S
C308 C317 1.390 1_655 S
C309 C308 1.387 . S
C309 C311 1.387 1_556 S
H310 C317 0.950 . S
C311 C309 1.387 1_554 S
C311 C313 1.390 1_655 S
C311 H315 0.950 . S
H312 C308 0.950 . S
C313 C311 1.390 1_455 S
C313 C314 1.387 1_554 S
C313 H316 0.950 . S
C314 C313 1.387 1_556 S
C314 C317 1.387 . S
H315 C311 0.950 . S
H316 C313 0.950 . S
C317 C308 1.390 1_455 S
C317 H310 0.950 . S
C317 C314 1.387 . S
C318 C319 1.387 . S
C318 H322 0.950 . S
C318 C327 1.390 1_455 S
C319 C318 1.387 . S
C319 C321 1.387 . S
H320 C327 0.950 . S
C321 C319 1.387 . S
C321 C323 1.390 1_455 S
C321 H325 0.950 . S
H322 C318 0.950 . S
C323 C321 1.390 1_655 S
C323 C324 1.387 . S
C323 H326 0.950 . S
C324 C323 1.387 . S
C324 C327 1.387 . S
H325 C321 0.950 . S
H326 C323 0.950 . S
C327 C318 1.390 1_655 S
C327 H320 0.950 . S
C327 C324 1.387 . S
C328 C329 1.387 . S
C328 H332 0.950 . S
C328 C337 1.390 1_545 S
C329 C328 1.387 . S
C329 C331 1.387 . S
H330 C337 0.950 . S
C331 C329 1.387 . S
C331 C333 1.390 1_545 S
C331 H335 0.950 . S
H332 C328 0.950 . S
C333 C331 1.390 1_565 S
C333 C334 1.387 . S
C333 H336 0.950 . S
C334 C333 1.387 . S
C334 C337 1.387 . S
H335 C331 0.950 . S
H336 C333 0.950 . S
C337 C328 1.390 1_565 S
C337 H330 0.950 . S
C337 C334 1.387 . S
C338 C339 1.387 . S
C338 H342 0.950 . S
C338 C347 1.390 . S
C339 C338 1.387 . S
C339 C341 1.387 1_554 S
H340 C347 0.950 . S
C341 C339 1.387 1_556 S
C341 C343 1.390 . S
C341 H345 0.950 . S
H342 C338 0.950 . S
C343 C341 1.390 . S
C343 C344 1.387 1_556 S
C343 H346 0.950 . S
C344 C343 1.387 1_554 S
C344 C347 1.387 . S
H345 C341 0.950 . S
H346 C343 0.950 . S
C347 C338 1.390 . S
C347 H340 0.950 . S
C347 C344 1.387 . S
C348 C349 1.387 . S
C348 H352 0.950 . S
C348 C357 1.390 . S
C349 C348 1.387 . S
C349 C351 1.387 . S
H350 C357 0.950 . S
C351 C349 1.387 . S
C351 C353 1.390 . S
C351 H355 0.950 . S
H352 C348 0.950 . S
C353 C351 1.390 . S
C353 C354 1.387 . S
C353 H356 0.950 . S
C354 C353 1.387 . S
C354 C357 1.387 . S
H355 C351 0.950 . S
H356 C353 0.950 . S
C357 C348 1.390 . S
C357 H350 0.950 . S
C357 C354 1.387 . S
C358 C359 1.387 . S
C358 H362 0.950 . S
C358 C367 1.390 . S
C359 C358 1.387 . S
C359 C361 1.387 . S
H360 C367 0.950 . S
C361 C359 1.387 . S
C361 C363 1.390 . S
C361 H365 0.950 . S
H362 C358 0.950 . S
C363 C361 1.390 . S
C363 C364 1.387 . S
C363 H366 0.950 . S
C364 C363 1.387 . S
C364 C367 1.387 . S
H365 C361 0.950 . S
H366 C363 0.950 . S
C367 C358 1.390 . S
C367 H360 0.950 . S
C367 C364 1.387 . S
C368 C369 1.387 . S
C368 H372 0.950 . S
C368 C377 1.390 . S
C369 C368 1.387 . S
C369 C371 1.387 . S
H370 C377 0.950 . S
C371 C369 1.387 . S
C371 C373 1.390 . S
C371 H375 0.950 . S
H372 C368 0.950 . S
C373 C371 1.390 . S
C373 C374 1.387 . S
C373 H376 0.950 . S
C374 C373 1.387 . S
C374 C377 1.387 . S
H375 C371 0.950 . S
H376 C373 0.950 . S
C377 C368 1.390 . S
C377 H370 0.950 . S
C377 C374 1.387 . S
C378 C379 1.387 . S
C378 H382 0.950 . S
C378 C387 1.390 . S
C379 C378 1.387 . S
C379 C381 1.387 . S
H380 C387 0.950 . S
C381 C379 1.387 . S
C381 C383 1.390 . S
C381 H385 0.950 . S
H382 C378 0.950 . S
C383 C381 1.390 . S
C383 C384 1.387 . S
C383 H386 0.950 . S
C384 C383 1.387 . S
C384 C387 1.387 . S
H385 C381 0.950 . S
H386 C383 0.950 . S
C387 C378 1.390 . S
C387 H380 0.950 . S
C387 C384 1.387 . S
C388 C389 1.387 . S
C388 H392 0.950 . S
C388 C397 1.390 . S
C389 C388 1.387 . S
C389 C391 1.387 . S
H390 C397 0.950 . S
C391 C389 1.387 . S
C391 C393 1.390 . S
C391 H395 0.950 . S
H392 C388 0.950 . S
C393 C391 1.390 . S
C393 C394 1.387 . S
C393 H396 0.950 . S
C394 C393 1.387 . S
C394 C397 1.387 . S
H395 C391 0.950 . S
H396 C393 0.950 . S
C397 C388 1.390 . S
C397 H390 0.950 . S
C397 C394 1.387 . S
C398 C399 1.387 . S
C398 H402 0.950 . S
C398 C407 1.390 . S
C399 C398 1.387 . S
C399 C401 1.387 . S
H400 C407 0.950 . S
C401 C399 1.387 . S
C401 C403 1.390 . S
C401 H405 0.950 . S
H402 C398 0.950 . S
C403 C401 1.390 . S
C403 C404 1.387 . S
C403 H406 0.950 . S
C404 C403 1.387 . S
C404 C407 1.387 . S
H405 C401 0.950 . S
H406 C403 0.950 . S
C407 C398 1.390 . S
C407 H400 0.950 . S
C407 C404 1.387 . S
C169 C12 1.511 . S
C174 C141 1.509 . S
C179 C26 1.532 . S
C184 C154 1.534 . S
C189 C96 1.532 . S
C194 C28 1.532 . S
C199 C42 1.511 . S
C204 C110 1.511 . S
C209 C112 1.529 . S
C214 C57 1.533 . S
C219 C126 1.531 . S
C224 C70 1.532 . S
C229 C84 1.289 . S
C234 C0 1.293 . S
C239 C98 1.292 . S
C244 C14 1.289 . S
C249 C124 1.289 . S
C254 C40 1.288 . S
C259 C54 1.293 . S
C264 C138 1.289 . S
C269 C69 1.291 . S
C274 C153 1.294 . S
C279 C82 1.288 . S
C284 C166 1.288 . S
C289 C1 2.271 . S
C294 C55 2.271 . S
C299 C15 2.270 . S
C304 C68 2.265 . S
C309 C41 2.268 . S
C314 C83 2.268 . S
C319 C139 2.271 . S
C324 C85 2.271 . S
C329 C152 2.265 . S
C334 C99 2.270 . S
C339 C167 2.268 . S
C344 C125 2.268 . S
C349 C13 1.862 . S
C354 C113 1.860 . S
C359 C127 1.880 . S
C364 C27 1.880 . S
C369 C29 1.862 . S
C374 C140 1.858 . S
C379 C155 1.861 . S
C384 C43 1.859 . S
C389 C56 1.880 . S
C394 C97 1.880 . S
C399 C71 1.862 . S
C404 C111 1.858 . S
