# Generated by pormake.
# Topology atn, (4)-cn, num edge types: 1
# Building blocks:
#     Node 0, Type 0, BuildingBlock: ICAMEG_clean_sbu_1, # of connection points: 4
#     Node 1, Type 0, BuildingBlock: ICAMEG_clean_sbu_1, # of connection points: 4
#     Node 2, Type 0, BuildingBlock: ICAMEG_clean_sbu_1, # of connection points: 4
#     Node 3, Type 0, BuildingBlock: ICAMEG_clean_sbu_1, # of connection points: 4
#     Node 4, Type 0, BuildingBlock: ICAMEG_clean_sbu_1, # of connection points: 4
#     Node 5, Type 0, BuildingBlock: ICAMEG_clean_sbu_1, # of connection points: 4
#     Node 6, Type 0, BuildingBlock: ICAMEG_clean_sbu_1, # of connection points: 4
#     Node 7, Type 0, BuildingBlock: ICAMEG_clean_sbu_1, # of connection points: 4
#     Node 8, Type 0, BuildingBlock: ICAMEG_clean_sbu_1, # of connection points: 4
#     Node 9, Type 0, BuildingBlock: ICAMEG_clean_sbu_1, # of connection points: 4
#     Node 10, Type 0, BuildingBlock: ICAMEG_clean_sbu_1, # of connection points: 4
#     Node 11, Type 0, BuildingBlock: ICAMEG_clean_sbu_1, # of connection points: 4
#     Node 12, Type 0, BuildingBlock: ICAMEG_clean_sbu_1, # of connection points: 4
#     Node 13, Type 0, BuildingBlock: ICAMEG_clean_sbu_1, # of connection points: 4
#     Node 14, Type 0, BuildingBlock: ICAMEG_clean_sbu_1, # of connection points: 4
#     Node 15, Type 0, BuildingBlock: ICAMEG_clean_sbu_1, # of connection points: 4
#     Edge 16, Type (0, 0), BuildingBlock: XUDNAN_clean_linker_2, # of connection points: 2
#     Edge 17, Type (0, 0), BuildingBlock: XUDNAN_clean_linker_2, # of connection points: 2
#     Edge 18, Type (0, 0), BuildingBlock: XUDNAN_clean_linker_2, # of connection points: 2
#     Edge 19, Type (0, 0), BuildingBlock: XUDNAN_clean_linker_2, # of connection points: 2
#     Edge 20, Type (0, 0), BuildingBlock: XUDNAN_clean_linker_2, # of connection points: 2
#     Edge 21, Type (0, 0), BuildingBlock: XUDNAN_clean_linker_2, # of connection points: 2
#     Edge 22, Type (0, 0), BuildingBlock: XUDNAN_clean_linker_2, # of connection points: 2
#     Edge 23, Type (0, 0), BuildingBlock: XUDNAN_clean_linker_2, # of connection points: 2
#     Edge 24, Type (0, 0), BuildingBlock: XUDNAN_clean_linker_2, # of connection points: 2
#     Edge 25, Type (0, 0), BuildingBlock: XUDNAN_clean_linker_2, # of connection points: 2
#     Edge 26, Type (0, 0), BuildingBlock: XUDNAN_clean_linker_2, # of connection points: 2
#     Edge 27, Type (0, 0), BuildingBlock: XUDNAN_clean_linker_2, # of connection points: 2
#     Edge 28, Type (0, 0), BuildingBlock: XUDNAN_clean_linker_2, # of connection points: 2
#     Edge 29, Type (0, 0), BuildingBlock: XUDNAN_clean_linker_2, # of connection points: 2
#     Edge 30, Type (0, 0), BuildingBlock: XUDNAN_clean_linker_2, # of connection points: 2
#     Edge 31, Type (0, 0), BuildingBlock: XUDNAN_clean_linker_2, # of connection points: 2
#     Edge 32, Type (0, 0), BuildingBlock: XUDNAN_clean_linker_2, # of connection points: 2
#     Edge 33, Type (0, 0), BuildingBlock: XUDNAN_clean_linker_2, # of connection points: 2
#     Edge 34, Type (0, 0), BuildingBlock: XUDNAN_clean_linker_2, # of connection points: 2
#     Edge 35, Type (0, 0), BuildingBlock: XUDNAN_clean_linker_2, # of connection points: 2
#     Edge 36, Type (0, 0), BuildingBlock: XUDNAN_clean_linker_2, # of connection points: 2
#     Edge 37, Type (0, 0), BuildingBlock: XUDNAN_clean_linker_2, # of connection points: 2
#     Edge 38, Type (0, 0), BuildingBlock: XUDNAN_clean_linker_2, # of connection points: 2
#     Edge 39, Type (0, 0), BuildingBlock: XUDNAN_clean_linker_2, # of connection points: 2
#     Edge 40, Type (0, 0), BuildingBlock: XUDNAN_clean_linker_2, # of connection points: 2
#     Edge 41, Type (0, 0), BuildingBlock: XUDNAN_clean_linker_2, # of connection points: 2
#     Edge 42, Type (0, 0), BuildingBlock: XUDNAN_clean_linker_2, # of connection points: 2
#     Edge 43, Type (0, 0), BuildingBlock: XUDNAN_clean_linker_2, # of connection points: 2
#     Edge 44, Type (0, 0), BuildingBlock: XUDNAN_clean_linker_2, # of connection points: 2
#     Edge 45, Type (0, 0), BuildingBlock: XUDNAN_clean_linker_2, # of connection points: 2
#     Edge 46, Type (0, 0), BuildingBlock: XUDNAN_clean_linker_2, # of connection points: 2
#     Edge 47, Type (0, 0), BuildingBlock: XUDNAN_clean_linker_2, # of connection points: 2
# Relax obj value: 0.024
# Max RMSD: 0.061
# Mean RMSD: 0.061
data_MOF--net-atn--node1-ICAMEG_clean_sbu_1--edge1-XUDNAN_clean_linker_2
_symmetry_space_group_name_H-M    P1
_symmetry_Int_Tables_number       1
_symmetry_cell_setting            triclinic
loop_
_symmetry_equiv_pos_as_xyz
'x, y, z'
_cell_length_a     61.477887
_cell_length_b     61.500772
_cell_length_c     29.842002
_cell_angle_alpha  89.941492
_cell_angle_beta   89.976062
_cell_angle_gamma 89.963173
loop_
_atom_site_label
_atom_site_type_symbol
_atom_site_fract_x
_atom_site_fract_y
_atom_site_fract_z
_atom_type_partial_charge
Co0 Co 0.1788 0.34996 0.98771 0.0
Co1 Co 0.21856 0.38129 0.03958 0.0
O2 O 0.197 0.37607 0.99204 0.0
C3 C 0.20073 0.35175 0.8994 0.0
O4 O 0.21883 0.35705 0.91997 0.0
C5 C 0.19424 0.42403 0.02561 0.0
O6 O 0.1804 0.41429 0.99906 0.0
O7 O 0.19717 0.37273 0.08759 0.0
O8 O 0.17383 0.35009 0.0535 0.0
H9 H 0.25972 0.36225 0.17957 0.0
H10 H 0.16822 0.38654 0.92658 0.0
O11 O 0.18329 0.34879 0.92151 0.0
H12 H 0.10271 0.37626 0.01956 0.0
H13 H 0.12215 0.30178 0.91722 0.0
H14 H 0.17464 0.30948 0.04111 0.0
H15 H 0.13482 0.3528 0.02996 0.0
H16 H 0.14464 0.3348 0.92393 0.0
O17 O 0.2092 0.4131 0.04536 0.0
H18 H 0.23333 0.35619 0.1186 0.0
H19 H 0.24908 0.41754 0.06176 0.0
H20 H 0.15231 0.27628 0.03592 0.0
H21 H 0.13628 0.41007 0.91435 0.0
H22 H 0.12585 0.27227 0.97359 0.0
H23 H 0.10327 0.40511 0.96126 0.0
O24 O 0.20456 0.33089 0.99581 0.0
H25 H 0.24351 0.41803 0.89738 0.0
H26 H 0.26507 0.37058 0.02292 0.0
H27 H 0.2918 0.3794 0.96418 0.0
H28 H 0.28112 0.4034 0.9009 0.0
H29 H 0.21724 0.4085 0.95622 0.0
H30 H 0.27554 0.42432 0.12225 0.0
H31 H 0.28105 0.39652 0.18162 0.0
O32 O 0.22923 0.35023 0.0346 0.0
C33 C 0.18118 0.35942 0.08841 0.0
C34 C 0.25752 0.37445 0.1538 0.0
C35 C 0.26637 0.40931 0.12168 0.0
N36 N 0.23976 0.38643 0.08653 0.0
C37 C 0.24265 0.37109 0.11915 0.0
C38 C 0.25131 0.40541 0.08759 0.0
C39 C 0.26946 0.3937 0.15497 0.0
C40 C 0.15385 0.38412 0.94685 0.0
N41 N 0.1535 0.36844 0.9793 0.0
C42 C 0.13584 0.39758 0.9399 0.0
C43 C 0.11734 0.39481 0.96628 0.0
C44 C 0.11704 0.37866 0.99907 0.0
C45 C 0.13536 0.36554 1.00509 0.0
C46 C 0.13359 0.30336 0.94458 0.0
C47 C 0.16305 0.30792 0.01407 0.0
C48 C 0.14641 0.322 0.94851 0.0
N49 N 0.16085 0.32413 0.98306 0.0
C50 C 0.1505 0.28906 0.01123 0.0
C51 C 0.13567 0.28681 0.97623 0.0
C52 C 0.22286 0.3327 0.01557 0.0
C53 C 0.24842 0.40771 0.92499 0.0
C54 C 0.26025 0.38103 0.99555 0.0
C55 C 0.27549 0.38599 0.96238 0.0
C56 C 0.2695 0.39945 0.92691 0.0
N57 N 0.23961 0.3893 0.99369 0.0
C58 C 0.23361 0.4024 0.95877 0.0
Co59 Co 0.66144 0.19085 0.00889 0.0
Co60 Co 0.62299 0.22475 0.0574 0.0
O61 O 0.63281 0.2051 0.00917 0.0
C62 C 0.65509 0.2049 0.91145 0.0
O63 O 0.63613 0.21408 0.91849 0.0
C64 C 0.58637 0.19284 0.04753 0.0
O65 O 0.60078 0.17708 0.04649 0.0
O66 O 0.63122 0.20314 0.10532 0.0
O67 O 0.65943 0.1855 0.07461 0.0
H68 H 0.62979 0.26404 0.20418 0.0
H69 H 0.62569 0.17601 0.94896 0.0
O70 O 0.66541 0.19553 0.94299 0.0
H71 H 0.64735 0.11108 0.03482 0.0
H72 H 0.72053 0.1422 0.94825 0.0
H73 H 0.69983 0.19305 0.06863 0.0
H74 H 0.66608 0.14602 0.0463 0.0
H75 H 0.68422 0.15925 0.94882 0.0
O76 O 0.59261 0.21236 0.05374 0.0
H77 H 0.64188 0.23988 0.14313 0.0
H78 H 0.58279 0.25103 0.07303 0.0
H79 H 0.73624 0.17619 0.06958 0.0
H80 H 0.60677 0.14138 0.9358 0.0
H81 H 0.74679 0.15056 0.00905 0.0
H82 H 0.61749 0.10856 0.97905 0.0
O83 O 0.67613 0.21929 0.01887 0.0
H84 H 0.58775 0.24896 0.91374 0.0
H85 H 0.6307 0.27232 0.04452 0.0
H86 H 0.62111 0.2991 0.98632 0.0
H87 H 0.59939 0.28749 0.92039 0.0
H88 H 0.59805 0.22264 0.97234 0.0
H89 H 0.57001 0.27522 0.13342 0.0
H90 H 0.59361 0.28191 0.19953 0.0
O91 O 0.65266 0.23847 0.06082 0.0
C92 C 0.64719 0.18986 0.10786 0.0
C93 C 0.61938 0.2613 0.17549 0.0
C94 C 0.58582 0.26754 0.13581 0.0
N95 N 0.61311 0.24412 0.10448 0.0
C96 C 0.62616 0.24767 0.14078 0.0
C97 C 0.59312 0.25378 0.10177 0.0
C98 C 0.59907 0.2713 0.17288 0.0
C99 C 0.63071 0.16183 0.96749 0.0
N100 N 0.64711 0.16313 0.99827 0.0
C101 C 0.61982 0.14224 0.96008 0.0
C102 C 0.6258 0.12385 0.98442 0.0
C103 C 0.64252 0.12526 0.01575 0.0
C104 C 0.65301 0.14514 0.0223 0.0
C105 C 0.7161 0.15329 0.97487 0.0
C106 C 0.70424 0.18178 0.04238 0.0
C107 C 0.69558 0.16304 0.97533 0.0
N108 N 0.68983 0.17698 0.00899 0.0
C109 C 0.72491 0.17234 0.043 0.0
C110 C 0.73083 0.15799 0.009 0.0
C111 C 0.67112 0.23608 0.04168 0.0
C112 C 0.59723 0.25422 0.9423 0.0
C113 C 0.62151 0.26706 0.0157 0.0
C114 C 0.616 0.28234 0.98296 0.0
C115 C 0.60378 0.27583 0.94602 0.0
N116 N 0.61508 0.24588 0.01178 0.0
C117 C 0.60306 0.2394 0.97569 0.0
Co118 Co 0.83547 0.66359 0.01497 0.0
Co119 Co 0.80051 0.62208 0.0445 0.0
O120 O 0.82302 0.63453 1.00604 0.0
C121 C 0.81915 0.66413 0.9227 0.0
O122 O 0.80106 0.65642 0.9398 0.0
C123 C 0.83351 0.58585 0.03696 0.0
O124 O 0.84937 0.59985 0.04285 0.0
O125 O 0.81876 0.62814 0.09857 0.0
O126 O 0.83588 0.65949 0.08178 0.0
H127 H 0.75159 0.62049 0.17926 0.0
H128 H 0.85675 0.63286 0.95224 0.0
O129 O 0.83524 0.66821 0.94825 0.0
H130 H 0.91211 0.64935 0.0668 0.0
H131 H 0.88547 0.72566 0.97666 0.0
H132 H 0.8277 0.69988 0.07832 0.0
H133 H 0.87581 0.66638 0.07023 0.0
H134 H 0.86971 0.68905 0.96754 0.0
O135 O 0.81381 0.59225 0.03817 0.0
H136 H 0.7794 0.63598 0.12886 0.0
H137 H 0.77445 0.58103 0.04338 0.0
H138 H 0.84315 0.73652 0.08895 0.0
H139 H 0.89292 0.61563 0.94729 0.0
H140 H 0.87225 0.74963 0.03786 0.0
H141 H 0.92086 0.62381 1.00494 0.0
O142 O 0.80607 0.67707 0.01866 0.0
H143 H 0.78856 0.59621 0.8868 0.0
H144 H 0.75376 0.62851 0.01981 0.0
H145 H 0.73197 0.62232 0.95171 0.0
H146 H 0.74938 0.60601 0.88454 0.0
H147 H 0.8098 0.60301 0.95542 0.0
H148 H 0.74679 0.56485 0.09306 0.0
H149 H 0.73511 0.58466 0.16147 0.0
O150 O 0.78558 0.65111 0.05033 0.0
C151 C 0.83047 0.64453 0.10938 0.0
C152 C 0.75651 0.61173 0.14949 0.0
C153 C 0.75383 0.58048 0.10115 0.0
N154 N 0.77845 0.6095 0.08311 0.0
C155 C 0.7722 0.62044 0.12078 0.0
C156 C 0.76957 0.5897 0.07322 0.0
C157 C 0.74728 0.59161 0.13951 0.0
C158 C 0.8689 0.63665 0.97721 0.0
N159 N 0.8642 0.65067 0.01137 0.0
C160 C 0.88932 0.62678 0.97434 0.0
C161 C 0.90498 0.63135 1.00673 0.0
C162 C 0.90007 0.64567 0.04147 0.0
C163 C 0.87947 0.65521 0.0433 0.0
C164 C 0.87284 0.72012 0.9992 0.0
C165 C 0.84047 0.70541 0.05618 0.0
C166 C 0.86383 0.69942 0.99414 0.0
N167 N 0.84795 0.69228 0.02264 0.0
C168 C 0.84911 0.7262 0.06226 0.0
C169 C 0.86542 0.73355 0.03356 0.0
C170 C 0.78826 0.67049 0.03578 0.0
C171 C 0.78079 0.60332 0.91584 0.0
C172 C 0.76149 0.62164 0.99064 0.0
C173 C 0.74905 0.61804 0.95222 0.0
C174 C 0.75881 0.60885 0.91457 0.0
N175 N 0.78306 0.61628 0.99159 0.0
C176 C 0.79271 0.60715 0.95487 0.0
Co177 Co 0.34588 0.83635 0.01569 0.0
Co178 Co 0.39038 0.80311 0.03234 0.0
O179 O 0.37508 0.82621 0.9998 0.0
C180 C 0.34245 0.82673 0.91801 0.0
O181 O 0.35341 0.8087 0.92462 0.0
C182 C 0.43449 0.82289 0.04777 0.0
O183 O 0.43229 0.81904 0.09085 0.0
O184 O 0.38587 0.8191 0.09037 0.0
O185 O 0.35276 0.83417 0.08117 0.0
H186 H 0.40127 0.75045 0.15905 0.0
H187 H 0.37355 0.86215 0.95423 0.0
O188 O 0.33823 0.83937 0.95066 0.0
H189 H 0.35575 0.91159 0.07899 0.0
H190 H 0.27902 0.88306 0.99893 0.0
H191 H 0.31297 0.82272 0.0825 0.0
H192 H 0.34158 0.8741 0.07795 0.0
H193 H 0.31625 0.87095 0.98076 0.0
O194 O 0.41866 0.81906 0.02117 0.0
H195 H 0.38221 0.77911 0.11651 0.0
H196 H 0.43184 0.77838 0.01746 0.0
H197 H 0.27575 0.8344 0.10199 0.0
H198 H 0.38797 0.89959 0.95374 0.0
H199 H 0.25854 0.86478 0.06005 0.0
H200 H 0.3791 0.92458 0.01649 0.0
O201 O 0.33467 0.80605 0.01499 0.0
H202 H 0.40939 0.79825 0.86879 0.0
H203 H 0.38533 0.75706 1.00151 0.0
H204 H 0.3894 0.73813 0.92927 0.0
H205 H 0.4016 0.75876 0.86221 0.0
H206 H 0.40464 0.81659 0.94153 0.0
H207 H 0.45147 0.74977 0.05898 0.0
H208 H 0.43617 0.7356 0.13031 0.0
O209 O 0.36252 0.78623 0.04159 0.0
C210 C 0.36913 0.82912 0.10531 0.0
C211 C 0.4081 0.75649 0.12801 0.0
C212 C 0.43627 0.75611 0.07186 0.0
N213 N 0.40589 0.78043 0.06459 0.0
C214 C 0.39738 0.77271 0.10378 0.0
C215 C 0.42509 0.77233 0.04852 0.0
C216 C 0.42768 0.74817 0.11187 0.0
C217 C 0.36957 0.87297 0.98156 0.0
N218 N 0.35673 0.86596 0.01604 0.0
C219 C 0.37779 0.89413 0.98114 0.0
C220 C 0.37282 0.90814 0.01637 0.0
C221 C 0.35972 0.90087 0.05144 0.0
C222 C 0.35179 0.8796 0.05071 0.0
C223 C 0.28636 0.86983 0.01752 0.0
C224 C 0.30563 0.83605 0.06432 0.0
C225 C 0.30742 0.86288 1.00732 0.0
N226 N 0.31683 0.84626 0.0308 0.0
C227 C 0.28454 0.84255 0.07541 0.0
C228 C 0.27488 0.85958 0.05182 0.0
C229 C 0.34265 0.78822 0.0293 0.0
C230 C 0.40406 0.78908 0.89775 0.0
C231 C 0.39028 0.7662 0.97243 0.0
C232 C 0.39275 0.75537 0.93163 0.0
C233 C 0.39965 0.76694 0.89406 0.0
N234 N 0.39453 0.78795 0.9758 0.0
C235 C 0.40143 0.79935 0.93912 0.0
Co236 Co 0.1818 0.67093 0.99706 0.0
Co237 Co 0.21621 0.62681 0.98665 0.0
O238 O 0.19178 0.64195 0.01523 0.0
C239 C 0.18869 0.67595 0.09476 0.0
O240 O 0.20725 0.66562 0.09032 0.0
C241 C 0.19818 0.5822 0.96862 0.0
O242 O 0.20278 0.58477 0.92595 0.0
O243 O 0.20252 0.63109 0.92588 0.0
O244 O 0.18649 0.66377 0.93277 0.0
H245 H 0.27354 0.61627 0.86872 0.0
H246 H 0.15441 0.6435 0.05591 0.0
O247 O 0.17647 0.67905 0.06098 0.0
H248 H 0.10916 0.65866 0.92307 0.0
H249 H 0.13303 0.73672 1.00354 0.0
H250 H 0.19702 0.70355 0.93099 0.0
H251 H 0.14616 0.67375 0.92912 0.0
H252 H 0.14552 0.70013 0.02565 0.0
O253 O 0.2005 0.59816 0.99566 0.0
H254 H 0.24312 0.63504 0.90631 0.0
H255 H 0.24115 0.58593 1.00642 0.0
H256 H 0.18493 0.74006 0.90747 0.0
H257 H 0.11735 0.62826 0.05155 0.0
H258 H 0.15272 0.75689 0.94387 0.0
H259 H 0.09448 0.63578 0.98469 0.0
O260 O 0.21189 0.68273 1.00164 0.0
H261 H 0.21477 0.60888 0.151 0.0
H262 H 0.26089 0.63244 0.02498 0.0
H263 H 0.27692 0.62909 0.10033 0.0
H264 H 0.25379 0.61716 0.16404 0.0
H265 H 0.19936 0.61285 0.0752 0.0
H266 H 0.27147 0.56661 0.96985 0.0
H267 H 0.28789 0.58179 0.90049 0.0
O268 O 0.23295 0.65483 0.97976 0.0
C269 C 0.19279 0.64769 0.90922 0.0
C270 C 0.26651 0.60949 0.89891 0.0
C271 C 0.26535 0.58162 0.95566 0.0
N272 N 0.24031 0.61158 0.95843 0.0
C273 C 0.24928 0.62004 0.92034 0.0
C274 C 0.24816 0.59262 0.97618 0.0
C275 C 0.27456 0.59014 0.91675 0.0
C276 C 0.14451 0.64691 0.02681 0.0
N277 N 0.15246 0.65948 0.99278 0.0
C278 C 0.12356 0.63821 0.02448 0.0
C279 C 0.11074 0.64242 0.98695 0.0
C280 C 0.11897 0.65523 0.95235 0.0
C281 C 0.13999 0.66366 0.95584 0.0
C282 C 0.14707 0.72955 0.98738 0.0
C283 C 0.18291 0.71071 0.9468 0.0
C284 C 0.15425 0.70886 0.99986 0.0
N285 N 0.17189 0.69965 0.97941 0.0
C286 C 0.17618 0.73141 0.93343 0.0
C287 C 0.15812 0.74085 0.95389 0.0
C288 C 0.23031 0.67479 0.99062 0.0
C289 C 0.22502 0.6141 0.12353 0.0
C290 C 0.25067 0.62759 0.05255 0.0
C291 C 0.25987 0.62553 0.09513 0.0
C292 C 0.2469 0.61879 0.13084 0.0
N293 N 0.22918 0.62307 0.04561 0.0
C294 C 0.21641 0.61632 0.08046 0.0
Co295 Co 0.3559 0.17535 0.99807 0.0
Co296 Co 0.38874 0.22071 0.98527 0.0
O297 O 0.38095 0.19323 0.0146 0.0
C298 C 0.34921 0.18323 0.09483 0.0
O299 O 0.35556 0.20336 0.08844 0.0
C300 C 0.42871 0.19335 0.97832 0.0
O301 O 0.41602 0.17756 0.96452 0.0
O302 O 0.3854 0.20753 0.92399 0.0
O303 O 0.36156 0.18031 0.93346 0.0
H304 H 0.37992 0.28144 0.8741 0.0
H305 H 0.38913 0.1576 0.05981 0.0
O306 O 0.34914 0.16974 0.06255 0.0
H307 H 0.38897 0.10812 0.92987 0.0
H308 H 0.30622 0.11054 0.01053 0.0
H309 H 0.32049 0.17944 0.93116 0.0
H310 H 0.36382 0.13933 0.93294 0.0
H311 H 0.33779 0.13321 0.03083 0.0
O312 O 0.42053 0.21199 0.98669 0.0
H313 H 0.37011 0.24699 0.91144 0.0
H314 H 0.42489 0.25252 0.99735 0.0
H315 H 0.28891 0.15713 0.90936 0.0
H316 H 0.41448 0.12648 0.05828 0.0
H317 H 0.28159 0.12241 0.94921 0.0
H318 H 0.41455 0.10154 0.99288 0.0
O319 O 0.33637 0.20113 0.99964 0.0
H320 H 0.41429 0.22279 0.14519 0.0
H321 H 0.37335 0.2618 0.02799 0.0
H322 H 0.37623 0.27775 0.10351 0.0
H323 H 0.39685 0.25821 0.16274 0.0
H324 H 0.41078 0.20731 0.06934 0.0
H325 H 0.43541 0.28691 0.96067 0.0
H326 H 0.41279 0.30163 0.8987 0.0
O327 O 0.35725 0.23029 0.98474 0.0
C328 C 0.37328 0.19235 0.90864 0.0
C329 C 0.38987 0.27522 0.90114 0.0
C330 C 0.42103 0.27827 0.94969 0.0
N331 N 0.39683 0.24785 0.9567 0.0
C332 C 0.38436 0.25577 0.92248 0.0
C333 C 0.41503 0.25877 0.97025 0.0
C334 C 0.40833 0.28653 0.91494 0.0
C335 C 0.38893 0.14668 0.03146 0.0
N336 N 0.37496 0.15022 0.99661 0.0
C337 C 0.40337 0.12914 0.03069 0.0
C338 C 0.40343 0.11518 0.99394 0.0
C339 C 0.38909 0.11887 0.95857 0.0
C340 C 0.37491 0.1366 0.96045 0.0
C341 C 0.30925 0.12562 0.99287 0.0
C342 C 0.31749 0.16428 0.94847 0.0
C343 C 0.32707 0.13855 1.00431 0.0
N344 N 0.33106 0.15755 0.98198 0.0
C345 C 0.29955 0.15175 0.93606 0.0
C346 C 0.29545 0.13228 0.95845 0.0
C347 C 0.33877 0.22146 0.99256 0.0
C348 C 0.4053 0.23148 0.11964 0.0
C349 C 0.38225 0.25315 0.05362 0.0
C350 C 0.38389 0.2623 0.09629 0.0
C351 C 0.39548 0.25134 0.12949 0.0
N352 N 0.39189 0.23364 0.04422 0.0
C353 C 0.40333 0.22283 0.07657 0.0
Co354 Co 0.83119 0.35669 0.01969 0.0
Co355 Co 0.79746 0.39384 0.96711 0.0
O356 O 0.81837 0.38577 0.01383 0.0
C357 C 0.81297 0.36546 0.10938 0.0
O358 O 0.79553 0.37337 0.08992 0.0
C359 C 0.8315 0.42891 0.96529 0.0
O360 O 0.84672 0.414 0.96801 0.0
O361 O 0.81685 0.38146 0.91914 0.0
O362 O 0.83401 0.35394 0.95366 0.0
H363 H 0.75257 0.38069 0.82928 0.0
H364 H 0.84999 0.39344 0.07067 0.0
O365 O 0.82883 0.3585 0.08613 0.0
H366 H 0.90969 0.36639 0.97541 0.0
H367 H 0.87964 0.30032 0.09072 0.0
H368 H 0.82532 0.31465 0.97274 0.0
H369 H 0.87368 0.3488 0.97375 0.0
H370 H 0.86394 0.33696 0.08134 0.0
O371 O 0.81165 0.42328 0.96121 0.0
H372 H 0.77806 0.37086 0.88989 0.0
H373 H 0.77325 0.43455 0.94393 0.0
H374 H 0.84075 0.27781 0.98068 0.0
H375 H 0.88583 0.41137 0.07379 0.0
H376 H 0.86811 0.27046 0.04002 0.0
H377 H 0.91597 0.3979 0.02577 0.0
O378 O 0.80195 0.34294 0.01768 0.0
H379 H 0.7814 0.43783 0.10513 0.0
H380 H 0.74988 0.39164 0.98686 0.0
H381 H 0.726 0.4068 0.04546 0.0
H382 H 0.74174 0.43011 0.10513 0.0
H383 H 0.80469 0.42218 0.04618 0.0
H384 H 0.74784 0.44511 0.88379 0.0
H385 H 0.73728 0.41806 0.82601 0.0
O386 O 0.78177 0.36518 0.97439 0.0
C387 C 0.82919 0.3647 0.91858 0.0
C388 C 0.75699 0.3926 0.85436 0.0
C389 C 0.75436 0.42876 0.88491 0.0
N390 N 0.77701 0.40205 0.92057 0.0
C391 C 0.77135 0.38711 0.88881 0.0
C392 C 0.76881 0.4227 0.91881 0.0
C393 C 0.74844 0.41358 0.85251 0.0
C394 C 0.86308 0.38736 0.04999 0.0
N395 N 0.85973 0.37009 0.02205 0.0
C396 C 0.88332 0.39763 0.05177 0.0
C397 C 0.9002 0.39009 0.02476 0.0
C398 C 0.89669 0.37243 0.99645 0.0
C399 C 0.87623 0.36258 0.99551 0.0
C400 C 0.86778 0.30334 0.06465 0.0
C401 C 0.83734 0.31161 0.99843 0.0
C402 C 0.8588 0.32404 0.05922 0.0
N403 N 0.84387 0.32798 0.02627 0.0
C404 C 0.84597 0.29071 1.00285 0.0
C405 C 0.8613 0.28659 0.03619 0.0
C406 C 0.78446 0.34766 0.99696 0.0
C407 C 0.77433 0.42771 0.07931 0.0
C408 C 0.75687 0.40169 0.01282 0.0
C409 C 0.74325 0.41028 0.04585 0.0
C410 C 0.75209 0.42336 0.0793 0.0
N411 N 0.77868 0.40596 0.01311 0.0
C412 C 0.78744 0.41883 0.04575 0.0
Co413 Co 0.66922 0.82937 0.01203 0.0
Co414 Co 0.6288 0.7971 0.96395 0.0
O415 O 0.63954 0.81701 0.01124 0.0
C416 C 0.66205 0.81539 0.10911 0.0
O417 O 0.643 0.80652 0.10169 0.0
C418 C 0.59117 0.82822 0.98242 0.0
O419 O 0.60271 0.83904 0.0118 0.0
O420 O 0.6407 0.81621 0.91468 0.0
O421 O 0.668 0.83451 0.94661 0.0
H422 H 0.63689 0.75292 0.82349 0.0
H423 H 0.63588 0.84721 0.07425 0.0
O424 O 0.6726 0.82474 0.07793 0.0
H425 H 0.65983 0.9096 0.9831 0.0
H426 H 0.73082 0.87469 0.0727 0.0
H427 H 0.70782 0.82421 0.95352 0.0
H428 H 0.67579 0.87331 0.97145 0.0
H429 H 0.69352 0.85996 0.07166 0.0
O430 O 0.59974 0.81281 0.9597 0.0
H431 H 0.64923 0.77711 0.88425 0.0
H432 H 0.58629 0.77552 0.94298 0.0
H433 H 0.74522 0.83868 0.95312 0.0
H434 H 0.61979 0.88327 0.08774 0.0
H435 H 0.75693 0.86412 0.01303 0.0
H436 H 0.63165 0.9148 0.04181 0.0
O437 O 0.6822 0.80007 1.00292 0.0
H438 H 0.58987 0.77977 0.10891 0.0
H439 H 0.62769 0.74919 0.97777 0.0
H440 H 0.61329 0.72454 0.03556 0.0
H441 H 0.59405 0.73977 0.10166 0.0
H442 H 0.60493 0.80376 0.05113 0.0
H443 H 0.57324 0.75149 0.88265 0.0
H444 H 0.59864 0.73995 0.82244 0.0
O445 O 0.65675 0.78005 0.96786 0.0
C446 C 0.6567 0.82941 0.91261 0.0
C447 C 0.62569 0.75777 0.84962 0.0
C448 C 0.58995 0.75702 0.88277 0.0
N449 N 0.61856 0.77762 0.9173 0.0
C450 C 0.6326 0.7714 0.88419 0.0
C451 C 0.59742 0.7707 0.91676 0.0
C452 C 0.60422 0.75053 0.84902 0.0
C453 C 0.64134 0.86082 0.05444 0.0
N454 N 0.65675 0.85804 0.02196 0.0
C455 C 0.63207 0.88122 0.06208 0.0
C456 C 0.6387 0.8989 0.03625 0.0
C457 C 0.65446 0.89598 1.00326 0.0
C458 C 0.66335 0.87533 0.99656 0.0
C459 C 0.72589 0.86367 0.04635 0.0
C460 C 0.71274 0.83539 0.97953 0.0
C461 C 0.7048 0.85525 0.04561 0.0
N462 N 0.69842 0.84139 0.0123 0.0
C463 C 0.73396 0.84348 0.9792 0.0
C464 C 0.74053 0.85773 0.01285 0.0
C465 C 0.67565 0.78242 0.98515 0.0
C466 C 0.59809 0.77291 0.08012 0.0
C467 C 0.61948 0.75604 1.00647 0.0
C468 C 0.61128 0.74194 0.03907 0.0
C469 C 0.60048 0.75048 0.07611 0.0
N470 N 0.617 0.77806 0.01036 0.0
C471 C 0.60654 0.78649 0.04685 0.0
Co472 Co 0.6876 0.85419 0.51068 0.0
Co473 Co 0.73276 0.88588 0.53608 0.0
O474 O 0.70678 0.87929 0.50045 0.0
C475 C 0.70331 0.84811 0.41869 0.0
O476 O 0.72263 0.8527 0.43477 0.0
C477 C 0.70976 0.92946 0.52086 0.0
O478 O 0.69395 0.91994 0.49894 0.0
O479 O 0.7161 0.88143 0.59301 0.0
O480 O 0.68827 0.85906 0.57684 0.0
H481 H 0.78627 0.87241 0.66019 0.0
H482 H 0.67347 0.88703 0.44382 0.0
O483 O 0.68678 0.84844 0.44445 0.0
H484 H 0.61672 0.88735 0.56065 0.0
H485 H 0.62392 0.80566 0.47582 0.0
H486 H 0.68626 0.81804 0.57653 0.0
H487 H 0.64826 0.86273 0.56658 0.0
H488 H 0.64821 0.83709 0.46437 0.0
O489 O 0.72522 0.9182 0.53794 0.0
H490 H 0.7541 0.86462 0.61351 0.0
H491 H 0.76602 0.92132 0.53594 0.0
H492 H 0.66224 0.78657 0.58953 0.0
H493 H 0.64202 0.91167 0.43621 0.0
H494 H 0.63081 0.7802 0.53892 0.0
H495 H 0.61342 0.912 0.49502 0.0
O496 O 0.71281 0.83407 0.51582 0.0
H497 H 0.74456 0.91216 0.37764 0.0
H498 H 0.7764 0.87174 0.50428 0.0
H499 H 0.79717 0.87536 0.43416 0.0
H500 H 0.78132 0.89581 0.37019 0.0
H501 H 0.72423 0.90781 0.44789 0.0
H502 H 0.79817 0.92985 0.58206 0.0
H503 H 0.80855 0.90524 0.64456 0.0
O504 O 0.74172 0.85427 0.53511 0.0
C505 C 0.69966 0.86997 0.60456 0.0
C506 C 0.78196 0.88322 0.63296 0.0
C507 C 0.78862 0.91548 0.58916 0.0
N508 N 0.75829 0.89239 0.57185 0.0
C509 C 0.76381 0.87885 0.60634 0.0
C510 C 0.77035 0.9106 0.56325 0.0
C511 C 0.79444 0.90165 0.6242 0.0
C512 C 0.661 0.88694 0.46935 0.0
N513 N 0.66276 0.87351 0.50566 0.0
C514 C 0.64327 0.90099 0.46495 0.0
C515 C 0.62725 0.9012 0.49799 0.0
C516 C 0.62911 0.8874 0.53486 0.0
C517 C 0.64708 0.87358 0.53816 0.0
C518 C 0.63753 0.80828 0.49815 0.0
C519 C 0.67252 0.81548 0.55457 0.0
C520 C 0.65137 0.82603 0.49178 0.0
N521 N 0.66852 0.8295 0.52001 0.0
C522 C 0.65902 0.79758 0.562 0.0
C523 C 0.6414 0.79401 0.53357 0.0
C524 C 0.73286 0.83601 0.5259 0.0
C525 C 0.75174 0.9034 0.40542 0.0
C526 C 0.76935 0.88071 0.47675 0.0
C527 C 0.78123 0.88271 0.43706 0.0
C528 C 0.77233 0.89417 0.40121 0.0
N529 N 0.74921 0.88997 0.48089 0.0
C530 C 0.74034 0.90107 0.44564 0.0
Co531 Co 0.16185 0.68761 0.49887 0.0
Co532 Co 0.12458 0.72168 0.5509 0.0
O533 O 0.13299 0.70114 0.50363 0.0
C534 C 0.15579 0.70806 0.40972 0.0
O535 O 0.148 0.72538 0.42981 0.0
C536 C 0.08898 0.68816 0.54915 0.0
O537 O 0.10366 0.67277 0.54519 0.0
O538 O 0.13645 0.70186 0.59886 0.0
O539 O 0.16306 0.68301 0.56493 0.0
H540 H 0.13708 0.76536 0.69054 0.0
H541 H 0.12523 0.67158 0.44372 0.0
O542 O 0.16156 0.69153 0.43244 0.0
H543 H 0.14941 0.60819 0.53192 0.0
H544 H 0.21845 0.63945 0.42779 0.0
H545 H 0.20294 0.69102 0.55018 0.0
H546 H 0.16811 0.64347 0.53897 0.0
H547 H 0.18204 0.65587 0.43558 0.0
O548 O 0.09493 0.70777 0.55528 0.0
H549 H 0.14717 0.74038 0.62929 0.0
H550 H 0.08377 0.74588 0.57388 0.0
H551 H 0.23953 0.67481 0.54391 0.0
H552 H 0.10622 0.63653 0.43506 0.0
H553 H 0.24747 0.64883 0.48234 0.0
H554 H 0.11823 0.60454 0.47955 0.0
O555 O 0.17646 0.71642 0.50495 0.0
H556 H 0.08254 0.73888 0.41078 0.0
H557 H 0.12626 0.76953 0.53391 0.0
H558 H 0.11174 0.79391 0.47547 0.0
H559 H 0.08968 0.7786 0.41333 0.0
H560 H 0.09753 0.71508 0.46964 0.0
H561 H 0.07296 0.77076 0.63466 0.0
H562 H 0.09973 0.78073 0.69346 0.0
O563 O 0.15333 0.73714 0.54499 0.0
C564 C 0.15231 0.68837 0.59975 0.0
C565 C 0.12529 0.7612 0.66502 0.0
C566 C 0.08929 0.7642 0.63371 0.0
N567 N 0.11614 0.74179 0.59789 0.0
C568 C 0.13093 0.74713 0.6302 0.0
C569 C 0.09549 0.75003 0.59945 0.0
C570 C 0.10433 0.76979 0.66668 0.0
C571 C 0.13064 0.6577 0.46298 0.0
N572 N 0.14766 0.65962 0.49216 0.0
C573 C 0.11977 0.63791 0.45802 0.0
C574 C 0.1265 0.61998 0.48304 0.0
C575 C 0.14396 0.62202 0.51249 0.0
C576 C 0.1544 0.64208 0.51662 0.0
C577 C 0.21517 0.65071 0.45483 0.0
C578 C 0.20623 0.6796 0.52351 0.0
C579 C 0.1946 0.66009 0.45936 0.0
N580 N 0.19033 0.67426 0.49353 0.0
C581 C 0.227 0.67053 0.52004 0.0
C582 C 0.23145 0.65597 0.48545 0.0
C583 C 0.17141 0.73411 0.52463 0.0
C584 C 0.09216 0.74574 0.43763 0.0
C585 C 0.11681 0.76272 0.50681 0.0
C586 C 0.10856 0.77662 0.4739 0.0
C587 C 0.09618 0.76803 0.43907 0.0
N588 N 0.11292 0.74087 0.50507 0.0
C589 C 0.10069 0.73235 0.47112 0.0
Co590 Co 0.33204 0.16258 0.49915 0.0
Co591 Co 0.3001 0.12469 0.5528 0.0
O592 O 0.31955 0.13337 0.50394 0.0
C593 C 0.31282 0.15532 0.40956 0.0
O594 O 0.29545 0.14742 0.42926 0.0
C595 C 0.33258 0.0882 0.54683 0.0
O596 O 0.34835 0.10256 0.54505 0.0
O597 O 0.32179 0.13471 0.59864 0.0
O598 O 0.33572 0.16438 0.56551 0.0
H599 H 0.26135 0.13471 0.69953 0.0
H600 H 0.3504 0.12653 0.44542 0.0
O601 O 0.32896 0.16173 0.43264 0.0
H602 H 0.4113 0.15317 0.5377 0.0
H603 H 0.37892 0.22048 0.42898 0.0
H604 H 0.32635 0.20382 0.54907 0.0
H605 H 0.37517 0.17043 0.54245 0.0
H606 H 0.36379 0.18355 0.43697 0.0
O607 O 0.313 0.09451 0.55226 0.0
H608 H 0.28504 0.14556 0.63664 0.0
H609 H 0.27453 0.08459 0.57348 0.0
H610 H 0.34122 0.24094 0.54255 0.0
H611 H 0.38633 0.10893 0.43915 0.0
H612 H 0.3677 0.24946 0.48214 0.0
H613 H 0.41708 0.1222 0.48565 0.0
O614 O 0.30263 0.17597 0.50374 0.0
H615 H 0.27661 0.0861 0.41254 0.0
H616 H 0.25224 0.13075 0.54015 0.0
H617 H 0.22564 0.11938 0.48306 0.0
H618 H 0.23776 0.09681 0.41873 0.0
H619 H 0.30273 0.09816 0.46999 0.0
H620 H 0.25082 0.07306 0.63577 0.0
H621 H 0.24404 0.09823 0.69932 0.0
O622 O 0.28579 0.15419 0.55315 0.0
C623 C 0.33295 0.15226 0.59975 0.0
C624 C 0.26412 0.12363 0.67196 0.0
C625 C 0.25824 0.08901 0.63621 0.0
N626 N 0.28106 0.11579 0.60131 0.0
C627 C 0.27748 0.12969 0.63621 0.0
C628 C 0.27173 0.09562 0.60108 0.0
C629 C 0.25444 0.10314 0.67185 0.0
C630 C 0.36374 0.1325 0.4655 0.0
N631 N 0.36067 0.14947 0.49435 0.0
C632 C 0.38403 0.12242 0.46192 0.0
C633 C 0.40126 0.12986 0.48807 0.0
C634 C 0.39803 0.14721 0.51732 0.0
C635 C 0.3775 0.15686 0.52005 0.0
C636 C 0.36744 0.21696 0.45552 0.0
C637 C 0.33799 0.20737 0.5229 0.0
C638 C 0.35879 0.19609 0.46016 0.0
N639 N 0.34434 0.1915 0.49369 0.0
C640 C 0.3463 0.22843 0.51929 0.0
C641 C 0.36113 0.23321 0.48535 0.0
C642 C 0.28669 0.17155 0.52951 0.0
C643 C 0.27111 0.09591 0.44044 0.0
C644 C 0.25769 0.12114 0.51207 0.0
C645 C 0.24253 0.11464 0.47994 0.0
C646 C 0.24933 0.10195 0.44389 0.0
N647 N 0.27905 0.11519 0.50844 0.0
C648 C 0.28582 0.10272 0.4732 0.0
Co649 Co 0.8553 0.3445 0.5206 0.0
Co650 Co 0.88814 0.2991 0.53251 0.0
O651 O 0.88064 0.32694 0.50433 0.0
C652 C 0.84978 0.33788 0.42352 0.0
O653 O 0.85589 0.31762 0.42946 0.0
C654 C 0.92807 0.32636 0.5412 0.0
O655 O 0.91537 0.34219 0.55489 0.0
O656 O 0.88424 0.31157 0.59426 0.0
O657 O 0.86005 0.33853 0.58506 0.0
H658 H 0.87826 0.23707 0.6402 0.0
H659 H 0.88925 0.36334 0.46197 0.0
O660 O 0.84946 0.35108 0.45626 0.0
H661 H 0.8871 0.41069 0.59516 0.0
H662 H 0.80556 0.4094 0.50966 0.0
H663 H 0.81892 0.33923 0.58494 0.0
H664 H 0.86217 0.37948 0.58859 0.0
H665 H 0.83751 0.38712 0.48971 0.0
O666 O 0.9199 0.30775 0.53263 0.0
H667 H 0.86883 0.27199 0.6043 0.0
H668 H 0.92438 0.26736 0.52017 0.0
H669 H 0.78695 0.36112 0.60636 0.0
H670 H 0.91439 0.39451 0.46699 0.0
H671 H 0.78009 0.39647 0.56857 0.0
H672 H 0.91346 0.41838 0.53405 0.0
O673 O 0.83592 0.31874 0.51606 0.0
H674 H 0.91507 0.29885 0.37344 0.0
H675 H 0.87312 0.25854 0.4872 0.0
H676 H 0.87665 0.24349 0.41102 0.0
H677 H 0.89779 0.26368 0.35351 0.0
H678 H 0.9109 0.31344 0.4499 0.0
H679 H 0.93454 0.23251 0.55545 0.0
H680 H 0.91133 0.2171 0.61578 0.0
O681 O 0.8567 0.28955 0.53135 0.0
C682 C 0.87169 0.32635 0.60979 0.0
C683 C 0.88847 0.24359 0.61386 0.0
C684 C 0.92007 0.24105 0.56634 0.0
N685 N 0.89596 0.27161 0.56001 0.0
C686 C 0.88318 0.26332 0.59334 0.0
C687 C 0.91427 0.26082 0.54658 0.0
C688 C 0.90704 0.2324 0.60017 0.0
C689 C 0.88861 0.3738 0.49103 0.0
N690 N 0.87422 0.36964 0.52486 0.0
C691 C 0.90294 0.39136 0.49378 0.0
C692 C 0.90243 0.40473 0.53145 0.0
C693 C 0.88766 0.40041 0.56576 0.0
C694 C 0.87362 0.38268 0.56191 0.0
C695 C 0.80839 0.39404 0.52642 0.0
C696 C 0.81612 0.35467 0.56855 0.0
C697 C 0.82642 0.38133 0.51518 0.0
N698 N 0.83017 0.36198 0.5364 0.0
C699 C 0.79795 0.36695 0.58072 0.0
C700 C 0.79411 0.38678 0.55948 0.0
C701 C 0.83833 0.29835 0.5224 0.0
C702 C 0.90586 0.28988 0.39823 0.0
C703 C 0.88225 0.26748 0.46234 0.0
C704 C 0.88426 0.25883 0.41928 0.0
C705 C 0.89613 0.27016 0.38705 0.0
N706 N 0.89181 0.28685 0.47305 0.0
C707 C 0.90352 0.29802 0.44165 0.0
Co708 Co 0.68039 0.16866 0.50803 0.0
Co709 Co 0.72409 0.13527 0.48359 0.0
O710 O 0.69902 0.14358 0.51994 0.0
C711 C 0.6964 0.17611 0.59942 0.0
O712 O 0.71574 0.17193 0.58289 0.0
C713 C 0.71234 0.08817 0.46602 0.0
O714 O 0.71189 0.09193 0.4227 0.0
O715 O 0.70604 0.1371 0.4276 0.0
O716 O 0.68082 0.16265 0.44225 0.0
H717 H 0.7745 0.14025 0.35156 0.0
H718 H 0.6667 0.13592 0.57529 0.0
O719 O 0.67976 0.17533 0.574 0.0
H720 H 0.6084 0.13682 0.46183 0.0
H721 H 0.61791 0.21925 0.54017 0.0
H722 H 0.67965 0.20367 0.4396 0.0
H723 H 0.64022 0.16095 0.45433 0.0
H724 H 0.64154 0.18746 0.55359 0.0
O725 O 0.71577 0.10376 0.49341 0.0
H726 H 0.74348 0.15118 0.39899 0.0
H727 H 0.75756 0.10011 0.49038 0.0
H728 H 0.65628 0.23546 0.4246 0.0
H729 H 0.63505 0.11165 0.58433 0.0
H730 H 0.62516 0.24343 0.47513 0.0
H731 H 0.60563 0.11199 0.5273 0.0
O732 O 0.70609 0.18791 0.50106 0.0
H733 H 0.7384 0.11565 0.64454 0.0
H734 H 0.76828 0.15093 0.50955 0.0
H735 H 0.78979 0.15073 0.57923 0.0
H736 H 0.77487 0.13294 0.64739 0.0
H737 H 0.71729 0.11658 0.57434 0.0
H738 H 0.78864 0.08853 0.44384 0.0
H739 H 0.79731 0.1087 0.37392 0.0
O740 O 0.73335 0.16668 0.47612 0.0
C741 C 0.69059 0.1498 0.41541 0.0
C742 C 0.77091 0.13135 0.38198 0.0
C743 C 0.77883 0.10231 0.43375 0.0
N744 N 0.74877 0.12634 0.44744 0.0
C745 C 0.75339 0.13749 0.40899 0.0
C746 C 0.76119 0.10891 0.45992 0.0
C747 C 0.78369 0.11364 0.39454 0.0
C748 C 0.65389 0.13625 0.5505 0.0
N749 N 0.65524 0.1499 0.51447 0.0
C750 C 0.63605 0.12243 0.55572 0.0
C751 C 0.61956 0.12261 0.52368 0.0
C752 C 0.6211 0.13653 0.48693 0.0
C753 C 0.63919 0.15011 0.4828 0.0
C754 C 0.6314 0.21592 0.51787 0.0
C755 C 0.66604 0.20694 0.46154 0.0
C756 C 0.64486 0.19798 0.52536 0.0
N757 N 0.66183 0.19362 0.49717 0.0
C758 C 0.65291 0.22501 0.45297 0.0
C759 C 0.63547 0.22948 0.48136 0.0
C760 C 0.72547 0.18527 0.48675 0.0
C761 C 0.74508 0.12344 0.61506 0.0
C762 C 0.76159 0.14336 0.53914 0.0
C763 C 0.7739 0.14318 0.57846 0.0
C764 C 0.76553 0.13317 0.61666 0.0
N765 N 0.7415 0.13389 0.53786 0.0
C766 C 0.73324 0.12395 0.57514 0.0
Co767 Co 0.86039 0.67505 0.51246 0.0
Co768 Co 0.89314 0.71786 0.47787 0.0
O769 O 0.88591 0.6938 0.51871 0.0
C770 C 0.85719 0.69071 0.60766 0.0
O771 O 0.86701 0.70903 0.59774 0.0
C772 C 0.93191 0.68871 0.47639 0.0
O773 O 0.91836 0.67249 0.47032 0.0
O774 O 0.88706 0.69976 0.42285 0.0
O775 O 0.86516 0.67296 0.44678 0.0
H776 H 0.88113 0.76816 0.34751 0.0
H777 H 0.89556 0.66424 0.57633 0.0
O778 O 0.85442 0.67604 0.57821 0.0
H779 H 0.89003 0.60067 0.47644 0.0
H780 H 0.80941 0.6146 0.5569 0.0
H781 H 0.82391 0.67314 0.44787 0.0
H782 H 0.86519 0.6319 0.46753 0.0
H783 H 0.84205 0.63761 0.56415 0.0
O784 O 0.92461 0.70813 0.47778 0.0
H785 H 0.87204 0.73805 0.39893 0.0
H786 H 0.93052 0.74864 0.4714 0.0
H787 H 0.79117 0.65036 0.43911 0.0
H788 H 0.9206 0.63329 0.58685 0.0
H789 H 0.78375 0.62085 0.4939 0.0
H790 H 0.918 0.60126 0.5365 0.0
O791 O 0.84123 0.70087 0.50462 0.0
H792 H 0.92584 0.73344 0.62889 0.0
H793 H 0.88066 0.76265 0.50636 0.0
H794 H 0.88737 0.78512 0.57328 0.0
H795 H 0.91019 0.77056 0.6351 0.0
H796 H 0.91837 0.71137 0.56173 0.0
H797 H 0.94033 0.77874 0.42057 0.0
H798 H 0.9155 0.78873 0.35821 0.0
O799 O 0.86202 0.72836 0.47917 0.0
C800 C 0.87547 0.68284 0.41589 0.0
C801 C 0.89205 0.764 0.37464 0.0
C802 C 0.9253 0.76992 0.4156 0.0
N803 N 0.90067 0.74169 0.43823 0.0
C804 C 0.88697 0.74702 0.40391 0.0
C805 C 0.91969 0.75282 0.44419 0.0
C806 C 0.91135 0.77552 0.38063 0.0
C807 C 0.89427 0.65031 0.55445 0.0
N808 N 0.87909 0.64996 0.52103 0.0
C809 C 0.90851 0.63285 0.5605 0.0
C810 C 0.90706 0.6149 0.53221 0.0
C811 C 0.8914 0.61457 0.49846 0.0
C812 C 0.87747 0.63235 0.49336 0.0
C813 C 0.81249 0.62737 0.53275 0.0
C814 C 0.82088 0.66021 0.47164 0.0
C815 C 0.83093 0.64049 0.53673 0.0
N816 N 0.83498 0.65658 0.50621 0.0
C817 C 0.80228 0.64742 0.4666 0.0
C818 C 0.79811 0.63088 0.49739 0.0
C819 C 0.84369 0.72049 0.49153 0.0
C820 C 0.91588 0.73998 0.60217 0.0
C821 C 0.8904 0.75611 0.53329 0.0
C822 C 0.89425 0.76896 0.57102 0.0
C823 C 0.90708 0.76079 0.60566 0.0
N824 N 0.89904 0.73568 0.53014 0.0
C825 C 0.91167 0.72758 0.56395 0.0
Co826 Co 0.33089 0.85379 0.5072 0.0
Co827 Co 0.29675 0.89481 0.47173 0.0
O828 O 0.31837 0.883 0.51302 0.0
C829 C 0.31335 0.85531 0.59875 0.0
O830 O 0.29554 0.86282 0.58004 0.0
C831 C 0.32977 0.93077 0.47876 0.0
O832 O 0.34536 0.91641 0.4732 0.0
O833 O 0.31624 0.88809 0.41987 0.0
O834 O 0.33223 0.85657 0.43991 0.0
H835 H 0.25081 0.89446 0.33262 0.0
H836 H 0.35133 0.88571 0.56847 0.0
O837 O 0.32969 0.85047 0.57437 0.0
H838 H 0.40824 0.86682 0.45869 0.0
H839 H 0.38004 0.79231 0.5537 0.0
H840 H 0.3239 0.81632 0.44648 0.0
H841 H 0.37199 0.84978 0.45465 0.0
H842 H 0.36434 0.82917 0.55871 0.0
O843 O 0.30995 0.92472 0.47774 0.0
H844 H 0.27755 0.87971 0.38632 0.0
H845 H 0.27072 0.93582 0.468 0.0
H846 H 0.33929 0.77941 0.43997 0.0
H847 H 0.38742 0.90299 0.57399 0.0
H848 H 0.36757 0.76719 0.49387 0.0
H849 H 0.41616 0.89361 0.51874 0.0
O850 O 0.30154 0.84041 0.50285 0.0
H851 H 0.28067 0.92336 0.62591 0.0
H852 H 0.24965 0.88784 0.49246 0.0
H853 H 0.22616 0.895 0.55775 0.0
H854 H 0.24165 0.91294 0.6251 0.0
H855 H 0.30365 0.91558 0.56011 0.0
H856 H 0.24409 0.95126 0.41501 0.0
H857 H 0.23389 0.93049 0.34685 0.0
O858 O 0.2821 0.86558 0.46598 0.0
C859 C 0.32769 0.87125 0.41098 0.0
C860 C 0.25507 0.90364 0.36227 0.0
C861 C 0.25132 0.93553 0.40848 0.0
N862 N 0.27558 0.90682 0.43037 0.0
C863 C 0.27016 0.89535 0.39283 0.0
C864 C 0.26647 0.92673 0.43829 0.0
C865 C 0.2456 0.92386 0.37025 0.0
C866 C 0.36381 0.8814 0.54456 0.0
N867 N 0.35959 0.8667 0.51141 0.0
C868 C 0.38419 0.8913 0.54775 0.0
C869 C 0.4003 0.88605 0.5167 0.0
C870 C 0.39586 0.87103 0.48298 0.0
C871 C 0.37529 0.86148 0.48079 0.0
C872 C 0.36777 0.79746 0.52995 0.0
C873 C 0.33632 0.81117 0.46983 0.0
C874 C 0.3588 0.81829 0.53267 0.0
N875 N 0.34338 0.82493 0.50265 0.0
C876 C 0.34492 0.79023 0.46608 0.0
C877 C 0.36076 0.78338 0.49636 0.0
C878 C 0.28431 0.84656 0.48281 0.0
C879 C 0.27372 0.91557 0.59674 0.0
C880 C 0.25655 0.89547 0.52173 0.0
C881 C 0.24315 0.89959 0.55855 0.0
C882 C 0.25184 0.90968 0.5963 0.0
N883 N 0.27802 0.90122 0.52245 0.0
C884 C 0.28663 0.9112 0.5593 0.0
Co885 Co 0.16327 0.32871 0.4866 0.0
Co886 Co 0.12145 0.29126 0.47331 0.0
O887 O 0.13441 0.31692 0.5023 0.0
C888 C 0.16664 0.3216 0.58453 0.0
O889 O 0.15632 0.30309 0.5794 0.0
C890 C 0.08544 0.32487 0.47134 0.0
O891 O 0.09975 0.34051 0.46632 0.0
O892 O 0.12784 0.30355 0.41224 0.0
O893 O 0.15766 0.32402 0.42184 0.0
H894 H 0.12019 0.23018 0.36185 0.0
H895 H 0.13408 0.35453 0.54487 0.0
O896 O 0.17005 0.33399 0.55113 0.0
H897 H 0.14685 0.40032 0.41168 0.0
H898 H 0.22554 0.38156 0.49882 0.0
H899 H 0.19806 0.31585 0.42313 0.0
H900 H 0.16416 0.3643 0.41829 0.0
H901 H 0.18947 0.36664 0.51787 0.0
O902 O 0.09169 0.30513 0.47271 0.0
H903 H 0.13581 0.26197 0.40063 0.0
H904 H 0.0797 0.26655 0.48319 0.0
H905 H 0.23412 0.33035 0.40272 0.0
H906 H 0.11666 0.39061 0.5399 0.0
H907 H 0.24809 0.36344 0.4407 0.0
H908 H 0.12294 0.41372 0.47284 0.0
O909 O 0.17701 0.29944 0.49172 0.0
H910 H 0.09566 0.2959 0.63283 0.0
H911 H 0.12475 0.24735 0.51591 0.0
H912 H 0.11737 0.23269 0.59135 0.0
H913 H 0.10271 0.25705 0.65046 0.0
H914 H 0.10351 0.30989 0.5571 0.0
H915 H 0.06337 0.23504 0.44495 0.0
H916 H 0.0837 0.21655 0.38395 0.0
O917 O 0.15031 0.27573 0.47552 0.0
C918 C 0.1433 0.31534 0.39697 0.0
C919 C 0.1112 0.23806 0.38846 0.0
C920 C 0.07929 0.24082 0.43503 0.0
N921 N 0.10875 0.26605 0.44426 0.0
C922 C 0.11999 0.25602 0.41062 0.0
C923 C 0.08858 0.25873 0.45642 0.0
C924 C 0.09071 0.23044 0.40083 0.0
C925 C 0.13706 0.3646 0.51579 0.0
N926 N 0.15013 0.35732 0.48195 0.0
C927 C 0.12707 0.38496 0.51308 0.0
C928 C 0.13058 0.39791 0.47541 0.0
C929 C 0.14397 0.39039 0.44106 0.0
C930 C 0.15366 0.36993 0.4449 0.0
C931 C 0.21962 0.36716 0.48198 0.0
C932 C 0.20397 0.33033 0.43963 0.0
C933 C 0.19923 0.3586 0.4927 0.0
N934 N 0.1916 0.34048 0.4714 0.0
C935 C 0.22443 0.33843 0.42801 0.0
C936 C 0.23226 0.35699 0.44936 0.0
C937 C 0.17008 0.28018 0.48519 0.0
C938 C 0.10212 0.28513 0.60742 0.0
C939 C 0.11864 0.25809 0.5416 0.0
C940 C 0.11435 0.24968 0.58418 0.0
C941 C 0.10609 0.26334 0.6173 0.0
N942 N 0.11491 0.27952 0.53225 0.0
C943 C 0.10659 0.29296 0.56444 0.0
H944 H 0.18642 0.54454 0.92391 0.0
H945 H 0.2041 0.56887 0.05539 0.0
H946 H 0.20418 0.53141 0.08488 0.0
H947 H 0.15008 0.50116 0.96551 0.0
H948 H 0.1579 0.48248 0.92187 0.0
H949 H 0.15841 0.51135 0.91149 0.0
H950 H 0.19887 0.50858 0.88796 0.0
H951 H 0.19854 0.47977 0.8986 0.0
H952 H 0.21829 0.49677 0.92617 0.0
H953 H 0.20642 0.49058 0.09821 0.0
H954 H 0.20585 0.45024 0.09617 0.0
H955 H 0.18362 0.45251 0.95842 0.0
C956 C 0.18994 0.54203 0.95908 0.0
C957 C 0.19519 0.55982 0.98723 0.0
C958 C 0.19981 0.55569 0.03307 0.0
C959 C 0.20003 0.53437 0.05017 0.0
C960 C 0.19522 0.5172 0.02138 0.0
C961 C 0.18981 0.52083 0.97701 0.0
C962 C 0.18522 0.49949 0.95322 0.0
C963 C 0.16149 0.49857 0.93707 0.0
C964 C 0.20118 0.49595 0.91418 0.0
C965 C 0.18926 0.48332 0.99085 0.0
C966 C 0.19526 0.49384 0.02981 0.0
C967 C 0.20129 0.48221 0.06813 0.0
C968 C 0.201 0.45931 0.06669 0.0
C969 C 0.19429 0.44822 0.02753 0.0
C970 C 0.1883 0.46051 0.98925 0.0
H971 H 0.46074 0.22256 1.00359 0.0
H972 H 0.45028 0.15444 0.97217 0.0
H973 H 0.48897 0.14684 0.98767 0.0
H974 H 0.51436 0.22648 0.954 0.0
H975 H 0.52469 0.24451 0.99653 0.0
H976 H 0.49613 0.24464 0.98302 0.0
H977 H 0.48678 0.23731 0.0663 0.0
H978 H 0.51531 0.23708 0.08003 0.0
H979 H 0.4985 0.21408 0.0942 0.0
H980 H 0.52907 0.14646 1.00725 0.0
H981 H 0.56743 0.15363 0.02697 0.0
H982 H 0.55213 0.22197 0.04531 0.0
C983 C 0.46657 0.20604 0.99983 0.0
C984 C 0.45232 0.18912 0.98648 0.0
C985 C 0.46075 0.16775 0.98209 0.0
C986 C 0.48276 0.16323 0.99097 0.0
C987 C 0.49631 0.18023 1.00419 0.0
C988 C 0.48857 0.20124 0.00842 0.0
C989 C 0.50664 0.21657 0.02282 0.0
C990 C 0.51069 0.23408 0.98695 0.0
C991 C 0.5015 0.22686 0.06855 0.0
C992 C 0.52571 0.20091 0.02609 0.0
C993 C 0.51939 0.18001 0.01531 0.0
C994 C 0.53417 0.16278 0.01577 0.0
C995 C 0.55597 0.16701 0.02716 0.0
C996 C 0.56294 0.18834 0.03795 0.0
C997 C 0.54743 0.20544 0.03749 0.0
H998 H 0.80297 0.46309 0.97435 0.0
H999 H 0.8719 0.44784 0.9744 0.0
H1000 H 0.88022 0.48628 0.99208 0.0
H1001 H 0.80717 0.51686 0.92502 0.0
H1002 H 0.78578 0.52795 0.95945 0.0
H1003 H 0.78556 0.49953 0.94484 0.0
H1004 H 0.78378 0.48932 0.02902 0.0
H1005 H 0.78412 0.51769 0.04389 0.0
H1006 H 0.80429 0.4995 0.06669 0.0
H1007 H 0.88074 0.52691 0.0119 0.0
H1008 H 0.8734 0.56542 0.03091 0.0
H1009 H 0.8041 0.55334 0.0189 0.0
C1010 C 0.81987 0.46781 0.97743 0.0
C1011 C 0.8368 0.45234 0.9725 0.0
C1012 C 0.85863 0.45932 0.97762 0.0
C1013 C 0.86351 0.48115 0.98779 0.0
C1014 C 0.8464 0.49589 0.99294 0.0
C1015 C 0.825 0.48945 0.9878 0.0
C1016 C 0.8095 0.50821 0.99618 0.0
C1017 C 0.79623 0.51345 0.95385 0.0
C1018 C 0.79455 0.50339 0.03633 0.0
C1019 C 0.82546 0.52626 1.00688 0.0
C1020 C 0.84668 0.51891 1.00481 0.0
C1021 C 0.86416 0.53278 0.01354 0.0
C1022 C 0.85983 0.55466 0.02441 0.0
C1023 C 0.83818 0.56254 0.02663 0.0
C1024 C 0.82086 0.54797 0.01773 0.0
H1025 H 0.5642 0.83683 0.05337 0.0
H1026 H 0.56383 0.82385 0.91066 0.0
H1027 H 0.52354 0.82473 0.91093 0.0
H1028 H 0.52058 0.8016 0.07817 0.0
H1029 H 0.50936 0.81815 0.12234 0.0
H1030 H 0.53798 0.81946 0.10988 0.0
H1031 H 0.53498 0.8611 0.09824 0.0
H1032 H 0.50632 0.85992 0.1107 0.0
H1033 H 0.5155 0.87173 0.05873 0.0
H1034 H 0.48324 0.82554 0.92745 0.0
H1035 H 0.44637 0.82278 0.95922 0.0
H1036 H 0.47272 0.83255 0.09266 0.0
C1037 C 0.55562 0.83479 0.02197 0.0
C1038 C 0.56714 0.83084 0.98168 0.0
C1039 C 0.55533 0.82727 0.94167 0.0
C1040 C 0.53245 0.82776 0.94155 0.0
C1041 C 0.52156 0.83147 0.98191 0.0
C1042 C 0.53276 0.8347 0.02149 0.0
C1043 C 0.5172 0.83613 0.06098 0.0
C1044 C 0.52154 0.81774 0.09483 0.0
C1045 C 0.51859 0.85856 0.08348 0.0
C1046 C 0.49549 0.83309 0.03752 0.0
C1047 C 0.49838 0.83078 0.99183 0.0
C1048 C 0.48082 0.8274 0.96316 0.0
C1049 C 0.45985 0.82592 0.98164 0.0
C1050 C 0.45646 0.8275 0.02858 0.0
C1051 C 0.47463 0.83141 0.05667 0.0
H1052 H 0.69674 0.05092 0.42455 0.0
H1053 H 0.72746 0.07363 0.54677 0.0
H1054 H 0.7295 0.03593 0.5745 0.0
H1055 H 0.66399 1.00858 0.47886 0.0
H1056 H 0.66676 0.9898 0.43286 0.0
H1057 H 0.66745 0.01867 0.42256 0.0
H1058 H 0.7048 0.01451 0.38332 0.0
H1059 H 0.70425 0.98566 0.39362 0.0
H1060 H 0.72693 1.00168 0.41288 0.0
H1061 H 0.73101 0.99525 0.58664 0.0
H1062 H 0.72843 0.95507 0.58525 0.0
H1063 H 0.69415 0.95854 0.45845 0.0
C1064 C 0.70373 0.04797 0.45729 0.0
C1065 C 0.71193 0.06538 0.48339 0.0
C1066 C 0.72091 0.06072 0.52614 0.0
C1067 C 0.72225 0.03928 0.54219 0.0
C1068 C 0.71422 0.0225 0.51555 0.0
C1069 C 0.70482 0.0266 0.4743 0.0
C1070 C 0.69719 1.00557 0.45269 0.0
C1071 C 0.67237 1.00567 0.44638 0.0
C1072 C 0.709 1.00163 0.40798 0.0
C1073 C 0.70405 0.98904 0.48789 0.0
C1074 C 0.71405 0.99914 0.52369 0.0
C1075 C 0.72289 0.9872 0.55911 0.0
C1076 C 0.72139 0.96437 0.55802 0.0
C1077 C 0.71079 0.95365 0.5222 0.0
C1078 C 0.70194 0.96626 0.48682 0.0
H1079 H 0.96448 0.71811 0.49659 0.0
H1080 H 0.95261 0.64917 0.47737 0.0
H1081 H 0.99102 0.64139 0.49546 0.0
H1082 H 0.01873 0.71888 0.44913 0.0
H1083 H 0.02892 0.73838 0.48897 0.0
H1084 H 1.00056 0.73851 0.47387 0.0
H1085 H 0.99003 0.73481 0.55759 0.0
H1086 H 0.01837 0.73454 0.57291 0.0
H1087 H 1.00085 0.71255 0.59001 0.0
H1088 H 0.03116 0.64106 0.51589 0.0
H1089 H 0.06957 0.6484 0.53536 0.0
H1090 H 0.05515 0.71743 0.54241 0.0
C1091 C 0.96996 0.70138 0.49586 0.0
C1092 C 0.9554 0.68427 0.48524 0.0
C1093 C 0.96334 0.66261 0.4851 0.0
C1094 C 0.98518 0.658 0.49548 0.0
C1095 C 0.99903 0.67519 0.50609 0.0
C1096 C 0.99174 0.69647 0.50623 0.0
C1097 C 0.00994 0.71196 0.51895 0.0
C1098 C 0.01482 0.72787 0.48043 0.0
C1099 C 1.00446 0.72418 0.56245 0.0
C1100 C 0.02858 0.69611 0.52594 0.0
C1101 C 0.02197 0.67497 0.51835 0.0
C1102 C 0.03646 0.65756 0.52205 0.0
C1103 C 0.05828 0.66189 0.53327 0.0
C1104 C 0.06549 0.68346 0.54088 0.0
C1105 C 0.05024 0.7007 0.53739 0.0
H1106 H 0.30287 0.055 0.53795 0.0
H1107 H 0.37225 0.06799 0.53605 0.0
H1108 H 0.37927 0.02925 0.51882 0.0
H1109 H 0.30576 1.00156 0.5886 0.0
H1110 H 0.28388 0.99079 0.55514 0.0
H1111 H 0.28453 0.01933 0.56862 0.0
H1112 H 0.28259 0.02884 0.48413 0.0
H1113 H 0.28202 1.00034 0.47038 0.0
H1114 H 0.30257 0.01769 0.44635 0.0
H1115 H 0.37852 0.98861 0.50049 0.0
H1116 H 0.3701 0.95017 0.48328 0.0
H1117 H 0.30118 0.96422 0.49624 0.0
C1118 C 0.31959 0.04973 0.53437 0.0
C1119 C 0.33703 0.06465 0.53873 0.0
C1120 C 0.35861 0.05696 0.53316 0.0
C1121 C 0.36275 0.03494 0.52328 0.0
C1122 C 0.34517 0.02074 0.51888 0.0
C1123 C 0.32401 0.02787 0.52432 0.0
C1124 C 0.30793 0.00949 0.51705 0.0
C1125 C 0.29476 1.00503 0.55991 0.0
C1126 C 0.2929 0.01439 0.4771 0.0
C1127 C 0.32331 0.99086 0.50667 0.0
C1128 C 0.34473 0.99763 0.50792 0.0
C1129 C 0.36179 0.9832 0.49944 0.0
C1130 C 0.35683 0.96135 0.48961 0.0
C1131 C 0.33497 0.95404 0.48818 0.0
C1132 C 0.31808 0.96917 0.49683 0.0
H1133 H 0.05115 0.29616 0.47682 0.0
H1134 H 0.06655 0.36489 0.48556 0.0
H1135 H 0.02816 0.37275 0.50459 0.0
H1136 H 0.99763 0.30266 0.42722 0.0
H1137 H 0.9861 0.2802 0.45794 0.0
H1138 H 0.01462 0.28019 0.44404 0.0
H1139 H 0.02425 0.27518 0.52788 0.0
H1140 H 0.99577 0.27531 0.54211 0.0
H1141 H 0.01401 0.29435 0.56842 0.0
H1142 H 0.98802 0.37285 0.52571 0.0
H1143 H 0.94941 0.36552 0.54294 0.0
H1144 H 0.96015 0.29671 0.51931 0.0
C1145 C 0.0465 0.31291 0.48243 0.0
C1146 C 0.06202 0.32992 0.47961 0.0
C1147 C 0.05506 0.35158 0.48724 0.0
C1148 C 0.03326 0.35619 0.49826 0.0
C1149 C 0.0185 0.339 0.50132 0.0
C1150 C 0.02481 0.31781 0.49324 0.0
C1151 C 1.00582 0.30225 0.49874 0.0
C1152 C 1.00075 0.29064 0.45434 0.0
C1153 C 0.01023 0.2858 0.53654 0.0
C1154 C 0.98781 0.31796 0.51148 0.0
C1155 C 0.99546 0.33908 0.51293 0.0
C1156 C 0.98189 0.35637 0.52449 0.0
C1157 C 0.95994 0.35202 0.53441 0.0
C1158 C 0.95162 0.33053 0.53262 0.0
C1159 C 0.9659 0.31332 0.52102 0.0
H1160 H 0.268 0.33112 0.02039 0.0
H1161 H 0.21073 0.29028 0.00815 0.0
H1162 H 0.23413 0.25797 1.00146 0.0
H1163 H 0.29991 0.30244 0.9392 0.0
H1164 H 0.32529 0.30532 0.96883 0.0
H1165 H 0.30421 0.32542 0.97559 0.0
H1166 H 0.30491 0.3196 0.0615 0.0
H1167 H 0.32608 0.29957 0.05504 0.0
H1168 H 0.30129 0.29261 0.08392 0.0
H1169 H 0.26325 0.23005 0.99493 0.0
H1170 H 0.29649 0.20803 0.98857 0.0
H1171 H 0.33574 0.26642 1.00147 0.0
C1172 C 0.26039 0.31536 0.01695 0.0
C1173 C 0.23742 0.31332 0.01507 0.0
C1174 C 0.2282 0.29236 0.00971 0.0
C1175 C 0.24138 0.27385 1.00589 0.0
C1176 C 0.26387 0.27644 1.00707 0.0
C1177 C 0.27338 0.29662 0.01242 0.0
C1178 C 0.29806 0.29476 0.01087 0.0
C1179 C 0.30742 0.30776 0.97126 0.0
C1180 C 0.30818 0.30207 0.05549 0.0
C1181 C 0.30085 0.27042 1.00383 0.0
C1182 C 0.28085 0.26023 1.00202 0.0
C1183 C 0.27901 0.23784 0.99629 0.0
C1184 C 0.29807 0.22545 0.99271 0.0
C1185 C 0.31889 0.23537 0.99449 0.0
C1186 C 0.32017 0.25827 0.99977 0.0
H1187 H 0.77884 0.30406 0.97732 0.0
H1188 H 0.74736 0.35969 0.03833 0.0
H1189 H 0.71598 0.33689 0.05901 0.0
H1190 H 0.72909 0.28072 0.93078 0.0
H1191 H 0.73735 0.253 0.94058 0.0
H1192 H 0.75756 0.27367 0.93086 0.0
H1193 H 0.7763 0.26348 1.00571 0.0
H1194 H 0.756 0.24292 0.01586 0.0
H1195 H 0.76073 0.26387 0.05691 0.0
H1196 H 0.68889 0.308 0.07651 0.0
H1197 H 0.66533 0.27583 0.08157 0.0
H1198 H 0.71261 0.23854 1.00524 0.0
C1199 C 0.76518 0.31138 0.99459 0.0
C1200 C 0.76526 0.33377 1.00545 0.0
C1201 C 0.7473 0.34279 0.02849 0.0
C1202 C 0.72953 0.32988 0.04092 0.0
C1203 C 0.72985 0.30789 0.0298 0.0
C1204 C 0.747 0.29871 1.00655 0.0
C1205 C 0.74271 0.27475 0.99758 0.0
C1206 C 0.74161 0.27028 0.94694 0.0
C1207 C 0.75996 0.26041 0.02038 0.0
C1208 C 0.72056 0.27198 0.01958 0.0
C1209 C 0.71366 0.29127 0.03848 0.0
C1210 C 0.69398 0.29285 0.06137 0.0
C1211 C 0.68067 0.27439 0.06404 0.0
C1212 C 0.68681 0.25458 0.04325 0.0
C1213 C 0.70728 0.25339 0.02134 0.0
H1214 H 0.78662 0.71418 0.01244 0.0
H1215 H 0.74604 0.66057 0.05725 0.0
H1216 H 0.71343 0.68284 0.04495 0.0
H1217 H 0.75345 0.75624 0.06759 0.0
H1218 H 0.75788 0.77591 0.02372 0.0
H1219 H 0.77829 0.75565 0.03546 0.0
H1220 H 0.77716 0.74344 0.95248 0.0
H1221 H 0.75651 0.76344 0.94064 0.0
H1222 H 0.75164 0.73519 0.92811 0.0
H1223 H 0.68501 0.70939 0.02165 0.0
H1224 H 0.66251 0.74114 1.00304 0.0
H1225 H 0.72061 0.77965 0.98103 0.0
C1226 C 0.7709 0.70717 0.02006 0.0
C1227 C 0.76902 0.68527 0.03468 0.0
C1228 C 0.74807 0.67698 0.04493 0.0
C1229 C 0.72935 0.68955 0.03811 0.0
C1230 C 0.73173 0.71069 0.02218 0.0
C1231 C 0.75195 0.71973 0.01456 0.0
C1232 C 0.7498 0.74329 0.99956 0.0
C1233 C 0.76049 0.75868 0.03362 0.0
C1234 C 0.75935 0.74652 0.95239 0.0
C1235 C 0.7252 0.74589 0.99934 0.0
C1236 C 0.71519 0.7267 0.01174 0.0
C1237 C 0.69266 0.72458 0.01236 0.0
C1238 C 0.67995 0.74271 1.00118 0.0
C1239 C 0.68968 0.76289 0.99028 0.0
C1240 C 0.71268 0.76443 0.9892 0.0
H1241 H 0.23223 0.71976 0.9972 0.0
H1242 H 0.27318 0.66233 0.98922 0.0
H1243 H 0.30544 0.68477 1.00363 0.0
H1244 H 0.27085 0.75432 0.93691 0.0
H1245 H 0.2642 0.77827 0.96888 0.0
H1246 H 0.24397 0.75752 0.96018 0.0
H1247 H 0.23853 0.75449 0.04601 0.0
H1248 H 0.25896 0.77502 0.05499 0.0
H1249 H 0.2616 0.74878 0.08139 0.0
H1250 H 0.33296 0.71281 0.02603 0.0
H1251 H 0.35516 0.74552 0.03804 0.0
H1252 H 0.29787 0.78594 0.01996 0.0
C1253 C 0.24798 0.71189 0.9984 0.0
C1254 C 0.24992 0.68901 0.99363 0.0
C1255 C 0.27098 0.67958 0.99423 0.0
C1256 C 0.28952 0.69224 1.00231 0.0
C1257 C 0.28696 0.71454 0.00828 0.0
C1258 C 0.26684 0.72443 1.00496 0.0
C1259 C 0.26896 0.74896 0.00948 0.0
C1260 C 0.26156 0.76044 0.96629 0.0
C1261 C 0.25626 0.7573 0.05041 0.0
C1262 C 0.29335 0.7512 0.01641 0.0
C1263 C 0.30329 0.73106 0.01655 0.0
C1264 C 0.32546 0.72873 0.02479 0.0
C1265 C 0.33799 0.74749 0.03147 0.0
C1266 C 0.32855 0.76848 0.02846 0.0
C1267 C 0.30577 0.77022 0.02163 0.0
H1268 H 0.84212 0.76562 0.49288 0.0
H1269 H 0.80101 0.70823 0.49548 0.0
H1270 H 0.76875 0.73148 0.50539 0.0
H1271 H 0.81335 0.79471 0.57806 0.0
H1272 H 0.81648 0.82101 0.55215 0.0
H1273 H 0.8365 0.8001 0.54267 0.0
H1274 H 0.83102 0.80374 0.45696 0.0
H1275 H 0.8111 0.82478 0.46617 0.0
H1276 H 0.80408 0.80109 0.43375 0.0
H1277 H 0.74089 0.76057 0.51646 0.0
H1278 H 0.71904 0.79378 0.52623 0.0
H1279 H 0.77783 0.8328 0.51943 0.0
C1280 C 0.82634 0.75794 0.49497 0.0
C1281 C 0.82424 0.73498 0.49328 0.0
C1282 C 0.80318 0.72569 0.49668 0.0
C1283 C 0.7847 0.73878 0.50237 0.0
C1284 C 0.78739 0.76123 0.50488 0.0
C1285 C 0.80764 0.7708 0.50117 0.0
C1286 C 0.80594 0.79536 0.50619 0.0
C1287 C 0.81884 0.80325 0.54721 0.0
C1288 C 0.81348 0.80692 0.4632 0.0
C1289 C 0.78159 0.79803 0.5133 0.0
C1290 C 0.77126 0.7781 0.51226 0.0
C1291 C 0.74881 0.77627 0.51733 0.0
C1292 C 0.73652 0.7953 0.52293 0.0
C1293 C 0.74661 0.81604 0.52372 0.0
C1294 C 0.76955 0.81728 0.51936 0.0
H1295 H 0.2821 0.80372 0.51174 0.0
H1296 H 0.24322 0.85508 0.45158 0.0
H1297 H 0.2107 0.83205 0.45758 0.0
H1298 H 0.25362 0.75901 0.45504 0.0
H1299 H 0.2557 0.74097 0.50249 0.0
H1300 H 0.27623 0.76139 0.49317 0.0
H1301 H 0.26969 0.77636 0.57311 0.0
H1302 H 0.24898 0.75615 0.58251 0.0
H1303 H 0.24267 0.78457 0.58944 0.0
H1304 H 0.18193 0.80492 0.47453 0.0
H1305 H 0.15915 0.77331 0.49264 0.0
H1306 H 0.216 0.73774 0.5374 0.0
C1307 C 0.26679 0.81008 0.49944 0.0
C1308 C 0.2653 0.8315 0.48185 0.0
C1309 C 0.24491 0.83898 0.46581 0.0
C1310 C 0.22626 0.82597 0.46903 0.0
C1311 C 0.22821 0.80527 0.48758 0.0
C1312 C 0.24798 0.79713 0.50168 0.0
C1313 C 0.24546 0.77406 0.51948 0.0
C1314 C 0.25853 0.7579 0.49083 0.0
C1315 C 0.2521 0.77272 0.56908 0.0
C1316 C 0.22112 0.77069 0.51377 0.0
C1317 C 0.21156 0.78908 0.49573 0.0
C1318 C 0.18924 0.79042 0.48855 0.0
C1319 C 0.17634 0.77245 0.49957 0.0
C1320 C 0.18565 0.75323 0.5173 0.0
C1321 C 0.20843 0.75229 0.52417 0.0
H1322 H 0.28183 0.21163 0.48757 0.0
H1323 H 0.24816 0.16572 0.57402 0.0
H1324 H 0.21522 0.18821 0.57018 0.0
H1325 H 0.25678 0.26021 0.53727 0.0
H1326 H 0.25527 0.27456 0.48467 0.0
H1327 H 0.27655 0.2549 0.494 0.0
H1328 H 0.26479 0.23428 0.42242 0.0
H1329 H 0.24335 0.25374 0.4131 0.0
H1330 H 0.23705 0.22518 0.41699 0.0
H1331 H 0.18521 0.21381 0.55348 0.0
H1332 H 0.16086 0.24375 0.53255 0.0
H1333 H 0.21347 0.27542 0.46118 0.0
C1334 C 0.26759 0.20637 0.50597 0.0
C1335 C 0.26763 0.18656 0.53047 0.0
C1336 C 0.24863 0.18051 0.55439 0.0
C1337 C 0.22975 0.19323 0.5525 0.0
C1338 C 0.2301 0.21228 0.52727 0.0
C1339 C 0.24858 0.21914 0.50514 0.0
C1340 C 0.24449 0.24067 0.48133 0.0
C1341 C 0.25915 0.25865 0.50047 0.0
C1342 C 0.2476 0.23832 0.43044 0.0
C1343 C 0.22073 0.24459 0.49311 0.0
C1344 C 0.21282 0.2278 0.51924 0.0
C1345 C 0.19125 0.22711 0.53321 0.0
C1346 C 0.1774 0.24411 0.52064 0.0
C1347 C 0.18506 0.2618 0.49472 0.0
C1348 C 0.20713 0.26208 0.48098 0.0
H1349 H 0.83606 0.25325 0.51769 0.0
H1350 H 0.79596 0.31147 0.51471 0.0
H1351 H 0.76353 0.28896 0.50185 0.0
H1352 H 0.80728 0.22467 0.43015 0.0
H1353 H 0.80975 0.19837 0.45638 0.0
H1354 H 0.83013 0.2189 0.46609 0.0
H1355 H 0.82411 0.2155 0.55172 0.0
H1356 H 0.80382 0.19489 0.54226 0.0
H1357 H 0.79711 0.21879 0.57431 0.0
H1358 H 0.73521 0.26052 0.49023 0.0
H1359 H 0.71261 0.2277 0.48273 0.0
H1360 H 0.77059 0.18749 0.49001 0.0
C1361 C 0.82047 0.26129 0.51448 0.0
C1362 C 0.81874 0.28426 0.51716 0.0
C1363 C 0.79791 0.29399 0.51271 0.0
C1364 C 0.7793 0.28132 0.5053 0.0
C1365 C 0.78164 0.25886 0.50215 0.0
C1366 C 0.80164 0.24886 0.50669 0.0
C1367 C 0.79948 0.22434 0.50186 0.0
C1368 C 0.81243 0.21609 0.4612 0.0
C1369 C 0.80655 0.2127 0.54511 0.0
C1370 C 0.77512 0.22218 0.49422 0.0
C1371 C 0.76521 0.24234 0.49455 0.0
C1372 C 0.7428 0.24464 0.48974 0.0
C1373 C 0.73008 0.22584 0.48544 0.0
C1374 C 0.73971 0.20487 0.4857 0.0
C1375 C 0.76265 0.20316 0.48929 0.0
H1376 H 0.17469 0.33913 0.35324 0.0
H1377 H 0.11559 0.30218 0.32946 0.0
H1378 H 0.11817 0.31095 0.24868 0.0
H1379 H 0.16389 0.38199 0.27394 0.0
H1380 H 0.19193 0.38452 0.257 0.0
H1381 H 0.18536 0.37547 0.31284 0.0
H1382 H 0.20831 0.34065 0.30073 0.0
H1383 H 0.21503 0.34961 0.24494 0.0
H1384 H 0.20262 0.32337 0.25339 0.0
H1385 H 0.12756 0.32325 0.17066 0.0
H1386 H 0.14325 0.33697 0.1006 0.0
H1387 H 0.19619 0.36666 0.175 0.0
C1388 C 0.16218 0.33286 0.33128 0.0
C1389 C 0.14483 0.31996 0.34804 0.0
C1390 C 0.12899 0.31207 0.31767 0.0
C1391 C 0.13031 0.31703 0.27172 0.0
C1392 C 0.14752 0.32992 0.25662 0.0
C1393 C 0.16321 0.33768 0.28548 0.0
C1394 C 0.18024 0.35094 0.26068 0.0
C1395 C 0.18035 0.37464 0.27709 0.0
C1396 C 0.20289 0.34051 0.26521 0.0
C1397 C 0.17179 0.34934 0.21306 0.0
C1398 C 0.15286 0.33719 0.21163 0.0
C1399 C 0.14228 0.33288 0.17147 0.0
C1400 C 0.15138 0.34087 0.13169 0.0
C1401 C 0.17094 0.35318 0.13191 0.0
C1402 C 0.1811 0.35763 0.17349 0.0
H1403 H 0.66154 0.17783 0.37453 0.0
H1404 H 0.70548 0.12415 0.34647 0.0
H1405 H 0.6967 0.12718 0.26606 0.0
H1406 H 0.62062 0.16462 0.28907 0.0
H1407 H 0.61568 0.19273 0.2752 0.0
H1408 H 0.62401 0.18538 0.33112 0.0
H1409 H 0.65649 0.21197 0.32552 0.0
H1410 H 0.64831 0.21939 0.26961 0.0
H1411 H 0.67544 0.20937 0.27969 0.0
H1412 H 0.6855 0.13747 0.18897 0.0
H1413 H 0.67286 0.15413 0.11935 0.0
H1414 H 0.63544 0.20142 0.19514 0.0
C1415 C 0.66912 0.16646 0.35166 0.0
C1416 C 0.68418 0.1506 0.36721 0.0
C1417 C 0.69385 0.13632 0.33576 0.0
C1418 C 0.68894 0.13792 0.28992 0.0
C1419 C 0.67429 0.15386 0.27583 0.0
C1420 C 0.66446 0.16787 0.30568 0.0
C1421 C 0.65013 0.18426 0.28127 0.0
C1422 C 0.62619 0.18158 0.29498 0.0
C1423 C 0.65808 0.20763 0.28952 0.0
C1424 C 0.65372 0.17746 0.23285 0.0
C1425 C 0.66763 0.15979 0.23082 0.0
C1426 C 0.67437 0.15109 0.19019 0.0
C1427 C 0.66697 0.16075 0.15057 0.0
C1428 C 0.65278 0.17899 0.1512 0.0
C1429 C 0.64588 0.18727 0.19323 0.0
H1430 H 0.87161 0.70427 0.33401 0.0
H1431 H 0.87389 0.64014 0.39442 0.0
H1432 H 0.86388 0.6236 0.32254 0.0
H1433 H 0.82594 0.69504 0.26602 0.0
H1434 H 0.83548 0.70994 0.21783 0.0
H1435 H 0.84491 0.71712 0.27299 0.0
H1436 H 0.88484 0.71217 0.24738 0.0
H1437 H 0.87552 0.70521 0.19194 0.0
H1438 H 0.89311 0.68686 0.22209 0.0
H1439 H 0.84961 0.61398 0.24739 0.0
H1440 H 0.83555 0.61159 0.17012 0.0
H1441 H 0.84376 0.68134 0.15485 0.0
C1442 C 0.8706 0.68673 0.33164 0.0
C1443 C 0.87342 0.6735 0.37012 0.0
C1444 C 0.87153 0.65064 0.36578 0.0
C1445 C 0.86591 0.64104 0.32492 0.0
C1446 C 0.86238 0.65445 0.28813 0.0
C1447 C 0.86499 0.67676 0.29064 0.0
C1448 C 0.85938 0.6873 0.24595 0.0
C1449 C 0.84029 0.70329 0.25102 0.0
C1450 C 0.87941 0.69855 0.22564 0.0
C1451 C 0.85282 0.66747 0.21862 0.0
C1452 C 0.85465 0.64873 0.24379 0.0
C1453 C 0.84842 0.6285 0.22702 0.0
C1454 C 0.84031 0.62732 0.18315 0.0
C1455 C 0.83864 0.6462 0.15618 0.0
C1456 C 0.84507 0.66654 0.17434 0.0
H1457 H 0.33406 0.83331 0.36362 0.0
H1458 H 0.34086 0.90335 0.35386 0.0
H1459 H 0.35591 0.89936 0.27744 0.0
H1460 H 0.3821 0.81807 0.29907 0.0
H1461 H 0.36884 0.79572 0.27121 0.0
H1462 H 0.36025 0.80377 0.32654 0.0
H1463 H 0.32077 0.8087 0.29805 0.0
H1464 H 0.32919 0.80048 0.24281 0.0
H1465 H 0.31565 0.8262 0.25069 0.0
H1466 H 0.36989 0.88798 0.20205 0.0
H1467 H 0.37742 0.87049 0.12917 0.0
H1468 H 0.35922 0.80795 0.1844 0.0
C1469 C 0.33893 0.84777 0.3455 0.0
C1470 C 0.33649 0.86867 0.36488 0.0
C1471 C 0.3426 0.88722 0.33974 0.0
C1472 C 0.3513 0.88509 0.29642 0.0
C1473 C 0.35352 0.8643 0.27829 0.0
C1474 C 0.3472 0.84597 0.30169 0.0
C1475 C 0.34965 0.8257 0.27294 0.0
C1476 C 0.3662 0.80988 0.29369 0.0
C1477 C 0.3275 0.81462 0.26569 0.0
C1478 C 0.35828 0.8355 0.22966 0.0
C1479 C 0.36074 0.85777 0.2339 0.0
C1480 C 0.36805 0.87057 0.19841 0.0
C1481 C 0.37234 0.86051 0.15717 0.0
C1482 C 0.36912 0.83792 0.1514 0.0
C1483 C 0.36229 0.82518 0.1883 0.0
H1484 H 0.14317 0.70163 0.68677 0.0
H1485 H 0.17779 0.65227 0.61105 0.0
H1486 H 0.19046 0.63558 0.681 0.0
H1487 H 0.18475 0.70836 0.76935 0.0
H1488 H 0.16616 0.71261 0.81524 0.0
H1489 H 0.15825 0.71989 0.75909 0.0
H1490 H 0.12411 0.69544 0.76601 0.0
H1491 H 0.13196 0.68807 0.82219 0.0
H1492 H 0.12725 0.6672 0.78097 0.0
H1493 H 0.20011 0.62414 0.76005 0.0
H1494 H 0.20715 0.62048 0.84151 0.0
H1495 H 0.16838 0.67843 0.86517 0.0
C1496 C 0.15315 0.68714 0.6849 0.0
C1497 C 0.15908 0.67814 0.64298 0.0
C1498 C 0.17265 0.65943 0.64235 0.0
C1499 C 0.18003 0.64975 0.68211 0.0
C1500 C 0.17401 0.65904 0.72271 0.0
C1501 C 0.16101 0.67742 0.72446 0.0
C1502 C 0.15799 0.68483 0.77251 0.0
C1503 C 0.16735 0.70778 0.77944 0.0
C1504 C 0.13389 0.68382 0.78622 0.0
C1505 C 0.17131 0.66782 0.79719 0.0
C1506 C 0.18025 0.65293 0.76801 0.0
C1507 C 0.19317 0.63572 0.78328 0.0
C1508 C 0.19708 0.63374 0.82963 0.0
C1509 C 0.1883 0.64902 0.86016 0.0
C1510 C 0.17527 0.66625 0.84322 0.0
H1511 H 0.32621 0.13679 0.6862 0.0
H1512 H 0.36196 0.18554 0.6107 0.0
H1513 H 0.37762 0.19962 0.68037 0.0
H1514 H 0.31264 0.17172 0.77719 0.0
H1515 H 0.31541 0.1511 0.81977 0.0
H1516 H 0.30806 0.14355 0.76348 0.0
H1517 H 0.34083 0.11707 0.76029 0.0
H1518 H 0.34827 0.12458 0.8166 0.0
H1519 H 0.3678 0.12713 0.77183 0.0
H1520 H 0.38855 0.2098 0.75873 0.0
H1521 H 0.39299 0.21538 0.84032 0.0
H1522 H 0.34982 0.16075 0.86516 0.0
C1523 C 0.33758 0.1502 0.68424 0.0
C1524 C 0.343 0.15974 0.64252 0.0
C1525 C 0.35764 0.17762 0.64184 0.0
C1526 C 0.36668 0.18585 0.68141 0.0
C1527 C 0.36092 0.17622 0.72184 0.0
C1528 C 0.34667 0.15882 0.72366 0.0
C1529 C 0.34241 0.1522 0.77185 0.0
C1530 C 0.31819 0.1548 0.78376 0.0
C1531 C 0.3503 0.12886 0.78065 0.0
C1532 C 0.35634 0.16868 0.79652 0.0
C1533 C 0.36699 0.18231 0.76711 0.0
C1534 C 0.38039 0.19913 0.78216 0.0
C1535 C 0.38285 0.20218 0.8286 0.0
C1536 C 0.37189 0.18852 0.85946 0.0
C1537 C 0.3586 0.17148 0.84279 0.0
H1538 H 0.82183 0.37969 0.83195 0.0
H1539 H 0.85805 0.33125 0.90753 0.0
H1540 H 0.87386 0.31728 0.8379 0.0
H1541 H 0.80915 0.34479 0.7394 0.0
H1542 H 0.812 0.36575 0.69755 0.0
H1543 H 0.80403 0.37279 0.75378 0.0
H1544 H 0.83636 0.3997 0.7589 0.0
H1545 H 0.84444 0.39267 0.7027 0.0
H1546 H 0.86358 0.39008 0.74815 0.0
H1547 H 0.88546 0.30761 0.75964 0.0
H1548 H 0.89096 0.30287 0.67804 0.0
H1549 H 0.84715 0.35707 0.65335 0.0
C1550 C 0.83321 0.36627 0.83391 0.0
C1551 C 0.83874 0.35682 0.87564 0.0
C1552 C 0.85355 0.33905 0.87636 0.0
C1553 C 0.8627 0.33089 0.83683 0.0
C1554 C 0.85692 0.34052 0.79642 0.0
C1555 C 0.84248 0.35777 0.79456 0.0
C1556 C 0.83857 0.36467 0.74645 0.0
C1557 C 0.81451 0.36182 0.73355 0.0
C1558 C 0.8462 0.38818 0.73861 0.0
C1559 C 0.85297 0.34855 0.72188 0.0
C1560 C 0.86349 0.33481 0.75125 0.0
C1561 C 0.87737 0.31835 0.73622 0.0
C1562 C 0.88043 0.31579 0.68981 0.0
C1563 C 0.86962 0.32958 0.659 0.0
C1564 C 0.85583 0.34624 0.67568 0.0
H1565 H 0.64357 0.81916 0.82522 0.0
H1566 H 0.68597 0.86217 0.90082 0.0
H1567 H 0.69925 0.87824 0.83133 0.0
H1568 H 0.68178 0.80877 0.73772 0.0
H1569 H 0.66207 0.80841 0.69302 0.0
H1570 H 0.65404 0.80102 0.74906 0.0
H1571 H 0.62382 0.83035 0.74729 0.0
H1572 H 0.63177 0.83781 0.69119 0.0
H1573 H 0.63085 0.85814 0.73462 0.0
H1574 H 0.70997 0.88878 0.75482 0.0
H1575 H 0.71759 0.89275 0.67423 0.0
H1576 H 0.66917 0.84324 0.64515 0.0
C1577 C 0.65536 0.8322 0.82712 0.0
C1578 C 0.66333 0.83951 0.86911 0.0
C1579 C 0.67917 0.85634 0.8697 0.0
C1580 C 0.68697 0.86566 0.83014 0.0
C1581 C 0.679 0.85805 0.78961 0.0
C1582 C 0.66357 0.84172 0.7875 0.0
C1583 C 0.65875 0.836 0.7389 0.0
C1584 C 0.66451 0.81213 0.72911 0.0
C1585 C 0.63488 0.84087 0.72733 0.0
C1586 C 0.67406 0.85149 0.71456 0.0
C1587 C 0.68545 0.8641 0.74465 0.0
C1588 C 0.70104 0.87912 0.73077 0.0
C1589 C 0.70527 0.88125 0.68481 0.0
C1590 C 0.69398 0.86843 0.65301 0.0
C1591 C 0.67801 0.85347 0.66836 0.0
H1592 H 0.87295 0.70295 0.6907 0.0
H1593 H 0.81957 0.66973 0.62476 0.0
H1594 H 0.80345 0.66098 0.69808 0.0
H1595 H 0.8785 0.66429 0.779 0.0
H1596 H 0.88496 0.6839 0.82181 0.0
H1597 H 0.89159 0.68951 0.76416 0.0
H1598 H 0.86964 0.72544 0.76788 0.0
H1599 H 0.86303 0.71997 0.82565 0.0
H1600 H 0.84161 0.72481 0.78562 0.0
H1601 H 0.79353 0.65467 0.77714 0.0
H1602 H 0.79086 0.65 0.85887 0.0
H1603 H 0.85132 0.68564 0.8757 0.0
C1604 C 0.85769 0.69418 0.69192 0.0
C1605 C 0.8474 0.68713 0.65218 0.0
C1606 C 0.8277 0.67526 0.65488 0.0
C1607 C 0.81837 0.67027 0.69633 0.0
C1608 C 0.82903 0.67707 0.73493 0.0
C1609 C 0.84828 0.68868 0.73334 0.0
C1610 C 0.85694 0.69271 0.78025 0.0
C1611 C 0.87932 0.68196 0.78667 0.0
C1612 C 0.85786 0.71719 0.79044 0.0
C1613 C 0.8396 0.68146 0.80813 0.0
C1614 C 0.82358 0.67277 0.78116 0.0
C1615 C 0.80592 0.66146 0.79873 0.0
C1616 C 0.80455 0.65891 0.84524 0.0
C1617 C 0.82086 0.66746 0.87372 0.0
C1618 C 0.83861 0.6789 0.85479 0.0
H1619 H 0.34247 0.83143 0.64922 0.0
H1620 H 0.28656 0.87431 0.65996 0.0
H1621 H 0.28793 0.87124 0.74223 0.0
H1622 H 0.32677 0.79562 0.74014 0.0
H1623 H 0.35421 0.7915 0.75967 0.0
H1624 H 0.3492 0.79722 0.70134 0.0
H1625 H 0.37549 0.83006 0.70512 0.0
H1626 H 0.38059 0.82442 0.76343 0.0
H1627 H 0.37106 0.85091 0.74655 0.0
H1628 H 0.29584 0.86472 0.82285 0.0
H1629 H 0.3088 0.85371 0.89762 0.0
H1630 H 0.35858 0.81347 0.83609 0.0
C1631 C 0.33056 0.84019 0.66895 0.0
C1632 C 0.31442 0.85316 0.64813 0.0
C1633 C 0.29902 0.86423 0.67507 0.0
C1634 C 0.29968 0.86263 0.72188 0.0
C1635 C 0.31571 0.84971 0.74134 0.0
C1636 C 0.33079 0.83854 0.71587 0.0
C1637 C 0.34607 0.82548 0.74551 0.0
C1638 C 0.34392 0.801 0.7361 0.0
C1639 C 0.3697 0.83319 0.73981 0.0
C1640 C 0.33728 0.83122 0.79156 0.0
C1641 C 0.31985 0.84533 0.78822 0.0
C1642 C 0.30937 0.85356 0.82593 0.0
C1643 C 0.3169 0.84725 0.86827 0.0
C1644 C 0.33462 0.83265 0.8727 0.0
C1645 C 0.34483 0.82444 0.83373 0.0
H1646 H 0.15193 0.30948 0.66779 0.0
H1647 H 0.20116 0.34816 0.60059 0.0
H1648 H 0.21624 0.35902 0.67383 0.0
H1649 H 0.14232 0.34762 0.75634 0.0
H1650 H 0.13798 0.32707 0.79852 0.0
H1651 H 0.1318 0.32134 0.74075 0.0
H1652 H 0.15723 0.28773 0.74328 0.0
H1653 H 0.1635 0.29339 0.80106 0.0
H1654 H 0.18513 0.29103 0.76055 0.0
H1655 H 0.22632 0.36536 0.75454 0.0
H1656 H 0.2286 0.36904 0.83709 0.0
H1657 H 0.17157 0.32803 0.85112 0.0
C1658 C 0.16598 0.32009 0.66858 0.0
C1659 C 0.17546 0.32788 0.62863 0.0
C1660 C 0.19362 0.34204 0.63089 0.0
C1661 C 0.20237 0.34823 0.67229 0.0
C1662 C 0.19263 0.34033 0.71113 0.0
C1663 C 0.1747 0.32676 0.70969 0.0
C1664 C 0.16664 0.32148 0.75637 0.0
C1665 C 0.14331 0.32989 0.76339 0.0
C1666 C 0.16823 0.29695 0.76586 0.0
C1667 C 0.18283 0.33419 0.78416 0.0
C1668 C 0.19787 0.34474 0.75752 0.0
C1669 C 0.21458 0.35725 0.77579 0.0
C1670 C 0.21581 0.3592 0.82261 0.0
C1671 C 0.20021 0.34895 0.85034 0.0
C1672 C 0.18361 0.33623 0.83071 0.0
H1673 H 0.63447 0.20426 0.82903 0.0
H1674 H 0.69804 0.20309 0.89227 0.0
H1675 H 0.71532 0.19752 0.81882 0.0
H1676 H 0.64511 0.16208 0.75237 0.0
H1677 H 0.63017 0.17373 0.70624 0.0
H1678 H 0.62253 0.18008 0.76299 0.0
H1679 H 0.62662 0.22121 0.74626 0.0
H1680 H 0.63409 0.21499 0.68928 0.0
H1681 H 0.65185 0.2313 0.72356 0.0
H1682 H 0.72575 0.18929 0.74081 0.0
H1683 H 0.72893 0.17973 0.66105 0.0
H1684 H 0.65883 0.18557 0.64638 0.0
C1685 C 0.65204 0.20337 0.82711 0.0
C1686 C 0.66493 0.20424 0.86628 0.0
C1687 C 0.68785 0.20247 0.86267 0.0
C1688 C 0.69784 0.19934 0.8211 0.0
C1689 C 0.68472 0.19796 0.78328 0.0
C1690 C 0.66234 0.20001 0.78563 0.0
C1691 C 0.65211 0.19653 0.73988 0.0
C1692 C 0.63657 0.17694 0.74043 0.0
C1693 C 0.64048 0.21725 0.7238 0.0
C1694 C 0.67222 0.19188 0.71188 0.0
C1695 C 0.69082 0.19294 0.73769 0.0
C1696 C 0.71133 0.18861 0.72006 0.0
C1697 C 0.71295 0.18313 0.67467 0.0
C1698 C 0.69416 0.18196 0.64732 0.0
C1699 C 0.67352 0.18644 0.66633 0.0
H1700 H 0.85922 0.32086 0.34095 0.0
H1701 H 0.82203 0.37152 0.40721 0.0
H1702 H 0.80747 0.38346 0.33417 0.0
H1703 H 0.87402 0.35326 0.24528 0.0
H1704 H 0.87229 0.33093 0.20639 0.0
H1705 H 0.87913 0.32587 0.26413 0.0
H1706 H 0.84702 0.29873 0.27033 0.0
H1707 H 0.84004 0.30378 0.21263 0.0
H1708 H 0.81995 0.3076 0.25592 0.0
H1709 H 0.79612 0.38925 0.25393 0.0
H1710 H 0.79165 0.39051 0.1714 0.0
H1711 H 0.83786 0.33754 0.15798 0.0
C1712 C 0.84796 0.33441 0.34002 0.0
C1713 C 0.84166 0.34521 0.3796 0.0
C1714 C 0.82712 0.36307 0.37715 0.0
C1715 C 0.81867 0.36991 0.33589 0.0
C1716 C 0.82514 0.35889 0.29742 0.0
C1717 C 0.83966 0.34171 0.29904 0.0
C1718 C 0.8447 0.33325 0.25263 0.0
C1719 C 0.86897 0.336 0.24146 0.0
C1720 C 0.83749 0.30943 0.2476 0.0
C1721 C 0.83069 0.34831 0.22477 0.0
C1722 C 0.81932 0.36282 0.25118 0.0
C1723 C 0.80503 0.37805 0.23282 0.0
C1724 C 0.80252 0.37861 0.18607 0.0
C1725 C 0.81452 0.36425 0.15853 0.0
C1726 C 0.82866 0.34888 0.17827 0.0
H1727 H 0.64115 0.81763 0.19108 0.0
H1728 H 0.7049 0.81546 0.12866 0.0
H1729 H 0.72215 0.82167 0.20183 0.0
H1730 H 0.65276 0.86061 0.26413 0.0
H1731 H 0.63745 0.8504 0.31116 0.0
H1732 H 0.62971 0.84306 0.255 0.0
H1733 H 0.63265 0.80221 0.27536 0.0
H1734 H 0.64016 0.80943 0.33181 0.0
H1735 H 0.65755 0.7919 0.29924 0.0
H1736 H 0.7326 0.83151 0.27882 0.0
H1737 H 0.73586 0.84274 0.35763 0.0
H1738 H 0.66562 0.83896 0.37222 0.0
C1739 C 0.65873 0.81785 0.19322 0.0
C1740 C 0.67171 0.81593 0.15434 0.0
C1741 C 0.69466 0.81687 0.15809 0.0
C1742 C 0.70464 0.82037 0.19949 0.0
C1743 C 0.69146 0.82291 0.23697 0.0
C1744 C 0.66903 0.82153 0.23454 0.0
C1745 C 0.6588 0.82628 0.2798 0.0
C1746 C 0.6438 0.84628 0.27735 0.0
C1747 C 0.64657 0.80626 0.2976 0.0
C1748 C 0.67896 0.83093 0.30751 0.0
C1749 C 0.69759 0.82876 0.28204 0.0
C1750 C 0.71817 0.83301 0.29937 0.0
C1751 C 0.71983 0.83948 0.34416 0.0
C1752 C 0.70102 0.84166 0.3712 0.0
C1753 C 0.68032 0.83731 0.35249 0.0
H1754 H 0.18164 0.68068 0.36133 0.0
H1755 H 0.136 0.73413 0.34707 0.0
H1756 H 0.13993 0.73209 0.26455 0.0
H1757 H 0.21743 0.69699 0.27127 0.0
H1758 H 0.22303 0.66944 0.25417 0.0
H1759 H 0.21661 0.67526 0.31184 0.0
H1760 H 0.18513 0.64731 0.30922 0.0
H1761 H 0.19141 0.64141 0.25156 0.0
H1762 H 0.16436 0.64995 0.26692 0.0
H1763 H 0.14752 0.72281 0.18376 0.0
H1764 H 0.15974 0.70866 0.11061 0.0
H1765 H 0.20179 0.66237 0.17823 0.0
C1766 C 0.17244 0.69198 0.34091 0.0
C1767 C 0.1584 0.7075 0.36052 0.0
C1768 C 0.14686 0.72214 0.33267 0.0
C1769 C 0.14897 0.72106 0.28585 0.0
C1770 C 0.16287 0.70545 0.26764 0.0
C1771 C 0.17457 0.69131 0.29435 0.0
C1772 C 0.18856 0.67616 0.26659 0.0
C1773 C 0.21285 0.67968 0.27656 0.0
C1774 C 0.18196 0.6523 0.27402 0.0
C1775 C 0.18274 0.68379 0.2199 0.0
C1776 C 0.16781 0.70061 0.22124 0.0
C1777 C 0.15935 0.70979 0.18232 0.0
C1778 C 0.16634 0.70158 0.14095 0.0
C1779 C 0.1818 0.6845 0.13879 0.0
C1780 C 0.19017 0.67561 0.17886 0.0
H1781 H 0.33795 0.18314 0.36092 0.0
H1782 H 0.29063 0.13123 0.34733 0.0
H1783 H 0.29463 0.13293 0.26475 0.0
H1784 H 0.32006 0.21402 0.264 0.0
H1785 H 0.34723 0.22243 0.24933 0.0
H1786 H 0.3404 0.21712 0.30702 0.0
H1787 H 0.37201 0.18936 0.31217 0.0
H1788 H 0.37889 0.19448 0.25446 0.0
H1789 H 0.37321 0.16715 0.27286 0.0
H1790 H 0.30579 0.13876 0.18438 0.0
H1791 H 0.32054 0.15043 0.11128 0.0
H1792 H 0.35892 0.20012 0.17751 0.0
C1793 C 0.32837 0.17215 0.34057 0.0
C1794 C 0.31407 0.15693 0.36034 0.0
C1795 C 0.30163 0.14302 0.3327 0.0
C1796 C 0.30386 0.14384 0.28589 0.0
C1797 C 0.31832 0.15888 0.2675 0.0
C1798 C 0.33012 0.173 0.29396 0.0
C1799 C 0.34433 0.18786 0.26598 0.0
C1800 C 0.33759 0.21177 0.27194 0.0
C1801 C 0.36854 0.1845 0.27703 0.0
C1802 C 0.33893 0.17971 0.2195 0.0
C1803 C 0.32403 0.16287 0.22115 0.0
C1804 C 0.31726 0.15207 0.18265 0.0
C1805 C 0.32582 0.15875 0.14135 0.0
C1806 C 0.34077 0.17625 0.13883 0.0
C1807 C 0.34732 0.18687 0.17846 0.0
loop_
_geom_bond_atom_site_label_1
_geom_bond_atom_site_label_2
_geom_bond_distance
_geom_bond_site_symmetry_2
_ccdc_geom_bond_type
Co0 O2 2.143 . S
Co0 O8 2.074 1_556 S
Co0 O11 2.093 . S
Co0 O24 2.097 . S
Co0 N41 2.151 . S
Co0 N49 2.214 . S
Co1 O2 2.160 1_554 S
Co1 O7 2.058 . S
Co1 O17 2.057 . S
Co1 O32 2.037 . S
Co1 N36 2.145 . S
Co1 N57 2.257 1_554 S
O2 Co0 2.143 . S
O2 Co1 2.160 1_556 S
C3 O4 1.278 . S
C3 O11 1.224 . S
O4 C3 1.278 . S
C5 O6 1.245 1_554 S
C5 O17 1.232 . S
O6 C5 1.245 1_556 S
O7 Co1 2.058 . S
O7 C33 1.269 . S
O8 Co0 2.074 1_554 S
O8 C33 1.257 . S
H9 C34 0.930 . S
H10 C40 0.930 . S
O11 Co0 2.093 . S
O11 C3 1.224 . S
H12 C44 0.929 . S
H13 C46 0.930 . S
H14 C47 0.930 . S
H15 C45 0.929 . S
H16 C48 0.928 . S
O17 Co1 2.057 . S
O17 C5 1.232 . S
H18 C37 0.929 . S
H19 C38 0.929 . S
H20 C50 0.931 . S
H21 C42 0.929 . S
H22 C51 0.930 . S
H23 C43 0.931 . S
O24 Co0 2.097 . S
O24 C52 1.214 1_556 S
H25 C53 0.929 . S
H26 C54 0.929 . S
H27 C55 0.930 . S
H28 C56 0.929 . S
H29 C58 0.930 . S
H30 C35 0.930 . S
H31 C39 0.930 . S
O32 Co1 2.037 . S
O32 C52 1.234 . S
C33 O7 1.269 . S
C33 O8 1.257 . S
C34 H9 0.930 . S
C34 C37 1.388 . S
C34 C39 1.418 . S
C35 H30 0.930 . S
C35 C38 1.404 . S
C35 C39 1.353 . S
N36 Co1 2.145 . S
N36 C37 1.397 . S
N36 C38 1.334 . S
C37 H18 0.929 . S
C37 C34 1.388 . S
C37 N36 1.397 . S
C38 H19 0.929 . S
C38 C35 1.404 . S
C38 N36 1.334 . S
C39 H31 0.930 . S
C39 C34 1.418 . S
C39 C35 1.353 . S
C40 H10 0.930 . S
C40 N41 1.330 . S
C40 C42 1.446 . S
N41 Co0 2.151 . S
N41 C40 1.330 . S
N41 C45 1.418 1_556 S
C42 H21 0.929 . S
C42 C40 1.446 . S
C42 C43 1.332 . S
C43 H23 0.931 . S
C43 C42 1.332 . S
C43 C44 1.267 1_556 S
C44 H12 0.929 . S
C44 C43 1.267 1_554 S
C44 C45 1.251 . S
C45 H15 0.929 . S
C45 N41 1.418 1_554 S
C45 C44 1.251 . S
C46 H13 0.930 . S
C46 C48 1.406 . S
C46 C51 1.261 1_556 S
C47 H14 0.930 . S
C47 N49 1.325 1_554 S
C47 C50 1.357 . S
C48 H16 0.928 . S
C48 C46 1.406 . S
C48 N49 1.261 . S
N49 Co0 2.214 . S
N49 C47 1.325 1_556 S
N49 C48 1.261 . S
C50 H20 0.931 . S
C50 C47 1.357 . S
C50 C51 1.312 . S
C51 H22 0.930 . S
C51 C46 1.261 1_554 S
C51 C50 1.312 . S
C52 O24 1.214 1_554 S
C52 O32 1.234 . S
C53 H25 0.929 . S
C53 C56 1.391 . S
C53 C58 1.391 . S
C54 H26 0.929 . S
C54 C55 1.390 . S
C54 N57 1.391 . S
C55 H27 0.930 . S
C55 C54 1.390 . S
C55 C56 1.392 . S
C56 H28 0.929 . S
C56 C53 1.391 . S
C56 C55 1.392 . S
N57 Co1 2.257 1_556 S
N57 C54 1.391 . S
N57 C58 1.388 . S
C58 H29 0.930 . S
C58 C53 1.391 . S
C58 N57 1.388 . S
Co59 O61 2.143 . S
Co59 O67 2.074 1_556 S
Co59 O70 2.093 . S
Co59 O83 2.097 . S
Co59 N100 2.151 . S
Co59 N108 2.214 . S
Co60 O61 2.160 1_554 S
Co60 O66 2.058 . S
Co60 O76 2.057 . S
Co60 O91 2.037 . S
Co60 N95 2.145 . S
Co60 N116 2.257 1_554 S
O61 Co59 2.143 . S
O61 Co60 2.160 1_556 S
C62 O63 1.278 . S
C62 O70 1.224 . S
O63 C62 1.278 . S
C64 O65 1.245 1_554 S
C64 O76 1.232 . S
O65 C64 1.245 1_556 S
O66 Co60 2.058 . S
O66 C92 1.269 . S
O67 Co59 2.074 1_554 S
O67 C92 1.257 . S
H68 C93 0.930 . S
H69 C99 0.930 . S
O70 Co59 2.093 . S
O70 C62 1.224 . S
H71 C103 0.929 . S
H72 C105 0.930 . S
H73 C106 0.930 . S
H74 C104 0.929 . S
H75 C107 0.928 . S
O76 Co60 2.057 . S
O76 C64 1.232 . S
H77 C96 0.929 . S
H78 C97 0.929 . S
H79 C109 0.931 . S
H80 C101 0.929 . S
H81 C110 0.930 . S
H82 C102 0.931 . S
O83 Co59 2.097 . S
O83 C111 1.214 1_556 S
H84 C112 0.929 . S
H85 C113 0.929 . S
H86 C114 0.930 . S
H87 C115 0.929 . S
H88 C117 0.930 . S
H89 C94 0.930 . S
H90 C98 0.930 . S
O91 Co60 2.037 . S
O91 C111 1.234 . S
C92 O66 1.269 . S
C92 O67 1.257 . S
C93 H68 0.930 . S
C93 C96 1.388 . S
C93 C98 1.418 . S
C94 H89 0.930 . S
C94 C97 1.404 . S
C94 C98 1.353 . S
N95 Co60 2.145 . S
N95 C96 1.397 . S
N95 C97 1.334 . S
C96 H77 0.929 . S
C96 C93 1.388 . S
C96 N95 1.397 . S
C97 H78 0.929 . S
C97 C94 1.404 . S
C97 N95 1.334 . S
C98 H90 0.930 . S
C98 C93 1.418 . S
C98 C94 1.353 . S
C99 H69 0.930 . S
C99 N100 1.330 . S
C99 C101 1.446 . S
N100 Co59 2.151 . S
N100 C99 1.330 . S
N100 C104 1.418 1_556 S
C101 H80 0.929 . S
C101 C99 1.446 . S
C101 C102 1.332 . S
C102 H82 0.931 . S
C102 C101 1.332 . S
C102 C103 1.267 1_556 S
C103 H71 0.929 . S
C103 C102 1.267 1_554 S
C103 C104 1.251 . S
C104 H74 0.929 . S
C104 N100 1.418 1_554 S
C104 C103 1.251 . S
C105 H72 0.930 . S
C105 C107 1.406 . S
C105 C110 1.261 1_556 S
C106 H73 0.930 . S
C106 N108 1.325 1_554 S
C106 C109 1.357 . S
C107 H75 0.928 . S
C107 C105 1.406 . S
C107 N108 1.261 . S
N108 Co59 2.214 . S
N108 C106 1.325 1_556 S
N108 C107 1.261 . S
C109 H79 0.931 . S
C109 C106 1.357 . S
C109 C110 1.312 . S
C110 H81 0.930 . S
C110 C105 1.261 1_554 S
C110 C109 1.312 . S
C111 O83 1.214 1_554 S
C111 O91 1.234 . S
C112 H84 0.929 . S
C112 C115 1.391 . S
C112 C117 1.391 . S
C113 H85 0.929 . S
C113 C114 1.390 . S
C113 N116 1.391 . S
C114 H86 0.930 . S
C114 C113 1.390 . S
C114 C115 1.392 . S
C115 H87 0.929 . S
C115 C112 1.391 . S
C115 C114 1.392 . S
N116 Co60 2.257 1_556 S
N116 C113 1.391 . S
N116 C117 1.388 . S
C117 H88 0.930 . S
C117 C112 1.391 . S
C117 N116 1.388 . S
Co118 O120 2.143 . S
Co118 O126 2.074 1_556 S
Co118 O129 2.093 . S
Co118 O142 2.097 . S
Co118 N159 2.151 . S
Co118 N167 2.214 . S
Co119 O120 2.160 1_554 S
Co119 O125 2.058 . S
Co119 O135 2.057 . S
Co119 O150 2.037 . S
Co119 N154 2.145 . S
Co119 N175 2.257 1_554 S
O120 Co118 2.143 . S
O120 Co119 2.160 1_556 S
C121 O122 1.278 . S
C121 O129 1.224 . S
O122 C121 1.278 . S
C123 O124 1.245 1_554 S
C123 O135 1.232 . S
O124 C123 1.245 1_556 S
O125 Co119 2.058 . S
O125 C151 1.269 . S
O126 Co118 2.074 1_554 S
O126 C151 1.257 . S
H127 C152 0.930 . S
H128 C158 0.930 . S
O129 Co118 2.093 . S
O129 C121 1.224 . S
H130 C162 0.929 . S
H131 C164 0.930 . S
H132 C165 0.930 . S
H133 C163 0.929 . S
H134 C166 0.928 . S
O135 Co119 2.057 . S
O135 C123 1.232 . S
H136 C155 0.929 . S
H137 C156 0.929 . S
H138 C168 0.931 . S
H139 C160 0.929 . S
H140 C169 0.930 . S
H141 C161 0.931 . S
O142 Co118 2.097 . S
O142 C170 1.214 1_556 S
H143 C171 0.929 . S
H144 C172 0.929 . S
H145 C173 0.930 . S
H146 C174 0.929 . S
H147 C176 0.930 . S
H148 C153 0.930 . S
H149 C157 0.930 . S
O150 Co119 2.037 . S
O150 C170 1.234 . S
C151 O125 1.269 . S
C151 O126 1.257 . S
C152 H127 0.930 . S
C152 C155 1.388 . S
C152 C157 1.418 . S
C153 H148 0.930 . S
C153 C156 1.404 . S
C153 C157 1.353 . S
N154 Co119 2.145 . S
N154 C155 1.397 . S
N154 C156 1.334 . S
C155 H136 0.929 . S
C155 C152 1.388 . S
C155 N154 1.397 . S
C156 H137 0.929 . S
C156 C153 1.404 . S
C156 N154 1.334 . S
C157 H149 0.930 . S
C157 C152 1.418 . S
C157 C153 1.353 . S
C158 H128 0.930 . S
C158 N159 1.330 . S
C158 C160 1.446 . S
N159 Co118 2.151 . S
N159 C158 1.330 . S
N159 C163 1.418 1_556 S
C160 H139 0.929 . S
C160 C158 1.446 . S
C160 C161 1.332 . S
C161 H141 0.931 . S
C161 C160 1.332 . S
C161 C162 1.267 1_556 S
C162 H130 0.929 . S
C162 C161 1.267 1_554 S
C162 C163 1.251 . S
C163 H133 0.929 . S
C163 N159 1.418 1_554 S
C163 C162 1.251 . S
C164 H131 0.930 . S
C164 C166 1.406 . S
C164 C169 1.261 1_556 S
C165 H132 0.930 . S
C165 N167 1.325 1_554 S
C165 C168 1.357 . S
C166 H134 0.928 . S
C166 C164 1.406 . S
C166 N167 1.261 . S
N167 Co118 2.214 . S
N167 C165 1.325 1_556 S
N167 C166 1.261 . S
C168 H138 0.931 . S
C168 C165 1.357 . S
C168 C169 1.312 . S
C169 H140 0.930 . S
C169 C164 1.261 1_554 S
C169 C168 1.312 . S
C170 O142 1.214 1_554 S
C170 O150 1.234 . S
C171 H143 0.929 . S
C171 C174 1.391 . S
C171 C176 1.391 . S
C172 H144 0.929 . S
C172 C173 1.390 . S
C172 N175 1.391 . S
C173 H145 0.930 . S
C173 C172 1.390 . S
C173 C174 1.392 . S
C174 H146 0.929 . S
C174 C171 1.391 . S
C174 C173 1.392 . S
N175 Co119 2.257 1_556 S
N175 C172 1.391 . S
N175 C176 1.388 . S
C176 H147 0.930 . S
C176 C171 1.391 . S
C176 N175 1.388 . S
Co177 O179 2.143 . S
Co177 O185 2.074 1_556 S
Co177 O188 2.093 . S
Co177 O201 2.097 . S
Co177 N218 2.151 . S
Co177 N226 2.214 . S
Co178 O179 2.160 1_554 S
Co178 O184 2.058 . S
Co178 O194 2.057 . S
Co178 O209 2.037 . S
Co178 N213 2.145 . S
Co178 N234 2.257 1_554 S
O179 Co177 2.143 . S
O179 Co178 2.160 1_556 S
C180 O181 1.278 . S
C180 O188 1.224 . S
O181 C180 1.278 . S
C182 O183 1.245 1_554 S
C182 O194 1.232 . S
O183 C182 1.245 1_556 S
O184 Co178 2.058 . S
O184 C210 1.269 . S
O185 Co177 2.074 1_554 S
O185 C210 1.257 . S
H186 C211 0.930 . S
H187 C217 0.930 . S
O188 Co177 2.093 . S
O188 C180 1.224 . S
H189 C221 0.929 . S
H190 C223 0.930 . S
H191 C224 0.930 . S
H192 C222 0.929 . S
H193 C225 0.928 . S
O194 Co178 2.057 . S
O194 C182 1.232 . S
H195 C214 0.929 . S
H196 C215 0.929 . S
H197 C227 0.931 . S
H198 C219 0.929 . S
H199 C228 0.930 . S
H200 C220 0.931 . S
O201 Co177 2.097 . S
O201 C229 1.214 1_556 S
H202 C230 0.929 . S
H203 C231 0.929 . S
H204 C232 0.930 . S
H205 C233 0.929 . S
H206 C235 0.930 . S
H207 C212 0.930 . S
H208 C216 0.930 . S
O209 Co178 2.037 . S
O209 C229 1.234 . S
C210 O184 1.269 . S
C210 O185 1.257 . S
C211 H186 0.930 . S
C211 C214 1.388 . S
C211 C216 1.418 . S
C212 H207 0.930 . S
C212 C215 1.404 . S
C212 C216 1.353 . S
N213 Co178 2.145 . S
N213 C214 1.397 . S
N213 C215 1.334 . S
C214 H195 0.929 . S
C214 C211 1.388 . S
C214 N213 1.397 . S
C215 H196 0.929 . S
C215 C212 1.404 . S
C215 N213 1.334 . S
C216 H208 0.930 . S
C216 C211 1.418 . S
C216 C212 1.353 . S
C217 H187 0.930 . S
C217 N218 1.330 . S
C217 C219 1.446 . S
N218 Co177 2.151 . S
N218 C217 1.330 . S
N218 C222 1.418 1_556 S
C219 H198 0.929 . S
C219 C217 1.446 . S
C219 C220 1.332 . S
C220 H200 0.931 . S
C220 C219 1.332 . S
C220 C221 1.267 1_556 S
C221 H189 0.929 . S
C221 C220 1.267 1_554 S
C221 C222 1.251 . S
C222 H192 0.929 . S
C222 N218 1.418 1_554 S
C222 C221 1.251 . S
C223 H190 0.930 . S
C223 C225 1.406 . S
C223 C228 1.261 1_556 S
C224 H191 0.930 . S
C224 N226 1.325 1_554 S
C224 C227 1.357 . S
C225 H193 0.928 . S
C225 C223 1.406 . S
C225 N226 1.261 . S
N226 Co177 2.214 . S
N226 C224 1.325 1_556 S
N226 C225 1.261 . S
C227 H197 0.931 . S
C227 C224 1.357 . S
C227 C228 1.312 . S
C228 H199 0.930 . S
C228 C223 1.261 1_554 S
C228 C227 1.312 . S
C229 O201 1.214 1_554 S
C229 O209 1.234 . S
C230 H202 0.929 . S
C230 C233 1.391 . S
C230 C235 1.391 . S
C231 H203 0.929 . S
C231 C232 1.390 . S
C231 N234 1.391 . S
C232 H204 0.930 . S
C232 C231 1.390 . S
C232 C233 1.392 . S
C233 H205 0.929 . S
C233 C230 1.391 . S
C233 C232 1.392 . S
N234 Co178 2.257 1_556 S
N234 C231 1.391 . S
N234 C235 1.388 . S
C235 H206 0.930 . S
C235 C230 1.391 . S
C235 N234 1.388 . S
Co236 O238 2.143 . S
Co236 O244 2.074 1_554 S
Co236 O247 2.093 . S
Co236 O260 2.097 . S
Co236 N277 2.151 . S
Co236 N285 2.214 . S
Co237 O238 2.160 1_556 S
Co237 O243 2.058 . S
Co237 O253 2.057 . S
Co237 O268 2.037 . S
Co237 N272 2.145 . S
Co237 N293 2.257 1_556 S
O238 Co236 2.143 . S
O238 Co237 2.160 1_554 S
C239 O240 1.278 . S
C239 O247 1.224 . S
O240 C239 1.278 . S
C241 O242 1.245 1_556 S
C241 O253 1.232 . S
O242 C241 1.245 1_554 S
O243 Co237 2.058 . S
O243 C269 1.269 . S
O244 Co236 2.074 1_556 S
O244 C269 1.257 . S
H245 C270 0.930 . S
H246 C276 0.930 . S
O247 Co236 2.093 . S
O247 C239 1.224 . S
H248 C280 0.929 . S
H249 C282 0.930 . S
H250 C283 0.930 . S
H251 C281 0.929 . S
H252 C284 0.928 . S
O253 Co237 2.057 . S
O253 C241 1.232 . S
H254 C273 0.929 . S
H255 C274 0.929 . S
H256 C286 0.931 . S
H257 C278 0.929 . S
H258 C287 0.930 . S
H259 C279 0.931 . S
O260 Co236 2.097 . S
O260 C288 1.214 1_554 S
H261 C289 0.929 . S
H262 C290 0.929 . S
H263 C291 0.930 . S
H264 C292 0.929 . S
H265 C294 0.930 . S
H266 C271 0.930 . S
H267 C275 0.930 . S
O268 Co237 2.037 . S
O268 C288 1.234 . S
C269 O243 1.269 . S
C269 O244 1.257 . S
C270 H245 0.930 . S
C270 C273 1.388 . S
C270 C275 1.418 . S
C271 H266 0.930 . S
C271 C274 1.404 . S
C271 C275 1.353 . S
N272 Co237 2.145 . S
N272 C273 1.397 . S
N272 C274 1.334 . S
C273 H254 0.929 . S
C273 C270 1.388 . S
C273 N272 1.397 . S
C274 H255 0.929 . S
C274 C271 1.404 . S
C274 N272 1.334 . S
C275 H267 0.930 . S
C275 C270 1.418 . S
C275 C271 1.353 . S
C276 H246 0.930 . S
C276 N277 1.330 . S
C276 C278 1.446 . S
N277 Co236 2.151 . S
N277 C276 1.330 . S
N277 C281 1.418 1_554 S
C278 H257 0.929 . S
C278 C276 1.446 . S
C278 C279 1.332 . S
C279 H259 0.931 . S
C279 C278 1.332 . S
C279 C280 1.267 1_554 S
C280 H248 0.929 . S
C280 C279 1.267 1_556 S
C280 C281 1.251 . S
C281 H251 0.929 . S
C281 N277 1.418 1_556 S
C281 C280 1.251 . S
C282 H249 0.930 . S
C282 C284 1.406 . S
C282 C287 1.261 1_554 S
C283 H250 0.930 . S
C283 N285 1.325 1_556 S
C283 C286 1.357 . S
C284 H252 0.928 . S
C284 C282 1.406 . S
C284 N285 1.261 . S
N285 Co236 2.214 . S
N285 C283 1.325 1_554 S
N285 C284 1.261 . S
C286 H256 0.931 . S
C286 C283 1.357 . S
C286 C287 1.312 . S
C287 H258 0.930 . S
C287 C282 1.261 1_556 S
C287 C286 1.312 . S
C288 O260 1.214 1_556 S
C288 O268 1.234 . S
C289 H261 0.929 . S
C289 C292 1.391 . S
C289 C294 1.391 . S
C290 H262 0.929 . S
C290 C291 1.390 . S
C290 N293 1.391 . S
C291 H263 0.930 . S
C291 C290 1.390 . S
C291 C292 1.392 . S
C292 H264 0.929 . S
C292 C289 1.391 . S
C292 C291 1.392 . S
N293 Co237 2.257 1_554 S
N293 C290 1.391 . S
N293 C294 1.388 . S
C294 H265 0.930 . S
C294 C289 1.391 . S
C294 N293 1.388 . S
Co295 O297 2.143 . S
Co295 O303 2.074 1_554 S
Co295 O306 2.093 . S
Co295 O319 2.097 . S
Co295 N336 2.151 . S
Co295 N344 2.214 . S
Co296 O297 2.160 1_556 S
Co296 O302 2.058 . S
Co296 O312 2.057 . S
Co296 O327 2.037 . S
Co296 N331 2.145 . S
Co296 N352 2.257 1_556 S
O297 Co295 2.143 . S
O297 Co296 2.160 1_554 S
C298 O299 1.278 . S
C298 O306 1.224 . S
O299 C298 1.278 . S
C300 O301 1.245 1_556 S
C300 O312 1.232 . S
O301 C300 1.245 1_554 S
O302 Co296 2.058 . S
O302 C328 1.269 . S
O303 Co295 2.074 1_556 S
O303 C328 1.257 . S
H304 C329 0.930 . S
H305 C335 0.930 . S
O306 Co295 2.093 . S
O306 C298 1.224 . S
H307 C339 0.929 . S
H308 C341 0.930 . S
H309 C342 0.930 . S
H310 C340 0.929 . S
H311 C343 0.928 . S
O312 Co296 2.057 . S
O312 C300 1.232 . S
H313 C332 0.929 . S
H314 C333 0.929 . S
H315 C345 0.931 . S
H316 C337 0.929 . S
H317 C346 0.930 . S
H318 C338 0.931 . S
O319 Co295 2.097 . S
O319 C347 1.214 1_554 S
H320 C348 0.929 . S
H321 C349 0.929 . S
H322 C350 0.930 . S
H323 C351 0.929 . S
H324 C353 0.930 . S
H325 C330 0.930 . S
H326 C334 0.930 . S
O327 Co296 2.037 . S
O327 C347 1.234 . S
C328 O302 1.269 . S
C328 O303 1.257 . S
C329 H304 0.930 . S
C329 C332 1.388 . S
C329 C334 1.418 . S
C330 H325 0.930 . S
C330 C333 1.404 . S
C330 C334 1.353 . S
N331 Co296 2.145 . S
N331 C332 1.397 . S
N331 C333 1.334 . S
C332 H313 0.929 . S
C332 C329 1.388 . S
C332 N331 1.397 . S
C333 H314 0.929 . S
C333 C330 1.404 . S
C333 N331 1.334 . S
C334 H326 0.930 . S
C334 C329 1.418 . S
C334 C330 1.353 . S
C335 H305 0.930 . S
C335 N336 1.330 . S
C335 C337 1.446 . S
N336 Co295 2.151 . S
N336 C335 1.330 . S
N336 C340 1.418 1_554 S
C337 H316 0.929 . S
C337 C335 1.446 . S
C337 C338 1.332 . S
C338 H318 0.931 . S
C338 C337 1.332 . S
C338 C339 1.267 1_554 S
C339 H307 0.929 . S
C339 C338 1.267 1_556 S
C339 C340 1.251 . S
C340 H310 0.929 . S
C340 N336 1.418 1_556 S
C340 C339 1.251 . S
C341 H308 0.930 . S
C341 C343 1.406 . S
C341 C346 1.261 1_554 S
C342 H309 0.930 . S
C342 N344 1.325 1_556 S
C342 C345 1.357 . S
C343 H311 0.928 . S
C343 C341 1.406 . S
C343 N344 1.261 . S
N344 Co295 2.214 . S
N344 C342 1.325 1_554 S
N344 C343 1.261 . S
C345 H315 0.931 . S
C345 C342 1.357 . S
C345 C346 1.312 . S
C346 H317 0.930 . S
C346 C341 1.261 1_556 S
C346 C345 1.312 . S
C347 O319 1.214 1_556 S
C347 O327 1.234 . S
C348 H320 0.929 . S
C348 C351 1.391 . S
C348 C353 1.391 . S
C349 H321 0.929 . S
C349 C350 1.390 . S
C349 N352 1.391 . S
C350 H322 0.930 . S
C350 C349 1.390 . S
C350 C351 1.392 . S
C351 H323 0.929 . S
C351 C348 1.391 . S
C351 C350 1.392 . S
N352 Co296 2.257 1_554 S
N352 C349 1.391 . S
N352 C353 1.388 . S
C353 H324 0.930 . S
C353 C348 1.391 . S
C353 N352 1.388 . S
Co354 O356 2.143 . S
Co354 O362 2.074 1_554 S
Co354 O365 2.093 . S
Co354 O378 2.097 . S
Co354 N395 2.151 . S
Co354 N403 2.214 . S
Co355 O356 2.160 1_556 S
Co355 O361 2.058 . S
Co355 O371 2.057 . S
Co355 O386 2.037 . S
Co355 N390 2.145 . S
Co355 N411 2.257 1_556 S
O356 Co354 2.143 . S
O356 Co355 2.160 1_554 S
C357 O358 1.278 . S
C357 O365 1.224 . S
O358 C357 1.278 . S
C359 O360 1.245 1_556 S
C359 O371 1.232 . S
O360 C359 1.245 1_554 S
O361 Co355 2.058 . S
O361 C387 1.269 . S
O362 Co354 2.074 1_556 S
O362 C387 1.257 . S
H363 C388 0.930 . S
H364 C394 0.930 . S
O365 Co354 2.093 . S
O365 C357 1.224 . S
H366 C398 0.929 . S
H367 C400 0.930 . S
H368 C401 0.930 . S
H369 C399 0.929 . S
H370 C402 0.928 . S
O371 Co355 2.057 . S
O371 C359 1.232 . S
H372 C391 0.929 . S
H373 C392 0.929 . S
H374 C404 0.931 . S
H375 C396 0.929 . S
H376 C405 0.930 . S
H377 C397 0.931 . S
O378 Co354 2.097 . S
O378 C406 1.214 1_554 S
H379 C407 0.929 . S
H380 C408 0.929 . S
H381 C409 0.930 . S
H382 C410 0.929 . S
H383 C412 0.930 . S
H384 C389 0.930 . S
H385 C393 0.930 . S
O386 Co355 2.037 . S
O386 C406 1.234 . S
C387 O361 1.269 . S
C387 O362 1.257 . S
C388 H363 0.930 . S
C388 C391 1.388 . S
C388 C393 1.418 . S
C389 H384 0.930 . S
C389 C392 1.404 . S
C389 C393 1.353 . S
N390 Co355 2.145 . S
N390 C391 1.397 . S
N390 C392 1.334 . S
C391 H372 0.929 . S
C391 C388 1.388 . S
C391 N390 1.397 . S
C392 H373 0.929 . S
C392 C389 1.404 . S
C392 N390 1.334 . S
C393 H385 0.930 . S
C393 C388 1.418 . S
C393 C389 1.353 . S
C394 H364 0.930 . S
C394 N395 1.330 . S
C394 C396 1.446 . S
N395 Co354 2.151 . S
N395 C394 1.330 . S
N395 C399 1.418 1_554 S
C396 H375 0.929 . S
C396 C394 1.446 . S
C396 C397 1.332 . S
C397 H377 0.931 . S
C397 C396 1.332 . S
C397 C398 1.267 1_554 S
C398 H366 0.929 . S
C398 C397 1.267 1_556 S
C398 C399 1.251 . S
C399 H369 0.929 . S
C399 N395 1.418 1_556 S
C399 C398 1.251 . S
C400 H367 0.930 . S
C400 C402 1.406 . S
C400 C405 1.261 1_554 S
C401 H368 0.930 . S
C401 N403 1.325 1_556 S
C401 C404 1.357 . S
C402 H370 0.928 . S
C402 C400 1.406 . S
C402 N403 1.261 . S
N403 Co354 2.214 . S
N403 C401 1.325 1_554 S
N403 C402 1.261 . S
C404 H374 0.931 . S
C404 C401 1.357 . S
C404 C405 1.312 . S
C405 H376 0.930 . S
C405 C400 1.261 1_556 S
C405 C404 1.312 . S
C406 O378 1.214 1_556 S
C406 O386 1.234 . S
C407 H379 0.929 . S
C407 C410 1.391 . S
C407 C412 1.391 . S
C408 H380 0.929 . S
C408 C409 1.390 . S
C408 N411 1.391 . S
C409 H381 0.930 . S
C409 C408 1.390 . S
C409 C410 1.392 . S
C410 H382 0.929 . S
C410 C407 1.391 . S
C410 C409 1.392 . S
N411 Co355 2.257 1_554 S
N411 C408 1.391 . S
N411 C412 1.388 . S
C412 H383 0.930 . S
C412 C407 1.391 . S
C412 N411 1.388 . S
Co413 O415 2.143 . S
Co413 O421 2.074 1_554 S
Co413 O424 2.093 . S
Co413 O437 2.097 . S
Co413 N454 2.151 . S
Co413 N462 2.214 . S
Co414 O415 2.160 1_556 S
Co414 O420 2.058 . S
Co414 O430 2.057 . S
Co414 O445 2.037 . S
Co414 N449 2.145 . S
Co414 N470 2.257 1_556 S
O415 Co413 2.143 . S
O415 Co414 2.160 1_554 S
C416 O417 1.278 . S
C416 O424 1.224 . S
O417 C416 1.278 . S
C418 O419 1.245 1_556 S
C418 O430 1.232 . S
O419 C418 1.245 1_554 S
O420 Co414 2.058 . S
O420 C446 1.269 . S
O421 Co413 2.074 1_556 S
O421 C446 1.257 . S
H422 C447 0.930 . S
H423 C453 0.930 . S
O424 Co413 2.093 . S
O424 C416 1.224 . S
H425 C457 0.929 . S
H426 C459 0.930 . S
H427 C460 0.930 . S
H428 C458 0.929 . S
H429 C461 0.928 . S
O430 Co414 2.057 . S
O430 C418 1.232 . S
H431 C450 0.929 . S
H432 C451 0.929 . S
H433 C463 0.931 . S
H434 C455 0.929 . S
H435 C464 0.930 . S
H436 C456 0.931 . S
O437 Co413 2.097 . S
O437 C465 1.214 1_554 S
H438 C466 0.929 . S
H439 C467 0.929 . S
H440 C468 0.930 . S
H441 C469 0.929 . S
H442 C471 0.930 . S
H443 C448 0.930 . S
H444 C452 0.930 . S
O445 Co414 2.037 . S
O445 C465 1.234 . S
C446 O420 1.269 . S
C446 O421 1.257 . S
C447 H422 0.930 . S
C447 C450 1.388 . S
C447 C452 1.418 . S
C448 H443 0.930 . S
C448 C451 1.404 . S
C448 C452 1.353 . S
N449 Co414 2.145 . S
N449 C450 1.397 . S
N449 C451 1.334 . S
C450 H431 0.929 . S
C450 C447 1.388 . S
C450 N449 1.397 . S
C451 H432 0.929 . S
C451 C448 1.404 . S
C451 N449 1.334 . S
C452 H444 0.930 . S
C452 C447 1.418 . S
C452 C448 1.353 . S
C453 H423 0.930 . S
C453 N454 1.330 . S
C453 C455 1.446 . S
N454 Co413 2.151 . S
N454 C453 1.330 . S
N454 C458 1.418 1_554 S
C455 H434 0.929 . S
C455 C453 1.446 . S
C455 C456 1.332 . S
C456 H436 0.931 . S
C456 C455 1.332 . S
C456 C457 1.267 1_554 S
C457 H425 0.929 . S
C457 C456 1.267 1_556 S
C457 C458 1.251 . S
C458 H428 0.929 . S
C458 N454 1.418 1_556 S
C458 C457 1.251 . S
C459 H426 0.930 . S
C459 C461 1.406 . S
C459 C464 1.261 1_554 S
C460 H427 0.930 . S
C460 N462 1.325 1_556 S
C460 C463 1.357 . S
C461 H429 0.928 . S
C461 C459 1.406 . S
C461 N462 1.261 . S
N462 Co413 2.214 . S
N462 C460 1.325 1_554 S
N462 C461 1.261 . S
C463 H433 0.931 . S
C463 C460 1.357 . S
C463 C464 1.312 . S
C464 H435 0.930 . S
C464 C459 1.261 1_556 S
C464 C463 1.312 . S
C465 O437 1.214 1_556 S
C465 O445 1.234 . S
C466 H438 0.929 . S
C466 C469 1.391 . S
C466 C471 1.391 . S
C467 H439 0.929 . S
C467 C468 1.390 . S
C467 N470 1.391 . S
C468 H440 0.930 . S
C468 C467 1.390 . S
C468 C469 1.392 . S
C469 H441 0.929 . S
C469 C466 1.391 . S
C469 C468 1.392 . S
N470 Co414 2.257 1_554 S
N470 C467 1.391 . S
N470 C471 1.388 . S
C471 H442 0.930 . S
C471 C466 1.391 . S
C471 N470 1.388 . S
Co472 O474 2.143 . S
Co472 O480 2.074 . S
Co472 O483 2.093 . S
Co472 O496 2.097 . S
Co472 N513 2.151 . S
Co472 N521 2.214 . S
Co473 O474 2.160 . S
Co473 O479 2.058 . S
Co473 O489 2.057 . S
Co473 O504 2.037 . S
Co473 N508 2.145 . S
Co473 N529 2.257 . S
O474 Co472 2.143 . S
O474 Co473 2.160 . S
C475 O476 1.278 . S
C475 O483 1.224 . S
O476 C475 1.278 . S
C477 O478 1.245 . S
C477 O489 1.232 . S
O478 C477 1.245 . S
O479 Co473 2.058 . S
O479 C505 1.269 . S
O480 Co472 2.074 . S
O480 C505 1.257 . S
H481 C506 0.930 . S
H482 C512 0.930 . S
O483 Co472 2.093 . S
O483 C475 1.224 . S
H484 C516 0.929 . S
H485 C518 0.930 . S
H486 C519 0.930 . S
H487 C517 0.929 . S
H488 C520 0.928 . S
O489 Co473 2.057 . S
O489 C477 1.232 . S
H490 C509 0.929 . S
H491 C510 0.929 . S
H492 C522 0.931 . S
H493 C514 0.929 . S
H494 C523 0.930 . S
H495 C515 0.931 . S
O496 Co472 2.097 . S
O496 C524 1.214 . S
H497 C525 0.929 . S
H498 C526 0.929 . S
H499 C527 0.930 . S
H500 C528 0.929 . S
H501 C530 0.930 . S
H502 C507 0.930 . S
H503 C511 0.930 . S
O504 Co473 2.037 . S
O504 C524 1.234 . S
C505 O479 1.269 . S
C505 O480 1.257 . S
C506 H481 0.930 . S
C506 C509 1.388 . S
C506 C511 1.418 . S
C507 H502 0.930 . S
C507 C510 1.404 . S
C507 C511 1.353 . S
N508 Co473 2.145 . S
N508 C509 1.397 . S
N508 C510 1.334 . S
C509 H490 0.929 . S
C509 C506 1.388 . S
C509 N508 1.397 . S
C510 H491 0.929 . S
C510 C507 1.404 . S
C510 N508 1.334 . S
C511 H503 0.930 . S
C511 C506 1.418 . S
C511 C507 1.353 . S
C512 H482 0.930 . S
C512 N513 1.330 . S
C512 C514 1.446 . S
N513 Co472 2.151 . S
N513 C512 1.330 . S
N513 C517 1.418 . S
C514 H493 0.929 . S
C514 C512 1.446 . S
C514 C515 1.332 . S
C515 H495 0.931 . S
C515 C514 1.332 . S
C515 C516 1.267 . S
C516 H484 0.929 . S
C516 C515 1.267 . S
C516 C517 1.251 . S
C517 H487 0.929 . S
C517 N513 1.418 . S
C517 C516 1.251 . S
C518 H485 0.930 . S
C518 C520 1.406 . S
C518 C523 1.261 . S
C519 H486 0.930 . S
C519 N521 1.325 . S
C519 C522 1.357 . S
C520 H488 0.928 . S
C520 C518 1.406 . S
C520 N521 1.261 . S
N521 Co472 2.214 . S
N521 C519 1.325 . S
N521 C520 1.261 . S
C522 H492 0.931 . S
C522 C519 1.357 . S
C522 C523 1.312 . S
C523 H494 0.930 . S
C523 C518 1.261 . S
C523 C522 1.312 . S
C524 O496 1.214 . S
C524 O504 1.234 . S
C525 H497 0.929 . S
C525 C528 1.391 . S
C525 C530 1.391 . S
C526 H498 0.929 . S
C526 C527 1.390 . S
C526 N529 1.391 . S
C527 H499 0.930 . S
C527 C526 1.390 . S
C527 C528 1.392 . S
C528 H500 0.929 . S
C528 C525 1.391 . S
C528 C527 1.392 . S
N529 Co473 2.257 . S
N529 C526 1.391 . S
N529 C530 1.388 . S
C530 H501 0.930 . S
C530 C525 1.391 . S
C530 N529 1.388 . S
Co531 O533 2.143 . S
Co531 O539 2.074 . S
Co531 O542 2.093 . S
Co531 O555 2.097 . S
Co531 N572 2.151 . S
Co531 N580 2.214 . S
Co532 O533 2.160 . S
Co532 O538 2.058 . S
Co532 O548 2.057 . S
Co532 O563 2.037 . S
Co532 N567 2.145 . S
Co532 N588 2.257 . S
O533 Co531 2.143 . S
O533 Co532 2.160 . S
C534 O535 1.278 . S
C534 O542 1.224 . S
O535 C534 1.278 . S
C536 O537 1.245 . S
C536 O548 1.232 . S
O537 C536 1.245 . S
O538 Co532 2.058 . S
O538 C564 1.269 . S
O539 Co531 2.074 . S
O539 C564 1.257 . S
H540 C565 0.930 . S
H541 C571 0.930 . S
O542 Co531 2.093 . S
O542 C534 1.224 . S
H543 C575 0.929 . S
H544 C577 0.930 . S
H545 C578 0.930 . S
H546 C576 0.929 . S
H547 C579 0.928 . S
O548 Co532 2.057 . S
O548 C536 1.232 . S
H549 C568 0.929 . S
H550 C569 0.929 . S
H551 C581 0.931 . S
H552 C573 0.929 . S
H553 C582 0.930 . S
H554 C574 0.931 . S
O555 Co531 2.097 . S
O555 C583 1.214 . S
H556 C584 0.929 . S
H557 C585 0.929 . S
H558 C586 0.930 . S
H559 C587 0.929 . S
H560 C589 0.930 . S
H561 C566 0.930 . S
H562 C570 0.930 . S
O563 Co532 2.037 . S
O563 C583 1.234 . S
C564 O538 1.269 . S
C564 O539 1.257 . S
C565 H540 0.930 . S
C565 C568 1.388 . S
C565 C570 1.418 . S
C566 H561 0.930 . S
C566 C569 1.404 . S
C566 C570 1.353 . S
N567 Co532 2.145 . S
N567 C568 1.397 . S
N567 C569 1.334 . S
C568 H549 0.929 . S
C568 C565 1.388 . S
C568 N567 1.397 . S
C569 H550 0.929 . S
C569 C566 1.404 . S
C569 N567 1.334 . S
C570 H562 0.930 . S
C570 C565 1.418 . S
C570 C566 1.353 . S
C571 H541 0.930 . S
C571 N572 1.330 . S
C571 C573 1.446 . S
N572 Co531 2.151 . S
N572 C571 1.330 . S
N572 C576 1.418 . S
C573 H552 0.929 . S
C573 C571 1.446 . S
C573 C574 1.332 . S
C574 H554 0.931 . S
C574 C573 1.332 . S
C574 C575 1.267 . S
C575 H543 0.929 . S
C575 C574 1.267 . S
C575 C576 1.251 . S
C576 H546 0.929 . S
C576 N572 1.418 . S
C576 C575 1.251 . S
C577 H544 0.930 . S
C577 C579 1.406 . S
C577 C582 1.261 . S
C578 H545 0.930 . S
C578 N580 1.325 . S
C578 C581 1.357 . S
C579 H547 0.928 . S
C579 C577 1.406 . S
C579 N580 1.261 . S
N580 Co531 2.214 . S
N580 C578 1.325 . S
N580 C579 1.261 . S
C581 H551 0.931 . S
C581 C578 1.357 . S
C581 C582 1.312 . S
C582 H553 0.930 . S
C582 C577 1.261 . S
C582 C581 1.312 . S
C583 O555 1.214 . S
C583 O563 1.234 . S
C584 H556 0.929 . S
C584 C587 1.391 . S
C584 C589 1.391 . S
C585 H557 0.929 . S
C585 C586 1.390 . S
C585 N588 1.391 . S
C586 H558 0.930 . S
C586 C585 1.390 . S
C586 C587 1.392 . S
C587 H559 0.929 . S
C587 C584 1.391 . S
C587 C586 1.392 . S
N588 Co532 2.257 . S
N588 C585 1.391 . S
N588 C589 1.388 . S
C589 H560 0.930 . S
C589 C584 1.391 . S
C589 N588 1.388 . S
Co590 O592 2.143 . S
Co590 O598 2.074 . S
Co590 O601 2.093 . S
Co590 O614 2.097 . S
Co590 N631 2.151 . S
Co590 N639 2.214 . S
Co591 O592 2.160 . S
Co591 O597 2.058 . S
Co591 O607 2.057 . S
Co591 O622 2.037 . S
Co591 N626 2.145 . S
Co591 N647 2.257 . S
O592 Co590 2.143 . S
O592 Co591 2.160 . S
C593 O594 1.278 . S
C593 O601 1.224 . S
O594 C593 1.278 . S
C595 O596 1.245 . S
C595 O607 1.232 . S
O596 C595 1.245 . S
O597 Co591 2.058 . S
O597 C623 1.269 . S
O598 Co590 2.074 . S
O598 C623 1.257 . S
H599 C624 0.930 . S
H600 C630 0.930 . S
O601 Co590 2.093 . S
O601 C593 1.224 . S
H602 C634 0.929 . S
H603 C636 0.930 . S
H604 C637 0.930 . S
H605 C635 0.929 . S
H606 C638 0.928 . S
O607 Co591 2.057 . S
O607 C595 1.232 . S
H608 C627 0.929 . S
H609 C628 0.929 . S
H610 C640 0.931 . S
H611 C632 0.929 . S
H612 C641 0.930 . S
H613 C633 0.931 . S
O614 Co590 2.097 . S
O614 C642 1.214 . S
H615 C643 0.929 . S
H616 C644 0.929 . S
H617 C645 0.930 . S
H618 C646 0.929 . S
H619 C648 0.930 . S
H620 C625 0.930 . S
H621 C629 0.930 . S
O622 Co591 2.037 . S
O622 C642 1.234 . S
C623 O597 1.269 . S
C623 O598 1.257 . S
C624 H599 0.930 . S
C624 C627 1.388 . S
C624 C629 1.418 . S
C625 H620 0.930 . S
C625 C628 1.404 . S
C625 C629 1.353 . S
N626 Co591 2.145 . S
N626 C627 1.397 . S
N626 C628 1.334 . S
C627 H608 0.929 . S
C627 C624 1.388 . S
C627 N626 1.397 . S
C628 H609 0.929 . S
C628 C625 1.404 . S
C628 N626 1.334 . S
C629 H621 0.930 . S
C629 C624 1.418 . S
C629 C625 1.353 . S
C630 H600 0.930 . S
C630 N631 1.330 . S
C630 C632 1.446 . S
N631 Co590 2.151 . S
N631 C630 1.330 . S
N631 C635 1.418 . S
C632 H611 0.929 . S
C632 C630 1.446 . S
C632 C633 1.332 . S
C633 H613 0.931 . S
C633 C632 1.332 . S
C633 C634 1.267 . S
C634 H602 0.929 . S
C634 C633 1.267 . S
C634 C635 1.251 . S
C635 H605 0.929 . S
C635 N631 1.418 . S
C635 C634 1.251 . S
C636 H603 0.930 . S
C636 C638 1.406 . S
C636 C641 1.261 . S
C637 H604 0.930 . S
C637 N639 1.325 . S
C637 C640 1.357 . S
C638 H606 0.928 . S
C638 C636 1.406 . S
C638 N639 1.261 . S
N639 Co590 2.214 . S
N639 C637 1.325 . S
N639 C638 1.261 . S
C640 H610 0.931 . S
C640 C637 1.357 . S
C640 C641 1.312 . S
C641 H612 0.930 . S
C641 C636 1.261 . S
C641 C640 1.312 . S
C642 O614 1.214 . S
C642 O622 1.234 . S
C643 H615 0.929 . S
C643 C646 1.391 . S
C643 C648 1.391 . S
C644 H616 0.929 . S
C644 C645 1.390 . S
C644 N647 1.391 . S
C645 H617 0.930 . S
C645 C644 1.390 . S
C645 C646 1.392 . S
C646 H618 0.929 . S
C646 C643 1.391 . S
C646 C645 1.392 . S
N647 Co591 2.257 . S
N647 C644 1.391 . S
N647 C648 1.388 . S
C648 H619 0.930 . S
C648 C643 1.391 . S
C648 N647 1.388 . S
Co649 O651 2.143 . S
Co649 O657 2.074 . S
Co649 O660 2.093 . S
Co649 O673 2.097 . S
Co649 N690 2.151 . S
Co649 N698 2.214 . S
Co650 O651 2.160 . S
Co650 O656 2.058 . S
Co650 O666 2.057 . S
Co650 O681 2.037 . S
Co650 N685 2.145 . S
Co650 N706 2.257 . S
O651 Co649 2.143 . S
O651 Co650 2.160 . S
C652 O653 1.278 . S
C652 O660 1.224 . S
O653 C652 1.278 . S
C654 O655 1.245 . S
C654 O666 1.232 . S
O655 C654 1.245 . S
O656 Co650 2.058 . S
O656 C682 1.269 . S
O657 Co649 2.074 . S
O657 C682 1.257 . S
H658 C683 0.930 . S
H659 C689 0.930 . S
O660 Co649 2.093 . S
O660 C652 1.224 . S
H661 C693 0.929 . S
H662 C695 0.930 . S
H663 C696 0.930 . S
H664 C694 0.929 . S
H665 C697 0.928 . S
O666 Co650 2.057 . S
O666 C654 1.232 . S
H667 C686 0.929 . S
H668 C687 0.929 . S
H669 C699 0.931 . S
H670 C691 0.929 . S
H671 C700 0.930 . S
H672 C692 0.931 . S
O673 Co649 2.097 . S
O673 C701 1.214 . S
H674 C702 0.929 . S
H675 C703 0.929 . S
H676 C704 0.930 . S
H677 C705 0.929 . S
H678 C707 0.930 . S
H679 C684 0.930 . S
H680 C688 0.930 . S
O681 Co650 2.037 . S
O681 C701 1.234 . S
C682 O656 1.269 . S
C682 O657 1.257 . S
C683 H658 0.930 . S
C683 C686 1.388 . S
C683 C688 1.418 . S
C684 H679 0.930 . S
C684 C687 1.404 . S
C684 C688 1.353 . S
N685 Co650 2.145 . S
N685 C686 1.397 . S
N685 C687 1.334 . S
C686 H667 0.929 . S
C686 C683 1.388 . S
C686 N685 1.397 . S
C687 H668 0.929 . S
C687 C684 1.404 . S
C687 N685 1.334 . S
C688 H680 0.930 . S
C688 C683 1.418 . S
C688 C684 1.353 . S
C689 H659 0.930 . S
C689 N690 1.330 . S
C689 C691 1.446 . S
N690 Co649 2.151 . S
N690 C689 1.330 . S
N690 C694 1.418 . S
C691 H670 0.929 . S
C691 C689 1.446 . S
C691 C692 1.332 . S
C692 H672 0.931 . S
C692 C691 1.332 . S
C692 C693 1.267 . S
C693 H661 0.929 . S
C693 C692 1.267 . S
C693 C694 1.251 . S
C694 H664 0.929 . S
C694 N690 1.418 . S
C694 C693 1.251 . S
C695 H662 0.930 . S
C695 C697 1.406 . S
C695 C700 1.261 . S
C696 H663 0.930 . S
C696 N698 1.325 . S
C696 C699 1.357 . S
C697 H665 0.928 . S
C697 C695 1.406 . S
C697 N698 1.261 . S
N698 Co649 2.214 . S
N698 C696 1.325 . S
N698 C697 1.261 . S
C699 H669 0.931 . S
C699 C696 1.357 . S
C699 C700 1.312 . S
C700 H671 0.930 . S
C700 C695 1.261 . S
C700 C699 1.312 . S
C701 O673 1.214 . S
C701 O681 1.234 . S
C702 H674 0.929 . S
C702 C705 1.391 . S
C702 C707 1.391 . S
C703 H675 0.929 . S
C703 C704 1.390 . S
C703 N706 1.391 . S
C704 H676 0.930 . S
C704 C703 1.390 . S
C704 C705 1.392 . S
C705 H677 0.929 . S
C705 C702 1.391 . S
C705 C704 1.392 . S
N706 Co650 2.257 . S
N706 C703 1.391 . S
N706 C707 1.388 . S
C707 H678 0.930 . S
C707 C702 1.391 . S
C707 N706 1.388 . S
Co708 O710 2.143 . S
Co708 O716 2.074 . S
Co708 O719 2.093 . S
Co708 O732 2.097 . S
Co708 N749 2.151 . S
Co708 N757 2.214 . S
Co709 O710 2.160 . S
Co709 O715 2.058 . S
Co709 O725 2.057 . S
Co709 O740 2.037 . S
Co709 N744 2.145 . S
Co709 N765 2.257 . S
O710 Co708 2.143 . S
O710 Co709 2.160 . S
C711 O712 1.278 . S
C711 O719 1.224 . S
O712 C711 1.278 . S
C713 O714 1.245 . S
C713 O725 1.232 . S
O714 C713 1.245 . S
O715 Co709 2.058 . S
O715 C741 1.269 . S
O716 Co708 2.074 . S
O716 C741 1.257 . S
H717 C742 0.930 . S
H718 C748 0.930 . S
O719 Co708 2.093 . S
O719 C711 1.224 . S
H720 C752 0.929 . S
H721 C754 0.930 . S
H722 C755 0.930 . S
H723 C753 0.929 . S
H724 C756 0.928 . S
O725 Co709 2.057 . S
O725 C713 1.232 . S
H726 C745 0.929 . S
H727 C746 0.929 . S
H728 C758 0.931 . S
H729 C750 0.929 . S
H730 C759 0.930 . S
H731 C751 0.931 . S
O732 Co708 2.097 . S
O732 C760 1.214 . S
H733 C761 0.929 . S
H734 C762 0.929 . S
H735 C763 0.930 . S
H736 C764 0.929 . S
H737 C766 0.930 . S
H738 C743 0.930 . S
H739 C747 0.930 . S
O740 Co709 2.037 . S
O740 C760 1.234 . S
C741 O715 1.269 . S
C741 O716 1.257 . S
C742 H717 0.930 . S
C742 C745 1.388 . S
C742 C747 1.418 . S
C743 H738 0.930 . S
C743 C746 1.404 . S
C743 C747 1.353 . S
N744 Co709 2.145 . S
N744 C745 1.397 . S
N744 C746 1.334 . S
C745 H726 0.929 . S
C745 C742 1.388 . S
C745 N744 1.397 . S
C746 H727 0.929 . S
C746 C743 1.404 . S
C746 N744 1.334 . S
C747 H739 0.930 . S
C747 C742 1.418 . S
C747 C743 1.353 . S
C748 H718 0.930 . S
C748 N749 1.330 . S
C748 C750 1.446 . S
N749 Co708 2.151 . S
N749 C748 1.330 . S
N749 C753 1.418 . S
C750 H729 0.929 . S
C750 C748 1.446 . S
C750 C751 1.332 . S
C751 H731 0.931 . S
C751 C750 1.332 . S
C751 C752 1.267 . S
C752 H720 0.929 . S
C752 C751 1.267 . S
C752 C753 1.251 . S
C753 H723 0.929 . S
C753 N749 1.418 . S
C753 C752 1.251 . S
C754 H721 0.930 . S
C754 C756 1.406 . S
C754 C759 1.261 . S
C755 H722 0.930 . S
C755 N757 1.325 . S
C755 C758 1.357 . S
C756 H724 0.928 . S
C756 C754 1.406 . S
C756 N757 1.261 . S
N757 Co708 2.214 . S
N757 C755 1.325 . S
N757 C756 1.261 . S
C758 H728 0.931 . S
C758 C755 1.357 . S
C758 C759 1.312 . S
C759 H730 0.930 . S
C759 C754 1.261 . S
C759 C758 1.312 . S
C760 O732 1.214 . S
C760 O740 1.234 . S
C761 H733 0.929 . S
C761 C764 1.391 . S
C761 C766 1.391 . S
C762 H734 0.929 . S
C762 C763 1.390 . S
C762 N765 1.391 . S
C763 H735 0.930 . S
C763 C762 1.390 . S
C763 C764 1.392 . S
C764 H736 0.929 . S
C764 C761 1.391 . S
C764 C763 1.392 . S
N765 Co709 2.257 . S
N765 C762 1.391 . S
N765 C766 1.388 . S
C766 H737 0.930 . S
C766 C761 1.391 . S
C766 N765 1.388 . S
Co767 O769 2.143 . S
Co767 O775 2.074 . S
Co767 O778 2.093 . S
Co767 O791 2.097 . S
Co767 N808 2.151 . S
Co767 N816 2.214 . S
Co768 O769 2.160 . S
Co768 O774 2.058 . S
Co768 O784 2.057 . S
Co768 O799 2.037 . S
Co768 N803 2.145 . S
Co768 N824 2.257 . S
O769 Co767 2.143 . S
O769 Co768 2.160 . S
C770 O771 1.278 . S
C770 O778 1.224 . S
O771 C770 1.278 . S
C772 O773 1.245 . S
C772 O784 1.232 . S
O773 C772 1.245 . S
O774 Co768 2.058 . S
O774 C800 1.269 . S
O775 Co767 2.074 . S
O775 C800 1.257 . S
H776 C801 0.930 . S
H777 C807 0.930 . S
O778 Co767 2.093 . S
O778 C770 1.224 . S
H779 C811 0.929 . S
H780 C813 0.930 . S
H781 C814 0.930 . S
H782 C812 0.929 . S
H783 C815 0.928 . S
O784 Co768 2.057 . S
O784 C772 1.232 . S
H785 C804 0.929 . S
H786 C805 0.929 . S
H787 C817 0.931 . S
H788 C809 0.929 . S
H789 C818 0.930 . S
H790 C810 0.931 . S
O791 Co767 2.097 . S
O791 C819 1.214 . S
H792 C820 0.929 . S
H793 C821 0.929 . S
H794 C822 0.930 . S
H795 C823 0.929 . S
H796 C825 0.930 . S
H797 C802 0.930 . S
H798 C806 0.930 . S
O799 Co768 2.037 . S
O799 C819 1.234 . S
C800 O774 1.269 . S
C800 O775 1.257 . S
C801 H776 0.930 . S
C801 C804 1.388 . S
C801 C806 1.418 . S
C802 H797 0.930 . S
C802 C805 1.404 . S
C802 C806 1.353 . S
N803 Co768 2.145 . S
N803 C804 1.397 . S
N803 C805 1.334 . S
C804 H785 0.929 . S
C804 C801 1.388 . S
C804 N803 1.397 . S
C805 H786 0.929 . S
C805 C802 1.404 . S
C805 N803 1.334 . S
C806 H798 0.930 . S
C806 C801 1.418 . S
C806 C802 1.353 . S
C807 H777 0.930 . S
C807 N808 1.330 . S
C807 C809 1.446 . S
N808 Co767 2.151 . S
N808 C807 1.330 . S
N808 C812 1.418 . S
C809 H788 0.929 . S
C809 C807 1.446 . S
C809 C810 1.332 . S
C810 H790 0.931 . S
C810 C809 1.332 . S
C810 C811 1.267 . S
C811 H779 0.929 . S
C811 C810 1.267 . S
C811 C812 1.251 . S
C812 H782 0.929 . S
C812 N808 1.418 . S
C812 C811 1.251 . S
C813 H780 0.930 . S
C813 C815 1.406 . S
C813 C818 1.261 . S
C814 H781 0.930 . S
C814 N816 1.325 . S
C814 C817 1.357 . S
C815 H783 0.928 . S
C815 C813 1.406 . S
C815 N816 1.261 . S
N816 Co767 2.214 . S
N816 C814 1.325 . S
N816 C815 1.261 . S
C817 H787 0.931 . S
C817 C814 1.357 . S
C817 C818 1.312 . S
C818 H789 0.930 . S
C818 C813 1.261 . S
C818 C817 1.312 . S
C819 O791 1.214 . S
C819 O799 1.234 . S
C820 H792 0.929 . S
C820 C823 1.391 . S
C820 C825 1.391 . S
C821 H793 0.929 . S
C821 C822 1.390 . S
C821 N824 1.391 . S
C822 H794 0.930 . S
C822 C821 1.390 . S
C822 C823 1.392 . S
C823 H795 0.929 . S
C823 C820 1.391 . S
C823 C822 1.392 . S
N824 Co768 2.257 . S
N824 C821 1.391 . S
N824 C825 1.388 . S
C825 H796 0.930 . S
C825 C820 1.391 . S
C825 N824 1.388 . S
Co826 O828 2.143 . S
Co826 O834 2.074 . S
Co826 O837 2.093 . S
Co826 O850 2.097 . S
Co826 N867 2.151 . S
Co826 N875 2.214 . S
Co827 O828 2.160 . S
Co827 O833 2.058 . S
Co827 O843 2.057 . S
Co827 O858 2.037 . S
Co827 N862 2.145 . S
Co827 N883 2.257 . S
O828 Co826 2.143 . S
O828 Co827 2.160 . S
C829 O830 1.278 . S
C829 O837 1.224 . S
O830 C829 1.278 . S
C831 O832 1.245 . S
C831 O843 1.232 . S
O832 C831 1.245 . S
O833 Co827 2.058 . S
O833 C859 1.269 . S
O834 Co826 2.074 . S
O834 C859 1.257 . S
H835 C860 0.930 . S
H836 C866 0.930 . S
O837 Co826 2.093 . S
O837 C829 1.224 . S
H838 C870 0.929 . S
H839 C872 0.930 . S
H840 C873 0.930 . S
H841 C871 0.929 . S
H842 C874 0.928 . S
O843 Co827 2.057 . S
O843 C831 1.232 . S
H844 C863 0.929 . S
H845 C864 0.929 . S
H846 C876 0.931 . S
H847 C868 0.929 . S
H848 C877 0.930 . S
H849 C869 0.931 . S
O850 Co826 2.097 . S
O850 C878 1.214 . S
H851 C879 0.929 . S
H852 C880 0.929 . S
H853 C881 0.930 . S
H854 C882 0.929 . S
H855 C884 0.930 . S
H856 C861 0.930 . S
H857 C865 0.930 . S
O858 Co827 2.037 . S
O858 C878 1.234 . S
C859 O833 1.269 . S
C859 O834 1.257 . S
C860 H835 0.930 . S
C860 C863 1.388 . S
C860 C865 1.418 . S
C861 H856 0.930 . S
C861 C864 1.404 . S
C861 C865 1.353 . S
N862 Co827 2.145 . S
N862 C863 1.397 . S
N862 C864 1.334 . S
C863 H844 0.929 . S
C863 C860 1.388 . S
C863 N862 1.397 . S
C864 H845 0.929 . S
C864 C861 1.404 . S
C864 N862 1.334 . S
C865 H857 0.930 . S
C865 C860 1.418 . S
C865 C861 1.353 . S
C866 H836 0.930 . S
C866 N867 1.330 . S
C866 C868 1.446 . S
N867 Co826 2.151 . S
N867 C866 1.330 . S
N867 C871 1.418 . S
C868 H847 0.929 . S
C868 C866 1.446 . S
C868 C869 1.332 . S
C869 H849 0.931 . S
C869 C868 1.332 . S
C869 C870 1.267 . S
C870 H838 0.929 . S
C870 C869 1.267 . S
C870 C871 1.251 . S
C871 H841 0.929 . S
C871 N867 1.418 . S
C871 C870 1.251 . S
C872 H839 0.930 . S
C872 C874 1.406 . S
C872 C877 1.261 . S
C873 H840 0.930 . S
C873 N875 1.325 . S
C873 C876 1.357 . S
C874 H842 0.928 . S
C874 C872 1.406 . S
C874 N875 1.261 . S
N875 Co826 2.214 . S
N875 C873 1.325 . S
N875 C874 1.261 . S
C876 H846 0.931 . S
C876 C873 1.357 . S
C876 C877 1.312 . S
C877 H848 0.930 . S
C877 C872 1.261 . S
C877 C876 1.312 . S
C878 O850 1.214 . S
C878 O858 1.234 . S
C879 H851 0.929 . S
C879 C882 1.391 . S
C879 C884 1.391 . S
C880 H852 0.929 . S
C880 C881 1.390 . S
C880 N883 1.391 . S
C881 H853 0.930 . S
C881 C880 1.390 . S
C881 C882 1.392 . S
C882 H854 0.929 . S
C882 C879 1.391 . S
C882 C881 1.392 . S
N883 Co827 2.257 . S
N883 C880 1.391 . S
N883 C884 1.388 . S
C884 H855 0.930 . S
C884 C879 1.391 . S
C884 N883 1.388 . S
Co885 O887 2.143 . S
Co885 O893 2.074 . S
Co885 O896 2.093 . S
Co885 O909 2.097 . S
Co885 N926 2.151 . S
Co885 N934 2.214 . S
Co886 O887 2.160 . S
Co886 O892 2.058 . S
Co886 O902 2.057 . S
Co886 O917 2.037 . S
Co886 N921 2.145 . S
Co886 N942 2.257 . S
O887 Co885 2.143 . S
O887 Co886 2.160 . S
C888 O889 1.278 . S
C888 O896 1.224 . S
O889 C888 1.278 . S
C890 O891 1.245 . S
C890 O902 1.232 . S
O891 C890 1.245 . S
O892 Co886 2.058 . S
O892 C918 1.269 . S
O893 Co885 2.074 . S
O893 C918 1.257 . S
H894 C919 0.930 . S
H895 C925 0.930 . S
O896 Co885 2.093 . S
O896 C888 1.224 . S
H897 C929 0.929 . S
H898 C931 0.930 . S
H899 C932 0.930 . S
H900 C930 0.929 . S
H901 C933 0.928 . S
O902 Co886 2.057 . S
O902 C890 1.232 . S
H903 C922 0.929 . S
H904 C923 0.929 . S
H905 C935 0.931 . S
H906 C927 0.929 . S
H907 C936 0.930 . S
H908 C928 0.931 . S
O909 Co885 2.097 . S
O909 C937 1.214 . S
H910 C938 0.929 . S
H911 C939 0.929 . S
H912 C940 0.930 . S
H913 C941 0.929 . S
H914 C943 0.930 . S
H915 C920 0.930 . S
H916 C924 0.930 . S
O917 Co886 2.037 . S
O917 C937 1.234 . S
C918 O892 1.269 . S
C918 O893 1.257 . S
C919 H894 0.930 . S
C919 C922 1.388 . S
C919 C924 1.418 . S
C920 H915 0.930 . S
C920 C923 1.404 . S
C920 C924 1.353 . S
N921 Co886 2.145 . S
N921 C922 1.397 . S
N921 C923 1.334 . S
C922 H903 0.929 . S
C922 C919 1.388 . S
C922 N921 1.397 . S
C923 H904 0.929 . S
C923 C920 1.404 . S
C923 N921 1.334 . S
C924 H916 0.930 . S
C924 C919 1.418 . S
C924 C920 1.353 . S
C925 H895 0.930 . S
C925 N926 1.330 . S
C925 C927 1.446 . S
N926 Co885 2.151 . S
N926 C925 1.330 . S
N926 C930 1.418 . S
C927 H906 0.929 . S
C927 C925 1.446 . S
C927 C928 1.332 . S
C928 H908 0.931 . S
C928 C927 1.332 . S
C928 C929 1.267 . S
C929 H897 0.929 . S
C929 C928 1.267 . S
C929 C930 1.251 . S
C930 H900 0.929 . S
C930 N926 1.418 . S
C930 C929 1.251 . S
C931 H898 0.930 . S
C931 C933 1.406 . S
C931 C936 1.261 . S
C932 H899 0.930 . S
C932 N934 1.325 . S
C932 C935 1.357 . S
C933 H901 0.928 . S
C933 C931 1.406 . S
C933 N934 1.261 . S
N934 Co885 2.214 . S
N934 C932 1.325 . S
N934 C933 1.261 . S
C935 H905 0.931 . S
C935 C932 1.357 . S
C935 C936 1.312 . S
C936 H907 0.930 . S
C936 C931 1.261 . S
C936 C935 1.312 . S
C937 O909 1.214 . S
C937 O917 1.234 . S
C938 H910 0.929 . S
C938 C941 1.391 . S
C938 C943 1.391 . S
C939 H911 0.929 . S
C939 C940 1.390 . S
C939 N942 1.391 . S
C940 H912 0.930 . S
C940 C939 1.390 . S
C940 C941 1.392 . S
C941 H913 0.929 . S
C941 C938 1.391 . S
C941 C940 1.392 . S
N942 Co886 2.257 . S
N942 C939 1.391 . S
N942 C943 1.388 . S
C943 H914 0.930 . S
C943 C938 1.391 . S
C943 N942 1.388 . S
H944 C956 0.930 . S
H945 C958 0.930 . S
H946 C959 0.930 . S
H947 C963 0.959 . S
H948 C963 0.959 . S
H949 C963 0.961 . S
H950 C964 0.960 . S
H951 C964 0.961 . S
H952 C964 0.959 . S
H953 C967 0.929 . S
H954 C968 0.931 . S
H955 C970 0.930 . S
C956 H944 0.930 . S
C956 C957 1.399 . S
C956 C961 1.399 . S
C957 C956 1.399 . S
C957 C958 1.376 1_556 S
C958 H945 0.930 . S
C958 C957 1.376 1_554 S
C958 C959 1.388 . S
C959 H946 0.930 . S
C959 C958 1.388 . S
C959 C960 1.390 . S
C960 C959 1.390 . S
C960 C961 1.394 1_554 S
C960 C966 1.465 . S
C961 C956 1.399 . S
C961 C960 1.394 1_556 S
C961 C962 1.516 . S
C962 C961 1.516 . S
C962 C963 1.502 . S
C962 C964 1.561 . S
C962 C965 1.526 . S
C963 H947 0.959 . S
C963 H948 0.959 . S
C963 H949 0.961 . S
C963 C962 1.502 . S
C964 H950 0.960 . S
C964 H951 0.961 . S
C964 H952 0.959 . S
C964 C962 1.561 . S
C965 C962 1.526 . S
C965 C966 1.396 1_556 S
C965 C970 1.390 . S
C966 C960 1.465 . S
C966 C965 1.396 1_554 S
C966 C967 1.399 . S
C967 H953 0.929 . S
C967 C966 1.399 . S
C967 C968 1.385 . S
C968 H954 0.931 . S
C968 C967 1.385 . S
C968 C969 1.389 . S
C969 C968 1.389 . S
C969 C970 1.387 1_554 S
C970 H955 0.930 . S
C970 C965 1.390 . S
C970 C969 1.387 1_556 S
H971 C983 0.930 . S
H972 C985 0.930 . S
H973 C986 0.930 . S
H974 C990 0.959 . S
H975 C990 0.959 . S
H976 C990 0.961 . S
H977 C991 0.960 1_556 S
H978 C991 0.961 1_556 S
H979 C991 0.959 . S
H980 C994 0.929 . S
H981 C995 0.931 . S
H982 C997 0.930 . S
C983 H971 0.930 . S
C983 C984 1.399 . S
C983 C988 1.399 . S
C984 C983 1.399 . S
C984 C985 1.376 1_556 S
C985 H972 0.930 . S
C985 C984 1.376 1_554 S
C985 C986 1.388 . S
C986 H973 0.930 . S
C986 C985 1.388 . S
C986 C987 1.390 . S
C987 C986 1.390 . S
C987 C988 1.394 1_554 S
C987 C993 1.465 . S
C988 C983 1.399 . S
C988 C987 1.394 1_556 S
C988 C989 1.516 . S
C989 C988 1.516 . S
C989 C990 1.502 . S
C989 C991 1.561 1_556 S
C989 C992 1.526 . S
C990 H974 0.959 . S
C990 H975 0.959 . S
C990 H976 0.961 . S
C990 C989 1.502 . S
C991 H977 0.960 1_554 S
C991 H978 0.961 1_554 S
C991 H979 0.959 . S
C991 C989 1.561 1_554 S
C992 C989 1.526 . S
C992 C993 1.396 1_556 S
C992 C997 1.390 . S
C993 C987 1.465 . S
C993 C992 1.396 1_554 S
C993 C994 1.399 . S
C994 H980 0.929 . S
C994 C993 1.399 . S
C994 C995 1.385 . S
C995 H981 0.931 . S
C995 C994 1.385 . S
C995 C996 1.389 . S
C996 C995 1.389 . S
C996 C997 1.387 1_554 S
C997 H982 0.930 . S
C997 C992 1.390 . S
C997 C996 1.387 1_556 S
H998 C1010 0.930 . S
H999 C1012 0.930 . S
H1000 C1013 0.930 . S
H1001 C1017 0.959 . S
H1002 C1017 0.959 . S
H1003 C1017 0.961 . S
H1004 C1018 0.960 . S
H1005 C1018 0.961 . S
H1006 C1018 0.959 . S
H1007 C1021 0.929 . S
H1008 C1022 0.931 . S
H1009 C1024 0.930 . S
C1010 H998 0.930 . S
C1010 C1011 1.399 1_554 S
C1010 C1015 1.399 . S
C1011 C1010 1.399 1_556 S
C1011 C1012 1.376 . S
C1012 H999 0.930 . S
C1012 C1011 1.376 . S
C1012 C1013 1.388 . S
C1013 H1000 0.930 . S
C1013 C1012 1.388 . S
C1013 C1014 1.390 . S
C1014 C1013 1.390 . S
C1014 C1015 1.394 1_556 S
C1014 C1020 1.465 . S
C1015 C1010 1.399 . S
C1015 C1014 1.394 1_554 S
C1015 C1016 1.516 . S
C1016 C1015 1.516 . S
C1016 C1017 1.502 . S
C1016 C1018 1.561 . S
C1016 C1019 1.526 . S
C1017 H1001 0.959 . S
C1017 H1002 0.959 . S
C1017 H1003 0.961 . S
C1017 C1016 1.502 . S
C1018 H1004 0.960 . S
C1018 H1005 0.961 . S
C1018 H1006 0.959 . S
C1018 C1016 1.561 . S
C1019 C1016 1.526 . S
C1019 C1020 1.396 1_554 S
C1019 C1024 1.390 . S
C1020 C1014 1.465 . S
C1020 C1019 1.396 1_556 S
C1020 C1021 1.399 . S
C1021 H1007 0.929 . S
C1021 C1020 1.399 . S
C1021 C1022 1.385 . S
C1022 H1008 0.931 . S
C1022 C1021 1.385 . S
C1022 C1023 1.389 1_556 S
C1023 C1022 1.389 1_554 S
C1023 C1024 1.387 . S
C1024 H1009 0.930 . S
C1024 C1019 1.390 . S
C1024 C1023 1.387 . S
H1025 C1037 0.930 . S
H1026 C1039 0.930 . S
H1027 C1040 0.930 . S
H1028 C1044 0.959 . S
H1029 C1044 0.959 . S
H1030 C1044 0.961 . S
H1031 C1045 0.960 . S
H1032 C1045 0.961 . S
H1033 C1045 0.959 . S
H1034 C1048 0.929 . S
H1035 C1049 0.931 . S
H1036 C1051 0.930 . S
C1037 H1025 0.930 . S
C1037 C1038 1.399 1_554 S
C1037 C1042 1.399 . S
C1038 C1037 1.399 1_556 S
C1038 C1039 1.376 . S
C1039 H1026 0.930 . S
C1039 C1038 1.376 . S
C1039 C1040 1.388 . S
C1040 H1027 0.930 . S
C1040 C1039 1.388 . S
C1040 C1041 1.390 . S
C1041 C1040 1.390 . S
C1041 C1042 1.394 1_556 S
C1041 C1047 1.465 . S
C1042 C1037 1.399 . S
C1042 C1041 1.394 1_554 S
C1042 C1043 1.516 . S
C1043 C1042 1.516 . S
C1043 C1044 1.502 . S
C1043 C1045 1.561 1_554 S
C1043 C1046 1.526 . S
C1044 H1028 0.959 . S
C1044 H1029 0.959 . S
C1044 H1030 0.961 . S
C1044 C1043 1.502 . S
C1045 H1031 0.960 . S
C1045 H1032 0.961 . S
C1045 H1033 0.959 . S
C1045 C1043 1.561 1_556 S
C1046 C1043 1.526 . S
C1046 C1047 1.396 1_554 S
C1046 C1051 1.390 . S
C1047 C1041 1.465 . S
C1047 C1046 1.396 1_556 S
C1047 C1048 1.399 . S
C1048 H1034 0.929 . S
C1048 C1047 1.399 . S
C1048 C1049 1.385 . S
C1049 H1035 0.931 . S
C1049 C1048 1.385 . S
C1049 C1050 1.389 1_556 S
C1050 C1049 1.389 1_554 S
C1050 C1051 1.387 . S
C1051 H1036 0.930 . S
C1051 C1046 1.390 . S
C1051 C1050 1.387 . S
H1052 C1064 0.930 . S
H1053 C1066 0.930 . S
H1054 C1067 0.930 . S
H1055 C1071 0.959 . S
H1056 C1071 0.959 . S
H1057 C1071 0.961 1_545 S
H1058 C1072 0.960 1_545 S
H1059 C1072 0.961 . S
H1060 C1072 0.959 . S
H1061 C1075 0.929 . S
H1062 C1076 0.931 . S
H1063 C1078 0.930 . S
C1064 H1052 0.930 . S
C1064 C1065 1.399 . S
C1064 C1069 1.399 . S
C1065 C1064 1.399 . S
C1065 C1066 1.376 . S
C1066 H1053 0.930 . S
C1066 C1065 1.376 . S
C1066 C1067 1.388 . S
C1067 H1054 0.930 . S
C1067 C1066 1.388 . S
C1067 C1068 1.390 . S
C1068 C1067 1.390 . S
C1068 C1069 1.394 . S
C1068 C1074 1.465 1_545 S
C1069 C1064 1.399 . S
C1069 C1068 1.394 . S
C1069 C1070 1.516 1_545 S
C1070 C1069 1.516 1_565 S
C1070 C1071 1.502 . S
C1070 C1072 1.561 . S
C1070 C1073 1.526 . S
C1071 H1055 0.959 . S
C1071 H1056 0.959 . S
C1071 H1057 0.961 1_565 S
C1071 C1070 1.502 . S
C1072 H1058 0.960 1_565 S
C1072 H1059 0.961 . S
C1072 H1060 0.959 . S
C1072 C1070 1.561 . S
C1073 C1070 1.526 . S
C1073 C1074 1.396 . S
C1073 C1078 1.390 . S
C1074 C1068 1.465 1_565 S
C1074 C1073 1.396 . S
C1074 C1075 1.399 . S
C1075 H1061 0.929 . S
C1075 C1074 1.399 . S
C1075 C1076 1.385 . S
C1076 H1062 0.931 . S
C1076 C1075 1.385 . S
C1076 C1077 1.389 . S
C1077 C1076 1.389 . S
C1077 C1078 1.387 . S
C1078 H1063 0.930 . S
C1078 C1073 1.390 . S
C1078 C1077 1.387 . S
H1079 C1091 0.930 . S
H1080 C1093 0.930 . S
H1081 C1094 0.930 . S
H1082 C1098 0.959 . S
H1083 C1098 0.959 . S
H1084 C1098 0.961 1_655 S
H1085 C1099 0.952 1_655 S
H1086 C1099 0.969 . S
H1087 C1099 0.958 . S
H1088 C1102 0.929 . S
H1089 C1103 0.931 . S
H1090 C1105 0.930 . S
C1091 H1079 0.930 . S
C1091 C1092 1.399 . S
C1091 C1096 1.399 . S
C1092 C1091 1.399 . S
C1092 C1093 1.376 . S
C1093 H1080 0.930 . S
C1093 C1092 1.376 . S
C1093 C1094 1.388 . S
C1094 H1081 0.930 . S
C1094 C1093 1.388 . S
C1094 C1095 1.390 . S
C1095 C1094 1.390 . S
C1095 C1096 1.394 . S
C1095 C1101 1.465 1_655 S
C1096 C1091 1.399 . S
C1096 C1095 1.394 . S
C1096 C1097 1.481 1_655 S
C1097 C1096 1.481 1_455 S
C1097 C1098 1.506 . S
C1097 C1099 1.561 . S
C1097 C1100 1.560 . S
C1098 H1082 0.959 . S
C1098 H1083 0.959 . S
C1098 H1084 0.961 1_455 S
C1098 C1097 1.506 . S
C1099 H1085 0.952 1_455 S
C1099 H1086 0.969 . S
C1099 H1087 0.958 . S
C1099 C1097 1.561 . S
C1100 C1097 1.560 . S
C1100 C1101 1.396 . S
C1100 C1105 1.390 . S
C1101 C1095 1.465 1_455 S
C1101 C1100 1.396 . S
C1101 C1102 1.399 . S
C1102 H1088 0.929 . S
C1102 C1101 1.399 . S
C1102 C1103 1.385 . S
C1103 H1089 0.931 . S
C1103 C1102 1.385 . S
C1103 C1104 1.389 . S
C1104 C1103 1.389 . S
C1104 C1105 1.387 . S
C1105 H1090 0.930 . S
C1105 C1100 1.390 . S
C1105 C1104 1.387 . S
H1106 C1118 0.930 . S
H1107 C1120 0.930 . S
H1108 C1121 0.930 . S
H1109 C1125 0.956 1_565 S
H1110 C1125 0.959 1_565 S
H1111 C1125 0.961 . S
H1112 C1126 0.960 . S
H1113 C1126 0.961 1_565 S
H1114 C1126 0.965 . S
H1115 C1129 0.929 . S
H1116 C1130 0.931 . S
H1117 C1132 0.930 . S
C1118 H1106 0.930 . S
C1118 C1119 1.399 . S
C1118 C1123 1.399 . S
C1119 C1118 1.399 . S
C1119 C1120 1.376 . S
C1120 H1107 0.930 . S
C1120 C1119 1.376 . S
C1120 C1121 1.388 . S
C1121 H1108 0.930 . S
C1121 C1120 1.388 . S
C1121 C1122 1.390 . S
C1122 C1121 1.390 . S
C1122 C1123 1.394 . S
C1122 C1128 1.465 1_545 S
C1123 C1118 1.399 . S
C1123 C1122 1.394 . S
C1123 C1124 1.516 . S
C1124 C1123 1.516 . S
C1124 C1125 1.502 . S
C1124 C1126 1.561 . S
C1124 C1127 1.526 1_545 S
C1125 H1109 0.956 1_545 S
C1125 H1110 0.959 1_545 S
C1125 H1111 0.961 . S
C1125 C1124 1.502 . S
C1126 H1112 0.960 . S
C1126 H1113 0.961 1_545 S
C1126 H1114 0.965 . S
C1126 C1124 1.561 . S
C1127 C1124 1.526 1_565 S
C1127 C1128 1.396 . S
C1127 C1132 1.390 . S
C1128 C1122 1.465 1_565 S
C1128 C1127 1.396 . S
C1128 C1129 1.399 . S
C1129 H1115 0.929 . S
C1129 C1128 1.399 . S
C1129 C1130 1.385 . S
C1130 H1116 0.931 . S
C1130 C1129 1.385 . S
C1130 C1131 1.389 . S
C1131 C1130 1.389 . S
C1131 C1132 1.387 . S
C1132 H1117 0.930 . S
C1132 C1127 1.390 . S
C1132 C1131 1.387 . S
H1133 C1145 0.930 . S
H1134 C1147 0.930 . S
H1135 C1148 0.930 . S
H1136 C1152 0.959 . S
H1137 C1152 0.959 . S
H1138 C1152 0.961 1_455 S
H1139 C1153 0.960 . S
H1140 C1153 0.961 1_655 S
H1141 C1153 0.961 . S
H1142 C1156 0.929 . S
H1143 C1157 0.931 . S
H1144 C1159 0.930 . S
C1145 H1133 0.930 . S
C1145 C1146 1.399 . S
C1145 C1150 1.399 . S
C1146 C1145 1.399 . S
C1146 C1147 1.376 . S
C1147 H1134 0.930 . S
C1147 C1146 1.376 . S
C1147 C1148 1.388 . S
C1148 H1135 0.930 . S
C1148 C1147 1.388 . S
C1148 C1149 1.390 . S
C1149 C1148 1.390 . S
C1149 C1150 1.394 . S
C1149 C1155 1.465 1_455 S
C1150 C1145 1.399 . S
C1150 C1149 1.394 . S
C1150 C1151 1.520 . S
C1151 C1150 1.520 . S
C1151 C1152 1.501 1_455 S
C1151 C1153 1.561 . S
C1151 C1154 1.522 1_455 S
C1152 H1136 0.959 . S
C1152 H1137 0.959 . S
C1152 H1138 0.961 1_655 S
C1152 C1151 1.501 1_655 S
C1153 H1139 0.960 . S
C1153 H1140 0.961 1_455 S
C1153 H1141 0.961 . S
C1153 C1151 1.561 . S
C1154 C1151 1.522 1_655 S
C1154 C1155 1.396 . S
C1154 C1159 1.390 . S
C1155 C1149 1.465 1_655 S
C1155 C1154 1.396 . S
C1155 C1156 1.399 . S
C1156 H1142 0.929 . S
C1156 C1155 1.399 . S
C1156 C1157 1.385 . S
C1157 H1143 0.931 . S
C1157 C1156 1.385 . S
C1157 C1158 1.389 . S
C1158 C1157 1.389 . S
C1158 C1159 1.387 . S
C1159 H1144 0.930 . S
C1159 C1154 1.390 . S
C1159 C1158 1.387 . S
H1160 C1172 0.930 . S
H1161 C1174 0.930 . S
H1162 C1175 0.930 . S
H1163 C1179 0.959 . S
H1164 C1179 0.959 . S
H1165 C1179 0.961 . S
H1166 C1180 0.960 . S
H1167 C1180 0.961 . S
H1168 C1180 0.959 . S
H1169 C1183 0.929 . S
H1170 C1184 0.931 . S
H1171 C1186 0.930 . S
C1172 H1160 0.930 . S
C1172 C1173 1.399 . S
C1172 C1177 1.399 . S
C1173 C1172 1.399 . S
C1173 C1174 1.376 1_554 S
C1174 H1161 0.930 . S
C1174 C1173 1.376 1_556 S
C1174 C1175 1.388 . S
C1175 H1162 0.930 . S
C1175 C1174 1.388 . S
C1175 C1176 1.390 . S
C1176 C1175 1.390 . S
C1176 C1177 1.394 1_556 S
C1176 C1182 1.465 . S
C1177 C1172 1.399 . S
C1177 C1176 1.394 1_554 S
C1177 C1178 1.516 . S
C1178 C1177 1.516 . S
C1178 C1179 1.502 . S
C1178 C1180 1.561 . S
C1178 C1181 1.526 . S
C1179 H1163 0.959 . S
C1179 H1164 0.959 . S
C1179 H1165 0.961 . S
C1179 C1178 1.502 . S
C1180 H1166 0.960 . S
C1180 H1167 0.961 . S
C1180 H1168 0.959 . S
C1180 C1178 1.561 . S
C1181 C1178 1.526 . S
C1181 C1182 1.396 1_554 S
C1181 C1186 1.390 . S
C1182 C1176 1.465 . S
C1182 C1181 1.396 1_556 S
C1182 C1183 1.399 . S
C1183 H1169 0.929 . S
C1183 C1182 1.399 . S
C1183 C1184 1.385 . S
C1184 H1170 0.931 . S
C1184 C1183 1.385 . S
C1184 C1185 1.389 . S
C1185 C1184 1.389 . S
C1185 C1186 1.387 1_556 S
C1186 H1171 0.930 . S
C1186 C1181 1.390 . S
C1186 C1185 1.387 1_554 S
H1187 C1199 0.930 . S
H1188 C1201 0.930 . S
H1189 C1202 0.930 . S
H1190 C1206 0.959 . S
H1191 C1206 0.959 . S
H1192 C1206 0.961 . S
H1193 C1207 0.960 . S
H1194 C1207 0.961 . S
H1195 C1207 0.959 . S
H1196 C1210 0.929 . S
H1197 C1211 0.931 . S
H1198 C1213 0.930 . S
C1199 H1187 0.930 . S
C1199 C1200 1.399 . S
C1199 C1204 1.399 . S
C1200 C1199 1.399 . S
C1200 C1201 1.376 1_556 S
C1201 H1188 0.930 . S
C1201 C1200 1.376 1_554 S
C1201 C1202 1.388 . S
C1202 H1189 0.930 . S
C1202 C1201 1.388 . S
C1202 C1203 1.390 . S
C1203 C1202 1.390 . S
C1203 C1204 1.394 1_554 S
C1203 C1209 1.465 . S
C1204 C1199 1.399 . S
C1204 C1203 1.394 1_556 S
C1204 C1205 1.516 . S
C1205 C1204 1.516 . S
C1205 C1206 1.502 . S
C1205 C1207 1.561 . S
C1205 C1208 1.526 . S
C1206 H1190 0.959 . S
C1206 H1191 0.959 . S
C1206 H1192 0.961 . S
C1206 C1205 1.502 . S
C1207 H1193 0.960 . S
C1207 H1194 0.961 . S
C1207 H1195 0.959 . S
C1207 C1205 1.561 . S
C1208 C1205 1.526 . S
C1208 C1209 1.396 1_556 S
C1208 C1213 1.390 . S
C1209 C1203 1.465 . S
C1209 C1208 1.396 1_554 S
C1209 C1210 1.399 . S
C1210 H1196 0.929 . S
C1210 C1209 1.399 . S
C1210 C1211 1.385 . S
C1211 H1197 0.931 . S
C1211 C1210 1.385 . S
C1211 C1212 1.389 . S
C1212 C1211 1.389 . S
C1212 C1213 1.387 1_554 S
C1213 H1198 0.930 . S
C1213 C1208 1.390 . S
C1213 C1212 1.387 1_556 S
H1214 C1226 0.930 . S
H1215 C1228 0.930 . S
H1216 C1229 0.930 . S
H1217 C1233 0.959 . S
H1218 C1233 0.959 . S
H1219 C1233 0.961 . S
H1220 C1234 0.960 . S
H1221 C1234 0.961 . S
H1222 C1234 0.959 . S
H1223 C1237 0.929 . S
H1224 C1238 0.931 . S
H1225 C1240 0.930 . S
C1226 H1214 0.930 . S
C1226 C1227 1.399 . S
C1226 C1231 1.399 . S
C1227 C1226 1.399 . S
C1227 C1228 1.376 1_554 S
C1228 H1215 0.930 . S
C1228 C1227 1.376 1_556 S
C1228 C1229 1.388 . S
C1229 H1216 0.930 . S
C1229 C1228 1.388 . S
C1229 C1230 1.390 . S
C1230 C1229 1.390 . S
C1230 C1231 1.394 1_556 S
C1230 C1236 1.465 . S
C1231 C1226 1.399 . S
C1231 C1230 1.394 1_554 S
C1231 C1232 1.516 . S
C1232 C1231 1.516 . S
C1232 C1233 1.502 . S
C1232 C1234 1.561 . S
C1232 C1235 1.526 . S
C1233 H1217 0.959 . S
C1233 H1218 0.959 . S
C1233 H1219 0.961 . S
C1233 C1232 1.502 . S
C1234 H1220 0.960 . S
C1234 H1221 0.961 . S
C1234 H1222 0.959 . S
C1234 C1232 1.561 . S
C1235 C1232 1.526 . S
C1235 C1236 1.396 1_554 S
C1235 C1240 1.390 . S
C1236 C1230 1.465 . S
C1236 C1235 1.396 1_556 S
C1236 C1237 1.399 . S
C1237 H1223 0.929 . S
C1237 C1236 1.399 . S
C1237 C1238 1.385 . S
C1238 H1224 0.931 . S
C1238 C1237 1.385 . S
C1238 C1239 1.389 . S
C1239 C1238 1.389 . S
C1239 C1240 1.387 1_556 S
C1240 H1225 0.930 . S
C1240 C1235 1.390 . S
C1240 C1239 1.387 1_554 S
H1241 C1253 0.930 . S
H1242 C1255 0.930 . S
H1243 C1256 0.930 . S
H1244 C1260 0.959 . S
H1245 C1260 0.959 . S
H1246 C1260 0.961 . S
H1247 C1261 0.960 . S
H1248 C1261 0.961 . S
H1249 C1261 0.959 . S
H1250 C1264 0.929 . S
H1251 C1265 0.931 . S
H1252 C1267 0.930 . S
C1253 H1241 0.930 . S
C1253 C1254 1.399 . S
C1253 C1258 1.399 . S
C1254 C1253 1.399 . S
C1254 C1255 1.376 1_556 S
C1255 H1242 0.930 . S
C1255 C1254 1.376 1_554 S
C1255 C1256 1.388 . S
C1256 H1243 0.930 . S
C1256 C1255 1.388 . S
C1256 C1257 1.390 . S
C1257 C1256 1.390 . S
C1257 C1258 1.394 1_554 S
C1257 C1263 1.465 . S
C1258 C1253 1.399 . S
C1258 C1257 1.394 1_556 S
C1258 C1259 1.516 . S
C1259 C1258 1.516 . S
C1259 C1260 1.502 . S
C1259 C1261 1.561 . S
C1259 C1262 1.526 . S
C1260 H1244 0.959 . S
C1260 H1245 0.959 . S
C1260 H1246 0.961 . S
C1260 C1259 1.502 . S
C1261 H1247 0.960 . S
C1261 H1248 0.961 . S
C1261 H1249 0.959 . S
C1261 C1259 1.561 . S
C1262 C1259 1.526 . S
C1262 C1263 1.396 1_556 S
C1262 C1267 1.390 . S
C1263 C1257 1.465 . S
C1263 C1262 1.396 1_554 S
C1263 C1264 1.399 . S
C1264 H1250 0.929 . S
C1264 C1263 1.399 . S
C1264 C1265 1.385 . S
C1265 H1251 0.931 . S
C1265 C1264 1.385 . S
C1265 C1266 1.389 . S
C1266 C1265 1.389 . S
C1266 C1267 1.387 1_554 S
C1267 H1252 0.930 . S
C1267 C1262 1.390 . S
C1267 C1266 1.387 1_556 S
H1268 C1280 0.930 . S
H1269 C1282 0.930 . S
H1270 C1283 0.930 . S
H1271 C1287 0.959 . S
H1272 C1287 0.959 . S
H1273 C1287 0.961 . S
H1274 C1288 0.960 . S
H1275 C1288 0.961 . S
H1276 C1288 0.959 . S
H1277 C1291 0.929 . S
H1278 C1292 0.931 . S
H1279 C1294 0.930 . S
C1280 H1268 0.930 . S
C1280 C1281 1.399 . S
C1280 C1285 1.399 . S
C1281 C1280 1.399 . S
C1281 C1282 1.376 . S
C1282 H1269 0.930 . S
C1282 C1281 1.376 . S
C1282 C1283 1.388 . S
C1283 H1270 0.930 . S
C1283 C1282 1.388 . S
C1283 C1284 1.390 . S
C1284 C1283 1.390 . S
C1284 C1285 1.394 . S
C1284 C1290 1.465 . S
C1285 C1280 1.399 . S
C1285 C1284 1.394 . S
C1285 C1286 1.516 . S
C1286 C1285 1.516 . S
C1286 C1287 1.502 . S
C1286 C1288 1.561 . S
C1286 C1289 1.526 . S
C1287 H1271 0.959 . S
C1287 H1272 0.959 . S
C1287 H1273 0.961 . S
C1287 C1286 1.502 . S
C1288 H1274 0.960 . S
C1288 H1275 0.961 . S
C1288 H1276 0.959 . S
C1288 C1286 1.561 . S
C1289 C1286 1.526 . S
C1289 C1290 1.396 . S
C1289 C1294 1.390 . S
C1290 C1284 1.465 . S
C1290 C1289 1.396 . S
C1290 C1291 1.399 . S
C1291 H1277 0.929 . S
C1291 C1290 1.399 . S
C1291 C1292 1.385 . S
C1292 H1278 0.931 . S
C1292 C1291 1.385 . S
C1292 C1293 1.389 . S
C1293 C1292 1.389 . S
C1293 C1294 1.387 . S
C1294 H1279 0.930 . S
C1294 C1289 1.390 . S
C1294 C1293 1.387 . S
H1295 C1307 0.930 . S
H1296 C1309 0.930 . S
H1297 C1310 0.930 . S
H1298 C1314 0.959 . S
H1299 C1314 0.959 . S
H1300 C1314 0.961 . S
H1301 C1315 0.960 . S
H1302 C1315 0.961 . S
H1303 C1315 0.959 . S
H1304 C1318 0.929 . S
H1305 C1319 0.931 . S
H1306 C1321 0.930 . S
C1307 H1295 0.930 . S
C1307 C1308 1.399 . S
C1307 C1312 1.399 . S
C1308 C1307 1.399 . S
C1308 C1309 1.376 . S
C1309 H1296 0.930 . S
C1309 C1308 1.376 . S
C1309 C1310 1.388 . S
C1310 H1297 0.930 . S
C1310 C1309 1.388 . S
C1310 C1311 1.390 . S
C1311 C1310 1.390 . S
C1311 C1312 1.394 . S
C1311 C1317 1.465 . S
C1312 C1307 1.399 . S
C1312 C1311 1.394 . S
C1312 C1313 1.516 . S
C1313 C1312 1.516 . S
C1313 C1314 1.502 . S
C1313 C1315 1.561 . S
C1313 C1316 1.526 . S
C1314 H1298 0.959 . S
C1314 H1299 0.959 . S
C1314 H1300 0.961 . S
C1314 C1313 1.502 . S
C1315 H1301 0.960 . S
C1315 H1302 0.961 . S
C1315 H1303 0.959 . S
C1315 C1313 1.561 . S
C1316 C1313 1.526 . S
C1316 C1317 1.396 . S
C1316 C1321 1.390 . S
C1317 C1311 1.465 . S
C1317 C1316 1.396 . S
C1317 C1318 1.399 . S
C1318 H1304 0.929 . S
C1318 C1317 1.399 . S
C1318 C1319 1.385 . S
C1319 H1305 0.931 . S
C1319 C1318 1.385 . S
C1319 C1320 1.389 . S
C1320 C1319 1.389 . S
C1320 C1321 1.387 . S
C1321 H1306 0.930 . S
C1321 C1316 1.390 . S
C1321 C1320 1.387 . S
H1322 C1334 0.930 . S
H1323 C1336 0.930 . S
H1324 C1337 0.930 . S
H1325 C1341 0.959 . S
H1326 C1341 0.959 . S
H1327 C1341 0.961 . S
H1328 C1342 0.960 . S
H1329 C1342 0.961 . S
H1330 C1342 0.959 . S
H1331 C1345 0.929 . S
H1332 C1346 0.931 . S
H1333 C1348 0.930 . S
C1334 H1322 0.930 . S
C1334 C1335 1.399 . S
C1334 C1339 1.399 . S
C1335 C1334 1.399 . S
C1335 C1336 1.376 . S
C1336 H1323 0.930 . S
C1336 C1335 1.376 . S
C1336 C1337 1.388 . S
C1337 H1324 0.930 . S
C1337 C1336 1.388 . S
C1337 C1338 1.390 . S
C1338 C1337 1.390 . S
C1338 C1339 1.394 . S
C1338 C1344 1.465 . S
C1339 C1334 1.399 . S
C1339 C1338 1.394 . S
C1339 C1340 1.516 . S
C1340 C1339 1.516 . S
C1340 C1341 1.502 . S
C1340 C1342 1.561 . S
C1340 C1343 1.526 . S
C1341 H1325 0.959 . S
C1341 H1326 0.959 . S
C1341 H1327 0.961 . S
C1341 C1340 1.502 . S
C1342 H1328 0.960 . S
C1342 H1329 0.961 . S
C1342 H1330 0.959 . S
C1342 C1340 1.561 . S
C1343 C1340 1.526 . S
C1343 C1344 1.396 . S
C1343 C1348 1.390 . S
C1344 C1338 1.465 . S
C1344 C1343 1.396 . S
C1344 C1345 1.399 . S
C1345 H1331 0.929 . S
C1345 C1344 1.399 . S
C1345 C1346 1.385 . S
C1346 H1332 0.931 . S
C1346 C1345 1.385 . S
C1346 C1347 1.389 . S
C1347 C1346 1.389 . S
C1347 C1348 1.387 . S
C1348 H1333 0.930 . S
C1348 C1343 1.390 . S
C1348 C1347 1.387 . S
H1349 C1361 0.930 . S
H1350 C1363 0.930 . S
H1351 C1364 0.930 . S
H1352 C1368 0.959 . S
H1353 C1368 0.959 . S
H1354 C1368 0.961 . S
H1355 C1369 0.960 . S
H1356 C1369 0.961 . S
H1357 C1369 0.959 . S
H1358 C1372 0.929 . S
H1359 C1373 0.931 . S
H1360 C1375 0.930 . S
C1361 H1349 0.930 . S
C1361 C1362 1.399 . S
C1361 C1366 1.399 . S
C1362 C1361 1.399 . S
C1362 C1363 1.376 . S
C1363 H1350 0.930 . S
C1363 C1362 1.376 . S
C1363 C1364 1.388 . S
C1364 H1351 0.930 . S
C1364 C1363 1.388 . S
C1364 C1365 1.390 . S
C1365 C1364 1.390 . S
C1365 C1366 1.394 . S
C1365 C1371 1.465 . S
C1366 C1361 1.399 . S
C1366 C1365 1.394 . S
C1366 C1367 1.516 . S
C1367 C1366 1.516 . S
C1367 C1368 1.502 . S
C1367 C1369 1.561 . S
C1367 C1370 1.526 . S
C1368 H1352 0.959 . S
C1368 H1353 0.959 . S
C1368 H1354 0.961 . S
C1368 C1367 1.502 . S
C1369 H1355 0.960 . S
C1369 H1356 0.961 . S
C1369 H1357 0.959 . S
C1369 C1367 1.561 . S
C1370 C1367 1.526 . S
C1370 C1371 1.396 . S
C1370 C1375 1.390 . S
C1371 C1365 1.465 . S
C1371 C1370 1.396 . S
C1371 C1372 1.399 . S
C1372 H1358 0.929 . S
C1372 C1371 1.399 . S
C1372 C1373 1.385 . S
C1373 H1359 0.931 . S
C1373 C1372 1.385 . S
C1373 C1374 1.389 . S
C1374 C1373 1.389 . S
C1374 C1375 1.387 . S
C1375 H1360 0.930 . S
C1375 C1370 1.390 . S
C1375 C1374 1.387 . S
H1376 C1388 0.930 . S
H1377 C1390 0.930 . S
H1378 C1391 0.930 . S
H1379 C1395 0.959 . S
H1380 C1395 0.959 . S
H1381 C1395 0.961 . S
H1382 C1396 0.960 . S
H1383 C1396 0.961 . S
H1384 C1396 0.959 . S
H1385 C1399 0.929 . S
H1386 C1400 0.931 . S
H1387 C1402 0.930 . S
C1388 H1376 0.930 . S
C1388 C1389 1.399 . S
C1388 C1393 1.399 . S
C1389 C1388 1.399 . S
C1389 C1390 1.376 . S
C1390 H1377 0.930 . S
C1390 C1389 1.376 . S
C1390 C1391 1.388 . S
C1391 H1378 0.930 . S
C1391 C1390 1.388 . S
C1391 C1392 1.390 . S
C1392 C1391 1.390 . S
C1392 C1393 1.394 . S
C1392 C1398 1.465 . S
C1393 C1388 1.399 . S
C1393 C1392 1.394 . S
C1393 C1394 1.516 . S
C1394 C1393 1.516 . S
C1394 C1395 1.502 . S
C1394 C1396 1.561 . S
C1394 C1397 1.526 . S
C1395 H1379 0.959 . S
C1395 H1380 0.959 . S
C1395 H1381 0.961 . S
C1395 C1394 1.502 . S
C1396 H1382 0.960 . S
C1396 H1383 0.961 . S
C1396 H1384 0.959 . S
C1396 C1394 1.561 . S
C1397 C1394 1.526 . S
C1397 C1398 1.396 . S
C1397 C1402 1.390 . S
C1398 C1392 1.465 . S
C1398 C1397 1.396 . S
C1398 C1399 1.399 . S
C1399 H1385 0.929 . S
C1399 C1398 1.399 . S
C1399 C1400 1.385 . S
C1400 H1386 0.931 . S
C1400 C1399 1.385 . S
C1400 C1401 1.389 . S
C1401 C1400 1.389 . S
C1401 C1402 1.387 . S
C1402 H1387 0.930 . S
C1402 C1397 1.390 . S
C1402 C1401 1.387 . S
H1403 C1415 0.930 . S
H1404 C1417 0.930 . S
H1405 C1418 0.930 . S
H1406 C1422 0.959 . S
H1407 C1422 0.959 . S
H1408 C1422 0.961 . S
H1409 C1423 0.960 . S
H1410 C1423 0.961 . S
H1411 C1423 0.959 . S
H1412 C1426 0.929 . S
H1413 C1427 0.931 . S
H1414 C1429 0.930 . S
C1415 H1403 0.930 . S
C1415 C1416 1.399 . S
C1415 C1420 1.399 . S
C1416 C1415 1.399 . S
C1416 C1417 1.376 . S
C1417 H1404 0.930 . S
C1417 C1416 1.376 . S
C1417 C1418 1.388 . S
C1418 H1405 0.930 . S
C1418 C1417 1.388 . S
C1418 C1419 1.390 . S
C1419 C1418 1.390 . S
C1419 C1420 1.394 . S
C1419 C1425 1.465 . S
C1420 C1415 1.399 . S
C1420 C1419 1.394 . S
C1420 C1421 1.516 . S
C1421 C1420 1.516 . S
C1421 C1422 1.502 . S
C1421 C1423 1.561 . S
C1421 C1424 1.526 . S
C1422 H1406 0.959 . S
C1422 H1407 0.959 . S
C1422 H1408 0.961 . S
C1422 C1421 1.502 . S
C1423 H1409 0.960 . S
C1423 H1410 0.961 . S
C1423 H1411 0.959 . S
C1423 C1421 1.561 . S
C1424 C1421 1.526 . S
C1424 C1425 1.396 . S
C1424 C1429 1.390 . S
C1425 C1419 1.465 . S
C1425 C1424 1.396 . S
C1425 C1426 1.399 . S
C1426 H1412 0.929 . S
C1426 C1425 1.399 . S
C1426 C1427 1.385 . S
C1427 H1413 0.931 . S
C1427 C1426 1.385 . S
C1427 C1428 1.389 . S
C1428 C1427 1.389 . S
C1428 C1429 1.387 . S
C1429 H1414 0.930 . S
C1429 C1424 1.390 . S
C1429 C1428 1.387 . S
H1430 C1442 0.930 . S
H1431 C1444 0.930 . S
H1432 C1445 0.930 . S
H1433 C1449 0.959 . S
H1434 C1449 0.959 . S
H1435 C1449 0.961 . S
H1436 C1450 0.960 . S
H1437 C1450 0.961 . S
H1438 C1450 0.959 . S
H1439 C1453 0.929 . S
H1440 C1454 0.931 . S
H1441 C1456 0.930 . S
C1442 H1430 0.930 . S
C1442 C1443 1.399 . S
C1442 C1447 1.399 . S
C1443 C1442 1.399 . S
C1443 C1444 1.376 . S
C1444 H1431 0.930 . S
C1444 C1443 1.376 . S
C1444 C1445 1.388 . S
C1445 H1432 0.930 . S
C1445 C1444 1.388 . S
C1445 C1446 1.390 . S
C1446 C1445 1.390 . S
C1446 C1447 1.394 . S
C1446 C1452 1.465 . S
C1447 C1442 1.399 . S
C1447 C1446 1.394 . S
C1447 C1448 1.516 . S
C1448 C1447 1.516 . S
C1448 C1449 1.502 . S
C1448 C1450 1.561 . S
C1448 C1451 1.526 . S
C1449 H1433 0.959 . S
C1449 H1434 0.959 . S
C1449 H1435 0.961 . S
C1449 C1448 1.502 . S
C1450 H1436 0.960 . S
C1450 H1437 0.961 . S
C1450 H1438 0.959 . S
C1450 C1448 1.561 . S
C1451 C1448 1.526 . S
C1451 C1452 1.396 . S
C1451 C1456 1.390 . S
C1452 C1446 1.465 . S
C1452 C1451 1.396 . S
C1452 C1453 1.399 . S
C1453 H1439 0.929 . S
C1453 C1452 1.399 . S
C1453 C1454 1.385 . S
C1454 H1440 0.931 . S
C1454 C1453 1.385 . S
C1454 C1455 1.389 . S
C1455 C1454 1.389 . S
C1455 C1456 1.387 . S
C1456 H1441 0.930 . S
C1456 C1451 1.390 . S
C1456 C1455 1.387 . S
H1457 C1469 0.930 . S
H1458 C1471 0.930 . S
H1459 C1472 0.930 . S
H1460 C1476 0.959 . S
H1461 C1476 0.959 . S
H1462 C1476 0.961 . S
H1463 C1477 0.960 . S
H1464 C1477 0.961 . S
H1465 C1477 0.959 . S
H1466 C1480 0.929 . S
H1467 C1481 0.931 . S
H1468 C1483 0.930 . S
C1469 H1457 0.930 . S
C1469 C1470 1.399 . S
C1469 C1474 1.399 . S
C1470 C1469 1.399 . S
C1470 C1471 1.376 . S
C1471 H1458 0.930 . S
C1471 C1470 1.376 . S
C1471 C1472 1.388 . S
C1472 H1459 0.930 . S
C1472 C1471 1.388 . S
C1472 C1473 1.390 . S
C1473 C1472 1.390 . S
C1473 C1474 1.394 . S
C1473 C1479 1.465 . S
C1474 C1469 1.399 . S
C1474 C1473 1.394 . S
C1474 C1475 1.516 . S
C1475 C1474 1.516 . S
C1475 C1476 1.502 . S
C1475 C1477 1.561 . S
C1475 C1478 1.526 . S
C1476 H1460 0.959 . S
C1476 H1461 0.959 . S
C1476 H1462 0.961 . S
C1476 C1475 1.502 . S
C1477 H1463 0.960 . S
C1477 H1464 0.961 . S
C1477 H1465 0.959 . S
C1477 C1475 1.561 . S
C1478 C1475 1.526 . S
C1478 C1479 1.396 . S
C1478 C1483 1.390 . S
C1479 C1473 1.465 . S
C1479 C1478 1.396 . S
C1479 C1480 1.399 . S
C1480 H1466 0.929 . S
C1480 C1479 1.399 . S
C1480 C1481 1.385 . S
C1481 H1467 0.931 . S
C1481 C1480 1.385 . S
C1481 C1482 1.389 . S
C1482 C1481 1.389 . S
C1482 C1483 1.387 . S
C1483 H1468 0.930 . S
C1483 C1478 1.390 . S
C1483 C1482 1.387 . S
H1484 C1496 0.930 . S
H1485 C1498 0.930 . S
H1486 C1499 0.930 . S
H1487 C1503 0.959 . S
H1488 C1503 0.959 . S
H1489 C1503 0.961 . S
H1490 C1504 0.960 . S
H1491 C1504 0.961 . S
H1492 C1504 0.959 . S
H1493 C1507 0.929 . S
H1494 C1508 0.931 . S
H1495 C1510 0.930 . S
C1496 H1484 0.930 . S
C1496 C1497 1.399 . S
C1496 C1501 1.399 . S
C1497 C1496 1.399 . S
C1497 C1498 1.376 . S
C1498 H1485 0.930 . S
C1498 C1497 1.376 . S
C1498 C1499 1.388 . S
C1499 H1486 0.930 . S
C1499 C1498 1.388 . S
C1499 C1500 1.390 . S
C1500 C1499 1.390 . S
C1500 C1501 1.394 . S
C1500 C1506 1.465 . S
C1501 C1496 1.399 . S
C1501 C1500 1.394 . S
C1501 C1502 1.516 . S
C1502 C1501 1.516 . S
C1502 C1503 1.502 . S
C1502 C1504 1.561 . S
C1502 C1505 1.526 . S
C1503 H1487 0.959 . S
C1503 H1488 0.959 . S
C1503 H1489 0.961 . S
C1503 C1502 1.502 . S
C1504 H1490 0.960 . S
C1504 H1491 0.961 . S
C1504 H1492 0.959 . S
C1504 C1502 1.561 . S
C1505 C1502 1.526 . S
C1505 C1506 1.396 . S
C1505 C1510 1.390 . S
C1506 C1500 1.465 . S
C1506 C1505 1.396 . S
C1506 C1507 1.399 . S
C1507 H1493 0.929 . S
C1507 C1506 1.399 . S
C1507 C1508 1.385 . S
C1508 H1494 0.931 . S
C1508 C1507 1.385 . S
C1508 C1509 1.389 . S
C1509 C1508 1.389 . S
C1509 C1510 1.387 . S
C1510 H1495 0.930 . S
C1510 C1505 1.390 . S
C1510 C1509 1.387 . S
H1511 C1523 0.930 . S
H1512 C1525 0.930 . S
H1513 C1526 0.930 . S
H1514 C1530 0.959 . S
H1515 C1530 0.959 . S
H1516 C1530 0.961 . S
H1517 C1531 0.960 . S
H1518 C1531 0.961 . S
H1519 C1531 0.959 . S
H1520 C1534 0.929 . S
H1521 C1535 0.931 . S
H1522 C1537 0.930 . S
C1523 H1511 0.930 . S
C1523 C1524 1.399 . S
C1523 C1528 1.399 . S
C1524 C1523 1.399 . S
C1524 C1525 1.376 . S
C1525 H1512 0.930 . S
C1525 C1524 1.376 . S
C1525 C1526 1.388 . S
C1526 H1513 0.930 . S
C1526 C1525 1.388 . S
C1526 C1527 1.390 . S
C1527 C1526 1.390 . S
C1527 C1528 1.394 . S
C1527 C1533 1.465 . S
C1528 C1523 1.399 . S
C1528 C1527 1.394 . S
C1528 C1529 1.516 . S
C1529 C1528 1.516 . S
C1529 C1530 1.502 . S
C1529 C1531 1.561 . S
C1529 C1532 1.526 . S
C1530 H1514 0.959 . S
C1530 H1515 0.959 . S
C1530 H1516 0.961 . S
C1530 C1529 1.502 . S
C1531 H1517 0.960 . S
C1531 H1518 0.961 . S
C1531 H1519 0.959 . S
C1531 C1529 1.561 . S
C1532 C1529 1.526 . S
C1532 C1533 1.396 . S
C1532 C1537 1.390 . S
C1533 C1527 1.465 . S
C1533 C1532 1.396 . S
C1533 C1534 1.399 . S
C1534 H1520 0.929 . S
C1534 C1533 1.399 . S
C1534 C1535 1.385 . S
C1535 H1521 0.931 . S
C1535 C1534 1.385 . S
C1535 C1536 1.389 . S
C1536 C1535 1.389 . S
C1536 C1537 1.387 . S
C1537 H1522 0.930 . S
C1537 C1532 1.390 . S
C1537 C1536 1.387 . S
H1538 C1550 0.930 . S
H1539 C1552 0.930 . S
H1540 C1553 0.930 . S
H1541 C1557 0.959 . S
H1542 C1557 0.959 . S
H1543 C1557 0.961 . S
H1544 C1558 0.960 . S
H1545 C1558 0.961 . S
H1546 C1558 0.959 . S
H1547 C1561 0.929 . S
H1548 C1562 0.931 . S
H1549 C1564 0.930 . S
C1550 H1538 0.930 . S
C1550 C1551 1.399 . S
C1550 C1555 1.399 . S
C1551 C1550 1.399 . S
C1551 C1552 1.376 . S
C1552 H1539 0.930 . S
C1552 C1551 1.376 . S
C1552 C1553 1.388 . S
C1553 H1540 0.930 . S
C1553 C1552 1.388 . S
C1553 C1554 1.390 . S
C1554 C1553 1.390 . S
C1554 C1555 1.394 . S
C1554 C1560 1.465 . S
C1555 C1550 1.399 . S
C1555 C1554 1.394 . S
C1555 C1556 1.516 . S
C1556 C1555 1.516 . S
C1556 C1557 1.502 . S
C1556 C1558 1.561 . S
C1556 C1559 1.526 . S
C1557 H1541 0.959 . S
C1557 H1542 0.959 . S
C1557 H1543 0.961 . S
C1557 C1556 1.502 . S
C1558 H1544 0.960 . S
C1558 H1545 0.961 . S
C1558 H1546 0.959 . S
C1558 C1556 1.561 . S
C1559 C1556 1.526 . S
C1559 C1560 1.396 . S
C1559 C1564 1.390 . S
C1560 C1554 1.465 . S
C1560 C1559 1.396 . S
C1560 C1561 1.399 . S
C1561 H1547 0.929 . S
C1561 C1560 1.399 . S
C1561 C1562 1.385 . S
C1562 H1548 0.931 . S
C1562 C1561 1.385 . S
C1562 C1563 1.389 . S
C1563 C1562 1.389 . S
C1563 C1564 1.387 . S
C1564 H1549 0.930 . S
C1564 C1559 1.390 . S
C1564 C1563 1.387 . S
H1565 C1577 0.930 . S
H1566 C1579 0.930 . S
H1567 C1580 0.930 . S
H1568 C1584 0.959 . S
H1569 C1584 0.959 . S
H1570 C1584 0.961 . S
H1571 C1585 0.960 . S
H1572 C1585 0.961 . S
H1573 C1585 0.959 . S
H1574 C1588 0.929 . S
H1575 C1589 0.931 . S
H1576 C1591 0.930 . S
C1577 H1565 0.930 . S
C1577 C1578 1.399 . S
C1577 C1582 1.399 . S
C1578 C1577 1.399 . S
C1578 C1579 1.376 . S
C1579 H1566 0.930 . S
C1579 C1578 1.376 . S
C1579 C1580 1.388 . S
C1580 H1567 0.930 . S
C1580 C1579 1.388 . S
C1580 C1581 1.390 . S
C1581 C1580 1.390 . S
C1581 C1582 1.394 . S
C1581 C1587 1.465 . S
C1582 C1577 1.399 . S
C1582 C1581 1.394 . S
C1582 C1583 1.516 . S
C1583 C1582 1.516 . S
C1583 C1584 1.502 . S
C1583 C1585 1.561 . S
C1583 C1586 1.526 . S
C1584 H1568 0.959 . S
C1584 H1569 0.959 . S
C1584 H1570 0.961 . S
C1584 C1583 1.502 . S
C1585 H1571 0.960 . S
C1585 H1572 0.961 . S
C1585 H1573 0.959 . S
C1585 C1583 1.561 . S
C1586 C1583 1.526 . S
C1586 C1587 1.396 . S
C1586 C1591 1.390 . S
C1587 C1581 1.465 . S
C1587 C1586 1.396 . S
C1587 C1588 1.399 . S
C1588 H1574 0.929 . S
C1588 C1587 1.399 . S
C1588 C1589 1.385 . S
C1589 H1575 0.931 . S
C1589 C1588 1.385 . S
C1589 C1590 1.389 . S
C1590 C1589 1.389 . S
C1590 C1591 1.387 . S
C1591 H1576 0.930 . S
C1591 C1586 1.390 . S
C1591 C1590 1.387 . S
H1592 C1604 0.930 . S
H1593 C1606 0.930 . S
H1594 C1607 0.930 . S
H1595 C1611 0.959 . S
H1596 C1611 0.959 . S
H1597 C1611 0.961 . S
H1598 C1612 0.960 . S
H1599 C1612 0.961 . S
H1600 C1612 0.959 . S
H1601 C1615 0.929 . S
H1602 C1616 0.931 . S
H1603 C1618 0.930 . S
C1604 H1592 0.930 . S
C1604 C1605 1.399 . S
C1604 C1609 1.399 . S
C1605 C1604 1.399 . S
C1605 C1606 1.376 . S
C1606 H1593 0.930 . S
C1606 C1605 1.376 . S
C1606 C1607 1.388 . S
C1607 H1594 0.930 . S
C1607 C1606 1.388 . S
C1607 C1608 1.390 . S
C1608 C1607 1.390 . S
C1608 C1609 1.394 . S
C1608 C1614 1.465 . S
C1609 C1604 1.399 . S
C1609 C1608 1.394 . S
C1609 C1610 1.516 . S
C1610 C1609 1.516 . S
C1610 C1611 1.502 . S
C1610 C1612 1.561 . S
C1610 C1613 1.526 . S
C1611 H1595 0.959 . S
C1611 H1596 0.959 . S
C1611 H1597 0.961 . S
C1611 C1610 1.502 . S
C1612 H1598 0.960 . S
C1612 H1599 0.961 . S
C1612 H1600 0.959 . S
C1612 C1610 1.561 . S
C1613 C1610 1.526 . S
C1613 C1614 1.396 . S
C1613 C1618 1.390 . S
C1614 C1608 1.465 . S
C1614 C1613 1.396 . S
C1614 C1615 1.399 . S
C1615 H1601 0.929 . S
C1615 C1614 1.399 . S
C1615 C1616 1.385 . S
C1616 H1602 0.931 . S
C1616 C1615 1.385 . S
C1616 C1617 1.389 . S
C1617 C1616 1.389 . S
C1617 C1618 1.387 . S
C1618 H1603 0.930 . S
C1618 C1613 1.390 . S
C1618 C1617 1.387 . S
H1619 C1631 0.930 . S
H1620 C1633 0.930 . S
H1621 C1634 0.930 . S
H1622 C1638 0.959 . S
H1623 C1638 0.959 . S
H1624 C1638 0.961 . S
H1625 C1639 0.960 . S
H1626 C1639 0.961 . S
H1627 C1639 0.959 . S
H1628 C1642 0.929 . S
H1629 C1643 0.931 . S
H1630 C1645 0.930 . S
C1631 H1619 0.930 . S
C1631 C1632 1.399 . S
C1631 C1636 1.399 . S
C1632 C1631 1.399 . S
C1632 C1633 1.376 . S
C1633 H1620 0.930 . S
C1633 C1632 1.376 . S
C1633 C1634 1.388 . S
C1634 H1621 0.930 . S
C1634 C1633 1.388 . S
C1634 C1635 1.390 . S
C1635 C1634 1.390 . S
C1635 C1636 1.394 . S
C1635 C1641 1.465 . S
C1636 C1631 1.399 . S
C1636 C1635 1.394 . S
C1636 C1637 1.516 . S
C1637 C1636 1.516 . S
C1637 C1638 1.502 . S
C1637 C1639 1.561 . S
C1637 C1640 1.526 . S
C1638 H1622 0.959 . S
C1638 H1623 0.959 . S
C1638 H1624 0.961 . S
C1638 C1637 1.502 . S
C1639 H1625 0.960 . S
C1639 H1626 0.961 . S
C1639 H1627 0.959 . S
C1639 C1637 1.561 . S
C1640 C1637 1.526 . S
C1640 C1641 1.396 . S
C1640 C1645 1.390 . S
C1641 C1635 1.465 . S
C1641 C1640 1.396 . S
C1641 C1642 1.399 . S
C1642 H1628 0.929 . S
C1642 C1641 1.399 . S
C1642 C1643 1.385 . S
C1643 H1629 0.931 . S
C1643 C1642 1.385 . S
C1643 C1644 1.389 . S
C1644 C1643 1.389 . S
C1644 C1645 1.387 . S
C1645 H1630 0.930 . S
C1645 C1640 1.390 . S
C1645 C1644 1.387 . S
H1646 C1658 0.930 . S
H1647 C1660 0.930 . S
H1648 C1661 0.930 . S
H1649 C1665 0.959 . S
H1650 C1665 0.959 . S
H1651 C1665 0.961 . S
H1652 C1666 0.960 . S
H1653 C1666 0.961 . S
H1654 C1666 0.959 . S
H1655 C1669 0.929 . S
H1656 C1670 0.931 . S
H1657 C1672 0.930 . S
C1658 H1646 0.930 . S
C1658 C1659 1.399 . S
C1658 C1663 1.399 . S
C1659 C1658 1.399 . S
C1659 C1660 1.376 . S
C1660 H1647 0.930 . S
C1660 C1659 1.376 . S
C1660 C1661 1.388 . S
C1661 H1648 0.930 . S
C1661 C1660 1.388 . S
C1661 C1662 1.390 . S
C1662 C1661 1.390 . S
C1662 C1663 1.394 . S
C1662 C1668 1.465 . S
C1663 C1658 1.399 . S
C1663 C1662 1.394 . S
C1663 C1664 1.516 . S
C1664 C1663 1.516 . S
C1664 C1665 1.502 . S
C1664 C1666 1.561 . S
C1664 C1667 1.526 . S
C1665 H1649 0.959 . S
C1665 H1650 0.959 . S
C1665 H1651 0.961 . S
C1665 C1664 1.502 . S
C1666 H1652 0.960 . S
C1666 H1653 0.961 . S
C1666 H1654 0.959 . S
C1666 C1664 1.561 . S
C1667 C1664 1.526 . S
C1667 C1668 1.396 . S
C1667 C1672 1.390 . S
C1668 C1662 1.465 . S
C1668 C1667 1.396 . S
C1668 C1669 1.399 . S
C1669 H1655 0.929 . S
C1669 C1668 1.399 . S
C1669 C1670 1.385 . S
C1670 H1656 0.931 . S
C1670 C1669 1.385 . S
C1670 C1671 1.389 . S
C1671 C1670 1.389 . S
C1671 C1672 1.387 . S
C1672 H1657 0.930 . S
C1672 C1667 1.390 . S
C1672 C1671 1.387 . S
H1673 C1685 0.930 . S
H1674 C1687 0.930 . S
H1675 C1688 0.930 . S
H1676 C1692 0.959 . S
H1677 C1692 0.959 . S
H1678 C1692 0.961 . S
H1679 C1693 0.960 . S
H1680 C1693 0.961 . S
H1681 C1693 0.959 . S
H1682 C1696 0.929 . S
H1683 C1697 0.931 . S
H1684 C1699 0.930 . S
C1685 H1673 0.930 . S
C1685 C1686 1.399 . S
C1685 C1690 1.399 . S
C1686 C1685 1.399 . S
C1686 C1687 1.376 . S
C1687 H1674 0.930 . S
C1687 C1686 1.376 . S
C1687 C1688 1.388 . S
C1688 H1675 0.930 . S
C1688 C1687 1.388 . S
C1688 C1689 1.390 . S
C1689 C1688 1.390 . S
C1689 C1690 1.394 . S
C1689 C1695 1.465 . S
C1690 C1685 1.399 . S
C1690 C1689 1.394 . S
C1690 C1691 1.516 . S
C1691 C1690 1.516 . S
C1691 C1692 1.502 . S
C1691 C1693 1.561 . S
C1691 C1694 1.526 . S
C1692 H1676 0.959 . S
C1692 H1677 0.959 . S
C1692 H1678 0.961 . S
C1692 C1691 1.502 . S
C1693 H1679 0.960 . S
C1693 H1680 0.961 . S
C1693 H1681 0.959 . S
C1693 C1691 1.561 . S
C1694 C1691 1.526 . S
C1694 C1695 1.396 . S
C1694 C1699 1.390 . S
C1695 C1689 1.465 . S
C1695 C1694 1.396 . S
C1695 C1696 1.399 . S
C1696 H1682 0.929 . S
C1696 C1695 1.399 . S
C1696 C1697 1.385 . S
C1697 H1683 0.931 . S
C1697 C1696 1.385 . S
C1697 C1698 1.389 . S
C1698 C1697 1.389 . S
C1698 C1699 1.387 . S
C1699 H1684 0.930 . S
C1699 C1694 1.390 . S
C1699 C1698 1.387 . S
H1700 C1712 0.930 . S
H1701 C1714 0.930 . S
H1702 C1715 0.930 . S
H1703 C1719 0.959 . S
H1704 C1719 0.959 . S
H1705 C1719 0.961 . S
H1706 C1720 0.960 . S
H1707 C1720 0.961 . S
H1708 C1720 0.959 . S
H1709 C1723 0.929 . S
H1710 C1724 0.931 . S
H1711 C1726 0.930 . S
C1712 H1700 0.930 . S
C1712 C1713 1.399 . S
C1712 C1717 1.399 . S
C1713 C1712 1.399 . S
C1713 C1714 1.376 . S
C1714 H1701 0.930 . S
C1714 C1713 1.376 . S
C1714 C1715 1.388 . S
C1715 H1702 0.930 . S
C1715 C1714 1.388 . S
C1715 C1716 1.390 . S
C1716 C1715 1.390 . S
C1716 C1717 1.394 . S
C1716 C1722 1.465 . S
C1717 C1712 1.399 . S
C1717 C1716 1.394 . S
C1717 C1718 1.516 . S
C1718 C1717 1.516 . S
C1718 C1719 1.502 . S
C1718 C1720 1.561 . S
C1718 C1721 1.526 . S
C1719 H1703 0.959 . S
C1719 H1704 0.959 . S
C1719 H1705 0.961 . S
C1719 C1718 1.502 . S
C1720 H1706 0.960 . S
C1720 H1707 0.961 . S
C1720 H1708 0.959 . S
C1720 C1718 1.561 . S
C1721 C1718 1.526 . S
C1721 C1722 1.396 . S
C1721 C1726 1.390 . S
C1722 C1716 1.465 . S
C1722 C1721 1.396 . S
C1722 C1723 1.399 . S
C1723 H1709 0.929 . S
C1723 C1722 1.399 . S
C1723 C1724 1.385 . S
C1724 H1710 0.931 . S
C1724 C1723 1.385 . S
C1724 C1725 1.389 . S
C1725 C1724 1.389 . S
C1725 C1726 1.387 . S
C1726 H1711 0.930 . S
C1726 C1721 1.390 . S
C1726 C1725 1.387 . S
H1727 C1739 0.930 . S
H1728 C1741 0.930 . S
H1729 C1742 0.930 . S
H1730 C1746 0.959 . S
H1731 C1746 0.959 . S
H1732 C1746 0.961 . S
H1733 C1747 0.960 . S
H1734 C1747 0.961 . S
H1735 C1747 0.959 . S
H1736 C1750 0.929 . S
H1737 C1751 0.931 . S
H1738 C1753 0.930 . S
C1739 H1727 0.930 . S
C1739 C1740 1.399 . S
C1739 C1744 1.399 . S
C1740 C1739 1.399 . S
C1740 C1741 1.376 . S
C1741 H1728 0.930 . S
C1741 C1740 1.376 . S
C1741 C1742 1.388 . S
C1742 H1729 0.930 . S
C1742 C1741 1.388 . S
C1742 C1743 1.390 . S
C1743 C1742 1.390 . S
C1743 C1744 1.394 . S
C1743 C1749 1.465 . S
C1744 C1739 1.399 . S
C1744 C1743 1.394 . S
C1744 C1745 1.516 . S
C1745 C1744 1.516 . S
C1745 C1746 1.502 . S
C1745 C1747 1.561 . S
C1745 C1748 1.526 . S
C1746 H1730 0.959 . S
C1746 H1731 0.959 . S
C1746 H1732 0.961 . S
C1746 C1745 1.502 . S
C1747 H1733 0.960 . S
C1747 H1734 0.961 . S
C1747 H1735 0.959 . S
C1747 C1745 1.561 . S
C1748 C1745 1.526 . S
C1748 C1749 1.396 . S
C1748 C1753 1.390 . S
C1749 C1743 1.465 . S
C1749 C1748 1.396 . S
C1749 C1750 1.399 . S
C1750 H1736 0.929 . S
C1750 C1749 1.399 . S
C1750 C1751 1.385 . S
C1751 H1737 0.931 . S
C1751 C1750 1.385 . S
C1751 C1752 1.389 . S
C1752 C1751 1.389 . S
C1752 C1753 1.387 . S
C1753 H1738 0.930 . S
C1753 C1748 1.390 . S
C1753 C1752 1.387 . S
H1754 C1766 0.930 . S
H1755 C1768 0.930 . S
H1756 C1769 0.930 . S
H1757 C1773 0.959 . S
H1758 C1773 0.959 . S
H1759 C1773 0.961 . S
H1760 C1774 0.960 . S
H1761 C1774 0.961 . S
H1762 C1774 0.959 . S
H1763 C1777 0.929 . S
H1764 C1778 0.931 . S
H1765 C1780 0.930 . S
C1766 H1754 0.930 . S
C1766 C1767 1.399 . S
C1766 C1771 1.399 . S
C1767 C1766 1.399 . S
C1767 C1768 1.376 . S
C1768 H1755 0.930 . S
C1768 C1767 1.376 . S
C1768 C1769 1.388 . S
C1769 H1756 0.930 . S
C1769 C1768 1.388 . S
C1769 C1770 1.390 . S
C1770 C1769 1.390 . S
C1770 C1771 1.394 . S
C1770 C1776 1.465 . S
C1771 C1766 1.399 . S
C1771 C1770 1.394 . S
C1771 C1772 1.516 . S
C1772 C1771 1.516 . S
C1772 C1773 1.502 . S
C1772 C1774 1.561 . S
C1772 C1775 1.526 . S
C1773 H1757 0.959 . S
C1773 H1758 0.959 . S
C1773 H1759 0.961 . S
C1773 C1772 1.502 . S
C1774 H1760 0.960 . S
C1774 H1761 0.961 . S
C1774 H1762 0.959 . S
C1774 C1772 1.561 . S
C1775 C1772 1.526 . S
C1775 C1776 1.396 . S
C1775 C1780 1.390 . S
C1776 C1770 1.465 . S
C1776 C1775 1.396 . S
C1776 C1777 1.399 . S
C1777 H1763 0.929 . S
C1777 C1776 1.399 . S
C1777 C1778 1.385 . S
C1778 H1764 0.931 . S
C1778 C1777 1.385 . S
C1778 C1779 1.389 . S
C1779 C1778 1.389 . S
C1779 C1780 1.387 . S
C1780 H1765 0.930 . S
C1780 C1775 1.390 . S
C1780 C1779 1.387 . S
H1781 C1793 0.930 . S
H1782 C1795 0.930 . S
H1783 C1796 0.930 . S
H1784 C1800 0.959 . S
H1785 C1800 0.959 . S
H1786 C1800 0.961 . S
H1787 C1801 0.960 . S
H1788 C1801 0.961 . S
H1789 C1801 0.959 . S
H1790 C1804 0.929 . S
H1791 C1805 0.931 . S
H1792 C1807 0.930 . S
C1793 H1781 0.930 . S
C1793 C1794 1.399 . S
C1793 C1798 1.399 . S
C1794 C1793 1.399 . S
C1794 C1795 1.376 . S
C1795 H1782 0.930 . S
C1795 C1794 1.376 . S
C1795 C1796 1.388 . S
C1796 H1783 0.930 . S
C1796 C1795 1.388 . S
C1796 C1797 1.390 . S
C1797 C1796 1.390 . S
C1797 C1798 1.394 . S
C1797 C1803 1.465 . S
C1798 C1793 1.399 . S
C1798 C1797 1.394 . S
C1798 C1799 1.516 . S
C1799 C1798 1.516 . S
C1799 C1800 1.502 . S
C1799 C1801 1.561 . S
C1799 C1802 1.526 . S
C1800 H1784 0.959 . S
C1800 H1785 0.959 . S
C1800 H1786 0.961 . S
C1800 C1799 1.502 . S
C1801 H1787 0.960 . S
C1801 H1788 0.961 . S
C1801 H1789 0.959 . S
C1801 C1799 1.561 . S
C1802 C1799 1.526 . S
C1802 C1803 1.396 . S
C1802 C1807 1.390 . S
C1803 C1797 1.465 . S
C1803 C1802 1.396 . S
C1803 C1804 1.399 . S
C1804 H1790 0.929 . S
C1804 C1803 1.399 . S
C1804 C1805 1.385 . S
C1805 H1791 0.931 . S
C1805 C1804 1.385 . S
C1805 C1806 1.389 . S
C1806 C1805 1.389 . S
C1806 C1807 1.387 . S
C1807 H1792 0.930 . S
C1807 C1802 1.390 . S
C1807 C1806 1.387 . S
C957 C241 1.555 . S
C969 C5 1.559 . S
C984 C300 1.557 . S
C996 C64 1.561 . S
C1011 C359 1.560 . S
C1023 C123 1.557 . S
C1038 C418 1.558 . S
C1050 C182 1.555 . S
C1065 C713 1.555 . S
C1077 C477 1.559 . S
C1092 C772 1.557 . S
C1104 C536 1.561 . S
C1119 C595 1.560 . S
C1131 C831 1.557 . S
C1146 C890 1.558 . S
C1158 C654 1.560 . S
C1173 C52 1.588 . S
C1185 C347 1.611 . S
C1200 C406 1.584 . S
C1212 C111 1.612 . S
C1227 C170 1.586 . S
C1239 C465 1.612 . S
C1254 C288 1.585 . S
C1266 C229 1.612 . S
C1281 C819 1.591 . S
C1293 C524 1.610 . S
C1308 C878 1.607 . S
C1320 C583 1.582 . S
C1335 C642 1.605 . S
C1347 C937 1.583 . S
C1362 C701 1.588 . S
C1374 C760 1.611 . S
C1389 C918 1.762 . S
C1401 C33 1.763 . S
C1416 C741 1.763 . S
C1428 C92 1.762 . S
C1443 C800 1.771 . S
C1455 C151 1.769 . S
C1470 C859 1.762 . S
C1482 C210 1.772 . S
C1497 C564 1.773 . S
C1509 C269 1.769 . S
C1524 C623 1.771 . S
C1536 C328 1.763 . S
C1551 C387 1.773 . S
C1563 C682 1.766 . S
C1578 C446 1.771 . S
C1590 C505 1.771 . S
C1605 C770 1.113 . S
C1617 C121 1.114 . S
C1632 C829 1.143 . S
C1644 C180 1.143 . S
C1659 C888 1.119 . S
C1671 C3 1.120 . S
C1686 C62 1.109 . S
C1698 C711 1.111 . S
C1713 C652 1.118 . S
C1725 C357 1.117 . S
C1740 C416 1.108 . S
C1752 C475 1.108 . S
C1767 C534 1.107 . S
C1779 C239 1.105 . S
C1794 C593 1.142 . S
C1806 C298 1.140 . S
