# Generated by pormake.
# Topology vby, (6)-cn, num edge types: 1
# Building blocks:
#     Node 0, Type 0, BuildingBlock: BETGAK_clean_sbu_0, # of connection points: 6
#     Node 1, Type 0, BuildingBlock: BETGAK_clean_sbu_0, # of connection points: 6
#     Node 2, Type 0, BuildingBlock: BETGAK_clean_sbu_0, # of connection points: 6
#     Node 3, Type 0, BuildingBlock: BETGAK_clean_sbu_0, # of connection points: 6
#     Node 4, Type 0, BuildingBlock: BETGAK_clean_sbu_0, # of connection points: 6
#     Node 5, Type 0, BuildingBlock: BETGAK_clean_sbu_0, # of connection points: 6
#     Node 6, Type 0, BuildingBlock: BETGAK_clean_sbu_0, # of connection points: 6
#     Node 7, Type 0, BuildingBlock: BETGAK_clean_sbu_0, # of connection points: 6
#     Edge 8, Type (0, 0), BuildingBlock: EZIPEK_clean_linker_0, # of connection points: 2
#     Edge 9, Type (0, 0), BuildingBlock: EZIPEK_clean_linker_0, # of connection points: 2
#     Edge 10, Type (0, 0), BuildingBlock: EZIPEK_clean_linker_0, # of connection points: 2
#     Edge 11, Type (0, 0), BuildingBlock: EZIPEK_clean_linker_0, # of connection points: 2
#     Edge 12, Type (0, 0), BuildingBlock: EZIPEK_clean_linker_0, # of connection points: 2
#     Edge 13, Type (0, 0), BuildingBlock: EZIPEK_clean_linker_0, # of connection points: 2
#     Edge 14, Type (0, 0), BuildingBlock: EZIPEK_clean_linker_0, # of connection points: 2
#     Edge 15, Type (0, 0), BuildingBlock: EZIPEK_clean_linker_0, # of connection points: 2
#     Edge 16, Type (0, 0), BuildingBlock: EZIPEK_clean_linker_0, # of connection points: 2
#     Edge 17, Type (0, 0), BuildingBlock: EZIPEK_clean_linker_0, # of connection points: 2
#     Edge 18, Type (0, 0), BuildingBlock: EZIPEK_clean_linker_0, # of connection points: 2
#     Edge 19, Type (0, 0), BuildingBlock: EZIPEK_clean_linker_0, # of connection points: 2
#     Edge 20, Type (0, 0), BuildingBlock: EZIPEK_clean_linker_0, # of connection points: 2
#     Edge 21, Type (0, 0), BuildingBlock: EZIPEK_clean_linker_0, # of connection points: 2
#     Edge 22, Type (0, 0), BuildingBlock: EZIPEK_clean_linker_0, # of connection points: 2
#     Edge 23, Type (0, 0), BuildingBlock: EZIPEK_clean_linker_0, # of connection points: 2
#     Edge 24, Type (0, 0), BuildingBlock: EZIPEK_clean_linker_0, # of connection points: 2
#     Edge 25, Type (0, 0), BuildingBlock: EZIPEK_clean_linker_0, # of connection points: 2
#     Edge 26, Type (0, 0), BuildingBlock: EZIPEK_clean_linker_0, # of connection points: 2
#     Edge 27, Type (0, 0), BuildingBlock: EZIPEK_clean_linker_0, # of connection points: 2
#     Edge 28, Type (0, 0), BuildingBlock: EZIPEK_clean_linker_0, # of connection points: 2
#     Edge 29, Type (0, 0), BuildingBlock: EZIPEK_clean_linker_0, # of connection points: 2
#     Edge 30, Type (0, 0), BuildingBlock: EZIPEK_clean_linker_0, # of connection points: 2
#     Edge 31, Type (0, 0), BuildingBlock: EZIPEK_clean_linker_0, # of connection points: 2
# Relax obj value: 0.198
# Max RMSD: 0.219
# Mean RMSD: 0.219
data_MOF--net-vby--node1-BETGAK_clean_sbu_0--edge1-EZIPEK_clean_linker_0
_symmetry_space_group_name_H-M    P1
_symmetry_Int_Tables_number       1
_symmetry_cell_setting            triclinic
loop_
_symmetry_equiv_pos_as_xyz
'x, y, z'
_cell_length_a     11.507044
_cell_length_b     87.272205
_cell_length_c     21.430075
_cell_angle_alpha  89.986255
_cell_angle_beta   85.301859
_cell_angle_gamma 89.1046
loop_
_atom_site_label
_atom_site_type_symbol
_atom_site_fract_x
_atom_site_fract_y
_atom_site_fract_z
_atom_type_partial_charge
La0 La 0.04738 0.42174 0.02153 0.0
La1 La 0.0572 0.38613 0.02572 0.0
C2 C 1.03788 0.44946 0.98659 0.0
C3 C 0.06259 0.46572 1.00113 0.0
C4 C 1.02101 0.47266 0.05819 0.0
C5 C 1.02811 0.4886 0.06635 0.0
C6 C 0.07657 0.4979 0.01767 0.0
C7 C 0.12194 0.49092 0.96165 0.0
C8 C 0.11498 0.47502 0.95351 0.0
C9 C 0.04902 0.41171 0.14089 0.0
C10 C 0.80872 0.40364 0.02709 0.0
C11 C 1.04317 0.35792 0.05377 0.0
C12 C 0.10664 0.34292 0.04839 0.0
C13 C 0.17712 0.33856 0.9943 0.0
C14 C 0.22741 0.32375 0.98919 0.0
C15 C 0.20777 0.31304 0.03791 0.0
C16 C 0.13922 0.31751 0.09225 0.0
C17 C 0.08945 0.33228 0.09742 0.0
C18 C 0.0883 0.39854 0.91042 0.0
C19 C 0.29459 0.40412 0.02228 0.0
O20 O 0.12519 0.44011 0.96974 0.0
O21 O 0.95543 0.44265 0.02156 0.0
O22 O 0.04988 0.42596 0.12427 0.0
O23 O 0.04988 0.40432 0.09046 0.0
O24 O 0.86386 0.41646 0.01104 0.0
O25 O 0.86678 0.3909 0.04079 0.0
O26 O 1.00679 0.36391 1.00272 0.0
O27 O 0.08207 0.36835 0.09042 0.0
O28 O 0.13846 0.38612 0.92929 0.0
O29 O 1.02051 0.4033 0.95633 0.0
O30 O 0.23948 0.39133 0.03955 0.0
O31 O 0.23676 0.41655 1.00477 0.0
H32 H 0.97932 0.46587 0.0957 0.0
H33 H 0.99234 0.49374 0.1099 0.0
H34 H 0.15943 0.49786 0.92343 0.0
H35 H 0.14643 0.47004 0.90885 0.0
H36 H 0.19169 0.34649 0.95567 0.0
H37 H 0.27997 0.32055 0.94683 0.0
H38 H 0.12295 0.30948 0.1304 0.0
H39 H 1.03518 0.33531 0.13946 0.0
La40 La 1.02727 0.67691 0.0202 0.0
La41 La 1.03114 0.64307 0.01465 0.0
C42 C 1.04334 0.70556 1.0006 0.0
C43 C 0.98048 0.7206 1.00805 0.0
C44 C 0.93118 0.726 0.06642 0.0
C45 C 0.8823 0.74088 0.07219 0.0
C46 C 0.88194 0.75062 0.01984 0.0
C47 C 0.92923 0.74511 0.96151 0.0
C48 C 0.97801 0.7303 0.95574 0.0
C49 C 0.99099 0.66342 0.13306 0.0
C50 C 0.78686 0.66004 0.02232 0.0
C51 C 0.04938 0.61436 0.02425 0.0
C52 C 0.06123 0.59736 0.0293 0.0
C53 C 0.13874 0.58911 0.98702 0.0
C54 C 0.14336 0.57302 0.98825 0.0
C55 C 0.0702 0.56482 0.03153 0.0
C56 C 0.99412 0.57301 0.07455 0.0
C57 C 0.98991 0.58911 0.07358 0.0
C58 C 1.00461 0.65685 0.90373 0.0
C59 C 0.27456 0.65987 0.01844 0.0
O60 O 0.07663 0.69867 0.05052 0.0
O61 O 1.00663 0.69581 0.96051 0.0
O62 O 0.94088 0.67594 0.11553 0.0
O63 O 0.06049 0.65912 0.08748 0.0
O64 O 0.8444 0.67246 1.00337 0.0
O65 O 0.8441 0.6477 0.04006 0.0
O66 O 0.10341 0.62218 0.97886 0.0
O67 O 0.98743 0.62285 0.06556 0.0
O68 O 0.95468 0.64447 0.92422 0.0
O69 O 0.07006 0.66081 0.94538 0.0
O70 O 0.2183 0.64672 0.02376 0.0
O71 O 0.21779 0.67307 0.01264 0.0
H72 H 0.93204 0.71886 0.10771 0.0
H73 H 0.8461 0.74487 0.11765 0.0
H74 H 0.93007 0.75239 0.92053 0.0
H75 H 1.01622 0.72652 0.91035 0.0
H76 H 0.19456 0.59506 0.95215 0.0
H77 H 0.20242 0.56695 0.95453 0.0
H78 H 0.93669 0.56692 0.10824 0.0
H79 H 0.92876 0.59508 0.10655 0.0
La80 La 1.04131 0.67682 0.51323 0.0
La81 La 0.05182 0.64166 0.51467 0.0
C82 C 0.05172 0.70572 0.52453 0.0
C83 C 0.12175 0.71983 0.53091 0.0
C84 C 0.16861 0.72748 0.47681 0.0
C85 C 0.21415 0.74222 0.48051 0.0
C86 C 0.21427 0.74975 0.53834 0.0
C87 C 0.17188 0.74197 0.59287 0.0
C88 C 0.12533 0.72721 0.58916 0.0
C89 C 1.01888 0.66306 0.40275 0.0
C90 C 0.28999 0.65997 0.51453 0.0
C91 C 0.06694 0.61384 0.47983 0.0
C92 C 0.04673 0.59756 0.49747 0.0
C93 C 0.07612 0.59151 0.55515 0.0
C94 C 0.07139 0.57564 0.56644 0.0
C95 C 1.03799 0.56553 0.52017 0.0
C96 C 1.00537 0.57165 0.46343 0.0
C97 C 1.00968 0.58747 0.45227 0.0
C98 C 1.0325 0.65187 0.63365 0.0
C99 C 0.80286 0.6594 0.52114 0.0
O100 O 0.06661 0.69827 0.47154 0.0
O101 O 1.02916 0.69648 0.57221 0.0
O102 O 0.96668 0.67552 0.42294 0.0
O103 O 0.08701 0.65895 0.44374 0.0
O104 O 0.22906 0.67296 0.52248 0.0
O105 O 0.23921 0.6468 0.50371 0.0
O106 O 0.14847 0.62107 0.50639 0.0
O107 O 0.97693 0.62276 0.47178 0.0
O108 O 1.03652 0.63762 0.61676 0.0
O109 O 1.03501 0.65952 0.58338 0.0
O110 O 0.86378 0.64668 0.50525 0.0
O111 O 0.85522 0.67223 0.5356 0.0
H112 H 0.1656 0.72236 0.43093 0.0
H113 H 0.24626 0.74795 0.43782 0.0
H114 H 0.17121 0.74754 0.63806 0.0
H115 H 0.08812 0.72183 0.63159 0.0
H116 H 0.10576 0.59898 0.59076 0.0
H117 H 0.09668 0.57119 0.61062 0.0
H118 H 0.97927 0.56412 0.42709 0.0
H119 H 0.98769 0.5918 0.40724 0.0
La120 La 1.02781 0.42045 0.5252 0.0
La121 La 1.03718 0.38725 0.5254 0.0
C122 C 1.04157 0.44916 0.53598 0.0
C123 C 0.05163 0.46615 0.53975 0.0
C124 C 0.09946 0.47445 0.48769 0.0
C125 C 0.09882 0.49052 0.48813 0.0
C126 C 0.05065 0.49872 0.54067 0.0
C127 C 1.00526 0.49048 0.59339 0.0
C128 C 1.0054 0.47436 0.59286 0.0
C129 C 1.01929 0.40796 0.41135 0.0
C130 C 0.27376 0.4036 0.5245 0.0
C131 C 1.02462 0.35886 0.50061 0.0
C132 C 0.95444 0.34472 0.50837 0.0
C133 C 0.89891 0.34031 0.56646 0.0
C134 C 0.84764 0.32581 0.57371 0.0
C135 C 0.85155 0.31546 0.52316 0.0
C136 C 0.90358 0.3201 0.4648 0.0
C137 C 0.95437 0.33455 0.45754 0.0
C138 C 0.05236 0.39908 0.63992 0.0
C139 C 0.78603 0.40437 0.52934 0.0
O140 O 0.09165 0.44134 0.48902 0.0
O141 O 0.98764 0.44065 0.57919 0.0
O142 O 0.96045 0.41977 0.43269 0.0
O143 O 0.08365 0.4036 0.45342 0.0
O144 O 0.20961 0.41545 0.54642 0.0
O145 O 0.22232 0.39171 0.50102 0.0
O146 O 0.06962 0.36435 0.54975 0.0
O147 O 0.98933 0.36976 0.46445 0.0
O148 O 0.10181 0.38661 0.61813 0.0
O149 O 0.98631 0.40399 0.59908 0.0
O150 O 0.84694 0.39134 0.52255 0.0
O151 O 0.83888 0.4175 0.53673 0.0
H152 H 0.13501 0.46853 0.4458 0.0
H153 H 0.13443 0.49659 0.44698 0.0
H154 H 0.9679 0.49655 0.63451 0.0
H155 H 0.96728 0.46835 0.63355 0.0
H156 H 0.898 0.34787 0.60659 0.0
H157 H 0.80775 0.3225 0.61914 0.0
H158 H 0.90766 0.31234 0.42518 0.0
H159 H 0.99737 0.33759 0.41245 0.0
La160 La 0.54268 0.92239 0.02007 0.0
La161 La 0.55108 0.88669 0.02473 0.0
C162 C 0.52698 0.94971 0.98134 0.0
C163 C 0.53809 0.96638 0.9928 0.0
C164 C 0.63492 0.97286 0.01832 0.0
C165 C 0.64079 0.98886 0.02611 0.0
C166 C 0.55035 0.99859 1.00819 0.0
C167 C 0.45404 0.99203 0.98294 0.0
C168 C 0.44803 0.97615 0.97543 0.0
C169 C 0.54676 0.91268 0.13956 0.0
C170 C 0.30328 0.90422 0.02614 0.0
C171 C 0.53632 0.85855 0.05349 0.0
C172 C 0.59915 0.8435 0.048 0.0
C173 C 0.66468 0.8388 0.99276 0.0
C174 C 0.7146 0.82397 0.98792 0.0
C175 C 0.69944 0.81357 0.03806 0.0
C176 C 0.63576 0.81838 0.09346 0.0
C177 C 0.58642 0.83318 0.09837 0.0
C178 C 0.58128 0.8992 0.90957 0.0
C179 C 0.78991 0.90437 0.02105 0.0
O180 O 0.62054 0.94101 0.97009 0.0
O181 O 0.44388 0.94267 0.01474 0.0
O182 O 0.54517 0.9269 0.12205 0.0
O183 O 0.54528 0.90507 0.08955 0.0
O184 O 0.35876 0.91704 0.01066 0.0
O185 O 0.36071 0.89145 0.03967 0.0
O186 O 0.49861 0.86451 1.00263 0.0
O187 O 0.57685 0.86899 0.08958 0.0
O188 O 0.62826 0.88644 0.92731 0.0
O189 O 0.51549 0.90395 0.95605 0.0
O190 O 0.73488 0.89139 0.03487 0.0
O191 O 0.73298 0.91718 1.00642 0.0
H192 H 0.70568 0.9656 0.03201 0.0
H193 H 0.71592 0.99367 0.04581 0.0
H194 H 0.38336 0.99925 0.96882 0.0
H195 H 0.37269 0.97147 0.95543 0.0
H196 H 0.67573 0.84648 0.95308 0.0
H197 H 0.76337 0.82051 0.94472 0.0
H198 H 0.62304 0.8106 0.13271 0.0
H199 H 0.53601 0.83647 0.14133 0.0
La200 La 0.54172 0.17646 0.02293 0.0
La201 La 0.54976 0.1424 0.02245 0.0
C202 C 0.55269 0.20499 1.00023 0.0
C203 C 0.48838 0.21996 1.0079 0.0
C204 C 0.45139 0.22611 0.06715 0.0
C205 C 0.40242 0.24098 0.07265 0.0
C206 C 0.3898 0.25002 0.01915 0.0
C207 C 0.42454 0.24377 0.96005 0.0
C208 C 0.4733 0.22894 0.95454 0.0
C209 C 0.50654 0.16363 0.13736 0.0
C210 C 0.30331 0.15891 0.02579 0.0
C211 C 0.5859 0.11431 0.04456 0.0
C212 C 0.55949 0.09777 0.03966 0.0
C213 C 0.53042 0.09099 0.98355 0.0
C214 C 0.52359 0.07496 0.97856 0.0
C215 C 0.54715 0.06543 0.02926 0.0
C216 C 0.57321 0.07228 0.08563 0.0
C217 C 0.57889 0.08825 0.09077 0.0
C218 C 0.52364 0.15486 0.90933 0.0
C219 C 0.79115 0.16004 0.02171 0.0
O220 O 0.59113 0.19848 0.04976 0.0
O221 O 0.51419 0.19491 0.96195 0.0
O222 O 0.45578 0.17599 0.11883 0.0
O223 O 0.57654 0.15931 0.09211 0.0
O224 O 0.36003 0.17133 1.00623 0.0
O225 O 0.36084 0.14665 0.04461 0.0
O226 O 0.62956 0.12145 0.9945 0.0
O227 O 0.51836 0.12322 0.08165 0.0
O228 O 0.47857 0.14218 0.9305 0.0
O229 O 0.58674 0.15964 0.9509 0.0
O230 O 0.73625 0.14686 0.02853 0.0
O231 O 0.7331 0.1731 0.01479 0.0
H232 H 0.46226 0.21957 0.10929 0.0
H233 H 0.37611 0.24554 0.11874 0.0
H234 H 0.41579 0.25049 0.91815 0.0
H235 H 0.50197 0.2246 0.90836 0.0
H236 H 0.51616 0.09804 0.94318 0.0
H237 H 0.503 0.06994 0.93464 0.0
H238 H 0.59166 0.06523 0.12535 0.0
H239 H 0.60284 0.09316 0.13427 0.0
La240 La 0.57301 0.17577 0.51944 0.0
La241 La 0.5765 0.14063 0.51746 0.0
C242 C 0.61209 0.2039 0.53009 0.0
C243 C 0.64124 0.22047 0.5334 0.0
C244 C 0.73365 0.22634 0.4937 0.0
C245 C 0.762 0.24188 0.49544 0.0
C246 C 0.69855 0.25198 0.5367 0.0
C247 C 0.6062 0.24622 0.57657 0.0
C248 C 0.57793 0.23059 0.57504 0.0
C249 C 0.54366 0.16315 0.4076 0.0
C250 C 0.81503 0.15755 0.52114 0.0
C251 C 0.5851 0.11298 0.48084 0.0
C252 C 0.55624 0.09678 0.49596 0.0
C253 C 0.561 0.09073 0.55664 0.0
C254 C 0.55131 0.07487 0.56714 0.0
C255 C 0.53771 0.06476 0.51713 0.0
C256 C 0.5292 0.07089 0.45703 0.0
C257 C 0.53827 0.08671 0.44664 0.0
C258 C 0.56045 0.15036 0.63773 0.0
C259 C 0.32988 0.15926 0.52681 0.0
O260 O 0.66201 0.19513 0.48583 0.0
O261 O 0.53786 0.19674 0.5695 0.0
O262 O 0.50018 0.17602 0.42854 0.0
O263 O 0.61127 0.15825 0.44762 0.0
O264 O 0.75235 0.16967 0.54175 0.0
O265 O 0.76307 0.1456 0.49834 0.0
O266 O 0.66391 0.11939 0.5125 0.0
O267 O 0.50128 0.12264 0.46878 0.0
O268 O 0.56563 0.13619 0.61981 0.0
O269 O 0.56471 0.15817 0.58792 0.0
O270 O 0.38844 0.1462 0.51329 0.0
O271 O 0.38452 0.17216 0.53886 0.0
H272 H 0.78462 0.2189 0.46113 0.0
H273 H 0.83363 0.24604 0.46439 0.0
H274 H 0.55624 0.25382 0.6089 0.0
H275 H 0.50633 0.22646 0.60615 0.0
H276 H 0.57576 0.0982 0.59549 0.0
H277 H 0.55778 0.07042 0.61393 0.0
H278 H 0.51861 0.06337 0.41776 0.0
H279 H 0.53559 0.09104 0.39936 0.0
La280 La 0.52348 0.91946 0.52306 0.0
La281 La 0.53686 0.88647 0.52733 0.0
C282 C 0.53424 0.94828 0.53221 0.0
C283 C 0.54226 0.96531 0.53622 0.0
C284 C 0.60498 0.97356 0.48842 0.0
C285 C 0.60477 0.98964 0.48894 0.0
C286 C 0.54172 0.99789 0.53717 0.0
C287 C 0.48083 0.9897 0.58568 0.0
C288 C 0.48103 0.97358 0.58521 0.0
C289 C 0.51477 0.90617 0.40997 0.0
C290 C 0.77189 0.90316 0.52353 0.0
C291 C 0.52837 0.85764 0.5097 0.0
C292 C 0.46192 0.84325 0.52247 0.0
C293 C 0.48627 0.83376 0.57317 0.0
C294 C 0.44031 0.81898 0.57912 0.0
C295 C 0.36936 0.81328 0.53441 0.0
C296 C 0.34151 0.82288 0.48494 0.0
C297 C 0.38758 0.83767 0.47888 0.0
C298 C 0.54951 0.8992 0.64035 0.0
C299 C 0.28357 0.90305 0.53023 0.0
O300 O 0.58639 0.94041 0.486 0.0
O301 O 0.4791 0.93979 0.57501 0.0
O302 O 0.4535 0.91784 0.43128 0.0
O303 O 0.58056 0.90234 0.45234 0.0
O304 O 0.7069 0.9151 0.54393 0.0
O305 O 0.72113 0.89103 0.50167 0.0
O306 O 0.57739 0.86403 0.55568 0.0
O307 O 0.48789 0.86791 0.47247 0.0
O308 O 0.60352 0.88694 0.61963 0.0
O309 O 0.48295 0.90353 0.59895 0.0
O310 O 0.34549 0.89008 0.52467 0.0
O311 O 0.33519 0.91633 0.53541 0.0
H312 H 0.65267 0.9676 0.44983 0.0
H313 H 0.65252 0.99568 0.45109 0.0
H314 H 0.43175 0.9958 0.62344 0.0
H315 H 0.43132 0.96761 0.62254 0.0
H316 H 0.54471 0.83751 0.60704 0.0
H317 H 0.46316 0.81178 0.61758 0.0
H318 H 0.28722 0.81872 0.44979 0.0
H319 H 0.36855 0.84451 0.43866 0.0
C320 C 0.48312 0.41525 0.05866 0.0
C321 C 0.42691 0.40433 0.0221 0.0
C322 C 0.62207 0.39359 0.98581 0.0
C323 C 0.67685 0.40353 0.0267 0.0
N324 N 0.65648 0.42233 0.10917 0.0
N325 N 0.44518 0.3823 0.95357 0.0
C326 C 0.60639 0.41401 0.06473 0.0
C327 C 0.49726 0.39321 0.98696 0.0
N328 N 0.41935 0.42694 0.08767 0.0
N329 N 0.68966 0.38516 0.94267 0.0
H330 H 0.3568 0.38253 0.94655 0.0
H331 H 0.48879 0.37258 0.93497 0.0
H332 H 0.78027 0.3853 0.93969 0.0
H333 H 0.65691 0.37912 0.90624 0.0
H334 H 0.45671 0.43633 0.10781 0.0
H335 H 0.32901 0.42791 0.08834 0.0
H336 H 0.60899 0.42872 0.14379 0.0
H337 H 0.74545 0.42181 0.11519 0.0
C338 C 0.47761 0.66305 0.9643 0.0
C339 C 0.40564 0.65984 0.01973 0.0
C340 C 0.58267 0.65772 0.07805 0.0
C341 C 0.65512 0.65983 0.02164 0.0
N342 N 0.67018 0.66157 0.90906 0.0
N343 N 0.38976 0.65255 0.1285 0.0
C344 C 0.60198 0.66181 0.9643 0.0
C345 C 0.45848 0.65663 0.07625 0.0
N346 N 0.42711 0.66727 0.91118 0.0
N347 N 0.6321 0.65752 0.13393 0.0
H348 H 0.29893 0.65252 0.1302 0.0
H349 H 0.42247 0.6483 0.16904 0.0
H350 H 0.72154 0.65852 0.13719 0.0
H351 H 0.58443 0.65766 0.17735 0.0
H352 H 0.47366 0.67166 0.87163 0.0
H353 H 0.33718 0.66735 0.90785 0.0
H354 H 0.63743 0.66131 0.86523 0.0
H355 H 0.76022 0.6601 0.90695 0.0
C356 C 0.5969 0.66058 0.57602 0.0
C357 C 0.67097 0.65954 0.51962 0.0
C358 C 0.49509 0.65791 0.46034 0.0
C359 C 0.42129 0.66019 0.51618 0.0
N360 N 0.40383 0.66635 0.62626 0.0
N361 N 0.68752 0.66076 0.40699 0.0
C362 C 0.47296 0.66238 0.5737 0.0
C363 C 0.61902 0.6591 0.4615 0.0
N364 N 0.64457 0.6592 0.63211 0.0
N365 N 0.44696 0.65472 0.40566 0.0
H366 H 0.77677 0.66238 0.40623 0.0
H367 H 0.65499 0.66214 0.36337 0.0
H368 H 0.35722 0.65473 0.40174 0.0
H369 H 0.49579 0.65108 0.36516 0.0
H370 H 0.59531 0.65829 0.67488 0.0
H371 H 0.73374 0.65748 0.63533 0.0
H372 H 0.43656 0.66967 0.66799 0.0
H373 H 0.31346 0.66753 0.62681 0.0
C374 C 0.59619 0.41428 0.48838 0.0
C375 C 0.65439 0.4042 0.5284 0.0
C376 C 0.46394 0.39262 0.56086 0.0
C377 C 0.40488 0.40378 0.5259 0.0
N378 N 0.41656 0.42697 0.4642 0.0
N379 N 0.63734 0.38591 0.61281 0.0
C380 C 0.47155 0.41519 0.49255 0.0
C381 C 0.58644 0.39389 0.56714 0.0
N382 N 0.65937 0.42234 0.44312 0.0
N383 N 0.40347 0.38076 0.58868 0.0
H384 H 0.72486 0.38699 0.62073 0.0
H385 H 0.5906 0.37952 0.64708 0.0
H386 H 0.31359 0.37975 0.58866 0.0
H387 H 0.44374 0.3713 0.60789 0.0
H388 H 0.62191 0.42845 0.40792 0.0
H389 H 0.74955 0.42154 0.43623 0.0
H390 H 0.45999 0.43661 0.4463 0.0
H391 H 0.32655 0.42777 0.46254 0.0
C392 C 0.99492 0.90723 0.96659 0.0
C393 C 0.92181 0.90441 0.02227 0.0
C394 C 0.09868 0.90223 0.08102 0.0
C395 C 0.17174 0.90411 0.02482 0.0
N396 N 0.18982 0.90677 0.91263 0.0
N397 N 0.90607 0.89728 0.1315 0.0
C398 C 0.11969 0.90629 0.96729 0.0
C399 C 0.97455 0.90126 0.07904 0.0
N400 N 0.94493 0.91063 0.9125 0.0
N401 N 0.14757 0.90227 0.13704 0.0
H402 H 0.81529 0.89741 0.13385 0.0
H403 H 0.93902 0.89292 0.17182 0.0
H404 H 0.2369 0.90335 0.14033 0.0
H405 H 0.09959 0.90267 0.18036 0.0
H406 H 0.99055 0.91486 0.87239 0.0
H407 H 0.85577 0.90979 0.90833 0.0
H408 H 0.15917 0.90654 0.86831 0.0
H409 H 0.28055 0.90632 0.91116 0.0
C410 C 0.11878 0.15962 0.96733 0.0
C411 C 0.17156 0.15876 0.02515 0.0
C412 C 0.97426 0.15762 0.08054 0.0
C413 C 0.92215 0.16002 0.02319 0.0
N414 N 0.94597 0.16517 0.91253 0.0
N415 N 0.14767 0.15939 0.13778 0.0
C416 C 0.995 0.16168 0.96686 0.0
C417 C 0.09858 0.15836 0.08204 0.0
N418 N 0.18644 0.15755 0.91256 0.0
N419 N 0.90497 0.15453 0.13378 0.0
H420 H 0.23731 0.16022 0.1406 0.0
H421 H 0.0996 0.16078 0.18076 0.0
H422 H 0.81419 0.15447 0.1352 0.0
H423 H 0.93734 0.15097 0.17546 0.0
H424 H 0.1532 0.15654 0.86903 0.0
H425 H 0.27546 0.15518 0.91144 0.0
H426 H 0.99435 0.16828 0.87142 0.0
H427 H 0.85606 0.16607 0.90964 0.0
C428 C 0.13087 0.14824 0.56267 0.0
C429 C 0.19732 0.15929 0.52694 0.0
C430 C 1.01249 0.16966 0.49001 0.0
C431 C 0.94739 0.15778 0.52158 0.0
N432 N 0.95195 0.13389 0.57856 0.0
N433 N 0.20013 0.1788 0.44705 0.0
C434 C 1.00893 0.14648 0.5548 0.0
C435 C 0.13751 0.16962 0.4885 0.0
N436 N 0.18288 0.13988 0.60693 0.0
N437 N 0.9553 0.18096 0.46003 0.0
H438 H 0.29043 0.17917 0.44373 0.0
H439 H 0.16359 0.18506 0.41199 0.0
H440 H 0.86705 0.18057 0.45283 0.0
H441 H 0.99441 0.19112 0.44469 0.0
H442 H 0.13697 0.1329 0.63943 0.0
H443 H 0.27003 0.14116 0.61571 0.0
H444 H 0.99466 0.12447 0.5966 0.0
H445 H 0.86329 0.13217 0.57569 0.0
C446 C 0.95444 0.90532 0.58319 0.0
C447 C 0.90317 0.9033 0.52542 0.0
C448 C 0.10104 0.89987 0.47201 0.0
C449 C 0.15232 0.90284 0.529 0.0
N450 N 0.1278 0.91031 0.63748 0.0
N451 N 0.92915 0.90112 0.41308 0.0
C452 C 0.07877 0.90621 0.58406 0.0
C453 C 0.97706 0.90112 0.46943 0.0
N454 N 0.88464 0.90556 0.63795 0.0
N455 N 0.17129 0.89595 0.41983 0.0
H456 H 0.83981 0.90228 0.40897 0.0
H457 H 0.97783 0.90129 0.36997 0.0
H458 H 0.26178 0.89623 0.41846 0.0
H459 H 0.14057 0.89164 0.37909 0.0
H460 H 0.91608 0.90531 0.68212 0.0
H461 H 0.79442 0.90464 0.63955 0.0
H462 H 0.08023 0.9148 0.67688 0.0
H463 H 0.21762 0.91014 0.64124 0.0
C464 C 0.14964 0.53902 0.06368 0.0
C465 C 0.06989 0.54763 0.02985 0.0
C466 C 0.98664 0.52364 0.99416 0.0
C467 C 0.07299 0.51505 0.02344 0.0
N468 N 0.24489 0.51445 0.08038 0.0
N469 N 0.92138 0.54835 0.95684 0.0
C470 C 0.15656 0.52272 0.05688 0.0
C471 C 0.99074 0.53998 0.99346 0.0
N472 N 0.21727 0.54644 0.10329 0.0
N473 N 0.89837 0.51615 0.9686 0.0
H474 H 0.91928 0.5603 0.95642 0.0
H475 H 0.87205 0.54352 0.92353 0.0
H476 H 0.8927 0.50424 0.9678 0.0
H477 H 0.82558 0.52168 0.95276 0.0
H478 H 0.26794 0.54083 0.13453 0.0
H479 H 0.21632 0.55833 0.10827 0.0
H480 H 0.31604 0.51939 0.09917 0.0
H481 H 0.25153 0.50254 0.07712 0.0
C482 C 0.93846 0.52388 0.5355 0.0
C483 C 0.04641 0.51593 0.53954 0.0
C484 C 0.14945 0.54044 0.52884 0.0
C485 C 1.04089 0.54848 0.52968 0.0
N486 N 0.83127 0.54806 0.54559 0.0
N487 N 0.25233 0.51689 0.55216 0.0
C488 C 0.93511 0.54024 0.53654 0.0
C489 C 0.15124 0.52431 0.53982 0.0
N490 N 0.83966 0.51582 0.52791 0.0
N491 N 0.25106 0.54808 0.5148 0.0
H492 H 0.25692 0.50514 0.56072 0.0
H493 H 0.32896 0.52256 0.55959 0.0
H494 H 0.25381 0.55983 0.50611 0.0
H495 H 0.33182 0.54258 0.50642 0.0
H496 H 0.76121 0.52095 0.51758 0.0
H497 H 0.83832 0.50388 0.52656 0.0
H498 H 0.75206 0.54276 0.55745 0.0
H499 H 0.82551 0.56 0.54687 0.0
C500 C 0.63217 1.02447 0.97552 0.0
C501 C 0.5545 1.01567 0.01555 0.0
C502 C 0.46387 0.03951 0.05929 0.0
C503 C 0.54825 0.04827 0.02338 0.0
N504 N 0.72733 0.04882 0.95644 0.0
N505 N 0.41133 1.01478 0.10404 0.0
C506 C 0.63656 0.04067 0.98399 0.0
C507 C 0.47467 1.02321 0.05995 0.0
N508 N 0.69889 1.01745 0.9278 0.0
N509 N 0.37075 0.04674 0.09102 0.0
H510 H 0.41789 1.00286 0.10645 0.0
H511 H 0.36087 1.01966 0.14169 0.0
H512 H 0.3587 0.05861 0.09085 0.0
H513 H 0.30002 0.04093 0.1126 0.0
H514 H 0.74705 1.02344 0.89278 0.0
H515 H 0.69851 1.00565 0.92002 0.0
H516 H 0.80062 0.04371 0.93284 0.0
H517 H 0.73479 0.06063 0.96198 0.0
C518 C 0.64104 0.03962 0.53842 0.0
C519 C 0.53668 0.04769 0.52659 0.0
C520 C 0.43635 1.02307 0.5196 0.0
C521 C 0.53827 1.0151 0.53589 0.0
N522 N 0.73055 1.016 0.57238 0.0
N523 N 0.32947 0.04726 0.51753 0.0
C524 C 0.63851 1.02346 0.54878 0.0
C525 C 0.43265 0.03944 0.52062 0.0
N526 N 0.74395 0.04728 0.53696 0.0
N527 N 0.34452 1.01501 0.50071 0.0
H528 H 0.32337 0.0592 0.51849 0.0
H529 H 0.24875 0.04197 0.51973 0.0
H530 H 0.3436 1.00307 0.49942 0.0
H531 H 0.27338 1.02013 0.48142 0.0
H532 H 0.8248 0.04181 0.53811 0.0
H533 H 0.75003 0.05905 0.52917 0.0
H534 H 0.80082 1.02163 0.58914 0.0
H535 H 0.73187 1.00421 0.58047 0.0
C536 C 0.18771 0.28522 1.00786 0.0
C537 C 0.25592 0.29696 0.03184 0.0
C538 C 0.41452 0.27813 0.04408 0.0
C539 C 0.34283 0.26619 0.02466 0.0
N540 N 0.15537 0.25793 0.99644 0.0
N541 N 0.42806 0.30441 0.08021 0.0
C542 C 0.2278 0.26964 0.00871 0.0
C543 C 0.36765 0.29334 0.05208 0.0
N544 N 0.08531 0.28902 0.98313 0.0
N545 N 0.52897 0.27505 0.0527 0.0
H546 H 0.39846 0.31574 0.08493 0.0
H547 H 0.50332 0.30219 0.10272 0.0
H548 H 0.56622 0.2641 0.04773 0.0
H549 H 0.58951 0.28346 0.05999 0.0
H550 H 1.03777 0.28137 0.95846 0.0
H551 H 0.05181 0.3002 0.9831 0.0
H552 H 0.0668 0.25944 0.99119 0.0
H553 H 0.18163 0.24644 0.99649 0.0
C554 C 0.85786 0.79383 0.05439 0.0
C555 C 0.74745 0.79748 0.03248 0.0
C556 C 0.72081 0.77021 1.00776 0.0
C557 C 0.83437 0.76673 0.0258 0.0
N558 N 1.01741 0.77536 0.05895 0.0
N559 N 0.57881 0.78963 0.98177 0.0
C560 C 0.90455 0.77859 0.04727 0.0
C561 C 0.68043 0.78578 1.00724 0.0
N562 N 0.91723 0.80492 0.08304 0.0
N563 N 0.65016 0.75852 0.99293 0.0
H564 H 0.54452 0.80077 0.98244 0.0
H565 H 0.53223 0.78207 0.95618 0.0
H566 H 0.67716 0.74705 0.9922 0.0
H567 H 0.56225 0.75997 0.98594 0.0
H568 H 0.99117 0.80273 0.1067 0.0
H569 H 0.88832 0.8163 0.08669 0.0
H570 H 0.07774 0.78367 0.06786 0.0
H571 H 0.05383 0.76434 0.05547 0.0
C572 C 0.17286 0.7782 0.5543 0.0
C573 C 0.25476 0.76602 0.54076 0.0
C574 C 0.40967 0.7849 0.51887 0.0
C575 C 0.32984 0.79698 0.53738 0.0
N576 N 0.1401 0.80496 0.58261 0.0
N577 N 0.4549 0.75765 0.52084 0.0
C578 C 0.21272 0.79356 0.55805 0.0
C579 C 0.37435 0.76936 0.5261 0.0
N580 N 0.05625 0.77519 0.5608 0.0
N581 N 0.51826 0.7883 0.49226 0.0
H582 H 0.43251 0.74616 0.52632 0.0
H583 H 0.54456 0.75935 0.51673 0.0
H584 H 0.54764 0.7995 0.48634 0.0
H585 H 0.57568 0.78014 0.47124 0.0
H586 H 0.99166 0.78371 0.56373 0.0
H587 H 1.02322 0.76418 0.55787 0.0
H588 H 0.0579 0.80297 0.6049 0.0
H589 H 0.16583 0.81634 0.58543 0.0
C590 C 0.70261 0.29528 0.50426 0.0
C591 C 0.80626 0.29947 0.53134 0.0
C592 C 0.82685 0.27311 0.57076 0.0
C593 C 0.73072 0.26857 0.53796 0.0
N594 N 0.58393 0.27485 0.46777 0.0
N595 N 0.97624 0.29193 0.58339 0.0
C596 C 0.6701 0.27955 0.50333 0.0
C597 C 0.87051 0.28828 0.56309 0.0
N598 N 0.63376 0.30642 0.48071 0.0
N599 N 0.87541 0.26297 0.61011 0.0
H600 H 1.01142 0.30285 0.5788 0.0
H601 H 1.03359 0.28388 0.60024 0.0
H602 H 0.8467 0.25174 0.61625 0.0
H603 H 0.93715 0.266 0.6406 0.0
H604 H 0.55128 0.30441 0.46611 0.0
H605 H 0.65487 0.318 0.48069 0.0
H606 H 0.54567 0.28188 0.43567 0.0
H607 H 0.55599 0.26354 0.46704 0.0
C608 C 0.9447 0.40193 0.24218 0.0
C609 C 0.05008 0.40609 0.20757 0.0
C610 C 0.14426 0.40866 0.30664 0.0
C611 C 1.03787 0.4049 0.3417 0.0
N612 N 0.84563 0.39445 0.34217 0.0
N613 N 0.25724 0.40878 0.20553 0.0
C614 C 0.94101 0.40039 0.30902 0.0
C615 C 0.15206 0.40795 0.23961 0.0
N616 N 0.84671 0.40007 0.21129 0.0
N617 N 0.23603 0.41382 0.33684 0.0
H618 H 0.2646 0.40764 0.15696 0.0
H619 H 0.33698 0.40882 0.22525 0.0
H620 H 0.23549 0.41428 0.38531 0.0
H621 H 0.31004 0.41861 0.31387 0.0
H622 H 0.76342 0.39898 0.23354 0.0
H623 H 0.84858 0.40023 0.16259 0.0
H624 H 0.77588 0.38965 0.32158 0.0
H625 H 0.84094 0.39308 0.39068 0.0
C626 C 0.09676 0.67058 0.22869 0.0
C627 C 1.01575 0.66107 0.20066 0.0
C628 C 0.96013 0.64974 0.30444 0.0
C629 C 1.03543 0.65993 0.33307 0.0
N630 N 0.19559 0.67729 0.32117 0.0
N631 N 0.8897 0.63937 0.20896 0.0
C632 C 0.11034 0.66945 0.29454 0.0
C633 C 0.95394 0.6499 0.23777 0.0
N634 N 0.1584 0.68105 0.19251 0.0
N635 N 0.8918 0.6402 0.34152 0.0
H636 H 0.88244 0.63939 0.1608 0.0
H637 H 0.85008 0.63001 0.23138 0.0
H638 H 0.89928 0.63934 0.3894 0.0
H639 H 0.82496 0.63368 0.32606 0.0
H640 H 0.20777 0.68966 0.21029 0.0
H641 H 0.15696 0.68153 0.14401 0.0
H642 H 0.26081 0.68335 0.29593 0.0
H643 H 0.20731 0.67668 0.36886 0.0
C644 C 0.96286 0.66888 0.79946 0.0
C645 C 1.0326 0.65893 0.83414 0.0
C646 C 0.1296 0.64925 0.73447 0.0
C647 C 0.04543 0.657 0.70025 0.0
N648 N 0.88712 0.67528 0.69961 0.0
N649 N 0.18659 0.63992 0.83448 0.0
C650 C 0.96495 0.66737 0.73252 0.0
C651 C 0.11836 0.64937 0.80145 0.0
N652 N 0.8954 0.67987 0.83074 0.0
N653 N 0.22278 0.64208 0.7025 0.0
H654 H 0.18725 0.64041 0.88302 0.0
H655 H 0.23881 0.63111 0.81422 0.0
H656 H 0.23532 0.64208 0.65373 0.0
H657 H 0.29382 0.63755 0.72379 0.0
H658 H 0.84961 0.68842 0.80889 0.0
H659 H 0.89267 0.68113 0.8792 0.0
H660 H 0.81616 0.6815 0.72012 0.0
H661 H 0.89175 0.67518 0.65095 0.0
C662 C 0.97707 0.39037 0.74806 0.0
C663 C 1.03623 0.4016 0.71005 0.0
C664 C 0.11256 0.41256 0.80526 0.0
C665 C 0.06281 0.40037 0.84227 0.0
N666 N 0.95173 0.37709 0.84763 0.0
N667 N 0.15273 0.42415 0.70191 0.0
C668 C 0.99499 0.38924 0.81333 0.0
C669 C 0.10036 0.41306 0.73886 0.0
N670 N 0.90183 0.38085 0.72144 0.0
N671 N 0.17414 0.42344 0.83365 0.0
H672 H 0.13805 0.42529 0.6548 0.0
H673 H 0.20996 0.43219 0.71692 0.0
H674 H 0.19196 0.42264 0.8804 0.0
H675 H 0.20599 0.43336 0.81211 0.0
H676 H 0.84507 0.37353 0.74668 0.0
H677 H 0.88879 0.38122 0.6739 0.0
H678 H 0.91579 0.36749 0.82837 0.0
H679 H 0.95695 0.37613 0.89569 0.0
C680 C 0.63879 0.91554 0.24202 0.0
C681 C 0.56032 0.9075 0.20622 0.0
C682 C 0.48362 0.89455 0.30357 0.0
C683 C 0.54616 0.90468 0.34013 0.0
N684 N 0.68704 0.92471 0.34364 0.0
N685 N 0.4114 0.88851 0.203 0.0
C686 C 0.626 0.91499 0.30904 0.0
C687 C 0.48534 0.89653 0.23691 0.0
N688 N 0.72856 0.92335 0.21158 0.0
N689 N 0.42345 0.88287 0.33276 0.0
H690 H 0.41506 0.88895 0.15442 0.0
H691 H 0.34338 0.88193 0.22283 0.0
H692 H 0.42086 0.88128 0.38095 0.0
H693 H 0.38486 0.87409 0.30935 0.0
H694 H 0.79602 0.92817 0.23407 0.0
H695 H 0.74278 0.92359 0.16288 0.0
H696 H 0.73393 0.93395 0.3247 0.0
H697 H 0.68671 0.92395 0.39217 0.0
C698 C 0.61964 0.16939 0.2323 0.0
C699 C 0.52929 0.16129 0.20539 0.0
C700 C 0.46125 0.15198 0.31095 0.0
C701 C 0.55224 0.1599 0.33791 0.0
N702 N 0.73298 0.17335 0.32195 0.0
N703 N 0.38341 0.14187 0.21734 0.0
C704 C 0.63646 0.16764 0.29762 0.0
C705 C 0.45632 0.15163 0.24428 0.0
N706 N 0.68658 0.1793 0.19604 0.0
N707 N 0.37644 0.14522 0.34929 0.0
H708 H 0.37903 0.14123 0.16901 0.0
H709 H 0.33587 0.13345 0.24204 0.0
H710 H 0.38047 0.14453 0.39752 0.0
H711 H 0.29954 0.14105 0.33379 0.0
H712 H 0.74413 0.18693 0.21389 0.0
H713 H 0.67963 0.18063 0.14816 0.0
H714 H 0.80383 0.17774 0.29475 0.0
H715 H 0.74712 0.17235 0.36921 0.0
C716 C 0.64389 0.14913 0.80653 0.0
C717 C 0.5492 0.15712 0.83951 0.0
C718 C 0.47148 0.16358 0.73805 0.0
C719 C 0.56532 0.1554 0.7052 0.0
N720 N 0.75851 0.14475 0.70761 0.0
N721 N 0.39388 0.17573 0.8353 0.0
C722 C 0.65696 0.14955 0.73951 0.0
C723 C 0.4698 0.16557 0.80469 0.0
N724 N 0.71948 0.14066 0.83902 0.0
N725 N 0.38061 0.16874 0.70631 0.0
H726 H 0.39298 0.17761 0.88339 0.0
H727 H 0.34043 0.18325 0.81253 0.0
H728 H 0.38025 0.16771 0.65794 0.0
H729 H 0.30306 0.17312 0.72823 0.0
H730 H 0.78118 0.13305 0.81775 0.0
H731 H 0.71631 0.14053 0.88776 0.0
H732 H 0.83318 0.1416 0.72915 0.0
H733 H 0.77165 0.14567 0.65909 0.0
C734 C 0.4703 0.89076 0.74859 0.0
C735 C 0.52995 0.90189 0.71008 0.0
C736 C 0.60826 0.91295 0.80412 0.0
C737 C 0.55325 0.90135 0.84225 0.0
N738 N 0.40902 0.88161 0.8533 0.0
N739 N 0.63214 0.92565 0.70246 0.0
C740 C 0.47694 0.89102 0.81513 0.0
C741 C 0.591 0.91369 0.73851 0.0
N742 N 0.40988 0.8796 0.72103 0.0
N743 N 0.6806 0.92291 0.83032 0.0
H744 H 0.61996 0.92638 0.65487 0.0
H745 H 0.66937 0.93536 0.72007 0.0
H746 H 0.69046 0.92305 0.87818 0.0
H747 H 0.73456 0.93052 0.80482 0.0
H748 H 0.37749 0.8699 0.74425 0.0
H749 H 0.39548 0.87979 0.67358 0.0
H750 H 0.34308 0.87489 0.83798 0.0
H751 H 0.41119 0.8815 0.90184 0.0
loop_
_geom_bond_atom_site_label_1
_geom_bond_atom_site_label_2
_geom_bond_distance
_geom_bond_site_symmetry_2
_ccdc_geom_bond_type
La0 C2 2.928 1_455 S
La0 O20 2.521 . S
La0 O21 2.628 1_454 S
La0 O22 2.554 . S
La0 O23 2.757 . S
La0 O24 2.470 1_455 S
La0 O29 2.482 1_554 S
La0 O31 2.503 . S
La1 C11 2.928 . S
La1 O23 2.482 . S
La1 O25 2.503 1_455 S
La1 O26 2.521 1_554 S
La1 O27 2.628 . S
La1 O28 2.554 1_554 S
La1 O29 2.757 1_554 S
La1 O30 2.470 1_554 S
C2 La0 2.928 1_655 S
C2 C3 1.503 . S
C2 O20 1.261 1_655 S
C2 O21 1.243 1_554 S
C3 C2 1.503 . S
C3 C4 1.394 . S
C3 C8 1.373 1_554 S
C4 C3 1.394 . S
C4 C5 1.380 . S
C4 H32 0.930 . S
C5 C4 1.380 . S
C5 C6 1.376 . S
C5 H33 0.930 . S
C6 C5 1.376 . S
C6 C7 1.370 1_554 S
C7 C6 1.370 1_556 S
C7 C8 1.396 . S
C7 H34 0.929 . S
C8 C3 1.373 1_556 S
C8 C7 1.396 . S
C8 H35 0.929 . S
C9 O22 1.240 . S
C9 O23 1.289 . S
C10 O24 1.258 . S
C10 O25 1.256 . S
C11 La1 2.928 . S
C11 C12 1.503 . S
C11 O26 1.261 1_554 S
C11 O27 1.243 . S
C12 C11 1.503 . S
C12 C13 1.394 1_554 S
C12 C17 1.373 . S
C13 C12 1.394 1_556 S
C13 C14 1.380 . S
C13 H36 0.930 . S
C14 C13 1.380 . S
C14 C15 1.376 1_556 S
C14 H37 0.930 . S
C15 C14 1.376 1_554 S
C15 C16 1.370 . S
C16 C15 1.370 . S
C16 C17 1.396 . S
C16 H38 0.929 . S
C17 C12 1.373 . S
C17 C16 1.396 . S
C17 H39 0.929 . S
C18 O28 1.240 . S
C18 O29 1.289 . S
C19 O30 1.258 1_554 S
C19 O31 1.256 . S
O20 La0 2.521 . S
O20 C2 1.261 1_455 S
O21 La0 2.628 1_656 S
O21 C2 1.243 1_556 S
O22 La0 2.554 . S
O22 C9 1.240 . S
O23 La0 2.757 . S
O23 La1 2.482 . S
O23 C9 1.289 . S
O24 La0 2.470 1_655 S
O24 C10 1.258 . S
O25 La1 2.503 1_655 S
O25 C10 1.256 . S
O26 La1 2.521 1_556 S
O26 C11 1.261 1_556 S
O27 La1 2.628 . S
O27 C11 1.243 . S
O28 La1 2.554 1_556 S
O28 C18 1.240 . S
O29 La0 2.482 1_556 S
O29 La1 2.757 1_556 S
O29 C18 1.289 . S
O30 La1 2.470 1_556 S
O30 C19 1.258 1_556 S
O31 La0 2.503 . S
O31 C19 1.256 . S
H32 C4 0.930 . S
H33 C5 0.930 . S
H34 C7 0.929 . S
H35 C8 0.929 . S
H36 C13 0.930 . S
H37 C14 0.930 . S
H38 C16 0.929 . S
H39 C17 0.929 . S
La40 C42 2.928 . S
La40 O60 2.521 . S
La40 O61 2.628 1_554 S
La40 O62 2.554 . S
La40 O63 2.757 . S
La40 O64 2.470 . S
La40 O69 2.482 1_554 S
La40 O71 2.503 1_655 S
La41 C51 2.928 1_655 S
La41 O63 2.482 . S
La41 O65 2.503 . S
La41 O66 2.521 1_554 S
La41 O67 2.628 1_655 S
La41 O68 2.554 1_554 S
La41 O69 2.757 1_554 S
La41 O70 2.470 1_654 S
C42 La40 2.928 . S
C42 C43 1.503 . S
C42 O60 1.261 . S
C42 O61 1.243 1_554 S
C43 C42 1.503 . S
C43 C44 1.394 . S
C43 C48 1.373 1_554 S
C44 C43 1.394 . S
C44 C45 1.380 . S
C44 H72 0.930 . S
C45 C44 1.380 . S
C45 C46 1.376 . S
C45 H73 0.930 . S
C46 C45 1.376 . S
C46 C47 1.370 1_554 S
C47 C46 1.370 1_556 S
C47 C48 1.396 . S
C47 H74 0.929 . S
C48 C43 1.373 1_556 S
C48 C47 1.396 . S
C48 H75 0.929 . S
C49 O62 1.240 . S
C49 O63 1.289 . S
C50 O64 1.258 . S
C50 O65 1.256 . S
C51 La41 2.928 1_455 S
C51 C52 1.503 . S
C51 O66 1.261 1_454 S
C51 O67 1.243 . S
C52 C51 1.503 . S
C52 C53 1.394 1_554 S
C52 C57 1.373 . S
C53 C52 1.394 1_556 S
C53 C54 1.380 . S
C53 H76 0.930 . S
C54 C53 1.380 . S
C54 C55 1.376 1_556 S
C54 H77 0.930 . S
C55 C54 1.376 1_554 S
C55 C56 1.370 . S
C56 C55 1.370 . S
C56 C57 1.396 . S
C56 H78 0.929 . S
C57 C52 1.373 . S
C57 C56 1.396 . S
C57 H79 0.929 . S
C58 O68 1.240 . S
C58 O69 1.289 . S
C59 O70 1.258 1_554 S
C59 O71 1.256 . S
O60 La40 2.521 . S
O60 C42 1.261 . S
O61 La40 2.628 1_556 S
O61 C42 1.243 1_556 S
O62 La40 2.554 . S
O62 C49 1.240 . S
O63 La40 2.757 . S
O63 La41 2.482 . S
O63 C49 1.289 . S
O64 La40 2.470 . S
O64 C50 1.258 . S
O65 La41 2.503 . S
O65 C50 1.256 . S
O66 La41 2.521 1_556 S
O66 C51 1.261 1_656 S
O67 La41 2.628 1_455 S
O67 C51 1.243 . S
O68 La41 2.554 1_556 S
O68 C58 1.240 . S
O69 La40 2.482 1_556 S
O69 La41 2.757 1_556 S
O69 C58 1.289 . S
O70 La41 2.470 1_456 S
O70 C59 1.258 1_556 S
O71 La40 2.503 1_455 S
O71 C59 1.256 . S
H72 C44 0.930 . S
H73 C45 0.930 . S
H74 C47 0.929 . S
H75 C48 0.929 . S
H76 C53 0.930 . S
H77 C54 0.930 . S
H78 C56 0.929 . S
H79 C57 0.929 . S
La80 C82 2.928 . S
La80 O100 2.521 . S
La80 O101 2.628 . S
La80 O102 2.554 . S
La80 O103 2.757 . S
La80 O104 2.470 . S
La80 O109 2.482 . S
La80 O111 2.503 1_455 S
La81 C91 2.928 1_455 S
La81 O103 2.482 . S
La81 O105 2.503 . S
La81 O106 2.521 . S
La81 O107 2.628 1_455 S
La81 O108 2.554 . S
La81 O109 2.757 . S
La81 O110 2.470 1_455 S
C82 La80 2.928 . S
C82 C83 1.503 . S
C82 O100 1.261 . S
C82 O101 1.243 . S
C83 C82 1.503 . S
C83 C84 1.394 . S
C83 C88 1.373 . S
C84 C83 1.394 . S
C84 C85 1.380 . S
C84 H112 0.930 . S
C85 C84 1.380 . S
C85 C86 1.376 . S
C85 H113 0.930 . S
C86 C85 1.376 . S
C86 C87 1.370 . S
C87 C86 1.370 . S
C87 C88 1.396 . S
C87 H114 0.929 . S
C88 C83 1.373 . S
C88 C87 1.396 . S
C88 H115 0.929 . S
C89 O102 1.240 . S
C89 O103 1.289 . S
C90 O104 1.258 . S
C90 O105 1.256 . S
C91 La81 2.928 1_655 S
C91 C92 1.503 . S
C91 O106 1.261 1_655 S
C91 O107 1.243 . S
C92 C91 1.503 . S
C92 C93 1.394 . S
C92 C97 1.373 . S
C93 C92 1.394 . S
C93 C94 1.380 . S
C93 H116 0.930 . S
C94 C93 1.380 . S
C94 C95 1.376 . S
C94 H117 0.930 . S
C95 C94 1.376 . S
C95 C96 1.370 . S
C96 C95 1.370 . S
C96 C97 1.396 . S
C96 H118 0.929 . S
C97 C92 1.373 . S
C97 C96 1.396 . S
C97 H119 0.929 . S
C98 O108 1.240 . S
C98 O109 1.289 . S
C99 O110 1.258 . S
C99 O111 1.256 . S
O100 La80 2.521 . S
O100 C82 1.261 . S
O101 La80 2.628 . S
O101 C82 1.243 . S
O102 La80 2.554 . S
O102 C89 1.240 . S
O103 La80 2.757 . S
O103 La81 2.482 . S
O103 C89 1.289 . S
O104 La80 2.470 . S
O104 C90 1.258 . S
O105 La81 2.503 . S
O105 C90 1.256 . S
O106 La81 2.521 . S
O106 C91 1.261 1_455 S
O107 La81 2.628 1_655 S
O107 C91 1.243 . S
O108 La81 2.554 . S
O108 C98 1.240 . S
O109 La80 2.482 . S
O109 La81 2.757 . S
O109 C98 1.289 . S
O110 La81 2.470 1_655 S
O110 C99 1.258 . S
O111 La80 2.503 1_655 S
O111 C99 1.256 . S
H112 C84 0.930 . S
H113 C85 0.930 . S
H114 C87 0.929 . S
H115 C88 0.929 . S
H116 C93 0.930 . S
H117 C94 0.930 . S
H118 C96 0.929 . S
H119 C97 0.929 . S
La120 C122 2.928 1_655 S
La120 O140 2.521 . S
La120 O141 2.628 1_655 S
La120 O142 2.554 . S
La120 O143 2.757 . S
La120 O144 2.470 1_655 S
La120 O149 2.482 . S
La120 O151 2.503 . S
La121 C131 2.928 . S
La121 O143 2.482 . S
La121 O145 2.503 1_655 S
La121 O146 2.521 . S
La121 O147 2.628 . S
La121 O148 2.554 . S
La121 O149 2.757 . S
La121 O150 2.470 . S
C122 La120 2.928 1_455 S
C122 C123 1.503 . S
C122 O140 1.261 1_455 S
C122 O141 1.243 . S
C123 C122 1.503 . S
C123 C124 1.394 . S
C123 C128 1.373 . S
C124 C123 1.394 . S
C124 C125 1.380 . S
C124 H152 0.930 . S
C125 C124 1.380 . S
C125 C126 1.376 . S
C125 H153 0.930 . S
C126 C125 1.376 . S
C126 C127 1.370 . S
C127 C126 1.370 . S
C127 C128 1.396 . S
C127 H154 0.929 . S
C128 C123 1.373 . S
C128 C127 1.396 . S
C128 H155 0.929 . S
C129 O142 1.240 . S
C129 O143 1.289 . S
C130 O144 1.258 . S
C130 O145 1.256 . S
C131 La121 2.928 . S
C131 C132 1.503 . S
C131 O146 1.261 . S
C131 O147 1.243 . S
C132 C131 1.503 . S
C132 C133 1.394 . S
C132 C137 1.373 . S
C133 C132 1.394 . S
C133 C134 1.380 . S
C133 H156 0.930 . S
C134 C133 1.380 . S
C134 C135 1.376 . S
C134 H157 0.930 . S
C135 C134 1.376 . S
C135 C136 1.370 . S
C136 C135 1.370 . S
C136 C137 1.396 . S
C136 H158 0.929 . S
C137 C132 1.373 . S
C137 C136 1.396 . S
C137 H159 0.929 . S
C138 O148 1.240 . S
C138 O149 1.289 . S
C139 O150 1.258 . S
C139 O151 1.256 . S
O140 La120 2.521 . S
O140 C122 1.261 1_655 S
O141 La120 2.628 1_455 S
O141 C122 1.243 . S
O142 La120 2.554 . S
O142 C129 1.240 . S
O143 La120 2.757 . S
O143 La121 2.482 . S
O143 C129 1.289 . S
O144 La120 2.470 1_455 S
O144 C130 1.258 . S
O145 La121 2.503 1_455 S
O145 C130 1.256 . S
O146 La121 2.521 . S
O146 C131 1.261 . S
O147 La121 2.628 . S
O147 C131 1.243 . S
O148 La121 2.554 . S
O148 C138 1.240 . S
O149 La120 2.482 . S
O149 La121 2.757 . S
O149 C138 1.289 . S
O150 La121 2.470 . S
O150 C139 1.258 . S
O151 La120 2.503 . S
O151 C139 1.256 . S
H152 C124 0.930 . S
H153 C125 0.930 . S
H154 C127 0.929 . S
H155 C128 0.929 . S
H156 C133 0.930 . S
H157 C134 0.930 . S
H158 C136 0.929 . S
H159 C137 0.929 . S
La160 C162 2.928 . S
La160 O180 2.521 . S
La160 O181 2.628 1_554 S
La160 O182 2.554 . S
La160 O183 2.757 . S
La160 O184 2.470 . S
La160 O189 2.482 1_554 S
La160 O191 2.503 . S
La161 C171 2.928 . S
La161 O183 2.482 . S
La161 O185 2.503 . S
La161 O186 2.521 1_554 S
La161 O187 2.628 . S
La161 O188 2.554 1_554 S
La161 O189 2.757 1_554 S
La161 O190 2.470 1_554 S
C162 La160 2.928 . S
C162 C163 1.503 . S
C162 O180 1.261 . S
C162 O181 1.243 1_554 S
C163 C162 1.503 . S
C163 C164 1.394 . S
C163 C168 1.373 1_554 S
C164 C163 1.394 . S
C164 C165 1.380 . S
C164 H192 0.930 . S
C165 C164 1.380 . S
C165 C166 1.376 . S
C165 H193 0.930 . S
C166 C165 1.376 . S
C166 C167 1.370 1_554 S
C167 C166 1.370 1_556 S
C167 C168 1.396 . S
C167 H194 0.929 . S
C168 C163 1.373 1_556 S
C168 C167 1.396 . S
C168 H195 0.929 . S
C169 O182 1.240 . S
C169 O183 1.289 . S
C170 O184 1.258 . S
C170 O185 1.256 . S
C171 La161 2.928 . S
C171 C172 1.503 . S
C171 O186 1.261 1_554 S
C171 O187 1.243 . S
C172 C171 1.503 . S
C172 C173 1.394 1_554 S
C172 C177 1.373 . S
C173 C172 1.394 1_556 S
C173 C174 1.380 . S
C173 H196 0.930 . S
C174 C173 1.380 . S
C174 C175 1.376 1_556 S
C174 H197 0.930 . S
C175 C174 1.376 1_554 S
C175 C176 1.370 . S
C176 C175 1.370 . S
C176 C177 1.396 . S
C176 H198 0.929 . S
C177 C172 1.373 . S
C177 C176 1.396 . S
C177 H199 0.929 . S
C178 O188 1.240 . S
C178 O189 1.289 . S
C179 O190 1.258 1_554 S
C179 O191 1.256 . S
O180 La160 2.521 . S
O180 C162 1.261 . S
O181 La160 2.628 1_556 S
O181 C162 1.243 1_556 S
O182 La160 2.554 . S
O182 C169 1.240 . S
O183 La160 2.757 . S
O183 La161 2.482 . S
O183 C169 1.289 . S
O184 La160 2.470 . S
O184 C170 1.258 . S
O185 La161 2.503 . S
O185 C170 1.256 . S
O186 La161 2.521 1_556 S
O186 C171 1.261 1_556 S
O187 La161 2.628 . S
O187 C171 1.243 . S
O188 La161 2.554 1_556 S
O188 C178 1.240 . S
O189 La160 2.482 1_556 S
O189 La161 2.757 1_556 S
O189 C178 1.289 . S
O190 La161 2.470 1_556 S
O190 C179 1.258 1_556 S
O191 La160 2.503 . S
O191 C179 1.256 . S
H192 C164 0.930 . S
H193 C165 0.930 . S
H194 C167 0.929 . S
H195 C168 0.929 . S
H196 C173 0.930 . S
H197 C174 0.930 . S
H198 C176 0.929 . S
H199 C177 0.929 . S
La200 C202 2.928 . S
La200 O220 2.521 . S
La200 O221 2.628 1_554 S
La200 O222 2.554 . S
La200 O223 2.757 . S
La200 O224 2.470 . S
La200 O229 2.482 1_554 S
La200 O231 2.503 . S
La201 C211 2.928 . S
La201 O223 2.482 . S
La201 O225 2.503 . S
La201 O226 2.521 1_554 S
La201 O227 2.628 . S
La201 O228 2.554 1_554 S
La201 O229 2.757 1_554 S
La201 O230 2.470 1_554 S
C202 La200 2.928 . S
C202 C203 1.503 . S
C202 O220 1.261 . S
C202 O221 1.243 1_554 S
C203 C202 1.503 . S
C203 C204 1.394 . S
C203 C208 1.373 1_554 S
C204 C203 1.394 . S
C204 C205 1.380 . S
C204 H232 0.930 . S
C205 C204 1.380 . S
C205 C206 1.376 . S
C205 H233 0.930 . S
C206 C205 1.376 . S
C206 C207 1.370 1_554 S
C207 C206 1.370 1_556 S
C207 C208 1.396 . S
C207 H234 0.929 . S
C208 C203 1.373 1_556 S
C208 C207 1.396 . S
C208 H235 0.929 . S
C209 O222 1.240 . S
C209 O223 1.289 . S
C210 O224 1.258 . S
C210 O225 1.256 . S
C211 La201 2.928 . S
C211 C212 1.503 . S
C211 O226 1.261 1_554 S
C211 O227 1.243 . S
C212 C211 1.503 . S
C212 C213 1.394 1_554 S
C212 C217 1.373 . S
C213 C212 1.394 1_556 S
C213 C214 1.380 . S
C213 H236 0.930 . S
C214 C213 1.380 . S
C214 C215 1.376 1_556 S
C214 H237 0.930 . S
C215 C214 1.376 1_554 S
C215 C216 1.370 . S
C216 C215 1.370 . S
C216 C217 1.396 . S
C216 H238 0.929 . S
C217 C212 1.373 . S
C217 C216 1.396 . S
C217 H239 0.929 . S
C218 O228 1.240 . S
C218 O229 1.289 . S
C219 O230 1.258 1_554 S
C219 O231 1.256 . S
O220 La200 2.521 . S
O220 C202 1.261 . S
O221 La200 2.628 1_556 S
O221 C202 1.243 1_556 S
O222 La200 2.554 . S
O222 C209 1.240 . S
O223 La200 2.757 . S
O223 La201 2.482 . S
O223 C209 1.289 . S
O224 La200 2.470 . S
O224 C210 1.258 . S
O225 La201 2.503 . S
O225 C210 1.256 . S
O226 La201 2.521 1_556 S
O226 C211 1.261 1_556 S
O227 La201 2.628 . S
O227 C211 1.243 . S
O228 La201 2.554 1_556 S
O228 C218 1.240 . S
O229 La200 2.482 1_556 S
O229 La201 2.757 1_556 S
O229 C218 1.289 . S
O230 La201 2.470 1_556 S
O230 C219 1.258 1_556 S
O231 La200 2.503 . S
O231 C219 1.256 . S
H232 C204 0.930 . S
H233 C205 0.930 . S
H234 C207 0.929 . S
H235 C208 0.929 . S
H236 C213 0.930 . S
H237 C214 0.930 . S
H238 C216 0.929 . S
H239 C217 0.929 . S
La240 C242 2.928 . S
La240 O260 2.521 . S
La240 O261 2.628 . S
La240 O262 2.554 . S
La240 O263 2.757 . S
La240 O264 2.470 . S
La240 O269 2.482 . S
La240 O271 2.503 . S
La241 C251 2.928 . S
La241 O263 2.482 . S
La241 O265 2.503 . S
La241 O266 2.521 . S
La241 O267 2.628 . S
La241 O268 2.554 . S
La241 O269 2.757 . S
La241 O270 2.470 . S
C242 La240 2.928 . S
C242 C243 1.503 . S
C242 O260 1.261 . S
C242 O261 1.243 . S
C243 C242 1.503 . S
C243 C244 1.394 . S
C243 C248 1.373 . S
C244 C243 1.394 . S
C244 C245 1.380 . S
C244 H272 0.930 . S
C245 C244 1.380 . S
C245 C246 1.376 . S
C245 H273 0.930 . S
C246 C245 1.376 . S
C246 C247 1.370 . S
C247 C246 1.370 . S
C247 C248 1.396 . S
C247 H274 0.929 . S
C248 C243 1.373 . S
C248 C247 1.396 . S
C248 H275 0.929 . S
C249 O262 1.240 . S
C249 O263 1.289 . S
C250 O264 1.258 . S
C250 O265 1.256 . S
C251 La241 2.928 . S
C251 C252 1.503 . S
C251 O266 1.261 . S
C251 O267 1.243 . S
C252 C251 1.503 . S
C252 C253 1.394 . S
C252 C257 1.373 . S
C253 C252 1.394 . S
C253 C254 1.380 . S
C253 H276 0.930 . S
C254 C253 1.380 . S
C254 C255 1.376 . S
C254 H277 0.930 . S
C255 C254 1.376 . S
C255 C256 1.370 . S
C256 C255 1.370 . S
C256 C257 1.396 . S
C256 H278 0.929 . S
C257 C252 1.373 . S
C257 C256 1.396 . S
C257 H279 0.929 . S
C258 O268 1.240 . S
C258 O269 1.289 . S
C259 O270 1.258 . S
C259 O271 1.256 . S
O260 La240 2.521 . S
O260 C242 1.261 . S
O261 La240 2.628 . S
O261 C242 1.243 . S
O262 La240 2.554 . S
O262 C249 1.240 . S
O263 La240 2.757 . S
O263 La241 2.482 . S
O263 C249 1.289 . S
O264 La240 2.470 . S
O264 C250 1.258 . S
O265 La241 2.503 . S
O265 C250 1.256 . S
O266 La241 2.521 . S
O266 C251 1.261 . S
O267 La241 2.628 . S
O267 C251 1.243 . S
O268 La241 2.554 . S
O268 C258 1.240 . S
O269 La240 2.482 . S
O269 La241 2.757 . S
O269 C258 1.289 . S
O270 La241 2.470 . S
O270 C259 1.258 . S
O271 La240 2.503 . S
O271 C259 1.256 . S
H272 C244 0.930 . S
H273 C245 0.930 . S
H274 C247 0.929 . S
H275 C248 0.929 . S
H276 C253 0.930 . S
H277 C254 0.930 . S
H278 C256 0.929 . S
H279 C257 0.929 . S
La280 C282 2.928 . S
La280 O300 2.521 . S
La280 O301 2.628 . S
La280 O302 2.554 . S
La280 O303 2.757 . S
La280 O304 2.470 . S
La280 O309 2.482 . S
La280 O311 2.503 . S
La281 C291 2.928 . S
La281 O303 2.482 . S
La281 O305 2.503 . S
La281 O306 2.521 . S
La281 O307 2.628 . S
La281 O308 2.554 . S
La281 O309 2.757 . S
La281 O310 2.470 . S
C282 La280 2.928 . S
C282 C283 1.503 . S
C282 O300 1.261 . S
C282 O301 1.243 . S
C283 C282 1.503 . S
C283 C284 1.394 . S
C283 C288 1.373 . S
C284 C283 1.394 . S
C284 C285 1.380 . S
C284 H312 0.930 . S
C285 C284 1.380 . S
C285 C286 1.376 . S
C285 H313 0.930 . S
C286 C285 1.376 . S
C286 C287 1.370 . S
C287 C286 1.370 . S
C287 C288 1.396 . S
C287 H314 0.929 . S
C288 C283 1.373 . S
C288 C287 1.396 . S
C288 H315 0.929 . S
C289 O302 1.240 . S
C289 O303 1.289 . S
C290 O304 1.258 . S
C290 O305 1.256 . S
C291 La281 2.928 . S
C291 C292 1.503 . S
C291 O306 1.261 . S
C291 O307 1.243 . S
C292 C291 1.503 . S
C292 C293 1.394 . S
C292 C297 1.373 . S
C293 C292 1.394 . S
C293 C294 1.380 . S
C293 H316 0.930 . S
C294 C293 1.380 . S
C294 C295 1.376 . S
C294 H317 0.930 . S
C295 C294 1.376 . S
C295 C296 1.370 . S
C296 C295 1.370 . S
C296 C297 1.396 . S
C296 H318 0.929 . S
C297 C292 1.373 . S
C297 C296 1.396 . S
C297 H319 0.929 . S
C298 O308 1.240 . S
C298 O309 1.289 . S
C299 O310 1.258 . S
C299 O311 1.256 . S
O300 La280 2.521 . S
O300 C282 1.261 . S
O301 La280 2.628 . S
O301 C282 1.243 . S
O302 La280 2.554 . S
O302 C289 1.240 . S
O303 La280 2.757 . S
O303 La281 2.482 . S
O303 C289 1.289 . S
O304 La280 2.470 . S
O304 C290 1.258 . S
O305 La281 2.503 . S
O305 C290 1.256 . S
O306 La281 2.521 . S
O306 C291 1.261 . S
O307 La281 2.628 . S
O307 C291 1.243 . S
O308 La281 2.554 . S
O308 C298 1.240 . S
O309 La280 2.482 . S
O309 La281 2.757 . S
O309 C298 1.289 . S
O310 La281 2.470 . S
O310 C299 1.258 . S
O311 La280 2.503 . S
O311 C299 1.256 . S
H312 C284 0.930 . S
H313 C285 0.930 . S
H314 C287 0.929 . S
H315 C288 0.929 . S
H316 C293 0.930 . S
H317 C294 0.930 . S
H318 C296 0.929 . S
H319 C297 0.929 . S
C320 C321 1.363 . S
C320 C326 1.379 . S
C320 N328 1.356 . S
C321 C320 1.363 . S
C321 C327 1.363 1_554 S
C322 C323 1.363 1_556 S
C322 C327 1.379 . S
C322 N329 1.356 . S
C323 C322 1.363 1_554 S
C323 C326 1.363 . S
N324 C326 1.356 . S
N324 H336 0.984 . S
N324 H337 0.985 . S
N325 C327 1.356 . S
N325 H330 0.984 . S
N325 H331 0.985 . S
C326 C320 1.379 . S
C326 C323 1.363 . S
C326 N324 1.356 . S
C327 C321 1.363 1_556 S
C327 C322 1.379 . S
C327 N325 1.356 . S
N328 C320 1.356 . S
N328 H334 0.984 . S
N328 H335 0.984 . S
N329 C322 1.356 . S
N329 H332 0.984 . S
N329 H333 0.985 . S
H330 N325 0.984 . S
H331 N325 0.985 . S
H332 N329 0.984 . S
H333 N329 0.985 . S
H334 N328 0.984 . S
H335 N328 0.984 . S
H336 N324 0.984 . S
H337 N324 0.985 . S
C338 C339 1.363 1_556 S
C338 C344 1.379 . S
C338 N346 1.356 . S
C339 C338 1.363 1_554 S
C339 C345 1.363 . S
C340 C341 1.363 . S
C340 C345 1.379 . S
C340 N347 1.356 . S
C341 C340 1.363 . S
C341 C344 1.363 1_554 S
N342 C344 1.356 . S
N342 H354 0.984 . S
N342 H355 0.985 . S
N343 C345 1.356 . S
N343 H348 0.984 . S
N343 H349 0.985 . S
C344 C338 1.379 . S
C344 C341 1.363 1_556 S
C344 N342 1.356 . S
C345 C339 1.363 . S
C345 C340 1.379 . S
C345 N343 1.356 . S
N346 C338 1.356 . S
N346 H352 0.984 . S
N346 H353 0.984 . S
N347 C340 1.356 . S
N347 H350 0.984 . S
N347 H351 0.985 . S
H348 N343 0.984 . S
H349 N343 0.985 . S
H350 N347 0.984 . S
H351 N347 0.985 . S
H352 N346 0.984 . S
H353 N346 0.984 . S
H354 N342 0.984 . S
H355 N342 0.985 . S
C356 C357 1.363 . S
C356 C362 1.379 . S
C356 N364 1.356 . S
C357 C356 1.363 . S
C357 C363 1.363 . S
C358 C359 1.363 . S
C358 C363 1.379 . S
C358 N365 1.356 . S
C359 C358 1.363 . S
C359 C362 1.363 . S
N360 C362 1.356 . S
N360 H372 0.984 . S
N360 H373 0.985 . S
N361 C363 1.356 . S
N361 H366 0.984 . S
N361 H367 0.985 . S
C362 C356 1.379 . S
C362 C359 1.363 . S
C362 N360 1.356 . S
C363 C357 1.363 . S
C363 C358 1.379 . S
C363 N361 1.356 . S
N364 C356 1.356 . S
N364 H370 0.984 . S
N364 H371 0.984 . S
N365 C358 1.356 . S
N365 H368 0.984 . S
N365 H369 0.985 . S
H366 N361 0.984 . S
H367 N361 0.985 . S
H368 N365 0.984 . S
H369 N365 0.985 . S
H370 N364 0.984 . S
H371 N364 0.984 . S
H372 N360 0.984 . S
H373 N360 0.985 . S
C374 C375 1.363 . S
C374 C380 1.379 . S
C374 N382 1.356 . S
C375 C374 1.363 . S
C375 C381 1.363 . S
C376 C377 1.363 . S
C376 C381 1.379 . S
C376 N383 1.356 . S
C377 C376 1.363 . S
C377 C380 1.363 . S
N378 C380 1.356 . S
N378 H390 0.984 . S
N378 H391 0.985 . S
N379 C381 1.356 . S
N379 H384 0.984 . S
N379 H385 0.985 . S
C380 C374 1.379 . S
C380 C377 1.363 . S
C380 N378 1.356 . S
C381 C375 1.363 . S
C381 C376 1.379 . S
C381 N379 1.356 . S
N382 C374 1.356 . S
N382 H388 0.984 . S
N382 H389 0.984 . S
N383 C376 1.356 . S
N383 H386 0.984 . S
N383 H387 0.985 . S
H384 N379 0.984 . S
H385 N379 0.985 . S
H386 N383 0.984 . S
H387 N383 0.985 . S
H388 N382 0.984 . S
H389 N382 0.984 . S
H390 N378 0.984 . S
H391 N378 0.985 . S
C392 C393 1.363 1_456 S
C392 C398 1.379 . S
C392 N400 1.356 1_455 S
C393 C392 1.363 1_654 S
C393 C399 1.363 . S
C394 C395 1.363 . S
C394 C399 1.379 1_455 S
C394 N401 1.356 . S
C395 C394 1.363 . S
C395 C398 1.363 1_554 S
N396 C398 1.356 . S
N396 H408 0.984 . S
N396 H409 0.985 . S
N397 C399 1.356 . S
N397 H402 0.984 . S
N397 H403 0.985 . S
C398 C392 1.379 . S
C398 C395 1.363 1_556 S
C398 N396 1.356 . S
C399 C393 1.363 . S
C399 C394 1.379 1_655 S
C399 N397 1.356 . S
N400 C392 1.356 1_655 S
N400 H406 0.984 1_655 S
N400 H407 0.984 . S
N401 C394 1.356 . S
N401 H404 0.984 . S
N401 H405 0.985 . S
H402 N397 0.984 . S
H403 N397 0.985 . S
H404 N401 0.984 . S
H405 N401 0.985 . S
H406 N400 0.984 1_455 S
H407 N400 0.984 . S
H408 N396 0.984 . S
H409 N396 0.985 . S
C410 C411 1.363 1_656 S
C410 C416 1.379 . S
C410 N418 1.356 1_655 S
C411 C410 1.363 1_454 S
C411 C417 1.363 . S
C412 C413 1.363 . S
C412 C417 1.379 1_655 S
C412 N419 1.356 . S
C413 C412 1.363 . S
C413 C416 1.363 1_554 S
N414 C416 1.356 . S
N414 H426 0.984 . S
N414 H427 0.985 . S
N415 C417 1.356 . S
N415 H420 0.984 . S
N415 H421 0.985 . S
C416 C410 1.379 . S
C416 C413 1.363 1_556 S
C416 N414 1.356 . S
C417 C411 1.363 . S
C417 C412 1.379 1_455 S
C417 N415 1.356 . S
N418 C410 1.356 1_455 S
N418 H424 0.984 . S
N418 H425 0.984 . S
N419 C412 1.356 . S
N419 H422 0.984 . S
N419 H423 0.985 . S
H420 N415 0.984 . S
H421 N415 0.985 . S
H422 N419 0.984 . S
H423 N419 0.985 . S
H424 N418 0.984 . S
H425 N418 0.984 . S
H426 N414 0.984 . S
H427 N414 0.985 . S
C428 C429 1.363 . S
C428 C434 1.379 1_455 S
C428 N436 1.356 . S
C429 C428 1.363 . S
C429 C435 1.363 . S
C430 C431 1.363 1_455 S
C430 C435 1.379 . S
C430 N437 1.356 1_455 S
C431 C430 1.363 1_655 S
C431 C434 1.363 . S
N432 C434 1.356 . S
N432 H444 0.984 . S
N432 H445 0.985 . S
N433 C435 1.356 . S
N433 H438 0.984 . S
N433 H439 0.985 . S
C434 C428 1.379 1_655 S
C434 C431 1.363 . S
C434 N432 1.356 . S
C435 C429 1.363 . S
C435 C430 1.379 . S
C435 N433 1.356 . S
N436 C428 1.356 . S
N436 H442 0.984 . S
N436 H443 0.984 . S
N437 C430 1.356 1_655 S
N437 H440 0.984 . S
N437 H441 0.985 1_655 S
H438 N433 0.984 . S
H439 N433 0.985 . S
H440 N437 0.984 . S
H441 N437 0.985 1_455 S
H442 N436 0.984 . S
H443 N436 0.984 . S
H444 N432 0.984 . S
H445 N432 0.985 . S
C446 C447 1.363 . S
C446 C452 1.379 1_655 S
C446 N454 1.356 . S
C447 C446 1.363 . S
C447 C453 1.363 . S
C448 C449 1.363 1_655 S
C448 C453 1.379 . S
C448 N455 1.356 1_655 S
C449 C448 1.363 1_455 S
C449 C452 1.363 . S
N450 C452 1.356 . S
N450 H462 0.984 . S
N450 H463 0.985 . S
N451 C453 1.356 . S
N451 H456 0.984 . S
N451 H457 0.985 . S
C452 C446 1.379 1_455 S
C452 C449 1.363 . S
C452 N450 1.356 . S
C453 C447 1.363 . S
C453 C448 1.379 . S
C453 N451 1.356 . S
N454 C446 1.356 . S
N454 H460 0.984 . S
N454 H461 0.984 . S
N455 C448 1.356 1_455 S
N455 H458 0.984 . S
N455 H459 0.985 . S
H456 N451 0.984 . S
H457 N451 0.985 . S
H458 N455 0.984 . S
H459 N455 0.985 . S
H460 N454 0.984 . S
H461 N454 0.984 . S
H462 N450 0.984 . S
H463 N450 0.985 . S
C464 C465 1.363 . S
C464 C470 1.379 1_455 S
C464 N472 1.356 . S
C465 C464 1.363 . S
C465 C471 1.363 1_554 S
C466 C467 1.363 1_556 S
C466 C471 1.379 1_655 S
C466 N473 1.356 . S
C467 C466 1.363 1_554 S
C467 C470 1.363 . S
N468 C470 1.356 . S
N468 H480 0.984 1_655 S
N468 H481 0.985 . S
N469 C471 1.356 . S
N469 H474 0.984 . S
N469 H475 0.985 1_455 S
C470 C464 1.379 1_655 S
C470 C467 1.363 . S
C470 N468 1.356 . S
C471 C465 1.363 1_556 S
C471 C466 1.379 1_455 S
C471 N469 1.356 . S
N472 C464 1.356 . S
N472 H478 0.984 . S
N472 H479 0.984 . S
N473 C466 1.356 . S
N473 H476 0.984 . S
N473 H477 0.985 . S
H474 N469 0.984 . S
H475 N469 0.985 1_655 S
H476 N473 0.984 . S
H477 N473 0.985 . S
H478 N472 0.984 . S
H479 N472 0.984 . S
H480 N468 0.984 1_455 S
H481 N468 0.985 . S
C482 C483 1.363 1_655 S
C482 C488 1.379 . S
C482 N490 1.356 . S
C483 C482 1.363 1_455 S
C483 C489 1.363 . S
C484 C485 1.363 1_455 S
C484 C489 1.379 . S
C484 N491 1.356 . S
C485 C484 1.363 1_655 S
C485 C488 1.363 . S
N486 C488 1.356 . S
N486 H498 0.984 . S
N486 H499 0.985 . S
N487 C489 1.356 . S
N487 H492 0.984 . S
N487 H493 0.985 . S
C488 C482 1.379 . S
C488 C485 1.363 . S
C488 N486 1.356 . S
C489 C483 1.363 . S
C489 C484 1.379 . S
C489 N487 1.356 . S
N490 C482 1.356 . S
N490 H496 0.984 . S
N490 H497 0.984 1_655 S
N491 C484 1.356 . S
N491 H494 0.984 1_455 S
N491 H495 0.985 . S
H492 N487 0.984 . S
H493 N487 0.985 . S
H494 N491 0.984 1_655 S
H495 N491 0.985 . S
H496 N490 0.984 . S
H497 N490 0.984 1_455 S
H498 N486 0.984 . S
H499 N486 0.985 . S
C500 C501 1.363 1_556 S
C500 C506 1.379 1_565 S
C500 N508 1.356 . S
C501 C500 1.363 1_554 S
C501 C507 1.363 . S
C502 C503 1.363 . S
C502 C507 1.379 1_545 S
C502 N509 1.356 . S
C503 C502 1.363 . S
C503 C506 1.363 1_554 S
N504 C506 1.356 . S
N504 H516 0.984 . S
N504 H517 0.985 . S
N505 C507 1.356 . S
N505 H510 0.984 . S
N505 H511 0.985 . S
C506 C500 1.379 1_545 S
C506 C503 1.363 1_556 S
C506 N504 1.356 . S
C507 C501 1.363 . S
C507 C502 1.379 1_565 S
C507 N505 1.356 . S
N508 C500 1.356 . S
N508 H514 0.984 . S
N508 H515 0.984 . S
N509 C502 1.356 . S
N509 H512 0.984 . S
N509 H513 0.985 . S
H510 N505 0.984 . S
H511 N505 0.985 . S
H512 N509 0.984 . S
H513 N509 0.985 . S
H514 N508 0.984 . S
H515 N508 0.984 . S
H516 N504 0.984 . S
H517 N504 0.985 . S
C518 C519 1.363 . S
C518 C524 1.379 . S
C518 N526 1.356 . S
C519 C518 1.363 . S
C519 C525 1.363 1_545 S
C520 C521 1.363 . S
C520 C525 1.379 . S
C520 N527 1.356 . S
C521 C520 1.363 . S
C521 C524 1.363 1_565 S
N522 C524 1.352 1_565 S
N522 H534 0.964 1_565 S
N522 H535 1.010 . S
N523 C525 1.352 1_545 S
N523 H528 1.010 . S
N523 H529 0.964 1_545 S
C524 C518 1.379 . S
C524 C521 1.363 1_545 S
C524 N522 1.352 1_545 S
C525 C519 1.363 1_565 S
C525 C520 1.379 . S
C525 N523 1.352 1_565 S
N526 C518 1.356 . S
N526 H532 0.984 . S
N526 H533 0.984 . S
N527 C520 1.356 . S
N527 H530 0.984 . S
N527 H531 0.985 . S
H528 N523 1.010 . S
H529 N523 0.964 1_565 S
H530 N527 0.984 . S
H531 N527 0.985 . S
H532 N526 0.984 . S
H533 N526 0.984 . S
H534 N522 0.964 1_545 S
H535 N522 1.010 . S
C536 C537 1.363 1_556 S
C536 C542 1.379 . S
C536 N544 1.356 . S
C537 C536 1.363 1_554 S
C537 C543 1.363 . S
C538 C539 1.363 . S
C538 C543 1.379 . S
C538 N545 1.356 . S
C539 C538 1.363 . S
C539 C542 1.363 1_554 S
N540 C542 1.356 . S
N540 H552 0.984 . S
N540 H553 0.985 . S
N541 C543 1.356 . S
N541 H546 0.984 . S
N541 H547 0.985 . S
C542 C536 1.379 . S
C542 C539 1.363 1_556 S
C542 N540 1.356 . S
C543 C537 1.363 . S
C543 C538 1.379 . S
C543 N541 1.356 . S
N544 C536 1.356 . S
N544 H550 0.984 . S
N544 H551 0.984 . S
N545 C538 1.356 . S
N545 H548 0.984 . S
N545 H549 0.985 . S
H546 N541 0.984 . S
H547 N541 0.985 . S
H548 N545 0.984 . S
H549 N545 0.985 . S
H550 N544 0.984 . S
H551 N544 0.984 . S
H552 N540 0.984 . S
H553 N540 0.985 . S
C554 C555 1.363 . S
C554 C560 1.379 . S
C554 N562 1.356 . S
C555 C554 1.363 . S
C555 C561 1.363 1_554 S
C556 C557 1.363 1_556 S
C556 C561 1.379 . S
C556 N563 1.356 . S
C557 C556 1.363 1_554 S
C557 C560 1.363 . S
N558 C560 1.356 . S
N558 H570 0.984 . S
N558 H571 0.985 . S
N559 C561 1.356 . S
N559 H564 0.984 . S
N559 H565 0.985 . S
C560 C554 1.379 . S
C560 C557 1.363 . S
C560 N558 1.356 . S
C561 C555 1.363 1_556 S
C561 C556 1.379 . S
C561 N559 1.356 . S
N562 C554 1.356 . S
N562 H568 0.984 . S
N562 H569 0.984 . S
N563 C556 1.356 . S
N563 H566 0.984 . S
N563 H567 0.985 . S
H564 N559 0.984 . S
H565 N559 0.985 . S
H566 N563 0.984 . S
H567 N563 0.985 . S
H568 N562 0.984 . S
H569 N562 0.984 . S
H570 N558 0.984 . S
H571 N558 0.985 . S
C572 C573 1.363 . S
C572 C578 1.379 . S
C572 N580 1.356 . S
C573 C572 1.363 . S
C573 C579 1.363 . S
C574 C575 1.363 . S
C574 C579 1.379 . S
C574 N581 1.356 . S
C575 C574 1.363 . S
C575 C578 1.363 . S
N576 C578 1.356 . S
N576 H588 0.984 . S
N576 H589 0.985 . S
N577 C579 1.356 . S
N577 H582 0.984 . S
N577 H583 0.985 . S
C578 C572 1.379 . S
C578 C575 1.363 . S
C578 N576 1.356 . S
C579 C573 1.363 . S
C579 C574 1.379 . S
C579 N577 1.356 . S
N580 C572 1.356 . S
N580 H586 0.984 . S
N580 H587 0.984 . S
N581 C574 1.356 . S
N581 H584 0.984 . S
N581 H585 0.985 . S
H582 N577 0.984 . S
H583 N577 0.985 . S
H584 N581 0.984 . S
H585 N581 0.985 . S
H586 N580 0.984 . S
H587 N580 0.984 . S
H588 N576 0.984 . S
H589 N576 0.985 . S
C590 C591 1.363 . S
C590 C596 1.379 . S
C590 N598 1.356 . S
C591 C590 1.363 . S
C591 C597 1.363 . S
C592 C593 1.363 . S
C592 C597 1.379 . S
C592 N599 1.356 . S
C593 C592 1.363 . S
C593 C596 1.363 . S
N594 C596 1.356 . S
N594 H606 0.984 . S
N594 H607 0.985 . S
N595 C597 1.356 . S
N595 H600 0.984 . S
N595 H601 0.985 . S
C596 C590 1.379 . S
C596 C593 1.363 . S
C596 N594 1.356 . S
C597 C591 1.363 . S
C597 C592 1.379 . S
C597 N595 1.356 . S
N598 C590 1.356 . S
N598 H604 0.984 . S
N598 H605 0.984 . S
N599 C592 1.356 . S
N599 H602 0.984 . S
N599 H603 0.985 . S
H600 N595 0.984 . S
H601 N595 0.985 . S
H602 N599 0.984 . S
H603 N599 0.985 . S
H604 N598 0.984 . S
H605 N598 0.984 . S
H606 N594 0.984 . S
H607 N594 0.985 . S
C608 C609 1.363 1_655 S
C608 C614 1.379 . S
C608 N616 1.356 . S
C609 C608 1.363 1_455 S
C609 C615 1.363 . S
C610 C611 1.363 1_455 S
C610 C615 1.379 . S
C610 N617 1.356 . S
C611 C610 1.363 1_655 S
C611 C614 1.363 . S
N612 C614 1.356 . S
N612 H624 0.984 . S
N612 H625 0.985 . S
N613 C615 1.356 . S
N613 H618 0.984 . S
N613 H619 0.985 . S
C614 C608 1.379 . S
C614 C611 1.363 . S
C614 N612 1.356 . S
C615 C609 1.363 . S
C615 C610 1.379 . S
C615 N613 1.356 . S
N616 C608 1.356 . S
N616 H622 0.984 . S
N616 H623 0.984 . S
N617 C610 1.356 . S
N617 H620 0.984 . S
N617 H621 0.985 . S
H618 N613 0.984 . S
H619 N613 0.985 . S
H620 N617 0.984 . S
H621 N617 0.985 . S
H622 N616 0.984 . S
H623 N616 0.984 . S
H624 N612 0.984 . S
H625 N612 0.985 . S
C626 C627 1.363 1_455 S
C626 C632 1.379 . S
C626 N634 1.356 . S
C627 C626 1.363 1_655 S
C627 C633 1.363 . S
C628 C629 1.363 1_655 S
C628 C633 1.379 . S
C628 N635 1.356 . S
C629 C628 1.363 1_455 S
C629 C632 1.363 . S
N630 C632 1.356 . S
N630 H642 0.984 . S
N630 H643 0.985 . S
N631 C633 1.356 . S
N631 H636 0.984 . S
N631 H637 0.985 . S
C632 C626 1.379 . S
C632 C629 1.363 . S
C632 N630 1.356 . S
C633 C627 1.363 . S
C633 C628 1.379 . S
C633 N631 1.356 . S
N634 C626 1.356 . S
N634 H640 0.984 . S
N634 H641 0.984 . S
N635 C628 1.356 . S
N635 H638 0.984 . S
N635 H639 0.985 . S
H636 N631 0.984 . S
H637 N631 0.985 . S
H638 N635 0.984 . S
H639 N635 0.985 . S
H640 N634 0.984 . S
H641 N634 0.984 . S
H642 N630 0.984 . S
H643 N630 0.985 . S
C644 C645 1.363 . S
C644 C650 1.379 . S
C644 N652 1.356 . S
C645 C644 1.363 . S
C645 C651 1.363 1_655 S
C646 C647 1.363 . S
C646 C651 1.379 . S
C646 N653 1.356 . S
C647 C646 1.363 . S
C647 C650 1.363 1_455 S
N648 C650 1.356 . S
N648 H660 0.984 . S
N648 H661 0.985 . S
N649 C651 1.356 . S
N649 H654 0.984 . S
N649 H655 0.985 . S
C650 C644 1.379 . S
C650 C647 1.363 1_655 S
C650 N648 1.356 . S
C651 C645 1.363 1_455 S
C651 C646 1.379 . S
C651 N649 1.356 . S
N652 C644 1.356 . S
N652 H658 0.984 . S
N652 H659 0.984 . S
N653 C646 1.356 . S
N653 H656 0.984 . S
N653 H657 0.985 . S
H654 N649 0.984 . S
H655 N649 0.985 . S
H656 N653 0.984 . S
H657 N653 0.985 . S
H658 N652 0.984 . S
H659 N652 0.984 . S
H660 N648 0.984 . S
H661 N648 0.985 . S
C662 C663 1.363 . S
C662 C668 1.379 . S
C662 N670 1.356 . S
C663 C662 1.363 . S
C663 C669 1.363 1_655 S
C664 C665 1.363 . S
C664 C669 1.379 . S
C664 N671 1.356 . S
C665 C664 1.363 . S
C665 C668 1.363 1_455 S
N666 C668 1.356 . S
N666 H678 0.984 . S
N666 H679 0.985 . S
N667 C669 1.356 . S
N667 H672 0.984 . S
N667 H673 0.985 . S
C668 C662 1.379 . S
C668 C665 1.363 1_655 S
C668 N666 1.356 . S
C669 C663 1.363 1_455 S
C669 C664 1.379 . S
C669 N667 1.356 . S
N670 C662 1.356 . S
N670 H676 0.984 . S
N670 H677 0.984 . S
N671 C664 1.356 . S
N671 H674 0.984 . S
N671 H675 0.985 . S
H672 N667 0.984 . S
H673 N667 0.985 . S
H674 N671 0.984 . S
H675 N671 0.985 . S
H676 N670 0.984 . S
H677 N670 0.984 . S
H678 N666 0.984 . S
H679 N666 0.985 . S
C680 C681 1.363 . S
C680 C686 1.379 . S
C680 N688 1.356 . S
C681 C680 1.363 . S
C681 C687 1.363 . S
C682 C683 1.363 . S
C682 C687 1.379 . S
C682 N689 1.356 . S
C683 C682 1.363 . S
C683 C686 1.363 . S
N684 C686 1.356 . S
N684 H696 0.984 . S
N684 H697 0.985 . S
N685 C687 1.356 . S
N685 H690 0.984 . S
N685 H691 0.985 . S
C686 C680 1.379 . S
C686 C683 1.363 . S
C686 N684 1.356 . S
C687 C681 1.363 . S
C687 C682 1.379 . S
C687 N685 1.356 . S
N688 C680 1.356 . S
N688 H694 0.984 . S
N688 H695 0.984 . S
N689 C682 1.356 . S
N689 H692 0.984 . S
N689 H693 0.985 . S
H690 N685 0.984 . S
H691 N685 0.985 . S
H692 N689 0.984 . S
H693 N689 0.985 . S
H694 N688 0.984 . S
H695 N688 0.984 . S
H696 N684 0.984 . S
H697 N684 0.985 . S
C698 C699 1.363 . S
C698 C704 1.379 . S
C698 N706 1.356 . S
C699 C698 1.363 . S
C699 C705 1.363 . S
C700 C701 1.363 . S
C700 C705 1.379 . S
C700 N707 1.356 . S
C701 C700 1.363 . S
C701 C704 1.363 . S
N702 C704 1.356 . S
N702 H714 0.984 . S
N702 H715 0.985 . S
N703 C705 1.356 . S
N703 H708 0.984 . S
N703 H709 0.985 . S
C704 C698 1.379 . S
C704 C701 1.363 . S
C704 N702 1.356 . S
C705 C699 1.363 . S
C705 C700 1.379 . S
C705 N703 1.356 . S
N706 C698 1.356 . S
N706 H712 0.984 . S
N706 H713 0.984 . S
N707 C700 1.356 . S
N707 H710 0.984 . S
N707 H711 0.985 . S
H708 N703 0.984 . S
H709 N703 0.985 . S
H710 N707 0.984 . S
H711 N707 0.985 . S
H712 N706 0.984 . S
H713 N706 0.984 . S
H714 N702 0.984 . S
H715 N702 0.985 . S
C716 C717 1.363 . S
C716 C722 1.379 . S
C716 N724 1.356 . S
C717 C716 1.363 . S
C717 C723 1.363 . S
C718 C719 1.363 . S
C718 C723 1.379 . S
C718 N725 1.356 . S
C719 C718 1.363 . S
C719 C722 1.363 . S
N720 C722 1.356 . S
N720 H732 0.984 . S
N720 H733 0.985 . S
N721 C723 1.356 . S
N721 H726 0.984 . S
N721 H727 0.985 . S
C722 C716 1.379 . S
C722 C719 1.363 . S
C722 N720 1.356 . S
C723 C717 1.363 . S
C723 C718 1.379 . S
C723 N721 1.356 . S
N724 C716 1.356 . S
N724 H730 0.984 . S
N724 H731 0.984 . S
N725 C718 1.356 . S
N725 H728 0.984 . S
N725 H729 0.985 . S
H726 N721 0.984 . S
H727 N721 0.985 . S
H728 N725 0.984 . S
H729 N725 0.985 . S
H730 N724 0.984 . S
H731 N724 0.984 . S
H732 N720 0.984 . S
H733 N720 0.985 . S
C734 C735 1.363 . S
C734 C740 1.379 . S
C734 N742 1.356 . S
C735 C734 1.363 . S
C735 C741 1.363 . S
C736 C737 1.363 . S
C736 C741 1.379 . S
C736 N743 1.356 . S
C737 C736 1.363 . S
C737 C740 1.363 . S
N738 C740 1.356 . S
N738 H750 0.984 . S
N738 H751 0.985 . S
N739 C741 1.356 . S
N739 H744 0.984 . S
N739 H745 0.985 . S
C740 C734 1.379 . S
C740 C737 1.363 . S
C740 N738 1.356 . S
C741 C735 1.363 . S
C741 C736 1.379 . S
C741 N739 1.356 . S
N742 C734 1.356 . S
N742 H748 0.984 . S
N742 H749 0.984 . S
N743 C736 1.356 . S
N743 H746 0.984 . S
N743 H747 0.985 . S
H744 N739 0.984 . S
H745 N739 0.985 . S
H746 N743 0.984 . S
H747 N743 0.985 . S
H748 N742 0.984 . S
H749 N742 0.984 . S
H750 N738 0.984 . S
H751 N738 0.985 . S
C321 C19 2.251 . S
C323 C10 2.251 . S
C339 C59 2.251 . S
C341 C50 2.251 . S
C357 C99 2.251 . S
C359 C90 2.251 . S
C375 C139 2.251 . S
C377 C130 2.251 . S
C393 C179 2.251 . S
C395 C170 2.251 . S
C411 C210 2.251 . S
C413 C219 2.251 . S
C429 C259 2.251 . S
C431 C250 2.251 . S
C447 C290 2.251 . S
C449 C299 2.251 . S
C465 C55 2.916 . S
C467 C6 2.916 . S
C483 C126 2.915 . S
C485 C95 2.915 . S
C501 C166 2.915 . S
C503 C215 2.915 . S
C519 C255 2.917 . S
C521 C286 2.917 . S
C537 C15 2.030 . S
C539 C206 2.030 . S
C555 C175 2.030 . S
C557 C46 2.030 . S
C573 C86 2.030 . S
C575 C295 2.030 . S
C591 C135 2.030 . S
C593 C246 2.030 . S
C609 C9 1.494 . S
C611 C129 1.494 . S
C627 C49 1.575 . S
C629 C89 1.575 . S
C645 C58 1.494 . S
C647 C98 1.494 . S
C663 C138 1.575 . S
C665 C18 1.575 . S
C681 C169 1.495 . S
C683 C289 1.495 . S
C699 C209 1.574 . S
C701 C249 1.574 . S
C717 C218 1.494 . S
C719 C258 1.494 . S
C735 C298 1.574 . S
C737 C178 1.574 . S
