# Generated by pormake.
# Topology bcu-i, (5)-cn, num edge types: 1
# Building blocks:
#     Node 0, Type 0, BuildingBlock: BEQFEK_clean_sbu_0, # of connection points: 5
#     Node 1, Type 0, BuildingBlock: BEQFEK_clean_sbu_0, # of connection points: 5
#     Node 2, Type 0, BuildingBlock: BEQFEK_clean_sbu_0, # of connection points: 5
#     Node 3, Type 0, BuildingBlock: BEQFEK_clean_sbu_0, # of connection points: 5
#     Node 4, Type 0, BuildingBlock: BEQFEK_clean_sbu_0, # of connection points: 5
#     Node 5, Type 0, BuildingBlock: BEQFEK_clean_sbu_0, # of connection points: 5
#     Node 6, Type 0, BuildingBlock: BEQFEK_clean_sbu_0, # of connection points: 5
#     Node 7, Type 0, BuildingBlock: BEQFEK_clean_sbu_0, # of connection points: 5
#     Node 8, Type 0, BuildingBlock: BEQFEK_clean_sbu_0, # of connection points: 5
#     Node 9, Type 0, BuildingBlock: BEQFEK_clean_sbu_0, # of connection points: 5
#     Node 10, Type 0, BuildingBlock: BEQFEK_clean_sbu_0, # of connection points: 5
#     Node 11, Type 0, BuildingBlock: BEQFEK_clean_sbu_0, # of connection points: 5
#     Node 12, Type 0, BuildingBlock: BEQFEK_clean_sbu_0, # of connection points: 5
#     Node 13, Type 0, BuildingBlock: BEQFEK_clean_sbu_0, # of connection points: 5
#     Node 14, Type 0, BuildingBlock: BEQFEK_clean_sbu_0, # of connection points: 5
#     Node 15, Type 0, BuildingBlock: BEQFEK_clean_sbu_0, # of connection points: 5
#     Edge 16, Type (0, 0), BuildingBlock: OJICUG_clean_linker_0, # of connection points: 2
#     Edge 17, Type (0, 0), BuildingBlock: OJICUG_clean_linker_0, # of connection points: 2
#     Edge 18, Type (0, 0), BuildingBlock: OJICUG_clean_linker_0, # of connection points: 2
#     Edge 19, Type (0, 0), BuildingBlock: OJICUG_clean_linker_0, # of connection points: 2
#     Edge 20, Type (0, 0), BuildingBlock: OJICUG_clean_linker_0, # of connection points: 2
#     Edge 21, Type (0, 0), BuildingBlock: OJICUG_clean_linker_0, # of connection points: 2
#     Edge 22, Type (0, 0), BuildingBlock: OJICUG_clean_linker_0, # of connection points: 2
#     Edge 23, Type (0, 0), BuildingBlock: OJICUG_clean_linker_0, # of connection points: 2
#     Edge 24, Type (0, 0), BuildingBlock: OJICUG_clean_linker_0, # of connection points: 2
#     Edge 25, Type (0, 0), BuildingBlock: OJICUG_clean_linker_0, # of connection points: 2
#     Edge 26, Type (0, 0), BuildingBlock: OJICUG_clean_linker_0, # of connection points: 2
#     Edge 27, Type (0, 0), BuildingBlock: OJICUG_clean_linker_0, # of connection points: 2
#     Edge 28, Type (0, 0), BuildingBlock: OJICUG_clean_linker_0, # of connection points: 2
#     Edge 29, Type (0, 0), BuildingBlock: OJICUG_clean_linker_0, # of connection points: 2
#     Edge 30, Type (0, 0), BuildingBlock: OJICUG_clean_linker_0, # of connection points: 2
#     Edge 31, Type (0, 0), BuildingBlock: OJICUG_clean_linker_0, # of connection points: 2
#     Edge 32, Type (0, 0), BuildingBlock: OJICUG_clean_linker_0, # of connection points: 2
#     Edge 33, Type (0, 0), BuildingBlock: OJICUG_clean_linker_0, # of connection points: 2
#     Edge 34, Type (0, 0), BuildingBlock: OJICUG_clean_linker_0, # of connection points: 2
#     Edge 35, Type (0, 0), BuildingBlock: OJICUG_clean_linker_0, # of connection points: 2
#     Edge 36, Type (0, 0), BuildingBlock: OJICUG_clean_linker_0, # of connection points: 2
#     Edge 37, Type (0, 0), BuildingBlock: OJICUG_clean_linker_0, # of connection points: 2
#     Edge 38, Type (0, 0), BuildingBlock: OJICUG_clean_linker_0, # of connection points: 2
#     Edge 39, Type (0, 0), BuildingBlock: OJICUG_clean_linker_0, # of connection points: 2
#     Edge 40, Type (0, 0), BuildingBlock: OJICUG_clean_linker_0, # of connection points: 2
#     Edge 41, Type (0, 0), BuildingBlock: OJICUG_clean_linker_0, # of connection points: 2
#     Edge 42, Type (0, 0), BuildingBlock: OJICUG_clean_linker_0, # of connection points: 2
#     Edge 43, Type (0, 0), BuildingBlock: OJICUG_clean_linker_0, # of connection points: 2
#     Edge 44, Type (0, 0), BuildingBlock: OJICUG_clean_linker_0, # of connection points: 2
#     Edge 45, Type (0, 0), BuildingBlock: OJICUG_clean_linker_0, # of connection points: 2
#     Edge 46, Type (0, 0), BuildingBlock: OJICUG_clean_linker_0, # of connection points: 2
#     Edge 47, Type (0, 0), BuildingBlock: OJICUG_clean_linker_0, # of connection points: 2
#     Edge 48, Type (0, 0), BuildingBlock: OJICUG_clean_linker_0, # of connection points: 2
#     Edge 49, Type (0, 0), BuildingBlock: OJICUG_clean_linker_0, # of connection points: 2
#     Edge 50, Type (0, 0), BuildingBlock: OJICUG_clean_linker_0, # of connection points: 2
#     Edge 51, Type (0, 0), BuildingBlock: OJICUG_clean_linker_0, # of connection points: 2
#     Edge 52, Type (0, 0), BuildingBlock: OJICUG_clean_linker_0, # of connection points: 2
#     Edge 53, Type (0, 0), BuildingBlock: OJICUG_clean_linker_0, # of connection points: 2
#     Edge 54, Type (0, 0), BuildingBlock: OJICUG_clean_linker_0, # of connection points: 2
#     Edge 55, Type (0, 0), BuildingBlock: OJICUG_clean_linker_0, # of connection points: 2
# Relax obj value: 0.911
# Max RMSD: 0.185
# Mean RMSD: 0.185
data_MOF--net-bcu-i--node1-BEQFEK_clean_sbu_0--edge1-OJICUG_clean_linker_0
_symmetry_space_group_name_H-M    P1
_symmetry_Int_Tables_number       1
_symmetry_cell_setting            triclinic
loop_
_symmetry_equiv_pos_as_xyz
'x, y, z'
_cell_length_a     36.394096
_cell_length_b     36.28694
_cell_length_c     27.365679
_cell_angle_alpha  89.976903
_cell_angle_beta   89.967486
_cell_angle_gamma 90.009894
loop_
_atom_site_label
_atom_site_type_symbol
_atom_site_fract_x
_atom_site_fract_y
_atom_site_fract_z
_atom_type_partial_charge
Co0 Co 0.21267 0.12778 0.32493 0.0
Co1 Co 0.21164 0.06279 0.2503 0.0
C2 C 0.16346 0.131 0.24 0.0
O3 O 0.17774 0.14666 0.27707 0.0
O4 O 0.17334 0.09878 0.22633 0.0
C5 C 0.21654 0.19329 0.39036 0.0
O6 O 0.20839 0.21597 0.35454 0.0
C7 C 0.17977 0.99432 0.2121 0.0
C8 C 0.22811 0.96863 0.17724 0.0
C9 C 0.1918 0.96198 0.18993 0.0
N10 N 0.2079 0.01835 0.21326 0.0
N11 N 0.23638 0.00321 0.19108 0.0
C12 C 0.14362 0.00105 0.23668 0.0
H13 H 0.14472 0.02626 0.25955 0.0
H14 H 0.13563 0.97699 0.25934 0.0
H15 H 0.12217 0.00488 0.20834 0.0
C16 C 0.18872 0.07046 0.39139 0.0
N17 N 0.19763 0.08148 0.34614 0.0
N18 N 0.20263 0.05266 0.31782 0.0
C19 C 0.19945 0.02201 0.34554 0.0
C20 C 0.18976 0.03254 0.39263 0.0
C21 C 0.18391 0.09586 0.43408 0.0
H22 H 0.21135 0.10454 0.4474 0.0
H23 H 0.16822 0.12063 0.42278 0.0
H24 H 0.16924 0.08225 0.46466 0.0
O25 O 0.26208 0.1248 0.29945 0.0
O26 O 0.26274 0.08201 0.2418 0.0
H27 H 0.22723 0.98471 0.29666 0.0
H28 H 0.22258 0.96823 0.35871 0.0
C29 C 0.20891 0.98385 0.32899 0.0
H30 H 0.18334 0.96887 0.31962 0.0
H31 H 0.2622 0.01554 0.18827 0.0
O32 O 0.21789 0.15889 0.38276 0.0
C33 C 0.27908 0.10625 0.26743 0.0
Co34 Co 0.86266 0.22316 0.32668 0.0
Co35 Co 0.92799 0.22237 0.25245 0.0
C36 C 0.86139 0.17223 0.24286 0.0
O37 O 0.84532 0.1864 0.27973 0.0
O38 O 0.89314 0.18309 0.22898 0.0
C39 C 0.79709 0.22376 0.39209 0.0
O40 O 0.77548 0.21243 0.35672 0.0
C41 C -0.00418 0.1901 0.21405 0.0
C42 C 0.02203 0.23818 0.17895 0.0
C43 C 0.02804 0.20157 0.19126 0.0
N44 N 0.97241 0.21871 0.21569 0.0
N45 N 0.98785 0.24708 0.19348 0.0
C46 C 0.98873 0.154 0.23886 0.0
H47 H 0.96392 0.15561 0.26234 0.0
H48 H 0.01284 0.14562 0.26105 0.0
H49 H 0.98415 0.1325 0.2107 0.0
C50 C 0.92031 0.20319 0.3946 0.0
N51 N 0.90921 0.21031 0.34886 0.0
N52 N 0.93796 0.2144 0.32019 0.0
C53 C 0.96858 0.21175 0.34791 0.0
C54 C 0.95805 0.20409 0.39557 0.0
C55 C 0.89529 0.19823 0.43756 0.0
H56 H 0.88547 0.22563 0.44985 0.0
H57 H 0.87129 0.18115 0.42708 0.0
H58 H 0.90979 0.18481 0.4685 0.0
O59 O 0.86436 0.27224 0.29937 0.0
O60 O 0.90781 0.27307 0.2426 0.0
H61 H 0.00581 0.23932 0.29883 0.0
H62 H 0.02253 0.23406 0.36076 0.0
C63 C 0.00663 0.22077 0.33098 0.0
H64 H 0.02106 0.19495 0.321 0.0
H65 H 0.97595 0.27317 0.19089 0.0
O66 O 0.83112 0.22815 0.3843 0.0
C67 C 0.88287 0.28921 0.26723 0.0
Co68 Co 0.77837 0.87108 0.32794 0.0
Co69 Co 0.77758 0.93453 0.25095 0.0
C70 C 0.82564 0.8663 0.24109 0.0
O71 O 0.81223 0.8514 0.27929 0.0
O72 O 0.81545 0.89822 0.22666 0.0
C73 C 0.77305 0.80634 0.39404 0.0
O74 O 0.77618 0.78334 0.35723 0.0
C75 C 0.80842 0.00242 0.21018 0.0
C76 C 0.75928 0.02796 0.17725 0.0
C77 C 0.7958 0.03477 0.18862 0.0
N78 N 0.78042 0.9783 0.21241 0.0
N79 N 0.75145 0.9933 0.19125 0.0
C80 C 0.84504 0.99587 0.23356 0.0
H81 H 0.8532 0.01981 0.25629 0.0
H82 H 0.86605 0.9925 0.20452 0.0
H83 H 0.84458 0.97046 0.25613 0.0
C84 C 0.80308 0.92995 0.39141 0.0
N85 N 0.79364 0.9179 0.34686 0.0
N86 N 0.78791 0.94607 0.31763 0.0
C87 C 0.79109 0.97732 0.34409 0.0
C88 C 0.8016 0.96791 0.39129 0.0
C89 C 0.80837 0.90546 0.43494 0.0
H90 H 0.78108 0.89692 0.449 0.0
H91 H 0.8241 0.88055 0.42429 0.0
H92 H 0.82323 0.91969 0.4648 0.0
O93 O 0.72832 0.87325 0.30431 0.0
O94 O 0.72645 0.91503 0.24536 0.0
H95 H 0.76144 0.01307 0.29511 0.0
H96 H 0.76752 0.03113 0.35607 0.0
C97 C 0.78061 0.01495 0.32644 0.0
H98 H 0.80566 0.03007 0.31517 0.0
H99 H 0.72561 0.98092 0.18959 0.0
O100 O 0.7748 0.84079 0.38689 0.0
C101 C 0.71065 0.89117 0.27228 0.0
Co102 Co 0.12617 0.77066 0.32163 0.0
Co103 Co 0.06004 0.77277 0.24912 0.0
C104 C 0.12597 0.82347 0.23955 0.0
O105 O 0.14246 0.80843 0.27541 0.0
O106 O 0.09409 0.81289 0.22596 0.0
C107 C 0.19265 0.77453 0.38342 0.0
O108 O 0.21062 0.79113 0.34805 0.0
C109 C 0.99211 0.80537 0.21153 0.0
C110 C 0.96498 0.75715 0.17814 0.0
C111 C 0.95952 0.79397 0.18971 0.0
N112 N 0.01521 0.77651 0.21339 0.0
N113 N -0.00079 0.74804 0.19215 0.0
C114 C -7e-05 0.84171 0.23528 0.0
H115 H 0.0245 0.83983 0.25914 0.0
H116 H 0.97591 0.85114 0.2569 0.0
H117 H 0.0053 0.86256 0.20648 0.0
C118 C 0.06931 0.78823 0.3922 0.0
N119 N 0.07984 0.78248 0.34585 0.0
N120 N 0.05082 0.77933 0.31751 0.0
C121 C 0.02049 0.78134 0.34589 0.0
C122 C 0.03143 0.78768 0.39385 0.0
C123 C 0.09519 0.7893 0.43478 0.0
H124 H 0.10646 0.76128 0.44084 0.0
H125 H 0.11827 0.80832 0.42666 0.0
H126 H 0.08161 0.79831 0.46895 0.0
O127 O 0.12438 0.72215 0.29323 0.0
O128 O 0.08046 0.72229 0.23717 0.0
H129 H 0.98195 0.75595 0.29673 0.0
H130 H 0.9643 0.76391 0.3576 0.0
C131 C 0.98205 0.77513 0.32823 0.0
H132 H 0.97006 0.8018 0.31672 0.0
H133 H 0.0108 0.72179 0.18992 0.0
O134 O 0.15942 0.7653 0.37725 0.0
C135 C 0.10559 0.70574 0.26095 0.0
Co136 Co 0.21937 0.86491 0.64724 0.0
Co137 Co 0.21513 0.9314 0.71959 0.0
C138 C 0.16813 0.86256 0.73058 0.0
O139 O 0.18362 0.84663 0.69459 0.0
O140 O 0.177 0.89522 0.74364 0.0
C141 C 0.21819 0.79871 0.58416 0.0
O142 O 0.20323 0.7793 0.61948 0.0
C143 C 0.18175 3e-05 0.75617 0.0
C144 C 0.22932 0.02637 0.79196 0.0
C145 C 0.19305 0.03252 0.77872 0.0
N146 N 0.21026 0.97642 0.7554 0.0
N147 N 0.23827 0.99199 0.77805 0.0
C148 C 0.14585 0.99263 0.73136 0.0
H149 H 0.14766 0.96769 0.70805 0.0
H150 H 0.13733 0.01671 0.7091 0.0
H151 H 0.12443 0.98794 0.75956 0.0
C152 C 0.19606 0.92039 0.57788 0.0
N153 N 0.2043 0.91052 0.62377 0.0
N154 N 0.20706 0.94002 0.65148 0.0
C155 C 0.2026 0.97002 0.6228 0.0
C156 C 0.19479 0.95819 0.57575 0.0
C157 C 0.19225 0.89429 0.53581 0.0
H158 H 0.21997 0.88523 0.52399 0.0
H159 H 0.17617 0.86977 0.54718 0.0
H160 H 0.1784 0.90761 0.50429 0.0
O161 O 0.26812 0.869 0.67414 0.0
O162 O 0.26645 0.91305 0.73007 0.0
H163 H 0.22752 0.00972 0.67105 0.0
H164 H 0.2235 0.02432 0.60805 0.0
C165 C 0.20989 0.00892 0.63808 0.0
H166 H 0.18344 0.02288 0.6458 0.0
H167 H 0.2642 0.98 0.78146 0.0
O168 O 0.22557 0.83243 0.5909 0.0
C169 C 0.28393 0.88859 0.70611 0.0
Co170 Co 0.12724 0.22566 0.65299 0.0
Co171 Co 0.05968 0.22147 0.72315 0.0
C172 C 0.12587 0.17141 0.7337 0.0
O173 O 0.14291 0.1875 0.69908 0.0
O174 O 0.09353 0.18118 0.74644 0.0
C175 C 0.19282 0.21695 0.59176 0.0
O176 O 0.20673 0.19521 0.6254 0.0
C177 C 0.99101 0.18878 0.75939 0.0
C178 C 0.96435 0.2369 0.79375 0.0
C179 C 0.95854 0.20025 0.78162 0.0
N180 N 0.01433 0.2175 0.75785 0.0
N181 N -0.00141 0.24589 0.77959 0.0
C182 C -0.00129 0.15248 0.73549 0.0
H183 H 0.02318 0.15441 0.71141 0.0
H184 H 0.97458 0.14309 0.71407 0.0
H185 H 0.00424 0.1316 0.76418 0.0
C186 C 0.07218 0.20709 0.58037 0.0
N187 N 0.08157 0.21341 0.62701 0.0
N188 N 0.05188 0.21554 0.65435 0.0
C189 C 0.02223 0.21234 0.62495 0.0
C190 C 0.0344 0.20617 0.57749 0.0
C191 C 0.0989 0.20602 0.5387 0.0
H192 H 0.11033 0.23403 0.53302 0.0
H193 H 0.12179 0.18701 0.54765 0.0
H194 H 0.08595 0.19701 0.5041 0.0
O195 O 0.12439 0.27393 0.68198 0.0
O196 O 0.07949 0.27196 0.73659 0.0
H197 H 0.98169 0.23506 0.67367 0.0
H198 H 0.96614 0.2289 0.61151 0.0
C199 C 0.98321 0.21699 0.64111 0.0
H200 H 0.97153 0.18965 0.65018 0.0
H201 H 0.01043 0.27199 0.78237 0.0
O202 O 0.16165 0.23157 0.5986 0.0
C203 C 0.10469 0.28944 0.7141 0.0
Co204 Co 0.76906 0.131 0.65378 0.0
Co205 Co 0.77586 0.06146 0.72104 0.0
C206 C 0.8221 0.13018 0.73549 0.0
O207 O 0.80567 0.14741 0.70132 0.0
O208 O 0.81386 0.09694 0.74647 0.0
C209 C 0.77507 0.19794 0.59349 0.0
O210 O 0.79655 0.21247 0.6269 0.0
C211 C 0.81024 0.9918 0.75342 0.0
C212 C 0.76321 0.96458 0.78945 0.0
C213 C 0.79937 0.95887 0.77533 0.0
N214 N 0.78157 0.01523 0.75386 0.0
N215 N 0.75389 -0.00092 0.77659 0.0
C216 C 0.84597 -1e-05 0.72856 0.0
H217 H 0.85478 0.97628 0.70582 0.0
H218 H 0.86737 0.00474 0.75672 0.0
H219 H 0.8437 0.02516 0.7057 0.0
C220 C 0.7916 0.0788 0.57952 0.0
N221 N 0.78407 0.0866 0.62635 0.0
N222 N 0.78291 0.05596 0.65211 0.0
C223 C 0.78798 0.02731 0.62129 0.0
C224 C 0.79428 0.04123 0.57485 0.0
C225 C 0.794 0.10662 0.53921 0.0
H226 H 0.76593 0.11623 0.52992 0.0
H227 H 0.81055 0.13058 0.55137 0.0
H228 H 0.8067 0.0947 0.50589 0.0
O229 O 0.7209 0.12491 0.68192 0.0
O230 O 0.72454 0.07862 0.73449 0.0
H231 H 0.76586 0.98469 0.66759 0.0
H232 H 0.76936 0.9727 0.6036 0.0
C233 C 0.78281 0.98759 0.63418 0.0
H234 H 0.81002 0.97465 0.64006 0.0
H235 H 0.72798 0.0109 0.78108 0.0
O236 O 0.76168 0.16612 0.60025 0.0
C237 C 0.70614 0.10362 0.71292 0.0
Co238 Co 0.86276 0.76284 0.65381 0.0
Co239 Co 0.93128 0.76795 0.72254 0.0
C240 C 0.86641 0.81932 0.73225 0.0
O241 O 0.84892 0.80254 0.69869 0.0
O242 O 0.8987 0.80947 0.74498 0.0
C243 C 0.79826 0.77642 0.5942 0.0
O244 O 0.78815 0.80008 0.62797 0.0
C245 C 0.00034 0.8009 0.7565 0.0
C246 C 0.02797 0.75307 0.79022 0.0
C247 C 0.03322 0.78978 0.77789 0.0
N248 N 0.97724 0.77198 0.75575 0.0
N249 N 0.9936 0.74374 0.77704 0.0
C250 C 0.9921 0.83701 0.73241 0.0
H251 H 0.96754 0.83469 0.70858 0.0
H252 H 0.016 0.84659 0.71066 0.0
H253 H 0.98644 0.85793 0.761 0.0
C254 C 0.91749 0.77735 0.57917 0.0
N255 N 0.90843 0.77286 0.6263 0.0
N256 N 0.93835 0.77212 0.65335 0.0
C257 C 0.96774 0.77511 0.62336 0.0
C258 C 0.95513 0.7788 0.5758 0.0
C259 C 0.89058 0.77977 0.53792 0.0
H260 H 0.87816 0.75225 0.53178 0.0
H261 H 0.86844 0.79949 0.54746 0.0
H262 H 0.90391 0.78901 0.50355 0.0
O263 O 0.86475 0.71532 0.68496 0.0
O264 O 0.91034 0.71815 0.73861 0.0
H265 H 0.00916 0.75334 0.67144 0.0
H266 H 0.02367 0.75919 0.60864 0.0
C267 C 0.00699 0.77115 0.63868 0.0
H268 H 0.0184 0.79872 0.64713 0.0
H269 H 0.98203 0.71753 0.78022 0.0
O270 O 0.82727 0.75771 0.60036 0.0
C271 C 0.88455 0.70049 0.71756 0.0
Co272 Co 0.7177 0.62477 0.83731 0.0
Co273 Co 0.71458 0.55837 0.76468 0.0
C274 C 0.66739 0.62712 0.75325 0.0
O275 O 0.68239 0.64314 0.78954 0.0
O276 O 0.67655 0.59451 0.74032 0.0
C277 C 0.71961 0.69111 0.90105 0.0
O278 O 0.70867 0.7124 0.86504 0.0
C279 C 0.6815 0.48959 0.72859 0.0
C280 C 0.72922 0.46301 0.69343 0.0
C281 C 0.69294 0.45688 0.70674 0.0
N282 N 0.70994 0.5133 0.72897 0.0
N283 N 0.73804 0.49758 0.70665 0.0
C284 C 0.64557 0.49708 0.75333 0.0
H285 H 0.63726 0.4733 0.7763 0.0
H286 H 0.62408 0.50115 0.7251 0.0
H287 H 0.6472 0.52241 0.77593 0.0
C288 C 0.69334 0.56905 0.90576 0.0
N289 N 0.70239 0.57905 0.86017 0.0
N290 N 0.70609 0.5496 0.83259 0.0
C291 C 0.70172 0.51953 0.86118 0.0
C292 C 0.69273 0.53123 0.90792 0.0
C293 C 0.6885 0.59508 0.94773 0.0
H294 H 0.71593 0.6038 0.96105 0.0
H295 H 0.673 0.61978 0.9357 0.0
H296 H 0.6736 0.58178 0.97843 0.0
O297 O 0.76674 0.621 0.81078 0.0
O298 O 0.76581 0.57701 0.75473 0.0
H299 H 0.72798 0.48035 0.8134 0.0
H300 H 0.72385 0.46583 0.87643 0.0
C301 C 0.71008 0.48079 0.84615 0.0
H302 H 0.68406 0.46612 0.83822 0.0
H303 H 0.76396 0.5096 0.70317 0.0
O304 O 0.72345 0.65681 0.89424 0.0
C305 C 0.78292 0.60162 0.77885 0.0
Co306 Co 0.36399 0.72727 0.82984 0.0
Co307 Co 0.43161 0.72211 0.75969 0.0
C308 C 0.36628 0.67099 0.75138 0.0
O309 O 0.34921 0.68775 0.78535 0.0
O310 O 0.39845 0.68079 0.73798 0.0
C311 C 0.29909 0.71619 0.89014 0.0
O312 O 0.28716 0.69364 0.85611 0.0
C313 C 0.50023 0.68872 0.72527 0.0
C314 C 0.52772 0.73607 0.69016 0.0
C315 C 0.533 0.69953 0.7033 0.0
N316 N 0.47716 0.71765 0.72559 0.0
N317 N 0.49342 0.74559 0.70344 0.0
C318 C 0.49214 0.65297 0.75043 0.0
H319 H 0.46755 0.65554 0.77418 0.0
H320 H 0.51608 0.64389 0.77245 0.0
H321 H 0.48665 0.63154 0.72246 0.0
C322 C 0.41948 0.71268 0.90325 0.0
N323 N 0.40987 0.71685 0.85629 0.0
N324 N 0.43948 0.71789 0.82866 0.0
C325 C 0.46924 0.71555 0.85806 0.0
C326 C 0.45718 0.71189 0.90591 0.0
C327 C 0.39302 0.71041 0.94509 0.0
H328 H 0.38115 0.7381 0.95185 0.0
H329 H 0.37043 0.69112 0.93588 0.0
H330 H 0.40666 0.70075 0.97901 0.0
O331 O 0.36603 0.77482 0.79884 0.0
O332 O 0.41102 0.77214 0.74426 0.0
H333 H 0.50951 0.73824 0.80892 0.0
H334 H 0.52481 0.73327 0.8715 0.0
C335 C 0.50819 0.7206 0.84193 0.0
H336 H 0.52034 0.69334 0.83356 0.0
H337 H 0.48187 0.77177 0.69984 0.0
O338 O 0.32926 0.73295 0.88399 0.0
C339 C 0.38556 0.78979 0.76605 0.0
Co340 Co 0.26891 0.35986 0.83483 0.0
Co341 Co 0.27568 0.42903 0.76701 0.0
C342 C 0.32214 0.3605 0.75314 0.0
O343 O 0.30563 0.34344 0.78741 0.0
O344 O 0.3139 0.39366 0.74181 0.0
C345 C 0.27614 0.2934 0.89518 0.0
O346 O 0.29838 0.2797 0.862 0.0
C347 C 0.30974 0.49858 0.73345 0.0
C348 C 0.26246 0.52544 0.69761 0.0
C349 C 0.2987 0.53131 0.71119 0.0
N350 N 0.2811 0.4751 0.7337 0.0
N351 N 0.25326 0.49104 0.7111 0.0
C352 C 0.34561 0.49066 0.75803 0.0
H353 H 0.35455 0.51462 0.78022 0.0
H354 H 0.36685 0.48561 0.72972 0.0
H355 H 0.34347 0.46575 0.7814 0.0
C356 C 0.29061 0.41254 0.90891 0.0
N357 N 0.28358 0.40445 0.86205 0.0
N358 N 0.28269 0.43492 0.83591 0.0
C359 C 0.28759 0.46376 0.86646 0.0
C360 C 0.29334 0.45014 0.91318 0.0
C361 C 0.29262 0.38496 0.94954 0.0
H362 H 0.26452 0.37503 0.9581 0.0
H363 H 0.30966 0.36115 0.93807 0.0
H364 H 0.30463 0.39718 0.98311 0.0
O365 O 0.22077 0.36562 0.80684 0.0
O366 O 0.22437 0.41163 0.75384 0.0
H367 H 0.26561 0.50613 0.8197 0.0
H368 H 0.2695 0.5187 0.88345 0.0
C369 C 0.28268 0.50341 0.853 0.0
H370 H 0.30997 0.51605 0.84659 0.0
H371 H 0.22734 0.47913 0.70708 0.0
O372 O 0.26173 0.32474 0.88835 0.0
C373 C 0.20598 0.38674 0.77571 0.0
Co374 Co 0.6278 0.2645 0.83674 0.0
Co375 Co 0.55986 0.26857 0.76719 0.0
C376 C 0.62615 0.31843 0.7556 0.0
O377 O 0.64332 0.3025 0.79022 0.0
O378 O 0.59373 0.30863 0.74327 0.0
C379 C 0.69314 0.27418 0.89797 0.0
O380 O 0.70653 0.29635 0.86443 0.0
C381 C 0.49117 0.30131 0.73103 0.0
C382 C 0.46438 0.25314 0.697 0.0
C383 C 0.45868 0.28986 0.70884 0.0
N384 N 0.51439 0.27252 0.73279 0.0
N385 N 0.49855 0.24409 0.71127 0.0
C386 C 0.499 0.3377 0.75459 0.0
H387 H 0.52345 0.33579 0.77867 0.0
H388 H 0.4749 0.34729 0.77592 0.0
H389 H 0.50466 0.3584 0.7257 0.0
C390 C 0.57312 0.28391 0.90962 0.0
N391 N 0.58224 0.27697 0.86303 0.0
N392 N 0.55241 0.27481 0.83602 0.0
C393 C 0.52293 0.27859 0.86566 0.0
C394 C 0.53538 0.2852 0.91285 0.0
C395 C 0.60004 0.28559 0.95099 0.0
H396 H 0.61143 0.25766 0.95733 0.0
H397 H 0.62292 0.30442 0.9413 0.0
H398 H 0.58724 0.29517 0.98545 0.0
O399 O 0.62479 0.21613 0.80791 0.0
O400 O 0.57959 0.21806 0.7538 0.0
H401 H 0.48188 0.25618 0.81747 0.0
H402 H 0.46689 0.26236 0.87989 0.0
C403 C 0.48377 0.27421 0.85003 0.0
H404 H 0.4722 0.30165 0.84121 0.0
H405 H 0.51032 0.21794 0.70864 0.0
O406 O 0.66235 0.25879 0.89102 0.0
C407 C 0.60493 0.2006 0.776 0.0
Co408 Co 0.71212 0.36609 0.16347 0.0
Co409 Co 0.71105 0.43246 0.23598 0.0
C410 C 0.6634 0.36406 0.24896 0.0
O411 O 0.67759 0.34778 0.21228 0.0
O412 O 0.67315 0.3966 0.26143 0.0
C413 C 0.71597 0.29969 0.09923 0.0
O414 O 0.70758 0.2773 0.13528 0.0
C415 C 0.67916 0.50165 0.27215 0.0
C416 C 0.7274 0.52759 0.30686 0.0
C417 C 0.69118 0.53421 0.29378 0.0
N418 N 0.70721 0.47752 0.27169 0.0
N419 N 0.73563 0.49285 0.29375 0.0
C420 C 0.64306 0.49471 0.24759 0.0
H421 H 0.63528 0.51846 0.22427 0.0
H422 H 0.62149 0.49138 0.27591 0.0
H423 H 0.64412 0.46915 0.22539 0.0
C424 C 0.68724 0.42198 0.09557 0.0
N425 N 0.69652 0.41186 0.14104 0.0
N426 N 0.70166 0.44124 0.16828 0.0
C427 C 0.69828 0.47132 0.13954 0.0
C428 C 0.68824 0.45984 0.093 0.0
C429 C 0.682 0.39583 0.05381 0.0
H430 H 0.7093 0.38725 0.03984 0.0
H431 H 0.66676 0.37107 0.06628 0.0
H432 H 0.66667 0.40887 0.02336 0.0
O433 O 0.76167 0.36999 0.18836 0.0
O434 O 0.76229 0.41386 0.24457 0.0
H435 H 0.72629 0.50953 0.18693 0.0
H436 H 0.72216 0.52437 0.12408 0.0
C437 C 0.70814 0.50975 0.15444 0.0
H438 H 0.68271 0.52529 0.16288 0.0
H439 H 0.76138 0.48046 0.29706 0.0
O440 O 0.71743 0.33414 0.10639 0.0
C441 C 0.77869 0.38929 0.21956 0.0
Co442 Co 0.62798 0.72688 0.16242 0.0
Co443 Co 0.56057 0.72386 0.23315 0.0
C444 C 0.62607 0.67307 0.24375 0.0
O445 O 0.64309 0.68855 0.20863 0.0
O446 O 0.59398 0.68345 0.25671 0.0
C447 C 0.69379 0.71747 0.10159 0.0
O448 O 0.70786 0.69646 0.13593 0.0
C449 C 0.49214 0.69125 0.2698 0.0
C450 C 0.4645 0.73974 0.30178 0.0
C451 C 0.45929 0.70277 0.29088 0.0
N452 N 0.51515 0.72021 0.26771 0.0
N453 N 0.49882 0.74884 0.28809 0.0
C454 C 0.5004 0.65465 0.24706 0.0
H455 H 0.52494 0.65648 0.22309 0.0
H456 H 0.47649 0.64457 0.22576 0.0
H457 H 0.50605 0.63434 0.27643 0.0
C458 C 0.5722 0.71016 0.08996 0.0
N459 N 0.58198 0.71563 0.13665 0.0
N460 N 0.55251 0.71787 0.16438 0.0
C461 C 0.52262 0.71531 0.13531 0.0
C462 C 0.53436 0.70971 0.08751 0.0
C463 C 0.59865 0.70995 0.04794 0.0
H464 H 0.61077 0.73783 0.044 0.0
H465 H 0.62109 0.69005 0.0554 0.0
H466 H 0.58536 0.70262 0.01288 0.0
O467 O 0.62592 0.77513 0.19154 0.0
O468 O 0.5811 0.77413 0.24646 0.0
H469 H 0.4825 0.73906 0.18368 0.0
H470 H 0.46583 0.73021 0.12261 0.0
C471 C 0.48376 0.71983 0.15228 0.0
H472 H 0.47285 0.69268 0.16369 0.0
H473 H 0.51029 0.77516 0.29005 0.0
O474 O 0.66249 0.73194 0.1079 0.0
C475 C 0.60658 0.79103 0.22373 0.0
Co476 Co 0.27663 0.62399 0.15689 0.0
Co477 Co 0.27669 0.5614 0.23504 0.0
C478 C 0.32508 0.62949 0.24258 0.0
O479 O 0.31119 0.64396 0.20443 0.0
O480 O 0.31498 0.59777 0.25791 0.0
C481 C 0.27291 0.68842 0.09049 0.0
O482 O 0.27847 0.71122 0.12702 0.0
C483 C 0.30786 0.49414 0.27711 0.0
C484 C 0.2589 0.4688 0.31086 0.0
C485 C 0.29543 0.46202 0.29948 0.0
N486 N 0.27975 0.51809 0.27444 0.0
N487 N 0.25089 0.50322 0.29608 0.0
C488 C 0.34442 0.50058 0.25342 0.0
H489 H 0.3437 0.52552 0.22997 0.0
H490 H 0.35281 0.47628 0.23151 0.0
H491 H 0.3654 0.50472 0.2823 0.0
C492 C 0.30019 0.56443 0.09375 0.0
N493 N 0.29135 0.57693 0.13832 0.0
N494 N 0.28628 0.54907 0.16831 0.0
C495 C 0.28948 0.51752 0.14247 0.0
C496 C 0.2992 0.52646 0.09478 0.0
C497 C 0.3045 0.58848 0.04958 0.0
H498 H 0.27693 0.59741 0.03703 0.0
H499 H 0.32092 0.61322 0.05902 0.0
H500 H 0.31815 0.57388 0.01903 0.0
O501 O 0.2269 0.62227 0.18148 0.0
O502 O 0.22561 0.58116 0.24129 0.0
H503 H 0.26104 0.48189 0.19288 0.0
H504 H 0.26713 0.46294 0.13241 0.0
C505 C 0.28003 0.47995 0.16134 0.0
H506 H 0.30551 0.46564 0.17268 0.0
H507 H 0.22499 0.51551 0.29759 0.0
O508 O 0.27274 0.65395 0.09776 0.0
C509 C 0.20956 0.60473 0.21421 0.0
Co510 Co 0.36351 0.27421 0.16257 0.0
Co511 Co 0.42809 0.27426 0.23769 0.0
C512 C 0.3615 0.32461 0.24669 0.0
O513 O 0.3457 0.31069 0.20948 0.0
O514 O 0.3931 0.31359 0.2609 0.0
C515 C 0.29832 0.26962 0.09671 0.0
O516 O 0.27533 0.27666 0.13253 0.0
C517 C 0.49581 0.30625 0.27647 0.0
C518 C 0.52148 0.25826 0.3124 0.0
C519 C 0.52782 0.29472 0.29967 0.0
N520 N 0.4722 0.2778 0.27501 0.0
N521 N 0.48731 0.24948 0.29772 0.0
C522 C 0.48916 0.34219 0.25106 0.0
H523 H 0.46425 0.3407 0.22779 0.0
H524 H 0.51331 0.34999 0.22856 0.0
H525 H 0.48498 0.36405 0.27885 0.0
C526 C 0.42184 0.2942 0.09564 0.0
N527 N 0.41028 0.28715 0.1412 0.0
N528 N 0.43872 0.28241 0.17016 0.0
C529 C 0.46958 0.28443 0.14278 0.0
C530 C 0.45957 0.29248 0.09503 0.0
C531 C 0.39723 0.29932 0.05232 0.0
H532 H 0.38754 0.27197 0.03967 0.0
H533 H 0.37313 0.31637 0.06253 0.0
H534 H 0.41207 0.31285 0.02173 0.0
O535 O 0.36487 0.22499 0.18946 0.0
O536 O 0.40775 0.22354 0.24687 0.0
H537 H 0.50568 0.25583 0.19225 0.0
H538 H 0.52291 0.26049 0.13044 0.0
C539 C 0.50724 0.2743 0.16005 0.0
H540 H 0.52239 0.29968 0.17012 0.0
H541 H 0.47521 0.22349 0.30051 0.0
O542 O 0.33263 0.26921 0.10448 0.0
C543 C 0.38297 0.20769 0.22165 0.0
C544 C 0.13717 0.9193 0.18722 0.0
C545 C 0.17505 0.92491 0.19379 0.0
H546 H 0.09173 0.8821 0.19571 0.0
C547 C 0.19704 0.89515 0.20869 0.0
H548 H 0.11971 0.94153 0.17475 0.0
C549 C 0.18117 0.86139 0.2207 0.0
C550 C 0.14301 0.85641 0.21731 0.0
H551 H 0.22634 0.89855 0.21398 0.0
H552 H 0.19865 0.83964 0.23466 0.0
C553 C 0.12125 0.88518 0.19866 0.0
C554 C 0.12814 0.18773 0.22018 0.0
C555 C 0.13174 0.1493 0.21676 0.0
H556 H 0.09258 0.23427 0.21405 0.0
C557 C 0.10237 0.12853 0.19796 0.0
H558 H 0.15042 0.20446 0.23427 0.0
C559 C 0.0689 0.14566 0.1868 0.0
C560 C 0.06455 0.18377 0.19386 0.0
H561 H 0.1044 0.09883 0.19498 0.0
H562 H 0.04611 0.12893 0.17446 0.0
C563 C 0.095 0.20482 0.20847 0.0
C564 C 0.84982 0.07812 0.18556 0.0
C565 C 0.81215 0.07194 0.19328 0.0
H566 H 0.89511 0.11539 0.19446 0.0
C567 C 0.79023 0.10097 0.21068 0.0
H568 H 0.8672 0.05643 0.17131 0.0
C569 C 0.80607 0.13445 0.22401 0.0
C570 C 0.84411 0.13988 0.21951 0.0
H571 H 0.76109 0.0971 0.21696 0.0
H572 H 0.78871 0.15556 0.23986 0.0
C573 C 0.86569 0.11196 0.19835 0.0
C574 C 0.86006 0.80904 0.22131 0.0
C575 C 0.85675 0.84746 0.21715 0.0
H576 H 0.8951 0.76212 0.21511 0.0
C577 C 0.88595 0.86774 0.19694 0.0
H578 H 0.83789 0.7927 0.2365 0.0
C579 C 0.91907 0.85018 0.18511 0.0
C580 C 0.9232 0.81212 0.1929 0.0
H581 H 0.88412 0.89742 0.1934 0.0
H582 H 0.94182 0.86655 0.17175 0.0
C583 C 0.89283 0.79152 0.20893 0.0
C584 C 0.12125 0.10838 0.77109 0.0
C585 C 0.14292 0.13812 0.75502 0.0
H586 H 0.12012 0.05132 0.79183 0.0
C587 C 0.18122 0.13385 0.75292 0.0
H588 H 0.09162 0.11089 0.77301 0.0
C589 C 0.19738 0.09998 0.76358 0.0
C590 C 0.1756 0.06936 0.77582 0.0
H591 H 0.19864 0.15633 0.74096 0.0
H592 H 0.22686 0.09729 0.75936 0.0
C593 C 0.13748 0.07417 0.78121 0.0
C594 C 0.85787 0.18659 0.75575 0.0
C595 C 0.85439 0.14809 0.75797 0.0
H596 H 0.89345 0.23308 0.76204 0.0
C597 C 0.88421 0.12705 0.77498 0.0
H598 H 0.83528 0.20358 0.74318 0.0
C599 C 0.91786 0.14405 0.7855 0.0
C600 C 0.92205 0.18228 0.77942 0.0
H601 H 0.88229 0.0973 0.77716 0.0
H602 H 0.94086 0.12714 0.79668 0.0
C603 C 0.89124 0.20351 0.76668 0.0
C604 C 0.8114 0.85727 0.75147 0.0
C605 C 0.84973 0.85315 0.75254 0.0
H606 H 0.76573 0.8937 0.75829 0.0
C607 C 0.87158 0.88327 0.76675 0.0
H608 H 0.79384 0.8345 0.74093 0.0
C609 C 0.85538 0.91761 0.77628 0.0
C610 C 0.81714 0.92217 0.77212 0.0
H611 H 0.90124 0.88085 0.76783 0.0
H612 H 0.87284 0.94066 0.78573 0.0
C613 C 0.7953 0.89126 0.76151 0.0
C614 C 0.10035 0.78777 0.76114 0.0
C615 C 0.0694 0.80834 0.77511 0.0
H616 H 0.15604 0.78893 0.73644 0.0
C617 C 0.07307 0.84655 0.78198 0.0
H618 H 0.0985 0.75825 0.75583 0.0
C619 C 0.10638 0.86421 0.77126 0.0
C620 C 0.13631 0.84386 0.75316 0.0
H621 H 0.04993 0.86294 0.79399 0.0
H622 H 0.10791 0.89394 0.77414 0.0
C623 C 0.13334 0.80536 0.74993 0.0
C624 C 0.69751 0.38975 0.72413 0.0
C625 C 0.67566 0.42001 0.71071 0.0
H626 H 0.69892 0.33384 0.74858 0.0
C627 C 0.63759 0.41494 0.7053 0.0
H628 H 0.72696 0.39266 0.72843 0.0
C629 C 0.62144 0.38086 0.71646 0.0
C630 C 0.64316 0.35152 0.73361 0.0
H631 H 0.62018 0.43751 0.69385 0.0
H632 H 0.59184 0.37818 0.71441 0.0
C633 C 0.68144 0.35601 0.73581 0.0
C634 C 0.59998 0.70173 0.72079 0.0
C635 C 0.56916 0.68106 0.7066 0.0
H636 H 0.65542 0.70072 0.74639 0.0
C637 C 0.57286 0.6428 0.70026 0.0
H638 H 0.59807 0.73129 0.72574 0.0
C639 C 0.60605 0.62522 0.71168 0.0
C640 C 0.63581 0.64569 0.73 0.0
H641 H 0.54979 0.62634 0.68819 0.0
H642 H 0.60759 0.59547 0.7092 0.0
C643 C 0.63284 0.68421 0.73273 0.0
C644 C 0.35471 0.57251 0.70856 0.0
C645 C 0.31651 0.56802 0.7135 0.0
H646 H 0.40068 0.60927 0.71572 0.0
C647 C 0.2948 0.59903 0.72405 0.0
H648 H 0.37205 0.54936 0.69913 0.0
C649 C 0.31103 0.63307 0.73335 0.0
C650 C 0.34935 0.63714 0.73155 0.0
H651 H 0.26526 0.59662 0.72784 0.0
H652 H 0.2936 0.65594 0.74393 0.0
C653 C 0.37103 0.60691 0.71732 0.0
C654 C 0.38457 0.36339 0.71441 0.0
C655 C 0.35453 0.34247 0.73102 0.0
H656 H 0.4414 0.36308 0.69348 0.0
C657 C 0.35784 0.30396 0.73335 0.0
H658 H 0.38278 0.39314 0.71216 0.0
C659 C 0.39124 0.28691 0.72293 0.0
C660 C 0.42225 0.30801 0.7106 0.0
H661 H 0.33507 0.28707 0.74563 0.0
H662 H 0.39328 0.25734 0.72763 0.0
C663 C 0.41826 0.34626 0.70439 0.0
C664 C 0.68099 0.63483 0.26283 0.0
C665 C 0.64281 0.63992 0.26581 0.0
H666 H 0.72601 0.59756 0.27 0.0
C667 C 0.62084 0.61114 0.28405 0.0
H668 H 0.69865 0.65658 0.24922 0.0
C669 C 0.63657 0.57697 0.29558 0.0
C670 C 0.67449 0.57128 0.28948 0.0
H671 H 0.5913 0.61431 0.28671 0.0
H672 H 0.61896 0.55479 0.30786 0.0
C673 C 0.69667 0.601 0.2749 0.0
C674 C 0.39254 0.70469 0.27199 0.0
C675 C 0.42307 0.68436 0.28801 0.0
H676 H 0.33739 0.70312 0.24533 0.0
C677 C 0.41908 0.64636 0.2965 0.0
H678 H 0.39467 0.73405 0.2653 0.0
C679 C 0.3859 0.6286 0.2855 0.0
C680 C 0.35647 0.64861 0.26543 0.0
H681 H 0.44194 0.63019 0.30991 0.0
H682 H 0.38414 0.59896 0.28965 0.0
C683 C 0.35971 0.68698 0.26044 0.0
C684 C 0.29007 0.39559 0.27866 0.0
C685 C 0.31191 0.42487 0.2955 0.0
H686 H 0.28876 0.34078 0.25017 0.0
C687 C 0.34961 0.41893 0.30313 0.0
H688 H 0.26091 0.39927 0.27246 0.0
C689 C 0.36561 0.38507 0.29072 0.0
C690 C 0.34412 0.3569 0.27002 0.0
H691 H 0.36693 0.44083 0.31694 0.0
H692 H 0.39507 0.38181 0.29444 0.0
C693 C 0.30604 0.36209 0.26569 0.0
C694 C 0.56907 0.35037 0.30336 0.0
C695 C 0.56448 0.31223 0.29691 0.0
H696 H 0.60476 0.39694 0.29409 0.0
C697 C 0.59478 0.29087 0.28254 0.0
H698 H 0.5464 0.36734 0.31554 0.0
C699 C 0.62798 0.30767 0.27034 0.0
C700 C 0.63177 0.34612 0.27298 0.0
H701 H 0.59217 0.26138 0.27747 0.0
H702 H 0.65012 0.29069 0.25638 0.0
C703 C 0.60258 0.36722 0.29168 0.0
C704 C 0.23678 0.18359 0.47608 0.0
C705 C 0.21896 0.20592 0.44136 0.0
H706 H 0.24304 0.16999 0.55165 0.0
C707 C 0.19906 0.2367 0.45718 0.0
H708 H 0.253 0.16007 0.46469 0.0
C709 C 0.19348 0.24246 0.50709 0.0
C710 C 0.20779 0.21753 0.54169 0.0
H711 H 0.18531 0.2545 0.43119 0.0
H712 H 0.17569 0.26484 0.51835 0.0
C713 C 0.23132 0.18939 0.52592 0.0
C714 C 0.80552 0.24455 0.47798 0.0
C715 C 0.78435 0.22548 0.44317 0.0
H716 H 0.81883 0.25124 0.55357 0.0
C717 C 0.75486 0.20373 0.45899 0.0
H718 H 0.82793 0.26227 0.46666 0.0
C719 C 0.74949 0.19764 0.50888 0.0
C720 C 0.77356 0.2132 0.54353 0.0
H721 H 0.73788 0.18902 0.433 0.0
H722 H 0.72822 0.17852 0.52006 0.0
C723 C 0.80017 0.23848 0.52781 0.0
C724 C 0.79412 0.75302 0.50851 0.0
C725 C 0.78279 0.77841 0.54445 0.0
H726 H 0.79969 0.74188 0.4319 0.0
C727 C 0.76203 0.80916 0.53036 0.0
H728 H 0.80976 0.72875 0.51841 0.0
C729 C 0.75641 0.8166 0.48097 0.0
C730 C 0.77122 0.79332 0.44492 0.0
H731 H 0.75259 0.82902 0.55711 0.0
H732 H 0.7423 0.84177 0.47095 0.0
C733 C 0.78831 0.76041 0.45899 0.0
C734 C 0.23424 0.79824 0.44863 0.0
C735 C 0.20729 0.77314 0.43357 0.0
H736 H 0.25935 0.82556 0.50915 0.0
C737 C 0.18986 0.75082 0.46874 0.0
H738 H 0.24833 0.81555 0.42237 0.0
C739 C 0.19604 0.75658 0.51847 0.0
C740 C 0.21968 0.78481 0.53362 0.0
H741 H 0.16945 0.73067 0.45797 0.0
H742 H 0.18003 0.74108 0.54479 0.0
C743 C 0.24035 0.80407 0.49836 0.0
C744 C 0.73956 0.68339 0.98737 0.0
C745 C 0.72139 0.70462 0.95175 0.0
H746 H 0.74552 0.67115 0.0634 0.0
C747 C 0.7005 0.73508 0.96648 0.0
H748 H 0.75656 0.66018 0.97691 0.0
C749 C 0.69437 0.74148 0.01613 0.0
C750 C 0.70904 0.7175 0.05163 0.0
H751 H 0.68649 0.75211 0.93984 0.0
H752 H 0.67597 0.7636 0.0265 0.0
C753 C 0.73347 0.68979 0.03696 0.0
C754 C 0.29626 0.74011 0.97559 0.0
C755 C 0.28359 0.71516 0.93992 0.0
H756 H 0.30251 0.75134 0.05203 0.0
C757 C 0.26124 0.68563 0.9543 0.0
H758 H 0.31313 0.76349 0.96543 0.0
C759 C 0.25529 0.67874 0.00378 0.0
C760 C 0.27136 0.70139 0.03958 0.0
H761 H 0.25079 0.66615 0.92774 0.0
H762 H 0.23995 0.65435 0.01406 0.0
C763 C 0.29012 0.7333 0.02516 0.0
C764 C 0.30294 0.25455 0.96128 0.0
C765 C 0.27503 0.27819 0.94516 0.0
H766 H 0.33175 0.23281 0.02287 0.0
C767 C 0.24994 0.29255 0.97948 0.0
H768 H 0.32245 0.24277 0.93578 0.0
C769 C 0.25536 0.28697 0.02947 0.0
C770 C 0.28596 0.26704 0.04563 0.0
H771 H 0.22775 0.31045 0.96796 0.0
H772 H 0.23749 0.30081 0.05527 0.0
C773 C 0.30841 0.2491 0.01118 0.0
C774 C 0.69371 0.24934 0.98305 0.0
C775 C 0.70794 0.2741 0.94815 0.0
H776 H 0.68533 0.23788 0.05909 0.0
C777 C 0.73117 0.30258 0.96365 0.0
H778 H 0.67618 0.2267 0.97203 0.0
C779 C 0.7364 0.30884 0.01342 0.0
C780 C 0.71861 0.28667 0.04839 0.0
H781 H 0.74285 0.32186 0.9377 0.0
H782 H 0.75241 0.33258 0.02453 0.0
C783 C 0.69903 0.25558 0.03291 0.0
C784 C 0.32721 0.12301 0.20746 0.0
C785 C 0.31671 0.11808 0.25621 0.0
H786 H 0.35836 0.15617 0.15795 0.0
C787 C 0.33778 0.13436 0.29357 0.0
H788 H 0.31159 0.11054 0.1781 0.0
C789 C 0.36465 0.16039 0.28213 0.0
C790 C 0.37024 0.17034 0.2333 0.0
H791 H 0.33044 0.13036 0.3316 0.0
H792 H 0.37716 0.17605 0.31144 0.0
C793 C 0.35387 0.14925 0.19602 0.0
C794 C 0.82718 0.37396 0.27957 0.0
C795 C 0.81647 0.37801 0.23077 0.0
H796 H 0.85862 0.34172 0.32977 0.0
C797 C 0.83753 0.3613 0.19372 0.0
H798 H 0.81158 0.38678 0.30869 0.0
C799 C 0.86458 0.33563 0.20569 0.0
C800 C 0.87033 0.32645 0.25475 0.0
H801 H 0.83002 0.36464 0.15565 0.0
H802 H 0.87704 0.31955 0.17673 0.0
C803 C 0.85401 0.34806 0.29155 0.0
C804 C 0.65325 0.86058 0.29945 0.0
C805 C 0.67287 0.879 0.26237 0.0
H806 H 0.61472 0.81772 0.31581 0.0
C807 C 0.66042 0.87686 0.21408 0.0
H808 H 0.66195 0.8625 0.33724 0.0
C809 C 0.63334 0.85126 0.20197 0.0
C810 C 0.61851 0.82802 0.23814 0.0
H811 H 0.67476 0.8911 0.18495 0.0
H812 H 0.62745 0.8464 0.16369 0.0
C813 C 0.62597 0.83517 0.28735 0.0
C814 C 0.1247 0.66026 0.19871 0.0
C815 C 0.1178 0.66856 0.24777 0.0
H816 H 0.16006 0.63175 0.1492 0.0
C817 C 0.13307 0.64617 0.28455 0.0
H818 H 0.11306 0.67699 0.1698 0.0
C819 C 0.16001 0.62031 0.27291 0.0
C820 C 0.17187 0.61701 0.22446 0.0
H821 H 0.12758 0.65188 0.32273 0.0
H822 H 0.17472 0.60678 0.30229 0.0
C823 C 0.15181 0.63456 0.18708 0.0
C824 C 0.36949 0.83352 0.70003 0.0
C825 C 0.374 0.82656 0.74993 0.0
H826 H 0.33658 0.86067 0.64636 0.0
C827 C 0.35726 0.85011 0.78423 0.0
H828 H 0.38236 0.81596 0.67296 0.0
C829 C 0.33103 0.8757 0.76914 0.0
C830 C 0.32138 0.87754 0.71972 0.0
H831 H 0.361 0.84555 0.82306 0.0
H832 H 0.315 0.89002 0.79658 0.0
C833 C 0.34312 0.85899 0.68493 0.0
C834 C 0.16042 0.37455 0.71075 0.0
C835 C 0.16852 0.37719 0.76058 0.0
H836 H 0.13174 0.34375 0.65629 0.0
C837 C 0.14527 0.3599 0.79477 0.0
H838 H 0.17769 0.38791 0.68378 0.0
C839 C 0.11896 0.33458 0.77914 0.0
C840 C 0.1161 0.32649 0.72931 0.0
H841 H 0.15069 0.36223 0.83359 0.0
H842 H 0.10494 0.31784 0.80613 0.0
C843 C 0.13424 0.3491 0.69511 0.0
C844 C 0.63469 0.14096 0.79436 0.0
C845 C 0.61636 0.16364 0.76047 0.0
H846 H 0.67821 0.10216 0.80509 0.0
C847 C 0.61907 0.15574 0.71056 0.0
H848 H 0.63234 0.14618 0.83323 0.0
C849 C 0.64536 0.13054 0.69453 0.0
C850 C 0.66874 0.11313 0.72841 0.0
H851 H 0.60491 0.17255 0.6838 0.0
H852 H 0.65065 0.12838 0.65566 0.0
C853 C 0.66082 0.11559 0.77834 0.0
C854 C 0.83025 0.61439 0.71594 0.0
C855 C 0.82028 0.61313 0.76531 0.0
H856 H 0.86044 0.64396 0.66162 0.0
C857 C 0.84164 0.63233 0.79986 0.0
H858 H 0.81451 0.59957 0.68868 0.0
C859 C 0.86805 0.65767 0.78443 0.0
C860 C 0.87294 0.66393 0.73441 0.0
H861 H 0.83485 0.63112 0.83839 0.0
H862 H 0.88066 0.67566 0.8112 0.0
C863 C 0.85648 0.63989 0.70051 0.0
C864 C 0.22405 -0.00166 0.45602 0.0
C865 C 0.19037 0.01069 0.4375 0.0
H866 H 0.25174 0.97246 0.51602 0.0
C867 C 0.15835 0.00736 0.46567 0.0
H868 H 0.24912 0.00164 0.43508 0.0
C869 C 0.16001 0.99165 0.51212 0.0
C870 C 0.19373 0.97952 0.53062 0.0
H871 H 0.13231 0.01751 0.45202 0.0
H872 H 0.13504 0.9885 0.53329 0.0
C873 C 0.22569 0.98259 0.50236 0.0
C874 C -0.00112 0.17401 0.45591 0.0
C875 C 0.98009 0.20543 0.44008 0.0
H876 H 0.03023 0.14944 0.5137 0.0
C877 C 0.97778 0.23652 0.47031 0.0
H878 H 9e-05 0.14958 0.43321 0.0
C879 C 0.99449 0.23635 0.51605 0.0
C880 C 0.01318 0.20489 0.53211 0.0
H881 H 0.96268 0.26071 0.45864 0.0
H882 H 0.99335 0.2609 0.53853 0.0
C883 C 0.01538 0.17373 0.50188 0.0
C884 C 0.7668 0.00311 0.4532 0.0
C885 C 0.80065 0.99052 0.43546 0.0
H886 H 0.7384 0.02881 0.51276 0.0
C887 C 0.83236 0.99394 0.46419 0.0
H888 H 0.74195 -0.00026 0.43189 0.0
C889 C 0.83012 0.00943 0.51071 0.0
C890 C 0.79617 0.02149 0.52856 0.0
H891 H 0.85853 0.98366 0.45115 0.0
H892 H 0.85477 0.01219 0.53259 0.0
C893 C 0.76463 0.01882 0.4995 0.0
C894 C 0.99404 0.81323 0.51724 0.0
C895 C 0.97615 0.78058 0.53039 0.0
H896 H 0.02464 0.84146 0.46169 0.0
C897 C 0.97466 0.75099 0.49756 0.0
H898 H 0.99473 0.83648 0.54205 0.0
C899 C 0.99156 0.75377 0.45204 0.0
C900 C 0.00944 0.78645 0.43869 0.0
H901 H 0.96041 0.72579 0.50724 0.0
H902 H 0.99138 0.73021 0.42774 0.0
C903 C 0.01046 0.81623 0.47136 0.0
C904 C 0.65787 0.50002 0.97347 0.0
C905 C 0.69173 0.51006 0.95318 0.0
H906 H 0.63029 0.47657 0.03544 0.0
C907 C 0.72414 0.50563 0.98011 0.0
H908 H 0.63259 0.50427 0.95335 0.0
C909 C 0.72276 0.49083 0.02702 0.0
C910 C 0.68892 0.48068 0.04735 0.0
H911 H 0.75035 0.51422 0.9651 0.0
H912 H 0.74808 0.48664 0.04708 0.0
C913 C 0.65649 0.48511 0.02039 0.0
C914 C 0.49877 0.68077 0.96447 0.0
C915 C 0.47865 0.71199 0.95099 0.0
H916 H 0.53134 0.65519 0.02023 0.0
C917 C 0.47557 0.74186 0.9832 0.0
H918 H 0.50079 0.65733 0.94011 0.0
C919 C 0.49283 0.74069 0.02856 0.0
C920 C 0.51274 0.70936 0.04236 0.0
H921 H 0.45971 0.76599 0.97322 0.0
H922 H 0.49122 0.76444 0.05244 0.0
C923 C 0.51559 0.67937 0.01019 0.0
C924 C 0.26545 0.48852 0.03465 0.0
C925 C 0.29882 0.50307 0.05128 0.0
H926 H 0.2377 0.46046 0.97647 0.0
C927 C 0.33037 0.50062 0.022 0.0
H928 H 0.24066 0.4911 0.05634 0.0
C929 C 0.32839 0.48431 0.97596 0.0
C930 C 0.2949 0.47028 0.95922 0.0
H931 H 0.35616 0.51236 0.03418 0.0
H932 H 0.3529 0.48247 0.95359 0.0
C933 C 0.26358 0.47188 0.9889 0.0
C934 C 0.51678 0.3197 0.98703 0.0
C935 C 0.51437 0.28774 0.95834 0.0
H936 H 0.5017 0.3458 0.05455 0.0
C937 C 0.49569 0.25678 0.97606 0.0
H938 H 0.53164 0.34362 0.97392 0.0
C939 C 0.4792 0.25788 0.02196 0.0
C940 C 0.48166 0.2898 0.05063 0.0
H941 H 0.49437 0.23166 0.95474 0.0
H942 H 0.46408 0.23407 0.03489 0.0
C943 C 0.50041 0.32074 0.0331 0.0
loop_
_geom_bond_atom_site_label_1
_geom_bond_atom_site_label_2
_geom_bond_distance
_geom_bond_site_symmetry_2
_ccdc_geom_bond_type
Co0 O3 1.970 . S
Co0 N17 1.989 . S
Co0 O25 1.967 . S
Co0 O32 1.920 . S
Co1 O4 1.966 . S
Co1 N10 2.022 . S
Co1 N18 1.993 . S
Co1 O26 1.941 . S
C2 O3 1.258 . S
C2 O4 1.263 . S
O3 Co0 1.970 . S
O3 C2 1.258 . S
O4 Co1 1.966 . S
O4 C2 1.263 . S
C5 O6 1.235 . S
C5 O32 1.289 . S
O6 C5 1.235 . S
C7 C9 1.400 1_545 S
C7 N10 1.351 . S
C7 C12 1.501 . S
C8 C9 1.387 . S
C8 N11 1.341 . S
C9 C7 1.400 1_565 S
C9 C8 1.387 . S
N10 Co1 2.022 . S
N10 C7 1.351 . S
N10 N11 1.365 1_545 S
N11 C8 1.341 . S
N11 N10 1.365 1_565 S
N11 H31 0.862 1_565 S
C12 C7 1.501 . S
C12 H13 0.961 . S
C12 H14 0.961 . S
C12 H15 0.960 . S
H13 C12 0.961 . S
H14 C12 0.961 . S
H15 C12 0.960 . S
C16 N17 1.342 . S
C16 C20 1.401 . S
C16 C21 1.499 . S
N17 Co0 1.989 . S
N17 C16 1.342 . S
N17 N18 1.388 . S
N18 Co1 1.993 . S
N18 N17 1.388 . S
N18 C19 1.346 . S
C19 N18 1.346 . S
C19 C20 1.396 . S
C19 C29 1.510 1_545 S
C20 C16 1.401 . S
C20 C19 1.396 . S
C21 C16 1.499 . S
C21 H22 0.959 . S
C21 H23 0.960 . S
C21 H24 0.961 . S
H22 C21 0.959 . S
H23 C21 0.960 . S
H24 C21 0.961 . S
O25 Co0 1.967 . S
O25 C33 1.258 . S
O26 Co1 1.941 . S
O26 C33 1.266 . S
H27 C29 0.959 . S
H28 C29 0.961 . S
C29 C19 1.510 1_565 S
C29 H27 0.959 . S
C29 H28 0.961 . S
C29 H30 0.960 . S
H30 C29 0.960 . S
H31 N11 0.862 1_545 S
O32 Co0 1.920 . S
O32 C5 1.289 . S
C33 O25 1.258 . S
C33 O26 1.266 . S
Co34 O37 1.970 . S
Co34 N51 1.989 . S
Co34 O59 1.967 . S
Co34 O66 1.920 . S
Co35 O38 1.966 . S
Co35 N44 2.022 . S
Co35 N52 1.993 . S
Co35 O60 1.941 . S
C36 O37 1.258 . S
C36 O38 1.263 . S
O37 Co34 1.970 . S
O37 C36 1.258 . S
O38 Co35 1.966 . S
O38 C36 1.263 . S
C39 O40 1.235 . S
C39 O66 1.289 . S
O40 C39 1.235 . S
C41 C43 1.400 1_655 S
C41 N44 1.351 . S
C41 C46 1.501 . S
C42 C43 1.387 . S
C42 N45 1.341 . S
C43 C41 1.400 1_455 S
C43 C42 1.387 . S
N44 Co35 2.022 . S
N44 C41 1.351 . S
N44 N45 1.365 1_655 S
N45 C42 1.341 . S
N45 N44 1.365 1_455 S
N45 H65 0.862 1_455 S
C46 C41 1.501 . S
C46 H47 0.961 . S
C46 H48 0.961 . S
C46 H49 0.960 . S
H47 C46 0.961 . S
H48 C46 0.961 . S
H49 C46 0.960 . S
C50 N51 1.342 . S
C50 C54 1.401 . S
C50 C55 1.499 . S
N51 Co34 1.989 . S
N51 C50 1.342 . S
N51 N52 1.388 . S
N52 Co35 1.993 . S
N52 N51 1.388 . S
N52 C53 1.346 . S
C53 N52 1.346 . S
C53 C54 1.396 . S
C53 C63 1.510 1_655 S
C54 C50 1.401 . S
C54 C53 1.396 . S
C55 C50 1.499 . S
C55 H56 0.959 . S
C55 H57 0.960 . S
C55 H58 0.961 . S
H56 C55 0.959 . S
H57 C55 0.960 . S
H58 C55 0.961 . S
O59 Co34 1.967 . S
O59 C67 1.258 . S
O60 Co35 1.941 . S
O60 C67 1.266 . S
H61 C63 0.959 . S
H62 C63 0.961 . S
C63 C53 1.510 1_455 S
C63 H61 0.959 . S
C63 H62 0.961 . S
C63 H64 0.960 . S
H64 C63 0.960 . S
H65 N45 0.862 1_655 S
O66 Co34 1.920 . S
O66 C39 1.289 . S
C67 O59 1.258 . S
C67 O60 1.266 . S
Co68 O71 1.970 . S
Co68 N85 1.989 . S
Co68 O93 1.967 . S
Co68 O100 1.920 . S
Co69 O72 1.966 . S
Co69 N78 2.022 . S
Co69 N86 1.993 . S
Co69 O94 1.941 . S
C70 O71 1.258 . S
C70 O72 1.263 . S
O71 Co68 1.970 . S
O71 C70 1.258 . S
O72 Co69 1.966 . S
O72 C70 1.263 . S
C73 O74 1.235 . S
C73 O100 1.289 . S
O74 C73 1.235 . S
C75 C77 1.400 1_565 S
C75 N78 1.351 . S
C75 C80 1.501 . S
C76 C77 1.387 . S
C76 N79 1.341 . S
C77 C75 1.400 1_545 S
C77 C76 1.387 . S
N78 Co69 2.022 . S
N78 C75 1.351 . S
N78 N79 1.365 1_565 S
N79 C76 1.341 . S
N79 N78 1.365 1_545 S
N79 H99 0.862 1_545 S
C80 C75 1.501 . S
C80 H81 0.961 . S
C80 H82 0.961 . S
C80 H83 0.960 . S
H81 C80 0.961 . S
H82 C80 0.961 . S
H83 C80 0.960 . S
C84 N85 1.342 . S
C84 C88 1.401 . S
C84 C89 1.499 . S
N85 Co68 1.989 . S
N85 C84 1.342 . S
N85 N86 1.388 . S
N86 Co69 1.993 . S
N86 N85 1.388 . S
N86 C87 1.346 . S
C87 N86 1.346 . S
C87 C88 1.396 . S
C87 C97 1.510 1_565 S
C88 C84 1.401 . S
C88 C87 1.396 . S
C89 C84 1.499 . S
C89 H90 0.959 . S
C89 H91 0.960 . S
C89 H92 0.961 . S
H90 C89 0.959 . S
H91 C89 0.960 . S
H92 C89 0.961 . S
O93 Co68 1.967 . S
O93 C101 1.258 . S
O94 Co69 1.941 . S
O94 C101 1.266 . S
H95 C97 0.959 . S
H96 C97 0.961 . S
C97 C87 1.510 1_545 S
C97 H95 0.959 . S
C97 H96 0.961 . S
C97 H98 0.960 . S
H98 C97 0.960 . S
H99 N79 0.862 1_565 S
O100 Co68 1.920 . S
O100 C73 1.289 . S
C101 O93 1.258 . S
C101 O94 1.266 . S
Co102 O105 1.970 . S
Co102 N119 1.989 . S
Co102 O127 1.967 . S
Co102 O134 1.920 . S
Co103 O106 1.966 . S
Co103 N112 2.022 . S
Co103 N120 1.993 . S
Co103 O128 1.941 . S
C104 O105 1.258 . S
C104 O106 1.263 . S
O105 Co102 1.970 . S
O105 C104 1.258 . S
O106 Co103 1.966 . S
O106 C104 1.263 . S
C107 O108 1.235 . S
C107 O134 1.289 . S
O108 C107 1.235 . S
C109 C111 1.400 1_455 S
C109 N112 1.351 . S
C109 C114 1.501 . S
C110 C111 1.387 . S
C110 N113 1.341 . S
C111 C109 1.400 1_655 S
C111 C110 1.387 . S
N112 Co103 2.022 . S
N112 C109 1.351 . S
N112 N113 1.365 1_455 S
N113 C110 1.341 . S
N113 N112 1.365 1_655 S
N113 H133 0.862 1_655 S
C114 C109 1.501 . S
C114 H115 0.961 . S
C114 H116 0.961 . S
C114 H117 0.960 . S
H115 C114 0.961 . S
H116 C114 0.961 . S
H117 C114 0.960 . S
C118 N119 1.342 . S
C118 C122 1.401 . S
C118 C123 1.499 . S
N119 Co102 1.989 . S
N119 C118 1.342 . S
N119 N120 1.388 . S
N120 Co103 1.993 . S
N120 N119 1.388 . S
N120 C121 1.346 . S
C121 N120 1.346 . S
C121 C122 1.396 . S
C121 C131 1.510 1_455 S
C122 C118 1.401 . S
C122 C121 1.396 . S
C123 C118 1.499 . S
C123 H124 0.959 . S
C123 H125 0.960 . S
C123 H126 0.961 . S
H124 C123 0.959 . S
H125 C123 0.960 . S
H126 C123 0.961 . S
O127 Co102 1.967 . S
O127 C135 1.258 . S
O128 Co103 1.941 . S
O128 C135 1.266 . S
H129 C131 0.959 . S
H130 C131 0.961 . S
C131 C121 1.510 1_655 S
C131 H129 0.959 . S
C131 H130 0.961 . S
C131 H132 0.960 . S
H132 C131 0.960 . S
H133 N113 0.862 1_455 S
O134 Co102 1.920 . S
O134 C107 1.289 . S
C135 O127 1.258 . S
C135 O128 1.266 . S
Co136 O139 1.970 . S
Co136 N153 1.989 . S
Co136 O161 1.967 . S
Co136 O168 1.920 . S
Co137 O140 1.966 . S
Co137 N146 2.022 . S
Co137 N154 1.993 . S
Co137 O162 1.941 . S
C138 O139 1.258 . S
C138 O140 1.263 . S
O139 Co136 1.970 . S
O139 C138 1.258 . S
O140 Co137 1.966 . S
O140 C138 1.263 . S
C141 O142 1.235 . S
C141 O168 1.289 . S
O142 C141 1.235 . S
C143 C145 1.400 1_565 S
C143 N146 1.351 . S
C143 C148 1.501 . S
C144 C145 1.387 . S
C144 N147 1.341 . S
C145 C143 1.400 1_545 S
C145 C144 1.387 . S
N146 Co137 2.022 . S
N146 C143 1.351 . S
N146 N147 1.365 1_565 S
N147 C144 1.341 . S
N147 N146 1.365 1_545 S
N147 H167 0.862 1_545 S
C148 C143 1.501 . S
C148 H149 0.961 . S
C148 H150 0.961 . S
C148 H151 0.960 . S
H149 C148 0.961 . S
H150 C148 0.961 . S
H151 C148 0.960 . S
C152 N153 1.342 . S
C152 C156 1.401 . S
C152 C157 1.499 . S
N153 Co136 1.989 . S
N153 C152 1.342 . S
N153 N154 1.388 . S
N154 Co137 1.993 . S
N154 N153 1.388 . S
N154 C155 1.346 . S
C155 N154 1.346 . S
C155 C156 1.396 . S
C155 C165 1.510 1_565 S
C156 C152 1.401 . S
C156 C155 1.396 . S
C157 C152 1.499 . S
C157 H158 0.959 . S
C157 H159 0.960 . S
C157 H160 0.961 . S
H158 C157 0.959 . S
H159 C157 0.960 . S
H160 C157 0.961 . S
O161 Co136 1.967 . S
O161 C169 1.258 . S
O162 Co137 1.941 . S
O162 C169 1.266 . S
H163 C165 0.959 . S
H164 C165 0.961 . S
C165 C155 1.510 1_545 S
C165 H163 0.959 . S
C165 H164 0.961 . S
C165 H166 0.960 . S
H166 C165 0.960 . S
H167 N147 0.862 1_565 S
O168 Co136 1.920 . S
O168 C141 1.289 . S
C169 O161 1.258 . S
C169 O162 1.266 . S
Co170 O173 1.970 . S
Co170 N187 1.989 . S
Co170 O195 1.967 . S
Co170 O202 1.920 . S
Co171 O174 1.966 . S
Co171 N180 2.022 . S
Co171 N188 1.993 . S
Co171 O196 1.941 . S
C172 O173 1.258 . S
C172 O174 1.263 . S
O173 Co170 1.970 . S
O173 C172 1.258 . S
O174 Co171 1.966 . S
O174 C172 1.263 . S
C175 O176 1.235 . S
C175 O202 1.289 . S
O176 C175 1.235 . S
C177 C179 1.400 1_455 S
C177 N180 1.351 . S
C177 C182 1.501 . S
C178 C179 1.387 . S
C178 N181 1.341 . S
C179 C177 1.400 1_655 S
C179 C178 1.387 . S
N180 Co171 2.022 . S
N180 C177 1.351 . S
N180 N181 1.365 1_455 S
N181 C178 1.341 . S
N181 N180 1.365 1_655 S
N181 H201 0.862 1_655 S
C182 C177 1.501 . S
C182 H183 0.961 . S
C182 H184 0.961 . S
C182 H185 0.960 . S
H183 C182 0.961 . S
H184 C182 0.961 . S
H185 C182 0.960 . S
C186 N187 1.342 . S
C186 C190 1.401 . S
C186 C191 1.499 . S
N187 Co170 1.989 . S
N187 C186 1.342 . S
N187 N188 1.388 . S
N188 Co171 1.993 . S
N188 N187 1.388 . S
N188 C189 1.346 . S
C189 N188 1.346 . S
C189 C190 1.396 . S
C189 C199 1.510 1_455 S
C190 C186 1.401 . S
C190 C189 1.396 . S
C191 C186 1.499 . S
C191 H192 0.959 . S
C191 H193 0.960 . S
C191 H194 0.961 . S
H192 C191 0.959 . S
H193 C191 0.960 . S
H194 C191 0.961 . S
O195 Co170 1.967 . S
O195 C203 1.258 . S
O196 Co171 1.941 . S
O196 C203 1.266 . S
H197 C199 0.959 . S
H198 C199 0.961 . S
C199 C189 1.510 1_655 S
C199 H197 0.959 . S
C199 H198 0.961 . S
C199 H200 0.960 . S
H200 C199 0.960 . S
H201 N181 0.862 1_455 S
O202 Co170 1.920 . S
O202 C175 1.289 . S
C203 O195 1.258 . S
C203 O196 1.266 . S
Co204 O207 1.970 . S
Co204 N221 1.989 . S
Co204 O229 1.967 . S
Co204 O236 1.920 . S
Co205 O208 1.966 . S
Co205 N214 2.022 . S
Co205 N222 1.993 . S
Co205 O230 1.941 . S
C206 O207 1.258 . S
C206 O208 1.263 . S
O207 Co204 1.970 . S
O207 C206 1.258 . S
O208 Co205 1.966 . S
O208 C206 1.263 . S
C209 O210 1.235 . S
C209 O236 1.289 . S
O210 C209 1.235 . S
C211 C213 1.400 1_545 S
C211 N214 1.351 . S
C211 C216 1.501 . S
C212 C213 1.387 . S
C212 N215 1.341 . S
C213 C211 1.400 1_565 S
C213 C212 1.387 . S
N214 Co205 2.022 . S
N214 C211 1.351 . S
N214 N215 1.365 1_545 S
N215 C212 1.341 . S
N215 N214 1.365 1_565 S
N215 H235 0.862 1_565 S
C216 C211 1.501 . S
C216 H217 0.961 . S
C216 H218 0.961 . S
C216 H219 0.960 . S
H217 C216 0.961 . S
H218 C216 0.961 . S
H219 C216 0.960 . S
C220 N221 1.342 . S
C220 C224 1.401 . S
C220 C225 1.499 . S
N221 Co204 1.989 . S
N221 C220 1.342 . S
N221 N222 1.388 . S
N222 Co205 1.993 . S
N222 N221 1.388 . S
N222 C223 1.346 . S
C223 N222 1.346 . S
C223 C224 1.396 . S
C223 C233 1.510 1_545 S
C224 C220 1.401 . S
C224 C223 1.396 . S
C225 C220 1.499 . S
C225 H226 0.959 . S
C225 H227 0.960 . S
C225 H228 0.961 . S
H226 C225 0.959 . S
H227 C225 0.960 . S
H228 C225 0.961 . S
O229 Co204 1.967 . S
O229 C237 1.258 . S
O230 Co205 1.941 . S
O230 C237 1.266 . S
H231 C233 0.959 . S
H232 C233 0.961 . S
C233 C223 1.510 1_565 S
C233 H231 0.959 . S
C233 H232 0.961 . S
C233 H234 0.960 . S
H234 C233 0.960 . S
H235 N215 0.862 1_545 S
O236 Co204 1.920 . S
O236 C209 1.289 . S
C237 O229 1.258 . S
C237 O230 1.266 . S
Co238 O241 1.970 . S
Co238 N255 1.989 . S
Co238 O263 1.967 . S
Co238 O270 1.920 . S
Co239 O242 1.966 . S
Co239 N248 2.022 . S
Co239 N256 1.993 . S
Co239 O264 1.941 . S
C240 O241 1.258 . S
C240 O242 1.263 . S
O241 Co238 1.970 . S
O241 C240 1.258 . S
O242 Co239 1.966 . S
O242 C240 1.263 . S
C243 O244 1.235 . S
C243 O270 1.289 . S
O244 C243 1.235 . S
C245 C247 1.400 1_655 S
C245 N248 1.351 . S
C245 C250 1.501 . S
C246 C247 1.387 . S
C246 N249 1.341 . S
C247 C245 1.400 1_455 S
C247 C246 1.387 . S
N248 Co239 2.022 . S
N248 C245 1.351 . S
N248 N249 1.365 1_655 S
N249 C246 1.341 . S
N249 N248 1.365 1_455 S
N249 H269 0.862 1_455 S
C250 C245 1.501 . S
C250 H251 0.961 . S
C250 H252 0.961 . S
C250 H253 0.960 . S
H251 C250 0.961 . S
H252 C250 0.961 . S
H253 C250 0.960 . S
C254 N255 1.342 . S
C254 C258 1.401 . S
C254 C259 1.499 . S
N255 Co238 1.989 . S
N255 C254 1.342 . S
N255 N256 1.388 . S
N256 Co239 1.993 . S
N256 N255 1.388 . S
N256 C257 1.346 . S
C257 N256 1.346 . S
C257 C258 1.396 . S
C257 C267 1.510 1_655 S
C258 C254 1.401 . S
C258 C257 1.396 . S
C259 C254 1.499 . S
C259 H260 0.959 . S
C259 H261 0.960 . S
C259 H262 0.961 . S
H260 C259 0.959 . S
H261 C259 0.960 . S
H262 C259 0.961 . S
O263 Co238 1.967 . S
O263 C271 1.258 . S
O264 Co239 1.941 . S
O264 C271 1.266 . S
H265 C267 0.959 . S
H266 C267 0.961 . S
C267 C257 1.510 1_455 S
C267 H265 0.959 . S
C267 H266 0.961 . S
C267 H268 0.960 . S
H268 C267 0.960 . S
H269 N249 0.862 1_655 S
O270 Co238 1.920 . S
O270 C243 1.289 . S
C271 O263 1.258 . S
C271 O264 1.266 . S
Co272 O275 1.970 . S
Co272 N289 1.989 . S
Co272 O297 1.967 . S
Co272 O304 1.920 . S
Co273 O276 1.966 . S
Co273 N282 2.022 . S
Co273 N290 1.993 . S
Co273 O298 1.941 . S
C274 O275 1.258 . S
C274 O276 1.263 . S
O275 Co272 1.970 . S
O275 C274 1.258 . S
O276 Co273 1.966 . S
O276 C274 1.263 . S
C277 O278 1.235 . S
C277 O304 1.289 . S
O278 C277 1.235 . S
C279 C281 1.400 . S
C279 N282 1.351 . S
C279 C284 1.501 . S
C280 C281 1.387 . S
C280 N283 1.341 . S
C281 C279 1.400 . S
C281 C280 1.387 . S
N282 Co273 2.022 . S
N282 C279 1.351 . S
N282 N283 1.365 . S
N283 C280 1.341 . S
N283 N282 1.365 . S
N283 H303 0.862 . S
C284 C279 1.501 . S
C284 H285 0.961 . S
C284 H286 0.961 . S
C284 H287 0.960 . S
H285 C284 0.961 . S
H286 C284 0.961 . S
H287 C284 0.960 . S
C288 N289 1.342 . S
C288 C292 1.401 . S
C288 C293 1.499 . S
N289 Co272 1.989 . S
N289 C288 1.342 . S
N289 N290 1.388 . S
N290 Co273 1.993 . S
N290 N289 1.388 . S
N290 C291 1.346 . S
C291 N290 1.346 . S
C291 C292 1.396 . S
C291 C301 1.510 . S
C292 C288 1.401 . S
C292 C291 1.396 . S
C293 C288 1.499 . S
C293 H294 0.959 . S
C293 H295 0.960 . S
C293 H296 0.961 . S
H294 C293 0.959 . S
H295 C293 0.960 . S
H296 C293 0.961 . S
O297 Co272 1.967 . S
O297 C305 1.258 . S
O298 Co273 1.941 . S
O298 C305 1.266 . S
H299 C301 0.959 . S
H300 C301 0.961 . S
C301 C291 1.510 . S
C301 H299 0.959 . S
C301 H300 0.961 . S
C301 H302 0.960 . S
H302 C301 0.960 . S
H303 N283 0.862 . S
O304 Co272 1.920 . S
O304 C277 1.289 . S
C305 O297 1.258 . S
C305 O298 1.266 . S
Co306 O309 1.970 . S
Co306 N323 1.989 . S
Co306 O331 1.967 . S
Co306 O338 1.920 . S
Co307 O310 1.966 . S
Co307 N316 2.022 . S
Co307 N324 1.993 . S
Co307 O332 1.941 . S
C308 O309 1.258 . S
C308 O310 1.263 . S
O309 Co306 1.970 . S
O309 C308 1.258 . S
O310 Co307 1.966 . S
O310 C308 1.263 . S
C311 O312 1.235 . S
C311 O338 1.289 . S
O312 C311 1.235 . S
C313 C315 1.400 . S
C313 N316 1.351 . S
C313 C318 1.501 . S
C314 C315 1.387 . S
C314 N317 1.341 . S
C315 C313 1.400 . S
C315 C314 1.387 . S
N316 Co307 2.022 . S
N316 C313 1.351 . S
N316 N317 1.365 . S
N317 C314 1.341 . S
N317 N316 1.365 . S
N317 H337 0.862 . S
C318 C313 1.501 . S
C318 H319 0.961 . S
C318 H320 0.961 . S
C318 H321 0.960 . S
H319 C318 0.961 . S
H320 C318 0.961 . S
H321 C318 0.960 . S
C322 N323 1.342 . S
C322 C326 1.401 . S
C322 C327 1.499 . S
N323 Co306 1.989 . S
N323 C322 1.342 . S
N323 N324 1.388 . S
N324 Co307 1.993 . S
N324 N323 1.388 . S
N324 C325 1.346 . S
C325 N324 1.346 . S
C325 C326 1.396 . S
C325 C335 1.510 . S
C326 C322 1.401 . S
C326 C325 1.396 . S
C327 C322 1.499 . S
C327 H328 0.959 . S
C327 H329 0.960 . S
C327 H330 0.961 . S
H328 C327 0.959 . S
H329 C327 0.960 . S
H330 C327 0.961 . S
O331 Co306 1.967 . S
O331 C339 1.258 . S
O332 Co307 1.941 . S
O332 C339 1.266 . S
H333 C335 0.959 . S
H334 C335 0.961 . S
C335 C325 1.510 . S
C335 H333 0.959 . S
C335 H334 0.961 . S
C335 H336 0.960 . S
H336 C335 0.960 . S
H337 N317 0.862 . S
O338 Co306 1.920 . S
O338 C311 1.289 . S
C339 O331 1.258 . S
C339 O332 1.266 . S
Co340 O343 1.970 . S
Co340 N357 1.989 . S
Co340 O365 1.967 . S
Co340 O372 1.920 . S
Co341 O344 1.966 . S
Co341 N350 2.022 . S
Co341 N358 1.993 . S
Co341 O366 1.941 . S
C342 O343 1.258 . S
C342 O344 1.263 . S
O343 Co340 1.970 . S
O343 C342 1.258 . S
O344 Co341 1.966 . S
O344 C342 1.263 . S
C345 O346 1.235 . S
C345 O372 1.289 . S
O346 C345 1.235 . S
C347 C349 1.400 . S
C347 N350 1.351 . S
C347 C352 1.501 . S
C348 C349 1.387 . S
C348 N351 1.341 . S
C349 C347 1.400 . S
C349 C348 1.387 . S
N350 Co341 2.022 . S
N350 C347 1.351 . S
N350 N351 1.365 . S
N351 C348 1.341 . S
N351 N350 1.365 . S
N351 H371 0.862 . S
C352 C347 1.501 . S
C352 H353 0.961 . S
C352 H354 0.961 . S
C352 H355 0.960 . S
H353 C352 0.961 . S
H354 C352 0.961 . S
H355 C352 0.960 . S
C356 N357 1.342 . S
C356 C360 1.401 . S
C356 C361 1.499 . S
N357 Co340 1.989 . S
N357 C356 1.342 . S
N357 N358 1.388 . S
N358 Co341 1.993 . S
N358 N357 1.388 . S
N358 C359 1.346 . S
C359 N358 1.346 . S
C359 C360 1.396 . S
C359 C369 1.510 . S
C360 C356 1.401 . S
C360 C359 1.396 . S
C361 C356 1.499 . S
C361 H362 0.959 . S
C361 H363 0.960 . S
C361 H364 0.961 . S
H362 C361 0.959 . S
H363 C361 0.960 . S
H364 C361 0.961 . S
O365 Co340 1.967 . S
O365 C373 1.258 . S
O366 Co341 1.941 . S
O366 C373 1.266 . S
H367 C369 0.959 . S
H368 C369 0.961 . S
C369 C359 1.510 . S
C369 H367 0.959 . S
C369 H368 0.961 . S
C369 H370 0.960 . S
H370 C369 0.960 . S
H371 N351 0.862 . S
O372 Co340 1.920 . S
O372 C345 1.289 . S
C373 O365 1.258 . S
C373 O366 1.266 . S
Co374 O377 1.970 . S
Co374 N391 1.989 . S
Co374 O399 1.967 . S
Co374 O406 1.920 . S
Co375 O378 1.966 . S
Co375 N384 2.022 . S
Co375 N392 1.993 . S
Co375 O400 1.941 . S
C376 O377 1.258 . S
C376 O378 1.263 . S
O377 Co374 1.970 . S
O377 C376 1.258 . S
O378 Co375 1.966 . S
O378 C376 1.263 . S
C379 O380 1.235 . S
C379 O406 1.289 . S
O380 C379 1.235 . S
C381 C383 1.400 . S
C381 N384 1.351 . S
C381 C386 1.501 . S
C382 C383 1.387 . S
C382 N385 1.341 . S
C383 C381 1.400 . S
C383 C382 1.387 . S
N384 Co375 2.022 . S
N384 C381 1.351 . S
N384 N385 1.365 . S
N385 C382 1.341 . S
N385 N384 1.365 . S
N385 H405 0.862 . S
C386 C381 1.501 . S
C386 H387 0.961 . S
C386 H388 0.961 . S
C386 H389 0.960 . S
H387 C386 0.961 . S
H388 C386 0.961 . S
H389 C386 0.960 . S
C390 N391 1.342 . S
C390 C394 1.401 . S
C390 C395 1.499 . S
N391 Co374 1.989 . S
N391 C390 1.342 . S
N391 N392 1.388 . S
N392 Co375 1.993 . S
N392 N391 1.388 . S
N392 C393 1.346 . S
C393 N392 1.346 . S
C393 C394 1.396 . S
C393 C403 1.510 . S
C394 C390 1.401 . S
C394 C393 1.396 . S
C395 C390 1.499 . S
C395 H396 0.959 . S
C395 H397 0.960 . S
C395 H398 0.961 . S
H396 C395 0.959 . S
H397 C395 0.960 . S
H398 C395 0.961 . S
O399 Co374 1.967 . S
O399 C407 1.258 . S
O400 Co375 1.941 . S
O400 C407 1.266 . S
H401 C403 0.959 . S
H402 C403 0.961 . S
C403 C393 1.510 . S
C403 H401 0.959 . S
C403 H402 0.961 . S
C403 H404 0.960 . S
H404 C403 0.960 . S
H405 N385 0.862 . S
O406 Co374 1.920 . S
O406 C379 1.289 . S
C407 O399 1.258 . S
C407 O400 1.266 . S
Co408 O411 1.970 . S
Co408 N425 1.989 . S
Co408 O433 1.967 . S
Co408 O440 1.920 . S
Co409 O412 1.966 . S
Co409 N418 2.022 . S
Co409 N426 1.993 . S
Co409 O434 1.941 . S
C410 O411 1.258 . S
C410 O412 1.263 . S
O411 Co408 1.970 . S
O411 C410 1.258 . S
O412 Co409 1.966 . S
O412 C410 1.263 . S
C413 O414 1.235 . S
C413 O440 1.289 . S
O414 C413 1.235 . S
C415 C417 1.400 . S
C415 N418 1.351 . S
C415 C420 1.501 . S
C416 C417 1.387 . S
C416 N419 1.341 . S
C417 C415 1.400 . S
C417 C416 1.387 . S
N418 Co409 2.022 . S
N418 C415 1.351 . S
N418 N419 1.365 . S
N419 C416 1.341 . S
N419 N418 1.365 . S
N419 H439 0.862 . S
C420 C415 1.501 . S
C420 H421 0.961 . S
C420 H422 0.961 . S
C420 H423 0.960 . S
H421 C420 0.961 . S
H422 C420 0.961 . S
H423 C420 0.960 . S
C424 N425 1.342 . S
C424 C428 1.401 . S
C424 C429 1.499 . S
N425 Co408 1.989 . S
N425 C424 1.342 . S
N425 N426 1.388 . S
N426 Co409 1.993 . S
N426 N425 1.388 . S
N426 C427 1.346 . S
C427 N426 1.346 . S
C427 C428 1.396 . S
C427 C437 1.510 . S
C428 C424 1.401 . S
C428 C427 1.396 . S
C429 C424 1.499 . S
C429 H430 0.959 . S
C429 H431 0.960 . S
C429 H432 0.961 . S
H430 C429 0.959 . S
H431 C429 0.960 . S
H432 C429 0.961 . S
O433 Co408 1.967 . S
O433 C441 1.258 . S
O434 Co409 1.941 . S
O434 C441 1.266 . S
H435 C437 0.959 . S
H436 C437 0.961 . S
C437 C427 1.510 . S
C437 H435 0.959 . S
C437 H436 0.961 . S
C437 H438 0.960 . S
H438 C437 0.960 . S
H439 N419 0.862 . S
O440 Co408 1.920 . S
O440 C413 1.289 . S
C441 O433 1.258 . S
C441 O434 1.266 . S
Co442 O445 1.970 . S
Co442 N459 1.989 . S
Co442 O467 1.967 . S
Co442 O474 1.920 . S
Co443 O446 1.966 . S
Co443 N452 2.022 . S
Co443 N460 1.993 . S
Co443 O468 1.941 . S
C444 O445 1.258 . S
C444 O446 1.263 . S
O445 Co442 1.970 . S
O445 C444 1.258 . S
O446 Co443 1.966 . S
O446 C444 1.263 . S
C447 O448 1.235 . S
C447 O474 1.289 . S
O448 C447 1.235 . S
C449 C451 1.400 . S
C449 N452 1.351 . S
C449 C454 1.501 . S
C450 C451 1.387 . S
C450 N453 1.341 . S
C451 C449 1.400 . S
C451 C450 1.387 . S
N452 Co443 2.022 . S
N452 C449 1.351 . S
N452 N453 1.365 . S
N453 C450 1.341 . S
N453 N452 1.365 . S
N453 H473 0.862 . S
C454 C449 1.501 . S
C454 H455 0.961 . S
C454 H456 0.961 . S
C454 H457 0.960 . S
H455 C454 0.961 . S
H456 C454 0.961 . S
H457 C454 0.960 . S
C458 N459 1.342 . S
C458 C462 1.401 . S
C458 C463 1.499 . S
N459 Co442 1.989 . S
N459 C458 1.342 . S
N459 N460 1.388 . S
N460 Co443 1.993 . S
N460 N459 1.388 . S
N460 C461 1.346 . S
C461 N460 1.346 . S
C461 C462 1.396 . S
C461 C471 1.510 . S
C462 C458 1.401 . S
C462 C461 1.396 . S
C463 C458 1.499 . S
C463 H464 0.959 . S
C463 H465 0.960 . S
C463 H466 0.961 . S
H464 C463 0.959 . S
H465 C463 0.960 . S
H466 C463 0.961 . S
O467 Co442 1.967 . S
O467 C475 1.258 . S
O468 Co443 1.941 . S
O468 C475 1.266 . S
H469 C471 0.959 . S
H470 C471 0.961 . S
C471 C461 1.510 . S
C471 H469 0.959 . S
C471 H470 0.961 . S
C471 H472 0.960 . S
H472 C471 0.960 . S
H473 N453 0.862 . S
O474 Co442 1.920 . S
O474 C447 1.289 . S
C475 O467 1.258 . S
C475 O468 1.266 . S
Co476 O479 1.970 . S
Co476 N493 1.989 . S
Co476 O501 1.967 . S
Co476 O508 1.920 . S
Co477 O480 1.966 . S
Co477 N486 2.022 . S
Co477 N494 1.993 . S
Co477 O502 1.941 . S
C478 O479 1.258 . S
C478 O480 1.263 . S
O479 Co476 1.970 . S
O479 C478 1.258 . S
O480 Co477 1.966 . S
O480 C478 1.263 . S
C481 O482 1.235 . S
C481 O508 1.289 . S
O482 C481 1.235 . S
C483 C485 1.400 . S
C483 N486 1.351 . S
C483 C488 1.501 . S
C484 C485 1.387 . S
C484 N487 1.341 . S
C485 C483 1.400 . S
C485 C484 1.387 . S
N486 Co477 2.022 . S
N486 C483 1.351 . S
N486 N487 1.365 . S
N487 C484 1.341 . S
N487 N486 1.365 . S
N487 H507 0.862 . S
C488 C483 1.501 . S
C488 H489 0.961 . S
C488 H490 0.961 . S
C488 H491 0.960 . S
H489 C488 0.961 . S
H490 C488 0.961 . S
H491 C488 0.960 . S
C492 N493 1.342 . S
C492 C496 1.401 . S
C492 C497 1.499 . S
N493 Co476 1.989 . S
N493 C492 1.342 . S
N493 N494 1.388 . S
N494 Co477 1.993 . S
N494 N493 1.388 . S
N494 C495 1.346 . S
C495 N494 1.346 . S
C495 C496 1.396 . S
C495 C505 1.510 . S
C496 C492 1.401 . S
C496 C495 1.396 . S
C497 C492 1.499 . S
C497 H498 0.959 . S
C497 H499 0.960 . S
C497 H500 0.961 . S
H498 C497 0.959 . S
H499 C497 0.960 . S
H500 C497 0.961 . S
O501 Co476 1.967 . S
O501 C509 1.258 . S
O502 Co477 1.941 . S
O502 C509 1.266 . S
H503 C505 0.959 . S
H504 C505 0.961 . S
C505 C495 1.510 . S
C505 H503 0.959 . S
C505 H504 0.961 . S
C505 H506 0.960 . S
H506 C505 0.960 . S
H507 N487 0.862 . S
O508 Co476 1.920 . S
O508 C481 1.289 . S
C509 O501 1.258 . S
C509 O502 1.266 . S
Co510 O513 1.970 . S
Co510 N527 1.989 . S
Co510 O535 1.967 . S
Co510 O542 1.920 . S
Co511 O514 1.966 . S
Co511 N520 2.022 . S
Co511 N528 1.993 . S
Co511 O536 1.941 . S
C512 O513 1.258 . S
C512 O514 1.263 . S
O513 Co510 1.970 . S
O513 C512 1.258 . S
O514 Co511 1.966 . S
O514 C512 1.263 . S
C515 O516 1.235 . S
C515 O542 1.289 . S
O516 C515 1.235 . S
C517 C519 1.400 . S
C517 N520 1.351 . S
C517 C522 1.501 . S
C518 C519 1.387 . S
C518 N521 1.341 . S
C519 C517 1.400 . S
C519 C518 1.387 . S
N520 Co511 2.022 . S
N520 C517 1.351 . S
N520 N521 1.365 . S
N521 C518 1.341 . S
N521 N520 1.365 . S
N521 H541 0.862 . S
C522 C517 1.501 . S
C522 H523 0.961 . S
C522 H524 0.961 . S
C522 H525 0.960 . S
H523 C522 0.961 . S
H524 C522 0.961 . S
H525 C522 0.960 . S
C526 N527 1.342 . S
C526 C530 1.401 . S
C526 C531 1.499 . S
N527 Co510 1.989 . S
N527 C526 1.342 . S
N527 N528 1.388 . S
N528 Co511 1.993 . S
N528 N527 1.388 . S
N528 C529 1.346 . S
C529 N528 1.346 . S
C529 C530 1.396 . S
C529 C539 1.510 . S
C530 C526 1.401 . S
C530 C529 1.396 . S
C531 C526 1.499 . S
C531 H532 0.959 . S
C531 H533 0.960 . S
C531 H534 0.961 . S
H532 C531 0.959 . S
H533 C531 0.960 . S
H534 C531 0.961 . S
O535 Co510 1.967 . S
O535 C543 1.258 . S
O536 Co511 1.941 . S
O536 C543 1.266 . S
H537 C539 0.959 . S
H538 C539 0.961 . S
C539 C529 1.510 . S
C539 H537 0.959 . S
C539 H538 0.961 . S
C539 H540 0.960 . S
H540 C539 0.960 . S
H541 N521 0.862 . S
O542 Co510 1.920 . S
O542 C515 1.289 . S
C543 O535 1.258 . S
C543 O536 1.266 . S
C544 C545 1.387 . S
C544 H548 0.950 . S
C544 C553 1.390 . S
C545 C544 1.387 . S
C545 C547 1.387 . S
H546 C553 0.950 . S
C547 C545 1.387 . S
C547 C549 1.390 . S
C547 H551 0.950 . S
H548 C544 0.950 . S
C549 C547 1.390 . S
C549 C550 1.387 . S
C549 H552 0.950 . S
C550 C549 1.387 . S
C550 C553 1.387 . S
H551 C547 0.950 . S
H552 C549 0.950 . S
C553 C544 1.390 . S
C553 H546 0.950 . S
C553 C550 1.387 . S
C554 C555 1.387 . S
C554 H558 0.950 . S
C554 C563 1.390 . S
C555 C554 1.387 . S
C555 C557 1.387 . S
H556 C563 0.950 . S
C557 C555 1.387 . S
C557 C559 1.390 . S
C557 H561 0.950 . S
H558 C554 0.950 . S
C559 C557 1.390 . S
C559 C560 1.387 . S
C559 H562 0.950 . S
C560 C559 1.387 . S
C560 C563 1.387 . S
H561 C557 0.950 . S
H562 C559 0.950 . S
C563 C554 1.390 . S
C563 H556 0.950 . S
C563 C560 1.387 . S
C564 C565 1.387 . S
C564 H568 0.950 . S
C564 C573 1.390 . S
C565 C564 1.387 . S
C565 C567 1.387 . S
H566 C573 0.950 . S
C567 C565 1.387 . S
C567 C569 1.390 . S
C567 H571 0.950 . S
H568 C564 0.950 . S
C569 C567 1.390 . S
C569 C570 1.387 . S
C569 H572 0.950 . S
C570 C569 1.387 . S
C570 C573 1.387 . S
H571 C567 0.950 . S
H572 C569 0.950 . S
C573 C564 1.390 . S
C573 H566 0.950 . S
C573 C570 1.387 . S
C574 C575 1.387 . S
C574 H578 0.950 . S
C574 C583 1.390 . S
C575 C574 1.387 . S
C575 C577 1.387 . S
H576 C583 0.950 . S
C577 C575 1.387 . S
C577 C579 1.390 . S
C577 H581 0.950 . S
H578 C574 0.950 . S
C579 C577 1.390 . S
C579 C580 1.387 . S
C579 H582 0.950 . S
C580 C579 1.387 . S
C580 C583 1.387 . S
H581 C577 0.950 . S
H582 C579 0.950 . S
C583 C574 1.390 . S
C583 H576 0.950 . S
C583 C580 1.387 . S
C584 C585 1.387 . S
C584 H588 0.950 . S
C584 C593 1.390 . S
C585 C584 1.387 . S
C585 C587 1.387 . S
H586 C593 0.950 . S
C587 C585 1.387 . S
C587 C589 1.390 . S
C587 H591 0.950 . S
H588 C584 0.950 . S
C589 C587 1.390 . S
C589 C590 1.387 . S
C589 H592 0.950 . S
C590 C589 1.387 . S
C590 C593 1.387 . S
H591 C587 0.950 . S
H592 C589 0.950 . S
C593 C584 1.390 . S
C593 H586 0.950 . S
C593 C590 1.387 . S
C594 C595 1.387 . S
C594 H598 0.950 . S
C594 C603 1.390 . S
C595 C594 1.387 . S
C595 C597 1.387 . S
H596 C603 0.950 . S
C597 C595 1.387 . S
C597 C599 1.390 . S
C597 H601 0.950 . S
H598 C594 0.950 . S
C599 C597 1.390 . S
C599 C600 1.387 . S
C599 H602 0.950 . S
C600 C599 1.387 . S
C600 C603 1.387 . S
H601 C597 0.950 . S
H602 C599 0.950 . S
C603 C594 1.390 . S
C603 H596 0.950 . S
C603 C600 1.387 . S
C604 C605 1.387 . S
C604 H608 0.950 . S
C604 C613 1.390 . S
C605 C604 1.387 . S
C605 C607 1.387 . S
H606 C613 0.950 . S
C607 C605 1.387 . S
C607 C609 1.390 . S
C607 H611 0.950 . S
H608 C604 0.950 . S
C609 C607 1.390 . S
C609 C610 1.387 . S
C609 H612 0.950 . S
C610 C609 1.387 . S
C610 C613 1.387 . S
H611 C607 0.950 . S
H612 C609 0.950 . S
C613 C604 1.390 . S
C613 H606 0.950 . S
C613 C610 1.387 . S
C614 C615 1.387 . S
C614 H618 0.950 . S
C614 C623 1.390 . S
C615 C614 1.387 . S
C615 C617 1.387 . S
H616 C623 0.950 . S
C617 C615 1.387 . S
C617 C619 1.390 . S
C617 H621 0.950 . S
H618 C614 0.950 . S
C619 C617 1.390 . S
C619 C620 1.387 . S
C619 H622 0.950 . S
C620 C619 1.387 . S
C620 C623 1.387 . S
H621 C617 0.950 . S
H622 C619 0.950 . S
C623 C614 1.390 . S
C623 H616 0.950 . S
C623 C620 1.387 . S
C624 C625 1.387 . S
C624 H628 0.950 . S
C624 C633 1.390 . S
C625 C624 1.387 . S
C625 C627 1.387 . S
H626 C633 0.950 . S
C627 C625 1.387 . S
C627 C629 1.390 . S
C627 H631 0.950 . S
H628 C624 0.950 . S
C629 C627 1.390 . S
C629 C630 1.387 . S
C629 H632 0.950 . S
C630 C629 1.387 . S
C630 C633 1.387 . S
H631 C627 0.950 . S
H632 C629 0.950 . S
C633 C624 1.390 . S
C633 H626 0.950 . S
C633 C630 1.387 . S
C634 C635 1.387 . S
C634 H638 0.950 . S
C634 C643 1.390 . S
C635 C634 1.387 . S
C635 C637 1.387 . S
H636 C643 0.950 . S
C637 C635 1.387 . S
C637 C639 1.390 . S
C637 H641 0.950 . S
H638 C634 0.950 . S
C639 C637 1.390 . S
C639 C640 1.387 . S
C639 H642 0.950 . S
C640 C639 1.387 . S
C640 C643 1.387 . S
H641 C637 0.950 . S
H642 C639 0.950 . S
C643 C634 1.390 . S
C643 H636 0.950 . S
C643 C640 1.387 . S
C644 C645 1.387 . S
C644 H648 0.950 . S
C644 C653 1.390 . S
C645 C644 1.387 . S
C645 C647 1.387 . S
H646 C653 0.950 . S
C647 C645 1.387 . S
C647 C649 1.390 . S
C647 H651 0.950 . S
H648 C644 0.950 . S
C649 C647 1.390 . S
C649 C650 1.387 . S
C649 H652 0.950 . S
C650 C649 1.387 . S
C650 C653 1.387 . S
H651 C647 0.950 . S
H652 C649 0.950 . S
C653 C644 1.390 . S
C653 H646 0.950 . S
C653 C650 1.387 . S
C654 C655 1.387 . S
C654 H658 0.950 . S
C654 C663 1.390 . S
C655 C654 1.387 . S
C655 C657 1.387 . S
H656 C663 0.950 . S
C657 C655 1.387 . S
C657 C659 1.390 . S
C657 H661 0.950 . S
H658 C654 0.950 . S
C659 C657 1.390 . S
C659 C660 1.387 . S
C659 H662 0.950 . S
C660 C659 1.387 . S
C660 C663 1.387 . S
H661 C657 0.950 . S
H662 C659 0.950 . S
C663 C654 1.390 . S
C663 H656 0.950 . S
C663 C660 1.387 . S
C664 C665 1.387 . S
C664 H668 0.950 . S
C664 C673 1.390 . S
C665 C664 1.387 . S
C665 C667 1.387 . S
H666 C673 0.950 . S
C667 C665 1.387 . S
C667 C669 1.390 . S
C667 H671 0.950 . S
H668 C664 0.950 . S
C669 C667 1.390 . S
C669 C670 1.387 . S
C669 H672 0.950 . S
C670 C669 1.387 . S
C670 C673 1.387 . S
H671 C667 0.950 . S
H672 C669 0.950 . S
C673 C664 1.390 . S
C673 H666 0.950 . S
C673 C670 1.387 . S
C674 C675 1.387 . S
C674 H678 0.950 . S
C674 C683 1.390 . S
C675 C674 1.387 . S
C675 C677 1.387 . S
H676 C683 0.950 . S
C677 C675 1.387 . S
C677 C679 1.390 . S
C677 H681 0.950 . S
H678 C674 0.950 . S
C679 C677 1.390 . S
C679 C680 1.387 . S
C679 H682 0.950 . S
C680 C679 1.387 . S
C680 C683 1.387 . S
H681 C677 0.950 . S
H682 C679 0.950 . S
C683 C674 1.390 . S
C683 H676 0.950 . S
C683 C680 1.387 . S
C684 C685 1.387 . S
C684 H688 0.950 . S
C684 C693 1.390 . S
C685 C684 1.387 . S
C685 C687 1.387 . S
H686 C693 0.950 . S
C687 C685 1.387 . S
C687 C689 1.390 . S
C687 H691 0.950 . S
H688 C684 0.950 . S
C689 C687 1.390 . S
C689 C690 1.387 . S
C689 H692 0.950 . S
C690 C689 1.387 . S
C690 C693 1.387 . S
H691 C687 0.950 . S
H692 C689 0.950 . S
C693 C684 1.390 . S
C693 H686 0.950 . S
C693 C690 1.387 . S
C694 C695 1.387 . S
C694 H698 0.950 . S
C694 C703 1.390 . S
C695 C694 1.387 . S
C695 C697 1.387 . S
H696 C703 0.950 . S
C697 C695 1.387 . S
C697 C699 1.390 . S
C697 H701 0.950 . S
H698 C694 0.950 . S
C699 C697 1.390 . S
C699 C700 1.387 . S
C699 H702 0.950 . S
C700 C699 1.387 . S
C700 C703 1.387 . S
H701 C697 0.950 . S
H702 C699 0.950 . S
C703 C694 1.390 . S
C703 H696 0.950 . S
C703 C700 1.387 . S
C704 C705 1.387 . S
C704 H708 0.950 . S
C704 C713 1.390 . S
C705 C704 1.387 . S
C705 C707 1.387 . S
H706 C713 0.950 . S
C707 C705 1.387 . S
C707 C709 1.390 . S
C707 H711 0.950 . S
H708 C704 0.950 . S
C709 C707 1.390 . S
C709 C710 1.387 . S
C709 H712 0.950 . S
C710 C709 1.387 . S
C710 C713 1.387 . S
H711 C707 0.950 . S
H712 C709 0.950 . S
C713 C704 1.390 . S
C713 H706 0.950 . S
C713 C710 1.387 . S
C714 C715 1.387 . S
C714 H718 0.950 . S
C714 C723 1.390 . S
C715 C714 1.387 . S
C715 C717 1.387 . S
H716 C723 0.950 . S
C717 C715 1.387 . S
C717 C719 1.390 . S
C717 H721 0.950 . S
H718 C714 0.950 . S
C719 C717 1.390 . S
C719 C720 1.387 . S
C719 H722 0.950 . S
C720 C719 1.387 . S
C720 C723 1.387 . S
H721 C717 0.950 . S
H722 C719 0.950 . S
C723 C714 1.390 . S
C723 H716 0.950 . S
C723 C720 1.387 . S
C724 C725 1.387 . S
C724 H728 0.950 . S
C724 C733 1.390 . S
C725 C724 1.387 . S
C725 C727 1.387 . S
H726 C733 0.950 . S
C727 C725 1.387 . S
C727 C729 1.390 . S
C727 H731 0.950 . S
H728 C724 0.950 . S
C729 C727 1.390 . S
C729 C730 1.387 . S
C729 H732 0.950 . S
C730 C729 1.387 . S
C730 C733 1.387 . S
H731 C727 0.950 . S
H732 C729 0.950 . S
C733 C724 1.390 . S
C733 H726 0.950 . S
C733 C730 1.387 . S
C734 C735 1.387 . S
C734 H738 0.950 . S
C734 C743 1.390 . S
C735 C734 1.387 . S
C735 C737 1.387 . S
H736 C743 0.950 . S
C737 C735 1.387 . S
C737 C739 1.390 . S
C737 H741 0.950 . S
H738 C734 0.950 . S
C739 C737 1.390 . S
C739 C740 1.387 . S
C739 H742 0.950 . S
C740 C739 1.387 . S
C740 C743 1.387 . S
H741 C737 0.950 . S
H742 C739 0.950 . S
C743 C734 1.390 . S
C743 H736 0.950 . S
C743 C740 1.387 . S
C744 C745 1.387 . S
C744 H748 0.950 . S
C744 C753 1.390 1_556 S
C745 C744 1.387 . S
C745 C747 1.387 . S
H746 C753 0.950 . S
C747 C745 1.387 . S
C747 C749 1.390 1_556 S
C747 H751 0.950 . S
H748 C744 0.950 . S
C749 C747 1.390 1_554 S
C749 C750 1.387 . S
C749 H752 0.950 . S
C750 C749 1.387 . S
C750 C753 1.387 . S
H751 C747 0.950 . S
H752 C749 0.950 . S
C753 C744 1.390 1_554 S
C753 H746 0.950 . S
C753 C750 1.387 . S
C754 C755 1.387 . S
C754 H758 0.950 . S
C754 C763 1.390 1_556 S
C755 C754 1.387 . S
C755 C757 1.387 . S
H756 C763 0.950 . S
C757 C755 1.387 . S
C757 C759 1.390 1_556 S
C757 H761 0.950 . S
H758 C754 0.950 . S
C759 C757 1.390 1_554 S
C759 C760 1.387 . S
C759 H762 0.950 . S
C760 C759 1.387 . S
C760 C763 1.387 . S
H761 C757 0.950 . S
H762 C759 0.950 . S
C763 C754 1.390 1_554 S
C763 H756 0.950 . S
C763 C760 1.387 . S
C764 C765 1.387 . S
C764 H768 0.950 . S
C764 C773 1.390 1_556 S
C765 C764 1.387 . S
C765 C767 1.387 . S
H766 C773 0.950 . S
C767 C765 1.387 . S
C767 C769 1.390 1_556 S
C767 H771 0.950 . S
H768 C764 0.950 . S
C769 C767 1.390 1_554 S
C769 C770 1.387 . S
C769 H772 0.950 . S
C770 C769 1.387 . S
C770 C773 1.387 . S
H771 C767 0.950 . S
H772 C769 0.950 . S
C773 C764 1.390 1_554 S
C773 H766 0.950 . S
C773 C770 1.387 . S
C774 C775 1.387 . S
C774 H778 0.950 . S
C774 C783 1.390 1_556 S
C775 C774 1.387 . S
C775 C777 1.387 . S
H776 C783 0.950 . S
C777 C775 1.387 . S
C777 C779 1.390 1_556 S
C777 H781 0.950 . S
H778 C774 0.950 . S
C779 C777 1.390 1_554 S
C779 C780 1.387 . S
C779 H782 0.950 . S
C780 C779 1.387 . S
C780 C783 1.387 . S
H781 C777 0.950 . S
H782 C779 0.950 . S
C783 C774 1.390 1_554 S
C783 H776 0.950 . S
C783 C780 1.387 . S
C784 C785 1.387 . S
C784 H788 0.950 . S
C784 C793 1.390 . S
C785 C784 1.387 . S
C785 C787 1.387 . S
H786 C793 0.950 . S
C787 C785 1.387 . S
C787 C789 1.390 . S
C787 H791 0.950 . S
H788 C784 0.950 . S
C789 C787 1.390 . S
C789 C790 1.387 . S
C789 H792 0.950 . S
C790 C789 1.387 . S
C790 C793 1.387 . S
H791 C787 0.950 . S
H792 C789 0.950 . S
C793 C784 1.390 . S
C793 H786 0.950 . S
C793 C790 1.387 . S
C794 C795 1.387 . S
C794 H798 0.950 . S
C794 C803 1.390 . S
C795 C794 1.387 . S
C795 C797 1.387 . S
H796 C803 0.950 . S
C797 C795 1.387 . S
C797 C799 1.390 . S
C797 H801 0.950 . S
H798 C794 0.950 . S
C799 C797 1.390 . S
C799 C800 1.387 . S
C799 H802 0.950 . S
C800 C799 1.387 . S
C800 C803 1.387 . S
H801 C797 0.950 . S
H802 C799 0.950 . S
C803 C794 1.390 . S
C803 H796 0.950 . S
C803 C800 1.387 . S
C804 C805 1.387 . S
C804 H808 0.950 . S
C804 C813 1.390 . S
C805 C804 1.387 . S
C805 C807 1.387 . S
H806 C813 0.950 . S
C807 C805 1.387 . S
C807 C809 1.390 . S
C807 H811 0.950 . S
H808 C804 0.950 . S
C809 C807 1.390 . S
C809 C810 1.387 . S
C809 H812 0.950 . S
C810 C809 1.387 . S
C810 C813 1.387 . S
H811 C807 0.950 . S
H812 C809 0.950 . S
C813 C804 1.390 . S
C813 H806 0.950 . S
C813 C810 1.387 . S
C814 C815 1.387 . S
C814 H818 0.950 . S
C814 C823 1.390 . S
C815 C814 1.387 . S
C815 C817 1.387 . S
H816 C823 0.950 . S
C817 C815 1.387 . S
C817 C819 1.390 . S
C817 H821 0.950 . S
H818 C814 0.950 . S
C819 C817 1.390 . S
C819 C820 1.387 . S
C819 H822 0.950 . S
C820 C819 1.387 . S
C820 C823 1.387 . S
H821 C817 0.950 . S
H822 C819 0.950 . S
C823 C814 1.390 . S
C823 H816 0.950 . S
C823 C820 1.387 . S
C824 C825 1.387 . S
C824 H828 0.950 . S
C824 C833 1.390 . S
C825 C824 1.387 . S
C825 C827 1.387 . S
H826 C833 0.950 . S
C827 C825 1.387 . S
C827 C829 1.390 . S
C827 H831 0.950 . S
H828 C824 0.950 . S
C829 C827 1.390 . S
C829 C830 1.387 . S
C829 H832 0.950 . S
C830 C829 1.387 . S
C830 C833 1.387 . S
H831 C827 0.950 . S
H832 C829 0.950 . S
C833 C824 1.390 . S
C833 H826 0.950 . S
C833 C830 1.387 . S
C834 C835 1.387 . S
C834 H838 0.950 . S
C834 C843 1.390 . S
C835 C834 1.387 . S
C835 C837 1.387 . S
H836 C843 0.950 . S
C837 C835 1.387 . S
C837 C839 1.390 . S
C837 H841 0.950 . S
H838 C834 0.950 . S
C839 C837 1.390 . S
C839 C840 1.387 . S
C839 H842 0.950 . S
C840 C839 1.387 . S
C840 C843 1.387 . S
H841 C837 0.950 . S
H842 C839 0.950 . S
C843 C834 1.390 . S
C843 H836 0.950 . S
C843 C840 1.387 . S
C844 C845 1.387 . S
C844 H848 0.950 . S
C844 C853 1.390 . S
C845 C844 1.387 . S
C845 C847 1.387 . S
H846 C853 0.950 . S
C847 C845 1.387 . S
C847 C849 1.390 . S
C847 H851 0.950 . S
H848 C844 0.950 . S
C849 C847 1.390 . S
C849 C850 1.387 . S
C849 H852 0.950 . S
C850 C849 1.387 . S
C850 C853 1.387 . S
H851 C847 0.950 . S
H852 C849 0.950 . S
C853 C844 1.390 . S
C853 H846 0.950 . S
C853 C850 1.387 . S
C854 C855 1.387 . S
C854 H858 0.950 . S
C854 C863 1.390 . S
C855 C854 1.387 . S
C855 C857 1.387 . S
H856 C863 0.950 . S
C857 C855 1.387 . S
C857 C859 1.390 . S
C857 H861 0.950 . S
H858 C854 0.950 . S
C859 C857 1.390 . S
C859 C860 1.387 . S
C859 H862 0.950 . S
C860 C859 1.387 . S
C860 C863 1.387 . S
H861 C857 0.950 . S
H862 C859 0.950 . S
C863 C854 1.390 . S
C863 H856 0.950 . S
C863 C860 1.387 . S
C864 C865 1.387 . S
C864 H868 0.950 . S
C864 C873 1.390 1_545 S
C865 C864 1.387 . S
C865 C867 1.387 . S
H866 C873 0.950 . S
C867 C865 1.387 . S
C867 C869 1.390 1_545 S
C867 H871 0.950 . S
H868 C864 0.950 . S
C869 C867 1.390 1_565 S
C869 C870 1.387 . S
C869 H872 0.950 . S
C870 C869 1.387 . S
C870 C873 1.387 . S
H871 C867 0.950 . S
H872 C869 0.950 . S
C873 C864 1.390 1_565 S
C873 H866 0.950 . S
C873 C870 1.387 . S
C874 C875 1.387 . S
C874 H878 0.950 . S
C874 C883 1.390 1_655 S
C875 C874 1.387 . S
C875 C877 1.387 . S
H876 C883 0.950 . S
C877 C875 1.387 . S
C877 C879 1.390 1_655 S
C877 H881 0.950 . S
H878 C874 0.950 . S
C879 C877 1.390 1_455 S
C879 C880 1.387 . S
C879 H882 0.950 . S
C880 C879 1.387 . S
C880 C883 1.387 . S
H881 C877 0.950 . S
H882 C879 0.950 . S
C883 C874 1.390 1_455 S
C883 H876 0.950 . S
C883 C880 1.387 . S
C884 C885 1.387 . S
C884 H888 0.950 . S
C884 C893 1.390 1_565 S
C885 C884 1.387 . S
C885 C887 1.387 . S
H886 C893 0.950 . S
C887 C885 1.387 . S
C887 C889 1.390 1_565 S
C887 H891 0.950 . S
H888 C884 0.950 . S
C889 C887 1.390 1_545 S
C889 C890 1.387 . S
C889 H892 0.950 . S
C890 C889 1.387 . S
C890 C893 1.387 . S
H891 C887 0.950 . S
H892 C889 0.950 . S
C893 C884 1.390 1_545 S
C893 H886 0.950 . S
C893 C890 1.387 . S
C894 C895 1.387 . S
C894 H898 0.950 . S
C894 C903 1.390 1_655 S
C895 C894 1.387 . S
C895 C897 1.387 . S
H896 C903 0.950 . S
C897 C895 1.387 . S
C897 C899 1.390 1_655 S
C897 H901 0.950 . S
H898 C894 0.950 . S
C899 C897 1.390 1_455 S
C899 C900 1.387 . S
C899 H902 0.950 . S
C900 C899 1.387 . S
C900 C903 1.387 . S
H901 C897 0.950 . S
H902 C899 0.950 . S
C903 C894 1.390 1_455 S
C903 H896 0.950 . S
C903 C900 1.387 . S
C904 C905 1.387 . S
C904 H908 0.950 . S
C904 C913 1.390 1_556 S
C905 C904 1.387 . S
C905 C907 1.387 . S
H906 C913 0.950 . S
C907 C905 1.387 . S
C907 C909 1.390 1_556 S
C907 H911 0.950 . S
H908 C904 0.950 . S
C909 C907 1.390 1_554 S
C909 C910 1.387 . S
C909 H912 0.950 . S
C910 C909 1.387 . S
C910 C913 1.387 . S
H911 C907 0.950 . S
H912 C909 0.950 . S
C913 C904 1.390 1_554 S
C913 H906 0.950 . S
C913 C910 1.387 . S
C914 C915 1.387 . S
C914 H918 0.950 . S
C914 C923 1.390 1_556 S
C915 C914 1.387 . S
C915 C917 1.387 . S
H916 C923 0.950 . S
C917 C915 1.387 . S
C917 C919 1.390 1_556 S
C917 H921 0.950 . S
H918 C914 0.950 . S
C919 C917 1.390 1_554 S
C919 C920 1.387 . S
C919 H922 0.950 . S
C920 C919 1.387 . S
C920 C923 1.387 . S
H921 C917 0.950 . S
H922 C919 0.950 . S
C923 C914 1.390 1_554 S
C923 H916 0.950 . S
C923 C920 1.387 . S
C924 C925 1.387 . S
C924 H928 0.950 . S
C924 C933 1.390 1_554 S
C925 C924 1.387 . S
C925 C927 1.387 . S
H926 C933 0.950 . S
C927 C925 1.387 . S
C927 C929 1.390 1_554 S
C927 H931 0.950 . S
H928 C924 0.950 . S
C929 C927 1.390 1_556 S
C929 C930 1.387 . S
C929 H932 0.950 . S
C930 C929 1.387 . S
C930 C933 1.387 . S
H931 C927 0.950 . S
H932 C929 0.950 . S
C933 C924 1.390 1_556 S
C933 H926 0.950 . S
C933 C930 1.387 . S
C934 C935 1.387 . S
C934 H938 0.950 . S
C934 C943 1.390 1_556 S
C935 C934 1.387 . S
C935 C937 1.387 . S
H936 C943 0.950 . S
C937 C935 1.387 . S
C937 C939 1.390 1_556 S
C937 H941 0.950 . S
H938 C934 0.950 . S
C939 C937 1.390 1_554 S
C939 C940 1.387 . S
C939 H942 0.950 . S
C940 C939 1.387 . S
C940 C943 1.387 . S
H941 C937 0.950 . S
H942 C939 0.950 . S
C943 C934 1.390 1_554 S
C943 H936 0.950 . S
C943 C940 1.387 . S
C545 C9 2.192 . S
C550 C104 2.255 . S
C555 C2 2.255 . S
C560 C43 2.193 . S
C565 C77 2.192 . S
C570 C36 2.256 . S
C575 C70 2.256 . S
C580 C111 2.192 . S
C585 C172 2.256 . S
C590 C145 2.191 . S
C595 C206 2.256 . S
C600 C179 2.192 . S
C605 C240 2.255 . S
C610 C213 2.193 . S
C615 C247 2.193 . S
C620 C138 2.255 . S
C625 C281 2.193 . S
C630 C376 2.255 . S
C635 C315 2.192 . S
C640 C274 2.256 . S
C645 C349 2.192 . S
C650 C308 2.256 . S
C655 C342 2.255 . S
C660 C383 2.192 . S
C665 C444 2.255 . S
C670 C417 2.192 . S
C675 C451 2.192 . S
C680 C478 2.256 . S
C685 C485 2.193 . S
C690 C512 2.255 . S
C695 C519 2.192 . S
C700 C410 2.255 . S
C705 C5 1.242 . S
C710 C175 1.245 . S
C715 C39 1.242 . S
C720 C209 1.245 . S
C725 C243 1.243 . S
C730 C73 1.245 . S
C735 C107 1.245 . S
C740 C141 1.242 . S
C745 C277 1.243 . S
C750 C447 1.245 . S
C755 C311 1.242 . S
C760 C481 1.246 . S
C765 C345 1.244 . S
C770 C515 1.243 . S
C775 C379 1.242 . S
C780 C413 1.245 . S
C785 C33 0.605 . S
C790 C543 0.604 . S
C795 C441 0.604 . S
C800 C67 0.602 . S
C805 C101 0.601 . S
C810 C475 0.603 . S
C815 C135 0.603 . S
C820 C509 0.601 . S
C825 C339 0.600 . S
C830 C169 0.599 . S
C835 C373 0.598 . S
C840 C203 0.599 . S
C845 C407 0.601 . S
C850 C237 0.603 . S
C855 C305 0.604 . S
C860 C271 0.602 . S
C865 C20 1.410 . S
C870 C156 1.410 . S
C875 C54 1.408 . S
C880 C190 1.408 . S
C885 C88 1.410 . S
C890 C224 1.410 . S
C895 C258 1.408 . S
C900 C122 1.408 . S
C905 C292 1.408 . S
C910 C428 1.408 . S
C915 C326 1.408 . S
C920 C462 1.408 . S
C925 C496 1.410 . S
C930 C360 1.410 . S
C935 C394 1.408 . S
C940 C530 1.408 . S
