# Generated by pormake.
# Topology umw, (4)-cn, num edge types: 1
# Building blocks:
#     Node 0, Type 0, BuildingBlock: QUQFOY_clean_sbu_3, # of connection points: 4
#     Node 1, Type 0, BuildingBlock: QUQFOY_clean_sbu_3, # of connection points: 4
#     Node 2, Type 0, BuildingBlock: QUQFOY_clean_sbu_3, # of connection points: 4
#     Node 3, Type 0, BuildingBlock: QUQFOY_clean_sbu_3, # of connection points: 4
#     Node 4, Type 0, BuildingBlock: QUQFOY_clean_sbu_3, # of connection points: 4
#     Node 5, Type 0, BuildingBlock: QUQFOY_clean_sbu_3, # of connection points: 4
#     Node 6, Type 0, BuildingBlock: QUQFOY_clean_sbu_3, # of connection points: 4
#     Node 7, Type 0, BuildingBlock: QUQFOY_clean_sbu_3, # of connection points: 4
#     Edge 8, Type (0, 0), BuildingBlock: UVAHIK_clean_linker_0, # of connection points: 2
#     Edge 9, Type (0, 0), BuildingBlock: UVAHIK_clean_linker_0, # of connection points: 2
#     Edge 10, Type (0, 0), BuildingBlock: UVAHIK_clean_linker_0, # of connection points: 2
#     Edge 11, Type (0, 0), BuildingBlock: UVAHIK_clean_linker_0, # of connection points: 2
#     Edge 12, Type (0, 0), BuildingBlock: UVAHIK_clean_linker_0, # of connection points: 2
#     Edge 13, Type (0, 0), BuildingBlock: UVAHIK_clean_linker_0, # of connection points: 2
#     Edge 14, Type (0, 0), BuildingBlock: UVAHIK_clean_linker_0, # of connection points: 2
#     Edge 15, Type (0, 0), BuildingBlock: UVAHIK_clean_linker_0, # of connection points: 2
#     Edge 16, Type (0, 0), BuildingBlock: UVAHIK_clean_linker_0, # of connection points: 2
#     Edge 17, Type (0, 0), BuildingBlock: UVAHIK_clean_linker_0, # of connection points: 2
#     Edge 18, Type (0, 0), BuildingBlock: UVAHIK_clean_linker_0, # of connection points: 2
#     Edge 19, Type (0, 0), BuildingBlock: UVAHIK_clean_linker_0, # of connection points: 2
#     Edge 20, Type (0, 0), BuildingBlock: UVAHIK_clean_linker_0, # of connection points: 2
#     Edge 21, Type (0, 0), BuildingBlock: UVAHIK_clean_linker_0, # of connection points: 2
#     Edge 22, Type (0, 0), BuildingBlock: UVAHIK_clean_linker_0, # of connection points: 2
#     Edge 23, Type (0, 0), BuildingBlock: UVAHIK_clean_linker_0, # of connection points: 2
# Relax obj value: 0.128
# Max RMSD: 0.103
# Mean RMSD: 0.103
data_MOF--net-umw--node1-QUQFOY_clean_sbu_3--edge1-UVAHIK_clean_linker_0
_symmetry_space_group_name_H-M    P1
_symmetry_Int_Tables_number       1
_symmetry_cell_setting            triclinic
loop_
_symmetry_equiv_pos_as_xyz
'x, y, z'
_cell_length_a     55.138087
_cell_length_b     55.04515
_cell_length_c     35.421104
_cell_angle_alpha  90.292056
_cell_angle_beta   90.068412
_cell_angle_gamma 90.023886
loop_
_atom_site_label
_atom_site_type_symbol
_atom_site_fract_x
_atom_site_fract_y
_atom_site_fract_z
_atom_type_partial_charge
C0 C 0.44357 0.17867 0.19858 0.0
O1 O 0.45964 0.17201 0.22203 0.0
Cd2 Cd 0.4551 0.16394 0.28706 0.0
O3 O 0.42156 0.18169 0.20903 0.0
Cd4 Cd 0.40039 0.17785 0.27205 0.0
C5 C 0.41249 0.11827 0.28402 0.0
O6 O 0.43201 0.19716 0.30958 0.0
O7 O 0.40583 0.17662 0.34095 0.0
O8 O 0.37607 0.21469 0.26648 0.0
C9 C 0.42324 0.19163 0.34132 0.0
O10 O 0.43373 0.12544 0.2928 0.0
C11 C 0.35621 0.20488 0.27618 0.0
O12 O 0.39669 0.13329 0.2721 0.0
O13 O 0.35629 0.18192 0.27949 0.0
C14 C 0.78723 0.44728 0.45331 0.0
O15 O 0.798 0.46331 0.47303 0.0
Cd16 Cd 0.82149 0.4575 0.52795 0.0
O17 O 0.78718 0.42495 0.46322 0.0
Cd18 Cd 0.80205 0.40188 0.52054 0.0
C19 C 0.86084 0.41201 0.49839 0.0
O20 O 0.7954 0.43422 0.56576 0.0
O21 O 0.8165 0.40425 0.58644 0.0
O22 O 0.7631 0.38197 0.5296 0.0
C23 C 0.80594 0.42421 0.59325 0.0
O24 O 0.85659 0.4339 0.50815 0.0
C25 C 0.77159 0.36072 0.53382 0.0
O26 O 0.84409 0.39602 0.49878 0.0
O27 O 0.79418 0.35809 0.52803 0.0
C28 C 0.53069 0.78653 0.70244 0.0
O29 O 0.51499 0.79662 0.72344 0.0
Cd30 Cd 0.52276 0.81936 0.77858 0.0
O31 O 0.5532 0.7869 0.71127 0.0
Cd32 Cd 0.5772 0.8014 0.76822 0.0
C33 C 0.56647 0.86 0.74755 0.0
O34 O 0.54667 0.79286 0.81525 0.0
O35 O 0.57495 0.817 0.8337 0.0
O36 O 0.59736 0.76224 0.77337 0.0
C37 C 0.55652 0.8044 0.84208 0.0
O38 O 0.54501 0.85535 0.75867 0.0
C39 C 0.61851 0.77066 0.77873 0.0
O40 O 0.58259 0.84341 0.74637 0.0
O41 O 0.62098 0.79353 0.77578 0.0
C42 C 0.1774 0.53688 0.94808 0.0
O43 O 0.17046 0.52116 -0.02816 0.0
Cd44 Cd 0.1625 0.52684 0.03684 0.0
O45 O 0.18077 0.55898 0.95813 0.0
Cd46 Cd 0.17738 0.58131 0.02046 0.0
C47 C 0.11767 0.57031 0.03272 0.0
O48 O 0.19603 0.5498 0.05852 0.0
O49 O 0.1764 0.57699 0.08959 0.0
O50 O 0.21452 0.60486 0.01203 0.0
C51 C 0.19081 0.55908 0.09015 0.0
O52 O 0.12448 0.54907 0.04204 0.0
C53 C 0.20535 0.62509 0.02179 0.0
O54 O 0.13293 0.58574 0.02038 0.0
O55 O 0.18256 0.62544 0.02692 0.0
C56 C 0.44456 0.78968 0.33486 0.0
O57 O 0.46125 0.80069 0.31721 0.0
Cd58 Cd 0.4573 0.82359 0.26157 0.0
O59 O 0.42284 0.78935 0.3221 0.0
Cd60 Cd 0.40259 0.80459 0.26249 0.0
C61 C 0.41117 0.86329 0.28638 0.0
O62 O 0.43631 0.7973 0.22009 0.0
O63 O 0.40866 0.82114 0.19877 0.0
O64 O 0.38298 0.7658 0.24952 0.0
C65 C 0.42775 0.809 0.19253 0.0
O66 O 0.43332 0.85912 0.27851 0.0
C67 C 0.36198 0.77442 0.24368 0.0
O68 O 0.39538 0.84639 0.28467 0.0
O69 O 0.35923 0.797 0.24997 0.0
C70 C 0.17827 0.44654 0.56792 0.0
O71 O 0.1719 0.46211 0.54356 0.0
Cd72 Cd 0.16242 0.45546 0.47936 0.0
O73 O 0.18037 0.42409 0.55894 0.0
Cd74 Cd 0.17567 0.40097 0.49734 0.0
C75 C 0.11619 0.41356 0.48718 0.0
O76 O 0.19493 0.43116 0.45765 0.0
O77 O 0.17358 0.40456 0.42805 0.0
O78 O 0.21234 0.37679 0.50553 0.0
C79 C 0.18888 0.42169 0.4265 0.0
O80 O 0.12351 0.43447 0.47702 0.0
C81 C 0.20272 0.35667 0.49623 0.0
O82 O 0.1312 0.39774 0.4991 0.0
O83 O 0.17987 0.35666 0.4917 0.0
C84 C 0.53258 0.17791 0.81851 0.0
O85 O 0.5172 0.17195 0.79343 0.0
Cd86 Cd 0.52444 0.16336 0.7291 0.0
O87 O 0.55508 0.18 0.81026 0.0
Cd88 Cd 0.57878 0.17586 0.74935 0.0
C89 C 0.5656 0.11648 0.7369 0.0
O90 O 0.54923 0.19603 0.70954 0.0
O91 O 0.5759 0.1749 0.6799 0.0
O92 O 0.60312 0.21224 0.76052 0.0
C93 C 0.55898 0.19042 0.67847 0.0
O94 O 0.54491 0.12417 0.72634 0.0
C95 C 0.62316 0.20274 0.75083 0.0
O96 O 0.5815 0.13121 0.74967 0.0
O97 O 0.62304 0.17999 0.74474 0.0
C98 C 0.79219 0.53476 0.08666 0.0
O99 O 0.80385 0.51871 0.06831 0.0
Cd100 Cd 0.82562 0.52321 0.01147 0.0
O101 O 0.79053 0.55654 0.07441 0.0
Cd102 Cd 0.80399 0.57846 0.01529 0.0
C103 C 0.86366 0.57103 0.03549 0.0
O104 O 0.79766 0.54424 -0.02652 0.0
O105 O 0.81641 0.57441 0.94858 0.0
O106 O 0.76432 0.59727 0.00739 0.0
C107 C 0.80686 0.55365 0.9444 0.0
O108 O 0.86011 0.54872 0.02758 0.0
C109 C 0.77224 0.61854 0.0012 0.0
O110 O 0.8463 0.58633 0.03467 0.0
O111 O 0.79493 0.62174 0.0051 0.0
C112 C 0.42897 0.18803 0.41098 0.0
C113 C 0.43569 0.19856 0.37656 0.0
C114 C 0.44224 0.19295 0.44369 0.0
C115 C 0.46757 0.21326 0.51255 0.0
H116 H 0.53751 0.21051 0.50155 0.0
C117 C 0.52972 0.21567 0.64216 0.0
C118 C 0.54791 0.19782 0.64249 0.0
C119 C 0.51736 0.22102 0.60886 0.0
C120 C 0.51801 0.21134 0.50506 0.0
H121 H 0.46066 0.22351 0.34961 0.0
H122 H 0.48362 0.23239 0.4069 0.0
H123 H 0.51187 0.20992 0.44554 0.0
H124 H 0.56831 0.1724 0.60803 0.0
H125 H 0.54635 0.18126 0.55003 0.0
H126 H 0.47362 0.21322 0.57207 0.0
C127 C 0.46843 0.21994 0.40846 0.0
C128 C 0.50332 0.21131 0.47298 0.0
C129 C 0.45524 0.21493 0.37572 0.0
C130 C 0.55432 0.18621 0.60859 0.0
C131 C 0.54184 0.19143 0.57532 0.0
C132 C 0.48225 0.21317 0.54462 0.0
C133 C 0.46238 0.20862 0.44262 0.0
C134 C 0.47792 0.21171 0.47642 0.0
C135 C 0.52286 0.2085 0.5753 0.0
C136 C 0.50761 0.21167 0.54123 0.0
H137 H 0.41395 0.17538 0.41247 0.0
H138 H 0.43728 0.1837 0.46946 0.0
H139 H 0.44807 0.21393 0.51608 0.0
H140 H 0.52462 0.22514 0.66784 0.0
H141 H 0.50315 0.23458 0.60959 0.0
C142 C 0.81389 0.42358 0.66262 0.0
C143 C 0.80825 0.43667 0.62985 0.0
C144 C 0.81545 0.43552 0.69742 0.0
C145 C 0.82785 0.49376 0.74122 0.0
H146 H 0.78531 0.47286 0.82185 0.0
C147 C 0.81276 0.55192 0.87464 0.0
C148 C 0.80881 0.5399 0.90889 0.0
C149 C 0.814 0.53875 0.84091 0.0
C150 C 0.79768 0.47869 0.79998 0.0
H151 H 0.80042 0.4724 0.60732 0.0
H152 H 0.80375 0.4933 0.66808 0.0
H153 H 0.78611 0.45024 0.76257 0.0
H154 H 0.80385 0.50477 0.93521 0.0
H155 H 0.80708 0.4817 0.87677 0.0
H156 H 0.83991 0.52187 0.77856 0.0
C157 C 0.80672 0.47386 0.66683 0.0
C158 C 0.79802 0.46576 0.76603 0.0
C159 C 0.80467 0.46188 0.63223 0.0
C160 C 0.80662 0.51451 0.90906 0.0
C161 C 0.80833 0.50131 0.87551 0.0
C162 C 0.82787 0.50645 0.77541 0.0
C163 C 0.81192 0.46074 0.69967 0.0
C164 C 0.81289 0.47339 0.73632 0.0
C165 C 0.81178 0.51327 0.84094 0.0
C166 C 0.81256 0.49924 0.80507 0.0
H167 H 0.81667 0.40411 0.66144 0.0
H168 H 0.81951 0.42513 0.72254 0.0
H169 H 0.83957 0.49981 0.7186 0.0
H170 H 0.81437 0.57152 0.87382 0.0
H171 H 0.81624 0.54862 0.81479 0.0
C172 C 0.46264 0.79748 0.15162 0.0
C173 C 0.44122 0.81087 0.15679 0.0
C174 C 0.47564 0.79923 0.11806 0.0
C175 C 0.50648 0.81593 0.05274 0.0
H176 H 0.47099 0.81365 0.95824 0.0
C177 C 0.55326 0.82236 0.90693 0.0
C178 C 0.54462 0.80624 0.87915 0.0
C179 C 0.54101 0.82482 0.94124 0.0
C180 C 0.48115 0.81422 -0.01557 0.0
H181 H 0.41663 0.83672 0.13106 0.0
H182 H 0.43953 0.83993 0.0723 0.0
H183 H 0.44882 0.81453 0.01764 0.0
H184 H 0.51686 0.77958 0.86575 0.0
H185 H 0.4958 0.78358 0.92568 0.0
H186 H 0.53882 0.81469 0.01947 0.0
C187 C 0.44611 0.8279 0.09414 0.0
C188 C 0.46845 0.81503 0.01841 0.0
C189 C 0.43305 0.82612 0.12777 0.0
C190 C 0.52384 0.7923 0.88652 0.0
C191 C 0.51167 0.79472 0.92073 0.0
C192 C 0.51919 0.81508 0.01873 0.0
C193 C 0.46752 0.81444 0.08896 0.0
C194 C 0.48099 0.81553 0.05292 0.0
C195 C 0.51996 0.81117 0.94829 0.0
C196 C 0.50663 0.81383 -0.01573 0.0
H197 H 0.46935 0.78551 0.17345 0.0
H198 H 0.49183 0.7883 0.11464 0.0
H199 H 0.51662 0.81663 0.07894 0.0
H200 H 0.56923 0.83335 0.90195 0.0
H201 H 0.54774 0.83773 0.96193 0.0
C202 C 0.21309 0.45176 0.39013 0.0
C203 C 0.19552 0.43328 0.3906 0.0
C204 C 0.21783 0.46446 0.357 0.0
C205 C 0.20748 0.46398 0.25352 0.0
H206 H 0.21053 0.53402 0.26529 0.0
C207 C 0.18639 0.55361 0.15975 0.0
C208 C 0.19716 0.54663 0.1255 0.0
C209 C 0.19063 0.54024 0.19246 0.0
C210 C 0.20969 0.51449 0.26155 0.0
H211 H 0.1699 0.41283 0.35654 0.0
H212 H 0.17774 0.43538 0.29883 0.0
H213 H 0.2095 0.50839 0.32102 0.0
H214 H 0.22185 0.5211 0.09891 0.0
H215 H 0.22959 0.49801 0.15619 0.0
H216 H 0.20631 0.47015 0.19407 0.0
C217 C 0.18814 0.43985 0.32388 0.0
C218 C 0.20942 0.49978 0.29346 0.0
C219 C 0.18351 0.42702 0.35699 0.0
C220 C 0.21309 0.52673 0.12488 0.0
C221 C 0.21744 0.51345 0.15761 0.0
C222 C 0.20763 0.47871 0.2216 0.0
C223 C 0.205 0.45903 0.32374 0.0
C224 C 0.20786 0.47438 0.2898 0.0
C225 C 0.20585 0.51974 0.19156 0.0
C226 C 0.20829 0.50414 0.2253 0.0
H227 H 0.22284 0.45677 0.41558 0.0
H228 H 0.23126 0.47883 0.35761 0.0
H229 H 0.20658 0.44445 0.24979 0.0
H230 H 0.17404 0.56888 0.16106 0.0
H231 H 0.1812 0.54541 0.21807 0.0
C232 C 0.31432 0.20861 0.30336 0.0
C233 C 0.33581 0.21972 0.29071 0.0
C234 C 0.29771 0.22164 0.32548 0.0
C235 C 0.29835 0.26827 0.39673 0.0
H236 H 0.22952 0.27718 0.37965 0.0
C237 C 0.24295 0.33889 0.47952 0.0
C238 C 0.21782 0.33584 0.48389 0.0
C239 C 0.25661 0.32186 0.45939 0.0
C240 C 0.2486 0.27442 0.38542 0.0
H241 H 0.35581 0.25368 0.2892 0.0
H242 H 0.32703 0.27614 0.32819 0.0
H243 H 0.25353 0.25377 0.33431 0.0
H244 H 0.18767 0.31143 0.47329 0.0
H245 H 0.21172 0.28109 0.43961 0.0
H246 H 0.29369 0.28819 0.44808 0.0
C247 C 0.32311 0.25739 0.32101 0.0
C248 C 0.26234 0.26119 0.35918 0.0
C249 C 0.33947 0.24454 0.29842 0.0
C250 C 0.207 0.31438 0.47028 0.0
C251 C 0.22076 0.29713 0.45048 0.0
C252 C 0.2846 0.28106 0.42329 0.0
C253 C 0.30252 0.24584 0.33574 0.0
C254 C 0.28742 0.25851 0.36423 0.0
C255 C 0.24559 0.30109 0.44353 0.0
C256 C 0.25962 0.28485 0.41762 0.0
H257 H 0.31099 0.18951 0.29795 0.0
H258 H 0.28188 0.2124 0.33646 0.0
H259 H 0.31762 0.26602 0.40159 0.0
H260 H 0.25187 0.35525 0.48946 0.0
H261 H 0.27557 0.32583 0.45446 0.0
C262 C 0.76667 0.31819 0.55821 0.0
C263 C 0.7567 0.34122 0.55085 0.0
C264 C 0.7542 0.30152 0.58086 0.0
C265 C 0.71156 0.3011 0.65922 0.0
H266 H 0.69959 0.23356 0.63409 0.0
C267 C 0.64145 0.24344 0.73849 0.0
C268 C 0.64406 0.21807 0.73975 0.0
C269 C 0.65836 0.25772 0.71939 0.0
C270 C 0.70323 0.25223 0.64204 0.0
H271 H 0.72524 0.36422 0.55979 0.0
H272 H 0.70375 0.33529 0.59938 0.0
H273 H 0.72205 0.25913 0.59012 0.0
H274 H 0.66762 0.18802 0.72475 0.0
H275 H 0.69766 0.21305 0.69263 0.0
H276 H 0.69317 0.2944 0.7112 0.0
C277 C 0.72124 0.33021 0.58787 0.0
C278 C 0.71595 0.26689 0.61663 0.0
C279 C 0.73348 0.34668 0.5649 0.0
C280 C 0.66502 0.20752 0.72415 0.0
C281 C 0.68209 0.22186 0.70528 0.0
C282 C 0.69919 0.2864 0.68484 0.0
C283 C 0.73174 0.30775 0.59692 0.0
C284 C 0.71974 0.2916 0.62463 0.0
C285 C 0.67849 0.24704 0.70139 0.0
C286 C 0.69434 0.26189 0.67628 0.0
H287 H 0.78453 0.31344 0.54788 0.0
H288 H 0.76266 0.28428 0.58734 0.0
H289 H 0.71468 0.31999 0.66642 0.0
H290 H 0.62549 0.25218 0.75007 0.0
H291 H 0.65475 0.27697 0.71685 0.0
C292 C 0.76589 0.66006 -0.02625 0.0
C293 C 0.7564 0.63738 -0.01558 0.0
C294 C 0.75221 0.6759 0.95136 0.0
C295 C 0.7046 0.67344 0.87963 0.0
H296 H 0.6975 0.74269 0.8965 0.0
C297 C 0.63363 0.73034 0.80061 0.0
C298 C 0.63822 0.75498 0.79335 0.0
C299 C 0.65023 0.71641 0.82095 0.0
C300 C 0.69968 0.72346 0.89091 0.0
H301 H 0.72456 0.61424 -0.01816 0.0
H302 H 0.70085 0.6418 0.9429 0.0
H303 H 0.72141 0.71848 0.94063 0.0
H304 H 0.66458 0.78395 0.79983 0.0
H305 H 0.69396 0.7594 0.83447 0.0
H306 H 0.68326 0.67822 0.82984 0.0
C307 C 0.71894 0.6472 0.95145 0.0
C308 C 0.71326 0.70959 0.91638 0.0
C309 C 0.73248 0.63151 -0.02594 0.0
C310 C 0.66048 0.76501 0.80499 0.0
C311 C 0.6772 0.751 0.82524 0.0
C312 C 0.69129 0.68729 0.85399 0.0
C313 C 0.7289 0.66923 0.93896 0.0
C314 C 0.71546 0.68436 0.91136 0.0
C315 C 0.67198 0.72669 0.83437 0.0
C316 C 0.68826 0.71242 0.85961 0.0
H317 H 0.78428 0.66511 -0.0188 0.0
H318 H 0.76033 0.69279 0.94219 0.0
H319 H 0.70645 0.6541 0.87456 0.0
H320 H 0.61663 0.72204 0.79221 0.0
H321 H 0.64537 0.69787 0.82771 0.0
C322 C 0.21056 0.6671 0.04838 0.0
C323 C 0.22091 0.64574 0.0336 0.0
C324 C 0.22493 0.68416 0.06751 0.0
C325 C 0.28935 0.70061 0.08985 0.0
H326 H 0.26145 0.72529 0.18296 0.0
C327 C 0.34861 0.73638 0.21102 0.0
C328 C 0.34291 0.75963 0.22503 0.0
C329 C 0.33247 0.72402 0.18737 0.0
C330 C 0.26939 0.7187 0.15689 0.0
H331 H 0.25472 0.62636 0.02515 0.0
H332 H 0.27958 0.65564 0.05884 0.0
H333 H 0.23612 0.7024 0.13878 0.0
H334 H 0.31513 0.7875 0.22694 0.0
H335 H 0.28657 0.76546 0.18622 0.0
H336 H 0.32286 0.7161 0.10891 0.0
C337 C 0.26046 0.65956 0.05543 0.0
C338 C 0.25487 0.70572 0.13136 0.0
C339 C 0.24615 0.64265 0.03607 0.0
C340 C 0.32005 0.7696 0.21666 0.0
C341 C 0.30372 0.75703 0.19331 0.0
C342 C 0.3039 0.71328 0.11559 0.0
C343 C 0.24995 0.68017 0.07249 0.0
C344 C 0.26474 0.69618 0.09771 0.0
C345 C 0.31012 0.73445 0.17753 0.0
C346 C 0.29417 0.72214 0.14961 0.0
H347 H 0.19117 0.67008 0.04684 0.0
H348 H 0.21628 0.70009 0.07944 0.0
H349 H 0.29751 0.69407 0.06394 0.0
H350 H 0.36605 0.72815 0.21688 0.0
H351 H 0.33769 0.70645 0.17611 0.0
C352 C 0.42142 0.90449 0.31082 0.0
C353 C 0.40403 0.88846 0.29586 0.0
C354 C 0.41606 0.92903 0.31572 0.0
C355 C 0.38012 0.97698 0.27446 0.0
H356 H 0.4048 0.01403 0.35964 0.0
C357 C 0.38382 0.0828 0.27677 0.0
C358 C 0.40634 0.09222 0.28858 0.0
C359 C 0.37844 0.0581 0.28148 0.0
C360 C 0.39776 0.00395 0.33566 0.0
H361 H 0.3671 0.88539 0.27535 0.0
H362 H 0.3578 0.92877 0.28334 0.0
H363 H 0.40387 0.96979 0.36263 0.0
H364 H 0.44074 0.08299 0.3148 0.0
H365 H 0.43144 0.04032 0.32267 0.0
H366 H 0.37512 0.01117 0.24679 0.0
C367 C 0.37554 0.92213 0.29146 0.0
C368 C 0.39716 0.97865 0.33745 0.0
C369 C 0.3808 0.89734 0.28712 0.0
C370 C 0.42321 0.07645 0.30536 0.0
C371 C 0.41779 0.05195 0.31024 0.0
C372 C 0.38079 0.00238 0.27262 0.0
C373 C 0.39326 0.93824 0.30535 0.0
C374 C 0.38916 0.96487 0.30637 0.0
C375 C 0.39537 0.04245 0.29843 0.0
C376 C 0.39048 0.01606 0.30269 0.0
H377 H 0.43945 0.89816 0.31793 0.0
H378 H 0.4302 0.94102 0.32606 0.0
H379 H 0.374 0.96681 0.24998 0.0
H380 H 0.37042 0.09446 0.26377 0.0
H381 H 0.361 0.05128 0.27213 0.0
C382 C 0.8952 0.38205 0.49485 0.0
C383 C 0.88594 0.40541 0.48796 0.0
C384 C 0.91992 0.37718 0.48944 0.0
C385 C 0.97507 0.40022 0.44243 0.0
H386 H 0.00993 0.37657 0.53002 0.0
C387 C 0.07392 0.42505 0.46915 0.0
C388 C 0.08996 0.40781 0.48434 0.0
C389 C 0.04925 0.41999 0.46582 0.0
C390 C 0.00048 0.38271 0.50501 0.0
H391 H 0.89489 0.44152 0.46815 0.0
H392 H 0.93763 0.43293 0.45806 0.0
H393 H 0.96558 0.3754 0.52915 0.0
H394 H 0.09248 0.37162 0.50802 0.0
H395 H 0.04906 0.36279 0.50226 0.0
H396 H 0.00976 0.40825 0.41868 0.0
C397 C 0.92599 0.41841 0.46782 0.0
C398 C 0.97509 0.38202 0.5045 0.0
C399 C 0.90152 0.42337 0.47382 0.0
C400 C 0.08063 0.38531 0.49622 0.0
C401 C 0.05577 0.38027 0.49301 0.0
C402 C 0.00036 0.40081 0.44285 0.0
C403 C 0.93558 0.39544 0.47626 0.0
C404 C 0.96215 0.39158 0.47376 0.0
C405 C 0.03985 0.39754 0.47758 0.0
C406 C 0.01334 0.39293 0.47471 0.0
H407 H 0.8836 0.36791 0.50596 0.0
H408 H 0.92688 0.3593 0.49608 0.0
H409 H 0.96556 0.40736 0.41811 0.0
H410 H 0.08038 0.4426 0.45978 0.0
H411 H 0.03744 0.43392 0.45459 0.0
C412 C 0.59594 0.89471 0.74248 0.0
C413 C 0.57245 0.88531 0.73734 0.0
C414 C 0.60047 0.91953 0.73711 0.0
C415 C 0.57581 0.97464 0.69233 0.0
H416 H 0.60244 0.00976 0.77807 0.0
C417 C 0.55319 0.07426 0.71923 0.0
C418 C 0.57092 0.09012 0.73379 0.0
C419 C 0.55779 0.04946 0.71584 0.0
C420 C 0.59544 0.00024 0.75353 0.0
H421 H 0.53564 0.89415 0.72079 0.0
H422 H 0.54361 0.93708 0.71073 0.0
H423 H 0.60333 0.96533 0.77724 0.0
H424 H 0.60751 0.09219 0.75616 0.0
H425 H 0.61557 0.04857 0.75013 0.0
H426 H 0.56735 0.00934 0.66893 0.0
C427 C 0.55851 0.92545 0.7191 0.0
C428 C 0.59597 0.9748 0.75307 0.0
C429 C 0.55391 0.90088 0.72509 0.0
C430 C 0.59344 0.08048 0.74489 0.0
C431 C 0.59805 0.0555 0.74152 0.0
C432 C 0.57542 -1e-05 0.69266 0.0
C433 C 0.5817 0.93515 0.72571 0.0
C434 C 0.58539 0.96178 0.72304 0.0
C435 C 0.58026 0.03973 0.7268 0.0
C436 C 0.58441 0.01308 0.72388 0.0
H437 H 0.61054 0.88312 0.75212 0.0
H438 H 0.61852 0.92657 0.74233 0.0
H439 H 0.56787 0.96505 0.66855 0.0
H440 H 0.53559 0.08094 0.71051 0.0
H441 H 0.54347 0.03781 0.7052 0.0
C442 C 0.90486 0.56209 0.06033 0.0
C443 C 0.88865 0.57885 0.04446 0.0
C444 C 0.92926 0.56794 0.06489 0.0
C445 C 0.97685 0.60308 0.02151 0.0
H446 H 0.01368 0.58143 0.1084 0.0
C447 C 0.08254 0.59914 0.02391 0.0
C448 C 0.09174 0.5769 0.03713 0.0
C449 C 0.05792 0.60487 0.02835 0.0
C450 C 0.00367 0.58764 0.08395 0.0
H451 H 0.88509 0.6152 0.02189 0.0
H452 H 0.9283 0.62534 0.02919 0.0
H453 H 0.9695 0.58233 0.11132 0.0
H454 H 0.08221 0.54338 0.06562 0.0
H455 H 0.03969 0.55327 0.07307 0.0
H456 H 0.01105 0.60718 -0.00652 0.0
C457 C 0.92188 0.60773 0.03835 0.0
C458 C 0.9784 0.58823 0.08569 0.0
C459 C 0.89721 0.60199 0.0344 0.0
C460 C 0.07584 0.56068 0.05507 0.0
C461 C 0.05143 0.56645 0.0597 0.0
C462 C 0.00221 0.60241 0.01972 0.0
C463 C 0.93817 0.5906 0.05323 0.0
C464 C 0.9647 0.59507 0.05404 0.0
C465 C 0.04214 0.58859 0.04646 0.0
C466 C 0.01582 0.59377 0.05045 0.0
H467 H 0.89877 0.54414 0.06844 0.0
H468 H 0.9414 0.55425 0.07601 0.0
H469 H 0.96673 0.60829 -0.0034 0.0
H470 H 0.09431 0.61205 0.00998 0.0
H471 H 0.05126 0.62208 0.01787 0.0
C472 C 0.53944 0.18357 0.88845 0.0
C473 C 0.52363 0.18229 0.85738 0.0
C474 C 0.53019 0.18618 0.92512 0.0
C475 C 0.47394 0.17532 -0.02072 0.0
H476 H 0.50517 0.21493 0.05592 0.0
C477 C 0.43422 0.18588 0.12977 0.0
C478 C 0.45117 0.1829 0.15903 0.0
C479 C 0.44208 0.18861 0.09238 0.0
C480 C 0.49628 0.20373 0.0348 0.0
H481 H 0.48578 0.18397 0.84034 0.0
H482 H 0.46992 0.18886 0.90363 0.0
H483 H 0.52156 0.21409 -0.00811 0.0
H484 H 0.48968 0.18123 0.17202 0.0
H485 H 0.50314 0.18579 0.10745 0.0
H486 H 0.44887 0.16469 0.02222 0.0
C487 C 0.48936 0.18721 0.90001 0.0
C488 C 0.50574 0.20319 -0.0018 0.0
C489 C 0.49853 0.1845 0.86363 0.0
C490 C 0.47605 0.18336 0.15024 0.0
C491 C 0.48385 0.18621 0.11316 0.0
C492 C 0.46448 0.17589 0.01582 0.0
C493 C 0.50499 0.18765 0.93128 0.0
C494 C 0.49478 0.18882 -0.02992 0.0
C495 C 0.46701 0.18863 0.08372 0.0
C496 C 0.47569 0.18988 0.04411 0.0
H497 H 0.55885 0.18194 0.88456 0.0
H498 H 0.54272 0.18633 0.94868 0.0
H499 H 0.46526 0.16375 0.95845 0.0
H500 H 0.41494 0.18567 0.13562 0.0
H501 H 0.42867 0.19061 0.07025 0.0
C502 C 0.77394 0.54494 0.15003 0.0
C503 C 0.78126 0.52761 0.12313 0.0
C504 C 0.76637 0.53757 0.18598 0.0
C505 C 0.74908 0.48295 0.24251 0.0
H506 H 0.78163 0.5174 0.32362 0.0
C507 C 0.77505 0.43995 0.38582 0.0
C508 C 0.77584 0.4552 0.41768 0.0
C509 C 0.76865 0.44941 0.3505 0.0
C510 C 0.77194 0.50779 0.30151 0.0
H511 H 0.78478 0.48891 0.11201 0.0
H512 H 0.77209 0.47627 0.17418 0.0
H513 H 0.78258 0.53386 0.26027 0.0
H514 H 0.76826 0.49155 0.43847 0.0
H515 H 0.75662 0.50778 0.37739 0.0
H516 H 0.7394 0.45629 0.28381 0.0
C517 C 0.77195 0.49549 0.16781 0.0
C518 C 0.77245 0.51731 0.2651 0.0
C519 C 0.77953 0.50281 0.13216 0.0
C520 C 0.76823 0.47946 0.41423 0.0
C521 C 0.76165 0.4888 0.37921 0.0
C522 C 0.74864 0.47336 0.27902 0.0
C523 C 0.76585 0.51274 0.19551 0.0
C524 C 0.76157 0.50471 0.23496 0.0
C525 C 0.76277 0.47419 0.34667 0.0
C526 C 0.76052 0.48543 0.30877 0.0
H527 H 0.77493 0.56417 0.14385 0.0
H528 H 0.76152 0.55131 0.20661 0.0
H529 H 0.74019 0.47297 0.21998 0.0
H530 H 0.78086 0.4212 0.3877 0.0
H531 H 0.76978 0.43768 0.32593 0.0
C532 C 0.53731 0.77361 0.63502 0.0
C533 C 0.52218 0.77537 0.66676 0.0
C534 C 0.52762 0.76696 0.59984 0.0
C535 C 0.46965 0.77133 0.54998 0.0
H536 H 0.50292 0.73586 0.47077 0.0
C537 C 0.43311 0.77232 0.39808 0.0
C538 C 0.45089 0.77824 0.3713 0.0
C539 C 0.43992 0.76478 0.43433 0.0
C540 C 0.49337 0.74579 0.49264 0.0
H541 H 0.48564 0.76931 0.68744 0.0
H542 H 0.46897 0.75739 0.62658 0.0
H543 H 0.51951 0.73601 0.53482 0.0
H544 H 0.48967 0.77907 0.36057 0.0
H545 H 0.50138 0.76647 0.42325 0.0
H546 H 0.4442 0.78214 0.50782 0.0
C547 C 0.48809 0.76179 0.62843 0.0
C548 C 0.5029 0.74588 0.52926 0.0
C549 C 0.49768 0.76858 0.66331 0.0
C550 C 0.47546 0.77495 0.38066 0.0
C551 C 0.48223 0.76741 0.41661 0.0
C552 C 0.46021 0.77134 0.51343 0.0
C553 C 0.5027 0.76182 0.59602 0.0
C554 C 0.49141 0.75911 0.55814 0.0
C555 C 0.46461 0.76291 0.44428 0.0
C556 C 0.47228 0.75911 0.48407 0.0
H557 H 0.55625 0.77873 0.63687 0.0
H558 H 0.53933 0.76723 0.57533 0.0
H559 H 0.46051 0.78201 0.57143 0.0
H560 H 0.41403 0.77454 0.39164 0.0
H561 H 0.42589 0.76113 0.4549 0.0
C562 C 0.18583 0.5454 0.87941 0.0
C563 C 0.18158 0.52878 0.90865 0.0
C564 C 0.18879 0.53717 0.84217 0.0
C565 C 0.20242 0.48192 0.78536 0.0
H566 H 0.16574 0.51457 0.70729 0.0
C567 C 0.18327 0.43936 0.63779 0.0
C568 C 0.18307 0.45523 0.60686 0.0
C569 C 0.18582 0.44852 0.67461 0.0
C570 C 0.17641 0.50541 0.7286 0.0
H571 H 0.17778 0.49041 0.92172 0.0
H572 H 0.18273 0.47631 0.85735 0.0
H573 H 0.16601 0.53111 0.77112 0.0
H574 H 0.18686 0.49297 0.59016 0.0
H575 H 0.19171 0.50868 0.65371 0.0
H576 H 0.21256 0.45603 0.74284 0.0
C577 C 0.18399 0.49563 0.86301 0.0
C578 C 0.17658 0.51495 0.76519 0.0
C579 C 0.18092 0.50381 0.89996 0.0
C580 C 0.18649 0.48023 0.61337 0.0
C581 C 0.18918 0.4893 0.64989 0.0
C582 C 0.20228 0.47238 0.74869 0.0
C583 C 0.18776 0.51217 0.83361 0.0
C584 C 0.18938 0.50319 0.79408 0.0
C585 C 0.18835 0.47369 0.68103 0.0
C586 C 0.18913 0.48393 0.71994 0.0
H587 H 0.18651 0.56473 0.88516 0.0
H588 H 0.19184 0.55035 0.82008 0.0
H589 H 0.21269 0.47258 0.80696 0.0
H590 H 0.18068 0.42002 0.63367 0.0
H591 H 0.18499 0.43601 0.69806 0.0
loop_
_geom_bond_atom_site_label_1
_geom_bond_atom_site_label_2
_geom_bond_distance
_geom_bond_site_symmetry_2
_ccdc_geom_bond_type
C0 O1 1.306 . S
C0 O3 1.160 . S
O1 C0 1.306 . S
O1 Cd2 2.228 . S
Cd2 O1 2.228 . S
Cd2 O6 2.273 . S
Cd2 O10 2.277 . S
O3 C0 1.160 . S
O3 Cd4 2.203 . S
Cd4 O3 2.203 . S
Cd4 O6 2.411 . S
Cd4 O7 2.333 . S
Cd4 O8 2.352 . S
Cd4 O12 2.277 . S
Cd4 O13 2.356 . S
C5 O10 1.209 . S
C5 O12 1.226 . S
O6 Cd2 2.273 . S
O6 Cd4 2.411 . S
O6 C9 1.320 . S
O7 Cd4 2.333 . S
O7 C9 1.214 . S
O8 Cd4 2.352 . S
O8 C11 1.258 . S
C9 O6 1.320 . S
C9 O7 1.214 . S
O10 Cd2 2.277 . S
O10 C5 1.209 . S
C11 O8 1.258 . S
C11 O13 1.282 . S
O12 Cd4 2.277 . S
O12 C5 1.226 . S
O13 Cd4 2.356 . S
O13 C11 1.282 . S
C14 O15 1.306 . S
C14 O17 1.160 . S
O15 C14 1.306 . S
O15 Cd16 2.228 . S
Cd16 O15 2.228 . S
Cd16 O20 2.273 . S
Cd16 O24 2.277 . S
O17 C14 1.160 . S
O17 Cd18 2.203 . S
Cd18 O17 2.203 . S
Cd18 O20 2.411 . S
Cd18 O21 2.333 . S
Cd18 O22 2.352 . S
Cd18 O26 2.277 . S
Cd18 O27 2.356 . S
C19 O24 1.209 . S
C19 O26 1.226 . S
O20 Cd16 2.273 . S
O20 Cd18 2.411 . S
O20 C23 1.320 . S
O21 Cd18 2.333 . S
O21 C23 1.214 . S
O22 Cd18 2.352 . S
O22 C25 1.258 . S
C23 O20 1.320 . S
C23 O21 1.214 . S
O24 Cd16 2.277 . S
O24 C19 1.209 . S
C25 O22 1.258 . S
C25 O27 1.282 . S
O26 Cd18 2.277 . S
O26 C19 1.226 . S
O27 Cd18 2.356 . S
O27 C25 1.282 . S
C28 O29 1.306 . S
C28 O31 1.160 . S
O29 C28 1.306 . S
O29 Cd30 2.228 . S
Cd30 O29 2.228 . S
Cd30 O34 2.273 . S
Cd30 O38 2.277 . S
O31 C28 1.160 . S
O31 Cd32 2.203 . S
Cd32 O31 2.203 . S
Cd32 O34 2.411 . S
Cd32 O35 2.333 . S
Cd32 O36 2.352 . S
Cd32 O40 2.277 . S
Cd32 O41 2.356 . S
C33 O38 1.209 . S
C33 O40 1.226 . S
O34 Cd30 2.273 . S
O34 Cd32 2.411 . S
O34 C37 1.320 . S
O35 Cd32 2.333 . S
O35 C37 1.214 . S
O36 Cd32 2.352 . S
O36 C39 1.258 . S
C37 O34 1.320 . S
C37 O35 1.214 . S
O38 Cd30 2.277 . S
O38 C33 1.209 . S
C39 O36 1.258 . S
C39 O41 1.282 . S
O40 Cd32 2.277 . S
O40 C33 1.226 . S
O41 Cd32 2.356 . S
O41 C39 1.282 . S
C42 O43 1.306 1_556 S
C42 O45 1.160 1_556 S
O43 C42 1.306 1_554 S
O43 Cd44 2.228 . S
Cd44 O43 2.228 . S
Cd44 O48 2.273 . S
Cd44 O52 2.277 . S
O45 C42 1.160 1_554 S
O45 Cd46 2.203 . S
Cd46 O45 2.203 . S
Cd46 O48 2.411 . S
Cd46 O49 2.333 . S
Cd46 O50 2.352 . S
Cd46 O54 2.277 . S
Cd46 O55 2.356 . S
C47 O52 1.209 . S
C47 O54 1.226 . S
O48 Cd44 2.273 . S
O48 Cd46 2.411 . S
O48 C51 1.320 . S
O49 Cd46 2.333 . S
O49 C51 1.214 . S
O50 Cd46 2.352 . S
O50 C53 1.258 . S
C51 O48 1.320 . S
C51 O49 1.214 . S
O52 Cd44 2.277 . S
O52 C47 1.209 . S
C53 O50 1.258 . S
C53 O55 1.282 . S
O54 Cd46 2.277 . S
O54 C47 1.226 . S
O55 Cd46 2.356 . S
O55 C53 1.282 . S
C56 O57 1.306 . S
C56 O59 1.160 . S
O57 C56 1.306 . S
O57 Cd58 2.228 . S
Cd58 O57 2.228 . S
Cd58 O62 2.273 . S
Cd58 O66 2.277 . S
O59 C56 1.160 . S
O59 Cd60 2.203 . S
Cd60 O59 2.203 . S
Cd60 O62 2.411 . S
Cd60 O63 2.333 . S
Cd60 O64 2.352 . S
Cd60 O68 2.277 . S
Cd60 O69 2.356 . S
C61 O66 1.209 . S
C61 O68 1.226 . S
O62 Cd58 2.273 . S
O62 Cd60 2.411 . S
O62 C65 1.320 . S
O63 Cd60 2.333 . S
O63 C65 1.214 . S
O64 Cd60 2.352 . S
O64 C67 1.258 . S
C65 O62 1.320 . S
C65 O63 1.214 . S
O66 Cd58 2.277 . S
O66 C61 1.209 . S
C67 O64 1.258 . S
C67 O69 1.282 . S
O68 Cd60 2.277 . S
O68 C61 1.226 . S
O69 Cd60 2.356 . S
O69 C67 1.282 . S
C70 O71 1.306 . S
C70 O73 1.160 . S
O71 C70 1.306 . S
O71 Cd72 2.228 . S
Cd72 O71 2.228 . S
Cd72 O76 2.273 . S
Cd72 O80 2.277 . S
O73 C70 1.160 . S
O73 Cd74 2.203 . S
Cd74 O73 2.203 . S
Cd74 O76 2.411 . S
Cd74 O77 2.333 . S
Cd74 O78 2.352 . S
Cd74 O82 2.277 . S
Cd74 O83 2.356 . S
C75 O80 1.209 . S
C75 O82 1.226 . S
O76 Cd72 2.273 . S
O76 Cd74 2.411 . S
O76 C79 1.320 . S
O77 Cd74 2.333 . S
O77 C79 1.214 . S
O78 Cd74 2.352 . S
O78 C81 1.258 . S
C79 O76 1.320 . S
C79 O77 1.214 . S
O80 Cd72 2.277 . S
O80 C75 1.209 . S
C81 O78 1.258 . S
C81 O83 1.282 . S
O82 Cd74 2.277 . S
O82 C75 1.226 . S
O83 Cd74 2.356 . S
O83 C81 1.282 . S
C84 O85 1.306 . S
C84 O87 1.160 . S
O85 C84 1.306 . S
O85 Cd86 2.228 . S
Cd86 O85 2.228 . S
Cd86 O90 2.273 . S
Cd86 O94 2.277 . S
O87 C84 1.160 . S
O87 Cd88 2.203 . S
Cd88 O87 2.203 . S
Cd88 O90 2.411 . S
Cd88 O91 2.333 . S
Cd88 O92 2.352 . S
Cd88 O96 2.277 . S
Cd88 O97 2.356 . S
C89 O94 1.209 . S
C89 O96 1.226 . S
O90 Cd86 2.273 . S
O90 Cd88 2.411 . S
O90 C93 1.320 . S
O91 Cd88 2.333 . S
O91 C93 1.214 . S
O92 Cd88 2.352 . S
O92 C95 1.258 . S
C93 O90 1.320 . S
C93 O91 1.214 . S
O94 Cd86 2.277 . S
O94 C89 1.209 . S
C95 O92 1.258 . S
C95 O97 1.282 . S
O96 Cd88 2.277 . S
O96 C89 1.226 . S
O97 Cd88 2.356 . S
O97 C95 1.282 . S
C98 O99 1.306 . S
C98 O101 1.160 . S
O99 C98 1.306 . S
O99 Cd100 2.228 . S
Cd100 O99 2.228 . S
Cd100 O104 2.273 1_554 S
Cd100 O108 2.277 . S
O101 C98 1.160 . S
O101 Cd102 2.203 . S
Cd102 O101 2.203 . S
Cd102 O104 2.411 1_554 S
Cd102 O105 2.333 1_554 S
Cd102 O106 2.352 . S
Cd102 O110 2.277 . S
Cd102 O111 2.356 . S
C103 O108 1.209 . S
C103 O110 1.226 . S
O104 Cd100 2.273 1_556 S
O104 Cd102 2.411 1_556 S
O104 C107 1.320 . S
O105 Cd102 2.333 1_556 S
O105 C107 1.214 . S
O106 Cd102 2.352 . S
O106 C109 1.258 . S
C107 O104 1.320 . S
C107 O105 1.214 . S
O108 Cd100 2.277 . S
O108 C103 1.209 . S
C109 O106 1.258 . S
C109 O111 1.282 . S
O110 Cd102 2.277 . S
O110 C103 1.226 . S
O111 Cd102 2.356 . S
O111 C109 1.282 . S
C112 C113 1.349 . S
C112 C114 1.327 . S
C112 H137 0.950 . S
C113 C112 1.349 . S
C113 C129 1.349 . S
C114 C112 1.327 . S
C114 C133 1.429 . S
C114 H138 0.950 . S
C115 C132 1.574 . S
C115 C134 1.368 . S
C115 H139 0.949 . S
H116 C120 0.949 . S
C117 C118 1.349 . S
C117 C119 1.327 . S
C117 H140 0.950 . S
C118 C117 1.349 . S
C118 C130 1.349 . S
C119 C117 1.327 . S
C119 C135 1.429 . S
C119 H141 0.950 . S
C120 H116 0.949 . S
C120 C128 1.574 . S
C120 C136 1.368 . S
H121 C129 0.950 . S
H122 C127 0.950 . S
H123 C128 0.949 . S
H124 C130 0.950 . S
H125 C131 0.950 . S
H126 C132 0.949 . S
C127 H122 0.950 . S
C127 C129 1.327 . S
C127 C133 1.429 . S
C128 C120 1.574 . S
C128 H123 0.949 . S
C128 C134 1.368 . S
C129 C113 1.349 . S
C129 H121 0.950 . S
C129 C127 1.327 . S
C130 C118 1.349 . S
C130 H124 0.950 . S
C130 C131 1.327 . S
C131 H125 0.950 . S
C131 C130 1.327 . S
C131 C135 1.429 . S
C132 C115 1.574 . S
C132 H126 0.949 . S
C132 C136 1.368 . S
C133 C114 1.429 . S
C133 C127 1.429 . S
C133 C134 1.523 . S
C134 C115 1.368 . S
C134 C128 1.368 . S
C134 C133 1.523 . S
C135 C119 1.429 . S
C135 C131 1.429 . S
C135 C136 1.523 . S
C136 C120 1.368 . S
C136 C132 1.368 . S
C136 C135 1.523 . S
H137 C112 0.950 . S
H138 C114 0.950 . S
H139 C115 0.949 . S
H140 C117 0.950 . S
H141 C119 0.950 . S
C142 C143 1.349 . S
C142 C144 1.327 . S
C142 H167 0.950 . S
C143 C142 1.349 . S
C143 C159 1.349 . S
C144 C142 1.327 . S
C144 C163 1.429 . S
C144 H168 0.950 . S
C145 C162 1.574 . S
C145 C164 1.368 . S
C145 H169 0.949 . S
H146 C150 0.949 . S
C147 C148 1.349 . S
C147 C149 1.327 . S
C147 H170 0.950 . S
C148 C147 1.349 . S
C148 C160 1.349 . S
C149 C147 1.327 . S
C149 C165 1.429 . S
C149 H171 0.950 . S
C150 H146 0.949 . S
C150 C158 1.574 . S
C150 C166 1.368 . S
H151 C159 0.950 . S
H152 C157 0.950 . S
H153 C158 0.949 . S
H154 C160 0.950 . S
H155 C161 0.950 . S
H156 C162 0.949 . S
C157 H152 0.950 . S
C157 C159 1.327 . S
C157 C163 1.429 . S
C158 C150 1.574 . S
C158 H153 0.949 . S
C158 C164 1.368 . S
C159 C143 1.349 . S
C159 H151 0.950 . S
C159 C157 1.327 . S
C160 C148 1.349 . S
C160 H154 0.950 . S
C160 C161 1.327 . S
C161 H155 0.950 . S
C161 C160 1.327 . S
C161 C165 1.429 . S
C162 C145 1.574 . S
C162 H156 0.949 . S
C162 C166 1.368 . S
C163 C144 1.429 . S
C163 C157 1.429 . S
C163 C164 1.523 . S
C164 C145 1.368 . S
C164 C158 1.368 . S
C164 C163 1.523 . S
C165 C149 1.429 . S
C165 C161 1.429 . S
C165 C166 1.523 . S
C166 C150 1.368 . S
C166 C162 1.368 . S
C166 C165 1.523 . S
H167 C142 0.950 . S
H168 C144 0.950 . S
H169 C145 0.949 . S
H170 C147 0.950 . S
H171 C149 0.950 . S
C172 C173 1.349 . S
C172 C174 1.327 . S
C172 H197 0.950 . S
C173 C172 1.349 . S
C173 C189 1.349 . S
C174 C172 1.327 . S
C174 C193 1.429 . S
C174 H198 0.950 . S
C175 C192 1.574 . S
C175 C194 1.368 . S
C175 H199 0.949 . S
H176 C180 0.949 1_556 S
C177 C178 1.349 . S
C177 C179 1.327 . S
C177 H200 0.950 . S
C178 C177 1.349 . S
C178 C190 1.349 . S
C179 C177 1.327 . S
C179 C195 1.429 . S
C179 H201 0.950 . S
C180 H176 0.949 1_554 S
C180 C188 1.574 . S
C180 C196 1.368 . S
H181 C189 0.950 . S
H182 C187 0.950 . S
H183 C188 0.949 . S
H184 C190 0.950 . S
H185 C191 0.950 . S
H186 C192 0.949 . S
C187 H182 0.950 . S
C187 C189 1.327 . S
C187 C193 1.429 . S
C188 C180 1.574 . S
C188 H183 0.949 . S
C188 C194 1.368 . S
C189 C173 1.349 . S
C189 H181 0.950 . S
C189 C187 1.327 . S
C190 C178 1.349 . S
C190 H184 0.950 . S
C190 C191 1.327 . S
C191 H185 0.950 . S
C191 C190 1.327 . S
C191 C195 1.429 . S
C192 C175 1.574 . S
C192 H186 0.949 . S
C192 C196 1.368 . S
C193 C174 1.429 . S
C193 C187 1.429 . S
C193 C194 1.523 . S
C194 C175 1.368 . S
C194 C188 1.368 . S
C194 C193 1.523 . S
C195 C179 1.429 . S
C195 C191 1.429 . S
C195 C196 1.523 1_556 S
C196 C180 1.368 . S
C196 C192 1.368 . S
C196 C195 1.523 1_554 S
H197 C172 0.950 . S
H198 C174 0.950 . S
H199 C175 0.949 . S
H200 C177 0.950 . S
H201 C179 0.950 . S
C202 C203 1.349 . S
C202 C204 1.327 . S
C202 H227 0.950 . S
C203 C202 1.349 . S
C203 C219 1.349 . S
C204 C202 1.327 . S
C204 C223 1.429 . S
C204 H228 0.950 . S
C205 C222 1.574 . S
C205 C224 1.368 . S
C205 H229 0.949 . S
H206 C210 0.949 . S
C207 C208 1.349 . S
C207 C209 1.327 . S
C207 H230 0.950 . S
C208 C207 1.349 . S
C208 C220 1.349 . S
C209 C207 1.327 . S
C209 C225 1.429 . S
C209 H231 0.950 . S
C210 H206 0.949 . S
C210 C218 1.574 . S
C210 C226 1.368 . S
H211 C219 0.950 . S
H212 C217 0.950 . S
H213 C218 0.949 . S
H214 C220 0.950 . S
H215 C221 0.950 . S
H216 C222 0.949 . S
C217 H212 0.950 . S
C217 C219 1.327 . S
C217 C223 1.429 . S
C218 C210 1.574 . S
C218 H213 0.949 . S
C218 C224 1.368 . S
C219 C203 1.349 . S
C219 H211 0.950 . S
C219 C217 1.327 . S
C220 C208 1.349 . S
C220 H214 0.950 . S
C220 C221 1.327 . S
C221 H215 0.950 . S
C221 C220 1.327 . S
C221 C225 1.429 . S
C222 C205 1.574 . S
C222 H216 0.949 . S
C222 C226 1.368 . S
C223 C204 1.429 . S
C223 C217 1.429 . S
C223 C224 1.523 . S
C224 C205 1.368 . S
C224 C218 1.368 . S
C224 C223 1.523 . S
C225 C209 1.429 . S
C225 C221 1.429 . S
C225 C226 1.523 . S
C226 C210 1.368 . S
C226 C222 1.368 . S
C226 C225 1.523 . S
H227 C202 0.950 . S
H228 C204 0.950 . S
H229 C205 0.949 . S
H230 C207 0.950 . S
H231 C209 0.950 . S
C232 C233 1.349 . S
C232 C234 1.327 . S
C232 H257 0.950 . S
C233 C232 1.349 . S
C233 C249 1.349 . S
C234 C232 1.327 . S
C234 C253 1.429 . S
C234 H258 0.950 . S
C235 C252 1.574 . S
C235 C254 1.368 . S
C235 H259 0.949 . S
H236 C240 0.949 . S
C237 C238 1.349 . S
C237 C239 1.327 . S
C237 H260 0.950 . S
C238 C237 1.349 . S
C238 C250 1.349 . S
C239 C237 1.327 . S
C239 C255 1.429 . S
C239 H261 0.950 . S
C240 H236 0.949 . S
C240 C248 1.574 . S
C240 C256 1.368 . S
H241 C249 0.950 . S
H242 C247 0.950 . S
H243 C248 0.949 . S
H244 C250 0.950 . S
H245 C251 0.950 . S
H246 C252 0.949 . S
C247 H242 0.950 . S
C247 C249 1.327 . S
C247 C253 1.429 . S
C248 C240 1.574 . S
C248 H243 0.949 . S
C248 C254 1.368 . S
C249 C233 1.349 . S
C249 H241 0.950 . S
C249 C247 1.327 . S
C250 C238 1.349 . S
C250 H244 0.950 . S
C250 C251 1.327 . S
C251 H245 0.950 . S
C251 C250 1.327 . S
C251 C255 1.429 . S
C252 C235 1.574 . S
C252 H246 0.949 . S
C252 C256 1.368 . S
C253 C234 1.429 . S
C253 C247 1.429 . S
C253 C254 1.523 . S
C254 C235 1.368 . S
C254 C248 1.368 . S
C254 C253 1.523 . S
C255 C239 1.429 . S
C255 C251 1.429 . S
C255 C256 1.523 . S
C256 C240 1.368 . S
C256 C252 1.368 . S
C256 C255 1.523 . S
H257 C232 0.950 . S
H258 C234 0.950 . S
H259 C235 0.949 . S
H260 C237 0.950 . S
H261 C239 0.950 . S
C262 C263 1.349 . S
C262 C264 1.327 . S
C262 H287 0.950 . S
C263 C262 1.349 . S
C263 C279 1.349 . S
C264 C262 1.327 . S
C264 C283 1.429 . S
C264 H288 0.950 . S
C265 C282 1.574 . S
C265 C284 1.368 . S
C265 H289 0.949 . S
H266 C270 0.949 . S
C267 C268 1.349 . S
C267 C269 1.327 . S
C267 H290 0.950 . S
C268 C267 1.349 . S
C268 C280 1.349 . S
C269 C267 1.327 . S
C269 C285 1.429 . S
C269 H291 0.950 . S
C270 H266 0.949 . S
C270 C278 1.574 . S
C270 C286 1.368 . S
H271 C279 0.950 . S
H272 C277 0.950 . S
H273 C278 0.949 . S
H274 C280 0.950 . S
H275 C281 0.950 . S
H276 C282 0.949 . S
C277 H272 0.950 . S
C277 C279 1.327 . S
C277 C283 1.429 . S
C278 C270 1.574 . S
C278 H273 0.949 . S
C278 C284 1.368 . S
C279 C263 1.349 . S
C279 H271 0.950 . S
C279 C277 1.327 . S
C280 C268 1.349 . S
C280 H274 0.950 . S
C280 C281 1.327 . S
C281 H275 0.950 . S
C281 C280 1.327 . S
C281 C285 1.429 . S
C282 C265 1.574 . S
C282 H276 0.949 . S
C282 C286 1.368 . S
C283 C264 1.429 . S
C283 C277 1.429 . S
C283 C284 1.523 . S
C284 C265 1.368 . S
C284 C278 1.368 . S
C284 C283 1.523 . S
C285 C269 1.429 . S
C285 C281 1.429 . S
C285 C286 1.523 . S
C286 C270 1.368 . S
C286 C282 1.368 . S
C286 C285 1.523 . S
H287 C262 0.950 . S
H288 C264 0.950 . S
H289 C265 0.949 . S
H290 C267 0.950 . S
H291 C269 0.950 . S
C292 C293 1.348 . S
C292 C294 1.327 1_554 S
C292 H317 0.950 . S
C293 C292 1.348 . S
C293 C309 1.350 1_554 S
C294 C292 1.327 1_556 S
C294 C313 1.429 . S
C294 H318 0.950 1_556 S
C295 C312 1.574 . S
C295 C314 1.368 . S
C295 H319 0.949 . S
H296 C300 0.949 . S
C297 C298 1.349 . S
C297 C299 1.327 . S
C297 H320 0.950 . S
C298 C297 1.349 . S
C298 C310 1.349 . S
C299 C297 1.327 . S
C299 C315 1.429 . S
C299 H321 0.950 . S
C300 H296 0.949 . S
C300 C308 1.574 . S
C300 C316 1.368 . S
H301 C309 0.950 . S
H302 C307 0.950 . S
H303 C308 0.949 . S
H304 C310 0.950 . S
H305 C311 0.950 . S
H306 C312 0.949 . S
C307 H302 0.950 . S
C307 C309 1.327 . S
C307 C313 1.429 . S
C308 C300 1.574 . S
C308 H303 0.949 . S
C308 C314 1.368 . S
C309 C293 1.350 1_556 S
C309 H301 0.950 . S
C309 C307 1.327 . S
C310 C298 1.349 . S
C310 H304 0.950 . S
C310 C311 1.327 . S
C311 H305 0.950 . S
C311 C310 1.327 . S
C311 C315 1.429 . S
C312 C295 1.574 . S
C312 H306 0.949 . S
C312 C316 1.368 . S
C313 C294 1.429 . S
C313 C307 1.429 . S
C313 C314 1.523 . S
C314 C295 1.368 . S
C314 C308 1.368 . S
C314 C313 1.523 . S
C315 C299 1.429 . S
C315 C311 1.429 . S
C315 C316 1.523 . S
C316 C300 1.368 . S
C316 C312 1.368 . S
C316 C315 1.523 . S
H317 C292 0.950 . S
H318 C294 0.950 1_554 S
H319 C295 0.949 . S
H320 C297 0.950 . S
H321 C299 0.950 . S
C322 C323 1.349 . S
C322 C324 1.327 . S
C322 H347 0.950 . S
C323 C322 1.349 . S
C323 C339 1.349 . S
C324 C322 1.327 . S
C324 C343 1.429 . S
C324 H348 0.950 . S
C325 C342 1.574 . S
C325 C344 1.368 . S
C325 H349 0.949 . S
H326 C330 0.949 . S
C327 C328 1.349 . S
C327 C329 1.327 . S
C327 H350 0.950 . S
C328 C327 1.349 . S
C328 C340 1.349 . S
C329 C327 1.327 . S
C329 C345 1.429 . S
C329 H351 0.950 . S
C330 H326 0.949 . S
C330 C338 1.574 . S
C330 C346 1.368 . S
H331 C339 0.950 . S
H332 C337 0.950 . S
H333 C338 0.949 . S
H334 C340 0.950 . S
H335 C341 0.950 . S
H336 C342 0.949 . S
C337 H332 0.950 . S
C337 C339 1.327 . S
C337 C343 1.429 . S
C338 C330 1.574 . S
C338 H333 0.949 . S
C338 C344 1.368 . S
C339 C323 1.349 . S
C339 H331 0.950 . S
C339 C337 1.327 . S
C340 C328 1.349 . S
C340 H334 0.950 . S
C340 C341 1.327 . S
C341 H335 0.950 . S
C341 C340 1.327 . S
C341 C345 1.429 . S
C342 C325 1.574 . S
C342 H336 0.949 . S
C342 C346 1.368 . S
C343 C324 1.429 . S
C343 C337 1.429 . S
C343 C344 1.523 . S
C344 C325 1.368 . S
C344 C338 1.368 . S
C344 C343 1.523 . S
C345 C329 1.429 . S
C345 C341 1.429 . S
C345 C346 1.523 . S
C346 C330 1.368 . S
C346 C342 1.368 . S
C346 C345 1.523 . S
H347 C322 0.950 . S
H348 C324 0.950 . S
H349 C325 0.949 . S
H350 C327 0.950 . S
H351 C329 0.950 . S
C352 C353 1.349 . S
C352 C354 1.327 . S
C352 H377 0.950 . S
C353 C352 1.349 . S
C353 C369 1.349 . S
C354 C352 1.327 . S
C354 C373 1.429 . S
C354 H378 0.950 . S
C355 C372 1.574 1_565 S
C355 C374 1.368 . S
C355 H379 0.949 . S
H356 C360 0.949 . S
C357 C358 1.349 . S
C357 C359 1.327 . S
C357 H380 0.950 . S
C358 C357 1.349 . S
C358 C370 1.349 . S
C359 C357 1.327 . S
C359 C375 1.429 . S
C359 H381 0.950 . S
C360 H356 0.949 . S
C360 C368 1.574 1_545 S
C360 C376 1.368 . S
H361 C369 0.950 . S
H362 C367 0.950 . S
H363 C368 0.949 . S
H364 C370 0.950 . S
H365 C371 0.950 . S
H366 C372 0.949 . S
C367 H362 0.950 . S
C367 C369 1.327 . S
C367 C373 1.429 . S
C368 C360 1.574 1_565 S
C368 H363 0.949 . S
C368 C374 1.368 . S
C369 C353 1.349 . S
C369 H361 0.950 . S
C369 C367 1.327 . S
C370 C358 1.349 . S
C370 H364 0.950 . S
C370 C371 1.327 . S
C371 H365 0.950 . S
C371 C370 1.327 . S
C371 C375 1.429 . S
C372 C355 1.574 1_545 S
C372 H366 0.949 . S
C372 C376 1.368 . S
C373 C354 1.429 . S
C373 C367 1.429 . S
C373 C374 1.523 . S
C374 C355 1.368 . S
C374 C368 1.368 . S
C374 C373 1.523 . S
C375 C359 1.429 . S
C375 C371 1.429 . S
C375 C376 1.523 . S
C376 C360 1.368 . S
C376 C372 1.368 . S
C376 C375 1.523 . S
H377 C352 0.950 . S
H378 C354 0.950 . S
H379 C355 0.949 . S
H380 C357 0.950 . S
H381 C359 0.950 . S
C382 C383 1.349 . S
C382 C384 1.327 . S
C382 H407 0.950 . S
C383 C382 1.349 . S
C383 C399 1.349 . S
C384 C382 1.327 . S
C384 C403 1.429 . S
C384 H408 0.950 . S
C385 C402 1.574 1_655 S
C385 C404 1.368 . S
C385 H409 0.949 . S
H386 C390 0.949 . S
C387 C388 1.349 . S
C387 C389 1.327 . S
C387 H410 0.950 . S
C388 C387 1.349 . S
C388 C400 1.349 . S
C389 C387 1.327 . S
C389 C405 1.429 . S
C389 H411 0.950 . S
C390 H386 0.949 . S
C390 C398 1.574 1_455 S
C390 C406 1.368 . S
H391 C399 0.950 . S
H392 C397 0.950 . S
H393 C398 0.949 . S
H394 C400 0.950 . S
H395 C401 0.950 . S
H396 C402 0.949 . S
C397 H392 0.950 . S
C397 C399 1.327 . S
C397 C403 1.429 . S
C398 C390 1.574 1_655 S
C398 H393 0.949 . S
C398 C404 1.368 . S
C399 C383 1.349 . S
C399 H391 0.950 . S
C399 C397 1.327 . S
C400 C388 1.349 . S
C400 H394 0.950 . S
C400 C401 1.327 . S
C401 H395 0.950 . S
C401 C400 1.327 . S
C401 C405 1.429 . S
C402 C385 1.574 1_455 S
C402 H396 0.949 . S
C402 C406 1.368 . S
C403 C384 1.429 . S
C403 C397 1.429 . S
C403 C404 1.523 . S
C404 C385 1.368 . S
C404 C398 1.368 . S
C404 C403 1.523 . S
C405 C389 1.429 . S
C405 C401 1.429 . S
C405 C406 1.523 . S
C406 C390 1.368 . S
C406 C402 1.368 . S
C406 C405 1.523 . S
H407 C382 0.950 . S
H408 C384 0.950 . S
H409 C385 0.949 . S
H410 C387 0.950 . S
H411 C389 0.950 . S
C412 C413 1.349 . S
C412 C414 1.327 . S
C412 H437 0.950 . S
C413 C412 1.349 . S
C413 C429 1.349 . S
C414 C412 1.327 . S
C414 C433 1.429 . S
C414 H438 0.950 . S
C415 C432 1.574 1_565 S
C415 C434 1.368 . S
C415 H439 0.949 . S
H416 C420 0.949 . S
C417 C418 1.349 . S
C417 C419 1.327 . S
C417 H440 0.950 . S
C418 C417 1.349 . S
C418 C430 1.349 . S
C419 C417 1.327 . S
C419 C435 1.429 . S
C419 H441 0.950 . S
C420 H416 0.949 . S
C420 C428 1.574 1_545 S
C420 C436 1.368 . S
H421 C429 0.950 . S
H422 C427 0.950 . S
H423 C428 0.949 . S
H424 C430 0.950 . S
H425 C431 0.950 . S
H426 C432 0.949 . S
C427 H422 0.950 . S
C427 C429 1.327 . S
C427 C433 1.429 . S
C428 C420 1.574 1_565 S
C428 H423 0.949 . S
C428 C434 1.368 . S
C429 C413 1.349 . S
C429 H421 0.950 . S
C429 C427 1.327 . S
C430 C418 1.349 . S
C430 H424 0.950 . S
C430 C431 1.327 . S
C431 H425 0.950 . S
C431 C430 1.327 . S
C431 C435 1.429 . S
C432 C415 1.574 1_545 S
C432 H426 0.949 . S
C432 C436 1.368 . S
C433 C414 1.429 . S
C433 C427 1.429 . S
C433 C434 1.523 . S
C434 C415 1.368 . S
C434 C428 1.368 . S
C434 C433 1.523 . S
C435 C419 1.429 . S
C435 C431 1.429 . S
C435 C436 1.523 . S
C436 C420 1.368 . S
C436 C432 1.368 . S
C436 C435 1.523 . S
H437 C412 0.950 . S
H438 C414 0.950 . S
H439 C415 0.949 . S
H440 C417 0.950 . S
H441 C419 0.950 . S
C442 C443 1.349 . S
C442 C444 1.327 . S
C442 H467 0.950 . S
C443 C442 1.349 . S
C443 C459 1.349 . S
C444 C442 1.327 . S
C444 C463 1.429 . S
C444 H468 0.950 . S
C445 C462 1.574 1_655 S
C445 C464 1.368 . S
C445 H469 0.949 . S
H446 C450 0.949 . S
C447 C448 1.349 . S
C447 C449 1.327 . S
C447 H470 0.950 . S
C448 C447 1.349 . S
C448 C460 1.349 . S
C449 C447 1.327 . S
C449 C465 1.429 . S
C449 H471 0.950 . S
C450 H446 0.949 . S
C450 C458 1.574 1_455 S
C450 C466 1.368 . S
H451 C459 0.950 . S
H452 C457 0.950 . S
H453 C458 0.949 . S
H454 C460 0.950 . S
H455 C461 0.950 . S
H456 C462 0.949 . S
C457 H452 0.950 . S
C457 C459 1.327 . S
C457 C463 1.429 . S
C458 C450 1.574 1_655 S
C458 H453 0.949 . S
C458 C464 1.368 . S
C459 C443 1.349 . S
C459 H451 0.950 . S
C459 C457 1.327 . S
C460 C448 1.349 . S
C460 H454 0.950 . S
C460 C461 1.327 . S
C461 H455 0.950 . S
C461 C460 1.327 . S
C461 C465 1.429 . S
C462 C445 1.574 1_455 S
C462 H456 0.949 . S
C462 C466 1.368 . S
C463 C444 1.429 . S
C463 C457 1.429 . S
C463 C464 1.523 . S
C464 C445 1.368 . S
C464 C458 1.368 . S
C464 C463 1.523 . S
C465 C449 1.429 . S
C465 C461 1.429 . S
C465 C466 1.523 . S
C466 C450 1.368 . S
C466 C462 1.368 . S
C466 C465 1.523 . S
H467 C442 0.950 . S
H468 C444 0.950 . S
H469 C445 0.949 . S
H470 C447 0.950 . S
H471 C449 0.950 . S
C472 C473 1.349 . S
C472 C474 1.327 . S
C472 H497 0.950 . S
C473 C472 1.349 . S
C473 C489 1.349 . S
C474 C472 1.327 . S
C474 C493 1.429 . S
C474 H498 0.950 . S
C475 C492 1.574 . S
C475 C494 1.368 . S
C475 H499 0.949 1_554 S
H476 C480 0.949 . S
C477 C478 1.349 . S
C477 C479 1.327 . S
C477 H500 0.950 . S
C478 C477 1.349 . S
C478 C490 1.349 . S
C479 C477 1.327 . S
C479 C495 1.429 . S
C479 H501 0.950 . S
C480 H476 0.949 . S
C480 C488 1.574 . S
C480 C496 1.368 . S
H481 C489 0.950 . S
H482 C487 0.950 . S
H483 C488 0.949 . S
H484 C490 0.950 . S
H485 C491 0.950 . S
H486 C492 0.949 . S
C487 H482 0.950 . S
C487 C489 1.327 . S
C487 C493 1.429 . S
C488 C480 1.574 . S
C488 H483 0.949 . S
C488 C494 1.368 . S
C489 C473 1.349 . S
C489 H481 0.950 . S
C489 C487 1.327 . S
C490 C478 1.349 . S
C490 H484 0.950 . S
C490 C491 1.327 . S
C491 H485 0.950 . S
C491 C490 1.327 . S
C491 C495 1.429 . S
C492 C475 1.574 . S
C492 H486 0.949 . S
C492 C496 1.368 . S
C493 C474 1.429 . S
C493 C487 1.429 . S
C493 C494 1.523 1_556 S
C494 C475 1.368 . S
C494 C488 1.368 . S
C494 C493 1.523 1_554 S
C495 C479 1.429 . S
C495 C491 1.429 . S
C495 C496 1.523 . S
C496 C480 1.368 . S
C496 C492 1.368 . S
C496 C495 1.523 . S
H497 C472 0.950 . S
H498 C474 0.950 . S
H499 C475 0.949 1_556 S
H500 C477 0.950 . S
H501 C479 0.950 . S
C502 C503 1.349 . S
C502 C504 1.327 . S
C502 H527 0.950 . S
C503 C502 1.349 . S
C503 C519 1.349 . S
C504 C502 1.327 . S
C504 C523 1.429 . S
C504 H528 0.950 . S
C505 C522 1.574 . S
C505 C524 1.368 . S
C505 H529 0.949 . S
H506 C510 0.949 . S
C507 C508 1.349 . S
C507 C509 1.327 . S
C507 H530 0.950 . S
C508 C507 1.349 . S
C508 C520 1.349 . S
C509 C507 1.327 . S
C509 C525 1.429 . S
C509 H531 0.950 . S
C510 H506 0.949 . S
C510 C518 1.574 . S
C510 C526 1.368 . S
H511 C519 0.950 . S
H512 C517 0.950 . S
H513 C518 0.949 . S
H514 C520 0.950 . S
H515 C521 0.950 . S
H516 C522 0.949 . S
C517 H512 0.950 . S
C517 C519 1.327 . S
C517 C523 1.429 . S
C518 C510 1.574 . S
C518 H513 0.949 . S
C518 C524 1.368 . S
C519 C503 1.349 . S
C519 H511 0.950 . S
C519 C517 1.327 . S
C520 C508 1.349 . S
C520 H514 0.950 . S
C520 C521 1.327 . S
C521 H515 0.950 . S
C521 C520 1.327 . S
C521 C525 1.429 . S
C522 C505 1.574 . S
C522 H516 0.949 . S
C522 C526 1.368 . S
C523 C504 1.429 . S
C523 C517 1.429 . S
C523 C524 1.523 . S
C524 C505 1.368 . S
C524 C518 1.368 . S
C524 C523 1.523 . S
C525 C509 1.429 . S
C525 C521 1.429 . S
C525 C526 1.523 . S
C526 C510 1.368 . S
C526 C522 1.368 . S
C526 C525 1.523 . S
H527 C502 0.950 . S
H528 C504 0.950 . S
H529 C505 0.949 . S
H530 C507 0.950 . S
H531 C509 0.950 . S
C532 C533 1.349 . S
C532 C534 1.327 . S
C532 H557 0.950 . S
C533 C532 1.349 . S
C533 C549 1.349 . S
C534 C532 1.327 . S
C534 C553 1.429 . S
C534 H558 0.950 . S
C535 C552 1.574 . S
C535 C554 1.368 . S
C535 H559 0.949 . S
H536 C540 0.949 . S
C537 C538 1.349 . S
C537 C539 1.327 . S
C537 H560 0.950 . S
C538 C537 1.349 . S
C538 C550 1.349 . S
C539 C537 1.327 . S
C539 C555 1.429 . S
C539 H561 0.950 . S
C540 H536 0.949 . S
C540 C548 1.574 . S
C540 C556 1.368 . S
H541 C549 0.950 . S
H542 C547 0.950 . S
H543 C548 0.949 . S
H544 C550 0.950 . S
H545 C551 0.950 . S
H546 C552 0.949 . S
C547 H542 0.950 . S
C547 C549 1.327 . S
C547 C553 1.429 . S
C548 C540 1.574 . S
C548 H543 0.949 . S
C548 C554 1.368 . S
C549 C533 1.349 . S
C549 H541 0.950 . S
C549 C547 1.327 . S
C550 C538 1.349 . S
C550 H544 0.950 . S
C550 C551 1.327 . S
C551 H545 0.950 . S
C551 C550 1.327 . S
C551 C555 1.429 . S
C552 C535 1.574 . S
C552 H546 0.949 . S
C552 C556 1.368 . S
C553 C534 1.429 . S
C553 C547 1.429 . S
C553 C554 1.523 . S
C554 C535 1.368 . S
C554 C548 1.368 . S
C554 C553 1.523 . S
C555 C539 1.429 . S
C555 C551 1.429 . S
C555 C556 1.523 . S
C556 C540 1.368 . S
C556 C552 1.368 . S
C556 C555 1.523 . S
H557 C532 0.950 . S
H558 C534 0.950 . S
H559 C535 0.949 . S
H560 C537 0.950 . S
H561 C539 0.950 . S
C562 C563 1.349 . S
C562 C564 1.327 . S
C562 H587 0.950 . S
C563 C562 1.349 . S
C563 C579 1.349 . S
C564 C562 1.327 . S
C564 C583 1.429 . S
C564 H588 0.950 . S
C565 C582 1.574 . S
C565 C584 1.368 . S
C565 H589 0.949 . S
H566 C570 0.949 . S
C567 C568 1.349 . S
C567 C569 1.327 . S
C567 H590 0.950 . S
C568 C567 1.349 . S
C568 C580 1.349 . S
C569 C567 1.327 . S
C569 C585 1.429 . S
C569 H591 0.950 . S
C570 H566 0.949 . S
C570 C578 1.574 . S
C570 C586 1.368 . S
H571 C579 0.950 . S
H572 C577 0.950 . S
H573 C578 0.949 . S
H574 C580 0.950 . S
H575 C581 0.950 . S
H576 C582 0.949 . S
C577 H572 0.950 . S
C577 C579 1.327 . S
C577 C583 1.429 . S
C578 C570 1.574 . S
C578 H573 0.949 . S
C578 C584 1.368 . S
C579 C563 1.349 . S
C579 H571 0.950 . S
C579 C577 1.327 . S
C580 C568 1.349 . S
C580 H574 0.950 . S
C580 C581 1.327 . S
C581 H575 0.950 . S
C581 C580 1.327 . S
C581 C585 1.429 . S
C582 C565 1.574 . S
C582 H576 0.949 . S
C582 C586 1.368 . S
C583 C564 1.429 . S
C583 C577 1.429 . S
C583 C584 1.523 . S
C584 C565 1.368 . S
C584 C578 1.368 . S
C584 C583 1.523 . S
C585 C569 1.429 . S
C585 C581 1.429 . S
C585 C586 1.523 . S
C586 C570 1.368 . S
C586 C582 1.368 . S
C586 C585 1.523 . S
H587 C562 0.950 . S
H588 C564 0.950 . S
H589 C565 0.949 . S
H590 C567 0.950 . S
H591 C569 0.950 . S
C113 C9 0.502 . S
C118 C93 0.502 . S
C143 C23 0.502 . S
C148 C107 0.502 . S
C173 C65 0.502 . S
C178 C37 0.502 . S
C203 C79 0.502 . S
C208 C51 0.502 . S
C233 C11 1.477 . S
C238 C81 1.477 . S
C263 C25 1.477 . S
C268 C95 1.477 . S
C293 C109 1.476 . S
C298 C39 1.477 . S
C323 C53 1.477 . S
C328 C67 1.477 . S
C353 C61 1.503 . S
C358 C5 1.503 . S
C383 C19 1.503 . S
C388 C75 1.503 . S
C413 C33 1.503 . S
C418 C89 1.503 . S
C443 C103 1.503 . S
C448 C47 1.503 . S
C473 C84 1.496 . S
C478 C0 1.496 . S
C503 C98 1.496 . S
C508 C14 1.496 . S
C533 C28 1.496 . S
C538 C56 1.496 . S
C563 C42 1.497 . S
C568 C70 1.497 . S
