# Generated by pormake.
# Topology utq, (3)-cn, num edge types: 1
# Building blocks:
#     Node 0, Type 0, BuildingBlock: WUSLED_clean_sbu_0, # of connection points: 3
#     Node 1, Type 0, BuildingBlock: WUSLED_clean_sbu_0, # of connection points: 3
#     Node 2, Type 0, BuildingBlock: WUSLED_clean_sbu_0, # of connection points: 3
#     Node 3, Type 0, BuildingBlock: WUSLED_clean_sbu_0, # of connection points: 3
#     Node 4, Type 0, BuildingBlock: WUSLED_clean_sbu_0, # of connection points: 3
#     Node 5, Type 0, BuildingBlock: WUSLED_clean_sbu_0, # of connection points: 3
#     Node 6, Type 0, BuildingBlock: WUSLED_clean_sbu_0, # of connection points: 3
#     Node 7, Type 0, BuildingBlock: WUSLED_clean_sbu_0, # of connection points: 3
#     Node 8, Type 0, BuildingBlock: WUSLED_clean_sbu_0, # of connection points: 3
#     Node 9, Type 0, BuildingBlock: WUSLED_clean_sbu_0, # of connection points: 3
#     Node 10, Type 0, BuildingBlock: WUSLED_clean_sbu_0, # of connection points: 3
#     Node 11, Type 0, BuildingBlock: WUSLED_clean_sbu_0, # of connection points: 3
#     Node 12, Type 0, BuildingBlock: WUSLED_clean_sbu_0, # of connection points: 3
#     Node 13, Type 0, BuildingBlock: WUSLED_clean_sbu_0, # of connection points: 3
#     Node 14, Type 0, BuildingBlock: WUSLED_clean_sbu_0, # of connection points: 3
#     Node 15, Type 0, BuildingBlock: WUSLED_clean_sbu_0, # of connection points: 3
#     Node 16, Type 0, BuildingBlock: WUSLED_clean_sbu_0, # of connection points: 3
#     Node 17, Type 0, BuildingBlock: WUSLED_clean_sbu_0, # of connection points: 3
#     Node 18, Type 0, BuildingBlock: WUSLED_clean_sbu_0, # of connection points: 3
#     Node 19, Type 0, BuildingBlock: WUSLED_clean_sbu_0, # of connection points: 3
#     Node 20, Type 0, BuildingBlock: WUSLED_clean_sbu_0, # of connection points: 3
#     Node 21, Type 0, BuildingBlock: WUSLED_clean_sbu_0, # of connection points: 3
#     Node 22, Type 0, BuildingBlock: WUSLED_clean_sbu_0, # of connection points: 3
#     Node 23, Type 0, BuildingBlock: WUSLED_clean_sbu_0, # of connection points: 3
#     Node 24, Type 0, BuildingBlock: WUSLED_clean_sbu_0, # of connection points: 3
#     Node 25, Type 0, BuildingBlock: WUSLED_clean_sbu_0, # of connection points: 3
#     Node 26, Type 0, BuildingBlock: WUSLED_clean_sbu_0, # of connection points: 3
#     Node 27, Type 0, BuildingBlock: WUSLED_clean_sbu_0, # of connection points: 3
#     Node 28, Type 0, BuildingBlock: WUSLED_clean_sbu_0, # of connection points: 3
#     Node 29, Type 0, BuildingBlock: WUSLED_clean_sbu_0, # of connection points: 3
#     Node 30, Type 0, BuildingBlock: WUSLED_clean_sbu_0, # of connection points: 3
#     Node 31, Type 0, BuildingBlock: WUSLED_clean_sbu_0, # of connection points: 3
#     Edge 32, Type (0, 0), BuildingBlock: MIFKUJ_clean_linker_0, # of connection points: 2
#     Edge 33, Type (0, 0), BuildingBlock: MIFKUJ_clean_linker_0, # of connection points: 2
#     Edge 34, Type (0, 0), BuildingBlock: MIFKUJ_clean_linker_0, # of connection points: 2
#     Edge 35, Type (0, 0), BuildingBlock: MIFKUJ_clean_linker_0, # of connection points: 2
#     Edge 36, Type (0, 0), BuildingBlock: MIFKUJ_clean_linker_0, # of connection points: 2
#     Edge 37, Type (0, 0), BuildingBlock: MIFKUJ_clean_linker_0, # of connection points: 2
#     Edge 38, Type (0, 0), BuildingBlock: MIFKUJ_clean_linker_0, # of connection points: 2
#     Edge 39, Type (0, 0), BuildingBlock: MIFKUJ_clean_linker_0, # of connection points: 2
#     Edge 40, Type (0, 0), BuildingBlock: MIFKUJ_clean_linker_0, # of connection points: 2
#     Edge 41, Type (0, 0), BuildingBlock: MIFKUJ_clean_linker_0, # of connection points: 2
#     Edge 42, Type (0, 0), BuildingBlock: MIFKUJ_clean_linker_0, # of connection points: 2
#     Edge 43, Type (0, 0), BuildingBlock: MIFKUJ_clean_linker_0, # of connection points: 2
#     Edge 44, Type (0, 0), BuildingBlock: MIFKUJ_clean_linker_0, # of connection points: 2
#     Edge 45, Type (0, 0), BuildingBlock: MIFKUJ_clean_linker_0, # of connection points: 2
#     Edge 46, Type (0, 0), BuildingBlock: MIFKUJ_clean_linker_0, # of connection points: 2
#     Edge 47, Type (0, 0), BuildingBlock: MIFKUJ_clean_linker_0, # of connection points: 2
#     Edge 48, Type (0, 0), BuildingBlock: MIFKUJ_clean_linker_0, # of connection points: 2
#     Edge 49, Type (0, 0), BuildingBlock: MIFKUJ_clean_linker_0, # of connection points: 2
#     Edge 50, Type (0, 0), BuildingBlock: MIFKUJ_clean_linker_0, # of connection points: 2
#     Edge 51, Type (0, 0), BuildingBlock: MIFKUJ_clean_linker_0, # of connection points: 2
#     Edge 52, Type (0, 0), BuildingBlock: MIFKUJ_clean_linker_0, # of connection points: 2
#     Edge 53, Type (0, 0), BuildingBlock: MIFKUJ_clean_linker_0, # of connection points: 2
#     Edge 54, Type (0, 0), BuildingBlock: MIFKUJ_clean_linker_0, # of connection points: 2
#     Edge 55, Type (0, 0), BuildingBlock: MIFKUJ_clean_linker_0, # of connection points: 2
#     Edge 56, Type (0, 0), BuildingBlock: MIFKUJ_clean_linker_0, # of connection points: 2
#     Edge 57, Type (0, 0), BuildingBlock: MIFKUJ_clean_linker_0, # of connection points: 2
#     Edge 58, Type (0, 0), BuildingBlock: MIFKUJ_clean_linker_0, # of connection points: 2
#     Edge 59, Type (0, 0), BuildingBlock: MIFKUJ_clean_linker_0, # of connection points: 2
#     Edge 60, Type (0, 0), BuildingBlock: MIFKUJ_clean_linker_0, # of connection points: 2
#     Edge 61, Type (0, 0), BuildingBlock: MIFKUJ_clean_linker_0, # of connection points: 2
#     Edge 62, Type (0, 0), BuildingBlock: MIFKUJ_clean_linker_0, # of connection points: 2
#     Edge 63, Type (0, 0), BuildingBlock: MIFKUJ_clean_linker_0, # of connection points: 2
#     Edge 64, Type (0, 0), BuildingBlock: MIFKUJ_clean_linker_0, # of connection points: 2
#     Edge 65, Type (0, 0), BuildingBlock: MIFKUJ_clean_linker_0, # of connection points: 2
#     Edge 66, Type (0, 0), BuildingBlock: MIFKUJ_clean_linker_0, # of connection points: 2
#     Edge 67, Type (0, 0), BuildingBlock: MIFKUJ_clean_linker_0, # of connection points: 2
#     Edge 68, Type (0, 0), BuildingBlock: MIFKUJ_clean_linker_0, # of connection points: 2
#     Edge 69, Type (0, 0), BuildingBlock: MIFKUJ_clean_linker_0, # of connection points: 2
#     Edge 70, Type (0, 0), BuildingBlock: MIFKUJ_clean_linker_0, # of connection points: 2
#     Edge 71, Type (0, 0), BuildingBlock: MIFKUJ_clean_linker_0, # of connection points: 2
#     Edge 72, Type (0, 0), BuildingBlock: MIFKUJ_clean_linker_0, # of connection points: 2
#     Edge 73, Type (0, 0), BuildingBlock: MIFKUJ_clean_linker_0, # of connection points: 2
#     Edge 74, Type (0, 0), BuildingBlock: MIFKUJ_clean_linker_0, # of connection points: 2
#     Edge 75, Type (0, 0), BuildingBlock: MIFKUJ_clean_linker_0, # of connection points: 2
#     Edge 76, Type (0, 0), BuildingBlock: MIFKUJ_clean_linker_0, # of connection points: 2
#     Edge 77, Type (0, 0), BuildingBlock: MIFKUJ_clean_linker_0, # of connection points: 2
#     Edge 78, Type (0, 0), BuildingBlock: MIFKUJ_clean_linker_0, # of connection points: 2
#     Edge 79, Type (0, 0), BuildingBlock: MIFKUJ_clean_linker_0, # of connection points: 2
# Relax obj value: 0.038
# Max RMSD: 0.047
# Mean RMSD: 0.044
data_MOF--net-utq--node1-WUSLED_clean_sbu_0--edge1-MIFKUJ_clean_linker_0
_symmetry_space_group_name_H-M    P1
_symmetry_Int_Tables_number       1
_symmetry_cell_setting            triclinic
loop_
_symmetry_equiv_pos_as_xyz
'x, y, z'
_cell_length_a     64.382665
_cell_length_b     57.497408
_cell_length_c     181.39799
_cell_angle_alpha  90.052222
_cell_angle_beta   90.022294
_cell_angle_gamma 89.940818
loop_
_atom_site_label
_atom_site_type_symbol
_atom_site_fract_x
_atom_site_fract_y
_atom_site_fract_z
_atom_type_partial_charge
C0 C 0.48296 0.25416 0.05859 0.0
C1 C 0.4801 0.26696 0.06509 0.0
C2 C 0.45947 0.29594 0.05831 0.0
C3 C 0.46867 0.28785 0.06493 0.0
C4 C 0.46295 0.28287 0.05185 0.0
C5 C 0.47469 0.26253 0.05199 0.0
U6 U 0.51176 0.19306 0.0625 0.0
O7 O 0.50006 0.16177 0.05675 0.0
O8 O 0.53087 0.1767 0.0538 0.0
C9 C 0.51671 0.16068 0.05259 0.0
C10 C 0.49291 0.23116 0.05833 0.0
C11 C 0.51913 0.14309 0.04678 0.0
C12 C 0.51309 0.12966 0.03424 0.0
C13 C 0.51314 0.14763 0.03948 0.0
C14 C 0.52583 0.10288 0.04351 0.0
C15 C 0.51897 0.10691 0.03625 0.0
C16 C 0.5258 0.12078 0.04871 0.0
C17 C 0.53023 0.17979 0.08353 0.0
C18 C 0.53952 0.14984 0.09239 0.0
C19 C 0.53662 0.18998 0.09634 0.0
C20 C 0.5315 0.19648 0.08915 0.0
C21 C 0.54045 0.16659 0.09804 0.0
C22 C 0.53449 0.1564 0.08516 0.0
C23 C 0.52302 0.18735 0.07621 0.0
O24 O 0.51325 0.2292 0.05835 0.0
O25 O 0.48296 0.21311 0.061 0.0
O26 O 0.5048 0.18072 0.07371 0.0
O27 O 0.53573 0.196 0.07125 0.0
H28 H 0.48642 0.26073 0.07026 0.0
H29 H 0.46701 0.29741 0.07003 0.0
H30 H 0.45597 0.28758 0.04664 0.0
H31 H 0.47662 0.25275 0.04693 0.0
H32 H 0.50755 0.13337 0.02873 0.0
H33 H 0.5078 0.16479 0.0379 0.0
H34 H 0.53086 0.08574 0.04522 0.0
H35 H 0.53047 0.11702 0.05433 0.0
H36 H 0.54235 0.13167 0.09361 0.0
H37 H 0.53696 0.20311 0.10063 0.0
H38 H 0.52803 0.21457 0.088 0.0
H39 H 0.53351 0.14325 0.08089 0.0
C40 C 0.75902 0.0177 0.0582 0.0
C41 C 0.76426 1.00442 0.06469 0.0
C42 C 0.78296 0.97521 0.05742 0.0
C43 C 0.77606 0.98382 0.06429 0.0
C44 C 0.77689 0.98695 0.05098 0.0
C45 C 0.76502 1.00722 0.05138 0.0
U46 U 0.73087 0.07954 0.06208 0.0
O47 O 0.74305 0.1101 0.05612 0.0
O48 O 0.71179 0.09601 0.05336 0.0
C49 C 0.72615 0.11176 0.0521 0.0
C50 C 0.74916 0.0408 0.05818 0.0
C51 C 0.72429 0.12891 0.04613 0.0
C52 C 0.73348 0.1427 0.03389 0.0
C53 C 0.7333 0.12496 0.03919 0.0
C54 C 0.71504 0.1681 0.04232 0.0
C55 C 0.72466 0.16448 0.03548 0.0
C56 C 0.71486 0.15039 0.04761 0.0
C57 C 0.71258 0.09347 0.08314 0.0
C58 C 0.70436 0.12276 0.09236 0.0
C59 C 0.70598 0.08214 0.09584 0.0
C60 C 0.71067 0.0762 0.08855 0.0
C61 C 0.70304 0.10554 0.09787 0.0
C62 C 0.70918 0.11678 0.08506 0.0
C63 C 0.71933 0.08686 0.07568 0.0
O64 O 0.72884 0.04317 0.05807 0.0
O65 O 0.75933 0.05875 0.06082 0.0
O66 O 0.73775 0.09283 0.0732 0.0
O67 O 0.70675 0.07748 0.0708 0.0
H68 H 0.75986 0.01263 0.07002 0.0
H69 H 0.78054 0.97524 0.06936 0.0
H70 H 0.78162 0.98067 0.04561 0.0
H71 H 0.76116 0.01756 0.04632 0.0
H72 H 0.7411 0.13969 0.02865 0.0
H73 H 0.74073 0.10849 0.03796 0.0
H74 H 0.70837 0.18488 0.04367 0.0
H75 H 0.70799 0.15375 0.05295 0.0
H76 H 0.70189 0.1409 0.09371 0.0
H77 H 0.70533 0.06848 0.09994 0.0
H78 H 0.71339 0.05811 0.08716 0.0
H79 H 0.71052 0.13035 0.08096 0.0
C80 C 0.48333 0.01887 0.21426 0.0
C81 C 0.47738 1.00724 0.20757 0.0
C82 C 0.45925 0.9762 0.21428 0.0
C83 C 0.46561 0.98663 0.20758 0.0
C84 C 0.46589 0.98645 0.22092 0.0
C85 C 0.47781 1.00674 0.22089 0.0
U86 U 0.51144 0.08053 0.2106 0.0
O87 O 0.49951 0.11142 0.21652 0.0
O88 O 0.53063 0.09694 0.21928 0.0
C89 C 0.51615 0.11245 0.22069 0.0
C90 C 0.49309 0.04201 0.21475 0.0
C91 C 0.51892 0.13066 0.22629 0.0
C92 C 0.51259 0.14494 0.23871 0.0
C93 C 0.51224 0.12685 0.23354 0.0
C94 C 0.5272 0.17059 0.22949 0.0
C95 C 0.51968 0.16724 0.23672 0.0
C96 C 0.52671 0.15251 0.22432 0.0
C97 C 0.52925 0.09332 0.18942 0.0
C98 C 0.54382 0.11988 0.18035 0.0
C99 C 0.53 0.08268 0.17647 0.0
C100 C 0.52504 0.07741 0.18378 0.0
C101 C 0.53912 0.10415 0.17462 0.0
C102 C 0.53891 0.11449 0.1877 0.0
C103 C 0.52256 0.08791 0.19698 0.0
O104 O 0.51342 0.04422 0.21465 0.0
O105 O 0.48297 0.06006 0.21214 0.0
O106 O 0.50392 0.09322 0.1994 0.0
O107 O 0.5353 0.07877 0.20185 0.0
H108 H 0.48145 0.01668 0.20238 0.0
H109 H 0.46124 0.97911 0.20234 0.0
H110 H 0.46116 0.97945 0.22619 0.0
H111 H 0.48207 0.0159 0.22612 0.0
H112 H 0.50646 0.14165 0.24417 0.0
H113 H 0.50608 0.11006 0.23513 0.0
H114 H 0.53321 0.18731 0.22778 0.0
H115 H 0.53197 0.15576 0.21874 0.0
H116 H 0.55065 0.13665 0.17915 0.0
H117 H 0.52655 0.06989 0.17226 0.0
H118 H 0.51765 0.06094 0.18501 0.0
H119 H 0.54222 0.12703 0.192 0.0
C120 C 0.75894 0.25601 0.21456 0.0
C121 C 0.76338 0.2686 0.20811 0.0
C122 C 0.78316 0.29687 0.21534 0.0
C123 C 0.77526 0.2891 0.20852 0.0
C124 C 0.77806 0.28451 0.22175 0.0
C125 C 0.76597 0.26442 0.22136 0.0
U126 U 0.73104 0.19404 0.21064 0.0
O127 O 0.74338 0.1637 0.21665 0.0
O128 O 0.71194 0.17747 0.21933 0.0
C129 C 0.72636 0.16177 0.22058 0.0
C130 C 0.74908 0.23292 0.2145 0.0
C131 C 0.72485 0.14491 0.22663 0.0
C132 C 0.73503 0.13129 0.23876 0.0
C133 C 0.73482 0.14875 0.23339 0.0
C134 C 0.71486 0.10631 0.23073 0.0
C135 C 0.72555 0.1096 0.23742 0.0
C136 C 0.71452 0.12385 0.2254 0.0
C137 C 0.71302 0.18009 0.18954 0.0
C138 C 0.70094 0.15227 0.18038 0.0
C139 C 0.71022 0.19134 0.17668 0.0
C140 C 0.71503 0.19682 0.18399 0.0
C141 C 0.70345 0.16886 0.17473 0.0
C142 C 0.70569 0.15785 0.18772 0.0
C143 C 0.71967 0.18578 0.19708 0.0
O144 O 0.72876 0.23051 0.21455 0.0
O145 O 0.75939 0.21495 0.21192 0.0
O146 O 0.73835 0.18066 0.19951 0.0
O147 O 0.70702 0.19529 0.20191 0.0
H148 H 0.7582 0.26226 0.2028 0.0
H149 H 0.77908 0.29828 0.20349 0.0
H150 H 0.78383 0.29014 0.22708 0.0
H151 H 0.76278 0.25489 0.22639 0.0
H152 H 0.74299 0.13463 0.24392 0.0
H153 H 0.74281 0.16499 0.23444 0.0
H154 H 0.70753 0.08984 0.22947 0.0
H155 H 0.7068 0.12063 0.22019 0.0
H156 H 0.69599 0.13472 0.17913 0.0
H157 H 0.71189 0.20482 0.17256 0.0
H158 H 0.72063 0.21411 0.18531 0.0
H159 H 0.70409 0.14468 0.19195 0.0
C160 C 0.51573 0.76266 0.96443 0.0
C161 C 0.52006 0.74992 0.95801 0.0
C162 C 0.54138 0.7227 0.96517 0.0
C163 C 0.53272 0.72998 0.95839 0.0
C164 C 0.53593 0.73505 0.97159 0.0
C165 C 0.52336 0.75477 0.9712 0.0
U166 U 0.48675 0.82376 0.96027 0.0
O167 O 0.46807 0.84049 0.96904 0.0
O168 O 0.49895 0.8549 0.96593 0.0
C169 C 0.4826 0.85611 0.97023 0.0
C170 C 0.50545 0.78552 0.96437 0.0
C171 C 0.48017 0.8747 0.97572 0.0
C172 C 0.48512 0.88875 0.98824 0.0
C173 C 0.48431 0.87035 0.98318 0.0
C174 C 0.47641 0.91575 0.97847 0.0
C175 C 0.48165 0.91183 0.98592 0.0
C176 C 0.47593 0.89741 0.97341 0.0
C177 C 0.4692 0.83661 0.93914 0.0
C178 C 0.45765 0.86498 0.93014 0.0
C179 C 0.4679 0.82649 0.92619 0.0
C180 C 0.47197 0.82048 0.93349 0.0
C181 C 0.4612 0.84914 0.92425 0.0
C182 C 0.46165 0.85877 0.93747 0.0
C183 C 0.47588 0.83031 0.9466 0.0
O184 O 0.51544 0.80358 0.96173 0.0
O185 O 0.4851 0.78746 0.96435 0.0
O186 O 0.46292 0.8217 0.9515 0.0
O187 O 0.49432 0.83611 0.94909 0.0
H188 H 0.51434 0.75582 0.95271 0.0
H189 H 0.53654 0.72102 0.95331 0.0
H190 H 0.54168 0.72976 0.97694 0.0
H191 H 0.52016 0.76439 0.97622 0.0
H192 H 0.48939 0.88494 0.99388 0.0
H193 H 0.48783 0.85287 0.98503 0.0
H194 H 0.47305 0.9331 0.97649 0.0
H195 H 0.47271 0.90104 0.96767 0.0
H196 H 0.45234 0.88251 0.92926 0.0
H197 H 0.4704 0.81295 0.92218 0.0
H198 H 0.47775 0.80318 0.93471 0.0
H199 H 0.45937 0.87148 0.94181 0.0
C200 C 0.2509 1.00935 0.96372 0.0
C201 C 0.24525 0.02254 0.95728 0.0
C202 C 0.22596 0.05139 0.96459 0.0
C203 C 0.23292 0.04274 0.95771 0.0
C204 C 0.23282 0.03986 0.97101 0.0
C205 C 0.24496 0.01975 0.97056 0.0
U206 U 0.27912 0.94752 0.95961 0.0
O207 O 0.29761 0.93074 0.96841 0.0
O208 O 0.26646 0.91686 0.96542 0.0
C209 C 0.28291 0.91539 0.96966 0.0
C210 C 0.26093 0.98627 0.96364 0.0
C211 C 0.2851 0.89719 0.97529 0.0
C212 C 0.27834 0.88326 0.98771 0.0
C213 C 0.27907 0.90146 0.98259 0.0
C214 C 0.29096 0.85665 0.97838 0.0
C215 C 0.28385 0.86039 0.98564 0.0
C216 C 0.29131 0.87479 0.97325 0.0
C217 C 0.29694 0.93398 0.9384 0.0
C218 C 0.30955 0.90646 0.9292 0.0
C219 C 0.29776 0.94461 0.92544 0.0
C220 C 0.29345 0.9502 0.93279 0.0
C221 C 0.30539 0.92244 0.92347 0.0
C222 C 0.30536 0.9122 0.93658 0.0
C223 C 0.29034 0.93948 0.946 0.0
O224 O 0.25074 0.96836 0.96098 0.0
O225 O 0.28126 0.98392 0.96365 0.0
O226 O 0.3031 0.94861 0.95087 0.0
O227 O 0.27161 0.93465 0.94842 0.0
H228 H 0.24966 0.01576 0.95193 0.0
H229 H 0.22805 0.05079 0.95261 0.0
H230 H 0.22864 0.04609 0.97644 0.0
H231 H 0.24917 1.00952 0.97561 0.0
H232 H 0.27255 0.88707 0.99318 0.0
H233 H 0.27408 0.91869 0.98425 0.0
H234 H 0.29601 0.83963 0.97657 0.0
H235 H 0.29605 0.8712 0.96763 0.0
H236 H 0.31525 0.88917 0.92798 0.0
H237 H 0.29491 0.95775 0.92129 0.0
H238 H 0.28702 0.96714 0.93408 0.0
H239 H 0.30813 0.89939 0.94085 0.0
C240 C 0.51582 1.00803 0.80774 0.0
C241 C 0.51699 0.02472 0.81376 0.0
C242 C 0.54144 0.0492 0.80697 0.0
C243 C 0.52961 0.0447 0.81334 0.0
C244 C 0.53946 0.03424 0.8009 0.0
C245 C 0.52672 0.01465 0.80127 0.0
U246 U 0.48649 0.94685 0.81192 0.0
O247 O 0.46786 0.93018 0.80312 0.0
O248 O 0.49885 0.91589 0.80615 0.0
C249 C 0.48229 0.9144 0.80195 0.0
C250 C 0.5054 0.98522 0.80807 0.0
C251 C 0.48033 0.89667 0.79612 0.0
C252 C 0.48862 0.88236 0.78384 0.0
C253 C 0.48818 0.90049 0.78903 0.0
C254 C 0.47211 0.85692 0.79266 0.0
C255 C 0.48097 0.85993 0.78558 0.0
C256 C 0.4721 0.87491 0.79786 0.0
C257 C 0.46822 0.93294 0.83298 0.0
C258 C 0.45775 0.90321 0.84176 0.0
C259 C 0.46466 0.94237 0.846 0.0
C260 C 0.469 0.94911 0.83876 0.0
C261 C 0.45928 0.91923 0.84764 0.0
C262 C 0.46232 0.90997 0.8345 0.0
C263 C 0.47523 0.94028 0.82561 0.0
O264 O 0.51534 0.967 0.81063 0.0
O265 O 0.48504 0.98332 0.80799 0.0
O266 O 0.46244 0.94896 0.82067 0.0
O267 O 0.49358 0.93415 0.82311 0.0
H268 H 0.50876 0.02088 0.81882 0.0
H269 H 0.53095 0.05595 0.81811 0.0
H270 H 0.54832 0.03733 0.79591 0.0
H271 H 0.52601 1.0017 0.79657 0.0
H272 H 0.49582 0.88604 0.7786 0.0
H273 H 0.49469 0.91724 0.78758 0.0
H274 H 0.46515 0.8407 0.79433 0.0
H275 H 0.46591 0.87165 0.80332 0.0
H276 H 0.45326 0.88536 0.84276 0.0
H277 H 0.46632 0.95518 0.85034 0.0
H278 H 0.47367 0.9669 0.8377 0.0
H279 H 0.4616 0.89721 0.83011 0.0
C280 C 0.25055 0.76211 0.80701 0.0
C281 C 0.24693 0.74932 0.81347 0.0
C282 C 0.22546 0.72184 0.80654 0.0
C283 C 0.23441 0.72925 0.81323 0.0
C284 C 0.22988 0.73418 0.80008 0.0
C285 C 0.24231 0.75407 0.80032 0.0
U286 U 0.27936 0.82325 0.81131 0.0
O287 O 0.29791 0.84006 0.80253 0.0
O288 O 0.2672 0.85465 0.80577 0.0
C289 C 0.2834 0.85577 0.8014 0.0
C290 C 0.26069 0.78511 0.80696 0.0
C291 C 0.28569 0.8743 0.79588 0.0
C292 C 0.28287 0.88747 0.78317 0.0
C293 C 0.28397 0.86934 0.78832 0.0
C294 C 0.28611 0.91553 0.79307 0.0
C295 C 0.28341 0.91078 0.78552 0.0
C296 C 0.28712 0.89746 0.7982 0.0
C297 C 0.29706 0.83665 0.83247 0.0
C298 C 0.30652 0.86671 0.84132 0.0
C299 C 0.30047 0.82733 0.84551 0.0
C300 C 0.29637 0.82048 0.83826 0.0
C301 C 0.30523 0.85058 0.84713 0.0
C302 C 0.30252 0.85979 0.83402 0.0
C303 C 0.29018 0.82902 0.82509 0.0
O304 O 0.2507 0.80309 0.80968 0.0
O305 O 0.28103 0.78709 0.80707 0.0
O306 O 0.30319 0.82085 0.82013 0.0
O307 O 0.27187 0.83513 0.82255 0.0
H308 H 0.25306 0.75529 0.8187 0.0
H309 H 0.23106 0.72004 0.8183 0.0
H310 H 0.22297 0.72898 0.79488 0.0
H311 H 0.24479 0.7638 0.79528 0.0
H312 H 0.28063 0.88329 0.7774 0.0
H313 H 0.28256 0.85152 0.78644 0.0
H314 H 0.28685 0.9333 0.79504 0.0
H315 H 0.28838 0.9016 0.80401 0.0
H316 H 0.31019 0.88474 0.84246 0.0
H317 H 0.29918 0.81464 0.8499 0.0
H318 H 0.292 0.8026 0.83718 0.0
H319 H 0.30309 0.87256 0.82964 0.0
C320 C 0.48383 0.75457 0.55835 0.0
C321 C 0.47524 0.76266 0.56499 0.0
C322 C 0.45914 0.79527 0.55848 0.0
C323 C 0.46295 0.78289 0.56504 0.0
C324 C 0.46853 0.78761 0.55193 0.0
C325 C 0.48068 0.76744 0.55188 0.0
U326 U 0.51151 0.69256 0.56169 0.0
O327 O 0.49951 0.66195 0.55568 0.0
O328 O 0.53089 0.67596 0.55309 0.0
C329 C 0.51648 0.66039 0.5517 0.0
C330 C 0.49344 0.73139 0.5576 0.0
C331 C 0.51892 0.64273 0.5459 0.0
C332 C 0.51091 0.62798 0.53366 0.0
C333 C 0.51021 0.64593 0.53889 0.0
C334 C 0.52978 0.60389 0.54232 0.0
C335 C 0.52035 0.60647 0.53535 0.0
C336 C 0.52895 0.62178 0.54754 0.0
C337 C 0.52921 0.67908 0.58286 0.0
C338 C 0.54556 0.65297 0.5917 0.0
C339 C 0.5281 0.68784 0.59594 0.0
C340 C 0.52327 0.69367 0.58867 0.0
C341 C 0.53905 0.66731 0.59754 0.0
C342 C 0.54057 0.65877 0.58439 0.0
C343 C 0.52247 0.68479 0.57532 0.0
O344 O 0.51376 0.72895 0.5577 0.0
O345 O 0.48323 0.7133 0.56012 0.0
O346 O 0.50377 0.67986 0.57288 0.0
O347 O 0.53531 0.69378 0.57046 0.0
H348 H 0.47734 0.75291 0.57004 0.0
H349 H 0.4559 0.78851 0.57017 0.0
H350 H 0.46566 0.79661 0.54679 0.0
H351 H 0.48689 0.76128 0.54668 0.0
H352 H 0.50326 0.63071 0.52842 0.0
H353 H 0.50236 0.66204 0.53754 0.0
H354 H 0.53766 0.58795 0.54381 0.0
H355 H 0.53581 0.61906 0.55293 0.0
H356 H 0.55386 0.63695 0.5928 0.0
H357 H 0.52301 0.69923 0.60035 0.0
H358 H 0.51452 0.70942 0.58759 0.0
H359 H 0.54518 0.64722 0.57996 0.0
C360 C 0.75873 0.51649 0.5579 0.0
C361 C 0.76748 0.5085 0.56452 0.0
C362 C 0.78335 0.47575 0.55799 0.0
C363 C 0.77972 0.48825 0.56455 0.0
C364 C 0.77373 0.48331 0.55147 0.0
C365 C 0.76161 0.5035 0.55144 0.0
U366 U 0.73093 0.57818 0.56146 0.0
O367 O 0.74281 0.60922 0.55566 0.0
O368 O 0.71177 0.59467 0.5528 0.0
C369 C 0.72621 0.61027 0.55147 0.0
C370 C 0.74919 0.53968 0.55717 0.0
C371 C 0.72355 0.62835 0.54586 0.0
C372 C 0.72842 0.64175 0.53328 0.0
C373 C 0.72823 0.62369 0.53845 0.0
C374 C 0.71852 0.66902 0.54285 0.0
C375 C 0.72406 0.6647 0.53548 0.0
C376 C 0.71832 0.65098 0.548 0.0
C377 C 0.71332 0.59136 0.58264 0.0
C378 C 0.70195 0.61977 0.59172 0.0
C379 C 0.70916 0.58025 0.59546 0.0
C380 C 0.71429 0.57463 0.58819 0.0
C381 C 0.70318 0.6031 0.59748 0.0
C382 C 0.70688 0.61392 0.58441 0.0
C383 C 0.72002 0.58489 0.57515 0.0
O384 O 0.72887 0.54202 0.55726 0.0
O385 O 0.75931 0.55769 0.5598 0.0
O386 O 0.73844 0.59073 0.57264 0.0
O387 O 0.70716 0.57601 0.57027 0.0
H388 H 0.76556 0.51835 0.56957 0.0
H389 H 0.78683 0.48268 0.56967 0.0
H390 H 0.7764 0.47424 0.54632 0.0
H391 H 0.75523 0.50956 0.54625 0.0
H392 H 0.73292 0.63796 0.52765 0.0
H393 H 0.73251 0.60628 0.53673 0.0
H394 H 0.71486 0.68649 0.54468 0.0
H395 H 0.71471 0.65484 0.55371 0.0
H396 H 0.69773 0.63763 0.59273 0.0
H397 H 0.70998 0.56621 0.59937 0.0
H398 H 0.71921 0.55704 0.58691 0.0
H399 H 0.70605 0.62715 0.58017 0.0
C400 C 0.48342 0.5208 0.71511 0.0
C401 C 0.4776 0.5104 0.70843 0.0
C402 C 0.46021 0.47826 0.71508 0.0
C403 C 0.46626 0.48939 0.70841 0.0
C404 C 0.46715 0.48876 0.7217 0.0
C405 C 0.4784 0.50951 0.72168 0.0
U406 U 0.51146 0.5805 0.70979 0.0
O407 O 0.50223 0.61444 0.7144 0.0
O408 O 0.53305 0.59994 0.71704 0.0
C409 C 0.52005 0.61743 0.7178 0.0
C410 C 0.49295 0.54421 0.71573 0.0
C411 C 0.52061 0.63188 0.72457 0.0
C412 C 0.50721 0.64495 0.73648 0.0
C413 C 0.50775 0.62835 0.73074 0.0
C414 C 0.53306 0.66781 0.73011 0.0
C415 C 0.51944 0.66538 0.73613 0.0
C416 C 0.53348 0.65145 0.72443 0.0
C417 C 0.52758 0.58851 0.68842 0.0
C418 C 0.54377 0.61663 0.68014 0.0
C419 C 0.52842 0.58147 0.67522 0.0
C420 C 0.52309 0.5745 0.68232 0.0
C421 C 0.53858 0.60268 0.67401 0.0
C422 C 0.53818 0.60965 0.68734 0.0
C423 C 0.52019 0.57997 0.69565 0.0
O424 O 0.51326 0.54621 0.71532 0.0
O425 O 0.48288 0.5619 0.71286 0.0
O426 O 0.50245 0.58763 0.69828 0.0
O427 O 0.53359 0.5735 0.70072 0.0
H428 H 0.48133 0.51876 0.70325 0.0
H429 H 0.46198 0.4826 0.70308 0.0
H430 H 0.46386 0.48161 0.72705 0.0
H431 H 0.48274 0.51719 0.72693 0.0
H432 H 0.4965 0.64223 0.74099 0.0
H433 H 0.49766 0.61332 0.73099 0.0
H434 H 0.54337 0.68259 0.72968 0.0
H435 H 0.5436 0.65451 0.71975 0.0
H436 H 0.5515 0.63316 0.67934 0.0
H437 H 0.52433 0.57034 0.67062 0.0
H438 H 0.51502 0.55811 0.68303 0.0
H439 H 0.54181 0.62077 0.69198 0.0
C440 C 0.75805 0.75551 0.71408 0.0
C441 C 0.76673 0.76402 0.70753 0.0
C442 C 0.78284 0.79613 0.71432 0.0
C443 C 0.77898 0.78424 0.70765 0.0
C444 C 0.77324 0.78804 0.72078 0.0
C445 C 0.76101 0.76797 0.72065 0.0
U446 U 0.7309 0.69358 0.71025 0.0
O447 O 0.74302 0.66274 0.71604 0.0
O448 O 0.71146 0.67628 0.71869 0.0
C449 C 0.72591 0.66058 0.71992 0.0
C450 C 0.74864 0.73221 0.71466 0.0
C451 C 0.72427 0.64338 0.72585 0.0
C452 C 0.7339 0.62879 0.73794 0.0
C453 C 0.73402 0.64664 0.73268 0.0
C454 C 0.71352 0.60482 0.72968 0.0
C455 C 0.72398 0.60739 0.73646 0.0
C456 C 0.71379 0.62258 0.72444 0.0
C457 C 0.71318 0.68015 0.6891 0.0
C458 C 0.70031 0.65145 0.68035 0.0
C459 C 0.71016 0.68977 0.6761 0.0
C460 C 0.71514 0.69609 0.68332 0.0
C461 C 0.70276 0.6673 0.67446 0.0
C462 C 0.70562 0.65777 0.6876 0.0
C463 C 0.72014 0.6874 0.69649 0.0
O464 O 0.72834 0.72963 0.71455 0.0
O465 O 0.759 0.7144 0.712 0.0
O466 O 0.73858 0.68162 0.699 0.0
O467 O 0.70714 0.6957 0.70143 0.0
H468 H 0.76474 0.7546 0.7024 0.0
H469 H 0.78593 0.79021 0.70255 0.0
H470 H 0.77602 0.79655 0.72602 0.0
H471 H 0.75468 0.7615 0.72579 0.0
H472 H 0.74237 0.63152 0.74302 0.0
H473 H 0.74222 0.66266 0.73386 0.0
H474 H 0.70521 0.58902 0.72835 0.0
H475 H 0.70614 0.61985 0.71918 0.0
H476 H 0.6943 0.63414 0.67939 0.0
H477 H 0.71279 0.70244 0.6718 0.0
H478 H 0.72106 0.71342 0.68437 0.0
H479 H 0.70396 0.64519 0.692 0.0
C480 C 0.51534 0.26416 0.46424 0.0
C481 C 0.52132 0.25263 0.45776 0.0
C482 C 0.54072 0.22375 0.46502 0.0
C483 C 0.53387 0.23258 0.45814 0.0
C484 C 0.53354 0.23492 0.47145 0.0
C485 C 0.52121 0.25487 0.47105 0.0
U486 U 0.4863 0.32551 0.46029 0.0
O487 O 0.46761 0.34211 0.46908 0.0
O488 O 0.49853 0.35653 0.46606 0.0
C489 C 0.48211 0.35771 0.47033 0.0
C490 C 0.5051 0.28711 0.46428 0.0
C491 C 0.47975 0.37588 0.47599 0.0
C492 C 0.48684 0.39016 0.48837 0.0
C493 C 0.4866 0.37197 0.48322 0.0
C494 C 0.47221 0.416 0.4792 0.0
C495 C 0.48005 0.41268 0.4864 0.0
C496 C 0.4723 0.39788 0.47405 0.0
C497 C 0.46774 0.33894 0.43924 0.0
C498 C 0.45577 0.36804 0.4305 0.0
C499 C 0.46504 0.32952 0.42622 0.0
C500 C 0.46957 0.32297 0.43346 0.0
C501 C 0.45832 0.35226 0.42459 0.0
C502 C 0.4606 0.36149 0.43775 0.0
C503 C 0.4749 0.33187 0.44662 0.0
O504 O 0.51499 0.30518 0.4616 0.0
O505 O 0.48476 0.28917 0.46439 0.0
O506 O 0.46218 0.32328 0.45159 0.0
O507 O 0.49331 0.33797 0.44907 0.0
H508 H 0.51699 0.25958 0.45243 0.0
H509 H 0.53896 0.22479 0.45302 0.0
H510 H 0.53758 0.22852 0.47687 0.0
H511 H 0.51674 0.2635 0.47613 0.0
H512 H 0.49324 0.38667 0.49377 0.0
H513 H 0.49252 0.35505 0.4848 0.0
H514 H 0.46616 0.43268 0.47747 0.0
H515 H 0.46691 0.4012 0.46849 0.0
H516 H 0.45022 0.38555 0.42952 0.0
H517 H 0.4676 0.31688 0.42189 0.0
H518 H 0.4752 0.30551 0.43451 0.0
H519 H 0.45906 0.37409 0.44217 0.0
C520 C 0.25061 0.50965 0.46436 0.0
C521 C 0.2475 0.5228 0.45793 0.0
C522 C 0.22524 0.54979 0.46475 0.0
C523 C 0.23489 0.54283 0.45814 0.0
C524 C 0.2291 0.53706 0.4712 0.0
C525 C 0.24171 0.51725 0.471 0.0
U526 U 0.27965 0.44816 0.46038 0.0
O527 O 0.29783 0.43183 0.46938 0.0
O528 O 0.26719 0.41728 0.46609 0.0
C529 C 0.28327 0.41623 0.47053 0.0
C530 C 0.26091 0.4867 0.46435 0.0
C531 C 0.28537 0.39772 0.47608 0.0
C532 C 0.28199 0.38479 0.4888 0.0
C533 C 0.28297 0.40281 0.4836 0.0
C534 C 0.28651 0.35655 0.47901 0.0
C535 C 0.28331 0.36149 0.48651 0.0
C536 C 0.28753 0.37453 0.47383 0.0
C537 C 0.29816 0.43463 0.43924 0.0
C538 C 0.31496 0.40882 0.43038 0.0
C539 C 0.29555 0.44227 0.42608 0.0
C540 C 0.29108 0.44842 0.43338 0.0
C541 C 0.30727 0.42224 0.4245 0.0
C542 C 0.31037 0.41493 0.4377 0.0
C543 C 0.2913 0.43985 0.44683 0.0
O544 O 0.25096 0.46857 0.46172 0.0
O545 O 0.28127 0.4847 0.46431 0.0
O546 O 0.30393 0.44891 0.45176 0.0
O547 O 0.27238 0.43544 0.44914 0.0
H548 H 0.25413 0.51716 0.45274 0.0
H549 H 0.23199 0.55234 0.45309 0.0
H550 H 0.2217 0.54195 0.47633 0.0
H551 H 0.2438 0.50725 0.47601 0.0
H552 H 0.2793 0.38899 0.49454 0.0
H553 H 0.281 0.42063 0.48542 0.0
H554 H 0.2876 0.33869 0.47713 0.0
H555 H 0.28932 0.37029 0.46805 0.0
H556 H 0.32381 0.39316 0.42929 0.0
H557 H 0.28943 0.45285 0.42165 0.0
H558 H 0.28161 0.46364 0.43445 0.0
H559 H 0.3158 0.40392 0.44215 0.0
C560 C 0.51594 0.50885 0.30794 0.0
C561 C 0.51697 0.52426 0.31395 0.0
C562 C 0.54164 0.54861 0.30721 0.0
C563 C 0.52964 0.54419 0.31355 0.0
C564 C 0.53972 0.53362 0.30113 0.0
C565 C 0.52694 0.51406 0.30149 0.0
U566 U 0.48639 0.44764 0.31194 0.0
O567 O 0.46789 0.43168 0.30294 0.0
O568 O 0.49864 0.41698 0.30606 0.0
C569 C 0.4825 0.41621 0.30164 0.0
C570 C 0.50543 0.48612 0.30829 0.0
C571 C 0.47998 0.39735 0.29624 0.0
C572 C 0.48511 0.38286 0.28376 0.0
C573 C 0.4846 0.40136 0.2888 0.0
C574 C 0.47514 0.35638 0.2935 0.0
C575 C 0.4808 0.35996 0.28607 0.0
C576 C 0.47498 0.37483 0.29854 0.0
C577 C 0.46815 0.43372 0.33298 0.0
C578 C 0.456 0.40551 0.34195 0.0
C579 C 0.46624 0.44394 0.34594 0.0
C580 C 0.47082 0.44985 0.33865 0.0
C581 C 0.4592 0.42138 0.34784 0.0
C582 C 0.46038 0.41166 0.33463 0.0
C583 C 0.47496 0.43975 0.32549 0.0
O584 O 0.51534 0.46775 0.31076 0.0
O585 O 0.48506 0.48432 0.30822 0.0
O586 O 0.4623 0.4491 0.32063 0.0
O587 O 0.49353 0.43421 0.32306 0.0
H588 H 0.50862 0.52048 0.31899 0.0
H589 H 0.53089 0.55546 0.31832 0.0
H590 H 0.54865 0.53667 0.29617 0.0
H591 H 0.52633 0.50241 0.2968 0.0
H592 H 0.48977 0.38648 0.27815 0.0
H593 H 0.48868 0.41866 0.28693 0.0
H594 H 0.4711 0.33924 0.29549 0.0
H595 H 0.47136 0.37142 0.30427 0.0
H596 H 0.45072 0.38797 0.34283 0.0
H597 H 0.46848 0.45748 0.34996 0.0
H598 H 0.47678 0.46707 0.33746 0.0
H599 H 0.45822 0.39893 0.33029 0.0
C600 C 0.25095 0.26369 0.30794 0.0
C601 C 0.24863 0.24947 0.31413 0.0
C602 C 0.2259 0.2228 0.30713 0.0
C603 C 0.23651 0.22915 0.31372 0.0
C604 C 0.22922 0.23718 0.30091 0.0
C605 C 0.24157 0.25709 0.30132 0.0
U606 U 0.27983 0.32508 0.31212 0.0
O607 O 0.29816 0.34157 0.30324 0.0
O608 O 0.2672 0.35581 0.30632 0.0
C609 C 0.28351 0.35704 0.30201 0.0
C610 C 0.26123 0.28657 0.30819 0.0
C611 C 0.28567 0.37521 0.29637 0.0
C612 C 0.27848 0.38925 0.28398 0.0
C613 C 0.27905 0.37108 0.28913 0.0
C614 C 0.29238 0.41548 0.29318 0.0
C615 C 0.28472 0.41192 0.28597 0.0
C616 C 0.2926 0.3974 0.29834 0.0
C617 C 0.29812 0.33827 0.3333 0.0
C618 C 0.31533 0.36305 0.34234 0.0
C619 C 0.29501 0.33005 0.34639 0.0
C620 C 0.29046 0.32451 0.33905 0.0
C621 C 0.30709 0.34971 0.34816 0.0
C622 C 0.31088 0.35734 0.33498 0.0
C623 C 0.29162 0.33366 0.32564 0.0
O624 O 0.25117 0.30465 0.3108 0.0
O625 O 0.28158 0.28857 0.3082 0.0
O626 O 0.30421 0.32438 0.32074 0.0
O627 O 0.27261 0.33781 0.32334 0.0
H628 H 0.25583 0.25426 0.31931 0.0
H629 H 0.23543 0.21893 0.31868 0.0
H630 H 0.2219 0.234 0.29567 0.0
H631 H 0.24314 0.26792 0.29646 0.0
H632 H 0.27226 0.38559 0.27856 0.0
H633 H 0.27353 0.35401 0.28753 0.0
H634 H 0.29802 0.43232 0.29493 0.0
H635 H 0.29781 0.40087 0.30391 0.0
H636 H 0.32455 0.37838 0.34348 0.0
H637 H 0.28877 0.31907 0.3507 0.0
H638 H 0.28066 0.30966 0.33787 0.0
H639 H 0.31686 0.36827 0.33061 0.0
C640 C 0.96251 0.25173 0.55644 0.0
C641 C 0.95769 0.2627 0.56318 0.0
C642 C 0.93752 0.29242 0.55662 0.0
C643 C 0.94541 0.28309 0.56325 0.0
C644 C 0.94304 0.28172 0.54995 0.0
C645 C 0.95544 0.26179 0.54988 0.0
U646 U 0.99269 0.19336 0.56179 0.0
O647 O 0.98565 0.15911 0.55692 0.0
O648 O 0.0163 0.17566 0.55474 0.0
C649 C 0.00433 0.15738 0.55381 0.0
C650 C 0.97325 0.22897 0.55579 0.0
C651 C 0.00707 0.14194 0.54734 0.0
C652 C 1.00015 0.12941 0.53468 0.0
C653 C 0.99849 0.14636 0.5403 0.0
C654 C 0.01906 0.10416 0.54307 0.0
C655 C 0.01014 0.1078 0.5361 0.0
C656 C 0.01752 0.12096 0.54859 0.0
C657 C 0.00692 0.18467 0.58324 0.0
C658 C 0.02189 0.15567 0.59148 0.0
C659 C 0.00836 0.19172 0.59643 0.0
C660 C 0.00317 0.19893 0.58934 0.0
C661 C 0.01787 0.17004 0.59766 0.0
C662 C 0.01636 0.16289 0.58431 0.0
C663 C 0.99954 0.1936 0.57605 0.0
O664 O 0.99355 0.22809 0.55654 0.0
O665 O 0.96367 0.21049 0.55834 0.0
O666 O 0.98259 0.18498 0.57308 0.0
O667 O 0.01352 0.2012 0.57124 0.0
H668 H 0.96292 0.25523 0.56834 0.0
H669 H 0.94134 0.29097 0.56848 0.0
H670 H 0.93738 0.28854 0.54476 0.0
H671 H 0.95896 0.2537 0.54462 0.0
H672 H 0.99309 0.13277 0.52937 0.0
H673 H 0.99035 0.16249 0.53921 0.0
H674 H 0.02697 0.08801 0.54433 0.0
H675 H 0.02409 0.1172 0.55396 0.0
H676 H 0.02938 0.13895 0.59214 0.0
H677 H 0.0043 0.20312 0.60095 0.0
H678 H 0.99543 0.21572 0.58864 0.0
H679 H 0.01938 0.15156 0.57966 0.0
C680 C 0.28034 0.01982 0.55748 0.0
C681 C 0.28478 1.00577 0.56389 0.0
C682 C 0.30439 0.97749 0.55659 0.0
C683 C 0.2966 0.98519 0.56343 0.0
C684 C 0.29928 0.99001 0.55021 0.0
C685 C 0.28725 1.01017 0.55065 0.0
U686 U 0.25239 0.08178 0.56154 0.0
O687 O 0.26485 0.11239 0.55565 0.0
O688 O 0.23363 0.0984 0.55278 0.0
C689 C 0.24814 0.11397 0.55153 0.0
C690 C 0.27044 0.04293 0.5576 0.0
C691 C 0.24596 0.13173 0.54576 0.0
C692 C 0.25325 0.14547 0.53336 0.0
C693 C 0.25313 0.12751 0.53857 0.0
C694 C 0.23856 0.17179 0.54241 0.0
C695 C 0.24631 0.16781 0.53529 0.0
C696 C 0.23833 0.15381 0.5476 0.0
C697 C 0.23434 0.09518 0.58268 0.0
C698 C 0.21821 0.12093 0.59168 0.0
C699 C 0.23556 0.08576 0.59571 0.0
C700 C 0.24033 0.08029 0.5884 0.0
C701 C 0.22474 0.10632 0.59746 0.0
C702 C 0.22304 0.11542 0.58434 0.0
C703 C 0.24095 0.09013 0.57508 0.0
O704 O 0.25012 0.04535 0.55759 0.0
O705 O 0.28075 0.06085 0.56019 0.0
O706 O 0.25984 0.0946 0.57274 0.0
O707 O 0.22826 0.08094 0.57021 0.0
H708 H 0.27972 0.01335 0.56923 0.0
H709 H 0.30047 0.97591 0.56844 0.0
H710 H 0.30501 0.98446 0.54487 0.0
H711 H 0.28407 0.02115 0.54565 0.0
H712 H 0.25949 0.14218 0.52791 0.0
H713 H 0.25923 0.11059 0.53708 0.0
H714 H 0.23331 0.18897 0.54401 0.0
H715 H 0.23285 0.15737 0.55314 0.0
H716 H 0.21001 0.13697 0.59286 0.0
H717 H 0.24056 0.07401 0.60003 0.0
H718 H 0.24903 0.06458 0.58721 0.0
H719 H 0.21839 0.1272 0.57998 0.0
C720 C 0.96264 0.02255 0.71535 0.0
C721 C 0.95755 1.01052 0.70859 0.0
C722 C 0.93742 0.98071 0.71512 0.0
C723 C 0.94517 0.99022 0.70849 0.0
C724 C 0.94326 0.99112 0.7218 0.0
C725 C 0.95576 0.01229 0.72191 0.0
U726 U 0.99267 0.08072 0.70987 0.0
O727 O 0.98579 0.11507 0.71466 0.0
O728 O 0.01656 0.09869 0.71671 0.0
C729 C 0.00457 0.11697 0.71769 0.0
C730 C 0.97338 0.04529 0.71602 0.0
C731 C 0.00701 0.1316 0.72434 0.0
C732 C 0.9959 0.14594 0.73641 0.0
C733 C 0.99464 0.12915 0.73075 0.0
C734 C 0.02217 0.16684 0.72943 0.0
C735 C 0.00944 0.16546 0.73572 0.0
C736 C 0.02085 0.15026 0.72383 0.0
C737 C 0.00659 0.08922 0.68843 0.0
C738 C 0.02342 0.11717 0.68028 0.0
C739 C 0.00661 0.08312 0.67521 0.0
C740 C 1.00099 0.07594 0.68227 0.0
C741 C 0.01794 0.10373 0.67403 0.0
C742 C 0.01769 0.11003 0.68744 0.0
C743 C 0.99927 0.08016 0.69561 0.0
O744 O 0.99367 0.04614 0.71522 0.0
O745 O 0.96376 0.06377 0.71347 0.0
O746 O 0.9823 0.08872 0.69858 0.0
O747 O 0.01334 0.07264 0.70041 0.0
H748 H 0.96267 0.01945 0.70344 0.0
H749 H 0.94093 0.98258 0.70324 0.0
H750 H 0.93782 0.98411 0.727 0.0
H751 H 0.95948 0.02017 0.72717 0.0
H752 H 0.98579 0.14411 0.74114 0.0
H753 H 0.98381 0.11485 0.73127 0.0
H754 H 0.03311 0.18094 0.72873 0.0
H755 H 0.03034 0.15246 0.71895 0.0
H756 H 0.03227 0.13305 0.67969 0.0
H757 H 1.0009 0.07253 0.67067 0.0
H758 H 0.9923 0.05992 0.68291 0.0
H759 H 0.02192 0.1206 0.69215 0.0
C760 C 0.28088 0.25273 0.71405 0.0
C761 C 0.2839 0.26541 0.70755 0.0
C762 C 0.30442 0.29463 0.71432 0.0
C763 C 0.2953 0.2863 0.7077 0.0
C764 C 0.30075 0.28164 0.7208 0.0
C765 C 0.28901 0.26128 0.72065 0.0
U766 U 0.25229 0.19133 0.7102 0.0
O767 O 0.26426 0.16027 0.71599 0.0
O768 O 0.23344 0.17511 0.719 0.0
C769 C 0.2478 0.15932 0.72024 0.0
C770 C 0.27093 0.22969 0.71428 0.0
C771 C 0.24524 0.1412 0.72587 0.0
C772 C 0.25008 0.12785 0.73847 0.0
C773 C 0.2499 0.14588 0.73328 0.0
C774 C 0.2404 0.10048 0.7289 0.0
C775 C 0.24579 0.10491 0.73628 0.0
C776 C 0.24009 0.11852 0.72374 0.0
C777 C 0.23408 0.17864 0.68903 0.0
C778 C 0.21911 0.15232 0.67995 0.0
C779 C 0.23398 0.18898 0.67605 0.0
C780 C 0.23875 0.19436 0.68337 0.0
C781 C 0.22428 0.16786 0.67427 0.0
C782 C 0.22407 0.15764 0.6873 0.0
C783 C 0.24086 0.1838 0.69661 0.0
O784 O 0.25059 0.22766 0.71423 0.0
O785 O 0.28096 0.2116 0.71166 0.0
O786 O 0.25957 0.17856 0.69898 0.0
O787 O 0.22824 0.19302 0.70151 0.0
H788 H 0.27771 0.25906 0.70237 0.0
H789 H 0.29695 0.29565 0.70257 0.0
H790 H 0.30754 0.28635 0.72603 0.0
H791 H 0.28696 0.25163 0.72573 0.0
H792 H 0.2545 0.13161 0.74411 0.0
H793 H 0.25413 0.1633 0.735 0.0
H794 H 0.23698 0.08293 0.7271 0.0
H795 H 0.23652 0.11462 0.71803 0.0
H796 H 0.21184 0.13581 0.67868 0.0
H797 H 0.23817 0.20114 0.67174 0.0
H798 H 0.24653 0.21061 0.68461 0.0
H799 H 0.22051 0.1452 0.6916 0.0
C800 C 0.03624 0.76394 0.46431 0.0
C801 C 0.03798 0.74875 0.45827 0.0
C802 C 0.06281 0.72474 0.46514 0.0
C803 C 0.05109 0.72914 0.45871 0.0
C804 C 0.06019 0.73957 0.47122 0.0
C805 C 0.04706 0.75886 0.47081 0.0
U806 U 0.00469 0.82404 0.46037 0.0
O807 O 0.98412 0.83836 0.4692 0.0
O808 O 0.01487 0.85469 0.46669 0.0
C809 C 0.99799 0.85425 0.4709 0.0
C810 C 0.02488 0.78622 0.464 0.0
C811 C 0.99361 0.87352 0.47603 0.0
C812 C 0.9955 0.88883 0.48852 0.0
C813 C 0.99689 0.87015 0.48359 0.0
C814 C 0.98635 0.9143 0.47841 0.0
C815 C 0.99057 0.91135 0.48599 0.0
C816 C 0.98807 0.89563 0.47347 0.0
C817 C 0.98784 0.83819 0.43915 0.0
C818 C 0.97346 0.86506 0.43015 0.0
C819 C 0.98991 0.82937 0.4261 0.0
C820 C 0.99388 0.82337 0.43343 0.0
C821 C 0.98012 0.85059 0.42433 0.0
C822 C 0.97727 0.85887 0.4375 0.0
C823 C 0.99394 0.83275 0.44676 0.0
O824 O 0.03429 0.80526 0.46183 0.0
O825 O 0.00447 0.78704 0.46378 0.0
O826 O 0.98126 0.82228 0.45137 0.0
O827 O 0.01249 0.8386 0.44943 0.0
H828 H 0.02977 0.75241 0.45319 0.0
H829 H 0.05278 0.71804 0.45392 0.0
H830 H 0.0687 0.73653 0.47629 0.0
H831 H 0.04587 0.77032 0.47555 0.0
H832 H 0.99914 0.88571 0.49426 0.0
H833 H 1.00136 0.85319 0.48566 0.0
H834 H 0.98198 0.93114 0.47624 0.0
H835 H 0.98547 0.89856 0.46764 0.0
H836 H 0.96603 0.88159 0.42904 0.0
H837 H 0.99475 0.81739 0.42182 0.0
H838 H 0.00231 0.80728 0.43461 0.0
H839 H 0.97256 0.87056 0.44188 0.0
C840 C 0.72865 1.00643 0.4646 0.0
C841 C 0.7247 0.01976 0.45803 0.0
C842 C 0.70373 0.04849 0.46477 0.0
C843 C 0.71248 0.04007 0.45812 0.0
C844 C 0.70858 0.03665 0.47134 0.0
C845 C 0.72094 0.01667 0.47124 0.0
U846 U 0.7577 0.94532 0.46057 0.0
O847 O 0.77619 0.92866 0.46942 0.0
O848 O 0.74558 0.91399 0.46609 0.0
C849 C 0.7617 0.91293 0.47051 0.0
C850 C 0.73877 0.98342 0.46484 0.0
C851 C 0.764 0.89418 0.47594 0.0
C852 C 0.7607 0.88049 0.48857 0.0
C853 C 0.76178 0.89882 0.4835 0.0
C854 C 0.76522 0.8529 0.4786 0.0
C855 C 0.76189 0.85725 0.48614 0.0
C856 C 0.76606 0.87118 0.47354 0.0
C857 C 0.77621 0.93239 0.43945 0.0
C858 C 0.78723 0.90372 0.43036 0.0
C859 C 0.77966 0.94314 0.42657 0.0
C860 C 0.77497 0.94901 0.43385 0.0
C861 C 0.78534 0.92022 0.42462 0.0
C862 C 0.78275 0.90977 0.43771 0.0
C863 C 0.76919 0.93892 0.44691 0.0
O864 O 0.72894 0.96542 0.46208 0.0
O865 O 0.75912 0.98149 0.46481 0.0
O866 O 0.78185 0.94766 0.45188 0.0
O867 O 0.75068 0.93307 0.44931 0.0
H868 H 0.73055 0.01316 0.45283 0.0
H869 H 0.70959 0.04889 0.45295 0.0
H870 H 0.70206 0.04209 0.47656 0.0
H871 H 0.7237 1.00622 0.47637 0.0
H872 H 0.75797 0.88449 0.49432 0.0
H873 H 0.75992 0.91654 0.48543 0.0
H874 H 0.76668 0.83527 0.47655 0.0
H875 H 0.76777 0.86731 0.46773 0.0
H876 H 0.79137 0.88585 0.42921 0.0
H877 H 0.77872 0.9568 0.42249 0.0
H878 H 0.77003 0.9666 0.4351 0.0
H879 H 0.7838 0.89665 0.44197 0.0
C880 C 0.03586 1.00637 0.30784 0.0
C881 C 0.03901 0.02073 0.31429 0.0
C882 C 0.06208 0.04751 0.30759 0.0
C883 C 0.05184 0.0406 0.31415 0.0
C884 C 0.05821 0.03447 0.30115 0.0
C885 C 0.04523 0.01505 0.30129 0.0
U886 U 0.00435 0.9471 0.3121 0.0
O887 O 0.98341 0.93171 0.30363 0.0
O888 O 0.01398 0.91498 0.30634 0.0
C889 C 0.99683 0.91499 0.30225 0.0
C890 C 0.0246 0.98403 0.30761 0.0
C891 C 0.9927 0.89665 0.29679 0.0
C892 C 0.99448 0.88247 0.28415 0.0
C893 C 0.9957 0.90081 0.28924 0.0
C894 C 0.98616 0.85598 0.29409 0.0
C895 C 0.99012 0.85966 0.28653 0.0
C896 C 0.98766 0.87423 0.29916 0.0
C897 C 0.98766 0.93453 0.33338 0.0
C898 C 0.97537 0.90526 0.34202 0.0
C899 C 0.98661 0.9429 0.34652 0.0
C900 C 0.99088 0.9498 0.3393 0.0
C901 C 0.97909 0.92051 0.34795 0.0
C902 C 0.97959 0.91226 0.33475 0.0
C903 C 0.99445 0.94216 0.32602 0.0
O904 O 0.03387 0.96524 0.31008 0.0
O905 O 0.00422 0.98339 0.308 0.0
O906 O 0.98136 0.95109 0.32122 0.0
O907 O 0.01242 0.93475 0.32325 0.0
H908 H 0.0319 0.01537 0.31943 0.0
H909 H 0.05386 0.0503 0.31921 0.0
H910 H 0.06587 0.03848 0.29601 0.0
H911 H 0.04308 1.00383 0.29625 0.0
H912 H 0.99784 0.88605 0.27842 0.0
H913 H 0.99981 0.91804 0.28732 0.0
H914 H 0.98221 0.83887 0.29613 0.0
H915 H 0.98529 0.87071 0.30496 0.0
H916 H 0.96964 0.88785 0.34304 0.0
H917 H 0.98979 0.9548 0.35101 0.0
H918 H 0.99727 0.96697 0.33835 0.0
H919 H 0.97708 0.90019 0.33025 0.0
C920 C 0.72827 0.76471 0.3079 0.0
C921 C 0.72702 0.74949 0.31394 0.0
C922 C 0.70286 0.72472 0.3071 0.0
C923 C 0.71448 0.72945 0.31352 0.0
C924 C 0.70489 0.73957 0.30102 0.0
C925 C 0.71756 0.75923 0.3014 0.0
U926 U 0.75769 0.82593 0.31204 0.0
O927 O 0.77595 0.8427 0.30317 0.0
O928 O 0.74506 0.85688 0.30638 0.0
C929 C 0.76158 0.85866 0.30218 0.0
C930 C 0.73866 0.78754 0.30824 0.0
C931 C 0.76289 0.876 0.29624 0.0
C932 C 0.75324 0.88971 0.28405 0.0
C933 C 0.75419 0.87182 0.28928 0.0
C934 C 0.77037 0.91579 0.2926 0.0
C935 C 0.76086 0.91207 0.28572 0.0
C936 C 0.77132 0.8979 0.29781 0.0
C937 C 0.77707 0.83974 0.33301 0.0
C938 C 0.78747 0.86916 0.34192 0.0
C939 C 0.78171 0.82955 0.34593 0.0
C940 C 0.77701 0.82317 0.33867 0.0
C941 C 0.78669 0.85273 0.34769 0.0
C942 C 0.7826 0.86275 0.33465 0.0
C943 C 0.76977 0.83278 0.32563 0.0
O944 O 0.72882 0.80569 0.31091 0.0
O945 O 0.75901 0.78952 0.30803 0.0
O946 O 0.78222 0.82385 0.32062 0.0
O947 O 0.75123 0.83877 0.32326 0.0
H948 H 0.7351 0.75348 0.31903 0.0
H949 H 0.71306 0.71829 0.3183 0.0
H950 H 0.69615 0.73632 0.29602 0.0
H951 H 0.71831 0.77076 0.29669 0.0
H952 H 0.74614 0.88617 0.27876 0.0
H953 H 0.7476 0.85499 0.28797 0.0
H954 H 0.77625 0.93279 0.2941 0.0
H955 H 0.77798 0.90143 0.30319 0.0
H956 H 0.79159 0.88708 0.34303 0.0
H957 H 0.78066 0.81645 0.3502 0.0
H958 H 0.77264 0.80534 0.33752 0.0
H959 H 0.78277 0.87581 0.33035 0.0
C960 C 0.96321 0.75282 0.05854 0.0
C961 C 0.95445 0.76064 0.06519 0.0
C962 C 0.93765 0.79294 0.05868 0.0
C963 C 0.94183 0.78062 0.06525 0.0
C964 C 0.94713 0.78533 0.05213 0.0
C965 C 0.95976 0.76557 0.05208 0.0
U966 U 0.99309 0.6925 0.06219 0.0
O967 O 0.98368 0.66091 0.05611 0.0
O968 O 0.01477 0.67715 0.05396 0.0
C969 C 1.00133 0.66027 0.05249 0.0
C970 C 0.97371 0.73015 0.05776 0.0
C971 C 0.00538 0.64339 0.04655 0.0
C972 C 1.0008 0.63037 0.03391 0.0
C973 C 0.99866 0.64768 0.0393 0.0
C974 C 0.01636 0.60457 0.04296 0.0
C975 C 0.00941 0.60834 0.0357 0.0
C976 C 0.0144 0.62195 0.04831 0.0
C977 C 0.00915 0.67997 0.08356 0.0
C978 C 0.02449 0.65345 0.09249 0.0
C979 C 0.00792 0.68899 0.09663 0.0
C980 C 0.00348 0.69487 0.08933 0.0
C981 C 0.01831 0.6682 0.09827 0.0
C982 C 0.01983 0.65925 0.08515 0.0
C983 C 0.00282 0.68623 0.07603 0.0
O984 O 0.99408 0.72884 0.05815 0.0
O985 O 0.96405 0.71147 0.06011 0.0
O986 O 0.98464 0.67953 0.07325 0.0
O987 O 0.01589 0.6957 0.07135 0.0
H988 H 0.95683 0.75097 0.07024 0.0
H989 H 0.93502 0.78618 0.07042 0.0
H990 H 0.9441 0.79404 0.04695 0.0
H991 H 0.96617 0.75965 0.04688 0.0
H992 H 0.99572 0.63422 0.02835 0.0
H993 H 0.99169 0.6642 0.03784 0.0
H994 H 0.02258 0.58788 0.04463 0.0
H995 H 0.01936 0.61837 0.05391 0.0
H996 H 0.03235 0.6372 0.09366 0.0
H997 H 0.00298 0.70055 0.10101 0.0
H998 H 0.99491 0.7109 0.0882 0.0
H999 H 0.02422 0.64747 0.08075 0.0
C1000 C 0.28008 0.51947 0.05803 0.0
C1001 C 0.28858 0.51034 0.06452 0.0
C1002 C 0.30367 0.47767 0.05757 0.0
C1003 C 0.30029 0.4897 0.06429 0.0
C1004 C 0.29411 0.48665 0.05118 0.0
C1005 C 0.28269 0.5073 0.05141 0.0
U1006 U 0.25245 0.58104 0.06208 0.0
O1007 O 0.26441 0.61243 0.05651 0.0
O1008 O 0.23328 0.5983 0.05357 0.0
C1009 C 0.24755 0.61427 0.05248 0.0
C1010 C 0.2707 0.54281 0.05758 0.0
C1011 C 0.24559 0.63188 0.04667 0.0
C1012 C 0.25317 0.64616 0.03437 0.0
C1013 C 0.25322 0.62805 0.03954 0.0
C1014 C 0.237 0.67157 0.04335 0.0
C1015 C 0.24545 0.66837 0.03626 0.0
C1016 C 0.23721 0.65355 0.0485 0.0
C1017 C 0.23364 0.59349 0.08315 0.0
C1018 C 0.22304 0.62296 0.09202 0.0
C1019 C 0.22753 0.58306 0.09596 0.0
C1020 C 0.23283 0.5768 0.08876 0.0
C1021 C 0.22272 0.60627 0.09773 0.0
C1022 C 0.22855 0.61665 0.08479 0.0
C1023 C 0.24104 0.58606 0.07582 0.0
O1024 O 0.2504 0.5453 0.05755 0.0
O1025 O 0.28084 0.56049 0.06043 0.0
O1026 O 0.25939 0.59252 0.07341 0.0
O1027 O 0.22835 0.5779 0.07076 0.0
H1028 H 0.28688 0.51959 0.06969 0.0
H1029 H 0.3074 0.48398 0.06937 0.0
H1030 H 0.2954 0.47798 0.04591 0.0
H1031 H 0.27632 0.51414 0.04632 0.0
H1032 H 0.26002 0.64296 0.02901 0.0
H1033 H 0.25982 0.61136 0.03804 0.0
H1034 H 0.23041 0.68811 0.04498 0.0
H1035 H 0.2312 0.65673 0.05399 0.0
H1036 H 0.21914 0.64095 0.09313 0.0
H1037 H 0.22786 0.56976 0.10018 0.0
H1038 H 0.23687 0.55885 0.0876 0.0
H1039 H 0.22907 0.62983 0.08053 0.0
C1040 C 0.96314 0.51911 0.21447 0.0
C1041 C 0.95357 0.512 0.20788 0.0
C1042 C 0.9373 0.47934 0.21431 0.0
C1043 C 0.9407 0.49224 0.20781 0.0
C1044 C 0.94762 0.48605 0.22078 0.0
C1045 C 0.96033 0.50574 0.22086 0.0
U1046 U 0.99306 0.57929 0.21079 0.0
O1047 O 0.98364 0.61094 0.21686 0.0
O1048 O 0.01476 0.5946 0.21901 0.0
C1049 C 1.00104 0.61107 0.22065 0.0
C1050 C 0.97371 0.54173 0.21531 0.0
C1051 C 0.00589 0.62905 0.22617 0.0
C1052 C 0.00298 0.64368 0.2387 0.0
C1053 C 1.00033 0.6256 0.23359 0.0
C1054 C 0.01653 0.66846 0.22905 0.0
C1055 C 0.01056 0.66552 0.23646 0.0
C1056 C 0.01413 0.65042 0.22395 0.0
C1057 C 0.00867 0.59192 0.18941 0.0
C1058 C 0.02458 0.61833 0.18059 0.0
C1059 C 0.00678 0.58373 0.17632 0.0
C1060 C 0.00233 0.57768 0.18358 0.0
C1061 C 0.01766 0.60429 0.17471 0.0
C1062 C 0.02003 0.61222 0.18792 0.0
C1063 C 0.00238 0.5853 0.19691 0.0
O1064 O 0.99406 0.54297 0.21486 0.0
O1065 O 0.96406 0.56047 0.21298 0.0
O1066 O 0.98426 0.59206 0.19973 0.0
O1067 O 0.01563 0.57604 0.20158 0.0
H1068 H 0.95542 0.52214 0.2029 0.0
H1069 H 0.93301 0.48734 0.20274 0.0
H1070 H 0.94514 0.47663 0.22588 0.0
H1071 H 0.96733 0.51111 0.22602 0.0
H1072 H 0.99772 0.64083 0.24434 0.0
H1073 H 0.99383 0.60917 0.23537 0.0
H1074 H 0.02276 0.68488 0.22715 0.0
H1075 H 0.01827 0.65334 0.21823 0.0
H1076 H 0.03289 0.63434 0.17952 0.0
H1077 H 1.00123 0.57235 0.17194 0.0
H1078 H 0.99331 0.56191 0.18465 0.0
H1079 H 0.02502 0.62346 0.19237 0.0
C1080 C 0.28107 0.75078 0.21549 0.0
C1081 C 0.28802 0.76057 0.20883 0.0
C1082 C 0.30454 0.79271 0.21559 0.0
C1083 C 0.29956 0.78146 0.20888 0.0
C1084 C 0.29655 0.78324 0.22215 0.0
C1085 C 0.28505 0.76264 0.22209 0.0
U1086 U 0.25295 0.69046 0.2106 0.0
O1087 O 0.26262 0.65695 0.21539 0.0
O1088 O 0.23192 0.6717 0.21822 0.0
C1089 C 0.24497 0.65424 0.21892 0.0
C1090 C 0.27167 0.72729 0.21612 0.0
C1091 C 0.24423 0.63898 0.22547 0.0
C1092 C 0.25526 0.62642 0.23771 0.0
C1093 C 0.25486 0.6434 0.2321 0.0
C1094 C 0.23381 0.60126 0.2302 0.0
C1095 C 0.24521 0.60479 0.23672 0.0
C1096 C 0.23342 0.61804 0.22467 0.0
C1097 C 0.2352 0.68129 0.18938 0.0
C1098 C 0.22527 0.65143 0.18047 0.0
C1099 C 0.22804 0.69158 0.17665 0.0
C1100 C 0.23355 0.69791 0.1838 0.0
C1101 C 0.22433 0.66818 0.17477 0.0
C1102 C 0.23069 0.65793 0.18773 0.0
C1103 C 0.24304 0.68958 0.19658 0.0
O1104 O 0.25135 0.72511 0.21593 0.0
O1105 O 0.28165 0.70957 0.21321 0.0
O1106 O 0.26089 0.68184 0.1991 0.0
O1107 O 0.23013 0.69692 0.20169 0.0
H1108 H 0.28518 0.75173 0.20365 0.0
H1109 H 0.3054 0.78815 0.2037 0.0
H1110 H 0.29946 0.79153 0.22741 0.0
H1111 H 0.27983 0.75549 0.22729 0.0
H1112 H 0.26419 0.62982 0.24265 0.0
H1113 H 0.26331 0.65952 0.23283 0.0
H1114 H 0.22536 0.58524 0.22929 0.0
H1115 H 0.22504 0.61431 0.21963 0.0
H1116 H 0.22261 0.63321 0.17931 0.0
H1117 H 0.22676 0.70531 0.1726 0.0
H1118 H 0.23688 0.71604 0.18494 0.0
H1119 H 0.23186 0.64475 0.19197 0.0
C1120 C 0.03532 0.26471 0.96395 0.0
C1121 C 0.03974 0.25313 0.95732 0.0
C1122 C 0.06109 0.22457 0.96399 0.0
C1123 C 0.05239 0.23311 0.95735 0.0
C1124 C 0.05589 0.23605 0.97059 0.0
C1125 C 0.04314 0.2557 0.97056 0.0
U1126 U 0.00471 0.32462 0.95985 0.0
O1127 O 0.98369 0.34054 0.96818 0.0
O1128 O 0.01461 0.35662 0.96564 0.0
C1129 C 0.99698 0.35742 0.96946 0.0
C1130 C 0.02446 0.28731 0.96437 0.0
C1131 C 0.99357 0.37473 0.97532 0.0
C1132 C 0.99777 0.38802 0.98796 0.0
C1133 C 0.99911 0.37029 0.98266 0.0
C1134 C 0.98483 0.41451 0.97866 0.0
C1135 C 0.99104 0.41055 0.986 0.0
C1136 C 0.98612 0.39678 0.97339 0.0
C1137 C 0.98803 0.33737 0.93856 0.0
C1138 C 0.9753 0.36652 0.92994 0.0
C1139 C 0.98714 0.32914 0.92541 0.0
C1140 C 0.99149 0.32222 0.93263 0.0
C1141 C 0.97927 0.3514 0.924 0.0
C1142 C 0.97962 0.35952 0.93721 0.0
C1143 C 0.99481 0.32968 0.94593 0.0
O1144 O 0.03396 0.30592 0.96189 0.0
O1145 O 0.00408 0.28839 0.964 0.0
O1146 O 0.98169 0.32091 0.95073 0.0
O1147 O 0.01287 0.33683 0.94869 0.0
H1148 H 0.03385 0.2598 0.95214 0.0
H1149 H 0.05559 0.22459 0.95215 0.0
H1150 H 0.06239 0.23057 0.97581 0.0
H1151 H 0.04003 0.26449 0.97573 0.0
H1152 H 0.0026 0.38413 0.99358 0.0
H1153 H 0.00522 0.35334 0.98426 0.0
H1154 H 0.97979 0.43158 0.97689 0.0
H1155 H 0.98188 0.40052 0.96774 0.0
H1156 H 0.96932 0.38384 0.92893 0.0
H1157 H 0.99052 0.31734 0.92091 0.0
H1158 H 0.99811 0.30513 0.93356 0.0
H1159 H 0.97689 0.37149 0.94172 0.0
C1160 C 0.72908 0.5067 0.96412 0.0
C1161 C 0.72335 0.5172 0.95744 0.0
C1162 C 0.70361 0.54691 0.96417 0.0
C1163 C 0.71079 0.53724 0.95747 0.0
C1164 C 0.71031 0.53681 0.97081 0.0
C1165 C 0.72289 0.517 0.97077 0.0
U1166 U 0.75796 0.44567 0.96012 0.0
O1167 O 0.77629 0.42848 0.96886 0.0
O1168 O 0.7457 0.41392 0.96547 0.0
C1169 C 0.76197 0.41247 0.96982 0.0
C1170 C 0.73902 0.48362 0.96455 0.0
C1171 C 0.76396 0.39446 0.97553 0.0
C1172 C 0.75942 0.38154 0.98821 0.0
C1173 C 0.76041 0.39956 0.98301 0.0
C1174 C 0.76607 0.35338 0.97855 0.0
C1175 C 0.76186 0.3583 0.98598 0.0
C1176 C 0.76715 0.37134 0.97338 0.0
C1177 C 0.77682 0.433 0.93904 0.0
C1178 C 0.78637 0.40293 0.93019 0.0
C1179 C 0.78229 0.44273 0.92611 0.0
C1180 C 0.77755 0.44942 0.93334 0.0
C1181 C 0.78645 0.41932 0.9244 0.0
C1182 C 0.78153 0.40968 0.93745 0.0
C1183 C 0.76943 0.44076 0.94635 0.0
O1184 O 0.72924 0.46571 0.9617 0.0
O1185 O 0.75937 0.48159 0.96457 0.0
O1186 O 0.78215 0.44873 0.95144 0.0
O1187 O 0.75108 0.43432 0.94877 0.0
H1188 H 0.72793 0.5095 0.95224 0.0
H1189 H 0.70622 0.54479 0.95225 0.0
H1190 H 0.70499 0.54348 0.97607 0.0
H1191 H 0.727 0.50902 0.97598 0.0
H1192 H 0.75591 0.38563 0.99391 0.0
H1193 H 0.75761 0.41731 0.98476 0.0
H1194 H 0.7679 0.33555 0.97672 0.0
H1195 H 0.76975 0.36709 0.96763 0.0
H1196 H 0.78978 0.3848 0.9291 0.0
H1197 H 0.78191 0.4558 0.92182 0.0
H1198 H 0.77379 0.46748 0.93443 0.0
H1199 H 0.78106 0.39669 0.94177 0.0
C1200 C 0.0358 0.50791 0.80758 0.0
C1201 C 0.03758 0.52277 0.8137 0.0
C1202 C 0.06248 0.547 0.80697 0.0
C1203 C 0.05073 0.54236 0.81337 0.0
C1204 C 0.05982 0.53252 0.8008 0.0
C1205 C 0.04663 0.51331 0.80111 0.0
U1206 U 0.00452 0.448 0.81169 0.0
O1207 O 0.98392 0.43266 0.80313 0.0
O1208 O 0.01501 0.41678 0.80561 0.0
C1209 C 0.99765 0.41637 0.80164 0.0
C1210 C 0.0245 0.4856 0.80771 0.0
C1211 C 0.9938 0.39832 0.79607 0.0
C1212 C 1.00005 0.38281 0.78381 0.0
C1213 C 1.00126 0.40111 0.78889 0.0
C1214 C 0.98263 0.35922 0.79294 0.0
C1215 C 0.99102 0.36123 0.78576 0.0
C1216 C 0.9843 0.3774 0.79805 0.0
C1217 C 0.98783 0.43443 0.83293 0.0
C1218 C 0.97319 0.40753 0.84186 0.0
C1219 C 0.98999 0.44288 0.846 0.0
C1220 C 0.99399 0.44901 0.8387 0.0
C1221 C 0.98002 0.42177 0.84771 0.0
C1222 C 0.97706 0.41385 0.83451 0.0
C1223 C 0.99412 0.44033 0.82538 0.0
O1224 O 0.03396 0.46671 0.81001 0.0
O1225 O 0.0041 0.48476 0.808 0.0
O1226 O 0.98123 0.45022 0.82071 0.0
O1227 O 0.01262 0.43431 0.82271 0.0
H1228 H 0.02937 0.51889 0.81876 0.0
H1229 H 0.05245 0.55322 0.81821 0.0
H1230 H 0.06835 0.53576 0.79576 0.0
H1231 H 0.04543 0.50211 0.79632 0.0
H1232 H 0.00741 0.38561 0.77849 0.0
H1233 H 0.00908 0.41719 0.78728 0.0
H1234 H 0.97479 0.34364 0.79474 0.0
H1235 H 0.97842 0.37497 0.80359 0.0
H1236 H 0.96559 0.3911 0.84293 0.0
H1237 H 0.99495 0.45468 0.8503 0.0
H1238 H 0.00257 0.46502 0.83756 0.0
H1239 H 0.97224 0.40235 0.8301 0.0
C1240 C 0.72825 0.26516 0.80743 0.0
C1241 C 0.72719 0.2497 0.81341 0.0
C1242 C 0.70281 0.22517 0.80657 0.0
C1243 C 0.71465 0.22966 0.81295 0.0
C1244 C 0.7047 0.24025 0.80053 0.0
C1245 C 0.71737 0.25991 0.80094 0.0
U1246 U 0.75756 0.32648 0.81161 0.0
O1247 O 0.77574 0.3431 0.80271 0.0
O1248 O 0.74477 0.35724 0.80587 0.0
C1249 C 0.76108 0.35862 0.80155 0.0
C1250 C 0.73865 0.28799 0.80784 0.0
C1251 C 0.76312 0.37681 0.79592 0.0
C1252 C 0.75454 0.39146 0.78374 0.0
C1253 C 0.75528 0.37317 0.78882 0.0
C1254 C 0.77074 0.41686 0.7927 0.0
C1255 C 0.76191 0.41383 0.78563 0.0
C1256 C 0.77106 0.39864 0.79781 0.0
C1257 C 0.77641 0.34018 0.83265 0.0
C1258 C 0.7881 0.36833 0.84178 0.0
C1259 C 0.77908 0.32927 0.84554 0.0
C1260 C 0.77444 0.32358 0.83823 0.0
C1261 C 0.78547 0.35193 0.8475 0.0
C1262 C 0.78364 0.36248 0.83443 0.0
C1263 C 0.76943 0.33435 0.82514 0.0
O1264 O 0.72872 0.30616 0.81045 0.0
O1265 O 0.759 0.28997 0.80769 0.0
O1266 O 0.78191 0.325 0.82022 0.0
O1267 O 0.75072 0.33967 0.82279 0.0
H1268 H 0.73542 0.2535 0.81848 0.0
H1269 H 0.71339 0.21834 0.8177 0.0
H1270 H 0.69586 0.23717 0.79554 0.0
H1271 H 0.71798 0.27161 0.79627 0.0
H1272 H 0.74729 0.38808 0.77848 0.0
H1273 H 0.74894 0.35639 0.7873 0.0
H1274 H 0.77732 0.43332 0.79438 0.0
H1275 H 0.77718 0.40175 0.80329 0.0
H1276 H 0.79279 0.386 0.84297 0.0
H1277 H 0.77748 0.31575 0.84965 0.0
H1278 H 0.76894 0.30623 0.83696 0.0
H1279 H 0.78523 0.37557 0.83018 0.0
H1280 H 0.5727 0.17823 0.10716 0.0
H1281 H 0.57694 0.16774 0.12024 0.0
H1282 H 0.51936 0.12945 0.11938 0.0
H1283 H 0.51528 0.13977 0.10637 0.0
H1284 H 0.52013 0.15798 0.13078 0.0
H1285 H 0.56785 0.10398 0.11973 0.0
H1286 H 0.59855 0.09142 0.11268 0.0
H1287 H 0.63845 0.12691 0.12796 0.0
H1288 H 0.60791 0.14047 0.13495 0.0
H1289 H 0.51435 0.0939 0.16282 0.0
H1290 H 0.51938 0.10413 0.14996 0.0
H1291 H 0.57614 0.13986 0.15549 0.0
H1292 H 0.57173 0.12868 0.16846 0.0
H1293 H 0.57953 0.11631 0.14217 0.0
H1294 H 0.53422 0.17104 0.15294 0.0
H1295 H 0.50472 0.18466 0.16044 0.0
H1296 H 0.4622 0.1498 0.14591 0.0
H1297 H 0.49154 0.13554 0.13841 0.0
C1298 C 0.56113 0.16738 0.10979 0.0
C1299 C 0.54378 0.15955 0.10579 0.0
C1300 C 0.56359 0.16131 0.11723 0.0
C1301 C 0.54857 0.1476 0.12078 0.0
C1302 C 0.53122 0.13991 0.11675 0.0
C1303 C 0.52892 0.14571 0.10933 0.0
C1304 C 0.54995 0.14228 0.1288 0.0
C1305 C 0.53307 0.14862 0.13322 0.0
C1306 C 0.56725 0.1311 0.13211 0.0
C1307 C 0.58555 0.1236 0.12778 0.0
C1308 C 0.58313 0.10951 0.12151 0.0
C1309 C 0.60051 0.10218 0.11753 0.0
C1310 C 0.62043 0.10852 0.11984 0.0
C1311 C 0.62301 0.12221 0.12614 0.0
C1312 C 0.60566 0.12978 0.1301 0.0
C1313 C 0.52819 0.10349 0.16133 0.0
C1314 C 0.54266 0.11036 0.16673 0.0
C1315 C 0.53095 0.10951 0.15395 0.0
C1316 C 0.54804 0.12294 0.15176 0.0
C1317 C 0.56283 0.12947 0.15706 0.0
C1318 C 0.56013 0.12331 0.16449 0.0
C1319 C 0.54937 0.13132 0.14401 0.0
C1320 C 0.56673 0.12577 0.13969 0.0
C1321 C 0.5327 0.14357 0.14075 0.0
C1322 C 0.51502 0.15209 0.14517 0.0
C1323 C 0.51858 0.16613 0.15139 0.0
C1324 C 0.50191 0.17396 0.15563 0.0
C1325 C 0.48161 0.16805 0.15366 0.0
C1326 C 0.47794 0.15432 0.14743 0.0
C1327 C 0.49458 0.14635 0.14318 0.0
H1328 H 0.46869 0.17417 0.15695 0.0
H1329 H 0.63387 0.10272 0.11676 0.0
H1330 H 0.67429 0.13887 0.16882 0.0
H1331 H 0.66951 0.12818 0.15589 0.0
H1332 H 0.71961 0.17396 0.14974 0.0
H1333 H 0.72458 0.18461 0.16257 0.0
H1334 H 0.68935 0.17808 0.14025 0.0
H1335 H 0.72372 0.11146 0.15168 0.0
H1336 H 0.72499 0.07976 0.16082 0.0
H1337 H 0.66762 0.05232 0.15239 0.0
H1338 H 0.66582 0.08418 0.14332 0.0
H1339 H 0.72091 0.14134 0.10541 0.0
H1340 H 0.71703 0.15138 0.11833 0.0
H1341 H 0.67345 0.09505 0.12114 0.0
H1342 H 0.67823 0.08414 0.1082 0.0
H1343 H 0.69452 0.09559 0.13243 0.0
H1344 H 0.65878 0.15719 0.121 0.0
H1345 H 0.65281 0.18868 0.11205 0.0
H1346 H 0.70605 0.22529 0.12039 0.0
H1347 H 0.71242 0.19385 0.12934 0.0
C1348 C 0.68443 0.14656 0.16473 0.0
C1349 C 0.69988 0.16263 0.16681 0.0
C1350 C 0.68164 0.14043 0.15732 0.0
C1351 C 0.69441 0.14995 0.15181 0.0
C1352 C 0.70951 0.16634 0.15385 0.0
C1353 C 0.71226 0.17252 0.16124 0.0
C1354 C 0.69257 0.14278 0.14393 0.0
C1355 C 0.69069 0.16004 0.13855 0.0
C1356 C 0.69318 0.11928 0.14162 0.0
C1357 C 0.69457 0.10013 0.14692 0.0
C1358 C 0.71136 0.09868 0.15182 0.0
C1359 C 0.71215 0.08076 0.15699 0.0
C1360 C 0.69637 0.06408 0.15719 0.0
C1361 C 0.67979 0.06528 0.15223 0.0
C1362 C 0.67887 0.08325 0.14709 0.0
C1363 C 0.71029 0.13123 0.10874 0.0
C1364 C 0.69973 0.11208 0.10573 0.0
C1365 C 0.70794 0.13711 0.11616 0.0
C1366 C 0.69443 0.12449 0.12075 0.0
C1367 C 0.6839 0.10522 0.11776 0.0
C1368 C 0.68662 0.099 0.11035 0.0
C1369 C 0.69202 0.131 0.1287 0.0
C1370 C 0.69301 0.11365 0.13409 0.0
C1371 C 0.68995 0.15439 0.13104 0.0
C1372 C 0.68609 0.17327 0.12578 0.0
C1373 C 0.66921 0.17195 0.1209 0.0
C1374 C 0.66577 0.18975 0.11583 0.0
C1375 C 0.67906 0.20895 0.11565 0.0
C1376 C 0.69578 0.21041 0.12054 0.0
C1377 C 0.69929 0.19265 0.12562 0.0
H1378 H 0.67639 0.22274 0.1117 0.0
H1379 H 0.69702 0.05017 0.1612 0.0
H1380 H 0.44665 0.89134 0.91827 0.0
H1381 H 0.44592 0.90331 0.90566 0.0
H1382 H 0.46759 0.83603 0.89873 0.0
H1383 H 0.47058 0.82396 0.91129 0.0
H1384 H 0.48789 0.8731 0.89193 0.0
H1385 H 0.41187 0.84629 0.89092 0.0
H1386 H 0.38123 0.84116 0.89895 0.0
H1387 H 0.38659 0.91194 0.90629 0.0
H1388 H 0.41711 0.91744 0.89824 0.0
H1389 H 0.47051 0.87762 0.85389 0.0
H1390 H 0.46773 0.86579 0.86672 0.0
H1391 H 0.44011 0.93188 0.87223 0.0
H1392 H 0.44192 0.94358 0.85927 0.0
H1393 H 0.42157 0.89584 0.87993 0.0
H1394 H 0.49143 0.92261 0.87542 0.0
H1395 H 0.52528 0.92392 0.86908 0.0
H1396 H 0.53473 0.85135 0.87359 0.0
H1397 H 0.50078 0.84956 0.87987 0.0
C1398 C 0.45147 0.87864 0.91426 0.0
C1399 C 0.45876 0.85626 0.91624 0.0
C1400 C 0.45054 0.88564 0.9069 0.0
C1401 C 0.45597 0.87033 0.90122 0.0
C1402 C 0.46304 0.84809 0.90303 0.0
C1403 C 0.46453 0.84118 0.91039 0.0
C1404 C 0.45506 0.87778 0.8934 0.0
C1405 C 0.47339 0.87798 0.88929 0.0
C1406 C 0.43627 0.88439 0.88998 0.0
C1407 C 0.41654 0.88228 0.894 0.0
C1408 C 0.40622 0.86083 0.89416 0.0
C1409 C 0.38898 0.85783 0.89873 0.0
C1410 C 0.38212 0.87615 0.90317 0.0
C1411 C 0.39205 0.89772 0.90289 0.0
C1412 C 0.40925 0.9008 0.89831 0.0
C1413 C 0.46339 0.88954 0.85776 0.0
C1414 C 0.45647 0.91162 0.85547 0.0
C1415 C 0.46201 0.8828 0.86514 0.0
C1416 C 0.45397 0.89804 0.87048 0.0
C1417 C 0.44644 0.91983 0.86822 0.0
C1418 C 0.44772 0.92658 0.86081 0.0
C1419 C 0.45461 0.89165 0.87843 0.0
C1420 C 0.43615 0.89135 0.88256 0.0
C1421 C 0.47343 0.88499 0.8819 0.0
C1422 C 0.49357 0.88592 0.87803 0.0
C1423 C 0.50066 0.9069 0.87499 0.0
C1424 C 0.51986 0.90773 0.87143 0.0
C1425 C 0.53212 0.88772 0.87092 0.0
C1426 C 0.5252 0.86683 0.87398 0.0
C1427 C 0.506 0.86589 0.87754 0.0
H1428 H 0.54701 0.88842 0.86816 0.0
H1429 H 0.36937 0.8735 0.90694 0.0
H1430 H 0.33392 0.89217 0.91706 0.0
H1431 H 0.33605 0.88044 0.90405 0.0
H1432 H 0.28539 0.92604 0.89873 0.0
H1433 H 0.28209 0.93701 0.91162 0.0
H1434 H 0.28216 0.87854 0.89377 0.0
H1435 H 0.32686 0.94204 0.89478 0.0
H1436 H 0.35535 0.96947 0.89673 0.0
H1437 H 0.39694 0.92428 0.88508 0.0
H1438 H 0.36956 0.89476 0.88403 0.0
H1439 H 0.27955 0.87966 0.85458 0.0
H1440 H 0.28157 0.89148 0.86755 0.0
H1441 H 0.3372 0.85047 0.87022 0.0
H1442 H 0.33495 0.83831 0.85722 0.0
H1443 H 0.33965 0.89545 0.87644 0.0
H1444 H 0.29238 0.83035 0.87714 0.0
H1445 H 0.2612 0.80885 0.87316 0.0
H1446 H 0.22271 0.86678 0.87931 0.0
H1447 H 0.25372 0.88871 0.88323 0.0
C1448 C 0.32319 0.8998 0.91315 0.0
C1449 C 0.30793 0.91585 0.91549 0.0
C1450 C 0.32481 0.89337 0.90569 0.0
C1451 C 0.31144 0.90293 0.9004 0.0
C1452 C 0.29617 0.91876 0.9027 0.0
C1453 C 0.29447 0.92518 0.91011 0.0
C1454 C 0.31195 0.89499 0.89258 0.0
C1455 C 0.29485 0.8823 0.89002 0.0
C1456 C 0.32852 0.89983 0.88764 0.0
C1457 C 0.346 0.91567 0.8895 0.0
C1458 C 0.34229 0.93708 0.89303 0.0
C1459 C 0.35835 0.95309 0.89399 0.0
C1460 C 0.37805 0.94845 0.89114 0.0
C1461 C 0.38177 0.92763 0.88741 0.0
C1462 C 0.3661 0.911 0.8868 0.0
C1463 C 0.29224 0.87328 0.85794 0.0
C1464 C 0.30716 0.85823 0.85492 0.0
C1465 C 0.29333 0.87991 0.86535 0.0
C1466 C 0.30945 0.87173 0.86989 0.0
C1467 C 0.3246 0.85696 0.86684 0.0
C1468 C 0.32331 0.85001 0.85943 0.0
C1469 C 0.31036 0.87863 0.87782 0.0
C1470 C 0.32752 0.8912 0.88035 0.0
C1471 C 0.29383 0.87425 0.88273 0.0
C1472 C 0.27529 0.86114 0.88042 0.0
C1473 C 0.27726 0.83851 0.8776 0.0
C1474 C 0.25964 0.82627 0.87536 0.0
C1475 C 0.24 0.83646 0.87597 0.0
C1476 C 0.23793 0.85892 0.87883 0.0
C1477 C 0.25551 0.87125 0.88107 0.0
H1478 H 0.22636 0.82693 0.87424 0.0
H1479 H 0.39036 0.9611 0.89173 0.0
H1480 H 0.57565 0.65623 0.6045 0.0
H1481 H 0.58061 0.64678 0.61757 0.0
H1482 H 0.51427 0.65154 0.62094 0.0
H1483 H 0.50973 0.66288 0.60812 0.0
H1484 H 0.52986 0.67029 0.63151 0.0
H1485 H 0.54962 0.59788 0.61932 0.0
H1486 H 0.57141 0.57374 0.61116 0.0
H1487 H 0.62541 0.59114 0.62395 0.0
H1488 H 0.60402 0.61586 0.63206 0.0
H1489 H 0.50968 0.60696 0.66329 0.0
H1490 H 0.51465 0.61788 0.65042 0.0
H1491 H 0.58035 0.62619 0.65426 0.0
H1492 H 0.57533 0.61522 0.66729 0.0
H1493 H 0.5714 0.60365 0.64069 0.0
H1494 H 0.55398 0.67322 0.65279 0.0
H1495 H 0.5346 0.69848 0.66134 0.0
H1496 H 0.47876 0.68745 0.64883 0.0
H1497 H 0.49779 0.6617 0.64029 0.0
C1498 C 0.56222 0.6552 0.60808 0.0
C1499 C 0.54232 0.66032 0.60533 0.0
C1500 C 0.56499 0.64956 0.61554 0.0
C1501 C 0.5478 0.64792 0.62032 0.0
C1502 C 0.52791 0.65273 0.61747 0.0
C1503 C 0.52525 0.65914 0.61011 0.0
C1504 C 0.55005 0.64209 0.62834 0.0
C1505 C 0.5387 0.65538 0.63341 0.0
C1506 C 0.56259 0.62365 0.63108 0.0
C1507 C 0.57531 0.60889 0.62621 0.0
C1508 C 0.56617 0.5967 0.62034 0.0
C1509 C 0.57844 0.58295 0.61573 0.0
C1510 C 0.59978 0.58097 0.61702 0.0
C1511 C 0.6089 0.59275 0.62294 0.0
C1512 C 0.59673 0.60667 0.62753 0.0
C1513 C 0.52519 0.61114 0.6614 0.0
C1514 C 0.54208 0.61046 0.6663 0.0
C1515 C 0.52803 0.61734 0.65404 0.0
C1516 C 0.54786 0.62294 0.65136 0.0
C1517 C 0.56491 0.62191 0.6562 0.0
C1518 C 0.56202 0.61592 0.66364 0.0
C1519 C 0.55017 0.63095 0.6436 0.0
C1520 C 0.56251 0.61836 0.63866 0.0
C1521 C 0.53872 0.65011 0.64094 0.0
C1522 C 0.5272 0.66548 0.64597 0.0
C1523 C 0.53752 0.67605 0.65191 0.0
C1524 C 0.52663 0.69044 0.65674 0.0
C1525 C 0.50546 0.69453 0.65563 0.0
C1526 C 0.49515 0.68423 0.64968 0.0
C1527 C 0.50597 0.66974 0.64485 0.0
H1528 H 0.49703 0.70573 0.65938 0.0
H1529 H 0.60925 0.57024 0.61345 0.0
H1530 H 0.68596 0.64407 0.60342 0.0
H1531 H 0.68174 0.65473 0.61616 0.0
H1532 H 0.70487 0.5879 0.62297 0.0
H1533 H 0.71013 0.57691 0.61038 0.0
H1534 H 0.6726 0.60115 0.63149 0.0
H1535 H 0.73636 0.63697 0.62283 0.0
H1536 H 0.75633 0.66192 0.61436 0.0
H1537 H 0.7174 0.72014 0.61987 0.0
H1538 H 0.69701 0.69538 0.62827 0.0
H1539 H 0.70666 0.62401 0.66797 0.0
H1540 H 0.70155 0.61352 0.65511 0.0
H1541 H 0.68455 0.68429 0.65008 0.0
H1542 H 0.68896 0.6949 0.66296 0.0
H1543 H 0.71069 0.67061 0.64045 0.0
H1544 H 0.64784 0.63841 0.64922 0.0
H1545 H 0.62447 0.61526 0.65708 0.0
H1546 H 0.65759 0.55301 0.65124 0.0
H1547 H 0.68123 0.57585 0.64338 0.0
C1548 C 0.69057 0.63138 0.60747 0.0
C1549 C 0.69891 0.60945 0.60548 0.0
C1550 C 0.68789 0.63766 0.61487 0.0
C1551 C 0.6933 0.62229 0.62055 0.0
C1552 C 0.70061 0.60015 0.61869 0.0
C1553 C 0.70356 0.59388 0.61131 0.0
C1554 C 0.69241 0.6296 0.62844 0.0
C1555 C 0.68112 0.61619 0.63347 0.0
C1556 C 0.70279 0.64965 0.63103 0.0
C1557 C 0.71516 0.6644 0.6261 0.0
C1558 C 0.73205 0.65507 0.62219 0.0
C1559 C 0.7434 0.66915 0.61741 0.0
C1560 C 0.73811 0.69258 0.61657 0.0
C1561 C 0.72146 0.70199 0.62052 0.0
C1562 C 0.71001 0.68796 0.62529 0.0
C1563 C 0.70133 0.63734 0.66421 0.0
C1564 C 0.69835 0.66042 0.66662 0.0
C1565 C 0.69844 0.63125 0.6568 0.0
C1566 C 0.69249 0.64803 0.65158 0.0
C1567 C 0.68922 0.67098 0.65396 0.0
C1568 C 0.69195 0.67706 0.66137 0.0
C1569 C 0.69108 0.64201 0.64359 0.0
C1570 C 0.70202 0.65562 0.63852 0.0
C1571 C 0.68006 0.62239 0.64096 0.0
C1572 C 0.66636 0.60879 0.6458 0.0
C1573 C 0.65024 0.61981 0.64968 0.0
C1574 C 0.63692 0.60676 0.65411 0.0
C1575 C 0.6396 0.5827 0.65468 0.0
C1576 C 0.65557 0.57165 0.6508 0.0
C1577 C 0.66891 0.58462 0.64636 0.0
H1578 H 0.62924 0.5726 0.65811 0.0
H1579 H 0.74694 0.70348 0.61286 0.0
H1580 H 0.46559 0.39513 0.41836 0.0
H1581 H 0.46239 0.40641 0.40552 0.0
H1582 H 0.44085 0.33754 0.4 0.0
H1583 H 0.44393 0.32606 0.41287 0.0
H1584 H 0.46688 0.34923 0.39034 0.0
H1585 H 0.40736 0.38886 0.39978 0.0
H1586 H 0.38765 0.41464 0.40811 0.0
H1587 H 0.42744 0.4718 0.4024 0.0
H1588 H 0.44746 0.44628 0.39408 0.0
H1589 H 0.4414 0.38062 0.3537 0.0
H1590 H 0.43852 0.36902 0.36638 0.0
H1591 H 0.46556 0.43378 0.37337 0.0
H1592 H 0.46934 0.44575 0.36083 0.0
H1593 H 0.4344 0.42302 0.38209 0.0
H1594 H 0.49388 0.38178 0.3726 0.0
H1595 H 0.51211 0.35539 0.36404 0.0
H1596 H 0.47043 0.30002 0.36983 0.0
H1597 H 0.45172 0.32626 0.3783 0.0
C1598 C 0.45972 0.38243 0.41448 0.0
C1599 C 0.455 0.35962 0.41675 0.0
C1600 C 0.45788 0.38896 0.40708 0.0
C1601 C 0.45105 0.37299 0.40174 0.0
C1602 C 0.44618 0.35026 0.40398 0.0
C1603 C 0.44806 0.34367 0.41138 0.0
C1604 C 0.44996 0.37964 0.39379 0.0
C1605 C 0.45939 0.36518 0.38855 0.0
C1606 C 0.44065 0.40058 0.39136 0.0
C1607 C 0.42892 0.41573 0.39639 0.0
C1608 C 0.41196 0.4069 0.40036 0.0
C1609 C 0.40074 0.42145 0.40506 0.0
C1610 C 0.40633 0.44482 0.40579 0.0
C1611 C 0.42315 0.45369 0.40182 0.0
C1612 C 0.43441 0.43923 0.39711 0.0
C1613 C 0.44713 0.39268 0.35777 0.0
C1614 C 0.45598 0.41438 0.35583 0.0
C1615 C 0.44529 0.38581 0.36514 0.0
C1616 C 0.45213 0.40032 0.37086 0.0
C1617 C 0.46019 0.42218 0.36906 0.0
C1618 C 0.46224 0.42904 0.36171 0.0
C1619 C 0.45139 0.39266 0.3787 0.0
C1620 C 0.44169 0.40697 0.3839 0.0
C1621 C 0.46026 0.37147 0.38109 0.0
C1622 C 0.47137 0.35592 0.376 0.0
C1623 C 0.48854 0.36402 0.37199 0.0
C1624 C 0.49894 0.34911 0.36716 0.0
C1625 C 0.49241 0.32606 0.36639 0.0
C1626 C 0.47545 0.31788 0.37043 0.0
C1627 C 0.46494 0.33275 0.37523 0.0
H1628 H 0.50053 0.31451 0.36266 0.0
H1629 H 0.3976 0.45608 0.40944 0.0
H1630 H 0.34202 0.36757 0.35507 0.0
H1631 H 0.34545 0.37979 0.368 0.0
H1632 H 0.28181 0.3601 0.37195 0.0
H1633 H 0.27812 0.34859 0.35913 0.0
H1634 H 0.28903 0.40166 0.37725 0.0
H1635 H 0.32396 0.32808 0.37817 0.0
H1636 H 0.35056 0.29878 0.37515 0.0
H1637 H 0.39852 0.34519 0.38255 0.0
H1638 H 0.37218 0.37498 0.38547 0.0
H1639 H 0.27672 0.40865 0.41526 0.0
H1640 H 0.27964 0.39561 0.40253 0.0
H1641 H 0.34598 0.40664 0.40328 0.0
H1642 H 0.34307 0.4178 0.41634 0.0
H1643 H 0.34085 0.37233 0.39521 0.0
H1644 H 0.30778 0.44592 0.39413 0.0
H1645 H 0.28224 0.47638 0.3972 0.0
H1646 H 0.23265 0.43222 0.38979 0.0
H1647 H 0.25791 0.40138 0.38676 0.0
C1648 C 0.32877 0.36589 0.3587 0.0
C1649 C 0.30983 0.35687 0.35604 0.0
C1650 C 0.33082 0.37266 0.36612 0.0
C1651 C 0.31396 0.37066 0.37101 0.0
C1652 C 0.29511 0.36173 0.36833 0.0
C1653 C 0.29307 0.35495 0.36097 0.0
C1654 C 0.31517 0.37897 0.3788 0.0
C1655 C 0.30026 0.39499 0.38118 0.0
C1656 C 0.33033 0.37126 0.38391 0.0
C1657 C 0.34617 0.35384 0.38191 0.0
C1658 C 0.3402 0.33217 0.37904 0.0
C1659 C 0.35522 0.31545 0.37737 0.0
C1660 C 0.37622 0.32015 0.37863 0.0
C1661 C 0.38225 0.34161 0.38155 0.0
C1662 C 0.36729 0.35843 0.3832 0.0
C1663 C 0.29192 0.40821 0.4127 0.0
C1664 C 0.30963 0.4144 0.41675 0.0
C1665 C 0.29361 0.40101 0.40537 0.0
C1666 C 0.31295 0.40088 0.40174 0.0
C1667 C 0.3308 0.4067 0.40586 0.0
C1668 C 0.32917 0.41319 0.41331 0.0
C1669 C 0.31432 0.39466 0.39371 0.0
C1670 C 0.32973 0.37916 0.39127 0.0
C1671 C 0.29983 0.40312 0.38847 0.0
C1672 C 0.28465 0.42141 0.39028 0.0
C1673 C 0.29141 0.44271 0.3932 0.0
C1674 C 0.277 0.46 0.39493 0.0
C1675 C 0.25584 0.45622 0.3937 0.0
C1676 C 0.24904 0.43511 0.39074 0.0
C1677 C 0.26338 0.41773 0.38901 0.0
H1678 H 0.2447 0.46967 0.39504 0.0
H1679 H 0.38782 0.30712 0.37736 0.0
H1680 H 0.01819 0.12561 0.60349 0.0
H1681 H 0.0236 0.1142 0.61627 0.0
H1682 H 0.03235 0.18602 0.62238 0.0
H1683 H 0.02902 0.19742 0.60954 0.0
H1684 H 0.05686 0.16069 0.6304 0.0
H1685 H 0.98364 0.15654 0.62452 0.0
H1686 H 0.95326 0.14369 0.61731 0.0
H1687 H 0.96834 0.07235 0.62189 0.0
H1688 H 0.99895 0.08482 0.62906 0.0
H1689 H 0.02397 0.14818 0.66838 0.0
H1690 H 0.02939 0.15924 0.65552 0.0
H1691 H 0.02838 0.08708 0.64913 0.0
H1692 H 0.02461 0.07565 0.66188 0.0
H1693 H 1.00056 0.11264 0.64134 0.0
H1694 H 0.07256 0.11632 0.64769 0.0
H1695 H 0.10394 0.12837 0.65448 0.0
H1696 H 0.09175 0.19979 0.64906 0.0
H1697 H 0.06014 0.18816 0.64231 0.0
C1698 C 0.02179 0.13902 0.60748 0.0
C1699 C 0.02275 0.16257 0.60539 0.0
C1700 C 0.02458 0.13246 0.61484 0.0
C1701 C 0.02778 0.1493 0.62035 0.0
C1702 C 0.02967 0.17267 0.61827 0.0
C1703 C 0.02738 0.17919 0.61089 0.0
C1704 C 0.0281 0.14277 0.62831 0.0
C1705 C 0.04446 0.15044 0.63281 0.0
C1706 C 0.01225 0.12902 0.63148 0.0
C1707 C 0.99356 0.12157 0.62726 0.0
C1708 C 0.98049 0.13812 0.62395 0.0
C1709 C 0.96326 0.13091 0.61988 0.0
C1710 C 0.95891 0.10722 0.61913 0.0
C1711 C 0.97175 0.09069 0.62247 0.0
C1712 C 0.98902 0.09781 0.62654 0.0
C1713 C 0.02544 0.13453 0.66431 0.0
C1714 C 0.02329 0.11093 0.66629 0.0
C1715 C 0.02847 0.14096 0.65692 0.0
C1716 C 0.02914 0.12398 0.65136 0.0
C1717 C 0.0277 0.10051 0.65332 0.0
C1718 C 0.02519 0.09405 0.66067 0.0
C1719 C 0.02961 0.1305 0.64343 0.0
C1720 C 0.01329 0.1229 0.63894 0.0
C1721 C 0.04548 0.1443 0.64031 0.0
C1722 C 0.06389 0.15143 0.6446 0.0
C1723 C 0.07643 0.13463 0.64804 0.0
C1724 C 0.09429 0.14136 0.65185 0.0
C1725 C 0.0998 0.16484 0.65222 0.0
C1726 C 0.08744 0.18162 0.64878 0.0
C1727 C 0.06955 0.17498 0.64496 0.0
H1728 H 0.11368 0.17002 0.65515 0.0
H1729 H 0.94554 0.10166 0.61597 0.0
H1730 H 0.18912 0.12256 0.60413 0.0
H1731 H 0.1841 0.13196 0.61718 0.0
H1732 H 0.24862 0.1159 0.62137 0.0
H1733 H 0.25313 0.10506 0.60853 0.0
H1734 H 0.22928 0.0996 0.63168 0.0
H1735 H 0.22178 0.17506 0.61964 0.0
H1736 H 0.20458 0.20268 0.61122 0.0
H1737 H 0.14716 0.19424 0.62298 0.0
H1738 H 0.16392 0.16611 0.63134 0.0
H1739 H 0.25406 0.1578 0.66429 0.0
H1740 H 0.24969 0.14739 0.65129 0.0
H1741 H 0.18319 0.15341 0.65358 0.0
H1742 H 0.18765 0.16371 0.66669 0.0
H1743 H 0.19706 0.17287 0.64051 0.0
H1744 H 0.20244 0.10097 0.65253 0.0
H1745 H 0.21668 0.07218 0.66123 0.0
H1746 H 0.27491 0.07288 0.64965 0.0
H1747 H 0.26109 0.10206 0.64097 0.0
C1748 C 0.20218 0.1211 0.60786 0.0
C1749 C 0.2215 0.11297 0.60531 0.0
C1750 C 0.19937 0.12668 0.61533 0.0
C1751 C 0.21606 0.12514 0.62034 0.0
C1752 C 0.23537 0.1172 0.61771 0.0
C1753 C 0.23799 0.11101 0.61033 0.0
C1754 C 0.21381 0.1311 0.62835 0.0
C1755 C 0.22254 0.1159 0.63352 0.0
C1756 C 0.20387 0.15154 0.63099 0.0
C1757 C 0.19398 0.16838 0.62602 0.0
C1758 C 0.20545 0.179 0.62038 0.0
C1759 C 0.19578 0.19468 0.61562 0.0
C1760 C 0.17478 0.20015 0.61655 0.0
C1761 C 0.1634 0.18993 0.62225 0.0
C1762 C 0.17295 0.17408 0.62698 0.0
C1763 C 0.23853 0.15688 0.662 0.0
C1764 C 0.22119 0.16141 0.66645 0.0
C1765 C 0.23602 0.15093 0.65459 0.0
C1766 C 0.2161 0.14949 0.65146 0.0
C1767 C 0.1987 0.15444 0.65587 0.0
C1768 C 0.20122 0.16014 0.66335 0.0
C1769 C 0.21374 0.14207 0.64363 0.0
C1770 C 0.20392 0.15674 0.63857 0.0
C1771 C 0.22246 0.12107 0.64106 0.0
C1772 C 0.23085 0.10371 0.64619 0.0
C1773 C 0.21834 0.09509 0.65189 0.0
C1774 C 0.22631 0.07873 0.6568 0.0
C1775 C 0.2467 0.07076 0.656 0.0
C1776 C 0.25914 0.07911 0.65027 0.0
C1777 C 0.25126 0.09555 0.64536 0.0
H1778 H 0.25285 0.05803 0.65981 0.0
H1779 H 0.16733 0.21237 0.61287 0.0
H1780 H 0.00567 0.89278 0.35554 0.0
H1781 H 0.0038 0.88177 0.36853 0.0
H1782 H 0.94572 0.91944 0.37069 0.0
H1783 H 0.94844 0.93166 0.35774 0.0
H1784 H 0.96656 0.92651 0.38234 0.0
H1785 H 0.94906 0.85645 0.36984 0.0
H1786 H 0.9534 0.82494 0.36075 0.0
H1787 H 0.01232 0.80655 0.3705 0.0
H1788 H 0.00843 0.83821 0.37957 0.0
H1789 H 0.94843 0.87589 0.41785 0.0
H1790 H 0.94539 0.88779 0.40497 0.0
H1791 H 0.00401 0.85404 0.4001 0.0
H1792 H 0.00718 0.84219 0.41287 0.0
H1793 H 0.97876 0.84465 0.38978 0.0
H1794 H 0.99614 0.91592 0.40221 0.0
H1795 H 0.99107 0.94738 0.41127 0.0
H1796 H 0.93179 0.96351 0.40165 0.0
H1797 H 0.93633 0.93176 0.39264 0.0
C1798 C 0.9922 0.8985 0.3588 0.0
C1799 C 0.97685 0.91266 0.35566 0.0
C1800 C 0.99104 0.89213 0.36622 0.0
C1801 C 0.97415 0.8992 0.37061 0.0
C1802 C 0.95884 0.91359 0.36745 0.0
C1803 C 0.96028 0.92042 0.36005 0.0
C1804 C 0.9727 0.8918 0.37849 0.0
C1805 C 0.96889 0.90851 0.38393 0.0
C1806 C 0.976 0.86851 0.3807 0.0
C1807 C 0.97836 0.84963 0.37531 0.0
C1808 C 0.9629 0.84573 0.37 0.0
C1809 C 0.96529 0.82788 0.36486 0.0
C1810 C 0.98298 0.81378 0.36504 0.0
C1811 C 0.99833 0.8175 0.37037 0.0
C1812 C 0.99604 0.83536 0.37551 0.0
C1813 C 0.96071 0.87115 0.41406 0.0
C1814 C 0.97785 0.85791 0.41646 0.0
C1815 C 0.95895 0.87801 0.40667 0.0
C1816 C 0.97443 0.87209 0.40153 0.0
C1817 C 0.99144 0.85878 0.40391 0.0
C1818 C 0.99317 0.85186 0.41126 0.0
C1819 C 0.97314 0.87943 0.39365 0.0
C1820 C 0.97634 0.86265 0.38819 0.0
C1821 C 0.9692 0.90263 0.39145 0.0
C1822 C 0.96646 0.92144 0.39685 0.0
C1823 C 0.98196 0.92607 0.40209 0.0
C1824 C 0.97918 0.94392 0.4072 0.0
C1825 C 0.9611 0.95739 0.40705 0.0
C1826 C 0.94575 0.95302 0.40177 0.0
C1827 C 0.94839 0.9351 0.39668 0.0
H1828 H 0.959 0.97128 0.41101 0.0
H1829 H 0.98478 0.79992 0.36106 0.0
H1830 H 0.76789 0.94049 0.41223 0.0
H1831 H 0.77239 0.93013 0.39947 0.0
H1832 H 0.81166 0.87265 0.40572 0.0
H1833 H 0.8095 0.88472 0.41858 0.0
H1834 H 0.82533 0.88795 0.39353 0.0
H1835 H 0.75652 0.86779 0.40111 0.0
H1836 H 0.72185 0.87435 0.4065 0.0
H1837 H 0.70932 0.92699 0.39031 0.0
H1838 H 0.74405 0.92099 0.38489 0.0
H1839 H 0.80638 0.8288 0.35891 0.0
H1840 H 0.80926 0.83999 0.37191 0.0
H1841 H 0.77712 0.90414 0.36726 0.0
H1842 H 0.77364 0.89287 0.35438 0.0
H1843 H 0.76066 0.88321 0.37875 0.0
H1844 H 0.82953 0.9022 0.37097 0.0
H1845 H 0.86453 0.89599 0.36583 0.0
H1846 H 0.87701 0.84447 0.38238 0.0
H1847 H 0.84192 0.85006 0.38754 0.0
C1848 C 0.77808 0.92605 0.411 0.0
C1849 C 0.78829 0.91358 0.41664 0.0
C1850 C 0.78023 0.91976 0.40361 0.0
C1851 C 0.79175 0.90003 0.40157 0.0
C1852 C 0.80242 0.88778 0.40711 0.0
C1853 C 0.80086 0.89456 0.41453 0.0
C1854 C 0.79209 0.892 0.39371 0.0
C1855 C 0.81113 0.88653 0.39035 0.0
C1856 C 0.77371 0.89047 0.38943 0.0
C1857 C 0.75287 0.89406 0.39264 0.0
C1858 C 0.74639 0.88085 0.39873 0.0
C1859 C 0.72675 0.88447 0.40179 0.0
C1860 C 0.71341 0.9011 0.39876 0.0
C1861 C 0.71968 0.91413 0.39265 0.0
C1862 C 0.73933 0.91063 0.38959 0.0
C1863 C 0.79994 0.84531 0.36065 0.0
C1864 C 0.78982 0.85995 0.35554 0.0
C1865 C 0.8018 0.85179 0.36808 0.0
C1866 C 0.79359 0.87303 0.37058 0.0
C1867 C 0.78369 0.88772 0.36548 0.0
C1868 C 0.78186 0.88131 0.35807 0.0
C1869 C 0.79387 0.87945 0.37855 0.0
C1870 C 0.77488 0.88451 0.38194 0.0
C1871 C 0.81227 0.88036 0.38283 0.0
C1872 C 0.833 0.8763 0.37956 0.0
C1873 C 0.83962 0.88928 0.37344 0.0
C1874 C 0.8595 0.88594 0.37054 0.0
C1875 C 0.87296 0.86979 0.37376 0.0
C1876 C 0.86655 0.85692 0.37988 0.0
C1877 C 0.84666 0.86015 0.38279 0.0
H1878 H 0.88838 0.8673 0.37152 0.0
H1879 H 0.69819 0.90386 0.40113 0.0
H1880 H 0.05293 0.62152 0.16812 0.0
H1881 H 0.05775 0.63139 0.1551 0.0
H1882 H 0.9933 0.61385 0.15083 0.0
H1883 H 0.98891 0.6028 0.16364 0.0
H1884 H 0.01375 0.59809 0.14049 0.0
H1885 H 0.01803 0.67327 0.1528 0.0
H1886 H 0.03368 0.70142 0.16143 0.0
H1887 H 0.09193 0.69617 0.14999 0.0
H1888 H 0.07674 0.66753 0.14142 0.0
H1889 H 0.98807 0.65674 0.10802 0.0
H1890 H 0.99222 0.64591 0.12099 0.0
H1891 H 0.05894 0.65401 0.11905 0.0
H1892 H 0.05472 0.66474 0.10597 0.0
H1893 H 0.04382 0.67285 0.13205 0.0
H1894 H 0.041 0.60105 0.11969 0.0
H1895 H 0.02779 0.57212 0.11084 0.0
H1896 H 0.96901 0.57042 0.12224 0.0
H1897 H 0.9818 0.59972 0.13109 0.0
C1898 C 0.03989 0.61988 0.16438 0.0
C1899 C 0.02072 0.61132 0.1669 0.0
C1900 C 0.0426 0.62568 0.15693 0.0
C1901 C 0.02596 0.62383 0.15193 0.0
C1902 C 0.0068 0.6154 0.15451 0.0
C1903 C 0.00427 0.60909 0.16187 0.0
C1904 C 0.02813 0.63008 0.14397 0.0
C1905 C 0.02004 0.61467 0.13873 0.0
C1906 C 0.0374 0.65101 0.14147 0.0
C1907 C 0.04636 0.66817 0.14656 0.0
C1908 C 0.03421 0.67802 0.15218 0.0
C1909 C 0.043 0.69401 0.15705 0.0
C1910 C 0.06379 0.70052 0.15627 0.0
C1911 C 0.07585 0.69105 0.1506 0.0
C1912 C 0.06718 0.67492 0.14575 0.0
C1913 C 0.00384 0.65615 0.11038 0.0
C1914 C 0.02125 0.66135 0.10604 0.0
C1915 C 0.00622 0.64998 0.11777 0.0
C1916 C 0.02607 0.64901 0.12098 0.0
C1917 C 0.0435 0.65465 0.11668 0.0
C1918 C 0.04112 0.66058 0.10923 0.0
C1919 C 0.02835 0.64144 0.12876 0.0
C1920 C 0.03747 0.65639 0.1339 0.0
C1921 C 0.02018 0.62005 0.13121 0.0
C1922 C 0.01241 0.60259 0.12598 0.0
C1923 C 0.02527 0.59461 0.12026 0.0
C1924 C 0.01788 0.57818 0.11526 0.0
C1925 C 0.99741 0.56948 0.11597 0.0
C1926 C 0.98461 0.57721 0.1217 0.0
C1927 C 0.99191 0.59372 0.12671 0.0
H1928 H 0.9917 0.5567 0.11209 0.0
H1929 H 0.07056 0.71297 0.16004 0.0
H1930 H 0.20168 0.58168 0.10848 0.0
H1931 H 0.19756 0.59181 0.12151 0.0
H1932 H 0.22965 0.65649 0.11774 0.0
H1933 H 0.23454 0.6462 0.10485 0.0
H1934 H 0.24593 0.63387 0.12891 0.0
H1935 H 0.17712 0.65328 0.1211 0.0
H1936 H 0.14203 0.64769 0.11598 0.0
H1937 H 0.12912 0.59615 0.13246 0.0
H1938 H 0.16432 0.60102 0.13758 0.0
H1939 H 0.23908 0.68987 0.16228 0.0
H1940 H 0.23309 0.68014 0.14954 0.0
H1941 H 0.19706 0.62046 0.15606 0.0
H1942 H 0.20103 0.6316 0.16902 0.0
H1943 H 0.18133 0.63761 0.14375 0.0
H1944 H 0.24999 0.61666 0.15116 0.0
H1945 H 0.2844 0.62314 0.15676 0.0
H1946 H 0.2971 0.67684 0.14095 0.0
H1947 H 0.26259 0.67097 0.13534 0.0
C1948 C 0.20786 0.59809 0.11041 0.0
C1949 C 0.21849 0.6131 0.10556 0.0
C1950 C 0.20523 0.60398 0.11786 0.0
C1951 C 0.21311 0.62503 0.12062 0.0
C1952 C 0.22331 0.6402 0.11575 0.0
C1953 C 0.22597 0.63435 0.10834 0.0
C1954 C 0.21269 0.63047 0.12865 0.0
C1955 C 0.23171 0.63496 0.1321 0.0
C1956 C 0.19428 0.63098 0.13294 0.0
C1957 C 0.1735 0.62725 0.12965 0.0
C1958 C 0.16695 0.64044 0.12356 0.0
C1959 C 0.147 0.63747 0.12067 0.0
C1960 C 0.13338 0.62152 0.12388 0.0
C1961 C 0.1397 0.60845 0.12997 0.0
C1962 C 0.15967 0.61127 0.13286 0.0
C1963 C 0.22927 0.67506 0.16112 0.0
C1964 C 0.22051 0.66166 0.16684 0.0
C1965 C 0.22618 0.66924 0.15374 0.0
C1966 C 0.21513 0.64915 0.15178 0.0
C1967 C 0.20584 0.63594 0.15741 0.0
C1968 C 0.20843 0.64217 0.16485 0.0
C1969 C 0.21456 0.64146 0.14391 0.0
C1970 C 0.19548 0.6364 0.14052 0.0
C1971 C 0.23291 0.64018 0.13962 0.0
C1972 C 0.25373 0.64348 0.14288 0.0
C1973 C 0.26011 0.62992 0.14891 0.0
C1974 C 0.2796 0.6335 0.15208 0.0
C1975 C 0.29291 0.65042 0.14922 0.0
C1976 C 0.28676 0.66376 0.14316 0.0
C1977 C 0.26725 0.66032 0.13998 0.0
H1978 H 0.30801 0.65315 0.15169 0.0
H1979 H 0.1179 0.61934 0.12166 0.0
H1980 H 0.00637 0.37804 0.91629 0.0
H1981 H 0.00433 0.38914 0.90331 0.0
H1982 H 0.94514 0.3537 0.9014 0.0
H1983 H 0.94793 0.34145 0.91435 0.0
H1984 H 0.96571 0.34573 0.88965 0.0
H1985 H 0.95001 0.41623 0.90222 0.0
H1986 H 0.95516 0.44773 0.91126 0.0
H1987 H 0.01415 0.46453 0.90132 0.0
H1988 H 0.00946 0.43287 0.8923 0.0
H1989 H 0.94805 0.39705 0.85419 0.0
H1990 H 0.94502 0.38503 0.86706 0.0
H1991 H 0.00429 0.41732 0.87186 0.0
H1992 H 0.00742 0.42933 0.85912 0.0
H1993 H 0.97945 0.42724 0.8822 0.0
H1994 H 0.9952 0.35564 0.86971 0.0
H1995 H 0.98938 0.32441 0.86063 0.0
H1996 H 0.93001 0.30967 0.87037 0.0
H1997 H 0.9353 0.34122 0.8794 0.0
C1998 C 0.99263 0.37283 0.91309 0.0
C1999 C 0.97698 0.3593 0.9163 0.0
C2000 C 0.99138 0.37925 0.90568 0.0
C2001 C 0.97414 0.37281 0.90136 0.0
C2002 C 0.95853 0.35904 0.90459 0.0
C2003 C 0.96002 0.35221 0.91199 0.0
C2004 C 0.97265 0.38025 0.89349 0.0
C2005 C 0.96838 0.36366 0.88805 0.0
C2006 C 0.97641 0.40345 0.89128 0.0
C2007 C 0.9793 0.42225 0.89666 0.0
C2008 C 0.96406 0.42659 0.90201 0.0
C2009 C 0.96689 0.44444 0.90712 0.0
C2010 C 0.98482 0.45809 0.90687 0.0
C2011 C 0.99997 0.45393 0.90151 0.0
C2012 C 0.99724 0.43606 0.8964 0.0
C2013 C 0.96046 0.40144 0.85797 0.0
C2014 C 0.97778 0.41432 0.85556 0.0
C2015 C 0.95871 0.39451 0.86535 0.0
C2016 C 0.97439 0.39999 0.87046 0.0
C2017 C 0.99158 0.41293 0.86807 0.0
C2018 C 0.99329 0.41993 0.86074 0.0
C2019 C 0.97307 0.39264 0.87833 0.0
C2020 C 0.97671 0.40931 0.88379 0.0
C2021 C 0.9687 0.36954 0.88053 0.0
C2022 C 0.96553 0.35082 0.87514 0.0
C2023 C 0.98083 0.34585 0.86986 0.0
C2024 C 0.97763 0.32813 0.86473 0.0
C2025 C 0.95932 0.31511 0.86492 0.0
C2026 C 0.94415 0.31981 0.87023 0.0
C2027 C 0.94722 0.33762 0.87534 0.0
H2028 H 0.95689 0.30132 0.86095 0.0
H2029 H 0.98697 0.47196 0.91083 0.0
H2030 H 0.76569 0.33379 0.8597 0.0
H2031 H 0.76986 0.34427 0.8725 0.0
H2032 H 0.81392 0.3974 0.86649 0.0
H2033 H 0.81167 0.38521 0.85362 0.0
H2034 H 0.82549 0.38061 0.87888 0.0
H2035 H 0.75988 0.40853 0.87054 0.0
H2036 H 0.7254 0.40612 0.86467 0.0
H2037 H 0.70623 0.35556 0.88069 0.0
H2038 H 0.74074 0.3574 0.88658 0.0
H2039 H 0.80859 0.44152 0.91344 0.0
H2040 H 0.8116 0.43031 0.90043 0.0
H2041 H 0.77433 0.36948 0.9046 0.0
H2042 H 0.77098 0.3807 0.91752 0.0
H2043 H 0.76038 0.39273 0.89297 0.0
H2044 H 0.82655 0.36606 0.90146 0.0
H2045 H 0.86155 0.36803 0.90692 0.0
H2046 H 0.88 0.41763 0.8905 0.0
H2047 H 0.84494 0.41631 0.88503 0.0
C2048 C 0.77678 0.34727 0.86102 0.0
C2049 C 0.78832 0.35853 0.85547 0.0
C2050 C 0.77881 0.35363 0.86842 0.0
C2051 C 0.79169 0.37219 0.87051 0.0
C2052 C 0.80365 0.38319 0.86505 0.0
C2053 C 0.80208 0.37637 0.85763 0.0
C2054 C 0.7921 0.38036 0.87835 0.0
C2055 C 0.81124 0.38367 0.88192 0.0
C2056 C 0.77361 0.38404 0.88243 0.0
C2057 C 0.75287 0.38299 0.87895 0.0
C2058 C 0.74833 0.39681 0.87278 0.0
C2059 C 0.72881 0.39554 0.86945 0.0
C2060 C 0.71366 0.38066 0.8723 0.0
C2061 C 0.71799 0.36705 0.87849 0.0
C2062 C 0.73752 0.3682 0.88183 0.0
C2063 C 0.80109 0.4257 0.91159 0.0
C2064 C 0.7896 0.41195 0.91657 0.0
C2065 C 0.803 0.41921 0.90416 0.0
C2066 C 0.79336 0.39891 0.90153 0.0
C2067 C 0.78203 0.38515 0.90649 0.0
C2068 C 0.78024 0.39151 0.91391 0.0
C2069 C 0.79373 0.39266 0.89354 0.0
C2070 C 0.77466 0.38982 0.88993 0.0
C2071 C 0.8123 0.38971 0.88944 0.0
C2072 C 0.83302 0.39137 0.89292 0.0
C2073 C 0.83795 0.37769 0.89909 0.0
C2074 C 0.85783 0.37862 0.90217 0.0
C2075 C 0.87296 0.39301 0.89907 0.0
C2076 C 0.86824 0.40655 0.8929 0.0
C2077 C 0.84836 0.40574 0.88982 0.0
H2078 H 0.88838 0.39362 0.90145 0.0
H2079 H 0.69853 0.37972 0.86972 0.0
H2080 H 0.52718 0.10584 0.02132 0.0
H2081 H 0.52195 0.07342 0.01279 0.0
H2082 H 0.49914 0.03125 0.03073 0.0
H2083 H 0.50509 0.06306 0.03925 0.0
H2084 H 0.52052 1.00433 0.02307 0.0
H2085 H 0.4688 0.06261 0.01624 0.0
H2086 H 0.45625 0.10044 0.01165 0.0
H2087 H 0.48947 0.09009 0.99043 0.0
H2088 H 0.5028 0.05263 0.99501 0.0
H2089 H 0.4733 0.91424 1.00086 0.0
H2090 H 0.47963 0.9468 1.0092 0.0
H2091 H 0.50377 0.98712 0.99108 0.0
H2092 H 0.49736 0.95498 0.98274 0.0
H2093 H 0.48226 0.01513 0.99864 0.0
H2094 H 0.53357 0.9568 1.00542 0.0
H2095 H 0.54701 0.91949 1.01011 0.0
H2096 H 0.51466 0.9301 0.03149 0.0
H2097 H 0.50044 0.96703 0.02682 0.0
C2098 C 0.52104 0.08963 0.02344 0.0
C2099 C 0.51656 0.08713 0.03099 0.0
C2100 C 0.51792 0.0711 0.01853 0.0
C2101 C 0.50965 0.04987 0.02103 0.0
C2102 C 0.50553 0.04732 0.0286 0.0
C2103 C 0.50901 0.06561 0.0335 0.0
C2104 C 0.50537 0.03006 0.0159 0.0
C2105 C 0.51184 1.00647 0.01798 0.0
C2106 C 0.49473 0.03255 1.00817 0.0
C2107 C 0.48697 0.0551 1.00553 0.0
C2108 C 0.4736 0.06857 1.0099 0.0
C2109 C 0.46638 0.08993 1.00731 0.0
C2110 C 0.47211 0.09768 1.00029 0.0
C2111 C 0.48511 0.08411 0.99587 0.0
C2112 C 0.49258 0.06289 0.99847 0.0
C2113 C 0.48007 0.92998 0.99864 0.0
C2114 C 0.48475 0.93182 0.99108 0.0
C2115 C 0.48375 0.94864 1.00345 0.0
C2116 C 0.49257 0.96943 1.00084 0.0
C2117 C 0.49692 0.97138 0.99328 0.0
C2118 C 0.49311 0.95288 0.98848 0.0
C2119 C 0.49717 0.98938 1.00586 0.0
C2120 C 0.49084 0.01299 1.00374 0.0
C2121 C 0.50789 0.98692 0.01357 0.0
C2122 C 0.51576 0.9644 0.0162 0.0
C2123 C 0.52909 0.95097 0.0118 0.0
C2124 C 0.53684 0.92992 0.01446 0.0
C2125 C 0.53164 0.92242 0.02155 0.0
C2126 C 0.5186 0.93589 0.02599 0.0
C2127 C 0.51062 0.9568 0.02333 0.0
H2128 H 0.53778 0.90616 0.02362 0.0
H2129 H 0.46642 0.11421 0.99828 0.0
H2130 H 0.75902 0.19072 0.03395 0.0
H2131 H 0.76471 0.22317 0.02546 0.0
H2132 H 0.70258 0.21483 0.01692 0.0
H2133 H 0.69699 0.18199 0.02544 0.0
H2134 H 0.73163 0.22338 1.00487 0.0
H2135 H 0.71047 0.26019 0.02815 0.0
H2136 H 0.71143 0.26302 0.04171 0.0
H2137 H 0.7767 0.27845 0.0409 0.0
H2138 H 0.77607 0.27552 0.02732 0.0
H2139 H 0.72824 0.33035 0.98635 0.0
H2140 H 0.72101 0.29845 0.99486 0.0
H2141 H 0.77985 0.31024 1.00566 0.0
H2142 H 0.78645 0.34328 0.99734 0.0
H2143 H 0.75186 0.29958 0.01658 0.0
H2144 H 0.77284 0.26262 0.99315 0.0
H2145 H 0.77173 0.25836 0.97962 0.0
H2146 H 0.7066 0.2424 0.98069 0.0
H2147 H 0.70738 0.2467 0.99423 0.0
C2148 C 0.74663 0.19585 0.03024 0.0
C2149 C 0.72758 0.18408 0.03033 0.0
C2150 C 0.74984 0.21437 0.02541 0.0
C2151 C 0.73401 0.22162 0.02059 0.0
C2152 C 0.71501 0.20955 0.02059 0.0
C2153 C 0.71177 0.19097 0.02546 0.0
C2154 C 0.73725 0.24236 0.01581 0.0
C2155 C 0.73573 0.24009 1.00724 0.0
C2156 C 0.74302 0.26411 0.01881 0.0
C2157 C 0.74322 0.26772 0.02681 0.0
C2158 C 0.72497 0.26434 0.03089 0.0
C2159 C 0.72547 0.26587 0.03855 0.0
C2160 C 0.74412 0.27091 0.04216 0.0
C2161 C 0.76227 0.2746 0.03809 0.0
C2162 C 0.76185 0.2731 0.03042 0.0
C2163 C 0.73957 0.32611 0.99056 0.0
C2164 C 0.75793 0.33904 0.99119 0.0
C2165 C 0.73553 0.30778 0.99539 0.0
C2166 C 0.75011 0.30142 1.00081 0.0
C2167 C 0.76838 0.31467 1.00152 0.0
C2168 C 0.77222 0.33343 0.99676 0.0
C2169 C 0.74632 0.28068 1.00558 0.0
C2170 C 0.74775 0.28292 0.01418 0.0
C2171 C 0.74045 0.25888 1.0026 0.0
C2172 C 0.74016 0.25496 0.99461 0.0
C2173 C 0.75834 0.2581 0.99047 0.0
C2174 C 0.75776 0.25574 0.98282 0.0
C2175 C 0.7391 0.25012 0.9793 0.0
C2176 C 0.72102 0.24671 0.98343 0.0
C2177 C 0.72153 0.24901 0.99109 0.0
H2178 H 0.73866 0.24839 0.97337 0.0
H2179 H 0.74451 0.27198 0.04811 0.0
H2180 H 0.49388 0.31568 0.28938 0.0
H2181 H 0.49933 0.28314 0.2811 0.0
H2182 H 0.48095 0.32551 0.26262 0.0
H2183 H 0.47407 0.35808 0.27097 0.0
H2184 H 0.4659 0.28074 0.26137 0.0
H2185 H 0.53232 0.31607 0.26553 0.0
H2186 H 0.55906 0.33314 0.27362 0.0
H2187 H 0.56517 0.26809 0.28505 0.0
H2188 H 0.5383 0.25073 0.27705 0.0
H2189 H 0.50979 0.21247 0.23351 0.0
H2190 H 0.50486 0.24477 0.242 0.0
H2191 H 0.51937 0.20009 0.26036 0.0
H2192 H 0.52523 0.16759 0.25184 0.0
H2193 H 0.53649 0.24566 0.26171 0.0
H2194 H 0.47018 0.21035 0.25773 0.0
H2195 H 0.44444 0.19249 0.24941 0.0
H2196 H 0.43853 0.25696 0.23764 0.0
H2197 H 0.46446 0.2751 0.24586 0.0
C2198 C 0.49042 0.31814 0.2836 0.0
C2199 C 0.48344 0.33977 0.28091 0.0
C2200 C 0.49386 0.29946 0.27883 0.0
C2201 C 0.49089 0.30192 0.27121 0.0
C2202 C 0.48345 0.3232 0.26848 0.0
C2203 C 0.47976 0.34193 0.27327 0.0
C2204 C 0.4965 0.28251 0.26613 0.0
C2205 C 0.48141 0.27334 0.26139 0.0
C2206 C 0.51655 0.27233 0.26621 0.0
C2207 C 0.53336 0.2822 0.27074 0.0
C2208 C 0.53943 0.30544 0.26977 0.0
C2209 C 0.55455 0.31516 0.27434 0.0
C2210 C 0.56378 0.30172 0.27985 0.0
C2211 C 0.558 0.27847 0.28078 0.0
C2212 C 0.54288 0.26866 0.27622 0.0
C2213 C 0.51247 0.20947 0.23933 0.0
C2214 C 0.51793 0.18726 0.24195 0.0
C2215 C 0.50944 0.228 0.24419 0.0
C2216 C 0.51153 0.22482 0.25182 0.0
C2217 C 0.51764 0.20294 0.25449 0.0
C2218 C 0.52075 0.18432 0.24961 0.0
C2219 C 0.50592 0.244 0.25696 0.0
C2220 C 0.52099 0.25309 0.26171 0.0
C2221 C 0.48586 0.25407 0.25691 0.0
C2222 C 0.46916 0.244 0.25237 0.0
C2223 C 0.46328 0.22071 0.25338 0.0
C2224 C 0.44875 0.21053 0.24868 0.0
C2225 C 0.43989 0.22358 0.24299 0.0
C2226 C 0.44541 0.24689 0.24205 0.0
C2227 C 0.45997 0.25716 0.24674 0.0
H2228 H 0.4287 0.21562 0.23932 0.0
H2229 H 0.57544 0.30931 0.28341 0.0
H2230 H 0.72593 0.92209 0.27784 0.0
H2231 H 0.71943 0.95518 0.26988 0.0
H2232 H 0.78195 0.97965 0.27363 0.0
H2233 H 0.78808 0.94704 0.282 0.0
H2234 H 0.75987 0.01557 0.27382 0.0
H2235 H 0.76154 0.95363 0.25535 0.0
H2236 H 0.75182 0.91652 0.24945 0.0
H2237 H 0.68754 0.93679 0.24978 0.0
H2238 H 0.69697 0.974 0.25568 0.0
H2239 H 0.76021 0.09822 0.24528 0.0
H2240 H 0.76544 0.06558 0.2535 0.0
H2241 H 0.70206 0.04378 0.24998 0.0
H2242 H 0.69696 0.07622 0.24145 0.0
H2243 H 0.72379 1.00688 0.24977 0.0
H2244 H 0.72178 0.06875 0.26798 0.0
H2245 H 0.73115 0.10654 0.27349 0.0
H2246 H 0.79556 0.08679 0.27351 0.0
H2247 H 0.78648 0.04887 0.26801 0.0
C2248 C 0.73843 0.93432 0.27689 0.0
C2249 C 0.7576 0.93174 0.28051 0.0
C2250 C 0.73474 0.95325 0.27226 0.0
C2251 C 0.75034 0.96979 0.27091 0.0
C2252 C 0.76959 0.9672 0.27451 0.0
C2253 C 0.77313 0.94851 0.2793 0.0
C2254 C 0.74622 0.99035 0.26607 0.0
C2255 C 0.75233 0.01373 0.2685 0.0
C2256 C 0.73562 0.98867 0.25924 0.0
C2257 C 0.7299 0.96625 0.25598 0.0
C2258 C 0.74534 0.95 0.25421 0.0
C2259 C 0.7399 0.92905 0.25085 0.0
C2260 C 0.71907 0.92429 0.24926 0.0
C2261 C 0.70365 0.94049 0.25102 0.0
C2262 C 0.70902 0.9615 0.25435 0.0
C2263 C 0.74721 0.08678 0.24634 0.0
C2264 C 0.72808 0.0901 0.24275 0.0
C2265 C 0.7502 0.06807 0.25112 0.0
C2266 C 0.73401 0.0524 0.25258 0.0
C2267 C 0.71483 0.05562 0.249 0.0
C2268 C 0.71192 0.0742 0.24411 0.0
C2269 C 0.73755 0.03197 0.25751 0.0
C2270 C 0.73132 1.00866 0.2551 0.0
C2271 C 0.748 0.03372 0.26435 0.0
C2272 C 0.7535 0.05628 0.26757 0.0
C2273 C 0.73793 0.07259 0.26914 0.0
C2274 C 0.74318 0.09395 0.27227 0.0
C2275 C 0.76394 0.09906 0.27384 0.0
C2276 C 0.7795 0.08279 0.2723 0.0
C2277 C 0.77431 0.06136 0.2692 0.0
H2278 H 0.76798 0.11566 0.27626 0.0
H2279 H 0.71489 0.90804 0.24664 0.0
H2280 H 0.25262 0.71431 0.03959 0.0
H2281 H 0.25803 0.74646 0.03119 0.0
H2282 H 0.24868 0.70063 0.01265 0.0
H2283 H 0.24306 0.66815 0.02105 0.0
H2284 H 0.28045 0.72594 1.00909 0.0
H2285 H 0.21098 0.74605 0.01737 0.0
H2286 H 0.18265 0.75307 0.02626 0.0
H2287 H 0.21936 0.80543 0.03702 0.0
H2288 H 0.24784 0.79873 0.02816 0.0
H2289 H 0.27446 0.81478 0.98233 0.0
H2290 H 0.26837 0.78278 0.99071 0.0
H2291 H 0.2795 0.82792 1.00928 0.0
H2292 H 0.28629 0.86019 1.00092 0.0
H2293 H 0.24655 0.80298 0.01278 0.0
H2294 H 0.3162 0.78209 1.00435 0.0
H2295 H 0.34459 0.7736 0.99561 0.0
H2296 H 0.30688 0.72173 0.98504 0.0
H2297 H 0.27833 0.72992 0.99375 0.0
C2298 C 0.25116 0.711 0.03374 0.0
C2299 C 0.24731 0.68842 0.03105 0.0
C2300 C 0.2543 0.72957 0.02891 0.0
C2301 C 0.25347 0.72619 0.02125 0.0
C2302 C 0.24943 0.70376 0.01853 0.0
C2303 C 0.2463 0.68512 0.02336 0.0
C2304 C 0.25786 0.74579 0.01611 0.0
C2305 C 0.27272 0.74264 1.00963 0.0
C2306 C 0.24835 0.76785 0.01686 0.0
C2307 C 0.23143 0.77187 0.02216 0.0
C2308 C 0.21296 0.75901 0.02165 0.0
C2309 C 0.1969 0.76296 0.02667 0.0
C2310 C 0.19922 0.77968 0.0322 0.0
C2311 C 0.21759 0.79252 0.03272 0.0
C2312 C 0.23364 0.78873 0.0277 0.0
C2313 C 0.27624 0.81802 0.98817 0.0
C2314 C 0.28107 0.84039 0.99086 0.0
C2315 C 0.27263 0.79952 0.99299 0.0
C2316 C 0.27376 0.80273 1.00065 0.0
C2317 C 0.27853 0.82494 1.00339 0.0
C2318 C 0.2823 0.84349 0.99857 0.0
C2319 C 0.26915 0.78311 1.00577 0.0
C2320 C 0.25424 0.78627 0.01224 0.0
C2321 C 0.27851 0.76098 1.00498 0.0
C2322 C 0.29522 0.75668 0.99963 0.0
C2323 C 0.31397 0.769 1.00012 0.0
C2324 C 0.33009 0.76418 0.9952 0.0
C2325 C 0.32753 0.74714 0.98977 0.0
C2326 C 0.30884 0.7349 0.98925 0.0
C2327 C 0.29273 0.73957 0.99418 0.0
H2328 H 0.34004 0.74341 0.98597 0.0
H2329 H 0.18676 0.78271 0.03609 0.0
H2330 H 0.47835 0.81222 0.78842 0.0
H2331 H 0.48294 0.78021 0.78008 0.0
H2332 H 0.49555 0.82765 0.76229 0.0
H2333 H 0.48838 0.86032 0.77033 0.0
H2334 H 0.47554 0.79176 0.75702 0.0
H2335 H 0.53564 0.79958 0.7723 0.0
H2336 H 0.55201 0.80472 0.78448 0.0
H2337 H 0.52742 0.73897 0.79154 0.0
H2338 H 0.51061 0.73367 0.77943 0.0
H2339 H 0.5245 0.71247 0.73389 0.0
H2340 H 0.52038 0.74406 0.74256 0.0
H2341 H 0.50347 0.69546 0.75959 0.0
H2342 H 0.50936 0.66306 0.75105 0.0
H2343 H 0.526 0.73176 0.76529 0.0
H2344 H 0.46576 0.7245 0.74984 0.0
H2345 H 0.45078 0.71915 0.73744 0.0
H2346 H 0.47676 0.78441 0.73056 0.0
H2347 H 0.49222 0.78989 0.74289 0.0
C2348 C 0.48141 0.81645 0.78273 0.0
C2349 C 0.48309 0.8397 0.78026 0.0
C2350 C 0.48449 0.7977 0.77794 0.0
C2351 C 0.49032 0.80133 0.77058 0.0
C2352 C 0.49136 0.82426 0.76797 0.0
C2353 C 0.48758 0.84313 0.7727 0.0
C2354 C 0.49612 0.78122 0.76574 0.0
C2355 C 0.48674 0.77886 0.75882 0.0
C2356 C 0.51055 0.76401 0.76802 0.0
C2357 C 0.52191 0.76626 0.77502 0.0
C2358 C 0.53384 0.7862 0.77645 0.0
C2359 C 0.54308 0.78919 0.78334 0.0
C2360 C 0.54072 0.7722 0.78878 0.0
C2361 C 0.52923 0.7521 0.78732 0.0
C2362 C 0.51987 0.74907 0.78045 0.0
C2363 C 0.52054 0.70809 0.73951 0.0
C2364 C 0.51732 0.68479 0.74168 0.0
C2365 C 0.51787 0.72644 0.74447 0.0
C2366 C 0.51112 0.72233 0.75171 0.0
C2367 C 0.50853 0.69918 0.75402 0.0
C2368 C 0.51162 0.68062 0.74907 0.0
C2369 C 0.50535 0.74231 0.7566 0.0
C2370 C 0.51477 0.74466 0.76351 0.0
C2371 C 0.49104 0.7596 0.75431 0.0
C2372 C 0.48008 0.75757 0.74722 0.0
C2373 C 0.46812 0.73776 0.74568 0.0
C2374 C 0.45967 0.73464 0.73867 0.0
C2375 C 0.46285 0.75142 0.73322 0.0
C2376 C 0.47432 0.77145 0.73479 0.0
C2377 C 0.48289 0.7746 0.74179 0.0
H2378 H 0.45639 0.74891 0.72777 0.0
H2379 H 0.54784 0.77458 0.79413 0.0
H2380 H 0.27172 0.06838 0.73452 0.0
H2381 H 0.27836 0.03653 0.74305 0.0
H2382 H 0.23297 0.06475 0.75813 0.0
H2383 H 0.22748 0.09782 0.74974 0.0
H2384 H 0.2636 0.04884 0.76569 0.0
H2385 H 0.22196 0.01273 0.74693 0.0
H2386 H 0.21301 1.00507 0.73386 0.0
H2387 H 0.27385 0.97684 0.72991 0.0
H2388 H 0.28302 0.98299 0.74299 0.0
H2389 H 0.25686 0.94701 0.78734 0.0
H2390 H 0.24956 0.9787 0.77888 0.0
H2391 H 0.29409 0.95076 0.76344 0.0
H2392 H 0.30049 0.91792 0.77179 0.0
H2393 H 0.26339 0.96663 0.75607 0.0
H2394 H 0.30482 1.00316 0.77503 0.0
H2395 H 0.31362 0.01229 0.78804 0.0
H2396 H 0.25257 0.04039 0.79163 0.0
H2397 H 0.24354 0.03276 0.77863 0.0
C2398 C 0.2631 0.06769 0.73964 0.0
C2399 C 0.24892 0.08532 0.74145 0.0
C2400 C 0.26676 0.04937 0.7445 0.0
C2401 C 0.25568 0.04766 0.75115 0.0
C2402 C 0.24162 0.06549 0.75301 0.0
C2403 C 0.2384 0.0843 0.74822 0.0
C2404 C 0.25899 0.02733 0.75613 0.0
C2405 C 0.26322 0.03117 0.76359 0.0
C2406 C 0.25896 1.00285 0.75348 0.0
C2407 C 0.25307 0.99756 0.74585 0.0
C2408 C 0.23328 1.00368 0.74326 0.0
C2409 C 0.22822 1.00018 0.73587 0.0
C2410 C 0.24286 0.99056 0.73106 0.0
C2411 C 0.26252 0.98423 0.73365 0.0
C2412 C 0.26762 0.98756 0.74105 0.0
C2413 C 0.26524 0.94768 0.78216 0.0
C2414 C 0.2795 0.93017 0.78028 0.0
C2415 C 0.26116 0.96597 0.77733 0.0
C2416 C 0.2718 0.96777 0.7706 0.0
C2417 C 0.28579 0.94999 0.76862 0.0
C2418 C 0.2895 0.93126 0.7734 0.0
C2419 C 0.26811 0.98812 0.76564 0.0
C2420 C 0.26377 0.98427 0.75819 0.0
C2421 C 0.26796 0.01261 0.76831 0.0
C2422 C 0.27359 0.01809 0.77594 0.0
C2423 C 0.29339 0.01241 0.77861 0.0
C2424 C 0.29838 0.01677 0.78597 0.0
C2425 C 0.28365 0.02682 0.79066 0.0
C2426 C 0.26395 0.03266 0.78799 0.0
C2427 C 0.25893 0.02843 0.78063 0.0
H2428 H 0.28752 0.0301 0.79637 0.0
H2429 H 0.23896 0.98801 0.72532 0.0
H2430 H 0.47917 0.41275 0.50173 0.0
H2431 H 0.48631 0.44512 0.51002 0.0
H2432 H 0.49155 0.49123 0.49138 0.0
H2433 H 0.48653 0.45887 0.48307 0.0
H2434 H 0.52117 0.49979 0.49955 0.0
H2435 H 0.44854 0.48969 0.50493 0.0
H2436 H 0.41556 0.47326 0.50947 0.0
H2437 H 0.44326 0.46074 0.53064 0.0
H2438 H 0.47648 0.47659 0.52619 0.0
H2439 H 0.52051 0.60703 0.52007 0.0
H2440 H 0.51473 0.57437 0.5117 0.0
H2441 H 0.51292 0.5275 0.53024 0.0
H2442 H 0.51713 0.55996 0.53863 0.0
H2443 H 0.48187 0.51944 0.52215 0.0
H2444 H 0.55422 0.53036 0.51682 0.0
H2445 H 0.58682 0.54796 0.5124 0.0
H2446 H 0.55929 0.55967 0.49115 0.0
H2447 H 0.52642 0.54264 0.49549 0.0
C2448 C 0.48204 0.42968 0.49935 0.0
C2449 C 0.48227 0.43283 0.49163 0.0
C2450 C 0.48575 0.44839 0.50415 0.0
C2451 C 0.48929 0.47086 0.50138 0.0
C2452 C 0.48889 0.47415 0.49371 0.0
C2453 C 0.48566 0.45547 0.48892 0.0
C2454 C 0.49498 0.49069 0.50632 0.0
C2455 C 0.51227 0.50428 0.50443 0.0
C2456 C 0.48409 0.49621 0.51287 0.0
C2457 C 0.46502 0.48402 0.5152 0.0
C2458 C 0.44772 0.48293 0.5105 0.0
C2459 C 0.42895 0.47386 0.51307 0.0
C2460 C 0.42732 0.46596 0.52034 0.0
C2461 C 0.44454 0.46682 0.52502 0.0
C2462 C 0.46334 0.47573 0.52246 0.0
C2463 C 0.5188 0.5898 0.52239 0.0
C2464 C 0.51919 0.58638 0.53009 0.0
C2465 C 0.51583 0.57102 0.51756 0.0
C2466 C 0.51351 0.54832 0.52031 0.0
C2467 C 0.51466 0.54479 0.52796 0.0
C2468 C 0.51734 0.5635 0.53277 0.0
C2469 C 0.50798 0.52848 0.51537 0.0
C2470 C 0.49073 0.51491 0.51727 0.0
C2471 C 0.51887 0.52304 0.50882 0.0
C2472 C 0.53781 0.53551 0.50651 0.0
C2473 C 0.55498 0.53715 0.51126 0.0
C2474 C 0.57355 0.5469 0.50875 0.0
C2475 C 0.57512 0.55494 0.5015 0.0
C2476 C 0.55805 0.55349 0.49676 0.0
C2477 C 0.53945 0.54387 0.49925 0.0
H2478 H 0.58958 0.56227 0.49955 0.0
H2479 H 0.4127 0.45918 0.52234 0.0
H2480 H 0.74512 0.70472 0.53803 0.0
H2481 H 0.75162 0.73655 0.52955 0.0
H2482 H 0.7158 0.70156 0.51275 0.0
H2483 H 0.71036 0.66872 0.52117 0.0
H2484 H 0.74703 0.72015 0.50655 0.0
H2485 H 0.69584 0.75366 0.52269 0.0
H2486 H 0.68131 0.76124 0.53505 0.0
H2487 H 0.73748 0.79643 0.54132 0.0
H2488 H 0.75223 0.78911 0.52897 0.0
H2489 H 0.73946 0.81791 0.48357 0.0
H2490 H 0.73247 0.78595 0.49191 0.0
H2491 H 0.76878 0.81953 0.50884 0.0
H2492 H 0.77526 0.85229 0.50052 0.0
H2493 H 0.73668 0.80159 0.5149 0.0
H2494 H 0.78769 0.76743 0.49852 0.0
H2495 H 0.80195 0.75851 0.4862 0.0
H2496 H 0.74515 0.72393 0.48032 0.0
H2497 H 0.73067 0.73262 0.49261 0.0
C2498 C 0.73842 0.7039 0.53255 0.0
C2499 C 0.72698 0.68438 0.5303 0.0
C2500 C 0.74203 0.72224 0.5277 0.0
C2501 C 0.73362 0.72199 0.52055 0.0
C2502 C 0.72232 0.70235 0.51825 0.0
C2503 C 0.71916 0.68362 0.52306 0.0
C2504 C 0.73707 0.74206 0.51549 0.0
C2505 C 0.74442 0.7379 0.50836 0.0
C2506 C 0.73419 0.76538 0.51779 0.0
C2507 C 0.72503 0.77091 0.52498 0.0
C2508 C 0.70497 0.76313 0.52671 0.0
C2509 C 0.69674 0.76734 0.5337 0.0
C2510 C 0.70847 0.7793 0.53896 0.0
C2511 C 0.7284 0.78723 0.53723 0.0
C2512 C 0.73666 0.78319 0.53023 0.0
C2513 C 0.74627 0.81842 0.48902 0.0
C2514 C 0.75823 0.83755 0.49131 0.0
C2515 C 0.7423 0.79998 0.4938 0.0
C2516 C 0.75063 0.7998 0.50096 0.0
C2517 C 0.7623 0.81908 0.50333 0.0
C2518 C 0.76601 0.83782 0.49857 0.0
C2519 C 0.74675 0.77968 0.50596 0.0
C2520 C 0.73928 0.78384 0.51308 0.0
C2521 C 0.74939 0.75635 0.50364 0.0
C2522 C 0.75818 0.75065 0.4964 0.0
C2523 C 0.77833 0.7579 0.49458 0.0
C2524 C 0.78642 0.75288 0.48762 0.0
C2525 C 0.77445 0.74067 0.48248 0.0
C2526 C 0.7544 0.73335 0.48431 0.0
C2527 C 0.74629 0.7382 0.49127 0.0
H2528 H 0.78073 0.73686 0.47708 0.0
H2529 H 0.70211 0.78244 0.54439 0.0
H2530 H 0.72655 0.6087 0.75166 0.0
H2531 H 0.73245 0.57636 0.76006 0.0
H2532 H 0.73031 0.52836 0.7418 0.0
H2533 H 0.72492 0.56043 0.73333 0.0
H2534 H 0.71139 0.51022 0.75288 0.0
H2535 H 0.77629 0.54986 0.74991 0.0
H2536 H 0.79935 0.584 0.75038 0.0
H2537 H 0.79013 0.5892 0.77378 0.0
H2538 H 0.76644 0.55558 0.77341 0.0
H2539 H 0.75897 0.4135 0.77032 0.0
H2540 H 0.75192 0.44598 0.76216 0.0
H2541 H 0.75317 0.49305 0.78065 0.0
H2542 H 0.7591 0.46084 0.78894 0.0
H2543 H 0.77239 0.51193 0.76958 0.0
H2544 H 0.7078 0.47209 0.77255 0.0
H2545 H 0.6836 0.43897 0.77203 0.0
H2546 H 0.69185 0.43452 0.74857 0.0
H2547 H 0.71666 0.46709 0.74899 0.0
C2548 C 0.72751 0.59134 0.74938 0.0
C2549 C 0.72554 0.58748 0.74174 0.0
C2550 C 0.73082 0.57278 0.75422 0.0
C2551 C 0.73236 0.54992 0.75155 0.0
C2552 C 0.72934 0.54584 0.744 0.0
C2553 C 0.72609 0.56435 0.73915 0.0
C2554 C 0.73758 0.53023 0.75656 0.0
C2555 C 0.72491 0.5105 0.75646 0.0
C2556 C 0.75489 0.53067 0.76138 0.0
C2557 C 0.76941 0.55047 0.76161 0.0
C2558 C 0.77904 0.55843 0.75514 0.0
C2559 C 0.79218 0.5777 0.75539 0.0
C2560 C 0.79613 0.58881 0.7621 0.0
C2561 C 0.78699 0.58063 0.76858 0.0
C2562 C 0.77366 0.56152 0.76835 0.0
C2563 C 0.75743 0.43059 0.77275 0.0
C2564 C 0.75941 0.43403 0.78043 0.0
C2565 C 0.75352 0.44928 0.76801 0.0
C2566 C 0.75161 0.47197 0.77079 0.0
C2567 C 0.75449 0.47571 0.77836 0.0
C2568 C 0.75812 0.45704 0.78312 0.0
C2569 C 0.74627 0.49182 0.76587 0.0
C2570 C 0.75891 0.51161 0.76599 0.0
C2571 C 0.72895 0.49141 0.76105 0.0
C2572 C 0.7143 0.47173 0.76083 0.0
C2573 C 0.70467 0.46383 0.7673 0.0
C2574 C 0.69085 0.44517 0.76702 0.0
C2575 C 0.68626 0.43459 0.76027 0.0
C2576 C 0.69549 0.44266 0.75379 0.0
C2577 C 0.70948 0.46115 0.75406 0.0
H2578 H 0.67549 0.42018 0.76006 0.0
H2579 H 0.80635 0.60373 0.76228 0.0
H2580 H 0.27799 0.19836 0.53532 0.0
H2581 H 0.28407 0.23063 0.52682 0.0
H2582 H 0.22722 0.21411 0.51533 0.0
H2583 H 0.22167 0.18099 0.52372 0.0
H2584 H 0.25703 0.22573 0.50569 0.0
H2585 H 0.22842 0.26282 0.52699 0.0
H2586 H 0.226 0.26703 0.54049 0.0
H2587 H 0.29027 0.28696 0.54142 0.0
H2588 H 0.293 0.28277 0.52791 0.0
H2589 H 0.25212 0.33018 0.48595 0.0
H2590 H 0.2448 0.29851 0.49449 0.0
H2591 H 0.29886 0.317 0.5073 0.0
H2592 H 0.30527 0.35001 0.49897 0.0
H2593 H 0.26995 0.30411 0.51629 0.0
H2594 H 0.29837 0.26671 0.49481 0.0
H2595 H 0.30062 0.26101 0.48136 0.0
H2596 H 0.23637 0.24087 0.48076 0.0
H2597 H 0.23382 0.24651 0.49422 0.0
C2598 C 0.26683 0.2017 0.53098 0.0
C2599 C 0.24932 0.18747 0.53017 0.0
C2600 C 0.27022 0.22017 0.52614 0.0
C2601 C 0.25589 0.22519 0.52051 0.0
C2602 C 0.23846 0.21069 0.51964 0.0
C2603 C 0.23522 0.19191 0.52444 0.0
C2604 C 0.2591 0.24582 0.51566 0.0
C2605 C 0.25954 0.24289 0.50802 0.0
C2606 C 0.2628 0.26824 0.51859 0.0
C2607 C 0.26088 0.27259 0.52652 0.0
C2608 C 0.24195 0.26828 0.5301 0.0
C2609 C 0.24055 0.27058 0.53773 0.0
C2610 C 0.25797 0.27726 0.54181 0.0
C2611 C 0.27679 0.28184 0.53825 0.0
C2612 C 0.27826 0.27963 0.5306 0.0
C2613 C 0.26242 0.32745 0.49059 0.0
C2614 C 0.27937 0.34228 0.49177 0.0
C2615 C 0.25835 0.30921 0.49545 0.0
C2616 C 0.27165 0.30471 0.50144 0.0
C2617 C 0.28843 0.31989 0.5027 0.0
C2618 C 0.29216 0.33866 0.49793 0.0
C2619 C 0.268 0.28407 0.50628 0.0
C2620 C 0.26746 0.28699 0.51393 0.0
C2621 C 0.26418 0.26162 0.50335 0.0
C2622 C 0.26593 0.25699 0.49543 0.0
C2623 C 0.2848 0.26095 0.49179 0.0
C2624 C 0.28611 0.25779 0.48418 0.0
C2625 C 0.26864 0.25059 0.48021 0.0
C2626 C 0.24987 0.2464 0.48385 0.0
C2627 C 0.24851 0.24946 0.49146 0.0
H2628 H 0.26966 0.24824 0.4743 0.0
H2629 H 0.2569 0.2789 0.54774 0.0
H2630 H 0.277 0.45788 0.28933 0.0
H2631 H 0.27168 0.49017 0.28101 0.0
H2632 H 0.27906 0.44447 0.26235 0.0
H2633 H 0.28631 0.41205 0.27066 0.0
H2634 H 0.2965 0.48621 0.25957 0.0
H2635 H 0.23 0.46066 0.26795 0.0
H2636 H 0.20614 0.44787 0.27777 0.0
H2637 H 0.21161 0.5145 0.28834 0.0
H2638 H 0.23571 0.52755 0.27861 0.0
H2639 H 0.24926 0.5584 0.23367 0.0
H2640 H 0.25377 0.52627 0.24217 0.0
H2641 H 0.25227 0.57386 0.26053 0.0
H2642 H 0.24669 0.60646 0.25199 0.0
H2643 H 0.23135 0.53109 0.2634 0.0
H2644 H 0.2983 0.55617 0.25493 0.0
H2645 H 0.32087 0.56911 0.24476 0.0
H2646 H 0.3137 0.50281 0.23412 0.0
H2647 H 0.2908 0.48964 0.2442 0.0
C2648 C 0.27815 0.45452 0.28348 0.0
C2649 C 0.28215 0.43198 0.28075 0.0
C2650 C 0.27472 0.47313 0.2787 0.0
C2651 C 0.27447 0.46974 0.27104 0.0
C2652 C 0.27899 0.44752 0.26824 0.0
C2653 C 0.28285 0.42887 0.27304 0.0
C2654 C 0.26862 0.48925 0.26604 0.0
C2655 C 0.28214 0.49576 0.26037 0.0
C2656 C 0.25005 0.50212 0.26707 0.0
C2657 C 0.23459 0.49501 0.2726 0.0
C2658 C 0.22602 0.47257 0.27237 0.0
C2659 C 0.21254 0.46526 0.27792 0.0
C2660 C 0.2074 0.48035 0.28368 0.0
C2661 C 0.21561 0.50284 0.28387 0.0
C2662 C 0.22913 0.51023 0.27833 0.0
C2663 C 0.24937 0.56219 0.23951 0.0
C2664 C 0.24755 0.58522 0.24211 0.0
C2665 C 0.25214 0.54369 0.24438 0.0
C2666 C 0.25361 0.54762 0.25199 0.0
C2667 C 0.25121 0.57041 0.25467 0.0
C2668 C 0.24829 0.58907 0.24978 0.0
C2669 C 0.2593 0.52807 0.25699 0.0
C2670 C 0.24572 0.52152 0.26263 0.0
C2671 C 0.27776 0.5151 0.25592 0.0
C2672 C 0.29293 0.52199 0.25027 0.0
C2673 C 0.30168 0.54434 0.25043 0.0
C2674 C 0.31441 0.55174 0.24468 0.0
C2675 C 0.31868 0.5368 0.23879 0.0
C2676 C 0.31038 0.51434 0.23869 0.0
C2677 C 0.29757 0.50688 0.24442 0.0
H2678 H 0.32847 0.54261 0.23431 0.0
H2679 H 0.19701 0.47463 0.288 0.0
H2680 H 0.9803 0.91318 0.50084 0.0
H2681 H 0.98364 0.94619 0.50924 0.0
H2682 H 0.00472 0.98918 0.49123 0.0
H2683 H 0.00281 0.95615 0.48294 0.0
H2684 H 0.02847 0.99631 0.50203 0.0
H2685 H 0.95396 0.99195 0.49987 0.0
H2686 H 0.91783 0.97825 0.50097 0.0
H2687 H 0.9258 0.96925 0.5243 0.0
H2688 H 0.96212 0.98229 0.52331 0.0
H2689 H 0.01755 0.10873 0.52104 0.0
H2690 H 0.01608 0.07578 0.51236 0.0
H2691 H 1.00027 0.02982 0.5303 0.0
H2692 H 1.00132 0.06231 0.53886 0.0
H2693 H 0.97414 0.02452 0.51947 0.0
H2694 H 0.04821 0.02917 0.52173 0.0
H2695 H 0.0843 0.04305 0.52078 0.0
H2696 H 0.07726 0.05143 0.4974 0.0
H2697 H 0.04096 0.03823 0.49822 0.0
C2698 C 0.98571 0.9296 0.49865 0.0
C2699 C 0.99105 0.93179 0.49114 0.0
C2700 C 0.98732 0.94863 0.50347 0.0
C2701 C 0.99405 0.9704 0.50089 0.0
C2702 C 0.99911 0.97266 0.49339 0.0
C2703 C 0.99774 0.95368 0.4886 0.0
C2704 C 0.99709 0.99058 0.50598 0.0
C2705 C 0.01645 1.00244 0.50575 0.0
C2706 C 0.98184 0.99814 0.51107 0.0
C2707 C 0.96085 0.98778 0.51149 0.0
C2708 C 0.94817 0.98653 0.5052 0.0
C2709 C 0.92761 0.97901 0.50582 0.0
C2710 C 0.91954 0.97287 0.51269 0.0
C2711 C 0.93208 0.97396 0.51897 0.0
C2712 C 0.95267 0.9813 0.51838 0.0
C2713 C 0.01385 0.09158 0.52311 0.0
C2714 C 0.00974 0.08822 0.53066 0.0
C2715 C 0.01325 0.0727 0.51816 0.0
C2716 C 0.00837 0.05021 0.52067 0.0
C2717 C 0.00447 0.04692 0.52821 0.0
C2718 C 0.00517 0.06559 0.53312 0.0
C2719 C 0.00543 0.03029 0.51549 0.0
C2720 C 0.9861 0.01844 0.51572 0.0
C2721 C 0.02072 0.02276 0.51041 0.0
C2722 C 0.04172 0.03311 0.51006 0.0
C2723 C 0.05417 0.03454 0.51641 0.0
C2724 C 0.07472 0.04213 0.51589 0.0
C2725 C 0.08305 0.04817 0.50904 0.0
C2726 C 0.07078 0.04683 0.5027 0.0
C2727 C 0.05019 0.03939 0.5032 0.0
H2728 H 0.09903 0.05384 0.50864 0.0
H2729 H 0.90354 0.9673 0.51316 0.0
H2730 H 0.01587 0.21218 0.73322 0.0
H2731 H 0.01469 0.24406 0.74193 0.0
H2732 H 1.00029 0.19611 0.75948 0.0
H2733 H 0.00235 0.16366 0.75079 0.0
H2734 H 0.97483 0.23089 0.76008 0.0
H2735 H 0.04951 0.22709 0.75884 0.0
H2736 H 0.08452 0.22632 0.75332 0.0
H2737 H 0.07198 0.29075 0.74219 0.0
H2738 H 0.0369 0.29185 0.74765 0.0
H2739 H 0.98666 0.31391 0.78883 0.0
H2740 H 0.98862 0.28137 0.78047 0.0
H2741 H 0.99959 0.32788 0.76231 0.0
H2742 H 0.99607 0.36099 0.77044 0.0
H2743 H 0.02758 0.29361 0.76225 0.0
H2744 H 0.95292 0.29712 0.76334 0.0
H2745 H 0.91767 0.29764 0.76867 0.0
H2746 H 0.93027 0.2336 0.78001 0.0
H2747 H 0.96561 0.23279 0.77475 0.0
C2748 C 0.0131 0.20807 0.73895 0.0
C2749 C 0.00936 0.18498 0.74124 0.0
C2750 C 0.0124 0.22655 0.74396 0.0
C2751 C 0.00786 0.22261 0.75142 0.0
C2752 C 0.0042 0.19966 0.75376 0.0
C2753 C 0.00505 0.18107 0.74875 0.0
C2754 C 0.00531 0.24259 0.7566 0.0
C2755 C 0.98654 0.24432 0.76066 0.0
C2756 C 0.02011 0.26071 0.7572 0.0
C2757 C 0.0406 0.25941 0.75358 0.0
C2758 C 0.05416 0.24093 0.75514 0.0
C2759 C 0.07404 0.24051 0.75206 0.0
C2760 C 0.08045 0.25846 0.7474 0.0
C2761 C 0.06699 0.27685 0.7458 0.0
C2762 C 0.04714 0.2774 0.74889 0.0
C2763 C 0.98882 0.31776 0.78306 0.0
C2764 C 0.99124 0.34082 0.78049 0.0
C2765 C 0.99011 0.29877 0.77825 0.0
C2766 C 0.9942 0.30209 0.77074 0.0
C2767 C 0.99652 0.32484 0.7681 0.0
C2768 C 0.99474 0.34391 0.77286 0.0
C2769 C 0.99714 0.2818 0.76573 0.0
C2770 C 0.01595 0.28007 0.76169 0.0
C2771 C 0.9824 0.26368 0.76515 0.0
C2772 C 0.96188 0.26504 0.76874 0.0
C2773 C 0.94824 0.28335 0.76706 0.0
C2774 C 0.92822 0.28362 0.77003 0.0
C2775 C 0.92175 0.26569 0.77468 0.0
C2776 C 0.93531 0.24749 0.77641 0.0
C2777 C 0.95531 0.24711 0.77344 0.0
H2778 H 0.9062 0.26587 0.77695 0.0
H2779 H 0.09588 0.25812 0.74503 0.0
H2780 H 0.9784 0.8579 0.27185 0.0
H2781 H 0.98177 0.82507 0.26332 0.0
H2782 H 0.0068 0.78284 0.28091 0.0
H2783 H 0.00464 0.81562 0.28928 0.0
H2784 H 0.02955 0.77758 0.26961 0.0
H2785 H 0.95569 0.77774 0.27344 0.0
H2786 H 0.91882 0.78926 0.27322 0.0
H2787 H 0.9216 0.79772 0.24972 0.0
H2788 H 0.95862 0.78693 0.24982 0.0
H2789 H 0.02137 0.66618 0.25119 0.0
H2790 H 0.01934 0.69921 0.25974 0.0
H2791 H 0.99819 0.74326 0.24198 0.0
H2792 H 0.99954 0.71048 0.23352 0.0
H2793 H 0.97369 0.74731 0.25337 0.0
H2794 H 0.04743 0.74645 0.24956 0.0
H2795 H 0.08397 0.73375 0.24976 0.0
H2796 H 0.0812 0.72589 0.27328 0.0
H2797 H 0.04446 0.73785 0.2732 0.0
C2798 C 0.98464 0.84166 0.2739 0.0
C2799 C 0.99096 0.83953 0.28131 0.0
C2800 C 0.9863 0.82277 0.26903 0.0
C2801 C 0.99417 0.8013 0.27147 0.0
C2802 C 1.00029 0.79913 0.27887 0.0
C2803 C 0.9988 0.81795 0.2837 0.0
C2804 C 0.99732 0.78139 0.26632 0.0
C2805 C 0.01726 0.77074 0.26615 0.0
C2806 C 0.98157 0.77288 0.26159 0.0
C2807 C 0.96004 0.78187 0.26166 0.0
C2808 C 0.94859 0.78261 0.26825 0.0
C2809 C 0.92762 0.78888 0.26814 0.0
C2810 C 0.91789 0.79425 0.26147 0.0
C2811 C 0.92916 0.79362 0.25489 0.0
C2812 C 0.95016 0.78754 0.25498 0.0
C2813 C 0.0164 0.68293 0.24911 0.0
C2814 C 0.01084 0.68564 0.24165 0.0
C2815 C 0.01547 0.70185 0.25399 0.0
C2816 C 0.00892 0.7238 0.25149 0.0
C2817 C 0.00369 0.72655 0.24404 0.0
C2818 C 0.00463 0.70776 0.23918 0.0
C2819 C 0.00587 0.74359 0.25667 0.0
C2820 C 0.98596 0.75419 0.25685 0.0
C2821 C 0.02161 0.752 0.26141 0.0
C2822 C 0.04306 0.74269 0.26135 0.0
C2823 C 0.05444 0.74148 0.25476 0.0
C2824 C 0.07524 0.73454 0.25485 0.0
C2825 C 0.08489 0.72897 0.26153 0.0
C2826 C 0.0737 0.73014 0.26811 0.0
C2827 C 0.05287 0.7369 0.26804 0.0
H2828 H 0.10106 0.72381 0.2616 0.0
H2829 H 0.90159 0.79886 0.26139 0.0
H2830 H 0.03801 0.57268 0.03401 0.0
H2831 H 0.036 0.5395 0.0256 0.0
H2832 H 0.97938 0.56754 0.01623 0.0
H2833 H 0.98043 0.59961 0.02489 0.0
H2834 H 0.97321 0.52566 0.01907 0.0
H2835 H 0.02889 0.56493 1.00586 0.0
H2836 H 0.06306 0.58258 1.0034 0.0
H2837 H 0.09332 0.5189 1.00957 0.0
H2838 H 0.05934 0.50098 0.0131 0.0
H2839 H 0.96376 0.44739 0.98754 0.0
H2840 H 0.96674 0.48065 0.99589 0.0
H2841 H 0.02267 0.45099 1.00526 0.0
H2842 H 0.02043 0.41847 0.99673 0.0
H2843 H 0.0296 0.49341 1.0025 0.0
H2844 H 0.97364 0.45454 0.01581 0.0
H2845 H 0.93939 0.43754 0.01859 0.0
H2846 H 0.90954 0.50128 0.01224 0.0
H2847 H 0.94358 0.51853 1.00838 0.0
C2848 C 0.02514 0.57177 0.03018 0.0
C2849 C 0.00953 0.58901 0.03017 0.0
C2850 C 0.0242 0.55291 0.02528 0.0
C2851 C 0.00777 0.55101 0.02021 0.0
C2852 C 0.99225 0.56852 0.02007 0.0
C2853 C 0.99301 0.58711 0.025 0.0
C2854 C 0.00512 0.52996 0.01549 0.0
C2855 C 0.98541 0.51892 0.01553 0.0
C2856 C 0.02118 0.5204 1.01017 0.0
C2857 C 0.04161 0.53177 1.00931 0.0
C2858 C 0.04285 0.55485 1.00683 0.0
C2859 C 0.06218 0.56485 1.00537 0.0
C2860 C 0.08035 0.55189 1.00635 0.0
C2861 C 0.07924 0.52894 1.00883 0.0
C2862 C 0.05996 0.51887 1.01032 0.0
C2863 C 0.97666 0.44794 0.99137 0.0
C2864 C 0.99169 0.43009 0.99144 0.0
C2865 C 0.97818 0.46688 0.99622 0.0
C2866 C 0.99468 0.46833 1.00128 0.0
C2867 C 0.00976 0.45034 1.00143 0.0
C2868 C 0.00833 0.43154 0.99658 0.0
C2869 C 0.99761 0.48925 1.00604 0.0
C2870 C 0.01739 0.50021 1.00602 0.0
C2871 C 0.98157 0.49883 1.01042 0.0
C2872 C 0.9611 0.48764 0.01223 0.0
C2873 C 0.95973 0.46473 0.01485 0.0
C2874 C 0.94037 0.45512 0.0165 0.0
C2875 C 0.92231 0.4683 0.01558 0.0
C2876 C 0.92354 0.49106 0.01293 0.0
C2877 C 0.94284 0.50073 1.01032 0.0
H2878 H 0.90735 0.46088 0.01693 0.0
H2879 H 0.09529 0.55963 1.00516 0.0
H2880 H 0.32524 0.46002 0.04543 0.0
H2881 H 0.34972 0.42807 0.04503 0.0
H2882 H 0.34062 0.41598 0.06822 0.0
H2883 H 0.31482 0.4467 0.06866 0.0
H2884 H 0.38115 0.42151 0.06489 0.0
H2885 H 0.32489 0.37518 0.05552 0.0
H2886 H 0.29685 0.3618 0.04728 0.0
H2887 H 0.33889 0.36274 0.0289 0.0
H2888 H 0.36709 0.37635 0.03702 0.0
H2889 H 0.43658 0.31571 0.0697 0.0
H2890 H 0.41179 0.34744 0.06906 0.0
H2891 H 0.42388 0.35522 0.04584 0.0
H2892 H 0.44997 0.32488 0.04646 0.0
H2893 H 0.3826 0.35252 0.0485 0.0
H2894 H 0.43838 0.39866 0.05724 0.0
H2895 H 0.4673 0.41246 0.06501 0.0
H2896 H 0.42715 0.41305 0.08393 0.0
H2897 H 0.39808 0.39907 0.07627 0.0
C2898 C 0.32766 0.45031 0.05045 0.0
C2899 C 0.31779 0.4567 0.05713 0.0
C2900 C 0.34196 0.43192 0.05018 0.0
C2901 C 0.34715 0.4196 0.05659 0.0
C2902 C 0.33701 0.42534 0.0632 0.0
C2903 C 0.32235 0.44333 0.06345 0.0
C2904 C 0.36449 0.40236 0.0566 0.0
C2905 C 0.38122 0.4062 0.06139 0.0
C2906 C 0.36527 0.38297 0.0518 0.0
C2907 C 0.34795 0.37702 0.04684 0.0
C2908 C 0.32802 0.37294 0.04969 0.0
C2909 C 0.31215 0.36517 0.04506 0.0
C2910 C 0.31609 0.36145 0.03757 0.0
C2911 C 0.33585 0.36566 0.03469 0.0
C2912 C 0.35176 0.37342 0.0393 0.0
C2913 C 0.43464 0.32441 0.06447 0.0
C2914 C 0.44543 0.31696 0.05812 0.0
C2915 C 0.42019 0.34262 0.06411 0.0
C2916 C 0.4158 0.35367 0.05739 0.0
C2917 C 0.42678 0.3468 0.05108 0.0
C2918 C 0.44163 0.32903 0.05146 0.0
C2919 C 0.39899 0.37148 0.05689 0.0
C2920 C 0.38247 0.36783 0.052 0.0
C2921 C 0.39846 0.39122 0.06152 0.0
C2922 C 0.4162 0.39764 0.06622 0.0
C2923 C 0.43585 0.40138 0.06308 0.0
C2924 C 0.45221 0.40936 0.06745 0.0
C2925 C 0.44906 0.41362 0.07496 0.0
C2926 C 0.42957 0.40973 0.07812 0.0
C2927 C 0.41317 0.40178 0.07377 0.0
H2928 H 0.46172 0.41994 0.07833 0.0
H2929 H 0.30381 0.35526 0.034 0.0
H2930 H 0.90066 0.79661 0.06603 0.0
H2931 H 0.87487 0.82767 0.06525 0.0
H2932 H 0.91388 0.86487 0.04999 0.0
H2933 H 0.94002 0.8339 0.05081 0.0
H2934 H 0.89512 0.89393 0.06104 0.0
H2935 H 0.87476 0.84041 0.04262 0.0
H2936 H 0.86889 0.80074 0.03792 0.0
H2937 H 0.82097 0.79036 0.05407 0.0
H2938 H 0.82683 0.82993 0.05893 0.0
H2939 H 0.81748 0.9713 0.04876 0.0
H2940 H 0.84253 0.93946 0.04826 0.0
H2941 H 0.80707 0.90163 0.06443 0.0
H2942 H 0.78164 0.93356 0.06492 0.0
H2943 H 0.82434 0.87312 0.0523 0.0
H2944 H 0.84626 0.92784 0.07074 0.0
H2945 H 0.85218 0.96825 0.07475 0.0
H2946 H 0.89789 0.97691 0.05771 0.0
H2947 H 0.89186 0.93662 0.05352 0.0
C2948 C 0.90398 0.81154 0.0626 0.0
C2949 C 0.92252 0.81269 0.05851 0.0
C2950 C 0.88911 0.82923 0.06211 0.0
C2951 C 0.89235 0.84856 0.05754 0.0
C2952 C 0.91102 0.85013 0.05357 0.0
C2953 C 0.92589 0.8323 0.054 0.0
C2954 C 0.8758 0.86659 0.05677 0.0
C2955 C 0.87977 0.88938 0.05903 0.0
C2956 C 0.85564 0.86093 0.05423 0.0
C2957 C 0.85129 0.83785 0.05115 0.0
C2958 C 0.86299 0.8296 0.04516 0.0
C2959 C 0.85971 0.80717 0.04248 0.0
C2960 C 0.8446 0.79303 0.04571 0.0
C2961 C 0.83267 0.80135 0.05159 0.0
C2962 C 0.83593 0.82377 0.0543 0.0
C2963 C 0.81475 0.95607 0.05213 0.0
C2964 C 0.79756 0.95506 0.05692 0.0
C2965 C 0.82916 0.93788 0.05185 0.0
C2966 C 0.82677 0.91819 0.05633 0.0
C2967 C 0.80922 0.91665 0.06091 0.0
C2968 C 0.79482 0.935 0.06125 0.0
C2969 C 0.8436 0.90035 0.05666 0.0
C2970 C 0.83969 0.87764 0.05431 0.0
C2971 C 0.86389 0.90613 0.05904 0.0
C2972 C 0.86857 0.9295 0.06182 0.0
C2973 C 0.85757 0.93843 0.06787 0.0
C2974 C 0.86088 0.96127 0.07015 0.0
C2975 C 0.87537 0.97514 0.06648 0.0
C2976 C 0.88667 0.96613 0.06054 0.0
C2977 C 0.88333 0.94331 0.05821 0.0
H2978 H 0.87788 0.99289 0.06824 0.0
H2979 H 0.84211 0.77559 0.04364 0.0
H2980 H 0.42778 0.96582 0.20455 0.0
H2981 H 0.40261 0.93436 0.20518 0.0
H2982 H 0.43128 0.90903 0.22508 0.0
H2983 H 0.45731 0.93993 0.22433 0.0
H2984 H 0.41862 0.87275 0.21582 0.0
H2985 H 0.38828 0.93857 0.22701 0.0
H2986 H 0.38139 0.9807 0.22749 0.0
H2987 H 0.34528 0.97585 0.20762 0.0
H2988 H 0.35235 0.9337 0.20695 0.0
H2989 H 0.33416 0.80241 0.22606 0.0
H2990 H 0.35873 0.83447 0.22646 0.0
H2991 H 0.3335 0.86164 0.20622 0.0
H2992 H 0.30807 0.82981 0.2059 0.0
H2993 H 0.34457 0.89723 0.21638 0.0
H2994 H 0.37659 0.8298 0.20553 0.0
H2995 H 0.38378 0.78771 0.20579 0.0
H2996 H 0.41724 0.79583 0.22614 0.0
H2997 H 0.40979 0.83795 0.22606 0.0
C2998 C 0.42919 0.95335 0.20898 0.0
C2999 C 0.44473 0.95574 0.21439 0.0
C3000 C 0.41455 0.93541 0.20937 0.0
C3001 C 0.41478 0.91944 0.21523 0.0
C3002 C 0.43066 0.92116 0.22052 0.0
C3003 C 0.44543 0.93909 0.22011 0.0
C3004 C 0.39773 0.90189 0.21597 0.0
C3005 C 0.40249 0.87819 0.21604 0.0
C3006 C 0.37657 0.9086 0.21624 0.0
C3007 C 0.37087 0.93322 0.21691 0.0
C3008 C 0.37883 0.94655 0.22276 0.0
C3009 C 0.37497 0.97039 0.22305 0.0
C3010 C 0.36294 0.98094 0.21758 0.0
C3011 C 0.3546 0.96762 0.21184 0.0
C3012 C 0.35849 0.94377 0.21151 0.0
C3013 C 0.33339 0.81538 0.22174 0.0
C3014 C 0.31901 0.81325 0.21591 0.0
C3015 C 0.34767 0.83373 0.22197 0.0
C3016 C 0.34828 0.8504 0.21632 0.0
C3017 C 0.33346 0.84897 0.21063 0.0
C3018 C 0.31906 0.83056 0.21041 0.0
C3019 C 0.36544 0.86804 0.2161 0.0
C3020 C 0.36069 0.89179 0.21616 0.0
C3021 C 0.38664 0.86137 0.21606 0.0
C3022 C 0.39258 0.83676 0.21581 0.0
C3023 C 0.38552 0.82254 0.21004 0.0
C3024 C 0.38954 0.79873 0.21018 0.0
C3025 C 0.40091 0.78911 0.21599 0.0
C3026 C 0.40842 0.80333 0.22165 0.0
C3027 C 0.40432 0.82715 0.22156 0.0
H3028 H 0.40394 0.7706 0.2161 0.0
H3029 H 0.36004 0.99947 0.21779 0.0
H3030 H 0.89683 0.48053 0.20997 0.0
H3031 H 0.87085 0.44953 0.21083 0.0
H3032 H 0.91694 0.40342 0.22 0.0
H3033 H 0.94296 0.43471 0.21929 0.0
H3034 H 0.89165 0.38253 0.2087 0.0
H3035 H 0.883 0.4209 0.23161 0.0
H3036 H 0.8802 0.45566 0.23951 0.0
H3037 H 0.82457 0.47617 0.22813 0.0
H3038 H 0.82722 0.44158 0.22011 0.0
H3039 H 0.82175 0.29654 0.22138 0.0
H3040 H 0.84709 0.32822 0.22186 0.0
H3041 H 0.80351 0.37371 0.211 0.0
H3042 H 0.7781 0.3417 0.21039 0.0
H3043 H 0.82777 0.39458 0.22361 0.0
H3044 H 0.83767 0.35554 0.20049 0.0
H3045 H 0.84057 0.31961 0.19315 0.0
H3046 H 0.89467 0.29957 0.2055 0.0
H3047 H 0.89181 0.33528 0.213 0.0
C3048 C 0.90146 0.46372 0.21212 0.0
C3049 C 0.92195 0.45998 0.21451 0.0
C3050 C 0.88658 0.44606 0.21265 0.0
C3051 C 0.89188 0.42412 0.21549 0.0
C3052 C 0.91246 0.42017 0.21777 0.0
C3053 C 0.92729 0.43804 0.21738 0.0
C3054 C 0.87572 0.4056 0.21612 0.0
C3055 C 0.87787 0.38512 0.21205 0.0
C3056 C 0.8575 0.40878 0.22037 0.0
C3057 C 0.85537 0.42894 0.22527 0.0
C3058 C 0.87021 0.4329 0.2308 0.0
C3059 C 0.86866 0.45252 0.23528 0.0
C3060 C 0.85224 0.46813 0.23431 0.0
C3061 C 0.83727 0.46406 0.22887 0.0
C3062 C 0.83876 0.44445 0.22436 0.0
C3063 C 0.81751 0.31335 0.21914 0.0
C3064 C 0.79802 0.31663 0.2158 0.0
C3065 C 0.83198 0.33145 0.21943 0.0
C3066 C 0.82724 0.35337 0.21647 0.0
C3067 C 0.80749 0.35698 0.21335 0.0
C3068 C 0.79308 0.33867 0.21294 0.0
C3069 C 0.84364 0.37169 0.21612 0.0
C3070 C 0.84155 0.39206 0.22026 0.0
C3071 C 0.862 0.36837 0.21198 0.0
C3072 C 0.86449 0.3478 0.20728 0.0
C3073 C 0.85016 0.34341 0.20163 0.0
C3074 C 0.85176 0.32311 0.19746 0.0
C3075 C 0.86778 0.30731 0.19887 0.0
C3076 C 0.88229 0.31184 0.20443 0.0
C3077 C 0.8807 0.33209 0.20863 0.0
H3078 H 0.86897 0.29153 0.19564 0.0
H3079 H 0.85108 0.48339 0.23778 0.0
H3080 H 0.66998 0.55238 0.95514 0.0
H3081 H 0.64265 0.58141 0.95583 0.0
H3082 H 0.6738 0.61433 0.97414 0.0
H3083 H 0.70092 0.58446 0.97365 0.0
H3084 H 0.63537 0.61574 0.97695 0.0
H3085 H 0.67168 0.63945 0.95521 0.0
H3086 H 0.68835 0.63386 0.94309 0.0
H3087 H 0.63091 0.60805 0.93421 0.0
H3088 H 0.61399 0.61345 0.94629 0.0
H3089 H 0.5756 0.71956 0.97418 0.0
H3090 H 0.60207 0.68952 0.9745 0.0
H3091 H 0.57004 0.65197 0.95734 0.0
H3092 H 0.5432 0.68211 0.95701 0.0
H3093 H 0.60927 0.65369 0.9542 0.0
H3094 H 0.57301 0.63123 0.97622 0.0
H3095 H 0.55699 0.63767 0.98841 0.0
H3096 H 0.61514 0.66294 0.99683 0.0
H3097 H 0.63143 0.65674 0.98468 0.0
C3098 C 0.67129 0.566 0.95924 0.0
C3099 C 0.68788 0.56612 0.96427 0.0
C3100 C 0.65557 0.58278 0.95962 0.0
C3101 C 0.65621 0.60069 0.96491 0.0
C3102 C 0.67281 0.60087 0.96997 0.0
C3103 C 0.6884 0.58377 0.96967 0.0
C3104 C 0.63933 0.61878 0.96521 0.0
C3105 C 0.62997 0.62425 0.97197 0.0
C3106 C 0.63166 0.62985 0.95879 0.0
C3107 C 0.64169 0.62676 0.95159 0.0
C3108 C 0.66268 0.63254 0.95066 0.0
C3109 C 0.67214 0.62943 0.94381 0.0
C3110 C 0.66069 0.6206 0.93789 0.0
C3111 C 0.63974 0.61491 0.9388 0.0
C3112 C 0.6302 0.61805 0.94563 0.0
C3113 C 0.57378 0.7047 0.97057 0.0
C3114 C 0.55703 0.7034 0.96558 0.0
C3115 C 0.58907 0.68741 0.97077 0.0
C3116 C 0.58807 0.66814 0.96602 0.0
C3117 C 0.57127 0.66662 0.96107 0.0
C3118 C 0.55593 0.68397 0.96086 0.0
C3119 C 0.60518 0.65044 0.96591 0.0
C3120 C 0.61466 0.64514 0.95918 0.0
C3121 C 0.61305 0.63977 0.97237 0.0
C3122 C 0.60333 0.64364 0.97959 0.0
C3123 C 0.5823 0.63826 0.98068 0.0
C3124 C 0.5732 0.64183 0.98757 0.0
C3125 C 0.58504 0.65071 0.99339 0.0
C3126 C 0.60601 0.65605 0.99232 0.0
C3127 C 0.61518 0.65247 0.98545 0.0
H3128 H 0.57797 0.65345 0.99873 0.0
H3129 H 0.66805 0.61819 0.93258 0.0
H3130 H 0.22025 0.0887 0.95505 0.0
H3131 H 0.19295 0.11802 0.95533 0.0
H3132 H 0.17052 0.09013 0.9759 0.0
H3133 H 0.19625 0.05954 0.97531 0.0
H3134 H 0.13944 0.09707 0.9684 0.0
H3135 H 0.19703 0.14658 0.97345 0.0
H3136 H 0.23039 0.16712 0.97202 0.0
H3137 H 0.2103 0.19429 0.95115 0.0
H3138 H 0.17697 0.17362 0.9524 0.0
H3139 H 0.06795 0.19134 0.97482 0.0
H3140 H 0.09577 0.16257 0.97544 0.0
H3141 H 0.11678 0.1833 0.95386 0.0
H3142 H 0.08994 0.21304 0.95338 0.0
H3143 H 0.14853 0.18046 0.96246 0.0
H3144 H 0.09008 0.13004 0.95798 0.0
H3145 H 0.05678 0.11003 0.96013 0.0
H3146 H 0.07903 0.08527 0.98103 0.0
H3147 H 0.1123 0.10551 0.97906 0.0
C3148 C 0.20944 0.08854 0.95962 0.0
C3149 C 0.21069 0.07125 0.96511 0.0
C3150 C 0.19394 0.10576 0.95984 0.0
C3151 C 0.17949 0.10663 0.96567 0.0
C3152 C 0.18125 0.08998 0.9713 0.0
C3153 C 0.19639 0.07252 0.971 0.0
C3154 C 0.16171 0.12364 0.96569 0.0
C3155 C 0.14162 0.11541 0.96723 0.0
C3156 C 0.16405 0.14755 0.964 0.0
C3157 C 0.18463 0.15841 0.96299 0.0
C3158 C 0.19987 0.15664 0.96851 0.0
C3159 C 0.21873 0.16839 0.96774 0.0
C3160 C 0.22245 0.182 0.9615 0.0
C3161 C 0.2074 0.18374 0.95598 0.0
C3162 C 0.18855 0.17199 0.95671 0.0
C3163 C 0.07852 0.18998 0.9702 0.0
C3164 C 0.07656 0.20491 0.96405 0.0
C3165 C 0.09434 0.17316 0.97053 0.0
C3166 C 0.1085 0.17053 0.96468 0.0
C3167 C 0.10618 0.18491 0.95847 0.0
C3168 C 0.09053 0.20183 0.95816 0.0
C3169 C 0.12638 0.15381 0.96511 0.0
C3170 C 0.14646 0.16212 0.96366 0.0
C3171 C 0.12407 0.13006 0.967 0.0
C3172 C 0.10356 0.11947 0.9684 0.0
C3173 C 0.08773 0.12066 0.96309 0.0
C3174 C 0.0689 0.10919 0.96426 0.0
C3175 C 0.0658 0.09639 0.97071 0.0
C3176 C 0.08144 0.09521 0.97604 0.0
C3177 C 0.10026 0.10671 0.9749 0.0
H3178 H 0.05126 0.08736 0.97158 0.0
H3179 H 0.23701 0.19123 0.96095 0.0
H3180 H 0.6614 0.23014 0.80446 0.0
H3181 H 0.63465 0.19996 0.80406 0.0
H3182 H 0.6814 0.14736 0.80755 0.0
H3183 H 0.70836 0.17785 0.80806 0.0
H3184 H 0.65049 0.13543 0.79644 0.0
H3185 H 0.65261 0.15957 0.82169 0.0
H3186 H 0.6538 0.18957 0.83139 0.0
H3187 H 0.59524 0.21685 0.82397 0.0
H3188 H 0.59391 0.18715 0.81415 0.0
H3189 H 0.5828 0.04357 0.80509 0.0
H3190 H 0.60988 0.0731 0.80487 0.0
H3191 H 0.56352 0.12668 0.80773 0.0
H3192 H 0.53641 0.09658 0.80848 0.0
H3193 H 0.59455 0.13877 0.81525 0.0
H3194 H 0.59137 0.11544 0.79012 0.0
H3195 H 0.58983 0.08675 0.78002 0.0
H3196 H 0.64923 0.05943 0.78653 0.0
H3197 H 0.651 0.0879 0.79669 0.0
C3198 C 0.66599 0.21213 0.80514 0.0
C3199 C 0.68692 0.20635 0.80636 0.0
C3200 C 0.65068 0.19488 0.80491 0.0
C3201 C 0.6559 0.17133 0.80582 0.0
C3202 C 0.67694 0.16539 0.80684 0.0
C3203 C 0.6923 0.18279 0.80719 0.0
C3204 C 0.63911 0.15331 0.80601 0.0
C3205 C 0.63845 0.13596 0.80062 0.0
C3206 C 0.62288 0.15422 0.81125 0.0
C3207 C 0.62321 0.17138 0.81723 0.0
C3208 C 0.64003 0.17204 0.82214 0.0
C3209 C 0.64074 0.18896 0.82764 0.0
C3210 C 0.62461 0.20511 0.82829 0.0
C3211 C 0.60771 0.20432 0.82346 0.0
C3212 C 0.60695 0.18745 0.81793 0.0
C3213 C 0.5784 0.06167 0.80568 0.0
C3214 C 0.55752 0.06778 0.8068 0.0
C3215 C 0.5939 0.07867 0.80545 0.0
C3216 C 0.58894 0.10244 0.80605 0.0
C3217 C 0.56795 0.10858 0.80721 0.0
C3218 C 0.55242 0.0914 0.80764 0.0
C3219 C 0.60578 0.12057 0.80568 0.0
C3220 C 0.60647 0.1381 0.81104 0.0
C3221 C 0.62189 0.11997 0.80033 0.0
C3222 C 0.62127 0.10358 0.79413 0.0
C3223 C 0.60408 0.10329 0.78938 0.0
C3224 C 0.60316 0.08709 0.78366 0.0
C3225 C 0.61941 0.07127 0.78265 0.0
C3226 C 0.63667 0.07171 0.78732 0.0
C3227 C 0.63768 0.0879 0.79304 0.0
H3228 H 0.61864 0.05866 0.77822 0.0
H3229 H 0.6252 0.21826 0.83256 0.0
H3230 H 0.23015 0.67578 0.80283 0.0
H3231 H 0.20298 0.64566 0.80245 0.0
H3232 H 0.15744 0.69694 0.80895 0.0
H3233 H 0.18469 0.72642 0.80963 0.0
H3234 H 0.15037 0.6614 0.81633 0.0
H3235 H 0.16529 0.67193 0.79063 0.0
H3236 H 0.18558 0.67136 0.77912 0.0
H3237 H 0.19671 0.59817 0.78177 0.0
H3238 H 0.17706 0.59847 0.79342 0.0
H3239 H 0.05907 0.59306 0.81108 0.0
H3240 H 0.08577 0.62333 0.81032 0.0
H3241 H 0.12948 0.57261 0.80203 0.0
H3242 H 0.10247 0.54309 0.80228 0.0
H3243 H 0.13786 0.60781 0.79543 0.0
H3244 H 0.12439 0.59731 0.82131 0.0
H3245 H 0.10357 0.59744 0.83272 0.0
H3246 H 0.09042 0.67012 0.82979 0.0
H3247 H 0.11059 0.67021 0.81824 0.0
C3248 C 0.21432 0.6804 0.80422 0.0
C3249 C 0.20948 0.70325 0.80639 0.0
C3250 C 0.19872 0.66328 0.80393 0.0
C3251 C 0.1779 0.66886 0.80562 0.0
C3252 C 0.17326 0.69192 0.80767 0.0
C3253 C 0.18883 0.70883 0.80807 0.0
C3254 C 0.16089 0.65093 0.80559 0.0
C3255 C 0.14757 0.64991 0.81169 0.0
C3256 C 0.15733 0.63518 0.79971 0.0
C3257 C 0.16998 0.63531 0.79294 0.0
C3258 C 0.17237 0.65581 0.78883 0.0
C3259 C 0.18372 0.65552 0.78227 0.0
C3260 C 0.19247 0.63475 0.77973 0.0
C3261 C 0.18999 0.61425 0.78376 0.0
C3262 C 0.17883 0.6145 0.79035 0.0
C3263 C 0.0744 0.58847 0.8091 0.0
C3264 C 0.07864 0.56564 0.80677 0.0
C3265 C 0.08981 0.60577 0.80871 0.0
C3266 C 0.11012 0.60043 0.80628 0.0
C3267 C 0.11414 0.57755 0.80391 0.0
C3268 C 0.09863 0.56052 0.80409 0.0
C3269 C 0.12733 0.61825 0.80619 0.0
C3270 C 0.1407 0.61924 0.80008 0.0
C3271 C 0.13109 0.63391 0.81208 0.0
C3272 C 0.11873 0.63368 0.8189 0.0
C3273 C 0.11685 0.61323 0.82307 0.0
C3274 C 0.10516 0.61327 0.82954 0.0
C3275 C 0.09565 0.63377 0.83196 0.0
C3276 C 0.09774 0.65425 0.82789 0.0
C3277 C 0.10921 0.65424 0.82137 0.0
H3278 H 0.08669 0.63378 0.83701 0.0
H3279 H 0.20113 0.63453 0.77462 0.0
H3280 H 0.46517 0.83992 0.55355 0.0
H3281 H 0.43929 0.87138 0.55279 0.0
H3282 H 0.39299 0.82556 0.56195 0.0
H3283 H 0.41878 0.7944 0.56276 0.0
H3284 H 0.37777 0.84743 0.5504 0.0
H3285 H 0.41721 0.86921 0.57165 0.0
H3286 H 0.44665 0.88222 0.57927 0.0
H3287 H 0.45275 0.94362 0.56599 0.0
H3288 H 0.42385 0.93056 0.55811 0.0
H3289 H 0.29924 0.93222 0.56115 0.0
H3290 H 0.32487 0.90038 0.5605 0.0
H3291 H 0.36873 0.94694 0.55028 0.0
H3292 H 0.3432 0.9784 0.55082 0.0
H3293 H 0.38557 0.92515 0.56184 0.0
H3294 H 0.34636 0.90473 0.54079 0.0
H3295 H 0.31783 0.89209 0.53269 0.0
H3296 H 0.31172 0.82891 0.5451 0.0
H3297 H 0.33972 0.84153 0.55344 0.0
C3298 C 0.44948 0.83673 0.55545 0.0
C3299 C 0.444 0.81482 0.55829 0.0
C3300 C 0.43472 0.85471 0.55503 0.0
C3301 C 0.41411 0.85097 0.55735 0.0
C3302 C 0.40872 0.82898 0.56014 0.0
C3303 C 0.4235 0.8112 0.56065 0.0
C3304 C 0.39785 0.8695 0.55676 0.0
C3305 C 0.37936 0.86433 0.55301 0.0
C3306 C 0.40014 0.89192 0.55988 0.0
C3307 C 0.41859 0.8987 0.56422 0.0
C3308 C 0.42514 0.8852 0.57024 0.0
C3309 C 0.44168 0.89264 0.57463 0.0
C3310 C 0.45158 0.91371 0.57311 0.0
C3311 C 0.44512 0.92727 0.56715 0.0
C3312 C 0.42874 0.91979 0.5627 0.0
C3313 C 0.31434 0.93551 0.55874 0.0
C3314 C 0.31932 0.95779 0.55609 0.0
C3315 C 0.32891 0.9173 0.55831 0.0
C3316 C 0.34881 0.92122 0.55534 0.0
C3317 C 0.35355 0.94343 0.5526 0.0
C3318 C 0.33895 0.96141 0.55291 0.0
C3319 C 0.36536 0.90298 0.55557 0.0
C3320 C 0.38394 0.90824 0.55924 0.0
C3321 C 0.36317 0.88071 0.55234 0.0
C3322 C 0.34492 0.87428 0.54782 0.0
C3323 C 0.33858 0.88844 0.54192 0.0
C3324 C 0.32258 0.8812 0.53726 0.0
C3325 C 0.31295 0.85973 0.53839 0.0
C3326 C 0.31914 0.84557 0.54424 0.0
C3327 C 0.33501 0.85281 0.54896 0.0
H3328 H 0.3007 0.85405 0.53472 0.0
H3329 H 0.46425 0.91956 0.57656 0.0
H3330 H 0.82286 0.47519 0.5633 0.0
H3331 H 0.84852 0.44385 0.56249 0.0
H3332 H 0.80381 0.4005 0.55134 0.0
H3333 H 0.77806 0.43215 0.55203 0.0
H3334 H 0.82715 0.37714 0.56289 0.0
H3335 H 0.83934 0.4186 0.54087 0.0
H3336 H 0.84298 0.45461 0.53363 0.0
H3337 H 0.89668 0.47355 0.54636 0.0
H3338 H 0.89314 0.4377 0.55374 0.0
H3339 H 0.89933 0.29291 0.55025 0.0
H3340 H 0.87386 0.32451 0.54994 0.0
H3341 H 0.91579 0.36832 0.56219 0.0
H3342 H 0.94138 0.33635 0.56263 0.0
H3343 H 0.89337 0.39113 0.54954 0.0
H3344 H 0.87954 0.34856 0.57176 0.0
H3345 H 0.87539 0.31148 0.57839 0.0
H3346 H 0.82353 0.29382 0.56455 0.0
H3347 H 0.82768 0.33071 0.55776 0.0
C3348 C 0.81842 0.4589 0.56074 0.0
C3349 C 0.7984 0.45606 0.55779 0.0
C3350 C 0.83313 0.44105 0.56024 0.0
C3351 C 0.82815 0.41981 0.55685 0.0
C3352 C 0.80802 0.41671 0.554 0.0
C3353 C 0.79336 0.4348 0.55437 0.0
C3354 C 0.84428 0.40122 0.5562 0.0
C3355 C 0.84145 0.38016 0.55988 0.0
C3356 C 0.86313 0.40493 0.55238 0.0
C3357 C 0.86594 0.42575 0.54784 0.0
C3358 C 0.85189 0.43051 0.54211 0.0
C3359 C 0.85392 0.45085 0.538 0.0
C3360 C 0.87003 0.46637 0.53955 0.0
C3361 C 0.88422 0.4615 0.54518 0.0
C3362 C 0.88224 0.44118 0.54932 0.0
C3363 C 0.90318 0.3093 0.55286 0.0
C3364 C 0.92229 0.31206 0.55653 0.0
C3365 C 0.88862 0.32738 0.55266 0.0
C3366 C 0.89284 0.34884 0.55604 0.0
C3367 C 0.91218 0.35196 0.55953 0.0
C3368 C 0.92669 0.33363 0.55984 0.0
C3369 C 0.87636 0.36719 0.55633 0.0
C3370 C 0.87908 0.38816 0.55256 0.0
C3371 C 0.85729 0.36333 0.56 0.0
C3372 C 0.85396 0.34208 0.56427 0.0
C3373 C 0.86727 0.3367 0.57015 0.0
C3374 C 0.86496 0.31576 0.57391 0.0
C3375 C 0.84923 0.30029 0.57188 0.0
C3376 C 0.8357 0.30582 0.56611 0.0
C3377 C 0.838 0.32673 0.5623 0.0
H3378 H 0.84749 0.284 0.5748 0.0
H3379 H 0.87155 0.48219 0.53637 0.0
H3380 H 0.44361 0.45355 0.72726 0.0
H3381 H 0.41873 0.42279 0.72735 0.0
H3382 H 0.41883 0.42096 0.70364 0.0
H3383 H 0.44366 0.45212 0.70329 0.0
H3384 H 0.38104 0.42212 0.70803 0.0
H3385 H 0.4392 0.3744 0.71536 0.0
H3386 H 0.46847 0.35954 0.72277 0.0
H3387 H 0.42942 0.35742 0.74196 0.0
H3388 H 0.40003 0.37247 0.73467 0.0
H3389 H 0.32524 0.31647 0.70271 0.0
H3390 H 0.34984 0.34823 0.70326 0.0
H3391 H 0.34214 0.35253 0.72679 0.0
H3392 H 0.31614 0.3223 0.72634 0.0
H3393 H 0.3829 0.35041 0.72314 0.0
H3394 H 0.3255 0.3975 0.71648 0.0
H3395 H 0.29526 0.41257 0.70962 0.0
H3396 H 0.33201 0.41663 0.6899 0.0
H3397 H 0.36239 0.40139 0.69663 0.0
C3398 C 0.4389 0.44707 0.72195 0.0
C3399 C 0.44613 0.45684 0.71523 0.0
C3400 C 0.42444 0.42883 0.72208 0.0
C3401 C 0.41668 0.41932 0.71552 0.0
C3402 C 0.42434 0.42806 0.70882 0.0
C3403 C 0.43879 0.44632 0.70867 0.0
C3404 C 0.39939 0.40181 0.71557 0.0
C3405 C 0.38177 0.40622 0.71124 0.0
C3406 C 0.39948 0.38154 0.72001 0.0
C3407 C 0.41756 0.37476 0.7245 0.0
C3408 C 0.437 0.37114 0.72119 0.0
C3409 C 0.45355 0.36255 0.72536 0.0
C3410 C 0.4508 0.35754 0.73283 0.0
C3411 C 0.43154 0.36132 0.73617 0.0
C3412 C 0.41495 0.3699 0.73203 0.0
C3413 C 0.32806 0.32431 0.70803 0.0
C3414 C 0.31848 0.31577 0.7145 0.0
C3415 C 0.34245 0.34261 0.70832 0.0
C3416 C 0.34809 0.35272 0.71508 0.0
C3417 C 0.33831 0.34484 0.72151 0.0
C3418 C 0.32349 0.32703 0.72121 0.0
C3419 C 0.36497 0.37055 0.71546 0.0
C3420 C 0.38235 0.36628 0.71991 0.0
C3421 C 0.36462 0.39107 0.7112 0.0
C3422 C 0.34606 0.39813 0.70702 0.0
C3423 C 0.32699 0.40125 0.71065 0.0
C3424 C 0.30989 0.40995 0.7068 0.0
C3425 C 0.31172 0.41555 0.69933 0.0
C3426 C 0.33062 0.41228 0.69568 0.0
C3427 C 0.34776 0.4036 0.69951 0.0
H3428 H 0.29849 0.42245 0.69637 0.0
H3429 H 0.46361 0.35072 0.73604 0.0
H3430 H 0.94002 0.93812 0.70815 0.0
H3431 H 0.91508 0.90594 0.7087 0.0
H3432 H 0.87496 0.94748 0.72252 0.0
H3433 H 0.90049 0.97871 0.7224 0.0
H3434 H 0.87128 0.90785 0.72716 0.0
H3435 H 0.87105 0.93607 0.70216 0.0
H3436 H 0.88609 0.94471 0.68998 0.0
H3437 H 0.90147 0.87255 0.68706 0.0
H3438 H 0.88723 0.86366 0.69934 0.0
H3439 H 0.77958 0.83781 0.72179 0.0
H3440 H 0.80508 0.86937 0.72235 0.0
H3441 H 0.8467 0.82913 0.70869 0.0
H3442 H 0.82087 0.79846 0.70779 0.0
H3443 H 0.84907 0.86867 0.70417 0.0
H3444 H 0.8482 0.84006 0.72913 0.0
H3445 H 0.83318 0.83168 0.74134 0.0
H3446 H 0.81943 0.90418 0.74438 0.0
H3447 H 0.83362 0.91286 0.73208 0.0
C3448 C 0.92585 0.9403 0.7113 0.0
C3449 C 0.92218 0.96106 0.71518 0.0
C3450 C 0.91146 0.92191 0.71158 0.0
C3451 C 0.8926 0.92421 0.7155 0.0
C3452 C 0.8892 0.94494 0.71945 0.0
C3453 C 0.90382 0.96296 0.71934 0.0
C3454 C 0.87619 0.90549 0.71546 0.0
C3455 C 0.86633 0.89949 0.72209 0.0
C3456 C 0.86971 0.89387 0.70896 0.0
C3457 C 0.87839 0.89931 0.70167 0.0
C3458 C 0.87786 0.92213 0.69895 0.0
C3459 C 0.88627 0.92706 0.69204 0.0
C3460 C 0.89479 0.9092 0.68776 0.0
C3461 C 0.89495 0.88637 0.69039 0.0
C3462 C 0.88682 0.8814 0.69734 0.0
C3463 C 0.79418 0.8358 0.71889 0.0
C3464 C 0.79807 0.81569 0.71467 0.0
C3465 C 0.8089 0.85381 0.71927 0.0
C3466 C 0.8282 0.85177 0.71565 0.0
C3467 C 0.83202 0.8315 0.7115 0.0
C3468 C 0.81716 0.81386 0.71097 0.0
C3469 C 0.84435 0.87068 0.71587 0.0
C3470 C 0.85407 0.87687 0.70925 0.0
C3471 C 0.85063 0.88241 0.72239 0.0
C3472 C 0.84168 0.87702 0.72966 0.0
C3473 C 0.8417 0.85415 0.73236 0.0
C3474 C 0.83332 0.84936 0.73929 0.0
C3475 C 0.82531 0.86738 0.74362 0.0
C3476 C 0.82557 0.89023 0.74101 0.0
C3477 C 0.83367 0.89507 0.73405 0.0
H3478 H 0.81895 0.86364 0.74901 0.0
H3479 H 0.9012 0.91306 0.68239 0.0
H3480 H 0.56987 0.21526 0.47593 0.0
H3481 H 0.59559 0.1847 0.47657 0.0
H3482 H 0.57466 0.15762 0.4557 0.0
H3483 H 0.54719 0.1869 0.45533 0.0
H3484 H 0.58604 0.12282 0.46401 0.0
H3485 H 0.61878 0.19506 0.45777 0.0
H3486 H 0.62528 0.23674 0.45995 0.0
H3487 H 0.65274 0.22082 0.48095 0.0
H3488 H 0.64594 0.17907 0.47895 0.0
H3489 H 0.67537 0.0607 0.45407 0.0
H3490 H 0.64889 0.09083 0.45453 0.0
H3491 H 0.66954 0.11099 0.4762 0.0
H3492 H 0.697 0.08162 0.47566 0.0
H3493 H 0.65862 0.14907 0.46809 0.0
H3494 H 0.62689 0.07783 0.47455 0.0
H3495 H 0.62016 0.03598 0.47286 0.0
H3496 H 0.59092 0.04986 0.45202 0.0
H3497 H 0.59789 0.09178 0.45353 0.0
C3498 C 0.57009 0.20256 0.47153 0.0
C3499 C 0.55617 0.20406 0.46552 0.0
C3500 C 0.58528 0.18517 0.47186 0.0
C3501 C 0.58772 0.16917 0.46607 0.0
C3502 C 0.57342 0.16991 0.4602 0.0
C3503 C 0.55781 0.18701 0.45995 0.0
C3504 C 0.60564 0.1524 0.466 0.0
C3505 C 0.60188 0.12874 0.4648 0.0
C3506 C 0.62645 0.15955 0.46725 0.0
C3507 C 0.63175 0.18417 0.46824 0.0
C3508 C 0.62622 0.20052 0.46285 0.0
C3509 C 0.62987 0.2241 0.46406 0.0
C3510 C 0.63936 0.23141 0.47059 0.0
C3511 C 0.64536 0.21512 0.4759 0.0
C3512 C 0.64161 0.19151 0.47473 0.0
C3513 C 0.67477 0.07179 0.45889 0.0
C3514 C 0.68849 0.06836 0.46484 0.0
C3515 C 0.65932 0.08893 0.45917 0.0
C3516 C 0.65685 0.10299 0.46545 0.0
C3517 C 0.67095 0.1003 0.47131 0.0
C3518 C 0.68656 0.08323 0.47101 0.0
C3519 C 0.63898 0.11966 0.46598 0.0
C3520 C 0.64276 0.14322 0.46729 0.0
C3521 C 0.61818 0.11244 0.46488 0.0
C3522 C 0.61302 0.0877 0.46412 0.0
C3523 C 0.61906 0.07188 0.4696 0.0
C3524 C 0.61526 0.0482 0.46867 0.0
C3525 C 0.60518 0.04027 0.46233 0.0
C3526 C 0.59876 0.05604 0.45693 0.0
C3527 C 0.60261 0.07975 0.45781 0.0
H3528 H 0.60229 0.02188 0.46161 0.0
H3529 H 0.64213 0.24973 0.47154 0.0
H3530 H 0.10268 0.72844 0.47001 0.0
H3531 H 0.1296 0.69854 0.47045 0.0
H3532 H 0.08672 0.64852 0.46142 0.0
H3533 H 0.0595 0.67867 0.46095 0.0
H3534 H 0.1123 0.63075 0.47334 0.0
H3535 H 0.12109 0.66902 0.45017 0.0
H3536 H 0.12351 0.70426 0.4425 0.0
H3537 H 0.17766 0.72597 0.45453 0.0
H3538 H 0.17528 0.69099 0.46236 0.0
H3539 H 0.18403 0.5448 0.46248 0.0
H3540 H 0.15692 0.57462 0.46293 0.0
H3541 H 0.20312 0.62659 0.46799 0.0
H3542 H 0.23042 0.5965 0.46736 0.0
H3543 H 0.17606 0.64415 0.45854 0.0
H3544 H 0.16854 0.60711 0.48159 0.0
H3545 H 0.16622 0.57346 0.48996 0.0
H3546 H 0.11059 0.55083 0.479 0.0
H3547 H 0.11275 0.58428 0.47052 0.0
C3548 C 0.09886 0.71104 0.46817 0.0
C3549 C 0.07892 0.70599 0.46542 0.0
C3550 C 0.11433 0.69395 0.4684 0.0
C3551 C 0.11032 0.67125 0.46593 0.0
C3552 C 0.09024 0.6659 0.46336 0.0
C3553 C 0.07474 0.68317 0.46303 0.0
C3554 C 0.1275 0.65365 0.46573 0.0
C3555 C 0.12606 0.63353 0.47001 0.0
C3556 C 0.14591 0.65739 0.46165 0.0
C3557 C 0.14795 0.67767 0.45683 0.0
C3558 C 0.13347 0.68139 0.45117 0.0
C3559 C 0.1348 0.70128 0.44682 0.0
C3560 C 0.15071 0.71735 0.44804 0.0
C3561 C 0.16536 0.7135 0.4536 0.0
C3562 C 0.16404 0.69366 0.45799 0.0
C3563 C 0.18836 0.56263 0.46365 0.0
C3564 C 0.20926 0.56844 0.46483 0.0
C3565 C 0.17285 0.57968 0.46398 0.0
C3566 C 0.17776 0.60296 0.46562 0.0
C3567 C 0.1988 0.60882 0.46673 0.0
C3568 C 0.2144 0.59168 0.46638 0.0
C3569 C 0.16084 0.62094 0.46608 0.0
C3570 C 0.16234 0.64125 0.46188 0.0
C3571 C 0.14258 0.61748 0.47031 0.0
C3572 C 0.14088 0.59791 0.47544 0.0
C3573 C 0.15587 0.59488 0.48097 0.0
C3574 C 0.15459 0.57589 0.48572 0.0
C3575 C 0.1383 0.56 0.48499 0.0
C3576 C 0.12319 0.56315 0.47954 0.0
C3577 C 0.12441 0.58212 0.47478 0.0
H3578 H 0.13735 0.54524 0.48867 0.0
H3579 H 0.1517 0.73281 0.44466 0.0
H3580 H 0.66125 0.73 0.3059 0.0
H3581 H 0.63445 0.69986 0.30546 0.0
H3582 H 0.68163 0.64685 0.30714 0.0
H3583 H 0.70863 0.67729 0.30768 0.0
H3584 H 0.64958 0.63648 0.29651 0.0
H3585 H 0.65434 0.65681 0.32204 0.0
H3586 H 0.6565 0.6852 0.3322 0.0
H3587 H 0.59719 0.71346 0.32599 0.0
H3588 H 0.59487 0.68535 0.31573 0.0
H3589 H 0.58278 0.54333 0.30464 0.0
H3590 H 0.60982 0.57286 0.3045 0.0
H3591 H 0.5639 0.62591 0.30884 0.0
H3592 H 0.53687 0.59573 0.30951 0.0
H3593 H 0.59566 0.63688 0.31608 0.0
H3594 H 0.58995 0.61723 0.29065 0.0
H3595 H 0.58742 0.58996 0.28019 0.0
H3596 H 0.6474 0.56185 0.28559 0.0
H3597 H 0.65017 0.5889 0.29611 0.0
C3598 C 0.66589 0.71191 0.30619 0.0
C3599 C 0.68696 0.70596 0.30691 0.0
C3600 C 0.65057 0.69468 0.30593 0.0
C3601 C 0.65592 0.67102 0.30632 0.0
C3602 C 0.67708 0.66496 0.30684 0.0
C3603 C 0.69247 0.68231 0.30721 0.0
C3604 C 0.63918 0.65293 0.30647 0.0
C3605 C 0.63799 0.63636 0.30085 0.0
C3606 C 0.62352 0.65299 0.31194 0.0
C3607 C 0.62448 0.66921 0.31816 0.0
C3608 C 0.64181 0.66914 0.32285 0.0
C3609 C 0.64307 0.68515 0.32861 0.0
C3610 C 0.627 0.70113 0.32973 0.0
C3611 C 0.60961 0.70107 0.32511 0.0
C3612 C 0.60829 0.6851 0.31933 0.0
C3613 C 0.57845 0.56132 0.30555 0.0
C3614 C 0.55771 0.56723 0.30707 0.0
C3615 C 0.59393 0.57834 0.30538 0.0
C3616 C 0.58908 0.60198 0.30642 0.0
C3617 C 0.56824 0.60792 0.30797 0.0
C3618 C 0.55275 0.59069 0.30835 0.0
C3619 C 0.60588 0.62016 0.3061 0.0
C3620 C 0.60712 0.63687 0.3117 0.0
C3621 C 0.62143 0.62038 0.30054 0.0
C3622 C 0.62021 0.60488 0.29413 0.0
C3623 C 0.60257 0.60521 0.28958 0.0
C3624 C 0.60109 0.58981 0.28366 0.0
C3625 C 0.61723 0.57417 0.28224 0.0
C3626 C 0.63493 0.57399 0.2867 0.0
C3627 C 0.6365 0.58938 0.29262 0.0
H3628 H 0.61602 0.56217 0.27766 0.0
H3629 H 0.62801 0.71358 0.33419 0.0
H3630 H 0.07282 0.07651 0.29593 0.0
H3631 H 0.10045 0.10525 0.29541 0.0
H3632 H 0.11403 0.09339 0.31836 0.0
H3633 H 0.08703 0.06391 0.31891 0.0
H3634 H 0.11576 0.13808 0.31558 0.0
H3635 H 0.1432 0.07009 0.30376 0.0
H3636 H 0.14306 0.03881 0.29447 0.0
H3637 H 0.14659 0.08951 0.27713 0.0
H3638 H 0.1461 0.12112 0.28632 0.0
H3639 H 0.21135 0.19402 0.31857 0.0
H3640 H 0.18561 0.16395 0.31811 0.0
H3641 H 0.17806 0.17442 0.29478 0.0
H3642 H 0.20518 0.20297 0.29488 0.0
H3643 H 0.17254 0.13122 0.29722 0.0
H3644 H 0.14455 0.19895 0.30853 0.0
H3645 H 0.14457 0.23111 0.31751 0.0
H3646 H 0.14111 0.18205 0.33533 0.0
H3647 H 0.14166 0.14959 0.32644 0.0
C3648 C 0.08177 0.07958 0.30088 0.0
C3649 C 0.0776 0.06719 0.30745 0.0
C3650 C 0.09763 0.09628 0.30057 0.0
C3651 C 0.10978 0.10128 0.3068 0.0
C3652 C 0.10504 0.08984 0.31344 0.0
C3653 C 0.08933 0.07297 0.31375 0.0
C3654 C 0.12751 0.11821 0.30646 0.0
C3655 C 0.12826 0.13631 0.31161 0.0
C3656 C 0.14366 0.11671 0.30117 0.0
C3657 C 0.14433 0.09786 0.29569 0.0
C3658 C 0.14375 0.07454 0.29796 0.0
C3659 C 0.14376 0.05678 0.29272 0.0
C3660 C 0.14473 0.06218 0.28522 0.0
C3661 C 0.14576 0.08537 0.28294 0.0
C3662 C 0.14556 0.1032 0.28816 0.0
C3663 C 0.20483 0.19017 0.31324 0.0
C3664 C 0.21076 0.20242 0.30681 0.0
C3665 C 0.1896 0.17276 0.31303 0.0
C3666 C 0.1791 0.16733 0.30646 0.0
C3667 C 0.18554 0.17842 0.29998 0.0
C3668 C 0.20117 0.19541 0.30012 0.0
C3669 C 0.16094 0.15087 0.30642 0.0
C3670 C 0.16004 0.13298 0.30119 0.0
C3671 C 0.14447 0.15266 0.31158 0.0
C3672 C 0.14333 0.17198 0.31686 0.0
C3673 C 0.14387 0.19508 0.31437 0.0
C3674 C 0.14385 0.21332 0.31943 0.0
C3675 C 0.1429 0.20861 0.32698 0.0
C3676 C 0.14189 0.18564 0.32948 0.0
C3677 C 0.14209 0.16733 0.32443 0.0
H3678 H 0.14289 0.22279 0.33091 0.0
H3679 H 0.14477 0.04837 0.28116 0.0
loop_
_geom_bond_atom_site_label_1
_geom_bond_atom_site_label_2
_geom_bond_distance
_geom_bond_site_symmetry_2
_ccdc_geom_bond_type
C0 C1 1.264 . S
C0 C5 1.479 . S
C0 C10 1.465 . S
C1 C0 1.264 . S
C1 C3 1.339 . S
C1 H28 0.931 . S
C2 C3 1.395 . S
C2 C4 1.320 . S
C3 C1 1.339 . S
C3 C2 1.395 . S
C3 H29 0.929 . S
C4 C2 1.320 . S
C4 C5 1.405 . S
C4 H30 0.930 . S
C5 C0 1.479 . S
C5 C4 1.405 . S
C5 H31 0.931 . S
U6 O7 2.454 . S
U6 O8 2.458 . S
U6 C9 2.984 . S
U6 C10 2.847 . S
U6 C23 2.882 . S
U6 O24 2.441 . S
U6 O25 2.420 . S
U6 O26 2.455 . S
U6 O27 2.449 . S
O7 U6 2.454 . S
O7 C9 1.353 . S
O8 U6 2.458 . S
O8 C9 1.286 . S
C9 U6 2.984 . S
C9 O7 1.353 . S
C9 O8 1.286 . S
C9 C11 1.363 . S
C10 C0 1.465 . S
C10 U6 2.847 . S
C10 O24 1.249 . S
C10 O25 1.202 . S
C11 C9 1.363 . S
C11 C13 1.408 . S
C11 C16 1.342 . S
C12 C13 1.310 . S
C12 C15 1.461 . S
C12 H32 0.932 . S
C13 C11 1.408 . S
C13 C12 1.310 . S
C13 H33 0.930 . S
C14 C15 1.474 . S
C14 C16 1.285 . S
C14 H34 0.929 . S
C15 C12 1.461 . S
C15 C14 1.474 . S
C16 C11 1.342 . S
C16 C14 1.285 . S
C16 H35 0.930 . S
C17 C20 1.424 . S
C17 C22 1.245 . S
C17 C23 1.428 . S
C18 C21 1.260 . S
C18 C22 1.477 . S
C18 H36 0.932 . S
C19 C20 1.384 . S
C19 C21 1.479 . S
C19 H37 0.929 . S
C20 C17 1.424 . S
C20 C19 1.384 . S
C20 H38 0.928 . S
C21 C18 1.260 . S
C21 C19 1.479 . S
C22 C17 1.245 . S
C22 C18 1.477 . S
C22 H39 0.932 . S
C23 U6 2.882 . S
C23 C17 1.428 . S
C23 O26 1.301 . S
C23 O27 1.282 . S
O24 U6 2.441 . S
O24 C10 1.249 . S
O25 U6 2.420 . S
O25 C10 1.202 . S
O26 U6 2.455 . S
O26 C23 1.301 . S
O27 U6 2.449 . S
O27 C23 1.282 . S
H28 C1 0.931 . S
H29 C3 0.929 . S
H30 C4 0.930 . S
H31 C5 0.931 . S
H32 C12 0.932 . S
H33 C13 0.930 . S
H34 C14 0.929 . S
H35 C16 0.930 . S
H36 C18 0.932 . S
H37 C19 0.929 . S
H38 C20 0.928 . S
H39 C22 0.932 . S
C40 C41 1.264 . S
C40 C45 1.479 . S
C40 C50 1.465 1_565 S
C41 C40 1.264 . S
C41 C43 1.339 . S
C41 H68 0.931 . S
C42 C43 1.395 . S
C42 C44 1.320 . S
C43 C41 1.339 . S
C43 C42 1.395 . S
C43 H69 0.929 . S
C44 C42 1.320 . S
C44 C45 1.405 . S
C44 H70 0.930 . S
C45 C40 1.479 . S
C45 C44 1.405 . S
C45 H71 0.925 1_565 S
U46 O47 2.454 . S
U46 O48 2.458 . S
U46 C49 2.984 . S
U46 C50 2.847 . S
U46 C63 2.882 . S
U46 O64 2.441 . S
U46 O65 2.420 . S
U46 O66 2.455 . S
U46 O67 2.449 . S
O47 U46 2.454 . S
O47 C49 1.353 . S
O48 U46 2.458 . S
O48 C49 1.286 . S
C49 U46 2.984 . S
C49 O47 1.353 . S
C49 O48 1.286 . S
C49 C51 1.363 . S
C50 C40 1.465 1_545 S
C50 U46 2.847 . S
C50 O64 1.249 . S
C50 O65 1.202 . S
C51 C49 1.363 . S
C51 C53 1.408 . S
C51 C56 1.342 . S
C52 C53 1.310 . S
C52 C55 1.461 . S
C52 H72 0.932 . S
C53 C51 1.408 . S
C53 C52 1.310 . S
C53 H73 0.930 . S
C54 C55 1.474 . S
C54 C56 1.285 . S
C54 H74 0.929 . S
C55 C52 1.461 . S
C55 C54 1.474 . S
C56 C51 1.342 . S
C56 C54 1.285 . S
C56 H75 0.930 . S
C57 C60 1.424 . S
C57 C62 1.245 . S
C57 C63 1.428 . S
C58 C61 1.260 . S
C58 C62 1.477 . S
C58 H76 0.932 . S
C59 C60 1.384 . S
C59 C61 1.479 . S
C59 H77 0.929 . S
C60 C57 1.424 . S
C60 C59 1.384 . S
C60 H78 0.928 . S
C61 C58 1.260 . S
C61 C59 1.479 . S
C62 C57 1.245 . S
C62 C58 1.477 . S
C62 H79 0.932 . S
C63 U46 2.882 . S
C63 C57 1.428 . S
C63 O66 1.301 . S
C63 O67 1.282 . S
O64 U46 2.441 . S
O64 C50 1.249 . S
O65 U46 2.420 . S
O65 C50 1.202 . S
O66 U46 2.455 . S
O66 C63 1.301 . S
O67 U46 2.449 . S
O67 C63 1.282 . S
H68 C41 0.931 . S
H69 C43 0.929 . S
H70 C44 0.930 . S
H71 C45 0.925 1_545 S
H72 C52 0.932 . S
H73 C53 0.930 . S
H74 C54 0.929 . S
H75 C56 0.930 . S
H76 C58 0.932 . S
H77 C59 0.929 . S
H78 C60 0.928 . S
H79 C62 0.932 . S
C80 C81 1.262 . S
C80 C85 1.478 . S
C80 C90 1.468 1_565 S
C81 C80 1.262 . S
C81 C83 1.339 . S
C81 H108 0.931 . S
C82 C83 1.395 . S
C82 C84 1.320 . S
C83 C81 1.339 . S
C83 C82 1.395 . S
C83 H109 0.929 . S
C84 C82 1.320 . S
C84 C85 1.405 . S
C84 H110 0.930 . S
C85 C80 1.478 . S
C85 C84 1.405 . S
C85 H111 0.931 1_565 S
U86 O87 2.454 . S
U86 O88 2.458 . S
U86 C89 2.984 . S
U86 C90 2.847 . S
U86 C103 2.882 . S
U86 O104 2.441 . S
U86 O105 2.420 . S
U86 O106 2.455 . S
U86 O107 2.449 . S
O87 U86 2.454 . S
O87 C89 1.353 . S
O88 U86 2.458 . S
O88 C89 1.286 . S
C89 U86 2.984 . S
C89 O87 1.353 . S
C89 O88 1.286 . S
C89 C91 1.363 . S
C90 C80 1.468 1_545 S
C90 U86 2.847 . S
C90 O104 1.249 . S
C90 O105 1.202 . S
C91 C89 1.363 . S
C91 C93 1.408 . S
C91 C96 1.342 . S
C92 C93 1.310 . S
C92 C95 1.461 . S
C92 H112 0.932 . S
C93 C91 1.408 . S
C93 C92 1.310 . S
C93 H113 0.930 . S
C94 C95 1.474 . S
C94 C96 1.285 . S
C94 H114 0.929 . S
C95 C92 1.461 . S
C95 C94 1.474 . S
C96 C91 1.342 . S
C96 C94 1.285 . S
C96 H115 0.930 . S
C97 C100 1.424 . S
C97 C102 1.245 . S
C97 C103 1.428 . S
C98 C101 1.260 . S
C98 C102 1.477 . S
C98 H116 0.932 . S
C99 C100 1.384 . S
C99 C101 1.479 . S
C99 H117 0.929 . S
C100 C97 1.424 . S
C100 C99 1.384 . S
C100 H118 0.928 . S
C101 C98 1.260 . S
C101 C99 1.479 . S
C102 C97 1.245 . S
C102 C98 1.477 . S
C102 H119 0.932 . S
C103 U86 2.882 . S
C103 C97 1.428 . S
C103 O106 1.301 . S
C103 O107 1.282 . S
O104 U86 2.441 . S
O104 C90 1.249 . S
O105 U86 2.420 . S
O105 C90 1.202 . S
O106 U86 2.455 . S
O106 C103 1.301 . S
O107 U86 2.449 . S
O107 C103 1.282 . S
H108 C81 0.931 . S
H109 C83 0.929 . S
H110 C84 0.930 . S
H111 C85 0.931 1_545 S
H112 C92 0.932 . S
H113 C93 0.930 . S
H114 C94 0.929 . S
H115 C96 0.930 . S
H116 C98 0.932 . S
H117 C99 0.929 . S
H118 C100 0.928 . S
H119 C102 0.932 . S
C120 C121 1.264 . S
C120 C125 1.479 . S
C120 C130 1.465 . S
C121 C120 1.264 . S
C121 C123 1.339 . S
C121 H148 0.931 . S
C122 C123 1.395 . S
C122 C124 1.320 . S
C123 C121 1.339 . S
C123 C122 1.395 . S
C123 H149 0.929 . S
C124 C122 1.320 . S
C124 C125 1.405 . S
C124 H150 0.930 . S
C125 C120 1.479 . S
C125 C124 1.405 . S
C125 H151 0.931 . S
U126 O127 2.454 . S
U126 O128 2.458 . S
U126 C129 2.984 . S
U126 C130 2.847 . S
U126 C143 2.882 . S
U126 O144 2.441 . S
U126 O145 2.420 . S
U126 O146 2.455 . S
U126 O147 2.449 . S
O127 U126 2.454 . S
O127 C129 1.353 . S
O128 U126 2.458 . S
O128 C129 1.286 . S
C129 U126 2.984 . S
C129 O127 1.353 . S
C129 O128 1.286 . S
C129 C131 1.363 . S
C130 C120 1.465 . S
C130 U126 2.847 . S
C130 O144 1.249 . S
C130 O145 1.202 . S
C131 C129 1.363 . S
C131 C133 1.408 . S
C131 C136 1.342 . S
C132 C133 1.310 . S
C132 C135 1.461 . S
C132 H152 0.932 . S
C133 C131 1.408 . S
C133 C132 1.310 . S
C133 H153 0.930 . S
C134 C135 1.474 . S
C134 C136 1.285 . S
C134 H154 0.929 . S
C135 C132 1.461 . S
C135 C134 1.474 . S
C136 C131 1.342 . S
C136 C134 1.285 . S
C136 H155 0.930 . S
C137 C140 1.424 . S
C137 C142 1.245 . S
C137 C143 1.428 . S
C138 C141 1.260 . S
C138 C142 1.477 . S
C138 H156 0.932 . S
C139 C140 1.384 . S
C139 C141 1.479 . S
C139 H157 0.929 . S
C140 C137 1.424 . S
C140 C139 1.384 . S
C140 H158 0.928 . S
C141 C138 1.260 . S
C141 C139 1.479 . S
C142 C137 1.245 . S
C142 C138 1.477 . S
C142 H159 0.932 . S
C143 U126 2.882 . S
C143 C137 1.428 . S
C143 O146 1.301 . S
C143 O147 1.282 . S
O144 U126 2.441 . S
O144 C130 1.249 . S
O145 U126 2.420 . S
O145 C130 1.202 . S
O146 U126 2.455 . S
O146 C143 1.301 . S
O147 U126 2.449 . S
O147 C143 1.282 . S
H148 C121 0.931 . S
H149 C123 0.929 . S
H150 C124 0.930 . S
H151 C125 0.931 . S
H152 C132 0.932 . S
H153 C133 0.930 . S
H154 C134 0.929 . S
H155 C136 0.930 . S
H156 C138 0.932 . S
H157 C139 0.929 . S
H158 C140 0.928 . S
H159 C142 0.932 . S
C160 C161 1.264 . S
C160 C165 1.479 . S
C160 C170 1.465 . S
C161 C160 1.264 . S
C161 C163 1.339 . S
C161 H188 0.931 . S
C162 C163 1.395 . S
C162 C164 1.320 . S
C163 C161 1.339 . S
C163 C162 1.395 . S
C163 H189 0.929 . S
C164 C162 1.320 . S
C164 C165 1.405 . S
C164 H190 0.930 . S
C165 C160 1.479 . S
C165 C164 1.405 . S
C165 H191 0.931 . S
U166 O167 2.454 . S
U166 O168 2.458 . S
U166 C169 2.984 . S
U166 C170 2.847 . S
U166 C183 2.882 . S
U166 O184 2.441 . S
U166 O185 2.420 . S
U166 O186 2.455 . S
U166 O187 2.449 . S
O167 U166 2.454 . S
O167 C169 1.353 . S
O168 U166 2.458 . S
O168 C169 1.286 . S
C169 U166 2.984 . S
C169 O167 1.353 . S
C169 O168 1.286 . S
C169 C171 1.363 . S
C170 C160 1.465 . S
C170 U166 2.847 . S
C170 O184 1.249 . S
C170 O185 1.202 . S
C171 C169 1.363 . S
C171 C173 1.408 . S
C171 C176 1.342 . S
C172 C173 1.310 . S
C172 C175 1.461 . S
C172 H192 0.932 . S
C173 C171 1.408 . S
C173 C172 1.310 . S
C173 H193 0.930 . S
C174 C175 1.474 . S
C174 C176 1.285 . S
C174 H194 0.929 . S
C175 C172 1.461 . S
C175 C174 1.474 . S
C176 C171 1.342 . S
C176 C174 1.285 . S
C176 H195 0.930 . S
C177 C180 1.424 . S
C177 C182 1.245 . S
C177 C183 1.428 . S
C178 C181 1.260 . S
C178 C182 1.477 . S
C178 H196 0.932 . S
C179 C180 1.384 . S
C179 C181 1.479 . S
C179 H197 0.929 . S
C180 C177 1.424 . S
C180 C179 1.384 . S
C180 H198 0.928 . S
C181 C178 1.260 . S
C181 C179 1.479 . S
C182 C177 1.245 . S
C182 C178 1.477 . S
C182 H199 0.932 . S
C183 U166 2.882 . S
C183 C177 1.428 . S
C183 O186 1.301 . S
C183 O187 1.282 . S
O184 U166 2.441 . S
O184 C170 1.249 . S
O185 U166 2.420 . S
O185 C170 1.202 . S
O186 U166 2.455 . S
O186 C183 1.301 . S
O187 U166 2.449 . S
O187 C183 1.282 . S
H188 C161 0.931 . S
H189 C163 0.929 . S
H190 C164 0.930 . S
H191 C165 0.931 . S
H192 C172 0.932 . S
H193 C173 0.930 . S
H194 C174 0.929 . S
H195 C176 0.930 . S
H196 C178 0.932 . S
H197 C179 0.929 . S
H198 C180 0.928 . S
H199 C182 0.932 . S
C200 C201 1.264 . S
C200 C205 1.479 . S
C200 C210 1.465 1_545 S
C201 C200 1.264 . S
C201 C203 1.339 . S
C201 H228 0.931 . S
C202 C203 1.395 . S
C202 C204 1.320 . S
C203 C201 1.339 . S
C203 C202 1.395 . S
C203 H229 0.929 . S
C204 C202 1.320 . S
C204 C205 1.405 . S
C204 H230 0.930 . S
C205 C200 1.479 . S
C205 C204 1.405 . S
C205 H231 0.931 . S
U206 O207 2.454 . S
U206 O208 2.458 . S
U206 C209 2.984 . S
U206 C210 2.847 . S
U206 C223 2.882 . S
U206 O224 2.441 . S
U206 O225 2.420 . S
U206 O226 2.455 . S
U206 O227 2.449 . S
O207 U206 2.454 . S
O207 C209 1.353 . S
O208 U206 2.458 . S
O208 C209 1.286 . S
C209 U206 2.984 . S
C209 O207 1.353 . S
C209 O208 1.286 . S
C209 C211 1.363 . S
C210 C200 1.465 1_565 S
C210 U206 2.847 . S
C210 O224 1.249 . S
C210 O225 1.202 . S
C211 C209 1.363 . S
C211 C213 1.408 . S
C211 C216 1.342 . S
C212 C213 1.310 . S
C212 C215 1.461 . S
C212 H232 0.932 . S
C213 C211 1.408 . S
C213 C212 1.310 . S
C213 H233 0.930 . S
C214 C215 1.474 . S
C214 C216 1.285 . S
C214 H234 0.929 . S
C215 C212 1.461 . S
C215 C214 1.474 . S
C216 C211 1.342 . S
C216 C214 1.285 . S
C216 H235 0.930 . S
C217 C220 1.424 . S
C217 C222 1.245 . S
C217 C223 1.428 . S
C218 C221 1.260 . S
C218 C222 1.477 . S
C218 H236 0.932 . S
C219 C220 1.384 . S
C219 C221 1.479 . S
C219 H237 0.929 . S
C220 C217 1.424 . S
C220 C219 1.384 . S
C220 H238 0.928 . S
C221 C218 1.260 . S
C221 C219 1.479 . S
C222 C217 1.245 . S
C222 C218 1.477 . S
C222 H239 0.932 . S
C223 U206 2.882 . S
C223 C217 1.428 . S
C223 O226 1.301 . S
C223 O227 1.282 . S
O224 U206 2.441 . S
O224 C210 1.249 . S
O225 U206 2.420 . S
O225 C210 1.202 . S
O226 U206 2.455 . S
O226 C223 1.301 . S
O227 U206 2.449 . S
O227 C223 1.282 . S
H228 C201 0.931 . S
H229 C203 0.929 . S
H230 C204 0.930 . S
H231 C205 0.931 . S
H232 C212 0.932 . S
H233 C213 0.930 . S
H234 C214 0.929 . S
H235 C216 0.930 . S
H236 C218 0.932 . S
H237 C219 0.929 . S
H238 C220 0.928 . S
H239 C222 0.932 . S
C240 C241 1.264 . S
C240 C245 1.479 . S
C240 C250 1.465 1_545 S
C241 C240 1.264 . S
C241 C243 1.339 . S
C241 H268 0.931 . S
C242 C243 1.395 . S
C242 C244 1.320 . S
C243 C241 1.339 . S
C243 C242 1.395 . S
C243 H269 0.929 . S
C244 C242 1.320 . S
C244 C245 1.405 . S
C244 H270 0.930 . S
C245 C240 1.479 . S
C245 C244 1.405 . S
C245 H271 0.931 . S
U246 O247 2.454 . S
U246 O248 2.458 . S
U246 C249 2.984 . S
U246 C250 2.847 . S
U246 C263 2.882 . S
U246 O264 2.441 . S
U246 O265 2.420 . S
U246 O266 2.455 . S
U246 O267 2.449 . S
O247 U246 2.454 . S
O247 C249 1.353 . S
O248 U246 2.458 . S
O248 C249 1.286 . S
C249 U246 2.984 . S
C249 O247 1.353 . S
C249 O248 1.286 . S
C249 C251 1.363 . S
C250 C240 1.465 1_565 S
C250 U246 2.847 . S
C250 O264 1.249 . S
C250 O265 1.202 . S
C251 C249 1.363 . S
C251 C253 1.408 . S
C251 C256 1.342 . S
C252 C253 1.310 . S
C252 C255 1.461 . S
C252 H272 0.932 . S
C253 C251 1.408 . S
C253 C252 1.310 . S
C253 H273 0.930 . S
C254 C255 1.474 . S
C254 C256 1.285 . S
C254 H274 0.929 . S
C255 C252 1.461 . S
C255 C254 1.474 . S
C256 C251 1.342 . S
C256 C254 1.285 . S
C256 H275 0.930 . S
C257 C260 1.424 . S
C257 C262 1.245 . S
C257 C263 1.428 . S
C258 C261 1.260 . S
C258 C262 1.477 . S
C258 H276 0.932 . S
C259 C260 1.384 . S
C259 C261 1.479 . S
C259 H277 0.929 . S
C260 C257 1.424 . S
C260 C259 1.384 . S
C260 H278 0.928 . S
C261 C258 1.260 . S
C261 C259 1.479 . S
C262 C257 1.245 . S
C262 C258 1.477 . S
C262 H279 0.932 . S
C263 U246 2.882 . S
C263 C257 1.428 . S
C263 O266 1.301 . S
C263 O267 1.282 . S
O264 U246 2.441 . S
O264 C250 1.249 . S
O265 U246 2.420 . S
O265 C250 1.202 . S
O266 U246 2.455 . S
O266 C263 1.301 . S
O267 U246 2.449 . S
O267 C263 1.282 . S
H268 C241 0.931 . S
H269 C243 0.929 . S
H270 C244 0.930 . S
H271 C245 0.931 . S
H272 C252 0.932 . S
H273 C253 0.930 . S
H274 C254 0.929 . S
H275 C256 0.930 . S
H276 C258 0.932 . S
H277 C259 0.929 . S
H278 C260 0.928 . S
H279 C262 0.932 . S
C280 C281 1.264 . S
C280 C285 1.479 . S
C280 C290 1.465 . S
C281 C280 1.264 . S
C281 C283 1.339 . S
C281 H308 0.931 . S
C282 C283 1.395 . S
C282 C284 1.320 . S
C283 C281 1.339 . S
C283 C282 1.395 . S
C283 H309 0.929 . S
C284 C282 1.320 . S
C284 C285 1.405 . S
C284 H310 0.930 . S
C285 C280 1.479 . S
C285 C284 1.405 . S
C285 H311 0.931 . S
U286 O287 2.454 . S
U286 O288 2.458 . S
U286 C289 2.984 . S
U286 C290 2.847 . S
U286 C303 2.882 . S
U286 O304 2.441 . S
U286 O305 2.420 . S
U286 O306 2.455 . S
U286 O307 2.449 . S
O287 U286 2.454 . S
O287 C289 1.353 . S
O288 U286 2.458 . S
O288 C289 1.286 . S
C289 U286 2.984 . S
C289 O287 1.353 . S
C289 O288 1.286 . S
C289 C291 1.363 . S
C290 C280 1.465 . S
C290 U286 2.847 . S
C290 O304 1.249 . S
C290 O305 1.202 . S
C291 C289 1.363 . S
C291 C293 1.408 . S
C291 C296 1.342 . S
C292 C293 1.310 . S
C292 C295 1.461 . S
C292 H312 0.932 . S
C293 C291 1.408 . S
C293 C292 1.310 . S
C293 H313 0.930 . S
C294 C295 1.474 . S
C294 C296 1.285 . S
C294 H314 0.929 . S
C295 C292 1.461 . S
C295 C294 1.474 . S
C296 C291 1.342 . S
C296 C294 1.285 . S
C296 H315 0.930 . S
C297 C300 1.424 . S
C297 C302 1.245 . S
C297 C303 1.428 . S
C298 C301 1.260 . S
C298 C302 1.477 . S
C298 H316 0.932 . S
C299 C300 1.384 . S
C299 C301 1.479 . S
C299 H317 0.929 . S
C300 C297 1.424 . S
C300 C299 1.384 . S
C300 H318 0.928 . S
C301 C298 1.260 . S
C301 C299 1.479 . S
C302 C297 1.245 . S
C302 C298 1.477 . S
C302 H319 0.932 . S
C303 U286 2.882 . S
C303 C297 1.428 . S
C303 O306 1.301 . S
C303 O307 1.282 . S
O304 U286 2.441 . S
O304 C290 1.249 . S
O305 U286 2.420 . S
O305 C290 1.202 . S
O306 U286 2.455 . S
O306 C303 1.301 . S
O307 U286 2.449 . S
O307 C303 1.282 . S
H308 C281 0.931 . S
H309 C283 0.929 . S
H310 C284 0.930 . S
H311 C285 0.931 . S
H312 C292 0.932 . S
H313 C293 0.930 . S
H314 C294 0.929 . S
H315 C296 0.930 . S
H316 C298 0.932 . S
H317 C299 0.929 . S
H318 C300 0.928 . S
H319 C302 0.932 . S
C320 C321 1.264 . S
C320 C325 1.479 . S
C320 C330 1.465 . S
C321 C320 1.264 . S
C321 C323 1.339 . S
C321 H348 0.931 . S
C322 C323 1.395 . S
C322 C324 1.320 . S
C323 C321 1.339 . S
C323 C322 1.395 . S
C323 H349 0.929 . S
C324 C322 1.320 . S
C324 C325 1.405 . S
C324 H350 0.930 . S
C325 C320 1.479 . S
C325 C324 1.405 . S
C325 H351 0.931 . S
U326 O327 2.454 . S
U326 O328 2.458 . S
U326 C329 2.984 . S
U326 C330 2.847 . S
U326 C343 2.882 . S
U326 O344 2.441 . S
U326 O345 2.420 . S
U326 O346 2.455 . S
U326 O347 2.449 . S
O327 U326 2.454 . S
O327 C329 1.353 . S
O328 U326 2.458 . S
O328 C329 1.286 . S
C329 U326 2.984 . S
C329 O327 1.353 . S
C329 O328 1.286 . S
C329 C331 1.363 . S
C330 C320 1.465 . S
C330 U326 2.847 . S
C330 O344 1.249 . S
C330 O345 1.202 . S
C331 C329 1.363 . S
C331 C333 1.408 . S
C331 C336 1.342 . S
C332 C333 1.310 . S
C332 C335 1.461 . S
C332 H352 0.932 . S
C333 C331 1.408 . S
C333 C332 1.310 . S
C333 H353 0.930 . S
C334 C335 1.474 . S
C334 C336 1.285 . S
C334 H354 0.929 . S
C335 C332 1.461 . S
C335 C334 1.474 . S
C336 C331 1.342 . S
C336 C334 1.285 . S
C336 H355 0.930 . S
C337 C340 1.424 . S
C337 C342 1.245 . S
C337 C343 1.428 . S
C338 C341 1.260 . S
C338 C342 1.477 . S
C338 H356 0.932 . S
C339 C340 1.384 . S
C339 C341 1.479 . S
C339 H357 0.929 . S
C340 C337 1.424 . S
C340 C339 1.384 . S
C340 H358 0.928 . S
C341 C338 1.260 . S
C341 C339 1.479 . S
C342 C337 1.245 . S
C342 C338 1.477 . S
C342 H359 0.932 . S
C343 U326 2.882 . S
C343 C337 1.428 . S
C343 O346 1.301 . S
C343 O347 1.282 . S
O344 U326 2.441 . S
O344 C330 1.249 . S
O345 U326 2.420 . S
O345 C330 1.202 . S
O346 U326 2.455 . S
O346 C343 1.301 . S
O347 U326 2.449 . S
O347 C343 1.282 . S
H348 C321 0.931 . S
H349 C323 0.929 . S
H350 C324 0.930 . S
H351 C325 0.931 . S
H352 C332 0.932 . S
H353 C333 0.930 . S
H354 C334 0.929 . S
H355 C336 0.930 . S
H356 C338 0.932 . S
H357 C339 0.929 . S
H358 C340 0.928 . S
H359 C342 0.932 . S
C360 C361 1.264 . S
C360 C365 1.479 . S
C360 C370 1.465 . S
C361 C360 1.264 . S
C361 C363 1.339 . S
C361 H388 0.931 . S
C362 C363 1.395 . S
C362 C364 1.320 . S
C363 C361 1.339 . S
C363 C362 1.395 . S
C363 H389 0.929 . S
C364 C362 1.320 . S
C364 C365 1.405 . S
C364 H390 0.930 . S
C365 C360 1.479 . S
C365 C364 1.405 . S
C365 H391 0.931 . S
U366 O367 2.454 . S
U366 O368 2.458 . S
U366 C369 2.984 . S
U366 C370 2.847 . S
U366 C383 2.882 . S
U366 O384 2.441 . S
U366 O385 2.420 . S
U366 O386 2.455 . S
U366 O387 2.449 . S
O367 U366 2.454 . S
O367 C369 1.353 . S
O368 U366 2.458 . S
O368 C369 1.286 . S
C369 U366 2.984 . S
C369 O367 1.353 . S
C369 O368 1.286 . S
C369 C371 1.363 . S
C370 C360 1.465 . S
C370 U366 2.847 . S
C370 O384 1.249 . S
C370 O385 1.202 . S
C371 C369 1.363 . S
C371 C373 1.408 . S
C371 C376 1.342 . S
C372 C373 1.310 . S
C372 C375 1.461 . S
C372 H392 0.932 . S
C373 C371 1.408 . S
C373 C372 1.310 . S
C373 H393 0.930 . S
C374 C375 1.474 . S
C374 C376 1.285 . S
C374 H394 0.929 . S
C375 C372 1.461 . S
C375 C374 1.474 . S
C376 C371 1.342 . S
C376 C374 1.285 . S
C376 H395 0.930 . S
C377 C380 1.424 . S
C377 C382 1.245 . S
C377 C383 1.428 . S
C378 C381 1.260 . S
C378 C382 1.477 . S
C378 H396 0.932 . S
C379 C380 1.384 . S
C379 C381 1.479 . S
C379 H397 0.929 . S
C380 C377 1.424 . S
C380 C379 1.384 . S
C380 H398 0.928 . S
C381 C378 1.260 . S
C381 C379 1.479 . S
C382 C377 1.245 . S
C382 C378 1.477 . S
C382 H399 0.932 . S
C383 U366 2.882 . S
C383 C377 1.428 . S
C383 O386 1.301 . S
C383 O387 1.282 . S
O384 U366 2.441 . S
O384 C370 1.249 . S
O385 U366 2.420 . S
O385 C370 1.202 . S
O386 U366 2.455 . S
O386 C383 1.301 . S
O387 U366 2.449 . S
O387 C383 1.282 . S
H388 C361 0.931 . S
H389 C363 0.929 . S
H390 C364 0.930 . S
H391 C365 0.931 . S
H392 C372 0.932 . S
H393 C373 0.930 . S
H394 C374 0.929 . S
H395 C376 0.930 . S
H396 C378 0.932 . S
H397 C379 0.929 . S
H398 C380 0.928 . S
H399 C382 0.932 . S
C400 C401 1.264 . S
C400 C405 1.479 . S
C400 C410 1.465 . S
C401 C400 1.264 . S
C401 C403 1.339 . S
C401 H428 0.931 . S
C402 C403 1.395 . S
C402 C404 1.320 . S
C403 C401 1.339 . S
C403 C402 1.395 . S
C403 H429 0.929 . S
C404 C402 1.320 . S
C404 C405 1.405 . S
C404 H430 0.930 . S
C405 C400 1.479 . S
C405 C404 1.405 . S
C405 H431 0.931 . S
U406 O407 2.454 . S
U406 O408 2.458 . S
U406 C409 2.984 . S
U406 C410 2.847 . S
U406 C423 2.882 . S
U406 O424 2.441 . S
U406 O425 2.420 . S
U406 O426 2.455 . S
U406 O427 2.449 . S
O407 U406 2.454 . S
O407 C409 1.353 . S
O408 U406 2.458 . S
O408 C409 1.286 . S
C409 U406 2.984 . S
C409 O407 1.353 . S
C409 O408 1.286 . S
C409 C411 1.363 . S
C410 C400 1.465 . S
C410 U406 2.847 . S
C410 O424 1.249 . S
C410 O425 1.202 . S
C411 C409 1.363 . S
C411 C413 1.408 . S
C411 C416 1.342 . S
C412 C413 1.310 . S
C412 C415 1.461 . S
C412 H432 0.932 . S
C413 C411 1.408 . S
C413 C412 1.310 . S
C413 H433 0.930 . S
C414 C415 1.474 . S
C414 C416 1.285 . S
C414 H434 0.929 . S
C415 C412 1.461 . S
C415 C414 1.474 . S
C416 C411 1.342 . S
C416 C414 1.285 . S
C416 H435 0.930 . S
C417 C420 1.424 . S
C417 C422 1.245 . S
C417 C423 1.428 . S
C418 C421 1.260 . S
C418 C422 1.477 . S
C418 H436 0.932 . S
C419 C420 1.384 . S
C419 C421 1.479 . S
C419 H437 0.929 . S
C420 C417 1.424 . S
C420 C419 1.384 . S
C420 H438 0.928 . S
C421 C418 1.260 . S
C421 C419 1.479 . S
C422 C417 1.245 . S
C422 C418 1.477 . S
C422 H439 0.932 . S
C423 U406 2.882 . S
C423 C417 1.428 . S
C423 O426 1.301 . S
C423 O427 1.282 . S
O424 U406 2.441 . S
O424 C410 1.249 . S
O425 U406 2.420 . S
O425 C410 1.202 . S
O426 U406 2.455 . S
O426 C423 1.301 . S
O427 U406 2.449 . S
O427 C423 1.282 . S
H428 C401 0.931 . S
H429 C403 0.929 . S
H430 C404 0.930 . S
H431 C405 0.931 . S
H432 C412 0.932 . S
H433 C413 0.930 . S
H434 C414 0.929 . S
H435 C416 0.930 . S
H436 C418 0.932 . S
H437 C419 0.929 . S
H438 C420 0.928 . S
H439 C422 0.932 . S
C440 C441 1.264 . S
C440 C445 1.479 . S
C440 C450 1.465 . S
C441 C440 1.264 . S
C441 C443 1.339 . S
C441 H468 0.931 . S
C442 C443 1.395 . S
C442 C444 1.320 . S
C443 C441 1.339 . S
C443 C442 1.395 . S
C443 H469 0.929 . S
C444 C442 1.320 . S
C444 C445 1.405 . S
C444 H470 0.930 . S
C445 C440 1.479 . S
C445 C444 1.405 . S
C445 H471 0.931 . S
U446 O447 2.454 . S
U446 O448 2.458 . S
U446 C449 2.984 . S
U446 C450 2.847 . S
U446 C463 2.882 . S
U446 O464 2.441 . S
U446 O465 2.420 . S
U446 O466 2.455 . S
U446 O467 2.449 . S
O447 U446 2.454 . S
O447 C449 1.353 . S
O448 U446 2.458 . S
O448 C449 1.286 . S
C449 U446 2.984 . S
C449 O447 1.353 . S
C449 O448 1.286 . S
C449 C451 1.363 . S
C450 C440 1.465 . S
C450 U446 2.847 . S
C450 O464 1.249 . S
C450 O465 1.202 . S
C451 C449 1.363 . S
C451 C453 1.408 . S
C451 C456 1.342 . S
C452 C453 1.310 . S
C452 C455 1.461 . S
C452 H472 0.932 . S
C453 C451 1.408 . S
C453 C452 1.310 . S
C453 H473 0.930 . S
C454 C455 1.474 . S
C454 C456 1.285 . S
C454 H474 0.929 . S
C455 C452 1.461 . S
C455 C454 1.474 . S
C456 C451 1.342 . S
C456 C454 1.285 . S
C456 H475 0.930 . S
C457 C460 1.424 . S
C457 C462 1.245 . S
C457 C463 1.428 . S
C458 C461 1.260 . S
C458 C462 1.477 . S
C458 H476 0.932 . S
C459 C460 1.384 . S
C459 C461 1.479 . S
C459 H477 0.929 . S
C460 C457 1.424 . S
C460 C459 1.384 . S
C460 H478 0.928 . S
C461 C458 1.260 . S
C461 C459 1.479 . S
C462 C457 1.245 . S
C462 C458 1.477 . S
C462 H479 0.932 . S
C463 U446 2.882 . S
C463 C457 1.428 . S
C463 O466 1.301 . S
C463 O467 1.282 . S
O464 U446 2.441 . S
O464 C450 1.249 . S
O465 U446 2.420 . S
O465 C450 1.202 . S
O466 U446 2.455 . S
O466 C463 1.301 . S
O467 U446 2.449 . S
O467 C463 1.282 . S
H468 C441 0.931 . S
H469 C443 0.929 . S
H470 C444 0.930 . S
H471 C445 0.931 . S
H472 C452 0.932 . S
H473 C453 0.930 . S
H474 C454 0.929 . S
H475 C456 0.930 . S
H476 C458 0.932 . S
H477 C459 0.929 . S
H478 C460 0.928 . S
H479 C462 0.932 . S
C480 C481 1.264 . S
C480 C485 1.479 . S
C480 C490 1.465 . S
C481 C480 1.264 . S
C481 C483 1.339 . S
C481 H508 0.931 . S
C482 C483 1.395 . S
C482 C484 1.320 . S
C483 C481 1.339 . S
C483 C482 1.395 . S
C483 H509 0.929 . S
C484 C482 1.320 . S
C484 C485 1.405 . S
C484 H510 0.930 . S
C485 C480 1.479 . S
C485 C484 1.405 . S
C485 H511 0.931 . S
U486 O487 2.454 . S
U486 O488 2.458 . S
U486 C489 2.984 . S
U486 C490 2.847 . S
U486 C503 2.882 . S
U486 O504 2.441 . S
U486 O505 2.420 . S
U486 O506 2.455 . S
U486 O507 2.449 . S
O487 U486 2.454 . S
O487 C489 1.353 . S
O488 U486 2.458 . S
O488 C489 1.286 . S
C489 U486 2.984 . S
C489 O487 1.353 . S
C489 O488 1.286 . S
C489 C491 1.363 . S
C490 C480 1.465 . S
C490 U486 2.847 . S
C490 O504 1.249 . S
C490 O505 1.202 . S
C491 C489 1.363 . S
C491 C493 1.408 . S
C491 C496 1.342 . S
C492 C493 1.310 . S
C492 C495 1.461 . S
C492 H512 0.932 . S
C493 C491 1.408 . S
C493 C492 1.310 . S
C493 H513 0.930 . S
C494 C495 1.474 . S
C494 C496 1.285 . S
C494 H514 0.929 . S
C495 C492 1.461 . S
C495 C494 1.474 . S
C496 C491 1.342 . S
C496 C494 1.285 . S
C496 H515 0.930 . S
C497 C500 1.424 . S
C497 C502 1.245 . S
C497 C503 1.428 . S
C498 C501 1.260 . S
C498 C502 1.477 . S
C498 H516 0.932 . S
C499 C500 1.384 . S
C499 C501 1.479 . S
C499 H517 0.929 . S
C500 C497 1.424 . S
C500 C499 1.384 . S
C500 H518 0.928 . S
C501 C498 1.260 . S
C501 C499 1.479 . S
C502 C497 1.245 . S
C502 C498 1.477 . S
C502 H519 0.932 . S
C503 U486 2.882 . S
C503 C497 1.428 . S
C503 O506 1.301 . S
C503 O507 1.282 . S
O504 U486 2.441 . S
O504 C490 1.249 . S
O505 U486 2.420 . S
O505 C490 1.202 . S
O506 U486 2.455 . S
O506 C503 1.301 . S
O507 U486 2.449 . S
O507 C503 1.282 . S
H508 C481 0.931 . S
H509 C483 0.929 . S
H510 C484 0.930 . S
H511 C485 0.931 . S
H512 C492 0.932 . S
H513 C493 0.930 . S
H514 C494 0.929 . S
H515 C496 0.930 . S
H516 C498 0.932 . S
H517 C499 0.929 . S
H518 C500 0.928 . S
H519 C502 0.932 . S
C520 C521 1.264 . S
C520 C525 1.479 . S
C520 C530 1.465 . S
C521 C520 1.264 . S
C521 C523 1.339 . S
C521 H548 0.931 . S
C522 C523 1.395 . S
C522 C524 1.320 . S
C523 C521 1.339 . S
C523 C522 1.395 . S
C523 H549 0.929 . S
C524 C522 1.320 . S
C524 C525 1.405 . S
C524 H550 0.930 . S
C525 C520 1.479 . S
C525 C524 1.405 . S
C525 H551 0.931 . S
U526 O527 2.454 . S
U526 O528 2.458 . S
U526 C529 2.984 . S
U526 C530 2.847 . S
U526 C543 2.882 . S
U526 O544 2.441 . S
U526 O545 2.420 . S
U526 O546 2.455 . S
U526 O547 2.449 . S
O527 U526 2.454 . S
O527 C529 1.353 . S
O528 U526 2.458 . S
O528 C529 1.286 . S
C529 U526 2.984 . S
C529 O527 1.353 . S
C529 O528 1.286 . S
C529 C531 1.363 . S
C530 C520 1.465 . S
C530 U526 2.847 . S
C530 O544 1.249 . S
C530 O545 1.202 . S
C531 C529 1.363 . S
C531 C533 1.408 . S
C531 C536 1.342 . S
C532 C533 1.310 . S
C532 C535 1.461 . S
C532 H552 0.932 . S
C533 C531 1.408 . S
C533 C532 1.310 . S
C533 H553 0.930 . S
C534 C535 1.474 . S
C534 C536 1.285 . S
C534 H554 0.929 . S
C535 C532 1.461 . S
C535 C534 1.474 . S
C536 C531 1.342 . S
C536 C534 1.285 . S
C536 H555 0.930 . S
C537 C540 1.424 . S
C537 C542 1.245 . S
C537 C543 1.428 . S
C538 C541 1.260 . S
C538 C542 1.477 . S
C538 H556 0.932 . S
C539 C540 1.384 . S
C539 C541 1.479 . S
C539 H557 0.929 . S
C540 C537 1.424 . S
C540 C539 1.384 . S
C540 H558 0.928 . S
C541 C538 1.260 . S
C541 C539 1.479 . S
C542 C537 1.245 . S
C542 C538 1.477 . S
C542 H559 0.932 . S
C543 U526 2.882 . S
C543 C537 1.428 . S
C543 O546 1.301 . S
C543 O547 1.282 . S
O544 U526 2.441 . S
O544 C530 1.249 . S
O545 U526 2.420 . S
O545 C530 1.202 . S
O546 U526 2.455 . S
O546 C543 1.301 . S
O547 U526 2.449 . S
O547 C543 1.282 . S
H548 C521 0.931 . S
H549 C523 0.929 . S
H550 C524 0.930 . S
H551 C525 0.931 . S
H552 C532 0.932 . S
H553 C533 0.930 . S
H554 C534 0.929 . S
H555 C536 0.930 . S
H556 C538 0.932 . S
H557 C539 0.929 . S
H558 C540 0.928 . S
H559 C542 0.932 . S
C560 C561 1.264 . S
C560 C565 1.479 . S
C560 C570 1.465 . S
C561 C560 1.264 . S
C561 C563 1.339 . S
C561 H588 0.931 . S
C562 C563 1.395 . S
C562 C564 1.320 . S
C563 C561 1.339 . S
C563 C562 1.395 . S
C563 H589 0.929 . S
C564 C562 1.320 . S
C564 C565 1.405 . S
C564 H590 0.930 . S
C565 C560 1.479 . S
C565 C564 1.405 . S
C565 H591 0.931 . S
U566 O567 2.454 . S
U566 O568 2.458 . S
U566 C569 2.984 . S
U566 C570 2.847 . S
U566 C583 2.882 . S
U566 O584 2.441 . S
U566 O585 2.420 . S
U566 O586 2.455 . S
U566 O587 2.449 . S
O567 U566 2.454 . S
O567 C569 1.353 . S
O568 U566 2.458 . S
O568 C569 1.286 . S
C569 U566 2.984 . S
C569 O567 1.353 . S
C569 O568 1.286 . S
C569 C571 1.363 . S
C570 C560 1.465 . S
C570 U566 2.847 . S
C570 O584 1.249 . S
C570 O585 1.202 . S
C571 C569 1.363 . S
C571 C573 1.408 . S
C571 C576 1.342 . S
C572 C573 1.310 . S
C572 C575 1.461 . S
C572 H592 0.932 . S
C573 C571 1.408 . S
C573 C572 1.310 . S
C573 H593 0.930 . S
C574 C575 1.474 . S
C574 C576 1.285 . S
C574 H594 0.929 . S
C575 C572 1.461 . S
C575 C574 1.474 . S
C576 C571 1.342 . S
C576 C574 1.285 . S
C576 H595 0.930 . S
C577 C580 1.424 . S
C577 C582 1.245 . S
C577 C583 1.428 . S
C578 C581 1.260 . S
C578 C582 1.477 . S
C578 H596 0.932 . S
C579 C580 1.384 . S
C579 C581 1.479 . S
C579 H597 0.929 . S
C580 C577 1.424 . S
C580 C579 1.384 . S
C580 H598 0.928 . S
C581 C578 1.260 . S
C581 C579 1.479 . S
C582 C577 1.245 . S
C582 C578 1.477 . S
C582 H599 0.932 . S
C583 U566 2.882 . S
C583 C577 1.428 . S
C583 O586 1.301 . S
C583 O587 1.282 . S
O584 U566 2.441 . S
O584 C570 1.249 . S
O585 U566 2.420 . S
O585 C570 1.202 . S
O586 U566 2.455 . S
O586 C583 1.301 . S
O587 U566 2.449 . S
O587 C583 1.282 . S
H588 C561 0.931 . S
H589 C563 0.929 . S
H590 C564 0.930 . S
H591 C565 0.931 . S
H592 C572 0.932 . S
H593 C573 0.930 . S
H594 C574 0.929 . S
H595 C576 0.930 . S
H596 C578 0.932 . S
H597 C579 0.929 . S
H598 C580 0.928 . S
H599 C582 0.932 . S
C600 C601 1.264 . S
C600 C605 1.479 . S
C600 C610 1.465 . S
C601 C600 1.264 . S
C601 C603 1.339 . S
C601 H628 0.931 . S
C602 C603 1.395 . S
C602 C604 1.320 . S
C603 C601 1.339 . S
C603 C602 1.395 . S
C603 H629 0.929 . S
C604 C602 1.320 . S
C604 C605 1.405 . S
C604 H630 0.930 . S
C605 C600 1.479 . S
C605 C604 1.405 . S
C605 H631 0.931 . S
U606 O607 2.454 . S
U606 O608 2.458 . S
U606 C609 2.984 . S
U606 C610 2.847 . S
U606 C623 2.882 . S
U606 O624 2.441 . S
U606 O625 2.420 . S
U606 O626 2.455 . S
U606 O627 2.449 . S
O607 U606 2.454 . S
O607 C609 1.353 . S
O608 U606 2.458 . S
O608 C609 1.286 . S
C609 U606 2.984 . S
C609 O607 1.353 . S
C609 O608 1.286 . S
C609 C611 1.363 . S
C610 C600 1.465 . S
C610 U606 2.847 . S
C610 O624 1.249 . S
C610 O625 1.202 . S
C611 C609 1.363 . S
C611 C613 1.408 . S
C611 C616 1.342 . S
C612 C613 1.310 . S
C612 C615 1.461 . S
C612 H632 0.932 . S
C613 C611 1.408 . S
C613 C612 1.310 . S
C613 H633 0.930 . S
C614 C615 1.474 . S
C614 C616 1.285 . S
C614 H634 0.929 . S
C615 C612 1.461 . S
C615 C614 1.474 . S
C616 C611 1.342 . S
C616 C614 1.285 . S
C616 H635 0.930 . S
C617 C620 1.424 . S
C617 C622 1.245 . S
C617 C623 1.428 . S
C618 C621 1.260 . S
C618 C622 1.477 . S
C618 H636 0.932 . S
C619 C620 1.384 . S
C619 C621 1.479 . S
C619 H637 0.929 . S
C620 C617 1.424 . S
C620 C619 1.384 . S
C620 H638 0.928 . S
C621 C618 1.260 . S
C621 C619 1.479 . S
C622 C617 1.245 . S
C622 C618 1.477 . S
C622 H639 0.932 . S
C623 U606 2.882 . S
C623 C617 1.428 . S
C623 O626 1.301 . S
C623 O627 1.282 . S
O624 U606 2.441 . S
O624 C610 1.249 . S
O625 U606 2.420 . S
O625 C610 1.202 . S
O626 U606 2.455 . S
O626 C623 1.301 . S
O627 U606 2.449 . S
O627 C623 1.282 . S
H628 C601 0.931 . S
H629 C603 0.929 . S
H630 C604 0.930 . S
H631 C605 0.931 . S
H632 C612 0.932 . S
H633 C613 0.930 . S
H634 C614 0.929 . S
H635 C616 0.930 . S
H636 C618 0.932 . S
H637 C619 0.929 . S
H638 C620 0.928 . S
H639 C622 0.932 . S
C640 C641 1.264 . S
C640 C645 1.479 . S
C640 C650 1.465 . S
C641 C640 1.264 . S
C641 C643 1.339 . S
C641 H668 0.931 . S
C642 C643 1.395 . S
C642 C644 1.320 . S
C643 C641 1.339 . S
C643 C642 1.395 . S
C643 H669 0.929 . S
C644 C642 1.320 . S
C644 C645 1.405 . S
C644 H670 0.930 . S
C645 C640 1.479 . S
C645 C644 1.405 . S
C645 H671 0.931 . S
U646 O647 2.454 . S
U646 O648 2.458 1_655 S
U646 C649 2.984 1_655 S
U646 C650 2.847 . S
U646 C663 2.882 . S
U646 O664 2.441 . S
U646 O665 2.420 . S
U646 O666 2.455 1_655 S
U646 O667 2.449 . S
O647 U646 2.454 . S
O647 C649 1.353 1_655 S
O648 U646 2.458 1_455 S
O648 C649 1.286 . S
C649 U646 2.984 1_455 S
C649 O647 1.353 1_455 S
C649 O648 1.286 . S
C649 C651 1.363 . S
C650 C640 1.465 . S
C650 U646 2.847 . S
C650 O664 1.249 . S
C650 O665 1.202 . S
C651 C649 1.363 . S
C651 C653 1.408 . S
C651 C656 1.342 . S
C652 C653 1.310 . S
C652 C655 1.461 . S
C652 H672 0.932 . S
C653 C651 1.408 . S
C653 C652 1.310 . S
C653 H673 0.930 1_455 S
C654 C655 1.474 . S
C654 C656 1.285 . S
C654 H674 0.929 . S
C655 C652 1.461 . S
C655 C654 1.474 . S
C656 C651 1.342 . S
C656 C654 1.285 . S
C656 H675 0.930 . S
C657 C660 1.424 . S
C657 C662 1.245 . S
C657 C663 1.428 1_455 S
C658 C661 1.260 . S
C658 C662 1.477 . S
C658 H676 0.932 . S
C659 C660 1.384 . S
C659 C661 1.479 . S
C659 H677 0.929 . S
C660 C657 1.424 . S
C660 C659 1.384 . S
C660 H678 0.930 1_455 S
C661 C658 1.260 . S
C661 C659 1.479 . S
C662 C657 1.245 . S
C662 C658 1.477 . S
C662 H679 0.932 . S
C663 U646 2.882 . S
C663 C657 1.428 1_655 S
C663 O666 1.301 1_655 S
C663 O667 1.282 . S
O664 U646 2.441 . S
O664 C650 1.249 . S
O665 U646 2.420 . S
O665 C650 1.202 . S
O666 U646 2.455 1_455 S
O666 C663 1.301 1_455 S
O667 U646 2.449 . S
O667 C663 1.282 . S
H668 C641 0.931 . S
H669 C643 0.929 . S
H670 C644 0.930 . S
H671 C645 0.931 . S
H672 C652 0.932 . S
H673 C653 0.930 1_655 S
H674 C654 0.929 . S
H675 C656 0.930 . S
H676 C658 0.932 . S
H677 C659 0.929 . S
H678 C660 0.930 1_655 S
H679 C662 0.932 . S
C680 C681 1.236 1_545 S
C680 C685 1.465 1_545 S
C680 C690 1.510 . S
C681 C680 1.236 1_565 S
C681 C683 1.339 . S
C681 H708 0.931 . S
C682 C683 1.395 . S
C682 C684 1.320 . S
C683 C681 1.339 . S
C683 C682 1.395 . S
C683 H709 0.929 . S
C684 C682 1.320 . S
C684 C685 1.405 . S
C684 H710 0.930 . S
C685 C680 1.465 1_565 S
C685 C684 1.405 . S
C685 H711 0.931 1_565 S
U686 O687 2.454 . S
U686 O688 2.458 . S
U686 C689 2.984 . S
U686 C690 2.847 . S
U686 C703 2.882 . S
U686 O704 2.441 . S
U686 O705 2.420 . S
U686 O706 2.455 . S
U686 O707 2.449 . S
O687 U686 2.454 . S
O687 C689 1.353 . S
O688 U686 2.458 . S
O688 C689 1.286 . S
C689 U686 2.984 . S
C689 O687 1.353 . S
C689 O688 1.286 . S
C689 C691 1.363 . S
C690 C680 1.510 . S
C690 U686 2.847 . S
C690 O704 1.249 . S
C690 O705 1.202 . S
C691 C689 1.363 . S
C691 C693 1.408 . S
C691 C696 1.342 . S
C692 C693 1.310 . S
C692 C695 1.461 . S
C692 H712 0.932 . S
C693 C691 1.408 . S
C693 C692 1.310 . S
C693 H713 0.930 . S
C694 C695 1.474 . S
C694 C696 1.285 . S
C694 H714 0.929 . S
C695 C692 1.461 . S
C695 C694 1.474 . S
C696 C691 1.342 . S
C696 C694 1.285 . S
C696 H715 0.930 . S
C697 C700 1.424 . S
C697 C702 1.245 . S
C697 C703 1.428 . S
C698 C701 1.260 . S
C698 C702 1.477 . S
C698 H716 0.932 . S
C699 C700 1.384 . S
C699 C701 1.479 . S
C699 H717 0.929 . S
C700 C697 1.424 . S
C700 C699 1.384 . S
C700 H718 0.928 . S
C701 C698 1.260 . S
C701 C699 1.479 . S
C702 C697 1.245 . S
C702 C698 1.477 . S
C702 H719 0.932 . S
C703 U686 2.882 . S
C703 C697 1.428 . S
C703 O706 1.301 . S
C703 O707 1.282 . S
O704 U686 2.441 . S
O704 C690 1.249 . S
O705 U686 2.420 . S
O705 C690 1.202 . S
O706 U686 2.455 . S
O706 C703 1.301 . S
O707 U686 2.449 . S
O707 C703 1.282 . S
H708 C681 0.931 . S
H709 C683 0.929 . S
H710 C684 0.930 . S
H711 C685 0.931 1_545 S
H712 C692 0.932 . S
H713 C693 0.930 . S
H714 C694 0.929 . S
H715 C696 0.930 . S
H716 C698 0.932 . S
H717 C699 0.929 . S
H718 C700 0.928 . S
H719 C702 0.932 . S
C720 C721 1.264 1_545 S
C720 C725 1.479 1_545 S
C720 C730 1.465 . S
C721 C720 1.264 1_565 S
C721 C723 1.339 . S
C721 H748 0.931 . S
C722 C723 1.395 . S
C722 C724 1.320 . S
C723 C721 1.339 . S
C723 C722 1.395 . S
C723 H749 0.929 . S
C724 C722 1.320 . S
C724 C725 1.405 . S
C724 H750 0.930 . S
C725 C720 1.479 1_565 S
C725 C724 1.405 . S
C725 H751 0.931 1_565 S
U726 O727 2.454 . S
U726 O728 2.458 1_655 S
U726 C729 2.984 1_655 S
U726 C730 2.847 . S
U726 C743 2.882 . S
U726 O744 2.441 . S
U726 O745 2.420 . S
U726 O746 2.455 1_655 S
U726 O747 2.449 . S
O727 U726 2.454 . S
O727 C729 1.353 1_655 S
O728 U726 2.458 1_455 S
O728 C729 1.286 . S
C729 U726 2.984 1_455 S
C729 O727 1.353 1_455 S
C729 O728 1.286 . S
C729 C731 1.363 . S
C730 C720 1.465 . S
C730 U726 2.847 . S
C730 O744 1.249 . S
C730 O745 1.202 . S
C731 C729 1.363 . S
C731 C733 1.408 . S
C731 C736 1.342 . S
C732 C733 1.310 . S
C732 C735 1.461 . S
C732 H752 0.932 . S
C733 C731 1.408 . S
C733 C732 1.310 . S
C733 H753 0.930 1_455 S
C734 C735 1.474 . S
C734 C736 1.285 . S
C734 H754 0.929 . S
C735 C732 1.461 . S
C735 C734 1.474 . S
C736 C731 1.342 . S
C736 C734 1.285 . S
C736 H755 0.930 . S
C737 C740 1.424 . S
C737 C742 1.245 . S
C737 C743 1.428 1_455 S
C738 C741 1.260 . S
C738 C742 1.477 . S
C738 H756 0.932 . S
C739 C740 1.384 . S
C739 C741 1.479 . S
C739 H757 0.929 . S
C740 C737 1.424 . S
C740 C739 1.384 . S
C740 H758 0.930 1_455 S
C741 C738 1.260 . S
C741 C739 1.479 . S
C742 C737 1.245 . S
C742 C738 1.477 . S
C742 H759 0.932 . S
C743 U726 2.882 . S
C743 C737 1.428 1_655 S
C743 O746 1.301 1_655 S
C743 O747 1.282 . S
O744 U726 2.441 . S
O744 C730 1.249 . S
O745 U726 2.420 . S
O745 C730 1.202 . S
O746 U726 2.455 1_455 S
O746 C743 1.301 1_455 S
O747 U726 2.449 . S
O747 C743 1.282 . S
H748 C721 0.931 . S
H749 C723 0.929 . S
H750 C724 0.930 . S
H751 C725 0.931 1_545 S
H752 C732 0.932 . S
H753 C733 0.930 1_655 S
H754 C734 0.929 . S
H755 C736 0.930 . S
H756 C738 0.932 . S
H757 C739 0.929 . S
H758 C740 0.930 1_655 S
H759 C742 0.932 . S
C760 C761 1.264 . S
C760 C765 1.479 . S
C760 C770 1.465 . S
C761 C760 1.264 . S
C761 C763 1.339 . S
C761 H788 0.931 . S
C762 C763 1.395 . S
C762 C764 1.320 . S
C763 C761 1.339 . S
C763 C762 1.395 . S
C763 H789 0.929 . S
C764 C762 1.320 . S
C764 C765 1.405 . S
C764 H790 0.930 . S
C765 C760 1.479 . S
C765 C764 1.405 . S
C765 H791 0.931 . S
U766 O767 2.454 . S
U766 O768 2.458 . S
U766 C769 2.984 . S
U766 C770 2.847 . S
U766 C783 2.882 . S
U766 O784 2.441 . S
U766 O785 2.420 . S
U766 O786 2.455 . S
U766 O787 2.449 . S
O767 U766 2.454 . S
O767 C769 1.353 . S
O768 U766 2.458 . S
O768 C769 1.286 . S
C769 U766 2.984 . S
C769 O767 1.353 . S
C769 O768 1.286 . S
C769 C771 1.363 . S
C770 C760 1.465 . S
C770 U766 2.847 . S
C770 O784 1.249 . S
C770 O785 1.202 . S
C771 C769 1.363 . S
C771 C773 1.408 . S
C771 C776 1.342 . S
C772 C773 1.310 . S
C772 C775 1.461 . S
C772 H792 0.932 . S
C773 C771 1.408 . S
C773 C772 1.310 . S
C773 H793 0.930 . S
C774 C775 1.474 . S
C774 C776 1.285 . S
C774 H794 0.929 . S
C775 C772 1.461 . S
C775 C774 1.474 . S
C776 C771 1.342 . S
C776 C774 1.285 . S
C776 H795 0.930 . S
C777 C780 1.424 . S
C777 C782 1.245 . S
C777 C783 1.428 . S
C778 C781 1.260 . S
C778 C782 1.477 . S
C778 H796 0.932 . S
C779 C780 1.384 . S
C779 C781 1.479 . S
C779 H797 0.929 . S
C780 C777 1.424 . S
C780 C779 1.384 . S
C780 H798 0.928 . S
C781 C778 1.260 . S
C781 C779 1.479 . S
C782 C777 1.245 . S
C782 C778 1.477 . S
C782 H799 0.932 . S
C783 U766 2.882 . S
C783 C777 1.428 . S
C783 O786 1.301 . S
C783 O787 1.282 . S
O784 U766 2.441 . S
O784 C770 1.249 . S
O785 U766 2.420 . S
O785 C770 1.202 . S
O786 U766 2.455 . S
O786 C783 1.301 . S
O787 U766 2.449 . S
O787 C783 1.282 . S
H788 C761 0.931 . S
H789 C763 0.929 . S
H790 C764 0.930 . S
H791 C765 0.931 . S
H792 C772 0.932 . S
H793 C773 0.930 . S
H794 C774 0.929 . S
H795 C776 0.930 . S
H796 C778 0.932 . S
H797 C779 0.929 . S
H798 C780 0.928 . S
H799 C782 0.932 . S
C800 C801 1.264 . S
C800 C805 1.479 . S
C800 C810 1.465 . S
C801 C800 1.264 . S
C801 C803 1.339 . S
C801 H828 0.931 . S
C802 C803 1.395 . S
C802 C804 1.320 . S
C803 C801 1.339 . S
C803 C802 1.395 . S
C803 H829 0.929 . S
C804 C802 1.320 . S
C804 C805 1.405 . S
C804 H830 0.930 . S
C805 C800 1.479 . S
C805 C804 1.405 . S
C805 H831 0.931 . S
U806 O807 2.454 . S
U806 O808 2.458 . S
U806 C809 2.984 . S
U806 C810 2.847 1_655 S
U806 C823 2.882 . S
U806 O824 2.441 1_655 S
U806 O825 2.414 1_655 S
U806 O826 2.455 . S
U806 O827 2.449 . S
O807 U806 2.454 . S
O807 C809 1.353 . S
O808 U806 2.458 . S
O808 C809 1.286 . S
C809 U806 2.984 . S
C809 O807 1.353 . S
C809 O808 1.286 . S
C809 C811 1.363 . S
C810 C800 1.465 . S
C810 U806 2.847 1_455 S
C810 O824 1.249 . S
C810 O825 1.213 . S
C811 C809 1.363 . S
C811 C813 1.408 . S
C811 C816 1.342 . S
C812 C813 1.310 . S
C812 C815 1.461 . S
C812 H832 0.932 . S
C813 C811 1.408 . S
C813 C812 1.310 . S
C813 H833 0.930 . S
C814 C815 1.474 . S
C814 C816 1.285 . S
C814 H834 0.929 . S
C815 C812 1.461 . S
C815 C814 1.474 . S
C816 C811 1.342 . S
C816 C814 1.285 . S
C816 H835 0.930 . S
C817 C820 1.424 . S
C817 C822 1.245 . S
C817 C823 1.428 . S
C818 C821 1.260 . S
C818 C822 1.477 . S
C818 H836 0.932 . S
C819 C820 1.384 . S
C819 C821 1.479 . S
C819 H837 0.929 . S
C820 C817 1.424 . S
C820 C819 1.384 . S
C820 H838 0.928 . S
C821 C818 1.260 . S
C821 C819 1.479 . S
C822 C817 1.245 . S
C822 C818 1.477 . S
C822 H839 0.932 . S
C823 U806 2.882 . S
C823 C817 1.428 . S
C823 O826 1.301 . S
C823 O827 1.282 . S
O824 U806 2.441 1_455 S
O824 C810 1.249 . S
O825 U806 2.414 1_455 S
O825 C810 1.213 . S
O826 U806 2.455 . S
O826 C823 1.301 . S
O827 U806 2.449 . S
O827 C823 1.282 . S
H828 C801 0.931 . S
H829 C803 0.929 . S
H830 C804 0.930 . S
H831 C805 0.931 . S
H832 C812 0.932 . S
H833 C813 0.930 . S
H834 C814 0.929 . S
H835 C816 0.930 . S
H836 C818 0.932 . S
H837 C819 0.929 . S
H838 C820 0.928 . S
H839 C822 0.932 . S
C840 C841 1.264 . S
C840 C845 1.479 . S
C840 C850 1.465 1_545 S
C841 C840 1.264 . S
C841 C843 1.339 . S
C841 H868 0.931 . S
C842 C843 1.395 . S
C842 C844 1.320 . S
C843 C841 1.339 . S
C843 C842 1.395 . S
C843 H869 0.929 . S
C844 C842 1.320 . S
C844 C845 1.405 . S
C844 H870 0.930 . S
C845 C840 1.479 . S
C845 C844 1.405 . S
C845 H871 0.931 . S
U846 O847 2.454 . S
U846 O848 2.458 . S
U846 C849 2.984 . S
U846 C850 2.847 . S
U846 C863 2.882 . S
U846 O864 2.441 . S
U846 O865 2.420 . S
U846 O866 2.455 . S
U846 O867 2.449 . S
O847 U846 2.454 . S
O847 C849 1.353 . S
O848 U846 2.458 . S
O848 C849 1.286 . S
C849 U846 2.984 . S
C849 O847 1.353 . S
C849 O848 1.286 . S
C849 C851 1.363 . S
C850 C840 1.465 1_565 S
C850 U846 2.847 . S
C850 O864 1.249 . S
C850 O865 1.202 . S
C851 C849 1.363 . S
C851 C853 1.408 . S
C851 C856 1.342 . S
C852 C853 1.310 . S
C852 C855 1.461 . S
C852 H872 0.932 . S
C853 C851 1.408 . S
C853 C852 1.310 . S
C853 H873 0.930 . S
C854 C855 1.474 . S
C854 C856 1.285 . S
C854 H874 0.929 . S
C855 C852 1.461 . S
C855 C854 1.474 . S
C856 C851 1.342 . S
C856 C854 1.285 . S
C856 H875 0.930 . S
C857 C860 1.424 . S
C857 C862 1.245 . S
C857 C863 1.428 . S
C858 C861 1.260 . S
C858 C862 1.477 . S
C858 H876 0.932 . S
C859 C860 1.384 . S
C859 C861 1.479 . S
C859 H877 0.929 . S
C860 C857 1.424 . S
C860 C859 1.384 . S
C860 H878 0.928 . S
C861 C858 1.260 . S
C861 C859 1.479 . S
C862 C857 1.245 . S
C862 C858 1.477 . S
C862 H879 0.932 . S
C863 U846 2.882 . S
C863 C857 1.428 . S
C863 O866 1.301 . S
C863 O867 1.282 . S
O864 U846 2.441 . S
O864 C850 1.249 . S
O865 U846 2.420 . S
O865 C850 1.202 . S
O866 U846 2.455 . S
O866 C863 1.301 . S
O867 U846 2.449 . S
O867 C863 1.282 . S
H868 C841 0.931 . S
H869 C843 0.929 . S
H870 C844 0.930 . S
H871 C845 0.931 . S
H872 C852 0.932 . S
H873 C853 0.930 . S
H874 C854 0.929 . S
H875 C856 0.930 . S
H876 C858 0.932 . S
H877 C859 0.929 . S
H878 C860 0.928 . S
H879 C862 0.932 . S
C880 C881 1.264 . S
C880 C885 1.479 . S
C880 C890 1.465 1_545 S
C881 C880 1.264 . S
C881 C883 1.339 . S
C881 H908 0.931 . S
C882 C883 1.395 . S
C882 C884 1.320 . S
C883 C881 1.339 . S
C883 C882 1.395 . S
C883 H909 0.929 . S
C884 C882 1.320 . S
C884 C885 1.405 . S
C884 H910 0.930 . S
C885 C880 1.479 . S
C885 C884 1.405 . S
C885 H911 0.931 . S
U886 O887 2.454 . S
U886 O888 2.458 . S
U886 C889 2.984 . S
U886 C890 2.847 1_655 S
U886 C903 2.882 . S
U886 O904 2.441 1_655 S
U886 O905 2.414 1_655 S
U886 O906 2.455 . S
U886 O907 2.449 . S
O887 U886 2.454 . S
O887 C889 1.353 . S
O888 U886 2.458 . S
O888 C889 1.286 . S
C889 U886 2.984 . S
C889 O887 1.353 . S
C889 O888 1.286 . S
C889 C891 1.363 . S
C890 C880 1.465 1_565 S
C890 U886 2.847 1_455 S
C890 O904 1.249 . S
C890 O905 1.213 . S
C891 C889 1.363 . S
C891 C893 1.408 . S
C891 C896 1.342 . S
C892 C893 1.310 . S
C892 C895 1.461 . S
C892 H912 0.932 . S
C893 C891 1.408 . S
C893 C892 1.310 . S
C893 H913 0.930 . S
C894 C895 1.474 . S
C894 C896 1.285 . S
C894 H914 0.929 . S
C895 C892 1.461 . S
C895 C894 1.474 . S
C896 C891 1.342 . S
C896 C894 1.285 . S
C896 H915 0.930 . S
C897 C900 1.424 . S
C897 C902 1.245 . S
C897 C903 1.428 . S
C898 C901 1.260 . S
C898 C902 1.477 . S
C898 H916 0.932 . S
C899 C900 1.384 . S
C899 C901 1.479 . S
C899 H917 0.929 . S
C900 C897 1.424 . S
C900 C899 1.384 . S
C900 H918 0.928 . S
C901 C898 1.260 . S
C901 C899 1.479 . S
C902 C897 1.245 . S
C902 C898 1.477 . S
C902 H919 0.932 . S
C903 U886 2.882 . S
C903 C897 1.428 . S
C903 O906 1.301 . S
C903 O907 1.282 . S
O904 U886 2.441 1_455 S
O904 C890 1.249 . S
O905 U886 2.414 1_455 S
O905 C890 1.213 . S
O906 U886 2.455 . S
O906 C903 1.301 . S
O907 U886 2.449 . S
O907 C903 1.282 . S
H908 C881 0.931 . S
H909 C883 0.929 . S
H910 C884 0.930 . S
H911 C885 0.931 . S
H912 C892 0.932 . S
H913 C893 0.930 . S
H914 C894 0.929 . S
H915 C896 0.930 . S
H916 C898 0.932 . S
H917 C899 0.929 . S
H918 C900 0.928 . S
H919 C902 0.932 . S
C920 C921 1.264 . S
C920 C925 1.479 . S
C920 C930 1.465 . S
C921 C920 1.264 . S
C921 C923 1.339 . S
C921 H948 0.931 . S
C922 C923 1.395 . S
C922 C924 1.320 . S
C923 C921 1.339 . S
C923 C922 1.395 . S
C923 H949 0.929 . S
C924 C922 1.320 . S
C924 C925 1.405 . S
C924 H950 0.930 . S
C925 C920 1.479 . S
C925 C924 1.405 . S
C925 H951 0.931 . S
U926 O927 2.454 . S
U926 O928 2.458 . S
U926 C929 2.984 . S
U926 C930 2.847 . S
U926 C943 2.882 . S
U926 O944 2.441 . S
U926 O945 2.420 . S
U926 O946 2.455 . S
U926 O947 2.449 . S
O927 U926 2.454 . S
O927 C929 1.353 . S
O928 U926 2.458 . S
O928 C929 1.286 . S
C929 U926 2.984 . S
C929 O927 1.353 . S
C929 O928 1.286 . S
C929 C931 1.363 . S
C930 C920 1.465 . S
C930 U926 2.847 . S
C930 O944 1.249 . S
C930 O945 1.202 . S
C931 C929 1.363 . S
C931 C933 1.408 . S
C931 C936 1.342 . S
C932 C933 1.310 . S
C932 C935 1.461 . S
C932 H952 0.932 . S
C933 C931 1.408 . S
C933 C932 1.310 . S
C933 H953 0.930 . S
C934 C935 1.474 . S
C934 C936 1.285 . S
C934 H954 0.929 . S
C935 C932 1.461 . S
C935 C934 1.474 . S
C936 C931 1.342 . S
C936 C934 1.285 . S
C936 H955 0.930 . S
C937 C940 1.424 . S
C937 C942 1.245 . S
C937 C943 1.428 . S
C938 C941 1.260 . S
C938 C942 1.477 . S
C938 H956 0.932 . S
C939 C940 1.384 . S
C939 C941 1.479 . S
C939 H957 0.929 . S
C940 C937 1.424 . S
C940 C939 1.384 . S
C940 H958 0.928 . S
C941 C938 1.260 . S
C941 C939 1.479 . S
C942 C937 1.245 . S
C942 C938 1.477 . S
C942 H959 0.932 . S
C943 U926 2.882 . S
C943 C937 1.428 . S
C943 O946 1.301 . S
C943 O947 1.282 . S
O944 U926 2.441 . S
O944 C930 1.249 . S
O945 U926 2.420 . S
O945 C930 1.202 . S
O946 U926 2.455 . S
O946 C943 1.301 . S
O947 U926 2.449 . S
O947 C943 1.282 . S
H948 C921 0.931 . S
H949 C923 0.929 . S
H950 C924 0.930 . S
H951 C925 0.931 . S
H952 C932 0.932 . S
H953 C933 0.930 . S
H954 C934 0.929 . S
H955 C936 0.930 . S
H956 C938 0.932 . S
H957 C939 0.929 . S
H958 C940 0.928 . S
H959 C942 0.932 . S
C960 C961 1.264 . S
C960 C965 1.479 . S
C960 C970 1.465 . S
C961 C960 1.264 . S
C961 C963 1.339 . S
C961 H988 0.931 . S
C962 C963 1.395 . S
C962 C964 1.320 . S
C963 C961 1.339 . S
C963 C962 1.395 . S
C963 H989 0.929 . S
C964 C962 1.320 . S
C964 C965 1.405 . S
C964 H990 0.930 . S
C965 C960 1.479 . S
C965 C964 1.405 . S
C965 H991 0.931 . S
U966 O967 2.454 . S
U966 O968 2.458 1_655 S
U966 C969 2.984 1_655 S
U966 C970 2.847 . S
U966 C983 2.882 . S
U966 O984 2.441 . S
U966 O985 2.420 . S
U966 O986 2.455 1_655 S
U966 O987 2.449 . S
O967 U966 2.454 . S
O967 C969 1.353 1_655 S
O968 U966 2.458 1_455 S
O968 C969 1.286 . S
C969 U966 2.984 1_455 S
C969 O967 1.353 1_455 S
C969 O968 1.286 . S
C969 C971 1.363 . S
C970 C960 1.465 . S
C970 U966 2.847 . S
C970 O984 1.249 . S
C970 O985 1.202 . S
C971 C969 1.363 . S
C971 C973 1.408 . S
C971 C976 1.342 . S
C972 C973 1.310 . S
C972 C975 1.461 . S
C972 H992 0.932 . S
C973 C971 1.408 . S
C973 C972 1.310 . S
C973 H993 0.930 1_455 S
C974 C975 1.474 . S
C974 C976 1.285 . S
C974 H994 0.929 . S
C975 C972 1.461 . S
C975 C974 1.474 . S
C976 C971 1.342 . S
C976 C974 1.285 . S
C976 H995 0.930 . S
C977 C980 1.424 . S
C977 C982 1.245 . S
C977 C983 1.428 1_455 S
C978 C981 1.260 . S
C978 C982 1.477 . S
C978 H996 0.932 . S
C979 C980 1.384 . S
C979 C981 1.479 . S
C979 H997 0.929 . S
C980 C977 1.424 . S
C980 C979 1.384 . S
C980 H998 0.930 1_455 S
C981 C978 1.260 . S
C981 C979 1.479 . S
C982 C977 1.245 . S
C982 C978 1.477 . S
C982 H999 0.932 . S
C983 U966 2.882 . S
C983 C977 1.428 1_655 S
C983 O986 1.301 1_655 S
C983 O987 1.282 . S
O984 U966 2.441 . S
O984 C970 1.249 . S
O985 U966 2.420 . S
O985 C970 1.202 . S
O986 U966 2.455 1_455 S
O986 C983 1.301 1_455 S
O987 U966 2.449 . S
O987 C983 1.282 . S
H988 C961 0.931 . S
H989 C963 0.929 . S
H990 C964 0.930 . S
H991 C965 0.931 . S
H992 C972 0.932 . S
H993 C973 0.930 1_655 S
H994 C974 0.929 . S
H995 C976 0.930 . S
H996 C978 0.932 . S
H997 C979 0.929 . S
H998 C980 0.930 1_655 S
H999 C982 0.932 . S
C1000 C1001 1.264 . S
C1000 C1005 1.479 . S
C1000 C1010 1.465 . S
C1001 C1000 1.264 . S
C1001 C1003 1.339 . S
C1001 H1028 0.931 . S
C1002 C1003 1.395 . S
C1002 C1004 1.320 . S
C1003 C1001 1.339 . S
C1003 C1002 1.395 . S
C1003 H1029 0.929 . S
C1004 C1002 1.320 . S
C1004 C1005 1.405 . S
C1004 H1030 0.930 . S
C1005 C1000 1.479 . S
C1005 C1004 1.405 . S
C1005 H1031 0.931 . S
U1006 O1007 2.454 . S
U1006 O1008 2.458 . S
U1006 C1009 2.984 . S
U1006 C1010 2.847 . S
U1006 C1023 2.882 . S
U1006 O1024 2.441 . S
U1006 O1025 2.420 . S
U1006 O1026 2.455 . S
U1006 O1027 2.449 . S
O1007 U1006 2.454 . S
O1007 C1009 1.353 . S
O1008 U1006 2.458 . S
O1008 C1009 1.286 . S
C1009 U1006 2.984 . S
C1009 O1007 1.353 . S
C1009 O1008 1.286 . S
C1009 C1011 1.363 . S
C1010 C1000 1.465 . S
C1010 U1006 2.847 . S
C1010 O1024 1.249 . S
C1010 O1025 1.202 . S
C1011 C1009 1.363 . S
C1011 C1013 1.408 . S
C1011 C1016 1.342 . S
C1012 C1013 1.310 . S
C1012 C1015 1.461 . S
C1012 H1032 0.932 . S
C1013 C1011 1.408 . S
C1013 C1012 1.310 . S
C1013 H1033 0.930 . S
C1014 C1015 1.474 . S
C1014 C1016 1.285 . S
C1014 H1034 0.929 . S
C1015 C1012 1.461 . S
C1015 C1014 1.474 . S
C1016 C1011 1.342 . S
C1016 C1014 1.285 . S
C1016 H1035 0.930 . S
C1017 C1020 1.424 . S
C1017 C1022 1.245 . S
C1017 C1023 1.428 . S
C1018 C1021 1.260 . S
C1018 C1022 1.477 . S
C1018 H1036 0.932 . S
C1019 C1020 1.384 . S
C1019 C1021 1.479 . S
C1019 H1037 0.929 . S
C1020 C1017 1.424 . S
C1020 C1019 1.384 . S
C1020 H1038 0.928 . S
C1021 C1018 1.260 . S
C1021 C1019 1.479 . S
C1022 C1017 1.245 . S
C1022 C1018 1.477 . S
C1022 H1039 0.932 . S
C1023 U1006 2.882 . S
C1023 C1017 1.428 . S
C1023 O1026 1.301 . S
C1023 O1027 1.282 . S
O1024 U1006 2.441 . S
O1024 C1010 1.249 . S
O1025 U1006 2.420 . S
O1025 C1010 1.202 . S
O1026 U1006 2.455 . S
O1026 C1023 1.301 . S
O1027 U1006 2.449 . S
O1027 C1023 1.282 . S
H1028 C1001 0.931 . S
H1029 C1003 0.929 . S
H1030 C1004 0.930 . S
H1031 C1005 0.931 . S
H1032 C1012 0.932 . S
H1033 C1013 0.930 . S
H1034 C1014 0.929 . S
H1035 C1016 0.930 . S
H1036 C1018 0.932 . S
H1037 C1019 0.929 . S
H1038 C1020 0.928 . S
H1039 C1022 0.932 . S
C1040 C1041 1.264 . S
C1040 C1045 1.479 . S
C1040 C1050 1.465 . S
C1041 C1040 1.264 . S
C1041 C1043 1.339 . S
C1041 H1068 0.931 . S
C1042 C1043 1.395 . S
C1042 C1044 1.320 . S
C1043 C1041 1.339 . S
C1043 C1042 1.395 . S
C1043 H1069 0.929 . S
C1044 C1042 1.320 . S
C1044 C1045 1.405 . S
C1044 H1070 0.930 . S
C1045 C1040 1.479 . S
C1045 C1044 1.405 . S
C1045 H1071 0.931 . S
U1046 O1047 2.454 . S
U1046 O1048 2.458 1_655 S
U1046 C1049 2.984 1_655 S
U1046 C1050 2.847 . S
U1046 C1063 2.882 . S
U1046 O1064 2.441 . S
U1046 O1065 2.420 . S
U1046 O1066 2.455 1_655 S
U1046 O1067 2.449 . S
O1047 U1046 2.454 . S
O1047 C1049 1.353 1_655 S
O1048 U1046 2.458 1_455 S
O1048 C1049 1.286 . S
C1049 U1046 2.984 1_455 S
C1049 O1047 1.353 1_455 S
C1049 O1048 1.286 . S
C1049 C1051 1.363 . S
C1050 C1040 1.465 . S
C1050 U1046 2.847 . S
C1050 O1064 1.249 . S
C1050 O1065 1.202 . S
C1051 C1049 1.363 . S
C1051 C1053 1.408 . S
C1051 C1056 1.342 . S
C1052 C1053 1.310 . S
C1052 C1055 1.461 . S
C1052 H1072 0.932 . S
C1053 C1051 1.408 . S
C1053 C1052 1.310 . S
C1053 H1073 0.930 1_455 S
C1054 C1055 1.474 . S
C1054 C1056 1.285 . S
C1054 H1074 0.929 . S
C1055 C1052 1.461 . S
C1055 C1054 1.474 . S
C1056 C1051 1.342 . S
C1056 C1054 1.285 . S
C1056 H1075 0.930 . S
C1057 C1060 1.424 . S
C1057 C1062 1.245 . S
C1057 C1063 1.428 1_455 S
C1058 C1061 1.260 . S
C1058 C1062 1.477 . S
C1058 H1076 0.932 . S
C1059 C1060 1.384 . S
C1059 C1061 1.479 . S
C1059 H1077 0.929 . S
C1060 C1057 1.424 . S
C1060 C1059 1.384 . S
C1060 H1078 0.930 1_455 S
C1061 C1058 1.260 . S
C1061 C1059 1.479 . S
C1062 C1057 1.245 . S
C1062 C1058 1.477 . S
C1062 H1079 0.932 . S
C1063 U1046 2.882 . S
C1063 C1057 1.428 1_655 S
C1063 O1066 1.301 1_655 S
C1063 O1067 1.282 . S
O1064 U1046 2.441 . S
O1064 C1050 1.249 . S
O1065 U1046 2.420 . S
O1065 C1050 1.202 . S
O1066 U1046 2.455 1_455 S
O1066 C1063 1.301 1_455 S
O1067 U1046 2.449 . S
O1067 C1063 1.282 . S
H1068 C1041 0.931 . S
H1069 C1043 0.929 . S
H1070 C1044 0.930 . S
H1071 C1045 0.931 . S
H1072 C1052 0.932 . S
H1073 C1053 0.930 1_655 S
H1074 C1054 0.929 . S
H1075 C1056 0.930 . S
H1076 C1058 0.932 . S
H1077 C1059 0.929 . S
H1078 C1060 0.930 1_655 S
H1079 C1062 0.932 . S
C1080 C1081 1.264 . S
C1080 C1085 1.479 . S
C1080 C1090 1.465 . S
C1081 C1080 1.264 . S
C1081 C1083 1.339 . S
C1081 H1108 0.931 . S
C1082 C1083 1.395 . S
C1082 C1084 1.320 . S
C1083 C1081 1.339 . S
C1083 C1082 1.395 . S
C1083 H1109 0.929 . S
C1084 C1082 1.320 . S
C1084 C1085 1.405 . S
C1084 H1110 0.930 . S
C1085 C1080 1.479 . S
C1085 C1084 1.405 . S
C1085 H1111 0.931 . S
U1086 O1087 2.454 . S
U1086 O1088 2.458 . S
U1086 C1089 2.984 . S
U1086 C1090 2.847 . S
U1086 C1103 2.882 . S
U1086 O1104 2.441 . S
U1086 O1105 2.420 . S
U1086 O1106 2.455 . S
U1086 O1107 2.449 . S
O1087 U1086 2.454 . S
O1087 C1089 1.353 . S
O1088 U1086 2.458 . S
O1088 C1089 1.286 . S
C1089 U1086 2.984 . S
C1089 O1087 1.353 . S
C1089 O1088 1.286 . S
C1089 C1091 1.363 . S
C1090 C1080 1.465 . S
C1090 U1086 2.847 . S
C1090 O1104 1.249 . S
C1090 O1105 1.202 . S
C1091 C1089 1.363 . S
C1091 C1093 1.408 . S
C1091 C1096 1.342 . S
C1092 C1093 1.310 . S
C1092 C1095 1.461 . S
C1092 H1112 0.932 . S
C1093 C1091 1.408 . S
C1093 C1092 1.310 . S
C1093 H1113 0.930 . S
C1094 C1095 1.474 . S
C1094 C1096 1.285 . S
C1094 H1114 0.929 . S
C1095 C1092 1.461 . S
C1095 C1094 1.474 . S
C1096 C1091 1.342 . S
C1096 C1094 1.285 . S
C1096 H1115 0.930 . S
C1097 C1100 1.424 . S
C1097 C1102 1.245 . S
C1097 C1103 1.428 . S
C1098 C1101 1.260 . S
C1098 C1102 1.477 . S
C1098 H1116 0.932 . S
C1099 C1100 1.384 . S
C1099 C1101 1.479 . S
C1099 H1117 0.929 . S
C1100 C1097 1.424 . S
C1100 C1099 1.384 . S
C1100 H1118 0.928 . S
C1101 C1098 1.260 . S
C1101 C1099 1.479 . S
C1102 C1097 1.245 . S
C1102 C1098 1.477 . S
C1102 H1119 0.932 . S
C1103 U1086 2.882 . S
C1103 C1097 1.428 . S
C1103 O1106 1.301 . S
C1103 O1107 1.282 . S
O1104 U1086 2.441 . S
O1104 C1090 1.249 . S
O1105 U1086 2.420 . S
O1105 C1090 1.202 . S
O1106 U1086 2.455 . S
O1106 C1103 1.301 . S
O1107 U1086 2.449 . S
O1107 C1103 1.282 . S
H1108 C1081 0.931 . S
H1109 C1083 0.929 . S
H1110 C1084 0.930 . S
H1111 C1085 0.931 . S
H1112 C1092 0.932 . S
H1113 C1093 0.930 . S
H1114 C1094 0.929 . S
H1115 C1096 0.930 . S
H1116 C1098 0.932 . S
H1117 C1099 0.929 . S
H1118 C1100 0.928 . S
H1119 C1102 0.932 . S
C1120 C1121 1.264 . S
C1120 C1125 1.479 . S
C1120 C1130 1.465 . S
C1121 C1120 1.264 . S
C1121 C1123 1.339 . S
C1121 H1148 0.931 . S
C1122 C1123 1.395 . S
C1122 C1124 1.320 . S
C1123 C1121 1.339 . S
C1123 C1122 1.395 . S
C1123 H1149 0.929 . S
C1124 C1122 1.320 . S
C1124 C1125 1.405 . S
C1124 H1150 0.930 . S
C1125 C1120 1.479 . S
C1125 C1124 1.405 . S
C1125 H1151 0.931 . S
U1126 O1127 2.454 . S
U1126 O1128 2.458 . S
U1126 C1129 2.984 . S
U1126 C1130 2.847 1_655 S
U1126 C1143 2.882 . S
U1126 O1144 2.441 1_655 S
U1126 O1145 2.414 1_655 S
U1126 O1146 2.455 . S
U1126 O1147 2.449 . S
O1127 U1126 2.454 . S
O1127 C1129 1.353 . S
O1128 U1126 2.458 . S
O1128 C1129 1.286 . S
C1129 U1126 2.984 . S
C1129 O1127 1.353 . S
C1129 O1128 1.286 . S
C1129 C1131 1.363 . S
C1130 C1120 1.465 . S
C1130 U1126 2.847 1_455 S
C1130 O1144 1.249 . S
C1130 O1145 1.213 . S
C1131 C1129 1.363 . S
C1131 C1133 1.408 . S
C1131 C1136 1.342 . S
C1132 C1133 1.310 . S
C1132 C1135 1.461 . S
C1132 H1152 0.932 . S
C1133 C1131 1.408 . S
C1133 C1132 1.310 . S
C1133 H1153 0.930 . S
C1134 C1135 1.474 . S
C1134 C1136 1.285 . S
C1134 H1154 0.929 . S
C1135 C1132 1.461 . S
C1135 C1134 1.474 . S
C1136 C1131 1.342 . S
C1136 C1134 1.285 . S
C1136 H1155 0.930 . S
C1137 C1140 1.424 . S
C1137 C1142 1.245 . S
C1137 C1143 1.428 . S
C1138 C1141 1.260 . S
C1138 C1142 1.477 . S
C1138 H1156 0.932 . S
C1139 C1140 1.384 . S
C1139 C1141 1.479 . S
C1139 H1157 0.929 . S
C1140 C1137 1.424 . S
C1140 C1139 1.384 . S
C1140 H1158 0.928 . S
C1141 C1138 1.260 . S
C1141 C1139 1.479 . S
C1142 C1137 1.245 . S
C1142 C1138 1.477 . S
C1142 H1159 0.932 . S
C1143 U1126 2.882 . S
C1143 C1137 1.428 . S
C1143 O1146 1.301 . S
C1143 O1147 1.282 . S
O1144 U1126 2.441 1_455 S
O1144 C1130 1.249 . S
O1145 U1126 2.414 1_455 S
O1145 C1130 1.213 . S
O1146 U1126 2.455 . S
O1146 C1143 1.301 . S
O1147 U1126 2.449 . S
O1147 C1143 1.282 . S
H1148 C1121 0.931 . S
H1149 C1123 0.929 . S
H1150 C1124 0.930 . S
H1151 C1125 0.931 . S
H1152 C1132 0.932 . S
H1153 C1133 0.930 . S
H1154 C1134 0.929 . S
H1155 C1136 0.930 . S
H1156 C1138 0.932 . S
H1157 C1139 0.929 . S
H1158 C1140 0.928 . S
H1159 C1142 0.932 . S
C1160 C1161 1.264 . S
C1160 C1165 1.479 . S
C1160 C1170 1.465 . S
C1161 C1160 1.264 . S
C1161 C1163 1.339 . S
C1161 H1188 0.931 . S
C1162 C1163 1.395 . S
C1162 C1164 1.320 . S
C1163 C1161 1.339 . S
C1163 C1162 1.395 . S
C1163 H1189 0.929 . S
C1164 C1162 1.320 . S
C1164 C1165 1.405 . S
C1164 H1190 0.930 . S
C1165 C1160 1.479 . S
C1165 C1164 1.405 . S
C1165 H1191 0.931 . S
U1166 O1167 2.454 . S
U1166 O1168 2.458 . S
U1166 C1169 2.984 . S
U1166 C1170 2.847 . S
U1166 C1183 2.882 . S
U1166 O1184 2.441 . S
U1166 O1185 2.420 . S
U1166 O1186 2.455 . S
U1166 O1187 2.449 . S
O1167 U1166 2.454 . S
O1167 C1169 1.353 . S
O1168 U1166 2.458 . S
O1168 C1169 1.286 . S
C1169 U1166 2.984 . S
C1169 O1167 1.353 . S
C1169 O1168 1.286 . S
C1169 C1171 1.363 . S
C1170 C1160 1.465 . S
C1170 U1166 2.847 . S
C1170 O1184 1.249 . S
C1170 O1185 1.202 . S
C1171 C1169 1.363 . S
C1171 C1173 1.408 . S
C1171 C1176 1.342 . S
C1172 C1173 1.310 . S
C1172 C1175 1.461 . S
C1172 H1192 0.932 . S
C1173 C1171 1.408 . S
C1173 C1172 1.310 . S
C1173 H1193 0.930 . S
C1174 C1175 1.474 . S
C1174 C1176 1.285 . S
C1174 H1194 0.929 . S
C1175 C1172 1.461 . S
C1175 C1174 1.474 . S
C1176 C1171 1.342 . S
C1176 C1174 1.285 . S
C1176 H1195 0.930 . S
C1177 C1180 1.424 . S
C1177 C1182 1.245 . S
C1177 C1183 1.428 . S
C1178 C1181 1.260 . S
C1178 C1182 1.477 . S
C1178 H1196 0.932 . S
C1179 C1180 1.384 . S
C1179 C1181 1.479 . S
C1179 H1197 0.929 . S
C1180 C1177 1.424 . S
C1180 C1179 1.384 . S
C1180 H1198 0.928 . S
C1181 C1178 1.260 . S
C1181 C1179 1.479 . S
C1182 C1177 1.245 . S
C1182 C1178 1.477 . S
C1182 H1199 0.932 . S
C1183 U1166 2.882 . S
C1183 C1177 1.428 . S
C1183 O1186 1.301 . S
C1183 O1187 1.282 . S
O1184 U1166 2.441 . S
O1184 C1170 1.249 . S
O1185 U1166 2.420 . S
O1185 C1170 1.202 . S
O1186 U1166 2.455 . S
O1186 C1183 1.301 . S
O1187 U1166 2.449 . S
O1187 C1183 1.282 . S
H1188 C1161 0.931 . S
H1189 C1163 0.929 . S
H1190 C1164 0.930 . S
H1191 C1165 0.931 . S
H1192 C1172 0.932 . S
H1193 C1173 0.930 . S
H1194 C1174 0.929 . S
H1195 C1176 0.930 . S
H1196 C1178 0.932 . S
H1197 C1179 0.929 . S
H1198 C1180 0.928 . S
H1199 C1182 0.932 . S
C1200 C1201 1.264 . S
C1200 C1205 1.479 . S
C1200 C1210 1.465 . S
C1201 C1200 1.264 . S
C1201 C1203 1.339 . S
C1201 H1228 0.931 . S
C1202 C1203 1.395 . S
C1202 C1204 1.320 . S
C1203 C1201 1.339 . S
C1203 C1202 1.395 . S
C1203 H1229 0.929 . S
C1204 C1202 1.320 . S
C1204 C1205 1.405 . S
C1204 H1230 0.930 . S
C1205 C1200 1.479 . S
C1205 C1204 1.405 . S
C1205 H1231 0.931 . S
U1206 O1207 2.454 . S
U1206 O1208 2.458 . S
U1206 C1209 2.984 . S
U1206 C1210 2.847 1_655 S
U1206 C1223 2.882 . S
U1206 O1224 2.441 1_655 S
U1206 O1225 2.414 1_655 S
U1206 O1226 2.455 . S
U1206 O1227 2.449 . S
O1207 U1206 2.454 . S
O1207 C1209 1.353 . S
O1208 U1206 2.458 . S
O1208 C1209 1.286 . S
C1209 U1206 2.984 . S
C1209 O1207 1.353 . S
C1209 O1208 1.286 . S
C1209 C1211 1.363 . S
C1210 C1200 1.465 . S
C1210 U1206 2.847 1_455 S
C1210 O1224 1.249 . S
C1210 O1225 1.213 . S
C1211 C1209 1.363 . S
C1211 C1213 1.408 . S
C1211 C1216 1.342 . S
C1212 C1213 1.310 . S
C1212 C1215 1.461 . S
C1212 H1232 0.932 . S
C1213 C1211 1.408 . S
C1213 C1212 1.310 . S
C1213 H1233 0.930 . S
C1214 C1215 1.474 . S
C1214 C1216 1.285 . S
C1214 H1234 0.929 . S
C1215 C1212 1.461 . S
C1215 C1214 1.474 . S
C1216 C1211 1.342 . S
C1216 C1214 1.285 . S
C1216 H1235 0.930 . S
C1217 C1220 1.424 . S
C1217 C1222 1.245 . S
C1217 C1223 1.428 . S
C1218 C1221 1.260 . S
C1218 C1222 1.477 . S
C1218 H1236 0.932 . S
C1219 C1220 1.384 . S
C1219 C1221 1.479 . S
C1219 H1237 0.929 . S
C1220 C1217 1.424 . S
C1220 C1219 1.384 . S
C1220 H1238 0.928 . S
C1221 C1218 1.260 . S
C1221 C1219 1.479 . S
C1222 C1217 1.245 . S
C1222 C1218 1.477 . S
C1222 H1239 0.932 . S
C1223 U1206 2.882 . S
C1223 C1217 1.428 . S
C1223 O1226 1.301 . S
C1223 O1227 1.282 . S
O1224 U1206 2.441 1_455 S
O1224 C1210 1.249 . S
O1225 U1206 2.414 1_455 S
O1225 C1210 1.213 . S
O1226 U1206 2.455 . S
O1226 C1223 1.301 . S
O1227 U1206 2.449 . S
O1227 C1223 1.282 . S
H1228 C1201 0.931 . S
H1229 C1203 0.929 . S
H1230 C1204 0.930 . S
H1231 C1205 0.931 . S
H1232 C1212 0.932 . S
H1233 C1213 0.930 . S
H1234 C1214 0.929 . S
H1235 C1216 0.930 . S
H1236 C1218 0.932 . S
H1237 C1219 0.929 . S
H1238 C1220 0.928 . S
H1239 C1222 0.932 . S
C1240 C1241 1.264 . S
C1240 C1245 1.479 . S
C1240 C1250 1.465 . S
C1241 C1240 1.264 . S
C1241 C1243 1.339 . S
C1241 H1268 0.931 . S
C1242 C1243 1.395 . S
C1242 C1244 1.320 . S
C1243 C1241 1.339 . S
C1243 C1242 1.395 . S
C1243 H1269 0.929 . S
C1244 C1242 1.320 . S
C1244 C1245 1.405 . S
C1244 H1270 0.930 . S
C1245 C1240 1.479 . S
C1245 C1244 1.405 . S
C1245 H1271 0.931 . S
U1246 O1247 2.454 . S
U1246 O1248 2.458 . S
U1246 C1249 2.984 . S
U1246 C1250 2.847 . S
U1246 C1263 2.882 . S
U1246 O1264 2.441 . S
U1246 O1265 2.420 . S
U1246 O1266 2.455 . S
U1246 O1267 2.449 . S
O1247 U1246 2.454 . S
O1247 C1249 1.353 . S
O1248 U1246 2.458 . S
O1248 C1249 1.286 . S
C1249 U1246 2.984 . S
C1249 O1247 1.353 . S
C1249 O1248 1.286 . S
C1249 C1251 1.363 . S
C1250 C1240 1.465 . S
C1250 U1246 2.847 . S
C1250 O1264 1.249 . S
C1250 O1265 1.202 . S
C1251 C1249 1.363 . S
C1251 C1253 1.408 . S
C1251 C1256 1.342 . S
C1252 C1253 1.310 . S
C1252 C1255 1.461 . S
C1252 H1272 0.932 . S
C1253 C1251 1.408 . S
C1253 C1252 1.310 . S
C1253 H1273 0.930 . S
C1254 C1255 1.474 . S
C1254 C1256 1.285 . S
C1254 H1274 0.929 . S
C1255 C1252 1.461 . S
C1255 C1254 1.474 . S
C1256 C1251 1.342 . S
C1256 C1254 1.285 . S
C1256 H1275 0.930 . S
C1257 C1260 1.424 . S
C1257 C1262 1.245 . S
C1257 C1263 1.428 . S
C1258 C1261 1.260 . S
C1258 C1262 1.477 . S
C1258 H1276 0.932 . S
C1259 C1260 1.384 . S
C1259 C1261 1.479 . S
C1259 H1277 0.929 . S
C1260 C1257 1.424 . S
C1260 C1259 1.384 . S
C1260 H1278 0.928 . S
C1261 C1258 1.260 . S
C1261 C1259 1.479 . S
C1262 C1257 1.245 . S
C1262 C1258 1.477 . S
C1262 H1279 0.932 . S
C1263 U1246 2.882 . S
C1263 C1257 1.428 . S
C1263 O1266 1.301 . S
C1263 O1267 1.282 . S
O1264 U1246 2.441 . S
O1264 C1250 1.249 . S
O1265 U1246 2.420 . S
O1265 C1250 1.202 . S
O1266 U1246 2.455 . S
O1266 C1263 1.301 . S
O1267 U1246 2.449 . S
O1267 C1263 1.282 . S
H1268 C1241 0.931 . S
H1269 C1243 0.929 . S
H1270 C1244 0.930 . S
H1271 C1245 0.931 . S
H1272 C1252 0.932 . S
H1273 C1253 0.930 . S
H1274 C1254 0.929 . S
H1275 C1256 0.930 . S
H1276 C1258 0.932 . S
H1277 C1259 0.929 . S
H1278 C1260 0.928 . S
H1279 C1262 0.932 . S
H1280 C1298 0.951 . S
H1281 C1300 0.951 . S
H1282 C1302 0.950 . S
H1283 C1303 0.950 . S
H1284 C1305 0.950 . S
H1285 C1308 0.950 . S
H1286 C1309 0.950 . S
H1287 C1311 0.950 . S
H1288 C1312 0.950 . S
H1289 C1313 0.951 . S
H1290 C1315 0.951 . S
H1291 C1317 0.950 . S
H1292 C1318 0.950 . S
H1293 C1320 0.950 . S
H1294 C1323 0.950 . S
H1295 C1324 0.950 . S
H1296 C1326 0.950 . S
H1297 C1327 0.950 . S
C1298 H1280 0.951 . S
C1298 C1299 1.366 . S
C1298 C1300 1.388 . S
C1299 C1298 1.366 . S
C1299 C1303 1.385 . S
C1300 H1281 0.951 . S
C1300 C1298 1.388 . S
C1300 C1301 1.366 . S
C1301 C1300 1.366 . S
C1301 C1302 1.414 . S
C1301 C1304 1.499 . S
C1302 H1282 0.950 . S
C1302 C1301 1.414 . S
C1302 C1303 1.374 . S
C1303 H1283 0.950 . S
C1303 C1299 1.385 . S
C1303 C1302 1.374 . S
C1304 C1301 1.499 . S
C1304 C1305 1.373 . S
C1304 C1306 1.389 . S
C1305 H1284 0.950 . S
C1305 C1304 1.373 . S
C1305 C1321 1.377 . S
C1306 C1304 1.389 . S
C1306 C1307 1.524 . S
C1306 C1320 1.377 . S
C1307 C1306 1.524 . S
C1307 C1308 1.397 . S
C1307 C1312 1.363 . S
C1308 H1285 0.950 . S
C1308 C1307 1.397 . S
C1308 C1309 1.334 . S
C1309 H1286 0.950 . S
C1309 C1308 1.334 . S
C1309 C1310 1.287 . S
C1310 C1309 1.287 . S
C1310 C1311 1.524 . S
C1310 H1329 0.913 . S
C1311 H1287 0.950 . S
C1311 C1310 1.524 . S
C1311 C1312 1.415 . S
C1312 H1288 0.950 . S
C1312 C1307 1.363 . S
C1312 C1311 1.415 . S
C1313 H1289 0.951 . S
C1313 C1314 1.366 . S
C1313 C1315 1.388 . S
C1314 C1313 1.366 . S
C1314 C1318 1.385 . S
C1315 H1290 0.951 . S
C1315 C1313 1.388 . S
C1315 C1316 1.366 . S
C1316 C1315 1.366 . S
C1316 C1317 1.414 . S
C1316 C1319 1.499 . S
C1317 H1291 0.950 . S
C1317 C1316 1.414 . S
C1317 C1318 1.374 . S
C1318 H1292 0.950 . S
C1318 C1314 1.385 . S
C1318 C1317 1.374 . S
C1319 C1316 1.499 . S
C1319 C1320 1.373 . S
C1319 C1321 1.389 . S
C1320 H1293 0.950 . S
C1320 C1306 1.377 . S
C1320 C1319 1.373 . S
C1321 C1305 1.377 . S
C1321 C1319 1.389 . S
C1321 C1322 1.524 . S
C1322 C1321 1.524 . S
C1322 C1323 1.397 . S
C1322 C1327 1.363 . S
C1323 H1294 0.950 . S
C1323 C1322 1.397 . S
C1323 C1324 1.334 . S
C1324 H1295 0.950 . S
C1324 C1323 1.334 . S
C1324 C1325 1.287 . S
C1325 C1324 1.287 . S
C1325 C1326 1.524 . S
C1325 H1328 0.999 . S
C1326 H1296 0.950 . S
C1326 C1325 1.524 . S
C1326 C1327 1.415 . S
C1327 H1297 0.950 . S
C1327 C1322 1.363 . S
C1327 C1326 1.415 . S
H1328 C1325 0.999 . S
H1329 C1310 0.913 . S
H1330 C1348 0.951 . S
H1331 C1350 0.951 . S
H1332 C1352 0.950 . S
H1333 C1353 0.950 . S
H1334 C1355 0.950 . S
H1335 C1358 0.950 . S
H1336 C1359 0.950 . S
H1337 C1361 0.950 . S
H1338 C1362 0.950 . S
H1339 C1363 0.951 . S
H1340 C1365 0.951 . S
H1341 C1367 0.950 . S
H1342 C1368 0.950 . S
H1343 C1370 0.950 . S
H1344 C1373 0.950 . S
H1345 C1374 0.950 . S
H1346 C1376 0.950 . S
H1347 C1377 0.950 . S
C1348 H1330 0.951 . S
C1348 C1349 1.366 . S
C1348 C1350 1.388 . S
C1349 C1348 1.366 . S
C1349 C1353 1.385 . S
C1350 H1331 0.951 . S
C1350 C1348 1.388 . S
C1350 C1351 1.366 . S
C1351 C1350 1.366 . S
C1351 C1352 1.414 . S
C1351 C1354 1.499 . S
C1352 H1332 0.950 . S
C1352 C1351 1.414 . S
C1352 C1353 1.374 . S
C1353 H1333 0.950 . S
C1353 C1349 1.385 . S
C1353 C1352 1.374 . S
C1354 C1351 1.499 . S
C1354 C1355 1.373 . S
C1354 C1356 1.389 . S
C1355 H1334 0.950 . S
C1355 C1354 1.373 . S
C1355 C1371 1.377 . S
C1356 C1354 1.389 . S
C1356 C1357 1.524 . S
C1356 C1370 1.377 . S
C1357 C1356 1.524 . S
C1357 C1358 1.397 . S
C1357 C1362 1.363 . S
C1358 H1335 0.950 . S
C1358 C1357 1.397 . S
C1358 C1359 1.334 . S
C1359 H1336 0.950 . S
C1359 C1358 1.334 . S
C1359 C1360 1.287 . S
C1360 C1359 1.287 . S
C1360 C1361 1.524 . S
C1360 H1379 0.913 . S
C1361 H1337 0.950 . S
C1361 C1360 1.524 . S
C1361 C1362 1.415 . S
C1362 H1338 0.950 . S
C1362 C1357 1.363 . S
C1362 C1361 1.415 . S
C1363 H1339 0.951 . S
C1363 C1364 1.366 . S
C1363 C1365 1.388 . S
C1364 C1363 1.366 . S
C1364 C1368 1.385 . S
C1365 H1340 0.951 . S
C1365 C1363 1.388 . S
C1365 C1366 1.366 . S
C1366 C1365 1.366 . S
C1366 C1367 1.414 . S
C1366 C1369 1.499 . S
C1367 H1341 0.950 . S
C1367 C1366 1.414 . S
C1367 C1368 1.374 . S
C1368 H1342 0.950 . S
C1368 C1364 1.385 . S
C1368 C1367 1.374 . S
C1369 C1366 1.499 . S
C1369 C1370 1.373 . S
C1369 C1371 1.389 . S
C1370 H1343 0.950 . S
C1370 C1356 1.377 . S
C1370 C1369 1.373 . S
C1371 C1355 1.377 . S
C1371 C1369 1.389 . S
C1371 C1372 1.524 . S
C1372 C1371 1.524 . S
C1372 C1373 1.397 . S
C1372 C1377 1.363 . S
C1373 H1344 0.950 . S
C1373 C1372 1.397 . S
C1373 C1374 1.334 . S
C1374 H1345 0.950 . S
C1374 C1373 1.334 . S
C1374 C1375 1.287 . S
C1375 C1374 1.287 . S
C1375 C1376 1.524 . S
C1375 H1378 0.999 . S
C1376 H1346 0.950 . S
C1376 C1375 1.524 . S
C1376 C1377 1.415 . S
C1377 H1347 0.950 . S
C1377 C1372 1.363 . S
C1377 C1376 1.415 . S
H1378 C1375 0.999 . S
H1379 C1360 0.913 . S
H1380 C1398 0.951 . S
H1381 C1400 0.951 . S
H1382 C1402 0.950 . S
H1383 C1403 0.950 . S
H1384 C1405 0.950 . S
H1385 C1408 0.950 . S
H1386 C1409 0.950 . S
H1387 C1411 0.950 . S
H1388 C1412 0.950 . S
H1389 C1413 0.951 . S
H1390 C1415 0.951 . S
H1391 C1417 0.950 . S
H1392 C1418 0.950 . S
H1393 C1420 0.950 . S
H1394 C1423 0.950 . S
H1395 C1424 0.950 . S
H1396 C1426 0.950 . S
H1397 C1427 0.950 . S
C1398 H1380 0.951 . S
C1398 C1399 1.366 . S
C1398 C1400 1.388 . S
C1399 C1398 1.366 . S
C1399 C1403 1.385 . S
C1400 H1381 0.951 . S
C1400 C1398 1.388 . S
C1400 C1401 1.366 . S
C1401 C1400 1.366 . S
C1401 C1402 1.414 . S
C1401 C1404 1.499 . S
C1402 H1382 0.950 . S
C1402 C1401 1.414 . S
C1402 C1403 1.374 . S
C1403 H1383 0.950 . S
C1403 C1399 1.385 . S
C1403 C1402 1.374 . S
C1404 C1401 1.499 . S
C1404 C1405 1.373 . S
C1404 C1406 1.389 . S
C1405 H1384 0.950 . S
C1405 C1404 1.373 . S
C1405 C1421 1.377 . S
C1406 C1404 1.389 . S
C1406 C1407 1.524 . S
C1406 C1420 1.377 . S
C1407 C1406 1.524 . S
C1407 C1408 1.397 . S
C1407 C1412 1.363 . S
C1408 H1385 0.950 . S
C1408 C1407 1.397 . S
C1408 C1409 1.334 . S
C1409 H1386 0.950 . S
C1409 C1408 1.334 . S
C1409 C1410 1.287 . S
C1410 C1409 1.287 . S
C1410 C1411 1.524 . S
C1410 H1429 0.913 . S
C1411 H1387 0.950 . S
C1411 C1410 1.524 . S
C1411 C1412 1.415 . S
C1412 H1388 0.950 . S
C1412 C1407 1.363 . S
C1412 C1411 1.415 . S
C1413 H1389 0.951 . S
C1413 C1414 1.366 . S
C1413 C1415 1.388 . S
C1414 C1413 1.366 . S
C1414 C1418 1.385 . S
C1415 H1390 0.951 . S
C1415 C1413 1.388 . S
C1415 C1416 1.366 . S
C1416 C1415 1.366 . S
C1416 C1417 1.414 . S
C1416 C1419 1.499 . S
C1417 H1391 0.950 . S
C1417 C1416 1.414 . S
C1417 C1418 1.374 . S
C1418 H1392 0.950 . S
C1418 C1414 1.385 . S
C1418 C1417 1.374 . S
C1419 C1416 1.499 . S
C1419 C1420 1.373 . S
C1419 C1421 1.389 . S
C1420 H1393 0.950 . S
C1420 C1406 1.377 . S
C1420 C1419 1.373 . S
C1421 C1405 1.377 . S
C1421 C1419 1.389 . S
C1421 C1422 1.524 . S
C1422 C1421 1.524 . S
C1422 C1423 1.397 . S
C1422 C1427 1.363 . S
C1423 H1394 0.950 . S
C1423 C1422 1.397 . S
C1423 C1424 1.334 . S
C1424 H1395 0.950 . S
C1424 C1423 1.334 . S
C1424 C1425 1.287 . S
C1425 C1424 1.287 . S
C1425 C1426 1.524 . S
C1425 H1428 0.999 . S
C1426 H1396 0.950 . S
C1426 C1425 1.524 . S
C1426 C1427 1.415 . S
C1427 H1397 0.950 . S
C1427 C1422 1.363 . S
C1427 C1426 1.415 . S
H1428 C1425 0.999 . S
H1429 C1410 0.913 . S
H1430 C1448 0.951 . S
H1431 C1450 0.951 . S
H1432 C1452 0.950 . S
H1433 C1453 0.950 . S
H1434 C1455 0.950 . S
H1435 C1458 0.950 . S
H1436 C1459 0.950 . S
H1437 C1461 0.950 . S
H1438 C1462 0.950 . S
H1439 C1463 0.951 . S
H1440 C1465 0.951 . S
H1441 C1467 0.950 . S
H1442 C1468 0.950 . S
H1443 C1470 0.950 . S
H1444 C1473 0.950 . S
H1445 C1474 0.950 . S
H1446 C1476 0.950 . S
H1447 C1477 0.950 . S
C1448 H1430 0.951 . S
C1448 C1449 1.366 . S
C1448 C1450 1.388 . S
C1449 C1448 1.366 . S
C1449 C1453 1.385 . S
C1450 H1431 0.951 . S
C1450 C1448 1.388 . S
C1450 C1451 1.366 . S
C1451 C1450 1.366 . S
C1451 C1452 1.414 . S
C1451 C1454 1.499 . S
C1452 H1432 0.950 . S
C1452 C1451 1.414 . S
C1452 C1453 1.374 . S
C1453 H1433 0.950 . S
C1453 C1449 1.385 . S
C1453 C1452 1.374 . S
C1454 C1451 1.499 . S
C1454 C1455 1.373 . S
C1454 C1456 1.389 . S
C1455 H1434 0.950 . S
C1455 C1454 1.373 . S
C1455 C1471 1.377 . S
C1456 C1454 1.389 . S
C1456 C1457 1.524 . S
C1456 C1470 1.377 . S
C1457 C1456 1.524 . S
C1457 C1458 1.397 . S
C1457 C1462 1.363 . S
C1458 H1435 0.950 . S
C1458 C1457 1.397 . S
C1458 C1459 1.334 . S
C1459 H1436 0.950 . S
C1459 C1458 1.334 . S
C1459 C1460 1.287 . S
C1460 C1459 1.287 . S
C1460 C1461 1.524 . S
C1460 H1479 0.913 . S
C1461 H1437 0.950 . S
C1461 C1460 1.524 . S
C1461 C1462 1.415 . S
C1462 H1438 0.950 . S
C1462 C1457 1.363 . S
C1462 C1461 1.415 . S
C1463 H1439 0.951 . S
C1463 C1464 1.366 . S
C1463 C1465 1.388 . S
C1464 C1463 1.366 . S
C1464 C1468 1.385 . S
C1465 H1440 0.951 . S
C1465 C1463 1.388 . S
C1465 C1466 1.366 . S
C1466 C1465 1.366 . S
C1466 C1467 1.414 . S
C1466 C1469 1.499 . S
C1467 H1441 0.950 . S
C1467 C1466 1.414 . S
C1467 C1468 1.374 . S
C1468 H1442 0.950 . S
C1468 C1464 1.385 . S
C1468 C1467 1.374 . S
C1469 C1466 1.499 . S
C1469 C1470 1.373 . S
C1469 C1471 1.389 . S
C1470 H1443 0.950 . S
C1470 C1456 1.377 . S
C1470 C1469 1.373 . S
C1471 C1455 1.377 . S
C1471 C1469 1.389 . S
C1471 C1472 1.524 . S
C1472 C1471 1.524 . S
C1472 C1473 1.397 . S
C1472 C1477 1.363 . S
C1473 H1444 0.950 . S
C1473 C1472 1.397 . S
C1473 C1474 1.334 . S
C1474 H1445 0.950 . S
C1474 C1473 1.334 . S
C1474 C1475 1.287 . S
C1475 C1474 1.287 . S
C1475 C1476 1.524 . S
C1475 H1478 0.999 . S
C1476 H1446 0.950 . S
C1476 C1475 1.524 . S
C1476 C1477 1.415 . S
C1477 H1447 0.950 . S
C1477 C1472 1.363 . S
C1477 C1476 1.415 . S
H1478 C1475 0.999 . S
H1479 C1460 0.913 . S
H1480 C1498 0.951 . S
H1481 C1500 0.951 . S
H1482 C1502 0.950 . S
H1483 C1503 0.950 . S
H1484 C1505 0.950 . S
H1485 C1508 0.950 . S
H1486 C1509 0.950 . S
H1487 C1511 0.950 . S
H1488 C1512 0.950 . S
H1489 C1513 0.951 . S
H1490 C1515 0.951 . S
H1491 C1517 0.950 . S
H1492 C1518 0.950 . S
H1493 C1520 0.950 . S
H1494 C1523 0.950 . S
H1495 C1524 0.950 . S
H1496 C1526 0.950 . S
H1497 C1527 0.950 . S
C1498 H1480 0.951 . S
C1498 C1499 1.366 . S
C1498 C1500 1.388 . S
C1499 C1498 1.366 . S
C1499 C1503 1.385 . S
C1500 H1481 0.951 . S
C1500 C1498 1.388 . S
C1500 C1501 1.366 . S
C1501 C1500 1.366 . S
C1501 C1502 1.414 . S
C1501 C1504 1.499 . S
C1502 H1482 0.950 . S
C1502 C1501 1.414 . S
C1502 C1503 1.374 . S
C1503 H1483 0.950 . S
C1503 C1499 1.385 . S
C1503 C1502 1.374 . S
C1504 C1501 1.499 . S
C1504 C1505 1.373 . S
C1504 C1506 1.389 . S
C1505 H1484 0.950 . S
C1505 C1504 1.373 . S
C1505 C1521 1.377 . S
C1506 C1504 1.389 . S
C1506 C1507 1.524 . S
C1506 C1520 1.377 . S
C1507 C1506 1.524 . S
C1507 C1508 1.397 . S
C1507 C1512 1.363 . S
C1508 H1485 0.950 . S
C1508 C1507 1.397 . S
C1508 C1509 1.334 . S
C1509 H1486 0.950 . S
C1509 C1508 1.334 . S
C1509 C1510 1.287 . S
C1510 C1509 1.287 . S
C1510 C1511 1.524 . S
C1510 H1529 0.913 . S
C1511 H1487 0.950 . S
C1511 C1510 1.524 . S
C1511 C1512 1.415 . S
C1512 H1488 0.950 . S
C1512 C1507 1.363 . S
C1512 C1511 1.415 . S
C1513 H1489 0.951 . S
C1513 C1514 1.366 . S
C1513 C1515 1.388 . S
C1514 C1513 1.366 . S
C1514 C1518 1.385 . S
C1515 H1490 0.951 . S
C1515 C1513 1.388 . S
C1515 C1516 1.366 . S
C1516 C1515 1.366 . S
C1516 C1517 1.414 . S
C1516 C1519 1.499 . S
C1517 H1491 0.950 . S
C1517 C1516 1.414 . S
C1517 C1518 1.374 . S
C1518 H1492 0.950 . S
C1518 C1514 1.385 . S
C1518 C1517 1.374 . S
C1519 C1516 1.499 . S
C1519 C1520 1.373 . S
C1519 C1521 1.389 . S
C1520 H1493 0.950 . S
C1520 C1506 1.377 . S
C1520 C1519 1.373 . S
C1521 C1505 1.377 . S
C1521 C1519 1.389 . S
C1521 C1522 1.524 . S
C1522 C1521 1.524 . S
C1522 C1523 1.397 . S
C1522 C1527 1.363 . S
C1523 H1494 0.950 . S
C1523 C1522 1.397 . S
C1523 C1524 1.334 . S
C1524 H1495 0.950 . S
C1524 C1523 1.334 . S
C1524 C1525 1.287 . S
C1525 C1524 1.287 . S
C1525 C1526 1.524 . S
C1525 H1528 0.999 . S
C1526 H1496 0.950 . S
C1526 C1525 1.524 . S
C1526 C1527 1.415 . S
C1527 H1497 0.950 . S
C1527 C1522 1.363 . S
C1527 C1526 1.415 . S
H1528 C1525 0.999 . S
H1529 C1510 0.913 . S
H1530 C1548 0.951 . S
H1531 C1550 0.951 . S
H1532 C1552 0.950 . S
H1533 C1553 0.950 . S
H1534 C1555 0.950 . S
H1535 C1558 0.950 . S
H1536 C1559 0.950 . S
H1537 C1561 0.950 . S
H1538 C1562 0.950 . S
H1539 C1563 0.951 . S
H1540 C1565 0.951 . S
H1541 C1567 0.950 . S
H1542 C1568 0.950 . S
H1543 C1570 0.950 . S
H1544 C1573 0.950 . S
H1545 C1574 0.950 . S
H1546 C1576 0.950 . S
H1547 C1577 0.950 . S
C1548 H1530 0.951 . S
C1548 C1549 1.366 . S
C1548 C1550 1.388 . S
C1549 C1548 1.366 . S
C1549 C1553 1.385 . S
C1550 H1531 0.951 . S
C1550 C1548 1.388 . S
C1550 C1551 1.366 . S
C1551 C1550 1.366 . S
C1551 C1552 1.414 . S
C1551 C1554 1.499 . S
C1552 H1532 0.950 . S
C1552 C1551 1.414 . S
C1552 C1553 1.374 . S
C1553 H1533 0.950 . S
C1553 C1549 1.385 . S
C1553 C1552 1.374 . S
C1554 C1551 1.499 . S
C1554 C1555 1.373 . S
C1554 C1556 1.389 . S
C1555 H1534 0.950 . S
C1555 C1554 1.373 . S
C1555 C1571 1.377 . S
C1556 C1554 1.389 . S
C1556 C1557 1.524 . S
C1556 C1570 1.377 . S
C1557 C1556 1.524 . S
C1557 C1558 1.397 . S
C1557 C1562 1.363 . S
C1558 H1535 0.950 . S
C1558 C1557 1.397 . S
C1558 C1559 1.334 . S
C1559 H1536 0.950 . S
C1559 C1558 1.334 . S
C1559 C1560 1.287 . S
C1560 C1559 1.287 . S
C1560 C1561 1.524 . S
C1560 H1579 0.913 . S
C1561 H1537 0.950 . S
C1561 C1560 1.524 . S
C1561 C1562 1.415 . S
C1562 H1538 0.950 . S
C1562 C1557 1.363 . S
C1562 C1561 1.415 . S
C1563 H1539 0.951 . S
C1563 C1564 1.366 . S
C1563 C1565 1.388 . S
C1564 C1563 1.366 . S
C1564 C1568 1.385 . S
C1565 H1540 0.951 . S
C1565 C1563 1.388 . S
C1565 C1566 1.366 . S
C1566 C1565 1.366 . S
C1566 C1567 1.414 . S
C1566 C1569 1.499 . S
C1567 H1541 0.950 . S
C1567 C1566 1.414 . S
C1567 C1568 1.374 . S
C1568 H1542 0.950 . S
C1568 C1564 1.385 . S
C1568 C1567 1.374 . S
C1569 C1566 1.499 . S
C1569 C1570 1.373 . S
C1569 C1571 1.389 . S
C1570 H1543 0.950 . S
C1570 C1556 1.377 . S
C1570 C1569 1.373 . S
C1571 C1555 1.377 . S
C1571 C1569 1.389 . S
C1571 C1572 1.524 . S
C1572 C1571 1.524 . S
C1572 C1573 1.397 . S
C1572 C1577 1.363 . S
C1573 H1544 0.950 . S
C1573 C1572 1.397 . S
C1573 C1574 1.334 . S
C1574 H1545 0.950 . S
C1574 C1573 1.334 . S
C1574 C1575 1.287 . S
C1575 C1574 1.287 . S
C1575 C1576 1.524 . S
C1575 H1578 0.999 . S
C1576 H1546 0.950 . S
C1576 C1575 1.524 . S
C1576 C1577 1.415 . S
C1577 H1547 0.950 . S
C1577 C1572 1.363 . S
C1577 C1576 1.415 . S
H1578 C1575 0.999 . S
H1579 C1560 0.913 . S
H1580 C1598 0.951 . S
H1581 C1600 0.951 . S
H1582 C1602 0.950 . S
H1583 C1603 0.950 . S
H1584 C1605 0.950 . S
H1585 C1608 0.950 . S
H1586 C1609 0.950 . S
H1587 C1611 0.950 . S
H1588 C1612 0.950 . S
H1589 C1613 0.951 . S
H1590 C1615 0.951 . S
H1591 C1617 0.950 . S
H1592 C1618 0.950 . S
H1593 C1620 0.950 . S
H1594 C1623 0.950 . S
H1595 C1624 0.950 . S
H1596 C1626 0.950 . S
H1597 C1627 0.950 . S
C1598 H1580 0.951 . S
C1598 C1599 1.366 . S
C1598 C1600 1.388 . S
C1599 C1598 1.366 . S
C1599 C1603 1.385 . S
C1600 H1581 0.951 . S
C1600 C1598 1.388 . S
C1600 C1601 1.366 . S
C1601 C1600 1.366 . S
C1601 C1602 1.414 . S
C1601 C1604 1.499 . S
C1602 H1582 0.950 . S
C1602 C1601 1.414 . S
C1602 C1603 1.374 . S
C1603 H1583 0.950 . S
C1603 C1599 1.385 . S
C1603 C1602 1.374 . S
C1604 C1601 1.499 . S
C1604 C1605 1.373 . S
C1604 C1606 1.389 . S
C1605 H1584 0.950 . S
C1605 C1604 1.373 . S
C1605 C1621 1.377 . S
C1606 C1604 1.389 . S
C1606 C1607 1.524 . S
C1606 C1620 1.377 . S
C1607 C1606 1.524 . S
C1607 C1608 1.397 . S
C1607 C1612 1.363 . S
C1608 H1585 0.950 . S
C1608 C1607 1.397 . S
C1608 C1609 1.334 . S
C1609 H1586 0.950 . S
C1609 C1608 1.334 . S
C1609 C1610 1.287 . S
C1610 C1609 1.287 . S
C1610 C1611 1.524 . S
C1610 H1629 0.913 . S
C1611 H1587 0.950 . S
C1611 C1610 1.524 . S
C1611 C1612 1.415 . S
C1612 H1588 0.950 . S
C1612 C1607 1.363 . S
C1612 C1611 1.415 . S
C1613 H1589 0.951 . S
C1613 C1614 1.366 . S
C1613 C1615 1.388 . S
C1614 C1613 1.366 . S
C1614 C1618 1.385 . S
C1615 H1590 0.951 . S
C1615 C1613 1.388 . S
C1615 C1616 1.366 . S
C1616 C1615 1.366 . S
C1616 C1617 1.414 . S
C1616 C1619 1.499 . S
C1617 H1591 0.950 . S
C1617 C1616 1.414 . S
C1617 C1618 1.374 . S
C1618 H1592 0.950 . S
C1618 C1614 1.385 . S
C1618 C1617 1.374 . S
C1619 C1616 1.499 . S
C1619 C1620 1.373 . S
C1619 C1621 1.389 . S
C1620 H1593 0.950 . S
C1620 C1606 1.377 . S
C1620 C1619 1.373 . S
C1621 C1605 1.377 . S
C1621 C1619 1.389 . S
C1621 C1622 1.524 . S
C1622 C1621 1.524 . S
C1622 C1623 1.397 . S
C1622 C1627 1.363 . S
C1623 H1594 0.950 . S
C1623 C1622 1.397 . S
C1623 C1624 1.334 . S
C1624 H1595 0.950 . S
C1624 C1623 1.334 . S
C1624 C1625 1.287 . S
C1625 C1624 1.287 . S
C1625 C1626 1.524 . S
C1625 H1628 0.999 . S
C1626 H1596 0.950 . S
C1626 C1625 1.524 . S
C1626 C1627 1.415 . S
C1627 H1597 0.950 . S
C1627 C1622 1.363 . S
C1627 C1626 1.415 . S
H1628 C1625 0.999 . S
H1629 C1610 0.913 . S
H1630 C1648 0.951 . S
H1631 C1650 0.951 . S
H1632 C1652 0.950 . S
H1633 C1653 0.950 . S
H1634 C1655 0.950 . S
H1635 C1658 0.950 . S
H1636 C1659 0.950 . S
H1637 C1661 0.950 . S
H1638 C1662 0.950 . S
H1639 C1663 0.951 . S
H1640 C1665 0.951 . S
H1641 C1667 0.950 . S
H1642 C1668 0.950 . S
H1643 C1670 0.950 . S
H1644 C1673 0.950 . S
H1645 C1674 0.950 . S
H1646 C1676 0.950 . S
H1647 C1677 0.950 . S
C1648 H1630 0.951 . S
C1648 C1649 1.366 . S
C1648 C1650 1.388 . S
C1649 C1648 1.366 . S
C1649 C1653 1.385 . S
C1650 H1631 0.951 . S
C1650 C1648 1.388 . S
C1650 C1651 1.366 . S
C1651 C1650 1.366 . S
C1651 C1652 1.414 . S
C1651 C1654 1.499 . S
C1652 H1632 0.950 . S
C1652 C1651 1.414 . S
C1652 C1653 1.374 . S
C1653 H1633 0.950 . S
C1653 C1649 1.385 . S
C1653 C1652 1.374 . S
C1654 C1651 1.499 . S
C1654 C1655 1.373 . S
C1654 C1656 1.389 . S
C1655 H1634 0.950 . S
C1655 C1654 1.373 . S
C1655 C1671 1.377 . S
C1656 C1654 1.389 . S
C1656 C1657 1.524 . S
C1656 C1670 1.377 . S
C1657 C1656 1.524 . S
C1657 C1658 1.397 . S
C1657 C1662 1.363 . S
C1658 H1635 0.950 . S
C1658 C1657 1.397 . S
C1658 C1659 1.334 . S
C1659 H1636 0.950 . S
C1659 C1658 1.334 . S
C1659 C1660 1.287 . S
C1660 C1659 1.287 . S
C1660 C1661 1.524 . S
C1660 H1679 0.913 . S
C1661 H1637 0.950 . S
C1661 C1660 1.524 . S
C1661 C1662 1.415 . S
C1662 H1638 0.950 . S
C1662 C1657 1.363 . S
C1662 C1661 1.415 . S
C1663 H1639 0.951 . S
C1663 C1664 1.366 . S
C1663 C1665 1.388 . S
C1664 C1663 1.366 . S
C1664 C1668 1.385 . S
C1665 H1640 0.951 . S
C1665 C1663 1.388 . S
C1665 C1666 1.366 . S
C1666 C1665 1.366 . S
C1666 C1667 1.414 . S
C1666 C1669 1.499 . S
C1667 H1641 0.950 . S
C1667 C1666 1.414 . S
C1667 C1668 1.374 . S
C1668 H1642 0.950 . S
C1668 C1664 1.385 . S
C1668 C1667 1.374 . S
C1669 C1666 1.499 . S
C1669 C1670 1.373 . S
C1669 C1671 1.389 . S
C1670 H1643 0.950 . S
C1670 C1656 1.377 . S
C1670 C1669 1.373 . S
C1671 C1655 1.377 . S
C1671 C1669 1.389 . S
C1671 C1672 1.524 . S
C1672 C1671 1.524 . S
C1672 C1673 1.397 . S
C1672 C1677 1.363 . S
C1673 H1644 0.950 . S
C1673 C1672 1.397 . S
C1673 C1674 1.334 . S
C1674 H1645 0.950 . S
C1674 C1673 1.334 . S
C1674 C1675 1.287 . S
C1675 C1674 1.287 . S
C1675 C1676 1.524 . S
C1675 H1678 0.999 . S
C1676 H1646 0.950 . S
C1676 C1675 1.524 . S
C1676 C1677 1.415 . S
C1677 H1647 0.950 . S
C1677 C1672 1.363 . S
C1677 C1676 1.415 . S
H1678 C1675 0.999 . S
H1679 C1660 0.913 . S
H1680 C1698 0.951 . S
H1681 C1700 0.951 . S
H1682 C1702 0.950 . S
H1683 C1703 0.950 . S
H1684 C1705 0.950 . S
H1685 C1708 0.950 . S
H1686 C1709 0.950 . S
H1687 C1711 0.950 . S
H1688 C1712 0.982 . S
H1689 C1713 0.951 . S
H1690 C1715 0.951 . S
H1691 C1717 0.950 . S
H1692 C1718 0.950 . S
H1693 C1720 0.950 . S
H1694 C1723 0.950 . S
H1695 C1724 0.950 . S
H1696 C1726 0.950 . S
H1697 C1727 0.950 . S
C1698 H1680 0.951 . S
C1698 C1699 1.366 . S
C1698 C1700 1.388 . S
C1699 C1698 1.366 . S
C1699 C1703 1.385 . S
C1700 H1681 0.951 . S
C1700 C1698 1.388 . S
C1700 C1701 1.366 . S
C1701 C1700 1.366 . S
C1701 C1702 1.414 . S
C1701 C1704 1.499 . S
C1702 H1682 0.950 . S
C1702 C1701 1.414 . S
C1702 C1703 1.374 . S
C1703 H1683 0.950 . S
C1703 C1699 1.385 . S
C1703 C1702 1.374 . S
C1704 C1701 1.499 . S
C1704 C1705 1.373 . S
C1704 C1706 1.389 . S
C1705 H1684 0.950 . S
C1705 C1704 1.373 . S
C1705 C1721 1.377 . S
C1706 C1704 1.389 . S
C1706 C1707 1.524 1_455 S
C1706 C1720 1.377 . S
C1707 C1706 1.524 1_655 S
C1707 C1708 1.397 . S
C1707 C1712 1.363 . S
C1708 H1685 0.950 . S
C1708 C1707 1.397 . S
C1708 C1709 1.334 . S
C1709 H1686 0.950 . S
C1709 C1708 1.334 . S
C1709 C1710 1.287 . S
C1710 C1709 1.287 . S
C1710 C1711 1.524 . S
C1710 H1729 0.913 . S
C1711 H1687 0.950 . S
C1711 C1710 1.524 . S
C1711 C1712 1.415 . S
C1712 H1688 0.982 . S
C1712 C1707 1.363 . S
C1712 C1711 1.415 . S
C1713 H1689 0.951 . S
C1713 C1714 1.366 . S
C1713 C1715 1.388 . S
C1714 C1713 1.366 . S
C1714 C1718 1.385 . S
C1715 H1690 0.951 . S
C1715 C1713 1.388 . S
C1715 C1716 1.366 . S
C1716 C1715 1.366 . S
C1716 C1717 1.414 . S
C1716 C1719 1.499 . S
C1717 H1691 0.950 . S
C1717 C1716 1.414 . S
C1717 C1718 1.374 . S
C1718 H1692 0.950 . S
C1718 C1714 1.385 . S
C1718 C1717 1.374 . S
C1719 C1716 1.499 . S
C1719 C1720 1.373 . S
C1719 C1721 1.389 . S
C1720 H1693 0.950 . S
C1720 C1706 1.377 . S
C1720 C1719 1.373 . S
C1721 C1705 1.377 . S
C1721 C1719 1.389 . S
C1721 C1722 1.524 . S
C1722 C1721 1.524 . S
C1722 C1723 1.397 . S
C1722 C1727 1.363 . S
C1723 H1694 0.950 . S
C1723 C1722 1.397 . S
C1723 C1724 1.334 . S
C1724 H1695 0.950 . S
C1724 C1723 1.334 . S
C1724 C1725 1.287 . S
C1725 C1724 1.287 . S
C1725 C1726 1.524 . S
C1725 H1728 0.999 . S
C1726 H1696 0.950 . S
C1726 C1725 1.524 . S
C1726 C1727 1.415 . S
C1727 H1697 0.950 . S
C1727 C1722 1.363 . S
C1727 C1726 1.415 . S
H1728 C1725 0.999 . S
H1729 C1710 0.913 . S
H1730 C1748 0.951 . S
H1731 C1750 0.951 . S
H1732 C1752 0.950 . S
H1733 C1753 0.950 . S
H1734 C1755 0.950 . S
H1735 C1758 0.950 . S
H1736 C1759 0.950 . S
H1737 C1761 0.950 . S
H1738 C1762 0.950 . S
H1739 C1763 0.951 . S
H1740 C1765 0.951 . S
H1741 C1767 0.950 . S
H1742 C1768 0.950 . S
H1743 C1770 0.950 . S
H1744 C1773 0.950 . S
H1745 C1774 0.950 . S
H1746 C1776 0.950 . S
H1747 C1777 0.950 . S
C1748 H1730 0.951 . S
C1748 C1749 1.366 . S
C1748 C1750 1.388 . S
C1749 C1748 1.366 . S
C1749 C1753 1.385 . S
C1750 H1731 0.951 . S
C1750 C1748 1.388 . S
C1750 C1751 1.366 . S
C1751 C1750 1.366 . S
C1751 C1752 1.414 . S
C1751 C1754 1.499 . S
C1752 H1732 0.950 . S
C1752 C1751 1.414 . S
C1752 C1753 1.374 . S
C1753 H1733 0.950 . S
C1753 C1749 1.385 . S
C1753 C1752 1.374 . S
C1754 C1751 1.499 . S
C1754 C1755 1.373 . S
C1754 C1756 1.389 . S
C1755 H1734 0.950 . S
C1755 C1754 1.373 . S
C1755 C1771 1.377 . S
C1756 C1754 1.389 . S
C1756 C1757 1.524 . S
C1756 C1770 1.377 . S
C1757 C1756 1.524 . S
C1757 C1758 1.397 . S
C1757 C1762 1.363 . S
C1758 H1735 0.950 . S
C1758 C1757 1.397 . S
C1758 C1759 1.334 . S
C1759 H1736 0.950 . S
C1759 C1758 1.334 . S
C1759 C1760 1.287 . S
C1760 C1759 1.287 . S
C1760 C1761 1.524 . S
C1760 H1779 0.913 . S
C1761 H1737 0.950 . S
C1761 C1760 1.524 . S
C1761 C1762 1.415 . S
C1762 H1738 0.950 . S
C1762 C1757 1.363 . S
C1762 C1761 1.415 . S
C1763 H1739 0.951 . S
C1763 C1764 1.366 . S
C1763 C1765 1.388 . S
C1764 C1763 1.366 . S
C1764 C1768 1.385 . S
C1765 H1740 0.951 . S
C1765 C1763 1.388 . S
C1765 C1766 1.366 . S
C1766 C1765 1.366 . S
C1766 C1767 1.414 . S
C1766 C1769 1.499 . S
C1767 H1741 0.950 . S
C1767 C1766 1.414 . S
C1767 C1768 1.374 . S
C1768 H1742 0.950 . S
C1768 C1764 1.385 . S
C1768 C1767 1.374 . S
C1769 C1766 1.499 . S
C1769 C1770 1.373 . S
C1769 C1771 1.389 . S
C1770 H1743 0.950 . S
C1770 C1756 1.377 . S
C1770 C1769 1.373 . S
C1771 C1755 1.377 . S
C1771 C1769 1.389 . S
C1771 C1772 1.524 . S
C1772 C1771 1.524 . S
C1772 C1773 1.397 . S
C1772 C1777 1.363 . S
C1773 H1744 0.950 . S
C1773 C1772 1.397 . S
C1773 C1774 1.334 . S
C1774 H1745 0.950 . S
C1774 C1773 1.334 . S
C1774 C1775 1.287 . S
C1775 C1774 1.287 . S
C1775 C1776 1.524 . S
C1775 H1778 0.999 . S
C1776 H1746 0.950 . S
C1776 C1775 1.524 . S
C1776 C1777 1.415 . S
C1777 H1747 0.950 . S
C1777 C1772 1.363 . S
C1777 C1776 1.415 . S
H1778 C1775 0.999 . S
H1779 C1760 0.913 . S
H1780 C1798 0.951 . S
H1781 C1800 0.951 . S
H1782 C1802 0.950 . S
H1783 C1803 0.950 . S
H1784 C1805 0.950 . S
H1785 C1808 0.950 . S
H1786 C1809 0.950 . S
H1787 C1811 0.950 1_455 S
H1788 C1812 0.950 1_455 S
H1789 C1813 0.951 . S
H1790 C1815 0.951 . S
H1791 C1817 0.996 . S
H1792 C1818 0.950 . S
H1793 C1820 0.950 . S
H1794 C1823 0.950 . S
H1795 C1824 0.950 . S
H1796 C1826 0.950 . S
H1797 C1827 0.950 . S
C1798 H1780 0.951 . S
C1798 C1799 1.366 . S
C1798 C1800 1.388 . S
C1799 C1798 1.366 . S
C1799 C1803 1.385 . S
C1800 H1781 0.951 . S
C1800 C1798 1.388 . S
C1800 C1801 1.366 . S
C1801 C1800 1.366 . S
C1801 C1802 1.414 . S
C1801 C1804 1.499 . S
C1802 H1782 0.950 . S
C1802 C1801 1.414 . S
C1802 C1803 1.374 . S
C1803 H1783 0.950 . S
C1803 C1799 1.385 . S
C1803 C1802 1.374 . S
C1804 C1801 1.499 . S
C1804 C1805 1.373 . S
C1804 C1806 1.389 . S
C1805 H1784 0.950 . S
C1805 C1804 1.373 . S
C1805 C1821 1.377 . S
C1806 C1804 1.389 . S
C1806 C1807 1.524 . S
C1806 C1820 1.377 . S
C1807 C1806 1.524 . S
C1807 C1808 1.397 . S
C1807 C1812 1.363 . S
C1808 H1785 0.950 . S
C1808 C1807 1.397 . S
C1808 C1809 1.334 . S
C1809 H1786 0.950 . S
C1809 C1808 1.334 . S
C1809 C1810 1.287 . S
C1810 C1809 1.287 . S
C1810 C1811 1.524 . S
C1810 H1829 0.913 . S
C1811 H1787 0.950 1_655 S
C1811 C1810 1.524 . S
C1811 C1812 1.415 . S
C1812 H1788 0.950 1_655 S
C1812 C1807 1.363 . S
C1812 C1811 1.415 . S
C1813 H1789 0.951 . S
C1813 C1814 1.366 . S
C1813 C1815 1.388 . S
C1814 C1813 1.366 . S
C1814 C1818 1.385 . S
C1815 H1790 0.951 . S
C1815 C1813 1.388 . S
C1815 C1816 1.366 . S
C1816 C1815 1.366 . S
C1816 C1817 1.414 . S
C1816 C1819 1.499 . S
C1817 H1791 0.996 . S
C1817 C1816 1.414 . S
C1817 C1818 1.374 . S
C1818 H1792 0.950 . S
C1818 C1814 1.385 . S
C1818 C1817 1.374 . S
C1819 C1816 1.499 . S
C1819 C1820 1.373 . S
C1819 C1821 1.389 . S
C1820 H1793 0.950 . S
C1820 C1806 1.377 . S
C1820 C1819 1.373 . S
C1821 C1805 1.377 . S
C1821 C1819 1.389 . S
C1821 C1822 1.524 . S
C1822 C1821 1.524 . S
C1822 C1823 1.397 . S
C1822 C1827 1.363 . S
C1823 H1794 0.950 . S
C1823 C1822 1.397 . S
C1823 C1824 1.334 . S
C1824 H1795 0.950 . S
C1824 C1823 1.334 . S
C1824 C1825 1.287 . S
C1825 C1824 1.287 . S
C1825 C1826 1.524 . S
C1825 H1828 0.999 . S
C1826 H1796 0.950 . S
C1826 C1825 1.524 . S
C1826 C1827 1.415 . S
C1827 H1797 0.950 . S
C1827 C1822 1.363 . S
C1827 C1826 1.415 . S
H1828 C1825 0.999 . S
H1829 C1810 0.913 . S
H1830 C1848 0.951 . S
H1831 C1850 0.951 . S
H1832 C1852 0.950 . S
H1833 C1853 0.950 . S
H1834 C1855 0.950 . S
H1835 C1858 0.950 . S
H1836 C1859 0.950 . S
H1837 C1861 0.950 . S
H1838 C1862 0.950 . S
H1839 C1863 0.951 . S
H1840 C1865 0.951 . S
H1841 C1867 0.950 . S
H1842 C1868 0.950 . S
H1843 C1870 0.950 . S
H1844 C1873 0.950 . S
H1845 C1874 0.950 . S
H1846 C1876 0.950 . S
H1847 C1877 0.950 . S
C1848 H1830 0.951 . S
C1848 C1849 1.366 . S
C1848 C1850 1.388 . S
C1849 C1848 1.366 . S
C1849 C1853 1.385 . S
C1850 H1831 0.951 . S
C1850 C1848 1.388 . S
C1850 C1851 1.366 . S
C1851 C1850 1.366 . S
C1851 C1852 1.414 . S
C1851 C1854 1.499 . S
C1852 H1832 0.950 . S
C1852 C1851 1.414 . S
C1852 C1853 1.374 . S
C1853 H1833 0.950 . S
C1853 C1849 1.385 . S
C1853 C1852 1.374 . S
C1854 C1851 1.499 . S
C1854 C1855 1.373 . S
C1854 C1856 1.389 . S
C1855 H1834 0.950 . S
C1855 C1854 1.373 . S
C1855 C1871 1.377 . S
C1856 C1854 1.389 . S
C1856 C1857 1.524 . S
C1856 C1870 1.377 . S
C1857 C1856 1.524 . S
C1857 C1858 1.397 . S
C1857 C1862 1.363 . S
C1858 H1835 0.950 . S
C1858 C1857 1.397 . S
C1858 C1859 1.334 . S
C1859 H1836 0.950 . S
C1859 C1858 1.334 . S
C1859 C1860 1.287 . S
C1860 C1859 1.287 . S
C1860 C1861 1.524 . S
C1860 H1879 0.913 . S
C1861 H1837 0.950 . S
C1861 C1860 1.524 . S
C1861 C1862 1.415 . S
C1862 H1838 0.950 . S
C1862 C1857 1.363 . S
C1862 C1861 1.415 . S
C1863 H1839 0.951 . S
C1863 C1864 1.366 . S
C1863 C1865 1.388 . S
C1864 C1863 1.366 . S
C1864 C1868 1.385 . S
C1865 H1840 0.951 . S
C1865 C1863 1.388 . S
C1865 C1866 1.366 . S
C1866 C1865 1.366 . S
C1866 C1867 1.414 . S
C1866 C1869 1.499 . S
C1867 H1841 0.950 . S
C1867 C1866 1.414 . S
C1867 C1868 1.374 . S
C1868 H1842 0.950 . S
C1868 C1864 1.385 . S
C1868 C1867 1.374 . S
C1869 C1866 1.499 . S
C1869 C1870 1.373 . S
C1869 C1871 1.389 . S
C1870 H1843 0.950 . S
C1870 C1856 1.377 . S
C1870 C1869 1.373 . S
C1871 C1855 1.377 . S
C1871 C1869 1.389 . S
C1871 C1872 1.524 . S
C1872 C1871 1.524 . S
C1872 C1873 1.397 . S
C1872 C1877 1.363 . S
C1873 H1844 0.950 . S
C1873 C1872 1.397 . S
C1873 C1874 1.334 . S
C1874 H1845 0.950 . S
C1874 C1873 1.334 . S
C1874 C1875 1.287 . S
C1875 C1874 1.287 . S
C1875 C1876 1.524 . S
C1875 H1878 0.999 . S
C1876 H1846 0.950 . S
C1876 C1875 1.524 . S
C1876 C1877 1.415 . S
C1877 H1847 0.950 . S
C1877 C1872 1.363 . S
C1877 C1876 1.415 . S
H1878 C1875 0.999 . S
H1879 C1860 0.913 . S
H1880 C1898 0.951 . S
H1881 C1900 0.951 . S
H1882 C1902 0.950 1_655 S
H1883 C1903 0.950 1_655 S
H1884 C1905 0.950 . S
H1885 C1908 0.950 . S
H1886 C1909 0.950 . S
H1887 C1911 0.950 . S
H1888 C1912 0.950 . S
H1889 C1913 0.906 1_655 S
H1890 C1915 0.916 1_655 S
H1891 C1917 0.950 . S
H1892 C1918 0.950 . S
H1893 C1920 0.950 . S
H1894 C1923 0.950 . S
H1895 C1924 0.950 . S
H1896 C1926 0.950 . S
H1897 C1927 0.950 . S
C1898 H1880 0.951 . S
C1898 C1899 1.366 . S
C1898 C1900 1.388 . S
C1899 C1898 1.366 . S
C1899 C1903 1.385 . S
C1900 H1881 0.951 . S
C1900 C1898 1.388 . S
C1900 C1901 1.366 . S
C1901 C1900 1.366 . S
C1901 C1902 1.414 . S
C1901 C1904 1.499 . S
C1902 H1882 0.950 1_455 S
C1902 C1901 1.414 . S
C1902 C1903 1.374 . S
C1903 H1883 0.950 1_455 S
C1903 C1899 1.385 . S
C1903 C1902 1.374 . S
C1904 C1901 1.499 . S
C1904 C1905 1.373 . S
C1904 C1906 1.389 . S
C1905 H1884 0.950 . S
C1905 C1904 1.373 . S
C1905 C1921 1.377 . S
C1906 C1904 1.389 . S
C1906 C1907 1.524 . S
C1906 C1920 1.377 . S
C1907 C1906 1.524 . S
C1907 C1908 1.397 . S
C1907 C1912 1.363 . S
C1908 H1885 0.950 . S
C1908 C1907 1.397 . S
C1908 C1909 1.334 . S
C1909 H1886 0.950 . S
C1909 C1908 1.334 . S
C1909 C1910 1.287 . S
C1910 C1909 1.287 . S
C1910 C1911 1.524 . S
C1910 H1929 0.913 . S
C1911 H1887 0.950 . S
C1911 C1910 1.524 . S
C1911 C1912 1.415 . S
C1912 H1888 0.950 . S
C1912 C1907 1.363 . S
C1912 C1911 1.415 . S
C1913 H1889 0.906 1_455 S
C1913 C1914 1.366 . S
C1913 C1915 1.388 . S
C1914 C1913 1.366 . S
C1914 C1918 1.385 . S
C1915 H1890 0.916 1_455 S
C1915 C1913 1.388 . S
C1915 C1916 1.366 . S
C1916 C1915 1.366 . S
C1916 C1917 1.414 . S
C1916 C1919 1.499 . S
C1917 H1891 0.950 . S
C1917 C1916 1.414 . S
C1917 C1918 1.374 . S
C1918 H1892 0.950 . S
C1918 C1914 1.385 . S
C1918 C1917 1.374 . S
C1919 C1916 1.499 . S
C1919 C1920 1.373 . S
C1919 C1921 1.389 . S
C1920 H1893 0.950 . S
C1920 C1906 1.377 . S
C1920 C1919 1.373 . S
C1921 C1905 1.377 . S
C1921 C1919 1.389 . S
C1921 C1922 1.524 . S
C1922 C1921 1.524 . S
C1922 C1923 1.397 . S
C1922 C1927 1.363 1_455 S
C1923 H1894 0.950 . S
C1923 C1922 1.397 . S
C1923 C1924 1.334 . S
C1924 H1895 0.950 . S
C1924 C1923 1.334 . S
C1924 C1925 1.276 1_455 S
C1925 C1924 1.276 1_655 S
C1925 C1926 1.532 . S
C1925 H1928 1.004 . S
C1926 H1896 0.950 . S
C1926 C1925 1.532 . S
C1926 C1927 1.415 . S
C1927 H1897 0.950 . S
C1927 C1922 1.363 1_655 S
C1927 C1926 1.415 . S
H1928 C1925 1.004 . S
H1929 C1910 0.913 . S
H1930 C1948 0.951 . S
H1931 C1950 0.951 . S
H1932 C1952 0.950 . S
H1933 C1953 0.950 . S
H1934 C1955 0.950 . S
H1935 C1958 0.950 . S
H1936 C1959 0.950 . S
H1937 C1961 0.950 . S
H1938 C1962 0.950 . S
H1939 C1963 0.951 . S
H1940 C1965 0.951 . S
H1941 C1967 0.950 . S
H1942 C1968 0.950 . S
H1943 C1970 0.950 . S
H1944 C1973 0.950 . S
H1945 C1974 0.950 . S
H1946 C1976 0.950 . S
H1947 C1977 0.950 . S
C1948 H1930 0.951 . S
C1948 C1949 1.366 . S
C1948 C1950 1.388 . S
C1949 C1948 1.366 . S
C1949 C1953 1.385 . S
C1950 H1931 0.951 . S
C1950 C1948 1.388 . S
C1950 C1951 1.366 . S
C1951 C1950 1.366 . S
C1951 C1952 1.414 . S
C1951 C1954 1.499 . S
C1952 H1932 0.950 . S
C1952 C1951 1.414 . S
C1952 C1953 1.374 . S
C1953 H1933 0.950 . S
C1953 C1949 1.385 . S
C1953 C1952 1.374 . S
C1954 C1951 1.499 . S
C1954 C1955 1.373 . S
C1954 C1956 1.389 . S
C1955 H1934 0.950 . S
C1955 C1954 1.373 . S
C1955 C1971 1.377 . S
C1956 C1954 1.389 . S
C1956 C1957 1.524 . S
C1956 C1970 1.377 . S
C1957 C1956 1.524 . S
C1957 C1958 1.397 . S
C1957 C1962 1.363 . S
C1958 H1935 0.950 . S
C1958 C1957 1.397 . S
C1958 C1959 1.334 . S
C1959 H1936 0.950 . S
C1959 C1958 1.334 . S
C1959 C1960 1.287 . S
C1960 C1959 1.287 . S
C1960 C1961 1.524 . S
C1960 H1979 0.913 . S
C1961 H1937 0.950 . S
C1961 C1960 1.524 . S
C1961 C1962 1.415 . S
C1962 H1938 0.950 . S
C1962 C1957 1.363 . S
C1962 C1961 1.415 . S
C1963 H1939 0.951 . S
C1963 C1964 1.366 . S
C1963 C1965 1.388 . S
C1964 C1963 1.366 . S
C1964 C1968 1.385 . S
C1965 H1940 0.951 . S
C1965 C1963 1.388 . S
C1965 C1966 1.366 . S
C1966 C1965 1.366 . S
C1966 C1967 1.414 . S
C1966 C1969 1.499 . S
C1967 H1941 0.950 . S
C1967 C1966 1.414 . S
C1967 C1968 1.374 . S
C1968 H1942 0.950 . S
C1968 C1964 1.385 . S
C1968 C1967 1.374 . S
C1969 C1966 1.499 . S
C1969 C1970 1.373 . S
C1969 C1971 1.389 . S
C1970 H1943 0.950 . S
C1970 C1956 1.377 . S
C1970 C1969 1.373 . S
C1971 C1955 1.377 . S
C1971 C1969 1.389 . S
C1971 C1972 1.524 . S
C1972 C1971 1.524 . S
C1972 C1973 1.397 . S
C1972 C1977 1.363 . S
C1973 H1944 0.950 . S
C1973 C1972 1.397 . S
C1973 C1974 1.334 . S
C1974 H1945 0.950 . S
C1974 C1973 1.334 . S
C1974 C1975 1.287 . S
C1975 C1974 1.287 . S
C1975 C1976 1.524 . S
C1975 H1978 0.999 . S
C1976 H1946 0.950 . S
C1976 C1975 1.524 . S
C1976 C1977 1.415 . S
C1977 H1947 0.950 . S
C1977 C1972 1.363 . S
C1977 C1976 1.415 . S
H1978 C1975 0.999 . S
H1979 C1960 0.913 . S
H1980 C1998 0.951 . S
H1981 C2000 0.951 . S
H1982 C2002 0.950 . S
H1983 C2003 0.950 . S
H1984 C2005 0.950 . S
H1985 C2008 0.950 . S
H1986 C2009 0.950 . S
H1987 C2011 0.950 1_455 S
H1988 C2012 0.950 1_455 S
H1989 C2013 0.951 . S
H1990 C2015 0.951 . S
H1991 C2017 0.981 . S
H1992 C2018 0.950 . S
H1993 C2020 0.950 . S
H1994 C2023 0.950 . S
H1995 C2024 0.950 . S
H1996 C2026 0.950 . S
H1997 C2027 0.950 . S
C1998 H1980 0.951 . S
C1998 C1999 1.366 . S
C1998 C2000 1.388 . S
C1999 C1998 1.366 . S
C1999 C2003 1.385 . S
C2000 H1981 0.951 . S
C2000 C1998 1.388 . S
C2000 C2001 1.366 . S
C2001 C2000 1.366 . S
C2001 C2002 1.414 . S
C2001 C2004 1.499 . S
C2002 H1982 0.950 . S
C2002 C2001 1.414 . S
C2002 C2003 1.374 . S
C2003 H1983 0.950 . S
C2003 C1999 1.385 . S
C2003 C2002 1.374 . S
C2004 C2001 1.499 . S
C2004 C2005 1.373 . S
C2004 C2006 1.389 . S
C2005 H1984 0.950 . S
C2005 C2004 1.373 . S
C2005 C2021 1.377 . S
C2006 C2004 1.389 . S
C2006 C2007 1.524 . S
C2006 C2020 1.377 . S
C2007 C2006 1.524 . S
C2007 C2008 1.397 . S
C2007 C2012 1.363 . S
C2008 H1985 0.950 . S
C2008 C2007 1.397 . S
C2008 C2009 1.334 . S
C2009 H1986 0.950 . S
C2009 C2008 1.334 . S
C2009 C2010 1.287 . S
C2010 C2009 1.287 . S
C2010 C2011 1.524 . S
C2010 H2029 0.913 . S
C2011 H1987 0.950 1_655 S
C2011 C2010 1.524 . S
C2011 C2012 1.415 . S
C2012 H1988 0.950 1_655 S
C2012 C2007 1.363 . S
C2012 C2011 1.415 . S
C2013 H1989 0.951 . S
C2013 C2014 1.366 . S
C2013 C2015 1.388 . S
C2014 C2013 1.366 . S
C2014 C2018 1.385 . S
C2015 H1990 0.951 . S
C2015 C2013 1.388 . S
C2015 C2016 1.366 . S
C2016 C2015 1.366 . S
C2016 C2017 1.414 . S
C2016 C2019 1.499 . S
C2017 H1991 0.981 . S
C2017 C2016 1.414 . S
C2017 C2018 1.374 . S
C2018 H1992 0.950 . S
C2018 C2014 1.385 . S
C2018 C2017 1.374 . S
C2019 C2016 1.499 . S
C2019 C2020 1.373 . S
C2019 C2021 1.389 . S
C2020 H1993 0.950 . S
C2020 C2006 1.377 . S
C2020 C2019 1.373 . S
C2021 C2005 1.377 . S
C2021 C2019 1.389 . S
C2021 C2022 1.524 . S
C2022 C2021 1.524 . S
C2022 C2023 1.397 . S
C2022 C2027 1.363 . S
C2023 H1994 0.950 . S
C2023 C2022 1.397 . S
C2023 C2024 1.334 . S
C2024 H1995 0.950 . S
C2024 C2023 1.334 . S
C2024 C2025 1.287 . S
C2025 C2024 1.287 . S
C2025 C2026 1.524 . S
C2025 H2028 0.999 . S
C2026 H1996 0.950 . S
C2026 C2025 1.524 . S
C2026 C2027 1.415 . S
C2027 H1997 0.950 . S
C2027 C2022 1.363 . S
C2027 C2026 1.415 . S
H2028 C2025 0.999 . S
H2029 C2010 0.913 . S
H2030 C2048 0.951 . S
H2031 C2050 0.951 . S
H2032 C2052 0.950 . S
H2033 C2053 0.950 . S
H2034 C2055 0.950 . S
H2035 C2058 0.950 . S
H2036 C2059 0.950 . S
H2037 C2061 0.950 . S
H2038 C2062 0.950 . S
H2039 C2063 0.951 . S
H2040 C2065 0.951 . S
H2041 C2067 0.950 . S
H2042 C2068 0.950 . S
H2043 C2070 0.950 . S
H2044 C2073 0.950 . S
H2045 C2074 0.950 . S
H2046 C2076 0.950 . S
H2047 C2077 0.950 . S
C2048 H2030 0.951 . S
C2048 C2049 1.366 . S
C2048 C2050 1.388 . S
C2049 C2048 1.366 . S
C2049 C2053 1.385 . S
C2050 H2031 0.951 . S
C2050 C2048 1.388 . S
C2050 C2051 1.366 . S
C2051 C2050 1.366 . S
C2051 C2052 1.414 . S
C2051 C2054 1.499 . S
C2052 H2032 0.950 . S
C2052 C2051 1.414 . S
C2052 C2053 1.374 . S
C2053 H2033 0.950 . S
C2053 C2049 1.385 . S
C2053 C2052 1.374 . S
C2054 C2051 1.499 . S
C2054 C2055 1.373 . S
C2054 C2056 1.389 . S
C2055 H2034 0.950 . S
C2055 C2054 1.373 . S
C2055 C2071 1.377 . S
C2056 C2054 1.389 . S
C2056 C2057 1.524 . S
C2056 C2070 1.377 . S
C2057 C2056 1.524 . S
C2057 C2058 1.397 . S
C2057 C2062 1.363 . S
C2058 H2035 0.950 . S
C2058 C2057 1.397 . S
C2058 C2059 1.334 . S
C2059 H2036 0.950 . S
C2059 C2058 1.334 . S
C2059 C2060 1.287 . S
C2060 C2059 1.287 . S
C2060 C2061 1.524 . S
C2060 H2079 0.913 . S
C2061 H2037 0.950 . S
C2061 C2060 1.524 . S
C2061 C2062 1.415 . S
C2062 H2038 0.950 . S
C2062 C2057 1.363 . S
C2062 C2061 1.415 . S
C2063 H2039 0.951 . S
C2063 C2064 1.366 . S
C2063 C2065 1.388 . S
C2064 C2063 1.366 . S
C2064 C2068 1.385 . S
C2065 H2040 0.951 . S
C2065 C2063 1.388 . S
C2065 C2066 1.366 . S
C2066 C2065 1.366 . S
C2066 C2067 1.414 . S
C2066 C2069 1.499 . S
C2067 H2041 0.950 . S
C2067 C2066 1.414 . S
C2067 C2068 1.374 . S
C2068 H2042 0.950 . S
C2068 C2064 1.385 . S
C2068 C2067 1.374 . S
C2069 C2066 1.499 . S
C2069 C2070 1.373 . S
C2069 C2071 1.389 . S
C2070 H2043 0.950 . S
C2070 C2056 1.377 . S
C2070 C2069 1.373 . S
C2071 C2055 1.377 . S
C2071 C2069 1.389 . S
C2071 C2072 1.524 . S
C2072 C2071 1.524 . S
C2072 C2073 1.397 . S
C2072 C2077 1.363 . S
C2073 H2044 0.950 . S
C2073 C2072 1.397 . S
C2073 C2074 1.334 . S
C2074 H2045 0.950 . S
C2074 C2073 1.334 . S
C2074 C2075 1.287 . S
C2075 C2074 1.287 . S
C2075 C2076 1.524 . S
C2075 H2078 0.999 . S
C2076 H2046 0.950 . S
C2076 C2075 1.524 . S
C2076 C2077 1.415 . S
C2077 H2047 0.950 . S
C2077 C2072 1.363 . S
C2077 C2076 1.415 . S
H2078 C2075 0.999 . S
H2079 C2060 0.913 . S
H2080 C2098 0.951 . S
H2081 C2100 0.821 1_556 S
H2082 C2102 0.950 . S
H2083 C2103 0.950 . S
H2084 C2105 0.950 . S
H2085 C2108 0.950 1_554 S
H2086 C2109 0.942 . S
H2087 C2111 0.950 . S
H2088 C2112 0.950 . S
H2089 C2113 0.951 . S
H2090 C2115 0.821 1_554 S
H2091 C2117 0.950 . S
H2092 C2118 0.950 . S
H2093 C2120 0.950 . S
H2094 C2123 0.950 1_556 S
H2095 C2124 0.942 . S
H2096 C2126 0.950 . S
H2097 C2127 0.950 . S
C2098 H2080 0.951 . S
C2098 C2099 1.366 . S
C2098 C2100 1.388 . S
C2099 C2098 1.366 . S
C2099 C2103 1.385 . S
C2100 H2081 0.821 1_554 S
C2100 C2098 1.388 . S
C2100 C2101 1.366 . S
C2101 C2100 1.366 . S
C2101 C2102 1.414 . S
C2101 C2104 1.499 . S
C2102 H2082 0.950 . S
C2102 C2101 1.414 . S
C2102 C2103 1.374 . S
C2103 H2083 0.950 . S
C2103 C2099 1.385 . S
C2103 C2102 1.374 . S
C2104 C2101 1.499 . S
C2104 C2105 1.373 1_545 S
C2104 C2106 1.389 1_554 S
C2105 H2084 0.950 . S
C2105 C2104 1.373 1_565 S
C2105 C2121 1.377 . S
C2106 C2104 1.389 1_556 S
C2106 C2107 1.524 . S
C2106 C2120 1.377 . S
C2107 C2106 1.524 . S
C2107 C2108 1.397 . S
C2107 C2112 1.363 . S
C2108 H2085 0.950 1_556 S
C2108 C2107 1.397 . S
C2108 C2109 1.334 . S
C2109 H2086 0.942 . S
C2109 C2108 1.334 . S
C2109 C2110 1.287 . S
C2110 C2109 1.287 . S
C2110 C2111 1.524 . S
C2110 H2129 0.913 . S
C2111 H2087 0.950 . S
C2111 C2110 1.524 . S
C2111 C2112 1.415 . S
C2112 H2088 0.950 . S
C2112 C2107 1.363 . S
C2112 C2111 1.415 . S
C2113 H2089 0.951 . S
C2113 C2114 1.366 . S
C2113 C2115 1.388 . S
C2114 C2113 1.366 . S
C2114 C2118 1.385 . S
C2115 H2090 0.821 1_556 S
C2115 C2113 1.388 . S
C2115 C2116 1.366 . S
C2116 C2115 1.366 . S
C2116 C2117 1.414 . S
C2116 C2119 1.499 . S
C2117 H2091 0.950 . S
C2117 C2116 1.414 . S
C2117 C2118 1.374 . S
C2118 H2092 0.950 . S
C2118 C2114 1.385 . S
C2118 C2117 1.374 . S
C2119 C2116 1.499 . S
C2119 C2120 1.373 1_565 S
C2119 C2121 1.389 1_556 S
C2120 H2093 0.950 . S
C2120 C2106 1.377 . S
C2120 C2119 1.373 1_545 S
C2121 C2105 1.377 . S
C2121 C2119 1.389 1_554 S
C2121 C2122 1.524 . S
C2122 C2121 1.524 . S
C2122 C2123 1.397 . S
C2122 C2127 1.363 . S
C2123 H2094 0.950 1_554 S
C2123 C2122 1.397 . S
C2123 C2124 1.334 . S
C2124 H2095 0.942 . S
C2124 C2123 1.334 . S
C2124 C2125 1.287 . S
C2125 C2124 1.287 . S
C2125 C2126 1.524 . S
C2125 H2128 0.999 . S
C2126 H2096 0.950 . S
C2126 C2125 1.524 . S
C2126 C2127 1.415 . S
C2127 H2097 0.950 . S
C2127 C2122 1.363 . S
C2127 C2126 1.415 . S
H2128 C2125 0.999 . S
H2129 C2110 0.913 . S
H2130 C2148 0.951 . S
H2131 C2150 0.951 . S
H2132 C2152 0.950 . S
H2133 C2153 0.950 . S
H2134 C2155 0.950 . S
H2135 C2158 0.950 . S
H2136 C2159 0.950 . S
H2137 C2161 0.950 . S
H2138 C2162 0.950 . S
H2139 C2163 0.951 . S
H2140 C2165 0.951 . S
H2141 C2167 0.950 . S
H2142 C2168 0.950 . S
H2143 C2170 0.950 . S
H2144 C2173 0.950 . S
H2145 C2174 0.950 . S
H2146 C2176 0.950 . S
H2147 C2177 0.950 . S
C2148 H2130 0.951 . S
C2148 C2149 1.366 . S
C2148 C2150 1.388 . S
C2149 C2148 1.366 . S
C2149 C2153 1.385 . S
C2150 H2131 0.951 . S
C2150 C2148 1.388 . S
C2150 C2151 1.366 . S
C2151 C2150 1.366 . S
C2151 C2152 1.414 . S
C2151 C2154 1.499 . S
C2152 H2132 0.950 . S
C2152 C2151 1.414 . S
C2152 C2153 1.374 . S
C2153 H2133 0.950 . S
C2153 C2149 1.385 . S
C2153 C2152 1.374 . S
C2154 C2151 1.499 . S
C2154 C2155 1.373 1_554 S
C2154 C2156 1.389 . S
C2155 H2134 0.950 . S
C2155 C2154 1.373 1_556 S
C2155 C2171 1.377 . S
C2156 C2154 1.389 . S
C2156 C2157 1.524 . S
C2156 C2170 1.377 . S
C2157 C2156 1.524 . S
C2157 C2158 1.397 . S
C2157 C2162 1.363 . S
C2158 H2135 0.950 . S
C2158 C2157 1.397 . S
C2158 C2159 1.334 . S
C2159 H2136 0.950 . S
C2159 C2158 1.334 . S
C2159 C2160 1.287 . S
C2160 C2159 1.287 . S
C2160 C2161 1.524 . S
C2160 H2179 0.913 . S
C2161 H2137 0.950 . S
C2161 C2160 1.524 . S
C2161 C2162 1.415 . S
C2162 H2138 0.950 . S
C2162 C2157 1.363 . S
C2162 C2161 1.415 . S
C2163 H2139 0.951 . S
C2163 C2164 1.366 . S
C2163 C2165 1.388 . S
C2164 C2163 1.366 . S
C2164 C2168 1.385 . S
C2165 H2140 0.951 . S
C2165 C2163 1.388 . S
C2165 C2166 1.366 . S
C2166 C2165 1.366 . S
C2166 C2167 1.414 . S
C2166 C2169 1.499 . S
C2167 H2141 0.950 . S
C2167 C2166 1.414 . S
C2167 C2168 1.374 . S
C2168 H2142 0.950 . S
C2168 C2164 1.385 . S
C2168 C2167 1.374 . S
C2169 C2166 1.499 . S
C2169 C2170 1.373 1_556 S
C2169 C2171 1.389 . S
C2170 H2143 0.950 . S
C2170 C2156 1.377 . S
C2170 C2169 1.373 1_554 S
C2171 C2155 1.377 . S
C2171 C2169 1.389 . S
C2171 C2172 1.524 . S
C2172 C2171 1.524 . S
C2172 C2173 1.397 . S
C2172 C2177 1.363 . S
C2173 H2144 0.950 . S
C2173 C2172 1.397 . S
C2173 C2174 1.334 . S
C2174 H2145 0.950 . S
C2174 C2173 1.334 . S
C2174 C2175 1.287 . S
C2175 C2174 1.287 . S
C2175 C2176 1.524 . S
C2175 H2178 0.999 . S
C2176 H2146 0.950 . S
C2176 C2175 1.524 . S
C2176 C2177 1.415 . S
C2177 H2147 0.950 . S
C2177 C2172 1.363 . S
C2177 C2176 1.415 . S
H2178 C2175 0.999 . S
H2179 C2160 0.913 . S
H2180 C2198 0.951 . S
H2181 C2200 0.951 . S
H2182 C2202 0.950 . S
H2183 C2203 0.950 . S
H2184 C2205 0.950 . S
H2185 C2208 0.950 . S
H2186 C2209 0.950 . S
H2187 C2211 0.950 . S
H2188 C2212 0.950 . S
H2189 C2213 0.951 . S
H2190 C2215 0.951 . S
H2191 C2217 0.950 . S
H2192 C2218 0.950 . S
H2193 C2220 0.950 . S
H2194 C2223 0.950 . S
H2195 C2224 0.950 . S
H2196 C2226 0.950 . S
H2197 C2227 0.950 . S
C2198 H2180 0.951 . S
C2198 C2199 1.366 . S
C2198 C2200 1.388 . S
C2199 C2198 1.366 . S
C2199 C2203 1.385 . S
C2200 H2181 0.951 . S
C2200 C2198 1.388 . S
C2200 C2201 1.366 . S
C2201 C2200 1.366 . S
C2201 C2202 1.414 . S
C2201 C2204 1.499 . S
C2202 H2182 0.950 . S
C2202 C2201 1.414 . S
C2202 C2203 1.374 . S
C2203 H2183 0.950 . S
C2203 C2199 1.385 . S
C2203 C2202 1.374 . S
C2204 C2201 1.499 . S
C2204 C2205 1.373 . S
C2204 C2206 1.389 . S
C2205 H2184 0.950 . S
C2205 C2204 1.373 . S
C2205 C2221 1.377 . S
C2206 C2204 1.389 . S
C2206 C2207 1.524 . S
C2206 C2220 1.377 . S
C2207 C2206 1.524 . S
C2207 C2208 1.397 . S
C2207 C2212 1.363 . S
C2208 H2185 0.950 . S
C2208 C2207 1.397 . S
C2208 C2209 1.334 . S
C2209 H2186 0.950 . S
C2209 C2208 1.334 . S
C2209 C2210 1.287 . S
C2210 C2209 1.287 . S
C2210 C2211 1.524 . S
C2210 H2229 0.913 . S
C2211 H2187 0.950 . S
C2211 C2210 1.524 . S
C2211 C2212 1.415 . S
C2212 H2188 0.950 . S
C2212 C2207 1.363 . S
C2212 C2211 1.415 . S
C2213 H2189 0.951 . S
C2213 C2214 1.366 . S
C2213 C2215 1.388 . S
C2214 C2213 1.366 . S
C2214 C2218 1.385 . S
C2215 H2190 0.951 . S
C2215 C2213 1.388 . S
C2215 C2216 1.366 . S
C2216 C2215 1.366 . S
C2216 C2217 1.414 . S
C2216 C2219 1.499 . S
C2217 H2191 0.950 . S
C2217 C2216 1.414 . S
C2217 C2218 1.374 . S
C2218 H2192 0.950 . S
C2218 C2214 1.385 . S
C2218 C2217 1.374 . S
C2219 C2216 1.499 . S
C2219 C2220 1.373 . S
C2219 C2221 1.389 . S
C2220 H2193 0.950 . S
C2220 C2206 1.377 . S
C2220 C2219 1.373 . S
C2221 C2205 1.377 . S
C2221 C2219 1.389 . S
C2221 C2222 1.524 . S
C2222 C2221 1.524 . S
C2222 C2223 1.397 . S
C2222 C2227 1.363 . S
C2223 H2194 0.950 . S
C2223 C2222 1.397 . S
C2223 C2224 1.334 . S
C2224 H2195 0.950 . S
C2224 C2223 1.334 . S
C2224 C2225 1.287 . S
C2225 C2224 1.287 . S
C2225 C2226 1.524 . S
C2225 H2228 0.999 . S
C2226 H2196 0.950 . S
C2226 C2225 1.524 . S
C2226 C2227 1.415 . S
C2227 H2197 0.950 . S
C2227 C2222 1.363 . S
C2227 C2226 1.415 . S
H2228 C2225 0.999 . S
H2229 C2210 0.913 . S
H2230 C2248 0.951 . S
H2231 C2250 0.951 . S
H2232 C2252 0.950 . S
H2233 C2253 0.950 . S
H2234 C2255 0.950 . S
H2235 C2258 0.950 . S
H2236 C2259 0.950 . S
H2237 C2261 0.950 . S
H2238 C2262 0.950 . S
H2239 C2263 0.951 . S
H2240 C2265 0.951 . S
H2241 C2267 0.950 . S
H2242 C2268 0.950 . S
H2243 C2270 0.950 . S
H2244 C2273 0.950 . S
H2245 C2274 0.950 . S
H2246 C2276 0.950 . S
H2247 C2277 0.950 . S
C2248 H2230 0.951 . S
C2248 C2249 1.366 . S
C2248 C2250 1.388 . S
C2249 C2248 1.366 . S
C2249 C2253 1.385 . S
C2250 H2231 0.951 . S
C2250 C2248 1.388 . S
C2250 C2251 1.366 . S
C2251 C2250 1.366 . S
C2251 C2252 1.414 . S
C2251 C2254 1.499 . S
C2252 H2232 0.950 . S
C2252 C2251 1.414 . S
C2252 C2253 1.374 . S
C2253 H2233 0.950 . S
C2253 C2249 1.385 . S
C2253 C2252 1.374 . S
C2254 C2251 1.499 . S
C2254 C2255 1.373 1_565 S
C2254 C2256 1.389 . S
C2255 H2234 0.950 . S
C2255 C2254 1.373 1_545 S
C2255 C2271 1.377 . S
C2256 C2254 1.389 . S
C2256 C2257 1.524 . S
C2256 C2270 1.373 . S
C2257 C2256 1.524 . S
C2257 C2258 1.397 . S
C2257 C2262 1.363 . S
C2258 H2235 0.950 . S
C2258 C2257 1.397 . S
C2258 C2259 1.334 . S
C2259 H2236 0.950 . S
C2259 C2258 1.334 . S
C2259 C2260 1.287 . S
C2260 C2259 1.287 . S
C2260 C2261 1.524 . S
C2260 H2279 0.913 . S
C2261 H2237 0.950 . S
C2261 C2260 1.524 . S
C2261 C2262 1.415 . S
C2262 H2238 0.950 . S
C2262 C2257 1.363 . S
C2262 C2261 1.415 . S
C2263 H2239 0.951 . S
C2263 C2264 1.366 . S
C2263 C2265 1.388 . S
C2264 C2263 1.366 . S
C2264 C2268 1.385 . S
C2265 H2240 0.951 . S
C2265 C2263 1.388 . S
C2265 C2266 1.366 . S
C2266 C2265 1.366 . S
C2266 C2267 1.414 . S
C2266 C2269 1.499 . S
C2267 H2241 0.950 . S
C2267 C2266 1.414 . S
C2267 C2268 1.374 . S
C2268 H2242 0.950 . S
C2268 C2264 1.385 . S
C2268 C2267 1.374 . S
C2269 C2266 1.499 . S
C2269 C2270 1.377 1_545 S
C2269 C2271 1.389 . S
C2270 H2243 0.950 . S
C2270 C2256 1.373 . S
C2270 C2269 1.377 1_565 S
C2271 C2255 1.377 . S
C2271 C2269 1.389 . S
C2271 C2272 1.524 . S
C2272 C2271 1.524 . S
C2272 C2273 1.397 . S
C2272 C2277 1.363 . S
C2273 H2244 0.950 . S
C2273 C2272 1.397 . S
C2273 C2274 1.334 . S
C2274 H2245 0.950 . S
C2274 C2273 1.334 . S
C2274 C2275 1.287 . S
C2275 C2274 1.287 . S
C2275 C2276 1.524 . S
C2275 H2278 0.999 . S
C2276 H2246 0.950 . S
C2276 C2275 1.524 . S
C2276 C2277 1.415 . S
C2277 H2247 0.950 . S
C2277 C2272 1.363 . S
C2277 C2276 1.415 . S
H2278 C2275 0.999 . S
H2279 C2260 0.913 . S
H2280 C2298 0.951 . S
H2281 C2300 0.951 . S
H2282 C2302 0.950 1_556 S
H2283 C2303 0.950 . S
H2284 C2305 0.950 . S
H2285 C2308 0.950 . S
H2286 C2309 0.950 . S
H2287 C2311 0.950 . S
H2288 C2312 0.950 . S
H2289 C2313 0.951 . S
H2290 C2315 0.951 . S
H2291 C2317 0.950 1_554 S
H2292 C2318 0.950 . S
H2293 C2320 0.950 . S
H2294 C2323 0.950 . S
H2295 C2324 0.950 . S
H2296 C2326 0.950 . S
H2297 C2327 0.950 . S
C2298 H2280 0.951 . S
C2298 C2299 1.366 . S
C2298 C2300 1.388 . S
C2299 C2298 1.366 . S
C2299 C2303 1.385 . S
C2300 H2281 0.951 . S
C2300 C2298 1.388 . S
C2300 C2301 1.366 . S
C2301 C2300 1.366 . S
C2301 C2302 1.414 . S
C2301 C2304 1.499 . S
C2302 H2282 0.950 1_554 S
C2302 C2301 1.414 . S
C2302 C2303 1.374 . S
C2303 H2283 0.950 . S
C2303 C2299 1.385 . S
C2303 C2302 1.374 . S
C2304 C2301 1.499 . S
C2304 C2305 1.373 1_554 S
C2304 C2306 1.389 . S
C2305 H2284 0.950 . S
C2305 C2304 1.373 1_556 S
C2305 C2321 1.377 . S
C2306 C2304 1.389 . S
C2306 C2307 1.524 . S
C2306 C2320 1.377 . S
C2307 C2306 1.524 . S
C2307 C2308 1.397 . S
C2307 C2312 1.363 . S
C2308 H2285 0.950 . S
C2308 C2307 1.397 . S
C2308 C2309 1.334 . S
C2309 H2286 0.950 . S
C2309 C2308 1.334 . S
C2309 C2310 1.287 . S
C2310 C2309 1.287 . S
C2310 C2311 1.524 . S
C2310 H2329 0.913 . S
C2311 H2287 0.950 . S
C2311 C2310 1.524 . S
C2311 C2312 1.415 . S
C2312 H2288 0.950 . S
C2312 C2307 1.363 . S
C2312 C2311 1.415 . S
C2313 H2289 0.951 . S
C2313 C2314 1.366 . S
C2313 C2315 1.388 . S
C2314 C2313 1.366 . S
C2314 C2318 1.385 . S
C2315 H2290 0.951 . S
C2315 C2313 1.388 . S
C2315 C2316 1.366 . S
C2316 C2315 1.366 . S
C2316 C2317 1.414 . S
C2316 C2319 1.499 . S
C2317 H2291 0.950 1_556 S
C2317 C2316 1.414 . S
C2317 C2318 1.374 . S
C2318 H2292 0.950 . S
C2318 C2314 1.385 . S
C2318 C2317 1.374 . S
C2319 C2316 1.499 . S
C2319 C2320 1.373 1_556 S
C2319 C2321 1.389 . S
C2320 H2293 0.950 . S
C2320 C2306 1.377 . S
C2320 C2319 1.373 1_554 S
C2321 C2305 1.377 . S
C2321 C2319 1.389 . S
C2321 C2322 1.524 . S
C2322 C2321 1.524 . S
C2322 C2323 1.397 . S
C2322 C2327 1.363 . S
C2323 H2294 0.950 . S
C2323 C2322 1.397 . S
C2323 C2324 1.334 . S
C2324 H2295 0.950 . S
C2324 C2323 1.334 . S
C2324 C2325 1.287 . S
C2325 C2324 1.287 . S
C2325 C2326 1.524 . S
C2325 H2328 0.999 . S
C2326 H2296 0.950 . S
C2326 C2325 1.524 . S
C2326 C2327 1.415 . S
C2327 H2297 0.950 . S
C2327 C2322 1.363 . S
C2327 C2326 1.415 . S
H2328 C2325 0.999 . S
H2329 C2310 0.913 . S
H2330 C2348 0.951 . S
H2331 C2350 0.951 . S
H2332 C2352 0.950 . S
H2333 C2353 0.950 . S
H2334 C2355 0.950 . S
H2335 C2358 0.950 . S
H2336 C2359 0.950 . S
H2337 C2361 0.950 . S
H2338 C2362 0.950 . S
H2339 C2363 0.951 . S
H2340 C2365 0.951 . S
H2341 C2367 0.950 . S
H2342 C2368 0.950 . S
H2343 C2370 0.950 . S
H2344 C2373 0.950 . S
H2345 C2374 0.950 . S
H2346 C2376 0.950 . S
H2347 C2377 0.950 . S
C2348 H2330 0.951 . S
C2348 C2349 1.366 . S
C2348 C2350 1.388 . S
C2349 C2348 1.366 . S
C2349 C2353 1.385 . S
C2350 H2331 0.951 . S
C2350 C2348 1.388 . S
C2350 C2351 1.366 . S
C2351 C2350 1.366 . S
C2351 C2352 1.414 . S
C2351 C2354 1.499 . S
C2352 H2332 0.950 . S
C2352 C2351 1.414 . S
C2352 C2353 1.374 . S
C2353 H2333 0.950 . S
C2353 C2349 1.385 . S
C2353 C2352 1.374 . S
C2354 C2351 1.499 . S
C2354 C2355 1.373 . S
C2354 C2356 1.389 . S
C2355 H2334 0.950 . S
C2355 C2354 1.373 . S
C2355 C2371 1.377 . S
C2356 C2354 1.389 . S
C2356 C2357 1.524 . S
C2356 C2370 1.377 . S
C2357 C2356 1.524 . S
C2357 C2358 1.397 . S
C2357 C2362 1.363 . S
C2358 H2335 0.950 . S
C2358 C2357 1.397 . S
C2358 C2359 1.334 . S
C2359 H2336 0.950 . S
C2359 C2358 1.334 . S
C2359 C2360 1.287 . S
C2360 C2359 1.287 . S
C2360 C2361 1.524 . S
C2360 H2379 0.913 . S
C2361 H2337 0.950 . S
C2361 C2360 1.524 . S
C2361 C2362 1.415 . S
C2362 H2338 0.950 . S
C2362 C2357 1.363 . S
C2362 C2361 1.415 . S
C2363 H2339 0.951 . S
C2363 C2364 1.366 . S
C2363 C2365 1.388 . S
C2364 C2363 1.366 . S
C2364 C2368 1.385 . S
C2365 H2340 0.951 . S
C2365 C2363 1.388 . S
C2365 C2366 1.366 . S
C2366 C2365 1.366 . S
C2366 C2367 1.414 . S
C2366 C2369 1.499 . S
C2367 H2341 0.950 . S
C2367 C2366 1.414 . S
C2367 C2368 1.374 . S
C2368 H2342 0.950 . S
C2368 C2364 1.385 . S
C2368 C2367 1.374 . S
C2369 C2366 1.499 . S
C2369 C2370 1.373 . S
C2369 C2371 1.389 . S
C2370 H2343 0.950 . S
C2370 C2356 1.377 . S
C2370 C2369 1.373 . S
C2371 C2355 1.377 . S
C2371 C2369 1.389 . S
C2371 C2372 1.524 . S
C2372 C2371 1.524 . S
C2372 C2373 1.397 . S
C2372 C2377 1.363 . S
C2373 H2344 0.950 . S
C2373 C2372 1.397 . S
C2373 C2374 1.334 . S
C2374 H2345 0.950 . S
C2374 C2373 1.334 . S
C2374 C2375 1.287 . S
C2375 C2374 1.287 . S
C2375 C2376 1.524 . S
C2375 H2378 0.999 . S
C2376 H2346 0.950 . S
C2376 C2375 1.524 . S
C2376 C2377 1.415 . S
C2377 H2347 0.950 . S
C2377 C2372 1.363 . S
C2377 C2376 1.415 . S
H2378 C2375 0.999 . S
H2379 C2360 0.913 . S
H2380 C2398 0.951 . S
H2381 C2400 0.951 . S
H2382 C2402 0.950 . S
H2383 C2403 0.950 . S
H2384 C2405 0.950 . S
H2385 C2408 0.950 1_545 S
H2386 C2409 0.950 . S
H2387 C2411 0.950 . S
H2388 C2412 0.950 . S
H2389 C2413 0.951 . S
H2390 C2415 0.951 . S
H2391 C2417 0.950 . S
H2392 C2418 0.950 . S
H2393 C2420 0.950 . S
H2394 C2423 0.936 1_565 S
H2395 C2424 0.950 . S
H2396 C2426 0.950 . S
H2397 C2427 0.950 . S
C2398 H2380 0.951 . S
C2398 C2399 1.366 . S
C2398 C2400 1.388 . S
C2399 C2398 1.366 . S
C2399 C2403 1.385 . S
C2400 H2381 0.951 . S
C2400 C2398 1.388 . S
C2400 C2401 1.366 . S
C2401 C2400 1.366 . S
C2401 C2402 1.414 . S
C2401 C2404 1.499 . S
C2402 H2382 0.950 . S
C2402 C2401 1.414 . S
C2402 C2403 1.374 . S
C2403 H2383 0.950 . S
C2403 C2399 1.385 . S
C2403 C2402 1.374 . S
C2404 C2401 1.499 . S
C2404 C2405 1.373 . S
C2404 C2406 1.389 1_545 S
C2405 H2384 0.950 . S
C2405 C2404 1.373 . S
C2405 C2421 1.384 . S
C2406 C2404 1.389 1_565 S
C2406 C2407 1.524 . S
C2406 C2420 1.377 . S
C2407 C2406 1.524 . S
C2407 C2408 1.397 . S
C2407 C2412 1.363 . S
C2408 H2385 0.950 1_565 S
C2408 C2407 1.397 . S
C2408 C2409 1.334 . S
C2409 H2386 0.950 . S
C2409 C2408 1.334 . S
C2409 C2410 1.287 . S
C2410 C2409 1.287 . S
C2410 C2411 1.524 . S
C2410 H2429 0.913 . S
C2411 H2387 0.950 . S
C2411 C2410 1.524 . S
C2411 C2412 1.415 . S
C2412 H2388 0.950 . S
C2412 C2407 1.363 . S
C2412 C2411 1.415 . S
C2413 H2389 0.951 . S
C2413 C2414 1.366 . S
C2413 C2415 1.388 . S
C2414 C2413 1.366 . S
C2414 C2418 1.385 . S
C2415 H2390 0.951 . S
C2415 C2413 1.388 . S
C2415 C2416 1.366 . S
C2416 C2415 1.366 . S
C2416 C2417 1.414 . S
C2416 C2419 1.499 . S
C2417 H2391 0.950 . S
C2417 C2416 1.414 . S
C2417 C2418 1.374 . S
C2418 H2392 0.950 . S
C2418 C2414 1.385 . S
C2418 C2417 1.374 . S
C2419 C2416 1.499 . S
C2419 C2420 1.373 . S
C2419 C2421 1.381 1_565 S
C2420 H2393 0.950 . S
C2420 C2406 1.377 . S
C2420 C2419 1.373 . S
C2421 C2405 1.384 . S
C2421 C2419 1.381 1_545 S
C2421 C2422 1.526 . S
C2422 C2421 1.526 . S
C2422 C2423 1.404 . S
C2422 C2427 1.363 . S
C2423 H2394 0.936 1_545 S
C2423 C2422 1.404 . S
C2423 C2424 1.342 . S
C2424 H2395 0.950 . S
C2424 C2423 1.342 . S
C2424 C2425 1.287 . S
C2425 C2424 1.287 . S
C2425 C2426 1.524 . S
C2425 H2428 0.999 . S
C2426 H2396 0.950 . S
C2426 C2425 1.524 . S
C2426 C2427 1.415 . S
C2427 H2397 0.950 . S
C2427 C2422 1.363 . S
C2427 C2426 1.415 . S
H2428 C2425 0.999 . S
H2429 C2410 0.913 . S
H2430 C2448 0.951 . S
H2431 C2450 0.951 . S
H2432 C2452 0.950 . S
H2433 C2453 0.950 . S
H2434 C2455 0.950 . S
H2435 C2458 0.950 . S
H2436 C2459 0.950 . S
H2437 C2461 0.950 . S
H2438 C2462 0.950 . S
H2439 C2463 0.951 . S
H2440 C2465 0.951 . S
H2441 C2467 0.950 . S
H2442 C2468 0.950 . S
H2443 C2470 0.950 . S
H2444 C2473 0.950 . S
H2445 C2474 0.950 . S
H2446 C2476 0.950 . S
H2447 C2477 0.950 . S
C2448 H2430 0.951 . S
C2448 C2449 1.366 . S
C2448 C2450 1.388 . S
C2449 C2448 1.366 . S
C2449 C2453 1.385 . S
C2450 H2431 0.951 . S
C2450 C2448 1.388 . S
C2450 C2451 1.366 . S
C2451 C2450 1.366 . S
C2451 C2452 1.414 . S
C2451 C2454 1.499 . S
C2452 H2432 0.950 . S
C2452 C2451 1.414 . S
C2452 C2453 1.374 . S
C2453 H2433 0.950 . S
C2453 C2449 1.385 . S
C2453 C2452 1.374 . S
C2454 C2451 1.499 . S
C2454 C2455 1.373 . S
C2454 C2456 1.389 . S
C2455 H2434 0.950 . S
C2455 C2454 1.373 . S
C2455 C2471 1.377 . S
C2456 C2454 1.389 . S
C2456 C2457 1.524 . S
C2456 C2470 1.377 . S
C2457 C2456 1.524 . S
C2457 C2458 1.397 . S
C2457 C2462 1.363 . S
C2458 H2435 0.950 . S
C2458 C2457 1.397 . S
C2458 C2459 1.334 . S
C2459 H2436 0.950 . S
C2459 C2458 1.334 . S
C2459 C2460 1.287 . S
C2460 C2459 1.287 . S
C2460 C2461 1.524 . S
C2460 H2479 0.913 . S
C2461 H2437 0.950 . S
C2461 C2460 1.524 . S
C2461 C2462 1.415 . S
C2462 H2438 0.950 . S
C2462 C2457 1.363 . S
C2462 C2461 1.415 . S
C2463 H2439 0.951 . S
C2463 C2464 1.366 . S
C2463 C2465 1.388 . S
C2464 C2463 1.366 . S
C2464 C2468 1.385 . S
C2465 H2440 0.951 . S
C2465 C2463 1.388 . S
C2465 C2466 1.366 . S
C2466 C2465 1.366 . S
C2466 C2467 1.414 . S
C2466 C2469 1.499 . S
C2467 H2441 0.950 . S
C2467 C2466 1.414 . S
C2467 C2468 1.374 . S
C2468 H2442 0.950 . S
C2468 C2464 1.385 . S
C2468 C2467 1.374 . S
C2469 C2466 1.499 . S
C2469 C2470 1.373 . S
C2469 C2471 1.389 . S
C2470 H2443 0.950 . S
C2470 C2456 1.377 . S
C2470 C2469 1.373 . S
C2471 C2455 1.377 . S
C2471 C2469 1.389 . S
C2471 C2472 1.524 . S
C2472 C2471 1.524 . S
C2472 C2473 1.397 . S
C2472 C2477 1.363 . S
C2473 H2444 0.950 . S
C2473 C2472 1.397 . S
C2473 C2474 1.334 . S
C2474 H2445 0.950 . S
C2474 C2473 1.334 . S
C2474 C2475 1.287 . S
C2475 C2474 1.287 . S
C2475 C2476 1.524 . S
C2475 H2478 0.999 . S
C2476 H2446 0.950 . S
C2476 C2475 1.524 . S
C2476 C2477 1.415 . S
C2477 H2447 0.950 . S
C2477 C2472 1.363 . S
C2477 C2476 1.415 . S
H2478 C2475 0.999 . S
H2479 C2460 0.913 . S
H2480 C2498 0.951 . S
H2481 C2500 0.951 . S
H2482 C2502 0.950 . S
H2483 C2503 0.950 . S
H2484 C2505 0.950 . S
H2485 C2508 0.950 . S
H2486 C2509 0.950 . S
H2487 C2511 0.950 . S
H2488 C2512 0.950 . S
H2489 C2513 0.951 . S
H2490 C2515 0.951 . S
H2491 C2517 0.950 . S
H2492 C2518 0.950 . S
H2493 C2520 0.950 . S
H2494 C2523 0.950 . S
H2495 C2524 0.950 . S
H2496 C2526 0.950 . S
H2497 C2527 0.950 . S
C2498 H2480 0.951 . S
C2498 C2499 1.366 . S
C2498 C2500 1.388 . S
C2499 C2498 1.366 . S
C2499 C2503 1.385 . S
C2500 H2481 0.951 . S
C2500 C2498 1.388 . S
C2500 C2501 1.366 . S
C2501 C2500 1.366 . S
C2501 C2502 1.414 . S
C2501 C2504 1.499 . S
C2502 H2482 0.950 . S
C2502 C2501 1.414 . S
C2502 C2503 1.374 . S
C2503 H2483 0.950 . S
C2503 C2499 1.385 . S
C2503 C2502 1.374 . S
C2504 C2501 1.499 . S
C2504 C2505 1.373 . S
C2504 C2506 1.389 . S
C2505 H2484 0.950 . S
C2505 C2504 1.373 . S
C2505 C2521 1.377 . S
C2506 C2504 1.389 . S
C2506 C2507 1.524 . S
C2506 C2520 1.377 . S
C2507 C2506 1.524 . S
C2507 C2508 1.397 . S
C2507 C2512 1.363 . S
C2508 H2485 0.950 . S
C2508 C2507 1.397 . S
C2508 C2509 1.334 . S
C2509 H2486 0.950 . S
C2509 C2508 1.334 . S
C2509 C2510 1.287 . S
C2510 C2509 1.287 . S
C2510 C2511 1.524 . S
C2510 H2529 0.913 . S
C2511 H2487 0.950 . S
C2511 C2510 1.524 . S
C2511 C2512 1.415 . S
C2512 H2488 0.950 . S
C2512 C2507 1.363 . S
C2512 C2511 1.415 . S
C2513 H2489 0.951 . S
C2513 C2514 1.366 . S
C2513 C2515 1.388 . S
C2514 C2513 1.366 . S
C2514 C2518 1.385 . S
C2515 H2490 0.951 . S
C2515 C2513 1.388 . S
C2515 C2516 1.366 . S
C2516 C2515 1.366 . S
C2516 C2517 1.414 . S
C2516 C2519 1.499 . S
C2517 H2491 0.950 . S
C2517 C2516 1.414 . S
C2517 C2518 1.374 . S
C2518 H2492 0.950 . S
C2518 C2514 1.385 . S
C2518 C2517 1.374 . S
C2519 C2516 1.499 . S
C2519 C2520 1.373 . S
C2519 C2521 1.389 . S
C2520 H2493 0.950 . S
C2520 C2506 1.377 . S
C2520 C2519 1.373 . S
C2521 C2505 1.377 . S
C2521 C2519 1.389 . S
C2521 C2522 1.524 . S
C2522 C2521 1.524 . S
C2522 C2523 1.397 . S
C2522 C2527 1.363 . S
C2523 H2494 0.950 . S
C2523 C2522 1.397 . S
C2523 C2524 1.334 . S
C2524 H2495 0.950 . S
C2524 C2523 1.334 . S
C2524 C2525 1.287 . S
C2525 C2524 1.287 . S
C2525 C2526 1.524 . S
C2525 H2528 0.999 . S
C2526 H2496 0.950 . S
C2526 C2525 1.524 . S
C2526 C2527 1.415 . S
C2527 H2497 0.950 . S
C2527 C2522 1.363 . S
C2527 C2526 1.415 . S
H2528 C2525 0.999 . S
H2529 C2510 0.913 . S
H2530 C2548 0.951 . S
H2531 C2550 0.951 . S
H2532 C2552 0.950 . S
H2533 C2553 0.950 . S
H2534 C2555 0.950 . S
H2535 C2558 0.950 . S
H2536 C2559 0.950 . S
H2537 C2561 0.950 . S
H2538 C2562 0.950 . S
H2539 C2563 0.951 . S
H2540 C2565 0.951 . S
H2541 C2567 0.950 . S
H2542 C2568 0.950 . S
H2543 C2570 0.950 . S
H2544 C2573 0.950 . S
H2545 C2574 0.950 . S
H2546 C2576 0.950 . S
H2547 C2577 0.950 . S
C2548 H2530 0.951 . S
C2548 C2549 1.366 . S
C2548 C2550 1.388 . S
C2549 C2548 1.366 . S
C2549 C2553 1.385 . S
C2550 H2531 0.951 . S
C2550 C2548 1.388 . S
C2550 C2551 1.366 . S
C2551 C2550 1.366 . S
C2551 C2552 1.414 . S
C2551 C2554 1.499 . S
C2552 H2532 0.950 . S
C2552 C2551 1.414 . S
C2552 C2553 1.374 . S
C2553 H2533 0.950 . S
C2553 C2549 1.385 . S
C2553 C2552 1.374 . S
C2554 C2551 1.499 . S
C2554 C2555 1.373 . S
C2554 C2556 1.389 . S
C2555 H2534 0.950 . S
C2555 C2554 1.373 . S
C2555 C2571 1.377 . S
C2556 C2554 1.389 . S
C2556 C2557 1.524 . S
C2556 C2570 1.377 . S
C2557 C2556 1.524 . S
C2557 C2558 1.397 . S
C2557 C2562 1.363 . S
C2558 H2535 0.950 . S
C2558 C2557 1.397 . S
C2558 C2559 1.334 . S
C2559 H2536 0.950 . S
C2559 C2558 1.334 . S
C2559 C2560 1.287 . S
C2560 C2559 1.287 . S
C2560 C2561 1.524 . S
C2560 H2579 0.913 . S
C2561 H2537 0.950 . S
C2561 C2560 1.524 . S
C2561 C2562 1.415 . S
C2562 H2538 0.950 . S
C2562 C2557 1.363 . S
C2562 C2561 1.415 . S
C2563 H2539 0.951 . S
C2563 C2564 1.366 . S
C2563 C2565 1.388 . S
C2564 C2563 1.366 . S
C2564 C2568 1.385 . S
C2565 H2540 0.951 . S
C2565 C2563 1.388 . S
C2565 C2566 1.366 . S
C2566 C2565 1.366 . S
C2566 C2567 1.414 . S
C2566 C2569 1.499 . S
C2567 H2541 0.950 . S
C2567 C2566 1.414 . S
C2567 C2568 1.374 . S
C2568 H2542 0.950 . S
C2568 C2564 1.385 . S
C2568 C2567 1.374 . S
C2569 C2566 1.499 . S
C2569 C2570 1.373 . S
C2569 C2571 1.389 . S
C2570 H2543 0.950 . S
C2570 C2556 1.377 . S
C2570 C2569 1.373 . S
C2571 C2555 1.377 . S
C2571 C2569 1.389 . S
C2571 C2572 1.524 . S
C2572 C2571 1.524 . S
C2572 C2573 1.397 . S
C2572 C2577 1.363 . S
C2573 H2544 0.950 . S
C2573 C2572 1.397 . S
C2573 C2574 1.334 . S
C2574 H2545 0.950 . S
C2574 C2573 1.334 . S
C2574 C2575 1.287 . S
C2575 C2574 1.287 . S
C2575 C2576 1.524 . S
C2575 H2578 0.999 . S
C2576 H2546 0.950 . S
C2576 C2575 1.524 . S
C2576 C2577 1.415 . S
C2577 H2547 0.950 . S
C2577 C2572 1.363 . S
C2577 C2576 1.415 . S
H2578 C2575 0.999 . S
H2579 C2560 0.913 . S
H2580 C2598 0.951 . S
H2581 C2600 0.951 . S
H2582 C2602 0.950 . S
H2583 C2603 0.950 . S
H2584 C2605 0.950 . S
H2585 C2608 0.950 . S
H2586 C2609 0.950 . S
H2587 C2611 0.950 . S
H2588 C2612 0.950 . S
H2589 C2613 0.951 . S
H2590 C2615 0.951 . S
H2591 C2617 0.950 . S
H2592 C2618 0.950 . S
H2593 C2620 0.950 . S
H2594 C2623 0.950 . S
H2595 C2624 0.950 . S
H2596 C2626 0.950 . S
H2597 C2627 0.950 . S
C2598 H2580 0.951 . S
C2598 C2599 1.366 . S
C2598 C2600 1.388 . S
C2599 C2598 1.366 . S
C2599 C2603 1.385 . S
C2600 H2581 0.951 . S
C2600 C2598 1.388 . S
C2600 C2601 1.366 . S
C2601 C2600 1.366 . S
C2601 C2602 1.414 . S
C2601 C2604 1.499 . S
C2602 H2582 0.950 . S
C2602 C2601 1.414 . S
C2602 C2603 1.374 . S
C2603 H2583 0.950 . S
C2603 C2599 1.385 . S
C2603 C2602 1.374 . S
C2604 C2601 1.499 . S
C2604 C2605 1.373 . S
C2604 C2606 1.389 . S
C2605 H2584 0.950 . S
C2605 C2604 1.373 . S
C2605 C2621 1.377 . S
C2606 C2604 1.389 . S
C2606 C2607 1.524 . S
C2606 C2620 1.377 . S
C2607 C2606 1.524 . S
C2607 C2608 1.397 . S
C2607 C2612 1.363 . S
C2608 H2585 0.950 . S
C2608 C2607 1.397 . S
C2608 C2609 1.334 . S
C2609 H2586 0.950 . S
C2609 C2608 1.334 . S
C2609 C2610 1.287 . S
C2610 C2609 1.287 . S
C2610 C2611 1.524 . S
C2610 H2629 0.913 . S
C2611 H2587 0.950 . S
C2611 C2610 1.524 . S
C2611 C2612 1.415 . S
C2612 H2588 0.950 . S
C2612 C2607 1.363 . S
C2612 C2611 1.415 . S
C2613 H2589 0.951 . S
C2613 C2614 1.366 . S
C2613 C2615 1.388 . S
C2614 C2613 1.366 . S
C2614 C2618 1.385 . S
C2615 H2590 0.951 . S
C2615 C2613 1.388 . S
C2615 C2616 1.366 . S
C2616 C2615 1.366 . S
C2616 C2617 1.414 . S
C2616 C2619 1.499 . S
C2617 H2591 0.950 . S
C2617 C2616 1.414 . S
C2617 C2618 1.374 . S
C2618 H2592 0.950 . S
C2618 C2614 1.385 . S
C2618 C2617 1.374 . S
C2619 C2616 1.499 . S
C2619 C2620 1.373 . S
C2619 C2621 1.389 . S
C2620 H2593 0.950 . S
C2620 C2606 1.377 . S
C2620 C2619 1.373 . S
C2621 C2605 1.377 . S
C2621 C2619 1.389 . S
C2621 C2622 1.524 . S
C2622 C2621 1.524 . S
C2622 C2623 1.397 . S
C2622 C2627 1.363 . S
C2623 H2594 0.950 . S
C2623 C2622 1.397 . S
C2623 C2624 1.334 . S
C2624 H2595 0.950 . S
C2624 C2623 1.334 . S
C2624 C2625 1.287 . S
C2625 C2624 1.287 . S
C2625 C2626 1.524 . S
C2625 H2628 0.999 . S
C2626 H2596 0.950 . S
C2626 C2625 1.524 . S
C2626 C2627 1.415 . S
C2627 H2597 0.950 . S
C2627 C2622 1.363 . S
C2627 C2626 1.415 . S
H2628 C2625 0.999 . S
H2629 C2610 0.913 . S
H2630 C2648 0.951 . S
H2631 C2650 0.951 . S
H2632 C2652 0.950 . S
H2633 C2653 0.950 . S
H2634 C2655 0.950 . S
H2635 C2658 0.950 . S
H2636 C2659 0.950 . S
H2637 C2661 0.950 . S
H2638 C2662 0.950 . S
H2639 C2663 0.951 . S
H2640 C2665 0.951 . S
H2641 C2667 0.950 . S
H2642 C2668 0.950 . S
H2643 C2670 0.950 . S
H2644 C2673 0.950 . S
H2645 C2674 0.950 . S
H2646 C2676 0.950 . S
H2647 C2677 0.950 . S
C2648 H2630 0.951 . S
C2648 C2649 1.366 . S
C2648 C2650 1.388 . S
C2649 C2648 1.366 . S
C2649 C2653 1.385 . S
C2650 H2631 0.951 . S
C2650 C2648 1.388 . S
C2650 C2651 1.366 . S
C2651 C2650 1.366 . S
C2651 C2652 1.414 . S
C2651 C2654 1.499 . S
C2652 H2632 0.950 . S
C2652 C2651 1.414 . S
C2652 C2653 1.374 . S
C2653 H2633 0.950 . S
C2653 C2649 1.385 . S
C2653 C2652 1.374 . S
C2654 C2651 1.499 . S
C2654 C2655 1.373 . S
C2654 C2656 1.389 . S
C2655 H2634 0.950 . S
C2655 C2654 1.373 . S
C2655 C2671 1.377 . S
C2656 C2654 1.389 . S
C2656 C2657 1.524 . S
C2656 C2670 1.377 . S
C2657 C2656 1.524 . S
C2657 C2658 1.397 . S
C2657 C2662 1.363 . S
C2658 H2635 0.950 . S
C2658 C2657 1.397 . S
C2658 C2659 1.334 . S
C2659 H2636 0.950 . S
C2659 C2658 1.334 . S
C2659 C2660 1.287 . S
C2660 C2659 1.287 . S
C2660 C2661 1.524 . S
C2660 H2679 0.913 . S
C2661 H2637 0.950 . S
C2661 C2660 1.524 . S
C2661 C2662 1.415 . S
C2662 H2638 0.950 . S
C2662 C2657 1.363 . S
C2662 C2661 1.415 . S
C2663 H2639 0.951 . S
C2663 C2664 1.366 . S
C2663 C2665 1.388 . S
C2664 C2663 1.366 . S
C2664 C2668 1.385 . S
C2665 H2640 0.951 . S
C2665 C2663 1.388 . S
C2665 C2666 1.366 . S
C2666 C2665 1.366 . S
C2666 C2667 1.414 . S
C2666 C2669 1.499 . S
C2667 H2641 0.950 . S
C2667 C2666 1.414 . S
C2667 C2668 1.374 . S
C2668 H2642 0.950 . S
C2668 C2664 1.385 . S
C2668 C2667 1.374 . S
C2669 C2666 1.499 . S
C2669 C2670 1.373 . S
C2669 C2671 1.389 . S
C2670 H2643 0.950 . S
C2670 C2656 1.377 . S
C2670 C2669 1.373 . S
C2671 C2655 1.377 . S
C2671 C2669 1.389 . S
C2671 C2672 1.524 . S
C2672 C2671 1.524 . S
C2672 C2673 1.397 . S
C2672 C2677 1.363 . S
C2673 H2644 0.950 . S
C2673 C2672 1.397 . S
C2673 C2674 1.334 . S
C2674 H2645 0.950 . S
C2674 C2673 1.334 . S
C2674 C2675 1.287 . S
C2675 C2674 1.287 . S
C2675 C2676 1.524 . S
C2675 H2678 0.999 . S
C2676 H2646 0.950 . S
C2676 C2675 1.524 . S
C2676 C2677 1.415 . S
C2677 H2647 0.950 . S
C2677 C2672 1.363 . S
C2677 C2676 1.415 . S
H2678 C2675 0.999 . S
H2679 C2660 0.913 . S
H2680 C2698 0.951 . S
H2681 C2700 0.951 . S
H2682 C2702 0.950 . S
H2683 C2703 0.950 . S
H2684 C2705 0.950 . S
H2685 C2708 0.950 . S
H2686 C2709 0.950 . S
H2687 C2711 0.950 . S
H2688 C2712 0.950 . S
H2689 C2713 0.951 . S
H2690 C2715 0.951 . S
H2691 C2717 0.950 . S
H2692 C2718 0.950 . S
H2693 C2720 0.950 . S
H2694 C2723 0.950 . S
H2695 C2724 0.950 . S
H2696 C2726 0.950 . S
H2697 C2727 0.950 . S
C2698 H2680 0.951 . S
C2698 C2699 1.366 . S
C2698 C2700 1.388 . S
C2699 C2698 1.366 . S
C2699 C2703 1.385 . S
C2700 H2681 0.951 . S
C2700 C2698 1.388 . S
C2700 C2701 1.366 . S
C2701 C2700 1.366 . S
C2701 C2702 1.414 . S
C2701 C2704 1.499 . S
C2702 H2682 0.950 . S
C2702 C2701 1.414 . S
C2702 C2703 1.374 . S
C2703 H2683 0.950 . S
C2703 C2699 1.385 . S
C2703 C2702 1.374 . S
C2704 C2701 1.499 . S
C2704 C2705 1.373 1_655 S
C2704 C2706 1.389 . S
C2705 H2684 0.950 . S
C2705 C2704 1.373 1_455 S
C2705 C2721 1.377 1_565 S
C2706 C2704 1.389 . S
C2706 C2707 1.524 . S
C2706 C2720 1.377 1_565 S
C2707 C2706 1.524 . S
C2707 C2708 1.397 . S
C2707 C2712 1.363 . S
C2708 H2685 0.950 . S
C2708 C2707 1.397 . S
C2708 C2709 1.334 . S
C2709 H2686 0.950 . S
C2709 C2708 1.334 . S
C2709 C2710 1.287 . S
C2710 C2709 1.287 . S
C2710 C2711 1.524 . S
C2710 H2729 0.913 . S
C2711 H2687 0.950 . S
C2711 C2710 1.524 . S
C2711 C2712 1.415 . S
C2712 H2688 0.950 . S
C2712 C2707 1.363 . S
C2712 C2711 1.415 . S
C2713 H2689 0.951 . S
C2713 C2714 1.366 . S
C2713 C2715 1.388 . S
C2714 C2713 1.366 . S
C2714 C2718 1.385 . S
C2715 H2690 0.951 . S
C2715 C2713 1.388 . S
C2715 C2716 1.366 . S
C2716 C2715 1.366 . S
C2716 C2717 1.414 . S
C2716 C2719 1.499 . S
C2717 H2691 0.950 . S
C2717 C2716 1.414 . S
C2717 C2718 1.374 . S
C2718 H2692 0.950 . S
C2718 C2714 1.385 . S
C2718 C2717 1.374 . S
C2719 C2716 1.499 . S
C2719 C2720 1.373 1_455 S
C2719 C2721 1.389 . S
C2720 H2693 0.950 . S
C2720 C2706 1.377 1_545 S
C2720 C2719 1.373 1_655 S
C2721 C2705 1.377 1_545 S
C2721 C2719 1.389 . S
C2721 C2722 1.524 . S
C2722 C2721 1.524 . S
C2722 C2723 1.397 . S
C2722 C2727 1.363 . S
C2723 H2694 0.950 . S
C2723 C2722 1.397 . S
C2723 C2724 1.334 . S
C2724 H2695 0.950 . S
C2724 C2723 1.334 . S
C2724 C2725 1.287 . S
C2725 C2724 1.287 . S
C2725 C2726 1.524 . S
C2725 H2728 0.999 . S
C2726 H2696 0.950 . S
C2726 C2725 1.524 . S
C2726 C2727 1.415 . S
C2727 H2697 0.950 . S
C2727 C2722 1.363 . S
C2727 C2726 1.415 . S
H2728 C2725 0.999 . S
H2729 C2710 0.913 . S
H2730 C2748 0.951 . S
H2731 C2750 0.951 . S
H2732 C2752 0.950 . S
H2733 C2753 0.950 . S
H2734 C2755 0.950 . S
H2735 C2758 0.950 . S
H2736 C2759 0.950 . S
H2737 C2761 0.950 . S
H2738 C2762 0.950 . S
H2739 C2763 0.951 . S
H2740 C2765 0.951 . S
H2741 C2767 0.950 . S
H2742 C2768 0.950 . S
H2743 C2770 0.950 . S
H2744 C2773 0.950 . S
H2745 C2774 0.950 . S
H2746 C2776 0.950 . S
H2747 C2777 0.950 . S
C2748 H2730 0.951 . S
C2748 C2749 1.366 . S
C2748 C2750 1.388 . S
C2749 C2748 1.366 . S
C2749 C2753 1.385 . S
C2750 H2731 0.951 . S
C2750 C2748 1.388 . S
C2750 C2751 1.366 . S
C2751 C2750 1.366 . S
C2751 C2752 1.414 . S
C2751 C2754 1.499 . S
C2752 H2732 0.950 . S
C2752 C2751 1.414 . S
C2752 C2753 1.374 . S
C2753 H2733 0.950 . S
C2753 C2749 1.385 . S
C2753 C2752 1.374 . S
C2754 C2751 1.499 . S
C2754 C2755 1.373 1_455 S
C2754 C2756 1.389 . S
C2755 H2734 0.950 . S
C2755 C2754 1.373 1_655 S
C2755 C2771 1.377 . S
C2756 C2754 1.389 . S
C2756 C2757 1.524 . S
C2756 C2770 1.377 . S
C2757 C2756 1.524 . S
C2757 C2758 1.397 . S
C2757 C2762 1.363 . S
C2758 H2735 0.950 . S
C2758 C2757 1.397 . S
C2758 C2759 1.334 . S
C2759 H2736 0.950 . S
C2759 C2758 1.334 . S
C2759 C2760 1.287 . S
C2760 C2759 1.287 . S
C2760 C2761 1.524 . S
C2760 H2779 0.913 . S
C2761 H2737 0.950 . S
C2761 C2760 1.524 . S
C2761 C2762 1.415 . S
C2762 H2738 0.950 . S
C2762 C2757 1.363 . S
C2762 C2761 1.415 . S
C2763 H2739 0.951 . S
C2763 C2764 1.366 . S
C2763 C2765 1.388 . S
C2764 C2763 1.366 . S
C2764 C2768 1.385 . S
C2765 H2740 0.951 . S
C2765 C2763 1.388 . S
C2765 C2766 1.366 . S
C2766 C2765 1.366 . S
C2766 C2767 1.414 . S
C2766 C2769 1.499 . S
C2767 H2741 0.950 . S
C2767 C2766 1.414 . S
C2767 C2768 1.374 . S
C2768 H2742 0.950 . S
C2768 C2764 1.385 . S
C2768 C2767 1.374 . S
C2769 C2766 1.499 . S
C2769 C2770 1.373 1_655 S
C2769 C2771 1.389 . S
C2770 H2743 0.950 . S
C2770 C2756 1.377 . S
C2770 C2769 1.373 1_455 S
C2771 C2755 1.377 . S
C2771 C2769 1.389 . S
C2771 C2772 1.524 . S
C2772 C2771 1.524 . S
C2772 C2773 1.397 . S
C2772 C2777 1.363 . S
C2773 H2744 0.950 . S
C2773 C2772 1.397 . S
C2773 C2774 1.334 . S
C2774 H2745 0.950 . S
C2774 C2773 1.334 . S
C2774 C2775 1.287 . S
C2775 C2774 1.287 . S
C2775 C2776 1.524 . S
C2775 H2778 0.999 . S
C2776 H2746 0.950 . S
C2776 C2775 1.524 . S
C2776 C2777 1.415 . S
C2777 H2747 0.950 . S
C2777 C2772 1.363 . S
C2777 C2776 1.415 . S
H2778 C2775 0.999 . S
H2779 C2760 0.913 . S
H2780 C2798 0.951 . S
H2781 C2800 0.951 . S
H2782 C2802 0.932 1_455 S
H2783 C2803 0.950 . S
H2784 C2805 0.950 . S
H2785 C2808 0.950 . S
H2786 C2809 0.950 . S
H2787 C2811 0.950 . S
H2788 C2812 0.950 . S
H2789 C2813 0.951 . S
H2790 C2815 0.951 . S
H2791 C2817 0.938 1_655 S
H2792 C2818 0.950 . S
H2793 C2820 0.950 . S
H2794 C2823 0.950 . S
H2795 C2824 0.950 . S
H2796 C2826 0.950 . S
H2797 C2827 0.950 . S
C2798 H2780 0.951 . S
C2798 C2799 1.366 . S
C2798 C2800 1.388 . S
C2799 C2798 1.366 . S
C2799 C2803 1.385 . S
C2800 H2781 0.951 . S
C2800 C2798 1.388 . S
C2800 C2801 1.366 . S
C2801 C2800 1.366 . S
C2801 C2802 1.414 . S
C2801 C2804 1.499 . S
C2802 H2782 0.932 1_655 S
C2802 C2801 1.414 . S
C2802 C2803 1.374 . S
C2803 H2783 0.950 . S
C2803 C2799 1.385 . S
C2803 C2802 1.374 . S
C2804 C2801 1.499 . S
C2804 C2805 1.373 1_655 S
C2804 C2806 1.389 . S
C2805 H2784 0.950 . S
C2805 C2804 1.373 1_455 S
C2805 C2821 1.377 . S
C2806 C2804 1.389 . S
C2806 C2807 1.524 . S
C2806 C2820 1.377 . S
C2807 C2806 1.524 . S
C2807 C2808 1.397 . S
C2807 C2812 1.363 . S
C2808 H2785 0.950 . S
C2808 C2807 1.397 . S
C2808 C2809 1.334 . S
C2809 H2786 0.950 . S
C2809 C2808 1.334 . S
C2809 C2810 1.287 . S
C2810 C2809 1.287 . S
C2810 C2811 1.524 . S
C2810 H2829 0.913 . S
C2811 H2787 0.950 . S
C2811 C2810 1.524 . S
C2811 C2812 1.415 . S
C2812 H2788 0.950 . S
C2812 C2807 1.363 . S
C2812 C2811 1.415 . S
C2813 H2789 0.951 . S
C2813 C2814 1.366 . S
C2813 C2815 1.388 . S
C2814 C2813 1.366 . S
C2814 C2818 1.385 . S
C2815 H2790 0.951 . S
C2815 C2813 1.388 . S
C2815 C2816 1.366 . S
C2816 C2815 1.366 . S
C2816 C2817 1.414 . S
C2816 C2819 1.499 . S
C2817 H2791 0.938 1_455 S
C2817 C2816 1.414 . S
C2817 C2818 1.374 . S
C2818 H2792 0.950 . S
C2818 C2814 1.385 . S
C2818 C2817 1.374 . S
C2819 C2816 1.499 . S
C2819 C2820 1.373 1_455 S
C2819 C2821 1.389 . S
C2820 H2793 0.950 . S
C2820 C2806 1.377 . S
C2820 C2819 1.373 1_655 S
C2821 C2805 1.377 . S
C2821 C2819 1.389 . S
C2821 C2822 1.524 . S
C2822 C2821 1.524 . S
C2822 C2823 1.397 . S
C2822 C2827 1.363 . S
C2823 H2794 0.950 . S
C2823 C2822 1.397 . S
C2823 C2824 1.334 . S
C2824 H2795 0.950 . S
C2824 C2823 1.334 . S
C2824 C2825 1.287 . S
C2825 C2824 1.287 . S
C2825 C2826 1.524 . S
C2825 H2828 0.999 . S
C2826 H2796 0.950 . S
C2826 C2825 1.524 . S
C2826 C2827 1.415 . S
C2827 H2797 0.950 . S
C2827 C2822 1.363 . S
C2827 C2826 1.415 . S
H2828 C2825 0.999 . S
H2829 C2810 0.913 . S
H2830 C2848 0.951 . S
H2831 C2850 0.951 . S
H2832 C2852 0.950 . S
H2833 C2853 0.950 1_655 S
H2834 C2855 0.950 . S
H2835 C2858 0.950 . S
H2836 C2859 0.950 . S
H2837 C2861 0.950 . S
H2838 C2862 0.935 1_554 S
H2839 C2863 0.951 . S
H2840 C2865 0.951 . S
H2841 C2867 0.950 . S
H2842 C2868 0.950 1_455 S
H2843 C2870 0.950 . S
H2844 C2873 0.950 . S
H2845 C2874 0.950 . S
H2846 C2876 0.950 . S
H2847 C2877 0.935 1_556 S
C2848 H2830 0.951 . S
C2848 C2849 1.366 . S
C2848 C2850 1.388 . S
C2849 C2848 1.366 . S
C2849 C2853 1.385 . S
C2850 H2831 0.951 . S
C2850 C2848 1.388 . S
C2850 C2851 1.366 . S
C2851 C2850 1.366 . S
C2851 C2852 1.414 1_455 S
C2851 C2854 1.499 . S
C2852 H2832 0.950 . S
C2852 C2851 1.414 1_655 S
C2852 C2853 1.374 1_655 S
C2853 H2833 0.950 1_455 S
C2853 C2849 1.385 . S
C2853 C2852 1.374 1_455 S
C2854 C2851 1.499 . S
C2854 C2855 1.373 1_455 S
C2854 C2856 1.339 1_554 S
C2855 H2834 0.950 . S
C2855 C2854 1.373 1_655 S
C2855 C2871 1.424 . S
C2856 C2854 1.339 1_556 S
C2856 C2857 1.545 . S
C2856 C2870 1.423 . S
C2857 C2856 1.545 . S
C2857 C2858 1.397 . S
C2857 C2862 1.363 . S
C2858 H2835 0.950 . S
C2858 C2857 1.397 . S
C2858 C2859 1.334 . S
C2859 H2836 0.950 . S
C2859 C2858 1.334 . S
C2859 C2860 1.287 . S
C2860 C2859 1.287 . S
C2860 C2861 1.524 . S
C2860 H2879 0.913 . S
C2861 H2837 0.950 . S
C2861 C2860 1.524 . S
C2861 C2862 1.415 . S
C2862 H2838 0.935 1_556 S
C2862 C2857 1.363 . S
C2862 C2861 1.415 . S
C2863 H2839 0.951 . S
C2863 C2864 1.366 . S
C2863 C2865 1.388 . S
C2864 C2863 1.366 . S
C2864 C2868 1.385 . S
C2865 H2840 0.951 . S
C2865 C2863 1.388 . S
C2865 C2866 1.366 . S
C2866 C2865 1.366 . S
C2866 C2867 1.414 1_655 S
C2866 C2869 1.499 . S
C2867 H2841 0.950 . S
C2867 C2866 1.414 1_455 S
C2867 C2868 1.374 1_455 S
C2868 H2842 0.950 1_655 S
C2868 C2864 1.385 . S
C2868 C2867 1.374 1_655 S
C2869 C2866 1.499 . S
C2869 C2870 1.373 1_655 S
C2869 C2871 1.338 1_556 S
C2870 H2843 0.950 . S
C2870 C2856 1.423 . S
C2870 C2869 1.373 1_455 S
C2871 C2855 1.424 . S
C2871 C2869 1.338 1_554 S
C2871 C2872 1.545 . S
C2872 C2871 1.545 . S
C2872 C2873 1.397 . S
C2872 C2877 1.363 . S
C2873 H2844 0.950 . S
C2873 C2872 1.397 . S
C2873 C2874 1.334 . S
C2874 H2845 0.950 . S
C2874 C2873 1.334 . S
C2874 C2875 1.287 . S
C2875 C2874 1.287 . S
C2875 C2876 1.524 . S
C2875 H2878 0.999 . S
C2876 H2846 0.950 . S
C2876 C2875 1.524 . S
C2876 C2877 1.415 . S
C2877 H2847 0.935 1_554 S
C2877 C2872 1.363 . S
C2877 C2876 1.415 . S
H2878 C2875 0.999 . S
H2879 C2860 0.913 . S
H2880 C2898 0.951 . S
H2881 C2900 0.951 . S
H2882 C2902 0.950 . S
H2883 C2903 0.950 . S
H2884 C2905 0.950 . S
H2885 C2908 0.950 . S
H2886 C2909 0.950 . S
H2887 C2911 0.950 . S
H2888 C2912 0.950 . S
H2889 C2913 0.951 . S
H2890 C2915 0.951 . S
H2891 C2917 0.950 . S
H2892 C2918 0.950 . S
H2893 C2920 0.950 . S
H2894 C2923 0.950 . S
H2895 C2924 0.950 . S
H2896 C2926 0.950 . S
H2897 C2927 0.950 . S
C2898 H2880 0.951 . S
C2898 C2899 1.366 . S
C2898 C2900 1.388 . S
C2899 C2898 1.366 . S
C2899 C2903 1.385 . S
C2900 H2881 0.951 . S
C2900 C2898 1.388 . S
C2900 C2901 1.366 . S
C2901 C2900 1.366 . S
C2901 C2902 1.414 . S
C2901 C2904 1.499 . S
C2902 H2882 0.950 . S
C2902 C2901 1.414 . S
C2902 C2903 1.374 . S
C2903 H2883 0.950 . S
C2903 C2899 1.385 . S
C2903 C2902 1.374 . S
C2904 C2901 1.499 . S
C2904 C2905 1.373 . S
C2904 C2906 1.389 . S
C2905 H2884 0.950 . S
C2905 C2904 1.373 . S
C2905 C2921 1.377 . S
C2906 C2904 1.389 . S
C2906 C2907 1.524 . S
C2906 C2920 1.377 . S
C2907 C2906 1.524 . S
C2907 C2908 1.397 . S
C2907 C2912 1.363 . S
C2908 H2885 0.950 . S
C2908 C2907 1.397 . S
C2908 C2909 1.334 . S
C2909 H2886 0.950 . S
C2909 C2908 1.334 . S
C2909 C2910 1.287 . S
C2910 C2909 1.287 . S
C2910 C2911 1.524 . S
C2910 H2929 0.913 . S
C2911 H2887 0.950 . S
C2911 C2910 1.524 . S
C2911 C2912 1.415 . S
C2912 H2888 0.950 . S
C2912 C2907 1.363 . S
C2912 C2911 1.415 . S
C2913 H2889 0.951 . S
C2913 C2914 1.366 . S
C2913 C2915 1.388 . S
C2914 C2913 1.366 . S
C2914 C2918 1.385 . S
C2915 H2890 0.951 . S
C2915 C2913 1.388 . S
C2915 C2916 1.366 . S
C2916 C2915 1.366 . S
C2916 C2917 1.414 . S
C2916 C2919 1.499 . S
C2917 H2891 0.950 . S
C2917 C2916 1.414 . S
C2917 C2918 1.374 . S
C2918 H2892 0.950 . S
C2918 C2914 1.385 . S
C2918 C2917 1.374 . S
C2919 C2916 1.499 . S
C2919 C2920 1.373 . S
C2919 C2921 1.389 . S
C2920 H2893 0.950 . S
C2920 C2906 1.377 . S
C2920 C2919 1.373 . S
C2921 C2905 1.377 . S
C2921 C2919 1.389 . S
C2921 C2922 1.524 . S
C2922 C2921 1.524 . S
C2922 C2923 1.397 . S
C2922 C2927 1.363 . S
C2923 H2894 0.950 . S
C2923 C2922 1.397 . S
C2923 C2924 1.334 . S
C2924 H2895 0.950 . S
C2924 C2923 1.334 . S
C2924 C2925 1.287 . S
C2925 C2924 1.287 . S
C2925 C2926 1.524 . S
C2925 H2928 0.999 . S
C2926 H2896 0.950 . S
C2926 C2925 1.524 . S
C2926 C2927 1.415 . S
C2927 H2897 0.950 . S
C2927 C2922 1.363 . S
C2927 C2926 1.415 . S
H2928 C2925 0.999 . S
H2929 C2910 0.913 . S
H2930 C2948 0.951 . S
H2931 C2950 0.951 . S
H2932 C2952 0.950 . S
H2933 C2953 0.950 . S
H2934 C2955 0.950 . S
H2935 C2958 0.950 . S
H2936 C2959 0.950 . S
H2937 C2961 0.950 . S
H2938 C2962 0.950 . S
H2939 C2963 0.951 . S
H2940 C2965 0.951 . S
H2941 C2967 0.950 . S
H2942 C2968 0.950 . S
H2943 C2970 0.950 . S
H2944 C2973 0.950 . S
H2945 C2974 0.950 . S
H2946 C2976 0.950 . S
H2947 C2977 0.950 . S
C2948 H2930 0.951 . S
C2948 C2949 1.366 . S
C2948 C2950 1.388 . S
C2949 C2948 1.366 . S
C2949 C2953 1.385 . S
C2950 H2931 0.951 . S
C2950 C2948 1.388 . S
C2950 C2951 1.366 . S
C2951 C2950 1.366 . S
C2951 C2952 1.414 . S
C2951 C2954 1.499 . S
C2952 H2932 0.950 . S
C2952 C2951 1.414 . S
C2952 C2953 1.374 . S
C2953 H2933 0.950 . S
C2953 C2949 1.385 . S
C2953 C2952 1.374 . S
C2954 C2951 1.499 . S
C2954 C2955 1.373 . S
C2954 C2956 1.389 . S
C2955 H2934 0.950 . S
C2955 C2954 1.373 . S
C2955 C2971 1.377 . S
C2956 C2954 1.389 . S
C2956 C2957 1.524 . S
C2956 C2970 1.377 . S
C2957 C2956 1.524 . S
C2957 C2958 1.397 . S
C2957 C2962 1.363 . S
C2958 H2935 0.950 . S
C2958 C2957 1.397 . S
C2958 C2959 1.334 . S
C2959 H2936 0.950 . S
C2959 C2958 1.334 . S
C2959 C2960 1.287 . S
C2960 C2959 1.287 . S
C2960 C2961 1.524 . S
C2960 H2979 0.913 . S
C2961 H2937 0.950 . S
C2961 C2960 1.524 . S
C2961 C2962 1.415 . S
C2962 H2938 0.950 . S
C2962 C2957 1.363 . S
C2962 C2961 1.415 . S
C2963 H2939 0.951 . S
C2963 C2964 1.366 . S
C2963 C2965 1.388 . S
C2964 C2963 1.366 . S
C2964 C2968 1.385 . S
C2965 H2940 0.951 . S
C2965 C2963 1.388 . S
C2965 C2966 1.366 . S
C2966 C2965 1.366 . S
C2966 C2967 1.414 . S
C2966 C2969 1.499 . S
C2967 H2941 0.950 . S
C2967 C2966 1.414 . S
C2967 C2968 1.374 . S
C2968 H2942 0.950 . S
C2968 C2964 1.385 . S
C2968 C2967 1.374 . S
C2969 C2966 1.499 . S
C2969 C2970 1.373 . S
C2969 C2971 1.389 . S
C2970 H2943 0.950 . S
C2970 C2956 1.377 . S
C2970 C2969 1.373 . S
C2971 C2955 1.377 . S
C2971 C2969 1.389 . S
C2971 C2972 1.524 . S
C2972 C2971 1.524 . S
C2972 C2973 1.397 . S
C2972 C2977 1.363 . S
C2973 H2944 0.950 . S
C2973 C2972 1.397 . S
C2973 C2974 1.334 . S
C2974 H2945 0.950 . S
C2974 C2973 1.334 . S
C2974 C2975 1.287 . S
C2975 C2974 1.287 . S
C2975 C2976 1.524 . S
C2975 H2978 0.999 . S
C2976 H2946 0.950 . S
C2976 C2975 1.524 . S
C2976 C2977 1.415 . S
C2977 H2947 0.950 . S
C2977 C2972 1.363 . S
C2977 C2976 1.415 . S
H2978 C2975 0.999 . S
H2979 C2960 0.913 . S
H2980 C2998 0.951 . S
H2981 C3000 0.951 . S
H2982 C3002 0.950 . S
H2983 C3003 0.950 . S
H2984 C3005 0.950 . S
H2985 C3008 0.950 . S
H2986 C3009 0.950 . S
H2987 C3011 0.950 . S
H2988 C3012 0.950 . S
H2989 C3013 0.951 . S
H2990 C3015 0.951 . S
H2991 C3017 0.950 . S
H2992 C3018 0.950 . S
H2993 C3020 0.950 . S
H2994 C3023 0.950 . S
H2995 C3024 0.950 . S
H2996 C3026 0.950 . S
H2997 C3027 0.950 . S
C2998 H2980 0.951 . S
C2998 C2999 1.366 . S
C2998 C3000 1.388 . S
C2999 C2998 1.366 . S
C2999 C3003 1.385 . S
C3000 H2981 0.951 . S
C3000 C2998 1.388 . S
C3000 C3001 1.366 . S
C3001 C3000 1.366 . S
C3001 C3002 1.414 . S
C3001 C3004 1.499 . S
C3002 H2982 0.950 . S
C3002 C3001 1.414 . S
C3002 C3003 1.374 . S
C3003 H2983 0.950 . S
C3003 C2999 1.385 . S
C3003 C3002 1.374 . S
C3004 C3001 1.499 . S
C3004 C3005 1.373 . S
C3004 C3006 1.389 . S
C3005 H2984 0.950 . S
C3005 C3004 1.373 . S
C3005 C3021 1.377 . S
C3006 C3004 1.389 . S
C3006 C3007 1.524 . S
C3006 C3020 1.377 . S
C3007 C3006 1.524 . S
C3007 C3008 1.397 . S
C3007 C3012 1.363 . S
C3008 H2985 0.950 . S
C3008 C3007 1.397 . S
C3008 C3009 1.334 . S
C3009 H2986 0.950 . S
C3009 C3008 1.334 . S
C3009 C3010 1.287 . S
C3010 C3009 1.287 . S
C3010 C3011 1.524 . S
C3010 H3029 0.913 . S
C3011 H2987 0.950 . S
C3011 C3010 1.524 . S
C3011 C3012 1.415 . S
C3012 H2988 0.950 . S
C3012 C3007 1.363 . S
C3012 C3011 1.415 . S
C3013 H2989 0.951 . S
C3013 C3014 1.366 . S
C3013 C3015 1.388 . S
C3014 C3013 1.366 . S
C3014 C3018 1.385 . S
C3015 H2990 0.951 . S
C3015 C3013 1.388 . S
C3015 C3016 1.366 . S
C3016 C3015 1.366 . S
C3016 C3017 1.414 . S
C3016 C3019 1.499 . S
C3017 H2991 0.950 . S
C3017 C3016 1.414 . S
C3017 C3018 1.374 . S
C3018 H2992 0.950 . S
C3018 C3014 1.385 . S
C3018 C3017 1.374 . S
C3019 C3016 1.499 . S
C3019 C3020 1.373 . S
C3019 C3021 1.389 . S
C3020 H2993 0.950 . S
C3020 C3006 1.377 . S
C3020 C3019 1.373 . S
C3021 C3005 1.377 . S
C3021 C3019 1.389 . S
C3021 C3022 1.524 . S
C3022 C3021 1.524 . S
C3022 C3023 1.397 . S
C3022 C3027 1.363 . S
C3023 H2994 0.950 . S
C3023 C3022 1.397 . S
C3023 C3024 1.334 . S
C3024 H2995 0.950 . S
C3024 C3023 1.334 . S
C3024 C3025 1.287 . S
C3025 C3024 1.287 . S
C3025 C3026 1.524 . S
C3025 H3028 0.999 . S
C3026 H2996 0.950 . S
C3026 C3025 1.524 . S
C3026 C3027 1.415 . S
C3027 H2997 0.950 . S
C3027 C3022 1.363 . S
C3027 C3026 1.415 . S
H3028 C3025 0.999 . S
H3029 C3010 0.913 . S
H3030 C3048 0.951 . S
H3031 C3050 0.951 . S
H3032 C3052 0.950 . S
H3033 C3053 0.950 . S
H3034 C3055 0.950 . S
H3035 C3058 0.950 . S
H3036 C3059 0.950 . S
H3037 C3061 0.950 . S
H3038 C3062 0.950 . S
H3039 C3063 0.951 . S
H3040 C3065 0.951 . S
H3041 C3067 0.950 . S
H3042 C3068 0.950 . S
H3043 C3070 0.950 . S
H3044 C3073 0.950 . S
H3045 C3074 0.950 . S
H3046 C3076 0.950 . S
H3047 C3077 0.950 . S
C3048 H3030 0.951 . S
C3048 C3049 1.366 . S
C3048 C3050 1.388 . S
C3049 C3048 1.366 . S
C3049 C3053 1.385 . S
C3050 H3031 0.951 . S
C3050 C3048 1.388 . S
C3050 C3051 1.366 . S
C3051 C3050 1.366 . S
C3051 C3052 1.414 . S
C3051 C3054 1.499 . S
C3052 H3032 0.950 . S
C3052 C3051 1.414 . S
C3052 C3053 1.374 . S
C3053 H3033 0.950 . S
C3053 C3049 1.385 . S
C3053 C3052 1.374 . S
C3054 C3051 1.499 . S
C3054 C3055 1.373 . S
C3054 C3056 1.389 . S
C3055 H3034 0.950 . S
C3055 C3054 1.373 . S
C3055 C3071 1.377 . S
C3056 C3054 1.389 . S
C3056 C3057 1.524 . S
C3056 C3070 1.377 . S
C3057 C3056 1.524 . S
C3057 C3058 1.397 . S
C3057 C3062 1.363 . S
C3058 H3035 0.950 . S
C3058 C3057 1.397 . S
C3058 C3059 1.334 . S
C3059 H3036 0.950 . S
C3059 C3058 1.334 . S
C3059 C3060 1.287 . S
C3060 C3059 1.287 . S
C3060 C3061 1.524 . S
C3060 H3079 0.913 . S
C3061 H3037 0.950 . S
C3061 C3060 1.524 . S
C3061 C3062 1.415 . S
C3062 H3038 0.950 . S
C3062 C3057 1.363 . S
C3062 C3061 1.415 . S
C3063 H3039 0.951 . S
C3063 C3064 1.366 . S
C3063 C3065 1.388 . S
C3064 C3063 1.366 . S
C3064 C3068 1.385 . S
C3065 H3040 0.951 . S
C3065 C3063 1.388 . S
C3065 C3066 1.366 . S
C3066 C3065 1.366 . S
C3066 C3067 1.414 . S
C3066 C3069 1.499 . S
C3067 H3041 0.950 . S
C3067 C3066 1.414 . S
C3067 C3068 1.374 . S
C3068 H3042 0.950 . S
C3068 C3064 1.385 . S
C3068 C3067 1.374 . S
C3069 C3066 1.499 . S
C3069 C3070 1.373 . S
C3069 C3071 1.389 . S
C3070 H3043 0.950 . S
C3070 C3056 1.377 . S
C3070 C3069 1.373 . S
C3071 C3055 1.377 . S
C3071 C3069 1.389 . S
C3071 C3072 1.524 . S
C3072 C3071 1.524 . S
C3072 C3073 1.397 . S
C3072 C3077 1.363 . S
C3073 H3044 0.950 . S
C3073 C3072 1.397 . S
C3073 C3074 1.334 . S
C3074 H3045 0.950 . S
C3074 C3073 1.334 . S
C3074 C3075 1.287 . S
C3075 C3074 1.287 . S
C3075 C3076 1.524 . S
C3075 H3078 0.999 . S
C3076 H3046 0.950 . S
C3076 C3075 1.524 . S
C3076 C3077 1.415 . S
C3077 H3047 0.950 . S
C3077 C3072 1.363 . S
C3077 C3076 1.415 . S
H3078 C3075 0.999 . S
H3079 C3060 0.913 . S
H3080 C3098 0.951 . S
H3081 C3100 0.951 . S
H3082 C3102 0.950 . S
H3083 C3103 0.950 . S
H3084 C3105 0.950 . S
H3085 C3108 0.950 . S
H3086 C3109 0.950 . S
H3087 C3111 0.950 . S
H3088 C3112 0.950 . S
H3089 C3113 0.951 . S
H3090 C3115 0.951 . S
H3091 C3117 0.950 . S
H3092 C3118 0.950 . S
H3093 C3120 0.950 . S
H3094 C3123 0.950 . S
H3095 C3124 0.950 . S
H3096 C3126 0.950 . S
H3097 C3127 0.950 . S
C3098 H3080 0.951 . S
C3098 C3099 1.366 . S
C3098 C3100 1.388 . S
C3099 C3098 1.366 . S
C3099 C3103 1.385 . S
C3100 H3081 0.951 . S
C3100 C3098 1.388 . S
C3100 C3101 1.366 . S
C3101 C3100 1.366 . S
C3101 C3102 1.414 . S
C3101 C3104 1.499 . S
C3102 H3082 0.950 . S
C3102 C3101 1.414 . S
C3102 C3103 1.374 . S
C3103 H3083 0.950 . S
C3103 C3099 1.385 . S
C3103 C3102 1.374 . S
C3104 C3101 1.499 . S
C3104 C3105 1.373 . S
C3104 C3106 1.389 . S
C3105 H3084 0.950 . S
C3105 C3104 1.373 . S
C3105 C3121 1.377 . S
C3106 C3104 1.389 . S
C3106 C3107 1.524 . S
C3106 C3120 1.377 . S
C3107 C3106 1.524 . S
C3107 C3108 1.397 . S
C3107 C3112 1.363 . S
C3108 H3085 0.950 . S
C3108 C3107 1.397 . S
C3108 C3109 1.334 . S
C3109 H3086 0.950 . S
C3109 C3108 1.334 . S
C3109 C3110 1.287 . S
C3110 C3109 1.287 . S
C3110 C3111 1.524 . S
C3110 H3129 0.913 . S
C3111 H3087 0.950 . S
C3111 C3110 1.524 . S
C3111 C3112 1.415 . S
C3112 H3088 0.950 . S
C3112 C3107 1.363 . S
C3112 C3111 1.415 . S
C3113 H3089 0.951 . S
C3113 C3114 1.366 . S
C3113 C3115 1.388 . S
C3114 C3113 1.366 . S
C3114 C3118 1.385 . S
C3115 H3090 0.951 . S
C3115 C3113 1.388 . S
C3115 C3116 1.366 . S
C3116 C3115 1.366 . S
C3116 C3117 1.414 . S
C3116 C3119 1.499 . S
C3117 H3091 0.950 . S
C3117 C3116 1.414 . S
C3117 C3118 1.374 . S
C3118 H3092 0.950 . S
C3118 C3114 1.385 . S
C3118 C3117 1.374 . S
C3119 C3116 1.499 . S
C3119 C3120 1.373 . S
C3119 C3121 1.389 . S
C3120 H3093 0.950 . S
C3120 C3106 1.377 . S
C3120 C3119 1.373 . S
C3121 C3105 1.377 . S
C3121 C3119 1.389 . S
C3121 C3122 1.524 . S
C3122 C3121 1.524 . S
C3122 C3123 1.397 . S
C3122 C3127 1.363 . S
C3123 H3094 0.950 . S
C3123 C3122 1.397 . S
C3123 C3124 1.334 . S
C3124 H3095 0.950 . S
C3124 C3123 1.334 . S
C3124 C3125 1.287 . S
C3125 C3124 1.287 . S
C3125 C3126 1.524 . S
C3125 H3128 0.999 . S
C3126 H3096 0.950 . S
C3126 C3125 1.524 . S
C3126 C3127 1.415 . S
C3127 H3097 0.950 . S
C3127 C3122 1.363 . S
C3127 C3126 1.415 . S
H3128 C3125 0.999 . S
H3129 C3110 0.913 . S
H3130 C3148 0.951 . S
H3131 C3150 0.951 . S
H3132 C3152 0.950 . S
H3133 C3153 0.950 . S
H3134 C3155 0.950 . S
H3135 C3158 0.950 . S
H3136 C3159 0.950 . S
H3137 C3161 0.950 . S
H3138 C3162 0.950 . S
H3139 C3163 0.951 . S
H3140 C3165 0.951 . S
H3141 C3167 0.950 . S
H3142 C3168 0.950 . S
H3143 C3170 0.950 . S
H3144 C3173 0.950 . S
H3145 C3174 0.950 . S
H3146 C3176 0.950 . S
H3147 C3177 0.950 . S
C3148 H3130 0.951 . S
C3148 C3149 1.366 . S
C3148 C3150 1.388 . S
C3149 C3148 1.366 . S
C3149 C3153 1.385 . S
C3150 H3131 0.951 . S
C3150 C3148 1.388 . S
C3150 C3151 1.366 . S
C3151 C3150 1.366 . S
C3151 C3152 1.414 . S
C3151 C3154 1.499 . S
C3152 H3132 0.950 . S
C3152 C3151 1.414 . S
C3152 C3153 1.374 . S
C3153 H3133 0.950 . S
C3153 C3149 1.385 . S
C3153 C3152 1.374 . S
C3154 C3151 1.499 . S
C3154 C3155 1.373 . S
C3154 C3156 1.389 . S
C3155 H3134 0.950 . S
C3155 C3154 1.373 . S
C3155 C3171 1.377 . S
C3156 C3154 1.389 . S
C3156 C3157 1.524 . S
C3156 C3170 1.377 . S
C3157 C3156 1.524 . S
C3157 C3158 1.397 . S
C3157 C3162 1.363 . S
C3158 H3135 0.950 . S
C3158 C3157 1.397 . S
C3158 C3159 1.334 . S
C3159 H3136 0.950 . S
C3159 C3158 1.334 . S
C3159 C3160 1.287 . S
C3160 C3159 1.287 . S
C3160 C3161 1.524 . S
C3160 H3179 0.913 . S
C3161 H3137 0.950 . S
C3161 C3160 1.524 . S
C3161 C3162 1.415 . S
C3162 H3138 0.950 . S
C3162 C3157 1.363 . S
C3162 C3161 1.415 . S
C3163 H3139 0.951 . S
C3163 C3164 1.366 . S
C3163 C3165 1.388 . S
C3164 C3163 1.366 . S
C3164 C3168 1.385 . S
C3165 H3140 0.951 . S
C3165 C3163 1.388 . S
C3165 C3166 1.366 . S
C3166 C3165 1.366 . S
C3166 C3167 1.414 . S
C3166 C3169 1.499 . S
C3167 H3141 0.950 . S
C3167 C3166 1.414 . S
C3167 C3168 1.374 . S
C3168 H3142 0.950 . S
C3168 C3164 1.385 . S
C3168 C3167 1.374 . S
C3169 C3166 1.499 . S
C3169 C3170 1.373 . S
C3169 C3171 1.389 . S
C3170 H3143 0.950 . S
C3170 C3156 1.377 . S
C3170 C3169 1.373 . S
C3171 C3155 1.377 . S
C3171 C3169 1.389 . S
C3171 C3172 1.524 . S
C3172 C3171 1.524 . S
C3172 C3173 1.397 . S
C3172 C3177 1.363 . S
C3173 H3144 0.950 . S
C3173 C3172 1.397 . S
C3173 C3174 1.334 . S
C3174 H3145 0.950 . S
C3174 C3173 1.334 . S
C3174 C3175 1.287 . S
C3175 C3174 1.287 . S
C3175 C3176 1.524 . S
C3175 H3178 0.999 . S
C3176 H3146 0.950 . S
C3176 C3175 1.524 . S
C3176 C3177 1.415 . S
C3177 H3147 0.950 . S
C3177 C3172 1.363 . S
C3177 C3176 1.415 . S
H3178 C3175 0.999 . S
H3179 C3160 0.913 . S
H3180 C3198 0.951 . S
H3181 C3200 0.951 . S
H3182 C3202 0.950 . S
H3183 C3203 0.950 . S
H3184 C3205 0.950 . S
H3185 C3208 0.950 . S
H3186 C3209 0.950 . S
H3187 C3211 0.950 . S
H3188 C3212 0.950 . S
H3189 C3213 0.951 . S
H3190 C3215 0.951 . S
H3191 C3217 0.950 . S
H3192 C3218 0.950 . S
H3193 C3220 0.950 . S
H3194 C3223 0.950 . S
H3195 C3224 0.950 . S
H3196 C3226 0.950 . S
H3197 C3227 0.950 . S
C3198 H3180 0.951 . S
C3198 C3199 1.366 . S
C3198 C3200 1.388 . S
C3199 C3198 1.366 . S
C3199 C3203 1.385 . S
C3200 H3181 0.951 . S
C3200 C3198 1.388 . S
C3200 C3201 1.366 . S
C3201 C3200 1.366 . S
C3201 C3202 1.414 . S
C3201 C3204 1.499 . S
C3202 H3182 0.950 . S
C3202 C3201 1.414 . S
C3202 C3203 1.374 . S
C3203 H3183 0.950 . S
C3203 C3199 1.385 . S
C3203 C3202 1.374 . S
C3204 C3201 1.499 . S
C3204 C3205 1.373 . S
C3204 C3206 1.389 . S
C3205 H3184 0.950 . S
C3205 C3204 1.373 . S
C3205 C3221 1.377 . S
C3206 C3204 1.389 . S
C3206 C3207 1.524 . S
C3206 C3220 1.377 . S
C3207 C3206 1.524 . S
C3207 C3208 1.397 . S
C3207 C3212 1.363 . S
C3208 H3185 0.950 . S
C3208 C3207 1.397 . S
C3208 C3209 1.334 . S
C3209 H3186 0.950 . S
C3209 C3208 1.334 . S
C3209 C3210 1.287 . S
C3210 C3209 1.287 . S
C3210 C3211 1.524 . S
C3210 H3229 0.913 . S
C3211 H3187 0.950 . S
C3211 C3210 1.524 . S
C3211 C3212 1.415 . S
C3212 H3188 0.950 . S
C3212 C3207 1.363 . S
C3212 C3211 1.415 . S
C3213 H3189 0.951 . S
C3213 C3214 1.366 . S
C3213 C3215 1.388 . S
C3214 C3213 1.366 . S
C3214 C3218 1.385 . S
C3215 H3190 0.951 . S
C3215 C3213 1.388 . S
C3215 C3216 1.366 . S
C3216 C3215 1.366 . S
C3216 C3217 1.414 . S
C3216 C3219 1.499 . S
C3217 H3191 0.950 . S
C3217 C3216 1.414 . S
C3217 C3218 1.374 . S
C3218 H3192 0.950 . S
C3218 C3214 1.385 . S
C3218 C3217 1.374 . S
C3219 C3216 1.499 . S
C3219 C3220 1.373 . S
C3219 C3221 1.389 . S
C3220 H3193 0.950 . S
C3220 C3206 1.377 . S
C3220 C3219 1.373 . S
C3221 C3205 1.377 . S
C3221 C3219 1.389 . S
C3221 C3222 1.524 . S
C3222 C3221 1.524 . S
C3222 C3223 1.397 . S
C3222 C3227 1.363 . S
C3223 H3194 0.950 . S
C3223 C3222 1.397 . S
C3223 C3224 1.334 . S
C3224 H3195 0.950 . S
C3224 C3223 1.334 . S
C3224 C3225 1.287 . S
C3225 C3224 1.287 . S
C3225 C3226 1.524 . S
C3225 H3228 0.999 . S
C3226 H3196 0.950 . S
C3226 C3225 1.524 . S
C3226 C3227 1.415 . S
C3227 H3197 0.950 . S
C3227 C3222 1.363 . S
C3227 C3226 1.415 . S
H3228 C3225 0.999 . S
H3229 C3210 0.913 . S
H3230 C3248 0.951 . S
H3231 C3250 0.951 . S
H3232 C3252 0.950 . S
H3233 C3253 0.950 . S
H3234 C3255 0.950 . S
H3235 C3258 0.950 . S
H3236 C3259 0.950 . S
H3237 C3261 0.950 . S
H3238 C3262 0.950 . S
H3239 C3263 0.951 . S
H3240 C3265 0.951 . S
H3241 C3267 0.950 . S
H3242 C3268 0.950 . S
H3243 C3270 0.950 . S
H3244 C3273 0.950 . S
H3245 C3274 0.950 . S
H3246 C3276 0.950 . S
H3247 C3277 0.950 . S
C3248 H3230 0.951 . S
C3248 C3249 1.366 . S
C3248 C3250 1.388 . S
C3249 C3248 1.366 . S
C3249 C3253 1.385 . S
C3250 H3231 0.951 . S
C3250 C3248 1.388 . S
C3250 C3251 1.366 . S
C3251 C3250 1.366 . S
C3251 C3252 1.414 . S
C3251 C3254 1.499 . S
C3252 H3232 0.950 . S
C3252 C3251 1.414 . S
C3252 C3253 1.374 . S
C3253 H3233 0.950 . S
C3253 C3249 1.385 . S
C3253 C3252 1.374 . S
C3254 C3251 1.499 . S
C3254 C3255 1.373 . S
C3254 C3256 1.389 . S
C3255 H3234 0.950 . S
C3255 C3254 1.373 . S
C3255 C3271 1.377 . S
C3256 C3254 1.389 . S
C3256 C3257 1.524 . S
C3256 C3270 1.377 . S
C3257 C3256 1.524 . S
C3257 C3258 1.397 . S
C3257 C3262 1.363 . S
C3258 H3235 0.950 . S
C3258 C3257 1.397 . S
C3258 C3259 1.334 . S
C3259 H3236 0.950 . S
C3259 C3258 1.334 . S
C3259 C3260 1.287 . S
C3260 C3259 1.287 . S
C3260 C3261 1.524 . S
C3260 H3279 0.913 . S
C3261 H3237 0.950 . S
C3261 C3260 1.524 . S
C3261 C3262 1.415 . S
C3262 H3238 0.950 . S
C3262 C3257 1.363 . S
C3262 C3261 1.415 . S
C3263 H3239 0.951 . S
C3263 C3264 1.366 . S
C3263 C3265 1.388 . S
C3264 C3263 1.366 . S
C3264 C3268 1.385 . S
C3265 H3240 0.951 . S
C3265 C3263 1.388 . S
C3265 C3266 1.366 . S
C3266 C3265 1.366 . S
C3266 C3267 1.414 . S
C3266 C3269 1.499 . S
C3267 H3241 0.950 . S
C3267 C3266 1.414 . S
C3267 C3268 1.374 . S
C3268 H3242 0.950 . S
C3268 C3264 1.385 . S
C3268 C3267 1.374 . S
C3269 C3266 1.499 . S
C3269 C3270 1.373 . S
C3269 C3271 1.389 . S
C3270 H3243 0.950 . S
C3270 C3256 1.377 . S
C3270 C3269 1.373 . S
C3271 C3255 1.377 . S
C3271 C3269 1.389 . S
C3271 C3272 1.524 . S
C3272 C3271 1.524 . S
C3272 C3273 1.397 . S
C3272 C3277 1.363 . S
C3273 H3244 0.950 . S
C3273 C3272 1.397 . S
C3273 C3274 1.334 . S
C3274 H3245 0.950 . S
C3274 C3273 1.334 . S
C3274 C3275 1.287 . S
C3275 C3274 1.287 . S
C3275 C3276 1.524 . S
C3275 H3278 0.999 . S
C3276 H3246 0.950 . S
C3276 C3275 1.524 . S
C3276 C3277 1.415 . S
C3277 H3247 0.950 . S
C3277 C3272 1.363 . S
C3277 C3276 1.415 . S
H3278 C3275 0.999 . S
H3279 C3260 0.913 . S
H3280 C3298 0.951 . S
H3281 C3300 0.951 . S
H3282 C3302 0.950 . S
H3283 C3303 0.950 . S
H3284 C3305 0.950 . S
H3285 C3308 0.950 . S
H3286 C3309 0.950 . S
H3287 C3311 0.950 . S
H3288 C3312 0.950 . S
H3289 C3313 0.951 . S
H3290 C3315 0.951 . S
H3291 C3317 0.950 . S
H3292 C3318 0.950 . S
H3293 C3320 0.950 . S
H3294 C3323 0.950 . S
H3295 C3324 0.950 . S
H3296 C3326 0.950 . S
H3297 C3327 0.950 . S
C3298 H3280 0.951 . S
C3298 C3299 1.366 . S
C3298 C3300 1.388 . S
C3299 C3298 1.366 . S
C3299 C3303 1.385 . S
C3300 H3281 0.951 . S
C3300 C3298 1.388 . S
C3300 C3301 1.366 . S
C3301 C3300 1.366 . S
C3301 C3302 1.414 . S
C3301 C3304 1.499 . S
C3302 H3282 0.950 . S
C3302 C3301 1.414 . S
C3302 C3303 1.374 . S
C3303 H3283 0.950 . S
C3303 C3299 1.385 . S
C3303 C3302 1.374 . S
C3304 C3301 1.499 . S
C3304 C3305 1.373 . S
C3304 C3306 1.389 . S
C3305 H3284 0.950 . S
C3305 C3304 1.373 . S
C3305 C3321 1.377 . S
C3306 C3304 1.389 . S
C3306 C3307 1.524 . S
C3306 C3320 1.377 . S
C3307 C3306 1.524 . S
C3307 C3308 1.397 . S
C3307 C3312 1.363 . S
C3308 H3285 0.950 . S
C3308 C3307 1.397 . S
C3308 C3309 1.334 . S
C3309 H3286 0.950 . S
C3309 C3308 1.334 . S
C3309 C3310 1.287 . S
C3310 C3309 1.287 . S
C3310 C3311 1.524 . S
C3310 H3329 0.913 . S
C3311 H3287 0.950 . S
C3311 C3310 1.524 . S
C3311 C3312 1.415 . S
C3312 H3288 0.950 . S
C3312 C3307 1.363 . S
C3312 C3311 1.415 . S
C3313 H3289 0.951 . S
C3313 C3314 1.366 . S
C3313 C3315 1.388 . S
C3314 C3313 1.366 . S
C3314 C3318 1.385 . S
C3315 H3290 0.951 . S
C3315 C3313 1.388 . S
C3315 C3316 1.366 . S
C3316 C3315 1.366 . S
C3316 C3317 1.414 . S
C3316 C3319 1.499 . S
C3317 H3291 0.950 . S
C3317 C3316 1.414 . S
C3317 C3318 1.374 . S
C3318 H3292 0.950 . S
C3318 C3314 1.385 . S
C3318 C3317 1.374 . S
C3319 C3316 1.499 . S
C3319 C3320 1.373 . S
C3319 C3321 1.389 . S
C3320 H3293 0.950 . S
C3320 C3306 1.377 . S
C3320 C3319 1.373 . S
C3321 C3305 1.377 . S
C3321 C3319 1.389 . S
C3321 C3322 1.524 . S
C3322 C3321 1.524 . S
C3322 C3323 1.397 . S
C3322 C3327 1.363 . S
C3323 H3294 0.950 . S
C3323 C3322 1.397 . S
C3323 C3324 1.334 . S
C3324 H3295 0.950 . S
C3324 C3323 1.334 . S
C3324 C3325 1.287 . S
C3325 C3324 1.287 . S
C3325 C3326 1.524 . S
C3325 H3328 0.999 . S
C3326 H3296 0.950 . S
C3326 C3325 1.524 . S
C3326 C3327 1.415 . S
C3327 H3297 0.950 . S
C3327 C3322 1.363 . S
C3327 C3326 1.415 . S
H3328 C3325 0.999 . S
H3329 C3310 0.913 . S
H3330 C3348 0.951 . S
H3331 C3350 0.951 . S
H3332 C3352 0.950 . S
H3333 C3353 0.950 . S
H3334 C3355 0.950 . S
H3335 C3358 0.950 . S
H3336 C3359 0.950 . S
H3337 C3361 0.950 . S
H3338 C3362 0.950 . S
H3339 C3363 0.951 . S
H3340 C3365 0.951 . S
H3341 C3367 0.950 . S
H3342 C3368 0.950 . S
H3343 C3370 0.950 . S
H3344 C3373 0.950 . S
H3345 C3374 0.950 . S
H3346 C3376 0.950 . S
H3347 C3377 0.950 . S
C3348 H3330 0.951 . S
C3348 C3349 1.366 . S
C3348 C3350 1.388 . S
C3349 C3348 1.366 . S
C3349 C3353 1.385 . S
C3350 H3331 0.951 . S
C3350 C3348 1.388 . S
C3350 C3351 1.366 . S
C3351 C3350 1.366 . S
C3351 C3352 1.414 . S
C3351 C3354 1.499 . S
C3352 H3332 0.950 . S
C3352 C3351 1.414 . S
C3352 C3353 1.374 . S
C3353 H3333 0.950 . S
C3353 C3349 1.385 . S
C3353 C3352 1.374 . S
C3354 C3351 1.499 . S
C3354 C3355 1.373 . S
C3354 C3356 1.389 . S
C3355 H3334 0.950 . S
C3355 C3354 1.373 . S
C3355 C3371 1.377 . S
C3356 C3354 1.389 . S
C3356 C3357 1.524 . S
C3356 C3370 1.377 . S
C3357 C3356 1.524 . S
C3357 C3358 1.397 . S
C3357 C3362 1.363 . S
C3358 H3335 0.950 . S
C3358 C3357 1.397 . S
C3358 C3359 1.334 . S
C3359 H3336 0.950 . S
C3359 C3358 1.334 . S
C3359 C3360 1.287 . S
C3360 C3359 1.287 . S
C3360 C3361 1.524 . S
C3360 H3379 0.913 . S
C3361 H3337 0.950 . S
C3361 C3360 1.524 . S
C3361 C3362 1.415 . S
C3362 H3338 0.950 . S
C3362 C3357 1.363 . S
C3362 C3361 1.415 . S
C3363 H3339 0.951 . S
C3363 C3364 1.366 . S
C3363 C3365 1.388 . S
C3364 C3363 1.366 . S
C3364 C3368 1.385 . S
C3365 H3340 0.951 . S
C3365 C3363 1.388 . S
C3365 C3366 1.366 . S
C3366 C3365 1.366 . S
C3366 C3367 1.414 . S
C3366 C3369 1.499 . S
C3367 H3341 0.950 . S
C3367 C3366 1.414 . S
C3367 C3368 1.374 . S
C3368 H3342 0.950 . S
C3368 C3364 1.385 . S
C3368 C3367 1.374 . S
C3369 C3366 1.499 . S
C3369 C3370 1.373 . S
C3369 C3371 1.389 . S
C3370 H3343 0.950 . S
C3370 C3356 1.377 . S
C3370 C3369 1.373 . S
C3371 C3355 1.377 . S
C3371 C3369 1.389 . S
C3371 C3372 1.524 . S
C3372 C3371 1.524 . S
C3372 C3373 1.397 . S
C3372 C3377 1.363 . S
C3373 H3344 0.950 . S
C3373 C3372 1.397 . S
C3373 C3374 1.334 . S
C3374 H3345 0.950 . S
C3374 C3373 1.334 . S
C3374 C3375 1.287 . S
C3375 C3374 1.287 . S
C3375 C3376 1.524 . S
C3375 H3378 0.999 . S
C3376 H3346 0.950 . S
C3376 C3375 1.524 . S
C3376 C3377 1.415 . S
C3377 H3347 0.950 . S
C3377 C3372 1.363 . S
C3377 C3376 1.415 . S
H3378 C3375 0.999 . S
H3379 C3360 0.913 . S
H3380 C3398 0.951 . S
H3381 C3400 0.951 . S
H3382 C3402 0.950 . S
H3383 C3403 0.950 . S
H3384 C3405 0.950 . S
H3385 C3408 0.950 . S
H3386 C3409 0.950 . S
H3387 C3411 0.950 . S
H3388 C3412 0.950 . S
H3389 C3413 0.951 . S
H3390 C3415 0.951 . S
H3391 C3417 0.950 . S
H3392 C3418 0.950 . S
H3393 C3420 0.950 . S
H3394 C3423 0.950 . S
H3395 C3424 0.950 . S
H3396 C3426 0.950 . S
H3397 C3427 0.950 . S
C3398 H3380 0.951 . S
C3398 C3399 1.366 . S
C3398 C3400 1.388 . S
C3399 C3398 1.366 . S
C3399 C3403 1.385 . S
C3400 H3381 0.951 . S
C3400 C3398 1.388 . S
C3400 C3401 1.366 . S
C3401 C3400 1.366 . S
C3401 C3402 1.414 . S
C3401 C3404 1.499 . S
C3402 H3382 0.950 . S
C3402 C3401 1.414 . S
C3402 C3403 1.374 . S
C3403 H3383 0.950 . S
C3403 C3399 1.385 . S
C3403 C3402 1.374 . S
C3404 C3401 1.499 . S
C3404 C3405 1.373 . S
C3404 C3406 1.389 . S
C3405 H3384 0.950 . S
C3405 C3404 1.373 . S
C3405 C3421 1.377 . S
C3406 C3404 1.389 . S
C3406 C3407 1.524 . S
C3406 C3420 1.377 . S
C3407 C3406 1.524 . S
C3407 C3408 1.397 . S
C3407 C3412 1.363 . S
C3408 H3385 0.950 . S
C3408 C3407 1.397 . S
C3408 C3409 1.334 . S
C3409 H3386 0.950 . S
C3409 C3408 1.334 . S
C3409 C3410 1.287 . S
C3410 C3409 1.287 . S
C3410 C3411 1.524 . S
C3410 H3429 0.913 . S
C3411 H3387 0.950 . S
C3411 C3410 1.524 . S
C3411 C3412 1.415 . S
C3412 H3388 0.950 . S
C3412 C3407 1.363 . S
C3412 C3411 1.415 . S
C3413 H3389 0.951 . S
C3413 C3414 1.366 . S
C3413 C3415 1.388 . S
C3414 C3413 1.366 . S
C3414 C3418 1.385 . S
C3415 H3390 0.951 . S
C3415 C3413 1.388 . S
C3415 C3416 1.366 . S
C3416 C3415 1.366 . S
C3416 C3417 1.414 . S
C3416 C3419 1.499 . S
C3417 H3391 0.950 . S
C3417 C3416 1.414 . S
C3417 C3418 1.374 . S
C3418 H3392 0.950 . S
C3418 C3414 1.385 . S
C3418 C3417 1.374 . S
C3419 C3416 1.499 . S
C3419 C3420 1.373 . S
C3419 C3421 1.389 . S
C3420 H3393 0.950 . S
C3420 C3406 1.377 . S
C3420 C3419 1.373 . S
C3421 C3405 1.377 . S
C3421 C3419 1.389 . S
C3421 C3422 1.524 . S
C3422 C3421 1.524 . S
C3422 C3423 1.397 . S
C3422 C3427 1.363 . S
C3423 H3394 0.950 . S
C3423 C3422 1.397 . S
C3423 C3424 1.334 . S
C3424 H3395 0.950 . S
C3424 C3423 1.334 . S
C3424 C3425 1.287 . S
C3425 C3424 1.287 . S
C3425 C3426 1.524 . S
C3425 H3428 0.999 . S
C3426 H3396 0.950 . S
C3426 C3425 1.524 . S
C3426 C3427 1.415 . S
C3427 H3397 0.950 . S
C3427 C3422 1.363 . S
C3427 C3426 1.415 . S
H3428 C3425 0.999 . S
H3429 C3410 0.913 . S
H3430 C3448 0.951 . S
H3431 C3450 0.951 . S
H3432 C3452 0.950 . S
H3433 C3453 0.950 . S
H3434 C3455 0.950 . S
H3435 C3458 0.950 . S
H3436 C3459 0.950 . S
H3437 C3461 0.950 . S
H3438 C3462 0.950 . S
H3439 C3463 0.951 . S
H3440 C3465 0.951 . S
H3441 C3467 0.950 . S
H3442 C3468 0.950 . S
H3443 C3470 0.950 . S
H3444 C3473 0.950 . S
H3445 C3474 0.950 . S
H3446 C3476 0.950 . S
H3447 C3477 0.950 . S
C3448 H3430 0.951 . S
C3448 C3449 1.366 . S
C3448 C3450 1.388 . S
C3449 C3448 1.366 . S
C3449 C3453 1.385 . S
C3450 H3431 0.951 . S
C3450 C3448 1.388 . S
C3450 C3451 1.366 . S
C3451 C3450 1.366 . S
C3451 C3452 1.414 . S
C3451 C3454 1.499 . S
C3452 H3432 0.950 . S
C3452 C3451 1.414 . S
C3452 C3453 1.374 . S
C3453 H3433 0.950 . S
C3453 C3449 1.385 . S
C3453 C3452 1.374 . S
C3454 C3451 1.499 . S
C3454 C3455 1.373 . S
C3454 C3456 1.389 . S
C3455 H3434 0.950 . S
C3455 C3454 1.373 . S
C3455 C3471 1.377 . S
C3456 C3454 1.389 . S
C3456 C3457 1.524 . S
C3456 C3470 1.377 . S
C3457 C3456 1.524 . S
C3457 C3458 1.397 . S
C3457 C3462 1.363 . S
C3458 H3435 0.950 . S
C3458 C3457 1.397 . S
C3458 C3459 1.334 . S
C3459 H3436 0.950 . S
C3459 C3458 1.334 . S
C3459 C3460 1.287 . S
C3460 C3459 1.287 . S
C3460 C3461 1.524 . S
C3460 H3479 0.913 . S
C3461 H3437 0.950 . S
C3461 C3460 1.524 . S
C3461 C3462 1.415 . S
C3462 H3438 0.950 . S
C3462 C3457 1.363 . S
C3462 C3461 1.415 . S
C3463 H3439 0.951 . S
C3463 C3464 1.366 . S
C3463 C3465 1.388 . S
C3464 C3463 1.366 . S
C3464 C3468 1.385 . S
C3465 H3440 0.951 . S
C3465 C3463 1.388 . S
C3465 C3466 1.366 . S
C3466 C3465 1.366 . S
C3466 C3467 1.414 . S
C3466 C3469 1.499 . S
C3467 H3441 0.950 . S
C3467 C3466 1.414 . S
C3467 C3468 1.374 . S
C3468 H3442 0.950 . S
C3468 C3464 1.385 . S
C3468 C3467 1.374 . S
C3469 C3466 1.499 . S
C3469 C3470 1.373 . S
C3469 C3471 1.389 . S
C3470 H3443 0.950 . S
C3470 C3456 1.377 . S
C3470 C3469 1.373 . S
C3471 C3455 1.377 . S
C3471 C3469 1.389 . S
C3471 C3472 1.524 . S
C3472 C3471 1.524 . S
C3472 C3473 1.397 . S
C3472 C3477 1.363 . S
C3473 H3444 0.950 . S
C3473 C3472 1.397 . S
C3473 C3474 1.334 . S
C3474 H3445 0.950 . S
C3474 C3473 1.334 . S
C3474 C3475 1.287 . S
C3475 C3474 1.287 . S
C3475 C3476 1.524 . S
C3475 H3478 0.999 . S
C3476 H3446 0.950 . S
C3476 C3475 1.524 . S
C3476 C3477 1.415 . S
C3477 H3447 0.950 . S
C3477 C3472 1.363 . S
C3477 C3476 1.415 . S
H3478 C3475 0.999 . S
H3479 C3460 0.913 . S
H3480 C3498 0.951 . S
H3481 C3500 0.951 . S
H3482 C3502 0.950 . S
H3483 C3503 0.950 . S
H3484 C3505 0.950 . S
H3485 C3508 0.950 . S
H3486 C3509 0.950 . S
H3487 C3511 0.950 . S
H3488 C3512 0.950 . S
H3489 C3513 0.951 . S
H3490 C3515 0.951 . S
H3491 C3517 0.950 . S
H3492 C3518 0.950 . S
H3493 C3520 0.950 . S
H3494 C3523 0.950 . S
H3495 C3524 0.950 . S
H3496 C3526 0.950 . S
H3497 C3527 0.950 . S
C3498 H3480 0.951 . S
C3498 C3499 1.366 . S
C3498 C3500 1.388 . S
C3499 C3498 1.366 . S
C3499 C3503 1.385 . S
C3500 H3481 0.951 . S
C3500 C3498 1.388 . S
C3500 C3501 1.366 . S
C3501 C3500 1.366 . S
C3501 C3502 1.414 . S
C3501 C3504 1.499 . S
C3502 H3482 0.950 . S
C3502 C3501 1.414 . S
C3502 C3503 1.374 . S
C3503 H3483 0.950 . S
C3503 C3499 1.385 . S
C3503 C3502 1.374 . S
C3504 C3501 1.499 . S
C3504 C3505 1.373 . S
C3504 C3506 1.389 . S
C3505 H3484 0.950 . S
C3505 C3504 1.373 . S
C3505 C3521 1.377 . S
C3506 C3504 1.389 . S
C3506 C3507 1.524 . S
C3506 C3520 1.377 . S
C3507 C3506 1.524 . S
C3507 C3508 1.397 . S
C3507 C3512 1.363 . S
C3508 H3485 0.950 . S
C3508 C3507 1.397 . S
C3508 C3509 1.334 . S
C3509 H3486 0.950 . S
C3509 C3508 1.334 . S
C3509 C3510 1.287 . S
C3510 C3509 1.287 . S
C3510 C3511 1.524 . S
C3510 H3529 0.913 . S
C3511 H3487 0.950 . S
C3511 C3510 1.524 . S
C3511 C3512 1.415 . S
C3512 H3488 0.950 . S
C3512 C3507 1.363 . S
C3512 C3511 1.415 . S
C3513 H3489 0.951 . S
C3513 C3514 1.366 . S
C3513 C3515 1.388 . S
C3514 C3513 1.366 . S
C3514 C3518 1.385 . S
C3515 H3490 0.951 . S
C3515 C3513 1.388 . S
C3515 C3516 1.366 . S
C3516 C3515 1.366 . S
C3516 C3517 1.414 . S
C3516 C3519 1.499 . S
C3517 H3491 0.950 . S
C3517 C3516 1.414 . S
C3517 C3518 1.374 . S
C3518 H3492 0.950 . S
C3518 C3514 1.385 . S
C3518 C3517 1.374 . S
C3519 C3516 1.499 . S
C3519 C3520 1.373 . S
C3519 C3521 1.389 . S
C3520 H3493 0.950 . S
C3520 C3506 1.377 . S
C3520 C3519 1.373 . S
C3521 C3505 1.377 . S
C3521 C3519 1.389 . S
C3521 C3522 1.524 . S
C3522 C3521 1.524 . S
C3522 C3523 1.397 . S
C3522 C3527 1.363 . S
C3523 H3494 0.950 . S
C3523 C3522 1.397 . S
C3523 C3524 1.334 . S
C3524 H3495 0.950 . S
C3524 C3523 1.334 . S
C3524 C3525 1.287 . S
C3525 C3524 1.287 . S
C3525 C3526 1.524 . S
C3525 H3528 0.999 . S
C3526 H3496 0.950 . S
C3526 C3525 1.524 . S
C3526 C3527 1.415 . S
C3527 H3497 0.950 . S
C3527 C3522 1.363 . S
C3527 C3526 1.415 . S
H3528 C3525 0.999 . S
H3529 C3510 0.913 . S
H3530 C3548 0.951 . S
H3531 C3550 0.951 . S
H3532 C3552 0.950 . S
H3533 C3553 0.950 . S
H3534 C3555 0.950 . S
H3535 C3558 0.950 . S
H3536 C3559 0.950 . S
H3537 C3561 0.950 . S
H3538 C3562 0.950 . S
H3539 C3563 0.951 . S
H3540 C3565 0.951 . S
H3541 C3567 0.950 . S
H3542 C3568 0.950 . S
H3543 C3570 0.950 . S
H3544 C3573 0.950 . S
H3545 C3574 0.950 . S
H3546 C3576 0.950 . S
H3547 C3577 0.950 . S
C3548 H3530 0.951 . S
C3548 C3549 1.366 . S
C3548 C3550 1.388 . S
C3549 C3548 1.366 . S
C3549 C3553 1.385 . S
C3550 H3531 0.951 . S
C3550 C3548 1.388 . S
C3550 C3551 1.366 . S
C3551 C3550 1.366 . S
C3551 C3552 1.414 . S
C3551 C3554 1.499 . S
C3552 H3532 0.950 . S
C3552 C3551 1.414 . S
C3552 C3553 1.374 . S
C3553 H3533 0.950 . S
C3553 C3549 1.385 . S
C3553 C3552 1.374 . S
C3554 C3551 1.499 . S
C3554 C3555 1.373 . S
C3554 C3556 1.389 . S
C3555 H3534 0.950 . S
C3555 C3554 1.373 . S
C3555 C3571 1.377 . S
C3556 C3554 1.389 . S
C3556 C3557 1.524 . S
C3556 C3570 1.377 . S
C3557 C3556 1.524 . S
C3557 C3558 1.397 . S
C3557 C3562 1.363 . S
C3558 H3535 0.950 . S
C3558 C3557 1.397 . S
C3558 C3559 1.334 . S
C3559 H3536 0.950 . S
C3559 C3558 1.334 . S
C3559 C3560 1.287 . S
C3560 C3559 1.287 . S
C3560 C3561 1.524 . S
C3560 H3579 0.913 . S
C3561 H3537 0.950 . S
C3561 C3560 1.524 . S
C3561 C3562 1.415 . S
C3562 H3538 0.950 . S
C3562 C3557 1.363 . S
C3562 C3561 1.415 . S
C3563 H3539 0.951 . S
C3563 C3564 1.366 . S
C3563 C3565 1.388 . S
C3564 C3563 1.366 . S
C3564 C3568 1.385 . S
C3565 H3540 0.951 . S
C3565 C3563 1.388 . S
C3565 C3566 1.366 . S
C3566 C3565 1.366 . S
C3566 C3567 1.414 . S
C3566 C3569 1.499 . S
C3567 H3541 0.950 . S
C3567 C3566 1.414 . S
C3567 C3568 1.374 . S
C3568 H3542 0.950 . S
C3568 C3564 1.385 . S
C3568 C3567 1.374 . S
C3569 C3566 1.499 . S
C3569 C3570 1.373 . S
C3569 C3571 1.389 . S
C3570 H3543 0.950 . S
C3570 C3556 1.377 . S
C3570 C3569 1.373 . S
C3571 C3555 1.377 . S
C3571 C3569 1.389 . S
C3571 C3572 1.524 . S
C3572 C3571 1.524 . S
C3572 C3573 1.397 . S
C3572 C3577 1.363 . S
C3573 H3544 0.950 . S
C3573 C3572 1.397 . S
C3573 C3574 1.334 . S
C3574 H3545 0.950 . S
C3574 C3573 1.334 . S
C3574 C3575 1.287 . S
C3575 C3574 1.287 . S
C3575 C3576 1.524 . S
C3575 H3578 0.999 . S
C3576 H3546 0.950 . S
C3576 C3575 1.524 . S
C3576 C3577 1.415 . S
C3577 H3547 0.950 . S
C3577 C3572 1.363 . S
C3577 C3576 1.415 . S
H3578 C3575 0.999 . S
H3579 C3560 0.913 . S
H3580 C3598 0.951 . S
H3581 C3600 0.951 . S
H3582 C3602 0.950 . S
H3583 C3603 0.950 . S
H3584 C3605 0.950 . S
H3585 C3608 0.950 . S
H3586 C3609 0.950 . S
H3587 C3611 0.950 . S
H3588 C3612 0.950 . S
H3589 C3613 0.951 . S
H3590 C3615 0.951 . S
H3591 C3617 0.950 . S
H3592 C3618 0.950 . S
H3593 C3620 0.950 . S
H3594 C3623 0.950 . S
H3595 C3624 0.950 . S
H3596 C3626 0.950 . S
H3597 C3627 0.950 . S
C3598 H3580 0.951 . S
C3598 C3599 1.366 . S
C3598 C3600 1.388 . S
C3599 C3598 1.366 . S
C3599 C3603 1.385 . S
C3600 H3581 0.951 . S
C3600 C3598 1.388 . S
C3600 C3601 1.366 . S
C3601 C3600 1.366 . S
C3601 C3602 1.414 . S
C3601 C3604 1.499 . S
C3602 H3582 0.950 . S
C3602 C3601 1.414 . S
C3602 C3603 1.374 . S
C3603 H3583 0.950 . S
C3603 C3599 1.385 . S
C3603 C3602 1.374 . S
C3604 C3601 1.499 . S
C3604 C3605 1.373 . S
C3604 C3606 1.389 . S
C3605 H3584 0.950 . S
C3605 C3604 1.373 . S
C3605 C3621 1.377 . S
C3606 C3604 1.389 . S
C3606 C3607 1.524 . S
C3606 C3620 1.377 . S
C3607 C3606 1.524 . S
C3607 C3608 1.397 . S
C3607 C3612 1.363 . S
C3608 H3585 0.950 . S
C3608 C3607 1.397 . S
C3608 C3609 1.334 . S
C3609 H3586 0.950 . S
C3609 C3608 1.334 . S
C3609 C3610 1.287 . S
C3610 C3609 1.287 . S
C3610 C3611 1.524 . S
C3610 H3629 0.913 . S
C3611 H3587 0.950 . S
C3611 C3610 1.524 . S
C3611 C3612 1.415 . S
C3612 H3588 0.950 . S
C3612 C3607 1.363 . S
C3612 C3611 1.415 . S
C3613 H3589 0.951 . S
C3613 C3614 1.366 . S
C3613 C3615 1.388 . S
C3614 C3613 1.366 . S
C3614 C3618 1.385 . S
C3615 H3590 0.951 . S
C3615 C3613 1.388 . S
C3615 C3616 1.366 . S
C3616 C3615 1.366 . S
C3616 C3617 1.414 . S
C3616 C3619 1.499 . S
C3617 H3591 0.950 . S
C3617 C3616 1.414 . S
C3617 C3618 1.374 . S
C3618 H3592 0.950 . S
C3618 C3614 1.385 . S
C3618 C3617 1.374 . S
C3619 C3616 1.499 . S
C3619 C3620 1.373 . S
C3619 C3621 1.389 . S
C3620 H3593 0.950 . S
C3620 C3606 1.377 . S
C3620 C3619 1.373 . S
C3621 C3605 1.377 . S
C3621 C3619 1.389 . S
C3621 C3622 1.524 . S
C3622 C3621 1.524 . S
C3622 C3623 1.397 . S
C3622 C3627 1.363 . S
C3623 H3594 0.950 . S
C3623 C3622 1.397 . S
C3623 C3624 1.334 . S
C3624 H3595 0.950 . S
C3624 C3623 1.334 . S
C3624 C3625 1.287 . S
C3625 C3624 1.287 . S
C3625 C3626 1.524 . S
C3625 H3628 0.999 . S
C3626 H3596 0.950 . S
C3626 C3625 1.524 . S
C3626 C3627 1.415 . S
C3627 H3597 0.950 . S
C3627 C3622 1.363 . S
C3627 C3626 1.415 . S
H3628 C3625 0.999 . S
H3629 C3610 0.913 . S
H3630 C3648 0.951 . S
H3631 C3650 0.951 . S
H3632 C3652 0.950 . S
H3633 C3653 0.950 . S
H3634 C3655 0.950 . S
H3635 C3658 0.950 . S
H3636 C3659 0.950 . S
H3637 C3661 0.950 . S
H3638 C3662 0.950 . S
H3639 C3663 0.951 . S
H3640 C3665 0.951 . S
H3641 C3667 0.950 . S
H3642 C3668 0.950 . S
H3643 C3670 0.950 . S
H3644 C3673 0.950 . S
H3645 C3674 0.950 . S
H3646 C3676 0.950 . S
H3647 C3677 0.950 . S
C3648 H3630 0.951 . S
C3648 C3649 1.366 . S
C3648 C3650 1.388 . S
C3649 C3648 1.366 . S
C3649 C3653 1.385 . S
C3650 H3631 0.951 . S
C3650 C3648 1.388 . S
C3650 C3651 1.366 . S
C3651 C3650 1.366 . S
C3651 C3652 1.414 . S
C3651 C3654 1.499 . S
C3652 H3632 0.950 . S
C3652 C3651 1.414 . S
C3652 C3653 1.374 . S
C3653 H3633 0.950 . S
C3653 C3649 1.385 . S
C3653 C3652 1.374 . S
C3654 C3651 1.499 . S
C3654 C3655 1.373 . S
C3654 C3656 1.389 . S
C3655 H3634 0.950 . S
C3655 C3654 1.373 . S
C3655 C3671 1.377 . S
C3656 C3654 1.389 . S
C3656 C3657 1.524 . S
C3656 C3670 1.377 . S
C3657 C3656 1.524 . S
C3657 C3658 1.397 . S
C3657 C3662 1.363 . S
C3658 H3635 0.950 . S
C3658 C3657 1.397 . S
C3658 C3659 1.334 . S
C3659 H3636 0.950 . S
C3659 C3658 1.334 . S
C3659 C3660 1.287 . S
C3660 C3659 1.287 . S
C3660 C3661 1.524 . S
C3660 H3679 0.913 . S
C3661 H3637 0.950 . S
C3661 C3660 1.524 . S
C3661 C3662 1.415 . S
C3662 H3638 0.950 . S
C3662 C3657 1.363 . S
C3662 C3661 1.415 . S
C3663 H3639 0.951 . S
C3663 C3664 1.366 . S
C3663 C3665 1.388 . S
C3664 C3663 1.366 . S
C3664 C3668 1.385 . S
C3665 H3640 0.951 . S
C3665 C3663 1.388 . S
C3665 C3666 1.366 . S
C3666 C3665 1.366 . S
C3666 C3667 1.414 . S
C3666 C3669 1.499 . S
C3667 H3641 0.950 . S
C3667 C3666 1.414 . S
C3667 C3668 1.374 . S
C3668 H3642 0.950 . S
C3668 C3664 1.385 . S
C3668 C3667 1.374 . S
C3669 C3666 1.499 . S
C3669 C3670 1.373 . S
C3669 C3671 1.389 . S
C3670 H3643 0.950 . S
C3670 C3656 1.377 . S
C3670 C3669 1.373 . S
C3671 C3655 1.377 . S
C3671 C3669 1.389 . S
C3671 C3672 1.524 . S
C3672 C3671 1.524 . S
C3672 C3673 1.397 . S
C3672 C3677 1.363 . S
C3673 H3644 0.950 . S
C3673 C3672 1.397 . S
C3673 C3674 1.334 . S
C3674 H3645 0.950 . S
C3674 C3673 1.334 . S
C3674 C3675 1.287 . S
C3675 C3674 1.287 . S
C3675 C3676 1.524 . S
C3675 H3678 0.999 . S
C3676 H3646 0.950 . S
C3676 C3675 1.524 . S
C3676 C3677 1.415 . S
C3677 H3647 0.950 . S
C3677 C3672 1.363 . S
C3677 C3676 1.415 . S
H3678 C3675 0.999 . S
H3679 C3660 0.913 . S
C1299 C21 1.893 . S
C1314 C101 1.893 . S
C1349 C141 1.958 . S
C1364 C61 1.958 . S
C1399 C181 1.957 . S
C1414 C261 1.957 . S
C1449 C221 2.024 . S
C1464 C301 2.024 . S
C1499 C341 1.893 . S
C1514 C421 1.893 . S
C1549 C381 1.959 . S
C1564 C461 1.958 . S
C1599 C501 1.957 . S
C1614 C581 1.957 . S
C1649 C621 2.024 . S
C1664 C541 2.024 . S
C1699 C661 1.767 . S
C1714 C741 1.766 . S
C1749 C701 1.880 . S
C1764 C781 1.880 . S
C1799 C901 1.822 . S
C1814 C821 1.822 . S
C1849 C861 1.943 . S
C1864 C941 1.943 . S
C1899 C1061 1.767 . S
C1914 C981 1.767 . S
C1949 C1021 1.879 . S
C1964 C1101 1.880 . S
C1999 C1141 1.822 . S
C2014 C1221 1.822 . S
C2049 C1261 1.943 . S
C2064 C1181 1.943 . S
C2099 C15 2.278 . S
C2114 C175 2.290 . S
C2149 C55 2.332 . S
C2164 C1175 2.345 . S
C2199 C575 2.290 . S
C2214 C95 2.278 . S
C2249 C935 2.345 . S
C2264 C135 2.331 . S
C2299 C1015 2.333 . S
C2314 C215 2.343 . S
C2349 C255 2.290 . S
C2364 C415 2.278 . S
C2399 C775 2.333 . S
C2414 C295 2.344 . S
C2449 C495 2.289 . S
C2464 C335 2.277 . S
C2499 C375 2.332 . S
C2514 C855 2.345 . S
C2549 C455 2.332 . S
C2564 C1255 2.345 . S
C2599 C695 2.333 . S
C2614 C535 2.344 . S
C2649 C615 2.344 . S
C2664 C1095 2.333 . S
C2699 C815 2.164 . S
C2714 C655 2.153 . S
C2749 C735 2.154 . S
C2764 C1215 2.163 . S
C2799 C895 2.164 . S
C2814 C1055 2.153 . S
C2849 C975 2.154 . S
C2864 C1135 2.163 . S
C2899 C1002 1.961 . S
C2914 C2 1.961 . S
C2949 C962 1.937 . S
C2964 C42 1.921 . S
C2999 C82 1.962 . S
C3014 C1082 1.962 . S
C3049 C1042 1.936 . S
C3064 C122 1.920 . S
C3099 C1162 2.078 . S
C3114 C162 2.078 . S
C3149 C202 2.038 . S
C3164 C1122 2.038 . S
C3199 C1242 2.078 . S
C3214 C242 2.078 . S
C3249 C282 2.038 . S
C3264 C1202 2.039 . S
C3299 C322 1.961 . S
C3314 C682 1.961 . S
C3349 C362 1.924 . S
C3364 C642 1.932 . S
C3399 C402 1.961 . S
C3414 C762 1.961 . S
C3449 C722 1.936 . S
C3464 C442 1.920 . S
C3499 C482 2.078 . S
C3514 C842 2.078 . S
C3549 C802 2.044 . S
C3564 C522 2.034 . S
C3599 C922 2.078 . S
C3614 C562 2.078 . S
C3649 C882 2.044 . S
C3664 C602 2.034 . S
