# Generated by pormake.
# Topology bto, (3)-cn, num edge types: 1
# Building blocks:
#     Node 0, Type 0, BuildingBlock: WUSLED_clean_sbu_0, # of connection points: 3
#     Node 1, Type 0, BuildingBlock: WUSLED_clean_sbu_0, # of connection points: 3
#     Node 2, Type 0, BuildingBlock: WUSLED_clean_sbu_0, # of connection points: 3
#     Node 3, Type 0, BuildingBlock: WUSLED_clean_sbu_0, # of connection points: 3
#     Node 4, Type 0, BuildingBlock: WUSLED_clean_sbu_0, # of connection points: 3
#     Node 5, Type 0, BuildingBlock: WUSLED_clean_sbu_0, # of connection points: 3
#     Edge 6, Type (0, 0), BuildingBlock: FUNLAD_clean_linker_0, # of connection points: 2
#     Edge 7, Type (0, 0), BuildingBlock: FUNLAD_clean_linker_0, # of connection points: 2
#     Edge 8, Type (0, 0), BuildingBlock: FUNLAD_clean_linker_0, # of connection points: 2
#     Edge 9, Type (0, 0), BuildingBlock: FUNLAD_clean_linker_0, # of connection points: 2
#     Edge 10, Type (0, 0), BuildingBlock: FUNLAD_clean_linker_0, # of connection points: 2
#     Edge 11, Type (0, 0), BuildingBlock: FUNLAD_clean_linker_0, # of connection points: 2
#     Edge 12, Type (0, 0), BuildingBlock: FUNLAD_clean_linker_0, # of connection points: 2
#     Edge 13, Type (0, 0), BuildingBlock: FUNLAD_clean_linker_0, # of connection points: 2
#     Edge 14, Type (0, 0), BuildingBlock: FUNLAD_clean_linker_0, # of connection points: 2
# Relax obj value: 0.000
# Max RMSD: 0.003
# Mean RMSD: 0.003
data_MOF--net-bto--node1-WUSLED_clean_sbu_0--edge1-FUNLAD_clean_linker_0
_symmetry_space_group_name_H-M    P1
_symmetry_Int_Tables_number       1
_symmetry_cell_setting            triclinic
loop_
_symmetry_equiv_pos_as_xyz
'x, y, z'
_cell_length_a     44.563117
_cell_length_b     44.660015
_cell_length_c     112.43351
_cell_angle_alpha  88.87243
_cell_angle_beta   90.596879
_cell_angle_gamma 119.98791
loop_
_atom_site_label
_atom_site_type_symbol
_atom_site_fract_x
_atom_site_fract_y
_atom_site_fract_z
_atom_type_partial_charge
C0 C 0.99184 0.5297 0.04743 0.0
C1 C 0.9695 0.53174 0.05566 0.0
C2 C 0.93146 0.52989 0.03955 0.0
C3 C 0.9396 0.53185 0.05176 0.0
C4 C 0.95401 0.52778 0.03137 0.0
C5 C 0.9839 0.5277 0.03528 0.0
U6 U 0.05219 0.53141 0.0721 0.0
O7 O 0.08019 0.50258 0.07402 0.0
O8 O 0.10911 0.55925 0.07306 0.0
C9 C 0.11078 0.53068 0.07333 0.0
C10 C 1.02342 0.52963 0.05139 0.0
C11 C 0.13545 0.5296 0.06497 0.0
C12 C 0.15607 0.53149 0.04487 0.0
C13 C 0.13186 0.53193 0.05263 0.0
C14 C 0.18746 0.52611 0.06172 0.0
C15 C 0.18425 0.52865 0.04932 0.0
C16 C 0.16331 0.5266 0.06945 0.0
C17 C 1.02629 0.53547 0.10457 0.0
C18 C 0.04541 0.52002 0.12287 0.0
C19 C 1.01345 0.55065 0.12374 0.0
C20 C 1.01169 0.55098 0.11133 0.0
C21 C 0.02982 0.53468 0.1297 0.0
C22 C 0.04363 0.52038 0.1104 0.0
C23 C 1.02151 0.53415 0.09156 0.0
O24 O 0.04733 0.55837 0.05623 0.0
O25 O 1.01829 0.50174 0.05728 0.0
O26 O 1.0144 0.50507 0.08647 0.0
O27 O 0.04356 0.56179 0.08547 0.0
H28 H 0.97518 0.53319 0.06509 0.0
H29 H 0.92264 0.53305 0.05833 0.0
H30 H 0.94886 0.5267 0.0219 0.0
H31 H 1.0009 0.52619 0.0288 0.0
H32 H 0.15252 0.53307 0.03538 0.0
H33 H 0.11042 0.53416 0.04901 0.0
H34 H 0.20902 0.52438 0.06548 0.0
H35 H 0.16654 0.52488 0.07895 0.0
H36 H 0.05804 0.50733 0.12716 0.0
H37 H 1.00176 0.56277 0.12869 0.0
H38 H 0.99835 0.5629 0.107 0.0
H39 H 0.05517 0.50832 0.10534 0.0
C40 C 0.61177 0.09877 0.38142 0.0
C41 C 0.63611 0.12093 0.38972 0.0
C42 C 0.67205 0.15948 0.37367 0.0
C43 C 0.66598 0.15102 0.38588 0.0
C44 C 0.64737 0.13712 0.36542 0.0
C45 C 0.61756 0.1071 0.36927 0.0
U46 U 0.5514 0.03722 0.40566 0.0
O47 O 0.49445 1.00763 0.40636 0.0
O48 O 0.5239 0.98031 0.4067 0.0
C49 C 0.49316 0.97759 0.40619 0.0
C50 C 0.58039 0.06683 0.38526 0.0
C51 C 0.4685 0.95241 0.3977 0.0
C52 C 0.44692 0.93523 0.37757 0.0
C53 C 0.4712 0.95947 0.38542 0.0
C54 C 0.41727 0.89661 0.39421 0.0
C55 C 0.41959 0.90347 0.38188 0.0
C56 C 0.44147 0.92084 0.40202 0.0
C57 C 0.57377 0.06042 0.43864 0.0
C58 C 0.55881 0.02248 0.45609 0.0
C59 C 0.57392 0.08221 0.45832 0.0
C60 C 0.57874 0.08748 0.44602 0.0
C61 C 0.56421 0.04973 0.46356 0.0
C62 C 0.56343 0.02773 0.44377 0.0
C63 C 0.58057 0.06731 0.42574 0.0
O64 O 0.58575 0.04363 0.39072 0.0
O65 O 0.55644 0.07107 0.39039 0.0
O66 O 0.55903 0.07401 0.41977 0.0
O67 O 0.58888 0.04706 0.42003 0.0
H68 H 0.63208 0.11486 0.39915 0.0
H69 H 0.68456 0.16736 0.39248 0.0
H70 H 0.65087 0.14302 0.35598 0.0
H71 H 0.59899 0.09034 0.36274 0.0
H72 H 0.44975 0.94122 0.36813 0.0
H73 H 0.49199 0.98372 0.38191 0.0
H74 H 0.39635 0.87273 0.39788 0.0
H75 H 0.43891 0.91499 0.41148 0.0
H76 H 0.55169 0.99722 0.45978 0.0
H77 H 0.57768 0.10364 0.46372 0.0
H78 H 0.58659 0.11287 0.44226 0.0
H79 H 0.55933 1.00634 0.43828 0.0
C80 C 0.55397 0.59069 0.71365 0.0
C81 C 0.54634 0.61073 0.72118 0.0
C82 C 0.55665 0.65181 0.70491 0.0
C83 C 0.54755 0.64097 0.71683 0.0
C84 C 0.56438 0.6316 0.69745 0.0
C85 C 0.56302 0.60137 0.70179 0.0
U86 U 0.55314 0.53051 0.73867 0.0
O87 O 0.52301 0.47361 0.74025 0.0
O88 O 0.57984 0.5004 0.73984 0.0
C89 C 0.55081 0.47052 0.73988 0.0
C90 C 0.55267 0.55866 0.71796 0.0
C91 C 0.54932 0.44397 0.73188 0.0
C92 C 0.5657 0.42693 0.71371 0.0
C93 C 0.56549 0.45253 0.72068 0.0
C94 C 0.53278 0.38387 0.72888 0.0
C95 C 0.54973 0.39231 0.71779 0.0
C96 C 0.53265 0.40942 0.73583 0.0
C97 C 0.5585 0.55749 0.77138 0.0
C98 C 0.53561 0.52364 0.7897 0.0
C99 C 0.58672 0.58047 0.79036 0.0
C100 C 0.58487 0.58403 0.77803 0.0
C101 C 0.56205 0.5503 0.79636 0.0
C102 C 0.53391 0.52712 0.77732 0.0
C103 C 0.55679 0.56277 0.7584 0.0
O104 O 0.58109 0.56262 0.72305 0.0
O105 O 0.52435 0.53644 0.72367 0.0
O106 O 0.52742 0.54208 0.75301 0.0
O107 O 0.58421 0.56867 0.75226 0.0
H108 H 0.53949 0.60301 0.73039 0.0
H109 H 0.54185 0.6561 0.72285 0.0
H110 H 0.57104 0.63889 0.6882 0.0
H111 H 0.56895 0.58622 0.69585 0.0
H112 H 0.57921 0.43445 0.70527 0.0
H113 H 0.57851 0.47905 0.71744 0.0
H114 H 0.51965 0.35745 0.73222 0.0
H115 H 0.5199 0.40224 0.74442 0.0
H116 H 0.51641 0.49995 0.79403 0.0
H117 H 0.60713 0.60169 0.79522 0.0
H118 H 0.60397 0.60777 0.77368 0.0
H119 H 0.5133 0.50613 0.77244 0.0
C120 C 0.5463 0.96985 0.65697 0.0
C121 C 0.55424 0.95001 0.64946 0.0
C122 C 0.54305 0.90839 0.66563 0.0
C123 C 0.55271 0.91959 0.65377 0.0
C124 C 0.53494 0.92837 0.67306 0.0
C125 C 0.53659 0.95878 0.66876 0.0
U126 U 0.55154 0.03239 0.63208 0.0
O127 O 0.52581 0.06336 0.63048 0.0
O128 O 0.58259 0.08932 0.63111 0.0
C129 C 0.55508 0.09295 0.63097 0.0
C130 C 0.54829 1.00226 0.65273 0.0
C131 C 0.55581 0.11911 0.63897 0.0
C132 C 0.53826 0.13541 0.65704 0.0
C133 C 0.53898 0.11011 0.65005 0.0
C134 C 0.57189 0.17902 0.64212 0.0
C135 C 0.55434 0.17015 0.65309 0.0
C136 C 0.57255 0.15377 0.63515 0.0
C137 C 0.55261 1.00949 0.59939 0.0
C138 C 0.57123 0.05008 0.58263 0.0
C139 C 0.53913 0.98848 0.57915 0.0
C140 C 0.53739 0.98204 0.59142 0.0
C141 C 0.55629 0.02257 0.57459 0.0
C142 C 0.56928 0.04361 0.59492 0.0
C143 C 0.55116 1.0019 0.61227 0.0
O144 O 0.57758 0.0249 0.64763 0.0
O145 O 0.52083 0.99887 0.64708 0.0
O146 O 0.52275 0.99605 0.61773 0.0
O147 O 0.57947 0.02158 0.61835 0.0
H148 H 0.56164 0.95806 0.6403 0.0
H149 H 0.55872 0.90465 0.64776 0.0
H150 H 0.52784 0.92082 0.68227 0.0
H151 H 0.53044 0.97379 0.67469 0.0
H152 H 0.52429 0.12758 0.66539 0.0
H153 H 0.5259 0.08347 0.65318 0.0
H154 H 0.58511 0.20555 0.63888 0.0
H155 H 0.5858 0.16129 0.62665 0.0
H156 H 0.58424 0.07664 0.57942 0.0
H157 H 0.52767 0.96671 0.57322 0.0
H158 H 0.52441 0.95554 0.5947 0.0
H159 H 0.58097 0.06522 0.60092 0.0
C160 C 0.60796 0.52402 0.98919 0.0
C161 C 0.63035 0.52232 0.98089 0.0
C162 C 0.66841 0.52376 0.99693 0.0
C163 C 0.66029 0.52215 0.98473 0.0
C164 C 0.64579 0.52551 1.00518 0.0
C165 C 0.61588 0.52562 1.00133 0.0
U166 U 0.54805 0.5252 0.9648 0.0
O167 O 0.49111 0.49709 0.96371 0.0
O168 O 0.51968 0.55379 0.9637 0.0
C169 C 0.48919 0.5255 0.96399 0.0
C170 C 0.57636 0.5242 0.98533 0.0
C171 C 0.46401 0.52524 0.97244 0.0
C172 C 0.44277 0.52144 0.99258 0.0
C173 C 0.46723 0.52175 0.98475 0.0
C174 C 0.41181 0.52822 0.97586 0.0
C175 C 0.41473 0.5247 0.98823 0.0
C176 C 0.4362 0.52848 0.96807 0.0
C177 C 0.57353 0.52703 0.93206 0.0
C178 C 0.53644 0.52025 0.91509 0.0
C179 C 0.59627 0.53591 0.91195 0.0
C180 C 0.60095 0.53519 0.92425 0.0
C181 C 0.56396 0.52843 0.9072 0.0
C182 C 0.54122 0.51966 0.92742 0.0
C183 C 0.57929 0.52623 0.94496 0.0
O184 O 0.58137 0.5528 0.98 0.0
O185 O 0.55294 0.49612 0.98 0.0
O186 O 0.55756 0.49759 0.95066 0.0
O187 O 0.58611 0.5543 0.9507 0.0
H188 H 0.6247 0.52119 0.97146 0.0
H189 H 0.67729 0.52122 0.97812 0.0
H190 H 0.65094 0.52631 1.01464 0.0
H191 H 0.59884 0.52687 1.00786 0.0
H192 H 0.44606 0.51908 1.00204 0.0
H193 H 0.48863 0.51932 0.98829 0.0
H194 H 0.39036 0.53028 0.97217 0.0
H195 H 0.43326 0.5311 0.95859 0.0
H196 H 0.51134 0.51473 0.91174 0.0
H197 H 0.61787 0.54183 0.90616 0.0
H198 H 0.62605 0.54087 0.92767 0.0
H199 H 0.51975 0.51345 0.93333 0.0
C200 C 0.99409 0.4764 0.32267 0.0
C201 C 0.96937 0.45442 0.31443 0.0
C202 C 0.93359 0.41613 0.33056 0.0
C203 C 0.9394 0.42456 0.31833 0.0
C204 C 0.95859 0.43834 0.33875 0.0
C205 C 0.98851 0.46816 0.33483 0.0
U206 U 0.05369 0.5367 0.29813 0.0
O207 O 0.08208 0.59357 0.29687 0.0
O208 O 0.1106 0.56532 0.29695 0.0
C209 C 0.11256 0.59567 0.29714 0.0
C210 C 1.02569 0.50798 0.31874 0.0
C211 C 0.13791 0.62075 0.30551 0.0
C212 C 0.16001 0.63837 0.32556 0.0
C213 C 0.13533 0.6141 0.31782 0.0
C214 C 0.18988 0.67615 0.30876 0.0
C215 C 0.18763 0.66974 0.32112 0.0
C216 C 0.16527 0.6519 0.30105 0.0
C217 C 1.02757 0.5122 0.26546 0.0
C218 C 0.06455 0.54074 0.24832 0.0
C219 C 1.00392 0.49863 0.24546 0.0
C220 C 0.99958 0.49372 0.25777 0.0
C221 C 0.03645 0.52218 0.24056 0.0
C222 C 0.06012 0.53586 0.26068 0.0
C223 C 1.02211 0.50607 0.27838 0.0
O224 O 0.04897 0.50305 0.31343 0.0
O225 O 1.02069 0.53152 0.31336 0.0
O226 O 1.01539 0.52749 0.28406 0.0
O227 O 0.04393 0.49924 0.28411 0.0
H228 H 0.97323 0.46043 0.30499 0.0
H229 H 0.92056 0.40834 0.31178 0.0
H230 H 0.95528 0.43246 0.3482 0.0
H231 H 1.00738 0.48477 0.34132 0.0
H232 H 0.15723 0.63273 0.33502 0.0
H233 H 0.11427 0.5902 0.32142 0.0
H234 H 0.21099 0.69972 0.305 0.0
H235 H 0.16772 0.65742 0.29157 0.0
H236 H 0.08985 0.55933 0.24486 0.0
H237 H 0.98184 0.48355 0.23976 0.0
H238 H 0.97428 0.47528 0.2613 0.0
H239 H 0.08204 0.5505 0.26649 0.0
C240 C 0.05855 0.53726 0.14946 0.0
C241 C 0.02931 0.5323 0.14296 0.0
C242 C 0.05771 0.53516 0.16194 0.0
C243 C 1.02749 0.52798 0.16819 0.0
C244 C 0.99825 0.52259 0.16163 0.0
C245 C 0.99913 0.52479 0.14922 0.0
C246 C 1.02457 0.52496 0.18144 0.0
C247 C 0.05158 0.53646 0.18906 0.0
C248 C 0.04737 0.53343 0.20227 0.0
C249 C 0.07352 0.53337 0.20935 0.0
C250 C 0.07026 0.53012 0.22176 0.0
C251 C 0.0408 0.52707 0.2274 0.0
H252 H 0.99828 0.53283 0.20293 0.0
C253 C 1.0151 0.5281 0.22033 0.0
C254 C 1.01836 0.53138 0.20795 0.0
H255 H 0.9925 0.52672 0.22439 0.0
H256 H 0.08223 0.54313 0.14492 0.0
H257 H 0.08066 0.53876 0.16655 0.0
H258 H 0.97449 0.51669 0.16613 0.0
H259 H 0.97589 0.52013 0.14452 0.0
H260 H 0.99849 0.51275 0.18502 0.0
H261 H 0.07777 0.54805 0.18564 0.0
H262 H 0.09633 0.53528 0.20526 0.0
H263 H 0.09049 0.52925 0.22691 0.0
C264 C 0.53069 1.01005 0.55396 0.0
C265 C 0.55912 0.0293 0.56149 0.0
C266 C 0.53357 1.01588 0.54163 0.0
C267 C 0.56521 0.04094 0.53649 0.0
C268 C 0.59343 0.06042 0.54407 0.0
C269 C 0.59046 0.05472 0.55639 0.0
C270 C 0.57007 0.04822 0.52339 0.0
C271 C 0.54791 0.0275 0.51496 0.0
C272 C 0.55302 0.03438 0.50183 0.0
C273 C 0.53045 1.00834 0.49407 0.0
C274 C 0.53395 1.01326 0.48172 0.0
C275 C 0.5602 0.04447 0.47674 0.0
H276 H 0.59685 0.08705 0.50231 0.0
C277 C 0.5827 0.07067 0.48448 0.0
C278 C 0.5791 0.06583 0.49684 0.0
H279 H 0.60348 0.09493 0.48101 0.0
H280 H 0.50598 0.99071 0.55763 0.0
H281 H 0.51073 1.0009 0.53629 0.0
H282 H 0.61809 0.08003 0.54044 0.0
H283 H 0.61298 0.06981 0.5619 0.0
H284 H 0.59377 0.07123 0.5207 0.0
H285 H 0.52518 1.00354 0.51767 0.0
H286 H 0.50991 0.98393 0.49757 0.0
H287 H 0.51574 0.99268 0.47608 0.0
C288 C 0.58513 0.55504 0.88689 0.0
C289 C 0.55916 0.52903 0.89406 0.0
C290 C 0.58122 0.5552 0.87453 0.0
C291 C 0.55127 0.52908 0.86898 0.0
C292 C 0.525 0.50354 0.87619 0.0
C293 C 0.52889 0.50344 0.88856 0.0
C294 C 0.54605 0.5281 0.85581 0.0
C295 C 0.57232 0.54374 0.84791 0.0
C296 C 0.5681 0.54352 0.83469 0.0
C297 C 0.59794 0.55641 0.82759 0.0
C298 C 0.5959 0.55815 0.8152 0.0
C299 C 0.56387 0.54701 0.80953 0.0
H300 H 0.51223 0.52265 0.83402 0.0
C301 C 0.53386 0.53371 0.81658 0.0
C302 C 0.5359 0.53213 0.829 0.0
H303 H 0.50884 0.52538 0.8125 0.0
H304 H 0.60842 0.57562 0.89085 0.0
H305 H 0.60155 0.57621 0.86943 0.0
H306 H 0.5015 0.48328 0.87222 0.0
H307 H 0.50845 0.4829 0.8938 0.0
H308 H 0.51967 0.51274 0.85264 0.0
H309 H 0.59874 0.55685 0.85121 0.0
H310 H 0.62312 0.56541 0.83164 0.0
H311 H 0.61949 0.56818 0.81004 0.0
C312 C 0.22432 0.50694 0.04334 0.0
C313 C 0.21046 0.52875 0.04113 0.0
C314 C 0.24947 0.50754 0.03581 0.0
C315 C 0.26159 0.5302 0.02587 0.0
C316 C 0.2473 0.55155 0.02357 0.0
C317 C 0.22217 0.55094 0.0311 0.0
C318 C 0.28827 0.53186 1.01751 0.0
C319 C 0.31052 0.52043 0.0202 0.0
C320 C 0.33725 0.5223 1.01182 0.0
C321 C 0.3512 0.50055 1.01391 0.0
C322 C 0.37638 0.50141 1.00634 0.0
C323 C 0.38847 0.52426 0.99648 0.0
H324 H 0.34087 0.56377 1.00032 0.0
C325 C 0.37498 0.54648 0.99449 0.0
C326 C 0.3498 0.54562 1.00206 0.0
H327 H 0.38425 0.56497 0.98715 0.0
H328 H 0.21538 0.48898 0.05083 0.0
H329 H 0.25871 0.48974 0.03774 0.0
H330 H 0.25588 0.56913 1.01596 0.0
H331 H 0.21238 0.56835 0.02916 0.0
H332 H 0.28962 0.54344 1.00882 0.0
H333 H 0.30916 0.50876 0.02887 0.0
H334 H 0.3423 0.48249 0.02138 0.0
H335 H 0.38592 0.48372 1.0081 0.0
C336 C 0.72162 0.19105 0.35928 0.0
C337 C 0.70391 0.19139 0.36952 0.0
C338 C 0.75138 0.22099 0.35532 0.0
C339 C 0.76414 0.25223 0.36147 0.0
C340 C 0.74667 0.2524 0.37179 0.0
C341 C 0.71692 0.22247 0.37574 0.0
C342 C 0.79599 0.28483 0.35772 0.0
C343 C 0.8095 0.29111 0.34664 0.0
C344 C 0.84139 0.32365 0.34286 0.0
C345 C 0.85858 0.32343 0.33248 0.0
C346 C 0.88836 0.35327 0.3285 0.0
C347 C 0.90169 0.38433 0.33476 0.0
H348 H 0.84161 0.35675 0.35687 0.0
C349 C 0.8843 0.38473 0.34508 0.0
C350 C 0.85449 0.35486 0.34907 0.0
H351 H 0.89337 0.40835 0.34998 0.0
H352 H 0.71283 0.16741 0.35441 0.0
H353 H 0.76452 0.21914 0.34758 0.0
H354 H 0.7559 0.27593 0.37677 0.0
H355 H 0.70383 0.22385 0.3836 0.0
H356 H 0.80838 0.30442 0.36444 0.0
H357 H 0.79705 0.27152 0.33992 0.0
H358 H 0.8491 0.29992 0.32746 0.0
H359 H 0.90121 0.35184 0.32059 0.0
C360 C 0.56708 0.86791 0.66732 0.0
C361 C 0.54147 0.87611 0.6703 0.0
C362 C 0.56592 0.83796 0.67192 0.0
C363 C 0.53907 0.81543 0.67968 0.0
C364 C 0.5132 0.82337 0.68247 0.0
C365 C 0.51443 0.85333 0.6779 0.0
C366 C 0.53639 0.78303 0.68481 0.0
C367 C 0.56323 0.77709 0.6857 0.0
C368 C 0.56053 0.74469 0.69082 0.0
C369 C 0.58624 0.73659 0.68795 0.0
C370 C 0.58501 0.70663 0.69253 0.0
C371 C 0.55816 0.68404 0.70021 0.0
H372 H 0.51404 0.72792 0.70143 0.0
C373 C 0.53272 0.69239 0.70328 0.0
C374 C 0.53386 0.72233 0.69867 0.0
H375 H 0.51161 0.67553 0.70916 0.0
H376 H 0.58834 0.8849 0.66152 0.0
H377 H 0.58589 0.83251 0.66922 0.0
H378 H 0.49196 0.80641 0.68829 0.0
H379 H 0.49392 0.85846 0.68023 0.0
H380 H 0.51111 0.76359 0.68808 0.0
H381 H 0.58851 0.79651 0.68243 0.0
H382 H 0.60734 0.75343 0.68207 0.0
H383 H 0.60539 0.70138 0.69013 0.0
C384 C 0.87948 0.50878 0.02604 0.0
C385 C 0.8997 0.53017 0.03536 0.0
C386 C 0.84976 0.50914 0.02207 0.0
C387 C 0.83959 0.53114 0.02728 0.0
C388 C 0.85961 0.55219 0.03667 0.0
C389 C 0.88931 0.55182 0.04063 0.0
C390 C 0.80792 0.53229 0.0235 0.0
C391 C 0.79202 0.52132 1.01288 0.0
C392 C 0.76037 0.52252 1.0091 0.0
C393 C 0.74041 0.50163 0.99967 0.0
C394 C 0.71071 0.50202 0.99572 0.0
C395 C 0.70024 0.52352 1.00107 0.0
H396 H 0.76521 0.56184 0.02137 0.0
C397 C 0.7204 0.54476 1.01042 0.0
C398 C 0.75013 0.5444 1.01436 0.0
H399 H 0.71355 0.5622 1.01457 0.0
H400 H 0.88626 0.49123 0.02194 0.0
H401 H 0.83462 0.49159 1.0151 0.0
H402 H 0.85243 0.56927 0.04091 0.0
H403 H 0.90439 0.56891 0.04774 0.0
H404 H 0.79773 0.54305 0.0298 0.0
H405 H 0.80221 0.51055 1.00658 0.0
H406 H 0.74765 0.48465 0.99538 0.0
H407 H 0.69568 0.48506 0.98858 0.0
C408 C 0.38058 0.84206 0.37542 0.0
C409 C 0.39331 0.87768 0.37363 0.0
C410 C 0.35523 0.81775 0.36789 0.0
C411 C 0.34176 0.82846 0.35838 0.0
C412 C 0.355 0.86408 0.35647 0.0
C413 C 0.38033 0.88838 0.364 0.0
C414 C 0.31474 0.80362 0.35008 0.0
C415 C 0.29308 0.76984 0.3527 0.0
C416 C 0.266 0.74496 0.34442 0.0
C417 C 0.25244 0.70934 0.34646 0.0
C418 C 0.22697 0.68498 0.33898 0.0
C419 C 0.21418 0.69561 0.32928 0.0
H420 H 0.26139 0.78262 0.33312 0.0
C421 C 0.22729 0.73124 0.32734 0.0
C422 C 0.25276 0.75562 0.33482 0.0
H423 H 0.2175 0.74036 0.32012 0.0
H424 H 0.39054 0.83291 0.38258 0.0
H425 H 0.34687 0.79076 0.36949 0.0
H426 H 0.34538 0.8732 0.34918 0.0
H427 H 0.38926 0.91554 0.36239 0.0
H428 H 0.3126 0.81408 0.34153 0.0
H429 H 0.29522 0.75943 0.36126 0.0
H430 H 0.26187 0.70025 0.35381 0.0
H431 H 0.21775 0.6578 0.34069 0.0
C432 C 0.55503 0.19749 0.67263 0.0
C433 C 0.55216 0.19698 0.66015 0.0
C434 C 0.55308 0.22287 0.67918 0.0
C435 C 0.54829 0.24847 0.67339 0.0
C436 C 0.54494 0.24756 0.66095 0.0
C437 C 0.54695 0.22229 0.65441 0.0
C438 C 0.54557 0.2759 0.67989 0.0
C439 C 0.55747 0.2859 0.69104 0.0
C440 C 0.55487 0.31341 0.69753 0.0
C441 C 0.5586 0.31457 0.70996 0.0
C442 C 0.55683 0.33999 0.71648 0.0
C443 C 0.55147 0.36521 0.71075 0.0
H444 H 0.54782 0.33976 0.68217 0.0
C445 C 0.54815 0.36441 0.69828 0.0
C446 C 0.54987 0.33889 0.69174 0.0
H447 H 0.54394 0.38337 0.69356 0.0
H448 H 0.5591 0.17844 0.67735 0.0
H449 H 0.55481 0.22182 0.68876 0.0
H450 H 0.54083 0.26659 0.65622 0.0
H451 H 0.54393 0.22235 0.64485 0.0
H452 H 0.53355 0.28851 0.67511 0.0
H453 H 0.56951 0.2733 0.69581 0.0
H454 H 0.56287 0.29564 0.71469 0.0
H455 H 0.5602 0.34014 0.72604 0.0
loop_
_geom_bond_atom_site_label_1
_geom_bond_atom_site_label_2
_geom_bond_distance
_geom_bond_site_symmetry_2
_ccdc_geom_bond_type
C0 C1 1.264 . S
C0 C5 1.479 . S
C0 C10 1.465 . S
C1 C0 1.264 . S
C1 C3 1.339 . S
C1 H28 0.931 . S
C2 C3 1.395 . S
C2 C4 1.320 . S
C3 C1 1.339 . S
C3 C2 1.395 . S
C3 H29 0.929 . S
C4 C2 1.320 . S
C4 C5 1.405 . S
C4 H30 0.930 . S
C5 C0 1.479 . S
C5 C4 1.405 . S
C5 H31 0.931 . S
U6 O7 2.454 . S
U6 O8 2.458 . S
U6 C9 2.984 . S
U6 C10 2.847 1_455 S
U6 C23 2.882 . S
U6 O24 2.441 1_455 S
U6 O25 2.420 1_455 S
U6 O26 2.455 . S
U6 O27 2.449 1_455 S
O7 U6 2.454 . S
O7 C9 1.353 . S
O8 U6 2.458 . S
O8 C9 1.286 . S
C9 U6 2.984 . S
C9 O7 1.353 . S
C9 O8 1.286 . S
C9 C11 1.363 . S
C10 C0 1.465 . S
C10 U6 2.847 1_655 S
C10 O24 1.249 . S
C10 O25 1.202 . S
C11 C9 1.363 . S
C11 C13 1.408 . S
C11 C16 1.342 . S
C12 C13 1.310 . S
C12 C15 1.461 . S
C12 H32 0.932 . S
C13 C11 1.408 . S
C13 C12 1.310 . S
C13 H33 0.930 . S
C14 C15 1.474 . S
C14 C16 1.285 . S
C14 H34 0.929 . S
C15 C12 1.461 . S
C15 C14 1.474 . S
C16 C11 1.342 . S
C16 C14 1.285 . S
C16 H35 0.930 . S
C17 C20 1.424 1_455 S
C17 C22 1.245 . S
C17 C23 1.428 . S
C18 C21 1.260 . S
C18 C22 1.477 . S
C18 H36 0.932 . S
C19 C20 1.384 . S
C19 C21 1.479 1_655 S
C19 H37 0.929 . S
C20 C17 1.424 1_655 S
C20 C19 1.384 . S
C20 H38 0.928 . S
C21 C18 1.260 . S
C21 C19 1.479 1_455 S
C22 C17 1.245 . S
C22 C18 1.477 . S
C22 H39 0.932 . S
C23 U6 2.882 . S
C23 C17 1.428 . S
C23 O26 1.301 . S
C23 O27 1.282 1_455 S
O24 U6 2.441 1_655 S
O24 C10 1.249 . S
O25 U6 2.420 1_655 S
O25 C10 1.202 . S
O26 U6 2.455 . S
O26 C23 1.301 . S
O27 U6 2.449 1_655 S
O27 C23 1.282 1_655 S
H28 C1 0.931 . S
H29 C3 0.929 . S
H30 C4 0.930 . S
H31 C5 0.931 . S
H32 C12 0.932 . S
H33 C13 0.930 . S
H34 C14 0.929 . S
H35 C16 0.930 . S
H36 C18 0.932 . S
H37 C19 0.929 . S
H38 C20 0.928 . S
H39 C22 0.932 . S
C40 C41 1.264 . S
C40 C45 1.479 . S
C40 C50 1.465 . S
C41 C40 1.264 . S
C41 C43 1.339 . S
C41 H68 0.931 . S
C42 C43 1.395 . S
C42 C44 1.320 . S
C43 C41 1.339 . S
C43 C42 1.395 . S
C43 H69 0.929 . S
C44 C42 1.320 . S
C44 C45 1.405 . S
C44 H70 0.930 . S
C45 C40 1.479 . S
C45 C44 1.405 . S
C45 H71 0.931 . S
U46 O47 2.454 1_545 S
U46 O48 2.458 1_545 S
U46 C49 2.984 1_545 S
U46 C50 2.847 . S
U46 C63 2.882 . S
U46 O64 2.441 . S
U46 O65 2.420 . S
U46 O66 2.455 . S
U46 O67 2.449 . S
O47 U46 2.454 1_565 S
O47 C49 1.353 . S
O48 U46 2.458 1_565 S
O48 C49 1.286 . S
C49 U46 2.984 1_565 S
C49 O47 1.353 . S
C49 O48 1.286 . S
C49 C51 1.363 . S
C50 C40 1.465 . S
C50 U46 2.847 . S
C50 O64 1.249 . S
C50 O65 1.202 . S
C51 C49 1.363 . S
C51 C53 1.408 . S
C51 C56 1.342 . S
C52 C53 1.310 . S
C52 C55 1.461 . S
C52 H72 0.932 . S
C53 C51 1.408 . S
C53 C52 1.310 . S
C53 H73 0.930 . S
C54 C55 1.474 . S
C54 C56 1.285 . S
C54 H74 0.929 . S
C55 C52 1.461 . S
C55 C54 1.474 . S
C56 C51 1.342 . S
C56 C54 1.285 . S
C56 H75 0.930 . S
C57 C60 1.424 . S
C57 C62 1.238 1_545 S
C57 C63 1.428 . S
C58 C61 1.269 . S
C58 C62 1.479 1_545 S
C58 H76 0.921 1_545 S
C59 C60 1.384 . S
C59 C61 1.479 . S
C59 H77 0.929 . S
C60 C57 1.424 . S
C60 C59 1.384 . S
C60 H78 0.928 . S
C61 C58 1.269 . S
C61 C59 1.479 . S
C62 C57 1.238 1_565 S
C62 C58 1.479 1_565 S
C62 H79 0.938 . S
C63 U46 2.882 . S
C63 C57 1.428 . S
C63 O66 1.301 . S
C63 O67 1.282 . S
O64 U46 2.441 . S
O64 C50 1.249 . S
O65 U46 2.420 . S
O65 C50 1.202 . S
O66 U46 2.455 . S
O66 C63 1.301 . S
O67 U46 2.449 . S
O67 C63 1.282 . S
H68 C41 0.931 . S
H69 C43 0.929 . S
H70 C44 0.930 . S
H71 C45 0.931 . S
H72 C52 0.932 . S
H73 C53 0.930 . S
H74 C54 0.929 . S
H75 C56 0.930 . S
H76 C58 0.921 1_565 S
H77 C59 0.929 . S
H78 C60 0.928 . S
H79 C62 0.938 . S
C80 C81 1.264 . S
C80 C85 1.479 . S
C80 C90 1.465 . S
C81 C80 1.264 . S
C81 C83 1.339 . S
C81 H108 0.931 . S
C82 C83 1.395 . S
C82 C84 1.320 . S
C83 C81 1.339 . S
C83 C82 1.395 . S
C83 H109 0.929 . S
C84 C82 1.320 . S
C84 C85 1.405 . S
C84 H110 0.930 . S
C85 C80 1.479 . S
C85 C84 1.405 . S
C85 H111 0.931 . S
U86 O87 2.454 . S
U86 O88 2.458 . S
U86 C89 2.984 . S
U86 C90 2.847 . S
U86 C103 2.882 . S
U86 O104 2.441 . S
U86 O105 2.420 . S
U86 O106 2.455 . S
U86 O107 2.449 . S
O87 U86 2.454 . S
O87 C89 1.353 . S
O88 U86 2.458 . S
O88 C89 1.286 . S
C89 U86 2.984 . S
C89 O87 1.353 . S
C89 O88 1.286 . S
C89 C91 1.363 . S
C90 C80 1.465 . S
C90 U86 2.847 . S
C90 O104 1.249 . S
C90 O105 1.202 . S
C91 C89 1.363 . S
C91 C93 1.408 . S
C91 C96 1.342 . S
C92 C93 1.310 . S
C92 C95 1.461 . S
C92 H112 0.932 . S
C93 C91 1.408 . S
C93 C92 1.310 . S
C93 H113 0.930 . S
C94 C95 1.474 . S
C94 C96 1.285 . S
C94 H114 0.929 . S
C95 C92 1.461 . S
C95 C94 1.474 . S
C96 C91 1.342 . S
C96 C94 1.285 . S
C96 H115 0.930 . S
C97 C100 1.424 . S
C97 C102 1.245 . S
C97 C103 1.428 . S
C98 C101 1.260 . S
C98 C102 1.477 . S
C98 H116 0.932 . S
C99 C100 1.384 . S
C99 C101 1.479 . S
C99 H117 0.929 . S
C100 C97 1.424 . S
C100 C99 1.384 . S
C100 H118 0.928 . S
C101 C98 1.260 . S
C101 C99 1.479 . S
C102 C97 1.245 . S
C102 C98 1.477 . S
C102 H119 0.932 . S
C103 U86 2.882 . S
C103 C97 1.428 . S
C103 O106 1.301 . S
C103 O107 1.282 . S
O104 U86 2.441 . S
O104 C90 1.249 . S
O105 U86 2.420 . S
O105 C90 1.202 . S
O106 U86 2.455 . S
O106 C103 1.301 . S
O107 U86 2.449 . S
O107 C103 1.282 . S
H108 C81 0.931 . S
H109 C83 0.929 . S
H110 C84 0.930 . S
H111 C85 0.931 . S
H112 C92 0.932 . S
H113 C93 0.930 . S
H114 C94 0.929 . S
H115 C96 0.930 . S
H116 C98 0.932 . S
H117 C99 0.929 . S
H118 C100 0.928 . S
H119 C102 0.932 . S
C120 C121 1.264 . S
C120 C125 1.479 . S
C120 C130 1.465 . S
C121 C120 1.264 . S
C121 C123 1.339 . S
C121 H148 0.931 . S
C122 C123 1.395 . S
C122 C124 1.320 . S
C123 C121 1.339 . S
C123 C122 1.395 . S
C123 H149 0.929 . S
C124 C122 1.320 . S
C124 C125 1.405 . S
C124 H150 0.930 . S
C125 C120 1.479 . S
C125 C124 1.405 . S
C125 H151 0.931 . S
U126 O127 2.454 . S
U126 O128 2.458 . S
U126 C129 2.984 . S
U126 C130 2.847 1_545 S
U126 C143 2.882 . S
U126 O144 2.441 1_545 S
U126 O145 2.420 1_545 S
U126 O146 2.455 . S
U126 O147 2.449 1_545 S
O127 U126 2.454 . S
O127 C129 1.353 . S
O128 U126 2.458 . S
O128 C129 1.286 . S
C129 U126 2.984 . S
C129 O127 1.353 . S
C129 O128 1.286 . S
C129 C131 1.363 . S
C130 C120 1.465 . S
C130 U126 2.847 1_565 S
C130 O144 1.249 . S
C130 O145 1.202 . S
C131 C129 1.363 . S
C131 C133 1.408 . S
C131 C136 1.342 . S
C132 C133 1.310 . S
C132 C135 1.461 . S
C132 H152 0.932 . S
C133 C131 1.408 . S
C133 C132 1.310 . S
C133 H153 0.930 . S
C134 C135 1.474 . S
C134 C136 1.285 . S
C134 H154 0.929 . S
C135 C132 1.461 . S
C135 C134 1.474 . S
C136 C131 1.342 . S
C136 C134 1.285 . S
C136 H155 0.930 . S
C137 C140 1.424 1_545 S
C137 C142 1.245 . S
C137 C143 1.428 . S
C138 C141 1.260 . S
C138 C142 1.477 . S
C138 H156 0.932 . S
C139 C140 1.384 . S
C139 C141 1.479 1_565 S
C139 H157 0.929 . S
C140 C137 1.424 1_565 S
C140 C139 1.384 . S
C140 H158 0.928 . S
C141 C138 1.260 . S
C141 C139 1.479 1_545 S
C142 C137 1.245 . S
C142 C138 1.477 . S
C142 H159 0.932 . S
C143 U126 2.882 . S
C143 C137 1.428 . S
C143 O146 1.301 . S
C143 O147 1.282 1_545 S
O144 U126 2.441 1_565 S
O144 C130 1.249 . S
O145 U126 2.420 1_565 S
O145 C130 1.202 . S
O146 U126 2.455 . S
O146 C143 1.301 . S
O147 U126 2.449 1_565 S
O147 C143 1.282 1_565 S
H148 C121 0.931 . S
H149 C123 0.929 . S
H150 C124 0.930 . S
H151 C125 0.931 . S
H152 C132 0.932 . S
H153 C133 0.930 . S
H154 C134 0.929 . S
H155 C136 0.930 . S
H156 C138 0.932 . S
H157 C139 0.929 . S
H158 C140 0.928 . S
H159 C142 0.932 . S
C160 C161 1.264 . S
C160 C165 1.479 . S
C160 C170 1.465 . S
C161 C160 1.264 . S
C161 C163 1.339 . S
C161 H188 0.931 . S
C162 C163 1.395 . S
C162 C164 1.320 . S
C163 C161 1.339 . S
C163 C162 1.395 . S
C163 H189 0.929 . S
C164 C162 1.320 . S
C164 C165 1.405 . S
C164 H190 0.930 . S
C165 C160 1.479 . S
C165 C164 1.405 . S
C165 H191 0.931 . S
U166 O167 2.454 . S
U166 O168 2.458 . S
U166 C169 2.984 . S
U166 C170 2.847 . S
U166 C183 2.882 . S
U166 O184 2.441 . S
U166 O185 2.420 . S
U166 O186 2.455 . S
U166 O187 2.449 . S
O167 U166 2.454 . S
O167 C169 1.353 . S
O168 U166 2.458 . S
O168 C169 1.286 . S
C169 U166 2.984 . S
C169 O167 1.353 . S
C169 O168 1.286 . S
C169 C171 1.363 . S
C170 C160 1.465 . S
C170 U166 2.847 . S
C170 O184 1.249 . S
C170 O185 1.202 . S
C171 C169 1.363 . S
C171 C173 1.408 . S
C171 C176 1.342 . S
C172 C173 1.310 . S
C172 C175 1.461 . S
C172 H192 0.932 . S
C173 C171 1.408 . S
C173 C172 1.310 . S
C173 H193 0.930 . S
C174 C175 1.474 . S
C174 C176 1.285 . S
C174 H194 0.929 . S
C175 C172 1.461 . S
C175 C174 1.474 . S
C176 C171 1.342 . S
C176 C174 1.285 . S
C176 H195 0.930 . S
C177 C180 1.424 . S
C177 C182 1.245 . S
C177 C183 1.428 . S
C178 C181 1.260 . S
C178 C182 1.477 . S
C178 H196 0.932 . S
C179 C180 1.384 . S
C179 C181 1.479 . S
C179 H197 0.929 . S
C180 C177 1.424 . S
C180 C179 1.384 . S
C180 H198 0.928 . S
C181 C178 1.260 . S
C181 C179 1.479 . S
C182 C177 1.245 . S
C182 C178 1.477 . S
C182 H199 0.932 . S
C183 U166 2.882 . S
C183 C177 1.428 . S
C183 O186 1.301 . S
C183 O187 1.282 . S
O184 U166 2.441 . S
O184 C170 1.249 . S
O185 U166 2.420 . S
O185 C170 1.202 . S
O186 U166 2.455 . S
O186 C183 1.301 . S
O187 U166 2.449 . S
O187 C183 1.282 . S
H188 C161 0.931 . S
H189 C163 0.929 . S
H190 C164 0.930 . S
H191 C165 0.931 . S
H192 C172 0.932 . S
H193 C173 0.930 . S
H194 C174 0.929 . S
H195 C176 0.930 . S
H196 C178 0.932 . S
H197 C179 0.929 . S
H198 C180 0.928 . S
H199 C182 0.932 . S
C200 C201 1.264 . S
C200 C205 1.479 . S
C200 C210 1.465 . S
C201 C200 1.264 . S
C201 C203 1.339 . S
C201 H228 0.931 . S
C202 C203 1.395 . S
C202 C204 1.320 . S
C203 C201 1.339 . S
C203 C202 1.395 . S
C203 H229 0.929 . S
C204 C202 1.320 . S
C204 C205 1.405 . S
C204 H230 0.930 . S
C205 C200 1.479 . S
C205 C204 1.405 . S
C205 H231 0.931 . S
U206 O207 2.454 . S
U206 O208 2.458 . S
U206 C209 2.984 . S
U206 C210 2.847 1_455 S
U206 C223 2.882 . S
U206 O224 2.441 1_455 S
U206 O225 2.420 1_455 S
U206 O226 2.455 . S
U206 O227 2.449 1_455 S
O207 U206 2.454 . S
O207 C209 1.353 . S
O208 U206 2.458 . S
O208 C209 1.286 . S
C209 U206 2.984 . S
C209 O207 1.353 . S
C209 O208 1.286 . S
C209 C211 1.363 . S
C210 C200 1.465 . S
C210 U206 2.847 1_655 S
C210 O224 1.249 . S
C210 O225 1.202 . S
C211 C209 1.363 . S
C211 C213 1.408 . S
C211 C216 1.342 . S
C212 C213 1.310 . S
C212 C215 1.461 . S
C212 H232 0.932 . S
C213 C211 1.408 . S
C213 C212 1.310 . S
C213 H233 0.930 . S
C214 C215 1.474 . S
C214 C216 1.285 . S
C214 H234 0.929 . S
C215 C212 1.461 . S
C215 C214 1.474 . S
C216 C211 1.342 . S
C216 C214 1.285 . S
C216 H235 0.930 . S
C217 C220 1.424 1_455 S
C217 C222 1.245 . S
C217 C223 1.428 . S
C218 C221 1.260 . S
C218 C222 1.477 . S
C218 H236 0.932 . S
C219 C220 1.384 . S
C219 C221 1.479 1_655 S
C219 H237 0.929 . S
C220 C217 1.424 1_655 S
C220 C219 1.384 . S
C220 H238 0.928 . S
C221 C218 1.260 . S
C221 C219 1.479 1_455 S
C222 C217 1.245 . S
C222 C218 1.477 . S
C222 H239 0.932 . S
C223 U206 2.882 . S
C223 C217 1.428 . S
C223 O226 1.301 . S
C223 O227 1.282 1_455 S
O224 U206 2.441 1_655 S
O224 C210 1.249 . S
O225 U206 2.420 1_655 S
O225 C210 1.202 . S
O226 U206 2.455 . S
O226 C223 1.301 . S
O227 U206 2.449 1_655 S
O227 C223 1.282 1_655 S
H228 C201 0.931 . S
H229 C203 0.929 . S
H230 C204 0.930 . S
H231 C205 0.931 . S
H232 C212 0.932 . S
H233 C213 0.930 . S
H234 C214 0.929 . S
H235 C216 0.930 . S
H236 C218 0.932 . S
H237 C219 0.929 . S
H238 C220 0.928 . S
H239 C222 0.932 . S
C240 C241 1.386 . S
C240 C242 1.383 . S
C240 H256 0.951 . S
C241 C240 1.386 . S
C241 C245 1.383 1_455 S
C242 C240 1.383 . S
C242 C243 1.402 . S
C242 H257 0.951 . S
C243 C242 1.402 . S
C243 C244 1.375 1_455 S
C243 C246 1.481 . S
C244 C243 1.375 1_655 S
C244 C245 1.367 . S
C244 H258 0.951 . S
C245 C241 1.383 1_655 S
C245 C244 1.367 . S
C245 H259 0.950 . S
C246 C243 1.481 . S
C246 C247 1.297 . S
C246 H260 0.950 1_455 S
C247 C246 1.297 . S
C247 C248 1.479 . S
C247 H261 0.950 . S
C248 C247 1.479 . S
C248 C249 1.375 . S
C248 C254 1.404 1_455 S
C249 C248 1.375 . S
C249 C250 1.369 . S
C249 H262 0.950 . S
C250 C249 1.369 . S
C250 C251 1.392 . S
C250 H263 0.951 . S
C251 C250 1.392 . S
C251 C253 1.384 1_455 S
H252 C254 0.949 . S
C253 C251 1.384 1_655 S
C253 C254 1.385 . S
C253 H255 0.950 . S
C254 C248 1.404 1_655 S
C254 H252 0.949 . S
C254 C253 1.385 . S
H255 C253 0.950 . S
H256 C240 0.951 . S
H257 C242 0.951 . S
H258 C244 0.951 . S
H259 C245 0.950 . S
H260 C246 0.950 1_655 S
H261 C247 0.950 . S
H262 C249 0.950 . S
H263 C250 0.951 . S
C264 C265 1.386 . S
C264 C266 1.383 . S
C264 H280 0.951 1_545 S
C265 C264 1.386 . S
C265 C269 1.383 . S
C266 C264 1.383 . S
C266 C267 1.402 . S
C266 H281 0.951 1_545 S
C267 C266 1.402 . S
C267 C268 1.375 . S
C267 C270 1.481 . S
C268 C267 1.375 . S
C268 C269 1.367 . S
C268 H282 0.951 . S
C269 C265 1.383 . S
C269 C268 1.367 . S
C269 H283 0.950 . S
C270 C267 1.481 . S
C270 C271 1.297 . S
C270 H284 0.950 . S
C271 C270 1.297 . S
C271 C272 1.479 . S
C271 H285 0.950 . S
C272 C271 1.479 . S
C272 C273 1.375 . S
C272 C278 1.404 . S
C273 C272 1.375 . S
C273 C274 1.369 . S
C273 H286 0.950 1_545 S
C274 C273 1.369 . S
C274 C275 1.392 . S
C274 H287 0.951 1_545 S
C275 C274 1.392 . S
C275 C277 1.384 . S
H276 C278 0.949 . S
C277 C275 1.384 . S
C277 C278 1.385 . S
C277 H279 0.950 . S
C278 C272 1.404 . S
C278 H276 0.949 . S
C278 C277 1.385 . S
H279 C277 0.950 . S
H280 C264 0.951 1_565 S
H281 C266 0.951 1_565 S
H282 C268 0.951 . S
H283 C269 0.950 . S
H284 C270 0.950 . S
H285 C271 0.950 . S
H286 C273 0.950 1_565 S
H287 C274 0.951 1_565 S
C288 C289 1.386 . S
C288 C290 1.383 . S
C288 H304 0.951 . S
C289 C288 1.386 . S
C289 C293 1.383 . S
C290 C288 1.383 . S
C290 C291 1.402 . S
C290 H305 0.951 . S
C291 C290 1.402 . S
C291 C292 1.375 . S
C291 C294 1.481 . S
C292 C291 1.375 . S
C292 C293 1.367 . S
C292 H306 0.951 . S
C293 C289 1.383 . S
C293 C292 1.367 . S
C293 H307 0.950 . S
C294 C291 1.481 . S
C294 C295 1.297 . S
C294 H308 0.950 . S
C295 C294 1.297 . S
C295 C296 1.479 . S
C295 H309 0.950 . S
C296 C295 1.479 . S
C296 C297 1.375 . S
C296 C302 1.404 . S
C297 C296 1.375 . S
C297 C298 1.369 . S
C297 H310 0.950 . S
C298 C297 1.369 . S
C298 C299 1.392 . S
C298 H311 0.951 . S
C299 C298 1.392 . S
C299 C301 1.384 . S
H300 C302 0.949 . S
C301 C299 1.384 . S
C301 C302 1.385 . S
C301 H303 0.950 . S
C302 C296 1.404 . S
C302 H300 0.949 . S
C302 C301 1.385 . S
H303 C301 0.950 . S
H304 C288 0.951 . S
H305 C290 0.951 . S
H306 C292 0.951 . S
H307 C293 0.950 . S
H308 C294 0.950 . S
H309 C295 0.950 . S
H310 C297 0.950 . S
H311 C298 0.951 . S
C312 C313 1.386 . S
C312 C314 1.383 . S
C312 H328 0.951 . S
C313 C312 1.386 . S
C313 C317 1.383 . S
C314 C312 1.383 . S
C314 C315 1.402 . S
C314 H329 0.951 . S
C315 C314 1.402 . S
C315 C316 1.375 . S
C315 C318 1.481 1_554 S
C316 C315 1.375 . S
C316 C317 1.367 . S
C316 H330 0.951 1_554 S
C317 C313 1.383 . S
C317 C316 1.367 . S
C317 H331 0.950 . S
C318 C315 1.481 1_556 S
C318 C319 1.297 . S
C318 H332 0.950 . S
C319 C318 1.297 . S
C319 C320 1.479 . S
C319 H333 0.902 1_556 S
C320 C319 1.479 . S
C320 C321 1.375 . S
C320 C326 1.404 . S
C321 C320 1.375 . S
C321 C322 1.369 . S
C321 H334 0.950 . S
C322 C321 1.369 . S
C322 C323 1.392 . S
C322 H335 0.951 . S
C323 C322 1.392 . S
C323 C325 1.384 . S
H324 C326 0.949 . S
C325 C323 1.384 . S
C325 C326 1.385 . S
C325 H327 0.950 . S
C326 C320 1.404 . S
C326 H324 0.949 . S
C326 C325 1.385 . S
H327 C325 0.950 . S
H328 C312 0.951 . S
H329 C314 0.951 . S
H330 C316 0.951 1_556 S
H331 C317 0.950 . S
H332 C318 0.950 . S
H333 C319 0.902 1_554 S
H334 C321 0.950 . S
H335 C322 0.951 . S
C336 C337 1.386 . S
C336 C338 1.383 . S
C336 H352 0.951 . S
C337 C336 1.386 . S
C337 C341 1.383 . S
C338 C336 1.383 . S
C338 C339 1.402 . S
C338 H353 0.951 . S
C339 C338 1.402 . S
C339 C340 1.375 . S
C339 C342 1.481 . S
C340 C339 1.375 . S
C340 C341 1.367 . S
C340 H354 0.951 . S
C341 C337 1.383 . S
C341 C340 1.367 . S
C341 H355 0.950 . S
C342 C339 1.481 . S
C342 C343 1.297 . S
C342 H356 0.950 . S
C343 C342 1.297 . S
C343 C344 1.479 . S
C343 H357 0.950 . S
C344 C343 1.479 . S
C344 C345 1.375 . S
C344 C350 1.404 . S
C345 C344 1.375 . S
C345 C346 1.369 . S
C345 H358 0.950 . S
C346 C345 1.369 . S
C346 C347 1.392 . S
C346 H359 0.951 . S
C347 C346 1.392 . S
C347 C349 1.384 . S
H348 C350 0.949 . S
C349 C347 1.384 . S
C349 C350 1.385 . S
C349 H351 0.950 . S
C350 C344 1.404 . S
C350 H348 0.949 . S
C350 C349 1.385 . S
H351 C349 0.950 . S
H352 C336 0.951 . S
H353 C338 0.951 . S
H354 C340 0.951 . S
H355 C341 0.950 . S
H356 C342 0.950 . S
H357 C343 0.950 . S
H358 C345 0.950 . S
H359 C346 0.951 . S
C360 C361 1.386 . S
C360 C362 1.383 . S
C360 H376 0.951 . S
C361 C360 1.386 . S
C361 C365 1.383 . S
C362 C360 1.383 . S
C362 C363 1.402 . S
C362 H377 0.951 . S
C363 C362 1.402 . S
C363 C364 1.375 . S
C363 C366 1.481 . S
C364 C363 1.375 . S
C364 C365 1.367 . S
C364 H378 0.951 . S
C365 C361 1.383 . S
C365 C364 1.367 . S
C365 H379 0.950 . S
C366 C363 1.481 . S
C366 C367 1.297 . S
C366 H380 0.950 . S
C367 C366 1.297 . S
C367 C368 1.479 . S
C367 H381 0.950 . S
C368 C367 1.479 . S
C368 C369 1.375 . S
C368 C374 1.404 . S
C369 C368 1.375 . S
C369 C370 1.369 . S
C369 H382 0.950 . S
C370 C369 1.369 . S
C370 C371 1.392 . S
C370 H383 0.951 . S
C371 C370 1.392 . S
C371 C373 1.384 . S
H372 C374 0.949 . S
C373 C371 1.384 . S
C373 C374 1.385 . S
C373 H375 0.950 . S
C374 C368 1.404 . S
C374 H372 0.949 . S
C374 C373 1.385 . S
H375 C373 0.950 . S
H376 C360 0.951 . S
H377 C362 0.951 . S
H378 C364 0.951 . S
H379 C365 0.950 . S
H380 C366 0.950 . S
H381 C367 0.950 . S
H382 C369 0.950 . S
H383 C370 0.951 . S
C384 C385 1.386 . S
C384 C386 1.383 . S
C384 H400 0.951 . S
C385 C384 1.386 . S
C385 C389 1.383 . S
C386 C384 1.383 . S
C386 C387 1.402 . S
C386 H401 0.951 . S
C387 C386 1.402 . S
C387 C388 1.375 . S
C387 C390 1.481 . S
C388 C387 1.375 . S
C388 C389 1.367 . S
C388 H402 0.951 . S
C389 C385 1.383 . S
C389 C388 1.367 . S
C389 H403 0.950 . S
C390 C387 1.481 . S
C390 C391 1.297 . S
C390 H404 0.950 . S
C391 C390 1.297 . S
C391 C392 1.479 1_554 S
C391 H405 0.950 . S
C392 C391 1.479 1_556 S
C392 C393 1.375 . S
C392 C398 1.404 . S
C393 C392 1.375 . S
C393 C394 1.369 . S
C393 H406 0.950 . S
C394 C393 1.369 . S
C394 C395 1.392 . S
C394 H407 0.951 . S
C395 C394 1.392 . S
C395 C397 1.384 . S
H396 C398 0.987 . S
C397 C395 1.384 . S
C397 C398 1.385 . S
C397 H399 0.950 . S
C398 C392 1.404 . S
C398 H396 0.987 . S
C398 C397 1.385 . S
H399 C397 0.950 . S
H400 C384 0.951 . S
H401 C386 0.951 . S
H402 C388 0.951 . S
H403 C389 0.950 . S
H404 C390 0.950 . S
H405 C391 0.950 . S
H406 C393 0.950 . S
H407 C394 0.951 . S
C408 C409 1.386 . S
C408 C410 1.383 . S
C408 H424 0.951 . S
C409 C408 1.386 . S
C409 C413 1.383 . S
C410 C408 1.383 . S
C410 C411 1.402 . S
C410 H425 0.951 . S
C411 C410 1.402 . S
C411 C412 1.375 . S
C411 C414 1.481 . S
C412 C411 1.375 . S
C412 C413 1.367 . S
C412 H426 0.951 . S
C413 C409 1.383 . S
C413 C412 1.367 . S
C413 H427 0.950 . S
C414 C411 1.481 . S
C414 C415 1.297 . S
C414 H428 0.950 . S
C415 C414 1.297 . S
C415 C416 1.479 . S
C415 H429 0.950 . S
C416 C415 1.479 . S
C416 C417 1.375 . S
C416 C422 1.404 . S
C417 C416 1.375 . S
C417 C418 1.369 . S
C417 H430 0.950 . S
C418 C417 1.369 . S
C418 C419 1.392 . S
C418 H431 0.951 . S
C419 C418 1.392 . S
C419 C421 1.384 . S
H420 C422 0.949 . S
C421 C419 1.384 . S
C421 C422 1.385 . S
C421 H423 0.950 . S
C422 C416 1.404 . S
C422 H420 0.949 . S
C422 C421 1.385 . S
H423 C421 0.950 . S
H424 C408 0.951 . S
H425 C410 0.951 . S
H426 C412 0.951 . S
H427 C413 0.950 . S
H428 C414 0.950 . S
H429 C415 0.950 . S
H430 C417 0.950 . S
H431 C418 0.951 . S
C432 C433 1.386 . S
C432 C434 1.383 . S
C432 H448 0.951 . S
C433 C432 1.386 . S
C433 C437 1.383 . S
C434 C432 1.383 . S
C434 C435 1.402 . S
C434 H449 0.951 . S
C435 C434 1.402 . S
C435 C436 1.375 . S
C435 C438 1.481 . S
C436 C435 1.375 . S
C436 C437 1.367 . S
C436 H450 0.951 . S
C437 C433 1.383 . S
C437 C436 1.367 . S
C437 H451 0.950 . S
C438 C435 1.481 . S
C438 C439 1.297 . S
C438 H452 0.950 . S
C439 C438 1.297 . S
C439 C440 1.479 . S
C439 H453 0.950 . S
C440 C439 1.479 . S
C440 C441 1.375 . S
C440 C446 1.404 . S
C441 C440 1.375 . S
C441 C442 1.369 . S
C441 H454 0.950 . S
C442 C441 1.369 . S
C442 C443 1.392 . S
C442 H455 0.951 . S
C443 C442 1.392 . S
C443 C445 1.384 . S
H444 C446 0.949 . S
C445 C443 1.384 . S
C445 C446 1.385 . S
C445 H447 0.950 . S
C446 C440 1.404 . S
C446 H444 0.949 . S
C446 C445 1.385 . S
H447 C445 0.950 . S
H448 C432 0.951 . S
H449 C434 0.951 . S
H450 C436 0.951 . S
H451 C437 0.950 . S
H452 C438 0.950 . S
H453 C439 0.950 . S
H454 C441 0.950 . S
H455 C442 0.951 . S
C241 C21 1.487 . S
C251 C221 1.466 . S
C265 C141 1.494 . S
C275 C61 1.453 . S
C289 C181 1.472 . S
C299 C101 1.490 . S
C313 C15 1.496 . S
C323 C175 1.488 . S
C337 C42 1.475 . S
C347 C202 1.465 . S
C361 C122 1.472 . S
C371 C82 1.500 . S
C385 C2 1.497 . S
C395 C162 1.458 . S
C409 C55 1.495 . S
C419 C215 1.490 . S
C433 C135 1.498 . S
C443 C95 1.489 . S
