# Generated by pormake.
# Topology uon, (4)-cn, num edge types: 1
# Building blocks:
#     Node 0, Type 0, BuildingBlock: MUDLON_clean_sbu_0, # of connection points: 4
#     Node 1, Type 0, BuildingBlock: MUDLON_clean_sbu_0, # of connection points: 4
#     Node 2, Type 0, BuildingBlock: MUDLON_clean_sbu_0, # of connection points: 4
#     Node 3, Type 0, BuildingBlock: MUDLON_clean_sbu_0, # of connection points: 4
#     Node 4, Type 0, BuildingBlock: MUDLON_clean_sbu_0, # of connection points: 4
#     Node 5, Type 0, BuildingBlock: MUDLON_clean_sbu_0, # of connection points: 4
#     Edge 6, Type (0, 0), BuildingBlock: CIFDUS_clean_linker_0, # of connection points: 2
#     Edge 7, Type (0, 0), BuildingBlock: CIFDUS_clean_linker_0, # of connection points: 2
#     Edge 8, Type (0, 0), BuildingBlock: CIFDUS_clean_linker_0, # of connection points: 2
#     Edge 9, Type (0, 0), BuildingBlock: CIFDUS_clean_linker_0, # of connection points: 2
#     Edge 10, Type (0, 0), BuildingBlock: CIFDUS_clean_linker_0, # of connection points: 2
#     Edge 11, Type (0, 0), BuildingBlock: CIFDUS_clean_linker_0, # of connection points: 2
#     Edge 12, Type (0, 0), BuildingBlock: CIFDUS_clean_linker_0, # of connection points: 2
#     Edge 13, Type (0, 0), BuildingBlock: CIFDUS_clean_linker_0, # of connection points: 2
#     Edge 14, Type (0, 0), BuildingBlock: CIFDUS_clean_linker_0, # of connection points: 2
#     Edge 15, Type (0, 0), BuildingBlock: CIFDUS_clean_linker_0, # of connection points: 2
#     Edge 16, Type (0, 0), BuildingBlock: CIFDUS_clean_linker_0, # of connection points: 2
#     Edge 17, Type (0, 0), BuildingBlock: CIFDUS_clean_linker_0, # of connection points: 2
# Relax obj value: 0.139
# Max RMSD: 0.112
# Mean RMSD: 0.107
data_MOF--net-uon--node1-MUDLON_clean_sbu_0--edge1-CIFDUS_clean_linker_0
_symmetry_space_group_name_H-M    P1
_symmetry_Int_Tables_number       1
_symmetry_cell_setting            triclinic
loop_
_symmetry_equiv_pos_as_xyz
'x, y, z'
_cell_length_a     32.569474
_cell_length_b     32.783802
_cell_length_c     15.180137
_cell_angle_alpha  88.582491
_cell_angle_beta   89.21821
_cell_angle_gamma 120.26669
loop_
_atom_site_label
_atom_site_type_symbol
_atom_site_fract_x
_atom_site_fract_y
_atom_site_fract_z
_atom_type_partial_charge
Mg0 Mg 0.26716 0.48411 0.06189 0.0
C1 C 0.35972 0.55843 0.98507 0.0
O2 O 0.36825 0.5244 0.00656 0.0
C3 C 0.16278 0.41374 0.06994 0.0
O4 O 0.18043 0.38583 0.08213 0.0
C5 C 0.29045 0.41867 0.96516 0.0
O6 O 0.2835 0.44025 0.89789 0.0
O7 O 0.28567 0.42964 0.04295 0.0
O8 O 0.31709 0.54996 -0.00865 0.0
O9 O 0.27777 0.51014 0.19357 0.0
C10 C 0.24676 0.48965 0.25539 0.0
O11 O 0.213 0.44555 0.24725 0.0
O12 O 0.19119 0.45714 0.04927 0.0
Mg13 Mg 0.80539 0.2221 0.3853 0.0
C14 C 0.77231 0.27569 0.26929 0.0
O15 O 0.81749 0.29843 0.24496 0.0
C16 C 0.79112 0.13959 0.49432 0.0
O17 O 0.82788 0.1754 0.52943 0.0
C18 C 0.90627 0.29219 0.30948 0.0
O19 O 0.89889 0.32386 0.34633 0.0
O20 O 0.87428 0.24871 0.31688 0.0
O21 O 0.75621 0.2375 0.31545 0.0
O22 O 0.80802 0.25416 0.50992 0.0
C23 C 0.796 0.28553 0.51072 0.0
O24 O 0.80989 0.31622 0.44395 0.0
O25 O 0.77374 0.14756 0.42577 0.0
Mg26 Mg 0.60111 0.817 0.88317 0.0
C27 C 0.523 0.82613 0.82911 0.0
O28 O 0.55719 0.86796 0.85125 0.0
C29 C 0.6688 0.77886 0.89053 0.0
O30 O 0.69825 0.8215 0.85752 0.0
C31 C 0.68387 0.91372 0.82584 0.0
O32 O 0.69288 0.91399 0.91001 0.0
O33 O 0.64893 0.87697 0.79569 0.0
O34 O 0.53057 0.79169 0.8328 0.0
O35 O 0.59669 0.84303 0.01147 0.0
C36 C 0.55908 0.82413 0.0605 0.0
O37 O 0.55813 0.84532 0.13215 0.0
O38 O 0.62519 0.76621 0.90248 0.0
Mg39 Mg 0.74241 0.53205 0.26482 0.0
C40 C 0.72751 0.48179 0.09144 0.0
O41 O 0.74022 0.52368 0.0565 0.0
C42 C 0.83175 0.6156 0.33196 0.0
O43 O 0.80543 0.63527 0.3229 0.0
C44 C 0.74158 0.60958 0.14703 0.0
O45 O 0.78491 0.61956 0.12505 0.0
O46 O 0.71743 0.57643 0.204 0.0
O47 O 0.7299 0.47727 0.1741 0.0
O48 O 0.69443 0.49281 0.376 0.0
C49 C 0.68201 0.45043 0.39951 0.0
O50 O 0.64886 0.42874 0.46163 0.0
O51 O 0.8151 0.57299 0.3103 0.0
Mg52 Mg 0.1857 0.74495 0.5803 0.0
C53 C 0.19704 0.67179 0.50297 0.0
O54 O 0.17366 0.65347 0.57824 0.0
C55 C 0.22338 0.84421 0.63068 0.0
O56 O 0.21003 0.82081 0.70702 0.0
C57 C 0.08898 0.72552 0.53819 0.0
O58 O 0.11613 0.76852 0.50448 0.0
O59 O 0.10828 0.7064 0.5821 0.0
O60 O 0.20683 0.71331 0.47927 0.0
O61 O 0.22502 0.73796 0.68879 0.0
C62 C 0.2687 0.76463 0.66642 0.0
O63 O 0.27939 0.78917 0.59141 0.0
O64 O 0.21538 0.82103 0.56071 0.0
Mg65 Mg 0.45493 0.21949 0.75307 0.0
C66 C 0.53504 0.2189 0.67187 0.0
O67 O 0.51974 0.18649 0.73597 0.0
C68 C 0.3952 0.25616 0.81609 0.0
O69 O 0.39981 0.23395 0.8851 0.0
C70 C 0.39118 0.12127 0.69714 0.0
O71 O 0.40208 0.14547 0.62171 0.0
O72 O 0.40883 0.1433 0.76724 0.0
O73 O 0.51005 0.23757 0.6529 0.0
O74 O 0.5016 0.25464 0.85954 0.0
C75 C 0.52191 0.2418 0.91535 0.0
O76 O 0.50993 0.19718 0.92462 0.0
O77 O 0.41398 0.25506 0.74273 0.0
H78 H 0.31517 0.39636 0.8089 0.0
H79 H 0.30084 0.36279 0.08857 0.0
H80 H 0.32952 0.30786 0.06582 0.0
H81 H 0.36142 0.27172 0.96803 0.0
H82 H 0.3783 0.30646 0.68879 0.0
H83 H 0.34547 0.35836 0.70994 0.0
C84 C 0.31806 0.37685 0.86487 0.0
C85 C 0.30598 0.38387 0.95042 0.0
C86 C 0.33506 0.34558 0.85144 0.0
C87 C 0.31005 0.35829 0.0221 0.0
C88 C 0.32643 0.32682 0.00916 0.0
C89 C 0.35768 0.29034 0.91148 0.0
C90 C 0.37242 0.28521 0.82689 0.0
C91 C 0.33945 0.32053 0.9243 0.0
C92 C 0.3673 0.30976 0.75462 0.0
C93 C 0.34861 0.33952 0.76672 0.0
H94 H 0.97064 0.38037 0.24412 0.0
H95 H 0.94277 0.23695 0.26069 0.0
H96 H 0.01792 0.26129 0.18179 0.0
H97 H 0.09332 0.32386 0.1146 0.0
H98 H 0.12096 0.46719 0.09606 0.0
H99 H 0.04384 0.44212 0.16766 0.0
C100 C 0.98098 0.35442 0.23039 0.0
C101 C 0.95128 0.30697 0.25913 0.0
C102 C 0.0241 0.36857 0.18408 0.0
C103 C 0.96495 0.27371 0.23962 0.0
C104 C 1.00796 0.2876 0.19444 0.0
C105 C 0.08227 0.34957 0.12509 0.0
C106 C 0.11311 0.3974 0.1001 0.0
C107 C 0.03801 0.335 0.16707 0.0
C108 C 0.09799 0.43012 0.11413 0.0
C109 C 0.05397 0.41587 0.15576 0.0
H110 H 0.81681 0.11552 0.64746 0.0
H111 H 0.7132 0.05709 0.44434 0.0
H112 H 0.67238 0.98101 0.52641 0.0
H113 H 0.6638 0.93242 0.66018 0.0
H114 H 0.76665 0.99293 0.86428 0.0
H115 H 0.81005 0.06673 0.77723 0.0
C116 C 0.78551 0.08612 0.6205 0.0
C117 C 0.7681 0.09219 0.53976 0.0
C118 C 0.76191 0.0428 0.66854 0.0
C119 C 0.72742 0.05353 0.50627 0.0
C120 C 0.70399 0.01001 0.55331 0.0
C121 C 0.69598 0.96158 0.68521 0.0
C122 C 0.71182 0.95705 0.76894 0.0
C123 C 0.72057 1.0044 0.63515 0.0
C124 C 0.75347 0.99537 0.8004 0.0
C125 C 0.77837 0.03768 0.75062 0.0
H126 H 0.78356 0.68263 0.02523 0.0
H127 H 0.65151 0.59453 0.171 0.0
H128 H 0.61634 0.63684 0.10007 0.0
H129 H 0.6237 0.70052 0.00012 0.0
H130 H 0.75646 0.78994 0.85745 0.0
H131 H 0.79036 0.7451 0.92289 0.0
C132 C 0.74707 0.6726 0.04153 0.0
C133 C 0.72038 0.63552 0.1038 0.0
C134 C 0.72703 0.69723 0.0007 0.0
C135 C 0.67306 0.62304 0.12374 0.0
C136 C 0.65282 0.64717 0.08301 0.0
C137 C 0.65988 0.70989 0.98254 0.0
C138 C 0.68746 0.74859 0.92385 0.0
C139 C 0.67952 0.68448 0.02172 0.0
C140 C 0.73441 0.7604 0.90247 0.0
C141 C 0.75392 0.73484 0.94008 0.0
H142 H 0.88215 0.58088 0.41468 0.0
H143 H 0.88853 0.71109 0.33357 0.0
H144 H 0.96758 0.7565 0.3942 0.0
H145 H 0.03573 0.75935 0.46657 0.0
H146 H 0.02895 0.62963 0.55287 0.0
H147 H 0.94896 0.58397 0.49536 0.0
C148 C 0.90096 0.6192 0.41013 0.0
C149 C 0.8797 0.64259 0.3689 0.0
C150 C 0.94614 0.64517 0.44671 0.0
C151 C 0.90413 0.69224 0.36478 0.0
C152 C 0.94934 0.71824 0.39949 0.0
C153 C 0.01664 0.72108 0.47352 0.0
C154 C 0.03844 0.69798 0.51364 0.0
C155 C 0.97075 0.6951 0.44029 0.0
C156 C 1.01299 0.64837 0.52262 0.0
C157 C 0.96734 0.6222 0.48918 0.0
H158 H 0.35161 0.06464 0.55822 0.0
H159 H 0.35784 0.06096 0.84208 0.0
H160 H 0.30488 0.97535 0.84624 0.0
H161 H 0.25823 0.90153 0.76947 0.0
H162 H 0.25323 0.90463 0.48547 0.0
H163 H 0.3041 0.99067 0.48137 0.0
C164 C 0.34136 0.04519 0.6211 0.0
C165 C 0.35881 0.06931 0.69976 0.0
C166 C 0.31104 0.99589 0.62301 0.0
C167 C 0.3451 0.04339 0.78053 0.0
C168 C 0.31474 0.9944 0.78299 0.0
C169 C 0.26792 0.92097 0.70657 0.0
C170 C 0.2518 0.89658 0.62785 0.0
C171 C 0.29764 0.9703 0.70465 0.0
C172 C 0.26506 0.92245 0.54705 0.0
C173 C 0.29423 0.97165 0.54465 0.0
H174 H 0.17463 0.58084 0.53141 0.0
H175 H 0.25696 0.70293 0.3575 0.0
H176 H 0.28454 0.65852 0.2724 0.0
H177 H 0.28181 0.58417 0.24309 0.0
H178 H 0.19541 0.46055 0.411 0.0
H179 H 0.17375 0.50697 0.50452 0.0
C180 C 0.1987 0.59784 0.47499 0.0
C181 C 0.21347 0.64506 0.45045 0.0
C182 C 0.21401 0.57199 0.42601 0.0
C183 C 0.2447 0.66652 0.37728 0.0
C184 C 0.26066 0.64122 0.32889 0.0
C185 C 0.25898 0.56749 0.30113 0.0
C186 C 0.2404 0.51896 0.32042 0.0
C187 C 0.24522 0.59386 0.35229 0.0
C188 C 0.21029 0.49785 0.39505 0.0
C189 C 0.19765 0.52429 0.44807 0.0
H190 H 0.59709 0.18926 0.70959 0.0
H191 H 0.5835 0.2932 0.55251 0.0
H192 H 0.66594 0.32763 0.49962 0.0
H193 H 0.73956 0.3243 0.48793 0.0
H194 H 0.75251 0.2201 0.64583 0.0
H195 H 0.6725 0.18991 0.70791 0.0
C196 C 0.61185 0.21912 0.6628 0.0
C197 C 0.58373 0.23802 0.63389 0.0
C198 C 0.6591 0.23862 0.63209 0.0
C199 C 0.60391 0.27727 0.57454 0.0
C200 C 0.65108 0.29703 0.54413 0.0
C201 C 0.72531 0.29552 0.53707 0.0
C202 C 0.75204 0.27426 0.56144 0.0
C203 C 0.6788 0.27759 0.57136 0.0
C204 C 0.73279 0.23704 0.62544 0.0
C205 C 0.68683 0.21946 0.6605 0.0
H206 H 0.55649 0.74578 0.00235 0.0
H207 H 0.46631 0.80119 0.07356 0.0
H208 H 0.39558 0.72496 0.04525 0.0
H209 H 0.35977 0.64077 0.01047 0.0
H210 H 0.45133 0.58609 0.94054 0.0
H211 H 0.5212 0.66433 0.95365 0.0
C212 C 0.52146 0.74155 0.00857 0.0
C213 C 0.51661 0.77916 0.038 0.0
C214 C 0.48121 0.69776 -0.00793 0.0
C215 C 0.47084 0.77264 0.05059 0.0
C216 C 0.43046 0.72915 0.03416 0.0
C217 C 0.39493 0.64622 -0.00399 0.0
C218 C 0.40029 0.60752 0.97491 0.0
C219 C 0.4352 0.6912 0.00599 0.0
C220 C 0.44619 0.61518 0.95725 0.0
C221 C 0.48623 0.65987 0.96525 0.0
H222 H 0.63932 0.35786 0.35963 0.0
H223 H 0.7753 0.48633 0.35523 0.0
H224 H 0.81379 0.44467 0.29749 0.0
H225 H 0.81002 0.37052 0.26308 0.0
H226 H 0.67612 0.23947 0.28778 0.0
H227 H 0.63537 0.28303 0.32213 0.0
C228 C 0.67731 0.37671 0.34503 0.0
C229 C 0.70438 0.42545 0.35934 0.0
C230 C 0.69945 0.35186 0.31576 0.0
C231 C 0.7536 0.44931 0.34175 0.0
C232 C 0.77562 0.42531 0.30965 0.0
C233 C 0.77171 0.35146 0.27367 0.0
C234 C 0.74608 0.30177 0.27206 0.0
C235 C 0.74902 0.37646 0.29778 0.0
C236 C 0.69661 0.2777 0.28799 0.0
C237 C 0.67338 0.30258 0.30827 0.0
H238 H 0.35201 0.84256 0.68615 0.0
H239 H 0.27378 0.69427 0.75987 0.0
H240 H 0.34653 0.6996 0.81796 0.0
H241 H 0.43446 0.74621 0.83519 0.0
H242 H 0.50965 0.89495 0.76099 0.0
H243 H 0.43614 0.88951 0.71407 0.0
C244 C 0.35074 0.81152 0.71618 0.0
C245 C 0.30801 0.76813 0.71861 0.0
C246 C 0.39237 0.81481 0.74754 0.0
C247 C 0.30643 0.72818 0.75821 0.0
C248 C 0.34808 0.73115 0.79024 0.0
C249 C 0.43451 0.77726 0.80873 0.0
C250 C 0.47749 0.82081 0.80067 0.0
C251 C 0.39161 0.77412 0.783 0.0
C252 C 0.47711 0.861 0.76756 0.0
C253 C 0.43508 0.85802 0.74087 0.0
H254 H 0.5831 0.32786 0.84548 0.0
H255 H 0.5563 0.23897 0.07839 0.0
H256 H 0.62309 0.30491 0.15031 0.0
H257 H 0.6833 0.38978 0.1508 0.0
H258 H 0.70819 0.47767 0.91663 0.0
H259 H 0.64848 0.40945 0.84015 0.0
C260 C 0.5919 0.32284 0.91206 0.0
C261 C 0.5642 0.27915 0.95775 0.0
C262 C 0.63008 0.36053 0.95223 0.0
C263 C 0.57686 0.27256 0.04262 0.0
C264 C 0.61497 0.3102 0.08352 0.0
C265 C 0.6763 0.39388 0.0826 0.0
C266 C 0.69961 0.43902 0.04007 0.0
C267 C 0.64108 0.35465 0.03956 0.0
C268 C 0.69049 0.44354 0.95128 0.0
C269 C 0.65612 0.40459 0.90762 0.0
loop_
_geom_bond_atom_site_label_1
_geom_bond_atom_site_label_2
_geom_bond_distance
_geom_bond_site_symmetry_2
_ccdc_geom_bond_type
Mg0 O7 2.141 . S
Mg0 O8 2.048 . S
Mg0 O9 2.048 . S
Mg0 O12 2.141 . S
C1 O2 1.313 . S
C1 O8 1.195 . S
O2 C1 1.313 . S
C3 O4 1.245 . S
C3 O12 1.289 . S
O4 C3 1.245 . S
C5 O6 1.245 . S
C5 O7 1.289 . S
O6 C5 1.245 . S
O7 Mg0 2.141 . S
O7 C5 1.289 . S
O8 Mg0 2.048 . S
O8 C1 1.195 . S
O9 Mg0 2.048 . S
O9 C10 1.195 . S
C10 O9 1.195 . S
C10 O11 1.313 . S
O11 C10 1.313 . S
O12 Mg0 2.141 . S
O12 C3 1.289 . S
Mg13 O20 2.141 . S
Mg13 O21 2.048 . S
Mg13 O22 2.048 . S
Mg13 O25 2.141 . S
C14 O15 1.313 . S
C14 O21 1.195 . S
O15 C14 1.313 . S
C16 O17 1.245 . S
C16 O25 1.289 . S
O17 C16 1.245 . S
C18 O19 1.245 . S
C18 O20 1.289 . S
O19 C18 1.245 . S
O20 Mg13 2.141 . S
O20 C18 1.289 . S
O21 Mg13 2.048 . S
O21 C14 1.195 . S
O22 Mg13 2.048 . S
O22 C23 1.195 . S
C23 O22 1.195 . S
C23 O24 1.313 . S
O24 C23 1.313 . S
O25 Mg13 2.141 . S
O25 C16 1.289 . S
Mg26 O33 2.141 . S
Mg26 O34 2.048 . S
Mg26 O35 2.048 1_556 S
Mg26 O38 2.141 . S
C27 O28 1.313 1_556 S
C27 O34 1.195 . S
O28 C27 1.313 1_554 S
C29 O30 1.245 . S
C29 O38 1.289 1_554 S
O30 C29 1.245 . S
C31 O32 1.245 . S
C31 O33 1.289 . S
O32 C31 1.245 . S
O33 Mg26 2.141 . S
O33 C31 1.289 . S
O34 Mg26 2.048 . S
O34 C27 1.195 . S
O35 Mg26 2.048 1_554 S
O35 C36 1.195 . S
C36 O35 1.195 . S
C36 O37 1.313 . S
O37 C36 1.313 . S
O38 Mg26 2.141 . S
O38 C29 1.289 1_556 S
Mg39 O46 2.141 . S
Mg39 O47 2.048 . S
Mg39 O48 2.048 . S
Mg39 O51 2.141 1_556 S
C40 O41 1.313 . S
C40 O47 1.195 . S
O41 C40 1.313 . S
C42 O43 1.245 . S
C42 O51 1.289 . S
O43 C42 1.245 . S
C44 O45 1.245 1_556 S
C44 O46 1.289 . S
O45 C44 1.245 1_554 S
O46 Mg39 2.141 . S
O46 C44 1.289 . S
O47 Mg39 2.048 . S
O47 C40 1.195 . S
O48 Mg39 2.048 . S
O48 C49 1.195 1_556 S
C49 O48 1.195 1_554 S
C49 O50 1.313 . S
O50 C49 1.313 . S
O51 Mg39 2.141 1_554 S
O51 C42 1.289 . S
Mg52 O59 2.141 . S
Mg52 O60 2.048 . S
Mg52 O61 2.048 . S
Mg52 O64 2.141 . S
C53 O54 1.313 . S
C53 O60 1.195 . S
O54 C53 1.313 . S
C55 O56 1.245 . S
C55 O64 1.289 . S
O56 C55 1.245 . S
C57 O58 1.245 . S
C57 O59 1.289 . S
O58 C57 1.245 . S
O59 Mg52 2.141 . S
O59 C57 1.289 . S
O60 Mg52 2.048 . S
O60 C53 1.195 . S
O61 Mg52 2.048 . S
O61 C62 1.195 . S
C62 O61 1.195 . S
C62 O63 1.313 . S
O63 C62 1.313 . S
O64 Mg52 2.141 . S
O64 C55 1.289 . S
Mg65 O72 2.141 . S
Mg65 O73 2.048 . S
Mg65 O74 2.048 . S
Mg65 O77 2.141 . S
C66 O67 1.313 . S
C66 O73 1.195 . S
O67 C66 1.313 . S
C68 O69 1.245 . S
C68 O77 1.289 . S
O69 C68 1.245 . S
C70 O71 1.245 . S
C70 O72 1.289 . S
O71 C70 1.245 . S
O72 Mg65 2.141 . S
O72 C70 1.289 . S
O73 Mg65 2.048 . S
O73 C66 1.195 . S
O74 Mg65 2.048 . S
O74 C75 1.195 . S
C75 O74 1.195 . S
C75 O76 1.313 . S
O76 C75 1.313 . S
O77 Mg65 2.141 . S
O77 C68 1.289 . S
H78 C84 0.930 . S
H79 C87 0.930 . S
H80 C88 0.930 . S
H81 C89 0.930 . S
H82 C92 0.930 . S
H83 C93 0.930 . S
C84 H78 0.930 . S
C84 C85 1.355 . S
C84 C86 1.415 . S
C85 C84 1.355 . S
C85 C87 1.419 . S
C86 C84 1.415 . S
C86 C91 1.425 1_554 S
C86 C93 1.409 1_554 S
C87 H79 0.930 . S
C87 C85 1.419 . S
C87 C88 1.362 . S
C88 H80 0.930 . S
C88 C87 1.362 . S
C88 C91 1.409 1_554 S
C89 H81 0.930 . S
C89 C90 1.355 . S
C89 C91 1.415 . S
C90 C89 1.355 . S
C90 C92 1.419 . S
C91 C86 1.425 1_556 S
C91 C88 1.409 1_556 S
C91 C89 1.415 . S
C92 H82 0.930 . S
C92 C90 1.419 . S
C92 C93 1.362 . S
C93 H83 0.930 . S
C93 C86 1.409 1_556 S
C93 C92 1.362 . S
H94 C100 0.930 . S
H95 C103 0.930 . S
H96 C104 0.930 . S
H97 C105 0.930 . S
H98 C108 0.930 . S
H99 C109 0.930 . S
C100 H94 0.930 . S
C100 C101 1.355 . S
C100 C102 1.415 . S
C101 C100 1.355 . S
C101 C103 1.419 . S
C102 C100 1.415 . S
C102 C107 1.425 1_655 S
C102 C109 1.409 1_655 S
C103 H95 0.930 . S
C103 C101 1.419 . S
C103 C104 1.362 . S
C104 H96 0.930 . S
C104 C103 1.362 . S
C104 C107 1.409 1_655 S
C105 H97 0.930 . S
C105 C106 1.355 . S
C105 C107 1.415 . S
C106 C105 1.355 . S
C106 C108 1.419 . S
C107 C102 1.425 1_455 S
C107 C104 1.409 1_455 S
C107 C105 1.415 . S
C108 H98 0.930 . S
C108 C106 1.419 . S
C108 C109 1.362 . S
C109 H99 0.930 . S
C109 C102 1.409 1_455 S
C109 C108 1.362 . S
H110 C116 0.930 . S
H111 C119 0.930 . S
H112 C120 0.930 . S
H113 C121 0.930 . S
H114 C124 0.930 . S
H115 C125 0.930 . S
C116 H110 0.930 . S
C116 C117 1.355 . S
C116 C118 1.415 . S
C117 C116 1.355 . S
C117 C119 1.419 1_545 S
C118 C116 1.415 . S
C118 C123 1.425 1_545 S
C118 C125 1.409 . S
C119 H111 0.930 . S
C119 C117 1.419 1_565 S
C119 C120 1.362 . S
C120 H112 0.930 . S
C120 C119 1.362 . S
C120 C123 1.409 . S
C121 H113 0.930 . S
C121 C122 1.355 . S
C121 C123 1.415 . S
C122 C121 1.355 . S
C122 C124 1.419 1_565 S
C123 C118 1.425 1_565 S
C123 C120 1.409 . S
C123 C121 1.415 . S
C124 H114 0.930 . S
C124 C122 1.419 1_545 S
C124 C125 1.362 . S
C125 H115 0.930 . S
C125 C118 1.409 . S
C125 C124 1.362 . S
H126 C132 0.930 . S
H127 C135 0.930 . S
H128 C136 0.930 . S
H129 C137 0.930 . S
H130 C140 0.930 . S
H131 C141 0.930 . S
C132 H126 0.930 . S
C132 C133 1.355 1_554 S
C132 C134 1.415 . S
C133 C132 1.355 1_556 S
C133 C135 1.419 . S
C134 C132 1.415 . S
C134 C139 1.425 1_554 S
C134 C141 1.409 . S
C135 H127 0.930 . S
C135 C133 1.419 . S
C135 C136 1.362 . S
C136 H128 0.930 . S
C136 C135 1.362 . S
C136 C139 1.409 . S
C137 H129 0.930 . S
C137 C138 1.355 1_556 S
C137 C139 1.415 . S
C138 C137 1.355 1_554 S
C138 C140 1.419 . S
C139 C134 1.425 1_556 S
C139 C136 1.409 . S
C139 C137 1.415 . S
C140 H130 0.930 . S
C140 C138 1.419 . S
C140 C141 1.362 . S
C141 H131 0.930 . S
C141 C134 1.409 . S
C141 C140 1.362 . S
H142 C148 0.930 1_455 S
H143 C151 0.930 . S
H144 C152 0.930 . S
H145 C153 0.930 1_655 S
H146 C156 0.930 . S
H147 C157 0.930 . S
C148 H142 0.930 1_655 S
C148 C149 1.355 . S
C148 C150 1.415 1_655 S
C149 C148 1.355 . S
C149 C151 1.419 . S
C150 C148 1.415 1_455 S
C150 C155 1.425 1_455 S
C150 C157 1.409 . S
C151 H143 0.930 . S
C151 C149 1.419 . S
C151 C152 1.362 . S
C152 H144 0.930 . S
C152 C151 1.362 . S
C152 C155 1.409 . S
C153 H145 0.930 1_455 S
C153 C154 1.355 . S
C153 C155 1.415 1_455 S
C154 C153 1.355 . S
C154 C156 1.419 . S
C155 C150 1.425 1_655 S
C155 C152 1.409 . S
C155 C153 1.415 1_655 S
C156 H146 0.930 . S
C156 C154 1.419 . S
C156 C157 1.362 . S
C157 H147 0.930 . S
C157 C150 1.409 . S
C157 C156 1.362 . S
H158 C164 0.930 . S
H159 C167 0.930 . S
H160 C168 0.930 . S
H161 C169 0.930 . S
H162 C172 0.930 . S
H163 C173 0.930 . S
C164 H158 0.930 . S
C164 C165 1.355 . S
C164 C166 1.415 . S
C165 C164 1.355 . S
C165 C167 1.419 . S
C166 C164 1.415 . S
C166 C171 1.424 1_545 S
C166 C173 1.409 1_545 S
C167 H159 0.930 . S
C167 C165 1.419 . S
C167 C168 1.362 . S
C168 H160 0.930 . S
C168 C167 1.362 . S
C168 C171 1.395 1_545 S
C169 H161 0.930 . S
C169 C170 1.355 . S
C169 C171 1.430 . S
C170 C169 1.355 . S
C170 C172 1.419 . S
C171 C166 1.424 1_565 S
C171 C168 1.395 1_565 S
C171 C169 1.430 . S
C172 H162 0.930 . S
C172 C170 1.419 . S
C172 C173 1.362 . S
C173 H163 0.930 . S
C173 C166 1.409 1_565 S
C173 C172 1.362 . S
H174 C180 0.930 . S
H175 C183 0.930 . S
H176 C184 0.930 . S
H177 C185 0.930 . S
H178 C188 0.930 . S
H179 C189 0.930 . S
C180 H174 0.930 . S
C180 C181 1.355 . S
C180 C182 1.415 . S
C181 C180 1.355 . S
C181 C183 1.419 . S
C182 C180 1.415 . S
C182 C187 1.425 . S
C182 C189 1.409 . S
C183 H175 0.930 . S
C183 C181 1.419 . S
C183 C184 1.362 . S
C184 H176 0.930 . S
C184 C183 1.362 . S
C184 C187 1.409 . S
C185 H177 0.930 . S
C185 C186 1.355 . S
C185 C187 1.415 . S
C186 C185 1.355 . S
C186 C188 1.419 . S
C187 C182 1.425 . S
C187 C184 1.409 . S
C187 C185 1.415 . S
C188 H178 0.930 . S
C188 C186 1.419 . S
C188 C189 1.362 . S
C189 H179 0.930 . S
C189 C182 1.409 . S
C189 C188 1.362 . S
H190 C196 0.930 . S
H191 C199 0.930 . S
H192 C200 0.930 . S
H193 C201 0.930 . S
H194 C204 0.930 . S
H195 C205 0.930 . S
C196 H190 0.930 . S
C196 C197 1.355 . S
C196 C198 1.415 . S
C197 C196 1.355 . S
C197 C199 1.419 . S
C198 C196 1.415 . S
C198 C203 1.425 . S
C198 C205 1.409 . S
C199 H191 0.930 . S
C199 C197 1.419 . S
C199 C200 1.362 . S
C200 H192 0.930 . S
C200 C199 1.362 . S
C200 C203 1.409 . S
C201 H193 0.930 . S
C201 C202 1.355 . S
C201 C203 1.415 . S
C202 C201 1.355 . S
C202 C204 1.419 . S
C203 C198 1.425 . S
C203 C200 1.409 . S
C203 C201 1.415 . S
C204 H194 0.930 . S
C204 C202 1.419 . S
C204 C205 1.362 . S
C205 H195 0.930 . S
C205 C198 1.409 . S
C205 C204 1.362 . S
H206 C212 0.930 . S
H207 C215 0.930 . S
H208 C216 0.930 . S
H209 C217 0.930 . S
H210 C220 0.930 . S
H211 C221 0.930 . S
C212 H206 0.930 . S
C212 C213 1.355 . S
C212 C214 1.415 . S
C213 C212 1.355 . S
C213 C215 1.419 . S
C214 C212 1.415 . S
C214 C219 1.425 . S
C214 C221 1.409 . S
C215 H207 0.930 . S
C215 C213 1.419 . S
C215 C216 1.362 . S
C216 H208 0.930 . S
C216 C215 1.362 . S
C216 C219 1.409 . S
C217 H209 0.930 . S
C217 C218 1.355 . S
C217 C219 1.415 . S
C218 C217 1.355 . S
C218 C220 1.419 . S
C219 C214 1.425 . S
C219 C216 1.409 . S
C219 C217 1.415 . S
C220 H210 0.930 . S
C220 C218 1.419 . S
C220 C221 1.362 . S
C221 H211 0.930 . S
C221 C214 1.409 . S
C221 C220 1.362 . S
H222 C228 0.930 1_556 S
H223 C231 0.930 . S
H224 C232 0.930 . S
H225 C233 0.930 . S
H226 C236 0.930 . S
H227 C237 0.930 1_556 S
C228 H222 0.930 1_554 S
C228 C229 1.355 . S
C228 C230 1.415 . S
C229 C228 1.355 . S
C229 C231 1.419 . S
C230 C228 1.415 . S
C230 C235 1.425 . S
C230 C237 1.409 . S
C231 H223 0.930 . S
C231 C229 1.419 . S
C231 C232 1.362 . S
C232 H224 0.930 . S
C232 C231 1.362 . S
C232 C235 1.409 . S
C233 H225 0.930 . S
C233 C234 1.355 . S
C233 C235 1.415 . S
C234 C233 1.355 . S
C234 C236 1.419 . S
C235 C230 1.425 . S
C235 C232 1.409 . S
C235 C233 1.415 . S
C236 H226 0.930 . S
C236 C234 1.419 . S
C236 C237 1.362 . S
C237 H227 0.930 1_554 S
C237 C230 1.409 . S
C237 C236 1.362 . S
H238 C244 0.930 . S
H239 C247 0.930 . S
H240 C248 0.930 . S
H241 C249 0.930 . S
H242 C252 0.930 1_554 S
H243 C253 0.930 . S
C244 H238 0.930 . S
C244 C245 1.355 . S
C244 C246 1.415 . S
C245 C244 1.355 . S
C245 C247 1.419 . S
C246 C244 1.415 . S
C246 C251 1.425 . S
C246 C253 1.409 . S
C247 H239 0.930 . S
C247 C245 1.419 . S
C247 C248 1.362 . S
C248 H240 0.930 . S
C248 C247 1.362 . S
C248 C251 1.409 . S
C249 H241 0.930 . S
C249 C250 1.355 . S
C249 C251 1.415 . S
C250 C249 1.355 . S
C250 C252 1.419 . S
C251 C246 1.425 . S
C251 C248 1.409 . S
C251 C249 1.415 . S
C252 H242 0.930 1_556 S
C252 C250 1.419 . S
C252 C253 1.362 . S
C253 H243 0.930 . S
C253 C246 1.409 . S
C253 C252 1.362 . S
H254 C260 0.930 . S
H255 C263 0.930 . S
H256 C264 0.930 . S
H257 C265 0.930 . S
H258 C268 0.930 . S
H259 C269 0.930 . S
C260 H254 0.930 . S
C260 C261 1.355 . S
C260 C262 1.415 . S
C261 C260 1.355 . S
C261 C263 1.419 . S
C262 C260 1.415 . S
C262 C267 1.425 . S
C262 C269 1.409 . S
C263 H255 0.930 . S
C263 C261 1.419 . S
C263 C264 1.362 . S
C264 H256 0.930 . S
C264 C263 1.362 . S
C264 C267 1.409 . S
C265 H257 0.930 . S
C265 C266 1.355 . S
C265 C267 1.415 . S
C266 C265 1.355 . S
C266 C268 1.419 . S
C267 C262 1.425 . S
C267 C264 1.409 . S
C267 C265 1.415 . S
C268 H258 0.930 . S
C268 C266 1.419 . S
C268 C269 1.362 . S
C269 H259 0.930 . S
C269 C262 1.409 . S
C269 C268 1.362 . S
C85 C5 1.869 . S
C90 C68 1.811 . S
C101 C18 1.822 . S
C106 C3 1.904 . S
C117 C16 1.806 . S
C122 C31 1.864 . S
C133 C44 1.652 . S
C138 C29 1.786 . S
C149 C42 1.749 . S
C154 C57 1.845 . S
C165 C70 1.756 . S
C170 C55 1.886 . S
C181 C53 1.723 . S
C186 C10 1.766 . S
C197 C66 1.697 . S
C202 C23 1.685 . S
C213 C36 1.772 . S
C218 C1 1.769 . S
C229 C49 1.582 . S
C234 C14 1.669 . S
C245 C62 1.680 . S
C250 C27 1.678 . S
C261 C75 1.645 . S
C266 C40 1.754 . S
