# Generated by pormake.
# Topology rho, (4)-cn, num edge types: 1
# Building blocks:
#     Node 0, Type 0, BuildingBlock: ICAMEG_clean_sbu_1, # of connection points: 4
#     Node 1, Type 0, BuildingBlock: ICAMEG_clean_sbu_1, # of connection points: 4
#     Node 2, Type 0, BuildingBlock: ICAMEG_clean_sbu_1, # of connection points: 4
#     Node 3, Type 0, BuildingBlock: ICAMEG_clean_sbu_1, # of connection points: 4
#     Node 4, Type 0, BuildingBlock: ICAMEG_clean_sbu_1, # of connection points: 4
#     Node 5, Type 0, BuildingBlock: ICAMEG_clean_sbu_1, # of connection points: 4
#     Node 6, Type 0, BuildingBlock: ICAMEG_clean_sbu_1, # of connection points: 4
#     Node 7, Type 0, BuildingBlock: ICAMEG_clean_sbu_1, # of connection points: 4
#     Node 8, Type 0, BuildingBlock: ICAMEG_clean_sbu_1, # of connection points: 4
#     Node 9, Type 0, BuildingBlock: ICAMEG_clean_sbu_1, # of connection points: 4
#     Node 10, Type 0, BuildingBlock: ICAMEG_clean_sbu_1, # of connection points: 4
#     Node 11, Type 0, BuildingBlock: ICAMEG_clean_sbu_1, # of connection points: 4
#     Node 12, Type 0, BuildingBlock: ICAMEG_clean_sbu_1, # of connection points: 4
#     Node 13, Type 0, BuildingBlock: ICAMEG_clean_sbu_1, # of connection points: 4
#     Node 14, Type 0, BuildingBlock: ICAMEG_clean_sbu_1, # of connection points: 4
#     Node 15, Type 0, BuildingBlock: ICAMEG_clean_sbu_1, # of connection points: 4
#     Node 16, Type 0, BuildingBlock: ICAMEG_clean_sbu_1, # of connection points: 4
#     Node 17, Type 0, BuildingBlock: ICAMEG_clean_sbu_1, # of connection points: 4
#     Node 18, Type 0, BuildingBlock: ICAMEG_clean_sbu_1, # of connection points: 4
#     Node 19, Type 0, BuildingBlock: ICAMEG_clean_sbu_1, # of connection points: 4
#     Node 20, Type 0, BuildingBlock: ICAMEG_clean_sbu_1, # of connection points: 4
#     Node 21, Type 0, BuildingBlock: ICAMEG_clean_sbu_1, # of connection points: 4
#     Node 22, Type 0, BuildingBlock: ICAMEG_clean_sbu_1, # of connection points: 4
#     Node 23, Type 0, BuildingBlock: ICAMEG_clean_sbu_1, # of connection points: 4
#     Node 24, Type 0, BuildingBlock: ICAMEG_clean_sbu_1, # of connection points: 4
#     Node 25, Type 0, BuildingBlock: ICAMEG_clean_sbu_1, # of connection points: 4
#     Node 26, Type 0, BuildingBlock: ICAMEG_clean_sbu_1, # of connection points: 4
#     Node 27, Type 0, BuildingBlock: ICAMEG_clean_sbu_1, # of connection points: 4
#     Node 28, Type 0, BuildingBlock: ICAMEG_clean_sbu_1, # of connection points: 4
#     Node 29, Type 0, BuildingBlock: ICAMEG_clean_sbu_1, # of connection points: 4
#     Node 30, Type 0, BuildingBlock: ICAMEG_clean_sbu_1, # of connection points: 4
#     Node 31, Type 0, BuildingBlock: ICAMEG_clean_sbu_1, # of connection points: 4
#     Node 32, Type 0, BuildingBlock: ICAMEG_clean_sbu_1, # of connection points: 4
#     Node 33, Type 0, BuildingBlock: ICAMEG_clean_sbu_1, # of connection points: 4
#     Node 34, Type 0, BuildingBlock: ICAMEG_clean_sbu_1, # of connection points: 4
#     Node 35, Type 0, BuildingBlock: ICAMEG_clean_sbu_1, # of connection points: 4
#     Node 36, Type 0, BuildingBlock: ICAMEG_clean_sbu_1, # of connection points: 4
#     Node 37, Type 0, BuildingBlock: ICAMEG_clean_sbu_1, # of connection points: 4
#     Node 38, Type 0, BuildingBlock: ICAMEG_clean_sbu_1, # of connection points: 4
#     Node 39, Type 0, BuildingBlock: ICAMEG_clean_sbu_1, # of connection points: 4
#     Node 40, Type 0, BuildingBlock: ICAMEG_clean_sbu_1, # of connection points: 4
#     Node 41, Type 0, BuildingBlock: ICAMEG_clean_sbu_1, # of connection points: 4
#     Node 42, Type 0, BuildingBlock: ICAMEG_clean_sbu_1, # of connection points: 4
#     Node 43, Type 0, BuildingBlock: ICAMEG_clean_sbu_1, # of connection points: 4
#     Node 44, Type 0, BuildingBlock: ICAMEG_clean_sbu_1, # of connection points: 4
#     Node 45, Type 0, BuildingBlock: ICAMEG_clean_sbu_1, # of connection points: 4
#     Node 46, Type 0, BuildingBlock: ICAMEG_clean_sbu_1, # of connection points: 4
#     Node 47, Type 0, BuildingBlock: ICAMEG_clean_sbu_1, # of connection points: 4
#     Edge 48, Type (0, 0), BuildingBlock: AJUNOK_clean_linker_0, # of connection points: 2
#     Edge 49, Type (0, 0), BuildingBlock: AJUNOK_clean_linker_0, # of connection points: 2
#     Edge 50, Type (0, 0), BuildingBlock: AJUNOK_clean_linker_0, # of connection points: 2
#     Edge 51, Type (0, 0), BuildingBlock: AJUNOK_clean_linker_0, # of connection points: 2
#     Edge 52, Type (0, 0), BuildingBlock: AJUNOK_clean_linker_0, # of connection points: 2
#     Edge 53, Type (0, 0), BuildingBlock: AJUNOK_clean_linker_0, # of connection points: 2
#     Edge 54, Type (0, 0), BuildingBlock: AJUNOK_clean_linker_0, # of connection points: 2
#     Edge 55, Type (0, 0), BuildingBlock: AJUNOK_clean_linker_0, # of connection points: 2
#     Edge 56, Type (0, 0), BuildingBlock: AJUNOK_clean_linker_0, # of connection points: 2
#     Edge 57, Type (0, 0), BuildingBlock: AJUNOK_clean_linker_0, # of connection points: 2
#     Edge 58, Type (0, 0), BuildingBlock: AJUNOK_clean_linker_0, # of connection points: 2
#     Edge 59, Type (0, 0), BuildingBlock: AJUNOK_clean_linker_0, # of connection points: 2
#     Edge 60, Type (0, 0), BuildingBlock: AJUNOK_clean_linker_0, # of connection points: 2
#     Edge 61, Type (0, 0), BuildingBlock: AJUNOK_clean_linker_0, # of connection points: 2
#     Edge 62, Type (0, 0), BuildingBlock: AJUNOK_clean_linker_0, # of connection points: 2
#     Edge 63, Type (0, 0), BuildingBlock: AJUNOK_clean_linker_0, # of connection points: 2
#     Edge 64, Type (0, 0), BuildingBlock: AJUNOK_clean_linker_0, # of connection points: 2
#     Edge 65, Type (0, 0), BuildingBlock: AJUNOK_clean_linker_0, # of connection points: 2
#     Edge 66, Type (0, 0), BuildingBlock: AJUNOK_clean_linker_0, # of connection points: 2
#     Edge 67, Type (0, 0), BuildingBlock: AJUNOK_clean_linker_0, # of connection points: 2
#     Edge 68, Type (0, 0), BuildingBlock: AJUNOK_clean_linker_0, # of connection points: 2
#     Edge 69, Type (0, 0), BuildingBlock: AJUNOK_clean_linker_0, # of connection points: 2
#     Edge 70, Type (0, 0), BuildingBlock: AJUNOK_clean_linker_0, # of connection points: 2
#     Edge 71, Type (0, 0), BuildingBlock: AJUNOK_clean_linker_0, # of connection points: 2
#     Edge 72, Type (0, 0), BuildingBlock: AJUNOK_clean_linker_0, # of connection points: 2
#     Edge 73, Type (0, 0), BuildingBlock: AJUNOK_clean_linker_0, # of connection points: 2
#     Edge 74, Type (0, 0), BuildingBlock: AJUNOK_clean_linker_0, # of connection points: 2
#     Edge 75, Type (0, 0), BuildingBlock: AJUNOK_clean_linker_0, # of connection points: 2
#     Edge 76, Type (0, 0), BuildingBlock: AJUNOK_clean_linker_0, # of connection points: 2
#     Edge 77, Type (0, 0), BuildingBlock: AJUNOK_clean_linker_0, # of connection points: 2
#     Edge 78, Type (0, 0), BuildingBlock: AJUNOK_clean_linker_0, # of connection points: 2
#     Edge 79, Type (0, 0), BuildingBlock: AJUNOK_clean_linker_0, # of connection points: 2
#     Edge 80, Type (0, 0), BuildingBlock: AJUNOK_clean_linker_0, # of connection points: 2
#     Edge 81, Type (0, 0), BuildingBlock: AJUNOK_clean_linker_0, # of connection points: 2
#     Edge 82, Type (0, 0), BuildingBlock: AJUNOK_clean_linker_0, # of connection points: 2
#     Edge 83, Type (0, 0), BuildingBlock: AJUNOK_clean_linker_0, # of connection points: 2
#     Edge 84, Type (0, 0), BuildingBlock: AJUNOK_clean_linker_0, # of connection points: 2
#     Edge 85, Type (0, 0), BuildingBlock: AJUNOK_clean_linker_0, # of connection points: 2
#     Edge 86, Type (0, 0), BuildingBlock: AJUNOK_clean_linker_0, # of connection points: 2
#     Edge 87, Type (0, 0), BuildingBlock: AJUNOK_clean_linker_0, # of connection points: 2
#     Edge 88, Type (0, 0), BuildingBlock: AJUNOK_clean_linker_0, # of connection points: 2
#     Edge 89, Type (0, 0), BuildingBlock: AJUNOK_clean_linker_0, # of connection points: 2
#     Edge 90, Type (0, 0), BuildingBlock: AJUNOK_clean_linker_0, # of connection points: 2
#     Edge 91, Type (0, 0), BuildingBlock: AJUNOK_clean_linker_0, # of connection points: 2
#     Edge 92, Type (0, 0), BuildingBlock: AJUNOK_clean_linker_0, # of connection points: 2
#     Edge 93, Type (0, 0), BuildingBlock: AJUNOK_clean_linker_0, # of connection points: 2
#     Edge 94, Type (0, 0), BuildingBlock: AJUNOK_clean_linker_0, # of connection points: 2
#     Edge 95, Type (0, 0), BuildingBlock: AJUNOK_clean_linker_0, # of connection points: 2
#     Edge 96, Type (0, 0), BuildingBlock: AJUNOK_clean_linker_0, # of connection points: 2
#     Edge 97, Type (0, 0), BuildingBlock: AJUNOK_clean_linker_0, # of connection points: 2
#     Edge 98, Type (0, 0), BuildingBlock: AJUNOK_clean_linker_0, # of connection points: 2
#     Edge 99, Type (0, 0), BuildingBlock: AJUNOK_clean_linker_0, # of connection points: 2
#     Edge 100, Type (0, 0), BuildingBlock: AJUNOK_clean_linker_0, # of connection points: 2
#     Edge 101, Type (0, 0), BuildingBlock: AJUNOK_clean_linker_0, # of connection points: 2
#     Edge 102, Type (0, 0), BuildingBlock: AJUNOK_clean_linker_0, # of connection points: 2
#     Edge 103, Type (0, 0), BuildingBlock: AJUNOK_clean_linker_0, # of connection points: 2
#     Edge 104, Type (0, 0), BuildingBlock: AJUNOK_clean_linker_0, # of connection points: 2
#     Edge 105, Type (0, 0), BuildingBlock: AJUNOK_clean_linker_0, # of connection points: 2
#     Edge 106, Type (0, 0), BuildingBlock: AJUNOK_clean_linker_0, # of connection points: 2
#     Edge 107, Type (0, 0), BuildingBlock: AJUNOK_clean_linker_0, # of connection points: 2
#     Edge 108, Type (0, 0), BuildingBlock: AJUNOK_clean_linker_0, # of connection points: 2
#     Edge 109, Type (0, 0), BuildingBlock: AJUNOK_clean_linker_0, # of connection points: 2
#     Edge 110, Type (0, 0), BuildingBlock: AJUNOK_clean_linker_0, # of connection points: 2
#     Edge 111, Type (0, 0), BuildingBlock: AJUNOK_clean_linker_0, # of connection points: 2
#     Edge 112, Type (0, 0), BuildingBlock: AJUNOK_clean_linker_0, # of connection points: 2
#     Edge 113, Type (0, 0), BuildingBlock: AJUNOK_clean_linker_0, # of connection points: 2
#     Edge 114, Type (0, 0), BuildingBlock: AJUNOK_clean_linker_0, # of connection points: 2
#     Edge 115, Type (0, 0), BuildingBlock: AJUNOK_clean_linker_0, # of connection points: 2
#     Edge 116, Type (0, 0), BuildingBlock: AJUNOK_clean_linker_0, # of connection points: 2
#     Edge 117, Type (0, 0), BuildingBlock: AJUNOK_clean_linker_0, # of connection points: 2
#     Edge 118, Type (0, 0), BuildingBlock: AJUNOK_clean_linker_0, # of connection points: 2
#     Edge 119, Type (0, 0), BuildingBlock: AJUNOK_clean_linker_0, # of connection points: 2
#     Edge 120, Type (0, 0), BuildingBlock: AJUNOK_clean_linker_0, # of connection points: 2
#     Edge 121, Type (0, 0), BuildingBlock: AJUNOK_clean_linker_0, # of connection points: 2
#     Edge 122, Type (0, 0), BuildingBlock: AJUNOK_clean_linker_0, # of connection points: 2
#     Edge 123, Type (0, 0), BuildingBlock: AJUNOK_clean_linker_0, # of connection points: 2
#     Edge 124, Type (0, 0), BuildingBlock: AJUNOK_clean_linker_0, # of connection points: 2
#     Edge 125, Type (0, 0), BuildingBlock: AJUNOK_clean_linker_0, # of connection points: 2
#     Edge 126, Type (0, 0), BuildingBlock: AJUNOK_clean_linker_0, # of connection points: 2
#     Edge 127, Type (0, 0), BuildingBlock: AJUNOK_clean_linker_0, # of connection points: 2
#     Edge 128, Type (0, 0), BuildingBlock: AJUNOK_clean_linker_0, # of connection points: 2
#     Edge 129, Type (0, 0), BuildingBlock: AJUNOK_clean_linker_0, # of connection points: 2
#     Edge 130, Type (0, 0), BuildingBlock: AJUNOK_clean_linker_0, # of connection points: 2
#     Edge 131, Type (0, 0), BuildingBlock: AJUNOK_clean_linker_0, # of connection points: 2
#     Edge 132, Type (0, 0), BuildingBlock: AJUNOK_clean_linker_0, # of connection points: 2
#     Edge 133, Type (0, 0), BuildingBlock: AJUNOK_clean_linker_0, # of connection points: 2
#     Edge 134, Type (0, 0), BuildingBlock: AJUNOK_clean_linker_0, # of connection points: 2
#     Edge 135, Type (0, 0), BuildingBlock: AJUNOK_clean_linker_0, # of connection points: 2
#     Edge 136, Type (0, 0), BuildingBlock: AJUNOK_clean_linker_0, # of connection points: 2
#     Edge 137, Type (0, 0), BuildingBlock: AJUNOK_clean_linker_0, # of connection points: 2
#     Edge 138, Type (0, 0), BuildingBlock: AJUNOK_clean_linker_0, # of connection points: 2
#     Edge 139, Type (0, 0), BuildingBlock: AJUNOK_clean_linker_0, # of connection points: 2
#     Edge 140, Type (0, 0), BuildingBlock: AJUNOK_clean_linker_0, # of connection points: 2
#     Edge 141, Type (0, 0), BuildingBlock: AJUNOK_clean_linker_0, # of connection points: 2
#     Edge 142, Type (0, 0), BuildingBlock: AJUNOK_clean_linker_0, # of connection points: 2
#     Edge 143, Type (0, 0), BuildingBlock: AJUNOK_clean_linker_0, # of connection points: 2
# Relax obj value: 0.062
# Max RMSD: 0.094
# Mean RMSD: 0.094
data_MOF--net-rho--node1-ICAMEG_clean_sbu_1--edge1-AJUNOK_clean_linker_0
_symmetry_space_group_name_H-M    P1
_symmetry_Int_Tables_number       1
_symmetry_cell_setting            triclinic
loop_
_symmetry_equiv_pos_as_xyz
'x, y, z'
_cell_length_a     58.315758
_cell_length_b     58.282194
_cell_length_c     58.314543
_cell_angle_alpha  90.020829
_cell_angle_beta   90.000643
_cell_angle_gamma 90.066134
loop_
_atom_site_label
_atom_site_type_symbol
_atom_site_fract_x
_atom_site_fract_y
_atom_site_fract_z
_atom_type_partial_charge
Co0 Co 0.09757 0.28164 0.40893 0.0
Co1 Co 0.09278 0.22277 0.40866 0.0
O2 O 0.10645 0.25134 0.39753 0.0
C3 C 0.09057 0.28858 0.35873 0.0
O4 O 0.07777 0.27003 0.35837 0.0
C5 C 0.1425 0.21271 0.41576 0.0
O6 O 0.14437 0.23215 0.427 0.0
O7 O 0.09898 0.23144 0.44119 0.0
O8 O 0.09475 0.26966 0.44096 0.0
H9 H 0.04212 0.17496 0.45944 0.0
H10 H 0.13995 0.27621 0.3815 0.0
O11 O 0.10034 0.29476 0.37728 0.0
H12 H 0.16538 0.30752 0.45586 0.0
H13 H 0.10304 0.36777 0.41351 0.0
H14 H 0.06155 0.29907 0.44029 0.0
H15 H 0.12436 0.30063 0.4483 0.0
H16 H 0.11452 0.32922 0.4004 0.0
O17 O 0.12334 0.20705 0.40686 0.0
H18 H 0.05927 0.21086 0.44502 0.0
H19 H 0.09795 0.17344 0.39594 0.0
H20 H 0.04956 0.33727 0.45393 0.0
H21 H 0.18117 0.28303 0.38824 0.0
H22 H 0.0704 0.37197 0.44055 0.0
H23 H 0.19412 0.29872 0.42568 0.0
O24 O 0.06442 0.27504 0.40344 0.0
H25 H 0.11275 0.21338 0.32541 0.0
H26 H 0.05185 0.20497 0.38346 0.0
H27 H 0.04352 0.19554 0.34309 0.0
H28 H 0.07411 0.19971 0.31374 0.0
H29 H 0.12026 0.22283 0.36597 0.0
H30 H 0.08138 0.13711 0.40998 0.0
H31 H 0.05317 0.13774 0.44189 0.0
O32 O 0.06183 0.23737 0.41057 0.0
C33 C 0.09717 0.25065 0.45155 0.0
C34 C 0.05434 0.17447 0.44549 0.0
C35 C 0.0764 0.15322 0.41774 0.0
N36 N 0.07947 0.19427 0.41955 0.0
C37 C 0.06407 0.19475 0.43721 0.0
C38 C 0.08577 0.17385 0.4099 0.0
C39 C 0.06057 0.15359 0.43564 0.0
C40 C 0.14545 0.28321 0.39777 0.0
N41 N 0.12976 0.28805 0.41447 0.0
C42 C 0.16881 0.28697 0.40151 0.0
C43 C 0.17607 0.29574 0.42253 0.0
C44 C 0.15995 0.30067 0.43948 0.0
C45 C 0.13674 0.29666 0.43513 0.0
C46 C 0.0939 0.35278 0.41955 0.0
C47 C 0.07079 0.31407 0.43451 0.0
C48 C 0.10032 0.3309 0.41218 0.0
N49 N 0.08892 0.31188 0.41983 0.0
C50 C 0.06389 0.33566 0.44224 0.0
C51 C 0.07557 0.35512 0.43471 0.0
C52 C 0.05268 0.25688 0.40677 0.0
C53 C 0.09929 0.21146 0.33804 0.0
C54 C 0.06522 0.20691 0.37079 0.0
C55 C 0.06042 0.20149 0.34796 0.0
C56 C 0.0776 0.20381 0.3315 0.0
N57 N 0.08654 0.2144 0.37707 0.0
C58 C 0.10347 0.21671 0.36104 0.0
Co59 Co 0.78154 0.08886 0.40927 0.0
Co60 Co 0.72296 0.09887 0.4108 0.0
O61 O 0.75388 0.10509 0.39906 0.0
C62 C 0.7936 0.13828 0.41725 0.0
O63 O 0.77253 0.1423 0.42406 0.0
C64 C 0.71508 0.09072 0.36089 0.0
O65 O 0.73312 0.07726 0.3606 0.0
O66 O 0.72678 0.06508 0.40653 0.0
O67 O 0.76486 0.05893 0.4081 0.0
H68 H 0.66417 0.05708 0.45803 0.0
H69 H 0.78283 0.11977 0.369 0.0
O70 O 0.79938 0.11832 0.41042 0.0
H71 H 0.80798 0.04437 0.34009 0.0
H72 H 0.86612 0.07127 0.40992 0.0
H73 H 0.79065 0.0518 0.44279 0.0
H74 H 0.79822 0.0496 0.38091 0.0
H75 H 0.83123 0.09137 0.39702 0.0
O76 O 0.70972 0.10138 0.37919 0.0
H77 H 0.70301 0.06536 0.44346 0.0
H78 H 0.67682 0.11926 0.4021 0.0
H79 H 0.82506 0.03102 0.45595 0.0
H80 H 0.79251 0.11535 0.32804 0.0
H81 H 0.86314 0.04076 0.43952 0.0
H82 H 0.80512 0.0774 0.31334 0.0
O83 O 0.7732 0.09293 0.44235 0.0
H84 H 0.72707 0.18143 0.38646 0.0
H85 H 0.70674 0.12863 0.44929 0.0
H86 H 0.70279 0.17033 0.45508 0.0
H87 H 0.71295 0.19706 0.42349 0.0
H88 H 0.73101 0.13957 0.38153 0.0
H89 H 0.63767 0.11146 0.41608 0.0
H90 H 0.63116 0.08025 0.44434 0.0
O91 O 0.73494 0.09627 0.44267 0.0
C92 C 0.74421 0.05191 0.40654 0.0
C93 C 0.66679 0.07078 0.44578 0.0
C94 C 0.65192 0.10131 0.42224 0.0
N95 N 0.69224 0.09298 0.4222 0.0
C96 C 0.68875 0.07559 0.43751 0.0
C97 C 0.67413 0.10564 0.41438 0.0
C98 C 0.64828 0.08378 0.43809 0.0
C99 C 0.78838 0.10323 0.36273 0.0
N100 N 0.7899 0.08495 0.3773 0.0
C101 C 0.79381 0.10082 0.33952 0.0
C102 C 0.80088 0.07952 0.33128 0.0
C103 C 0.80247 0.06098 0.34627 0.0
C104 C 0.79686 0.06403 0.36936 0.0
C105 C 0.84962 0.06686 0.41721 0.0
C106 C 0.80715 0.05605 0.43548 0.0
C107 C 0.82982 0.07825 0.41005 0.0
N108 N 0.80893 0.07276 0.41915 0.0
C109 C 0.82658 0.04426 0.44304 0.0
C110 C 0.84794 0.04975 0.43382 0.0
C111 C 0.75414 0.09469 0.45297 0.0
C112 C 0.72255 0.16996 0.40034 0.0
C113 C 0.71135 0.14013 0.43553 0.0
C114 C 0.70898 0.16373 0.43887 0.0
C115 C 0.71466 0.17872 0.42113 0.0
N116 N 0.7191 0.13166 0.4151 0.0
C117 C 0.72467 0.14625 0.39762 0.0
Co118 Co 0.90669 0.72505 0.40754 0.0
Co119 Co 0.91149 0.78387 0.40775 0.0
O120 O 0.89772 0.7554 0.39633 0.0
C121 C 0.91351 0.71648 0.35732 0.0
O122 O 0.92808 0.73366 0.35649 0.0
C123 C 0.86181 0.79429 0.41457 0.0
O124 O 0.8597 0.7748 0.42566 0.0
O125 O 0.90493 0.77504 0.44017 0.0
O126 O 0.91018 0.73697 0.43955 0.0
H127 H 0.96191 0.83108 0.45936 0.0
H128 H 0.8638 0.73051 0.38095 0.0
O129 O 0.90312 0.71181 0.37597 0.0
H130 H 0.83977 0.69922 0.45575 0.0
H131 H 0.90094 0.63894 0.4124 0.0
H132 H 0.94356 0.7075 0.43784 0.0
H133 H 0.88063 0.70618 0.44746 0.0
H134 H 0.88924 0.67752 0.39964 0.0
O135 O 0.88105 0.79982 0.4058 0.0
H136 H 0.94469 0.79536 0.44452 0.0
H137 H 0.90678 0.8333 0.39527 0.0
H138 H 0.9558 0.66926 0.45111 0.0
H139 H 0.82273 0.72358 0.3884 0.0
H140 H 0.9344 0.63464 0.43841 0.0
H141 H 0.81048 0.7079 0.42607 0.0
O142 O 0.93971 0.73169 0.40144 0.0
H143 H 0.89226 0.79412 0.32443 0.0
H144 H 0.95275 0.80157 0.38305 0.0
H145 H 0.96143 0.81144 0.34287 0.0
H146 H 0.93104 0.80779 0.31324 0.0
H147 H 0.88439 0.78423 0.36482 0.0
H148 H 0.92341 0.86945 0.40972 0.0
H149 H 0.95128 0.86847 0.44193 0.0
O150 O 0.94236 0.7691 0.40983 0.0
C151 C 0.9073 0.75581 0.45035 0.0
C152 C 0.94984 0.83173 0.44527 0.0
C153 C 0.92821 0.85326 0.41744 0.0
N154 N 0.92487 0.81223 0.41895 0.0
C155 C 0.94008 0.81156 0.43676 0.0
C156 C 0.9188 0.83274 0.40937 0.0
C157 C 0.94385 0.8527 0.4355 0.0
C158 C 0.85861 0.72352 0.39731 0.0
N159 N 0.87461 0.71871 0.41373 0.0
C160 C 0.83533 0.71969 0.40146 0.0
C161 C 0.82846 0.71092 0.42261 0.0
C162 C 0.84488 0.70607 0.43927 0.0
C163 C 0.86801 0.71011 0.43451 0.0
C164 C 0.91034 0.6539 0.41814 0.0
C165 C 0.93408 0.69253 0.43234 0.0
C166 C 0.9038 0.6758 0.41097 0.0
N167 N 0.91551 0.69479 0.41823 0.0
C168 C 0.94112 0.67091 0.43987 0.0
C169 C 0.92912 0.6515 0.43272 0.0
C170 C 0.95148 0.74973 0.40533 0.0
C171 C 0.90563 0.79583 0.33719 0.0
C172 C 0.93946 0.79984 0.37026 0.0
C173 C 0.94446 0.80552 0.34753 0.0
C174 C 0.9274 0.80347 0.33092 0.0
N175 N 0.91806 0.7924 0.37628 0.0
C176 C 0.90125 0.79032 0.36009 0.0
Co177 Co 0.2231 0.91463 0.405 0.0
Co178 Co 0.28185 0.9079 0.4107 0.0
O179 O 0.25226 0.9001 0.39676 0.0
C180 C 0.21227 0.86532 0.41469 0.0
O181 O 0.23065 0.86407 0.42765 0.0
C182 C 0.29283 0.9161 0.36124 0.0
O183 O 0.27504 0.92982 0.35978 0.0
O184 O 0.2765 0.94142 0.40615 0.0
O185 O 0.23808 0.9456 0.405 0.0
H186 H 0.3345 0.95139 0.46336 0.0
H187 H 0.22707 0.8841 0.36456 0.0
O188 O 0.20729 0.88402 0.40455 0.0
H189 H 0.19696 0.95721 0.33457 0.0
H190 H 0.13744 0.92545 0.40142 0.0
H191 H 0.20953 0.95142 0.43728 0.0
H192 H 0.20481 0.95249 0.37588 0.0
H193 H 0.17435 0.90806 0.39044 0.0
O194 O 0.29728 0.90589 0.38003 0.0
H195 H 0.29734 0.9413 0.44583 0.0
H196 H 0.32967 0.89068 0.40464 0.0
H197 H 0.173 0.9695 0.44858 0.0
H198 H 0.21932 0.88798 0.32315 0.0
H199 H 0.13661 0.95649 0.43063 0.0
H200 H 0.20422 0.92477 0.3079 0.0
O201 O 0.22935 0.91103 0.43854 0.0
H202 H 0.28375 0.82511 0.38679 0.0
H203 H 0.2969 0.8793 0.45042 0.0
H204 H 0.30284 0.8379 0.45675 0.0
H205 H 0.29632 0.8105 0.42476 0.0
H206 H 0.27778 0.86665 0.38128 0.0
H207 H 0.36721 0.90039 0.42152 0.0
H208 H 0.36978 0.93088 0.45119 0.0
O209 O 0.26761 0.90985 0.44158 0.0
C210 C 0.25845 0.95371 0.40494 0.0
C211 C 0.3336 0.93805 0.45048 0.0
C212 C 0.35196 0.90944 0.42698 0.0
N213 N 0.31131 0.91535 0.4243 0.0
C214 C 0.3126 0.93222 0.44053 0.0
C215 C 0.33066 0.90406 0.41742 0.0
C216 C 0.35339 0.92654 0.44363 0.0
C217 C 0.22052 0.90017 0.35803 0.0
N218 N 0.21661 0.91814 0.37256 0.0
C219 C 0.21616 0.90226 0.33458 0.0
C220 C 0.20768 0.92291 0.32604 0.0
C221 C 0.20362 0.94112 0.34098 0.0
C222 C 0.2082 0.93839 0.36433 0.0
C223 C 0.15318 0.9313 0.40935 0.0
C224 C 0.19378 0.94581 0.42925 0.0
C225 C 0.17414 0.92145 0.40325 0.0
N226 N 0.19411 0.92882 0.41311 0.0
C227 C 0.17315 0.95604 0.43578 0.0
C228 C 0.15273 0.94871 0.42572 0.0
C229 C 0.24767 0.91028 0.45046 0.0
C230 C 0.28669 0.83689 0.40084 0.0
C231 C 0.29392 0.86748 0.43645 0.0
C232 C 0.29737 0.84406 0.44012 0.0
C233 C 0.29372 0.8287 0.42216 0.0
N234 N 0.28709 0.87539 0.41546 0.0
C235 C 0.28341 0.86042 0.3978 0.0
Co236 Co 0.09086 0.7843 0.59513 0.0
Co237 Co 0.09379 0.7254 0.59509 0.0
O238 O 0.10379 0.75546 0.6064 0.0
C239 C 0.14098 0.79346 0.58936 0.0
O240 O 0.14393 0.77266 0.58125 0.0
C241 C 0.08713 0.71731 0.64544 0.0
O242 O 0.07284 0.73469 0.64635 0.0
O243 O 0.06084 0.73289 0.60111 0.0
O244 O 0.05971 0.77033 0.59286 0.0
H245 H 0.04377 0.67114 0.55045 0.0
H246 H 0.11817 0.78403 0.63783 0.0
O247 O 0.12146 0.7998 0.59685 0.0
H248 H 0.04171 0.81188 0.66072 0.0
H249 H 0.07872 0.8699 0.59542 0.0
H250 H 0.06039 0.79706 0.55646 0.0
H251 H 0.04996 0.80241 0.62038 0.0
H252 H 0.09451 0.83335 0.60964 0.0
O253 O 0.09696 0.71213 0.62664 0.0
H254 H 0.05685 0.70898 0.56418 0.0
H255 H 0.10946 0.67736 0.60335 0.0
H256 H 0.04438 0.83323 0.54155 0.0
H257 H 0.11077 0.79356 0.67839 0.0
H258 H 0.05344 0.86999 0.56113 0.0
H259 H 0.07228 0.80755 0.69006 0.0
O260 O 0.0974 0.77539 0.56277 0.0
H261 H 0.17755 0.72097 0.6147 0.0
H262 H 0.11938 0.70568 0.55528 0.0
H263 H 0.15997 0.69712 0.54728 0.0
H264 H 0.18939 0.7047 0.57715 0.0
H265 H 0.13677 0.72957 0.62184 0.0
H266 H 0.09683 0.63917 0.5902 0.0
H267 H 0.06384 0.63589 0.56345 0.0
O268 O 0.09075 0.73752 0.56307 0.0
C269 C 0.04977 0.75132 0.5971 0.0
C270 C 0.05823 0.67234 0.56203 0.0
C271 C 0.08801 0.65441 0.58433 0.0
N272 N 0.08409 0.69542 0.5843 0.0
C273 C 0.06575 0.69373 0.56982 0.0
C274 C 0.09507 0.67609 0.59174 0.0
C275 C 0.06949 0.65258 0.56934 0.0
C276 C 0.10144 0.79027 0.64277 0.0
N277 N 0.08455 0.79272 0.62673 0.0
C278 C 0.09732 0.79557 0.66576 0.0
C279 C 0.07571 0.80339 0.6723 0.0
C280 C 0.05855 0.8058 0.65585 0.0
C281 C 0.06329 0.80032 0.63303 0.0
C282 C 0.07454 0.85398 0.58681 0.0
C283 C 0.06446 0.81298 0.56506 0.0
C284 C 0.08338 0.83321 0.59482 0.0
N285 N 0.07817 0.81303 0.58406 0.0
C286 C 0.05532 0.83341 0.55654 0.0
C287 C 0.0604 0.85403 0.56755 0.0
C288 C 0.09435 0.75633 0.55244 0.0
C289 C 0.16489 0.71757 0.60155 0.0
C290 C 0.13207 0.7092 0.56829 0.0
C291 C 0.15504 0.70423 0.5637 0.0
C292 C 0.17153 0.70846 0.58048 0.0
N293 N 0.12568 0.71811 0.58901 0.0
C294 C 0.14177 0.72233 0.60552 0.0
Co295 Co 0.28155 0.09852 0.59265 0.0
Co296 Co 0.2228 0.09336 0.59673 0.0
O297 O 0.25198 0.1071 0.60591 0.0
C298 C 0.28992 0.09108 0.64242 0.0
O299 O 0.27092 0.07899 0.64304 0.0
C300 C 0.21352 0.14312 0.5902 0.0
O301 O 0.2328 0.14457 0.57867 0.0
O302 O 0.22942 0.09892 0.56362 0.0
O303 O 0.26772 0.09635 0.56132 0.0
H304 H 0.17187 0.04205 0.54975 0.0
H305 H 0.27783 0.14031 0.62135 0.0
O306 O 0.29623 0.10054 0.62374 0.0
H307 H 0.30443 0.16738 0.54577 0.0
H308 H 0.36729 0.10378 0.5839 0.0
H309 H 0.29695 0.0643 0.55832 0.0
H310 H 0.29803 0.12615 0.55283 0.0
H311 H 0.32959 0.11467 0.59969 0.0
O312 O 0.20743 0.12401 0.59891 0.0
H313 H 0.20864 0.05911 0.56187 0.0
H314 H 0.17437 0.09908 0.6122 0.0
H315 H 0.33426 0.05299 0.54196 0.0
H316 H 0.28422 0.1817 0.6151 0.0
H317 H 0.36977 0.07279 0.55476 0.0
H318 H 0.29752 0.19547 0.57705 0.0
O319 O 0.2754 0.06522 0.59772 0.0
H320 H 0.21847 0.11479 0.68007 0.0
H321 H 0.2066 0.05288 0.62363 0.0
H322 H 0.19967 0.04523 0.66463 0.0
H323 H 0.20559 0.07633 0.69317 0.0
H324 H 0.2254 0.12163 0.63889 0.0
H325 H 0.13719 0.08258 0.60051 0.0
H326 H 0.1358 0.05379 0.56912 0.0
O327 O 0.23721 0.06244 0.59448 0.0
C328 C 0.24795 0.09786 0.55203 0.0
C329 C 0.17226 0.05452 0.5635 0.0
C330 C 0.15279 0.0773 0.59196 0.0
N331 N 0.19367 0.07997 0.58781 0.0
C332 C 0.19304 0.0642 0.57048 0.0
C333 C 0.17389 0.08662 0.59847 0.0
C334 C 0.15202 0.06114 0.57435 0.0
C335 C 0.28383 0.14617 0.60482 0.0
N336 N 0.28762 0.13084 0.5875 0.0
C337 C 0.28733 0.16962 0.60135 0.0
C338 C 0.29477 0.17734 0.57999 0.0
C339 C 0.29864 0.16159 0.56242 0.0
C340 C 0.29493 0.13827 0.56651 0.0
C341 C 0.35193 0.09506 0.57815 0.0
C342 C 0.31231 0.07311 0.56386 0.0
C343 C 0.33054 0.10112 0.58706 0.0
N344 N 0.31108 0.09024 0.57981 0.0
C345 C 0.3334 0.06658 0.55458 0.0
C346 C 0.35331 0.07767 0.5618 0.0
C347 C 0.25703 0.05341 0.59631 0.0
C348 C 0.21578 0.10112 0.66779 0.0
C349 C 0.20928 0.06648 0.63594 0.0
C350 C 0.20527 0.06207 0.65914 0.0
C351 C 0.20858 0.07952 0.67514 0.0
N352 N 0.21634 0.08771 0.62887 0.0
C353 C 0.2196 0.10491 0.64445 0.0
Co354 Co 0.91062 0.22047 0.59646 0.0
Co355 Co 0.9072 0.27918 0.59233 0.0
O356 O 0.89791 0.25 0.60608 0.0
C357 C 0.86081 0.21055 0.59136 0.0
O358 O 0.85894 0.22938 0.57916 0.0
C359 C 0.91427 0.28941 0.64197 0.0
O360 O 0.92642 0.27052 0.64354 0.0
O361 O 0.94024 0.27236 0.59809 0.0
O362 O 0.94175 0.23435 0.59207 0.0
H363 H 0.95443 0.32995 0.5411 0.0
H364 H 0.88494 0.22364 0.64015 0.0
O365 O 0.87996 0.20541 0.60053 0.0
H366 H 0.96263 0.19817 0.66168 0.0
H367 H 0.92125 0.13491 0.6022 0.0
H368 H 0.93949 0.20446 0.55772 0.0
H369 H 0.95257 0.20454 0.62111 0.0
H370 H 0.90661 0.17268 0.61437 0.0
O371 O 0.90491 0.29475 0.62296 0.0
H372 H 0.94236 0.29324 0.55837 0.0
H373 H 0.89175 0.32767 0.59784 0.0
H374 H 0.95465 0.16711 0.54501 0.0
H375 H 0.89419 0.21725 0.68095 0.0
H376 H 0.94557 0.13197 0.56735 0.0
H377 H 0.93331 0.2045 0.69193 0.0
O378 O 0.90317 0.22693 0.56373 0.0
H379 H 0.82379 0.28372 0.61335 0.0
H380 H 0.88052 0.29543 0.55174 0.0
H381 H 0.83958 0.30248 0.54393 0.0
H382 H 0.8109 0.29664 0.57487 0.0
H383 H 0.86492 0.27668 0.62036 0.0
H384 H 0.90345 0.36478 0.58119 0.0
H385 H 0.93493 0.36606 0.55252 0.0
O386 O 0.90956 0.26475 0.5613 0.0
C387 C 0.95143 0.25384 0.59483 0.0
C388 C 0.94065 0.32961 0.55354 0.0
C389 C 0.91205 0.34916 0.57605 0.0
N390 N 0.91627 0.30829 0.57898 0.0
C391 C 0.9337 0.30887 0.56333 0.0
C392 C 0.90555 0.3281 0.58547 0.0
C393 C 0.92971 0.34986 0.55996 0.0
C394 C 0.90192 0.21787 0.6448 0.0
N395 N 0.91815 0.21436 0.62828 0.0
C396 C 0.90709 0.21437 0.66792 0.0
C397 C 0.92905 0.20725 0.67407 0.0
C398 C 0.94552 0.2037 0.65711 0.0
C399 C 0.93974 0.2074 0.63417 0.0
C400 C 0.9255 0.15012 0.59243 0.0
C401 C 0.93577 0.18933 0.56773 0.0
C402 C 0.91731 0.17157 0.59927 0.0
N403 N 0.92273 0.19089 0.58711 0.0
C404 C 0.94427 0.16819 0.56036 0.0
C405 C 0.93913 0.14848 0.57287 0.0
C406 C 0.90598 0.24521 0.55207 0.0
C407 C 0.83613 0.28637 0.59974 0.0
C408 C 0.86815 0.29278 0.56528 0.0
C409 C 0.84499 0.29686 0.56077 0.0
C410 C 0.82891 0.29359 0.57814 0.0
N411 N 0.87511 0.28571 0.58652 0.0
C412 C 0.85944 0.28249 0.60364 0.0
Co413 Co 0.72046 0.90556 0.59129 0.0
Co414 Co 0.7792 0.91202 0.59739 0.0
O415 O 0.74994 0.89744 0.60512 0.0
C416 C 0.71113 0.91264 0.64099 0.0
O417 O 0.73041 0.92421 0.64231 0.0
C418 C 0.78839 0.86276 0.58694 0.0
O419 O 0.76906 0.8621 0.57541 0.0
O420 O 0.77301 0.90955 0.56371 0.0
O421 O 0.73478 0.90767 0.56042 0.0
H422 H 0.8299 0.96814 0.55605 0.0
H423 H 0.72419 0.86406 0.62037 0.0
O424 O 0.70512 0.90359 0.62201 0.0
H425 H 0.69949 0.836 0.54449 0.0
H426 H 0.63505 0.89871 0.58051 0.0
H427 H 0.70528 0.93924 0.55635 0.0
H428 H 0.70518 0.87736 0.55134 0.0
H429 H 0.67252 0.88872 0.5974 0.0
O430 O 0.79462 0.88128 0.59678 0.0
H431 H 0.79319 0.94987 0.5665 0.0
H432 H 0.82781 0.90451 0.61174 0.0
H433 H 0.66821 0.9496 0.53884 0.0
H434 H 0.7185 0.82254 0.61432 0.0
H435 H 0.63275 0.92928 0.55093 0.0
H436 H 0.70616 0.80827 0.57612 0.0
O437 O 0.72608 0.93902 0.59619 0.0
H438 H 0.78195 0.88304 0.67848 0.0
H439 H 0.79753 0.9489 0.62777 0.0
H440 H 0.80466 0.95253 0.66932 0.0
H441 H 0.79683 0.91943 0.69498 0.0
H442 H 0.77494 0.88024 0.63685 0.0
H443 H 0.86493 0.92211 0.60158 0.0
H444 H 0.86611 0.95424 0.57362 0.0
O445 O 0.76448 0.94303 0.59838 0.0
C446 C 0.75476 0.90869 0.55167 0.0
C447 C 0.8296 0.95421 0.56831 0.0
C448 C 0.84926 0.92835 0.59383 0.0
N449 N 0.80833 0.92627 0.58984 0.0
C450 C 0.80885 0.94386 0.57437 0.0
C451 C 0.8282 0.9184 0.59947 0.0
C452 C 0.84991 0.94638 0.57815 0.0
C453 C 0.7186 0.85799 0.60376 0.0
N454 N 0.71494 0.87312 0.58626 0.0
C455 C 0.7155 0.83446 0.60042 0.0
C456 C 0.7086 0.82646 0.57897 0.0
C457 C 0.70487 0.84201 0.56121 0.0
C458 C 0.70817 0.86541 0.56518 0.0
C459 C 0.65038 0.90767 0.57508 0.0
C460 C 0.68994 0.93024 0.56161 0.0
C461 C 0.67163 0.90214 0.58463 0.0
N462 N 0.69108 0.91331 0.57777 0.0
C463 C 0.66899 0.93622 0.55168 0.0
C464 C 0.6491 0.92482 0.55848 0.0
C465 C 0.74416 0.95119 0.59819 0.0
C466 C 0.78538 0.8976 0.66749 0.0
C467 C 0.79395 0.93449 0.63886 0.0
C468 C 0.79811 0.9366 0.66235 0.0
C469 C 0.79372 0.91802 0.67674 0.0
N470 N 0.78562 0.91447 0.62994 0.0
C471 C 0.78146 0.89611 0.6439 0.0
Co472 Co 0.41189 0.09612 0.2807 0.0
Co473 Co 0.40913 0.09193 0.22206 0.0
O474 O 0.39858 0.10482 0.25118 0.0
C475 C 0.36211 0.08863 0.29092 0.0
O476 O 0.3608 0.07465 0.27329 0.0
C477 C 0.41307 0.1418 0.21176 0.0
O478 O 0.42474 0.14415 0.23088 0.0
O479 O 0.44144 0.10039 0.22919 0.0
O480 O 0.44326 0.09372 0.26695 0.0
H481 H 0.46268 0.04817 0.17061 0.0
H482 H 0.38372 0.13822 0.27707 0.0
O483 O 0.38097 0.09862 0.29563 0.0
H484 H 0.45947 0.16439 0.30417 0.0
H485 H 0.42136 0.10126 0.3664 0.0
H486 H 0.4457 0.06133 0.29592 0.0
H487 H 0.45204 0.12329 0.29735 0.0
H488 H 0.40543 0.11232 0.32883 0.0
O489 O 0.40461 0.12232 0.20651 0.0
H490 H 0.44883 0.06373 0.20738 0.0
H491 H 0.39233 0.09492 0.17382 0.0
H492 H 0.46227 0.04989 0.33311 0.0
H493 H 0.39033 0.17948 0.28391 0.0
H494 H 0.45009 0.0699 0.36869 0.0
H495 H 0.42847 0.1928 0.29747 0.0
O496 O 0.40646 0.06292 0.27416 0.0
H497 H 0.32437 0.10607 0.21644 0.0
H498 H 0.38597 0.04909 0.20607 0.0
H499 H 0.34585 0.03792 0.1986 0.0
H500 H 0.31473 0.06654 0.20372 0.0
H501 H 0.36473 0.11645 0.22393 0.0
H502 H 0.40566 0.07994 0.13658 0.0
H503 H 0.441 0.05624 0.13483 0.0
O504 O 0.41406 0.06106 0.23645 0.0
C505 C 0.4528 0.09767 0.24765 0.0
C506 C 0.44711 0.05827 0.17116 0.0
C507 C 0.41514 0.07612 0.15207 0.0
N508 N 0.41945 0.07965 0.19288 0.0
C509 C 0.4391 0.06696 0.19199 0.0
C510 C 0.40765 0.08452 0.17322 0.0
C511 C 0.43498 0.06284 0.1511 0.0
C512 C 0.4003 0.14388 0.28317 0.0
N513 N 0.41744 0.12836 0.2869 0.0
C514 C 0.40397 0.16726 0.28693 0.0
C515 C 0.42537 0.17473 0.29452 0.0
C516 C 0.44278 0.1588 0.29826 0.0
C517 C 0.43849 0.13555 0.29432 0.0
C518 C 0.42683 0.09243 0.35101 0.0
C519 C 0.44041 0.07021 0.31131 0.0
C520 C 0.41781 0.09857 0.3297 0.0
N521 N 0.42472 0.08756 0.31018 0.0
C522 C 0.44981 0.06362 0.33233 0.0
C523 C 0.44295 0.07484 0.35229 0.0
C524 C 0.41074 0.05158 0.25593 0.0
C525 C 0.33779 0.09347 0.21408 0.0
C526 C 0.37251 0.06162 0.20843 0.0
C527 C 0.34984 0.05521 0.20411 0.0
C528 C 0.33239 0.07128 0.20698 0.0
N529 N 0.37767 0.08345 0.21532 0.0
C530 C 0.36066 0.09928 0.21822 0.0
Co531 Co 0.90881 0.40765 0.2235 0.0
Co532 Co 0.90857 0.41325 0.28228 0.0
O533 O 0.8974 0.399 0.25393 0.0
C534 C 0.85867 0.41467 0.21471 0.0
O535 O 0.85781 0.42927 0.23185 0.0
C536 C 0.9141 0.3633 0.29292 0.0
O537 O 0.92193 0.3598 0.2721 0.0
O538 O 0.94106 0.40669 0.27377 0.0
O539 O 0.94075 0.411 0.23559 0.0
H540 H 0.96021 0.46423 0.32887 0.0
H541 H 0.88162 0.36505 0.22887 0.0
O542 O 0.87729 0.40423 0.21013 0.0
H543 H 0.95643 0.34007 0.19842 0.0
H544 H 0.9141 0.40099 0.13752 0.0
H545 H 0.93956 0.4441 0.20571 0.0
H546 H 0.94867 0.38105 0.20535 0.0
H547 H 0.90103 0.38977 0.17613 0.0
O548 O 0.90708 0.38313 0.29891 0.0
H549 H 0.94573 0.44615 0.29345 0.0
H550 H 0.89482 0.41057 0.33153 0.0
H551 H 0.95316 0.45586 0.16744 0.0
H552 H 0.88854 0.32388 0.22191 0.0
H553 H 0.94045 0.43421 0.133 0.0
H554 H 0.9262 0.31115 0.20664 0.0
O555 O 0.90297 0.44085 0.22964 0.0
H556 H 0.82544 0.39312 0.29242 0.0
H557 H 0.88316 0.45468 0.29872 0.0
H558 H 0.84278 0.46302 0.30798 0.0
H559 H 0.8136 0.43209 0.30492 0.0
H560 H 0.86602 0.38559 0.28308 0.0
H561 H 0.90881 0.42816 0.36738 0.0
H562 H 0.94172 0.45524 0.36618 0.0
O563 O 0.91056 0.4439 0.26712 0.0
C564 C 0.95138 0.40857 0.25457 0.0
C565 C 0.94585 0.45247 0.32962 0.0
C566 C 0.91701 0.43223 0.35123 0.0
N567 N 0.91944 0.42734 0.31042 0.0
C568 C 0.93757 0.44219 0.30962 0.0
C569 C 0.90918 0.4223 0.33088 0.0
C570 C 0.93547 0.44741 0.35054 0.0
C571 C 0.89799 0.35965 0.22205 0.0
N572 N 0.9147 0.37545 0.21749 0.0
C573 C 0.90183 0.33632 0.21822 0.0
C574 C 0.92298 0.32918 0.20969 0.0
C575 C 0.93996 0.34539 0.20509 0.0
C576 C 0.9355 0.36858 0.20914 0.0
C577 C 0.91985 0.4105 0.1524 0.0
C578 C 0.93405 0.43451 0.19083 0.0
C579 C 0.91249 0.40423 0.17432 0.0
N580 N 0.91976 0.41608 0.19321 0.0
C581 C 0.94177 0.44129 0.16919 0.0
C582 C 0.93462 0.42915 0.14987 0.0
C583 C 0.90656 0.45282 0.24759 0.0
C584 C 0.83801 0.40673 0.29387 0.0
C585 C 0.87057 0.44116 0.29722 0.0
C586 C 0.84773 0.44597 0.30256 0.0
C587 C 0.83137 0.4286 0.30085 0.0
N588 N 0.87695 0.41964 0.29044 0.0
C589 C 0.86101 0.40254 0.28868 0.0
Co590 Co 0.59806 0.90944 0.22208 0.0
Co591 Co 0.5915 0.90734 0.281 0.0
O592 O 0.60594 0.89733 0.25238 0.0
C593 C 0.5905 0.85942 0.21403 0.0
O594 O 0.57768 0.85875 0.23253 0.0
C595 C 0.64103 0.91627 0.2914 0.0
O596 O 0.6426 0.92885 0.27278 0.0
O597 O 0.59589 0.94049 0.27298 0.0
O598 O 0.59556 0.94116 0.23457 0.0
H599 H 0.53737 0.95421 0.32889 0.0
H600 H 0.63968 0.88102 0.22805 0.0
O601 O 0.6005 0.87802 0.20835 0.0
H602 H 0.66749 0.95539 0.19879 0.0
H603 H 0.60622 0.91591 0.13633 0.0
H604 H 0.56299 0.94164 0.20429 0.0
H605 H 0.62618 0.94864 0.20466 0.0
H606 H 0.61624 0.90166 0.17487 0.0
O607 O 0.62204 0.90688 0.29678 0.0
H608 H 0.55545 0.94105 0.29298 0.0
H609 H 0.59773 0.89503 0.33036 0.0
H610 H 0.55246 0.95644 0.1661 0.0
H611 H 0.68117 0.88693 0.22223 0.0
H612 H 0.57419 0.94361 0.13178 0.0
H613 H 0.69532 0.92437 0.20755 0.0
O614 O 0.56467 0.90452 0.22774 0.0
H615 H 0.61605 0.82511 0.28885 0.0
H616 H 0.55275 0.87996 0.30026 0.0
H617 H 0.54699 0.83919 0.31009 0.0
H618 H 0.57879 0.81145 0.30438 0.0
H619 H 0.62102 0.86601 0.27918 0.0
H620 H 0.58032 0.9079 0.36668 0.0
H621 H 0.54982 0.93761 0.36608 0.0
O622 O 0.56056 0.90725 0.26608 0.0
C623 C 0.59586 0.9513 0.25393 0.0
C624 C 0.55059 0.9412 0.32937 0.0
C625 C 0.57473 0.91524 0.35058 0.0
N626 N 0.5775 0.91717 0.30955 0.0
C627 C 0.56083 0.93363 0.30909 0.0
C628 C 0.58458 0.90808 0.32996 0.0
C629 C 0.55761 0.9319 0.35023 0.0
C630 C 0.6457 0.89729 0.2215 0.0
N631 N 0.63051 0.91444 0.21664 0.0
C632 C 0.66922 0.90057 0.21831 0.0
C633 C 0.67714 0.92158 0.2101 0.0
C634 C 0.66154 0.939 0.2052 0.0
C635 C 0.63816 0.93511 0.20863 0.0
C636 C 0.59669 0.92172 0.15116 0.0
C637 C 0.57258 0.93605 0.18945 0.0
C638 C 0.60228 0.9137 0.17303 0.0
N639 N 0.59042 0.92107 0.19186 0.0
C640 C 0.56652 0.94446 0.16786 0.0
C641 C 0.57871 0.93724 0.14862 0.0
C642 C 0.55244 0.90517 0.24585 0.0
C643 C 0.60205 0.83702 0.29139 0.0
C644 C 0.56663 0.86797 0.29764 0.0
C645 C 0.56329 0.84492 0.3033 0.0
C646 C 0.58114 0.82937 0.3001 0.0
N647 N 0.58716 0.87533 0.28907 0.0
C648 C 0.60476 0.8602 0.28595 0.0
Co649 Co 0.09752 0.59501 0.28249 0.0
Co650 Co 0.09362 0.59615 0.22366 0.0
O651 O 0.10701 0.60669 0.25254 0.0
C652 C 0.09153 0.64527 0.28957 0.0
O653 O 0.0793 0.6459 0.27068 0.0
C654 C 0.14346 0.58904 0.21479 0.0
O655 O 0.14474 0.57772 0.23421 0.0
O656 O 0.09928 0.5634 0.23187 0.0
O657 O 0.09431 0.56316 0.26999 0.0
H658 H 0.04306 0.54676 0.17426 0.0
H659 H 0.14045 0.62185 0.27813 0.0
O660 O 0.10063 0.62647 0.29603 0.0
H661 H 0.16409 0.54651 0.30842 0.0
H662 H 0.10169 0.58922 0.36855 0.0
H663 H 0.06063 0.5641 0.299 0.0
H664 H 0.12331 0.55487 0.30113 0.0
H665 H 0.11395 0.60262 0.33035 0.0
O666 O 0.12446 0.59785 0.20855 0.0
H667 H 0.05979 0.56042 0.21064 0.0
H668 H 0.09989 0.60949 0.17466 0.0
H669 H 0.04784 0.55018 0.33684 0.0
H670 H 0.18144 0.6143 0.28539 0.0
H671 H 0.06846 0.56273 0.37196 0.0
H672 H 0.19349 0.57637 0.30056 0.0
O673 O 0.06461 0.60114 0.27552 0.0
H674 H 0.11473 0.67936 0.21578 0.0
H675 H 0.05328 0.62206 0.20572 0.0
H676 H 0.04557 0.66267 0.19677 0.0
H677 H 0.07644 0.69164 0.20177 0.0
H678 H 0.12163 0.63858 0.22473 0.0
H679 H 0.08377 0.59621 0.13786 0.0
H680 H 0.05505 0.5647 0.13753 0.0
O681 O 0.06243 0.59437 0.23776 0.0
C682 C 0.09689 0.55279 0.25087 0.0
C683 C 0.05551 0.56055 0.17419 0.0
C684 C 0.07837 0.58829 0.15376 0.0
N685 N 0.08067 0.58584 0.19479 0.0
C686 C 0.06499 0.5684 0.19474 0.0
C687 C 0.08748 0.5957 0.17464 0.0
C688 C 0.06226 0.57061 0.15358 0.0
C689 C 0.14555 0.60537 0.28493 0.0
N690 N 0.1295 0.58884 0.28925 0.0
C691 C 0.16879 0.60117 0.28892 0.0
C692 C 0.17554 0.57987 0.29741 0.0
C693 C 0.15906 0.56311 0.30181 0.0
C694 C 0.13599 0.56792 0.29758 0.0
C695 C 0.09264 0.58354 0.35337 0.0
C696 C 0.06978 0.56951 0.31419 0.0
C697 C 0.09951 0.59106 0.33169 0.0
N698 N 0.08823 0.58386 0.31244 0.0
C699 C 0.06242 0.56162 0.33558 0.0
C700 C 0.07398 0.56868 0.35527 0.0
C701 C 0.05308 0.59812 0.25719 0.0
C702 C 0.10116 0.66689 0.21349 0.0
C703 C 0.06677 0.63456 0.20802 0.0
C704 C 0.06233 0.65753 0.20286 0.0
C705 C 0.07966 0.67377 0.20566 0.0
N706 N 0.08791 0.62795 0.21569 0.0
C707 C 0.10499 0.64377 0.21845 0.0
Co708 Co 0.41048 0.90675 0.72077 0.0
Co709 Co 0.40495 0.9144 0.77941 0.0
O710 O 0.39661 0.89947 0.75049 0.0
C711 C 0.36093 0.91455 0.71141 0.0
O712 O 0.35989 0.92669 0.73036 0.0
C713 C 0.41395 0.86505 0.78961 0.0
O714 O 0.42509 0.86372 0.77009 0.0
O715 O 0.43845 0.91065 0.77311 0.0
O716 O 0.44146 0.90857 0.73486 0.0
H717 H 0.4485 0.97011 0.82871 0.0
H718 H 0.38066 0.86582 0.72544 0.0
O719 O 0.37969 0.90498 0.70562 0.0
H720 H 0.45597 0.83601 0.70117 0.0
H721 H 0.42075 0.89797 0.63547 0.0
H722 H 0.44584 0.93963 0.7047 0.0
H723 H 0.44987 0.87759 0.70599 0.0
H724 H 0.40391 0.88899 0.67323 0.0
O725 O 0.40468 0.88395 0.79556 0.0
H726 H 0.43731 0.95136 0.79245 0.0
H727 H 0.3904 0.90855 0.82819 0.0
H728 H 0.46331 0.94899 0.66734 0.0
H729 H 0.38596 0.82409 0.72064 0.0
H730 H 0.45075 0.9281 0.63238 0.0
H731 H 0.42386 0.80895 0.70851 0.0
O732 O 0.40623 0.94039 0.72569 0.0
H733 H 0.32302 0.88799 0.78354 0.0
H734 H 0.37584 0.95285 0.79645 0.0
H735 H 0.33447 0.95793 0.80371 0.0
H736 H 0.30775 0.92535 0.79722 0.0
H737 H 0.3645 0.88373 0.77639 0.0
H738 H 0.40127 0.92664 0.86486 0.0
H739 H 0.43045 0.95773 0.86526 0.0
O740 O 0.40493 0.94516 0.76404 0.0
C741 C 0.45034 0.90934 0.7548 0.0
C742 C 0.43572 0.95663 0.82875 0.0
C743 C 0.40923 0.93221 0.84905 0.0
N744 N 0.4131 0.92901 0.80818 0.0
C745 C 0.42925 0.94602 0.80827 0.0
C746 C 0.4032 0.92198 0.82824 0.0
C747 C 0.4256 0.94966 0.84925 0.0
C748 C 0.39714 0.85936 0.71994 0.0
N749 N 0.4149 0.87412 0.71591 0.0
C750 C 0.40006 0.83572 0.71734 0.0
C751 C 0.42134 0.82723 0.71056 0.0
C752 C 0.43937 0.8424 0.70645 0.0
C753 C 0.43582 0.86593 0.70925 0.0
C754 C 0.42639 0.90717 0.65058 0.0
C755 C 0.44038 0.93037 0.68959 0.0
C756 C 0.41687 0.9022 0.672 0.0
N757 N 0.42399 0.91368 0.69117 0.0
C758 C 0.4503 0.93579 0.66847 0.0
C759 C 0.44323 0.92407 0.64886 0.0
C760 C 0.40493 0.95295 0.74356 0.0
C761 C 0.33448 0.90233 0.78641 0.0
C762 C 0.36429 0.93863 0.79351 0.0
C763 C 0.3409 0.94158 0.79771 0.0
C764 C 0.32593 0.92329 0.79408 0.0
N765 N 0.37254 0.91806 0.7859 0.0
C766 C 0.35798 0.9 0.78242 0.0
Co767 Co 0.09144 0.40945 0.781 0.0
Co768 Co 0.09646 0.40953 0.72222 0.0
O769 O 0.10503 0.39812 0.75253 0.0
C770 C 0.1413 0.41573 0.79117 0.0
O771 O 0.14333 0.42806 0.77244 0.0
C772 C 0.08866 0.3594 0.71542 0.0
O773 O 0.07564 0.35933 0.73379 0.0
O774 O 0.06326 0.4045 0.72873 0.0
O775 O 0.06053 0.41169 0.76638 0.0
H776 H 0.04946 0.45521 0.66634 0.0
H777 H 0.11831 0.36633 0.7809 0.0
O778 O 0.12196 0.40713 0.79664 0.0
H779 H 0.04139 0.34457 0.80854 0.0
H780 H 0.08026 0.41102 0.86662 0.0
H781 H 0.05835 0.44617 0.7929 0.0
H782 H 0.05021 0.38479 0.79883 0.0
H783 H 0.09657 0.39674 0.83031 0.0
O784 O 0.0988 0.37777 0.70927 0.0
H785 H 0.0611 0.44149 0.7046 0.0
H786 H 0.11328 0.40041 0.67475 0.0
H787 H 0.04146 0.46084 0.8288 0.0
H788 H 0.11033 0.32593 0.79068 0.0
H789 H 0.05241 0.44323 0.866 0.0
H790 H 0.0716 0.31482 0.80453 0.0
O791 O 0.09802 0.44195 0.77233 0.0
H792 H 0.1797 0.3875 0.72112 0.0
H793 H 0.12394 0.44835 0.70302 0.0
H794 H 0.16507 0.45517 0.69604 0.0
H795 H 0.19328 0.42457 0.70507 0.0
H796 H 0.13838 0.38152 0.72803 0.0
H797 H 0.10212 0.41357 0.63614 0.0
H798 H 0.07005 0.44125 0.63176 0.0
O799 O 0.09407 0.44166 0.7341 0.0
C800 C 0.05147 0.40788 0.74683 0.0
C801 C 0.06353 0.44323 0.66802 0.0
C802 C 0.09308 0.41986 0.65108 0.0
N803 N 0.08805 0.42043 0.69194 0.0
C804 C 0.07024 0.43546 0.68965 0.0
C805 C 0.09932 0.41247 0.67298 0.0
C806 C 0.07508 0.43538 0.64863 0.0
C807 C 0.10148 0.36166 0.7871 0.0
N808 N 0.08478 0.37792 0.78938 0.0
C809 C 0.09703 0.33874 0.79253 0.0
C810 C 0.07529 0.33251 0.80029 0.0
C811 C 0.05833 0.34919 0.80252 0.0
C812 C 0.06341 0.37194 0.79694 0.0
C813 C 0.07533 0.41881 0.85052 0.0
C814 C 0.0631 0.43834 0.80901 0.0
C815 C 0.08455 0.41084 0.8299 0.0
N816 N 0.07831 0.42052 0.80949 0.0
C817 C 0.05352 0.44675 0.82929 0.0
C818 C 0.05969 0.43688 0.85016 0.0
C819 C 0.09639 0.45229 0.7531 0.0
C820 C 0.16757 0.40095 0.71709 0.0
C821 C 0.13609 0.43503 0.70712 0.0
C822 C 0.15937 0.43894 0.70305 0.0
C823 C 0.17518 0.42177 0.70811 0.0
N824 N 0.12875 0.41456 0.71591 0.0
C825 C 0.14415 0.39764 0.7209 0.0
Co826 Co 0.59395 0.09013 0.78138 0.0
Co827 Co 0.59479 0.09738 0.72293 0.0
O828 O 0.60617 0.10449 0.75365 0.0
C829 C 0.59062 0.13984 0.79285 0.0
O830 O 0.58278 0.14371 0.7721 0.0
C831 C 0.64485 0.08914 0.71587 0.0
O832 O 0.64459 0.07449 0.73298 0.0
O833 O 0.59925 0.06384 0.72807 0.0
O834 O 0.59004 0.06004 0.76527 0.0
H835 H 0.54811 0.05391 0.66493 0.0
H836 H 0.63806 0.1152 0.7837 0.0
O837 O 0.59705 0.11975 0.79865 0.0
H838 H 0.65643 0.0355 0.80525 0.0
H839 H 0.59324 0.0726 0.86597 0.0
H840 H 0.55356 0.06107 0.79225 0.0
H841 H 0.61669 0.04663 0.7961 0.0
H842 H 0.60831 0.09003 0.83052 0.0
O843 O 0.62666 0.09986 0.71031 0.0
H844 H 0.56209 0.06347 0.70369 0.0
H845 H 0.60461 0.11591 0.67623 0.0
H846 H 0.53799 0.04309 0.82719 0.0
H847 H 0.67803 0.10487 0.79298 0.0
H848 H 0.55788 0.04883 0.86444 0.0
H849 H 0.68741 0.06474 0.80379 0.0
O850 O 0.56205 0.09872 0.7728 0.0
H851 H 0.6186 0.18022 0.72456 0.0
H852 H 0.55654 0.12625 0.70481 0.0
H853 H 0.55065 0.16772 0.69909 0.0
H854 H 0.58187 0.19503 0.70893 0.0
H855 H 0.62361 0.1386 0.7303 0.0
H856 H 0.59128 0.10676 0.63715 0.0
H857 H 0.56272 0.07564 0.63132 0.0
O858 O 0.56249 0.09486 0.73457 0.0
C859 C 0.59413 0.05165 0.74547 0.0
C860 C 0.56049 0.06756 0.66725 0.0
C861 C 0.58472 0.09722 0.65166 0.0
N862 N 0.58392 0.09042 0.69226 0.0
C863 C 0.56842 0.0731 0.68917 0.0
C864 C 0.59222 0.10231 0.67384 0.0
C865 C 0.5687 0.07976 0.6484 0.0
C866 C 0.642 0.09777 0.78861 0.0
N867 N 0.62505 0.08159 0.7895 0.0
C868 C 0.66466 0.09199 0.79375 0.0
C869 C 0.66992 0.06946 0.79978 0.0
C870 C 0.65255 0.05304 0.80059 0.0
C871 C 0.63009 0.05944 0.79532 0.0
C872 C 0.58451 0.06982 0.84983 0.0
C873 C 0.56248 0.06336 0.80829 0.0
C874 C 0.59298 0.07962 0.82968 0.0
N875 N 0.58209 0.07617 0.80921 0.0
C876 C 0.55351 0.05326 0.82807 0.0
C877 C 0.56466 0.05651 0.84896 0.0
C878 C 0.5518 0.09726 0.75354 0.0
C879 C 0.60488 0.16849 0.72019 0.0
C880 C 0.5701 0.13801 0.70933 0.0
C881 C 0.56672 0.16148 0.70595 0.0
C882 C 0.58426 0.1768 0.71145 0.0
N883 N 0.59037 0.12999 0.71791 0.0
C884 C 0.60764 0.1449 0.72333 0.0
Co885 Co 0.90694 0.59201 0.72175 0.0
Co886 Co 0.91118 0.59633 0.78048 0.0
O887 O 0.89774 0.60536 0.75111 0.0
C888 C 0.91326 0.64193 0.71276 0.0
O889 O 0.9251 0.64325 0.73187 0.0
C890 C 0.8614 0.58941 0.79014 0.0
O891 O 0.86006 0.57629 0.77187 0.0
O892 O 0.90545 0.56322 0.77396 0.0
O893 O 0.90949 0.56082 0.7358 0.0
H894 H 0.96128 0.54916 0.83229 0.0
H895 H 0.86452 0.61974 0.72483 0.0
O896 O 0.90442 0.62285 0.70671 0.0
H897 H 0.83952 0.54353 0.69778 0.0
H898 H 0.90315 0.5823 0.63601 0.0
H899 H 0.94218 0.55844 0.70712 0.0
H900 H 0.88042 0.55146 0.70504 0.0
H901 H 0.89129 0.59813 0.67341 0.0
O902 O 0.88038 0.59884 0.79553 0.0
H903 H 0.94484 0.56122 0.79524 0.0
H904 H 0.90509 0.61223 0.82875 0.0
H905 H 0.95447 0.54205 0.67012 0.0
H906 H 0.82343 0.61262 0.71759 0.0
H907 H 0.93491 0.55399 0.63422 0.0
H908 H 0.8107 0.57426 0.70402 0.0
O909 O 0.93997 0.59794 0.72833 0.0
H910 H 0.89016 0.6798 0.78441 0.0
H911 H 0.95164 0.62315 0.79691 0.0
H912 H 0.9594 0.66416 0.80389 0.0
H913 H 0.92851 0.6928 0.79767 0.0
H914 H 0.88322 0.63862 0.7774 0.0
H915 H 0.92096 0.60061 0.86618 0.0
H916 H 0.94933 0.5689 0.8681 0.0
O917 O 0.94235 0.59384 0.76646 0.0
C918 C 0.90718 0.55158 0.75551 0.0
C919 C 0.94899 0.56305 0.83167 0.0
C920 C 0.92634 0.5919 0.85069 0.0
N921 N 0.92414 0.58751 0.80981 0.0
C922 C 0.93967 0.57 0.81073 0.0
C923 C 0.91737 0.59838 0.82945 0.0
C924 C 0.94226 0.57412 0.85176 0.0
C925 C 0.85911 0.60306 0.71877 0.0
N926 N 0.87485 0.58607 0.71529 0.0
C927 C 0.83583 0.59911 0.71476 0.0
C928 C 0.8287 0.57757 0.70717 0.0
C929 C 0.84485 0.56032 0.70368 0.0
C930 C 0.86799 0.56489 0.70788 0.0
C931 C 0.91178 0.57693 0.65154 0.0
C932 C 0.93348 0.5636 0.69159 0.0
C933 C 0.90517 0.58587 0.67276 0.0
N934 N 0.91593 0.57909 0.69244 0.0
C935 C 0.94056 0.55431 0.67068 0.0
C936 C 0.92959 0.56104 0.65055 0.0
C937 C 0.95159 0.59625 0.74677 0.0
C938 C 0.90374 0.66748 0.78723 0.0
C939 C 0.93814 0.63551 0.79408 0.0
C940 C 0.94262 0.6587 0.79812 0.0
C941 C 0.92527 0.67476 0.79464 0.0
N942 N 0.91697 0.62849 0.78683 0.0
C943 C 0.89989 0.64414 0.78337 0.0
Co944 Co 0.22261 0.40844 0.09201 0.0
Co945 Co 0.28144 0.40878 0.09641 0.0
O946 O 0.25125 0.39733 0.10535 0.0
C947 C 0.21393 0.41512 0.1419 0.0
O948 O 0.23361 0.42602 0.14325 0.0
C949 C 0.28779 0.35855 0.08923 0.0
O950 O 0.26926 0.35842 0.07645 0.0
O951 O 0.27465 0.40361 0.06327 0.0
O952 O 0.23689 0.41034 0.06089 0.0
H953 H 0.33698 0.4542 0.04862 0.0
H954 H 0.22291 0.36573 0.11954 0.0
O955 O 0.20742 0.40667 0.12281 0.0
H956 H 0.19483 0.3428 0.04311 0.0
H957 H 0.13686 0.40974 0.08199 0.0
H958 H 0.21027 0.44466 0.05853 0.0
H959 H 0.20442 0.38319 0.05131 0.0
H960 H 0.17341 0.39576 0.09803 0.0
O961 O 0.29436 0.37705 0.09886 0.0
H962 H 0.2988 0.44052 0.06065 0.0
H963 H 0.32902 0.39985 0.11293 0.0
H964 H 0.17415 0.45903 0.04189 0.0
H965 H 0.2133 0.32515 0.11215 0.0
H966 H 0.1371 0.44153 0.05362 0.0
H967 H 0.19922 0.31346 0.07368 0.0
O968 O 0.2313 0.441 0.09807 0.0
H969 H 0.28328 0.38733 0.17982 0.0
H970 H 0.30061 0.44792 0.12343 0.0
H971 H 0.30773 0.45512 0.16447 0.0
H972 H 0.29907 0.42468 0.193 0.0
H973 H 0.27622 0.38095 0.13859 0.0
H974 H 0.36756 0.41298 0.10139 0.0
H975 H 0.37171 0.44044 0.06907 0.0
O976 O 0.26951 0.44086 0.09394 0.0
C977 C 0.25641 0.40682 0.05164 0.0
C978 C 0.3354 0.44233 0.0628 0.0
C979 C 0.35255 0.41919 0.09241 0.0
N980 N 0.31166 0.41968 0.08768 0.0
C981 C 0.31382 0.43458 0.06973 0.0
C982 C 0.33069 0.41182 0.09887 0.0
C983 C 0.35487 0.43459 0.07427 0.0
C984 C 0.21661 0.36079 0.10281 0.0
N985 N 0.21416 0.37682 0.0859 0.0
C986 C 0.21127 0.33778 0.09871 0.0
C987 C 0.2034 0.33123 0.07711 0.0
C988 C 0.20094 0.34768 0.05995 0.0
C989 C 0.20646 0.37052 0.06467 0.0
C990 C 0.1529 0.41747 0.0767 0.0
C991 C 0.19423 0.43687 0.06361 0.0
C992 C 0.17364 0.40967 0.08577 0.0
N993 N 0.19396 0.41928 0.07909 0.0
C994 C 0.17382 0.44512 0.05418 0.0
C995 C 0.15304 0.43531 0.06079 0.0
C996 C 0.25049 0.45141 0.09633 0.0
C997 C 0.28716 0.40072 0.16755 0.0
C998 C 0.29671 0.43463 0.13572 0.0
C999 C 0.30084 0.43878 0.15894 0.0
C1000 C 0.29599 0.42169 0.17494 0.0
N1001 N 0.28803 0.41403 0.12861 0.0
C1002 C 0.28327 0.39718 0.14418 0.0
Co1003 Co 0.28105 0.59129 0.90746 0.0
Co1004 Co 0.22199 0.59616 0.90953 0.0
O1005 O 0.25207 0.60498 0.89752 0.0
C1006 C 0.2902 0.6411 0.91668 0.0
O1007 O 0.27161 0.64204 0.92935 0.0
C1008 C 0.21376 0.58924 0.85941 0.0
O1009 O 0.23226 0.57644 0.85841 0.0
O1010 O 0.22847 0.56297 0.90416 0.0
O1011 O 0.26689 0.55983 0.90724 0.0
H1012 H 0.16687 0.54827 0.95542 0.0
H1013 H 0.27808 0.62084 0.86621 0.0
O1014 O 0.29602 0.62233 0.90711 0.0
H1015 H 0.31198 0.5482 0.83928 0.0
H1016 H 0.36703 0.5827 0.90831 0.0
H1017 H 0.29393 0.55533 0.94093 0.0
H1018 H 0.30201 0.5535 0.88005 0.0
H1019 H 0.33028 0.59908 0.89538 0.0
O1020 O 0.20818 0.59889 0.8782 0.0
H1021 H 0.20486 0.55999 0.94095 0.0
H1022 H 0.17443 0.61354 0.90217 0.0
H1023 H 0.33029 0.53826 0.95415 0.0
H1024 H 0.28789 0.61636 0.82531 0.0
H1025 H 0.36718 0.55197 0.93782 0.0
H1026 H 0.30491 0.57979 0.81159 0.0
O1027 O 0.2729 0.59532 0.9406 0.0
H1028 H 0.22017 0.67972 0.88853 0.0
H1029 H 0.20412 0.62312 0.94928 0.0
H1030 H 0.19736 0.66418 0.95679 0.0
H1031 H 0.20535 0.69281 0.92627 0.0
H1032 H 0.22689 0.63847 0.88183 0.0
H1033 H 0.13609 0.60237 0.91613 0.0
H1034 H 0.13214 0.56958 0.94304 0.0
O1035 O 0.23454 0.59342 0.94118 0.0
C1036 C 0.24687 0.55115 0.90497 0.0
C1037 C 0.16837 0.56265 0.94377 0.0
C1038 C 0.1511 0.59302 0.92173 0.0
N1039 N 0.19192 0.58762 0.92101 0.0
C1040 C 0.18984 0.56937 0.93555 0.0
C1041 C 0.17286 0.59926 0.91389 0.0
C1042 C 0.1489 0.57461 0.93682 0.0
C1043 C 0.28546 0.60487 0.86036 0.0
N1044 N 0.28928 0.58736 0.87546 0.0
C1045 C 0.29099 0.60244 0.83719 0.0
C1046 C 0.30054 0.58192 0.8295 0.0
C1047 C 0.3045 0.56419 0.84502 0.0
C1048 C 0.29874 0.56724 0.86807 0.0
C1049 C 0.35107 0.57655 0.91553 0.0
C1050 C 0.3099 0.56125 0.93362 0.0
C1051 C 0.3302 0.58582 0.90833 0.0
N1052 N 0.30995 0.57804 0.91728 0.0
C1053 C 0.33044 0.55158 0.94123 0.0
C1054 C 0.35114 0.5593 0.93208 0.0
C1055 C 0.25385 0.5944 0.95136 0.0
C1056 C 0.21657 0.66741 0.90195 0.0
C1057 C 0.20774 0.63546 0.93595 0.0
C1058 C 0.20381 0.65869 0.94028 0.0
C1059 C 0.20828 0.67474 0.92314 0.0
N1060 N 0.21582 0.62839 0.91511 0.0
C1061 C 0.22027 0.64403 0.89823 0.0
Co1062 Co 0.40707 0.22057 0.91555 0.0
Co1063 Co 0.40778 0.27932 0.90616 0.0
O1064 O 0.39643 0.24824 0.89953 0.0
C1065 C 0.41543 0.2083 0.86623 0.0
O1066 O 0.42257 0.2293 0.86229 0.0
C1067 C 0.35782 0.28839 0.91446 0.0
O1068 O 0.35747 0.27195 0.92985 0.0
O1069 O 0.40304 0.27514 0.9398 0.0
O1070 O 0.40622 0.2371 0.9456 0.0
H1071 H 0.45294 0.3386 0.94961 0.0
H1072 H 0.36646 0.21877 0.88517 0.0
O1073 O 0.40801 0.20271 0.88603 0.0
H1074 H 0.33873 0.19337 0.96092 0.0
H1075 H 0.40848 0.13595 0.93326 0.0
H1076 H 0.44145 0.21167 0.95184 0.0
H1077 H 0.37936 0.20372 0.95522 0.0
H1078 H 0.39496 0.17077 0.91342 0.0
O1079 O 0.37602 0.29231 0.90302 0.0
H1080 H 0.43917 0.29958 0.94072 0.0
H1081 H 0.39925 0.32546 0.88561 0.0
H1082 H 0.45529 0.17733 0.97232 0.0
H1083 H 0.32569 0.20847 0.89005 0.0
H1084 H 0.43881 0.13912 0.96302 0.0
H1085 H 0.31159 0.19571 0.92817 0.0
O1086 O 0.43995 0.22928 0.91096 0.0
H1087 H 0.38503 0.27599 0.82315 0.0
H1088 H 0.4468 0.29593 0.87737 0.0
H1089 H 0.45332 0.30048 0.83585 0.0
H1090 H 0.42227 0.29055 0.80842 0.0
H1091 H 0.37934 0.27143 0.86483 0.0
H1092 H 0.41243 0.36477 0.89401 0.0
H1093 H 0.43958 0.37154 0.92614 0.0
O1094 O 0.43981 0.26769 0.90923 0.0
C1095 C 0.40391 0.25761 0.95282 0.0
C1096 C 0.4412 0.33587 0.9355 0.0
C1097 C 0.41847 0.35055 0.90429 0.0
N1098 N 0.4187 0.31017 0.91245 0.0
C1099 C 0.43338 0.3138 0.93035 0.0
C1100 C 0.41106 0.32824 0.89962 0.0
C1101 C 0.43369 0.35434 0.92233 0.0
C1102 C 0.36044 0.21316 0.90178 0.0
N1103 N 0.37524 0.21188 0.91989 0.0
C1104 C 0.33735 0.20738 0.90445 0.0
C1105 C 0.32944 0.20023 0.92585 0.0
C1106 C 0.34466 0.19893 0.94423 0.0
C1107 C 0.36762 0.20488 0.94092 0.0
C1108 C 0.4158 0.1525 0.93746 0.0
C1109 C 0.43414 0.19511 0.94777 0.0
C1110 C 0.40828 0.17226 0.92622 0.0
N1111 N 0.41742 0.19322 0.93145 0.0
C1112 C 0.44207 0.17572 0.95939 0.0
C1113 C 0.43281 0.15429 0.95416 0.0
C1114 C 0.45034 0.24854 0.90993 0.0
C1115 C 0.39867 0.28042 0.83493 0.0
C1116 C 0.43326 0.29142 0.86555 0.0
C1117 C 0.43702 0.29412 0.84206 0.0
C1118 C 0.41958 0.28856 0.82668 0.0
N1119 N 0.41269 0.28347 0.87351 0.0
C1120 C 0.39552 0.27796 0.85854 0.0
Co1121 Co 0.72268 0.41018 0.90666 0.0
Co1122 Co 0.78152 0.40662 0.91123 0.0
O1123 O 0.75226 0.39704 0.89781 0.0
C1124 C 0.71391 0.36038 0.91449 0.0
O1125 O 0.73292 0.3596 0.92653 0.0
C1126 C 0.79084 0.41325 0.8614 0.0
O1127 O 0.77164 0.42492 0.85998 0.0
O1128 O 0.77459 0.43962 0.90538 0.0
O1129 O 0.73634 0.44162 0.90862 0.0
H1130 H 0.83251 0.45478 0.96136 0.0
H1131 H 0.72615 0.3815 0.86487 0.0
O1132 O 0.70795 0.37906 0.9048 0.0
H1133 H 0.6989 0.45694 0.83807 0.0
H1134 H 0.63688 0.41874 0.90226 0.0
H1135 H 0.70752 0.44429 0.94118 0.0
H1136 H 0.70574 0.44994 0.8792 0.0
H1137 H 0.6745 0.40312 0.89091 0.0
O1138 O 0.79674 0.40431 0.88045 0.0
H1139 H 0.79569 0.44208 0.94484 0.0
H1140 H 0.83001 0.39145 0.9053 0.0
H1141 H 0.67028 0.4605 0.95295 0.0
H1142 H 0.71934 0.38769 0.82357 0.0
H1143 H 0.63462 0.44771 0.93344 0.0
H1144 H 0.70569 0.42567 0.80993 0.0
O1145 O 0.72922 0.4051 0.93984 0.0
H1146 H 0.78641 0.32311 0.89051 0.0
H1147 H 0.79821 0.38022 0.9518 0.0
H1148 H 0.80558 0.33934 0.95973 0.0
H1149 H 0.79969 0.31046 0.92895 0.0
H1150 H 0.77905 0.36418 0.88338 0.0
H1151 H 0.86724 0.40371 0.92126 0.0
H1152 H 0.86863 0.43555 0.94956 0.0
O1153 O 0.76738 0.40899 0.94234 0.0
C1154 C 0.756 0.45106 0.9066 0.0
C1155 C 0.83212 0.44084 0.9491 0.0
C1156 C 0.85161 0.4122 0.92657 0.0
N1157 N 0.81069 0.41594 0.92425 0.0
C1158 C 0.81132 0.43353 0.93973 0.0
C1159 C 0.83049 0.40536 0.91755 0.0
C1160 C 0.85238 0.43006 0.94245 0.0
C1161 C 0.72002 0.398 0.85907 0.0
N1162 N 0.71628 0.41531 0.87443 0.0
C1163 C 0.71627 0.40143 0.83567 0.0
C1164 C 0.70864 0.42276 0.82802 0.0
C1165 C 0.70484 0.44031 0.8438 0.0
C1166 C 0.7088 0.43627 0.86707 0.0
C1167 C 0.6523 0.42449 0.91086 0.0
C1168 C 0.69209 0.43876 0.9325 0.0
C1169 C 0.67365 0.41567 0.90454 0.0
N1170 N 0.6932 0.42291 0.91527 0.0
C1171 C 0.67105 0.44795 0.93929 0.0
C1172 C 0.65104 0.44074 0.92835 0.0
C1173 C 0.74764 0.40678 0.95152 0.0
C1174 C 0.78908 0.33553 0.90405 0.0
C1175 C 0.79556 0.36776 0.93833 0.0
C1176 C 0.7998 0.34464 0.94291 0.0
C1177 C 0.79651 0.32844 0.92563 0.0
N1178 N 0.78828 0.37458 0.91712 0.0
C1179 C 0.78503 0.35881 0.90009 0.0
Co1180 Co 0.59478 0.78151 0.91322 0.0
Co1181 Co 0.59353 0.72287 0.907 0.0
O1182 O 0.60545 0.75319 0.89855 0.0
C1183 C 0.58976 0.79357 0.86359 0.0
O1184 O 0.58088 0.77323 0.85964 0.0
C1185 C 0.64361 0.71412 0.91303 0.0
O1186 O 0.64481 0.73228 0.92631 0.0
O1187 O 0.59989 0.72854 0.94019 0.0
O1188 O 0.59203 0.76591 0.94348 0.0
H1189 H 0.54835 0.66725 0.95493 0.0
H1190 H 0.63767 0.78193 0.88615 0.0
O1191 O 0.59712 0.79872 0.88352 0.0
H1192 H 0.66066 0.80425 0.96443 0.0
H1193 H 0.59687 0.86616 0.93071 0.0
H1194 H 0.55706 0.79292 0.94532 0.0
H1195 H 0.62013 0.79643 0.95533 0.0
H1196 H 0.61021 0.8304 0.91247 0.0
O1197 O 0.62474 0.70895 0.9033 0.0
H1198 H 0.56268 0.70537 0.94344 0.0
H1199 H 0.6003 0.67549 0.88872 0.0
H1200 H 0.5432 0.82824 0.964 0.0
H1201 H 0.67841 0.78985 0.89444 0.0
H1202 H 0.56314 0.86521 0.95672 0.0
H1203 H 0.69013 0.80102 0.93385 0.0
O1204 O 0.5622 0.77372 0.90604 0.0
H1205 H 0.61283 0.72226 0.82306 0.0
H1206 H 0.55316 0.70549 0.88056 0.0
H1207 H 0.54481 0.69935 0.83958 0.0
H1208 H 0.5748 0.70769 0.8105 0.0
H1209 H 0.62034 0.7284 0.86425 0.0
H1210 H 0.58647 0.63702 0.89968 0.0
H1211 H 0.56022 0.63273 0.93295 0.0
O1212 O 0.56182 0.73555 0.91067 0.0
C1213 C 0.59623 0.74638 0.95228 0.0
C1214 C 0.55969 0.6689 0.94033 0.0
C1215 C 0.58109 0.65194 0.90933 0.0
N1216 N 0.58205 0.6927 0.91524 0.0
C1217 C 0.56782 0.69045 0.93371 0.0
C1218 C 0.58886 0.67377 0.9032 0.0
C1219 C 0.56637 0.64954 0.92801 0.0
C1220 C 0.64262 0.78699 0.90328 0.0
N1221 N 0.62651 0.7888 0.9202 0.0
C1222 C 0.66572 0.79137 0.9079 0.0
C1223 C 0.67229 0.7976 0.93002 0.0
C1224 C 0.65577 0.7994 0.94719 0.0
C1225 C 0.63284 0.79487 0.94195 0.0
C1226 C 0.58802 0.85016 0.93401 0.0
C1227 C 0.56581 0.80894 0.94204 0.0
C1228 C 0.59546 0.82987 0.92369 0.0
N1229 N 0.58437 0.8096 0.92774 0.0
C1230 C 0.5579 0.82889 0.95268 0.0
C1231 C 0.56909 0.84962 0.94859 0.0
C1232 C 0.55152 0.75469 0.90801 0.0
C1233 C 0.59964 0.71852 0.83557 0.0
C1234 C 0.56624 0.70931 0.86802 0.0
C1235 C 0.56145 0.70571 0.84484 0.0
C1236 C 0.57829 0.71038 0.82853 0.0
N1237 N 0.58722 0.71729 0.8748 0.0
C1238 C 0.60382 0.72189 0.85891 0.0
Co1239 Co 0.78255 0.59494 0.08949 0.0
Co1240 Co 0.72388 0.59484 0.09581 0.0
O1241 O 0.75446 0.60606 0.10415 0.0
C1242 C 0.79358 0.58908 0.13917 0.0
O1243 O 0.77275 0.58134 0.14284 0.0
C1244 C 0.71616 0.64518 0.08964 0.0
O1245 O 0.73339 0.64593 0.07515 0.0
O1246 O 0.72959 0.60081 0.06257 0.0
O1247 O 0.76703 0.59324 0.05912 0.0
H1248 H 0.66692 0.55072 0.04842 0.0
H1249 H 0.78382 0.6373 0.11743 0.0
O1250 O 0.79947 0.59615 0.11936 0.0
H1251 H 0.808 0.66108 0.03996 0.0
H1252 H 0.86749 0.59448 0.07377 0.0
H1253 H 0.79318 0.55805 0.05614 0.0
H1254 H 0.79867 0.62064 0.04811 0.0
H1255 H 0.8319 0.60844 0.09184 0.0
O1256 O 0.71092 0.62642 0.09953 0.0
H1257 H 0.70544 0.56406 0.05972 0.0
H1258 H 0.67678 0.60316 0.11408 0.0
H1259 H 0.82833 0.54364 0.03756 0.0
H1260 H 0.79323 0.67793 0.11009 0.0
H1261 H 0.86583 0.56188 0.04636 0.0
H1262 H 0.80537 0.69005 0.0711 0.0
O1263 O 0.77397 0.56243 0.0959 0.0
H1264 H 0.72357 0.61471 0.17965 0.0
H1265 H 0.70561 0.55502 0.12246 0.0
H1266 H 0.6991 0.54711 0.16347 0.0
H1267 H 0.70804 0.57712 0.19239 0.0
H1268 H 0.73011 0.62177 0.13845 0.0
H1269 H 0.63793 0.59036 0.10329 0.0
H1270 H 0.63282 0.56387 0.07029 0.0
O1271 O 0.73572 0.56283 0.0922 0.0
C1272 C 0.74742 0.59729 0.05042 0.0
C1273 C 0.66893 0.56218 0.0629 0.0
C1274 C 0.65266 0.58443 0.09369 0.0
N1275 N 0.6934 0.58412 0.08773 0.0
C1276 C 0.6907 0.56974 0.06942 0.0
C1277 C 0.67471 0.59162 0.09971 0.0
C1278 C 0.6498 0.56957 0.07517 0.0
C1279 C 0.78926 0.64243 0.10047 0.0
N1280 N 0.79077 0.6266 0.08325 0.0
C1281 C 0.79449 0.66546 0.09639 0.0
C1282 C 0.80127 0.67225 0.07451 0.0
C1283 C 0.80274 0.65601 0.05702 0.0
C1284 C 0.79736 0.63314 0.06172 0.0
C1285 C 0.85125 0.58641 0.06977 0.0
C1286 C 0.80943 0.56612 0.06002 0.0
C1287 C 0.83105 0.59421 0.07998 0.0
N1288 N 0.81048 0.58409 0.07503 0.0
C1289 C 0.82927 0.55787 0.04945 0.0
C1290 C 0.85031 0.56811 0.0544 0.0
C1291 C 0.7547 0.55215 0.09428 0.0
C1292 C 0.71958 0.60151 0.16721 0.0
C1293 C 0.70971 0.56809 0.13493 0.0
C1294 C 0.7059 0.56355 0.15813 0.0
C1295 C 0.71089 0.5804 0.17435 0.0
N1296 N 0.71822 0.58884 0.12806 0.0
C1297 C 0.72317 0.60543 0.14386 0.0
Co1298 Co 0.40874 0.72295 0.09452 0.0
Co1299 Co 0.40901 0.78176 0.09383 0.0
O1300 O 0.39734 0.75253 0.10536 0.0
C1301 C 0.35841 0.71591 0.08769 0.0
O1302 O 0.35767 0.73472 0.07532 0.0
C1303 C 0.41424 0.79 0.14428 0.0
O1304 O 0.42727 0.7717 0.14585 0.0
O1305 O 0.44122 0.77256 0.1009 0.0
O1306 O 0.44078 0.73514 0.09214 0.0
H1307 H 0.46321 0.83271 0.05022 0.0
H1308 H 0.38182 0.72596 0.13747 0.0
O1309 O 0.37718 0.70961 0.09691 0.0
H1310 H 0.456 0.6923 0.16006 0.0
H1311 H 0.41359 0.63666 0.09444 0.0
H1312 H 0.43987 0.70796 0.05723 0.0
H1313 H 0.44817 0.70194 0.11968 0.0
H1314 H 0.40033 0.67435 0.10835 0.0
O1315 O 0.4056 0.7957 0.12506 0.0
H1316 H 0.44781 0.79581 0.06408 0.0
H1317 H 0.3954 0.83065 0.1007 0.0
H1318 H 0.4537 0.67065 0.04286 0.0
H1319 H 0.38881 0.71635 0.17807 0.0
H1320 H 0.44058 0.63466 0.06154 0.0
H1321 H 0.42615 0.69945 0.18959 0.0
O1322 O 0.4029 0.73176 0.06196 0.0
H1323 H 0.32494 0.79004 0.11066 0.0
H1324 H 0.3856 0.80219 0.05305 0.0
H1325 H 0.34567 0.81228 0.04361 0.0
H1326 H 0.315 0.80627 0.07256 0.0
H1327 H 0.36508 0.77992 0.11927 0.0
H1328 H 0.4103 0.86793 0.08736 0.0
H1329 H 0.44438 0.86912 0.06182 0.0
O1330 O 0.41231 0.76902 0.06212 0.0
C1331 C 0.4515 0.75365 0.09685 0.0
C1332 C 0.44828 0.83242 0.06125 0.0
C1333 C 0.41859 0.85218 0.08209 0.0
N1334 N 0.42053 0.81104 0.0829 0.0
C1335 C 0.43946 0.81157 0.06912 0.0
C1336 C 0.41024 0.83101 0.0896 0.0
C1337 C 0.43772 0.85284 0.06778 0.0
C1338 C 0.39806 0.71849 0.14234 0.0
N1339 N 0.41458 0.71452 0.1262 0.0
C1340 C 0.40194 0.71313 0.16536 0.0
C1341 C 0.4229 0.70367 0.17182 0.0
C1342 C 0.43966 0.69968 0.15526 0.0
C1343 C 0.43518 0.70526 0.13241 0.0
C1344 C 0.41952 0.65223 0.08622 0.0
C1345 C 0.43418 0.69238 0.06552 0.0
C1346 C 0.41205 0.67362 0.09402 0.0
N1347 N 0.41957 0.69336 0.08381 0.0
C1348 C 0.44202 0.6713 0.05728 0.0
C1349 C 0.43465 0.65112 0.06776 0.0
C1350 C 0.40752 0.75045 0.05153 0.0
C1351 C 0.33815 0.79277 0.09791 0.0
C1352 C 0.37236 0.79939 0.06568 0.0
C1353 C 0.34978 0.80521 0.06027 0.0
C1354 C 0.33258 0.80186 0.07653 0.0
N1355 N 0.3777 0.79051 0.0867 0.0
C1356 C 0.36092 0.78714 0.10271 0.0
Co1357 Co 0.59255 0.2825 0.09804 0.0
Co1358 Co 0.59345 0.22363 0.09657 0.0
O1359 O 0.60441 0.25296 0.10845 0.0
C1360 C 0.64271 0.28949 0.09122 0.0
O1361 O 0.64329 0.27035 0.07934 0.0
C1362 C 0.58777 0.21575 0.14685 0.0
O1363 O 0.57564 0.23468 0.14814 0.0
O1364 O 0.56092 0.23211 0.10307 0.0
O1365 O 0.56069 0.26983 0.09567 0.0
H1366 H 0.54083 0.17191 0.05188 0.0
H1367 H 0.61992 0.27934 0.14069 0.0
O1368 O 0.62399 0.29616 0.10027 0.0
H1369 H 0.54539 0.31135 0.16447 0.0
H1370 H 0.58657 0.36869 0.0992 0.0
H1371 H 0.56072 0.29754 0.06136 0.0
H1372 H 0.55306 0.30258 0.12386 0.0
H1373 H 0.60053 0.33101 0.1124 0.0
O1374 O 0.59641 0.20957 0.12776 0.0
H1375 H 0.55529 0.20902 0.06621 0.0
H1376 H 0.60795 0.175 0.10324 0.0
H1377 H 0.54619 0.33484 0.04772 0.0
H1378 H 0.6131 0.28809 0.18151 0.0
H1379 H 0.55909 0.37076 0.06672 0.0
H1380 H 0.57557 0.30413 0.19364 0.0
O1381 O 0.59823 0.27428 0.06527 0.0
H1382 H 0.67736 0.21677 0.1148 0.0
H1383 H 0.61795 0.20425 0.05595 0.0
H1384 H 0.65825 0.1952 0.04703 0.0
H1385 H 0.68829 0.20142 0.0766 0.0
H1386 H 0.63684 0.22582 0.1229 0.0
H1387 H 0.594 0.13751 0.08939 0.0
H1388 H 0.56028 0.13581 0.06341 0.0
O1389 O 0.59049 0.23663 0.06497 0.0
C1390 C 0.5503 0.25091 0.09947 0.0
C1391 C 0.55562 0.17243 0.06309 0.0
C1392 C 0.58546 0.15313 0.08413 0.0
N1393 N 0.58268 0.19422 0.08522 0.0
C1394 C 0.56392 0.19339 0.07122 0.0
C1395 C 0.59328 0.17441 0.09191 0.0
C1396 C 0.56652 0.15218 0.06958 0.0
C1397 C 0.6036 0.28647 0.14581 0.0
N1398 N 0.58689 0.29041 0.12988 0.0
C1399 C 0.59982 0.29133 0.16896 0.0
C1400 C 0.57875 0.3003 0.17576 0.0
C1401 C 0.5618 0.30433 0.15941 0.0
C1402 C 0.5662 0.29924 0.13643 0.0
C1403 C 0.58074 0.35316 0.09085 0.0
C1404 C 0.56633 0.31309 0.06979 0.0
C1405 C 0.5886 0.33177 0.09823 0.0
N1406 N 0.58121 0.31207 0.08785 0.0
C1407 C 0.55808 0.33416 0.06195 0.0
C1408 C 0.56534 0.35431 0.07261 0.0
C1409 C 0.59444 0.25553 0.05463 0.0
C1410 C 0.66442 0.21394 0.10179 0.0
C1411 C 0.63091 0.20711 0.06886 0.0
C1412 C 0.65371 0.20188 0.06374 0.0
C1413 C 0.67055 0.20536 0.08034 0.0
N1414 N 0.62503 0.21552 0.08994 0.0
C1415 C 0.64145 0.21896 0.1063 0.0
Co1416 Co 0.90621 0.72195 0.59282 0.0
Co1417 Co 0.9067 0.78084 0.5944 0.0
O1418 O 0.89492 0.7512 0.60481 0.0
C1419 C 0.91208 0.71361 0.64301 0.0
O1420 O 0.92384 0.73278 0.64446 0.0
C1421 C 0.8567 0.78969 0.58675 0.0
O1422 O 0.8556 0.77146 0.57355 0.0
O1423 O 0.90084 0.77256 0.5617 0.0
O1424 O 0.90927 0.73508 0.56123 0.0
H1425 H 0.95176 0.83343 0.54302 0.0
H1426 H 0.8627 0.72383 0.61891 0.0
O1427 O 0.90327 0.70762 0.62393 0.0
H1428 H 0.84181 0.69276 0.54306 0.0
H1429 H 0.90656 0.63586 0.58519 0.0
H1430 H 0.94436 0.70801 0.56223 0.0
H1431 H 0.88199 0.70222 0.55212 0.0
H1432 H 0.89224 0.67309 0.59927 0.0
O1433 O 0.87536 0.79472 0.59694 0.0
H1434 H 0.93754 0.79608 0.5569 0.0
H1435 H 0.89948 0.8293 0.60935 0.0
H1436 H 0.95917 0.67118 0.54763 0.0
H1437 H 0.82228 0.71438 0.61068 0.0
H1438 H 0.9402 0.63476 0.55907 0.0
H1439 H 0.81161 0.6988 0.57248 0.0
O1440 O 0.93865 0.73068 0.59963 0.0
H1441 H 0.88685 0.78652 0.67802 0.0
H1442 H 0.94661 0.80059 0.61991 0.0
H1443 H 0.95464 0.80932 0.66047 0.0
H1444 H 0.92462 0.80232 0.68987 0.0
H1445 H 0.87964 0.7778 0.63725 0.0
H1446 H 0.9132 0.86703 0.59598 0.0
H1447 H 0.93964 0.86925 0.56265 0.0
O1448 O 0.9385 0.76829 0.59185 0.0
C1449 C 0.90504 0.75395 0.55096 0.0
C1450 C 0.94033 0.83268 0.55763 0.0
C1451 C 0.9187 0.85153 0.58736 0.0
N1452 N 0.91798 0.81046 0.58414 0.0
C1453 C 0.93226 0.81158 0.5656 0.0
C1454 C 0.91099 0.83011 0.59485 0.0
C1455 C 0.93352 0.85277 0.56864 0.0
C1456 C 0.8582 0.7169 0.60231 0.0
N1457 N 0.87471 0.71356 0.58602 0.0
C1458 C 0.83528 0.71165 0.59772 0.0
C1459 C 0.8293 0.70293 0.57628 0.0
C1460 C 0.84623 0.69956 0.55976 0.0
C1461 C 0.86897 0.70503 0.56495 0.0
C1462 C 0.91492 0.65162 0.58 0.0
C1463 C 0.93595 0.69224 0.56721 0.0
C1464 C 0.90689 0.67275 0.58793 0.0
N1465 N 0.91726 0.69273 0.58133 0.0
C1466 C 0.94444 0.67143 0.55892 0.0
C1467 C 0.9338 0.65101 0.56536 0.0
C1468 C 0.94908 0.7496 0.59605 0.0
C1469 C 0.90006 0.78968 0.66537 0.0
C1470 C 0.93351 0.79737 0.63258 0.0
C1471 C 0.93812 0.80243 0.65553 0.0
C1472 C 0.92126 0.79851 0.67201 0.0
N1473 N 0.91267 0.78871 0.62619 0.0
C1474 C 0.89605 0.78485 0.64225 0.0
Co1475 Co 0.22219 0.91345 0.59567 0.0
Co1476 Co 0.28093 0.9078 0.59117 0.0
O1477 O 0.25127 0.89914 0.60447 0.0
C1478 C 0.21198 0.86364 0.58901 0.0
O1479 O 0.2326 0.8605 0.58055 0.0
C1480 C 0.29011 0.91475 0.64089 0.0
O1481 O 0.27122 0.92692 0.64207 0.0
O1482 O 0.27515 0.94112 0.59669 0.0
O1483 O 0.23699 0.94416 0.59409 0.0
H1484 H 0.33354 0.95372 0.54064 0.0
H1485 H 0.22422 0.88406 0.63698 0.0
O1486 O 0.206 0.88316 0.5968 0.0
H1487 H 0.20058 0.9603 0.66499 0.0
H1488 H 0.13698 0.92656 0.60076 0.0
H1489 H 0.20849 0.948 0.56099 0.0
H1490 H 0.20708 0.9536 0.62375 0.0
H1491 H 0.17384 0.90911 0.61193 0.0
O1492 O 0.29589 0.90538 0.62201 0.0
H1493 H 0.2963 0.94237 0.55718 0.0
H1494 H 0.32894 0.89132 0.59756 0.0
H1495 H 0.17203 0.96594 0.54932 0.0
H1496 H 0.21768 0.88994 0.67838 0.0
H1497 H 0.13593 0.95522 0.56925 0.0
H1498 H 0.20586 0.92832 0.69262 0.0
O1499 O 0.2286 0.90837 0.56245 0.0
H1500 H 0.28408 0.82448 0.61293 0.0
H1501 H 0.29685 0.88051 0.55088 0.0
H1502 H 0.30348 0.83939 0.54349 0.0
H1503 H 0.29713 0.81106 0.57467 0.0
H1504 H 0.27742 0.86576 0.6195 0.0
H1505 H 0.36657 0.90224 0.5816 0.0
H1506 H 0.36902 0.9336 0.55287 0.0
O1507 O 0.26692 0.91035 0.56005 0.0
C1508 C 0.25687 0.95305 0.59575 0.0
C1509 C 0.33269 0.93998 0.5531 0.0
C1510 C 0.35123 0.91111 0.57611 0.0
N1511 N 0.31042 0.9161 0.5782 0.0
C1512 C 0.31164 0.93343 0.56247 0.0
C1513 C 0.32988 0.90503 0.58512 0.0
C1514 C 0.35259 0.9287 0.55998 0.0
C1515 C 0.21886 0.90074 0.64305 0.0
N1516 N 0.21595 0.91843 0.62797 0.0
C1517 C 0.21527 0.904 0.6665 0.0
C1518 C 0.20867 0.92554 0.67449 0.0
C1519 C 0.20572 0.9435 0.65899 0.0
C1520 C 0.20949 0.93962 0.63566 0.0
C1521 C 0.1526 0.93141 0.59198 0.0
C1522 C 0.19287 0.94332 0.56981 0.0
C1523 C 0.17352 0.92158 0.59822 0.0
N1524 N 0.19331 0.92759 0.58718 0.0
C1525 C 0.17227 0.95351 0.56311 0.0
C1526 C 0.15202 0.94748 0.57429 0.0
C1527 C 0.24711 0.9092 0.55083 0.0
C1528 C 0.28695 0.83666 0.59922 0.0
C1529 C 0.29393 0.86828 0.5645 0.0
C1530 C 0.29779 0.84502 0.56023 0.0
C1531 C 0.29424 0.82914 0.57774 0.0
N1532 N 0.28679 0.87552 0.58562 0.0
C1533 C 0.28329 0.86006 0.60287 0.0
Co1534 Co 0.0954 0.28145 0.5949 0.0
Co1535 Co 0.09325 0.22269 0.59443 0.0
O1536 O 0.10513 0.2516 0.60654 0.0
C1537 C 0.08764 0.28865 0.64506 0.0
O1538 O 0.07469 0.27021 0.64548 0.0
C1539 C 0.14348 0.21438 0.59048 0.0
O1540 O 0.14532 0.23386 0.57932 0.0
O1541 O 0.10141 0.23184 0.56251 0.0
O1542 O 0.0933 0.26937 0.56278 0.0
H1543 H 0.05114 0.17262 0.5382 0.0
H1544 H 0.13764 0.27738 0.62277 0.0
O1545 O 0.09749 0.29471 0.62653 0.0
H1546 H 0.16281 0.31 0.54891 0.0
H1547 H 0.09791 0.3677 0.59012 0.0
H1548 H 0.05924 0.29748 0.56295 0.0
H1549 H 0.12198 0.30167 0.55597 0.0
H1550 H 0.11041 0.32964 0.60367 0.0
O1551 O 0.12408 0.20809 0.59836 0.0
H1552 H 0.06537 0.20919 0.55403 0.0
H1553 H 0.09804 0.17374 0.60856 0.0
H1554 H 0.0463 0.33518 0.54881 0.0
H1555 H 0.17866 0.28567 0.61656 0.0
H1556 H 0.06571 0.37064 0.56238 0.0
H1557 H 0.19149 0.30201 0.57937 0.0
O1558 O 0.06249 0.27344 0.60004 0.0
H1559 H 0.1074 0.21334 0.67889 0.0
H1560 H 0.05106 0.20384 0.61653 0.0
H1561 H 0.04007 0.19399 0.65616 0.0
H1562 H 0.06836 0.19868 0.68766 0.0
H1563 H 0.1176 0.2232 0.63902 0.0
H1564 H 0.08431 0.13674 0.59325 0.0
H1565 H 0.06055 0.13603 0.5579 0.0
O1566 O 0.06196 0.23621 0.59029 0.0
C1567 C 0.09785 0.25077 0.55215 0.0
C1568 C 0.06131 0.1727 0.55373 0.0
C1569 C 0.07993 0.15257 0.58462 0.0
N1570 N 0.08201 0.19368 0.58252 0.0
C1571 C 0.06931 0.19338 0.56284 0.0
C1572 C 0.08762 0.17358 0.59323 0.0
C1573 C 0.06662 0.15219 0.56477 0.0
C1574 C 0.14307 0.28466 0.6066 0.0
N1575 N 0.12741 0.28903 0.58974 0.0
C1576 C 0.16633 0.28925 0.60316 0.0
C1577 C 0.17352 0.29839 0.58228 0.0
C1578 C 0.15744 0.30285 0.56518 0.0
C1579 C 0.13433 0.29802 0.56924 0.0
C1580 C 0.08938 0.35238 0.584 0.0
C1581 C 0.06785 0.31282 0.56884 0.0
C1582 C 0.09637 0.33077 0.59162 0.0
N1583 N 0.08576 0.31133 0.58386 0.0
C1584 C 0.06041 0.33413 0.56082 0.0
C1585 C 0.0713 0.35401 0.56845 0.0
C1586 C 0.05176 0.25506 0.59486 0.0
C1587 C 0.09494 0.21116 0.6653 0.0
C1588 C 0.06345 0.206 0.63015 0.0
C1589 C 0.05714 0.20034 0.65255 0.0
C1590 C 0.07303 0.20297 0.67022 0.0
N1591 N 0.085 0.21399 0.62547 0.0
C1592 C 0.10065 0.21664 0.64269 0.0
Co1593 Co 0.78208 0.08792 0.59715 0.0
Co1594 Co 0.72345 0.0969 0.59616 0.0
O1595 O 0.75423 0.10326 0.60786 0.0
C1596 C 0.79239 0.13734 0.58921 0.0
O1597 O 0.77224 0.13928 0.57935 0.0
C1598 C 0.71576 0.08869 0.64621 0.0
O1599 O 0.73275 0.07393 0.64629 0.0
O1600 O 0.7278 0.06315 0.60016 0.0
O1601 O 0.76599 0.05756 0.59756 0.0
H1602 H 0.66471 0.05508 0.54886 0.0
H1603 H 0.78247 0.1176 0.63845 0.0
O1604 O 0.79882 0.118 0.59708 0.0
H1605 H 0.81088 0.04237 0.66459 0.0
H1606 H 0.86726 0.07382 0.59465 0.0
H1607 H 0.79197 0.05133 0.5633 0.0
H1608 H 0.80041 0.0485 0.62407 0.0
H1609 H 0.83188 0.09255 0.60825 0.0
O1610 O 0.71054 0.09936 0.62789 0.0
H1611 H 0.70359 0.06358 0.56322 0.0
H1612 H 0.67719 0.11667 0.60552 0.0
H1613 H 0.8269 0.03193 0.54942 0.0
H1614 H 0.7928 0.11227 0.67912 0.0
H1615 H 0.86489 0.04318 0.56511 0.0
H1616 H 0.80708 0.0744 0.69244 0.0
O1617 O 0.77354 0.09255 0.56421 0.0
H1618 H 0.72793 0.17946 0.62053 0.0
H1619 H 0.70636 0.12668 0.55808 0.0
H1620 H 0.70246 0.16838 0.55234 0.0
H1621 H 0.71328 0.19511 0.58373 0.0
H1622 H 0.73182 0.13761 0.6254 0.0
H1623 H 0.63801 0.10863 0.59178 0.0
H1624 H 0.63158 0.07772 0.56314 0.0
O1625 O 0.7352 0.09454 0.56416 0.0
C1626 C 0.74543 0.05022 0.59944 0.0
C1627 C 0.66729 0.06865 0.56127 0.0
C1628 C 0.65231 0.09871 0.58536 0.0
N1629 N 0.69271 0.09079 0.58496 0.0
C1630 C 0.68927 0.07357 0.56943 0.0
C1631 C 0.67454 0.10317 0.59309 0.0
C1632 C 0.64872 0.08136 0.5693 0.0
C1633 C 0.78869 0.10109 0.64412 0.0
N1634 N 0.79073 0.08334 0.62894 0.0
C1635 C 0.79451 0.09816 0.66717 0.0
C1636 C 0.80251 0.07692 0.67463 0.0
C1637 C 0.80464 0.05893 0.65902 0.0
C1638 C 0.79862 0.06248 0.63611 0.0
C1639 C 0.85081 0.06875 0.5877 0.0
C1640 C 0.80843 0.0562 0.57033 0.0
C1641 C 0.83072 0.07935 0.59528 0.0
N1642 N 0.80987 0.07293 0.58669 0.0
C1643 C 0.82815 0.04521 0.56235 0.0
C1644 C 0.84946 0.05155 0.57114 0.0
C1645 C 0.75437 0.09373 0.55371 0.0
C1646 C 0.72314 0.16799 0.60673 0.0
C1647 C 0.71122 0.13817 0.57175 0.0
C1648 C 0.7089 0.16178 0.56845 0.0
C1649 C 0.71494 0.17676 0.58607 0.0
N1650 N 0.71931 0.12969 0.59204 0.0
C1651 C 0.72522 0.14428 0.60942 0.0
Co1652 Co 0.91278 0.22144 0.40651 0.0
Co1653 Co 0.9069 0.2802 0.41217 0.0
O1654 O 0.89843 0.25076 0.39797 0.0
C1655 C 0.86334 0.2101 0.41387 0.0
O1656 O 0.86026 0.23029 0.42336 0.0
C1657 C 0.91333 0.29132 0.36245 0.0
O1658 O 0.92265 0.27111 0.35907 0.0
O1659 O 0.94026 0.27465 0.40659 0.0
O1660 O 0.9434 0.23643 0.40861 0.0
H1661 H 0.9531 0.33131 0.46401 0.0
H1662 H 0.8836 0.2235 0.3651 0.0
O1663 O 0.8826 0.2049 0.40493 0.0
H1664 H 0.96026 0.20131 0.33718 0.0
H1665 H 0.92745 0.13655 0.39948 0.0
H1666 H 0.94666 0.20736 0.44165 0.0
H1667 H 0.95336 0.20746 0.37843 0.0
H1668 H 0.90954 0.17339 0.38895 0.0
O1669 O 0.90503 0.29658 0.38198 0.0
H1670 H 0.94208 0.29467 0.4459 0.0
H1671 H 0.88914 0.32814 0.40878 0.0
H1672 H 0.96497 0.1709 0.45276 0.0
H1673 H 0.88968 0.21728 0.32367 0.0
H1674 H 0.95538 0.13515 0.43161 0.0
H1675 H 0.92827 0.20617 0.30948 0.0
O1676 O 0.9073 0.22718 0.43982 0.0
H1677 H 0.82392 0.28358 0.3895 0.0
H1678 H 0.87896 0.29435 0.45279 0.0
H1679 H 0.83772 0.30027 0.45988 0.0
H1680 H 0.80988 0.29494 0.42807 0.0
H1681 H 0.86534 0.2776 0.38323 0.0
H1682 H 0.8996 0.36515 0.42647 0.0
H1683 H 0.9318 0.36689 0.45431 0.0
O1684 O 0.90917 0.26541 0.44284 0.0
C1685 C 0.95224 0.25637 0.40725 0.0
C1686 C 0.93903 0.33077 0.45193 0.0
C1687 C 0.90899 0.34976 0.43087 0.0
N1688 N 0.91496 0.30925 0.42634 0.0
C1689 C 0.9327 0.31007 0.44162 0.0
C1690 C 0.90315 0.32875 0.42091 0.0
C1691 C 0.92707 0.35072 0.44648 0.0
C1692 C 0.90037 0.21847 0.35904 0.0
N1693 N 0.91806 0.21576 0.37416 0.0
C1694 C 0.90374 0.21506 0.33558 0.0
C1695 C 0.92541 0.20885 0.32762 0.0
C1696 C 0.94337 0.20615 0.34315 0.0
C1697 C 0.93937 0.20973 0.36649 0.0
C1698 C 0.9318 0.15202 0.4088 0.0
C1699 C 0.94242 0.19189 0.43234 0.0
C1700 C 0.92172 0.17293 0.40292 0.0
N1701 N 0.92709 0.19252 0.41464 0.0
C1702 C 0.95284 0.17129 0.43872 0.0
C1703 C 0.94746 0.15124 0.42684 0.0
C1704 C 0.90784 0.24551 0.45173 0.0
C1705 C 0.83588 0.28601 0.40347 0.0
C1706 C 0.86696 0.29188 0.43889 0.0
C1707 C 0.84362 0.29533 0.44299 0.0
C1708 C 0.82801 0.29236 0.42513 0.0
N1709 N 0.87455 0.2857 0.41758 0.0
C1710 C 0.85935 0.28274 0.4 0.0
Co1711 Co 0.72234 0.90648 0.41089 0.0
Co1712 Co 0.78091 0.91539 0.40614 0.0
O1713 O 0.75238 0.89991 0.39734 0.0
C1714 C 0.71224 0.91489 0.36135 0.0
O1715 O 0.73 0.92874 0.36041 0.0
C1716 C 0.79195 0.86623 0.41509 0.0
O1717 O 0.77231 0.86442 0.42593 0.0
O1718 O 0.77426 0.91149 0.43959 0.0
O1719 O 0.73605 0.90857 0.44204 0.0
H1720 H 0.82842 0.97218 0.45032 0.0
H1721 H 0.72814 0.86582 0.38098 0.0
O1722 O 0.70747 0.90442 0.37993 0.0
H1723 H 0.7037 0.83511 0.45589 0.0
H1724 H 0.63717 0.89569 0.42038 0.0
H1725 H 0.70521 0.93894 0.4461 0.0
H1726 H 0.7078 0.87681 0.45004 0.0
H1727 H 0.67527 0.88758 0.40395 0.0
O1728 O 0.79767 0.88531 0.40604 0.0
H1729 H 0.79273 0.95264 0.43864 0.0
H1730 H 0.83002 0.91056 0.39235 0.0
H1731 H 0.66748 0.94744 0.46321 0.0
H1732 H 0.72403 0.82399 0.38601 0.0
H1733 H 0.63312 0.92575 0.45033 0.0
H1734 H 0.71183 0.80838 0.42372 0.0
O1735 O 0.72663 0.94022 0.4068 0.0
H1736 H 0.78702 0.8892 0.32429 0.0
H1737 H 0.79768 0.95423 0.37736 0.0
H1738 H 0.80577 0.95947 0.33616 0.0
H1739 H 0.80044 0.92679 0.30932 0.0
H1740 H 0.77903 0.88477 0.36561 0.0
H1741 H 0.86615 0.92943 0.40373 0.0
H1742 H 0.86548 0.96056 0.43284 0.0
O1743 O 0.76491 0.94576 0.40596 0.0
C1744 C 0.75582 0.90986 0.45123 0.0
C1745 C 0.82893 0.95869 0.43757 0.0
C1746 C 0.85011 0.93467 0.41145 0.0
N1747 N 0.80927 0.9306 0.41472 0.0
C1748 C 0.80877 0.94763 0.43082 0.0
C1749 C 0.8296 0.92399 0.40513 0.0
C1750 C 0.84972 0.95214 0.42777 0.0
C1751 C 0.7226 0.85916 0.39737 0.0
N1752 N 0.71813 0.87374 0.41516 0.0
C1753 C 0.72039 0.83546 0.40014 0.0
C1754 C 0.71357 0.82671 0.42131 0.0
C1755 C 0.70903 0.8417 0.43938 0.0
C1756 C 0.71143 0.8653 0.43598 0.0
C1757 C 0.65201 0.90525 0.42615 0.0
C1758 C 0.69036 0.92935 0.4405 0.0
C1759 C 0.67362 0.90078 0.41685 0.0
N1760 N 0.69246 0.91271 0.42412 0.0
C1761 C 0.66903 0.93427 0.45021 0.0
C1762 C 0.64975 0.92211 0.44296 0.0
C1763 C 0.74429 0.95312 0.40575 0.0
C1764 C 0.78939 0.90358 0.3358 0.0
C1765 C 0.79522 0.93997 0.36575 0.0
C1766 C 0.79989 0.94302 0.34246 0.0
C1767 C 0.79691 0.92467 0.32742 0.0
N1768 N 0.78778 0.91926 0.37384 0.0
C1769 C 0.7849 0.90117 0.35921 0.0
Co1770 Co 0.09221 0.78338 0.40867 0.0
Co1771 Co 0.09642 0.72459 0.4095 0.0
O1772 O 0.10589 0.75466 0.39801 0.0
C1773 C 0.14192 0.79417 0.41614 0.0
O1774 O 0.14369 0.77598 0.4293 0.0
C1775 C 0.09098 0.71685 0.35922 0.0
O1776 O 0.07822 0.73537 0.35818 0.0
O1777 O 0.0636 0.73139 0.40277 0.0
O1778 O 0.06114 0.76892 0.41064 0.0
H1779 H 0.04624 0.6699 0.45336 0.0
H1780 H 0.11983 0.78262 0.36603 0.0
O1781 O 0.12286 0.79898 0.4066 0.0
H1782 H 0.04337 0.81004 0.34262 0.0
H1783 H 0.08134 0.86909 0.40881 0.0
H1784 H 0.05865 0.79592 0.44474 0.0
H1785 H 0.05145 0.80093 0.3831 0.0
H1786 H 0.0977 0.83251 0.39528 0.0
O1787 O 0.10018 0.711 0.37815 0.0
H1788 H 0.05909 0.70783 0.43971 0.0
H1789 H 0.11322 0.67678 0.4022 0.0
H1790 H 0.0417 0.8321 0.45865 0.0
H1791 H 0.11256 0.79179 0.32539 0.0
H1792 H 0.05305 0.86902 0.44065 0.0
H1793 H 0.07407 0.80553 0.31344 0.0
O1794 O 0.09818 0.77507 0.44133 0.0
H1795 H 0.18063 0.72209 0.39161 0.0
H1796 H 0.12165 0.70584 0.44996 0.0
H1797 H 0.16229 0.69845 0.45888 0.0
H1798 H 0.19212 0.70654 0.42956 0.0
H1799 H 0.13976 0.72943 0.3835 0.0
H1800 H 0.10089 0.63848 0.41535 0.0
H1801 H 0.06722 0.63488 0.4412 0.0
O1802 O 0.09261 0.73702 0.44128 0.0
C1803 C 0.05192 0.74954 0.40624 0.0
C1804 C 0.061 0.67125 0.4422 0.0
C1805 C 0.09167 0.65362 0.42086 0.0
N1806 N 0.08709 0.69456 0.42046 0.0
C1807 C 0.0684 0.69269 0.43446 0.0
C1808 C 0.09858 0.67535 0.41347 0.0
C1809 C 0.07277 0.65161 0.43535 0.0
C1810 C 0.1031 0.78878 0.36099 0.0
N1811 N 0.08613 0.79133 0.37694 0.0
C1812 C 0.09906 0.79387 0.33794 0.0
C1813 C 0.07745 0.80155 0.33125 0.0
C1814 C 0.06021 0.80407 0.34761 0.0
C1815 C 0.06488 0.79883 0.3705 0.0
C1816 C 0.07623 0.85311 0.41677 0.0
C1817 C 0.06358 0.81191 0.43674 0.0
C1818 C 0.08548 0.83234 0.40922 0.0
N1819 N 0.07903 0.81208 0.41912 0.0
C1820 C 0.05396 0.83234 0.44472 0.0
C1821 C 0.06035 0.85306 0.43463 0.0
C1822 C 0.09542 0.75603 0.4518 0.0
C1823 C 0.1678 0.71846 0.40451 0.0
C1824 C 0.13452 0.70953 0.43717 0.0
C1825 C 0.15751 0.70524 0.44229 0.0
C1826 C 0.17423 0.70976 0.42582 0.0
N1827 N 0.12833 0.71802 0.41622 0.0
C1828 C 0.14463 0.72252 0.4 0.0
Co1829 Co 0.28174 0.0989 0.41125 0.0
Co1830 Co 0.22293 0.09181 0.40637 0.0
O1831 O 0.25192 0.10649 0.39772 0.0
C1832 C 0.29153 0.09062 0.36158 0.0
O1833 O 0.27342 0.07724 0.36058 0.0
C1834 C 0.21271 0.14119 0.41578 0.0
O1835 O 0.23214 0.14268 0.42706 0.0
O1836 O 0.22971 0.09543 0.43981 0.0
O1837 O 0.26799 0.09708 0.44243 0.0
H1838 H 0.17376 0.03651 0.45055 0.0
H1839 H 0.27716 0.13994 0.38166 0.0
O1840 O 0.29667 0.10075 0.38027 0.0
H1841 H 0.30278 0.16932 0.45674 0.0
H1842 H 0.36723 0.10689 0.42067 0.0
H1843 H 0.29787 0.06575 0.44627 0.0
H1844 H 0.29726 0.12782 0.4506 0.0
H1845 H 0.32939 0.11631 0.40433 0.0
O1846 O 0.20699 0.12231 0.40634 0.0
H1847 H 0.21002 0.05487 0.43875 0.0
H1848 H 0.17394 0.09814 0.39262 0.0
H1849 H 0.33533 0.05595 0.46325 0.0
H1850 H 0.2827 0.18158 0.38698 0.0
H1851 H 0.37035 0.07657 0.45044 0.0
H1852 H 0.29552 0.19651 0.42477 0.0
O1853 O 0.27641 0.06531 0.40691 0.0
H1854 H 0.2181 0.1185 0.32461 0.0
H1855 H 0.20428 0.05391 0.37743 0.0
H1856 H 0.19597 0.04918 0.33621 0.0
H1857 H 0.2029 0.08165 0.30949 0.0
H1858 H 0.22625 0.12241 0.36595 0.0
H1859 H 0.13727 0.08044 0.40411 0.0
H1860 H 0.13704 0.04932 0.4332 0.0
O1861 O 0.238 0.06094 0.406 0.0
C1862 C 0.24814 0.09648 0.45154 0.0
C1863 C 0.17364 0.05 0.4378 0.0
C1864 C 0.15316 0.07469 0.41177 0.0
N1865 N 0.19413 0.07743 0.4149 0.0
C1866 C 0.19413 0.06039 0.43099 0.0
C1867 C 0.17398 0.0847 0.40538 0.0
C1868 C 0.15304 0.05722 0.42808 0.0
C1869 C 0.28294 0.14631 0.39809 0.0
N1870 N 0.28697 0.13146 0.41576 0.0
C1871 C 0.28597 0.1699 0.40103 0.0
C1872 C 0.29314 0.17827 0.42224 0.0
C1873 C 0.2972 0.16302 0.44019 0.0
C1874 C 0.29399 0.13954 0.43663 0.0
C1875 C 0.35209 0.09779 0.42641 0.0
C1876 C 0.31301 0.07488 0.44069 0.0
C1877 C 0.33063 0.10301 0.41717 0.0
N1878 N 0.31142 0.09166 0.42441 0.0
C1879 C 0.33418 0.06922 0.45033 0.0
C1880 C 0.35383 0.08079 0.44312 0.0
C1881 C 0.25838 0.05294 0.40575 0.0
C1882 C 0.21506 0.10421 0.33607 0.0
C1883 C 0.20748 0.06804 0.36587 0.0
C1884 C 0.20266 0.0653 0.34257 0.0
C1885 C 0.20654 0.08353 0.32759 0.0
N1886 N 0.21594 0.08833 0.37403 0.0
C1887 C 0.21965 0.10632 0.35948 0.0
Co1888 Co 0.59488 0.9138 0.78037 0.0
Co1889 Co 0.59122 0.90657 0.72196 0.0
O1890 O 0.60464 0.89907 0.7518 0.0
C1891 C 0.59075 0.86432 0.7926 0.0
O1892 O 0.58111 0.86056 0.7726 0.0
C1893 C 0.64086 0.91338 0.71219 0.0
O1894 O 0.64207 0.92624 0.73064 0.0
O1895 O 0.59684 0.94002 0.72676 0.0
O1896 O 0.59054 0.94389 0.76454 0.0
H1897 H 0.54017 0.9504 0.66818 0.0
H1898 H 0.63835 0.88765 0.77958 0.0
O1899 O 0.5985 0.88419 0.79756 0.0
H1900 H 0.66049 0.96706 0.79877 0.0
H1901 H 0.60098 0.93191 0.86465 0.0
H1902 H 0.55628 0.94398 0.79399 0.0
H1903 H 0.61985 0.95682 0.79303 0.0
H1904 H 0.61297 0.91396 0.82828 0.0
O1905 O 0.622 0.90365 0.70691 0.0
H1906 H 0.55713 0.94056 0.70565 0.0
H1907 H 0.59734 0.88844 0.67448 0.0
H1908 H 0.54373 0.96241 0.82988 0.0
H1909 H 0.6792 0.89709 0.78543 0.0
H1910 H 0.56616 0.9564 0.8656 0.0
H1911 H 0.69048 0.93706 0.795 0.0
O1912 O 0.56221 0.90592 0.7742 0.0
H1913 H 0.61288 0.82319 0.7216 0.0
H1914 H 0.55087 0.87874 0.70702 0.0
H1915 H 0.54343 0.83742 0.70179 0.0
H1916 H 0.57459 0.80932 0.70905 0.0
H1917 H 0.6195 0.86469 0.72684 0.0
H1918 H 0.58101 0.89789 0.63663 0.0
H1919 H 0.55212 0.92901 0.63333 0.0
O1920 O 0.56004 0.9096 0.736 0.0
C1921 C 0.59337 0.95225 0.74453 0.0
C1922 C 0.5527 0.93677 0.6694 0.0
C1923 C 0.57564 0.90732 0.6517 0.0
N1924 N 0.5781 0.91385 0.69227 0.0
C1925 C 0.56232 0.93108 0.69058 0.0
C1926 C 0.58488 0.90208 0.67316 0.0
C1927 C 0.55943 0.92477 0.64986 0.0
C1928 C 0.64312 0.90502 0.784 0.0
N1929 N 0.62673 0.92161 0.78609 0.0
C1930 C 0.66628 0.91029 0.78718 0.0
C1931 C 0.6726 0.93273 0.79252 0.0
C1932 C 0.65578 0.94957 0.79462 0.0
C1933 C 0.6328 0.94368 0.79128 0.0
C1934 C 0.59113 0.93477 0.84918 0.0
C1935 C 0.56626 0.94151 0.80935 0.0
C1936 C 0.59785 0.92467 0.82853 0.0
N1937 N 0.58551 0.92819 0.80891 0.0
C1938 C 0.55901 0.95189 0.82968 0.0
C1939 C 0.57159 0.94849 0.84971 0.0
C1940 C 0.55068 0.90739 0.75568 0.0
C1941 C 0.59918 0.83526 0.71834 0.0
C1942 C 0.56448 0.86662 0.71033 0.0
C1943 C 0.56018 0.84325 0.70727 0.0
C1944 C 0.57768 0.82749 0.71133 0.0
N1945 N 0.58561 0.87411 0.71719 0.0
C1946 C 0.60285 0.85878 0.7212 0.0
Co1947 Co 0.09231 0.59594 0.78085 0.0
Co1948 Co 0.09684 0.59575 0.72198 0.0
O1949 O 0.10565 0.6072 0.75222 0.0
C1950 C 0.14222 0.5893 0.78956 0.0
O1951 O 0.14362 0.5784 0.76991 0.0
C1952 C 0.08898 0.64595 0.71486 0.0
O1953 O 0.07512 0.64607 0.7326 0.0
O1954 O 0.06367 0.60065 0.72877 0.0
O1955 O 0.0612 0.59408 0.76657 0.0
H1956 H 0.04946 0.54996 0.66637 0.0
H1957 H 0.11985 0.6387 0.78068 0.0
O1958 O 0.12312 0.5977 0.79605 0.0
H1959 H 0.04351 0.66134 0.80912 0.0
H1960 H 0.08233 0.59424 0.8666 0.0
H1961 H 0.05879 0.55966 0.79307 0.0
H1962 H 0.05163 0.62104 0.79915 0.0
H1963 H 0.09837 0.6084 0.83011 0.0
O1964 O 0.09919 0.62753 0.70903 0.0
H1965 H 0.06136 0.56369 0.70457 0.0
H1966 H 0.11336 0.60487 0.67441 0.0
H1967 H 0.04215 0.54512 0.82915 0.0
H1968 H 0.11254 0.67918 0.79066 0.0
H1969 H 0.05393 0.56244 0.86626 0.0
H1970 H 0.07411 0.69072 0.80495 0.0
O1971 O 0.09833 0.56339 0.77208 0.0
H1972 H 0.18006 0.61799 0.72022 0.0
H1973 H 0.12419 0.55693 0.70267 0.0
H1974 H 0.16527 0.55018 0.69547 0.0
H1975 H 0.19354 0.58088 0.70422 0.0
H1976 H 0.1388 0.62389 0.72742 0.0
H1977 H 0.10194 0.59172 0.63586 0.0
H1978 H 0.06983 0.56397 0.63167 0.0
O1979 O 0.0945 0.56361 0.73385 0.0
C1980 C 0.05201 0.59754 0.74701 0.0
C1981 C 0.06355 0.56197 0.66797 0.0
C1982 C 0.09299 0.5854 0.65085 0.0
N1983 N 0.08822 0.58483 0.69175 0.0
C1984 C 0.0704 0.56975 0.68956 0.0
C1985 C 0.09937 0.59281 0.67273 0.0
C1986 C 0.07497 0.56985 0.64851 0.0
C1987 C 0.10314 0.64357 0.78704 0.0
N1988 N 0.08622 0.62752 0.78941 0.0
C1989 C 0.09908 0.66652 0.7926 0.0
C1990 C 0.07751 0.67299 0.80059 0.0
C1991 C 0.06033 0.65652 0.80292 0.0
C1992 C 0.06501 0.63373 0.79719 0.0
C1993 C 0.07703 0.58658 0.85054 0.0
C1994 C 0.06389 0.56738 0.80914 0.0
C1995 C 0.0861 0.59449 0.82983 0.0
N1996 N 0.07939 0.58497 0.80947 0.0
C1997 C 0.05446 0.55903 0.82952 0.0
C1998 C 0.06109 0.56874 0.85033 0.0
C1999 C 0.0967 0.55302 0.75287 0.0
C2000 C 0.16791 0.60449 0.71631 0.0
C2001 C 0.13637 0.57031 0.70666 0.0
C2002 C 0.15962 0.56642 0.70246 0.0
C2003 C 0.17547 0.58366 0.70736 0.0
N2004 N 0.12908 0.59078 0.71544 0.0
C2005 C 0.14452 0.60776 0.72027 0.0
Co2006 Co 0.40795 0.0887 0.78154 0.0
Co2007 Co 0.40874 0.09905 0.72299 0.0
O2008 O 0.39731 0.10513 0.75412 0.0
C2009 C 0.41602 0.13791 0.79467 0.0
O2010 O 0.42317 0.1423 0.77378 0.0
C2011 C 0.35873 0.09128 0.71491 0.0
O2012 O 0.35837 0.07712 0.73242 0.0
O2013 O 0.40412 0.06525 0.72662 0.0
O2014 O 0.4072 0.0589 0.76455 0.0
H2015 H 0.45474 0.05708 0.66342 0.0
H2016 H 0.36725 0.11889 0.78361 0.0
O2017 O 0.40876 0.11793 0.79988 0.0
H2018 H 0.33965 0.04263 0.80774 0.0
H2019 H 0.40925 0.06955 0.8658 0.0
H2020 H 0.44247 0.05243 0.78994 0.0
H2021 H 0.38032 0.04866 0.79776 0.0
H2022 H 0.39573 0.08993 0.8313 0.0
O2023 O 0.37706 0.10211 0.71001 0.0
H2024 H 0.44068 0.06524 0.70246 0.0
H2025 H 0.39996 0.12001 0.6771 0.0
H2026 H 0.45631 0.03142 0.82395 0.0
H2027 H 0.32643 0.11366 0.79351 0.0
H2028 H 0.43969 0.03998 0.86223 0.0
H2029 H 0.31239 0.07528 0.80562 0.0
O2030 O 0.44083 0.09358 0.77295 0.0
H2031 H 0.38563 0.18189 0.72806 0.0
H2032 H 0.44748 0.12842 0.70665 0.0
H2033 H 0.45383 0.17007 0.70298 0.0
H2034 H 0.42274 0.19714 0.71368 0.0
H2035 H 0.38012 0.14007 0.7317 0.0
H2036 H 0.41344 0.11234 0.63776 0.0
H2037 H 0.44113 0.08075 0.63073 0.0
O2038 O 0.44071 0.09605 0.73461 0.0
C2039 C 0.40495 0.05195 0.74395 0.0
C2040 C 0.44275 0.07095 0.66626 0.0
C2041 C 0.41958 0.10197 0.65187 0.0
N2042 N 0.41977 0.09328 0.69212 0.0
C2043 C 0.43477 0.07569 0.68834 0.0
C2044 C 0.412 0.10622 0.67419 0.0
C2045 C 0.4351 0.08424 0.64794 0.0
C2046 C 0.36126 0.10217 0.78894 0.0
N2047 N 0.37612 0.0841 0.79006 0.0
C2048 C 0.33814 0.0993 0.79449 0.0
C2049 C 0.33027 0.07775 0.80128 0.0
C2050 C 0.34555 0.05943 0.80246 0.0
C2051 C 0.36854 0.06293 0.79673 0.0
C2052 C 0.41663 0.06566 0.84922 0.0
C2053 C 0.4351 0.05619 0.80653 0.0
C2054 C 0.40911 0.07721 0.82964 0.0
N2055 N 0.41832 0.07239 0.80863 0.0
C2056 C 0.44303 0.04426 0.82573 0.0
C2057 C 0.43371 0.04908 0.8472 0.0
C2058 C 0.45121 0.09508 0.75373 0.0
C2059 C 0.3993 0.17027 0.72331 0.0
C2060 C 0.43393 0.14006 0.71148 0.0
C2061 C 0.43759 0.16364 0.70928 0.0
C2062 C 0.42013 0.17882 0.71527 0.0
N2063 N 0.41344 0.13181 0.71936 0.0
C2064 C 0.39624 0.14658 0.72525 0.0
Co2065 Co 0.90632 0.41067 0.72154 0.0
Co2066 Co 0.9108 0.40635 0.78031 0.0
O2067 O 0.89735 0.39718 0.75095 0.0
C2068 C 0.91359 0.36096 0.71214 0.0
O2069 O 0.92554 0.35981 0.73119 0.0
C2070 C 0.86108 0.41299 0.79005 0.0
O2071 O 0.85959 0.42501 0.77107 0.0
O2072 O 0.90493 0.43943 0.77383 0.0
O2073 O 0.9086 0.44186 0.73565 0.0
H2074 H 0.96092 0.45394 0.83186 0.0
H2075 H 0.86427 0.3823 0.72461 0.0
O2076 O 0.90416 0.37982 0.70636 0.0
H2077 H 0.83818 0.45836 0.69841 0.0
H2078 H 0.90196 0.42061 0.63586 0.0
H2079 H 0.94117 0.4447 0.70684 0.0
H2080 H 0.87924 0.45093 0.70519 0.0
H2081 H 0.89047 0.40452 0.67327 0.0
O2082 O 0.88009 0.40377 0.7956 0.0
H2083 H 0.94433 0.44175 0.79491 0.0
H2084 H 0.9051 0.3904 0.8286 0.0
H2085 H 0.95309 0.46136 0.66983 0.0
H2086 H 0.82303 0.38893 0.71784 0.0
H2087 H 0.93343 0.4493 0.634 0.0
H2088 H 0.80976 0.42722 0.70472 0.0
O2089 O 0.93947 0.40525 0.72798 0.0
H2090 H 0.89025 0.32272 0.78408 0.0
H2091 H 0.95149 0.37982 0.79647 0.0
H2092 H 0.95953 0.33884 0.80319 0.0
H2093 H 0.92877 0.30997 0.79701 0.0
H2094 H 0.88302 0.36389 0.77737 0.0
H2095 H 0.92113 0.40216 0.86595 0.0
H2096 H 0.94931 0.4341 0.86773 0.0
O2097 O 0.94185 0.40906 0.76614 0.0
C2098 C 0.90648 0.45108 0.75539 0.0
C2099 C 0.94871 0.43995 0.8313 0.0
C2100 C 0.92635 0.41091 0.85044 0.0
N2101 N 0.92389 0.41528 0.80957 0.0
C2102 C 0.93931 0.43293 0.81042 0.0
C2103 C 0.9173 0.40436 0.82924 0.0
C2104 C 0.94217 0.42883 0.85142 0.0
C2105 C 0.85862 0.39894 0.71871 0.0
N2106 N 0.87414 0.41617 0.71523 0.0
C2107 C 0.83526 0.40262 0.71498 0.0
C2108 C 0.82782 0.42412 0.70765 0.0
C2109 C 0.84375 0.4416 0.70412 0.0
C2110 C 0.86698 0.43731 0.70804 0.0
C2111 C 0.91063 0.42603 0.65136 0.0
C2112 C 0.93244 0.43948 0.69134 0.0
C2113 C 0.90423 0.41694 0.67258 0.0
N2114 N 0.91504 0.42378 0.69223 0.0
C2115 C 0.9393 0.44893 0.67043 0.0
C2116 C 0.92828 0.44213 0.65033 0.0
C2117 C 0.95109 0.40699 0.74642 0.0
C2118 C 0.90378 0.33514 0.78689 0.0
C2119 C 0.93803 0.36736 0.79369 0.0
C2120 C 0.94267 0.34419 0.79757 0.0
C2121 C 0.9254 0.328 0.79411 0.0
N2122 N 0.91677 0.37424 0.78661 0.0
C2123 C 0.89975 0.35847 0.7832 0.0
Co2124 Co 0.59326 0.09513 0.28283 0.0
Co2125 Co 0.59804 0.09482 0.22399 0.0
O2126 O 0.60686 0.10619 0.25423 0.0
C2127 C 0.64313 0.08822 0.2916 0.0
O2128 O 0.64448 0.0771 0.27207 0.0
C2129 C 0.59066 0.14498 0.21719 0.0
O2130 O 0.57804 0.14519 0.23583 0.0
O2131 O 0.56495 0.10013 0.23068 0.0
O2132 O 0.56218 0.09361 0.26846 0.0
H2133 H 0.55015 0.04951 0.16843 0.0
H2134 H 0.62127 0.1376 0.28264 0.0
O2135 O 0.62404 0.09665 0.29809 0.0
H2136 H 0.54498 0.16119 0.31042 0.0
H2137 H 0.58298 0.09386 0.36855 0.0
H2138 H 0.55927 0.05929 0.29506 0.0
H2139 H 0.55278 0.12074 0.30085 0.0
H2140 H 0.59932 0.10767 0.33205 0.0
O2141 O 0.60057 0.12653 0.21093 0.0
H2142 H 0.56217 0.0632 0.20661 0.0
H2143 H 0.61477 0.10358 0.17641 0.0
H2144 H 0.54233 0.0451 0.33114 0.0
H2145 H 0.61428 0.17823 0.29223 0.0
H2146 H 0.55419 0.06242 0.36822 0.0
H2147 H 0.57588 0.19026 0.30615 0.0
O2148 O 0.59891 0.06243 0.27418 0.0
H2149 H 0.68147 0.11625 0.22266 0.0
H2150 H 0.6251 0.05578 0.20472 0.0
H2151 H 0.66616 0.0486 0.1978 0.0
H2152 H 0.69468 0.07899 0.20677 0.0
H2153 H 0.64021 0.12258 0.22953 0.0
H2154 H 0.60324 0.09043 0.13788 0.0
H2155 H 0.57077 0.06311 0.13373 0.0
O2156 O 0.59536 0.06277 0.23593 0.0
C2157 C 0.55315 0.09726 0.24886 0.0
C2158 C 0.56439 0.06132 0.17002 0.0
C2159 C 0.59419 0.08429 0.15288 0.0
N2160 N 0.58935 0.08391 0.19377 0.0
C2161 C 0.57132 0.06909 0.1916 0.0
C2162 C 0.60064 0.09168 0.17474 0.0
C2163 C 0.57596 0.06898 0.15056 0.0
C2164 C 0.60458 0.14268 0.28888 0.0
N2165 N 0.58749 0.1268 0.29126 0.0
C2166 C 0.60069 0.16572 0.2942 0.0
C2167 C 0.57914 0.17246 0.30199 0.0
C2168 C 0.56179 0.15616 0.30438 0.0
C2169 C 0.56629 0.13329 0.29888 0.0
C2170 C 0.57764 0.0862 0.3525 0.0
C2171 C 0.56441 0.067 0.31112 0.0
C2172 C 0.58688 0.09391 0.33178 0.0
N2173 N 0.58013 0.0844 0.31144 0.0
C2174 C 0.55481 0.05885 0.3315 0.0
C2175 C 0.56148 0.06856 0.3523 0.0
C2176 C 0.59723 0.0521 0.25494 0.0
C2177 C 0.66921 0.10288 0.21866 0.0
C2178 C 0.63739 0.06902 0.20879 0.0
C2179 C 0.66062 0.0649 0.20475 0.0
C2180 C 0.67661 0.08196 0.20977 0.0
N2181 N 0.63025 0.08956 0.21753 0.0
C2182 C 0.64582 0.10639 0.22244 0.0
Co2183 Co 0.90721 0.59435 0.27952 0.0
Co2184 Co 0.91348 0.59759 0.2208 0.0
O2185 O 0.89895 0.60715 0.24954 0.0
C2186 C 0.91414 0.64435 0.28835 0.0
O2187 O 0.92769 0.64522 0.27038 0.0
C2188 C 0.86392 0.59088 0.21002 0.0
O2189 O 0.86069 0.58235 0.2306 0.0
O2190 O 0.90765 0.56464 0.22778 0.0
O2191 O 0.90986 0.56283 0.26613 0.0
H2192 H 0.96546 0.5491 0.17213 0.0
H2193 H 0.8652 0.62255 0.27501 0.0
O2194 O 0.90447 0.62553 0.29388 0.0
H2195 H 0.8386 0.54701 0.30233 0.0
H2196 H 0.90057 0.58645 0.36526 0.0
H2197 H 0.94161 0.56074 0.29593 0.0
H2198 H 0.87976 0.55428 0.29585 0.0
H2199 H 0.89008 0.60161 0.3272 0.0
O2200 O 0.88342 0.5989 0.20424 0.0
H2201 H 0.94725 0.56179 0.20813 0.0
H2202 H 0.91036 0.61322 0.17215 0.0
H2203 H 0.95253 0.54498 0.33363 0.0
H2204 H 0.82389 0.6161 0.28153 0.0
H2205 H 0.93195 0.55786 0.36863 0.0
H2206 H 0.81036 0.57807 0.29522 0.0
O2207 O 0.94058 0.59978 0.27398 0.0
H2208 H 0.89141 0.68055 0.21408 0.0
H2209 H 0.95433 0.62472 0.20572 0.0
H2210 H 0.96174 0.6657 0.19823 0.0
H2211 H 0.93013 0.69393 0.20235 0.0
H2212 H 0.88481 0.63941 0.22162 0.0
H2213 H 0.92812 0.60106 0.13574 0.0
H2214 H 0.95591 0.56878 0.13559 0.0
O2215 O 0.944 0.59576 0.23597 0.0
C2216 C 0.90834 0.5533 0.24646 0.0
C2217 C 0.95341 0.56321 0.17198 0.0
C2218 C 0.93247 0.59238 0.15155 0.0
N2219 N 0.92783 0.58828 0.19226 0.0
C2220 C 0.94306 0.57049 0.19231 0.0
C2221 C 0.92246 0.59919 0.17222 0.0
C2222 C 0.94804 0.57426 0.15148 0.0
C2223 C 0.85945 0.60602 0.28115 0.0
N2224 N 0.87487 0.58885 0.28512 0.0
C2225 C 0.83604 0.60244 0.28473 0.0
C2226 C 0.82845 0.58109 0.29239 0.0
C2227 C 0.84429 0.56365 0.29636 0.0
C2228 C 0.86757 0.56785 0.29259 0.0
C2229 C 0.90964 0.58067 0.35013 0.0
C2230 C 0.93247 0.56631 0.31107 0.0
C2231 C 0.90381 0.58923 0.32854 0.0
N2232 N 0.91513 0.58195 0.30935 0.0
C2233 C 0.93878 0.55738 0.33237 0.0
C2234 C 0.92724 0.56463 0.35201 0.0
C2235 C 0.9527 0.59807 0.25587 0.0
C2236 C 0.90531 0.66841 0.21217 0.0
C2237 C 0.94051 0.6369 0.20765 0.0
C2238 C 0.94479 0.66008 0.20332 0.0
C2239 C 0.92704 0.67591 0.20562 0.0
N2240 N 0.91912 0.62968 0.21402 0.0
C2241 C 0.90165 0.6451 0.21634 0.0
Co2242 Co 0.40789 0.91085 0.22322 0.0
Co2243 Co 0.41447 0.90687 0.28198 0.0
O2244 O 0.3997 0.89821 0.25319 0.0
C2245 C 0.41316 0.86078 0.21448 0.0
O2246 O 0.42647 0.8596 0.23261 0.0
C2247 C 0.36521 0.91643 0.29245 0.0
O2248 O 0.36408 0.92922 0.27395 0.0
O2249 O 0.41068 0.94022 0.27502 0.0
O2250 O 0.41216 0.94223 0.23654 0.0
H2251 H 0.46993 0.95093 0.33111 0.0
H2252 H 0.36502 0.88396 0.22823 0.0
O2253 O 0.40395 0.8798 0.20891 0.0
H2254 H 0.34055 0.96074 0.20254 0.0
H2255 H 0.39814 0.92006 0.13791 0.0
H2256 H 0.44484 0.94085 0.20519 0.0
H2257 H 0.38156 0.95198 0.20794 0.0
H2258 H 0.38828 0.90534 0.1763 0.0
O2259 O 0.38394 0.90656 0.29783 0.0
H2260 H 0.45134 0.9394 0.29487 0.0
H2261 H 0.40815 0.89307 0.33092 0.0
H2262 H 0.45518 0.95634 0.16723 0.0
H2263 H 0.32383 0.8919 0.22278 0.0
H2264 H 0.43171 0.94593 0.13321 0.0
H2265 H 0.31137 0.93055 0.2099 0.0
O2266 O 0.44105 0.90449 0.22848 0.0
H2267 H 0.38809 0.82496 0.28746 0.0
H2268 H 0.45272 0.87812 0.30002 0.0
H2269 H 0.45765 0.83695 0.30847 0.0
H2270 H 0.42516 0.81006 0.3022 0.0
H2271 H 0.38399 0.86624 0.2791 0.0
H2272 H 0.42604 0.90432 0.36756 0.0
H2273 H 0.45726 0.93335 0.36779 0.0
O2274 O 0.44539 0.90675 0.26684 0.0
C2275 C 0.41178 0.95157 0.25635 0.0
C2276 C 0.45639 0.93821 0.33122 0.0
C2277 C 0.43173 0.91208 0.35168 0.0
N2278 N 0.42881 0.91546 0.31075 0.0
C2279 C 0.44586 0.93156 0.31075 0.0
C2280 C 0.42161 0.90584 0.33089 0.0
C2281 C 0.44926 0.92836 0.3518 0.0
C2282 C 0.35973 0.90076 0.22243 0.0
N2283 N 0.37567 0.91744 0.21828 0.0
C2284 C 0.33638 0.90518 0.21946 0.0
C2285 C 0.3294 0.92688 0.21226 0.0
C2286 C 0.34577 0.94383 0.20814 0.0
C2287 C 0.36896 0.93879 0.21129 0.0
C2288 C 0.40838 0.9249 0.15262 0.0
C2289 C 0.43434 0.93664 0.19058 0.0
C2290 C 0.40287 0.91663 0.17441 0.0
N2291 N 0.41562 0.92279 0.19311 0.0
C2292 C 0.44036 0.94528 0.16907 0.0
C2293 C 0.42722 0.9394 0.14999 0.0
C2294 C 0.45339 0.9048 0.24653 0.0
C2295 C 0.40238 0.83649 0.29023 0.0
C2296 C 0.43856 0.86649 0.29712 0.0
C2297 C 0.44142 0.84322 0.30201 0.0
C2298 C 0.42319 0.82814 0.2985 0.0
N2299 N 0.41814 0.87454 0.28896 0.0
C2300 C 0.40016 0.85988 0.28554 0.0
Co2301 Co 0.09535 0.40945 0.28076 0.0
Co2302 Co 0.09401 0.40924 0.22191 0.0
O2303 O 0.10603 0.39804 0.25111 0.0
C2304 C 0.08914 0.35904 0.28801 0.0
O2305 O 0.07671 0.35808 0.26925 0.0
C2306 C 0.1442 0.41566 0.21354 0.0
O2307 O 0.14565 0.42769 0.23253 0.0
O2308 O 0.10038 0.44173 0.23086 0.0
O2309 O 0.09254 0.44139 0.26847 0.0
H2310 H 0.04835 0.46185 0.17121 0.0
H2311 H 0.13852 0.38293 0.27751 0.0
O2312 O 0.09817 0.37796 0.29421 0.0
H2313 H 0.16077 0.45776 0.3102 0.0
H2314 H 0.09619 0.4148 0.36697 0.0
H2315 H 0.05783 0.44018 0.29603 0.0
H2316 H 0.12034 0.44935 0.30119 0.0
H2317 H 0.10985 0.40153 0.3292 0.0
O2318 O 0.12516 0.40669 0.20768 0.0
H2319 H 0.06303 0.44709 0.20801 0.0
H2320 H 0.10078 0.39555 0.17304 0.0
H2321 H 0.0437 0.45399 0.33342 0.0
H2322 H 0.17917 0.39051 0.28649 0.0
H2323 H 0.06295 0.44132 0.36923 0.0
H2324 H 0.19053 0.42818 0.30288 0.0
O2325 O 0.06271 0.40327 0.27233 0.0
H2326 H 0.11294 0.32553 0.21433 0.0
H2327 H 0.05376 0.38451 0.20181 0.0
H2328 H 0.04525 0.3442 0.19228 0.0
H2329 H 0.07499 0.31436 0.1985 0.0
H2330 H 0.12061 0.36606 0.22385 0.0
H2331 H 0.08662 0.40984 0.13585 0.0
H2332 H 0.06011 0.44315 0.13478 0.0
O2333 O 0.06237 0.41184 0.2349 0.0
C2334 C 0.09666 0.45207 0.24981 0.0
C2335 C 0.05982 0.44727 0.17145 0.0
C2336 C 0.08129 0.41807 0.15161 0.0
N2337 N 0.08249 0.42028 0.19271 0.0
C2338 C 0.06815 0.4388 0.19224 0.0
C2339 C 0.08926 0.41007 0.17272 0.0
C2340 C 0.06643 0.43677 0.15102 0.0
C2341 C 0.14331 0.39931 0.28479 0.0
N2342 N 0.12705 0.41568 0.28882 0.0
C2343 C 0.16636 0.40352 0.28978 0.0
C2344 C 0.17273 0.42467 0.29895 0.0
C2345 C 0.15604 0.44128 0.30304 0.0
C2346 C 0.13317 0.43646 0.29782 0.0
C2347 C 0.08772 0.42053 0.35148 0.0
C2348 C 0.06637 0.43468 0.31153 0.0
C2349 C 0.09537 0.41306 0.33004 0.0
N2350 N 0.08485 0.42033 0.3104 0.0
C2351 C 0.05826 0.44252 0.33266 0.0
C2352 C 0.06907 0.4354 0.35274 0.0
C2353 C 0.05204 0.40741 0.25368 0.0
C2354 C 0.09985 0.33837 0.21152 0.0
C2355 C 0.06672 0.37165 0.20471 0.0
C2356 C 0.06184 0.34884 0.19919 0.0
C2357 C 0.07854 0.33211 0.20266 0.0
N2358 N 0.08764 0.37766 0.2134 0.0
C2359 C 0.10411 0.36136 0.21682 0.0
Co2360 Co 0.78015 0.59646 0.90979 0.0
Co2361 Co 0.72141 0.59204 0.90536 0.0
O2362 O 0.75082 0.60543 0.89626 0.0
C2363 C 0.79029 0.58946 0.86009 0.0
O2364 O 0.77213 0.5762 0.85858 0.0
C2365 C 0.71274 0.64187 0.91218 0.0
O2366 O 0.73195 0.64284 0.92388 0.0
O2367 O 0.72785 0.5977 0.93848 0.0
O2368 O 0.766 0.59397 0.94085 0.0
H2369 H 0.66955 0.5417 0.95233 0.0
H2370 H 0.77719 0.63873 0.88176 0.0
O2371 O 0.79537 0.59899 0.87908 0.0
H2372 H 0.80327 0.66435 0.95804 0.0
H2373 H 0.86579 0.60094 0.92004 0.0
H2374 H 0.79479 0.56137 0.94354 0.0
H2375 H 0.79635 0.62333 0.95031 0.0
H2376 H 0.82843 0.61248 0.90396 0.0
O2377 O 0.70646 0.62297 0.9031 0.0
H2378 H 0.70663 0.55816 0.94028 0.0
H2379 H 0.67314 0.59841 0.88967 0.0
H2380 H 0.83176 0.5494 0.9602 0.0
H2381 H 0.78416 0.67992 0.88867 0.0
H2382 H 0.86761 0.56924 0.94845 0.0
H2383 H 0.7972 0.69297 0.92707 0.0
O2384 O 0.77366 0.56334 0.90411 0.0
H2385 H 0.71738 0.61335 0.822 0.0
H2386 H 0.7048 0.55169 0.87851 0.0
H2387 H 0.69762 0.54409 0.83754 0.0
H2388 H 0.70388 0.57507 0.80896 0.0
H2389 H 0.72454 0.62014 0.86315 0.0
H2390 H 0.63567 0.58253 0.90131 0.0
H2391 H 0.63373 0.55391 0.9328 0.0
O2392 O 0.73545 0.5608 0.90774 0.0
C2393 C 0.7463 0.59616 0.95008 0.0
C2394 C 0.67018 0.55411 0.93853 0.0
C2395 C 0.65116 0.57704 0.90991 0.0
N2396 N 0.69206 0.57908 0.91418 0.0
C2397 C 0.69113 0.56343 0.93159 0.0
C2398 C 0.67242 0.58601 0.90343 0.0
C2399 C 0.65009 0.56098 0.92758 0.0
C2400 C 0.78308 0.64426 0.89845 0.0
N2401 N 0.78645 0.62864 0.91557 0.0
C2402 C 0.78691 0.66761 0.90229 0.0
C2403 C 0.7942 0.67492 0.92384 0.0
C2404 C 0.79759 0.65888 0.94123 0.0
C2405 C 0.79359 0.63568 0.93677 0.0
C2406 C 0.85029 0.59219 0.92533 0.0
C2407 C 0.8103 0.57018 0.93845 0.0
C2408 C 0.82909 0.59861 0.91624 0.0
N2409 N 0.80943 0.5877 0.92291 0.0
C2410 C 0.83119 0.56329 0.9479 0.0
C2411 C 0.85129 0.57441 0.94127 0.0
C2412 C 0.75522 0.55163 0.90567 0.0
C2413 C 0.71455 0.59973 0.83429 0.0
C2414 C 0.70765 0.56523 0.86618 0.0
C2415 C 0.7035 0.56084 0.843 0.0
C2416 C 0.707 0.57824 0.82698 0.0
N2417 N 0.71501 0.58637 0.87321 0.0
C2418 C 0.7185 0.6035 0.85761 0.0
Co2419 Co 0.72194 0.4094 0.09632 0.0
Co2420 Co 0.78075 0.40807 0.09259 0.0
O2421 O 0.75179 0.39763 0.10587 0.0
C2422 C 0.71417 0.35917 0.09032 0.0
O2423 O 0.73278 0.35819 0.07769 0.0
C2424 C 0.78982 0.41522 0.14251 0.0
O2425 O 0.77128 0.42793 0.14371 0.0
O2426 O 0.77266 0.44087 0.09825 0.0
O2427 O 0.73458 0.44113 0.09304 0.0
H2428 H 0.83072 0.45731 0.04249 0.0
H2429 H 0.72627 0.38276 0.13932 0.0
O2430 O 0.70821 0.37807 0.09954 0.0
H2431 H 0.69545 0.45797 0.16271 0.0
H2432 H 0.63587 0.41552 0.10008 0.0
H2433 H 0.70574 0.44037 0.0594 0.0
H2434 H 0.70311 0.44957 0.122 0.0
H2435 H 0.67395 0.40199 0.11254 0.0
O2436 O 0.79568 0.40609 0.12354 0.0
H2437 H 0.79416 0.44377 0.05892 0.0
H2438 H 0.82962 0.39448 0.09911 0.0
H2439 H 0.66803 0.4544 0.04643 0.0
H2440 H 0.71865 0.39033 0.18025 0.0
H2441 H 0.63275 0.442 0.06686 0.0
H2442 H 0.70319 0.42819 0.19217 0.0
O2443 O 0.72902 0.40312 0.06348 0.0
H2444 H 0.78821 0.32478 0.11345 0.0
H2445 H 0.79876 0.38218 0.05224 0.0
H2446 H 0.80771 0.34158 0.04447 0.0
H2447 H 0.8025 0.31256 0.07522 0.0
H2448 H 0.77921 0.36554 0.1204 0.0
H2449 H 0.86659 0.40763 0.08329 0.0
H2450 H 0.86728 0.4392 0.05468 0.0
O2451 O 0.76678 0.40999 0.0613 0.0
C2452 C 0.75369 0.45149 0.09567 0.0
C2453 C 0.83064 0.44349 0.05489 0.0
C2454 C 0.85077 0.41563 0.07781 0.0
N2455 N 0.80974 0.41825 0.07983 0.0
C2456 C 0.80998 0.43571 0.06421 0.0
C2457 C 0.82979 0.40829 0.08675 0.0
C2458 C 0.85115 0.43334 0.06176 0.0
C2459 C 0.71939 0.39922 0.14437 0.0
N2460 N 0.71511 0.41569 0.12828 0.0
C2461 C 0.71518 0.40343 0.16757 0.0
C2462 C 0.70653 0.42469 0.17425 0.0
C2463 C 0.7022 0.44141 0.15774 0.0
C2464 C 0.70665 0.43659 0.1347 0.0
C2465 C 0.65112 0.42114 0.09111 0.0
C2466 C 0.69048 0.43501 0.06847 0.0
C2467 C 0.67273 0.41353 0.09808 0.0
N2468 N 0.69208 0.42065 0.0869 0.0
C2469 C 0.66917 0.44296 0.061 0.0
C2470 C 0.64938 0.43598 0.07246 0.0
C2471 C 0.74735 0.4062 0.05194 0.0
C2472 C 0.7906 0.33727 0.09992 0.0
C2473 C 0.79635 0.36965 0.06568 0.0
C2474 C 0.80151 0.34669 0.0612 0.0
C2475 C 0.79859 0.33042 0.07846 0.0
N2476 N 0.78856 0.37624 0.08679 0.0
C2477 C 0.78561 0.36038 0.10378 0.0
Co2478 Co 0.59526 0.78017 0.09288 0.0
Co2479 Co 0.59457 0.72138 0.09738 0.0
O2480 O 0.60616 0.75153 0.10639 0.0
C2481 C 0.58888 0.7893 0.14275 0.0
O2482 O 0.57768 0.7698 0.14428 0.0
C2483 C 0.64479 0.71436 0.09079 0.0
O2484 O 0.64519 0.73235 0.07725 0.0
O2485 O 0.60033 0.72802 0.06435 0.0
O2486 O 0.59313 0.76569 0.06186 0.0
H2487 H 0.54979 0.66596 0.04881 0.0
H2488 H 0.63807 0.77979 0.12024 0.0
O2489 O 0.59731 0.79557 0.12358 0.0
H2490 H 0.66078 0.80734 0.04357 0.0
H2491 H 0.59459 0.86591 0.08226 0.0
H2492 H 0.55899 0.79257 0.05947 0.0
H2493 H 0.62042 0.79785 0.05194 0.0
H2494 H 0.60832 0.82936 0.09853 0.0
O2495 O 0.62615 0.70822 0.10041 0.0
H2496 H 0.56348 0.70411 0.06101 0.0
H2497 H 0.60274 0.67378 0.11429 0.0
H2498 H 0.54488 0.8287 0.04261 0.0
H2499 H 0.67862 0.78928 0.11268 0.0
H2500 H 0.56272 0.86571 0.054 0.0
H2501 H 0.69019 0.80312 0.07409 0.0
O2502 O 0.56269 0.77174 0.09912 0.0
H2503 H 0.61473 0.71933 0.18111 0.0
H2504 H 0.55482 0.70272 0.12379 0.0
H2505 H 0.54696 0.69561 0.16471 0.0
H2506 H 0.57707 0.70389 0.1937 0.0
H2507 H 0.62176 0.72644 0.14 0.0
H2508 H 0.5896 0.63528 0.10259 0.0
H2509 H 0.56284 0.6312 0.06969 0.0
O2510 O 0.5626 0.73358 0.09434 0.0
C2511 C 0.59698 0.74619 0.05266 0.0
C2512 C 0.56134 0.66752 0.06326 0.0
C2513 C 0.58369 0.6503 0.09344 0.0
N2514 N 0.58359 0.69121 0.08857 0.0
C2515 C 0.56909 0.68908 0.07029 0.0
C2516 C 0.59107 0.67215 0.09998 0.0
C2517 C 0.56869 0.64802 0.07496 0.0
C2518 C 0.64296 0.78597 0.10346 0.0
N2519 N 0.62689 0.78835 0.08659 0.0
C2520 C 0.66595 0.79124 0.09925 0.0
C2521 C 0.67244 0.79898 0.07759 0.0
C2522 C 0.65595 0.80134 0.06046 0.0
C2523 C 0.63312 0.79588 0.06528 0.0
C2524 C 0.58671 0.84989 0.07712 0.0
C2525 C 0.56693 0.80859 0.06441 0.0
C2526 C 0.59438 0.82914 0.08632 0.0
N2527 N 0.58458 0.80884 0.07982 0.0
C2528 C 0.55883 0.829 0.05485 0.0
C2529 C 0.56883 0.84976 0.06126 0.0
C2530 C 0.55216 0.75265 0.09696 0.0
C2531 C 0.60149 0.71562 0.16864 0.0
C2532 C 0.56796 0.70647 0.13629 0.0
C2533 C 0.56344 0.70234 0.15944 0.0
C2534 C 0.58035 0.70698 0.1757 0.0
N2535 N 0.58875 0.71494 0.1295 0.0
C2536 C 0.6054 0.71953 0.14534 0.0
Co2537 Co 0.28139 0.59468 0.09538 0.0
Co2538 Co 0.22248 0.59491 0.09423 0.0
O2539 O 0.25176 0.60622 0.10595 0.0
C2540 C 0.2882 0.64496 0.08809 0.0
O2541 O 0.2693 0.64547 0.07587 0.0
C2542 C 0.21456 0.58865 0.14451 0.0
O2543 O 0.23359 0.57669 0.14578 0.0
O2544 O 0.23144 0.56246 0.10059 0.0
O2545 O 0.26917 0.56267 0.09334 0.0
H2546 H 0.17142 0.54203 0.04915 0.0
H2547 H 0.2782 0.62229 0.13791 0.0
O2548 O 0.2947 0.6263 0.0974 0.0
H2549 H 0.31119 0.54821 0.16187 0.0
H2550 H 0.36761 0.58977 0.0961 0.0
H2551 H 0.29664 0.56294 0.05868 0.0
H2552 H 0.30203 0.55554 0.12128 0.0
H2553 H 0.32985 0.60329 0.10948 0.0
O2554 O 0.20851 0.59755 0.12551 0.0
H2555 H 0.20834 0.55693 0.06346 0.0
H2556 H 0.17368 0.60856 0.10137 0.0
H2557 H 0.33403 0.54885 0.04486 0.0
H2558 H 0.28732 0.61581 0.1787 0.0
H2559 H 0.36986 0.56224 0.06365 0.0
H2560 H 0.30386 0.57851 0.19092 0.0
O2561 O 0.27289 0.59999 0.0626 0.0
H2562 H 0.21505 0.67868 0.11304 0.0
H2563 H 0.2021 0.61947 0.05409 0.0
H2564 H 0.19251 0.65973 0.04555 0.0
H2565 H 0.19895 0.68969 0.07518 0.0
H2566 H 0.22462 0.6382 0.12073 0.0
H2567 H 0.13637 0.59415 0.08757 0.0
H2568 H 0.13509 0.56071 0.06116 0.0
O2569 O 0.23527 0.5922 0.06253 0.0
C2570 C 0.25041 0.55208 0.09725 0.0
C2571 C 0.17175 0.55667 0.06057 0.0
C2572 C 0.15208 0.58592 0.08213 0.0
N2573 N 0.19319 0.58379 0.08297 0.0
C2574 C 0.19261 0.56521 0.0687 0.0
C2575 C 0.17326 0.594 0.08989 0.0
C2576 C 0.15138 0.56715 0.06732 0.0
C2577 C 0.28555 0.60607 0.14307 0.0
N2578 N 0.28957 0.5893 0.1272 0.0
C2579 C 0.29061 0.60248 0.16621 0.0
C2580 C 0.29987 0.58154 0.17305 0.0
C2581 C 0.30396 0.56453 0.15677 0.0
C2582 C 0.29866 0.56873 0.1338 0.0
C2583 C 0.35212 0.58372 0.08784 0.0
C2584 C 0.31215 0.56876 0.06701 0.0
C2585 C 0.33068 0.59133 0.09533 0.0
N2586 N 0.31104 0.58367 0.08506 0.0
C2587 C 0.33328 0.56076 0.05908 0.0
C2588 C 0.35337 0.56829 0.06962 0.0
C2589 C 0.2541 0.59606 0.05206 0.0
C2590 C 0.21214 0.66579 0.09999 0.0
C2591 C 0.20509 0.63238 0.06699 0.0
C2592 C 0.19954 0.65517 0.0621 0.0
C2593 C 0.20314 0.67196 0.07874 0.0
N2594 N 0.21393 0.62646 0.08786 0.0
C2595 C 0.21747 0.64283 0.10427 0.0
Co2596 Co 0.40669 0.2212 0.08952 0.0
Co2597 Co 0.40696 0.2799 0.09809 0.0
O2598 O 0.39559 0.249 0.10474 0.0
C2599 C 0.41412 0.21072 0.13898 0.0
O2600 O 0.42388 0.23092 0.14109 0.0
C2601 C 0.35691 0.28683 0.09024 0.0
O2602 O 0.3569 0.26893 0.07656 0.0
O2603 O 0.40248 0.2753 0.06449 0.0
O2604 O 0.40672 0.23723 0.05911 0.0
H2605 H 0.45235 0.33903 0.05474 0.0
H2606 H 0.36492 0.22025 0.11846 0.0
O2607 O 0.40634 0.20437 0.11955 0.0
H2608 H 0.34013 0.19247 0.04251 0.0
H2609 H 0.40971 0.13602 0.07509 0.0
H2610 H 0.44135 0.21154 0.05368 0.0
H2611 H 0.3805 0.20312 0.04942 0.0
H2612 H 0.39565 0.17131 0.09371 0.0
O2613 O 0.37517 0.29257 0.10077 0.0
H2614 H 0.43867 0.30001 0.06376 0.0
H2615 H 0.39777 0.32614 0.11804 0.0
H2616 H 0.4557 0.1767 0.0344 0.0
H2617 H 0.32438 0.20977 0.11232 0.0
H2618 H 0.43986 0.13861 0.04511 0.0
H2619 H 0.31175 0.19581 0.0741 0.0
O2620 O 0.43944 0.23004 0.09486 0.0
H2621 H 0.384 0.2758 0.18101 0.0
H2622 H 0.44555 0.29716 0.12709 0.0
H2623 H 0.45202 0.30122 0.16867 0.0
H2624 H 0.42111 0.29048 0.19596 0.0
H2625 H 0.37834 0.27181 0.13927 0.0
H2626 H 0.41088 0.36548 0.10953 0.0
H2627 H 0.43847 0.3721 0.07775 0.0
O2628 O 0.43905 0.26847 0.09542 0.0
C2629 C 0.40402 0.25765 0.05166 0.0
C2630 C 0.44042 0.33636 0.06871 0.0
C2631 C 0.41716 0.3512 0.09946 0.0
N2632 N 0.41776 0.31074 0.09166 0.0
C2633 C 0.43266 0.3143 0.07394 0.0
C2634 C 0.40981 0.32888 0.10421 0.0
C2635 C 0.43262 0.35491 0.08162 0.0
C2636 C 0.35956 0.21413 0.1018 0.0
N2637 N 0.37504 0.21233 0.08431 0.0
C2638 C 0.33658 0.20824 0.09842 0.0
C2639 C 0.32951 0.20042 0.07697 0.0
C2640 C 0.34542 0.19855 0.05924 0.0
C2641 C 0.36824 0.20464 0.06324 0.0
C2642 C 0.41672 0.15253 0.07025 0.0
C2643 C 0.43427 0.19503 0.05831 0.0
C2644 C 0.40889 0.17256 0.0808 0.0
N2645 N 0.41757 0.19348 0.07467 0.0
C2646 C 0.44251 0.17536 0.04739 0.0
C2647 C 0.43363 0.15399 0.05343 0.0
C2648 C 0.4497 0.24939 0.09548 0.0
C2649 C 0.39758 0.28058 0.1693 0.0
C2650 C 0.43203 0.2924 0.13884 0.0
C2651 C 0.43578 0.29479 0.16237 0.0
C2652 C 0.41842 0.28879 0.17767 0.0
N2653 N 0.41156 0.28431 0.13075 0.0
C2654 C 0.39444 0.27845 0.14564 0.0
Co2655 Co 0.22192 0.40667 0.91135 0.0
Co2656 Co 0.28086 0.41118 0.90575 0.0
O2657 O 0.25118 0.39772 0.89756 0.0
C2658 C 0.21194 0.41427 0.86166 0.0
O2659 O 0.23049 0.42697 0.86016 0.0
C2660 C 0.28979 0.36145 0.91545 0.0
O2661 O 0.27176 0.36095 0.92893 0.0
O2662 O 0.27442 0.40783 0.93931 0.0
O2663 O 0.23614 0.40845 0.94228 0.0
H2664 H 0.33314 0.46411 0.94929 0.0
H2665 H 0.22454 0.36497 0.8824 0.0
O2666 O 0.20657 0.40488 0.88064 0.0
H2667 H 0.19827 0.33798 0.95813 0.0
H2668 H 0.13631 0.40224 0.92193 0.0
H2669 H 0.20756 0.44093 0.94612 0.0
H2670 H 0.20573 0.37907 0.95134 0.0
H2671 H 0.17352 0.39109 0.90526 0.0
O2672 O 0.29537 0.37995 0.90522 0.0
H2673 H 0.2959 0.44751 0.93793 0.0
H2674 H 0.32932 0.40253 0.89139 0.0
H2675 H 0.17075 0.45247 0.96341 0.0
H2676 H 0.21705 0.32373 0.88837 0.0
H2677 H 0.13477 0.43308 0.95131 0.0
H2678 H 0.20387 0.31 0.92648 0.0
O2679 O 0.22855 0.43992 0.90644 0.0
H2680 H 0.28309 0.38455 0.82383 0.0
H2681 H 0.30118 0.44807 0.87668 0.0
H2682 H 0.30913 0.45252 0.83536 0.0
H2683 H 0.30007 0.42057 0.80863 0.0
H2684 H 0.27526 0.38096 0.86524 0.0
H2685 H 0.36692 0.41845 0.90244 0.0
H2686 H 0.36899 0.44954 0.93152 0.0
O2687 O 0.26712 0.44278 0.90569 0.0
C2688 C 0.25606 0.40799 0.9512 0.0
C2689 C 0.33246 0.45063 0.93654 0.0
C2690 C 0.35142 0.42497 0.91027 0.0
N2691 N 0.31041 0.42422 0.91388 0.0
C2692 C 0.31141 0.44123 0.92997 0.0
C2693 C 0.33007 0.41598 0.90414 0.0
C2694 C 0.35257 0.44242 0.92658 0.0
C2695 C 0.21864 0.35914 0.89898 0.0
N2696 N 0.21545 0.37442 0.91646 0.0
C2697 C 0.2145 0.33576 0.90228 0.0
C2698 C 0.20713 0.32807 0.92368 0.0
C2699 C 0.20399 0.34375 0.94144 0.0
C2700 C 0.2083 0.367 0.93751 0.0
C2701 C 0.15186 0.41081 0.92736 0.0
C2702 C 0.192 0.43235 0.94083 0.0
C2703 C 0.17298 0.40462 0.91792 0.0
N2704 N 0.19271 0.41529 0.92477 0.0
C2705 C 0.17119 0.43899 0.95065 0.0
C2706 C 0.15101 0.42811 0.94385 0.0
C2707 C 0.24704 0.4516 0.90532 0.0
C2708 C 0.28703 0.39863 0.83529 0.0
C2709 C 0.29698 0.43422 0.86511 0.0
C2710 C 0.30163 0.43677 0.84175 0.0
C2711 C 0.29656 0.41884 0.82677 0.0
N2712 N 0.2875 0.41442 0.87331 0.0
C2713 C 0.28262 0.3967 0.85875 0.0
Co2714 Co 0.59339 0.28059 0.90974 0.0
Co2715 Co 0.59402 0.22174 0.91315 0.0
O2716 O 0.6052 0.25061 0.90007 0.0
C2717 C 0.64358 0.28906 0.91662 0.0
O2718 O 0.64464 0.27072 0.92965 0.0
C2719 C 0.58962 0.21122 0.86304 0.0
O2720 O 0.5809 0.23164 0.85932 0.0
O2721 O 0.56164 0.23008 0.90572 0.0
O2722 O 0.56152 0.26793 0.91247 0.0
H2723 H 0.53963 0.17239 0.95842 0.0
H2724 H 0.62075 0.27633 0.8672 0.0
O2725 O 0.62476 0.29448 0.90696 0.0
H2726 H 0.54624 0.30775 0.84257 0.0
H2727 H 0.58698 0.36671 0.90607 0.0
H2728 H 0.56166 0.2966 0.94609 0.0
H2729 H 0.55383 0.29985 0.88337 0.0
H2730 H 0.60104 0.32872 0.89389 0.0
O2731 O 0.59685 0.2057 0.88289 0.0
H2732 H 0.55432 0.20857 0.94221 0.0
H2733 H 0.60994 0.17301 0.91147 0.0
H2734 H 0.54703 0.33422 0.95872 0.0
H2735 H 0.61403 0.28423 0.82619 0.0
H2736 H 0.55967 0.36962 0.93863 0.0
H2737 H 0.57652 0.29999 0.81364 0.0
O2738 O 0.59916 0.2734 0.94284 0.0
H2739 H 0.67793 0.214 0.89554 0.0
H2740 H 0.61862 0.20499 0.95507 0.0
H2741 H 0.65895 0.19681 0.96456 0.0
H2742 H 0.68895 0.20125 0.93465 0.0
H2743 H 0.63737 0.22228 0.88688 0.0
H2744 H 0.59602 0.13649 0.92764 0.0
H2745 H 0.5606 0.13601 0.95129 0.0
O2746 O 0.59069 0.23603 0.94399 0.0
C2747 C 0.55107 0.24901 0.90881 0.0
C2748 C 0.5551 0.17237 0.94817 0.0
C2749 C 0.58679 0.15224 0.93097 0.0
N2750 N 0.5831 0.19299 0.92605 0.0
C2751 C 0.56348 0.19281 0.93887 0.0
C2752 C 0.59463 0.17301 0.92192 0.0
C2753 C 0.56689 0.15198 0.94419 0.0
C2754 C 0.60443 0.28332 0.86188 0.0
N2755 N 0.58766 0.28757 0.87769 0.0
C2756 C 0.60071 0.2877 0.83863 0.0
C2757 C 0.57965 0.29651 0.8316 0.0
C2758 C 0.56265 0.30084 0.84781 0.0
C2759 C 0.56698 0.29622 0.87091 0.0
C2760 C 0.58128 0.3514 0.91491 0.0
C2761 C 0.56717 0.31192 0.9372 0.0
C2762 C 0.58921 0.32984 0.90811 0.0
N2763 N 0.58197 0.31042 0.91911 0.0
C2764 C 0.55886 0.33318 0.94446 0.0
C2765 C 0.56596 0.35303 0.93318 0.0
C2766 C 0.59487 0.25502 0.95393 0.0
C2767 C 0.66501 0.21194 0.9087 0.0
C2768 C 0.63154 0.2071 0.942 0.0
C2769 C 0.65437 0.20235 0.94745 0.0
C2770 C 0.67119 0.20482 0.93066 0.0
N2771 N 0.6256 0.21404 0.92041 0.0
C2772 C 0.64201 0.21651 0.90387 0.0
Co2773 Co 0.40813 0.72431 0.9075 0.0
Co2774 Co 0.40827 0.78323 0.90901 0.0
O2775 O 0.39661 0.75407 0.89705 0.0
C2776 C 0.35814 0.71451 0.91578 0.0
O2777 O 0.35722 0.73143 0.93063 0.0
C2778 C 0.4144 0.79252 0.85885 0.0
O2779 O 0.42661 0.77368 0.85707 0.0
O2780 O 0.44054 0.77417 0.90203 0.0
O2781 O 0.4401 0.73664 0.91018 0.0
H2782 H 0.46245 0.83344 0.95354 0.0
H2783 H 0.3812 0.72761 0.86461 0.0
O2784 O 0.37661 0.71058 0.90478 0.0
H2785 H 0.45573 0.69508 0.84154 0.0
H2786 H 0.41381 0.63807 0.90608 0.0
H2787 H 0.43905 0.70894 0.94484 0.0
H2788 H 0.44782 0.70413 0.88205 0.0
H2789 H 0.4004 0.67586 0.89267 0.0
O2790 O 0.40524 0.7978 0.87797 0.0
H2791 H 0.44703 0.79679 0.93907 0.0
H2792 H 0.39463 0.83223 0.90305 0.0
H2793 H 0.45301 0.67152 0.95871 0.0
H2794 H 0.38825 0.71856 0.82389 0.0
H2795 H 0.44041 0.63574 0.93926 0.0
H2796 H 0.42577 0.70224 0.81212 0.0
O2797 O 0.4023 0.73266 0.94019 0.0
H2798 H 0.32436 0.79196 0.89171 0.0
H2799 H 0.3846 0.80291 0.95001 0.0
H2800 H 0.34462 0.81293 0.95933 0.0
H2801 H 0.31417 0.80753 0.93003 0.0
H2802 H 0.36458 0.78194 0.88321 0.0
H2803 H 0.40954 0.86929 0.91704 0.0
H2804 H 0.44363 0.87005 0.94257 0.0
O2805 O 0.41137 0.77001 0.94054 0.0
C2806 C 0.45083 0.75526 0.90591 0.0
C2807 C 0.44752 0.83334 0.94251 0.0
C2808 C 0.41783 0.85345 0.92203 0.0
N2809 N 0.41975 0.81232 0.9205 0.0
C2810 C 0.43869 0.81263 0.93429 0.0
C2811 C 0.40946 0.83241 0.91415 0.0
C2812 C 0.43696 0.85387 0.93634 0.0
C2813 C 0.39751 0.72037 0.85963 0.0
N2814 N 0.41408 0.71639 0.87571 0.0
C2815 C 0.40143 0.71534 0.83655 0.0
C2816 C 0.42249 0.70621 0.82995 0.0
C2817 C 0.43931 0.7022 0.84644 0.0
C2818 C 0.43478 0.70745 0.86937 0.0
C2819 C 0.41949 0.65354 0.91465 0.0
C2820 C 0.43356 0.69346 0.93622 0.0
C2821 C 0.41194 0.675 0.90714 0.0
N2822 N 0.41915 0.69462 0.91779 0.0
C2823 C 0.44149 0.67231 0.94419 0.0
C2824 C 0.43441 0.65224 0.93327 0.0
C2825 C 0.4068 0.75124 0.95087 0.0
C2826 C 0.33748 0.79443 0.90461 0.0
C2827 C 0.37145 0.80038 0.93723 0.0
C2828 C 0.34884 0.80616 0.94257 0.0
C2829 C 0.33177 0.80314 0.92612 0.0
N2830 N 0.37693 0.79189 0.91607 0.0
C2831 C 0.36028 0.78885 0.89987 0.0
C2832 C 0.10629 0.34024 0.32245 0.0
C2833 C 0.09113 0.33896 0.30369 0.0
C2834 C 0.10666 0.32331 0.33943 0.0
C2835 C 0.09187 0.30421 0.33855 0.0
H2836 H 0.11762 0.35485 0.32449 0.0
H2837 H 0.11825 0.32567 0.35376 0.0
S2838 S 0.05048 0.29131 0.29186 0.0
N2839 N 0.06215 0.31599 0.28428 0.0
N2840 N 0.06283 0.28407 0.31629 0.0
C2841 C 0.07749 0.30197 0.31924 0.0
C2842 C 0.07712 0.31933 0.30182 0.0
C2843 C 0.67955 0.10604 0.34248 0.0
C2844 C 0.69886 0.09159 0.34115 0.0
C2845 C 0.66218 0.10529 0.32596 0.0
C2846 C 0.66326 0.09014 0.30719 0.0
H2847 H 0.67739 0.11767 0.3568 0.0
H2848 H 0.64748 0.11641 0.32829 0.0
S2849 S 0.71109 0.05013 0.29434 0.0
N2850 N 0.71877 0.0627 0.31853 0.0
N2851 N 0.68609 0.06141 0.28733 0.0
C2852 C 0.683 0.0764 0.3049 0.0
C2853 C 0.70077 0.0771 0.32189 0.0
C2854 C 0.9283 0.69952 0.32049 0.0
C2855 C 0.91137 0.70023 0.33771 0.0
C2856 C 0.92851 0.68201 0.30386 0.0
C2857 C 0.91183 0.66451 0.30385 0.0
H2858 H 0.94212 0.71195 0.32041 0.0
H2859 H 0.94244 0.68166 0.29159 0.0
S2860 S 0.86171 0.66055 0.34299 0.0
N2861 N 0.87594 0.68333 0.35197 0.0
N2862 N 0.87642 0.65055 0.32099 0.0
C2863 C 0.89401 0.66586 0.3201 0.0
C2864 C 0.89376 0.68367 0.33693 0.0
C2865 C 0.32783 0.93125 0.30813 0.0
C2866 C 0.34527 0.91455 0.30826 0.0
C2867 C 0.31028 0.93111 0.3247 0.0
C2868 C 0.30948 0.91424 0.34198 0.0
H2869 H 0.3282 0.94506 0.29571 0.0
H2870 H 0.2978 0.94486 0.32446 0.0
S2871 S 0.34904 0.86463 0.34768 0.0
N2872 N 0.35914 0.87925 0.32566 0.0
N2873 N 0.32629 0.87892 0.35652 0.0
C2874 C 0.32606 0.89669 0.34142 0.0
C2875 C 0.3439 0.89687 0.32465 0.0
C2876 C 0.07336 0.68306 0.69933 0.0
C2877 C 0.09075 0.66629 0.69956 0.0
C2878 C 0.07292 0.70037 0.68252 0.0
C2879 C 0.08984 0.70155 0.66532 0.0
H2880 H 0.05937 0.68219 0.71151 0.0
H2881 H 0.0586 0.71219 0.68236 0.0
S2882 S 0.14118 0.66412 0.66069 0.0
N2883 N 0.12683 0.65377 0.68278 0.0
N2884 N 0.12601 0.68611 0.65138 0.0
C2885 C 0.10815 0.68584 0.66637 0.0
C2886 C 0.1086 0.66828 0.68342 0.0
C2887 C 0.32405 0.10773 0.66235 0.0
C2888 C 0.30532 0.09249 0.66276 0.0
C2889 C 0.34046 0.10791 0.67986 0.0
C2890 C 0.33906 0.09275 0.69864 0.0
H2891 H 0.32646 0.11936 0.64805 0.0
H2892 H 0.35478 0.11964 0.67819 0.0
S2893 S 0.29226 0.05075 0.70911 0.0
N2894 N 0.28539 0.0629 0.68448 0.0
N2895 N 0.31638 0.06311 0.71738 0.0
C2896 C 0.31981 0.07816 0.69991 0.0
C2897 C 0.30295 0.07805 0.68201 0.0
C2898 C 0.8993 0.3258 0.65912 0.0
C2899 C 0.91281 0.30592 0.66147 0.0
C2900 C 0.89913 0.34295 0.67593 0.0
C2901 C 0.91247 0.34113 0.69599 0.0
H2902 H 0.88904 0.3285 0.64387 0.0
H2903 H 0.88877 0.35805 0.67283 0.0
S2904 S 0.94951 0.2917 0.71156 0.0
N2905 N 0.93888 0.28476 0.68624 0.0
N2906 N 0.93857 0.31703 0.71789 0.0
C2907 C 0.92536 0.32091 0.6991 0.0
C2908 C 0.92553 0.30334 0.68187 0.0
C2909 C 0.67507 0.89796 0.65898 0.0
C2910 C 0.69504 0.91144 0.66081 0.0
C2911 C 0.65824 0.8981 0.67608 0.0
C2912 C 0.66048 0.91176 0.69589 0.0
H2913 H 0.67203 0.88751 0.64391 0.0
H2914 H 0.64303 0.88777 0.67335 0.0
S2915 S 0.71046 0.94869 0.71018 0.0
N2916 N 0.71686 0.93769 0.68488 0.0
N2917 N 0.68516 0.93798 0.71708 0.0
C2918 C 0.68085 0.92456 0.69852 0.0
C2919 C 0.69811 0.92439 0.681 0.0
C2920 C 0.32474 0.0747 0.30755 0.0
C2921 C 0.34245 0.09116 0.30704 0.0
C2922 C 0.30768 0.0752 0.32462 0.0
C2923 C 0.30768 0.09216 0.34185 0.0
H2924 H 0.32453 0.06077 0.29526 0.0
H2925 H 0.29499 0.06162 0.32483 0.0
S2926 S 0.34817 0.14124 0.34611 0.0
N2927 N 0.35735 0.12639 0.32384 0.0
N2928 N 0.32548 0.1273 0.35571 0.0
C2929 C 0.3245 0.10948 0.34069 0.0
C2930 C 0.34181 0.10899 0.32336 0.0
C2931 C 0.91202 0.30404 0.32104 0.0
C2932 C 0.91444 0.30935 0.34449 0.0
C2933 C 0.91219 0.32147 0.30424 0.0
C2934 C 0.91479 0.34473 0.31038 0.0
H2935 H 0.90951 0.28641 0.3157 0.0
H2936 H 0.9098 0.31677 0.28642 0.0
S2937 S 0.92586 0.36703 0.36901 0.0
N2938 N 0.92233 0.33918 0.37251 0.0
N2939 N 0.92261 0.3716 0.3413 0.0
C2940 C 0.91827 0.34999 0.33366 0.0
C2941 C 0.91811 0.33239 0.35061 0.0
C2942 C 0.6956 0.93028 0.32459 0.0
C2943 C 0.69595 0.91326 0.34175 0.0
C2944 C 0.67835 0.93067 0.30771 0.0
C2945 C 0.66077 0.91409 0.30741 0.0
H2946 H 0.70819 0.94396 0.3247 0.0
H2947 H 0.6783 0.94459 0.29542 0.0
S2948 S 0.65589 0.86384 0.34631 0.0
N2949 N 0.67861 0.8779 0.35567 0.0
N2950 N 0.6463 0.87873 0.32426 0.0
C2951 C 0.66171 0.89625 0.32366 0.0
C2952 C 0.67926 0.8958 0.34073 0.0
C2953 C 0.10767 0.66457 0.32427 0.0
C2954 C 0.09308 0.66554 0.30506 0.0
C2955 C 0.10757 0.6818 0.34098 0.0
C2956 C 0.09285 0.70087 0.33936 0.0
H2957 H 0.1189 0.65001 0.32688 0.0
H2958 H 0.11872 0.67969 0.35569 0.0
S2959 S 0.05283 0.71293 0.29131 0.0
N2960 N 0.0647 0.68815 0.28446 0.0
N2961 N 0.06448 0.72059 0.31596 0.0
C2962 C 0.07903 0.70277 0.31962 0.0
C2963 C 0.07915 0.68512 0.30248 0.0
C2964 C 0.34256 0.89897 0.67597 0.0
C2965 C 0.3411 0.91328 0.69537 0.0
C2966 C 0.32555 0.899 0.65906 0.0
C2967 C 0.30621 0.91335 0.66067 0.0
H2968 H 0.35728 0.88794 0.67343 0.0
H2969 H 0.32798 0.888 0.64428 0.0
S2970 S 0.29302 0.95276 0.70898 0.0
N2971 N 0.31788 0.94118 0.71598 0.0
N2972 N 0.28583 0.94124 0.68411 0.0
C2973 C 0.30391 0.927 0.68049 0.0
C2974 C 0.32134 0.92697 0.69783 0.0
C2975 C 0.10578 0.33917 0.68179 0.0
C2976 C 0.08989 0.33909 0.69997 0.0
C2977 C 0.10552 0.32217 0.66487 0.0
C2978 C 0.08936 0.3042 0.66526 0.0
H2979 H 0.11819 0.35293 0.68014 0.0
H2980 H 0.11775 0.32359 0.65095 0.0
S2981 S 0.04535 0.29467 0.7103 0.0
N2982 N 0.05856 0.31844 0.7183 0.0
N2983 N 0.05808 0.28638 0.6864 0.0
C2984 C 0.07417 0.30309 0.68401 0.0
C2985 C 0.07443 0.32053 0.70137 0.0
C2986 C 0.69877 0.07325 0.68273 0.0
C2987 C 0.70035 0.09096 0.66638 0.0
C2988 C 0.68155 0.07335 0.69963 0.0
C2989 C 0.66529 0.09118 0.70077 0.0
H2990 H 0.71013 0.05859 0.68177 0.0
H2991 H 0.68028 0.05878 0.71108 0.0
S2992 S 0.6645 0.14359 0.66455 0.0
N2993 N 0.686 0.12827 0.65438 0.0
N2994 N 0.65379 0.12845 0.68593 0.0
C2995 C 0.66776 0.10978 0.68558 0.0
C2996 C 0.68524 0.10968 0.66845 0.0
C2997 C 0.89753 0.67718 0.66036 0.0
C2998 C 0.91079 0.69727 0.66263 0.0
C2999 C 0.89788 0.65994 0.67704 0.0
C3000 C 0.9115 0.66189 0.69689 0.0
H3001 H 0.88714 0.67435 0.64522 0.0
H3002 H 0.88773 0.64467 0.67397 0.0
S3003 S 0.94779 0.71198 0.71238 0.0
N3004 N 0.93675 0.71885 0.68723 0.0
N3005 N 0.93738 0.68639 0.71868 0.0
C3006 C 0.92401 0.68236 0.70002 0.0
C3007 C 0.92366 0.70003 0.68291 0.0
C3008 C 0.32053 0.33785 0.10737 0.0
C3009 C 0.30278 0.33798 0.09101 0.0
C3010 C 0.3371 0.32054 0.10768 0.0
C3011 C 0.33682 0.30251 0.09159 0.0
H3012 H 0.32212 0.35166 0.11972 0.0
H3013 H 0.35074 0.32182 0.12024 0.0
S3014 S 0.29269 0.29346 0.04655 0.0
N3015 N 0.28482 0.31745 0.0594 0.0
N3016 N 0.31611 0.28485 0.05992 0.0
C3017 C 0.31841 0.30162 0.07595 0.0
C3018 C 0.30139 0.31935 0.07567 0.0
C3019 C 0.32179 0.69666 0.93096 0.0
C3020 C 0.33889 0.69773 0.91391 0.0
C3021 C 0.30545 0.67885 0.93126 0.0
C3022 C 0.30565 0.66136 0.91459 0.0
H3023 H 0.32153 0.70912 0.94474 0.0
H3024 H 0.2932 0.6783 0.94521 0.0
S3025 S 0.34461 0.6581 0.86428 0.0
N3026 N 0.35325 0.68105 0.87842 0.0
N3027 N 0.3229 0.64769 0.87914 0.0
C3028 C 0.32183 0.66298 0.89673 0.0
C3029 C 0.33833 0.68112 0.89634 0.0
C3030 C 0.30552 0.32417 0.93057 0.0
C3031 C 0.30507 0.3411 0.91334 0.0
C3032 C 0.32187 0.30642 0.93024 0.0
C3033 C 0.33835 0.30486 0.91262 0.0
H3034 H 0.29382 0.32517 0.94496 0.0
H3035 H 0.32218 0.29446 0.94444 0.0
S3036 S 0.3421 0.34279 0.86153 0.0
N3037 N 0.32092 0.35362 0.87684 0.0
N3038 N 0.35132 0.32035 0.87608 0.0
C3039 C 0.33708 0.32084 0.89454 0.0
C3040 C 0.32055 0.33892 0.89494 0.0
C3041 C 0.66151 0.32439 0.90006 0.0
C3042 C 0.66335 0.30522 0.91466 0.0
C3043 C 0.67834 0.34153 0.89958 0.0
C3044 C 0.69793 0.34039 0.91364 0.0
H3045 H 0.64659 0.3266 0.88922 0.0
H3046 H 0.67559 0.35611 0.8884 0.0
S3047 S 0.71225 0.29283 0.95355 0.0
N3048 N 0.68727 0.28536 0.94249 0.0
N3049 N 0.71898 0.31759 0.94155 0.0
C3050 C 0.70063 0.32079 0.92755 0.0
C3051 C 0.68337 0.30324 0.92807 0.0
C3052 C 0.67727 0.66068 0.89715 0.0
C3053 C 0.69706 0.66201 0.91092 0.0
C3054 C 0.66075 0.67808 0.89726 0.0
C3055 C 0.66312 0.69769 0.91121 0.0
H3056 H 0.67412 0.64576 0.8865 0.0
H3057 H 0.64565 0.67572 0.88671 0.0
S3058 S 0.7128 0.71072 0.94892 0.0
N3059 N 0.71892 0.68545 0.9377 0.0
N3060 N 0.68778 0.71817 0.93799 0.0
C3061 C 0.68335 0.69984 0.92427 0.0
C3062 C 0.7003 0.68203 0.92411 0.0
C3063 C 0.68213 0.69906 0.07564 0.0
C3064 C 0.66516 0.69919 0.09283 0.0
C3065 C 0.69947 0.68231 0.07538 0.0
C3066 C 0.70048 0.6651 0.09231 0.0
H3067 H 0.68138 0.71124 0.06164 0.0
H3068 H 0.71143 0.68218 0.06116 0.0
S3069 S 0.66248 0.66036 0.14324 0.0
N3070 N 0.65222 0.68239 0.12876 0.0
N3071 N 0.68469 0.65113 0.12834 0.0
C3072 C 0.68459 0.66612 0.11047 0.0
C3073 C 0.66697 0.68308 0.1107 0.0
C3074 C 0.33926 0.68162 0.10473 0.0
C3075 C 0.3383 0.70024 0.08939 0.0
C3076 C 0.3224 0.66456 0.10481 0.0
C3077 C 0.30368 0.66524 0.08957 0.0
H3078 H 0.35358 0.67972 0.11641 0.0
H3079 H 0.3245 0.65032 0.11656 0.0
S3080 S 0.29166 0.71154 0.04753 0.0
N3081 N 0.31601 0.71934 0.05973 0.0
N3082 N 0.28419 0.68717 0.0599 0.0
C3083 C 0.30171 0.68443 0.07502 0.0
C3084 C 0.31902 0.70194 0.07493 0.0
C3085 C 0.67951 0.34064 0.1073 0.0
C3086 C 0.69829 0.33925 0.09219 0.0
C3087 C 0.66231 0.32392 0.10749 0.0
C3088 C 0.66302 0.30492 0.09259 0.0
H3089 H 0.67761 0.35519 0.11872 0.0
H3090 H 0.64796 0.32634 0.11904 0.0
S3091 S 0.70961 0.29179 0.05122 0.0
N3092 N 0.71749 0.31629 0.06309 0.0
N3093 N 0.68507 0.28473 0.06348 0.0
C3094 C 0.68233 0.30253 0.07826 0.0
C3095 C 0.69996 0.3197 0.07806 0.0
C3096 C 0.59071 0.82275 0.80484 0.0
C3097 C 0.59059 0.84624 0.81058 0.0
C3098 C 0.59039 0.80566 0.82197 0.0
C3099 C 0.58989 0.8115 0.84542 0.0
H3100 H 0.59128 0.81753 0.78701 0.0
H3101 H 0.59078 0.78781 0.81682 0.0
S3102 S 0.58598 0.87049 0.86931 0.0
N3103 N 0.58773 0.87422 0.84135 0.0
N3104 N 0.58701 0.84249 0.87318 0.0
C3105 C 0.58903 0.83492 0.85123 0.0
C3106 C 0.58941 0.85218 0.83393 0.0
C3107 C 0.17796 0.60476 0.84171 0.0
C3108 C 0.19755 0.59076 0.83971 0.0
C3109 C 0.16073 0.60468 0.82502 0.0
C3110 C 0.16222 0.59068 0.80541 0.0
H3111 H 0.17548 0.61551 0.85666 0.0
H3112 H 0.14583 0.61539 0.82788 0.0
S3113 S 0.21091 0.55238 0.79064 0.0
N3114 N 0.21817 0.56364 0.8156 0.0
N3115 N 0.18575 0.56358 0.7841 0.0
C3116 C 0.18222 0.57743 0.80251 0.0
C3117 C 0.19986 0.57745 0.81966 0.0
C3118 C 0.41532 0.17942 0.80727 0.0
C3119 C 0.41687 0.15593 0.8128 0.0
C3120 C 0.41517 0.1964 0.82453 0.0
C3121 C 0.41654 0.19048 0.84793 0.0
H3122 H 0.41376 0.18471 0.78953 0.0
H3123 H 0.41349 0.21422 0.81953 0.0
S3124 S 0.42441 0.1317 0.87122 0.0
N3125 N 0.42222 0.128 0.84327 0.0
N3126 N 0.42192 0.15958 0.87537 0.0
C3127 C 0.41901 0.16713 0.85352 0.0
C3128 C 0.41917 0.14996 0.83607 0.0
C3129 C 0.84387 0.3985 0.82659 0.0
C3130 C 0.84152 0.41167 0.80649 0.0
C3131 C 0.82705 0.39858 0.84371 0.0
C3132 C 0.80698 0.41184 0.84162 0.0
H3133 H 0.85914 0.38834 0.82951 0.0
H3134 H 0.83016 0.38848 0.85898 0.0
S3135 S 0.79135 0.44793 0.79151 0.0
N3136 N 0.8167 0.43727 0.78481 0.0
N3137 N 0.78502 0.43742 0.81703 0.0
C3138 C 0.80385 0.42435 0.82117 0.0
C3139 C 0.82109 0.42427 0.80363 0.0
C3140 C 0.60545 0.18148 0.16543 0.0
C3141 C 0.59005 0.20002 0.16683 0.0
C3142 C 0.6062 0.1645 0.18236 0.0
C3143 C 0.59155 0.16517 0.20155 0.0
H3144 H 0.61669 0.17962 0.15075 0.0
H3145 H 0.61797 0.15034 0.17993 0.0
S3146 S 0.54951 0.21118 0.21465 0.0
N3147 N 0.56092 0.21896 0.18993 0.0
N3148 N 0.56229 0.18696 0.22182 0.0
C3149 C 0.57689 0.18425 0.20387 0.0
C3150 C 0.57615 0.20166 0.18652 0.0
C3151 C 0.8224 0.59206 0.19792 0.0
C3152 C 0.84573 0.58929 0.19234 0.0
C3153 C 0.80536 0.5916 0.18075 0.0
C3154 C 0.81118 0.58832 0.15753 0.0
H3155 H 0.81735 0.59514 0.21553 0.0
H3156 H 0.78765 0.59436 0.1856 0.0
S3157 S 0.86934 0.57604 0.13473 0.0
N3158 N 0.87328 0.5803 0.16241 0.0
N3159 N 0.84159 0.57942 0.13046 0.0
C3160 C 0.83433 0.5844 0.15204 0.0
C3161 C 0.85151 0.58489 0.16936 0.0
C3162 C 0.42752 0.80582 0.18218 0.0
C3163 C 0.41157 0.80592 0.16405 0.0
C3164 C 0.42725 0.82298 0.19916 0.0
C3165 C 0.41102 0.84087 0.19865 0.0
H3166 H 0.44099 0.79305 0.18272 0.0
H3167 H 0.44053 0.82276 0.21215 0.0
S3168 S 0.3632 0.84677 0.15698 0.0
N3169 N 0.37739 0.8239 0.14825 0.0
N3170 N 0.3769 0.85595 0.17998 0.0
C3171 C 0.39406 0.84025 0.18147 0.0
C3172 C 0.39433 0.82284 0.16424 0.0
C3173 C 0.17831 0.40009 0.16036 0.0
C3174 C 0.19809 0.41387 0.1619 0.0
C3175 C 0.16163 0.40016 0.1776 0.0
C3176 C 0.16384 0.41404 0.19726 0.0
H3177 H 0.1753 0.38946 0.14541 0.0
H3178 H 0.14656 0.38957 0.17509 0.0
S3179 S 0.21334 0.45188 0.21074 0.0
N3180 N 0.21972 0.44068 0.18552 0.0
N3181 N 0.18826 0.44086 0.21797 0.0
C3182 C 0.18404 0.42713 0.19961 0.0
C3183 C 0.20116 0.42703 0.18195 0.0
C3184 C 0.80664 0.57515 0.82281 0.0
C3185 C 0.80655 0.59158 0.84054 0.0
C3186 C 0.82385 0.57513 0.8059 0.0
C3187 C 0.84162 0.59153 0.8061 0.0
H3188 H 0.79391 0.56161 0.8225 0.0
H3189 H 0.82373 0.56158 0.79319 0.0
S3190 S 0.84715 0.64037 0.84669 0.0
N3191 N 0.82432 0.62624 0.85564 0.0
N3192 N 0.85649 0.62618 0.82407 0.0
C3193 C 0.84089 0.60885 0.82292 0.0
C3194 C 0.82342 0.60888 0.84007 0.0
C3195 C 0.40011 0.84701 0.82603 0.0
C3196 C 0.41298 0.84515 0.80568 0.0
C3197 C 0.40009 0.82956 0.84252 0.0
C3198 C 0.41297 0.80932 0.83958 0.0
H3199 H 0.39021 0.86231 0.82958 0.0
H3200 H 0.39019 0.8323 0.858 0.0
S3201 S 0.44822 0.79493 0.7885 0.0
N3202 N 0.43791 0.82068 0.78283 0.0
N3203 N 0.43793 0.78787 0.81392 0.0
C3204 C 0.42523 0.80676 0.8189 0.0
C3205 C 0.42523 0.82463 0.80198 0.0
C3206 C 0.19619 0.4288 0.82418 0.0
C3207 C 0.19569 0.41254 0.84206 0.0
C3208 C 0.17911 0.42916 0.80715 0.0
C3209 C 0.16086 0.41331 0.80737 0.0
H3210 H 0.20934 0.44194 0.82383 0.0
H3211 H 0.17972 0.44255 0.79429 0.0
S3212 S 0.1536 0.36504 0.84834 0.0
N3213 N 0.17679 0.37856 0.85731 0.0
N3214 N 0.14482 0.37932 0.82556 0.0
C3215 C 0.16094 0.39615 0.82437 0.0
C3216 C 0.1783 0.39575 0.84162 0.0
C3217 C 0.59245 0.18152 0.80463 0.0
C3218 C 0.58998 0.15819 0.81052 0.0
C3219 C 0.59209 0.19882 0.82157 0.0
C3220 C 0.58922 0.19331 0.8449 0.0
H3221 H 0.59503 0.18641 0.78689 0.0
H3222 H 0.59447 0.21652 0.81642 0.0
S3223 S 0.57812 0.13523 0.8687 0.0
N3224 N 0.58204 0.13094 0.84104 0.0
N3225 N 0.58115 0.1631 0.87249 0.0
C3226 C 0.58576 0.17014 0.85076 0.0
C3227 C 0.58621 0.15268 0.83368 0.0
C3228 C 0.82178 0.42935 0.19775 0.0
C3229 C 0.83911 0.41253 0.1984 0.0
C3230 C 0.80519 0.42954 0.18023 0.0
C3231 C 0.80537 0.413 0.16262 0.0
H3232 H 0.82157 0.44307 0.21028 0.0
H3233 H 0.7928 0.44337 0.17994 0.0
S3234 S 0.84482 0.36318 0.15842 0.0
N3235 N 0.85362 0.37729 0.18132 0.0
N3236 N 0.82279 0.37784 0.14844 0.0
C3237 C 0.82174 0.39531 0.16387 0.0
C3238 C 0.83849 0.39502 0.18173 0.0
C3239 C 0.60563 0.84121 0.1783 0.0
C3240 C 0.59158 0.83961 0.19789 0.0
C3241 C 0.60514 0.82446 0.16112 0.0
C3242 C 0.59064 0.80519 0.16268 0.0
H3243 H 0.61675 0.85589 0.17577 0.0
H3244 H 0.61592 0.82699 0.1462 0.0
S3245 S 0.55191 0.79157 0.2114 0.0
N3246 N 0.56381 0.81627 0.21858 0.0
N3247 N 0.56297 0.78465 0.18626 0.0
C3248 C 0.57731 0.80269 0.18269 0.0
C3249 C 0.57776 0.8199 0.20027 0.0
C3250 C 0.16179 0.60428 0.17919 0.0
C3251 C 0.16337 0.59034 0.19883 0.0
C3252 C 0.17889 0.60425 0.16238 0.0
C3253 C 0.19846 0.59024 0.1643 0.0
H3254 H 0.1469 0.61503 0.1764 0.0
H3255 H 0.17635 0.61496 0.14741 0.0
S3256 S 0.21206 0.55195 0.21335 0.0
N3257 N 0.18697 0.56323 0.22003 0.0
N3258 N 0.21918 0.56312 0.18832 0.0
C3259 C 0.20089 0.57699 0.18437 0.0
C3260 C 0.18336 0.57705 0.20163 0.0
C3261 C 0.40155 0.17329 0.15589 0.0
C3262 C 0.41275 0.19453 0.15874 0.0
C3263 C 0.40109 0.15688 0.1734 0.0
C3264 C 0.41186 0.16081 0.19467 0.0
H3265 H 0.39332 0.16901 0.1398 0.0
H3266 H 0.39262 0.1407 0.16991 0.0
S3267 S 0.44202 0.21434 0.21177 0.0
N3268 N 0.43373 0.21918 0.18513 0.0
N3269 N 0.43294 0.18825 0.21808 0.0
C3270 C 0.42242 0.18231 0.19814 0.0
C3271 C 0.42285 0.19914 0.18021 0.0
C3272 C 0.83928 0.82543 0.60278 0.0
C3273 C 0.83734 0.80634 0.58808 0.0
C3274 C 0.82303 0.84307 0.60267 0.0
C3275 C 0.80393 0.84251 0.58791 0.0
H3276 H 0.85384 0.82718 0.61418 0.0
H3277 H 0.8258 0.85751 0.61403 0.0
S3278 S 0.78957 0.7955 0.54733 0.0
N3279 N 0.81387 0.78725 0.55928 0.0
N3280 N 0.78319 0.82043 0.55916 0.0
C3281 C 0.8011 0.82304 0.57384 0.0
C3282 C 0.8178 0.80498 0.5739 0.0
C3283 C 0.82192 0.19741 0.4142 0.0
C3284 C 0.84542 0.19205 0.41563 0.0
C3285 C 0.80507 0.18004 0.41512 0.0
C3286 C 0.81119 0.15677 0.41761 0.0
H3287 H 0.81655 0.21504 0.41185 0.0
H3288 H 0.78721 0.18481 0.41338 0.0
S3289 S 0.87016 0.13433 0.42614 0.0
N3290 N 0.87363 0.16217 0.42238 0.0
N3291 N 0.8423 0.12983 0.42414 0.0
C3292 C 0.83458 0.15145 0.42012 0.0
C3293 C 0.85159 0.169 0.41913 0.0
C3294 C 0.82904 0.84918 0.40184 0.0
C3295 C 0.80837 0.84663 0.41406 0.0
C3296 C 0.8457 0.83191 0.40162 0.0
C3297 C 0.8426 0.81117 0.41363 0.0
H3298 H 0.83268 0.86486 0.39255 0.0
H3299 H 0.86138 0.83515 0.3922 0.0
S3300 S 0.79085 0.79503 0.44715 0.0
N3301 N 0.78519 0.82109 0.43761 0.0
N3302 N 0.81658 0.7886 0.43723 0.0
C3303 C 0.82168 0.80798 0.42534 0.0
C3304 C 0.80459 0.82568 0.42555 0.0
C3305 C 0.17917 0.81099 0.43021 0.0
C3306 C 0.16135 0.81063 0.41389 0.0
C3307 C 0.19614 0.82819 0.42988 0.0
C3308 C 0.19595 0.84568 0.41321 0.0
H3309 H 0.17955 0.79843 0.44389 0.0
H3310 H 0.20897 0.82823 0.44331 0.0
S3311 S 0.15503 0.85052 0.3646 0.0
N3312 N 0.14606 0.82795 0.37915 0.0
N3313 N 0.17778 0.86002 0.37849 0.0
C3314 C 0.17897 0.84473 0.39605 0.0
C3315 C 0.16174 0.82729 0.3964 0.0
C3316 C 0.17615 0.1587 0.40175 0.0
C3317 C 0.19636 0.16085 0.41481 0.0
C3318 C 0.15937 0.17585 0.40169 0.0
C3319 C 0.1619 0.19607 0.41469 0.0
H3320 H 0.17294 0.14341 0.39169 0.0
H3321 H 0.14404 0.17292 0.39161 0.0
S3322 S 0.21232 0.2111 0.45066 0.0
N3323 N 0.21852 0.18551 0.44021 0.0
N3324 N 0.18692 0.21781 0.44011 0.0
C3325 C 0.1824 0.19892 0.4272 0.0
C3326 C 0.1996 0.18133 0.42727 0.0
C3327 C 0.17728 0.1607 0.6048 0.0
C3328 C 0.19751 0.16295 0.5918 0.0
C3329 C 0.16052 0.17784 0.60494 0.0
C3330 C 0.16311 0.19813 0.59209 0.0
H3331 H 0.17398 0.14527 0.61461 0.0
H3332 H 0.14508 0.17477 0.61482 0.0
S3333 S 0.21385 0.21366 0.55682 0.0
N3334 N 0.21995 0.18794 0.56698 0.0
N3335 N 0.18835 0.22023 0.56723 0.0
C3336 C 0.18374 0.20119 0.57987 0.0
C3337 C 0.20092 0.18362 0.57972 0.0
C3338 C 0.82914 0.15476 0.60283 0.0
C3339 C 0.80835 0.15726 0.59081 0.0
C3340 C 0.84541 0.1724 0.60359 0.0
C3341 C 0.84179 0.19345 0.5923 0.0
H3342 H 0.83319 0.13885 0.61151 0.0
H3343 H 0.86125 0.16916 0.61271 0.0
S3344 S 0.78935 0.20967 0.55998 0.0
N3345 N 0.78435 0.18313 0.56854 0.0
N3346 N 0.81504 0.21633 0.56987 0.0
C3347 C 0.82069 0.19661 0.58093 0.0
C3348 C 0.80398 0.17854 0.58021 0.0
C3349 C 0.19988 0.82212 0.59154 0.0
C3350 C 0.19441 0.84532 0.58762 0.0
C3351 C 0.18265 0.80509 0.59165 0.0
C3352 C 0.1595 0.81084 0.58783 0.0
H3353 H 0.21742 0.8172 0.59516 0.0
H3354 H 0.18736 0.78751 0.59534 0.0
S3355 S 0.13713 0.86842 0.57239 0.0
N3356 N 0.16475 0.87251 0.57689 0.0
N3357 N 0.1327 0.84085 0.577 0.0
C3358 C 0.15417 0.83378 0.58266 0.0
C3359 C 0.17154 0.85094 0.58258 0.0
C3360 C 0.10167 0.23084 0.48978 0.0
C3361 C 0.09771 0.2511 0.47717 0.0
C3362 C 0.10196 0.2309 0.5139 0.0
C3363 C 0.09824 0.2512 0.52653 0.0
H3364 H 0.10453 0.21472 0.481 0.0
H3365 H 0.10496 0.2148 0.52266 0.0
S3366 S 0.08697 0.30901 0.50187 0.0
N3367 N 0.09 0.29211 0.47944 0.0
N3368 N 0.09042 0.29219 0.52429 0.0
C3369 C 0.09432 0.27158 0.5141 0.0
C3370 C 0.09409 0.27154 0.48961 0.0
C3371 C 0.7747 0.09386 0.51537 0.0
C3372 C 0.7541 0.09416 0.52805 0.0
C3373 C 0.77465 0.0941 0.49122 0.0
C3374 C 0.75399 0.09469 0.47864 0.0
H3375 H 0.79108 0.09338 0.52413 0.0
H3376 H 0.79098 0.09379 0.48238 0.0
S3377 S 0.69515 0.09532 0.50349 0.0
N3378 N 0.71238 0.0948 0.52585 0.0
N3379 N 0.71228 0.09538 0.48105 0.0
C3380 C 0.73328 0.09499 0.49116 0.0
C3381 C 0.73334 0.09469 0.51564 0.0
C3382 C 0.90175 0.77491 0.48886 0.0
C3383 C 0.90676 0.75506 0.47597 0.0
C3384 C 0.90111 0.77444 0.51298 0.0
C3385 C 0.90549 0.7541 0.52532 0.0
H3386 H 0.89823 0.79101 0.48029 0.0
H3387 H 0.89718 0.79021 0.52198 0.0
S3388 S 0.91997 0.69733 0.49986 0.0
N3389 N 0.91647 0.71446 0.47768 0.0
N3390 N 0.91536 0.71359 0.52249 0.0
C3391 C 0.91062 0.73416 0.5126 0.0
C3392 C 0.91123 0.73463 0.48813 0.0
C3393 C 0.2668 0.90999 0.48879 0.0
C3394 C 0.24631 0.90979 0.476 0.0
C3395 C 0.26668 0.90967 0.51272 0.0
C3396 C 0.24606 0.90909 0.52527 0.0
H3397 H 0.28333 0.9105 0.48035 0.0
H3398 H 0.28311 0.90998 0.52137 0.0
S3399 S 0.18741 0.90832 0.5003 0.0
N3400 N 0.20459 0.90895 0.4778 0.0
N3401 N 0.20435 0.90828 0.52298 0.0
C3402 C 0.22532 0.90881 0.51281 0.0
C3403 C 0.22544 0.90919 0.48821 0.0
C3404 C 0.09904 0.77608 0.51417 0.0
C3405 C 0.09468 0.7559 0.5268 0.0
C3406 C 0.09929 0.77601 0.49005 0.0
C3407 C 0.09521 0.75577 0.47744 0.0
H3408 H 0.10228 0.79214 0.52294 0.0
H3409 H 0.10271 0.79203 0.48126 0.0
S3410 S 0.08246 0.69824 0.50214 0.0
N3411 N 0.08585 0.7151 0.52456 0.0
N3412 N 0.08639 0.71495 0.47972 0.0
C3413 C 0.09077 0.73549 0.48989 0.0
C3414 C 0.09049 0.73556 0.51437 0.0
C3415 C 0.26752 0.09728 0.48984 0.0
C3416 C 0.24698 0.09713 0.47712 0.0
C3417 C 0.26749 0.0977 0.5138 0.0
C3418 C 0.24691 0.09806 0.52644 0.0
H3419 H 0.28401 0.09693 0.4813 0.0
H3420 H 0.28394 0.09762 0.52242 0.0
S3421 S 0.18816 0.09798 0.50165 0.0
N3422 N 0.20527 0.09747 0.47911 0.0
N3423 N 0.20519 0.09834 0.52426 0.0
C3424 C 0.22612 0.09805 0.51403 0.0
C3425 C 0.22616 0.09755 0.48943 0.0
C3426 C 0.90859 0.2646 0.51396 0.0
C3427 C 0.90569 0.24416 0.52651 0.0
C3428 C 0.90917 0.26464 0.49004 0.0
C3429 C 0.90693 0.24425 0.47726 0.0
H3430 H 0.9106 0.28092 0.52261 0.0
H3431 H 0.91157 0.28102 0.4816 0.0
S3432 S 0.89865 0.18588 0.50151 0.0
N3433 N 0.90023 0.20277 0.5242 0.0
N3434 N 0.90146 0.20287 0.47903 0.0
C3435 C 0.90389 0.22358 0.48945 0.0
C3436 C 0.90322 0.22354 0.51405 0.0
C3437 C 0.73616 0.90791 0.48926 0.0
C3438 C 0.7568 0.9094 0.47681 0.0
C3439 C 0.73591 0.90763 0.51319 0.0
C3440 C 0.75628 0.90881 0.52611 0.0
H3441 H 0.71979 0.90703 0.48055 0.0
H3442 H 0.71936 0.90656 0.52154 0.0
S3443 S 0.81519 0.91302 0.50212 0.0
N3444 N 0.79841 0.91213 0.47933 0.0
N3445 N 0.79793 0.91158 0.52452 0.0
C3446 C 0.77718 0.91028 0.514 0.0
C3447 C 0.77744 0.91058 0.48939 0.0
C3448 C 0.49075 0.09499 0.26747 0.0
C3449 C 0.47836 0.09843 0.24702 0.0
C3450 C 0.5147 0.0948 0.26775 0.0
C3451 C 0.52762 0.09805 0.2476 0.0
H3452 H 0.48194 0.0922 0.28358 0.0
H3453 H 0.52308 0.09189 0.28406 0.0
S3454 S 0.50375 0.10817 0.18936 0.0
N3455 N 0.48096 0.10552 0.20594 0.0
N3456 N 0.52609 0.10514 0.20646 0.0
C3457 C 0.51554 0.10174 0.22696 0.0
C3458 C 0.49097 0.10193 0.22668 0.0
C3459 C 0.91018 0.51524 0.26618 0.0
C3460 C 0.90748 0.52772 0.2457 0.0
C3461 C 0.90971 0.49127 0.26643 0.0
C3462 C 0.90642 0.4784 0.24623 0.0
H3463 H 0.91285 0.52398 0.28236 0.0
H3464 H 0.9121 0.48285 0.28281 0.0
S3465 S 0.89826 0.50255 0.18782 0.0
N3466 N 0.90127 0.52529 0.20445 0.0
N3467 N 0.90025 0.48011 0.20497 0.0
C3468 C 0.90355 0.49057 0.22553 0.0
C3469 C 0.90413 0.51518 0.22526 0.0
C3470 C 0.51485 0.92087 0.23258 0.0
C3471 C 0.52733 0.90341 0.24355 0.0
C3472 C 0.49073 0.92079 0.2328 0.0
C3473 C 0.47849 0.90324 0.24398 0.0
H3474 H 0.52376 0.9351 0.22461 0.0
H3475 H 0.48166 0.93499 0.22501 0.0
S3476 S 0.50326 0.85187 0.2719 0.0
N3477 N 0.52576 0.86693 0.26352 0.0
N3478 N 0.48056 0.86679 0.26393 0.0
C3479 C 0.49081 0.88515 0.2539 0.0
C3480 C 0.51525 0.88523 0.25368 0.0
C3481 C 0.10133 0.5147 0.23063 0.0
C3482 C 0.09692 0.52713 0.25091 0.0
C3483 C 0.10131 0.49055 0.23038 0.0
C3484 C 0.0968 0.47773 0.25038 0.0
H3485 H 0.10488 0.52365 0.21474 0.0
H3486 H 0.10481 0.48192 0.2143 0.0
S3487 S 0.0837 0.50189 0.30804 0.0
N3488 N 0.08769 0.52448 0.29156 0.0
N3489 N 0.08743 0.47963 0.29106 0.0
C3490 C 0.09225 0.48999 0.27075 0.0
C3491 C 0.09237 0.51449 0.27102 0.0
C3492 C 0.48873 0.90899 0.73574 0.0
C3493 C 0.47587 0.90854 0.75619 0.0
C3494 C 0.51266 0.90838 0.73594 0.0
C3495 C 0.52512 0.9072 0.75659 0.0
H3496 H 0.48033 0.90999 0.71921 0.0
H3497 H 0.52138 0.90898 0.71956 0.0
S3498 S 0.4999 0.90522 0.81511 0.0
N3499 N 0.47749 0.90662 0.79787 0.0
N3500 N 0.52264 0.9053 0.79825 0.0
C3501 C 0.51257 0.90653 0.77727 0.0
C3502 C 0.48799 0.90726 0.77707 0.0
C3503 C 0.09962 0.49063 0.77306 0.0
C3504 C 0.09689 0.47795 0.75264 0.0
C3505 C 0.09969 0.51477 0.773 0.0
C3506 C 0.09705 0.52736 0.75252 0.0
H3507 H 0.10162 0.48189 0.78933 0.0
H3508 H 0.10175 0.52358 0.78923 0.0
S3509 S 0.08918 0.50253 0.69421 0.0
N3510 N 0.0914 0.48013 0.71127 0.0
N3511 N 0.09157 0.525 0.71117 0.0
C3512 C 0.09438 0.51486 0.73197 0.0
C3513 C 0.09429 0.49036 0.73203 0.0
C3514 C 0.48946 0.09733 0.77391 0.0
C3515 C 0.47684 0.09585 0.75335 0.0
C3516 C 0.51357 0.09811 0.77383 0.0
C3517 C 0.52617 0.09737 0.75319 0.0
H3518 H 0.4807 0.0979 0.79028 0.0
H3519 H 0.52235 0.09912 0.79017 0.0
S3520 S 0.50147 0.09329 0.69448 0.0
N3521 N 0.47907 0.09362 0.71168 0.0
N3522 N 0.5239 0.09496 0.71156 0.0
C3523 C 0.51373 0.09591 0.73251 0.0
C3524 C 0.48926 0.09518 0.73258 0.0
C3525 C 0.90819 0.51333 0.73602 0.0
C3526 C 0.90655 0.526 0.75653 0.0
C3527 C 0.90796 0.48935 0.73599 0.0
C3528 C 0.90611 0.47667 0.75647 0.0
H3529 H 0.90979 0.52192 0.71964 0.0
H3530 H 0.9094 0.48077 0.71958 0.0
S3531 S 0.90133 0.50131 0.81508 0.0
N3532 N 0.90294 0.52391 0.7981 0.0
N3533 N 0.90254 0.47873 0.79804 0.0
C3534 C 0.90437 0.48902 0.77721 0.0
C3535 C 0.90459 0.51363 0.77724 0.0
C3536 C 0.23054 0.51373 0.10104 0.0
C3537 C 0.25082 0.52643 0.09742 0.0
C3538 C 0.23055 0.4896 0.10075 0.0
C3539 C 0.25085 0.47704 0.09689 0.0
H3540 H 0.21442 0.52246 0.10399 0.0
H3541 H 0.21444 0.48075 0.10354 0.0
S3542 S 0.30872 0.50191 0.08633 0.0
N3543 N 0.29184 0.52429 0.0897 0.0
N3544 N 0.29187 0.47943 0.08933 0.0
C3545 C 0.27126 0.48955 0.09334 0.0
C3546 C 0.27124 0.51404 0.09355 0.0
C3547 C 0.23229 0.51348 0.91977 0.0
C3548 C 0.24507 0.52589 0.90348 0.0
C3549 C 0.23236 0.48933 0.91987 0.0
C3550 C 0.24527 0.47688 0.90371 0.0
H3551 H 0.22285 0.52247 0.933 0.0
H3552 H 0.22293 0.48037 0.93314 0.0
S3553 S 0.278 0.50135 0.85502 0.0
N3554 N 0.26839 0.52395 0.86912 0.0
N3555 N 0.26859 0.47877 0.86932 0.0
C3556 C 0.25703 0.48914 0.88666 0.0
C3557 C 0.25692 0.51361 0.88654 0.0
C3558 C 0.48866 0.2285 0.9068 0.0
C3559 C 0.47599 0.24892 0.90955 0.0
C3560 C 0.51281 0.22864 0.90636 0.0
C3561 C 0.5254 0.24919 0.9088 0.0
H3562 H 0.4799 0.21221 0.90489 0.0
H3563 H 0.52163 0.21244 0.90421 0.0
S3564 S 0.50052 0.30744 0.91702 0.0
N3565 N 0.47815 0.2903 0.91488 0.0
N3566 N 0.52298 0.29053 0.91452 0.0
C3567 C 0.51288 0.26969 0.91171 0.0
C3568 C 0.48839 0.26957 0.91195 0.0
C3569 C 0.736 0.51318 0.90689 0.0
C3570 C 0.75642 0.52603 0.90531 0.0
C3571 C 0.73619 0.48919 0.90714 0.0
C3572 C 0.75681 0.47667 0.90582 0.0
H3573 H 0.71953 0.52165 0.90811 0.0
H3574 H 0.71985 0.48046 0.90853 0.0
S3575 S 0.81525 0.50182 0.90132 0.0
N3576 N 0.79804 0.52427 0.90228 0.0
N3577 N 0.79839 0.4791 0.90274 0.0
C3578 C 0.77745 0.48921 0.9041 0.0
C3579 C 0.77725 0.51382 0.90384 0.0
C3580 C 0.48934 0.77492 0.90222 0.0
C3581 C 0.47649 0.75477 0.90611 0.0
C3582 C 0.51347 0.77481 0.90285 0.0
C3583 C 0.52587 0.75455 0.90736 0.0
H3584 H 0.48073 0.791 0.89874 0.0
H3585 H 0.52244 0.7908 0.89976 0.0
S3586 S 0.50055 0.69705 0.91906 0.0
N3587 N 0.47833 0.71394 0.91487 0.0
N3588 N 0.52314 0.71374 0.91601 0.0
C3589 C 0.51319 0.73429 0.91129 0.0
C3590 C 0.48872 0.7344 0.91067 0.0
C3591 C 0.77437 0.51376 0.09827 0.0
C3592 C 0.75415 0.52651 0.09465 0.0
C3593 C 0.77412 0.48962 0.09865 0.0
C3594 C 0.75365 0.47714 0.09542 0.0
H3595 H 0.79059 0.52245 0.10086 0.0
H3596 H 0.79017 0.48073 0.10149 0.0
S3597 S 0.69591 0.50222 0.08475 0.0
N3598 N 0.71305 0.52453 0.08742 0.0
N3599 N 0.71258 0.47968 0.08812 0.0
C3600 C 0.73333 0.48972 0.09168 0.0
C3601 C 0.73358 0.51421 0.09131 0.0
C3602 C 0.51412 0.7728 0.10163 0.0
C3603 C 0.52653 0.75252 0.09719 0.0
C3604 C 0.48999 0.77304 0.10165 0.0
C3605 C 0.47715 0.75302 0.09715 0.0
H3606 H 0.52307 0.78872 0.10511 0.0
H3607 H 0.48138 0.78913 0.10512 0.0
S3608 S 0.50126 0.69531 0.08414 0.0
N3609 N 0.52386 0.71182 0.08809 0.0
N3610 N 0.47901 0.71229 0.08785 0.0
C3611 C 0.48939 0.73263 0.09263 0.0
C3612 C 0.51388 0.73237 0.09273 0.0
C3613 C 0.51222 0.23018 0.10112 0.0
C3614 C 0.52465 0.25085 0.09891 0.0
C3615 C 0.4881 0.22977 0.09991 0.0
C3616 C 0.47532 0.25002 0.09656 0.0
H3617 H 0.52114 0.21409 0.10364 0.0
H3618 H 0.47945 0.21341 0.10169 0.0
S3619 S 0.49947 0.30877 0.08949 0.0
N3620 N 0.52201 0.29213 0.09292 0.0
N3621 N 0.47724 0.29139 0.09093 0.0
C3622 C 0.48758 0.27079 0.09438 0.0
C3623 C 0.51203 0.2712 0.09548 0.0
C3624 C 0.59295 0.76521 0.01451 0.0
C3625 C 0.59724 0.74508 0.02711 0.0
C3626 C 0.59269 0.76522 0.99059 0.0
C3627 C 0.59677 0.74509 0.97782 0.0
H3628 H 0.58961 0.78134 0.02312 0.0
H3629 H 0.58915 0.78137 0.98213 0.0
S3630 S 0.60882 0.68749 0.00224 0.0
N3631 N 0.60563 0.70419 0.0249 0.0
N3632 N 0.6052 0.70424 0.9797 0.0
C3633 C 0.60111 0.72471 0.99008 0.0
C3634 C 0.60134 0.72469 0.01469 0.0
C3635 C 0.27411 0.59875 0.98952 0.0
C3636 C 0.25381 0.59464 0.97702 0.0
C3637 C 0.27413 0.59929 0.01368 0.0
C3638 C 0.25388 0.59562 0.02641 0.0
H3639 H 0.29014 0.60172 0.98061 0.0
H3640 H 0.29021 0.60257 0.0224 0.0
S3641 S 0.19611 0.58341 0.00201 0.0
N3642 N 0.21291 0.58651 0.97954 0.0
N3643 N 0.213 0.58718 0.02431 0.0
C3644 C 0.23353 0.59127 0.01405 0.0
C3645 C 0.23348 0.59088 0.98959 0.0
C3646 C 0.42018 0.27106 0.01428 0.0
C3647 C 0.40225 0.26068 0.02664 0.0
C3648 C 0.4201 0.27114 0.99014 0.0
C3649 C 0.40208 0.26086 0.97781 0.0
H3650 H 0.43478 0.27823 0.02328 0.0
H3651 H 0.43467 0.27833 0.98111 0.0
S3652 S 0.34963 0.23468 0.00232 0.0
N3653 N 0.36499 0.24223 0.0249 0.0
N3654 N 0.36484 0.24237 0.97968 0.0
C3655 C 0.38354 0.25164 0.99004 0.0
C3656 C 0.38362 0.25155 0.01448 0.0
C3657 C 0.76682 0.40876 0.01378 0.0
C3658 C 0.74643 0.40573 0.02637 0.0
C3659 C 0.76688 0.40896 0.98982 0.0
C3660 C 0.74654 0.4062 0.97708 0.0
H3661 H 0.78309 0.41114 0.02244 0.0
H3662 H 0.78319 0.41147 0.9813 0.0
S3663 S 0.68829 0.39753 1.00149 0.0
N3664 N 0.70514 0.39971 0.02413 0.0
N3665 N 0.70525 0.40018 0.97898 0.0
C3666 C 0.72593 0.40305 0.98935 0.0
C3667 C 0.72587 0.40279 0.01394 0.0
C3668 C 0.60022 0.27512 0.99212 0.0
C3669 C 0.59454 0.25521 0.97959 0.0
C3670 C 0.60013 0.27521 0.0163 0.0
C3671 C 0.59439 0.25538 0.02898 0.0
H3672 H 0.60485 0.29077 0.98323 0.0
H3673 H 0.60469 0.29095 0.02508 0.0
S3674 S 0.57748 0.19883 0.00452 0.0
N3675 N 0.58244 0.21523 0.9821 0.0
N3676 N 0.58244 0.2154 0.02683 0.0
C3677 C 0.58853 0.23546 0.01659 0.0
C3678 C 0.58856 0.23537 0.99215 0.0
C3679 C 0.7661 0.59429 0.01201 0.0
C3680 C 0.74593 0.5976 0.02489 0.0
C3681 C 0.76584 0.59397 0.9881 0.0
C3682 C 0.74538 0.59686 0.97563 0.0
H3683 H 0.78248 0.59178 0.02038 0.0
H3684 H 0.78203 0.59128 0.97942 0.0
S3685 S 0.68756 0.60607 1.0008 0.0
N3686 N 0.70469 0.60389 0.02324 0.0
N3687 N 0.70417 0.60318 0.97805 0.0
C3688 C 0.72495 0.60021 0.98815 0.0
C3689 C 0.72523 0.60062 0.01275 0.0
C3690 C 0.40114 0.7314 0.98901 0.0
C3691 C 0.40707 0.75126 0.97652 0.0
C3692 C 0.40134 0.7312 0.01315 0.0
C3693 C 0.4075 0.75085 0.02589 0.0
H3694 H 0.39624 0.71583 0.98012 0.0
H3695 H 0.39657 0.71549 0.02186 0.0
S3696 S 0.42511 0.80723 1.00155 0.0
N3697 N 0.41967 0.79105 0.97904 0.0
N3698 N 0.42014 0.79065 0.02385 0.0
C3699 C 0.41362 0.77075 0.01356 0.0
C3700 C 0.41338 0.77097 0.98909 0.0
C3701 C 0.23701 0.40936 0.01348 0.0
C3702 C 0.25745 0.4067 0.02606 0.0
C3703 C 0.23695 0.40971 0.98954 0.0
C3704 C 0.25734 0.40752 0.97676 0.0
H3705 H 0.22069 0.41127 0.02212 0.0
H3706 H 0.22057 0.41183 0.98107 0.0
S3707 S 0.31576 0.4002 1.00111 0.0
N3708 N 0.29887 0.40178 0.02378 0.0
N3709 N 0.29875 0.40259 0.9786 0.0
C3710 C 0.27802 0.40488 0.989 0.0
C3711 C 0.27808 0.40442 0.0136 0.0
C3712 C 0.01375 0.59479 0.76626 0.0
C3713 C 0.02644 0.59772 0.74591 0.0
C3714 C 0.9898 0.59445 0.7662 0.0
C3715 C 0.97715 0.59698 0.74578 0.0
H3716 H 0.02232 0.5926 0.78259 0.0
H3717 H 0.98121 0.59204 0.78249 0.0
S3718 S 0.00184 0.60516 0.68757 0.0
N3719 N 0.0244 0.60329 0.70456 0.0
N3720 N 0.97925 0.60257 0.70444 0.0
C3721 C 0.98951 0.59998 0.7252 0.0
C3722 C 0.0141 0.60038 0.72527 0.0
C3723 C 0.42113 0.99047 0.73023 0.0
C3724 C 0.40323 0.97805 0.74064 0.0
C3725 C 0.42107 0.01464 0.73018 0.0
C3726 C 0.40305 0.02697 0.74042 0.0
H3727 H 0.43572 0.98149 0.72305 0.0
H3728 H 0.43566 0.02369 0.72305 0.0
S3729 S 0.35045 0.0024 0.76622 0.0
N3730 N 0.36586 0.97982 0.75884 0.0
N3731 N 0.36571 0.02505 0.75863 0.0
C3732 C 0.38447 0.0147 0.74953 0.0
C3733 C 0.38457 0.99024 0.74967 0.0
C3734 C 0.01315 0.41042 0.76589 0.0
C3735 C 0.02592 0.40736 0.74562 0.0
C3736 C 0.98921 0.41012 0.7658 0.0
C3737 C 0.97665 0.40686 0.74542 0.0
H3738 H 0.02162 0.41314 0.78219 0.0
H3739 H 0.98055 0.41263 0.78204 0.0
S3740 S 1.00159 0.39815 0.68741 0.0
N3741 N 0.02408 0.40094 0.70438 0.0
N3742 N 0.97891 0.40052 0.7042 0.0
C3743 C 0.98909 0.4038 0.72491 0.0
C3744 C 0.01369 0.40402 0.72501 0.0
C3745 C 0.60808 0.98988 0.72927 0.0
C3746 C 0.59196 0.97746 0.74228 0.0
C3747 C 0.6083 0.01406 0.72958 0.0
C3748 C 0.59242 0.02643 0.74293 0.0
H3749 H 0.62115 0.98087 0.71961 0.0
H3750 H 0.62151 0.02306 0.72011 0.0
S3751 S 0.54418 1.00186 0.7764 0.0
N3752 N 0.55797 0.97935 0.76625 0.0
N3753 N 0.55837 0.02442 0.76684 0.0
C3754 C 0.57541 0.01412 0.75476 0.0
C3755 C 0.57519 0.98972 0.75443 0.0
C3756 C 0.98976 0.40363 0.27412 0.0
C3757 C 0.97702 0.40817 0.25407 0.0
C3758 C 0.0139 0.40328 0.27389 0.0
C3759 C 0.02639 0.40753 0.25362 0.0
H3760 H 0.98106 0.40029 0.29019 0.0
H3761 H 0.02279 0.39972 0.2898 0.0
S3762 S 1.00131 0.42079 0.19639 0.0
N3763 N 0.97902 0.4172 0.21334 0.0
N3764 N 0.02383 0.41678 0.21294 0.0
C3765 C 0.0138 0.41219 0.23348 0.0
C3766 C 0.98933 0.41244 0.2337 0.0
C3767 C 0.59893 0.01356 0.27485 0.0
C3768 C 0.59712 0.02642 0.25444 0.0
C3769 C 0.5985 0.9894 0.27463 0.0
C3770 C 0.59627 0.97699 0.25398 0.0
H3771 H 0.60064 0.02219 0.29122 0.0
H3772 H 0.59995 0.98041 0.29082 0.0
S3773 S 0.5905 0.00235 0.19564 0.0
N3774 N 0.59268 0.02457 0.21294 0.0
N3775 N 0.59199 0.97975 0.21251 0.0
C3776 C 0.59441 0.98969 0.23346 0.0
C3777 C 0.5948 0.01418 0.23369 0.0
C3778 C 0.01511 0.5959 0.23746 0.0
C3779 C 0.02752 0.59872 0.25798 0.0
C3780 C 0.99118 0.59588 0.23716 0.0
C3781 C 0.97824 0.59862 0.25738 0.0
H3782 H 0.02387 0.59355 0.22126 0.0
H3783 H 0.98286 0.59351 0.22073 0.0
S3784 S 0.00211 0.60668 0.31591 0.0
N3785 N 0.02492 0.60446 0.29929 0.0
N3786 N 0.97974 0.60431 0.29872 0.0
C3787 C 0.9903 0.60153 0.27814 0.0
C3788 C 0.0149 0.60162 0.27844 0.0
C3789 C 0.39963 0.01357 0.2735 0.0
C3790 C 0.41224 0.02613 0.25712 0.0
C3791 C 0.39993 0.98938 0.27365 0.0
C3792 C 0.41282 0.97698 0.25741 0.0
H3793 H 0.38898 0.02244 0.28586 0.0
H3794 H 0.38949 0.98035 0.28609 0.0
S3795 S 0.45172 1.00166 0.21353 0.0
N3796 N 0.44 0.02412 0.22608 0.0
N3797 N 0.44048 0.97913 0.22642 0.0
C3798 C 0.42629 0.98938 0.24177 0.0
C3799 C 0.42602 0.01381 0.24161 0.0
C3800 C 0.73047 0.01317 0.58369 0.0
C3801 C 0.7422 0.02518 0.60102 0.0
C3802 C 0.7302 0.98901 0.58338 0.0
C3803 C 0.74171 0.97631 0.60035 0.0
H3804 H 0.72235 0.02245 0.5698 0.0
H3805 H 0.72185 0.98027 0.56926 0.0
S3806 S 0.77108 0.99984 0.65156 0.0
N3807 N 0.76286 0.0227 0.63702 0.0
N3808 N 0.76235 0.97751 0.63645 0.0
C3809 C 0.75218 0.98821 0.61846 0.0
C3810 C 0.75244 0.01264 0.61878 0.0
C3811 C 0.73017 0.01446 0.4221 0.0
C3812 C 0.74071 0.02697 0.40437 0.0
C3813 C 0.73028 0.99031 0.42194 0.0
C3814 C 0.74099 0.97813 0.40408 0.0
H3815 H 0.72283 0.02336 0.43667 0.0
H3816 H 0.72296 0.98116 0.43637 0.0
S3817 S 0.76724 0.00304 0.35187 0.0
N3818 N 0.7594 0.0255 0.36724 0.0
N3819 N 0.75967 0.98029 0.36697 0.0
C3820 C 0.75022 0.99051 0.38564 0.0
C3821 C 0.75006 0.01494 0.38578 0.0
C3822 C 0.98976 0.76876 0.40923 0.0
C3823 C 0.97705 0.74863 0.40495 0.0
C3824 C 0.01371 0.76872 0.40945 0.0
C3825 C 0.02636 0.74854 0.40542 0.0
H3826 H 0.98121 0.7849 0.4126 0.0
H3827 H 0.02229 0.78482 0.41297 0.0
S3828 S 1.00164 0.69098 0.39325 0.0
N3829 N 0.97907 0.70776 0.39646 0.0
N3830 N 0.02424 0.70767 0.3969 0.0
C3831 C 0.01398 0.72819 0.40101 0.0
C3832 C 0.98938 0.72824 0.40077 0.0
C3833 C 0.2728 0.01531 0.42073 0.0
C3834 C 0.26097 0.02781 0.40383 0.0
C3835 C 0.27281 0.99115 0.42053 0.0
C3836 C 0.26099 0.97887 0.40341 0.0
H3837 H 0.28125 0.02422 0.43468 0.0
H3838 H 0.28127 0.98205 0.43433 0.0
S3839 S 0.2314 0.0037 0.353 0.0
N3840 N 0.23999 0.02618 0.36795 0.0
N3841 N 0.24 0.981 0.36757 0.0
C3842 C 0.25042 0.99124 0.38571 0.0
C3843 C 0.25041 0.01569 0.38592 0.0
C3844 C 0.01451 0.2375 0.40919 0.0
C3845 C 0.02711 0.25794 0.40639 0.0
C3846 C 0.99058 0.23739 0.40929 0.0
C3847 C 0.9778 0.25772 0.40671 0.0
H3848 H 0.02312 0.2212 0.41144 0.0
H3849 H 0.98212 0.221 0.4116 0.0
S3850 S 0.00217 0.31613 0.39885 0.0
N3851 N 0.02485 0.29931 0.40088 0.0
N3852 N 0.97965 0.2991 0.40123 0.0
C3853 C 0.99004 0.27841 0.40388 0.0
C3854 C 0.01466 0.27852 0.40368 0.0
C3855 C 0.23768 0.01521 0.59537 0.0
C3856 C 0.25821 0.02787 0.59669 0.0
C3857 C 0.23765 0.99129 0.59525 0.0
C3858 C 0.25815 0.97859 0.59643 0.0
H3859 H 0.22124 0.02376 0.59426 0.0
H3860 H 0.22118 0.98277 0.59405 0.0
S3861 S 0.31685 0.00318 0.60017 0.0
N3862 N 0.29985 0.0258 0.59928 0.0
N3863 N 0.29978 0.98058 0.59904 0.0
C3864 C 0.27894 0.9909 0.59786 0.0
C3865 C 0.27897 0.01552 0.59799 0.0
C3866 C 0.98929 0.27255 0.60464 0.0
C3867 C 0.97695 0.25469 0.59396 0.0
C3868 C 0.01345 0.27282 0.60466 0.0
C3869 C 0.0262 0.25526 0.59397 0.0
H3870 H 0.98025 0.28619 0.61344 0.0
H3871 H 0.02217 0.28668 0.61347 0.0
S3872 S 0.00203 0.20601 0.56133 0.0
N3873 N 0.97947 0.22005 0.57088 0.0
N3874 N 0.02432 0.2205 0.57092 0.0
C3875 C 0.01396 0.23776 0.58264 0.0
C3876 C 0.98952 0.23749 0.58264 0.0
C3877 C 0.01176 0.73081 0.60203 0.0
C3878 C 0.02411 0.75102 0.59699 0.0
C3879 C 0.9876 0.7304 0.60175 0.0
C3880 C 0.97472 0.75019 0.59644 0.0
H3881 H 0.02079 0.71512 0.60619 0.0
H3882 H 0.97899 0.71441 0.60573 0.0
S3883 S 0.99864 0.80755 0.58154 0.0
N3884 N 0.02124 0.79132 0.58622 0.0
N3885 N 0.97649 0.79055 0.58576 0.0
C3886 C 0.98692 0.77046 0.59133 0.0
C3887 C 0.01136 0.77087 0.59159 0.0
loop_
_geom_bond_atom_site_label_1
_geom_bond_atom_site_label_2
_geom_bond_distance
_geom_bond_site_symmetry_2
_ccdc_geom_bond_type
Co0 O2 2.143 . S
Co0 O8 2.074 . S
Co0 O11 2.093 . S
Co0 O24 2.097 . S
Co0 N41 2.151 . S
Co0 N49 2.214 . S
Co1 O2 2.160 . S
Co1 O7 2.058 . S
Co1 O17 2.057 . S
Co1 O32 2.037 . S
Co1 N36 2.145 . S
Co1 N57 2.257 . S
O2 Co0 2.143 . S
O2 Co1 2.160 . S
C3 O4 1.278 . S
C3 O11 1.224 . S
O4 C3 1.278 . S
C5 O6 1.245 . S
C5 O17 1.232 . S
O6 C5 1.245 . S
O7 Co1 2.058 . S
O7 C33 1.269 . S
O8 Co0 2.074 . S
O8 C33 1.257 . S
H9 C34 0.930 . S
H10 C40 0.930 . S
O11 Co0 2.093 . S
O11 C3 1.224 . S
H12 C44 0.929 . S
H13 C46 0.930 . S
H14 C47 0.930 . S
H15 C45 0.929 . S
H16 C48 0.928 . S
O17 Co1 2.057 . S
O17 C5 1.232 . S
H18 C37 0.929 . S
H19 C38 0.929 . S
H20 C50 0.931 . S
H21 C42 0.929 . S
H22 C51 0.930 . S
H23 C43 0.931 . S
O24 Co0 2.097 . S
O24 C52 1.214 . S
H25 C53 0.929 . S
H26 C54 0.929 . S
H27 C55 0.930 . S
H28 C56 0.929 . S
H29 C58 0.930 . S
H30 C35 0.930 . S
H31 C39 0.930 . S
O32 Co1 2.037 . S
O32 C52 1.234 . S
C33 O7 1.269 . S
C33 O8 1.257 . S
C34 H9 0.930 . S
C34 C37 1.388 . S
C34 C39 1.418 . S
C35 H30 0.930 . S
C35 C38 1.404 . S
C35 C39 1.353 . S
N36 Co1 2.145 . S
N36 C37 1.397 . S
N36 C38 1.334 . S
C37 H18 0.929 . S
C37 C34 1.388 . S
C37 N36 1.397 . S
C38 H19 0.929 . S
C38 C35 1.404 . S
C38 N36 1.334 . S
C39 H31 0.930 . S
C39 C34 1.418 . S
C39 C35 1.353 . S
C40 H10 0.930 . S
C40 N41 1.330 . S
C40 C42 1.446 . S
N41 Co0 2.151 . S
N41 C40 1.330 . S
N41 C45 1.418 . S
C42 H21 0.929 . S
C42 C40 1.446 . S
C42 C43 1.332 . S
C43 H23 0.931 . S
C43 C42 1.332 . S
C43 C44 1.267 . S
C44 H12 0.929 . S
C44 C43 1.267 . S
C44 C45 1.251 . S
C45 H15 0.929 . S
C45 N41 1.418 . S
C45 C44 1.251 . S
C46 H13 0.930 . S
C46 C48 1.406 . S
C46 C51 1.261 . S
C47 H14 0.930 . S
C47 N49 1.325 . S
C47 C50 1.357 . S
C48 H16 0.928 . S
C48 C46 1.406 . S
C48 N49 1.261 . S
N49 Co0 2.214 . S
N49 C47 1.325 . S
N49 C48 1.261 . S
C50 H20 0.931 . S
C50 C47 1.357 . S
C50 C51 1.312 . S
C51 H22 0.930 . S
C51 C46 1.261 . S
C51 C50 1.312 . S
C52 O24 1.214 . S
C52 O32 1.234 . S
C53 H25 0.929 . S
C53 C56 1.391 . S
C53 C58 1.391 . S
C54 H26 0.929 . S
C54 C55 1.390 . S
C54 N57 1.391 . S
C55 H27 0.930 . S
C55 C54 1.390 . S
C55 C56 1.392 . S
C56 H28 0.929 . S
C56 C53 1.391 . S
C56 C55 1.392 . S
N57 Co1 2.257 . S
N57 C54 1.391 . S
N57 C58 1.388 . S
C58 H29 0.930 . S
C58 C53 1.391 . S
C58 N57 1.388 . S
Co59 O61 2.143 . S
Co59 O67 2.074 . S
Co59 O70 2.093 . S
Co59 O83 2.097 . S
Co59 N100 2.151 . S
Co59 N108 2.214 . S
Co60 O61 2.160 . S
Co60 O66 2.058 . S
Co60 O76 2.057 . S
Co60 O91 2.037 . S
Co60 N95 2.145 . S
Co60 N116 2.257 . S
O61 Co59 2.143 . S
O61 Co60 2.160 . S
C62 O63 1.278 . S
C62 O70 1.224 . S
O63 C62 1.278 . S
C64 O65 1.245 . S
C64 O76 1.232 . S
O65 C64 1.245 . S
O66 Co60 2.058 . S
O66 C92 1.269 . S
O67 Co59 2.074 . S
O67 C92 1.257 . S
H68 C93 0.930 . S
H69 C99 0.930 . S
O70 Co59 2.093 . S
O70 C62 1.224 . S
H71 C103 0.929 . S
H72 C105 0.930 . S
H73 C106 0.930 . S
H74 C104 0.929 . S
H75 C107 0.928 . S
O76 Co60 2.057 . S
O76 C64 1.232 . S
H77 C96 0.929 . S
H78 C97 0.929 . S
H79 C109 0.931 . S
H80 C101 0.929 . S
H81 C110 0.930 . S
H82 C102 0.931 . S
O83 Co59 2.097 . S
O83 C111 1.214 . S
H84 C112 0.929 . S
H85 C113 0.929 . S
H86 C114 0.930 . S
H87 C115 0.929 . S
H88 C117 0.930 . S
H89 C94 0.930 . S
H90 C98 0.930 . S
O91 Co60 2.037 . S
O91 C111 1.234 . S
C92 O66 1.269 . S
C92 O67 1.257 . S
C93 H68 0.930 . S
C93 C96 1.388 . S
C93 C98 1.418 . S
C94 H89 0.930 . S
C94 C97 1.404 . S
C94 C98 1.353 . S
N95 Co60 2.145 . S
N95 C96 1.397 . S
N95 C97 1.334 . S
C96 H77 0.929 . S
C96 C93 1.388 . S
C96 N95 1.397 . S
C97 H78 0.929 . S
C97 C94 1.404 . S
C97 N95 1.334 . S
C98 H90 0.930 . S
C98 C93 1.418 . S
C98 C94 1.353 . S
C99 H69 0.930 . S
C99 N100 1.330 . S
C99 C101 1.446 . S
N100 Co59 2.151 . S
N100 C99 1.330 . S
N100 C104 1.418 . S
C101 H80 0.929 . S
C101 C99 1.446 . S
C101 C102 1.332 . S
C102 H82 0.931 . S
C102 C101 1.332 . S
C102 C103 1.267 . S
C103 H71 0.929 . S
C103 C102 1.267 . S
C103 C104 1.251 . S
C104 H74 0.929 . S
C104 N100 1.418 . S
C104 C103 1.251 . S
C105 H72 0.930 . S
C105 C107 1.406 . S
C105 C110 1.261 . S
C106 H73 0.930 . S
C106 N108 1.325 . S
C106 C109 1.357 . S
C107 H75 0.928 . S
C107 C105 1.406 . S
C107 N108 1.261 . S
N108 Co59 2.214 . S
N108 C106 1.325 . S
N108 C107 1.261 . S
C109 H79 0.931 . S
C109 C106 1.357 . S
C109 C110 1.312 . S
C110 H81 0.930 . S
C110 C105 1.261 . S
C110 C109 1.312 . S
C111 O83 1.214 . S
C111 O91 1.234 . S
C112 H84 0.929 . S
C112 C115 1.391 . S
C112 C117 1.391 . S
C113 H85 0.929 . S
C113 C114 1.390 . S
C113 N116 1.391 . S
C114 H86 0.930 . S
C114 C113 1.390 . S
C114 C115 1.392 . S
C115 H87 0.929 . S
C115 C112 1.391 . S
C115 C114 1.392 . S
N116 Co60 2.257 . S
N116 C113 1.391 . S
N116 C117 1.388 . S
C117 H88 0.930 . S
C117 C112 1.391 . S
C117 N116 1.388 . S
Co118 O120 2.143 . S
Co118 O126 2.074 . S
Co118 O129 2.093 . S
Co118 O142 2.097 . S
Co118 N159 2.151 . S
Co118 N167 2.214 . S
Co119 O120 2.160 . S
Co119 O125 2.058 . S
Co119 O135 2.057 . S
Co119 O150 2.037 . S
Co119 N154 2.145 . S
Co119 N175 2.257 . S
O120 Co118 2.143 . S
O120 Co119 2.160 . S
C121 O122 1.278 . S
C121 O129 1.224 . S
O122 C121 1.278 . S
C123 O124 1.245 . S
C123 O135 1.232 . S
O124 C123 1.245 . S
O125 Co119 2.058 . S
O125 C151 1.269 . S
O126 Co118 2.074 . S
O126 C151 1.257 . S
H127 C152 0.930 . S
H128 C158 0.930 . S
O129 Co118 2.093 . S
O129 C121 1.224 . S
H130 C162 0.929 . S
H131 C164 0.930 . S
H132 C165 0.930 . S
H133 C163 0.929 . S
H134 C166 0.928 . S
O135 Co119 2.057 . S
O135 C123 1.232 . S
H136 C155 0.929 . S
H137 C156 0.929 . S
H138 C168 0.931 . S
H139 C160 0.929 . S
H140 C169 0.930 . S
H141 C161 0.931 . S
O142 Co118 2.097 . S
O142 C170 1.214 . S
H143 C171 0.929 . S
H144 C172 0.929 . S
H145 C173 0.930 . S
H146 C174 0.929 . S
H147 C176 0.930 . S
H148 C153 0.930 . S
H149 C157 0.930 . S
O150 Co119 2.037 . S
O150 C170 1.234 . S
C151 O125 1.269 . S
C151 O126 1.257 . S
C152 H127 0.930 . S
C152 C155 1.388 . S
C152 C157 1.418 . S
C153 H148 0.930 . S
C153 C156 1.404 . S
C153 C157 1.353 . S
N154 Co119 2.145 . S
N154 C155 1.397 . S
N154 C156 1.334 . S
C155 H136 0.929 . S
C155 C152 1.388 . S
C155 N154 1.397 . S
C156 H137 0.929 . S
C156 C153 1.404 . S
C156 N154 1.334 . S
C157 H149 0.930 . S
C157 C152 1.418 . S
C157 C153 1.353 . S
C158 H128 0.930 . S
C158 N159 1.330 . S
C158 C160 1.446 . S
N159 Co118 2.151 . S
N159 C158 1.330 . S
N159 C163 1.418 . S
C160 H139 0.929 . S
C160 C158 1.446 . S
C160 C161 1.332 . S
C161 H141 0.931 . S
C161 C160 1.332 . S
C161 C162 1.267 . S
C162 H130 0.929 . S
C162 C161 1.267 . S
C162 C163 1.251 . S
C163 H133 0.929 . S
C163 N159 1.418 . S
C163 C162 1.251 . S
C164 H131 0.930 . S
C164 C166 1.406 . S
C164 C169 1.261 . S
C165 H132 0.930 . S
C165 N167 1.325 . S
C165 C168 1.357 . S
C166 H134 0.928 . S
C166 C164 1.406 . S
C166 N167 1.261 . S
N167 Co118 2.214 . S
N167 C165 1.325 . S
N167 C166 1.261 . S
C168 H138 0.931 . S
C168 C165 1.357 . S
C168 C169 1.312 . S
C169 H140 0.930 . S
C169 C164 1.261 . S
C169 C168 1.312 . S
C170 O142 1.214 . S
C170 O150 1.234 . S
C171 H143 0.929 . S
C171 C174 1.391 . S
C171 C176 1.391 . S
C172 H144 0.929 . S
C172 C173 1.390 . S
C172 N175 1.391 . S
C173 H145 0.930 . S
C173 C172 1.390 . S
C173 C174 1.392 . S
C174 H146 0.929 . S
C174 C171 1.391 . S
C174 C173 1.392 . S
N175 Co119 2.257 . S
N175 C172 1.391 . S
N175 C176 1.388 . S
C176 H147 0.930 . S
C176 C171 1.391 . S
C176 N175 1.388 . S
Co177 O179 2.143 . S
Co177 O185 2.074 . S
Co177 O188 2.093 . S
Co177 O201 2.097 . S
Co177 N218 2.151 . S
Co177 N226 2.214 . S
Co178 O179 2.160 . S
Co178 O184 2.058 . S
Co178 O194 2.057 . S
Co178 O209 2.037 . S
Co178 N213 2.145 . S
Co178 N234 2.257 . S
O179 Co177 2.143 . S
O179 Co178 2.160 . S
C180 O181 1.278 . S
C180 O188 1.224 . S
O181 C180 1.278 . S
C182 O183 1.245 . S
C182 O194 1.232 . S
O183 C182 1.245 . S
O184 Co178 2.058 . S
O184 C210 1.269 . S
O185 Co177 2.074 . S
O185 C210 1.257 . S
H186 C211 0.930 . S
H187 C217 0.930 . S
O188 Co177 2.093 . S
O188 C180 1.224 . S
H189 C221 0.929 . S
H190 C223 0.930 . S
H191 C224 0.930 . S
H192 C222 0.929 . S
H193 C225 0.928 . S
O194 Co178 2.057 . S
O194 C182 1.232 . S
H195 C214 0.929 . S
H196 C215 0.929 . S
H197 C227 0.931 . S
H198 C219 0.929 . S
H199 C228 0.930 . S
H200 C220 0.931 . S
O201 Co177 2.097 . S
O201 C229 1.214 . S
H202 C230 0.929 . S
H203 C231 0.929 . S
H204 C232 0.930 . S
H205 C233 0.929 . S
H206 C235 0.930 . S
H207 C212 0.930 . S
H208 C216 0.930 . S
O209 Co178 2.037 . S
O209 C229 1.234 . S
C210 O184 1.269 . S
C210 O185 1.257 . S
C211 H186 0.930 . S
C211 C214 1.388 . S
C211 C216 1.418 . S
C212 H207 0.930 . S
C212 C215 1.404 . S
C212 C216 1.353 . S
N213 Co178 2.145 . S
N213 C214 1.397 . S
N213 C215 1.334 . S
C214 H195 0.929 . S
C214 C211 1.388 . S
C214 N213 1.397 . S
C215 H196 0.929 . S
C215 C212 1.404 . S
C215 N213 1.334 . S
C216 H208 0.930 . S
C216 C211 1.418 . S
C216 C212 1.353 . S
C217 H187 0.930 . S
C217 N218 1.330 . S
C217 C219 1.446 . S
N218 Co177 2.151 . S
N218 C217 1.330 . S
N218 C222 1.418 . S
C219 H198 0.929 . S
C219 C217 1.446 . S
C219 C220 1.332 . S
C220 H200 0.931 . S
C220 C219 1.332 . S
C220 C221 1.267 . S
C221 H189 0.929 . S
C221 C220 1.267 . S
C221 C222 1.251 . S
C222 H192 0.929 . S
C222 N218 1.418 . S
C222 C221 1.251 . S
C223 H190 0.930 . S
C223 C225 1.406 . S
C223 C228 1.261 . S
C224 H191 0.930 . S
C224 N226 1.325 . S
C224 C227 1.357 . S
C225 H193 0.928 . S
C225 C223 1.406 . S
C225 N226 1.261 . S
N226 Co177 2.214 . S
N226 C224 1.325 . S
N226 C225 1.261 . S
C227 H197 0.931 . S
C227 C224 1.357 . S
C227 C228 1.312 . S
C228 H199 0.930 . S
C228 C223 1.261 . S
C228 C227 1.312 . S
C229 O201 1.214 . S
C229 O209 1.234 . S
C230 H202 0.929 . S
C230 C233 1.391 . S
C230 C235 1.391 . S
C231 H203 0.929 . S
C231 C232 1.390 . S
C231 N234 1.391 . S
C232 H204 0.930 . S
C232 C231 1.390 . S
C232 C233 1.392 . S
C233 H205 0.929 . S
C233 C230 1.391 . S
C233 C232 1.392 . S
N234 Co178 2.257 . S
N234 C231 1.391 . S
N234 C235 1.388 . S
C235 H206 0.930 . S
C235 C230 1.391 . S
C235 N234 1.388 . S
Co236 O238 2.143 . S
Co236 O244 2.074 . S
Co236 O247 2.093 . S
Co236 O260 2.097 . S
Co236 N277 2.151 . S
Co236 N285 2.214 . S
Co237 O238 2.160 . S
Co237 O243 2.058 . S
Co237 O253 2.057 . S
Co237 O268 2.037 . S
Co237 N272 2.145 . S
Co237 N293 2.257 . S
O238 Co236 2.143 . S
O238 Co237 2.160 . S
C239 O240 1.278 . S
C239 O247 1.224 . S
O240 C239 1.278 . S
C241 O242 1.245 . S
C241 O253 1.232 . S
O242 C241 1.245 . S
O243 Co237 2.058 . S
O243 C269 1.269 . S
O244 Co236 2.074 . S
O244 C269 1.257 . S
H245 C270 0.930 . S
H246 C276 0.930 . S
O247 Co236 2.093 . S
O247 C239 1.224 . S
H248 C280 0.929 . S
H249 C282 0.930 . S
H250 C283 0.930 . S
H251 C281 0.929 . S
H252 C284 0.928 . S
O253 Co237 2.057 . S
O253 C241 1.232 . S
H254 C273 0.929 . S
H255 C274 0.929 . S
H256 C286 0.931 . S
H257 C278 0.929 . S
H258 C287 0.930 . S
H259 C279 0.931 . S
O260 Co236 2.097 . S
O260 C288 1.214 . S
H261 C289 0.929 . S
H262 C290 0.929 . S
H263 C291 0.930 . S
H264 C292 0.929 . S
H265 C294 0.930 . S
H266 C271 0.930 . S
H267 C275 0.930 . S
O268 Co237 2.037 . S
O268 C288 1.234 . S
C269 O243 1.269 . S
C269 O244 1.257 . S
C270 H245 0.930 . S
C270 C273 1.388 . S
C270 C275 1.418 . S
C271 H266 0.930 . S
C271 C274 1.404 . S
C271 C275 1.353 . S
N272 Co237 2.145 . S
N272 C273 1.397 . S
N272 C274 1.334 . S
C273 H254 0.929 . S
C273 C270 1.388 . S
C273 N272 1.397 . S
C274 H255 0.929 . S
C274 C271 1.404 . S
C274 N272 1.334 . S
C275 H267 0.930 . S
C275 C270 1.418 . S
C275 C271 1.353 . S
C276 H246 0.930 . S
C276 N277 1.330 . S
C276 C278 1.446 . S
N277 Co236 2.151 . S
N277 C276 1.330 . S
N277 C281 1.418 . S
C278 H257 0.929 . S
C278 C276 1.446 . S
C278 C279 1.332 . S
C279 H259 0.931 . S
C279 C278 1.332 . S
C279 C280 1.267 . S
C280 H248 0.929 . S
C280 C279 1.267 . S
C280 C281 1.251 . S
C281 H251 0.929 . S
C281 N277 1.418 . S
C281 C280 1.251 . S
C282 H249 0.930 . S
C282 C284 1.406 . S
C282 C287 1.261 . S
C283 H250 0.930 . S
C283 N285 1.325 . S
C283 C286 1.357 . S
C284 H252 0.928 . S
C284 C282 1.406 . S
C284 N285 1.261 . S
N285 Co236 2.214 . S
N285 C283 1.325 . S
N285 C284 1.261 . S
C286 H256 0.931 . S
C286 C283 1.357 . S
C286 C287 1.312 . S
C287 H258 0.930 . S
C287 C282 1.261 . S
C287 C286 1.312 . S
C288 O260 1.214 . S
C288 O268 1.234 . S
C289 H261 0.929 . S
C289 C292 1.391 . S
C289 C294 1.391 . S
C290 H262 0.929 . S
C290 C291 1.390 . S
C290 N293 1.391 . S
C291 H263 0.930 . S
C291 C290 1.390 . S
C291 C292 1.392 . S
C292 H264 0.929 . S
C292 C289 1.391 . S
C292 C291 1.392 . S
N293 Co237 2.257 . S
N293 C290 1.391 . S
N293 C294 1.388 . S
C294 H265 0.930 . S
C294 C289 1.391 . S
C294 N293 1.388 . S
Co295 O297 2.143 . S
Co295 O303 2.074 . S
Co295 O306 2.093 . S
Co295 O319 2.097 . S
Co295 N336 2.151 . S
Co295 N344 2.214 . S
Co296 O297 2.160 . S
Co296 O302 2.058 . S
Co296 O312 2.057 . S
Co296 O327 2.037 . S
Co296 N331 2.145 . S
Co296 N352 2.257 . S
O297 Co295 2.143 . S
O297 Co296 2.160 . S
C298 O299 1.278 . S
C298 O306 1.224 . S
O299 C298 1.278 . S
C300 O301 1.245 . S
C300 O312 1.232 . S
O301 C300 1.245 . S
O302 Co296 2.058 . S
O302 C328 1.269 . S
O303 Co295 2.074 . S
O303 C328 1.257 . S
H304 C329 0.930 . S
H305 C335 0.930 . S
O306 Co295 2.093 . S
O306 C298 1.224 . S
H307 C339 0.929 . S
H308 C341 0.930 . S
H309 C342 0.930 . S
H310 C340 0.929 . S
H311 C343 0.928 . S
O312 Co296 2.057 . S
O312 C300 1.232 . S
H313 C332 0.929 . S
H314 C333 0.929 . S
H315 C345 0.931 . S
H316 C337 0.929 . S
H317 C346 0.930 . S
H318 C338 0.931 . S
O319 Co295 2.097 . S
O319 C347 1.214 . S
H320 C348 0.929 . S
H321 C349 0.929 . S
H322 C350 0.930 . S
H323 C351 0.929 . S
H324 C353 0.930 . S
H325 C330 0.930 . S
H326 C334 0.930 . S
O327 Co296 2.037 . S
O327 C347 1.234 . S
C328 O302 1.269 . S
C328 O303 1.257 . S
C329 H304 0.930 . S
C329 C332 1.388 . S
C329 C334 1.418 . S
C330 H325 0.930 . S
C330 C333 1.404 . S
C330 C334 1.353 . S
N331 Co296 2.145 . S
N331 C332 1.397 . S
N331 C333 1.334 . S
C332 H313 0.929 . S
C332 C329 1.388 . S
C332 N331 1.397 . S
C333 H314 0.929 . S
C333 C330 1.404 . S
C333 N331 1.334 . S
C334 H326 0.930 . S
C334 C329 1.418 . S
C334 C330 1.353 . S
C335 H305 0.930 . S
C335 N336 1.330 . S
C335 C337 1.446 . S
N336 Co295 2.151 . S
N336 C335 1.330 . S
N336 C340 1.418 . S
C337 H316 0.929 . S
C337 C335 1.446 . S
C337 C338 1.332 . S
C338 H318 0.931 . S
C338 C337 1.332 . S
C338 C339 1.267 . S
C339 H307 0.929 . S
C339 C338 1.267 . S
C339 C340 1.251 . S
C340 H310 0.929 . S
C340 N336 1.418 . S
C340 C339 1.251 . S
C341 H308 0.930 . S
C341 C343 1.406 . S
C341 C346 1.261 . S
C342 H309 0.930 . S
C342 N344 1.325 . S
C342 C345 1.357 . S
C343 H311 0.928 . S
C343 C341 1.406 . S
C343 N344 1.261 . S
N344 Co295 2.214 . S
N344 C342 1.325 . S
N344 C343 1.261 . S
C345 H315 0.931 . S
C345 C342 1.357 . S
C345 C346 1.312 . S
C346 H317 0.930 . S
C346 C341 1.261 . S
C346 C345 1.312 . S
C347 O319 1.214 . S
C347 O327 1.234 . S
C348 H320 0.929 . S
C348 C351 1.391 . S
C348 C353 1.391 . S
C349 H321 0.929 . S
C349 C350 1.390 . S
C349 N352 1.391 . S
C350 H322 0.930 . S
C350 C349 1.390 . S
C350 C351 1.392 . S
C351 H323 0.929 . S
C351 C348 1.391 . S
C351 C350 1.392 . S
N352 Co296 2.257 . S
N352 C349 1.391 . S
N352 C353 1.388 . S
C353 H324 0.930 . S
C353 C348 1.391 . S
C353 N352 1.388 . S
Co354 O356 2.143 . S
Co354 O362 2.074 . S
Co354 O365 2.093 . S
Co354 O378 2.097 . S
Co354 N395 2.151 . S
Co354 N403 2.214 . S
Co355 O356 2.160 . S
Co355 O361 2.058 . S
Co355 O371 2.057 . S
Co355 O386 2.037 . S
Co355 N390 2.145 . S
Co355 N411 2.257 . S
O356 Co354 2.143 . S
O356 Co355 2.160 . S
C357 O358 1.278 . S
C357 O365 1.224 . S
O358 C357 1.278 . S
C359 O360 1.245 . S
C359 O371 1.232 . S
O360 C359 1.245 . S
O361 Co355 2.058 . S
O361 C387 1.269 . S
O362 Co354 2.074 . S
O362 C387 1.257 . S
H363 C388 0.930 . S
H364 C394 0.930 . S
O365 Co354 2.093 . S
O365 C357 1.224 . S
H366 C398 0.929 . S
H367 C400 0.930 . S
H368 C401 0.930 . S
H369 C399 0.929 . S
H370 C402 0.928 . S
O371 Co355 2.057 . S
O371 C359 1.232 . S
H372 C391 0.929 . S
H373 C392 0.929 . S
H374 C404 0.931 . S
H375 C396 0.929 . S
H376 C405 0.930 . S
H377 C397 0.931 . S
O378 Co354 2.097 . S
O378 C406 1.214 . S
H379 C407 0.929 . S
H380 C408 0.929 . S
H381 C409 0.930 . S
H382 C410 0.929 . S
H383 C412 0.930 . S
H384 C389 0.930 . S
H385 C393 0.930 . S
O386 Co355 2.037 . S
O386 C406 1.234 . S
C387 O361 1.269 . S
C387 O362 1.257 . S
C388 H363 0.930 . S
C388 C391 1.388 . S
C388 C393 1.418 . S
C389 H384 0.930 . S
C389 C392 1.404 . S
C389 C393 1.353 . S
N390 Co355 2.145 . S
N390 C391 1.397 . S
N390 C392 1.334 . S
C391 H372 0.929 . S
C391 C388 1.388 . S
C391 N390 1.397 . S
C392 H373 0.929 . S
C392 C389 1.404 . S
C392 N390 1.334 . S
C393 H385 0.930 . S
C393 C388 1.418 . S
C393 C389 1.353 . S
C394 H364 0.930 . S
C394 N395 1.330 . S
C394 C396 1.446 . S
N395 Co354 2.151 . S
N395 C394 1.330 . S
N395 C399 1.418 . S
C396 H375 0.929 . S
C396 C394 1.446 . S
C396 C397 1.332 . S
C397 H377 0.931 . S
C397 C396 1.332 . S
C397 C398 1.267 . S
C398 H366 0.929 . S
C398 C397 1.267 . S
C398 C399 1.251 . S
C399 H369 0.929 . S
C399 N395 1.418 . S
C399 C398 1.251 . S
C400 H367 0.930 . S
C400 C402 1.406 . S
C400 C405 1.261 . S
C401 H368 0.930 . S
C401 N403 1.325 . S
C401 C404 1.357 . S
C402 H370 0.928 . S
C402 C400 1.406 . S
C402 N403 1.261 . S
N403 Co354 2.214 . S
N403 C401 1.325 . S
N403 C402 1.261 . S
C404 H374 0.931 . S
C404 C401 1.357 . S
C404 C405 1.312 . S
C405 H376 0.930 . S
C405 C400 1.261 . S
C405 C404 1.312 . S
C406 O378 1.214 . S
C406 O386 1.234 . S
C407 H379 0.929 . S
C407 C410 1.391 . S
C407 C412 1.391 . S
C408 H380 0.929 . S
C408 C409 1.390 . S
C408 N411 1.391 . S
C409 H381 0.930 . S
C409 C408 1.390 . S
C409 C410 1.392 . S
C410 H382 0.929 . S
C410 C407 1.391 . S
C410 C409 1.392 . S
N411 Co355 2.257 . S
N411 C408 1.391 . S
N411 C412 1.388 . S
C412 H383 0.930 . S
C412 C407 1.391 . S
C412 N411 1.388 . S
Co413 O415 2.143 . S
Co413 O421 2.074 . S
Co413 O424 2.093 . S
Co413 O437 2.097 . S
Co413 N454 2.151 . S
Co413 N462 2.214 . S
Co414 O415 2.160 . S
Co414 O420 2.058 . S
Co414 O430 2.057 . S
Co414 O445 2.037 . S
Co414 N449 2.145 . S
Co414 N470 2.257 . S
O415 Co413 2.143 . S
O415 Co414 2.160 . S
C416 O417 1.278 . S
C416 O424 1.224 . S
O417 C416 1.278 . S
C418 O419 1.245 . S
C418 O430 1.232 . S
O419 C418 1.245 . S
O420 Co414 2.058 . S
O420 C446 1.269 . S
O421 Co413 2.074 . S
O421 C446 1.257 . S
H422 C447 0.930 . S
H423 C453 0.930 . S
O424 Co413 2.093 . S
O424 C416 1.224 . S
H425 C457 0.929 . S
H426 C459 0.930 . S
H427 C460 0.930 . S
H428 C458 0.929 . S
H429 C461 0.928 . S
O430 Co414 2.057 . S
O430 C418 1.232 . S
H431 C450 0.929 . S
H432 C451 0.929 . S
H433 C463 0.931 . S
H434 C455 0.929 . S
H435 C464 0.930 . S
H436 C456 0.931 . S
O437 Co413 2.097 . S
O437 C465 1.214 . S
H438 C466 0.929 . S
H439 C467 0.929 . S
H440 C468 0.930 . S
H441 C469 0.929 . S
H442 C471 0.930 . S
H443 C448 0.930 . S
H444 C452 0.930 . S
O445 Co414 2.037 . S
O445 C465 1.234 . S
C446 O420 1.269 . S
C446 O421 1.257 . S
C447 H422 0.930 . S
C447 C450 1.388 . S
C447 C452 1.418 . S
C448 H443 0.930 . S
C448 C451 1.404 . S
C448 C452 1.353 . S
N449 Co414 2.145 . S
N449 C450 1.397 . S
N449 C451 1.334 . S
C450 H431 0.929 . S
C450 C447 1.388 . S
C450 N449 1.397 . S
C451 H432 0.929 . S
C451 C448 1.404 . S
C451 N449 1.334 . S
C452 H444 0.930 . S
C452 C447 1.418 . S
C452 C448 1.353 . S
C453 H423 0.930 . S
C453 N454 1.330 . S
C453 C455 1.446 . S
N454 Co413 2.151 . S
N454 C453 1.330 . S
N454 C458 1.418 . S
C455 H434 0.929 . S
C455 C453 1.446 . S
C455 C456 1.332 . S
C456 H436 0.931 . S
C456 C455 1.332 . S
C456 C457 1.267 . S
C457 H425 0.929 . S
C457 C456 1.267 . S
C457 C458 1.251 . S
C458 H428 0.929 . S
C458 N454 1.418 . S
C458 C457 1.251 . S
C459 H426 0.930 . S
C459 C461 1.406 . S
C459 C464 1.261 . S
C460 H427 0.930 . S
C460 N462 1.325 . S
C460 C463 1.357 . S
C461 H429 0.928 . S
C461 C459 1.406 . S
C461 N462 1.261 . S
N462 Co413 2.214 . S
N462 C460 1.325 . S
N462 C461 1.261 . S
C463 H433 0.931 . S
C463 C460 1.357 . S
C463 C464 1.312 . S
C464 H435 0.930 . S
C464 C459 1.261 . S
C464 C463 1.312 . S
C465 O437 1.214 . S
C465 O445 1.234 . S
C466 H438 0.929 . S
C466 C469 1.391 . S
C466 C471 1.391 . S
C467 H439 0.929 . S
C467 C468 1.390 . S
C467 N470 1.391 . S
C468 H440 0.930 . S
C468 C467 1.390 . S
C468 C469 1.392 . S
C469 H441 0.929 . S
C469 C466 1.391 . S
C469 C468 1.392 . S
N470 Co414 2.257 . S
N470 C467 1.391 . S
N470 C471 1.388 . S
C471 H442 0.930 . S
C471 C466 1.391 . S
C471 N470 1.388 . S
Co472 O474 2.143 . S
Co472 O480 2.074 . S
Co472 O483 2.093 . S
Co472 O496 2.097 . S
Co472 N513 2.151 . S
Co472 N521 2.214 . S
Co473 O474 2.160 . S
Co473 O479 2.058 . S
Co473 O489 2.057 . S
Co473 O504 2.037 . S
Co473 N508 2.145 . S
Co473 N529 2.257 . S
O474 Co472 2.143 . S
O474 Co473 2.160 . S
C475 O476 1.278 . S
C475 O483 1.224 . S
O476 C475 1.278 . S
C477 O478 1.245 . S
C477 O489 1.232 . S
O478 C477 1.245 . S
O479 Co473 2.058 . S
O479 C505 1.269 . S
O480 Co472 2.074 . S
O480 C505 1.257 . S
H481 C506 0.930 . S
H482 C512 0.930 . S
O483 Co472 2.093 . S
O483 C475 1.224 . S
H484 C516 0.929 . S
H485 C518 0.930 . S
H486 C519 0.930 . S
H487 C517 0.929 . S
H488 C520 0.928 . S
O489 Co473 2.057 . S
O489 C477 1.232 . S
H490 C509 0.929 . S
H491 C510 0.929 . S
H492 C522 0.931 . S
H493 C514 0.929 . S
H494 C523 0.930 . S
H495 C515 0.931 . S
O496 Co472 2.097 . S
O496 C524 1.214 . S
H497 C525 0.929 . S
H498 C526 0.929 . S
H499 C527 0.930 . S
H500 C528 0.929 . S
H501 C530 0.930 . S
H502 C507 0.930 . S
H503 C511 0.930 . S
O504 Co473 2.037 . S
O504 C524 1.234 . S
C505 O479 1.269 . S
C505 O480 1.257 . S
C506 H481 0.930 . S
C506 C509 1.388 . S
C506 C511 1.418 . S
C507 H502 0.930 . S
C507 C510 1.404 . S
C507 C511 1.353 . S
N508 Co473 2.145 . S
N508 C509 1.397 . S
N508 C510 1.334 . S
C509 H490 0.929 . S
C509 C506 1.388 . S
C509 N508 1.397 . S
C510 H491 0.929 . S
C510 C507 1.404 . S
C510 N508 1.334 . S
C511 H503 0.930 . S
C511 C506 1.418 . S
C511 C507 1.353 . S
C512 H482 0.930 . S
C512 N513 1.330 . S
C512 C514 1.446 . S
N513 Co472 2.151 . S
N513 C512 1.330 . S
N513 C517 1.418 . S
C514 H493 0.929 . S
C514 C512 1.446 . S
C514 C515 1.332 . S
C515 H495 0.931 . S
C515 C514 1.332 . S
C515 C516 1.267 . S
C516 H484 0.929 . S
C516 C515 1.267 . S
C516 C517 1.251 . S
C517 H487 0.929 . S
C517 N513 1.418 . S
C517 C516 1.251 . S
C518 H485 0.930 . S
C518 C520 1.406 . S
C518 C523 1.261 . S
C519 H486 0.930 . S
C519 N521 1.325 . S
C519 C522 1.357 . S
C520 H488 0.928 . S
C520 C518 1.406 . S
C520 N521 1.261 . S
N521 Co472 2.214 . S
N521 C519 1.325 . S
N521 C520 1.261 . S
C522 H492 0.931 . S
C522 C519 1.357 . S
C522 C523 1.312 . S
C523 H494 0.930 . S
C523 C518 1.261 . S
C523 C522 1.312 . S
C524 O496 1.214 . S
C524 O504 1.234 . S
C525 H497 0.929 . S
C525 C528 1.391 . S
C525 C530 1.391 . S
C526 H498 0.929 . S
C526 C527 1.390 . S
C526 N529 1.391 . S
C527 H499 0.930 . S
C527 C526 1.390 . S
C527 C528 1.392 . S
C528 H500 0.929 . S
C528 C525 1.391 . S
C528 C527 1.392 . S
N529 Co473 2.257 . S
N529 C526 1.391 . S
N529 C530 1.388 . S
C530 H501 0.930 . S
C530 C525 1.391 . S
C530 N529 1.388 . S
Co531 O533 2.143 . S
Co531 O539 2.074 . S
Co531 O542 2.093 . S
Co531 O555 2.097 . S
Co531 N572 2.151 . S
Co531 N580 2.214 . S
Co532 O533 2.160 . S
Co532 O538 2.058 . S
Co532 O548 2.057 . S
Co532 O563 2.037 . S
Co532 N567 2.145 . S
Co532 N588 2.257 . S
O533 Co531 2.143 . S
O533 Co532 2.160 . S
C534 O535 1.278 . S
C534 O542 1.224 . S
O535 C534 1.278 . S
C536 O537 1.245 . S
C536 O548 1.232 . S
O537 C536 1.245 . S
O538 Co532 2.058 . S
O538 C564 1.269 . S
O539 Co531 2.074 . S
O539 C564 1.257 . S
H540 C565 0.930 . S
H541 C571 0.930 . S
O542 Co531 2.093 . S
O542 C534 1.224 . S
H543 C575 0.929 . S
H544 C577 0.930 . S
H545 C578 0.930 . S
H546 C576 0.929 . S
H547 C579 0.928 . S
O548 Co532 2.057 . S
O548 C536 1.232 . S
H549 C568 0.929 . S
H550 C569 0.929 . S
H551 C581 0.931 . S
H552 C573 0.929 . S
H553 C582 0.930 . S
H554 C574 0.931 . S
O555 Co531 2.097 . S
O555 C583 1.214 . S
H556 C584 0.929 . S
H557 C585 0.929 . S
H558 C586 0.930 . S
H559 C587 0.929 . S
H560 C589 0.930 . S
H561 C566 0.930 . S
H562 C570 0.930 . S
O563 Co532 2.037 . S
O563 C583 1.234 . S
C564 O538 1.269 . S
C564 O539 1.257 . S
C565 H540 0.930 . S
C565 C568 1.388 . S
C565 C570 1.418 . S
C566 H561 0.930 . S
C566 C569 1.404 . S
C566 C570 1.353 . S
N567 Co532 2.145 . S
N567 C568 1.397 . S
N567 C569 1.334 . S
C568 H549 0.929 . S
C568 C565 1.388 . S
C568 N567 1.397 . S
C569 H550 0.929 . S
C569 C566 1.404 . S
C569 N567 1.334 . S
C570 H562 0.930 . S
C570 C565 1.418 . S
C570 C566 1.353 . S
C571 H541 0.930 . S
C571 N572 1.330 . S
C571 C573 1.446 . S
N572 Co531 2.151 . S
N572 C571 1.330 . S
N572 C576 1.418 . S
C573 H552 0.929 . S
C573 C571 1.446 . S
C573 C574 1.332 . S
C574 H554 0.931 . S
C574 C573 1.332 . S
C574 C575 1.267 . S
C575 H543 0.929 . S
C575 C574 1.267 . S
C575 C576 1.251 . S
C576 H546 0.929 . S
C576 N572 1.418 . S
C576 C575 1.251 . S
C577 H544 0.930 . S
C577 C579 1.406 . S
C577 C582 1.261 . S
C578 H545 0.930 . S
C578 N580 1.325 . S
C578 C581 1.357 . S
C579 H547 0.928 . S
C579 C577 1.406 . S
C579 N580 1.261 . S
N580 Co531 2.214 . S
N580 C578 1.325 . S
N580 C579 1.261 . S
C581 H551 0.931 . S
C581 C578 1.357 . S
C581 C582 1.312 . S
C582 H553 0.930 . S
C582 C577 1.261 . S
C582 C581 1.312 . S
C583 O555 1.214 . S
C583 O563 1.234 . S
C584 H556 0.929 . S
C584 C587 1.391 . S
C584 C589 1.391 . S
C585 H557 0.929 . S
C585 C586 1.390 . S
C585 N588 1.391 . S
C586 H558 0.930 . S
C586 C585 1.390 . S
C586 C587 1.392 . S
C587 H559 0.929 . S
C587 C584 1.391 . S
C587 C586 1.392 . S
N588 Co532 2.257 . S
N588 C585 1.391 . S
N588 C589 1.388 . S
C589 H560 0.930 . S
C589 C584 1.391 . S
C589 N588 1.388 . S
Co590 O592 2.143 . S
Co590 O598 2.074 . S
Co590 O601 2.093 . S
Co590 O614 2.097 . S
Co590 N631 2.151 . S
Co590 N639 2.214 . S
Co591 O592 2.160 . S
Co591 O597 2.058 . S
Co591 O607 2.057 . S
Co591 O622 2.037 . S
Co591 N626 2.145 . S
Co591 N647 2.257 . S
O592 Co590 2.143 . S
O592 Co591 2.160 . S
C593 O594 1.278 . S
C593 O601 1.224 . S
O594 C593 1.278 . S
C595 O596 1.245 . S
C595 O607 1.232 . S
O596 C595 1.245 . S
O597 Co591 2.058 . S
O597 C623 1.269 . S
O598 Co590 2.074 . S
O598 C623 1.257 . S
H599 C624 0.930 . S
H600 C630 0.930 . S
O601 Co590 2.093 . S
O601 C593 1.224 . S
H602 C634 0.929 . S
H603 C636 0.930 . S
H604 C637 0.930 . S
H605 C635 0.929 . S
H606 C638 0.928 . S
O607 Co591 2.057 . S
O607 C595 1.232 . S
H608 C627 0.929 . S
H609 C628 0.929 . S
H610 C640 0.931 . S
H611 C632 0.929 . S
H612 C641 0.930 . S
H613 C633 0.931 . S
O614 Co590 2.097 . S
O614 C642 1.214 . S
H615 C643 0.929 . S
H616 C644 0.929 . S
H617 C645 0.930 . S
H618 C646 0.929 . S
H619 C648 0.930 . S
H620 C625 0.930 . S
H621 C629 0.930 . S
O622 Co591 2.037 . S
O622 C642 1.234 . S
C623 O597 1.269 . S
C623 O598 1.257 . S
C624 H599 0.930 . S
C624 C627 1.388 . S
C624 C629 1.418 . S
C625 H620 0.930 . S
C625 C628 1.404 . S
C625 C629 1.353 . S
N626 Co591 2.145 . S
N626 C627 1.397 . S
N626 C628 1.334 . S
C627 H608 0.929 . S
C627 C624 1.388 . S
C627 N626 1.397 . S
C628 H609 0.929 . S
C628 C625 1.404 . S
C628 N626 1.334 . S
C629 H621 0.930 . S
C629 C624 1.418 . S
C629 C625 1.353 . S
C630 H600 0.930 . S
C630 N631 1.330 . S
C630 C632 1.446 . S
N631 Co590 2.151 . S
N631 C630 1.330 . S
N631 C635 1.418 . S
C632 H611 0.929 . S
C632 C630 1.446 . S
C632 C633 1.332 . S
C633 H613 0.931 . S
C633 C632 1.332 . S
C633 C634 1.267 . S
C634 H602 0.929 . S
C634 C633 1.267 . S
C634 C635 1.251 . S
C635 H605 0.929 . S
C635 N631 1.418 . S
C635 C634 1.251 . S
C636 H603 0.930 . S
C636 C638 1.406 . S
C636 C641 1.261 . S
C637 H604 0.930 . S
C637 N639 1.325 . S
C637 C640 1.357 . S
C638 H606 0.928 . S
C638 C636 1.406 . S
C638 N639 1.261 . S
N639 Co590 2.214 . S
N639 C637 1.325 . S
N639 C638 1.261 . S
C640 H610 0.931 . S
C640 C637 1.357 . S
C640 C641 1.312 . S
C641 H612 0.930 . S
C641 C636 1.261 . S
C641 C640 1.312 . S
C642 O614 1.214 . S
C642 O622 1.234 . S
C643 H615 0.929 . S
C643 C646 1.391 . S
C643 C648 1.391 . S
C644 H616 0.929 . S
C644 C645 1.390 . S
C644 N647 1.391 . S
C645 H617 0.930 . S
C645 C644 1.390 . S
C645 C646 1.392 . S
C646 H618 0.929 . S
C646 C643 1.391 . S
C646 C645 1.392 . S
N647 Co591 2.257 . S
N647 C644 1.391 . S
N647 C648 1.388 . S
C648 H619 0.930 . S
C648 C643 1.391 . S
C648 N647 1.388 . S
Co649 O651 2.143 . S
Co649 O657 2.074 . S
Co649 O660 2.093 . S
Co649 O673 2.097 . S
Co649 N690 2.151 . S
Co649 N698 2.214 . S
Co650 O651 2.160 . S
Co650 O656 2.058 . S
Co650 O666 2.057 . S
Co650 O681 2.037 . S
Co650 N685 2.145 . S
Co650 N706 2.257 . S
O651 Co649 2.143 . S
O651 Co650 2.160 . S
C652 O653 1.278 . S
C652 O660 1.224 . S
O653 C652 1.278 . S
C654 O655 1.245 . S
C654 O666 1.232 . S
O655 C654 1.245 . S
O656 Co650 2.058 . S
O656 C682 1.269 . S
O657 Co649 2.074 . S
O657 C682 1.257 . S
H658 C683 0.930 . S
H659 C689 0.930 . S
O660 Co649 2.093 . S
O660 C652 1.224 . S
H661 C693 0.929 . S
H662 C695 0.930 . S
H663 C696 0.930 . S
H664 C694 0.929 . S
H665 C697 0.928 . S
O666 Co650 2.057 . S
O666 C654 1.232 . S
H667 C686 0.929 . S
H668 C687 0.929 . S
H669 C699 0.931 . S
H670 C691 0.929 . S
H671 C700 0.930 . S
H672 C692 0.931 . S
O673 Co649 2.097 . S
O673 C701 1.214 . S
H674 C702 0.929 . S
H675 C703 0.929 . S
H676 C704 0.930 . S
H677 C705 0.929 . S
H678 C707 0.930 . S
H679 C684 0.930 . S
H680 C688 0.930 . S
O681 Co650 2.037 . S
O681 C701 1.234 . S
C682 O656 1.269 . S
C682 O657 1.257 . S
C683 H658 0.930 . S
C683 C686 1.388 . S
C683 C688 1.418 . S
C684 H679 0.930 . S
C684 C687 1.404 . S
C684 C688 1.353 . S
N685 Co650 2.145 . S
N685 C686 1.397 . S
N685 C687 1.334 . S
C686 H667 0.929 . S
C686 C683 1.388 . S
C686 N685 1.397 . S
C687 H668 0.929 . S
C687 C684 1.404 . S
C687 N685 1.334 . S
C688 H680 0.930 . S
C688 C683 1.418 . S
C688 C684 1.353 . S
C689 H659 0.930 . S
C689 N690 1.330 . S
C689 C691 1.446 . S
N690 Co649 2.151 . S
N690 C689 1.330 . S
N690 C694 1.418 . S
C691 H670 0.929 . S
C691 C689 1.446 . S
C691 C692 1.332 . S
C692 H672 0.931 . S
C692 C691 1.332 . S
C692 C693 1.267 . S
C693 H661 0.929 . S
C693 C692 1.267 . S
C693 C694 1.251 . S
C694 H664 0.929 . S
C694 N690 1.418 . S
C694 C693 1.251 . S
C695 H662 0.930 . S
C695 C697 1.406 . S
C695 C700 1.261 . S
C696 H663 0.930 . S
C696 N698 1.325 . S
C696 C699 1.357 . S
C697 H665 0.928 . S
C697 C695 1.406 . S
C697 N698 1.261 . S
N698 Co649 2.214 . S
N698 C696 1.325 . S
N698 C697 1.261 . S
C699 H669 0.931 . S
C699 C696 1.357 . S
C699 C700 1.312 . S
C700 H671 0.930 . S
C700 C695 1.261 . S
C700 C699 1.312 . S
C701 O673 1.214 . S
C701 O681 1.234 . S
C702 H674 0.929 . S
C702 C705 1.391 . S
C702 C707 1.391 . S
C703 H675 0.929 . S
C703 C704 1.390 . S
C703 N706 1.391 . S
C704 H676 0.930 . S
C704 C703 1.390 . S
C704 C705 1.392 . S
C705 H677 0.929 . S
C705 C702 1.391 . S
C705 C704 1.392 . S
N706 Co650 2.257 . S
N706 C703 1.391 . S
N706 C707 1.388 . S
C707 H678 0.930 . S
C707 C702 1.391 . S
C707 N706 1.388 . S
Co708 O710 2.143 . S
Co708 O716 2.074 . S
Co708 O719 2.093 . S
Co708 O732 2.097 . S
Co708 N749 2.151 . S
Co708 N757 2.214 . S
Co709 O710 2.160 . S
Co709 O715 2.058 . S
Co709 O725 2.057 . S
Co709 O740 2.037 . S
Co709 N744 2.145 . S
Co709 N765 2.257 . S
O710 Co708 2.143 . S
O710 Co709 2.160 . S
C711 O712 1.278 . S
C711 O719 1.224 . S
O712 C711 1.278 . S
C713 O714 1.245 . S
C713 O725 1.232 . S
O714 C713 1.245 . S
O715 Co709 2.058 . S
O715 C741 1.269 . S
O716 Co708 2.074 . S
O716 C741 1.257 . S
H717 C742 0.930 . S
H718 C748 0.930 . S
O719 Co708 2.093 . S
O719 C711 1.224 . S
H720 C752 0.929 . S
H721 C754 0.930 . S
H722 C755 0.930 . S
H723 C753 0.929 . S
H724 C756 0.928 . S
O725 Co709 2.057 . S
O725 C713 1.232 . S
H726 C745 0.929 . S
H727 C746 0.929 . S
H728 C758 0.931 . S
H729 C750 0.929 . S
H730 C759 0.930 . S
H731 C751 0.931 . S
O732 Co708 2.097 . S
O732 C760 1.214 . S
H733 C761 0.929 . S
H734 C762 0.929 . S
H735 C763 0.930 . S
H736 C764 0.929 . S
H737 C766 0.930 . S
H738 C743 0.930 . S
H739 C747 0.930 . S
O740 Co709 2.037 . S
O740 C760 1.234 . S
C741 O715 1.269 . S
C741 O716 1.257 . S
C742 H717 0.930 . S
C742 C745 1.388 . S
C742 C747 1.418 . S
C743 H738 0.930 . S
C743 C746 1.404 . S
C743 C747 1.353 . S
N744 Co709 2.145 . S
N744 C745 1.397 . S
N744 C746 1.334 . S
C745 H726 0.929 . S
C745 C742 1.388 . S
C745 N744 1.397 . S
C746 H727 0.929 . S
C746 C743 1.404 . S
C746 N744 1.334 . S
C747 H739 0.930 . S
C747 C742 1.418 . S
C747 C743 1.353 . S
C748 H718 0.930 . S
C748 N749 1.330 . S
C748 C750 1.446 . S
N749 Co708 2.151 . S
N749 C748 1.330 . S
N749 C753 1.418 . S
C750 H729 0.929 . S
C750 C748 1.446 . S
C750 C751 1.332 . S
C751 H731 0.931 . S
C751 C750 1.332 . S
C751 C752 1.267 . S
C752 H720 0.929 . S
C752 C751 1.267 . S
C752 C753 1.251 . S
C753 H723 0.929 . S
C753 N749 1.418 . S
C753 C752 1.251 . S
C754 H721 0.930 . S
C754 C756 1.406 . S
C754 C759 1.261 . S
C755 H722 0.930 . S
C755 N757 1.325 . S
C755 C758 1.357 . S
C756 H724 0.928 . S
C756 C754 1.406 . S
C756 N757 1.261 . S
N757 Co708 2.214 . S
N757 C755 1.325 . S
N757 C756 1.261 . S
C758 H728 0.931 . S
C758 C755 1.357 . S
C758 C759 1.312 . S
C759 H730 0.930 . S
C759 C754 1.261 . S
C759 C758 1.312 . S
C760 O732 1.214 . S
C760 O740 1.234 . S
C761 H733 0.929 . S
C761 C764 1.391 . S
C761 C766 1.391 . S
C762 H734 0.929 . S
C762 C763 1.390 . S
C762 N765 1.391 . S
C763 H735 0.930 . S
C763 C762 1.390 . S
C763 C764 1.392 . S
C764 H736 0.929 . S
C764 C761 1.391 . S
C764 C763 1.392 . S
N765 Co709 2.257 . S
N765 C762 1.391 . S
N765 C766 1.388 . S
C766 H737 0.930 . S
C766 C761 1.391 . S
C766 N765 1.388 . S
Co767 O769 2.143 . S
Co767 O775 2.074 . S
Co767 O778 2.093 . S
Co767 O791 2.097 . S
Co767 N808 2.151 . S
Co767 N816 2.214 . S
Co768 O769 2.160 . S
Co768 O774 2.058 . S
Co768 O784 2.057 . S
Co768 O799 2.037 . S
Co768 N803 2.145 . S
Co768 N824 2.257 . S
O769 Co767 2.143 . S
O769 Co768 2.160 . S
C770 O771 1.278 . S
C770 O778 1.224 . S
O771 C770 1.278 . S
C772 O773 1.245 . S
C772 O784 1.232 . S
O773 C772 1.245 . S
O774 Co768 2.058 . S
O774 C800 1.269 . S
O775 Co767 2.074 . S
O775 C800 1.257 . S
H776 C801 0.930 . S
H777 C807 0.930 . S
O778 Co767 2.093 . S
O778 C770 1.224 . S
H779 C811 0.929 . S
H780 C813 0.930 . S
H781 C814 0.930 . S
H782 C812 0.929 . S
H783 C815 0.928 . S
O784 Co768 2.057 . S
O784 C772 1.232 . S
H785 C804 0.929 . S
H786 C805 0.929 . S
H787 C817 0.931 . S
H788 C809 0.929 . S
H789 C818 0.930 . S
H790 C810 0.931 . S
O791 Co767 2.097 . S
O791 C819 1.214 . S
H792 C820 0.929 . S
H793 C821 0.929 . S
H794 C822 0.930 . S
H795 C823 0.929 . S
H796 C825 0.930 . S
H797 C802 0.930 . S
H798 C806 0.930 . S
O799 Co768 2.037 . S
O799 C819 1.234 . S
C800 O774 1.269 . S
C800 O775 1.257 . S
C801 H776 0.930 . S
C801 C804 1.388 . S
C801 C806 1.418 . S
C802 H797 0.930 . S
C802 C805 1.404 . S
C802 C806 1.353 . S
N803 Co768 2.145 . S
N803 C804 1.397 . S
N803 C805 1.334 . S
C804 H785 0.929 . S
C804 C801 1.388 . S
C804 N803 1.397 . S
C805 H786 0.929 . S
C805 C802 1.404 . S
C805 N803 1.334 . S
C806 H798 0.930 . S
C806 C801 1.418 . S
C806 C802 1.353 . S
C807 H777 0.930 . S
C807 N808 1.330 . S
C807 C809 1.446 . S
N808 Co767 2.151 . S
N808 C807 1.330 . S
N808 C812 1.418 . S
C809 H788 0.929 . S
C809 C807 1.446 . S
C809 C810 1.332 . S
C810 H790 0.931 . S
C810 C809 1.332 . S
C810 C811 1.267 . S
C811 H779 0.929 . S
C811 C810 1.267 . S
C811 C812 1.251 . S
C812 H782 0.929 . S
C812 N808 1.418 . S
C812 C811 1.251 . S
C813 H780 0.930 . S
C813 C815 1.406 . S
C813 C818 1.261 . S
C814 H781 0.930 . S
C814 N816 1.325 . S
C814 C817 1.357 . S
C815 H783 0.928 . S
C815 C813 1.406 . S
C815 N816 1.261 . S
N816 Co767 2.214 . S
N816 C814 1.325 . S
N816 C815 1.261 . S
C817 H787 0.931 . S
C817 C814 1.357 . S
C817 C818 1.312 . S
C818 H789 0.930 . S
C818 C813 1.261 . S
C818 C817 1.312 . S
C819 O791 1.214 . S
C819 O799 1.234 . S
C820 H792 0.929 . S
C820 C823 1.391 . S
C820 C825 1.391 . S
C821 H793 0.929 . S
C821 C822 1.390 . S
C821 N824 1.391 . S
C822 H794 0.930 . S
C822 C821 1.390 . S
C822 C823 1.392 . S
C823 H795 0.929 . S
C823 C820 1.391 . S
C823 C822 1.392 . S
N824 Co768 2.257 . S
N824 C821 1.391 . S
N824 C825 1.388 . S
C825 H796 0.930 . S
C825 C820 1.391 . S
C825 N824 1.388 . S
Co826 O828 2.143 . S
Co826 O834 2.074 . S
Co826 O837 2.093 . S
Co826 O850 2.097 . S
Co826 N867 2.151 . S
Co826 N875 2.214 . S
Co827 O828 2.160 . S
Co827 O833 2.058 . S
Co827 O843 2.057 . S
Co827 O858 2.037 . S
Co827 N862 2.145 . S
Co827 N883 2.257 . S
O828 Co826 2.143 . S
O828 Co827 2.160 . S
C829 O830 1.278 . S
C829 O837 1.224 . S
O830 C829 1.278 . S
C831 O832 1.245 . S
C831 O843 1.232 . S
O832 C831 1.245 . S
O833 Co827 2.058 . S
O833 C859 1.269 . S
O834 Co826 2.074 . S
O834 C859 1.257 . S
H835 C860 0.930 . S
H836 C866 0.930 . S
O837 Co826 2.093 . S
O837 C829 1.224 . S
H838 C870 0.929 . S
H839 C872 0.930 . S
H840 C873 0.930 . S
H841 C871 0.929 . S
H842 C874 0.928 . S
O843 Co827 2.057 . S
O843 C831 1.232 . S
H844 C863 0.929 . S
H845 C864 0.929 . S
H846 C876 0.931 . S
H847 C868 0.929 . S
H848 C877 0.930 . S
H849 C869 0.931 . S
O850 Co826 2.097 . S
O850 C878 1.214 . S
H851 C879 0.929 . S
H852 C880 0.929 . S
H853 C881 0.930 . S
H854 C882 0.929 . S
H855 C884 0.930 . S
H856 C861 0.930 . S
H857 C865 0.930 . S
O858 Co827 2.037 . S
O858 C878 1.234 . S
C859 O833 1.269 . S
C859 O834 1.257 . S
C860 H835 0.930 . S
C860 C863 1.388 . S
C860 C865 1.418 . S
C861 H856 0.930 . S
C861 C864 1.404 . S
C861 C865 1.353 . S
N862 Co827 2.145 . S
N862 C863 1.397 . S
N862 C864 1.334 . S
C863 H844 0.929 . S
C863 C860 1.388 . S
C863 N862 1.397 . S
C864 H845 0.929 . S
C864 C861 1.404 . S
C864 N862 1.334 . S
C865 H857 0.930 . S
C865 C860 1.418 . S
C865 C861 1.353 . S
C866 H836 0.930 . S
C866 N867 1.330 . S
C866 C868 1.446 . S
N867 Co826 2.151 . S
N867 C866 1.330 . S
N867 C871 1.418 . S
C868 H847 0.929 . S
C868 C866 1.446 . S
C868 C869 1.332 . S
C869 H849 0.931 . S
C869 C868 1.332 . S
C869 C870 1.267 . S
C870 H838 0.929 . S
C870 C869 1.267 . S
C870 C871 1.251 . S
C871 H841 0.929 . S
C871 N867 1.418 . S
C871 C870 1.251 . S
C872 H839 0.930 . S
C872 C874 1.406 . S
C872 C877 1.261 . S
C873 H840 0.930 . S
C873 N875 1.325 . S
C873 C876 1.357 . S
C874 H842 0.928 . S
C874 C872 1.406 . S
C874 N875 1.261 . S
N875 Co826 2.214 . S
N875 C873 1.325 . S
N875 C874 1.261 . S
C876 H846 0.931 . S
C876 C873 1.357 . S
C876 C877 1.312 . S
C877 H848 0.930 . S
C877 C872 1.261 . S
C877 C876 1.312 . S
C878 O850 1.214 . S
C878 O858 1.234 . S
C879 H851 0.929 . S
C879 C882 1.391 . S
C879 C884 1.391 . S
C880 H852 0.929 . S
C880 C881 1.390 . S
C880 N883 1.391 . S
C881 H853 0.930 . S
C881 C880 1.390 . S
C881 C882 1.392 . S
C882 H854 0.929 . S
C882 C879 1.391 . S
C882 C881 1.392 . S
N883 Co827 2.257 . S
N883 C880 1.391 . S
N883 C884 1.388 . S
C884 H855 0.930 . S
C884 C879 1.391 . S
C884 N883 1.388 . S
Co885 O887 2.143 . S
Co885 O893 2.074 . S
Co885 O896 2.093 . S
Co885 O909 2.097 . S
Co885 N926 2.151 . S
Co885 N934 2.214 . S
Co886 O887 2.160 . S
Co886 O892 2.058 . S
Co886 O902 2.057 . S
Co886 O917 2.037 . S
Co886 N921 2.145 . S
Co886 N942 2.257 . S
O887 Co885 2.143 . S
O887 Co886 2.160 . S
C888 O889 1.278 . S
C888 O896 1.224 . S
O889 C888 1.278 . S
C890 O891 1.245 . S
C890 O902 1.232 . S
O891 C890 1.245 . S
O892 Co886 2.058 . S
O892 C918 1.269 . S
O893 Co885 2.074 . S
O893 C918 1.257 . S
H894 C919 0.930 . S
H895 C925 0.930 . S
O896 Co885 2.093 . S
O896 C888 1.224 . S
H897 C929 0.929 . S
H898 C931 0.930 . S
H899 C932 0.930 . S
H900 C930 0.929 . S
H901 C933 0.928 . S
O902 Co886 2.057 . S
O902 C890 1.232 . S
H903 C922 0.929 . S
H904 C923 0.929 . S
H905 C935 0.931 . S
H906 C927 0.929 . S
H907 C936 0.930 . S
H908 C928 0.931 . S
O909 Co885 2.097 . S
O909 C937 1.214 . S
H910 C938 0.929 . S
H911 C939 0.929 . S
H912 C940 0.930 . S
H913 C941 0.929 . S
H914 C943 0.930 . S
H915 C920 0.930 . S
H916 C924 0.930 . S
O917 Co886 2.037 . S
O917 C937 1.234 . S
C918 O892 1.269 . S
C918 O893 1.257 . S
C919 H894 0.930 . S
C919 C922 1.388 . S
C919 C924 1.418 . S
C920 H915 0.930 . S
C920 C923 1.404 . S
C920 C924 1.353 . S
N921 Co886 2.145 . S
N921 C922 1.397 . S
N921 C923 1.334 . S
C922 H903 0.929 . S
C922 C919 1.388 . S
C922 N921 1.397 . S
C923 H904 0.929 . S
C923 C920 1.404 . S
C923 N921 1.334 . S
C924 H916 0.930 . S
C924 C919 1.418 . S
C924 C920 1.353 . S
C925 H895 0.930 . S
C925 N926 1.330 . S
C925 C927 1.446 . S
N926 Co885 2.151 . S
N926 C925 1.330 . S
N926 C930 1.418 . S
C927 H906 0.929 . S
C927 C925 1.446 . S
C927 C928 1.332 . S
C928 H908 0.931 . S
C928 C927 1.332 . S
C928 C929 1.267 . S
C929 H897 0.929 . S
C929 C928 1.267 . S
C929 C930 1.251 . S
C930 H900 0.929 . S
C930 N926 1.418 . S
C930 C929 1.251 . S
C931 H898 0.930 . S
C931 C933 1.406 . S
C931 C936 1.261 . S
C932 H899 0.930 . S
C932 N934 1.325 . S
C932 C935 1.357 . S
C933 H901 0.928 . S
C933 C931 1.406 . S
C933 N934 1.261 . S
N934 Co885 2.214 . S
N934 C932 1.325 . S
N934 C933 1.261 . S
C935 H905 0.931 . S
C935 C932 1.357 . S
C935 C936 1.312 . S
C936 H907 0.930 . S
C936 C931 1.261 . S
C936 C935 1.312 . S
C937 O909 1.214 . S
C937 O917 1.234 . S
C938 H910 0.929 . S
C938 C941 1.391 . S
C938 C943 1.391 . S
C939 H911 0.929 . S
C939 C940 1.390 . S
C939 N942 1.391 . S
C940 H912 0.930 . S
C940 C939 1.390 . S
C940 C941 1.392 . S
C941 H913 0.929 . S
C941 C938 1.391 . S
C941 C940 1.392 . S
N942 Co886 2.257 . S
N942 C939 1.391 . S
N942 C943 1.388 . S
C943 H914 0.930 . S
C943 C938 1.391 . S
C943 N942 1.388 . S
Co944 O946 2.143 . S
Co944 O952 2.074 . S
Co944 O955 2.093 . S
Co944 O968 2.097 . S
Co944 N985 2.151 . S
Co944 N993 2.214 . S
Co945 O946 2.160 . S
Co945 O951 2.058 . S
Co945 O961 2.057 . S
Co945 O976 2.037 . S
Co945 N980 2.145 . S
Co945 N1001 2.257 . S
O946 Co944 2.143 . S
O946 Co945 2.160 . S
C947 O948 1.278 . S
C947 O955 1.224 . S
O948 C947 1.278 . S
C949 O950 1.245 . S
C949 O961 1.232 . S
O950 C949 1.245 . S
O951 Co945 2.058 . S
O951 C977 1.269 . S
O952 Co944 2.074 . S
O952 C977 1.257 . S
H953 C978 0.930 . S
H954 C984 0.930 . S
O955 Co944 2.093 . S
O955 C947 1.224 . S
H956 C988 0.929 . S
H957 C990 0.930 . S
H958 C991 0.930 . S
H959 C989 0.929 . S
H960 C992 0.928 . S
O961 Co945 2.057 . S
O961 C949 1.232 . S
H962 C981 0.929 . S
H963 C982 0.929 . S
H964 C994 0.931 . S
H965 C986 0.929 . S
H966 C995 0.930 . S
H967 C987 0.931 . S
O968 Co944 2.097 . S
O968 C996 1.214 . S
H969 C997 0.929 . S
H970 C998 0.929 . S
H971 C999 0.930 . S
H972 C1000 0.929 . S
H973 C1002 0.930 . S
H974 C979 0.930 . S
H975 C983 0.930 . S
O976 Co945 2.037 . S
O976 C996 1.234 . S
C977 O951 1.269 . S
C977 O952 1.257 . S
C978 H953 0.930 . S
C978 C981 1.388 . S
C978 C983 1.418 . S
C979 H974 0.930 . S
C979 C982 1.404 . S
C979 C983 1.353 . S
N980 Co945 2.145 . S
N980 C981 1.397 . S
N980 C982 1.334 . S
C981 H962 0.929 . S
C981 C978 1.388 . S
C981 N980 1.397 . S
C982 H963 0.929 . S
C982 C979 1.404 . S
C982 N980 1.334 . S
C983 H975 0.930 . S
C983 C978 1.418 . S
C983 C979 1.353 . S
C984 H954 0.930 . S
C984 N985 1.330 . S
C984 C986 1.446 . S
N985 Co944 2.151 . S
N985 C984 1.330 . S
N985 C989 1.418 . S
C986 H965 0.929 . S
C986 C984 1.446 . S
C986 C987 1.332 . S
C987 H967 0.931 . S
C987 C986 1.332 . S
C987 C988 1.267 . S
C988 H956 0.929 . S
C988 C987 1.267 . S
C988 C989 1.251 . S
C989 H959 0.929 . S
C989 N985 1.418 . S
C989 C988 1.251 . S
C990 H957 0.930 . S
C990 C992 1.406 . S
C990 C995 1.261 . S
C991 H958 0.930 . S
C991 N993 1.325 . S
C991 C994 1.357 . S
C992 H960 0.928 . S
C992 C990 1.406 . S
C992 N993 1.261 . S
N993 Co944 2.214 . S
N993 C991 1.325 . S
N993 C992 1.261 . S
C994 H964 0.931 . S
C994 C991 1.357 . S
C994 C995 1.312 . S
C995 H966 0.930 . S
C995 C990 1.261 . S
C995 C994 1.312 . S
C996 O968 1.214 . S
C996 O976 1.234 . S
C997 H969 0.929 . S
C997 C1000 1.391 . S
C997 C1002 1.391 . S
C998 H970 0.929 . S
C998 C999 1.390 . S
C998 N1001 1.391 . S
C999 H971 0.930 . S
C999 C998 1.390 . S
C999 C1000 1.392 . S
C1000 H972 0.929 . S
C1000 C997 1.391 . S
C1000 C999 1.392 . S
N1001 Co945 2.257 . S
N1001 C998 1.391 . S
N1001 C1002 1.388 . S
C1002 H973 0.930 . S
C1002 C997 1.391 . S
C1002 N1001 1.388 . S
Co1003 O1005 2.143 . S
Co1003 O1011 2.074 . S
Co1003 O1014 2.093 . S
Co1003 O1027 2.097 . S
Co1003 N1044 2.151 . S
Co1003 N1052 2.214 . S
Co1004 O1005 2.160 . S
Co1004 O1010 2.058 . S
Co1004 O1020 2.057 . S
Co1004 O1035 2.037 . S
Co1004 N1039 2.145 . S
Co1004 N1060 2.257 . S
O1005 Co1003 2.143 . S
O1005 Co1004 2.160 . S
C1006 O1007 1.278 . S
C1006 O1014 1.224 . S
O1007 C1006 1.278 . S
C1008 O1009 1.245 . S
C1008 O1020 1.232 . S
O1009 C1008 1.245 . S
O1010 Co1004 2.058 . S
O1010 C1036 1.269 . S
O1011 Co1003 2.074 . S
O1011 C1036 1.257 . S
H1012 C1037 0.930 . S
H1013 C1043 0.930 . S
O1014 Co1003 2.093 . S
O1014 C1006 1.224 . S
H1015 C1047 0.929 . S
H1016 C1049 0.930 . S
H1017 C1050 0.930 . S
H1018 C1048 0.929 . S
H1019 C1051 0.928 . S
O1020 Co1004 2.057 . S
O1020 C1008 1.232 . S
H1021 C1040 0.929 . S
H1022 C1041 0.929 . S
H1023 C1053 0.931 . S
H1024 C1045 0.929 . S
H1025 C1054 0.930 . S
H1026 C1046 0.931 . S
O1027 Co1003 2.097 . S
O1027 C1055 1.214 . S
H1028 C1056 0.929 . S
H1029 C1057 0.929 . S
H1030 C1058 0.930 . S
H1031 C1059 0.929 . S
H1032 C1061 0.930 . S
H1033 C1038 0.930 . S
H1034 C1042 0.930 . S
O1035 Co1004 2.037 . S
O1035 C1055 1.234 . S
C1036 O1010 1.269 . S
C1036 O1011 1.257 . S
C1037 H1012 0.930 . S
C1037 C1040 1.388 . S
C1037 C1042 1.418 . S
C1038 H1033 0.930 . S
C1038 C1041 1.404 . S
C1038 C1042 1.353 . S
N1039 Co1004 2.145 . S
N1039 C1040 1.397 . S
N1039 C1041 1.334 . S
C1040 H1021 0.929 . S
C1040 C1037 1.388 . S
C1040 N1039 1.397 . S
C1041 H1022 0.929 . S
C1041 C1038 1.404 . S
C1041 N1039 1.334 . S
C1042 H1034 0.930 . S
C1042 C1037 1.418 . S
C1042 C1038 1.353 . S
C1043 H1013 0.930 . S
C1043 N1044 1.330 . S
C1043 C1045 1.446 . S
N1044 Co1003 2.151 . S
N1044 C1043 1.330 . S
N1044 C1048 1.418 . S
C1045 H1024 0.929 . S
C1045 C1043 1.446 . S
C1045 C1046 1.332 . S
C1046 H1026 0.931 . S
C1046 C1045 1.332 . S
C1046 C1047 1.267 . S
C1047 H1015 0.929 . S
C1047 C1046 1.267 . S
C1047 C1048 1.251 . S
C1048 H1018 0.929 . S
C1048 N1044 1.418 . S
C1048 C1047 1.251 . S
C1049 H1016 0.930 . S
C1049 C1051 1.406 . S
C1049 C1054 1.261 . S
C1050 H1017 0.930 . S
C1050 N1052 1.325 . S
C1050 C1053 1.357 . S
C1051 H1019 0.928 . S
C1051 C1049 1.406 . S
C1051 N1052 1.261 . S
N1052 Co1003 2.214 . S
N1052 C1050 1.325 . S
N1052 C1051 1.261 . S
C1053 H1023 0.931 . S
C1053 C1050 1.357 . S
C1053 C1054 1.312 . S
C1054 H1025 0.930 . S
C1054 C1049 1.261 . S
C1054 C1053 1.312 . S
C1055 O1027 1.214 . S
C1055 O1035 1.234 . S
C1056 H1028 0.929 . S
C1056 C1059 1.391 . S
C1056 C1061 1.391 . S
C1057 H1029 0.929 . S
C1057 C1058 1.390 . S
C1057 N1060 1.391 . S
C1058 H1030 0.930 . S
C1058 C1057 1.390 . S
C1058 C1059 1.392 . S
C1059 H1031 0.929 . S
C1059 C1056 1.391 . S
C1059 C1058 1.392 . S
N1060 Co1004 2.257 . S
N1060 C1057 1.391 . S
N1060 C1061 1.388 . S
C1061 H1032 0.930 . S
C1061 C1056 1.391 . S
C1061 N1060 1.388 . S
Co1062 O1064 2.143 . S
Co1062 O1070 2.074 . S
Co1062 O1073 2.093 . S
Co1062 O1086 2.097 . S
Co1062 N1103 2.151 . S
Co1062 N1111 2.214 . S
Co1063 O1064 2.160 . S
Co1063 O1069 2.058 . S
Co1063 O1079 2.057 . S
Co1063 O1094 2.037 . S
Co1063 N1098 2.145 . S
Co1063 N1119 2.257 . S
O1064 Co1062 2.143 . S
O1064 Co1063 2.160 . S
C1065 O1066 1.278 . S
C1065 O1073 1.224 . S
O1066 C1065 1.278 . S
C1067 O1068 1.245 . S
C1067 O1079 1.232 . S
O1068 C1067 1.245 . S
O1069 Co1063 2.058 . S
O1069 C1095 1.269 . S
O1070 Co1062 2.074 . S
O1070 C1095 1.257 . S
H1071 C1096 0.930 . S
H1072 C1102 0.930 . S
O1073 Co1062 2.093 . S
O1073 C1065 1.224 . S
H1074 C1106 0.929 . S
H1075 C1108 0.930 . S
H1076 C1109 0.930 . S
H1077 C1107 0.929 . S
H1078 C1110 0.928 . S
O1079 Co1063 2.057 . S
O1079 C1067 1.232 . S
H1080 C1099 0.929 . S
H1081 C1100 0.929 . S
H1082 C1112 0.931 . S
H1083 C1104 0.929 . S
H1084 C1113 0.930 . S
H1085 C1105 0.931 . S
O1086 Co1062 2.097 . S
O1086 C1114 1.214 . S
H1087 C1115 0.929 . S
H1088 C1116 0.929 . S
H1089 C1117 0.930 . S
H1090 C1118 0.929 . S
H1091 C1120 0.930 . S
H1092 C1097 0.930 . S
H1093 C1101 0.930 . S
O1094 Co1063 2.037 . S
O1094 C1114 1.234 . S
C1095 O1069 1.269 . S
C1095 O1070 1.257 . S
C1096 H1071 0.930 . S
C1096 C1099 1.388 . S
C1096 C1101 1.418 . S
C1097 H1092 0.930 . S
C1097 C1100 1.404 . S
C1097 C1101 1.353 . S
N1098 Co1063 2.145 . S
N1098 C1099 1.397 . S
N1098 C1100 1.334 . S
C1099 H1080 0.929 . S
C1099 C1096 1.388 . S
C1099 N1098 1.397 . S
C1100 H1081 0.929 . S
C1100 C1097 1.404 . S
C1100 N1098 1.334 . S
C1101 H1093 0.930 . S
C1101 C1096 1.418 . S
C1101 C1097 1.353 . S
C1102 H1072 0.930 . S
C1102 N1103 1.330 . S
C1102 C1104 1.446 . S
N1103 Co1062 2.151 . S
N1103 C1102 1.330 . S
N1103 C1107 1.418 . S
C1104 H1083 0.929 . S
C1104 C1102 1.446 . S
C1104 C1105 1.332 . S
C1105 H1085 0.931 . S
C1105 C1104 1.332 . S
C1105 C1106 1.267 . S
C1106 H1074 0.929 . S
C1106 C1105 1.267 . S
C1106 C1107 1.251 . S
C1107 H1077 0.929 . S
C1107 N1103 1.418 . S
C1107 C1106 1.251 . S
C1108 H1075 0.930 . S
C1108 C1110 1.406 . S
C1108 C1113 1.261 . S
C1109 H1076 0.930 . S
C1109 N1111 1.325 . S
C1109 C1112 1.357 . S
C1110 H1078 0.928 . S
C1110 C1108 1.406 . S
C1110 N1111 1.261 . S
N1111 Co1062 2.214 . S
N1111 C1109 1.325 . S
N1111 C1110 1.261 . S
C1112 H1082 0.931 . S
C1112 C1109 1.357 . S
C1112 C1113 1.312 . S
C1113 H1084 0.930 . S
C1113 C1108 1.261 . S
C1113 C1112 1.312 . S
C1114 O1086 1.214 . S
C1114 O1094 1.234 . S
C1115 H1087 0.929 . S
C1115 C1118 1.391 . S
C1115 C1120 1.391 . S
C1116 H1088 0.929 . S
C1116 C1117 1.390 . S
C1116 N1119 1.391 . S
C1117 H1089 0.930 . S
C1117 C1116 1.390 . S
C1117 C1118 1.392 . S
C1118 H1090 0.929 . S
C1118 C1115 1.391 . S
C1118 C1117 1.392 . S
N1119 Co1063 2.257 . S
N1119 C1116 1.391 . S
N1119 C1120 1.388 . S
C1120 H1091 0.930 . S
C1120 C1115 1.391 . S
C1120 N1119 1.388 . S
Co1121 O1123 2.143 . S
Co1121 O1129 2.074 . S
Co1121 O1132 2.093 . S
Co1121 O1145 2.097 . S
Co1121 N1162 2.151 . S
Co1121 N1170 2.214 . S
Co1122 O1123 2.160 . S
Co1122 O1128 2.058 . S
Co1122 O1138 2.057 . S
Co1122 O1153 2.037 . S
Co1122 N1157 2.145 . S
Co1122 N1178 2.257 . S
O1123 Co1121 2.143 . S
O1123 Co1122 2.160 . S
C1124 O1125 1.278 . S
C1124 O1132 1.224 . S
O1125 C1124 1.278 . S
C1126 O1127 1.245 . S
C1126 O1138 1.232 . S
O1127 C1126 1.245 . S
O1128 Co1122 2.058 . S
O1128 C1154 1.269 . S
O1129 Co1121 2.074 . S
O1129 C1154 1.257 . S
H1130 C1155 0.930 . S
H1131 C1161 0.930 . S
O1132 Co1121 2.093 . S
O1132 C1124 1.224 . S
H1133 C1165 0.929 . S
H1134 C1167 0.930 . S
H1135 C1168 0.930 . S
H1136 C1166 0.929 . S
H1137 C1169 0.928 . S
O1138 Co1122 2.057 . S
O1138 C1126 1.232 . S
H1139 C1158 0.929 . S
H1140 C1159 0.929 . S
H1141 C1171 0.931 . S
H1142 C1163 0.929 . S
H1143 C1172 0.930 . S
H1144 C1164 0.931 . S
O1145 Co1121 2.097 . S
O1145 C1173 1.214 . S
H1146 C1174 0.929 . S
H1147 C1175 0.929 . S
H1148 C1176 0.930 . S
H1149 C1177 0.929 . S
H1150 C1179 0.930 . S
H1151 C1156 0.930 . S
H1152 C1160 0.930 . S
O1153 Co1122 2.037 . S
O1153 C1173 1.234 . S
C1154 O1128 1.269 . S
C1154 O1129 1.257 . S
C1155 H1130 0.930 . S
C1155 C1158 1.388 . S
C1155 C1160 1.418 . S
C1156 H1151 0.930 . S
C1156 C1159 1.404 . S
C1156 C1160 1.353 . S
N1157 Co1122 2.145 . S
N1157 C1158 1.397 . S
N1157 C1159 1.334 . S
C1158 H1139 0.929 . S
C1158 C1155 1.388 . S
C1158 N1157 1.397 . S
C1159 H1140 0.929 . S
C1159 C1156 1.404 . S
C1159 N1157 1.334 . S
C1160 H1152 0.930 . S
C1160 C1155 1.418 . S
C1160 C1156 1.353 . S
C1161 H1131 0.930 . S
C1161 N1162 1.330 . S
C1161 C1163 1.446 . S
N1162 Co1121 2.151 . S
N1162 C1161 1.330 . S
N1162 C1166 1.418 . S
C1163 H1142 0.929 . S
C1163 C1161 1.446 . S
C1163 C1164 1.332 . S
C1164 H1144 0.931 . S
C1164 C1163 1.332 . S
C1164 C1165 1.267 . S
C1165 H1133 0.929 . S
C1165 C1164 1.267 . S
C1165 C1166 1.251 . S
C1166 H1136 0.929 . S
C1166 N1162 1.418 . S
C1166 C1165 1.251 . S
C1167 H1134 0.930 . S
C1167 C1169 1.406 . S
C1167 C1172 1.261 . S
C1168 H1135 0.930 . S
C1168 N1170 1.325 . S
C1168 C1171 1.357 . S
C1169 H1137 0.928 . S
C1169 C1167 1.406 . S
C1169 N1170 1.261 . S
N1170 Co1121 2.214 . S
N1170 C1168 1.325 . S
N1170 C1169 1.261 . S
C1171 H1141 0.931 . S
C1171 C1168 1.357 . S
C1171 C1172 1.312 . S
C1172 H1143 0.930 . S
C1172 C1167 1.261 . S
C1172 C1171 1.312 . S
C1173 O1145 1.214 . S
C1173 O1153 1.234 . S
C1174 H1146 0.929 . S
C1174 C1177 1.391 . S
C1174 C1179 1.391 . S
C1175 H1147 0.929 . S
C1175 C1176 1.390 . S
C1175 N1178 1.391 . S
C1176 H1148 0.930 . S
C1176 C1175 1.390 . S
C1176 C1177 1.392 . S
C1177 H1149 0.929 . S
C1177 C1174 1.391 . S
C1177 C1176 1.392 . S
N1178 Co1122 2.257 . S
N1178 C1175 1.391 . S
N1178 C1179 1.388 . S
C1179 H1150 0.930 . S
C1179 C1174 1.391 . S
C1179 N1178 1.388 . S
Co1180 O1182 2.143 . S
Co1180 O1188 2.074 . S
Co1180 O1191 2.093 . S
Co1180 O1204 2.097 . S
Co1180 N1221 2.151 . S
Co1180 N1229 2.214 . S
Co1181 O1182 2.160 . S
Co1181 O1187 2.058 . S
Co1181 O1197 2.057 . S
Co1181 O1212 2.037 . S
Co1181 N1216 2.145 . S
Co1181 N1237 2.257 . S
O1182 Co1180 2.143 . S
O1182 Co1181 2.160 . S
C1183 O1184 1.278 . S
C1183 O1191 1.224 . S
O1184 C1183 1.278 . S
C1185 O1186 1.245 . S
C1185 O1197 1.232 . S
O1186 C1185 1.245 . S
O1187 Co1181 2.058 . S
O1187 C1213 1.269 . S
O1188 Co1180 2.074 . S
O1188 C1213 1.257 . S
H1189 C1214 0.930 . S
H1190 C1220 0.930 . S
O1191 Co1180 2.093 . S
O1191 C1183 1.224 . S
H1192 C1224 0.929 . S
H1193 C1226 0.930 . S
H1194 C1227 0.930 . S
H1195 C1225 0.929 . S
H1196 C1228 0.928 . S
O1197 Co1181 2.057 . S
O1197 C1185 1.232 . S
H1198 C1217 0.929 . S
H1199 C1218 0.929 . S
H1200 C1230 0.931 . S
H1201 C1222 0.929 . S
H1202 C1231 0.930 . S
H1203 C1223 0.931 . S
O1204 Co1180 2.097 . S
O1204 C1232 1.214 . S
H1205 C1233 0.929 . S
H1206 C1234 0.929 . S
H1207 C1235 0.930 . S
H1208 C1236 0.929 . S
H1209 C1238 0.930 . S
H1210 C1215 0.930 . S
H1211 C1219 0.930 . S
O1212 Co1181 2.037 . S
O1212 C1232 1.234 . S
C1213 O1187 1.269 . S
C1213 O1188 1.257 . S
C1214 H1189 0.930 . S
C1214 C1217 1.388 . S
C1214 C1219 1.418 . S
C1215 H1210 0.930 . S
C1215 C1218 1.404 . S
C1215 C1219 1.353 . S
N1216 Co1181 2.145 . S
N1216 C1217 1.397 . S
N1216 C1218 1.334 . S
C1217 H1198 0.929 . S
C1217 C1214 1.388 . S
C1217 N1216 1.397 . S
C1218 H1199 0.929 . S
C1218 C1215 1.404 . S
C1218 N1216 1.334 . S
C1219 H1211 0.930 . S
C1219 C1214 1.418 . S
C1219 C1215 1.353 . S
C1220 H1190 0.930 . S
C1220 N1221 1.330 . S
C1220 C1222 1.446 . S
N1221 Co1180 2.151 . S
N1221 C1220 1.330 . S
N1221 C1225 1.418 . S
C1222 H1201 0.929 . S
C1222 C1220 1.446 . S
C1222 C1223 1.332 . S
C1223 H1203 0.931 . S
C1223 C1222 1.332 . S
C1223 C1224 1.267 . S
C1224 H1192 0.929 . S
C1224 C1223 1.267 . S
C1224 C1225 1.251 . S
C1225 H1195 0.929 . S
C1225 N1221 1.418 . S
C1225 C1224 1.251 . S
C1226 H1193 0.930 . S
C1226 C1228 1.406 . S
C1226 C1231 1.261 . S
C1227 H1194 0.930 . S
C1227 N1229 1.325 . S
C1227 C1230 1.357 . S
C1228 H1196 0.928 . S
C1228 C1226 1.406 . S
C1228 N1229 1.261 . S
N1229 Co1180 2.214 . S
N1229 C1227 1.325 . S
N1229 C1228 1.261 . S
C1230 H1200 0.931 . S
C1230 C1227 1.357 . S
C1230 C1231 1.312 . S
C1231 H1202 0.930 . S
C1231 C1226 1.261 . S
C1231 C1230 1.312 . S
C1232 O1204 1.214 . S
C1232 O1212 1.234 . S
C1233 H1205 0.929 . S
C1233 C1236 1.391 . S
C1233 C1238 1.391 . S
C1234 H1206 0.929 . S
C1234 C1235 1.390 . S
C1234 N1237 1.391 . S
C1235 H1207 0.930 . S
C1235 C1234 1.390 . S
C1235 C1236 1.392 . S
C1236 H1208 0.929 . S
C1236 C1233 1.391 . S
C1236 C1235 1.392 . S
N1237 Co1181 2.257 . S
N1237 C1234 1.391 . S
N1237 C1238 1.388 . S
C1238 H1209 0.930 . S
C1238 C1233 1.391 . S
C1238 N1237 1.388 . S
Co1239 O1241 2.143 . S
Co1239 O1247 2.074 . S
Co1239 O1250 2.093 . S
Co1239 O1263 2.097 . S
Co1239 N1280 2.151 . S
Co1239 N1288 2.214 . S
Co1240 O1241 2.160 . S
Co1240 O1246 2.058 . S
Co1240 O1256 2.057 . S
Co1240 O1271 2.037 . S
Co1240 N1275 2.145 . S
Co1240 N1296 2.257 . S
O1241 Co1239 2.143 . S
O1241 Co1240 2.160 . S
C1242 O1243 1.278 . S
C1242 O1250 1.224 . S
O1243 C1242 1.278 . S
C1244 O1245 1.245 . S
C1244 O1256 1.232 . S
O1245 C1244 1.245 . S
O1246 Co1240 2.058 . S
O1246 C1272 1.269 . S
O1247 Co1239 2.074 . S
O1247 C1272 1.257 . S
H1248 C1273 0.930 . S
H1249 C1279 0.930 . S
O1250 Co1239 2.093 . S
O1250 C1242 1.224 . S
H1251 C1283 0.929 . S
H1252 C1285 0.930 . S
H1253 C1286 0.930 . S
H1254 C1284 0.929 . S
H1255 C1287 0.928 . S
O1256 Co1240 2.057 . S
O1256 C1244 1.232 . S
H1257 C1276 0.929 . S
H1258 C1277 0.929 . S
H1259 C1289 0.931 . S
H1260 C1281 0.929 . S
H1261 C1290 0.930 . S
H1262 C1282 0.931 . S
O1263 Co1239 2.097 . S
O1263 C1291 1.214 . S
H1264 C1292 0.929 . S
H1265 C1293 0.929 . S
H1266 C1294 0.930 . S
H1267 C1295 0.929 . S
H1268 C1297 0.930 . S
H1269 C1274 0.930 . S
H1270 C1278 0.930 . S
O1271 Co1240 2.037 . S
O1271 C1291 1.234 . S
C1272 O1246 1.269 . S
C1272 O1247 1.257 . S
C1273 H1248 0.930 . S
C1273 C1276 1.388 . S
C1273 C1278 1.418 . S
C1274 H1269 0.930 . S
C1274 C1277 1.404 . S
C1274 C1278 1.353 . S
N1275 Co1240 2.145 . S
N1275 C1276 1.397 . S
N1275 C1277 1.334 . S
C1276 H1257 0.929 . S
C1276 C1273 1.388 . S
C1276 N1275 1.397 . S
C1277 H1258 0.929 . S
C1277 C1274 1.404 . S
C1277 N1275 1.334 . S
C1278 H1270 0.930 . S
C1278 C1273 1.418 . S
C1278 C1274 1.353 . S
C1279 H1249 0.930 . S
C1279 N1280 1.330 . S
C1279 C1281 1.446 . S
N1280 Co1239 2.151 . S
N1280 C1279 1.330 . S
N1280 C1284 1.418 . S
C1281 H1260 0.929 . S
C1281 C1279 1.446 . S
C1281 C1282 1.332 . S
C1282 H1262 0.931 . S
C1282 C1281 1.332 . S
C1282 C1283 1.267 . S
C1283 H1251 0.929 . S
C1283 C1282 1.267 . S
C1283 C1284 1.251 . S
C1284 H1254 0.929 . S
C1284 N1280 1.418 . S
C1284 C1283 1.251 . S
C1285 H1252 0.930 . S
C1285 C1287 1.406 . S
C1285 C1290 1.261 . S
C1286 H1253 0.930 . S
C1286 N1288 1.325 . S
C1286 C1289 1.357 . S
C1287 H1255 0.928 . S
C1287 C1285 1.406 . S
C1287 N1288 1.261 . S
N1288 Co1239 2.214 . S
N1288 C1286 1.325 . S
N1288 C1287 1.261 . S
C1289 H1259 0.931 . S
C1289 C1286 1.357 . S
C1289 C1290 1.312 . S
C1290 H1261 0.930 . S
C1290 C1285 1.261 . S
C1290 C1289 1.312 . S
C1291 O1263 1.214 . S
C1291 O1271 1.234 . S
C1292 H1264 0.929 . S
C1292 C1295 1.391 . S
C1292 C1297 1.391 . S
C1293 H1265 0.929 . S
C1293 C1294 1.390 . S
C1293 N1296 1.391 . S
C1294 H1266 0.930 . S
C1294 C1293 1.390 . S
C1294 C1295 1.392 . S
C1295 H1267 0.929 . S
C1295 C1292 1.391 . S
C1295 C1294 1.392 . S
N1296 Co1240 2.257 . S
N1296 C1293 1.391 . S
N1296 C1297 1.388 . S
C1297 H1268 0.930 . S
C1297 C1292 1.391 . S
C1297 N1296 1.388 . S
Co1298 O1300 2.143 . S
Co1298 O1306 2.074 . S
Co1298 O1309 2.093 . S
Co1298 O1322 2.097 . S
Co1298 N1339 2.151 . S
Co1298 N1347 2.214 . S
Co1299 O1300 2.160 . S
Co1299 O1305 2.058 . S
Co1299 O1315 2.057 . S
Co1299 O1330 2.037 . S
Co1299 N1334 2.145 . S
Co1299 N1355 2.257 . S
O1300 Co1298 2.143 . S
O1300 Co1299 2.160 . S
C1301 O1302 1.278 . S
C1301 O1309 1.224 . S
O1302 C1301 1.278 . S
C1303 O1304 1.245 . S
C1303 O1315 1.232 . S
O1304 C1303 1.245 . S
O1305 Co1299 2.058 . S
O1305 C1331 1.269 . S
O1306 Co1298 2.074 . S
O1306 C1331 1.257 . S
H1307 C1332 0.930 . S
H1308 C1338 0.930 . S
O1309 Co1298 2.093 . S
O1309 C1301 1.224 . S
H1310 C1342 0.929 . S
H1311 C1344 0.930 . S
H1312 C1345 0.930 . S
H1313 C1343 0.929 . S
H1314 C1346 0.928 . S
O1315 Co1299 2.057 . S
O1315 C1303 1.232 . S
H1316 C1335 0.929 . S
H1317 C1336 0.929 . S
H1318 C1348 0.931 . S
H1319 C1340 0.929 . S
H1320 C1349 0.930 . S
H1321 C1341 0.931 . S
O1322 Co1298 2.097 . S
O1322 C1350 1.214 . S
H1323 C1351 0.929 . S
H1324 C1352 0.929 . S
H1325 C1353 0.930 . S
H1326 C1354 0.929 . S
H1327 C1356 0.930 . S
H1328 C1333 0.930 . S
H1329 C1337 0.930 . S
O1330 Co1299 2.037 . S
O1330 C1350 1.234 . S
C1331 O1305 1.269 . S
C1331 O1306 1.257 . S
C1332 H1307 0.930 . S
C1332 C1335 1.388 . S
C1332 C1337 1.418 . S
C1333 H1328 0.930 . S
C1333 C1336 1.404 . S
C1333 C1337 1.353 . S
N1334 Co1299 2.145 . S
N1334 C1335 1.397 . S
N1334 C1336 1.334 . S
C1335 H1316 0.929 . S
C1335 C1332 1.388 . S
C1335 N1334 1.397 . S
C1336 H1317 0.929 . S
C1336 C1333 1.404 . S
C1336 N1334 1.334 . S
C1337 H1329 0.930 . S
C1337 C1332 1.418 . S
C1337 C1333 1.353 . S
C1338 H1308 0.930 . S
C1338 N1339 1.330 . S
C1338 C1340 1.446 . S
N1339 Co1298 2.151 . S
N1339 C1338 1.330 . S
N1339 C1343 1.418 . S
C1340 H1319 0.929 . S
C1340 C1338 1.446 . S
C1340 C1341 1.332 . S
C1341 H1321 0.931 . S
C1341 C1340 1.332 . S
C1341 C1342 1.267 . S
C1342 H1310 0.929 . S
C1342 C1341 1.267 . S
C1342 C1343 1.251 . S
C1343 H1313 0.929 . S
C1343 N1339 1.418 . S
C1343 C1342 1.251 . S
C1344 H1311 0.930 . S
C1344 C1346 1.406 . S
C1344 C1349 1.261 . S
C1345 H1312 0.930 . S
C1345 N1347 1.325 . S
C1345 C1348 1.357 . S
C1346 H1314 0.928 . S
C1346 C1344 1.406 . S
C1346 N1347 1.261 . S
N1347 Co1298 2.214 . S
N1347 C1345 1.325 . S
N1347 C1346 1.261 . S
C1348 H1318 0.931 . S
C1348 C1345 1.357 . S
C1348 C1349 1.312 . S
C1349 H1320 0.930 . S
C1349 C1344 1.261 . S
C1349 C1348 1.312 . S
C1350 O1322 1.214 . S
C1350 O1330 1.234 . S
C1351 H1323 0.929 . S
C1351 C1354 1.391 . S
C1351 C1356 1.391 . S
C1352 H1324 0.929 . S
C1352 C1353 1.390 . S
C1352 N1355 1.391 . S
C1353 H1325 0.930 . S
C1353 C1352 1.390 . S
C1353 C1354 1.392 . S
C1354 H1326 0.929 . S
C1354 C1351 1.391 . S
C1354 C1353 1.392 . S
N1355 Co1299 2.257 . S
N1355 C1352 1.391 . S
N1355 C1356 1.388 . S
C1356 H1327 0.930 . S
C1356 C1351 1.391 . S
C1356 N1355 1.388 . S
Co1357 O1359 2.143 . S
Co1357 O1365 2.074 . S
Co1357 O1368 2.093 . S
Co1357 O1381 2.097 . S
Co1357 N1398 2.151 . S
Co1357 N1406 2.214 . S
Co1358 O1359 2.160 . S
Co1358 O1364 2.058 . S
Co1358 O1374 2.057 . S
Co1358 O1389 2.037 . S
Co1358 N1393 2.145 . S
Co1358 N1414 2.257 . S
O1359 Co1357 2.143 . S
O1359 Co1358 2.160 . S
C1360 O1361 1.278 . S
C1360 O1368 1.224 . S
O1361 C1360 1.278 . S
C1362 O1363 1.245 . S
C1362 O1374 1.232 . S
O1363 C1362 1.245 . S
O1364 Co1358 2.058 . S
O1364 C1390 1.269 . S
O1365 Co1357 2.074 . S
O1365 C1390 1.257 . S
H1366 C1391 0.930 . S
H1367 C1397 0.930 . S
O1368 Co1357 2.093 . S
O1368 C1360 1.224 . S
H1369 C1401 0.929 . S
H1370 C1403 0.930 . S
H1371 C1404 0.930 . S
H1372 C1402 0.929 . S
H1373 C1405 0.928 . S
O1374 Co1358 2.057 . S
O1374 C1362 1.232 . S
H1375 C1394 0.929 . S
H1376 C1395 0.929 . S
H1377 C1407 0.931 . S
H1378 C1399 0.929 . S
H1379 C1408 0.930 . S
H1380 C1400 0.931 . S
O1381 Co1357 2.097 . S
O1381 C1409 1.214 . S
H1382 C1410 0.929 . S
H1383 C1411 0.929 . S
H1384 C1412 0.930 . S
H1385 C1413 0.929 . S
H1386 C1415 0.930 . S
H1387 C1392 0.930 . S
H1388 C1396 0.930 . S
O1389 Co1358 2.037 . S
O1389 C1409 1.234 . S
C1390 O1364 1.269 . S
C1390 O1365 1.257 . S
C1391 H1366 0.930 . S
C1391 C1394 1.388 . S
C1391 C1396 1.418 . S
C1392 H1387 0.930 . S
C1392 C1395 1.404 . S
C1392 C1396 1.353 . S
N1393 Co1358 2.145 . S
N1393 C1394 1.397 . S
N1393 C1395 1.334 . S
C1394 H1375 0.929 . S
C1394 C1391 1.388 . S
C1394 N1393 1.397 . S
C1395 H1376 0.929 . S
C1395 C1392 1.404 . S
C1395 N1393 1.334 . S
C1396 H1388 0.930 . S
C1396 C1391 1.418 . S
C1396 C1392 1.353 . S
C1397 H1367 0.930 . S
C1397 N1398 1.330 . S
C1397 C1399 1.446 . S
N1398 Co1357 2.151 . S
N1398 C1397 1.330 . S
N1398 C1402 1.418 . S
C1399 H1378 0.929 . S
C1399 C1397 1.446 . S
C1399 C1400 1.332 . S
C1400 H1380 0.931 . S
C1400 C1399 1.332 . S
C1400 C1401 1.267 . S
C1401 H1369 0.929 . S
C1401 C1400 1.267 . S
C1401 C1402 1.251 . S
C1402 H1372 0.929 . S
C1402 N1398 1.418 . S
C1402 C1401 1.251 . S
C1403 H1370 0.930 . S
C1403 C1405 1.406 . S
C1403 C1408 1.261 . S
C1404 H1371 0.930 . S
C1404 N1406 1.325 . S
C1404 C1407 1.357 . S
C1405 H1373 0.928 . S
C1405 C1403 1.406 . S
C1405 N1406 1.261 . S
N1406 Co1357 2.214 . S
N1406 C1404 1.325 . S
N1406 C1405 1.261 . S
C1407 H1377 0.931 . S
C1407 C1404 1.357 . S
C1407 C1408 1.312 . S
C1408 H1379 0.930 . S
C1408 C1403 1.261 . S
C1408 C1407 1.312 . S
C1409 O1381 1.214 . S
C1409 O1389 1.234 . S
C1410 H1382 0.929 . S
C1410 C1413 1.391 . S
C1410 C1415 1.391 . S
C1411 H1383 0.929 . S
C1411 C1412 1.390 . S
C1411 N1414 1.391 . S
C1412 H1384 0.930 . S
C1412 C1411 1.390 . S
C1412 C1413 1.392 . S
C1413 H1385 0.929 . S
C1413 C1410 1.391 . S
C1413 C1412 1.392 . S
N1414 Co1358 2.257 . S
N1414 C1411 1.391 . S
N1414 C1415 1.388 . S
C1415 H1386 0.930 . S
C1415 C1410 1.391 . S
C1415 N1414 1.388 . S
Co1416 O1418 2.143 . S
Co1416 O1424 2.074 . S
Co1416 O1427 2.093 . S
Co1416 O1440 2.097 . S
Co1416 N1457 2.151 . S
Co1416 N1465 2.214 . S
Co1417 O1418 2.160 . S
Co1417 O1423 2.058 . S
Co1417 O1433 2.057 . S
Co1417 O1448 2.037 . S
Co1417 N1452 2.145 . S
Co1417 N1473 2.257 . S
O1418 Co1416 2.143 . S
O1418 Co1417 2.160 . S
C1419 O1420 1.278 . S
C1419 O1427 1.224 . S
O1420 C1419 1.278 . S
C1421 O1422 1.245 . S
C1421 O1433 1.232 . S
O1422 C1421 1.245 . S
O1423 Co1417 2.058 . S
O1423 C1449 1.269 . S
O1424 Co1416 2.074 . S
O1424 C1449 1.257 . S
H1425 C1450 0.930 . S
H1426 C1456 0.930 . S
O1427 Co1416 2.093 . S
O1427 C1419 1.224 . S
H1428 C1460 0.929 . S
H1429 C1462 0.930 . S
H1430 C1463 0.930 . S
H1431 C1461 0.929 . S
H1432 C1464 0.928 . S
O1433 Co1417 2.057 . S
O1433 C1421 1.232 . S
H1434 C1453 0.929 . S
H1435 C1454 0.929 . S
H1436 C1466 0.931 . S
H1437 C1458 0.929 . S
H1438 C1467 0.930 . S
H1439 C1459 0.931 . S
O1440 Co1416 2.097 . S
O1440 C1468 1.214 . S
H1441 C1469 0.929 . S
H1442 C1470 0.929 . S
H1443 C1471 0.930 . S
H1444 C1472 0.929 . S
H1445 C1474 0.930 . S
H1446 C1451 0.930 . S
H1447 C1455 0.930 . S
O1448 Co1417 2.037 . S
O1448 C1468 1.234 . S
C1449 O1423 1.269 . S
C1449 O1424 1.257 . S
C1450 H1425 0.930 . S
C1450 C1453 1.388 . S
C1450 C1455 1.418 . S
C1451 H1446 0.930 . S
C1451 C1454 1.404 . S
C1451 C1455 1.353 . S
N1452 Co1417 2.145 . S
N1452 C1453 1.397 . S
N1452 C1454 1.334 . S
C1453 H1434 0.929 . S
C1453 C1450 1.388 . S
C1453 N1452 1.397 . S
C1454 H1435 0.929 . S
C1454 C1451 1.404 . S
C1454 N1452 1.334 . S
C1455 H1447 0.930 . S
C1455 C1450 1.418 . S
C1455 C1451 1.353 . S
C1456 H1426 0.930 . S
C1456 N1457 1.330 . S
C1456 C1458 1.446 . S
N1457 Co1416 2.151 . S
N1457 C1456 1.330 . S
N1457 C1461 1.418 . S
C1458 H1437 0.929 . S
C1458 C1456 1.446 . S
C1458 C1459 1.332 . S
C1459 H1439 0.931 . S
C1459 C1458 1.332 . S
C1459 C1460 1.267 . S
C1460 H1428 0.929 . S
C1460 C1459 1.267 . S
C1460 C1461 1.251 . S
C1461 H1431 0.929 . S
C1461 N1457 1.418 . S
C1461 C1460 1.251 . S
C1462 H1429 0.930 . S
C1462 C1464 1.406 . S
C1462 C1467 1.261 . S
C1463 H1430 0.930 . S
C1463 N1465 1.325 . S
C1463 C1466 1.357 . S
C1464 H1432 0.928 . S
C1464 C1462 1.406 . S
C1464 N1465 1.261 . S
N1465 Co1416 2.214 . S
N1465 C1463 1.325 . S
N1465 C1464 1.261 . S
C1466 H1436 0.931 . S
C1466 C1463 1.357 . S
C1466 C1467 1.312 . S
C1467 H1438 0.930 . S
C1467 C1462 1.261 . S
C1467 C1466 1.312 . S
C1468 O1440 1.214 . S
C1468 O1448 1.234 . S
C1469 H1441 0.929 . S
C1469 C1472 1.391 . S
C1469 C1474 1.391 . S
C1470 H1442 0.929 . S
C1470 C1471 1.390 . S
C1470 N1473 1.391 . S
C1471 H1443 0.930 . S
C1471 C1470 1.390 . S
C1471 C1472 1.392 . S
C1472 H1444 0.929 . S
C1472 C1469 1.391 . S
C1472 C1471 1.392 . S
N1473 Co1417 2.257 . S
N1473 C1470 1.391 . S
N1473 C1474 1.388 . S
C1474 H1445 0.930 . S
C1474 C1469 1.391 . S
C1474 N1473 1.388 . S
Co1475 O1477 2.143 . S
Co1475 O1483 2.074 . S
Co1475 O1486 2.093 . S
Co1475 O1499 2.097 . S
Co1475 N1516 2.151 . S
Co1475 N1524 2.214 . S
Co1476 O1477 2.160 . S
Co1476 O1482 2.058 . S
Co1476 O1492 2.057 . S
Co1476 O1507 2.037 . S
Co1476 N1511 2.145 . S
Co1476 N1532 2.257 . S
O1477 Co1475 2.143 . S
O1477 Co1476 2.160 . S
C1478 O1479 1.278 . S
C1478 O1486 1.224 . S
O1479 C1478 1.278 . S
C1480 O1481 1.245 . S
C1480 O1492 1.232 . S
O1481 C1480 1.245 . S
O1482 Co1476 2.058 . S
O1482 C1508 1.269 . S
O1483 Co1475 2.074 . S
O1483 C1508 1.257 . S
H1484 C1509 0.930 . S
H1485 C1515 0.930 . S
O1486 Co1475 2.093 . S
O1486 C1478 1.224 . S
H1487 C1519 0.929 . S
H1488 C1521 0.930 . S
H1489 C1522 0.930 . S
H1490 C1520 0.929 . S
H1491 C1523 0.928 . S
O1492 Co1476 2.057 . S
O1492 C1480 1.232 . S
H1493 C1512 0.929 . S
H1494 C1513 0.929 . S
H1495 C1525 0.931 . S
H1496 C1517 0.929 . S
H1497 C1526 0.930 . S
H1498 C1518 0.931 . S
O1499 Co1475 2.097 . S
O1499 C1527 1.214 . S
H1500 C1528 0.929 . S
H1501 C1529 0.929 . S
H1502 C1530 0.930 . S
H1503 C1531 0.929 . S
H1504 C1533 0.930 . S
H1505 C1510 0.930 . S
H1506 C1514 0.930 . S
O1507 Co1476 2.037 . S
O1507 C1527 1.234 . S
C1508 O1482 1.269 . S
C1508 O1483 1.257 . S
C1509 H1484 0.930 . S
C1509 C1512 1.388 . S
C1509 C1514 1.418 . S
C1510 H1505 0.930 . S
C1510 C1513 1.404 . S
C1510 C1514 1.353 . S
N1511 Co1476 2.145 . S
N1511 C1512 1.397 . S
N1511 C1513 1.334 . S
C1512 H1493 0.929 . S
C1512 C1509 1.388 . S
C1512 N1511 1.397 . S
C1513 H1494 0.929 . S
C1513 C1510 1.404 . S
C1513 N1511 1.334 . S
C1514 H1506 0.930 . S
C1514 C1509 1.418 . S
C1514 C1510 1.353 . S
C1515 H1485 0.930 . S
C1515 N1516 1.330 . S
C1515 C1517 1.446 . S
N1516 Co1475 2.151 . S
N1516 C1515 1.330 . S
N1516 C1520 1.418 . S
C1517 H1496 0.929 . S
C1517 C1515 1.446 . S
C1517 C1518 1.332 . S
C1518 H1498 0.931 . S
C1518 C1517 1.332 . S
C1518 C1519 1.267 . S
C1519 H1487 0.929 . S
C1519 C1518 1.267 . S
C1519 C1520 1.251 . S
C1520 H1490 0.929 . S
C1520 N1516 1.418 . S
C1520 C1519 1.251 . S
C1521 H1488 0.930 . S
C1521 C1523 1.406 . S
C1521 C1526 1.261 . S
C1522 H1489 0.930 . S
C1522 N1524 1.325 . S
C1522 C1525 1.357 . S
C1523 H1491 0.928 . S
C1523 C1521 1.406 . S
C1523 N1524 1.261 . S
N1524 Co1475 2.214 . S
N1524 C1522 1.325 . S
N1524 C1523 1.261 . S
C1525 H1495 0.931 . S
C1525 C1522 1.357 . S
C1525 C1526 1.312 . S
C1526 H1497 0.930 . S
C1526 C1521 1.261 . S
C1526 C1525 1.312 . S
C1527 O1499 1.214 . S
C1527 O1507 1.234 . S
C1528 H1500 0.929 . S
C1528 C1531 1.391 . S
C1528 C1533 1.391 . S
C1529 H1501 0.929 . S
C1529 C1530 1.390 . S
C1529 N1532 1.391 . S
C1530 H1502 0.930 . S
C1530 C1529 1.390 . S
C1530 C1531 1.392 . S
C1531 H1503 0.929 . S
C1531 C1528 1.391 . S
C1531 C1530 1.392 . S
N1532 Co1476 2.257 . S
N1532 C1529 1.391 . S
N1532 C1533 1.388 . S
C1533 H1504 0.930 . S
C1533 C1528 1.391 . S
C1533 N1532 1.388 . S
Co1534 O1536 2.143 . S
Co1534 O1542 2.074 . S
Co1534 O1545 2.093 . S
Co1534 O1558 2.097 . S
Co1534 N1575 2.151 . S
Co1534 N1583 2.214 . S
Co1535 O1536 2.160 . S
Co1535 O1541 2.058 . S
Co1535 O1551 2.057 . S
Co1535 O1566 2.037 . S
Co1535 N1570 2.145 . S
Co1535 N1591 2.257 . S
O1536 Co1534 2.143 . S
O1536 Co1535 2.160 . S
C1537 O1538 1.278 . S
C1537 O1545 1.224 . S
O1538 C1537 1.278 . S
C1539 O1540 1.245 . S
C1539 O1551 1.232 . S
O1540 C1539 1.245 . S
O1541 Co1535 2.058 . S
O1541 C1567 1.269 . S
O1542 Co1534 2.074 . S
O1542 C1567 1.257 . S
H1543 C1568 0.930 . S
H1544 C1574 0.930 . S
O1545 Co1534 2.093 . S
O1545 C1537 1.224 . S
H1546 C1578 0.929 . S
H1547 C1580 0.930 . S
H1548 C1581 0.930 . S
H1549 C1579 0.929 . S
H1550 C1582 0.928 . S
O1551 Co1535 2.057 . S
O1551 C1539 1.232 . S
H1552 C1571 0.929 . S
H1553 C1572 0.929 . S
H1554 C1584 0.931 . S
H1555 C1576 0.929 . S
H1556 C1585 0.930 . S
H1557 C1577 0.931 . S
O1558 Co1534 2.097 . S
O1558 C1586 1.214 . S
H1559 C1587 0.929 . S
H1560 C1588 0.929 . S
H1561 C1589 0.930 . S
H1562 C1590 0.929 . S
H1563 C1592 0.930 . S
H1564 C1569 0.930 . S
H1565 C1573 0.930 . S
O1566 Co1535 2.037 . S
O1566 C1586 1.234 . S
C1567 O1541 1.269 . S
C1567 O1542 1.257 . S
C1568 H1543 0.930 . S
C1568 C1571 1.388 . S
C1568 C1573 1.418 . S
C1569 H1564 0.930 . S
C1569 C1572 1.404 . S
C1569 C1573 1.353 . S
N1570 Co1535 2.145 . S
N1570 C1571 1.397 . S
N1570 C1572 1.334 . S
C1571 H1552 0.929 . S
C1571 C1568 1.388 . S
C1571 N1570 1.397 . S
C1572 H1553 0.929 . S
C1572 C1569 1.404 . S
C1572 N1570 1.334 . S
C1573 H1565 0.930 . S
C1573 C1568 1.418 . S
C1573 C1569 1.353 . S
C1574 H1544 0.930 . S
C1574 N1575 1.330 . S
C1574 C1576 1.446 . S
N1575 Co1534 2.151 . S
N1575 C1574 1.330 . S
N1575 C1579 1.418 . S
C1576 H1555 0.929 . S
C1576 C1574 1.446 . S
C1576 C1577 1.332 . S
C1577 H1557 0.931 . S
C1577 C1576 1.332 . S
C1577 C1578 1.267 . S
C1578 H1546 0.929 . S
C1578 C1577 1.267 . S
C1578 C1579 1.251 . S
C1579 H1549 0.929 . S
C1579 N1575 1.418 . S
C1579 C1578 1.251 . S
C1580 H1547 0.930 . S
C1580 C1582 1.406 . S
C1580 C1585 1.261 . S
C1581 H1548 0.930 . S
C1581 N1583 1.325 . S
C1581 C1584 1.357 . S
C1582 H1550 0.928 . S
C1582 C1580 1.406 . S
C1582 N1583 1.261 . S
N1583 Co1534 2.214 . S
N1583 C1581 1.325 . S
N1583 C1582 1.261 . S
C1584 H1554 0.931 . S
C1584 C1581 1.357 . S
C1584 C1585 1.312 . S
C1585 H1556 0.930 . S
C1585 C1580 1.261 . S
C1585 C1584 1.312 . S
C1586 O1558 1.214 . S
C1586 O1566 1.234 . S
C1587 H1559 0.929 . S
C1587 C1590 1.391 . S
C1587 C1592 1.391 . S
C1588 H1560 0.929 . S
C1588 C1589 1.390 . S
C1588 N1591 1.391 . S
C1589 H1561 0.930 . S
C1589 C1588 1.390 . S
C1589 C1590 1.392 . S
C1590 H1562 0.929 . S
C1590 C1587 1.391 . S
C1590 C1589 1.392 . S
N1591 Co1535 2.257 . S
N1591 C1588 1.391 . S
N1591 C1592 1.388 . S
C1592 H1563 0.930 . S
C1592 C1587 1.391 . S
C1592 N1591 1.388 . S
Co1593 O1595 2.143 . S
Co1593 O1601 2.074 . S
Co1593 O1604 2.093 . S
Co1593 O1617 2.097 . S
Co1593 N1634 2.151 . S
Co1593 N1642 2.214 . S
Co1594 O1595 2.160 . S
Co1594 O1600 2.058 . S
Co1594 O1610 2.057 . S
Co1594 O1625 2.037 . S
Co1594 N1629 2.145 . S
Co1594 N1650 2.257 . S
O1595 Co1593 2.143 . S
O1595 Co1594 2.160 . S
C1596 O1597 1.278 . S
C1596 O1604 1.224 . S
O1597 C1596 1.278 . S
C1598 O1599 1.245 . S
C1598 O1610 1.232 . S
O1599 C1598 1.245 . S
O1600 Co1594 2.058 . S
O1600 C1626 1.269 . S
O1601 Co1593 2.074 . S
O1601 C1626 1.257 . S
H1602 C1627 0.930 . S
H1603 C1633 0.930 . S
O1604 Co1593 2.093 . S
O1604 C1596 1.224 . S
H1605 C1637 0.929 . S
H1606 C1639 0.930 . S
H1607 C1640 0.930 . S
H1608 C1638 0.929 . S
H1609 C1641 0.928 . S
O1610 Co1594 2.057 . S
O1610 C1598 1.232 . S
H1611 C1630 0.929 . S
H1612 C1631 0.929 . S
H1613 C1643 0.931 . S
H1614 C1635 0.929 . S
H1615 C1644 0.930 . S
H1616 C1636 0.931 . S
O1617 Co1593 2.097 . S
O1617 C1645 1.214 . S
H1618 C1646 0.929 . S
H1619 C1647 0.929 . S
H1620 C1648 0.930 . S
H1621 C1649 0.929 . S
H1622 C1651 0.930 . S
H1623 C1628 0.930 . S
H1624 C1632 0.930 . S
O1625 Co1594 2.037 . S
O1625 C1645 1.234 . S
C1626 O1600 1.269 . S
C1626 O1601 1.257 . S
C1627 H1602 0.930 . S
C1627 C1630 1.388 . S
C1627 C1632 1.418 . S
C1628 H1623 0.930 . S
C1628 C1631 1.404 . S
C1628 C1632 1.353 . S
N1629 Co1594 2.145 . S
N1629 C1630 1.397 . S
N1629 C1631 1.334 . S
C1630 H1611 0.929 . S
C1630 C1627 1.388 . S
C1630 N1629 1.397 . S
C1631 H1612 0.929 . S
C1631 C1628 1.404 . S
C1631 N1629 1.334 . S
C1632 H1624 0.930 . S
C1632 C1627 1.418 . S
C1632 C1628 1.353 . S
C1633 H1603 0.930 . S
C1633 N1634 1.330 . S
C1633 C1635 1.446 . S
N1634 Co1593 2.151 . S
N1634 C1633 1.330 . S
N1634 C1638 1.418 . S
C1635 H1614 0.929 . S
C1635 C1633 1.446 . S
C1635 C1636 1.332 . S
C1636 H1616 0.931 . S
C1636 C1635 1.332 . S
C1636 C1637 1.267 . S
C1637 H1605 0.929 . S
C1637 C1636 1.267 . S
C1637 C1638 1.251 . S
C1638 H1608 0.929 . S
C1638 N1634 1.418 . S
C1638 C1637 1.251 . S
C1639 H1606 0.930 . S
C1639 C1641 1.406 . S
C1639 C1644 1.261 . S
C1640 H1607 0.930 . S
C1640 N1642 1.325 . S
C1640 C1643 1.357 . S
C1641 H1609 0.928 . S
C1641 C1639 1.406 . S
C1641 N1642 1.261 . S
N1642 Co1593 2.214 . S
N1642 C1640 1.325 . S
N1642 C1641 1.261 . S
C1643 H1613 0.931 . S
C1643 C1640 1.357 . S
C1643 C1644 1.312 . S
C1644 H1615 0.930 . S
C1644 C1639 1.261 . S
C1644 C1643 1.312 . S
C1645 O1617 1.214 . S
C1645 O1625 1.234 . S
C1646 H1618 0.929 . S
C1646 C1649 1.391 . S
C1646 C1651 1.391 . S
C1647 H1619 0.929 . S
C1647 C1648 1.390 . S
C1647 N1650 1.391 . S
C1648 H1620 0.930 . S
C1648 C1647 1.390 . S
C1648 C1649 1.392 . S
C1649 H1621 0.929 . S
C1649 C1646 1.391 . S
C1649 C1648 1.392 . S
N1650 Co1594 2.257 . S
N1650 C1647 1.391 . S
N1650 C1651 1.388 . S
C1651 H1622 0.930 . S
C1651 C1646 1.391 . S
C1651 N1650 1.388 . S
Co1652 O1654 2.143 . S
Co1652 O1660 2.074 . S
Co1652 O1663 2.093 . S
Co1652 O1676 2.097 . S
Co1652 N1693 2.151 . S
Co1652 N1701 2.214 . S
Co1653 O1654 2.160 . S
Co1653 O1659 2.058 . S
Co1653 O1669 2.057 . S
Co1653 O1684 2.037 . S
Co1653 N1688 2.145 . S
Co1653 N1709 2.257 . S
O1654 Co1652 2.143 . S
O1654 Co1653 2.160 . S
C1655 O1656 1.278 . S
C1655 O1663 1.224 . S
O1656 C1655 1.278 . S
C1657 O1658 1.245 . S
C1657 O1669 1.232 . S
O1658 C1657 1.245 . S
O1659 Co1653 2.058 . S
O1659 C1685 1.269 . S
O1660 Co1652 2.074 . S
O1660 C1685 1.257 . S
H1661 C1686 0.930 . S
H1662 C1692 0.930 . S
O1663 Co1652 2.093 . S
O1663 C1655 1.224 . S
H1664 C1696 0.929 . S
H1665 C1698 0.930 . S
H1666 C1699 0.930 . S
H1667 C1697 0.929 . S
H1668 C1700 0.928 . S
O1669 Co1653 2.057 . S
O1669 C1657 1.232 . S
H1670 C1689 0.929 . S
H1671 C1690 0.929 . S
H1672 C1702 0.931 . S
H1673 C1694 0.929 . S
H1674 C1703 0.930 . S
H1675 C1695 0.931 . S
O1676 Co1652 2.097 . S
O1676 C1704 1.214 . S
H1677 C1705 0.929 . S
H1678 C1706 0.929 . S
H1679 C1707 0.930 . S
H1680 C1708 0.929 . S
H1681 C1710 0.930 . S
H1682 C1687 0.930 . S
H1683 C1691 0.930 . S
O1684 Co1653 2.037 . S
O1684 C1704 1.234 . S
C1685 O1659 1.269 . S
C1685 O1660 1.257 . S
C1686 H1661 0.930 . S
C1686 C1689 1.388 . S
C1686 C1691 1.418 . S
C1687 H1682 0.930 . S
C1687 C1690 1.404 . S
C1687 C1691 1.353 . S
N1688 Co1653 2.145 . S
N1688 C1689 1.397 . S
N1688 C1690 1.334 . S
C1689 H1670 0.929 . S
C1689 C1686 1.388 . S
C1689 N1688 1.397 . S
C1690 H1671 0.929 . S
C1690 C1687 1.404 . S
C1690 N1688 1.334 . S
C1691 H1683 0.930 . S
C1691 C1686 1.418 . S
C1691 C1687 1.353 . S
C1692 H1662 0.930 . S
C1692 N1693 1.330 . S
C1692 C1694 1.446 . S
N1693 Co1652 2.151 . S
N1693 C1692 1.330 . S
N1693 C1697 1.418 . S
C1694 H1673 0.929 . S
C1694 C1692 1.446 . S
C1694 C1695 1.332 . S
C1695 H1675 0.931 . S
C1695 C1694 1.332 . S
C1695 C1696 1.267 . S
C1696 H1664 0.929 . S
C1696 C1695 1.267 . S
C1696 C1697 1.251 . S
C1697 H1667 0.929 . S
C1697 N1693 1.418 . S
C1697 C1696 1.251 . S
C1698 H1665 0.930 . S
C1698 C1700 1.406 . S
C1698 C1703 1.261 . S
C1699 H1666 0.930 . S
C1699 N1701 1.325 . S
C1699 C1702 1.357 . S
C1700 H1668 0.928 . S
C1700 C1698 1.406 . S
C1700 N1701 1.261 . S
N1701 Co1652 2.214 . S
N1701 C1699 1.325 . S
N1701 C1700 1.261 . S
C1702 H1672 0.931 . S
C1702 C1699 1.357 . S
C1702 C1703 1.312 . S
C1703 H1674 0.930 . S
C1703 C1698 1.261 . S
C1703 C1702 1.312 . S
C1704 O1676 1.214 . S
C1704 O1684 1.234 . S
C1705 H1677 0.929 . S
C1705 C1708 1.391 . S
C1705 C1710 1.391 . S
C1706 H1678 0.929 . S
C1706 C1707 1.390 . S
C1706 N1709 1.391 . S
C1707 H1679 0.930 . S
C1707 C1706 1.390 . S
C1707 C1708 1.392 . S
C1708 H1680 0.929 . S
C1708 C1705 1.391 . S
C1708 C1707 1.392 . S
N1709 Co1653 2.257 . S
N1709 C1706 1.391 . S
N1709 C1710 1.388 . S
C1710 H1681 0.930 . S
C1710 C1705 1.391 . S
C1710 N1709 1.388 . S
Co1711 O1713 2.143 . S
Co1711 O1719 2.074 . S
Co1711 O1722 2.093 . S
Co1711 O1735 2.097 . S
Co1711 N1752 2.151 . S
Co1711 N1760 2.214 . S
Co1712 O1713 2.160 . S
Co1712 O1718 2.058 . S
Co1712 O1728 2.057 . S
Co1712 O1743 2.037 . S
Co1712 N1747 2.145 . S
Co1712 N1768 2.257 . S
O1713 Co1711 2.143 . S
O1713 Co1712 2.160 . S
C1714 O1715 1.278 . S
C1714 O1722 1.224 . S
O1715 C1714 1.278 . S
C1716 O1717 1.245 . S
C1716 O1728 1.232 . S
O1717 C1716 1.245 . S
O1718 Co1712 2.058 . S
O1718 C1744 1.269 . S
O1719 Co1711 2.074 . S
O1719 C1744 1.257 . S
H1720 C1745 0.930 . S
H1721 C1751 0.930 . S
O1722 Co1711 2.093 . S
O1722 C1714 1.224 . S
H1723 C1755 0.929 . S
H1724 C1757 0.930 . S
H1725 C1758 0.930 . S
H1726 C1756 0.929 . S
H1727 C1759 0.928 . S
O1728 Co1712 2.057 . S
O1728 C1716 1.232 . S
H1729 C1748 0.929 . S
H1730 C1749 0.929 . S
H1731 C1761 0.931 . S
H1732 C1753 0.929 . S
H1733 C1762 0.930 . S
H1734 C1754 0.931 . S
O1735 Co1711 2.097 . S
O1735 C1763 1.214 . S
H1736 C1764 0.929 . S
H1737 C1765 0.929 . S
H1738 C1766 0.930 . S
H1739 C1767 0.929 . S
H1740 C1769 0.930 . S
H1741 C1746 0.930 . S
H1742 C1750 0.930 . S
O1743 Co1712 2.037 . S
O1743 C1763 1.234 . S
C1744 O1718 1.269 . S
C1744 O1719 1.257 . S
C1745 H1720 0.930 . S
C1745 C1748 1.388 . S
C1745 C1750 1.418 . S
C1746 H1741 0.930 . S
C1746 C1749 1.404 . S
C1746 C1750 1.353 . S
N1747 Co1712 2.145 . S
N1747 C1748 1.397 . S
N1747 C1749 1.334 . S
C1748 H1729 0.929 . S
C1748 C1745 1.388 . S
C1748 N1747 1.397 . S
C1749 H1730 0.929 . S
C1749 C1746 1.404 . S
C1749 N1747 1.334 . S
C1750 H1742 0.930 . S
C1750 C1745 1.418 . S
C1750 C1746 1.353 . S
C1751 H1721 0.930 . S
C1751 N1752 1.330 . S
C1751 C1753 1.446 . S
N1752 Co1711 2.151 . S
N1752 C1751 1.330 . S
N1752 C1756 1.418 . S
C1753 H1732 0.929 . S
C1753 C1751 1.446 . S
C1753 C1754 1.332 . S
C1754 H1734 0.931 . S
C1754 C1753 1.332 . S
C1754 C1755 1.267 . S
C1755 H1723 0.929 . S
C1755 C1754 1.267 . S
C1755 C1756 1.251 . S
C1756 H1726 0.929 . S
C1756 N1752 1.418 . S
C1756 C1755 1.251 . S
C1757 H1724 0.930 . S
C1757 C1759 1.406 . S
C1757 C1762 1.261 . S
C1758 H1725 0.930 . S
C1758 N1760 1.325 . S
C1758 C1761 1.357 . S
C1759 H1727 0.928 . S
C1759 C1757 1.406 . S
C1759 N1760 1.261 . S
N1760 Co1711 2.214 . S
N1760 C1758 1.325 . S
N1760 C1759 1.261 . S
C1761 H1731 0.931 . S
C1761 C1758 1.357 . S
C1761 C1762 1.312 . S
C1762 H1733 0.930 . S
C1762 C1757 1.261 . S
C1762 C1761 1.312 . S
C1763 O1735 1.214 . S
C1763 O1743 1.234 . S
C1764 H1736 0.929 . S
C1764 C1767 1.391 . S
C1764 C1769 1.391 . S
C1765 H1737 0.929 . S
C1765 C1766 1.390 . S
C1765 N1768 1.391 . S
C1766 H1738 0.930 . S
C1766 C1765 1.390 . S
C1766 C1767 1.392 . S
C1767 H1739 0.929 . S
C1767 C1764 1.391 . S
C1767 C1766 1.392 . S
N1768 Co1712 2.257 . S
N1768 C1765 1.391 . S
N1768 C1769 1.388 . S
C1769 H1740 0.930 . S
C1769 C1764 1.391 . S
C1769 N1768 1.388 . S
Co1770 O1772 2.143 . S
Co1770 O1778 2.074 . S
Co1770 O1781 2.093 . S
Co1770 O1794 2.097 . S
Co1770 N1811 2.151 . S
Co1770 N1819 2.214 . S
Co1771 O1772 2.160 . S
Co1771 O1777 2.058 . S
Co1771 O1787 2.057 . S
Co1771 O1802 2.037 . S
Co1771 N1806 2.145 . S
Co1771 N1827 2.257 . S
O1772 Co1770 2.143 . S
O1772 Co1771 2.160 . S
C1773 O1774 1.278 . S
C1773 O1781 1.224 . S
O1774 C1773 1.278 . S
C1775 O1776 1.245 . S
C1775 O1787 1.232 . S
O1776 C1775 1.245 . S
O1777 Co1771 2.058 . S
O1777 C1803 1.269 . S
O1778 Co1770 2.074 . S
O1778 C1803 1.257 . S
H1779 C1804 0.930 . S
H1780 C1810 0.930 . S
O1781 Co1770 2.093 . S
O1781 C1773 1.224 . S
H1782 C1814 0.929 . S
H1783 C1816 0.930 . S
H1784 C1817 0.930 . S
H1785 C1815 0.929 . S
H1786 C1818 0.928 . S
O1787 Co1771 2.057 . S
O1787 C1775 1.232 . S
H1788 C1807 0.929 . S
H1789 C1808 0.929 . S
H1790 C1820 0.931 . S
H1791 C1812 0.929 . S
H1792 C1821 0.930 . S
H1793 C1813 0.931 . S
O1794 Co1770 2.097 . S
O1794 C1822 1.214 . S
H1795 C1823 0.929 . S
H1796 C1824 0.929 . S
H1797 C1825 0.930 . S
H1798 C1826 0.929 . S
H1799 C1828 0.930 . S
H1800 C1805 0.930 . S
H1801 C1809 0.930 . S
O1802 Co1771 2.037 . S
O1802 C1822 1.234 . S
C1803 O1777 1.269 . S
C1803 O1778 1.257 . S
C1804 H1779 0.930 . S
C1804 C1807 1.388 . S
C1804 C1809 1.418 . S
C1805 H1800 0.930 . S
C1805 C1808 1.404 . S
C1805 C1809 1.353 . S
N1806 Co1771 2.145 . S
N1806 C1807 1.397 . S
N1806 C1808 1.334 . S
C1807 H1788 0.929 . S
C1807 C1804 1.388 . S
C1807 N1806 1.397 . S
C1808 H1789 0.929 . S
C1808 C1805 1.404 . S
C1808 N1806 1.334 . S
C1809 H1801 0.930 . S
C1809 C1804 1.418 . S
C1809 C1805 1.353 . S
C1810 H1780 0.930 . S
C1810 N1811 1.330 . S
C1810 C1812 1.446 . S
N1811 Co1770 2.151 . S
N1811 C1810 1.330 . S
N1811 C1815 1.418 . S
C1812 H1791 0.929 . S
C1812 C1810 1.446 . S
C1812 C1813 1.332 . S
C1813 H1793 0.931 . S
C1813 C1812 1.332 . S
C1813 C1814 1.267 . S
C1814 H1782 0.929 . S
C1814 C1813 1.267 . S
C1814 C1815 1.251 . S
C1815 H1785 0.929 . S
C1815 N1811 1.418 . S
C1815 C1814 1.251 . S
C1816 H1783 0.930 . S
C1816 C1818 1.406 . S
C1816 C1821 1.261 . S
C1817 H1784 0.930 . S
C1817 N1819 1.325 . S
C1817 C1820 1.357 . S
C1818 H1786 0.928 . S
C1818 C1816 1.406 . S
C1818 N1819 1.261 . S
N1819 Co1770 2.214 . S
N1819 C1817 1.325 . S
N1819 C1818 1.261 . S
C1820 H1790 0.931 . S
C1820 C1817 1.357 . S
C1820 C1821 1.312 . S
C1821 H1792 0.930 . S
C1821 C1816 1.261 . S
C1821 C1820 1.312 . S
C1822 O1794 1.214 . S
C1822 O1802 1.234 . S
C1823 H1795 0.929 . S
C1823 C1826 1.391 . S
C1823 C1828 1.391 . S
C1824 H1796 0.929 . S
C1824 C1825 1.390 . S
C1824 N1827 1.391 . S
C1825 H1797 0.930 . S
C1825 C1824 1.390 . S
C1825 C1826 1.392 . S
C1826 H1798 0.929 . S
C1826 C1823 1.391 . S
C1826 C1825 1.392 . S
N1827 Co1771 2.257 . S
N1827 C1824 1.391 . S
N1827 C1828 1.388 . S
C1828 H1799 0.930 . S
C1828 C1823 1.391 . S
C1828 N1827 1.388 . S
Co1829 O1831 2.143 . S
Co1829 O1837 2.074 . S
Co1829 O1840 2.093 . S
Co1829 O1853 2.097 . S
Co1829 N1870 2.151 . S
Co1829 N1878 2.214 . S
Co1830 O1831 2.160 . S
Co1830 O1836 2.058 . S
Co1830 O1846 2.057 . S
Co1830 O1861 2.037 . S
Co1830 N1865 2.145 . S
Co1830 N1886 2.257 . S
O1831 Co1829 2.143 . S
O1831 Co1830 2.160 . S
C1832 O1833 1.278 . S
C1832 O1840 1.224 . S
O1833 C1832 1.278 . S
C1834 O1835 1.245 . S
C1834 O1846 1.232 . S
O1835 C1834 1.245 . S
O1836 Co1830 2.058 . S
O1836 C1862 1.269 . S
O1837 Co1829 2.074 . S
O1837 C1862 1.257 . S
H1838 C1863 0.930 . S
H1839 C1869 0.930 . S
O1840 Co1829 2.093 . S
O1840 C1832 1.224 . S
H1841 C1873 0.929 . S
H1842 C1875 0.930 . S
H1843 C1876 0.930 . S
H1844 C1874 0.929 . S
H1845 C1877 0.928 . S
O1846 Co1830 2.057 . S
O1846 C1834 1.232 . S
H1847 C1866 0.929 . S
H1848 C1867 0.929 . S
H1849 C1879 0.931 . S
H1850 C1871 0.929 . S
H1851 C1880 0.930 . S
H1852 C1872 0.931 . S
O1853 Co1829 2.097 . S
O1853 C1881 1.214 . S
H1854 C1882 0.929 . S
H1855 C1883 0.929 . S
H1856 C1884 0.930 . S
H1857 C1885 0.929 . S
H1858 C1887 0.930 . S
H1859 C1864 0.930 . S
H1860 C1868 0.930 . S
O1861 Co1830 2.037 . S
O1861 C1881 1.234 . S
C1862 O1836 1.269 . S
C1862 O1837 1.257 . S
C1863 H1838 0.930 . S
C1863 C1866 1.388 . S
C1863 C1868 1.418 . S
C1864 H1859 0.930 . S
C1864 C1867 1.404 . S
C1864 C1868 1.353 . S
N1865 Co1830 2.145 . S
N1865 C1866 1.397 . S
N1865 C1867 1.334 . S
C1866 H1847 0.929 . S
C1866 C1863 1.388 . S
C1866 N1865 1.397 . S
C1867 H1848 0.929 . S
C1867 C1864 1.404 . S
C1867 N1865 1.334 . S
C1868 H1860 0.930 . S
C1868 C1863 1.418 . S
C1868 C1864 1.353 . S
C1869 H1839 0.930 . S
C1869 N1870 1.330 . S
C1869 C1871 1.446 . S
N1870 Co1829 2.151 . S
N1870 C1869 1.330 . S
N1870 C1874 1.418 . S
C1871 H1850 0.929 . S
C1871 C1869 1.446 . S
C1871 C1872 1.332 . S
C1872 H1852 0.931 . S
C1872 C1871 1.332 . S
C1872 C1873 1.267 . S
C1873 H1841 0.929 . S
C1873 C1872 1.267 . S
C1873 C1874 1.251 . S
C1874 H1844 0.929 . S
C1874 N1870 1.418 . S
C1874 C1873 1.251 . S
C1875 H1842 0.930 . S
C1875 C1877 1.406 . S
C1875 C1880 1.261 . S
C1876 H1843 0.930 . S
C1876 N1878 1.325 . S
C1876 C1879 1.357 . S
C1877 H1845 0.928 . S
C1877 C1875 1.406 . S
C1877 N1878 1.261 . S
N1878 Co1829 2.214 . S
N1878 C1876 1.325 . S
N1878 C1877 1.261 . S
C1879 H1849 0.931 . S
C1879 C1876 1.357 . S
C1879 C1880 1.312 . S
C1880 H1851 0.930 . S
C1880 C1875 1.261 . S
C1880 C1879 1.312 . S
C1881 O1853 1.214 . S
C1881 O1861 1.234 . S
C1882 H1854 0.929 . S
C1882 C1885 1.391 . S
C1882 C1887 1.391 . S
C1883 H1855 0.929 . S
C1883 C1884 1.390 . S
C1883 N1886 1.391 . S
C1884 H1856 0.930 . S
C1884 C1883 1.390 . S
C1884 C1885 1.392 . S
C1885 H1857 0.929 . S
C1885 C1882 1.391 . S
C1885 C1884 1.392 . S
N1886 Co1830 2.257 . S
N1886 C1883 1.391 . S
N1886 C1887 1.388 . S
C1887 H1858 0.930 . S
C1887 C1882 1.391 . S
C1887 N1886 1.388 . S
Co1888 O1890 2.143 . S
Co1888 O1896 2.074 . S
Co1888 O1899 2.093 . S
Co1888 O1912 2.097 . S
Co1888 N1929 2.151 . S
Co1888 N1937 2.214 . S
Co1889 O1890 2.160 . S
Co1889 O1895 2.058 . S
Co1889 O1905 2.057 . S
Co1889 O1920 2.037 . S
Co1889 N1924 2.145 . S
Co1889 N1945 2.257 . S
O1890 Co1888 2.143 . S
O1890 Co1889 2.160 . S
C1891 O1892 1.278 . S
C1891 O1899 1.224 . S
O1892 C1891 1.278 . S
C1893 O1894 1.245 . S
C1893 O1905 1.232 . S
O1894 C1893 1.245 . S
O1895 Co1889 2.058 . S
O1895 C1921 1.269 . S
O1896 Co1888 2.074 . S
O1896 C1921 1.257 . S
H1897 C1922 0.930 . S
H1898 C1928 0.930 . S
O1899 Co1888 2.093 . S
O1899 C1891 1.224 . S
H1900 C1932 0.929 . S
H1901 C1934 0.930 . S
H1902 C1935 0.930 . S
H1903 C1933 0.929 . S
H1904 C1936 0.928 . S
O1905 Co1889 2.057 . S
O1905 C1893 1.232 . S
H1906 C1925 0.929 . S
H1907 C1926 0.929 . S
H1908 C1938 0.931 . S
H1909 C1930 0.929 . S
H1910 C1939 0.930 . S
H1911 C1931 0.931 . S
O1912 Co1888 2.097 . S
O1912 C1940 1.214 . S
H1913 C1941 0.929 . S
H1914 C1942 0.929 . S
H1915 C1943 0.930 . S
H1916 C1944 0.929 . S
H1917 C1946 0.930 . S
H1918 C1923 0.930 . S
H1919 C1927 0.930 . S
O1920 Co1889 2.037 . S
O1920 C1940 1.234 . S
C1921 O1895 1.269 . S
C1921 O1896 1.257 . S
C1922 H1897 0.930 . S
C1922 C1925 1.388 . S
C1922 C1927 1.418 . S
C1923 H1918 0.930 . S
C1923 C1926 1.404 . S
C1923 C1927 1.353 . S
N1924 Co1889 2.145 . S
N1924 C1925 1.397 . S
N1924 C1926 1.334 . S
C1925 H1906 0.929 . S
C1925 C1922 1.388 . S
C1925 N1924 1.397 . S
C1926 H1907 0.929 . S
C1926 C1923 1.404 . S
C1926 N1924 1.334 . S
C1927 H1919 0.930 . S
C1927 C1922 1.418 . S
C1927 C1923 1.353 . S
C1928 H1898 0.930 . S
C1928 N1929 1.330 . S
C1928 C1930 1.446 . S
N1929 Co1888 2.151 . S
N1929 C1928 1.330 . S
N1929 C1933 1.418 . S
C1930 H1909 0.929 . S
C1930 C1928 1.446 . S
C1930 C1931 1.332 . S
C1931 H1911 0.931 . S
C1931 C1930 1.332 . S
C1931 C1932 1.267 . S
C1932 H1900 0.929 . S
C1932 C1931 1.267 . S
C1932 C1933 1.251 . S
C1933 H1903 0.929 . S
C1933 N1929 1.418 . S
C1933 C1932 1.251 . S
C1934 H1901 0.930 . S
C1934 C1936 1.406 . S
C1934 C1939 1.261 . S
C1935 H1902 0.930 . S
C1935 N1937 1.325 . S
C1935 C1938 1.357 . S
C1936 H1904 0.928 . S
C1936 C1934 1.406 . S
C1936 N1937 1.261 . S
N1937 Co1888 2.214 . S
N1937 C1935 1.325 . S
N1937 C1936 1.261 . S
C1938 H1908 0.931 . S
C1938 C1935 1.357 . S
C1938 C1939 1.312 . S
C1939 H1910 0.930 . S
C1939 C1934 1.261 . S
C1939 C1938 1.312 . S
C1940 O1912 1.214 . S
C1940 O1920 1.234 . S
C1941 H1913 0.929 . S
C1941 C1944 1.391 . S
C1941 C1946 1.391 . S
C1942 H1914 0.929 . S
C1942 C1943 1.390 . S
C1942 N1945 1.391 . S
C1943 H1915 0.930 . S
C1943 C1942 1.390 . S
C1943 C1944 1.392 . S
C1944 H1916 0.929 . S
C1944 C1941 1.391 . S
C1944 C1943 1.392 . S
N1945 Co1889 2.257 . S
N1945 C1942 1.391 . S
N1945 C1946 1.388 . S
C1946 H1917 0.930 . S
C1946 C1941 1.391 . S
C1946 N1945 1.388 . S
Co1947 O1949 2.143 . S
Co1947 O1955 2.074 . S
Co1947 O1958 2.093 . S
Co1947 O1971 2.097 . S
Co1947 N1988 2.151 . S
Co1947 N1996 2.214 . S
Co1948 O1949 2.160 . S
Co1948 O1954 2.058 . S
Co1948 O1964 2.057 . S
Co1948 O1979 2.037 . S
Co1948 N1983 2.145 . S
Co1948 N2004 2.257 . S
O1949 Co1947 2.143 . S
O1949 Co1948 2.160 . S
C1950 O1951 1.278 . S
C1950 O1958 1.224 . S
O1951 C1950 1.278 . S
C1952 O1953 1.245 . S
C1952 O1964 1.232 . S
O1953 C1952 1.245 . S
O1954 Co1948 2.058 . S
O1954 C1980 1.269 . S
O1955 Co1947 2.074 . S
O1955 C1980 1.257 . S
H1956 C1981 0.930 . S
H1957 C1987 0.930 . S
O1958 Co1947 2.093 . S
O1958 C1950 1.224 . S
H1959 C1991 0.929 . S
H1960 C1993 0.930 . S
H1961 C1994 0.930 . S
H1962 C1992 0.929 . S
H1963 C1995 0.928 . S
O1964 Co1948 2.057 . S
O1964 C1952 1.232 . S
H1965 C1984 0.929 . S
H1966 C1985 0.929 . S
H1967 C1997 0.931 . S
H1968 C1989 0.929 . S
H1969 C1998 0.930 . S
H1970 C1990 0.931 . S
O1971 Co1947 2.097 . S
O1971 C1999 1.214 . S
H1972 C2000 0.929 . S
H1973 C2001 0.929 . S
H1974 C2002 0.930 . S
H1975 C2003 0.929 . S
H1976 C2005 0.930 . S
H1977 C1982 0.930 . S
H1978 C1986 0.930 . S
O1979 Co1948 2.037 . S
O1979 C1999 1.234 . S
C1980 O1954 1.269 . S
C1980 O1955 1.257 . S
C1981 H1956 0.930 . S
C1981 C1984 1.388 . S
C1981 C1986 1.418 . S
C1982 H1977 0.930 . S
C1982 C1985 1.404 . S
C1982 C1986 1.353 . S
N1983 Co1948 2.145 . S
N1983 C1984 1.397 . S
N1983 C1985 1.334 . S
C1984 H1965 0.929 . S
C1984 C1981 1.388 . S
C1984 N1983 1.397 . S
C1985 H1966 0.929 . S
C1985 C1982 1.404 . S
C1985 N1983 1.334 . S
C1986 H1978 0.930 . S
C1986 C1981 1.418 . S
C1986 C1982 1.353 . S
C1987 H1957 0.930 . S
C1987 N1988 1.330 . S
C1987 C1989 1.446 . S
N1988 Co1947 2.151 . S
N1988 C1987 1.330 . S
N1988 C1992 1.418 . S
C1989 H1968 0.929 . S
C1989 C1987 1.446 . S
C1989 C1990 1.332 . S
C1990 H1970 0.931 . S
C1990 C1989 1.332 . S
C1990 C1991 1.267 . S
C1991 H1959 0.929 . S
C1991 C1990 1.267 . S
C1991 C1992 1.251 . S
C1992 H1962 0.929 . S
C1992 N1988 1.418 . S
C1992 C1991 1.251 . S
C1993 H1960 0.930 . S
C1993 C1995 1.406 . S
C1993 C1998 1.261 . S
C1994 H1961 0.930 . S
C1994 N1996 1.325 . S
C1994 C1997 1.357 . S
C1995 H1963 0.928 . S
C1995 C1993 1.406 . S
C1995 N1996 1.261 . S
N1996 Co1947 2.214 . S
N1996 C1994 1.325 . S
N1996 C1995 1.261 . S
C1997 H1967 0.931 . S
C1997 C1994 1.357 . S
C1997 C1998 1.312 . S
C1998 H1969 0.930 . S
C1998 C1993 1.261 . S
C1998 C1997 1.312 . S
C1999 O1971 1.214 . S
C1999 O1979 1.234 . S
C2000 H1972 0.929 . S
C2000 C2003 1.391 . S
C2000 C2005 1.391 . S
C2001 H1973 0.929 . S
C2001 C2002 1.390 . S
C2001 N2004 1.391 . S
C2002 H1974 0.930 . S
C2002 C2001 1.390 . S
C2002 C2003 1.392 . S
C2003 H1975 0.929 . S
C2003 C2000 1.391 . S
C2003 C2002 1.392 . S
N2004 Co1948 2.257 . S
N2004 C2001 1.391 . S
N2004 C2005 1.388 . S
C2005 H1976 0.930 . S
C2005 C2000 1.391 . S
C2005 N2004 1.388 . S
Co2006 O2008 2.143 . S
Co2006 O2014 2.074 . S
Co2006 O2017 2.093 . S
Co2006 O2030 2.097 . S
Co2006 N2047 2.151 . S
Co2006 N2055 2.214 . S
Co2007 O2008 2.160 . S
Co2007 O2013 2.058 . S
Co2007 O2023 2.057 . S
Co2007 O2038 2.037 . S
Co2007 N2042 2.145 . S
Co2007 N2063 2.257 . S
O2008 Co2006 2.143 . S
O2008 Co2007 2.160 . S
C2009 O2010 1.278 . S
C2009 O2017 1.224 . S
O2010 C2009 1.278 . S
C2011 O2012 1.245 . S
C2011 O2023 1.232 . S
O2012 C2011 1.245 . S
O2013 Co2007 2.058 . S
O2013 C2039 1.269 . S
O2014 Co2006 2.074 . S
O2014 C2039 1.257 . S
H2015 C2040 0.930 . S
H2016 C2046 0.930 . S
O2017 Co2006 2.093 . S
O2017 C2009 1.224 . S
H2018 C2050 0.929 . S
H2019 C2052 0.930 . S
H2020 C2053 0.930 . S
H2021 C2051 0.929 . S
H2022 C2054 0.928 . S
O2023 Co2007 2.057 . S
O2023 C2011 1.232 . S
H2024 C2043 0.929 . S
H2025 C2044 0.929 . S
H2026 C2056 0.931 . S
H2027 C2048 0.929 . S
H2028 C2057 0.930 . S
H2029 C2049 0.931 . S
O2030 Co2006 2.097 . S
O2030 C2058 1.214 . S
H2031 C2059 0.929 . S
H2032 C2060 0.929 . S
H2033 C2061 0.930 . S
H2034 C2062 0.929 . S
H2035 C2064 0.930 . S
H2036 C2041 0.930 . S
H2037 C2045 0.930 . S
O2038 Co2007 2.037 . S
O2038 C2058 1.234 . S
C2039 O2013 1.269 . S
C2039 O2014 1.257 . S
C2040 H2015 0.930 . S
C2040 C2043 1.388 . S
C2040 C2045 1.418 . S
C2041 H2036 0.930 . S
C2041 C2044 1.404 . S
C2041 C2045 1.353 . S
N2042 Co2007 2.145 . S
N2042 C2043 1.397 . S
N2042 C2044 1.334 . S
C2043 H2024 0.929 . S
C2043 C2040 1.388 . S
C2043 N2042 1.397 . S
C2044 H2025 0.929 . S
C2044 C2041 1.404 . S
C2044 N2042 1.334 . S
C2045 H2037 0.930 . S
C2045 C2040 1.418 . S
C2045 C2041 1.353 . S
C2046 H2016 0.930 . S
C2046 N2047 1.330 . S
C2046 C2048 1.446 . S
N2047 Co2006 2.151 . S
N2047 C2046 1.330 . S
N2047 C2051 1.418 . S
C2048 H2027 0.929 . S
C2048 C2046 1.446 . S
C2048 C2049 1.332 . S
C2049 H2029 0.931 . S
C2049 C2048 1.332 . S
C2049 C2050 1.267 . S
C2050 H2018 0.929 . S
C2050 C2049 1.267 . S
C2050 C2051 1.251 . S
C2051 H2021 0.929 . S
C2051 N2047 1.418 . S
C2051 C2050 1.251 . S
C2052 H2019 0.930 . S
C2052 C2054 1.406 . S
C2052 C2057 1.261 . S
C2053 H2020 0.930 . S
C2053 N2055 1.325 . S
C2053 C2056 1.357 . S
C2054 H2022 0.928 . S
C2054 C2052 1.406 . S
C2054 N2055 1.261 . S
N2055 Co2006 2.214 . S
N2055 C2053 1.325 . S
N2055 C2054 1.261 . S
C2056 H2026 0.931 . S
C2056 C2053 1.357 . S
C2056 C2057 1.312 . S
C2057 H2028 0.930 . S
C2057 C2052 1.261 . S
C2057 C2056 1.312 . S
C2058 O2030 1.214 . S
C2058 O2038 1.234 . S
C2059 H2031 0.929 . S
C2059 C2062 1.391 . S
C2059 C2064 1.391 . S
C2060 H2032 0.929 . S
C2060 C2061 1.390 . S
C2060 N2063 1.391 . S
C2061 H2033 0.930 . S
C2061 C2060 1.390 . S
C2061 C2062 1.392 . S
C2062 H2034 0.929 . S
C2062 C2059 1.391 . S
C2062 C2061 1.392 . S
N2063 Co2007 2.257 . S
N2063 C2060 1.391 . S
N2063 C2064 1.388 . S
C2064 H2035 0.930 . S
C2064 C2059 1.391 . S
C2064 N2063 1.388 . S
Co2065 O2067 2.143 . S
Co2065 O2073 2.074 . S
Co2065 O2076 2.093 . S
Co2065 O2089 2.097 . S
Co2065 N2106 2.151 . S
Co2065 N2114 2.214 . S
Co2066 O2067 2.160 . S
Co2066 O2072 2.058 . S
Co2066 O2082 2.057 . S
Co2066 O2097 2.037 . S
Co2066 N2101 2.145 . S
Co2066 N2122 2.257 . S
O2067 Co2065 2.143 . S
O2067 Co2066 2.160 . S
C2068 O2069 1.278 . S
C2068 O2076 1.224 . S
O2069 C2068 1.278 . S
C2070 O2071 1.245 . S
C2070 O2082 1.232 . S
O2071 C2070 1.245 . S
O2072 Co2066 2.058 . S
O2072 C2098 1.269 . S
O2073 Co2065 2.074 . S
O2073 C2098 1.257 . S
H2074 C2099 0.930 . S
H2075 C2105 0.930 . S
O2076 Co2065 2.093 . S
O2076 C2068 1.224 . S
H2077 C2109 0.929 . S
H2078 C2111 0.930 . S
H2079 C2112 0.930 . S
H2080 C2110 0.929 . S
H2081 C2113 0.928 . S
O2082 Co2066 2.057 . S
O2082 C2070 1.232 . S
H2083 C2102 0.929 . S
H2084 C2103 0.929 . S
H2085 C2115 0.931 . S
H2086 C2107 0.929 . S
H2087 C2116 0.930 . S
H2088 C2108 0.931 . S
O2089 Co2065 2.097 . S
O2089 C2117 1.214 . S
H2090 C2118 0.929 . S
H2091 C2119 0.929 . S
H2092 C2120 0.930 . S
H2093 C2121 0.929 . S
H2094 C2123 0.930 . S
H2095 C2100 0.930 . S
H2096 C2104 0.930 . S
O2097 Co2066 2.037 . S
O2097 C2117 1.234 . S
C2098 O2072 1.269 . S
C2098 O2073 1.257 . S
C2099 H2074 0.930 . S
C2099 C2102 1.388 . S
C2099 C2104 1.418 . S
C2100 H2095 0.930 . S
C2100 C2103 1.404 . S
C2100 C2104 1.353 . S
N2101 Co2066 2.145 . S
N2101 C2102 1.397 . S
N2101 C2103 1.334 . S
C2102 H2083 0.929 . S
C2102 C2099 1.388 . S
C2102 N2101 1.397 . S
C2103 H2084 0.929 . S
C2103 C2100 1.404 . S
C2103 N2101 1.334 . S
C2104 H2096 0.930 . S
C2104 C2099 1.418 . S
C2104 C2100 1.353 . S
C2105 H2075 0.930 . S
C2105 N2106 1.330 . S
C2105 C2107 1.446 . S
N2106 Co2065 2.151 . S
N2106 C2105 1.330 . S
N2106 C2110 1.418 . S
C2107 H2086 0.929 . S
C2107 C2105 1.446 . S
C2107 C2108 1.332 . S
C2108 H2088 0.931 . S
C2108 C2107 1.332 . S
C2108 C2109 1.267 . S
C2109 H2077 0.929 . S
C2109 C2108 1.267 . S
C2109 C2110 1.251 . S
C2110 H2080 0.929 . S
C2110 N2106 1.418 . S
C2110 C2109 1.251 . S
C2111 H2078 0.930 . S
C2111 C2113 1.406 . S
C2111 C2116 1.261 . S
C2112 H2079 0.930 . S
C2112 N2114 1.325 . S
C2112 C2115 1.357 . S
C2113 H2081 0.928 . S
C2113 C2111 1.406 . S
C2113 N2114 1.261 . S
N2114 Co2065 2.214 . S
N2114 C2112 1.325 . S
N2114 C2113 1.261 . S
C2115 H2085 0.931 . S
C2115 C2112 1.357 . S
C2115 C2116 1.312 . S
C2116 H2087 0.930 . S
C2116 C2111 1.261 . S
C2116 C2115 1.312 . S
C2117 O2089 1.214 . S
C2117 O2097 1.234 . S
C2118 H2090 0.929 . S
C2118 C2121 1.391 . S
C2118 C2123 1.391 . S
C2119 H2091 0.929 . S
C2119 C2120 1.390 . S
C2119 N2122 1.391 . S
C2120 H2092 0.930 . S
C2120 C2119 1.390 . S
C2120 C2121 1.392 . S
C2121 H2093 0.929 . S
C2121 C2118 1.391 . S
C2121 C2120 1.392 . S
N2122 Co2066 2.257 . S
N2122 C2119 1.391 . S
N2122 C2123 1.388 . S
C2123 H2094 0.930 . S
C2123 C2118 1.391 . S
C2123 N2122 1.388 . S
Co2124 O2126 2.143 . S
Co2124 O2132 2.074 . S
Co2124 O2135 2.093 . S
Co2124 O2148 2.097 . S
Co2124 N2165 2.151 . S
Co2124 N2173 2.214 . S
Co2125 O2126 2.160 . S
Co2125 O2131 2.058 . S
Co2125 O2141 2.057 . S
Co2125 O2156 2.037 . S
Co2125 N2160 2.145 . S
Co2125 N2181 2.257 . S
O2126 Co2124 2.143 . S
O2126 Co2125 2.160 . S
C2127 O2128 1.278 . S
C2127 O2135 1.224 . S
O2128 C2127 1.278 . S
C2129 O2130 1.245 . S
C2129 O2141 1.232 . S
O2130 C2129 1.245 . S
O2131 Co2125 2.058 . S
O2131 C2157 1.269 . S
O2132 Co2124 2.074 . S
O2132 C2157 1.257 . S
H2133 C2158 0.930 . S
H2134 C2164 0.930 . S
O2135 Co2124 2.093 . S
O2135 C2127 1.224 . S
H2136 C2168 0.929 . S
H2137 C2170 0.930 . S
H2138 C2171 0.930 . S
H2139 C2169 0.929 . S
H2140 C2172 0.928 . S
O2141 Co2125 2.057 . S
O2141 C2129 1.232 . S
H2142 C2161 0.929 . S
H2143 C2162 0.929 . S
H2144 C2174 0.931 . S
H2145 C2166 0.929 . S
H2146 C2175 0.930 . S
H2147 C2167 0.931 . S
O2148 Co2124 2.097 . S
O2148 C2176 1.214 . S
H2149 C2177 0.929 . S
H2150 C2178 0.929 . S
H2151 C2179 0.930 . S
H2152 C2180 0.929 . S
H2153 C2182 0.930 . S
H2154 C2159 0.930 . S
H2155 C2163 0.930 . S
O2156 Co2125 2.037 . S
O2156 C2176 1.234 . S
C2157 O2131 1.269 . S
C2157 O2132 1.257 . S
C2158 H2133 0.930 . S
C2158 C2161 1.388 . S
C2158 C2163 1.418 . S
C2159 H2154 0.930 . S
C2159 C2162 1.404 . S
C2159 C2163 1.353 . S
N2160 Co2125 2.145 . S
N2160 C2161 1.397 . S
N2160 C2162 1.334 . S
C2161 H2142 0.929 . S
C2161 C2158 1.388 . S
C2161 N2160 1.397 . S
C2162 H2143 0.929 . S
C2162 C2159 1.404 . S
C2162 N2160 1.334 . S
C2163 H2155 0.930 . S
C2163 C2158 1.418 . S
C2163 C2159 1.353 . S
C2164 H2134 0.930 . S
C2164 N2165 1.330 . S
C2164 C2166 1.446 . S
N2165 Co2124 2.151 . S
N2165 C2164 1.330 . S
N2165 C2169 1.418 . S
C2166 H2145 0.929 . S
C2166 C2164 1.446 . S
C2166 C2167 1.332 . S
C2167 H2147 0.931 . S
C2167 C2166 1.332 . S
C2167 C2168 1.267 . S
C2168 H2136 0.929 . S
C2168 C2167 1.267 . S
C2168 C2169 1.251 . S
C2169 H2139 0.929 . S
C2169 N2165 1.418 . S
C2169 C2168 1.251 . S
C2170 H2137 0.930 . S
C2170 C2172 1.406 . S
C2170 C2175 1.261 . S
C2171 H2138 0.930 . S
C2171 N2173 1.325 . S
C2171 C2174 1.357 . S
C2172 H2140 0.928 . S
C2172 C2170 1.406 . S
C2172 N2173 1.261 . S
N2173 Co2124 2.214 . S
N2173 C2171 1.325 . S
N2173 C2172 1.261 . S
C2174 H2144 0.931 . S
C2174 C2171 1.357 . S
C2174 C2175 1.312 . S
C2175 H2146 0.930 . S
C2175 C2170 1.261 . S
C2175 C2174 1.312 . S
C2176 O2148 1.214 . S
C2176 O2156 1.234 . S
C2177 H2149 0.929 . S
C2177 C2180 1.391 . S
C2177 C2182 1.391 . S
C2178 H2150 0.929 . S
C2178 C2179 1.390 . S
C2178 N2181 1.391 . S
C2179 H2151 0.930 . S
C2179 C2178 1.390 . S
C2179 C2180 1.392 . S
C2180 H2152 0.929 . S
C2180 C2177 1.391 . S
C2180 C2179 1.392 . S
N2181 Co2125 2.257 . S
N2181 C2178 1.391 . S
N2181 C2182 1.388 . S
C2182 H2153 0.930 . S
C2182 C2177 1.391 . S
C2182 N2181 1.388 . S
Co2183 O2185 2.143 . S
Co2183 O2191 2.074 . S
Co2183 O2194 2.093 . S
Co2183 O2207 2.097 . S
Co2183 N2224 2.151 . S
Co2183 N2232 2.214 . S
Co2184 O2185 2.160 . S
Co2184 O2190 2.058 . S
Co2184 O2200 2.057 . S
Co2184 O2215 2.037 . S
Co2184 N2219 2.145 . S
Co2184 N2240 2.257 . S
O2185 Co2183 2.143 . S
O2185 Co2184 2.160 . S
C2186 O2187 1.278 . S
C2186 O2194 1.224 . S
O2187 C2186 1.278 . S
C2188 O2189 1.245 . S
C2188 O2200 1.232 . S
O2189 C2188 1.245 . S
O2190 Co2184 2.058 . S
O2190 C2216 1.269 . S
O2191 Co2183 2.074 . S
O2191 C2216 1.257 . S
H2192 C2217 0.930 . S
H2193 C2223 0.930 . S
O2194 Co2183 2.093 . S
O2194 C2186 1.224 . S
H2195 C2227 0.929 . S
H2196 C2229 0.930 . S
H2197 C2230 0.930 . S
H2198 C2228 0.929 . S
H2199 C2231 0.928 . S
O2200 Co2184 2.057 . S
O2200 C2188 1.232 . S
H2201 C2220 0.929 . S
H2202 C2221 0.929 . S
H2203 C2233 0.931 . S
H2204 C2225 0.929 . S
H2205 C2234 0.930 . S
H2206 C2226 0.931 . S
O2207 Co2183 2.097 . S
O2207 C2235 1.214 . S
H2208 C2236 0.929 . S
H2209 C2237 0.929 . S
H2210 C2238 0.930 . S
H2211 C2239 0.929 . S
H2212 C2241 0.930 . S
H2213 C2218 0.930 . S
H2214 C2222 0.930 . S
O2215 Co2184 2.037 . S
O2215 C2235 1.234 . S
C2216 O2190 1.269 . S
C2216 O2191 1.257 . S
C2217 H2192 0.930 . S
C2217 C2220 1.388 . S
C2217 C2222 1.418 . S
C2218 H2213 0.930 . S
C2218 C2221 1.404 . S
C2218 C2222 1.353 . S
N2219 Co2184 2.145 . S
N2219 C2220 1.397 . S
N2219 C2221 1.334 . S
C2220 H2201 0.929 . S
C2220 C2217 1.388 . S
C2220 N2219 1.397 . S
C2221 H2202 0.929 . S
C2221 C2218 1.404 . S
C2221 N2219 1.334 . S
C2222 H2214 0.930 . S
C2222 C2217 1.418 . S
C2222 C2218 1.353 . S
C2223 H2193 0.930 . S
C2223 N2224 1.330 . S
C2223 C2225 1.446 . S
N2224 Co2183 2.151 . S
N2224 C2223 1.330 . S
N2224 C2228 1.418 . S
C2225 H2204 0.929 . S
C2225 C2223 1.446 . S
C2225 C2226 1.332 . S
C2226 H2206 0.931 . S
C2226 C2225 1.332 . S
C2226 C2227 1.267 . S
C2227 H2195 0.929 . S
C2227 C2226 1.267 . S
C2227 C2228 1.251 . S
C2228 H2198 0.929 . S
C2228 N2224 1.418 . S
C2228 C2227 1.251 . S
C2229 H2196 0.930 . S
C2229 C2231 1.406 . S
C2229 C2234 1.261 . S
C2230 H2197 0.930 . S
C2230 N2232 1.325 . S
C2230 C2233 1.357 . S
C2231 H2199 0.928 . S
C2231 C2229 1.406 . S
C2231 N2232 1.261 . S
N2232 Co2183 2.214 . S
N2232 C2230 1.325 . S
N2232 C2231 1.261 . S
C2233 H2203 0.931 . S
C2233 C2230 1.357 . S
C2233 C2234 1.312 . S
C2234 H2205 0.930 . S
C2234 C2229 1.261 . S
C2234 C2233 1.312 . S
C2235 O2207 1.214 . S
C2235 O2215 1.234 . S
C2236 H2208 0.929 . S
C2236 C2239 1.391 . S
C2236 C2241 1.391 . S
C2237 H2209 0.929 . S
C2237 C2238 1.390 . S
C2237 N2240 1.391 . S
C2238 H2210 0.930 . S
C2238 C2237 1.390 . S
C2238 C2239 1.392 . S
C2239 H2211 0.929 . S
C2239 C2236 1.391 . S
C2239 C2238 1.392 . S
N2240 Co2184 2.257 . S
N2240 C2237 1.391 . S
N2240 C2241 1.388 . S
C2241 H2212 0.930 . S
C2241 C2236 1.391 . S
C2241 N2240 1.388 . S
Co2242 O2244 2.143 . S
Co2242 O2250 2.074 . S
Co2242 O2253 2.093 . S
Co2242 O2266 2.097 . S
Co2242 N2283 2.151 . S
Co2242 N2291 2.214 . S
Co2243 O2244 2.160 . S
Co2243 O2249 2.058 . S
Co2243 O2259 2.057 . S
Co2243 O2274 2.037 . S
Co2243 N2278 2.145 . S
Co2243 N2299 2.257 . S
O2244 Co2242 2.143 . S
O2244 Co2243 2.160 . S
C2245 O2246 1.278 . S
C2245 O2253 1.224 . S
O2246 C2245 1.278 . S
C2247 O2248 1.245 . S
C2247 O2259 1.232 . S
O2248 C2247 1.245 . S
O2249 Co2243 2.058 . S
O2249 C2275 1.269 . S
O2250 Co2242 2.074 . S
O2250 C2275 1.257 . S
H2251 C2276 0.930 . S
H2252 C2282 0.930 . S
O2253 Co2242 2.093 . S
O2253 C2245 1.224 . S
H2254 C2286 0.929 . S
H2255 C2288 0.930 . S
H2256 C2289 0.930 . S
H2257 C2287 0.929 . S
H2258 C2290 0.928 . S
O2259 Co2243 2.057 . S
O2259 C2247 1.232 . S
H2260 C2279 0.929 . S
H2261 C2280 0.929 . S
H2262 C2292 0.931 . S
H2263 C2284 0.929 . S
H2264 C2293 0.930 . S
H2265 C2285 0.931 . S
O2266 Co2242 2.097 . S
O2266 C2294 1.214 . S
H2267 C2295 0.929 . S
H2268 C2296 0.929 . S
H2269 C2297 0.930 . S
H2270 C2298 0.929 . S
H2271 C2300 0.930 . S
H2272 C2277 0.930 . S
H2273 C2281 0.930 . S
O2274 Co2243 2.037 . S
O2274 C2294 1.234 . S
C2275 O2249 1.269 . S
C2275 O2250 1.257 . S
C2276 H2251 0.930 . S
C2276 C2279 1.388 . S
C2276 C2281 1.418 . S
C2277 H2272 0.930 . S
C2277 C2280 1.404 . S
C2277 C2281 1.353 . S
N2278 Co2243 2.145 . S
N2278 C2279 1.397 . S
N2278 C2280 1.334 . S
C2279 H2260 0.929 . S
C2279 C2276 1.388 . S
C2279 N2278 1.397 . S
C2280 H2261 0.929 . S
C2280 C2277 1.404 . S
C2280 N2278 1.334 . S
C2281 H2273 0.930 . S
C2281 C2276 1.418 . S
C2281 C2277 1.353 . S
C2282 H2252 0.930 . S
C2282 N2283 1.330 . S
C2282 C2284 1.446 . S
N2283 Co2242 2.151 . S
N2283 C2282 1.330 . S
N2283 C2287 1.418 . S
C2284 H2263 0.929 . S
C2284 C2282 1.446 . S
C2284 C2285 1.332 . S
C2285 H2265 0.931 . S
C2285 C2284 1.332 . S
C2285 C2286 1.267 . S
C2286 H2254 0.929 . S
C2286 C2285 1.267 . S
C2286 C2287 1.251 . S
C2287 H2257 0.929 . S
C2287 N2283 1.418 . S
C2287 C2286 1.251 . S
C2288 H2255 0.930 . S
C2288 C2290 1.406 . S
C2288 C2293 1.261 . S
C2289 H2256 0.930 . S
C2289 N2291 1.325 . S
C2289 C2292 1.357 . S
C2290 H2258 0.928 . S
C2290 C2288 1.406 . S
C2290 N2291 1.261 . S
N2291 Co2242 2.214 . S
N2291 C2289 1.325 . S
N2291 C2290 1.261 . S
C2292 H2262 0.931 . S
C2292 C2289 1.357 . S
C2292 C2293 1.312 . S
C2293 H2264 0.930 . S
C2293 C2288 1.261 . S
C2293 C2292 1.312 . S
C2294 O2266 1.214 . S
C2294 O2274 1.234 . S
C2295 H2267 0.929 . S
C2295 C2298 1.391 . S
C2295 C2300 1.391 . S
C2296 H2268 0.929 . S
C2296 C2297 1.390 . S
C2296 N2299 1.391 . S
C2297 H2269 0.930 . S
C2297 C2296 1.390 . S
C2297 C2298 1.392 . S
C2298 H2270 0.929 . S
C2298 C2295 1.391 . S
C2298 C2297 1.392 . S
N2299 Co2243 2.257 . S
N2299 C2296 1.391 . S
N2299 C2300 1.388 . S
C2300 H2271 0.930 . S
C2300 C2295 1.391 . S
C2300 N2299 1.388 . S
Co2301 O2303 2.143 . S
Co2301 O2309 2.074 . S
Co2301 O2312 2.093 . S
Co2301 O2325 2.097 . S
Co2301 N2342 2.151 . S
Co2301 N2350 2.214 . S
Co2302 O2303 2.160 . S
Co2302 O2308 2.058 . S
Co2302 O2318 2.057 . S
Co2302 O2333 2.037 . S
Co2302 N2337 2.145 . S
Co2302 N2358 2.257 . S
O2303 Co2301 2.143 . S
O2303 Co2302 2.160 . S
C2304 O2305 1.278 . S
C2304 O2312 1.224 . S
O2305 C2304 1.278 . S
C2306 O2307 1.245 . S
C2306 O2318 1.232 . S
O2307 C2306 1.245 . S
O2308 Co2302 2.058 . S
O2308 C2334 1.269 . S
O2309 Co2301 2.074 . S
O2309 C2334 1.257 . S
H2310 C2335 0.930 . S
H2311 C2341 0.930 . S
O2312 Co2301 2.093 . S
O2312 C2304 1.224 . S
H2313 C2345 0.929 . S
H2314 C2347 0.930 . S
H2315 C2348 0.930 . S
H2316 C2346 0.929 . S
H2317 C2349 0.928 . S
O2318 Co2302 2.057 . S
O2318 C2306 1.232 . S
H2319 C2338 0.929 . S
H2320 C2339 0.929 . S
H2321 C2351 0.931 . S
H2322 C2343 0.929 . S
H2323 C2352 0.930 . S
H2324 C2344 0.931 . S
O2325 Co2301 2.097 . S
O2325 C2353 1.214 . S
H2326 C2354 0.929 . S
H2327 C2355 0.929 . S
H2328 C2356 0.930 . S
H2329 C2357 0.929 . S
H2330 C2359 0.930 . S
H2331 C2336 0.930 . S
H2332 C2340 0.930 . S
O2333 Co2302 2.037 . S
O2333 C2353 1.234 . S
C2334 O2308 1.269 . S
C2334 O2309 1.257 . S
C2335 H2310 0.930 . S
C2335 C2338 1.388 . S
C2335 C2340 1.418 . S
C2336 H2331 0.930 . S
C2336 C2339 1.404 . S
C2336 C2340 1.353 . S
N2337 Co2302 2.145 . S
N2337 C2338 1.397 . S
N2337 C2339 1.334 . S
C2338 H2319 0.929 . S
C2338 C2335 1.388 . S
C2338 N2337 1.397 . S
C2339 H2320 0.929 . S
C2339 C2336 1.404 . S
C2339 N2337 1.334 . S
C2340 H2332 0.930 . S
C2340 C2335 1.418 . S
C2340 C2336 1.353 . S
C2341 H2311 0.930 . S
C2341 N2342 1.330 . S
C2341 C2343 1.446 . S
N2342 Co2301 2.151 . S
N2342 C2341 1.330 . S
N2342 C2346 1.418 . S
C2343 H2322 0.929 . S
C2343 C2341 1.446 . S
C2343 C2344 1.332 . S
C2344 H2324 0.931 . S
C2344 C2343 1.332 . S
C2344 C2345 1.267 . S
C2345 H2313 0.929 . S
C2345 C2344 1.267 . S
C2345 C2346 1.251 . S
C2346 H2316 0.929 . S
C2346 N2342 1.418 . S
C2346 C2345 1.251 . S
C2347 H2314 0.930 . S
C2347 C2349 1.406 . S
C2347 C2352 1.261 . S
C2348 H2315 0.930 . S
C2348 N2350 1.325 . S
C2348 C2351 1.357 . S
C2349 H2317 0.928 . S
C2349 C2347 1.406 . S
C2349 N2350 1.261 . S
N2350 Co2301 2.214 . S
N2350 C2348 1.325 . S
N2350 C2349 1.261 . S
C2351 H2321 0.931 . S
C2351 C2348 1.357 . S
C2351 C2352 1.312 . S
C2352 H2323 0.930 . S
C2352 C2347 1.261 . S
C2352 C2351 1.312 . S
C2353 O2325 1.214 . S
C2353 O2333 1.234 . S
C2354 H2326 0.929 . S
C2354 C2357 1.391 . S
C2354 C2359 1.391 . S
C2355 H2327 0.929 . S
C2355 C2356 1.390 . S
C2355 N2358 1.391 . S
C2356 H2328 0.930 . S
C2356 C2355 1.390 . S
C2356 C2357 1.392 . S
C2357 H2329 0.929 . S
C2357 C2354 1.391 . S
C2357 C2356 1.392 . S
N2358 Co2302 2.257 . S
N2358 C2355 1.391 . S
N2358 C2359 1.388 . S
C2359 H2330 0.930 . S
C2359 C2354 1.391 . S
C2359 N2358 1.388 . S
Co2360 O2362 2.143 . S
Co2360 O2368 2.074 . S
Co2360 O2371 2.093 . S
Co2360 O2384 2.097 . S
Co2360 N2401 2.151 . S
Co2360 N2409 2.214 . S
Co2361 O2362 2.160 . S
Co2361 O2367 2.058 . S
Co2361 O2377 2.057 . S
Co2361 O2392 2.037 . S
Co2361 N2396 2.145 . S
Co2361 N2417 2.257 . S
O2362 Co2360 2.143 . S
O2362 Co2361 2.160 . S
C2363 O2364 1.278 . S
C2363 O2371 1.224 . S
O2364 C2363 1.278 . S
C2365 O2366 1.245 . S
C2365 O2377 1.232 . S
O2366 C2365 1.245 . S
O2367 Co2361 2.058 . S
O2367 C2393 1.269 . S
O2368 Co2360 2.074 . S
O2368 C2393 1.257 . S
H2369 C2394 0.930 . S
H2370 C2400 0.930 . S
O2371 Co2360 2.093 . S
O2371 C2363 1.224 . S
H2372 C2404 0.929 . S
H2373 C2406 0.930 . S
H2374 C2407 0.930 . S
H2375 C2405 0.929 . S
H2376 C2408 0.928 . S
O2377 Co2361 2.057 . S
O2377 C2365 1.232 . S
H2378 C2397 0.929 . S
H2379 C2398 0.929 . S
H2380 C2410 0.931 . S
H2381 C2402 0.929 . S
H2382 C2411 0.930 . S
H2383 C2403 0.931 . S
O2384 Co2360 2.097 . S
O2384 C2412 1.214 . S
H2385 C2413 0.929 . S
H2386 C2414 0.929 . S
H2387 C2415 0.930 . S
H2388 C2416 0.929 . S
H2389 C2418 0.930 . S
H2390 C2395 0.930 . S
H2391 C2399 0.930 . S
O2392 Co2361 2.037 . S
O2392 C2412 1.234 . S
C2393 O2367 1.269 . S
C2393 O2368 1.257 . S
C2394 H2369 0.930 . S
C2394 C2397 1.388 . S
C2394 C2399 1.418 . S
C2395 H2390 0.930 . S
C2395 C2398 1.404 . S
C2395 C2399 1.353 . S
N2396 Co2361 2.145 . S
N2396 C2397 1.397 . S
N2396 C2398 1.334 . S
C2397 H2378 0.929 . S
C2397 C2394 1.388 . S
C2397 N2396 1.397 . S
C2398 H2379 0.929 . S
C2398 C2395 1.404 . S
C2398 N2396 1.334 . S
C2399 H2391 0.930 . S
C2399 C2394 1.418 . S
C2399 C2395 1.353 . S
C2400 H2370 0.930 . S
C2400 N2401 1.330 . S
C2400 C2402 1.446 . S
N2401 Co2360 2.151 . S
N2401 C2400 1.330 . S
N2401 C2405 1.418 . S
C2402 H2381 0.929 . S
C2402 C2400 1.446 . S
C2402 C2403 1.332 . S
C2403 H2383 0.931 . S
C2403 C2402 1.332 . S
C2403 C2404 1.267 . S
C2404 H2372 0.929 . S
C2404 C2403 1.267 . S
C2404 C2405 1.251 . S
C2405 H2375 0.929 . S
C2405 N2401 1.418 . S
C2405 C2404 1.251 . S
C2406 H2373 0.930 . S
C2406 C2408 1.406 . S
C2406 C2411 1.261 . S
C2407 H2374 0.930 . S
C2407 N2409 1.325 . S
C2407 C2410 1.357 . S
C2408 H2376 0.928 . S
C2408 C2406 1.406 . S
C2408 N2409 1.261 . S
N2409 Co2360 2.214 . S
N2409 C2407 1.325 . S
N2409 C2408 1.261 . S
C2410 H2380 0.931 . S
C2410 C2407 1.357 . S
C2410 C2411 1.312 . S
C2411 H2382 0.930 . S
C2411 C2406 1.261 . S
C2411 C2410 1.312 . S
C2412 O2384 1.214 . S
C2412 O2392 1.234 . S
C2413 H2385 0.929 . S
C2413 C2416 1.391 . S
C2413 C2418 1.391 . S
C2414 H2386 0.929 . S
C2414 C2415 1.390 . S
C2414 N2417 1.391 . S
C2415 H2387 0.930 . S
C2415 C2414 1.390 . S
C2415 C2416 1.392 . S
C2416 H2388 0.929 . S
C2416 C2413 1.391 . S
C2416 C2415 1.392 . S
N2417 Co2361 2.257 . S
N2417 C2414 1.391 . S
N2417 C2418 1.388 . S
C2418 H2389 0.930 . S
C2418 C2413 1.391 . S
C2418 N2417 1.388 . S
Co2419 O2421 2.143 . S
Co2419 O2427 2.074 . S
Co2419 O2430 2.093 . S
Co2419 O2443 2.097 . S
Co2419 N2460 2.151 . S
Co2419 N2468 2.214 . S
Co2420 O2421 2.160 . S
Co2420 O2426 2.058 . S
Co2420 O2436 2.057 . S
Co2420 O2451 2.037 . S
Co2420 N2455 2.145 . S
Co2420 N2476 2.257 . S
O2421 Co2419 2.143 . S
O2421 Co2420 2.160 . S
C2422 O2423 1.278 . S
C2422 O2430 1.224 . S
O2423 C2422 1.278 . S
C2424 O2425 1.245 . S
C2424 O2436 1.232 . S
O2425 C2424 1.245 . S
O2426 Co2420 2.058 . S
O2426 C2452 1.269 . S
O2427 Co2419 2.074 . S
O2427 C2452 1.257 . S
H2428 C2453 0.930 . S
H2429 C2459 0.930 . S
O2430 Co2419 2.093 . S
O2430 C2422 1.224 . S
H2431 C2463 0.929 . S
H2432 C2465 0.930 . S
H2433 C2466 0.930 . S
H2434 C2464 0.929 . S
H2435 C2467 0.928 . S
O2436 Co2420 2.057 . S
O2436 C2424 1.232 . S
H2437 C2456 0.929 . S
H2438 C2457 0.929 . S
H2439 C2469 0.931 . S
H2440 C2461 0.929 . S
H2441 C2470 0.930 . S
H2442 C2462 0.931 . S
O2443 Co2419 2.097 . S
O2443 C2471 1.214 . S
H2444 C2472 0.929 . S
H2445 C2473 0.929 . S
H2446 C2474 0.930 . S
H2447 C2475 0.929 . S
H2448 C2477 0.930 . S
H2449 C2454 0.930 . S
H2450 C2458 0.930 . S
O2451 Co2420 2.037 . S
O2451 C2471 1.234 . S
C2452 O2426 1.269 . S
C2452 O2427 1.257 . S
C2453 H2428 0.930 . S
C2453 C2456 1.388 . S
C2453 C2458 1.418 . S
C2454 H2449 0.930 . S
C2454 C2457 1.404 . S
C2454 C2458 1.353 . S
N2455 Co2420 2.145 . S
N2455 C2456 1.397 . S
N2455 C2457 1.334 . S
C2456 H2437 0.929 . S
C2456 C2453 1.388 . S
C2456 N2455 1.397 . S
C2457 H2438 0.929 . S
C2457 C2454 1.404 . S
C2457 N2455 1.334 . S
C2458 H2450 0.930 . S
C2458 C2453 1.418 . S
C2458 C2454 1.353 . S
C2459 H2429 0.930 . S
C2459 N2460 1.330 . S
C2459 C2461 1.446 . S
N2460 Co2419 2.151 . S
N2460 C2459 1.330 . S
N2460 C2464 1.418 . S
C2461 H2440 0.929 . S
C2461 C2459 1.446 . S
C2461 C2462 1.332 . S
C2462 H2442 0.931 . S
C2462 C2461 1.332 . S
C2462 C2463 1.267 . S
C2463 H2431 0.929 . S
C2463 C2462 1.267 . S
C2463 C2464 1.251 . S
C2464 H2434 0.929 . S
C2464 N2460 1.418 . S
C2464 C2463 1.251 . S
C2465 H2432 0.930 . S
C2465 C2467 1.406 . S
C2465 C2470 1.261 . S
C2466 H2433 0.930 . S
C2466 N2468 1.325 . S
C2466 C2469 1.357 . S
C2467 H2435 0.928 . S
C2467 C2465 1.406 . S
C2467 N2468 1.261 . S
N2468 Co2419 2.214 . S
N2468 C2466 1.325 . S
N2468 C2467 1.261 . S
C2469 H2439 0.931 . S
C2469 C2466 1.357 . S
C2469 C2470 1.312 . S
C2470 H2441 0.930 . S
C2470 C2465 1.261 . S
C2470 C2469 1.312 . S
C2471 O2443 1.214 . S
C2471 O2451 1.234 . S
C2472 H2444 0.929 . S
C2472 C2475 1.391 . S
C2472 C2477 1.391 . S
C2473 H2445 0.929 . S
C2473 C2474 1.390 . S
C2473 N2476 1.391 . S
C2474 H2446 0.930 . S
C2474 C2473 1.390 . S
C2474 C2475 1.392 . S
C2475 H2447 0.929 . S
C2475 C2472 1.391 . S
C2475 C2474 1.392 . S
N2476 Co2420 2.257 . S
N2476 C2473 1.391 . S
N2476 C2477 1.388 . S
C2477 H2448 0.930 . S
C2477 C2472 1.391 . S
C2477 N2476 1.388 . S
Co2478 O2480 2.143 . S
Co2478 O2486 2.074 . S
Co2478 O2489 2.093 . S
Co2478 O2502 2.097 . S
Co2478 N2519 2.151 . S
Co2478 N2527 2.214 . S
Co2479 O2480 2.160 . S
Co2479 O2485 2.058 . S
Co2479 O2495 2.057 . S
Co2479 O2510 2.037 . S
Co2479 N2514 2.145 . S
Co2479 N2535 2.257 . S
O2480 Co2478 2.143 . S
O2480 Co2479 2.160 . S
C2481 O2482 1.278 . S
C2481 O2489 1.224 . S
O2482 C2481 1.278 . S
C2483 O2484 1.245 . S
C2483 O2495 1.232 . S
O2484 C2483 1.245 . S
O2485 Co2479 2.058 . S
O2485 C2511 1.269 . S
O2486 Co2478 2.074 . S
O2486 C2511 1.257 . S
H2487 C2512 0.930 . S
H2488 C2518 0.930 . S
O2489 Co2478 2.093 . S
O2489 C2481 1.224 . S
H2490 C2522 0.929 . S
H2491 C2524 0.930 . S
H2492 C2525 0.930 . S
H2493 C2523 0.929 . S
H2494 C2526 0.928 . S
O2495 Co2479 2.057 . S
O2495 C2483 1.232 . S
H2496 C2515 0.929 . S
H2497 C2516 0.929 . S
H2498 C2528 0.931 . S
H2499 C2520 0.929 . S
H2500 C2529 0.930 . S
H2501 C2521 0.931 . S
O2502 Co2478 2.097 . S
O2502 C2530 1.214 . S
H2503 C2531 0.929 . S
H2504 C2532 0.929 . S
H2505 C2533 0.930 . S
H2506 C2534 0.929 . S
H2507 C2536 0.930 . S
H2508 C2513 0.930 . S
H2509 C2517 0.930 . S
O2510 Co2479 2.037 . S
O2510 C2530 1.234 . S
C2511 O2485 1.269 . S
C2511 O2486 1.257 . S
C2512 H2487 0.930 . S
C2512 C2515 1.388 . S
C2512 C2517 1.418 . S
C2513 H2508 0.930 . S
C2513 C2516 1.404 . S
C2513 C2517 1.353 . S
N2514 Co2479 2.145 . S
N2514 C2515 1.397 . S
N2514 C2516 1.334 . S
C2515 H2496 0.929 . S
C2515 C2512 1.388 . S
C2515 N2514 1.397 . S
C2516 H2497 0.929 . S
C2516 C2513 1.404 . S
C2516 N2514 1.334 . S
C2517 H2509 0.930 . S
C2517 C2512 1.418 . S
C2517 C2513 1.353 . S
C2518 H2488 0.930 . S
C2518 N2519 1.330 . S
C2518 C2520 1.446 . S
N2519 Co2478 2.151 . S
N2519 C2518 1.330 . S
N2519 C2523 1.418 . S
C2520 H2499 0.929 . S
C2520 C2518 1.446 . S
C2520 C2521 1.332 . S
C2521 H2501 0.931 . S
C2521 C2520 1.332 . S
C2521 C2522 1.267 . S
C2522 H2490 0.929 . S
C2522 C2521 1.267 . S
C2522 C2523 1.251 . S
C2523 H2493 0.929 . S
C2523 N2519 1.418 . S
C2523 C2522 1.251 . S
C2524 H2491 0.930 . S
C2524 C2526 1.406 . S
C2524 C2529 1.261 . S
C2525 H2492 0.930 . S
C2525 N2527 1.325 . S
C2525 C2528 1.357 . S
C2526 H2494 0.928 . S
C2526 C2524 1.406 . S
C2526 N2527 1.261 . S
N2527 Co2478 2.214 . S
N2527 C2525 1.325 . S
N2527 C2526 1.261 . S
C2528 H2498 0.931 . S
C2528 C2525 1.357 . S
C2528 C2529 1.312 . S
C2529 H2500 0.930 . S
C2529 C2524 1.261 . S
C2529 C2528 1.312 . S
C2530 O2502 1.214 . S
C2530 O2510 1.234 . S
C2531 H2503 0.929 . S
C2531 C2534 1.391 . S
C2531 C2536 1.391 . S
C2532 H2504 0.929 . S
C2532 C2533 1.390 . S
C2532 N2535 1.391 . S
C2533 H2505 0.930 . S
C2533 C2532 1.390 . S
C2533 C2534 1.392 . S
C2534 H2506 0.929 . S
C2534 C2531 1.391 . S
C2534 C2533 1.392 . S
N2535 Co2479 2.257 . S
N2535 C2532 1.391 . S
N2535 C2536 1.388 . S
C2536 H2507 0.930 . S
C2536 C2531 1.391 . S
C2536 N2535 1.388 . S
Co2537 O2539 2.143 . S
Co2537 O2545 2.074 . S
Co2537 O2548 2.093 . S
Co2537 O2561 2.097 . S
Co2537 N2578 2.151 . S
Co2537 N2586 2.214 . S
Co2538 O2539 2.160 . S
Co2538 O2544 2.058 . S
Co2538 O2554 2.057 . S
Co2538 O2569 2.037 . S
Co2538 N2573 2.145 . S
Co2538 N2594 2.257 . S
O2539 Co2537 2.143 . S
O2539 Co2538 2.160 . S
C2540 O2541 1.278 . S
C2540 O2548 1.224 . S
O2541 C2540 1.278 . S
C2542 O2543 1.245 . S
C2542 O2554 1.232 . S
O2543 C2542 1.245 . S
O2544 Co2538 2.058 . S
O2544 C2570 1.269 . S
O2545 Co2537 2.074 . S
O2545 C2570 1.257 . S
H2546 C2571 0.930 . S
H2547 C2577 0.930 . S
O2548 Co2537 2.093 . S
O2548 C2540 1.224 . S
H2549 C2581 0.929 . S
H2550 C2583 0.930 . S
H2551 C2584 0.930 . S
H2552 C2582 0.929 . S
H2553 C2585 0.928 . S
O2554 Co2538 2.057 . S
O2554 C2542 1.232 . S
H2555 C2574 0.929 . S
H2556 C2575 0.929 . S
H2557 C2587 0.931 . S
H2558 C2579 0.929 . S
H2559 C2588 0.930 . S
H2560 C2580 0.931 . S
O2561 Co2537 2.097 . S
O2561 C2589 1.214 . S
H2562 C2590 0.929 . S
H2563 C2591 0.929 . S
H2564 C2592 0.930 . S
H2565 C2593 0.929 . S
H2566 C2595 0.930 . S
H2567 C2572 0.930 . S
H2568 C2576 0.930 . S
O2569 Co2538 2.037 . S
O2569 C2589 1.234 . S
C2570 O2544 1.269 . S
C2570 O2545 1.257 . S
C2571 H2546 0.930 . S
C2571 C2574 1.388 . S
C2571 C2576 1.418 . S
C2572 H2567 0.930 . S
C2572 C2575 1.404 . S
C2572 C2576 1.353 . S
N2573 Co2538 2.145 . S
N2573 C2574 1.397 . S
N2573 C2575 1.334 . S
C2574 H2555 0.929 . S
C2574 C2571 1.388 . S
C2574 N2573 1.397 . S
C2575 H2556 0.929 . S
C2575 C2572 1.404 . S
C2575 N2573 1.334 . S
C2576 H2568 0.930 . S
C2576 C2571 1.418 . S
C2576 C2572 1.353 . S
C2577 H2547 0.930 . S
C2577 N2578 1.330 . S
C2577 C2579 1.446 . S
N2578 Co2537 2.151 . S
N2578 C2577 1.330 . S
N2578 C2582 1.418 . S
C2579 H2558 0.929 . S
C2579 C2577 1.446 . S
C2579 C2580 1.332 . S
C2580 H2560 0.931 . S
C2580 C2579 1.332 . S
C2580 C2581 1.267 . S
C2581 H2549 0.929 . S
C2581 C2580 1.267 . S
C2581 C2582 1.251 . S
C2582 H2552 0.929 . S
C2582 N2578 1.418 . S
C2582 C2581 1.251 . S
C2583 H2550 0.930 . S
C2583 C2585 1.406 . S
C2583 C2588 1.261 . S
C2584 H2551 0.930 . S
C2584 N2586 1.325 . S
C2584 C2587 1.357 . S
C2585 H2553 0.928 . S
C2585 C2583 1.406 . S
C2585 N2586 1.261 . S
N2586 Co2537 2.214 . S
N2586 C2584 1.325 . S
N2586 C2585 1.261 . S
C2587 H2557 0.931 . S
C2587 C2584 1.357 . S
C2587 C2588 1.312 . S
C2588 H2559 0.930 . S
C2588 C2583 1.261 . S
C2588 C2587 1.312 . S
C2589 O2561 1.214 . S
C2589 O2569 1.234 . S
C2590 H2562 0.929 . S
C2590 C2593 1.391 . S
C2590 C2595 1.391 . S
C2591 H2563 0.929 . S
C2591 C2592 1.390 . S
C2591 N2594 1.391 . S
C2592 H2564 0.930 . S
C2592 C2591 1.390 . S
C2592 C2593 1.392 . S
C2593 H2565 0.929 . S
C2593 C2590 1.391 . S
C2593 C2592 1.392 . S
N2594 Co2538 2.257 . S
N2594 C2591 1.391 . S
N2594 C2595 1.388 . S
C2595 H2566 0.930 . S
C2595 C2590 1.391 . S
C2595 N2594 1.388 . S
Co2596 O2598 2.143 . S
Co2596 O2604 2.074 . S
Co2596 O2607 2.093 . S
Co2596 O2620 2.097 . S
Co2596 N2637 2.151 . S
Co2596 N2645 2.214 . S
Co2597 O2598 2.160 . S
Co2597 O2603 2.058 . S
Co2597 O2613 2.057 . S
Co2597 O2628 2.037 . S
Co2597 N2632 2.145 . S
Co2597 N2653 2.257 . S
O2598 Co2596 2.143 . S
O2598 Co2597 2.160 . S
C2599 O2600 1.278 . S
C2599 O2607 1.224 . S
O2600 C2599 1.278 . S
C2601 O2602 1.245 . S
C2601 O2613 1.232 . S
O2602 C2601 1.245 . S
O2603 Co2597 2.058 . S
O2603 C2629 1.269 . S
O2604 Co2596 2.074 . S
O2604 C2629 1.257 . S
H2605 C2630 0.930 . S
H2606 C2636 0.930 . S
O2607 Co2596 2.093 . S
O2607 C2599 1.224 . S
H2608 C2640 0.929 . S
H2609 C2642 0.930 . S
H2610 C2643 0.930 . S
H2611 C2641 0.929 . S
H2612 C2644 0.928 . S
O2613 Co2597 2.057 . S
O2613 C2601 1.232 . S
H2614 C2633 0.929 . S
H2615 C2634 0.929 . S
H2616 C2646 0.931 . S
H2617 C2638 0.929 . S
H2618 C2647 0.930 . S
H2619 C2639 0.931 . S
O2620 Co2596 2.097 . S
O2620 C2648 1.214 . S
H2621 C2649 0.929 . S
H2622 C2650 0.929 . S
H2623 C2651 0.930 . S
H2624 C2652 0.929 . S
H2625 C2654 0.930 . S
H2626 C2631 0.930 . S
H2627 C2635 0.930 . S
O2628 Co2597 2.037 . S
O2628 C2648 1.234 . S
C2629 O2603 1.269 . S
C2629 O2604 1.257 . S
C2630 H2605 0.930 . S
C2630 C2633 1.388 . S
C2630 C2635 1.418 . S
C2631 H2626 0.930 . S
C2631 C2634 1.404 . S
C2631 C2635 1.353 . S
N2632 Co2597 2.145 . S
N2632 C2633 1.397 . S
N2632 C2634 1.334 . S
C2633 H2614 0.929 . S
C2633 C2630 1.388 . S
C2633 N2632 1.397 . S
C2634 H2615 0.929 . S
C2634 C2631 1.404 . S
C2634 N2632 1.334 . S
C2635 H2627 0.930 . S
C2635 C2630 1.418 . S
C2635 C2631 1.353 . S
C2636 H2606 0.930 . S
C2636 N2637 1.330 . S
C2636 C2638 1.446 . S
N2637 Co2596 2.151 . S
N2637 C2636 1.330 . S
N2637 C2641 1.418 . S
C2638 H2617 0.929 . S
C2638 C2636 1.446 . S
C2638 C2639 1.332 . S
C2639 H2619 0.931 . S
C2639 C2638 1.332 . S
C2639 C2640 1.267 . S
C2640 H2608 0.929 . S
C2640 C2639 1.267 . S
C2640 C2641 1.251 . S
C2641 H2611 0.929 . S
C2641 N2637 1.418 . S
C2641 C2640 1.251 . S
C2642 H2609 0.930 . S
C2642 C2644 1.406 . S
C2642 C2647 1.261 . S
C2643 H2610 0.930 . S
C2643 N2645 1.325 . S
C2643 C2646 1.357 . S
C2644 H2612 0.928 . S
C2644 C2642 1.406 . S
C2644 N2645 1.261 . S
N2645 Co2596 2.214 . S
N2645 C2643 1.325 . S
N2645 C2644 1.261 . S
C2646 H2616 0.931 . S
C2646 C2643 1.357 . S
C2646 C2647 1.312 . S
C2647 H2618 0.930 . S
C2647 C2642 1.261 . S
C2647 C2646 1.312 . S
C2648 O2620 1.214 . S
C2648 O2628 1.234 . S
C2649 H2621 0.929 . S
C2649 C2652 1.391 . S
C2649 C2654 1.391 . S
C2650 H2622 0.929 . S
C2650 C2651 1.390 . S
C2650 N2653 1.391 . S
C2651 H2623 0.930 . S
C2651 C2650 1.390 . S
C2651 C2652 1.392 . S
C2652 H2624 0.929 . S
C2652 C2649 1.391 . S
C2652 C2651 1.392 . S
N2653 Co2597 2.257 . S
N2653 C2650 1.391 . S
N2653 C2654 1.388 . S
C2654 H2625 0.930 . S
C2654 C2649 1.391 . S
C2654 N2653 1.388 . S
Co2655 O2657 2.143 . S
Co2655 O2663 2.074 . S
Co2655 O2666 2.093 . S
Co2655 O2679 2.097 . S
Co2655 N2696 2.151 . S
Co2655 N2704 2.214 . S
Co2656 O2657 2.160 . S
Co2656 O2662 2.058 . S
Co2656 O2672 2.057 . S
Co2656 O2687 2.037 . S
Co2656 N2691 2.145 . S
Co2656 N2712 2.257 . S
O2657 Co2655 2.143 . S
O2657 Co2656 2.160 . S
C2658 O2659 1.278 . S
C2658 O2666 1.224 . S
O2659 C2658 1.278 . S
C2660 O2661 1.245 . S
C2660 O2672 1.232 . S
O2661 C2660 1.245 . S
O2662 Co2656 2.058 . S
O2662 C2688 1.269 . S
O2663 Co2655 2.074 . S
O2663 C2688 1.257 . S
H2664 C2689 0.930 . S
H2665 C2695 0.930 . S
O2666 Co2655 2.093 . S
O2666 C2658 1.224 . S
H2667 C2699 0.929 . S
H2668 C2701 0.930 . S
H2669 C2702 0.930 . S
H2670 C2700 0.929 . S
H2671 C2703 0.928 . S
O2672 Co2656 2.057 . S
O2672 C2660 1.232 . S
H2673 C2692 0.929 . S
H2674 C2693 0.929 . S
H2675 C2705 0.931 . S
H2676 C2697 0.929 . S
H2677 C2706 0.930 . S
H2678 C2698 0.931 . S
O2679 Co2655 2.097 . S
O2679 C2707 1.214 . S
H2680 C2708 0.929 . S
H2681 C2709 0.929 . S
H2682 C2710 0.930 . S
H2683 C2711 0.929 . S
H2684 C2713 0.930 . S
H2685 C2690 0.930 . S
H2686 C2694 0.930 . S
O2687 Co2656 2.037 . S
O2687 C2707 1.234 . S
C2688 O2662 1.269 . S
C2688 O2663 1.257 . S
C2689 H2664 0.930 . S
C2689 C2692 1.388 . S
C2689 C2694 1.418 . S
C2690 H2685 0.930 . S
C2690 C2693 1.404 . S
C2690 C2694 1.353 . S
N2691 Co2656 2.145 . S
N2691 C2692 1.397 . S
N2691 C2693 1.334 . S
C2692 H2673 0.929 . S
C2692 C2689 1.388 . S
C2692 N2691 1.397 . S
C2693 H2674 0.929 . S
C2693 C2690 1.404 . S
C2693 N2691 1.334 . S
C2694 H2686 0.930 . S
C2694 C2689 1.418 . S
C2694 C2690 1.353 . S
C2695 H2665 0.930 . S
C2695 N2696 1.330 . S
C2695 C2697 1.446 . S
N2696 Co2655 2.151 . S
N2696 C2695 1.330 . S
N2696 C2700 1.418 . S
C2697 H2676 0.929 . S
C2697 C2695 1.446 . S
C2697 C2698 1.332 . S
C2698 H2678 0.931 . S
C2698 C2697 1.332 . S
C2698 C2699 1.267 . S
C2699 H2667 0.929 . S
C2699 C2698 1.267 . S
C2699 C2700 1.251 . S
C2700 H2670 0.929 . S
C2700 N2696 1.418 . S
C2700 C2699 1.251 . S
C2701 H2668 0.930 . S
C2701 C2703 1.406 . S
C2701 C2706 1.261 . S
C2702 H2669 0.930 . S
C2702 N2704 1.325 . S
C2702 C2705 1.357 . S
C2703 H2671 0.928 . S
C2703 C2701 1.406 . S
C2703 N2704 1.261 . S
N2704 Co2655 2.214 . S
N2704 C2702 1.325 . S
N2704 C2703 1.261 . S
C2705 H2675 0.931 . S
C2705 C2702 1.357 . S
C2705 C2706 1.312 . S
C2706 H2677 0.930 . S
C2706 C2701 1.261 . S
C2706 C2705 1.312 . S
C2707 O2679 1.214 . S
C2707 O2687 1.234 . S
C2708 H2680 0.929 . S
C2708 C2711 1.391 . S
C2708 C2713 1.391 . S
C2709 H2681 0.929 . S
C2709 C2710 1.390 . S
C2709 N2712 1.391 . S
C2710 H2682 0.930 . S
C2710 C2709 1.390 . S
C2710 C2711 1.392 . S
C2711 H2683 0.929 . S
C2711 C2708 1.391 . S
C2711 C2710 1.392 . S
N2712 Co2656 2.257 . S
N2712 C2709 1.391 . S
N2712 C2713 1.388 . S
C2713 H2684 0.930 . S
C2713 C2708 1.391 . S
C2713 N2712 1.388 . S
Co2714 O2716 2.143 . S
Co2714 O2722 2.074 . S
Co2714 O2725 2.093 . S
Co2714 O2738 2.097 . S
Co2714 N2755 2.151 . S
Co2714 N2763 2.214 . S
Co2715 O2716 2.160 . S
Co2715 O2721 2.058 . S
Co2715 O2731 2.057 . S
Co2715 O2746 2.037 . S
Co2715 N2750 2.145 . S
Co2715 N2771 2.257 . S
O2716 Co2714 2.143 . S
O2716 Co2715 2.160 . S
C2717 O2718 1.278 . S
C2717 O2725 1.224 . S
O2718 C2717 1.278 . S
C2719 O2720 1.245 . S
C2719 O2731 1.232 . S
O2720 C2719 1.245 . S
O2721 Co2715 2.058 . S
O2721 C2747 1.269 . S
O2722 Co2714 2.074 . S
O2722 C2747 1.257 . S
H2723 C2748 0.930 . S
H2724 C2754 0.930 . S
O2725 Co2714 2.093 . S
O2725 C2717 1.224 . S
H2726 C2758 0.929 . S
H2727 C2760 0.930 . S
H2728 C2761 0.930 . S
H2729 C2759 0.929 . S
H2730 C2762 0.928 . S
O2731 Co2715 2.057 . S
O2731 C2719 1.232 . S
H2732 C2751 0.929 . S
H2733 C2752 0.929 . S
H2734 C2764 0.931 . S
H2735 C2756 0.929 . S
H2736 C2765 0.930 . S
H2737 C2757 0.931 . S
O2738 Co2714 2.097 . S
O2738 C2766 1.214 . S
H2739 C2767 0.929 . S
H2740 C2768 0.929 . S
H2741 C2769 0.930 . S
H2742 C2770 0.929 . S
H2743 C2772 0.930 . S
H2744 C2749 0.930 . S
H2745 C2753 0.930 . S
O2746 Co2715 2.037 . S
O2746 C2766 1.234 . S
C2747 O2721 1.269 . S
C2747 O2722 1.257 . S
C2748 H2723 0.930 . S
C2748 C2751 1.388 . S
C2748 C2753 1.418 . S
C2749 H2744 0.930 . S
C2749 C2752 1.404 . S
C2749 C2753 1.353 . S
N2750 Co2715 2.145 . S
N2750 C2751 1.397 . S
N2750 C2752 1.334 . S
C2751 H2732 0.929 . S
C2751 C2748 1.388 . S
C2751 N2750 1.397 . S
C2752 H2733 0.929 . S
C2752 C2749 1.404 . S
C2752 N2750 1.334 . S
C2753 H2745 0.930 . S
C2753 C2748 1.418 . S
C2753 C2749 1.353 . S
C2754 H2724 0.930 . S
C2754 N2755 1.330 . S
C2754 C2756 1.446 . S
N2755 Co2714 2.151 . S
N2755 C2754 1.330 . S
N2755 C2759 1.418 . S
C2756 H2735 0.929 . S
C2756 C2754 1.446 . S
C2756 C2757 1.332 . S
C2757 H2737 0.931 . S
C2757 C2756 1.332 . S
C2757 C2758 1.267 . S
C2758 H2726 0.929 . S
C2758 C2757 1.267 . S
C2758 C2759 1.251 . S
C2759 H2729 0.929 . S
C2759 N2755 1.418 . S
C2759 C2758 1.251 . S
C2760 H2727 0.930 . S
C2760 C2762 1.406 . S
C2760 C2765 1.261 . S
C2761 H2728 0.930 . S
C2761 N2763 1.325 . S
C2761 C2764 1.357 . S
C2762 H2730 0.928 . S
C2762 C2760 1.406 . S
C2762 N2763 1.261 . S
N2763 Co2714 2.214 . S
N2763 C2761 1.325 . S
N2763 C2762 1.261 . S
C2764 H2734 0.931 . S
C2764 C2761 1.357 . S
C2764 C2765 1.312 . S
C2765 H2736 0.930 . S
C2765 C2760 1.261 . S
C2765 C2764 1.312 . S
C2766 O2738 1.214 . S
C2766 O2746 1.234 . S
C2767 H2739 0.929 . S
C2767 C2770 1.391 . S
C2767 C2772 1.391 . S
C2768 H2740 0.929 . S
C2768 C2769 1.390 . S
C2768 N2771 1.391 . S
C2769 H2741 0.930 . S
C2769 C2768 1.390 . S
C2769 C2770 1.392 . S
C2770 H2742 0.929 . S
C2770 C2767 1.391 . S
C2770 C2769 1.392 . S
N2771 Co2715 2.257 . S
N2771 C2768 1.391 . S
N2771 C2772 1.388 . S
C2772 H2743 0.930 . S
C2772 C2767 1.391 . S
C2772 N2771 1.388 . S
Co2773 O2775 2.143 . S
Co2773 O2781 2.074 . S
Co2773 O2784 2.093 . S
Co2773 O2797 2.097 . S
Co2773 N2814 2.151 . S
Co2773 N2822 2.214 . S
Co2774 O2775 2.160 . S
Co2774 O2780 2.058 . S
Co2774 O2790 2.057 . S
Co2774 O2805 2.037 . S
Co2774 N2809 2.145 . S
Co2774 N2830 2.257 . S
O2775 Co2773 2.143 . S
O2775 Co2774 2.160 . S
C2776 O2777 1.278 . S
C2776 O2784 1.224 . S
O2777 C2776 1.278 . S
C2778 O2779 1.245 . S
C2778 O2790 1.232 . S
O2779 C2778 1.245 . S
O2780 Co2774 2.058 . S
O2780 C2806 1.269 . S
O2781 Co2773 2.074 . S
O2781 C2806 1.257 . S
H2782 C2807 0.930 . S
H2783 C2813 0.930 . S
O2784 Co2773 2.093 . S
O2784 C2776 1.224 . S
H2785 C2817 0.929 . S
H2786 C2819 0.930 . S
H2787 C2820 0.930 . S
H2788 C2818 0.929 . S
H2789 C2821 0.928 . S
O2790 Co2774 2.057 . S
O2790 C2778 1.232 . S
H2791 C2810 0.929 . S
H2792 C2811 0.929 . S
H2793 C2823 0.931 . S
H2794 C2815 0.929 . S
H2795 C2824 0.930 . S
H2796 C2816 0.931 . S
O2797 Co2773 2.097 . S
O2797 C2825 1.214 . S
H2798 C2826 0.929 . S
H2799 C2827 0.929 . S
H2800 C2828 0.930 . S
H2801 C2829 0.929 . S
H2802 C2831 0.930 . S
H2803 C2808 0.930 . S
H2804 C2812 0.930 . S
O2805 Co2774 2.037 . S
O2805 C2825 1.234 . S
C2806 O2780 1.269 . S
C2806 O2781 1.257 . S
C2807 H2782 0.930 . S
C2807 C2810 1.388 . S
C2807 C2812 1.418 . S
C2808 H2803 0.930 . S
C2808 C2811 1.404 . S
C2808 C2812 1.353 . S
N2809 Co2774 2.145 . S
N2809 C2810 1.397 . S
N2809 C2811 1.334 . S
C2810 H2791 0.929 . S
C2810 C2807 1.388 . S
C2810 N2809 1.397 . S
C2811 H2792 0.929 . S
C2811 C2808 1.404 . S
C2811 N2809 1.334 . S
C2812 H2804 0.930 . S
C2812 C2807 1.418 . S
C2812 C2808 1.353 . S
C2813 H2783 0.930 . S
C2813 N2814 1.330 . S
C2813 C2815 1.446 . S
N2814 Co2773 2.151 . S
N2814 C2813 1.330 . S
N2814 C2818 1.418 . S
C2815 H2794 0.929 . S
C2815 C2813 1.446 . S
C2815 C2816 1.332 . S
C2816 H2796 0.931 . S
C2816 C2815 1.332 . S
C2816 C2817 1.267 . S
C2817 H2785 0.929 . S
C2817 C2816 1.267 . S
C2817 C2818 1.251 . S
C2818 H2788 0.929 . S
C2818 N2814 1.418 . S
C2818 C2817 1.251 . S
C2819 H2786 0.930 . S
C2819 C2821 1.406 . S
C2819 C2824 1.261 . S
C2820 H2787 0.930 . S
C2820 N2822 1.325 . S
C2820 C2823 1.357 . S
C2821 H2789 0.928 . S
C2821 C2819 1.406 . S
C2821 N2822 1.261 . S
N2822 Co2773 2.214 . S
N2822 C2820 1.325 . S
N2822 C2821 1.261 . S
C2823 H2793 0.931 . S
C2823 C2820 1.357 . S
C2823 C2824 1.312 . S
C2824 H2795 0.930 . S
C2824 C2819 1.261 . S
C2824 C2823 1.312 . S
C2825 O2797 1.214 . S
C2825 O2805 1.234 . S
C2826 H2798 0.929 . S
C2826 C2829 1.391 . S
C2826 C2831 1.391 . S
C2827 H2799 0.929 . S
C2827 C2828 1.390 . S
C2827 N2830 1.391 . S
C2828 H2800 0.930 . S
C2828 C2827 1.390 . S
C2828 C2829 1.392 . S
C2829 H2801 0.929 . S
C2829 C2826 1.391 . S
C2829 C2828 1.392 . S
N2830 Co2774 2.257 . S
N2830 C2827 1.391 . S
N2830 C2831 1.388 . S
C2831 H2802 0.930 . S
C2831 C2826 1.391 . S
C2831 N2830 1.388 . S
C2832 C2833 1.369 . S
C2832 C2834 1.419 . S
C2832 H2836 0.930 . S
C2833 C2832 1.369 . S
C2833 C2842 1.429 . S
C2834 C2832 1.419 . S
C2834 C2835 1.363 . S
C2834 H2837 0.929 . S
C2835 C2834 1.363 . S
C2835 C2841 1.428 . S
H2836 C2832 0.930 . S
H2837 C2834 0.929 . S
S2838 N2839 1.613 . S
S2838 N2840 1.610 . S
N2839 S2838 1.613 . S
N2839 C2842 1.350 . S
N2840 S2838 1.610 . S
N2840 C2841 1.351 . S
C2841 C2835 1.428 . S
C2841 N2840 1.351 . S
C2841 C2842 1.434 . S
C2842 C2833 1.429 . S
C2842 N2839 1.350 . S
C2842 C2841 1.434 . S
C2843 C2844 1.369 . S
C2843 C2845 1.419 . S
C2843 H2847 0.930 . S
C2844 C2843 1.369 . S
C2844 C2853 1.429 . S
C2845 C2843 1.419 . S
C2845 C2846 1.363 . S
C2845 H2848 0.929 . S
C2846 C2845 1.363 . S
C2846 C2852 1.428 . S
H2847 C2843 0.930 . S
H2848 C2845 0.929 . S
S2849 N2850 1.613 . S
S2849 N2851 1.610 . S
N2850 S2849 1.613 . S
N2850 C2853 1.350 . S
N2851 S2849 1.610 . S
N2851 C2852 1.351 . S
C2852 C2846 1.428 . S
C2852 N2851 1.351 . S
C2852 C2853 1.434 . S
C2853 C2844 1.429 . S
C2853 N2850 1.350 . S
C2853 C2852 1.434 . S
C2854 C2855 1.369 . S
C2854 C2856 1.419 . S
C2854 H2858 0.930 . S
C2855 C2854 1.369 . S
C2855 C2864 1.429 . S
C2856 C2854 1.419 . S
C2856 C2857 1.363 . S
C2856 H2859 0.929 . S
C2857 C2856 1.363 . S
C2857 C2863 1.428 . S
H2858 C2854 0.930 . S
H2859 C2856 0.929 . S
S2860 N2861 1.613 . S
S2860 N2862 1.610 . S
N2861 S2860 1.613 . S
N2861 C2864 1.350 . S
N2862 S2860 1.610 . S
N2862 C2863 1.351 . S
C2863 C2857 1.428 . S
C2863 N2862 1.351 . S
C2863 C2864 1.434 . S
C2864 C2855 1.429 . S
C2864 N2861 1.350 . S
C2864 C2863 1.434 . S
C2865 C2866 1.369 . S
C2865 C2867 1.419 . S
C2865 H2869 0.930 . S
C2866 C2865 1.369 . S
C2866 C2875 1.429 . S
C2867 C2865 1.419 . S
C2867 C2868 1.363 . S
C2867 H2870 0.929 . S
C2868 C2867 1.363 . S
C2868 C2874 1.428 . S
H2869 C2865 0.930 . S
H2870 C2867 0.929 . S
S2871 N2872 1.613 . S
S2871 N2873 1.610 . S
N2872 S2871 1.613 . S
N2872 C2875 1.350 . S
N2873 S2871 1.610 . S
N2873 C2874 1.351 . S
C2874 C2868 1.428 . S
C2874 N2873 1.351 . S
C2874 C2875 1.434 . S
C2875 C2866 1.429 . S
C2875 N2872 1.350 . S
C2875 C2874 1.434 . S
C2876 C2877 1.369 . S
C2876 C2878 1.419 . S
C2876 H2880 0.930 . S
C2877 C2876 1.369 . S
C2877 C2886 1.429 . S
C2878 C2876 1.419 . S
C2878 C2879 1.363 . S
C2878 H2881 0.929 . S
C2879 C2878 1.363 . S
C2879 C2885 1.428 . S
H2880 C2876 0.930 . S
H2881 C2878 0.929 . S
S2882 N2883 1.613 . S
S2882 N2884 1.610 . S
N2883 S2882 1.613 . S
N2883 C2886 1.350 . S
N2884 S2882 1.610 . S
N2884 C2885 1.351 . S
C2885 C2879 1.428 . S
C2885 N2884 1.351 . S
C2885 C2886 1.434 . S
C2886 C2877 1.429 . S
C2886 N2883 1.350 . S
C2886 C2885 1.434 . S
C2887 C2888 1.369 . S
C2887 C2889 1.419 . S
C2887 H2891 0.930 . S
C2888 C2887 1.369 . S
C2888 C2897 1.429 . S
C2889 C2887 1.419 . S
C2889 C2890 1.363 . S
C2889 H2892 0.929 . S
C2890 C2889 1.363 . S
C2890 C2896 1.428 . S
H2891 C2887 0.930 . S
H2892 C2889 0.929 . S
S2893 N2894 1.613 . S
S2893 N2895 1.610 . S
N2894 S2893 1.613 . S
N2894 C2897 1.350 . S
N2895 S2893 1.610 . S
N2895 C2896 1.351 . S
C2896 C2890 1.428 . S
C2896 N2895 1.351 . S
C2896 C2897 1.434 . S
C2897 C2888 1.429 . S
C2897 N2894 1.350 . S
C2897 C2896 1.434 . S
C2898 C2899 1.369 . S
C2898 C2900 1.419 . S
C2898 H2902 0.930 . S
C2899 C2898 1.369 . S
C2899 C2908 1.429 . S
C2900 C2898 1.419 . S
C2900 C2901 1.363 . S
C2900 H2903 0.929 . S
C2901 C2900 1.363 . S
C2901 C2907 1.428 . S
H2902 C2898 0.930 . S
H2903 C2900 0.929 . S
S2904 N2905 1.613 . S
S2904 N2906 1.610 . S
N2905 S2904 1.613 . S
N2905 C2908 1.350 . S
N2906 S2904 1.610 . S
N2906 C2907 1.351 . S
C2907 C2901 1.428 . S
C2907 N2906 1.351 . S
C2907 C2908 1.434 . S
C2908 C2899 1.429 . S
C2908 N2905 1.350 . S
C2908 C2907 1.434 . S
C2909 C2910 1.369 . S
C2909 C2911 1.419 . S
C2909 H2913 0.930 . S
C2910 C2909 1.369 . S
C2910 C2919 1.429 . S
C2911 C2909 1.419 . S
C2911 C2912 1.363 . S
C2911 H2914 0.929 . S
C2912 C2911 1.363 . S
C2912 C2918 1.428 . S
H2913 C2909 0.930 . S
H2914 C2911 0.929 . S
S2915 N2916 1.613 . S
S2915 N2917 1.610 . S
N2916 S2915 1.613 . S
N2916 C2919 1.350 . S
N2917 S2915 1.610 . S
N2917 C2918 1.351 . S
C2918 C2912 1.428 . S
C2918 N2917 1.351 . S
C2918 C2919 1.434 . S
C2919 C2910 1.429 . S
C2919 N2916 1.350 . S
C2919 C2918 1.434 . S
C2920 C2921 1.369 . S
C2920 C2922 1.419 . S
C2920 H2924 0.930 . S
C2921 C2920 1.369 . S
C2921 C2930 1.429 . S
C2922 C2920 1.419 . S
C2922 C2923 1.363 . S
C2922 H2925 0.929 . S
C2923 C2922 1.363 . S
C2923 C2929 1.428 . S
H2924 C2920 0.930 . S
H2925 C2922 0.929 . S
S2926 N2927 1.613 . S
S2926 N2928 1.610 . S
N2927 S2926 1.613 . S
N2927 C2930 1.350 . S
N2928 S2926 1.610 . S
N2928 C2929 1.351 . S
C2929 C2923 1.428 . S
C2929 N2928 1.351 . S
C2929 C2930 1.434 . S
C2930 C2921 1.429 . S
C2930 N2927 1.350 . S
C2930 C2929 1.434 . S
C2931 C2932 1.369 . S
C2931 C2933 1.419 . S
C2931 H2935 0.930 . S
C2932 C2931 1.369 . S
C2932 C2941 1.429 . S
C2933 C2931 1.419 . S
C2933 C2934 1.363 . S
C2933 H2936 0.929 . S
C2934 C2933 1.363 . S
C2934 C2940 1.428 . S
H2935 C2931 0.930 . S
H2936 C2933 0.929 . S
S2937 N2938 1.613 . S
S2937 N2939 1.610 . S
N2938 S2937 1.613 . S
N2938 C2941 1.350 . S
N2939 S2937 1.610 . S
N2939 C2940 1.351 . S
C2940 C2934 1.428 . S
C2940 N2939 1.351 . S
C2940 C2941 1.434 . S
C2941 C2932 1.429 . S
C2941 N2938 1.350 . S
C2941 C2940 1.434 . S
C2942 C2943 1.369 . S
C2942 C2944 1.419 . S
C2942 H2946 0.930 . S
C2943 C2942 1.369 . S
C2943 C2952 1.429 . S
C2944 C2942 1.419 . S
C2944 C2945 1.363 . S
C2944 H2947 0.929 . S
C2945 C2944 1.363 . S
C2945 C2951 1.428 . S
H2946 C2942 0.930 . S
H2947 C2944 0.929 . S
S2948 N2949 1.613 . S
S2948 N2950 1.610 . S
N2949 S2948 1.613 . S
N2949 C2952 1.350 . S
N2950 S2948 1.610 . S
N2950 C2951 1.351 . S
C2951 C2945 1.428 . S
C2951 N2950 1.351 . S
C2951 C2952 1.434 . S
C2952 C2943 1.429 . S
C2952 N2949 1.350 . S
C2952 C2951 1.434 . S
C2953 C2954 1.369 . S
C2953 C2955 1.419 . S
C2953 H2957 0.930 . S
C2954 C2953 1.369 . S
C2954 C2963 1.429 . S
C2955 C2953 1.419 . S
C2955 C2956 1.363 . S
C2955 H2958 0.929 . S
C2956 C2955 1.363 . S
C2956 C2962 1.428 . S
H2957 C2953 0.930 . S
H2958 C2955 0.929 . S
S2959 N2960 1.613 . S
S2959 N2961 1.610 . S
N2960 S2959 1.613 . S
N2960 C2963 1.350 . S
N2961 S2959 1.610 . S
N2961 C2962 1.351 . S
C2962 C2956 1.428 . S
C2962 N2961 1.351 . S
C2962 C2963 1.434 . S
C2963 C2954 1.429 . S
C2963 N2960 1.350 . S
C2963 C2962 1.434 . S
C2964 C2965 1.369 . S
C2964 C2966 1.419 . S
C2964 H2968 0.930 . S
C2965 C2964 1.369 . S
C2965 C2974 1.429 . S
C2966 C2964 1.419 . S
C2966 C2967 1.363 . S
C2966 H2969 0.929 . S
C2967 C2966 1.363 . S
C2967 C2973 1.428 . S
H2968 C2964 0.930 . S
H2969 C2966 0.929 . S
S2970 N2971 1.613 . S
S2970 N2972 1.610 . S
N2971 S2970 1.613 . S
N2971 C2974 1.350 . S
N2972 S2970 1.610 . S
N2972 C2973 1.351 . S
C2973 C2967 1.428 . S
C2973 N2972 1.351 . S
C2973 C2974 1.434 . S
C2974 C2965 1.429 . S
C2974 N2971 1.350 . S
C2974 C2973 1.434 . S
C2975 C2976 1.369 . S
C2975 C2977 1.419 . S
C2975 H2979 0.930 . S
C2976 C2975 1.369 . S
C2976 C2985 1.429 . S
C2977 C2975 1.419 . S
C2977 C2978 1.363 . S
C2977 H2980 0.929 . S
C2978 C2977 1.363 . S
C2978 C2984 1.428 . S
H2979 C2975 0.930 . S
H2980 C2977 0.929 . S
S2981 N2982 1.613 . S
S2981 N2983 1.610 . S
N2982 S2981 1.613 . S
N2982 C2985 1.350 . S
N2983 S2981 1.610 . S
N2983 C2984 1.351 . S
C2984 C2978 1.428 . S
C2984 N2983 1.351 . S
C2984 C2985 1.434 . S
C2985 C2976 1.429 . S
C2985 N2982 1.350 . S
C2985 C2984 1.434 . S
C2986 C2987 1.369 . S
C2986 C2988 1.419 . S
C2986 H2990 0.930 . S
C2987 C2986 1.369 . S
C2987 C2996 1.429 . S
C2988 C2986 1.419 . S
C2988 C2989 1.363 . S
C2988 H2991 0.929 . S
C2989 C2988 1.363 . S
C2989 C2995 1.428 . S
H2990 C2986 0.930 . S
H2991 C2988 0.929 . S
S2992 N2993 1.613 . S
S2992 N2994 1.610 . S
N2993 S2992 1.613 . S
N2993 C2996 1.350 . S
N2994 S2992 1.610 . S
N2994 C2995 1.351 . S
C2995 C2989 1.428 . S
C2995 N2994 1.351 . S
C2995 C2996 1.434 . S
C2996 C2987 1.429 . S
C2996 N2993 1.350 . S
C2996 C2995 1.434 . S
C2997 C2998 1.369 . S
C2997 C2999 1.419 . S
C2997 H3001 0.930 . S
C2998 C2997 1.369 . S
C2998 C3007 1.429 . S
C2999 C2997 1.419 . S
C2999 C3000 1.363 . S
C2999 H3002 0.929 . S
C3000 C2999 1.363 . S
C3000 C3006 1.428 . S
H3001 C2997 0.930 . S
H3002 C2999 0.929 . S
S3003 N3004 1.613 . S
S3003 N3005 1.610 . S
N3004 S3003 1.613 . S
N3004 C3007 1.350 . S
N3005 S3003 1.610 . S
N3005 C3006 1.351 . S
C3006 C3000 1.428 . S
C3006 N3005 1.351 . S
C3006 C3007 1.434 . S
C3007 C2998 1.429 . S
C3007 N3004 1.350 . S
C3007 C3006 1.434 . S
C3008 C3009 1.369 . S
C3008 C3010 1.419 . S
C3008 H3012 0.930 . S
C3009 C3008 1.369 . S
C3009 C3018 1.429 . S
C3010 C3008 1.419 . S
C3010 C3011 1.363 . S
C3010 H3013 0.929 . S
C3011 C3010 1.363 . S
C3011 C3017 1.428 . S
H3012 C3008 0.930 . S
H3013 C3010 0.929 . S
S3014 N3015 1.613 . S
S3014 N3016 1.610 . S
N3015 S3014 1.613 . S
N3015 C3018 1.350 . S
N3016 S3014 1.610 . S
N3016 C3017 1.351 . S
C3017 C3011 1.428 . S
C3017 N3016 1.351 . S
C3017 C3018 1.434 . S
C3018 C3009 1.429 . S
C3018 N3015 1.350 . S
C3018 C3017 1.434 . S
C3019 C3020 1.369 . S
C3019 C3021 1.419 . S
C3019 H3023 0.930 . S
C3020 C3019 1.369 . S
C3020 C3029 1.429 . S
C3021 C3019 1.419 . S
C3021 C3022 1.363 . S
C3021 H3024 0.929 . S
C3022 C3021 1.363 . S
C3022 C3028 1.428 . S
H3023 C3019 0.930 . S
H3024 C3021 0.929 . S
S3025 N3026 1.613 . S
S3025 N3027 1.610 . S
N3026 S3025 1.613 . S
N3026 C3029 1.350 . S
N3027 S3025 1.610 . S
N3027 C3028 1.351 . S
C3028 C3022 1.428 . S
C3028 N3027 1.351 . S
C3028 C3029 1.434 . S
C3029 C3020 1.429 . S
C3029 N3026 1.350 . S
C3029 C3028 1.434 . S
C3030 C3031 1.369 . S
C3030 C3032 1.419 . S
C3030 H3034 0.930 . S
C3031 C3030 1.369 . S
C3031 C3040 1.429 . S
C3032 C3030 1.419 . S
C3032 C3033 1.363 . S
C3032 H3035 0.929 . S
C3033 C3032 1.363 . S
C3033 C3039 1.428 . S
H3034 C3030 0.930 . S
H3035 C3032 0.929 . S
S3036 N3037 1.613 . S
S3036 N3038 1.610 . S
N3037 S3036 1.613 . S
N3037 C3040 1.350 . S
N3038 S3036 1.610 . S
N3038 C3039 1.351 . S
C3039 C3033 1.428 . S
C3039 N3038 1.351 . S
C3039 C3040 1.434 . S
C3040 C3031 1.429 . S
C3040 N3037 1.350 . S
C3040 C3039 1.434 . S
C3041 C3042 1.369 . S
C3041 C3043 1.419 . S
C3041 H3045 0.930 . S
C3042 C3041 1.369 . S
C3042 C3051 1.429 . S
C3043 C3041 1.419 . S
C3043 C3044 1.363 . S
C3043 H3046 0.929 . S
C3044 C3043 1.363 . S
C3044 C3050 1.428 . S
H3045 C3041 0.930 . S
H3046 C3043 0.929 . S
S3047 N3048 1.613 . S
S3047 N3049 1.610 . S
N3048 S3047 1.613 . S
N3048 C3051 1.350 . S
N3049 S3047 1.610 . S
N3049 C3050 1.351 . S
C3050 C3044 1.428 . S
C3050 N3049 1.351 . S
C3050 C3051 1.434 . S
C3051 C3042 1.429 . S
C3051 N3048 1.350 . S
C3051 C3050 1.434 . S
C3052 C3053 1.369 . S
C3052 C3054 1.419 . S
C3052 H3056 0.930 . S
C3053 C3052 1.369 . S
C3053 C3062 1.429 . S
C3054 C3052 1.419 . S
C3054 C3055 1.363 . S
C3054 H3057 0.929 . S
C3055 C3054 1.363 . S
C3055 C3061 1.428 . S
H3056 C3052 0.930 . S
H3057 C3054 0.929 . S
S3058 N3059 1.613 . S
S3058 N3060 1.610 . S
N3059 S3058 1.613 . S
N3059 C3062 1.350 . S
N3060 S3058 1.610 . S
N3060 C3061 1.351 . S
C3061 C3055 1.428 . S
C3061 N3060 1.351 . S
C3061 C3062 1.434 . S
C3062 C3053 1.429 . S
C3062 N3059 1.350 . S
C3062 C3061 1.434 . S
C3063 C3064 1.369 . S
C3063 C3065 1.419 . S
C3063 H3067 0.930 . S
C3064 C3063 1.369 . S
C3064 C3073 1.429 . S
C3065 C3063 1.419 . S
C3065 C3066 1.363 . S
C3065 H3068 0.929 . S
C3066 C3065 1.363 . S
C3066 C3072 1.428 . S
H3067 C3063 0.930 . S
H3068 C3065 0.929 . S
S3069 N3070 1.613 . S
S3069 N3071 1.610 . S
N3070 S3069 1.613 . S
N3070 C3073 1.350 . S
N3071 S3069 1.610 . S
N3071 C3072 1.351 . S
C3072 C3066 1.428 . S
C3072 N3071 1.351 . S
C3072 C3073 1.434 . S
C3073 C3064 1.429 . S
C3073 N3070 1.350 . S
C3073 C3072 1.434 . S
C3074 C3075 1.369 . S
C3074 C3076 1.419 . S
C3074 H3078 0.930 . S
C3075 C3074 1.369 . S
C3075 C3084 1.429 . S
C3076 C3074 1.419 . S
C3076 C3077 1.363 . S
C3076 H3079 0.929 . S
C3077 C3076 1.363 . S
C3077 C3083 1.428 . S
H3078 C3074 0.930 . S
H3079 C3076 0.929 . S
S3080 N3081 1.613 . S
S3080 N3082 1.610 . S
N3081 S3080 1.613 . S
N3081 C3084 1.350 . S
N3082 S3080 1.610 . S
N3082 C3083 1.351 . S
C3083 C3077 1.428 . S
C3083 N3082 1.351 . S
C3083 C3084 1.434 . S
C3084 C3075 1.429 . S
C3084 N3081 1.350 . S
C3084 C3083 1.434 . S
C3085 C3086 1.369 . S
C3085 C3087 1.419 . S
C3085 H3089 0.930 . S
C3086 C3085 1.369 . S
C3086 C3095 1.429 . S
C3087 C3085 1.419 . S
C3087 C3088 1.363 . S
C3087 H3090 0.929 . S
C3088 C3087 1.363 . S
C3088 C3094 1.428 . S
H3089 C3085 0.930 . S
H3090 C3087 0.929 . S
S3091 N3092 1.613 . S
S3091 N3093 1.610 . S
N3092 S3091 1.613 . S
N3092 C3095 1.350 . S
N3093 S3091 1.610 . S
N3093 C3094 1.351 . S
C3094 C3088 1.428 . S
C3094 N3093 1.351 . S
C3094 C3095 1.434 . S
C3095 C3086 1.429 . S
C3095 N3092 1.350 . S
C3095 C3094 1.434 . S
C3096 C3097 1.369 . S
C3096 C3098 1.419 . S
C3096 H3100 0.930 . S
C3097 C3096 1.369 . S
C3097 C3106 1.429 . S
C3098 C3096 1.419 . S
C3098 C3099 1.363 . S
C3098 H3101 0.929 . S
C3099 C3098 1.363 . S
C3099 C3105 1.428 . S
H3100 C3096 0.930 . S
H3101 C3098 0.929 . S
S3102 N3103 1.613 . S
S3102 N3104 1.610 . S
N3103 S3102 1.613 . S
N3103 C3106 1.350 . S
N3104 S3102 1.610 . S
N3104 C3105 1.351 . S
C3105 C3099 1.428 . S
C3105 N3104 1.351 . S
C3105 C3106 1.434 . S
C3106 C3097 1.429 . S
C3106 N3103 1.350 . S
C3106 C3105 1.434 . S
C3107 C3108 1.369 . S
C3107 C3109 1.419 . S
C3107 H3111 0.930 . S
C3108 C3107 1.369 . S
C3108 C3117 1.429 . S
C3109 C3107 1.419 . S
C3109 C3110 1.363 . S
C3109 H3112 0.929 . S
C3110 C3109 1.363 . S
C3110 C3116 1.428 . S
H3111 C3107 0.930 . S
H3112 C3109 0.929 . S
S3113 N3114 1.613 . S
S3113 N3115 1.610 . S
N3114 S3113 1.613 . S
N3114 C3117 1.350 . S
N3115 S3113 1.610 . S
N3115 C3116 1.351 . S
C3116 C3110 1.428 . S
C3116 N3115 1.351 . S
C3116 C3117 1.434 . S
C3117 C3108 1.429 . S
C3117 N3114 1.350 . S
C3117 C3116 1.434 . S
C3118 C3119 1.369 . S
C3118 C3120 1.419 . S
C3118 H3122 0.930 . S
C3119 C3118 1.369 . S
C3119 C3128 1.429 . S
C3120 C3118 1.419 . S
C3120 C3121 1.363 . S
C3120 H3123 0.929 . S
C3121 C3120 1.363 . S
C3121 C3127 1.428 . S
H3122 C3118 0.930 . S
H3123 C3120 0.929 . S
S3124 N3125 1.613 . S
S3124 N3126 1.610 . S
N3125 S3124 1.613 . S
N3125 C3128 1.350 . S
N3126 S3124 1.610 . S
N3126 C3127 1.351 . S
C3127 C3121 1.428 . S
C3127 N3126 1.351 . S
C3127 C3128 1.434 . S
C3128 C3119 1.429 . S
C3128 N3125 1.350 . S
C3128 C3127 1.434 . S
C3129 C3130 1.369 . S
C3129 C3131 1.419 . S
C3129 H3133 0.930 . S
C3130 C3129 1.369 . S
C3130 C3139 1.429 . S
C3131 C3129 1.419 . S
C3131 C3132 1.363 . S
C3131 H3134 0.929 . S
C3132 C3131 1.363 . S
C3132 C3138 1.428 . S
H3133 C3129 0.930 . S
H3134 C3131 0.929 . S
S3135 N3136 1.613 . S
S3135 N3137 1.610 . S
N3136 S3135 1.613 . S
N3136 C3139 1.350 . S
N3137 S3135 1.610 . S
N3137 C3138 1.351 . S
C3138 C3132 1.428 . S
C3138 N3137 1.351 . S
C3138 C3139 1.434 . S
C3139 C3130 1.429 . S
C3139 N3136 1.350 . S
C3139 C3138 1.434 . S
C3140 C3141 1.369 . S
C3140 C3142 1.419 . S
C3140 H3144 0.930 . S
C3141 C3140 1.369 . S
C3141 C3150 1.429 . S
C3142 C3140 1.419 . S
C3142 C3143 1.363 . S
C3142 H3145 0.929 . S
C3143 C3142 1.363 . S
C3143 C3149 1.428 . S
H3144 C3140 0.930 . S
H3145 C3142 0.929 . S
S3146 N3147 1.613 . S
S3146 N3148 1.610 . S
N3147 S3146 1.613 . S
N3147 C3150 1.350 . S
N3148 S3146 1.610 . S
N3148 C3149 1.351 . S
C3149 C3143 1.428 . S
C3149 N3148 1.351 . S
C3149 C3150 1.434 . S
C3150 C3141 1.429 . S
C3150 N3147 1.350 . S
C3150 C3149 1.434 . S
C3151 C3152 1.369 . S
C3151 C3153 1.419 . S
C3151 H3155 0.930 . S
C3152 C3151 1.369 . S
C3152 C3161 1.429 . S
C3153 C3151 1.419 . S
C3153 C3154 1.363 . S
C3153 H3156 0.929 . S
C3154 C3153 1.363 . S
C3154 C3160 1.428 . S
H3155 C3151 0.930 . S
H3156 C3153 0.929 . S
S3157 N3158 1.613 . S
S3157 N3159 1.610 . S
N3158 S3157 1.613 . S
N3158 C3161 1.350 . S
N3159 S3157 1.610 . S
N3159 C3160 1.351 . S
C3160 C3154 1.428 . S
C3160 N3159 1.351 . S
C3160 C3161 1.434 . S
C3161 C3152 1.429 . S
C3161 N3158 1.350 . S
C3161 C3160 1.434 . S
C3162 C3163 1.369 . S
C3162 C3164 1.419 . S
C3162 H3166 0.930 . S
C3163 C3162 1.369 . S
C3163 C3172 1.429 . S
C3164 C3162 1.419 . S
C3164 C3165 1.363 . S
C3164 H3167 0.929 . S
C3165 C3164 1.363 . S
C3165 C3171 1.428 . S
H3166 C3162 0.930 . S
H3167 C3164 0.929 . S
S3168 N3169 1.613 . S
S3168 N3170 1.610 . S
N3169 S3168 1.613 . S
N3169 C3172 1.350 . S
N3170 S3168 1.610 . S
N3170 C3171 1.351 . S
C3171 C3165 1.428 . S
C3171 N3170 1.351 . S
C3171 C3172 1.434 . S
C3172 C3163 1.429 . S
C3172 N3169 1.350 . S
C3172 C3171 1.434 . S
C3173 C3174 1.369 . S
C3173 C3175 1.419 . S
C3173 H3177 0.930 . S
C3174 C3173 1.369 . S
C3174 C3183 1.429 . S
C3175 C3173 1.419 . S
C3175 C3176 1.363 . S
C3175 H3178 0.929 . S
C3176 C3175 1.363 . S
C3176 C3182 1.428 . S
H3177 C3173 0.930 . S
H3178 C3175 0.929 . S
S3179 N3180 1.613 . S
S3179 N3181 1.610 . S
N3180 S3179 1.613 . S
N3180 C3183 1.350 . S
N3181 S3179 1.610 . S
N3181 C3182 1.351 . S
C3182 C3176 1.428 . S
C3182 N3181 1.351 . S
C3182 C3183 1.434 . S
C3183 C3174 1.429 . S
C3183 N3180 1.350 . S
C3183 C3182 1.434 . S
C3184 C3185 1.369 . S
C3184 C3186 1.419 . S
C3184 H3188 0.930 . S
C3185 C3184 1.369 . S
C3185 C3194 1.429 . S
C3186 C3184 1.419 . S
C3186 C3187 1.363 . S
C3186 H3189 0.929 . S
C3187 C3186 1.363 . S
C3187 C3193 1.428 . S
H3188 C3184 0.930 . S
H3189 C3186 0.929 . S
S3190 N3191 1.613 . S
S3190 N3192 1.610 . S
N3191 S3190 1.613 . S
N3191 C3194 1.350 . S
N3192 S3190 1.610 . S
N3192 C3193 1.351 . S
C3193 C3187 1.428 . S
C3193 N3192 1.351 . S
C3193 C3194 1.434 . S
C3194 C3185 1.429 . S
C3194 N3191 1.350 . S
C3194 C3193 1.434 . S
C3195 C3196 1.369 . S
C3195 C3197 1.419 . S
C3195 H3199 0.930 . S
C3196 C3195 1.369 . S
C3196 C3205 1.429 . S
C3197 C3195 1.419 . S
C3197 C3198 1.363 . S
C3197 H3200 0.929 . S
C3198 C3197 1.363 . S
C3198 C3204 1.428 . S
H3199 C3195 0.930 . S
H3200 C3197 0.929 . S
S3201 N3202 1.613 . S
S3201 N3203 1.610 . S
N3202 S3201 1.613 . S
N3202 C3205 1.350 . S
N3203 S3201 1.610 . S
N3203 C3204 1.351 . S
C3204 C3198 1.428 . S
C3204 N3203 1.351 . S
C3204 C3205 1.434 . S
C3205 C3196 1.429 . S
C3205 N3202 1.350 . S
C3205 C3204 1.434 . S
C3206 C3207 1.369 . S
C3206 C3208 1.419 . S
C3206 H3210 0.930 . S
C3207 C3206 1.369 . S
C3207 C3216 1.429 . S
C3208 C3206 1.419 . S
C3208 C3209 1.363 . S
C3208 H3211 0.929 . S
C3209 C3208 1.363 . S
C3209 C3215 1.428 . S
H3210 C3206 0.930 . S
H3211 C3208 0.929 . S
S3212 N3213 1.613 . S
S3212 N3214 1.610 . S
N3213 S3212 1.613 . S
N3213 C3216 1.350 . S
N3214 S3212 1.610 . S
N3214 C3215 1.351 . S
C3215 C3209 1.428 . S
C3215 N3214 1.351 . S
C3215 C3216 1.434 . S
C3216 C3207 1.429 . S
C3216 N3213 1.350 . S
C3216 C3215 1.434 . S
C3217 C3218 1.369 . S
C3217 C3219 1.419 . S
C3217 H3221 0.930 . S
C3218 C3217 1.369 . S
C3218 C3227 1.429 . S
C3219 C3217 1.419 . S
C3219 C3220 1.363 . S
C3219 H3222 0.929 . S
C3220 C3219 1.363 . S
C3220 C3226 1.428 . S
H3221 C3217 0.930 . S
H3222 C3219 0.929 . S
S3223 N3224 1.613 . S
S3223 N3225 1.610 . S
N3224 S3223 1.613 . S
N3224 C3227 1.350 . S
N3225 S3223 1.610 . S
N3225 C3226 1.351 . S
C3226 C3220 1.428 . S
C3226 N3225 1.351 . S
C3226 C3227 1.434 . S
C3227 C3218 1.429 . S
C3227 N3224 1.350 . S
C3227 C3226 1.434 . S
C3228 C3229 1.369 . S
C3228 C3230 1.419 . S
C3228 H3232 0.930 . S
C3229 C3228 1.369 . S
C3229 C3238 1.429 . S
C3230 C3228 1.419 . S
C3230 C3231 1.363 . S
C3230 H3233 0.929 . S
C3231 C3230 1.363 . S
C3231 C3237 1.428 . S
H3232 C3228 0.930 . S
H3233 C3230 0.929 . S
S3234 N3235 1.613 . S
S3234 N3236 1.610 . S
N3235 S3234 1.613 . S
N3235 C3238 1.350 . S
N3236 S3234 1.610 . S
N3236 C3237 1.351 . S
C3237 C3231 1.428 . S
C3237 N3236 1.351 . S
C3237 C3238 1.434 . S
C3238 C3229 1.429 . S
C3238 N3235 1.350 . S
C3238 C3237 1.434 . S
C3239 C3240 1.369 . S
C3239 C3241 1.419 . S
C3239 H3243 0.930 . S
C3240 C3239 1.369 . S
C3240 C3249 1.429 . S
C3241 C3239 1.419 . S
C3241 C3242 1.363 . S
C3241 H3244 0.929 . S
C3242 C3241 1.363 . S
C3242 C3248 1.428 . S
H3243 C3239 0.930 . S
H3244 C3241 0.929 . S
S3245 N3246 1.613 . S
S3245 N3247 1.610 . S
N3246 S3245 1.613 . S
N3246 C3249 1.350 . S
N3247 S3245 1.610 . S
N3247 C3248 1.351 . S
C3248 C3242 1.428 . S
C3248 N3247 1.351 . S
C3248 C3249 1.434 . S
C3249 C3240 1.429 . S
C3249 N3246 1.350 . S
C3249 C3248 1.434 . S
C3250 C3251 1.369 . S
C3250 C3252 1.419 . S
C3250 H3254 0.930 . S
C3251 C3250 1.369 . S
C3251 C3260 1.429 . S
C3252 C3250 1.419 . S
C3252 C3253 1.363 . S
C3252 H3255 0.929 . S
C3253 C3252 1.363 . S
C3253 C3259 1.428 . S
H3254 C3250 0.930 . S
H3255 C3252 0.929 . S
S3256 N3257 1.613 . S
S3256 N3258 1.610 . S
N3257 S3256 1.613 . S
N3257 C3260 1.350 . S
N3258 S3256 1.610 . S
N3258 C3259 1.351 . S
C3259 C3253 1.428 . S
C3259 N3258 1.351 . S
C3259 C3260 1.434 . S
C3260 C3251 1.429 . S
C3260 N3257 1.350 . S
C3260 C3259 1.434 . S
C3261 C3262 1.369 . S
C3261 C3263 1.419 . S
C3261 H3265 0.930 . S
C3262 C3261 1.369 . S
C3262 C3271 1.429 . S
C3263 C3261 1.419 . S
C3263 C3264 1.363 . S
C3263 H3266 0.929 . S
C3264 C3263 1.363 . S
C3264 C3270 1.428 . S
H3265 C3261 0.930 . S
H3266 C3263 0.929 . S
S3267 N3268 1.613 . S
S3267 N3269 1.610 . S
N3268 S3267 1.613 . S
N3268 C3271 1.350 . S
N3269 S3267 1.610 . S
N3269 C3270 1.351 . S
C3270 C3264 1.428 . S
C3270 N3269 1.351 . S
C3270 C3271 1.434 . S
C3271 C3262 1.429 . S
C3271 N3268 1.350 . S
C3271 C3270 1.434 . S
C3272 C3273 1.369 . S
C3272 C3274 1.419 . S
C3272 H3276 0.930 . S
C3273 C3272 1.369 . S
C3273 C3282 1.429 . S
C3274 C3272 1.419 . S
C3274 C3275 1.363 . S
C3274 H3277 0.929 . S
C3275 C3274 1.363 . S
C3275 C3281 1.428 . S
H3276 C3272 0.930 . S
H3277 C3274 0.929 . S
S3278 N3279 1.613 . S
S3278 N3280 1.610 . S
N3279 S3278 1.613 . S
N3279 C3282 1.350 . S
N3280 S3278 1.610 . S
N3280 C3281 1.351 . S
C3281 C3275 1.428 . S
C3281 N3280 1.351 . S
C3281 C3282 1.434 . S
C3282 C3273 1.429 . S
C3282 N3279 1.350 . S
C3282 C3281 1.434 . S
C3283 C3284 1.369 . S
C3283 C3285 1.419 . S
C3283 H3287 0.930 . S
C3284 C3283 1.369 . S
C3284 C3293 1.429 . S
C3285 C3283 1.419 . S
C3285 C3286 1.363 . S
C3285 H3288 0.929 . S
C3286 C3285 1.363 . S
C3286 C3292 1.428 . S
H3287 C3283 0.930 . S
H3288 C3285 0.929 . S
S3289 N3290 1.613 . S
S3289 N3291 1.610 . S
N3290 S3289 1.613 . S
N3290 C3293 1.350 . S
N3291 S3289 1.610 . S
N3291 C3292 1.351 . S
C3292 C3286 1.428 . S
C3292 N3291 1.351 . S
C3292 C3293 1.434 . S
C3293 C3284 1.429 . S
C3293 N3290 1.350 . S
C3293 C3292 1.434 . S
C3294 C3295 1.369 . S
C3294 C3296 1.419 . S
C3294 H3298 0.930 . S
C3295 C3294 1.369 . S
C3295 C3304 1.429 . S
C3296 C3294 1.419 . S
C3296 C3297 1.363 . S
C3296 H3299 0.929 . S
C3297 C3296 1.363 . S
C3297 C3303 1.428 . S
H3298 C3294 0.930 . S
H3299 C3296 0.929 . S
S3300 N3301 1.613 . S
S3300 N3302 1.610 . S
N3301 S3300 1.613 . S
N3301 C3304 1.350 . S
N3302 S3300 1.610 . S
N3302 C3303 1.351 . S
C3303 C3297 1.428 . S
C3303 N3302 1.351 . S
C3303 C3304 1.434 . S
C3304 C3295 1.429 . S
C3304 N3301 1.350 . S
C3304 C3303 1.434 . S
C3305 C3306 1.369 . S
C3305 C3307 1.419 . S
C3305 H3309 0.930 . S
C3306 C3305 1.369 . S
C3306 C3315 1.429 . S
C3307 C3305 1.419 . S
C3307 C3308 1.363 . S
C3307 H3310 0.929 . S
C3308 C3307 1.363 . S
C3308 C3314 1.428 . S
H3309 C3305 0.930 . S
H3310 C3307 0.929 . S
S3311 N3312 1.613 . S
S3311 N3313 1.610 . S
N3312 S3311 1.613 . S
N3312 C3315 1.350 . S
N3313 S3311 1.610 . S
N3313 C3314 1.351 . S
C3314 C3308 1.428 . S
C3314 N3313 1.351 . S
C3314 C3315 1.434 . S
C3315 C3306 1.429 . S
C3315 N3312 1.350 . S
C3315 C3314 1.434 . S
C3316 C3317 1.369 . S
C3316 C3318 1.419 . S
C3316 H3320 0.930 . S
C3317 C3316 1.369 . S
C3317 C3326 1.429 . S
C3318 C3316 1.419 . S
C3318 C3319 1.363 . S
C3318 H3321 0.929 . S
C3319 C3318 1.363 . S
C3319 C3325 1.428 . S
H3320 C3316 0.930 . S
H3321 C3318 0.929 . S
S3322 N3323 1.613 . S
S3322 N3324 1.610 . S
N3323 S3322 1.613 . S
N3323 C3326 1.350 . S
N3324 S3322 1.610 . S
N3324 C3325 1.351 . S
C3325 C3319 1.428 . S
C3325 N3324 1.351 . S
C3325 C3326 1.434 . S
C3326 C3317 1.429 . S
C3326 N3323 1.350 . S
C3326 C3325 1.434 . S
C3327 C3328 1.369 . S
C3327 C3329 1.419 . S
C3327 H3331 0.930 . S
C3328 C3327 1.369 . S
C3328 C3337 1.429 . S
C3329 C3327 1.419 . S
C3329 C3330 1.363 . S
C3329 H3332 0.929 . S
C3330 C3329 1.363 . S
C3330 C3336 1.428 . S
H3331 C3327 0.930 . S
H3332 C3329 0.929 . S
S3333 N3334 1.613 . S
S3333 N3335 1.610 . S
N3334 S3333 1.613 . S
N3334 C3337 1.350 . S
N3335 S3333 1.610 . S
N3335 C3336 1.351 . S
C3336 C3330 1.428 . S
C3336 N3335 1.351 . S
C3336 C3337 1.434 . S
C3337 C3328 1.429 . S
C3337 N3334 1.350 . S
C3337 C3336 1.434 . S
C3338 C3339 1.369 . S
C3338 C3340 1.419 . S
C3338 H3342 0.930 . S
C3339 C3338 1.369 . S
C3339 C3348 1.429 . S
C3340 C3338 1.419 . S
C3340 C3341 1.363 . S
C3340 H3343 0.929 . S
C3341 C3340 1.363 . S
C3341 C3347 1.428 . S
H3342 C3338 0.930 . S
H3343 C3340 0.929 . S
S3344 N3345 1.613 . S
S3344 N3346 1.610 . S
N3345 S3344 1.613 . S
N3345 C3348 1.350 . S
N3346 S3344 1.610 . S
N3346 C3347 1.351 . S
C3347 C3341 1.428 . S
C3347 N3346 1.351 . S
C3347 C3348 1.434 . S
C3348 C3339 1.429 . S
C3348 N3345 1.350 . S
C3348 C3347 1.434 . S
C3349 C3350 1.369 . S
C3349 C3351 1.419 . S
C3349 H3353 0.930 . S
C3350 C3349 1.369 . S
C3350 C3359 1.429 . S
C3351 C3349 1.419 . S
C3351 C3352 1.363 . S
C3351 H3354 0.929 . S
C3352 C3351 1.363 . S
C3352 C3358 1.428 . S
H3353 C3349 0.930 . S
H3354 C3351 0.929 . S
S3355 N3356 1.613 . S
S3355 N3357 1.610 . S
N3356 S3355 1.613 . S
N3356 C3359 1.350 . S
N3357 S3355 1.610 . S
N3357 C3358 1.351 . S
C3358 C3352 1.428 . S
C3358 N3357 1.351 . S
C3358 C3359 1.434 . S
C3359 C3350 1.429 . S
C3359 N3356 1.350 . S
C3359 C3358 1.434 . S
C3360 C3361 1.369 . S
C3360 C3362 1.419 . S
C3360 H3364 0.930 . S
C3361 C3360 1.369 . S
C3361 C3370 1.429 . S
C3362 C3360 1.419 . S
C3362 C3363 1.363 . S
C3362 H3365 0.929 . S
C3363 C3362 1.363 . S
C3363 C3369 1.428 . S
H3364 C3360 0.930 . S
H3365 C3362 0.929 . S
S3366 N3367 1.613 . S
S3366 N3368 1.610 . S
N3367 S3366 1.613 . S
N3367 C3370 1.350 . S
N3368 S3366 1.610 . S
N3368 C3369 1.351 . S
C3369 C3363 1.428 . S
C3369 N3368 1.351 . S
C3369 C3370 1.434 . S
C3370 C3361 1.429 . S
C3370 N3367 1.350 . S
C3370 C3369 1.434 . S
C3371 C3372 1.369 . S
C3371 C3373 1.419 . S
C3371 H3375 0.930 . S
C3372 C3371 1.369 . S
C3372 C3381 1.429 . S
C3373 C3371 1.419 . S
C3373 C3374 1.363 . S
C3373 H3376 0.929 . S
C3374 C3373 1.363 . S
C3374 C3380 1.428 . S
H3375 C3371 0.930 . S
H3376 C3373 0.929 . S
S3377 N3378 1.613 . S
S3377 N3379 1.610 . S
N3378 S3377 1.613 . S
N3378 C3381 1.350 . S
N3379 S3377 1.610 . S
N3379 C3380 1.351 . S
C3380 C3374 1.428 . S
C3380 N3379 1.351 . S
C3380 C3381 1.434 . S
C3381 C3372 1.429 . S
C3381 N3378 1.350 . S
C3381 C3380 1.434 . S
C3382 C3383 1.369 . S
C3382 C3384 1.419 . S
C3382 H3386 0.930 . S
C3383 C3382 1.369 . S
C3383 C3392 1.429 . S
C3384 C3382 1.419 . S
C3384 C3385 1.363 . S
C3384 H3387 0.929 . S
C3385 C3384 1.363 . S
C3385 C3391 1.428 . S
H3386 C3382 0.930 . S
H3387 C3384 0.929 . S
S3388 N3389 1.613 . S
S3388 N3390 1.610 . S
N3389 S3388 1.613 . S
N3389 C3392 1.350 . S
N3390 S3388 1.610 . S
N3390 C3391 1.351 . S
C3391 C3385 1.428 . S
C3391 N3390 1.351 . S
C3391 C3392 1.434 . S
C3392 C3383 1.429 . S
C3392 N3389 1.350 . S
C3392 C3391 1.434 . S
C3393 C3394 1.369 . S
C3393 C3395 1.419 . S
C3393 H3397 0.930 . S
C3394 C3393 1.369 . S
C3394 C3403 1.429 . S
C3395 C3393 1.419 . S
C3395 C3396 1.363 . S
C3395 H3398 0.929 . S
C3396 C3395 1.363 . S
C3396 C3402 1.428 . S
H3397 C3393 0.930 . S
H3398 C3395 0.929 . S
S3399 N3400 1.613 . S
S3399 N3401 1.610 . S
N3400 S3399 1.613 . S
N3400 C3403 1.350 . S
N3401 S3399 1.610 . S
N3401 C3402 1.351 . S
C3402 C3396 1.428 . S
C3402 N3401 1.351 . S
C3402 C3403 1.434 . S
C3403 C3394 1.429 . S
C3403 N3400 1.350 . S
C3403 C3402 1.434 . S
C3404 C3405 1.369 . S
C3404 C3406 1.419 . S
C3404 H3408 0.930 . S
C3405 C3404 1.369 . S
C3405 C3414 1.429 . S
C3406 C3404 1.419 . S
C3406 C3407 1.363 . S
C3406 H3409 0.929 . S
C3407 C3406 1.363 . S
C3407 C3413 1.428 . S
H3408 C3404 0.930 . S
H3409 C3406 0.929 . S
S3410 N3411 1.613 . S
S3410 N3412 1.610 . S
N3411 S3410 1.613 . S
N3411 C3414 1.350 . S
N3412 S3410 1.610 . S
N3412 C3413 1.351 . S
C3413 C3407 1.428 . S
C3413 N3412 1.351 . S
C3413 C3414 1.434 . S
C3414 C3405 1.429 . S
C3414 N3411 1.350 . S
C3414 C3413 1.434 . S
C3415 C3416 1.369 . S
C3415 C3417 1.419 . S
C3415 H3419 0.930 . S
C3416 C3415 1.369 . S
C3416 C3425 1.429 . S
C3417 C3415 1.419 . S
C3417 C3418 1.363 . S
C3417 H3420 0.929 . S
C3418 C3417 1.363 . S
C3418 C3424 1.428 . S
H3419 C3415 0.930 . S
H3420 C3417 0.929 . S
S3421 N3422 1.613 . S
S3421 N3423 1.610 . S
N3422 S3421 1.613 . S
N3422 C3425 1.350 . S
N3423 S3421 1.610 . S
N3423 C3424 1.351 . S
C3424 C3418 1.428 . S
C3424 N3423 1.351 . S
C3424 C3425 1.434 . S
C3425 C3416 1.429 . S
C3425 N3422 1.350 . S
C3425 C3424 1.434 . S
C3426 C3427 1.369 . S
C3426 C3428 1.419 . S
C3426 H3430 0.930 . S
C3427 C3426 1.369 . S
C3427 C3436 1.429 . S
C3428 C3426 1.419 . S
C3428 C3429 1.363 . S
C3428 H3431 0.929 . S
C3429 C3428 1.363 . S
C3429 C3435 1.428 . S
H3430 C3426 0.930 . S
H3431 C3428 0.929 . S
S3432 N3433 1.613 . S
S3432 N3434 1.610 . S
N3433 S3432 1.613 . S
N3433 C3436 1.350 . S
N3434 S3432 1.610 . S
N3434 C3435 1.351 . S
C3435 C3429 1.428 . S
C3435 N3434 1.351 . S
C3435 C3436 1.434 . S
C3436 C3427 1.429 . S
C3436 N3433 1.350 . S
C3436 C3435 1.434 . S
C3437 C3438 1.369 . S
C3437 C3439 1.419 . S
C3437 H3441 0.930 . S
C3438 C3437 1.369 . S
C3438 C3447 1.429 . S
C3439 C3437 1.419 . S
C3439 C3440 1.363 . S
C3439 H3442 0.929 . S
C3440 C3439 1.363 . S
C3440 C3446 1.428 . S
H3441 C3437 0.930 . S
H3442 C3439 0.929 . S
S3443 N3444 1.613 . S
S3443 N3445 1.610 . S
N3444 S3443 1.613 . S
N3444 C3447 1.350 . S
N3445 S3443 1.610 . S
N3445 C3446 1.351 . S
C3446 C3440 1.428 . S
C3446 N3445 1.351 . S
C3446 C3447 1.434 . S
C3447 C3438 1.429 . S
C3447 N3444 1.350 . S
C3447 C3446 1.434 . S
C3448 C3449 1.369 . S
C3448 C3450 1.419 . S
C3448 H3452 0.930 . S
C3449 C3448 1.369 . S
C3449 C3458 1.429 . S
C3450 C3448 1.419 . S
C3450 C3451 1.363 . S
C3450 H3453 0.929 . S
C3451 C3450 1.363 . S
C3451 C3457 1.428 . S
H3452 C3448 0.930 . S
H3453 C3450 0.929 . S
S3454 N3455 1.613 . S
S3454 N3456 1.610 . S
N3455 S3454 1.613 . S
N3455 C3458 1.350 . S
N3456 S3454 1.610 . S
N3456 C3457 1.351 . S
C3457 C3451 1.428 . S
C3457 N3456 1.351 . S
C3457 C3458 1.434 . S
C3458 C3449 1.429 . S
C3458 N3455 1.350 . S
C3458 C3457 1.434 . S
C3459 C3460 1.369 . S
C3459 C3461 1.419 . S
C3459 H3463 0.930 . S
C3460 C3459 1.369 . S
C3460 C3469 1.429 . S
C3461 C3459 1.419 . S
C3461 C3462 1.363 . S
C3461 H3464 0.929 . S
C3462 C3461 1.363 . S
C3462 C3468 1.428 . S
H3463 C3459 0.930 . S
H3464 C3461 0.929 . S
S3465 N3466 1.613 . S
S3465 N3467 1.610 . S
N3466 S3465 1.613 . S
N3466 C3469 1.350 . S
N3467 S3465 1.610 . S
N3467 C3468 1.351 . S
C3468 C3462 1.428 . S
C3468 N3467 1.351 . S
C3468 C3469 1.434 . S
C3469 C3460 1.429 . S
C3469 N3466 1.350 . S
C3469 C3468 1.434 . S
C3470 C3471 1.369 . S
C3470 C3472 1.419 . S
C3470 H3474 0.930 . S
C3471 C3470 1.369 . S
C3471 C3480 1.429 . S
C3472 C3470 1.419 . S
C3472 C3473 1.363 . S
C3472 H3475 0.929 . S
C3473 C3472 1.363 . S
C3473 C3479 1.428 . S
H3474 C3470 0.930 . S
H3475 C3472 0.929 . S
S3476 N3477 1.613 . S
S3476 N3478 1.610 . S
N3477 S3476 1.613 . S
N3477 C3480 1.350 . S
N3478 S3476 1.610 . S
N3478 C3479 1.351 . S
C3479 C3473 1.428 . S
C3479 N3478 1.351 . S
C3479 C3480 1.434 . S
C3480 C3471 1.429 . S
C3480 N3477 1.350 . S
C3480 C3479 1.434 . S
C3481 C3482 1.369 . S
C3481 C3483 1.419 . S
C3481 H3485 0.930 . S
C3482 C3481 1.369 . S
C3482 C3491 1.429 . S
C3483 C3481 1.419 . S
C3483 C3484 1.363 . S
C3483 H3486 0.929 . S
C3484 C3483 1.363 . S
C3484 C3490 1.428 . S
H3485 C3481 0.930 . S
H3486 C3483 0.929 . S
S3487 N3488 1.613 . S
S3487 N3489 1.610 . S
N3488 S3487 1.613 . S
N3488 C3491 1.350 . S
N3489 S3487 1.610 . S
N3489 C3490 1.351 . S
C3490 C3484 1.428 . S
C3490 N3489 1.351 . S
C3490 C3491 1.434 . S
C3491 C3482 1.429 . S
C3491 N3488 1.350 . S
C3491 C3490 1.434 . S
C3492 C3493 1.369 . S
C3492 C3494 1.419 . S
C3492 H3496 0.930 . S
C3493 C3492 1.369 . S
C3493 C3502 1.429 . S
C3494 C3492 1.419 . S
C3494 C3495 1.363 . S
C3494 H3497 0.929 . S
C3495 C3494 1.363 . S
C3495 C3501 1.428 . S
H3496 C3492 0.930 . S
H3497 C3494 0.929 . S
S3498 N3499 1.613 . S
S3498 N3500 1.610 . S
N3499 S3498 1.613 . S
N3499 C3502 1.350 . S
N3500 S3498 1.610 . S
N3500 C3501 1.351 . S
C3501 C3495 1.428 . S
C3501 N3500 1.351 . S
C3501 C3502 1.434 . S
C3502 C3493 1.429 . S
C3502 N3499 1.350 . S
C3502 C3501 1.434 . S
C3503 C3504 1.369 . S
C3503 C3505 1.419 . S
C3503 H3507 0.930 . S
C3504 C3503 1.369 . S
C3504 C3513 1.429 . S
C3505 C3503 1.419 . S
C3505 C3506 1.363 . S
C3505 H3508 0.929 . S
C3506 C3505 1.363 . S
C3506 C3512 1.428 . S
H3507 C3503 0.930 . S
H3508 C3505 0.929 . S
S3509 N3510 1.613 . S
S3509 N3511 1.610 . S
N3510 S3509 1.613 . S
N3510 C3513 1.350 . S
N3511 S3509 1.610 . S
N3511 C3512 1.351 . S
C3512 C3506 1.428 . S
C3512 N3511 1.351 . S
C3512 C3513 1.434 . S
C3513 C3504 1.429 . S
C3513 N3510 1.350 . S
C3513 C3512 1.434 . S
C3514 C3515 1.369 . S
C3514 C3516 1.419 . S
C3514 H3518 0.930 . S
C3515 C3514 1.369 . S
C3515 C3524 1.429 . S
C3516 C3514 1.419 . S
C3516 C3517 1.363 . S
C3516 H3519 0.929 . S
C3517 C3516 1.363 . S
C3517 C3523 1.428 . S
H3518 C3514 0.930 . S
H3519 C3516 0.929 . S
S3520 N3521 1.613 . S
S3520 N3522 1.610 . S
N3521 S3520 1.613 . S
N3521 C3524 1.350 . S
N3522 S3520 1.610 . S
N3522 C3523 1.351 . S
C3523 C3517 1.428 . S
C3523 N3522 1.351 . S
C3523 C3524 1.434 . S
C3524 C3515 1.429 . S
C3524 N3521 1.350 . S
C3524 C3523 1.434 . S
C3525 C3526 1.369 . S
C3525 C3527 1.419 . S
C3525 H3529 0.930 . S
C3526 C3525 1.369 . S
C3526 C3535 1.429 . S
C3527 C3525 1.419 . S
C3527 C3528 1.363 . S
C3527 H3530 0.929 . S
C3528 C3527 1.363 . S
C3528 C3534 1.428 . S
H3529 C3525 0.930 . S
H3530 C3527 0.929 . S
S3531 N3532 1.613 . S
S3531 N3533 1.610 . S
N3532 S3531 1.613 . S
N3532 C3535 1.350 . S
N3533 S3531 1.610 . S
N3533 C3534 1.351 . S
C3534 C3528 1.428 . S
C3534 N3533 1.351 . S
C3534 C3535 1.434 . S
C3535 C3526 1.429 . S
C3535 N3532 1.350 . S
C3535 C3534 1.434 . S
C3536 C3537 1.369 . S
C3536 C3538 1.419 . S
C3536 H3540 0.930 . S
C3537 C3536 1.369 . S
C3537 C3546 1.429 . S
C3538 C3536 1.419 . S
C3538 C3539 1.363 . S
C3538 H3541 0.929 . S
C3539 C3538 1.363 . S
C3539 C3545 1.428 . S
H3540 C3536 0.930 . S
H3541 C3538 0.929 . S
S3542 N3543 1.613 . S
S3542 N3544 1.610 . S
N3543 S3542 1.613 . S
N3543 C3546 1.350 . S
N3544 S3542 1.610 . S
N3544 C3545 1.351 . S
C3545 C3539 1.428 . S
C3545 N3544 1.351 . S
C3545 C3546 1.434 . S
C3546 C3537 1.429 . S
C3546 N3543 1.350 . S
C3546 C3545 1.434 . S
C3547 C3548 1.369 . S
C3547 C3549 1.419 . S
C3547 H3551 0.930 . S
C3548 C3547 1.369 . S
C3548 C3557 1.429 . S
C3549 C3547 1.419 . S
C3549 C3550 1.363 . S
C3549 H3552 0.929 . S
C3550 C3549 1.363 . S
C3550 C3556 1.428 . S
H3551 C3547 0.930 . S
H3552 C3549 0.929 . S
S3553 N3554 1.613 . S
S3553 N3555 1.610 . S
N3554 S3553 1.613 . S
N3554 C3557 1.350 . S
N3555 S3553 1.610 . S
N3555 C3556 1.351 . S
C3556 C3550 1.428 . S
C3556 N3555 1.351 . S
C3556 C3557 1.434 . S
C3557 C3548 1.429 . S
C3557 N3554 1.350 . S
C3557 C3556 1.434 . S
C3558 C3559 1.369 . S
C3558 C3560 1.419 . S
C3558 H3562 0.930 . S
C3559 C3558 1.369 . S
C3559 C3568 1.429 . S
C3560 C3558 1.419 . S
C3560 C3561 1.363 . S
C3560 H3563 0.929 . S
C3561 C3560 1.363 . S
C3561 C3567 1.428 . S
H3562 C3558 0.930 . S
H3563 C3560 0.929 . S
S3564 N3565 1.613 . S
S3564 N3566 1.610 . S
N3565 S3564 1.613 . S
N3565 C3568 1.350 . S
N3566 S3564 1.610 . S
N3566 C3567 1.351 . S
C3567 C3561 1.428 . S
C3567 N3566 1.351 . S
C3567 C3568 1.434 . S
C3568 C3559 1.429 . S
C3568 N3565 1.350 . S
C3568 C3567 1.434 . S
C3569 C3570 1.369 . S
C3569 C3571 1.419 . S
C3569 H3573 0.930 . S
C3570 C3569 1.369 . S
C3570 C3579 1.429 . S
C3571 C3569 1.419 . S
C3571 C3572 1.363 . S
C3571 H3574 0.929 . S
C3572 C3571 1.363 . S
C3572 C3578 1.428 . S
H3573 C3569 0.930 . S
H3574 C3571 0.929 . S
S3575 N3576 1.613 . S
S3575 N3577 1.610 . S
N3576 S3575 1.613 . S
N3576 C3579 1.350 . S
N3577 S3575 1.610 . S
N3577 C3578 1.351 . S
C3578 C3572 1.428 . S
C3578 N3577 1.351 . S
C3578 C3579 1.434 . S
C3579 C3570 1.429 . S
C3579 N3576 1.350 . S
C3579 C3578 1.434 . S
C3580 C3581 1.369 . S
C3580 C3582 1.419 . S
C3580 H3584 0.930 . S
C3581 C3580 1.369 . S
C3581 C3590 1.429 . S
C3582 C3580 1.419 . S
C3582 C3583 1.363 . S
C3582 H3585 0.929 . S
C3583 C3582 1.363 . S
C3583 C3589 1.428 . S
H3584 C3580 0.930 . S
H3585 C3582 0.929 . S
S3586 N3587 1.613 . S
S3586 N3588 1.610 . S
N3587 S3586 1.613 . S
N3587 C3590 1.350 . S
N3588 S3586 1.610 . S
N3588 C3589 1.351 . S
C3589 C3583 1.428 . S
C3589 N3588 1.351 . S
C3589 C3590 1.434 . S
C3590 C3581 1.429 . S
C3590 N3587 1.350 . S
C3590 C3589 1.434 . S
C3591 C3592 1.369 . S
C3591 C3593 1.419 . S
C3591 H3595 0.930 . S
C3592 C3591 1.369 . S
C3592 C3601 1.429 . S
C3593 C3591 1.419 . S
C3593 C3594 1.363 . S
C3593 H3596 0.929 . S
C3594 C3593 1.363 . S
C3594 C3600 1.428 . S
H3595 C3591 0.930 . S
H3596 C3593 0.929 . S
S3597 N3598 1.613 . S
S3597 N3599 1.610 . S
N3598 S3597 1.613 . S
N3598 C3601 1.350 . S
N3599 S3597 1.610 . S
N3599 C3600 1.351 . S
C3600 C3594 1.428 . S
C3600 N3599 1.351 . S
C3600 C3601 1.434 . S
C3601 C3592 1.429 . S
C3601 N3598 1.350 . S
C3601 C3600 1.434 . S
C3602 C3603 1.369 . S
C3602 C3604 1.419 . S
C3602 H3606 0.930 . S
C3603 C3602 1.369 . S
C3603 C3612 1.429 . S
C3604 C3602 1.419 . S
C3604 C3605 1.363 . S
C3604 H3607 0.929 . S
C3605 C3604 1.363 . S
C3605 C3611 1.428 . S
H3606 C3602 0.930 . S
H3607 C3604 0.929 . S
S3608 N3609 1.613 . S
S3608 N3610 1.610 . S
N3609 S3608 1.613 . S
N3609 C3612 1.350 . S
N3610 S3608 1.610 . S
N3610 C3611 1.351 . S
C3611 C3605 1.428 . S
C3611 N3610 1.351 . S
C3611 C3612 1.434 . S
C3612 C3603 1.429 . S
C3612 N3609 1.350 . S
C3612 C3611 1.434 . S
C3613 C3614 1.369 . S
C3613 C3615 1.419 . S
C3613 H3617 0.930 . S
C3614 C3613 1.369 . S
C3614 C3623 1.429 . S
C3615 C3613 1.419 . S
C3615 C3616 1.363 . S
C3615 H3618 0.929 . S
C3616 C3615 1.363 . S
C3616 C3622 1.428 . S
H3617 C3613 0.930 . S
H3618 C3615 0.929 . S
S3619 N3620 1.613 . S
S3619 N3621 1.610 . S
N3620 S3619 1.613 . S
N3620 C3623 1.350 . S
N3621 S3619 1.610 . S
N3621 C3622 1.351 . S
C3622 C3616 1.428 . S
C3622 N3621 1.351 . S
C3622 C3623 1.434 . S
C3623 C3614 1.429 . S
C3623 N3620 1.350 . S
C3623 C3622 1.434 . S
C3624 C3625 1.369 . S
C3624 C3626 1.419 1_554 S
C3624 H3628 0.930 . S
C3625 C3624 1.369 . S
C3625 C3634 1.429 . S
C3626 C3624 1.419 1_556 S
C3626 C3627 1.363 . S
C3626 H3629 0.929 . S
C3627 C3626 1.363 . S
C3627 C3633 1.428 . S
H3628 C3624 0.930 . S
H3629 C3626 0.929 . S
S3630 N3631 1.616 1_556 S
S3630 N3632 1.607 . S
N3631 S3630 1.616 1_554 S
N3631 C3634 1.350 . S
N3632 S3630 1.607 . S
N3632 C3633 1.351 . S
C3633 C3627 1.428 . S
C3633 N3632 1.351 . S
C3633 C3634 1.434 1_556 S
C3634 C3625 1.429 . S
C3634 N3631 1.350 . S
C3634 C3633 1.434 1_554 S
C3635 C3636 1.369 . S
C3635 C3637 1.419 1_556 S
C3635 H3639 0.930 . S
C3636 C3635 1.369 . S
C3636 C3645 1.429 . S
C3637 C3635 1.419 1_554 S
C3637 C3638 1.363 . S
C3637 H3640 0.929 . S
C3638 C3637 1.363 . S
C3638 C3644 1.428 . S
H3639 C3635 0.930 . S
H3640 C3637 0.929 . S
S3641 N3642 1.610 . S
S3641 N3643 1.614 1_556 S
N3642 S3641 1.610 . S
N3642 C3645 1.350 . S
N3643 S3641 1.614 1_554 S
N3643 C3644 1.351 . S
C3644 C3638 1.428 . S
C3644 N3643 1.351 . S
C3644 C3645 1.434 1_554 S
C3645 C3636 1.429 . S
C3645 N3642 1.350 . S
C3645 C3644 1.434 1_556 S
C3646 C3647 1.369 . S
C3646 C3648 1.419 1_554 S
C3646 H3650 0.930 . S
C3647 C3646 1.369 . S
C3647 C3656 1.429 . S
C3648 C3646 1.419 1_556 S
C3648 C3649 1.363 . S
C3648 H3651 0.929 . S
C3649 C3648 1.363 . S
C3649 C3655 1.428 . S
H3650 C3646 0.930 . S
H3651 C3648 0.929 . S
S3652 N3653 1.609 1_556 S
S3652 N3654 1.615 . S
N3653 S3652 1.609 1_554 S
N3653 C3656 1.350 . S
N3654 S3652 1.615 . S
N3654 C3655 1.351 . S
C3655 C3649 1.428 . S
C3655 N3654 1.351 . S
C3655 C3656 1.434 1_556 S
C3656 C3647 1.429 . S
C3656 N3653 1.350 . S
C3656 C3655 1.434 1_554 S
C3657 C3658 1.369 . S
C3657 C3659 1.419 1_554 S
C3657 H3661 0.930 . S
C3658 C3657 1.369 . S
C3658 C3667 1.429 . S
C3659 C3657 1.419 1_556 S
C3659 C3660 1.363 . S
C3659 H3662 0.929 . S
C3660 C3659 1.363 . S
C3660 C3666 1.428 . S
H3661 C3657 0.930 . S
H3662 C3659 0.929 . S
S3663 N3664 1.611 . S
S3663 N3665 1.613 1_554 S
N3664 S3663 1.611 . S
N3664 C3667 1.350 . S
N3665 S3663 1.613 1_556 S
N3665 C3666 1.351 . S
C3666 C3660 1.428 . S
C3666 N3665 1.351 . S
C3666 C3667 1.434 1_556 S
C3667 C3658 1.429 . S
C3667 N3664 1.350 . S
C3667 C3666 1.434 1_554 S
C3668 C3669 1.369 . S
C3668 C3670 1.419 1_556 S
C3668 H3672 0.930 . S
C3669 C3668 1.369 . S
C3669 C3678 1.429 . S
C3670 C3668 1.419 1_554 S
C3670 C3671 1.363 . S
C3670 H3673 0.929 . S
C3671 C3670 1.363 . S
C3671 C3677 1.428 . S
H3672 C3668 0.930 . S
H3673 C3670 0.929 . S
S3674 N3675 1.610 . S
S3674 N3676 1.613 1_556 S
N3675 S3674 1.610 . S
N3675 C3678 1.350 . S
N3676 S3674 1.613 1_554 S
N3676 C3677 1.351 . S
C3677 C3671 1.428 . S
C3677 N3676 1.351 . S
C3677 C3678 1.434 1_554 S
C3678 C3669 1.429 . S
C3678 N3675 1.350 . S
C3678 C3677 1.434 1_556 S
C3679 C3680 1.369 . S
C3679 C3681 1.419 1_554 S
C3679 H3683 0.930 . S
C3680 C3679 1.369 . S
C3680 C3689 1.429 . S
C3681 C3679 1.419 1_556 S
C3681 C3682 1.363 . S
C3681 H3684 0.929 . S
C3682 C3681 1.363 . S
C3682 C3688 1.428 . S
H3683 C3679 0.930 . S
H3684 C3681 0.929 . S
S3685 N3686 1.616 1_556 S
S3685 N3687 1.607 . S
N3686 S3685 1.616 1_554 S
N3686 C3689 1.350 . S
N3687 S3685 1.607 . S
N3687 C3688 1.351 . S
C3688 C3682 1.428 . S
C3688 N3687 1.351 . S
C3688 C3689 1.434 1_556 S
C3689 C3680 1.429 . S
C3689 N3686 1.350 . S
C3689 C3688 1.434 1_554 S
C3690 C3691 1.369 . S
C3690 C3692 1.419 1_556 S
C3690 H3694 0.930 . S
C3691 C3690 1.369 . S
C3691 C3700 1.429 . S
C3692 C3690 1.419 1_554 S
C3692 C3693 1.363 . S
C3692 H3695 0.929 . S
C3693 C3692 1.363 . S
C3693 C3699 1.428 . S
H3694 C3690 0.930 . S
H3695 C3692 0.929 . S
S3696 N3697 1.614 1_554 S
S3696 N3698 1.610 . S
N3697 S3696 1.614 1_556 S
N3697 C3700 1.350 . S
N3698 S3696 1.610 . S
N3698 C3699 1.351 . S
C3699 C3693 1.428 . S
C3699 N3698 1.351 . S
C3699 C3700 1.434 1_554 S
C3700 C3691 1.429 . S
C3700 N3697 1.350 . S
C3700 C3699 1.434 1_556 S
C3701 C3702 1.369 . S
C3701 C3703 1.419 1_554 S
C3701 H3705 0.930 . S
C3702 C3701 1.369 . S
C3702 C3711 1.429 . S
C3703 C3701 1.419 1_556 S
C3703 C3704 1.363 . S
C3703 H3706 0.929 . S
C3704 C3703 1.363 . S
C3704 C3710 1.428 . S
H3705 C3701 0.930 . S
H3706 C3703 0.929 . S
S3707 N3708 1.613 1_556 S
S3707 N3709 1.611 . S
N3708 S3707 1.613 1_554 S
N3708 C3711 1.350 . S
N3709 S3707 1.611 . S
N3709 C3710 1.351 . S
C3710 C3704 1.428 . S
C3710 N3709 1.351 . S
C3710 C3711 1.434 1_556 S
C3711 C3702 1.429 . S
C3711 N3708 1.350 . S
C3711 C3710 1.434 1_554 S
C3712 C3713 1.369 . S
C3712 C3714 1.419 1_455 S
C3712 H3716 0.930 . S
C3713 C3712 1.369 . S
C3713 C3722 1.429 . S
C3714 C3712 1.419 1_655 S
C3714 C3715 1.363 . S
C3714 H3717 0.929 . S
C3715 C3714 1.363 . S
C3715 C3721 1.428 . S
H3716 C3712 0.930 . S
H3717 C3714 0.929 . S
S3718 N3719 1.620 . S
S3718 N3720 1.603 1_455 S
N3719 S3718 1.620 . S
N3719 C3722 1.350 . S
N3720 S3718 1.603 1_655 S
N3720 C3721 1.351 . S
C3721 C3715 1.428 . S
C3721 N3720 1.351 . S
C3721 C3722 1.434 1_655 S
C3722 C3713 1.429 . S
C3722 N3719 1.350 . S
C3722 C3721 1.434 1_455 S
C3723 C3724 1.369 . S
C3723 C3725 1.419 1_565 S
C3723 H3727 0.930 . S
C3724 C3723 1.369 . S
C3724 C3733 1.429 . S
C3725 C3723 1.419 1_545 S
C3725 C3726 1.363 . S
C3725 H3728 0.929 . S
C3726 C3725 1.363 . S
C3726 C3732 1.428 . S
H3727 C3723 0.930 . S
H3728 C3725 0.929 . S
S3729 N3730 1.615 1_545 S
S3729 N3731 1.608 . S
N3730 S3729 1.615 1_565 S
N3730 C3733 1.350 . S
N3731 S3729 1.608 . S
N3731 C3732 1.351 . S
C3732 C3726 1.428 . S
C3732 N3731 1.351 . S
C3732 C3733 1.434 1_545 S
C3733 C3724 1.429 . S
C3733 N3730 1.350 . S
C3733 C3732 1.434 1_565 S
C3734 C3735 1.369 . S
C3734 C3736 1.419 1_455 S
C3734 H3738 0.930 . S
C3735 C3734 1.369 . S
C3735 C3744 1.429 . S
C3736 C3734 1.419 1_655 S
C3736 C3737 1.363 . S
C3736 H3739 0.929 . S
C3737 C3736 1.363 . S
C3737 C3743 1.428 . S
H3738 C3734 0.930 . S
H3739 C3736 0.929 . S
S3740 N3741 1.614 . S
S3740 N3742 1.609 1_455 S
N3741 S3740 1.614 . S
N3741 C3744 1.350 . S
N3742 S3740 1.609 1_655 S
N3742 C3743 1.351 . S
C3743 C3737 1.428 . S
C3743 N3742 1.351 . S
C3743 C3744 1.434 1_655 S
C3744 C3735 1.429 . S
C3744 N3741 1.350 . S
C3744 C3743 1.434 1_455 S
C3745 C3746 1.369 . S
C3745 C3747 1.419 1_565 S
C3745 H3749 0.930 . S
C3746 C3745 1.369 . S
C3746 C3755 1.429 . S
C3747 C3745 1.419 1_545 S
C3747 C3748 1.363 . S
C3747 H3750 0.929 . S
C3748 C3747 1.363 . S
C3748 C3754 1.428 . S
H3749 C3745 0.930 . S
H3750 C3747 0.929 . S
S3751 N3752 1.612 . S
S3751 N3753 1.612 1_565 S
N3752 S3751 1.612 . S
N3752 C3755 1.350 . S
N3753 S3751 1.612 1_545 S
N3753 C3754 1.351 . S
C3754 C3748 1.428 . S
C3754 N3753 1.351 . S
C3754 C3755 1.434 1_545 S
C3755 C3746 1.429 . S
C3755 N3752 1.350 . S
C3755 C3754 1.434 1_565 S
C3756 C3757 1.369 . S
C3756 C3758 1.419 1_655 S
C3756 H3760 0.930 . S
C3757 C3756 1.369 . S
C3757 C3766 1.429 . S
C3758 C3756 1.419 1_455 S
C3758 C3759 1.363 . S
C3758 H3761 0.929 . S
C3759 C3758 1.363 . S
C3759 C3765 1.428 . S
H3760 C3756 0.930 . S
H3761 C3758 0.929 . S
S3762 N3763 1.615 1_455 S
S3762 N3764 1.609 . S
N3763 S3762 1.615 1_655 S
N3763 C3766 1.350 . S
N3764 S3762 1.609 . S
N3764 C3765 1.351 . S
C3765 C3759 1.428 . S
C3765 N3764 1.351 . S
C3765 C3766 1.434 1_455 S
C3766 C3757 1.429 . S
C3766 N3763 1.350 . S
C3766 C3765 1.434 1_655 S
C3767 C3768 1.369 . S
C3767 C3769 1.419 1_545 S
C3767 H3771 0.930 . S
C3768 C3767 1.369 . S
C3768 C3777 1.429 . S
C3769 C3767 1.419 1_565 S
C3769 C3770 1.363 . S
C3769 H3772 0.929 . S
C3770 C3769 1.363 . S
C3770 C3776 1.428 . S
H3771 C3767 0.930 . S
H3772 C3769 0.929 . S
S3773 N3774 1.609 . S
S3773 N3775 1.615 1_545 S
N3774 S3773 1.609 . S
N3774 C3777 1.350 . S
N3775 S3773 1.615 1_565 S
N3775 C3776 1.351 . S
C3776 C3770 1.428 . S
C3776 N3775 1.351 . S
C3776 C3777 1.434 1_565 S
C3777 C3768 1.429 . S
C3777 N3774 1.350 . S
C3777 C3776 1.434 1_545 S
C3778 C3779 1.369 . S
C3778 C3780 1.419 1_455 S
C3778 H3782 0.930 . S
C3779 C3778 1.369 . S
C3779 C3788 1.429 . S
C3780 C3778 1.419 1_655 S
C3780 C3781 1.363 . S
C3780 H3783 0.929 . S
C3781 C3780 1.363 . S
C3781 C3787 1.428 . S
H3782 C3778 0.930 . S
H3783 C3780 0.929 . S
S3784 N3785 1.617 . S
S3784 N3786 1.607 1_455 S
N3785 S3784 1.617 . S
N3785 C3788 1.350 . S
N3786 S3784 1.607 1_655 S
N3786 C3787 1.351 . S
C3787 C3781 1.428 . S
C3787 N3786 1.351 . S
C3787 C3788 1.434 1_655 S
C3788 C3779 1.429 . S
C3788 N3785 1.350 . S
C3788 C3787 1.434 1_455 S
C3789 C3790 1.369 . S
C3789 C3791 1.419 1_545 S
C3789 H3793 0.930 . S
C3790 C3789 1.369 . S
C3790 C3799 1.429 . S
C3791 C3789 1.419 1_565 S
C3791 C3792 1.363 . S
C3791 H3794 0.929 . S
C3792 C3791 1.363 . S
C3792 C3798 1.428 . S
H3793 C3789 0.930 . S
H3794 C3791 0.929 . S
S3795 N3796 1.616 1_565 S
S3795 N3797 1.607 . S
N3796 S3795 1.616 1_545 S
N3796 C3799 1.350 . S
N3797 S3795 1.607 . S
N3797 C3798 1.351 . S
C3798 C3792 1.428 . S
C3798 N3797 1.351 . S
C3798 C3799 1.434 1_565 S
C3799 C3790 1.429 . S
C3799 N3796 1.350 . S
C3799 C3798 1.434 1_545 S
C3800 C3801 1.369 . S
C3800 C3802 1.419 1_545 S
C3800 H3804 0.930 . S
C3801 C3800 1.369 . S
C3801 C3810 1.429 . S
C3802 C3800 1.419 1_565 S
C3802 C3803 1.363 . S
C3802 H3805 0.929 . S
C3803 C3802 1.363 . S
C3803 C3809 1.428 . S
H3804 C3800 0.930 . S
H3805 C3802 0.929 . S
S3806 N3807 1.611 . S
S3806 N3808 1.612 1_545 S
N3807 S3806 1.611 . S
N3807 C3810 1.350 . S
N3808 S3806 1.612 1_565 S
N3808 C3809 1.351 . S
C3809 C3803 1.428 . S
C3809 N3808 1.351 . S
C3809 C3810 1.434 1_565 S
C3810 C3801 1.429 . S
C3810 N3807 1.350 . S
C3810 C3809 1.434 1_545 S
C3811 C3812 1.369 . S
C3811 C3813 1.419 1_545 S
C3811 H3815 0.930 . S
C3812 C3811 1.369 . S
C3812 C3821 1.429 . S
C3813 C3811 1.419 1_565 S
C3813 C3814 1.363 . S
C3813 H3816 0.929 . S
C3814 C3813 1.363 . S
C3814 C3820 1.428 . S
H3815 C3811 0.930 . S
H3816 C3813 0.929 . S
S3817 N3818 1.616 1_565 S
S3817 N3819 1.608 . S
N3818 S3817 1.616 1_545 S
N3818 C3821 1.350 . S
N3819 S3817 1.608 . S
N3819 C3820 1.351 . S
C3820 C3814 1.428 . S
C3820 N3819 1.351 . S
C3820 C3821 1.434 1_565 S
C3821 C3812 1.429 . S
C3821 N3818 1.350 . S
C3821 C3820 1.434 1_545 S
C3822 C3823 1.369 . S
C3822 C3824 1.419 1_655 S
C3822 H3826 0.930 . S
C3823 C3822 1.369 . S
C3823 C3832 1.429 . S
C3824 C3822 1.419 1_455 S
C3824 C3825 1.363 . S
C3824 H3827 0.929 . S
C3825 C3824 1.363 . S
C3825 C3831 1.428 . S
H3826 C3822 0.930 . S
H3827 C3824 0.929 . S
S3828 N3829 1.610 1_455 S
S3828 N3830 1.614 . S
N3829 S3828 1.610 1_655 S
N3829 C3832 1.350 . S
N3830 S3828 1.614 . S
N3830 C3831 1.351 . S
C3831 C3825 1.428 . S
C3831 N3830 1.351 . S
C3831 C3832 1.434 1_455 S
C3832 C3823 1.429 . S
C3832 N3829 1.350 . S
C3832 C3831 1.434 1_655 S
C3833 C3834 1.369 . S
C3833 C3835 1.419 1_545 S
C3833 H3837 0.930 . S
C3834 C3833 1.369 . S
C3834 C3843 1.429 . S
C3835 C3833 1.419 1_565 S
C3835 C3836 1.363 . S
C3835 H3838 0.929 . S
C3836 C3835 1.363 . S
C3836 C3842 1.428 . S
H3837 C3833 0.930 . S
H3838 C3835 0.929 . S
S3839 N3840 1.612 1_565 S
S3839 N3841 1.612 . S
N3840 S3839 1.612 1_545 S
N3840 C3843 1.350 . S
N3841 S3839 1.612 . S
N3841 C3842 1.351 . S
C3842 C3836 1.428 . S
C3842 N3841 1.351 . S
C3842 C3843 1.434 1_565 S
C3843 C3834 1.429 . S
C3843 N3840 1.350 . S
C3843 C3842 1.434 1_545 S
C3844 C3845 1.369 . S
C3844 C3846 1.419 1_455 S
C3844 H3848 0.930 . S
C3845 C3844 1.369 . S
C3845 C3854 1.429 . S
C3846 C3844 1.419 1_655 S
C3846 C3847 1.363 . S
C3846 H3849 0.929 . S
C3847 C3846 1.363 . S
C3847 C3853 1.428 . S
H3848 C3844 0.930 . S
H3849 C3846 0.929 . S
S3850 N3851 1.602 1_655 S
S3850 N3852 1.622 . S
N3851 S3850 1.602 1_455 S
N3851 C3854 1.350 . S
N3852 S3850 1.622 . S
N3852 C3853 1.351 . S
C3853 C3847 1.428 . S
C3853 N3852 1.351 . S
C3853 C3854 1.434 1_655 S
C3854 C3845 1.429 . S
C3854 N3851 1.350 . S
C3854 C3853 1.434 1_455 S
C3855 C3856 1.369 . S
C3855 C3857 1.419 1_545 S
C3855 H3859 0.930 . S
C3856 C3855 1.369 . S
C3856 C3865 1.429 . S
C3857 C3855 1.419 1_565 S
C3857 C3858 1.363 . S
C3857 H3860 0.929 . S
C3858 C3857 1.363 . S
C3858 C3864 1.428 . S
H3859 C3855 0.930 . S
H3860 C3857 0.929 . S
S3861 N3862 1.613 1_565 S
S3861 N3863 1.611 . S
N3862 S3861 1.613 1_545 S
N3862 C3865 1.350 . S
N3863 S3861 1.611 . S
N3863 C3864 1.351 . S
C3864 C3858 1.428 . S
C3864 N3863 1.351 . S
C3864 C3865 1.434 1_565 S
C3865 C3856 1.429 . S
C3865 N3862 1.350 . S
C3865 C3864 1.434 1_545 S
C3866 C3867 1.369 . S
C3866 C3868 1.419 1_655 S
C3866 H3870 0.930 . S
C3867 C3866 1.369 . S
C3867 C3876 1.429 . S
C3868 C3866 1.419 1_455 S
C3868 C3869 1.363 . S
C3868 H3871 0.929 . S
C3869 C3868 1.363 . S
C3869 C3875 1.428 . S
H3870 C3866 0.930 . S
H3871 C3868 0.929 . S
S3872 N3873 1.617 . S
S3872 N3874 1.607 1_655 S
N3873 S3872 1.617 . S
N3873 C3876 1.350 . S
N3874 S3872 1.607 1_455 S
N3874 C3875 1.351 . S
C3875 C3869 1.428 . S
C3875 N3874 1.351 . S
C3875 C3876 1.434 1_455 S
C3876 C3867 1.429 . S
C3876 N3873 1.350 . S
C3876 C3875 1.434 1_655 S
C3877 C3878 1.369 . S
C3877 C3879 1.419 1_455 S
C3877 H3881 0.930 . S
C3878 C3877 1.369 . S
C3878 C3887 1.429 . S
C3879 C3877 1.419 1_655 S
C3879 C3880 1.363 . S
C3879 H3882 0.929 . S
C3880 C3879 1.363 . S
C3880 C3886 1.428 . S
H3881 C3877 0.930 . S
H3882 C3879 0.929 . S
S3883 N3884 1.612 . S
S3883 N3885 1.612 1_455 S
N3884 S3883 1.612 . S
N3884 C3887 1.350 . S
N3885 S3883 1.612 1_655 S
N3885 C3886 1.351 . S
C3886 C3880 1.428 . S
C3886 N3885 1.351 . S
C3886 C3887 1.434 1_655 S
C3887 C3878 1.429 . S
C3887 N3884 1.350 . S
C3887 C3886 1.434 1_455 S
C2833 C2304 1.392 . S
C2835 C3 1.392 . S
C2844 C64 1.401 . S
C2846 C2127 1.385 . S
C2855 C121 1.384 . S
C2857 C2186 1.385 . S
C2866 C2247 1.395 . S
C2868 C182 1.395 . S
C2877 C1952 1.395 . S
C2879 C241 1.395 . S
C2888 C298 1.389 . S
C2890 C2011 1.402 . S
C2899 C359 1.399 . S
C2901 C2068 1.383 . S
C2910 C416 1.392 . S
C2912 C1893 1.406 . S
C2921 C475 1.389 . S
C2923 C1832 1.389 . S
C2932 C1657 1.394 . S
C2934 C536 1.394 . S
C2943 C1714 1.387 . S
C2945 C595 1.402 . S
C2954 C652 1.384 . S
C2956 C1775 1.398 . S
C2965 C711 1.386 . S
C2967 C1480 1.401 . S
C2976 C772 1.401 . S
C2978 C1537 1.385 . S
C2987 C1598 1.399 . S
C2989 C831 1.398 . S
C2998 C1419 1.393 . S
C3000 C888 1.392 . S
C3009 C949 1.401 . S
C3011 C2601 1.401 . S
C3020 C2776 1.384 . S
C3022 C1006 1.383 . S
C3031 C2660 1.404 . S
C3033 C1067 1.404 . S
C3042 C2717 1.385 . S
C3044 C1124 1.385 . S
C3053 C2365 1.405 . S
C3055 C1185 1.404 . S
C3064 C2483 1.402 . S
C3066 C1244 1.402 . S
C3075 C1301 1.386 . S
C3077 C2540 1.385 . S
C3086 C2422 1.383 . S
C3088 C1360 1.383 . S
C3097 C1891 1.388 . S
C3099 C1183 1.388 . S
C3108 C1008 1.398 . S
C3110 C1950 1.383 . S
C3119 C2009 1.385 . S
C3121 C1065 1.385 . S
C3130 C2070 1.397 . S
C3132 C1126 1.397 . S
C3141 C1362 1.397 . S
C3143 C2129 1.397 . S
C3152 C2188 1.399 . S
C3154 C1242 1.383 . S
C3163 C1303 1.397 . S
C3165 C2245 1.381 . S
C3174 C947 1.391 . S
C3176 C2306 1.405 . S
C3185 C2363 1.390 . S
C3187 C890 1.405 . S
C3196 C713 1.397 . S
C3198 C2778 1.396 . S
C3207 C2658 1.387 . S
C3209 C770 1.387 . S
C3218 C829 1.377 . S
C3220 C2719 1.395 . S
C3229 C534 1.382 . S
C3231 C2424 1.399 . S
C3240 C593 1.388 . S
C3242 C2481 1.387 . S
C3251 C654 1.400 . S
C3253 C2542 1.400 . S
C3262 C2599 1.390 . S
C3264 C477 1.405 . S
C3273 C1421 1.401 . S
C3275 C418 1.402 . S
C3284 C1655 1.380 . S
C3286 C62 1.380 . S
C3295 C1716 1.402 . S
C3297 C123 1.402 . S
C3306 C1773 1.385 . S
C3308 C180 1.384 . S
C3317 C1834 1.405 . S
C3319 C5 1.405 . S
C3328 C300 1.401 . S
C3330 C1539 1.401 . S
C3339 C1596 1.381 . S
C3341 C357 1.381 . S
C3350 C1478 1.379 . S
C3352 C239 1.380 . S
C3361 C33 1.585 . S
C3363 C1567 1.585 . S
C3372 C1645 1.583 . S
C3374 C111 1.582 . S
C3383 C151 1.585 . S
C3385 C1449 1.585 . S
C3394 C229 1.582 . S
C3396 C1527 1.582 . S
C3405 C288 1.581 . S
C3407 C1822 1.581 . S
C3416 C1862 1.584 . S
C3418 C328 1.585 . S
C3427 C406 1.581 . S
C3429 C1704 1.581 . S
C3438 C1744 1.584 . S
C3440 C446 1.584 . S
C3449 C505 1.583 . S
C3451 C2157 1.583 . S
C3460 C2216 1.583 . S
C3462 C583 1.582 . S
C3471 C642 1.581 . S
C3473 C2294 1.581 . S
C3482 C682 1.583 . S
C3484 C2334 1.583 . S
C3493 C741 1.584 . S
C3495 C1940 1.583 . S
C3504 C819 1.583 . S
C3506 C1999 1.582 . S
C3515 C2058 1.583 . S
C3517 C878 1.583 . S
C3526 C918 1.584 . S
C3528 C2098 1.584 . S
C3537 C2570 1.583 . S
C3539 C996 1.583 . S
C3548 C1036 1.583 . S
C3550 C2707 1.582 . S
C3559 C1114 1.583 . S
C3561 C2747 1.584 . S
C3570 C2412 1.582 . S
C3572 C1154 1.584 . S
C3581 C2806 1.584 . S
C3583 C1232 1.583 . S
C3592 C1291 1.583 . S
C3594 C2452 1.583 . S
C3603 C2530 1.582 . S
C3605 C1331 1.583 . S
C3614 C1390 1.584 . S
C3616 C2648 1.583 . S
C3625 C2511 1.584 . S
C3627 C1213 1.585 . S
C3636 C1055 1.582 . S
C3638 C2589 1.582 . S
C3647 C2629 1.585 . S
C3649 C1095 1.585 . S
C3658 C2471 1.582 . S
C3660 C1173 1.582 . S
C3669 C2766 1.582 . S
C3671 C1409 1.582 . S
C3680 C1272 1.584 . S
C3682 C2393 1.584 . S
C3691 C2825 1.581 . S
C3693 C1350 1.581 . S
C3702 C977 1.584 . S
C3704 C2688 1.584 . S
C3713 C1980 1.583 . S
C3715 C937 1.582 . S
C3724 C760 1.581 . S
C3726 C2039 1.583 . S
C3735 C800 1.583 . S
C3737 C2117 1.582 . S
C3746 C1921 1.583 . S
C3748 C859 1.583 . S
C3757 C564 1.584 . S
C3759 C2353 1.584 . S
C3768 C2176 1.583 . S
C3770 C623 1.584 . S
C3779 C701 1.582 . S
C3781 C2235 1.582 . S
C3790 C524 1.583 . S
C3792 C2275 1.584 . S
C3801 C1626 1.584 . S
C3803 C465 1.582 . S
C3812 C92 1.584 . S
C3814 C1763 1.582 . S
C3823 C170 1.582 . S
C3825 C1803 1.583 . S
C3834 C1881 1.583 . S
C3836 C210 1.584 . S
C3845 C52 1.583 . S
C3847 C1685 1.584 . S
C3856 C347 1.582 . S
C3858 C1508 1.583 . S
C3867 C387 1.583 . S
C3869 C1586 1.583 . S
C3878 C269 1.584 . S
C3880 C1468 1.583 . S
