# Generated by pormake.
# Topology wmy, (6)-cn, num edge types: 1
# Building blocks:
#     Node 0, Type 0, BuildingBlock: VOLQOD_clean_sbu_1, # of connection points: 6
#     Node 1, Type 0, BuildingBlock: VOLQOD_clean_sbu_1, # of connection points: 6
#     Node 2, Type 0, BuildingBlock: VOLQOD_clean_sbu_1, # of connection points: 6
#     Node 3, Type 0, BuildingBlock: VOLQOD_clean_sbu_1, # of connection points: 6
#     Node 4, Type 0, BuildingBlock: VOLQOD_clean_sbu_1, # of connection points: 6
#     Node 5, Type 0, BuildingBlock: VOLQOD_clean_sbu_1, # of connection points: 6
#     Node 6, Type 0, BuildingBlock: VOLQOD_clean_sbu_1, # of connection points: 6
#     Node 7, Type 0, BuildingBlock: VOLQOD_clean_sbu_1, # of connection points: 6
#     Node 8, Type 0, BuildingBlock: VOLQOD_clean_sbu_1, # of connection points: 6
#     Node 9, Type 0, BuildingBlock: VOLQOD_clean_sbu_1, # of connection points: 6
#     Node 10, Type 0, BuildingBlock: VOLQOD_clean_sbu_1, # of connection points: 6
#     Node 11, Type 0, BuildingBlock: VOLQOD_clean_sbu_1, # of connection points: 6
#     Node 12, Type 0, BuildingBlock: VOLQOD_clean_sbu_1, # of connection points: 6
#     Node 13, Type 0, BuildingBlock: VOLQOD_clean_sbu_1, # of connection points: 6
#     Node 14, Type 0, BuildingBlock: VOLQOD_clean_sbu_1, # of connection points: 6
#     Node 15, Type 0, BuildingBlock: VOLQOD_clean_sbu_1, # of connection points: 6
#     Node 16, Type 0, BuildingBlock: VOLQOD_clean_sbu_1, # of connection points: 6
#     Node 17, Type 0, BuildingBlock: VOLQOD_clean_sbu_1, # of connection points: 6
#     Node 18, Type 0, BuildingBlock: VOLQOD_clean_sbu_1, # of connection points: 6
#     Node 19, Type 0, BuildingBlock: VOLQOD_clean_sbu_1, # of connection points: 6
#     Node 20, Type 0, BuildingBlock: VOLQOD_clean_sbu_1, # of connection points: 6
#     Node 21, Type 0, BuildingBlock: VOLQOD_clean_sbu_1, # of connection points: 6
#     Node 22, Type 0, BuildingBlock: VOLQOD_clean_sbu_1, # of connection points: 6
#     Node 23, Type 0, BuildingBlock: VOLQOD_clean_sbu_1, # of connection points: 6
#     Node 24, Type 0, BuildingBlock: VOLQOD_clean_sbu_1, # of connection points: 6
#     Node 25, Type 0, BuildingBlock: VOLQOD_clean_sbu_1, # of connection points: 6
#     Node 26, Type 0, BuildingBlock: VOLQOD_clean_sbu_1, # of connection points: 6
#     Node 27, Type 0, BuildingBlock: VOLQOD_clean_sbu_1, # of connection points: 6
#     Node 28, Type 0, BuildingBlock: VOLQOD_clean_sbu_1, # of connection points: 6
#     Node 29, Type 0, BuildingBlock: VOLQOD_clean_sbu_1, # of connection points: 6
#     Node 30, Type 0, BuildingBlock: VOLQOD_clean_sbu_1, # of connection points: 6
#     Node 31, Type 0, BuildingBlock: VOLQOD_clean_sbu_1, # of connection points: 6
#     Node 32, Type 0, BuildingBlock: VOLQOD_clean_sbu_1, # of connection points: 6
#     Node 33, Type 0, BuildingBlock: VOLQOD_clean_sbu_1, # of connection points: 6
#     Node 34, Type 0, BuildingBlock: VOLQOD_clean_sbu_1, # of connection points: 6
#     Node 35, Type 0, BuildingBlock: VOLQOD_clean_sbu_1, # of connection points: 6
#     Edge 36, Type (0, 0), BuildingBlock: AJUNOK_clean_linker_0, # of connection points: 2
#     Edge 37, Type (0, 0), BuildingBlock: AJUNOK_clean_linker_0, # of connection points: 2
#     Edge 38, Type (0, 0), BuildingBlock: AJUNOK_clean_linker_0, # of connection points: 2
#     Edge 39, Type (0, 0), BuildingBlock: AJUNOK_clean_linker_0, # of connection points: 2
#     Edge 40, Type (0, 0), BuildingBlock: AJUNOK_clean_linker_0, # of connection points: 2
#     Edge 41, Type (0, 0), BuildingBlock: AJUNOK_clean_linker_0, # of connection points: 2
#     Edge 42, Type (0, 0), BuildingBlock: AJUNOK_clean_linker_0, # of connection points: 2
#     Edge 43, Type (0, 0), BuildingBlock: AJUNOK_clean_linker_0, # of connection points: 2
#     Edge 44, Type (0, 0), BuildingBlock: AJUNOK_clean_linker_0, # of connection points: 2
#     Edge 45, Type (0, 0), BuildingBlock: AJUNOK_clean_linker_0, # of connection points: 2
#     Edge 46, Type (0, 0), BuildingBlock: AJUNOK_clean_linker_0, # of connection points: 2
#     Edge 47, Type (0, 0), BuildingBlock: AJUNOK_clean_linker_0, # of connection points: 2
#     Edge 48, Type (0, 0), BuildingBlock: AJUNOK_clean_linker_0, # of connection points: 2
#     Edge 49, Type (0, 0), BuildingBlock: AJUNOK_clean_linker_0, # of connection points: 2
#     Edge 50, Type (0, 0), BuildingBlock: AJUNOK_clean_linker_0, # of connection points: 2
#     Edge 51, Type (0, 0), BuildingBlock: AJUNOK_clean_linker_0, # of connection points: 2
#     Edge 52, Type (0, 0), BuildingBlock: AJUNOK_clean_linker_0, # of connection points: 2
#     Edge 53, Type (0, 0), BuildingBlock: AJUNOK_clean_linker_0, # of connection points: 2
#     Edge 54, Type (0, 0), BuildingBlock: AJUNOK_clean_linker_0, # of connection points: 2
#     Edge 55, Type (0, 0), BuildingBlock: AJUNOK_clean_linker_0, # of connection points: 2
#     Edge 56, Type (0, 0), BuildingBlock: AJUNOK_clean_linker_0, # of connection points: 2
#     Edge 57, Type (0, 0), BuildingBlock: AJUNOK_clean_linker_0, # of connection points: 2
#     Edge 58, Type (0, 0), BuildingBlock: AJUNOK_clean_linker_0, # of connection points: 2
#     Edge 59, Type (0, 0), BuildingBlock: AJUNOK_clean_linker_0, # of connection points: 2
#     Edge 60, Type (0, 0), BuildingBlock: AJUNOK_clean_linker_0, # of connection points: 2
#     Edge 61, Type (0, 0), BuildingBlock: AJUNOK_clean_linker_0, # of connection points: 2
#     Edge 62, Type (0, 0), BuildingBlock: AJUNOK_clean_linker_0, # of connection points: 2
#     Edge 63, Type (0, 0), BuildingBlock: AJUNOK_clean_linker_0, # of connection points: 2
#     Edge 64, Type (0, 0), BuildingBlock: AJUNOK_clean_linker_0, # of connection points: 2
#     Edge 65, Type (0, 0), BuildingBlock: AJUNOK_clean_linker_0, # of connection points: 2
#     Edge 66, Type (0, 0), BuildingBlock: AJUNOK_clean_linker_0, # of connection points: 2
#     Edge 67, Type (0, 0), BuildingBlock: AJUNOK_clean_linker_0, # of connection points: 2
#     Edge 68, Type (0, 0), BuildingBlock: AJUNOK_clean_linker_0, # of connection points: 2
#     Edge 69, Type (0, 0), BuildingBlock: AJUNOK_clean_linker_0, # of connection points: 2
#     Edge 70, Type (0, 0), BuildingBlock: AJUNOK_clean_linker_0, # of connection points: 2
#     Edge 71, Type (0, 0), BuildingBlock: AJUNOK_clean_linker_0, # of connection points: 2
#     Edge 72, Type (0, 0), BuildingBlock: AJUNOK_clean_linker_0, # of connection points: 2
#     Edge 73, Type (0, 0), BuildingBlock: AJUNOK_clean_linker_0, # of connection points: 2
#     Edge 74, Type (0, 0), BuildingBlock: AJUNOK_clean_linker_0, # of connection points: 2
#     Edge 75, Type (0, 0), BuildingBlock: AJUNOK_clean_linker_0, # of connection points: 2
#     Edge 76, Type (0, 0), BuildingBlock: AJUNOK_clean_linker_0, # of connection points: 2
#     Edge 77, Type (0, 0), BuildingBlock: AJUNOK_clean_linker_0, # of connection points: 2
#     Edge 78, Type (0, 0), BuildingBlock: AJUNOK_clean_linker_0, # of connection points: 2
#     Edge 79, Type (0, 0), BuildingBlock: AJUNOK_clean_linker_0, # of connection points: 2
#     Edge 80, Type (0, 0), BuildingBlock: AJUNOK_clean_linker_0, # of connection points: 2
#     Edge 81, Type (0, 0), BuildingBlock: AJUNOK_clean_linker_0, # of connection points: 2
#     Edge 82, Type (0, 0), BuildingBlock: AJUNOK_clean_linker_0, # of connection points: 2
#     Edge 83, Type (0, 0), BuildingBlock: AJUNOK_clean_linker_0, # of connection points: 2
#     Edge 84, Type (0, 0), BuildingBlock: AJUNOK_clean_linker_0, # of connection points: 2
#     Edge 85, Type (0, 0), BuildingBlock: AJUNOK_clean_linker_0, # of connection points: 2
#     Edge 86, Type (0, 0), BuildingBlock: AJUNOK_clean_linker_0, # of connection points: 2
#     Edge 87, Type (0, 0), BuildingBlock: AJUNOK_clean_linker_0, # of connection points: 2
#     Edge 88, Type (0, 0), BuildingBlock: AJUNOK_clean_linker_0, # of connection points: 2
#     Edge 89, Type (0, 0), BuildingBlock: AJUNOK_clean_linker_0, # of connection points: 2
#     Edge 90, Type (0, 0), BuildingBlock: AJUNOK_clean_linker_0, # of connection points: 2
#     Edge 91, Type (0, 0), BuildingBlock: AJUNOK_clean_linker_0, # of connection points: 2
#     Edge 92, Type (0, 0), BuildingBlock: AJUNOK_clean_linker_0, # of connection points: 2
#     Edge 93, Type (0, 0), BuildingBlock: AJUNOK_clean_linker_0, # of connection points: 2
#     Edge 94, Type (0, 0), BuildingBlock: AJUNOK_clean_linker_0, # of connection points: 2
#     Edge 95, Type (0, 0), BuildingBlock: AJUNOK_clean_linker_0, # of connection points: 2
#     Edge 96, Type (0, 0), BuildingBlock: AJUNOK_clean_linker_0, # of connection points: 2
#     Edge 97, Type (0, 0), BuildingBlock: AJUNOK_clean_linker_0, # of connection points: 2
#     Edge 98, Type (0, 0), BuildingBlock: AJUNOK_clean_linker_0, # of connection points: 2
#     Edge 99, Type (0, 0), BuildingBlock: AJUNOK_clean_linker_0, # of connection points: 2
#     Edge 100, Type (0, 0), BuildingBlock: AJUNOK_clean_linker_0, # of connection points: 2
#     Edge 101, Type (0, 0), BuildingBlock: AJUNOK_clean_linker_0, # of connection points: 2
#     Edge 102, Type (0, 0), BuildingBlock: AJUNOK_clean_linker_0, # of connection points: 2
#     Edge 103, Type (0, 0), BuildingBlock: AJUNOK_clean_linker_0, # of connection points: 2
#     Edge 104, Type (0, 0), BuildingBlock: AJUNOK_clean_linker_0, # of connection points: 2
#     Edge 105, Type (0, 0), BuildingBlock: AJUNOK_clean_linker_0, # of connection points: 2
#     Edge 106, Type (0, 0), BuildingBlock: AJUNOK_clean_linker_0, # of connection points: 2
#     Edge 107, Type (0, 0), BuildingBlock: AJUNOK_clean_linker_0, # of connection points: 2
#     Edge 108, Type (0, 0), BuildingBlock: AJUNOK_clean_linker_0, # of connection points: 2
#     Edge 109, Type (0, 0), BuildingBlock: AJUNOK_clean_linker_0, # of connection points: 2
#     Edge 110, Type (0, 0), BuildingBlock: AJUNOK_clean_linker_0, # of connection points: 2
#     Edge 111, Type (0, 0), BuildingBlock: AJUNOK_clean_linker_0, # of connection points: 2
#     Edge 112, Type (0, 0), BuildingBlock: AJUNOK_clean_linker_0, # of connection points: 2
#     Edge 113, Type (0, 0), BuildingBlock: AJUNOK_clean_linker_0, # of connection points: 2
#     Edge 114, Type (0, 0), BuildingBlock: AJUNOK_clean_linker_0, # of connection points: 2
#     Edge 115, Type (0, 0), BuildingBlock: AJUNOK_clean_linker_0, # of connection points: 2
#     Edge 116, Type (0, 0), BuildingBlock: AJUNOK_clean_linker_0, # of connection points: 2
#     Edge 117, Type (0, 0), BuildingBlock: AJUNOK_clean_linker_0, # of connection points: 2
#     Edge 118, Type (0, 0), BuildingBlock: AJUNOK_clean_linker_0, # of connection points: 2
#     Edge 119, Type (0, 0), BuildingBlock: AJUNOK_clean_linker_0, # of connection points: 2
#     Edge 120, Type (0, 0), BuildingBlock: AJUNOK_clean_linker_0, # of connection points: 2
#     Edge 121, Type (0, 0), BuildingBlock: AJUNOK_clean_linker_0, # of connection points: 2
#     Edge 122, Type (0, 0), BuildingBlock: AJUNOK_clean_linker_0, # of connection points: 2
#     Edge 123, Type (0, 0), BuildingBlock: AJUNOK_clean_linker_0, # of connection points: 2
#     Edge 124, Type (0, 0), BuildingBlock: AJUNOK_clean_linker_0, # of connection points: 2
#     Edge 125, Type (0, 0), BuildingBlock: AJUNOK_clean_linker_0, # of connection points: 2
#     Edge 126, Type (0, 0), BuildingBlock: AJUNOK_clean_linker_0, # of connection points: 2
#     Edge 127, Type (0, 0), BuildingBlock: AJUNOK_clean_linker_0, # of connection points: 2
#     Edge 128, Type (0, 0), BuildingBlock: AJUNOK_clean_linker_0, # of connection points: 2
#     Edge 129, Type (0, 0), BuildingBlock: AJUNOK_clean_linker_0, # of connection points: 2
#     Edge 130, Type (0, 0), BuildingBlock: AJUNOK_clean_linker_0, # of connection points: 2
#     Edge 131, Type (0, 0), BuildingBlock: AJUNOK_clean_linker_0, # of connection points: 2
#     Edge 132, Type (0, 0), BuildingBlock: AJUNOK_clean_linker_0, # of connection points: 2
#     Edge 133, Type (0, 0), BuildingBlock: AJUNOK_clean_linker_0, # of connection points: 2
#     Edge 134, Type (0, 0), BuildingBlock: AJUNOK_clean_linker_0, # of connection points: 2
#     Edge 135, Type (0, 0), BuildingBlock: AJUNOK_clean_linker_0, # of connection points: 2
#     Edge 136, Type (0, 0), BuildingBlock: AJUNOK_clean_linker_0, # of connection points: 2
#     Edge 137, Type (0, 0), BuildingBlock: AJUNOK_clean_linker_0, # of connection points: 2
#     Edge 138, Type (0, 0), BuildingBlock: AJUNOK_clean_linker_0, # of connection points: 2
#     Edge 139, Type (0, 0), BuildingBlock: AJUNOK_clean_linker_0, # of connection points: 2
#     Edge 140, Type (0, 0), BuildingBlock: AJUNOK_clean_linker_0, # of connection points: 2
#     Edge 141, Type (0, 0), BuildingBlock: AJUNOK_clean_linker_0, # of connection points: 2
#     Edge 142, Type (0, 0), BuildingBlock: AJUNOK_clean_linker_0, # of connection points: 2
#     Edge 143, Type (0, 0), BuildingBlock: AJUNOK_clean_linker_0, # of connection points: 2
# Relax obj value: 0.747
# Max RMSD: 0.311
# Mean RMSD: 0.311
data_MOF--net-wmy--node1-VOLQOD_clean_sbu_1--edge1-AJUNOK_clean_linker_0
_symmetry_space_group_name_H-M    P1
_symmetry_Int_Tables_number       1
_symmetry_cell_setting            triclinic
loop_
_symmetry_equiv_pos_as_xyz
'x, y, z'
_cell_length_a     44.557594
_cell_length_b     44.502521
_cell_length_c     43.146509
_cell_angle_alpha  90.021178
_cell_angle_beta   90.065544
_cell_angle_gamma 120.0934
loop_
_atom_site_label
_atom_site_type_symbol
_atom_site_fract_x
_atom_site_fract_y
_atom_site_fract_z
_atom_type_partial_charge
O0 O -0.00764 0.16266 0.17345 0.0
Zn1 Zn 0.0075 0.16679 0.12798 0.0
O2 O -0.03266 0.142 0.1031 0.0
Zn3 Zn -0.03244 0.11106 0.07281 0.0
Zn4 Zn 0.92628 0.11662 0.12679 0.0
Zn5 Zn -0.03706 0.17318 0.07737 0.0
O6 O -0.01634 0.13243 0.02944 0.0
O7 O -0.00396 0.18556 0.04192 0.0
O8 O 0.03727 0.14346 0.12134 0.0
O9 O 0.00498 0.10349 0.08593 0.0
O10 O 0.92319 0.06435 0.07617 0.0
O11 O 0.91266 0.06656 0.1262 0.0
O12 O 0.88612 0.11401 0.10235 0.0
O13 O 0.02892 0.21778 0.11389 0.0
O14 O 0.91405 0.14585 0.06128 0.0
O15 O -0.01918 0.21779 0.09955 0.0
C16 C -0.03701 0.15003 0.18713 0.0
C17 C -0.00099 0.16491 0.02362 0.0
C18 C 0.90736 0.04934 0.10121 0.0
C19 C 0.03112 0.11765 0.10383 0.0
C20 C 0.88646 0.12165 0.07374 0.0
C21 C 0.01324 0.23416 0.10583 0.0
O22 O 0.93457 0.13352 0.17183 0.0
O23 O 0.77385 0.81548 0.17225 0.0
Zn24 Zn 0.76991 0.82675 0.12673 0.0
O25 O 0.79418 0.81052 0.10211 0.0
Zn26 Zn 0.82813 0.84295 0.07469 0.0
Zn27 Zn 0.81698 0.79195 0.12604 0.0
Zn28 Zn 0.76348 0.77699 0.07394 0.0
O29 O 0.80987 0.84165 0.0311 0.0
O30 O 0.75544 0.80039 0.03751 0.0
O31 O 0.79376 0.8802 0.12014 0.0
O32 O 0.8373 0.88823 0.08911 0.0
O33 O 0.8731 0.84225 0.07838 0.0
O34 O 0.86759 0.8264 0.12773 0.0
O35 O 0.81844 0.75408 0.10093 0.0
O36 O 0.71869 0.79792 0.11264 0.0
O37 O 0.78891 0.75329 0.05911 0.0
O38 O 0.71744 0.75057 0.09365 0.0
C39 C 0.78464 0.79711 0.18595 0.0
C40 C 0.77835 0.82574 0.02196 0.0
C41 C 0.88625 0.83909 0.10368 0.0
C42 C 0.82152 0.90008 0.10493 0.0
C43 C 0.81145 0.74773 0.07209 0.0
C44 C 0.7018 0.7665 0.10259 0.0
O45 O 0.79923 0.78323 0.17065 0.0
O46 O 0.11994 0.94278 0.17219 0.0
Zn47 Zn 0.1086 0.92796 0.12692 0.0
O48 O 0.12248 0.96816 0.10272 0.0
Zn49 Zn 0.08889 0.96662 0.07471 0.0
Zn50 Zn 0.1375 0.00875 0.12715 0.0
Zn51 Zn 0.15787 -0.02561 0.07538 0.0
O52 O 0.09163 0.94908 0.03165 0.0
O53 O 0.13687 0.94227 0.03922 0.0
O54 O 0.05562 0.89605 0.12123 0.0
O55 O 0.04472 0.9289 0.08923 0.0
O56 O 0.08673 0.01103 0.07817 0.0
O57 O 0.09971 0.02018 0.12823 0.0
O58 O 0.17298 0.05014 0.10214 0.0
O59 O 0.13886 0.90821 0.11174 0.0
O60 O 0.17812 0.0237 0.06037 0.0
O61 O 0.18588 0.95629 0.09516 0.0
C62 C 0.13597 0.97179 0.18661 0.0
C63 C 0.11078 0.93685 0.02318 0.0
C64 C 0.08789 0.02634 0.10366 0.0
C65 C 0.0345 0.90195 0.1058 0.0
C66 C 0.18065 0.05064 0.07348 0.0
C67 C 0.17039 0.92401 0.10219 0.0
O68 O 0.14724 0.00061 0.17206 0.0
O69 O 0.14799 0.00168 0.33679 0.0
Zn70 Zn 0.1512 0.01694 0.38213 0.0
O71 O 0.12797 -0.02364 0.4069 0.0
Zn72 Zn 0.0965 -0.02444 0.43673 0.0
Zn73 Zn 0.10292 0.93508 0.38323 0.0
Zn74 Zn 0.15986 0.97294 0.43256 0.0
O75 O 0.11886 -0.00372 0.47875 0.0
O76 O 0.17138 0.00533 0.46868 0.0
O77 O 0.12447 0.0441 0.38727 0.0
O78 O 0.08435 0.00864 0.42084 0.0
O79 O 0.05139 0.92941 0.43553 0.0
O80 O 0.05251 0.92007 0.38509 0.0
O81 O 0.10248 0.89549 0.40679 0.0
O82 O 0.20253 0.04021 0.39631 0.0
O83 O 0.13399 0.92371 0.44797 0.0
O84 O 0.20434 -0.0073 0.41003 0.0
C85 C 0.13552 0.97237 0.32292 0.0
C86 C 0.15092 0.01001 0.48575 0.0
C87 C 0.03586 0.91393 0.4105 0.0
C88 C 0.09635 0.03436 0.40256 0.0
C89 C 0.11023 0.89588 0.43538 0.0
C90 C 0.21975 0.02516 0.40379 0.0
O91 O 0.11903 0.94382 0.33801 0.0
O92 O 0.9323 0.1338 0.33756 0.0
Zn93 Zn 0.91655 0.12305 0.38262 0.0
O94 O 0.95741 0.13809 0.40708 0.0
Zn95 Zn 0.95591 0.10543 0.43646 0.0
Zn96 Zn -0.00023 0.15684 0.38406 0.0
Zn97 Zn -0.03986 0.17255 0.43377 0.0
O98 O 0.94066 0.11022 0.48033 0.0
O99 O 0.92584 0.14923 0.46803 0.0
O100 O 0.88446 0.06967 0.38912 0.0
O101 O 0.91686 0.06169 0.42377 0.0
O102 O -0.00318 0.09797 0.43092 0.0
O103 O 0.01718 0.12335 0.38513 0.0
O104 O 0.03766 0.19708 0.40887 0.0
O105 O 0.89573 0.15372 0.39556 0.0
O106 O 0.00826 0.19492 0.45099 0.0
O107 O 0.94369 0.20061 0.4123 0.0
C108 C -0.03858 0.15066 0.32351 0.0
C109 C 0.92367 0.12568 0.48605 0.0
C110 C 0.01644 0.1042 0.40736 0.0
C111 C 0.89015 0.04984 0.40676 0.0
C112 C 0.03628 0.20004 0.43826 0.0
C113 C 0.91199 0.18578 0.40386 0.0
O114 O -0.00979 0.16353 0.33846 0.0
O115 O 0.80294 0.78587 0.33702 0.0
Zn116 Zn 0.81338 0.7823 0.38271 0.0
O117 O 0.79795 0.80793 0.40634 0.0
Zn118 Zn 0.83024 0.83973 0.43533 0.0
Zn119 Zn 0.78275 0.83332 0.38168 0.0
Zn120 Zn 0.76205 0.77729 0.43276 0.0
O121 O 0.82672 0.81873 0.47817 0.0
O122 O 0.78263 0.76614 0.46936 0.0
O123 O 0.86642 0.80435 0.39025 0.0
O124 O 0.87526 0.84781 0.42186 0.0
O125 O 0.83174 0.88588 0.43286 0.0
O126 O 0.81843 0.88404 0.38303 0.0
O127 O 0.74348 0.83453 0.40441 0.0
O128 O 0.78327 0.73156 0.39717 0.0
O129 O 0.73946 0.80438 0.44688 0.0
O130 O 0.73533 0.73162 0.41194 0.0
C131 C 0.78716 0.79889 0.32231 0.0
C132 C 0.80805 0.78703 0.48605 0.0
C133 C 0.83033 0.90103 0.40817 0.0
C134 C 0.8866 0.8315 0.40614 0.0
C135 C 0.73524 0.82734 0.43295 0.0
C136 C 0.75132 0.71525 0.40556 0.0
O137 O 0.77566 0.81635 0.33659 0.0
O138 O 0.93121 0.78433 0.83618 0.0
Zn139 Zn 0.91549 0.78138 0.88144 0.0
O140 O 0.95595 0.80611 0.90631 0.0
Zn141 Zn 0.95599 0.83798 0.93523 0.0
Zn142 Zn -0.00282 0.83144 0.88276 0.0
Zn143 Zn -0.03965 0.77571 0.93303 0.0
O144 O 0.93477 0.81633 0.97716 0.0
O145 O 0.92799 0.76424 0.9691 0.0
O146 O 0.88774 0.80784 0.88533 0.0
O147 O 0.92323 0.8496 0.91789 0.0
O148 O 0.00195 0.8831 0.93427 0.0
O149 O 0.01106 0.8816 0.88387 0.0
O150 O 0.03732 0.83353 0.90675 0.0
O151 O 0.89334 0.7301 0.89667 0.0
O152 O 0.00951 0.80261 0.94824 0.0
O153 O 0.94197 0.73115 0.91114 0.0
C154 C -0.03937 0.79748 0.82249 0.0
C155 C 0.92222 0.78469 0.98516 0.0
C156 C 0.01727 0.89846 0.9092 0.0
C157 C 0.89753 0.83671 0.89954 0.0
C158 C 0.03718 0.82619 0.93541 0.0
C159 C 0.90957 0.71421 0.90491 0.0
O160 O -0.01102 0.81479 0.83772 0.0
O161 O 0.14718 0.13158 0.83578 0.0
Zn162 Zn 0.15015 0.12064 0.88146 0.0
O163 O 0.12465 0.13615 0.90503 0.0
Zn164 Zn 0.09179 0.10416 0.93386 0.0
Zn165 Zn 0.10101 0.15299 0.88022 0.0
Zn166 Zn 0.15524 0.17113 0.9319 0.0
O167 O 0.11156 0.10742 0.97788 0.0
O168 O 0.16515 0.14868 0.96753 0.0
O169 O 0.12754 0.06761 0.88882 0.0
O170 O 0.0844 0.05918 0.92059 0.0
O171 O 0.04548 0.10275 0.92882 0.0
O172 O 0.05074 0.11724 0.87902 0.0
O173 O 0.09832 0.19067 0.90467 0.0
O174 O 0.20079 0.15008 0.8963 0.0
O175 O 0.12874 0.19396 0.94679 0.0
O176 O 0.20116 0.19806 0.91183 0.0
C177 C 0.13568 0.1488 0.82117 0.0
C178 C 0.1438 0.12418 0.98475 0.0
C179 C 0.0321 0.10482 0.90315 0.0
C180 C 0.1005 0.04764 0.90481 0.0
C181 C 0.10577 0.19849 0.93329 0.0
C182 C 0.2173 0.18194 0.90511 0.0
O183 O 0.11931 0.16149 0.83549 0.0
O184 O 0.79743 0.00136 0.83555 0.0
Zn185 Zn 0.80947 0.01828 0.88026 0.0
O186 O 0.79629 -0.02195 0.90526 0.0
Zn187 Zn 0.83102 -0.01908 0.93302 0.0
Zn188 Zn 0.77657 0.935 0.88272 0.0
Zn189 Zn 0.7628 -0.02462 0.93326 0.0
O190 O 0.82781 -0.00334 0.97702 0.0
O191 O 0.78668 0.00942 0.96766 0.0
O192 O 0.86291 0.051 0.88464 0.0
O193 O 0.87392 0.02043 0.91906 0.0
O194 O 0.83882 0.94007 0.9269 0.0
O195 O 0.80976 0.91729 0.88292 0.0
O196 O 0.73725 0.89731 0.90847 0.0
O197 O 0.77901 0.03914 0.89426 0.0
O198 O 0.74098 0.92747 0.95061 0.0
O199 O 0.73371 -0.00858 0.91317 0.0
C200 C 0.78085 0.97194 0.82182 0.0
C201 C 0.81126 0.01212 0.9845 0.0
C202 C 0.83063 0.91914 0.90398 0.0
C203 C 0.88411 0.04643 0.90136 0.0
C204 C 0.73485 0.89907 0.9379 0.0
C205 C 0.7476 0.0229 0.9042 0.0
O206 O 0.7687 0.94342 0.83709 0.0
O207 O 0.7705 0.93987 0.67156 0.0
Zn208 Zn 0.76679 0.92531 0.62565 0.0
O209 O 0.79224 0.96626 0.60165 0.0
Zn210 Zn 0.82304 0.96631 0.57149 0.0
Zn211 Zn 0.81828 0.00679 0.62593 0.0
Zn212 Zn 0.76204 0.97218 0.57581 0.0
O213 O 0.80142 0.94974 0.52838 0.0
O214 O 0.74888 0.93941 0.53992 0.0
O215 O 0.79023 0.89522 0.61834 0.0
O216 O 0.83102 0.92936 0.58446 0.0
O217 O 0.86957 0.0105 0.57472 0.0
O218 O 0.86823 0.01979 0.62513 0.0
O219 O 0.8214 0.04785 0.60274 0.0
O220 O 0.71576 0.90509 0.61093 0.0
O221 O 0.79035 0.02165 0.56066 0.0
O222 O 0.71769 0.95459 0.59794 0.0
C223 C 0.7835 0.96922 0.68553 0.0
C224 C 0.76919 0.9355 0.52202 0.0
C225 C 0.88507 0.02551 0.59989 0.0
C226 C 0.81661 0.90239 0.60127 0.0
C227 C 0.81416 0.04873 0.57418 0.0
C228 C 0.70036 0.92203 0.60361 0.0
O229 O 0.80087 -0.00223 0.67062 0.0
O230 O -0.00826 0.81275 0.67177 0.0
Zn231 Zn 0.007 0.82368 0.62646 0.0
O232 O -0.03323 0.81101 0.60233 0.0
Zn233 Zn -0.03045 0.84517 0.57448 0.0
Zn234 Zn 0.9258 0.79652 0.62632 0.0
Zn235 Zn -0.03976 0.77568 0.57469 0.0
O236 O -0.01154 0.84308 0.53203 0.0
O237 O -0.00718 0.79622 0.53862 0.0
O238 O 0.03989 0.87687 0.62081 0.0
O239 O 0.00691 0.88895 0.59004 0.0
O240 O 0.92527 0.8475 0.57623 0.0
O241 O 0.91324 0.83385 0.62589 0.0
O242 O 0.88454 0.75963 0.60193 0.0
O243 O 0.02547 0.7917 0.61147 0.0
O244 O 0.91116 0.75571 0.55989 0.0
O245 O -0.02386 0.74626 0.59482 0.0
C246 C -0.0373 0.79795 0.68613 0.0
C247 C -0.00036 0.82316 0.52321 0.0
C248 C 0.90847 0.84595 0.60077 0.0
C249 C 0.03405 0.89854 0.60619 0.0
C250 C 0.88402 0.75232 0.57318 0.0
C251 C 0.00814 0.75999 0.60218 0.0
O252 O 0.93408 0.78773 0.6715 0.0
O253 O 0.11907 0.16034 0.67066 0.0
Zn254 Zn 0.10776 0.16347 0.62486 0.0
O255 O 0.12429 0.13895 0.60086 0.0
Zn256 Zn 0.09212 0.10449 0.57348 0.0
Zn257 Zn 0.14287 0.1165 0.62531 0.0
Zn258 Zn 0.15794 0.16951 0.57274 0.0
O259 O 0.09312 0.12276 0.52987 0.0
O260 O 0.13477 0.17719 0.53596 0.0
O261 O 0.05424 0.13888 0.61794 0.0
O262 O 0.04667 0.09478 0.58776 0.0
O263 O 0.09341 0.05967 0.57758 0.0
O264 O 0.10868 0.06572 0.62714 0.0
O265 O 0.18095 0.11499 0.60065 0.0
O266 O 0.13638 0.21472 0.61018 0.0
O267 O 0.18193 0.14413 0.5585 0.0
O268 O 0.18395 0.21586 0.59221 0.0
C269 C 0.13741 0.14976 0.68474 0.0
C270 C 0.10923 0.15424 0.52056 0.0
C271 C 0.09646 0.04679 0.60311 0.0
C272 C 0.03456 0.11066 0.60309 0.0
C273 C 0.1875 0.12175 0.57182 0.0
C274 C 0.16786 0.23158 0.60041 0.0
O275 O 0.15128 0.13489 0.66983 0.0
O276 O 0.65571 0.49708 0.50633 0.0
Zn277 Zn 0.67128 0.50079 0.46097 0.0
O278 O 0.63119 0.47577 0.4359 0.0
Zn279 Zn 0.63127 0.4436 0.40678 0.0
Zn280 Zn 0.59003 0.45173 0.45958 0.0
Zn281 Zn 0.62698 0.50655 0.40935 0.0
O282 O 0.64814 0.46422 0.3632 0.0
O283 O 0.66001 0.51759 0.37421 0.0
O284 O 0.70131 0.47745 0.45509 0.0
O285 O 0.66868 0.43621 0.42075 0.0
O286 O 0.58646 0.39693 0.41087 0.0
O287 O 0.57585 0.40171 0.46039 0.0
O288 O 0.55012 0.44931 0.43512 0.0
O289 O 0.6929 0.55177 0.44656 0.0
O290 O 0.57792 0.47974 0.39334 0.0
O291 O 0.64531 0.55185 0.43051 0.0
C292 C 0.62623 0.48513 0.5197 0.0
C293 C 0.66343 0.49658 0.35676 0.0
C294 C 0.5705 0.38326 0.43625 0.0
C295 C 0.69503 0.45104 0.43837 0.0
C296 C 0.5502 0.45665 0.40647 0.0
C297 C 0.67751 0.56817 0.43765 0.0
O298 O 0.59799 0.46918 0.50416 0.0
O299 O 0.43728 0.14804 0.5044 0.0
Zn300 Zn 0.43419 0.16001 0.45893 0.0
O301 O 0.46003 0.14546 0.43436 0.0
Zn302 Zn 0.49328 0.1794 0.40727 0.0
Zn303 Zn 0.48408 0.12832 0.45845 0.0
Zn304 Zn 0.43034 0.11125 0.40602 0.0
O305 O 0.47392 0.17937 0.36437 0.0
O306 O 0.4213 0.13406 0.36994 0.0
O307 O 0.45679 0.21344 0.45346 0.0
O308 O 0.50147 0.22379 0.42295 0.0
O309 O 0.53893 0.17972 0.41015 0.0
O310 O 0.53457 0.16393 0.4595 0.0
O311 O 0.48667 0.09082 0.43366 0.0
O312 O 0.38349 0.13056 0.44376 0.0
O313 O 0.45695 0.08843 0.39133 0.0
O314 O 0.38389 0.08395 0.42514 0.0
C315 C 0.44934 0.13084 0.51823 0.0
C316 C 0.44267 0.16094 0.35509 0.0
C317 C 0.5527 0.17666 0.43511 0.0
C318 C 0.48472 0.23437 0.43896 0.0
C319 C 0.47947 0.08333 0.40497 0.0
C320 C 0.36738 0.09926 0.43339 0.0
O321 O 0.46594 0.11893 0.50316 0.0
O322 O 0.78699 0.27573 0.50331 0.0
Zn323 Zn 0.77538 0.26157 0.45765 0.0
O324 O 0.78848 0.30262 0.43453 0.0
Zn325 Zn 0.75255 0.30083 0.41021 0.0
Zn326 Zn 0.80438 0.34315 0.45926 0.0
Zn327 Zn 0.82184 0.30906 0.40452 0.0
O328 O 0.74907 0.27813 0.36842 0.0
O329 O 0.79875 0.27826 0.36768 0.0
O330 O 0.72213 0.22901 0.45163 0.0
O331 O 0.70967 0.26686 0.42951 0.0
O332 O 0.75278 0.34644 0.41187 0.0
O333 O 0.76759 0.35642 0.46146 0.0
O334 O 0.84097 0.38454 0.43519 0.0
O335 O 0.80669 0.24283 0.44167 0.0
O336 O 0.84325 0.35892 0.39164 0.0
O337 O 0.85089 0.29087 0.42144 0.0
C338 C 0.80361 0.30485 0.51758 0.0
C339 C 0.76921 0.269 0.35602 0.0
C340 C 0.755 0.36233 0.43724 0.0
C341 C 0.70026 0.23753 0.44169 0.0
C342 C 0.84809 0.38592 0.40632 0.0
C343 C 0.83759 0.25943 0.43056 0.0
O344 O 0.8146 0.33367 0.50317 0.0
O345 O 0.81812 0.33349 0.6678 0.0
Zn346 Zn 0.82036 0.34905 0.71259 0.0
O347 O 0.79177 0.30862 0.73662 0.0
Zn348 Zn 0.75781 0.31114 0.76095 0.0
Zn349 Zn 0.76807 0.26686 0.71217 0.0
Zn350 Zn 0.81905 0.30382 0.76775 0.0
O351 O 0.77226 0.32512 0.80553 0.0
O352 O 0.8261 0.33564 0.80406 0.0
O353 O 0.7999 0.38204 0.71477 0.0
O354 O 0.75373 0.34996 0.74455 0.0
O355 O 0.71125 0.26865 0.7555 0.0
O356 O 0.71729 0.25105 0.7089 0.0
O357 O 0.76484 0.22692 0.73755 0.0
O358 O 0.8705 0.36853 0.72894 0.0
O359 O 0.79075 0.25406 0.78141 0.0
O360 O 0.86639 0.32134 0.75133 0.0
C361 C 0.80549 0.30446 0.6535 0.0
C362 C 0.80265 0.33935 0.81716 0.0
C363 C 0.69826 0.24997 0.73133 0.0
C364 C 0.77175 0.3765 0.72784 0.0
C365 C 0.76965 0.22646 0.76676 0.0
C366 C 0.88467 0.35225 0.74103 0.0
O367 O 0.7875 0.27564 0.66791 0.0
O368 O 0.59518 0.46492 0.67017 0.0
Zn369 Zn 0.58125 0.4526 0.71577 0.0
O370 O 0.62286 0.46795 0.73887 0.0
Zn371 Zn 0.62455 0.435 0.76598 0.0
Zn372 Zn 0.66327 0.4859 0.71396 0.0
Zn373 Zn 0.62696 0.50228 0.76655 0.0
O374 O 0.60751 0.43623 0.81015 0.0
O375 O 0.59611 0.47864 0.80257 0.0
O376 O 0.55126 0.3993 0.72201 0.0
O377 O 0.58703 0.39028 0.75186 0.0
O378 O 0.66976 0.43392 0.75973 0.0
O379 O 0.67807 0.45037 0.71037 0.0
O380 O 0.70353 0.52317 0.73889 0.0
O381 O 0.5589 0.48064 0.73215 0.0
O382 O 0.67638 0.52698 0.7807 0.0
O383 O 0.60625 0.5285 0.74828 0.0
C384 C 0.62397 0.48299 0.65581 0.0
C385 C 0.59279 0.45325 0.81854 0.0
C386 C 0.68444 0.43669 0.7335 0.0
C387 C 0.55894 0.37902 0.73674 0.0
C388 C 0.70398 0.53196 0.76722 0.0
C389 C 0.57387 0.51214 0.74194 0.0
O390 O 0.65302 0.49583 0.6702 0.0
O391 O 0.46273 0.11455 0.66914 0.0
Zn392 Zn 0.47465 0.11125 0.71444 0.0
O393 O 0.45913 0.13645 0.73881 0.0
Zn394 Zn 0.49112 0.16844 0.76768 0.0
Zn395 Zn 0.44444 0.16253 0.71457 0.0
Zn396 Zn 0.42435 0.10658 0.766 0.0
O397 O 0.49049 0.14802 0.81025 0.0
O398 O 0.44553 0.09567 0.8024 0.0
O399 O 0.52873 0.13645 0.71874 0.0
O400 O 0.53501 0.17821 0.75098 0.0
O401 O 0.49198 0.21428 0.76596 0.0
O402 O 0.48136 0.21272 0.71558 0.0
O403 O 0.40676 0.16541 0.73854 0.0
O404 O 0.44482 0.06002 0.7292 0.0
O405 O 0.4028 0.13457 0.78054 0.0
O406 O 0.39764 0.06108 0.74516 0.0
C407 C 0.44735 0.12812 0.65465 0.0
C408 C 0.47161 0.11645 0.81851 0.0
C409 C 0.49238 0.2297 0.74083 0.0
C410 C 0.54801 0.16492 0.73341 0.0
C411 C 0.39918 0.15822 0.7672 0.0
C412 C 0.41284 0.04418 0.73778 0.0
O413 O 0.43645 0.14595 0.66921 0.0
O414 O 0.59773 0.1226 0.16717 0.0
Zn415 Zn 0.58149 0.11829 0.21231 0.0
O416 O 0.62175 0.14034 0.23753 0.0
Zn417 Zn 0.62353 0.17066 0.2691 0.0
Zn418 Zn 0.66367 0.16522 0.21503 0.0
Zn419 Zn 0.62309 0.10681 0.26201 0.0
O420 O 0.60374 0.14712 0.31102 0.0
O421 O 0.58875 0.09379 0.29665 0.0
O422 O 0.55557 0.14623 0.21876 0.0
O423 O 0.59026 0.18316 0.25481 0.0
O424 O 0.66975 0.2159 0.26838 0.0
O425 O 0.68009 0.21591 0.21804 0.0
O426 O 0.70153 0.16344 0.23956 0.0
O427 O 0.55734 0.06618 0.22533 0.0
O428 O 0.67112 0.13158 0.27966 0.0
O429 O 0.60502 0.0642 0.23726 0.0
C430 C 0.62723 0.13471 0.15378 0.0
C431 C 0.58662 0.11441 0.31563 0.0
C432 C 0.6859 0.23196 0.2438 0.0
C433 C 0.56511 0.17307 0.23607 0.0
C434 C 0.69945 0.15582 0.26835 0.0
C435 C 0.57248 0.04872 0.23168 0.0
O436 O 0.65551 0.15018 0.16943 0.0
O437 O 0.81324 0.46449 0.17023 0.0
Zn438 Zn 0.81742 0.45436 0.2161 0.0
O439 O 0.79262 0.47034 0.24021 0.0
Zn440 Zn 0.76046 0.43893 0.26969 0.0
Zn441 Zn 0.76842 0.48655 0.21578 0.0
Zn442 Zn 0.8234 0.50642 0.26603 0.0
O443 O 0.78101 0.44439 0.31353 0.0
O444 O 0.83432 0.48535 0.3018 0.0
O445 O 0.79511 0.4013 0.22441 0.0
O446 O 0.7534 0.39364 0.25757 0.0
O447 O 0.71388 0.43679 0.26473 0.0
O448 O 0.7186 0.45019 0.21471 0.0
O449 O 0.76521 0.52411 0.2395 0.0
O450 O 0.86839 0.48467 0.22987 0.0
O451 O 0.79634 0.52863 0.28134 0.0
O452 O 0.86895 0.5329 0.24509 0.0
C453 C 0.80198 0.48241 0.15643 0.0
C454 C 0.8134 0.4615 0.31975 0.0
C455 C 0.7002 0.43812 0.23899 0.0
C456 C 0.76889 0.38166 0.24148 0.0
C457 C 0.77266 0.53215 0.26804 0.0
C458 C 0.88502 0.51672 0.23819 0.0
O459 O 0.78651 0.49548 0.17151 0.0
O460 O 0.46638 0.33774 0.16775 0.0
Zn461 Zn 0.47868 0.35438 0.21274 0.0
O462 O 0.4637 0.31451 0.23811 0.0
Zn463 Zn 0.49569 0.31581 0.26812 0.0
Zn464 Zn 0.44585 0.2722 0.21547 0.0
Zn465 Zn 0.42923 0.31173 0.26432 0.0
O466 O 0.49069 0.3314 0.31173 0.0
O467 O 0.45179 0.34603 0.29871 0.0
O468 O 0.53199 0.38488 0.21851 0.0
O469 O 0.54016 0.35421 0.25507 0.0
O470 O 0.50054 0.27312 0.26407 0.0
O471 O 0.48107 0.25708 0.21578 0.0
O472 O 0.40819 0.23343 0.24106 0.0
O473 O 0.44983 0.3766 0.22682 0.0
O474 O 0.40745 0.2636 0.28172 0.0
O475 O 0.40196 0.32896 0.24239 0.0
C476 C 0.4489 0.30801 0.15462 0.0
C477 C 0.47499 0.34822 0.31713 0.0
C478 C 0.49733 0.25562 0.23949 0.0
C479 C 0.55188 0.37981 0.23663 0.0
C480 C 0.40277 0.23524 0.26991 0.0
C481 C 0.41798 0.36121 0.23547 0.0
O482 O 0.43673 0.27987 0.17039 0.0
O483 O 0.43541 0.27515 0.0045 0.0
Zn484 Zn 0.43155 0.25993 0.95919 0.0
O485 O 0.4567 0.30027 0.9351 0.0
Zn486 Zn 0.48905 0.30136 0.9057 0.0
Zn487 Zn 0.48048 0.34136 0.95882 0.0
Zn488 Zn 0.42581 0.30407 0.90874 0.0
O489 O 0.46795 0.28467 0.86201 0.0
O490 O 0.41427 0.27025 0.87428 0.0
O491 O 0.45474 0.23005 0.95217 0.0
O492 O 0.4965 0.26367 0.91866 0.0
O493 O 0.53564 0.3468 0.91089 0.0
O494 O 0.53004 0.35465 0.96094 0.0
O495 O 0.48492 0.38136 0.93255 0.0
O496 O 0.38061 0.23874 0.94496 0.0
O497 O 0.45349 0.35217 0.89165 0.0
O498 O 0.38088 0.28682 0.92995 0.0
C499 C 0.44654 0.30429 0.01841 0.0
C500 C 0.43543 0.26796 0.85621 0.0
C501 C 0.54883 0.36176 0.93685 0.0
C502 C 0.48124 0.23672 0.93551 0.0
C503 C 0.47787 0.37999 0.90363 0.0
C504 C 0.36437 0.2545 0.9367 0.0
O505 O 0.46211 0.33301 1.0034 0.0
O506 O 0.65684 0.14975 1.00251 0.0
Zn507 Zn 0.67065 0.15991 0.95673 0.0
O508 O 0.62949 0.14438 0.93328 0.0
Zn509 Zn 0.62892 0.1756 0.90342 0.0
Zn510 Zn 0.58924 0.12856 0.95809 0.0
Zn511 Zn 0.62387 0.1083 0.90772 0.0
O512 O 0.64494 0.17049 0.85999 0.0
O513 O 0.65588 0.12859 0.87173 0.0
O514 O 0.70011 0.21329 0.94982 0.0
O515 O 0.66622 0.22115 0.91646 0.0
O516 O 0.58389 0.17678 0.90748 0.0
O517 O 0.5758 0.16486 0.9578 0.0
O518 O 0.548 0.09048 0.93479 0.0
O519 O 0.69125 0.12943 0.94222 0.0
O520 O 0.57455 0.08604 0.893 0.0
O521 O 0.64191 0.08166 0.92932 0.0
C522 C 0.62815 0.13366 0.01732 0.0
C523 C 0.65954 0.15277 0.85381 0.0
C524 C 0.56898 0.17594 0.93311 0.0
C525 C 0.69308 0.23311 0.93348 0.0
C526 C 0.5473 0.08241 0.90625 0.0
C527 C 0.67441 0.097 0.93503 0.0
O528 O 0.59905 0.12126 1.00307 0.0
O529 O 0.78376 0.4971 0.00689 0.0
Zn530 Zn 0.77116 0.50151 0.96224 0.0
O531 O 0.78465 0.4749 0.9375 0.0
Zn532 Zn 0.75071 0.44411 0.90919 0.0
Zn533 Zn 0.80104 0.44923 0.96018 0.0
Zn534 Zn 0.82077 0.50587 0.91155 0.0
O535 O 0.75413 0.4678 0.86734 0.0
O536 O 0.80078 0.51904 0.87606 0.0
O537 O 0.71749 0.47989 0.95741 0.0
O538 O 0.70697 0.43741 0.92401 0.0
O539 O 0.74659 0.39616 0.9123 0.0
O540 O 0.76415 0.3995 0.96101 0.0
O541 O 0.83696 0.44492 0.93383 0.0
O542 O 0.80193 0.55267 0.94778 0.0
O543 O 0.84276 0.47949 0.89448 0.0
O544 O 0.84863 0.55004 0.93371 0.0
C545 C 0.80025 0.48409 0.0204 0.0
C546 C 0.77441 0.4994 0.85974 0.0
C547 C 0.74999 0.38175 0.93671 0.0
C548 C 0.69647 0.45324 0.94132 0.0
C549 C 0.84407 0.45349 0.90534 0.0
C550 C 0.83409 0.56778 0.93997 0.0
O551 O 0.81125 0.46676 0.00514 0.0
O552 O 0.32138 0.82666 0.83733 0.0
Zn553 Zn 0.33625 0.82983 0.79165 0.0
O554 O 0.29524 0.80317 0.76777 0.0
Zn555 Zn 0.29458 0.7687 0.74178 0.0
Zn556 Zn 0.25437 0.77956 0.79222 0.0
Zn557 Zn 0.29013 0.83169 0.73856 0.0
O558 O 0.3115 0.78642 0.69819 0.0
O559 O 0.32107 0.83997 0.70182 0.0
O560 O 0.36723 0.80703 0.78577 0.0
O561 O 0.33124 0.76096 0.75718 0.0
O562 O 0.2493 0.72314 0.74598 0.0
O563 O 0.24001 0.72933 0.79542 0.0
O564 O 0.21372 0.77534 0.76725 0.0
O565 O 0.35644 0.88092 0.77641 0.0
O566 O 0.24052 0.80446 0.72457 0.0
O567 O 0.30862 0.87819 0.75698 0.0
C568 C 0.29218 0.81522 0.85114 0.0
C569 C 0.32511 0.8173 0.6876 0.0
C570 C 0.23369 0.71021 0.77158 0.0
C571 C 0.35937 0.7783 0.77214 0.0
C572 C 0.2131 0.78203 0.7385 0.0
C573 C 0.34011 0.89588 0.76601 0.0
O574 O 0.26356 0.79908 0.83611 0.0
O575 O 0.10157 0.47579 0.83911 0.0
Zn576 Zn 0.09802 0.48775 0.79409 0.0
O577 O 0.12553 0.47499 0.76984 0.0
Zn578 Zn 0.15828 0.50956 0.74242 0.0
Zn579 Zn 0.14854 0.45653 0.79382 0.0
Zn580 Zn 0.09633 0.44104 0.74148 0.0
O581 O 0.14034 0.50624 0.69756 0.0
O582 O 0.08658 0.46456 0.70686 0.0
O583 O 0.11847 0.54092 0.78957 0.0
O584 O 0.16113 0.5524 0.75621 0.0
O585 O 0.20673 0.51694 0.75051 0.0
O586 O 0.19835 0.49214 0.79711 0.0
O587 O 0.15292 0.42093 0.76772 0.0
O588 O 0.04751 0.4569 0.77905 0.0
O589 O 0.12443 0.42058 0.72522 0.0
O590 O 0.05015 0.41151 0.76037 0.0
C591 C 0.11335 0.4585 0.85315 0.0
C592 C 0.10823 0.48941 0.69012 0.0
C593 C 0.21837 0.51127 0.7757 0.0
C594 C 0.14467 0.5623 0.7734 0.0
C595 C 0.14715 0.41563 0.73861 0.0
C596 C 0.03254 0.42547 0.76908 0.0
O597 O 0.12968 0.44611 0.83832 0.0
O598 O 0.4558 0.61262 0.84306 0.0
Zn599 Zn 0.44056 0.59385 0.79925 0.0
O600 O 0.45642 0.63331 0.77297 0.0
Zn601 Zn 0.42306 0.63144 0.74508 0.0
Zn602 Zn 0.47415 0.6764 0.7943 0.0
Zn603 Zn 0.49054 0.63497 0.74648 0.0
O604 O 0.421 0.6057 0.70489 0.0
O605 O 0.46795 0.6012 0.71117 0.0
O606 O 0.38607 0.56652 0.79795 0.0
O607 O 0.37966 0.60071 0.76429 0.0
O608 O 0.42325 0.67744 0.74518 0.0
O609 O 0.438 0.69041 0.79459 0.0
O610 O 0.51014 0.71461 0.76637 0.0
O611 O 0.46756 0.5692 0.78486 0.0
O612 O 0.51546 0.68336 0.72886 0.0
O613 O 0.516 0.61625 0.76907 0.0
C614 C 0.47331 0.64261 0.85566 0.0
C615 C 0.44038 0.59369 0.6964 0.0
C616 C 0.42527 0.69469 0.76966 0.0
C617 C 0.36701 0.57625 0.78378 0.0
C618 C 0.51721 0.71145 0.73824 0.0
C619 C 0.49949 0.58407 0.77623 0.0
O620 O 0.48482 0.67046 0.83951 0.0
O621 O 0.48464 0.67494 0.00617 0.0
Zn622 Zn 0.48723 0.68881 0.05171 0.0
O623 O 0.46148 0.64789 0.07538 0.0
Zn624 Zn 0.42945 0.64789 0.10458 0.0
Zn625 Zn 0.43713 0.60748 0.0506 0.0
Zn626 Zn 0.49183 0.64251 0.10154 0.0
O627 O 0.45011 0.66433 0.14811 0.0
O628 O 0.50298 0.67498 0.13712 0.0
O629 O 0.46427 0.71894 0.05803 0.0
O630 O 0.42215 0.68559 0.09126 0.0
O631 O 0.38288 0.60317 0.10018 0.0
O632 O 0.38709 0.59352 0.05025 0.0
O633 O 0.43432 0.56665 0.07395 0.0
O634 O 0.53777 0.7097 0.06652 0.0
O635 O 0.46422 0.59304 0.11647 0.0
O636 O 0.5374 0.66133 0.0808 0.0
C637 C 0.4725 0.64604 0.9917 0.0
C638 C 0.48241 0.67906 0.15453 0.0
C639 C 0.36894 0.58758 0.07468 0.0
C640 C 0.43759 0.71242 0.07432 0.0
C641 C 0.44101 0.56583 0.10267 0.0
C642 C 0.55393 0.69381 0.07458 0.0
O643 O 0.45533 0.61708 0.00607 0.0
O644 O 0.26178 0.79809 1.00164 0.0
Zn645 Zn 0.24709 0.78732 0.04707 0.0
O646 O 0.28756 0.80287 0.07128 0.0
Zn647 Zn 0.28745 0.77126 0.10091 0.0
Zn648 Zn 0.3284 0.819 0.04718 0.0
Zn649 Zn 0.29225 0.83859 0.09724 0.0
O650 O 0.27038 0.77578 0.14378 0.0
O651 O 0.2594 0.8178 0.13296 0.0
O652 O 0.21682 0.73408 0.05411 0.0
O653 O 0.25022 0.72583 0.08772 0.0
O654 O 0.33254 0.77021 0.09804 0.0
O655 O 0.34255 0.78314 0.048 0.0
O656 O 0.36873 0.85732 0.07097 0.0
O657 O 0.2264 0.81747 0.06103 0.0
O658 O 0.34122 0.86025 0.11272 0.0
O659 O 0.27472 0.86563 0.07529 0.0
C660 C 0.29078 0.81469 0.98736 0.0
C661 C 0.25595 0.79346 0.15055 0.0
C662 C 0.3485 0.77166 0.0729 0.0
C663 C 0.22337 0.71412 0.07074 0.0
C664 C 0.3687 0.8641 0.09976 0.0
C665 C 0.24236 0.84968 0.06887 0.0
O666 O 0.31959 0.82687 1.00206 0.0
O667 O 0.1354 0.45059 1.00315 0.0
Zn668 Zn 0.14709 0.44801 0.0488 0.0
O669 O 0.13115 0.47285 0.07292 0.0
Zn670 Zn 0.16251 0.50497 0.10257 0.0
Zn671 Zn 0.11402 0.49645 0.04866 0.0
Zn672 Zn 0.09574 0.44167 0.09879 0.0
O673 O 0.1585 0.48391 0.14595 0.0
O674 O 0.11735 0.4306 0.13422 0.0
O675 O 0.2004 0.47208 0.05562 0.0
O676 O 0.20788 0.51336 0.08942 0.0
O677 O 0.16352 0.55119 0.09853 0.0
O678 O 0.14928 0.5468 0.04865 0.0
O679 O 0.07542 0.49788 0.07213 0.0
O680 O 0.11812 0.39722 0.06365 0.0
O681 O 0.07312 0.46814 0.1142 0.0
O682 O 0.06953 0.39658 0.07725 0.0
C683 C 0.11775 0.46207 0.98922 0.0
C684 C 0.14152 0.45146 0.15201 0.0
C685 C 0.16153 0.56501 0.07311 0.0
C686 C 0.22001 0.49871 0.07237 0.0
C687 C 0.06851 0.49116 0.10088 0.0
C688 C 0.086 0.38054 0.07153 0.0
O689 O 0.10548 0.47842 0.00413 0.0
O690 O 0.2627 0.44952 0.50192 0.0
Zn691 Zn 0.24797 0.44674 0.54715 0.0
O692 O 0.28885 0.4726 0.57091 0.0
Zn693 Zn 0.29029 0.5063 0.59922 0.0
Zn694 Zn 0.32949 0.49582 0.54667 0.0
Zn695 Zn 0.29262 0.44185 0.59772 0.0
O696 O 0.27398 0.48673 0.64346 0.0
O697 O 0.2602 0.43269 0.6327 0.0
O698 O 0.21827 0.47017 0.55306 0.0
O699 O 0.25225 0.51289 0.58571 0.0
O700 O 0.33507 0.55345 0.59249 0.0
O701 O 0.34193 0.54531 0.54272 0.0
O702 O 0.36964 0.50103 0.57351 0.0
O703 O 0.22587 0.39583 0.56209 0.0
O704 O 0.34141 0.46738 0.61376 0.0
O705 O 0.27342 0.39573 0.57794 0.0
C706 C 0.29155 0.4602 0.48778 0.0
C707 C 0.25757 0.45431 0.64996 0.0
C708 C 0.34856 0.56544 0.56584 0.0
C709 C 0.22518 0.49722 0.56904 0.0
C710 C 0.36917 0.4916 0.60165 0.0
C711 C 0.24118 0.37939 0.57102 0.0
O712 O 0.32049 0.47594 0.50249 0.0
O713 O 0.48429 0.80379 0.49946 0.0
Zn714 Zn 0.48733 0.78918 0.54356 0.0
O715 O 0.45987 0.80145 0.56872 0.0
Zn716 Zn 0.42651 0.76516 0.59366 0.0
Zn717 Zn 0.43539 0.82006 0.54636 0.0
Zn718 Zn 0.48986 0.83368 0.59863 0.0
O719 O 0.44459 0.76461 0.63662 0.0
O720 O 0.49813 0.80887 0.63417 0.0
O721 O 0.4651 0.73535 0.54501 0.0
O722 O 0.41941 0.72184 0.57531 0.0
O723 O 0.38041 0.76325 0.59196 0.0
O724 O 0.38402 0.78589 0.54541 0.0
O725 O 0.43555 0.85803 0.57321 0.0
O726 O 0.53838 0.81843 0.55924 0.0
O727 O 0.46425 0.85636 0.61471 0.0
O728 O 0.53587 0.86286 0.58018 0.0
C729 C 0.47109 0.82015 0.48607 0.0
C730 C 0.47538 0.78131 0.64743 0.0
C731 C 0.3662 0.76942 0.56901 0.0
C732 C 0.43658 0.71299 0.55786 0.0
C733 C 0.44108 0.86143 0.60247 0.0
C734 C 0.55348 0.84932 0.5706 0.0
O735 O 0.4531 0.83035 0.50133 0.0
O736 O 0.13314 0.66806 0.50027 0.0
Zn737 Zn 0.14384 0.68327 0.54587 0.0
O738 O 0.12924 0.64272 0.57011 0.0
Zn739 Zn 0.16104 0.64298 0.59944 0.0
Zn740 Zn 0.1141 0.60199 0.54621 0.0
Zn741 Zn 0.09376 0.63691 0.59655 0.0
O742 O 0.15667 0.65927 0.64302 0.0
O743 O 0.11461 0.67008 0.63183 0.0
O744 O 0.19722 0.7147 0.55284 0.0
O745 O 0.20538 0.68064 0.58563 0.0
O746 O 0.16373 0.59887 0.59558 0.0
O747 O 0.1517 0.59031 0.54533 0.0
O748 O 0.07827 0.56092 0.57119 0.0
O749 O 0.11252 0.70279 0.56028 0.0
O750 O 0.07355 0.58806 0.61257 0.0
O751 O 0.06568 0.65363 0.57528 0.0
C752 C 0.11646 0.63866 0.48643 0.0
C753 C 0.139 0.67383 0.6495 0.0
C754 C 0.16335 0.58411 0.56998 0.0
C755 C 0.21716 0.70789 0.56922 0.0
C756 C 0.07077 0.56087 0.59982 0.0
C757 C 0.08046 0.68589 0.56849 0.0
O758 O 0.10453 0.61014 0.50156 0.0
O759 O 0.10355 0.60893 0.33549 0.0
Zn760 Zn 0.09963 0.59437 0.29006 0.0
O761 O 0.12555 0.63502 0.26605 0.0
Zn762 Zn 0.15714 0.63393 0.2371 0.0
Zn763 Zn 0.15108 0.67589 0.29051 0.0
Zn764 Zn 0.09514 0.64024 0.2395 0.0
O765 O 0.13658 0.61698 0.1939 0.0
O766 O 0.08398 0.60793 0.20337 0.0
O767 O 0.12137 0.56315 0.28357 0.0
O768 O 0.16419 0.59627 0.25088 0.0
O769 O 0.20362 0.67839 0.24009 0.0
O770 O 0.20137 0.69001 0.28982 0.0
O771 O 0.1536 0.71658 0.26684 0.0
O772 O 0.04891 0.57386 0.2758 0.0
O773 O 0.12274 0.6897 0.22488 0.0
O774 O 0.04946 0.6219 0.26007 0.0
C775 C 0.11669 0.63785 0.35008 0.0
C776 C 0.10468 0.60347 0.18647 0.0
C777 C 0.21855 0.69497 0.26489 0.0
C778 C 0.14811 0.56931 0.26757 0.0
C779 C 0.14633 0.71708 0.23822 0.0
C780 C 0.03286 0.58966 0.26714 0.0
O781 O 0.13412 0.66677 0.33567 0.0
O782 O 0.32138 0.48057 0.33797 0.0
Zn783 Zn 0.33654 0.49388 0.29277 0.0
O784 O 0.29596 0.4769 0.26807 0.0
Zn785 Zn 0.29448 0.50774 0.23871 0.0
Zn786 Zn 0.2548 0.4592 0.29174 0.0
Zn787 Zn 0.29291 0.44261 0.24158 0.0
O788 O 0.31464 0.50689 0.196 0.0
O789 O 0.32618 0.46514 0.20656 0.0
O790 O 0.36323 0.54801 0.28845 0.0
O791 O 0.32768 0.55276 0.25503 0.0
O792 O 0.24822 0.50633 0.24117 0.0
O793 O 0.23946 0.49422 0.29143 0.0
O794 O 0.21547 0.4205 0.26748 0.0
O795 O 0.35981 0.4662 0.27749 0.0
O796 O 0.24389 0.41962 0.22552 0.0
O797 O 0.31208 0.41718 0.26358 0.0
C798 C 0.29213 0.46279 0.35165 0.0
C799 C 0.33007 0.49004 0.18951 0.0
C800 C 0.23284 0.50526 0.26658 0.0
C801 C 0.35333 0.56646 0.27341 0.0
C802 C 0.21591 0.41421 0.23861 0.0
C803 C 0.34458 0.434 0.26949 0.0
O804 O 0.26362 0.45057 0.3365 0.0
O805 O 0.452 0.83256 0.33601 0.0
Zn806 Zn 0.44022 0.83477 0.29026 0.0
O807 O 0.45611 0.80928 0.26639 0.0
Zn808 Zn 0.42373 0.77647 0.23776 0.0
Zn809 Zn 0.47415 0.78638 0.29104 0.0
Zn810 Zn 0.49089 0.83986 0.23922 0.0
O811 O 0.42679 0.79515 0.19372 0.0
O812 O 0.4686 0.84888 0.20293 0.0
O813 O 0.38674 0.81132 0.28408 0.0
O814 O 0.37931 0.76978 0.25082 0.0
O815 O 0.41929 0.72933 0.24344 0.0
O816 O 0.43993 0.73544 0.29159 0.0
O817 O 0.51391 0.78666 0.26827 0.0
O818 O 0.46878 0.8854 0.2746 0.0
O819 O 0.51429 0.8137 0.22488 0.0
O820 O 0.51687 0.88609 0.25905 0.0
C821 C 0.46954 0.82107 0.3501 0.0
C822 C 0.44403 0.82709 0.18599 0.0
C823 C 0.42328 0.71646 0.26855 0.0
C824 C 0.36716 0.78467 0.2674 0.0
C825 C 0.52016 0.79211 0.23929 0.0
C826 C 0.50044 0.90204 0.26537 0.0
O827 O 0.48193 0.8047 0.3354 0.0
C828 C 0.0176 0.16902 0.96806 0.0
C829 C 0.02576 0.17961 0.99903 0.0
C830 C 0.04386 0.17947 0.94559 0.0
C831 C 0.07934 0.19975 0.95357 0.0
H832 H -0.00912 0.15176 0.96137 0.0
H833 H 0.03632 0.16917 0.92237 0.0
S834 S 0.11361 0.23762 0.03107 0.0
N835 N 0.07115 0.21493 0.03591 0.0
N836 N 0.12051 0.23306 0.99421 0.0
C837 C 0.08743 0.21247 0.9841 0.0
C838 C 0.06066 0.20264 0.0067 0.0
C839 C 0.78866 0.87697 0.99064 0.0
C840 C 0.76748 0.84141 0.99692 0.0
C841 C 0.77707 0.89477 0.97202 0.0
C842 C 0.74451 0.87768 0.95729 0.0
H843 H 0.8139 0.89176 1.00137 0.0
H844 H 0.79381 0.92253 0.96942 0.0
S845 S 0.67991 0.78404 0.96345 0.0
N846 N 0.71228 0.78919 0.98588 0.0
N847 N 0.69178 0.82269 0.94864 0.0
C848 C 0.72359 0.84177 0.96178 0.0
C849 C 0.73481 0.82365 0.98202 0.0
C850 C 0.07693 0.87441 0.00989 0.0
C851 C 0.09745 0.90885 0.99984 0.0
C852 C 0.06076 0.84697 0.98866 0.0
C853 C 0.06419 0.85286 0.95638 0.0
H854 H 0.07214 0.86879 0.03442 0.0
H855 H 0.0435 0.82125 0.99774 0.0
S856 S 0.12153 0.93825 0.91887 0.0
N857 N 0.12488 0.94728 0.95629 0.0
N858 N 0.09469 0.89595 0.91591 0.0
C859 C 0.08747 0.88711 0.94625 0.0
C860 C 0.10387 0.91508 0.96807 0.0
C861 C 0.17927 0.0727 0.49807 0.0
C862 C 0.16605 0.03854 0.50863 0.0
C863 C 0.19051 0.1005 0.51888 0.0
C864 C 0.18869 0.09526 0.55126 0.0
H865 H 0.17946 0.07778 0.47348 0.0
H866 H 0.19827 0.12592 0.50943 0.0
S867 S 0.16392 0.01126 0.58998 0.0
N868 N 0.1573 0.00135 0.55274 0.0
N869 N 0.17833 0.0534 0.5923 0.0
C870 C 0.17883 0.06146 0.56187 0.0
C871 C 0.16728 0.03309 0.54047 0.0
C872 C 0.87662 0.09114 0.56271 0.0
C873 C 0.84132 0.07627 0.55415 0.0
C874 C 0.90345 0.10781 0.54087 0.0
C875 C 0.89613 0.11168 0.50999 0.0
H876 H 0.88359 0.08771 0.58593 0.0
H877 H 0.92998 0.11698 0.54801 0.0
S878 S 0.80903 0.08232 0.47645 0.0
N879 N 0.80119 0.06946 0.51294 0.0
N880 N 0.85161 0.10251 0.47249 0.0
C881 C 0.86137 0.0997 0.50171 0.0
C882 C 0.834 0.08174 0.52364 0.0
C883 C 0.8589 0.74814 0.52035 0.0
C884 C 0.85656 0.75166 0.55264 0.0
C885 C 0.8419 0.7585 0.49923 0.0
C886 C 0.82165 0.77261 0.50939 0.0
H887 H 0.87587 0.73947 0.5111 0.0
H888 H 0.84593 0.75692 0.47464 0.0
S889 S 0.80036 0.78056 0.59069 0.0
N890 N 0.82743 0.76546 0.59342 0.0
N891 N 0.79577 0.78501 0.55327 0.0
C892 C 0.81645 0.7736 0.54128 0.0
C893 C 0.83364 0.76288 0.563 0.0
C894 C 0.83222 0.74511 0.01889 0.0
C895 C 0.83778 0.74679 0.05122 0.0
C896 C 0.85977 0.75648 0.99789 0.0
C897 C 0.89398 0.76962 0.0082 0.0
H898 H 0.80672 0.73732 0.00964 0.0
H899 H 0.85444 0.75637 0.97335 0.0
S900 S 0.92221 0.77204 0.08929 0.0
N901 N 0.88011 0.75741 0.09193 0.0
N902 N 0.93166 0.77856 0.05199 0.0
C903 C 0.89978 0.76838 0.03997 0.0
C904 C 0.87169 0.75677 0.06157 0.0
C905 C 0.14876 0.10845 0.03993 0.0
C906 C 0.15781 0.11043 0.00856 0.0
C907 C 0.16008 0.09272 0.06179 0.0
C908 C 0.17984 0.07727 0.0529 0.0
H909 H 0.13228 0.11848 0.04748 0.0
H910 H 0.15116 0.09057 0.08544 0.0
S911 S 0.21292 0.07878 0.97366 0.0
N912 N 0.19041 0.09885 0.97004 0.0
N913 N 0.21036 0.06808 0.01061 0.0
C914 C 0.19062 0.08103 0.02178 0.0
C915 C 0.17981 0.09774 0.99977 0.0
C916 C 0.84648 0.07438 0.99864 0.0
C917 C 0.82586 0.03977 0.00825 0.0
C918 C 0.86308 0.10144 0.02021 0.0
C919 C 0.85979 0.09505 0.05242 0.0
H920 H 0.85093 0.08043 0.97416 0.0
H921 H 0.88031 0.12731 0.01142 0.0
S922 S 0.80273 0.00901 0.08903 0.0
N923 N 0.79896 0.00064 0.05147 0.0
N924 N 0.82971 0.05123 0.09244 0.0
C925 C 0.83666 0.0606 0.06219 0.0
C926 C 0.81998 0.03301 0.04002 0.0
C927 C 0.75462 0.88959 0.44451 0.0
C928 C 0.73408 0.85421 0.45277 0.0
C929 C 0.76512 0.91622 0.46668 0.0
C930 C 0.75419 0.90854 0.49758 0.0
H931 H 0.7651 0.89675 0.42134 0.0
H932 H 0.78275 0.94281 0.45985 0.0
S933 S 0.69527 0.82121 0.53013 0.0
N934 N 0.70014 0.81368 0.49351 0.0
N935 N 0.71824 0.86377 0.53461 0.0
C936 C 0.73085 0.87377 0.50546 0.0
C937 C 0.72105 0.84661 0.48318 0.0
C938 C 0.06205 0.85737 0.51009 0.0
C939 C 0.02773 0.83613 0.50003 0.0
C940 C 0.08946 0.87338 0.4889 0.0
C941 C 0.08366 0.86918 0.45661 0.0
H942 H 0.06758 0.86281 0.53458 0.0
H943 H 0.11506 0.89113 0.49797 0.0
S944 S -0.00143 0.81045 0.41913 0.0
N945 N -0.01048 0.80761 0.4565 0.0
N946 N 0.04076 0.83757 0.4162 0.0
C947 C 0.04955 0.84535 0.44651 0.0
C948 C 0.02161 0.82906 0.4683 0.0
C949 C 0.05706 0.14635 0.49254 0.0
C950 C 0.09322 0.16534 0.49606 0.0
C951 C 0.03954 0.15881 0.47464 0.0
C952 C 0.05733 0.18996 0.45776 0.0
H953 H 0.04183 0.12224 0.50485 0.0
H954 H 0.0115 0.14362 0.47395 0.0
S955 S 0.15256 0.24838 0.45631 0.0
N956 N 0.14672 0.21691 0.48029 0.0
N957 N 0.11354 0.23873 0.44407 0.0
C958 C 0.09369 0.20854 0.45951 0.0
C959 C 0.11167 0.1966 0.47917 0.0
C960 C 0.6835 0.50125 0.30161 0.0
C961 C 0.6909 0.511 0.33282 0.0
C962 C 0.71032 0.51226 0.27965 0.0
C963 C 0.74563 0.53229 0.28835 0.0
H964 H 0.65693 0.48436 0.29429 0.0
H965 H 0.70331 0.50272 0.25616 0.0
S966 S 0.77797 0.5678 0.3669 0.0
N967 N 0.73539 0.54506 0.37084 0.0
N968 N 0.7858 0.56426 0.33007 0.0
C969 C 0.75298 0.54401 0.31921 0.0
C970 C 0.72564 0.5336 0.34132 0.0
C971 C 0.42192 0.20187 0.34355 0.0
C972 C 0.42876 0.17614 0.33287 0.0
C973 C 0.40965 0.21809 0.32353 0.0
C974 C 0.40434 0.20981 0.29164 0.0
H975 H 0.42683 0.2101 0.36758 0.0
H976 H 0.40641 0.23884 0.33295 0.0
S977 S 0.41369 0.13995 0.25349 0.0
N978 N 0.42549 0.13972 0.28977 0.0
N979 N 0.40337 0.17076 0.25142 0.0
C980 C 0.40897 0.18225 0.28119 0.0
C981 C 0.42108 0.16539 0.30192 0.0
C982 C 0.7149 0.17909 0.32242 0.0
C983 C 0.72366 0.18314 0.29063 0.0
C984 C 0.72982 0.2072 0.34302 0.0
C985 C 0.75479 0.2405 0.33308 0.0
H986 H 0.69481 0.15438 0.33135 0.0
H987 H 0.72138 0.2029 0.36697 0.0
S988 S 0.79079 0.26522 0.25395 0.0
N989 N 0.76166 0.22348 0.25111 0.0
N990 N 0.79036 0.2759 0.29055 0.0
C991 C 0.76582 0.24484 0.30217 0.0
C992 C 0.75021 0.21626 0.28083 0.0
C993 C 0.85247 0.40539 0.88195 0.0
C994 C 0.83549 0.42487 0.88275 0.0
C995 C 0.84166 0.37715 0.86109 0.0
C996 C 0.81227 0.36624 0.8418 0.0
H997 H 0.87448 0.41236 0.897 0.0
H998 H 0.85628 0.36373 0.86013 0.0
S999 S 0.75682 0.40642 0.83794 0.0
N1000 N 0.78789 0.43076 0.86258 0.0
N1001 N 0.76524 0.37601 0.82698 0.0
C1002 C 0.79432 0.3846 0.84378 0.0
C1003 C 0.80652 0.41427 0.86327 0.0
C1004 C 0.53976 0.4266 0.89316 0.0
C1005 C 0.50549 0.40509 0.88214 0.0
C1006 C 0.56826 0.44252 0.87274 0.0
C1007 C 0.56351 0.43747 0.84062 0.0
H1008 H 0.54501 0.42962 0.91783 0.0
H1009 H 0.59414 0.45812 0.88216 0.0
S1010 S 0.47977 0.38783 0.79911 0.0
N1011 N 0.46895 0.38301 0.83612 0.0
N1012 N 0.52239 0.41257 0.79833 0.0
C1013 C 0.52955 0.41804 0.82914 0.0
C1014 C 0.5006 0.40204 0.84971 0.0
C1015 C 0.50503 0.08754 0.83209 0.0
C1016 C 0.48499 0.10197 0.842 0.0
C1017 C 0.52188 0.0772 0.85341 0.0
C1018 C 0.5196 0.08109 0.88564 0.0
H1019 H 0.50906 0.08573 0.80754 0.0
H1020 H 0.53881 0.06837 0.84435 0.0
S1021 S 0.46352 0.11052 0.92313 0.0
N1022 N 0.45905 0.11474 0.88563 0.0
N1023 N 0.49043 0.09525 0.92614 0.0
C1024 C 0.49668 0.09242 0.89578 0.0
C1025 C 0.47964 0.10312 0.87386 0.0
C1026 C 0.54117 0.10104 0.39316 0.0
C1027 C 0.50572 0.08143 0.38492 0.0
C1028 C 0.56756 0.1107 0.37096 0.0
C1029 C 0.55955 0.10003 0.33998 0.0
H1030 H 0.54866 0.11149 0.41635 0.0
H1031 H 0.5943 0.12756 0.37786 0.0
S1032 S 0.47161 0.04398 0.30728 0.0
N1033 N 0.46459 0.04887 0.34402 0.0
N1034 N 0.51415 0.06559 0.30279 0.0
C1035 C 0.52457 0.07773 0.33205 0.0
C1036 C 0.49768 0.06868 0.3544 0.0
C1037 C 0.82797 0.42834 0.39628 0.0
C1038 C 0.84894 0.41427 0.38738 0.0
C1039 C 0.81705 0.44454 0.37462 0.0
C1040 C 0.82796 0.4486 0.34367 0.0
H1041 H 0.81756 0.42435 0.41951 0.0
H1042 H 0.79925 0.45305 0.3819 0.0
S1043 S 0.88746 0.4219 0.30963 0.0
N1044 N 0.88297 0.40899 0.34607 0.0
N1045 N 0.86407 0.44104 0.30591 0.0
C1046 C 0.85158 0.43779 0.3352 0.0
C1047 C 0.86183 0.42042 0.35694 0.0
C1048 C 0.50735 0.3945 0.39444 0.0
C1049 C 0.5228 0.42991 0.38607 0.0
C1050 C 0.49109 0.36786 0.3723 0.0
C1051 C 0.48833 0.37556 0.34128 0.0
H1052 H 0.51013 0.38726 0.41776 0.0
H1053 H 0.48145 0.34119 0.37932 0.0
S1054 S 0.51982 0.46318 0.30802 0.0
N1055 N 0.53144 0.47062 0.34485 0.0
N1056 N 0.49923 0.42056 0.30373 0.0
C1057 C 0.50087 0.41046 0.33312 0.0
C1058 C 0.51836 0.43762 0.35539 0.0
C1059 C 0.41937 0.22079 0.77893 0.0
C1060 C 0.3994 0.18545 0.78761 0.0
C1061 C 0.43067 0.2477 0.80096 0.0
C1062 C 0.42127 0.24036 0.83223 0.0
H1063 H 0.42856 0.22773 0.75537 0.0
H1064 H 0.44746 0.2743 0.79361 0.0
S1065 S 0.3649 0.15321 0.86634 0.0
N1066 N 0.36796 0.14533 0.82941 0.0
N1067 N 0.3877 0.19584 0.87031 0.0
C1068 C 0.3988 0.20557 0.84073 0.0
C1069 C 0.38809 0.17817 0.81855 0.0
C1070 C 0.67984 0.17116 0.79912 0.0
C1071 C 0.68654 0.16482 0.82948 0.0
C1072 C 0.70678 0.18688 0.7773 0.0
C1073 C 0.74161 0.19847 0.78549 0.0
H1074 H 0.65387 0.16489 0.79248 0.0
H1075 H 0.70059 0.19258 0.75461 0.0
S1076 S 0.77203 0.18488 0.86135 0.0
N1077 N 0.72974 0.16773 0.86575 0.0
N1078 N 0.78055 0.19956 0.8254 0.0
C1079 C 0.74818 0.1904 0.81527 0.0
C1080 C 0.72061 0.17317 0.83711 0.0
C1081 C 0.74746 0.51431 0.78059 0.0
C1082 C 0.73212 0.53464 0.78768 0.0
C1083 C 0.76278 0.50419 0.80377 0.0
C1084 C 0.76418 0.51485 0.83455 0.0
H1085 H 0.74482 0.5034 0.75764 0.0
H1086 H 0.77231 0.48681 0.79788 0.0
S1087 S 0.73467 0.57382 0.86424 0.0
N1088 N 0.72397 0.56889 0.82714 0.0
N1089 N 0.7539 0.55083 0.8703 0.0
C1090 C 0.75258 0.53819 0.84134 0.0
C1091 C 0.73639 0.54798 0.81795 0.0
C1092 C 0.37021 0.81048 0.66037 0.0
C1093 C 0.35194 0.8284 0.66293 0.0
C1094 C 0.39911 0.82222 0.64128 0.0
C1095 C 0.41091 0.85217 0.62291 0.0
H1096 H 0.36266 0.78744 0.67389 0.0
H1097 H 0.4122 0.80724 0.64075 0.0
S1098 S 0.37119 0.90789 0.61907 0.0
N1099 N 0.34726 0.87769 0.64474 0.0
N1100 N 0.40101 0.89882 0.60708 0.0
C1101 C 0.39227 0.86991 0.62404 0.0
C1102 C 0.36306 0.85836 0.64449 0.0
C1103 C 0.09233 0.51985 0.61244 0.0
C1104 C 0.07184 0.53469 0.62076 0.0
C1105 C 0.10401 0.50491 0.63474 0.0
C1106 C 0.09451 0.50302 0.66597 0.0
H1107 H 0.10147 0.52188 0.58888 0.0
H1108 H 0.121 0.49533 0.62763 0.0
S1109 S 0.03701 0.53261 0.6993 0.0
N1110 N 0.03998 0.54314 0.66227 0.0
N1111 N 0.06043 0.51358 0.70367 0.0
C1112 C 0.0717 0.51493 0.67417 0.0
C1113 C 0.0606 0.53095 0.65171 0.0
C1114 C 0.42886 0.57755 0.64025 0.0
C1115 C 0.42875 0.56775 0.67115 0.0
C1116 C 0.41328 0.55243 0.61673 0.0
C1117 C 0.39632 0.51651 0.62345 0.0
H1118 H 0.43993 0.60475 0.63444 0.0
H1119 H 0.41206 0.56129 0.59365 0.0
S1120 S 0.39381 0.47811 0.70046 0.0
N1121 N 0.41462 0.52042 0.70684 0.0
N1122 N 0.38452 0.47308 0.66306 0.0
C1123 C 0.39871 0.50674 0.65402 0.0
C1124 C 0.41501 0.53237 0.67778 0.0
C1125 C 0.48719 0.70136 0.20891 0.0
C1126 C 0.49747 0.70732 0.17776 0.0
C1127 C 0.49886 0.72915 0.22997 0.0
C1128 C 0.51981 0.76399 0.22032 0.0
H1129 H 0.46933 0.67525 0.21683 0.0
H1130 H 0.48909 0.72342 0.25342 0.0
S1131 S 0.55605 0.79271 0.14155 0.0
N1132 N 0.53257 0.74999 0.13883 0.0
N1133 N 0.55258 0.80222 0.1779 0.0
C1134 C 0.53174 0.76991 0.18957 0.0
C1135 C 0.52087 0.74158 0.16842 0.0
C1136 C 0.16644 0.74303 0.18553 0.0
C1137 C 0.1728 0.74488 0.21772 0.0
C1138 C 0.19357 0.76019 0.1642 0.0
C1139 C 0.22817 0.77995 0.17409 0.0
H1140 H 0.14058 0.72627 0.17648 0.0
H1141 H 0.18758 0.75652 0.13965 0.0
S1142 S 0.25868 0.80032 0.25522 0.0
N1143 N 0.21645 0.77348 0.25823 0.0
N1144 N 0.2672 0.80514 0.21771 0.0
C1145 C 0.23486 0.78476 0.20595 0.0
C1146 C 0.20719 0.76757 0.22787 0.0
C1147 C 0.17129 0.43166 0.22816 0.0
C1148 C 0.18881 0.41421 0.21822 0.0
C1149 C 0.15535 0.4433 0.20689 0.0
C1150 C 0.15518 0.43674 0.17509 0.0
H1151 H 0.17211 0.43878 0.25227 0.0
H1152 H 0.14389 0.45823 0.21527 0.0
S1153 S 0.19209 0.38761 0.13736 0.0
N1154 N 0.20154 0.38806 0.17444 0.0
N1155 N 0.1703 0.40853 0.13487 0.0
C1156 C 0.16971 0.41672 0.16514 0.0
C1157 C 0.18665 0.40563 0.18659 0.0
C1158 C 0.23699 0.45264 0.70464 0.0
C1159 C 0.23011 0.44043 0.674 0.0
C1160 C 0.21013 0.4408 0.72665 0.0
C1161 C 0.17522 0.4175 0.71856 0.0
H1162 H 0.2631 0.47186 0.71149 0.0
H1163 H 0.21644 0.45194 0.7496 0.0
S1164 S 0.14416 0.37634 0.64163 0.0
N1165 N 0.18645 0.4016 0.6372 0.0
N1166 N 0.13594 0.38121 0.67803 0.0
C1167 C 0.1684 0.4041 0.68829 0.0
C1168 C 0.19582 0.41521 0.66617 0.0
C1169 C 0.51423 0.7839 0.69203 0.0
C1170 C 0.48601 0.7646 0.67172 0.0
C1171 C 0.52506 0.76718 0.7136 0.0
C1172 C 0.50925 0.7307 0.7143 0.0
H1173 H 0.52767 0.81201 0.69154 0.0
H1174 H 0.54598 0.78279 0.72953 0.0
S1175 S 0.43391 0.66861 0.66671 0.0
N1176 N 0.44184 0.70709 0.65507 0.0
N1177 N 0.4636 0.67629 0.69314 0.0
C1178 C 0.48149 0.71153 0.69374 0.0
C1179 C 0.46956 0.72826 0.6731 0.0
C1180 C 0.15416 0.6932 0.70483 0.0
C1181 C 0.15131 0.70088 0.67384 0.0
C1182 C 0.17013 0.71983 0.72703 0.0
C1183 C 0.18502 0.75519 0.71871 0.0
H1184 H 0.14493 0.66658 0.71172 0.0
H1185 H 0.17329 0.71272 0.75028 0.0
S1186 S 0.17991 0.78815 0.64109 0.0
N1187 N 0.16043 0.7456 0.63662 0.0
N1188 N 0.19196 0.7957 0.67783 0.0
C1189 C 0.17988 0.76277 0.6882 0.0
C1190 C 0.16279 0.73562 0.66587 0.0
C1191 C 0.06532 0.51287 0.1536 0.0
C1192 C 0.06784 0.51807 0.12123 0.0
C1193 C 0.0762 0.54073 0.1743 0.0
C1194 C 0.0899 0.57492 0.16361 0.0
H1195 H 0.05709 0.4874 0.16317 0.0
H1196 H 0.07536 0.53565 0.19895 0.0
S1197 S 0.09507 0.6024 0.08198 0.0
N1198 N 0.08003 0.56013 0.07987 0.0
N1199 N 0.10066 0.61227 0.11925 0.0
C1200 C 0.08978 0.58042 0.13168 0.0
C1201 C 0.07847 0.552 0.1104 0.0
C1202 C 0.37842 0.52306 0.11321 0.0
C1203 C 0.41355 0.53824 0.12242 0.0
C1204 C 0.35119 0.50677 0.13474 0.0
C1205 C 0.35799 0.50369 0.16597 0.0
H1206 H 0.37189 0.52604 0.08968 0.0
H1207 H 0.32477 0.4973 0.12708 0.0
S1208 S 0.44442 0.53385 0.20123 0.0
N1209 N 0.45294 0.54591 0.1646 0.0
N1210 N 0.40177 0.51364 0.20453 0.0
C1211 C 0.39256 0.51582 0.17493 0.0
C1212 C 0.42032 0.53333 0.15329 0.0
C1213 C 0.39151 0.86471 0.15292 0.0
C1214 C 0.39539 0.86361 0.12054 0.0
C1215 C 0.40799 0.85336 0.17362 0.0
C1216 C 0.42926 0.84064 0.16298 0.0
H1217 H 0.37386 0.87238 0.16245 0.0
H1218 H 0.40306 0.8534 0.19822 0.0
S1219 S 0.45442 0.83886 0.08162 0.0
N1220 N 0.42677 0.85329 0.0794 0.0
N1221 N 0.45768 0.83211 0.11881 0.0
C1222 C 0.4359 0.84196 0.13114 0.0
C1223 C 0.41915 0.85361 0.10984 0.0
C1224 C 0.05561 0.08602 0.07663 0.0
C1225 C 0.05275 0.10123 0.10427 0.0
C1226 C 0.06734 0.06225 0.07671 0.0
C1227 C 0.077 0.05284 0.10444 0.0
H1228 H 0.04712 0.09131 0.05479 0.0
H1229 H 0.06814 0.05071 0.05484 0.0
S1230 S 0.07769 0.08821 0.1828 0.0
N1231 N 0.06274 0.10735 0.15975 0.0
N1232 N 0.08568 0.06307 0.1602 0.0
C1233 C 0.07633 0.06957 0.1321 0.0
C1234 C 0.06416 0.09381 0.13193 0.0
C1235 C 0.84471 0.95803 0.13069 0.0
C1236 C 0.83655 0.93805 0.10359 0.0
C1237 C 0.86711 -0.00581 0.12963 0.0
C1238 C 0.88211 0.01146 0.10146 0.0
H1239 H 0.83548 0.94551 0.15294 0.0
H1240 H 0.87358 0.00849 0.15125 0.0
S1241 S 0.86502 0.97047 0.02364 0.0
N1242 N 0.84217 0.93806 0.04763 0.0
N1243 N 0.88417 0.00558 0.04551 0.0
C1244 C 0.87234 -0.00827 0.07404 0.0
C1245 C 0.84952 0.95518 0.07517 0.0
C1246 C 0.94298 0.85954 0.07742 0.0
C1247 C 0.92368 0.85033 0.10501 0.0
C1248 C -0.02122 0.87304 0.07791 0.0
C1249 C -0.00317 0.87801 0.10596 0.0
H1250 H 0.93059 0.85726 0.05524 0.0
H1251 H -0.0072 0.88146 0.05619 0.0
S1252 S 0.95839 0.85438 0.18432 0.0
N1253 N 0.92504 0.84388 0.16111 0.0
N1254 N -0.00715 0.87001 0.16167 0.0
C1255 C -0.02217 0.8667 0.13351 0.0
C1256 C 0.94111 0.85278 0.13312 0.0
C1257 C 0.0718 0.10467 0.39574 0.0
C1258 C 0.03662 0.08648 0.40454 0.0
C1259 C 0.09121 0.08768 0.39372 0.0
C1260 C 0.0757 0.05197 0.40001 0.0
H1261 H 0.08458 0.13233 0.3913 0.0
H1262 H 0.11859 0.10273 0.38828 0.0
S1263 S -0.01739 -0.00795 0.41885 0.0
N1264 N -0.01369 0.03077 0.41654 0.0
N1265 N 0.02171 -0.00163 0.41158 0.0
C1266 C 0.03985 0.03333 0.40696 0.0
C1267 C 0.02058 0.05072 0.40961 0.0
C1268 C 0.85453 -0.00796 0.38084 0.0
C1269 C 0.86718 0.01177 0.40802 0.0
C1270 C 0.84181 0.95602 0.38122 0.0
C1271 C 0.84164 0.93866 0.40874 0.0
H1272 H 0.85653 0.00472 0.35889 0.0
H1273 H 0.83333 0.94199 0.35951 0.0
S1274 S 0.8686 -0.02123 0.48677 0.0
N1275 N 0.87535 0.01111 0.46373 0.0
N1276 N 0.85275 0.94411 0.46433 0.0
C1277 C 0.85242 0.95804 0.43636 0.0
C1278 C 0.8647 -0.00564 0.43602 0.0
C1279 C -0.01939 0.87322 0.38248 0.0
C1280 C -0.00207 0.88893 0.41049 0.0
C1281 C 0.94437 0.85178 0.38129 0.0
C1282 C 0.92432 0.84539 0.40808 0.0
H1283 H -0.00506 0.87844 0.36101 0.0
H1284 H 0.93191 0.84202 0.35906 0.0
S1285 S 0.95661 0.87636 0.48772 0.0
N1286 N -0.00812 0.89357 0.46612 0.0
N1287 N 0.92414 0.85324 0.46381 0.0
C1288 C 0.9414 0.85892 0.43649 0.0
C1289 C -0.02192 0.88076 0.43773 0.0
C1290 C 0.84411 0.84199 0.89258 0.0
C1291 C 0.88029 0.85752 0.89556 0.0
C1292 C 0.82794 0.86219 0.89479 0.0
C1293 C 0.8475 0.8982 0.90054 0.0
H1294 H 0.8282 0.81411 0.88992 0.0
H1295 H 0.79994 0.84944 0.8931 0.0
S1296 S 0.9431 0.95196 0.90527 0.0
N1297 N 0.93535 0.9119 0.90042 0.0
N1298 N 0.90465 0.94894 0.90589 0.0
C1299 C 0.8836 0.91412 0.90205 0.0
C1300 C 0.90007 0.89399 0.89913 0.0
C1301 C 0.07939 -0.01024 0.8798 0.0
C1302 C 0.08643 0.00989 0.90667 0.0
C1303 C 0.05767 0.95354 0.88099 0.0
C1304 C 0.04233 0.93636 0.9091 0.0
H1305 H 0.08885 0.00217 0.85753 0.0
H1306 H 0.05196 0.93913 0.85948 0.0
S1307 S 0.05663 -0.02207 0.98648 0.0
N1308 N 0.07961 0.01031 0.9625 0.0
N1309 N 0.03871 0.94258 0.96484 0.0
C1310 C 0.05112 0.95628 0.93639 0.0
C1311 C 0.07327 -0.00706 0.93514 0.0
C1312 C 0.94021 0.07567 0.92874 0.0
C1313 C 0.92198 0.06987 0.90064 0.0
C1314 C -0.02427 0.08735 0.92924 0.0
C1315 C -0.00526 0.09422 0.90164 0.0
H1316 H 0.9264 0.06903 0.95062 0.0
H1317 H -0.01187 0.09019 0.95152 0.0
S1318 S -0.04035 0.0864 0.82188 0.0
N1319 N 0.92564 0.0739 0.84463 0.0
N1320 N -0.00707 0.097 0.8452 0.0
C1321 C -0.02276 0.09078 0.87332 0.0
C1322 C 0.94077 0.0785 0.87291 0.0
C1323 C 0.86499 0.8574 0.62759 0.0
C1324 C 0.88211 0.8571 0.60009 0.0
C1325 C 0.84093 0.86908 0.62772 0.0
C1326 C 0.83312 0.88074 0.60035 0.0
H1327 H 0.87093 0.84952 0.64941 0.0
H1328 H 0.83007 0.87097 0.6496 0.0
S1329 S 0.86789 0.88234 0.52178 0.0
N1330 N 0.88728 0.86736 0.54442 0.0
N1331 N 0.84191 0.88861 0.54465 0.0
C1332 C 0.84839 0.87857 0.57246 0.0
C1333 C 0.873 0.86708 0.57233 0.0
C1334 C 0.06395 0.95402 0.57807 0.0
C1335 C 0.05853 0.93618 0.60629 0.0
C1336 C 0.07712 -0.01017 0.5773 0.0
C1337 C 0.08563 0.00939 0.60477 0.0
H1338 H 0.05593 0.93977 0.55639 0.0
H1339 H 0.07967 0.00201 0.55497 0.0
S1340 S 0.08043 -0.02463 0.68454 0.0
N1341 N 0.06545 0.94069 0.6621 0.0
N1342 N 0.09112 0.00853 0.66104 0.0
C1343 C 0.08287 -0.00779 0.63311 0.0
C1344 C 0.06921 0.95547 0.63377 0.0
C1345 C 0.94042 0.06701 0.62762 0.0
C1346 C 0.923 0.05052 0.59986 0.0
C1347 C -0.02336 0.08904 0.62846 0.0
C1348 C -0.00347 0.09522 0.60157 0.0
H1349 H 0.92619 0.06207 0.64912 0.0
H1350 H -0.01077 0.0996 0.65049 0.0
S1351 S -0.03638 0.06218 0.52239 0.0
N1352 N 0.92864 0.04491 0.54433 0.0
N1353 N -0.00383 0.08592 0.54604 0.0
C1354 C -0.02076 0.08061 0.57345 0.0
C1355 C 0.94264 0.05832 0.57254 0.0
C1356 C 0.73361 0.39781 0.41073 0.0
C1357 C 0.7437 0.38857 0.43832 0.0
C1358 C 0.72084 0.42075 0.41092 0.0
C1359 C 0.71738 0.43535 0.4387 0.0
H1360 H 0.73478 0.38668 0.38874 0.0
H1361 H 0.71205 0.42587 0.38916 0.0
S1362 S 0.74311 0.42257 0.51699 0.0
N1363 N 0.75211 0.39835 0.49412 0.0
N1364 N 0.7273 0.44114 0.4942 0.0
C1365 C 0.72924 0.42817 0.46624 0.0
C1366 C 0.74246 0.40474 0.46613 0.0
C1367 C 0.51266 0.29002 0.41081 0.0
C1368 C 0.49907 0.27221 0.43888 0.0
C1369 C 0.53499 0.32592 0.41017 0.0
C1370 C 0.54465 0.34557 0.43761 0.0
H1371 H 0.50733 0.27576 0.38921 0.0
H1372 H 0.54544 0.33812 0.38801 0.0
S1373 S 0.51296 0.31146 0.51689 0.0
N1374 N 0.4944 0.27674 0.49441 0.0
N1375 N 0.53612 0.34464 0.49361 0.0
C1376 C 0.52932 0.3283 0.46572 0.0
C1377 C 0.50649 0.29151 0.46625 0.0
C1378 C 0.64232 0.20141 0.46626 0.0
C1379 C 0.66287 0.21277 0.43954 0.0
C1380 C 0.60641 0.18857 0.46446 0.0
C1381 C 0.59009 0.18732 0.43595 0.0
H1382 H 0.65433 0.20475 0.48881 0.0
H1383 H 0.59169 0.18122 0.48582 0.0
S1384 S 0.63303 0.21131 0.35898 0.0
N1385 N 0.66448 0.21911 0.38359 0.0
N1386 N 0.59751 0.19608 0.38012 0.0
C1387 C 0.61035 0.19678 0.40889 0.0
C1388 C 0.64658 0.20912 0.41073 0.0
C1389 C 0.75329 0.4136 0.75374 0.0
C1390 C 0.75876 0.40102 0.72575 0.0
C1391 C 0.72925 0.42498 0.75607 0.0
C1392 C 0.71063 0.42556 0.73003 0.0
H1393 H 0.76627 0.41242 0.7744 0.0
H1394 H 0.72465 0.4326 0.77859 0.0
S1395 S 0.71802 0.39836 0.65027 0.0
N1396 N 0.74499 0.39118 0.67103 0.0
N1397 N 0.70135 0.41488 0.67447 0.0
C1398 C 0.71778 0.41545 0.70119 0.0
C1399 C 0.74162 0.40281 0.69919 0.0
C1400 C 0.50681 0.2849 0.71281 0.0
C1401 C 0.50539 0.26766 0.74078 0.0
C1402 C 0.52153 0.32117 0.71169 0.0
C1403 C 0.53511 0.34126 0.73854 0.0
H1404 H 0.4977 0.2705 0.69132 0.0
H1405 H 0.52421 0.33363 0.68949 0.0
S1406 S 0.53395 0.30917 0.81814 0.0
N1407 N 0.51625 0.27387 0.79642 0.0
N1408 N 0.54305 0.34157 0.79428 0.0
C1409 C 0.53164 0.32425 0.76692 0.0
C1410 C 0.51708 0.28759 0.76806 0.0
C1411 C 0.60402 0.21739 0.74632 0.0
C1412 C 0.58644 0.18505 0.73082 0.0
C1413 C 0.63987 0.23791 0.74581 0.0
C1414 C 0.66026 0.22754 0.72955 0.0
H1415 H 0.59016 0.2274 0.75936 0.0
H1416 H 0.65168 0.26234 0.75832 0.0
S1417 S 0.62827 0.14585 0.68471 0.0
N1418 N 0.59264 0.14377 0.69841 0.0
N1419 N 0.66095 0.18309 0.69714 0.0
C1420 C 0.64354 0.19571 0.71336 0.0
C1421 C 0.60648 0.1743 0.71409 0.0
C1422 C 0.51526 0.18233 0.22174 0.0
C1423 C 0.54821 0.19462 0.23506 0.0
C1424 C 0.49894 0.20242 0.22279 0.0
C1425 C 0.51472 0.23495 0.23778 0.0
H1426 H 0.50183 0.15697 0.21088 0.0
H1427 H 0.47354 0.19216 0.21235 0.0
S1428 S 0.60271 0.28138 0.27217 0.0
N1429 N 0.59767 0.24386 0.26041 0.0
N1430 N 0.56607 0.28006 0.26335 0.0
C1431 C 0.54794 0.248 0.2502 0.0
C1432 C 0.56491 0.22823 0.24858 0.0
C1433 C 0.75005 0.32384 0.21679 0.0
C1434 C 0.75449 0.34371 0.24343 0.0
C1435 C 0.72871 0.28753 0.21741 0.0
C1436 C 0.71113 0.26988 0.24468 0.0
H1437 H 0.76132 0.3365 0.19497 0.0
H1438 H 0.72502 0.27339 0.19599 0.0
S1439 S 0.71832 0.31038 0.32161 0.0
N1440 N 0.74295 0.34317 0.29858 0.0
N1441 N 0.7027 0.27533 0.29969 0.0
C1442 C 0.71742 0.28947 0.27194 0.0
C1443 C 0.73917 0.32626 0.27131 0.0
C1444 C 0.64339 0.41842 0.26504 0.0
C1445 C 0.66275 0.42701 0.23753 0.0
C1446 C 0.60782 0.40637 0.26449 0.0
C1447 C 0.58993 0.40205 0.23641 0.0
H1448 H 0.65557 0.4203 0.28726 0.0
H1449 H 0.59382 0.39869 0.28625 0.0
S1450 S 0.62861 0.42354 0.15801 0.0
N1451 N 0.66162 0.43297 0.18132 0.0
N1452 N 0.59427 0.4094 0.18063 0.0
C1453 C 0.60904 0.41235 0.20886 0.0
C1454 C 0.64553 0.42488 0.20933 0.0
C1455 C 0.53376 0.19784 0.90681 0.0
C1456 C 0.54303 0.18753 0.93426 0.0
C1457 C 0.51107 0.2109 0.90732 0.0
C1458 C 0.49662 0.21416 0.93525 0.0
H1459 H 0.54474 0.19669 0.88475 0.0
H1460 H 0.50598 0.22002 0.88574 0.0
S1461 S 0.509 0.18728 0.01311 0.0
N1462 N 0.53316 0.17849 0.99003 0.0
N1463 N 0.49066 0.20354 0.99059 0.0
C1464 C 0.50369 0.20193 0.96258 0.0
C1465 C 0.52697 0.18863 0.9622 0.0
C1466 C 0.71696 0.2901 0.90743 0.0
C1467 C 0.71451 0.27133 0.93452 0.0
C1468 C 0.7289 0.32573 0.90836 0.0
C1469 C 0.7389 0.3442 0.93645 0.0
H1470 H 0.7081 0.27677 0.8854 0.0
H1471 H 0.72948 0.33864 0.8869 0.0
S1472 S 0.74008 0.30749 0.01366 0.0
N1473 N 0.725 0.27393 0.98986 0.0
N1474 N 0.7479 0.3412 0.99195 0.0
C1475 C 0.7384 0.32605 0.96355 0.0
C1476 C 0.72621 0.28958 0.96249 0.0
C1477 C 0.64096 0.42659 0.91302 0.0
C1478 C 0.65858 0.43844 0.9415 0.0
C1479 C 0.60555 0.4022 0.91179 0.0
C1480 C 0.58606 0.38895 0.939 0.0
H1481 H 0.65522 0.43462 0.8914 0.0
H1482 H 0.59364 0.39308 0.88925 0.0
S1483 S 0.61946 0.41431 0.01955 0.0
N1484 N 0.65382 0.43704 0.99745 0.0
N1485 N 0.58675 0.39186 0.99557 0.0
C1486 C 0.60294 0.40242 0.96773 0.0
C1487 C 0.63928 0.42715 0.96887 0.0
C1488 C 0.41093 0.73592 0.79731 0.0
C1489 C 0.41252 0.71986 0.7695 0.0
C1490 C 0.39638 0.75765 0.79806 0.0
C1491 C 0.38309 0.76411 0.77099 0.0
H1492 H 0.41976 0.73065 0.81895 0.0
H1493 H 0.39361 0.76763 0.82013 0.0
S1494 S 0.38433 0.73196 0.69184 0.0
N1495 N 0.40196 0.71473 0.71393 0.0
N1496 N 0.37511 0.75537 0.71541 0.0
C1497 C 0.3865 0.74999 0.74291 0.0
C1498 C 0.40103 0.7279 0.74212 0.0
C1499 C 0.17089 0.61822 0.74604 0.0
C1500 C 0.15867 0.60007 0.77413 0.0
C1501 C 0.19462 0.6538 0.74557 0.0
C1502 C 0.2068 0.67291 0.77319 0.0
H1503 H 0.16371 0.60432 0.72417 0.0
H1504 H 0.20413 0.66615 0.72329 0.0
S1505 S 0.17994 0.63797 0.85293 0.0
N1506 N 0.15844 0.60381 0.83017 0.0
N1507 N 0.20244 0.6713 0.82961 0.0
C1508 C 0.19288 0.65548 0.8015 0.0
C1509 C 0.16881 0.61892 0.80189 0.0
C1510 C 0.30782 0.52394 0.79213 0.0
C1511 C 0.32911 0.55994 0.78827 0.0
C1512 C 0.27158 0.50822 0.78892 0.0
C1513 C 0.25596 0.52797 0.78084 0.0
H1514 H 0.31921 0.50775 0.7961 0.0
H1515 H 0.25586 0.48034 0.79158 0.0
S1516 S 0.29947 0.62355 0.77418 0.0
N1517 N 0.3311 0.61538 0.78123 0.0
N1518 N 0.26362 0.5853 0.77326 0.0
C1519 C 0.27667 0.56399 0.77888 0.0
C1520 C 0.31311 0.5801 0.78317 0.0
C1521 C 0.38389 0.75092 0.10066 0.0
C1522 C 0.37477 0.76047 0.07269 0.0
C1523 C 0.40696 0.73831 0.10109 0.0
C1524 C 0.42194 0.73474 0.07363 0.0
H1525 H 0.37254 0.75236 0.12241 0.0
H1526 H 0.41191 0.72974 0.12304 0.0
S1527 S 0.40996 0.75952 0.99471 0.0
N1528 N 0.38522 0.76837 0.01693 0.0
N1529 N 0.42844 0.7442 0.01814 0.0
C1530 C 0.41498 0.74621 0.04578 0.0
C1531 C 0.39131 0.75905 0.04521 0.0
C1532 C 0.19743 0.65826 0.09886 0.0
C1533 C 0.20069 0.67606 0.07095 0.0
C1534 C 0.18403 0.62238 0.09937 0.0
C1535 C 0.17334 0.6027 0.07195 0.0
H1536 H 0.20678 0.67249 0.12044 0.0
H1537 H 0.18289 0.61021 0.12142 0.0
S1538 S 0.17296 0.63662 0.99316 0.0
N1539 N 0.18966 0.67134 0.01565 0.0
N1540 N 0.16401 0.60356 0.01622 0.0
C1541 C 0.17444 0.61994 0.04404 0.0
C1542 C 0.1881 0.65668 0.04365 0.0
C1543 C 0.27581 0.53059 0.10041 0.0
C1544 C 0.25812 0.51481 0.07271 0.0
C1545 C 0.31158 0.55341 0.10085 0.0
C1546 C 0.33132 0.56144 0.07358 0.0
H1547 H 0.26159 0.52639 0.12185 0.0
H1548 H 0.32361 0.56544 0.1227 0.0
S1549 S 0.29781 0.52372 0.99552 0.0
N1550 N 0.26306 0.50636 0.01785 0.0
N1551 N 0.33071 0.54898 0.01836 0.0
C1552 C 0.31424 0.54404 0.04598 0.0
C1553 C 0.27757 0.52069 0.04564 0.0
C1554 C 0.19983 0.52782 0.59656 0.0
C1555 C 0.2026 0.51255 0.56894 0.0
C1556 C 0.18656 0.55032 0.59666 0.0
C1557 C 0.17538 0.55847 0.56912 0.0
H1558 H 0.20949 0.52353 0.61821 0.0
H1559 H 0.1859 0.562 0.61849 0.0
S1560 S 0.17382 0.5222 0.49098 0.0
N1561 N 0.19084 0.50481 0.51376 0.0
N1562 N 0.16516 0.54683 0.51362 0.0
C1563 C 0.17601 0.54162 0.54151 0.0
C1564 C 0.18966 0.5186 0.54152 0.0
C1565 C 0.42033 0.65741 0.58282 0.0
C1566 C 0.42271 0.67534 0.55536 0.0
C1567 C 0.39603 0.62205 0.58622 0.0
C1568 C 0.37408 0.60286 0.56166 0.0
H1569 H 0.43609 0.6716 0.60242 0.0
H1570 H 0.39403 0.60983 0.60839 0.0
S1571 S 0.37196 0.63718 0.4837 0.0
N1572 N 0.40197 0.67133 0.50274 0.0
N1573 N 0.35786 0.60408 0.50792 0.0
C1574 C 0.37782 0.62 0.53318 0.0
C1575 C 0.40188 0.6564 0.53022 0.0
C1576 C 0.31087 0.75897 0.54325 0.0
C1577 C 0.32851 0.75759 0.56999 0.0
C1578 C 0.27472 0.74552 0.54334 0.0
C1579 C 0.25525 0.73077 0.57032 0.0
H1580 H 0.32477 0.76914 0.52171 0.0
H1581 H 0.26181 0.74478 0.52183 0.0
S1582 S 0.28912 0.7248 0.6474 0.0
N1583 N 0.32345 0.74227 0.62467 0.0
N1584 N 0.25657 0.71933 0.62529 0.0
C1585 C 0.27299 0.73181 0.59772 0.0
C1586 C 0.3093 0.74449 0.59744 0.0
C1587 C 0.19911 0.52846 0.23973 0.0
C1588 C 0.20696 0.51697 0.26725 0.0
C1589 C 0.17732 0.54255 0.23989 0.0
C1590 C 0.16247 0.54585 0.26755 0.0
H1591 H 0.21068 0.52761 0.21791 0.0
H1592 H 0.17338 0.55254 0.21828 0.0
S1593 S 0.17112 0.51609 0.34535 0.0
N1594 N 0.19515 0.5067 0.32268 0.0
N1595 N 0.15446 0.5339 0.32265 0.0
C1596 C 0.168 0.53238 0.29488 0.0
C1597 C 0.19029 0.51789 0.29483 0.0
C1598 C 0.42312 0.66154 0.28221 0.0
C1599 C 0.40545 0.67855 0.27197 0.0
C1600 C 0.40609 0.62505 0.28398 0.0
C1601 C 0.37078 0.60479 0.27622 0.0
H1602 H 0.45044 0.67642 0.28794 0.0
H1603 H 0.42084 0.6127 0.29043 0.0
S1604 S 0.31185 0.63817 0.25424 0.0
N1605 N 0.35044 0.67323 0.25757 0.0
N1606 N 0.31777 0.60529 0.26239 0.0
C1607 C 0.35248 0.62208 0.26823 0.0
C1608 C 0.36999 0.65881 0.26568 0.0
C1609 C 0.27349 0.73713 0.2927 0.0
C1610 C 0.25621 0.72101 0.26479 0.0
C1611 C 0.30941 0.76067 0.2934 0.0
C1612 C 0.32913 0.76892 0.26618 0.0
H1613 H 0.25944 0.73074 0.3144 0.0
H1614 H 0.32203 0.7707 0.31552 0.0
S1615 S 0.29649 0.73711 0.18677 0.0
N1616 N 0.26176 0.71748 0.20894 0.0
N1617 N 0.32874 0.76188 0.21029 0.0
C1618 C 0.31189 0.75475 0.23795 0.0
C1619 C 0.27562 0.73066 0.23723 0.0
C1620 C -0.00742 0.16506 0.27197 0.0
C1621 C -0.03843 0.15333 0.28878 0.0
C1622 C -0.00713 0.16481 0.23933 0.0
C1623 C -0.03784 0.15281 0.22179 0.0
H1624 H 0.01687 0.17369 0.28408 0.0
H1625 H 0.01742 0.17333 0.22781 0.0
S1626 S 0.87432 0.12246 0.25423 0.0
N1627 N 0.89948 0.13166 0.285 0.0
N1628 N 0.90008 0.13112 0.22404 0.0
C1629 C 0.93114 0.14222 0.23827 0.0
C1630 C 0.93083 0.14251 0.27153 0.0
C1631 C 0.77127 0.81368 0.27055 0.0
C1632 C 0.78389 0.79533 0.28766 0.0
C1633 C 0.77059 0.81315 0.23793 0.0
C1634 C 0.78248 0.79422 0.22067 0.0
H1635 H 0.76256 0.8294 0.28238 0.0
H1636 H 0.76139 0.82851 0.22619 0.0
S1637 S 0.81538 0.73915 0.25402 0.0
N1638 N 0.80657 0.75573 0.28454 0.0
N1639 N 0.80534 0.7548 0.22357 0.0
C1640 C 0.794 0.7747 0.23747 0.0
C1641 C 0.7947 0.77523 0.27075 0.0
C1642 C 0.15048 0.00267 0.271 0.0
C1643 C 0.13845 0.97179 0.28827 0.0
C1644 C 0.15073 0.00262 0.23837 0.0
C1645 C 0.13902 0.9717 0.22129 0.0
H1646 H 0.15897 0.02716 0.28273 0.0
H1647 H 0.15931 0.02703 0.22649 0.0
S1648 S 0.10809 0.88407 0.25509 0.0
N1649 N 0.11677 0.90964 0.2855 0.0
N1650 N 0.11733 0.90949 0.22453 0.0
C1651 C 0.12824 0.9408 0.23827 0.0
C1652 C 0.12792 0.94085 0.27154 0.0
C1653 C 0.93138 0.78273 0.7376 0.0
C1654 C -0.03751 0.79484 0.72084 0.0
C1655 C 0.93093 0.7826 0.77024 0.0
C1656 C -0.03841 0.79468 0.78785 0.0
H1657 H 0.9071 0.77402 0.72547 0.0
H1658 H 0.9063 0.77383 0.7817 0.0
S1659 S 0.04973 0.82618 0.75561 0.0
N1660 N 0.02468 0.81705 0.72477 0.0
N1661 N 0.02377 0.81692 0.78574 0.0
C1662 C -0.00727 0.80565 0.77143 0.0
C1663 C -0.0068 0.80569 0.73816 0.0
C1664 C 0.12098 0.16408 0.73648 0.0
C1665 C 0.14035 0.15252 0.71949 0.0
C1666 C 0.12054 0.16388 0.76913 0.0
C1667 C 0.13941 0.15205 0.78651 0.0
H1668 H 0.10517 0.17259 0.72452 0.0
H1669 H 0.10439 0.17217 0.78077 0.0
S1670 S 0.19712 0.12212 0.75366 0.0
N1671 N 0.18092 0.13113 0.72297 0.0
N1672 N 0.18013 0.13076 0.78395 0.0
C1673 C 0.15999 0.14169 0.76987 0.0
C1674 C 0.16046 0.14192 0.73658 0.0
C1675 C 0.76755 0.94012 0.7705 0.0
C1676 C 0.77819 0.9712 0.78706 0.0
C1677 C 0.76838 0.93955 0.73785 0.0
C1678 C 0.77996 0.97005 0.72011 0.0
H1679 H 0.75943 0.91605 0.78283 0.0
H1680 H 0.76077 0.91504 0.72651 0.0
S1681 S 0.80719 0.05777 0.75176 0.0
N1682 N 0.79815 0.03297 0.78273 0.0
N1683 N 0.79981 0.03187 0.72183 0.0
C1684 C 0.78935 0.00106 0.73631 0.0
C1685 C 0.78843 0.00164 0.76954 0.0
C1686 C 0.65522 0.50116 0.60452 0.0
C1687 C 0.62385 0.48671 0.62124 0.0
C1688 C 0.65574 0.5016 0.57192 0.0
C1689 C 0.62492 0.48764 0.55432 0.0
H1690 H 0.67973 0.51138 0.61664 0.0
H1691 H 0.68064 0.51219 0.56049 0.0
S1692 S 0.53586 0.4497 0.58657 0.0
N1693 N 0.56111 0.46028 0.6174 0.0
N1694 N 0.56208 0.46109 0.55644 0.0
C1695 C 0.59342 0.47444 0.57072 0.0
C1696 C 0.59288 0.47398 0.60398 0.0
C1697 C 0.43366 0.1452 0.60289 0.0
C1698 C 0.44466 0.12539 0.61989 0.0
C1699 C 0.43425 0.14589 0.57025 0.0
C1700 C 0.44593 0.12685 0.55286 0.0
H1701 H 0.42536 0.16119 0.61486 0.0
H1702 H 0.42633 0.16237 0.55863 0.0
S1703 S 0.47434 0.06794 0.58574 0.0
N1704 N 0.46525 0.0841 0.6164 0.0
N1705 N 0.46645 0.08554 0.55543 0.0
C1706 C 0.45573 0.10585 0.5695 0.0
C1707 C 0.45506 0.10507 0.60278 0.0
C1708 C 0.78872 0.27397 0.56914 0.0
C1709 C 0.80785 0.30492 0.55206 0.0
C1710 C 0.78926 0.27379 0.60175 0.0
C1711 C 0.80903 0.30454 0.61892 0.0
H1712 H 0.77215 0.24968 0.5573 0.0
H1713 H 0.77305 0.24941 0.61354 0.0
S1714 S 0.86723 0.39202 0.58552 0.0
N1715 N 0.8496 0.36677 0.55503 0.0
N1716 N 0.8508 0.36649 0.61598 0.0
C1717 C 0.8297 0.33542 0.60211 0.0
C1718 C 0.82905 0.3356 0.56888 0.0
C1719 C 0.5975 0.11749 0.06905 0.0
C1720 C 0.62866 0.13148 0.05207 0.0
C1721 C 0.59734 0.11786 0.10167 0.0
C1722 C 0.62834 0.13225 0.11909 0.0
H1723 H 0.57285 0.10679 0.05709 0.0
H1724 H 0.57254 0.10734 0.11325 0.0
S1725 S 0.71711 0.17011 0.08623 0.0
N1726 N 0.69152 0.15855 0.05557 0.0
N1727 N 0.69117 0.15928 0.11654 0.0
C1728 C 0.65968 0.14534 0.10247 0.0
C1729 C 0.65985 0.14494 0.06918 0.0
C1730 C 0.81423 0.4654 0.10412 0.0
C1731 C 0.80485 0.48608 0.12184 0.0
C1732 C 0.81393 0.46586 0.07149 0.0
C1733 C 0.80427 0.48703 0.05497 0.0
H1734 H 0.82088 0.44782 0.11548 0.0
H1735 H 0.8203 0.44857 0.05918 0.0
S1736 S 0.78134 0.54922 0.0901 0.0
N1737 N 0.78837 0.53056 0.12009 0.0
N1738 N 0.7879 0.53151 0.05914 0.0
C1739 C 0.79636 0.50902 0.0724 0.0
C1740 C 0.79663 0.50853 0.10562 0.0
C1741 C 0.46216 0.33623 0.06956 0.0
C1742 C 0.44363 0.30478 0.05305 0.0
C1743 C 0.46276 0.33704 0.10217 0.0
C1744 C 0.44487 0.30646 0.11999 0.0
H1745 H 0.47726 0.36049 0.05726 0.0
H1746 H 0.47827 0.36195 0.11344 0.0
S1747 S 0.38941 0.21751 0.08834 0.0
N1748 N 0.4047 0.24235 0.05733 0.0
N1749 N 0.40591 0.24391 0.1183 0.0
C1750 C 0.42506 0.27495 0.10381 0.0
C1751 C 0.42443 0.27412 0.07054 0.0
C1752 C 0.32222 0.83004 0.90323 0.0
C1753 C 0.29152 0.81828 0.88577 0.0
C1754 C 0.32191 0.82985 0.93586 0.0
C1755 C 0.29088 0.81788 0.95272 0.0
H1756 H 0.34675 0.8386 0.89166 0.0
H1757 H 0.34619 0.83828 0.94791 0.0
S1758 S 0.20366 0.78758 0.91842 0.0
N1759 N 0.22943 0.79668 0.88818 0.0
N1760 N 0.22883 0.79635 0.94914 0.0
C1761 C 0.26017 0.8074 0.93558 0.0
C1762 C 0.26049 0.80759 0.90232 0.0
C1763 C 0.13217 0.44622 0.93731 0.0
C1764 C 0.11328 0.45804 0.9547 0.0
C1765 C 0.13093 0.44508 0.9047 0.0
C1766 C 0.11074 0.45568 0.88782 0.0
H1767 H 0.14896 0.43868 0.94889 0.0
H1768 H 0.14692 0.43686 0.89265 0.0
S1769 S 0.05321 0.48509 0.92208 0.0
N1770 N 0.07146 0.47793 0.95231 0.0
N1771 N 0.06906 0.47572 0.89139 0.0
C1772 C 0.09047 0.46606 0.90495 0.0
C1773 C 0.09177 0.46726 0.93818 0.0
C1774 C 0.46016 0.61455 0.94058 0.0
C1775 C 0.47648 0.64607 0.95716 0.0
C1776 C 0.46056 0.6138 0.90803 0.0
C1777 C 0.47726 0.64455 0.89027 0.0
H1778 H 0.44605 0.59006 0.95275 0.0
H1779 H 0.44667 0.58871 0.89674 0.0
S1780 S 0.52695 0.73406 0.92217 0.0
N1781 N 0.51218 0.709 0.9531 0.0
N1782 N 0.51276 0.70752 0.89212 0.0
C1783 C 0.49499 0.67625 0.90653 0.0
C1784 C 0.49463 0.67703 0.9398 0.0
C1785 C 0.32246 0.47639 0.40356 0.0
C1786 C 0.2915 0.45846 0.38621 0.0
C1787 C 0.32242 0.47565 0.43618 0.0
C1788 C 0.29141 0.45696 0.45314 0.0
H1789 H 0.34704 0.49208 0.39194 0.0
H1790 H 0.3469 0.49088 0.44815 0.0
S1791 S 0.2035 0.40235 0.4191 0.0
N1792 N 0.22914 0.41912 0.38878 0.0
N1793 N 0.22902 0.41765 0.44973 0.0
C1794 C 0.26041 0.4376 0.43608 0.0
C1795 C 0.26046 0.43837 0.40283 0.0
C1796 C 0.45224 0.83348 0.4022 0.0
C1797 C 0.47339 0.82459 0.38466 0.0
C1798 C 0.45268 0.83342 0.43485 0.0
C1799 C 0.47434 0.82454 0.45154 0.0
H1800 H 0.43422 0.83941 0.39069 0.0
H1801 H 0.43494 0.83922 0.44702 0.0
S1802 S 0.53812 0.80363 0.41687 0.0
N1803 N 0.51898 0.80975 0.38674 0.0
N1804 N 0.51996 0.80978 0.44769 0.0
C1805 C 0.49691 0.81733 0.43427 0.0
C1806 C 0.49639 0.81731 0.40104 0.0
C1807 C 0.1316 0.66871 0.40183 0.0
C1808 C 0.11344 0.63761 0.38475 0.0
C1809 C 0.13147 0.66885 0.43447 0.0
C1810 C 0.11322 0.6379 0.45174 0.0
H1811 H 0.14685 0.69324 0.38996 0.0
H1812 H 0.14666 0.69352 0.44619 0.0
S1813 S 0.05885 0.54954 0.41852 0.0
N1814 N 0.07469 0.57503 0.38797 0.0
N1815 N 0.07458 0.57536 0.44893 0.0
C1816 C 0.0939 0.60672 0.43498 0.0
C1817 C 0.09397 0.60656 0.40172 0.0
C1818 C 0.03241 0.32446 0.08354 0.0
C1819 C 0.06852 0.34286 0.07879 0.0
C1820 C 0.01518 0.28984 0.09326 0.0
C1821 C 0.03321 0.27192 0.09881 0.0
H1822 H 0.01713 0.3369 0.07985 0.0
H1823 H -0.01268 0.277 0.09625 0.0
S1824 S 0.12816 0.30815 0.09011 0.0
N1825 N 0.12194 0.34055 0.08062 0.0
N1826 N 0.08947 0.2753 0.09882 0.0
C1827 C 0.06941 0.28996 0.09431 0.0
C1828 C 0.08703 0.32535 0.0842 0.0
C1829 C 0.64472 0.71271 0.09452 0.0
C1830 C 0.66382 0.74909 0.09741 0.0
C1831 C 0.60958 0.69536 0.08648 0.0
C1832 C 0.59189 0.71359 0.08069 0.0
H1833 H 0.65707 0.69736 0.09836 0.0
H1834 H 0.59622 0.6673 0.08481 0.0
S1835 S 0.63019 0.80937 0.08453 0.0
N1836 N 0.66259 0.80299 0.09351 0.0
N1837 N 0.5964 0.77041 0.07833 0.0
C1838 C 0.61067 0.75008 0.0834 0.0
C1839 C 0.64657 0.76779 0.09188 0.0
C1840 C 0.22377 0.92176 0.08879 0.0
C1841 C 0.18793 0.90397 0.09488 0.0
C1842 C 0.24077 0.90405 0.07941 0.0
C1843 C 0.22268 0.86774 0.07548 0.0
H1844 H 0.23899 0.94973 0.09125 0.0
H1845 H 0.26847 0.91906 0.07541 0.0
S1846 S 0.12831 0.80874 0.08792 0.0
N1847 N 0.13467 0.84779 0.09588 0.0
N1848 N 0.1667 0.8145 0.07833 0.0
C1849 C 0.18673 0.84955 0.08121 0.0
C1850 C 0.16939 0.86761 0.091 0.0
C1851 C 0.27697 0.02857 0.41034 0.0
C1852 C 0.25768 0.0457 0.4096 0.0
C1853 C 0.31198 0.04596 0.41882 0.0
C1854 C 0.32943 0.08133 0.42714 0.0
H1855 H 0.26487 0.00126 0.40446 0.0
H1856 H 0.32544 0.03135 0.41875 0.0
S1857 S 0.29062 0.13825 0.4295 0.0
N1858 N 0.25846 0.10011 0.4183 0.0
N1859 N 0.3245 0.133 0.43413 0.0
C1860 C 0.31048 0.09891 0.42659 0.0
C1861 C 0.27465 0.08112 0.41774 0.0
C1862 C 0.8572 0.1868 0.41475 0.0
C1863 C 0.89302 0.20492 0.40844 0.0
C1864 C 0.83964 0.20451 0.42284 0.0
C1865 C 0.85716 0.24104 0.42469 0.0
H1866 H 0.84273 0.15868 0.41419 0.0
H1867 H 0.81203 0.18942 0.42728 0.0
S1868 S 0.95101 0.30068 0.40987 0.0
N1869 N 0.9453 0.26149 0.40415 0.0
N1870 N 0.91255 0.29466 0.41944 0.0
C1871 C 0.89297 0.25943 0.41823 0.0
C1872 C 0.9108 0.24143 0.41006 0.0
C1873 C 0.69732 0.65905 0.41653 0.0
C1874 C 0.7335 0.67743 0.4123 0.0
C1875 C 0.67981 0.62419 0.42563 0.0
C1876 C 0.69765 0.60605 0.43112 0.0
H1877 H 0.68222 0.67169 0.41289 0.0
H1878 H 0.6519 0.61134 0.42823 0.0
S1879 S 0.79272 0.64222 0.42378 0.0
N1880 N 0.78679 0.67489 0.41465 0.0
N1881 N 0.75381 0.60924 0.43167 0.0
C1882 C 0.73392 0.62408 0.42715 0.0
C1883 C 0.75181 0.65969 0.41766 0.0
C1884 C 0.83603 0.62377 0.92635 0.0
C1885 C 0.85363 0.6056 0.93297 0.0
C1886 C 0.85401 0.65848 0.91617 0.0
C1887 C 0.8903 0.6764 0.91223 0.0
H1888 H 0.80807 0.61093 0.92846 0.0
H1889 H 0.83936 0.67147 0.9118 0.0
S1890 S 0.94862 0.6405 0.92656 0.0
N1891 N 0.90956 0.60843 0.93525 0.0
N1892 N 0.94304 0.67284 0.91555 0.0
C1893 C 0.90811 0.65836 0.91871 0.0
C1894 C 0.88991 0.62328 0.92926 0.0
C1895 C 0.30848 0.25278 0.92577 0.0
C1896 C 0.3265 0.23466 0.93033 0.0
C1897 C 0.2736 0.23558 0.91683 0.0
C1898 C 0.25508 0.19946 0.91181 0.0
H1899 H 0.32146 0.28066 0.92899 0.0
H1900 H 0.26105 0.25088 0.91389 0.0
S1901 S 0.29 0.13965 0.92063 0.0
N1902 N 0.32307 0.17833 0.92916 0.0
N1903 N 0.25739 0.14595 0.91235 0.0
C1904 C 0.2727 0.18089 0.91624 0.0
C1905 C 0.30832 0.19845 0.92561 0.0
C1906 C 0.72889 0.09584 0.92202 0.0
C1907 C 0.69309 0.0778 0.92857 0.0
C1908 C 0.74617 0.07813 0.91285 0.0
C1909 C 0.72836 0.04167 0.91 0.0
H1910 H 0.74364 0.12391 0.9235 0.0
H1911 H 0.77382 0.09311 0.90858 0.0
S1912 S 0.6343 -0.0178 0.92411 0.0
N1913 N 0.64047 0.02127 0.9315 0.0
N1914 N 0.6726 -0.01173 0.9139 0.0
C1915 C 0.69249 0.0234 0.91625 0.0
C1916 C 0.67499 0.04135 0.92566 0.0
C1917 C 0.64492 0.86775 0.58909 0.0
C1918 C 0.66254 0.90335 0.59673 0.0
C1919 C 0.61005 0.85063 0.57937 0.0
C1920 C 0.59143 0.86843 0.57704 0.0
H1921 H 0.65828 0.85306 0.59009 0.0
H1922 H 0.59747 0.82312 0.57424 0.0
S1923 S 0.62573 0.96201 0.59408 0.0
N1924 N 0.65853 0.95573 0.60131 0.0
N1925 N 0.59369 0.92399 0.58265 0.0
C1926 C 0.60891 0.90411 0.58441 0.0
C1927 C 0.6442 0.92141 0.59439 0.0
C1928 C 0.06259 0.75791 0.59191 0.0
C1929 C 0.02623 0.74033 0.59515 0.0
C1930 C 0.07985 0.74046 0.58208 0.0
C1931 C 0.06149 0.70468 0.57527 0.0
H1932 H 0.07789 0.78551 0.5965 0.0
H1933 H 0.10789 0.75504 0.58044 0.0
S1934 S -0.03399 0.64647 0.58007 0.0
N1935 N -0.0275 0.68484 0.59089 0.0
N1936 N 0.00482 0.65233 0.57226 0.0
C1937 C 0.02514 0.6868 0.57841 0.0
C1938 C 0.00759 0.70451 0.58841 0.0
C1939 C 0.23911 0.32357 0.58338 0.0
C1940 C 0.2211 0.34142 0.57731 0.0
C1941 C 0.22165 0.28852 0.59181 0.0
C1942 C 0.18532 0.26959 0.59477 0.0
H1943 H 0.26712 0.33675 0.58168 0.0
H1944 H 0.2369 0.27611 0.59588 0.0
S1945 S 0.12557 0.30372 0.58133 0.0
N1946 N 0.16455 0.3373 0.57485 0.0
N1947 N 0.13169 0.2712 0.59067 0.0
C1948 C 0.16682 0.28699 0.58894 0.0
C1949 C 0.18467 0.32285 0.5801 0.0
C1950 C -0.02312 0.42449 0.7576 0.0
C1951 C -0.00543 0.40627 0.76344 0.0
C1952 C 0.94166 0.40698 0.74922 0.0
C1953 C 0.92266 0.37052 0.7467 0.0
H1954 H -0.00952 0.45259 0.7589 0.0
H1955 H 0.92911 0.42212 0.74528 0.0
S1956 S 0.95688 0.31065 0.75964 0.0
N1957 N -0.00962 0.3497 0.76611 0.0
N1958 N 0.92441 0.31684 0.7505 0.0
C1959 C 0.94009 0.35202 0.7525 0.0
C1960 C -0.02408 0.36984 0.76084 0.0
C1961 C 0.55338 0.58176 0.7664 0.0
C1962 C 0.51708 0.56378 0.7699 0.0
C1963 C 0.57105 0.56491 0.75664 0.0
C1964 C 0.55337 0.52916 0.74982 0.0
H1965 H 0.56848 0.6094 0.77091 0.0
H1966 H 0.59899 0.58027 0.75443 0.0
S1967 S 0.45821 0.46957 0.75594 0.0
N1968 N 0.46389 0.50787 0.76613 0.0
N1969 N 0.49723 0.47593 0.74806 0.0
C1970 C 0.51702 0.51058 0.75351 0.0
C1971 C 0.4989 0.52788 0.76359 0.0
C1972 C 0.41225 -0.01173 0.74859 0.0
C1973 C 0.39396 0.00604 0.74338 0.0
C1974 C 0.39492 0.95298 0.75709 0.0
C1975 C 0.35859 0.93404 0.76052 0.0
H1976 H 0.44025 0.00182 0.74663 0.0
H1977 H 0.41007 0.94035 0.76042 0.0
S1978 S 0.29853 0.96839 0.74948 0.0
N1979 N 0.33731 0.00172 0.74208 0.0
N1980 N 0.305 0.93603 0.75832 0.0
C1981 C 0.34006 0.95159 0.75542 0.0
C1982 C 0.35763 -0.01266 0.74675 0.0
C1983 C 0.57031 -0.00738 0.24232 0.0
C1984 C 0.55227 0.01077 0.23803 0.0
C1985 C 0.5534 0.95802 0.25199 0.0
C1986 C 0.51752 0.93968 0.25784 0.0
H1987 H 0.59805 0.00533 0.23853 0.0
H1988 H 0.5688 0.94557 0.25484 0.0
S1989 S 0.45763 -0.02554 0.249 0.0
N1990 N 0.49608 0.00742 0.23978 0.0
N1991 N 0.46407 0.94199 0.25768 0.0
C1992 C 0.49888 0.95723 0.25334 0.0
C1993 C 0.51623 -0.00726 0.24338 0.0
C1994 C -0.02341 0.58781 0.25779 0.0
C1995 C -0.0051 0.56985 0.26117 0.0
C1996 C 0.94146 0.57051 0.24958 0.0
C1997 C 0.92301 0.53446 0.24408 0.0
H1998 H -0.0105 0.61562 0.26148 0.0
H1999 H 0.92866 0.58568 0.24763 0.0
S2000 S 0.95903 0.47523 0.24914 0.0
N2001 N -0.00797 0.51385 0.25793 0.0
N2002 N 0.92596 0.48129 0.24245 0.0
C2003 C 0.94102 0.5161 0.24716 0.0
C2004 C -0.02313 0.53375 0.2558 0.0
C2005 C 0.34697 0.38061 0.25661 0.0
C2006 C 0.36486 0.41662 0.26236 0.0
C2007 C 0.36432 0.36342 0.2469 0.0
C2008 C 0.40044 0.38135 0.24238 0.0
H2009 H 0.3191 0.36533 0.25947 0.0
H2010 H 0.34913 0.33564 0.24309 0.0
S2011 S 0.45984 0.47585 0.25446 0.0
N2012 N 0.42105 0.46977 0.26291 0.0
N2013 N 0.45379 0.43731 0.24473 0.0
C2014 C 0.41884 0.41742 0.24798 0.0
C2015 C 0.40108 0.43502 0.25807 0.0
loop_
_geom_bond_atom_site_label_1
_geom_bond_atom_site_label_2
_geom_bond_distance
_geom_bond_site_symmetry_2
_ccdc_geom_bond_type
O0 Zn1 1.953 . S
O0 C16 1.225 . S
Zn1 O0 1.953 . S
Zn1 O2 1.949 . S
Zn1 O8 1.919 . S
Zn1 O13 1.924 . S
O2 Zn1 1.949 . S
O2 Zn3 1.923 . S
O2 Zn4 1.950 1_455 S
O2 Zn5 1.945 . S
Zn3 O2 1.923 . S
Zn3 O6 1.933 . S
Zn3 O9 1.941 . S
Zn3 O10 1.965 1_455 S
Zn4 O2 1.950 1_655 S
Zn4 O11 1.938 . S
Zn4 O12 1.906 . S
Zn4 O22 1.953 . S
Zn5 O2 1.945 . S
Zn5 O7 1.932 . S
Zn5 O14 1.977 . S
Zn5 O15 1.910 . S
O6 Zn3 1.933 . S
O6 C17 1.226 . S
O7 Zn5 1.932 . S
O7 C17 1.307 . S
O8 Zn1 1.919 . S
O8 C19 1.253 . S
O9 Zn3 1.941 . S
O9 C19 1.283 . S
O10 Zn3 1.965 1_655 S
O10 C18 1.303 . S
O11 Zn4 1.938 . S
O11 C18 1.247 . S
O12 Zn4 1.906 . S
O12 C20 1.304 . S
O13 Zn1 1.924 . S
O13 C21 1.311 . S
O14 Zn5 1.977 . S
O14 C20 1.272 1_455 S
O15 Zn5 1.910 . S
O15 C21 1.231 . S
C16 O0 1.225 . S
C16 O22 1.298 1_455 S
C17 O6 1.226 . S
C17 O7 1.307 . S
C18 O10 1.303 . S
C18 O11 1.247 . S
C19 O8 1.253 . S
C19 O9 1.283 . S
C20 O12 1.304 . S
C20 O14 1.272 1_655 S
C21 O13 1.311 . S
C21 O15 1.231 . S
O22 Zn4 1.953 . S
O22 C16 1.298 1_655 S
O23 Zn24 1.953 . S
O23 C39 1.225 . S
Zn24 O23 1.953 . S
Zn24 O25 1.949 . S
Zn24 O31 1.919 . S
Zn24 O36 1.924 . S
O25 Zn24 1.949 . S
O25 Zn26 1.923 . S
O25 Zn27 1.950 . S
O25 Zn28 1.945 . S
Zn26 O25 1.923 . S
Zn26 O29 1.933 . S
Zn26 O32 1.941 . S
Zn26 O33 1.965 . S
Zn27 O25 1.950 . S
Zn27 O34 1.938 . S
Zn27 O35 1.906 . S
Zn27 O45 1.953 . S
Zn28 O25 1.945 . S
Zn28 O30 1.932 . S
Zn28 O37 1.977 . S
Zn28 O38 1.910 . S
O29 Zn26 1.933 . S
O29 C40 1.226 . S
O30 Zn28 1.932 . S
O30 C40 1.307 . S
O31 Zn24 1.919 . S
O31 C42 1.253 . S
O32 Zn26 1.941 . S
O32 C42 1.283 . S
O33 Zn26 1.965 . S
O33 C41 1.303 . S
O34 Zn27 1.938 . S
O34 C41 1.247 . S
O35 Zn27 1.906 . S
O35 C43 1.304 . S
O36 Zn24 1.924 . S
O36 C44 1.311 . S
O37 Zn28 1.977 . S
O37 C43 1.272 . S
O38 Zn28 1.910 . S
O38 C44 1.231 . S
C39 O23 1.225 . S
C39 O45 1.298 . S
C40 O29 1.226 . S
C40 O30 1.307 . S
C41 O33 1.303 . S
C41 O34 1.247 . S
C42 O31 1.253 . S
C42 O32 1.283 . S
C43 O35 1.304 . S
C43 O37 1.272 . S
C44 O36 1.311 . S
C44 O38 1.231 . S
O45 Zn27 1.953 . S
O45 C39 1.298 . S
O46 Zn47 1.953 . S
O46 C62 1.225 . S
Zn47 O46 1.953 . S
Zn47 O48 1.949 . S
Zn47 O54 1.919 . S
Zn47 O59 1.924 . S
O48 Zn47 1.949 . S
O48 Zn49 1.923 . S
O48 Zn50 1.950 1_565 S
O48 Zn51 1.945 . S
Zn49 O48 1.923 . S
Zn49 O52 1.933 . S
Zn49 O55 1.941 . S
Zn49 O56 1.965 1_565 S
Zn50 O48 1.950 1_545 S
Zn50 O57 1.938 . S
Zn50 O58 1.906 . S
Zn50 O68 1.953 . S
Zn51 O48 1.945 . S
Zn51 O53 1.932 . S
Zn51 O60 1.977 . S
Zn51 O61 1.910 . S
O52 Zn49 1.933 . S
O52 C63 1.226 . S
O53 Zn51 1.932 . S
O53 C63 1.307 . S
O54 Zn47 1.919 . S
O54 C65 1.253 . S
O55 Zn49 1.941 . S
O55 C65 1.283 . S
O56 Zn49 1.965 1_545 S
O56 C64 1.303 . S
O57 Zn50 1.938 . S
O57 C64 1.247 . S
O58 Zn50 1.906 . S
O58 C66 1.304 . S
O59 Zn47 1.924 . S
O59 C67 1.311 . S
O60 Zn51 1.977 . S
O60 C66 1.272 1_565 S
O61 Zn51 1.910 . S
O61 C67 1.231 . S
C62 O46 1.225 . S
C62 O68 1.298 1_565 S
C63 O52 1.226 . S
C63 O53 1.307 . S
C64 O56 1.303 . S
C64 O57 1.247 . S
C65 O54 1.253 . S
C65 O55 1.283 . S
C66 O58 1.304 . S
C66 O60 1.272 1_545 S
C67 O59 1.311 . S
C67 O61 1.231 . S
O68 Zn50 1.953 . S
O68 C62 1.298 1_545 S
O69 Zn70 1.953 . S
O69 C85 1.225 . S
Zn70 O69 1.953 . S
Zn70 O71 1.949 . S
Zn70 O77 1.919 . S
Zn70 O82 1.924 . S
O71 Zn70 1.949 . S
O71 Zn72 1.923 . S
O71 Zn73 1.950 1_545 S
O71 Zn74 1.945 . S
Zn72 O71 1.923 . S
Zn72 O75 1.933 . S
Zn72 O78 1.941 . S
Zn72 O79 1.965 1_545 S
Zn73 O71 1.950 1_565 S
Zn73 O80 1.938 . S
Zn73 O81 1.906 . S
Zn73 O91 1.953 . S
Zn74 O71 1.945 . S
Zn74 O76 1.932 . S
Zn74 O83 1.977 . S
Zn74 O84 1.910 . S
O75 Zn72 1.933 . S
O75 C86 1.226 . S
O76 Zn74 1.932 . S
O76 C86 1.307 . S
O77 Zn70 1.919 . S
O77 C88 1.253 . S
O78 Zn72 1.941 . S
O78 C88 1.283 . S
O79 Zn72 1.965 1_565 S
O79 C87 1.303 . S
O80 Zn73 1.938 . S
O80 C87 1.247 . S
O81 Zn73 1.906 . S
O81 C89 1.304 . S
O82 Zn70 1.924 . S
O82 C90 1.311 . S
O83 Zn74 1.977 . S
O83 C89 1.272 1_545 S
O84 Zn74 1.910 . S
O84 C90 1.231 . S
C85 O69 1.225 . S
C85 O91 1.298 1_545 S
C86 O75 1.226 . S
C86 O76 1.307 . S
C87 O79 1.303 . S
C87 O80 1.247 . S
C88 O77 1.253 . S
C88 O78 1.283 . S
C89 O81 1.304 . S
C89 O83 1.272 1_565 S
C90 O82 1.311 . S
C90 O84 1.231 . S
O91 Zn73 1.953 . S
O91 C85 1.298 1_565 S
O92 Zn93 1.953 . S
O92 C108 1.225 . S
Zn93 O92 1.953 . S
Zn93 O94 1.949 . S
Zn93 O100 1.919 . S
Zn93 O105 1.924 . S
O94 Zn93 1.949 . S
O94 Zn95 1.923 . S
O94 Zn96 1.950 1_655 S
O94 Zn97 1.945 . S
Zn95 O94 1.923 . S
Zn95 O98 1.933 . S
Zn95 O101 1.941 . S
Zn95 O102 1.965 1_655 S
Zn96 O94 1.950 1_455 S
Zn96 O103 1.938 . S
Zn96 O104 1.906 . S
Zn96 O114 1.953 . S
Zn97 O94 1.945 . S
Zn97 O99 1.932 . S
Zn97 O106 1.977 . S
Zn97 O107 1.910 . S
O98 Zn95 1.933 . S
O98 C109 1.226 . S
O99 Zn97 1.932 . S
O99 C109 1.307 . S
O100 Zn93 1.919 . S
O100 C111 1.253 . S
O101 Zn95 1.941 . S
O101 C111 1.283 . S
O102 Zn95 1.965 1_455 S
O102 C110 1.303 . S
O103 Zn96 1.938 . S
O103 C110 1.247 . S
O104 Zn96 1.906 . S
O104 C112 1.304 . S
O105 Zn93 1.924 . S
O105 C113 1.311 . S
O106 Zn97 1.977 . S
O106 C112 1.272 1_655 S
O107 Zn97 1.910 . S
O107 C113 1.231 . S
C108 O92 1.225 . S
C108 O114 1.298 1_655 S
C109 O98 1.226 . S
C109 O99 1.307 . S
C110 O102 1.303 . S
C110 O103 1.247 . S
C111 O100 1.253 . S
C111 O101 1.283 . S
C112 O104 1.304 . S
C112 O106 1.272 1_455 S
C113 O105 1.311 . S
C113 O107 1.231 . S
O114 Zn96 1.953 . S
O114 C108 1.298 1_455 S
O115 Zn116 1.953 . S
O115 C131 1.225 . S
Zn116 O115 1.953 . S
Zn116 O117 1.949 . S
Zn116 O123 1.919 . S
Zn116 O128 1.924 . S
O117 Zn116 1.949 . S
O117 Zn118 1.923 . S
O117 Zn119 1.950 . S
O117 Zn120 1.945 . S
Zn118 O117 1.923 . S
Zn118 O121 1.933 . S
Zn118 O124 1.941 . S
Zn118 O125 1.965 . S
Zn119 O117 1.950 . S
Zn119 O126 1.938 . S
Zn119 O127 1.906 . S
Zn119 O137 1.953 . S
Zn120 O117 1.945 . S
Zn120 O122 1.932 . S
Zn120 O129 1.977 . S
Zn120 O130 1.910 . S
O121 Zn118 1.933 . S
O121 C132 1.226 . S
O122 Zn120 1.932 . S
O122 C132 1.307 . S
O123 Zn116 1.919 . S
O123 C134 1.253 . S
O124 Zn118 1.941 . S
O124 C134 1.283 . S
O125 Zn118 1.965 . S
O125 C133 1.303 . S
O126 Zn119 1.938 . S
O126 C133 1.247 . S
O127 Zn119 1.906 . S
O127 C135 1.304 . S
O128 Zn116 1.924 . S
O128 C136 1.311 . S
O129 Zn120 1.977 . S
O129 C135 1.272 . S
O130 Zn120 1.910 . S
O130 C136 1.231 . S
C131 O115 1.225 . S
C131 O137 1.298 . S
C132 O121 1.226 . S
C132 O122 1.307 . S
C133 O125 1.303 . S
C133 O126 1.247 . S
C134 O123 1.253 . S
C134 O124 1.283 . S
C135 O127 1.304 . S
C135 O129 1.272 . S
C136 O128 1.311 . S
C136 O130 1.231 . S
O137 Zn119 1.953 . S
O137 C131 1.298 . S
O138 Zn139 1.953 . S
O138 C154 1.225 . S
Zn139 O138 1.953 . S
Zn139 O140 1.949 . S
Zn139 O146 1.919 . S
Zn139 O151 1.924 . S
O140 Zn139 1.949 . S
O140 Zn141 1.923 . S
O140 Zn142 1.950 1_655 S
O140 Zn143 1.945 . S
Zn141 O140 1.923 . S
Zn141 O144 1.933 . S
Zn141 O147 1.941 . S
Zn141 O148 1.965 1_655 S
Zn142 O140 1.950 1_455 S
Zn142 O149 1.938 . S
Zn142 O150 1.906 . S
Zn142 O160 1.953 . S
Zn143 O140 1.945 . S
Zn143 O145 1.932 . S
Zn143 O152 1.977 . S
Zn143 O153 1.910 . S
O144 Zn141 1.933 . S
O144 C155 1.226 . S
O145 Zn143 1.932 . S
O145 C155 1.307 . S
O146 Zn139 1.919 . S
O146 C157 1.253 . S
O147 Zn141 1.941 . S
O147 C157 1.283 . S
O148 Zn141 1.965 1_455 S
O148 C156 1.303 . S
O149 Zn142 1.938 . S
O149 C156 1.247 . S
O150 Zn142 1.906 . S
O150 C158 1.304 . S
O151 Zn139 1.924 . S
O151 C159 1.311 . S
O152 Zn143 1.977 . S
O152 C158 1.272 1_655 S
O153 Zn143 1.910 . S
O153 C159 1.231 . S
C154 O138 1.225 . S
C154 O160 1.298 1_655 S
C155 O144 1.226 . S
C155 O145 1.307 . S
C156 O148 1.303 . S
C156 O149 1.247 . S
C157 O146 1.253 . S
C157 O147 1.283 . S
C158 O150 1.304 . S
C158 O152 1.272 1_455 S
C159 O151 1.311 . S
C159 O153 1.231 . S
O160 Zn142 1.953 . S
O160 C154 1.298 1_455 S
O161 Zn162 1.953 . S
O161 C177 1.225 . S
Zn162 O161 1.953 . S
Zn162 O163 1.949 . S
Zn162 O169 1.919 . S
Zn162 O174 1.924 . S
O163 Zn162 1.949 . S
O163 Zn164 1.923 . S
O163 Zn165 1.950 . S
O163 Zn166 1.945 . S
Zn164 O163 1.923 . S
Zn164 O167 1.933 . S
Zn164 O170 1.941 . S
Zn164 O171 1.965 . S
Zn165 O163 1.950 . S
Zn165 O172 1.938 . S
Zn165 O173 1.906 . S
Zn165 O183 1.953 . S
Zn166 O163 1.945 . S
Zn166 O168 1.932 . S
Zn166 O175 1.977 . S
Zn166 O176 1.910 . S
O167 Zn164 1.933 . S
O167 C178 1.226 . S
O168 Zn166 1.932 . S
O168 C178 1.307 . S
O169 Zn162 1.919 . S
O169 C180 1.253 . S
O170 Zn164 1.941 . S
O170 C180 1.283 . S
O171 Zn164 1.965 . S
O171 C179 1.303 . S
O172 Zn165 1.938 . S
O172 C179 1.247 . S
O173 Zn165 1.906 . S
O173 C181 1.304 . S
O174 Zn162 1.924 . S
O174 C182 1.311 . S
O175 Zn166 1.977 . S
O175 C181 1.272 . S
O176 Zn166 1.910 . S
O176 C182 1.231 . S
C177 O161 1.225 . S
C177 O183 1.298 . S
C178 O167 1.226 . S
C178 O168 1.307 . S
C179 O171 1.303 . S
C179 O172 1.247 . S
C180 O169 1.253 . S
C180 O170 1.283 . S
C181 O173 1.304 . S
C181 O175 1.272 . S
C182 O174 1.311 . S
C182 O176 1.231 . S
O183 Zn165 1.953 . S
O183 C177 1.298 . S
O184 Zn185 1.953 . S
O184 C200 1.225 . S
Zn185 O184 1.953 . S
Zn185 O186 1.949 . S
Zn185 O192 1.919 . S
Zn185 O197 1.924 . S
O186 Zn185 1.949 . S
O186 Zn187 1.923 . S
O186 Zn188 1.950 1_545 S
O186 Zn189 1.945 . S
Zn187 O186 1.923 . S
Zn187 O190 1.933 . S
Zn187 O193 1.941 . S
Zn187 O194 1.965 1_545 S
Zn188 O186 1.950 1_565 S
Zn188 O195 1.938 . S
Zn188 O196 1.906 . S
Zn188 O206 1.953 . S
Zn189 O186 1.945 . S
Zn189 O191 1.932 . S
Zn189 O198 1.977 . S
Zn189 O199 1.910 . S
O190 Zn187 1.933 . S
O190 C201 1.226 . S
O191 Zn189 1.932 . S
O191 C201 1.307 . S
O192 Zn185 1.919 . S
O192 C203 1.253 . S
O193 Zn187 1.941 . S
O193 C203 1.283 . S
O194 Zn187 1.965 1_565 S
O194 C202 1.303 . S
O195 Zn188 1.938 . S
O195 C202 1.247 . S
O196 Zn188 1.906 . S
O196 C204 1.304 . S
O197 Zn185 1.924 . S
O197 C205 1.311 . S
O198 Zn189 1.977 . S
O198 C204 1.272 1_545 S
O199 Zn189 1.910 . S
O199 C205 1.231 . S
C200 O184 1.225 . S
C200 O206 1.298 1_545 S
C201 O190 1.226 . S
C201 O191 1.307 . S
C202 O194 1.303 . S
C202 O195 1.247 . S
C203 O192 1.253 . S
C203 O193 1.283 . S
C204 O196 1.304 . S
C204 O198 1.272 1_565 S
C205 O197 1.311 . S
C205 O199 1.231 . S
O206 Zn188 1.953 . S
O206 C200 1.298 1_565 S
O207 Zn208 1.953 . S
O207 C223 1.225 . S
Zn208 O207 1.953 . S
Zn208 O209 1.949 . S
Zn208 O215 1.919 . S
Zn208 O220 1.924 . S
O209 Zn208 1.949 . S
O209 Zn210 1.923 . S
O209 Zn211 1.950 1_565 S
O209 Zn212 1.945 . S
Zn210 O209 1.923 . S
Zn210 O213 1.933 . S
Zn210 O216 1.941 . S
Zn210 O217 1.965 1_565 S
Zn211 O209 1.950 1_545 S
Zn211 O218 1.938 . S
Zn211 O219 1.906 . S
Zn211 O229 1.953 . S
Zn212 O209 1.945 . S
Zn212 O214 1.932 . S
Zn212 O221 1.977 . S
Zn212 O222 1.910 . S
O213 Zn210 1.933 . S
O213 C224 1.226 . S
O214 Zn212 1.932 . S
O214 C224 1.307 . S
O215 Zn208 1.919 . S
O215 C226 1.253 . S
O216 Zn210 1.941 . S
O216 C226 1.283 . S
O217 Zn210 1.965 1_545 S
O217 C225 1.303 . S
O218 Zn211 1.938 . S
O218 C225 1.247 . S
O219 Zn211 1.906 . S
O219 C227 1.304 . S
O220 Zn208 1.924 . S
O220 C228 1.311 . S
O221 Zn212 1.977 . S
O221 C227 1.272 1_565 S
O222 Zn212 1.910 . S
O222 C228 1.231 . S
C223 O207 1.225 . S
C223 O229 1.298 1_565 S
C224 O213 1.226 . S
C224 O214 1.307 . S
C225 O217 1.303 . S
C225 O218 1.247 . S
C226 O215 1.253 . S
C226 O216 1.283 . S
C227 O219 1.304 . S
C227 O221 1.272 1_545 S
C228 O220 1.311 . S
C228 O222 1.231 . S
O229 Zn211 1.953 . S
O229 C223 1.298 1_545 S
O230 Zn231 1.953 . S
O230 C246 1.225 . S
Zn231 O230 1.953 . S
Zn231 O232 1.949 . S
Zn231 O238 1.919 . S
Zn231 O243 1.924 . S
O232 Zn231 1.949 . S
O232 Zn233 1.923 . S
O232 Zn234 1.950 1_455 S
O232 Zn235 1.945 . S
Zn233 O232 1.923 . S
Zn233 O236 1.933 . S
Zn233 O239 1.941 . S
Zn233 O240 1.965 1_455 S
Zn234 O232 1.950 1_655 S
Zn234 O241 1.938 . S
Zn234 O242 1.906 . S
Zn234 O252 1.953 . S
Zn235 O232 1.945 . S
Zn235 O237 1.932 . S
Zn235 O244 1.977 . S
Zn235 O245 1.910 . S
O236 Zn233 1.933 . S
O236 C247 1.226 . S
O237 Zn235 1.932 . S
O237 C247 1.307 . S
O238 Zn231 1.919 . S
O238 C249 1.253 . S
O239 Zn233 1.941 . S
O239 C249 1.283 . S
O240 Zn233 1.965 1_655 S
O240 C248 1.303 . S
O241 Zn234 1.938 . S
O241 C248 1.247 . S
O242 Zn234 1.906 . S
O242 C250 1.304 . S
O243 Zn231 1.924 . S
O243 C251 1.311 . S
O244 Zn235 1.977 . S
O244 C250 1.272 1_455 S
O245 Zn235 1.910 . S
O245 C251 1.231 . S
C246 O230 1.225 . S
C246 O252 1.298 1_455 S
C247 O236 1.226 . S
C247 O237 1.307 . S
C248 O240 1.303 . S
C248 O241 1.247 . S
C249 O238 1.253 . S
C249 O239 1.283 . S
C250 O242 1.304 . S
C250 O244 1.272 1_655 S
C251 O243 1.311 . S
C251 O245 1.231 . S
O252 Zn234 1.953 . S
O252 C246 1.298 1_655 S
O253 Zn254 1.953 . S
O253 C269 1.225 . S
Zn254 O253 1.953 . S
Zn254 O255 1.949 . S
Zn254 O261 1.919 . S
Zn254 O266 1.924 . S
O255 Zn254 1.949 . S
O255 Zn256 1.923 . S
O255 Zn257 1.950 . S
O255 Zn258 1.945 . S
Zn256 O255 1.923 . S
Zn256 O259 1.933 . S
Zn256 O262 1.941 . S
Zn256 O263 1.965 . S
Zn257 O255 1.950 . S
Zn257 O264 1.938 . S
Zn257 O265 1.906 . S
Zn257 O275 1.953 . S
Zn258 O255 1.945 . S
Zn258 O260 1.932 . S
Zn258 O267 1.977 . S
Zn258 O268 1.910 . S
O259 Zn256 1.933 . S
O259 C270 1.226 . S
O260 Zn258 1.932 . S
O260 C270 1.307 . S
O261 Zn254 1.919 . S
O261 C272 1.253 . S
O262 Zn256 1.941 . S
O262 C272 1.283 . S
O263 Zn256 1.965 . S
O263 C271 1.303 . S
O264 Zn257 1.938 . S
O264 C271 1.247 . S
O265 Zn257 1.906 . S
O265 C273 1.304 . S
O266 Zn254 1.924 . S
O266 C274 1.311 . S
O267 Zn258 1.977 . S
O267 C273 1.272 . S
O268 Zn258 1.910 . S
O268 C274 1.231 . S
C269 O253 1.225 . S
C269 O275 1.298 . S
C270 O259 1.226 . S
C270 O260 1.307 . S
C271 O263 1.303 . S
C271 O264 1.247 . S
C272 O261 1.253 . S
C272 O262 1.283 . S
C273 O265 1.304 . S
C273 O267 1.272 . S
C274 O266 1.311 . S
C274 O268 1.231 . S
O275 Zn257 1.953 . S
O275 C269 1.298 . S
O276 Zn277 1.953 . S
O276 C292 1.225 . S
Zn277 O276 1.953 . S
Zn277 O278 1.949 . S
Zn277 O284 1.919 . S
Zn277 O289 1.924 . S
O278 Zn277 1.949 . S
O278 Zn279 1.923 . S
O278 Zn280 1.950 . S
O278 Zn281 1.945 . S
Zn279 O278 1.923 . S
Zn279 O282 1.933 . S
Zn279 O285 1.941 . S
Zn279 O286 1.965 . S
Zn280 O278 1.950 . S
Zn280 O287 1.938 . S
Zn280 O288 1.906 . S
Zn280 O298 1.953 . S
Zn281 O278 1.945 . S
Zn281 O283 1.932 . S
Zn281 O290 1.977 . S
Zn281 O291 1.910 . S
O282 Zn279 1.933 . S
O282 C293 1.226 . S
O283 Zn281 1.932 . S
O283 C293 1.307 . S
O284 Zn277 1.919 . S
O284 C295 1.253 . S
O285 Zn279 1.941 . S
O285 C295 1.283 . S
O286 Zn279 1.965 . S
O286 C294 1.303 . S
O287 Zn280 1.938 . S
O287 C294 1.247 . S
O288 Zn280 1.906 . S
O288 C296 1.304 . S
O289 Zn277 1.924 . S
O289 C297 1.311 . S
O290 Zn281 1.977 . S
O290 C296 1.272 . S
O291 Zn281 1.910 . S
O291 C297 1.231 . S
C292 O276 1.225 . S
C292 O298 1.298 . S
C293 O282 1.226 . S
C293 O283 1.307 . S
C294 O286 1.303 . S
C294 O287 1.247 . S
C295 O284 1.253 . S
C295 O285 1.283 . S
C296 O288 1.304 . S
C296 O290 1.272 . S
C297 O289 1.311 . S
C297 O291 1.231 . S
O298 Zn280 1.953 . S
O298 C292 1.298 . S
O299 Zn300 1.953 . S
O299 C315 1.225 . S
Zn300 O299 1.953 . S
Zn300 O301 1.949 . S
Zn300 O307 1.919 . S
Zn300 O312 1.924 . S
O301 Zn300 1.949 . S
O301 Zn302 1.923 . S
O301 Zn303 1.950 . S
O301 Zn304 1.945 . S
Zn302 O301 1.923 . S
Zn302 O305 1.933 . S
Zn302 O308 1.941 . S
Zn302 O309 1.965 . S
Zn303 O301 1.950 . S
Zn303 O310 1.938 . S
Zn303 O311 1.906 . S
Zn303 O321 1.953 . S
Zn304 O301 1.945 . S
Zn304 O306 1.932 . S
Zn304 O313 1.977 . S
Zn304 O314 1.910 . S
O305 Zn302 1.933 . S
O305 C316 1.226 . S
O306 Zn304 1.932 . S
O306 C316 1.307 . S
O307 Zn300 1.919 . S
O307 C318 1.253 . S
O308 Zn302 1.941 . S
O308 C318 1.283 . S
O309 Zn302 1.965 . S
O309 C317 1.303 . S
O310 Zn303 1.938 . S
O310 C317 1.247 . S
O311 Zn303 1.906 . S
O311 C319 1.304 . S
O312 Zn300 1.924 . S
O312 C320 1.311 . S
O313 Zn304 1.977 . S
O313 C319 1.272 . S
O314 Zn304 1.910 . S
O314 C320 1.231 . S
C315 O299 1.225 . S
C315 O321 1.298 . S
C316 O305 1.226 . S
C316 O306 1.307 . S
C317 O309 1.303 . S
C317 O310 1.247 . S
C318 O307 1.253 . S
C318 O308 1.283 . S
C319 O311 1.304 . S
C319 O313 1.272 . S
C320 O312 1.311 . S
C320 O314 1.231 . S
O321 Zn303 1.953 . S
O321 C315 1.298 . S
O322 Zn323 1.953 . S
O322 C338 1.225 . S
Zn323 O322 1.953 . S
Zn323 O324 1.949 . S
Zn323 O330 1.919 . S
Zn323 O335 1.924 . S
O324 Zn323 1.949 . S
O324 Zn325 1.923 . S
O324 Zn326 1.950 . S
O324 Zn327 1.945 . S
Zn325 O324 1.923 . S
Zn325 O328 1.933 . S
Zn325 O331 1.941 . S
Zn325 O332 1.965 . S
Zn326 O324 1.950 . S
Zn326 O333 1.938 . S
Zn326 O334 1.906 . S
Zn326 O344 1.953 . S
Zn327 O324 1.945 . S
Zn327 O329 1.932 . S
Zn327 O336 1.977 . S
Zn327 O337 1.910 . S
O328 Zn325 1.933 . S
O328 C339 1.226 . S
O329 Zn327 1.932 . S
O329 C339 1.307 . S
O330 Zn323 1.919 . S
O330 C341 1.253 . S
O331 Zn325 1.941 . S
O331 C341 1.283 . S
O332 Zn325 1.965 . S
O332 C340 1.303 . S
O333 Zn326 1.938 . S
O333 C340 1.247 . S
O334 Zn326 1.906 . S
O334 C342 1.304 . S
O335 Zn323 1.924 . S
O335 C343 1.311 . S
O336 Zn327 1.977 . S
O336 C342 1.272 . S
O337 Zn327 1.910 . S
O337 C343 1.231 . S
C338 O322 1.225 . S
C338 O344 1.298 . S
C339 O328 1.226 . S
C339 O329 1.307 . S
C340 O332 1.303 . S
C340 O333 1.247 . S
C341 O330 1.253 . S
C341 O331 1.283 . S
C342 O334 1.304 . S
C342 O336 1.272 . S
C343 O335 1.311 . S
C343 O337 1.231 . S
O344 Zn326 1.953 . S
O344 C338 1.298 . S
O345 Zn346 1.953 . S
O345 C361 1.225 . S
Zn346 O345 1.953 . S
Zn346 O347 1.949 . S
Zn346 O353 1.919 . S
Zn346 O358 1.924 . S
O347 Zn346 1.949 . S
O347 Zn348 1.923 . S
O347 Zn349 1.950 . S
O347 Zn350 1.945 . S
Zn348 O347 1.923 . S
Zn348 O351 1.933 . S
Zn348 O354 1.941 . S
Zn348 O355 1.965 . S
Zn349 O347 1.950 . S
Zn349 O356 1.938 . S
Zn349 O357 1.906 . S
Zn349 O367 1.953 . S
Zn350 O347 1.945 . S
Zn350 O352 1.932 . S
Zn350 O359 1.977 . S
Zn350 O360 1.910 . S
O351 Zn348 1.933 . S
O351 C362 1.226 . S
O352 Zn350 1.932 . S
O352 C362 1.307 . S
O353 Zn346 1.919 . S
O353 C364 1.253 . S
O354 Zn348 1.941 . S
O354 C364 1.283 . S
O355 Zn348 1.965 . S
O355 C363 1.303 . S
O356 Zn349 1.938 . S
O356 C363 1.247 . S
O357 Zn349 1.906 . S
O357 C365 1.304 . S
O358 Zn346 1.924 . S
O358 C366 1.311 . S
O359 Zn350 1.977 . S
O359 C365 1.272 . S
O360 Zn350 1.910 . S
O360 C366 1.231 . S
C361 O345 1.225 . S
C361 O367 1.298 . S
C362 O351 1.226 . S
C362 O352 1.307 . S
C363 O355 1.303 . S
C363 O356 1.247 . S
C364 O353 1.253 . S
C364 O354 1.283 . S
C365 O357 1.304 . S
C365 O359 1.272 . S
C366 O358 1.311 . S
C366 O360 1.231 . S
O367 Zn349 1.953 . S
O367 C361 1.298 . S
O368 Zn369 1.953 . S
O368 C384 1.225 . S
Zn369 O368 1.953 . S
Zn369 O370 1.949 . S
Zn369 O376 1.919 . S
Zn369 O381 1.924 . S
O370 Zn369 1.949 . S
O370 Zn371 1.923 . S
O370 Zn372 1.950 . S
O370 Zn373 1.945 . S
Zn371 O370 1.923 . S
Zn371 O374 1.933 . S
Zn371 O377 1.941 . S
Zn371 O378 1.965 . S
Zn372 O370 1.950 . S
Zn372 O379 1.938 . S
Zn372 O380 1.906 . S
Zn372 O390 1.953 . S
Zn373 O370 1.945 . S
Zn373 O375 1.932 . S
Zn373 O382 1.977 . S
Zn373 O383 1.910 . S
O374 Zn371 1.933 . S
O374 C385 1.226 . S
O375 Zn373 1.932 . S
O375 C385 1.307 . S
O376 Zn369 1.919 . S
O376 C387 1.253 . S
O377 Zn371 1.941 . S
O377 C387 1.283 . S
O378 Zn371 1.965 . S
O378 C386 1.303 . S
O379 Zn372 1.938 . S
O379 C386 1.247 . S
O380 Zn372 1.906 . S
O380 C388 1.304 . S
O381 Zn369 1.924 . S
O381 C389 1.311 . S
O382 Zn373 1.977 . S
O382 C388 1.272 . S
O383 Zn373 1.910 . S
O383 C389 1.231 . S
C384 O368 1.225 . S
C384 O390 1.298 . S
C385 O374 1.226 . S
C385 O375 1.307 . S
C386 O378 1.303 . S
C386 O379 1.247 . S
C387 O376 1.253 . S
C387 O377 1.283 . S
C388 O380 1.304 . S
C388 O382 1.272 . S
C389 O381 1.311 . S
C389 O383 1.231 . S
O390 Zn372 1.953 . S
O390 C384 1.298 . S
O391 Zn392 1.953 . S
O391 C407 1.225 . S
Zn392 O391 1.953 . S
Zn392 O393 1.949 . S
Zn392 O399 1.919 . S
Zn392 O404 1.924 . S
O393 Zn392 1.949 . S
O393 Zn394 1.923 . S
O393 Zn395 1.950 . S
O393 Zn396 1.945 . S
Zn394 O393 1.923 . S
Zn394 O397 1.933 . S
Zn394 O400 1.941 . S
Zn394 O401 1.965 . S
Zn395 O393 1.950 . S
Zn395 O402 1.938 . S
Zn395 O403 1.906 . S
Zn395 O413 1.953 . S
Zn396 O393 1.945 . S
Zn396 O398 1.932 . S
Zn396 O405 1.977 . S
Zn396 O406 1.910 . S
O397 Zn394 1.933 . S
O397 C408 1.226 . S
O398 Zn396 1.932 . S
O398 C408 1.307 . S
O399 Zn392 1.919 . S
O399 C410 1.253 . S
O400 Zn394 1.941 . S
O400 C410 1.283 . S
O401 Zn394 1.965 . S
O401 C409 1.303 . S
O402 Zn395 1.938 . S
O402 C409 1.247 . S
O403 Zn395 1.906 . S
O403 C411 1.304 . S
O404 Zn392 1.924 . S
O404 C412 1.311 . S
O405 Zn396 1.977 . S
O405 C411 1.272 . S
O406 Zn396 1.910 . S
O406 C412 1.231 . S
C407 O391 1.225 . S
C407 O413 1.298 . S
C408 O397 1.226 . S
C408 O398 1.307 . S
C409 O401 1.303 . S
C409 O402 1.247 . S
C410 O399 1.253 . S
C410 O400 1.283 . S
C411 O403 1.304 . S
C411 O405 1.272 . S
C412 O404 1.311 . S
C412 O406 1.231 . S
O413 Zn395 1.953 . S
O413 C407 1.298 . S
O414 Zn415 1.953 . S
O414 C430 1.225 . S
Zn415 O414 1.953 . S
Zn415 O416 1.949 . S
Zn415 O422 1.919 . S
Zn415 O427 1.924 . S
O416 Zn415 1.949 . S
O416 Zn417 1.923 . S
O416 Zn418 1.950 . S
O416 Zn419 1.945 . S
Zn417 O416 1.923 . S
Zn417 O420 1.933 . S
Zn417 O423 1.941 . S
Zn417 O424 1.965 . S
Zn418 O416 1.950 . S
Zn418 O425 1.938 . S
Zn418 O426 1.906 . S
Zn418 O436 1.953 . S
Zn419 O416 1.945 . S
Zn419 O421 1.932 . S
Zn419 O428 1.977 . S
Zn419 O429 1.910 . S
O420 Zn417 1.933 . S
O420 C431 1.226 . S
O421 Zn419 1.932 . S
O421 C431 1.307 . S
O422 Zn415 1.919 . S
O422 C433 1.253 . S
O423 Zn417 1.941 . S
O423 C433 1.283 . S
O424 Zn417 1.965 . S
O424 C432 1.303 . S
O425 Zn418 1.938 . S
O425 C432 1.247 . S
O426 Zn418 1.906 . S
O426 C434 1.304 . S
O427 Zn415 1.924 . S
O427 C435 1.311 . S
O428 Zn419 1.977 . S
O428 C434 1.272 . S
O429 Zn419 1.910 . S
O429 C435 1.231 . S
C430 O414 1.225 . S
C430 O436 1.298 . S
C431 O420 1.226 . S
C431 O421 1.307 . S
C432 O424 1.303 . S
C432 O425 1.247 . S
C433 O422 1.253 . S
C433 O423 1.283 . S
C434 O426 1.304 . S
C434 O428 1.272 . S
C435 O427 1.311 . S
C435 O429 1.231 . S
O436 Zn418 1.953 . S
O436 C430 1.298 . S
O437 Zn438 1.953 . S
O437 C453 1.225 . S
Zn438 O437 1.953 . S
Zn438 O439 1.949 . S
Zn438 O445 1.919 . S
Zn438 O450 1.924 . S
O439 Zn438 1.949 . S
O439 Zn440 1.923 . S
O439 Zn441 1.950 . S
O439 Zn442 1.945 . S
Zn440 O439 1.923 . S
Zn440 O443 1.933 . S
Zn440 O446 1.941 . S
Zn440 O447 1.965 . S
Zn441 O439 1.950 . S
Zn441 O448 1.938 . S
Zn441 O449 1.906 . S
Zn441 O459 1.953 . S
Zn442 O439 1.945 . S
Zn442 O444 1.932 . S
Zn442 O451 1.977 . S
Zn442 O452 1.910 . S
O443 Zn440 1.933 . S
O443 C454 1.226 . S
O444 Zn442 1.932 . S
O444 C454 1.307 . S
O445 Zn438 1.919 . S
O445 C456 1.253 . S
O446 Zn440 1.941 . S
O446 C456 1.283 . S
O447 Zn440 1.965 . S
O447 C455 1.303 . S
O448 Zn441 1.938 . S
O448 C455 1.247 . S
O449 Zn441 1.906 . S
O449 C457 1.304 . S
O450 Zn438 1.924 . S
O450 C458 1.311 . S
O451 Zn442 1.977 . S
O451 C457 1.272 . S
O452 Zn442 1.910 . S
O452 C458 1.231 . S
C453 O437 1.225 . S
C453 O459 1.298 . S
C454 O443 1.226 . S
C454 O444 1.307 . S
C455 O447 1.303 . S
C455 O448 1.247 . S
C456 O445 1.253 . S
C456 O446 1.283 . S
C457 O449 1.304 . S
C457 O451 1.272 . S
C458 O450 1.311 . S
C458 O452 1.231 . S
O459 Zn441 1.953 . S
O459 C453 1.298 . S
O460 Zn461 1.953 . S
O460 C476 1.225 . S
Zn461 O460 1.953 . S
Zn461 O462 1.949 . S
Zn461 O468 1.919 . S
Zn461 O473 1.924 . S
O462 Zn461 1.949 . S
O462 Zn463 1.923 . S
O462 Zn464 1.950 . S
O462 Zn465 1.945 . S
Zn463 O462 1.923 . S
Zn463 O466 1.933 . S
Zn463 O469 1.941 . S
Zn463 O470 1.965 . S
Zn464 O462 1.950 . S
Zn464 O471 1.938 . S
Zn464 O472 1.906 . S
Zn464 O482 1.953 . S
Zn465 O462 1.945 . S
Zn465 O467 1.932 . S
Zn465 O474 1.977 . S
Zn465 O475 1.910 . S
O466 Zn463 1.933 . S
O466 C477 1.226 . S
O467 Zn465 1.932 . S
O467 C477 1.307 . S
O468 Zn461 1.919 . S
O468 C479 1.253 . S
O469 Zn463 1.941 . S
O469 C479 1.283 . S
O470 Zn463 1.965 . S
O470 C478 1.303 . S
O471 Zn464 1.938 . S
O471 C478 1.247 . S
O472 Zn464 1.906 . S
O472 C480 1.304 . S
O473 Zn461 1.924 . S
O473 C481 1.311 . S
O474 Zn465 1.977 . S
O474 C480 1.272 . S
O475 Zn465 1.910 . S
O475 C481 1.231 . S
C476 O460 1.225 . S
C476 O482 1.298 . S
C477 O466 1.226 . S
C477 O467 1.307 . S
C478 O470 1.303 . S
C478 O471 1.247 . S
C479 O468 1.253 . S
C479 O469 1.283 . S
C480 O472 1.304 . S
C480 O474 1.272 . S
C481 O473 1.311 . S
C481 O475 1.231 . S
O482 Zn464 1.953 . S
O482 C476 1.298 . S
O483 Zn484 1.953 1_554 S
O483 C499 1.225 . S
Zn484 O483 1.953 1_556 S
Zn484 O485 1.949 . S
Zn484 O491 1.919 . S
Zn484 O496 1.924 . S
O485 Zn484 1.949 . S
O485 Zn486 1.923 . S
O485 Zn487 1.950 . S
O485 Zn488 1.945 . S
Zn486 O485 1.923 . S
Zn486 O489 1.933 . S
Zn486 O492 1.941 . S
Zn486 O493 1.965 . S
Zn487 O485 1.950 . S
Zn487 O494 1.938 . S
Zn487 O495 1.906 . S
Zn487 O505 1.953 . S
Zn488 O485 1.945 . S
Zn488 O490 1.932 . S
Zn488 O497 1.977 . S
Zn488 O498 1.910 . S
O489 Zn486 1.933 . S
O489 C500 1.226 . S
O490 Zn488 1.932 . S
O490 C500 1.307 . S
O491 Zn484 1.919 . S
O491 C502 1.253 . S
O492 Zn486 1.941 . S
O492 C502 1.283 . S
O493 Zn486 1.965 . S
O493 C501 1.303 . S
O494 Zn487 1.938 . S
O494 C501 1.247 . S
O495 Zn487 1.906 . S
O495 C503 1.304 . S
O496 Zn484 1.924 . S
O496 C504 1.311 . S
O497 Zn488 1.977 . S
O497 C503 1.272 . S
O498 Zn488 1.910 . S
O498 C504 1.231 . S
C499 O483 1.225 . S
C499 O505 1.298 1_554 S
C500 O489 1.226 . S
C500 O490 1.307 . S
C501 O493 1.303 . S
C501 O494 1.247 . S
C502 O491 1.253 . S
C502 O492 1.283 . S
C503 O495 1.304 . S
C503 O497 1.272 . S
C504 O496 1.311 . S
C504 O498 1.231 . S
O505 Zn487 1.953 . S
O505 C499 1.298 1_556 S
O506 Zn507 1.953 1_554 S
O506 C522 1.225 . S
Zn507 O506 1.953 1_556 S
Zn507 O508 1.949 . S
Zn507 O514 1.919 . S
Zn507 O519 1.924 . S
O508 Zn507 1.949 . S
O508 Zn509 1.923 . S
O508 Zn510 1.950 . S
O508 Zn511 1.945 . S
Zn509 O508 1.923 . S
Zn509 O512 1.933 . S
Zn509 O515 1.941 . S
Zn509 O516 1.965 . S
Zn510 O508 1.950 . S
Zn510 O517 1.938 . S
Zn510 O518 1.906 . S
Zn510 O528 1.953 . S
Zn511 O508 1.945 . S
Zn511 O513 1.932 . S
Zn511 O520 1.977 . S
Zn511 O521 1.910 . S
O512 Zn509 1.933 . S
O512 C523 1.226 . S
O513 Zn511 1.932 . S
O513 C523 1.307 . S
O514 Zn507 1.919 . S
O514 C525 1.253 . S
O515 Zn509 1.941 . S
O515 C525 1.283 . S
O516 Zn509 1.965 . S
O516 C524 1.303 . S
O517 Zn510 1.938 . S
O517 C524 1.247 . S
O518 Zn510 1.906 . S
O518 C526 1.304 . S
O519 Zn507 1.924 . S
O519 C527 1.311 . S
O520 Zn511 1.977 . S
O520 C526 1.272 . S
O521 Zn511 1.910 . S
O521 C527 1.231 . S
C522 O506 1.225 . S
C522 O528 1.298 1_554 S
C523 O512 1.226 . S
C523 O513 1.307 . S
C524 O516 1.303 . S
C524 O517 1.247 . S
C525 O514 1.253 . S
C525 O515 1.283 . S
C526 O518 1.304 . S
C526 O520 1.272 . S
C527 O519 1.311 . S
C527 O521 1.231 . S
O528 Zn510 1.953 . S
O528 C522 1.298 1_556 S
O529 Zn530 1.953 1_554 S
O529 C545 1.225 . S
Zn530 O529 1.953 1_556 S
Zn530 O531 1.949 . S
Zn530 O537 1.919 . S
Zn530 O542 1.924 . S
O531 Zn530 1.949 . S
O531 Zn532 1.923 . S
O531 Zn533 1.950 . S
O531 Zn534 1.945 . S
Zn532 O531 1.923 . S
Zn532 O535 1.933 . S
Zn532 O538 1.941 . S
Zn532 O539 1.965 . S
Zn533 O531 1.950 . S
Zn533 O540 1.938 . S
Zn533 O541 1.906 . S
Zn533 O551 1.953 . S
Zn534 O531 1.945 . S
Zn534 O536 1.932 . S
Zn534 O543 1.977 . S
Zn534 O544 1.910 . S
O535 Zn532 1.933 . S
O535 C546 1.226 . S
O536 Zn534 1.932 . S
O536 C546 1.307 . S
O537 Zn530 1.919 . S
O537 C548 1.253 . S
O538 Zn532 1.941 . S
O538 C548 1.283 . S
O539 Zn532 1.965 . S
O539 C547 1.303 . S
O540 Zn533 1.938 . S
O540 C547 1.247 . S
O541 Zn533 1.906 . S
O541 C549 1.304 . S
O542 Zn530 1.924 . S
O542 C550 1.311 . S
O543 Zn534 1.977 . S
O543 C549 1.272 . S
O544 Zn534 1.910 . S
O544 C550 1.231 . S
C545 O529 1.225 . S
C545 O551 1.298 1_554 S
C546 O535 1.226 . S
C546 O536 1.307 . S
C547 O539 1.303 . S
C547 O540 1.247 . S
C548 O537 1.253 . S
C548 O538 1.283 . S
C549 O541 1.304 . S
C549 O543 1.272 . S
C550 O542 1.311 . S
C550 O544 1.231 . S
O551 Zn533 1.953 . S
O551 C545 1.298 1_556 S
O552 Zn553 1.953 . S
O552 C568 1.225 . S
Zn553 O552 1.953 . S
Zn553 O554 1.949 . S
Zn553 O560 1.919 . S
Zn553 O565 1.924 . S
O554 Zn553 1.949 . S
O554 Zn555 1.923 . S
O554 Zn556 1.950 . S
O554 Zn557 1.945 . S
Zn555 O554 1.923 . S
Zn555 O558 1.933 . S
Zn555 O561 1.941 . S
Zn555 O562 1.965 . S
Zn556 O554 1.950 . S
Zn556 O563 1.938 . S
Zn556 O564 1.906 . S
Zn556 O574 1.953 . S
Zn557 O554 1.945 . S
Zn557 O559 1.932 . S
Zn557 O566 1.977 . S
Zn557 O567 1.910 . S
O558 Zn555 1.933 . S
O558 C569 1.226 . S
O559 Zn557 1.932 . S
O559 C569 1.307 . S
O560 Zn553 1.919 . S
O560 C571 1.253 . S
O561 Zn555 1.941 . S
O561 C571 1.283 . S
O562 Zn555 1.965 . S
O562 C570 1.303 . S
O563 Zn556 1.938 . S
O563 C570 1.247 . S
O564 Zn556 1.906 . S
O564 C572 1.304 . S
O565 Zn553 1.924 . S
O565 C573 1.311 . S
O566 Zn557 1.977 . S
O566 C572 1.272 . S
O567 Zn557 1.910 . S
O567 C573 1.231 . S
C568 O552 1.225 . S
C568 O574 1.298 . S
C569 O558 1.226 . S
C569 O559 1.307 . S
C570 O562 1.303 . S
C570 O563 1.247 . S
C571 O560 1.253 . S
C571 O561 1.283 . S
C572 O564 1.304 . S
C572 O566 1.272 . S
C573 O565 1.311 . S
C573 O567 1.231 . S
O574 Zn556 1.953 . S
O574 C568 1.298 . S
O575 Zn576 1.953 . S
O575 C591 1.225 . S
Zn576 O575 1.953 . S
Zn576 O577 1.949 . S
Zn576 O583 1.919 . S
Zn576 O588 1.924 . S
O577 Zn576 1.949 . S
O577 Zn578 1.923 . S
O577 Zn579 1.950 . S
O577 Zn580 1.945 . S
Zn578 O577 1.923 . S
Zn578 O581 1.933 . S
Zn578 O584 1.941 . S
Zn578 O585 1.965 . S
Zn579 O577 1.950 . S
Zn579 O586 1.938 . S
Zn579 O587 1.906 . S
Zn579 O597 1.953 . S
Zn580 O577 1.945 . S
Zn580 O582 1.932 . S
Zn580 O589 1.977 . S
Zn580 O590 1.910 . S
O581 Zn578 1.933 . S
O581 C592 1.226 . S
O582 Zn580 1.932 . S
O582 C592 1.307 . S
O583 Zn576 1.919 . S
O583 C594 1.253 . S
O584 Zn578 1.941 . S
O584 C594 1.283 . S
O585 Zn578 1.965 . S
O585 C593 1.303 . S
O586 Zn579 1.938 . S
O586 C593 1.247 . S
O587 Zn579 1.906 . S
O587 C595 1.304 . S
O588 Zn576 1.924 . S
O588 C596 1.311 . S
O589 Zn580 1.977 . S
O589 C595 1.272 . S
O590 Zn580 1.910 . S
O590 C596 1.231 . S
C591 O575 1.225 . S
C591 O597 1.298 . S
C592 O581 1.226 . S
C592 O582 1.307 . S
C593 O585 1.303 . S
C593 O586 1.247 . S
C594 O583 1.253 . S
C594 O584 1.283 . S
C595 O587 1.304 . S
C595 O589 1.272 . S
C596 O588 1.311 . S
C596 O590 1.231 . S
O597 Zn579 1.953 . S
O597 C591 1.298 . S
O598 Zn599 1.953 . S
O598 C614 1.225 . S
Zn599 O598 1.953 . S
Zn599 O600 1.949 . S
Zn599 O606 1.919 . S
Zn599 O611 1.924 . S
O600 Zn599 1.949 . S
O600 Zn601 1.923 . S
O600 Zn602 1.950 . S
O600 Zn603 1.945 . S
Zn601 O600 1.923 . S
Zn601 O604 1.933 . S
Zn601 O607 1.941 . S
Zn601 O608 1.965 . S
Zn602 O600 1.950 . S
Zn602 O609 1.938 . S
Zn602 O610 1.906 . S
Zn602 O620 1.953 . S
Zn603 O600 1.945 . S
Zn603 O605 1.932 . S
Zn603 O612 1.977 . S
Zn603 O613 1.910 . S
O604 Zn601 1.933 . S
O604 C615 1.226 . S
O605 Zn603 1.932 . S
O605 C615 1.307 . S
O606 Zn599 1.919 . S
O606 C617 1.253 . S
O607 Zn601 1.941 . S
O607 C617 1.283 . S
O608 Zn601 1.965 . S
O608 C616 1.303 . S
O609 Zn602 1.938 . S
O609 C616 1.247 . S
O610 Zn602 1.906 . S
O610 C618 1.304 . S
O611 Zn599 1.924 . S
O611 C619 1.311 . S
O612 Zn603 1.977 . S
O612 C618 1.272 . S
O613 Zn603 1.910 . S
O613 C619 1.231 . S
C614 O598 1.225 . S
C614 O620 1.298 . S
C615 O604 1.226 . S
C615 O605 1.307 . S
C616 O608 1.303 . S
C616 O609 1.247 . S
C617 O606 1.253 . S
C617 O607 1.283 . S
C618 O610 1.304 . S
C618 O612 1.272 . S
C619 O611 1.311 . S
C619 O613 1.231 . S
O620 Zn602 1.953 . S
O620 C614 1.298 . S
O621 Zn622 1.953 1_556 S
O621 C637 1.225 . S
Zn622 O621 1.953 1_554 S
Zn622 O623 1.949 . S
Zn622 O629 1.919 . S
Zn622 O634 1.924 . S
O623 Zn622 1.949 . S
O623 Zn624 1.923 . S
O623 Zn625 1.950 . S
O623 Zn626 1.945 . S
Zn624 O623 1.923 . S
Zn624 O627 1.933 . S
Zn624 O630 1.941 . S
Zn624 O631 1.965 . S
Zn625 O623 1.950 . S
Zn625 O632 1.938 . S
Zn625 O633 1.906 . S
Zn625 O643 1.953 . S
Zn626 O623 1.945 . S
Zn626 O628 1.932 . S
Zn626 O635 1.977 . S
Zn626 O636 1.910 . S
O627 Zn624 1.933 . S
O627 C638 1.226 . S
O628 Zn626 1.932 . S
O628 C638 1.307 . S
O629 Zn622 1.919 . S
O629 C640 1.253 . S
O630 Zn624 1.941 . S
O630 C640 1.283 . S
O631 Zn624 1.965 . S
O631 C639 1.303 . S
O632 Zn625 1.938 . S
O632 C639 1.247 . S
O633 Zn625 1.906 . S
O633 C641 1.304 . S
O634 Zn622 1.924 . S
O634 C642 1.311 . S
O635 Zn626 1.977 . S
O635 C641 1.272 . S
O636 Zn626 1.910 . S
O636 C642 1.231 . S
C637 O621 1.225 . S
C637 O643 1.298 1_556 S
C638 O627 1.226 . S
C638 O628 1.307 . S
C639 O631 1.303 . S
C639 O632 1.247 . S
C640 O629 1.253 . S
C640 O630 1.283 . S
C641 O633 1.304 . S
C641 O635 1.272 . S
C642 O634 1.311 . S
C642 O636 1.231 . S
O643 Zn625 1.953 . S
O643 C637 1.298 1_554 S
O644 Zn645 1.953 1_556 S
O644 C660 1.225 . S
Zn645 O644 1.953 1_554 S
Zn645 O646 1.949 . S
Zn645 O652 1.919 . S
Zn645 O657 1.924 . S
O646 Zn645 1.949 . S
O646 Zn647 1.923 . S
O646 Zn648 1.950 . S
O646 Zn649 1.945 . S
Zn647 O646 1.923 . S
Zn647 O650 1.933 . S
Zn647 O653 1.941 . S
Zn647 O654 1.965 . S
Zn648 O646 1.950 . S
Zn648 O655 1.938 . S
Zn648 O656 1.906 . S
Zn648 O666 1.953 . S
Zn649 O646 1.945 . S
Zn649 O651 1.932 . S
Zn649 O658 1.977 . S
Zn649 O659 1.910 . S
O650 Zn647 1.933 . S
O650 C661 1.226 . S
O651 Zn649 1.932 . S
O651 C661 1.307 . S
O652 Zn645 1.919 . S
O652 C663 1.253 . S
O653 Zn647 1.941 . S
O653 C663 1.283 . S
O654 Zn647 1.965 . S
O654 C662 1.303 . S
O655 Zn648 1.938 . S
O655 C662 1.247 . S
O656 Zn648 1.906 . S
O656 C664 1.304 . S
O657 Zn645 1.924 . S
O657 C665 1.311 . S
O658 Zn649 1.977 . S
O658 C664 1.272 . S
O659 Zn649 1.910 . S
O659 C665 1.231 . S
C660 O644 1.225 . S
C660 O666 1.298 1_556 S
C661 O650 1.226 . S
C661 O651 1.307 . S
C662 O654 1.303 . S
C662 O655 1.247 . S
C663 O652 1.253 . S
C663 O653 1.283 . S
C664 O656 1.304 . S
C664 O658 1.272 . S
C665 O657 1.311 . S
C665 O659 1.231 . S
O666 Zn648 1.953 . S
O666 C660 1.298 1_554 S
O667 Zn668 1.953 1_556 S
O667 C683 1.225 . S
Zn668 O667 1.953 1_554 S
Zn668 O669 1.949 . S
Zn668 O675 1.919 . S
Zn668 O680 1.924 . S
O669 Zn668 1.949 . S
O669 Zn670 1.923 . S
O669 Zn671 1.950 . S
O669 Zn672 1.945 . S
Zn670 O669 1.923 . S
Zn670 O673 1.933 . S
Zn670 O676 1.941 . S
Zn670 O677 1.965 . S
Zn671 O669 1.950 . S
Zn671 O678 1.938 . S
Zn671 O679 1.906 . S
Zn671 O689 1.953 . S
Zn672 O669 1.945 . S
Zn672 O674 1.932 . S
Zn672 O681 1.977 . S
Zn672 O682 1.910 . S
O673 Zn670 1.933 . S
O673 C684 1.226 . S
O674 Zn672 1.932 . S
O674 C684 1.307 . S
O675 Zn668 1.919 . S
O675 C686 1.253 . S
O676 Zn670 1.941 . S
O676 C686 1.283 . S
O677 Zn670 1.965 . S
O677 C685 1.303 . S
O678 Zn671 1.938 . S
O678 C685 1.247 . S
O679 Zn671 1.906 . S
O679 C687 1.304 . S
O680 Zn668 1.924 . S
O680 C688 1.311 . S
O681 Zn672 1.977 . S
O681 C687 1.272 . S
O682 Zn672 1.910 . S
O682 C688 1.231 . S
C683 O667 1.225 . S
C683 O689 1.298 1_556 S
C684 O673 1.226 . S
C684 O674 1.307 . S
C685 O677 1.303 . S
C685 O678 1.247 . S
C686 O675 1.253 . S
C686 O676 1.283 . S
C687 O679 1.304 . S
C687 O681 1.272 . S
C688 O680 1.311 . S
C688 O682 1.231 . S
O689 Zn671 1.953 . S
O689 C683 1.298 1_554 S
O690 Zn691 1.953 . S
O690 C706 1.225 . S
Zn691 O690 1.953 . S
Zn691 O692 1.949 . S
Zn691 O698 1.919 . S
Zn691 O703 1.924 . S
O692 Zn691 1.949 . S
O692 Zn693 1.923 . S
O692 Zn694 1.950 . S
O692 Zn695 1.945 . S
Zn693 O692 1.923 . S
Zn693 O696 1.933 . S
Zn693 O699 1.941 . S
Zn693 O700 1.965 . S
Zn694 O692 1.950 . S
Zn694 O701 1.938 . S
Zn694 O702 1.906 . S
Zn694 O712 1.953 . S
Zn695 O692 1.945 . S
Zn695 O697 1.932 . S
Zn695 O704 1.977 . S
Zn695 O705 1.910 . S
O696 Zn693 1.933 . S
O696 C707 1.226 . S
O697 Zn695 1.932 . S
O697 C707 1.307 . S
O698 Zn691 1.919 . S
O698 C709 1.253 . S
O699 Zn693 1.941 . S
O699 C709 1.283 . S
O700 Zn693 1.965 . S
O700 C708 1.303 . S
O701 Zn694 1.938 . S
O701 C708 1.247 . S
O702 Zn694 1.906 . S
O702 C710 1.304 . S
O703 Zn691 1.924 . S
O703 C711 1.311 . S
O704 Zn695 1.977 . S
O704 C710 1.272 . S
O705 Zn695 1.910 . S
O705 C711 1.231 . S
C706 O690 1.225 . S
C706 O712 1.298 . S
C707 O696 1.226 . S
C707 O697 1.307 . S
C708 O700 1.303 . S
C708 O701 1.247 . S
C709 O698 1.253 . S
C709 O699 1.283 . S
C710 O702 1.304 . S
C710 O704 1.272 . S
C711 O703 1.311 . S
C711 O705 1.231 . S
O712 Zn694 1.953 . S
O712 C706 1.298 . S
O713 Zn714 1.953 . S
O713 C729 1.225 . S
Zn714 O713 1.953 . S
Zn714 O715 1.949 . S
Zn714 O721 1.919 . S
Zn714 O726 1.924 . S
O715 Zn714 1.949 . S
O715 Zn716 1.923 . S
O715 Zn717 1.950 . S
O715 Zn718 1.945 . S
Zn716 O715 1.923 . S
Zn716 O719 1.933 . S
Zn716 O722 1.941 . S
Zn716 O723 1.965 . S
Zn717 O715 1.950 . S
Zn717 O724 1.938 . S
Zn717 O725 1.906 . S
Zn717 O735 1.953 . S
Zn718 O715 1.945 . S
Zn718 O720 1.932 . S
Zn718 O727 1.977 . S
Zn718 O728 1.910 . S
O719 Zn716 1.933 . S
O719 C730 1.226 . S
O720 Zn718 1.932 . S
O720 C730 1.307 . S
O721 Zn714 1.919 . S
O721 C732 1.253 . S
O722 Zn716 1.941 . S
O722 C732 1.283 . S
O723 Zn716 1.965 . S
O723 C731 1.303 . S
O724 Zn717 1.938 . S
O724 C731 1.247 . S
O725 Zn717 1.906 . S
O725 C733 1.304 . S
O726 Zn714 1.924 . S
O726 C734 1.311 . S
O727 Zn718 1.977 . S
O727 C733 1.272 . S
O728 Zn718 1.910 . S
O728 C734 1.231 . S
C729 O713 1.225 . S
C729 O735 1.298 . S
C730 O719 1.226 . S
C730 O720 1.307 . S
C731 O723 1.303 . S
C731 O724 1.247 . S
C732 O721 1.253 . S
C732 O722 1.283 . S
C733 O725 1.304 . S
C733 O727 1.272 . S
C734 O726 1.311 . S
C734 O728 1.231 . S
O735 Zn717 1.953 . S
O735 C729 1.298 . S
O736 Zn737 1.953 . S
O736 C752 1.225 . S
Zn737 O736 1.953 . S
Zn737 O738 1.949 . S
Zn737 O744 1.919 . S
Zn737 O749 1.924 . S
O738 Zn737 1.949 . S
O738 Zn739 1.923 . S
O738 Zn740 1.950 . S
O738 Zn741 1.945 . S
Zn739 O738 1.923 . S
Zn739 O742 1.933 . S
Zn739 O745 1.941 . S
Zn739 O746 1.965 . S
Zn740 O738 1.950 . S
Zn740 O747 1.938 . S
Zn740 O748 1.906 . S
Zn740 O758 1.953 . S
Zn741 O738 1.945 . S
Zn741 O743 1.932 . S
Zn741 O750 1.977 . S
Zn741 O751 1.910 . S
O742 Zn739 1.933 . S
O742 C753 1.226 . S
O743 Zn741 1.932 . S
O743 C753 1.307 . S
O744 Zn737 1.919 . S
O744 C755 1.253 . S
O745 Zn739 1.941 . S
O745 C755 1.283 . S
O746 Zn739 1.965 . S
O746 C754 1.303 . S
O747 Zn740 1.938 . S
O747 C754 1.247 . S
O748 Zn740 1.906 . S
O748 C756 1.304 . S
O749 Zn737 1.924 . S
O749 C757 1.311 . S
O750 Zn741 1.977 . S
O750 C756 1.272 . S
O751 Zn741 1.910 . S
O751 C757 1.231 . S
C752 O736 1.225 . S
C752 O758 1.298 . S
C753 O742 1.226 . S
C753 O743 1.307 . S
C754 O746 1.303 . S
C754 O747 1.247 . S
C755 O744 1.253 . S
C755 O745 1.283 . S
C756 O748 1.304 . S
C756 O750 1.272 . S
C757 O749 1.311 . S
C757 O751 1.231 . S
O758 Zn740 1.953 . S
O758 C752 1.298 . S
O759 Zn760 1.953 . S
O759 C775 1.225 . S
Zn760 O759 1.953 . S
Zn760 O761 1.949 . S
Zn760 O767 1.919 . S
Zn760 O772 1.924 . S
O761 Zn760 1.949 . S
O761 Zn762 1.923 . S
O761 Zn763 1.950 . S
O761 Zn764 1.945 . S
Zn762 O761 1.923 . S
Zn762 O765 1.933 . S
Zn762 O768 1.941 . S
Zn762 O769 1.965 . S
Zn763 O761 1.950 . S
Zn763 O770 1.938 . S
Zn763 O771 1.906 . S
Zn763 O781 1.953 . S
Zn764 O761 1.945 . S
Zn764 O766 1.932 . S
Zn764 O773 1.977 . S
Zn764 O774 1.910 . S
O765 Zn762 1.933 . S
O765 C776 1.226 . S
O766 Zn764 1.932 . S
O766 C776 1.307 . S
O767 Zn760 1.919 . S
O767 C778 1.253 . S
O768 Zn762 1.941 . S
O768 C778 1.283 . S
O769 Zn762 1.965 . S
O769 C777 1.303 . S
O770 Zn763 1.938 . S
O770 C777 1.247 . S
O771 Zn763 1.906 . S
O771 C779 1.304 . S
O772 Zn760 1.924 . S
O772 C780 1.311 . S
O773 Zn764 1.977 . S
O773 C779 1.272 . S
O774 Zn764 1.910 . S
O774 C780 1.231 . S
C775 O759 1.225 . S
C775 O781 1.298 . S
C776 O765 1.226 . S
C776 O766 1.307 . S
C777 O769 1.303 . S
C777 O770 1.247 . S
C778 O767 1.253 . S
C778 O768 1.283 . S
C779 O771 1.304 . S
C779 O773 1.272 . S
C780 O772 1.311 . S
C780 O774 1.231 . S
O781 Zn763 1.953 . S
O781 C775 1.298 . S
O782 Zn783 1.953 . S
O782 C798 1.225 . S
Zn783 O782 1.953 . S
Zn783 O784 1.949 . S
Zn783 O790 1.919 . S
Zn783 O795 1.924 . S
O784 Zn783 1.949 . S
O784 Zn785 1.923 . S
O784 Zn786 1.950 . S
O784 Zn787 1.945 . S
Zn785 O784 1.923 . S
Zn785 O788 1.933 . S
Zn785 O791 1.941 . S
Zn785 O792 1.965 . S
Zn786 O784 1.950 . S
Zn786 O793 1.938 . S
Zn786 O794 1.906 . S
Zn786 O804 1.953 . S
Zn787 O784 1.945 . S
Zn787 O789 1.932 . S
Zn787 O796 1.977 . S
Zn787 O797 1.910 . S
O788 Zn785 1.933 . S
O788 C799 1.226 . S
O789 Zn787 1.932 . S
O789 C799 1.307 . S
O790 Zn783 1.919 . S
O790 C801 1.253 . S
O791 Zn785 1.941 . S
O791 C801 1.283 . S
O792 Zn785 1.965 . S
O792 C800 1.303 . S
O793 Zn786 1.938 . S
O793 C800 1.247 . S
O794 Zn786 1.906 . S
O794 C802 1.304 . S
O795 Zn783 1.924 . S
O795 C803 1.311 . S
O796 Zn787 1.977 . S
O796 C802 1.272 . S
O797 Zn787 1.910 . S
O797 C803 1.231 . S
C798 O782 1.225 . S
C798 O804 1.298 . S
C799 O788 1.226 . S
C799 O789 1.307 . S
C800 O792 1.303 . S
C800 O793 1.247 . S
C801 O790 1.253 . S
C801 O791 1.283 . S
C802 O794 1.304 . S
C802 O796 1.272 . S
C803 O795 1.311 . S
C803 O797 1.231 . S
O804 Zn786 1.953 . S
O804 C798 1.298 . S
O805 Zn806 1.953 . S
O805 C821 1.225 . S
Zn806 O805 1.953 . S
Zn806 O807 1.949 . S
Zn806 O813 1.919 . S
Zn806 O818 1.924 . S
O807 Zn806 1.949 . S
O807 Zn808 1.923 . S
O807 Zn809 1.950 . S
O807 Zn810 1.945 . S
Zn808 O807 1.923 . S
Zn808 O811 1.933 . S
Zn808 O814 1.941 . S
Zn808 O815 1.965 . S
Zn809 O807 1.950 . S
Zn809 O816 1.938 . S
Zn809 O817 1.906 . S
Zn809 O827 1.953 . S
Zn810 O807 1.945 . S
Zn810 O812 1.932 . S
Zn810 O819 1.977 . S
Zn810 O820 1.910 . S
O811 Zn808 1.933 . S
O811 C822 1.226 . S
O812 Zn810 1.932 . S
O812 C822 1.307 . S
O813 Zn806 1.919 . S
O813 C824 1.253 . S
O814 Zn808 1.941 . S
O814 C824 1.283 . S
O815 Zn808 1.965 . S
O815 C823 1.303 . S
O816 Zn809 1.938 . S
O816 C823 1.247 . S
O817 Zn809 1.906 . S
O817 C825 1.304 . S
O818 Zn806 1.924 . S
O818 C826 1.311 . S
O819 Zn810 1.977 . S
O819 C825 1.272 . S
O820 Zn810 1.910 . S
O820 C826 1.231 . S
C821 O805 1.225 . S
C821 O827 1.298 . S
C822 O811 1.226 . S
C822 O812 1.307 . S
C823 O815 1.303 . S
C823 O816 1.247 . S
C824 O813 1.253 . S
C824 O814 1.283 . S
C825 O817 1.304 . S
C825 O819 1.272 . S
C826 O818 1.311 . S
C826 O820 1.231 . S
O827 Zn809 1.953 . S
O827 C821 1.298 . S
C828 C829 1.369 1_556 S
C828 C830 1.419 . S
C828 H832 0.930 . S
C829 C828 1.369 1_554 S
C829 C838 1.429 . S
C830 C828 1.419 . S
C830 C831 1.363 . S
C830 H833 0.929 . S
C831 C830 1.363 . S
C831 C837 1.428 . S
H832 C828 0.930 . S
H833 C830 0.929 . S
S834 N835 1.613 . S
S834 N836 1.610 . S
N835 S834 1.613 . S
N835 C838 1.350 . S
N836 S834 1.610 . S
N836 C837 1.351 1_554 S
C837 C831 1.428 . S
C837 N836 1.351 1_556 S
C837 C838 1.434 1_556 S
C838 C829 1.429 . S
C838 N835 1.350 . S
C838 C837 1.434 1_554 S
C839 C840 1.376 . S
C839 C841 1.400 1_554 S
C839 H843 0.943 . S
C840 C839 1.376 . S
C840 C849 1.429 1_554 S
C841 C839 1.400 1_556 S
C841 C842 1.363 . S
C841 H844 0.929 1_565 S
C842 C841 1.363 . S
C842 C848 1.428 . S
H843 C839 0.943 . S
H844 C841 0.929 1_545 S
S845 N846 1.613 . S
S845 N847 1.610 . S
N846 S845 1.613 . S
N846 C849 1.350 . S
N847 S845 1.610 . S
N847 C848 1.351 . S
C848 C842 1.428 . S
C848 N847 1.351 . S
C848 C849 1.434 . S
C849 C840 1.429 1_556 S
C849 N846 1.350 . S
C849 C848 1.434 . S
C850 C851 1.369 . S
C850 C852 1.419 1_554 S
C850 H854 0.930 . S
C851 C850 1.369 . S
C851 C860 1.429 1_554 S
C852 C850 1.419 1_556 S
C852 C853 1.363 . S
C852 H855 0.929 1_556 S
C853 C852 1.363 . S
C853 C859 1.428 . S
H854 C850 0.930 . S
H855 C852 0.929 1_554 S
S856 N857 1.613 . S
S856 N858 1.610 . S
N857 S856 1.613 . S
N857 C860 1.350 . S
N858 S856 1.610 . S
N858 C859 1.351 . S
C859 C853 1.428 . S
C859 N858 1.351 . S
C859 C860 1.434 . S
C860 C851 1.429 1_556 S
C860 N857 1.350 . S
C860 C859 1.434 . S
C861 C862 1.369 . S
C861 C863 1.419 . S
C861 H865 0.930 . S
C862 C861 1.369 . S
C862 C871 1.429 . S
C863 C861 1.419 . S
C863 C864 1.363 . S
C863 H866 0.929 . S
C864 C863 1.363 . S
C864 C870 1.428 . S
H865 C861 0.930 . S
H866 C863 0.929 . S
S867 N868 1.613 . S
S867 N869 1.610 . S
N868 S867 1.613 . S
N868 C871 1.350 . S
N869 S867 1.610 . S
N869 C870 1.351 . S
C870 C864 1.428 . S
C870 N869 1.351 . S
C870 C871 1.434 . S
C871 C862 1.429 . S
C871 N868 1.350 . S
C871 C870 1.434 . S
C872 C873 1.369 . S
C872 C874 1.419 . S
C872 H876 0.930 . S
C873 C872 1.369 . S
C873 C882 1.429 . S
C874 C872 1.419 . S
C874 C875 1.363 . S
C874 H877 0.929 . S
C875 C874 1.363 . S
C875 C881 1.428 . S
H876 C872 0.930 . S
H877 C874 0.929 . S
S878 N879 1.613 . S
S878 N880 1.610 . S
N879 S878 1.613 . S
N879 C882 1.350 . S
N880 S878 1.610 . S
N880 C881 1.351 . S
C881 C875 1.428 . S
C881 N880 1.351 . S
C881 C882 1.434 . S
C882 C873 1.429 . S
C882 N879 1.350 . S
C882 C881 1.434 . S
C883 C884 1.369 . S
C883 C885 1.419 . S
C883 H887 0.930 . S
C884 C883 1.369 . S
C884 C893 1.429 . S
C885 C883 1.419 . S
C885 C886 1.363 . S
C885 H888 0.929 . S
C886 C885 1.363 . S
C886 C892 1.428 . S
H887 C883 0.930 . S
H888 C885 0.929 . S
S889 N890 1.613 . S
S889 N891 1.610 . S
N890 S889 1.613 . S
N890 C893 1.350 . S
N891 S889 1.610 . S
N891 C892 1.351 . S
C892 C886 1.428 . S
C892 N891 1.351 . S
C892 C893 1.434 . S
C893 C884 1.429 . S
C893 N890 1.350 . S
C893 C892 1.434 . S
C894 C895 1.369 . S
C894 C896 1.419 1_554 S
C894 H898 0.930 1_554 S
C895 C894 1.369 . S
C895 C904 1.429 . S
C896 C894 1.419 1_556 S
C896 C897 1.363 . S
C896 H899 0.929 . S
C897 C896 1.363 . S
C897 C903 1.428 1_556 S
H898 C894 0.930 1_556 S
H899 C896 0.929 . S
S900 N901 1.613 . S
S900 N902 1.610 . S
N901 S900 1.613 . S
N901 C904 1.350 . S
N902 S900 1.610 . S
N902 C903 1.351 . S
C903 C897 1.428 1_554 S
C903 N902 1.351 . S
C903 C904 1.434 . S
C904 C895 1.429 . S
C904 N901 1.350 . S
C904 C903 1.434 . S
C905 C906 1.369 1_554 S
C905 C907 1.419 . S
C905 H909 0.930 . S
C906 C905 1.369 1_556 S
C906 C915 1.429 . S
C907 C905 1.419 . S
C907 C908 1.363 . S
C907 H910 0.929 . S
C908 C907 1.363 . S
C908 C914 1.419 1_554 S
H909 C905 0.930 . S
H910 C907 0.929 . S
S911 N912 1.613 . S
S911 N913 1.610 . S
N912 S911 1.613 . S
N912 C915 1.350 . S
N913 S911 1.610 . S
N913 C914 1.356 . S
C914 C908 1.419 1_556 S
C914 N913 1.356 . S
C914 C915 1.440 . S
C915 C906 1.429 . S
C915 N912 1.350 . S
C915 C914 1.440 . S
C916 C917 1.369 . S
C916 C918 1.419 1_556 S
C916 H920 0.930 . S
C917 C916 1.369 . S
C917 C926 1.429 1_556 S
C918 C916 1.419 1_554 S
C918 C919 1.363 . S
C918 H921 0.929 1_655 S
C919 C918 1.363 . S
C919 C925 1.428 . S
H920 C916 0.930 . S
H921 C918 0.929 1_455 S
S922 N923 1.613 . S
S922 N924 1.610 . S
N923 S922 1.613 . S
N923 C926 1.350 . S
N924 S922 1.610 . S
N924 C925 1.351 . S
C925 C919 1.428 . S
C925 N924 1.351 . S
C925 C926 1.434 . S
C926 C917 1.429 1_554 S
C926 N923 1.350 . S
C926 C925 1.434 . S
C927 C928 1.369 . S
C927 C929 1.419 . S
C927 H931 0.930 . S
C928 C927 1.369 . S
C928 C937 1.429 . S
C929 C927 1.419 . S
C929 C930 1.363 . S
C929 H932 0.929 . S
C930 C929 1.363 . S
C930 C936 1.428 . S
H931 C927 0.930 . S
H932 C929 0.929 . S
S933 N934 1.613 . S
S933 N935 1.610 . S
N934 S933 1.613 . S
N934 C937 1.350 . S
N935 S933 1.610 . S
N935 C936 1.351 . S
C936 C930 1.428 . S
C936 N935 1.351 . S
C936 C937 1.434 . S
C937 C928 1.429 . S
C937 N934 1.350 . S
C937 C936 1.434 . S
C938 C939 1.369 . S
C938 C940 1.419 . S
C938 H942 0.930 . S
C939 C938 1.369 . S
C939 C948 1.429 . S
C940 C938 1.419 . S
C940 C941 1.363 . S
C940 H943 0.929 1_565 S
C941 C940 1.363 . S
C941 C947 1.428 . S
H942 C938 0.930 . S
H943 C940 0.929 1_545 S
S944 N945 1.613 . S
S944 N946 1.610 . S
N945 S944 1.613 . S
N945 C948 1.350 . S
N946 S944 1.610 . S
N946 C947 1.351 . S
C947 C941 1.428 . S
C947 N946 1.351 . S
C947 C948 1.434 . S
C948 C939 1.429 . S
C948 N945 1.350 . S
C948 C947 1.434 . S
C949 C950 1.369 . S
C949 C951 1.419 . S
C949 H953 0.930 . S
C950 C949 1.369 . S
C950 C959 1.429 . S
C951 C949 1.419 . S
C951 C952 1.363 . S
C951 H954 0.929 1_455 S
C952 C951 1.363 . S
C952 C958 1.428 . S
H953 C949 0.930 . S
H954 C951 0.929 1_655 S
S955 N956 1.613 . S
S955 N957 1.610 . S
N956 S955 1.613 . S
N956 C959 1.350 . S
N957 S955 1.610 . S
N957 C958 1.351 . S
C958 C952 1.428 . S
C958 N957 1.351 . S
C958 C959 1.434 . S
C959 C950 1.429 . S
C959 N956 1.350 . S
C959 C958 1.434 . S
C960 C961 1.369 . S
C960 C962 1.419 . S
C960 H964 0.930 . S
C961 C960 1.369 . S
C961 C970 1.429 . S
C962 C960 1.419 . S
C962 C963 1.363 . S
C962 H965 0.929 . S
C963 C962 1.363 . S
C963 C969 1.428 . S
H964 C960 0.930 . S
H965 C962 0.929 . S
S966 N967 1.613 . S
S966 N968 1.610 . S
N967 S966 1.613 . S
N967 C970 1.350 . S
N968 S966 1.610 . S
N968 C969 1.351 . S
C969 C963 1.428 . S
C969 N968 1.351 . S
C969 C970 1.434 . S
C970 C961 1.429 . S
C970 N967 1.350 . S
C970 C969 1.434 . S
C971 C972 1.369 . S
C971 C973 1.419 . S
C971 H975 0.930 . S
C972 C971 1.369 . S
C972 C981 1.429 . S
C973 C971 1.419 . S
C973 C974 1.363 . S
C973 H976 0.929 . S
C974 C973 1.363 . S
C974 C980 1.428 . S
H975 C971 0.930 . S
H976 C973 0.929 . S
S977 N978 1.613 . S
S977 N979 1.610 . S
N978 S977 1.613 . S
N978 C981 1.350 . S
N979 S977 1.610 . S
N979 C980 1.351 . S
C980 C974 1.428 . S
C980 N979 1.351 . S
C980 C981 1.434 . S
C981 C972 1.429 . S
C981 N978 1.350 . S
C981 C980 1.434 . S
C982 C983 1.369 . S
C982 C984 1.419 . S
C982 H986 0.930 . S
C983 C982 1.369 . S
C983 C992 1.429 . S
C984 C982 1.419 . S
C984 C985 1.363 . S
C984 H987 0.929 . S
C985 C984 1.363 . S
C985 C991 1.428 . S
H986 C982 0.930 . S
H987 C984 0.929 . S
S988 N989 1.613 . S
S988 N990 1.610 . S
N989 S988 1.613 . S
N989 C992 1.350 . S
N990 S988 1.610 . S
N990 C991 1.351 . S
C991 C985 1.428 . S
C991 N990 1.351 . S
C991 C992 1.434 . S
C992 C983 1.429 . S
C992 N989 1.350 . S
C992 C991 1.434 . S
C993 C994 1.369 . S
C993 C995 1.419 . S
C993 H997 0.930 . S
C994 C993 1.369 . S
C994 C1003 1.429 . S
C995 C993 1.419 . S
C995 C996 1.363 . S
C995 H998 0.929 . S
C996 C995 1.363 . S
C996 C1002 1.428 . S
H997 C993 0.930 . S
H998 C995 0.929 . S
S999 N1000 1.613 . S
S999 N1001 1.610 . S
N1000 S999 1.613 . S
N1000 C1003 1.350 . S
N1001 S999 1.610 . S
N1001 C1002 1.351 . S
C1002 C996 1.428 . S
C1002 N1001 1.351 . S
C1002 C1003 1.434 . S
C1003 C994 1.429 . S
C1003 N1000 1.350 . S
C1003 C1002 1.434 . S
C1004 C1005 1.369 . S
C1004 C1006 1.419 . S
C1004 H1008 0.930 . S
C1005 C1004 1.369 . S
C1005 C1014 1.429 . S
C1006 C1004 1.419 . S
C1006 C1007 1.363 . S
C1006 H1009 0.929 . S
C1007 C1006 1.363 . S
C1007 C1013 1.428 . S
H1008 C1004 0.930 . S
H1009 C1006 0.929 . S
S1010 N1011 1.613 . S
S1010 N1012 1.610 . S
N1011 S1010 1.613 . S
N1011 C1014 1.350 . S
N1012 S1010 1.610 . S
N1012 C1013 1.351 . S
C1013 C1007 1.428 . S
C1013 N1012 1.351 . S
C1013 C1014 1.434 . S
C1014 C1005 1.429 . S
C1014 N1011 1.350 . S
C1014 C1013 1.434 . S
C1015 C1016 1.369 . S
C1015 C1017 1.419 . S
C1015 H1019 0.930 . S
C1016 C1015 1.369 . S
C1016 C1025 1.429 . S
C1017 C1015 1.419 . S
C1017 C1018 1.363 . S
C1017 H1020 0.929 . S
C1018 C1017 1.363 . S
C1018 C1024 1.428 . S
H1019 C1015 0.930 . S
H1020 C1017 0.929 . S
S1021 N1022 1.613 . S
S1021 N1023 1.610 . S
N1022 S1021 1.613 . S
N1022 C1025 1.350 . S
N1023 S1021 1.610 . S
N1023 C1024 1.351 . S
C1024 C1018 1.428 . S
C1024 N1023 1.351 . S
C1024 C1025 1.434 . S
C1025 C1016 1.429 . S
C1025 N1022 1.350 . S
C1025 C1024 1.434 . S
C1026 C1027 1.369 . S
C1026 C1028 1.419 . S
C1026 H1030 0.930 . S
C1027 C1026 1.369 . S
C1027 C1036 1.429 . S
C1028 C1026 1.419 . S
C1028 C1029 1.363 . S
C1028 H1031 0.929 . S
C1029 C1028 1.363 . S
C1029 C1035 1.428 . S
H1030 C1026 0.930 . S
H1031 C1028 0.929 . S
S1032 N1033 1.613 . S
S1032 N1034 1.610 . S
N1033 S1032 1.613 . S
N1033 C1036 1.350 . S
N1034 S1032 1.610 . S
N1034 C1035 1.351 . S
C1035 C1029 1.428 . S
C1035 N1034 1.351 . S
C1035 C1036 1.434 . S
C1036 C1027 1.429 . S
C1036 N1033 1.350 . S
C1036 C1035 1.434 . S
C1037 C1038 1.369 . S
C1037 C1039 1.419 . S
C1037 H1041 0.930 . S
C1038 C1037 1.369 . S
C1038 C1047 1.429 . S
C1039 C1037 1.419 . S
C1039 C1040 1.363 . S
C1039 H1042 0.929 . S
C1040 C1039 1.363 . S
C1040 C1046 1.428 . S
H1041 C1037 0.930 . S
H1042 C1039 0.929 . S
S1043 N1044 1.613 . S
S1043 N1045 1.610 . S
N1044 S1043 1.613 . S
N1044 C1047 1.350 . S
N1045 S1043 1.610 . S
N1045 C1046 1.351 . S
C1046 C1040 1.428 . S
C1046 N1045 1.351 . S
C1046 C1047 1.434 . S
C1047 C1038 1.429 . S
C1047 N1044 1.350 . S
C1047 C1046 1.434 . S
C1048 C1049 1.369 . S
C1048 C1050 1.419 . S
C1048 H1052 0.930 . S
C1049 C1048 1.369 . S
C1049 C1058 1.429 . S
C1050 C1048 1.419 . S
C1050 C1051 1.363 . S
C1050 H1053 0.929 . S
C1051 C1050 1.363 . S
C1051 C1057 1.428 . S
H1052 C1048 0.930 . S
H1053 C1050 0.929 . S
S1054 N1055 1.613 . S
S1054 N1056 1.610 . S
N1055 S1054 1.613 . S
N1055 C1058 1.350 . S
N1056 S1054 1.610 . S
N1056 C1057 1.351 . S
C1057 C1051 1.428 . S
C1057 N1056 1.351 . S
C1057 C1058 1.434 . S
C1058 C1049 1.429 . S
C1058 N1055 1.350 . S
C1058 C1057 1.434 . S
C1059 C1060 1.369 . S
C1059 C1061 1.419 . S
C1059 H1063 0.930 . S
C1060 C1059 1.369 . S
C1060 C1069 1.429 . S
C1061 C1059 1.419 . S
C1061 C1062 1.363 . S
C1061 H1064 0.929 . S
C1062 C1061 1.363 . S
C1062 C1068 1.428 . S
H1063 C1059 0.930 . S
H1064 C1061 0.929 . S
S1065 N1066 1.613 . S
S1065 N1067 1.610 . S
N1066 S1065 1.613 . S
N1066 C1069 1.350 . S
N1067 S1065 1.610 . S
N1067 C1068 1.351 . S
C1068 C1062 1.428 . S
C1068 N1067 1.351 . S
C1068 C1069 1.434 . S
C1069 C1060 1.429 . S
C1069 N1066 1.350 . S
C1069 C1068 1.434 . S
C1070 C1071 1.369 . S
C1070 C1072 1.419 . S
C1070 H1074 0.930 . S
C1071 C1070 1.369 . S
C1071 C1080 1.429 . S
C1072 C1070 1.419 . S
C1072 C1073 1.363 . S
C1072 H1075 0.929 . S
C1073 C1072 1.363 . S
C1073 C1079 1.428 . S
H1074 C1070 0.930 . S
H1075 C1072 0.929 . S
S1076 N1077 1.613 . S
S1076 N1078 1.610 . S
N1077 S1076 1.613 . S
N1077 C1080 1.350 . S
N1078 S1076 1.610 . S
N1078 C1079 1.351 . S
C1079 C1073 1.428 . S
C1079 N1078 1.351 . S
C1079 C1080 1.434 . S
C1080 C1071 1.429 . S
C1080 N1077 1.350 . S
C1080 C1079 1.434 . S
C1081 C1082 1.369 . S
C1081 C1083 1.419 . S
C1081 H1085 0.930 . S
C1082 C1081 1.369 . S
C1082 C1091 1.429 . S
C1083 C1081 1.419 . S
C1083 C1084 1.363 . S
C1083 H1086 0.929 . S
C1084 C1083 1.363 . S
C1084 C1090 1.428 . S
H1085 C1081 0.930 . S
H1086 C1083 0.929 . S
S1087 N1088 1.613 . S
S1087 N1089 1.610 . S
N1088 S1087 1.613 . S
N1088 C1091 1.350 . S
N1089 S1087 1.610 . S
N1089 C1090 1.351 . S
C1090 C1084 1.428 . S
C1090 N1089 1.351 . S
C1090 C1091 1.434 . S
C1091 C1082 1.429 . S
C1091 N1088 1.350 . S
C1091 C1090 1.434 . S
C1092 C1093 1.369 . S
C1092 C1094 1.419 . S
C1092 H1096 0.930 . S
C1093 C1092 1.369 . S
C1093 C1102 1.429 . S
C1094 C1092 1.419 . S
C1094 C1095 1.363 . S
C1094 H1097 0.929 . S
C1095 C1094 1.363 . S
C1095 C1101 1.428 . S
H1096 C1092 0.930 . S
H1097 C1094 0.929 . S
S1098 N1099 1.613 . S
S1098 N1100 1.610 . S
N1099 S1098 1.613 . S
N1099 C1102 1.350 . S
N1100 S1098 1.610 . S
N1100 C1101 1.351 . S
C1101 C1095 1.428 . S
C1101 N1100 1.351 . S
C1101 C1102 1.434 . S
C1102 C1093 1.429 . S
C1102 N1099 1.350 . S
C1102 C1101 1.434 . S
C1103 C1104 1.369 . S
C1103 C1105 1.419 . S
C1103 H1107 0.930 . S
C1104 C1103 1.369 . S
C1104 C1113 1.429 . S
C1105 C1103 1.419 . S
C1105 C1106 1.363 . S
C1105 H1108 0.929 . S
C1106 C1105 1.363 . S
C1106 C1112 1.428 . S
H1107 C1103 0.930 . S
H1108 C1105 0.929 . S
S1109 N1110 1.613 . S
S1109 N1111 1.610 . S
N1110 S1109 1.613 . S
N1110 C1113 1.350 . S
N1111 S1109 1.610 . S
N1111 C1112 1.351 . S
C1112 C1106 1.428 . S
C1112 N1111 1.351 . S
C1112 C1113 1.434 . S
C1113 C1104 1.429 . S
C1113 N1110 1.350 . S
C1113 C1112 1.434 . S
C1114 C1115 1.369 . S
C1114 C1116 1.419 . S
C1114 H1118 0.930 . S
C1115 C1114 1.369 . S
C1115 C1124 1.429 . S
C1116 C1114 1.419 . S
C1116 C1117 1.363 . S
C1116 H1119 0.929 . S
C1117 C1116 1.363 . S
C1117 C1123 1.428 . S
H1118 C1114 0.930 . S
H1119 C1116 0.929 . S
S1120 N1121 1.613 . S
S1120 N1122 1.610 . S
N1121 S1120 1.613 . S
N1121 C1124 1.350 . S
N1122 S1120 1.610 . S
N1122 C1123 1.351 . S
C1123 C1117 1.428 . S
C1123 N1122 1.351 . S
C1123 C1124 1.434 . S
C1124 C1115 1.429 . S
C1124 N1121 1.350 . S
C1124 C1123 1.434 . S
C1125 C1126 1.369 . S
C1125 C1127 1.419 . S
C1125 H1129 0.930 . S
C1126 C1125 1.369 . S
C1126 C1135 1.429 . S
C1127 C1125 1.419 . S
C1127 C1128 1.363 . S
C1127 H1130 0.929 . S
C1128 C1127 1.363 . S
C1128 C1134 1.428 . S
H1129 C1125 0.930 . S
H1130 C1127 0.929 . S
S1131 N1132 1.613 . S
S1131 N1133 1.610 . S
N1132 S1131 1.613 . S
N1132 C1135 1.350 . S
N1133 S1131 1.610 . S
N1133 C1134 1.351 . S
C1134 C1128 1.428 . S
C1134 N1133 1.351 . S
C1134 C1135 1.434 . S
C1135 C1126 1.429 . S
C1135 N1132 1.350 . S
C1135 C1134 1.434 . S
C1136 C1137 1.369 . S
C1136 C1138 1.419 . S
C1136 H1140 0.930 . S
C1137 C1136 1.369 . S
C1137 C1146 1.429 . S
C1138 C1136 1.419 . S
C1138 C1139 1.363 . S
C1138 H1141 0.929 . S
C1139 C1138 1.363 . S
C1139 C1145 1.428 . S
H1140 C1136 0.930 . S
H1141 C1138 0.929 . S
S1142 N1143 1.613 . S
S1142 N1144 1.610 . S
N1143 S1142 1.613 . S
N1143 C1146 1.350 . S
N1144 S1142 1.610 . S
N1144 C1145 1.351 . S
C1145 C1139 1.428 . S
C1145 N1144 1.351 . S
C1145 C1146 1.434 . S
C1146 C1137 1.429 . S
C1146 N1143 1.350 . S
C1146 C1145 1.434 . S
C1147 C1148 1.369 . S
C1147 C1149 1.419 . S
C1147 H1151 0.930 . S
C1148 C1147 1.369 . S
C1148 C1157 1.429 . S
C1149 C1147 1.419 . S
C1149 C1150 1.363 . S
C1149 H1152 0.929 . S
C1150 C1149 1.363 . S
C1150 C1156 1.428 . S
H1151 C1147 0.930 . S
H1152 C1149 0.929 . S
S1153 N1154 1.613 . S
S1153 N1155 1.610 . S
N1154 S1153 1.613 . S
N1154 C1157 1.350 . S
N1155 S1153 1.610 . S
N1155 C1156 1.351 . S
C1156 C1150 1.428 . S
C1156 N1155 1.351 . S
C1156 C1157 1.434 . S
C1157 C1148 1.429 . S
C1157 N1154 1.350 . S
C1157 C1156 1.434 . S
C1158 C1159 1.369 . S
C1158 C1160 1.419 . S
C1158 H1162 0.930 . S
C1159 C1158 1.369 . S
C1159 C1168 1.429 . S
C1160 C1158 1.419 . S
C1160 C1161 1.363 . S
C1160 H1163 0.929 . S
C1161 C1160 1.363 . S
C1161 C1167 1.428 . S
H1162 C1158 0.930 . S
H1163 C1160 0.929 . S
S1164 N1165 1.613 . S
S1164 N1166 1.610 . S
N1165 S1164 1.613 . S
N1165 C1168 1.350 . S
N1166 S1164 1.610 . S
N1166 C1167 1.351 . S
C1167 C1161 1.428 . S
C1167 N1166 1.351 . S
C1167 C1168 1.434 . S
C1168 C1159 1.429 . S
C1168 N1165 1.350 . S
C1168 C1167 1.434 . S
C1169 C1170 1.369 . S
C1169 C1171 1.419 . S
C1169 H1173 0.930 . S
C1170 C1169 1.369 . S
C1170 C1179 1.429 . S
C1171 C1169 1.419 . S
C1171 C1172 1.363 . S
C1171 H1174 0.929 . S
C1172 C1171 1.363 . S
C1172 C1178 1.428 . S
H1173 C1169 0.930 . S
H1174 C1171 0.929 . S
S1175 N1176 1.613 . S
S1175 N1177 1.610 . S
N1176 S1175 1.613 . S
N1176 C1179 1.350 . S
N1177 S1175 1.610 . S
N1177 C1178 1.351 . S
C1178 C1172 1.428 . S
C1178 N1177 1.351 . S
C1178 C1179 1.434 . S
C1179 C1170 1.429 . S
C1179 N1176 1.350 . S
C1179 C1178 1.434 . S
C1180 C1181 1.369 . S
C1180 C1182 1.419 . S
C1180 H1184 0.930 . S
C1181 C1180 1.369 . S
C1181 C1190 1.429 . S
C1182 C1180 1.419 . S
C1182 C1183 1.363 . S
C1182 H1185 0.929 . S
C1183 C1182 1.363 . S
C1183 C1189 1.428 . S
H1184 C1180 0.930 . S
H1185 C1182 0.929 . S
S1186 N1187 1.613 . S
S1186 N1188 1.610 . S
N1187 S1186 1.613 . S
N1187 C1190 1.350 . S
N1188 S1186 1.610 . S
N1188 C1189 1.351 . S
C1189 C1183 1.428 . S
C1189 N1188 1.351 . S
C1189 C1190 1.434 . S
C1190 C1181 1.429 . S
C1190 N1187 1.350 . S
C1190 C1189 1.434 . S
C1191 C1192 1.369 . S
C1191 C1193 1.419 . S
C1191 H1195 0.930 . S
C1192 C1191 1.369 . S
C1192 C1201 1.429 . S
C1193 C1191 1.419 . S
C1193 C1194 1.363 . S
C1193 H1196 0.929 . S
C1194 C1193 1.363 . S
C1194 C1200 1.428 . S
H1195 C1191 0.930 . S
H1196 C1193 0.929 . S
S1197 N1198 1.613 . S
S1197 N1199 1.610 . S
N1198 S1197 1.613 . S
N1198 C1201 1.350 . S
N1199 S1197 1.610 . S
N1199 C1200 1.351 . S
C1200 C1194 1.428 . S
C1200 N1199 1.351 . S
C1200 C1201 1.434 . S
C1201 C1192 1.429 . S
C1201 N1198 1.350 . S
C1201 C1200 1.434 . S
C1202 C1203 1.369 . S
C1202 C1204 1.419 . S
C1202 H1206 0.930 . S
C1203 C1202 1.369 . S
C1203 C1212 1.429 . S
C1204 C1202 1.419 . S
C1204 C1205 1.363 . S
C1204 H1207 0.929 . S
C1205 C1204 1.363 . S
C1205 C1211 1.428 . S
H1206 C1202 0.930 . S
H1207 C1204 0.929 . S
S1208 N1209 1.613 . S
S1208 N1210 1.610 . S
N1209 S1208 1.613 . S
N1209 C1212 1.350 . S
N1210 S1208 1.610 . S
N1210 C1211 1.351 . S
C1211 C1205 1.428 . S
C1211 N1210 1.351 . S
C1211 C1212 1.434 . S
C1212 C1203 1.429 . S
C1212 N1209 1.350 . S
C1212 C1211 1.434 . S
C1213 C1214 1.369 . S
C1213 C1215 1.419 . S
C1213 H1217 0.930 . S
C1214 C1213 1.369 . S
C1214 C1223 1.429 . S
C1215 C1213 1.419 . S
C1215 C1216 1.363 . S
C1215 H1218 0.929 . S
C1216 C1215 1.363 . S
C1216 C1222 1.428 . S
H1217 C1213 0.930 . S
H1218 C1215 0.929 . S
S1219 N1220 1.613 . S
S1219 N1221 1.610 . S
N1220 S1219 1.613 . S
N1220 C1223 1.350 . S
N1221 S1219 1.610 . S
N1221 C1222 1.351 . S
C1222 C1216 1.428 . S
C1222 N1221 1.351 . S
C1222 C1223 1.434 . S
C1223 C1214 1.429 . S
C1223 N1220 1.350 . S
C1223 C1222 1.434 . S
C1224 C1225 1.369 . S
C1224 C1226 1.419 . S
C1224 H1228 0.930 . S
C1225 C1224 1.369 . S
C1225 C1234 1.429 . S
C1226 C1224 1.419 . S
C1226 C1227 1.363 . S
C1226 H1229 0.929 . S
C1227 C1226 1.363 . S
C1227 C1233 1.428 . S
H1228 C1224 0.930 . S
H1229 C1226 0.929 . S
S1230 N1231 1.613 . S
S1230 N1232 1.610 . S
N1231 S1230 1.613 . S
N1231 C1234 1.350 . S
N1232 S1230 1.610 . S
N1232 C1233 1.351 . S
C1233 C1227 1.428 . S
C1233 N1232 1.351 . S
C1233 C1234 1.434 . S
C1234 C1225 1.429 . S
C1234 N1231 1.350 . S
C1234 C1233 1.434 . S
C1235 C1236 1.369 . S
C1235 C1237 1.419 1_565 S
C1235 H1239 0.930 . S
C1236 C1235 1.369 . S
C1236 C1245 1.429 1_565 S
C1237 C1235 1.419 1_545 S
C1237 C1238 1.363 . S
C1237 H1240 0.929 . S
C1238 C1237 1.363 . S
C1238 C1244 1.428 . S
H1239 C1235 0.930 . S
H1240 C1237 0.929 . S
S1241 N1242 1.613 . S
S1241 N1243 1.610 . S
N1242 S1241 1.613 . S
N1242 C1245 1.350 . S
N1243 S1241 1.610 . S
N1243 C1244 1.351 . S
C1244 C1238 1.428 . S
C1244 N1243 1.351 . S
C1244 C1245 1.434 . S
C1245 C1236 1.429 1_545 S
C1245 N1242 1.350 . S
C1245 C1244 1.434 . S
C1246 C1247 1.369 . S
C1246 C1248 1.419 1_655 S
C1246 H1250 0.930 . S
C1247 C1246 1.369 . S
C1247 C1256 1.429 . S
C1248 C1246 1.419 1_455 S
C1248 C1249 1.363 . S
C1248 H1251 0.929 . S
C1249 C1248 1.363 . S
C1249 C1255 1.428 1_455 S
H1250 C1246 0.930 . S
H1251 C1248 0.929 . S
S1252 N1253 1.613 . S
S1252 N1254 1.610 . S
N1253 S1252 1.613 . S
N1253 C1256 1.350 . S
N1254 S1252 1.610 . S
N1254 C1255 1.351 . S
C1255 C1249 1.428 1_655 S
C1255 N1254 1.351 . S
C1255 C1256 1.434 . S
C1256 C1247 1.429 . S
C1256 N1253 1.350 . S
C1256 C1255 1.434 . S
C1257 C1258 1.369 . S
C1257 C1259 1.419 . S
C1257 H1261 0.930 . S
C1258 C1257 1.369 . S
C1258 C1267 1.429 . S
C1259 C1257 1.419 . S
C1259 C1260 1.363 . S
C1259 H1262 0.929 . S
C1260 C1259 1.363 . S
C1260 C1266 1.428 . S
H1261 C1257 0.930 . S
H1262 C1259 0.929 . S
S1263 N1264 1.613 . S
S1263 N1265 1.610 . S
N1264 S1263 1.613 . S
N1264 C1267 1.350 . S
N1265 S1263 1.610 . S
N1265 C1266 1.351 . S
C1266 C1260 1.428 . S
C1266 N1265 1.351 . S
C1266 C1267 1.434 . S
C1267 C1258 1.429 . S
C1267 N1264 1.350 . S
C1267 C1266 1.434 . S
C1268 C1269 1.369 1_565 S
C1268 C1270 1.419 . S
C1268 H1272 0.930 . S
C1269 C1268 1.369 1_545 S
C1269 C1278 1.429 . S
C1270 C1268 1.419 . S
C1270 C1271 1.363 . S
C1270 H1273 0.929 . S
C1271 C1270 1.363 . S
C1271 C1277 1.428 . S
H1272 C1268 0.930 . S
H1273 C1270 0.929 . S
S1274 N1275 1.613 . S
S1274 N1276 1.610 1_545 S
N1275 S1274 1.613 . S
N1275 C1278 1.350 . S
N1276 S1274 1.610 1_565 S
N1276 C1277 1.351 . S
C1277 C1271 1.428 . S
C1277 N1276 1.351 . S
C1277 C1278 1.434 1_565 S
C1278 C1269 1.429 . S
C1278 N1275 1.350 . S
C1278 C1277 1.434 1_545 S
C1279 C1280 1.369 . S
C1279 C1281 1.419 . S
C1279 H1283 0.930 . S
C1280 C1279 1.369 . S
C1280 C1289 1.429 . S
C1281 C1279 1.419 . S
C1281 C1282 1.363 1_455 S
C1281 H1284 0.929 . S
C1282 C1281 1.363 1_655 S
C1282 C1288 1.428 . S
H1283 C1279 0.930 . S
H1284 C1281 0.929 . S
S1285 N1286 1.613 1_655 S
S1285 N1287 1.610 . S
N1286 S1285 1.613 1_455 S
N1286 C1289 1.350 . S
N1287 S1285 1.610 . S
N1287 C1288 1.351 . S
C1288 C1282 1.428 . S
C1288 N1287 1.351 . S
C1288 C1289 1.434 1_655 S
C1289 C1280 1.429 . S
C1289 N1286 1.350 . S
C1289 C1288 1.434 1_455 S
C1290 C1291 1.369 . S
C1290 C1292 1.419 . S
C1290 H1294 0.930 . S
C1291 C1290 1.369 . S
C1291 C1300 1.429 . S
C1292 C1290 1.419 . S
C1292 C1293 1.363 . S
C1292 H1295 0.929 . S
C1293 C1292 1.363 . S
C1293 C1299 1.428 . S
H1294 C1290 0.930 . S
H1295 C1292 0.929 . S
S1296 N1297 1.613 . S
S1296 N1298 1.610 . S
N1297 S1296 1.613 . S
N1297 C1300 1.350 . S
N1298 S1296 1.610 . S
N1298 C1299 1.351 . S
C1299 C1293 1.428 . S
C1299 N1298 1.351 . S
C1299 C1300 1.434 . S
C1300 C1291 1.429 . S
C1300 N1297 1.350 . S
C1300 C1299 1.434 . S
C1301 C1302 1.369 1_565 S
C1301 C1303 1.419 . S
C1301 H1305 0.930 . S
C1302 C1301 1.369 1_545 S
C1302 C1311 1.429 . S
C1303 C1301 1.419 . S
C1303 C1304 1.363 . S
C1303 H1306 0.929 . S
C1304 C1303 1.363 . S
C1304 C1310 1.428 . S
H1305 C1301 0.930 . S
H1306 C1303 0.929 . S
S1307 N1308 1.613 . S
S1307 N1309 1.610 1_545 S
N1308 S1307 1.613 . S
N1308 C1311 1.350 . S
N1309 S1307 1.610 1_565 S
N1309 C1310 1.351 . S
C1310 C1304 1.428 . S
C1310 N1309 1.351 . S
C1310 C1311 1.434 1_565 S
C1311 C1302 1.429 . S
C1311 N1308 1.350 . S
C1311 C1310 1.434 1_545 S
C1312 C1313 1.369 1_455 S
C1312 C1314 1.419 . S
C1312 H1316 0.930 . S
C1313 C1312 1.369 1_655 S
C1313 C1322 1.429 . S
C1314 C1312 1.419 . S
C1314 C1315 1.363 . S
C1314 H1317 0.929 . S
C1315 C1314 1.363 . S
C1315 C1321 1.428 . S
H1316 C1312 0.930 . S
H1317 C1314 0.929 . S
S1318 N1319 1.613 . S
S1318 N1320 1.610 1_655 S
N1319 S1318 1.613 . S
N1319 C1322 1.350 . S
N1320 S1318 1.610 1_455 S
N1320 C1321 1.351 . S
C1321 C1315 1.428 . S
C1321 N1320 1.351 . S
C1321 C1322 1.434 1_455 S
C1322 C1313 1.429 . S
C1322 N1319 1.350 . S
C1322 C1321 1.434 1_655 S
C1323 C1324 1.369 . S
C1323 C1325 1.419 . S
C1323 H1327 0.930 . S
C1324 C1323 1.369 . S
C1324 C1333 1.429 . S
C1325 C1323 1.419 . S
C1325 C1326 1.363 . S
C1325 H1328 0.929 . S
C1326 C1325 1.363 . S
C1326 C1332 1.428 . S
H1327 C1323 0.930 . S
H1328 C1325 0.929 . S
S1329 N1330 1.613 . S
S1329 N1331 1.610 . S
N1330 S1329 1.613 . S
N1330 C1333 1.350 . S
N1331 S1329 1.610 . S
N1331 C1332 1.351 . S
C1332 C1326 1.428 . S
C1332 N1331 1.351 . S
C1332 C1333 1.434 . S
C1333 C1324 1.429 . S
C1333 N1330 1.350 . S
C1333 C1332 1.434 . S
C1334 C1335 1.369 . S
C1334 C1336 1.419 1_565 S
C1334 H1338 0.930 . S
C1335 C1334 1.369 . S
C1335 C1344 1.429 1_565 S
C1336 C1334 1.419 1_545 S
C1336 C1337 1.363 . S
C1336 H1339 0.929 . S
C1337 C1336 1.363 . S
C1337 C1343 1.428 . S
H1338 C1334 0.930 . S
H1339 C1336 0.929 . S
S1340 N1341 1.613 . S
S1340 N1342 1.610 . S
N1341 S1340 1.613 . S
N1341 C1344 1.350 . S
N1342 S1340 1.610 . S
N1342 C1343 1.351 . S
C1343 C1337 1.428 . S
C1343 N1342 1.351 . S
C1343 C1344 1.434 . S
C1344 C1335 1.429 1_545 S
C1344 N1341 1.350 . S
C1344 C1343 1.434 . S
C1345 C1346 1.369 . S
C1345 C1347 1.419 . S
C1345 H1349 0.930 . S
C1346 C1345 1.369 . S
C1346 C1355 1.429 . S
C1347 C1345 1.419 . S
C1347 C1348 1.363 1_655 S
C1347 H1350 0.929 . S
C1348 C1347 1.363 1_455 S
C1348 C1354 1.428 . S
H1349 C1345 0.930 . S
H1350 C1347 0.929 . S
S1351 N1352 1.613 1_455 S
S1351 N1353 1.610 . S
N1352 S1351 1.613 1_655 S
N1352 C1355 1.350 . S
N1353 S1351 1.610 . S
N1353 C1354 1.351 . S
C1354 C1348 1.428 . S
C1354 N1353 1.351 . S
C1354 C1355 1.434 1_455 S
C1355 C1346 1.429 . S
C1355 N1352 1.350 . S
C1355 C1354 1.434 1_655 S
C1356 C1357 1.369 . S
C1356 C1358 1.419 . S
C1356 H1360 0.930 . S
C1357 C1356 1.369 . S
C1357 C1366 1.429 . S
C1358 C1356 1.419 . S
C1358 C1359 1.363 . S
C1358 H1361 0.929 . S
C1359 C1358 1.363 . S
C1359 C1365 1.428 . S
H1360 C1356 0.930 . S
H1361 C1358 0.929 . S
S1362 N1363 1.613 . S
S1362 N1364 1.610 . S
N1363 S1362 1.613 . S
N1363 C1366 1.350 . S
N1364 S1362 1.610 . S
N1364 C1365 1.351 . S
C1365 C1359 1.428 . S
C1365 N1364 1.351 . S
C1365 C1366 1.434 . S
C1366 C1357 1.429 . S
C1366 N1363 1.350 . S
C1366 C1365 1.434 . S
C1367 C1368 1.369 . S
C1367 C1369 1.419 . S
C1367 H1371 0.930 . S
C1368 C1367 1.369 . S
C1368 C1377 1.429 . S
C1369 C1367 1.419 . S
C1369 C1370 1.363 . S
C1369 H1372 0.929 . S
C1370 C1369 1.363 . S
C1370 C1376 1.428 . S
H1371 C1367 0.930 . S
H1372 C1369 0.929 . S
S1373 N1374 1.613 . S
S1373 N1375 1.610 . S
N1374 S1373 1.613 . S
N1374 C1377 1.350 . S
N1375 S1373 1.610 . S
N1375 C1376 1.351 . S
C1376 C1370 1.428 . S
C1376 N1375 1.351 . S
C1376 C1377 1.434 . S
C1377 C1368 1.429 . S
C1377 N1374 1.350 . S
C1377 C1376 1.434 . S
C1378 C1379 1.369 . S
C1378 C1380 1.419 . S
C1378 H1382 0.930 . S
C1379 C1378 1.369 . S
C1379 C1388 1.429 . S
C1380 C1378 1.419 . S
C1380 C1381 1.363 . S
C1380 H1383 0.929 . S
C1381 C1380 1.363 . S
C1381 C1387 1.428 . S
H1382 C1378 0.930 . S
H1383 C1380 0.929 . S
S1384 N1385 1.613 . S
S1384 N1386 1.610 . S
N1385 S1384 1.613 . S
N1385 C1388 1.350 . S
N1386 S1384 1.610 . S
N1386 C1387 1.351 . S
C1387 C1381 1.428 . S
C1387 N1386 1.351 . S
C1387 C1388 1.434 . S
C1388 C1379 1.429 . S
C1388 N1385 1.350 . S
C1388 C1387 1.434 . S
C1389 C1390 1.369 . S
C1389 C1391 1.419 . S
C1389 H1393 0.930 . S
C1390 C1389 1.369 . S
C1390 C1399 1.429 . S
C1391 C1389 1.419 . S
C1391 C1392 1.363 . S
C1391 H1394 0.929 . S
C1392 C1391 1.363 . S
C1392 C1398 1.428 . S
H1393 C1389 0.930 . S
H1394 C1391 0.929 . S
S1395 N1396 1.613 . S
S1395 N1397 1.610 . S
N1396 S1395 1.613 . S
N1396 C1399 1.350 . S
N1397 S1395 1.610 . S
N1397 C1398 1.351 . S
C1398 C1392 1.428 . S
C1398 N1397 1.351 . S
C1398 C1399 1.434 . S
C1399 C1390 1.429 . S
C1399 N1396 1.350 . S
C1399 C1398 1.434 . S
C1400 C1401 1.369 . S
C1400 C1402 1.419 . S
C1400 H1404 0.930 . S
C1401 C1400 1.369 . S
C1401 C1410 1.429 . S
C1402 C1400 1.419 . S
C1402 C1403 1.363 . S
C1402 H1405 0.929 . S
C1403 C1402 1.363 . S
C1403 C1409 1.428 . S
H1404 C1400 0.930 . S
H1405 C1402 0.929 . S
S1406 N1407 1.613 . S
S1406 N1408 1.610 . S
N1407 S1406 1.613 . S
N1407 C1410 1.350 . S
N1408 S1406 1.610 . S
N1408 C1409 1.351 . S
C1409 C1403 1.428 . S
C1409 N1408 1.351 . S
C1409 C1410 1.434 . S
C1410 C1401 1.429 . S
C1410 N1407 1.350 . S
C1410 C1409 1.434 . S
C1411 C1412 1.369 . S
C1411 C1413 1.419 . S
C1411 H1415 0.930 . S
C1412 C1411 1.369 . S
C1412 C1421 1.429 . S
C1413 C1411 1.419 . S
C1413 C1414 1.363 . S
C1413 H1416 0.929 . S
C1414 C1413 1.363 . S
C1414 C1420 1.428 . S
H1415 C1411 0.930 . S
H1416 C1413 0.929 . S
S1417 N1418 1.613 . S
S1417 N1419 1.610 . S
N1418 S1417 1.613 . S
N1418 C1421 1.350 . S
N1419 S1417 1.610 . S
N1419 C1420 1.351 . S
C1420 C1414 1.428 . S
C1420 N1419 1.351 . S
C1420 C1421 1.434 . S
C1421 C1412 1.429 . S
C1421 N1418 1.350 . S
C1421 C1420 1.434 . S
C1422 C1423 1.369 . S
C1422 C1424 1.419 . S
C1422 H1426 0.930 . S
C1423 C1422 1.369 . S
C1423 C1432 1.429 . S
C1424 C1422 1.419 . S
C1424 C1425 1.363 . S
C1424 H1427 0.929 . S
C1425 C1424 1.363 . S
C1425 C1431 1.428 . S
H1426 C1422 0.930 . S
H1427 C1424 0.929 . S
S1428 N1429 1.613 . S
S1428 N1430 1.610 . S
N1429 S1428 1.613 . S
N1429 C1432 1.350 . S
N1430 S1428 1.610 . S
N1430 C1431 1.351 . S
C1431 C1425 1.428 . S
C1431 N1430 1.351 . S
C1431 C1432 1.434 . S
C1432 C1423 1.429 . S
C1432 N1429 1.350 . S
C1432 C1431 1.434 . S
C1433 C1434 1.369 . S
C1433 C1435 1.419 . S
C1433 H1437 0.930 . S
C1434 C1433 1.369 . S
C1434 C1443 1.429 . S
C1435 C1433 1.419 . S
C1435 C1436 1.363 . S
C1435 H1438 0.929 . S
C1436 C1435 1.363 . S
C1436 C1442 1.428 . S
H1437 C1433 0.930 . S
H1438 C1435 0.929 . S
S1439 N1440 1.613 . S
S1439 N1441 1.610 . S
N1440 S1439 1.613 . S
N1440 C1443 1.350 . S
N1441 S1439 1.610 . S
N1441 C1442 1.351 . S
C1442 C1436 1.428 . S
C1442 N1441 1.351 . S
C1442 C1443 1.434 . S
C1443 C1434 1.429 . S
C1443 N1440 1.350 . S
C1443 C1442 1.434 . S
C1444 C1445 1.369 . S
C1444 C1446 1.419 . S
C1444 H1448 0.930 . S
C1445 C1444 1.369 . S
C1445 C1454 1.429 . S
C1446 C1444 1.419 . S
C1446 C1447 1.363 . S
C1446 H1449 0.929 . S
C1447 C1446 1.363 . S
C1447 C1453 1.428 . S
H1448 C1444 0.930 . S
H1449 C1446 0.929 . S
S1450 N1451 1.613 . S
S1450 N1452 1.610 . S
N1451 S1450 1.613 . S
N1451 C1454 1.350 . S
N1452 S1450 1.610 . S
N1452 C1453 1.351 . S
C1453 C1447 1.428 . S
C1453 N1452 1.351 . S
C1453 C1454 1.434 . S
C1454 C1445 1.429 . S
C1454 N1451 1.350 . S
C1454 C1453 1.434 . S
C1455 C1456 1.369 . S
C1455 C1457 1.419 . S
C1455 H1459 0.930 . S
C1456 C1455 1.369 . S
C1456 C1465 1.429 . S
C1457 C1455 1.419 . S
C1457 C1458 1.363 . S
C1457 H1460 0.929 . S
C1458 C1457 1.363 . S
C1458 C1464 1.428 . S
H1459 C1455 0.930 . S
H1460 C1457 0.929 . S
S1461 N1462 1.613 . S
S1461 N1463 1.610 . S
N1462 S1461 1.613 . S
N1462 C1465 1.350 1_554 S
N1463 S1461 1.610 . S
N1463 C1464 1.351 1_554 S
C1464 C1458 1.428 . S
C1464 N1463 1.351 1_556 S
C1464 C1465 1.434 . S
C1465 C1456 1.429 . S
C1465 N1462 1.350 1_556 S
C1465 C1464 1.434 . S
C1466 C1467 1.369 . S
C1466 C1468 1.419 . S
C1466 H1470 0.930 . S
C1467 C1466 1.369 . S
C1467 C1476 1.429 . S
C1468 C1466 1.419 . S
C1468 C1469 1.363 . S
C1468 H1471 0.929 . S
C1469 C1468 1.363 . S
C1469 C1475 1.428 . S
H1470 C1466 0.930 . S
H1471 C1468 0.929 . S
S1472 N1473 1.613 . S
S1472 N1474 1.610 . S
N1473 S1472 1.613 . S
N1473 C1476 1.350 1_554 S
N1474 S1472 1.610 . S
N1474 C1475 1.351 1_554 S
C1475 C1469 1.428 . S
C1475 N1474 1.351 1_556 S
C1475 C1476 1.434 . S
C1476 C1467 1.429 . S
C1476 N1473 1.350 1_556 S
C1476 C1475 1.434 . S
C1477 C1478 1.369 . S
C1477 C1479 1.419 . S
C1477 H1481 0.930 . S
C1478 C1477 1.369 . S
C1478 C1487 1.429 . S
C1479 C1477 1.419 . S
C1479 C1480 1.363 . S
C1479 H1482 0.929 . S
C1480 C1479 1.363 . S
C1480 C1486 1.428 . S
H1481 C1477 0.930 . S
H1482 C1479 0.929 . S
S1483 N1484 1.613 . S
S1483 N1485 1.610 . S
N1484 S1483 1.613 . S
N1484 C1487 1.350 1_554 S
N1485 S1483 1.610 . S
N1485 C1486 1.351 1_554 S
C1486 C1480 1.428 . S
C1486 N1485 1.351 1_556 S
C1486 C1487 1.434 . S
C1487 C1478 1.429 . S
C1487 N1484 1.350 1_556 S
C1487 C1486 1.434 . S
C1488 C1489 1.369 . S
C1488 C1490 1.419 . S
C1488 H1492 0.930 . S
C1489 C1488 1.369 . S
C1489 C1498 1.429 . S
C1490 C1488 1.419 . S
C1490 C1491 1.363 . S
C1490 H1493 0.929 . S
C1491 C1490 1.363 . S
C1491 C1497 1.428 . S
H1492 C1488 0.930 . S
H1493 C1490 0.929 . S
S1494 N1495 1.613 . S
S1494 N1496 1.610 . S
N1495 S1494 1.613 . S
N1495 C1498 1.350 . S
N1496 S1494 1.610 . S
N1496 C1497 1.351 . S
C1497 C1491 1.428 . S
C1497 N1496 1.351 . S
C1497 C1498 1.434 . S
C1498 C1489 1.429 . S
C1498 N1495 1.350 . S
C1498 C1497 1.434 . S
C1499 C1500 1.369 . S
C1499 C1501 1.419 . S
C1499 H1503 0.930 . S
C1500 C1499 1.369 . S
C1500 C1509 1.429 . S
C1501 C1499 1.419 . S
C1501 C1502 1.363 . S
C1501 H1504 0.929 . S
C1502 C1501 1.363 . S
C1502 C1508 1.428 . S
H1503 C1499 0.930 . S
H1504 C1501 0.929 . S
S1505 N1506 1.613 . S
S1505 N1507 1.610 . S
N1506 S1505 1.613 . S
N1506 C1509 1.350 . S
N1507 S1505 1.610 . S
N1507 C1508 1.351 . S
C1508 C1502 1.428 . S
C1508 N1507 1.351 . S
C1508 C1509 1.434 . S
C1509 C1500 1.429 . S
C1509 N1506 1.350 . S
C1509 C1508 1.434 . S
C1510 C1511 1.369 . S
C1510 C1512 1.419 . S
C1510 H1514 0.930 . S
C1511 C1510 1.369 . S
C1511 C1520 1.429 . S
C1512 C1510 1.419 . S
C1512 C1513 1.363 . S
C1512 H1515 0.929 . S
C1513 C1512 1.363 . S
C1513 C1519 1.428 . S
H1514 C1510 0.930 . S
H1515 C1512 0.929 . S
S1516 N1517 1.613 . S
S1516 N1518 1.610 . S
N1517 S1516 1.613 . S
N1517 C1520 1.350 . S
N1518 S1516 1.610 . S
N1518 C1519 1.351 . S
C1519 C1513 1.428 . S
C1519 N1518 1.351 . S
C1519 C1520 1.434 . S
C1520 C1511 1.429 . S
C1520 N1517 1.350 . S
C1520 C1519 1.434 . S
C1521 C1522 1.369 . S
C1521 C1523 1.419 . S
C1521 H1525 0.930 . S
C1522 C1521 1.369 . S
C1522 C1531 1.429 . S
C1523 C1521 1.419 . S
C1523 C1524 1.363 . S
C1523 H1526 0.929 . S
C1524 C1523 1.363 . S
C1524 C1530 1.428 . S
H1525 C1521 0.930 . S
H1526 C1523 0.929 . S
S1527 N1528 1.613 . S
S1527 N1529 1.610 . S
N1528 S1527 1.613 . S
N1528 C1531 1.350 1_556 S
N1529 S1527 1.610 . S
N1529 C1530 1.351 1_556 S
C1530 C1524 1.428 . S
C1530 N1529 1.351 1_554 S
C1530 C1531 1.434 . S
C1531 C1522 1.429 . S
C1531 N1528 1.350 1_554 S
C1531 C1530 1.434 . S
C1532 C1533 1.369 . S
C1532 C1534 1.419 . S
C1532 H1536 0.930 . S
C1533 C1532 1.369 . S
C1533 C1542 1.429 . S
C1534 C1532 1.419 . S
C1534 C1535 1.363 . S
C1534 H1537 0.929 . S
C1535 C1534 1.363 . S
C1535 C1541 1.428 . S
H1536 C1532 0.930 . S
H1537 C1534 0.929 . S
S1538 N1539 1.613 . S
S1538 N1540 1.610 . S
N1539 S1538 1.613 . S
N1539 C1542 1.350 . S
N1540 S1538 1.610 . S
N1540 C1541 1.351 . S
C1541 C1535 1.428 . S
C1541 N1540 1.351 . S
C1541 C1542 1.434 . S
C1542 C1533 1.429 . S
C1542 N1539 1.350 . S
C1542 C1541 1.434 . S
C1543 C1544 1.369 . S
C1543 C1545 1.419 . S
C1543 H1547 0.930 1_554 S
C1544 C1543 1.369 . S
C1544 C1553 1.429 . S
C1545 C1543 1.419 . S
C1545 C1546 1.363 . S
C1545 H1548 0.929 . S
C1546 C1545 1.363 . S
C1546 C1552 1.428 . S
H1547 C1543 0.930 1_556 S
H1548 C1545 0.929 . S
S1549 N1550 1.613 . S
S1549 N1551 1.610 . S
N1550 S1549 1.613 . S
N1550 C1553 1.350 . S
N1551 S1549 1.610 . S
N1551 C1552 1.351 . S
C1552 C1546 1.428 . S
C1552 N1551 1.351 . S
C1552 C1553 1.434 . S
C1553 C1544 1.429 . S
C1553 N1550 1.350 . S
C1553 C1552 1.434 . S
C1554 C1555 1.369 . S
C1554 C1556 1.419 . S
C1554 H1558 0.930 . S
C1555 C1554 1.369 . S
C1555 C1564 1.429 . S
C1556 C1554 1.419 . S
C1556 C1557 1.363 . S
C1556 H1559 0.929 . S
C1557 C1556 1.363 . S
C1557 C1563 1.428 . S
H1558 C1554 0.930 . S
H1559 C1556 0.929 . S
S1560 N1561 1.613 . S
S1560 N1562 1.610 . S
N1561 S1560 1.613 . S
N1561 C1564 1.350 . S
N1562 S1560 1.610 . S
N1562 C1563 1.351 . S
C1563 C1557 1.428 . S
C1563 N1562 1.351 . S
C1563 C1564 1.434 . S
C1564 C1555 1.429 . S
C1564 N1561 1.350 . S
C1564 C1563 1.434 . S
C1565 C1566 1.369 . S
C1565 C1567 1.419 . S
C1565 H1569 0.930 . S
C1566 C1565 1.369 . S
C1566 C1575 1.429 . S
C1567 C1565 1.419 . S
C1567 C1568 1.363 . S
C1567 H1570 0.929 . S
C1568 C1567 1.363 . S
C1568 C1574 1.428 . S
H1569 C1565 0.930 . S
H1570 C1567 0.929 . S
S1571 N1572 1.613 . S
S1571 N1573 1.610 . S
N1572 S1571 1.613 . S
N1572 C1575 1.350 . S
N1573 S1571 1.610 . S
N1573 C1574 1.351 . S
C1574 C1568 1.428 . S
C1574 N1573 1.351 . S
C1574 C1575 1.434 . S
C1575 C1566 1.429 . S
C1575 N1572 1.350 . S
C1575 C1574 1.434 . S
C1576 C1577 1.369 . S
C1576 C1578 1.419 . S
C1576 H1580 0.930 . S
C1577 C1576 1.369 . S
C1577 C1586 1.429 . S
C1578 C1576 1.419 . S
C1578 C1579 1.363 . S
C1578 H1581 0.929 . S
C1579 C1578 1.363 . S
C1579 C1585 1.428 . S
H1580 C1576 0.930 . S
H1581 C1578 0.929 . S
S1582 N1583 1.613 . S
S1582 N1584 1.610 . S
N1583 S1582 1.613 . S
N1583 C1586 1.350 . S
N1584 S1582 1.610 . S
N1584 C1585 1.351 . S
C1585 C1579 1.428 . S
C1585 N1584 1.351 . S
C1585 C1586 1.434 . S
C1586 C1577 1.429 . S
C1586 N1583 1.350 . S
C1586 C1585 1.434 . S
C1587 C1588 1.369 . S
C1587 C1589 1.419 . S
C1587 H1591 0.930 . S
C1588 C1587 1.369 . S
C1588 C1597 1.429 . S
C1589 C1587 1.419 . S
C1589 C1590 1.363 . S
C1589 H1592 0.929 . S
C1590 C1589 1.363 . S
C1590 C1596 1.428 . S
H1591 C1587 0.930 . S
H1592 C1589 0.929 . S
S1593 N1594 1.613 . S
S1593 N1595 1.610 . S
N1594 S1593 1.613 . S
N1594 C1597 1.350 . S
N1595 S1593 1.610 . S
N1595 C1596 1.351 . S
C1596 C1590 1.428 . S
C1596 N1595 1.351 . S
C1596 C1597 1.434 . S
C1597 C1588 1.429 . S
C1597 N1594 1.350 . S
C1597 C1596 1.434 . S
C1598 C1599 1.369 . S
C1598 C1600 1.419 . S
C1598 H1602 0.930 . S
C1599 C1598 1.369 . S
C1599 C1608 1.429 . S
C1600 C1598 1.419 . S
C1600 C1601 1.363 . S
C1600 H1603 0.929 . S
C1601 C1600 1.363 . S
C1601 C1607 1.428 . S
H1602 C1598 0.930 . S
H1603 C1600 0.929 . S
S1604 N1605 1.613 . S
S1604 N1606 1.610 . S
N1605 S1604 1.613 . S
N1605 C1608 1.350 . S
N1606 S1604 1.610 . S
N1606 C1607 1.351 . S
C1607 C1601 1.428 . S
C1607 N1606 1.351 . S
C1607 C1608 1.434 . S
C1608 C1599 1.429 . S
C1608 N1605 1.350 . S
C1608 C1607 1.434 . S
C1609 C1610 1.369 . S
C1609 C1611 1.419 . S
C1609 H1613 0.930 . S
C1610 C1609 1.369 . S
C1610 C1619 1.429 . S
C1611 C1609 1.419 . S
C1611 C1612 1.363 . S
C1611 H1614 0.929 . S
C1612 C1611 1.363 . S
C1612 C1618 1.428 . S
H1613 C1609 0.930 . S
H1614 C1611 0.929 . S
S1615 N1616 1.613 . S
S1615 N1617 1.610 . S
N1616 S1615 1.613 . S
N1616 C1619 1.350 . S
N1617 S1615 1.610 . S
N1617 C1618 1.351 . S
C1618 C1612 1.428 . S
C1618 N1617 1.351 . S
C1618 C1619 1.434 . S
C1619 C1610 1.429 . S
C1619 N1616 1.350 . S
C1619 C1618 1.434 . S
C1620 C1621 1.369 . S
C1620 C1622 1.419 . S
C1620 H1624 0.930 . S
C1621 C1620 1.369 . S
C1621 C1630 1.429 1_455 S
C1622 C1620 1.419 . S
C1622 C1623 1.363 1_455 S
C1622 H1625 0.929 . S
C1623 C1622 1.363 1_655 S
C1623 C1629 1.428 . S
H1624 C1620 0.930 . S
H1625 C1622 0.929 . S
S1626 N1627 1.613 . S
S1626 N1628 1.610 . S
N1627 S1626 1.613 . S
N1627 C1630 1.350 . S
N1628 S1626 1.610 . S
N1628 C1629 1.351 . S
C1629 C1623 1.428 . S
C1629 N1628 1.351 . S
C1629 C1630 1.434 . S
C1630 C1621 1.429 1_655 S
C1630 N1627 1.350 . S
C1630 C1629 1.434 . S
C1631 C1632 1.369 . S
C1631 C1633 1.419 . S
C1631 H1635 0.930 . S
C1632 C1631 1.369 . S
C1632 C1641 1.429 . S
C1633 C1631 1.419 . S
C1633 C1634 1.363 . S
C1633 H1636 0.929 . S
C1634 C1633 1.363 . S
C1634 C1640 1.428 . S
H1635 C1631 0.930 . S
H1636 C1633 0.929 . S
S1637 N1638 1.613 . S
S1637 N1639 1.610 . S
N1638 S1637 1.613 . S
N1638 C1641 1.350 . S
N1639 S1637 1.610 . S
N1639 C1640 1.351 . S
C1640 C1634 1.428 . S
C1640 N1639 1.351 . S
C1640 C1641 1.434 . S
C1641 C1632 1.429 . S
C1641 N1638 1.350 . S
C1641 C1640 1.434 . S
C1642 C1643 1.369 1_545 S
C1642 C1644 1.419 . S
C1642 H1646 0.930 . S
C1643 C1642 1.369 1_565 S
C1643 C1652 1.429 . S
C1644 C1642 1.419 . S
C1644 C1645 1.363 . S
C1644 H1647 0.929 . S
C1645 C1644 1.363 . S
C1645 C1651 1.428 1_545 S
H1646 C1642 0.930 . S
H1647 C1644 0.929 . S
S1648 N1649 1.613 . S
S1648 N1650 1.610 . S
N1649 S1648 1.613 . S
N1649 C1652 1.350 . S
N1650 S1648 1.610 . S
N1650 C1651 1.351 . S
C1651 C1645 1.428 1_565 S
C1651 N1650 1.351 . S
C1651 C1652 1.434 . S
C1652 C1643 1.429 . S
C1652 N1649 1.350 . S
C1652 C1651 1.434 . S
C1653 C1654 1.369 . S
C1653 C1655 1.419 . S
C1653 H1657 0.930 . S
C1654 C1653 1.369 . S
C1654 C1663 1.429 1_655 S
C1655 C1653 1.419 . S
C1655 C1656 1.363 1_655 S
C1655 H1658 0.929 . S
C1656 C1655 1.363 1_455 S
C1656 C1662 1.428 . S
H1657 C1653 0.930 . S
H1658 C1655 0.929 . S
S1659 N1660 1.613 . S
S1659 N1661 1.610 . S
N1660 S1659 1.613 . S
N1660 C1663 1.350 . S
N1661 S1659 1.610 . S
N1661 C1662 1.351 . S
C1662 C1656 1.428 . S
C1662 N1661 1.351 . S
C1662 C1663 1.434 . S
C1663 C1654 1.429 1_455 S
C1663 N1660 1.350 . S
C1663 C1662 1.434 . S
C1664 C1665 1.369 . S
C1664 C1666 1.419 . S
C1664 H1668 0.930 . S
C1665 C1664 1.369 . S
C1665 C1674 1.429 . S
C1666 C1664 1.419 . S
C1666 C1667 1.363 . S
C1666 H1669 0.929 . S
C1667 C1666 1.363 . S
C1667 C1673 1.428 . S
H1668 C1664 0.930 . S
H1669 C1666 0.929 . S
S1670 N1671 1.613 . S
S1670 N1672 1.610 . S
N1671 S1670 1.613 . S
N1671 C1674 1.350 . S
N1672 S1670 1.610 . S
N1672 C1673 1.351 . S
C1673 C1667 1.428 . S
C1673 N1672 1.351 . S
C1673 C1674 1.434 . S
C1674 C1665 1.429 . S
C1674 N1671 1.350 . S
C1674 C1673 1.434 . S
C1675 C1676 1.369 . S
C1675 C1677 1.419 . S
C1675 H1679 0.930 . S
C1676 C1675 1.369 . S
C1676 C1685 1.429 1_565 S
C1677 C1675 1.419 . S
C1677 C1678 1.363 1_565 S
C1677 H1680 0.929 . S
C1678 C1677 1.363 1_545 S
C1678 C1684 1.428 . S
H1679 C1675 0.930 . S
H1680 C1677 0.929 . S
S1681 N1682 1.613 . S
S1681 N1683 1.610 . S
N1682 S1681 1.613 . S
N1682 C1685 1.350 . S
N1683 S1681 1.610 . S
N1683 C1684 1.351 . S
C1684 C1678 1.428 . S
C1684 N1683 1.351 . S
C1684 C1685 1.434 . S
C1685 C1676 1.429 1_545 S
C1685 N1682 1.350 . S
C1685 C1684 1.434 . S
C1686 C1687 1.369 . S
C1686 C1688 1.419 . S
C1686 H1690 0.930 . S
C1687 C1686 1.369 . S
C1687 C1696 1.429 . S
C1688 C1686 1.419 . S
C1688 C1689 1.363 . S
C1688 H1691 0.929 . S
C1689 C1688 1.363 . S
C1689 C1695 1.428 . S
H1690 C1686 0.930 . S
H1691 C1688 0.929 . S
S1692 N1693 1.613 . S
S1692 N1694 1.610 . S
N1693 S1692 1.613 . S
N1693 C1696 1.350 . S
N1694 S1692 1.610 . S
N1694 C1695 1.351 . S
C1695 C1689 1.428 . S
C1695 N1694 1.351 . S
C1695 C1696 1.434 . S
C1696 C1687 1.429 . S
C1696 N1693 1.350 . S
C1696 C1695 1.434 . S
C1697 C1698 1.369 . S
C1697 C1699 1.419 . S
C1697 H1701 0.930 . S
C1698 C1697 1.369 . S
C1698 C1707 1.429 . S
C1699 C1697 1.419 . S
C1699 C1700 1.363 . S
C1699 H1702 0.929 . S
C1700 C1699 1.363 . S
C1700 C1706 1.428 . S
H1701 C1697 0.930 . S
H1702 C1699 0.929 . S
S1703 N1704 1.613 . S
S1703 N1705 1.610 . S
N1704 S1703 1.613 . S
N1704 C1707 1.350 . S
N1705 S1703 1.610 . S
N1705 C1706 1.351 . S
C1706 C1700 1.428 . S
C1706 N1705 1.351 . S
C1706 C1707 1.434 . S
C1707 C1698 1.429 . S
C1707 N1704 1.350 . S
C1707 C1706 1.434 . S
C1708 C1709 1.369 . S
C1708 C1710 1.419 . S
C1708 H1712 0.930 . S
C1709 C1708 1.369 . S
C1709 C1718 1.429 . S
C1710 C1708 1.419 . S
C1710 C1711 1.363 . S
C1710 H1713 0.929 . S
C1711 C1710 1.363 . S
C1711 C1717 1.428 . S
H1712 C1708 0.930 . S
H1713 C1710 0.929 . S
S1714 N1715 1.613 . S
S1714 N1716 1.610 . S
N1715 S1714 1.613 . S
N1715 C1718 1.350 . S
N1716 S1714 1.610 . S
N1716 C1717 1.351 . S
C1717 C1711 1.428 . S
C1717 N1716 1.351 . S
C1717 C1718 1.434 . S
C1718 C1709 1.429 . S
C1718 N1715 1.350 . S
C1718 C1717 1.434 . S
C1719 C1720 1.369 . S
C1719 C1721 1.419 . S
C1719 H1723 0.930 . S
C1720 C1719 1.369 . S
C1720 C1729 1.429 . S
C1721 C1719 1.419 . S
C1721 C1722 1.363 . S
C1721 H1724 0.929 . S
C1722 C1721 1.363 . S
C1722 C1728 1.428 . S
H1723 C1719 0.930 . S
H1724 C1721 0.929 . S
S1725 N1726 1.613 . S
S1725 N1727 1.610 . S
N1726 S1725 1.613 . S
N1726 C1729 1.350 . S
N1727 S1725 1.610 . S
N1727 C1728 1.351 . S
C1728 C1722 1.428 . S
C1728 N1727 1.351 . S
C1728 C1729 1.434 . S
C1729 C1720 1.429 . S
C1729 N1726 1.350 . S
C1729 C1728 1.434 . S
C1730 C1731 1.369 . S
C1730 C1732 1.419 . S
C1730 H1734 0.930 . S
C1731 C1730 1.369 . S
C1731 C1740 1.429 . S
C1732 C1730 1.419 . S
C1732 C1733 1.363 . S
C1732 H1735 0.929 . S
C1733 C1732 1.363 . S
C1733 C1739 1.428 . S
H1734 C1730 0.930 . S
H1735 C1732 0.929 . S
S1736 N1737 1.613 . S
S1736 N1738 1.610 . S
N1737 S1736 1.613 . S
N1737 C1740 1.350 . S
N1738 S1736 1.610 . S
N1738 C1739 1.351 . S
C1739 C1733 1.428 . S
C1739 N1738 1.351 . S
C1739 C1740 1.434 . S
C1740 C1731 1.429 . S
C1740 N1737 1.350 . S
C1740 C1739 1.434 . S
C1741 C1742 1.369 . S
C1741 C1743 1.419 . S
C1741 H1745 0.930 . S
C1742 C1741 1.369 . S
C1742 C1751 1.429 . S
C1743 C1741 1.419 . S
C1743 C1744 1.363 . S
C1743 H1746 0.929 . S
C1744 C1743 1.363 . S
C1744 C1750 1.428 . S
H1745 C1741 0.930 . S
H1746 C1743 0.929 . S
S1747 N1748 1.613 . S
S1747 N1749 1.610 . S
N1748 S1747 1.613 . S
N1748 C1751 1.350 . S
N1749 S1747 1.610 . S
N1749 C1750 1.351 . S
C1750 C1744 1.428 . S
C1750 N1749 1.351 . S
C1750 C1751 1.434 . S
C1751 C1742 1.429 . S
C1751 N1748 1.350 . S
C1751 C1750 1.434 . S
C1752 C1753 1.369 . S
C1752 C1754 1.419 . S
C1752 H1756 0.930 . S
C1753 C1752 1.369 . S
C1753 C1762 1.429 . S
C1754 C1752 1.419 . S
C1754 C1755 1.363 . S
C1754 H1757 0.929 . S
C1755 C1754 1.363 . S
C1755 C1761 1.428 . S
H1756 C1752 0.930 . S
H1757 C1754 0.929 . S
S1758 N1759 1.613 . S
S1758 N1760 1.610 . S
N1759 S1758 1.613 . S
N1759 C1762 1.350 . S
N1760 S1758 1.610 . S
N1760 C1761 1.351 . S
C1761 C1755 1.428 . S
C1761 N1760 1.351 . S
C1761 C1762 1.434 . S
C1762 C1753 1.429 . S
C1762 N1759 1.350 . S
C1762 C1761 1.434 . S
C1763 C1764 1.369 . S
C1763 C1765 1.419 . S
C1763 H1767 0.930 . S
C1764 C1763 1.369 . S
C1764 C1773 1.429 . S
C1765 C1763 1.419 . S
C1765 C1766 1.363 . S
C1765 H1768 0.929 . S
C1766 C1765 1.363 . S
C1766 C1772 1.428 . S
H1767 C1763 0.930 . S
H1768 C1765 0.929 . S
S1769 N1770 1.613 . S
S1769 N1771 1.610 . S
N1770 S1769 1.613 . S
N1770 C1773 1.350 . S
N1771 S1769 1.610 . S
N1771 C1772 1.351 . S
C1772 C1766 1.428 . S
C1772 N1771 1.351 . S
C1772 C1773 1.434 . S
C1773 C1764 1.429 . S
C1773 N1770 1.350 . S
C1773 C1772 1.434 . S
C1774 C1775 1.369 . S
C1774 C1776 1.419 . S
C1774 H1778 0.930 . S
C1775 C1774 1.369 . S
C1775 C1784 1.429 . S
C1776 C1774 1.419 . S
C1776 C1777 1.363 . S
C1776 H1779 0.929 . S
C1777 C1776 1.363 . S
C1777 C1783 1.428 . S
H1778 C1774 0.930 . S
H1779 C1776 0.929 . S
S1780 N1781 1.613 . S
S1780 N1782 1.610 . S
N1781 S1780 1.613 . S
N1781 C1784 1.350 . S
N1782 S1780 1.610 . S
N1782 C1783 1.351 . S
C1783 C1777 1.428 . S
C1783 N1782 1.351 . S
C1783 C1784 1.434 . S
C1784 C1775 1.429 . S
C1784 N1781 1.350 . S
C1784 C1783 1.434 . S
C1785 C1786 1.369 . S
C1785 C1787 1.419 . S
C1785 H1789 0.930 . S
C1786 C1785 1.369 . S
C1786 C1795 1.429 . S
C1787 C1785 1.419 . S
C1787 C1788 1.363 . S
C1787 H1790 0.929 . S
C1788 C1787 1.363 . S
C1788 C1794 1.428 . S
H1789 C1785 0.930 . S
H1790 C1787 0.929 . S
S1791 N1792 1.613 . S
S1791 N1793 1.610 . S
N1792 S1791 1.613 . S
N1792 C1795 1.350 . S
N1793 S1791 1.610 . S
N1793 C1794 1.351 . S
C1794 C1788 1.428 . S
C1794 N1793 1.351 . S
C1794 C1795 1.434 . S
C1795 C1786 1.429 . S
C1795 N1792 1.350 . S
C1795 C1794 1.434 . S
C1796 C1797 1.369 . S
C1796 C1798 1.419 . S
C1796 H1800 0.930 . S
C1797 C1796 1.369 . S
C1797 C1806 1.429 . S
C1798 C1796 1.419 . S
C1798 C1799 1.363 . S
C1798 H1801 0.929 . S
C1799 C1798 1.363 . S
C1799 C1805 1.428 . S
H1800 C1796 0.930 . S
H1801 C1798 0.929 . S
S1802 N1803 1.613 . S
S1802 N1804 1.610 . S
N1803 S1802 1.613 . S
N1803 C1806 1.350 . S
N1804 S1802 1.610 . S
N1804 C1805 1.351 . S
C1805 C1799 1.428 . S
C1805 N1804 1.351 . S
C1805 C1806 1.434 . S
C1806 C1797 1.429 . S
C1806 N1803 1.350 . S
C1806 C1805 1.434 . S
C1807 C1808 1.369 . S
C1807 C1809 1.419 . S
C1807 H1811 0.930 . S
C1808 C1807 1.369 . S
C1808 C1817 1.429 . S
C1809 C1807 1.419 . S
C1809 C1810 1.363 . S
C1809 H1812 0.929 . S
C1810 C1809 1.363 . S
C1810 C1816 1.428 . S
H1811 C1807 0.930 . S
H1812 C1809 0.929 . S
S1813 N1814 1.613 . S
S1813 N1815 1.610 . S
N1814 S1813 1.613 . S
N1814 C1817 1.350 . S
N1815 S1813 1.610 . S
N1815 C1816 1.351 . S
C1816 C1810 1.428 . S
C1816 N1815 1.351 . S
C1816 C1817 1.434 . S
C1817 C1808 1.429 . S
C1817 N1814 1.350 . S
C1817 C1816 1.434 . S
C1818 C1819 1.369 . S
C1818 C1820 1.419 . S
C1818 H1822 0.930 . S
C1819 C1818 1.369 . S
C1819 C1828 1.429 . S
C1820 C1818 1.419 . S
C1820 C1821 1.363 . S
C1820 H1823 0.929 . S
C1821 C1820 1.363 . S
C1821 C1827 1.428 . S
H1822 C1818 0.930 . S
H1823 C1820 0.929 . S
S1824 N1825 1.613 . S
S1824 N1826 1.610 . S
N1825 S1824 1.613 . S
N1825 C1828 1.350 . S
N1826 S1824 1.610 . S
N1826 C1827 1.351 . S
C1827 C1821 1.428 . S
C1827 N1826 1.351 . S
C1827 C1828 1.434 . S
C1828 C1819 1.429 . S
C1828 N1825 1.350 . S
C1828 C1827 1.434 . S
C1829 C1830 1.369 . S
C1829 C1831 1.419 . S
C1829 H1833 0.930 . S
C1830 C1829 1.369 . S
C1830 C1839 1.429 . S
C1831 C1829 1.419 . S
C1831 C1832 1.363 . S
C1831 H1834 0.929 . S
C1832 C1831 1.363 . S
C1832 C1838 1.428 . S
H1833 C1829 0.930 . S
H1834 C1831 0.929 . S
S1835 N1836 1.613 . S
S1835 N1837 1.610 . S
N1836 S1835 1.613 . S
N1836 C1839 1.350 . S
N1837 S1835 1.610 . S
N1837 C1838 1.351 . S
C1838 C1832 1.428 . S
C1838 N1837 1.351 . S
C1838 C1839 1.434 . S
C1839 C1830 1.429 . S
C1839 N1836 1.350 . S
C1839 C1838 1.434 . S
C1840 C1841 1.369 . S
C1840 C1842 1.419 . S
C1840 H1844 0.930 . S
C1841 C1840 1.369 . S
C1841 C1850 1.429 . S
C1842 C1840 1.419 . S
C1842 C1843 1.363 . S
C1842 H1845 0.929 . S
C1843 C1842 1.363 . S
C1843 C1849 1.428 . S
H1844 C1840 0.930 . S
H1845 C1842 0.929 . S
S1846 N1847 1.613 . S
S1846 N1848 1.610 . S
N1847 S1846 1.613 . S
N1847 C1850 1.350 . S
N1848 S1846 1.610 . S
N1848 C1849 1.351 . S
C1849 C1843 1.428 . S
C1849 N1848 1.351 . S
C1849 C1850 1.434 . S
C1850 C1841 1.429 . S
C1850 N1847 1.350 . S
C1850 C1849 1.434 . S
C1851 C1852 1.369 . S
C1851 C1853 1.419 . S
C1851 H1855 0.930 . S
C1852 C1851 1.369 . S
C1852 C1861 1.429 . S
C1853 C1851 1.419 . S
C1853 C1854 1.363 . S
C1853 H1856 0.929 . S
C1854 C1853 1.363 . S
C1854 C1860 1.428 . S
H1855 C1851 0.930 . S
H1856 C1853 0.929 . S
S1857 N1858 1.613 . S
S1857 N1859 1.610 . S
N1858 S1857 1.613 . S
N1858 C1861 1.350 . S
N1859 S1857 1.610 . S
N1859 C1860 1.351 . S
C1860 C1854 1.428 . S
C1860 N1859 1.351 . S
C1860 C1861 1.434 . S
C1861 C1852 1.429 . S
C1861 N1858 1.350 . S
C1861 C1860 1.434 . S
C1862 C1863 1.369 . S
C1862 C1864 1.419 . S
C1862 H1866 0.930 . S
C1863 C1862 1.369 . S
C1863 C1872 1.429 . S
C1864 C1862 1.419 . S
C1864 C1865 1.363 . S
C1864 H1867 0.929 . S
C1865 C1864 1.363 . S
C1865 C1871 1.428 . S
H1866 C1862 0.930 . S
H1867 C1864 0.929 . S
S1868 N1869 1.613 . S
S1868 N1870 1.610 . S
N1869 S1868 1.613 . S
N1869 C1872 1.350 . S
N1870 S1868 1.610 . S
N1870 C1871 1.351 . S
C1871 C1865 1.428 . S
C1871 N1870 1.351 . S
C1871 C1872 1.434 . S
C1872 C1863 1.429 . S
C1872 N1869 1.350 . S
C1872 C1871 1.434 . S
C1873 C1874 1.369 . S
C1873 C1875 1.419 . S
C1873 H1877 0.930 . S
C1874 C1873 1.369 . S
C1874 C1883 1.429 . S
C1875 C1873 1.419 . S
C1875 C1876 1.363 . S
C1875 H1878 0.929 . S
C1876 C1875 1.363 . S
C1876 C1882 1.428 . S
H1877 C1873 0.930 . S
H1878 C1875 0.929 . S
S1879 N1880 1.613 . S
S1879 N1881 1.610 . S
N1880 S1879 1.613 . S
N1880 C1883 1.350 . S
N1881 S1879 1.610 . S
N1881 C1882 1.351 . S
C1882 C1876 1.428 . S
C1882 N1881 1.351 . S
C1882 C1883 1.434 . S
C1883 C1874 1.429 . S
C1883 N1880 1.350 . S
C1883 C1882 1.434 . S
C1884 C1885 1.369 . S
C1884 C1886 1.419 . S
C1884 H1888 0.930 . S
C1885 C1884 1.369 . S
C1885 C1894 1.429 . S
C1886 C1884 1.419 . S
C1886 C1887 1.363 . S
C1886 H1889 0.929 . S
C1887 C1886 1.363 . S
C1887 C1893 1.428 . S
H1888 C1884 0.930 . S
H1889 C1886 0.929 . S
S1890 N1891 1.613 . S
S1890 N1892 1.610 . S
N1891 S1890 1.613 . S
N1891 C1894 1.350 . S
N1892 S1890 1.610 . S
N1892 C1893 1.351 . S
C1893 C1887 1.428 . S
C1893 N1892 1.351 . S
C1893 C1894 1.434 . S
C1894 C1885 1.429 . S
C1894 N1891 1.350 . S
C1894 C1893 1.434 . S
C1895 C1896 1.369 . S
C1895 C1897 1.419 . S
C1895 H1899 0.930 . S
C1896 C1895 1.369 . S
C1896 C1905 1.429 . S
C1897 C1895 1.419 . S
C1897 C1898 1.363 . S
C1897 H1900 0.929 . S
C1898 C1897 1.363 . S
C1898 C1904 1.428 . S
H1899 C1895 0.930 . S
H1900 C1897 0.929 . S
S1901 N1902 1.613 . S
S1901 N1903 1.610 . S
N1902 S1901 1.613 . S
N1902 C1905 1.350 . S
N1903 S1901 1.610 . S
N1903 C1904 1.351 . S
C1904 C1898 1.428 . S
C1904 N1903 1.351 . S
C1904 C1905 1.434 . S
C1905 C1896 1.429 . S
C1905 N1902 1.350 . S
C1905 C1904 1.434 . S
C1906 C1907 1.369 . S
C1906 C1908 1.419 . S
C1906 H1910 0.930 . S
C1907 C1906 1.369 . S
C1907 C1916 1.429 . S
C1908 C1906 1.419 . S
C1908 C1909 1.363 . S
C1908 H1911 0.929 . S
C1909 C1908 1.363 . S
C1909 C1915 1.428 . S
H1910 C1906 0.930 . S
H1911 C1908 0.929 . S
S1912 N1913 1.613 . S
S1912 N1914 1.610 . S
N1913 S1912 1.613 . S
N1913 C1916 1.350 . S
N1914 S1912 1.610 . S
N1914 C1915 1.351 . S
C1915 C1909 1.428 . S
C1915 N1914 1.351 . S
C1915 C1916 1.434 . S
C1916 C1907 1.429 . S
C1916 N1913 1.350 . S
C1916 C1915 1.434 . S
C1917 C1918 1.369 . S
C1917 C1919 1.419 . S
C1917 H1921 0.930 . S
C1918 C1917 1.369 . S
C1918 C1927 1.429 . S
C1919 C1917 1.419 . S
C1919 C1920 1.363 . S
C1919 H1922 0.929 . S
C1920 C1919 1.363 . S
C1920 C1926 1.428 . S
H1921 C1917 0.930 . S
H1922 C1919 0.929 . S
S1923 N1924 1.613 . S
S1923 N1925 1.610 . S
N1924 S1923 1.613 . S
N1924 C1927 1.350 . S
N1925 S1923 1.610 . S
N1925 C1926 1.351 . S
C1926 C1920 1.428 . S
C1926 N1925 1.351 . S
C1926 C1927 1.434 . S
C1927 C1918 1.429 . S
C1927 N1924 1.350 . S
C1927 C1926 1.434 . S
C1928 C1929 1.369 . S
C1928 C1930 1.419 . S
C1928 H1932 0.930 . S
C1929 C1928 1.369 . S
C1929 C1938 1.429 . S
C1930 C1928 1.419 . S
C1930 C1931 1.363 . S
C1930 H1933 0.929 . S
C1931 C1930 1.363 . S
C1931 C1937 1.428 . S
H1932 C1928 0.930 . S
H1933 C1930 0.929 . S
S1934 N1935 1.613 . S
S1934 N1936 1.610 . S
N1935 S1934 1.613 . S
N1935 C1938 1.350 . S
N1936 S1934 1.610 . S
N1936 C1937 1.351 . S
C1937 C1931 1.428 . S
C1937 N1936 1.351 . S
C1937 C1938 1.434 . S
C1938 C1929 1.429 . S
C1938 N1935 1.350 . S
C1938 C1937 1.434 . S
C1939 C1940 1.369 . S
C1939 C1941 1.419 . S
C1939 H1943 0.930 . S
C1940 C1939 1.369 . S
C1940 C1949 1.429 . S
C1941 C1939 1.419 . S
C1941 C1942 1.363 . S
C1941 H1944 0.929 . S
C1942 C1941 1.363 . S
C1942 C1948 1.428 . S
H1943 C1939 0.930 . S
H1944 C1941 0.929 . S
S1945 N1946 1.613 . S
S1945 N1947 1.610 . S
N1946 S1945 1.613 . S
N1946 C1949 1.350 . S
N1947 S1945 1.610 . S
N1947 C1948 1.351 . S
C1948 C1942 1.428 . S
C1948 N1947 1.351 . S
C1948 C1949 1.434 . S
C1949 C1940 1.429 . S
C1949 N1946 1.350 . S
C1949 C1948 1.434 . S
C1950 C1951 1.369 . S
C1950 C1952 1.419 1_455 S
C1950 H1954 0.930 . S
C1951 C1950 1.369 . S
C1951 C1960 1.429 . S
C1952 C1950 1.419 1_655 S
C1952 C1953 1.363 . S
C1952 H1955 0.929 . S
C1953 C1952 1.363 . S
C1953 C1959 1.428 . S
H1954 C1950 0.930 . S
H1955 C1952 0.929 . S
S1956 N1957 1.613 . S
S1956 N1958 1.610 1_455 S
N1957 S1956 1.613 . S
N1957 C1960 1.350 . S
N1958 S1956 1.610 1_655 S
N1958 C1959 1.351 . S
C1959 C1953 1.428 . S
C1959 N1958 1.351 . S
C1959 C1960 1.434 1_655 S
C1960 C1951 1.429 . S
C1960 N1957 1.350 . S
C1960 C1959 1.434 1_455 S
C1961 C1962 1.369 . S
C1961 C1963 1.419 . S
C1961 H1965 0.930 . S
C1962 C1961 1.369 . S
C1962 C1971 1.429 . S
C1963 C1961 1.419 . S
C1963 C1964 1.363 . S
C1963 H1966 0.929 . S
C1964 C1963 1.363 . S
C1964 C1970 1.428 . S
H1965 C1961 0.930 . S
H1966 C1963 0.929 . S
S1967 N1968 1.613 . S
S1967 N1969 1.610 . S
N1968 S1967 1.613 . S
N1968 C1971 1.350 . S
N1969 S1967 1.610 . S
N1969 C1970 1.351 . S
C1970 C1964 1.428 . S
C1970 N1969 1.351 . S
C1970 C1971 1.434 . S
C1971 C1962 1.429 . S
C1971 N1968 1.350 . S
C1971 C1970 1.434 . S
C1972 C1973 1.369 . S
C1972 C1974 1.419 1_545 S
C1972 H1976 0.930 . S
C1973 C1972 1.369 . S
C1973 C1982 1.429 . S
C1974 C1972 1.419 1_565 S
C1974 C1975 1.363 . S
C1974 H1977 0.929 . S
C1975 C1974 1.363 . S
C1975 C1981 1.428 . S
H1976 C1972 0.930 . S
H1977 C1974 0.929 . S
S1978 N1979 1.613 . S
S1978 N1980 1.610 . S
N1979 S1978 1.613 . S
N1979 C1982 1.350 . S
N1980 S1978 1.610 . S
N1980 C1981 1.351 1_545 S
C1981 C1975 1.428 . S
C1981 N1980 1.351 1_565 S
C1981 C1982 1.434 1_565 S
C1982 C1973 1.429 . S
C1982 N1979 1.350 . S
C1982 C1981 1.434 1_545 S
C1983 C1984 1.369 . S
C1983 C1985 1.419 1_545 S
C1983 H1987 0.930 . S
C1984 C1983 1.369 . S
C1984 C1993 1.429 . S
C1985 C1983 1.419 1_565 S
C1985 C1986 1.363 . S
C1985 H1988 0.929 . S
C1986 C1985 1.363 . S
C1986 C1992 1.428 . S
H1987 C1983 0.930 . S
H1988 C1985 0.929 . S
S1989 N1990 1.613 . S
S1989 N1991 1.610 1_545 S
N1990 S1989 1.613 . S
N1990 C1993 1.350 . S
N1991 S1989 1.610 1_565 S
N1991 C1992 1.351 . S
C1992 C1986 1.428 . S
C1992 N1991 1.351 . S
C1992 C1993 1.434 1_565 S
C1993 C1984 1.429 . S
C1993 N1990 1.350 . S
C1993 C1992 1.434 1_545 S
C1994 C1995 1.369 . S
C1994 C1996 1.419 1_455 S
C1994 H1998 0.930 . S
C1995 C1994 1.369 . S
C1995 C2004 1.429 . S
C1996 C1994 1.419 1_655 S
C1996 C1997 1.363 . S
C1996 H1999 0.929 . S
C1997 C1996 1.363 . S
C1997 C2003 1.428 . S
H1998 C1994 0.930 . S
H1999 C1996 0.929 . S
S2000 N2001 1.613 . S
S2000 N2002 1.610 1_455 S
N2001 S2000 1.613 . S
N2001 C2004 1.350 . S
N2002 S2000 1.610 1_655 S
N2002 C2003 1.351 . S
C2003 C1997 1.428 . S
C2003 N2002 1.351 . S
C2003 C2004 1.434 1_655 S
C2004 C1995 1.429 . S
C2004 N2001 1.350 . S
C2004 C2003 1.434 1_455 S
C2005 C2006 1.369 . S
C2005 C2007 1.419 . S
C2005 H2009 0.930 . S
C2006 C2005 1.369 . S
C2006 C2015 1.429 . S
C2007 C2005 1.419 . S
C2007 C2008 1.363 . S
C2007 H2010 0.929 . S
C2008 C2007 1.363 . S
C2008 C2014 1.428 . S
H2009 C2005 0.930 . S
H2010 C2007 0.929 . S
S2011 N2012 1.613 . S
S2011 N2013 1.610 . S
N2012 S2011 1.613 . S
N2012 C2015 1.350 . S
N2013 S2011 1.610 . S
N2013 C2014 1.351 . S
C2014 C2008 1.428 . S
C2014 N2013 1.351 . S
C2014 C2015 1.434 . S
C2015 C2006 1.429 . S
C2015 N2012 1.350 . S
C2015 C2014 1.434 . S
C829 C17 1.566 . S
C831 C181 1.416 . S
C840 C40 1.568 . S
C842 C204 1.417 . S
C851 C63 1.573 . S
C853 C158 1.408 . S
C862 C86 1.568 . S
C864 C273 1.416 . S
C873 C227 1.416 . S
C875 C109 1.567 . S
C884 C250 1.415 . S
C886 C132 1.570 . S
C895 C43 1.406 . S
C897 C155 1.572 . S
C906 C178 1.566 . S
C908 C66 1.418 . S
C917 C201 1.566 . S
C919 C20 1.418 . S
C928 C135 1.407 . S
C930 C224 1.571 . S
C939 C247 1.566 . S
C941 C89 1.418 . S
C950 C270 1.566 . S
C952 C112 1.418 . S
C961 C293 1.564 . S
C963 C457 1.420 . S
C972 C316 1.573 . S
C974 C480 1.409 . S
C983 C434 1.416 . S
C985 C339 1.568 . S
C994 C549 1.409 . S
C996 C362 1.571 . S
C1005 C503 1.407 . S
C1007 C385 1.572 . S
C1016 C408 1.573 . S
C1018 C526 1.410 . S
C1027 C319 1.422 . S
C1029 C431 1.565 . S
C1038 C342 1.418 . S
C1040 C454 1.567 . S
C1049 C296 1.420 . S
C1051 C477 1.566 . S
C1060 C411 1.420 . S
C1062 C500 1.566 . S
C1071 C523 1.570 . S
C1073 C365 1.412 . S
C1082 C388 1.414 . S
C1084 C546 1.569 . S
C1093 C569 1.571 . S
C1095 C733 1.412 . S
C1104 C756 1.422 . S
C1106 C592 1.565 . S
C1115 C615 1.572 . S
C1117 C710 1.409 . S
C1126 C638 1.564 . S
C1128 C825 1.419 . S
C1137 C779 1.421 . S
C1139 C661 1.566 . S
C1148 C802 1.411 . S
C1150 C684 1.569 . S
C1159 C707 1.568 . S
C1161 C595 1.414 . S
C1170 C730 1.573 . S
C1172 C618 1.408 . S
C1181 C753 1.564 . S
C1183 C572 1.420 . S
C1192 C687 1.407 . S
C1194 C776 1.572 . S
C1203 C641 1.413 . S
C1205 C799 1.569 . S
C1214 C664 1.407 . S
C1216 C822 1.572 . S
C1225 C19 1.286 . S
C1227 C64 1.440 . S
C1236 C42 1.283 . S
C1238 C18 1.440 . S
C1247 C41 1.442 . S
C1249 C65 1.288 . S
C1258 C110 1.448 . S
C1260 C88 1.274 . S
C1269 C111 1.273 . S
C1271 C133 1.445 . S
C1280 C87 1.442 . S
C1282 C134 1.278 . S
C1291 C157 1.275 . S
C1293 C202 1.444 . S
C1302 C180 1.281 . S
C1304 C156 1.441 . S
C1313 C203 1.272 . S
C1315 C179 1.447 . S
C1324 C248 1.448 . S
C1326 C226 1.274 . S
C1335 C249 1.286 . S
C1337 C271 1.445 . S
C1346 C225 1.448 . S
C1348 C272 1.274 . S
C1357 C340 1.443 . S
C1359 C295 1.288 . S
C1368 C318 1.290 . S
C1370 C294 1.441 . S
C1379 C341 1.275 . S
C1381 C317 1.443 . S
C1390 C364 1.290 . S
C1392 C386 1.443 . S
C1401 C409 1.445 . S
C1403 C387 1.275 . S
C1412 C410 1.287 . S
C1414 C363 1.440 . S
C1423 C433 1.272 . S
C1425 C478 1.448 . S
C1434 C456 1.273 . S
C1436 C432 1.446 . S
C1445 C455 1.447 . S
C1447 C479 1.282 . S
C1456 C524 1.449 . S
C1458 C502 1.279 . S
C1467 C525 1.282 . S
C1469 C547 1.447 . S
C1478 C548 1.275 . S
C1480 C501 1.448 . S
C1489 C616 1.439 . S
C1491 C571 1.285 . S
C1500 C594 1.274 . S
C1502 C570 1.448 . S
C1511 C617 1.272 . S
C1513 C593 1.447 . S
C1522 C662 1.450 . S
C1524 C640 1.279 . S
C1533 C663 1.289 . S
C1535 C685 1.440 . S
C1544 C686 1.283 . S
C1546 C639 1.440 . S
C1555 C709 1.290 . S
C1557 C754 1.443 . S
C1566 C732 1.274 . S
C1568 C708 1.448 . S
C1577 C731 1.439 . S
C1579 C755 1.284 . S
C1588 C800 1.449 . S
C1590 C778 1.279 . S
C1599 C823 1.449 . S
C1601 C801 1.274 . S
C1610 C777 1.447 . S
C1612 C824 1.275 . S
C1621 C108 1.688 1_455 S
C1623 C16 1.691 1_655 S
C1632 C131 1.689 . S
C1634 C39 1.690 . S
C1643 C85 1.692 1_565 S
C1645 C62 1.688 1_545 S
C1654 C246 1.695 1_655 S
C1656 C154 1.693 1_455 S
C1665 C269 1.690 . S
C1667 C177 1.688 . S
C1676 C200 1.687 1_565 S
C1678 C223 1.692 1_545 S
C1687 C384 1.691 . S
C1689 C292 1.695 . S
C1698 C407 1.690 . S
C1700 C315 1.695 . S
C1709 C338 1.693 . S
C1711 C361 1.688 . S
C1720 C522 1.687 . S
C1722 C430 1.691 . S
C1731 C453 1.688 . S
C1733 C545 1.690 . S
C1742 C499 1.691 . S
C1744 C476 1.695 . S
C1753 C568 1.694 . S
C1755 C660 1.688 . S
C1764 C683 1.694 . S
C1766 C591 1.693 . S
C1775 C637 1.688 . S
C1777 C614 1.691 . S
C1786 C798 1.696 . S
C1788 C706 1.690 . S
C1797 C821 1.691 . S
C1799 C729 1.688 . S
C1808 C775 1.688 . S
C1810 C752 1.694 . S
C1819 C688 1.352 . S
C1821 C21 1.350 . S
C1830 C44 1.360 . S
C1832 C642 1.347 . S
C1841 C67 1.354 . S
C1843 C665 1.349 . S
C1852 C90 1.345 . S
C1854 C320 1.357 . S
C1863 C113 1.346 . S
C1865 C343 1.359 . S
C1874 C136 1.357 . S
C1876 C297 1.347 . S
C1885 C550 1.358 . S
C1887 C159 1.350 . S
C1896 C504 1.348 . S
C1898 C182 1.352 . S
C1907 C527 1.353 . S
C1909 C205 1.355 . S
C1918 C228 1.360 . S
C1920 C734 1.348 . S
C1929 C251 1.357 . S
C1931 C757 1.352 . S
C1940 C711 1.356 . S
C1942 C274 1.347 . S
C1951 C596 1.350 . S
C1953 C366 1.356 . S
C1962 C619 1.350 . S
C1964 C389 1.353 . S
C1973 C412 1.346 . S
C1975 C573 1.358 . S
C1984 C435 1.346 . S
C1986 C826 1.354 . S
C1995 C780 1.348 . S
C1997 C458 1.353 . S
C2006 C803 1.355 . S
C2008 C481 1.348 . S
