# Generated by pormake.
# Topology wne, (6)-cn, num edge types: 1
# Building blocks:
#     Node 0, Type 0, BuildingBlock: UKALOJ_clean_sbu_0, # of connection points: 6
#     Node 1, Type 0, BuildingBlock: UKALOJ_clean_sbu_0, # of connection points: 6
#     Node 2, Type 0, BuildingBlock: UKALOJ_clean_sbu_0, # of connection points: 6
#     Node 3, Type 0, BuildingBlock: UKALOJ_clean_sbu_0, # of connection points: 6
#     Node 4, Type 0, BuildingBlock: UKALOJ_clean_sbu_0, # of connection points: 6
#     Node 5, Type 0, BuildingBlock: UKALOJ_clean_sbu_0, # of connection points: 6
#     Node 6, Type 0, BuildingBlock: UKALOJ_clean_sbu_0, # of connection points: 6
#     Node 7, Type 0, BuildingBlock: UKALOJ_clean_sbu_0, # of connection points: 6
#     Node 8, Type 0, BuildingBlock: UKALOJ_clean_sbu_0, # of connection points: 6
#     Node 9, Type 0, BuildingBlock: UKALOJ_clean_sbu_0, # of connection points: 6
#     Node 10, Type 0, BuildingBlock: UKALOJ_clean_sbu_0, # of connection points: 6
#     Node 11, Type 0, BuildingBlock: UKALOJ_clean_sbu_0, # of connection points: 6
#     Node 12, Type 0, BuildingBlock: UKALOJ_clean_sbu_0, # of connection points: 6
#     Node 13, Type 0, BuildingBlock: UKALOJ_clean_sbu_0, # of connection points: 6
#     Node 14, Type 0, BuildingBlock: UKALOJ_clean_sbu_0, # of connection points: 6
#     Node 15, Type 0, BuildingBlock: UKALOJ_clean_sbu_0, # of connection points: 6
#     Node 16, Type 0, BuildingBlock: UKALOJ_clean_sbu_0, # of connection points: 6
#     Node 17, Type 0, BuildingBlock: UKALOJ_clean_sbu_0, # of connection points: 6
#     Node 18, Type 0, BuildingBlock: UKALOJ_clean_sbu_0, # of connection points: 6
#     Node 19, Type 0, BuildingBlock: UKALOJ_clean_sbu_0, # of connection points: 6
#     Node 20, Type 0, BuildingBlock: UKALOJ_clean_sbu_0, # of connection points: 6
#     Node 21, Type 0, BuildingBlock: UKALOJ_clean_sbu_0, # of connection points: 6
#     Node 22, Type 0, BuildingBlock: UKALOJ_clean_sbu_0, # of connection points: 6
#     Node 23, Type 0, BuildingBlock: UKALOJ_clean_sbu_0, # of connection points: 6
#     Node 24, Type 0, BuildingBlock: UKALOJ_clean_sbu_0, # of connection points: 6
#     Node 25, Type 0, BuildingBlock: UKALOJ_clean_sbu_0, # of connection points: 6
#     Node 26, Type 0, BuildingBlock: UKALOJ_clean_sbu_0, # of connection points: 6
#     Node 27, Type 0, BuildingBlock: UKALOJ_clean_sbu_0, # of connection points: 6
#     Node 28, Type 0, BuildingBlock: UKALOJ_clean_sbu_0, # of connection points: 6
#     Node 29, Type 0, BuildingBlock: UKALOJ_clean_sbu_0, # of connection points: 6
#     Node 30, Type 0, BuildingBlock: UKALOJ_clean_sbu_0, # of connection points: 6
#     Node 31, Type 0, BuildingBlock: UKALOJ_clean_sbu_0, # of connection points: 6
#     Node 32, Type 0, BuildingBlock: UKALOJ_clean_sbu_0, # of connection points: 6
#     Node 33, Type 0, BuildingBlock: UKALOJ_clean_sbu_0, # of connection points: 6
#     Node 34, Type 0, BuildingBlock: UKALOJ_clean_sbu_0, # of connection points: 6
#     Node 35, Type 0, BuildingBlock: UKALOJ_clean_sbu_0, # of connection points: 6
#     Edge 36, Type (0, 0), BuildingBlock: AJUNOK_clean_linker_0, # of connection points: 2
#     Edge 37, Type (0, 0), BuildingBlock: AJUNOK_clean_linker_0, # of connection points: 2
#     Edge 38, Type (0, 0), BuildingBlock: AJUNOK_clean_linker_0, # of connection points: 2
#     Edge 39, Type (0, 0), BuildingBlock: AJUNOK_clean_linker_0, # of connection points: 2
#     Edge 40, Type (0, 0), BuildingBlock: AJUNOK_clean_linker_0, # of connection points: 2
#     Edge 41, Type (0, 0), BuildingBlock: AJUNOK_clean_linker_0, # of connection points: 2
#     Edge 42, Type (0, 0), BuildingBlock: AJUNOK_clean_linker_0, # of connection points: 2
#     Edge 43, Type (0, 0), BuildingBlock: AJUNOK_clean_linker_0, # of connection points: 2
#     Edge 44, Type (0, 0), BuildingBlock: AJUNOK_clean_linker_0, # of connection points: 2
#     Edge 45, Type (0, 0), BuildingBlock: AJUNOK_clean_linker_0, # of connection points: 2
#     Edge 46, Type (0, 0), BuildingBlock: AJUNOK_clean_linker_0, # of connection points: 2
#     Edge 47, Type (0, 0), BuildingBlock: AJUNOK_clean_linker_0, # of connection points: 2
#     Edge 48, Type (0, 0), BuildingBlock: AJUNOK_clean_linker_0, # of connection points: 2
#     Edge 49, Type (0, 0), BuildingBlock: AJUNOK_clean_linker_0, # of connection points: 2
#     Edge 50, Type (0, 0), BuildingBlock: AJUNOK_clean_linker_0, # of connection points: 2
#     Edge 51, Type (0, 0), BuildingBlock: AJUNOK_clean_linker_0, # of connection points: 2
#     Edge 52, Type (0, 0), BuildingBlock: AJUNOK_clean_linker_0, # of connection points: 2
#     Edge 53, Type (0, 0), BuildingBlock: AJUNOK_clean_linker_0, # of connection points: 2
#     Edge 54, Type (0, 0), BuildingBlock: AJUNOK_clean_linker_0, # of connection points: 2
#     Edge 55, Type (0, 0), BuildingBlock: AJUNOK_clean_linker_0, # of connection points: 2
#     Edge 56, Type (0, 0), BuildingBlock: AJUNOK_clean_linker_0, # of connection points: 2
#     Edge 57, Type (0, 0), BuildingBlock: AJUNOK_clean_linker_0, # of connection points: 2
#     Edge 58, Type (0, 0), BuildingBlock: AJUNOK_clean_linker_0, # of connection points: 2
#     Edge 59, Type (0, 0), BuildingBlock: AJUNOK_clean_linker_0, # of connection points: 2
#     Edge 60, Type (0, 0), BuildingBlock: AJUNOK_clean_linker_0, # of connection points: 2
#     Edge 61, Type (0, 0), BuildingBlock: AJUNOK_clean_linker_0, # of connection points: 2
#     Edge 62, Type (0, 0), BuildingBlock: AJUNOK_clean_linker_0, # of connection points: 2
#     Edge 63, Type (0, 0), BuildingBlock: AJUNOK_clean_linker_0, # of connection points: 2
#     Edge 64, Type (0, 0), BuildingBlock: AJUNOK_clean_linker_0, # of connection points: 2
#     Edge 65, Type (0, 0), BuildingBlock: AJUNOK_clean_linker_0, # of connection points: 2
#     Edge 66, Type (0, 0), BuildingBlock: AJUNOK_clean_linker_0, # of connection points: 2
#     Edge 67, Type (0, 0), BuildingBlock: AJUNOK_clean_linker_0, # of connection points: 2
#     Edge 68, Type (0, 0), BuildingBlock: AJUNOK_clean_linker_0, # of connection points: 2
#     Edge 69, Type (0, 0), BuildingBlock: AJUNOK_clean_linker_0, # of connection points: 2
#     Edge 70, Type (0, 0), BuildingBlock: AJUNOK_clean_linker_0, # of connection points: 2
#     Edge 71, Type (0, 0), BuildingBlock: AJUNOK_clean_linker_0, # of connection points: 2
#     Edge 72, Type (0, 0), BuildingBlock: AJUNOK_clean_linker_0, # of connection points: 2
#     Edge 73, Type (0, 0), BuildingBlock: AJUNOK_clean_linker_0, # of connection points: 2
#     Edge 74, Type (0, 0), BuildingBlock: AJUNOK_clean_linker_0, # of connection points: 2
#     Edge 75, Type (0, 0), BuildingBlock: AJUNOK_clean_linker_0, # of connection points: 2
#     Edge 76, Type (0, 0), BuildingBlock: AJUNOK_clean_linker_0, # of connection points: 2
#     Edge 77, Type (0, 0), BuildingBlock: AJUNOK_clean_linker_0, # of connection points: 2
#     Edge 78, Type (0, 0), BuildingBlock: AJUNOK_clean_linker_0, # of connection points: 2
#     Edge 79, Type (0, 0), BuildingBlock: AJUNOK_clean_linker_0, # of connection points: 2
#     Edge 80, Type (0, 0), BuildingBlock: AJUNOK_clean_linker_0, # of connection points: 2
#     Edge 81, Type (0, 0), BuildingBlock: AJUNOK_clean_linker_0, # of connection points: 2
#     Edge 82, Type (0, 0), BuildingBlock: AJUNOK_clean_linker_0, # of connection points: 2
#     Edge 83, Type (0, 0), BuildingBlock: AJUNOK_clean_linker_0, # of connection points: 2
#     Edge 84, Type (0, 0), BuildingBlock: AJUNOK_clean_linker_0, # of connection points: 2
#     Edge 85, Type (0, 0), BuildingBlock: AJUNOK_clean_linker_0, # of connection points: 2
#     Edge 86, Type (0, 0), BuildingBlock: AJUNOK_clean_linker_0, # of connection points: 2
#     Edge 87, Type (0, 0), BuildingBlock: AJUNOK_clean_linker_0, # of connection points: 2
#     Edge 88, Type (0, 0), BuildingBlock: AJUNOK_clean_linker_0, # of connection points: 2
#     Edge 89, Type (0, 0), BuildingBlock: AJUNOK_clean_linker_0, # of connection points: 2
#     Edge 90, Type (0, 0), BuildingBlock: AJUNOK_clean_linker_0, # of connection points: 2
#     Edge 91, Type (0, 0), BuildingBlock: AJUNOK_clean_linker_0, # of connection points: 2
#     Edge 92, Type (0, 0), BuildingBlock: AJUNOK_clean_linker_0, # of connection points: 2
#     Edge 93, Type (0, 0), BuildingBlock: AJUNOK_clean_linker_0, # of connection points: 2
#     Edge 94, Type (0, 0), BuildingBlock: AJUNOK_clean_linker_0, # of connection points: 2
#     Edge 95, Type (0, 0), BuildingBlock: AJUNOK_clean_linker_0, # of connection points: 2
#     Edge 96, Type (0, 0), BuildingBlock: AJUNOK_clean_linker_0, # of connection points: 2
#     Edge 97, Type (0, 0), BuildingBlock: AJUNOK_clean_linker_0, # of connection points: 2
#     Edge 98, Type (0, 0), BuildingBlock: AJUNOK_clean_linker_0, # of connection points: 2
#     Edge 99, Type (0, 0), BuildingBlock: AJUNOK_clean_linker_0, # of connection points: 2
#     Edge 100, Type (0, 0), BuildingBlock: AJUNOK_clean_linker_0, # of connection points: 2
#     Edge 101, Type (0, 0), BuildingBlock: AJUNOK_clean_linker_0, # of connection points: 2
#     Edge 102, Type (0, 0), BuildingBlock: AJUNOK_clean_linker_0, # of connection points: 2
#     Edge 103, Type (0, 0), BuildingBlock: AJUNOK_clean_linker_0, # of connection points: 2
#     Edge 104, Type (0, 0), BuildingBlock: AJUNOK_clean_linker_0, # of connection points: 2
#     Edge 105, Type (0, 0), BuildingBlock: AJUNOK_clean_linker_0, # of connection points: 2
#     Edge 106, Type (0, 0), BuildingBlock: AJUNOK_clean_linker_0, # of connection points: 2
#     Edge 107, Type (0, 0), BuildingBlock: AJUNOK_clean_linker_0, # of connection points: 2
#     Edge 108, Type (0, 0), BuildingBlock: AJUNOK_clean_linker_0, # of connection points: 2
#     Edge 109, Type (0, 0), BuildingBlock: AJUNOK_clean_linker_0, # of connection points: 2
#     Edge 110, Type (0, 0), BuildingBlock: AJUNOK_clean_linker_0, # of connection points: 2
#     Edge 111, Type (0, 0), BuildingBlock: AJUNOK_clean_linker_0, # of connection points: 2
#     Edge 112, Type (0, 0), BuildingBlock: AJUNOK_clean_linker_0, # of connection points: 2
#     Edge 113, Type (0, 0), BuildingBlock: AJUNOK_clean_linker_0, # of connection points: 2
#     Edge 114, Type (0, 0), BuildingBlock: AJUNOK_clean_linker_0, # of connection points: 2
#     Edge 115, Type (0, 0), BuildingBlock: AJUNOK_clean_linker_0, # of connection points: 2
#     Edge 116, Type (0, 0), BuildingBlock: AJUNOK_clean_linker_0, # of connection points: 2
#     Edge 117, Type (0, 0), BuildingBlock: AJUNOK_clean_linker_0, # of connection points: 2
#     Edge 118, Type (0, 0), BuildingBlock: AJUNOK_clean_linker_0, # of connection points: 2
#     Edge 119, Type (0, 0), BuildingBlock: AJUNOK_clean_linker_0, # of connection points: 2
#     Edge 120, Type (0, 0), BuildingBlock: AJUNOK_clean_linker_0, # of connection points: 2
#     Edge 121, Type (0, 0), BuildingBlock: AJUNOK_clean_linker_0, # of connection points: 2
#     Edge 122, Type (0, 0), BuildingBlock: AJUNOK_clean_linker_0, # of connection points: 2
#     Edge 123, Type (0, 0), BuildingBlock: AJUNOK_clean_linker_0, # of connection points: 2
#     Edge 124, Type (0, 0), BuildingBlock: AJUNOK_clean_linker_0, # of connection points: 2
#     Edge 125, Type (0, 0), BuildingBlock: AJUNOK_clean_linker_0, # of connection points: 2
#     Edge 126, Type (0, 0), BuildingBlock: AJUNOK_clean_linker_0, # of connection points: 2
#     Edge 127, Type (0, 0), BuildingBlock: AJUNOK_clean_linker_0, # of connection points: 2
#     Edge 128, Type (0, 0), BuildingBlock: AJUNOK_clean_linker_0, # of connection points: 2
#     Edge 129, Type (0, 0), BuildingBlock: AJUNOK_clean_linker_0, # of connection points: 2
#     Edge 130, Type (0, 0), BuildingBlock: AJUNOK_clean_linker_0, # of connection points: 2
#     Edge 131, Type (0, 0), BuildingBlock: AJUNOK_clean_linker_0, # of connection points: 2
#     Edge 132, Type (0, 0), BuildingBlock: AJUNOK_clean_linker_0, # of connection points: 2
#     Edge 133, Type (0, 0), BuildingBlock: AJUNOK_clean_linker_0, # of connection points: 2
#     Edge 134, Type (0, 0), BuildingBlock: AJUNOK_clean_linker_0, # of connection points: 2
#     Edge 135, Type (0, 0), BuildingBlock: AJUNOK_clean_linker_0, # of connection points: 2
#     Edge 136, Type (0, 0), BuildingBlock: AJUNOK_clean_linker_0, # of connection points: 2
#     Edge 137, Type (0, 0), BuildingBlock: AJUNOK_clean_linker_0, # of connection points: 2
#     Edge 138, Type (0, 0), BuildingBlock: AJUNOK_clean_linker_0, # of connection points: 2
#     Edge 139, Type (0, 0), BuildingBlock: AJUNOK_clean_linker_0, # of connection points: 2
#     Edge 140, Type (0, 0), BuildingBlock: AJUNOK_clean_linker_0, # of connection points: 2
#     Edge 141, Type (0, 0), BuildingBlock: AJUNOK_clean_linker_0, # of connection points: 2
#     Edge 142, Type (0, 0), BuildingBlock: AJUNOK_clean_linker_0, # of connection points: 2
#     Edge 143, Type (0, 0), BuildingBlock: AJUNOK_clean_linker_0, # of connection points: 2
# Relax obj value: 0.237
# Max RMSD: 0.189
# Mean RMSD: 0.189
data_MOF--net-wne--node1-UKALOJ_clean_sbu_0--edge1-AJUNOK_clean_linker_0
_symmetry_space_group_name_H-M    P1
_symmetry_Int_Tables_number       1
_symmetry_cell_setting            triclinic
loop_
_symmetry_equiv_pos_as_xyz
'x, y, z'
_cell_length_a     56.013119
_cell_length_b     55.985223
_cell_length_c     28.449676
_cell_angle_alpha  90.104563
_cell_angle_beta   90.032708
_cell_angle_gamma 120.01082
loop_
_atom_site_label
_atom_site_type_symbol
_atom_site_fract_x
_atom_site_fract_y
_atom_site_fract_z
_atom_type_partial_charge
Zn0 Zn 0.24752 0.225 0.0632 0.0
O1 O 0.25998 0.26679 0.07373 0.0
C2 C 0.23564 0.21267 0.17013 0.0
Zn3 Zn 0.28356 0.23177 0.106 0.0
C4 C 0.27945 0.28176 0.10166 0.0
O5 O 0.29261 0.27188 0.12249 0.0
C6 C 0.2519 0.17341 0.06612 0.0
O7 O 0.30917 0.24777 0.04718 0.0
O8 O 0.27538 0.23823 0.99846 0.0
N9 N 0.31595 0.2375 0.14436 0.0
C10 C 0.33198 0.22628 0.1381 0.0
C11 C 0.33506 0.23789 0.21002 0.0
N12 N 0.31852 0.24557 0.18873 0.0
N13 N 0.34366 0.22562 0.17897 0.0
C14 C 0.19291 0.22664 0.03605 0.0
C15 C 0.18683 0.21405 0.96444 0.0
N16 N 0.21297 0.22066 0.02495 0.0
N17 N 0.20894 0.21282 0.98032 0.0
N18 N 0.17609 0.22246 0.99877 0.0
H19 H 0.18129 0.25126 0.07826 0.0
H20 H 0.17738 0.22066 0.10594 0.0
H21 H 0.21119 0.25015 0.09933 0.0
C22 C 0.19074 0.23807 0.08246 0.0
C23 C 0.33249 0.21115 0.09463 0.0
H24 H 0.32458 0.2164 0.06323 0.0
H25 H 0.35395 0.21597 0.08771 0.0
H26 H 0.32001 0.18858 0.10054 0.0
O27 O 0.2733 0.19021 0.08918 0.0
O28 O 0.23588 0.18183 0.05111 0.0
C29 C 0.30137 0.24806 1.00559 0.0
O30 O 0.22382 0.21417 0.1324 0.0
O31 O 0.26008 0.21731 0.16699 0.0
Zn32 Zn 0.79142 0.05699 0.10588 0.0
O33 O 0.77576 0.06675 0.0469 0.0
C34 C 0.84896 0.08133 0.06737 0.0
Zn35 Zn 0.79553 0.02534 0.06564 0.0
C36 C 0.77442 0.0575 1.00585 0.0
O37 O 0.78321 0.04035 0.99961 0.0
C38 C 0.80811 0.02654 0.17196 0.0
O39 O 0.75311 0.99674 0.07534 0.0
O40 O 0.75132 0.02718 0.12163 0.0
N41 N 0.80048 0.99497 0.02935 0.0
C42 C 0.78884 0.96729 0.0355 0.0
C43 C 0.8189 0.97853 0.98168 0.0
N44 N 0.81915 1.00173 0.9958 0.0
N45 N 0.80005 0.95647 1.00602 0.0
C46 C 0.79739 0.11111 0.13816 0.0
C47 C 0.7854 0.10247 0.20983 0.0
N48 N 0.786 0.08385 0.14412 0.0
N49 N 0.77763 0.07827 0.18828 0.0
N50 N 0.79813 0.12343 0.17914 0.0
H51 H 0.80832 0.11337 0.06388 0.0
H52 H 0.8063 0.1423 0.08655 0.0
H53 H 0.83488 0.13817 0.10188 0.0
C54 C 0.81241 0.12673 0.09481 0.0
C55 C 0.76765 0.95116 0.07218 0.0
H56 H 0.77052 0.96406 0.10355 0.0
H57 H 0.74684 0.94426 0.05746 0.0
H58 H 0.76875 0.93268 0.08281 0.0
O59 O 0.80506 0.01208 0.13503 0.0
O60 O 0.8055 0.04759 0.1677 0.0
C61 C 0.73942 1.00376 0.10173 0.0
O62 O 0.83296 0.08769 0.08872 0.0
O63 O 0.83943 0.05621 0.05492 0.0
Zn64 Zn 0.99603 0.77469 0.06218 0.0
O65 O 0.02433 0.76044 0.07418 0.0
C66 C 0.99503 0.78661 0.16917 0.0
Zn67 Zn 0.96521 0.73943 0.10404 0.0
C68 C 0.01754 0.73983 0.1008 0.0
O69 O 0.99405 0.72809 0.12028 0.0
C70 C 0.94091 0.77278 0.06412 0.0
O71 O 0.95562 0.71427 0.04515 0.0
O72 O 0.98167 0.7471 0.99645 0.0
N73 N 0.93668 0.70708 0.13954 0.0
C74 C 0.90957 0.69252 0.13037 0.0
C75 C 0.91515 0.68683 0.20261 0.0
N76 N 0.94033 0.70289 0.18407 0.0
N77 N 0.89554 0.68033 0.16962 0.0
C78 C 0.05325 0.82841 0.0343 0.0
C79 C 0.0432 0.83852 0.96804 0.0
N80 N 0.0265 0.80933 0.0252 0.0
N81 N 0.02048 0.81592 0.984 0.0
N82 N 0.06436 0.84707 0.9987 0.0
H83 H 0.08985 0.83362 0.0685 0.0
H84 H 0.06941 0.84391 0.10266 0.0
H85 H 0.05789 0.80808 0.09534 0.0
C86 C 0.06847 0.82829 0.07753 0.0
C87 C 0.89582 0.69368 0.08551 0.0
H88 H 0.91011 0.70328 0.05598 0.0
H89 H 0.8801 0.67244 0.07495 0.0
H90 H 0.8848 0.70526 0.09171 0.0
O91 O 0.93563 0.75145 0.08759 0.0
O92 O 0.96544 0.78788 0.04881 0.0
C93 C 0.96477 0.72133 1.004 0.0
O94 O 1.00889 0.79809 0.13174 0.0
O95 O 0.97463 0.76247 0.16576 0.0
Zn96 Zn 0.23144 0.24348 0.47246 0.0
O97 O 0.2737 0.25685 0.46083 0.0
C98 C 0.21858 0.23014 0.36548 0.0
Zn99 Zn 0.23583 0.27815 0.42848 0.0
C100 C 0.2878 0.27714 0.4338 0.0
O101 O 0.27634 0.28913 0.41426 0.0
C102 C 0.17805 0.2454 0.46788 0.0
O103 O 0.25028 0.30398 0.48725 0.0
O104 O 0.24495 0.27198 0.53685 0.0
N105 N 0.24114 0.31016 0.38988 0.0
C106 C 0.22924 0.32561 0.39494 0.0
C107 C 0.24554 0.33205 0.32561 0.0
N108 N 0.25205 0.31473 0.34729 0.0
N109 N 0.23104 0.33903 0.35477 0.0
C110 C 0.23883 0.19293 0.50442 0.0
C111 C 0.20935 0.17469 0.55924 0.0
N112 N 0.22697 0.2088 0.51011 0.0
N113 N 0.20864 0.19724 0.54425 0.0
N114 N 0.22821 0.17146 0.53497 0.0
H115 H 0.25519 0.20554 0.43461 0.0
H116 H 0.28038 0.21285 0.47972 0.0
H117 H 0.2594 0.17801 0.45878 0.0
C118 C 0.2595 0.19744 0.46704 0.0
C119 C 0.21218 0.32464 0.43657 0.0
H120 H 0.2154 0.31484 0.46758 0.0
H121 H 0.21754 0.34589 0.44665 0.0
H122 H 0.19 0.31328 0.4269 0.0
O123 O 0.19389 0.2662 0.44296 0.0
O124 O 0.18779 0.23103 0.4854 0.0
C125 C 0.25284 0.29752 0.5287 0.0
O126 O 0.2205 0.21907 0.40378 0.0
O127 O 0.22287 0.2545 0.36736 0.0
Zn128 Zn 0.77867 0.99247 0.47545 0.0
O129 O 0.7646 0.02094 0.46376 0.0
C130 C 0.78921 0.99204 0.36814 0.0
Zn131 Zn 0.74288 0.96042 0.43498 0.0
C132 C 0.74241 0.0128 0.44069 0.0
O133 O 0.72987 0.98855 0.42391 0.0
C134 C 0.77784 0.93749 0.4704 0.0
O135 O 0.71883 0.94819 0.4962 0.0
O136 O 0.75178 0.97854 0.54135 0.0
N137 N 0.71028 0.9323 0.39894 0.0
C138 C 0.6955 0.90499 0.40589 0.0
C139 C 0.687 0.91287 0.33651 0.0
N140 N 0.70448 0.93737 0.3563 0.0
N141 N 0.68103 0.89226 0.36705 0.0
C142 C 0.83081 0.05051 0.50398 0.0
C143 C 0.84776 0.03956 0.56132 0.0
N144 N 0.81392 0.02308 0.51144 0.0
N145 N 0.82468 0.01651 0.54719 0.0
N146 N 0.8522 0.06133 0.53479 0.0
H147 H 0.81382 0.05265 0.4369 0.0
H148 H 0.8182 0.07842 0.47945 0.0
H149 H 0.84779 0.08133 0.44991 0.0
C150 C 0.82739 0.06645 0.46497 0.0
C151 C 0.69877 0.88988 0.44694 0.0
H152 H 0.70917 0.90331 0.47728 0.0
H153 H 0.67823 0.87323 0.45851 0.0
H154 H 0.71079 0.87999 0.43579 0.0
O155 O 0.75663 0.93191 0.44625 0.0
O156 O 0.79182 0.96163 0.48817 0.0
C157 C 0.72661 0.95907 0.5363 0.0
O158 O 0.80149 1.00496 0.40591 0.0
O159 O 0.76484 0.97202 0.37156 0.0
Zn160 Zn 0.03034 0.79114 0.47121 0.0
O161 O 1.00169 0.74849 0.46018 0.0
C162 C 0.02949 0.80315 0.36496 0.0
Zn163 Zn 0.06156 0.78725 0.4288 0.0
C164 C 1.00914 0.73453 0.43528 0.0
O165 O 0.03266 0.74638 0.41596 0.0
C166 C 0.0855 0.84511 0.46681 0.0
O167 O 0.07401 0.77364 0.4876 0.0
O168 O 0.04601 0.77821 0.53538 0.0
N169 N 0.08825 0.78248 0.38914 0.0
C170 C 0.11568 0.79455 0.39343 0.0
C171 C 0.1053 0.77905 0.32355 0.0
N172 N 0.08162 0.77211 0.34615 0.0
N173 N 0.12693 0.79308 0.3526 0.0
C174 C 0.97371 0.78822 0.50047 0.0
C175 C 0.98239 0.80436 0.56997 0.0
N176 N 1.00014 0.79494 0.51014 0.0
N177 N 1.00532 0.80505 0.55341 0.0
N178 N 0.96207 0.79395 0.53749 0.0
H179 H 0.96867 0.76463 0.4373 0.0
H180 H 0.93697 0.7599 0.46269 0.0
H181 H 0.95975 0.79123 0.43219 0.0
C182 C 0.95895 0.77503 0.45562 0.0
C183 C 0.13221 0.81221 0.4343 0.0
H184 H 0.11986 0.80778 0.46662 0.0
H185 H 0.14983 0.80893 0.44142 0.0
H186 H 0.14086 0.83429 0.42519 0.0
O187 O 0.09103 0.82943 0.44246 0.0
O188 O 0.06124 0.83507 0.48386 0.0
C189 C 0.06432 0.77103 0.5286 0.0
O190 O 0.0164 0.80153 0.40299 0.0
O191 O 0.04979 0.79926 0.36762 0.0
Zn192 Zn 0.77753 0.78984 0.97071 0.0
O193 O 0.76457 0.7478 0.95789 0.0
C194 C 0.7905 0.80434 0.8656 0.0
Zn195 Zn 0.74216 0.78617 0.93001 0.0
C196 C 0.74439 0.73441 0.93018 0.0
O197 O 0.73244 0.74638 0.91239 0.0
C198 C 0.77464 0.8431 0.9714 0.0
O199 O 0.71579 0.76988 0.98771 0.0
O200 O 0.74902 0.77598 0.03526 0.0
N201 N 0.71048 0.78083 0.89032 0.0
C202 C 0.69429 0.79191 0.89524 0.0
C203 C 0.69166 0.77947 0.82386 0.0
N204 N 0.70815 0.77217 0.84634 0.0
N205 N 0.68292 0.79215 0.85377 0.0
C206 C 0.8322 0.78848 0.99765 0.0
C207 C 0.83791 0.80062 0.06952 0.0
N208 N 0.81166 0.79366 1.0091 0.0
N209 N 0.81545 0.80124 0.05386 0.0
N210 N 0.84912 0.79292 0.0349 0.0
H211 H 0.81413 0.76421 0.93509 0.0
H212 H 0.84561 0.76567 0.95436 0.0
H213 H 0.84666 0.79512 0.92684 0.0
C214 C 0.83469 0.77753 0.95092 0.0
C215 C 0.69329 0.8072 0.93801 0.0
H216 H 0.67168 0.802 0.94447 0.0
H217 H 0.70539 0.82968 0.93131 0.0
H218 H 0.70133 0.80239 0.96981 0.0
O219 O 0.75264 0.82744 0.94872 0.0
O220 O 0.79 0.83337 0.98414 0.0
C221 C 0.72326 0.76775 0.02868 0.0
O222 O 0.80164 0.80108 0.90263 0.0
O223 O 0.7666 0.80116 0.86933 0.0
Zn224 Zn 0.2311 0.99156 0.96947 0.0
O225 O 0.27313 0.01921 0.95487 0.0
C226 C 0.21747 0.99322 0.866 0.0
Zn227 Zn 0.23421 0.95955 0.92688 0.0
C228 C 0.28699 0.01163 0.93002 0.0
O229 O 0.2753 0.98749 0.91264 0.0
C230 C 0.17687 0.93735 0.96764 0.0
O231 O 0.24734 0.94535 0.98413 0.0
O232 O 0.2453 0.97539 0.03102 0.0
N233 N 0.23572 0.93155 0.88367 0.0
C234 C 0.21634 0.90549 0.89291 0.0
C235 C 0.21118 0.91367 0.82184 0.0
N236 N 0.23352 0.9361 0.83872 0.0
N237 N 0.1992 0.89448 0.85573 0.0
C238 C 0.23557 0.04862 0.99936 0.0
C239 C 0.22519 0.04273 0.07193 0.0
N240 N 0.22989 0.02266 1.0103 0.0
N241 N 0.22346 0.01922 0.05553 0.0
N242 N 0.23252 0.06156 0.03734 0.0
H243 H 0.25829 0.08464 0.95581 0.0
H244 H 0.2278 0.05683 0.92941 0.0
H245 H 0.25823 0.05405 0.93521 0.0
C246 C 0.24575 0.06187 0.95235 0.0
C247 C 0.22052 0.88943 0.93104 0.0
H248 H 0.24291 0.89758 0.93648 0.0
H249 H 0.21068 0.8672 0.92194 0.0
H250 H 0.21224 0.89218 0.96474 0.0
O251 O 0.1918 0.9313 0.94234 0.0
O252 O 0.18754 0.96162 0.98506 0.0
C253 C 0.25125 0.95612 0.02468 0.0
O254 O 0.21927 1.00619 0.90415 0.0
O255 O 0.22198 0.97336 0.86806 0.0
Zn256 Zn 0.03008 0.24295 0.97173 0.0
O257 O 1.00053 0.25542 0.95989 0.0
C258 C 0.0307 0.2306 0.86581 0.0
Zn259 Zn 0.06148 0.27864 0.93059 0.0
C260 C 1.00772 0.27667 0.93485 0.0
O261 O 0.03169 0.2893 0.91729 0.0
C262 C 0.08652 0.24612 0.96879 0.0
O263 O 0.07292 0.30441 0.98944 0.0
O264 O 0.0446 0.27155 0.03647 0.0
N265 N 0.0874 0.31042 0.89077 0.0
C266 C 0.11479 0.32631 0.89447 0.0
C267 C 0.10385 0.32937 0.82401 0.0
N268 N 0.0804 0.31296 0.8474 0.0
N269 N 0.12571 0.33795 0.85283 0.0
C270 C 0.97265 0.19115 1.0029 0.0
C271 C 0.98435 0.17391 0.05871 0.0
N272 N 1.00025 0.20782 1.0092 0.0
N273 N 1.0073 0.19686 0.04399 0.0
N274 N 0.96216 0.16971 0.03352 0.0
H275 H 0.94821 0.20812 0.979 0.0
H276 H 0.93843 0.17485 0.95438 0.0
H277 H 0.96916 0.20519 0.93399 0.0
C278 C 0.95623 0.19497 0.96512 0.0
C279 C 0.13171 0.32659 0.9358 0.0
H280 H 0.11966 0.31984 0.96858 0.0
H281 H 0.14946 0.34772 0.94093 0.0
H282 H 0.14022 0.31283 0.92852 0.0
O283 O 0.092 0.26737 0.94472 0.0
O284 O 0.06199 0.23134 0.98454 0.0
C285 C 0.06281 0.29717 0.03015 0.0
O286 O 0.01718 0.21878 0.90323 0.0
O287 O 0.05065 0.25494 0.86933 0.0
Zn288 Zn 0.79109 0.74025 0.60487 0.0
O289 O 0.77728 0.71584 0.54497 0.0
C290 C 0.84994 0.77358 0.56737 0.0
Zn291 Zn 0.79713 0.77556 0.56129 0.0
C292 C 0.77542 0.72233 0.50335 0.0
O293 O 0.78403 0.74799 0.4951 0.0
C294 C 0.80784 0.78681 0.66994 0.0
O295 O 0.75494 0.76227 0.57161 0.0
O296 O 0.75004 0.72863 0.6176 0.0
N297 N 0.80185 0.81036 0.52448 0.0
C298 C 0.79493 0.82986 0.53459 0.0
C299 C 0.81258 0.83871 0.46625 0.0
N300 N 0.81293 0.81615 0.48199 0.0
N301 N 0.80144 0.84795 0.49854 0.0
C302 C 0.7976 0.69164 0.62902 0.0
C303 C 0.78183 0.6819 0.6986 0.0
N304 N 0.78602 0.70702 0.63893 0.0
N305 N 0.77544 0.70044 0.68166 0.0
N306 N 0.79584 0.67613 0.66626 0.0
H307 H 0.81352 0.70772 0.55834 0.0
H308 H 0.80776 0.67419 0.57022 0.0
H309 H 0.83668 0.70354 0.59626 0.0
C310 C 0.81473 0.69473 0.58602 0.0
C311 C 0.78088 0.83063 0.57886 0.0
H312 H 0.76514 0.83657 0.57101 0.0
H313 H 0.79643 0.84643 0.60278 0.0
H314 H 0.77109 0.81053 0.5971 0.0
O315 O 0.80739 0.79874 0.63156 0.0
O316 O 0.80289 0.76221 0.66757 0.0
C317 C 0.7399 0.74174 0.59747 0.0
O318 O 0.83358 0.75291 0.59203 0.0
O319 O 0.84073 0.78817 0.54903 0.0
Zn320 Zn 0.28368 0.05501 0.60591 0.0
O321 O 0.30893 0.06458 0.54674 0.0
C322 C 0.25194 0.08222 0.5678 0.0
Zn323 Zn 0.24705 0.02604 0.56394 0.0
C324 C 0.30084 0.05656 0.50523 0.0
O325 O 0.27473 0.04071 0.49851 0.0
C326 C 0.23562 0.02628 0.67058 0.0
O327 O 0.25946 0.99657 0.57288 0.0
O328 O 0.29278 0.02375 0.62108 0.0
N329 N 0.21202 0.9964 0.52612 0.0
C330 C 0.19251 0.96984 0.53543 0.0
C331 C 0.18399 0.97907 0.46718 0.0
N332 N 0.20642 1.00193 0.48365 0.0
N333 N 0.17463 0.95843 0.4989 0.0
C334 C 0.33333 0.1086 0.6346 0.0
C335 C 0.33434 0.10322 0.70827 0.0
N336 N 0.3164 0.0818 0.64378 0.0
N337 N 0.31767 0.07821 0.68945 0.0
N338 N 0.34408 0.12277 0.67461 0.0
H339 H 0.32043 0.11141 0.56336 0.0
H340 H 0.35542 0.11976 0.5699 0.0
H341 H 0.34532 0.14386 0.58837 0.0
C342 C 0.33854 0.1216 0.58661 0.0
C343 C 0.19156 0.9547 0.57939 0.0
H344 H 0.18613 0.93321 0.57088 0.0
H345 H 0.17531 0.95383 0.6028 0.0
H346 H 0.21139 0.96512 0.59852 0.0
O347 O 0.22357 0.01305 0.63289 0.0
O348 O 0.26023 0.0458 0.66741 0.0
C349 C 0.27928 1.00086 0.59976 0.0
O350 O 0.27358 0.08675 0.58992 0.0
O351 O 0.23548 0.05768 0.55355 0.0
Zn352 Zn 0.96743 0.23257 0.60497 0.0
O353 O 0.9578 0.24816 0.54655 0.0
C354 C 0.94187 0.17419 0.56564 0.0
Zn355 Zn 0.9972 0.22658 0.56276 0.0
C356 C 0.96581 0.24901 0.50488 0.0
O357 O 0.98199 0.23927 0.49697 0.0
C358 C 0.99708 0.21467 0.66967 0.0
O359 O 0.0259 0.26861 0.57219 0.0
O360 O 0.99795 0.27322 0.62067 0.0
N361 N 0.02719 0.22179 0.52545 0.0
C362 C 0.05366 0.22877 0.53542 0.0
C363 C 0.0447 0.21088 0.46716 0.0
N364 N 0.02182 0.21055 0.483 0.0
N365 N 0.06514 0.22212 0.49937 0.0
C366 C 0.91303 0.22651 0.63447 0.0
C367 C 0.92041 0.23841 0.70639 0.0
N368 N 0.94018 0.23789 0.64211 0.0
N369 N 0.94499 0.24617 0.68644 0.0
N370 N 0.89999 0.2257 0.67454 0.0
H371 H 0.8849 0.22071 0.57874 0.0
H372 H 0.88432 0.18996 0.59686 0.0
H373 H 0.91193 0.21449 0.56064 0.0
C374 C 0.89816 0.21222 0.58992 0.0
C375 C 0.06864 0.243 0.57955 0.0
H376 H 0.09026 0.25882 0.57142 0.0
H377 H 0.06917 0.22758 0.6033 0.0
H378 H 0.05835 0.25277 0.59802 0.0
O379 O 1.01058 0.21665 0.63198 0.0
O380 O 0.97675 0.21852 0.66657 0.0
C381 C 0.0209 0.28348 0.59946 0.0
O382 O 0.93638 0.19063 0.58781 0.0
O383 O 0.96659 0.18317 0.55185 0.0
Zn384 Zn 0.95008 0.56218 0.44082 0.0
O385 O 0.97448 0.57666 0.38086 0.0
C386 C 0.91659 0.50517 0.40095 0.0
Zn387 Zn 0.91512 0.5594 0.39912 0.0
C388 C 0.96776 0.58022 0.34032 0.0
O389 O 0.94228 0.57286 0.33326 0.0
C390 C 0.90379 0.54618 0.50623 0.0
O391 O 0.92891 0.60191 0.41106 0.0
O392 O 0.96125 0.6027 0.45538 0.0
N393 N 0.88023 0.55519 0.36229 0.0
C394 C 0.86101 0.5626 0.3719 0.0
C395 C 0.85225 0.54503 0.3034 0.0
N396 N 0.87445 0.54417 0.31967 0.0
N397 N 0.84318 0.55647 0.3354 0.0
C398 C 1.00302 0.56164 0.46373 0.0
C399 C 0.01627 0.58457 0.5275 0.0
N400 N 0.98432 0.56899 0.47517 0.0
N401 N 0.9928 0.58373 0.51424 0.0
N402 N 0.0234 0.57101 0.49634 0.0
H403 H 0.98273 0.5395 0.39904 0.0
H404 H 0.01887 0.55724 0.39753 0.0
H405 H 1.0004 0.52558 0.4309 0.0
C406 C 1.00094 0.54496 0.4207 0.0
C407 C 0.86036 0.57683 0.41607 0.0
H408 H 0.88 0.58529 0.43571 0.0
H409 H 0.856 0.59363 0.40767 0.0
H410 H 0.84347 0.56175 0.43882 0.0
O411 O 0.8924 0.54865 0.46868 0.0
O412 O 0.92781 0.54948 0.50317 0.0
C413 C 0.95009 0.61524 0.43678 0.0
O414 O 0.93791 0.52026 0.42551 0.0
O415 O 0.90225 0.51559 0.38594 0.0
Zn416 Zn 0.45734 0.38937 0.44087 0.0
O417 O 0.44183 0.39909 0.38292 0.0
C418 C 0.51533 0.41503 0.40085 0.0
Zn419 Zn 0.46261 0.35912 0.3983 0.0
C420 C 0.43991 0.39055 0.34133 0.0
O421 O 0.44882 0.37369 0.33295 0.0
C422 C 0.47552 0.35981 0.50498 0.0
O423 O 0.42094 0.33012 0.40874 0.0
O424 O 0.41663 0.35867 0.4562 0.0
N425 N 0.46784 0.32908 0.36148 0.0
C426 C 0.45607 0.30138 0.3674 0.0
C427 C 0.48612 0.31258 0.31355 0.0
N428 N 0.48657 0.33583 0.32799 0.0
N429 N 0.46711 0.29053 0.33766 0.0
C430 C 0.4626 0.44339 0.47191 0.0
C431 C 0.45025 0.43521 0.54344 0.0
N432 N 0.45164 0.41622 0.47868 0.0
N433 N 0.44303 0.4109 0.52274 0.0
N434 N 0.4629 0.45598 0.51233 0.0
H435 H 0.47035 0.47334 0.41847 0.0
H436 H 0.49993 0.47146 0.43596 0.0
H437 H 0.47468 0.44538 0.39807 0.0
C438 C 0.47758 0.45883 0.42833 0.0
C439 C 0.43501 0.28522 0.40426 0.0
H440 H 0.43917 0.29757 0.4368 0.0
H441 H 0.41429 0.27995 0.39109 0.0
H442 H 0.43486 0.26578 0.41253 0.0
O443 O 0.47334 0.3462 0.46728 0.0
O444 O 0.47142 0.37999 0.50209 0.0
C445 C 0.40625 0.3354 0.43586 0.0
O446 O 0.49931 0.42069 0.42396 0.0
O447 O 0.50591 0.39027 0.38659 0.0
Zn448 Zn 0.66198 0.10734 0.39632 0.0
O449 O 0.69021 0.09314 0.41015 0.0
C450 C 0.66082 0.119 0.50376 0.0
Zn451 Zn 0.63065 0.07209 0.43809 0.0
C452 C 0.68284 0.07215 0.43617 0.0
O453 O 0.65895 0.06003 0.45419 0.0
C454 C 0.60699 0.10591 0.39755 0.0
O455 O 0.62103 0.04722 0.37846 0.0
O456 O 0.6483 0.07982 0.33039 0.0
N457 N 0.60135 0.03968 0.47265 0.0
C458 C 0.57429 0.02577 0.46266 0.0
C459 C 0.57885 0.0195 0.53507 0.0
N460 N 0.60433 0.03513 0.5173 0.0
N461 N 0.55969 0.01366 0.50149 0.0
C462 C 0.72051 0.15837 0.36667 0.0
C463 C 0.70959 0.17683 0.31173 0.0
N464 N 0.69285 0.14244 0.36038 0.0
N465 N 0.68629 0.15418 0.32619 0.0
N466 N 0.73152 0.18 0.33647 0.0
H467 H 0.72347 0.14377 0.4352 0.0
H468 H 0.74341 0.13964 0.3897 0.0
H469 H 0.75499 0.17327 0.4144 0.0
C470 C 0.73649 0.1536 0.40396 0.0
C471 C 0.56121 0.02743 0.41732 0.0
H472 H 0.57588 0.03727 0.38839 0.0
H473 H 0.54562 1.00629 0.406 0.0
H474 H 0.55015 0.03898 0.42322 0.0
O475 O 0.60163 0.08483 0.4218 0.0
O476 O 0.63145 0.12057 0.38171 0.0
C477 C 0.63082 0.05413 0.33761 0.0
O478 O 0.67422 0.13053 0.46598 0.0
O479 O 0.64031 0.09488 0.50061 0.0
Zn480 Zn 0.90159 0.61087 0.76452 0.0
O481 O 0.91501 0.63653 0.82352 0.0
C482 C 0.8439 0.57602 0.80275 0.0
Zn483 Zn 0.89798 0.57597 0.80673 0.0
C484 C 0.91817 0.62975 0.86436 0.0
O485 O 0.91142 0.60439 0.87115 0.0
C486 C 0.88551 0.56308 0.70081 0.0
O487 O 0.94046 0.59025 0.79393 0.0
O488 O 0.94243 0.62375 0.75103 0.0
N489 N 0.89456 0.54221 0.8448 0.0
C490 C 0.90125 0.52254 0.83489 0.0
C491 C 0.88409 0.51432 0.90359 0.0
N492 N 0.8838 0.53683 0.88752 0.0
N493 N 0.89489 0.50471 0.87132 0.0
C494 C 0.8914 0.65626 0.73341 0.0
C495 C 0.90649 0.66358 0.66318 0.0
N496 N 0.90486 0.64236 0.72692 0.0
N497 N 0.91496 0.64746 0.68373 0.0
N498 N 0.8915 0.66919 0.69362 0.0
H499 H 0.87818 0.64404 0.80622 0.0
H500 H 0.8798 0.67516 0.78783 0.0
H501 H 0.85233 0.64277 0.76712 0.0
C502 C 0.8746 0.6542 0.77619 0.0
C503 C 0.91479 0.52134 0.79023 0.0
H504 H 0.92999 0.51459 0.79748 0.0
H505 H 0.89882 0.5061 0.76615 0.0
H506 H 0.92516 0.54155 0.77234 0.0
O507 O 0.88711 0.55164 0.73881 0.0
O508 O 0.88985 0.58747 0.70314 0.0
C509 C 0.95423 0.61163 0.76892 0.0
O510 O 0.85937 0.59699 0.77807 0.0
O511 O 0.8542 0.56228 0.82066 0.0
Zn512 Zn 0.44527 0.32517 0.8058 0.0
O513 O 0.4314 0.3535 0.79375 0.0
C514 C 0.45851 0.32479 0.70027 0.0
Zn515 Zn 0.41024 0.29353 0.76382 0.0
C516 C 0.41096 0.34653 0.76663 0.0
O517 O 0.39935 0.32293 0.74729 0.0
C518 C 0.44339 0.26973 0.80501 0.0
O519 O 0.38399 0.28307 0.82131 0.0
O520 O 0.41662 0.30987 0.87013 0.0
N521 N 0.37887 0.26617 0.7242 0.0
C522 C 0.3628 0.23892 0.7303 0.0
C523 C 0.36059 0.2473 0.65804 0.0
N524 N 0.37686 0.27157 0.67956 0.0
N525 N 0.35157 0.2265 0.6892 0.0
C526 C 0.49919 0.38181 0.83427 0.0
C527 C 0.50589 0.37434 0.90496 0.0
N528 N 0.47914 0.35569 0.84478 0.0
N529 N 0.48354 0.35127 0.88883 0.0
N530 N 0.51644 0.39391 0.87135 0.0
H531 H 0.51031 0.41848 0.79386 0.0
H532 H 0.51412 0.39218 0.76413 0.0
H533 H 0.48035 0.38757 0.77239 0.0
C534 C 0.50095 0.3959 0.78866 0.0
C535 C 0.36146 0.22337 0.77422 0.0
H536 H 0.33956 0.20864 0.78263 0.0
H537 H 0.37157 0.21097 0.7678 0.0
H538 H 0.37123 0.23683 0.80485 0.0
O539 O 0.42157 0.26343 0.78192 0.0
O540 O 0.4585 0.29471 0.81859 0.0
C541 C 0.39093 0.29247 0.8625 0.0
O542 O 0.46944 0.33875 0.73789 0.0
O543 O 0.43476 0.30376 0.70328 0.0
Zn544 Zn 0.6968 0.12384 0.80571 0.0
O545 O 0.66867 0.08157 0.79206 0.0
C546 C 0.69677 0.13674 0.69907 0.0
Zn547 Zn 0.72804 0.12028 0.76288 0.0
C548 C 0.67596 0.06789 0.76603 0.0
O549 O 0.6998 0.07971 0.74782 0.0
C550 C 0.75122 0.17773 0.80287 0.0
O551 O 0.73949 0.10601 0.82172 0.0
O552 O 0.71165 0.11009 0.87027 0.0
N553 N 0.75647 0.11708 0.72545 0.0
C554 C 0.78371 0.12949 0.73321 0.0
C555 C 0.77666 0.11618 0.66188 0.0
N556 N 0.75192 0.10811 0.68148 0.0
N557 N 0.7969 0.12958 0.69374 0.0
C558 C 0.63999 0.12088 0.83263 0.0
C559 C 0.64621 0.13276 0.90464 0.0
N560 N 0.66586 0.12651 0.84406 0.0
N561 N 0.66951 0.13391 0.8889 0.0
N562 N 0.62728 0.12487 0.87 0.0
H563 H 0.60392 0.09755 0.78923 0.0
H564 H 0.63182 0.12755 0.76202 0.0
H565 H 0.63447 0.09717 0.76966 0.0
C566 C 0.62668 0.10995 0.78581 0.0
C567 C 0.79831 0.14609 0.77634 0.0
H568 H 0.8148 0.14169 0.7868 0.0
H569 H 0.80835 0.16842 0.76806 0.0
H570 H 0.78456 0.14178 0.80664 0.0
O571 O 0.75664 0.16217 0.77808 0.0
O572 O 0.72708 0.16764 0.82036 0.0
C573 C 0.72981 0.10281 0.86275 0.0
O574 O 0.68357 0.13488 0.73711 0.0
O575 O 0.71701 0.13273 0.70156 0.0
Zn576 Zn 0.44415 0.124 0.30376 0.0
O577 O 0.43096 0.08183 0.29111 0.0
C578 C 0.45681 0.13743 0.1982 0.0
Zn579 Zn 0.40857 0.11937 0.26203 0.0
C580 C 0.41036 0.06793 0.26445 0.0
O581 O 0.39813 0.07941 0.24575 0.0
C582 C 0.44115 0.17697 0.30264 0.0
O583 O 0.38275 0.10368 0.32023 0.0
O584 O 0.41574 0.11007 0.3685 0.0
N585 N 0.37658 0.11472 0.22371 0.0
C586 C 0.3597 0.12458 0.23322 0.0
C587 C 0.35891 0.11866 0.15942 0.0
N588 N 0.37542 0.1101 0.17795 0.0
N589 N 0.34917 0.12838 0.19335 0.0
C590 C 0.4987 0.1223 0.33052 0.0
C591 C 0.50475 0.13485 0.40219 0.0
N592 N 0.47834 0.12776 0.34197 0.0
N593 N 0.48235 0.1356 0.3866 0.0
N594 N 0.51571 0.12681 0.36765 0.0
H595 H 0.48033 0.09809 0.26798 0.0
H596 H 0.51134 0.09871 0.28768 0.0
H597 H 0.51329 0.12847 0.25981 0.0
C598 C 0.50093 0.11104 0.28395 0.0
C599 C 0.3543 0.13193 0.28151 0.0
H600 H 0.3726 0.14031 0.30441 0.0
H601 H 0.33796 0.11289 0.29831 0.0
H602 H 0.34684 0.14688 0.2803 0.0
O603 O 0.41972 0.1609 0.2791 0.0
O604 O 0.4566 0.16768 0.31706 0.0
C605 C 0.38995 0.10137 0.36124 0.0
O606 O 0.46819 0.13512 0.23575 0.0
O607 O 0.43259 0.13346 0.20115 0.0
Zn608 Zn 0.89734 0.32419 0.30344 0.0
O609 O 0.93956 0.35331 0.29335 0.0
C610 C 0.88526 0.32379 0.19692 0.0
Zn611 Zn 0.90265 0.29354 0.26197 0.0
C612 C 0.95392 0.34684 0.26752 0.0
O613 O 0.9428 0.32347 0.24748 0.0
C614 C 0.84469 0.26786 0.30056 0.0
O615 O 0.9179 0.28352 0.32123 0.0
O616 O 0.91044 0.3097 0.36896 0.0
N617 N 0.90815 0.26656 0.22415 0.0
C618 C 0.89891 0.23992 0.23366 0.0
C619 C 0.90514 0.24513 0.15998 0.0
N620 N 0.91297 0.27008 0.17849 0.0
N621 N 0.89578 0.22569 0.19382 0.0
C622 C 0.90344 0.38184 0.33468 0.0
C623 C 0.87244 0.36992 0.38699 0.0
N624 N 0.8918 0.35411 0.34005 0.0
N625 N 0.87253 0.34692 0.37266 0.0
N626 N 0.89164 0.39225 0.3637 0.0
H627 H 0.92231 0.3861 0.26694 0.0
H628 H 0.94572 0.4046 0.31417 0.0
H629 H 0.92465 0.4174 0.28957 0.0
C630 C 0.92516 0.39845 0.29907 0.0
C631 C 0.89108 0.2271 0.2818 0.0
H632 H 0.88216 0.23677 0.30401 0.0
H633 H 0.90999 0.23003 0.29952 0.0
H634 H 0.87635 0.20464 0.28033 0.0
O635 O 0.861 0.26261 0.27763 0.0
O636 O 0.85369 0.29262 0.3147 0.0
C637 C 0.91938 0.29273 0.36234 0.0
O638 O 0.88712 0.33726 0.2346 0.0
O639 O 0.88903 0.3034 0.20011 0.0
Zn640 Zn 0.69729 0.57647 0.30556 0.0
O641 O 0.66809 0.5895 0.29435 0.0
C642 C 0.6981 0.56455 0.19862 0.0
Zn643 Zn 0.72814 0.61203 0.26361 0.0
C644 C 0.67496 0.61056 0.26901 0.0
O645 O 0.69849 0.62275 0.24983 0.0
C646 C 0.75331 0.57936 0.30214 0.0
O647 O 0.73898 0.63747 0.32269 0.0
O648 O 0.71185 0.6046 0.37068 0.0
N649 N 0.75462 0.64446 0.22582 0.0
C650 C 0.78184 0.66071 0.2317 0.0
C651 C 0.77216 0.66683 0.16204 0.0
N652 N 0.74836 0.64883 0.18304 0.0
N653 N 0.79349 0.67455 0.19188 0.0
C654 C 0.63931 0.52514 0.33646 0.0
C655 C 0.6507 0.50699 0.39122 0.0
N656 N 0.66702 0.54127 0.34245 0.0
N657 N 0.67386 0.52976 0.37661 0.0
N658 N 0.62857 0.50348 0.36665 0.0
H659 H 0.63579 0.53894 0.26748 0.0
H660 H 0.61652 0.54408 0.31299 0.0
H661 H 0.60436 0.51001 0.28958 0.0
C662 C 0.62307 0.52969 0.29926 0.0
C663 C 0.79804 0.65945 0.27295 0.0
H664 H 0.7852 0.65006 0.3043 0.0
H665 H 0.8146 0.68055 0.28234 0.0
H666 H 0.80808 0.64737 0.2631 0.0
O667 O 0.75848 0.60053 0.27811 0.0
O668 O 0.72894 0.56447 0.31841 0.0
C669 C 0.72952 0.6303 0.36372 0.0
O670 O 0.68454 0.55278 0.23612 0.0
O671 O 0.71802 0.58893 0.20199 0.0
Zn672 Zn 0.45756 0.07196 0.93848 0.0
O673 O 0.44322 0.04729 0.87885 0.0
C674 C 0.51543 0.10477 0.90002 0.0
Zn675 Zn 0.46242 0.10739 0.89618 0.0
C676 C 0.44087 0.05435 0.83779 0.0
O677 O 0.4492 0.08004 0.83044 0.0
C678 C 0.47432 0.11907 1.00351 0.0
O679 O 0.42004 0.09399 0.90731 0.0
O680 O 0.41702 0.06061 0.95191 0.0
N681 N 0.46769 0.14278 0.86021 0.0
C682 C 0.45663 0.15928 0.86707 0.0
C683 C 0.4863 0.17756 0.81255 0.0
N684 N 0.48614 0.15437 0.82625 0.0
N685 N 0.46797 0.18126 0.83764 0.0
C686 C 0.46434 0.02395 0.96713 0.0
C687 C 0.45075 0.01782 0.03816 0.0
N688 N 0.45241 0.03923 0.97467 0.0
N689 N 0.4431 0.03476 0.01836 0.0
N690 N 0.46435 0.01096 1.00676 0.0
H691 H 0.47646 0.03463 0.89349 0.0
H692 H 0.47592 1.00418 0.91436 0.0
H693 H 0.50303 0.03737 0.93216 0.0
C694 C 0.48066 0.02531 0.92408 0.0
C695 C 0.43589 0.15473 0.90429 0.0
H696 H 0.43788 0.1435 0.9346 0.0
H697 H 0.41491 0.14224 0.88924 0.0
H698 H 0.43836 0.17467 0.91656 0.0
O699 O 0.47297 0.13066 0.96546 0.0
O700 O 0.47013 0.09473 1.00088 0.0
C701 C 0.40577 0.07288 0.9326 0.0
O702 O 0.49942 0.08375 0.92426 0.0
O703 O 0.50599 0.11967 0.88371 0.0
Zn704 Zn 0.94968 0.38948 0.93657 0.0
O705 O 0.97477 0.40093 0.87679 0.0
C706 C 0.91587 0.41354 0.89961 0.0
Zn707 Zn 0.91411 0.35848 0.89489 0.0
C708 C 0.96723 0.39145 0.83575 0.0
O709 O 0.94162 0.37335 0.82948 0.0
C710 C 0.90242 0.35855 1.00155 0.0
O711 O 0.92786 0.32968 0.90591 0.0
O712 O 0.96131 0.3606 0.94976 0.0
N713 N 0.87952 0.32833 0.85754 0.0
C714 C 0.86 0.30191 0.86749 0.0
C715 C 0.8509 0.31092 0.79949 0.0
N716 N 0.87358 0.33375 0.81527 0.0
N717 N 0.84173 0.29044 0.83151 0.0
C718 C 0.9972 0.44421 0.96791 0.0
C719 C 1.00363 0.43564 0.03814 0.0
N720 N 0.98193 0.4169 0.97414 0.0
N721 N 0.98647 0.41137 0.01735 0.0
N722 N 1.01064 0.45655 1.00777 0.0
H723 H 0.98592 0.44652 0.89511 0.0
H724 H 0.01614 0.47649 0.91642 0.0
H725 H 0.98288 0.46947 0.93575 0.0
C726 C 0.99527 0.45972 0.92619 0.0
C727 C 0.85936 0.28709 0.91169 0.0
H728 H 0.87963 0.29716 0.92949 0.0
H729 H 0.853 0.26527 0.90384 0.0
H730 H 0.84405 0.2873 0.93612 0.0
O731 O 0.89061 0.34525 0.96381 0.0
O732 O 0.92675 0.3786 0.99851 0.0
C733 C 0.94905 0.3368 0.93126 0.0
O734 O 0.93719 0.41887 0.92327 0.0
O735 O 0.9012 0.38931 0.88262 0.0
Zn736 Zn 0.63384 0.56457 0.93609 0.0
O737 O 0.61994 0.57545 0.87577 0.0
C738 C 0.60821 0.50591 0.90213 0.0
Zn739 Zn 0.66451 0.5587 0.8958 0.0
C740 C 0.63028 0.57781 0.83535 0.0
O741 O 0.64968 0.57195 0.83053 0.0
C742 C 0.66584 0.54855 1.00184 0.0
O743 O 0.69441 0.60067 0.90526 0.0
O744 O 0.66356 0.60594 0.94434 0.0
N745 N 0.69346 0.55277 0.85801 0.0
C746 C 0.71979 0.55924 0.86783 0.0
C747 C 0.7102 0.54085 0.79994 0.0
N748 N 0.68766 0.5412 0.81581 0.0
N749 N 0.73077 0.55195 0.83193 0.0
C750 C 0.58132 0.55903 0.97112 0.0
C751 C 0.58917 0.56337 0.04466 0.0
N752 N 0.60857 0.57098 0.977 0.0
N753 N 0.61363 0.57465 0.02268 0.0
N754 N 0.56854 0.55285 1.01294 0.0
H755 H 0.5765 0.57335 0.90416 0.0
H756 H 0.54482 0.54667 0.92856 0.0
H757 H 0.56957 0.53829 0.90423 0.0
C758 C 0.5671 0.55385 0.92441 0.0
C759 C 0.73514 0.57355 0.9117 0.0
H760 H 0.75683 0.58897 0.90325 0.0
H761 H 0.73536 0.55806 0.9357 0.0
H762 H 0.72537 0.58382 0.93018 0.0
O763 O 0.67805 0.54805 0.96405 0.0
O764 O 0.64685 0.5543 0.99825 0.0
C765 C 0.68757 0.61603 0.92724 0.0
O766 O 0.60329 0.52201 0.92661 0.0
O767 O 0.63232 0.51539 0.88472 0.0
Zn768 Zn 0.58031 0.89262 0.72829 0.0
O769 O 0.59378 0.93484 0.74054 0.0
C770 C 0.56893 0.88138 0.8347 0.0
Zn771 Zn 0.61623 0.89671 0.76883 0.0
C772 C 0.61604 0.94913 0.76321 0.0
O773 O 0.62895 0.93779 0.77971 0.0
C774 C 0.58226 0.83887 0.73212 0.0
O775 O 0.64066 0.90833 0.70838 0.0
O776 O 0.60803 0.90625 0.66323 0.0
N777 N 0.64839 0.90136 0.80658 0.0
C778 C 0.66538 0.89162 0.79698 0.0
C779 C 0.66688 0.89838 0.87065 0.0
N780 N 0.64999 0.90648 0.85221 0.0
N781 N 0.67658 0.88864 0.83674 0.0
C782 C 0.52665 0.89608 0.70036 0.0
C783 C 0.51842 0.87949 0.63114 0.0
N784 N 0.54586 0.88869 0.69057 0.0
N785 N 0.54044 0.87829 0.6475 0.0
N786 N 0.50916 0.89053 0.66355 0.0
H787 H 0.52069 0.92621 0.73735 0.0
H788 H 0.50911 0.89421 0.76771 0.0
H789 H 0.54538 0.91861 0.76445 0.0
C790 C 0.52567 0.90976 0.74501 0.0
C791 C 0.66917 0.88237 0.74915 0.0
H792 H 0.68067 0.9008 0.72658 0.0
H793 H 0.68126 0.87166 0.75052 0.0
H794 H 0.64921 0.86855 0.73208 0.0
O795 O 0.60306 0.85453 0.75726 0.0
O796 O 0.56794 0.84879 0.71481 0.0
C797 C 0.63312 0.91177 0.66837 0.0
O798 O 0.55662 0.88176 0.79686 0.0
O799 O 0.59345 0.88618 0.83145 0.0
Zn800 Zn 0.1293 0.69292 0.72973 0.0
O801 O 0.08696 0.66409 0.7393 0.0
C802 C 0.14027 0.69315 0.83775 0.0
Zn803 Zn 0.12567 0.72456 0.77188 0.0
C804 C 0.07305 0.67133 0.76467 0.0
O805 O 0.08477 0.69504 0.78352 0.0
C806 C 0.18335 0.74851 0.73512 0.0
O807 O 0.11254 0.73544 0.71111 0.0
O808 O 0.11692 0.70747 0.66323 0.0
N809 N 0.11831 0.7516 0.80645 0.0
C810 C 0.12566 0.77772 0.79562 0.0
C811 C 0.10189 0.76736 0.85838 0.0
N812 N 0.10308 0.74492 0.84489 0.0
N813 N 0.11569 0.7883 0.82791 0.0
C814 C 0.1264 0.63585 0.70178 0.0
C815 C 0.14694 0.64592 0.6359 0.0
N816 N 0.13432 0.66269 0.693 0.0
N817 N 0.14718 0.66872 0.65202 0.0
N818 N 0.134 0.6247 0.66623 0.0
H819 H 0.09432 0.59928 0.73479 0.0
H820 H 0.12495 0.61893 0.76958 0.0
H821 H 0.10128 0.63124 0.76263 0.0
C822 C 0.11062 0.62047 0.7445 0.0
C823 C 0.14314 0.79291 0.75378 0.0
H824 H 0.14936 0.78058 0.73261 0.0
H825 H 0.13119 0.79855 0.72973 0.0
H826 H 0.16211 0.81183 0.76531 0.0
O827 O 0.16796 0.75446 0.75936 0.0
O828 O 0.17312 0.72395 0.71908 0.0
C829 C 0.10963 0.72566 0.67019 0.0
O830 O 0.13872 0.67998 0.79971 0.0
O831 O 0.13702 0.71392 0.83502 0.0
Zn832 Zn 0.29822 0.40457 0.77189 0.0
O833 O 0.28756 0.37987 0.71207 0.0
C834 C 0.27421 0.43868 0.73414 0.0
Zn835 Zn 0.32972 0.44078 0.73188 0.0
C836 C 0.29746 0.38767 0.67148 0.0
O837 O 0.31526 0.41341 0.66583 0.0
C838 C 0.32893 0.45177 0.83854 0.0
O839 O 0.35815 0.42681 0.74347 0.0
O840 O 0.32703 0.39273 0.78592 0.0
N841 N 0.36069 0.47523 0.69465 0.0
C842 C 0.38679 0.49505 0.70608 0.0
C843 C 0.38041 0.50175 0.63478 0.0
N844 N 0.35696 0.47965 0.65023 0.0
N845 N 0.39955 0.5121 0.66919 0.0
C846 C 0.24351 0.35544 0.79655 0.0
C847 C 0.24695 0.35338 0.87053 0.0
N848 N 0.27006 0.37207 0.80799 0.0
N849 N 0.27246 0.3701 0.85385 0.0
N850 N 0.22831 0.34428 0.83529 0.0
H851 H 0.23784 0.33865 0.72727 0.0
H852 H 0.20881 0.34072 0.74781 0.0
H853 H 0.23936 0.37125 0.72894 0.0
C854 C 0.23164 0.35154 0.7477 0.0
C855 C 0.40027 0.49674 0.75238 0.0
H856 H 0.42288 0.50589 0.74814 0.0
H857 H 0.39652 0.51018 0.7763 0.0
H858 H 0.39153 0.47612 0.76869 0.0
O859 O 0.34249 0.46384 0.80122 0.0
O860 O 0.30867 0.42754 0.83457 0.0
C861 C 0.35091 0.4053 0.76788 0.0
O862 O 0.26854 0.41696 0.75687 0.0
O863 O 0.29895 0.45391 0.71958 0.0
Zn864 Zn 0.56793 0.94488 0.09627 0.0
O865 O 0.58294 0.97005 0.15581 0.0
C866 C 0.51082 0.91178 0.13545 0.0
Zn867 Zn 0.56446 0.90973 0.13768 0.0
C868 C 0.58541 0.96289 0.19677 0.0
O869 O 0.57767 0.93724 0.20346 0.0
C870 C 0.55128 0.89796 0.03072 0.0
O871 O 0.60703 0.92366 0.12602 0.0
O872 O 0.60799 0.95587 0.08101 0.0
N873 N 0.55946 0.87425 0.17357 0.0
C874 C 0.57019 0.85749 0.16628 0.0
C875 C 0.54071 0.8394 0.22111 0.0
N876 N 0.54114 0.86277 0.20775 0.0
N877 N 0.55871 0.83539 0.19561 0.0
C878 C 0.56118 0.99294 0.06723 0.0
C879 C 0.5742 0.99845 0.9959 0.0
N880 N 0.57275 0.97733 0.05963 0.0
N881 N 0.58166 0.98137 1.01571 0.0
N882 N 0.56122 1.00591 0.02753 0.0
H883 H 0.54943 0.9826 0.14099 0.0
H884 H 0.54968 0.01287 0.11991 0.0
H885 H 0.52262 0.97953 0.10255 0.0
C886 C 0.54501 0.99174 0.11037 0.0
C887 C 0.59072 0.86197 0.12867 0.0
H888 H 0.58838 0.87297 0.09831 0.0
H889 H 0.61181 0.87479 0.14314 0.0
H890 H 0.58835 0.84203 0.11662 0.0
O891 O 0.55389 0.88655 0.06801 0.0
O892 O 0.55463 0.92193 0.03434 0.0
C893 C 0.6204 0.9447 0.10005 0.0
O894 O 0.52649 0.9332 0.11184 0.0
O895 O 0.52066 0.89696 0.15058 0.0
Zn896 Zn 0.11115 0.6584 0.13899 0.0
O897 O 0.09772 0.68721 0.12736 0.0
C898 C 0.12228 0.6568 0.03277 0.0
Zn899 Zn 0.07514 0.62693 0.09892 0.0
C900 C 0.07679 0.68027 0.10142 0.0
O901 O 0.06431 0.65641 0.08305 0.0
C902 C 0.10852 0.60278 0.13848 0.0
O903 O 0.05026 0.61749 0.15786 0.0
O904 O 0.08389 0.64418 0.20514 0.0
N905 N 0.04261 0.59909 0.06237 0.0
C906 C 0.02737 0.57192 0.0703 0.0
C907 C 0.02281 0.57858 0.99812 0.0
N908 N 0.03908 0.60343 0.01786 0.0
N909 N 0.01553 0.55845 0.03027 0.0
C910 C 0.16277 0.71613 0.16842 0.0
C911 C 0.1815 0.70483 0.22242 0.0
N912 N 0.14653 0.68855 0.17491 0.0
N913 N 0.15841 0.68172 0.20848 0.0
N914 N 0.18479 0.72684 0.19789 0.0
H915 H 0.14324 0.73837 0.14533 0.0
H916 H 0.17739 0.7512 0.12204 0.0
H917 H 0.14875 0.71956 0.09953 0.0
C918 C 0.1579 0.73225 0.13146 0.0
C919 C 0.02695 0.55753 0.11524 0.0
H920 H 0.03835 0.57162 0.14433 0.0
H921 H 1.00524 0.54418 0.12641 0.0
H922 H 0.03556 0.5438 0.1088 0.0
O923 O 0.08648 0.59659 0.11624 0.0
O924 O 0.124 0.62778 0.15133 0.0
C925 C 0.05803 0.62687 0.19881 0.0
O926 O 0.134 0.67089 0.06989 0.0
O927 O 0.09826 0.63625 0.0367 0.0
Zn928 Zn 0.39067 0.4492 0.09947 0.0
O929 O 0.39949 0.43328 0.15918 0.0
C930 C 0.41753 0.50808 0.13747 0.0
Zn931 Zn 0.36199 0.45665 0.1422 0.0
C932 C 0.39179 0.43348 0.20081 0.0
O933 O 0.37642 0.44421 0.20806 0.0
C934 C 0.36212 0.46823 0.03492 0.0
O935 O 0.33284 0.41476 0.13327 0.0
O936 O 0.3596 0.40895 0.08361 0.0
N937 N 0.33262 0.46291 0.17799 0.0
C938 C 0.30506 0.45174 0.17154 0.0
C939 C 0.317 0.48284 0.22397 0.0
N940 N 0.33986 0.48225 0.21063 0.0
N941 N 0.29478 0.46392 0.1999 0.0
C942 C 0.44437 0.45314 0.07567 0.0
C943 C 0.44405 0.4563 1.00128 0.0
N944 N 0.4182 0.444 0.06241 0.0
N945 N 0.41786 0.44523 1.016 0.0
N946 N 0.46112 0.46199 0.03826 0.0
H947 H 0.44141 0.42956 0.1365 0.0
H948 H 0.47556 0.45734 0.12548 0.0
H949 H 0.44972 0.46442 0.14907 0.0
C950 C 0.45341 0.45121 0.12452 0.0
C951 C 0.2885 0.43008 0.13559 0.0
H952 H 0.28175 0.40945 0.15087 0.0
H953 H 0.26991 0.43105 0.12515 0.0
H954 H 0.30101 0.43255 0.10395 0.0
O955 O 0.34882 0.46669 0.07259 0.0
O956 O 0.38182 0.46347 0.03797 0.0
C957 C 0.33699 0.39937 0.10576 0.0
O958 O 0.4224 0.4911 0.11559 0.0
O959 O 0.39323 0.49969 0.15276 0.0
Zn960 Zn 0.11242 0.45816 0.63845 0.0
O961 O 0.09851 0.41605 0.62609 0.0
C962 C 0.12743 0.4712 0.53382 0.0
Zn963 Zn 0.07739 0.45403 0.59442 0.0
C964 C 0.07807 0.40185 0.59924 0.0
O965 O 0.06579 0.41312 0.57979 0.0
C966 C 0.1112 0.51185 0.63475 0.0
O967 O 0.05025 0.44003 0.65151 0.0
O968 O 0.08245 0.44462 0.70076 0.0
N969 N 0.0471 0.45092 0.55147 0.0
C970 C 0.0398 0.46987 0.56056 0.0
C971 C 0.05298 0.47494 0.48942 0.0
N972 N 0.0537 0.45298 0.50646 0.0
N973 N 0.04544 0.48673 0.52325 0.0
C974 C 0.1624 0.45017 0.67283 0.0
C975 C 0.18096 0.48055 0.72647 0.0
N976 N 0.14638 0.46193 0.67809 0.0
N977 N 0.15814 0.48078 0.71158 0.0
N978 N 0.18424 0.46153 0.70273 0.0
H979 H 0.14937 0.43257 0.60372 0.0
H980 H 0.14224 0.4082 0.65015 0.0
H981 H 0.17693 0.42867 0.62858 0.0
C982 C 0.15761 0.42881 0.63652 0.0
C983 C 0.01933 0.46527 0.59854 0.0
H984 H 1.00531 0.44281 0.6036 0.0
H985 H 1.00673 0.47487 0.58952 0.0
H986 H 0.0302 0.47355 0.63241 0.0
O987 O 0.09009 0.49637 0.61 0.0
O988 O 0.12534 0.50175 0.65185 0.0
C989 C 0.05694 0.43715 0.69278 0.0
O990 O 0.13838 0.46911 0.57203 0.0
O991 O 0.10321 0.46707 0.53578 0.0
Zn992 Zn 0.56528 0.65789 0.63918 0.0
O993 O 0.60755 0.68653 0.62622 0.0
C994 C 0.5523 0.65647 0.53275 0.0
Zn995 Zn 0.57012 0.62664 0.59872 0.0
C996 C 0.62162 0.67984 0.59992 0.0
O997 O 0.61033 0.65582 0.5823 0.0
C998 C 0.51229 0.6024 0.63876 0.0
O999 O 0.58562 0.61659 0.65816 0.0
O1000 O 0.57869 0.64376 0.70456 0.0
N1001 N 0.57403 0.59854 0.56164 0.0
C1002 C 0.56186 0.57133 0.56943 0.0
C1003 C 0.57288 0.57805 0.49711 0.0
N1004 N 0.58167 0.60289 0.51702 0.0
N1005 N 0.56032 0.55795 0.52933 0.0
C1006 C 0.56697 0.71439 0.66486 0.0
C1007 C 0.55452 0.70816 0.7365 0.0
N1008 N 0.56168 0.68867 0.67657 0.0
N1009 N 0.5539 0.685 0.72116 0.0
N1010 N 0.56241 0.72699 0.70181 0.0
H1011 H 0.59128 0.7202 0.60273 0.0
H1012 H 0.59001 0.75045 0.62156 0.0
H1013 H 0.56054 0.72207 0.59384 0.0
C1014 C 0.57805 0.72765 0.61818 0.0
C1015 C 0.54668 0.55687 0.6136 0.0
H1016 H 0.5517 0.57076 0.64398 0.0
H1017 H 0.55161 0.54056 0.62273 0.0
H1018 H 0.52412 0.54649 0.60727 0.0
O1019 O 0.52829 0.59685 0.61552 0.0
O1020 O 0.52172 0.62715 0.65324 0.0
C1021 C 0.58712 0.62637 0.69878 0.0
O1022 O 0.55424 0.67034 0.57 0.0
O1023 O 0.55643 0.63633 0.53671 0.0
Zn1024 Zn 0.36356 0.91036 0.63841 0.0
O1025 O 0.33407 0.9229 0.62875 0.0
C1026 C 0.36334 0.89846 0.53106 0.0
Zn1027 Zn 0.39307 0.946 0.59529 0.0
C1028 C 0.33912 0.94281 0.60159 0.0
O1029 O 0.36231 0.95572 0.58127 0.0
C1030 C 0.41946 0.91391 0.63299 0.0
O1031 O 0.40369 0.97121 0.65475 0.0
O1032 O 0.3783 0.93796 0.70349 0.0
N1033 N 0.41927 0.97877 0.55753 0.0
C1034 C 0.4465 0.99514 0.56327 0.0
C1035 C 0.43664 1.00118 0.49371 0.0
N1036 N 0.41291 0.98309 0.5148 0.0
N1037 N 0.45807 0.009 0.5234 0.0
C1038 C 0.30635 0.85871 0.67006 0.0
C1039 C 0.31861 0.8401 0.72275 0.0
N1040 N 0.33407 0.87495 0.67528 0.0
N1041 N 0.34147 0.86316 0.70812 0.0
N1042 N 0.29616 0.83672 0.69942 0.0
H1043 H 0.30163 0.87252 0.60187 0.0
H1044 H 0.28356 0.87811 0.64898 0.0
H1045 H 0.27047 0.84392 0.62541 0.0
C1046 C 0.28953 0.86347 0.63431 0.0
C1047 C 0.46281 0.99408 0.60453 0.0
H1048 H 0.44996 0.98436 0.63574 0.0
H1049 H 0.47901 0.01527 0.61426 0.0
H1050 H 0.47331 0.98246 0.59454 0.0
O1051 O 0.42415 0.93509 0.60934 0.0
O1052 O 0.39529 0.89871 0.64965 0.0
C1053 C 0.39526 0.96378 0.69626 0.0
O1054 O 0.35032 0.88674 0.56899 0.0
O1055 O 0.3831 0.92296 0.53378 0.0
Zn1056 Zn 0.12493 0.40597 0.27192 0.0
O1057 O 0.10809 0.38081 0.21289 0.0
C1058 C 0.18184 0.43953 0.23081 0.0
Zn1059 Zn 0.12837 0.44093 0.23105 0.0
C1060 C 0.10614 0.38801 0.17175 0.0
O1061 O 0.11529 0.41387 0.16447 0.0
C1062 C 0.14249 0.45272 0.33793 0.0
O1063 O 0.08574 0.42629 0.24357 0.0
O1064 O 0.08537 0.39513 0.29056 0.0
N1065 N 0.13262 0.47591 0.19554 0.0
C1066 C 0.12154 0.49234 0.20264 0.0
C1067 C 0.15058 0.5103 0.1471 0.0
N1068 N 0.15065 0.48727 0.16093 0.0
N1069 N 0.13253 0.51413 0.17273 0.0
C1070 C 0.1324 0.35784 0.29467 0.0
C1071 C 0.12305 0.35225 0.36759 0.0
N1072 N 0.12117 0.37333 0.30616 0.0
N1073 N 0.11452 0.36924 0.35117 0.0
N1074 N 0.13467 0.34506 0.3329 0.0
H1075 H 0.14417 0.37188 0.22166 0.0
H1076 H 0.13139 0.33616 0.23199 0.0
H1077 H 0.16538 0.36106 0.25057 0.0
C1078 C 0.14401 0.35712 0.24715 0.0
C1079 C 0.10117 0.48789 0.24051 0.0
H1080 H 0.08002 0.47516 0.22621 0.0
H1081 H 0.10365 0.50786 0.25265 0.0
H1082 H 0.10359 0.47685 0.27072 0.0
O1083 O 0.13905 0.46381 0.30093 0.0
O1084 O 0.13979 0.42899 0.33393 0.0
C1085 C 0.07272 0.40592 0.27108 0.0
O1086 O 0.16614 0.41755 0.25303 0.0
O1087 O 0.17209 0.45476 0.21784 0.0
Zn1088 Zn 0.61465 0.72192 0.2708 0.0
O1089 O 0.64054 0.73147 0.21254 0.0
C1090 C 0.58138 0.74553 0.22944 0.0
Zn1091 Zn 0.57996 0.69007 0.22927 0.0
C1092 C 0.63338 0.72224 0.17131 0.0
O1093 O 0.6076 0.70522 0.16383 0.0
C1094 C 0.56758 0.69084 0.33599 0.0
O1095 O 0.59491 0.66223 0.24044 0.0
O1096 O 0.62536 0.69288 0.28864 0.0
N1097 N 0.54562 0.65927 0.19143 0.0
C1098 C 0.52661 0.63254 0.20069 0.0
C1099 C 0.51708 0.64173 0.13319 0.0
N1100 N 0.53941 0.66475 0.14942 0.0
N1101 N 0.50837 0.62096 0.16454 0.0
C1102 C 0.66223 0.77681 0.30101 0.0
C1103 C 0.66715 0.76929 0.37259 0.0
N1104 N 0.64672 0.74962 0.30825 0.0
N1105 N 0.65047 0.74472 0.35233 0.0
N1106 N 0.67449 0.7898 0.34117 0.0
H1107 H 0.65205 0.7777 0.22694 0.0
H1108 H 0.68418 0.80603 0.24654 0.0
H1109 H 0.65271 0.80425 0.26373 0.0
C1110 C 0.66251 0.79162 0.25677 0.0
C1111 C 0.52657 0.61764 0.2444 0.0
H1112 H 0.54695 0.62802 0.26184 0.0
H1113 H 0.52063 0.59599 0.23608 0.0
H1114 H 0.51128 0.61744 0.26938 0.0
O1115 O 0.55681 0.67642 0.29865 0.0
O1116 O 0.59077 0.71261 0.33223 0.0
C1117 C 0.61507 0.66963 0.26849 0.0
O1118 O 0.60341 0.75195 0.25188 0.0
O1119 O 0.566 0.72035 0.21699 0.0
Zn1120 Zn 0.29918 0.8981 0.26916 0.0
O1121 O 0.28955 0.91305 0.20939 0.0
C1122 C 0.27379 0.83983 0.23092 0.0
Zn1123 Zn 0.32954 0.89233 0.22817 0.0
C1124 C 0.29837 0.914 0.16825 0.0
O1125 O 0.31498 0.90468 0.16174 0.0
C1126 C 0.32902 0.88088 0.33523 0.0
O1127 O 0.35848 0.93489 0.23878 0.0
O1128 O 0.32851 0.93812 0.28414 0.0
N1129 N 0.35983 0.88796 0.19106 0.0
C1130 C 0.38588 0.89409 0.20226 0.0
C1131 C 0.37884 0.87989 0.13148 0.0
N1132 N 0.35566 0.87911 0.14698 0.0
N1133 N 0.39817 0.88897 0.16558 0.0
C1134 C 0.24496 0.89327 0.29359 0.0
C1135 C 0.2484 0.8991 0.36749 0.0
N1136 N 0.27149 0.9033 0.30506 0.0
N1137 N 0.27391 0.90787 0.35088 0.0
N1138 N 0.2297 0.8892 0.3323 0.0
H1139 H 0.2423 0.87634 0.22358 0.0
H1140 H 0.23906 0.90635 0.22631 0.0
H1141 H 0.21078 0.87375 0.24362 0.0
C1142 C 0.23351 0.8867 0.24433 0.0
C1143 C 0.39978 0.90646 0.24808 0.0
H1144 H 0.42235 0.91981 0.24321 0.0
H1145 H 0.3962 0.88957 0.27249 0.0
H1146 H 0.39127 0.91862 0.26419 0.0
O1147 O 0.34248 0.88245 0.29771 0.0
O1148 O 0.30872 0.88478 0.33166 0.0
C1149 C 0.35197 0.94923 0.26469 0.0
O1150 O 0.26873 0.85646 0.25332 0.0
O1151 O 0.29846 0.84854 0.2168 0.0
C1152 C 0.25959 0.13368 0.08528 0.0
C1153 C 0.2462 0.14444 0.05759 0.0
C1154 C 0.25508 0.10679 0.07828 0.0
C1155 C 0.2374 0.08949 0.04269 0.0
H1156 H 0.27351 0.14602 0.11316 0.0
H1157 H 0.26568 0.09949 0.10076 0.0
S1158 S 0.19664 0.10678 0.96107 0.0
N1159 N 0.21388 0.1349 0.99344 0.0
N1160 N 0.20567 0.08461 0.9804 0.0
C1161 C 0.22378 0.09977 1.01481 0.0
C1162 C 0.2281 0.1271 0.02225 0.0
C1163 C 0.91212 0.15269 0.04499 0.0
C1164 C 0.93397 0.14731 0.03975 0.0
C1165 C 0.88492 0.13128 0.05355 0.0
C1166 C 0.87814 0.1034 0.05687 0.0
H1167 H 0.91619 0.17372 0.04344 0.0
H1168 H 0.86903 0.13672 0.0573 0.0
S1169 S 0.92789 0.07826 0.04495 0.0
N1170 N 0.94701 0.11201 0.03826 0.0
N1171 N 0.89605 0.07185 0.05349 0.0
C1172 C 0.89982 0.09774 0.05099 0.0
C1173 C 0.92761 0.11962 0.04291 0.0
C1174 C 0.87212 0.7713 0.07714 0.0
C1175 C 0.87214 0.78805 0.04032 0.0
C1176 C 0.8944 0.76675 0.08434 0.0
C1177 C 0.91815 0.77916 0.05561 0.0
H1178 H 0.85452 0.76141 0.10043 0.0
H1179 H 0.89301 0.75347 0.11312 0.0
S1180 S 0.92914 0.82615 0.95566 0.0
N1181 N 0.89828 0.81794 0.97571 0.0
N1182 N 0.94026 0.80963 0.9892 0.0
C1183 C 0.91863 0.7964 0.01908 0.0
C1184 C 0.89567 0.80076 1.01142 0.0
C1185 C 0.10711 0.22052 0.52548 0.0
C1186 C 0.09336 0.22816 0.49236 0.0
C1187 C 0.13417 0.22543 0.51718 0.0
C1188 C 0.14872 0.23856 0.47576 0.0
H1189 H 0.09672 0.2103 0.55761 0.0
H1190 H 0.14391 0.21931 0.54371 0.0
S1191 S 0.12141 0.26183 0.37793 0.0
N1192 N 0.09615 0.24887 0.41658 0.0
N1193 N 0.14652 0.25834 0.40099 0.0
C1194 C 0.13497 0.24611 0.44255 0.0
C1195 C 0.1075 0.24082 0.4508 0.0
C1196 C 0.79759 0.9132 0.51901 0.0
C1197 C 0.78543 0.91551 0.47705 0.0
C1198 C 0.80249 0.89098 0.52641 0.0
C1199 C 0.79576 0.8704 0.49189 0.0
H1200 H 0.8028 0.92832 0.54672 0.0
H1201 H 0.81194 0.89012 0.55905 0.0
S1202 S 0.76532 0.86781 0.37493 0.0
N1203 N 0.7679 0.89562 0.39995 0.0
N1204 N 0.77731 0.85455 0.41373 0.0
C1205 C 0.78427 0.87294 0.44955 0.0
C1206 C 0.77901 0.89521 0.44223 0.0
C1207 C 0.10965 0.8887 0.51701 0.0
C1208 C 0.10757 0.87464 0.47458 0.0
C1209 C 0.13169 0.91586 0.52533 0.0
C1210 C 0.15234 0.93021 0.4913 0.0
H1211 H 0.09445 0.87846 0.54436 0.0
H1212 H 0.13232 0.9258 0.55831 0.0
S1213 S 0.15538 0.90366 0.3733 0.0
N1214 N 0.12768 0.87797 0.39753 0.0
N1215 N 0.1684 0.92853 0.41294 0.0
C1216 C 0.15001 0.91659 0.44848 0.0
C1217 C 0.12792 0.88901 0.44024 0.0
C1218 C 0.76676 0.90653 0.99341 0.0
C1219 C 0.79399 0.92815 1.00016 0.0
C1220 C 0.76083 0.87927 0.98464 0.0
C1221 C 0.78178 0.87223 0.98263 0.0
H1222 H 0.74996 0.91084 0.9938 0.0
H1223 H 0.73953 0.86356 0.97956 0.0
S1224 S 0.85654 0.9213 0.99899 0.0
N1225 N 0.84212 0.94067 1.00467 0.0
N1226 N 0.83104 0.88962 0.98904 0.0
C1227 C 0.80908 0.89366 0.99016 0.0
C1228 C 0.81514 0.9215 0.99846 0.0
C1229 C 0.13544 0.90995 0.02056 0.0
C1230 C 0.14733 0.91587 0.9754 0.0
C1231 C 0.10848 0.88757 0.02829 0.0
C1232 C 0.09228 0.87009 0.99118 0.0
H1233 H 0.14727 0.92231 0.05031 0.0
H1234 H 0.10028 0.88432 0.0635 0.0
S1235 S 0.11274 0.87931 0.86529 0.0
N1236 N 0.13987 0.90414 0.89256 0.0
N1237 N 0.08992 0.86224 0.90676 0.0
C1238 C 0.10374 0.87671 0.94562 0.0
C1239 C 0.13102 0.89939 0.93787 0.0
C1240 C 0.15442 0.24546 0.95637 0.0
C1241 C 0.15369 0.2283 0.9931 0.0
C1242 C 0.13274 0.25098 0.9491 0.0
C1243 C 0.10891 0.23917 0.97763 0.0
H1244 H 0.1721 0.25489 0.93321 0.0
H1245 H 0.13464 0.26449 0.92037 0.0
S1246 S 0.09625 0.19164 0.07755 0.0
N1247 N 0.12683 0.19884 0.05761 0.0
N1248 N 0.08603 0.20891 0.04397 0.0
C1249 C 0.10777 0.2216 1.01417 0.0
C1250 C 0.13011 0.21627 0.02191 0.0
C1251 C 0.92082 0.79676 0.51099 0.0
C1252 C 0.93406 0.78866 0.54438 0.0
C1253 C 0.894 0.79258 0.51888 0.0
C1254 C 0.87913 0.77977 0.56019 0.0
H1255 H 0.93144 0.80681 0.47891 0.0
H1256 H 0.88468 0.79901 0.49207 0.0
S1257 S 0.90502 0.75575 0.65921 0.0
N1258 N 0.93044 0.76805 0.62075 0.0
N1259 N 0.88044 0.75985 0.63537 0.0
C1260 C 0.89234 0.7718 0.5938 0.0
C1261 C 0.91962 0.77638 0.58602 0.0
C1262 C 0.21952 0.10006 0.54684 0.0
C1263 C 0.24627 0.10547 0.55866 0.0
C1264 C 0.21378 0.12163 0.53908 0.0
C1265 C 0.23464 0.14956 0.54153 0.0
H1266 H 0.20273 0.07897 0.54427 0.0
H1267 H 0.19287 0.11646 0.53078 0.0
S1268 S 0.30799 0.17541 0.5708 0.0
N1269 N 0.29377 0.14152 0.57259 0.0
N1270 N 0.28288 0.18149 0.55712 0.0
C1271 C 0.26138 0.15533 0.55295 0.0
C1272 C 0.2672 0.13348 0.56168 0.0
C1273 C 0.8916 0.13872 0.5532 0.0
C1274 C 0.91937 0.14511 0.55582 0.0
C1275 C 0.86987 0.11157 0.54516 0.0
C1276 C 0.87486 0.08946 0.5399 0.0
H1277 H 0.88652 0.15486 0.55712 0.0
H1278 H 0.84893 0.10775 0.54425 0.0
S1279 S 0.94344 0.0945 0.54337 0.0
N1280 N 0.95037 0.12657 0.55166 0.0
N1281 N 0.9096 0.07571 0.53755 0.0
C1282 C 0.90242 0.09544 0.54231 0.0
C1283 C 0.92461 0.12315 0.54979 0.0
C1284 C 0.93023 0.46868 0.39133 0.0
C1285 C 0.90954 0.47611 0.38937 0.0
C1286 C 0.92448 0.44158 0.38161 0.0
C1287 C 0.89768 0.42049 0.37026 0.0
H1288 H 0.9512 0.48397 0.40044 0.0
H1289 H 0.94101 0.43691 0.38411 0.0
S1290 S 0.83599 0.42843 0.35999 0.0
N1291 N 0.86104 0.45966 0.37413 0.0
N1292 N 0.85025 0.40879 0.35727 0.0
C1293 C 0.8768 0.42749 0.36812 0.0
C1294 C 0.88272 0.45522 0.37714 0.0
C1295 C 0.57873 0.48676 0.38065 0.0
C1296 C 0.60029 0.4812 0.37274 0.0
C1297 C 0.55154 0.46535 0.38964 0.0
C1298 C 0.54449 0.43732 0.39049 0.0
H1299 H 0.58306 0.5079 0.3809 0.0
H1300 H 0.53587 0.47089 0.39563 0.0
S1301 S 0.59346 0.41179 0.37093 0.0
N1302 N 0.61277 0.44564 0.36613 0.0
N1303 N 0.56187 0.40553 0.38184 0.0
C1304 C 0.56589 0.43155 0.38186 0.0
C1305 C 0.59365 0.4534 0.37349 0.0
C1306 C 0.5385 0.10511 0.41028 0.0
C1307 C 0.53858 0.12169 0.37314 0.0
C1308 C 0.56067 0.1004 0.41766 0.0
C1309 C 0.58437 0.11247 0.38877 0.0
H1310 H 0.52096 0.09549 0.43372 0.0
H1311 H 0.55923 0.08726 0.44671 0.0
S1312 S 0.59546 0.1589 0.28789 0.0
N1313 N 0.56471 0.15106 0.30799 0.0
N1314 N 0.60647 0.14243 0.32181 0.0
C1315 C 0.5849 0.12953 0.35187 0.0
C1316 C 0.56204 0.13405 0.34405 0.0
C1317 C 0.79989 0.5558 0.85143 0.0
C1318 C 0.81433 0.56833 0.80969 0.0
C1319 C 0.77271 0.55065 0.85903 0.0
C1320 C 0.75881 0.55749 0.82491 0.0
H1321 H 0.80984 0.55048 0.87882 0.0
H1322 H 0.76242 0.541 0.89155 0.0
S1323 S 0.78649 0.58888 0.70887 0.0
N1324 N 0.81184 0.5863 0.73323 0.0
N1325 N 0.76124 0.57646 0.74756 0.0
C1326 C 0.77279 0.56933 0.78284 0.0
C1327 C 0.80036 0.57483 0.77527 0.0
C1328 C 0.43503 0.19833 0.82637 0.0
C1329 C 0.46222 0.20371 0.83227 0.0
C1330 C 0.42931 0.2198 0.81818 0.0
C1331 C 0.45044 0.24771 0.81592 0.0
H1332 H 0.41809 0.17728 0.82694 0.0
H1333 H 0.40802 0.21439 0.8137 0.0
S1334 S 0.52518 0.27284 0.83026 0.0
N1335 N 0.51052 0.23902 0.83583 0.0
N1336 N 0.49981 0.27931 0.82127 0.0
C1337 C 0.4777 0.25338 0.82267 0.0
C1338 C 0.48356 0.23144 0.83039 0.0
C1339 C 0.7767 0.22124 0.85278 0.0
C1340 C 0.7733 0.20722 0.80984 0.0
C1341 C 0.79916 0.24826 0.86017 0.0
C1342 C 0.81894 0.26242 0.82474 0.0
H1343 H 0.76227 0.21106 0.88119 0.0
H1344 H 0.80081 0.25823 0.89358 0.0
S1345 S 0.81802 0.23588 0.7048 0.0
N1346 N 0.79092 0.2104 0.73072 0.0
N1347 N 0.83251 0.26065 0.74445 0.0
C1348 C 0.81517 0.24885 0.78138 0.0
C1349 C 0.79263 0.22145 0.77404 0.0
C1350 C 0.47429 0.22683 0.3261 0.0
C1351 C 0.44753 0.20604 0.31291 0.0
C1352 C 0.48057 0.25433 0.33421 0.0
C1353 C 0.46024 0.26208 0.33072 0.0
H1354 H 0.49065 0.22196 0.32938 0.0
H1355 H 0.50148 0.26968 0.34354 0.0
S1356 S 0.38715 0.21621 0.2978 0.0
N1357 N 0.40063 0.19589 0.29668 0.0
N1358 N 0.41256 0.24702 0.31277 0.0
C1359 C 0.43352 0.24164 0.31801 0.0
C1360 C 0.42716 0.21384 0.30895 0.0
C1361 C 0.76751 0.22967 0.33243 0.0
C1362 C 0.75996 0.2016 0.32975 0.0
C1363 C 0.79488 0.25094 0.32388 0.0
C1364 C 0.81574 0.24505 0.31097 0.0
H1365 H 0.75209 0.23518 0.34139 0.0
H1366 H 0.79958 0.27216 0.32658 0.0
S1367 S 0.8061 0.17455 0.29783 0.0
N1368 N 0.7753 0.16905 0.31284 0.0
N1369 N 0.8262 0.20839 0.2959 0.0
C1370 C 0.80816 0.21689 0.30786 0.0
C1371 C 0.78048 0.19538 0.31742 0.0
C1372 C 0.77755 0.56011 0.35244 0.0
C1373 C 0.77588 0.57266 0.31047 0.0
C1374 C 0.7998 0.55539 0.36118 0.0
C1375 C 0.82106 0.56263 0.32799 0.0
H1376 H 0.76179 0.55429 0.37907 0.0
H1377 H 0.80006 0.54553 0.3937 0.0
S1378 S 0.82575 0.59448 0.21172 0.0
N1379 N 0.79735 0.59137 0.23498 0.0
N1380 N 0.83838 0.58218 0.25113 0.0
C1381 C 0.81928 0.57468 0.28575 0.0
C1382 C 0.797 0.57981 0.27712 0.0
C1383 C 0.5827 0.10306 0.91234 0.0
C1384 C 0.59932 0.1198 0.87542 0.0
C1385 C 0.5559 0.09855 0.91981 0.0
C1386 C 0.5445 0.11098 0.89127 0.0
H1387 H 0.59049 0.09321 0.93555 0.0
H1388 H 0.5441 0.08529 0.94867 0.0
S1389 S 0.5802 0.15793 0.79112 0.0
N1390 N 0.60289 0.14968 0.81091 0.0
N1391 N 0.55268 0.14143 0.82485 0.0
C1392 C 0.56114 0.12817 0.85458 0.0
C1393 C 0.58842 0.1325 0.84667 0.0
C1394 C 0.89366 0.46168 0.84283 0.0
C1395 C 0.89986 0.48178 0.87805 0.0
C1396 C 0.89792 0.43907 0.85019 0.0
C1397 C 0.90881 0.43583 0.89288 0.0
H1398 H 0.8851 0.46319 0.80962 0.0
H1399 H 0.89324 0.42438 0.82193 0.0
S1400 S 0.92624 0.48133 0.99745 0.0
N1401 N 0.91593 0.49581 0.95798 0.0
N1402 N 0.92408 0.4539 0.97163 0.0
C1403 C 0.91448 0.45547 0.92852 0.0
C1404 C 0.90991 0.47817 0.92122 0.0
C1405 C 0.56301 0.46421 0.92488 0.0
C1406 C 0.58554 0.47669 0.89364 0.0
C1407 C 0.54065 0.43742 0.91713 0.0
C1408 C 0.53951 0.42179 0.87748 0.0
H1409 H 0.56277 0.47511 0.95613 0.0
H1410 H 0.52393 0.42886 0.94231 0.0
S1411 S 0.59379 0.44364 0.78629 0.0
N1412 N 0.60558 0.47046 0.82212 0.0
N1413 N 0.56383 0.4201 0.80811 0.0
C1414 C 0.56208 0.43364 0.84639 0.0
C1415 C 0.58499 0.46098 0.85438 0.0
C1416 C 0.58852 0.79843 0.75166 0.0
C1417 C 0.57591 0.80972 0.72324 0.0
C1418 C 0.58412 0.77167 0.74411 0.0
C1419 C 0.56738 0.75495 0.70716 0.0
H1420 H 0.60191 0.81033 0.78043 0.0
H1421 H 0.59411 0.76398 0.76726 0.0
S1422 S 0.52912 0.77382 0.62264 0.0
N1423 N 0.54546 0.80137 0.65661 0.0
N1424 N 0.5375 0.75122 0.6424 0.0
C1425 C 0.5546 0.76575 0.67836 0.0
C1426 C 0.55877 0.79301 0.68641 0.0
C1427 C 0.21987 0.79873 0.72721 0.0
C1428 C 0.21247 0.77062 0.72462 0.0
C1429 C 0.24694 0.82014 0.71777 0.0
C1430 C 0.26801 0.81448 0.70613 0.0
H1431 H 0.20456 0.80434 0.73643 0.0
H1432 H 0.25159 0.84133 0.72058 0.0
S1433 S 0.26016 0.74492 0.69449 0.0
N1434 N 0.22895 0.73866 0.70866 0.0
N1435 N 0.27976 0.77884 0.69239 0.0
C1436 C 0.26106 0.78662 0.70352 0.0
C1437 C 0.23337 0.76476 0.71223 0.0
C1438 C 0.20178 0.42958 0.72092 0.0
C1439 C 0.20683 0.45599 0.70836 0.0
C1440 C 0.22363 0.42437 0.72918 0.0
C1441 C 0.2516 0.44521 0.72445 0.0
H1442 H 0.18076 0.41297 0.72535 0.0
H1443 H 0.21844 0.40369 0.73937 0.0
S1444 S 0.27568 0.51791 0.69149 0.0
N1445 N 0.24171 0.50323 0.69165 0.0
N1446 N 0.28266 0.49345 0.70575 0.0
C1447 C 0.2568 0.47165 0.71127 0.0
C1448 C 0.23451 0.47703 0.70372 0.0
C1449 C 0.44256 0.91136 0.12284 0.0
C1450 C 0.42629 0.89462 0.16 0.0
C1451 C 0.46961 0.91658 0.11546 0.0
C1452 C 0.48158 0.90485 0.14432 0.0
H1453 H 0.4343 0.92068 0.09942 0.0
H1454 H 0.48115 0.92983 0.08642 0.0
S1455 S 0.44706 0.85844 0.24557 0.0
N1456 N 0.42373 0.8657 0.22542 0.0
N1457 N 0.47439 0.87518 0.21148 0.0
C1458 C 0.46531 0.88768 0.18131 0.0
C1459 C 0.43779 0.88269 0.1892 0.0
C1460 C 0.09411 0.55288 0.15325 0.0
C1461 C 0.11538 0.58066 0.14961 0.0
C1462 C 0.0997 0.53138 0.1621 0.0
C1463 C 0.12687 0.53663 0.16734 0.0
H1464 H 0.07285 0.54761 0.14944 0.0
H1465 H 0.08266 0.5104 0.16364 0.0
S1466 S 0.19015 0.60542 0.16191 0.0
N1467 N 0.16485 0.61202 0.15309 0.0
N1468 N 0.17531 0.57167 0.1689 0.0
C1469 C 0.14834 0.56424 0.16415 0.0
C1470 C 0.14263 0.5862 0.15575 0.0
C1471 C 0.46711 0.57796 0.19452 0.0
C1472 C 0.4854 0.59293 0.15767 0.0
C1473 C 0.44482 0.55084 0.18768 0.0
C1474 C 0.43995 0.53744 0.1438 0.0
H1475 H 0.46969 0.58732 0.22878 0.0
H1476 H 0.4316 0.5401 0.21722 0.0
S1477 S 0.47999 0.56793 0.0348 0.0
N1478 N 0.49565 0.59241 0.07474 0.0
N1479 N 0.45415 0.54187 0.06226 0.0
C1480 C 0.45739 0.55245 0.10637 0.0
C1481 C 0.47989 0.58003 0.11315 0.0
C1482 C 0.13014 0.58049 0.69545 0.0
C1483 C 0.12875 0.59664 0.65852 0.0
C1484 C 0.12532 0.55344 0.68759 0.0
C1485 C 0.11892 0.54135 0.6425 0.0
H1486 H 0.13544 0.58885 0.7306 0.0
H1487 H 0.12611 0.54173 0.71722 0.0
S1488 S 0.11635 0.57568 0.53278 0.0
N1489 N 0.12261 0.59874 0.5743 0.0
N1490 N 0.11404 0.54855 0.55985 0.0
C1491 C 0.11853 0.55756 0.60513 0.0
C1492 C 0.12341 0.58497 0.613 0.0
C1493 C 0.47126 0.55586 0.61944 0.0
C1494 C 0.48312 0.57979 0.64793 0.0
C1495 C 0.44421 0.53396 0.6269 0.0
C1496 C 0.4278 0.53454 0.66384 0.0
H1497 H 0.48286 0.55408 0.59054 0.0
H1498 H 0.43603 0.51626 0.60365 0.0
S1499 S 0.44832 0.592 0.7486 0.0
N1500 N 0.4757 0.60252 0.71464 0.0
N1501 N 0.4251 0.56125 0.72873 0.0
C1502 C 0.43923 0.55815 0.69275 0.0
C1503 C 0.46674 0.58075 0.68476 0.0
C1504 C 0.46583 0.88927 0.68992 0.0
C1505 C 0.48708 0.89679 0.65663 0.0
C1506 C 0.44373 0.89427 0.68189 0.0
C1507 C 0.44219 0.9074 0.64057 0.0
H1508 H 0.46599 0.87896 0.72196 0.0
H1509 H 0.42794 0.88814 0.70854 0.0
S1510 S 0.49204 0.93007 0.54176 0.0
N1511 N 0.50453 0.91717 0.5803 0.0
N1512 N 0.46373 0.92694 0.56549 0.0
C1513 C 0.4633 0.91486 0.60711 0.0
C1514 C 0.48544 0.90941 0.61499 0.0
C1515 C 0.21809 0.42568 0.22253 0.0
C1516 C 0.21094 0.44655 0.22055 0.0
C1517 C 0.24524 0.43133 0.21476 0.0
C1518 C 0.26666 0.45821 0.20527 0.0
H1519 H 0.20257 0.40465 0.23026 0.0
H1520 H 0.24967 0.41463 0.21725 0.0
S1521 S 0.25965 0.5205 0.19606 0.0
N1522 N 0.22805 0.49539 0.20767 0.0
N1523 N 0.27909 0.506 0.19413 0.0
C1524 C 0.26001 0.47934 0.20319 0.0
C1525 C 0.2322 0.47352 0.21036 0.0
C1526 C 0.59618 0.79541 0.21316 0.0
C1527 C 0.57467 0.76776 0.21774 0.0
C1528 C 0.59096 0.81721 0.20473 0.0
C1529 C 0.56391 0.8125 0.20067 0.0
H1530 H 0.6174 0.80035 0.21602 0.0
H1531 H 0.60825 0.83803 0.20263 0.0
S1532 S 0.50004 0.7442 0.20856 0.0
N1533 N 0.52507 0.7371 0.21627 0.0
N1534 N 0.51526 0.77794 0.20104 0.0
C1535 C 0.54217 0.78499 0.20463 0.0
C1536 C 0.54752 0.7627 0.21271 0.0
C1537 C 0.25624 0.78962 0.20925 0.0
C1538 C 0.25077 0.81089 0.22129 0.0
C1539 C 0.23466 0.76225 0.20154 0.0
C1540 C 0.20674 0.75515 0.20428 0.0
H1541 H 0.27733 0.794 0.20656 0.0
H1542 H 0.23981 0.7465 0.1931 0.0
S1543 S 0.18078 0.80249 0.23397 0.0
N1544 N 0.21465 0.82221 0.23558 0.0
N1545 N 0.17479 0.77131 0.22031 0.0
C1546 C 0.20095 0.77607 0.21587 0.0
C1547 C 0.22274 0.80373 0.22451 0.0
C1548 C 0.32314 0.17753 0.2018 0.0
C1549 C 0.34684 0.20267 0.19027 0.0
C1550 C 0.32341 0.15276 0.20014 0.0
C1551 C 0.34743 0.15266 0.18719 0.0
H1552 H 0.30399 0.17703 0.20976 0.0
H1553 H 0.30506 0.13369 0.20956 0.0
S1554 S 0.41515 0.21327 0.15749 0.0
N1555 N 0.39476 0.22621 0.16702 0.0
N1556 N 0.39593 0.17969 0.16596 0.0
C1557 C 0.37143 0.17779 0.17695 0.0
C1558 C 0.37099 0.20284 0.17816 0.0
C1559 C 0.82201 0.17345 0.17664 0.0
C1560 C 0.82143 0.14929 0.19084 0.0
C1561 C 0.8469 0.1983 0.17526 0.0
C1562 C 0.87186 0.19945 0.18718 0.0
H1563 H 0.80326 0.17279 0.16513 0.0
H1564 H 0.84672 0.21691 0.16559 0.0
S1565 S 0.88112 0.1417 0.22543 0.0
N1566 N 0.84761 0.12768 0.21643 0.0
N1567 N 0.89464 0.17488 0.2137 0.0
C1568 C 0.87153 0.17551 0.20147 0.0
C1569 C 0.8462 0.15031 0.20361 0.0
C1570 C 0.82135 0.65726 0.157 0.0
C1571 C 0.81979 0.67923 0.17782 0.0
C1572 C 0.84599 0.65683 0.15705 0.0
C1573 C 0.86954 0.67813 0.17844 0.0
H1574 H 0.80297 0.63962 0.14303 0.0
H1575 H 0.84691 0.64007 0.13978 0.0
S1576 S 0.87666 0.74177 0.23211 0.0
N1577 N 0.84388 0.72364 0.21658 0.0
N1578 N 0.89075 0.72317 0.21629 0.0
C1579 C 0.86849 0.70078 0.19748 0.0
C1580 C 0.84349 0.70131 0.19697 0.0
C1581 C 0.18114 0.36329 0.36387 0.0
C1582 C 0.15832 0.34227 0.3398 0.0
C1583 C 0.20643 0.36417 0.36393 0.0
C1584 C 0.20952 0.34391 0.34042 0.0
H1585 H 0.17946 0.37941 0.382 0.0
H1586 H 0.22326 0.37977 0.38466 0.0
S1587 S 0.15707 0.28693 0.26723 0.0
N1588 N 0.14108 0.30277 0.28784 0.0
N1589 N 0.18859 0.30364 0.28928 0.0
C1590 C 0.18727 0.32362 0.31431 0.0
C1591 C 0.16158 0.32282 0.31412 0.0
C1592 C 0.69836 0.83953 0.33045 0.0
C1593 C 0.67743 0.81593 0.35218 0.0
C1594 C 0.69798 0.86422 0.33146 0.0
C1595 C 0.6765 0.86583 0.35395 0.0
H1596 H 0.71466 0.83854 0.3117 0.0
H1597 H 0.71519 0.88253 0.31656 0.0
S1598 S 0.61587 0.8094 0.41286 0.0
N1599 N 0.63377 0.79511 0.39421 0.0
N1600 N 0.63354 0.84209 0.39676 0.0
C1601 C 0.65513 0.8423 0.37468 0.0
C1602 C 0.65555 0.81721 0.37393 0.0
C1603 C 0.17985 0.8638 0.32022 0.0
C1604 C 0.20369 0.8647 0.33725 0.0
C1605 C 0.15474 0.83911 0.3207 0.0
C1606 C 0.15303 0.81479 0.33804 0.0
H1607 H 0.18084 0.88226 0.30637 0.0
H1608 H 0.13623 0.83924 0.31015 0.0
S1609 S 0.21029 0.80573 0.38007 0.0
N1610 N 0.22485 0.83878 0.36659 0.0
N1611 N 0.17708 0.7924 0.36887 0.0
C1612 C 0.17691 0.81515 0.35281 0.0
C1613 C 0.20244 0.84015 0.35219 0.0
C1614 C 0.65577 0.81497 0.85237 0.0
C1615 C 0.68011 0.81514 0.84106 0.0
C1616 C 0.6552 0.83956 0.85322 0.0
C1617 C 0.67911 0.86489 0.8435 0.0
H1618 H 0.63754 0.79591 0.86231 0.0
H1619 H 0.63596 0.83892 0.86091 0.0
S1620 S 0.74785 0.87604 0.81268 0.0
N1621 N 0.72862 0.84236 0.82023 0.0
N1622 N 0.72728 0.88881 0.82175 0.0
C1623 C 0.70341 0.86528 0.83177 0.0
C1624 C 0.70394 0.84028 0.83027 0.0
C1625 C 0.13603 0.83634 0.80126 0.0
C1626 C 0.12638 0.8171 0.83796 0.0
C1627 C 0.15978 0.86189 0.80744 0.0
C1628 C 0.17239 0.87006 0.85188 0.0
H1629 H 0.12728 0.83062 0.76648 0.0
H1630 H 0.16883 0.87468 0.77676 0.0
S1631 S 0.13929 0.83535 0.96422 0.0
N1632 N 0.12172 0.81245 0.92293 0.0
N1633 N 0.16271 0.86297 0.9362 0.0
C1634 C 0.1572 0.85424 0.89095 0.0
C1635 C 0.13447 0.82721 0.88379 0.0
C1636 C 0.15297 0.31759 0.82769 0.0
C1637 C 0.15145 0.34138 0.83829 0.0
C1638 C 0.17816 0.3182 0.82873 0.0
C1639 C 0.20228 0.34265 0.84005 0.0
H1640 H 0.13427 0.29808 0.82168 0.0
H1641 H 0.17892 0.29967 0.82074 0.0
S1642 S 0.20931 0.41094 0.8647 0.0
N1643 N 0.17586 0.39003 0.85719 0.0
N1644 N 0.22379 0.39173 0.85725 0.0
C1645 C 0.20114 0.36685 0.84821 0.0
C1646 C 0.17553 0.36611 0.84752 0.0
C1647 C 0.83947 0.69092 0.70563 0.0
C1648 C 0.81786 0.67138 0.67748 0.0
C1649 C 0.86474 0.69183 0.70729 0.0
C1650 C 0.86909 0.67313 0.68122 0.0
H1651 H 0.83714 0.70635 0.72482 0.0
H1652 H 0.8808 0.70668 0.73014 0.0
S1653 S 0.81942 0.61898 0.60046 0.0
N1654 N 0.80253 0.63376 0.62173 0.0
N1655 N 0.85014 0.63493 0.62561 0.0
C1656 C 0.84776 0.65371 0.65248 0.0
C1657 C 0.82203 0.6528 0.65082 0.0
C1658 C 0.3706 0.17292 0.66814 0.0
C1659 C 0.34641 0.14905 0.68132 0.0
C1660 C 0.37137 0.1982 0.66659 0.0
C1661 C 0.34797 0.20013 0.67836 0.0
H1662 H 0.3887 0.17181 0.65832 0.0
H1663 H 0.39064 0.21665 0.65833 0.0
S1664 S 0.27932 0.14322 0.71169 0.0
N1665 N 0.29806 0.12834 0.70305 0.0
N1666 N 0.30013 0.17647 0.70208 0.0
C1667 C 0.32365 0.1764 0.69077 0.0
C1668 C 0.32272 0.15067 0.69192 0.0
C1669 C 0.85029 0.2007 0.66321 0.0
C1670 C 0.87365 0.20263 0.68478 0.0
C1671 C 0.82545 0.17574 0.66256 0.0
C1672 C 0.82349 0.15198 0.68298 0.0
H1673 H 0.85163 0.21846 0.64561 0.0
H1674 H 0.80735 0.17513 0.64769 0.0
S1675 S 0.87924 0.14578 0.74042 0.0
N1676 N 0.89384 0.17847 0.72453 0.0
N1677 N 0.8467 0.1314 0.72358 0.0
C1678 C 0.84679 0.15345 0.70359 0.0
C1679 C 0.87196 0.17887 0.70471 0.0
C1680 C 0.05033 0.54985 0.4692 0.0
C1681 C 0.04102 0.55973 0.50607 0.0
C1682 C 0.05196 0.526 0.47516 0.0
C1683 C 0.04759 0.51344 0.51953 0.0
H1684 H 0.05353 0.55865 0.43452 0.0
H1685 H 0.05563 0.51691 0.44438 0.0
S1686 S 0.04636 0.54672 0.6322 0.0
N1687 N 0.04119 0.56441 0.59111 0.0
N1688 N 0.05025 0.52313 0.60392 0.0
C1689 C 0.04706 0.52868 0.55873 0.0
C1690 C 0.04299 0.55156 0.55181 0.0
C1691 C 0.51252 0.53062 0.50449 0.0
C1692 C 0.537 0.53176 0.51961 0.0
C1693 C 0.48738 0.50598 0.50636 0.0
C1694 C 0.48612 0.48201 0.52372 0.0
H1695 H 0.51285 0.54917 0.49271 0.0
H1696 H 0.46899 0.5053 0.49273 0.0
S1697 S 0.54466 0.47451 0.56599 0.0
N1698 N 0.55871 0.50742 0.55186 0.0
N1699 N 0.51138 0.46059 0.55475 0.0
C1700 C 0.5105 0.48303 0.53903 0.0
C1701 C 0.53601 0.50802 0.53677 0.0
C1702 C 0.51032 0.99124 0.48697 0.0
C1703 C 0.53381 0.01194 0.50949 0.0
C1704 C 0.48583 0.99198 0.48708 0.0
C1705 C 0.48438 0.01372 0.50911 0.0
H1706 H 0.51111 0.97461 0.46893 0.0
H1707 H 0.46746 0.97468 0.47237 0.0
S1708 S 0.5414 0.07507 0.56606 0.0
N1709 N 0.55523 0.05638 0.54935 0.0
N1710 N 0.50872 0.05755 0.54972 0.0
C1711 C 0.50813 0.03537 0.52907 0.0
C1712 C 0.53296 0.03447 0.5295 0.0
C1713 C 0.51426 0.98635 0.99899 0.0
C1714 C 0.5384 0.00931 1.01629 0.0
C1715 C 0.48912 0.98582 0.99987 0.0
C1716 C 0.48752 1.00816 0.01823 0.0
H1717 H 0.51478 0.96832 0.98653 0.0
H1718 H 0.47101 0.96837 0.98487 0.0
S1719 S 0.54507 0.07334 0.06571 0.0
N1720 N 0.55943 0.05477 0.05133 0.0
N1721 N 0.51207 0.05423 0.05216 0.0
C1722 C 0.51156 0.03126 0.03534 0.0
C1723 C 0.53709 0.0318 0.0342 0.0
C1724 C 0.99282 0.48424 0.04187 0.0
C1725 C 0.0148 0.48285 0.02083 0.0
C1726 C 0.99217 0.5088 0.04199 0.0
C1727 C 0.01321 0.53243 0.02051 0.0
H1728 H 0.97545 0.46585 0.05624 0.0
H1729 H 0.97555 0.50967 0.05982 0.0
S1730 S 0.07641 0.53975 0.965 0.0
N1731 N 0.05869 0.50704 0.98092 0.0
N1732 N 0.05778 0.55369 0.98138 0.0
C1733 C 0.0357 0.53144 1.00068 0.0
C1734 C 0.03647 0.50654 1.00108 0.0
C1735 C 0.50625 0.48289 1.00168 0.0
C1736 C 0.4894 0.48325 0.03747 0.0
C1737 C 0.53227 0.50555 0.99435 0.0
C1738 C 0.54203 0.52958 0.02194 0.0
H1739 H 0.49889 0.4652 0.97851 0.0
H1740 H 0.54467 0.5043 0.96652 0.0
S1741 S 0.5082 0.53941 0.12523 0.0
N1742 N 0.4854 0.50897 0.10382 0.0
N1743 N 0.53517 0.55109 0.09026 0.0
C1744 C 0.52632 0.5296 0.05974 0.0
C1745 C 0.49966 0.50661 0.0673 0.0
C1746 C 0.35185 0.27304 0.98094 0.0
C1747 C 0.32354 0.26017 0.96791 0.0
C1748 C 0.37352 0.28409 0.94755 0.0
C1749 C 0.36817 0.28267 0.89905 0.0
H1750 H 0.35753 0.27452 0.01766 0.0
H1751 H 0.39459 0.29324 0.95991 0.0
S1752 S 0.29804 0.25263 0.84547 0.0
N1753 N 0.29187 0.24792 0.90242 0.0
N1754 N 0.33187 0.26823 0.83989 0.0
C1755 C 0.33994 0.27034 0.88551 0.0
C1756 C 0.31794 0.25927 0.91963 0.0
C1757 C 0.7471 0.08059 0.98105 0.0
C1758 C 0.76209 0.06725 0.96796 0.0
C1759 C 0.73622 0.09143 0.94767 0.0
C1760 C 0.73995 0.08991 0.89909 0.0
H1761 H 0.74376 0.08288 0.01787 0.0
H1762 H 0.72526 0.10156 0.96019 0.0
S1763 S 0.77649 0.05615 0.84522 0.0
N1764 N 0.779 0.05249 0.90226 0.0
N1765 N 0.75914 0.07268 0.83972 0.0
C1766 C 0.75448 0.07614 0.88544 0.0
C1767 C 0.76531 0.06489 0.91956 0.0
C1768 C 0.94028 0.6804 0.88758 0.0
C1769 C 0.93083 0.65258 0.90103 0.0
C1770 C 0.95223 0.7027 0.91988 0.0
C1771 C 0.95517 0.69845 0.96768 0.0
H1772 H 0.93832 0.68518 0.85142 0.0
H1773 H 0.95843 0.72327 0.90749 0.0
S1774 S 0.93579 0.63038 0.02155 0.0
N1775 N 0.92685 0.62282 0.96584 0.0
N1776 N 0.94885 0.66404 0.02637 0.0
C1777 C 0.94642 0.67085 0.98148 0.0
C1778 C 0.93443 0.64821 0.94845 0.0
C1779 C 0.26387 0.31549 0.61347 0.0
C1780 C 0.26562 0.32066 0.5649 0.0
C1781 C 0.27463 0.33728 0.64678 0.0
C1782 C 0.28796 0.36557 0.63364 0.0
H1783 H 0.25368 0.29442 0.62602 0.0
H1784 H 0.27236 0.33172 0.6836 0.0
S1785 S 0.29992 0.39088 0.5109 0.0
N1786 N 0.28332 0.35697 0.50542 0.0
N1787 N 0.30322 0.39717 0.56795 0.0
C1788 C 0.29063 0.37109 0.58526 0.0
C1789 C 0.27955 0.34895 0.55117 0.0
C1790 C 0.66739 0.95077 0.61602 0.0
C1791 C 0.65481 0.92292 0.63046 0.0
C1792 C 0.69181 0.96314 0.5883 0.0
C1793 C 0.70508 0.94841 0.57449 0.0
H1794 H 0.65864 0.96328 0.62706 0.0
H1795 H 0.7 0.98424 0.57672 0.0
S1796 S 0.68085 0.87514 0.6032 0.0
N1797 N 0.65808 0.88135 0.629 0.0
N1798 N 0.70309 0.90417 0.577 0.0
C1799 C 0.69261 0.92063 0.58871 0.0
C1800 C 0.66795 0.90813 0.61682 0.0
C1801 C 0.09023 0.74619 0.55219 0.0
C1802 C 0.07447 0.75864 0.56575 0.0
C1803 C 0.10085 0.73484 0.58514 0.0
C1804 C 0.09662 0.73557 0.63372 0.0
H1805 H 0.0946 0.74522 0.51538 0.0
H1806 H 0.113 0.72603 0.57243 0.0
S1807 S 0.05557 0.76419 0.68848 0.0
N1808 N 0.05439 0.76963 0.63174 0.0
N1809 N 0.07406 0.74881 0.6934 0.0
C1810 C 0.08038 0.74743 0.64771 0.0
C1811 C 0.06942 0.75876 0.61404 0.0
C1812 C 0.65099 0.73303 0.08646 0.0
C1813 C 0.65603 0.73185 0.13457 0.0
C1814 C 0.6728 0.74449 0.05332 0.0
C1815 C 0.70093 0.75521 0.06614 0.0
H1816 H 0.63012 0.72573 0.07437 0.0
H1817 H 0.66737 0.74509 0.01698 0.0
S1818 S 0.72532 0.75511 0.18729 0.0
N1819 N 0.69162 0.74124 0.19295 0.0
N1820 N 0.73191 0.76232 0.1309 0.0
C1821 C 0.70613 0.75339 0.11393 0.0
C1822 C 0.68398 0.7419 0.14783 0.0
C1823 C 0.27234 0.92699 0.05039 0.0
C1824 C 0.26393 0.94642 0.06204 0.0
C1825 C 0.28448 0.91735 0.08363 0.0
C1826 C 0.2887 0.92644 0.1306 0.0
H1827 H 0.26943 0.91888 1.01497 0.0
H1828 H 0.28982 0.90208 0.0727 0.0
S1829 S 0.27246 0.97853 0.17959 0.0
N1830 N 0.26233 0.97521 0.12426 0.0
N1831 N 0.28476 0.95741 0.18631 0.0
C1832 C 0.281 0.94634 0.14251 0.0
C1833 C 0.26879 0.95621 0.10859 0.0
C1834 C 0.10026 0.36989 0.08717 0.0
C1835 C 0.09315 0.36526 0.13498 0.0
C1836 C 0.0903 0.3478 0.05442 0.0
C1837 C 0.07242 0.31977 0.06733 0.0
H1838 H 0.11429 0.39062 0.07509 0.0
H1839 H 0.09699 0.35293 0.0183 0.0
S1840 S 0.04565 0.29645 0.18772 0.0
N1841 N 0.06564 0.33017 0.19311 0.0
N1842 N 0.04716 0.28937 0.13179 0.0
C1843 C 0.06451 0.31499 0.11478 0.0
C1844 C 0.07477 0.33742 0.14828 0.0
C1845 C 0.76453 0.70344 0.41882 0.0
C1846 C 0.7624 0.69888 0.4676 0.0
C1847 C 0.75355 0.68117 0.38632 0.0
C1848 C 0.73949 0.65302 0.40056 0.0
H1849 H 0.77522 0.72434 0.4055 0.0
H1850 H 0.75631 0.68625 0.34928 0.0
S1851 S 0.72657 0.62931 0.5242 0.0
N1852 N 0.74377 0.66327 0.52836 0.0
N1853 N 0.72336 0.62232 0.4674 0.0
C1854 C 0.73652 0.64817 0.4491 0.0
C1855 C 0.74788 0.67075 0.48234 0.0
C1856 C 0.35122 0.08218 0.47997 0.0
C1857 C 0.32287 0.06631 0.46727 0.0
C1858 C 0.3728 0.09279 0.44643 0.0
C1859 C 0.36735 0.08815 0.39806 0.0
H1860 H 0.35703 0.08672 0.51657 0.0
H1861 H 0.39387 0.10522 0.45856 0.0
S1862 S 0.29729 0.04541 0.34545 0.0
N1863 N 0.29117 0.04505 0.40228 0.0
N1864 N 0.33108 0.06423 0.33952 0.0
C1865 C 0.33916 0.07138 0.38489 0.0
C1866 C 0.31721 0.06068 0.41917 0.0
C1867 C 0.957 0.25792 0.41976 0.0
C1868 C 0.95564 0.26174 0.46832 0.0
C1869 C 0.94559 0.26833 0.38658 0.0
C1870 C 0.93221 0.28327 0.39983 0.0
H1871 H 0.96647 0.24635 0.40719 0.0
H1872 H 0.9473 0.26446 0.3498 0.0
S1873 S 0.92508 0.30132 0.52236 0.0
N1874 N 0.94111 0.28348 0.52768 0.0
N1875 N 0.91996 0.3025 0.46548 0.0
C1876 C 0.93154 0.28804 0.4481 0.0
C1877 C 0.94307 0.27744 0.48204 0.0
C1878 C 1.00752 0.60167 0.22272 0.0
C1879 C 0.03578 0.61691 0.2363 0.0
C1880 C 0.98564 0.5906 0.25566 0.0
C1881 C 0.9907 0.59382 0.30426 0.0
H1882 H 1.00204 0.59795 0.18585 0.0
H1883 H 0.96464 0.57884 0.24287 0.0
S1884 S 0.06049 0.63328 0.35938 0.0
N1885 N 0.06704 0.6355 0.30248 0.0
N1886 N 0.02662 0.61497 0.36426 0.0
C1887 C 0.01885 0.60961 0.31841 0.0
C1888 C 0.04109 0.62104 0.28472 0.0
C1889 C 0.42374 0.3932 0.25788 0.0
C1890 C 0.42649 0.40053 0.30568 0.0
C1891 C 0.41161 0.40316 0.22527 0.0
C1892 C 0.40169 0.42118 0.23834 0.0
H1893 H 0.43113 0.37979 0.24535 0.0
H1894 H 0.41007 0.39659 0.18907 0.0
S1895 S 0.40159 0.44515 0.35967 0.0
N1896 N 0.41609 0.42587 0.36477 0.0
N1897 N 0.39416 0.44446 0.30338 0.0
C1898 C 0.40338 0.42788 0.28614 0.0
C1899 C 0.41559 0.41773 0.31956 0.0
C1900 C 0.6205 0.03578 0.25294 0.0
C1901 C 0.62138 0.03118 0.30128 0.0
C1902 C 0.60903 0.01363 0.22026 0.0
C1903 C 0.59802 0.98557 0.23382 0.0
H1904 H 0.628 0.05657 0.24028 0.0
H1905 H 0.60867 0.01874 0.18367 0.0
S1906 S 0.59732 0.96224 0.35591 0.0
N1907 N 0.61144 0.99604 0.36072 0.0
N1908 N 0.59035 0.95513 0.29952 0.0
C1909 C 0.59959 0.9808 0.28185 0.0
C1910 C 0.61108 1.00329 0.31527 0.0
C1911 C 0.4227 0.01436 0.7202 0.0
C1912 C 0.4056 0.98628 0.7335 0.0
C1913 C 0.43331 0.03636 0.7531 0.0
C1914 C 0.42768 0.03153 0.80134 0.0
H1915 H 0.42823 0.01961 0.68368 0.0
H1916 H 0.4466 0.0572 0.7407 0.0
S1917 S 0.38273 0.96241 0.85525 0.0
N1918 N 0.38271 0.95554 0.79879 0.0
N1919 N 0.4024 0.99618 0.86044 0.0
C1920 C 0.41012 1.00361 0.81508 0.0
C1921 C 0.39921 0.98128 0.78145 0.0
C1922 C 0.03931 0.42919 0.77761 0.0
C1923 C 0.0341 0.42421 0.72921 0.0
C1924 C 0.01761 0.41847 0.81092 0.0
C1925 C 0.98939 0.4018 0.79798 0.0
H1926 H 0.06029 0.442 0.78991 0.0
H1927 H 0.02319 0.42349 0.84754 0.0
S1928 S 0.96442 0.38072 0.67588 0.0
N1929 N 0.99819 0.40007 0.67027 0.0
N1930 N 0.95805 0.38009 0.73266 0.0
C1931 C 0.98397 0.39605 0.74982 0.0
C1932 C 1.00603 0.40717 0.71574 0.0
C1933 C 0.62668 0.62584 0.74171 0.0
C1934 C 0.59804 0.61597 0.73735 0.0
C1935 C 0.63724 0.61266 0.77101 0.0
C1936 C 0.61963 0.58863 0.7967 0.0
H1937 H 0.64109 0.64379 0.72181 0.0
H1938 H 0.65937 0.62176 0.7744 0.0
S1939 S 0.54302 0.55201 0.79219 0.0
N1940 N 0.55246 0.57909 0.758 0.0
N1941 N 0.57187 0.5544 0.812 0.0
C1942 C 0.59099 0.57811 0.7911 0.0
C1943 C 0.58034 0.59159 0.76169 0.0
C1944 C 0.23095 0.20523 0.30424 0.0
C1945 C 0.21548 0.21769 0.31726 0.0
C1946 C 0.23524 0.20145 0.2564 0.0
C1947 C 0.22404 0.20961 0.21913 0.0
H1948 H 0.24174 0.20048 0.33093 0.0
H1949 H 0.24895 0.19356 0.24855 0.0
S1950 S 0.17848 0.23932 0.23443 0.0
N1951 N 0.18636 0.23536 0.28874 0.0
N1952 N 0.19418 0.22789 0.19968 0.0
C1953 C 0.20656 0.21979 0.23188 0.0
C1954 C 0.20242 0.22395 0.28055 0.0
C1955 C 0.7954 0.98967 0.23412 0.0
C1956 C 0.81014 0.01767 0.2212 0.0
C1957 C 0.79061 0.98159 0.28189 0.0
C1958 C 0.8007 1.00101 0.31923 0.0
H1959 H 0.78566 0.97395 0.20725 0.0
H1960 H 0.77759 0.95985 0.28959 0.0
S1961 S 0.84343 0.07677 0.30467 0.0
N1962 N 0.83695 0.06478 0.25027 0.0
N1963 N 0.82832 0.04949 0.33919 0.0
C1964 C 0.81729 0.02889 0.30679 0.0
C1965 C 0.82186 0.03719 0.25818 0.0
C1966 C 0.03175 0.81218 0.23123 0.0
C1967 C 1.00377 0.79819 0.21812 0.0
C1968 C 0.03981 0.81577 0.27908 0.0
C1969 C 0.02037 0.80592 0.31628 0.0
H1970 H 0.04752 0.81843 0.20449 0.0
H1971 H 0.06159 0.82497 0.28694 0.0
S1972 S 0.94455 0.77116 0.30106 0.0
N1973 N 0.95659 0.77694 0.24677 0.0
N1974 N 0.97183 0.78395 0.33581 0.0
C1975 C 0.99246 0.79402 0.30361 0.0
C1976 C 0.98419 0.79008 0.25493 0.0
C1977 C 0.82035 0.78931 0.75594 0.0
C1978 C 0.81047 0.79876 0.71857 0.0
C1979 C 0.81645 0.79362 0.80372 0.0
C1980 C 0.80205 0.80723 0.81662 0.0
H1981 H 0.82983 0.77698 0.74822 0.0
H1982 H 0.82285 0.78427 0.83056 0.0
S1983 S 0.77457 0.83877 0.73309 0.0
N1984 N 0.7879 0.8247 0.6986 0.0
N1985 N 0.78027 0.83259 0.7875 0.0
C1986 C 0.79382 0.81851 0.77964 0.0
C1987 C 0.79811 0.81438 0.73102 0.0
C1988 C 0.22998 0.03011 0.80428 0.0
C1989 C 0.21436 1.00228 0.81769 0.0
C1990 C 0.23466 0.03779 0.75634 0.0
C1991 C 0.22375 0.01809 0.71941 0.0
H1992 H 0.24062 0.04585 0.83081 0.0
H1993 H 0.24845 0.05933 0.74818 0.0
S1994 S 0.17818 0.94279 0.7358 0.0
N1995 N 0.18546 0.95521 0.78988 0.0
N1996 N 0.19414 0.96968 0.70059 0.0
C1997 C 0.20612 0.99049 0.73246 0.0
C1998 C 0.20153 0.98263 0.78124 0.0
C1999 C 0.98634 0.20172 0.75541 0.0
C2000 C 1.00595 0.21176 0.71847 0.0
C2001 C 0.99421 0.20511 0.80336 0.0
C2002 C 0.02214 0.21909 0.8168 0.0
H2003 H 0.96459 0.19251 0.74727 0.0
H2004 H 0.97833 0.19874 0.82993 0.0
S2005 S 0.08175 0.24685 0.73468 0.0
N2006 N 0.05461 0.23406 0.69957 0.0
N2007 N 0.06946 0.24073 0.78878 0.0
C2008 C 0.04188 0.22746 0.78025 0.0
C2009 C 0.03383 0.22372 0.73148 0.0
C2010 C 0.89764 0.53792 0.63997 0.0
C2011 C 0.88268 0.55098 0.65252 0.0
C2012 C 0.90232 0.53433 0.5923 0.0
C2013 C 0.89201 0.54332 0.55488 0.0
H2014 H 0.90776 0.53252 0.66696 0.0
H2015 H 0.9156 0.52589 0.58477 0.0
S2016 S 0.84796 0.57487 0.56898 0.0
N2017 N 0.85491 0.5701 0.62343 0.0
N2018 N 0.86343 0.56299 0.53459 0.0
C2019 C 0.87495 0.55409 0.5671 0.0
C2020 C 0.87043 0.55804 0.61559 0.0
C2021 C 0.46485 0.32294 0.56628 0.0
C2022 C 0.47857 0.35099 0.55364 0.0
C2023 C 0.4606 0.31471 0.61401 0.0
C2024 C 0.47012 0.33405 0.65151 0.0
H2025 H 0.4554 0.30724 0.53931 0.0
H2026 H 0.44824 0.29288 0.62155 0.0
S2027 S 0.51043 0.40999 0.63743 0.0
N2028 N 0.50415 0.39812 0.58296 0.0
N2029 N 0.49628 0.38258 0.67171 0.0
C2030 C 0.48583 0.36204 0.63921 0.0
C2031 C 0.48995 0.37047 0.59069 0.0
C2032 C 0.65101 0.1208 0.59028 0.0
C2033 C 0.67017 0.13065 0.55264 0.0
C2034 C 0.65945 0.12527 0.63799 0.0
C2035 C 0.68753 0.1395 0.65051 0.0
H2036 H 0.6292 0.10808 0.58283 0.0
H2037 H 0.64391 0.1156 0.66503 0.0
S2038 S 0.74612 0.1722 0.56643 0.0
N2039 N 0.71859 0.15763 0.53221 0.0
N2040 N 0.73446 0.16574 0.62094 0.0
C2041 C 0.7068 0.15112 0.61333 0.0
C2042 C 0.69818 0.14684 0.56482 0.0
C2043 C 0.48275 0.12625 0.13723 0.0
C2044 C 0.46861 0.14021 0.14961 0.0
C2045 C 0.48658 0.12161 0.08962 0.0
C2046 C 0.47686 0.13106 0.05201 0.0
H2047 H 0.48892 0.11686 0.16435 0.0
H2048 H 0.49585 0.10905 0.08225 0.0
S2049 S 0.44174 0.17193 0.06538 0.0
N2050 N 0.44728 0.16586 0.11993 0.0
N2051 N 0.45485 0.15747 0.03127 0.0
C2052 C 0.46482 0.14706 0.06397 0.0
C2053 C 0.4606 0.15149 0.11241 0.0
C2054 C 0.87314 0.31348 0.11074 0.0
C2055 C 0.88272 0.33288 0.14814 0.0
C2056 C 0.87687 0.32164 0.06299 0.0
C2057 C 0.89076 0.34966 0.05026 0.0
H2058 H 0.86403 0.2917 0.11838 0.0
H2059 H 0.87079 0.30594 0.03606 0.0
S2060 S 0.91724 0.40879 0.13371 0.0
N2061 N 0.90439 0.38144 0.16819 0.0
N2062 N 0.91176 0.39681 0.07931 0.0
C2063 C 0.89868 0.36918 0.08721 0.0
C2064 C 0.89456 0.36084 0.13577 0.0
C2065 C 0.66191 0.53942 0.13559 0.0
C2066 C 0.68973 0.5529 0.14963 0.0
C2067 C 0.65442 0.53605 0.08746 0.0
C2068 C 0.67428 0.54555 0.05092 0.0
H2069 H 0.6459 0.53347 0.16177 0.0
H2070 H 0.63279 0.52729 0.0788 0.0
S2071 S 0.74985 0.57929 0.06877 0.0
N2072 N 0.73719 0.57359 0.12263 0.0
N2073 N 0.72299 0.56687 0.03306 0.0
C2074 C 0.70199 0.55701 0.06455 0.0
C2075 C 0.70969 0.56078 0.11351 0.0
C2076 C 0.56741 0.86931 0.92072 0.0
C2077 C 0.55739 0.87878 0.88357 0.0
C2078 C 0.56295 0.87287 0.96857 0.0
C2079 C 0.54861 0.8865 0.98172 0.0
H2080 H 0.58021 0.86039 0.91278 0.0
H2081 H 0.57271 0.86686 0.99528 0.0
S2082 S 0.51564 0.91281 0.89893 0.0
N2083 N 0.53028 0.90021 0.86413 0.0
N2084 N 0.52217 0.90725 0.95319 0.0
C2085 C 0.53687 0.89436 0.94498 0.0
C2086 C 0.54114 0.8904 0.89629 0.0
C2087 C 0.1482 0.69385 0.97167 0.0
C2088 C 0.13351 0.66571 0.98377 0.0
C2089 C 0.15218 0.70243 0.92416 0.0
C2090 C 0.14212 0.68338 0.88631 0.0
H2091 H 0.15484 0.7094 0.99898 0.0
H2092 H 0.16201 0.72434 0.91707 0.0
S2093 S 0.10525 0.60729 0.89867 0.0
N2094 N 0.11107 0.61875 0.95341 0.0
N2095 N 0.11893 0.63496 0.86497 0.0
C2096 C 0.12936 0.65525 0.89795 0.0
C2097 C 0.12495 0.64646 0.94629 0.0
C2098 C 0.32563 0.4571 0.97255 0.0
C2099 C 0.35353 0.47143 0.98618 0.0
C2100 C 0.31788 0.45289 0.92454 0.0
C2101 C 0.33757 0.46308 0.88773 0.0
H2102 H 0.30974 0.44715 0.99896 0.0
H2103 H 0.29619 0.44009 0.9162 0.0
S2104 S 0.41327 0.50499 0.90464 0.0
N2105 N 0.40084 0.49813 0.95864 0.0
N2106 N 0.38624 0.49043 0.86931 0.0
C2107 C 0.36538 0.47935 0.90103 0.0
C2108 C 0.37331 0.4834 0.94986 0.0
C2109 C 0.15169 0.45846 0.47197 0.0
C2110 C 0.13951 0.47411 0.48543 0.0
C2111 C 0.15465 0.45365 0.42401 0.0
C2112 C 0.14577 0.46439 0.38704 0.0
H2113 H 0.15686 0.44792 0.4985 0.0
H2114 H 0.1625 0.43993 0.41592 0.0
S2115 S 0.11605 0.51 0.40351 0.0
N2116 N 0.12127 0.50288 0.45758 0.0
N2117 N 0.12692 0.49394 0.36829 0.0
C2118 C 0.13577 0.48201 0.40014 0.0
C2119 C 0.1326 0.48678 0.44894 0.0
C2120 C 0.56568 0.70084 0.42258 0.0
C2121 C 0.55664 0.6814 0.38522 0.0
C2122 C 0.5619 0.69278 0.47046 0.0
C2123 C 0.54923 0.66482 0.48354 0.0
H2124 H 0.57719 0.72269 0.41479 0.0
H2125 H 0.57083 0.70867 0.49723 0.0
S2126 S 0.51925 0.60541 0.40035 0.0
N2127 N 0.53221 0.63268 0.3657 0.0
N2128 N 0.52536 0.61754 0.45466 0.0
C2129 C 0.53849 0.64515 0.44663 0.0
C2130 C 0.54207 0.65338 0.39794 0.0
C2131 C 0.32653 0.87263 0.46926 0.0
C2132 C 0.35451 0.8865 0.48241 0.0
C2133 C 0.31849 0.86887 0.42137 0.0
C2134 C 0.33798 0.87844 0.38424 0.0
H2135 H 0.31077 0.86661 0.49596 0.0
H2136 H 0.29674 0.85974 0.41339 0.0
S2137 S 0.41382 0.9132 0.39981 0.0
N2138 N 0.4017 0.90759 0.45402 0.0
N2139 N 0.38657 0.9003 0.36497 0.0
C2140 C 0.36588 0.89033 0.39705 0.0
C2141 C 0.3741 0.89443 0.44573 0.0
C2142 C 0.29391 0.3264 0.06279 0.0
C2143 C 0.28945 0.31135 0.10455 0.0
C2144 C 0.30847 0.35526 0.06337 0.0
C2145 C 0.31798 0.36966 0.1059 0.0
H2146 H 0.28771 0.31586 0.0292 0.0
H2147 H 0.31304 0.36634 0.0304 0.0
S2148 S 0.30936 0.33969 0.22496 0.0
N2149 N 0.29437 0.31272 0.18947 0.0
N2150 N 0.32067 0.36711 0.1909 0.0
C2151 C 0.31212 0.35485 0.14813 0.0
C2152 C 0.29808 0.32555 0.14738 0.0
C2153 C 0.66534 0.945 0.1048 0.0
C2154 C 0.65072 0.95912 0.09789 0.0
C2155 C 0.69433 0.95933 0.10556 0.0
C2156 C 0.70923 0.98818 0.10104 0.0
H2157 H 0.65435 0.92283 0.10956 0.0
H2158 H 0.70509 0.94796 0.11062 0.0
S2159 S 0.68089 0.0347 0.08123 0.0
N2160 N 0.65362 1.00361 0.08539 0.0
N2161 N 0.70764 0.03022 0.08764 0.0
C2162 C 0.69487 1.00241 0.09378 0.0
C2163 C 0.66568 0.98795 0.09203 0.0
C2164 C 0.02064 0.69774 0.11066 0.0
C2165 C 0.03431 0.72638 0.10313 0.0
C2166 C 0.03479 0.68326 0.10906 0.0
C2167 C 0.06326 0.69685 0.10074 0.0
H2168 H 0.99859 0.68614 0.11665 0.0
H2169 H 0.02332 0.66117 0.11499 0.0
S2170 S 0.10895 0.77157 0.07964 0.0
N2171 N 0.07803 0.76794 0.08697 0.0
N2172 N 0.10497 0.74041 0.08545 0.0
C2173 C 0.07748 0.7255 0.094 0.0
C2174 C 0.06287 0.74034 0.09467 0.0
C2175 C 0.36128 0.29679 0.4641 0.0
C2176 C 0.37635 0.31846 0.43273 0.0
C2177 C 0.33236 0.2822 0.46248 0.0
C2178 C 0.31791 0.28909 0.4296 0.0
H2179 H 0.37183 0.29164 0.49065 0.0
H2180 H 0.32132 0.26629 0.48845 0.0
S2181 S 0.34911 0.34302 0.3373 0.0
N2182 N 0.37562 0.34511 0.36629 0.0
N2183 N 0.32145 0.31785 0.36262 0.0
C2184 C 0.33317 0.30999 0.39664 0.0
C2185 C 0.36241 0.3247 0.39845 0.0
C2186 C 0.69981 0.01536 0.43568 0.0
C2187 C 0.72873 0.02937 0.43861 0.0
C2188 C 0.68542 0.02963 0.43604 0.0
C2189 C 0.69936 0.05853 0.43864 0.0
H2190 H 0.68799 0.99304 0.43387 0.0
H2191 H 0.66313 0.01785 0.43339 0.0
S2192 S 0.77491 0.1051 0.44678 0.0
N2193 N 0.77091 0.0738 0.44436 0.0
N2194 N 0.74354 0.10087 0.44443 0.0
C2195 C 0.72825 0.07297 0.44128 0.0
C2196 C 0.74302 0.05831 0.44157 0.0
C2197 C 0.96472 0.68928 0.43198 0.0
C2198 C 0.99358 0.70426 0.43631 0.0
C2199 C 0.95041 0.66026 0.43265 0.0
C2200 C 0.96455 0.64562 0.43922 0.0
H2201 H 0.9533 0.7 0.42708 0.0
H2202 H 0.92823 0.64925 0.42801 0.0
S2203 S 0.04018 0.67587 0.45513 0.0
N2204 N 0.03567 0.70263 0.4491 0.0
N2205 N 1.00908 0.64857 0.45116 0.0
C2206 C 0.99339 0.66063 0.44489 0.0
C2207 C 1.00784 0.68986 0.44325 0.0
C2208 C 0.72919 0.66096 0.94782 0.0
C2209 C 0.70432 0.64593 0.92324 0.0
C2210 C 0.7431 0.68991 0.94794 0.0
C2211 C 0.73253 0.70442 0.92309 0.0
H2212 H 0.73723 0.65034 0.96858 0.0
H2213 H 0.76157 0.7009 0.96913 0.0
S2214 S 0.66961 0.67339 0.84815 0.0
N2215 N 0.6708 0.64682 0.87046 0.0
N2216 N 0.69701 0.70098 0.86912 0.0
C2217 C 0.70853 0.68923 0.89578 0.0
C2218 C 0.69435 0.65998 0.89636 0.0
C2219 C 0.33266 0.01564 0.92052 0.0
C2220 C 0.31718 0.02884 0.92721 0.0
C2221 C 0.36129 0.03033 0.92301 0.0
C2222 C 0.37563 0.05886 0.93138 0.0
H2223 H 0.32262 0.99357 0.91478 0.0
H2224 H 0.37232 0.01919 0.91802 0.0
S2225 S 0.34517 0.10358 0.9489 0.0
N2226 N 0.31834 0.07233 0.94149 0.0
N2227 N 0.37277 0.10019 0.94467 0.0
C2228 C 0.3607 0.07265 0.93664 0.0
C2229 C 0.33128 0.05753 0.93505 0.0
C2230 C 0.99089 0.33335 0.9412 0.0
C2231 C 0.96224 0.3198 0.93398 0.0
C2232 C 1.00509 0.31894 0.94074 0.0
C2233 C 0.99122 0.29029 0.93387 0.0
H2234 H 1.00273 0.35551 0.94616 0.0
H2235 H 0.02721 0.33038 0.94633 0.0
S2236 S 0.91626 0.24475 0.91473 0.0
N2237 N 0.92028 0.27596 0.9201 0.0
N2238 N 0.94733 0.24851 0.92065 0.0
C2239 C 0.96253 0.27618 0.9276 0.0
C2240 C 0.94795 0.29105 0.92714 0.0
C2241 C 0.69506 0.73587 0.62514 0.0
C2242 C 0.71001 0.72882 0.59421 0.0
C2243 C 0.66614 0.72091 0.62495 0.0
C2244 C 0.65157 0.69843 0.59402 0.0
H2245 H 0.70574 0.75232 0.65055 0.0
H2246 H 0.65523 0.72616 0.65064 0.0
S2247 S 0.6823 0.67419 0.50314 0.0
N2248 N 0.70895 0.69984 0.52993 0.0
N2249 N 0.65475 0.67171 0.52895 0.0
C2250 C 0.66664 0.69235 0.56128 0.0
C2251 C 0.69589 0.70755 0.56163 0.0
C2252 C 0.30537 0.95368 0.63827 0.0
C2253 C 0.31981 0.95327 0.59806 0.0
C2254 C 0.29119 0.96839 0.63848 0.0
C2255 C 0.29037 0.98221 0.59803 0.0
H2256 H 0.30647 0.94405 0.67058 0.0
H2257 H 0.28152 0.96963 0.67066 0.0
S2258 S 0.32274 0.98555 0.48294 0.0
N2259 N 0.33119 0.96678 0.51629 0.0
N2260 N 0.30362 0.99355 0.51632 0.0
C2261 C 0.3033 0.98062 0.55694 0.0
C2262 C 0.31826 0.9663 0.55701 0.0
C2263 C 0.07161 0.3574 0.63067 0.0
C2264 C 0.06652 0.37182 0.59507 0.0
C2265 C 0.05731 0.32849 0.63165 0.0
C2266 C 0.038 0.31337 0.59662 0.0
H2267 H 0.08571 0.36846 0.65919 0.0
H2268 H 0.06083 0.31796 0.66041 0.0
S2269 S 0.0188 0.34071 0.49384 0.0
N2270 N 0.0419 0.3684 0.52245 0.0
N2271 N 0.01545 0.31413 0.52429 0.0
C2272 C 0.03367 0.32733 0.55978 0.0
C2273 C 0.04789 0.35661 0.55893 0.0
C2274 C 0.99927 0.65426 0.76729 0.0
C2275 C 0.9844 0.62531 0.76676 0.0
C2276 C 0.02792 0.66865 0.76762 0.0
C2277 C 0.04289 0.6547 0.76653 0.0
H2278 H 0.9887 0.66603 0.76834 0.0
H2279 H 0.0384 0.691 0.76789 0.0
S2280 S 0.01379 0.57894 0.76405 0.0
N2281 N 0.9865 0.58297 0.76539 0.0
N2282 N 0.04099 0.61035 0.76426 0.0
C2283 C 0.02842 0.62572 0.76538 0.0
C2284 C 0.99897 0.61092 0.76612 0.0
C2285 C 0.36826 0.34878 0.76321 0.0
C2286 C 0.39719 0.36295 0.76465 0.0
C2287 C 0.35376 0.36291 0.76547 0.0
C2288 C 0.36759 0.39181 0.76829 0.0
H2289 H 0.35658 0.32644 0.76157 0.0
H2290 H 0.33143 0.351 0.76421 0.0
S2291 S 0.44324 0.43871 0.77187 0.0
N2292 N 0.43936 0.40746 0.76912 0.0
N2293 N 0.41179 0.43437 0.77142 0.0
C2294 C 0.39654 0.40643 0.76886 0.0
C2295 C 0.41144 0.39188 0.7677 0.0
C2296 C 0.67284 0.02269 0.75736 0.0
C2297 C 0.65912 0.03774 0.7628 0.0
C2298 C 0.65847 0.99406 0.7582 0.0
C2299 C 0.62973 0.97927 0.76366 0.0
H2300 H 0.69507 0.03307 0.75369 0.0
H2301 H 0.67004 0.98341 0.75406 0.0
S2302 S 0.58382 1.0087 0.77729 0.0
N2303 N 0.6151 0.03589 0.77317 0.0
N2304 N 0.5877 0.98138 0.7731 0.0
C2305 C 0.61548 0.99385 0.76791 0.0
C2306 C 0.6303 0.02329 0.76806 0.0
C2307 C 0.36836 0.02259 0.25808 0.0
C2308 C 0.39721 0.03779 0.26189 0.0
C2309 C 0.35424 0.99398 0.25978 0.0
C2310 C 0.3684 0.97936 0.26445 0.0
H2311 H 0.35636 0.03285 0.2551 0.0
H2312 H 0.33195 0.98322 0.25694 0.0
S2313 S 0.44397 0.00917 0.274 0.0
N2314 N 0.43968 0.03625 0.27013 0.0
N2315 N 0.41277 0.98172 0.27143 0.0
C2316 C 0.39729 0.99405 0.26709 0.0
C2317 C 0.41179 0.0235 0.26647 0.0
C2318 C 0.9989 0.39107 0.26102 0.0
C2319 C 0.98399 0.36267 0.27026 0.0
C2320 C 0.02786 0.40542 0.26247 0.0
C2321 C 0.04243 0.39182 0.27462 0.0
H2322 H 0.9882 0.40198 0.25138 0.0
H2323 H 0.03888 0.42713 0.25356 0.0
S2324 S 1.01185 0.31774 0.30617 0.0
N2325 N 0.98523 0.32175 0.29455 0.0
N2326 N 0.03924 0.34842 0.29837 0.0
C2327 C 0.02735 0.36356 0.28594 0.0
C2328 C 0.99818 0.34904 0.28348 0.0
C2329 C 0.61594 0.62531 0.2623 0.0
C2330 C 0.62952 0.65379 0.2722 0.0
C2331 C 0.63046 0.61085 0.26214 0.0
C2332 C 0.65901 0.62476 0.27038 0.0
H2333 H 0.59408 0.61424 0.25441 0.0
H2334 H 0.61954 0.58896 0.25436 0.0
S2335 S 0.70402 0.69877 0.29963 0.0
N2336 N 0.67311 0.69496 0.29209 0.0
N2337 N 0.7001 0.6679 0.29086 0.0
C2338 C 0.67265 0.65301 0.28104 0.0
C2339 C 0.65797 0.66753 0.28217 0.0
loop_
_geom_bond_atom_site_label_1
_geom_bond_atom_site_label_2
_geom_bond_distance
_geom_bond_site_symmetry_2
_ccdc_geom_bond_type
Zn0 O1 2.055 . S
Zn0 O8 2.046 1_554 S
Zn0 N16 2.036 . S
Zn0 O28 2.053 . S
Zn0 O30 2.066 . S
O1 Zn0 2.055 . S
O1 C4 1.259 . S
C2 O30 1.256 . S
C2 O31 1.244 . S
Zn3 O5 2.046 . S
Zn3 O7 2.055 . S
Zn3 N9 2.036 . S
Zn3 O27 2.066 . S
Zn3 O31 2.053 . S
C4 O1 1.259 . S
C4 O5 1.254 . S
O5 Zn3 2.046 . S
O5 C4 1.254 . S
C6 O27 1.256 . S
C6 O28 1.244 . S
O7 Zn3 2.055 . S
O7 C29 1.259 1_554 S
O8 Zn0 2.046 1_556 S
O8 C29 1.254 . S
N9 Zn3 2.036 . S
N9 C10 1.298 . S
N9 N12 1.398 . S
C10 N9 1.298 . S
C10 N13 1.367 . S
C10 C23 1.481 . S
C11 N12 1.299 . S
C11 N13 1.379 . S
N12 N9 1.398 . S
N12 C11 1.299 . S
N13 C10 1.367 . S
N13 C11 1.379 . S
C14 N16 1.298 . S
C14 N18 1.367 1_554 S
C14 C22 1.481 . S
C15 N17 1.299 . S
C15 N18 1.379 . S
N16 Zn0 2.036 . S
N16 C14 1.298 . S
N16 N17 1.398 1_554 S
N17 C15 1.299 . S
N17 N16 1.398 1_556 S
N18 C14 1.367 1_556 S
N18 C15 1.379 . S
H19 C22 0.980 . S
H20 C22 0.981 . S
H21 C22 0.981 . S
C22 C14 1.481 . S
C22 H19 0.980 . S
C22 H20 0.981 . S
C22 H21 0.981 . S
C23 C10 1.481 . S
C23 H24 0.980 . S
C23 H25 0.981 . S
C23 H26 0.981 . S
H24 C23 0.980 . S
H25 C23 0.981 . S
H26 C23 0.981 . S
O27 Zn3 2.066 . S
O27 C6 1.256 . S
O28 Zn0 2.053 . S
O28 C6 1.244 . S
C29 O7 1.259 1_556 S
C29 O8 1.254 . S
O30 Zn0 2.066 . S
O30 C2 1.256 . S
O31 C2 1.244 . S
O31 Zn3 2.053 . S
Zn32 O33 2.055 . S
Zn32 O40 2.046 . S
Zn32 N48 2.036 . S
Zn32 O60 2.053 . S
Zn32 O62 2.066 . S
O33 Zn32 2.055 . S
O33 C36 1.259 1_554 S
C34 O62 1.256 . S
C34 O63 1.244 . S
Zn35 O37 2.046 1_554 S
Zn35 O39 2.055 1_545 S
Zn35 N41 2.036 1_545 S
Zn35 O59 2.066 1_545 S
Zn35 O63 2.053 . S
C36 O33 1.259 1_556 S
C36 O37 1.254 . S
O37 Zn35 2.046 1_556 S
O37 C36 1.254 . S
C38 O59 1.256 1_545 S
C38 O60 1.244 . S
O39 Zn35 2.055 1_565 S
O39 C61 1.258 1_565 S
O40 Zn32 2.046 . S
O40 C61 1.256 . S
N41 Zn35 2.036 1_565 S
N41 C42 1.298 . S
N41 N44 1.398 1_554 S
C42 N41 1.298 . S
C42 N45 1.367 1_554 S
C42 C55 1.481 . S
C43 N44 1.299 . S
C43 N45 1.379 . S
N44 N41 1.398 1_556 S
N44 C43 1.299 . S
N45 C42 1.367 1_556 S
N45 C43 1.379 . S
C46 N48 1.298 . S
C46 N50 1.367 . S
C46 C54 1.481 . S
C47 N49 1.299 . S
C47 N50 1.379 . S
N48 Zn32 2.036 . S
N48 C46 1.298 . S
N48 N49 1.398 . S
N49 C47 1.299 . S
N49 N48 1.398 . S
N50 C46 1.367 . S
N50 C47 1.379 . S
H51 C54 0.980 . S
H52 C54 0.981 . S
H53 C54 0.981 . S
C54 C46 1.481 . S
C54 H51 0.980 . S
C54 H52 0.981 . S
C54 H53 0.981 . S
C55 C42 1.481 . S
C55 H56 0.980 . S
C55 H57 0.981 . S
C55 H58 0.981 . S
H56 C55 0.980 . S
H57 C55 0.981 . S
H58 C55 0.981 . S
O59 Zn35 2.066 1_565 S
O59 C38 1.256 1_565 S
O60 Zn32 2.053 . S
O60 C38 1.244 . S
C61 O39 1.258 1_545 S
C61 O40 1.256 . S
O62 Zn32 2.066 . S
O62 C34 1.256 . S
O63 C34 1.244 . S
O63 Zn35 2.053 . S
Zn64 O65 2.055 1_655 S
Zn64 O72 2.046 1_554 S
Zn64 N80 2.036 1_655 S
Zn64 O92 2.053 . S
Zn64 O94 2.066 1_655 S
O65 Zn64 2.055 1_455 S
O65 C68 1.259 1_455 S
C66 O94 1.256 1_655 S
C66 O95 1.244 . S
Zn67 O69 2.046 . S
Zn67 O71 2.055 . S
Zn67 N73 2.036 . S
Zn67 O91 2.066 . S
Zn67 O95 2.053 . S
C68 O65 1.259 1_655 S
C68 O69 1.256 . S
O69 Zn67 2.046 . S
O69 C68 1.256 . S
C70 O91 1.256 . S
C70 O92 1.244 . S
O71 Zn67 2.055 . S
O71 C93 1.259 1_554 S
O72 Zn64 2.046 1_556 S
O72 C93 1.254 . S
N73 Zn67 2.036 . S
N73 C74 1.298 . S
N73 N76 1.398 . S
C74 N73 1.298 . S
C74 N77 1.367 . S
C74 C87 1.481 . S
C75 N76 1.299 . S
C75 N77 1.379 . S
N76 N73 1.398 . S
N76 C75 1.299 . S
N77 C74 1.367 . S
N77 C75 1.379 . S
C78 N80 1.298 . S
C78 N82 1.367 1_554 S
C78 C86 1.481 . S
C79 N81 1.299 . S
C79 N82 1.379 . S
N80 Zn64 2.036 1_455 S
N80 C78 1.298 . S
N80 N81 1.398 1_554 S
N81 C79 1.299 . S
N81 N80 1.398 1_556 S
N82 C78 1.367 1_556 S
N82 C79 1.379 . S
H83 C86 0.980 . S
H84 C86 0.981 . S
H85 C86 0.981 . S
C86 C78 1.481 . S
C86 H83 0.980 . S
C86 H84 0.981 . S
C86 H85 0.981 . S
C87 C74 1.481 . S
C87 H88 0.980 . S
C87 H89 0.981 . S
C87 H90 0.981 . S
H88 C87 0.980 . S
H89 C87 0.981 . S
H90 C87 0.981 . S
O91 Zn67 2.066 . S
O91 C70 1.256 . S
O92 Zn64 2.053 . S
O92 C70 1.244 . S
C93 O71 1.259 1_556 S
C93 O72 1.254 . S
O94 Zn64 2.066 1_455 S
O94 C66 1.256 1_455 S
O95 C66 1.244 . S
O95 Zn67 2.053 . S
Zn96 O97 2.055 . S
Zn96 O104 2.046 . S
Zn96 N112 2.036 . S
Zn96 O124 2.053 . S
Zn96 O126 2.066 . S
O97 Zn96 2.055 . S
O97 C100 1.259 . S
C98 O126 1.256 . S
C98 O127 1.244 . S
Zn99 O101 2.046 . S
Zn99 O103 2.055 . S
Zn99 N105 2.036 . S
Zn99 O123 2.066 . S
Zn99 O127 2.053 . S
C100 O97 1.259 . S
C100 O101 1.254 . S
O101 Zn99 2.046 . S
O101 C100 1.254 . S
C102 O123 1.256 . S
C102 O124 1.244 . S
O103 Zn99 2.055 . S
O103 C125 1.259 . S
O104 Zn96 2.046 . S
O104 C125 1.254 . S
N105 Zn99 2.036 . S
N105 C106 1.298 . S
N105 N108 1.398 . S
C106 N105 1.298 . S
C106 N109 1.367 . S
C106 C119 1.481 . S
C107 N108 1.299 . S
C107 N109 1.379 . S
N108 N105 1.398 . S
N108 C107 1.299 . S
N109 C106 1.367 . S
N109 C107 1.379 . S
C110 N112 1.298 . S
C110 N114 1.367 . S
C110 C118 1.481 . S
C111 N113 1.299 . S
C111 N114 1.379 . S
N112 Zn96 2.036 . S
N112 C110 1.298 . S
N112 N113 1.398 . S
N113 C111 1.299 . S
N113 N112 1.398 . S
N114 C110 1.367 . S
N114 C111 1.379 . S
H115 C118 0.980 . S
H116 C118 0.981 . S
H117 C118 0.981 . S
C118 C110 1.481 . S
C118 H115 0.980 . S
C118 H116 0.981 . S
C118 H117 0.981 . S
C119 C106 1.481 . S
C119 H120 0.980 . S
C119 H121 0.981 . S
C119 H122 0.981 . S
H120 C119 0.980 . S
H121 C119 0.981 . S
H122 C119 0.981 . S
O123 Zn99 2.066 . S
O123 C102 1.256 . S
O124 Zn96 2.053 . S
O124 C102 1.244 . S
C125 O103 1.259 . S
C125 O104 1.254 . S
O126 Zn96 2.066 . S
O126 C98 1.256 . S
O127 C98 1.244 . S
O127 Zn99 2.053 . S
Zn128 O129 2.055 1_565 S
Zn128 O136 2.046 . S
Zn128 N144 2.036 1_565 S
Zn128 O156 2.053 . S
Zn128 O158 2.066 1_565 S
O129 Zn128 2.055 1_545 S
O129 C132 1.259 1_545 S
C130 O158 1.256 1_565 S
C130 O159 1.244 . S
Zn131 O133 2.046 . S
Zn131 O135 2.055 . S
Zn131 N137 2.036 . S
Zn131 O155 2.066 . S
Zn131 O159 2.053 . S
C132 O129 1.259 1_565 S
C132 O133 1.256 . S
O133 Zn131 2.046 . S
O133 C132 1.256 . S
C134 O155 1.256 . S
C134 O156 1.244 . S
O135 Zn131 2.055 . S
O135 C157 1.259 . S
O136 Zn128 2.046 . S
O136 C157 1.254 . S
N137 Zn131 2.036 . S
N137 C138 1.298 . S
N137 N140 1.398 . S
C138 N137 1.298 . S
C138 N141 1.367 . S
C138 C151 1.481 . S
C139 N140 1.299 . S
C139 N141 1.379 . S
N140 N137 1.398 . S
N140 C139 1.299 . S
N141 C138 1.367 . S
N141 C139 1.379 . S
C142 N144 1.298 . S
C142 N146 1.367 . S
C142 C150 1.481 . S
C143 N145 1.299 . S
C143 N146 1.379 . S
N144 Zn128 2.036 1_545 S
N144 C142 1.298 . S
N144 N145 1.398 . S
N145 C143 1.299 . S
N145 N144 1.398 . S
N146 C142 1.367 . S
N146 C143 1.379 . S
H147 C150 0.980 . S
H148 C150 0.981 . S
H149 C150 0.981 . S
C150 C142 1.481 . S
C150 H147 0.980 . S
C150 H148 0.981 . S
C150 H149 0.981 . S
C151 C138 1.481 . S
C151 H152 0.980 . S
C151 H153 0.981 . S
C151 H154 0.981 . S
H152 C151 0.980 . S
H153 C151 0.981 . S
H154 C151 0.981 . S
O155 Zn131 2.066 . S
O155 C134 1.256 . S
O156 Zn128 2.053 . S
O156 C134 1.244 . S
C157 O135 1.259 . S
C157 O136 1.254 . S
O158 Zn128 2.066 1_545 S
O158 C130 1.256 1_545 S
O159 C130 1.244 . S
O159 Zn131 2.053 . S
Zn160 O161 2.055 1_455 S
Zn160 O168 2.046 . S
Zn160 N176 2.036 1_455 S
Zn160 O188 2.053 . S
Zn160 O190 2.066 1_455 S
O161 Zn160 2.055 1_655 S
O161 C164 1.258 1_655 S
C162 O190 1.256 1_455 S
C162 O191 1.244 . S
Zn163 O165 2.046 . S
Zn163 O167 2.055 . S
Zn163 N169 2.036 . S
Zn163 O187 2.066 . S
Zn163 O191 2.053 . S
C164 O161 1.258 1_455 S
C164 O165 1.256 . S
O165 Zn163 2.046 . S
O165 C164 1.256 . S
C166 O187 1.256 . S
C166 O188 1.244 . S
O167 Zn163 2.055 . S
O167 C189 1.259 . S
O168 Zn160 2.046 . S
O168 C189 1.254 . S
N169 Zn163 2.036 . S
N169 C170 1.298 . S
N169 N172 1.398 . S
C170 N169 1.298 . S
C170 N173 1.367 . S
C170 C183 1.481 . S
C171 N172 1.299 . S
C171 N173 1.379 . S
N172 N169 1.398 . S
N172 C171 1.299 . S
N173 C170 1.367 . S
N173 C171 1.379 . S
C174 N176 1.298 . S
C174 N178 1.367 . S
C174 C182 1.481 . S
C175 N177 1.299 . S
C175 N178 1.379 . S
N176 Zn160 2.036 1_655 S
N176 C174 1.298 . S
N176 N177 1.398 . S
N177 C175 1.299 . S
N177 N176 1.398 . S
N178 C174 1.367 . S
N178 C175 1.379 . S
H179 C182 0.980 . S
H180 C182 0.981 . S
H181 C182 0.981 . S
C182 C174 1.481 . S
C182 H179 0.980 . S
C182 H180 0.981 . S
C182 H181 0.981 . S
C183 C170 1.481 . S
C183 H184 0.980 . S
C183 H185 0.981 . S
C183 H186 0.981 . S
H184 C183 0.980 . S
H185 C183 0.981 . S
H186 C183 0.981 . S
O187 Zn163 2.066 . S
O187 C166 1.256 . S
O188 Zn160 2.053 . S
O188 C166 1.244 . S
C189 O167 1.259 . S
C189 O168 1.254 . S
O190 Zn160 2.066 1_655 S
O190 C162 1.256 1_655 S
O191 C162 1.244 . S
O191 Zn163 2.053 . S
Zn192 O193 2.055 . S
Zn192 O200 2.046 1_556 S
Zn192 N208 2.036 . S
Zn192 O220 2.053 . S
Zn192 O222 2.066 . S
O193 Zn192 2.055 . S
O193 C196 1.259 . S
C194 O222 1.256 . S
C194 O223 1.244 . S
Zn195 O197 2.046 . S
Zn195 O199 2.055 . S
Zn195 N201 2.036 . S
Zn195 O219 2.066 . S
Zn195 O223 2.053 . S
C196 O193 1.259 . S
C196 O197 1.254 . S
O197 Zn195 2.046 . S
O197 C196 1.254 . S
C198 O219 1.256 . S
C198 O220 1.244 . S
O199 Zn195 2.055 . S
O199 C221 1.259 1_556 S
O200 Zn192 2.046 1_554 S
O200 C221 1.254 . S
N201 Zn195 2.036 . S
N201 C202 1.298 . S
N201 N204 1.398 . S
C202 N201 1.298 . S
C202 N205 1.367 . S
C202 C215 1.481 . S
C203 N204 1.299 . S
C203 N205 1.379 . S
N204 N201 1.398 . S
N204 C203 1.299 . S
N205 C202 1.367 . S
N205 C203 1.379 . S
C206 N208 1.298 . S
C206 N210 1.367 1_556 S
C206 C214 1.481 . S
C207 N209 1.299 . S
C207 N210 1.379 . S
N208 Zn192 2.036 . S
N208 C206 1.298 . S
N208 N209 1.398 1_556 S
N209 C207 1.299 . S
N209 N208 1.398 1_554 S
N210 C206 1.367 1_554 S
N210 C207 1.379 . S
H211 C214 0.980 . S
H212 C214 0.981 . S
H213 C214 0.981 . S
C214 C206 1.481 . S
C214 H211 0.980 . S
C214 H212 0.981 . S
C214 H213 0.981 . S
C215 C202 1.481 . S
C215 H216 0.980 . S
C215 H217 0.981 . S
C215 H218 0.981 . S
H216 C215 0.980 . S
H217 C215 0.981 . S
H218 C215 0.981 . S
O219 Zn195 2.066 . S
O219 C198 1.256 . S
O220 Zn192 2.053 . S
O220 C198 1.244 . S
C221 O199 1.259 1_554 S
C221 O200 1.254 . S
O222 Zn192 2.066 . S
O222 C194 1.256 . S
O223 C194 1.244 . S
O223 Zn195 2.053 . S
Zn224 O225 2.055 1_565 S
Zn224 O232 2.046 1_556 S
Zn224 N240 2.036 1_565 S
Zn224 O252 2.053 . S
Zn224 O254 2.066 1_565 S
O225 Zn224 2.055 1_545 S
O225 C228 1.258 1_545 S
C226 O254 1.256 1_565 S
C226 O255 1.244 . S
Zn227 O229 2.046 . S
Zn227 O231 2.055 . S
Zn227 N233 2.036 . S
Zn227 O251 2.066 . S
Zn227 O255 2.053 . S
C228 O225 1.258 1_565 S
C228 O229 1.256 . S
O229 Zn227 2.046 . S
O229 C228 1.256 . S
C230 O251 1.256 . S
C230 O252 1.244 . S
O231 Zn227 2.055 . S
O231 C253 1.259 1_556 S
O232 Zn224 2.046 1_554 S
O232 C253 1.254 . S
N233 Zn227 2.036 . S
N233 C234 1.298 . S
N233 N236 1.398 . S
C234 N233 1.298 . S
C234 N237 1.367 . S
C234 C247 1.481 . S
C235 N236 1.299 . S
C235 N237 1.379 . S
N236 N233 1.398 . S
N236 C235 1.299 . S
N237 C234 1.367 . S
N237 C235 1.379 . S
C238 N240 1.298 . S
C238 N242 1.367 1_556 S
C238 C246 1.481 . S
C239 N241 1.299 . S
C239 N242 1.379 . S
N240 Zn224 2.036 1_545 S
N240 C238 1.298 . S
N240 N241 1.398 1_556 S
N241 C239 1.299 . S
N241 N240 1.398 1_554 S
N242 C238 1.367 1_554 S
N242 C239 1.379 . S
H243 C246 0.980 . S
H244 C246 0.981 . S
H245 C246 0.981 . S
C246 C238 1.481 . S
C246 H243 0.980 . S
C246 H244 0.981 . S
C246 H245 0.981 . S
C247 C234 1.481 . S
C247 H248 0.980 . S
C247 H249 0.981 . S
C247 H250 0.981 . S
H248 C247 0.980 . S
H249 C247 0.981 . S
H250 C247 0.981 . S
O251 Zn227 2.066 . S
O251 C230 1.256 . S
O252 Zn224 2.053 . S
O252 C230 1.244 . S
C253 O231 1.259 1_554 S
C253 O232 1.254 . S
O254 Zn224 2.066 1_545 S
O254 C226 1.256 1_545 S
O255 C226 1.244 . S
O255 Zn227 2.053 . S
Zn256 O257 2.055 1_455 S
Zn256 O264 2.046 1_556 S
Zn256 N272 2.036 1_455 S
Zn256 O284 2.053 . S
Zn256 O286 2.066 1_455 S
O257 Zn256 2.055 1_655 S
O257 C260 1.259 1_655 S
C258 O286 1.256 1_455 S
C258 O287 1.244 . S
Zn259 O261 2.046 . S
Zn259 O263 2.055 . S
Zn259 N265 2.036 . S
Zn259 O283 2.066 . S
Zn259 O287 2.053 . S
C260 O257 1.259 1_455 S
C260 O261 1.256 . S
O261 Zn259 2.046 . S
O261 C260 1.256 . S
C262 O283 1.256 . S
C262 O284 1.244 . S
O263 Zn259 2.055 . S
O263 C285 1.259 1_556 S
O264 Zn256 2.046 1_554 S
O264 C285 1.254 . S
N265 Zn259 2.036 . S
N265 C266 1.298 . S
N265 N268 1.398 . S
C266 N265 1.298 . S
C266 N269 1.367 . S
C266 C279 1.481 . S
C267 N268 1.299 . S
C267 N269 1.379 . S
N268 N265 1.398 . S
N268 C267 1.299 . S
N269 C266 1.367 . S
N269 C267 1.379 . S
C270 N272 1.298 . S
C270 N274 1.367 1_556 S
C270 C278 1.481 . S
C271 N273 1.299 . S
C271 N274 1.379 . S
N272 Zn256 2.036 1_655 S
N272 C270 1.298 . S
N272 N273 1.398 1_556 S
N273 C271 1.299 . S
N273 N272 1.398 1_554 S
N274 C270 1.367 1_554 S
N274 C271 1.379 . S
H275 C278 0.980 . S
H276 C278 0.981 . S
H277 C278 0.981 . S
C278 C270 1.481 . S
C278 H275 0.980 . S
C278 H276 0.981 . S
C278 H277 0.981 . S
C279 C266 1.481 . S
C279 H280 0.980 . S
C279 H281 0.981 . S
C279 H282 0.981 . S
H280 C279 0.980 . S
H281 C279 0.981 . S
H282 C279 0.981 . S
O283 Zn259 2.066 . S
O283 C262 1.256 . S
O284 Zn256 2.053 . S
O284 C262 1.244 . S
C285 O263 1.259 1_554 S
C285 O264 1.254 . S
O286 Zn256 2.066 1_655 S
O286 C258 1.256 1_655 S
O287 C258 1.244 . S
O287 Zn259 2.053 . S
Zn288 O289 2.055 . S
Zn288 O296 2.046 . S
Zn288 N304 2.036 . S
Zn288 O316 2.053 . S
Zn288 O318 2.066 . S
O289 Zn288 2.055 . S
O289 C292 1.259 . S
C290 O318 1.256 . S
C290 O319 1.244 . S
Zn291 O293 2.046 . S
Zn291 O295 2.055 . S
Zn291 N297 2.036 . S
Zn291 O315 2.066 . S
Zn291 O319 2.053 . S
C292 O289 1.259 . S
C292 O293 1.254 . S
O293 Zn291 2.046 . S
O293 C292 1.254 . S
C294 O315 1.256 . S
C294 O316 1.244 . S
O295 Zn291 2.055 . S
O295 C317 1.259 . S
O296 Zn288 2.046 . S
O296 C317 1.254 . S
N297 Zn291 2.036 . S
N297 C298 1.298 . S
N297 N300 1.398 . S
C298 N297 1.298 . S
C298 N301 1.367 . S
C298 C311 1.481 . S
C299 N300 1.299 . S
C299 N301 1.379 . S
N300 N297 1.398 . S
N300 C299 1.299 . S
N301 C298 1.367 . S
N301 C299 1.379 . S
C302 N304 1.298 . S
C302 N306 1.367 . S
C302 C310 1.481 . S
C303 N305 1.299 . S
C303 N306 1.379 . S
N304 Zn288 2.036 . S
N304 C302 1.298 . S
N304 N305 1.398 . S
N305 C303 1.299 . S
N305 N304 1.398 . S
N306 C302 1.367 . S
N306 C303 1.379 . S
H307 C310 0.980 . S
H308 C310 0.981 . S
H309 C310 0.981 . S
C310 C302 1.481 . S
C310 H307 0.980 . S
C310 H308 0.981 . S
C310 H309 0.981 . S
C311 C298 1.481 . S
C311 H312 0.980 . S
C311 H313 0.981 . S
C311 H314 0.981 . S
H312 C311 0.980 . S
H313 C311 0.981 . S
H314 C311 0.981 . S
O315 Zn291 2.066 . S
O315 C294 1.256 . S
O316 Zn288 2.053 . S
O316 C294 1.244 . S
C317 O295 1.259 . S
C317 O296 1.254 . S
O318 Zn288 2.066 . S
O318 C290 1.256 . S
O319 C290 1.244 . S
O319 Zn291 2.053 . S
Zn320 O321 2.055 . S
Zn320 O328 2.046 . S
Zn320 N336 2.036 . S
Zn320 O348 2.053 . S
Zn320 O350 2.066 . S
O321 Zn320 2.055 . S
O321 C324 1.259 . S
C322 O350 1.256 . S
C322 O351 1.244 . S
Zn323 O325 2.046 . S
Zn323 O327 2.055 1_545 S
Zn323 N329 2.036 1_545 S
Zn323 O347 2.066 1_545 S
Zn323 O351 2.053 . S
C324 O321 1.259 . S
C324 O325 1.254 . S
O325 Zn323 2.046 . S
O325 C324 1.254 . S
C326 O347 1.256 1_545 S
C326 O348 1.244 . S
O327 Zn323 2.055 1_565 S
O327 C349 1.259 1_565 S
O328 Zn320 2.046 . S
O328 C349 1.256 . S
N329 Zn323 2.036 1_565 S
N329 C330 1.298 . S
N329 N332 1.398 . S
C330 N329 1.298 . S
C330 N333 1.367 . S
C330 C343 1.481 . S
C331 N332 1.299 . S
C331 N333 1.379 . S
N332 N329 1.398 . S
N332 C331 1.299 . S
N333 C330 1.367 . S
N333 C331 1.379 . S
C334 N336 1.298 . S
C334 N338 1.367 . S
C334 C342 1.481 . S
C335 N337 1.299 . S
C335 N338 1.379 . S
N336 Zn320 2.036 . S
N336 C334 1.298 . S
N336 N337 1.398 . S
N337 C335 1.299 . S
N337 N336 1.398 . S
N338 C334 1.367 . S
N338 C335 1.379 . S
H339 C342 0.980 . S
H340 C342 0.981 . S
H341 C342 0.981 . S
C342 C334 1.481 . S
C342 H339 0.980 . S
C342 H340 0.981 . S
C342 H341 0.981 . S
C343 C330 1.481 . S
C343 H344 0.980 . S
C343 H345 0.981 . S
C343 H346 0.981 . S
H344 C343 0.980 . S
H345 C343 0.981 . S
H346 C343 0.981 . S
O347 Zn323 2.066 1_565 S
O347 C326 1.256 1_565 S
O348 Zn320 2.053 . S
O348 C326 1.244 . S
C349 O327 1.259 1_545 S
C349 O328 1.256 . S
O350 Zn320 2.066 . S
O350 C322 1.256 . S
O351 C322 1.244 . S
O351 Zn323 2.053 . S
Zn352 O353 2.055 . S
Zn352 O360 2.046 . S
Zn352 N368 2.036 . S
Zn352 O380 2.053 . S
Zn352 O382 2.066 . S
O353 Zn352 2.055 . S
O353 C356 1.259 . S
C354 O382 1.256 . S
C354 O383 1.244 . S
Zn355 O357 2.046 . S
Zn355 O359 2.055 1_655 S
Zn355 N361 2.036 1_655 S
Zn355 O379 2.066 1_655 S
Zn355 O383 2.053 . S
C356 O353 1.259 . S
C356 O357 1.254 . S
O357 Zn355 2.046 . S
O357 C356 1.254 . S
C358 O379 1.256 1_655 S
C358 O380 1.244 . S
O359 Zn355 2.055 1_455 S
O359 C381 1.258 1_455 S
O360 Zn352 2.046 . S
O360 C381 1.256 . S
N361 Zn355 2.036 1_455 S
N361 C362 1.298 . S
N361 N364 1.398 . S
C362 N361 1.298 . S
C362 N365 1.367 . S
C362 C375 1.481 . S
C363 N364 1.299 . S
C363 N365 1.379 . S
N364 N361 1.398 . S
N364 C363 1.299 . S
N365 C362 1.367 . S
N365 C363 1.379 . S
C366 N368 1.298 . S
C366 N370 1.367 . S
C366 C374 1.481 . S
C367 N369 1.299 . S
C367 N370 1.379 . S
N368 Zn352 2.036 . S
N368 C366 1.298 . S
N368 N369 1.398 . S
N369 C367 1.299 . S
N369 N368 1.398 . S
N370 C366 1.367 . S
N370 C367 1.379 . S
H371 C374 0.980 . S
H372 C374 0.981 . S
H373 C374 0.981 . S
C374 C366 1.481 . S
C374 H371 0.980 . S
C374 H372 0.981 . S
C374 H373 0.981 . S
C375 C362 1.481 . S
C375 H376 0.980 . S
C375 H377 0.981 . S
C375 H378 0.981 . S
H376 C375 0.980 . S
H377 C375 0.981 . S
H378 C375 0.981 . S
O379 Zn355 2.066 1_455 S
O379 C358 1.256 1_455 S
O380 Zn352 2.053 . S
O380 C358 1.244 . S
C381 O359 1.258 1_655 S
C381 O360 1.256 . S
O382 Zn352 2.066 . S
O382 C354 1.256 . S
O383 C354 1.244 . S
O383 Zn355 2.053 . S
Zn384 O385 2.055 . S
Zn384 O392 2.046 . S
Zn384 N400 2.036 . S
Zn384 O412 2.053 . S
Zn384 O414 2.066 . S
O385 Zn384 2.055 . S
O385 C388 1.259 . S
C386 O414 1.256 . S
C386 O415 1.244 . S
Zn387 O389 2.046 . S
Zn387 O391 2.055 . S
Zn387 N393 2.036 . S
Zn387 O411 2.066 . S
Zn387 O415 2.053 . S
C388 O385 1.259 . S
C388 O389 1.254 . S
O389 Zn387 2.046 . S
O389 C388 1.254 . S
C390 O411 1.256 . S
C390 O412 1.244 . S
O391 Zn387 2.055 . S
O391 C413 1.259 . S
O392 Zn384 2.046 . S
O392 C413 1.254 . S
N393 Zn387 2.036 . S
N393 C394 1.298 . S
N393 N396 1.398 . S
C394 N393 1.298 . S
C394 N397 1.367 . S
C394 C407 1.481 . S
C395 N396 1.299 . S
C395 N397 1.379 . S
N396 N393 1.398 . S
N396 C395 1.299 . S
N397 C394 1.367 . S
N397 C395 1.379 . S
C398 N400 1.298 . S
C398 N402 1.367 . S
C398 C406 1.481 . S
C399 N401 1.299 . S
C399 N402 1.379 . S
N400 Zn384 2.036 . S
N400 C398 1.298 . S
N400 N401 1.398 . S
N401 C399 1.299 . S
N401 N400 1.398 . S
N402 C398 1.367 . S
N402 C399 1.379 . S
H403 C406 0.980 . S
H404 C406 0.981 1_455 S
H405 C406 0.981 . S
C406 C398 1.481 . S
C406 H403 0.980 . S
C406 H404 0.981 1_655 S
C406 H405 0.981 . S
C407 C394 1.481 . S
C407 H408 0.980 . S
C407 H409 0.981 . S
C407 H410 0.981 . S
H408 C407 0.980 . S
H409 C407 0.981 . S
H410 C407 0.981 . S
O411 Zn387 2.066 . S
O411 C390 1.256 . S
O412 Zn384 2.053 . S
O412 C390 1.244 . S
C413 O391 1.259 . S
C413 O392 1.254 . S
O414 Zn384 2.066 . S
O414 C386 1.256 . S
O415 C386 1.244 . S
O415 Zn387 2.053 . S
Zn416 O417 2.055 . S
Zn416 O424 2.046 . S
Zn416 N432 2.036 . S
Zn416 O444 2.053 . S
Zn416 O446 2.066 . S
O417 Zn416 2.055 . S
O417 C420 1.259 . S
C418 O446 1.256 . S
C418 O447 1.244 . S
Zn419 O421 2.046 . S
Zn419 O423 2.055 . S
Zn419 N425 2.036 . S
Zn419 O443 2.066 . S
Zn419 O447 2.053 . S
C420 O417 1.259 . S
C420 O421 1.254 . S
O421 Zn419 2.046 . S
O421 C420 1.254 . S
C422 O443 1.256 . S
C422 O444 1.244 . S
O423 Zn419 2.055 . S
O423 C445 1.259 . S
O424 Zn416 2.046 . S
O424 C445 1.254 . S
N425 Zn419 2.036 . S
N425 C426 1.298 . S
N425 N428 1.398 . S
C426 N425 1.298 . S
C426 N429 1.367 . S
C426 C439 1.481 . S
C427 N428 1.299 . S
C427 N429 1.379 . S
N428 N425 1.398 . S
N428 C427 1.299 . S
N429 C426 1.367 . S
N429 C427 1.379 . S
C430 N432 1.298 . S
C430 N434 1.367 . S
C430 C438 1.481 . S
C431 N433 1.299 . S
C431 N434 1.379 . S
N432 Zn416 2.036 . S
N432 C430 1.298 . S
N432 N433 1.398 . S
N433 C431 1.299 . S
N433 N432 1.398 . S
N434 C430 1.367 . S
N434 C431 1.379 . S
H435 C438 0.980 . S
H436 C438 0.981 . S
H437 C438 0.981 . S
C438 C430 1.481 . S
C438 H435 0.980 . S
C438 H436 0.981 . S
C438 H437 0.981 . S
C439 C426 1.481 . S
C439 H440 0.980 . S
C439 H441 0.981 . S
C439 H442 0.981 . S
H440 C439 0.980 . S
H441 C439 0.981 . S
H442 C439 0.981 . S
O443 Zn419 2.066 . S
O443 C422 1.256 . S
O444 Zn416 2.053 . S
O444 C422 1.244 . S
C445 O423 1.259 . S
C445 O424 1.254 . S
O446 Zn416 2.066 . S
O446 C418 1.256 . S
O447 C418 1.244 . S
O447 Zn419 2.053 . S
Zn448 O449 2.055 . S
Zn448 O456 2.046 . S
Zn448 N464 2.036 . S
Zn448 O476 2.053 . S
Zn448 O478 2.066 . S
O449 Zn448 2.055 . S
O449 C452 1.259 . S
C450 O478 1.256 . S
C450 O479 1.244 . S
Zn451 O453 2.046 . S
Zn451 O455 2.055 . S
Zn451 N457 2.036 . S
Zn451 O475 2.066 . S
Zn451 O479 2.053 . S
C452 O449 1.259 . S
C452 O453 1.254 . S
O453 Zn451 2.046 . S
O453 C452 1.254 . S
C454 O475 1.256 . S
C454 O476 1.244 . S
O455 Zn451 2.055 . S
O455 C477 1.259 . S
O456 Zn448 2.046 . S
O456 C477 1.254 . S
N457 Zn451 2.036 . S
N457 C458 1.298 . S
N457 N460 1.398 . S
C458 N457 1.298 . S
C458 N461 1.367 . S
C458 C471 1.481 . S
C459 N460 1.299 . S
C459 N461 1.379 . S
N460 N457 1.398 . S
N460 C459 1.299 . S
N461 C458 1.367 . S
N461 C459 1.379 . S
C462 N464 1.298 . S
C462 N466 1.367 . S
C462 C470 1.481 . S
C463 N465 1.299 . S
C463 N466 1.379 . S
N464 Zn448 2.036 . S
N464 C462 1.298 . S
N464 N465 1.398 . S
N465 C463 1.299 . S
N465 N464 1.398 . S
N466 C462 1.367 . S
N466 C463 1.379 . S
H467 C470 0.980 . S
H468 C470 0.981 . S
H469 C470 0.981 . S
C470 C462 1.481 . S
C470 H467 0.980 . S
C470 H468 0.981 . S
C470 H469 0.981 . S
C471 C458 1.481 . S
C471 H472 0.980 . S
C471 H473 0.981 1_545 S
C471 H474 0.981 . S
H472 C471 0.980 . S
H473 C471 0.981 1_565 S
H474 C471 0.981 . S
O475 Zn451 2.066 . S
O475 C454 1.256 . S
O476 Zn448 2.053 . S
O476 C454 1.244 . S
C477 O455 1.259 . S
C477 O456 1.254 . S
O478 Zn448 2.066 . S
O478 C450 1.256 . S
O479 C450 1.244 . S
O479 Zn451 2.053 . S
Zn480 O481 2.055 . S
Zn480 O488 2.046 . S
Zn480 N496 2.036 . S
Zn480 O508 2.053 . S
Zn480 O510 2.066 . S
O481 Zn480 2.055 . S
O481 C484 1.259 . S
C482 O510 1.256 . S
C482 O511 1.244 . S
Zn483 O485 2.046 . S
Zn483 O487 2.055 . S
Zn483 N489 2.036 . S
Zn483 O507 2.066 . S
Zn483 O511 2.053 . S
C484 O481 1.259 . S
C484 O485 1.254 . S
O485 Zn483 2.046 . S
O485 C484 1.254 . S
C486 O507 1.256 . S
C486 O508 1.244 . S
O487 Zn483 2.055 . S
O487 C509 1.259 . S
O488 Zn480 2.046 . S
O488 C509 1.254 . S
N489 Zn483 2.036 . S
N489 C490 1.298 . S
N489 N492 1.398 . S
C490 N489 1.298 . S
C490 N493 1.367 . S
C490 C503 1.481 . S
C491 N492 1.299 . S
C491 N493 1.379 . S
N492 N489 1.398 . S
N492 C491 1.299 . S
N493 C490 1.367 . S
N493 C491 1.379 . S
C494 N496 1.298 . S
C494 N498 1.367 . S
C494 C502 1.481 . S
C495 N497 1.299 . S
C495 N498 1.379 . S
N496 Zn480 2.036 . S
N496 C494 1.298 . S
N496 N497 1.398 . S
N497 C495 1.299 . S
N497 N496 1.398 . S
N498 C494 1.367 . S
N498 C495 1.379 . S
H499 C502 0.980 . S
H500 C502 0.981 . S
H501 C502 0.981 . S
C502 C494 1.481 . S
C502 H499 0.980 . S
C502 H500 0.981 . S
C502 H501 0.981 . S
C503 C490 1.481 . S
C503 H504 0.980 . S
C503 H505 0.981 . S
C503 H506 0.981 . S
H504 C503 0.980 . S
H505 C503 0.981 . S
H506 C503 0.981 . S
O507 Zn483 2.066 . S
O507 C486 1.256 . S
O508 Zn480 2.053 . S
O508 C486 1.244 . S
C509 O487 1.259 . S
C509 O488 1.254 . S
O510 Zn480 2.066 . S
O510 C482 1.256 . S
O511 C482 1.244 . S
O511 Zn483 2.053 . S
Zn512 O513 2.055 . S
Zn512 O520 2.046 . S
Zn512 N528 2.036 . S
Zn512 O540 2.053 . S
Zn512 O542 2.066 . S
O513 Zn512 2.055 . S
O513 C516 1.259 . S
C514 O542 1.256 . S
C514 O543 1.244 . S
Zn515 O517 2.046 . S
Zn515 O519 2.055 . S
Zn515 N521 2.036 . S
Zn515 O539 2.066 . S
Zn515 O543 2.053 . S
C516 O513 1.259 . S
C516 O517 1.254 . S
O517 Zn515 2.046 . S
O517 C516 1.254 . S
C518 O539 1.256 . S
C518 O540 1.244 . S
O519 Zn515 2.055 . S
O519 C541 1.259 . S
O520 Zn512 2.046 . S
O520 C541 1.254 . S
N521 Zn515 2.036 . S
N521 C522 1.298 . S
N521 N524 1.398 . S
C522 N521 1.298 . S
C522 N525 1.367 . S
C522 C535 1.481 . S
C523 N524 1.299 . S
C523 N525 1.379 . S
N524 N521 1.398 . S
N524 C523 1.299 . S
N525 C522 1.367 . S
N525 C523 1.379 . S
C526 N528 1.298 . S
C526 N530 1.367 . S
C526 C534 1.481 . S
C527 N529 1.299 . S
C527 N530 1.379 . S
N528 Zn512 2.036 . S
N528 C526 1.298 . S
N528 N529 1.398 . S
N529 C527 1.299 . S
N529 N528 1.398 . S
N530 C526 1.367 . S
N530 C527 1.379 . S
H531 C534 0.980 . S
H532 C534 0.981 . S
H533 C534 0.981 . S
C534 C526 1.481 . S
C534 H531 0.980 . S
C534 H532 0.981 . S
C534 H533 0.981 . S
C535 C522 1.481 . S
C535 H536 0.980 . S
C535 H537 0.981 . S
C535 H538 0.981 . S
H536 C535 0.980 . S
H537 C535 0.981 . S
H538 C535 0.981 . S
O539 Zn515 2.066 . S
O539 C518 1.256 . S
O540 Zn512 2.053 . S
O540 C518 1.244 . S
C541 O519 1.259 . S
C541 O520 1.254 . S
O542 Zn512 2.066 . S
O542 C514 1.256 . S
O543 C514 1.244 . S
O543 Zn515 2.053 . S
Zn544 O545 2.055 . S
Zn544 O552 2.046 . S
Zn544 N560 2.036 . S
Zn544 O572 2.053 . S
Zn544 O574 2.066 . S
O545 Zn544 2.055 . S
O545 C548 1.259 . S
C546 O574 1.256 . S
C546 O575 1.244 . S
Zn547 O549 2.046 . S
Zn547 O551 2.055 . S
Zn547 N553 2.036 . S
Zn547 O571 2.066 . S
Zn547 O575 2.053 . S
C548 O545 1.259 . S
C548 O549 1.254 . S
O549 Zn547 2.046 . S
O549 C548 1.254 . S
C550 O571 1.256 . S
C550 O572 1.244 . S
O551 Zn547 2.055 . S
O551 C573 1.259 . S
O552 Zn544 2.046 . S
O552 C573 1.254 . S
N553 Zn547 2.036 . S
N553 C554 1.298 . S
N553 N556 1.398 . S
C554 N553 1.298 . S
C554 N557 1.367 . S
C554 C567 1.481 . S
C555 N556 1.299 . S
C555 N557 1.379 . S
N556 N553 1.398 . S
N556 C555 1.299 . S
N557 C554 1.367 . S
N557 C555 1.379 . S
C558 N560 1.298 . S
C558 N562 1.367 . S
C558 C566 1.481 . S
C559 N561 1.299 . S
C559 N562 1.379 . S
N560 Zn544 2.036 . S
N560 C558 1.298 . S
N560 N561 1.398 . S
N561 C559 1.299 . S
N561 N560 1.398 . S
N562 C558 1.367 . S
N562 C559 1.379 . S
H563 C566 0.980 . S
H564 C566 0.981 . S
H565 C566 0.981 . S
C566 C558 1.481 . S
C566 H563 0.980 . S
C566 H564 0.981 . S
C566 H565 0.981 . S
C567 C554 1.481 . S
C567 H568 0.980 . S
C567 H569 0.981 . S
C567 H570 0.981 . S
H568 C567 0.980 . S
H569 C567 0.981 . S
H570 C567 0.981 . S
O571 Zn547 2.066 . S
O571 C550 1.256 . S
O572 Zn544 2.053 . S
O572 C550 1.244 . S
C573 O551 1.259 . S
C573 O552 1.254 . S
O574 Zn544 2.066 . S
O574 C546 1.256 . S
O575 C546 1.244 . S
O575 Zn547 2.053 . S
Zn576 O577 2.055 . S
Zn576 O584 2.046 . S
Zn576 N592 2.036 . S
Zn576 O604 2.053 . S
Zn576 O606 2.066 . S
O577 Zn576 2.055 . S
O577 C580 1.259 . S
C578 O606 1.256 . S
C578 O607 1.244 . S
Zn579 O581 2.046 . S
Zn579 O583 2.055 . S
Zn579 N585 2.036 . S
Zn579 O603 2.066 . S
Zn579 O607 2.053 . S
C580 O577 1.259 . S
C580 O581 1.254 . S
O581 Zn579 2.046 . S
O581 C580 1.254 . S
C582 O603 1.256 . S
C582 O604 1.244 . S
O583 Zn579 2.055 . S
O583 C605 1.259 . S
O584 Zn576 2.046 . S
O584 C605 1.254 . S
N585 Zn579 2.036 . S
N585 C586 1.298 . S
N585 N588 1.398 . S
C586 N585 1.298 . S
C586 N589 1.367 . S
C586 C599 1.481 . S
C587 N588 1.299 . S
C587 N589 1.379 . S
N588 N585 1.398 . S
N588 C587 1.299 . S
N589 C586 1.367 . S
N589 C587 1.379 . S
C590 N592 1.298 . S
C590 N594 1.367 . S
C590 C598 1.481 . S
C591 N593 1.299 . S
C591 N594 1.379 . S
N592 Zn576 2.036 . S
N592 C590 1.298 . S
N592 N593 1.398 . S
N593 C591 1.299 . S
N593 N592 1.398 . S
N594 C590 1.367 . S
N594 C591 1.379 . S
H595 C598 0.980 . S
H596 C598 0.981 . S
H597 C598 0.981 . S
C598 C590 1.481 . S
C598 H595 0.980 . S
C598 H596 0.981 . S
C598 H597 0.981 . S
C599 C586 1.481 . S
C599 H600 0.980 . S
C599 H601 0.981 . S
C599 H602 0.981 . S
H600 C599 0.980 . S
H601 C599 0.981 . S
H602 C599 0.981 . S
O603 Zn579 2.066 . S
O603 C582 1.256 . S
O604 Zn576 2.053 . S
O604 C582 1.244 . S
C605 O583 1.259 . S
C605 O584 1.254 . S
O606 Zn576 2.066 . S
O606 C578 1.256 . S
O607 C578 1.244 . S
O607 Zn579 2.053 . S
Zn608 O609 2.055 . S
Zn608 O616 2.046 . S
Zn608 N624 2.036 . S
Zn608 O636 2.053 . S
Zn608 O638 2.066 . S
O609 Zn608 2.055 . S
O609 C612 1.259 . S
C610 O638 1.256 . S
C610 O639 1.244 . S
Zn611 O613 2.046 . S
Zn611 O615 2.055 . S
Zn611 N617 2.036 . S
Zn611 O635 2.066 . S
Zn611 O639 2.053 . S
C612 O609 1.259 . S
C612 O613 1.254 . S
O613 Zn611 2.046 . S
O613 C612 1.254 . S
C614 O635 1.256 . S
C614 O636 1.244 . S
O615 Zn611 2.055 . S
O615 C637 1.259 . S
O616 Zn608 2.046 . S
O616 C637 1.254 . S
N617 Zn611 2.036 . S
N617 C618 1.298 . S
N617 N620 1.398 . S
C618 N617 1.298 . S
C618 N621 1.367 . S
C618 C631 1.481 . S
C619 N620 1.299 . S
C619 N621 1.379 . S
N620 N617 1.398 . S
N620 C619 1.299 . S
N621 C618 1.367 . S
N621 C619 1.379 . S
C622 N624 1.298 . S
C622 N626 1.367 . S
C622 C630 1.481 . S
C623 N625 1.299 . S
C623 N626 1.379 . S
N624 Zn608 2.036 . S
N624 C622 1.298 . S
N624 N625 1.398 . S
N625 C623 1.299 . S
N625 N624 1.398 . S
N626 C622 1.367 . S
N626 C623 1.379 . S
H627 C630 0.980 . S
H628 C630 0.981 . S
H629 C630 0.981 . S
C630 C622 1.481 . S
C630 H627 0.980 . S
C630 H628 0.981 . S
C630 H629 0.981 . S
C631 C618 1.481 . S
C631 H632 0.980 . S
C631 H633 0.981 . S
C631 H634 0.981 . S
H632 C631 0.980 . S
H633 C631 0.981 . S
H634 C631 0.981 . S
O635 Zn611 2.066 . S
O635 C614 1.256 . S
O636 Zn608 2.053 . S
O636 C614 1.244 . S
C637 O615 1.259 . S
C637 O616 1.254 . S
O638 Zn608 2.066 . S
O638 C610 1.256 . S
O639 C610 1.244 . S
O639 Zn611 2.053 . S
Zn640 O641 2.055 . S
Zn640 O648 2.046 . S
Zn640 N656 2.036 . S
Zn640 O668 2.053 . S
Zn640 O670 2.066 . S
O641 Zn640 2.055 . S
O641 C644 1.259 . S
C642 O670 1.256 . S
C642 O671 1.244 . S
Zn643 O645 2.046 . S
Zn643 O647 2.055 . S
Zn643 N649 2.036 . S
Zn643 O667 2.066 . S
Zn643 O671 2.053 . S
C644 O641 1.259 . S
C644 O645 1.254 . S
O645 Zn643 2.046 . S
O645 C644 1.254 . S
C646 O667 1.256 . S
C646 O668 1.244 . S
O647 Zn643 2.055 . S
O647 C669 1.259 . S
O648 Zn640 2.046 . S
O648 C669 1.254 . S
N649 Zn643 2.036 . S
N649 C650 1.298 . S
N649 N652 1.398 . S
C650 N649 1.298 . S
C650 N653 1.367 . S
C650 C663 1.481 . S
C651 N652 1.299 . S
C651 N653 1.379 . S
N652 N649 1.398 . S
N652 C651 1.299 . S
N653 C650 1.367 . S
N653 C651 1.379 . S
C654 N656 1.298 . S
C654 N658 1.367 . S
C654 C662 1.481 . S
C655 N657 1.299 . S
C655 N658 1.379 . S
N656 Zn640 2.036 . S
N656 C654 1.298 . S
N656 N657 1.398 . S
N657 C655 1.299 . S
N657 N656 1.398 . S
N658 C654 1.367 . S
N658 C655 1.379 . S
H659 C662 0.980 . S
H660 C662 0.981 . S
H661 C662 0.981 . S
C662 C654 1.481 . S
C662 H659 0.980 . S
C662 H660 0.981 . S
C662 H661 0.981 . S
C663 C650 1.481 . S
C663 H664 0.980 . S
C663 H665 0.981 . S
C663 H666 0.981 . S
H664 C663 0.980 . S
H665 C663 0.981 . S
H666 C663 0.981 . S
O667 Zn643 2.066 . S
O667 C646 1.256 . S
O668 Zn640 2.053 . S
O668 C646 1.244 . S
C669 O647 1.259 . S
C669 O648 1.254 . S
O670 Zn640 2.066 . S
O670 C642 1.256 . S
O671 C642 1.244 . S
O671 Zn643 2.053 . S
Zn672 O673 2.055 . S
Zn672 O680 2.046 . S
Zn672 N688 2.036 . S
Zn672 O700 2.053 . S
Zn672 O702 2.066 . S
O673 Zn672 2.055 . S
O673 C676 1.259 . S
C674 O702 1.256 . S
C674 O703 1.244 . S
Zn675 O677 2.046 . S
Zn675 O679 2.055 . S
Zn675 N681 2.036 . S
Zn675 O699 2.066 . S
Zn675 O703 2.053 . S
C676 O673 1.259 . S
C676 O677 1.254 . S
O677 Zn675 2.046 . S
O677 C676 1.254 . S
C678 O699 1.256 . S
C678 O700 1.244 . S
O679 Zn675 2.055 . S
O679 C701 1.259 . S
O680 Zn672 2.046 . S
O680 C701 1.254 . S
N681 Zn675 2.036 . S
N681 C682 1.298 . S
N681 N684 1.398 . S
C682 N681 1.298 . S
C682 N685 1.367 . S
C682 C695 1.481 . S
C683 N684 1.299 . S
C683 N685 1.379 . S
N684 N681 1.398 . S
N684 C683 1.299 . S
N685 C682 1.367 . S
N685 C683 1.379 . S
C686 N688 1.298 . S
C686 N690 1.367 . S
C686 C694 1.481 . S
C687 N689 1.299 . S
C687 N690 1.379 1_554 S
N688 Zn672 2.036 . S
N688 C686 1.298 . S
N688 N689 1.398 1_556 S
N689 C687 1.299 . S
N689 N688 1.398 1_554 S
N690 C686 1.367 . S
N690 C687 1.379 1_556 S
H691 C694 0.980 . S
H692 C694 0.981 1_565 S
H693 C694 0.981 . S
C694 C686 1.481 . S
C694 H691 0.980 . S
C694 H692 0.981 1_545 S
C694 H693 0.981 . S
C695 C682 1.481 . S
C695 H696 0.980 . S
C695 H697 0.981 . S
C695 H698 0.981 . S
H696 C695 0.980 . S
H697 C695 0.981 . S
H698 C695 0.981 . S
O699 Zn675 2.066 . S
O699 C678 1.256 . S
O700 Zn672 2.053 . S
O700 C678 1.244 . S
C701 O679 1.259 . S
C701 O680 1.254 . S
O702 Zn672 2.066 . S
O702 C674 1.256 . S
O703 C674 1.244 . S
O703 Zn675 2.053 . S
Zn704 O705 2.055 . S
Zn704 O712 2.046 . S
Zn704 N720 2.036 . S
Zn704 O732 2.053 . S
Zn704 O734 2.066 . S
O705 Zn704 2.055 . S
O705 C708 1.259 . S
C706 O734 1.256 . S
C706 O735 1.244 . S
Zn707 O709 2.046 . S
Zn707 O711 2.055 . S
Zn707 N713 2.036 . S
Zn707 O731 2.066 . S
Zn707 O735 2.053 . S
C708 O705 1.259 . S
C708 O709 1.254 . S
O709 Zn707 2.046 . S
O709 C708 1.254 . S
C710 O731 1.256 . S
C710 O732 1.244 . S
O711 Zn707 2.055 . S
O711 C733 1.259 . S
O712 Zn704 2.046 . S
O712 C733 1.254 . S
N713 Zn707 2.036 . S
N713 C714 1.298 . S
N713 N716 1.398 . S
C714 N713 1.298 . S
C714 N717 1.367 . S
C714 C727 1.481 . S
C715 N716 1.299 . S
C715 N717 1.379 . S
N716 N713 1.398 . S
N716 C715 1.299 . S
N717 C714 1.367 . S
N717 C715 1.379 . S
C718 N720 1.298 . S
C718 N722 1.367 . S
C718 C726 1.481 . S
C719 N721 1.299 . S
C719 N722 1.379 1_554 S
N720 Zn704 2.036 . S
N720 C718 1.298 . S
N720 N721 1.398 1_556 S
N721 C719 1.299 . S
N721 N720 1.398 1_554 S
N722 C718 1.367 . S
N722 C719 1.379 1_556 S
H723 C726 0.980 . S
H724 C726 0.981 1_455 S
H725 C726 0.981 . S
C726 C718 1.481 . S
C726 H723 0.980 . S
C726 H724 0.981 1_655 S
C726 H725 0.981 . S
C727 C714 1.481 . S
C727 H728 0.980 . S
C727 H729 0.981 . S
C727 H730 0.981 . S
H728 C727 0.980 . S
H729 C727 0.981 . S
H730 C727 0.981 . S
O731 Zn707 2.066 . S
O731 C710 1.256 . S
O732 Zn704 2.053 . S
O732 C710 1.244 . S
C733 O711 1.259 . S
C733 O712 1.254 . S
O734 Zn704 2.066 . S
O734 C706 1.256 . S
O735 C706 1.244 . S
O735 Zn707 2.053 . S
Zn736 O737 2.055 . S
Zn736 O744 2.046 . S
Zn736 N752 2.036 . S
Zn736 O764 2.053 . S
Zn736 O766 2.066 . S
O737 Zn736 2.055 . S
O737 C740 1.259 . S
C738 O766 1.256 . S
C738 O767 1.244 . S
Zn739 O741 2.046 . S
Zn739 O743 2.055 . S
Zn739 N745 2.036 . S
Zn739 O763 2.066 . S
Zn739 O767 2.053 . S
C740 O737 1.259 . S
C740 O741 1.254 . S
O741 Zn739 2.046 . S
O741 C740 1.254 . S
C742 O763 1.256 . S
C742 O764 1.244 . S
O743 Zn739 2.055 . S
O743 C765 1.259 . S
O744 Zn736 2.046 . S
O744 C765 1.254 . S
N745 Zn739 2.036 . S
N745 C746 1.298 . S
N745 N748 1.398 . S
C746 N745 1.298 . S
C746 N749 1.367 . S
C746 C759 1.481 . S
C747 N748 1.299 . S
C747 N749 1.379 . S
N748 N745 1.398 . S
N748 C747 1.299 . S
N749 C746 1.367 . S
N749 C747 1.379 . S
C750 N752 1.298 . S
C750 N754 1.367 . S
C750 C758 1.481 . S
C751 N753 1.299 . S
C751 N754 1.379 1_554 S
N752 Zn736 2.036 . S
N752 C750 1.298 . S
N752 N753 1.398 1_556 S
N753 C751 1.299 . S
N753 N752 1.398 1_554 S
N754 C750 1.367 . S
N754 C751 1.379 1_556 S
H755 C758 0.980 . S
H756 C758 0.981 . S
H757 C758 0.981 . S
C758 C750 1.481 . S
C758 H755 0.980 . S
C758 H756 0.981 . S
C758 H757 0.981 . S
C759 C746 1.481 . S
C759 H760 0.980 . S
C759 H761 0.981 . S
C759 H762 0.981 . S
H760 C759 0.980 . S
H761 C759 0.981 . S
H762 C759 0.981 . S
O763 Zn739 2.066 . S
O763 C742 1.256 . S
O764 Zn736 2.053 . S
O764 C742 1.244 . S
C765 O743 1.259 . S
C765 O744 1.254 . S
O766 Zn736 2.066 . S
O766 C738 1.256 . S
O767 C738 1.244 . S
O767 Zn739 2.053 . S
Zn768 O769 2.055 . S
Zn768 O776 2.046 . S
Zn768 N784 2.036 . S
Zn768 O796 2.053 . S
Zn768 O798 2.066 . S
O769 Zn768 2.055 . S
O769 C772 1.259 . S
C770 O798 1.256 . S
C770 O799 1.244 . S
Zn771 O773 2.046 . S
Zn771 O775 2.055 . S
Zn771 N777 2.036 . S
Zn771 O795 2.066 . S
Zn771 O799 2.053 . S
C772 O769 1.259 . S
C772 O773 1.254 . S
O773 Zn771 2.046 . S
O773 C772 1.254 . S
C774 O795 1.256 . S
C774 O796 1.244 . S
O775 Zn771 2.055 . S
O775 C797 1.259 . S
O776 Zn768 2.046 . S
O776 C797 1.254 . S
N777 Zn771 2.036 . S
N777 C778 1.298 . S
N777 N780 1.398 . S
C778 N777 1.298 . S
C778 N781 1.367 . S
C778 C791 1.481 . S
C779 N780 1.299 . S
C779 N781 1.379 . S
N780 N777 1.398 . S
N780 C779 1.299 . S
N781 C778 1.367 . S
N781 C779 1.379 . S
C782 N784 1.298 . S
C782 N786 1.367 . S
C782 C790 1.481 . S
C783 N785 1.299 . S
C783 N786 1.379 . S
N784 Zn768 2.036 . S
N784 C782 1.298 . S
N784 N785 1.398 . S
N785 C783 1.299 . S
N785 N784 1.398 . S
N786 C782 1.367 . S
N786 C783 1.379 . S
H787 C790 0.980 . S
H788 C790 0.981 . S
H789 C790 0.981 . S
C790 C782 1.481 . S
C790 H787 0.980 . S
C790 H788 0.981 . S
C790 H789 0.981 . S
C791 C778 1.481 . S
C791 H792 0.980 . S
C791 H793 0.981 . S
C791 H794 0.981 . S
H792 C791 0.980 . S
H793 C791 0.981 . S
H794 C791 0.981 . S
O795 Zn771 2.066 . S
O795 C774 1.256 . S
O796 Zn768 2.053 . S
O796 C774 1.244 . S
C797 O775 1.259 . S
C797 O776 1.254 . S
O798 Zn768 2.066 . S
O798 C770 1.256 . S
O799 C770 1.244 . S
O799 Zn771 2.053 . S
Zn800 O801 2.055 . S
Zn800 O808 2.046 . S
Zn800 N816 2.036 . S
Zn800 O828 2.053 . S
Zn800 O830 2.066 . S
O801 Zn800 2.055 . S
O801 C804 1.259 . S
C802 O830 1.256 . S
C802 O831 1.244 . S
Zn803 O805 2.046 . S
Zn803 O807 2.055 . S
Zn803 N809 2.036 . S
Zn803 O827 2.066 . S
Zn803 O831 2.053 . S
C804 O801 1.259 . S
C804 O805 1.254 . S
O805 Zn803 2.046 . S
O805 C804 1.254 . S
C806 O827 1.256 . S
C806 O828 1.244 . S
O807 Zn803 2.055 . S
O807 C829 1.259 . S
O808 Zn800 2.046 . S
O808 C829 1.254 . S
N809 Zn803 2.036 . S
N809 C810 1.298 . S
N809 N812 1.398 . S
C810 N809 1.298 . S
C810 N813 1.367 . S
C810 C823 1.481 . S
C811 N812 1.299 . S
C811 N813 1.379 . S
N812 N809 1.398 . S
N812 C811 1.299 . S
N813 C810 1.367 . S
N813 C811 1.379 . S
C814 N816 1.298 . S
C814 N818 1.367 . S
C814 C822 1.481 . S
C815 N817 1.299 . S
C815 N818 1.379 . S
N816 Zn800 2.036 . S
N816 C814 1.298 . S
N816 N817 1.398 . S
N817 C815 1.299 . S
N817 N816 1.398 . S
N818 C814 1.367 . S
N818 C815 1.379 . S
H819 C822 0.980 . S
H820 C822 0.981 . S
H821 C822 0.981 . S
C822 C814 1.481 . S
C822 H819 0.980 . S
C822 H820 0.981 . S
C822 H821 0.981 . S
C823 C810 1.481 . S
C823 H824 0.980 . S
C823 H825 0.981 . S
C823 H826 0.981 . S
H824 C823 0.980 . S
H825 C823 0.981 . S
H826 C823 0.981 . S
O827 Zn803 2.066 . S
O827 C806 1.256 . S
O828 Zn800 2.053 . S
O828 C806 1.244 . S
C829 O807 1.259 . S
C829 O808 1.254 . S
O830 Zn800 2.066 . S
O830 C802 1.256 . S
O831 C802 1.244 . S
O831 Zn803 2.053 . S
Zn832 O833 2.055 . S
Zn832 O840 2.046 . S
Zn832 N848 2.036 . S
Zn832 O860 2.053 . S
Zn832 O862 2.066 . S
O833 Zn832 2.055 . S
O833 C836 1.259 . S
C834 O862 1.256 . S
C834 O863 1.244 . S
Zn835 O837 2.046 . S
Zn835 O839 2.055 . S
Zn835 N841 2.036 . S
Zn835 O859 2.066 . S
Zn835 O863 2.053 . S
C836 O833 1.259 . S
C836 O837 1.254 . S
O837 Zn835 2.046 . S
O837 C836 1.254 . S
C838 O859 1.256 . S
C838 O860 1.244 . S
O839 Zn835 2.055 . S
O839 C861 1.259 . S
O840 Zn832 2.046 . S
O840 C861 1.254 . S
N841 Zn835 2.036 . S
N841 C842 1.298 . S
N841 N844 1.398 . S
C842 N841 1.298 . S
C842 N845 1.367 . S
C842 C855 1.481 . S
C843 N844 1.299 . S
C843 N845 1.379 . S
N844 N841 1.398 . S
N844 C843 1.299 . S
N845 C842 1.367 . S
N845 C843 1.379 . S
C846 N848 1.298 . S
C846 N850 1.367 . S
C846 C854 1.481 . S
C847 N849 1.299 . S
C847 N850 1.379 . S
N848 Zn832 2.036 . S
N848 C846 1.298 . S
N848 N849 1.398 . S
N849 C847 1.299 . S
N849 N848 1.398 . S
N850 C846 1.367 . S
N850 C847 1.379 . S
H851 C854 0.980 . S
H852 C854 0.981 . S
H853 C854 0.981 . S
C854 C846 1.481 . S
C854 H851 0.980 . S
C854 H852 0.981 . S
C854 H853 0.981 . S
C855 C842 1.481 . S
C855 H856 0.980 . S
C855 H857 0.981 . S
C855 H858 0.981 . S
H856 C855 0.980 . S
H857 C855 0.981 . S
H858 C855 0.981 . S
O859 Zn835 2.066 . S
O859 C838 1.256 . S
O860 Zn832 2.053 . S
O860 C838 1.244 . S
C861 O839 1.259 . S
C861 O840 1.254 . S
O862 Zn832 2.066 . S
O862 C834 1.256 . S
O863 C834 1.244 . S
O863 Zn835 2.053 . S
Zn864 O865 2.055 . S
Zn864 O872 2.046 . S
Zn864 N880 2.036 . S
Zn864 O892 2.053 . S
Zn864 O894 2.066 . S
O865 Zn864 2.055 . S
O865 C868 1.259 . S
C866 O894 1.256 . S
C866 O895 1.244 . S
Zn867 O869 2.046 . S
Zn867 O871 2.055 . S
Zn867 N873 2.036 . S
Zn867 O891 2.066 . S
Zn867 O895 2.053 . S
C868 O865 1.259 . S
C868 O869 1.254 . S
O869 Zn867 2.046 . S
O869 C868 1.254 . S
C870 O891 1.256 . S
C870 O892 1.244 . S
O871 Zn867 2.055 . S
O871 C893 1.259 . S
O872 Zn864 2.046 . S
O872 C893 1.254 . S
N873 Zn867 2.036 . S
N873 C874 1.298 . S
N873 N876 1.398 . S
C874 N873 1.298 . S
C874 N877 1.367 . S
C874 C887 1.481 . S
C875 N876 1.299 . S
C875 N877 1.379 . S
N876 N873 1.398 . S
N876 C875 1.299 . S
N877 C874 1.367 . S
N877 C875 1.379 . S
C878 N880 1.298 . S
C878 N882 1.367 . S
C878 C886 1.481 . S
C879 N881 1.299 . S
C879 N882 1.379 1_556 S
N880 Zn864 2.036 . S
N880 C878 1.298 . S
N880 N881 1.398 1_554 S
N881 C879 1.299 . S
N881 N880 1.398 1_556 S
N882 C878 1.367 . S
N882 C879 1.379 1_554 S
H883 C886 0.980 . S
H884 C886 0.981 1_545 S
H885 C886 0.981 . S
C886 C878 1.481 . S
C886 H883 0.980 . S
C886 H884 0.981 1_565 S
C886 H885 0.981 . S
C887 C874 1.481 . S
C887 H888 0.980 . S
C887 H889 0.981 . S
C887 H890 0.981 . S
H888 C887 0.980 . S
H889 C887 0.981 . S
H890 C887 0.981 . S
O891 Zn867 2.066 . S
O891 C870 1.256 . S
O892 Zn864 2.053 . S
O892 C870 1.244 . S
C893 O871 1.259 . S
C893 O872 1.254 . S
O894 Zn864 2.066 . S
O894 C866 1.256 . S
O895 C866 1.244 . S
O895 Zn867 2.053 . S
Zn896 O897 2.055 . S
Zn896 O904 2.046 . S
Zn896 N912 2.036 . S
Zn896 O924 2.053 . S
Zn896 O926 2.066 . S
O897 Zn896 2.055 . S
O897 C900 1.259 . S
C898 O926 1.256 . S
C898 O927 1.244 . S
Zn899 O901 2.046 . S
Zn899 O903 2.055 . S
Zn899 N905 2.036 . S
Zn899 O923 2.066 . S
Zn899 O927 2.053 . S
C900 O897 1.259 . S
C900 O901 1.254 . S
O901 Zn899 2.046 . S
O901 C900 1.254 . S
C902 O923 1.256 . S
C902 O924 1.244 . S
O903 Zn899 2.055 . S
O903 C925 1.259 . S
O904 Zn896 2.046 . S
O904 C925 1.254 . S
N905 Zn899 2.036 . S
N905 C906 1.298 . S
N905 N908 1.398 1_554 S
C906 N905 1.298 . S
C906 N909 1.367 . S
C906 C919 1.481 . S
C907 N908 1.299 . S
C907 N909 1.379 1_556 S
N908 N905 1.398 1_556 S
N908 C907 1.299 . S
N909 C906 1.367 . S
N909 C907 1.379 1_554 S
C910 N912 1.298 . S
C910 N914 1.367 . S
C910 C918 1.481 . S
C911 N913 1.299 . S
C911 N914 1.379 . S
N912 Zn896 2.036 . S
N912 C910 1.298 . S
N912 N913 1.398 . S
N913 C911 1.299 . S
N913 N912 1.398 . S
N914 C910 1.367 . S
N914 C911 1.379 . S
H915 C918 0.980 . S
H916 C918 0.981 . S
H917 C918 0.981 . S
C918 C910 1.481 . S
C918 H915 0.980 . S
C918 H916 0.981 . S
C918 H917 0.981 . S
C919 C906 1.481 . S
C919 H920 0.980 . S
C919 H921 0.981 1_455 S
C919 H922 0.981 . S
H920 C919 0.980 . S
H921 C919 0.981 1_655 S
H922 C919 0.981 . S
O923 Zn899 2.066 . S
O923 C902 1.256 . S
O924 Zn896 2.053 . S
O924 C902 1.244 . S
C925 O903 1.259 . S
C925 O904 1.254 . S
O926 Zn896 2.066 . S
O926 C898 1.256 . S
O927 C898 1.244 . S
O927 Zn899 2.053 . S
Zn928 O929 2.055 . S
Zn928 O936 2.046 . S
Zn928 N944 2.036 . S
Zn928 O956 2.053 . S
Zn928 O958 2.066 . S
O929 Zn928 2.055 . S
O929 C932 1.259 . S
C930 O958 1.256 . S
C930 O959 1.244 . S
Zn931 O933 2.046 . S
Zn931 O935 2.055 . S
Zn931 N937 2.036 . S
Zn931 O955 2.066 . S
Zn931 O959 2.053 . S
C932 O929 1.259 . S
C932 O933 1.254 . S
O933 Zn931 2.046 . S
O933 C932 1.254 . S
C934 O955 1.256 . S
C934 O956 1.244 . S
O935 Zn931 2.055 . S
O935 C957 1.259 . S
O936 Zn928 2.046 . S
O936 C957 1.254 . S
N937 Zn931 2.036 . S
N937 C938 1.298 . S
N937 N940 1.398 . S
C938 N937 1.298 . S
C938 N941 1.367 . S
C938 C951 1.481 . S
C939 N940 1.299 . S
C939 N941 1.379 . S
N940 N937 1.398 . S
N940 C939 1.299 . S
N941 C938 1.367 . S
N941 C939 1.379 . S
C942 N944 1.298 . S
C942 N946 1.367 . S
C942 C950 1.481 . S
C943 N945 1.299 . S
C943 N946 1.379 1_556 S
N944 Zn928 2.036 . S
N944 C942 1.298 . S
N944 N945 1.398 1_554 S
N945 C943 1.299 . S
N945 N944 1.398 1_556 S
N946 C942 1.367 . S
N946 C943 1.379 1_554 S
H947 C950 0.980 . S
H948 C950 0.981 . S
H949 C950 0.981 . S
C950 C942 1.481 . S
C950 H947 0.980 . S
C950 H948 0.981 . S
C950 H949 0.981 . S
C951 C938 1.481 . S
C951 H952 0.980 . S
C951 H953 0.981 . S
C951 H954 0.981 . S
H952 C951 0.980 . S
H953 C951 0.981 . S
H954 C951 0.981 . S
O955 Zn931 2.066 . S
O955 C934 1.256 . S
O956 Zn928 2.053 . S
O956 C934 1.244 . S
C957 O935 1.259 . S
C957 O936 1.254 . S
O958 Zn928 2.066 . S
O958 C930 1.256 . S
O959 C930 1.244 . S
O959 Zn931 2.053 . S
Zn960 O961 2.055 . S
Zn960 O968 2.046 . S
Zn960 N976 2.036 . S
Zn960 O988 2.053 . S
Zn960 O990 2.066 . S
O961 Zn960 2.055 . S
O961 C964 1.259 . S
C962 O990 1.256 . S
C962 O991 1.244 . S
Zn963 O965 2.046 . S
Zn963 O967 2.055 . S
Zn963 N969 2.036 . S
Zn963 O987 2.066 . S
Zn963 O991 2.053 . S
C964 O961 1.259 . S
C964 O965 1.254 . S
O965 Zn963 2.046 . S
O965 C964 1.254 . S
C966 O987 1.256 . S
C966 O988 1.244 . S
O967 Zn963 2.055 . S
O967 C989 1.259 . S
O968 Zn960 2.046 . S
O968 C989 1.254 . S
N969 Zn963 2.036 . S
N969 C970 1.298 . S
N969 N972 1.398 . S
C970 N969 1.298 . S
C970 N973 1.367 . S
C970 C983 1.481 . S
C971 N972 1.299 . S
C971 N973 1.379 . S
N972 N969 1.398 . S
N972 C971 1.299 . S
N973 C970 1.367 . S
N973 C971 1.379 . S
C974 N976 1.298 . S
C974 N978 1.367 . S
C974 C982 1.481 . S
C975 N977 1.299 . S
C975 N978 1.379 . S
N976 Zn960 2.036 . S
N976 C974 1.298 . S
N976 N977 1.398 . S
N977 C975 1.299 . S
N977 N976 1.398 . S
N978 C974 1.367 . S
N978 C975 1.379 . S
H979 C982 0.980 . S
H980 C982 0.981 . S
H981 C982 0.981 . S
C982 C974 1.481 . S
C982 H979 0.980 . S
C982 H980 0.981 . S
C982 H981 0.981 . S
C983 C970 1.481 . S
C983 H984 0.980 . S
C983 H985 0.981 1_455 S
C983 H986 0.981 . S
H984 C983 0.980 . S
H985 C983 0.981 1_655 S
H986 C983 0.981 . S
O987 Zn963 2.066 . S
O987 C966 1.256 . S
O988 Zn960 2.053 . S
O988 C966 1.244 . S
C989 O967 1.259 . S
C989 O968 1.254 . S
O990 Zn960 2.066 . S
O990 C962 1.256 . S
O991 C962 1.244 . S
O991 Zn963 2.053 . S
Zn992 O993 2.055 . S
Zn992 O1000 2.046 . S
Zn992 N1008 2.036 . S
Zn992 O1020 2.053 . S
Zn992 O1022 2.066 . S
O993 Zn992 2.055 . S
O993 C996 1.259 . S
C994 O1022 1.256 . S
C994 O1023 1.244 . S
Zn995 O997 2.046 . S
Zn995 O999 2.055 . S
Zn995 N1001 2.036 . S
Zn995 O1019 2.066 . S
Zn995 O1023 2.053 . S
C996 O993 1.259 . S
C996 O997 1.254 . S
O997 Zn995 2.046 . S
O997 C996 1.254 . S
C998 O1019 1.256 . S
C998 O1020 1.244 . S
O999 Zn995 2.055 . S
O999 C1021 1.259 . S
O1000 Zn992 2.046 . S
O1000 C1021 1.254 . S
N1001 Zn995 2.036 . S
N1001 C1002 1.298 . S
N1001 N1004 1.398 . S
C1002 N1001 1.298 . S
C1002 N1005 1.367 . S
C1002 C1015 1.481 . S
C1003 N1004 1.299 . S
C1003 N1005 1.379 . S
N1004 N1001 1.398 . S
N1004 C1003 1.299 . S
N1005 C1002 1.367 . S
N1005 C1003 1.379 . S
C1006 N1008 1.298 . S
C1006 N1010 1.367 . S
C1006 C1014 1.481 . S
C1007 N1009 1.299 . S
C1007 N1010 1.379 . S
N1008 Zn992 2.036 . S
N1008 C1006 1.298 . S
N1008 N1009 1.398 . S
N1009 C1007 1.299 . S
N1009 N1008 1.398 . S
N1010 C1006 1.367 . S
N1010 C1007 1.379 . S
H1011 C1014 0.980 . S
H1012 C1014 0.981 . S
H1013 C1014 0.981 . S
C1014 C1006 1.481 . S
C1014 H1011 0.980 . S
C1014 H1012 0.981 . S
C1014 H1013 0.981 . S
C1015 C1002 1.481 . S
C1015 H1016 0.980 . S
C1015 H1017 0.981 . S
C1015 H1018 0.981 . S
H1016 C1015 0.980 . S
H1017 C1015 0.981 . S
H1018 C1015 0.981 . S
O1019 Zn995 2.066 . S
O1019 C998 1.256 . S
O1020 Zn992 2.053 . S
O1020 C998 1.244 . S
C1021 O999 1.259 . S
C1021 O1000 1.254 . S
O1022 Zn992 2.066 . S
O1022 C994 1.256 . S
O1023 C994 1.244 . S
O1023 Zn995 2.053 . S
Zn1024 O1025 2.055 . S
Zn1024 O1032 2.046 . S
Zn1024 N1040 2.036 . S
Zn1024 O1052 2.053 . S
Zn1024 O1054 2.066 . S
O1025 Zn1024 2.055 . S
O1025 C1028 1.259 . S
C1026 O1054 1.256 . S
C1026 O1055 1.244 . S
Zn1027 O1029 2.046 . S
Zn1027 O1031 2.055 . S
Zn1027 N1033 2.036 . S
Zn1027 O1051 2.066 . S
Zn1027 O1055 2.053 . S
C1028 O1025 1.259 . S
C1028 O1029 1.254 . S
O1029 Zn1027 2.046 . S
O1029 C1028 1.254 . S
C1030 O1051 1.256 . S
C1030 O1052 1.244 . S
O1031 Zn1027 2.055 . S
O1031 C1053 1.259 . S
O1032 Zn1024 2.046 . S
O1032 C1053 1.254 . S
N1033 Zn1027 2.036 . S
N1033 C1034 1.298 . S
N1033 N1036 1.398 . S
C1034 N1033 1.298 . S
C1034 N1037 1.367 . S
C1034 C1047 1.481 . S
C1035 N1036 1.299 . S
C1035 N1037 1.379 . S
N1036 N1033 1.398 . S
N1036 C1035 1.299 . S
N1037 C1034 1.367 . S
N1037 C1035 1.379 . S
C1038 N1040 1.298 . S
C1038 N1042 1.367 . S
C1038 C1046 1.481 . S
C1039 N1041 1.299 . S
C1039 N1042 1.379 . S
N1040 Zn1024 2.036 . S
N1040 C1038 1.298 . S
N1040 N1041 1.398 . S
N1041 C1039 1.299 . S
N1041 N1040 1.398 . S
N1042 C1038 1.367 . S
N1042 C1039 1.379 . S
H1043 C1046 0.980 . S
H1044 C1046 0.981 . S
H1045 C1046 0.981 . S
C1046 C1038 1.481 . S
C1046 H1043 0.980 . S
C1046 H1044 0.981 . S
C1046 H1045 0.981 . S
C1047 C1034 1.481 . S
C1047 H1048 0.980 . S
C1047 H1049 0.981 1_565 S
C1047 H1050 0.981 . S
H1048 C1047 0.980 . S
H1049 C1047 0.981 1_545 S
H1050 C1047 0.981 . S
O1051 Zn1027 2.066 . S
O1051 C1030 1.256 . S
O1052 Zn1024 2.053 . S
O1052 C1030 1.244 . S
C1053 O1031 1.259 . S
C1053 O1032 1.254 . S
O1054 Zn1024 2.066 . S
O1054 C1026 1.256 . S
O1055 C1026 1.244 . S
O1055 Zn1027 2.053 . S
Zn1056 O1057 2.055 . S
Zn1056 O1064 2.046 . S
Zn1056 N1072 2.036 . S
Zn1056 O1084 2.053 . S
Zn1056 O1086 2.066 . S
O1057 Zn1056 2.055 . S
O1057 C1060 1.259 . S
C1058 O1086 1.256 . S
C1058 O1087 1.244 . S
Zn1059 O1061 2.046 . S
Zn1059 O1063 2.055 . S
Zn1059 N1065 2.036 . S
Zn1059 O1083 2.066 . S
Zn1059 O1087 2.053 . S
C1060 O1057 1.259 . S
C1060 O1061 1.254 . S
O1061 Zn1059 2.046 . S
O1061 C1060 1.254 . S
C1062 O1083 1.256 . S
C1062 O1084 1.244 . S
O1063 Zn1059 2.055 . S
O1063 C1085 1.259 . S
O1064 Zn1056 2.046 . S
O1064 C1085 1.254 . S
N1065 Zn1059 2.036 . S
N1065 C1066 1.298 . S
N1065 N1068 1.398 . S
C1066 N1065 1.298 . S
C1066 N1069 1.367 . S
C1066 C1079 1.481 . S
C1067 N1068 1.299 . S
C1067 N1069 1.379 . S
N1068 N1065 1.398 . S
N1068 C1067 1.299 . S
N1069 C1066 1.367 . S
N1069 C1067 1.379 . S
C1070 N1072 1.298 . S
C1070 N1074 1.367 . S
C1070 C1078 1.481 . S
C1071 N1073 1.299 . S
C1071 N1074 1.379 . S
N1072 Zn1056 2.036 . S
N1072 C1070 1.298 . S
N1072 N1073 1.398 . S
N1073 C1071 1.299 . S
N1073 N1072 1.398 . S
N1074 C1070 1.367 . S
N1074 C1071 1.379 . S
H1075 C1078 0.980 . S
H1076 C1078 0.981 . S
H1077 C1078 0.981 . S
C1078 C1070 1.481 . S
C1078 H1075 0.980 . S
C1078 H1076 0.981 . S
C1078 H1077 0.981 . S
C1079 C1066 1.481 . S
C1079 H1080 0.980 . S
C1079 H1081 0.981 . S
C1079 H1082 0.981 . S
H1080 C1079 0.980 . S
H1081 C1079 0.981 . S
H1082 C1079 0.981 . S
O1083 Zn1059 2.066 . S
O1083 C1062 1.256 . S
O1084 Zn1056 2.053 . S
O1084 C1062 1.244 . S
C1085 O1063 1.259 . S
C1085 O1064 1.254 . S
O1086 Zn1056 2.066 . S
O1086 C1058 1.256 . S
O1087 C1058 1.244 . S
O1087 Zn1059 2.053 . S
Zn1088 O1089 2.055 . S
Zn1088 O1096 2.046 . S
Zn1088 N1104 2.036 . S
Zn1088 O1116 2.053 . S
Zn1088 O1118 2.066 . S
O1089 Zn1088 2.055 . S
O1089 C1092 1.259 . S
C1090 O1118 1.256 . S
C1090 O1119 1.244 . S
Zn1091 O1093 2.046 . S
Zn1091 O1095 2.055 . S
Zn1091 N1097 2.036 . S
Zn1091 O1115 2.066 . S
Zn1091 O1119 2.053 . S
C1092 O1089 1.259 . S
C1092 O1093 1.254 . S
O1093 Zn1091 2.046 . S
O1093 C1092 1.254 . S
C1094 O1115 1.256 . S
C1094 O1116 1.244 . S
O1095 Zn1091 2.055 . S
O1095 C1117 1.259 . S
O1096 Zn1088 2.046 . S
O1096 C1117 1.254 . S
N1097 Zn1091 2.036 . S
N1097 C1098 1.298 . S
N1097 N1100 1.398 . S
C1098 N1097 1.298 . S
C1098 N1101 1.367 . S
C1098 C1111 1.481 . S
C1099 N1100 1.299 . S
C1099 N1101 1.379 . S
N1100 N1097 1.398 . S
N1100 C1099 1.299 . S
N1101 C1098 1.367 . S
N1101 C1099 1.379 . S
C1102 N1104 1.298 . S
C1102 N1106 1.367 . S
C1102 C1110 1.481 . S
C1103 N1105 1.299 . S
C1103 N1106 1.379 . S
N1104 Zn1088 2.036 . S
N1104 C1102 1.298 . S
N1104 N1105 1.398 . S
N1105 C1103 1.299 . S
N1105 N1104 1.398 . S
N1106 C1102 1.367 . S
N1106 C1103 1.379 . S
H1107 C1110 0.980 . S
H1108 C1110 0.981 . S
H1109 C1110 0.981 . S
C1110 C1102 1.481 . S
C1110 H1107 0.980 . S
C1110 H1108 0.981 . S
C1110 H1109 0.981 . S
C1111 C1098 1.481 . S
C1111 H1112 0.980 . S
C1111 H1113 0.981 . S
C1111 H1114 0.981 . S
H1112 C1111 0.980 . S
H1113 C1111 0.981 . S
H1114 C1111 0.981 . S
O1115 Zn1091 2.066 . S
O1115 C1094 1.256 . S
O1116 Zn1088 2.053 . S
O1116 C1094 1.244 . S
C1117 O1095 1.259 . S
C1117 O1096 1.254 . S
O1118 Zn1088 2.066 . S
O1118 C1090 1.256 . S
O1119 C1090 1.244 . S
O1119 Zn1091 2.053 . S
Zn1120 O1121 2.055 . S
Zn1120 O1128 2.046 . S
Zn1120 N1136 2.036 . S
Zn1120 O1148 2.053 . S
Zn1120 O1150 2.066 . S
O1121 Zn1120 2.055 . S
O1121 C1124 1.259 . S
C1122 O1150 1.256 . S
C1122 O1151 1.244 . S
Zn1123 O1125 2.046 . S
Zn1123 O1127 2.055 . S
Zn1123 N1129 2.036 . S
Zn1123 O1147 2.066 . S
Zn1123 O1151 2.053 . S
C1124 O1121 1.259 . S
C1124 O1125 1.254 . S
O1125 Zn1123 2.046 . S
O1125 C1124 1.254 . S
C1126 O1147 1.256 . S
C1126 O1148 1.244 . S
O1127 Zn1123 2.055 . S
O1127 C1149 1.259 . S
O1128 Zn1120 2.046 . S
O1128 C1149 1.254 . S
N1129 Zn1123 2.036 . S
N1129 C1130 1.298 . S
N1129 N1132 1.398 . S
C1130 N1129 1.298 . S
C1130 N1133 1.367 . S
C1130 C1143 1.481 . S
C1131 N1132 1.299 . S
C1131 N1133 1.379 . S
N1132 N1129 1.398 . S
N1132 C1131 1.299 . S
N1133 C1130 1.367 . S
N1133 C1131 1.379 . S
C1134 N1136 1.298 . S
C1134 N1138 1.367 . S
C1134 C1142 1.481 . S
C1135 N1137 1.299 . S
C1135 N1138 1.379 . S
N1136 Zn1120 2.036 . S
N1136 C1134 1.298 . S
N1136 N1137 1.398 . S
N1137 C1135 1.299 . S
N1137 N1136 1.398 . S
N1138 C1134 1.367 . S
N1138 C1135 1.379 . S
H1139 C1142 0.980 . S
H1140 C1142 0.981 . S
H1141 C1142 0.981 . S
C1142 C1134 1.481 . S
C1142 H1139 0.980 . S
C1142 H1140 0.981 . S
C1142 H1141 0.981 . S
C1143 C1130 1.481 . S
C1143 H1144 0.980 . S
C1143 H1145 0.981 . S
C1143 H1146 0.981 . S
H1144 C1143 0.980 . S
H1145 C1143 0.981 . S
H1146 C1143 0.981 . S
O1147 Zn1123 2.066 . S
O1147 C1126 1.256 . S
O1148 Zn1120 2.053 . S
O1148 C1126 1.244 . S
C1149 O1127 1.259 . S
C1149 O1128 1.254 . S
O1150 Zn1120 2.066 . S
O1150 C1122 1.256 . S
O1151 C1122 1.244 . S
O1151 Zn1123 2.053 . S
C1152 C1153 1.369 . S
C1152 C1154 1.419 . S
C1152 H1156 0.930 . S
C1153 C1152 1.369 . S
C1153 C1162 1.429 1_554 S
C1154 C1152 1.419 . S
C1154 C1155 1.363 . S
C1154 H1157 0.929 . S
C1155 C1154 1.363 . S
C1155 C1161 1.428 1_554 S
H1156 C1152 0.930 . S
H1157 C1154 0.929 . S
S1158 N1159 1.613 . S
S1158 N1160 1.610 . S
N1159 S1158 1.613 . S
N1159 C1162 1.350 . S
N1160 S1158 1.610 . S
N1160 C1161 1.351 . S
C1161 C1155 1.428 1_556 S
C1161 N1160 1.351 . S
C1161 C1162 1.434 . S
C1162 C1153 1.429 1_556 S
C1162 N1159 1.350 . S
C1162 C1161 1.434 . S
C1163 C1164 1.369 . S
C1163 C1165 1.419 . S
C1163 H1167 0.930 . S
C1164 C1163 1.369 . S
C1164 C1173 1.429 . S
C1165 C1163 1.419 . S
C1165 C1166 1.363 . S
C1165 H1168 0.929 . S
C1166 C1165 1.363 . S
C1166 C1172 1.428 . S
H1167 C1163 0.930 . S
H1168 C1165 0.929 . S
S1169 N1170 1.613 . S
S1169 N1171 1.610 1_556 S
N1170 S1169 1.613 . S
N1170 C1173 1.350 1_556 S
N1171 S1169 1.610 1_554 S
N1171 C1172 1.351 . S
C1172 C1166 1.428 . S
C1172 N1171 1.351 . S
C1172 C1173 1.434 . S
C1173 C1164 1.429 . S
C1173 N1170 1.350 1_554 S
C1173 C1172 1.434 . S
C1174 C1175 1.369 . S
C1174 C1176 1.419 . S
C1174 H1178 0.930 . S
C1175 C1174 1.369 . S
C1175 C1184 1.429 1_554 S
C1176 C1174 1.419 . S
C1176 C1177 1.363 . S
C1176 H1179 0.929 . S
C1177 C1176 1.363 . S
C1177 C1183 1.428 1_554 S
H1178 C1174 0.930 . S
H1179 C1176 0.929 . S
S1180 N1181 1.613 . S
S1180 N1182 1.610 . S
N1181 S1180 1.613 . S
N1181 C1184 1.350 . S
N1182 S1180 1.610 . S
N1182 C1183 1.351 . S
C1183 C1177 1.428 1_556 S
C1183 N1182 1.351 . S
C1183 C1184 1.434 . S
C1184 C1175 1.429 1_556 S
C1184 N1181 1.350 . S
C1184 C1183 1.434 . S
C1185 C1186 1.369 . S
C1185 C1187 1.419 . S
C1185 H1189 0.930 . S
C1186 C1185 1.369 . S
C1186 C1195 1.429 . S
C1187 C1185 1.419 . S
C1187 C1188 1.363 . S
C1187 H1190 0.929 . S
C1188 C1187 1.363 . S
C1188 C1194 1.428 . S
H1189 C1185 0.930 . S
H1190 C1187 0.929 . S
S1191 N1192 1.613 . S
S1191 N1193 1.610 . S
N1192 S1191 1.613 . S
N1192 C1195 1.350 . S
N1193 S1191 1.610 . S
N1193 C1194 1.351 . S
C1194 C1188 1.428 . S
C1194 N1193 1.351 . S
C1194 C1195 1.434 . S
C1195 C1186 1.429 . S
C1195 N1192 1.350 . S
C1195 C1194 1.434 . S
C1196 C1197 1.369 . S
C1196 C1198 1.419 . S
C1196 H1200 0.930 . S
C1197 C1196 1.369 . S
C1197 C1206 1.429 . S
C1198 C1196 1.419 . S
C1198 C1199 1.363 . S
C1198 H1201 0.929 . S
C1199 C1198 1.363 . S
C1199 C1205 1.428 . S
H1200 C1196 0.930 . S
H1201 C1198 0.929 . S
S1202 N1203 1.613 . S
S1202 N1204 1.610 . S
N1203 S1202 1.613 . S
N1203 C1206 1.350 . S
N1204 S1202 1.610 . S
N1204 C1205 1.351 . S
C1205 C1199 1.428 . S
C1205 N1204 1.351 . S
C1205 C1206 1.434 . S
C1206 C1197 1.429 . S
C1206 N1203 1.350 . S
C1206 C1205 1.434 . S
C1207 C1208 1.369 . S
C1207 C1209 1.419 . S
C1207 H1211 0.930 . S
C1208 C1207 1.369 . S
C1208 C1217 1.429 . S
C1209 C1207 1.419 . S
C1209 C1210 1.363 . S
C1209 H1212 0.929 . S
C1210 C1209 1.363 . S
C1210 C1216 1.428 . S
H1211 C1207 0.930 . S
H1212 C1209 0.929 . S
S1213 N1214 1.613 . S
S1213 N1215 1.610 . S
N1214 S1213 1.613 . S
N1214 C1217 1.350 . S
N1215 S1213 1.610 . S
N1215 C1216 1.351 . S
C1216 C1210 1.428 . S
C1216 N1215 1.351 . S
C1216 C1217 1.434 . S
C1217 C1208 1.429 . S
C1217 N1214 1.350 . S
C1217 C1216 1.434 . S
C1218 C1219 1.369 . S
C1218 C1220 1.419 . S
C1218 H1222 0.930 . S
C1219 C1218 1.369 . S
C1219 C1228 1.429 . S
C1220 C1218 1.419 . S
C1220 C1221 1.363 . S
C1220 H1223 0.929 . S
C1221 C1220 1.363 . S
C1221 C1227 1.428 . S
H1222 C1218 0.930 . S
H1223 C1220 0.929 . S
S1224 N1225 1.613 . S
S1224 N1226 1.610 . S
N1225 S1224 1.613 . S
N1225 C1228 1.350 . S
N1226 S1224 1.610 . S
N1226 C1227 1.351 . S
C1227 C1221 1.428 . S
C1227 N1226 1.351 . S
C1227 C1228 1.434 . S
C1228 C1219 1.429 . S
C1228 N1225 1.350 . S
C1228 C1227 1.434 . S
C1229 C1230 1.369 1_554 S
C1229 C1231 1.419 . S
C1229 H1233 0.930 . S
C1230 C1229 1.369 1_556 S
C1230 C1239 1.429 . S
C1231 C1229 1.419 . S
C1231 C1232 1.363 1_554 S
C1231 H1234 0.929 . S
C1232 C1231 1.363 1_556 S
C1232 C1238 1.428 . S
H1233 C1229 0.930 . S
H1234 C1231 0.929 . S
S1235 N1236 1.613 . S
S1235 N1237 1.610 . S
N1236 S1235 1.613 . S
N1236 C1239 1.350 . S
N1237 S1235 1.610 . S
N1237 C1238 1.351 . S
C1238 C1232 1.428 . S
C1238 N1237 1.351 . S
C1238 C1239 1.434 . S
C1239 C1230 1.429 . S
C1239 N1236 1.350 . S
C1239 C1238 1.434 . S
C1240 C1241 1.369 . S
C1240 C1242 1.419 . S
C1240 H1244 0.930 . S
C1241 C1240 1.369 . S
C1241 C1250 1.429 1_556 S
C1242 C1240 1.419 . S
C1242 C1243 1.363 . S
C1242 H1245 0.929 . S
C1243 C1242 1.363 . S
C1243 C1249 1.428 1_556 S
H1244 C1240 0.930 . S
H1245 C1242 0.929 . S
S1246 N1247 1.613 . S
S1246 N1248 1.610 . S
N1247 S1246 1.613 . S
N1247 C1250 1.350 . S
N1248 S1246 1.610 . S
N1248 C1249 1.351 . S
C1249 C1243 1.428 1_554 S
C1249 N1248 1.351 . S
C1249 C1250 1.434 . S
C1250 C1241 1.429 1_554 S
C1250 N1247 1.350 . S
C1250 C1249 1.434 . S
C1251 C1252 1.369 . S
C1251 C1253 1.419 . S
C1251 H1255 0.930 . S
C1252 C1251 1.369 . S
C1252 C1261 1.429 . S
C1253 C1251 1.419 . S
C1253 C1254 1.363 . S
C1253 H1256 0.929 . S
C1254 C1253 1.363 . S
C1254 C1260 1.428 . S
H1255 C1251 0.930 . S
H1256 C1253 0.929 . S
S1257 N1258 1.613 . S
S1257 N1259 1.610 . S
N1258 S1257 1.613 . S
N1258 C1261 1.350 . S
N1259 S1257 1.610 . S
N1259 C1260 1.351 . S
C1260 C1254 1.428 . S
C1260 N1259 1.351 . S
C1260 C1261 1.434 . S
C1261 C1252 1.429 . S
C1261 N1258 1.350 . S
C1261 C1260 1.434 . S
C1262 C1263 1.369 . S
C1262 C1264 1.419 . S
C1262 H1266 0.930 . S
C1263 C1262 1.369 . S
C1263 C1272 1.429 . S
C1264 C1262 1.419 . S
C1264 C1265 1.363 . S
C1264 H1267 0.929 . S
C1265 C1264 1.363 . S
C1265 C1271 1.428 . S
H1266 C1262 0.930 . S
H1267 C1264 0.929 . S
S1268 N1269 1.613 . S
S1268 N1270 1.610 . S
N1269 S1268 1.613 . S
N1269 C1272 1.350 . S
N1270 S1268 1.610 . S
N1270 C1271 1.351 . S
C1271 C1265 1.428 . S
C1271 N1270 1.351 . S
C1271 C1272 1.434 . S
C1272 C1263 1.429 . S
C1272 N1269 1.350 . S
C1272 C1271 1.434 . S
C1273 C1274 1.369 . S
C1273 C1275 1.419 . S
C1273 H1277 0.930 . S
C1274 C1273 1.369 . S
C1274 C1283 1.429 . S
C1275 C1273 1.419 . S
C1275 C1276 1.363 . S
C1275 H1278 0.929 . S
C1276 C1275 1.363 . S
C1276 C1282 1.428 . S
H1277 C1273 0.930 . S
H1278 C1275 0.929 . S
S1279 N1280 1.613 . S
S1279 N1281 1.610 . S
N1280 S1279 1.613 . S
N1280 C1283 1.350 . S
N1281 S1279 1.610 . S
N1281 C1282 1.351 . S
C1282 C1276 1.428 . S
C1282 N1281 1.351 . S
C1282 C1283 1.434 . S
C1283 C1274 1.429 . S
C1283 N1280 1.350 . S
C1283 C1282 1.434 . S
C1284 C1285 1.369 . S
C1284 C1286 1.419 . S
C1284 H1288 0.930 . S
C1285 C1284 1.369 . S
C1285 C1294 1.429 . S
C1286 C1284 1.419 . S
C1286 C1287 1.363 . S
C1286 H1289 0.929 . S
C1287 C1286 1.363 . S
C1287 C1293 1.428 . S
H1288 C1284 0.930 . S
H1289 C1286 0.929 . S
S1290 N1291 1.613 . S
S1290 N1292 1.610 . S
N1291 S1290 1.613 . S
N1291 C1294 1.350 . S
N1292 S1290 1.610 . S
N1292 C1293 1.351 . S
C1293 C1287 1.428 . S
C1293 N1292 1.351 . S
C1293 C1294 1.434 . S
C1294 C1285 1.429 . S
C1294 N1291 1.350 . S
C1294 C1293 1.434 . S
C1295 C1296 1.369 . S
C1295 C1297 1.419 . S
C1295 H1299 0.930 . S
C1296 C1295 1.369 . S
C1296 C1305 1.429 . S
C1297 C1295 1.419 . S
C1297 C1298 1.363 . S
C1297 H1300 0.929 . S
C1298 C1297 1.363 . S
C1298 C1304 1.428 . S
H1299 C1295 0.930 . S
H1300 C1297 0.929 . S
S1301 N1302 1.613 . S
S1301 N1303 1.610 . S
N1302 S1301 1.613 . S
N1302 C1305 1.350 . S
N1303 S1301 1.610 . S
N1303 C1304 1.351 . S
C1304 C1298 1.428 . S
C1304 N1303 1.351 . S
C1304 C1305 1.434 . S
C1305 C1296 1.429 . S
C1305 N1302 1.350 . S
C1305 C1304 1.434 . S
C1306 C1307 1.369 . S
C1306 C1308 1.419 . S
C1306 H1310 0.930 . S
C1307 C1306 1.369 . S
C1307 C1316 1.429 . S
C1308 C1306 1.419 . S
C1308 C1309 1.363 . S
C1308 H1311 0.929 . S
C1309 C1308 1.363 . S
C1309 C1315 1.428 . S
H1310 C1306 0.930 . S
H1311 C1308 0.929 . S
S1312 N1313 1.613 . S
S1312 N1314 1.610 . S
N1313 S1312 1.613 . S
N1313 C1316 1.350 . S
N1314 S1312 1.610 . S
N1314 C1315 1.351 . S
C1315 C1309 1.428 . S
C1315 N1314 1.351 . S
C1315 C1316 1.434 . S
C1316 C1307 1.429 . S
C1316 N1313 1.350 . S
C1316 C1315 1.434 . S
C1317 C1318 1.369 . S
C1317 C1319 1.419 . S
C1317 H1321 0.930 . S
C1318 C1317 1.369 . S
C1318 C1327 1.429 . S
C1319 C1317 1.419 . S
C1319 C1320 1.363 . S
C1319 H1322 0.929 . S
C1320 C1319 1.363 . S
C1320 C1326 1.428 . S
H1321 C1317 0.930 . S
H1322 C1319 0.929 . S
S1323 N1324 1.613 . S
S1323 N1325 1.610 . S
N1324 S1323 1.613 . S
N1324 C1327 1.350 . S
N1325 S1323 1.610 . S
N1325 C1326 1.351 . S
C1326 C1320 1.428 . S
C1326 N1325 1.351 . S
C1326 C1327 1.434 . S
C1327 C1318 1.429 . S
C1327 N1324 1.350 . S
C1327 C1326 1.434 . S
C1328 C1329 1.369 . S
C1328 C1330 1.419 . S
C1328 H1332 0.930 . S
C1329 C1328 1.369 . S
C1329 C1338 1.429 . S
C1330 C1328 1.419 . S
C1330 C1331 1.363 . S
C1330 H1333 0.929 . S
C1331 C1330 1.363 . S
C1331 C1337 1.428 . S
H1332 C1328 0.930 . S
H1333 C1330 0.929 . S
S1334 N1335 1.613 . S
S1334 N1336 1.610 . S
N1335 S1334 1.613 . S
N1335 C1338 1.350 . S
N1336 S1334 1.610 . S
N1336 C1337 1.351 . S
C1337 C1331 1.428 . S
C1337 N1336 1.351 . S
C1337 C1338 1.434 . S
C1338 C1329 1.429 . S
C1338 N1335 1.350 . S
C1338 C1337 1.434 . S
C1339 C1340 1.369 . S
C1339 C1341 1.419 . S
C1339 H1343 0.930 . S
C1340 C1339 1.369 . S
C1340 C1349 1.429 . S
C1341 C1339 1.419 . S
C1341 C1342 1.363 . S
C1341 H1344 0.929 . S
C1342 C1341 1.363 . S
C1342 C1348 1.428 . S
H1343 C1339 0.930 . S
H1344 C1341 0.929 . S
S1345 N1346 1.613 . S
S1345 N1347 1.610 . S
N1346 S1345 1.613 . S
N1346 C1349 1.350 . S
N1347 S1345 1.610 . S
N1347 C1348 1.351 . S
C1348 C1342 1.428 . S
C1348 N1347 1.351 . S
C1348 C1349 1.434 . S
C1349 C1340 1.429 . S
C1349 N1346 1.350 . S
C1349 C1348 1.434 . S
C1350 C1351 1.369 . S
C1350 C1352 1.419 . S
C1350 H1354 0.930 . S
C1351 C1350 1.369 . S
C1351 C1360 1.429 . S
C1352 C1350 1.419 . S
C1352 C1353 1.363 . S
C1352 H1355 0.929 . S
C1353 C1352 1.363 . S
C1353 C1359 1.428 . S
H1354 C1350 0.930 . S
H1355 C1352 0.929 . S
S1356 N1357 1.613 . S
S1356 N1358 1.610 . S
N1357 S1356 1.613 . S
N1357 C1360 1.350 . S
N1358 S1356 1.610 . S
N1358 C1359 1.351 . S
C1359 C1353 1.428 . S
C1359 N1358 1.351 . S
C1359 C1360 1.434 . S
C1360 C1351 1.429 . S
C1360 N1357 1.350 . S
C1360 C1359 1.434 . S
C1361 C1362 1.369 . S
C1361 C1363 1.419 . S
C1361 H1365 0.930 . S
C1362 C1361 1.369 . S
C1362 C1371 1.429 . S
C1363 C1361 1.419 . S
C1363 C1364 1.363 . S
C1363 H1366 0.929 . S
C1364 C1363 1.363 . S
C1364 C1370 1.428 . S
H1365 C1361 0.930 . S
H1366 C1363 0.929 . S
S1367 N1368 1.613 . S
S1367 N1369 1.610 . S
N1368 S1367 1.613 . S
N1368 C1371 1.350 . S
N1369 S1367 1.610 . S
N1369 C1370 1.351 . S
C1370 C1364 1.428 . S
C1370 N1369 1.351 . S
C1370 C1371 1.434 . S
C1371 C1362 1.429 . S
C1371 N1368 1.350 . S
C1371 C1370 1.434 . S
C1372 C1373 1.369 . S
C1372 C1374 1.419 . S
C1372 H1376 0.930 . S
C1373 C1372 1.369 . S
C1373 C1382 1.429 . S
C1374 C1372 1.419 . S
C1374 C1375 1.363 . S
C1374 H1377 0.929 . S
C1375 C1374 1.363 . S
C1375 C1381 1.428 . S
H1376 C1372 0.930 . S
H1377 C1374 0.929 . S
S1378 N1379 1.613 . S
S1378 N1380 1.610 . S
N1379 S1378 1.613 . S
N1379 C1382 1.350 . S
N1380 S1378 1.610 . S
N1380 C1381 1.351 . S
C1381 C1375 1.428 . S
C1381 N1380 1.351 . S
C1381 C1382 1.434 . S
C1382 C1373 1.429 . S
C1382 N1379 1.350 . S
C1382 C1381 1.434 . S
C1383 C1384 1.369 . S
C1383 C1385 1.419 . S
C1383 H1387 0.930 . S
C1384 C1383 1.369 . S
C1384 C1393 1.429 . S
C1385 C1383 1.419 . S
C1385 C1386 1.363 . S
C1385 H1388 0.929 . S
C1386 C1385 1.363 . S
C1386 C1392 1.428 . S
H1387 C1383 0.930 . S
H1388 C1385 0.929 . S
S1389 N1390 1.613 . S
S1389 N1391 1.610 . S
N1390 S1389 1.613 . S
N1390 C1393 1.350 . S
N1391 S1389 1.610 . S
N1391 C1392 1.351 . S
C1392 C1386 1.428 . S
C1392 N1391 1.351 . S
C1392 C1393 1.434 . S
C1393 C1384 1.429 . S
C1393 N1390 1.350 . S
C1393 C1392 1.434 . S
C1394 C1395 1.369 . S
C1394 C1396 1.419 . S
C1394 H1398 0.930 . S
C1395 C1394 1.369 . S
C1395 C1404 1.429 . S
C1396 C1394 1.419 . S
C1396 C1397 1.363 . S
C1396 H1399 0.929 . S
C1397 C1396 1.363 . S
C1397 C1403 1.428 . S
H1398 C1394 0.930 . S
H1399 C1396 0.929 . S
S1400 N1401 1.613 . S
S1400 N1402 1.610 . S
N1401 S1400 1.613 . S
N1401 C1404 1.350 . S
N1402 S1400 1.610 . S
N1402 C1403 1.351 . S
C1403 C1397 1.428 . S
C1403 N1402 1.351 . S
C1403 C1404 1.434 . S
C1404 C1395 1.429 . S
C1404 N1401 1.350 . S
C1404 C1403 1.434 . S
C1405 C1406 1.369 . S
C1405 C1407 1.419 . S
C1405 H1409 0.930 . S
C1406 C1405 1.369 . S
C1406 C1415 1.429 . S
C1407 C1405 1.419 . S
C1407 C1408 1.363 . S
C1407 H1410 0.929 . S
C1408 C1407 1.363 . S
C1408 C1414 1.428 . S
H1409 C1405 0.930 . S
H1410 C1407 0.929 . S
S1411 N1412 1.613 . S
S1411 N1413 1.610 . S
N1412 S1411 1.613 . S
N1412 C1415 1.350 . S
N1413 S1411 1.610 . S
N1413 C1414 1.351 . S
C1414 C1408 1.428 . S
C1414 N1413 1.351 . S
C1414 C1415 1.434 . S
C1415 C1406 1.429 . S
C1415 N1412 1.350 . S
C1415 C1414 1.434 . S
C1416 C1417 1.369 . S
C1416 C1418 1.419 . S
C1416 H1420 0.930 . S
C1417 C1416 1.369 . S
C1417 C1426 1.429 . S
C1418 C1416 1.419 . S
C1418 C1419 1.363 . S
C1418 H1421 0.929 . S
C1419 C1418 1.363 . S
C1419 C1425 1.428 . S
H1420 C1416 0.930 . S
H1421 C1418 0.929 . S
S1422 N1423 1.613 . S
S1422 N1424 1.610 . S
N1423 S1422 1.613 . S
N1423 C1426 1.350 . S
N1424 S1422 1.610 . S
N1424 C1425 1.351 . S
C1425 C1419 1.428 . S
C1425 N1424 1.351 . S
C1425 C1426 1.434 . S
C1426 C1417 1.429 . S
C1426 N1423 1.350 . S
C1426 C1425 1.434 . S
C1427 C1428 1.369 . S
C1427 C1429 1.419 . S
C1427 H1431 0.930 . S
C1428 C1427 1.369 . S
C1428 C1437 1.429 . S
C1429 C1427 1.419 . S
C1429 C1430 1.363 . S
C1429 H1432 0.929 . S
C1430 C1429 1.363 . S
C1430 C1436 1.428 . S
H1431 C1427 0.930 . S
H1432 C1429 0.929 . S
S1433 N1434 1.613 . S
S1433 N1435 1.610 . S
N1434 S1433 1.613 . S
N1434 C1437 1.350 . S
N1435 S1433 1.610 . S
N1435 C1436 1.351 . S
C1436 C1430 1.428 . S
C1436 N1435 1.351 . S
C1436 C1437 1.434 . S
C1437 C1428 1.429 . S
C1437 N1434 1.350 . S
C1437 C1436 1.434 . S
C1438 C1439 1.369 . S
C1438 C1440 1.419 . S
C1438 H1442 0.930 . S
C1439 C1438 1.369 . S
C1439 C1448 1.429 . S
C1440 C1438 1.419 . S
C1440 C1441 1.363 . S
C1440 H1443 0.929 . S
C1441 C1440 1.363 . S
C1441 C1447 1.428 . S
H1442 C1438 0.930 . S
H1443 C1440 0.929 . S
S1444 N1445 1.613 . S
S1444 N1446 1.610 . S
N1445 S1444 1.613 . S
N1445 C1448 1.350 . S
N1446 S1444 1.610 . S
N1446 C1447 1.351 . S
C1447 C1441 1.428 . S
C1447 N1446 1.351 . S
C1447 C1448 1.434 . S
C1448 C1439 1.429 . S
C1448 N1445 1.350 . S
C1448 C1447 1.434 . S
C1449 C1450 1.369 . S
C1449 C1451 1.419 . S
C1449 H1453 0.930 . S
C1450 C1449 1.369 . S
C1450 C1459 1.429 . S
C1451 C1449 1.419 . S
C1451 C1452 1.363 . S
C1451 H1454 0.929 . S
C1452 C1451 1.363 . S
C1452 C1458 1.428 . S
H1453 C1449 0.930 . S
H1454 C1451 0.929 . S
S1455 N1456 1.613 . S
S1455 N1457 1.610 . S
N1456 S1455 1.613 . S
N1456 C1459 1.350 . S
N1457 S1455 1.610 . S
N1457 C1458 1.351 . S
C1458 C1452 1.428 . S
C1458 N1457 1.351 . S
C1458 C1459 1.434 . S
C1459 C1450 1.429 . S
C1459 N1456 1.350 . S
C1459 C1458 1.434 . S
C1460 C1461 1.369 . S
C1460 C1462 1.419 . S
C1460 H1464 0.930 . S
C1461 C1460 1.369 . S
C1461 C1470 1.429 . S
C1462 C1460 1.419 . S
C1462 C1463 1.363 . S
C1462 H1465 0.929 . S
C1463 C1462 1.363 . S
C1463 C1469 1.428 . S
H1464 C1460 0.930 . S
H1465 C1462 0.929 . S
S1466 N1467 1.613 . S
S1466 N1468 1.610 . S
N1467 S1466 1.613 . S
N1467 C1470 1.350 . S
N1468 S1466 1.610 . S
N1468 C1469 1.351 . S
C1469 C1463 1.428 . S
C1469 N1468 1.351 . S
C1469 C1470 1.434 . S
C1470 C1461 1.429 . S
C1470 N1467 1.350 . S
C1470 C1469 1.434 . S
C1471 C1472 1.369 . S
C1471 C1473 1.419 . S
C1471 H1475 0.930 . S
C1472 C1471 1.369 . S
C1472 C1481 1.429 . S
C1473 C1471 1.419 . S
C1473 C1474 1.363 . S
C1473 H1476 0.929 . S
C1474 C1473 1.363 . S
C1474 C1480 1.428 . S
H1475 C1471 0.930 . S
H1476 C1473 0.929 . S
S1477 N1478 1.613 . S
S1477 N1479 1.610 . S
N1478 S1477 1.613 . S
N1478 C1481 1.350 . S
N1479 S1477 1.610 . S
N1479 C1480 1.351 . S
C1480 C1474 1.428 . S
C1480 N1479 1.351 . S
C1480 C1481 1.434 . S
C1481 C1472 1.429 . S
C1481 N1478 1.350 . S
C1481 C1480 1.434 . S
C1482 C1483 1.369 . S
C1482 C1484 1.419 . S
C1482 H1486 0.930 . S
C1483 C1482 1.369 . S
C1483 C1492 1.429 . S
C1484 C1482 1.419 . S
C1484 C1485 1.363 . S
C1484 H1487 0.929 . S
C1485 C1484 1.363 . S
C1485 C1491 1.428 . S
H1486 C1482 0.930 . S
H1487 C1484 0.929 . S
S1488 N1489 1.613 . S
S1488 N1490 1.610 . S
N1489 S1488 1.613 . S
N1489 C1492 1.350 . S
N1490 S1488 1.610 . S
N1490 C1491 1.351 . S
C1491 C1485 1.428 . S
C1491 N1490 1.351 . S
C1491 C1492 1.434 . S
C1492 C1483 1.429 . S
C1492 N1489 1.350 . S
C1492 C1491 1.434 . S
C1493 C1494 1.369 . S
C1493 C1495 1.419 . S
C1493 H1497 0.930 . S
C1494 C1493 1.369 . S
C1494 C1503 1.429 . S
C1495 C1493 1.419 . S
C1495 C1496 1.363 . S
C1495 H1498 0.929 . S
C1496 C1495 1.363 . S
C1496 C1502 1.428 . S
H1497 C1493 0.930 . S
H1498 C1495 0.929 . S
S1499 N1500 1.613 . S
S1499 N1501 1.610 . S
N1500 S1499 1.613 . S
N1500 C1503 1.350 . S
N1501 S1499 1.610 . S
N1501 C1502 1.351 . S
C1502 C1496 1.428 . S
C1502 N1501 1.351 . S
C1502 C1503 1.434 . S
C1503 C1494 1.429 . S
C1503 N1500 1.350 . S
C1503 C1502 1.434 . S
C1504 C1505 1.369 . S
C1504 C1506 1.419 . S
C1504 H1508 0.930 . S
C1505 C1504 1.369 . S
C1505 C1514 1.429 . S
C1506 C1504 1.419 . S
C1506 C1507 1.363 . S
C1506 H1509 0.929 . S
C1507 C1506 1.363 . S
C1507 C1513 1.428 . S
H1508 C1504 0.930 . S
H1509 C1506 0.929 . S
S1510 N1511 1.613 . S
S1510 N1512 1.610 . S
N1511 S1510 1.613 . S
N1511 C1514 1.350 . S
N1512 S1510 1.610 . S
N1512 C1513 1.351 . S
C1513 C1507 1.428 . S
C1513 N1512 1.351 . S
C1513 C1514 1.434 . S
C1514 C1505 1.429 . S
C1514 N1511 1.350 . S
C1514 C1513 1.434 . S
C1515 C1516 1.369 . S
C1515 C1517 1.419 . S
C1515 H1519 0.930 . S
C1516 C1515 1.369 . S
C1516 C1525 1.429 . S
C1517 C1515 1.419 . S
C1517 C1518 1.363 . S
C1517 H1520 0.929 . S
C1518 C1517 1.363 . S
C1518 C1524 1.428 . S
H1519 C1515 0.930 . S
H1520 C1517 0.929 . S
S1521 N1522 1.613 . S
S1521 N1523 1.610 . S
N1522 S1521 1.613 . S
N1522 C1525 1.350 . S
N1523 S1521 1.610 . S
N1523 C1524 1.351 . S
C1524 C1518 1.428 . S
C1524 N1523 1.351 . S
C1524 C1525 1.434 . S
C1525 C1516 1.429 . S
C1525 N1522 1.350 . S
C1525 C1524 1.434 . S
C1526 C1527 1.369 . S
C1526 C1528 1.419 . S
C1526 H1530 0.930 . S
C1527 C1526 1.369 . S
C1527 C1536 1.429 . S
C1528 C1526 1.419 . S
C1528 C1529 1.363 . S
C1528 H1531 0.929 . S
C1529 C1528 1.363 . S
C1529 C1535 1.428 . S
H1530 C1526 0.930 . S
H1531 C1528 0.929 . S
S1532 N1533 1.613 . S
S1532 N1534 1.610 . S
N1533 S1532 1.613 . S
N1533 C1536 1.350 . S
N1534 S1532 1.610 . S
N1534 C1535 1.351 . S
C1535 C1529 1.428 . S
C1535 N1534 1.351 . S
C1535 C1536 1.434 . S
C1536 C1527 1.429 . S
C1536 N1533 1.350 . S
C1536 C1535 1.434 . S
C1537 C1538 1.369 . S
C1537 C1539 1.419 . S
C1537 H1541 0.930 . S
C1538 C1537 1.369 . S
C1538 C1547 1.429 . S
C1539 C1537 1.419 . S
C1539 C1540 1.363 . S
C1539 H1542 0.929 . S
C1540 C1539 1.363 . S
C1540 C1546 1.428 . S
H1541 C1537 0.930 . S
H1542 C1539 0.929 . S
S1543 N1544 1.613 . S
S1543 N1545 1.610 . S
N1544 S1543 1.613 . S
N1544 C1547 1.350 . S
N1545 S1543 1.610 . S
N1545 C1546 1.351 . S
C1546 C1540 1.428 . S
C1546 N1545 1.351 . S
C1546 C1547 1.434 . S
C1547 C1538 1.429 . S
C1547 N1544 1.350 . S
C1547 C1546 1.434 . S
C1548 C1549 1.369 . S
C1548 C1550 1.419 . S
C1548 H1552 0.930 . S
C1549 C1548 1.369 . S
C1549 C1558 1.429 . S
C1550 C1548 1.419 . S
C1550 C1551 1.363 . S
C1550 H1553 0.929 . S
C1551 C1550 1.363 . S
C1551 C1557 1.428 . S
H1552 C1548 0.930 . S
H1553 C1550 0.929 . S
S1554 N1555 1.613 . S
S1554 N1556 1.610 . S
N1555 S1554 1.613 . S
N1555 C1558 1.350 . S
N1556 S1554 1.610 . S
N1556 C1557 1.351 . S
C1557 C1551 1.428 . S
C1557 N1556 1.351 . S
C1557 C1558 1.434 . S
C1558 C1549 1.429 . S
C1558 N1555 1.350 . S
C1558 C1557 1.434 . S
C1559 C1560 1.369 . S
C1559 C1561 1.419 . S
C1559 H1563 0.930 . S
C1560 C1559 1.369 . S
C1560 C1569 1.429 . S
C1561 C1559 1.419 . S
C1561 C1562 1.363 . S
C1561 H1564 0.929 . S
C1562 C1561 1.363 . S
C1562 C1568 1.428 . S
H1563 C1559 0.930 . S
H1564 C1561 0.929 . S
S1565 N1566 1.613 . S
S1565 N1567 1.610 . S
N1566 S1565 1.613 . S
N1566 C1569 1.350 . S
N1567 S1565 1.610 . S
N1567 C1568 1.351 . S
C1568 C1562 1.428 . S
C1568 N1567 1.351 . S
C1568 C1569 1.434 . S
C1569 C1560 1.429 . S
C1569 N1566 1.350 . S
C1569 C1568 1.434 . S
C1570 C1571 1.369 . S
C1570 C1572 1.419 . S
C1570 H1574 0.930 . S
C1571 C1570 1.369 . S
C1571 C1580 1.429 . S
C1572 C1570 1.419 . S
C1572 C1573 1.363 . S
C1572 H1575 0.929 . S
C1573 C1572 1.363 . S
C1573 C1579 1.428 . S
H1574 C1570 0.930 . S
H1575 C1572 0.929 . S
S1576 N1577 1.613 . S
S1576 N1578 1.610 . S
N1577 S1576 1.613 . S
N1577 C1580 1.350 . S
N1578 S1576 1.610 . S
N1578 C1579 1.351 . S
C1579 C1573 1.428 . S
C1579 N1578 1.351 . S
C1579 C1580 1.434 . S
C1580 C1571 1.429 . S
C1580 N1577 1.350 . S
C1580 C1579 1.434 . S
C1581 C1582 1.369 . S
C1581 C1583 1.419 . S
C1581 H1585 0.930 . S
C1582 C1581 1.369 . S
C1582 C1591 1.429 . S
C1583 C1581 1.419 . S
C1583 C1584 1.363 . S
C1583 H1586 0.929 . S
C1584 C1583 1.363 . S
C1584 C1590 1.428 . S
H1585 C1581 0.930 . S
H1586 C1583 0.929 . S
S1587 N1588 1.613 . S
S1587 N1589 1.610 . S
N1588 S1587 1.613 . S
N1588 C1591 1.350 . S
N1589 S1587 1.610 . S
N1589 C1590 1.351 . S
C1590 C1584 1.428 . S
C1590 N1589 1.351 . S
C1590 C1591 1.434 . S
C1591 C1582 1.429 . S
C1591 N1588 1.350 . S
C1591 C1590 1.434 . S
C1592 C1593 1.369 . S
C1592 C1594 1.419 . S
C1592 H1596 0.930 . S
C1593 C1592 1.369 . S
C1593 C1602 1.429 . S
C1594 C1592 1.419 . S
C1594 C1595 1.363 . S
C1594 H1597 0.929 . S
C1595 C1594 1.363 . S
C1595 C1601 1.428 . S
H1596 C1592 0.930 . S
H1597 C1594 0.929 . S
S1598 N1599 1.613 . S
S1598 N1600 1.610 . S
N1599 S1598 1.613 . S
N1599 C1602 1.350 . S
N1600 S1598 1.610 . S
N1600 C1601 1.351 . S
C1601 C1595 1.428 . S
C1601 N1600 1.351 . S
C1601 C1602 1.434 . S
C1602 C1593 1.429 . S
C1602 N1599 1.350 . S
C1602 C1601 1.434 . S
C1603 C1604 1.369 . S
C1603 C1605 1.419 . S
C1603 H1607 0.930 . S
C1604 C1603 1.369 . S
C1604 C1613 1.429 . S
C1605 C1603 1.419 . S
C1605 C1606 1.363 . S
C1605 H1608 0.929 . S
C1606 C1605 1.363 . S
C1606 C1612 1.428 . S
H1607 C1603 0.930 . S
H1608 C1605 0.929 . S
S1609 N1610 1.613 . S
S1609 N1611 1.610 . S
N1610 S1609 1.613 . S
N1610 C1613 1.350 . S
N1611 S1609 1.610 . S
N1611 C1612 1.351 . S
C1612 C1606 1.428 . S
C1612 N1611 1.351 . S
C1612 C1613 1.434 . S
C1613 C1604 1.429 . S
C1613 N1610 1.350 . S
C1613 C1612 1.434 . S
C1614 C1615 1.369 . S
C1614 C1616 1.419 . S
C1614 H1618 0.930 . S
C1615 C1614 1.369 . S
C1615 C1624 1.429 . S
C1616 C1614 1.419 . S
C1616 C1617 1.363 . S
C1616 H1619 0.929 . S
C1617 C1616 1.363 . S
C1617 C1623 1.428 . S
H1618 C1614 0.930 . S
H1619 C1616 0.929 . S
S1620 N1621 1.613 . S
S1620 N1622 1.610 . S
N1621 S1620 1.613 . S
N1621 C1624 1.350 . S
N1622 S1620 1.610 . S
N1622 C1623 1.351 . S
C1623 C1617 1.428 . S
C1623 N1622 1.351 . S
C1623 C1624 1.434 . S
C1624 C1615 1.429 . S
C1624 N1621 1.350 . S
C1624 C1623 1.434 . S
C1625 C1626 1.369 . S
C1625 C1627 1.419 . S
C1625 H1629 0.930 . S
C1626 C1625 1.369 . S
C1626 C1635 1.429 . S
C1627 C1625 1.419 . S
C1627 C1628 1.363 . S
C1627 H1630 0.929 . S
C1628 C1627 1.363 . S
C1628 C1634 1.428 . S
H1629 C1625 0.930 . S
H1630 C1627 0.929 . S
S1631 N1632 1.613 . S
S1631 N1633 1.610 . S
N1632 S1631 1.613 . S
N1632 C1635 1.350 . S
N1633 S1631 1.610 . S
N1633 C1634 1.351 . S
C1634 C1628 1.428 . S
C1634 N1633 1.351 . S
C1634 C1635 1.434 . S
C1635 C1626 1.429 . S
C1635 N1632 1.350 . S
C1635 C1634 1.434 . S
C1636 C1637 1.369 . S
C1636 C1638 1.419 . S
C1636 H1640 0.930 . S
C1637 C1636 1.369 . S
C1637 C1646 1.429 . S
C1638 C1636 1.419 . S
C1638 C1639 1.363 . S
C1638 H1641 0.929 . S
C1639 C1638 1.363 . S
C1639 C1645 1.428 . S
H1640 C1636 0.930 . S
H1641 C1638 0.929 . S
S1642 N1643 1.613 . S
S1642 N1644 1.610 . S
N1643 S1642 1.613 . S
N1643 C1646 1.350 . S
N1644 S1642 1.610 . S
N1644 C1645 1.351 . S
C1645 C1639 1.428 . S
C1645 N1644 1.351 . S
C1645 C1646 1.434 . S
C1646 C1637 1.429 . S
C1646 N1643 1.350 . S
C1646 C1645 1.434 . S
C1647 C1648 1.369 . S
C1647 C1649 1.419 . S
C1647 H1651 0.930 . S
C1648 C1647 1.369 . S
C1648 C1657 1.429 . S
C1649 C1647 1.419 . S
C1649 C1650 1.363 . S
C1649 H1652 0.929 . S
C1650 C1649 1.363 . S
C1650 C1656 1.428 . S
H1651 C1647 0.930 . S
H1652 C1649 0.929 . S
S1653 N1654 1.613 . S
S1653 N1655 1.610 . S
N1654 S1653 1.613 . S
N1654 C1657 1.350 . S
N1655 S1653 1.610 . S
N1655 C1656 1.351 . S
C1656 C1650 1.428 . S
C1656 N1655 1.351 . S
C1656 C1657 1.434 . S
C1657 C1648 1.429 . S
C1657 N1654 1.350 . S
C1657 C1656 1.434 . S
C1658 C1659 1.369 . S
C1658 C1660 1.419 . S
C1658 H1662 0.930 . S
C1659 C1658 1.369 . S
C1659 C1668 1.429 . S
C1660 C1658 1.419 . S
C1660 C1661 1.363 . S
C1660 H1663 0.929 . S
C1661 C1660 1.363 . S
C1661 C1667 1.428 . S
H1662 C1658 0.930 . S
H1663 C1660 0.929 . S
S1664 N1665 1.613 . S
S1664 N1666 1.610 . S
N1665 S1664 1.613 . S
N1665 C1668 1.350 . S
N1666 S1664 1.610 . S
N1666 C1667 1.351 . S
C1667 C1661 1.428 . S
C1667 N1666 1.351 . S
C1667 C1668 1.434 . S
C1668 C1659 1.429 . S
C1668 N1665 1.350 . S
C1668 C1667 1.434 . S
C1669 C1670 1.369 . S
C1669 C1671 1.419 . S
C1669 H1673 0.930 . S
C1670 C1669 1.369 . S
C1670 C1679 1.429 . S
C1671 C1669 1.419 . S
C1671 C1672 1.363 . S
C1671 H1674 0.929 . S
C1672 C1671 1.363 . S
C1672 C1678 1.428 . S
H1673 C1669 0.930 . S
H1674 C1671 0.929 . S
S1675 N1676 1.613 . S
S1675 N1677 1.610 . S
N1676 S1675 1.613 . S
N1676 C1679 1.350 . S
N1677 S1675 1.610 . S
N1677 C1678 1.351 . S
C1678 C1672 1.428 . S
C1678 N1677 1.351 . S
C1678 C1679 1.434 . S
C1679 C1670 1.429 . S
C1679 N1676 1.350 . S
C1679 C1678 1.434 . S
C1680 C1681 1.378 1_655 S
C1680 C1682 1.419 . S
C1680 H1684 0.930 . S
C1681 C1680 1.378 1_455 S
C1681 C1690 1.439 . S
C1682 C1680 1.419 . S
C1682 C1683 1.368 . S
C1682 H1685 0.929 . S
C1683 C1682 1.368 . S
C1683 C1689 1.432 1_655 S
H1684 C1680 0.930 . S
H1685 C1682 0.929 . S
S1686 N1687 1.613 . S
S1686 N1688 1.610 . S
N1687 S1686 1.613 . S
N1687 C1690 1.350 . S
N1688 S1686 1.610 . S
N1688 C1689 1.351 . S
C1689 C1683 1.432 1_455 S
C1689 N1688 1.351 . S
C1689 C1690 1.434 . S
C1690 C1681 1.439 . S
C1690 N1687 1.350 . S
C1690 C1689 1.434 . S
C1691 C1692 1.369 . S
C1691 C1693 1.419 . S
C1691 H1695 0.930 . S
C1692 C1691 1.369 . S
C1692 C1701 1.429 . S
C1693 C1691 1.419 . S
C1693 C1694 1.363 . S
C1693 H1696 0.929 . S
C1694 C1693 1.363 . S
C1694 C1700 1.428 . S
H1695 C1691 0.930 . S
H1696 C1693 0.929 . S
S1697 N1698 1.613 . S
S1697 N1699 1.610 . S
N1698 S1697 1.613 . S
N1698 C1701 1.350 . S
N1699 S1697 1.610 . S
N1699 C1700 1.351 . S
C1700 C1694 1.428 . S
C1700 N1699 1.351 . S
C1700 C1701 1.434 . S
C1701 C1692 1.429 . S
C1701 N1698 1.350 . S
C1701 C1700 1.434 . S
C1702 C1703 1.358 . S
C1702 C1704 1.419 . S
C1702 H1706 0.930 . S
C1703 C1702 1.358 . S
C1703 C1712 1.420 1_565 S
C1704 C1702 1.419 . S
C1704 C1705 1.360 1_565 S
C1704 H1707 0.929 . S
C1705 C1704 1.360 1_545 S
C1705 C1711 1.421 . S
H1706 C1702 0.930 . S
H1707 C1704 0.929 . S
S1708 N1709 1.625 . S
S1708 N1710 1.610 . S
N1709 S1708 1.625 . S
N1709 C1712 1.349 . S
N1710 S1708 1.610 . S
N1710 C1711 1.351 . S
C1711 C1705 1.421 . S
C1711 N1710 1.351 . S
C1711 C1712 1.456 . S
C1712 C1703 1.420 1_545 S
C1712 N1709 1.349 . S
C1712 C1711 1.456 . S
C1713 C1714 1.348 1_565 S
C1713 C1715 1.419 1_554 S
C1713 H1717 0.930 . S
C1714 C1713 1.348 1_545 S
C1714 C1723 1.472 . S
C1715 C1713 1.419 1_556 S
C1715 C1716 1.375 . S
C1715 H1718 0.929 . S
C1716 C1715 1.375 . S
C1716 C1722 1.422 1_565 S
H1717 C1713 0.930 . S
H1718 C1715 0.929 . S
S1719 N1720 1.613 . S
S1719 N1721 1.610 1_554 S
N1720 S1719 1.613 . S
N1720 C1723 1.350 . S
N1721 S1719 1.610 1_556 S
N1721 C1722 1.351 . S
C1722 C1716 1.422 1_545 S
C1722 N1721 1.351 . S
C1722 C1723 1.434 1_556 S
C1723 C1714 1.472 . S
C1723 N1720 1.350 . S
C1723 C1722 1.434 1_554 S
C1724 C1725 1.326 1_655 S
C1724 C1726 1.419 1_556 S
C1724 H1728 0.930 . S
C1725 C1724 1.326 1_455 S
C1725 C1734 1.451 . S
C1726 C1724 1.419 1_554 S
C1726 C1727 1.368 . S
C1726 H1729 0.929 . S
C1727 C1726 1.368 . S
C1727 C1733 1.417 1_655 S
H1728 C1724 0.930 . S
H1729 C1726 0.929 . S
S1730 N1731 1.613 1_554 S
S1730 N1732 1.610 . S
N1731 S1730 1.613 1_556 S
N1731 C1734 1.350 . S
N1732 S1730 1.610 . S
N1732 C1733 1.351 . S
C1733 C1727 1.417 1_455 S
C1733 N1732 1.351 . S
C1733 C1734 1.434 1_554 S
C1734 C1725 1.451 . S
C1734 N1731 1.350 . S
C1734 C1733 1.434 1_556 S
C1735 C1736 1.369 1_556 S
C1735 C1737 1.419 . S
C1735 H1739 0.930 . S
C1736 C1735 1.369 1_554 S
C1736 C1745 1.429 . S
C1737 C1735 1.419 . S
C1737 C1738 1.363 . S
C1737 H1740 0.929 . S
C1738 C1737 1.363 . S
C1738 C1744 1.428 1_556 S
H1739 C1735 0.930 . S
H1740 C1737 0.929 . S
S1741 N1742 1.613 . S
S1741 N1743 1.610 . S
N1742 S1741 1.613 . S
N1742 C1745 1.350 . S
N1743 S1741 1.610 . S
N1743 C1744 1.351 . S
C1744 C1738 1.428 1_554 S
C1744 N1743 1.351 . S
C1744 C1745 1.434 . S
C1745 C1736 1.429 . S
C1745 N1742 1.350 . S
C1745 C1744 1.434 . S
C1746 C1747 1.369 . S
C1746 C1748 1.419 . S
C1746 H1750 0.930 . S
C1747 C1746 1.369 . S
C1747 C1756 1.429 . S
C1748 C1746 1.419 . S
C1748 C1749 1.363 . S
C1748 H1751 0.929 . S
C1749 C1748 1.363 . S
C1749 C1755 1.428 . S
H1750 C1746 0.930 . S
H1751 C1748 0.929 . S
S1752 N1753 1.613 . S
S1752 N1754 1.610 . S
N1753 S1752 1.613 . S
N1753 C1756 1.350 . S
N1754 S1752 1.610 . S
N1754 C1755 1.351 . S
C1755 C1749 1.428 . S
C1755 N1754 1.351 . S
C1755 C1756 1.434 . S
C1756 C1747 1.429 . S
C1756 N1753 1.350 . S
C1756 C1755 1.434 . S
C1757 C1758 1.369 . S
C1757 C1759 1.419 . S
C1757 H1761 0.930 . S
C1758 C1757 1.369 . S
C1758 C1767 1.429 . S
C1759 C1757 1.419 . S
C1759 C1760 1.363 . S
C1759 H1762 0.929 . S
C1760 C1759 1.363 . S
C1760 C1766 1.428 . S
H1761 C1757 0.930 . S
H1762 C1759 0.929 . S
S1763 N1764 1.613 . S
S1763 N1765 1.610 . S
N1764 S1763 1.613 . S
N1764 C1767 1.350 . S
N1765 S1763 1.610 . S
N1765 C1766 1.351 . S
C1766 C1760 1.428 . S
C1766 N1765 1.351 . S
C1766 C1767 1.434 . S
C1767 C1758 1.429 . S
C1767 N1764 1.350 . S
C1767 C1766 1.434 . S
C1768 C1769 1.369 . S
C1768 C1770 1.419 . S
C1768 H1772 0.930 . S
C1769 C1768 1.369 . S
C1769 C1778 1.429 . S
C1770 C1768 1.419 . S
C1770 C1771 1.363 . S
C1770 H1773 0.929 . S
C1771 C1770 1.363 . S
C1771 C1777 1.428 . S
H1772 C1768 0.930 . S
H1773 C1770 0.929 . S
S1774 N1775 1.613 . S
S1774 N1776 1.610 . S
N1775 S1774 1.613 . S
N1775 C1778 1.350 . S
N1776 S1774 1.610 . S
N1776 C1777 1.351 . S
C1777 C1771 1.428 . S
C1777 N1776 1.351 . S
C1777 C1778 1.434 . S
C1778 C1769 1.429 . S
C1778 N1775 1.350 . S
C1778 C1777 1.434 . S
C1779 C1780 1.369 . S
C1779 C1781 1.419 . S
C1779 H1783 0.930 . S
C1780 C1779 1.369 . S
C1780 C1789 1.429 . S
C1781 C1779 1.419 . S
C1781 C1782 1.363 . S
C1781 H1784 0.929 . S
C1782 C1781 1.363 . S
C1782 C1788 1.428 . S
H1783 C1779 0.930 . S
H1784 C1781 0.929 . S
S1785 N1786 1.613 . S
S1785 N1787 1.610 . S
N1786 S1785 1.613 . S
N1786 C1789 1.350 . S
N1787 S1785 1.610 . S
N1787 C1788 1.351 . S
C1788 C1782 1.428 . S
C1788 N1787 1.351 . S
C1788 C1789 1.434 . S
C1789 C1780 1.429 . S
C1789 N1786 1.350 . S
C1789 C1788 1.434 . S
C1790 C1791 1.369 . S
C1790 C1792 1.419 . S
C1790 H1794 0.930 . S
C1791 C1790 1.369 . S
C1791 C1800 1.429 . S
C1792 C1790 1.419 . S
C1792 C1793 1.363 . S
C1792 H1795 0.929 . S
C1793 C1792 1.363 . S
C1793 C1799 1.428 . S
H1794 C1790 0.930 . S
H1795 C1792 0.929 . S
S1796 N1797 1.613 . S
S1796 N1798 1.610 . S
N1797 S1796 1.613 . S
N1797 C1800 1.350 . S
N1798 S1796 1.610 . S
N1798 C1799 1.351 . S
C1799 C1793 1.428 . S
C1799 N1798 1.351 . S
C1799 C1800 1.434 . S
C1800 C1791 1.429 . S
C1800 N1797 1.350 . S
C1800 C1799 1.434 . S
C1801 C1802 1.369 . S
C1801 C1803 1.419 . S
C1801 H1805 0.930 . S
C1802 C1801 1.369 . S
C1802 C1811 1.429 . S
C1803 C1801 1.419 . S
C1803 C1804 1.363 . S
C1803 H1806 0.929 . S
C1804 C1803 1.363 . S
C1804 C1810 1.428 . S
H1805 C1801 0.930 . S
H1806 C1803 0.929 . S
S1807 N1808 1.613 . S
S1807 N1809 1.610 . S
N1808 S1807 1.613 . S
N1808 C1811 1.350 . S
N1809 S1807 1.610 . S
N1809 C1810 1.351 . S
C1810 C1804 1.428 . S
C1810 N1809 1.351 . S
C1810 C1811 1.434 . S
C1811 C1802 1.429 . S
C1811 N1808 1.350 . S
C1811 C1810 1.434 . S
C1812 C1813 1.369 . S
C1812 C1814 1.419 . S
C1812 H1816 0.930 . S
C1813 C1812 1.369 . S
C1813 C1822 1.429 . S
C1814 C1812 1.419 . S
C1814 C1815 1.363 . S
C1814 H1817 0.929 . S
C1815 C1814 1.363 . S
C1815 C1821 1.428 . S
H1816 C1812 0.930 . S
H1817 C1814 0.929 . S
S1818 N1819 1.613 . S
S1818 N1820 1.610 . S
N1819 S1818 1.613 . S
N1819 C1822 1.350 . S
N1820 S1818 1.610 . S
N1820 C1821 1.351 . S
C1821 C1815 1.428 . S
C1821 N1820 1.351 . S
C1821 C1822 1.434 . S
C1822 C1813 1.429 . S
C1822 N1819 1.350 . S
C1822 C1821 1.434 . S
C1823 C1824 1.369 . S
C1823 C1825 1.419 . S
C1823 H1827 0.930 . S
C1824 C1823 1.369 . S
C1824 C1833 1.429 . S
C1825 C1823 1.419 . S
C1825 C1826 1.363 . S
C1825 H1828 0.929 . S
C1826 C1825 1.363 . S
C1826 C1832 1.428 . S
H1827 C1823 0.930 . S
H1828 C1825 0.929 . S
S1829 N1830 1.613 . S
S1829 N1831 1.610 . S
N1830 S1829 1.613 . S
N1830 C1833 1.350 . S
N1831 S1829 1.610 . S
N1831 C1832 1.351 . S
C1832 C1826 1.428 . S
C1832 N1831 1.351 . S
C1832 C1833 1.434 . S
C1833 C1824 1.429 . S
C1833 N1830 1.350 . S
C1833 C1832 1.434 . S
C1834 C1835 1.369 . S
C1834 C1836 1.419 . S
C1834 H1838 0.930 . S
C1835 C1834 1.369 . S
C1835 C1844 1.429 . S
C1836 C1834 1.419 . S
C1836 C1837 1.363 . S
C1836 H1839 0.929 . S
C1837 C1836 1.363 . S
C1837 C1843 1.428 . S
H1838 C1834 0.930 . S
H1839 C1836 0.929 . S
S1840 N1841 1.613 . S
S1840 N1842 1.610 . S
N1841 S1840 1.613 . S
N1841 C1844 1.350 . S
N1842 S1840 1.610 . S
N1842 C1843 1.351 . S
C1843 C1837 1.428 . S
C1843 N1842 1.351 . S
C1843 C1844 1.434 . S
C1844 C1835 1.429 . S
C1844 N1841 1.350 . S
C1844 C1843 1.434 . S
C1845 C1846 1.369 . S
C1845 C1847 1.419 . S
C1845 H1849 0.930 . S
C1846 C1845 1.369 . S
C1846 C1855 1.429 . S
C1847 C1845 1.419 . S
C1847 C1848 1.363 . S
C1847 H1850 0.929 . S
C1848 C1847 1.363 . S
C1848 C1854 1.428 . S
H1849 C1845 0.930 . S
H1850 C1847 0.929 . S
S1851 N1852 1.613 . S
S1851 N1853 1.610 . S
N1852 S1851 1.613 . S
N1852 C1855 1.350 . S
N1853 S1851 1.610 . S
N1853 C1854 1.351 . S
C1854 C1848 1.428 . S
C1854 N1853 1.351 . S
C1854 C1855 1.434 . S
C1855 C1846 1.429 . S
C1855 N1852 1.350 . S
C1855 C1854 1.434 . S
C1856 C1857 1.369 . S
C1856 C1858 1.419 . S
C1856 H1860 0.930 . S
C1857 C1856 1.369 . S
C1857 C1866 1.429 . S
C1858 C1856 1.419 . S
C1858 C1859 1.363 . S
C1858 H1861 0.929 . S
C1859 C1858 1.363 . S
C1859 C1865 1.428 . S
H1860 C1856 0.930 . S
H1861 C1858 0.929 . S
S1862 N1863 1.613 . S
S1862 N1864 1.610 . S
N1863 S1862 1.613 . S
N1863 C1866 1.350 . S
N1864 S1862 1.610 . S
N1864 C1865 1.351 . S
C1865 C1859 1.428 . S
C1865 N1864 1.351 . S
C1865 C1866 1.434 . S
C1866 C1857 1.429 . S
C1866 N1863 1.350 . S
C1866 C1865 1.434 . S
C1867 C1868 1.369 . S
C1867 C1869 1.419 . S
C1867 H1871 0.930 . S
C1868 C1867 1.369 . S
C1868 C1877 1.429 . S
C1869 C1867 1.419 . S
C1869 C1870 1.363 . S
C1869 H1872 0.929 . S
C1870 C1869 1.363 . S
C1870 C1876 1.428 . S
H1871 C1867 0.930 . S
H1872 C1869 0.929 . S
S1873 N1874 1.613 . S
S1873 N1875 1.610 . S
N1874 S1873 1.613 . S
N1874 C1877 1.350 . S
N1875 S1873 1.610 . S
N1875 C1876 1.351 . S
C1876 C1870 1.428 . S
C1876 N1875 1.351 . S
C1876 C1877 1.434 . S
C1877 C1868 1.429 . S
C1877 N1874 1.350 . S
C1877 C1876 1.434 . S
C1878 C1879 1.369 . S
C1878 C1880 1.419 1_455 S
C1878 H1882 0.930 . S
C1879 C1878 1.369 . S
C1879 C1888 1.429 . S
C1880 C1878 1.419 1_655 S
C1880 C1881 1.363 . S
C1880 H1883 0.929 . S
C1881 C1880 1.363 . S
C1881 C1887 1.428 . S
H1882 C1878 0.930 . S
H1883 C1880 0.929 . S
S1884 N1885 1.613 . S
S1884 N1886 1.610 1_455 S
N1885 S1884 1.613 . S
N1885 C1888 1.350 . S
N1886 S1884 1.610 1_655 S
N1886 C1887 1.351 . S
C1887 C1881 1.428 . S
C1887 N1886 1.351 . S
C1887 C1888 1.434 1_655 S
C1888 C1879 1.429 . S
C1888 N1885 1.350 . S
C1888 C1887 1.434 1_455 S
C1889 C1890 1.369 . S
C1889 C1891 1.419 . S
C1889 H1893 0.930 . S
C1890 C1889 1.369 . S
C1890 C1899 1.429 . S
C1891 C1889 1.419 . S
C1891 C1892 1.363 . S
C1891 H1894 0.929 . S
C1892 C1891 1.363 . S
C1892 C1898 1.428 . S
H1893 C1889 0.930 . S
H1894 C1891 0.929 . S
S1895 N1896 1.613 . S
S1895 N1897 1.610 . S
N1896 S1895 1.613 . S
N1896 C1899 1.350 . S
N1897 S1895 1.610 . S
N1897 C1898 1.351 . S
C1898 C1892 1.428 . S
C1898 N1897 1.351 . S
C1898 C1899 1.434 . S
C1899 C1890 1.429 . S
C1899 N1896 1.350 . S
C1899 C1898 1.434 . S
C1900 C1901 1.369 . S
C1900 C1902 1.419 1_545 S
C1900 H1904 0.930 . S
C1901 C1900 1.369 . S
C1901 C1910 1.429 . S
C1902 C1900 1.419 1_565 S
C1902 C1903 1.363 . S
C1902 H1905 0.929 . S
C1903 C1902 1.363 . S
C1903 C1909 1.428 . S
H1904 C1900 0.930 . S
H1905 C1902 0.929 . S
S1906 N1907 1.613 1_565 S
S1906 N1908 1.610 . S
N1907 S1906 1.613 1_545 S
N1907 C1910 1.350 . S
N1908 S1906 1.610 . S
N1908 C1909 1.351 . S
C1909 C1903 1.428 . S
C1909 N1908 1.351 . S
C1909 C1910 1.434 1_565 S
C1910 C1901 1.429 . S
C1910 N1907 1.350 . S
C1910 C1909 1.434 1_545 S
C1911 C1912 1.369 . S
C1911 C1913 1.419 1_565 S
C1911 H1915 0.930 . S
C1912 C1911 1.369 . S
C1912 C1921 1.429 . S
C1913 C1911 1.419 1_545 S
C1913 C1914 1.363 . S
C1913 H1916 0.929 . S
C1914 C1913 1.363 . S
C1914 C1920 1.428 . S
H1915 C1911 0.930 . S
H1916 C1913 0.929 . S
S1917 N1918 1.613 . S
S1917 N1919 1.610 1_565 S
N1918 S1917 1.613 . S
N1918 C1921 1.350 . S
N1919 S1917 1.610 1_545 S
N1919 C1920 1.351 . S
C1920 C1914 1.428 . S
C1920 N1919 1.351 . S
C1920 C1921 1.434 1_545 S
C1921 C1912 1.429 . S
C1921 N1918 1.350 . S
C1921 C1920 1.434 1_565 S
C1922 C1923 1.369 . S
C1922 C1924 1.419 1_455 S
C1922 H1926 0.930 . S
C1923 C1922 1.369 . S
C1923 C1932 1.429 . S
C1924 C1922 1.419 1_655 S
C1924 C1925 1.363 . S
C1924 H1927 0.929 . S
C1925 C1924 1.363 . S
C1925 C1931 1.428 . S
H1926 C1922 0.930 . S
H1927 C1924 0.929 . S
S1928 N1929 1.613 1_655 S
S1928 N1930 1.610 . S
N1929 S1928 1.613 1_455 S
N1929 C1932 1.350 . S
N1930 S1928 1.610 . S
N1930 C1931 1.351 . S
C1931 C1925 1.428 . S
C1931 N1930 1.351 . S
C1931 C1932 1.434 1_655 S
C1932 C1923 1.429 . S
C1932 N1929 1.350 . S
C1932 C1931 1.434 1_455 S
C1933 C1934 1.369 . S
C1933 C1935 1.419 . S
C1933 H1937 0.930 . S
C1934 C1933 1.369 . S
C1934 C1943 1.429 . S
C1935 C1933 1.419 . S
C1935 C1936 1.363 . S
C1935 H1938 0.929 . S
C1936 C1935 1.363 . S
C1936 C1942 1.428 . S
H1937 C1933 0.930 . S
H1938 C1935 0.929 . S
S1939 N1940 1.613 . S
S1939 N1941 1.610 . S
N1940 S1939 1.613 . S
N1940 C1943 1.350 . S
N1941 S1939 1.610 . S
N1941 C1942 1.351 . S
C1942 C1936 1.428 . S
C1942 N1941 1.351 . S
C1942 C1943 1.434 . S
C1943 C1934 1.429 . S
C1943 N1940 1.350 . S
C1943 C1942 1.434 . S
C1944 C1945 1.369 . S
C1944 C1946 1.419 . S
C1944 H1948 0.930 . S
C1945 C1944 1.369 . S
C1945 C1954 1.429 . S
C1946 C1944 1.419 . S
C1946 C1947 1.363 . S
C1946 H1949 0.929 . S
C1947 C1946 1.363 . S
C1947 C1953 1.428 . S
H1948 C1944 0.930 . S
H1949 C1946 0.929 . S
S1950 N1951 1.613 . S
S1950 N1952 1.610 . S
N1951 S1950 1.613 . S
N1951 C1954 1.350 . S
N1952 S1950 1.610 . S
N1952 C1953 1.351 . S
C1953 C1947 1.428 . S
C1953 N1952 1.351 . S
C1953 C1954 1.434 . S
C1954 C1945 1.429 . S
C1954 N1951 1.350 . S
C1954 C1953 1.434 . S
C1955 C1956 1.369 1_565 S
C1955 C1957 1.419 . S
C1955 H1959 0.930 . S
C1956 C1955 1.369 1_545 S
C1956 C1965 1.429 . S
C1957 C1955 1.419 . S
C1957 C1958 1.363 . S
C1957 H1960 0.929 . S
C1958 C1957 1.363 . S
C1958 C1964 1.428 1_565 S
H1959 C1955 0.930 . S
H1960 C1957 0.929 . S
S1961 N1962 1.613 . S
S1961 N1963 1.610 . S
N1962 S1961 1.613 . S
N1962 C1965 1.350 . S
N1963 S1961 1.610 . S
N1963 C1964 1.351 . S
C1964 C1958 1.428 1_545 S
C1964 N1963 1.351 . S
C1964 C1965 1.434 . S
C1965 C1956 1.429 . S
C1965 N1962 1.350 . S
C1965 C1964 1.434 . S
C1966 C1967 1.369 1_455 S
C1966 C1968 1.419 . S
C1966 H1970 0.930 . S
C1967 C1966 1.369 1_655 S
C1967 C1976 1.429 . S
C1968 C1966 1.419 . S
C1968 C1969 1.363 . S
C1968 H1971 0.929 . S
C1969 C1968 1.363 . S
C1969 C1975 1.428 1_455 S
H1970 C1966 0.930 . S
H1971 C1968 0.929 . S
S1972 N1973 1.613 . S
S1972 N1974 1.610 . S
N1973 S1972 1.613 . S
N1973 C1976 1.350 . S
N1974 S1972 1.610 . S
N1974 C1975 1.351 . S
C1975 C1969 1.428 1_655 S
C1975 N1974 1.351 . S
C1975 C1976 1.434 . S
C1976 C1967 1.429 . S
C1976 N1973 1.350 . S
C1976 C1975 1.434 . S
C1977 C1978 1.369 . S
C1977 C1979 1.419 . S
C1977 H1981 0.930 . S
C1978 C1977 1.369 . S
C1978 C1987 1.429 . S
C1979 C1977 1.419 . S
C1979 C1980 1.363 . S
C1979 H1982 0.929 . S
C1980 C1979 1.363 . S
C1980 C1986 1.428 . S
H1981 C1977 0.930 . S
H1982 C1979 0.929 . S
S1983 N1984 1.613 . S
S1983 N1985 1.610 . S
N1984 S1983 1.613 . S
N1984 C1987 1.350 . S
N1985 S1983 1.610 . S
N1985 C1986 1.351 . S
C1986 C1980 1.428 . S
C1986 N1985 1.351 . S
C1986 C1987 1.434 . S
C1987 C1978 1.429 . S
C1987 N1984 1.350 . S
C1987 C1986 1.434 . S
C1988 C1989 1.369 1_545 S
C1988 C1990 1.419 . S
C1988 H1992 0.930 . S
C1989 C1988 1.369 1_565 S
C1989 C1998 1.429 . S
C1990 C1988 1.419 . S
C1990 C1991 1.363 . S
C1990 H1993 0.929 . S
C1991 C1990 1.363 . S
C1991 C1997 1.428 1_545 S
H1992 C1988 0.930 . S
H1993 C1990 0.929 . S
S1994 N1995 1.613 . S
S1994 N1996 1.610 . S
N1995 S1994 1.613 . S
N1995 C1998 1.350 . S
N1996 S1994 1.610 . S
N1996 C1997 1.351 . S
C1997 C1991 1.428 1_565 S
C1997 N1996 1.351 . S
C1997 C1998 1.434 . S
C1998 C1989 1.429 . S
C1998 N1995 1.350 . S
C1998 C1997 1.434 . S
C1999 C2000 1.369 . S
C1999 C2001 1.419 . S
C1999 H2003 0.930 . S
C2000 C1999 1.369 . S
C2000 C2009 1.404 1_655 S
C2001 C1999 1.419 . S
C2001 C2002 1.363 1_655 S
C2001 H2004 0.929 . S
C2002 C2001 1.363 1_455 S
C2002 C2008 1.428 . S
H2003 C1999 0.930 . S
H2004 C2001 0.929 . S
S2005 N2006 1.613 . S
S2005 N2007 1.610 . S
N2006 S2005 1.613 . S
N2006 C2009 1.373 . S
N2007 S2005 1.610 . S
N2007 C2008 1.351 . S
C2008 C2002 1.428 . S
C2008 N2007 1.351 . S
C2008 C2009 1.437 . S
C2009 C2000 1.404 1_455 S
C2009 N2006 1.373 . S
C2009 C2008 1.437 . S
C2010 C2011 1.369 . S
C2010 C2012 1.419 . S
C2010 H2014 0.930 . S
C2011 C2010 1.369 . S
C2011 C2020 1.429 . S
C2012 C2010 1.419 . S
C2012 C2013 1.363 . S
C2012 H2015 0.929 . S
C2013 C2012 1.363 . S
C2013 C2019 1.428 . S
H2014 C2010 0.930 . S
H2015 C2012 0.929 . S
S2016 N2017 1.613 . S
S2016 N2018 1.610 . S
N2017 S2016 1.613 . S
N2017 C2020 1.350 . S
N2018 S2016 1.610 . S
N2018 C2019 1.351 . S
C2019 C2013 1.428 . S
C2019 N2018 1.351 . S
C2019 C2020 1.434 . S
C2020 C2011 1.429 . S
C2020 N2017 1.350 . S
C2020 C2019 1.434 . S
C2021 C2022 1.369 . S
C2021 C2023 1.419 . S
C2021 H2025 0.930 . S
C2022 C2021 1.369 . S
C2022 C2031 1.429 . S
C2023 C2021 1.419 . S
C2023 C2024 1.363 . S
C2023 H2026 0.929 . S
C2024 C2023 1.363 . S
C2024 C2030 1.428 . S
H2025 C2021 0.930 . S
H2026 C2023 0.929 . S
S2027 N2028 1.613 . S
S2027 N2029 1.610 . S
N2028 S2027 1.613 . S
N2028 C2031 1.350 . S
N2029 S2027 1.610 . S
N2029 C2030 1.351 . S
C2030 C2024 1.428 . S
C2030 N2029 1.351 . S
C2030 C2031 1.434 . S
C2031 C2022 1.429 . S
C2031 N2028 1.350 . S
C2031 C2030 1.434 . S
C2032 C2033 1.369 . S
C2032 C2034 1.419 . S
C2032 H2036 0.930 . S
C2033 C2032 1.369 . S
C2033 C2042 1.429 . S
C2034 C2032 1.419 . S
C2034 C2035 1.363 . S
C2034 H2037 0.929 . S
C2035 C2034 1.363 . S
C2035 C2041 1.428 . S
H2036 C2032 0.930 . S
H2037 C2034 0.929 . S
S2038 N2039 1.613 . S
S2038 N2040 1.610 . S
N2039 S2038 1.613 . S
N2039 C2042 1.350 . S
N2040 S2038 1.610 . S
N2040 C2041 1.351 . S
C2041 C2035 1.428 . S
C2041 N2040 1.351 . S
C2041 C2042 1.434 . S
C2042 C2033 1.429 . S
C2042 N2039 1.350 . S
C2042 C2041 1.434 . S
C2043 C2044 1.369 . S
C2043 C2045 1.419 . S
C2043 H2047 0.930 . S
C2044 C2043 1.369 . S
C2044 C2053 1.429 . S
C2045 C2043 1.419 . S
C2045 C2046 1.363 . S
C2045 H2048 0.929 . S
C2046 C2045 1.363 . S
C2046 C2052 1.428 . S
H2047 C2043 0.930 . S
H2048 C2045 0.929 . S
S2049 N2050 1.613 . S
S2049 N2051 1.610 . S
N2050 S2049 1.613 . S
N2050 C2053 1.350 . S
N2051 S2049 1.610 . S
N2051 C2052 1.351 . S
C2052 C2046 1.428 . S
C2052 N2051 1.351 . S
C2052 C2053 1.434 . S
C2053 C2044 1.429 . S
C2053 N2050 1.350 . S
C2053 C2052 1.434 . S
C2054 C2055 1.369 . S
C2054 C2056 1.419 . S
C2054 H2058 0.930 . S
C2055 C2054 1.369 . S
C2055 C2064 1.429 . S
C2056 C2054 1.419 . S
C2056 C2057 1.363 . S
C2056 H2059 0.929 . S
C2057 C2056 1.363 . S
C2057 C2063 1.428 . S
H2058 C2054 0.930 . S
H2059 C2056 0.929 . S
S2060 N2061 1.613 . S
S2060 N2062 1.610 . S
N2061 S2060 1.613 . S
N2061 C2064 1.350 . S
N2062 S2060 1.610 . S
N2062 C2063 1.351 . S
C2063 C2057 1.428 . S
C2063 N2062 1.351 . S
C2063 C2064 1.434 . S
C2064 C2055 1.429 . S
C2064 N2061 1.350 . S
C2064 C2063 1.434 . S
C2065 C2066 1.369 . S
C2065 C2067 1.419 . S
C2065 H2069 0.930 . S
C2066 C2065 1.369 . S
C2066 C2075 1.429 . S
C2067 C2065 1.419 . S
C2067 C2068 1.363 . S
C2067 H2070 0.929 . S
C2068 C2067 1.363 . S
C2068 C2074 1.428 . S
H2069 C2065 0.930 . S
H2070 C2067 0.929 . S
S2071 N2072 1.613 . S
S2071 N2073 1.610 . S
N2072 S2071 1.613 . S
N2072 C2075 1.350 . S
N2073 S2071 1.610 . S
N2073 C2074 1.351 . S
C2074 C2068 1.428 . S
C2074 N2073 1.351 . S
C2074 C2075 1.434 . S
C2075 C2066 1.429 . S
C2075 N2072 1.350 . S
C2075 C2074 1.434 . S
C2076 C2077 1.369 . S
C2076 C2078 1.419 . S
C2076 H2080 0.930 . S
C2077 C2076 1.369 . S
C2077 C2086 1.429 . S
C2078 C2076 1.419 . S
C2078 C2079 1.363 . S
C2078 H2081 0.929 . S
C2079 C2078 1.363 . S
C2079 C2085 1.428 . S
H2080 C2076 0.930 . S
H2081 C2078 0.929 . S
S2082 N2083 1.613 . S
S2082 N2084 1.610 . S
N2083 S2082 1.613 . S
N2083 C2086 1.350 . S
N2084 S2082 1.610 . S
N2084 C2085 1.351 . S
C2085 C2079 1.428 . S
C2085 N2084 1.351 . S
C2085 C2086 1.434 . S
C2086 C2077 1.429 . S
C2086 N2083 1.350 . S
C2086 C2085 1.434 . S
C2087 C2088 1.369 . S
C2087 C2089 1.419 . S
C2087 H2091 0.930 . S
C2088 C2087 1.369 . S
C2088 C2097 1.429 . S
C2089 C2087 1.419 . S
C2089 C2090 1.363 . S
C2089 H2092 0.929 . S
C2090 C2089 1.363 . S
C2090 C2096 1.428 . S
H2091 C2087 0.930 . S
H2092 C2089 0.929 . S
S2093 N2094 1.613 . S
S2093 N2095 1.610 . S
N2094 S2093 1.613 . S
N2094 C2097 1.350 . S
N2095 S2093 1.610 . S
N2095 C2096 1.351 . S
C2096 C2090 1.428 . S
C2096 N2095 1.351 . S
C2096 C2097 1.434 . S
C2097 C2088 1.429 . S
C2097 N2094 1.350 . S
C2097 C2096 1.434 . S
C2098 C2099 1.369 . S
C2098 C2100 1.419 . S
C2098 H2102 0.930 . S
C2099 C2098 1.369 . S
C2099 C2108 1.429 . S
C2100 C2098 1.419 . S
C2100 C2101 1.363 . S
C2100 H2103 0.929 . S
C2101 C2100 1.363 . S
C2101 C2107 1.428 . S
H2102 C2098 0.930 . S
H2103 C2100 0.929 . S
S2104 N2105 1.613 . S
S2104 N2106 1.610 . S
N2105 S2104 1.613 . S
N2105 C2108 1.350 . S
N2106 S2104 1.610 . S
N2106 C2107 1.351 . S
C2107 C2101 1.428 . S
C2107 N2106 1.351 . S
C2107 C2108 1.434 . S
C2108 C2099 1.429 . S
C2108 N2105 1.350 . S
C2108 C2107 1.434 . S
C2109 C2110 1.369 . S
C2109 C2111 1.419 . S
C2109 H2113 0.930 . S
C2110 C2109 1.369 . S
C2110 C2119 1.429 . S
C2111 C2109 1.419 . S
C2111 C2112 1.363 . S
C2111 H2114 0.929 . S
C2112 C2111 1.363 . S
C2112 C2118 1.428 . S
H2113 C2109 0.930 . S
H2114 C2111 0.929 . S
S2115 N2116 1.613 . S
S2115 N2117 1.610 . S
N2116 S2115 1.613 . S
N2116 C2119 1.350 . S
N2117 S2115 1.610 . S
N2117 C2118 1.351 . S
C2118 C2112 1.428 . S
C2118 N2117 1.351 . S
C2118 C2119 1.434 . S
C2119 C2110 1.429 . S
C2119 N2116 1.350 . S
C2119 C2118 1.434 . S
C2120 C2121 1.369 . S
C2120 C2122 1.419 . S
C2120 H2124 0.930 . S
C2121 C2120 1.369 . S
C2121 C2130 1.429 . S
C2122 C2120 1.419 . S
C2122 C2123 1.363 . S
C2122 H2125 0.929 . S
C2123 C2122 1.363 . S
C2123 C2129 1.428 . S
H2124 C2120 0.930 . S
H2125 C2122 0.929 . S
S2126 N2127 1.613 . S
S2126 N2128 1.610 . S
N2127 S2126 1.613 . S
N2127 C2130 1.350 . S
N2128 S2126 1.610 . S
N2128 C2129 1.351 . S
C2129 C2123 1.428 . S
C2129 N2128 1.351 . S
C2129 C2130 1.434 . S
C2130 C2121 1.429 . S
C2130 N2127 1.350 . S
C2130 C2129 1.434 . S
C2131 C2132 1.369 . S
C2131 C2133 1.419 . S
C2131 H2135 0.930 . S
C2132 C2131 1.369 . S
C2132 C2141 1.429 . S
C2133 C2131 1.419 . S
C2133 C2134 1.363 . S
C2133 H2136 0.929 . S
C2134 C2133 1.363 . S
C2134 C2140 1.428 . S
H2135 C2131 0.930 . S
H2136 C2133 0.929 . S
S2137 N2138 1.613 . S
S2137 N2139 1.610 . S
N2138 S2137 1.613 . S
N2138 C2141 1.350 . S
N2139 S2137 1.610 . S
N2139 C2140 1.351 . S
C2140 C2134 1.428 . S
C2140 N2139 1.351 . S
C2140 C2141 1.434 . S
C2141 C2132 1.429 . S
C2141 N2138 1.350 . S
C2141 C2140 1.434 . S
C2142 C2143 1.369 . S
C2142 C2144 1.419 . S
C2142 H2146 0.930 . S
C2143 C2142 1.369 . S
C2143 C2152 1.429 . S
C2144 C2142 1.419 . S
C2144 C2145 1.363 . S
C2144 H2147 0.929 . S
C2145 C2144 1.363 . S
C2145 C2151 1.428 . S
H2146 C2142 0.930 . S
H2147 C2144 0.929 . S
S2148 N2149 1.613 . S
S2148 N2150 1.610 . S
N2149 S2148 1.613 . S
N2149 C2152 1.350 . S
N2150 S2148 1.610 . S
N2150 C2151 1.351 . S
C2151 C2145 1.428 . S
C2151 N2150 1.351 . S
C2151 C2152 1.434 . S
C2152 C2143 1.429 . S
C2152 N2149 1.350 . S
C2152 C2151 1.434 . S
C2153 C2154 1.369 . S
C2153 C2155 1.419 . S
C2153 H2157 0.930 . S
C2154 C2153 1.369 . S
C2154 C2163 1.429 . S
C2155 C2153 1.419 . S
C2155 C2156 1.363 . S
C2155 H2158 0.929 . S
C2156 C2155 1.363 . S
C2156 C2162 1.428 . S
H2157 C2153 0.930 . S
H2158 C2155 0.929 . S
S2159 N2160 1.613 1_545 S
S2159 N2161 1.610 . S
N2160 S2159 1.613 1_565 S
N2160 C2163 1.350 . S
N2161 S2159 1.610 . S
N2161 C2162 1.351 1_545 S
C2162 C2156 1.428 . S
C2162 N2161 1.351 1_565 S
C2162 C2163 1.434 . S
C2163 C2154 1.429 . S
C2163 N2160 1.350 . S
C2163 C2162 1.434 . S
C2164 C2165 1.369 . S
C2164 C2166 1.419 . S
C2164 H2168 0.930 1_455 S
C2165 C2164 1.369 . S
C2165 C2174 1.429 . S
C2166 C2164 1.419 . S
C2166 C2167 1.363 . S
C2166 H2169 0.929 . S
C2167 C2166 1.363 . S
C2167 C2173 1.428 . S
H2168 C2164 0.930 1_655 S
H2169 C2166 0.929 . S
S2170 N2171 1.613 . S
S2170 N2172 1.610 . S
N2171 S2170 1.613 . S
N2171 C2174 1.350 . S
N2172 S2170 1.610 . S
N2172 C2173 1.351 . S
C2173 C2167 1.428 . S
C2173 N2172 1.351 . S
C2173 C2174 1.434 . S
C2174 C2165 1.429 . S
C2174 N2171 1.350 . S
C2174 C2173 1.434 . S
C2175 C2176 1.369 . S
C2175 C2177 1.419 . S
C2175 H2179 0.930 . S
C2176 C2175 1.369 . S
C2176 C2185 1.429 . S
C2177 C2175 1.419 . S
C2177 C2178 1.363 . S
C2177 H2180 0.929 . S
C2178 C2177 1.363 . S
C2178 C2184 1.428 . S
H2179 C2175 0.930 . S
H2180 C2177 0.929 . S
S2181 N2182 1.613 . S
S2181 N2183 1.610 . S
N2182 S2181 1.613 . S
N2182 C2185 1.350 . S
N2183 S2181 1.610 . S
N2183 C2184 1.351 . S
C2184 C2178 1.428 . S
C2184 N2183 1.351 . S
C2184 C2185 1.434 . S
C2185 C2176 1.429 . S
C2185 N2182 1.350 . S
C2185 C2184 1.434 . S
C2186 C2187 1.369 . S
C2186 C2188 1.419 . S
C2186 H2190 0.930 . S
C2187 C2186 1.369 . S
C2187 C2196 1.429 . S
C2188 C2186 1.419 . S
C2188 C2189 1.363 . S
C2188 H2191 0.929 . S
C2189 C2188 1.363 . S
C2189 C2195 1.428 . S
H2190 C2186 0.930 . S
H2191 C2188 0.929 . S
S2192 N2193 1.613 . S
S2192 N2194 1.610 . S
N2193 S2192 1.613 . S
N2193 C2196 1.350 . S
N2194 S2192 1.610 . S
N2194 C2195 1.351 . S
C2195 C2189 1.428 . S
C2195 N2194 1.351 . S
C2195 C2196 1.434 . S
C2196 C2187 1.429 . S
C2196 N2193 1.350 . S
C2196 C2195 1.434 . S
C2197 C2198 1.369 . S
C2197 C2199 1.419 . S
C2197 H2201 0.930 . S
C2198 C2197 1.369 . S
C2198 C2207 1.429 . S
C2199 C2197 1.419 . S
C2199 C2200 1.363 . S
C2199 H2202 0.929 . S
C2200 C2199 1.363 . S
C2200 C2206 1.428 . S
H2201 C2197 0.930 . S
H2202 C2199 0.929 . S
S2203 N2204 1.613 . S
S2203 N2205 1.610 1_455 S
N2204 S2203 1.613 . S
N2204 C2207 1.350 1_455 S
N2205 S2203 1.610 1_655 S
N2205 C2206 1.351 . S
C2206 C2200 1.428 . S
C2206 N2205 1.351 . S
C2206 C2207 1.434 . S
C2207 C2198 1.429 . S
C2207 N2204 1.350 1_655 S
C2207 C2206 1.434 . S
C2208 C2209 1.369 . S
C2208 C2210 1.419 . S
C2208 H2212 0.930 . S
C2209 C2208 1.369 . S
C2209 C2218 1.429 . S
C2210 C2208 1.419 . S
C2210 C2211 1.363 . S
C2210 H2213 0.929 . S
C2211 C2210 1.363 . S
C2211 C2217 1.428 . S
H2212 C2208 0.930 . S
H2213 C2210 0.929 . S
S2214 N2215 1.613 . S
S2214 N2216 1.610 . S
N2215 S2214 1.613 . S
N2215 C2218 1.350 . S
N2216 S2214 1.610 . S
N2216 C2217 1.351 . S
C2217 C2211 1.428 . S
C2217 N2216 1.351 . S
C2217 C2218 1.434 . S
C2218 C2209 1.429 . S
C2218 N2215 1.350 . S
C2218 C2217 1.434 . S
C2219 C2220 1.369 . S
C2219 C2221 1.419 . S
C2219 H2223 0.930 1_545 S
C2220 C2219 1.369 . S
C2220 C2229 1.429 . S
C2221 C2219 1.419 . S
C2221 C2222 1.363 . S
C2221 H2224 0.929 . S
C2222 C2221 1.363 . S
C2222 C2228 1.428 . S
H2223 C2219 0.930 1_565 S
H2224 C2221 0.929 . S
S2225 N2226 1.613 . S
S2225 N2227 1.610 . S
N2226 S2225 1.613 . S
N2226 C2229 1.350 . S
N2227 S2225 1.610 . S
N2227 C2228 1.351 . S
C2228 C2222 1.428 . S
C2228 N2227 1.351 . S
C2228 C2229 1.434 . S
C2229 C2220 1.429 . S
C2229 N2226 1.350 . S
C2229 C2228 1.434 . S
C2230 C2231 1.369 . S
C2230 C2232 1.419 . S
C2230 H2234 0.930 . S
C2231 C2230 1.369 . S
C2231 C2240 1.429 . S
C2232 C2230 1.419 . S
C2232 C2233 1.363 . S
C2232 H2235 0.929 1_655 S
C2233 C2232 1.363 . S
C2233 C2239 1.428 . S
H2234 C2230 0.930 . S
H2235 C2232 0.929 1_455 S
S2236 N2237 1.613 . S
S2236 N2238 1.610 . S
N2237 S2236 1.613 . S
N2237 C2240 1.350 . S
N2238 S2236 1.610 . S
N2238 C2239 1.351 . S
C2239 C2233 1.428 . S
C2239 N2238 1.351 . S
C2239 C2240 1.434 . S
C2240 C2231 1.429 . S
C2240 N2237 1.350 . S
C2240 C2239 1.434 . S
C2241 C2242 1.369 . S
C2241 C2243 1.419 . S
C2241 H2245 0.930 . S
C2242 C2241 1.369 . S
C2242 C2251 1.429 . S
C2243 C2241 1.419 . S
C2243 C2244 1.363 . S
C2243 H2246 0.929 . S
C2244 C2243 1.363 . S
C2244 C2250 1.428 . S
H2245 C2241 0.930 . S
H2246 C2243 0.929 . S
S2247 N2248 1.613 . S
S2247 N2249 1.610 . S
N2248 S2247 1.613 . S
N2248 C2251 1.350 . S
N2249 S2247 1.610 . S
N2249 C2250 1.351 . S
C2250 C2244 1.428 . S
C2250 N2249 1.351 . S
C2250 C2251 1.434 . S
C2251 C2242 1.429 . S
C2251 N2248 1.350 . S
C2251 C2250 1.434 . S
C2252 C2253 1.369 . S
C2252 C2254 1.419 . S
C2252 H2256 0.930 . S
C2253 C2252 1.369 . S
C2253 C2262 1.429 . S
C2254 C2252 1.419 . S
C2254 C2255 1.363 . S
C2254 H2257 0.929 . S
C2255 C2254 1.363 . S
C2255 C2261 1.428 . S
H2256 C2252 0.930 . S
H2257 C2254 0.929 . S
S2258 N2259 1.613 1_545 S
S2258 N2260 1.610 . S
N2259 S2258 1.613 1_565 S
N2259 C2262 1.350 . S
N2260 S2258 1.610 . S
N2260 C2261 1.351 1_545 S
C2261 C2255 1.428 . S
C2261 N2260 1.351 1_565 S
C2261 C2262 1.434 . S
C2262 C2253 1.429 . S
C2262 N2259 1.350 . S
C2262 C2261 1.434 . S
C2263 C2264 1.369 . S
C2263 C2265 1.419 . S
C2263 H2267 0.930 . S
C2264 C2263 1.369 . S
C2264 C2273 1.429 . S
C2265 C2263 1.419 . S
C2265 C2266 1.363 . S
C2265 H2268 0.929 . S
C2266 C2265 1.363 . S
C2266 C2272 1.428 . S
H2267 C2263 0.930 . S
H2268 C2265 0.929 . S
S2269 N2270 1.603 1_655 S
S2269 N2271 1.599 . S
N2270 S2269 1.603 1_455 S
N2270 C2273 1.350 . S
N2271 S2269 1.599 . S
N2271 C2272 1.351 1_655 S
C2272 C2266 1.428 . S
C2272 N2271 1.351 1_455 S
C2272 C2273 1.434 . S
C2273 C2264 1.429 . S
C2273 N2270 1.350 . S
C2273 C2272 1.434 . S
C2274 C2275 1.369 . S
C2274 C2276 1.419 1_655 S
C2274 H2278 0.930 . S
C2275 C2274 1.369 . S
C2275 C2284 1.429 . S
C2276 C2274 1.419 1_455 S
C2276 C2277 1.363 . S
C2276 H2279 0.929 . S
C2277 C2276 1.363 . S
C2277 C2283 1.428 . S
H2278 C2274 0.930 . S
H2279 C2276 0.929 . S
S2280 N2281 1.613 1_455 S
S2280 N2282 1.610 . S
N2281 S2280 1.613 1_655 S
N2281 C2284 1.350 . S
N2282 S2280 1.610 . S
N2282 C2283 1.351 . S
C2283 C2277 1.428 . S
C2283 N2282 1.351 . S
C2283 C2284 1.434 1_455 S
C2284 C2275 1.429 . S
C2284 N2281 1.350 . S
C2284 C2283 1.434 1_655 S
C2285 C2286 1.369 . S
C2285 C2287 1.419 . S
C2285 H2289 0.930 . S
C2286 C2285 1.369 . S
C2286 C2295 1.429 . S
C2287 C2285 1.419 . S
C2287 C2288 1.363 . S
C2287 H2290 0.929 . S
C2288 C2287 1.363 . S
C2288 C2294 1.428 . S
H2289 C2285 0.930 . S
H2290 C2287 0.929 . S
S2291 N2292 1.613 . S
S2291 N2293 1.610 . S
N2292 S2291 1.613 . S
N2292 C2295 1.350 . S
N2293 S2291 1.610 . S
N2293 C2294 1.351 . S
C2294 C2288 1.428 . S
C2294 N2293 1.351 . S
C2294 C2295 1.434 . S
C2295 C2286 1.429 . S
C2295 N2292 1.350 . S
C2295 C2294 1.434 . S
C2296 C2297 1.369 . S
C2296 C2298 1.419 1_545 S
C2296 H2300 0.930 . S
C2297 C2296 1.369 . S
C2297 C2306 1.429 . S
C2298 C2296 1.419 1_565 S
C2298 C2299 1.363 . S
C2298 H2301 0.929 . S
C2299 C2298 1.363 . S
C2299 C2305 1.428 . S
H2300 C2296 0.930 . S
H2301 C2298 0.929 . S
S2302 N2303 1.613 . S
S2302 N2304 1.610 1_545 S
N2303 S2302 1.613 . S
N2303 C2306 1.350 . S
N2304 S2302 1.610 1_565 S
N2304 C2305 1.351 . S
C2305 C2299 1.428 . S
C2305 N2304 1.351 . S
C2305 C2306 1.434 1_565 S
C2306 C2297 1.429 . S
C2306 N2303 1.350 . S
C2306 C2305 1.434 1_545 S
C2307 C2308 1.369 . S
C2307 C2309 1.419 1_545 S
C2307 H2311 0.930 . S
C2308 C2307 1.369 . S
C2308 C2317 1.429 . S
C2309 C2307 1.419 1_565 S
C2309 C2310 1.363 . S
C2309 H2312 0.929 . S
C2310 C2309 1.363 . S
C2310 C2316 1.428 . S
H2311 C2307 0.930 . S
H2312 C2309 0.929 . S
S2313 N2314 1.613 . S
S2313 N2315 1.610 1_545 S
N2314 S2313 1.613 . S
N2314 C2317 1.350 . S
N2315 S2313 1.610 1_565 S
N2315 C2316 1.351 . S
C2316 C2310 1.428 . S
C2316 N2315 1.351 . S
C2316 C2317 1.434 1_565 S
C2317 C2308 1.429 . S
C2317 N2314 1.350 . S
C2317 C2316 1.434 1_545 S
C2318 C2319 1.369 . S
C2318 C2320 1.419 1_655 S
C2318 H2322 0.930 . S
C2319 C2318 1.369 . S
C2319 C2328 1.429 . S
C2320 C2318 1.419 1_455 S
C2320 C2321 1.363 . S
C2320 H2323 0.929 . S
C2321 C2320 1.363 . S
C2321 C2327 1.428 . S
H2322 C2318 0.930 . S
H2323 C2320 0.929 . S
S2324 N2325 1.613 . S
S2324 N2326 1.610 1_655 S
N2325 S2324 1.613 . S
N2325 C2328 1.350 . S
N2326 S2324 1.610 1_455 S
N2326 C2327 1.351 . S
C2327 C2321 1.428 . S
C2327 N2326 1.351 . S
C2327 C2328 1.434 1_455 S
C2328 C2319 1.429 . S
C2328 N2325 1.350 . S
C2328 C2327 1.434 1_655 S
C2329 C2330 1.369 . S
C2329 C2331 1.419 . S
C2329 H2333 0.930 . S
C2330 C2329 1.369 . S
C2330 C2339 1.429 . S
C2331 C2329 1.419 . S
C2331 C2332 1.363 . S
C2331 H2334 0.929 . S
C2332 C2331 1.363 . S
C2332 C2338 1.428 . S
H2333 C2329 0.930 . S
H2334 C2331 0.929 . S
S2335 N2336 1.613 . S
S2335 N2337 1.610 . S
N2336 S2335 1.613 . S
N2336 C2339 1.350 . S
N2337 S2335 1.610 . S
N2337 C2338 1.351 . S
C2338 C2332 1.428 . S
C2338 N2337 1.351 . S
C2338 C2339 1.434 . S
C2339 C2330 1.429 . S
C2339 N2336 1.350 . S
C2339 C2338 1.434 . S
C1153 C6 1.472 . S
C1155 N242 1.480 . S
C1164 N274 1.477 . S
C1166 C34 1.476 . S
C1175 N210 1.480 . S
C1177 C70 1.473 . S
C1186 N365 1.474 . S
C1188 C102 1.472 . S
C1197 C134 1.472 . S
C1199 N301 1.475 . S
C1208 C166 1.470 . S
C1210 N333 1.478 . S
C1219 N45 1.474 . S
C1221 C198 1.475 . S
C1230 C230 1.472 . S
C1232 N82 1.476 . S
C1241 N18 1.480 . S
C1243 C262 1.472 . S
C1252 N178 1.476 . S
C1254 C290 1.471 . S
C1263 C322 1.469 . S
C1265 N114 1.479 . S
C1274 C354 1.477 . S
C1276 N146 1.477 . S
C1285 C386 1.476 . S
C1287 N626 1.475 . S
C1296 N658 1.475 . S
C1298 C418 1.476 . S
C1307 N594 1.480 . S
C1309 C454 1.474 . S
C1318 C482 1.470 . S
C1320 N749 1.476 . S
C1329 N685 1.474 . S
C1331 C518 1.475 . S
C1340 C550 1.470 . S
C1342 N717 1.477 . S
C1351 C582 1.469 . S
C1353 N429 1.479 . S
C1362 N466 1.480 . S
C1364 C614 1.470 . S
C1373 C646 1.475 . S
C1375 N397 1.474 . S
C1384 N562 1.479 . S
C1386 C674 1.474 . S
C1395 N493 1.474 . S
C1397 C706 1.473 . S
C1406 C738 1.470 . S
C1408 N530 1.480 . S
C1417 C774 1.475 . S
C1419 N1010 1.479 . S
C1428 C806 1.476 . S
C1430 N1042 1.475 . S
C1439 N978 1.476 . S
C1441 C834 1.476 . S
C1450 N1133 1.480 . S
C1452 C866 1.474 . S
C1461 C902 1.477 . S
C1463 N1069 1.476 . S
C1472 N1101 1.474 . S
C1474 C930 1.473 . S
C1483 N818 1.478 . S
C1485 C966 1.470 . S
C1494 C998 1.472 . S
C1496 N845 1.480 . S
C1505 N786 1.478 . S
C1507 C1030 1.471 . S
C1516 C1058 1.475 . S
C1518 N941 1.478 . S
C1527 C1090 1.477 . S
C1529 N877 1.475 . S
C1538 C1122 1.471 . S
C1540 N914 1.476 . S
C1549 N13 0.883 . S
C1551 N589 0.867 . S
C1560 N50 0.868 . S
C1562 N621 0.879 . S
C1571 N653 0.882 . S
C1573 N77 0.868 . S
C1582 N1074 0.883 . S
C1584 N109 0.867 . S
C1593 N1106 0.867 . S
C1595 N141 0.879 . S
C1604 N1138 0.865 . S
C1606 N173 0.881 . S
C1615 N205 0.873 . S
C1617 N781 0.875 . S
C1626 N813 0.875 . S
C1628 N237 0.874 . S
C1637 N269 0.874 . S
C1639 N850 0.873 . S
C1648 N306 0.882 . S
C1650 N498 0.867 . S
C1659 N338 0.868 . S
C1661 N525 0.878 . S
C1670 N370 0.878 . S
C1672 N557 0.871 . S
C1681 N402 0.844 1_455 S
C1683 N973 0.858 1_655 S
C1692 N1005 0.874 . S
C1694 N434 0.874 . S
C1703 N461 0.874 1_565 S
C1705 N1037 0.876 1_545 S
C1714 N882 0.847 1_545 S
C1716 N690 0.857 1_565 S
C1725 N722 0.881 1_455 S
C1727 N909 0.869 1_655 S
C1736 N946 0.869 . S
C1738 N754 0.878 . S
C1747 C29 2.212 . S
C1749 C541 2.213 . S
C1758 C36 2.213 . S
C1760 C573 2.212 . S
C1769 C484 2.214 . S
C1771 C93 2.208 . S
C1780 C125 2.213 . S
C1782 C836 2.212 . S
C1791 C797 2.209 . S
C1793 C157 2.214 . S
C1802 C189 2.215 . S
C1804 C829 2.209 . S
C1813 C1092 2.207 . S
C1815 C221 2.212 . S
C1824 C253 2.214 . S
C1826 C1124 2.208 . S
C1835 C1060 2.207 . S
C1837 C285 2.213 . S
C1846 C292 2.213 . S
C1848 C669 2.213 . S
C1857 C324 2.212 . S
C1859 C605 2.208 . S
C1868 C356 2.207 . S
C1870 C637 2.213 . S
C1879 C925 2.215 . S
C1881 C388 2.209 . S
C1890 C420 2.208 . S
C1892 C932 2.212 . S
C1901 C477 2.208 . S
C1903 C868 2.214 . S
C1912 C1053 2.215 . S
C1914 C676 2.208 . S
C1923 C989 2.212 . S
C1925 C708 2.213 . S
C1934 C1021 2.215 . S
C1936 C740 2.209 . S
C1945 C98 2.000 . S
C1947 C2 1.999 . S
C1956 C38 1.999 . S
C1958 C130 1.999 . S
C1967 C66 1.996 . S
C1969 C162 1.999 . S
C1978 C294 1.997 . S
C1980 C194 1.996 . S
C1989 C226 1.996 . S
C1991 C326 1.999 . S
C2000 C358 1.998 . S
C2002 C258 1.999 . S
C2011 C486 1.997 . S
C2013 C390 2.000 . S
C2022 C422 1.995 . S
C2024 C514 1.999 . S
C2033 C450 1.995 . S
C2035 C546 1.997 . S
C2044 C578 1.996 . S
C2046 C678 1.996 1_554 S
C2055 C610 1.997 . S
C2057 C710 1.996 1_554 S
C2066 C642 1.995 . S
C2068 C742 1.997 1_554 S
C2077 C770 1.999 . S
C2079 C870 1.996 1_556 S
C2088 C898 1.996 1_556 S
C2090 C802 1.999 . S
C2099 C934 1.998 1_556 S
C2101 C838 1.999 . S
C2110 C962 1.996 . S
C2112 C1062 1.999 . S
C2121 C1094 1.998 . S
C2123 C994 1.995 . S
C2132 C1026 1.996 . S
C2134 C1126 1.997 . S
C2143 C4 1.697 . S
C2145 C957 1.690 . S
C2154 C893 1.695 . S
C2156 C61 1.690 1_565 S
C2165 C68 1.691 1_455 S
C2167 C900 1.695 . S
C2176 C445 1.689 . S
C2178 C100 1.695 . S
C2187 C132 1.687 1_545 S
C2189 C452 1.696 . S
C2198 C164 1.692 1_655 S
C2200 C413 1.692 . S
C2209 C765 1.690 . S
C2211 C196 1.694 . S
C2220 C228 1.696 1_545 S
C2222 C701 1.692 . S
C2231 C733 1.694 . S
C2233 C260 1.692 1_655 S
C2242 C317 1.690 . S
C2244 C996 1.694 . S
C2253 C1028 1.691 . S
C2255 C349 1.690 1_565 S
C2264 C964 1.694 . S
C2266 C381 1.690 1_455 S
C2275 C509 1.697 . S
C2277 C804 1.691 . S
C2286 C516 1.690 . S
C2288 C861 1.696 . S
C2297 C548 1.689 . S
C2299 C772 1.696 . S
C2308 C580 1.692 . S
C2310 C1149 1.696 . S
C2319 C612 1.690 . S
C2321 C1085 1.694 . S
C2330 C1117 1.692 . S
C2332 C644 1.692 . S
