# Generated by pormake.
# Topology sow, (4)-cn, num edge types: 1
# Building blocks:
#     Node 0, Type 0, BuildingBlock: MUDLON_clean_sbu_0, # of connection points: 4
#     Node 1, Type 0, BuildingBlock: MUDLON_clean_sbu_0, # of connection points: 4
#     Node 2, Type 0, BuildingBlock: MUDLON_clean_sbu_0, # of connection points: 4
#     Node 3, Type 0, BuildingBlock: MUDLON_clean_sbu_0, # of connection points: 4
#     Node 4, Type 0, BuildingBlock: MUDLON_clean_sbu_0, # of connection points: 4
#     Node 5, Type 0, BuildingBlock: MUDLON_clean_sbu_0, # of connection points: 4
#     Node 6, Type 0, BuildingBlock: MUDLON_clean_sbu_0, # of connection points: 4
#     Node 7, Type 0, BuildingBlock: MUDLON_clean_sbu_0, # of connection points: 4
#     Edge 8, Type (0, 0), BuildingBlock: ZUJKAS_clean_linker_0, # of connection points: 2
#     Edge 9, Type (0, 0), BuildingBlock: ZUJKAS_clean_linker_0, # of connection points: 2
#     Edge 10, Type (0, 0), BuildingBlock: ZUJKAS_clean_linker_0, # of connection points: 2
#     Edge 11, Type (0, 0), BuildingBlock: ZUJKAS_clean_linker_0, # of connection points: 2
#     Edge 12, Type (0, 0), BuildingBlock: ZUJKAS_clean_linker_0, # of connection points: 2
#     Edge 13, Type (0, 0), BuildingBlock: ZUJKAS_clean_linker_0, # of connection points: 2
#     Edge 14, Type (0, 0), BuildingBlock: ZUJKAS_clean_linker_0, # of connection points: 2
#     Edge 15, Type (0, 0), BuildingBlock: ZUJKAS_clean_linker_0, # of connection points: 2
#     Edge 16, Type (0, 0), BuildingBlock: ZUJKAS_clean_linker_0, # of connection points: 2
#     Edge 17, Type (0, 0), BuildingBlock: ZUJKAS_clean_linker_0, # of connection points: 2
#     Edge 18, Type (0, 0), BuildingBlock: ZUJKAS_clean_linker_0, # of connection points: 2
#     Edge 19, Type (0, 0), BuildingBlock: ZUJKAS_clean_linker_0, # of connection points: 2
#     Edge 20, Type (0, 0), BuildingBlock: ZUJKAS_clean_linker_0, # of connection points: 2
#     Edge 21, Type (0, 0), BuildingBlock: ZUJKAS_clean_linker_0, # of connection points: 2
#     Edge 22, Type (0, 0), BuildingBlock: ZUJKAS_clean_linker_0, # of connection points: 2
#     Edge 23, Type (0, 0), BuildingBlock: ZUJKAS_clean_linker_0, # of connection points: 2
# Relax obj value: 0.167
# Max RMSD: 0.252
# Mean RMSD: 0.252
data_MOF--net-sow--node1-MUDLON_clean_sbu_0--edge1-ZUJKAS_clean_linker_0
_symmetry_space_group_name_H-M    P1
_symmetry_Int_Tables_number       1
_symmetry_cell_setting            triclinic
loop_
_symmetry_equiv_pos_as_xyz
'x, y, z'
_cell_length_a     54.146258
_cell_length_b     30.878347
_cell_length_c     32.20542
_cell_angle_alpha  90.011811
_cell_angle_beta   89.71167
_cell_angle_gamma 90.06228
loop_
_atom_site_label
_atom_site_type_symbol
_atom_site_fract_x
_atom_site_fract_y
_atom_site_fract_z
_atom_type_partial_charge
Mg0 Mg 0.14366 0.23687 0.10257 0.0
C1 C 0.11215 0.32477 0.11841 0.0
O2 O 0.11151 0.36659 0.11093 0.0
C3 C 0.16721 0.26326 0.02001 0.0
O4 O 0.14962 0.29233 0.02332 0.0
C5 C 0.09551 0.20232 0.06777 0.0
O6 O 0.09734 0.2395 0.04816 0.0
O7 O 0.11242 0.19199 0.09336 0.0
O8 O 0.13061 0.30361 0.10448 0.0
O9 O 0.16492 0.22684 0.16016 0.0
C10 C 0.18345 0.25169 0.16582 0.0
O11 O 0.18883 0.28024 0.13689 0.0
O12 O 0.16908 0.23457 0.04837 0.0
Mg13 Mg 0.36906 0.31729 0.59916 0.0
C14 C 0.41651 0.26342 0.60574 0.0
O15 O 0.42152 0.28172 0.56986 0.0
C16 C 0.32992 0.27719 0.54046 0.0
O17 O 0.32134 0.26116 0.57546 0.0
C18 C 0.40315 0.3776 0.55113 0.0
O19 O 0.39575 0.35141 0.52152 0.0
O20 O 0.39362 0.37338 0.58725 0.0
O21 O 0.39537 0.26938 0.62215 0.0
O22 O 0.34215 0.32451 0.65087 0.0
C23 C 0.33819 0.29077 0.67289 0.0
O24 O 0.34995 0.25497 0.66311 0.0
O25 O 0.34957 0.29999 0.54124 0.0
Mg26 Mg 0.65305 0.30232 0.91659 0.0
C27 C 0.62755 0.23712 0.8604 0.0
O28 O 0.64875 0.23981 0.84059 0.0
C29 C 0.67331 0.24772 0.99125 0.0
O30 O 0.65753 0.21835 0.9784 0.0
C31 C 0.6108 0.34816 0.9566 0.0
O32 O 0.60919 0.30826 0.97056 0.0
O33 O 0.62895 0.3577 0.93281 0.0
O34 O 0.62537 0.25562 0.89556 0.0
O35 O 0.67783 0.31224 0.86237 0.0
C36 C 0.69835 0.29203 0.86034 0.0
O37 O 0.70525 0.26889 0.89248 0.0
O38 O 0.67483 0.28357 0.97175 0.0
Mg39 Mg 0.86479 0.15738 0.41714 0.0
C40 C 0.90449 0.22326 0.379 0.0
O41 O 0.88948 0.25561 0.38702 0.0
C42 C 0.8268 0.20212 0.47494 0.0
O43 O 0.81274 0.19705 0.44218 0.0
C44 C 0.89713 0.10136 0.46686 0.0
O45 O 0.90025 0.14063 0.48172 0.0
O46 O 0.88097 0.09593 0.43859 0.0
O47 O 0.89833 0.18495 0.38925 0.0
O48 O 0.83729 0.15325 0.36629 0.0
C49 C 0.83239 0.18846 0.34726 0.0
O50 O 0.8431 0.2242 0.36002 0.0
O51 O 0.84937 0.1904 0.47274 0.0
Mg52 Mg 0.86421 0.84768 0.91745 0.0
C53 C 0.82641 0.81868 0.85592 0.0
O54 O 0.83112 0.7834 0.87727 0.0
C55 C 0.90061 0.90119 0.96289 0.0
O56 O 0.9033 0.86205 0.97823 0.0
C57 C 0.8494 0.7903 0.99522 0.0
O58 O 0.86949 0.76799 0.98704 0.0
O59 O 0.84389 0.82232 0.97208 0.0
O60 O 0.83738 0.85363 0.86625 0.0
O61 O 0.89466 0.80931 0.89155 0.0
C62 C 0.90046 0.82115 0.85484 0.0
O63 O 0.88708 0.85125 0.83697 0.0
O64 O 0.8838 0.90719 0.93586 0.0
Mg65 Mg 0.65546 0.69538 0.41849 0.0
C66 C 0.69365 0.72071 0.35588 0.0
O67 O 0.69013 0.75611 0.37778 0.0
C68 C 0.62191 0.63593 0.46933 0.0
O69 O 0.62926 0.66291 0.49832 0.0
C70 C 0.67169 0.74804 0.49704 0.0
O71 O 0.65234 0.77206 0.48866 0.0
O72 O 0.67662 0.71583 0.47366 0.0
O73 O 0.68166 0.68673 0.36623 0.0
O74 O 0.62916 0.74217 0.39386 0.0
C75 C 0.60797 0.74731 0.41032 0.0
O76 O 0.60357 0.73005 0.44688 0.0
O77 O 0.63128 0.63946 0.43304 0.0
Mg78 Mg 0.36568 0.6833 0.09439 0.0
C79 C 0.32548 0.70589 0.15443 0.0
O80 O 0.32942 0.7421 0.134 0.0
C81 C 0.40814 0.63854 0.05426 0.0
O82 O 0.41013 0.67904 0.04214 0.0
C83 C 0.33964 0.6813 0.01121 0.0
O84 O 0.34624 0.64059 0.01529 0.0
O85 O 0.34599 0.70812 0.03934 0.0
O86 O 0.33772 0.67235 0.14364 0.0
O87 O 0.39261 0.7279 0.12198 0.0
C88 C 0.39501 0.72493 0.16122 0.0
O89 O 0.38031 0.69864 0.18174 0.0
O90 O 0.38964 0.62818 0.07693 0.0
Mg91 Mg 0.14046 0.76282 0.59604 0.0
C92 C 0.17674 0.73817 0.66252 0.0
O93 O 0.17626 0.70357 0.6388 0.0
C94 C 0.09209 0.79916 0.56504 0.0
O95 O 0.09355 0.76256 0.54436 0.0
C96 C 0.17463 0.73115 0.52704 0.0
O97 O 0.17069 0.69511 0.54768 0.0
O98 O 0.16454 0.76593 0.54021 0.0
O99 O 0.16311 0.77021 0.65265 0.0
O100 O 0.12589 0.69701 0.59556 0.0
C101 C 0.1065 0.67813 0.60898 0.0
O102 O 0.10371 0.63684 0.60027 0.0
O103 O 0.10947 0.80875 0.59003 0.0
H104 H 0.3052 0.35413 0.69811 0.0
H105 H 0.2764 0.3512 0.7575 0.0
H106 H 0.30313 0.22393 0.78853 0.0
H107 H 0.33167 0.22646 0.72984 0.0
H108 H 0.23842 0.28575 0.77388 0.0
H109 H 0.30839 0.292 0.89908 0.0
H110 H 0.31507 0.30865 0.84643 0.0
H111 H 0.31416 0.25212 0.85958 0.0
C112 C 0.30502 0.32566 0.71774 0.0
C113 C 0.32086 0.29062 0.70912 0.0
C114 C 0.28853 0.32398 0.75164 0.0
C115 C 0.28781 0.28755 0.77789 0.0
C116 C 0.30358 0.25267 0.76926 0.0
H117 H 0.20512 0.20717 0.99945 0.0
H118 H 0.23376 0.2124 0.94019 0.0
C119 C 0.31985 0.25416 0.73539 0.0
C120 C 0.27019 0.28501 0.81365 0.0
H121 H 0.26741 0.27434 0.91936 0.0
C122 C 0.24473 0.28364 0.80572 0.0
C123 C 0.27841 0.28166 0.85521 0.0
C124 C 0.30548 0.28402 0.86582 0.0
C125 C 0.22734 0.27816 0.83802 0.0
C126 C 0.23553 0.27508 0.87971 0.0
C127 C 0.26103 0.27656 0.88757 0.0
C128 C 0.21795 0.27138 0.91558 0.0
C129 C 0.20038 0.27437 0.8269 0.0
C130 C 0.1997 0.30296 0.92205 0.0
C131 C 0.18327 0.29988 0.95563 0.0
C132 C 0.18478 0.26539 0.98415 0.0
C133 C 0.20331 0.23404 0.97808 0.0
C134 C 0.21973 0.23706 0.94421 0.0
H135 H 0.19794 0.26368 0.79423 0.0
H136 H 0.19064 0.25114 0.84761 0.0
H137 H 0.19148 0.30655 0.83023 0.0
H138 H 0.19828 0.33043 0.90131 0.0
H139 H 0.16946 0.32495 0.95938 0.0
H140 H 0.22492 0.2984 0.18331 0.0
H141 H 0.24939 0.29832 0.24661 0.0
H142 H 0.20081 0.20251 0.30018 0.0
H143 H 0.17628 0.20187 0.23622 0.0
H144 H 0.23559 0.32026 0.32479 0.0
H145 H 0.26803 0.14983 0.32331 0.0
H146 H 0.25391 0.17491 0.27874 0.0
H147 H 0.23507 0.15579 0.32107 0.0
C148 C 0.21944 0.27697 0.20834 0.0
C149 C 0.19858 0.25001 0.20443 0.0
C150 C 0.23351 0.27704 0.24468 0.0
C151 C 0.22724 0.25007 0.27821 0.0
C152 C 0.20642 0.22299 0.27453 0.0
H153 H 0.28907 0.22643 0.52772 0.0
H154 H 0.26448 0.21935 0.46451 0.0
C155 C 0.19229 0.22282 0.23797 0.0
C156 C 0.24209 0.25192 0.31727 0.0
H157 H 0.27769 0.19145 0.38297 0.0
C158 C 0.24483 0.29205 0.33738 0.0
C159 C 0.25418 0.21519 0.33396 0.0
C160 C 0.25289 0.17154 0.31303 0.0
C161 C 0.25909 0.29643 0.37359 0.0
C162 C 0.27134 0.25983 0.39006 0.0
C163 C 0.26839 0.21956 0.37032 0.0
C164 C 0.28712 0.2628 0.42792 0.0
C165 C 0.26055 0.34015 0.39437 0.0
C166 C 0.30843 0.28889 0.42832 0.0
C167 C 0.32264 0.29292 0.46447 0.0
C168 C 0.31586 0.27094 0.50111 0.0
C169 C 0.29484 0.24402 0.50024 0.0
C170 C 0.28073 0.23985 0.46404 0.0
H171 H 0.24552 0.36205 0.38403 0.0
H172 H 0.25953 0.33688 0.42867 0.0
H173 H 0.27845 0.35562 0.38634 0.0
H174 H 0.31401 0.30636 0.40067 0.0
H175 H 0.33872 0.3138 0.46386 0.0
H176 H 0.80275 0.12377 0.31448 0.0
H177 H 0.77546 0.12881 0.25368 0.0
H178 H 0.7966 0.26226 0.23694 0.0
H179 H 0.8236 0.25767 0.29701 0.0
H180 H 0.73477 0.18937 0.23889 0.0
H181 H 0.80956 0.20669 0.1218 0.0
H182 H 0.81496 0.18586 0.17337 0.0
H183 H 0.81202 0.24318 0.16503 0.0
C184 C 0.80161 0.15413 0.29778 0.0
C185 C 0.81551 0.19023 0.31072 0.0
C186 C 0.78597 0.15699 0.26305 0.0
C187 C 0.78421 0.19578 0.24029 0.0
C188 C 0.7979 0.23179 0.25345 0.0
H189 H 0.70813 0.30101 0.02654 0.0
H190 H 0.7341 0.28647 0.08698 0.0
C191 C 0.8133 0.22909 0.2881 0.0
C192 C 0.76793 0.19942 0.20311 0.0
H193 H 0.76887 0.22337 0.09937 0.0
C194 C 0.74221 0.19628 0.20826 0.0
C195 C 0.77759 0.20875 0.16315 0.0
C196 C 0.80505 0.21097 0.15525 0.0
C197 C 0.72593 0.20368 0.17494 0.0
C198 C 0.7356 0.21362 0.13504 0.0
C199 C 0.76135 0.21597 0.12983 0.0
C200 C 0.7194 0.22235 0.09842 0.0
C201 C 0.69849 0.20245 0.18321 0.0
C202 C 0.70258 0.19108 0.08414 0.0
C203 C 0.68763 0.19936 0.04955 0.0
C204 C 0.68923 0.23905 0.02812 0.0
C205 C 0.70628 0.27015 0.04224 0.0
C206 C 0.72121 0.26184 0.07685 0.0
H207 H 0.69419 0.20609 0.2168 0.0
H208 H 0.68883 0.22843 0.16586 0.0
H209 H 0.69102 0.17078 0.17286 0.0
H210 H 0.70116 0.15997 0.09947 0.0
H211 H 0.67487 0.17447 0.03953 0.0
H212 H 0.68496 0.31773 0.78151 0.0
H213 H 0.70803 0.30665 0.71651 0.0
H214 H 0.76834 0.25135 0.78535 0.0
H215 H 0.74528 0.26131 0.84996 0.0
H216 H 0.75269 0.33439 0.68648 0.0
H217 H 0.75492 0.15594 0.70332 0.0
H218 H 0.73586 0.1899 0.73583 0.0
H219 H 0.76822 0.18349 0.74685 0.0
C220 C 0.70321 0.30351 0.78283 0.0
C221 C 0.71312 0.29007 0.82107 0.0
C222 C 0.71639 0.29709 0.74558 0.0
C223 C 0.73975 0.2771 0.7457 0.0
C224 C 0.75009 0.26559 0.78407 0.0
H225 H 0.84642 0.19965 0.55375 0.0
H226 H 0.82621 0.22047 0.61922 0.0
C227 C 0.7369 0.27166 0.82116 0.0
C228 C 0.7532 0.2677 0.70591 0.0
H229 H 0.77995 0.18586 0.64972 0.0
C230 C 0.75853 0.30187 0.67841 0.0
C231 C 0.76086 0.22522 0.69504 0.0
C232 C 0.75447 0.18647 0.72158 0.0
C233 C 0.77163 0.29488 0.64102 0.0
C234 C 0.7795 0.25252 0.63049 0.0
C235 C 0.77417 0.21839 0.65791 0.0
C236 C 0.79245 0.24254 0.5905 0.0
C237 C 0.77732 0.33302 0.61332 0.0
C238 C 0.78029 0.24794 0.55245 0.0
C239 C 0.79172 0.23582 0.51506 0.0
C240 C 0.81568 0.21806 0.51466 0.0
C241 C 0.82805 0.21345 0.55276 0.0
C242 C 0.81648 0.22523 0.59027 0.0
H243 H 0.77543 0.36427 0.63014 0.0
H244 H 0.79633 0.33067 0.60041 0.0
H245 H 0.76421 0.33321 0.58694 0.0
H246 H 0.76164 0.26054 0.55173 0.0
H247 H 0.78157 0.2398 0.48643 0.0
H248 H 0.80643 0.82944 0.02109 0.0
H249 H 0.78086 0.81158 0.08161 0.0
H250 H 0.83007 0.70679 0.11204 0.0
H251 H 0.85594 0.72474 0.05186 0.0
H252 H 0.75569 0.73615 0.10326 0.0
H253 H 0.82716 0.77482 0.22061 0.0
H254 H 0.83013 0.79057 0.16687 0.0
H255 H 0.83651 0.7358 0.1823 0.0
C256 C 0.81189 0.8026 0.04062 0.0
C257 C 0.83343 0.77878 0.03158 0.0
C258 C 0.79717 0.79234 0.07525 0.0
C259 C 0.80365 0.75819 0.1019 0.0
C260 C 0.82488 0.73382 0.09254 0.0
H261 H 0.70287 0.65694 0.2973 0.0
H262 H 0.72972 0.66208 0.23564 0.0
C263 C 0.83962 0.74404 0.0579 0.0
C264 C 0.78824 0.74844 0.13947 0.0
H265 H 0.78972 0.74521 0.24567 0.0
C266 C 0.76316 0.73794 0.1344 0.0
C267 C 0.79787 0.75111 0.18023 0.0
C268 C 0.82432 0.76405 0.18806 0.0
C269 C 0.7475 0.73029 0.16876 0.0
C270 C 0.75718 0.73266 0.2095 0.0
C271 C 0.7823 0.74291 0.21453 0.0
C272 C 0.74125 0.72812 0.24737 0.0
C273 C 0.72051 0.7212 0.16121 0.0
C274 C 0.73922 0.76292 0.2752 0.0
C275 C 0.72405 0.75998 0.3104 0.0
C276 C 0.71053 0.722 0.31905 0.0
C277 C 0.71292 0.68671 0.29162 0.0
C278 C 0.72815 0.68974 0.25616 0.0
H279 H 0.71497 0.72955 0.12902 0.0
H280 H 0.71687 0.6862 0.16609 0.0
H281 H 0.70874 0.73969 0.18327 0.0
H282 H 0.74913 0.79282 0.26935 0.0
H283 H 0.72282 0.78785 0.33073 0.0
H284 H 0.66557 0.81284 0.55451 0.0
H285 H 0.69163 0.82981 0.61423 0.0
H286 H 0.73974 0.72356 0.58258 0.0
H287 H 0.71392 0.7066 0.52253 0.0
H288 H 0.70311 0.77953 0.68218 0.0
H289 H 0.78856 0.82331 0.59647 0.0
H290 H 0.75894 0.81859 0.57136 0.0
H291 H 0.77661 0.7709 0.5831 0.0
C292 C 0.68176 0.79315 0.56005 0.0
C293 C 0.68763 0.75841 0.53343 0.0
C294 C 0.69666 0.80291 0.59432 0.0
C295 C 0.71793 0.77846 0.6027 0.0
C296 C 0.72376 0.74357 0.57637 0.0
H297 H 0.79783 0.75027 0.83234 0.0
H298 H 0.77123 0.74393 0.77181 0.0
C299 C 0.70884 0.73371 0.54212 0.0
C300 C 0.7335 0.78857 0.6397 0.0
H301 H 0.79236 0.81387 0.66967 0.0
C302 C 0.72258 0.78729 0.67936 0.0
C303 C 0.75887 0.79938 0.6362 0.0
C304 C 0.77144 0.80359 0.59449 0.0
C305 C 0.73644 0.79513 0.7155 0.0
C306 C 0.76204 0.80408 0.71211 0.0
C307 C 0.7728 0.80672 0.6724 0.0
C308 C 0.77808 0.80889 0.74945 0.0
C309 C 0.72348 0.79391 0.75706 0.0
C310 C 0.79128 0.84737 0.75696 0.0
C311 C 0.80666 0.85119 0.79187 0.0
C312 C 0.80937 0.81636 0.81968 0.0
C313 C 0.79617 0.7779 0.81184 0.0
C314 C 0.78079 0.77423 0.77722 0.0
H315 H 0.70327 0.79905 0.75387 0.0
H316 H 0.72634 0.76168 0.77148 0.0
H317 H 0.731 0.81891 0.77835 0.0
H318 H 0.78963 0.87451 0.73585 0.0
H319 H 0.81665 0.88115 0.79674 0.0
H320 H 0.32659 0.63222 0.94437 0.0
H321 H 0.29858 0.65062 0.88807 0.0
H322 H 0.28777 0.77757 0.94079 0.0
H323 H 0.31626 0.75951 0.99734 0.0
H324 H 0.24954 0.67177 0.89525 0.0
H325 H 0.30079 0.80621 0.81878 0.0
H326 H 0.31517 0.77021 0.85559 0.0
H327 H 0.29511 0.81265 0.87345 0.0
C328 C 0.3185 0.66428 0.94395 0.0
C329 C 0.32377 0.69436 0.97556 0.0
C330 C 0.30241 0.67475 0.91162 0.0
C331 C 0.29112 0.71562 0.90978 0.0
C332 C 0.29654 0.74609 0.94095 0.0
H333 H 0.18281 0.80295 0.72119 0.0
H334 H 0.20927 0.80119 0.78316 0.0
C335 C 0.31278 0.73564 0.97343 0.0
C336 C 0.27282 0.72482 0.87626 0.0
H337 H 0.2619 0.78793 0.79082 0.0
C338 C 0.25224 0.69734 0.87258 0.0
C339 C 0.27609 0.75845 0.84677 0.0
C340 C 0.29805 0.78845 0.84845 0.0
C341 C 0.23523 0.70188 0.84001 0.0
C342 C 0.23899 0.73437 0.8096 0.0
C343 C 0.25903 0.76296 0.81402 0.0
C344 C 0.22335 0.73673 0.77157 0.0
C345 C 0.21338 0.67156 0.83837 0.0
C346 C 0.22277 0.70156 0.744 0.0
C347 C 0.20775 0.70246 0.70882 0.0
C348 C 0.19292 0.73871 0.69994 0.0
C349 C 0.19387 0.77444 0.72711 0.0
C350 C 0.20902 0.7735 0.76251 0.0
H351 H 0.20904 0.65783 0.86945 0.0
H352 H 0.19672 0.68829 0.82642 0.0
H353 H 0.21776 0.64421 0.81722 0.0
H354 H 0.23399 0.67318 0.74973 0.0
H355 H 0.20777 0.67443 0.68859 0.0
H356 H 0.29807 0.77346 0.18386 0.0
H357 H 0.27271 0.7767 0.2465 0.0
H358 H 0.28894 0.64266 0.27185 0.0
H359 H 0.31495 0.63936 0.20922 0.0
H360 H 0.23152 0.73312 0.27017 0.0
H361 H 0.3071 0.69923 0.38114 0.0
H362 H 0.31287 0.71179 0.32724 0.0
H363 H 0.30321 0.65824 0.34218 0.0
C364 C 0.29631 0.7445 0.20261 0.0
C365 C 0.30876 0.70615 0.19143 0.0
C366 C 0.28171 0.74647 0.23856 0.0
C367 C 0.27917 0.71022 0.26452 0.0
C368 C 0.29103 0.67144 0.25296 0.0
H369 H 0.19938 0.66196 0.49448 0.0
H370 H 0.22411 0.65845 0.4311 0.0
C371 C 0.30574 0.66945 0.21689 0.0
C372 C 0.26403 0.71344 0.30341 0.0
H373 H 0.2666 0.70294 0.4091 0.0
C374 C 0.23923 0.72662 0.30055 0.0
C375 C 0.27404 0.70525 0.34321 0.0
C376 C 0.30082 0.69324 0.34885 0.0
C377 C 0.22413 0.73097 0.33607 0.0
C378 C 0.23412 0.72259 0.37582 0.0
C379 C 0.2589 0.70944 0.37871 0.0
C380 C 0.21899 0.72572 0.41469 0.0
C381 C 0.19742 0.74349 0.33062 0.0
C382 C 0.208 0.76495 0.42719 0.0
C383 C 0.19372 0.76714 0.46375 0.0
C384 C 0.1902 0.73014 0.48863 0.0
C385 C 0.20154 0.69115 0.47619 0.0
C386 C 0.21578 0.68904 0.43985 0.0
H387 H 0.19115 0.7386 0.29815 0.0
H388 H 0.18529 0.72441 0.35167 0.0
H389 H 0.19513 0.77827 0.33838 0.0
H390 H 0.21056 0.79398 0.4088 0.0
H391 H 0.18538 0.79773 0.47239 0.0
H392 H 0.0667 0.35859 0.13079 0.0
H393 H 0.03355 0.33169 0.1748 0.0
H394 H 0.07684 0.21873 0.20427 0.0
H395 H 0.11089 0.24665 0.16095 0.0
H396 H 1.00587 0.25875 0.17207 0.0
H397 H 0.05931 0.26476 0.31915 0.0
H398 H 0.07046 0.2892 0.27174 0.0
H399 H 0.07209 0.23155 0.27858 0.0
C400 C 0.0693 0.32793 0.1465 0.0
C401 C 0.09154 0.3048 0.14232 0.0
C402 C 0.05019 0.31249 0.17162 0.0
C403 C 0.05273 0.27349 0.19342 0.0
C404 C 0.07459 0.24935 0.18838 0.0
H405 H 0.94221 0.16576 0.36592 0.0
H406 H 0.97868 0.17495 0.32152 0.0
C407 C 0.09393 0.265 0.16314 0.0
C408 C 0.03236 0.25951 0.22174 0.0
H409 H 0.01743 0.2447 0.32417 0.0
C410 C 0.00848 0.25533 0.20528 0.0
C411 C 0.03569 0.25511 0.26516 0.0
C412 C 0.0607 0.26067 0.28494 0.0
C413 C 0.98786 0.24798 0.231 0.0
C414 C 0.9911 0.24494 0.27442 0.0
C415 C 0.01503 0.24736 0.29086 0.0
C416 C 0.9697 0.24035 0.30315 0.0
C417 C 0.96266 0.24391 0.21161 0.0
C418 C 0.95283 0.27448 0.30832 0.0
C419 C 0.93202 0.26953 0.33396 0.0
C420 C 0.92761 0.23018 0.35473 0.0
C421 C 0.94493 0.19645 0.35025 0.0
C422 C 0.96583 0.2016 0.32491 0.0
H423 H 0.96385 0.23799 0.17763 0.0
H424 H 0.95204 0.21712 0.22625 0.0
H425 H 0.95224 0.2744 0.21673 0.0
H426 H 0.95563 0.30485 0.29211 0.0
H427 H 0.91911 0.29615 0.33665 0.0
H428 H 0.46332 0.24323 0.5799 0.0
H429 H 0.49842 0.22306 0.62321 0.0
H430 H 0.45106 0.22201 0.73128 0.0
H431 H 0.41577 0.2409 0.68807 0.0
H432 H 0.51626 0.27347 0.68255 0.0
H433 H 0.49159 0.1158 0.75328 0.0
H434 H 0.47525 0.13776 0.70934 0.0
H435 H 0.46813 0.15598 0.76114 0.0
C436 C 0.46022 0.2376 0.61272 0.0
C437 C 0.43671 0.24383 0.63047 0.0
C438 C 0.48034 0.22614 0.63749 0.0
C439 C 0.47744 0.22067 0.68056 0.0
C440 C 0.45376 0.22501 0.69808 0.0
H441 H 0.57908 0.24032 0.88603 0.0
H442 H 0.54242 0.23023 0.84273 0.0
C443 C 0.43357 0.2361 0.67326 0.0
C444 C 0.49954 0.21568 0.70752 0.0
H445 H 0.52472 0.155 0.78554 0.0
C446 C 0.51819 0.2472 0.70464 0.0
C447 C 0.50206 0.18162 0.7367 0.0
C448 C 0.4833 0.14564 0.74007 0.0
C449 C 0.53896 0.24614 0.73049 0.0
C450 C 0.54132 0.21249 0.75995 0.0
C451 C 0.52281 0.18077 0.7629 0.0
C452 C 0.5629 0.21069 0.78808 0.0
C453 C 0.55804 0.28163 0.72679 0.0
C454 C 0.58644 0.20131 0.77213 0.0
C455 C 0.60741 0.20692 0.79674 0.0
C456 C 0.60524 0.2222 0.83778 0.0
C457 C 0.58145 0.22859 0.85456 0.0
C458 C 0.56046 0.22286 0.82988 0.0
H459 H 0.55151 0.30904 0.70739 0.0
H460 H 0.563 0.29421 0.75797 0.0
H461 H 0.57506 0.26831 0.71231 0.0
H462 H 0.58867 0.1916 0.74 0.0
H463 H 0.62539 0.20144 0.78282 0.0
H464 H 0.11085 0.74878 0.66124 0.0
H465 H 0.07883 0.77732 0.7085 0.0
H466 H 0.02655 0.68547 0.65931 0.0
H467 H 0.05818 0.65682 0.61291 0.0
H468 H 0.0319 0.81269 0.6972 0.0
H469 H 0.02477 0.65805 0.78276 0.0
H470 H 0.0498 0.6696 0.74723 0.0
H471 H 0.02056 0.6505 0.72804 0.0
C472 C 0.09242 0.73523 0.66017 0.0
C473 C 0.08709 0.70032 0.63364 0.0
C474 C 0.07419 0.75133 0.68733 0.0
C475 C 0.05047 0.73261 0.68833 0.0
C476 C 0.04488 0.69951 0.66011 0.0
H477 H 0.91021 0.82492 0.77218 0.0
H478 H 0.94809 0.80496 0.73589 0.0
C479 C 0.06299 0.68335 0.63337 0.0
C480 C 0.03137 0.74677 0.71885 0.0
H481 H 0.99062 0.70713 0.79087 0.0
C482 C 0.0231 0.78979 0.71811 0.0
C483 C 0.02022 0.7172 0.74692 0.0
C484 C 0.02948 0.67139 0.75167 0.0
C485 C 1.00309 0.80337 0.74293 0.0
C486 C 0.99059 0.77282 0.76843 0.0
C487 C 0.99982 0.73045 0.7709 0.0
C488 C 0.96725 0.78352 0.79099 0.0
C489 C 0.99556 0.85037 0.74143 0.0
C490 C 0.96469 0.77578 0.83389 0.0
C491 C 0.94266 0.78634 0.85477 0.0
C492 C 0.92285 0.80492 0.83307 0.0
C493 C 0.92522 0.81117 0.78997 0.0
C494 C 0.94702 0.80022 0.76917 0.0
H495 H 0.01147 0.87146 0.73312 0.0
H496 H 0.98128 0.85471 0.71719 0.0
H497 H 0.98785 0.86137 0.77165 0.0
H498 H 0.97991 0.76234 0.85137 0.0
H499 H 0.94143 0.78123 0.88798 0.0
H500 H 0.39792 0.74138 0.24369 0.0
H501 H 0.43461 0.76047 0.28328 0.0
H502 H 0.47669 0.77102 0.16969 0.0
H503 H 0.43969 0.75241 0.12955 0.0
H504 H 0.47556 0.70656 0.27986 0.0
H505 H 0.5015 0.8754 0.23836 0.0
H506 H 0.47088 0.85394 0.22982 0.0
H507 H 0.49576 0.83943 0.19553 0.0
C508 C 0.41482 0.74881 0.22697 0.0
C509 C 0.41595 0.74512 0.1835 0.0
C510 C 0.43579 0.75975 0.24969 0.0
C511 C 0.45841 0.76724 0.22953 0.0
C512 C 0.45935 0.76607 0.1859 0.0
H513 H 0.60804 0.76781 0.32733 0.0
H514 H 0.57189 0.77797 0.28304 0.0
C515 C 0.4382 0.75535 0.16298 0.0
C516 C 0.48129 0.77038 0.25468 0.0
H517 H 0.52966 0.83631 0.28045 0.0
C518 C 0.4873 0.73505 0.28009 0.0
C519 C 0.49677 0.80732 0.25456 0.0
C520 C 0.49091 0.8464 0.22837 0.0
C521 C 0.50826 0.73556 0.30544 0.0
C522 C 0.52348 0.77284 0.30614 0.0
C523 C 0.51781 0.80798 0.28017 0.0
C524 C 0.54545 0.77499 0.3335 0.0
C525 C 0.51416 0.69577 0.33079 0.0
C526 C 0.54265 0.77206 0.37676 0.0
C527 C 0.56323 0.76603 0.40217 0.0
C528 C 0.58706 0.76312 0.3848 0.0
C529 C 0.58997 0.7697 0.34177 0.0
C530 C 0.56931 0.77553 0.31634 0.0
H531 H 0.50433 0.66664 0.31911 0.0
H532 H 0.53431 0.6891 0.33054 0.0
H533 H 0.50829 0.70119 0.36344 0.0
H534 H 0.5244 0.77231 0.39071 0.0
H535 H 0.56031 0.76151 0.43518 0.0
H536 H 0.05791 0.215 0.01278 0.0
H537 H 0.02336 0.16691 0.99709 0.0
H538 H 0.05018 0.07467 0.08658 0.0
H539 H 0.08482 0.12297 0.10285 0.0
H540 H 0.02456 0.08338 0.96618 0.0
H541 H 0.97747 0.0865 0.1195 0.0
H542 H 1.00101 0.12521 0.10514 0.0
H543 H 0.0095 0.07168 0.12169 0.0
C544 C 0.05646 0.18462 0.02941 0.0
C545 C 0.07423 0.17298 0.05919 0.0
C546 C 0.03664 0.15708 0.0203 0.0
C547 C 0.0339 0.11732 0.04094 0.0
C548 C 0.05157 0.10552 0.07076 0.0
H549 H 0.93583 0.89732 0.02297 0.0
H550 H 0.96682 0.95142 0.04084 0.0
C551 C 0.07149 0.13308 0.07986 0.0
C552 C 0.01303 0.08777 0.03009 0.0
H553 H 0.96274 0.03512 0.07052 0.0
C554 C 0.01094 0.07307 0.98894 0.0
C555 C 0.99519 0.07432 0.05971 0.0
C556 C 0.99568 0.0905 0.1039 0.0
C557 C 0.99201 0.04444 0.9769 0.0
C558 C 0.97429 0.03066 1.0066 0.0
C559 C 0.97624 0.0457 0.04767 0.0
C560 C 0.95441 0.99887 0.99624 0.0
C561 C 0.99166 0.02804 0.93276 0.0
C562 C 0.93661 0.00766 0.96567 0.0
C563 C 0.91868 0.97655 0.95525 0.0
C564 C 0.91818 0.93606 0.9753 0.0
C565 C 0.93564 0.92799 1.00666 0.0
C566 C 0.95343 0.95899 0.01704 0.0
H567 H 0.00959 0.03355 0.91668 0.0
H568 H 0.98735 0.99288 0.93184 0.0
H569 H 0.97714 0.04543 0.91523 0.0
H570 H 0.93663 0.03852 0.9497 0.0
H571 H 0.90551 0.98394 0.93108 0.0
H572 H 0.59634 0.58386 0.4146 0.0
H573 H 0.55917 0.54056 0.4289 0.0
H574 H 0.56242 0.57712 0.55791 0.0
H575 H 0.5992 0.6206 0.54393 0.0
H576 H 0.55027 0.47115 0.48295 0.0
H577 H 0.49225 0.61179 0.52723 0.0
H578 H 0.52169 0.6178 0.50134 0.0
H579 H 0.52035 0.60764 0.55629 0.0
C580 C 0.58925 0.58244 0.44607 0.0
C581 C 0.60078 0.60604 0.47801 0.0
C582 C 0.56793 0.55773 0.4542 0.0
C583 C 0.55758 0.55627 0.49435 0.0
C584 C 0.56958 0.57853 0.52648 0.0
H585 H 0.4287 0.42864 0.60688 0.0
H586 H 0.46603 0.47188 0.59344 0.0
C587 C 0.59081 0.60319 0.51842 0.0
C588 C 0.53431 0.53151 0.50281 0.0
H589 H 0.47514 0.5421 0.53965 0.0
C590 C 0.53381 0.48674 0.49512 0.0
C591 C 0.51276 0.55169 0.51888 0.0
C592 C 0.51161 0.59993 0.52609 0.0
C593 C 0.51266 0.46158 0.50373 0.0
C594 C 0.49111 0.48176 0.51977 0.0
C595 C 0.49161 0.52652 0.52752 0.0
C596 C 0.46777 0.45707 0.52781 0.0
C597 C 0.51378 0.41335 0.49642 0.0
C598 C 0.45582 0.43535 0.4953 0.0
C599 C 0.4345 0.41078 0.50285 0.0
C600 C 0.4244 0.40742 0.54313 0.0
C601 C 0.43589 0.43045 0.57549 0.0
C602 C 0.4573 0.45512 0.56785 0.0
H603 H 0.53313 0.40144 0.49534 0.0
H604 H 0.50363 0.39545 0.52108 0.0
H605 H 0.50508 0.40574 0.46616 0.0
H606 H 0.46309 0.43714 0.46395 0.0
H607 H 0.42615 0.39382 0.47703 0.0
H608 H 0.41359 0.55309 0.07864 0.0
H609 H 0.44816 0.50416 0.06236 0.0
H610 H 0.4822 0.60411 0.98819 0.0
H611 H 0.44821 0.65292 1.00447 0.0
H612 H 0.46655 0.47379 0.98604 0.0
H613 H 0.53806 0.57104 0.06602 0.0
H614 H 0.50544 0.58008 0.07381 0.0
H615 H 0.52079 0.60128 0.0285 0.0
C616 C 0.42843 0.56459 0.05882 0.0
C617 C 0.4281 0.60715 0.04318 0.0
C618 C 0.44821 0.5366 0.04956 0.0
C619 C 0.46815 0.55067 0.02473 0.0
C620 C 0.46746 0.59271 0.00826 0.0
H621 H 0.60523 0.43305 0.93041 0.0
H622 H 0.57071 0.48235 0.94602 0.0
C623 C 0.44781 0.62057 0.01745 0.0
C624 C 0.48954 0.52155 0.01542 0.0
H625 H 0.55248 0.51368 0.02301 0.0
C626 C 0.4853 0.4824 0.99439 0.0
C627 C 0.51413 0.53278 0.02599 0.0
C628 C 0.51993 0.57338 0.05017 0.0
C629 C 0.50489 0.45471 0.98307 0.0
C630 C 0.52947 0.46593 0.99367 0.0
C631 C 0.53372 0.50509 0.01464 0.0
C632 C 0.55082 0.43662 0.98465 0.0
C633 C 0.49911 0.41403 0.95902 0.0
C634 C 0.55152 0.39491 1.00186 0.0
C635 C 0.57115 0.36687 0.99311 0.0
C636 C 0.59081 0.37974 0.96702 0.0
C637 C 0.59044 0.42197 0.95052 0.0
C638 C 0.57069 0.45017 0.95941 0.0
H639 H 0.48094 0.41622 0.94328 0.0
H640 H 0.51357 0.40736 0.93531 0.0
H641 H 0.49837 0.38617 0.98075 0.0
H642 H 0.5368 0.38394 0.0222 0.0
H643 H 0.57077 0.3348 1.00671 0.0
H644 H 0.08256 0.8785 0.60112 0.0
H645 H 0.0476 0.92701 0.58754 0.0
H646 H 0.01859 0.83545 0.49923 0.0
H647 H 0.05304 0.78681 0.51296 0.0
H648 H 0.0343 0.96545 0.51361 0.0
H649 H 0.95782 0.86073 0.56916 0.0
H650 H 0.98975 0.84991 0.58123 0.0
H651 H 0.97739 0.83485 0.53151 0.0
C652 C 0.06863 0.86855 0.57907 0.0
C653 C 0.07067 0.82863 0.55822 0.0
C654 C 0.04864 0.89633 0.5713 0.0
C655 C 0.03016 0.88468 0.54281 0.0
C656 C 0.03219 0.84485 0.52206 0.0
H657 H 0.90314 0.01925 0.43382 0.0
H658 H 0.93483 0.96563 0.45243 0.0
C659 C 0.0521 0.81714 0.52978 0.0
C660 C 0.00943 0.91493 0.53314 0.0
H661 H 0.94636 0.92321 0.53029 0.0
C662 C 0.01509 0.95627 0.51757 0.0
C663 C 0.98428 0.90298 0.53796 0.0
C664 C 0.97688 0.85987 0.55624 0.0
C665 C 0.99644 0.98559 0.50614 0.0
C666 C 0.9713 0.97366 0.51094 0.0
C667 C 0.96559 0.93231 0.52641 0.0
C668 C 0.95086 0.00444 0.50136 0.0
C669 C 1.00382 0.02889 0.48822 0.0
C670 C 0.94877 0.0434 0.52348 0.0
C671 C 0.93076 0.07387 0.51303 0.0
C672 C 0.91419 0.06618 0.48024 0.0
C673 C 0.91557 0.02627 0.45919 0.0
C674 C 0.93371 0.99564 0.46975 0.0
H675 H 0.02314 0.02862 0.47639 0.0
H676 H 0.99136 0.03838 0.4625 0.0
H677 H 1.00251 0.05395 0.51283 0.0
H678 H 0.96138 0.05058 0.54857 0.0
H679 H 0.93018 0.10397 0.53027 0.0
loop_
_geom_bond_atom_site_label_1
_geom_bond_atom_site_label_2
_geom_bond_distance
_geom_bond_site_symmetry_2
_ccdc_geom_bond_type
Mg0 O7 2.141 . S
Mg0 O8 2.048 . S
Mg0 O9 2.048 . S
Mg0 O12 2.141 . S
C1 O2 1.313 . S
C1 O8 1.195 . S
O2 C1 1.313 . S
C3 O4 1.245 . S
C3 O12 1.289 . S
O4 C3 1.245 . S
C5 O6 1.245 . S
C5 O7 1.289 . S
O6 C5 1.245 . S
O7 Mg0 2.141 . S
O7 C5 1.289 . S
O8 Mg0 2.048 . S
O8 C1 1.195 . S
O9 Mg0 2.048 . S
O9 C10 1.195 . S
C10 O9 1.195 . S
C10 O11 1.313 . S
O11 C10 1.313 . S
O12 Mg0 2.141 . S
O12 C3 1.289 . S
Mg13 O20 2.141 . S
Mg13 O21 2.048 . S
Mg13 O22 2.048 . S
Mg13 O25 2.141 . S
C14 O15 1.313 . S
C14 O21 1.195 . S
O15 C14 1.313 . S
C16 O17 1.245 . S
C16 O25 1.289 . S
O17 C16 1.245 . S
C18 O19 1.245 . S
C18 O20 1.289 . S
O19 C18 1.245 . S
O20 Mg13 2.141 . S
O20 C18 1.289 . S
O21 Mg13 2.048 . S
O21 C14 1.195 . S
O22 Mg13 2.048 . S
O22 C23 1.195 . S
C23 O22 1.195 . S
C23 O24 1.313 . S
O24 C23 1.313 . S
O25 Mg13 2.141 . S
O25 C16 1.289 . S
Mg26 O33 2.141 . S
Mg26 O34 2.048 . S
Mg26 O35 2.048 . S
Mg26 O38 2.141 . S
C27 O28 1.313 . S
C27 O34 1.195 . S
O28 C27 1.313 . S
C29 O30 1.245 . S
C29 O38 1.289 . S
O30 C29 1.245 . S
C31 O32 1.245 . S
C31 O33 1.289 . S
O32 C31 1.245 . S
O33 Mg26 2.141 . S
O33 C31 1.289 . S
O34 Mg26 2.048 . S
O34 C27 1.195 . S
O35 Mg26 2.048 . S
O35 C36 1.195 . S
C36 O35 1.195 . S
C36 O37 1.313 . S
O37 C36 1.313 . S
O38 Mg26 2.141 . S
O38 C29 1.289 . S
Mg39 O46 2.141 . S
Mg39 O47 2.048 . S
Mg39 O48 2.048 . S
Mg39 O51 2.141 . S
C40 O41 1.313 . S
C40 O47 1.195 . S
O41 C40 1.313 . S
C42 O43 1.245 . S
C42 O51 1.289 . S
O43 C42 1.245 . S
C44 O45 1.245 . S
C44 O46 1.289 . S
O45 C44 1.245 . S
O46 Mg39 2.141 . S
O46 C44 1.289 . S
O47 Mg39 2.048 . S
O47 C40 1.195 . S
O48 Mg39 2.048 . S
O48 C49 1.195 . S
C49 O48 1.195 . S
C49 O50 1.313 . S
O50 C49 1.313 . S
O51 Mg39 2.141 . S
O51 C42 1.289 . S
Mg52 O59 2.141 . S
Mg52 O60 2.048 . S
Mg52 O61 2.048 . S
Mg52 O64 2.141 . S
C53 O54 1.313 . S
C53 O60 1.195 . S
O54 C53 1.313 . S
C55 O56 1.245 . S
C55 O64 1.289 . S
O56 C55 1.245 . S
C57 O58 1.245 . S
C57 O59 1.289 . S
O58 C57 1.245 . S
O59 Mg52 2.141 . S
O59 C57 1.289 . S
O60 Mg52 2.048 . S
O60 C53 1.195 . S
O61 Mg52 2.048 . S
O61 C62 1.195 . S
C62 O61 1.195 . S
C62 O63 1.313 . S
O63 C62 1.313 . S
O64 Mg52 2.141 . S
O64 C55 1.289 . S
Mg65 O72 2.141 . S
Mg65 O73 2.048 . S
Mg65 O74 2.048 . S
Mg65 O77 2.141 . S
C66 O67 1.313 . S
C66 O73 1.195 . S
O67 C66 1.313 . S
C68 O69 1.245 . S
C68 O77 1.289 . S
O69 C68 1.245 . S
C70 O71 1.245 . S
C70 O72 1.289 . S
O71 C70 1.245 . S
O72 Mg65 2.141 . S
O72 C70 1.289 . S
O73 Mg65 2.048 . S
O73 C66 1.195 . S
O74 Mg65 2.048 . S
O74 C75 1.195 . S
C75 O74 1.195 . S
C75 O76 1.313 . S
O76 C75 1.313 . S
O77 Mg65 2.141 . S
O77 C68 1.289 . S
Mg78 O85 2.141 . S
Mg78 O86 2.048 . S
Mg78 O87 2.048 . S
Mg78 O90 2.141 . S
C79 O80 1.313 . S
C79 O86 1.195 . S
O80 C79 1.313 . S
C81 O82 1.245 . S
C81 O90 1.289 . S
O82 C81 1.245 . S
C83 O84 1.245 . S
C83 O85 1.289 . S
O84 C83 1.245 . S
O85 Mg78 2.141 . S
O85 C83 1.289 . S
O86 Mg78 2.048 . S
O86 C79 1.195 . S
O87 Mg78 2.048 . S
O87 C88 1.195 . S
C88 O87 1.195 . S
C88 O89 1.313 . S
O89 C88 1.313 . S
O90 Mg78 2.141 . S
O90 C81 1.289 . S
Mg91 O98 2.141 . S
Mg91 O99 2.048 . S
Mg91 O100 2.048 . S
Mg91 O103 2.141 . S
C92 O93 1.313 . S
C92 O99 1.195 . S
O93 C92 1.313 . S
C94 O95 1.245 . S
C94 O103 1.289 . S
O95 C94 1.245 . S
C96 O97 1.245 . S
C96 O98 1.289 . S
O97 C96 1.245 . S
O98 Mg91 2.141 . S
O98 C96 1.289 . S
O99 Mg91 2.048 . S
O99 C92 1.195 . S
O100 Mg91 2.048 . S
O100 C101 1.195 . S
C101 O100 1.195 . S
C101 O102 1.313 . S
O102 C101 1.313 . S
O103 Mg91 2.141 . S
O103 C94 1.289 . S
H104 C112 0.929 . S
H105 C114 0.930 . S
H106 C116 0.930 . S
H107 C119 0.929 . S
H108 C122 0.930 . S
H109 C124 0.960 . S
H110 C124 0.960 . S
H111 C124 0.960 . S
C112 H104 0.929 . S
C112 C113 1.377 . S
C112 C114 1.384 . S
C113 C112 1.377 . S
C113 C119 1.390 . S
C114 H105 0.930 . S
C114 C112 1.384 . S
C114 C115 1.372 . S
C115 C114 1.372 . S
C115 C116 1.400 . S
C115 C120 1.490 . S
C116 H106 0.930 . S
C116 C115 1.400 . S
C116 C119 1.386 . S
H117 C133 0.930 . S
H118 C134 0.931 . S
C119 H107 0.929 . S
C119 C113 1.390 . S
C119 C116 1.386 . S
C120 C115 1.490 . S
C120 C122 1.395 . S
C120 C123 1.403 . S
H121 C127 0.930 . S
C122 H108 0.930 . S
C122 C120 1.395 . S
C122 C125 1.403 . S
C123 C120 1.403 . S
C123 C124 1.524 . S
C123 C127 1.400 . S
C124 H109 0.960 . S
C124 H110 0.960 . S
C124 H111 0.960 . S
C124 C123 1.524 . S
C125 C122 1.403 . S
C125 C126 1.392 . S
C125 C129 1.495 . S
C126 C125 1.392 . S
C126 C127 1.385 . S
C126 C128 1.478 . S
C127 H121 0.930 . S
C127 C123 1.400 . S
C127 C126 1.385 . S
C128 C126 1.478 . S
C128 C130 1.381 . S
C128 C134 1.383 . S
C129 C125 1.495 . S
C129 H135 0.959 . S
C129 H136 0.961 . S
C129 H137 0.960 . S
C130 C128 1.381 . S
C130 C131 1.394 . S
C130 H138 0.930 . S
C131 C130 1.394 . S
C131 C132 1.383 . S
C131 H139 0.929 . S
C132 C131 1.383 . S
C132 C133 1.377 . S
C133 H117 0.930 . S
C133 C132 1.377 . S
C133 C134 1.379 . S
C134 H118 0.931 . S
C134 C128 1.383 . S
C134 C133 1.379 . S
H135 C129 0.959 . S
H136 C129 0.961 . S
H137 C129 0.960 . S
H138 C130 0.930 . S
H139 C131 0.929 . S
H140 C148 0.929 . S
H141 C150 0.930 . S
H142 C152 0.930 . S
H143 C155 0.929 . S
H144 C158 0.930 . S
H145 C160 0.960 . S
H146 C160 0.960 . S
H147 C160 0.960 . S
C148 H140 0.929 . S
C148 C149 1.377 . S
C148 C150 1.384 . S
C149 C148 1.377 . S
C149 C155 1.390 . S
C150 H141 0.930 . S
C150 C148 1.384 . S
C150 C151 1.372 . S
C151 C150 1.372 . S
C151 C152 1.400 . S
C151 C156 1.490 . S
C152 H142 0.930 . S
C152 C151 1.400 . S
C152 C155 1.386 . S
H153 C169 0.930 . S
H154 C170 0.931 . S
C155 H143 0.929 . S
C155 C149 1.390 . S
C155 C152 1.386 . S
C156 C151 1.490 . S
C156 C158 1.395 . S
C156 C159 1.403 . S
H157 C163 0.930 . S
C158 H144 0.930 . S
C158 C156 1.395 . S
C158 C161 1.403 . S
C159 C156 1.403 . S
C159 C160 1.524 . S
C159 C163 1.400 . S
C160 H145 0.960 . S
C160 H146 0.960 . S
C160 H147 0.960 . S
C160 C159 1.524 . S
C161 C158 1.403 . S
C161 C162 1.392 . S
C161 C165 1.495 . S
C162 C161 1.392 . S
C162 C163 1.385 . S
C162 C164 1.478 . S
C163 H157 0.930 . S
C163 C159 1.400 . S
C163 C162 1.385 . S
C164 C162 1.478 . S
C164 C166 1.381 . S
C164 C170 1.383 . S
C165 C161 1.495 . S
C165 H171 0.959 . S
C165 H172 0.961 . S
C165 H173 0.960 . S
C166 C164 1.381 . S
C166 C167 1.394 . S
C166 H174 0.930 . S
C167 C166 1.394 . S
C167 C168 1.383 . S
C167 H175 0.929 . S
C168 C167 1.383 . S
C168 C169 1.377 . S
C169 H153 0.930 . S
C169 C168 1.377 . S
C169 C170 1.379 . S
C170 H154 0.931 . S
C170 C164 1.383 . S
C170 C169 1.379 . S
H171 C165 0.959 . S
H172 C165 0.961 . S
H173 C165 0.960 . S
H174 C166 0.930 . S
H175 C167 0.929 . S
H176 C184 0.929 . S
H177 C186 0.930 . S
H178 C188 0.930 . S
H179 C191 0.929 . S
H180 C194 0.930 . S
H181 C196 0.960 . S
H182 C196 0.960 . S
H183 C196 0.960 . S
C184 H176 0.929 . S
C184 C185 1.377 . S
C184 C186 1.384 . S
C185 C184 1.377 . S
C185 C191 1.390 . S
C186 H177 0.930 . S
C186 C184 1.384 . S
C186 C187 1.372 . S
C187 C186 1.372 . S
C187 C188 1.400 . S
C187 C192 1.490 . S
C188 H178 0.930 . S
C188 C187 1.400 . S
C188 C191 1.386 . S
H189 C205 0.930 . S
H190 C206 0.931 . S
C191 H179 0.929 . S
C191 C185 1.390 . S
C191 C188 1.386 . S
C192 C187 1.490 . S
C192 C194 1.395 . S
C192 C195 1.403 . S
H193 C199 0.930 . S
C194 H180 0.930 . S
C194 C192 1.395 . S
C194 C197 1.403 . S
C195 C192 1.403 . S
C195 C196 1.524 . S
C195 C199 1.400 . S
C196 H181 0.960 . S
C196 H182 0.960 . S
C196 H183 0.960 . S
C196 C195 1.524 . S
C197 C194 1.403 . S
C197 C198 1.392 . S
C197 C201 1.495 . S
C198 C197 1.392 . S
C198 C199 1.385 . S
C198 C200 1.478 . S
C199 H193 0.930 . S
C199 C195 1.400 . S
C199 C198 1.385 . S
C200 C198 1.478 . S
C200 C202 1.381 . S
C200 C206 1.383 . S
C201 C197 1.495 . S
C201 H207 0.959 . S
C201 H208 0.961 . S
C201 H209 0.960 . S
C202 C200 1.381 . S
C202 C203 1.394 . S
C202 H210 0.930 . S
C203 C202 1.394 . S
C203 C204 1.383 . S
C203 H211 0.929 . S
C204 C203 1.383 . S
C204 C205 1.377 . S
C205 H189 0.930 . S
C205 C204 1.377 . S
C205 C206 1.379 . S
C206 H190 0.931 . S
C206 C200 1.383 . S
C206 C205 1.379 . S
H207 C201 0.959 . S
H208 C201 0.961 . S
H209 C201 0.960 . S
H210 C202 0.930 . S
H211 C203 0.929 . S
H212 C220 0.929 . S
H213 C222 0.930 . S
H214 C224 0.930 . S
H215 C227 0.929 . S
H216 C230 0.930 . S
H217 C232 0.960 . S
H218 C232 0.960 . S
H219 C232 0.960 . S
C220 H212 0.929 . S
C220 C221 1.377 . S
C220 C222 1.384 . S
C221 C220 1.377 . S
C221 C227 1.390 . S
C222 H213 0.930 . S
C222 C220 1.384 . S
C222 C223 1.372 . S
C223 C222 1.372 . S
C223 C224 1.400 . S
C223 C228 1.490 . S
C224 H214 0.930 . S
C224 C223 1.400 . S
C224 C227 1.386 . S
H225 C241 0.930 . S
H226 C242 0.931 . S
C227 H215 0.929 . S
C227 C221 1.390 . S
C227 C224 1.386 . S
C228 C223 1.490 . S
C228 C230 1.395 . S
C228 C231 1.403 . S
H229 C235 0.930 . S
C230 H216 0.930 . S
C230 C228 1.395 . S
C230 C233 1.403 . S
C231 C228 1.403 . S
C231 C232 1.524 . S
C231 C235 1.400 . S
C232 H217 0.960 . S
C232 H218 0.960 . S
C232 H219 0.960 . S
C232 C231 1.524 . S
C233 C230 1.403 . S
C233 C234 1.392 . S
C233 C237 1.495 . S
C234 C233 1.392 . S
C234 C235 1.385 . S
C234 C236 1.478 . S
C235 H229 0.930 . S
C235 C231 1.400 . S
C235 C234 1.385 . S
C236 C234 1.478 . S
C236 C238 1.381 . S
C236 C242 1.383 . S
C237 C233 1.495 . S
C237 H243 0.959 . S
C237 H244 0.961 . S
C237 H245 0.960 . S
C238 C236 1.381 . S
C238 C239 1.394 . S
C238 H246 0.930 . S
C239 C238 1.394 . S
C239 C240 1.383 . S
C239 H247 0.929 . S
C240 C239 1.383 . S
C240 C241 1.377 . S
C241 H225 0.930 . S
C241 C240 1.377 . S
C241 C242 1.379 . S
C242 H226 0.931 . S
C242 C236 1.383 . S
C242 C241 1.379 . S
H243 C237 0.959 . S
H244 C237 0.961 . S
H245 C237 0.960 . S
H246 C238 0.930 . S
H247 C239 0.929 . S
H248 C256 0.914 1_556 S
H249 C258 0.930 . S
H250 C260 0.930 . S
H251 C263 0.929 . S
H252 C266 0.930 . S
H253 C268 0.960 . S
H254 C268 0.960 . S
H255 C268 0.960 . S
C256 H248 0.914 1_554 S
C256 C257 1.377 . S
C256 C258 1.384 . S
C257 C256 1.377 . S
C257 C263 1.390 . S
C258 H249 0.930 . S
C258 C256 1.384 . S
C258 C259 1.372 . S
C259 C258 1.372 . S
C259 C260 1.400 . S
C259 C264 1.490 . S
C260 H250 0.930 . S
C260 C259 1.400 . S
C260 C263 1.386 . S
H261 C277 0.930 . S
H262 C278 0.931 . S
C263 H251 0.929 . S
C263 C257 1.390 . S
C263 C260 1.386 . S
C264 C259 1.490 . S
C264 C266 1.395 . S
C264 C267 1.403 . S
H265 C271 0.930 . S
C266 H252 0.930 . S
C266 C264 1.395 . S
C266 C269 1.403 . S
C267 C264 1.403 . S
C267 C268 1.524 . S
C267 C271 1.400 . S
C268 H253 0.960 . S
C268 H254 0.960 . S
C268 H255 0.960 . S
C268 C267 1.524 . S
C269 C266 1.403 . S
C269 C270 1.392 . S
C269 C273 1.495 . S
C270 C269 1.392 . S
C270 C271 1.385 . S
C270 C272 1.478 . S
C271 H265 0.930 . S
C271 C267 1.400 . S
C271 C270 1.385 . S
C272 C270 1.478 . S
C272 C274 1.381 . S
C272 C278 1.383 . S
C273 C269 1.495 . S
C273 H279 0.959 . S
C273 H280 0.961 . S
C273 H281 0.960 . S
C274 C272 1.381 . S
C274 C275 1.394 . S
C274 H282 0.930 . S
C275 C274 1.394 . S
C275 C276 1.383 . S
C275 H283 0.929 . S
C276 C275 1.383 . S
C276 C277 1.377 . S
C277 H261 0.930 . S
C277 C276 1.377 . S
C277 C278 1.379 . S
C278 H262 0.931 . S
C278 C272 1.383 . S
C278 C277 1.379 . S
H279 C273 0.959 . S
H280 C273 0.961 . S
H281 C273 0.960 . S
H282 C274 0.930 . S
H283 C275 0.929 . S
H284 C292 0.929 . S
H285 C294 0.930 . S
H286 C296 0.930 . S
H287 C299 0.929 . S
H288 C302 0.930 . S
H289 C304 0.960 . S
H290 C304 0.960 . S
H291 C304 0.960 . S
C292 H284 0.929 . S
C292 C293 1.377 . S
C292 C294 1.384 . S
C293 C292 1.377 . S
C293 C299 1.390 . S
C294 H285 0.930 . S
C294 C292 1.384 . S
C294 C295 1.372 . S
C295 C294 1.372 . S
C295 C296 1.400 . S
C295 C300 1.490 . S
C296 H286 0.930 . S
C296 C295 1.400 . S
C296 C299 1.386 . S
H297 C313 0.930 . S
H298 C314 0.931 . S
C299 H287 0.929 . S
C299 C293 1.390 . S
C299 C296 1.386 . S
C300 C295 1.490 . S
C300 C302 1.395 . S
C300 C303 1.403 . S
H301 C307 0.930 . S
C302 H288 0.930 . S
C302 C300 1.395 . S
C302 C305 1.403 . S
C303 C300 1.403 . S
C303 C304 1.524 . S
C303 C307 1.400 . S
C304 H289 0.960 . S
C304 H290 0.960 . S
C304 H291 0.960 . S
C304 C303 1.524 . S
C305 C302 1.403 . S
C305 C306 1.392 . S
C305 C309 1.495 . S
C306 C305 1.392 . S
C306 C307 1.385 . S
C306 C308 1.478 . S
C307 H301 0.930 . S
C307 C303 1.400 . S
C307 C306 1.385 . S
C308 C306 1.478 . S
C308 C310 1.381 . S
C308 C314 1.383 . S
C309 C305 1.495 . S
C309 H315 0.959 . S
C309 H316 0.961 . S
C309 H317 0.960 . S
C310 C308 1.381 . S
C310 C311 1.394 . S
C310 H318 0.930 . S
C311 C310 1.394 . S
C311 C312 1.383 . S
C311 H319 0.929 . S
C312 C311 1.383 . S
C312 C313 1.377 . S
C313 H297 0.930 . S
C313 C312 1.377 . S
C313 C314 1.379 . S
C314 H298 0.931 . S
C314 C308 1.383 . S
C314 C313 1.379 . S
H315 C309 0.959 . S
H316 C309 0.961 . S
H317 C309 0.960 . S
H318 C310 0.930 . S
H319 C311 0.929 . S
H320 C328 0.929 . S
H321 C330 0.930 . S
H322 C332 0.930 . S
H323 C335 0.929 1_554 S
H324 C338 0.930 . S
H325 C340 0.960 . S
H326 C340 0.960 . S
H327 C340 0.960 . S
C328 H320 0.929 . S
C328 C329 1.377 . S
C328 C330 1.384 . S
C329 C328 1.377 . S
C329 C335 1.390 . S
C330 H321 0.930 . S
C330 C328 1.384 . S
C330 C331 1.372 . S
C331 C330 1.372 . S
C331 C332 1.400 . S
C331 C336 1.490 . S
C332 H322 0.930 . S
C332 C331 1.400 . S
C332 C335 1.386 . S
H333 C349 0.930 . S
H334 C350 0.931 . S
C335 H323 0.929 1_556 S
C335 C329 1.390 . S
C335 C332 1.386 . S
C336 C331 1.490 . S
C336 C338 1.395 . S
C336 C339 1.403 . S
H337 C343 0.930 . S
C338 H324 0.930 . S
C338 C336 1.395 . S
C338 C341 1.403 . S
C339 C336 1.403 . S
C339 C340 1.524 . S
C339 C343 1.400 . S
C340 H325 0.960 . S
C340 H326 0.960 . S
C340 H327 0.960 . S
C340 C339 1.524 . S
C341 C338 1.403 . S
C341 C342 1.392 . S
C341 C345 1.495 . S
C342 C341 1.392 . S
C342 C343 1.385 . S
C342 C344 1.478 . S
C343 H337 0.930 . S
C343 C339 1.400 . S
C343 C342 1.385 . S
C344 C342 1.478 . S
C344 C346 1.381 . S
C344 C350 1.383 . S
C345 C341 1.495 . S
C345 H351 0.959 . S
C345 H352 0.961 . S
C345 H353 0.960 . S
C346 C344 1.381 . S
C346 C347 1.394 . S
C346 H354 0.930 . S
C347 C346 1.394 . S
C347 C348 1.383 . S
C347 H355 0.929 . S
C348 C347 1.383 . S
C348 C349 1.377 . S
C349 H333 0.930 . S
C349 C348 1.377 . S
C349 C350 1.379 . S
C350 H334 0.931 . S
C350 C344 1.383 . S
C350 C349 1.379 . S
H351 C345 0.959 . S
H352 C345 0.961 . S
H353 C345 0.960 . S
H354 C346 0.930 . S
H355 C347 0.929 . S
H356 C364 0.929 . S
H357 C366 0.930 . S
H358 C368 0.930 . S
H359 C371 0.929 . S
H360 C374 0.930 . S
H361 C376 0.960 . S
H362 C376 0.960 . S
H363 C376 0.960 . S
C364 H356 0.929 . S
C364 C365 1.377 . S
C364 C366 1.384 . S
C365 C364 1.377 . S
C365 C371 1.390 . S
C366 H357 0.930 . S
C366 C364 1.384 . S
C366 C367 1.372 . S
C367 C366 1.372 . S
C367 C368 1.400 . S
C367 C372 1.490 . S
C368 H358 0.930 . S
C368 C367 1.400 . S
C368 C371 1.386 . S
H369 C385 0.930 . S
H370 C386 0.931 . S
C371 H359 0.929 . S
C371 C365 1.390 . S
C371 C368 1.386 . S
C372 C367 1.490 . S
C372 C374 1.395 . S
C372 C375 1.403 . S
H373 C379 0.930 . S
C374 H360 0.930 . S
C374 C372 1.395 . S
C374 C377 1.403 . S
C375 C372 1.403 . S
C375 C376 1.524 . S
C375 C379 1.400 . S
C376 H361 0.960 . S
C376 H362 0.960 . S
C376 H363 0.960 . S
C376 C375 1.524 . S
C377 C374 1.403 . S
C377 C378 1.392 . S
C377 C381 1.495 . S
C378 C377 1.392 . S
C378 C379 1.385 . S
C378 C380 1.478 . S
C379 H373 0.930 . S
C379 C375 1.400 . S
C379 C378 1.385 . S
C380 C378 1.478 . S
C380 C382 1.381 . S
C380 C386 1.383 . S
C381 C377 1.495 . S
C381 H387 0.959 . S
C381 H388 0.961 . S
C381 H389 0.960 . S
C382 C380 1.381 . S
C382 C383 1.394 . S
C382 H390 0.930 . S
C383 C382 1.394 . S
C383 C384 1.383 . S
C383 H391 0.929 . S
C384 C383 1.383 . S
C384 C385 1.377 . S
C385 H369 0.930 . S
C385 C384 1.377 . S
C385 C386 1.379 . S
C386 H370 0.931 . S
C386 C380 1.383 . S
C386 C385 1.379 . S
H387 C381 0.959 . S
H388 C381 0.961 . S
H389 C381 0.960 . S
H390 C382 0.930 . S
H391 C383 0.929 . S
H392 C400 0.929 . S
H393 C402 0.930 . S
H394 C404 0.930 . S
H395 C407 0.929 . S
H396 C410 0.930 . S
H397 C412 0.960 . S
H398 C412 0.960 . S
H399 C412 0.960 . S
C400 H392 0.929 . S
C400 C401 1.377 . S
C400 C402 1.384 . S
C401 C400 1.377 . S
C401 C407 1.390 . S
C402 H393 0.930 . S
C402 C400 1.384 . S
C402 C403 1.372 . S
C403 C402 1.372 . S
C403 C404 1.400 . S
C403 C408 1.490 . S
C404 H394 0.930 . S
C404 C403 1.400 . S
C404 C407 1.386 . S
H405 C421 0.930 . S
H406 C422 0.931 . S
C407 H395 0.929 . S
C407 C401 1.390 . S
C407 C404 1.386 . S
C408 C403 1.490 . S
C408 C410 1.395 . S
C408 C411 1.403 . S
H409 C415 0.930 . S
C410 H396 0.930 . S
C410 C408 1.395 . S
C410 C413 1.403 1_455 S
C411 C408 1.403 . S
C411 C412 1.524 . S
C411 C415 1.400 1_455 S
C412 H397 0.960 . S
C412 H398 0.960 . S
C412 H399 0.960 . S
C412 C411 1.524 . S
C413 C410 1.403 1_655 S
C413 C414 1.392 . S
C413 C417 1.495 . S
C414 C413 1.392 . S
C414 C415 1.385 . S
C414 C416 1.478 . S
C415 H409 0.930 . S
C415 C411 1.400 1_655 S
C415 C414 1.385 . S
C416 C414 1.478 . S
C416 C418 1.381 . S
C416 C422 1.383 . S
C417 C413 1.495 . S
C417 H423 0.959 . S
C417 H424 0.961 . S
C417 H425 0.960 . S
C418 C416 1.381 . S
C418 C419 1.394 . S
C418 H426 0.930 . S
C419 C418 1.394 . S
C419 C420 1.383 . S
C419 H427 0.929 . S
C420 C419 1.383 . S
C420 C421 1.377 . S
C421 H405 0.930 . S
C421 C420 1.377 . S
C421 C422 1.379 . S
C422 H406 0.931 . S
C422 C416 1.383 . S
C422 C421 1.379 . S
H423 C417 0.959 . S
H424 C417 0.961 . S
H425 C417 0.960 . S
H426 C418 0.930 . S
H427 C419 0.929 . S
H428 C436 0.929 . S
H429 C438 0.930 . S
H430 C440 0.930 . S
H431 C443 0.929 . S
H432 C446 0.930 . S
H433 C448 0.960 . S
H434 C448 0.960 . S
H435 C448 0.960 . S
C436 H428 0.929 . S
C436 C437 1.377 . S
C436 C438 1.384 . S
C437 C436 1.377 . S
C437 C443 1.390 . S
C438 H429 0.930 . S
C438 C436 1.384 . S
C438 C439 1.372 . S
C439 C438 1.372 . S
C439 C440 1.400 . S
C439 C444 1.490 . S
C440 H430 0.930 . S
C440 C439 1.400 . S
C440 C443 1.386 . S
H441 C457 0.930 . S
H442 C458 0.931 . S
C443 H431 0.929 . S
C443 C437 1.390 . S
C443 C440 1.386 . S
C444 C439 1.490 . S
C444 C446 1.395 . S
C444 C447 1.403 . S
H445 C451 0.930 . S
C446 H432 0.930 . S
C446 C444 1.395 . S
C446 C449 1.403 . S
C447 C444 1.403 . S
C447 C448 1.524 . S
C447 C451 1.400 . S
C448 H433 0.960 . S
C448 H434 0.960 . S
C448 H435 0.960 . S
C448 C447 1.524 . S
C449 C446 1.403 . S
C449 C450 1.392 . S
C449 C453 1.495 . S
C450 C449 1.392 . S
C450 C451 1.385 . S
C450 C452 1.478 . S
C451 H445 0.930 . S
C451 C447 1.400 . S
C451 C450 1.385 . S
C452 C450 1.478 . S
C452 C454 1.381 . S
C452 C458 1.383 . S
C453 C449 1.495 . S
C453 H459 0.959 . S
C453 H460 0.961 . S
C453 H461 0.960 . S
C454 C452 1.381 . S
C454 C455 1.394 . S
C454 H462 0.930 . S
C455 C454 1.394 . S
C455 C456 1.383 . S
C455 H463 0.929 . S
C456 C455 1.383 . S
C456 C457 1.377 . S
C457 H441 0.930 . S
C457 C456 1.377 . S
C457 C458 1.379 . S
C458 H442 0.931 . S
C458 C452 1.383 . S
C458 C457 1.379 . S
H459 C453 0.959 . S
H460 C453 0.961 . S
H461 C453 0.960 . S
H462 C454 0.930 . S
H463 C455 0.929 . S
H464 C472 0.929 . S
H465 C474 0.930 . S
H466 C476 0.930 . S
H467 C479 0.929 . S
H468 C482 0.930 . S
H469 C484 0.960 . S
H470 C484 0.960 . S
H471 C484 0.960 . S
C472 H464 0.929 . S
C472 C473 1.377 . S
C472 C474 1.384 . S
C473 C472 1.377 . S
C473 C479 1.390 . S
C474 H465 0.930 . S
C474 C472 1.384 . S
C474 C475 1.372 . S
C475 C474 1.372 . S
C475 C476 1.400 . S
C475 C480 1.490 . S
C476 H466 0.930 . S
C476 C475 1.400 . S
C476 C479 1.386 . S
H477 C493 0.930 . S
H478 C494 0.931 . S
C479 H467 0.929 . S
C479 C473 1.390 . S
C479 C476 1.386 . S
C480 C475 1.490 . S
C480 C482 1.395 . S
C480 C483 1.403 . S
H481 C487 0.930 . S
C482 H468 0.930 . S
C482 C480 1.395 . S
C482 C485 1.403 1_455 S
C483 C480 1.403 . S
C483 C484 1.524 . S
C483 C487 1.400 1_455 S
C484 H469 0.960 . S
C484 H470 0.960 . S
C484 H471 0.960 . S
C484 C483 1.524 . S
C485 C482 1.403 1_655 S
C485 C486 1.392 . S
C485 C489 1.495 . S
C486 C485 1.392 . S
C486 C487 1.385 . S
C486 C488 1.478 . S
C487 H481 0.930 . S
C487 C483 1.400 1_655 S
C487 C486 1.385 . S
C488 C486 1.478 . S
C488 C490 1.381 . S
C488 C494 1.383 . S
C489 C485 1.495 . S
C489 H495 0.959 . S
C489 H496 0.961 . S
C489 H497 0.960 . S
C490 C488 1.381 . S
C490 C491 1.394 . S
C490 H498 0.930 . S
C491 C490 1.394 . S
C491 C492 1.383 . S
C491 H499 0.929 . S
C492 C491 1.383 . S
C492 C493 1.377 . S
C493 H477 0.930 . S
C493 C492 1.377 . S
C493 C494 1.379 . S
C494 H478 0.931 . S
C494 C488 1.383 . S
C494 C493 1.379 . S
H495 C489 0.959 . S
H496 C489 0.961 . S
H497 C489 0.960 . S
H498 C490 0.930 . S
H499 C491 0.929 . S
H500 C508 0.929 . S
H501 C510 0.930 . S
H502 C512 0.930 . S
H503 C515 0.929 . S
H504 C518 0.930 . S
H505 C520 0.960 . S
H506 C520 0.960 . S
H507 C520 0.960 . S
C508 H500 0.929 . S
C508 C509 1.377 . S
C508 C510 1.384 . S
C509 C508 1.377 . S
C509 C515 1.390 . S
C510 H501 0.930 . S
C510 C508 1.384 . S
C510 C511 1.372 . S
C511 C510 1.372 . S
C511 C512 1.400 . S
C511 C516 1.490 . S
C512 H502 0.930 . S
C512 C511 1.400 . S
C512 C515 1.386 . S
H513 C529 0.930 . S
H514 C530 0.931 . S
C515 H503 0.929 . S
C515 C509 1.390 . S
C515 C512 1.386 . S
C516 C511 1.490 . S
C516 C518 1.395 . S
C516 C519 1.403 . S
H517 C523 0.930 . S
C518 H504 0.930 . S
C518 C516 1.395 . S
C518 C521 1.403 . S
C519 C516 1.403 . S
C519 C520 1.524 . S
C519 C523 1.400 . S
C520 H505 0.960 . S
C520 H506 0.960 . S
C520 H507 0.960 . S
C520 C519 1.524 . S
C521 C518 1.403 . S
C521 C522 1.392 . S
C521 C525 1.495 . S
C522 C521 1.392 . S
C522 C523 1.385 . S
C522 C524 1.478 . S
C523 H517 0.930 . S
C523 C519 1.400 . S
C523 C522 1.385 . S
C524 C522 1.478 . S
C524 C526 1.381 . S
C524 C530 1.383 . S
C525 C521 1.495 . S
C525 H531 0.959 . S
C525 H532 0.961 . S
C525 H533 0.960 . S
C526 C524 1.381 . S
C526 C527 1.394 . S
C526 H534 0.930 . S
C527 C526 1.394 . S
C527 C528 1.383 . S
C527 H535 0.929 . S
C528 C527 1.383 . S
C528 C529 1.377 . S
C529 H513 0.930 . S
C529 C528 1.377 . S
C529 C530 1.379 . S
C530 H514 0.931 . S
C530 C524 1.383 . S
C530 C529 1.379 . S
H531 C525 0.959 . S
H532 C525 0.961 . S
H533 C525 0.960 . S
H534 C526 0.930 . S
H535 C527 0.929 . S
H536 C544 0.929 . S
H537 C546 0.930 . S
H538 C548 0.930 . S
H539 C551 0.929 . S
H540 C554 0.930 . S
H541 C556 0.960 . S
H542 C556 0.960 . S
H543 C556 0.960 . S
C544 H536 0.929 . S
C544 C545 1.377 1_556 S
C544 C546 1.384 . S
C545 C544 1.377 1_554 S
C545 C551 1.390 . S
C546 H537 0.930 . S
C546 C544 1.384 . S
C546 C547 1.372 1_556 S
C547 C546 1.372 1_554 S
C547 C548 1.400 . S
C547 C552 1.490 . S
C548 H538 0.930 . S
C548 C547 1.400 . S
C548 C551 1.386 . S
H549 C565 0.930 . S
H550 C566 0.931 . S
C551 H539 0.929 . S
C551 C545 1.390 . S
C551 C548 1.386 . S
C552 C547 1.490 . S
C552 C554 1.395 1_544 S
C552 C555 1.403 1_455 S
H553 C559 0.930 . S
C554 H540 0.930 . S
C554 C552 1.395 1_566 S
C554 C557 1.403 . S
C555 C552 1.403 1_655 S
C555 C556 1.524 . S
C555 C559 1.400 1_545 S
C556 H541 0.960 . S
C556 H542 0.960 . S
C556 H543 0.960 . S
C556 C555 1.524 . S
C557 C554 1.403 . S
C557 C558 1.392 1_455 S
C557 C561 1.495 . S
C558 C557 1.392 1_655 S
C558 C559 1.385 1_556 S
C558 C560 1.478 . S
C559 H553 0.930 . S
C559 C555 1.400 1_565 S
C559 C558 1.385 1_554 S
C560 C558 1.478 . S
C560 C562 1.381 . S
C560 C566 1.383 1_556 S
C561 C557 1.495 . S
C561 H567 0.959 . S
C561 H568 0.961 . S
C561 H569 0.960 . S
C562 C560 1.381 . S
C562 C563 1.394 . S
C562 H570 0.930 . S
C563 C562 1.394 . S
C563 C564 1.383 . S
C563 H571 0.929 . S
C564 C563 1.383 . S
C564 C565 1.377 1_556 S
C565 H549 0.930 . S
C565 C564 1.377 1_554 S
C565 C566 1.379 . S
C566 H550 0.931 . S
C566 C560 1.383 1_554 S
C566 C565 1.379 . S
H567 C561 0.959 . S
H568 C561 0.961 . S
H569 C561 0.960 . S
H570 C562 0.930 . S
H571 C563 0.929 . S
H572 C580 0.929 . S
H573 C582 0.930 . S
H574 C584 0.930 . S
H575 C587 0.929 . S
H576 C590 0.930 . S
H577 C592 0.960 . S
H578 C592 0.960 . S
H579 C592 0.960 . S
C580 H572 0.929 . S
C580 C581 1.377 . S
C580 C582 1.384 . S
C581 C580 1.377 . S
C581 C587 1.390 . S
C582 H573 0.930 . S
C582 C580 1.384 . S
C582 C583 1.372 . S
C583 C582 1.372 . S
C583 C584 1.400 . S
C583 C588 1.490 . S
C584 H574 0.930 . S
C584 C583 1.400 . S
C584 C587 1.386 . S
H585 C601 0.930 . S
H586 C602 0.931 . S
C587 H575 0.929 . S
C587 C581 1.390 . S
C587 C584 1.386 . S
C588 C583 1.490 . S
C588 C590 1.395 . S
C588 C591 1.403 . S
H589 C595 0.930 . S
C590 H576 0.930 . S
C590 C588 1.395 . S
C590 C593 1.403 . S
C591 C588 1.403 . S
C591 C592 1.524 . S
C591 C595 1.400 . S
C592 H577 0.960 . S
C592 H578 0.960 . S
C592 H579 0.960 . S
C592 C591 1.524 . S
C593 C590 1.403 . S
C593 C594 1.392 . S
C593 C597 1.495 . S
C594 C593 1.392 . S
C594 C595 1.385 . S
C594 C596 1.478 . S
C595 H589 0.930 . S
C595 C591 1.400 . S
C595 C594 1.385 . S
C596 C594 1.478 . S
C596 C598 1.381 . S
C596 C602 1.383 . S
C597 C593 1.495 . S
C597 H603 0.959 . S
C597 H604 0.961 . S
C597 H605 0.960 . S
C598 C596 1.381 . S
C598 C599 1.394 . S
C598 H606 0.930 . S
C599 C598 1.394 . S
C599 C600 1.383 . S
C599 H607 0.929 . S
C600 C599 1.383 . S
C600 C601 1.377 . S
C601 H585 0.930 . S
C601 C600 1.377 . S
C601 C602 1.379 . S
C602 H586 0.931 . S
C602 C596 1.383 . S
C602 C601 1.379 . S
H603 C597 0.959 . S
H604 C597 0.961 . S
H605 C597 0.960 . S
H606 C598 0.930 . S
H607 C599 0.929 . S
H608 C616 0.929 1_556 S
H609 C618 0.934 . S
H610 C620 0.930 . S
H611 C623 0.929 . S
H612 C626 0.930 . S
H613 C628 0.960 . S
H614 C628 0.960 . S
H615 C628 0.960 . S
C616 H608 0.929 1_554 S
C616 C617 1.377 . S
C616 C618 1.382 1_554 S
C617 C616 1.377 . S
C617 C623 1.390 . S
C618 H609 0.934 . S
C618 C616 1.382 1_556 S
C618 C619 1.369 1_556 S
C619 C618 1.369 1_554 S
C619 C620 1.400 . S
C619 C624 1.490 . S
C620 H610 0.930 . S
C620 C619 1.400 . S
C620 C623 1.386 . S
H621 C637 0.930 . S
H622 C638 0.931 . S
C623 H611 0.929 . S
C623 C617 1.390 . S
C623 C620 1.386 . S
C624 C619 1.490 . S
C624 C626 1.395 1_554 S
C624 C627 1.403 . S
H625 C631 0.930 . S
C626 H612 0.930 . S
C626 C624 1.395 1_556 S
C626 C629 1.403 . S
C627 C624 1.403 . S
C627 C628 1.524 . S
C627 C631 1.400 . S
C628 H613 0.960 . S
C628 H614 0.960 . S
C628 H615 0.960 . S
C628 C627 1.524 . S
C629 C626 1.403 . S
C629 C630 1.392 . S
C629 C633 1.495 . S
C630 C629 1.392 . S
C630 C631 1.385 1_556 S
C630 C632 1.478 . S
C631 H625 0.930 . S
C631 C627 1.400 . S
C631 C630 1.385 1_554 S
C632 C630 1.478 . S
C632 C634 1.381 . S
C632 C638 1.383 . S
C633 C629 1.495 . S
C633 H639 0.959 . S
C633 H640 0.961 . S
C633 H641 0.960 . S
C634 C632 1.381 . S
C634 C635 1.394 . S
C634 H642 0.930 . S
C635 C634 1.394 . S
C635 C636 1.383 . S
C635 H643 0.929 . S
C636 C635 1.383 . S
C636 C637 1.377 . S
C637 H621 0.930 . S
C637 C636 1.377 . S
C637 C638 1.379 . S
C638 H622 0.931 . S
C638 C632 1.383 . S
C638 C637 1.379 . S
H639 C633 0.959 . S
H640 C633 0.961 . S
H641 C633 0.960 . S
H642 C634 0.930 . S
H643 C635 0.929 . S
H644 C652 0.929 . S
H645 C654 0.930 . S
H646 C656 0.930 . S
H647 C659 0.929 . S
H648 C662 0.930 . S
H649 C664 0.960 . S
H650 C664 0.960 . S
H651 C664 0.960 1_455 S
C652 H644 0.929 . S
C652 C653 1.377 . S
C652 C654 1.384 . S
C653 C652 1.377 . S
C653 C659 1.390 . S
C654 H645 0.930 . S
C654 C652 1.384 . S
C654 C655 1.372 . S
C655 C654 1.372 . S
C655 C656 1.400 . S
C655 C660 1.490 . S
C656 H646 0.930 . S
C656 C655 1.400 . S
C656 C659 1.386 . S
H657 C673 0.930 . S
H658 C674 0.931 . S
C659 H647 0.929 . S
C659 C653 1.390 . S
C659 C656 1.386 . S
C660 C655 1.490 . S
C660 C662 1.395 1_565 S
C660 C663 1.403 1_455 S
H661 C667 0.930 . S
C662 H648 0.930 . S
C662 C660 1.395 1_545 S
C662 C665 1.403 . S
C663 C660 1.403 1_655 S
C663 C664 1.524 . S
C663 C667 1.400 1_565 S
C664 H649 0.960 . S
C664 H650 0.960 . S
C664 H651 0.960 1_655 S
C664 C663 1.524 . S
C665 C662 1.403 . S
C665 C666 1.392 1_455 S
C665 C669 1.495 . S
C666 C665 1.392 1_655 S
C666 C667 1.385 . S
C666 C668 1.478 . S
C667 H661 0.930 . S
C667 C663 1.400 1_545 S
C667 C666 1.385 . S
C668 C666 1.478 . S
C668 C670 1.381 . S
C668 C674 1.383 . S
C669 C665 1.495 . S
C669 H675 0.959 . S
C669 H676 0.961 . S
C669 H677 0.960 1_455 S
C670 C668 1.381 . S
C670 C671 1.394 . S
C670 H678 0.930 . S
C671 C670 1.394 . S
C671 C672 1.383 . S
C671 H679 0.929 . S
C672 C671 1.383 . S
C672 C673 1.377 . S
C673 H657 0.930 . S
C673 C672 1.377 . S
C673 C674 1.379 . S
C674 H658 0.931 . S
C674 C668 1.383 . S
C674 C673 1.379 . S
H675 C669 0.959 . S
H676 C669 0.961 . S
H677 C669 0.960 1_655 S
H678 C670 0.930 . S
H679 C671 0.929 . S
C113 C23 2.221 . S
C132 C3 2.208 1_556 S
C149 C10 2.225 . S
C168 C16 2.224 . S
C185 C49 2.221 . S
C204 C29 2.210 1_554 S
C221 C36 2.220 . S
C240 C42 2.202 . S
C257 C57 2.220 1_554 S
C276 C66 2.208 . S
C293 C70 2.217 . S
C312 C53 2.227 . S
C329 C83 2.216 1_556 S
C348 C92 2.227 . S
C365 C79 2.222 . S
C384 C96 2.212 . S
C401 C1 0.297 . S
C420 C40 0.364 . S
C437 C14 0.282 . S
C456 C27 0.386 . S
C473 C101 0.312 . S
C492 C62 0.385 . S
C509 C88 0.290 . S
C528 C75 0.292 . S
C545 C5 1.905 . S
C564 C55 1.897 . S
C581 C68 1.900 . S
C600 C18 1.899 . S
C617 C81 1.900 . S
C636 C31 1.883 . S
C653 C94 1.902 . S
C672 C44 1.911 . S
