# Generated by pormake.
# Topology unr, (4)-cn, num edge types: 1
# Building blocks:
#     Node 0, Type 0, BuildingBlock: QUQFOY_clean_sbu_1, # of connection points: 4
#     Node 1, Type 0, BuildingBlock: QUQFOY_clean_sbu_1, # of connection points: 4
#     Node 2, Type 0, BuildingBlock: QUQFOY_clean_sbu_1, # of connection points: 4
#     Node 3, Type 0, BuildingBlock: QUQFOY_clean_sbu_1, # of connection points: 4
#     Node 4, Type 0, BuildingBlock: QUQFOY_clean_sbu_1, # of connection points: 4
#     Node 5, Type 0, BuildingBlock: QUQFOY_clean_sbu_1, # of connection points: 4
#     Node 6, Type 0, BuildingBlock: QUQFOY_clean_sbu_1, # of connection points: 4
#     Node 7, Type 0, BuildingBlock: QUQFOY_clean_sbu_1, # of connection points: 4
#     Node 8, Type 0, BuildingBlock: QUQFOY_clean_sbu_1, # of connection points: 4
#     Node 9, Type 0, BuildingBlock: QUQFOY_clean_sbu_1, # of connection points: 4
#     Node 10, Type 0, BuildingBlock: QUQFOY_clean_sbu_1, # of connection points: 4
#     Node 11, Type 0, BuildingBlock: QUQFOY_clean_sbu_1, # of connection points: 4
#     Node 12, Type 0, BuildingBlock: QUQFOY_clean_sbu_1, # of connection points: 4
#     Node 13, Type 0, BuildingBlock: QUQFOY_clean_sbu_1, # of connection points: 4
#     Node 14, Type 0, BuildingBlock: QUQFOY_clean_sbu_1, # of connection points: 4
#     Node 15, Type 0, BuildingBlock: QUQFOY_clean_sbu_1, # of connection points: 4
#     Node 16, Type 0, BuildingBlock: QUQFOY_clean_sbu_1, # of connection points: 4
#     Node 17, Type 0, BuildingBlock: QUQFOY_clean_sbu_1, # of connection points: 4
#     Node 18, Type 0, BuildingBlock: QUQFOY_clean_sbu_1, # of connection points: 4
#     Node 19, Type 0, BuildingBlock: QUQFOY_clean_sbu_1, # of connection points: 4
#     Node 20, Type 0, BuildingBlock: QUQFOY_clean_sbu_1, # of connection points: 4
#     Node 21, Type 0, BuildingBlock: QUQFOY_clean_sbu_1, # of connection points: 4
#     Node 22, Type 0, BuildingBlock: QUQFOY_clean_sbu_1, # of connection points: 4
#     Node 23, Type 0, BuildingBlock: QUQFOY_clean_sbu_1, # of connection points: 4
#     Node 24, Type 0, BuildingBlock: QUQFOY_clean_sbu_1, # of connection points: 4
#     Node 25, Type 0, BuildingBlock: QUQFOY_clean_sbu_1, # of connection points: 4
#     Node 26, Type 0, BuildingBlock: QUQFOY_clean_sbu_1, # of connection points: 4
#     Node 27, Type 0, BuildingBlock: QUQFOY_clean_sbu_1, # of connection points: 4
#     Node 28, Type 0, BuildingBlock: QUQFOY_clean_sbu_1, # of connection points: 4
#     Node 29, Type 0, BuildingBlock: QUQFOY_clean_sbu_1, # of connection points: 4
#     Node 30, Type 0, BuildingBlock: QUQFOY_clean_sbu_1, # of connection points: 4
#     Node 31, Type 0, BuildingBlock: QUQFOY_clean_sbu_1, # of connection points: 4
#     Node 32, Type 0, BuildingBlock: QUQFOY_clean_sbu_1, # of connection points: 4
#     Node 33, Type 0, BuildingBlock: QUQFOY_clean_sbu_1, # of connection points: 4
#     Node 34, Type 0, BuildingBlock: QUQFOY_clean_sbu_1, # of connection points: 4
#     Node 35, Type 0, BuildingBlock: QUQFOY_clean_sbu_1, # of connection points: 4
#     Edge 36, Type (0, 0), BuildingBlock: XUDNAN_clean_linker_2, # of connection points: 2
#     Edge 37, Type (0, 0), BuildingBlock: XUDNAN_clean_linker_2, # of connection points: 2
#     Edge 38, Type (0, 0), BuildingBlock: XUDNAN_clean_linker_2, # of connection points: 2
#     Edge 39, Type (0, 0), BuildingBlock: XUDNAN_clean_linker_2, # of connection points: 2
#     Edge 40, Type (0, 0), BuildingBlock: XUDNAN_clean_linker_2, # of connection points: 2
#     Edge 41, Type (0, 0), BuildingBlock: XUDNAN_clean_linker_2, # of connection points: 2
#     Edge 42, Type (0, 0), BuildingBlock: XUDNAN_clean_linker_2, # of connection points: 2
#     Edge 43, Type (0, 0), BuildingBlock: XUDNAN_clean_linker_2, # of connection points: 2
#     Edge 44, Type (0, 0), BuildingBlock: XUDNAN_clean_linker_2, # of connection points: 2
#     Edge 45, Type (0, 0), BuildingBlock: XUDNAN_clean_linker_2, # of connection points: 2
#     Edge 46, Type (0, 0), BuildingBlock: XUDNAN_clean_linker_2, # of connection points: 2
#     Edge 47, Type (0, 0), BuildingBlock: XUDNAN_clean_linker_2, # of connection points: 2
#     Edge 48, Type (0, 0), BuildingBlock: XUDNAN_clean_linker_2, # of connection points: 2
#     Edge 49, Type (0, 0), BuildingBlock: XUDNAN_clean_linker_2, # of connection points: 2
#     Edge 50, Type (0, 0), BuildingBlock: XUDNAN_clean_linker_2, # of connection points: 2
#     Edge 51, Type (0, 0), BuildingBlock: XUDNAN_clean_linker_2, # of connection points: 2
#     Edge 52, Type (0, 0), BuildingBlock: XUDNAN_clean_linker_2, # of connection points: 2
#     Edge 53, Type (0, 0), BuildingBlock: XUDNAN_clean_linker_2, # of connection points: 2
#     Edge 54, Type (0, 0), BuildingBlock: XUDNAN_clean_linker_2, # of connection points: 2
#     Edge 55, Type (0, 0), BuildingBlock: XUDNAN_clean_linker_2, # of connection points: 2
#     Edge 56, Type (0, 0), BuildingBlock: XUDNAN_clean_linker_2, # of connection points: 2
#     Edge 57, Type (0, 0), BuildingBlock: XUDNAN_clean_linker_2, # of connection points: 2
#     Edge 58, Type (0, 0), BuildingBlock: XUDNAN_clean_linker_2, # of connection points: 2
#     Edge 59, Type (0, 0), BuildingBlock: XUDNAN_clean_linker_2, # of connection points: 2
#     Edge 60, Type (0, 0), BuildingBlock: XUDNAN_clean_linker_2, # of connection points: 2
#     Edge 61, Type (0, 0), BuildingBlock: XUDNAN_clean_linker_2, # of connection points: 2
#     Edge 62, Type (0, 0), BuildingBlock: XUDNAN_clean_linker_2, # of connection points: 2
#     Edge 63, Type (0, 0), BuildingBlock: XUDNAN_clean_linker_2, # of connection points: 2
#     Edge 64, Type (0, 0), BuildingBlock: XUDNAN_clean_linker_2, # of connection points: 2
#     Edge 65, Type (0, 0), BuildingBlock: XUDNAN_clean_linker_2, # of connection points: 2
#     Edge 66, Type (0, 0), BuildingBlock: XUDNAN_clean_linker_2, # of connection points: 2
#     Edge 67, Type (0, 0), BuildingBlock: XUDNAN_clean_linker_2, # of connection points: 2
#     Edge 68, Type (0, 0), BuildingBlock: XUDNAN_clean_linker_2, # of connection points: 2
#     Edge 69, Type (0, 0), BuildingBlock: XUDNAN_clean_linker_2, # of connection points: 2
#     Edge 70, Type (0, 0), BuildingBlock: XUDNAN_clean_linker_2, # of connection points: 2
#     Edge 71, Type (0, 0), BuildingBlock: XUDNAN_clean_linker_2, # of connection points: 2
#     Edge 72, Type (0, 0), BuildingBlock: XUDNAN_clean_linker_2, # of connection points: 2
#     Edge 73, Type (0, 0), BuildingBlock: XUDNAN_clean_linker_2, # of connection points: 2
#     Edge 74, Type (0, 0), BuildingBlock: XUDNAN_clean_linker_2, # of connection points: 2
#     Edge 75, Type (0, 0), BuildingBlock: XUDNAN_clean_linker_2, # of connection points: 2
#     Edge 76, Type (0, 0), BuildingBlock: XUDNAN_clean_linker_2, # of connection points: 2
#     Edge 77, Type (0, 0), BuildingBlock: XUDNAN_clean_linker_2, # of connection points: 2
#     Edge 78, Type (0, 0), BuildingBlock: XUDNAN_clean_linker_2, # of connection points: 2
#     Edge 79, Type (0, 0), BuildingBlock: XUDNAN_clean_linker_2, # of connection points: 2
#     Edge 80, Type (0, 0), BuildingBlock: XUDNAN_clean_linker_2, # of connection points: 2
#     Edge 81, Type (0, 0), BuildingBlock: XUDNAN_clean_linker_2, # of connection points: 2
#     Edge 82, Type (0, 0), BuildingBlock: XUDNAN_clean_linker_2, # of connection points: 2
#     Edge 83, Type (0, 0), BuildingBlock: XUDNAN_clean_linker_2, # of connection points: 2
#     Edge 84, Type (0, 0), BuildingBlock: XUDNAN_clean_linker_2, # of connection points: 2
#     Edge 85, Type (0, 0), BuildingBlock: XUDNAN_clean_linker_2, # of connection points: 2
#     Edge 86, Type (0, 0), BuildingBlock: XUDNAN_clean_linker_2, # of connection points: 2
#     Edge 87, Type (0, 0), BuildingBlock: XUDNAN_clean_linker_2, # of connection points: 2
#     Edge 88, Type (0, 0), BuildingBlock: XUDNAN_clean_linker_2, # of connection points: 2
#     Edge 89, Type (0, 0), BuildingBlock: XUDNAN_clean_linker_2, # of connection points: 2
#     Edge 90, Type (0, 0), BuildingBlock: XUDNAN_clean_linker_2, # of connection points: 2
#     Edge 91, Type (0, 0), BuildingBlock: XUDNAN_clean_linker_2, # of connection points: 2
#     Edge 92, Type (0, 0), BuildingBlock: XUDNAN_clean_linker_2, # of connection points: 2
#     Edge 93, Type (0, 0), BuildingBlock: XUDNAN_clean_linker_2, # of connection points: 2
#     Edge 94, Type (0, 0), BuildingBlock: XUDNAN_clean_linker_2, # of connection points: 2
#     Edge 95, Type (0, 0), BuildingBlock: XUDNAN_clean_linker_2, # of connection points: 2
#     Edge 96, Type (0, 0), BuildingBlock: XUDNAN_clean_linker_2, # of connection points: 2
#     Edge 97, Type (0, 0), BuildingBlock: XUDNAN_clean_linker_2, # of connection points: 2
#     Edge 98, Type (0, 0), BuildingBlock: XUDNAN_clean_linker_2, # of connection points: 2
#     Edge 99, Type (0, 0), BuildingBlock: XUDNAN_clean_linker_2, # of connection points: 2
#     Edge 100, Type (0, 0), BuildingBlock: XUDNAN_clean_linker_2, # of connection points: 2
#     Edge 101, Type (0, 0), BuildingBlock: XUDNAN_clean_linker_2, # of connection points: 2
#     Edge 102, Type (0, 0), BuildingBlock: XUDNAN_clean_linker_2, # of connection points: 2
#     Edge 103, Type (0, 0), BuildingBlock: XUDNAN_clean_linker_2, # of connection points: 2
#     Edge 104, Type (0, 0), BuildingBlock: XUDNAN_clean_linker_2, # of connection points: 2
#     Edge 105, Type (0, 0), BuildingBlock: XUDNAN_clean_linker_2, # of connection points: 2
#     Edge 106, Type (0, 0), BuildingBlock: XUDNAN_clean_linker_2, # of connection points: 2
#     Edge 107, Type (0, 0), BuildingBlock: XUDNAN_clean_linker_2, # of connection points: 2
# Relax obj value: 0.304
# Max RMSD: 0.107
# Mean RMSD: 0.107
data_MOF--net-unr--node1-QUQFOY_clean_sbu_1--edge1-XUDNAN_clean_linker_2
_symmetry_space_group_name_H-M    P1
_symmetry_Int_Tables_number       1
_symmetry_cell_setting            triclinic
loop_
_symmetry_equiv_pos_as_xyz
'x, y, z'
_cell_length_a     49.203133
_cell_length_b     49.2048
_cell_length_c     135.28719
_cell_angle_alpha  90.027411
_cell_angle_beta   89.988742
_cell_angle_gamma 120.00383
loop_
_atom_site_label
_atom_site_type_symbol
_atom_site_fract_x
_atom_site_fract_y
_atom_site_fract_z
_atom_type_partial_charge
O0 O 0.15754 0.08399 0.18009 0.0
Cd1 Cd 0.18094 0.13145 0.1818 0.0
Cd2 Cd 0.16686 0.11799 0.20188 0.0
O3 O 0.16648 0.07879 0.19573 0.0
O4 O 0.21757 0.14907 0.1729 0.0
O5 O 0.2207 0.14791 0.1893 0.0
C6 C 0.23425 0.15326 0.18075 0.0
C7 C 0.16641 0.11732 0.21926 0.0
C8 C 0.1589 0.06749 0.18704 0.0
C9 C 0.13787 0.14991 0.18903 0.0
O10 O 0.13909 0.13594 0.19678 0.0
O11 O 0.15508 0.15325 0.18163 0.0
O12 O 0.14302 0.09732 0.21409 0.0
O13 O 0.19098 0.13797 0.21459 0.0
O14 O 0.91344 0.0679 0.17683 0.0
Cd15 Cd 0.86645 0.0411 0.17423 0.0
Cd16 Cd 0.86233 0.04163 0.19497 0.0
O17 O 0.90577 0.08052 0.19178 0.0
O18 O 0.85667 0.05711 0.16218 0.0
O19 O 0.84277 0.06273 0.17738 0.0
C20 C 0.84502 0.06943 0.16805 0.0
C21 C 0.84761 0.03947 0.21162 0.0
C22 C 0.92384 0.08494 0.18449 0.0
C23 C 0.84546 0.98082 0.18306 0.0
O24 O 0.85175 0.99677 0.19097 0.0
O25 O 0.84744 0.99354 0.17474 0.0
O26 O 0.87186 0.03802 0.20896 0.0
O27 O 0.83169 0.04352 0.2048 0.0
O28 O 0.93681 0.83902 0.18029 0.0
Cd29 Cd 0.95918 0.81382 0.17926 0.0
Cd30 Cd 0.97397 0.83284 0.19994 0.0
O31 O 0.93435 0.8363 0.19659 0.0
O32 O 0.93428 0.77832 0.17027 0.0
O33 O 0.93814 0.77325 0.18647 0.0
C34 C 0.92538 0.76079 0.17807 0.0
C35 C 0.9903 0.84478 0.21653 0.0
C36 C 0.92545 0.84189 0.18838 0.0
C37 C 0.02463 0.85409 0.18288 0.0
O38 O 0.01465 0.85377 0.19156 0.0
O39 O 0.0059 0.838 0.17603 0.0
O40 O 0.99122 0.86527 0.21048 0.0
O41 O 0.97828 0.81632 0.21339 0.0
O42 O 0.09827 0.16477 0.32581 0.0
Cd43 Cd 0.14561 0.1849 0.32792 0.0
Cd44 Cd 0.13823 0.16232 0.30619 0.0
O45 O 0.09582 0.15971 0.30954 0.0
O46 O 0.15146 0.20704 0.34066 0.0
O47 O 0.17096 0.23163 0.32648 0.0
C48 C 0.16595 0.23298 0.3358 0.0
C49 C 0.14151 0.15029 0.28945 0.0
C50 C 0.08291 0.15857 0.31779 0.0
C51 C 0.16338 0.13755 0.32343 0.0
O52 O 0.15432 0.13851 0.31471 0.0
O53 O 0.16332 0.15558 0.33012 0.0
O54 O 0.12172 0.13017 0.29553 0.0
O55 O 0.15934 0.17841 0.29269 0.0
O56 O 0.83662 0.92337 0.31479 0.0
Cd57 Cd 0.81556 0.9503 0.31473 0.0
Cd58 Cd 0.83139 0.95882 0.29606 0.0
O59 O 0.83351 0.91831 0.29861 0.0
O60 O 0.77863 0.92946 0.32345 0.0
O61 O 0.77574 0.9324 0.3071 0.0
C62 C 0.76187 0.92137 0.31548 0.0
C63 C 0.82095 0.96865 0.27998 0.0
C64 C 0.83864 0.91011 0.30701 0.0
C65 C 0.86496 0.01278 0.31085 0.0
O66 O 0.86459 0.00019 0.30261 0.0
O67 O 0.84385 0.99741 0.31723 0.0
O68 O 0.84645 0.96892 0.28225 0.0
O69 O 0.79997 0.96092 0.28679 0.0
O70 O 0.06615 0.90057 0.32614 0.0
Cd71 Cd 0.04188 0.85431 0.32225 0.0
Cd72 Cd 0.04759 0.87606 0.30304 0.0
O73 O 0.0819 0.91453 0.31077 0.0
O74 O 0.05942 0.83177 0.3296 0.0
O75 O 0.06667 0.84255 0.31352 0.0
C76 C 0.07357 0.83255 0.32144 0.0
C77 C 0.05385 0.87821 0.28583 0.0
C78 C 0.08389 0.92119 0.31994 0.0
C79 C 0.98283 0.83999 0.31337 0.0
O80 O 0.0006 0.85673 0.3064 0.0
O81 O 0.99403 0.83371 0.32092 0.0
O82 O 0.04879 0.89787 0.29056 0.0
O83 O 0.05659 0.85747 0.29088 0.0
O84 O 0.84897 0.93668 0.8135 0.0
Cd85 Cd 0.81919 0.88916 0.81277 0.0
Cd86 Cd 0.83666 0.89702 0.79411 0.0
O87 O 0.84622 0.9423 0.79746 0.0
O88 O 0.7846 0.87887 0.82215 0.0
O89 O 0.77887 0.87583 0.80581 0.0
C90 C 0.76708 0.87417 0.81449 0.0
C91 C 0.82345 0.87786 0.77796 0.0
C92 C 0.85368 0.95421 0.80607 0.0
C93 C 0.85854 0.8634 0.8082 0.0
O94 O 0.86313 0.8796 0.80041 0.0
O95 O 0.838 0.86059 0.81441 0.0
O96 O 0.85083 0.90072 0.7802 0.0
O97 O 0.80238 0.86706 0.78482 0.0
O98 O 0.07229 0.90586 0.82249 0.0
Cd99 Cd 0.11957 0.93535 0.82404 0.0
Cd100 Cd 0.11463 0.94082 0.80402 0.0
O101 O 0.0729 0.8996 0.80639 0.0
O102 O 0.12933 0.92167 0.83662 0.0
O103 O 0.14598 0.91565 0.82197 0.0
C104 C 0.14289 0.90998 0.83137 0.0
C105 C 0.13414 0.95011 0.78774 0.0
C106 C 0.05845 0.89179 0.8146 0.0
C107 C 0.12706 0.99495 0.81805 0.0
O108 O 0.11755 0.98099 0.8098 0.0
O109 O 0.13399 0.98222 0.82501 0.0
O110 O 0.10803 0.94839 0.79005 0.0
O111 O 0.14917 0.94516 0.79466 0.0
O112 O 0.04859 0.15819 0.82815 0.0
Cd113 Cd 0.03693 0.19164 0.83241 0.0
Cd114 Cd 0.01165 0.16229 0.80726 0.0
O115 O 0.03573 0.14078 0.81256 0.0
O116 O 0.06258 0.21572 0.84391 0.0
O117 O 0.06944 0.23461 0.82859 0.0
C118 C 0.07881 0.23803 0.83769 0.0
C119 C 0.99386 0.15675 0.79118 0.0
C120 C 0.04822 0.14132 0.82091 0.0
C121 C 0.98181 0.17457 0.82358 0.0
O122 O 0.00366 0.18822 0.8173 0.0
O123 O 0.99018 0.17924 0.83254 0.0
O124 O 0.97657 0.13737 0.79798 0.0
O125 O 0.02177 0.17893 0.79348 0.0
O126 O 0.89569 0.82393 0.67441 0.0
Cd127 Cd 0.84845 0.80488 0.6726 0.0
Cd128 Cd 0.85223 0.81302 0.69444 0.0
O129 O 0.8964 0.82038 0.6907 0.0
O130 O 0.83893 0.78217 0.65987 0.0
O131 O 0.82294 0.75858 0.67443 0.0
C132 C 0.82549 0.75658 0.66497 0.0
C133 C 0.84213 0.81004 0.71155 0.0
C134 C 0.9103 0.82622 0.68238 0.0
C135 C 0.82853 0.84735 0.68033 0.0
O136 O 0.83618 0.84104 0.6886 0.0
O137 O 0.83091 0.83487 0.67242 0.0
O138 O 0.86426 0.83467 0.70744 0.0
O139 O 0.8263 0.7857 0.70604 0.0
O140 O 0.15462 0.06241 0.68379 0.0
Cd141 Cd 0.17645 0.03643 0.68235 0.0
Cd142 Cd 0.16562 0.02896 0.70232 0.0
O143 O 0.16479 0.07007 0.6997 0.0
O144 O 0.20244 0.05315 0.67035 0.0
O145 O 0.22216 0.05912 0.68548 0.0
C146 C 0.22649 0.06569 0.67614 0.0
C147 C 0.1741 0.02076 0.71889 0.0
C148 C 0.15627 0.07707 0.69168 0.0
C149 C 0.12896 0.974 0.68793 0.0
O150 O 0.13116 0.9872 0.69621 0.0
O151 O 0.14841 0.98887 0.68109 0.0
O152 O 0.14934 0.021 0.71605 0.0
O153 O 0.1953 0.02637 0.71233 0.0
O154 O 0.92427 0.07987 0.68276 0.0
Cd155 Cd 0.94938 0.12752 0.68389 0.0
Cd156 Cd 0.95041 0.11735 0.70383 0.0
O157 O 0.91529 0.0738 0.69881 0.0
O158 O 0.93063 0.14511 0.67483 0.0
O159 O 0.92742 0.14579 0.69123 0.0
C160 C 0.91911 0.15075 0.68265 0.0
C161 C 0.94802 0.12787 0.72055 0.0
C162 C 0.9098 0.0626 0.69008 0.0
C163 C 0.01149 0.14778 0.69128 0.0
O164 O 0.99658 0.13617 0.69927 0.0
O165 O -0.0028 0.14837 0.68356 0.0
O166 O 0.95662 0.1084 0.71772 0.0
O167 O 0.93956 0.14097 0.71392 0.0
O168 O 0.82531 0.42544 0.50373 0.0
Cd169 Cd 0.84847 0.47337 0.50479 0.0
Cd170 Cd 0.83169 0.46302 0.52424 0.0
O171 O 0.82438 0.4194 0.51991 0.0
O172 O 0.88888 0.49096 0.49766 0.0
O173 O 0.88441 0.49005 0.51405 0.0
C174 C 0.90175 0.49532 0.5063 0.0
C175 C 0.8383 0.47478 0.54116 0.0
C176 C 0.82017 0.40799 0.51122 0.0
C177 C 0.80451 0.49305 0.51014 0.0
O178 O 0.80486 0.48015 0.51823 0.0
O179 O 0.82256 0.49527 0.5031 0.0
O180 O 0.81242 0.45273 0.53758 0.0
O181 O 0.86162 0.48945 0.53517 0.0
O182 O 0.57319 0.41029 0.5157 0.0
Cd183 Cd 0.52753 0.38491 0.52029 0.0
Cd184 Cd 0.55277 0.38962 0.53762 0.0
O185 O 0.59099 0.42665 0.53072 0.0
O186 O 0.50385 0.39799 0.51162 0.0
O187 O 0.51256 0.40999 0.52758 0.0
C188 C 0.50262 0.41365 0.51911 0.0
C189 C 0.53951 0.39232 0.554 0.0
C190 C 0.59531 0.42849 0.52141 0.0
C191 C 0.52066 0.32642 0.52737 0.0
O192 O 0.54081 0.34449 0.53367 0.0
O193 O 0.50833 0.33713 0.52143 0.0
O194 O 0.56473 0.39181 0.5518 0.0
O195 O 0.52271 0.39337 0.54683 0.0
O196 O 0.58333 0.16036 0.51502 0.0
Cd197 Cd 0.61076 0.14064 0.51242 0.0
Cd198 Cd 0.62583 0.15737 0.53294 0.0
O199 O 0.58836 0.16493 0.53124 0.0
O200 O 0.59437 0.11978 0.49952 0.0
O201 O 0.58959 0.09378 0.51336 0.0
C202 C 0.58308 0.09337 0.50409 0.0
C203 C 0.63574 0.14943 0.54943 0.0
C204 C 0.57581 0.16698 0.52327 0.0
C205 C 0.67614 0.18918 0.51672 0.0
O206 O 0.66684 0.18725 0.52559 0.0
O207 O 0.65779 0.17072 0.51014 0.0
O208 O 0.63921 0.17566 0.54636 0.0
O209 O 0.62587 0.12675 0.54313 0.0
O210 O 0.73867 0.47454 0.64659 0.0
Cd211 Cd 0.78641 0.50169 0.64616 0.0
Cd212 Cd 0.7799 0.48834 0.62658 0.0
O213 O 0.73456 0.47754 0.63046 0.0
O214 O 0.79912 0.53786 0.65508 0.0
O215 O 0.80213 0.54146 0.63868 0.0
C216 C 0.80467 0.55461 0.64718 0.0
C217 C 0.79426 0.50022 0.60998 0.0
C218 C 0.72195 0.47037 0.63898 0.0
C219 C 0.81288 0.46366 0.64032 0.0
O220 O 0.80002 0.46332 0.63215 0.0
O221 O 0.81217 0.47976 0.64753 0.0
O222 O 0.77299 0.47275 0.61278 0.0
O223 O 0.8066 0.522 0.61659 0.0
O224 O 0.50397 0.28046 0.66105 0.0
Cd225 Cd 0.4752 0.29856 0.6644 0.0
Cd226 Cd 0.50006 0.31805 0.63987 0.0
O227 O 0.51628 0.28873 0.64494 0.0
O228 O 0.43924 0.27047 0.67295 0.0
O229 O 0.43587 0.27575 0.65673 0.0
C230 C 0.42286 0.26148 0.66489 0.0
C231 C 0.50055 0.33059 0.62338 0.0
C232 C 0.51694 0.27704 0.65333 0.0
C233 C 0.49994 0.35574 0.65629 0.0
O234 O 0.48222 0.33518 0.6501 0.0
O235 O 0.49608 0.3469 0.66521 0.0
O236 O 0.52498 0.34653 0.62889 0.0
O237 O 0.47615 0.30684 0.62722 0.0
O238 O 0.74772 0.24616 0.65321 0.0
Cd239 Cd 0.71752 0.19925 0.65539 0.0
Cd240 Cd 0.71155 0.20204 0.63516 0.0
O241 O 0.7551 0.24139 0.63741 0.0
O242 O 0.73054 0.19079 0.66833 0.0
O243 O 0.73612 0.17149 0.65413 0.0
C244 C 0.74136 0.17556 0.66353 0.0
C245 C 0.70146 0.18275 0.61884 0.0
C246 C 0.76302 0.25764 0.64529 0.0
C247 C 0.65865 0.1931 0.64923 0.0
O248 O 0.67267 0.20215 0.64097 0.0
O249 O 0.6709 0.18563 0.6562 0.0
O250 O 0.70518 0.20969 0.62117 0.0
O251 O 0.70444 0.16649 0.6258 0.0
O252 O 0.49706 0.23081 0.15146 0.0
Cd253 Cd 0.4779 0.18348 0.15346 0.0
Cd254 Cd 0.49766 0.18955 0.13307 0.0
O255 O 0.50349 0.2338 0.13527 0.0
O256 O 0.45642 0.17749 0.16634 0.0
O257 O 0.43106 0.15792 0.15228 0.0
C258 C 0.43024 0.16308 0.16161 0.0
C259 C 0.49164 0.17217 0.11657 0.0
C260 C 0.50418 0.24656 0.14351 0.0
C261 C 0.52839 0.16965 0.14929 0.0
O262 O 0.52748 0.17881 0.14058 0.0
O263 O 0.50851 0.16717 0.15572 0.0
O264 O 0.5172 0.19555 0.11979 0.0
O265 O 0.4684 0.15887 0.12265 0.0
O266 O 0.76621 0.26652 0.16096 0.0
Cd267 Cd 0.81383 0.29213 0.15939 0.0
Cd268 Cd 0.80217 0.29447 0.13976 0.0
O269 O 0.75904 0.25906 0.14488 0.0
O270 O 0.83316 0.27173 0.16697 0.0
O271 O 0.83048 0.27184 0.15056 0.0
C272 C 0.83696 0.26171 0.15852 0.0
C273 C 0.81314 0.29314 0.12299 0.0
C274 C 0.74832 0.25288 0.15366 0.0
C275 C 0.83259 0.35464 0.15245 0.0
O276 O 0.81988 0.34015 0.14448 0.0
O277 O 0.83444 0.34009 0.15992 0.0
O278 O 0.79115 0.29812 0.12591 0.0
O279 O 0.82858 0.28759 0.12962 0.0
O280 O 0.74165 0.49204 0.15429 0.0
Cd281 Cd 0.71401 0.51232 0.15426 0.0
Cd282 Cd 0.71781 0.50743 0.13468 0.0
O283 O 0.75815 0.50756 0.13912 0.0
O284 O 0.72446 0.53671 0.16667 0.0
O285 O 0.73692 0.55829 0.15173 0.0
C286 C 0.73923 0.5615 0.16125 0.0
C287 C 0.7169 0.52561 0.11876 0.0
C288 C 0.76091 0.49676 0.14736 0.0
C289 C 0.65644 0.465 0.1454 0.0
O290 O 0.6745 0.46927 0.13813 0.0
O291 O 0.66655 0.48328 0.1528 0.0
O292 O 0.71866 0.50073 0.12024 0.0
O293 O 0.71719 0.54148 0.1264 0.0
O294 O 0.57356 0.17507 0.01001 0.0
Cd295 Cd 0.52606 0.15396 0.01225 0.0
Cd296 Cd 0.54342 0.16232 0.03105 0.0
O297 O 0.58278 0.16388 0.02493 0.0
O298 O 0.50741 0.12763 0.0004 0.0
O299 O 0.5055 0.10837 0.0154 0.0
C300 C 0.50072 0.10379 0.00598 0.0
C301 C 0.52882 0.14506 0.04734 0.0
C302 C 0.59196 0.17299 0.01613 0.0
C303 C 0.51881 0.20217 0.02191 0.0
O304 O 0.53608 0.19942 0.02835 0.0
O305 O 0.5076 0.18269 0.01483 0.0
O306 O 0.5548 0.17005 0.04526 0.0
O307 O 0.51169 0.12822 0.04006 0.0
O308 O 0.81375 0.40503 0.02113 0.0
Cd309 Cd 0.84122 0.38527 0.01869 0.0
Cd310 Cd 0.82222 0.36013 0.03719 0.0
O311 O 0.8031 0.3892 0.03662 0.0
O312 O 0.87506 0.41365 0.00963 0.0
O313 O 0.88302 0.40587 0.02529 0.0
C314 C 0.89398 0.42068 0.01704 0.0
C315 C 0.83163 0.34848 0.05324 0.0
C316 C 0.80094 0.40432 0.02933 0.0
C317 C 0.80275 0.31666 0.01914 0.0
O318 O 0.80184 0.32089 0.02837 0.0
O319 O 0.81887 0.33985 0.01348 0.0
O320 O 0.80387 0.33924 0.04998 0.0
O321 O 0.85485 0.36512 0.04741 0.0
O322 O 0.58704 0.43239 0.01605 0.0
Cd323 Cd 0.61374 0.4738 0.00807 0.0
Cd324 Cd 0.62673 0.47844 0.03511 0.0
O325 O 0.59044 0.43302 0.03264 0.0
O326 O 0.59334 0.47201 0.99531 0.0
O327 O 0.5949 0.50098 0.0082 0.0
C328 C 0.58446 0.49001 0.99945 0.0
C329 C 0.64574 0.49926 0.05064 0.0
C330 C 0.5787 0.41882 0.02447 0.0
C331 C 0.66771 0.49563 0.01717 0.0
O332 O 0.64854 0.4997 0.02238 0.0
O333 O 0.66208 0.49255 0.008 0.0
O334 O 0.65528 0.48249 0.04608 0.0
O335 O 0.6251 0.5042 0.04633 0.0
O336 O 0.5028 0.77245 0.84295 0.0
Cd337 Cd 0.51801 0.81957 0.84337 0.0
Cd338 Cd 0.50533 0.80594 0.86341 0.0
O339 O 0.50525 0.76558 0.85896 0.0
O340 O 0.54081 0.83495 0.83071 0.0
O341 O 0.5641 0.84772 0.84537 0.0
C342 C 0.56632 0.84844 0.83583 0.0
C343 C 0.51605 0.82105 0.88009 0.0
C344 C 0.50156 0.75532 0.85014 0.0
C345 C 0.46507 0.82441 0.85088 0.0
O346 O 0.46911 0.81216 0.8586 0.0
O347 O 0.48438 0.83258 0.84376 0.0
O348 O 0.4918 0.79529 0.8774 0.0
O349 O 0.53576 0.8379 0.87331 0.0
O350 O 0.22532 0.72142 0.84541 0.0
Cd351 Cd 0.17788 0.69299 0.8467 0.0
Cd352 Cd 0.19038 0.68701 0.86529 0.0
O353 O 0.23267 0.72635 0.86151 0.0
O354 O 0.15883 0.71153 0.83822 0.0
O355 O 0.15744 0.71157 0.85467 0.0
C356 C 0.15255 0.72128 0.84633 0.0
C357 C 0.17315 0.68185 0.88171 0.0
C358 C 0.24306 0.73466 0.85277 0.0
C359 C 0.16748 0.63126 0.8511 0.0
O360 O 0.18047 0.64456 0.85919 0.0
O361 O 0.16065 0.64583 0.84472 0.0
O362 O 0.19756 0.6802 0.8793 0.0
O363 O 0.15875 0.68769 0.87479 0.0
O364 O 0.27552 0.50141 0.84096 0.0
Cd365 Cd 0.30557 0.48419 0.84265 0.0
Cd366 Cd 0.30791 0.50069 0.86165 0.0
O367 O 0.26831 0.50173 0.85703 0.0
O368 O 0.28829 0.44413 0.83529 0.0
O369 O 0.28923 0.4477 0.85169 0.0
C370 C 0.27986 0.4305 0.84382 0.0
C371 C 0.31124 0.4909 0.87842 0.0
C372 C 0.2608 0.50432 0.84822 0.0
C373 C 0.366 0.5358 0.84837 0.0
O374 O 0.35107 0.53387 0.85625 0.0
O375 O 0.35286 0.51568 0.84153 0.0
O376 O 0.31204 0.51607 0.87542 0.0
O377 O 0.30714 0.4701 0.87188 0.0
O378 O 0.41849 0.82888 0.98527 0.0
Cd379 Cd 0.46624 0.85221 0.98608 0.0
Cd380 Cd 0.46332 0.84286 0.96588 0.0
O381 O 0.419 0.8362 0.96917 0.0
O382 O 0.47984 0.88762 0.99541 0.0
O383 O 0.48617 0.89306 0.9791 0.0
C384 C 0.48764 0.90542 0.98767 0.0
C385 C 0.4787 0.85243 0.9492 0.0
C386 C 0.4043 0.82815 0.97736 0.0
C387 C 0.48735 0.80985 0.98011 0.0
O388 O 0.4779 0.81343 0.97173 0.0
O389 O 0.48697 0.82529 0.98756 0.0
O390 O 0.45575 0.82615 0.95217 0.0
O391 O 0.49239 0.87451 0.95566 0.0
O392 O 0.16376 0.59689 0.98829 0.0
Cd393 Cd 0.14463 0.62478 0.99062 0.0
Cd394 Cd 0.14484 0.62564 0.96905 0.0
O395 O 0.14959 0.58709 0.97263 0.0
O396 O 0.12325 0.61195 0.00358 0.0
O397 O 0.09821 0.60378 0.98925 0.0
C398 C 0.09716 0.5995 0.99872 0.0
C399 C 0.13592 0.62873 0.95207 0.0
C400 C 0.16017 0.58131 0.98045 0.0
C401 C 0.18576 0.68562 0.98186 0.0
O402 O 0.17708 0.67041 0.97379 0.0
O403 O 0.17434 0.67218 0.99005 0.0
O404 O 0.16151 0.63126 0.95538 0.0
O405 O 0.11412 0.62309 0.95841 0.0
O406 O 0.39546 0.57795 0.98552 0.0
Cd407 Cd 0.36895 0.5301 0.98527 0.0
Cd408 Cd 0.3656 0.53645 0.96546 0.0
O409 O 0.40372 0.57959 0.96947 0.0
O410 O 0.38879 0.51263 0.99392 0.0
O411 O 0.38779 0.50945 0.9775 0.0
C412 C 0.39782 0.50524 0.98588 0.0
C413 C 0.36341 0.52208 0.94884 0.0
C414 C 0.41013 0.59302 0.97787 0.0
C415 C 0.30661 0.51175 0.97871 0.0
O416 O 0.32074 0.52217 0.97053 0.0
O417 O 0.32135 0.51076 0.98626 0.0
O418 O 0.35997 0.54521 0.95155 0.0
O419 O 0.3696 0.50745 0.9556 0.0
O420 O 0.17506 0.57084 0.49369 0.0
Cd421 Cd 0.15305 0.52314 0.4946 0.0
Cd422 Cd 0.15038 0.52544 0.474 0.0
O423 O 0.15457 0.56755 0.47895 0.0
O424 O 0.12429 0.50964 0.50603 0.0
O425 O 0.10876 0.50243 0.49031 0.0
C426 C 0.10201 0.50127 0.49961 0.0
C427 C 0.13529 0.5136 0.45738 0.0
C428 C 0.1681 0.58334 0.48667 0.0
C429 C 0.191 0.50224 0.48476 0.0
O430 O 0.18323 0.51195 0.47715 0.0
O431 O 0.17965 0.5023 0.49317 0.0
O432 O 0.16163 0.53732 0.45994 0.0
O433 O 0.11635 0.49673 0.46432 0.0
O434 O 0.41803 0.58696 0.48476 0.0
Cd435 Cd 0.46542 0.61572 0.48591 0.0
Cd436 Cd 0.46188 0.608 0.46543 0.0
O437 O 0.4199 0.56957 0.46991 0.0
O438 O 0.47668 0.6076 0.49918 0.0
O439 O 0.48984 0.59365 0.48513 0.0
C440 C 0.48839 0.59262 0.49469 0.0
C441 C 0.47821 0.60592 0.44927 0.0
C442 C 0.40482 0.56751 0.47777 0.0
C443 C 0.47911 0.67165 0.47508 0.0
O444 O 0.46964 0.65282 0.46779 0.0
O445 O 0.4824 0.66257 0.48354 0.0
O446 O 0.45249 0.60567 0.45108 0.0
O447 O 0.4944 0.60558 0.45672 0.0
O448 O 0.39047 0.81628 0.48068 0.0
Cd449 Cd 0.36758 0.84043 0.48324 0.0
Cd450 Cd 0.34585 0.82102 0.46318 0.0
O451 O 0.38423 0.81414 0.46447 0.0
O452 O 0.39372 0.87399 0.49269 0.0
O453 O 0.38653 0.88266 0.47703 0.0
C454 C 0.40061 0.89335 0.48541 0.0
C455 C 0.32577 0.81493 0.44704 0.0
C456 C 0.39705 0.81052 0.47215 0.0
C457 C 0.30099 0.79859 0.48166 0.0
O458 O 0.30758 0.79896 0.47257 0.0
O459 O 0.32215 0.8151 0.48787 0.0
O460 O 0.34063 0.84249 0.45096 0.0
O461 O 0.3241 0.79196 0.45201 0.0
O462 O 0.24644 0.51448 0.35632 0.0
Cd463 Cd 0.19924 0.4866 0.35406 0.0
Cd464 Cd 0.19402 0.51092 0.37156 0.0
O465 O 0.24236 0.53048 0.37119 0.0
O466 O 0.19511 0.45273 0.34525 0.0
O467 O 0.17817 0.44493 0.36077 0.0
C468 C 0.18296 0.43397 0.35267 0.0
C469 C 0.17128 0.50039 0.38738 0.0
C470 C 0.25915 0.53001 0.36411 0.0
C471 C 0.16981 0.52569 0.35266 0.0
O472 O 0.17508 0.52935 0.3619 0.0
O473 O 0.17648 0.50773 0.34779 0.0
O474 O 0.18903 0.52849 0.38422 0.0
O475 O 0.16634 0.4776 0.38155 0.0
O476 O 0.5026 0.73865 0.34773 0.0
Cd477 Cd 0.51416 0.71035 0.33925 0.0
Cd478 Cd 0.50989 0.69854 0.36638 0.0
O479 O 0.50217 0.73593 0.36435 0.0
O480 O 0.5317 0.73001 0.3263 0.0
O481 O 0.55985 0.72711 0.33875 0.0
C482 C 0.5588 0.7377 0.33008 0.0
C483 C 0.5137 0.67902 0.38157 0.0
C484 C 0.49918 0.74778 0.35627 0.0
C485 C 0.48209 0.65718 0.34874 0.0
O486 O 0.50652 0.67613 0.35355 0.0
O487 O 0.48308 0.66228 0.33957 0.0
O488 O 0.48675 0.67041 0.37756 0.0
O489 O 0.53876 0.69926 0.37693 0.0
O490 O 0.26488 0.75274 0.33948 0.0
Cd491 Cd 0.28994 0.8 0.34222 0.0
Cd492 Cd 0.27827 0.78191 0.36124 0.0
O493 O 0.24153 0.74471 0.3539 0.0
O494 O 0.28143 0.82043 0.33103 0.0
O495 O 0.26318 0.81774 0.34626 0.0
C496 C 0.26327 0.82454 0.337 0.0
C497 C 0.26924 0.78689 0.37797 0.0
C498 C 0.24281 0.73505 0.34529 0.0
C499 C 0.34439 0.80862 0.35292 0.0
O500 O 0.32373 0.79107 0.35917 0.0
O501 O 0.33671 0.81937 0.34557 0.0
O502 O 0.27005 0.76289 0.37463 0.0
O503 O 0.27273 0.80832 0.37177 0.0
H504 H 0.0994 0.13907 0.17341 0.0
H505 H 0.11804 0.17464 0.20337 0.0
H506 H 0.0673 0.17339 0.20375 0.0
H507 H 0.04669 0.17337 0.16556 0.0
H508 H 0.02134 0.13782 0.15889 0.0
H509 H 0.0629 0.15188 0.1596 0.0
H510 H 0.05103 0.09808 0.16662 0.0
H511 H 0.0097 0.08405 0.16609 0.0
H512 H 0.02752 0.08323 0.17765 0.0
H513 H 0.0112 0.15642 0.20254 0.0
H514 H 0.95414 0.12451 0.19998 0.0
H515 H 0.97012 0.09709 0.17103 0.0
C516 C 0.09349 0.14834 0.1798 0.0
C517 C 0.11271 0.15764 0.18828 0.0
C518 C 0.10373 0.16801 0.19676 0.0
C519 C 0.07501 0.16745 0.19701 0.0
C520 C 0.05551 0.15626 0.18875 0.0
C521 C 0.06448 0.14712 0.18024 0.0
C522 C 0.03708 0.13014 0.1732 0.0
C523 C 0.04232 0.14947 0.16375 0.0
C524 C 0.03099 0.09693 0.17076 0.0
C525 C 0.01091 0.12903 0.17939 0.0
C526 C 0.02221 0.14518 0.18817 0.0
C527 C 0.00213 0.1444 0.19558 0.0
C528 C 0.9697 0.12602 0.19408 0.0
C529 C 0.95765 0.10826 0.1853 0.0
C530 C 0.9786 0.1107 0.17776 0.0
H531 H 0.86274 0.95127 0.16952 0.0
H532 H 0.82097 0.94029 0.1985 0.0
H533 H 0.82832 0.89516 0.20179 0.0
H534 H 0.83616 0.8636 0.16531 0.0
H535 H 0.87309 0.87443 0.15943 0.0
H536 H 0.85596 0.8992 0.15815 0.0
H537 H 0.90739 0.94626 0.16476 0.0
H538 H 0.92443 0.92171 0.16628 0.0
H539 H 0.92212 0.94335 0.17669 0.0
H540 H 0.85199 0.86155 0.20365 0.0
H541 H 0.88661 0.83868 0.20339 0.0
H542 H 0.91329 0.8709 0.17321 0.0
C543 C 0.85354 0.93819 0.17631 0.0
C544 C 0.84101 0.94896 0.18371 0.0
C545 C 0.83038 0.93217 0.1927 0.0
C546 C 0.83442 0.90647 0.19463 0.0
C547 C 0.8489 0.89773 0.18746 0.0
C548 C 0.85775 0.91266 0.17838 0.0
C549 C 0.8772 0.90208 0.1726 0.0
C550 C 0.85954 0.88373 0.16332 0.0
C551 C 0.90969 0.93001 0.16994 0.0
C552 C 0.87978 0.88071 0.18012 0.0
C553 C 0.86274 0.87797 0.18855 0.0
C554 C 0.86463 0.86267 0.19698 0.0
C555 C 0.88458 0.85001 0.19679 0.0
C556 C 0.90246 0.85284 0.18826 0.0
C557 C 0.89942 0.86781 0.17977 0.0
H558 H 0.12188 0.02876 0.17229 0.0
H559 H 0.17646 0.03205 0.19788 0.0
H560 H 0.15758 0.97555 0.19603 0.0
H561 H 0.05689 0.96348 0.17868 0.0
H562 H 0.04464 0.94718 0.16647 0.0
H563 H 0.06932 0.98869 0.16798 0.0
H564 H 0.11001 0.98769 0.15602 0.0
H565 H 0.08538 0.94581 0.1546 0.0
H566 H 0.12554 0.9621 0.15855 0.0
H567 H 0.12459 0.91887 0.19407 0.0
H568 H 0.07689 0.86687 0.19317 0.0
H569 H 0.04316 0.89828 0.16867 0.0
C570 C 0.13077 0.01775 0.17725 0.0
C571 C 0.15078 0.03472 0.18517 0.0
C572 C 0.16116 0.01945 0.19174 0.0
C573 C 0.15084 0.98742 0.19067 0.0
C574 C 0.13021 0.97099 0.18298 0.0
C575 C 0.12028 0.98565 0.17636 0.0
C576 C 0.09374 0.96191 0.16995 0.0
C577 C 0.06444 0.96552 0.17084 0.0
C578 C 0.10431 0.96454 0.15914 0.0
C579 C 0.08853 0.93158 0.17455 0.0
C580 C 0.11067 0.93736 0.1818 0.0
C581 C 0.1078 0.91384 0.1882 0.0
C582 C 0.08071 0.8843 0.18761 0.0
C583 C 0.05695 0.87857 0.18068 0.0
C584 C 0.06176 0.90183 0.17371 0.0
H585 H 0.17413 0.10133 0.31073 0.0
H586 H 0.16013 0.11225 0.34178 0.0
H587 H 0.1491 0.05832 0.34493 0.0
H588 H 0.11219 0.03351 0.30792 0.0
H589 H 0.12729 0.01596 0.29946 0.0
H590 H 0.14517 0.05779 0.30006 0.0
H591 H 0.19924 0.06322 0.30385 0.0
H592 H 0.1817 0.02117 0.30302 0.0
H593 H 0.2031 0.04154 0.31397 0.0
H594 H 0.12497 0.00026 0.34385 0.0
H595 H 0.09387 0.94469 0.33885 0.0
H596 H 0.12261 0.97128 0.30841 0.0
C597 C 0.17034 0.09292 0.31828 0.0
C598 C 0.16791 0.11089 0.326 0.0
C599 C 0.16244 0.09902 0.33576 0.0
C600 C 0.15606 0.06831 0.33762 0.0
C601 C 0.15585 0.05014 0.32966 0.0
C602 C 0.16366 0.06233 0.3202 0.0
C603 C 0.15653 0.03691 0.31264 0.0
C604 C 0.13395 0.03601 0.30456 0.0
C605 C 0.18696 0.04095 0.30811 0.0
C606 C 0.14102 0.00824 0.31919 0.0
C607 C 0.14163 0.01631 0.32902 0.0
C608 C 0.12522 0.99368 0.33623 0.0
C609 C 0.1074 0.96216 0.33331 0.0
C610 C 0.10582 0.95363 0.32323 0.0
C611 C 0.12364 0.97697 0.31618 0.0
H612 H 0.91183 0.0515 0.29841 0.0
H613 H 0.88093 0.04286 0.32886 0.0
H614 H 0.93237 0.08813 0.33339 0.0
H615 H 0.98218 0.06134 0.30329 0.0
H616 H 0.00361 0.08904 0.2936 0.0
H617 H 0.96235 0.06235 0.2922 0.0
H618 H 0.95265 0.10889 0.28936 0.0
H619 H 0.99415 0.13591 0.29064 0.0
H620 H 0.96656 0.14014 0.29833 0.0
H621 H 0.98977 0.12605 0.33517 0.0
H622 H 0.04748 0.15339 0.33411 0.0
H623 H 0.04098 0.13644 0.30247 0.0
C624 C 0.9154 0.05982 0.30597 0.0
C625 C 0.89237 0.04366 0.31328 0.0
C626 C 0.89814 0.05502 0.32312 0.0
C627 C 0.92729 0.08077 0.32575 0.0
C628 C 0.95015 0.09508 0.31843 0.0
C629 C 0.94432 0.08523 0.3087 0.0
C630 C 0.97386 0.10119 0.3025 0.0
C631 C 0.9809 0.07704 0.29762 0.0
C632 C 0.97167 0.12283 0.29475 0.0
C633 C -0.00232 0.11996 0.31039 0.0
C634 C 0.98349 0.11683 0.31948 0.0
C635 C 0.00105 0.1293 0.32806 0.0
C636 C 0.03387 0.14467 0.32738 0.0
C637 C 0.04879 0.14708 0.31819 0.0
C638 C 0.03035 0.13538 0.30958 0.0
H639 H 0.86678 0.89893 0.32266 0.0
H640 H 0.83506 0.86936 0.29261 0.0
H641 H 0.85885 0.83561 0.29289 0.0
H642 H 0.93889 0.91003 0.31954 0.0
H643 H 0.94313 0.89657 0.33152 0.0
H644 H 0.91675 0.91142 0.32996 0.0
H645 H 0.87117 0.85948 0.33693 0.0
H646 H 0.89758 0.84435 0.33846 0.0
H647 H 0.86214 0.82265 0.33132 0.0
H648 H 0.89499 0.81525 0.29489 0.0
H649 H 0.94271 0.81224 0.29815 0.0
H650 H 0.95105 0.85345 0.32704 0.0
C651 C 0.86382 0.88443 0.31628 0.0
C652 C 0.84891 0.8866 0.30763 0.0
C653 C 0.8463 0.86799 0.29932 0.0
C654 C 0.8595 0.84851 0.29945 0.0
C655 C 0.87505 0.84772 0.30797 0.0
C656 C 0.87714 0.86508 0.31627 0.0
C657 C 0.89936 0.86417 0.32384 0.0
C658 C 0.9261 0.89751 0.32635 0.0
C659 C 0.88149 0.84661 0.33319 0.0
C660 C 0.91123 0.84554 0.31821 0.0
C661 C 0.89613 0.83543 0.30919 0.0
C662 C 0.90623 0.82201 0.30205 0.0
C663 C 0.93328 0.8203 0.30396 0.0
C664 C 0.9498 0.83179 0.31295 0.0
C665 C 0.93786 0.8432 0.32032 0.0
H666 H 0.89809 0.85821 0.79535 0.0
H667 H 0.86748 0.84171 0.82591 0.0
H668 H 0.91104 0.83247 0.83002 0.0
H669 H 0.93389 0.80367 0.79496 0.0
H670 H 0.96526 0.83131 0.78716 0.0
H671 H 0.92648 0.82627 0.78599 0.0
H672 H 0.94958 0.88599 0.78867 0.0
H673 H 0.9881 0.89115 0.78987 0.0
H674 H 0.97235 0.90416 0.79964 0.0
H675 H 0.96427 0.83985 0.83168 0.0
H676 H 0.02164 0.86302 0.83074 0.0
H677 H 0.01803 0.87395 0.79906 0.0
C678 C 0.89982 0.85139 0.80283 0.0
C679 C 0.87955 0.85078 0.81032 0.0
C680 C 0.88265 0.84211 0.82004 0.0
C681 C 0.90728 0.83668 0.82243 0.0
C682 C 0.92811 0.83939 0.81497 0.0
C683 C 0.92424 0.84598 0.80531 0.0
C684 C 0.95246 0.85303 0.79902 0.0
C685 C 0.94401 0.82701 0.79133 0.0
C686 C 0.96643 0.8855 0.79403 0.0
C687 C 0.97409 0.85246 0.80685 0.0
C688 C 0.95926 0.84344 0.81594 0.0
C689 C 0.97585 0.84593 0.82456 0.0
C690 C 0.00849 0.85928 0.82396 0.0
C691 C 0.0242 0.87018 0.81481 0.0
C692 C 0.00654 0.86515 0.80611 0.0
H693 H 0.05668 0.10523 0.80709 0.0
H694 H 0.07638 0.13582 0.83769 0.0
H695 H 0.1042 0.10624 0.83979 0.0
H696 H 0.04117 0.02799 0.8112 0.0
H697 H 0.05907 0.02571 0.79983 0.0
H698 H 0.04251 0.05098 0.80064 0.0
H699 H 0.09585 0.09821 0.79522 0.0
H700 H 0.11268 0.07308 0.79452 0.0
H701 H 0.13082 0.10777 0.80214 0.0
H702 H 0.12719 0.07072 0.83888 0.0
H703 H 0.1406 0.0296 0.83518 0.0
H704 H 0.10712 0.02383 0.80512 0.0
C705 C 0.06695 0.10589 0.81422 0.0
C706 C 0.06432 0.12294 0.8222 0.0
C707 C 0.07805 0.12299 0.83143 0.0
C708 C 0.09409 0.1064 0.83271 0.0
C709 C 0.09641 0.09002 0.82467 0.0
C710 C 0.08314 0.08958 0.81562 0.0
C711 C 0.08757 0.06888 0.8083 0.0
C712 C 0.05569 0.04179 0.8048 0.0
C713 C 0.10795 0.08815 0.79953 0.0
C714 C 0.10474 0.05717 0.81473 0.0
C715 C 0.10993 0.06985 0.82412 0.0
C716 C 0.1236 0.06089 0.83152 0.0
C717 C 0.13124 0.0376 0.82934 0.0
C718 C 0.12504 0.02354 0.81986 0.0
C719 C 0.11252 0.03429 0.81242 0.0
H720 H 0.8914 0.98941 0.82121 0.0
H721 H 0.84793 0.9961 0.79413 0.0
H722 H 0.87102 0.05326 0.79684 0.0
H723 H 0.88475 0.04832 0.83553 0.0
H724 H 0.92289 0.06346 0.84111 0.0
H725 H 0.90071 0.0228 0.8375 0.0
H726 H 0.94722 0.02944 0.82667 0.0
H727 H 0.96962 0.0699 0.83038 0.0
H728 H 0.96336 0.05994 0.81744 0.0
H729 H 0.90057 0.11014 0.8023 0.0
H730 H 0.9396 0.16252 0.80882 0.0
H731 H 0.96441 0.11799 0.83196 0.0
C732 C 0.88639 0.00283 0.81592 0.0
C733 C 0.86761 0.98836 0.80752 0.0
C734 C 0.86222 0.0068 0.80063 0.0
C735 C 0.87502 0.03918 0.80215 0.0
C736 C 0.89333 0.05271 0.81054 0.0
C737 C 0.89937 0.03513 0.81723 0.0
C738 C 0.92208 0.05557 0.82516 0.0
C739 C 0.90667 0.04702 0.83543 0.0
C740 C 0.95235 0.0536 0.82489 0.0
C741 C 0.92807 0.08746 0.82188 0.0
C742 C 0.91093 0.08536 0.81353 0.0
C743 C 0.91388 0.11202 0.80889 0.0
C744 C 0.93593 0.14161 0.81265 0.0
C745 C 0.95461 0.14408 0.82091 0.0
C746 C 0.94992 0.11668 0.82574 0.0
H747 H 0.90544 0.02599 0.6743 0.0
H748 H 0.86189 0.02394 0.70237 0.0
H749 H 0.82499 0.96735 0.70023 0.0
H750 H 0.83253 0.96163 0.66157 0.0
H751 H 0.8551 0.94645 0.6557 0.0
H752 H 0.87279 0.98793 0.65814 0.0
H753 H 0.91762 0.98693 0.66791 0.0
H754 H 0.90035 0.94581 0.66538 0.0
H755 H 0.90785 0.95957 0.67798 0.0
H756 H 0.80023 0.91104 0.6968 0.0
H757 H 0.79394 0.85903 0.6934 0.0
H758 H 0.85277 0.89612 0.66747 0.0
C759 C 0.88746 0.01377 0.67983 0.0
C760 C 0.88632 0.0293 0.68847 0.0
C761 C 0.86313 0.01245 0.6957 0.0
C762 C 0.84182 0.98039 0.69448 0.0
C763 C 0.84395 0.96554 0.68597 0.0
C764 C 0.86628 0.98166 0.67878 0.0
C765 C 0.86719 0.95942 0.67122 0.0
C766 C 0.85624 0.96414 0.66105 0.0
C767 C 0.90018 0.96315 0.6706 0.0
C768 C 0.84347 0.92816 0.67566 0.0
C769 C 0.8295 0.9323 0.68398 0.0
C770 C 0.81024 0.90737 0.69016 0.0
C771 C 0.80669 0.87788 0.68816 0.0
C772 C 0.82242 0.87365 0.68007 0.0
C773 C 0.83955 0.89861 0.67345 0.0
H774 H 0.08201 0.93777 0.70082 0.0
H775 H 0.11207 0.94101 0.67047 0.0
H776 H 0.06041 0.89535 0.66647 0.0
H777 H 0.02752 0.84935 0.70229 0.0
H778 H -2e-05 0.85462 0.70967 0.0
H779 H 0.04146 0.88207 0.7107 0.0
H780 H 0.03128 0.92777 0.70682 0.0
H781 H 0.99002 0.90062 0.70567 0.0
H782 H 0.01103 0.9267 0.69559 0.0
H783 H 0.0031 0.85766 0.66497 0.0
H784 H 0.94537 0.82999 0.66618 0.0
H785 H 0.95252 0.85117 0.69753 0.0
C786 C 0.07821 0.92819 0.69341 0.0
C787 C 0.10111 0.94296 0.68596 0.0
C788 C 0.09497 0.92999 0.67632 0.0
C789 C 0.06569 0.90399 0.67399 0.0
C790 C 0.04303 0.89101 0.68141 0.0
C791 C 0.04914 0.9024 0.69097 0.0
C792 C 0.01975 0.8873 0.69726 0.0
C793 C 0.02234 0.86713 0.70546 0.0
C794 C 0.01262 0.91207 0.70158 0.0
C795 C 0.99575 0.86709 0.68959 0.0
C796 C 0.00972 0.86902 0.68054 0.0
C797 C 0.99198 0.8553 0.67207 0.0
C798 C 0.95919 0.83979 0.67282 0.0
C799 C 0.94447 0.83828 0.68197 0.0
C800 C 0.96308 0.85135 0.69049 0.0
H801 H 0.03945 0.13361 0.67647 0.0
H802 H 0.05579 0.17556 0.70556 0.0
H803 H 0.10415 0.1726 0.70708 0.0
H804 H 0.05286 0.07749 0.6826 0.0
H805 H 0.07215 0.07549 0.67153 0.0
H806 H 0.04595 0.09084 0.67096 0.0
H807 H 0.0897 0.14271 0.66339 0.0
H808 H 0.11609 0.12727 0.66374 0.0
H809 H 0.127 0.16425 0.6696 0.0
H810 H 0.14084 0.15248 0.70747 0.0
H811 H 0.16439 0.11861 0.70643 0.0
H812 H 0.12411 0.08802 0.67721 0.0
C813 C 0.05437 0.14395 0.68287 0.0
C814 C 0.04443 0.15539 0.69081 0.0
C815 C 0.06345 0.16723 0.69933 0.0
C816 C 0.09096 0.16565 0.70025 0.0
C817 C 0.09907 0.15213 0.69258 0.0
C818 C 0.0816 0.14189 0.68395 0.0
C819 C 0.09171 0.12296 0.67768 0.0
C820 C 0.06403 0.08975 0.67559 0.0
C821 C 0.10705 0.14034 0.66803 0.0
C822 C 0.11569 0.12203 0.68447 0.0
C823 C 0.12028 0.13977 0.69288 0.0
C824 C 0.13821 0.13929 0.70079 0.0
C825 C 0.1513 0.11976 0.70016 0.0
C826 C 0.14617 0.10077 0.69172 0.0
C827 C 0.12892 0.10272 0.68368 0.0
H828 H 0.64951 0.46558 0.53155 0.0
H829 H 0.61214 0.43904 0.50187 0.0
H830 H 0.66576 0.4677 0.49511 0.0
H831 H 0.72214 0.54459 0.52457 0.0
H832 H 0.74529 0.5382 0.5336 0.0
H833 H 0.70422 0.52397 0.53587 0.0
H834 H 0.6951 0.46784 0.5386 0.0
H835 H 0.73587 0.48191 0.53642 0.0
H836 H 0.70672 0.45003 0.52908 0.0
H837 H 0.72218 0.48722 0.49194 0.0
H838 H 0.77485 0.49276 0.49293 0.0
H839 H 0.77627 0.50809 0.52449 0.0
C840 C 0.65254 0.46684 0.52361 0.0
C841 C 0.62668 0.45007 0.51726 0.0
C842 C 0.63162 0.45174 0.5069 0.0
C843 C 0.66202 0.46824 0.50298 0.0
C844 C 0.68723 0.48335 0.50948 0.0
C845 C 0.68274 0.48309 0.51959 0.0
C846 C 0.71347 0.49634 0.52512 0.0
C847 C 0.72177 0.52764 0.53008 0.0
C848 C 0.71272 0.4726 0.53273 0.0
C849 C 0.73551 0.50135 0.51663 0.0
C850 C 0.72026 0.4949 0.50761 0.0
C851 C 0.73468 0.49331 0.4989 0.0
C852 C 0.76468 0.4966 0.49951 0.0
C853 C 0.77948 0.50087 0.50879 0.0
C854 C 0.76551 0.5052 0.5173 0.0
H855 H 0.5359 0.29449 0.54057 0.0
H856 H 0.4931 0.28569 0.51184 0.0
H857 H 0.49336 0.23622 0.50898 0.0
H858 H 0.58871 0.27514 0.53348 0.0
H859 H 0.58757 0.25342 0.54435 0.0
H860 H 0.57681 0.2832 0.54522 0.0
H861 H 0.52273 0.24284 0.55252 0.0
H862 H 0.53346 0.21281 0.55176 0.0
H863 H 0.49796 0.2069 0.54593 0.0
H864 H 0.50901 0.19525 0.50776 0.0
H865 H 0.53681 0.16522 0.50852 0.0
H866 H 0.56856 0.20016 0.53819 0.0
C867 C 0.52555 0.28159 0.53381 0.0
C868 C 0.5145 0.2939 0.52642 0.0
C869 C 0.50146 0.27655 0.51764 0.0
C870 C 0.50147 0.24839 0.51596 0.0
C871 C 0.51403 0.23771 0.52322 0.0
C872 C 0.52532 0.25353 0.53206 0.0
C873 C 0.54122 0.23961 0.53812 0.0
C874 C 0.57559 0.26431 0.54041 0.0
C875 C 0.52272 0.22464 0.54765 0.0
C876 C 0.53909 0.21489 0.53103 0.0
C877 C 0.52274 0.21365 0.52256 0.0
C878 C 0.52106 0.19536 0.51446 0.0
C879 C 0.53708 0.17851 0.51494 0.0
C880 C 0.55467 0.1802 0.52345 0.0
C881 C 0.55475 0.19784 0.53168 0.0
H882 H 0.7196 0.23375 0.52894 0.0
H883 H 0.70054 0.20745 0.49802 0.0
H884 H 0.74386 0.25966 0.49325 0.0
H885 H 0.72723 0.30399 0.52658 0.0
H886 H 0.7582 0.32456 0.53547 0.0
H887 H 0.73252 0.28303 0.53664 0.0
H888 H 0.78006 0.274 0.53639 0.0
H889 H 0.80614 0.31577 0.53539 0.0
H890 H 0.80795 0.2897 0.52639 0.0
H891 H 0.78023 0.31753 0.4918 0.0
H892 H 0.80789 0.37508 0.49382 0.0
H893 H 0.80251 0.3636 0.5257 0.0
C894 C 0.72534 0.23843 0.52117 0.0
C895 C 0.70665 0.21649 0.51386 0.0
C896 C 0.71464 0.22378 0.50377 0.0
C897 C 0.73926 0.25342 0.50098 0.0
C898 C 0.75589 0.27527 0.50838 0.0
C899 C 0.7496 0.2679 0.51829 0.0
C900 C 0.76744 0.29659 0.52476 0.0
C901 C 0.745 0.30236 0.53123 0.0
C902 C 0.79185 0.29384 0.5311 0.0
C903 C 0.7831 0.32162 0.51693 0.0
C904 C 0.77681 0.30885 0.50754 0.0
C905 C 0.78599 0.32773 0.49912 0.0
C906 C 0.80154 0.36042 0.50035 0.0
C907 C 0.80742 0.37387 0.50992 0.0
C908 C 0.79874 0.3541 0.51828 0.0
H909 H 0.80628 0.42803 0.65642 0.0
H910 H 0.8433 0.44832 0.62665 0.0
H911 H 0.8486 0.40116 0.62683 0.0
H912 H 0.84894 0.38246 0.66494 0.0
H913 H 0.81416 0.35516 0.67162 0.0
H914 H 0.82485 0.39591 0.67078 0.0
H915 H 0.76986 0.37931 0.66366 0.0
H916 H 0.75918 0.33885 0.66434 0.0
H917 H 0.75669 0.35524 0.65269 0.0
H918 H 0.835 0.34635 0.62804 0.0
H919 H 0.80415 0.28906 0.63023 0.0
H920 H 0.7748 0.30226 0.6592 0.0
C921 C 0.81731 0.42344 0.65021 0.0
C922 C 0.82484 0.44183 0.64159 0.0
C923 C 0.83779 0.43458 0.63337 0.0
C924 C 0.84101 0.4079 0.63344 0.0
C925 C 0.83116 0.38874 0.64178 0.0
C926 C 0.81998 0.39641 0.65012 0.0
C927 C 0.80477 0.36897 0.65722 0.0
C928 C 0.82436 0.37605 0.6667 0.0
C929 C 0.77063 0.36008 0.6596 0.0
C930 C 0.80626 0.3439 0.65114 0.0
C931 C 0.82266 0.35606 0.64244 0.0
C932 C 0.82301 0.33669 0.63497 0.0
C933 C 0.80523 0.30412 0.63624 0.0
C934 C 0.78712 0.29124 0.6449 0.0
C935 C 0.7889 0.31146 0.65259 0.0
H936 H 0.55623 0.37546 0.66561 0.0
H937 H 0.51436 0.39027 0.63946 0.0
H938 H 0.56729 0.42425 0.63243 0.0
H939 H 0.62711 0.45508 0.6664 0.0
H940 H 0.6516 0.43964 0.67047 0.0
H941 H 0.61072 0.42008 0.67387 0.0
H942 H 0.6033 0.36838 0.66631 0.0
H943 H 0.64393 0.38782 0.66272 0.0
H944 H 0.61371 0.36781 0.65356 0.0
H945 H 0.62414 0.45054 0.62741 0.0
H946 H 0.68116 0.47154 0.62541 0.0
H947 H 0.68553 0.44018 0.65505 0.0
C948 C 0.55822 0.38668 0.65855 0.0
C949 C 0.53131 0.38035 0.65304 0.0
C950 C 0.53483 0.39495 0.64376 0.0
C951 C 0.56473 0.41422 0.63972 0.0
C952 C 0.5908 0.41886 0.64514 0.0
C953 C 0.58785 0.40594 0.65443 0.0
C954 C 0.61936 0.4129 0.65847 0.0
C955 C 0.62769 0.43314 0.66786 0.0
C956 C 0.6201 0.38242 0.66037 0.0
C957 C 0.64042 0.43118 0.64993 0.0
C958 C 0.62355 0.43438 0.6423 0.0
C959 C 0.6377 0.44869 0.6334 0.0
C960 C 0.67004 0.46035 0.63231 0.0
C961 C 0.68782 0.4577 0.6401 0.0
C962 C 0.67268 0.44296 0.64901 0.0
H963 H 0.63125 0.21538 0.63653 0.0
H964 H 0.62324 0.17842 0.66619 0.0
H965 H 0.58218 0.19178 0.67 0.0
H966 H 0.62737 0.28052 0.64322 0.0
H967 H 0.60509 0.28068 0.63267 0.0
H968 H 0.62978 0.26353 0.63167 0.0
H969 H 0.58238 0.21092 0.62586 0.0
H970 H 0.55754 0.22806 0.6267 0.0
H971 H 0.54727 0.19237 0.63329 0.0
H972 H 0.54728 0.21527 0.6712 0.0
H973 H 0.51942 0.24498 0.66956 0.0
H974 H 0.55119 0.26732 0.63913 0.0
C975 C 0.62027 0.2092 0.64374 0.0
C976 C 0.63039 0.19571 0.65106 0.0
C977 C 0.61574 0.18856 0.66045 0.0
C978 C 0.59241 0.19608 0.66268 0.0
C979 C 0.58394 0.21054 0.65541 0.0
C980 C 0.59718 0.21671 0.6461 0.0
C981 C 0.58605 0.23483 0.63988 0.0
C982 C 0.61372 0.26677 0.63668 0.0
C983 C 0.56718 0.21537 0.6309 0.0
C984 C 0.5652 0.23877 0.64725 0.0
C985 C 0.56402 0.22432 0.65613 0.0
C986 C 0.54765 0.22627 0.66423 0.0
C987 C 0.53204 0.24337 0.66323 0.0
C988 C 0.53302 0.2585 0.6542 0.0
C989 C 0.54971 0.25588 0.64611 0.0
H990 H 0.70317 0.22247 0.13962 0.0
H991 H 0.71689 0.23417 0.17136 0.0
H992 H 0.65962 0.20239 0.17384 0.0
H993 H 0.642 0.23474 0.1385 0.0
H994 H 0.6208 0.20669 0.12887 0.0
H995 H 0.66256 0.22384 0.12976 0.0
H996 H 0.65616 0.16829 0.13077 0.0
H997 H 0.61413 0.15093 0.12993 0.0
H998 H 0.63127 0.14125 0.14014 0.0
H999 H 0.60131 0.17809 0.17272 0.0
H1000 H 0.54808 0.16652 0.16806 0.0
H1001 H 0.57247 0.16992 0.13709 0.0
C1002 C 0.69425 0.21758 0.14711 0.0
C1003 C 0.71452 0.23077 0.15529 0.0
C1004 C 0.70183 0.22424 0.16497 0.0
C1005 C 0.66932 0.206 0.16646 0.0
C1006 C 0.64988 0.19413 0.1582 0.0
C1007 C 0.66195 0.19952 0.14871 0.0
C1008 C 0.63621 0.18804 0.14104 0.0
C1009 C 0.64066 0.21493 0.13415 0.0
C1010 C 0.63434 0.16048 0.13512 0.0
C1011 C 0.60792 0.17724 0.14767 0.0
C1012 C 0.61608 0.18006 0.15756 0.0
C1013 C 0.59447 0.17504 0.16502 0.0
C1014 C 0.56422 0.1684 0.1623 0.0
C1015 C 0.55613 0.16735 0.15221 0.0
C1016 C 0.57784 0.17027 0.14487 0.0
H1017 H 0.81301 0.38029 0.16639 0.0
H1018 H 0.86648 0.40094 0.13932 0.0
H1019 H 0.86423 0.44956 0.13733 0.0
H1020 H 0.75982 0.39384 0.15764 0.0
H1021 H 0.75276 0.41142 0.1683 0.0
H1022 H 0.76831 0.38566 0.16989 0.0
H1023 H 0.8162 0.42882 0.17937 0.0
H1024 H 0.80044 0.45476 0.178 0.0
H1025 H 0.83971 0.46698 0.17385 0.0
H1026 H 0.84405 0.48587 0.13567 0.0
H1027 H 0.80902 0.50811 0.13475 0.0
H1028 H 0.76651 0.46349 0.16262 0.0
C1029 C 0.82599 0.39628 0.16044 0.0
C1030 C 0.84064 0.38758 0.15315 0.0
C1031 C 0.85584 0.40781 0.14509 0.0
C1032 C 0.85464 0.43544 0.14391 0.0
C1033 C 0.83799 0.44236 0.15084 0.0
C1034 C 0.82429 0.4236 0.15906 0.0
C1035 C 0.80249 0.43242 0.16426 0.0
C1036 C 0.76889 0.40417 0.16505 0.0
C1037 C 0.8155 0.4466 0.17448 0.0
C1038 C 0.80405 0.4571 0.15723 0.0
C1039 C 0.82542 0.46323 0.14972 0.0
C1040 C 0.82796 0.48204 0.14167 0.0
C1041 C 0.80777 0.49437 0.14117 0.0
C1042 C 0.78508 0.48758 0.14863 0.0
C1043 C 0.78397 0.46952 0.15689 0.0
H1044 H 0.53948 0.29126 0.12981 0.0
H1045 H 0.49722 0.27888 0.1588 0.0
H1046 H 0.52504 0.33624 0.16111 0.0
H1047 H 0.61189 0.34637 0.13649 0.0
H1048 H 0.6221 0.3697 0.1254 0.0
H1049 H 0.59323 0.32875 0.12491 0.0
H1050 H 0.55282 0.34208 0.11742 0.0
H1051 H 0.58177 0.38327 0.11781 0.0
H1052 H 0.54426 0.3692 0.12373 0.0
H1053 H 0.56456 0.3932 0.16164 0.0
H1054 H 0.61278 0.4449 0.16035 0.0
H1055 H 0.62948 0.42035 0.13104 0.0
C1056 C 0.5351 0.30068 0.13647 0.0
C1057 C 0.51609 0.28066 0.14409 0.0
C1058 C 0.51165 0.29382 0.15284 0.0
C1059 C 0.52721 0.3264 0.1542 0.0
C1060 C 0.54693 0.34552 0.14671 0.0
C1061 C 0.55068 0.33316 0.13796 0.0
C1062 C 0.57647 0.35827 0.13169 0.0
C1063 C 0.60244 0.35029 0.12951 0.0
C1064 C 0.56301 0.36351 0.12209 0.0
C1065 C 0.58791 0.38619 0.13854 0.0
C1066 C 0.57009 0.37861 0.14706 0.0
C1067 C 0.57824 0.39968 0.15491 0.0
C1068 C 0.60574 0.42897 0.15412 0.0
C1069 C 0.62489 0.4367 0.14559 0.0
C1070 C 0.61518 0.41533 0.13761 0.0
H1071 H 0.57562 0.37584 0.03784 0.0
H1072 H 0.53395 0.38478 0.01069 0.0
H1073 H 0.50531 0.32724 0.00875 0.0
H1074 H 0.59284 0.32249 0.02931 0.0
H1075 H 0.58494 0.29971 0.04046 0.0
H1076 H 0.59554 0.34025 0.0412 0.0
H1077 H 0.54458 0.32517 0.05095 0.0
H1078 H 0.53389 0.2844 0.05033 0.0
H1079 H 0.50714 0.29662 0.04588 0.0
H1080 H 0.48976 0.27074 0.00796 0.0
H1081 H 0.48874 0.22004 0.00847 0.0
H1082 H 0.54081 0.24783 0.03604 0.0
C1083 C 0.55933 0.36555 0.03175 0.0
C1084 C 0.55671 0.38465 0.02448 0.0
C1085 C 0.53612 0.37048 0.01638 0.0
C1086 C 0.51963 0.33781 0.01524 0.0
C1087 C 0.52387 0.31962 0.02228 0.0
C1088 C 0.54298 0.33296 0.03044 0.0
C1089 C 0.54727 0.30887 0.03612 0.0
C1090 C 0.5822 0.31841 0.0368 0.0
C1091 C 0.53232 0.30344 0.04643 0.0
C1092 C 0.52913 0.28044 0.02957 0.0
C1093 C 0.51516 0.28685 0.02175 0.0
C1094 C 0.49992 0.26516 0.01418 0.0
C1095 C 0.49954 0.23645 0.01451 0.0
C1096 C 0.51463 0.22991 0.0223 0.0
C1097 C 0.52874 0.25192 0.03004 0.0
H1098 H 0.7682 0.2625 0.02932 0.0
H1099 H 0.78336 0.30196 0.99985 0.0
H1100 H 0.73253 0.25763 0.9946 0.0
H1101 H 0.71405 0.17442 0.02177 0.0
H1102 H 0.69068 0.16871 0.03266 0.0
H1103 H 0.73249 0.19528 0.03299 0.0
H1104 H 0.72264 0.23939 0.03917 0.0
H1105 H 0.68111 0.21351 0.03865 0.0
H1106 H 0.69861 0.24993 0.03188 0.0
H1107 H 0.67547 0.22075 0.99403 0.0
H1108 H 0.61904 0.19341 0.99793 0.0
H1109 H 0.63948 0.17856 0.02798 0.0
C1110 C 0.76157 0.2609 0.02162 0.0
C1111 C 0.77961 0.28574 0.01502 0.0
C1112 C 0.77007 0.28311 0.00503 0.0
C1113 C 0.74111 0.25793 0.00198 0.0
C1114 C 0.72232 0.23542 0.00897 0.0
C1115 C 0.73255 0.23625 0.01855 0.0
C1116 C 0.70603 0.21346 0.02516 0.0
C1117 C 0.71112 0.18635 0.02833 0.0
C1118 C 0.70187 0.2301 0.03423 0.0
C1119 C 0.67871 0.20213 0.01808 0.0
C1120 C 0.6887 0.21407 0.00868 0.0
C1121 C 0.66745 0.21044 0.00127 0.0
C1122 C 0.63539 0.19507 0.00358 0.0
C1123 C 0.62487 0.1839 0.01328 0.0
C1124 C 0.64679 0.18646 0.02047 0.0
H1125 H 0.80361 0.45229 0.01819 0.0
H1126 H 0.75274 0.38825 0.04219 0.0
H1127 H 0.71504 0.40737 0.04235 0.0
H1128 H 0.79149 0.51709 0.02723 0.0
H1129 H 0.78765 0.5285 0.01488 0.0
H1130 H 0.81221 0.51161 0.01714 0.0
H1131 H 0.78111 0.46881 0.004 0.0
H1132 H 0.75632 0.48536 0.00176 0.0
H1133 H 0.73912 0.44466 0.0052 0.0
H1134 H 0.67815 0.42559 0.03782 0.0
H1135 H 0.64844 0.44866 0.03086 0.0
H1136 H 0.72587 0.50721 0.01149 0.0
C1137 C 0.78484 0.44275 0.02359 0.0
C1138 C 0.781 0.41875 0.03017 0.0
C1139 C 0.75621 0.40678 0.03713 0.0
C1140 C 0.73463 0.41741 0.03726 0.0
C1141 C 0.73863 0.44053 0.03053 0.0
C1142 C 0.76346 0.45364 0.02398 0.0
C1143 C 0.76181 0.47778 0.01742 0.0
C1144 C 0.78997 0.5107 0.01929 0.0
C1145 C 0.75944 0.46858 0.00645 0.0
C1146 C 0.73154 0.47529 0.02109 0.0
C1147 C 0.71856 0.45348 0.02861 0.0
C1148 C 0.68888 0.44409 0.03237 0.0
C1149 C 0.67235 0.45793 0.02853 0.0
C1150 C 0.6859 0.4819 0.02133 0.0
C1151 C 0.71567 0.49018 0.0174 0.0
H1152 H 0.29057 0.7584 0.86634 0.0
H1153 H 0.27084 0.76366 0.83536 0.0
H1154 H 0.32741 0.79783 0.83218 0.0
H1155 H 0.36202 0.83989 0.86834 0.0
H1156 H 0.38133 0.82558 0.87637 0.0
H1157 H 0.33919 0.80781 0.87667 0.0
H1158 H 0.33352 0.75331 0.87332 0.0
H1159 H 0.37542 0.77085 0.87303 0.0
H1160 H 0.35235 0.74813 0.86262 0.0
H1161 H 0.38575 0.82312 0.83176 0.0
H1162 H 0.44036 0.83485 0.83404 0.0
H1163 H 0.42206 0.81324 0.86527 0.0
C1164 C 0.29805 0.76761 0.85895 0.0
C1165 C 0.27632 0.75847 0.85111 0.0
C1166 C 0.28709 0.7704 0.84149 0.0
C1167 C 0.31918 0.79004 0.83962 0.0
C1168 C 0.34015 0.79777 0.84746 0.0
C1169 C 0.32998 0.78706 0.85696 0.0
C1170 C 0.35726 0.79491 0.86379 0.0
C1171 C 0.36012 0.81846 0.87176 0.0
C1172 C 0.35446 0.76503 0.86845 0.0
C1173 C 0.38417 0.80991 0.85652 0.0
C1174 C 0.37401 0.8122 0.8472 0.0
C1175 C 0.39415 0.82214 0.83907 0.0
C1176 C 0.42516 0.82878 0.84043 0.0
C1177 C 0.43545 0.82494 0.84983 0.0
C1178 C 0.41498 0.81666 0.85801 0.0
H1179 H 0.17089 0.59061 0.86389 0.0
H1180 H 0.16244 0.60541 0.83272 0.0
H1181 H 0.17571 0.56455 0.82857 0.0
H1182 H 0.23652 0.58941 0.86233 0.0
H1183 H 0.22857 0.55967 0.87146 0.0
H1184 H 0.20899 0.58205 0.87218 0.0
H1185 H 0.15481 0.5311 0.87189 0.0
H1186 H 0.17426 0.5083 0.87136 0.0
H1187 H 0.14566 0.50295 0.8621 0.0
H1188 H 0.2029 0.53316 0.82778 0.0
H1189 H 0.23814 0.51163 0.83045 0.0
H1190 H 0.22903 0.51758 0.86216 0.0
C1191 C 0.1704 0.58423 0.8562 0.0
C1192 C 0.16565 0.60114 0.84863 0.0
C1193 C 0.16566 0.5925 0.83865 0.0
C1194 C 0.17324 0.56933 0.83623 0.0
C1195 C 0.18011 0.55469 0.84387 0.0
C1196 C 0.17802 0.56133 0.85369 0.0
C1197 C 0.19107 0.5462 0.86048 0.0
C1198 C 0.21787 0.57081 0.86698 0.0
C1199 C 0.16488 0.52061 0.86683 0.0
C1200 C 0.20306 0.53205 0.85295 0.0
C1201 C 0.19587 0.53646 0.84341 0.0
C1202 C 0.20785 0.52874 0.83521 0.0
C1203 C 0.22803 0.51671 0.8368 0.0
C1204 C 0.2363 0.51285 0.84652 0.0
C1205 C 0.22284 0.51982 0.85465 0.0
H1206 H 0.40303 0.57691 0.86248 0.0
H1207 H 0.39782 0.55962 0.83092 0.0
H1208 H 0.4419 0.61349 0.82832 0.0
H1209 H 0.40915 0.64643 0.8612 0.0
H1210 H 0.43588 0.66491 0.87136 0.0
H1211 H 0.41118 0.62307 0.87113 0.0
H1212 H 0.4598 0.61602 0.87253 0.0
H1213 H 0.48484 0.65808 0.87292 0.0
H1214 H 0.49151 0.63532 0.8638 0.0
H1215 H 0.47649 0.67165 0.8288 0.0
H1216 H 0.49976 0.72813 0.8323 0.0
H1217 H 0.48216 0.70772 0.8636 0.0
C1218 C 0.41201 0.584 0.85505 0.0
C1219 C 0.39703 0.56412 0.8469 0.0
C1220 C 0.40915 0.57435 0.83728 0.0
C1221 C 0.4342 0.60494 0.83574 0.0
C1222 C 0.44712 0.62469 0.84391 0.0
C1223 C 0.43677 0.61438 0.85342 0.0
C1224 C 0.4509 0.64114 0.86078 0.0
C1225 C 0.42525 0.64404 0.86643 0.0
C1226 C 0.47309 0.63741 0.86793 0.0
C1227 C 0.46897 0.66851 0.85386 0.0
C1228 C 0.4672 0.65851 0.84419 0.0
C1229 C 0.47879 0.6797 0.83636 0.0
C1230 C 0.4918 0.71176 0.83842 0.0
C1231 C 0.49288 0.72234 0.84824 0.0
C1232 C 0.48223 0.70043 0.85605 0.0
H1233 H 0.41591 0.63426 0.99239 0.0
H1234 H 0.45711 0.62777 0.96478 0.0
H1235 H 0.49273 0.68504 0.96494 0.0
H1236 H 0.41022 0.69704 0.98611 0.0
H1237 H 0.41891 0.71567 0.99808 0.0
H1238 H 0.40286 0.67404 0.9972 0.0
H1239 H 0.44997 0.67876 0.0072 0.0
H1240 H 0.46634 0.72068 0.00804 0.0
H1241 H 0.48943 0.70484 0.00299 0.0
H1242 H 0.5152 0.742 0.96607 0.0
H1243 H 0.51998 0.79416 0.96747 0.0
H1244 H 0.46538 0.76535 0.99444 0.0
C1245 C 0.43325 0.64481 0.98658 0.0
C1246 C 0.43395 0.62663 0.97861 0.0
C1247 C 0.45624 0.6413 0.97097 0.0
C1248 C 0.47679 0.67378 0.97105 0.0
C1249 C 0.47487 0.69127 0.97885 0.0
C1250 C 0.45369 0.67731 0.9865 0.0
C1251 C 0.45265 0.7017 0.99309 0.0
C1252 C 0.4192 0.69682 0.99364 0.0
C1253 C 0.46536 0.70148 0.00344 0.0
C1254 C 0.47484 0.73142 0.98755 0.0
C1255 C 0.48819 0.72492 0.97954 0.0
C1256 C 0.50577 0.74762 0.97248 0.0
C1257 C 0.50843 0.7772 0.97333 0.0
C1258 C 0.49363 0.78378 0.98118 0.0
C1259 C 0.47797 0.76118 0.98862 0.0
H1260 H 0.23239 0.71343 0.99552 0.0
H1261 H 0.20148 0.72834 0.96709 0.0
H1262 H 0.25365 0.77459 0.96428 0.0
H1263 H 0.29242 0.80039 0.00106 0.0
H1264 H 0.31891 0.78915 0.00641 0.0
H1265 H 0.27707 0.76361 0.00755 0.0
H1266 H 0.28241 0.71835 0.99982 0.0
H1267 H 0.32395 0.74371 0.99845 0.0
H1268 H 0.3003 0.72372 0.98781 0.0
H1269 H 0.3108 0.8097 0.96268 0.0
H1270 H 0.36839 0.83352 0.96288 0.0
H1271 H 0.36314 0.79598 0.99229 0.0
C1272 C 0.23615 0.72755 0.98898 0.0
C1273 C 0.21291 0.7177 0.98158 0.0
C1274 C 0.21896 0.73581 0.97288 0.0
C1275 C 0.24851 0.76214 0.97124 0.0
C1276 C 0.27169 0.77009 0.97838 0.0
C1277 C 0.26574 0.75368 0.98717 0.0
C1278 C 0.29581 0.76371 0.99287 0.0
C1279 C 0.29606 0.78021 0.00255 0.0
C1280 C 0.3009 0.73571 0.99484 0.0
C1281 C 0.31965 0.78665 0.98561 0.0
C1282 C 0.30524 0.79054 0.9774 0.0
C1283 C 0.32239 0.80761 0.96919 0.0
C1284 C 0.35508 0.82083 0.96934 0.0
C1285 C 0.37025 0.81675 0.97762 0.0
C1286 C 0.35226 0.80002 0.98593 0.0
H1287 H 0.19472 0.57165 0.99437 0.0
H1288 H 0.15048 0.53913 0.96573 0.0
H1289 H 0.17483 0.50609 0.9642 0.0
H1290 H 0.26504 0.5835 0.98786 0.0
H1291 H 0.27455 0.57111 0.99925 0.0
H1292 H 0.24736 0.58532 0.99934 0.0
H1293 H 0.20544 0.53363 0.00757 0.0
H1294 H 0.23266 0.51917 0.00749 0.0
H1295 H 0.19462 0.49653 0.00181 0.0
H1296 H 0.21228 0.48683 0.96396 0.0
H1297 H 0.26088 0.48407 0.96486 0.0
H1298 H 0.2807 0.52756 0.99379 0.0
C1299 C 0.1892 0.55667 0.98794 0.0
C1300 C 0.17061 0.55788 0.98019 0.0
C1301 C 0.16458 0.53854 0.97178 0.0
C1302 C 0.17812 0.51948 0.97088 0.0
C1303 C 0.19736 0.51976 0.97849 0.0
C1304 C 0.2027 0.53767 0.98692 0.0
C1305 C 0.22805 0.53772 0.99329 0.0
C1306 C 0.25535 0.57139 0.99502 0.0
C1307 C 0.21436 0.52074 0.00312 0.0
C1308 C 0.23779 0.51902 0.98677 0.0
C1309 C 0.21914 0.50809 0.97841 0.0
C1310 C 0.22638 0.4943 0.97061 0.0
C1311 C 0.25403 0.49285 0.97117 0.0
C1312 C 0.27403 0.50507 0.97948 0.0
C1313 C 0.2651 0.517 0.98755 0.0
H1314 H 0.23746 0.51566 0.498 0.0
H1315 H 0.20342 0.47585 0.469 0.0
H1316 H 0.25329 0.47713 0.46561 0.0
H1317 H 0.30648 0.57072 0.49052 0.0
H1318 H 0.32977 0.57115 0.50087 0.0
H1319 H 0.28876 0.55736 0.50251 0.0
H1320 H 0.28015 0.50434 0.50923 0.0
H1321 H 0.32147 0.51816 0.50774 0.0
H1322 H 0.29287 0.48189 0.50203 0.0
H1323 H 0.3094 0.49422 0.46376 0.0
H1324 H 0.36711 0.52618 0.46351 0.0
H1325 H 0.36594 0.55701 0.49349 0.0
C1326 C 0.23996 0.50559 0.49118 0.0
C1327 C 0.21659 0.49516 0.48383 0.0
C1328 C 0.22102 0.48354 0.47477 0.0
C1329 C 0.24922 0.48406 0.4728 0.0
C1330 C 0.27271 0.49634 0.47997 0.0
C1331 C 0.26828 0.50662 0.48904 0.0
C1332 C 0.29888 0.52426 0.49467 0.0
C1333 C 0.30639 0.55784 0.49728 0.0
C1334 C 0.2983 0.50606 0.50397 0.0
C1335 C 0.32146 0.52438 0.48705 0.0
C1336 C 0.30583 0.50724 0.47877 0.0
C1337 C 0.32189 0.50701 0.47031 0.0
C1338 C 0.3547 0.52538 0.47021 0.0
C1339 C 0.37103 0.54413 0.47848 0.0
C1340 C 0.35415 0.54268 0.48709 0.0
H1341 H 0.46787 0.70548 0.48881 0.0
H1342 H 0.49346 0.70578 0.45813 0.0
H1343 H 0.48368 0.74931 0.45469 0.0
H1344 H 0.40484 0.71139 0.48441 0.0
H1345 H 0.40829 0.73665 0.49457 0.0
H1346 H 0.4257 0.71224 0.49548 0.0
H1347 H 0.48004 0.76082 0.49907 0.0
H1348 H 0.46267 0.7855 0.49837 0.0
H1349 H 0.49588 0.79373 0.4907 0.0
H1350 H 0.45966 0.78291 0.45364 0.0
H1351 H 0.42656 0.80723 0.45539 0.0
H1352 H 0.41636 0.7856 0.48674 0.0
C1353 C 0.47299 0.71587 0.4815 0.0
C1354 C 0.4817 0.70258 0.47376 0.0
C1355 C 0.487 0.71586 0.46418 0.0
C1356 C 0.48157 0.74063 0.46216 0.0
C1357 C 0.47105 0.75197 0.46981 0.0
C1358 C 0.46734 0.74044 0.47935 0.0
C1359 C 0.45141 0.75338 0.48587 0.0
C1360 C 0.42075 0.72683 0.49033 0.0
C1361 C 0.47385 0.77463 0.49398 0.0
C1362 C 0.44497 0.77227 0.47836 0.0
C1363 C 0.45701 0.77166 0.46919 0.0
C1364 C 0.4509 0.78436 0.46085 0.0
C1365 C 0.43185 0.79788 0.46189 0.0
C1366 C 0.41907 0.79849 0.47121 0.0
C1367 C 0.4263 0.78604 0.47955 0.0
H1368 H 0.28845 0.75935 0.49714 0.0
H1369 H 0.24507 0.78013 0.47271 0.0
H1370 H 0.19816 0.72775 0.47425 0.0
H1371 H 0.27293 0.69143 0.48937 0.0
H1372 H 0.26468 0.67037 0.50089 0.0
H1373 H 0.28893 0.71223 0.50081 0.0
H1374 H 0.25214 0.71775 0.51329 0.0
H1375 H 0.22798 0.67558 0.51366 0.0
H1376 H 0.21072 0.6994 0.51072 0.0
H1377 H 0.16494 0.67061 0.47485 0.0
H1378 H 0.14586 0.61383 0.47528 0.0
H1379 H 0.21066 0.6283 0.49913 0.0
C1380 C 0.26812 0.75353 0.49261 0.0
C1381 C 0.26991 0.7738 0.48495 0.0
C1382 C 0.24372 0.76502 0.47874 0.0
C1383 C 0.21701 0.73528 0.47957 0.0
C1384 C 0.21692 0.71465 0.48665 0.0
C1385 C 0.24155 0.72357 0.49322 0.0
C1386 C 0.23864 0.69543 0.49875 0.0
C1387 C 0.26802 0.6922 0.49736 0.0
C1388 C 0.23196 0.69715 0.50976 0.0
C1389 C 0.21028 0.66917 0.49364 0.0
C1390 C 0.19754 0.68081 0.4869 0.0
C1391 C 0.174 0.66119 0.48033 0.0
C1392 C 0.16353 0.62898 0.48056 0.0
C1393 C 0.1767 0.61668 0.48727 0.0
C1394 C 0.19973 0.63699 0.49406 0.0
H1395 H 0.19635 0.69032 0.35667 0.0
H1396 H 0.23952 0.70535 0.32776 0.0
H1397 H 0.20917 0.64846 0.32454 0.0
H1398 H 0.20563 0.63215 0.36312 0.0
H1399 H 0.16941 0.6093 0.3698 0.0
H1400 H 0.18531 0.65066 0.36843 0.0
H1401 H 0.1332 0.64084 0.3605 0.0
H1402 H 0.11712 0.59908 0.36182 0.0
H1403 H 0.11768 0.61555 0.34987 0.0
H1404 H 0.18649 0.59124 0.32619 0.0
H1405 H 0.17784 0.54116 0.33299 0.0
H1406 H 0.14861 0.56205 0.36081 0.0
C1407 C 0.19843 0.68178 0.3495 0.0
C1408 C 0.22031 0.70223 0.34248 0.0
C1409 C 0.22282 0.69013 0.33325 0.0
C1410 C 0.20543 0.65781 0.33132 0.0
C1411 C 0.18531 0.63796 0.33864 0.0
C1412 C 0.18146 0.6496 0.34753 0.0
C1413 C 0.1635 0.62354 0.35491 0.0
C1414 C 0.1821 0.62926 0.36461 0.0
C1415 C 0.13093 0.61951 0.35689 0.0
C1416 C 0.16082 0.59588 0.34918 0.0
C1417 C 0.17218 0.60432 0.33965 0.0
C1418 C 0.17669 0.58408 0.33352 0.0
C1419 C 0.17163 0.55553 0.33745 0.0
C1420 C 0.16278 0.54789 0.34746 0.0
C1421 C 0.15513 0.56725 0.35311 0.0
H1422 H 0.30258 0.52442 0.35292 0.0
H1423 H 0.29358 0.58011 0.37623 0.0
H1424 H 0.3507 0.61669 0.37564 0.0
H1425 H 0.37991 0.53613 0.36121 0.0
H1426 H 0.39327 0.53772 0.3487 0.0
H1427 H 0.35211 0.51425 0.35159 0.0
H1428 H 0.33936 0.54391 0.33822 0.0
H1429 H 0.38042 0.56762 0.33535 0.0
H1430 H 0.3581 0.5861 0.33879 0.0
H1431 H 0.40593 0.65153 0.3705 0.0
H1432 H 0.45785 0.67907 0.3628 0.0
H1433 H 0.43394 0.59871 0.34417 0.0
C1434 C 0.31273 0.54399 0.35803 0.0
C1435 C 0.29367 0.54949 0.36462 0.0
C1436 C 0.30776 0.57536 0.37117 0.0
C1437 C 0.34016 0.59629 0.37087 0.0
C1438 C 0.35815 0.59063 0.36412 0.0
C1439 C 0.34512 0.56482 0.35795 0.0
C1440 C 0.36966 0.56483 0.35116 0.0
C1441 C 0.37399 0.53655 0.3533 0.0
C1442 C 0.36138 0.56567 0.34024 0.0
C1443 C 0.39829 0.5953 0.35425 0.0
C1444 C 0.39101 0.60976 0.36172 0.0
C1445 C 0.41243 0.63972 0.36504 0.0
C1446 C 0.44227 0.65505 0.36075 0.0
C1447 C 0.45096 0.64011 0.3535 0.0
C1448 C 0.42841 0.61003 0.35008 0.0
H1449 H 0.36669 0.78614 0.36733 0.0
H1450 H 0.39412 0.84057 0.34022 0.0
H1451 H 0.44406 0.8401 0.34027 0.0
H1452 H 0.44862 0.81914 0.37812 0.0
H1453 H 0.43875 0.78113 0.38292 0.0
H1454 H 0.40909 0.79235 0.38212 0.0
H1455 H 0.37406 0.74241 0.3718 0.0
H1456 H 0.4035 0.73115 0.37254 0.0
H1457 H 0.38957 0.73534 0.36063 0.0
H1458 H 0.48462 0.8243 0.34125 0.0
H1459 H 0.51239 0.79449 0.34305 0.0
H1460 H 0.45926 0.75073 0.36964 0.0
C1461 C 0.38364 0.79893 0.36158 0.0
C1462 C 0.37651 0.81346 0.35378 0.0
C1463 C 0.39912 0.82944 0.34631 0.0
C1464 C 0.42763 0.82941 0.3463 0.0
C1465 C 0.43331 0.81367 0.35388 0.0
C1466 C 0.41206 0.79901 0.36146 0.0
C1467 C 0.42152 0.78002 0.36794 0.0
C1468 C 0.43001 0.79401 0.3784 0.0
C1469 C 0.39564 0.74519 0.36823 0.0
C1470 C 0.45031 0.78457 0.36246 0.0
C1471 C 0.45715 0.80467 0.35451 0.0
C1472 C 0.48009 0.80928 0.34761 0.0
C1473 C 0.49566 0.79217 0.34867 0.0
C1474 C 0.4882 0.77068 0.35656 0.0
C1475 C 0.4661 0.76777 0.36373 0.0
H1476 H 0.178 0.18661 0.27372 0.0
H1477 H 0.11017 0.09101 0.28222 0.0
H1478 H 0.11311 0.07254 0.26565 0.0
H1479 H 0.14853 0.18148 0.2492 0.0
H1480 H 0.1865 0.20496 0.24356 0.0
H1481 H 0.18072 0.21104 0.25633 0.0
H1482 H 0.22648 0.20212 0.26133 0.0
H1483 H 0.23226 0.19581 0.24856 0.0
H1484 H 0.22549 0.16639 0.25768 0.0
H1485 H 0.12058 0.06398 0.24829 0.0
H1486 H 0.13113 0.06609 0.23045 0.0
H1487 H 0.19483 0.16656 0.23251 0.0
C1488 C 0.16394 0.16181 0.27208 0.0
C1489 C 0.14385 0.1403 0.2793 0.0
C1490 C 0.12568 0.10803 0.27685 0.0
C1491 C 0.12727 0.0972 0.26745 0.0
C1492 C 0.14719 0.11884 0.26052 0.0
C1493 C 0.16517 0.15046 0.26264 0.0
C1494 C 0.18355 0.16862 0.25358 0.0
C1495 C 0.17426 0.19296 0.25048 0.0
C1496 C 0.21906 0.18415 0.2554 0.0
C1497 C 0.17257 0.14224 0.24605 0.0
C1498 C 0.15178 0.11375 0.25031 0.0
C1499 C 0.13705 0.08606 0.24487 0.0
C1500 C 0.14318 0.08751 0.23475 0.0
C1501 C 0.16396 0.11641 0.23014 0.0
C1502 C 0.17933 0.14407 0.2359 0.0
H1503 H 0.88296 0.04128 0.22715 0.0
H1504 H 0.78988 0.02378 0.21966 0.0
H1505 H 0.77242 0.00583 0.23687 0.0
H1506 H 0.85932 0.97457 0.24094 0.0
H1507 H 0.89052 0.99249 0.24989 0.0
H1508 H 0.89645 0.00807 0.23757 0.0
H1509 H 0.91135 0.06297 0.24449 0.0
H1510 H 0.90603 0.04771 0.25687 0.0
H1511 H 0.88489 0.06684 0.25282 0.0
H1512 H 0.76473 0.98498 0.25484 0.0
H1513 H 0.7683 0.96567 0.2715 0.0
H1514 H 0.86627 0.99588 0.26607 0.0
C1515 C 0.85904 0.03434 0.22914 0.0
C1516 C 0.83777 0.03397 0.22209 0.0
C1517 C 0.80664 0.02454 0.225 0.0
C1518 C 0.79652 0.01419 0.23473 0.0
C1519 C 0.81795 0.01369 0.24141 0.0
C1520 C 0.84868 0.02393 0.23871 0.0
C1521 C 0.86687 0.01937 0.24687 0.0
C1522 C 0.87898 0.99731 0.24362 0.0
C1523 C 0.89387 0.05111 0.25048 0.0
C1524 C 0.84149 0.00421 0.25457 0.0
C1525 C 0.81345 0.00133 0.25142 0.0
C1526 C 0.78667 0.98735 0.25738 0.0
C1527 C 0.78885 0.97633 0.26679 0.0
C1528 C 0.81748 0.97905 0.27005 0.0
C1529 C 0.84394 0.99318 0.2638 0.0
H1530 H 0.02973 0.82811 0.27302 0.0
H1531 H 0.07675 0.92972 0.27428 0.0
H1532 H 0.06876 0.93163 0.25638 0.0
H1533 H 0.0567 0.82212 0.24744 0.0
H1534 H 0.01936 0.78837 0.24442 0.0
H1535 H 0.03328 0.79493 0.257 0.0
H1536 H 0.98187 0.79258 0.26265 0.0
H1537 H 0.968 0.78656 0.25009 0.0
H1538 H 0.97056 0.81883 0.25715 0.0
H1539 H 0.05018 0.92301 0.23926 0.0
H1540 H 0.02474 0.90461 0.22314 0.0
H1541 H 0.98845 0.80792 0.23236 0.0
C1542 C 0.03935 0.85071 0.26941 0.0
C1543 C 0.05428 0.87884 0.27495 0.0
C1544 C 0.06554 0.90799 0.27011 0.0
C1545 C 0.0611 0.9093 0.25996 0.0
C1546 C 0.04521 0.8812 0.25475 0.0
C1547 C 0.03474 0.85241 0.25924 0.0
C1548 C 0.01591 0.8258 0.25202 0.0
C1549 C 0.0323 0.80668 0.25011 0.0
C1550 C 0.98208 0.80471 0.2557 0.0
C1551 C 0.01676 0.84422 0.24291 0.0
C1552 C 0.03403 0.87612 0.24469 0.0
C1553 C 0.03699 0.89812 0.2377 0.0
C1554 C 0.0222 0.88734 0.22857 0.0
C1555 C 0.00458 0.85479 0.22646 0.0
C1556 C 0.00191 0.83293 0.23374 0.0
H1557 H 0.8767 0.85597 0.72476 0.0
H1558 H 0.78883 0.76825 0.7218 0.0
H1559 H 0.77314 0.776 0.73855 0.0
H1560 H 0.88855 0.8494 0.75093 0.0
H1561 H 0.90512 0.89094 0.75293 0.0
H1562 H 0.90942 0.87671 0.7411 0.0
H1563 H 0.88443 0.90624 0.73262 0.0
H1564 H 0.87947 0.92005 0.74443 0.0
H1565 H 0.84607 0.89838 0.73645 0.0
H1566 H 0.76656 0.7959 0.75555 0.0
H1567 H 0.77166 0.82343 0.77141 0.0
H1568 H 0.86359 0.89801 0.76235 0.0
C1569 C 0.8543 0.83806 0.72766 0.0
C1570 C 0.83399 0.81146 0.72199 0.0
C1571 C 0.80487 0.78869 0.72606 0.0
C1572 C 0.79571 0.79303 0.73553 0.0
C1573 C 0.81601 0.82016 0.74079 0.0
C1574 C 0.84487 0.84204 0.737 0.0
C1575 C 0.86239 0.86953 0.7439 0.0
C1576 C 0.89318 0.87175 0.74743 0.0
C1577 C 0.86843 0.90036 0.73906 0.0
C1578 C 0.83887 0.85998 0.7522 0.0
C1579 C 0.8122 0.8315 0.75033 0.0
C1580 C 0.7874 0.81818 0.75707 0.0
C1581 C 0.7904 0.83407 0.76602 0.0
C1582 C 0.81797 0.86292 0.76811 0.0
C1583 C 0.84214 0.87607 0.761 0.0
H1584 H 0.10788 0.96576 0.77282 0.0
H1585 H 0.18873 0.95609 0.77974 0.0
H1586 H 0.20954 0.97453 0.76282 0.0
H1587 H 0.09819 0.94001 0.74777 0.0
H1588 H 0.08673 0.96771 0.74369 0.0
H1589 H 0.07882 0.95326 0.75619 0.0
H1590 H 0.10883 0.01047 0.76274 0.0
H1591 H 0.11708 0.0251 0.75027 0.0
H1592 H 0.14881 0.03615 0.7589 0.0
H1593 H 0.22081 0.99456 0.74468 0.0
H1594 H 0.22053 0.01254 0.72753 0.0
H1595 H 0.13251 0.00959 0.73362 0.0
C1596 C 0.1299 0.96725 0.77081 0.0
C1597 C 0.14661 0.95932 0.77758 0.0
C1598 C 0.17545 0.96191 0.77464 0.0
C1599 C 0.18746 0.97244 0.76506 0.0
C1600 C 0.17037 0.9804 0.75861 0.0
C1601 C 0.14217 0.97783 0.76142 0.0
C1602 C 0.12813 0.98794 0.75331 0.0
C1603 C 0.09608 0.9606 0.75005 0.0
C1604 C 0.12558 0.01662 0.7565 0.0
C1605 C 0.15264 0.99647 0.7454 0.0
C1606 C 0.17694 0.99211 0.7485 0.0
C1607 C 0.20189 -0.00188 0.74222 0.0
C1608 C 0.20161 0.00841 0.73251 0.0
C1609 C 0.17656 0.01254 0.72924 0.0
C1610 C 0.15211 0.00679 0.73586 0.0
H1611 H -0.00218 0.14619 0.73263 0.0
H1612 H 0.90159 0.12637 0.73209 0.0
H1613 H 0.90311 0.13338 0.75032 0.0
H1614 H 0.99517 0.1081 0.75461 0.0
H1615 H 0.03362 0.13716 0.75886 0.0
H1616 H 0.02526 0.13212 0.74583 0.0
H1617 H 0.04231 0.191 0.74418 0.0
H1618 H 0.05105 0.19633 0.7572 0.0
H1619 H 0.02432 0.20738 0.75194 0.0
H1620 H 0.91365 0.13566 0.76878 0.0
H1621 H 0.93447 0.14092 0.78578 0.0
H1622 H 0.0256 0.16504 0.77389 0.0
C1623 C 0.97726 0.14382 0.73637 0.0
C1624 C 0.94953 0.13567 0.73109 0.0
C1625 C 0.92304 0.1328 0.7361 0.0
C1626 C 0.92371 0.13661 0.74641 0.0
C1627 C 0.95134 0.14409 0.75147 0.0
C1628 C 0.97788 0.14846 0.74656 0.0
C1629 C 0.0047 0.15661 0.75365 0.0
C1630 C 0.01529 0.13203 0.75321 0.0
C1631 C 0.03222 0.18981 0.75162 0.0
C1632 C 0.98888 0.15519 0.76337 0.0
C1633 C 0.95801 0.14761 0.76198 0.0
C1634 C 0.93796 0.14233 0.76994 0.0
C1635 C 0.9499 0.14517 0.77954 0.0
C1636 C 0.98167 0.1538 0.78107 0.0
C1637 C 0.0014 0.15908 0.77288 0.0
H1638 H 0.79414 0.44383 0.55524 0.0
H1639 H 0.88491 0.5271 0.55063 0.0
H1640 H 0.88312 0.54464 0.5677 0.0
H1641 H 0.75991 0.48026 0.56897 0.0
H1642 H 0.73842 0.44726 0.57709 0.0
H1643 H 0.74767 0.44107 0.56472 0.0
H1644 H 0.77536 0.41189 0.57155 0.0
H1645 H 0.76572 0.4175 0.58393 0.0
H1646 H 0.80597 0.43086 0.58065 0.0
H1647 H 0.8696 0.55333 0.5854 0.0
H1648 H 0.84808 0.54988 0.60224 0.0
H1649 H 0.76637 0.46093 0.59448 0.0
C1650 C 0.81386 0.46565 0.55782 0.0
C1651 C 0.83969 0.4841 0.55161 0.0
C1652 C 0.86497 0.51249 0.55529 0.0
C1653 C 0.86403 0.52271 0.56494 0.0
C1654 C 0.83771 0.50421 0.57078 0.0
C1655 C 0.81329 0.4761 0.56734 0.0
C1656 C 0.7876 0.46027 0.57494 0.0
C1657 C 0.75658 0.45704 0.5712 0.0
C1658 C 0.78344 0.42825 0.57795 0.0
C1659 C 0.80128 0.48377 0.58325 0.0
C1660 C 0.83009 0.50911 0.58076 0.0
C1661 C 0.84707 0.53356 0.58741 0.0
C1662 C 0.8346 0.53153 0.59693 0.0
C1663 C 0.80556 0.50516 0.59966 0.0
C1664 C 0.78861 0.48141 0.59263 0.0
H1665 H 0.5741 0.401 0.57073 0.0
H1666 H 0.47991 0.3724 0.56057 0.0
H1667 H 0.45982 0.35575 0.57753 0.0
H1668 H 0.55473 0.33932 0.58669 0.0
H1669 H 0.58266 0.36184 0.59621 0.0
H1670 H 0.59038 0.37492 0.58357 0.0
H1671 H 0.5967 0.42857 0.58864 0.0
H1672 H 0.58949 0.41586 0.60134 0.0
H1673 H 0.56578 0.42967 0.59546 0.0
H1674 H 0.44911 0.33506 0.59497 0.0
H1675 H 0.44949 0.31846 0.6122 0.0
H1676 H 0.55103 0.36349 0.61122 0.0
C1677 C 0.54937 0.39199 0.57213 0.0
C1678 C 0.52855 0.38801 0.56435 0.0
C1679 C 0.49632 0.37592 0.56644 0.0
C1680 C 0.48468 0.36625 0.57604 0.0
C1681 C 0.50568 0.36943 0.58348 0.0
C1682 C 0.53747 0.3827 0.58169 0.0
C1683 C 0.55492 0.38251 0.59088 0.0
C1684 C 0.57164 0.36351 0.58923 0.0
C1685 C 0.57809 0.41616 0.59428 0.0
C1686 C 0.52786 0.36613 0.59805 0.0
C1687 C 0.49963 0.35865 0.59363 0.0
C1688 C 0.47113 0.34137 0.59857 0.0
C1689 C 0.47155 0.33183 0.60831 0.0
C1690 C 0.50029 0.33991 0.61303 0.0
C1691 C 0.52875 0.35739 0.60783 0.0
H1692 H 0.65434 0.19375 0.56375 0.0
H1693 H 0.63569 0.09894 0.55849 0.0
H1694 H 0.6515 0.09657 0.57578 0.0
H1695 H 0.72234 0.21918 0.57857 0.0
H1696 H 0.71301 0.24268 0.58658 0.0
H1697 H 0.69976 0.23614 0.57394 0.0
H1698 H 0.64229 0.21386 0.57983 0.0
H1699 H 0.65538 0.22054 0.59247 0.0
H1700 H 0.62574 0.18191 0.58855 0.0
H1701 H 0.67018 0.10587 0.59405 0.0
H1702 H 0.68805 0.1252 0.61112 0.0
H1703 H 0.69427 0.21372 0.60341 0.0
C1704 C 0.65344 0.17235 0.56618 0.0
C1705 C 0.64377 0.14651 0.55977 0.0
C1706 C 0.64296 0.11901 0.5633 0.0
C1707 C 0.65197 0.11751 0.57309 0.0
C1708 C 0.66167 0.14369 0.57919 0.0
C1709 C 0.66229 0.17051 0.57582 0.0
C1710 C 0.67345 0.19559 0.58367 0.0
C1711 C 0.70395 0.22513 0.5805 0.0
C1712 C 0.64768 0.20341 0.58629 0.0
C1713 C 0.67918 0.17888 0.59205 0.0
C1714 C 0.67232 0.14898 0.58942 0.0
C1715 C 0.67563 0.12929 0.59615 0.0
C1716 C 0.68587 0.14046 0.60581 0.0
C1717 C 0.69264 0.17099 0.6086 0.0
C1718 C 0.68942 0.1903 0.60155 0.0
H1719 H 0.56211 0.17578 0.06367 0.0
H1720 H 0.47063 0.10087 0.05443 0.0
H1721 H 0.45088 0.09716 0.07153 0.0
H1722 H 0.56146 0.14663 0.08876 0.0
H1723 H 0.58121 0.18581 0.09379 0.0
H1724 H 0.58846 0.17921 0.08121 0.0
H1725 H 0.57308 0.21979 0.07524 0.0
H1726 H 0.56529 0.22615 0.08776 0.0
H1727 H 0.53517 0.21444 0.07848 0.0
H1728 H 0.44034 0.10581 0.08961 0.0
H1729 H 0.44097 0.12432 0.10674 0.0
H1730 H 0.53934 0.19422 0.10328 0.0
C1731 C 0.53809 0.15803 0.06526 0.0
C1732 C 0.51795 0.1385 0.05773 0.0
C1733 C 0.48658 0.11586 0.06012 0.0
C1734 C 0.47514 0.1137 0.0698 0.0
C1735 C 0.49545 0.13423 0.07697 0.0
C1736 C 0.52638 0.1557 0.07479 0.0
C1737 C 0.54313 0.17656 0.08352 0.0
C1738 C 0.57015 0.17175 0.08703 0.0
C1739 C 0.55484 0.21127 0.0811 0.0
C1740 C 0.51671 0.16397 0.09094 0.0
C1741 C 0.48937 0.13942 0.08713 0.0
C1742 C 0.46174 0.12485 0.09268 0.0
C1743 C 0.46225 0.13557 0.10237 0.0
C1744 C 0.49016 0.16076 0.10635 0.0
C1745 C 0.51757 0.17495 0.1005 0.0
H1746 H 0.7868 0.32097 0.06734 0.0
H1747 H 0.88587 0.35639 0.06201 0.0
H1748 H 0.8913 0.34082 0.07903 0.0
H1749 H 0.79476 0.34851 0.09165 0.0
H1750 H 0.75875 0.31521 0.09588 0.0
H1751 H 0.76288 0.32689 0.08313 0.0
H1752 H 0.74934 0.27084 0.07779 0.0
H1753 H 0.74545 0.25907 0.09056 0.0
H1754 H 0.77212 0.25432 0.08258 0.0
H1755 H 0.88537 0.32248 0.09711 0.0
H1756 H 0.86996 0.30822 0.11464 0.0
H1757 H 0.77526 0.28651 0.10756 0.0
C1758 C 0.80966 0.32525 0.06968 0.0
C1759 C 0.8359 0.33975 0.06334 0.0
C1760 C 0.86544 0.34527 0.06676 0.0
C1761 C 0.86868 0.33633 0.07638 0.0
C1762 C 0.84214 0.32196 0.08243 0.0
C1763 C 0.81328 0.31671 0.07919 0.0
C1764 C 0.7887 0.30288 0.0872 0.0
C1765 C 0.77552 0.32468 0.08961 0.0
C1766 C 0.76235 0.26981 0.08436 0.0
C1767 C 0.80827 0.30167 0.09559 0.0
C1768 C 0.83892 0.31221 0.09271 0.0
C1769 C 0.86138 0.31403 0.0994 0.0
C1770 C 0.85241 0.30573 0.10932 0.0
C1771 C 0.82144 0.29627 0.11241 0.0
C1772 C 0.79909 0.29359 0.10539 0.0
H1773 H 0.72673 0.50339 0.10155 0.0
H1774 H 0.69349 0.56369 0.11319 0.0
H1775 H 0.6754 0.56773 0.09644 0.0
H1776 H 0.75157 0.54156 0.07685 0.0
H1777 H 0.73873 0.50434 0.07087 0.0
H1778 H 0.75306 0.51043 0.08339 0.0
H1779 H 0.70126 0.46145 0.08892 0.0
H1780 H 0.6866 0.45547 0.07648 0.0
H1781 H 0.66436 0.4595 0.08638 0.0
H1782 H 0.65407 0.55839 0.07883 0.0
H1783 H 0.63508 0.53979 0.06184 0.0
H1784 H 0.68347 0.4864 0.06208 0.0
C1785 C 0.71643 0.51818 0.10054 0.0
C1786 C 0.71157 0.53331 0.10865 0.0
C1787 C 0.69774 0.55219 0.10705 0.0
C1788 C 0.6873 0.5545 0.09757 0.0
C1789 C 0.69134 0.53818 0.0898 0.0
C1790 C 0.70611 0.52084 0.09118 0.0
C1791 C 0.70577 0.50369 0.08187 0.0
C1792 C 0.73928 0.51574 0.07802 0.0
C1793 C 0.68846 0.46792 0.08352 0.0
C1794 C 0.68752 0.51313 0.07509 0.0
C1795 C 0.67952 0.53318 0.07973 0.0
C1796 C 0.66073 0.54317 0.07508 0.0
C1797 C 0.64992 0.53238 0.06545 0.0
C1798 C 0.65793 0.51179 0.06061 0.0
C1799 C 0.67722 0.50241 0.06551 0.0
H1800 H 0.45354 0.80843 0.93472 0.0
H1801 H 0.52929 0.90319 0.94034 0.0
H1802 H 0.54915 0.90556 0.9233 0.0
H1803 H 0.498 0.78319 0.92076 0.0
H1804 H 0.46623 0.7595 0.91244 0.0
H1805 H 0.45791 0.76602 0.92489 0.0
H1806 H 0.42322 0.78801 0.91829 0.0
H1807 H 0.43108 0.78116 0.90582 0.0
H1808 H 0.43945 0.8198 0.9095 0.0
H1809 H 0.56044 0.89635 0.9053 0.0
H1810 H 0.56036 0.87759 0.88825 0.0
H1811 H 0.47764 0.78868 0.89537 0.0
C1812 C 0.4742 0.82987 0.93239 0.0
C1813 C 0.48981 0.85569 0.93885 0.0
C1814 C 0.51685 0.88318 0.93548 0.0
C1815 C 0.52836 0.88465 0.92584 0.0
C1816 C 0.51258 0.85842 0.91972 0.0
C1817 C 0.48598 0.83164 0.9229 0.0
C1818 C 0.47309 0.80647 0.91505 0.0
C1819 C 0.47387 0.77707 0.91849 0.0
C1820 C 0.43975 0.7984 0.91198 0.0
C1821 C 0.49646 0.82317 0.90687 0.0
C1822 C 0.51918 0.85308 0.90964 0.0
C1823 C 0.54278 0.87291 0.9031 0.0
C1824 C 0.54266 0.86203 0.89345 0.0
C1825 C 0.51908 0.83163 0.89048 0.0
C1826 C 0.49612 0.81198 0.89739 0.0
H1827 H 0.1778 0.63733 0.93766 0.0
H1828 H 0.0886 0.63315 0.94248 0.0
H1829 H 0.08793 0.64694 0.92485 0.0
H1830 H 0.21063 0.70329 0.9219 0.0
H1831 H 0.23064 0.6889 0.91421 0.0
H1832 H 0.22296 0.67733 0.92699 0.0
H1833 H 0.1938 0.61867 0.92185 0.0
H1834 H 0.2017 0.63005 0.90906 0.0
H1835 H 0.1619 0.60469 0.91312 0.0
H1836 H 0.09894 0.66322 0.90647 0.0
H1837 H 0.11902 0.67757 0.88932 0.0
H1838 H 0.20098 0.67121 0.89741 0.0
C1839 C 0.15788 0.63899 0.93504 0.0
C1840 C 0.1332 0.6341 0.94145 0.0
C1841 C 0.10769 0.63662 0.93768 0.0
C1842 C 0.1072 0.64457 0.9277 0.0
C1843 C 0.13237 0.64984 0.92164 0.0
C1844 C 0.15709 0.6469 0.9252 0.0
C1845 C 0.18162 0.65408 0.91737 0.0
C1846 C 0.21332 0.6826 0.9203 0.0
C1847 C 0.18493 0.62515 0.91522 0.0
C1848 C 0.16702 0.66162 0.90878 0.0
C1849 C 0.13865 0.65916 0.91131 0.0
C1850 C 0.12111 0.66514 0.90444 0.0
C1851 C 0.13273 0.6734 0.89473 0.0
C1852 C 0.16158 0.67554 0.89203 0.0
C1853 C 0.17887 0.66982 0.89921 0.0
H1854 H 0.31792 0.53062 0.89334 0.0
H1855 H 0.31832 0.44423 0.88727 0.0
H1856 H 0.33277 0.44251 0.90475 0.0
H1857 H 0.38403 0.5645 0.90902 0.0
H1858 H 0.36829 0.58229 0.91714 0.0
H1859 H 0.3566 0.57555 0.90436 0.0
H1860 H 0.29807 0.54338 0.90955 0.0
H1861 H 0.30956 0.55038 0.92234 0.0
H1862 H 0.28568 0.51076 0.91791 0.0
H1863 H 0.34899 0.45204 0.92313 0.0
H1864 H 0.36244 0.47032 0.94049 0.0
H1865 H 0.35185 0.55066 0.9336 0.0
C1866 C 0.32073 0.5111 0.89566 0.0
C1867 C 0.31695 0.48752 0.88895 0.0
C1868 C 0.32095 0.46247 0.89232 0.0
C1869 C 0.32928 0.46139 0.90221 0.0
C1870 C 0.33346 0.48552 0.90858 0.0
C1871 C 0.32905 0.50974 0.90541 0.0
C1872 C 0.33521 0.53312 0.91354 0.0
C1873 C 0.36267 0.56579 0.91085 0.0
C1874 C 0.30535 0.53447 0.91598 0.0
C1875 C 0.34391 0.51846 0.92183 0.0
C1876 C 0.34284 0.49102 0.91891 0.0
C1877 C 0.34986 0.47349 0.92547 0.0
C1878 C 0.35761 0.4841 0.9353 0.0
C1879 C 0.35826 0.51193 0.9384 0.0
C1880 C 0.35166 0.52932 0.93149 0.0
H1881 H 0.16058 0.55288 0.4418 0.0
H1882 H 0.09723 0.45538 0.44919 0.0
H1883 H 0.09574 0.4409 0.43154 0.0
H1884 H 0.1264 0.55144 0.41709 0.0
H1885 H 0.1646 0.578 0.41205 0.0
H1886 H 0.15663 0.58048 0.42492 0.0
H1887 H 0.20437 0.5745 0.42974 0.0
H1888 H 0.21219 0.57149 0.41694 0.0
H1889 H 0.20629 0.54082 0.42544 0.0
H1890 H 0.10794 0.43689 0.41331 0.0
H1891 H 0.12895 0.44434 0.39624 0.0
H1892 H 0.18318 0.54478 0.40131 0.0
C1893 C 0.14569 0.52857 0.43967 0.0
C1894 C 0.12896 0.50524 0.44682 0.0
C1895 C 0.10993 0.47366 0.44379 0.0
C1896 C 0.10909 0.46524 0.43379 0.0
C1897 C 0.12697 0.4888 0.42697 0.0
C1898 C 0.1444 0.51993 0.42979 0.0
C1899 C 0.16312 0.54072 0.42127 0.0
C1900 C 0.15201 0.56403 0.41868 0.0
C1901 C 0.19857 0.55787 0.42349 0.0
C1902 C 0.15449 0.51639 0.41327 0.0
C1903 C 0.1335 0.48656 0.41661 0.0
C1904 C 0.12393 0.46024 0.41059 0.0
C1905 C 0.13609 0.46465 0.40092 0.0
C1906 C 0.15758 0.49514 0.39742 0.0
C1907 C 0.16656 0.52118 0.4037 0.0
H1908 H 0.46471 0.63996 0.39336 0.0
H1909 H 0.5664 0.68927 0.39181 0.0
H1910 H 0.56833 0.66904 0.40841 0.0
H1911 H 0.45982 0.65726 0.41786 0.0
H1912 H 0.42537 0.62013 0.42058 0.0
H1913 H 0.43238 0.63518 0.40818 0.0
H1914 H 0.42903 0.5838 0.40188 0.0
H1915 H 0.42225 0.56868 0.41431 0.0
H1916 H 0.45425 0.57087 0.40719 0.0
H1917 H 0.55876 0.64692 0.42591 0.0
H1918 H 0.53889 0.62877 0.44287 0.0
H1919 H 0.4438 0.59468 0.43256 0.0
C1920 C 0.48743 0.64613 0.39641 0.0
C1921 C 0.51541 0.66609 0.39127 0.0
C1922 C 0.54464 0.67393 0.39561 0.0
C1923 C 0.54595 0.6624 0.40501 0.0
C1924 C 0.51782 0.64295 0.40992 0.0
C1925 C 0.48913 0.63497 0.40574 0.0
C1926 C 0.46238 0.61619 0.41279 0.0
C1927 C 0.44393 0.63322 0.41499 0.0
C1928 C 0.4407 0.58291 0.4088 0.0
C1929 C 0.48047 0.61562 0.42173 0.0
C1930 C 0.51237 0.63062 0.41992 0.0
C1931 C 0.53378 0.63474 0.42736 0.0
C1932 C 0.52231 0.62422 0.43696 0.0
C1933 C 0.48982 0.61022 0.439 0.0
C1934 C 0.46874 0.60505 0.4312 0.0
H1935 H 0.34013 0.85413 0.43081 0.0
H1936 H 0.27415 0.76104 0.44172 0.0
H1937 H 0.247 0.74749 0.42571 0.0
H1938 H 0.28383 0.86273 0.41408 0.0
H1939 H 0.31301 0.88192 0.40458 0.0
H1940 H 0.3246 0.88667 0.41739 0.0
H1941 H 0.36341 0.86692 0.41355 0.0
H1942 H 0.35209 0.86233 0.40075 0.0
H1943 H 0.34911 0.82946 0.40756 0.0
H1944 H 0.23121 0.74095 0.40839 0.0
H1945 H 0.22922 0.74107 0.39019 0.0
H1946 H 0.30434 0.838 0.38978 0.0
C1947 C 0.31952 0.83122 0.42985 0.0
C1948 C 0.30913 0.80866 0.4375 0.0
C1949 C 0.28255 0.77864 0.43595 0.0
C1950 C 0.26677 0.77079 0.4269 0.0
C1951 C 0.2778 0.7932 0.41944 0.0
C1952 C 0.30359 0.82279 0.42075 0.0
C1953 C 0.31251 0.84099 0.4111 0.0
C1954 C 0.30823 0.86979 0.41183 0.0
C1955 C 0.34627 0.85047 0.40806 0.0
C1956 C 0.28851 0.81651 0.40413 0.0
C1957 C 0.26838 0.78936 0.4092 0.0
C1958 C 0.24627 0.76227 0.40435 0.0
C1959 C 0.24528 0.76253 0.39403 0.0
C1960 C 0.26611 0.78972 0.38867 0.0
C1961 C 0.28741 0.81733 0.39377 0.0
H1962 H 0.2651 0.15456 0.16383 0.0
H1963 H 0.27605 0.16404 0.19571 0.0
H1964 H 0.32657 0.16492 0.19433 0.0
H1965 H 0.29399 0.10245 0.16094 0.0
H1966 H 0.31387 0.11893 0.14942 0.0
H1967 H 0.27977 0.12148 0.15275 0.0
H1968 H 0.31132 0.18203 0.1509 0.0
H1969 H 0.34528 0.17959 0.14731 0.0
H1970 H 0.34773 0.20424 0.15753 0.0
H1971 H 0.3747 0.16257 0.18951 0.0
H1972 H 0.41958 0.1623 0.18144 0.0
H1973 H 0.37574 0.15231 0.15281 0.0
C1974 C 0.2784 0.15752 0.17051 0.0
C1975 C 0.26674 0.15943 0.17987 0.0
C1976 C 0.28466 0.16277 0.18845 0.0
C1977 C 0.31325 0.16307 0.18775 0.0
C1978 C 0.32343 0.15989 0.17844 0.0
C1979 C 0.30675 0.15757 0.16996 0.0
C1980 C 0.32247 0.15384 0.16086 0.0
C1981 C 0.30125 0.1223 0.15569 0.0
C1982 C 0.33229 0.18158 0.15373 0.0
C1983 C 0.35066 0.15443 0.16553 0.0
C1984 C 0.35075 0.15786 0.17568 0.0
C1985 C 0.37487 0.15986 0.18157 0.0
C1986 C 0.40015 0.1595 0.17693 0.0
C1987 C 0.40099 0.15703 0.16651 0.0
C1988 C 0.3755 0.15366 0.16079 0.0
H1989 H 0.83466 0.10974 0.17914 0.0
H1990 H 0.84437 0.08664 0.14885 0.0
H1991 H 0.84554 0.13485 0.14312 0.0
H1992 H 0.7857 0.14482 0.17381 0.0
H1993 H 0.80468 0.17445 0.1832 0.0
H1994 H 0.80173 0.13669 0.18465 0.0
H1995 H 0.8621 0.16436 0.18687 0.0
H1996 H 0.86535 0.20215 0.18513 0.0
H1997 H 0.88733 0.19033 0.17734 0.0
H1998 H 0.849 0.18722 0.14083 0.0
H1999 H 0.84851 0.23707 0.14197 0.0
H2000 H 0.83835 0.2263 0.17384 0.0
C2001 C 0.83618 0.11433 0.17128 0.0
C2002 C 0.83924 0.09435 0.16444 0.0
C2003 C 0.84179 0.10154 0.15422 0.0
C2004 C 0.84269 0.12896 0.1509 0.0
C2005 C 0.84105 0.14886 0.15789 0.0
C2006 C 0.83738 0.14166 0.16785 0.0
C2007 C 0.83707 0.16739 0.17388 0.0
C2008 C 0.80541 0.1551 0.17919 0.0
C2009 C 0.8646 0.18191 0.18124 0.0
C2010 C 0.8413 0.19028 0.16576 0.0
C2011 C 0.84362 0.17922 0.1566 0.0
C2012 C 0.84714 0.1961 0.14797 0.0
C2013 C 0.84708 0.22449 0.1487 0.0
C2014 C 0.84358 0.23565 0.158 0.0
C2015 C 0.84149 0.21864 0.16664 0.0
H2016 H 0.89369 0.72872 0.16151 0.0
H2017 H 0.89545 0.72043 0.19343 0.0
H2018 H 0.84561 0.66994 0.19268 0.0
H2019 H 0.8117 0.69818 0.15914 0.0
H2020 H 0.80799 0.67732 0.14781 0.0
H2021 H 0.84444 0.71224 0.15075 0.0
H2022 H 0.87447 0.68165 0.14906 0.0
H2023 H 0.83825 0.64686 0.14588 0.0
H2024 H 0.86153 0.64607 0.15605 0.0
H2025 H 0.7946 0.62146 0.18848 0.0
H2026 H 0.74964 0.57508 0.18096 0.0
H2027 H 0.78138 0.61559 0.15181 0.0
C2028 C 0.88389 0.71611 0.16834 0.0
C2029 C 0.89848 0.72849 0.17753 0.0
C2030 C 0.88478 0.7113 0.1863 0.0
C2031 C 0.85635 0.68274 0.18596 0.0
C2032 C 0.84205 0.67177 0.1768 0.0
C2033 C 0.8556 0.68766 0.16814 0.0
C2034 C 0.83566 0.67069 0.15924 0.0
C2035 C 0.82428 0.69082 0.15393 0.0
C2036 C 0.85354 0.66072 0.15214 0.0
C2037 C 0.80876 0.64266 0.16424 0.0
C2038 C 0.81274 0.64387 0.17438 0.0
C2039 C 0.79125 0.62024 0.18055 0.0
C2040 C 0.76568 0.59408 0.17621 0.0
C2041 C 0.76195 0.59174 0.1658 0.0
C2042 C 0.78336 0.61682 0.15979 0.0
H2043 H 0.18925 0.40455 0.33644 0.0
H2044 H 0.16532 0.39084 0.36764 0.0
H2045 H 0.16218 0.33913 0.36696 0.0
H2046 H 0.13813 0.32445 0.32899 0.0
H2047 H 0.16534 0.32516 0.31993 0.0
H2048 H 0.16535 0.36076 0.323 0.0
H2049 H 0.22459 0.38732 0.32724 0.0
H2050 H 0.2246 0.35157 0.32438 0.0
H2051 H 0.23772 0.36964 0.33633 0.0
H2052 H 0.16252 0.28948 0.3629 0.0
H2053 H 0.16075 0.24292 0.35541 0.0
H2054 H 0.18484 0.28963 0.32689 0.0
C2055 C 0.18309 0.3906 0.34313 0.0
C2056 C 0.17751 0.40169 0.3521 0.0
C2057 C 0.16953 0.38272 0.36068 0.0
C2058 C 0.16793 0.35345 0.36038 0.0
C2059 C 0.17435 0.34361 0.35146 0.0
C2060 C 0.18139 0.36144 0.34297 0.0
C2061 C 0.18667 0.34529 0.33427 0.0
C2062 C 0.16242 0.3385 0.32607 0.0
C2063 C 0.2204 0.36461 0.33033 0.0
C2064 C 0.18133 0.31542 0.33918 0.0
C2065 C 0.17453 0.31504 0.34912 0.0
C2066 C 0.16786 0.28952 0.35514 0.0
C2067 C 0.16704 0.26325 0.35081 0.0
C2068 C 0.17276 0.2627 0.34057 0.0
C2069 C 0.18076 0.28948 0.33476 0.0
H2070 H 0.61633 0.7715 0.33856 0.0
H2071 H 0.5663 0.7596 0.31103 0.0
H2072 H 0.61287 0.80632 0.30417 0.0
H2073 H 0.65136 0.85308 0.33947 0.0
H2074 H 0.68783 0.85968 0.34473 0.0
H2075 H 0.65212 0.82338 0.34707 0.0
H2076 H 0.6771 0.79167 0.34019 0.0
H2077 H 0.71317 0.82785 0.33807 0.0
H2078 H 0.69452 0.80058 0.32804 0.0
H2079 H 0.66466 0.85606 0.30069 0.0
H2080 H 0.71795 0.90284 0.30065 0.0
H2081 H 0.73122 0.88291 0.33095 0.0
C2082 C 0.61537 0.77814 0.33099 0.0
C2083 C 0.58786 0.76174 0.32528 0.0
C2084 C 0.58732 0.77171 0.31549 0.0
C2085 C 0.61357 0.79827 0.31156 0.0
C2086 C 0.63993 0.81463 0.31755 0.0
C2087 C 0.64103 0.80476 0.32703 0.0
C2088 C 0.67135 0.82718 0.33218 0.0
C2089 C 0.66528 0.84168 0.34141 0.0
C2090 C 0.69015 0.81085 0.33477 0.0
C2091 C 0.68718 0.85133 0.32413 0.0
C2092 C 0.66886 0.8437 0.31572 0.0
C2093 C 0.67916 0.86229 0.30725 0.0
C2094 C 0.70933 0.88888 0.30731 0.0
C2095 C 0.72855 0.89668 0.31583 0.0
C2096 C 0.71693 0.87791 0.32438 0.0
H2097 H 0.09959 0.82003 0.33744 0.0
H2098 H 0.10972 0.83502 0.3057 0.0
H2099 H 0.16088 0.83716 0.30639 0.0
H2100 H 0.178 0.87237 0.34359 0.0
H2101 H 0.18036 0.84866 0.35333 0.0
H2102 H 0.14323 0.84552 0.35036 0.0
H2103 H 0.11836 0.78566 0.34745 0.0
H2104 H 0.15517 0.78846 0.35069 0.0
H2105 H 0.13691 0.77155 0.33901 0.0
H2106 H 0.21251 0.8414 0.3107 0.0
H2107 H 0.25787 0.84024 0.318 0.0
H2108 H 0.21413 0.82323 0.34694 0.0
C2109 C 0.11215 0.82297 0.33059 0.0
C2110 C 0.10058 0.82725 0.32151 0.0
C2111 C 0.11801 0.83149 0.31274 0.0
C2112 C 0.14721 0.83298 0.31306 0.0
C2113 C 0.15855 0.83011 0.3222 0.0
C2114 C 0.14133 0.82462 0.33078 0.0
C2115 C 0.15905 0.82285 0.33967 0.0
C2116 C 0.16554 0.8489 0.34718 0.0
C2117 C 0.14132 0.79019 0.34448 0.0
C2118 C 0.18903 0.82839 0.33476 0.0
C2119 C 0.18834 0.83269 0.32469 0.0
C2120 C 0.21327 0.83792 0.31857 0.0
C2121 C 0.23903 0.83746 0.3228 0.0
C2122 C 0.23962 0.83176 0.33305 0.0
C2123 C 0.21459 0.82801 0.33911 0.0
H2124 H 0.73664 0.87054 0.83177 0.0
H2125 H 0.72631 0.86924 0.79986 0.0
H2126 H 0.67571 0.86781 0.80192 0.0
H2127 H 0.65566 0.81758 0.83722 0.0
H2128 H 0.65606 0.83802 0.84833 0.0
H2129 H 0.69144 0.83931 0.84419 0.0
H2130 H 0.71989 0.90013 0.84428 0.0
H2131 H 0.68435 0.89898 0.84822 0.0
H2132 H 0.70407 0.91995 0.83715 0.0
H2133 H 0.62625 0.86614 0.80747 0.0
H2134 H 0.57877 0.85864 0.81608 0.0
H2135 H 0.62208 0.86189 0.84434 0.0
C2136 C 0.72369 0.86976 0.8252 0.0
C2137 C 0.73539 0.86998 0.81565 0.0
C2138 C 0.71772 0.86896 0.80726 0.0
C2139 C 0.6891 0.86841 0.80835 0.0
C2140 C 0.67862 0.86896 0.81788 0.0
C2141 C 0.69519 0.86926 0.82615 0.0
C2142 C 0.67832 0.86871 0.83557 0.0
C2143 C 0.66986 0.83914 0.84168 0.0
C2144 C 0.69783 0.89873 0.84166 0.0
C2145 C 0.64941 0.86765 0.83129 0.0
C2146 C 0.65019 0.86815 0.82108 0.0
C2147 C 0.62543 0.86591 0.81547 0.0
C2148 C 0.59863 0.86179 0.82043 0.0
C2149 C 0.59683 0.85988 0.83088 0.0
C2150 C 0.62297 0.86383 0.83636 0.0
H2151 H 0.15091 0.75327 0.83008 0.0
H2152 H 0.14018 0.7488 0.862 0.0
H2153 H 0.13959 0.79872 0.86174 0.0
H2154 H 0.2035 0.83421 0.82864 0.0
H2155 H 0.1877 0.8401 0.81735 0.0
H2156 H 0.18447 0.80265 0.81984 0.0
H2157 H 0.12401 0.77465 0.8178 0.0
H2158 H 0.12715 0.81188 0.815 0.0
H2159 H 0.10191 0.78805 0.82488 0.0
H2160 H 0.14322 0.85059 0.85805 0.0
H2161 H 0.14412 0.89729 0.85098 0.0
H2162 H 0.15441 0.86822 0.82158 0.0
C2163 C 0.14763 0.7623 0.837 0.0
C2164 C 0.14542 0.74705 0.84605 0.0
C2165 C 0.14166 0.75997 0.85496 0.0
C2166 C 0.14158 0.78844 0.8549 0.0
C2167 C 0.14532 0.80359 0.84588 0.0
C2168 C 0.14777 0.79073 0.83708 0.0
C2169 C 0.15216 0.81194 0.82841 0.0
C2170 C 0.18384 0.82286 0.82326 0.0
C2171 C 0.12467 0.79566 0.8211 0.0
C2172 C 0.15179 0.83881 0.83371 0.0
C2173 C 0.14797 0.83364 0.84378 0.0
C2174 C 0.14618 0.85488 0.85017 0.0
C2175 C 0.14694 0.88144 0.84609 0.0
C2176 C 0.14952 0.88647 0.83574 0.0
C2177 C 0.15293 0.86531 0.82953 0.0
H2178 H 0.243 0.39267 0.82894 0.0
H2179 H 0.26011 0.39393 0.86046 0.0
H2180 H 0.21107 0.34312 0.86225 0.0
H2181 H 0.16456 0.36672 0.83078 0.0
H2182 H 0.15256 0.3421 0.81994 0.0
H2183 H 0.19158 0.37539 0.82067 0.0
H2184 H 0.21559 0.33971 0.81766 0.0
H2185 H 0.17658 0.30633 0.81663 0.0
H2186 H 0.20388 0.30581 0.8254 0.0
H2187 H 0.15702 0.2958 0.86091 0.0
H2188 H 0.10422 0.25297 0.85629 0.0
H2189 H 0.12211 0.28429 0.82576 0.0
C2190 C 0.23713 0.38171 0.83616 0.0
C2191 C 0.25551 0.3971 0.84455 0.0
C2192 C 0.24651 0.38238 0.85391 0.0
C2193 C 0.21863 0.35359 0.85501 0.0
C2194 C 0.20015 0.33991 0.84667 0.0
C2195 C 0.20927 0.35323 0.8374 0.0
C2196 C 0.18406 0.33528 0.82976 0.0
C2197 C 0.17252 0.35612 0.82502 0.0
C2198 C 0.19573 0.32092 0.8219 0.0
C2199 C 0.15902 0.31022 0.83623 0.0
C2200 C 0.16879 0.31311 0.84594 0.0
C2201 C 0.14926 0.29308 0.85331 0.0
C2202 C 0.11923 0.269 0.85062 0.0
C2203 C 0.109 0.26536 0.84067 0.0
C2204 C 0.12915 0.28651 0.83344 0.0
H2205 H 0.80537 0.58634 0.66385 0.0
H2206 H 0.81563 0.59555 0.63195 0.0
H2207 H 0.81844 0.64704 0.63294 0.0
H2208 H 0.75623 0.6199 0.6664 0.0
H2209 H 0.77379 0.63981 0.67783 0.0
H2210 H 0.77352 0.6041 0.67469 0.0
H2211 H 0.83405 0.63227 0.6765 0.0
H2212 H 0.83442 0.66786 0.67984 0.0
H2213 H 0.85807 0.66787 0.66967 0.0
H2214 H 0.81933 0.69704 0.63742 0.0
H2215 H 0.82319 0.74424 0.64519 0.0
H2216 H 0.81109 0.70141 0.6741 0.0
C2217 C 0.80861 0.59932 0.65707 0.0
C2218 C 0.81038 0.58699 0.64782 0.0
C2219 C 0.81437 0.60463 0.63912 0.0
C2220 C 0.81578 0.63377 0.6396 0.0
C2221 C 0.81306 0.64481 0.64883 0.0
C2222 C 0.8099 0.62829 0.65741 0.0
C2223 C 0.80772 0.64541 0.6664 0.0
C2224 C 0.77592 0.62615 0.67163 0.0
C2225 C 0.83521 0.65386 0.67352 0.0
C2226 C 0.81037 0.6743 0.66154 0.0
C2227 C 0.81323 0.67342 0.65139 0.0
C2228 C 0.81703 0.69797 0.64535 0.0
C2229 C 0.81905 0.72461 0.64983 0.0
C2230 C 0.81727 0.72641 0.66024 0.0
C2231 C 0.81206 0.70055 0.66612 0.0
H2232 H 0.39002 0.22402 0.68057 0.0
H2233 H 0.3852 0.23428 0.64883 0.0
H2234 H 0.33646 0.183 0.64815 0.0
H2235 H 0.36268 0.14193 0.68062 0.0
H2236 H 0.33988 0.13402 0.69177 0.0
H2237 H 0.37416 0.17198 0.68992 0.0
H2238 H 0.34098 0.19904 0.6924 0.0
H2239 H 0.30679 0.16124 0.69449 0.0
H2240 H 0.30624 0.18672 0.68502 0.0
H2241 H 0.28941 0.13016 0.65079 0.0
H2242 H 0.243 0.08219 0.65688 0.0
H2243 H 0.27831 0.10624 0.68691 0.0
C2244 C 0.37851 0.2157 0.67349 0.0
C2245 C 0.39143 0.23317 0.66475 0.0
C2246 C 0.37569 0.22138 0.65563 0.0
C2247 C 0.34812 0.19216 0.65516 0.0
C2248 C 0.33659 0.1751 0.66386 0.0
C2249 C 0.35094 0.18661 0.67288 0.0
C2250 C 0.33329 0.16381 0.68115 0.0
C2251 C 0.35373 0.15226 0.68616 0.0
C2252 C 0.32109 0.17858 0.68871 0.0
C2253 C 0.3067 0.13774 0.67537 0.0
C2254 C 0.30926 0.1446 0.66539 0.0
C2255 C 0.2871 0.1245 0.65858 0.0
C2256 C 0.26091 0.09723 0.66211 0.0
C2257 C 0.25707 0.09044 0.67236 0.0
C2258 C 0.28076 0.11056 0.67902 0.0
H2259 H 0.78173 0.1599 0.65479 0.0
H2260 H 0.75103 0.17445 0.68339 0.0
H2261 H 0.79407 0.17073 0.69145 0.0
H2262 H 0.80735 0.10507 0.66316 0.0
H2263 H 0.8404 0.12136 0.65484 0.0
H2264 H 0.80525 0.12202 0.65158 0.0
H2265 H 0.83837 0.18227 0.64914 0.0
H2266 H 0.87348 0.18192 0.65265 0.0
H2267 H 0.86213 0.20661 0.6592 0.0
H2268 H 0.8426 0.16908 0.69624 0.0
H2269 H 0.89027 0.16455 0.69758 0.0
H2270 H 0.88985 0.15286 0.66575 0.0
C2271 C 0.7835 0.16141 0.66277 0.0
C2272 C 0.76293 0.16724 0.66847 0.0
C2273 C 0.76645 0.16979 0.67888 0.0
C2274 C 0.7909 0.16787 0.68352 0.0
C2275 C 0.81159 0.16345 0.67764 0.0
C2276 C 0.80791 0.15984 0.6675 0.0
C2277 C 0.83404 0.15654 0.66283 0.0
C2278 C 0.82098 0.12433 0.65781 0.0
C2279 C 0.85312 0.18344 0.65552 0.0
C2280 C 0.85313 0.15913 0.6719 0.0
C2281 C 0.83982 0.1631 0.68037 0.0
C2282 C 0.8532 0.16586 0.68966 0.0
C2283 C 0.88038 0.16349 0.69034 0.0
C2284 C 0.89387 0.15852 0.68177 0.0
C2285 C 0.88032 0.15697 0.67243 0.0
H2286 H 0.05387 0.49383 0.48773 0.0
H2287 H 0.08053 0.49756 0.51852 0.0
H2288 H 0.03296 0.49879 0.5236 0.0
H2289 H 0.02669 0.5471 0.4897 0.0
H2290 H 0.99439 0.52686 0.48123 0.0
H2291 H 0.02892 0.52333 0.47994 0.0
H2292 H 0.99521 0.46271 0.48108 0.0
H2293 H 0.96048 0.466 0.48207 0.0
H2294 H 0.96894 0.44511 0.49139 0.0
H2295 H 0.98443 0.50325 0.52524 0.0
H2296 H 0.9348 0.50385 0.52341 0.0
H2297 H 0.94108 0.49847 0.49152 0.0
C2298 C 0.04936 0.49409 0.49556 0.0
C2299 C 0.07084 0.49547 0.50273 0.0
C2300 C 0.06428 0.49629 0.51289 0.0
C2301 C 0.03746 0.49724 0.51585 0.0
C2302 C 0.01752 0.4973 0.50856 0.0
C2303 C 0.02287 0.49522 0.49863 0.0
C2304 C -0.00177 0.49637 0.49225 0.0
C2305 C 0.01295 0.52513 0.48538 0.0
C2306 C 0.97961 0.46572 0.48635 0.0
C2307 C 0.97824 0.49954 0.50014 0.0
C2308 C 0.98981 0.50019 0.50949 0.0
C2309 C 0.97506 0.50266 0.51795 0.0
C2310 C 0.94703 0.50323 0.51683 0.0
C2311 C 0.93413 0.50131 0.50732 0.0
C2312 C 0.95047 0.50029 0.49888 0.0
H2313 H 0.4947 0.43597 0.50156 0.0
H2314 H 0.49592 0.44979 0.53329 0.0
H2315 H 0.49427 0.49862 0.53051 0.0
H2316 H 0.54583 0.51449 0.49555 0.0
H2317 H 0.52613 0.51407 0.48427 0.0
H2318 H 0.52395 0.47852 0.48868 0.0
H2319 H 0.46314 0.45017 0.48863 0.0
H2320 H 0.46511 0.48536 0.48395 0.0
H2321 H 0.44352 0.4675 0.49512 0.0
H2322 H 0.49546 0.5475 0.52415 0.0
H2323 H 0.49452 0.59006 0.51474 0.0
H2324 H 0.4953 0.54487 0.48726 0.0
C2325 C 0.49376 0.44875 0.50795 0.0
C2326 C 0.49518 0.43894 0.51765 0.0
C2327 C 0.49457 0.45674 0.52579 0.0
C2328 C 0.49386 0.4846 0.52429 0.0
C2329 C 0.49391 0.4943 0.5146 0.0
C2330 C 0.49345 0.47669 0.50658 0.0
C2331 C 0.49471 0.49274 0.49692 0.0
C2332 C 0.52442 0.5004 0.49101 0.0
C2333 C 0.46484 0.47276 0.4908 0.0
C2334 C 0.49605 0.52224 0.50075 0.0
C2335 C 0.49555 0.52274 0.51096 0.0
C2336 C 0.49587 0.54736 0.51615 0.0
C2337 C 0.49556 0.57152 0.51075 0.0
C2338 C 0.49513 0.57091 0.50027 0.0
C2339 C 0.49618 0.54631 0.49525 0.0
H2340 H 0.54487 0.036 0.51253 0.0
H2341 H 0.56834 0.08526 0.48445 0.0
H2342 H 0.52357 0.03953 0.47661 0.0
H2343 H 0.51799 0.95712 0.50231 0.0
H2344 H 0.48709 0.93861 0.51134 0.0
H2345 H 0.52273 0.9742 0.51443 0.0
H2346 H 0.48988 6e-05 0.51928 0.0
H2347 H 0.4542 0.96485 0.51598 0.0
H2348 H 0.46354 0.0017 0.51035 0.0
H2349 H 0.47382 0.99027 0.47214 0.0
H2350 H 0.42578 0.9383 0.47096 0.0
H2351 H 0.43478 0.92177 0.50201 0.0
C2352 C 0.5411 0.03688 0.50468 0.0
C2353 C 0.56013 0.06413 0.49909 0.0
C2354 C 0.5541 0.06455 0.48887 0.0
C2355 C 0.52865 0.03876 0.48435 0.0
C2356 C 0.50957 0.01275 0.49016 0.0
C2357 C 0.51575 0.0114 0.50006 0.0
C2358 C 0.49104 0.98106 0.50472 0.0
C2359 C 0.50558 0.9616 0.50842 0.0
C2360 C 0.47364 0.98731 0.51307 0.0
C2361 C 0.46984 0.96577 0.49592 0.0
C2362 C 0.48087 0.98442 0.48759 0.0
C2363 C 0.46503 0.97533 0.47859 0.0
C2364 C 0.43765 0.9459 0.47801 0.0
C2365 C 0.42651 0.92602 0.48639 0.0
C2366 C 0.44261 0.93645 0.49547 0.0
H2367 H 0.49338 0.05107 0.01535 0.0
H2368 H 0.49211 0.08841 0.98638 0.0
H2369 H 0.4905 0.04239 0.97855 0.0
H2370 H 0.54332 0.0223 0.00933 0.0
H2371 H 0.52347 0.98711 0.01667 0.0
H2372 H 0.52164 0.02146 0.02018 0.0
H2373 H 0.46084 0.98967 0.01986 0.0
H2374 H 0.46246 0.955 0.01662 0.0
H2375 H 0.44099 0.96771 0.00893 0.0
H2376 H 0.4942 0.99515 0.97384 0.0
H2377 H 0.49435 0.94521 0.97256 0.0
H2378 H 0.49256 0.93831 0.00459 0.0
C2379 C 0.49191 0.04919 0.00737 0.0
C2380 C 0.49286 0.07336 0.00148 0.0
C2381 C 0.49129 0.07015 0.99105 0.0
C2382 C 0.49059 0.0442 0.98653 0.0
C2383 C 0.4912 0.02156 0.99254 0.0
C2384 C 0.49111 0.0234 0.00273 0.0
C2385 C 0.49218 0.99607 0.00747 0.0
C2386 C 0.52193 0.00743 0.01378 0.0
C2387 C 0.46234 0.97592 0.01358 0.0
C2388 C 0.49326 0.97883 0.99834 0.0
C2389 C 0.49292 0.99405 0.98981 0.0
C2390 C 0.49418 0.98283 0.98047 0.0
C2391 C 0.49456 0.95459 0.97982 0.0
C2392 C 0.49348 0.93784 0.98847 0.0
C2393 C 0.49351 0.95058 0.99784 0.0
H2394 H 0.92348 0.45476 0.00055 0.0
H2395 H 0.93777 0.44652 0.03183 0.0
H2396 H 0.99023 0.49403 0.03079 0.0
H2397 H 0.00282 0.48067 0.99293 0.0
H2398 H 0.00277 0.5069 0.98364 0.0
H2399 H 0.96665 0.47226 0.98698 0.0
H2400 H 0.94197 0.50687 0.99092 0.0
H2401 H 0.97824 0.54169 0.98777 0.0
H2402 H 0.96082 0.53836 0.99975 0.0
H2403 H 0.04074 0.54282 0.02633 0.0
H2404 H 0.08774 0.5861 0.01847 0.0
H2405 H 0.03982 0.56219 0.99014 0.0
C2406 C 0.9377 0.46275 0.00718 0.0
C2407 C 0.92656 0.44695 0.01628 0.0
C2408 C 0.9459 0.4582 0.02477 0.0
C2409 C 0.97561 0.48527 0.02427 0.0
C2410 C 0.98554 0.5007 0.01522 0.0
C2411 C 0.96731 0.48963 0.00681 0.0
C2412 C 0.98362 0.5101 0.99795 0.0
C2413 C 0.98931 0.49137 0.9899 0.0
C2414 C 0.96505 0.52514 0.99386 0.0
C2415 C 0.01402 0.53437 0.00267 0.0
C2416 C 0.01457 0.52871 0.01265 0.0
C2417 C 0.04056 0.54752 0.01852 0.0
C2418 C 0.06709 0.57213 0.014 0.0
C2419 C 0.06741 0.57759 0.0037 0.0
C2420 C 0.0402 0.55888 0.99804 0.0
H2421 H 0.43542 0.51133 0.00146 0.0
H2422 H 0.41729 0.48176 0.97078 0.0
H2423 H 0.46454 0.47614 0.97064 0.0
H2424 H 0.51711 0.55841 0.99904 0.0
H2425 H 0.52606 0.54879 0.01101 0.0
H2426 H 0.4893 0.54759 0.00902 0.0
H2427 H 0.45867 0.48966 0.01487 0.0
H2428 H 0.49536 0.49094 0.01712 0.0
H2429 H 0.46646 0.46116 0.00914 0.0
H2430 H 0.51499 0.47552 0.97383 0.0
H2431 H 0.5627 0.47704 0.98038 0.0
H2432 H 0.54855 0.51032 0.00857 0.0
C2433 C 0.44088 0.50292 0.99477 0.0
C2434 C 0.42253 0.49664 0.98616 0.0
C2435 C 0.43092 0.48641 0.97749 0.0
C2436 C 0.45778 0.48333 0.97733 0.0
C2437 C 0.47601 0.49084 0.98586 0.0
C2438 C 0.46775 0.5002 0.99444 0.0
C2439 C 0.49181 0.5081 0.0025 0.0
C2440 C 0.50696 0.54278 0.00557 0.0
C2441 C 0.4772 0.48615 0.01143 0.0
C2442 C 0.51496 0.5017 0.99714 0.0
C2443 C 0.50547 0.49169 0.98756 0.0
C2444 C 0.5227 0.48343 0.98131 0.0
C2445 C 0.54983 0.48455 0.98507 0.0
C2446 C 0.55949 0.49412 0.99494 0.0
C2447 C 0.54213 0.50345 0.00093 0.0
loop_
_geom_bond_atom_site_label_1
_geom_bond_atom_site_label_2
_geom_bond_distance
_geom_bond_site_symmetry_2
_ccdc_geom_bond_type
O0 Cd1 2.223 . S
O0 C8 1.315 . S
Cd1 O0 2.223 . S
Cd1 O4 2.297 . S
Cd1 O5 2.439 . S
Cd1 O11 2.240 . S
Cd2 O3 2.240 . S
Cd2 O10 2.223 . S
Cd2 O12 2.297 . S
Cd2 O13 2.439 . S
O3 Cd2 2.240 . S
O3 C8 1.279 . S
O4 Cd1 2.297 . S
O4 C6 1.247 . S
O5 Cd1 2.439 . S
O5 C6 1.208 . S
C6 O4 1.247 . S
C6 O5 1.208 . S
C7 O12 1.247 . S
C7 O13 1.208 . S
C8 O0 1.315 . S
C8 O3 1.279 . S
C9 O10 1.315 . S
C9 O11 1.279 . S
O10 Cd2 2.223 . S
O10 C9 1.315 . S
O11 Cd1 2.240 . S
O11 C9 1.279 . S
O12 Cd2 2.297 . S
O12 C7 1.247 . S
O13 Cd2 2.439 . S
O13 C7 1.208 . S
O14 Cd15 2.223 . S
O14 C22 1.315 . S
Cd15 O14 2.223 . S
Cd15 O18 2.297 . S
Cd15 O19 2.439 . S
Cd15 O25 2.240 1_545 S
Cd16 O17 2.240 . S
Cd16 O24 2.223 1_545 S
Cd16 O26 2.297 1_545 S
Cd16 O27 2.439 . S
O17 Cd16 2.240 . S
O17 C22 1.279 . S
O18 Cd15 2.297 . S
O18 C20 1.247 . S
O19 Cd15 2.439 . S
O19 C20 1.208 . S
C20 O18 1.247 . S
C20 O19 1.208 . S
C21 O26 1.247 . S
C21 O27 1.208 1_565 S
C22 O14 1.315 . S
C22 O17 1.279 . S
C23 O24 1.315 . S
C23 O25 1.279 . S
O24 Cd16 2.223 1_565 S
O24 C23 1.315 . S
O25 Cd15 2.240 1_565 S
O25 C23 1.279 . S
O26 Cd16 2.297 1_565 S
O26 C21 1.247 . S
O27 Cd16 2.439 . S
O27 C21 1.208 1_545 S
O28 Cd29 2.223 . S
O28 C36 1.315 . S
Cd29 O28 2.223 . S
Cd29 O32 2.297 . S
Cd29 O33 2.439 . S
Cd29 O39 2.240 1_655 S
Cd30 O31 2.240 . S
Cd30 O38 2.223 1_655 S
Cd30 O40 2.297 1_655 S
Cd30 O41 2.439 . S
O31 Cd30 2.240 . S
O31 C36 1.279 . S
O32 Cd29 2.297 . S
O32 C34 1.247 . S
O33 Cd29 2.439 . S
O33 C34 1.208 . S
C34 O32 1.247 . S
C34 O33 1.208 . S
C35 O40 1.247 . S
C35 O41 1.208 1_455 S
C36 O28 1.315 . S
C36 O31 1.279 . S
C37 O38 1.315 . S
C37 O39 1.279 . S
O38 Cd30 2.223 1_455 S
O38 C37 1.315 . S
O39 Cd29 2.240 1_455 S
O39 C37 1.279 . S
O40 Cd30 2.297 1_455 S
O40 C35 1.247 . S
O41 Cd30 2.439 . S
O41 C35 1.208 1_655 S
O42 Cd43 2.223 . S
O42 C50 1.315 . S
Cd43 O42 2.223 . S
Cd43 O46 2.297 . S
Cd43 O47 2.439 . S
Cd43 O53 2.240 . S
Cd44 O45 2.240 . S
Cd44 O52 2.223 . S
Cd44 O54 2.297 . S
Cd44 O55 2.439 . S
O45 Cd44 2.240 . S
O45 C50 1.279 . S
O46 Cd43 2.297 . S
O46 C48 1.247 . S
O47 Cd43 2.439 . S
O47 C48 1.208 . S
C48 O46 1.247 . S
C48 O47 1.208 . S
C49 O54 1.247 . S
C49 O55 1.208 . S
C50 O42 1.315 . S
C50 O45 1.279 . S
C51 O52 1.315 . S
C51 O53 1.279 . S
O52 Cd44 2.223 . S
O52 C51 1.315 . S
O53 Cd43 2.240 . S
O53 C51 1.279 . S
O54 Cd44 2.297 . S
O54 C49 1.247 . S
O55 Cd44 2.439 . S
O55 C49 1.208 . S
O56 Cd57 2.223 . S
O56 C64 1.315 . S
Cd57 O56 2.223 . S
Cd57 O60 2.297 . S
Cd57 O61 2.439 . S
Cd57 O67 2.240 1_565 S
Cd58 O59 2.240 . S
Cd58 O66 2.223 1_565 S
Cd58 O68 2.297 1_565 S
Cd58 O69 2.439 . S
O59 Cd58 2.240 . S
O59 C64 1.279 . S
O60 Cd57 2.297 . S
O60 C62 1.247 . S
O61 Cd57 2.439 . S
O61 C62 1.208 . S
C62 O60 1.247 . S
C62 O61 1.208 . S
C63 O68 1.247 . S
C63 O69 1.208 1_545 S
C64 O56 1.315 . S
C64 O59 1.279 . S
C65 O66 1.315 . S
C65 O67 1.279 . S
O66 Cd58 2.223 1_545 S
O66 C65 1.315 . S
O67 Cd57 2.240 1_545 S
O67 C65 1.279 . S
O68 Cd58 2.297 1_545 S
O68 C63 1.247 . S
O69 Cd58 2.439 . S
O69 C63 1.208 1_565 S
O70 Cd71 2.223 . S
O70 C78 1.315 . S
Cd71 O70 2.223 . S
Cd71 O74 2.297 . S
Cd71 O75 2.439 . S
Cd71 O81 2.240 1_455 S
Cd72 O73 2.240 . S
Cd72 O80 2.223 1_455 S
Cd72 O82 2.297 1_455 S
Cd72 O83 2.439 . S
O73 Cd72 2.240 . S
O73 C78 1.279 . S
O74 Cd71 2.297 . S
O74 C76 1.247 . S
O75 Cd71 2.439 . S
O75 C76 1.208 . S
C76 O74 1.247 . S
C76 O75 1.208 . S
C77 O82 1.247 . S
C77 O83 1.208 1_655 S
C78 O70 1.315 . S
C78 O73 1.279 . S
C79 O80 1.315 . S
C79 O81 1.279 . S
O80 Cd72 2.223 1_655 S
O80 C79 1.315 . S
O81 Cd71 2.240 1_655 S
O81 C79 1.279 . S
O82 Cd72 2.297 1_655 S
O82 C77 1.247 . S
O83 Cd72 2.439 . S
O83 C77 1.208 1_455 S
O84 Cd85 2.223 . S
O84 C92 1.315 . S
Cd85 O84 2.223 . S
Cd85 O88 2.297 . S
Cd85 O89 2.439 . S
Cd85 O95 2.240 . S
Cd86 O87 2.240 . S
Cd86 O94 2.223 . S
Cd86 O96 2.297 . S
Cd86 O97 2.439 . S
O87 Cd86 2.240 . S
O87 C92 1.279 . S
O88 Cd85 2.297 . S
O88 C90 1.247 . S
O89 Cd85 2.439 . S
O89 C90 1.208 . S
C90 O88 1.247 . S
C90 O89 1.208 . S
C91 O96 1.247 . S
C91 O97 1.208 . S
C92 O84 1.315 . S
C92 O87 1.279 . S
C93 O94 1.315 . S
C93 O95 1.279 . S
O94 Cd86 2.223 . S
O94 C93 1.315 . S
O95 Cd85 2.240 . S
O95 C93 1.279 . S
O96 Cd86 2.297 . S
O96 C91 1.247 . S
O97 Cd86 2.439 . S
O97 C91 1.208 . S
O98 Cd99 2.223 . S
O98 C106 1.315 . S
Cd99 O98 2.223 . S
Cd99 O102 2.297 . S
Cd99 O103 2.439 . S
Cd99 O109 2.240 1_565 S
Cd100 O101 2.240 . S
Cd100 O108 2.223 1_565 S
Cd100 O110 2.297 1_565 S
Cd100 O111 2.439 . S
O101 Cd100 2.240 . S
O101 C106 1.279 . S
O102 Cd99 2.297 . S
O102 C104 1.247 . S
O103 Cd99 2.439 . S
O103 C104 1.208 . S
C104 O102 1.247 . S
C104 O103 1.208 . S
C105 O110 1.247 . S
C105 O111 1.208 1_545 S
C106 O98 1.315 . S
C106 O101 1.279 . S
C107 O108 1.315 . S
C107 O109 1.279 . S
O108 Cd100 2.223 1_545 S
O108 C107 1.315 . S
O109 Cd99 2.240 1_545 S
O109 C107 1.279 . S
O110 Cd100 2.297 1_545 S
O110 C105 1.247 . S
O111 Cd100 2.439 . S
O111 C105 1.208 1_565 S
O112 Cd113 2.223 . S
O112 C120 1.315 . S
Cd113 O112 2.223 . S
Cd113 O116 2.297 . S
Cd113 O117 2.439 . S
Cd113 O123 2.240 1_455 S
Cd114 O115 2.240 . S
Cd114 O122 2.223 1_455 S
Cd114 O124 2.297 1_455 S
Cd114 O125 2.439 . S
O115 Cd114 2.240 . S
O115 C120 1.279 . S
O116 Cd113 2.297 . S
O116 C118 1.247 . S
O117 Cd113 2.439 . S
O117 C118 1.208 . S
C118 O116 1.247 . S
C118 O117 1.208 . S
C119 O124 1.247 . S
C119 O125 1.208 1_655 S
C120 O112 1.315 . S
C120 O115 1.279 . S
C121 O122 1.315 . S
C121 O123 1.279 . S
O122 Cd114 2.223 1_655 S
O122 C121 1.315 . S
O123 Cd113 2.240 1_655 S
O123 C121 1.279 . S
O124 Cd114 2.297 1_655 S
O124 C119 1.247 . S
O125 Cd114 2.439 . S
O125 C119 1.208 1_455 S
O126 Cd127 2.223 . S
O126 C134 1.315 . S
Cd127 O126 2.223 . S
Cd127 O130 2.297 . S
Cd127 O131 2.439 . S
Cd127 O137 2.240 . S
Cd128 O129 2.240 . S
Cd128 O136 2.223 . S
Cd128 O138 2.297 . S
Cd128 O139 2.439 . S
O129 Cd128 2.240 . S
O129 C134 1.279 . S
O130 Cd127 2.297 . S
O130 C132 1.247 . S
O131 Cd127 2.439 . S
O131 C132 1.208 . S
C132 O130 1.247 . S
C132 O131 1.208 . S
C133 O138 1.247 . S
C133 O139 1.208 . S
C134 O126 1.315 . S
C134 O129 1.279 . S
C135 O136 1.315 . S
C135 O137 1.279 . S
O136 Cd128 2.223 . S
O136 C135 1.315 . S
O137 Cd127 2.240 . S
O137 C135 1.279 . S
O138 Cd128 2.297 . S
O138 C133 1.247 . S
O139 Cd128 2.439 . S
O139 C133 1.208 . S
O140 Cd141 2.223 . S
O140 C148 1.315 . S
Cd141 O140 2.223 . S
Cd141 O144 2.297 . S
Cd141 O145 2.439 . S
Cd141 O151 2.240 1_545 S
Cd142 O143 2.240 . S
Cd142 O150 2.223 1_545 S
Cd142 O152 2.297 1_545 S
Cd142 O153 2.439 . S
O143 Cd142 2.240 . S
O143 C148 1.279 . S
O144 Cd141 2.297 . S
O144 C146 1.247 . S
O145 Cd141 2.439 . S
O145 C146 1.208 . S
C146 O144 1.247 . S
C146 O145 1.208 . S
C147 O152 1.247 . S
C147 O153 1.208 1_565 S
C148 O140 1.315 . S
C148 O143 1.279 . S
C149 O150 1.315 . S
C149 O151 1.279 . S
O150 Cd142 2.223 1_565 S
O150 C149 1.315 . S
O151 Cd141 2.240 1_565 S
O151 C149 1.279 . S
O152 Cd142 2.297 1_565 S
O152 C147 1.247 . S
O153 Cd142 2.439 . S
O153 C147 1.208 1_545 S
O154 Cd155 2.223 . S
O154 C162 1.315 . S
Cd155 O154 2.223 . S
Cd155 O158 2.297 . S
Cd155 O159 2.439 . S
Cd155 O165 2.240 1_655 S
Cd156 O157 2.240 . S
Cd156 O164 2.223 1_655 S
Cd156 O166 2.297 1_655 S
Cd156 O167 2.439 . S
O157 Cd156 2.240 . S
O157 C162 1.279 . S
O158 Cd155 2.297 . S
O158 C160 1.247 . S
O159 Cd155 2.439 . S
O159 C160 1.208 . S
C160 O158 1.247 . S
C160 O159 1.208 . S
C161 O166 1.247 . S
C161 O167 1.208 1_455 S
C162 O154 1.315 . S
C162 O157 1.279 . S
C163 O164 1.315 . S
C163 O165 1.279 . S
O164 Cd156 2.223 1_455 S
O164 C163 1.315 . S
O165 Cd155 2.240 1_455 S
O165 C163 1.279 . S
O166 Cd156 2.297 1_455 S
O166 C161 1.247 . S
O167 Cd156 2.439 . S
O167 C161 1.208 1_655 S
O168 Cd169 2.223 . S
O168 C176 1.315 . S
Cd169 O168 2.223 . S
Cd169 O172 2.297 . S
Cd169 O173 2.439 . S
Cd169 O179 2.240 . S
Cd170 O171 2.240 . S
Cd170 O178 2.223 . S
Cd170 O180 2.297 . S
Cd170 O181 2.439 . S
O171 Cd170 2.240 . S
O171 C176 1.279 . S
O172 Cd169 2.297 . S
O172 C174 1.247 . S
O173 Cd169 2.439 . S
O173 C174 1.208 . S
C174 O172 1.247 . S
C174 O173 1.208 . S
C175 O180 1.247 . S
C175 O181 1.208 . S
C176 O168 1.315 . S
C176 O171 1.279 . S
C177 O178 1.315 . S
C177 O179 1.279 . S
O178 Cd170 2.223 . S
O178 C177 1.315 . S
O179 Cd169 2.240 . S
O179 C177 1.279 . S
O180 Cd170 2.297 . S
O180 C175 1.247 . S
O181 Cd170 2.439 . S
O181 C175 1.208 . S
O182 Cd183 2.223 . S
O182 C190 1.315 . S
Cd183 O182 2.223 . S
Cd183 O186 2.297 . S
Cd183 O187 2.439 . S
Cd183 O193 2.240 . S
Cd184 O185 2.240 . S
Cd184 O192 2.223 . S
Cd184 O194 2.297 . S
Cd184 O195 2.439 . S
O185 Cd184 2.240 . S
O185 C190 1.279 . S
O186 Cd183 2.297 . S
O186 C188 1.247 . S
O187 Cd183 2.439 . S
O187 C188 1.208 . S
C188 O186 1.247 . S
C188 O187 1.208 . S
C189 O194 1.247 . S
C189 O195 1.208 . S
C190 O182 1.315 . S
C190 O185 1.279 . S
C191 O192 1.315 . S
C191 O193 1.279 . S
O192 Cd184 2.223 . S
O192 C191 1.315 . S
O193 Cd183 2.240 . S
O193 C191 1.279 . S
O194 Cd184 2.297 . S
O194 C189 1.247 . S
O195 Cd184 2.439 . S
O195 C189 1.208 . S
O196 Cd197 2.223 . S
O196 C204 1.315 . S
Cd197 O196 2.223 . S
Cd197 O200 2.297 . S
Cd197 O201 2.439 . S
Cd197 O207 2.240 . S
Cd198 O199 2.240 . S
Cd198 O206 2.223 . S
Cd198 O208 2.297 . S
Cd198 O209 2.439 . S
O199 Cd198 2.240 . S
O199 C204 1.279 . S
O200 Cd197 2.297 . S
O200 C202 1.247 . S
O201 Cd197 2.439 . S
O201 C202 1.208 . S
C202 O200 1.247 . S
C202 O201 1.208 . S
C203 O208 1.247 . S
C203 O209 1.208 . S
C204 O196 1.315 . S
C204 O199 1.279 . S
C205 O206 1.315 . S
C205 O207 1.279 . S
O206 Cd198 2.223 . S
O206 C205 1.315 . S
O207 Cd197 2.240 . S
O207 C205 1.279 . S
O208 Cd198 2.297 . S
O208 C203 1.247 . S
O209 Cd198 2.439 . S
O209 C203 1.208 . S
O210 Cd211 2.223 . S
O210 C218 1.315 . S
Cd211 O210 2.223 . S
Cd211 O214 2.297 . S
Cd211 O215 2.439 . S
Cd211 O221 2.240 . S
Cd212 O213 2.240 . S
Cd212 O220 2.223 . S
Cd212 O222 2.297 . S
Cd212 O223 2.439 . S
O213 Cd212 2.240 . S
O213 C218 1.279 . S
O214 Cd211 2.297 . S
O214 C216 1.247 . S
O215 Cd211 2.439 . S
O215 C216 1.208 . S
C216 O214 1.247 . S
C216 O215 1.208 . S
C217 O222 1.247 . S
C217 O223 1.208 . S
C218 O210 1.315 . S
C218 O213 1.279 . S
C219 O220 1.315 . S
C219 O221 1.279 . S
O220 Cd212 2.223 . S
O220 C219 1.315 . S
O221 Cd211 2.240 . S
O221 C219 1.279 . S
O222 Cd212 2.297 . S
O222 C217 1.247 . S
O223 Cd212 2.439 . S
O223 C217 1.208 . S
O224 Cd225 2.223 . S
O224 C232 1.315 . S
Cd225 O224 2.223 . S
Cd225 O228 2.297 . S
Cd225 O229 2.439 . S
Cd225 O235 2.240 . S
Cd226 O227 2.240 . S
Cd226 O234 2.223 . S
Cd226 O236 2.297 . S
Cd226 O237 2.439 . S
O227 Cd226 2.240 . S
O227 C232 1.279 . S
O228 Cd225 2.297 . S
O228 C230 1.247 . S
O229 Cd225 2.439 . S
O229 C230 1.208 . S
C230 O228 1.247 . S
C230 O229 1.208 . S
C231 O236 1.247 . S
C231 O237 1.208 . S
C232 O224 1.315 . S
C232 O227 1.279 . S
C233 O234 1.315 . S
C233 O235 1.279 . S
O234 Cd226 2.223 . S
O234 C233 1.315 . S
O235 Cd225 2.240 . S
O235 C233 1.279 . S
O236 Cd226 2.297 . S
O236 C231 1.247 . S
O237 Cd226 2.439 . S
O237 C231 1.208 . S
O238 Cd239 2.223 . S
O238 C246 1.315 . S
Cd239 O238 2.223 . S
Cd239 O242 2.297 . S
Cd239 O243 2.439 . S
Cd239 O249 2.240 . S
Cd240 O241 2.240 . S
Cd240 O248 2.223 . S
Cd240 O250 2.297 . S
Cd240 O251 2.439 . S
O241 Cd240 2.240 . S
O241 C246 1.279 . S
O242 Cd239 2.297 . S
O242 C244 1.247 . S
O243 Cd239 2.439 . S
O243 C244 1.208 . S
C244 O242 1.247 . S
C244 O243 1.208 . S
C245 O250 1.247 . S
C245 O251 1.208 . S
C246 O238 1.315 . S
C246 O241 1.279 . S
C247 O248 1.315 . S
C247 O249 1.279 . S
O248 Cd240 2.223 . S
O248 C247 1.315 . S
O249 Cd239 2.240 . S
O249 C247 1.279 . S
O250 Cd240 2.297 . S
O250 C245 1.247 . S
O251 Cd240 2.439 . S
O251 C245 1.208 . S
O252 Cd253 2.223 . S
O252 C260 1.315 . S
Cd253 O252 2.223 . S
Cd253 O256 2.297 . S
Cd253 O257 2.439 . S
Cd253 O263 2.240 . S
Cd254 O255 2.240 . S
Cd254 O262 2.223 . S
Cd254 O264 2.297 . S
Cd254 O265 2.439 . S
O255 Cd254 2.240 . S
O255 C260 1.279 . S
O256 Cd253 2.297 . S
O256 C258 1.247 . S
O257 Cd253 2.439 . S
O257 C258 1.208 . S
C258 O256 1.247 . S
C258 O257 1.208 . S
C259 O264 1.247 . S
C259 O265 1.208 . S
C260 O252 1.315 . S
C260 O255 1.279 . S
C261 O262 1.315 . S
C261 O263 1.279 . S
O262 Cd254 2.223 . S
O262 C261 1.315 . S
O263 Cd253 2.240 . S
O263 C261 1.279 . S
O264 Cd254 2.297 . S
O264 C259 1.247 . S
O265 Cd254 2.439 . S
O265 C259 1.208 . S
O266 Cd267 2.223 . S
O266 C274 1.315 . S
Cd267 O266 2.223 . S
Cd267 O270 2.297 . S
Cd267 O271 2.439 . S
Cd267 O277 2.240 . S
Cd268 O269 2.240 . S
Cd268 O276 2.223 . S
Cd268 O278 2.297 . S
Cd268 O279 2.439 . S
O269 Cd268 2.240 . S
O269 C274 1.279 . S
O270 Cd267 2.297 . S
O270 C272 1.247 . S
O271 Cd267 2.439 . S
O271 C272 1.208 . S
C272 O270 1.247 . S
C272 O271 1.208 . S
C273 O278 1.247 . S
C273 O279 1.208 . S
C274 O266 1.315 . S
C274 O269 1.279 . S
C275 O276 1.315 . S
C275 O277 1.279 . S
O276 Cd268 2.223 . S
O276 C275 1.315 . S
O277 Cd267 2.240 . S
O277 C275 1.279 . S
O278 Cd268 2.297 . S
O278 C273 1.247 . S
O279 Cd268 2.439 . S
O279 C273 1.208 . S
O280 Cd281 2.223 . S
O280 C288 1.315 . S
Cd281 O280 2.223 . S
Cd281 O284 2.297 . S
Cd281 O285 2.439 . S
Cd281 O291 2.240 . S
Cd282 O283 2.240 . S
Cd282 O290 2.223 . S
Cd282 O292 2.297 . S
Cd282 O293 2.439 . S
O283 Cd282 2.240 . S
O283 C288 1.279 . S
O284 Cd281 2.297 . S
O284 C286 1.247 . S
O285 Cd281 2.439 . S
O285 C286 1.208 . S
C286 O284 1.247 . S
C286 O285 1.208 . S
C287 O292 1.247 . S
C287 O293 1.208 . S
C288 O280 1.315 . S
C288 O283 1.279 . S
C289 O290 1.315 . S
C289 O291 1.279 . S
O290 Cd282 2.223 . S
O290 C289 1.315 . S
O291 Cd281 2.240 . S
O291 C289 1.279 . S
O292 Cd282 2.297 . S
O292 C287 1.247 . S
O293 Cd282 2.439 . S
O293 C287 1.208 . S
O294 Cd295 2.223 . S
O294 C302 1.315 . S
Cd295 O294 2.223 . S
Cd295 O298 2.295 . S
Cd295 O299 2.439 . S
Cd295 O305 2.240 . S
Cd296 O297 2.240 . S
Cd296 O304 2.223 . S
Cd296 O306 2.297 . S
Cd296 O307 2.439 . S
O297 Cd296 2.240 . S
O297 C302 1.279 . S
O298 Cd295 2.295 . S
O298 C300 1.243 . S
O299 Cd295 2.439 . S
O299 C300 1.208 . S
C300 O298 1.243 . S
C300 O299 1.208 . S
C301 O306 1.247 . S
C301 O307 1.208 . S
C302 O294 1.315 . S
C302 O297 1.279 . S
C303 O304 1.315 . S
C303 O305 1.279 . S
O304 Cd296 2.223 . S
O304 C303 1.315 . S
O305 Cd295 2.240 . S
O305 C303 1.279 . S
O306 Cd296 2.297 . S
O306 C301 1.247 . S
O307 Cd296 2.439 . S
O307 C301 1.208 . S
O308 Cd309 2.223 . S
O308 C316 1.315 . S
Cd309 O308 2.223 . S
Cd309 O312 2.295 . S
Cd309 O313 2.439 . S
Cd309 O319 2.240 . S
Cd310 O311 2.240 . S
Cd310 O318 2.223 . S
Cd310 O320 2.297 . S
Cd310 O321 2.439 . S
O311 Cd310 2.240 . S
O311 C316 1.279 . S
O312 Cd309 2.295 . S
O312 C314 1.243 . S
O313 Cd309 2.439 . S
O313 C314 1.208 . S
C314 O312 1.243 . S
C314 O313 1.208 . S
C315 O320 1.247 . S
C315 O321 1.208 . S
C316 O308 1.315 . S
C316 O311 1.279 . S
C317 O318 1.315 . S
C317 O319 1.279 . S
O318 Cd310 2.223 . S
O318 C317 1.315 . S
O319 Cd309 2.240 . S
O319 C317 1.279 . S
O320 Cd310 2.297 . S
O320 C315 1.247 . S
O321 Cd310 2.439 . S
O321 C315 1.208 . S
O322 Cd323 2.223 . S
O322 C330 1.315 . S
Cd323 O322 2.223 . S
Cd323 O326 2.296 . S
Cd323 O327 2.439 . S
Cd323 O333 2.240 . S
Cd324 O325 2.240 . S
Cd324 O332 2.223 . S
Cd324 O334 2.297 . S
Cd324 O335 2.439 . S
O325 Cd324 2.240 . S
O325 C330 1.279 . S
O326 Cd323 2.296 . S
O326 C328 1.244 . S
O327 Cd323 2.439 . S
O327 C328 1.208 . S
C328 O326 1.244 . S
C328 O327 1.208 . S
C329 O334 1.247 . S
C329 O335 1.208 . S
C330 O322 1.315 . S
C330 O325 1.279 . S
C331 O332 1.315 . S
C331 O333 1.279 . S
O332 Cd324 2.223 . S
O332 C331 1.315 . S
O333 Cd323 2.240 . S
O333 C331 1.279 . S
O334 Cd324 2.297 . S
O334 C329 1.247 . S
O335 Cd324 2.439 . S
O335 C329 1.208 . S
O336 Cd337 2.223 . S
O336 C344 1.315 . S
Cd337 O336 2.223 . S
Cd337 O340 2.297 . S
Cd337 O341 2.439 . S
Cd337 O347 2.240 . S
Cd338 O339 2.240 . S
Cd338 O346 2.223 . S
Cd338 O348 2.297 . S
Cd338 O349 2.439 . S
O339 Cd338 2.240 . S
O339 C344 1.279 . S
O340 Cd337 2.297 . S
O340 C342 1.247 . S
O341 Cd337 2.439 . S
O341 C342 1.208 . S
C342 O340 1.247 . S
C342 O341 1.208 . S
C343 O348 1.247 . S
C343 O349 1.208 . S
C344 O336 1.315 . S
C344 O339 1.279 . S
C345 O346 1.315 . S
C345 O347 1.279 . S
O346 Cd338 2.223 . S
O346 C345 1.315 . S
O347 Cd337 2.240 . S
O347 C345 1.279 . S
O348 Cd338 2.297 . S
O348 C343 1.247 . S
O349 Cd338 2.439 . S
O349 C343 1.208 . S
O350 Cd351 2.223 . S
O350 C358 1.315 . S
Cd351 O350 2.223 . S
Cd351 O354 2.297 . S
Cd351 O355 2.439 . S
Cd351 O361 2.240 . S
Cd352 O353 2.240 . S
Cd352 O360 2.223 . S
Cd352 O362 2.297 . S
Cd352 O363 2.439 . S
O353 Cd352 2.240 . S
O353 C358 1.279 . S
O354 Cd351 2.297 . S
O354 C356 1.247 . S
O355 Cd351 2.439 . S
O355 C356 1.208 . S
C356 O354 1.247 . S
C356 O355 1.208 . S
C357 O362 1.247 . S
C357 O363 1.208 . S
C358 O350 1.315 . S
C358 O353 1.279 . S
C359 O360 1.315 . S
C359 O361 1.279 . S
O360 Cd352 2.223 . S
O360 C359 1.315 . S
O361 Cd351 2.240 . S
O361 C359 1.279 . S
O362 Cd352 2.297 . S
O362 C357 1.247 . S
O363 Cd352 2.439 . S
O363 C357 1.208 . S
O364 Cd365 2.223 . S
O364 C372 1.315 . S
Cd365 O364 2.223 . S
Cd365 O368 2.297 . S
Cd365 O369 2.439 . S
Cd365 O375 2.240 . S
Cd366 O367 2.240 . S
Cd366 O374 2.223 . S
Cd366 O376 2.297 . S
Cd366 O377 2.439 . S
O367 Cd366 2.240 . S
O367 C372 1.279 . S
O368 Cd365 2.297 . S
O368 C370 1.247 . S
O369 Cd365 2.439 . S
O369 C370 1.208 . S
C370 O368 1.247 . S
C370 O369 1.208 . S
C371 O376 1.247 . S
C371 O377 1.208 . S
C372 O364 1.315 . S
C372 O367 1.279 . S
C373 O374 1.315 . S
C373 O375 1.279 . S
O374 Cd366 2.223 . S
O374 C373 1.315 . S
O375 Cd365 2.240 . S
O375 C373 1.279 . S
O376 Cd366 2.297 . S
O376 C371 1.247 . S
O377 Cd366 2.439 . S
O377 C371 1.208 . S
O378 Cd379 2.223 . S
O378 C386 1.315 . S
Cd379 O378 2.223 . S
Cd379 O382 2.295 . S
Cd379 O383 2.439 . S
Cd379 O389 2.240 . S
Cd380 O381 2.240 . S
Cd380 O388 2.223 . S
Cd380 O390 2.297 . S
Cd380 O391 2.439 . S
O381 Cd380 2.240 . S
O381 C386 1.279 . S
O382 Cd379 2.295 . S
O382 C384 1.243 . S
O383 Cd379 2.439 . S
O383 C384 1.208 . S
C384 O382 1.243 . S
C384 O383 1.208 . S
C385 O390 1.247 . S
C385 O391 1.208 . S
C386 O378 1.315 . S
C386 O381 1.279 . S
C387 O388 1.315 . S
C387 O389 1.279 . S
O388 Cd380 2.223 . S
O388 C387 1.315 . S
O389 Cd379 2.240 . S
O389 C387 1.279 . S
O390 Cd380 2.297 . S
O390 C385 1.247 . S
O391 Cd380 2.439 . S
O391 C385 1.208 . S
O392 Cd393 2.223 . S
O392 C400 1.315 . S
Cd393 O392 2.223 . S
Cd393 O396 2.295 . S
Cd393 O397 2.439 . S
Cd393 O403 2.240 . S
Cd394 O395 2.240 . S
Cd394 O402 2.223 . S
Cd394 O404 2.297 . S
Cd394 O405 2.439 . S
O395 Cd394 2.240 . S
O395 C400 1.279 . S
O396 Cd393 2.295 . S
O396 C398 1.243 . S
O397 Cd393 2.439 . S
O397 C398 1.208 . S
C398 O396 1.243 . S
C398 O397 1.208 . S
C399 O404 1.247 . S
C399 O405 1.208 . S
C400 O392 1.315 . S
C400 O395 1.279 . S
C401 O402 1.315 . S
C401 O403 1.279 . S
O402 Cd394 2.223 . S
O402 C401 1.315 . S
O403 Cd393 2.240 . S
O403 C401 1.279 . S
O404 Cd394 2.297 . S
O404 C399 1.247 . S
O405 Cd394 2.439 . S
O405 C399 1.208 . S
O406 Cd407 2.223 . S
O406 C414 1.315 . S
Cd407 O406 2.223 . S
Cd407 O410 2.296 . S
Cd407 O411 2.439 . S
Cd407 O417 2.240 . S
Cd408 O409 2.240 . S
Cd408 O416 2.223 . S
Cd408 O418 2.297 . S
Cd408 O419 2.439 . S
O409 Cd408 2.240 . S
O409 C414 1.279 . S
O410 Cd407 2.296 . S
O410 C412 1.244 . S
O411 Cd407 2.439 . S
O411 C412 1.208 . S
C412 O410 1.244 . S
C412 O411 1.208 . S
C413 O418 1.247 . S
C413 O419 1.208 . S
C414 O406 1.315 . S
C414 O409 1.279 . S
C415 O416 1.315 . S
C415 O417 1.279 . S
O416 Cd408 2.223 . S
O416 C415 1.315 . S
O417 Cd407 2.240 . S
O417 C415 1.279 . S
O418 Cd408 2.297 . S
O418 C413 1.247 . S
O419 Cd408 2.439 . S
O419 C413 1.208 . S
O420 Cd421 2.223 . S
O420 C428 1.315 . S
Cd421 O420 2.223 . S
Cd421 O424 2.297 . S
Cd421 O425 2.439 . S
Cd421 O431 2.240 . S
Cd422 O423 2.240 . S
Cd422 O430 2.223 . S
Cd422 O432 2.297 . S
Cd422 O433 2.439 . S
O423 Cd422 2.240 . S
O423 C428 1.279 . S
O424 Cd421 2.297 . S
O424 C426 1.247 . S
O425 Cd421 2.439 . S
O425 C426 1.208 . S
C426 O424 1.247 . S
C426 O425 1.208 . S
C427 O432 1.247 . S
C427 O433 1.208 . S
C428 O420 1.315 . S
C428 O423 1.279 . S
C429 O430 1.315 . S
C429 O431 1.279 . S
O430 Cd422 2.223 . S
O430 C429 1.315 . S
O431 Cd421 2.240 . S
O431 C429 1.279 . S
O432 Cd422 2.297 . S
O432 C427 1.247 . S
O433 Cd422 2.439 . S
O433 C427 1.208 . S
O434 Cd435 2.223 . S
O434 C442 1.315 . S
Cd435 O434 2.223 . S
Cd435 O438 2.297 . S
Cd435 O439 2.439 . S
Cd435 O445 2.240 . S
Cd436 O437 2.240 . S
Cd436 O444 2.223 . S
Cd436 O446 2.297 . S
Cd436 O447 2.439 . S
O437 Cd436 2.240 . S
O437 C442 1.279 . S
O438 Cd435 2.297 . S
O438 C440 1.247 . S
O439 Cd435 2.439 . S
O439 C440 1.208 . S
C440 O438 1.247 . S
C440 O439 1.208 . S
C441 O446 1.247 . S
C441 O447 1.208 . S
C442 O434 1.315 . S
C442 O437 1.279 . S
C443 O444 1.315 . S
C443 O445 1.279 . S
O444 Cd436 2.223 . S
O444 C443 1.315 . S
O445 Cd435 2.240 . S
O445 C443 1.279 . S
O446 Cd436 2.297 . S
O446 C441 1.247 . S
O447 Cd436 2.439 . S
O447 C441 1.208 . S
O448 Cd449 2.223 . S
O448 C456 1.315 . S
Cd449 O448 2.223 . S
Cd449 O452 2.297 . S
Cd449 O453 2.439 . S
Cd449 O459 2.240 . S
Cd450 O451 2.240 . S
Cd450 O458 2.223 . S
Cd450 O460 2.297 . S
Cd450 O461 2.439 . S
O451 Cd450 2.240 . S
O451 C456 1.279 . S
O452 Cd449 2.297 . S
O452 C454 1.247 . S
O453 Cd449 2.439 . S
O453 C454 1.208 . S
C454 O452 1.247 . S
C454 O453 1.208 . S
C455 O460 1.247 . S
C455 O461 1.208 . S
C456 O448 1.315 . S
C456 O451 1.279 . S
C457 O458 1.315 . S
C457 O459 1.279 . S
O458 Cd450 2.223 . S
O458 C457 1.315 . S
O459 Cd449 2.240 . S
O459 C457 1.279 . S
O460 Cd450 2.297 . S
O460 C455 1.247 . S
O461 Cd450 2.439 . S
O461 C455 1.208 . S
O462 Cd463 2.223 . S
O462 C470 1.315 . S
Cd463 O462 2.223 . S
Cd463 O466 2.297 . S
Cd463 O467 2.439 . S
Cd463 O473 2.240 . S
Cd464 O465 2.240 . S
Cd464 O472 2.223 . S
Cd464 O474 2.297 . S
Cd464 O475 2.439 . S
O465 Cd464 2.240 . S
O465 C470 1.279 . S
O466 Cd463 2.297 . S
O466 C468 1.247 . S
O467 Cd463 2.439 . S
O467 C468 1.208 . S
C468 O466 1.247 . S
C468 O467 1.208 . S
C469 O474 1.247 . S
C469 O475 1.208 . S
C470 O462 1.315 . S
C470 O465 1.279 . S
C471 O472 1.315 . S
C471 O473 1.279 . S
O472 Cd464 2.223 . S
O472 C471 1.315 . S
O473 Cd463 2.240 . S
O473 C471 1.279 . S
O474 Cd464 2.297 . S
O474 C469 1.247 . S
O475 Cd464 2.439 . S
O475 C469 1.208 . S
O476 Cd477 2.223 . S
O476 C484 1.315 . S
Cd477 O476 2.223 . S
Cd477 O480 2.297 . S
Cd477 O481 2.439 . S
Cd477 O487 2.240 . S
Cd478 O479 2.240 . S
Cd478 O486 2.223 . S
Cd478 O488 2.297 . S
Cd478 O489 2.439 . S
O479 Cd478 2.240 . S
O479 C484 1.279 . S
O480 Cd477 2.297 . S
O480 C482 1.247 . S
O481 Cd477 2.439 . S
O481 C482 1.208 . S
C482 O480 1.247 . S
C482 O481 1.208 . S
C483 O488 1.247 . S
C483 O489 1.208 . S
C484 O476 1.315 . S
C484 O479 1.279 . S
C485 O486 1.315 . S
C485 O487 1.279 . S
O486 Cd478 2.223 . S
O486 C485 1.315 . S
O487 Cd477 2.240 . S
O487 C485 1.279 . S
O488 Cd478 2.297 . S
O488 C483 1.247 . S
O489 Cd478 2.439 . S
O489 C483 1.208 . S
O490 Cd491 2.223 . S
O490 C498 1.315 . S
Cd491 O490 2.223 . S
Cd491 O494 2.297 . S
Cd491 O495 2.439 . S
Cd491 O501 2.240 . S
Cd492 O493 2.240 . S
Cd492 O500 2.223 . S
Cd492 O502 2.297 . S
Cd492 O503 2.439 . S
O493 Cd492 2.240 . S
O493 C498 1.279 . S
O494 Cd491 2.297 . S
O494 C496 1.247 . S
O495 Cd491 2.439 . S
O495 C496 1.208 . S
C496 O494 1.247 . S
C496 O495 1.208 . S
C497 O502 1.247 . S
C497 O503 1.208 . S
C498 O490 1.315 . S
C498 O493 1.279 . S
C499 O500 1.315 . S
C499 O501 1.279 . S
O500 Cd492 2.223 . S
O500 C499 1.315 . S
O501 Cd491 2.240 . S
O501 C499 1.279 . S
O502 Cd492 2.297 . S
O502 C497 1.247 . S
O503 Cd492 2.439 . S
O503 C497 1.208 . S
H504 C516 0.930 . S
H505 C518 0.930 . S
H506 C519 0.930 . S
H507 C523 0.959 . S
H508 C523 0.959 1_655 S
H509 C523 0.961 . S
H510 C524 0.960 . S
H511 C524 0.960 1_655 S
H512 C524 0.959 . S
H513 C527 0.929 . S
H514 C528 0.931 . S
H515 C530 0.930 . S
C516 H504 0.930 . S
C516 C517 1.399 . S
C516 C521 1.399 . S
C517 C516 1.399 . S
C517 C518 1.376 . S
C518 H505 0.930 . S
C518 C517 1.376 . S
C518 C519 1.388 . S
C519 H506 0.930 . S
C519 C518 1.388 . S
C519 C520 1.390 . S
C520 C519 1.390 . S
C520 C521 1.394 . S
C520 C526 1.465 1_455 S
C521 C516 1.399 . S
C521 C520 1.394 . S
C521 C522 1.516 . S
C522 C521 1.516 . S
C522 C523 1.502 . S
C522 C524 1.561 . S
C522 C525 1.526 1_455 S
C523 H507 0.959 . S
C523 H508 0.959 1_455 S
C523 H509 0.961 . S
C523 C522 1.502 . S
C524 H510 0.960 . S
C524 H511 0.960 1_455 S
C524 H512 0.959 . S
C524 C522 1.561 . S
C525 C522 1.526 1_655 S
C525 C526 1.396 . S
C525 C530 1.390 . S
C526 C520 1.465 1_655 S
C526 C525 1.396 . S
C526 C527 1.399 . S
C527 H513 0.929 . S
C527 C526 1.399 . S
C527 C528 1.385 . S
C528 H514 0.931 . S
C528 C527 1.385 . S
C528 C529 1.389 . S
C529 C528 1.389 . S
C529 C530 1.387 . S
C530 H515 0.930 . S
C530 C525 1.390 . S
C530 C529 1.387 . S
H531 C543 0.930 . S
H532 C545 0.930 . S
H533 C546 0.930 . S
H534 C550 0.959 . S
H535 C550 0.959 . S
H536 C550 0.961 . S
H537 C551 0.960 . S
H538 C551 0.961 . S
H539 C551 0.959 . S
H540 C554 0.929 . S
H541 C555 0.931 . S
H542 C557 0.930 . S
C543 H531 0.930 . S
C543 C544 1.399 . S
C543 C548 1.399 . S
C544 C543 1.399 . S
C544 C545 1.376 . S
C545 H532 0.930 . S
C545 C544 1.376 . S
C545 C546 1.388 . S
C546 H533 0.930 . S
C546 C545 1.388 . S
C546 C547 1.390 . S
C547 C546 1.390 . S
C547 C548 1.394 . S
C547 C553 1.465 . S
C548 C543 1.399 . S
C548 C547 1.394 . S
C548 C549 1.516 . S
C549 C548 1.516 . S
C549 C550 1.502 . S
C549 C551 1.561 . S
C549 C552 1.526 . S
C550 H534 0.959 . S
C550 H535 0.959 . S
C550 H536 0.961 . S
C550 C549 1.502 . S
C551 H537 0.960 . S
C551 H538 0.961 . S
C551 H539 0.959 . S
C551 C549 1.561 . S
C552 C549 1.526 . S
C552 C553 1.396 . S
C552 C557 1.390 . S
C553 C547 1.465 . S
C553 C552 1.396 . S
C553 C554 1.399 . S
C554 H540 0.929 . S
C554 C553 1.399 . S
C554 C555 1.385 . S
C555 H541 0.931 . S
C555 C554 1.385 . S
C555 C556 1.389 . S
C556 C555 1.389 . S
C556 C557 1.387 . S
C557 H542 0.930 . S
C557 C552 1.390 . S
C557 C556 1.387 . S
H558 C570 0.930 . S
H559 C572 0.930 . S
H560 C573 0.930 . S
H561 C577 0.959 . S
H562 C577 0.959 . S
H563 C577 0.961 1_545 S
H564 C578 0.960 1_545 S
H565 C578 0.961 . S
H566 C578 0.959 . S
H567 C581 0.929 . S
H568 C582 0.931 . S
H569 C584 0.930 . S
C570 H558 0.930 . S
C570 C571 1.399 . S
C570 C575 1.399 . S
C571 C570 1.399 . S
C571 C572 1.376 . S
C572 H559 0.930 . S
C572 C571 1.376 . S
C572 C573 1.388 . S
C573 H560 0.930 . S
C573 C572 1.388 . S
C573 C574 1.390 . S
C574 C573 1.390 . S
C574 C575 1.394 . S
C574 C580 1.465 1_545 S
C575 C570 1.399 . S
C575 C574 1.394 . S
C575 C576 1.516 1_545 S
C576 C575 1.516 1_565 S
C576 C577 1.502 . S
C576 C578 1.561 . S
C576 C579 1.526 . S
C577 H561 0.959 . S
C577 H562 0.959 . S
C577 H563 0.961 1_565 S
C577 C576 1.502 . S
C578 H564 0.960 1_565 S
C578 H565 0.961 . S
C578 H566 0.959 . S
C578 C576 1.561 . S
C579 C576 1.526 . S
C579 C580 1.396 . S
C579 C584 1.390 . S
C580 C574 1.465 1_565 S
C580 C579 1.396 . S
C580 C581 1.399 . S
C581 H567 0.929 . S
C581 C580 1.399 . S
C581 C582 1.385 . S
C582 H568 0.931 . S
C582 C581 1.385 . S
C582 C583 1.389 . S
C583 C582 1.389 . S
C583 C584 1.387 . S
C584 H569 0.930 . S
C584 C579 1.390 . S
C584 C583 1.387 . S
H585 C597 0.930 . S
H586 C599 0.930 . S
H587 C600 0.930 . S
H588 C604 0.959 . S
H589 C604 0.959 1_565 S
H590 C604 0.961 . S
H591 C605 0.960 . S
H592 C605 0.961 1_565 S
H593 C605 0.959 . S
H594 C608 0.929 . S
H595 C609 0.931 . S
H596 C611 0.930 . S
C597 H585 0.930 . S
C597 C598 1.399 . S
C597 C602 1.399 . S
C598 C597 1.399 . S
C598 C599 1.376 . S
C599 H586 0.930 . S
C599 C598 1.376 . S
C599 C600 1.388 . S
C600 H587 0.930 . S
C600 C599 1.388 . S
C600 C601 1.390 . S
C601 C600 1.390 . S
C601 C602 1.394 . S
C601 C607 1.465 1_545 S
C602 C597 1.399 . S
C602 C601 1.394 . S
C602 C603 1.516 . S
C603 C602 1.516 . S
C603 C604 1.502 . S
C603 C605 1.561 . S
C603 C606 1.526 1_545 S
C604 H588 0.959 . S
C604 H589 0.959 1_545 S
C604 H590 0.961 . S
C604 C603 1.502 . S
C605 H591 0.960 . S
C605 H592 0.961 1_545 S
C605 H593 0.959 . S
C605 C603 1.561 . S
C606 C603 1.526 1_565 S
C606 C607 1.396 . S
C606 C611 1.390 . S
C607 C601 1.465 1_565 S
C607 C606 1.396 . S
C607 C608 1.399 . S
C608 H594 0.929 . S
C608 C607 1.399 . S
C608 C609 1.385 . S
C609 H595 0.931 . S
C609 C608 1.385 . S
C609 C610 1.389 . S
C610 C609 1.389 . S
C610 C611 1.387 . S
C611 H596 0.930 . S
C611 C606 1.390 . S
C611 C610 1.387 . S
H612 C624 0.930 . S
H613 C626 0.930 . S
H614 C627 0.930 . S
H615 C631 0.959 . S
H616 C631 0.959 1_455 S
H617 C631 0.961 . S
H618 C632 0.960 . S
H619 C632 0.961 1_455 S
H620 C632 0.959 . S
H621 C635 0.929 . S
H622 C636 0.931 . S
H623 C638 0.930 . S
C624 H612 0.930 . S
C624 C625 1.399 . S
C624 C629 1.399 . S
C625 C624 1.399 . S
C625 C626 1.376 . S
C626 H613 0.930 . S
C626 C625 1.376 . S
C626 C627 1.388 . S
C627 H614 0.930 . S
C627 C626 1.388 . S
C627 C628 1.390 . S
C628 C627 1.390 . S
C628 C629 1.394 . S
C628 C634 1.465 1_655 S
C629 C624 1.399 . S
C629 C628 1.394 . S
C629 C630 1.516 . S
C630 C629 1.516 . S
C630 C631 1.502 . S
C630 C632 1.561 . S
C630 C633 1.526 1_655 S
C631 H615 0.959 . S
C631 H616 0.959 1_655 S
C631 H617 0.961 . S
C631 C630 1.502 . S
C632 H618 0.960 . S
C632 H619 0.961 1_655 S
C632 H620 0.959 . S
C632 C630 1.561 . S
C633 C630 1.526 1_455 S
C633 C634 1.396 . S
C633 C638 1.390 . S
C634 C628 1.465 1_455 S
C634 C633 1.396 . S
C634 C635 1.399 . S
C635 H621 0.929 . S
C635 C634 1.399 . S
C635 C636 1.385 . S
C636 H622 0.931 . S
C636 C635 1.385 . S
C636 C637 1.389 . S
C637 C636 1.389 . S
C637 C638 1.387 . S
C638 H623 0.930 . S
C638 C633 1.390 . S
C638 C637 1.387 . S
H639 C651 0.930 . S
H640 C653 0.930 . S
H641 C654 0.930 . S
H642 C658 0.959 . S
H643 C658 0.959 . S
H644 C658 0.961 . S
H645 C659 0.960 . S
H646 C659 0.961 . S
H647 C659 0.959 . S
H648 C662 0.929 . S
H649 C663 0.931 . S
H650 C665 0.930 . S
C651 H639 0.930 . S
C651 C652 1.399 . S
C651 C656 1.399 . S
C652 C651 1.399 . S
C652 C653 1.376 . S
C653 H640 0.930 . S
C653 C652 1.376 . S
C653 C654 1.388 . S
C654 H641 0.930 . S
C654 C653 1.388 . S
C654 C655 1.390 . S
C655 C654 1.390 . S
C655 C656 1.394 . S
C655 C661 1.465 . S
C656 C651 1.399 . S
C656 C655 1.394 . S
C656 C657 1.516 . S
C657 C656 1.516 . S
C657 C658 1.502 . S
C657 C659 1.561 . S
C657 C660 1.526 . S
C658 H642 0.959 . S
C658 H643 0.959 . S
C658 H644 0.961 . S
C658 C657 1.502 . S
C659 H645 0.960 . S
C659 H646 0.961 . S
C659 H647 0.959 . S
C659 C657 1.561 . S
C660 C657 1.526 . S
C660 C661 1.396 . S
C660 C665 1.390 . S
C661 C655 1.465 . S
C661 C660 1.396 . S
C661 C662 1.399 . S
C662 H648 0.929 . S
C662 C661 1.399 . S
C662 C663 1.385 . S
C663 H649 0.931 . S
C663 C662 1.385 . S
C663 C664 1.389 . S
C664 C663 1.389 . S
C664 C665 1.387 . S
C665 H650 0.930 . S
C665 C660 1.390 . S
C665 C664 1.387 . S
H666 C678 0.930 . S
H667 C680 0.930 . S
H668 C681 0.930 . S
H669 C685 0.959 . S
H670 C685 0.959 1_455 S
H671 C685 0.961 . S
H672 C686 0.960 . S
H673 C686 0.961 1_455 S
H674 C686 0.959 . S
H675 C689 0.929 . S
H676 C690 0.931 . S
H677 C692 0.930 . S
C678 H666 0.930 . S
C678 C679 1.399 . S
C678 C683 1.399 . S
C679 C678 1.399 . S
C679 C680 1.376 . S
C680 H667 0.930 . S
C680 C679 1.376 . S
C680 C681 1.388 . S
C681 H668 0.930 . S
C681 C680 1.388 . S
C681 C682 1.390 . S
C682 C681 1.390 . S
C682 C683 1.394 . S
C682 C688 1.465 1_655 S
C683 C678 1.399 . S
C683 C682 1.394 . S
C683 C684 1.516 . S
C684 C683 1.516 . S
C684 C685 1.502 . S
C684 C686 1.561 . S
C684 C687 1.526 1_655 S
C685 H669 0.959 . S
C685 H670 0.959 1_655 S
C685 H671 0.961 . S
C685 C684 1.502 . S
C686 H672 0.960 . S
C686 H673 0.961 1_655 S
C686 H674 0.959 . S
C686 C684 1.561 . S
C687 C684 1.526 1_455 S
C687 C688 1.396 . S
C687 C692 1.390 . S
C688 C682 1.465 1_455 S
C688 C687 1.396 . S
C688 C689 1.399 . S
C689 H675 0.929 . S
C689 C688 1.399 . S
C689 C690 1.385 . S
C690 H676 0.931 . S
C690 C689 1.385 . S
C690 C691 1.389 . S
C691 C690 1.389 . S
C691 C692 1.387 . S
C692 H677 0.930 . S
C692 C687 1.390 . S
C692 C691 1.387 . S
H693 C705 0.930 . S
H694 C707 0.930 . S
H695 C708 0.930 . S
H696 C712 0.959 . S
H697 C712 0.959 . S
H698 C712 0.961 . S
H699 C713 0.960 . S
H700 C713 0.961 . S
H701 C713 0.959 . S
H702 C716 0.929 . S
H703 C717 0.931 . S
H704 C719 0.930 . S
C705 H693 0.930 . S
C705 C706 1.399 . S
C705 C710 1.399 . S
C706 C705 1.399 . S
C706 C707 1.376 . S
C707 H694 0.930 . S
C707 C706 1.376 . S
C707 C708 1.388 . S
C708 H695 0.930 . S
C708 C707 1.388 . S
C708 C709 1.390 . S
C709 C708 1.390 . S
C709 C710 1.394 . S
C709 C715 1.465 . S
C710 C705 1.399 . S
C710 C709 1.394 . S
C710 C711 1.516 . S
C711 C710 1.516 . S
C711 C712 1.502 . S
C711 C713 1.561 . S
C711 C714 1.526 . S
C712 H696 0.959 . S
C712 H697 0.959 . S
C712 H698 0.961 . S
C712 C711 1.502 . S
C713 H699 0.960 . S
C713 H700 0.961 . S
C713 H701 0.959 . S
C713 C711 1.561 . S
C714 C711 1.526 . S
C714 C715 1.396 . S
C714 C719 1.390 . S
C715 C709 1.465 . S
C715 C714 1.396 . S
C715 C716 1.399 . S
C716 H702 0.929 . S
C716 C715 1.399 . S
C716 C717 1.385 . S
C717 H703 0.931 . S
C717 C716 1.385 . S
C717 C718 1.389 . S
C718 C717 1.389 . S
C718 C719 1.387 . S
C719 H704 0.930 . S
C719 C714 1.390 . S
C719 C718 1.387 . S
H720 C732 0.930 . S
H721 C734 0.930 . S
H722 C735 0.930 . S
H723 C739 0.959 . S
H724 C739 0.959 . S
H725 C739 0.961 1_565 S
H726 C740 0.960 1_565 S
H727 C740 0.961 . S
H728 C740 0.959 . S
H729 C743 0.929 . S
H730 C744 0.931 . S
H731 C746 0.930 . S
C732 H720 0.930 . S
C732 C733 1.399 . S
C732 C737 1.399 . S
C733 C732 1.399 . S
C733 C734 1.376 . S
C734 H721 0.930 . S
C734 C733 1.376 . S
C734 C735 1.388 . S
C735 H722 0.930 . S
C735 C734 1.388 . S
C735 C736 1.390 . S
C736 C735 1.390 . S
C736 C737 1.394 . S
C736 C742 1.465 1_565 S
C737 C732 1.399 . S
C737 C736 1.394 . S
C737 C738 1.516 1_565 S
C738 C737 1.516 1_545 S
C738 C739 1.502 . S
C738 C740 1.561 . S
C738 C741 1.526 . S
C739 H723 0.959 . S
C739 H724 0.959 . S
C739 H725 0.961 1_545 S
C739 C738 1.502 . S
C740 H726 0.960 1_545 S
C740 H727 0.961 . S
C740 H728 0.959 . S
C740 C738 1.561 . S
C741 C738 1.526 . S
C741 C742 1.396 . S
C741 C746 1.390 . S
C742 C736 1.465 1_545 S
C742 C741 1.396 . S
C742 C743 1.399 . S
C743 H729 0.929 . S
C743 C742 1.399 . S
C743 C744 1.385 . S
C744 H730 0.931 . S
C744 C743 1.385 . S
C744 C745 1.389 . S
C745 C744 1.389 . S
C745 C746 1.387 . S
C746 H731 0.930 . S
C746 C741 1.390 . S
C746 C745 1.387 . S
H747 C759 0.930 . S
H748 C761 0.930 . S
H749 C762 0.930 . S
H750 C766 0.959 . S
H751 C766 0.959 . S
H752 C766 0.961 1_545 S
H753 C767 0.960 1_545 S
H754 C767 0.961 . S
H755 C767 0.959 . S
H756 C770 0.929 . S
H757 C771 0.931 . S
H758 C773 0.930 . S
C759 H747 0.930 . S
C759 C760 1.399 . S
C759 C764 1.399 . S
C760 C759 1.399 . S
C760 C761 1.376 . S
C761 H748 0.930 . S
C761 C760 1.376 . S
C761 C762 1.388 . S
C762 H749 0.930 . S
C762 C761 1.388 . S
C762 C763 1.390 . S
C763 C762 1.390 . S
C763 C764 1.394 . S
C763 C769 1.465 1_545 S
C764 C759 1.399 . S
C764 C763 1.394 . S
C764 C765 1.516 1_545 S
C765 C764 1.516 1_565 S
C765 C766 1.502 . S
C765 C767 1.561 . S
C765 C768 1.526 . S
C766 H750 0.959 . S
C766 H751 0.959 . S
C766 H752 0.961 1_565 S
C766 C765 1.502 . S
C767 H753 0.960 1_565 S
C767 H754 0.961 . S
C767 H755 0.959 . S
C767 C765 1.561 . S
C768 C765 1.526 . S
C768 C769 1.396 . S
C768 C773 1.390 . S
C769 C763 1.465 1_565 S
C769 C768 1.396 . S
C769 C770 1.399 . S
C770 H756 0.929 . S
C770 C769 1.399 . S
C770 C771 1.385 . S
C771 H757 0.931 . S
C771 C770 1.385 . S
C771 C772 1.389 . S
C772 C771 1.389 . S
C772 C773 1.387 . S
C773 H758 0.930 . S
C773 C768 1.390 . S
C773 C772 1.387 . S
H774 C786 0.930 . S
H775 C788 0.930 . S
H776 C789 0.930 . S
H777 C793 0.959 . S
H778 C793 0.959 1_655 S
H779 C793 0.961 . S
H780 C794 0.960 . S
H781 C794 0.961 1_655 S
H782 C794 0.959 . S
H783 C797 0.929 . S
H784 C798 0.931 . S
H785 C800 0.930 . S
C786 H774 0.930 . S
C786 C787 1.399 . S
C786 C791 1.399 . S
C787 C786 1.399 . S
C787 C788 1.376 . S
C788 H775 0.930 . S
C788 C787 1.376 . S
C788 C789 1.388 . S
C789 H776 0.930 . S
C789 C788 1.388 . S
C789 C790 1.390 . S
C790 C789 1.390 . S
C790 C791 1.394 . S
C790 C796 1.465 1_455 S
C791 C786 1.399 . S
C791 C790 1.394 . S
C791 C792 1.516 . S
C792 C791 1.516 . S
C792 C793 1.502 . S
C792 C794 1.561 . S
C792 C795 1.526 1_455 S
C793 H777 0.959 . S
C793 H778 0.959 1_455 S
C793 H779 0.961 . S
C793 C792 1.502 . S
C794 H780 0.960 . S
C794 H781 0.961 1_455 S
C794 H782 0.959 . S
C794 C792 1.561 . S
C795 C792 1.526 1_655 S
C795 C796 1.396 . S
C795 C800 1.390 . S
C796 C790 1.465 1_655 S
C796 C795 1.396 . S
C796 C797 1.399 . S
C797 H783 0.929 . S
C797 C796 1.399 . S
C797 C798 1.385 . S
C798 H784 0.931 . S
C798 C797 1.385 . S
C798 C799 1.389 . S
C799 C798 1.389 . S
C799 C800 1.387 . S
C800 H785 0.930 . S
C800 C795 1.390 . S
C800 C799 1.387 . S
H801 C813 0.930 . S
H802 C815 0.930 . S
H803 C816 0.930 . S
H804 C820 0.959 . S
H805 C820 0.959 . S
H806 C820 0.961 . S
H807 C821 0.960 . S
H808 C821 0.961 . S
H809 C821 0.959 . S
H810 C824 0.929 . S
H811 C825 0.931 . S
H812 C827 0.930 . S
C813 H801 0.930 . S
C813 C814 1.399 . S
C813 C818 1.399 . S
C814 C813 1.399 . S
C814 C815 1.376 . S
C815 H802 0.930 . S
C815 C814 1.376 . S
C815 C816 1.388 . S
C816 H803 0.930 . S
C816 C815 1.388 . S
C816 C817 1.390 . S
C817 C816 1.390 . S
C817 C818 1.394 . S
C817 C823 1.465 . S
C818 C813 1.399 . S
C818 C817 1.394 . S
C818 C819 1.516 . S
C819 C818 1.516 . S
C819 C820 1.502 . S
C819 C821 1.561 . S
C819 C822 1.526 . S
C820 H804 0.959 . S
C820 H805 0.959 . S
C820 H806 0.961 . S
C820 C819 1.502 . S
C821 H807 0.960 . S
C821 H808 0.961 . S
C821 H809 0.959 . S
C821 C819 1.561 . S
C822 C819 1.526 . S
C822 C823 1.396 . S
C822 C827 1.390 . S
C823 C817 1.465 . S
C823 C822 1.396 . S
C823 C824 1.399 . S
C824 H810 0.929 . S
C824 C823 1.399 . S
C824 C825 1.385 . S
C825 H811 0.931 . S
C825 C824 1.385 . S
C825 C826 1.389 . S
C826 C825 1.389 . S
C826 C827 1.387 . S
C827 H812 0.930 . S
C827 C822 1.390 . S
C827 C826 1.387 . S
H828 C840 0.930 . S
H829 C842 0.930 . S
H830 C843 0.930 . S
H831 C847 0.959 . S
H832 C847 0.959 . S
H833 C847 0.961 . S
H834 C848 0.960 . S
H835 C848 0.961 . S
H836 C848 0.959 . S
H837 C851 0.929 . S
H838 C852 0.931 . S
H839 C854 0.930 . S
C840 H828 0.930 . S
C840 C841 1.399 . S
C840 C845 1.399 . S
C841 C840 1.399 . S
C841 C842 1.376 . S
C842 H829 0.930 . S
C842 C841 1.376 . S
C842 C843 1.388 . S
C843 H830 0.930 . S
C843 C842 1.388 . S
C843 C844 1.390 . S
C844 C843 1.390 . S
C844 C845 1.394 . S
C844 C850 1.465 . S
C845 C840 1.399 . S
C845 C844 1.394 . S
C845 C846 1.516 . S
C846 C845 1.516 . S
C846 C847 1.502 . S
C846 C848 1.561 . S
C846 C849 1.526 . S
C847 H831 0.959 . S
C847 H832 0.959 . S
C847 H833 0.961 . S
C847 C846 1.502 . S
C848 H834 0.960 . S
C848 H835 0.961 . S
C848 H836 0.959 . S
C848 C846 1.561 . S
C849 C846 1.526 . S
C849 C850 1.396 . S
C849 C854 1.390 . S
C850 C844 1.465 . S
C850 C849 1.396 . S
C850 C851 1.399 . S
C851 H837 0.929 . S
C851 C850 1.399 . S
C851 C852 1.385 . S
C852 H838 0.931 . S
C852 C851 1.385 . S
C852 C853 1.389 . S
C853 C852 1.389 . S
C853 C854 1.387 . S
C854 H839 0.930 . S
C854 C849 1.390 . S
C854 C853 1.387 . S
H855 C867 0.930 . S
H856 C869 0.930 . S
H857 C870 0.930 . S
H858 C874 0.959 . S
H859 C874 0.959 . S
H860 C874 0.961 . S
H861 C875 0.960 . S
H862 C875 0.961 . S
H863 C875 0.959 . S
H864 C878 0.929 . S
H865 C879 0.931 . S
H866 C881 0.930 . S
C867 H855 0.930 . S
C867 C868 1.399 . S
C867 C872 1.399 . S
C868 C867 1.399 . S
C868 C869 1.376 . S
C869 H856 0.930 . S
C869 C868 1.376 . S
C869 C870 1.388 . S
C870 H857 0.930 . S
C870 C869 1.388 . S
C870 C871 1.390 . S
C871 C870 1.390 . S
C871 C872 1.394 . S
C871 C877 1.465 . S
C872 C867 1.399 . S
C872 C871 1.394 . S
C872 C873 1.516 . S
C873 C872 1.516 . S
C873 C874 1.502 . S
C873 C875 1.561 . S
C873 C876 1.526 . S
C874 H858 0.959 . S
C874 H859 0.959 . S
C874 H860 0.961 . S
C874 C873 1.502 . S
C875 H861 0.960 . S
C875 H862 0.961 . S
C875 H863 0.959 . S
C875 C873 1.561 . S
C876 C873 1.526 . S
C876 C877 1.396 . S
C876 C881 1.390 . S
C877 C871 1.465 . S
C877 C876 1.396 . S
C877 C878 1.399 . S
C878 H864 0.929 . S
C878 C877 1.399 . S
C878 C879 1.385 . S
C879 H865 0.931 . S
C879 C878 1.385 . S
C879 C880 1.389 . S
C880 C879 1.389 . S
C880 C881 1.387 . S
C881 H866 0.930 . S
C881 C876 1.390 . S
C881 C880 1.387 . S
H882 C894 0.930 . S
H883 C896 0.930 . S
H884 C897 0.930 . S
H885 C901 0.959 . S
H886 C901 0.959 . S
H887 C901 0.961 . S
H888 C902 0.960 . S
H889 C902 0.961 . S
H890 C902 0.959 . S
H891 C905 0.929 . S
H892 C906 0.931 . S
H893 C908 0.930 . S
C894 H882 0.930 . S
C894 C895 1.399 . S
C894 C899 1.399 . S
C895 C894 1.399 . S
C895 C896 1.376 . S
C896 H883 0.930 . S
C896 C895 1.376 . S
C896 C897 1.388 . S
C897 H884 0.930 . S
C897 C896 1.388 . S
C897 C898 1.390 . S
C898 C897 1.390 . S
C898 C899 1.394 . S
C898 C904 1.465 . S
C899 C894 1.399 . S
C899 C898 1.394 . S
C899 C900 1.516 . S
C900 C899 1.516 . S
C900 C901 1.502 . S
C900 C902 1.561 . S
C900 C903 1.526 . S
C901 H885 0.959 . S
C901 H886 0.959 . S
C901 H887 0.961 . S
C901 C900 1.502 . S
C902 H888 0.960 . S
C902 H889 0.961 . S
C902 H890 0.959 . S
C902 C900 1.561 . S
C903 C900 1.526 . S
C903 C904 1.396 . S
C903 C908 1.390 . S
C904 C898 1.465 . S
C904 C903 1.396 . S
C904 C905 1.399 . S
C905 H891 0.929 . S
C905 C904 1.399 . S
C905 C906 1.385 . S
C906 H892 0.931 . S
C906 C905 1.385 . S
C906 C907 1.389 . S
C907 C906 1.389 . S
C907 C908 1.387 . S
C908 H893 0.930 . S
C908 C903 1.390 . S
C908 C907 1.387 . S
H909 C921 0.930 . S
H910 C923 0.930 . S
H911 C924 0.930 . S
H912 C928 0.959 . S
H913 C928 0.959 . S
H914 C928 0.961 . S
H915 C929 0.960 . S
H916 C929 0.961 . S
H917 C929 0.959 . S
H918 C932 0.929 . S
H919 C933 0.931 . S
H920 C935 0.930 . S
C921 H909 0.930 . S
C921 C922 1.399 . S
C921 C926 1.399 . S
C922 C921 1.399 . S
C922 C923 1.376 . S
C923 H910 0.930 . S
C923 C922 1.376 . S
C923 C924 1.388 . S
C924 H911 0.930 . S
C924 C923 1.388 . S
C924 C925 1.390 . S
C925 C924 1.390 . S
C925 C926 1.394 . S
C925 C931 1.465 . S
C926 C921 1.399 . S
C926 C925 1.394 . S
C926 C927 1.516 . S
C927 C926 1.516 . S
C927 C928 1.502 . S
C927 C929 1.561 . S
C927 C930 1.526 . S
C928 H912 0.959 . S
C928 H913 0.959 . S
C928 H914 0.961 . S
C928 C927 1.502 . S
C929 H915 0.960 . S
C929 H916 0.961 . S
C929 H917 0.959 . S
C929 C927 1.561 . S
C930 C927 1.526 . S
C930 C931 1.396 . S
C930 C935 1.390 . S
C931 C925 1.465 . S
C931 C930 1.396 . S
C931 C932 1.399 . S
C932 H918 0.929 . S
C932 C931 1.399 . S
C932 C933 1.385 . S
C933 H919 0.931 . S
C933 C932 1.385 . S
C933 C934 1.389 . S
C934 C933 1.389 . S
C934 C935 1.387 . S
C935 H920 0.930 . S
C935 C930 1.390 . S
C935 C934 1.387 . S
H936 C948 0.930 . S
H937 C950 0.930 . S
H938 C951 0.930 . S
H939 C955 0.959 . S
H940 C955 0.959 . S
H941 C955 0.961 . S
H942 C956 0.960 . S
H943 C956 0.961 . S
H944 C956 0.959 . S
H945 C959 0.929 . S
H946 C960 0.931 . S
H947 C962 0.930 . S
C948 H936 0.930 . S
C948 C949 1.399 . S
C948 C953 1.399 . S
C949 C948 1.399 . S
C949 C950 1.376 . S
C950 H937 0.930 . S
C950 C949 1.376 . S
C950 C951 1.388 . S
C951 H938 0.930 . S
C951 C950 1.388 . S
C951 C952 1.390 . S
C952 C951 1.390 . S
C952 C953 1.394 . S
C952 C958 1.465 . S
C953 C948 1.399 . S
C953 C952 1.394 . S
C953 C954 1.516 . S
C954 C953 1.516 . S
C954 C955 1.502 . S
C954 C956 1.561 . S
C954 C957 1.526 . S
C955 H939 0.959 . S
C955 H940 0.959 . S
C955 H941 0.961 . S
C955 C954 1.502 . S
C956 H942 0.960 . S
C956 H943 0.961 . S
C956 H944 0.959 . S
C956 C954 1.561 . S
C957 C954 1.526 . S
C957 C958 1.396 . S
C957 C962 1.390 . S
C958 C952 1.465 . S
C958 C957 1.396 . S
C958 C959 1.399 . S
C959 H945 0.929 . S
C959 C958 1.399 . S
C959 C960 1.385 . S
C960 H946 0.931 . S
C960 C959 1.385 . S
C960 C961 1.389 . S
C961 C960 1.389 . S
C961 C962 1.387 . S
C962 H947 0.930 . S
C962 C957 1.390 . S
C962 C961 1.387 . S
H963 C975 0.930 . S
H964 C977 0.930 . S
H965 C978 0.930 . S
H966 C982 0.959 . S
H967 C982 0.959 . S
H968 C982 0.961 . S
H969 C983 0.960 . S
H970 C983 0.961 . S
H971 C983 0.959 . S
H972 C986 0.929 . S
H973 C987 0.931 . S
H974 C989 0.930 . S
C975 H963 0.930 . S
C975 C976 1.399 . S
C975 C980 1.399 . S
C976 C975 1.399 . S
C976 C977 1.376 . S
C977 H964 0.930 . S
C977 C976 1.376 . S
C977 C978 1.388 . S
C978 H965 0.930 . S
C978 C977 1.388 . S
C978 C979 1.390 . S
C979 C978 1.390 . S
C979 C980 1.394 . S
C979 C985 1.465 . S
C980 C975 1.399 . S
C980 C979 1.394 . S
C980 C981 1.516 . S
C981 C980 1.516 . S
C981 C982 1.502 . S
C981 C983 1.561 . S
C981 C984 1.526 . S
C982 H966 0.959 . S
C982 H967 0.959 . S
C982 H968 0.961 . S
C982 C981 1.502 . S
C983 H969 0.960 . S
C983 H970 0.961 . S
C983 H971 0.959 . S
C983 C981 1.561 . S
C984 C981 1.526 . S
C984 C985 1.396 . S
C984 C989 1.390 . S
C985 C979 1.465 . S
C985 C984 1.396 . S
C985 C986 1.399 . S
C986 H972 0.929 . S
C986 C985 1.399 . S
C986 C987 1.385 . S
C987 H973 0.931 . S
C987 C986 1.385 . S
C987 C988 1.389 . S
C988 C987 1.389 . S
C988 C989 1.387 . S
C989 H974 0.930 . S
C989 C984 1.390 . S
C989 C988 1.387 . S
H990 C1002 0.930 . S
H991 C1004 0.930 . S
H992 C1005 0.930 . S
H993 C1009 0.959 . S
H994 C1009 0.959 . S
H995 C1009 0.961 . S
H996 C1010 0.960 . S
H997 C1010 0.961 . S
H998 C1010 0.959 . S
H999 C1013 0.929 . S
H1000 C1014 0.931 . S
H1001 C1016 0.930 . S
C1002 H990 0.930 . S
C1002 C1003 1.399 . S
C1002 C1007 1.399 . S
C1003 C1002 1.399 . S
C1003 C1004 1.376 . S
C1004 H991 0.930 . S
C1004 C1003 1.376 . S
C1004 C1005 1.388 . S
C1005 H992 0.930 . S
C1005 C1004 1.388 . S
C1005 C1006 1.390 . S
C1006 C1005 1.390 . S
C1006 C1007 1.394 . S
C1006 C1012 1.465 . S
C1007 C1002 1.399 . S
C1007 C1006 1.394 . S
C1007 C1008 1.516 . S
C1008 C1007 1.516 . S
C1008 C1009 1.502 . S
C1008 C1010 1.561 . S
C1008 C1011 1.526 . S
C1009 H993 0.959 . S
C1009 H994 0.959 . S
C1009 H995 0.961 . S
C1009 C1008 1.502 . S
C1010 H996 0.960 . S
C1010 H997 0.961 . S
C1010 H998 0.959 . S
C1010 C1008 1.561 . S
C1011 C1008 1.526 . S
C1011 C1012 1.396 . S
C1011 C1016 1.390 . S
C1012 C1006 1.465 . S
C1012 C1011 1.396 . S
C1012 C1013 1.399 . S
C1013 H999 0.929 . S
C1013 C1012 1.399 . S
C1013 C1014 1.385 . S
C1014 H1000 0.931 . S
C1014 C1013 1.385 . S
C1014 C1015 1.389 . S
C1015 C1014 1.389 . S
C1015 C1016 1.387 . S
C1016 H1001 0.930 . S
C1016 C1011 1.390 . S
C1016 C1015 1.387 . S
H1017 C1029 0.930 . S
H1018 C1031 0.930 . S
H1019 C1032 0.930 . S
H1020 C1036 0.959 . S
H1021 C1036 0.959 . S
H1022 C1036 0.961 . S
H1023 C1037 0.960 . S
H1024 C1037 0.961 . S
H1025 C1037 0.959 . S
H1026 C1040 0.929 . S
H1027 C1041 0.931 . S
H1028 C1043 0.930 . S
C1029 H1017 0.930 . S
C1029 C1030 1.399 . S
C1029 C1034 1.399 . S
C1030 C1029 1.399 . S
C1030 C1031 1.376 . S
C1031 H1018 0.930 . S
C1031 C1030 1.376 . S
C1031 C1032 1.388 . S
C1032 H1019 0.930 . S
C1032 C1031 1.388 . S
C1032 C1033 1.390 . S
C1033 C1032 1.390 . S
C1033 C1034 1.394 . S
C1033 C1039 1.465 . S
C1034 C1029 1.399 . S
C1034 C1033 1.394 . S
C1034 C1035 1.516 . S
C1035 C1034 1.516 . S
C1035 C1036 1.502 . S
C1035 C1037 1.561 . S
C1035 C1038 1.526 . S
C1036 H1020 0.959 . S
C1036 H1021 0.959 . S
C1036 H1022 0.961 . S
C1036 C1035 1.502 . S
C1037 H1023 0.960 . S
C1037 H1024 0.961 . S
C1037 H1025 0.959 . S
C1037 C1035 1.561 . S
C1038 C1035 1.526 . S
C1038 C1039 1.396 . S
C1038 C1043 1.390 . S
C1039 C1033 1.465 . S
C1039 C1038 1.396 . S
C1039 C1040 1.399 . S
C1040 H1026 0.929 . S
C1040 C1039 1.399 . S
C1040 C1041 1.385 . S
C1041 H1027 0.931 . S
C1041 C1040 1.385 . S
C1041 C1042 1.389 . S
C1042 C1041 1.389 . S
C1042 C1043 1.387 . S
C1043 H1028 0.930 . S
C1043 C1038 1.390 . S
C1043 C1042 1.387 . S
H1044 C1056 0.930 . S
H1045 C1058 0.930 . S
H1046 C1059 0.930 . S
H1047 C1063 0.959 . S
H1048 C1063 0.959 . S
H1049 C1063 0.961 . S
H1050 C1064 0.960 . S
H1051 C1064 0.961 . S
H1052 C1064 0.959 . S
H1053 C1067 0.929 . S
H1054 C1068 0.931 . S
H1055 C1070 0.930 . S
C1056 H1044 0.930 . S
C1056 C1057 1.399 . S
C1056 C1061 1.399 . S
C1057 C1056 1.399 . S
C1057 C1058 1.376 . S
C1058 H1045 0.930 . S
C1058 C1057 1.376 . S
C1058 C1059 1.388 . S
C1059 H1046 0.930 . S
C1059 C1058 1.388 . S
C1059 C1060 1.390 . S
C1060 C1059 1.390 . S
C1060 C1061 1.394 . S
C1060 C1066 1.465 . S
C1061 C1056 1.399 . S
C1061 C1060 1.394 . S
C1061 C1062 1.516 . S
C1062 C1061 1.516 . S
C1062 C1063 1.502 . S
C1062 C1064 1.561 . S
C1062 C1065 1.526 . S
C1063 H1047 0.959 . S
C1063 H1048 0.959 . S
C1063 H1049 0.961 . S
C1063 C1062 1.502 . S
C1064 H1050 0.960 . S
C1064 H1051 0.961 . S
C1064 H1052 0.959 . S
C1064 C1062 1.561 . S
C1065 C1062 1.526 . S
C1065 C1066 1.396 . S
C1065 C1070 1.390 . S
C1066 C1060 1.465 . S
C1066 C1065 1.396 . S
C1066 C1067 1.399 . S
C1067 H1053 0.929 . S
C1067 C1066 1.399 . S
C1067 C1068 1.385 . S
C1068 H1054 0.931 . S
C1068 C1067 1.385 . S
C1068 C1069 1.389 . S
C1069 C1068 1.389 . S
C1069 C1070 1.387 . S
C1070 H1055 0.930 . S
C1070 C1065 1.390 . S
C1070 C1069 1.387 . S
H1071 C1083 0.930 . S
H1072 C1085 0.901 1_556 S
H1073 C1086 0.930 1_556 S
H1074 C1090 0.959 . S
H1075 C1090 0.959 . S
H1076 C1090 0.961 . S
H1077 C1091 0.960 . S
H1078 C1091 0.961 . S
H1079 C1091 0.959 . S
H1080 C1094 0.929 1_556 S
H1081 C1095 0.931 . S
H1082 C1097 0.930 . S
C1083 H1071 0.930 . S
C1083 C1084 1.399 . S
C1083 C1088 1.399 . S
C1084 C1083 1.399 . S
C1084 C1085 1.376 . S
C1085 H1072 0.901 1_554 S
C1085 C1084 1.376 . S
C1085 C1086 1.388 . S
C1086 H1073 0.930 1_554 S
C1086 C1085 1.388 . S
C1086 C1087 1.390 . S
C1087 C1086 1.390 . S
C1087 C1088 1.394 . S
C1087 C1093 1.465 . S
C1088 C1083 1.399 . S
C1088 C1087 1.394 . S
C1088 C1089 1.516 . S
C1089 C1088 1.516 . S
C1089 C1090 1.502 . S
C1089 C1091 1.561 . S
C1089 C1092 1.526 . S
C1090 H1074 0.959 . S
C1090 H1075 0.959 . S
C1090 H1076 0.961 . S
C1090 C1089 1.502 . S
C1091 H1077 0.960 . S
C1091 H1078 0.961 . S
C1091 H1079 0.959 . S
C1091 C1089 1.561 . S
C1092 C1089 1.526 . S
C1092 C1093 1.396 . S
C1092 C1097 1.390 . S
C1093 C1087 1.465 . S
C1093 C1092 1.396 . S
C1093 C1094 1.399 . S
C1094 H1080 0.929 1_554 S
C1094 C1093 1.399 . S
C1094 C1095 1.385 . S
C1095 H1081 0.931 . S
C1095 C1094 1.385 . S
C1095 C1096 1.389 . S
C1096 C1095 1.389 . S
C1096 C1097 1.387 . S
C1097 H1082 0.930 . S
C1097 C1092 1.390 . S
C1097 C1096 1.387 . S
H1098 C1110 0.930 . S
H1099 C1112 0.930 . S
H1100 C1113 0.930 . S
H1101 C1117 0.959 . S
H1102 C1117 0.959 . S
H1103 C1117 0.961 . S
H1104 C1118 0.960 . S
H1105 C1118 0.961 . S
H1106 C1118 0.959 . S
H1107 C1121 0.918 1_556 S
H1108 C1122 1.004 . S
H1109 C1124 0.930 . S
C1110 H1098 0.930 . S
C1110 C1111 1.399 . S
C1110 C1115 1.399 . S
C1111 C1110 1.399 . S
C1111 C1112 1.376 . S
C1112 H1099 0.930 . S
C1112 C1111 1.376 . S
C1112 C1113 1.388 . S
C1113 H1100 0.930 . S
C1113 C1112 1.388 . S
C1113 C1114 1.390 . S
C1114 C1113 1.390 . S
C1114 C1115 1.394 . S
C1114 C1120 1.465 . S
C1115 C1110 1.399 . S
C1115 C1114 1.394 . S
C1115 C1116 1.516 . S
C1116 C1115 1.516 . S
C1116 C1117 1.502 . S
C1116 C1118 1.561 . S
C1116 C1119 1.526 . S
C1117 H1101 0.959 . S
C1117 H1102 0.959 . S
C1117 H1103 0.961 . S
C1117 C1116 1.502 . S
C1118 H1104 0.960 . S
C1118 H1105 0.961 . S
C1118 H1106 0.959 . S
C1118 C1116 1.561 . S
C1119 C1116 1.526 . S
C1119 C1120 1.396 . S
C1119 C1124 1.390 . S
C1120 C1114 1.465 . S
C1120 C1119 1.396 . S
C1120 C1121 1.399 . S
C1121 H1107 0.918 1_554 S
C1121 C1120 1.399 . S
C1121 C1122 1.385 . S
C1122 H1108 1.004 . S
C1122 C1121 1.385 . S
C1122 C1123 1.389 . S
C1123 C1122 1.389 . S
C1123 C1124 1.387 . S
C1124 H1109 0.930 . S
C1124 C1119 1.390 . S
C1124 C1123 1.387 . S
H1125 C1137 0.930 . S
H1126 C1139 0.930 . S
H1127 C1140 0.930 . S
H1128 C1144 0.959 . S
H1129 C1144 0.959 . S
H1130 C1144 0.961 . S
H1131 C1145 0.960 . S
H1132 C1145 0.961 . S
H1133 C1145 0.959 . S
H1134 C1148 0.929 . S
H1135 C1149 0.931 . S
H1136 C1151 0.930 . S
C1137 H1125 0.930 . S
C1137 C1138 1.399 . S
C1137 C1142 1.399 . S
C1138 C1137 1.399 . S
C1138 C1139 1.376 . S
C1139 H1126 0.930 . S
C1139 C1138 1.376 . S
C1139 C1140 1.388 . S
C1140 H1127 0.930 . S
C1140 C1139 1.388 . S
C1140 C1141 1.390 . S
C1141 C1140 1.390 . S
C1141 C1142 1.394 . S
C1141 C1147 1.465 . S
C1142 C1137 1.399 . S
C1142 C1141 1.394 . S
C1142 C1143 1.516 . S
C1143 C1142 1.516 . S
C1143 C1144 1.502 . S
C1143 C1145 1.561 1_554 S
C1143 C1146 1.526 . S
C1144 H1128 0.959 . S
C1144 H1129 0.959 . S
C1144 H1130 0.961 . S
C1144 C1143 1.502 . S
C1145 H1131 0.960 . S
C1145 H1132 0.961 . S
C1145 H1133 0.959 . S
C1145 C1143 1.561 1_556 S
C1146 C1143 1.526 . S
C1146 C1147 1.396 . S
C1146 C1151 1.390 . S
C1147 C1141 1.465 . S
C1147 C1146 1.396 . S
C1147 C1148 1.399 . S
C1148 H1134 0.929 . S
C1148 C1147 1.399 . S
C1148 C1149 1.385 . S
C1149 H1135 0.931 . S
C1149 C1148 1.385 . S
C1149 C1150 1.389 . S
C1150 C1149 1.389 . S
C1150 C1151 1.387 . S
C1151 H1136 0.930 . S
C1151 C1146 1.390 . S
C1151 C1150 1.387 . S
H1152 C1164 0.930 . S
H1153 C1166 0.930 . S
H1154 C1167 0.930 . S
H1155 C1171 0.959 . S
H1156 C1171 0.959 . S
H1157 C1171 0.961 . S
H1158 C1172 0.960 . S
H1159 C1172 0.961 . S
H1160 C1172 0.959 . S
H1161 C1175 0.929 . S
H1162 C1176 0.931 . S
H1163 C1178 0.930 . S
C1164 H1152 0.930 . S
C1164 C1165 1.399 . S
C1164 C1169 1.399 . S
C1165 C1164 1.399 . S
C1165 C1166 1.376 . S
C1166 H1153 0.930 . S
C1166 C1165 1.376 . S
C1166 C1167 1.388 . S
C1167 H1154 0.930 . S
C1167 C1166 1.388 . S
C1167 C1168 1.390 . S
C1168 C1167 1.390 . S
C1168 C1169 1.394 . S
C1168 C1174 1.465 . S
C1169 C1164 1.399 . S
C1169 C1168 1.394 . S
C1169 C1170 1.516 . S
C1170 C1169 1.516 . S
C1170 C1171 1.502 . S
C1170 C1172 1.561 . S
C1170 C1173 1.526 . S
C1171 H1155 0.959 . S
C1171 H1156 0.959 . S
C1171 H1157 0.961 . S
C1171 C1170 1.502 . S
C1172 H1158 0.960 . S
C1172 H1159 0.961 . S
C1172 H1160 0.959 . S
C1172 C1170 1.561 . S
C1173 C1170 1.526 . S
C1173 C1174 1.396 . S
C1173 C1178 1.390 . S
C1174 C1168 1.465 . S
C1174 C1173 1.396 . S
C1174 C1175 1.399 . S
C1175 H1161 0.929 . S
C1175 C1174 1.399 . S
C1175 C1176 1.385 . S
C1176 H1162 0.931 . S
C1176 C1175 1.385 . S
C1176 C1177 1.389 . S
C1177 C1176 1.389 . S
C1177 C1178 1.387 . S
C1178 H1163 0.930 . S
C1178 C1173 1.390 . S
C1178 C1177 1.387 . S
H1179 C1191 0.930 . S
H1180 C1193 0.930 . S
H1181 C1194 0.930 . S
H1182 C1198 0.959 . S
H1183 C1198 0.959 . S
H1184 C1198 0.961 . S
H1185 C1199 0.960 . S
H1186 C1199 0.961 . S
H1187 C1199 0.959 . S
H1188 C1202 0.929 . S
H1189 C1203 0.931 . S
H1190 C1205 0.930 . S
C1191 H1179 0.930 . S
C1191 C1192 1.399 . S
C1191 C1196 1.399 . S
C1192 C1191 1.399 . S
C1192 C1193 1.376 . S
C1193 H1180 0.930 . S
C1193 C1192 1.376 . S
C1193 C1194 1.388 . S
C1194 H1181 0.930 . S
C1194 C1193 1.388 . S
C1194 C1195 1.390 . S
C1195 C1194 1.390 . S
C1195 C1196 1.394 . S
C1195 C1201 1.465 . S
C1196 C1191 1.399 . S
C1196 C1195 1.394 . S
C1196 C1197 1.516 . S
C1197 C1196 1.516 . S
C1197 C1198 1.502 . S
C1197 C1199 1.561 . S
C1197 C1200 1.526 . S
C1198 H1182 0.959 . S
C1198 H1183 0.959 . S
C1198 H1184 0.961 . S
C1198 C1197 1.502 . S
C1199 H1185 0.960 . S
C1199 H1186 0.961 . S
C1199 H1187 0.959 . S
C1199 C1197 1.561 . S
C1200 C1197 1.526 . S
C1200 C1201 1.396 . S
C1200 C1205 1.390 . S
C1201 C1195 1.465 . S
C1201 C1200 1.396 . S
C1201 C1202 1.399 . S
C1202 H1188 0.929 . S
C1202 C1201 1.399 . S
C1202 C1203 1.385 . S
C1203 H1189 0.931 . S
C1203 C1202 1.385 . S
C1203 C1204 1.389 . S
C1204 C1203 1.389 . S
C1204 C1205 1.387 . S
C1205 H1190 0.930 . S
C1205 C1200 1.390 . S
C1205 C1204 1.387 . S
H1206 C1218 0.930 . S
H1207 C1220 0.930 . S
H1208 C1221 0.930 . S
H1209 C1225 0.959 . S
H1210 C1225 0.959 . S
H1211 C1225 0.961 . S
H1212 C1226 0.960 . S
H1213 C1226 0.961 . S
H1214 C1226 0.959 . S
H1215 C1229 0.929 . S
H1216 C1230 0.931 . S
H1217 C1232 0.930 . S
C1218 H1206 0.930 . S
C1218 C1219 1.399 . S
C1218 C1223 1.399 . S
C1219 C1218 1.399 . S
C1219 C1220 1.376 . S
C1220 H1207 0.930 . S
C1220 C1219 1.376 . S
C1220 C1221 1.388 . S
C1221 H1208 0.930 . S
C1221 C1220 1.388 . S
C1221 C1222 1.390 . S
C1222 C1221 1.390 . S
C1222 C1223 1.394 . S
C1222 C1228 1.465 . S
C1223 C1218 1.399 . S
C1223 C1222 1.394 . S
C1223 C1224 1.516 . S
C1224 C1223 1.516 . S
C1224 C1225 1.502 . S
C1224 C1226 1.561 . S
C1224 C1227 1.526 . S
C1225 H1209 0.959 . S
C1225 H1210 0.959 . S
C1225 H1211 0.961 . S
C1225 C1224 1.502 . S
C1226 H1212 0.960 . S
C1226 H1213 0.961 . S
C1226 H1214 0.959 . S
C1226 C1224 1.561 . S
C1227 C1224 1.526 . S
C1227 C1228 1.396 . S
C1227 C1232 1.390 . S
C1228 C1222 1.465 . S
C1228 C1227 1.396 . S
C1228 C1229 1.399 . S
C1229 H1215 0.929 . S
C1229 C1228 1.399 . S
C1229 C1230 1.385 . S
C1230 H1216 0.931 . S
C1230 C1229 1.385 . S
C1230 C1231 1.389 . S
C1231 C1230 1.389 . S
C1231 C1232 1.387 . S
C1232 H1217 0.930 . S
C1232 C1227 1.390 . S
C1232 C1231 1.387 . S
H1233 C1245 0.930 . S
H1234 C1247 0.930 . S
H1235 C1248 0.930 . S
H1236 C1252 0.959 1_556 S
H1237 C1252 0.959 . S
H1238 C1252 0.961 . S
H1239 C1253 0.960 . S
H1240 C1253 0.961 . S
H1241 C1253 0.984 . S
H1242 C1256 0.929 . S
H1243 C1257 0.931 . S
H1244 C1259 0.930 . S
C1245 H1233 0.930 . S
C1245 C1246 1.399 . S
C1245 C1250 1.399 . S
C1246 C1245 1.399 . S
C1246 C1247 1.376 . S
C1247 H1234 0.930 . S
C1247 C1246 1.376 . S
C1247 C1248 1.388 . S
C1248 H1235 0.930 . S
C1248 C1247 1.388 . S
C1248 C1249 1.390 . S
C1249 C1248 1.390 . S
C1249 C1250 1.394 . S
C1249 C1255 1.465 . S
C1250 C1245 1.399 . S
C1250 C1249 1.394 . S
C1250 C1251 1.516 . S
C1251 C1250 1.516 . S
C1251 C1252 1.502 1_556 S
C1251 C1253 1.561 1_556 S
C1251 C1254 1.526 . S
C1252 H1236 0.959 1_554 S
C1252 H1237 0.959 . S
C1252 H1238 0.961 . S
C1252 C1251 1.502 1_554 S
C1253 H1239 0.960 . S
C1253 H1240 0.961 . S
C1253 H1241 0.984 . S
C1253 C1251 1.561 1_554 S
C1254 C1251 1.526 . S
C1254 C1255 1.396 . S
C1254 C1259 1.390 . S
C1255 C1249 1.465 . S
C1255 C1254 1.396 . S
C1255 C1256 1.399 . S
C1256 H1242 0.929 . S
C1256 C1255 1.399 . S
C1256 C1257 1.385 . S
C1257 H1243 0.931 . S
C1257 C1256 1.385 . S
C1257 C1258 1.389 . S
C1258 C1257 1.389 . S
C1258 C1259 1.387 . S
C1259 H1244 0.930 . S
C1259 C1254 1.390 . S
C1259 C1258 1.387 . S
H1260 C1272 0.930 . S
H1261 C1274 0.930 . S
H1262 C1275 0.930 . S
H1263 C1279 0.959 . S
H1264 C1279 0.959 . S
H1265 C1279 0.961 . S
H1266 C1280 0.999 . S
H1267 C1280 1.018 . S
H1268 C1280 0.901 1_556 S
H1269 C1283 0.929 . S
H1270 C1284 0.931 . S
H1271 C1286 1.036 . S
C1272 H1260 0.930 . S
C1272 C1273 1.399 . S
C1272 C1277 1.399 . S
C1273 C1272 1.399 . S
C1273 C1274 1.376 . S
C1274 H1261 0.930 . S
C1274 C1273 1.376 . S
C1274 C1275 1.388 . S
C1275 H1262 0.930 . S
C1275 C1274 1.388 . S
C1275 C1276 1.390 . S
C1276 C1275 1.390 . S
C1276 C1277 1.394 . S
C1276 C1282 1.465 . S
C1277 C1272 1.399 . S
C1277 C1276 1.394 . S
C1277 C1278 1.516 . S
C1278 C1277 1.516 . S
C1278 C1279 1.502 1_556 S
C1278 C1280 1.531 1_556 S
C1278 C1281 1.526 . S
C1279 H1263 0.959 . S
C1279 H1264 0.959 . S
C1279 H1265 0.961 . S
C1279 C1278 1.502 1_554 S
C1280 H1266 0.999 . S
C1280 H1267 1.018 . S
C1280 H1268 0.901 1_554 S
C1280 C1278 1.531 1_554 S
C1281 C1278 1.526 . S
C1281 C1282 1.396 . S
C1281 C1286 1.390 . S
C1282 C1276 1.465 . S
C1282 C1281 1.396 . S
C1282 C1283 1.399 . S
C1283 H1269 0.929 . S
C1283 C1282 1.399 . S
C1283 C1284 1.385 . S
C1284 H1270 0.931 . S
C1284 C1283 1.385 . S
C1284 C1285 1.389 . S
C1285 C1284 1.389 . S
C1285 C1286 1.387 . S
C1286 H1271 1.036 . S
C1286 C1281 1.390 . S
C1286 C1285 1.387 . S
H1287 C1299 1.012 . S
H1288 C1301 0.930 . S
H1289 C1302 0.930 . S
H1290 C1306 0.940 1_556 S
H1291 C1306 0.959 . S
H1292 C1306 0.961 . S
H1293 C1307 0.960 . S
H1294 C1307 0.961 . S
H1295 C1307 0.959 1_556 S
H1296 C1310 0.929 . S
H1297 C1311 0.931 . S
H1298 C1313 0.930 . S
C1299 H1287 1.012 . S
C1299 C1300 1.399 . S
C1299 C1304 1.399 . S
C1300 C1299 1.399 . S
C1300 C1301 1.376 . S
C1301 H1288 0.930 . S
C1301 C1300 1.376 . S
C1301 C1302 1.388 . S
C1302 H1289 0.930 . S
C1302 C1301 1.388 . S
C1302 C1303 1.390 . S
C1303 C1302 1.390 . S
C1303 C1304 1.394 . S
C1303 C1309 1.465 . S
C1304 C1299 1.399 . S
C1304 C1303 1.394 . S
C1304 C1305 1.516 . S
C1305 C1304 1.516 . S
C1305 C1306 1.502 1_556 S
C1305 C1307 1.561 1_556 S
C1305 C1308 1.526 . S
C1306 H1290 0.940 1_554 S
C1306 H1291 0.959 . S
C1306 H1292 0.961 . S
C1306 C1305 1.502 1_554 S
C1307 H1293 0.960 . S
C1307 H1294 0.961 . S
C1307 H1295 0.959 1_554 S
C1307 C1305 1.561 1_554 S
C1308 C1305 1.526 . S
C1308 C1309 1.396 . S
C1308 C1313 1.390 . S
C1309 C1303 1.465 . S
C1309 C1308 1.396 . S
C1309 C1310 1.399 . S
C1310 H1296 0.929 . S
C1310 C1309 1.399 . S
C1310 C1311 1.385 . S
C1311 H1297 0.931 . S
C1311 C1310 1.385 . S
C1311 C1312 1.389 . S
C1312 C1311 1.389 . S
C1312 C1313 1.387 . S
C1313 H1298 0.930 . S
C1313 C1308 1.390 . S
C1313 C1312 1.387 . S
H1314 C1326 0.930 . S
H1315 C1328 0.930 . S
H1316 C1329 0.930 . S
H1317 C1333 0.959 . S
H1318 C1333 0.959 . S
H1319 C1333 0.961 . S
H1320 C1334 0.960 . S
H1321 C1334 0.961 . S
H1322 C1334 0.959 . S
H1323 C1337 0.929 . S
H1324 C1338 0.931 . S
H1325 C1340 0.930 . S
C1326 H1314 0.930 . S
C1326 C1327 1.399 . S
C1326 C1331 1.399 . S
C1327 C1326 1.399 . S
C1327 C1328 1.376 . S
C1328 H1315 0.930 . S
C1328 C1327 1.376 . S
C1328 C1329 1.388 . S
C1329 H1316 0.930 . S
C1329 C1328 1.388 . S
C1329 C1330 1.390 . S
C1330 C1329 1.390 . S
C1330 C1331 1.394 . S
C1330 C1336 1.465 . S
C1331 C1326 1.399 . S
C1331 C1330 1.394 . S
C1331 C1332 1.516 . S
C1332 C1331 1.516 . S
C1332 C1333 1.502 . S
C1332 C1334 1.561 . S
C1332 C1335 1.526 . S
C1333 H1317 0.959 . S
C1333 H1318 0.959 . S
C1333 H1319 0.961 . S
C1333 C1332 1.502 . S
C1334 H1320 0.960 . S
C1334 H1321 0.961 . S
C1334 H1322 0.959 . S
C1334 C1332 1.561 . S
C1335 C1332 1.526 . S
C1335 C1336 1.396 . S
C1335 C1340 1.390 . S
C1336 C1330 1.465 . S
C1336 C1335 1.396 . S
C1336 C1337 1.399 . S
C1337 H1323 0.929 . S
C1337 C1336 1.399 . S
C1337 C1338 1.385 . S
C1338 H1324 0.931 . S
C1338 C1337 1.385 . S
C1338 C1339 1.389 . S
C1339 C1338 1.389 . S
C1339 C1340 1.387 . S
C1340 H1325 0.930 . S
C1340 C1335 1.390 . S
C1340 C1339 1.387 . S
H1341 C1353 0.930 . S
H1342 C1355 0.930 . S
H1343 C1356 0.930 . S
H1344 C1360 0.959 . S
H1345 C1360 0.959 . S
H1346 C1360 0.961 . S
H1347 C1361 0.960 . S
H1348 C1361 0.961 . S
H1349 C1361 0.959 . S
H1350 C1364 0.929 . S
H1351 C1365 0.931 . S
H1352 C1367 0.930 . S
C1353 H1341 0.930 . S
C1353 C1354 1.399 . S
C1353 C1358 1.399 . S
C1354 C1353 1.399 . S
C1354 C1355 1.376 . S
C1355 H1342 0.930 . S
C1355 C1354 1.376 . S
C1355 C1356 1.388 . S
C1356 H1343 0.930 . S
C1356 C1355 1.388 . S
C1356 C1357 1.390 . S
C1357 C1356 1.390 . S
C1357 C1358 1.394 . S
C1357 C1363 1.465 . S
C1358 C1353 1.399 . S
C1358 C1357 1.394 . S
C1358 C1359 1.516 . S
C1359 C1358 1.516 . S
C1359 C1360 1.502 . S
C1359 C1361 1.561 . S
C1359 C1362 1.526 . S
C1360 H1344 0.959 . S
C1360 H1345 0.959 . S
C1360 H1346 0.961 . S
C1360 C1359 1.502 . S
C1361 H1347 0.960 . S
C1361 H1348 0.961 . S
C1361 H1349 0.959 . S
C1361 C1359 1.561 . S
C1362 C1359 1.526 . S
C1362 C1363 1.396 . S
C1362 C1367 1.390 . S
C1363 C1357 1.465 . S
C1363 C1362 1.396 . S
C1363 C1364 1.399 . S
C1364 H1350 0.929 . S
C1364 C1363 1.399 . S
C1364 C1365 1.385 . S
C1365 H1351 0.931 . S
C1365 C1364 1.385 . S
C1365 C1366 1.389 . S
C1366 C1365 1.389 . S
C1366 C1367 1.387 . S
C1367 H1352 0.930 . S
C1367 C1362 1.390 . S
C1367 C1366 1.387 . S
H1368 C1380 0.930 . S
H1369 C1382 0.930 . S
H1370 C1383 0.930 . S
H1371 C1387 0.959 . S
H1372 C1387 0.959 . S
H1373 C1387 0.961 . S
H1374 C1388 0.960 . S
H1375 C1388 0.961 . S
H1376 C1388 0.959 . S
H1377 C1391 0.929 . S
H1378 C1392 0.931 . S
H1379 C1394 0.930 . S
C1380 H1368 0.930 . S
C1380 C1381 1.399 . S
C1380 C1385 1.399 . S
C1381 C1380 1.399 . S
C1381 C1382 1.376 . S
C1382 H1369 0.930 . S
C1382 C1381 1.376 . S
C1382 C1383 1.388 . S
C1383 H1370 0.930 . S
C1383 C1382 1.388 . S
C1383 C1384 1.390 . S
C1384 C1383 1.390 . S
C1384 C1385 1.394 . S
C1384 C1390 1.465 . S
C1385 C1380 1.399 . S
C1385 C1384 1.394 . S
C1385 C1386 1.516 . S
C1386 C1385 1.516 . S
C1386 C1387 1.502 . S
C1386 C1388 1.561 . S
C1386 C1389 1.526 . S
C1387 H1371 0.959 . S
C1387 H1372 0.959 . S
C1387 H1373 0.961 . S
C1387 C1386 1.502 . S
C1388 H1374 0.960 . S
C1388 H1375 0.961 . S
C1388 H1376 0.959 . S
C1388 C1386 1.561 . S
C1389 C1386 1.526 . S
C1389 C1390 1.396 . S
C1389 C1394 1.390 . S
C1390 C1384 1.465 . S
C1390 C1389 1.396 . S
C1390 C1391 1.399 . S
C1391 H1377 0.929 . S
C1391 C1390 1.399 . S
C1391 C1392 1.385 . S
C1392 H1378 0.931 . S
C1392 C1391 1.385 . S
C1392 C1393 1.389 . S
C1393 C1392 1.389 . S
C1393 C1394 1.387 . S
C1394 H1379 0.930 . S
C1394 C1389 1.390 . S
C1394 C1393 1.387 . S
H1395 C1407 0.930 . S
H1396 C1409 0.930 . S
H1397 C1410 0.930 . S
H1398 C1414 0.959 . S
H1399 C1414 0.959 . S
H1400 C1414 0.961 . S
H1401 C1415 0.960 . S
H1402 C1415 0.961 . S
H1403 C1415 0.959 . S
H1404 C1418 0.929 . S
H1405 C1419 0.931 . S
H1406 C1421 0.930 . S
C1407 H1395 0.930 . S
C1407 C1408 1.399 . S
C1407 C1412 1.399 . S
C1408 C1407 1.399 . S
C1408 C1409 1.376 . S
C1409 H1396 0.930 . S
C1409 C1408 1.376 . S
C1409 C1410 1.388 . S
C1410 H1397 0.930 . S
C1410 C1409 1.388 . S
C1410 C1411 1.390 . S
C1411 C1410 1.390 . S
C1411 C1412 1.394 . S
C1411 C1417 1.465 . S
C1412 C1407 1.399 . S
C1412 C1411 1.394 . S
C1412 C1413 1.516 . S
C1413 C1412 1.516 . S
C1413 C1414 1.502 . S
C1413 C1415 1.561 . S
C1413 C1416 1.526 . S
C1414 H1398 0.959 . S
C1414 H1399 0.959 . S
C1414 H1400 0.961 . S
C1414 C1413 1.502 . S
C1415 H1401 0.960 . S
C1415 H1402 0.961 . S
C1415 H1403 0.959 . S
C1415 C1413 1.561 . S
C1416 C1413 1.526 . S
C1416 C1417 1.396 . S
C1416 C1421 1.390 . S
C1417 C1411 1.465 . S
C1417 C1416 1.396 . S
C1417 C1418 1.399 . S
C1418 H1404 0.929 . S
C1418 C1417 1.399 . S
C1418 C1419 1.385 . S
C1419 H1405 0.931 . S
C1419 C1418 1.385 . S
C1419 C1420 1.389 . S
C1420 C1419 1.389 . S
C1420 C1421 1.387 . S
C1421 H1406 0.930 . S
C1421 C1416 1.390 . S
C1421 C1420 1.387 . S
H1422 C1434 0.930 . S
H1423 C1436 0.930 . S
H1424 C1437 0.930 . S
H1425 C1441 0.959 . S
H1426 C1441 0.959 . S
H1427 C1441 0.961 . S
H1428 C1442 0.960 . S
H1429 C1442 0.961 . S
H1430 C1442 0.959 . S
H1431 C1445 0.929 . S
H1432 C1446 0.931 . S
H1433 C1448 0.930 . S
C1434 H1422 0.930 . S
C1434 C1435 1.399 . S
C1434 C1439 1.399 . S
C1435 C1434 1.399 . S
C1435 C1436 1.376 . S
C1436 H1423 0.930 . S
C1436 C1435 1.376 . S
C1436 C1437 1.388 . S
C1437 H1424 0.930 . S
C1437 C1436 1.388 . S
C1437 C1438 1.390 . S
C1438 C1437 1.390 . S
C1438 C1439 1.394 . S
C1438 C1444 1.465 . S
C1439 C1434 1.399 . S
C1439 C1438 1.394 . S
C1439 C1440 1.516 . S
C1440 C1439 1.516 . S
C1440 C1441 1.502 . S
C1440 C1442 1.561 . S
C1440 C1443 1.526 . S
C1441 H1425 0.959 . S
C1441 H1426 0.959 . S
C1441 H1427 0.961 . S
C1441 C1440 1.502 . S
C1442 H1428 0.960 . S
C1442 H1429 0.961 . S
C1442 H1430 0.959 . S
C1442 C1440 1.561 . S
C1443 C1440 1.526 . S
C1443 C1444 1.396 . S
C1443 C1448 1.390 . S
C1444 C1438 1.465 . S
C1444 C1443 1.396 . S
C1444 C1445 1.399 . S
C1445 H1431 0.929 . S
C1445 C1444 1.399 . S
C1445 C1446 1.385 . S
C1446 H1432 0.931 . S
C1446 C1445 1.385 . S
C1446 C1447 1.389 . S
C1447 C1446 1.389 . S
C1447 C1448 1.387 . S
C1448 H1433 0.930 . S
C1448 C1443 1.390 . S
C1448 C1447 1.387 . S
H1449 C1461 0.930 . S
H1450 C1463 0.930 . S
H1451 C1464 0.930 . S
H1452 C1468 0.959 . S
H1453 C1468 0.959 . S
H1454 C1468 0.961 . S
H1455 C1469 0.960 . S
H1456 C1469 0.961 . S
H1457 C1469 0.959 . S
H1458 C1472 0.929 . S
H1459 C1473 0.931 . S
H1460 C1475 0.930 . S
C1461 H1449 0.930 . S
C1461 C1462 1.399 . S
C1461 C1466 1.399 . S
C1462 C1461 1.399 . S
C1462 C1463 1.376 . S
C1463 H1450 0.930 . S
C1463 C1462 1.376 . S
C1463 C1464 1.388 . S
C1464 H1451 0.930 . S
C1464 C1463 1.388 . S
C1464 C1465 1.390 . S
C1465 C1464 1.390 . S
C1465 C1466 1.394 . S
C1465 C1471 1.465 . S
C1466 C1461 1.399 . S
C1466 C1465 1.394 . S
C1466 C1467 1.516 . S
C1467 C1466 1.516 . S
C1467 C1468 1.502 . S
C1467 C1469 1.561 . S
C1467 C1470 1.526 . S
C1468 H1452 0.959 . S
C1468 H1453 0.959 . S
C1468 H1454 0.961 . S
C1468 C1467 1.502 . S
C1469 H1455 0.960 . S
C1469 H1456 0.961 . S
C1469 H1457 0.959 . S
C1469 C1467 1.561 . S
C1470 C1467 1.526 . S
C1470 C1471 1.396 . S
C1470 C1475 1.390 . S
C1471 C1465 1.465 . S
C1471 C1470 1.396 . S
C1471 C1472 1.399 . S
C1472 H1458 0.929 . S
C1472 C1471 1.399 . S
C1472 C1473 1.385 . S
C1473 H1459 0.931 . S
C1473 C1472 1.385 . S
C1473 C1474 1.389 . S
C1474 C1473 1.389 . S
C1474 C1475 1.387 . S
C1475 H1460 0.930 . S
C1475 C1470 1.390 . S
C1475 C1474 1.387 . S
H1476 C1488 0.930 . S
H1477 C1490 0.930 . S
H1478 C1491 0.930 . S
H1479 C1495 0.959 . S
H1480 C1495 0.959 . S
H1481 C1495 0.961 . S
H1482 C1496 0.960 . S
H1483 C1496 0.961 . S
H1484 C1496 0.959 . S
H1485 C1499 0.929 . S
H1486 C1500 0.931 . S
H1487 C1502 0.930 . S
C1488 H1476 0.930 . S
C1488 C1489 1.399 . S
C1488 C1493 1.399 . S
C1489 C1488 1.399 . S
C1489 C1490 1.376 . S
C1490 H1477 0.930 . S
C1490 C1489 1.376 . S
C1490 C1491 1.388 . S
C1491 H1478 0.930 . S
C1491 C1490 1.388 . S
C1491 C1492 1.390 . S
C1492 C1491 1.390 . S
C1492 C1493 1.394 . S
C1492 C1498 1.465 . S
C1493 C1488 1.399 . S
C1493 C1492 1.394 . S
C1493 C1494 1.516 . S
C1494 C1493 1.516 . S
C1494 C1495 1.502 . S
C1494 C1496 1.561 . S
C1494 C1497 1.526 . S
C1495 H1479 0.959 . S
C1495 H1480 0.959 . S
C1495 H1481 0.961 . S
C1495 C1494 1.502 . S
C1496 H1482 0.960 . S
C1496 H1483 0.961 . S
C1496 H1484 0.959 . S
C1496 C1494 1.561 . S
C1497 C1494 1.526 . S
C1497 C1498 1.396 . S
C1497 C1502 1.390 . S
C1498 C1492 1.465 . S
C1498 C1497 1.396 . S
C1498 C1499 1.399 . S
C1499 H1485 0.929 . S
C1499 C1498 1.399 . S
C1499 C1500 1.385 . S
C1500 H1486 0.931 . S
C1500 C1499 1.385 . S
C1500 C1501 1.389 . S
C1501 C1500 1.389 . S
C1501 C1502 1.387 . S
C1502 H1487 0.930 . S
C1502 C1497 1.390 . S
C1502 C1501 1.387 . S
H1503 C1515 0.930 . S
H1504 C1517 0.930 . S
H1505 C1518 0.930 . S
H1506 C1522 0.959 . S
H1507 C1522 0.959 . S
H1508 C1522 0.961 . S
H1509 C1523 0.960 . S
H1510 C1523 0.961 . S
H1511 C1523 0.959 . S
H1512 C1526 0.929 . S
H1513 C1527 0.931 . S
H1514 C1529 0.930 . S
C1515 H1503 0.930 . S
C1515 C1516 1.399 1_545 S
C1515 C1520 1.399 . S
C1516 C1515 1.399 1_565 S
C1516 C1517 1.376 . S
C1517 H1504 0.930 . S
C1517 C1516 1.376 . S
C1517 C1518 1.388 . S
C1518 H1505 0.930 . S
C1518 C1517 1.388 . S
C1518 C1519 1.390 . S
C1519 C1518 1.390 . S
C1519 C1520 1.394 1_565 S
C1519 C1525 1.465 . S
C1520 C1515 1.399 . S
C1520 C1519 1.394 1_545 S
C1520 C1521 1.516 . S
C1521 C1520 1.516 . S
C1521 C1522 1.502 . S
C1521 C1523 1.561 . S
C1521 C1524 1.526 . S
C1522 H1506 0.959 . S
C1522 H1507 0.959 . S
C1522 H1508 0.961 . S
C1522 C1521 1.502 . S
C1523 H1509 0.960 . S
C1523 H1510 0.961 . S
C1523 H1511 0.959 . S
C1523 C1521 1.561 . S
C1524 C1521 1.526 . S
C1524 C1525 1.396 1_545 S
C1524 C1529 1.390 . S
C1525 C1519 1.465 . S
C1525 C1524 1.396 1_565 S
C1525 C1526 1.399 . S
C1526 H1512 0.929 . S
C1526 C1525 1.399 . S
C1526 C1527 1.385 . S
C1527 H1513 0.931 . S
C1527 C1526 1.385 . S
C1527 C1528 1.389 1_565 S
C1528 C1527 1.389 1_545 S
C1528 C1529 1.387 . S
C1529 H1514 0.930 . S
C1529 C1524 1.390 . S
C1529 C1528 1.387 . S
H1530 C1542 0.930 . S
H1531 C1544 0.930 . S
H1532 C1545 0.930 . S
H1533 C1549 0.959 . S
H1534 C1549 0.959 . S
H1535 C1549 0.961 . S
H1536 C1550 0.960 . S
H1537 C1550 0.961 . S
H1538 C1550 0.959 . S
H1539 C1553 0.929 . S
H1540 C1554 0.931 . S
H1541 C1556 0.930 . S
C1542 H1530 0.930 . S
C1542 C1543 1.399 . S
C1542 C1547 1.399 . S
C1543 C1542 1.399 . S
C1543 C1544 1.376 . S
C1544 H1531 0.930 . S
C1544 C1543 1.376 . S
C1544 C1545 1.388 . S
C1545 H1532 0.930 . S
C1545 C1544 1.388 . S
C1545 C1546 1.390 . S
C1546 C1545 1.390 . S
C1546 C1547 1.394 . S
C1546 C1552 1.462 1_655 S
C1547 C1542 1.399 . S
C1547 C1546 1.394 . S
C1547 C1548 1.516 . S
C1548 C1547 1.516 . S
C1548 C1549 1.502 1_655 S
C1548 C1550 1.561 . S
C1548 C1551 1.526 . S
C1549 H1533 0.959 . S
C1549 H1534 0.959 . S
C1549 H1535 0.961 . S
C1549 C1548 1.502 1_455 S
C1550 H1536 0.960 . S
C1550 H1537 0.961 . S
C1550 H1538 0.959 . S
C1550 C1548 1.561 . S
C1551 C1548 1.526 . S
C1551 C1552 1.409 1_655 S
C1551 C1556 1.390 1_655 S
C1552 C1546 1.462 1_455 S
C1552 C1551 1.409 1_455 S
C1552 C1553 1.392 . S
C1553 H1539 0.929 . S
C1553 C1552 1.392 . S
C1553 C1554 1.385 . S
C1554 H1540 0.931 . S
C1554 C1553 1.385 . S
C1554 C1555 1.389 . S
C1555 C1554 1.389 . S
C1555 C1556 1.387 . S
C1556 H1541 0.930 . S
C1556 C1551 1.390 1_455 S
C1556 C1555 1.387 . S
H1557 C1569 0.930 . S
H1558 C1571 0.930 . S
H1559 C1572 0.930 . S
H1560 C1576 0.959 . S
H1561 C1576 0.959 . S
H1562 C1576 0.961 . S
H1563 C1577 0.960 . S
H1564 C1577 0.961 . S
H1565 C1577 0.959 . S
H1566 C1580 0.929 . S
H1567 C1581 0.931 . S
H1568 C1583 0.930 . S
C1569 H1557 0.930 . S
C1569 C1570 1.399 . S
C1569 C1574 1.399 . S
C1570 C1569 1.399 . S
C1570 C1571 1.376 . S
C1571 H1558 0.930 . S
C1571 C1570 1.376 . S
C1571 C1572 1.388 . S
C1572 H1559 0.930 . S
C1572 C1571 1.388 . S
C1572 C1573 1.390 . S
C1573 C1572 1.390 . S
C1573 C1574 1.394 . S
C1573 C1579 1.465 . S
C1574 C1569 1.399 . S
C1574 C1573 1.394 . S
C1574 C1575 1.516 . S
C1575 C1574 1.516 . S
C1575 C1576 1.502 . S
C1575 C1577 1.561 . S
C1575 C1578 1.526 . S
C1576 H1560 0.959 . S
C1576 H1561 0.959 . S
C1576 H1562 0.961 . S
C1576 C1575 1.502 . S
C1577 H1563 0.960 . S
C1577 H1564 0.961 . S
C1577 H1565 0.959 . S
C1577 C1575 1.561 . S
C1578 C1575 1.526 . S
C1578 C1579 1.396 . S
C1578 C1583 1.390 . S
C1579 C1573 1.465 . S
C1579 C1578 1.396 . S
C1579 C1580 1.399 . S
C1580 H1566 0.929 . S
C1580 C1579 1.399 . S
C1580 C1581 1.385 . S
C1581 H1567 0.931 . S
C1581 C1580 1.385 . S
C1581 C1582 1.389 . S
C1582 C1581 1.389 . S
C1582 C1583 1.387 . S
C1583 H1568 0.930 . S
C1583 C1578 1.390 . S
C1583 C1582 1.387 . S
H1584 C1596 0.930 . S
H1585 C1598 0.930 . S
H1586 C1599 0.930 . S
H1587 C1603 0.959 . S
H1588 C1603 0.959 . S
H1589 C1603 0.961 . S
H1590 C1604 0.960 . S
H1591 C1604 0.961 . S
H1592 C1604 0.959 . S
H1593 C1607 0.929 . S
H1594 C1608 0.931 . S
H1595 C1610 0.930 . S
C1596 H1584 0.930 . S
C1596 C1597 1.399 . S
C1596 C1601 1.399 . S
C1597 C1596 1.399 . S
C1597 C1598 1.376 1_545 S
C1598 H1585 0.930 . S
C1598 C1597 1.376 1_565 S
C1598 C1599 1.388 . S
C1599 H1586 0.930 . S
C1599 C1598 1.388 . S
C1599 C1600 1.390 . S
C1600 C1599 1.390 . S
C1600 C1601 1.394 1_565 S
C1600 C1606 1.465 . S
C1601 C1596 1.399 . S
C1601 C1600 1.394 1_545 S
C1601 C1602 1.516 . S
C1602 C1601 1.516 . S
C1602 C1603 1.502 . S
C1602 C1604 1.561 . S
C1602 C1605 1.526 . S
C1603 H1587 0.959 . S
C1603 H1588 0.959 . S
C1603 H1589 0.961 . S
C1603 C1602 1.502 . S
C1604 H1590 0.960 . S
C1604 H1591 0.961 . S
C1604 H1592 0.959 . S
C1604 C1602 1.561 . S
C1605 C1602 1.526 . S
C1605 C1606 1.396 1_545 S
C1605 C1610 1.390 . S
C1606 C1600 1.465 . S
C1606 C1605 1.396 1_565 S
C1606 C1607 1.399 . S
C1607 H1593 0.929 . S
C1607 C1606 1.399 . S
C1607 C1608 1.385 . S
C1608 H1594 0.931 . S
C1608 C1607 1.385 . S
C1608 C1609 1.389 . S
C1609 C1608 1.389 . S
C1609 C1610 1.387 1_565 S
C1610 H1595 0.930 . S
C1610 C1605 1.390 . S
C1610 C1609 1.387 1_545 S
H1611 C1623 0.930 . S
H1612 C1625 0.930 . S
H1613 C1626 0.930 . S
H1614 C1630 0.959 . S
H1615 C1630 0.959 . S
H1616 C1630 0.961 . S
H1617 C1631 0.960 . S
H1618 C1631 0.961 . S
H1619 C1631 0.959 . S
H1620 C1634 0.929 . S
H1621 C1635 0.931 . S
H1622 C1637 0.930 . S
C1623 H1611 0.930 . S
C1623 C1624 1.399 . S
C1623 C1628 1.399 . S
C1624 C1623 1.399 . S
C1624 C1625 1.376 1_455 S
C1625 H1612 0.930 . S
C1625 C1624 1.376 1_655 S
C1625 C1626 1.388 . S
C1626 H1613 0.930 . S
C1626 C1625 1.388 . S
C1626 C1627 1.390 . S
C1627 C1626 1.390 . S
C1627 C1628 1.394 1_655 S
C1627 C1633 1.465 . S
C1628 C1623 1.399 . S
C1628 C1627 1.394 1_455 S
C1628 C1629 1.516 . S
C1629 C1628 1.516 . S
C1629 C1630 1.502 . S
C1629 C1631 1.561 . S
C1629 C1632 1.526 . S
C1630 H1614 0.959 . S
C1630 H1615 0.959 . S
C1630 H1616 0.961 . S
C1630 C1629 1.502 . S
C1631 H1617 0.960 . S
C1631 H1618 0.961 . S
C1631 H1619 0.959 . S
C1631 C1629 1.561 . S
C1632 C1629 1.526 . S
C1632 C1633 1.396 1_455 S
C1632 C1637 1.390 . S
C1633 C1627 1.465 . S
C1633 C1632 1.396 1_655 S
C1633 C1634 1.399 . S
C1634 H1620 0.929 . S
C1634 C1633 1.399 . S
C1634 C1635 1.385 . S
C1635 H1621 0.931 . S
C1635 C1634 1.385 . S
C1635 C1636 1.389 . S
C1636 C1635 1.389 . S
C1636 C1637 1.387 1_655 S
C1637 H1622 0.930 . S
C1637 C1632 1.390 . S
C1637 C1636 1.387 1_455 S
H1638 C1650 0.930 . S
H1639 C1652 0.930 . S
H1640 C1653 0.930 . S
H1641 C1657 0.959 . S
H1642 C1657 0.959 . S
H1643 C1657 0.961 . S
H1644 C1658 0.960 . S
H1645 C1658 0.961 . S
H1646 C1658 0.959 . S
H1647 C1661 0.929 . S
H1648 C1662 0.931 . S
H1649 C1664 0.930 . S
C1650 H1638 0.930 . S
C1650 C1651 1.399 . S
C1650 C1655 1.399 . S
C1651 C1650 1.399 . S
C1651 C1652 1.376 . S
C1652 H1639 0.930 . S
C1652 C1651 1.376 . S
C1652 C1653 1.388 . S
C1653 H1640 0.930 . S
C1653 C1652 1.388 . S
C1653 C1654 1.390 . S
C1654 C1653 1.390 . S
C1654 C1655 1.394 . S
C1654 C1660 1.465 . S
C1655 C1650 1.399 . S
C1655 C1654 1.394 . S
C1655 C1656 1.516 . S
C1656 C1655 1.516 . S
C1656 C1657 1.502 . S
C1656 C1658 1.561 . S
C1656 C1659 1.526 . S
C1657 H1641 0.959 . S
C1657 H1642 0.959 . S
C1657 H1643 0.961 . S
C1657 C1656 1.502 . S
C1658 H1644 0.960 . S
C1658 H1645 0.961 . S
C1658 H1646 0.959 . S
C1658 C1656 1.561 . S
C1659 C1656 1.526 . S
C1659 C1660 1.396 . S
C1659 C1664 1.390 . S
C1660 C1654 1.465 . S
C1660 C1659 1.396 . S
C1660 C1661 1.399 . S
C1661 H1647 0.929 . S
C1661 C1660 1.399 . S
C1661 C1662 1.385 . S
C1662 H1648 0.931 . S
C1662 C1661 1.385 . S
C1662 C1663 1.389 . S
C1663 C1662 1.389 . S
C1663 C1664 1.387 . S
C1664 H1649 0.930 . S
C1664 C1659 1.390 . S
C1664 C1663 1.387 . S
H1665 C1677 0.930 . S
H1666 C1679 0.930 . S
H1667 C1680 0.930 . S
H1668 C1684 0.959 . S
H1669 C1684 0.959 . S
H1670 C1684 0.961 . S
H1671 C1685 0.960 . S
H1672 C1685 0.961 . S
H1673 C1685 0.959 . S
H1674 C1688 0.929 . S
H1675 C1689 0.931 . S
H1676 C1691 0.930 . S
C1677 H1665 0.930 . S
C1677 C1678 1.399 . S
C1677 C1682 1.399 . S
C1678 C1677 1.399 . S
C1678 C1679 1.376 . S
C1679 H1666 0.930 . S
C1679 C1678 1.376 . S
C1679 C1680 1.388 . S
C1680 H1667 0.930 . S
C1680 C1679 1.388 . S
C1680 C1681 1.390 . S
C1681 C1680 1.390 . S
C1681 C1682 1.394 . S
C1681 C1687 1.465 . S
C1682 C1677 1.399 . S
C1682 C1681 1.394 . S
C1682 C1683 1.516 . S
C1683 C1682 1.516 . S
C1683 C1684 1.502 . S
C1683 C1685 1.561 . S
C1683 C1686 1.526 . S
C1684 H1668 0.959 . S
C1684 H1669 0.959 . S
C1684 H1670 0.961 . S
C1684 C1683 1.502 . S
C1685 H1671 0.960 . S
C1685 H1672 0.961 . S
C1685 H1673 0.959 . S
C1685 C1683 1.561 . S
C1686 C1683 1.526 . S
C1686 C1687 1.396 . S
C1686 C1691 1.390 . S
C1687 C1681 1.465 . S
C1687 C1686 1.396 . S
C1687 C1688 1.399 . S
C1688 H1674 0.929 . S
C1688 C1687 1.399 . S
C1688 C1689 1.385 . S
C1689 H1675 0.931 . S
C1689 C1688 1.385 . S
C1689 C1690 1.389 . S
C1690 C1689 1.389 . S
C1690 C1691 1.387 . S
C1691 H1676 0.930 . S
C1691 C1686 1.390 . S
C1691 C1690 1.387 . S
H1692 C1704 0.930 . S
H1693 C1706 0.930 . S
H1694 C1707 0.930 . S
H1695 C1711 0.959 . S
H1696 C1711 0.959 . S
H1697 C1711 0.961 . S
H1698 C1712 0.960 . S
H1699 C1712 0.961 . S
H1700 C1712 0.959 . S
H1701 C1715 0.929 . S
H1702 C1716 0.931 . S
H1703 C1718 0.930 . S
C1704 H1692 0.930 . S
C1704 C1705 1.399 . S
C1704 C1709 1.399 . S
C1705 C1704 1.399 . S
C1705 C1706 1.376 . S
C1706 H1693 0.930 . S
C1706 C1705 1.376 . S
C1706 C1707 1.388 . S
C1707 H1694 0.930 . S
C1707 C1706 1.388 . S
C1707 C1708 1.390 . S
C1708 C1707 1.390 . S
C1708 C1709 1.394 . S
C1708 C1714 1.465 . S
C1709 C1704 1.399 . S
C1709 C1708 1.394 . S
C1709 C1710 1.516 . S
C1710 C1709 1.516 . S
C1710 C1711 1.502 . S
C1710 C1712 1.561 . S
C1710 C1713 1.526 . S
C1711 H1695 0.959 . S
C1711 H1696 0.959 . S
C1711 H1697 0.961 . S
C1711 C1710 1.502 . S
C1712 H1698 0.960 . S
C1712 H1699 0.961 . S
C1712 H1700 0.959 . S
C1712 C1710 1.561 . S
C1713 C1710 1.526 . S
C1713 C1714 1.396 . S
C1713 C1718 1.390 . S
C1714 C1708 1.465 . S
C1714 C1713 1.396 . S
C1714 C1715 1.399 . S
C1715 H1701 0.929 . S
C1715 C1714 1.399 . S
C1715 C1716 1.385 . S
C1716 H1702 0.931 . S
C1716 C1715 1.385 . S
C1716 C1717 1.389 . S
C1717 C1716 1.389 . S
C1717 C1718 1.387 . S
C1718 H1703 0.930 . S
C1718 C1713 1.390 . S
C1718 C1717 1.387 . S
H1719 C1731 0.930 . S
H1720 C1733 0.930 . S
H1721 C1734 0.930 . S
H1722 C1738 0.959 . S
H1723 C1738 0.959 . S
H1724 C1738 0.961 . S
H1725 C1739 0.960 . S
H1726 C1739 0.961 . S
H1727 C1739 0.959 . S
H1728 C1742 0.929 . S
H1729 C1743 0.931 . S
H1730 C1745 0.930 . S
C1731 H1719 0.930 . S
C1731 C1732 1.399 . S
C1731 C1736 1.399 . S
C1732 C1731 1.399 . S
C1732 C1733 1.376 . S
C1733 H1720 0.930 . S
C1733 C1732 1.376 . S
C1733 C1734 1.388 . S
C1734 H1721 0.930 . S
C1734 C1733 1.388 . S
C1734 C1735 1.390 . S
C1735 C1734 1.390 . S
C1735 C1736 1.394 . S
C1735 C1741 1.465 . S
C1736 C1731 1.399 . S
C1736 C1735 1.394 . S
C1736 C1737 1.516 . S
C1737 C1736 1.516 . S
C1737 C1738 1.502 . S
C1737 C1739 1.561 . S
C1737 C1740 1.526 . S
C1738 H1722 0.959 . S
C1738 H1723 0.959 . S
C1738 H1724 0.961 . S
C1738 C1737 1.502 . S
C1739 H1725 0.960 . S
C1739 H1726 0.961 . S
C1739 H1727 0.959 . S
C1739 C1737 1.561 . S
C1740 C1737 1.526 . S
C1740 C1741 1.396 . S
C1740 C1745 1.390 . S
C1741 C1735 1.465 . S
C1741 C1740 1.396 . S
C1741 C1742 1.399 . S
C1742 H1728 0.929 . S
C1742 C1741 1.399 . S
C1742 C1743 1.385 . S
C1743 H1729 0.931 . S
C1743 C1742 1.385 . S
C1743 C1744 1.389 . S
C1744 C1743 1.389 . S
C1744 C1745 1.387 . S
C1745 H1730 0.930 . S
C1745 C1740 1.390 . S
C1745 C1744 1.387 . S
H1746 C1758 0.930 . S
H1747 C1760 0.930 . S
H1748 C1761 0.930 . S
H1749 C1765 0.959 . S
H1750 C1765 0.959 . S
H1751 C1765 0.961 . S
H1752 C1766 0.960 . S
H1753 C1766 0.961 . S
H1754 C1766 0.959 . S
H1755 C1769 0.929 . S
H1756 C1770 0.931 . S
H1757 C1772 0.930 . S
C1758 H1746 0.930 . S
C1758 C1759 1.399 . S
C1758 C1763 1.399 . S
C1759 C1758 1.399 . S
C1759 C1760 1.376 . S
C1760 H1747 0.930 . S
C1760 C1759 1.376 . S
C1760 C1761 1.388 . S
C1761 H1748 0.930 . S
C1761 C1760 1.388 . S
C1761 C1762 1.390 . S
C1762 C1761 1.390 . S
C1762 C1763 1.394 . S
C1762 C1768 1.465 . S
C1763 C1758 1.399 . S
C1763 C1762 1.394 . S
C1763 C1764 1.516 . S
C1764 C1763 1.516 . S
C1764 C1765 1.502 . S
C1764 C1766 1.561 . S
C1764 C1767 1.526 . S
C1765 H1749 0.959 . S
C1765 H1750 0.959 . S
C1765 H1751 0.961 . S
C1765 C1764 1.502 . S
C1766 H1752 0.960 . S
C1766 H1753 0.961 . S
C1766 H1754 0.959 . S
C1766 C1764 1.561 . S
C1767 C1764 1.526 . S
C1767 C1768 1.396 . S
C1767 C1772 1.390 . S
C1768 C1762 1.465 . S
C1768 C1767 1.396 . S
C1768 C1769 1.399 . S
C1769 H1755 0.929 . S
C1769 C1768 1.399 . S
C1769 C1770 1.385 . S
C1770 H1756 0.931 . S
C1770 C1769 1.385 . S
C1770 C1771 1.389 . S
C1771 C1770 1.389 . S
C1771 C1772 1.387 . S
C1772 H1757 0.930 . S
C1772 C1767 1.390 . S
C1772 C1771 1.387 . S
H1773 C1785 0.930 . S
H1774 C1787 0.930 . S
H1775 C1788 0.930 . S
H1776 C1792 0.959 . S
H1777 C1792 0.959 . S
H1778 C1792 0.961 . S
H1779 C1793 0.960 . S
H1780 C1793 0.961 . S
H1781 C1793 0.959 . S
H1782 C1796 0.929 . S
H1783 C1797 0.931 . S
H1784 C1799 0.930 . S
C1785 H1773 0.930 . S
C1785 C1786 1.399 . S
C1785 C1790 1.399 . S
C1786 C1785 1.399 . S
C1786 C1787 1.376 . S
C1787 H1774 0.930 . S
C1787 C1786 1.376 . S
C1787 C1788 1.388 . S
C1788 H1775 0.930 . S
C1788 C1787 1.388 . S
C1788 C1789 1.390 . S
C1789 C1788 1.390 . S
C1789 C1790 1.394 . S
C1789 C1795 1.465 . S
C1790 C1785 1.399 . S
C1790 C1789 1.394 . S
C1790 C1791 1.516 . S
C1791 C1790 1.516 . S
C1791 C1792 1.502 . S
C1791 C1793 1.561 . S
C1791 C1794 1.526 . S
C1792 H1776 0.959 . S
C1792 H1777 0.959 . S
C1792 H1778 0.961 . S
C1792 C1791 1.502 . S
C1793 H1779 0.960 . S
C1793 H1780 0.961 . S
C1793 H1781 0.959 . S
C1793 C1791 1.561 . S
C1794 C1791 1.526 . S
C1794 C1795 1.396 . S
C1794 C1799 1.390 . S
C1795 C1789 1.465 . S
C1795 C1794 1.396 . S
C1795 C1796 1.399 . S
C1796 H1782 0.929 . S
C1796 C1795 1.399 . S
C1796 C1797 1.385 . S
C1797 H1783 0.931 . S
C1797 C1796 1.385 . S
C1797 C1798 1.389 . S
C1798 C1797 1.389 . S
C1798 C1799 1.387 . S
C1799 H1784 0.930 . S
C1799 C1794 1.390 . S
C1799 C1798 1.387 . S
H1800 C1812 0.930 . S
H1801 C1814 0.930 . S
H1802 C1815 0.930 . S
H1803 C1819 0.959 . S
H1804 C1819 0.959 . S
H1805 C1819 0.961 . S
H1806 C1820 0.960 . S
H1807 C1820 0.961 . S
H1808 C1820 0.959 . S
H1809 C1823 0.929 . S
H1810 C1824 0.931 . S
H1811 C1826 0.930 . S
C1812 H1800 0.930 . S
C1812 C1813 1.399 . S
C1812 C1817 1.399 . S
C1813 C1812 1.399 . S
C1813 C1814 1.376 . S
C1814 H1801 0.930 . S
C1814 C1813 1.376 . S
C1814 C1815 1.388 . S
C1815 H1802 0.930 . S
C1815 C1814 1.388 . S
C1815 C1816 1.390 . S
C1816 C1815 1.390 . S
C1816 C1817 1.394 . S
C1816 C1822 1.465 . S
C1817 C1812 1.399 . S
C1817 C1816 1.394 . S
C1817 C1818 1.516 . S
C1818 C1817 1.516 . S
C1818 C1819 1.502 . S
C1818 C1820 1.561 . S
C1818 C1821 1.526 . S
C1819 H1803 0.959 . S
C1819 H1804 0.959 . S
C1819 H1805 0.961 . S
C1819 C1818 1.502 . S
C1820 H1806 0.960 . S
C1820 H1807 0.961 . S
C1820 H1808 0.959 . S
C1820 C1818 1.561 . S
C1821 C1818 1.526 . S
C1821 C1822 1.396 . S
C1821 C1826 1.390 . S
C1822 C1816 1.465 . S
C1822 C1821 1.396 . S
C1822 C1823 1.399 . S
C1823 H1809 0.929 . S
C1823 C1822 1.399 . S
C1823 C1824 1.385 . S
C1824 H1810 0.931 . S
C1824 C1823 1.385 . S
C1824 C1825 1.389 . S
C1825 C1824 1.389 . S
C1825 C1826 1.387 . S
C1826 H1811 0.930 . S
C1826 C1821 1.390 . S
C1826 C1825 1.387 . S
H1827 C1839 0.930 . S
H1828 C1841 0.930 . S
H1829 C1842 0.930 . S
H1830 C1846 0.959 . S
H1831 C1846 0.959 . S
H1832 C1846 0.961 . S
H1833 C1847 0.960 . S
H1834 C1847 0.961 . S
H1835 C1847 0.959 . S
H1836 C1850 0.929 . S
H1837 C1851 0.931 . S
H1838 C1853 0.930 . S
C1839 H1827 0.930 . S
C1839 C1840 1.399 . S
C1839 C1844 1.399 . S
C1840 C1839 1.399 . S
C1840 C1841 1.376 . S
C1841 H1828 0.930 . S
C1841 C1840 1.376 . S
C1841 C1842 1.388 . S
C1842 H1829 0.930 . S
C1842 C1841 1.388 . S
C1842 C1843 1.390 . S
C1843 C1842 1.390 . S
C1843 C1844 1.394 . S
C1843 C1849 1.465 . S
C1844 C1839 1.399 . S
C1844 C1843 1.394 . S
C1844 C1845 1.516 . S
C1845 C1844 1.516 . S
C1845 C1846 1.502 . S
C1845 C1847 1.561 . S
C1845 C1848 1.526 . S
C1846 H1830 0.959 . S
C1846 H1831 0.959 . S
C1846 H1832 0.961 . S
C1846 C1845 1.502 . S
C1847 H1833 0.960 . S
C1847 H1834 0.961 . S
C1847 H1835 0.959 . S
C1847 C1845 1.561 . S
C1848 C1845 1.526 . S
C1848 C1849 1.396 . S
C1848 C1853 1.390 . S
C1849 C1843 1.465 . S
C1849 C1848 1.396 . S
C1849 C1850 1.399 . S
C1850 H1836 0.929 . S
C1850 C1849 1.399 . S
C1850 C1851 1.385 . S
C1851 H1837 0.931 . S
C1851 C1850 1.385 . S
C1851 C1852 1.389 . S
C1852 C1851 1.389 . S
C1852 C1853 1.387 . S
C1853 H1838 0.930 . S
C1853 C1848 1.390 . S
C1853 C1852 1.387 . S
H1854 C1866 0.930 . S
H1855 C1868 0.930 . S
H1856 C1869 0.930 . S
H1857 C1873 0.959 . S
H1858 C1873 0.959 . S
H1859 C1873 0.961 . S
H1860 C1874 0.960 . S
H1861 C1874 0.961 . S
H1862 C1874 0.959 . S
H1863 C1877 0.929 . S
H1864 C1878 0.931 . S
H1865 C1880 0.930 . S
C1866 H1854 0.930 . S
C1866 C1867 1.399 . S
C1866 C1871 1.399 . S
C1867 C1866 1.399 . S
C1867 C1868 1.376 . S
C1868 H1855 0.930 . S
C1868 C1867 1.376 . S
C1868 C1869 1.388 . S
C1869 H1856 0.930 . S
C1869 C1868 1.388 . S
C1869 C1870 1.390 . S
C1870 C1869 1.390 . S
C1870 C1871 1.394 . S
C1870 C1876 1.465 . S
C1871 C1866 1.399 . S
C1871 C1870 1.394 . S
C1871 C1872 1.516 . S
C1872 C1871 1.516 . S
C1872 C1873 1.502 . S
C1872 C1874 1.561 . S
C1872 C1875 1.526 . S
C1873 H1857 0.959 . S
C1873 H1858 0.959 . S
C1873 H1859 0.961 . S
C1873 C1872 1.502 . S
C1874 H1860 0.960 . S
C1874 H1861 0.961 . S
C1874 H1862 0.959 . S
C1874 C1872 1.561 . S
C1875 C1872 1.526 . S
C1875 C1876 1.396 . S
C1875 C1880 1.390 . S
C1876 C1870 1.465 . S
C1876 C1875 1.396 . S
C1876 C1877 1.399 . S
C1877 H1863 0.929 . S
C1877 C1876 1.399 . S
C1877 C1878 1.385 . S
C1878 H1864 0.931 . S
C1878 C1877 1.385 . S
C1878 C1879 1.389 . S
C1879 C1878 1.389 . S
C1879 C1880 1.387 . S
C1880 H1865 0.930 . S
C1880 C1875 1.390 . S
C1880 C1879 1.387 . S
H1881 C1893 0.930 . S
H1882 C1895 0.930 . S
H1883 C1896 0.930 . S
H1884 C1900 0.959 . S
H1885 C1900 0.959 . S
H1886 C1900 0.961 . S
H1887 C1901 0.960 . S
H1888 C1901 0.961 . S
H1889 C1901 0.959 . S
H1890 C1904 0.929 . S
H1891 C1905 0.931 . S
H1892 C1907 0.930 . S
C1893 H1881 0.930 . S
C1893 C1894 1.399 . S
C1893 C1898 1.399 . S
C1894 C1893 1.399 . S
C1894 C1895 1.376 . S
C1895 H1882 0.930 . S
C1895 C1894 1.376 . S
C1895 C1896 1.388 . S
C1896 H1883 0.930 . S
C1896 C1895 1.388 . S
C1896 C1897 1.390 . S
C1897 C1896 1.390 . S
C1897 C1898 1.394 . S
C1897 C1903 1.465 . S
C1898 C1893 1.399 . S
C1898 C1897 1.394 . S
C1898 C1899 1.516 . S
C1899 C1898 1.516 . S
C1899 C1900 1.502 . S
C1899 C1901 1.561 . S
C1899 C1902 1.526 . S
C1900 H1884 0.959 . S
C1900 H1885 0.959 . S
C1900 H1886 0.961 . S
C1900 C1899 1.502 . S
C1901 H1887 0.960 . S
C1901 H1888 0.961 . S
C1901 H1889 0.959 . S
C1901 C1899 1.561 . S
C1902 C1899 1.526 . S
C1902 C1903 1.396 . S
C1902 C1907 1.390 . S
C1903 C1897 1.465 . S
C1903 C1902 1.396 . S
C1903 C1904 1.399 . S
C1904 H1890 0.929 . S
C1904 C1903 1.399 . S
C1904 C1905 1.385 . S
C1905 H1891 0.931 . S
C1905 C1904 1.385 . S
C1905 C1906 1.389 . S
C1906 C1905 1.389 . S
C1906 C1907 1.387 . S
C1907 H1892 0.930 . S
C1907 C1902 1.390 . S
C1907 C1906 1.387 . S
H1908 C1920 0.930 . S
H1909 C1922 0.930 . S
H1910 C1923 0.930 . S
H1911 C1927 0.959 . S
H1912 C1927 0.959 . S
H1913 C1927 0.961 . S
H1914 C1928 0.960 . S
H1915 C1928 0.961 . S
H1916 C1928 0.959 . S
H1917 C1931 0.929 . S
H1918 C1932 0.931 . S
H1919 C1934 0.930 . S
C1920 H1908 0.930 . S
C1920 C1921 1.399 . S
C1920 C1925 1.399 . S
C1921 C1920 1.399 . S
C1921 C1922 1.376 . S
C1922 H1909 0.930 . S
C1922 C1921 1.376 . S
C1922 C1923 1.388 . S
C1923 H1910 0.930 . S
C1923 C1922 1.388 . S
C1923 C1924 1.390 . S
C1924 C1923 1.390 . S
C1924 C1925 1.394 . S
C1924 C1930 1.465 . S
C1925 C1920 1.399 . S
C1925 C1924 1.394 . S
C1925 C1926 1.516 . S
C1926 C1925 1.516 . S
C1926 C1927 1.502 . S
C1926 C1928 1.561 . S
C1926 C1929 1.526 . S
C1927 H1911 0.959 . S
C1927 H1912 0.959 . S
C1927 H1913 0.961 . S
C1927 C1926 1.502 . S
C1928 H1914 0.960 . S
C1928 H1915 0.961 . S
C1928 H1916 0.959 . S
C1928 C1926 1.561 . S
C1929 C1926 1.526 . S
C1929 C1930 1.396 . S
C1929 C1934 1.390 . S
C1930 C1924 1.465 . S
C1930 C1929 1.396 . S
C1930 C1931 1.399 . S
C1931 H1917 0.929 . S
C1931 C1930 1.399 . S
C1931 C1932 1.385 . S
C1932 H1918 0.931 . S
C1932 C1931 1.385 . S
C1932 C1933 1.389 . S
C1933 C1932 1.389 . S
C1933 C1934 1.387 . S
C1934 H1919 0.930 . S
C1934 C1929 1.390 . S
C1934 C1933 1.387 . S
H1935 C1947 0.930 . S
H1936 C1949 0.930 . S
H1937 C1950 0.930 . S
H1938 C1954 0.959 . S
H1939 C1954 0.959 . S
H1940 C1954 0.961 . S
H1941 C1955 0.960 . S
H1942 C1955 0.961 . S
H1943 C1955 0.959 . S
H1944 C1958 0.929 . S
H1945 C1959 0.931 . S
H1946 C1961 0.930 . S
C1947 H1935 0.930 . S
C1947 C1948 1.399 . S
C1947 C1952 1.399 . S
C1948 C1947 1.399 . S
C1948 C1949 1.376 . S
C1949 H1936 0.930 . S
C1949 C1948 1.376 . S
C1949 C1950 1.388 . S
C1950 H1937 0.930 . S
C1950 C1949 1.388 . S
C1950 C1951 1.390 . S
C1951 C1950 1.390 . S
C1951 C1952 1.394 . S
C1951 C1957 1.465 . S
C1952 C1947 1.399 . S
C1952 C1951 1.394 . S
C1952 C1953 1.516 . S
C1953 C1952 1.516 . S
C1953 C1954 1.502 . S
C1953 C1955 1.561 . S
C1953 C1956 1.526 . S
C1954 H1938 0.959 . S
C1954 H1939 0.959 . S
C1954 H1940 0.961 . S
C1954 C1953 1.502 . S
C1955 H1941 0.960 . S
C1955 H1942 0.961 . S
C1955 H1943 0.959 . S
C1955 C1953 1.561 . S
C1956 C1953 1.526 . S
C1956 C1957 1.396 . S
C1956 C1961 1.390 . S
C1957 C1951 1.465 . S
C1957 C1956 1.396 . S
C1957 C1958 1.399 . S
C1958 H1944 0.929 . S
C1958 C1957 1.399 . S
C1958 C1959 1.385 . S
C1959 H1945 0.931 . S
C1959 C1958 1.385 . S
C1959 C1960 1.389 . S
C1960 C1959 1.389 . S
C1960 C1961 1.387 . S
C1961 H1946 0.930 . S
C1961 C1956 1.390 . S
C1961 C1960 1.387 . S
H1962 C1974 0.930 . S
H1963 C1976 0.930 . S
H1964 C1977 0.930 . S
H1965 C1981 0.959 . S
H1966 C1981 0.959 . S
H1967 C1981 0.961 . S
H1968 C1982 0.960 . S
H1969 C1982 0.961 . S
H1970 C1982 0.959 . S
H1971 C1985 0.929 . S
H1972 C1986 0.931 . S
H1973 C1988 0.930 . S
C1974 H1962 0.930 . S
C1974 C1975 1.399 . S
C1974 C1979 1.399 . S
C1975 C1974 1.399 . S
C1975 C1976 1.376 . S
C1976 H1963 0.930 . S
C1976 C1975 1.376 . S
C1976 C1977 1.388 . S
C1977 H1964 0.930 . S
C1977 C1976 1.388 . S
C1977 C1978 1.390 . S
C1978 C1977 1.390 . S
C1978 C1979 1.394 . S
C1978 C1984 1.465 . S
C1979 C1974 1.399 . S
C1979 C1978 1.394 . S
C1979 C1980 1.516 . S
C1980 C1979 1.516 . S
C1980 C1981 1.502 . S
C1980 C1982 1.561 . S
C1980 C1983 1.526 . S
C1981 H1965 0.959 . S
C1981 H1966 0.959 . S
C1981 H1967 0.961 . S
C1981 C1980 1.502 . S
C1982 H1968 0.960 . S
C1982 H1969 0.961 . S
C1982 H1970 0.959 . S
C1982 C1980 1.561 . S
C1983 C1980 1.526 . S
C1983 C1984 1.396 . S
C1983 C1988 1.390 . S
C1984 C1978 1.465 . S
C1984 C1983 1.396 . S
C1984 C1985 1.399 . S
C1985 H1971 0.929 . S
C1985 C1984 1.399 . S
C1985 C1986 1.385 . S
C1986 H1972 0.931 . S
C1986 C1985 1.385 . S
C1986 C1987 1.389 . S
C1987 C1986 1.389 . S
C1987 C1988 1.387 . S
C1988 H1973 0.930 . S
C1988 C1983 1.390 . S
C1988 C1987 1.387 . S
H1989 C2001 0.930 . S
H1990 C2003 0.930 . S
H1991 C2004 0.930 . S
H1992 C2008 0.959 . S
H1993 C2008 0.959 . S
H1994 C2008 0.961 . S
H1995 C2009 0.960 . S
H1996 C2009 0.961 . S
H1997 C2009 0.959 . S
H1998 C2012 0.929 . S
H1999 C2013 0.931 . S
H2000 C2015 0.930 . S
C2001 H1989 0.930 . S
C2001 C2002 1.399 . S
C2001 C2006 1.399 . S
C2002 C2001 1.399 . S
C2002 C2003 1.376 . S
C2003 H1990 0.930 . S
C2003 C2002 1.376 . S
C2003 C2004 1.388 . S
C2004 H1991 0.930 . S
C2004 C2003 1.388 . S
C2004 C2005 1.390 . S
C2005 C2004 1.390 . S
C2005 C2006 1.394 . S
C2005 C2011 1.465 . S
C2006 C2001 1.399 . S
C2006 C2005 1.394 . S
C2006 C2007 1.516 . S
C2007 C2006 1.516 . S
C2007 C2008 1.502 . S
C2007 C2009 1.561 . S
C2007 C2010 1.526 . S
C2008 H1992 0.959 . S
C2008 H1993 0.959 . S
C2008 H1994 0.961 . S
C2008 C2007 1.502 . S
C2009 H1995 0.960 . S
C2009 H1996 0.961 . S
C2009 H1997 0.959 . S
C2009 C2007 1.561 . S
C2010 C2007 1.526 . S
C2010 C2011 1.396 . S
C2010 C2015 1.390 . S
C2011 C2005 1.465 . S
C2011 C2010 1.396 . S
C2011 C2012 1.399 . S
C2012 H1998 0.929 . S
C2012 C2011 1.399 . S
C2012 C2013 1.385 . S
C2013 H1999 0.931 . S
C2013 C2012 1.385 . S
C2013 C2014 1.389 . S
C2014 C2013 1.389 . S
C2014 C2015 1.387 . S
C2015 H2000 0.930 . S
C2015 C2010 1.390 . S
C2015 C2014 1.387 . S
H2016 C2028 0.930 . S
H2017 C2030 0.930 . S
H2018 C2031 0.930 . S
H2019 C2035 0.959 . S
H2020 C2035 0.959 . S
H2021 C2035 0.961 . S
H2022 C2036 0.960 . S
H2023 C2036 0.961 . S
H2024 C2036 0.959 . S
H2025 C2039 0.929 . S
H2026 C2040 0.931 . S
H2027 C2042 0.930 . S
C2028 H2016 0.930 . S
C2028 C2029 1.399 . S
C2028 C2033 1.399 . S
C2029 C2028 1.399 . S
C2029 C2030 1.376 . S
C2030 H2017 0.930 . S
C2030 C2029 1.376 . S
C2030 C2031 1.388 . S
C2031 H2018 0.930 . S
C2031 C2030 1.388 . S
C2031 C2032 1.390 . S
C2032 C2031 1.390 . S
C2032 C2033 1.394 . S
C2032 C2038 1.465 . S
C2033 C2028 1.399 . S
C2033 C2032 1.394 . S
C2033 C2034 1.516 . S
C2034 C2033 1.516 . S
C2034 C2035 1.502 . S
C2034 C2036 1.561 . S
C2034 C2037 1.526 . S
C2035 H2019 0.959 . S
C2035 H2020 0.959 . S
C2035 H2021 0.961 . S
C2035 C2034 1.502 . S
C2036 H2022 0.960 . S
C2036 H2023 0.961 . S
C2036 H2024 0.959 . S
C2036 C2034 1.561 . S
C2037 C2034 1.526 . S
C2037 C2038 1.396 . S
C2037 C2042 1.390 . S
C2038 C2032 1.465 . S
C2038 C2037 1.396 . S
C2038 C2039 1.399 . S
C2039 H2025 0.929 . S
C2039 C2038 1.399 . S
C2039 C2040 1.385 . S
C2040 H2026 0.931 . S
C2040 C2039 1.385 . S
C2040 C2041 1.389 . S
C2041 C2040 1.389 . S
C2041 C2042 1.387 . S
C2042 H2027 0.930 . S
C2042 C2037 1.390 . S
C2042 C2041 1.387 . S
H2043 C2055 0.930 . S
H2044 C2057 0.930 . S
H2045 C2058 0.930 . S
H2046 C2062 0.959 . S
H2047 C2062 0.959 . S
H2048 C2062 0.961 . S
H2049 C2063 0.960 . S
H2050 C2063 0.961 . S
H2051 C2063 0.959 . S
H2052 C2066 0.929 . S
H2053 C2067 0.931 . S
H2054 C2069 0.930 . S
C2055 H2043 0.930 . S
C2055 C2056 1.399 . S
C2055 C2060 1.399 . S
C2056 C2055 1.399 . S
C2056 C2057 1.376 . S
C2057 H2044 0.930 . S
C2057 C2056 1.376 . S
C2057 C2058 1.388 . S
C2058 H2045 0.930 . S
C2058 C2057 1.388 . S
C2058 C2059 1.390 . S
C2059 C2058 1.390 . S
C2059 C2060 1.394 . S
C2059 C2065 1.465 . S
C2060 C2055 1.399 . S
C2060 C2059 1.394 . S
C2060 C2061 1.516 . S
C2061 C2060 1.516 . S
C2061 C2062 1.502 . S
C2061 C2063 1.561 . S
C2061 C2064 1.526 . S
C2062 H2046 0.959 . S
C2062 H2047 0.959 . S
C2062 H2048 0.961 . S
C2062 C2061 1.502 . S
C2063 H2049 0.960 . S
C2063 H2050 0.961 . S
C2063 H2051 0.959 . S
C2063 C2061 1.561 . S
C2064 C2061 1.526 . S
C2064 C2065 1.396 . S
C2064 C2069 1.390 . S
C2065 C2059 1.465 . S
C2065 C2064 1.396 . S
C2065 C2066 1.399 . S
C2066 H2052 0.929 . S
C2066 C2065 1.399 . S
C2066 C2067 1.385 . S
C2067 H2053 0.931 . S
C2067 C2066 1.385 . S
C2067 C2068 1.389 . S
C2068 C2067 1.389 . S
C2068 C2069 1.387 . S
C2069 H2054 0.930 . S
C2069 C2064 1.390 . S
C2069 C2068 1.387 . S
H2070 C2082 0.930 . S
H2071 C2084 0.930 . S
H2072 C2085 0.930 . S
H2073 C2089 0.959 . S
H2074 C2089 0.959 . S
H2075 C2089 0.961 . S
H2076 C2090 0.960 . S
H2077 C2090 0.961 . S
H2078 C2090 0.959 . S
H2079 C2093 0.929 . S
H2080 C2094 0.931 . S
H2081 C2096 0.930 . S
C2082 H2070 0.930 . S
C2082 C2083 1.399 . S
C2082 C2087 1.399 . S
C2083 C2082 1.399 . S
C2083 C2084 1.376 . S
C2084 H2071 0.930 . S
C2084 C2083 1.376 . S
C2084 C2085 1.388 . S
C2085 H2072 0.930 . S
C2085 C2084 1.388 . S
C2085 C2086 1.390 . S
C2086 C2085 1.390 . S
C2086 C2087 1.394 . S
C2086 C2092 1.465 . S
C2087 C2082 1.399 . S
C2087 C2086 1.394 . S
C2087 C2088 1.516 . S
C2088 C2087 1.516 . S
C2088 C2089 1.502 . S
C2088 C2090 1.561 . S
C2088 C2091 1.526 . S
C2089 H2073 0.959 . S
C2089 H2074 0.959 . S
C2089 H2075 0.961 . S
C2089 C2088 1.502 . S
C2090 H2076 0.960 . S
C2090 H2077 0.961 . S
C2090 H2078 0.959 . S
C2090 C2088 1.561 . S
C2091 C2088 1.526 . S
C2091 C2092 1.396 . S
C2091 C2096 1.390 . S
C2092 C2086 1.465 . S
C2092 C2091 1.396 . S
C2092 C2093 1.399 . S
C2093 H2079 0.929 . S
C2093 C2092 1.399 . S
C2093 C2094 1.385 . S
C2094 H2080 0.931 . S
C2094 C2093 1.385 . S
C2094 C2095 1.389 . S
C2095 C2094 1.389 . S
C2095 C2096 1.387 . S
C2096 H2081 0.930 . S
C2096 C2091 1.390 . S
C2096 C2095 1.387 . S
H2097 C2109 0.930 . S
H2098 C2111 0.930 . S
H2099 C2112 0.930 . S
H2100 C2116 0.959 . S
H2101 C2116 0.959 . S
H2102 C2116 0.961 . S
H2103 C2117 0.960 . S
H2104 C2117 0.961 . S
H2105 C2117 0.959 . S
H2106 C2120 0.929 . S
H2107 C2121 0.931 . S
H2108 C2123 0.930 . S
C2109 H2097 0.930 . S
C2109 C2110 1.399 . S
C2109 C2114 1.399 . S
C2110 C2109 1.399 . S
C2110 C2111 1.376 . S
C2111 H2098 0.930 . S
C2111 C2110 1.376 . S
C2111 C2112 1.388 . S
C2112 H2099 0.930 . S
C2112 C2111 1.388 . S
C2112 C2113 1.390 . S
C2113 C2112 1.390 . S
C2113 C2114 1.394 . S
C2113 C2119 1.465 . S
C2114 C2109 1.399 . S
C2114 C2113 1.394 . S
C2114 C2115 1.516 . S
C2115 C2114 1.516 . S
C2115 C2116 1.502 . S
C2115 C2117 1.561 . S
C2115 C2118 1.526 . S
C2116 H2100 0.959 . S
C2116 H2101 0.959 . S
C2116 H2102 0.961 . S
C2116 C2115 1.502 . S
C2117 H2103 0.960 . S
C2117 H2104 0.961 . S
C2117 H2105 0.959 . S
C2117 C2115 1.561 . S
C2118 C2115 1.526 . S
C2118 C2119 1.396 . S
C2118 C2123 1.390 . S
C2119 C2113 1.465 . S
C2119 C2118 1.396 . S
C2119 C2120 1.399 . S
C2120 H2106 0.929 . S
C2120 C2119 1.399 . S
C2120 C2121 1.385 . S
C2121 H2107 0.931 . S
C2121 C2120 1.385 . S
C2121 C2122 1.389 . S
C2122 C2121 1.389 . S
C2122 C2123 1.387 . S
C2123 H2108 0.930 . S
C2123 C2118 1.390 . S
C2123 C2122 1.387 . S
H2124 C2136 0.930 . S
H2125 C2138 0.930 . S
H2126 C2139 0.930 . S
H2127 C2143 0.959 . S
H2128 C2143 0.959 . S
H2129 C2143 0.961 . S
H2130 C2144 0.960 . S
H2131 C2144 0.961 . S
H2132 C2144 0.959 . S
H2133 C2147 0.929 . S
H2134 C2148 0.931 . S
H2135 C2150 0.930 . S
C2136 H2124 0.930 . S
C2136 C2137 1.399 . S
C2136 C2141 1.399 . S
C2137 C2136 1.399 . S
C2137 C2138 1.376 . S
C2138 H2125 0.930 . S
C2138 C2137 1.376 . S
C2138 C2139 1.388 . S
C2139 H2126 0.930 . S
C2139 C2138 1.388 . S
C2139 C2140 1.390 . S
C2140 C2139 1.390 . S
C2140 C2141 1.394 . S
C2140 C2146 1.465 . S
C2141 C2136 1.399 . S
C2141 C2140 1.394 . S
C2141 C2142 1.516 . S
C2142 C2141 1.516 . S
C2142 C2143 1.502 . S
C2142 C2144 1.561 . S
C2142 C2145 1.526 . S
C2143 H2127 0.959 . S
C2143 H2128 0.959 . S
C2143 H2129 0.961 . S
C2143 C2142 1.502 . S
C2144 H2130 0.960 . S
C2144 H2131 0.961 . S
C2144 H2132 0.959 . S
C2144 C2142 1.561 . S
C2145 C2142 1.526 . S
C2145 C2146 1.396 . S
C2145 C2150 1.390 . S
C2146 C2140 1.465 . S
C2146 C2145 1.396 . S
C2146 C2147 1.399 . S
C2147 H2133 0.929 . S
C2147 C2146 1.399 . S
C2147 C2148 1.385 . S
C2148 H2134 0.931 . S
C2148 C2147 1.385 . S
C2148 C2149 1.389 . S
C2149 C2148 1.389 . S
C2149 C2150 1.387 . S
C2150 H2135 0.930 . S
C2150 C2145 1.390 . S
C2150 C2149 1.387 . S
H2151 C2163 0.930 . S
H2152 C2165 0.930 . S
H2153 C2166 0.930 . S
H2154 C2170 0.959 . S
H2155 C2170 0.959 . S
H2156 C2170 0.961 . S
H2157 C2171 0.960 . S
H2158 C2171 0.961 . S
H2159 C2171 0.959 . S
H2160 C2174 0.929 . S
H2161 C2175 0.931 . S
H2162 C2177 0.930 . S
C2163 H2151 0.930 . S
C2163 C2164 1.399 . S
C2163 C2168 1.399 . S
C2164 C2163 1.399 . S
C2164 C2165 1.376 . S
C2165 H2152 0.930 . S
C2165 C2164 1.376 . S
C2165 C2166 1.388 . S
C2166 H2153 0.930 . S
C2166 C2165 1.388 . S
C2166 C2167 1.390 . S
C2167 C2166 1.390 . S
C2167 C2168 1.394 . S
C2167 C2173 1.465 . S
C2168 C2163 1.399 . S
C2168 C2167 1.394 . S
C2168 C2169 1.516 . S
C2169 C2168 1.516 . S
C2169 C2170 1.502 . S
C2169 C2171 1.561 . S
C2169 C2172 1.526 . S
C2170 H2154 0.959 . S
C2170 H2155 0.959 . S
C2170 H2156 0.961 . S
C2170 C2169 1.502 . S
C2171 H2157 0.960 . S
C2171 H2158 0.961 . S
C2171 H2159 0.959 . S
C2171 C2169 1.561 . S
C2172 C2169 1.526 . S
C2172 C2173 1.396 . S
C2172 C2177 1.390 . S
C2173 C2167 1.465 . S
C2173 C2172 1.396 . S
C2173 C2174 1.399 . S
C2174 H2160 0.929 . S
C2174 C2173 1.399 . S
C2174 C2175 1.385 . S
C2175 H2161 0.931 . S
C2175 C2174 1.385 . S
C2175 C2176 1.389 . S
C2176 C2175 1.389 . S
C2176 C2177 1.387 . S
C2177 H2162 0.930 . S
C2177 C2172 1.390 . S
C2177 C2176 1.387 . S
H2178 C2190 0.930 . S
H2179 C2192 0.930 . S
H2180 C2193 0.930 . S
H2181 C2197 0.959 . S
H2182 C2197 0.959 . S
H2183 C2197 0.961 . S
H2184 C2198 0.960 . S
H2185 C2198 0.961 . S
H2186 C2198 0.959 . S
H2187 C2201 0.929 . S
H2188 C2202 0.931 . S
H2189 C2204 0.930 . S
C2190 H2178 0.930 . S
C2190 C2191 1.399 . S
C2190 C2195 1.399 . S
C2191 C2190 1.399 . S
C2191 C2192 1.376 . S
C2192 H2179 0.930 . S
C2192 C2191 1.376 . S
C2192 C2193 1.388 . S
C2193 H2180 0.930 . S
C2193 C2192 1.388 . S
C2193 C2194 1.390 . S
C2194 C2193 1.390 . S
C2194 C2195 1.394 . S
C2194 C2200 1.465 . S
C2195 C2190 1.399 . S
C2195 C2194 1.394 . S
C2195 C2196 1.516 . S
C2196 C2195 1.516 . S
C2196 C2197 1.502 . S
C2196 C2198 1.561 . S
C2196 C2199 1.526 . S
C2197 H2181 0.959 . S
C2197 H2182 0.959 . S
C2197 H2183 0.961 . S
C2197 C2196 1.502 . S
C2198 H2184 0.960 . S
C2198 H2185 0.961 . S
C2198 H2186 0.959 . S
C2198 C2196 1.561 . S
C2199 C2196 1.526 . S
C2199 C2200 1.396 . S
C2199 C2204 1.390 . S
C2200 C2194 1.465 . S
C2200 C2199 1.396 . S
C2200 C2201 1.399 . S
C2201 H2187 0.929 . S
C2201 C2200 1.399 . S
C2201 C2202 1.385 . S
C2202 H2188 0.931 . S
C2202 C2201 1.385 . S
C2202 C2203 1.389 . S
C2203 C2202 1.389 . S
C2203 C2204 1.387 . S
C2204 H2189 0.930 . S
C2204 C2199 1.390 . S
C2204 C2203 1.387 . S
H2205 C2217 0.930 . S
H2206 C2219 0.930 . S
H2207 C2220 0.930 . S
H2208 C2224 0.959 . S
H2209 C2224 0.959 . S
H2210 C2224 0.961 . S
H2211 C2225 0.960 . S
H2212 C2225 0.961 . S
H2213 C2225 0.959 . S
H2214 C2228 0.929 . S
H2215 C2229 0.931 . S
H2216 C2231 0.930 . S
C2217 H2205 0.930 . S
C2217 C2218 1.399 . S
C2217 C2222 1.399 . S
C2218 C2217 1.399 . S
C2218 C2219 1.376 . S
C2219 H2206 0.930 . S
C2219 C2218 1.376 . S
C2219 C2220 1.388 . S
C2220 H2207 0.930 . S
C2220 C2219 1.388 . S
C2220 C2221 1.390 . S
C2221 C2220 1.390 . S
C2221 C2222 1.394 . S
C2221 C2227 1.465 . S
C2222 C2217 1.399 . S
C2222 C2221 1.394 . S
C2222 C2223 1.516 . S
C2223 C2222 1.516 . S
C2223 C2224 1.502 . S
C2223 C2225 1.561 . S
C2223 C2226 1.526 . S
C2224 H2208 0.959 . S
C2224 H2209 0.959 . S
C2224 H2210 0.961 . S
C2224 C2223 1.502 . S
C2225 H2211 0.960 . S
C2225 H2212 0.961 . S
C2225 H2213 0.959 . S
C2225 C2223 1.561 . S
C2226 C2223 1.526 . S
C2226 C2227 1.396 . S
C2226 C2231 1.390 . S
C2227 C2221 1.465 . S
C2227 C2226 1.396 . S
C2227 C2228 1.399 . S
C2228 H2214 0.929 . S
C2228 C2227 1.399 . S
C2228 C2229 1.385 . S
C2229 H2215 0.931 . S
C2229 C2228 1.385 . S
C2229 C2230 1.389 . S
C2230 C2229 1.389 . S
C2230 C2231 1.387 . S
C2231 H2216 0.930 . S
C2231 C2226 1.390 . S
C2231 C2230 1.387 . S
H2232 C2244 0.930 . S
H2233 C2246 0.930 . S
H2234 C2247 0.930 . S
H2235 C2251 0.959 . S
H2236 C2251 0.959 . S
H2237 C2251 0.961 . S
H2238 C2252 0.960 . S
H2239 C2252 0.961 . S
H2240 C2252 0.959 . S
H2241 C2255 0.929 . S
H2242 C2256 0.931 . S
H2243 C2258 0.930 . S
C2244 H2232 0.930 . S
C2244 C2245 1.399 . S
C2244 C2249 1.399 . S
C2245 C2244 1.399 . S
C2245 C2246 1.376 . S
C2246 H2233 0.930 . S
C2246 C2245 1.376 . S
C2246 C2247 1.388 . S
C2247 H2234 0.930 . S
C2247 C2246 1.388 . S
C2247 C2248 1.390 . S
C2248 C2247 1.390 . S
C2248 C2249 1.394 . S
C2248 C2254 1.465 . S
C2249 C2244 1.399 . S
C2249 C2248 1.394 . S
C2249 C2250 1.516 . S
C2250 C2249 1.516 . S
C2250 C2251 1.502 . S
C2250 C2252 1.561 . S
C2250 C2253 1.526 . S
C2251 H2235 0.959 . S
C2251 H2236 0.959 . S
C2251 H2237 0.961 . S
C2251 C2250 1.502 . S
C2252 H2238 0.960 . S
C2252 H2239 0.961 . S
C2252 H2240 0.959 . S
C2252 C2250 1.561 . S
C2253 C2250 1.526 . S
C2253 C2254 1.396 . S
C2253 C2258 1.390 . S
C2254 C2248 1.465 . S
C2254 C2253 1.396 . S
C2254 C2255 1.399 . S
C2255 H2241 0.929 . S
C2255 C2254 1.399 . S
C2255 C2256 1.385 . S
C2256 H2242 0.931 . S
C2256 C2255 1.385 . S
C2256 C2257 1.389 . S
C2257 C2256 1.389 . S
C2257 C2258 1.387 . S
C2258 H2243 0.930 . S
C2258 C2253 1.390 . S
C2258 C2257 1.387 . S
H2259 C2271 0.930 . S
H2260 C2273 0.930 . S
H2261 C2274 0.930 . S
H2262 C2278 0.959 . S
H2263 C2278 0.959 . S
H2264 C2278 0.961 . S
H2265 C2279 0.960 . S
H2266 C2279 0.961 . S
H2267 C2279 0.959 . S
H2268 C2282 0.929 . S
H2269 C2283 0.931 . S
H2270 C2285 0.930 . S
C2271 H2259 0.930 . S
C2271 C2272 1.399 . S
C2271 C2276 1.399 . S
C2272 C2271 1.399 . S
C2272 C2273 1.376 . S
C2273 H2260 0.930 . S
C2273 C2272 1.376 . S
C2273 C2274 1.388 . S
C2274 H2261 0.930 . S
C2274 C2273 1.388 . S
C2274 C2275 1.390 . S
C2275 C2274 1.390 . S
C2275 C2276 1.394 . S
C2275 C2281 1.465 . S
C2276 C2271 1.399 . S
C2276 C2275 1.394 . S
C2276 C2277 1.516 . S
C2277 C2276 1.516 . S
C2277 C2278 1.502 . S
C2277 C2279 1.561 . S
C2277 C2280 1.526 . S
C2278 H2262 0.959 . S
C2278 H2263 0.959 . S
C2278 H2264 0.961 . S
C2278 C2277 1.502 . S
C2279 H2265 0.960 . S
C2279 H2266 0.961 . S
C2279 H2267 0.959 . S
C2279 C2277 1.561 . S
C2280 C2277 1.526 . S
C2280 C2281 1.396 . S
C2280 C2285 1.390 . S
C2281 C2275 1.465 . S
C2281 C2280 1.396 . S
C2281 C2282 1.399 . S
C2282 H2268 0.929 . S
C2282 C2281 1.399 . S
C2282 C2283 1.385 . S
C2283 H2269 0.931 . S
C2283 C2282 1.385 . S
C2283 C2284 1.389 . S
C2284 C2283 1.389 . S
C2284 C2285 1.387 . S
C2285 H2270 0.930 . S
C2285 C2280 1.390 . S
C2285 C2284 1.387 . S
H2286 C2298 0.930 . S
H2287 C2300 0.930 . S
H2288 C2301 0.930 . S
H2289 C2305 0.959 . S
H2290 C2305 0.959 . S
H2291 C2305 0.961 . S
H2292 C2306 0.960 . S
H2293 C2306 0.961 . S
H2294 C2306 0.959 . S
H2295 C2309 0.929 1_455 S
H2296 C2310 0.931 . S
H2297 C2312 0.930 . S
C2298 H2286 0.930 . S
C2298 C2299 1.399 . S
C2298 C2303 1.399 . S
C2299 C2298 1.399 . S
C2299 C2300 1.376 . S
C2300 H2287 0.930 . S
C2300 C2299 1.376 . S
C2300 C2301 1.388 . S
C2301 H2288 0.930 . S
C2301 C2300 1.388 . S
C2301 C2302 1.390 . S
C2302 C2301 1.390 . S
C2302 C2303 1.394 . S
C2302 C2308 1.465 1_455 S
C2303 C2298 1.399 . S
C2303 C2302 1.394 . S
C2303 C2304 1.516 1_455 S
C2304 C2303 1.516 1_655 S
C2304 C2305 1.502 . S
C2304 C2306 1.561 . S
C2304 C2307 1.526 . S
C2305 H2289 0.959 . S
C2305 H2290 0.959 . S
C2305 H2291 0.961 . S
C2305 C2304 1.502 . S
C2306 H2292 0.960 . S
C2306 H2293 0.961 . S
C2306 H2294 0.959 . S
C2306 C2304 1.561 . S
C2307 C2304 1.526 . S
C2307 C2308 1.396 . S
C2307 C2312 1.390 . S
C2308 C2302 1.465 1_655 S
C2308 C2307 1.396 . S
C2308 C2309 1.399 . S
C2309 H2295 0.929 1_655 S
C2309 C2308 1.399 . S
C2309 C2310 1.385 . S
C2310 H2296 0.931 . S
C2310 C2309 1.385 . S
C2310 C2311 1.389 . S
C2311 C2310 1.389 . S
C2311 C2312 1.387 . S
C2312 H2297 0.930 . S
C2312 C2307 1.390 . S
C2312 C2311 1.387 . S
H2313 C2325 0.930 . S
H2314 C2327 0.930 . S
H2315 C2328 0.930 . S
H2316 C2332 0.959 . S
H2317 C2332 0.959 . S
H2318 C2332 0.961 . S
H2319 C2333 0.960 . S
H2320 C2333 0.961 . S
H2321 C2333 0.959 . S
H2322 C2336 0.929 . S
H2323 C2337 0.931 . S
H2324 C2339 0.930 . S
C2325 H2313 0.930 . S
C2325 C2326 1.399 . S
C2325 C2330 1.399 . S
C2326 C2325 1.399 . S
C2326 C2327 1.376 . S
C2327 H2314 0.930 . S
C2327 C2326 1.376 . S
C2327 C2328 1.388 . S
C2328 H2315 0.930 . S
C2328 C2327 1.388 . S
C2328 C2329 1.390 . S
C2329 C2328 1.390 . S
C2329 C2330 1.394 . S
C2329 C2335 1.465 . S
C2330 C2325 1.399 . S
C2330 C2329 1.394 . S
C2330 C2331 1.516 . S
C2331 C2330 1.516 . S
C2331 C2332 1.502 . S
C2331 C2333 1.561 . S
C2331 C2334 1.526 . S
C2332 H2316 0.959 . S
C2332 H2317 0.959 . S
C2332 H2318 0.961 . S
C2332 C2331 1.502 . S
C2333 H2319 0.960 . S
C2333 H2320 0.961 . S
C2333 H2321 0.959 . S
C2333 C2331 1.561 . S
C2334 C2331 1.526 . S
C2334 C2335 1.396 . S
C2334 C2339 1.390 . S
C2335 C2329 1.465 . S
C2335 C2334 1.396 . S
C2335 C2336 1.399 . S
C2336 H2322 0.929 . S
C2336 C2335 1.399 . S
C2336 C2337 1.385 . S
C2337 H2323 0.931 . S
C2337 C2336 1.385 . S
C2337 C2338 1.389 . S
C2338 C2337 1.389 . S
C2338 C2339 1.387 . S
C2339 H2324 0.930 . S
C2339 C2334 1.390 . S
C2339 C2338 1.387 . S
H2340 C2352 0.930 . S
H2341 C2354 0.930 . S
H2342 C2355 0.930 . S
H2343 C2359 0.959 . S
H2344 C2359 0.959 . S
H2345 C2359 0.961 . S
H2346 C2360 0.960 . S
H2347 C2360 0.961 . S
H2348 C2360 0.959 . S
H2349 C2363 0.929 1_545 S
H2350 C2364 0.931 . S
H2351 C2366 0.930 . S
C2352 H2340 0.930 . S
C2352 C2353 1.399 . S
C2352 C2357 1.399 . S
C2353 C2352 1.399 . S
C2353 C2354 1.376 . S
C2354 H2341 0.930 . S
C2354 C2353 1.376 . S
C2354 C2355 1.388 . S
C2355 H2342 0.930 . S
C2355 C2354 1.388 . S
C2355 C2356 1.390 . S
C2356 C2355 1.390 . S
C2356 C2357 1.394 . S
C2356 C2362 1.465 1_545 S
C2357 C2352 1.399 . S
C2357 C2356 1.394 . S
C2357 C2358 1.516 1_545 S
C2358 C2357 1.516 1_565 S
C2358 C2359 1.502 . S
C2358 C2360 1.561 . S
C2358 C2361 1.526 . S
C2359 H2343 0.959 . S
C2359 H2344 0.959 . S
C2359 H2345 0.961 . S
C2359 C2358 1.502 . S
C2360 H2346 0.960 . S
C2360 H2347 0.961 . S
C2360 H2348 0.959 . S
C2360 C2358 1.561 . S
C2361 C2358 1.526 . S
C2361 C2362 1.396 . S
C2361 C2366 1.390 . S
C2362 C2356 1.465 1_565 S
C2362 C2361 1.396 . S
C2362 C2363 1.399 . S
C2363 H2349 0.929 1_565 S
C2363 C2362 1.399 . S
C2363 C2364 1.385 . S
C2364 H2350 0.931 . S
C2364 C2363 1.385 . S
C2364 C2365 1.389 . S
C2365 C2364 1.389 . S
C2365 C2366 1.387 . S
C2366 H2351 0.930 . S
C2366 C2361 1.390 . S
C2366 C2365 1.387 . S
H2367 C2379 0.930 . S
H2368 C2381 0.930 . S
H2369 C2382 0.930 . S
H2370 C2386 0.960 . S
H2371 C2386 0.959 . S
H2372 C2386 0.961 . S
H2373 C2387 0.960 . S
H2374 C2387 0.961 . S
H2375 C2387 0.959 . S
H2376 C2390 0.929 . S
H2377 C2391 0.931 . S
H2378 C2393 0.930 . S
C2379 H2367 0.930 . S
C2379 C2380 1.399 . S
C2379 C2384 1.399 . S
C2380 C2379 1.399 . S
C2380 C2381 1.376 1_554 S
C2381 H2368 0.930 . S
C2381 C2380 1.376 1_556 S
C2381 C2382 1.388 . S
C2382 H2369 0.930 . S
C2382 C2381 1.388 . S
C2382 C2383 1.390 . S
C2383 C2382 1.390 . S
C2383 C2384 1.394 1_556 S
C2383 C2389 1.465 1_545 S
C2384 C2379 1.399 . S
C2384 C2383 1.394 1_554 S
C2384 C2385 1.516 1_545 S
C2385 C2384 1.516 1_565 S
C2385 C2386 1.502 . S
C2385 C2387 1.561 . S
C2385 C2388 1.526 . S
C2386 H2370 0.960 . S
C2386 H2371 0.959 . S
C2386 H2372 0.961 . S
C2386 C2385 1.502 . S
C2387 H2373 0.960 . S
C2387 H2374 0.961 . S
C2387 H2375 0.959 . S
C2387 C2385 1.561 . S
C2388 C2385 1.526 . S
C2388 C2389 1.396 1_554 S
C2388 C2393 1.390 . S
C2389 C2383 1.465 1_565 S
C2389 C2388 1.396 1_556 S
C2389 C2390 1.399 . S
C2390 H2376 0.929 . S
C2390 C2389 1.399 . S
C2390 C2391 1.385 . S
C2391 H2377 0.931 . S
C2391 C2390 1.385 . S
C2391 C2392 1.389 . S
C2392 C2391 1.389 . S
C2392 C2393 1.387 1_556 S
C2393 H2378 0.930 . S
C2393 C2388 1.390 . S
C2393 C2392 1.387 1_554 S
H2394 C2406 0.930 . S
H2395 C2408 0.930 . S
H2396 C2409 0.930 . S
H2397 C2413 0.959 . S
H2398 C2413 0.959 . S
H2399 C2413 0.953 1_655 S
H2400 C2414 0.960 . S
H2401 C2414 0.961 . S
H2402 C2414 0.959 . S
H2403 C2417 0.929 . S
H2404 C2418 0.931 . S
H2405 C2420 0.930 . S
C2406 H2394 0.930 . S
C2406 C2407 1.399 1_556 S
C2406 C2411 1.399 . S
C2407 C2406 1.399 1_554 S
C2407 C2408 1.376 . S
C2408 H2395 0.930 . S
C2408 C2407 1.376 . S
C2408 C2409 1.388 . S
C2409 H2396 0.930 . S
C2409 C2408 1.388 . S
C2409 C2410 1.390 . S
C2410 C2409 1.390 . S
C2410 C2411 1.394 1_554 S
C2410 C2416 1.465 1_655 S
C2411 C2406 1.399 . S
C2411 C2410 1.394 1_556 S
C2411 C2412 1.516 . S
C2412 C2411 1.516 . S
C2412 C2413 1.502 1_655 S
C2412 C2414 1.561 . S
C2412 C2415 1.526 1_655 S
C2413 H2397 0.959 . S
C2413 H2398 0.959 . S
C2413 H2399 0.953 1_455 S
C2413 C2412 1.502 1_455 S
C2414 H2400 0.960 . S
C2414 H2401 0.961 . S
C2414 H2402 0.959 . S
C2414 C2412 1.561 . S
C2415 C2412 1.526 1_455 S
C2415 C2416 1.396 1_556 S
C2415 C2420 1.390 . S
C2416 C2410 1.465 1_455 S
C2416 C2415 1.396 1_554 S
C2416 C2417 1.399 . S
C2417 H2403 0.929 . S
C2417 C2416 1.399 . S
C2417 C2418 1.385 . S
C2418 H2404 0.931 . S
C2418 C2417 1.385 . S
C2418 C2419 1.389 1_554 S
C2419 C2418 1.389 1_556 S
C2419 C2420 1.387 . S
C2420 H2405 0.930 . S
C2420 C2415 1.390 . S
C2420 C2419 1.387 . S
H2421 C2433 0.930 1_554 S
H2422 C2435 0.930 . S
H2423 C2436 0.930 . S
H2424 C2440 0.900 1_556 S
H2425 C2440 0.991 . S
H2426 C2440 0.961 . S
H2427 C2441 0.960 . S
H2428 C2441 0.961 . S
H2429 C2441 0.959 . S
H2430 C2444 0.978 . S
H2431 C2445 0.939 . S
H2432 C2447 0.930 . S
C2433 H2421 0.930 1_556 S
C2433 C2434 1.399 . S
C2433 C2438 1.389 1_556 S
C2434 C2433 1.399 . S
C2434 C2435 1.376 . S
C2435 H2422 0.930 . S
C2435 C2434 1.376 . S
C2435 C2436 1.388 . S
C2436 H2423 0.930 . S
C2436 C2435 1.388 . S
C2436 C2437 1.390 . S
C2437 C2436 1.390 . S
C2437 C2438 1.381 1_556 S
C2437 C2443 1.460 1_556 S
C2438 C2433 1.389 1_554 S
C2438 C2437 1.381 1_554 S
C2438 C2439 1.543 . S
C2439 C2438 1.543 . S
C2439 C2440 1.529 . S
C2439 C2441 1.561 . S
C2439 C2442 1.526 . S
C2440 H2424 0.900 1_554 S
C2440 H2425 0.991 . S
C2440 H2426 0.961 . S
C2440 C2439 1.529 . S
C2441 H2427 0.960 . S
C2441 H2428 0.961 . S
C2441 H2429 0.959 . S
C2441 C2439 1.561 . S
C2442 C2439 1.526 . S
C2442 C2443 1.406 . S
C2442 C2447 1.390 . S
C2443 C2437 1.460 1_554 S
C2443 C2442 1.406 . S
C2443 C2444 1.388 1_554 S
C2444 H2430 0.978 . S
C2444 C2443 1.388 1_556 S
C2444 C2445 1.362 1_556 S
C2445 H2431 0.939 . S
C2445 C2444 1.362 1_554 S
C2445 C2446 1.389 . S
C2446 C2445 1.389 . S
C2446 C2447 1.387 . S
C2447 H2432 0.930 . S
C2447 C2442 1.390 . S
C2447 C2446 1.387 . S
C517 C9 1.289 . S
C529 C22 1.443 . S
C544 C23 1.279 . S
C556 C36 1.448 . S
C571 C8 1.438 . S
C583 C37 1.340 . S
C598 C51 1.396 . S
C610 C78 1.450 . S
C625 C65 1.378 . S
C637 C50 1.457 . S
C652 C64 1.438 . S
C664 C79 1.331 . S
C679 C93 1.347 . S
C691 C106 1.456 . S
C706 C120 1.445 . S
C718 C107 1.394 . S
C733 C92 1.451 . S
C745 C121 1.284 . S
C760 C162 1.444 . S
C772 C135 1.308 . S
C787 C149 1.390 . S
C799 C134 1.448 . S
C814 C163 1.323 . S
C826 C148 1.442 . S
C841 C190 1.458 . S
C853 C177 1.344 . S
C868 C191 1.396 . S
C880 C204 1.448 . S
C895 C205 1.397 . S
C907 C176 1.450 . S
C922 C219 1.279 . S
C934 C246 1.448 . S
C949 C233 1.280 . S
C961 C218 1.447 . S
C976 C247 1.312 . S
C988 C232 1.458 . S
C1003 C274 1.447 . S
C1015 C261 1.389 . S
C1030 C275 1.376 . S
C1042 C288 1.438 . S
C1057 C260 1.445 . S
C1069 C289 1.394 . S
C1084 C330 1.446 . S
C1096 C303 1.392 . S
C1111 C317 1.317 . S
C1123 C302 1.459 . S
C1138 C316 1.453 . S
C1150 C331 1.281 . S
C1165 C358 1.455 . S
C1177 C345 1.382 . S
C1192 C359 1.394 . S
C1204 C372 1.452 . S
C1219 C373 1.394 . S
C1231 C344 1.453 . S
C1246 C414 1.438 . S
C1258 C387 1.322 . S
C1273 C401 1.288 . S
C1285 C386 1.444 . S
C1300 C400 1.439 . S
C1312 C415 1.313 . S
C1327 C429 1.309 . S
C1339 C442 1.444 . S
C1354 C443 1.355 . S
C1366 C456 1.439 . S
C1381 C457 1.344 . S
C1393 C428 1.440 . S
C1408 C498 1.445 . S
C1420 C471 1.394 . S
C1435 C470 1.455 . S
C1447 C485 1.281 . S
C1462 C499 1.319 . S
C1474 C484 1.459 . S
C1489 C49 1.719 . S
C1501 C7 1.696 . S
C1516 C21 1.787 . S
C1528 C63 1.740 . S
C1543 C77 1.709 . S
C1555 C35 1.700 . S
C1570 C133 1.788 . S
C1582 C91 1.773 . S
C1597 C105 1.728 . S
C1609 C147 1.762 . S
C1624 C161 1.736 . S
C1636 C119 1.769 . S
C1651 C175 1.772 . S
C1663 C217 1.782 . S
C1678 C189 1.787 . S
C1690 C231 1.741 . S
C1705 C203 1.747 . S
C1717 C245 1.697 . S
C1732 C301 1.786 . S
C1744 C259 1.784 . S
C1759 C315 1.761 . S
C1771 C273 1.784 . S
C1786 C287 1.783 . S
C1798 C329 1.787 . S
C1813 C385 1.738 . S
C1825 C343 1.786 . S
C1840 C399 1.695 . S
C1852 C357 1.745 . S
C1867 C371 1.758 . S
C1879 C413 1.702 . S
C1894 C427 1.777 . S
C1906 C469 1.748 . S
C1921 C483 1.784 . S
C1933 C441 1.786 . S
C1948 C455 1.695 . S
C1960 C497 1.700 . S
C1975 C6 1.571 . S
C1987 C258 1.607 . S
C2002 C20 1.562 . S
C2014 C272 1.604 . S
C2029 C34 1.611 . S
C2041 C286 1.567 . S
C2056 C468 1.561 . S
C2068 C48 1.603 . S
C2083 C482 1.606 . S
C2095 C62 1.574 . S
C2110 C76 1.588 . S
C2122 C496 1.593 . S
C2137 C90 1.556 . S
C2149 C342 1.614 . S
C2164 C356 1.612 . S
C2176 C104 1.566 . S
C2191 C370 1.607 . S
C2203 C118 1.573 . S
C2218 C216 1.614 . S
C2230 C132 1.560 . S
C2245 C230 1.610 . S
C2257 C146 1.569 . S
C2272 C244 1.579 . S
C2284 C160 1.584 . S
C2299 C426 1.568 . S
C2311 C174 1.608 . S
C2326 C188 1.585 . S
C2338 C440 1.595 . S
C2353 C202 1.558 . S
C2365 C454 1.616 . S
C2380 C300 1.583 . S
C2392 C384 1.597 . S
C2407 C314 1.572 . S
C2419 C398 1.593 . S
C2434 C412 1.615 . S
C2446 C328 1.557 . S
