# Generated by pormake.
# Topology pem, (4)-cn, num edge types: 1
# Building blocks:
#     Node 0, Type 0, BuildingBlock: QUQFOY_clean_sbu_1, # of connection points: 4
#     Node 1, Type 0, BuildingBlock: QUQFOY_clean_sbu_1, # of connection points: 4
#     Node 2, Type 0, BuildingBlock: QUQFOY_clean_sbu_1, # of connection points: 4
#     Node 3, Type 0, BuildingBlock: QUQFOY_clean_sbu_1, # of connection points: 4
#     Node 4, Type 0, BuildingBlock: QUQFOY_clean_sbu_1, # of connection points: 4
#     Node 5, Type 0, BuildingBlock: QUQFOY_clean_sbu_1, # of connection points: 4
#     Node 6, Type 0, BuildingBlock: QUQFOY_clean_sbu_1, # of connection points: 4
#     Node 7, Type 0, BuildingBlock: QUQFOY_clean_sbu_1, # of connection points: 4
#     Node 8, Type 0, BuildingBlock: QUQFOY_clean_sbu_1, # of connection points: 4
#     Node 9, Type 0, BuildingBlock: QUQFOY_clean_sbu_1, # of connection points: 4
#     Node 10, Type 0, BuildingBlock: QUQFOY_clean_sbu_1, # of connection points: 4
#     Node 11, Type 0, BuildingBlock: QUQFOY_clean_sbu_1, # of connection points: 4
#     Node 12, Type 0, BuildingBlock: QUQFOY_clean_sbu_1, # of connection points: 4
#     Node 13, Type 0, BuildingBlock: QUQFOY_clean_sbu_1, # of connection points: 4
#     Node 14, Type 0, BuildingBlock: QUQFOY_clean_sbu_1, # of connection points: 4
#     Node 15, Type 0, BuildingBlock: QUQFOY_clean_sbu_1, # of connection points: 4
#     Node 16, Type 0, BuildingBlock: QUQFOY_clean_sbu_1, # of connection points: 4
#     Node 17, Type 0, BuildingBlock: QUQFOY_clean_sbu_1, # of connection points: 4
#     Node 18, Type 0, BuildingBlock: QUQFOY_clean_sbu_1, # of connection points: 4
#     Node 19, Type 0, BuildingBlock: QUQFOY_clean_sbu_1, # of connection points: 4
#     Node 20, Type 0, BuildingBlock: QUQFOY_clean_sbu_1, # of connection points: 4
#     Node 21, Type 0, BuildingBlock: QUQFOY_clean_sbu_1, # of connection points: 4
#     Node 22, Type 0, BuildingBlock: QUQFOY_clean_sbu_1, # of connection points: 4
#     Node 23, Type 0, BuildingBlock: QUQFOY_clean_sbu_1, # of connection points: 4
#     Node 24, Type 0, BuildingBlock: QUQFOY_clean_sbu_1, # of connection points: 4
#     Node 25, Type 0, BuildingBlock: QUQFOY_clean_sbu_1, # of connection points: 4
#     Node 26, Type 0, BuildingBlock: QUQFOY_clean_sbu_1, # of connection points: 4
#     Node 27, Type 0, BuildingBlock: QUQFOY_clean_sbu_1, # of connection points: 4
#     Node 28, Type 0, BuildingBlock: QUQFOY_clean_sbu_1, # of connection points: 4
#     Node 29, Type 0, BuildingBlock: QUQFOY_clean_sbu_1, # of connection points: 4
#     Node 30, Type 0, BuildingBlock: QUQFOY_clean_sbu_1, # of connection points: 4
#     Node 31, Type 0, BuildingBlock: QUQFOY_clean_sbu_1, # of connection points: 4
#     Edge 32, Type (0, 0), BuildingBlock: UVAHIK_clean_linker_0, # of connection points: 2
#     Edge 33, Type (0, 0), BuildingBlock: UVAHIK_clean_linker_0, # of connection points: 2
#     Edge 34, Type (0, 0), BuildingBlock: UVAHIK_clean_linker_0, # of connection points: 2
#     Edge 35, Type (0, 0), BuildingBlock: UVAHIK_clean_linker_0, # of connection points: 2
#     Edge 36, Type (0, 0), BuildingBlock: UVAHIK_clean_linker_0, # of connection points: 2
#     Edge 37, Type (0, 0), BuildingBlock: UVAHIK_clean_linker_0, # of connection points: 2
#     Edge 38, Type (0, 0), BuildingBlock: UVAHIK_clean_linker_0, # of connection points: 2
#     Edge 39, Type (0, 0), BuildingBlock: UVAHIK_clean_linker_0, # of connection points: 2
#     Edge 40, Type (0, 0), BuildingBlock: UVAHIK_clean_linker_0, # of connection points: 2
#     Edge 41, Type (0, 0), BuildingBlock: UVAHIK_clean_linker_0, # of connection points: 2
#     Edge 42, Type (0, 0), BuildingBlock: UVAHIK_clean_linker_0, # of connection points: 2
#     Edge 43, Type (0, 0), BuildingBlock: UVAHIK_clean_linker_0, # of connection points: 2
#     Edge 44, Type (0, 0), BuildingBlock: UVAHIK_clean_linker_0, # of connection points: 2
#     Edge 45, Type (0, 0), BuildingBlock: UVAHIK_clean_linker_0, # of connection points: 2
#     Edge 46, Type (0, 0), BuildingBlock: UVAHIK_clean_linker_0, # of connection points: 2
#     Edge 47, Type (0, 0), BuildingBlock: UVAHIK_clean_linker_0, # of connection points: 2
#     Edge 48, Type (0, 0), BuildingBlock: UVAHIK_clean_linker_0, # of connection points: 2
#     Edge 49, Type (0, 0), BuildingBlock: UVAHIK_clean_linker_0, # of connection points: 2
#     Edge 50, Type (0, 0), BuildingBlock: UVAHIK_clean_linker_0, # of connection points: 2
#     Edge 51, Type (0, 0), BuildingBlock: UVAHIK_clean_linker_0, # of connection points: 2
#     Edge 52, Type (0, 0), BuildingBlock: UVAHIK_clean_linker_0, # of connection points: 2
#     Edge 53, Type (0, 0), BuildingBlock: UVAHIK_clean_linker_0, # of connection points: 2
#     Edge 54, Type (0, 0), BuildingBlock: UVAHIK_clean_linker_0, # of connection points: 2
#     Edge 55, Type (0, 0), BuildingBlock: UVAHIK_clean_linker_0, # of connection points: 2
#     Edge 56, Type (0, 0), BuildingBlock: UVAHIK_clean_linker_0, # of connection points: 2
#     Edge 57, Type (0, 0), BuildingBlock: UVAHIK_clean_linker_0, # of connection points: 2
#     Edge 58, Type (0, 0), BuildingBlock: UVAHIK_clean_linker_0, # of connection points: 2
#     Edge 59, Type (0, 0), BuildingBlock: UVAHIK_clean_linker_0, # of connection points: 2
#     Edge 60, Type (0, 0), BuildingBlock: UVAHIK_clean_linker_0, # of connection points: 2
#     Edge 61, Type (0, 0), BuildingBlock: UVAHIK_clean_linker_0, # of connection points: 2
#     Edge 62, Type (0, 0), BuildingBlock: UVAHIK_clean_linker_0, # of connection points: 2
#     Edge 63, Type (0, 0), BuildingBlock: UVAHIK_clean_linker_0, # of connection points: 2
#     Edge 64, Type (0, 0), BuildingBlock: UVAHIK_clean_linker_0, # of connection points: 2
#     Edge 65, Type (0, 0), BuildingBlock: UVAHIK_clean_linker_0, # of connection points: 2
#     Edge 66, Type (0, 0), BuildingBlock: UVAHIK_clean_linker_0, # of connection points: 2
#     Edge 67, Type (0, 0), BuildingBlock: UVAHIK_clean_linker_0, # of connection points: 2
#     Edge 68, Type (0, 0), BuildingBlock: UVAHIK_clean_linker_0, # of connection points: 2
#     Edge 69, Type (0, 0), BuildingBlock: UVAHIK_clean_linker_0, # of connection points: 2
#     Edge 70, Type (0, 0), BuildingBlock: UVAHIK_clean_linker_0, # of connection points: 2
#     Edge 71, Type (0, 0), BuildingBlock: UVAHIK_clean_linker_0, # of connection points: 2
#     Edge 72, Type (0, 0), BuildingBlock: UVAHIK_clean_linker_0, # of connection points: 2
#     Edge 73, Type (0, 0), BuildingBlock: UVAHIK_clean_linker_0, # of connection points: 2
#     Edge 74, Type (0, 0), BuildingBlock: UVAHIK_clean_linker_0, # of connection points: 2
#     Edge 75, Type (0, 0), BuildingBlock: UVAHIK_clean_linker_0, # of connection points: 2
#     Edge 76, Type (0, 0), BuildingBlock: UVAHIK_clean_linker_0, # of connection points: 2
#     Edge 77, Type (0, 0), BuildingBlock: UVAHIK_clean_linker_0, # of connection points: 2
#     Edge 78, Type (0, 0), BuildingBlock: UVAHIK_clean_linker_0, # of connection points: 2
#     Edge 79, Type (0, 0), BuildingBlock: UVAHIK_clean_linker_0, # of connection points: 2
#     Edge 80, Type (0, 0), BuildingBlock: UVAHIK_clean_linker_0, # of connection points: 2
#     Edge 81, Type (0, 0), BuildingBlock: UVAHIK_clean_linker_0, # of connection points: 2
#     Edge 82, Type (0, 0), BuildingBlock: UVAHIK_clean_linker_0, # of connection points: 2
#     Edge 83, Type (0, 0), BuildingBlock: UVAHIK_clean_linker_0, # of connection points: 2
#     Edge 84, Type (0, 0), BuildingBlock: UVAHIK_clean_linker_0, # of connection points: 2
#     Edge 85, Type (0, 0), BuildingBlock: UVAHIK_clean_linker_0, # of connection points: 2
#     Edge 86, Type (0, 0), BuildingBlock: UVAHIK_clean_linker_0, # of connection points: 2
#     Edge 87, Type (0, 0), BuildingBlock: UVAHIK_clean_linker_0, # of connection points: 2
#     Edge 88, Type (0, 0), BuildingBlock: UVAHIK_clean_linker_0, # of connection points: 2
#     Edge 89, Type (0, 0), BuildingBlock: UVAHIK_clean_linker_0, # of connection points: 2
#     Edge 90, Type (0, 0), BuildingBlock: UVAHIK_clean_linker_0, # of connection points: 2
#     Edge 91, Type (0, 0), BuildingBlock: UVAHIK_clean_linker_0, # of connection points: 2
#     Edge 92, Type (0, 0), BuildingBlock: UVAHIK_clean_linker_0, # of connection points: 2
#     Edge 93, Type (0, 0), BuildingBlock: UVAHIK_clean_linker_0, # of connection points: 2
#     Edge 94, Type (0, 0), BuildingBlock: UVAHIK_clean_linker_0, # of connection points: 2
#     Edge 95, Type (0, 0), BuildingBlock: UVAHIK_clean_linker_0, # of connection points: 2
# Relax obj value: 0.280
# Max RMSD: 0.273
# Mean RMSD: 0.235
data_MOF--net-pem--node1-QUQFOY_clean_sbu_1--edge1-UVAHIK_clean_linker_0
_symmetry_space_group_name_H-M    P1
_symmetry_Int_Tables_number       1
_symmetry_cell_setting            triclinic
loop_
_symmetry_equiv_pos_as_xyz
'x, y, z'
_cell_length_a     56.598661
_cell_length_b     57.431401
_cell_length_c     56.545725
_cell_angle_alpha  89.680172
_cell_angle_beta   89.643114
_cell_angle_gamma 95.7687
loop_
_atom_site_label
_atom_site_type_symbol
_atom_site_fract_x
_atom_site_fract_y
_atom_site_fract_z
_atom_type_partial_charge
O0 O 0.09634 0.08013 0.12321 0.0
Cd1 Cd 0.09331 0.09943 0.09223 0.0
Cd2 Cd 0.05868 0.11433 0.12103 0.0
O3 O 0.07368 0.09761 0.14804 0.0
O4 O 0.11323 0.08182 0.07117 0.0
O5 O 0.12149 0.11949 0.07769 0.0
C6 C 0.1264 0.10088 0.06677 0.0
C7 C 0.05102 0.15287 0.11855 0.0
C8 C 0.08773 0.08223 0.14384 0.0
C9 C 0.04141 0.09012 0.07957 0.0
O10 O 0.03602 0.0933 0.10095 0.0
O11 O 0.06265 0.09473 0.07239 0.0
O12 O 0.03935 0.13845 0.13303 0.0
O13 O 0.06886 0.14585 0.10713 0.0
O14 O 0.11048 0.87929 0.30713 0.0
Cd15 Cd 0.11671 0.84583 0.31709 0.0
Cd16 Cd 0.16028 0.87203 0.33554 0.0
O17 O 0.14434 0.89831 0.31886 0.0
O18 O 0.08866 0.82607 0.30476 0.0
O19 O 0.09824 0.82703 0.34256 0.0
C20 C 0.08483 0.81804 0.32586 0.0
C21 C 0.18188 0.88002 0.37019 0.0
C22 C 0.12438 0.89803 0.30859 0.0
C23 C 0.16535 0.83287 0.30147 0.0
O24 O 0.17553 0.84856 0.31464 0.0
O25 O 0.14289 0.82996 0.3001 0.0
O26 O 0.18876 0.88916 0.35017 0.0
O27 O 0.16184 0.86711 0.37093 0.0
O28 O 0.39266 0.92074 0.60355 0.0
Cd29 Cd 0.39703 0.905 0.57124 0.0
Cd30 Cd 0.44347 0.89921 0.59783 0.0
O31 O 0.4254 0.91591 0.62344 0.0
O32 O 0.36991 0.91728 0.55465 0.0
O33 O 0.37326 0.87954 0.55783 0.0
C34 C 0.36182 0.89619 0.5498 0.0
C35 C 0.4658 0.8686 0.60749 0.0
C36 C 0.40525 0.9238 0.62204 0.0
C37 C 0.44596 0.92311 0.55039 0.0
O38 O 0.45683 0.91832 0.56909 0.0
O39 O 0.42367 0.91823 0.54863 0.0
O40 O 0.47213 0.88967 0.61424 0.0
O41 O 0.44608 0.86456 0.59616 0.0
O42 O 0.34527 0.1044 0.80008 0.0
Cd43 Cd 0.33702 0.13291 0.81968 0.0
Cd44 Cd 0.2986 0.10171 0.82951 0.0
O45 O 0.31665 0.07792 0.81177 0.0
O46 O 0.36478 0.15528 0.81117 0.0
O47 O 0.3559 0.1455 0.84817 0.0
C48 C 0.36942 0.15772 0.83328 0.0
C49 C 0.28455 0.09681 0.8679 0.0
C50 C 0.33517 0.08362 0.79943 0.0
C51 C 0.28837 0.14405 0.80384 0.0
O52 O 0.28027 0.12328 0.80913 0.0
O53 O 0.30981 0.15138 0.80819 0.0
O54 O 0.27492 0.08453 0.85081 0.0
O55 O 0.30328 0.11101 0.86338 0.0
O56 O 0.13745 0.95301 0.38042 0.0
Cd57 Cd 0.13111 0.94142 0.41477 0.0
Cd58 Cd 0.08849 0.92013 0.39619 0.0
O59 O 0.10263 0.93819 0.36694 0.0
O60 O 0.16184 0.94516 0.4317 0.0
O61 O 0.14046 0.91097 0.42747 0.0
C62 C 0.15881 0.92303 0.43629 0.0
C63 C 0.06321 0.88599 0.38891 0.0
C64 C 0.12243 0.95037 0.36379 0.0
C65 C 0.08615 0.95486 0.43611 0.0
O66 O 0.07559 0.93963 0.42266 0.0
O67 O 0.10859 0.95906 0.43534 0.0
O68 O 0.05774 0.9064 0.38307 0.0
O69 O 0.08369 0.88462 0.39844 0.0
O70 O 0.38546 0.81378 0.61382 0.0
Cd71 Cd 0.35225 0.82246 0.62382 0.0
Cd72 Cd 0.3767 0.84218 0.66211 0.0
O73 O 0.4048 0.83103 0.64378 0.0
O74 O 0.33094 0.81576 0.59642 0.0
O75 O 0.33806 0.85103 0.61199 0.0
C76 C 0.32663 0.83736 0.59694 0.0
C77 C 0.38078 0.87807 0.68139 0.0
C78 C 0.40468 0.81898 0.625 0.0
C79 C 0.33891 0.8032 0.67221 0.0
O80 O 0.35551 0.8172 0.68051 0.0
O81 O 0.33459 0.80292 0.65023 0.0
O82 O 0.39237 0.86102 0.688 0.0
O83 O 0.36758 0.87519 0.66287 0.0
O84 O 0.37535 0.12843 0.91735 0.0
Cd85 Cd 0.4082 0.12114 0.90451 0.0
Cd86 Cd 0.38064 0.0795 0.89098 0.0
O87 O 0.35405 0.09573 0.90685 0.0
O88 O 0.42895 0.15024 0.91174 0.0
O89 O 0.42419 0.13662 0.8755 0.0
C90 C 0.43445 0.15199 0.88965 0.0
C91 C 0.37434 0.05798 0.85628 0.0
C92 C 0.35574 0.11548 0.91706 0.0
C93 C 0.42035 0.07492 0.92478 0.0
O94 O 0.40285 0.06477 0.91375 0.0
O95 O 0.42556 0.09687 0.9229 0.0
O96 O 0.36395 0.05138 0.87585 0.0
O97 O 0.38738 0.07778 0.85596 0.0
O98 O 0.13721 0.19999 0.12512 0.0
Cd99 Cd 0.1666 0.18144 0.12907 0.0
Cd100 Cd 0.13593 0.15999 0.16298 0.0
O101 O 0.11102 0.17797 0.14675 0.0
O102 O 0.18805 0.19225 0.1023 0.0
O103 O 0.17428 0.15516 0.10777 0.0
C104 C 0.18754 0.17073 0.09584 0.0
C105 C 0.12832 0.123 0.17975 0.0
C106 C 0.11619 0.19549 0.1332 0.0
C107 C 0.18015 0.18681 0.17975 0.0
O108 O 0.15894 0.17904 0.18461 0.0
O109 O 0.18748 0.18769 0.15849 0.0
O110 O 0.11737 0.14028 0.18686 0.0
O111 O 0.14182 0.12604 0.16126 0.0
O112 O 0.6128 0.42403 0.86074 0.0
Cd113 Cd 0.60452 0.4112 0.89425 0.0
Cd114 Cd 0.5618 0.3941 0.87121 0.0
O115 O 0.5801 0.4097 0.84262 0.0
O116 O 0.63371 0.41967 0.91286 0.0
O117 O 0.61839 0.38307 0.90809 0.0
C118 C 0.63419 0.3978 0.91767 0.0
C119 C 0.53746 0.35918 0.86606 0.0
C120 C 0.6003 0.4216 0.84214 0.0
C121 C 0.55837 0.42764 0.91141 0.0
O122 O 0.5477 0.41563 0.89522 0.0
O123 O 0.58064 0.42781 0.9139 0.0
O124 O 0.53248 0.37858 0.85674 0.0
O125 O 0.5571 0.35925 0.87757 0.0
O126 O 0.88172 0.31667 0.07882 0.0
Cd127 Cd 0.8501 0.32352 0.09428 0.0
Cd128 Cd 0.88081 0.34964 0.12536 0.0
O129 O 0.90569 0.33917 0.10173 0.0
O130 O 0.82509 0.31367 0.07083 0.0
O131 O 0.8313 0.34982 0.08447 0.0
C132 C 0.8191 0.33472 0.07136 0.0
C133 C 0.88674 0.38627 0.14369 0.0
C134 C 0.90254 0.32493 0.08459 0.0
C135 C 0.84843 0.30842 0.14488 0.0
O136 O 0.86479 0.3248 0.14846 0.0
O137 O 0.83986 0.30502 0.12436 0.0
O138 O 0.90018 0.36997 0.14793 0.0
O139 O 0.8707 0.38241 0.12766 0.0
O140 O 0.85654 0.59353 0.40668 0.0
Cd141 Cd 0.88925 0.58897 0.39182 0.0
Cd142 Cd 0.86504 0.5463 0.38209 0.0
O143 O 0.83644 0.55985 0.39779 0.0
O144 O 0.90727 0.61946 0.39947 0.0
O145 O 0.90286 0.60682 0.36289 0.0
C146 C 0.91194 0.62253 0.37734 0.0
C147 C 0.86526 0.53297 0.3434 0.0
C148 C 0.83746 0.57979 0.40757 0.0
C149 C 0.90688 0.54499 0.41277 0.0
O150 O 0.8888 0.53296 0.40449 0.0
O151 O 0.91025 0.56686 0.40879 0.0
O152 O 0.85346 0.52111 0.35983 0.0
O153 O 0.87617 0.55311 0.34877 0.0
O154 O 0.87462 0.63453 0.29463 0.0
Cd155 Cd 0.8652 0.66404 0.31198 0.0
Cd156 Cd 0.82788 0.63319 0.32392 0.0
O157 O 0.84702 0.60851 0.30928 0.0
O158 O 0.89233 0.6875 0.30443 0.0
O159 O 0.88215 0.67746 0.3411 0.0
C160 C 0.89563 0.69043 0.32674 0.0
C161 C 0.8105 0.63017 0.3611 0.0
C162 C 0.8652 0.6135 0.29627 0.0
C163 C 0.81667 0.67255 0.29424 0.0
O164 O 0.80938 0.65194 0.30084 0.0
O165 O 0.83772 0.68106 0.29867 0.0
O166 O 0.80302 0.61649 0.34414 0.0
O167 O 0.82924 0.64458 0.35743 0.0
O168 O 0.64699 0.38539 0.78488 0.0
Cd169 Cd 0.64923 0.35738 0.80737 0.0
Cd170 Cd 0.68995 0.38665 0.82168 0.0
O171 O 0.67712 0.40942 0.79756 0.0
O172 O 0.62139 0.33588 0.79734 0.0
O173 O 0.62597 0.34833 0.834 0.0
C174 C 0.61392 0.33532 0.81886 0.0
C175 C 0.70139 0.39794 0.85965 0.0
C176 C 0.65978 0.40485 0.78357 0.0
C177 C 0.69815 0.34008 0.80236 0.0
O178 O 0.70793 0.35982 0.80894 0.0
O179 O 0.67571 0.33625 0.80142 0.0
O180 O 0.71342 0.40579 0.84135 0.0
O181 O 0.6819 0.38463 0.85637 0.0
O182 O 0.86615 0.88107 0.91383 0.0
Cd183 Cd 0.89568 0.89672 0.89645 0.0
Cd184 Cd 0.91496 0.86483 0.92832 0.0
O185 O 0.88005 0.85318 0.93518 0.0
O186 O 0.87898 0.92112 0.88044 0.0
O187 O 0.90073 0.89796 0.8608 0.0
C188 C 0.88793 0.91529 0.86074 0.0
C189 C 0.94411 0.84035 0.91971 0.0
C190 C 0.86284 0.86411 0.92837 0.0
C191 C 0.92786 0.91565 0.93564 0.0
O192 O 0.92712 0.89536 0.94471 0.0
O193 O 0.91827 0.91892 0.91588 0.0
O194 O 0.93569 0.84171 0.94085 0.0
O195 O 0.93499 0.85205 0.90306 0.0
O196 O 0.89003 0.16395 0.66647 0.0
Cd197 Cd 0.87058 0.14315 0.69016 0.0
Cd198 Cd 0.83361 0.14709 0.65954 0.0
O199 O 0.85986 0.16948 0.64329 0.0
O200 O 0.89128 0.12307 0.70733 0.0
O201 O 0.86005 0.10935 0.68597 0.0
C202 C 0.8772 0.10551 0.70006 0.0
C203 C 0.804 0.13359 0.63264 0.0
C204 C 0.88158 0.17368 0.64868 0.0
C205 C 0.83004 0.1631 0.71089 0.0
O206 O 0.81991 0.15692 0.69159 0.0
O207 O 0.85181 0.16067 0.71398 0.0
O208 O 0.80674 0.15486 0.63974 0.0
O209 O 0.81811 0.11934 0.64101 0.0
O210 O 0.66309 0.0848 0.41206 0.0
Cd211 Cd 0.645 0.07421 0.38209 0.0
Cd212 Cd 0.61686 0.11257 0.39756 0.0
O213 O 0.64373 0.11492 0.42221 0.0
O214 O 0.66322 0.04898 0.36958 0.0
O215 O 0.65737 0.08049 0.3489 0.0
C216 C 0.66531 0.06024 0.34983 0.0
C217 C 0.59769 0.14638 0.39046 0.0
C218 C 0.65987 0.10149 0.426 0.0
C219 C 0.59341 0.06249 0.39507 0.0
O220 O 0.59228 0.08385 0.4001 0.0
O221 O 0.61251 0.05553 0.38722 0.0
O222 O 0.59708 0.13622 0.41076 0.0
O223 O 0.61027 0.13804 0.37405 0.0
O224 O 0.59595 0.82951 0.15409 0.0
Cd225 Cd 0.62711 0.84876 0.1646 0.0
Cd226 Cd 0.64279 0.82793 0.12514 0.0
O227 O 0.60757 0.81848 0.11894 0.0
O228 O 0.61719 0.86839 0.19092 0.0
O229 O 0.63604 0.88344 0.15921 0.0
C230 C 0.62721 0.8865 0.17995 0.0
C231 C 0.66896 0.83778 0.0939 0.0
C232 C 0.59156 0.8188 0.13471 0.0
C233 C 0.66084 0.81305 0.17196 0.0
O234 O 0.65804 0.80841 0.15022 0.0
O235 O 0.65142 0.83 0.18112 0.0
O236 O 0.65851 0.81698 0.09652 0.0
O237 O 0.66339 0.85373 0.10833 0.0
O238 O 0.89145 0.05897 0.6594 0.0
Cd239 Cd 0.91166 0.08091 0.63674 0.0
Cd240 Cd 0.87632 0.06631 0.60534 0.0
O241 O 0.86273 0.0473 0.63454 0.0
O242 O 0.93214 0.10381 0.65569 0.0
O243 O 0.90687 0.11394 0.62847 0.0
C244 C 0.92356 0.11995 0.64341 0.0
C245 C 0.84933 0.0805 0.57888 0.0
C246 C 0.87218 0.04656 0.65482 0.0
C247 C 0.92745 0.05625 0.59496 0.0
O248 O 0.90592 0.05548 0.58845 0.0
O249 O 0.93382 0.06534 0.61457 0.0
O250 O 0.85196 0.05858 0.58073 0.0
O251 O 0.86149 0.09473 0.59286 0.0
O252 O 0.65315 0.13021 0.33864 0.0
Cd253 Cd 0.67989 0.15254 0.35362 0.0
Cd254 Cd 0.65087 0.18615 0.33855 0.0
O255 O 0.63497 0.15747 0.3205 0.0
O256 O 0.70086 0.13099 0.36877 0.0
O257 O 0.68442 0.1582 0.38867 0.0
C258 C 0.69849 0.14184 0.38836 0.0
C259 C 0.62678 0.21215 0.35616 0.0
C260 C 0.63773 0.13603 0.32408 0.0
C261 C 0.70142 0.19163 0.32211 0.0
O262 O 0.68241 0.20131 0.3248 0.0
O263 O 0.70329 0.17149 0.33087 0.0
O264 O 0.62934 0.21106 0.33357 0.0
O265 O 0.63756 0.19794 0.36905 0.0
O266 O 0.57251 0.93729 0.15798 0.0
Cd267 Cd 0.55706 0.91719 0.13099 0.0
Cd268 Cd 0.59736 0.93281 0.10804 0.0
O269 O 0.60595 0.94949 0.13951 0.0
O270 O 0.53087 0.89716 0.14673 0.0
O271 O 0.55974 0.88287 0.12644 0.0
C272 C 0.54023 0.87932 0.13849 0.0
C273 C 0.62384 0.91235 0.08647 0.0
C274 C 0.59246 0.94959 0.15757 0.0
C275 C 0.55194 0.94714 0.08842 0.0
O276 O 0.57444 0.94906 0.08709 0.0
O277 O 0.54115 0.93465 0.10451 0.0
O278 O 0.62708 0.93474 0.08889 0.0
O279 O 0.60615 0.90118 0.09762 0.0
O280 O 0.80184 0.86589 0.84265 0.0
Cd281 Cd 0.79178 0.83678 0.86377 0.0
Cd282 Cd 0.84061 0.83412 0.86043 0.0
O283 O 0.84083 0.86676 0.84556 0.0
O284 O 0.75839 0.84083 0.87289 0.0
O285 O 0.78692 0.83836 0.8991 0.0
C286 C 0.76489 0.84063 0.89468 0.0
C287 C 0.87347 0.82203 0.88005 0.0
C288 C 0.82258 0.87541 0.83774 0.0
C289 C 0.80771 0.79675 0.83725 0.0
O290 O 0.82834 0.80732 0.83893 0.0
O291 O 0.79018 0.80458 0.84757 0.0
O292 O 0.87466 0.82911 0.85844 0.0
O293 O 0.85407 0.82412 0.8916 0.0
O294 O 0.40067 0.55206 0.15116 0.0
Cd295 Cd 0.41454 0.57279 0.12344 0.0
Cd296 Cd 0.37414 0.55317 0.10148 0.0
O297 O 0.3682 0.53637 0.13363 0.0
O298 O 0.43905 0.59556 0.13786 0.0
O299 O 0.40907 0.60636 0.1168 0.0
C300 C 0.42836 0.61203 0.1284 0.0
C301 C 0.342 0.56569 0.08092 0.0
C302 C 0.38179 0.53803 0.15147 0.0
C303 C 0.42192 0.54406 0.08098 0.0
O304 O 0.39944 0.54126 0.07959 0.0
O305 O 0.43193 0.55602 0.0976 0.0
O306 O 0.34466 0.54384 0.08359 0.0
O307 O 0.35725 0.58074 0.09085 0.0
O308 O 0.15102 0.60016 0.84227 0.0
Cd309 Cd 0.16595 0.62791 0.86208 0.0
Cd310 Cd 0.12877 0.64734 0.84194 0.0
O311 O 0.11868 0.61429 0.82929 0.0
O312 O 0.1906 0.61251 0.87944 0.0
O313 O 0.16333 0.6309 0.89771 0.0
C314 C 0.1817 0.61934 0.89887 0.0
C315 C 0.10204 0.67075 0.85897 0.0
C316 C 0.13198 0.59778 0.83032 0.0
C317 C 0.17794 0.66691 0.82771 0.0
O318 O 0.15585 0.66604 0.82359 0.0
O319 O 0.18569 0.65398 0.84355 0.0
O320 O 0.10143 0.66577 0.83677 0.0
O321 O 0.11715 0.66123 0.87201 0.0
O322 O 0.08291 0.41772 0.64044 0.0
Cd323 Cd 0.06811 0.40384 0.60975 0.0
Cd324 Cd 0.10843 0.4252 0.58989 0.0
O325 O 0.11444 0.43701 0.62394 0.0
O326 O 0.03943 0.38513 0.62215 0.0
O327 O 0.06629 0.36988 0.60009 0.0
C328 C 0.04617 0.36739 0.61116 0.0
C329 C 0.1373 0.40679 0.56974 0.0
C330 C 0.10168 0.43169 0.64213 0.0
C331 C 0.06319 0.43974 0.57127 0.0
O332 O 0.08565 0.44236 0.56926 0.0
O333 O 0.05326 0.4258 0.58666 0.0
O334 O 0.1397 0.42903 0.57351 0.0
O335 O 0.11855 0.39468 0.57802 0.0
O336 O 0.09205 0.33171 0.67247 0.0
Cd337 Cd 0.12359 0.34769 0.68568 0.0
Cd338 Cd 0.13831 0.331 0.64164 0.0
O339 O 0.10256 0.32429 0.63587 0.0
O340 O 0.11179 0.35967 0.71598 0.0
O341 O 0.13129 0.38277 0.6896 0.0
C342 C 0.12083 0.38027 0.70992 0.0
C343 C 0.16401 0.34248 0.61022 0.0
C344 C 0.08681 0.32377 0.65201 0.0
C345 C 0.1558 0.3096 0.68612 0.0
O346 O 0.15264 0.30793 0.66398 0.0
O347 O 0.14739 0.32569 0.69781 0.0
O348 O 0.15214 0.32219 0.61102 0.0
O349 O 0.16034 0.35709 0.62681 0.0
O350 O 0.37697 0.66193 0.18206 0.0
Cd351 Cd 0.34791 0.64027 0.1935 0.0
Cd352 Cd 0.33293 0.6539 0.1487 0.0
O353 O 0.3683 0.66516 0.14428 0.0
O354 O 0.35925 0.62749 0.22364 0.0
O355 O 0.34767 0.6051 0.1934 0.0
C356 C 0.35565 0.60689 0.21473 0.0
C357 C 0.30947 0.64136 0.11648 0.0
C358 C 0.38254 0.66938 0.16136 0.0
C359 C 0.30915 0.67116 0.19224 0.0
O360 O 0.31404 0.67379 0.17042 0.0
O361 O 0.31911 0.6565 0.20461 0.0
O362 O 0.31963 0.66235 0.11774 0.0
O363 O 0.31403 0.62667 0.1328 0.0
O364 O 0.61786 0.58129 0.59394 0.0
Cd365 Cd 0.60663 0.60604 0.57047 0.0
Cd366 Cd 0.58114 0.61361 0.60861 0.0
O367 O 0.60314 0.59445 0.62689 0.0
O368 O 0.62351 0.59802 0.54132 0.0
O369 O 0.62966 0.63276 0.55783 0.0
C370 C 0.63426 0.61882 0.54096 0.0
C371 C 0.57281 0.65135 0.61368 0.0
C372 C 0.61529 0.58028 0.61629 0.0
C373 C 0.55352 0.59502 0.56985 0.0
O374 O 0.55407 0.59451 0.5922 0.0
O375 O 0.57207 0.60202 0.55806 0.0
O376 O 0.56614 0.63546 0.62927 0.0
O377 O 0.58669 0.64626 0.59659 0.0
O378 O 0.90337 0.44497 0.10011 0.0
Cd379 Cd 0.90089 0.42315 0.07084 0.0
Cd380 Cd 0.948 0.41172 0.09837 0.0
O381 O 0.93631 0.43773 0.11868 0.0
O382 O 0.8777 0.43893 0.0517 0.0
O383 O 0.87083 0.40219 0.06333 0.0
C384 C 0.86421 0.41957 0.05135 0.0
C385 C 0.96861 0.38354 0.11665 0.0
C386 C 0.91816 0.44894 0.11686 0.0
C387 C 0.94937 0.42182 0.04554 0.0
O388 O 0.96032 0.41843 0.06454 0.0
O389 O 0.92721 0.4235 0.04554 0.0
O390 O 0.97811 0.40464 0.11346 0.0
O391 O 0.94664 0.37872 0.11086 0.0
O392 O 0.64144 0.68673 0.62228 0.0
Cd393 Cd 0.66706 0.66322 0.62521 0.0
Cd394 Cd 0.63958 0.65019 0.66563 0.0
O395 O 0.61893 0.67489 0.65305 0.0
O396 O 0.68687 0.66945 0.59638 0.0
O397 O 0.66818 0.63468 0.60432 0.0
C398 C 0.68261 0.64773 0.59089 0.0
C399 C 0.62566 0.61401 0.68137 0.0
C400 C 0.62351 0.68866 0.63558 0.0
C401 C 0.69004 0.66783 0.67333 0.0
O402 O 0.66972 0.66248 0.68243 0.0
O403 O 0.69277 0.66853 0.65103 0.0
O404 O 0.62101 0.63311 0.69144 0.0
O405 O 0.63637 0.61548 0.66107 0.0
O406 O 0.35916 0.38241 0.42837 0.0
Cd407 Cd 0.3862 0.40097 0.40969 0.0
Cd408 Cd 0.4128 0.37423 0.43956 0.0
O409 O 0.37972 0.36146 0.45209 0.0
O410 O 0.36648 0.42078 0.3907 0.0
O411 O 0.39379 0.40102 0.37454 0.0
C412 C 0.37831 0.41588 0.37228 0.0
C413 C 0.44185 0.35007 0.42878 0.0
C414 C 0.36002 0.36814 0.44553 0.0
C415 C 0.41922 0.42592 0.44528 0.0
O416 O 0.42502 0.40641 0.45273 0.0
O417 O 0.40475 0.42691 0.4284 0.0
O418 O 0.43589 0.35259 0.4506 0.0
O419 O 0.43055 0.36064 0.41281 0.0
O420 O 0.11508 0.59938 0.93736 0.0
Cd421 Cd 0.09554 0.58552 0.90906 0.0
Cd422 Cd 0.06443 0.62835 0.93916 0.0
O423 O 0.09775 0.62847 0.95458 0.0
O424 O 0.09451 0.55085 0.90781 0.0
O425 O 0.11352 0.57485 0.88142 0.0
C426 C 0.10694 0.55377 0.88862 0.0
C427 C 0.04323 0.66042 0.9347 0.0
C428 C 0.11477 0.61549 0.95282 0.0
C429 C 0.04736 0.58571 0.91823 0.0
O430 O 0.0444 0.59696 0.93697 0.0
O431 O 0.06238 0.59495 0.90343 0.0
O432 O 0.04459 0.65029 0.95503 0.0
O433 O 0.0554 0.65321 0.91722 0.0
O434 O 0.34369 0.35618 0.34614 0.0
Cd435 Cd 0.3337 0.32994 0.3706 0.0
Cd436 Cd 0.38182 0.31757 0.35192 0.0
O437 O 0.38023 0.34959 0.33582 0.0
O438 O 0.30097 0.33824 0.3774 0.0
O439 O 0.32743 0.33515 0.40544 0.0
C440 C 0.30619 0.33893 0.39946 0.0
C441 C 0.41899 0.3046 0.35935 0.0
C442 C 0.36266 0.36167 0.33434 0.0
C443 C 0.33766 0.28378 0.34587 0.0
O444 O 0.35904 0.29012 0.34017 0.0
O445 O 0.32582 0.29655 0.35863 0.0
O446 O 0.41177 0.30801 0.33824 0.0
O447 O 0.4057 0.31007 0.37668 0.0
C448 C 0.00535 0.06299 0.07174 0.0
C449 C 0.02364 0.0792 0.06326 0.0
C450 C 0.99118 0.0494 0.05593 0.0
C451 C 0.9961 0.02691 0.99564 0.0
H452 H 0.93306 -0.00298 0.00984 0.0
C453 C 0.94565 0.95703 0.93666 0.0
C454 C 0.93844 0.93605 0.94873 0.0
C455 C 0.95409 0.97695 0.94916 0.0
C456 C 0.95064 0.00537 0.00571 0.0
H457 H 0.04003 0.09588 0.03195 0.0
H458 H 0.01451 0.07301 0.00427 0.0
H459 H 0.94944 0.03007 0.03371 0.0
H460 H 0.9343 0.91931 0.9832 0.0
H461 H 0.94885 0.9544 0.00513 0.0
H462 H -0.00288 0.0022 0.96757 0.0
C463 C 0.01174 0.06994 0.02304 0.0
C464 C 0.96005 0.02419 0.01934 0.0
C465 C 0.02626 0.08313 0.03885 0.0
C466 C 0.93993 0.93524 0.97349 0.0
C467 C 0.94796 0.95529 0.98601 0.0
C468 C 0.98651 0.00842 0.98179 0.0
C469 C 0.9948 0.05216 0.03139 0.0
C470 C 0.98315 0.03477 0.01484 0.0
C471 C 0.95501 0.97625 0.9739 0.0
C472 C 0.96399 -0.00282 0.98711 0.0
H473 H 0.00304 0.05966 0.09053 0.0
H474 H 0.97849 0.03575 0.06304 0.0
H475 H 0.01412 0.03424 0.99192 0.0
H476 H 0.94468 0.95809 0.91756 0.0
H477 H 0.95955 0.99299 0.93956 0.0
C478 C 0.28675 0.68389 0.22749 0.0
C479 C 0.29245 0.68606 0.2033 0.0
C480 C 0.27192 0.69894 0.238 0.0
C481 C 0.25397 0.74293 0.25785 0.0
H482 H 0.19947 0.76217 0.22442 0.0
C483 C 0.20457 0.81996 0.28934 0.0
C484 C 0.17964 0.81685 0.28862 0.0
C485 C 0.21796 0.80386 0.2785 0.0
C486 C 0.21452 0.75684 0.23406 0.0
H487 H 0.28673 0.70548 0.17111 0.0
H488 H 0.26127 0.73183 0.18949 0.0
H489 H 0.22244 0.73287 0.20705 0.0
H490 H 0.14923 0.79461 0.27563 0.0
H491 H 0.17259 0.76643 0.25704 0.0
H492 H 0.24574 0.76653 0.2851 0.0
C493 C 0.26794 0.71832 0.20028 0.0
C494 C 0.22781 0.74023 0.22401 0.0
C495 C 0.28267 0.70328 0.18978 0.0
C496 C 0.16841 0.79758 0.27644 0.0
C497 C 0.1818 0.78146 0.2657 0.0
C498 C 0.24063 0.75949 0.26794 0.0
C499 C 0.26254 0.71644 0.22452 0.0
C500 C 0.24776 0.73321 0.23573 0.0
C501 C 0.2067 0.7843 0.2668 0.0
C502 C 0.22084 0.76671 0.25609 0.0
H503 H 0.29393 0.67073 0.23836 0.0
H504 H 0.2678 0.69688 0.25667 0.0
H505 H 0.26941 0.73807 0.26719 0.0
H506 H 0.21376 0.83468 0.29849 0.0
H507 H 0.23715 0.80673 0.27929 0.0
C508 C 0.44785 0.93703 0.50838 0.0
C509 C 0.4593 0.93422 0.53007 0.0
C510 C 0.4603 0.94754 0.48912 0.0
C511 C 0.48668 0.98431 0.45748 0.0
H512 H 0.55286 0.9752 0.44703 0.0
C513 C 0.55328 0.05241 0.41307 0.0
C514 C 0.5732 0.04519 0.40127 0.0
C515 C 0.53638 0.03595 0.42321 0.0
C516 C 0.53426 0.97762 0.4493 0.0
H517 H 0.49286 0.94012 0.54848 0.0
H518 H 0.51447 0.95897 0.51503 0.0
H519 H 0.52984 0.95127 0.47625 0.0
H520 H 0.58973 0.015 0.38879 0.0
H521 H 0.55994 0.98624 0.40621 0.0
H522 H 0.49116 0.01077 0.43058 0.0
C523 C 0.49596 0.95261 0.51277 0.0
C524 C 0.52117 0.96415 0.46635 0.0
C525 C 0.48353 0.94199 0.53202 0.0
C526 C 0.57476 0.02114 0.39805 0.0
C527 C 0.55777 0.00466 0.40813 0.0
C528 C 0.49974 -0.00228 0.44032 0.0
C529 C 0.48446 0.95556 0.49113 0.0
C530 C 0.49746 0.96783 0.47111 0.0
C531 C 0.53895 0.01192 0.42165 0.0
C532 C 0.52387 0.99499 0.43654 0.0
H533 H 0.42922 0.93106 0.5062 0.0
H534 H 0.45102 0.94931 0.47262 0.0
H535 H 0.46846 0.98764 0.46076 0.0
H536 H 0.55142 0.0708 0.41572 0.0
H537 H 0.52221 0.0422 0.43362 0.0
C538 C 0.27765 0.1843 0.79571 0.0
C539 C 0.27289 0.16002 0.79275 0.0
C540 C 0.26328 0.1996 0.78501 0.0
C541 C 0.22902 0.20743 0.7338 0.0
H542 H 0.19639 0.25154 0.7703 0.0
C543 C 0.16931 0.26971 0.6889 0.0
C544 C 0.16867 0.29214 0.69845 0.0
C545 C 0.18083 0.25284 0.70085 0.0
C546 C 0.20568 0.23962 0.75978 0.0
H547 H 0.24951 0.13262 0.77633 0.0
H548 H 0.22479 0.15965 0.7568 0.0
H549 H 0.21879 0.22337 0.79062 0.0
H550 H 0.17987 0.31477 0.72767 0.0
H551 H 0.2011 0.2858 0.74797 0.0
H552 H 0.21723 0.22422 0.70292 0.0
C553 C 0.23944 0.16665 0.76775 0.0
C554 C 0.21827 0.22339 0.77147 0.0
C555 C 0.25349 0.15127 0.77892 0.0
C556 C 0.17998 0.29753 0.72001 0.0
C557 C 0.19197 0.28082 0.73173 0.0
C558 C 0.21687 0.22397 0.72206 0.0
C559 C 0.24426 0.19088 0.77078 0.0
C560 C 0.23002 0.20723 0.75854 0.0
C561 C 0.19242 0.2582 0.72238 0.0
C562 C 0.20506 0.24033 0.7349 0.0
H563 H 0.29241 0.19148 0.8064 0.0
H564 H 0.26731 0.21828 0.78743 0.0
H565 H 0.23825 0.19523 0.72355 0.0
H566 H 0.16047 0.265 0.67242 0.0
H567 H 0.18033 0.23552 0.69331 0.0
C568 C 0.08259 0.98154 0.47076 0.0
C569 C 0.07187 0.96774 0.45255 0.0
C570 C 0.06868 0.9932 0.48644 0.0
C571 C 0.01017 0.01531 0.49194 0.0
H572 H 0.0185 0.00848 0.55955 0.0
C573 C 0.93817 0.03566 0.55816 0.0
C574 C 0.94525 0.04702 0.57927 0.0
C575 C 0.95498 0.02752 0.54297 0.0
C576 C 0.01618 0.01086 0.54073 0.0
H577 H 0.03819 0.95558 0.43636 0.0
H578 H 0.01413 0.97591 0.46354 0.0
H579 H 0.04607 0.99226 0.5322 0.0
H580 H 0.97557 0.05862 0.60106 0.0
H581 H 0.00496 0.0446 0.57435 0.0
H582 H 0.98027 0.03374 0.50029 0.0
C583 C 0.03324 0.97782 0.46566 0.0
C584 C 0.03197 0.00159 0.5251 0.0
C585 C 0.04705 0.96604 0.4502 0.0
C586 C 0.96952 0.04987 0.58496 0.0
C587 C 0.98636 0.04177 0.56971 0.0
C588 C 0.9945 0.02466 0.50751 0.0
C589 C 0.04387 0.99147 0.48396 0.0
C590 C 0.0288 0.00334 0.50057 0.0
C591 C 0.97927 0.03063 0.54848 0.0
C592 C -0.00297 0.02215 0.53207 0.0
H593 H 0.10167 0.98315 0.47304 0.0
H594 H 0.07729 0.0037 0.50038 0.0
H595 H 0.00758 0.01724 0.47309 0.0
H596 H 0.91961 0.03305 0.5533 0.0
H597 H 0.94889 0.01859 0.52698 0.0
C598 C 0.30137 0.77792 0.68097 0.0
C599 C 0.3237 0.78801 0.68843 0.0
C600 C 0.28619 0.76499 0.69679 0.0
C601 C 0.28401 0.73045 0.75081 0.0
H602 H 0.21984 0.74798 0.7569 0.0
C603 C 0.21847 0.68736 0.82033 0.0
C604 C 0.19477 0.68235 0.81326 0.0
C605 C 0.23457 0.70118 0.80608 0.0
C606 C 0.23759 0.74264 0.75521 0.0
H607 H 0.34803 0.79181 0.718 0.0
H608 H 0.32153 0.76871 0.74554 0.0
H609 H 0.24753 0.76925 0.72935 0.0
H610 H 0.16931 0.68787 0.78578 0.0
H611 H 0.19748 0.71127 0.7606 0.0
H612 H 0.27399 0.70336 0.77604 0.0
C613 C 0.31581 0.77106 0.72751 0.0
C614 C 0.25342 0.75488 0.7395 0.0
C615 C 0.33087 0.7843 0.71179 0.0
C616 C 0.18742 0.69158 0.7918 0.0
C617 C 0.20357 0.70512 0.77742 0.0
C618 C 0.26807 0.71796 0.7663 0.0
C619 C 0.29322 0.76163 0.72021 0.0
C620 C 0.2767 0.74881 0.73711 0.0
C621 C 0.22736 0.71002 0.78433 0.0
C622 C 0.24462 0.72384 0.76859 0.0
H623 H 0.29533 0.7805 0.66309 0.0
H624 H 0.2689 0.75766 0.69074 0.0
H625 H 0.30188 0.72541 0.74911 0.0
H626 H 0.2246 0.6806 0.83688 0.0
H627 H 0.25266 0.70495 0.81214 0.0
C628 C 0.45704 0.07013 0.94802 0.0
C629 C 0.43437 0.06108 0.94044 0.0
C630 C 0.47 0.05713 0.96327 0.0
C631 C 0.46272 0.01286 0.00927 0.0
H632 H 0.52782 0.00209 0.99504 0.0
C633 C 0.51407 0.95301 0.06768 0.0
C634 C 0.53834 0.95965 0.07116 0.0
C635 C 0.50136 0.96481 0.05115 0.0
C636 C 0.50977 0.00522 -0.00052 0.0
H637 H 0.4075 0.03138 0.94285 0.0
H638 H 0.43004 0.00893 0.96988 0.0
H639 H 0.50588 0.02429 0.96728 0.0
H640 H 0.56829 0.98405 0.06041 0.0
H641 H 0.54599 0.00518 0.03231 0.0
H642 H 0.46664 0.99458 0.04176 0.0
C643 C 0.43774 0.02599 0.96388 0.0
C644 C 0.49723 0.01783 0.98351 0.0
C645 C 0.42495 0.03879 0.94834 0.0
C646 C 0.54963 0.9784 0.05796 0.0
C647 C 0.53686 0.99042 0.04171 0.0
C648 C 0.47535 0.00057 0.02542 0.0
C649 C 0.46034 0.03507 0.97148 0.0
C650 C 0.47361 0.0217 0.98828 0.0
C651 C 0.51258 0.98373 0.03803 0.0
C652 C 0.49904 0.99658 0.02072 0.0
H653 H 0.46477 0.08722 0.94216 0.0
H654 H 0.48737 0.0645 0.96903 0.0
H655 H 0.44456 0.01588 0.0134 0.0
H656 H 0.50496 0.9385 0.07748 0.0
H657 H 0.4828 0.95891 0.04849 0.0
C658 C 0.33305 0.25465 0.31338 0.0
C659 C 0.32529 0.26272 0.33519 0.0
C660 C 0.31826 0.23871 0.30035 0.0
C661 C 0.25461 0.22692 0.29309 0.0
H662 H 0.27258 0.1858 0.24338 0.0
C663 C 0.18845 0.19095 0.22281 0.0
C664 C 0.1967 0.19276 0.1993 0.0
C665 C 0.20419 0.19476 0.24151 0.0
C666 C 0.26738 0.19725 0.25722 0.0
H667 H 0.29774 0.25813 0.36211 0.0
H668 H 0.27222 0.22968 0.33968 0.0
H669 H 0.30098 0.1978 0.27454 0.0
H670 H 0.22793 0.20004 0.17697 0.0
H671 H 0.25545 0.20724 0.20982 0.0
H672 H 0.22141 0.22706 0.27549 0.0
C673 C 0.28926 0.23633 0.3322 0.0
C674 C 0.28354 0.20403 0.27506 0.0
C675 C 0.30386 0.25255 0.34505 0.0
C676 C 0.22103 0.19863 0.19488 0.0
C677 C 0.23681 0.20244 0.21366 0.0
C678 C 0.2385 0.22008 0.27539 0.0
C679 C 0.29565 0.2304 0.30912 0.0
C680 C 0.27751 0.21941 0.29285 0.0
C681 C 0.2285 0.2005 0.23712 0.0
C682 C 0.24492 0.20566 0.25699 0.0
H683 H 0.3496 0.2621 0.30545 0.0
H684 H 0.32373 0.23455 0.28261 0.0
H685 H 0.24952 0.23923 0.30616 0.0
H686 H 0.16984 0.18629 0.22684 0.0
H687 H 0.19736 0.19302 0.25944 0.0
C688 C 0.46128 0.53508 0.06468 0.0
C689 C 0.43638 0.53313 0.06313 0.0
C690 C 0.47477 0.52438 0.04791 0.0
C691 C 0.47005 0.47702 0.00406 0.0
H692 H 0.52834 0.50915 0.97865 0.0
C693 C 0.51988 0.44044 0.92589 0.0
C694 C 0.54467 0.44107 0.92789 0.0
C695 C 0.50685 0.4524 0.942 0.0
C696 C 0.51221 0.49989 0.98575 0.0
H697 H 0.40616 0.5187 0.04254 0.0
H698 H 0.4297 0.50031 0.01326 0.0
H699 H 0.50529 0.52866 0.0078 0.0
H700 H 0.57527 0.45508 0.94816 0.0
H701 H 0.55245 0.47582 0.97636 0.0
H702 H 0.47694 0.44826 0.98208 0.0
C703 C 0.43877 0.50978 0.02762 0.0
C704 C 0.49904 0.51104 0.00244 0.0
C705 C 0.4253 0.52044 0.04435 0.0
C706 C 0.55619 0.45424 0.94611 0.0
C707 C 0.54314 0.46623 0.96221 0.0
C708 C 0.48319 0.4659 0.98738 0.0
C709 C 0.46363 0.51153 0.02928 0.0
C710 C 0.4778 0.49972 0.01173 0.0
C711 C 0.51833 0.46527 0.96042 0.0
C712 C 0.50438 0.47723 0.97802 0.0
H713 H 0.47036 0.5447 0.07894 0.0
H714 H 0.4939 0.52583 0.04977 0.0
H715 H 0.45398 0.46769 0.0112 0.0
H716 H 0.51046 0.43054 0.912 0.0
H717 H 0.48776 0.45162 0.94 0.0
C718 C 0.8205 0.27565 0.16131 0.0
C719 C 0.83848 0.29395 0.165 0.0
C720 C 0.80978 0.26318 0.18045 0.0
C721 C 0.7967 0.23286 0.22361 0.0
H722 H 0.77678 0.27044 0.27546 0.0
C723 C 0.74113 0.192 0.30207 0.0
C724 C 0.72108 0.20351 0.3078 0.0
C725 C 0.75882 0.20267 0.2871 0.0
C726 C 0.78228 0.25971 0.26114 0.0
H727 H 0.85993 0.31293 0.1917 0.0
H728 H 0.8412 0.29108 0.2251 0.0
H729 H 0.80175 0.28894 0.24396 0.0
H730 H 0.70432 0.23557 0.30296 0.0
H731 H 0.73503 0.25402 0.27682 0.0
H732 H 0.77638 0.20382 0.24029 0.0
C733 C 0.83526 0.28657 0.20738 0.0
C734 C 0.79678 0.27025 0.24323 0.0
C735 C 0.84604 0.29901 0.18823 0.0
C736 C 0.71949 0.22618 0.29887 0.0
C737 C 0.73719 0.23685 0.28402 0.0
C738 C 0.78224 0.22231 0.24156 0.0
C739 C 0.81677 0.26876 0.20371 0.0
C740 C 0.80372 0.25703 0.22401 0.0
C741 C 0.75688 0.22509 0.2777 0.0
C742 C 0.77446 0.23573 0.26024 0.0
H743 H 0.81427 0.27127 0.14366 0.0
H744 H 0.79539 0.24974 0.17706 0.0
H745 H 0.80199 0.22219 0.20915 0.0
H746 H 0.74295 0.17456 0.30872 0.0
H747 H 0.77391 0.19328 0.28271 0.0
C748 C 0.0239 0.44414 0.55296 0.0
C749 C 0.0482 0.45182 0.55486 0.0
C750 C 0.00975 0.45446 0.53666 0.0
C751 C 0.00359 0.50772 0.50368 0.0
H752 H 0.96407 0.46724 0.46197 0.0
C753 C 0.94677 0.54535 0.43146 0.0
C754 C 0.92409 0.53378 0.42741 0.0
C755 C 0.9629 0.53523 0.44587 0.0
C756 C 0.97473 0.4788 0.47368 0.0
H757 H 0.07659 0.4767 0.5415 0.0
H758 H 0.05151 0.49517 0.51321 0.0
H759 H 0.99035 0.45023 0.48977 0.0
H760 H 0.90054 0.50253 0.43523 0.0
H761 H 0.92837 0.48517 0.46105 0.0
H762 H 0.98746 0.53625 0.48834 0.0
C763 C 0.04362 0.48098 0.5243 0.0
C764 C 0.98987 0.46904 0.48948 0.0
C765 C 0.05794 0.4704 0.54041 0.0
C766 C 0.91794 0.51179 0.43791 0.0
C767 C 0.93398 0.5018 0.45261 0.0
C768 C 0.9882 0.51748 0.48809 0.0
C769 C 0.01948 0.47288 0.52212 0.0
C770 C 0.00432 0.48341 0.50469 0.0
C771 C 0.95664 0.51344 0.45685 0.0
C772 C 0.97349 0.50312 0.47297 0.0
H773 H 0.01584 0.42983 0.56377 0.0
H774 H 0.99111 0.44809 0.53549 0.0
H775 H 0.01441 0.51912 0.51542 0.0
H776 H 0.95212 0.56224 0.42341 0.0
H777 H 0.98034 0.54449 0.44831 0.0
C778 C 0.80404 0.71155 0.28359 0.0
C779 C 0.80037 0.68707 0.28221 0.0
C780 C 0.78819 0.7254 0.27296 0.0
C781 C 0.7275 0.72223 0.24725 0.0
H782 H 0.7514 0.78222 0.21999 0.0
C783 C 0.67789 0.7755 0.17993 0.0
C784 C 0.67529 0.79866 0.18649 0.0
C785 C 0.69209 0.76195 0.19322 0.0
C786 C 0.74454 0.76558 0.22774 0.0
H787 H 0.77764 0.6578 0.26829 0.0
H788 H 0.75061 0.68194 0.24862 0.0
H789 H 0.77885 0.75808 0.23908 0.0
H790 H 0.68536 0.82587 0.21199 0.0
H791 H 0.711 0.80224 0.23484 0.0
H792 H 0.69334 0.72949 0.23462 0.0
C793 C 0.76518 0.69052 0.25866 0.0
C794 C 0.76018 0.75177 0.23878 0.0
C795 C 0.78077 0.67666 0.26974 0.0
C796 C 0.68703 0.80803 0.20663 0.0
C797 C 0.70169 0.79462 0.21962 0.0
C798 C 0.71197 0.73585 0.23576 0.0
C799 C 0.76859 0.71509 0.26027 0.0
C800 C 0.75188 0.72989 0.24868 0.0
C801 C 0.7043 0.77152 0.21295 0.0
C802 C 0.72041 0.75759 0.22596 0.0
H803 H 0.81888 0.72001 0.29336 0.0
H804 H 0.79116 0.74419 0.27505 0.0
H805 H 0.72033 0.70576 0.2551 0.0
H806 H 0.66891 0.76783 0.16454 0.0
H807 H 0.69401 0.74418 0.18776 0.0
C808 C 0.79199 0.17343 0.72816 0.0
C809 C 0.8169 0.176 0.7282 0.0
C810 C 0.77933 0.1891 0.7405 0.0
C811 C 0.78382 0.23863 0.78285 0.0
H812 H 0.73432 0.25946 0.74311 0.0
C813 C 0.73749 0.3235 0.79858 0.0
C814 C 0.71266 0.321 0.79602 0.0
C815 C 0.75081 0.3051 0.79259 0.0
C816 C 0.74793 0.2537 0.75452 0.0
H817 H 0.84813 0.19572 0.74264 0.0
H818 H 0.82599 0.22357 0.76375 0.0
H819 H 0.75585 0.22733 0.73022 0.0
H820 H 0.68236 0.29709 0.78555 0.0
H821 H 0.70552 0.26533 0.77516 0.0
H822 H 0.77594 0.26562 0.80693 0.0
C823 C 0.81622 0.20928 0.75445 0.0
C824 C 0.76019 0.23517 0.74722 0.0
C825 C 0.82891 0.19335 0.74234 0.0
C826 C 0.70146 0.29973 0.78761 0.0
C827 C 0.71472 0.2815 0.78157 0.0
C828 C 0.77153 0.25734 0.79014 0.0
C829 C 0.79134 0.2079 0.75278 0.0
C830 C 0.77812 0.22725 0.76136 0.0
C831 C 0.73951 0.28404 0.78381 0.0
C832 C 0.75334 0.26488 0.77609 0.0
H833 H 0.78229 0.15997 0.71768 0.0
H834 H 0.76013 0.18715 0.73947 0.0
H835 H 0.79755 0.23291 0.79411 0.0
H836 H 0.74662 0.33963 0.80514 0.0
H837 H 0.76995 0.30753 0.79433 0.0
C838 C 0.82221 0.77082 0.80628 0.0
C839 C 0.80431 0.77575 0.82235 0.0
C840 C 0.81841 0.75218 0.79064 0.0
C841 C 0.78003 0.69861 0.77724 0.0
H842 H 0.77974 0.72321 0.71324 0.0
C843 C 0.70713 0.67134 0.71368 0.0
C844 C 0.71056 0.67281 0.68909 0.0
C845 C 0.72596 0.67699 0.72892 0.0
C846 C 0.78041 0.71562 0.73077 0.0
H847 H 0.76907 0.76419 0.83572 0.0
H848 H 0.76247 0.73146 0.80838 0.0
H849 H 0.80044 0.74626 0.74401 0.0
H850 H 0.73675 0.68003 0.66113 0.0
H851 H 0.7699 0.69004 0.68799 0.0
H852 H 0.7591 0.6684 0.76423 0.0
C853 C 0.77943 0.74206 0.80796 0.0
C854 C 0.79221 0.72891 0.74843 0.0
C855 C 0.78307 0.76092 0.82339 0.0
C856 C 0.73352 0.67904 0.68002 0.0
C857 C 0.75248 0.68469 0.69537 0.0
C858 C 0.76855 0.68514 0.7595 0.0
C859 C 0.79684 0.73793 0.79109 0.0
C860 C 0.79085 0.72109 0.772 0.0
C861 C 0.74876 0.68418 0.71999 0.0
C862 C 0.76725 0.69424 0.73644 0.0
H863 H 0.83884 0.7819 0.80512 0.0
H864 H 0.83201 0.74933 0.77769 0.0
H865 H 0.77911 0.69214 0.79529 0.0
H866 H 0.68973 0.66641 0.7213 0.0
H867 H 0.72225 0.67688 0.74773 0.0
C868 C 0.42841 0.46922 0.44473 0.0
C869 C 0.42836 0.44778 0.45686 0.0
C870 C 0.43628 0.49012 0.45589 0.0
C871 C 0.44526 0.51786 0.51305 0.0
H872 H 0.50158 0.55146 0.48529 0.0
C873 C 0.51583 0.56893 0.5681 0.0
C874 C 0.53185 0.58607 0.55741 0.0
C875 C 0.49732 0.55768 0.55505 0.0
C876 C 0.48543 0.54292 0.49305 0.0
H877 H 0.43597 0.4313 0.49018 0.0
H878 H 0.44954 0.46803 0.5098 0.0
H879 H 0.47989 0.52016 0.46336 0.0
H880 H 0.53979 0.60684 0.52572 0.0
H881 H 0.50676 0.58794 0.50314 0.0
H882 H 0.45082 0.54037 0.54287 0.0
C883 C 0.44348 0.46853 0.49168 0.0
C884 C 0.47314 0.52484 0.48048 0.0
C885 C 0.43603 0.44758 0.4804 0.0
C886 C 0.5279 0.59328 0.53416 0.0
C887 C 0.50904 0.5824 0.52125 0.0
C888 C 0.45726 0.53629 0.52546 0.0
C889 C 0.44373 0.48989 0.47945 0.0
C890 C 0.45361 0.5116 0.49082 0.0
C891 C 0.49422 0.56371 0.53119 0.0
C892 C 0.47815 0.54831 0.51606 0.0
H893 H 0.42256 0.46984 0.42655 0.0
H894 H 0.43654 0.50645 0.44616 0.0
H895 H 0.42998 0.50795 0.52113 0.0
H896 H 0.51849 0.56313 0.58607 0.0
H897 H 0.48653 0.5432 0.5633 0.0
C898 C 0.04962 0.54865 0.94031 0.0
C899 C 0.04317 0.56012 0.91973 0.0
C900 C 0.04406 0.52464 0.94292 0.0
C901 C 0.99556 0.4841 0.932 0.0
H902 H 0.03364 0.44256 0.96583 0.0
C903 C 0.95092 0.42322 0.00133 0.0
C904 C 0.96276 0.42533 0.0231 0.0
C905 C 0.96291 0.42978 0.98029 0.0
C906 C 0.0227 0.4538 0.95627 0.0
H907 H 0.02721 0.55565 0.88517 0.0
H908 H 0.01597 0.51334 0.89042 0.0
H909 H 0.0531 0.47449 0.94186 0.0
H910 H 0.99683 0.43417 0.03977 0.0
H911 H 0.01743 0.44672 0.00352 0.0
H912 H 0.96533 0.46557 0.94839 0.0
C913 C 0.02589 0.52297 0.90416 0.0
C914 C 0.03387 0.47188 0.94233 0.0
C915 C 0.03211 0.54706 0.90126 0.0
C916 C 0.98719 0.43249 0.02327 0.0
C917 C -0.00092 0.43945 0.00232 0.0
C918 C 0.98441 0.46631 0.94622 0.0
C919 C 0.03143 0.51171 0.92526 0.0
C920 C 0.0204 0.48805 0.93137 0.0
C921 C 0.98688 0.43905 0.98066 0.0
C922 C -0.00205 0.45198 0.95984 0.0
H923 H 0.05855 0.55837 0.95461 0.0
H924 H 0.04821 0.51648 0.95951 0.0
H925 H 0.98477 0.49641 0.92379 0.0
H926 H 0.93216 0.41725 0.00061 0.0
H927 H 0.95308 0.42867 0.9639 0.0
C928 C 0.073 0.05712 0.17791 0.0
C929 C 0.0914 0.06449 0.16201 0.0
C930 C 0.07534 0.03877 0.19374 0.0
C931 C 0.11389 0.9907 0.20652 0.0
H932 H 0.08011 0.98888 0.26642 0.0
C933 C 0.13781 0.93295 0.28413 0.0
C934 C 0.11907 0.91876 0.29486 0.0
C935 C 0.13319 0.95022 0.26789 0.0
C936 C 0.08966 0.98918 0.24978 0.0
H937 H 0.12683 0.05881 0.15034 0.0
H938 H 0.13188 0.02816 0.1792 0.0
H939 H 0.07588 0.02065 0.23881 0.0
H940 H 0.0808 0.91223 0.29798 0.0
H941 H 0.07269 0.9437 0.2705 0.0
H942 H 0.1289 0.96001 0.21853 0.0
C943 C 0.11505 0.03555 0.1788 0.0
C944 C 0.08701 0.00726 0.23368 0.0
C945 C 0.11236 0.05341 0.16243 0.0
C946 C 0.09556 0.923 0.28997 0.0
C947 C 0.09094 0.9409 0.27425 0.0
C948 C 0.11713 0.97311 0.22298 0.0
C949 C 0.09646 0.02774 0.19456 0.0
C950 C 0.09911 0.00833 0.21176 0.0
C951 C 0.10974 0.9543 0.26266 0.0
C952 C 0.10519 0.97228 0.24483 0.0
H953 H 0.05641 0.06503 0.17761 0.0
H954 H 0.06033 0.03306 0.205 0.0
H955 H 0.12297 0.99028 0.18967 0.0
H956 H 0.15611 0.92995 0.28736 0.0
H957 H 0.14802 0.96023 0.25923 0.0
C958 C 0.3376 0.87183 0.5202 0.0
C959 C 0.34097 0.89191 0.53428 0.0
C960 C 0.31962 0.86973 0.50318 0.0
C961 C 0.27566 0.86482 0.47234 0.0
H962 H 0.25619 0.9228 0.44724 0.0
C963 C 0.19511 0.8669 0.40995 0.0
C964 C 0.19776 0.88273 0.39087 0.0
C965 C 0.21226 0.8676 0.42776 0.0
C966 C 0.26151 0.9064 0.45388 0.0
H967 H 0.32717 0.92467 0.54294 0.0
H968 H 0.29486 0.92023 0.51504 0.0
H969 H 0.28699 0.92412 0.47661 0.0
H970 H 0.21992 0.91224 0.37593 0.0
H971 H 0.24948 0.91368 0.40697 0.0
H972 H 0.25068 0.84727 0.44847 0.0
C973 C 0.30689 0.90675 0.51563 0.0
C974 C 0.27897 0.90711 0.47122 0.0
C975 C 0.32527 0.90918 0.532 0.0
C976 C 0.21734 0.89982 0.39044 0.0
C977 C 0.23428 0.90068 0.4083 0.0
C978 C 0.25829 0.86414 0.45476 0.0
C979 C 0.30425 0.88742 0.50031 0.0
C980 C 0.28607 0.88635 0.48111 0.0
C981 C 0.23216 0.8844 0.42703 0.0
C982 C 0.25079 0.88494 0.44554 0.0
H983 H 0.34957 0.85831 0.52152 0.0
H984 H 0.31847 0.85463 0.49175 0.0
H985 H 0.28034 0.84839 0.47945 0.0
H986 H 0.18025 0.85348 0.41072 0.0
H987 H 0.2099 0.85499 0.44209 0.0
C988 C 0.36309 0.07345 0.7674 0.0
C989 C 0.34349 0.06685 0.78222 0.0
C990 C 0.36962 0.05849 0.74963 0.0
C991 C 0.38785 0.01916 0.72175 0.0
H992 H 0.33923 0.979 0.68973 0.0
C993 C 0.41141 0.94415 0.66109 0.0
C994 C 0.39727 0.93891 0.6411 0.0
C995 C 0.40495 0.96031 0.67777 0.0
C996 C 0.3531 0.99027 0.69821 0.0
H997 H 0.31546 0.03923 0.79002 0.0
H998 H 0.32682 0.0132 0.75926 0.0
H999 H 0.32777 0.00661 0.71881 0.0
H1000 H 0.36502 0.94637 0.62321 0.0
H1001 H 0.35398 0.97455 0.65195 0.0
H1002 H 0.41315 0.00329 0.70058 0.0
C1003 C 0.33713 0.02998 0.76113 0.0
C1004 C 0.3465 0.00591 0.71526 0.0
C1005 C 0.3307 0.04486 0.77899 0.0
C1006 C 0.37629 0.94984 0.63846 0.0
C1007 C 0.3699 0.96603 0.65505 0.0
C1008 C 0.39445 0.00364 0.70453 0.0
C1009 C 0.35672 0.03653 0.74624 0.0
C1010 C 0.36377 0.02044 0.72744 0.0
C1011 C 0.38418 0.97161 0.67489 0.0
C1012 C 0.37718 0.98879 0.69268 0.0
H1013 H 0.37323 0.09035 0.76925 0.0
H1014 H 0.38453 0.06438 0.73829 0.0
H1015 H 0.40172 0.02976 0.73097 0.0
H1016 H 0.42763 0.936 0.66376 0.0
H1017 H 0.41612 0.96366 0.69309 0.0
C1018 C 0.25664 0.07704 0.89771 0.0
C1019 C 0.27277 0.09624 0.89127 0.0
C1020 C 0.24267 0.07779 0.91806 0.0
C1021 C 0.21687 0.11944 0.95729 0.0
H1022 H 0.2058 0.06574 -0.00087 0.0
C1023 C 0.15972 0.12177 0.04265 0.0
C1024 C 0.14538 0.10116 0.04864 0.0
C1025 C 0.17648 0.12175 0.02428 0.0
C1026 C 0.20827 0.08077 0.98741 0.0
H1027 H 0.28734 0.13111 0.9013 0.0
H1028 H 0.26249 0.13261 0.93671 0.0
H1029 H 0.23255 0.06421 0.96557 0.0
H1030 H 0.13737 0.06443 0.04003 0.0
H1031 H 0.16578 0.06454 0.00802 0.0
H1032 H 0.19221 0.13587 0.97882 0.0
C1033 C 0.26082 0.11691 0.92608 0.0
C1034 C 0.22372 0.07988 0.9682 0.0
C1035 C 0.27518 0.11597 0.90595 0.0
C1036 C 0.14827 0.0806 0.03607 0.0
C1037 C 0.16477 0.08062 0.01772 0.0
C1038 C 0.20111 0.12023 0.97636 0.0
C1039 C 0.24426 0.09791 0.93221 0.0
C1040 C 0.22816 0.09916 0.95288 0.0
C1041 C 0.17915 0.10115 0.01153 0.0
C1042 C 0.19648 0.10083 0.99161 0.0
H1043 H 0.25435 0.06164 0.88665 0.0
H1044 H 0.22994 0.06294 0.92219 0.0
H1045 H 0.21977 0.1345 0.94564 0.0
H1046 H 0.15785 0.13791 0.05197 0.0
H1047 H 0.18738 0.13786 0.02018 0.0
C1048 C 0.14847 0.09005 0.19675 0.0
C1049 C 0.12806 0.10191 0.19474 0.0
C1050 C 0.14991 0.07304 0.21438 0.0
C1051 C 0.11987 0.05255 0.2711 0.0
H1052 H 0.15778 0.00044 0.26411 0.0
C1053 C 0.10598 0.97209 0.33072 0.0
C1054 C 0.12597 0.96478 0.34208 0.0
C1055 C 0.10858 0.9888 0.31274 0.0
C1056 C 0.14717 0.01493 0.26628 0.0
H1057 H 0.09271 0.10451 0.20857 0.0
H1058 H 0.09429 0.0737 0.23788 0.0
H1059 H 0.15631 0.02854 0.2318 0.0
H1060 H 0.16444 0.96825 0.34259 0.0
H1061 H 0.169 0.99669 0.30971 0.0
H1062 H 0.10958 0.03799 0.30494 0.0
C1063 C 0.10985 0.07829 0.22696 0.0
C1064 C 0.14648 0.03125 0.24785 0.0
C1065 C 0.10871 0.0957 0.20984 0.0
C1066 C 0.14874 0.97358 0.3341 0.0
C1067 C 0.15134 0.98983 0.31539 0.0
C1068 C 0.12002 0.03591 0.28911 0.0
C1069 C 0.13074 0.0672 0.23005 0.0
C1070 C 0.13249 0.05013 0.24986 0.0
C1071 C 0.13121 -0.00198 0.30501 0.0
C1072 C 0.13331 0.01671 0.28673 0.0
H1073 H 0.16383 0.09481 0.18557 0.0
H1074 H 0.16639 0.06517 0.21618 0.0
H1075 H 0.10968 0.06726 0.27393 0.0
H1076 H 0.08818 0.96583 0.33654 0.0
H1077 H 0.09276 0.9948 0.30515 0.0
C1078 C 0.29178 0.82925 0.57041 0.0
C1079 C 0.30793 0.84557 0.58178 0.0
C1080 C 0.27332 0.83661 0.55692 0.0
C1081 C 0.24348 0.89062 0.54092 0.0
H1082 H 0.21985 0.8511 0.48918 0.0
C1083 C 0.19501 0.92601 0.46153 0.0
C1084 C 0.17496 0.91245 0.45275 0.0
C1085 C 0.20909 0.91705 0.47883 0.0
C1086 C 0.22608 0.86225 0.5037 0.0
H1087 H 0.3173 0.88246 0.58813 0.0
H1088 H 0.28604 0.8955 0.56381 0.0
H1089 H 0.2487 0.83746 0.51582 0.0
H1090 H 0.15422 0.87863 0.45495 0.0
H1091 H 0.17918 0.86278 0.48502 0.0
H1092 H 0.22183 0.91605 0.52733 0.0
C1093 C 0.28694 0.87688 0.56561 0.0
C1094 C 0.2426 0.85435 0.51932 0.0
C1095 C 0.30518 0.86945 0.57947 0.0
C1096 C 0.16961 0.88948 0.46129 0.0
C1097 C 0.18385 0.88044 0.47855 0.0
C1098 C 0.22751 0.89876 0.52485 0.0
C1099 C 0.27078 0.8606 0.55387 0.0
C1100 C 0.25191 0.86852 0.53805 0.0
C1101 C 0.20363 0.89422 0.48763 0.0
C1102 C 0.21896 0.88482 0.50583 0.0
H1103 H 0.29306 0.81064 0.57229 0.0
H1104 H 0.26094 0.82326 0.54922 0.0
H1105 H 0.24918 0.90187 0.5555 0.0
H1106 H 0.19968 0.94375 0.45529 0.0
H1107 H 0.22446 0.92795 0.48515 0.0
C1108 C 0.35799 0.02105 0.83668 0.0
C1109 C 0.37302 0.04205 0.83575 0.0
C1110 C 0.35874 0.00439 0.8189 0.0
C1111 C 0.39741 0.98641 0.77027 0.0
H1112 H 0.34001 0.94811 0.7525 0.0
C1113 C 0.39951 0.90435 0.7124 0.0
C1114 C 0.38116 0.89923 0.69607 0.0
C1115 C 0.39863 0.92265 0.7284 0.0
C1116 C 0.35619 0.95879 0.75703 0.0
H1117 H 0.40009 0.0624 0.81496 0.0
H1118 H 0.40103 0.03354 0.78354 0.0
H1119 H 0.33793 0.97848 0.78185 0.0
H1120 H 0.34758 0.90937 0.68347 0.0
H1121 H 0.3458 0.94116 0.71163 0.0
H1122 H 0.41554 0.967 0.74497 0.0
C1123 C 0.38906 0.02965 0.79836 0.0
C1124 C 0.35507 0.97606 0.77417 0.0
C1125 C 0.3883 0.04637 0.81621 0.0
C1126 C 0.36207 0.91303 0.69576 0.0
C1127 C 0.36095 0.9311 0.71208 0.0
C1128 C 0.39852 0.96913 0.7531 0.0
C1129 C 0.37446 0.00831 0.79961 0.0
C1130 C 0.37566 0.99011 0.78106 0.0
C1131 C 0.37923 0.93614 0.72862 0.0
C1132 C 0.37794 0.95504 0.74633 0.0
H1133 H 0.34606 0.01711 0.85154 0.0
H1134 H 0.34745 0.9881 0.82074 0.0
H1135 H 0.4137 0.99664 0.77526 0.0
H1136 H 0.4144 0.8939 0.71311 0.0
H1137 H 0.41283 0.92573 0.74109 0.0
C1138 C 0.32384 0.1034 0.94612 0.0
C1139 C 0.33618 0.12127 0.93261 0.0
C1140 C 0.30803 0.10867 0.96384 0.0
C1141 C 0.28854 0.15939 -0.00155 0.0
H1142 H 0.23806 0.11235 0.01743 0.0
C1143 C 0.21215 0.18126 0.05982 0.0
C1144 C 0.20299 0.16425 0.07628 0.0
C1145 C 0.22836 0.17584 0.04247 0.0
C1146 C 0.25202 0.12573 0.0124 0.0
H1147 H 0.34097 0.15859 0.92618 0.0
H1148 H 0.31154 0.16782 0.95549 0.0
H1149 H 0.26538 0.10364 0.98664 0.0
H1150 H 0.2035 0.12817 0.08747 0.0
H1151 H 0.23231 0.11879 0.05764 0.0
H1152 H 0.27477 0.1815 0.02441 0.0
C1153 C 0.31503 0.14975 0.95356 0.0
C1154 C 0.26793 0.12071 0.99464 0.0
C1155 C 0.33162 0.1445 0.9364 0.0
C1156 C 0.21013 0.14159 0.07488 0.0
C1157 C 0.22664 0.13624 0.05773 0.0
C1158 C 0.27239 0.16451 0.01606 0.0
C1159 C 0.30334 0.13195 0.96798 0.0
C1160 C 0.28638 0.13748 0.98716 0.0
C1161 C 0.23609 0.15335 0.04137 0.0
C1162 C 0.25375 0.14779 0.0231 0.0
H1163 H 0.32738 0.08534 0.9439 0.0
H1164 H 0.30014 0.09434 0.97466 0.0
H1165 H 0.3029 0.17261 0.99406 0.0
H1166 H 0.20686 0.19886 0.0604 0.0
H1167 H 0.23476 0.18932 0.02986 0.0
C1168 C 0.94641 0.32401 0.08013 0.0
C1169 C 0.92329 0.31434 0.07478 0.0
C1170 C 0.9655 0.31049 0.07832 0.0
C1171 C 0.98426 0.26744 0.10092 0.0
H1172 H 0.00928 0.22781 0.05359 0.0
C1173 C 0.02242 0.18233 0.12566 0.0
C1174 C 0.04207 0.17558 0.11311 0.0
C1175 C 0.01151 0.2019 0.11866 0.0
C1176 C 0.00274 0.23902 0.06695 0.0
H1177 H 0.90265 0.28415 0.05975 0.0
H1178 H 0.93609 0.2606 0.05652 0.0
H1179 H 0.98438 0.25841 0.04143 0.0
H1180 H 0.06623 0.18459 0.08379 0.0
H1181 H 0.04737 0.21934 0.07184 0.0
H1182 H 0.0013 0.24768 0.12659 0.0
C1183 C 0.93934 0.27857 0.06237 0.0
C1184 C 0.98849 0.25642 0.05997 0.0
C1185 C 0.9202 0.29208 0.0643 0.0
C1186 C 0.05112 0.18937 0.09383 0.0
C1187 C 0.04018 0.20909 0.08683 0.0
C1188 C -0.00191 0.24995 0.10791 0.0
C1189 C 0.96176 0.2872 0.07081 0.0
C1190 C 0.97912 0.27068 0.07698 0.0
C1191 C 0.02004 0.21536 0.099 0.0
C1192 C 0.00731 0.23536 0.09108 0.0
H1193 H 0.94947 0.34133 0.08749 0.0
H1194 H 0.98279 0.31757 0.08454 0.0
H1195 H 0.97673 0.27786 0.11437 0.0
H1196 H 0.01493 0.17208 0.14053 0.0
H1197 H 0.99588 0.20604 0.12828 0.0
C1198 C 0.52271 0.31813 0.87835 0.0
C1199 C 0.52039 0.33802 0.86432 0.0
C1200 C 0.50591 0.29854 0.87704 0.0
C1201 C 0.45876 0.27172 0.83747 0.0
H1202 H 0.44146 0.23219 0.89189 0.0
C1203 C 0.40652 0.18306 0.82439 0.0
C1204 C 0.38867 0.17533 0.84073 0.0
C1205 C 0.42257 0.20238 0.82928 0.0
C1206 C 0.44597 0.24311 0.87654 0.0
H1207 H 0.49817 0.3533 0.83856 0.0
H1208 H 0.46868 0.31976 0.83682 0.0
H1209 H 0.46893 0.26738 0.89661 0.0
H1210 H 0.37442 0.18082 0.87568 0.0
H1211 H 0.40238 0.21508 0.8842 0.0
H1212 H 0.43557 0.24803 0.81748 0.0
C1213 C 0.48382 0.31877 0.84826 0.0
C1214 C 0.46194 0.26319 0.8792 0.0
C1215 C 0.5007 0.33813 0.84937 0.0
C1216 C 0.38804 0.18646 0.86275 0.0
C1217 C 0.40405 0.2061 0.86759 0.0
C1218 C 0.44286 0.25179 0.83486 0.0
C1219 C 0.48628 0.2986 0.86188 0.0
C1220 C 0.46872 0.27762 0.85961 0.0
C1221 C 0.42105 0.21472 0.85055 0.0
C1222 C 0.4367 0.23685 0.85419 0.0
H1223 H 0.53741 0.31776 0.89046 0.0
H1224 H 0.50854 0.28326 0.88763 0.0
H1225 H 0.46371 0.28213 0.82187 0.0
H1226 H 0.40773 0.17454 0.80744 0.0
H1227 H 0.43605 0.20777 0.81614 0.0
C1228 C 0.93763 0.65919 0.38615 0.0
C1229 C 0.92865 0.64259 0.36949 0.0
C1230 C 0.9554 0.67673 0.3799 0.0
C1231 C 0.98394 0.70908 0.32924 0.0
H1232 H 0.03268 0.7263 0.37543 0.0
C1233 C 0.05583 0.78587 0.31102 0.0
C1234 C 0.06685 0.79793 0.33017 0.0
C1235 C 0.04023 0.76575 0.31473 0.0
C1236 C 0.01889 0.72234 0.3625 0.0
H1237 H 0.93064 0.63196 0.33286 0.0
H1238 H 0.96183 0.66285 0.32183 0.0
H1239 H 0.00332 0.69361 0.3834 0.0
H1240 H 0.07036 0.79824 0.36819 0.0
H1241 H 0.04133 0.76481 0.37506 0.0
H1242 H -0.00192 0.73861 0.30902 0.0
C1243 C 0.95511 0.66216 0.33981 0.0
C1244 C 0.00212 0.70328 0.36703 0.0
C1245 C 0.93723 0.64448 0.34611 0.0
C1246 C 0.06171 0.7896 0.35313 0.0
C1247 C 0.0454 0.76997 0.35696 0.0
C1248 C 0.00011 0.72874 0.32508 0.0
C1249 C 0.96471 0.67821 0.3568 0.0
C1250 C 0.98405 0.6968 0.35072 0.0
C1251 C 0.03459 0.75746 0.33779 0.0
C1252 C 0.01772 0.73594 0.3418 0.0
H1253 H 0.93123 0.65844 0.40426 0.0
H1254 H 0.96176 0.68927 0.39324 0.0
H1255 H 0.97053 0.70431 0.3161 0.0
H1256 H 0.05978 0.79155 0.293 0.0
H1257 H 0.03313 0.75654 0.29932 0.0
C1258 C 0.00781 0.36773 0.11768 0.0
C1259 C 0.98351 0.36499 0.12349 0.0
C1260 C 0.02159 0.3491 0.12026 0.0
C1261 C 0.02809 0.29403 0.14978 0.0
H1262 H 0.0584 0.27757 0.09133 0.0
C1263 C 0.07801 0.21155 0.14379 0.0
C1264 C 0.09871 0.21272 0.12978 0.0
C1265 C 0.06312 0.22952 0.14305 0.0
C1266 C 0.05055 0.28216 0.10795 0.0
H1267 H 0.9549 0.3412 0.13803 0.0
H1268 H 0.97954 0.30876 0.14377 0.0
H1269 H 0.03492 0.31081 0.09205 0.0
H1270 H 0.11975 0.23359 0.1037 0.0
H1271 H 0.09419 0.26509 0.10275 0.0
H1272 H 0.04426 0.26599 0.16601 0.0
C1273 C 0.98763 0.32521 0.13663 0.0
C1274 C 0.03695 0.30112 0.10829 0.0
C1275 C 0.97359 0.34372 0.13342 0.0
C1276 C 0.10385 0.23202 0.11459 0.0
C1277 C 0.08906 0.25009 0.11398 0.0
C1278 C 0.04211 0.27531 0.1496 0.0
C1279 C 0.01152 0.32753 0.12923 0.0
C1280 C 0.02564 0.30723 0.12919 0.0
C1281 C 0.06864 0.24925 0.12844 0.0
C1282 C 0.05352 0.26908 0.12865 0.0
H1283 H 0.01595 0.38389 0.10992 0.0
H1284 H 0.04004 0.35138 0.1147 0.0
H1285 H 0.01959 0.29852 0.16612 0.0
H1286 H 0.07351 0.19697 0.15575 0.0
H1287 H 0.04728 0.22788 0.15399 0.0
C1288 C 0.60484 0.71736 0.60967 0.0
C1289 C 0.60907 0.70847 0.63224 0.0
C1290 C 0.59051 0.73573 0.60696 0.0
C1291 C 0.54629 0.76733 0.64094 0.0
H1292 H 0.55273 0.80938 0.58695 0.0
C1293 C 0.49389 0.84844 0.63239 0.0
C1294 C 0.48187 0.85026 0.61094 0.0
C1295 C 0.51036 0.83202 0.63507 0.0
C1296 C 0.55074 0.79772 0.6021 0.0
H1297 H 0.60316 0.71286 0.66975 0.0
H1298 H 0.57974 0.74565 0.66531 0.0
H1299 H 0.58041 0.77983 0.59167 0.0
H1300 H 0.47819 0.83726 0.57517 0.0
H1301 H 0.5081 0.8096 0.57934 0.0
H1302 H 0.51704 0.78581 0.65162 0.0
C1303 C 0.58609 0.73778 0.64946 0.0
C1304 C 0.5665 0.7806 0.60477 0.0
C1305 C 0.59971 0.719 0.65208 0.0
C1306 C 0.48694 0.83583 0.59202 0.0
C1307 C 0.50412 0.82011 0.59438 0.0
C1308 C 0.53092 0.78474 0.63852 0.0
C1309 C 0.58073 0.74614 0.62684 0.0
C1310 C 0.56444 0.76499 0.62417 0.0
C1311 C 0.51572 0.81775 0.61604 0.0
C1312 C 0.53283 0.79999 0.61899 0.0
H1313 H 0.61188 0.70954 0.59408 0.0
H1314 H 0.58658 0.74122 0.5892 0.0
H1315 H 0.54338 0.75533 0.65573 0.0
H1316 H 0.49041 0.8596 0.64713 0.0
H1317 H 0.51917 0.83071 0.6519 0.0
C1318 C 0.92627 0.72364 0.31848 0.0
C1319 C 0.91342 0.70913 0.33511 0.0
C1320 C 0.9423 0.74214 0.32573 0.0
C1321 C 0.97661 0.76606 0.37805 0.0
H1322 H 0.98516 0.82062 0.33719 0.0
C1323 C 0.05063 0.84278 0.3927 0.0
C1324 C 0.04605 0.86519 0.38506 0.0
C1325 C 0.03398 0.82342 0.38882 0.0
C1326 C 0.98278 0.80582 0.34919 0.0
H1327 H 0.90721 0.70276 0.37254 0.0
H1328 H 0.93532 0.73527 0.38539 0.0
H1329 H 0.95622 0.78884 0.32713 0.0
H1330 H 0.01996 0.88501 0.36837 0.0
H1331 H 0.99129 0.85173 0.36174 0.0
H1332 H 0.00223 0.78405 0.40095 0.0
C1333 C 0.93323 0.73214 0.36663 0.0
C1334 C 0.96643 0.78714 0.34306 0.0
C1335 C 0.91702 0.71354 0.35929 0.0
C1336 C 0.02433 0.86793 0.37406 0.0
C1337 C 0.00787 0.84868 0.37008 0.0
C1338 C 0.9926 0.78515 0.38457 0.0
C1339 C 0.94607 0.74675 0.34989 0.0
C1340 C 0.96316 0.76688 0.35724 0.0
C1341 C 0.01269 0.82601 0.37675 0.0
C1342 C 0.99585 0.80536 0.37022 0.0
H1343 H 0.92403 0.72075 0.29968 0.0
H1344 H 0.95223 0.75238 0.31219 0.0
H1345 H 0.97501 0.75061 0.38922 0.0
H1346 H 0.06707 0.84016 0.40157 0.0
H1347 H 0.03818 0.8064 0.39474 0.0
C1348 C 0.46001 0.1721 0.85756 0.0
C1349 C 0.45277 0.17049 0.88137 0.0
C1350 C 0.4777 0.1895 0.85019 0.0
C1351 C 0.52708 0.23046 0.87294 0.0
H1352 H 0.51688 0.26626 0.81631 0.0
C1353 C 0.58784 0.31435 0.8499 0.0
C1354 C 0.59344 0.31865 0.82597 0.0
C1355 C 0.57047 0.29634 0.85642 0.0
C1356 C 0.52034 0.25622 0.83194 0.0
H1357 H 0.45876 0.18559 0.91619 0.0
H1358 H 0.48947 0.21565 0.90342 0.0
H1359 H 0.48869 0.23309 0.82707 0.0
H1360 H 0.58463 0.30801 0.79006 0.0
H1361 H 0.55458 0.27684 0.80133 0.0
H1362 H 0.55915 0.25287 0.87745 0.0
C1363 C 0.48168 0.20346 0.89042 0.0
C1364 C 0.50403 0.23723 0.83817 0.0
C1365 C 0.46385 0.18634 0.89769 0.0
C1366 C 0.5807 0.30522 0.80869 0.0
C1367 C 0.5633 0.28734 0.81519 0.0
C1368 C 0.54366 0.24912 0.86647 0.0
C1369 C 0.48872 0.20538 0.86657 0.0
C1370 C 0.50699 0.22439 0.85894 0.0
C1371 C 0.5581 0.28242 0.83915 0.0
C1372 C 0.54041 0.26244 0.846 0.0
H1373 H 0.45196 0.16002 0.8446 0.0
H1374 H 0.48286 0.19042 0.83171 0.0
H1375 H 0.53014 0.22062 0.88883 0.0
H1376 H 0.59736 0.32438 0.86364 0.0
H1377 H 0.56689 0.29328 0.87506 0.0
C1378 C 0.85781 0.06868 0.71736 0.0
C1379 C 0.87873 0.0822 0.71041 0.0
C1380 C 0.85891 0.04876 0.73134 0.0
C1381 C 0.89562 0.00342 0.74974 0.0
H1382 H 0.85968 0.00383 0.80815 0.0
C1383 C 0.90344 0.93366 0.82285 0.0
C1384 C 0.88511 0.92976 0.83961 0.0
C1385 C 0.90242 0.95082 0.80532 0.0
C1386 C 0.86925 0.00279 0.79164 0.0
H1387 H 0.91715 0.08506 0.71135 0.0
H1388 H 0.91908 0.04917 0.7348 0.0
H1389 H 0.85831 0.03555 0.78013 0.0
H1390 H 0.85059 0.93927 0.85032 0.0
H1391 H 0.84766 0.96742 0.81879 0.0
H1392 H 0.90533 0.96996 0.76018 0.0
C1393 C 0.9019 0.05433 0.72981 0.0
C1394 C 0.86867 0.02129 0.7757 0.0
C1395 C 0.9008 0.07476 0.71645 0.0
C1396 C 0.86514 0.94221 0.83776 0.0
C1397 C 0.86372 0.95873 0.81984 0.0
C1398 C 0.89535 0.98428 0.76518 0.0
C1399 C 0.88093 0.04157 0.73795 0.0
C1400 C 0.8818 0.02177 0.7546 0.0
C1401 C 0.8827 0.96397 0.80381 0.0
C1402 C 0.88228 0.98373 0.78652 0.0
H1403 H 0.84058 0.07422 0.71312 0.0
H1404 H 0.8425 0.03916 0.73734 0.0
H1405 H 0.90627 0.00365 0.73375 0.0
H1406 H 0.91919 0.92447 0.82415 0.0
H1407 H 0.91763 0.95434 0.79373 0.0
C1408 C 0.67304 0.12375 0.46235 0.0
C1409 C 0.67351 0.1038 0.44818 0.0
C1410 C 0.68521 0.12537 0.48378 0.0
C1411 C 0.71359 0.09023 0.52901 0.0
H1412 H 0.74982 0.14965 0.54178 0.0
C1413 C 0.7851 0.10511 0.60292 0.0
C1414 C 0.7859 0.12669 0.61463 0.0
C1415 C 0.76971 0.10046 0.58379 0.0
C1416 C 0.73952 0.13302 0.53869 0.0
H1417 H 0.6862 0.06944 0.44591 0.0
H1418 H 0.7069 0.07207 0.48345 0.0
H1419 H 0.72532 0.14555 0.50674 0.0
H1420 H 0.76992 0.15946 0.61679 0.0
H1421 H 0.74315 0.15123 0.58402 0.0
H1422 H 0.72815 0.07775 0.56108 0.0
C1423 C 0.69751 0.08666 0.47787 0.0
C1424 C 0.7254 0.13069 0.51861 0.0
C1425 C 0.68582 0.08525 0.45621 0.0
C1426 C 0.77009 0.14283 0.60787 0.0
C1427 C 0.75481 0.13819 0.58896 0.0
C1428 C 0.72772 0.09259 0.54925 0.0
C1429 C 0.69781 0.10693 0.49166 0.0
C1430 C 0.71218 0.10932 0.51354 0.0
C1431 C 0.75498 0.11733 0.5762 0.0
C1432 C 0.74063 0.11411 0.5544 0.0
H1433 H 0.66347 0.13823 0.45679 0.0
H1434 H 0.68471 0.14109 0.4942 0.0
H1435 H 0.70352 0.07354 0.52567 0.0
H1436 H 0.79705 0.09233 0.6078 0.0
H1437 H 0.77023 0.08421 0.57425 0.0
C1438 C 0.62152 0.91113 0.2152 0.0
C1439 C 0.63056 0.90932 0.19219 0.0
C1440 C 0.62747 0.93109 0.22862 0.0
C1441 C 0.67288 0.98231 0.23325 0.0
H1442 H 0.62942 -0.00056 0.28194 0.0
C1443 C 0.67117 0.05897 0.30586 0.0
C1444 C 0.67265 0.04841 0.32824 0.0
C1445 C 0.67146 0.04543 0.28536 0.0
C1446 C 0.64166 0.99491 0.26829 0.0
H1447 H 0.652 0.92767 0.16471 0.0
H1448 H 0.66174 0.96315 0.18795 0.0
H1449 H 0.6162 0.96933 0.25378 0.0
H1450 H 0.67847 0.01612 0.34649 0.0
H1451 H 0.67808 0.9926 0.31079 0.0
H1452 H 0.69858 0.00778 0.24895 0.0
C1453 C 0.65063 0.94872 0.19589 0.0
C1454 C 0.63418 0.97756 0.25216 0.0
C1455 C 0.6448 0.92851 0.18244 0.0
C1456 C 0.67702 0.02476 0.32956 0.0
C1457 C 0.67694 0.01127 0.30914 0.0
C1458 C 0.68045 -0.0003 0.24965 0.0
C1459 C 0.64236 0.95009 0.21934 0.0
C1460 C 0.64976 0.97061 0.23465 0.0
C1461 C 0.67296 0.02127 0.28707 0.0
C1462 C 0.66495 0.0057 0.26751 0.0
H1463 H 0.61055 0.89669 0.22334 0.0
H1464 H 0.62106 0.93109 0.24669 0.0
H1465 H 0.68552 0.97727 0.22027 0.0
H1466 H 0.66804 0.07721 0.30424 0.0
H1467 H 0.66884 0.05345 0.26839 0.0
C1468 C 0.83201 0.83888 0.9514 0.0
C1469 C 0.83988 0.86046 0.94094 0.0
C1470 C 0.81243 0.83701 0.96676 0.0
C1471 C 0.76431 0.8713 0.99148 0.0
H1472 H 0.76455 0.82455 0.04113 0.0
C1473 C 0.69953 0.86489 0.0723 0.0
C1474 C 0.68803 0.84232 0.07605 0.0
C1475 C 0.71837 0.86849 0.05608 0.0
C1476 C 0.76428 0.83768 0.02733 0.0
H1477 H 0.83308 0.89684 0.93766 0.0
H1478 H 0.80036 0.89409 0.96533 0.0
H1479 H 0.79592 0.82768 0.0116 0.0
H1480 H 0.68747 0.80581 0.06602 0.0
H1481 H 0.72036 0.81208 0.03821 0.0
H1482 H 0.73305 0.88179 0.00829 0.0
C1483 C 0.8083 0.87822 0.96124 0.0
C1484 C 0.78211 0.83932 0.01011 0.0
C1485 C 0.82726 0.87986 0.9453 0.0
C1486 C 0.69585 0.82345 0.06349 0.0
C1487 C 0.71485 0.82697 0.04771 0.0
C1488 C 0.74678 0.86997 0.00908 0.0
C1489 C 0.80091 0.85691 0.97272 0.0
C1490 C 0.78213 0.85576 0.99153 0.0
C1491 C 0.72631 0.84948 0.04385 0.0
C1492 C 0.74628 0.85277 0.02679 0.0
H1493 H 0.84132 0.82362 0.94813 0.0
H1494 H 0.80676 0.82001 0.97432 0.0
H1495 H 0.76322 0.88397 0.97742 0.0
H1496 H 0.69401 0.87971 0.08189 0.0
H1497 H 0.72695 0.88603 0.05337 0.0
C1498 C 0.83919 0.02503 0.67866 0.0
C1499 C 0.86319 0.0283 0.67184 0.0
C1500 C 0.83148 0.0076 0.69527 0.0
C1501 C 0.84755 0.95235 0.72127 0.0
H1502 H 0.81579 0.97068 0.77815 0.0
C1503 C 0.84633 0.89689 0.80577 0.0
C1504 C 0.82561 0.89428 0.81973 0.0
C1505 C 0.84842 0.91263 0.78681 0.0
C1506 C 0.82424 0.96512 0.76221 0.0
H1507 H 0.89756 0.01524 0.67546 0.0
H1508 H 0.88384 0.98392 0.7029 0.0
H1509 H 0.82258 -0.00157 0.74527 0.0
H1510 H 0.79084 0.90623 0.82482 0.0
H1511 H 0.79464 0.93417 0.79182 0.0
H1512 H 0.84944 0.91918 0.73801 0.0
C1513 C 0.87117 0.99535 0.69647 0.0
C1514 C 0.82812 0.98103 0.74338 0.0
C1515 C 0.87905 0.01329 0.68082 0.0
C1516 C 0.80713 0.90806 0.81452 0.0
C1517 C 0.80932 0.92405 0.79563 0.0
C1518 C 0.84352 0.93643 0.73993 0.0
C1519 C 0.8475 0.99269 0.70442 0.0
C1520 C 0.84029 0.97495 0.72294 0.0
C1521 C 0.8299 0.9263 0.78136 0.0
C1522 C 0.8323 0.94276 0.76086 0.0
H1523 H 0.82666 0.03634 0.67171 0.0
H1524 H 0.81307 0.00577 0.70095 0.0
H1525 H 0.85671 0.94709 0.70561 0.0
H1526 H 0.86084 0.8864 0.80915 0.0
H1527 H 0.86476 0.91427 0.7766 0.0
C1528 C 0.82622 0.11132 0.56058 0.0
C1529 C 0.83362 0.08869 0.56043 0.0
C1530 C 0.81099 0.11829 0.54295 0.0
C1531 C 0.77105 0.09254 0.49495 0.0
H1532 H 0.77397 0.15665 0.47257 0.0
C1533 C 0.72472 0.11614 0.40932 0.0
C1534 C 0.7127 0.13638 0.4092 0.0
C1535 C 0.73938 0.11142 0.42813 0.0
C1536 C 0.7729 0.13868 0.4787 0.0
H1537 H 0.83196 0.05613 0.54099 0.0
H1538 H 0.80703 0.0685 0.50993 0.0
H1539 H 0.79965 0.14668 0.50486 0.0
H1540 H 0.70668 0.1676 0.42878 0.0
H1541 H 0.73217 0.15918 0.46195 0.0
H1542 H 0.74573 0.08419 0.46784 0.0
C1543 C 0.81158 0.08061 0.52417 0.0
C1544 C 0.78753 0.13296 0.49736 0.0
C1545 C 0.82618 0.07352 0.54197 0.0
C1546 C 0.71564 0.15181 0.42841 0.0
C1547 C 0.73046 0.14712 0.44727 0.0
C1548 C 0.75716 0.09811 0.47589 0.0
C1549 C 0.80332 0.10292 0.52454 0.0
C1550 C 0.78694 0.10971 0.50563 0.0
C1551 C 0.74246 0.12681 0.44737 0.0
C1552 C 0.7577 0.12123 0.46759 0.0
H1553 H 0.83171 0.12342 0.5746 0.0
H1554 H 0.80487 0.13551 0.54408 0.0
H1555 H 0.76926 0.07461 0.5012 0.0
H1556 H 0.72292 0.10393 0.39476 0.0
H1557 H 0.74856 0.09578 0.42743 0.0
C1558 C 0.5863 0.96463 0.19846 0.0
C1559 C 0.59814 0.96684 0.17656 0.0
C1560 C 0.58919 0.98263 0.21509 0.0
C1561 C 0.6266 0.03967 0.22724 0.0
H1562 H 0.5768 0.04679 0.27324 0.0
C1563 C 0.62676 0.12228 0.28368 0.0
C1564 C 0.62628 0.11806 0.30816 0.0
C1565 C 0.62078 0.10405 0.26789 0.0
C1566 C 0.5908 0.04499 0.26043 0.0
H1567 H 0.62239 0.98965 0.15495 0.0
H1568 H 0.62674 0.02115 0.18307 0.0
H1569 H 0.5721 0.01475 0.24513 0.0
H1570 H 0.61692 0.09217 0.33547 0.0
H1571 H 0.60633 0.06006 0.30774 0.0
H1572 H 0.64419 0.07118 0.24141 0.0
C1573 C 0.61586 0.00536 0.18822 0.0
C1574 C 0.58833 0.02639 0.24439 0.0
C1575 C 0.61331 0.9872 0.17184 0.0
C1576 C 0.61793 0.09568 0.31663 0.0
C1577 C 0.61166 0.07743 0.3008 0.0
C1578 C 0.62849 0.05877 0.24249 0.0
C1579 C 0.60378 0.00352 0.21016 0.0
C1580 C 0.60627 0.02332 0.22753 0.0
C1581 C 0.61383 0.0813 0.27627 0.0
C1582 C 0.61082 0.06148 0.25946 0.0
H1583 H 0.57454 0.94908 0.20266 0.0
H1584 H 0.57998 0.97993 0.23183 0.0
H1585 H 0.64137 0.0378 0.21544 0.0
H1586 H 0.6332 0.13937 0.27668 0.0
H1587 H 0.62234 0.10757 0.24907 0.0
C1588 C 0.65874 0.9131 0.05925 0.0
C1589 C 0.63858 0.90057 0.06939 0.0
C1590 C 0.67065 0.90384 0.04039 0.0
C1591 C 0.67854 0.84954 0.00726 0.0
H1592 H 0.70136 0.89443 0.95881 0.0
C1593 C 0.75039 0.83425 0.93648 0.0
C1594 C 0.74753 0.84354 0.91377 0.0
C1595 C 0.73402 0.83767 0.9545 0.0
C1596 C 0.69491 0.88157 0.97202 0.0
H1597 H 0.61587 0.86786 0.06854 0.0
H1598 H 0.63671 0.85162 0.03536 0.0
H1599 H 0.679 0.90717 0.99223 0.0
H1600 H 0.725 0.86297 0.89186 0.0
H1601 H 0.69719 0.86992 0.92352 0.0
H1602 H 0.69493 0.824 0.98692 0.0
C1603 C 0.64327 0.86868 0.04201 0.0
C1604 C 0.68235 0.88895 0.99141 0.0
C1605 C 0.63135 0.87796 0.06106 0.0
C1606 C 0.72778 0.8558 0.90927 0.0
C1607 C 0.71186 0.8598 0.9274 0.0
C1608 C 0.69146 0.84217 0.98792 0.0
C1609 C 0.66267 0.88183 0.03101 0.0
C1610 C 0.67445 0.87319 0.00958 0.0
C1611 C 0.71507 0.85123 0.95036 0.0
C1612 C 0.69996 0.8582 0.9702 0.0
H1613 H 0.66499 0.93043 0.06543 0.0
H1614 H 0.68606 0.91411 0.03299 0.0
H1615 H 0.67245 0.83687 0.02074 0.0
H1616 H 0.76526 0.82438 0.9403 0.0
H1617 H 0.7368 0.83057 0.97193 0.0
C1618 C 0.9774 0.8184 0.93375 0.0
C1619 C 0.96403 0.8262 0.91498 0.0
C1620 C 0.99605 0.80475 0.92946 0.0
C1621 C 0.03177 0.78174 0.87976 0.0
H1622 H 0.043 0.73458 0.92652 0.0
C1623 C 0.07074 0.69784 0.85354 0.0
C1624 C 0.08727 0.68848 0.86837 0.0
C1625 C 0.05874 0.71657 0.86095 0.0
C1626 C 0.04028 0.74779 0.91334 0.0
H1627 H 0.96021 0.82646 0.87694 0.0
H1628 H 0.99091 0.80088 0.86948 0.0
H1629 H 0.01672 0.76396 0.93599 0.0
H1630 H 0.10352 0.69091 0.90301 0.0
H1631 H 0.08231 0.72374 0.91608 0.0
H1632 H 0.05473 0.76473 0.85685 0.0
C1633 C 0.98801 0.80605 0.88754 0.0
C1634 C 0.02512 0.76481 0.91875 0.0
C1635 C 0.97002 0.82048 0.8918 0.0
C1636 C 0.09088 0.69775 0.89118 0.0
C1637 C 0.0788 0.71659 0.89863 0.0
C1638 C 0.04653 0.76447 0.87422 0.0
C1639 C 0.00136 0.79789 0.90631 0.0
C1640 C 0.01991 0.78157 0.90173 0.0
C1641 C 0.06296 0.72651 0.88336 0.0
C1642 C 0.05023 0.74676 0.89063 0.0
H1643 H 0.97355 0.82295 0.95184 0.0
H1644 H 0.00614 0.79955 0.94443 0.0
H1645 H 0.02941 0.79497 0.86652 0.0
H1646 H 0.06735 0.691 0.83594 0.0
H1647 H 0.04607 0.72325 0.84904 0.0
C1648 C 0.44333 0.64924 0.10809 0.0
C1649 C 0.43949 0.6363 0.12909 0.0
C1650 C 0.45813 0.6703 0.10788 0.0
C1651 C 0.5048 0.70325 0.14507 0.0
H1652 H 0.49847 0.75279 0.09942 0.0
C1653 C 0.55866 0.79282 0.15323 0.0
C1654 C 0.56988 0.80232 0.13263 0.0
C1655 C 0.54198 0.77328 0.15198 0.0
C1656 C 0.5006 0.73898 0.11212 0.0
H1657 H 0.44643 0.63575 0.16662 0.0
H1658 H 0.47035 0.67341 0.16688 0.0
H1659 H 0.4705 0.71775 0.09893 0.0
H1660 H 0.57129 0.7997 0.09443 0.0
H1661 H 0.54095 0.76629 0.09216 0.0
H1662 H 0.53478 0.72468 0.15833 0.0
C1663 C 0.46343 0.66682 0.15015 0.0
C1664 C 0.48454 0.71878 0.11187 0.0
C1665 C 0.44932 0.64541 0.15017 0.0
C1666 C 0.56283 0.79283 0.1106 0.0
C1667 C 0.54554 0.77365 0.10931 0.0
C1668 C 0.52067 0.72346 0.14541 0.0
C1669 C 0.46888 0.67917 0.12885 0.0
C1670 C 0.48618 0.70069 0.12858 0.0
C1671 C 0.53537 0.76331 0.13006 0.0
C1672 C 0.51865 0.74166 0.1291 0.0
H1673 H 0.43612 0.64235 0.09155 0.0
H1674 H 0.46185 0.67901 0.09106 0.0
H1675 H 0.50746 0.6895 0.15764 0.0
H1676 H 0.56385 0.79949 0.17051 0.0
H1677 H 0.53458 0.76571 0.1683 0.0
C1678 C 0.01366 0.3404 0.62838 0.0
C1679 C 0.03004 0.34571 0.60998 0.0
C1680 C 0.99586 0.32202 0.62619 0.0
C1681 C 0.97767 0.26772 0.59472 0.0
H1682 H 0.91697 0.27835 0.62275 0.0
C1683 C 0.89852 0.19533 0.61275 0.0
C1684 C 0.89579 0.19343 0.63741 0.0
C1685 C 0.91242 0.2146 0.60283 0.0
C1686 C 0.93367 0.27526 0.61443 0.0
H1687 H 0.04123 0.3357 0.57508 0.0
H1688 H 0.00965 0.30336 0.57109 0.0
H1689 H 0.94756 0.31101 0.61777 0.0
H1690 H 0.90371 0.21038 0.67094 0.0
H1691 H 0.92631 0.24462 0.65361 0.0
H1692 H 0.96378 0.2316 0.59239 0.0
C1693 C 0.01073 0.31344 0.58725 0.0
C1694 C 0.95126 0.29384 0.61181 0.0
C1695 C 0.02884 0.33179 0.58958 0.0
C1696 C 0.90597 0.21135 0.6519 0.0
C1697 C 0.91877 0.23092 0.64199 0.0
C1698 C 0.9599 0.24904 0.59723 0.0
C1699 C 0.99375 0.30875 0.60536 0.0
C1700 C 0.97387 0.29003 0.60315 0.0
C1701 C 0.92258 0.23251 0.6175 0.0
C1702 C 0.93823 0.25256 0.60819 0.0
H1703 H 0.01438 0.35072 0.64438 0.0
H1704 H 0.9836 0.3183 0.64083 0.0
H1705 H 0.99486 0.26429 0.58783 0.0
H1706 H 0.89055 0.18168 0.60134 0.0
H1707 H 0.91517 0.21556 0.58386 0.0
C1708 C 0.0216 0.686 0.90825 0.0
C1709 C 0.0265 0.67831 0.93112 0.0
C1710 C 0.00424 0.70126 0.90461 0.0
C1711 C 0.96823 0.74267 0.93622 0.0
H1712 H 0.93283 0.73801 0.87774 0.0
C1713 C 0.89138 0.79965 0.91272 0.0
C1714 C 0.89221 0.80845 0.88944 0.0
C1715 C 0.90714 0.78364 0.91986 0.0
C1716 C 0.94268 0.73963 0.89411 0.0
H1717 H 0.01696 0.68056 0.96818 0.0
H1718 H 0.98644 0.70686 0.96188 0.0
H1719 H 0.96098 0.70994 0.88613 0.0
H1720 H 0.91072 0.8079 0.8557 0.0
H1721 H 0.93747 0.77991 0.86793 0.0
H1722 H 0.9494 0.77232 0.94415 0.0
C1723 C 0.99629 0.70154 0.94671 0.0
C1724 C 0.95897 0.72359 0.89889 0.0
C1725 C 0.01377 0.68636 0.95033 0.0
C1726 C 0.9095 0.8015 0.87376 0.0
C1727 C 0.92468 0.78517 0.88067 0.0
C1728 C 0.95172 0.75864 0.93149 0.0
C1729 C 0.99117 0.70911 0.92377 0.0
C1730 C 0.97246 0.72522 0.91971 0.0
C1731 C 0.92353 0.77581 0.90365 0.0
C1732 C 0.93924 0.75763 0.91009 0.0
H1733 H 0.03097 0.67999 0.89305 0.0
H1734 H 0.00139 0.70717 0.88674 0.0
H1735 H 0.97827 0.74462 0.95243 0.0
H1736 H 0.87813 0.80453 0.92514 0.0
H1737 H 0.90586 0.77668 0.93771 0.0
C1738 C 0.45428 0.28696 0.34352 0.0
C1739 C 0.44048 0.29242 0.36308 0.0
C1740 C 0.47248 0.27249 0.34608 0.0
C1741 C 0.49299 0.22816 0.38749 0.0
H1742 H 0.54777 0.23312 0.34566 0.0
C1743 C 0.57172 0.17568 0.40531 0.0
C1744 C 0.58271 0.16561 0.3861 0.0
C1745 C 0.55512 0.19165 0.40161 0.0
C1746 C 0.53262 0.23151 0.35751 0.0
H1747 H 0.4357 0.28787 0.40093 0.0
H1748 H 0.46818 0.26347 0.40569 0.0
H1749 H 0.51908 0.2617 0.34269 0.0
H1750 H 0.58558 0.16505 0.34788 0.0
H1751 H 0.55637 0.19309 0.34132 0.0
H1752 H 0.50718 0.19859 0.40296 0.0
C1753 C 0.46441 0.26963 0.38813 0.0
C1754 C 0.51594 0.2478 0.35567 0.0
C1755 C 0.44597 0.28392 0.38549 0.0
C1756 C 0.5774 0.17256 0.36303 0.0
C1757 C 0.56067 0.18859 0.3593 0.0
C1758 C 0.51 0.21232 0.38974 0.0
C1759 C 0.4776 0.26328 0.36835 0.0
C1760 C 0.49586 0.24639 0.37067 0.0
C1761 C 0.54896 0.19793 0.37857 0.0
C1762 C 0.53022 0.214 0.37501 0.0
H1763 H 0.45047 0.29313 0.32595 0.0
H1764 H 0.48182 0.26782 0.33033 0.0
H1765 H 0.47747 0.22589 0.39886 0.0
H1766 H 0.5756 0.17091 0.42333 0.0
H1767 H 0.54706 0.19906 0.41688 0.0
C1768 C 0.94402 0.15359 0.66559 0.0
C1769 C 0.93485 0.14415 0.6443 0.0
C1770 C 0.95721 0.17554 0.66576 0.0
C1771 C -0.00274 0.21301 0.62857 0.0
H1772 H 0.98474 0.26316 0.67097 0.0
C1773 C 0.0586 0.29862 0.62674 0.0
C1774 C 0.0638 0.30957 0.6485 0.0
C1775 C 0.03987 0.28095 0.62491 0.0
C1776 C 0.98885 0.24928 0.65926 0.0
H1777 H 0.93233 0.1499 0.60655 0.0
H1778 H 0.95632 0.18778 0.60671 0.0
H1779 H 0.95931 0.22636 0.67226 0.0
H1780 H 0.05228 0.31163 0.68503 0.0
H1781 H 0.02042 0.28051 0.68216 0.0
H1782 H 0.02799 0.23453 0.61704 0.0
C1783 C 0.95282 0.17851 0.6233 0.0
C1784 C 0.97402 0.22829 0.65983 0.0
C1785 C 0.93897 0.15697 0.62324 0.0
C1786 C 0.04879 0.30359 0.66795 0.0
C1787 C 0.03032 0.28566 0.66623 0.0
C1788 C 0.01266 0.23357 0.62865 0.0
C1789 C 0.96214 0.18794 0.64453 0.0
C1790 C 0.97791 0.21011 0.64428 0.0
C1791 C 0.02606 0.27349 0.64488 0.0
C1792 C 0.0087 0.25211 0.64395 0.0
H1793 H 0.9412 0.14387 0.68201 0.0
H1794 H 0.96436 0.18238 0.68234 0.0
H1795 H 0.00087 0.19908 0.61666 0.0
H1796 H 0.0696 0.303 0.61129 0.0
H1797 H 0.03668 0.27278 0.60788 0.0
C1798 C 0.41517 0.69667 0.17804 0.0
C1799 C 0.40353 0.68662 0.15815 0.0
C1800 C 0.43157 0.71634 0.17567 0.0
C1801 C 0.45116 0.76412 0.13208 0.0
H1802 H 0.49818 0.78006 0.18038 0.0
C1803 C 0.52594 0.84012 0.12253 0.0
C1804 C 0.52781 0.85576 0.14155 0.0
C1805 C 0.51129 0.81908 0.12438 0.0
C1806 C 0.48523 0.77573 0.16668 0.0
H1807 H 0.40138 0.68826 0.11994 0.0
H1808 H 0.43078 0.72173 0.11557 0.0
H1809 H 0.47404 0.7428 0.18259 0.0
H1810 H 0.51671 0.86161 0.17756 0.0
H1811 H 0.49223 0.82409 0.18131 0.0
H1812 H 0.46409 0.79652 0.1153 0.0
C1813 C 0.42656 0.71525 0.13324 0.0
C1814 C 0.471 0.75447 0.1681 0.0
C1815 C 0.40987 0.69573 0.13566 0.0
C1816 C 0.51561 0.84969 0.16273 0.0
C1817 C 0.50162 0.82832 0.16484 0.0
C1818 C 0.4662 0.78488 0.13011 0.0
C1819 C 0.43724 0.72628 0.15327 0.0
C1820 C 0.45345 0.74842 0.15101 0.0
C1821 C 0.49901 0.81302 0.14555 0.0
C1822 C 0.48329 0.7909 0.14745 0.0
H1823 H 0.41063 0.69021 0.19569 0.0
H1824 H 0.43882 0.7243 0.19169 0.0
H1825 H 0.43758 0.76069 0.11883 0.0
H1826 H 0.53501 0.84458 0.10595 0.0
H1827 H 0.50958 0.80752 0.10929 0.0
C1828 C 0.64278 0.41302 0.74409 0.0
C1829 C 0.65593 0.42114 0.76391 0.0
C1830 C 0.64082 0.42749 0.72444 0.0
C1831 C 0.66641 0.48422 0.69724 0.0
H1832 H 0.60606 0.47959 0.66472 0.0
C1833 C 0.60654 0.54872 0.64589 0.0
C1834 C 0.62249 0.56 0.62943 0.0
C1835 C 0.61207 0.52869 0.65772 0.0
C1836 C 0.62312 0.48095 0.67344 0.0
H1837 H 0.67686 0.45107 0.77889 0.0
H1838 H 0.67215 0.47689 0.74526 0.0
H1839 H 0.6128 0.45129 0.69525 0.0
H1840 H 0.65651 0.5591 0.61195 0.0
H1841 H 0.66696 0.52443 0.63386 0.0
H1842 H 0.67594 0.51496 0.67626 0.0
C1843 C 0.66426 0.45895 0.74436 0.0
C1844 C 0.62713 0.46456 0.69088 0.0
C1845 C 0.66667 0.44427 0.76384 0.0
C1846 C 0.6441 0.5508 0.62484 0.0
C1847 C 0.64999 0.531 0.63726 0.0
C1848 C 0.66234 0.50069 0.67979 0.0
C1849 C 0.65151 0.45068 0.72425 0.0
C1850 C 0.64852 0.46642 0.70363 0.0
C1851 C 0.63397 0.51974 0.65382 0.0
C1852 C 0.64028 0.49975 0.66841 0.0
H1853 H 0.63455 0.39518 0.7434 0.0
H1854 H 0.63118 0.42027 0.70926 0.0
H1855 H 0.68337 0.48585 0.70613 0.0
H1856 H 0.5896 0.55529 0.6495 0.0
H1857 H 0.59949 0.52072 0.67062 0.0
C1858 C 0.83644 0.43695 0.0238 0.0
C1859 C 0.84306 0.41724 0.03596 0.0
C1860 C 0.81837 0.43473 0.00706 0.0
C1861 C 0.78439 0.3901 0.96933 0.0
H1862 H 0.74703 0.44176 0.95665 0.0
C1863 C 0.70928 0.38385 0.90036 0.0
C1864 C 0.71143 0.40194 0.88344 0.0
C1865 C 0.72287 0.38569 0.92096 0.0
C1866 C 0.7574 0.42724 0.95996 0.0
H1867 H 0.8356 0.37975 0.04034 0.0
H1868 H 0.80351 0.37586 0.01161 0.0
H1869 H 0.77498 0.4444 0.98927 0.0
H1870 H 0.72831 0.43659 0.87529 0.0
H1871 H 0.75111 0.44032 0.9119 0.0
H1872 H 0.76606 0.37274 0.94034 0.0
C1873 C 0.81248 0.39308 0.01474 0.0
C1874 C 0.77361 0.42877 0.97856 0.0
C1875 C 0.83072 0.3953 0.03146 0.0
C1876 C 0.72622 0.42247 0.88816 0.0
C1877 C 0.73926 0.42459 0.90908 0.0
C1878 C 0.7678 0.3884 0.95105 0.0
C1879 C 0.80618 0.41274 0.00211 0.0
C1880 C 0.7877 0.4104 0.98327 0.0
C1881 C 0.73822 0.40594 0.92537 0.0
C1882 C 0.7544 0.40708 0.94596 0.0
H1883 H 0.84571 0.45412 0.02667 0.0
H1884 H 0.81462 0.45026 -0.00257 0.0
H1885 H 0.79504 0.3757 0.97201 0.0
H1886 H 0.69825 0.36769 0.89697 0.0
H1887 H 0.72186 0.37103 0.93318 0.0
C1888 C 0.8939 0.60022 0.26648 0.0
C1889 C 0.87328 0.59547 0.28036 0.0
C1890 C 0.89961 0.58456 0.24901 0.0
C1891 C 0.87185 0.53565 0.21246 0.0
H1892 H 0.93734 0.52706 0.19773 0.0
C1893 C 0.89536 0.48101 0.13225 0.0
C1894 C 0.91418 0.46699 0.13466 0.0
C1895 C 0.89127 0.49756 0.14943 0.0
C1896 C 0.91892 0.52903 0.2017 0.0
H1897 H 0.84285 0.57016 0.2872 0.0
H1898 H 0.85275 0.54298 0.2569 0.0
H1899 H 0.92847 0.55256 0.23 0.0
H1900 H 0.94375 0.45974 0.15685 0.0
H1901 H 0.93649 0.48822 0.18681 0.0
H1902 H 0.86219 0.51111 0.18515 0.0
C1903 C 0.86441 0.55892 0.25919 0.0
C1904 C 0.91384 0.54399 0.22005 0.0
C1905 C 0.85889 0.5744 0.27685 0.0
C1906 C 0.9291 0.47026 0.15439 0.0
C1907 C 0.92499 0.48677 0.17157 0.0
C1908 C 0.87691 0.52044 0.19436 0.0
C1909 C 0.88476 0.56383 0.24491 0.0
C1910 C 0.89024 0.5476 0.22561 0.0
C1911 C 0.9058 0.50042 0.16953 0.0
C1912 C 0.90052 0.51698 0.18863 0.0
H1913 H 0.90529 0.61638 0.26864 0.0
H1914 H 0.91524 0.58916 0.23817 0.0
H1915 H 0.85345 0.53811 0.216 0.0
H1916 H 0.88365 0.47913 0.11716 0.0
H1917 H 0.87667 0.50811 0.14689 0.0
C1918 C 0.7976 0.65145 0.39677 0.0
C1919 C 0.79592 0.63123 0.38272 0.0
C1920 C 0.78041 0.65431 0.41417 0.0
C1921 C 0.71813 0.63326 0.42769 0.0
H1922 H 0.73098 0.65729 0.49067 0.0
C1923 C 0.65473 0.60986 0.50362 0.0
C1924 C 0.65131 0.62588 0.52168 0.0
C1925 C 0.6713 0.61545 0.48574 0.0
C1926 C 0.72706 0.65094 0.47303 0.0
H1927 H 0.77622 0.59736 0.37717 0.0
H1928 H 0.74684 0.60199 0.40785 0.0
H1929 H 0.76367 0.65617 0.46234 0.0
H1930 H 0.66232 0.66064 0.53484 0.0
H1931 H 0.69197 0.67034 0.50344 0.0
H1932 H 0.68181 0.62724 0.43844 0.0
C1933 C 0.76079 0.61606 0.40486 0.0
C1934 C 0.74579 0.65028 0.4568 0.0
C1935 C 0.77778 0.61329 0.38746 0.0
C1936 C 0.66462 0.64792 0.52116 0.0
C1937 C 0.68158 0.65345 0.50325 0.0
C1938 C 0.69956 0.63382 0.44385 0.0
C1939 C 0.76138 0.63694 0.4178 0.0
C1940 C 0.74159 0.64055 0.43428 0.0
C1941 C 0.68513 0.63717 0.4854 0.0
C1942 C 0.70394 0.64166 0.46704 0.0
H1943 H 0.81137 0.6656 0.39345 0.0
H1944 H 0.78142 0.6705 0.42399 0.0
H1945 H 0.71418 0.62649 0.41016 0.0
H1946 H 0.64483 0.59272 0.50341 0.0
H1947 H 0.67387 0.60229 0.47258 0.0
C1948 C 0.62797 0.45188 0.82122 0.0
C1949 C 0.6075 0.43585 0.82086 0.0
C1950 C 0.6318 0.46914 0.80371 0.0
C1951 C 0.61105 0.48873 0.74515 0.0
H1952 H 0.62924 0.55064 0.77025 0.0
C1953 C 0.63654 0.57385 0.6901 0.0
C1954 C 0.62171 0.59159 0.69435 0.0
C1955 C 0.63522 0.55398 0.70461 0.0
C1956 C 0.62421 0.53341 0.76307 0.0
H1957 H 0.57631 0.4239 0.80044 0.0
H1958 H 0.58298 0.45391 0.77001 0.0
H1959 H 0.62808 0.5165 0.79638 0.0
H1960 H 0.59396 0.60252 0.71713 0.0
H1961 H 0.59142 0.56737 0.74225 0.0
H1962 H 0.60673 0.50607 0.71196 0.0
C1963 C 0.59601 0.45333 0.78388 0.0
C1964 C 0.6238 0.51383 0.7779 0.0
C1965 C 0.59215 0.4361 0.80141 0.0
C1966 C 0.60536 0.58894 0.71323 0.0
C1967 C 0.60399 0.56899 0.72766 0.0
C1968 C 0.61173 0.50833 0.73028 0.0
C1969 C 0.61534 0.47065 0.78538 0.0
C1970 C 0.61719 0.49123 0.76913 0.0
C1971 C 0.61898 0.55143 0.72346 0.0
C1972 C 0.61825 0.53077 0.73916 0.0
H1973 H 0.64038 0.45198 0.83573 0.0
H1974 H 0.64728 0.48178 0.80496 0.0
H1975 H 0.60573 0.47163 0.73787 0.0
H1976 H 0.64977 0.57569 0.6761 0.0
H1977 H 0.64731 0.54088 0.70151 0.0
C1978 C 0.78749 0.36121 0.06303 0.0
C1979 C 0.79844 0.34097 0.05772 0.0
C1980 C 0.76765 0.36669 0.05029 0.0
C1981 C 0.72073 0.34145 0.00936 0.0
H1982 H 0.72017 0.40586 0.98918 0.0
C1983 C 0.65785 0.36747 0.9355 0.0
C1984 C 0.65136 0.39039 0.935 0.0
C1985 C 0.67415 0.36094 0.95222 0.0
C1986 C 0.7196 0.38782 0.99484 0.0
H1987 H 0.79717 0.31054 0.03506 0.0
H1988 H 0.76311 0.32043 0.01242 0.0
H1989 H 0.75054 0.39553 0.01593 0.0
H1990 H 0.65583 0.42414 0.95225 0.0
H1991 H 0.68287 0.41263 0.98197 0.0
H1992 H 0.68937 0.33377 0.98888 0.0
C1993 C 0.76941 0.33181 0.02674 0.0
C1994 C 0.73726 0.38189 0.01021 0.0
C1995 C 0.78909 0.32625 0.03958 0.0
C1996 C 0.6609 0.40645 0.95187 0.0
C1997 C 0.67663 0.39981 0.96891 0.0
C1998 C 0.70278 0.34744 0.99426 0.0
C1999 C 0.75848 0.35212 0.03187 0.0
C2000 C 0.73837 0.35858 0.01725 0.0
C2001 C 0.68391 0.37708 0.96915 0.0
C2002 C 0.70219 0.37068 0.98638 0.0
H2003 H 0.79419 0.37277 0.07706 0.0
H2004 H 0.75953 0.38237 0.05484 0.0
H2005 H 0.72075 0.32337 0.01491 0.0
H2006 H 0.65075 0.35476 0.92264 0.0
H2007 H 0.67954 0.34342 0.95134 0.0
C2008 C 0.88701 0.52978 0.30499 0.0
C2009 C 0.86736 0.52286 0.31959 0.0
C2010 C 0.89015 0.51838 0.28353 0.0
C2011 C 0.85725 0.4793 0.23953 0.0
H2012 H 0.92029 0.46483 0.2218 0.0
C2013 C 0.87146 0.42383 0.15677 0.0
C2014 C 0.88798 0.40727 0.15895 0.0
C2015 C 0.87034 0.44135 0.17379 0.0
C2016 C 0.9025 0.46855 0.22647 0.0
H2017 H 0.83539 0.49894 0.32304 0.0
H2018 H 0.84051 0.47944 0.28558 0.0
H2019 H 0.91508 0.48829 0.25658 0.0
H2020 H 0.91714 0.39692 0.18 0.0
H2021 H 0.91479 0.42667 0.20973 0.0
H2022 H 0.84447 0.45859 0.21019 0.0
C2023 C 0.85352 0.49368 0.29048 0.0
C2024 C 0.89956 0.48237 0.24634 0.0
C2025 C 0.85063 0.50477 0.31207 0.0
C2026 C 0.90414 0.40936 0.17776 0.0
C2027 C 0.90286 0.42663 0.19485 0.0
C2028 C 0.86016 0.46535 0.21975 0.0
C2029 C 0.87338 0.50022 0.27594 0.0
C2030 C 0.87682 0.48751 0.25345 0.0
C2031 C 0.8856 0.44259 0.19346 0.0
C2032 C 0.8828 0.4594 0.21314 0.0
H2033 H 0.90028 0.5436 0.3104 0.0
H2034 H 0.90557 0.52404 0.27277 0.0
H2035 H 0.83952 0.48336 0.2441 0.0
H2036 H 0.8589 0.42283 0.14235 0.0
H2037 H 0.85727 0.45371 0.17165 0.0
C2038 C 0.81891 0.60804 0.4336 0.0
C2039 C 0.81762 0.58598 0.4228 0.0
C2040 C 0.80247 0.6128 0.45094 0.0
C2041 C 0.74436 0.5918 0.47892 0.0
H2042 H 0.77133 0.62919 0.53085 0.0
C2043 C 0.69149 0.61457 0.5641 0.0
C2044 C 0.69551 0.63818 0.57085 0.0
C2045 C 0.70517 0.60581 0.546 0.0
C2046 C 0.76347 0.61877 0.51647 0.0
H2047 H 0.79714 0.55202 0.42094 0.0
H2048 H 0.76852 0.56029 0.45148 0.0
H2049 H 0.79681 0.61903 0.49872 0.0
H2050 H 0.7168 0.67108 0.56367 0.0
H2051 H 0.74059 0.65587 0.53286 0.0
H2052 H 0.71103 0.59122 0.49735 0.0
C2053 C 0.78222 0.57396 0.44641 0.0
C2054 C 0.77807 0.61307 0.4979 0.0
C2055 C 0.79867 0.56921 0.42889 0.0
C2056 C 0.71322 0.6528 0.55904 0.0
C2057 C 0.72701 0.64402 0.54139 0.0
C2058 C 0.72974 0.59727 0.49781 0.0
C2059 C 0.78435 0.5956 0.45814 0.0
C2060 C 0.76865 0.60009 0.47853 0.0
C2061 C 0.72338 0.62041 0.53477 0.0
C2062 C 0.73903 0.61151 0.51638 0.0
H2063 H 0.83303 0.62152 0.42912 0.0
H2064 H 0.80418 0.62997 0.45893 0.0
H2065 H 0.73647 0.5818 0.46429 0.0
H2066 H 0.67794 0.60288 0.57288 0.0
H2067 H 0.70193 0.58754 0.54124 0.0
C2068 C 0.55508 0.68269 0.59152 0.0
C2069 C 0.56124 0.67312 0.61324 0.0
C2070 C 0.53956 0.70011 0.59077 0.0
C2071 C 0.49531 0.7262 0.62955 0.0
H2072 H 0.49377 0.77003 0.57737 0.0
C2073 C 0.44357 0.80566 0.63618 0.0
C2074 C 0.42608 0.80739 0.6189 0.0
C2075 C 0.46097 0.79045 0.63316 0.0
C2076 C 0.49414 0.75796 0.59208 0.0
H2077 H 0.55749 0.67519 0.65122 0.0
H2078 H 0.53234 0.70701 0.65023 0.0
H2079 H 0.524 0.74268 0.57793 0.0
H2080 H 0.41445 0.79608 0.58395 0.0
H2081 H 0.44589 0.77008 0.57825 0.0
H2082 H 0.46651 0.74275 0.64439 0.0
C2083 C 0.53801 0.70018 0.63357 0.0
C2084 C 0.51125 0.74198 0.59231 0.0
C2085 C 0.55285 0.68222 0.63425 0.0
C2086 C 0.42764 0.79505 0.59761 0.0
C2087 C 0.44554 0.78017 0.59436 0.0
C2088 C 0.47891 0.74271 0.62972 0.0
C2089 C 0.53035 0.70878 0.6118 0.0
C2090 C 0.51219 0.72592 0.61118 0.0
C2091 C 0.46174 0.77711 0.61255 0.0
C2092 C 0.47836 0.75891 0.61116 0.0
H2093 H 0.56101 0.67565 0.57502 0.0
H2094 H 0.53405 0.70591 0.57362 0.0
H2095 H 0.49456 0.71364 0.64393 0.0
H2096 H 0.44303 0.81495 0.65276 0.0
H2097 H 0.47348 0.78862 0.6473 0.0
C2098 C 0.3578 0.56362 0.21913 0.0
C2099 C 0.36006 0.58613 0.22899 0.0
C2100 C 0.36119 0.54411 0.23315 0.0
C2101 C 0.35497 0.52256 0.29278 0.0
H2102 H 0.39871 0.4775 0.27565 0.0
C2103 C 0.35416 0.43712 0.3446 0.0
C2104 C 0.3762 0.42966 0.35056 0.0
C2105 C 0.35269 0.45444 0.32745 0.0
C2106 C 0.38653 0.48997 0.28078 0.0
H2107 H 0.36794 0.60582 0.26116 0.0
H2108 H 0.37363 0.57165 0.28549 0.0
H2109 H 0.39614 0.51234 0.25098 0.0
H2110 H 0.41389 0.43365 0.34281 0.0
H2111 H 0.41151 0.46449 0.3132 0.0
H2112 H 0.34554 0.50086 0.32278 0.0
C2113 C 0.36929 0.56921 0.26698 0.0
C2114 C 0.38489 0.50971 0.26648 0.0
C2115 C 0.36607 0.58872 0.253 0.0
C2116 C 0.39664 0.43895 0.33827 0.0
C2117 C 0.39525 0.45665 0.32136 0.0
C2118 C 0.35646 0.50283 0.30696 0.0
C2119 C 0.36682 0.54675 0.25718 0.0
C2120 C 0.36899 0.52604 0.27232 0.0
C2121 C 0.37333 0.46515 0.31636 0.0
C2122 C 0.37205 0.48612 0.30103 0.0
H2123 H 0.35313 0.56104 0.20071 0.0
H2124 H 0.35867 0.52689 0.22549 0.0
H2125 H 0.34266 0.53501 0.29769 0.0
H2126 H 0.33814 0.43011 0.35383 0.0
H2127 H 0.33541 0.45997 0.32346 0.0
C2128 C 0.28938 0.65061 0.07903 0.0
C2129 C 0.29109 0.63557 0.09845 0.0
C2130 C 0.2701 0.64747 0.06374 0.0
C2131 C 0.21701 0.60568 0.04855 0.0
H2132 H 0.19846 0.66107 0.01707 0.0
C2133 C 0.14973 0.60046 0.97241 0.0
C2134 C 0.13426 0.61803 0.97025 0.0
C2135 C 0.16745 0.60203 0.98951 0.0
C2136 C 0.20313 0.64544 0.02597 0.0
H2137 H 0.27414 0.60518 0.11691 0.0
H2138 H 0.23997 0.60017 0.09095 0.0
H2139 H 0.23146 0.66466 0.04415 0.0
H2140 H 0.12533 0.65105 0.98445 0.0
H2141 H 0.15664 0.65404 0.01405 0.0
H2142 H 0.18771 0.58675 0.03115 0.0
C2143 C 0.2538 0.61403 0.08689 0.0
C2144 C 0.22253 0.64738 0.04119 0.0
C2145 C 0.27343 0.61689 0.10191 0.0
C2146 C 0.13704 0.63729 0.98554 0.0
C2147 C 0.15504 0.63902 0.00246 0.0
C2148 C 0.19731 0.60383 0.03365 0.0
C2149 C 0.25163 0.62954 0.06777 0.0
C2150 C 0.23014 0.62746 0.05235 0.0
C2151 C 0.17053 0.62143 0.0046 0.0
C2152 C 0.19037 0.62362 0.02184 0.0
H2153 H 0.30287 0.66505 0.07576 0.0
H2154 H 0.26985 0.65921 0.04874 0.0
H2155 H 0.22222 0.58982 0.05648 0.0
H2156 H 0.14808 0.58529 0.96102 0.0
H2157 H 0.17912 0.58825 0.99042 0.0
C2158 C 0.0939 0.51486 0.87159 0.0
C2159 C 0.11162 0.53355 0.87413 0.0
C2160 C 0.09653 0.4975 0.85487 0.0
C2161 C 0.13964 0.47391 0.81294 0.0
H2162 H 0.08188 0.45561 0.77834 0.0
C2163 C 0.13745 0.41883 0.72668 0.0
C2164 C 0.11974 0.39986 0.7265 0.0
C2165 C 0.1375 0.43583 0.74439 0.0
C2166 C 0.09814 0.46042 0.78793 0.0
H2167 H 0.14695 0.54758 0.86341 0.0
H2168 H 0.15215 0.51664 0.83497 0.0
H2169 H 0.08082 0.48223 0.81139 0.0
H2170 H 0.08781 0.38416 0.744 0.0
H2171 H 0.08753 0.41396 0.77432 0.0
H2172 H 0.15697 0.45243 0.78873 0.0
C2173 C 0.13577 0.51579 0.84503 0.0
C2174 C 0.09752 0.47554 0.80706 0.0
C2175 C 0.13286 0.53354 0.86131 0.0
C2176 C 0.10169 0.39861 0.74372 0.0
C2177 C 0.10148 0.41573 0.76104 0.0
C2178 C 0.1403 0.45898 0.79351 0.0
C2179 C 0.11708 0.49833 0.84059 0.0
C2180 C 0.11815 0.4822 0.82013 0.0
C2181 C 0.1195 0.43439 0.76177 0.0
C2182 C 0.11946 0.45182 0.78103 0.0
H2183 H 0.07745 0.51435 0.88157 0.0
H2184 H 0.08215 0.48377 0.85272 0.0
H2185 H 0.15588 0.47853 0.82258 0.0
H2186 H 0.15162 0.42014 0.71363 0.0
H2187 H 0.15152 0.45013 0.74443 0.0
C2188 C 0.19963 0.36717 0.59386 0.0
C2189 C 0.18282 0.34754 0.59213 0.0
C2190 C 0.21932 0.36979 0.57858 0.0
C2191 C 0.25382 0.33473 0.5378 0.0
H2192 H 0.28002 0.39567 0.51496 0.0
C2193 C 0.33829 0.3465 0.47912 0.0
C2194 C 0.33878 0.36321 0.46085 0.0
C2195 C 0.31998 0.34477 0.49597 0.0
C2196 C 0.27284 0.37847 0.52104 0.0
H2197 H 0.17283 0.31589 0.57227 0.0
H2198 H 0.20659 0.32054 0.54571 0.0
H2199 H 0.24658 0.39276 0.54231 0.0
H2200 H 0.32014 0.39099 0.44578 0.0
H2201 H 0.28838 0.3879 0.47491 0.0
H2202 H 0.27947 0.32037 0.51582 0.0
C2203 C 0.20513 0.33372 0.55908 0.0
C2204 C 0.25379 0.37683 0.53702 0.0
C2205 C 0.18554 0.33115 0.57424 0.0
C2206 C 0.3203 0.3778 0.45952 0.0
C2207 C 0.30225 0.37632 0.47653 0.0
C2208 C 0.27276 0.33636 0.52175 0.0
C2209 C 0.22252 0.35285 0.56123 0.0
C2210 C 0.24378 0.35489 0.54535 0.0
C2211 C 0.30189 0.35987 0.49506 0.0
C2212 C 0.28239 0.35823 0.51298 0.0
H2213 H 0.19805 0.38007 0.60753 0.0
H2214 H 0.23236 0.38471 0.58089 0.0
H2215 H 0.24702 0.31754 0.54419 0.0
H2216 H 0.35241 0.3352 0.4808 0.0
H2217 H 0.32042 0.33204 0.51012 0.0
C2218 C 0.34228 0.38899 0.30854 0.0
C2219 C 0.36341 0.3809 0.31671 0.0
C2220 C 0.34275 0.40545 0.29018 0.0
C2221 C 0.38295 0.43248 0.24244 0.0
H2222 H 0.33669 0.47785 0.23987 0.0
C2223 C 0.39628 0.51611 0.18582 0.0
C2224 C 0.37736 0.52124 0.17135 0.0
C2225 C 0.3932 0.49807 0.20252 0.0
C2226 C 0.34949 0.46504 0.24019 0.0
H2227 H 0.40169 0.3844 0.31259 0.0
H2228 H 0.40273 0.41399 0.28168 0.0
H2229 H 0.33428 0.44873 0.27155 0.0
H2230 H 0.34013 0.51193 0.1636 0.0
H2231 H 0.33449 0.48096 0.19375 0.0
H2232 H 0.39879 0.44971 0.21173 0.0
C2233 C 0.38559 0.4069 0.28854 0.0
C2234 C 0.3481 0.44823 0.25832 0.0
C2235 C 0.38507 0.39011 0.30656 0.0
C2236 C 0.35503 0.50844 0.17455 0.0
C2237 C 0.35181 0.49069 0.1917 0.0
C2238 C 0.38455 0.44951 0.22465 0.0
C2239 C 0.36442 0.41457 0.27979 0.0
C2240 C 0.36504 0.43189 0.25991 0.0
C2241 C 0.37098 0.48515 0.20561 0.0
C2242 C 0.36803 0.46611 0.2235 0.0
H2243 H 0.32524 0.38206 0.31581 0.0
H2244 H 0.32601 0.41056 0.28384 0.0
H2245 H 0.39585 0.4198 0.24243 0.0
H2246 H 0.41376 0.52547 0.18368 0.0
H2247 H 0.40823 0.49429 0.21313 0.0
C2248 C 0.30761 0.55584 0.05421 0.0
C2249 C 0.32284 0.57292 0.06569 0.0
C2250 C 0.29059 0.56223 0.03838 0.0
C2251 C 0.273 0.61367 0.00342 0.0
H2252 H 0.21783 0.56979 0.99149 0.0
C2253 C 0.1972 0.63205 0.9386 0.0
C2254 C 0.19314 0.61456 0.92142 0.0
C2255 C 0.21144 0.62842 0.95821 0.0
C2256 C 0.23314 0.58223 0.99467 0.0
H2257 H 0.33209 0.61021 0.06957 0.0
H2258 H 0.3024 0.62144 0.04208 0.0
H2259 H 0.24513 0.56137 0.02241 0.0
H2260 H 0.19968 0.5794 0.91156 0.0
H2261 H 0.22338 0.57258 0.94636 0.0
H2262 H 0.25988 0.63496 0.97611 0.0
C2263 C 0.30336 0.60303 0.04527 0.0
C2264 C 0.24913 0.57728 0.01222 0.0
C2265 C 0.32048 0.59661 0.06116 0.0
C2266 C 0.20251 0.59309 0.92465 0.0
C2267 C 0.21606 0.58921 0.94453 0.0
C2268 C 0.25655 0.61892 0.9863 0.0
C2269 C 0.28797 0.58596 0.03373 0.0
C2270 C 0.26975 0.59256 0.01646 0.0
C2271 C 0.22104 0.60695 0.96127 0.0
C2272 C 0.23679 0.60297 0.98139 0.0
H2273 H 0.30915 0.53738 0.05701 0.0
H2274 H 0.28002 0.54833 0.02933 0.0
H2275 H 0.28863 0.62589 0.00567 0.0
H2276 H 0.19028 0.64882 0.93632 0.0
H2277 H 0.21492 0.64231 0.97098 0.0
C2278 C 0.09277 0.43893 0.68488 0.0
C2279 C 0.10709 0.44401 0.66471 0.0
C2280 C 0.09566 0.45295 0.70501 0.0
C2281 C 0.13731 0.4992 0.73287 0.0
H2282 H 0.08065 0.51398 0.76604 0.0
C2283 C 0.14511 0.5621 0.81135 0.0
C2284 C 0.1272 0.57693 0.8151 0.0
C2285 C 0.14204 0.54387 0.79515 0.0
C2286 C 0.09667 0.51039 0.75679 0.0
H2287 H 0.13635 0.46721 0.65033 0.0
H2288 H 0.14118 0.49167 0.68505 0.0
H2289 H 0.07722 0.48627 0.73364 0.0
H2290 H 0.0919 0.58419 0.80463 0.0
H2291 H 0.08676 0.55283 0.77574 0.0
H2292 H 0.15668 0.5243 0.75462 0.0
C2293 C 0.12787 0.47675 0.6856 0.0
C2294 C 0.09473 0.49408 0.73843 0.0
C2295 C 0.12505 0.46271 0.66555 0.0
C2296 C 0.10596 0.5729 0.80238 0.0
C2297 C 0.10298 0.55474 0.78588 0.0
C2298 C 0.13921 0.51577 0.75086 0.0
C2299 C 0.11296 0.47233 0.70546 0.0
C2300 C 0.11503 0.48844 0.72608 0.0
C2301 C 0.12114 0.54009 0.78182 0.0
C2302 C 0.11893 0.52173 0.76309 0.0
H2303 H 0.07888 0.42451 0.68492 0.0
H2304 H 0.08423 0.44866 0.72017 0.0
H2305 H 0.15341 0.49503 0.72413 0.0
H2306 H 0.16178 0.56471 0.82073 0.0
H2307 H 0.15624 0.53271 0.79322 0.0
C2308 C 0.14907 0.37481 0.54332 0.0
C2309 C 0.15493 0.39613 0.55498 0.0
C2310 C 0.16475 0.36669 0.52672 0.0
C2311 C 0.21658 0.38925 0.48912 0.0
H2312 H 0.22244 0.32352 0.47811 0.0
C2313 C 0.27235 0.36042 0.41193 0.0
C2314 C 0.28802 0.34368 0.417 0.0
C2315 C 0.25479 0.36497 0.42818 0.0
C2316 C 0.22106 0.34195 0.48107 0.0
H2317 H 0.18247 0.42471 0.55982 0.0
H2318 H 0.21 0.41029 0.53183 0.0
H2319 H 0.1947 0.33485 0.50812 0.0
H2320 H 0.29691 0.3175 0.44221 0.0
H2321 H 0.26555 0.32489 0.4705 0.0
H2322 H 0.24304 0.3964 0.4623 0.0
C2323 C 0.19299 0.40021 0.53452 0.0
C2324 C 0.20504 0.34848 0.49821 0.0
C2325 C 0.17726 0.40842 0.55081 0.0
C2326 C 0.28523 0.33079 0.43815 0.0
C2327 C 0.26714 0.33486 0.45417 0.0
C2328 C 0.23243 0.38274 0.47201 0.0
C2329 C 0.18672 0.37961 0.52168 0.0
C2330 C 0.20287 0.37226 0.50275 0.0
C2331 C 0.25219 0.35252 0.44967 0.0
C2332 C 0.23493 0.35904 0.46778 0.0
H2333 H 0.13194 0.36495 0.54622 0.0
H2334 H 0.15923 0.35077 0.51723 0.0
H2335 H 0.21506 0.40772 0.49154 0.0
H2336 H 0.27396 0.37031 0.39552 0.0
H2337 H 0.24323 0.37831 0.42391 0.0
C2338 C 0.47236 0.32344 0.44012 0.0
C2339 C 0.46188 0.33644 0.42261 0.0
C2340 C 0.4921 0.31158 0.43484 0.0
C2341 C 0.54083 0.30949 0.3909 0.0
H2342 H 0.54469 0.24748 0.41709 0.0
C2343 C 0.60231 0.24572 0.35194 0.0
C2344 C 0.61174 0.22917 0.36659 0.0
C2345 C 0.58704 0.26107 0.3611 0.0
C2346 C 0.54422 0.26497 0.41 0.0
H2347 H 0.46385 0.34701 0.38573 0.0
H2348 H 0.49811 0.32599 0.37638 0.0
H2349 H 0.51144 0.26908 0.42773 0.0
H2350 H 0.61331 0.21643 0.40262 0.0
H2351 H 0.58618 0.24304 0.41867 0.0
H2352 H 0.57338 0.30521 0.3728 0.0
C2353 C 0.49135 0.32536 0.39435 0.0
C2354 C 0.52505 0.27738 0.41606 0.0
C2355 C 0.47152 0.33718 0.39963 0.0
C2356 C 0.60617 0.22886 0.39084 0.0
C2357 C 0.59057 0.24408 0.4 0.0
C2358 C 0.55999 0.29709 0.38483 0.0
C2359 C 0.50193 0.31244 0.41192 0.0
C2360 C 0.52291 0.29965 0.4063 0.0
C2361 C 0.58044 0.26008 0.38513 0.0
C2362 C 0.56172 0.27447 0.39392 0.0
H2363 H 0.46545 0.32258 0.45804 0.0
H2364 H 0.4999 0.30204 0.44887 0.0
H2365 H 0.54009 0.32683 0.38349 0.0
H2366 H 0.60632 0.24656 0.33319 0.0
H2367 H 0.57939 0.27284 0.34897 0.0
loop_
_geom_bond_atom_site_label_1
_geom_bond_atom_site_label_2
_geom_bond_distance
_geom_bond_site_symmetry_2
_ccdc_geom_bond_type
O0 Cd1 2.223 . S
O0 C8 1.315 . S
Cd1 O0 2.223 . S
Cd1 O4 2.297 . S
Cd1 O5 2.439 . S
Cd1 O11 2.240 . S
Cd2 O3 2.240 . S
Cd2 O10 2.223 . S
Cd2 O12 2.297 . S
Cd2 O13 2.439 . S
O3 Cd2 2.240 . S
O3 C8 1.279 . S
O4 Cd1 2.297 . S
O4 C6 1.247 . S
O5 Cd1 2.439 . S
O5 C6 1.208 . S
C6 O4 1.247 . S
C6 O5 1.208 . S
C7 O12 1.247 . S
C7 O13 1.208 . S
C8 O0 1.315 . S
C8 O3 1.279 . S
C9 O10 1.315 . S
C9 O11 1.279 . S
O10 Cd2 2.223 . S
O10 C9 1.315 . S
O11 Cd1 2.240 . S
O11 C9 1.279 . S
O12 Cd2 2.297 . S
O12 C7 1.247 . S
O13 Cd2 2.439 . S
O13 C7 1.208 . S
O14 Cd15 2.223 . S
O14 C22 1.315 . S
Cd15 O14 2.223 . S
Cd15 O18 2.297 . S
Cd15 O19 2.439 . S
Cd15 O25 2.240 . S
Cd16 O17 2.240 . S
Cd16 O24 2.223 . S
Cd16 O26 2.297 . S
Cd16 O27 2.439 . S
O17 Cd16 2.240 . S
O17 C22 1.279 . S
O18 Cd15 2.297 . S
O18 C20 1.247 . S
O19 Cd15 2.439 . S
O19 C20 1.208 . S
C20 O18 1.247 . S
C20 O19 1.208 . S
C21 O26 1.247 . S
C21 O27 1.208 . S
C22 O14 1.315 . S
C22 O17 1.279 . S
C23 O24 1.315 . S
C23 O25 1.279 . S
O24 Cd16 2.223 . S
O24 C23 1.315 . S
O25 Cd15 2.240 . S
O25 C23 1.279 . S
O26 Cd16 2.297 . S
O26 C21 1.247 . S
O27 Cd16 2.439 . S
O27 C21 1.208 . S
O28 Cd29 2.223 . S
O28 C36 1.315 . S
Cd29 O28 2.223 . S
Cd29 O32 2.297 . S
Cd29 O33 2.439 . S
Cd29 O39 2.240 . S
Cd30 O31 2.240 . S
Cd30 O38 2.223 . S
Cd30 O40 2.297 . S
Cd30 O41 2.439 . S
O31 Cd30 2.240 . S
O31 C36 1.279 . S
O32 Cd29 2.297 . S
O32 C34 1.247 . S
O33 Cd29 2.439 . S
O33 C34 1.208 . S
C34 O32 1.247 . S
C34 O33 1.208 . S
C35 O40 1.247 . S
C35 O41 1.208 . S
C36 O28 1.315 . S
C36 O31 1.279 . S
C37 O38 1.315 . S
C37 O39 1.279 . S
O38 Cd30 2.223 . S
O38 C37 1.315 . S
O39 Cd29 2.240 . S
O39 C37 1.279 . S
O40 Cd30 2.297 . S
O40 C35 1.247 . S
O41 Cd30 2.439 . S
O41 C35 1.208 . S
O42 Cd43 2.223 . S
O42 C50 1.315 . S
Cd43 O42 2.223 . S
Cd43 O46 2.297 . S
Cd43 O47 2.439 . S
Cd43 O53 2.240 . S
Cd44 O45 2.240 . S
Cd44 O52 2.223 . S
Cd44 O54 2.297 . S
Cd44 O55 2.439 . S
O45 Cd44 2.240 . S
O45 C50 1.279 . S
O46 Cd43 2.297 . S
O46 C48 1.247 . S
O47 Cd43 2.439 . S
O47 C48 1.208 . S
C48 O46 1.247 . S
C48 O47 1.208 . S
C49 O54 1.247 . S
C49 O55 1.208 . S
C50 O42 1.315 . S
C50 O45 1.279 . S
C51 O52 1.315 . S
C51 O53 1.279 . S
O52 Cd44 2.223 . S
O52 C51 1.315 . S
O53 Cd43 2.240 . S
O53 C51 1.279 . S
O54 Cd44 2.297 . S
O54 C49 1.247 . S
O55 Cd44 2.439 . S
O55 C49 1.208 . S
O56 Cd57 2.223 . S
O56 C64 1.315 . S
Cd57 O56 2.223 . S
Cd57 O60 2.297 . S
Cd57 O61 2.439 . S
Cd57 O67 2.240 . S
Cd58 O59 2.240 . S
Cd58 O66 2.223 . S
Cd58 O68 2.297 . S
Cd58 O69 2.439 . S
O59 Cd58 2.240 . S
O59 C64 1.279 . S
O60 Cd57 2.297 . S
O60 C62 1.247 . S
O61 Cd57 2.439 . S
O61 C62 1.208 . S
C62 O60 1.247 . S
C62 O61 1.208 . S
C63 O68 1.247 . S
C63 O69 1.208 . S
C64 O56 1.315 . S
C64 O59 1.279 . S
C65 O66 1.315 . S
C65 O67 1.279 . S
O66 Cd58 2.223 . S
O66 C65 1.315 . S
O67 Cd57 2.240 . S
O67 C65 1.279 . S
O68 Cd58 2.297 . S
O68 C63 1.247 . S
O69 Cd58 2.439 . S
O69 C63 1.208 . S
O70 Cd71 2.223 . S
O70 C78 1.315 . S
Cd71 O70 2.223 . S
Cd71 O74 2.297 . S
Cd71 O75 2.439 . S
Cd71 O81 2.240 . S
Cd72 O73 2.240 . S
Cd72 O80 2.223 . S
Cd72 O82 2.297 . S
Cd72 O83 2.439 . S
O73 Cd72 2.240 . S
O73 C78 1.279 . S
O74 Cd71 2.297 . S
O74 C76 1.247 . S
O75 Cd71 2.439 . S
O75 C76 1.208 . S
C76 O74 1.247 . S
C76 O75 1.208 . S
C77 O82 1.247 . S
C77 O83 1.208 . S
C78 O70 1.315 . S
C78 O73 1.279 . S
C79 O80 1.315 . S
C79 O81 1.279 . S
O80 Cd72 2.223 . S
O80 C79 1.315 . S
O81 Cd71 2.240 . S
O81 C79 1.279 . S
O82 Cd72 2.297 . S
O82 C77 1.247 . S
O83 Cd72 2.439 . S
O83 C77 1.208 . S
O84 Cd85 2.223 . S
O84 C92 1.315 . S
Cd85 O84 2.223 . S
Cd85 O88 2.297 . S
Cd85 O89 2.439 . S
Cd85 O95 2.240 . S
Cd86 O87 2.240 . S
Cd86 O94 2.223 . S
Cd86 O96 2.297 . S
Cd86 O97 2.439 . S
O87 Cd86 2.240 . S
O87 C92 1.279 . S
O88 Cd85 2.297 . S
O88 C90 1.247 . S
O89 Cd85 2.439 . S
O89 C90 1.208 . S
C90 O88 1.247 . S
C90 O89 1.208 . S
C91 O96 1.247 . S
C91 O97 1.208 . S
C92 O84 1.315 . S
C92 O87 1.279 . S
C93 O94 1.315 . S
C93 O95 1.279 . S
O94 Cd86 2.223 . S
O94 C93 1.315 . S
O95 Cd85 2.240 . S
O95 C93 1.279 . S
O96 Cd86 2.297 . S
O96 C91 1.247 . S
O97 Cd86 2.439 . S
O97 C91 1.208 . S
O98 Cd99 2.223 . S
O98 C106 1.315 . S
Cd99 O98 2.223 . S
Cd99 O102 2.297 . S
Cd99 O103 2.439 . S
Cd99 O109 2.240 . S
Cd100 O101 2.240 . S
Cd100 O108 2.223 . S
Cd100 O110 2.297 . S
Cd100 O111 2.439 . S
O101 Cd100 2.240 . S
O101 C106 1.279 . S
O102 Cd99 2.297 . S
O102 C104 1.247 . S
O103 Cd99 2.439 . S
O103 C104 1.208 . S
C104 O102 1.247 . S
C104 O103 1.208 . S
C105 O110 1.247 . S
C105 O111 1.208 . S
C106 O98 1.315 . S
C106 O101 1.279 . S
C107 O108 1.315 . S
C107 O109 1.279 . S
O108 Cd100 2.223 . S
O108 C107 1.315 . S
O109 Cd99 2.240 . S
O109 C107 1.279 . S
O110 Cd100 2.297 . S
O110 C105 1.247 . S
O111 Cd100 2.439 . S
O111 C105 1.208 . S
O112 Cd113 2.223 . S
O112 C120 1.315 . S
Cd113 O112 2.223 . S
Cd113 O116 2.297 . S
Cd113 O117 2.439 . S
Cd113 O123 2.240 . S
Cd114 O115 2.240 . S
Cd114 O122 2.223 . S
Cd114 O124 2.297 . S
Cd114 O125 2.439 . S
O115 Cd114 2.240 . S
O115 C120 1.279 . S
O116 Cd113 2.297 . S
O116 C118 1.247 . S
O117 Cd113 2.439 . S
O117 C118 1.208 . S
C118 O116 1.247 . S
C118 O117 1.208 . S
C119 O124 1.247 . S
C119 O125 1.208 . S
C120 O112 1.315 . S
C120 O115 1.279 . S
C121 O122 1.315 . S
C121 O123 1.279 . S
O122 Cd114 2.223 . S
O122 C121 1.315 . S
O123 Cd113 2.240 . S
O123 C121 1.279 . S
O124 Cd114 2.297 . S
O124 C119 1.247 . S
O125 Cd114 2.439 . S
O125 C119 1.208 . S
O126 Cd127 2.223 . S
O126 C134 1.315 . S
Cd127 O126 2.223 . S
Cd127 O130 2.297 . S
Cd127 O131 2.439 . S
Cd127 O137 2.240 . S
Cd128 O129 2.240 . S
Cd128 O136 2.223 . S
Cd128 O138 2.297 . S
Cd128 O139 2.439 . S
O129 Cd128 2.240 . S
O129 C134 1.279 . S
O130 Cd127 2.297 . S
O130 C132 1.247 . S
O131 Cd127 2.439 . S
O131 C132 1.208 . S
C132 O130 1.247 . S
C132 O131 1.208 . S
C133 O138 1.247 . S
C133 O139 1.208 . S
C134 O126 1.315 . S
C134 O129 1.279 . S
C135 O136 1.315 . S
C135 O137 1.279 . S
O136 Cd128 2.223 . S
O136 C135 1.315 . S
O137 Cd127 2.240 . S
O137 C135 1.279 . S
O138 Cd128 2.297 . S
O138 C133 1.247 . S
O139 Cd128 2.439 . S
O139 C133 1.208 . S
O140 Cd141 2.223 . S
O140 C148 1.315 . S
Cd141 O140 2.223 . S
Cd141 O144 2.297 . S
Cd141 O145 2.439 . S
Cd141 O151 2.240 . S
Cd142 O143 2.240 . S
Cd142 O150 2.223 . S
Cd142 O152 2.297 . S
Cd142 O153 2.439 . S
O143 Cd142 2.240 . S
O143 C148 1.279 . S
O144 Cd141 2.297 . S
O144 C146 1.247 . S
O145 Cd141 2.439 . S
O145 C146 1.208 . S
C146 O144 1.247 . S
C146 O145 1.208 . S
C147 O152 1.247 . S
C147 O153 1.208 . S
C148 O140 1.315 . S
C148 O143 1.279 . S
C149 O150 1.315 . S
C149 O151 1.279 . S
O150 Cd142 2.223 . S
O150 C149 1.315 . S
O151 Cd141 2.240 . S
O151 C149 1.279 . S
O152 Cd142 2.297 . S
O152 C147 1.247 . S
O153 Cd142 2.439 . S
O153 C147 1.208 . S
O154 Cd155 2.223 . S
O154 C162 1.315 . S
Cd155 O154 2.223 . S
Cd155 O158 2.297 . S
Cd155 O159 2.439 . S
Cd155 O165 2.240 . S
Cd156 O157 2.240 . S
Cd156 O164 2.223 . S
Cd156 O166 2.297 . S
Cd156 O167 2.439 . S
O157 Cd156 2.240 . S
O157 C162 1.279 . S
O158 Cd155 2.297 . S
O158 C160 1.247 . S
O159 Cd155 2.439 . S
O159 C160 1.208 . S
C160 O158 1.247 . S
C160 O159 1.208 . S
C161 O166 1.247 . S
C161 O167 1.208 . S
C162 O154 1.315 . S
C162 O157 1.279 . S
C163 O164 1.315 . S
C163 O165 1.279 . S
O164 Cd156 2.223 . S
O164 C163 1.315 . S
O165 Cd155 2.240 . S
O165 C163 1.279 . S
O166 Cd156 2.297 . S
O166 C161 1.247 . S
O167 Cd156 2.439 . S
O167 C161 1.208 . S
O168 Cd169 2.223 . S
O168 C176 1.315 . S
Cd169 O168 2.223 . S
Cd169 O172 2.297 . S
Cd169 O173 2.439 . S
Cd169 O179 2.240 . S
Cd170 O171 2.240 . S
Cd170 O178 2.223 . S
Cd170 O180 2.297 . S
Cd170 O181 2.439 . S
O171 Cd170 2.240 . S
O171 C176 1.279 . S
O172 Cd169 2.297 . S
O172 C174 1.247 . S
O173 Cd169 2.439 . S
O173 C174 1.208 . S
C174 O172 1.247 . S
C174 O173 1.208 . S
C175 O180 1.247 . S
C175 O181 1.208 . S
C176 O168 1.315 . S
C176 O171 1.279 . S
C177 O178 1.315 . S
C177 O179 1.279 . S
O178 Cd170 2.223 . S
O178 C177 1.315 . S
O179 Cd169 2.240 . S
O179 C177 1.279 . S
O180 Cd170 2.297 . S
O180 C175 1.247 . S
O181 Cd170 2.439 . S
O181 C175 1.208 . S
O182 Cd183 2.223 . S
O182 C190 1.315 . S
Cd183 O182 2.223 . S
Cd183 O186 2.297 . S
Cd183 O187 2.439 . S
Cd183 O193 2.240 . S
Cd184 O185 2.240 . S
Cd184 O192 2.223 . S
Cd184 O194 2.297 . S
Cd184 O195 2.439 . S
O185 Cd184 2.240 . S
O185 C190 1.279 . S
O186 Cd183 2.297 . S
O186 C188 1.247 . S
O187 Cd183 2.439 . S
O187 C188 1.208 . S
C188 O186 1.247 . S
C188 O187 1.208 . S
C189 O194 1.247 . S
C189 O195 1.208 . S
C190 O182 1.315 . S
C190 O185 1.279 . S
C191 O192 1.315 . S
C191 O193 1.279 . S
O192 Cd184 2.223 . S
O192 C191 1.315 . S
O193 Cd183 2.240 . S
O193 C191 1.279 . S
O194 Cd184 2.297 . S
O194 C189 1.247 . S
O195 Cd184 2.439 . S
O195 C189 1.208 . S
O196 Cd197 2.223 . S
O196 C204 1.315 . S
Cd197 O196 2.223 . S
Cd197 O200 2.297 . S
Cd197 O201 2.439 . S
Cd197 O207 2.240 . S
Cd198 O199 2.240 . S
Cd198 O206 2.223 . S
Cd198 O208 2.297 . S
Cd198 O209 2.439 . S
O199 Cd198 2.240 . S
O199 C204 1.279 . S
O200 Cd197 2.297 . S
O200 C202 1.247 . S
O201 Cd197 2.439 . S
O201 C202 1.208 . S
C202 O200 1.247 . S
C202 O201 1.208 . S
C203 O208 1.247 . S
C203 O209 1.208 . S
C204 O196 1.315 . S
C204 O199 1.279 . S
C205 O206 1.315 . S
C205 O207 1.279 . S
O206 Cd198 2.223 . S
O206 C205 1.315 . S
O207 Cd197 2.240 . S
O207 C205 1.279 . S
O208 Cd198 2.297 . S
O208 C203 1.247 . S
O209 Cd198 2.439 . S
O209 C203 1.208 . S
O210 Cd211 2.223 . S
O210 C218 1.315 . S
Cd211 O210 2.223 . S
Cd211 O214 2.297 . S
Cd211 O215 2.439 . S
Cd211 O221 2.240 . S
Cd212 O213 2.240 . S
Cd212 O220 2.223 . S
Cd212 O222 2.297 . S
Cd212 O223 2.439 . S
O213 Cd212 2.240 . S
O213 C218 1.279 . S
O214 Cd211 2.297 . S
O214 C216 1.247 . S
O215 Cd211 2.439 . S
O215 C216 1.208 . S
C216 O214 1.247 . S
C216 O215 1.208 . S
C217 O222 1.247 . S
C217 O223 1.208 . S
C218 O210 1.315 . S
C218 O213 1.279 . S
C219 O220 1.315 . S
C219 O221 1.279 . S
O220 Cd212 2.223 . S
O220 C219 1.315 . S
O221 Cd211 2.240 . S
O221 C219 1.279 . S
O222 Cd212 2.297 . S
O222 C217 1.247 . S
O223 Cd212 2.439 . S
O223 C217 1.208 . S
O224 Cd225 2.223 . S
O224 C232 1.315 . S
Cd225 O224 2.223 . S
Cd225 O228 2.297 . S
Cd225 O229 2.439 . S
Cd225 O235 2.240 . S
Cd226 O227 2.240 . S
Cd226 O234 2.223 . S
Cd226 O236 2.297 . S
Cd226 O237 2.439 . S
O227 Cd226 2.240 . S
O227 C232 1.279 . S
O228 Cd225 2.297 . S
O228 C230 1.247 . S
O229 Cd225 2.439 . S
O229 C230 1.208 . S
C230 O228 1.247 . S
C230 O229 1.208 . S
C231 O236 1.247 . S
C231 O237 1.208 . S
C232 O224 1.315 . S
C232 O227 1.279 . S
C233 O234 1.315 . S
C233 O235 1.279 . S
O234 Cd226 2.223 . S
O234 C233 1.315 . S
O235 Cd225 2.240 . S
O235 C233 1.279 . S
O236 Cd226 2.297 . S
O236 C231 1.247 . S
O237 Cd226 2.439 . S
O237 C231 1.208 . S
O238 Cd239 2.223 . S
O238 C246 1.315 . S
Cd239 O238 2.223 . S
Cd239 O242 2.297 . S
Cd239 O243 2.439 . S
Cd239 O249 2.240 . S
Cd240 O241 2.240 . S
Cd240 O248 2.223 . S
Cd240 O250 2.297 . S
Cd240 O251 2.439 . S
O241 Cd240 2.240 . S
O241 C246 1.279 . S
O242 Cd239 2.297 . S
O242 C244 1.247 . S
O243 Cd239 2.439 . S
O243 C244 1.208 . S
C244 O242 1.247 . S
C244 O243 1.208 . S
C245 O250 1.247 . S
C245 O251 1.208 . S
C246 O238 1.315 . S
C246 O241 1.279 . S
C247 O248 1.315 . S
C247 O249 1.279 . S
O248 Cd240 2.223 . S
O248 C247 1.315 . S
O249 Cd239 2.240 . S
O249 C247 1.279 . S
O250 Cd240 2.297 . S
O250 C245 1.247 . S
O251 Cd240 2.439 . S
O251 C245 1.208 . S
O252 Cd253 2.223 . S
O252 C260 1.315 . S
Cd253 O252 2.223 . S
Cd253 O256 2.297 . S
Cd253 O257 2.439 . S
Cd253 O263 2.240 . S
Cd254 O255 2.240 . S
Cd254 O262 2.223 . S
Cd254 O264 2.297 . S
Cd254 O265 2.439 . S
O255 Cd254 2.240 . S
O255 C260 1.279 . S
O256 Cd253 2.297 . S
O256 C258 1.247 . S
O257 Cd253 2.439 . S
O257 C258 1.208 . S
C258 O256 1.247 . S
C258 O257 1.208 . S
C259 O264 1.247 . S
C259 O265 1.208 . S
C260 O252 1.315 . S
C260 O255 1.279 . S
C261 O262 1.315 . S
C261 O263 1.279 . S
O262 Cd254 2.223 . S
O262 C261 1.315 . S
O263 Cd253 2.240 . S
O263 C261 1.279 . S
O264 Cd254 2.297 . S
O264 C259 1.247 . S
O265 Cd254 2.439 . S
O265 C259 1.208 . S
O266 Cd267 2.223 . S
O266 C274 1.315 . S
Cd267 O266 2.223 . S
Cd267 O270 2.297 . S
Cd267 O271 2.439 . S
Cd267 O277 2.240 . S
Cd268 O269 2.240 . S
Cd268 O276 2.223 . S
Cd268 O278 2.297 . S
Cd268 O279 2.439 . S
O269 Cd268 2.240 . S
O269 C274 1.279 . S
O270 Cd267 2.297 . S
O270 C272 1.247 . S
O271 Cd267 2.439 . S
O271 C272 1.208 . S
C272 O270 1.247 . S
C272 O271 1.208 . S
C273 O278 1.247 . S
C273 O279 1.208 . S
C274 O266 1.315 . S
C274 O269 1.279 . S
C275 O276 1.315 . S
C275 O277 1.279 . S
O276 Cd268 2.223 . S
O276 C275 1.315 . S
O277 Cd267 2.240 . S
O277 C275 1.279 . S
O278 Cd268 2.297 . S
O278 C273 1.247 . S
O279 Cd268 2.439 . S
O279 C273 1.208 . S
O280 Cd281 2.223 . S
O280 C288 1.315 . S
Cd281 O280 2.223 . S
Cd281 O284 2.297 . S
Cd281 O285 2.439 . S
Cd281 O291 2.240 . S
Cd282 O283 2.240 . S
Cd282 O290 2.223 . S
Cd282 O292 2.297 . S
Cd282 O293 2.439 . S
O283 Cd282 2.240 . S
O283 C288 1.279 . S
O284 Cd281 2.297 . S
O284 C286 1.247 . S
O285 Cd281 2.439 . S
O285 C286 1.208 . S
C286 O284 1.247 . S
C286 O285 1.208 . S
C287 O292 1.247 . S
C287 O293 1.208 . S
C288 O280 1.315 . S
C288 O283 1.279 . S
C289 O290 1.315 . S
C289 O291 1.279 . S
O290 Cd282 2.223 . S
O290 C289 1.315 . S
O291 Cd281 2.240 . S
O291 C289 1.279 . S
O292 Cd282 2.297 . S
O292 C287 1.247 . S
O293 Cd282 2.439 . S
O293 C287 1.208 . S
O294 Cd295 2.223 . S
O294 C302 1.315 . S
Cd295 O294 2.223 . S
Cd295 O298 2.297 . S
Cd295 O299 2.439 . S
Cd295 O305 2.240 . S
Cd296 O297 2.240 . S
Cd296 O304 2.223 . S
Cd296 O306 2.297 . S
Cd296 O307 2.439 . S
O297 Cd296 2.240 . S
O297 C302 1.279 . S
O298 Cd295 2.297 . S
O298 C300 1.247 . S
O299 Cd295 2.439 . S
O299 C300 1.208 . S
C300 O298 1.247 . S
C300 O299 1.208 . S
C301 O306 1.247 . S
C301 O307 1.208 . S
C302 O294 1.315 . S
C302 O297 1.279 . S
C303 O304 1.315 . S
C303 O305 1.279 . S
O304 Cd296 2.223 . S
O304 C303 1.315 . S
O305 Cd295 2.240 . S
O305 C303 1.279 . S
O306 Cd296 2.297 . S
O306 C301 1.247 . S
O307 Cd296 2.439 . S
O307 C301 1.208 . S
O308 Cd309 2.223 . S
O308 C316 1.315 . S
Cd309 O308 2.223 . S
Cd309 O312 2.297 . S
Cd309 O313 2.439 . S
Cd309 O319 2.240 . S
Cd310 O311 2.240 . S
Cd310 O318 2.223 . S
Cd310 O320 2.297 . S
Cd310 O321 2.439 . S
O311 Cd310 2.240 . S
O311 C316 1.279 . S
O312 Cd309 2.297 . S
O312 C314 1.247 . S
O313 Cd309 2.439 . S
O313 C314 1.208 . S
C314 O312 1.247 . S
C314 O313 1.208 . S
C315 O320 1.247 . S
C315 O321 1.208 . S
C316 O308 1.315 . S
C316 O311 1.279 . S
C317 O318 1.315 . S
C317 O319 1.279 . S
O318 Cd310 2.223 . S
O318 C317 1.315 . S
O319 Cd309 2.240 . S
O319 C317 1.279 . S
O320 Cd310 2.297 . S
O320 C315 1.247 . S
O321 Cd310 2.439 . S
O321 C315 1.208 . S
O322 Cd323 2.223 . S
O322 C330 1.315 . S
Cd323 O322 2.223 . S
Cd323 O326 2.297 . S
Cd323 O327 2.439 . S
Cd323 O333 2.240 . S
Cd324 O325 2.240 . S
Cd324 O332 2.223 . S
Cd324 O334 2.297 . S
Cd324 O335 2.439 . S
O325 Cd324 2.240 . S
O325 C330 1.279 . S
O326 Cd323 2.297 . S
O326 C328 1.247 . S
O327 Cd323 2.439 . S
O327 C328 1.208 . S
C328 O326 1.247 . S
C328 O327 1.208 . S
C329 O334 1.247 . S
C329 O335 1.208 . S
C330 O322 1.315 . S
C330 O325 1.279 . S
C331 O332 1.315 . S
C331 O333 1.279 . S
O332 Cd324 2.223 . S
O332 C331 1.315 . S
O333 Cd323 2.240 . S
O333 C331 1.279 . S
O334 Cd324 2.297 . S
O334 C329 1.247 . S
O335 Cd324 2.439 . S
O335 C329 1.208 . S
O336 Cd337 2.223 . S
O336 C344 1.315 . S
Cd337 O336 2.223 . S
Cd337 O340 2.297 . S
Cd337 O341 2.439 . S
Cd337 O347 2.240 . S
Cd338 O339 2.240 . S
Cd338 O346 2.223 . S
Cd338 O348 2.297 . S
Cd338 O349 2.439 . S
O339 Cd338 2.240 . S
O339 C344 1.279 . S
O340 Cd337 2.297 . S
O340 C342 1.247 . S
O341 Cd337 2.439 . S
O341 C342 1.208 . S
C342 O340 1.247 . S
C342 O341 1.208 . S
C343 O348 1.247 . S
C343 O349 1.208 . S
C344 O336 1.315 . S
C344 O339 1.279 . S
C345 O346 1.315 . S
C345 O347 1.279 . S
O346 Cd338 2.223 . S
O346 C345 1.315 . S
O347 Cd337 2.240 . S
O347 C345 1.279 . S
O348 Cd338 2.297 . S
O348 C343 1.247 . S
O349 Cd338 2.439 . S
O349 C343 1.208 . S
O350 Cd351 2.223 . S
O350 C358 1.315 . S
Cd351 O350 2.223 . S
Cd351 O354 2.297 . S
Cd351 O355 2.439 . S
Cd351 O361 2.240 . S
Cd352 O353 2.240 . S
Cd352 O360 2.223 . S
Cd352 O362 2.297 . S
Cd352 O363 2.439 . S
O353 Cd352 2.240 . S
O353 C358 1.279 . S
O354 Cd351 2.297 . S
O354 C356 1.247 . S
O355 Cd351 2.439 . S
O355 C356 1.208 . S
C356 O354 1.247 . S
C356 O355 1.208 . S
C357 O362 1.247 . S
C357 O363 1.208 . S
C358 O350 1.315 . S
C358 O353 1.279 . S
C359 O360 1.315 . S
C359 O361 1.279 . S
O360 Cd352 2.223 . S
O360 C359 1.315 . S
O361 Cd351 2.240 . S
O361 C359 1.279 . S
O362 Cd352 2.297 . S
O362 C357 1.247 . S
O363 Cd352 2.439 . S
O363 C357 1.208 . S
O364 Cd365 2.223 . S
O364 C372 1.315 . S
Cd365 O364 2.223 . S
Cd365 O368 2.297 . S
Cd365 O369 2.439 . S
Cd365 O375 2.240 . S
Cd366 O367 2.240 . S
Cd366 O374 2.223 . S
Cd366 O376 2.297 . S
Cd366 O377 2.439 . S
O367 Cd366 2.240 . S
O367 C372 1.279 . S
O368 Cd365 2.297 . S
O368 C370 1.247 . S
O369 Cd365 2.439 . S
O369 C370 1.208 . S
C370 O368 1.247 . S
C370 O369 1.208 . S
C371 O376 1.247 . S
C371 O377 1.208 . S
C372 O364 1.315 . S
C372 O367 1.279 . S
C373 O374 1.315 . S
C373 O375 1.279 . S
O374 Cd366 2.223 . S
O374 C373 1.315 . S
O375 Cd365 2.240 . S
O375 C373 1.279 . S
O376 Cd366 2.297 . S
O376 C371 1.247 . S
O377 Cd366 2.439 . S
O377 C371 1.208 . S
O378 Cd379 2.223 . S
O378 C386 1.315 . S
Cd379 O378 2.223 . S
Cd379 O382 2.297 . S
Cd379 O383 2.439 . S
Cd379 O389 2.240 . S
Cd380 O381 2.240 . S
Cd380 O388 2.223 . S
Cd380 O390 2.297 . S
Cd380 O391 2.439 . S
O381 Cd380 2.240 . S
O381 C386 1.279 . S
O382 Cd379 2.297 . S
O382 C384 1.247 . S
O383 Cd379 2.439 . S
O383 C384 1.208 . S
C384 O382 1.247 . S
C384 O383 1.208 . S
C385 O390 1.247 . S
C385 O391 1.208 . S
C386 O378 1.315 . S
C386 O381 1.279 . S
C387 O388 1.315 . S
C387 O389 1.279 . S
O388 Cd380 2.223 . S
O388 C387 1.315 . S
O389 Cd379 2.240 . S
O389 C387 1.279 . S
O390 Cd380 2.297 . S
O390 C385 1.247 . S
O391 Cd380 2.439 . S
O391 C385 1.208 . S
O392 Cd393 2.223 . S
O392 C400 1.315 . S
Cd393 O392 2.223 . S
Cd393 O396 2.297 . S
Cd393 O397 2.439 . S
Cd393 O403 2.240 . S
Cd394 O395 2.240 . S
Cd394 O402 2.223 . S
Cd394 O404 2.297 . S
Cd394 O405 2.439 . S
O395 Cd394 2.240 . S
O395 C400 1.279 . S
O396 Cd393 2.297 . S
O396 C398 1.247 . S
O397 Cd393 2.439 . S
O397 C398 1.208 . S
C398 O396 1.247 . S
C398 O397 1.208 . S
C399 O404 1.247 . S
C399 O405 1.208 . S
C400 O392 1.315 . S
C400 O395 1.279 . S
C401 O402 1.315 . S
C401 O403 1.279 . S
O402 Cd394 2.223 . S
O402 C401 1.315 . S
O403 Cd393 2.240 . S
O403 C401 1.279 . S
O404 Cd394 2.297 . S
O404 C399 1.247 . S
O405 Cd394 2.439 . S
O405 C399 1.208 . S
O406 Cd407 2.223 . S
O406 C414 1.315 . S
Cd407 O406 2.223 . S
Cd407 O410 2.297 . S
Cd407 O411 2.439 . S
Cd407 O417 2.240 . S
Cd408 O409 2.240 . S
Cd408 O416 2.223 . S
Cd408 O418 2.297 . S
Cd408 O419 2.439 . S
O409 Cd408 2.240 . S
O409 C414 1.279 . S
O410 Cd407 2.297 . S
O410 C412 1.247 . S
O411 Cd407 2.439 . S
O411 C412 1.208 . S
C412 O410 1.247 . S
C412 O411 1.208 . S
C413 O418 1.247 . S
C413 O419 1.208 . S
C414 O406 1.315 . S
C414 O409 1.279 . S
C415 O416 1.315 . S
C415 O417 1.279 . S
O416 Cd408 2.223 . S
O416 C415 1.315 . S
O417 Cd407 2.240 . S
O417 C415 1.279 . S
O418 Cd408 2.297 . S
O418 C413 1.247 . S
O419 Cd408 2.439 . S
O419 C413 1.208 . S
O420 Cd421 2.223 . S
O420 C428 1.315 . S
Cd421 O420 2.223 . S
Cd421 O424 2.297 . S
Cd421 O425 2.439 . S
Cd421 O431 2.240 . S
Cd422 O423 2.240 . S
Cd422 O430 2.223 . S
Cd422 O432 2.297 . S
Cd422 O433 2.439 . S
O423 Cd422 2.240 . S
O423 C428 1.279 . S
O424 Cd421 2.297 . S
O424 C426 1.247 . S
O425 Cd421 2.439 . S
O425 C426 1.208 . S
C426 O424 1.247 . S
C426 O425 1.208 . S
C427 O432 1.247 . S
C427 O433 1.208 . S
C428 O420 1.315 . S
C428 O423 1.279 . S
C429 O430 1.315 . S
C429 O431 1.279 . S
O430 Cd422 2.223 . S
O430 C429 1.315 . S
O431 Cd421 2.240 . S
O431 C429 1.279 . S
O432 Cd422 2.297 . S
O432 C427 1.247 . S
O433 Cd422 2.439 . S
O433 C427 1.208 . S
O434 Cd435 2.223 . S
O434 C442 1.315 . S
Cd435 O434 2.223 . S
Cd435 O438 2.297 . S
Cd435 O439 2.439 . S
Cd435 O445 2.240 . S
Cd436 O437 2.240 . S
Cd436 O444 2.223 . S
Cd436 O446 2.297 . S
Cd436 O447 2.439 . S
O437 Cd436 2.240 . S
O437 C442 1.279 . S
O438 Cd435 2.297 . S
O438 C440 1.247 . S
O439 Cd435 2.439 . S
O439 C440 1.208 . S
C440 O438 1.247 . S
C440 O439 1.208 . S
C441 O446 1.247 . S
C441 O447 1.208 . S
C442 O434 1.315 . S
C442 O437 1.279 . S
C443 O444 1.315 . S
C443 O445 1.279 . S
O444 Cd436 2.223 . S
O444 C443 1.315 . S
O445 Cd435 2.240 . S
O445 C443 1.279 . S
O446 Cd436 2.297 . S
O446 C441 1.247 . S
O447 Cd436 2.439 . S
O447 C441 1.208 . S
C448 C449 1.349 . S
C448 C450 1.327 . S
C448 H473 0.950 . S
C449 C448 1.349 . S
C449 C465 1.349 . S
C450 C448 1.327 . S
C450 C469 1.429 . S
C450 H474 0.950 1_545 S
C451 C468 1.574 1_544 S
C451 C470 1.368 1_545 S
C451 H475 0.949 . S
H452 C456 0.949 . S
C453 C454 1.349 . S
C453 C455 1.327 . S
C453 H476 0.950 . S
C454 C453 1.349 . S
C454 C466 1.349 . S
C455 C453 1.327 . S
C455 C471 1.429 . S
C455 H477 0.950 . S
C456 H452 0.949 . S
C456 C464 1.574 . S
C456 C472 1.368 . S
H457 C465 0.950 . S
H458 C463 0.950 . S
H459 C464 0.949 . S
H460 C466 0.950 . S
H461 C467 0.950 1_554 S
H462 C468 0.949 . S
C463 H458 0.950 . S
C463 C465 1.327 . S
C463 C469 1.429 . S
C464 C456 1.574 . S
C464 H459 0.949 . S
C464 C470 1.368 . S
C465 C449 1.349 . S
C465 H457 0.950 . S
C465 C463 1.327 . S
C466 C454 1.349 . S
C466 H460 0.950 . S
C466 C467 1.327 . S
C467 H461 0.950 1_556 S
C467 C466 1.327 . S
C467 C471 1.429 . S
C468 C451 1.574 1_566 S
C468 H462 0.949 . S
C468 C472 1.368 1_556 S
C469 C450 1.429 . S
C469 C463 1.429 . S
C469 C470 1.523 1_445 S
C470 C451 1.368 1_565 S
C470 C464 1.368 . S
C470 C469 1.523 1_665 S
C471 C455 1.429 . S
C471 C467 1.429 . S
C471 C472 1.523 1_556 S
C472 C456 1.368 . S
C472 C468 1.368 1_554 S
C472 C471 1.523 1_554 S
H473 C448 0.950 . S
H474 C450 0.950 1_565 S
H475 C451 0.949 . S
H476 C453 0.950 . S
H477 C455 0.950 . S
C478 C479 1.349 . S
C478 C480 1.327 . S
C478 H503 0.950 . S
C479 C478 1.349 . S
C479 C495 1.349 . S
C480 C478 1.327 . S
C480 C499 1.429 . S
C480 H504 0.950 . S
C481 C498 1.574 . S
C481 C500 1.368 . S
C481 H505 0.949 . S
H482 C486 0.949 . S
C483 C484 1.349 . S
C483 C485 1.327 . S
C483 H506 0.950 . S
C484 C483 1.349 . S
C484 C496 1.349 . S
C485 C483 1.327 . S
C485 C501 1.429 . S
C485 H507 0.950 . S
C486 H482 0.949 . S
C486 C494 1.574 . S
C486 C502 1.368 . S
H487 C495 0.950 . S
H488 C493 0.950 . S
H489 C494 0.949 . S
H490 C496 0.950 . S
H491 C497 0.950 . S
H492 C498 0.949 . S
C493 H488 0.950 . S
C493 C495 1.327 . S
C493 C499 1.429 . S
C494 C486 1.574 . S
C494 H489 0.949 . S
C494 C500 1.368 . S
C495 C479 1.349 . S
C495 H487 0.950 . S
C495 C493 1.327 . S
C496 C484 1.349 . S
C496 H490 0.950 . S
C496 C497 1.327 . S
C497 H491 0.950 . S
C497 C496 1.327 . S
C497 C501 1.429 . S
C498 C481 1.574 . S
C498 H492 0.949 . S
C498 C502 1.368 . S
C499 C480 1.429 . S
C499 C493 1.429 . S
C499 C500 1.523 . S
C500 C481 1.368 . S
C500 C494 1.368 . S
C500 C499 1.523 . S
C501 C485 1.429 . S
C501 C497 1.429 . S
C501 C502 1.523 . S
C502 C486 1.368 . S
C502 C498 1.368 . S
C502 C501 1.523 . S
H503 C478 0.950 . S
H504 C480 0.950 . S
H505 C481 0.949 . S
H506 C483 0.950 . S
H507 C485 0.950 . S
C508 C509 1.349 . S
C508 C510 1.327 . S
C508 H533 0.950 . S
C509 C508 1.349 . S
C509 C525 1.349 . S
C510 C508 1.327 . S
C510 C529 1.429 . S
C510 H534 0.950 . S
C511 C528 1.574 . S
C511 C530 1.368 . S
C511 H535 0.949 . S
H512 C516 0.949 . S
C513 C514 1.349 . S
C513 C515 1.327 . S
C513 H536 0.950 . S
C514 C513 1.349 . S
C514 C526 1.349 . S
C515 C513 1.327 . S
C515 C531 1.429 . S
C515 H537 0.950 . S
C516 H512 0.949 . S
C516 C524 1.575 1_545 S
C516 C532 1.368 . S
H517 C525 0.950 . S
H518 C523 0.945 1_545 S
H519 C524 0.947 . S
H520 C526 0.950 . S
H521 C527 0.950 . S
H522 C528 0.949 . S
C523 H518 0.945 1_565 S
C523 C525 1.327 . S
C523 C529 1.429 . S
C524 C516 1.575 1_565 S
C524 H519 0.947 . S
C524 C530 1.369 1_565 S
C525 C509 1.349 . S
C525 H517 0.950 . S
C525 C523 1.327 . S
C526 C514 1.349 . S
C526 H520 0.950 . S
C526 C527 1.327 . S
C527 H521 0.950 . S
C527 C526 1.327 . S
C527 C531 1.429 . S
C528 C511 1.574 . S
C528 H522 0.949 . S
C528 C532 1.368 . S
C529 C510 1.429 . S
C529 C523 1.429 . S
C529 C530 1.523 1_565 S
C530 C511 1.368 . S
C530 C524 1.369 1_545 S
C530 C529 1.523 1_545 S
C531 C515 1.429 . S
C531 C527 1.429 . S
C531 C532 1.523 . S
C532 C516 1.368 . S
C532 C528 1.368 . S
C532 C531 1.523 . S
H533 C508 0.950 . S
H534 C510 0.950 . S
H535 C511 0.949 . S
H536 C513 0.950 . S
H537 C515 0.950 . S
C538 C539 1.349 . S
C538 C540 1.327 . S
C538 H563 0.950 . S
C539 C538 1.349 . S
C539 C555 1.349 . S
C540 C538 1.327 . S
C540 C559 1.429 . S
C540 H564 0.950 . S
C541 C558 1.574 . S
C541 C560 1.368 . S
C541 H565 0.949 . S
H542 C546 0.949 . S
C543 C544 1.349 . S
C543 C545 1.327 . S
C543 H566 0.950 . S
C544 C543 1.349 . S
C544 C556 1.349 . S
C545 C543 1.327 . S
C545 C561 1.429 . S
C545 H567 0.950 . S
C546 H542 0.949 . S
C546 C554 1.574 . S
C546 C562 1.368 . S
H547 C555 0.950 . S
H548 C553 0.950 . S
H549 C554 0.949 . S
H550 C556 0.950 . S
H551 C557 0.950 . S
H552 C558 0.949 . S
C553 H548 0.950 . S
C553 C555 1.327 . S
C553 C559 1.429 . S
C554 C546 1.574 . S
C554 H549 0.949 . S
C554 C560 1.368 . S
C555 C539 1.349 . S
C555 H547 0.950 . S
C555 C553 1.327 . S
C556 C544 1.349 . S
C556 H550 0.950 . S
C556 C557 1.327 . S
C557 H551 0.950 . S
C557 C556 1.327 . S
C557 C561 1.429 . S
C558 C541 1.574 . S
C558 H552 0.949 . S
C558 C562 1.368 . S
C559 C540 1.429 . S
C559 C553 1.429 . S
C559 C560 1.523 . S
C560 C541 1.368 . S
C560 C554 1.368 . S
C560 C559 1.523 . S
C561 C545 1.429 . S
C561 C557 1.429 . S
C561 C562 1.523 . S
C562 C546 1.368 . S
C562 C558 1.368 . S
C562 C561 1.523 . S
H563 C538 0.950 . S
H564 C540 0.950 . S
H565 C541 0.949 . S
H566 C543 0.950 . S
H567 C545 0.950 . S
C568 C569 1.349 . S
C568 C570 1.327 . S
C568 H593 0.950 . S
C569 C568 1.349 . S
C569 C585 1.349 . S
C570 C568 1.327 . S
C570 C589 1.429 . S
C570 H594 0.950 . S
C571 C588 1.574 . S
C571 C590 1.368 . S
C571 H595 0.949 . S
H572 C576 0.949 . S
C573 C574 1.349 . S
C573 C575 1.327 . S
C573 H596 0.950 . S
C574 C573 1.349 . S
C574 C586 1.349 . S
C575 C573 1.327 . S
C575 C591 1.429 1_545 S
C575 H597 0.950 . S
C576 H572 0.949 . S
C576 C584 1.574 . S
C576 C592 1.368 . S
H577 C585 0.950 . S
H578 C583 0.950 . S
H579 C584 0.949 . S
H580 C586 0.950 1_565 S
H581 C587 0.950 . S
H582 C588 0.949 1_545 S
C583 H578 0.950 . S
C583 C585 1.327 . S
C583 C589 1.429 . S
C584 C576 1.574 . S
C584 H579 0.949 . S
C584 C590 1.368 . S
C585 C569 1.349 . S
C585 H577 0.950 . S
C585 C583 1.327 . S
C586 C574 1.349 . S
C586 H580 0.950 1_545 S
C586 C587 1.327 1_545 S
C587 H581 0.950 . S
C587 C586 1.327 1_565 S
C587 C591 1.429 . S
C588 C571 1.574 . S
C588 H582 0.949 1_565 S
C588 C592 1.368 . S
C589 C570 1.429 . S
C589 C583 1.429 . S
C589 C590 1.523 1_455 S
C590 C571 1.368 . S
C590 C584 1.368 . S
C590 C589 1.523 1_655 S
C591 C575 1.429 1_565 S
C591 C587 1.429 . S
C591 C592 1.523 . S
C592 C576 1.368 . S
C592 C588 1.368 . S
C592 C591 1.523 . S
H593 C568 0.950 . S
H594 C570 0.950 . S
H595 C571 0.949 . S
H596 C573 0.950 . S
H597 C575 0.950 . S
C598 C599 1.349 . S
C598 C600 1.327 . S
C598 H623 0.950 . S
C599 C598 1.349 . S
C599 C615 1.349 . S
C600 C598 1.327 . S
C600 C619 1.429 . S
C600 H624 0.950 . S
C601 C618 1.574 . S
C601 C620 1.368 . S
C601 H625 0.949 . S
H602 C606 0.949 . S
C603 C604 1.349 . S
C603 C605 1.327 . S
C603 H626 0.950 . S
C604 C603 1.349 . S
C604 C616 1.349 . S
C605 C603 1.327 . S
C605 C621 1.429 . S
C605 H627 0.950 . S
C606 H602 0.949 . S
C606 C614 1.574 . S
C606 C622 1.368 . S
H607 C615 0.950 . S
H608 C613 0.950 . S
H609 C614 0.949 . S
H610 C616 0.950 . S
H611 C617 0.950 . S
H612 C618 0.949 . S
C613 H608 0.950 . S
C613 C615 1.327 . S
C613 C619 1.429 . S
C614 C606 1.574 . S
C614 H609 0.949 . S
C614 C620 1.368 . S
C615 C599 1.349 . S
C615 H607 0.950 . S
C615 C613 1.327 . S
C616 C604 1.349 . S
C616 H610 0.950 . S
C616 C617 1.327 . S
C617 H611 0.950 . S
C617 C616 1.327 . S
C617 C621 1.429 . S
C618 C601 1.574 . S
C618 H612 0.949 . S
C618 C622 1.368 . S
C619 C600 1.429 . S
C619 C613 1.429 . S
C619 C620 1.523 . S
C620 C601 1.368 . S
C620 C614 1.368 . S
C620 C619 1.523 . S
C621 C605 1.429 . S
C621 C617 1.429 . S
C621 C622 1.523 . S
C622 C606 1.368 . S
C622 C618 1.368 . S
C622 C621 1.523 . S
H623 C598 0.950 . S
H624 C600 0.950 . S
H625 C601 0.949 . S
H626 C603 0.950 . S
H627 C605 0.950 . S
C628 C629 1.349 . S
C628 C630 1.327 . S
C628 H653 0.950 . S
C629 C628 1.349 . S
C629 C645 1.349 . S
C630 C628 1.327 . S
C630 C649 1.429 . S
C630 H654 0.950 . S
C631 C648 1.574 . S
C631 C650 1.368 1_554 S
C631 H655 0.949 . S
H632 C636 0.951 1_565 S
C633 C634 1.349 . S
C633 C635 1.327 . S
C633 H656 0.950 . S
C634 C633 1.349 . S
C634 C646 1.349 . S
C635 C633 1.327 . S
C635 C651 1.429 . S
C635 H657 0.950 1_565 S
C636 H632 0.951 1_545 S
C636 C644 1.572 . S
C636 C652 1.368 1_556 S
H637 C645 0.950 . S
H638 C643 0.950 1_554 S
H639 C644 0.949 . S
H640 C646 0.950 . S
H641 C647 0.950 . S
H642 C648 0.949 . S
C643 H638 0.950 1_556 S
C643 C645 1.327 . S
C643 C649 1.429 . S
C644 C636 1.572 . S
C644 H639 0.949 . S
C644 C650 1.368 . S
C645 C629 1.349 . S
C645 H637 0.950 . S
C645 C643 1.327 . S
C646 C634 1.349 . S
C646 H640 0.950 . S
C646 C647 1.327 . S
C647 H641 0.950 . S
C647 C646 1.327 . S
C647 C651 1.429 . S
C648 C631 1.574 . S
C648 H642 0.949 . S
C648 C652 1.368 . S
C649 C630 1.429 . S
C649 C643 1.429 . S
C649 C650 1.523 . S
C650 C631 1.368 1_556 S
C650 C644 1.368 . S
C650 C649 1.523 . S
C651 C635 1.429 . S
C651 C647 1.429 . S
C651 C652 1.523 1_565 S
C652 C636 1.368 1_554 S
C652 C648 1.368 . S
C652 C651 1.523 1_545 S
H653 C628 0.950 . S
H654 C630 0.950 . S
H655 C631 0.949 . S
H656 C633 0.950 . S
H657 C635 0.950 1_545 S
C658 C659 1.349 . S
C658 C660 1.327 . S
C658 H683 0.950 . S
C659 C658 1.349 . S
C659 C675 1.349 . S
C660 C658 1.327 . S
C660 C679 1.429 . S
C660 H684 0.950 . S
C661 C678 1.574 . S
C661 C680 1.368 . S
C661 H685 0.949 . S
H662 C666 0.949 . S
C663 C664 1.349 . S
C663 C665 1.327 . S
C663 H686 0.950 . S
C664 C663 1.349 . S
C664 C676 1.349 . S
C665 C663 1.327 . S
C665 C681 1.429 . S
C665 H687 0.950 . S
C666 H662 0.949 . S
C666 C674 1.574 . S
C666 C682 1.368 . S
H667 C675 0.950 . S
H668 C673 0.950 . S
H669 C674 0.949 . S
H670 C676 0.950 . S
H671 C677 0.950 . S
H672 C678 0.949 . S
C673 H668 0.950 . S
C673 C675 1.327 . S
C673 C679 1.429 . S
C674 C666 1.574 . S
C674 H669 0.949 . S
C674 C680 1.368 . S
C675 C659 1.349 . S
C675 H667 0.950 . S
C675 C673 1.327 . S
C676 C664 1.349 . S
C676 H670 0.950 . S
C676 C677 1.327 . S
C677 H671 0.950 . S
C677 C676 1.327 . S
C677 C681 1.429 . S
C678 C661 1.574 . S
C678 H672 0.949 . S
C678 C682 1.368 . S
C679 C660 1.429 . S
C679 C673 1.429 . S
C679 C680 1.523 . S
C680 C661 1.368 . S
C680 C674 1.368 . S
C680 C679 1.523 . S
C681 C665 1.429 . S
C681 C677 1.429 . S
C681 C682 1.523 . S
C682 C666 1.368 . S
C682 C678 1.368 . S
C682 C681 1.523 . S
H683 C658 0.950 . S
H684 C660 0.950 . S
H685 C661 0.949 . S
H686 C663 0.950 . S
H687 C665 0.950 . S
C688 C689 1.349 . S
C688 C690 1.327 . S
C688 H713 0.950 . S
C689 C688 1.349 . S
C689 C705 1.349 . S
C690 C688 1.327 . S
C690 C709 1.429 . S
C690 H714 0.950 . S
C691 C708 1.574 . S
C691 C710 1.368 1_556 S
C691 H715 0.949 . S
H692 C696 0.949 . S
C693 C694 1.349 . S
C693 C695 1.327 . S
C693 H716 0.950 . S
C694 C693 1.349 . S
C694 C706 1.349 . S
C695 C693 1.327 . S
C695 C711 1.429 . S
C695 H717 0.950 . S
C696 H692 0.949 . S
C696 C704 1.574 1_556 S
C696 C712 1.368 . S
H697 C705 0.950 . S
H698 C703 0.950 . S
H699 C704 0.949 . S
H700 C706 0.950 . S
H701 C707 0.950 . S
H702 C708 0.949 . S
C703 H698 0.950 . S
C703 C705 1.327 . S
C703 C709 1.429 . S
C704 C696 1.574 1_554 S
C704 H699 0.949 . S
C704 C710 1.368 . S
C705 C689 1.349 . S
C705 H697 0.950 . S
C705 C703 1.327 . S
C706 C694 1.349 . S
C706 H700 0.950 . S
C706 C707 1.327 . S
C707 H701 0.950 . S
C707 C706 1.327 . S
C707 C711 1.429 . S
C708 C691 1.574 . S
C708 H702 0.949 . S
C708 C712 1.368 . S
C709 C690 1.429 . S
C709 C703 1.429 . S
C709 C710 1.523 . S
C710 C691 1.368 1_554 S
C710 C704 1.368 . S
C710 C709 1.523 . S
C711 C695 1.429 . S
C711 C707 1.429 . S
C711 C712 1.523 . S
C712 C696 1.368 . S
C712 C708 1.368 . S
C712 C711 1.523 . S
H713 C688 0.950 . S
H714 C690 0.950 . S
H715 C691 0.949 . S
H716 C693 0.950 . S
H717 C695 0.950 . S
C718 C719 1.349 . S
C718 C720 1.327 . S
C718 H743 0.950 . S
C719 C718 1.349 . S
C719 C735 1.349 . S
C720 C718 1.327 . S
C720 C739 1.429 . S
C720 H744 0.950 . S
C721 C738 1.574 . S
C721 C740 1.368 . S
C721 H745 0.949 . S
H722 C726 0.949 . S
C723 C724 1.349 . S
C723 C725 1.327 . S
C723 H746 0.950 . S
C724 C723 1.349 . S
C724 C736 1.349 . S
C725 C723 1.327 . S
C725 C741 1.429 . S
C725 H747 0.950 . S
C726 H722 0.949 . S
C726 C734 1.574 . S
C726 C742 1.368 . S
H727 C735 0.950 . S
H728 C733 0.950 . S
H729 C734 0.949 . S
H730 C736 0.950 . S
H731 C737 0.950 . S
H732 C738 0.949 . S
C733 H728 0.950 . S
C733 C735 1.327 . S
C733 C739 1.429 . S
C734 C726 1.574 . S
C734 H729 0.949 . S
C734 C740 1.368 . S
C735 C719 1.349 . S
C735 H727 0.950 . S
C735 C733 1.327 . S
C736 C724 1.349 . S
C736 H730 0.950 . S
C736 C737 1.327 . S
C737 H731 0.950 . S
C737 C736 1.327 . S
C737 C741 1.429 . S
C738 C721 1.574 . S
C738 H732 0.949 . S
C738 C742 1.368 . S
C739 C720 1.429 . S
C739 C733 1.429 . S
C739 C740 1.523 . S
C740 C721 1.368 . S
C740 C734 1.368 . S
C740 C739 1.523 . S
C741 C725 1.429 . S
C741 C737 1.429 . S
C741 C742 1.523 . S
C742 C726 1.368 . S
C742 C738 1.368 . S
C742 C741 1.523 . S
H743 C718 0.950 . S
H744 C720 0.950 . S
H745 C721 0.949 . S
H746 C723 0.950 . S
H747 C725 0.950 . S
C748 C749 1.349 . S
C748 C750 1.327 . S
C748 H773 0.950 . S
C749 C748 1.349 . S
C749 C765 1.349 . S
C750 C748 1.327 . S
C750 C769 1.429 . S
C750 H774 0.950 . S
C751 C768 1.574 1_455 S
C751 C770 1.368 . S
C751 H775 0.949 . S
H752 C756 0.949 . S
C753 C754 1.349 . S
C753 C755 1.327 . S
C753 H776 0.950 . S
C754 C753 1.349 . S
C754 C766 1.349 . S
C755 C753 1.327 . S
C755 C771 1.429 . S
C755 H777 0.950 . S
C756 H752 0.949 . S
C756 C764 1.574 1_655 S
C756 C772 1.368 . S
H757 C765 0.950 . S
H758 C763 0.950 . S
H759 C764 0.949 . S
H760 C766 0.950 . S
H761 C767 0.950 . S
H762 C768 0.949 . S
C763 H758 0.950 . S
C763 C765 1.327 . S
C763 C769 1.429 . S
C764 C756 1.574 1_455 S
C764 H759 0.949 . S
C764 C770 1.368 . S
C765 C749 1.349 . S
C765 H757 0.950 . S
C765 C763 1.327 . S
C766 C754 1.349 . S
C766 H760 0.950 . S
C766 C767 1.327 . S
C767 H761 0.950 . S
C767 C766 1.327 . S
C767 C771 1.429 . S
C768 C751 1.574 1_655 S
C768 H762 0.949 . S
C768 C772 1.368 . S
C769 C750 1.429 . S
C769 C763 1.429 . S
C769 C770 1.523 . S
C770 C751 1.368 . S
C770 C764 1.368 . S
C770 C769 1.523 . S
C771 C755 1.429 . S
C771 C767 1.429 . S
C771 C772 1.523 . S
C772 C756 1.368 . S
C772 C768 1.368 . S
C772 C771 1.523 . S
H773 C748 0.950 . S
H774 C750 0.950 . S
H775 C751 0.949 . S
H776 C753 0.950 . S
H777 C755 0.950 . S
C778 C779 1.349 . S
C778 C780 1.327 . S
C778 H803 0.950 . S
C779 C778 1.349 . S
C779 C795 1.349 . S
C780 C778 1.327 . S
C780 C799 1.429 . S
C780 H804 0.950 . S
C781 C798 1.574 . S
C781 C800 1.368 . S
C781 H805 0.949 . S
H782 C786 0.949 . S
C783 C784 1.349 . S
C783 C785 1.327 . S
C783 H806 0.950 . S
C784 C783 1.349 . S
C784 C796 1.349 . S
C785 C783 1.327 . S
C785 C801 1.429 . S
C785 H807 0.950 . S
C786 H782 0.949 . S
C786 C794 1.574 . S
C786 C802 1.368 . S
H787 C795 0.950 . S
H788 C793 0.950 . S
H789 C794 0.949 . S
H790 C796 0.950 . S
H791 C797 0.950 . S
H792 C798 0.949 . S
C793 H788 0.950 . S
C793 C795 1.327 . S
C793 C799 1.429 . S
C794 C786 1.574 . S
C794 H789 0.949 . S
C794 C800 1.368 . S
C795 C779 1.349 . S
C795 H787 0.950 . S
C795 C793 1.327 . S
C796 C784 1.349 . S
C796 H790 0.950 . S
C796 C797 1.327 . S
C797 H791 0.950 . S
C797 C796 1.327 . S
C797 C801 1.429 . S
C798 C781 1.574 . S
C798 H792 0.949 . S
C798 C802 1.368 . S
C799 C780 1.429 . S
C799 C793 1.429 . S
C799 C800 1.523 . S
C800 C781 1.368 . S
C800 C794 1.368 . S
C800 C799 1.523 . S
C801 C785 1.429 . S
C801 C797 1.429 . S
C801 C802 1.523 . S
C802 C786 1.368 . S
C802 C798 1.368 . S
C802 C801 1.523 . S
H803 C778 0.950 . S
H804 C780 0.950 . S
H805 C781 0.949 . S
H806 C783 0.950 . S
H807 C785 0.950 . S
C808 C809 1.349 . S
C808 C810 1.327 . S
C808 H833 0.950 . S
C809 C808 1.349 . S
C809 C825 1.349 . S
C810 C808 1.327 . S
C810 C829 1.429 . S
C810 H834 0.950 . S
C811 C828 1.574 . S
C811 C830 1.368 . S
C811 H835 0.949 . S
H812 C816 0.949 . S
C813 C814 1.349 . S
C813 C815 1.327 . S
C813 H836 0.950 . S
C814 C813 1.349 . S
C814 C826 1.349 . S
C815 C813 1.327 . S
C815 C831 1.429 . S
C815 H837 0.950 . S
C816 H812 0.949 . S
C816 C824 1.574 . S
C816 C832 1.368 . S
H817 C825 0.950 . S
H818 C823 0.950 . S
H819 C824 0.949 . S
H820 C826 0.950 . S
H821 C827 0.950 . S
H822 C828 0.949 . S
C823 H818 0.950 . S
C823 C825 1.327 . S
C823 C829 1.429 . S
C824 C816 1.574 . S
C824 H819 0.949 . S
C824 C830 1.368 . S
C825 C809 1.349 . S
C825 H817 0.950 . S
C825 C823 1.327 . S
C826 C814 1.349 . S
C826 H820 0.950 . S
C826 C827 1.327 . S
C827 H821 0.950 . S
C827 C826 1.327 . S
C827 C831 1.429 . S
C828 C811 1.574 . S
C828 H822 0.949 . S
C828 C832 1.368 . S
C829 C810 1.429 . S
C829 C823 1.429 . S
C829 C830 1.523 . S
C830 C811 1.368 . S
C830 C824 1.368 . S
C830 C829 1.523 . S
C831 C815 1.429 . S
C831 C827 1.429 . S
C831 C832 1.523 . S
C832 C816 1.368 . S
C832 C828 1.368 . S
C832 C831 1.523 . S
H833 C808 0.950 . S
H834 C810 0.950 . S
H835 C811 0.949 . S
H836 C813 0.950 . S
H837 C815 0.950 . S
C838 C839 1.349 . S
C838 C840 1.327 . S
C838 H863 0.950 . S
C839 C838 1.349 . S
C839 C855 1.349 . S
C840 C838 1.327 . S
C840 C859 1.429 . S
C840 H864 0.950 . S
C841 C858 1.574 . S
C841 C860 1.368 . S
C841 H865 0.949 . S
H842 C846 0.949 . S
C843 C844 1.349 . S
C843 C845 1.327 . S
C843 H866 0.950 . S
C844 C843 1.349 . S
C844 C856 1.349 . S
C845 C843 1.327 . S
C845 C861 1.429 . S
C845 H867 0.950 . S
C846 H842 0.949 . S
C846 C854 1.574 . S
C846 C862 1.368 . S
H847 C855 0.950 . S
H848 C853 0.950 . S
H849 C854 0.949 . S
H850 C856 0.950 . S
H851 C857 0.950 . S
H852 C858 0.949 . S
C853 H848 0.950 . S
C853 C855 1.327 . S
C853 C859 1.429 . S
C854 C846 1.574 . S
C854 H849 0.949 . S
C854 C860 1.368 . S
C855 C839 1.349 . S
C855 H847 0.950 . S
C855 C853 1.327 . S
C856 C844 1.349 . S
C856 H850 0.950 . S
C856 C857 1.327 . S
C857 H851 0.950 . S
C857 C856 1.327 . S
C857 C861 1.429 . S
C858 C841 1.574 . S
C858 H852 0.949 . S
C858 C862 1.368 . S
C859 C840 1.429 . S
C859 C853 1.429 . S
C859 C860 1.523 . S
C860 C841 1.368 . S
C860 C854 1.368 . S
C860 C859 1.523 . S
C861 C845 1.429 . S
C861 C857 1.429 . S
C861 C862 1.523 . S
C862 C846 1.368 . S
C862 C858 1.368 . S
C862 C861 1.523 . S
H863 C838 0.950 . S
H864 C840 0.950 . S
H865 C841 0.949 . S
H866 C843 0.950 . S
H867 C845 0.950 . S
C868 C869 1.349 . S
C868 C870 1.327 . S
C868 H893 0.950 . S
C869 C868 1.349 . S
C869 C885 1.349 . S
C870 C868 1.327 . S
C870 C889 1.429 . S
C870 H894 0.950 . S
C871 C888 1.574 . S
C871 C890 1.368 . S
C871 H895 0.949 . S
H872 C876 0.949 . S
C873 C874 1.349 . S
C873 C875 1.327 . S
C873 H896 0.950 . S
C874 C873 1.349 . S
C874 C886 1.349 . S
C875 C873 1.327 . S
C875 C891 1.429 . S
C875 H897 0.950 . S
C876 H872 0.949 . S
C876 C884 1.574 . S
C876 C892 1.368 . S
H877 C885 0.950 . S
H878 C883 0.950 . S
H879 C884 0.949 . S
H880 C886 0.950 . S
H881 C887 0.950 . S
H882 C888 0.949 . S
C883 H878 0.950 . S
C883 C885 1.327 . S
C883 C889 1.429 . S
C884 C876 1.574 . S
C884 H879 0.949 . S
C884 C890 1.368 . S
C885 C869 1.349 . S
C885 H877 0.950 . S
C885 C883 1.327 . S
C886 C874 1.349 . S
C886 H880 0.950 . S
C886 C887 1.327 . S
C887 H881 0.950 . S
C887 C886 1.327 . S
C887 C891 1.429 . S
C888 C871 1.574 . S
C888 H882 0.949 . S
C888 C892 1.368 . S
C889 C870 1.429 . S
C889 C883 1.429 . S
C889 C890 1.523 . S
C890 C871 1.368 . S
C890 C884 1.368 . S
C890 C889 1.523 . S
C891 C875 1.429 . S
C891 C887 1.429 . S
C891 C892 1.523 . S
C892 C876 1.368 . S
C892 C888 1.368 . S
C892 C891 1.523 . S
H893 C868 0.950 . S
H894 C870 0.950 . S
H895 C871 0.949 . S
H896 C873 0.950 . S
H897 C875 0.950 . S
C898 C899 1.349 . S
C898 C900 1.327 . S
C898 H923 0.950 . S
C899 C898 1.349 . S
C899 C915 1.349 . S
C900 C898 1.327 . S
C900 C919 1.429 . S
C900 H924 0.950 1_556 S
C901 C918 1.574 . S
C901 C920 1.368 . S
C901 H925 0.940 1_554 S
H902 C906 0.949 . S
C903 C904 1.349 . S
C903 C905 1.328 1_655 S
C903 H926 0.950 . S
C904 C903 1.349 . S
C904 C916 1.349 . S
C905 C903 1.328 1_455 S
C905 C921 1.430 1_455 S
C905 H927 0.947 . S
C906 H902 0.949 . S
C906 C914 1.574 1_655 S
C906 C922 1.368 1_655 S
H907 C915 0.950 . S
H908 C913 0.950 . S
H909 C914 0.949 . S
H910 C916 0.950 . S
H911 C917 0.950 . S
H912 C918 0.949 . S
C913 H908 0.950 . S
C913 C915 1.327 . S
C913 C919 1.429 . S
C914 C906 1.574 1_455 S
C914 H909 0.949 . S
C914 C920 1.368 . S
C915 C899 1.349 . S
C915 H907 0.950 . S
C915 C913 1.327 . S
C916 C904 1.349 . S
C916 H910 0.950 . S
C916 C917 1.327 . S
C917 H911 0.950 . S
C917 C916 1.327 . S
C917 C921 1.429 . S
C918 C901 1.574 . S
C918 H912 0.949 . S
C918 C922 1.368 . S
C919 C900 1.429 . S
C919 C913 1.429 . S
C919 C920 1.523 1_556 S
C920 C901 1.368 . S
C920 C914 1.368 . S
C920 C919 1.523 1_554 S
C921 C905 1.430 1_655 S
C921 C917 1.429 . S
C921 C922 1.523 1_655 S
C922 C906 1.368 1_455 S
C922 C918 1.368 . S
C922 C921 1.523 1_455 S
H923 C898 0.950 . S
H924 C900 0.950 1_554 S
H925 C901 0.940 1_556 S
H926 C903 0.950 . S
H927 C905 0.947 . S
C928 C929 1.349 . S
C928 C930 1.327 . S
C928 H953 0.950 . S
C929 C928 1.349 . S
C929 C945 1.349 . S
C930 C928 1.327 . S
C930 C949 1.429 1_545 S
C930 H954 0.950 . S
C931 C948 1.574 . S
C931 C950 1.368 . S
C931 H955 0.949 . S
H932 C936 0.949 . S
C933 C934 1.349 . S
C933 C935 1.327 . S
C933 H956 0.950 . S
C934 C933 1.349 . S
C934 C946 1.349 . S
C935 C933 1.327 . S
C935 C951 1.429 . S
C935 H957 0.950 . S
C936 H932 0.949 . S
C936 C944 1.574 . S
C936 C952 1.368 . S
H937 C945 0.950 . S
H938 C943 0.950 . S
H939 C944 0.949 . S
H940 C946 0.950 . S
H941 C947 0.950 . S
H942 C948 0.949 . S
C943 H938 0.950 . S
C943 C945 1.327 1_565 S
C943 C949 1.429 . S
C944 C936 1.574 . S
C944 H939 0.949 . S
C944 C950 1.368 . S
C945 C929 1.349 . S
C945 H937 0.950 . S
C945 C943 1.327 1_545 S
C946 C934 1.349 . S
C946 H940 0.950 . S
C946 C947 1.327 . S
C947 H941 0.950 . S
C947 C946 1.327 . S
C947 C951 1.429 . S
C948 C931 1.574 . S
C948 H942 0.949 . S
C948 C952 1.368 . S
C949 C930 1.429 1_565 S
C949 C943 1.429 . S
C949 C950 1.523 . S
C950 C931 1.368 . S
C950 C944 1.368 . S
C950 C949 1.523 . S
C951 C935 1.429 . S
C951 C947 1.429 . S
C951 C952 1.523 . S
C952 C936 1.368 . S
C952 C948 1.368 . S
C952 C951 1.523 . S
H953 C928 0.950 . S
H954 C930 0.950 . S
H955 C931 0.949 . S
H956 C933 0.950 . S
H957 C935 0.950 . S
C958 C959 1.349 . S
C958 C960 1.327 . S
C958 H983 0.950 . S
C959 C958 1.349 . S
C959 C975 1.349 . S
C960 C958 1.327 . S
C960 C979 1.429 . S
C960 H984 0.950 . S
C961 C978 1.574 . S
C961 C980 1.368 . S
C961 H985 0.949 . S
H962 C966 0.949 . S
C963 C964 1.349 . S
C963 C965 1.327 . S
C963 H986 0.950 . S
C964 C963 1.349 . S
C964 C976 1.349 . S
C965 C963 1.327 . S
C965 C981 1.429 . S
C965 H987 0.950 . S
C966 H962 0.949 . S
C966 C974 1.574 . S
C966 C982 1.368 . S
H967 C975 0.950 . S
H968 C973 0.950 . S
H969 C974 0.949 . S
H970 C976 0.950 . S
H971 C977 0.950 . S
H972 C978 0.949 . S
C973 H968 0.950 . S
C973 C975 1.327 . S
C973 C979 1.429 . S
C974 C966 1.574 . S
C974 H969 0.949 . S
C974 C980 1.368 . S
C975 C959 1.349 . S
C975 H967 0.950 . S
C975 C973 1.327 . S
C976 C964 1.349 . S
C976 H970 0.950 . S
C976 C977 1.327 . S
C977 H971 0.950 . S
C977 C976 1.327 . S
C977 C981 1.429 . S
C978 C961 1.574 . S
C978 H972 0.949 . S
C978 C982 1.368 . S
C979 C960 1.429 . S
C979 C973 1.429 . S
C979 C980 1.523 . S
C980 C961 1.368 . S
C980 C974 1.368 . S
C980 C979 1.523 . S
C981 C965 1.429 . S
C981 C977 1.429 . S
C981 C982 1.523 . S
C982 C966 1.368 . S
C982 C978 1.368 . S
C982 C981 1.523 . S
H983 C958 0.950 . S
H984 C960 0.950 . S
H985 C961 0.949 . S
H986 C963 0.950 . S
H987 C965 0.950 . S
C988 C989 1.349 . S
C988 C990 1.327 . S
C988 H1013 0.950 . S
C989 C988 1.349 . S
C989 C1005 1.349 . S
C990 C988 1.327 . S
C990 C1009 1.429 . S
C990 H1014 0.950 . S
C991 C1008 1.574 . S
C991 C1010 1.368 . S
C991 H1015 0.949 . S
H992 C996 0.949 . S
C993 C994 1.349 . S
C993 C995 1.327 . S
C993 H1016 0.950 . S
C994 C993 1.349 . S
C994 C1006 1.349 . S
C995 C993 1.327 . S
C995 C1011 1.429 1_565 S
C995 H1017 0.950 . S
C996 H992 0.949 . S
C996 C1004 1.574 . S
C996 C1012 1.368 . S
H997 C1005 0.950 . S
H998 C1003 0.950 . S
H999 C1004 0.949 . S
H1000 C1006 0.950 . S
H1001 C1007 0.950 . S
H1002 C1008 0.951 1_565 S
C1003 H998 0.950 . S
C1003 C1005 1.327 . S
C1003 C1009 1.429 . S
C1004 C996 1.574 . S
C1004 H999 0.949 . S
C1004 C1010 1.368 . S
C1005 C989 1.349 . S
C1005 H997 0.950 . S
C1005 C1003 1.327 . S
C1006 C994 1.349 . S
C1006 H1000 0.950 . S
C1006 C1007 1.327 1_565 S
C1007 H1001 0.950 . S
C1007 C1006 1.327 1_545 S
C1007 C1011 1.429 . S
C1008 C991 1.574 . S
C1008 H1002 0.951 1_545 S
C1008 C1012 1.368 . S
C1009 C990 1.429 . S
C1009 C1003 1.429 . S
C1009 C1010 1.523 . S
C1010 C991 1.368 . S
C1010 C1004 1.368 . S
C1010 C1009 1.523 . S
C1011 C995 1.429 1_545 S
C1011 C1007 1.429 . S
C1011 C1012 1.523 . S
C1012 C996 1.368 . S
C1012 C1008 1.368 . S
C1012 C1011 1.523 . S
H1013 C988 0.950 . S
H1014 C990 0.950 . S
H1015 C991 0.949 . S
H1016 C993 0.950 . S
H1017 C995 0.950 . S
C1018 C1019 1.349 . S
C1018 C1020 1.327 . S
C1018 H1043 0.950 . S
C1019 C1018 1.349 . S
C1019 C1035 1.349 . S
C1020 C1018 1.327 . S
C1020 C1039 1.429 . S
C1020 H1044 0.950 . S
C1021 C1038 1.574 . S
C1021 C1040 1.368 . S
C1021 H1045 0.949 . S
H1022 C1026 0.949 1_554 S
C1023 C1024 1.349 . S
C1023 C1025 1.327 . S
C1023 H1046 0.950 . S
C1024 C1023 1.349 . S
C1024 C1036 1.349 . S
C1025 C1023 1.327 . S
C1025 C1041 1.429 . S
C1025 H1047 0.985 . S
C1026 H1022 0.949 1_556 S
C1026 C1034 1.574 . S
C1026 C1042 1.368 . S
H1027 C1035 0.950 . S
H1028 C1033 0.950 . S
H1029 C1034 0.949 . S
H1030 C1036 0.950 . S
H1031 C1037 0.950 . S
H1032 C1038 0.949 . S
C1033 H1028 0.950 . S
C1033 C1035 1.327 . S
C1033 C1039 1.429 . S
C1034 C1026 1.574 . S
C1034 H1029 0.949 . S
C1034 C1040 1.368 . S
C1035 C1019 1.349 . S
C1035 H1027 0.950 . S
C1035 C1033 1.327 . S
C1036 C1024 1.349 . S
C1036 H1030 0.950 . S
C1036 C1037 1.327 . S
C1037 H1031 0.950 . S
C1037 C1036 1.327 . S
C1037 C1041 1.429 . S
C1038 C1021 1.574 . S
C1038 H1032 0.949 . S
C1038 C1042 1.368 . S
C1039 C1020 1.429 . S
C1039 C1033 1.429 . S
C1039 C1040 1.523 . S
C1040 C1021 1.368 . S
C1040 C1034 1.368 . S
C1040 C1039 1.523 . S
C1041 C1025 1.429 . S
C1041 C1037 1.429 . S
C1041 C1042 1.523 1_554 S
C1042 C1026 1.368 . S
C1042 C1038 1.368 . S
C1042 C1041 1.523 1_556 S
H1043 C1018 0.950 . S
H1044 C1020 0.950 . S
H1045 C1021 0.949 . S
H1046 C1023 0.950 . S
H1047 C1025 0.985 . S
C1048 C1049 1.349 . S
C1048 C1050 1.327 . S
C1048 H1073 0.950 . S
C1049 C1048 1.349 . S
C1049 C1065 1.349 . S
C1050 C1048 1.327 . S
C1050 C1069 1.429 . S
C1050 H1074 0.950 . S
C1051 C1068 1.574 . S
C1051 C1070 1.368 . S
C1051 H1075 0.949 . S
H1052 C1056 0.949 . S
C1053 C1054 1.349 . S
C1053 C1055 1.327 . S
C1053 H1076 0.950 . S
C1054 C1053 1.349 . S
C1054 C1066 1.349 . S
C1055 C1053 1.327 . S
C1055 C1071 1.429 . S
C1055 H1077 0.981 . S
C1056 H1052 0.949 . S
C1056 C1064 1.574 1_565 S
C1056 C1072 1.355 1_565 S
H1057 C1065 0.950 . S
H1058 C1063 0.950 . S
H1059 C1064 0.949 . S
H1060 C1066 0.950 . S
H1061 C1067 0.950 . S
H1062 C1068 0.949 . S
C1063 H1058 0.950 . S
C1063 C1065 1.327 . S
C1063 C1069 1.429 . S
C1064 C1056 1.574 1_545 S
C1064 H1059 0.949 . S
C1064 C1070 1.368 . S
C1065 C1049 1.349 . S
C1065 H1057 0.950 . S
C1065 C1063 1.327 . S
C1066 C1054 1.349 . S
C1066 H1060 0.950 . S
C1066 C1067 1.327 . S
C1067 H1061 0.950 . S
C1067 C1066 1.327 . S
C1067 C1071 1.429 . S
C1068 C1051 1.574 . S
C1068 H1062 0.949 . S
C1068 C1072 1.404 . S
C1069 C1050 1.429 . S
C1069 C1063 1.429 . S
C1069 C1070 1.523 . S
C1070 C1051 1.368 . S
C1070 C1064 1.368 . S
C1070 C1069 1.523 . S
C1071 C1055 1.429 . S
C1071 C1067 1.429 . S
C1071 C1072 1.495 1_565 S
C1072 C1056 1.355 1_545 S
C1072 C1068 1.404 . S
C1072 C1071 1.495 1_545 S
H1073 C1048 0.950 . S
H1074 C1050 0.950 . S
H1075 C1051 0.949 . S
H1076 C1053 0.950 . S
H1077 C1055 0.981 . S
C1078 C1079 1.349 . S
C1078 C1080 1.327 . S
C1078 H1103 0.950 . S
C1079 C1078 1.349 . S
C1079 C1095 1.349 . S
C1080 C1078 1.327 . S
C1080 C1099 1.429 . S
C1080 H1104 0.950 . S
C1081 C1098 1.574 . S
C1081 C1100 1.368 . S
C1081 H1105 0.949 . S
H1082 C1086 0.949 . S
C1083 C1084 1.349 . S
C1083 C1085 1.327 . S
C1083 H1106 0.950 . S
C1084 C1083 1.349 . S
C1084 C1096 1.349 . S
C1085 C1083 1.327 . S
C1085 C1101 1.429 . S
C1085 H1107 0.950 . S
C1086 H1082 0.949 . S
C1086 C1094 1.574 . S
C1086 C1102 1.368 . S
H1087 C1095 0.950 . S
H1088 C1093 0.950 . S
H1089 C1094 0.949 . S
H1090 C1096 0.950 . S
H1091 C1097 0.950 . S
H1092 C1098 0.949 . S
C1093 H1088 0.950 . S
C1093 C1095 1.327 . S
C1093 C1099 1.429 . S
C1094 C1086 1.574 . S
C1094 H1089 0.949 . S
C1094 C1100 1.368 . S
C1095 C1079 1.349 . S
C1095 H1087 0.950 . S
C1095 C1093 1.327 . S
C1096 C1084 1.349 . S
C1096 H1090 0.950 . S
C1096 C1097 1.327 . S
C1097 H1091 0.950 . S
C1097 C1096 1.327 . S
C1097 C1101 1.429 . S
C1098 C1081 1.574 . S
C1098 H1092 0.949 . S
C1098 C1102 1.368 . S
C1099 C1080 1.429 . S
C1099 C1093 1.429 . S
C1099 C1100 1.523 . S
C1100 C1081 1.368 . S
C1100 C1094 1.368 . S
C1100 C1099 1.523 . S
C1101 C1085 1.429 . S
C1101 C1097 1.429 . S
C1101 C1102 1.523 . S
C1102 C1086 1.368 . S
C1102 C1098 1.368 . S
C1102 C1101 1.523 . S
H1103 C1078 0.950 . S
H1104 C1080 0.950 . S
H1105 C1081 0.949 . S
H1106 C1083 0.950 . S
H1107 C1085 0.950 . S
C1108 C1109 1.349 . S
C1108 C1110 1.327 . S
C1108 H1133 0.950 . S
C1109 C1108 1.349 . S
C1109 C1125 1.349 . S
C1110 C1108 1.327 . S
C1110 C1129 1.429 . S
C1110 H1134 0.950 . S
C1111 C1128 1.574 1_545 S
C1111 C1130 1.368 . S
C1111 H1135 0.949 . S
H1112 C1116 0.949 . S
C1113 C1114 1.349 . S
C1113 C1115 1.327 . S
C1113 H1136 0.950 . S
C1114 C1113 1.349 . S
C1114 C1126 1.349 . S
C1115 C1113 1.327 . S
C1115 C1131 1.429 . S
C1115 H1137 0.950 . S
C1116 H1112 0.949 . S
C1116 C1124 1.574 . S
C1116 C1132 1.368 . S
H1117 C1125 0.950 . S
H1118 C1123 0.950 . S
H1119 C1124 0.949 . S
H1120 C1126 0.950 . S
H1121 C1127 0.950 . S
H1122 C1128 0.949 . S
C1123 H1118 0.950 . S
C1123 C1125 1.327 . S
C1123 C1129 1.429 . S
C1124 C1116 1.574 . S
C1124 H1119 0.949 . S
C1124 C1130 1.368 1_565 S
C1125 C1109 1.349 . S
C1125 H1117 0.950 . S
C1125 C1123 1.327 . S
C1126 C1114 1.349 . S
C1126 H1120 0.950 . S
C1126 C1127 1.327 . S
C1127 H1121 0.950 . S
C1127 C1126 1.327 . S
C1127 C1131 1.429 . S
C1128 C1111 1.574 1_565 S
C1128 H1122 0.949 . S
C1128 C1132 1.368 . S
C1129 C1110 1.429 . S
C1129 C1123 1.429 . S
C1129 C1130 1.523 . S
C1130 C1111 1.368 . S
C1130 C1124 1.368 1_545 S
C1130 C1129 1.523 . S
C1131 C1115 1.429 . S
C1131 C1127 1.429 . S
C1131 C1132 1.523 . S
C1132 C1116 1.368 . S
C1132 C1128 1.368 . S
C1132 C1131 1.523 . S
H1133 C1108 0.950 . S
H1134 C1110 0.950 . S
H1135 C1111 0.949 . S
H1136 C1113 0.950 . S
H1137 C1115 0.950 . S
C1138 C1139 1.349 . S
C1138 C1140 1.327 . S
C1138 H1163 0.950 . S
C1139 C1138 1.349 . S
C1139 C1155 1.349 . S
C1140 C1138 1.327 . S
C1140 C1159 1.429 . S
C1140 H1164 0.950 . S
C1141 C1158 1.574 1_556 S
C1141 C1160 1.368 . S
C1141 H1165 0.949 . S
H1142 C1146 0.949 . S
C1143 C1144 1.349 . S
C1143 C1145 1.327 . S
C1143 H1166 0.950 . S
C1144 C1143 1.349 . S
C1144 C1156 1.349 . S
C1145 C1143 1.327 . S
C1145 C1161 1.429 . S
C1145 H1167 0.950 . S
C1146 H1142 0.949 . S
C1146 C1154 1.574 . S
C1146 C1162 1.368 . S
H1147 C1155 0.950 . S
H1148 C1153 0.950 . S
H1149 C1154 0.949 . S
H1150 C1156 0.950 . S
H1151 C1157 0.950 . S
H1152 C1158 0.949 . S
C1153 H1148 0.950 . S
C1153 C1155 1.327 . S
C1153 C1159 1.429 . S
C1154 C1146 1.574 . S
C1154 H1149 0.949 . S
C1154 C1160 1.368 1_554 S
C1155 C1139 1.349 . S
C1155 H1147 0.950 . S
C1155 C1153 1.327 . S
C1156 C1144 1.349 . S
C1156 H1150 0.950 . S
C1156 C1157 1.327 . S
C1157 H1151 0.950 . S
C1157 C1156 1.327 . S
C1157 C1161 1.429 . S
C1158 C1141 1.574 1_554 S
C1158 H1152 0.949 . S
C1158 C1162 1.368 . S
C1159 C1140 1.429 . S
C1159 C1153 1.429 . S
C1159 C1160 1.523 . S
C1160 C1141 1.368 . S
C1160 C1154 1.368 1_556 S
C1160 C1159 1.523 . S
C1161 C1145 1.429 . S
C1161 C1157 1.429 . S
C1161 C1162 1.523 . S
C1162 C1146 1.368 . S
C1162 C1158 1.368 . S
C1162 C1161 1.523 . S
H1163 C1138 0.950 . S
H1164 C1140 0.950 . S
H1165 C1141 0.949 . S
H1166 C1143 0.950 . S
H1167 C1145 0.950 . S
C1168 C1169 1.349 . S
C1168 C1170 1.327 . S
C1168 H1193 0.950 . S
C1169 C1168 1.349 . S
C1169 C1185 1.349 . S
C1170 C1168 1.327 . S
C1170 C1189 1.429 . S
C1170 H1194 0.950 . S
C1171 C1188 1.574 . S
C1171 C1190 1.368 . S
C1171 H1195 0.949 . S
H1172 C1176 0.949 . S
C1173 C1174 1.349 1_655 S
C1173 C1175 1.327 . S
C1173 H1196 0.950 . S
C1174 C1173 1.349 1_455 S
C1174 C1186 1.349 . S
C1175 C1173 1.327 . S
C1175 C1191 1.429 . S
C1175 H1197 0.950 . S
C1176 H1172 0.949 . S
C1176 C1184 1.574 . S
C1176 C1192 1.368 . S
H1177 C1185 0.950 . S
H1178 C1183 0.950 . S
H1179 C1184 0.949 . S
H1180 C1186 0.950 . S
H1181 C1187 0.948 1_455 S
H1182 C1188 0.949 . S
C1183 H1178 0.950 . S
C1183 C1185 1.327 . S
C1183 C1189 1.429 . S
C1184 C1176 1.574 . S
C1184 H1179 0.949 . S
C1184 C1190 1.368 . S
C1185 C1169 1.349 . S
C1185 H1177 0.950 . S
C1185 C1183 1.327 . S
C1186 C1174 1.349 . S
C1186 H1180 0.950 . S
C1186 C1187 1.308 1_455 S
C1187 H1181 0.948 1_655 S
C1187 C1186 1.308 1_655 S
C1187 C1191 1.450 . S
C1188 C1171 1.574 . S
C1188 H1182 0.949 . S
C1188 C1192 1.368 . S
C1189 C1170 1.429 . S
C1189 C1183 1.429 . S
C1189 C1190 1.523 . S
C1190 C1171 1.368 . S
C1190 C1184 1.368 . S
C1190 C1189 1.523 . S
C1191 C1175 1.429 . S
C1191 C1187 1.450 . S
C1191 C1192 1.523 . S
C1192 C1176 1.368 . S
C1192 C1188 1.368 . S
C1192 C1191 1.523 . S
H1193 C1168 0.950 . S
H1194 C1170 0.950 . S
H1195 C1171 0.949 . S
H1196 C1173 0.950 . S
H1197 C1175 0.950 . S
C1198 C1199 1.349 . S
C1198 C1200 1.327 . S
C1198 H1223 0.950 . S
C1199 C1198 1.349 . S
C1199 C1215 1.349 . S
C1200 C1198 1.327 . S
C1200 C1219 1.429 . S
C1200 H1224 0.950 . S
C1201 C1218 1.574 . S
C1201 C1220 1.368 . S
C1201 H1225 0.949 . S
H1202 C1206 0.949 . S
C1203 C1204 1.349 . S
C1203 C1205 1.327 . S
C1203 H1226 0.950 . S
C1204 C1203 1.349 . S
C1204 C1216 1.349 . S
C1205 C1203 1.327 . S
C1205 C1221 1.429 . S
C1205 H1227 0.950 . S
C1206 H1202 0.949 . S
C1206 C1214 1.574 . S
C1206 C1222 1.368 . S
H1207 C1215 0.950 . S
H1208 C1213 0.950 . S
H1209 C1214 0.949 . S
H1210 C1216 0.950 . S
H1211 C1217 0.950 . S
H1212 C1218 0.949 . S
C1213 H1208 0.950 . S
C1213 C1215 1.327 . S
C1213 C1219 1.429 . S
C1214 C1206 1.574 . S
C1214 H1209 0.949 . S
C1214 C1220 1.368 . S
C1215 C1199 1.349 . S
C1215 H1207 0.950 . S
C1215 C1213 1.327 . S
C1216 C1204 1.349 . S
C1216 H1210 0.950 . S
C1216 C1217 1.327 . S
C1217 H1211 0.950 . S
C1217 C1216 1.327 . S
C1217 C1221 1.429 . S
C1218 C1201 1.574 . S
C1218 H1212 0.949 . S
C1218 C1222 1.368 . S
C1219 C1200 1.429 . S
C1219 C1213 1.429 . S
C1219 C1220 1.523 . S
C1220 C1201 1.368 . S
C1220 C1214 1.368 . S
C1220 C1219 1.523 . S
C1221 C1205 1.429 . S
C1221 C1217 1.429 . S
C1221 C1222 1.523 . S
C1222 C1206 1.368 . S
C1222 C1218 1.368 . S
C1222 C1221 1.523 . S
H1223 C1198 0.950 . S
H1224 C1200 0.950 . S
H1225 C1201 0.949 . S
H1226 C1203 0.950 . S
H1227 C1205 0.950 . S
C1228 C1229 1.349 . S
C1228 C1230 1.327 . S
C1228 H1253 0.950 . S
C1229 C1228 1.349 . S
C1229 C1245 1.349 . S
C1230 C1228 1.327 . S
C1230 C1249 1.429 . S
C1230 H1254 0.950 . S
C1231 C1248 1.574 1_655 S
C1231 C1250 1.368 . S
C1231 H1255 0.949 . S
H1232 C1236 0.949 . S
C1233 C1234 1.349 . S
C1233 C1235 1.327 . S
C1233 H1256 0.950 . S
C1234 C1233 1.349 . S
C1234 C1246 1.349 . S
C1235 C1233 1.327 . S
C1235 C1251 1.429 . S
C1235 H1257 0.950 . S
C1236 H1232 0.949 . S
C1236 C1244 1.574 . S
C1236 C1252 1.368 . S
H1237 C1245 0.950 . S
H1238 C1243 0.950 . S
H1239 C1244 0.949 . S
H1240 C1246 0.950 . S
H1241 C1247 0.950 . S
H1242 C1248 0.949 . S
C1243 H1238 0.950 . S
C1243 C1245 1.327 . S
C1243 C1249 1.429 . S
C1244 C1236 1.574 . S
C1244 H1239 0.949 . S
C1244 C1250 1.368 1_455 S
C1245 C1229 1.349 . S
C1245 H1237 0.950 . S
C1245 C1243 1.327 . S
C1246 C1234 1.349 . S
C1246 H1240 0.950 . S
C1246 C1247 1.327 . S
C1247 H1241 0.950 . S
C1247 C1246 1.327 . S
C1247 C1251 1.429 . S
C1248 C1231 1.574 1_455 S
C1248 H1242 0.949 . S
C1248 C1252 1.368 . S
C1249 C1230 1.429 . S
C1249 C1243 1.429 . S
C1249 C1250 1.523 . S
C1250 C1231 1.368 . S
C1250 C1244 1.368 1_655 S
C1250 C1249 1.523 . S
C1251 C1235 1.429 . S
C1251 C1247 1.429 . S
C1251 C1252 1.523 . S
C1252 C1236 1.368 . S
C1252 C1248 1.368 . S
C1252 C1251 1.523 . S
H1253 C1228 0.950 . S
H1254 C1230 0.950 . S
H1255 C1231 0.949 . S
H1256 C1233 0.950 . S
H1257 C1235 0.950 . S
C1258 C1259 1.349 . S
C1258 C1260 1.327 . S
C1258 H1283 0.950 . S
C1259 C1258 1.349 . S
C1259 C1275 1.349 . S
C1260 C1258 1.327 . S
C1260 C1279 1.429 . S
C1260 H1284 0.950 . S
C1261 C1278 1.574 . S
C1261 C1280 1.368 . S
C1261 H1285 0.949 . S
H1262 C1266 0.949 . S
C1263 C1264 1.349 . S
C1263 C1265 1.327 . S
C1263 H1286 0.950 . S
C1264 C1263 1.349 . S
C1264 C1276 1.349 . S
C1265 C1263 1.327 . S
C1265 C1281 1.429 . S
C1265 H1287 0.950 . S
C1266 H1262 0.949 . S
C1266 C1274 1.574 . S
C1266 C1282 1.368 . S
H1267 C1275 0.950 1_655 S
H1268 C1273 0.950 . S
H1269 C1274 0.949 . S
H1270 C1276 0.950 . S
H1271 C1277 0.950 . S
H1272 C1278 0.949 . S
C1273 H1268 0.950 . S
C1273 C1275 1.327 . S
C1273 C1279 1.429 . S
C1274 C1266 1.574 . S
C1274 H1269 0.949 . S
C1274 C1280 1.368 . S
C1275 C1259 1.349 . S
C1275 H1267 0.950 1_455 S
C1275 C1273 1.327 . S
C1276 C1264 1.349 . S
C1276 H1270 0.950 . S
C1276 C1277 1.327 . S
C1277 H1271 0.950 . S
C1277 C1276 1.327 . S
C1277 C1281 1.429 . S
C1278 C1261 1.574 . S
C1278 H1272 0.949 . S
C1278 C1282 1.368 . S
C1279 C1260 1.429 . S
C1279 C1273 1.429 . S
C1279 C1280 1.523 . S
C1280 C1261 1.368 . S
C1280 C1274 1.368 . S
C1280 C1279 1.523 . S
C1281 C1265 1.429 . S
C1281 C1277 1.429 . S
C1281 C1282 1.523 . S
C1282 C1266 1.368 . S
C1282 C1278 1.368 . S
C1282 C1281 1.523 . S
H1283 C1258 0.950 . S
H1284 C1260 0.950 . S
H1285 C1261 0.949 . S
H1286 C1263 0.950 . S
H1287 C1265 0.950 . S
C1288 C1289 1.349 . S
C1288 C1290 1.327 . S
C1288 H1313 0.950 . S
C1289 C1288 1.349 . S
C1289 C1305 1.349 . S
C1290 C1288 1.327 . S
C1290 C1309 1.429 . S
C1290 H1314 0.950 . S
C1291 C1308 1.574 . S
C1291 C1310 1.368 . S
C1291 H1315 0.949 . S
H1292 C1296 0.949 . S
C1293 C1294 1.349 . S
C1293 C1295 1.327 . S
C1293 H1316 0.950 . S
C1294 C1293 1.349 . S
C1294 C1306 1.349 . S
C1295 C1293 1.327 . S
C1295 C1311 1.429 . S
C1295 H1317 0.950 . S
C1296 H1292 0.949 . S
C1296 C1304 1.574 . S
C1296 C1312 1.368 . S
H1297 C1305 0.950 . S
H1298 C1303 0.950 . S
H1299 C1304 0.949 . S
H1300 C1306 0.950 . S
H1301 C1307 0.950 . S
H1302 C1308 0.949 . S
C1303 H1298 0.950 . S
C1303 C1305 1.327 . S
C1303 C1309 1.429 . S
C1304 C1296 1.574 . S
C1304 H1299 0.949 . S
C1304 C1310 1.368 . S
C1305 C1289 1.349 . S
C1305 H1297 0.950 . S
C1305 C1303 1.327 . S
C1306 C1294 1.349 . S
C1306 H1300 0.950 . S
C1306 C1307 1.327 . S
C1307 H1301 0.950 . S
C1307 C1306 1.327 . S
C1307 C1311 1.429 . S
C1308 C1291 1.574 . S
C1308 H1302 0.949 . S
C1308 C1312 1.368 . S
C1309 C1290 1.429 . S
C1309 C1303 1.429 . S
C1309 C1310 1.523 . S
C1310 C1291 1.368 . S
C1310 C1304 1.368 . S
C1310 C1309 1.523 . S
C1311 C1295 1.429 . S
C1311 C1307 1.429 . S
C1311 C1312 1.523 . S
C1312 C1296 1.368 . S
C1312 C1308 1.368 . S
C1312 C1311 1.523 . S
H1313 C1288 0.950 . S
H1314 C1290 0.950 . S
H1315 C1291 0.949 . S
H1316 C1293 0.950 . S
H1317 C1295 0.950 . S
C1318 C1319 1.349 . S
C1318 C1320 1.327 . S
C1318 H1343 0.950 . S
C1319 C1318 1.349 . S
C1319 C1335 1.349 . S
C1320 C1318 1.327 . S
C1320 C1339 1.429 . S
C1320 H1344 0.950 . S
C1321 C1338 1.574 . S
C1321 C1340 1.368 . S
C1321 H1345 0.949 . S
H1322 C1326 0.949 . S
C1323 C1324 1.349 . S
C1323 C1325 1.327 . S
C1323 H1346 0.950 . S
C1324 C1323 1.349 . S
C1324 C1336 1.349 . S
C1325 C1323 1.327 . S
C1325 C1341 1.429 . S
C1325 H1347 0.950 . S
C1326 H1322 0.949 . S
C1326 C1334 1.574 . S
C1326 C1342 1.368 . S
H1327 C1335 0.950 . S
H1328 C1333 0.950 . S
H1329 C1334 0.949 . S
H1330 C1336 0.950 . S
H1331 C1337 0.950 1_655 S
H1332 C1338 0.953 . S
C1333 H1328 0.950 . S
C1333 C1335 1.327 . S
C1333 C1339 1.429 . S
C1334 C1326 1.574 . S
C1334 H1329 0.949 . S
C1334 C1340 1.368 . S
C1335 C1319 1.349 . S
C1335 H1327 0.950 . S
C1335 C1333 1.327 . S
C1336 C1324 1.349 . S
C1336 H1330 0.950 . S
C1336 C1337 1.327 . S
C1337 H1331 0.950 1_455 S
C1337 C1336 1.327 . S
C1337 C1341 1.429 . S
C1338 C1321 1.574 . S
C1338 H1332 0.953 . S
C1338 C1342 1.368 . S
C1339 C1320 1.429 . S
C1339 C1333 1.429 . S
C1339 C1340 1.523 . S
C1340 C1321 1.368 . S
C1340 C1334 1.368 . S
C1340 C1339 1.523 . S
C1341 C1325 1.429 . S
C1341 C1337 1.429 . S
C1341 C1342 1.523 1_455 S
C1342 C1326 1.368 . S
C1342 C1338 1.368 . S
C1342 C1341 1.523 1_655 S
H1343 C1318 0.950 . S
H1344 C1320 0.950 . S
H1345 C1321 0.949 . S
H1346 C1323 0.950 . S
H1347 C1325 0.950 . S
C1348 C1349 1.349 . S
C1348 C1350 1.327 . S
C1348 H1373 0.950 . S
C1349 C1348 1.349 . S
C1349 C1365 1.349 . S
C1350 C1348 1.327 . S
C1350 C1369 1.429 . S
C1350 H1374 0.950 . S
C1351 C1368 1.574 . S
C1351 C1370 1.368 . S
C1351 H1375 0.949 . S
H1352 C1356 0.949 . S
C1353 C1354 1.349 . S
C1353 C1355 1.327 . S
C1353 H1376 0.950 . S
C1354 C1353 1.349 . S
C1354 C1366 1.349 . S
C1355 C1353 1.327 . S
C1355 C1371 1.429 . S
C1355 H1377 0.950 . S
C1356 H1352 0.949 . S
C1356 C1364 1.574 . S
C1356 C1372 1.368 . S
H1357 C1365 0.950 . S
H1358 C1363 0.950 . S
H1359 C1364 0.949 . S
H1360 C1366 0.950 . S
H1361 C1367 0.950 . S
H1362 C1368 0.949 . S
C1363 H1358 0.950 . S
C1363 C1365 1.327 . S
C1363 C1369 1.429 . S
C1364 C1356 1.574 . S
C1364 H1359 0.949 . S
C1364 C1370 1.368 . S
C1365 C1349 1.349 . S
C1365 H1357 0.950 . S
C1365 C1363 1.327 . S
C1366 C1354 1.349 . S
C1366 H1360 0.950 . S
C1366 C1367 1.327 . S
C1367 H1361 0.950 . S
C1367 C1366 1.327 . S
C1367 C1371 1.429 . S
C1368 C1351 1.574 . S
C1368 H1362 0.949 . S
C1368 C1372 1.368 . S
C1369 C1350 1.429 . S
C1369 C1363 1.429 . S
C1369 C1370 1.523 . S
C1370 C1351 1.368 . S
C1370 C1364 1.368 . S
C1370 C1369 1.523 . S
C1371 C1355 1.429 . S
C1371 C1367 1.429 . S
C1371 C1372 1.523 . S
C1372 C1356 1.368 . S
C1372 C1368 1.368 . S
C1372 C1371 1.523 . S
H1373 C1348 0.950 . S
H1374 C1350 0.950 . S
H1375 C1351 0.949 . S
H1376 C1353 0.950 . S
H1377 C1355 0.950 . S
C1378 C1379 1.349 . S
C1378 C1380 1.327 . S
C1378 H1403 0.950 . S
C1379 C1378 1.349 . S
C1379 C1395 1.349 . S
C1380 C1378 1.327 . S
C1380 C1399 1.429 . S
C1380 H1404 0.950 . S
C1381 C1398 1.574 1_545 S
C1381 C1400 1.368 . S
C1381 H1405 0.949 . S
H1382 C1386 0.949 . S
C1383 C1384 1.349 . S
C1383 C1385 1.327 . S
C1383 H1406 0.950 . S
C1384 C1383 1.349 . S
C1384 C1396 1.349 . S
C1385 C1383 1.327 . S
C1385 C1401 1.429 . S
C1385 H1407 0.950 . S
C1386 H1382 0.949 . S
C1386 C1394 1.574 . S
C1386 C1402 1.368 1_545 S
H1387 C1395 0.950 . S
H1388 C1393 0.950 . S
H1389 C1394 0.949 . S
H1390 C1396 0.950 . S
H1391 C1397 0.950 . S
H1392 C1398 0.949 . S
C1393 H1388 0.950 . S
C1393 C1395 1.327 . S
C1393 C1399 1.429 . S
C1394 C1386 1.574 . S
C1394 H1389 0.949 . S
C1394 C1400 1.368 . S
C1395 C1379 1.349 . S
C1395 H1387 0.950 . S
C1395 C1393 1.327 . S
C1396 C1384 1.349 . S
C1396 H1390 0.950 . S
C1396 C1397 1.327 . S
C1397 H1391 0.950 . S
C1397 C1396 1.327 . S
C1397 C1401 1.429 . S
C1398 C1381 1.574 1_565 S
C1398 H1392 0.949 . S
C1398 C1402 1.368 . S
C1399 C1380 1.429 . S
C1399 C1393 1.429 . S
C1399 C1400 1.523 . S
C1400 C1381 1.368 . S
C1400 C1394 1.368 . S
C1400 C1399 1.523 . S
C1401 C1385 1.429 . S
C1401 C1397 1.429 . S
C1401 C1402 1.523 . S
C1402 C1386 1.368 1_565 S
C1402 C1398 1.368 . S
C1402 C1401 1.523 . S
H1403 C1378 0.950 . S
H1404 C1380 0.950 . S
H1405 C1381 0.949 . S
H1406 C1383 0.950 . S
H1407 C1385 0.950 . S
C1408 C1409 1.349 . S
C1408 C1410 1.327 . S
C1408 H1433 0.950 . S
C1409 C1408 1.349 . S
C1409 C1425 1.349 . S
C1410 C1408 1.327 . S
C1410 C1429 1.429 . S
C1410 H1434 0.950 . S
C1411 C1428 1.574 . S
C1411 C1430 1.368 . S
C1411 H1435 0.949 . S
H1412 C1416 0.949 . S
C1413 C1414 1.349 . S
C1413 C1415 1.327 . S
C1413 H1436 0.950 . S
C1414 C1413 1.349 . S
C1414 C1426 1.349 . S
C1415 C1413 1.327 . S
C1415 C1431 1.429 . S
C1415 H1437 0.950 . S
C1416 H1412 0.949 . S
C1416 C1424 1.574 . S
C1416 C1432 1.368 . S
H1417 C1425 0.950 . S
H1418 C1423 0.950 . S
H1419 C1424 0.949 . S
H1420 C1426 0.950 . S
H1421 C1427 0.950 . S
H1422 C1428 0.949 . S
C1423 H1418 0.950 . S
C1423 C1425 1.327 . S
C1423 C1429 1.429 . S
C1424 C1416 1.574 . S
C1424 H1419 0.949 . S
C1424 C1430 1.368 . S
C1425 C1409 1.349 . S
C1425 H1417 0.950 . S
C1425 C1423 1.327 . S
C1426 C1414 1.349 . S
C1426 H1420 0.950 . S
C1426 C1427 1.327 . S
C1427 H1421 0.950 . S
C1427 C1426 1.327 . S
C1427 C1431 1.429 . S
C1428 C1411 1.574 . S
C1428 H1422 0.949 . S
C1428 C1432 1.368 . S
C1429 C1410 1.429 . S
C1429 C1423 1.429 . S
C1429 C1430 1.523 . S
C1430 C1411 1.368 . S
C1430 C1424 1.368 . S
C1430 C1429 1.523 . S
C1431 C1415 1.429 . S
C1431 C1427 1.429 . S
C1431 C1432 1.523 . S
C1432 C1416 1.368 . S
C1432 C1428 1.368 . S
C1432 C1431 1.523 . S
H1433 C1408 0.950 . S
H1434 C1410 0.950 . S
H1435 C1411 0.949 . S
H1436 C1413 0.950 . S
H1437 C1415 0.950 . S
C1438 C1439 1.349 . S
C1438 C1440 1.327 . S
C1438 H1463 0.950 . S
C1439 C1438 1.349 . S
C1439 C1455 1.349 . S
C1440 C1438 1.327 . S
C1440 C1459 1.429 . S
C1440 H1464 0.950 . S
C1441 C1458 1.542 1_565 S
C1441 C1460 1.368 . S
C1441 H1465 0.949 . S
H1442 C1446 0.949 . S
C1443 C1444 1.349 . S
C1443 C1445 1.327 . S
C1443 H1466 0.950 . S
C1444 C1443 1.349 . S
C1444 C1456 1.349 . S
C1445 C1443 1.327 . S
C1445 C1461 1.429 . S
C1445 H1467 0.950 . S
C1446 H1442 0.949 . S
C1446 C1454 1.574 . S
C1446 C1462 1.368 1_565 S
H1447 C1455 0.950 . S
H1448 C1453 0.950 . S
H1449 C1454 0.949 . S
H1450 C1456 0.950 . S
H1451 C1457 0.950 . S
H1452 C1458 0.973 . S
C1453 H1448 0.950 . S
C1453 C1455 1.327 . S
C1453 C1459 1.429 . S
C1454 C1446 1.574 . S
C1454 H1449 0.949 . S
C1454 C1460 1.368 . S
C1455 C1439 1.349 . S
C1455 H1447 0.950 . S
C1455 C1453 1.327 . S
C1456 C1444 1.349 . S
C1456 H1450 0.950 . S
C1456 C1457 1.327 . S
C1457 H1451 0.950 . S
C1457 C1456 1.327 . S
C1457 C1461 1.429 . S
C1458 C1441 1.542 1_545 S
C1458 H1452 0.973 . S
C1458 C1462 1.375 . S
C1459 C1440 1.429 . S
C1459 C1453 1.429 . S
C1459 C1460 1.523 . S
C1460 C1441 1.368 . S
C1460 C1454 1.368 . S
C1460 C1459 1.523 . S
C1461 C1445 1.429 . S
C1461 C1457 1.429 . S
C1461 C1462 1.523 . S
C1462 C1446 1.368 1_545 S
C1462 C1458 1.375 . S
C1462 C1461 1.523 . S
H1463 C1438 0.950 . S
H1464 C1440 0.950 . S
H1465 C1441 0.949 . S
H1466 C1443 0.950 . S
H1467 C1445 0.950 . S
C1468 C1469 1.349 . S
C1468 C1470 1.327 . S
C1468 H1493 0.950 . S
C1469 C1468 1.349 . S
C1469 C1485 1.349 . S
C1470 C1468 1.327 . S
C1470 C1489 1.429 1_556 S
C1470 H1494 0.950 1_556 S
C1471 C1488 1.574 . S
C1471 C1490 1.368 . S
C1471 H1495 0.949 . S
H1472 C1476 0.949 . S
C1473 C1474 1.349 . S
C1473 C1475 1.327 . S
C1473 H1496 0.950 . S
C1474 C1473 1.349 . S
C1474 C1486 1.349 . S
C1475 C1473 1.327 . S
C1475 C1491 1.429 . S
C1475 H1497 0.950 . S
C1476 H1472 0.949 . S
C1476 C1484 1.574 . S
C1476 C1492 1.368 . S
H1477 C1485 0.950 . S
H1478 C1483 0.950 . S
H1479 C1484 0.949 . S
H1480 C1486 0.950 . S
H1481 C1487 0.950 . S
H1482 C1488 0.949 . S
C1483 H1478 0.950 . S
C1483 C1485 1.327 . S
C1483 C1489 1.431 1_556 S
C1484 C1476 1.574 . S
C1484 H1479 0.949 . S
C1484 C1490 1.368 . S
C1485 C1469 1.349 . S
C1485 H1477 0.950 . S
C1485 C1483 1.327 . S
C1486 C1474 1.349 . S
C1486 H1480 0.950 . S
C1486 C1487 1.327 . S
C1487 H1481 0.950 . S
C1487 C1486 1.327 . S
C1487 C1491 1.429 . S
C1488 C1471 1.574 . S
C1488 H1482 0.949 . S
C1488 C1492 1.368 . S
C1489 C1470 1.429 1_554 S
C1489 C1483 1.431 1_554 S
C1489 C1490 1.520 . S
C1490 C1471 1.368 . S
C1490 C1484 1.368 . S
C1490 C1489 1.520 . S
C1491 C1475 1.429 . S
C1491 C1487 1.429 . S
C1491 C1492 1.523 . S
C1492 C1476 1.368 . S
C1492 C1488 1.368 . S
C1492 C1491 1.523 . S
H1493 C1468 0.950 . S
H1494 C1470 0.950 1_554 S
H1495 C1471 0.949 . S
H1496 C1473 0.950 . S
H1497 C1475 0.950 . S
C1498 C1499 1.349 . S
C1498 C1500 1.327 . S
C1498 H1523 0.950 . S
C1499 C1498 1.349 . S
C1499 C1515 1.349 . S
C1500 C1498 1.327 . S
C1500 C1519 1.437 . S
C1500 H1524 0.950 . S
C1501 C1518 1.574 . S
C1501 C1520 1.368 . S
C1501 H1525 0.949 . S
H1502 C1506 0.949 . S
C1503 C1504 1.349 . S
C1503 C1505 1.327 . S
C1503 H1526 0.950 . S
C1504 C1503 1.349 . S
C1504 C1516 1.349 . S
C1505 C1503 1.327 . S
C1505 C1521 1.429 . S
C1505 H1527 0.950 . S
C1506 H1502 0.949 . S
C1506 C1514 1.574 . S
C1506 C1522 1.368 . S
H1507 C1515 0.950 . S
H1508 C1513 0.950 . S
H1509 C1514 0.949 1_545 S
H1510 C1516 0.950 . S
H1511 C1517 0.950 . S
H1512 C1518 0.949 . S
C1513 H1508 0.950 . S
C1513 C1515 1.327 1_565 S
C1513 C1519 1.427 1_565 S
C1514 C1506 1.574 . S
C1514 H1509 0.949 1_565 S
C1514 C1520 1.368 . S
C1515 C1499 1.349 . S
C1515 H1507 0.950 . S
C1515 C1513 1.327 1_545 S
C1516 C1504 1.349 . S
C1516 H1510 0.950 . S
C1516 C1517 1.327 . S
C1517 H1511 0.950 . S
C1517 C1516 1.327 . S
C1517 C1521 1.429 . S
C1518 C1501 1.574 . S
C1518 H1512 0.949 . S
C1518 C1522 1.368 . S
C1519 C1500 1.437 . S
C1519 C1513 1.427 1_545 S
C1519 C1520 1.517 1_545 S
C1520 C1501 1.368 . S
C1520 C1514 1.368 . S
C1520 C1519 1.517 1_565 S
C1521 C1505 1.429 . S
C1521 C1517 1.429 . S
C1521 C1522 1.523 . S
C1522 C1506 1.368 . S
C1522 C1518 1.368 . S
C1522 C1521 1.523 . S
H1523 C1498 0.950 . S
H1524 C1500 0.950 . S
H1525 C1501 0.949 . S
H1526 C1503 0.950 . S
H1527 C1505 0.950 . S
C1528 C1529 1.349 . S
C1528 C1530 1.327 . S
C1528 H1553 0.950 . S
C1529 C1528 1.349 . S
C1529 C1545 1.349 . S
C1530 C1528 1.327 . S
C1530 C1549 1.429 . S
C1530 H1554 0.950 . S
C1531 C1548 1.574 . S
C1531 C1550 1.368 . S
C1531 H1555 0.949 . S
H1532 C1536 0.949 . S
C1533 C1534 1.349 . S
C1533 C1535 1.327 . S
C1533 H1556 0.950 . S
C1534 C1533 1.349 . S
C1534 C1546 1.349 . S
C1535 C1533 1.327 . S
C1535 C1551 1.429 . S
C1535 H1557 0.950 . S
C1536 H1532 0.949 . S
C1536 C1544 1.574 . S
C1536 C1552 1.368 . S
H1537 C1545 0.950 . S
H1538 C1543 0.950 . S
H1539 C1544 0.949 . S
H1540 C1546 0.950 . S
H1541 C1547 0.950 . S
H1542 C1548 0.949 . S
C1543 H1538 0.950 . S
C1543 C1545 1.327 . S
C1543 C1549 1.429 . S
C1544 C1536 1.574 . S
C1544 H1539 0.949 . S
C1544 C1550 1.368 . S
C1545 C1529 1.349 . S
C1545 H1537 0.950 . S
C1545 C1543 1.327 . S
C1546 C1534 1.349 . S
C1546 H1540 0.950 . S
C1546 C1547 1.327 . S
C1547 H1541 0.950 . S
C1547 C1546 1.327 . S
C1547 C1551 1.429 . S
C1548 C1531 1.574 . S
C1548 H1542 0.949 . S
C1548 C1552 1.368 . S
C1549 C1530 1.429 . S
C1549 C1543 1.429 . S
C1549 C1550 1.523 . S
C1550 C1531 1.368 . S
C1550 C1544 1.368 . S
C1550 C1549 1.523 . S
C1551 C1535 1.429 . S
C1551 C1547 1.429 . S
C1551 C1552 1.523 . S
C1552 C1536 1.368 . S
C1552 C1548 1.368 . S
C1552 C1551 1.523 . S
H1553 C1528 0.950 . S
H1554 C1530 0.950 . S
H1555 C1531 0.949 . S
H1556 C1533 0.950 . S
H1557 C1535 0.950 . S
C1558 C1559 1.349 . S
C1558 C1560 1.327 . S
C1558 H1583 0.950 . S
C1559 C1558 1.349 . S
C1559 C1575 1.349 . S
C1560 C1558 1.327 . S
C1560 C1579 1.429 . S
C1560 H1584 0.950 1_565 S
C1561 C1578 1.574 . S
C1561 C1580 1.368 . S
C1561 H1585 0.949 1_545 S
H1562 C1566 0.949 . S
C1563 C1564 1.349 . S
C1563 C1565 1.327 . S
C1563 H1586 0.950 . S
C1564 C1563 1.349 . S
C1564 C1576 1.349 . S
C1565 C1563 1.327 . S
C1565 C1581 1.429 . S
C1565 H1587 0.950 . S
C1566 H1562 0.949 . S
C1566 C1574 1.574 . S
C1566 C1582 1.368 . S
H1567 C1575 0.950 . S
H1568 C1573 0.950 . S
H1569 C1574 0.949 . S
H1570 C1576 0.950 . S
H1571 C1577 0.950 . S
H1572 C1578 0.949 . S
C1573 H1568 0.950 . S
C1573 C1575 1.327 . S
C1573 C1579 1.429 . S
C1574 C1566 1.574 . S
C1574 H1569 0.949 . S
C1574 C1580 1.368 . S
C1575 C1559 1.349 . S
C1575 H1567 0.950 . S
C1575 C1573 1.327 . S
C1576 C1564 1.349 . S
C1576 H1570 0.950 . S
C1576 C1577 1.327 . S
C1577 H1571 0.950 . S
C1577 C1576 1.327 . S
C1577 C1581 1.429 . S
C1578 C1561 1.574 . S
C1578 H1572 0.949 . S
C1578 C1582 1.368 . S
C1579 C1560 1.429 . S
C1579 C1573 1.429 . S
C1579 C1580 1.523 1_565 S
C1580 C1561 1.368 . S
C1580 C1574 1.368 . S
C1580 C1579 1.523 1_545 S
C1581 C1565 1.429 . S
C1581 C1577 1.429 . S
C1581 C1582 1.523 . S
C1582 C1566 1.368 . S
C1582 C1578 1.368 . S
C1582 C1581 1.523 . S
H1583 C1558 0.950 . S
H1584 C1560 0.950 1_545 S
H1585 C1561 0.949 1_565 S
H1586 C1563 0.950 . S
H1587 C1565 0.950 . S
C1588 C1589 1.349 . S
C1588 C1590 1.327 . S
C1588 H1613 0.950 . S
C1589 C1588 1.349 . S
C1589 C1605 1.349 . S
C1590 C1588 1.327 . S
C1590 C1609 1.429 . S
C1590 H1614 0.950 . S
C1591 C1608 1.574 . S
C1591 C1610 1.368 1_556 S
C1591 H1615 0.949 . S
H1592 C1596 0.949 . S
C1593 C1594 1.349 . S
C1593 C1595 1.327 . S
C1593 H1616 0.950 . S
C1594 C1593 1.349 . S
C1594 C1606 1.349 . S
C1595 C1593 1.327 . S
C1595 C1611 1.429 . S
C1595 H1617 0.950 . S
C1596 H1592 0.949 . S
C1596 C1604 1.574 1_556 S
C1596 C1612 1.368 . S
H1597 C1605 0.950 . S
H1598 C1603 0.950 . S
H1599 C1604 0.949 . S
H1600 C1606 0.950 . S
H1601 C1607 0.950 . S
H1602 C1608 0.949 . S
C1603 H1598 0.950 . S
C1603 C1605 1.327 . S
C1603 C1609 1.429 . S
C1604 C1596 1.574 1_554 S
C1604 H1599 0.949 . S
C1604 C1610 1.368 . S
C1605 C1589 1.349 . S
C1605 H1597 0.950 . S
C1605 C1603 1.327 . S
C1606 C1594 1.349 . S
C1606 H1600 0.950 . S
C1606 C1607 1.327 . S
C1607 H1601 0.950 . S
C1607 C1606 1.327 . S
C1607 C1611 1.429 . S
C1608 C1591 1.574 . S
C1608 H1602 0.949 . S
C1608 C1612 1.368 . S
C1609 C1590 1.429 . S
C1609 C1603 1.429 . S
C1609 C1610 1.523 . S
C1610 C1591 1.368 1_554 S
C1610 C1604 1.368 . S
C1610 C1609 1.523 . S
C1611 C1595 1.429 . S
C1611 C1607 1.429 . S
C1611 C1612 1.523 . S
C1612 C1596 1.368 . S
C1612 C1608 1.368 . S
C1612 C1611 1.523 . S
H1613 C1588 0.950 . S
H1614 C1590 0.950 . S
H1615 C1591 0.949 . S
H1616 C1593 0.950 . S
H1617 C1595 0.950 . S
C1618 C1619 1.349 . S
C1618 C1620 1.327 . S
C1618 H1643 0.950 . S
C1619 C1618 1.349 . S
C1619 C1635 1.349 . S
C1620 C1618 1.327 . S
C1620 C1639 1.429 1_655 S
C1620 H1644 0.950 . S
C1621 C1638 1.574 . S
C1621 C1640 1.368 . S
C1621 H1645 0.949 . S
H1622 C1626 0.949 . S
C1623 C1624 1.349 . S
C1623 C1625 1.327 . S
C1623 H1646 0.950 . S
C1624 C1623 1.349 . S
C1624 C1636 1.349 . S
C1625 C1623 1.327 . S
C1625 C1641 1.429 . S
C1625 H1647 0.950 . S
C1626 H1622 0.949 . S
C1626 C1634 1.574 . S
C1626 C1642 1.368 . S
H1627 C1635 0.950 . S
H1628 C1633 0.975 . S
H1629 C1634 0.949 . S
H1630 C1636 0.950 . S
H1631 C1637 0.950 . S
H1632 C1638 0.949 . S
C1633 H1628 0.975 . S
C1633 C1635 1.296 1_455 S
C1633 C1639 1.436 . S
C1634 C1626 1.574 . S
C1634 H1629 0.949 . S
C1634 C1640 1.368 . S
C1635 C1619 1.349 . S
C1635 H1627 0.950 . S
C1635 C1633 1.296 1_655 S
C1636 C1624 1.349 . S
C1636 H1630 0.950 . S
C1636 C1637 1.327 . S
C1637 H1631 0.950 . S
C1637 C1636 1.327 . S
C1637 C1641 1.429 . S
C1638 C1621 1.574 . S
C1638 H1632 0.949 . S
C1638 C1642 1.368 . S
C1639 C1620 1.429 1_455 S
C1639 C1633 1.436 . S
C1639 C1640 1.523 . S
C1640 C1621 1.368 . S
C1640 C1634 1.368 . S
C1640 C1639 1.523 . S
C1641 C1625 1.429 . S
C1641 C1637 1.429 . S
C1641 C1642 1.523 . S
C1642 C1626 1.368 . S
C1642 C1638 1.368 . S
C1642 C1641 1.523 . S
H1643 C1618 0.950 . S
H1644 C1620 0.950 . S
H1645 C1621 0.949 . S
H1646 C1623 0.950 . S
H1647 C1625 0.950 . S
C1648 C1649 1.349 . S
C1648 C1650 1.327 . S
C1648 H1673 0.950 . S
C1649 C1648 1.349 . S
C1649 C1665 1.349 . S
C1650 C1648 1.327 . S
C1650 C1669 1.429 . S
C1650 H1674 0.950 . S
C1651 C1668 1.574 . S
C1651 C1670 1.368 . S
C1651 H1675 0.949 . S
H1652 C1656 0.949 . S
C1653 C1654 1.349 . S
C1653 C1655 1.327 . S
C1653 H1676 0.950 . S
C1654 C1653 1.349 . S
C1654 C1666 1.349 . S
C1655 C1653 1.327 . S
C1655 C1671 1.429 . S
C1655 H1677 0.950 . S
C1656 H1652 0.949 . S
C1656 C1664 1.574 . S
C1656 C1672 1.368 . S
H1657 C1665 0.950 . S
H1658 C1663 0.950 . S
H1659 C1664 0.949 . S
H1660 C1666 0.950 . S
H1661 C1667 0.950 . S
H1662 C1668 0.949 . S
C1663 H1658 0.950 . S
C1663 C1665 1.327 . S
C1663 C1669 1.429 . S
C1664 C1656 1.574 . S
C1664 H1659 0.949 . S
C1664 C1670 1.368 . S
C1665 C1649 1.349 . S
C1665 H1657 0.950 . S
C1665 C1663 1.327 . S
C1666 C1654 1.349 . S
C1666 H1660 0.950 . S
C1666 C1667 1.327 . S
C1667 H1661 0.950 . S
C1667 C1666 1.327 . S
C1667 C1671 1.429 . S
C1668 C1651 1.574 . S
C1668 H1662 0.949 . S
C1668 C1672 1.368 . S
C1669 C1650 1.429 . S
C1669 C1663 1.429 . S
C1669 C1670 1.523 . S
C1670 C1651 1.368 . S
C1670 C1664 1.368 . S
C1670 C1669 1.523 . S
C1671 C1655 1.429 . S
C1671 C1667 1.429 . S
C1671 C1672 1.523 . S
C1672 C1656 1.368 . S
C1672 C1668 1.368 . S
C1672 C1671 1.523 . S
H1673 C1648 0.950 . S
H1674 C1650 0.950 . S
H1675 C1651 0.949 . S
H1676 C1653 0.950 . S
H1677 C1655 0.950 . S
C1678 C1679 1.349 . S
C1678 C1680 1.327 . S
C1678 H1703 0.950 . S
C1679 C1678 1.349 . S
C1679 C1695 1.349 . S
C1680 C1678 1.327 . S
C1680 C1699 1.429 . S
C1680 H1704 0.950 1_455 S
C1681 C1698 1.574 . S
C1681 C1700 1.368 . S
C1681 H1705 0.949 1_655 S
H1682 C1686 0.949 . S
C1683 C1684 1.349 . S
C1683 C1685 1.327 . S
C1683 H1706 0.950 . S
C1684 C1683 1.349 . S
C1684 C1696 1.349 . S
C1685 C1683 1.327 . S
C1685 C1701 1.429 . S
C1685 H1707 0.950 . S
C1686 H1682 0.949 . S
C1686 C1694 1.574 . S
C1686 C1702 1.368 . S
H1687 C1695 0.950 . S
H1688 C1693 0.950 . S
H1689 C1694 0.949 . S
H1690 C1696 0.950 . S
H1691 C1697 0.950 . S
H1692 C1698 0.949 . S
C1693 H1688 0.950 . S
C1693 C1695 1.327 . S
C1693 C1699 1.429 . S
C1694 C1686 1.574 . S
C1694 H1689 0.949 . S
C1694 C1700 1.368 . S
C1695 C1679 1.349 . S
C1695 H1687 0.950 . S
C1695 C1693 1.327 . S
C1696 C1684 1.349 . S
C1696 H1690 0.950 . S
C1696 C1697 1.327 . S
C1697 H1691 0.950 . S
C1697 C1696 1.327 . S
C1697 C1701 1.429 . S
C1698 C1681 1.574 . S
C1698 H1692 0.949 . S
C1698 C1702 1.368 . S
C1699 C1680 1.429 . S
C1699 C1693 1.429 . S
C1699 C1700 1.523 1_455 S
C1700 C1681 1.368 . S
C1700 C1694 1.368 . S
C1700 C1699 1.523 1_655 S
C1701 C1685 1.429 . S
C1701 C1697 1.429 . S
C1701 C1702 1.523 . S
C1702 C1686 1.368 . S
C1702 C1698 1.368 . S
C1702 C1701 1.523 . S
H1703 C1678 0.950 . S
H1704 C1680 0.950 1_655 S
H1705 C1681 0.949 1_455 S
H1706 C1683 0.950 . S
H1707 C1685 0.950 . S
C1708 C1709 1.349 . S
C1708 C1710 1.327 1_455 S
C1708 H1733 0.950 . S
C1709 C1708 1.349 . S
C1709 C1725 1.349 . S
C1710 C1708 1.327 1_655 S
C1710 C1729 1.429 . S
C1710 H1734 0.950 . S
C1711 C1728 1.574 . S
C1711 C1730 1.368 . S
C1711 H1735 0.949 . S
H1712 C1716 0.949 . S
C1713 C1714 1.349 . S
C1713 C1715 1.327 . S
C1713 H1736 0.950 . S
C1714 C1713 1.349 . S
C1714 C1726 1.349 . S
C1715 C1713 1.327 . S
C1715 C1731 1.429 . S
C1715 H1737 0.950 . S
C1716 H1712 0.949 . S
C1716 C1724 1.574 . S
C1716 C1732 1.368 . S
H1717 C1725 0.950 . S
H1718 C1723 0.950 . S
H1719 C1724 0.949 . S
H1720 C1726 0.950 . S
H1721 C1727 0.950 . S
H1722 C1728 0.949 . S
C1723 H1718 0.950 . S
C1723 C1725 1.327 . S
C1723 C1729 1.429 1_455 S
C1724 C1716 1.574 . S
C1724 H1719 0.949 . S
C1724 C1730 1.368 . S
C1725 C1709 1.349 . S
C1725 H1717 0.950 . S
C1725 C1723 1.327 . S
C1726 C1714 1.349 . S
C1726 H1720 0.950 . S
C1726 C1727 1.327 . S
C1727 H1721 0.950 . S
C1727 C1726 1.327 . S
C1727 C1731 1.429 . S
C1728 C1711 1.574 . S
C1728 H1722 0.949 . S
C1728 C1732 1.368 . S
C1729 C1710 1.429 . S
C1729 C1723 1.429 1_655 S
C1729 C1730 1.523 . S
C1730 C1711 1.368 . S
C1730 C1724 1.368 . S
C1730 C1729 1.523 . S
C1731 C1715 1.429 . S
C1731 C1727 1.429 . S
C1731 C1732 1.523 . S
C1732 C1716 1.368 . S
C1732 C1728 1.368 . S
C1732 C1731 1.523 . S
H1733 C1708 0.950 . S
H1734 C1710 0.950 . S
H1735 C1711 0.949 . S
H1736 C1713 0.950 . S
H1737 C1715 0.950 . S
C1738 C1739 1.349 . S
C1738 C1740 1.327 . S
C1738 H1763 0.950 . S
C1739 C1738 1.349 . S
C1739 C1755 1.349 . S
C1740 C1738 1.327 . S
C1740 C1759 1.429 . S
C1740 H1764 0.950 . S
C1741 C1758 1.574 . S
C1741 C1760 1.368 . S
C1741 H1765 0.949 . S
H1742 C1746 0.949 . S
C1743 C1744 1.349 . S
C1743 C1745 1.327 . S
C1743 H1766 0.950 . S
C1744 C1743 1.349 . S
C1744 C1756 1.349 . S
C1745 C1743 1.327 . S
C1745 C1761 1.429 . S
C1745 H1767 0.950 . S
C1746 H1742 0.949 . S
C1746 C1754 1.574 . S
C1746 C1762 1.368 . S
H1747 C1755 0.950 . S
H1748 C1753 0.950 . S
H1749 C1754 0.949 . S
H1750 C1756 0.950 . S
H1751 C1757 0.950 . S
H1752 C1758 0.949 . S
C1753 H1748 0.950 . S
C1753 C1755 1.327 . S
C1753 C1759 1.429 . S
C1754 C1746 1.574 . S
C1754 H1749 0.949 . S
C1754 C1760 1.368 . S
C1755 C1739 1.349 . S
C1755 H1747 0.950 . S
C1755 C1753 1.327 . S
C1756 C1744 1.349 . S
C1756 H1750 0.950 . S
C1756 C1757 1.327 . S
C1757 H1751 0.950 . S
C1757 C1756 1.327 . S
C1757 C1761 1.429 . S
C1758 C1741 1.574 . S
C1758 H1752 0.949 . S
C1758 C1762 1.368 . S
C1759 C1740 1.429 . S
C1759 C1753 1.429 . S
C1759 C1760 1.523 . S
C1760 C1741 1.368 . S
C1760 C1754 1.368 . S
C1760 C1759 1.523 . S
C1761 C1745 1.429 . S
C1761 C1757 1.429 . S
C1761 C1762 1.523 . S
C1762 C1746 1.368 . S
C1762 C1758 1.368 . S
C1762 C1761 1.523 . S
H1763 C1738 0.950 . S
H1764 C1740 0.950 . S
H1765 C1741 0.949 . S
H1766 C1743 0.950 . S
H1767 C1745 0.950 . S
C1768 C1769 1.349 . S
C1768 C1770 1.327 . S
C1768 H1793 0.950 . S
C1769 C1768 1.349 . S
C1769 C1785 1.349 . S
C1770 C1768 1.327 . S
C1770 C1789 1.429 . S
C1770 H1794 0.950 . S
C1771 C1788 1.578 . S
C1771 C1790 1.365 1_455 S
C1771 H1795 0.948 1_455 S
H1772 C1776 0.949 . S
C1773 C1774 1.349 . S
C1773 C1775 1.327 . S
C1773 H1796 0.950 . S
C1774 C1773 1.349 . S
C1774 C1786 1.349 . S
C1775 C1773 1.327 . S
C1775 C1791 1.429 . S
C1775 H1797 0.950 . S
C1776 H1772 0.949 . S
C1776 C1784 1.574 1_455 S
C1776 C1792 1.368 . S
H1777 C1785 0.950 . S
H1778 C1783 0.950 . S
H1779 C1784 0.949 . S
H1780 C1786 0.950 . S
H1781 C1787 0.950 . S
H1782 C1788 0.949 . S
C1783 H1778 0.950 . S
C1783 C1785 1.327 . S
C1783 C1789 1.429 . S
C1784 C1776 1.574 1_655 S
C1784 H1779 0.949 . S
C1784 C1790 1.368 . S
C1785 C1769 1.349 . S
C1785 H1777 0.950 . S
C1785 C1783 1.327 . S
C1786 C1774 1.349 . S
C1786 H1780 0.950 . S
C1786 C1787 1.327 . S
C1787 H1781 0.950 . S
C1787 C1786 1.327 . S
C1787 C1791 1.429 . S
C1788 C1771 1.578 . S
C1788 H1782 0.949 . S
C1788 C1792 1.368 . S
C1789 C1770 1.429 . S
C1789 C1783 1.429 . S
C1789 C1790 1.523 . S
C1790 C1771 1.365 1_655 S
C1790 C1784 1.368 . S
C1790 C1789 1.523 . S
C1791 C1775 1.429 . S
C1791 C1787 1.429 . S
C1791 C1792 1.523 . S
C1792 C1776 1.368 . S
C1792 C1788 1.368 . S
C1792 C1791 1.523 . S
H1793 C1768 0.950 . S
H1794 C1770 0.950 . S
H1795 C1771 0.948 1_655 S
H1796 C1773 0.950 . S
H1797 C1775 0.950 . S
C1798 C1799 1.349 . S
C1798 C1800 1.327 . S
C1798 H1823 0.950 . S
C1799 C1798 1.349 . S
C1799 C1815 1.349 . S
C1800 C1798 1.327 . S
C1800 C1819 1.429 . S
C1800 H1824 0.950 . S
C1801 C1818 1.574 . S
C1801 C1820 1.368 . S
C1801 H1825 0.949 . S
H1802 C1806 0.949 . S
C1803 C1804 1.349 . S
C1803 C1805 1.327 . S
C1803 H1826 0.950 . S
C1804 C1803 1.349 . S
C1804 C1816 1.349 . S
C1805 C1803 1.327 . S
C1805 C1821 1.429 . S
C1805 H1827 0.950 . S
C1806 H1802 0.949 . S
C1806 C1814 1.574 . S
C1806 C1822 1.368 . S
H1807 C1815 0.950 . S
H1808 C1813 0.950 . S
H1809 C1814 0.949 . S
H1810 C1816 0.950 . S
H1811 C1817 0.950 . S
H1812 C1818 0.949 . S
C1813 H1808 0.950 . S
C1813 C1815 1.327 . S
C1813 C1819 1.429 . S
C1814 C1806 1.574 . S
C1814 H1809 0.949 . S
C1814 C1820 1.368 . S
C1815 C1799 1.349 . S
C1815 H1807 0.950 . S
C1815 C1813 1.327 . S
C1816 C1804 1.349 . S
C1816 H1810 0.950 . S
C1816 C1817 1.327 . S
C1817 H1811 0.950 . S
C1817 C1816 1.327 . S
C1817 C1821 1.429 . S
C1818 C1801 1.574 . S
C1818 H1812 0.949 . S
C1818 C1822 1.368 . S
C1819 C1800 1.429 . S
C1819 C1813 1.429 . S
C1819 C1820 1.523 . S
C1820 C1801 1.368 . S
C1820 C1814 1.368 . S
C1820 C1819 1.523 . S
C1821 C1805 1.429 . S
C1821 C1817 1.429 . S
C1821 C1822 1.523 . S
C1822 C1806 1.368 . S
C1822 C1818 1.368 . S
C1822 C1821 1.523 . S
H1823 C1798 0.950 . S
H1824 C1800 0.950 . S
H1825 C1801 0.949 . S
H1826 C1803 0.950 . S
H1827 C1805 0.950 . S
C1828 C1829 1.349 . S
C1828 C1830 1.327 . S
C1828 H1853 0.950 . S
C1829 C1828 1.349 . S
C1829 C1845 1.349 . S
C1830 C1828 1.327 . S
C1830 C1849 1.429 . S
C1830 H1854 0.950 . S
C1831 C1848 1.574 . S
C1831 C1850 1.368 . S
C1831 H1855 0.949 . S
H1832 C1836 0.949 . S
C1833 C1834 1.349 . S
C1833 C1835 1.327 . S
C1833 H1856 0.950 . S
C1834 C1833 1.349 . S
C1834 C1846 1.349 . S
C1835 C1833 1.327 . S
C1835 C1851 1.429 . S
C1835 H1857 0.950 . S
C1836 H1832 0.949 . S
C1836 C1844 1.574 . S
C1836 C1852 1.368 . S
H1837 C1845 0.950 . S
H1838 C1843 0.950 . S
H1839 C1844 0.949 . S
H1840 C1846 0.950 . S
H1841 C1847 0.950 . S
H1842 C1848 0.949 . S
C1843 H1838 0.950 . S
C1843 C1845 1.327 . S
C1843 C1849 1.429 . S
C1844 C1836 1.574 . S
C1844 H1839 0.949 . S
C1844 C1850 1.368 . S
C1845 C1829 1.349 . S
C1845 H1837 0.950 . S
C1845 C1843 1.327 . S
C1846 C1834 1.349 . S
C1846 H1840 0.950 . S
C1846 C1847 1.327 . S
C1847 H1841 0.950 . S
C1847 C1846 1.327 . S
C1847 C1851 1.429 . S
C1848 C1831 1.574 . S
C1848 H1842 0.949 . S
C1848 C1852 1.368 . S
C1849 C1830 1.429 . S
C1849 C1843 1.429 . S
C1849 C1850 1.523 . S
C1850 C1831 1.368 . S
C1850 C1844 1.368 . S
C1850 C1849 1.523 . S
C1851 C1835 1.429 . S
C1851 C1847 1.429 . S
C1851 C1852 1.523 . S
C1852 C1836 1.368 . S
C1852 C1848 1.368 . S
C1852 C1851 1.523 . S
H1853 C1828 0.950 . S
H1854 C1830 0.950 . S
H1855 C1831 0.949 . S
H1856 C1833 0.950 . S
H1857 C1835 0.950 . S
C1858 C1859 1.349 . S
C1858 C1860 1.327 . S
C1858 H1883 0.950 . S
C1859 C1858 1.349 . S
C1859 C1875 1.349 . S
C1860 C1858 1.327 . S
C1860 C1879 1.429 . S
C1860 H1884 0.950 . S
C1861 C1878 1.574 . S
C1861 C1880 1.368 . S
C1861 H1885 0.949 1_556 S
H1862 C1866 0.949 . S
C1863 C1864 1.349 . S
C1863 C1865 1.327 . S
C1863 H1886 0.950 . S
C1864 C1863 1.349 . S
C1864 C1876 1.349 . S
C1865 C1863 1.327 . S
C1865 C1881 1.429 . S
C1865 H1887 0.950 . S
C1866 H1862 0.949 . S
C1866 C1874 1.574 . S
C1866 C1882 1.368 . S
H1867 C1875 0.950 . S
H1868 C1873 0.950 . S
H1869 C1874 0.949 . S
H1870 C1876 0.950 . S
H1871 C1877 0.950 . S
H1872 C1878 0.949 . S
C1873 H1868 0.950 . S
C1873 C1875 1.327 . S
C1873 C1879 1.429 . S
C1874 C1866 1.574 . S
C1874 H1869 0.949 . S
C1874 C1880 1.368 . S
C1875 C1859 1.349 . S
C1875 H1867 0.950 . S
C1875 C1873 1.327 . S
C1876 C1864 1.349 . S
C1876 H1870 0.950 . S
C1876 C1877 1.327 . S
C1877 H1871 0.950 . S
C1877 C1876 1.327 . S
C1877 C1881 1.429 . S
C1878 C1861 1.574 . S
C1878 H1872 0.949 . S
C1878 C1882 1.368 . S
C1879 C1860 1.429 . S
C1879 C1873 1.429 . S
C1879 C1880 1.523 1_554 S
C1880 C1861 1.368 . S
C1880 C1874 1.368 . S
C1880 C1879 1.523 1_556 S
C1881 C1865 1.429 . S
C1881 C1877 1.429 . S
C1881 C1882 1.523 . S
C1882 C1866 1.368 . S
C1882 C1878 1.368 . S
C1882 C1881 1.523 . S
H1883 C1858 0.950 . S
H1884 C1860 0.950 . S
H1885 C1861 0.949 1_554 S
H1886 C1863 0.950 . S
H1887 C1865 0.950 . S
C1888 C1889 1.349 . S
C1888 C1890 1.327 . S
C1888 H1913 0.950 . S
C1889 C1888 1.349 . S
C1889 C1905 1.349 . S
C1890 C1888 1.327 . S
C1890 C1909 1.429 . S
C1890 H1914 0.950 . S
C1891 C1908 1.574 . S
C1891 C1910 1.368 . S
C1891 H1915 0.949 . S
H1892 C1896 0.949 . S
C1893 C1894 1.349 . S
C1893 C1895 1.327 . S
C1893 H1916 0.950 . S
C1894 C1893 1.349 . S
C1894 C1906 1.349 . S
C1895 C1893 1.327 . S
C1895 C1911 1.429 . S
C1895 H1917 0.950 . S
C1896 H1892 0.949 . S
C1896 C1904 1.574 . S
C1896 C1912 1.368 . S
H1897 C1905 0.950 . S
H1898 C1903 0.950 . S
H1899 C1904 0.949 . S
H1900 C1906 0.950 . S
H1901 C1907 0.950 . S
H1902 C1908 0.949 . S
C1903 H1898 0.950 . S
C1903 C1905 1.327 . S
C1903 C1909 1.429 . S
C1904 C1896 1.574 . S
C1904 H1899 0.949 . S
C1904 C1910 1.368 . S
C1905 C1889 1.349 . S
C1905 H1897 0.950 . S
C1905 C1903 1.327 . S
C1906 C1894 1.349 . S
C1906 H1900 0.950 . S
C1906 C1907 1.327 . S
C1907 H1901 0.950 . S
C1907 C1906 1.327 . S
C1907 C1911 1.429 . S
C1908 C1891 1.574 . S
C1908 H1902 0.949 . S
C1908 C1912 1.368 . S
C1909 C1890 1.429 . S
C1909 C1903 1.429 . S
C1909 C1910 1.523 . S
C1910 C1891 1.368 . S
C1910 C1904 1.368 . S
C1910 C1909 1.523 . S
C1911 C1895 1.429 . S
C1911 C1907 1.429 . S
C1911 C1912 1.523 . S
C1912 C1896 1.368 . S
C1912 C1908 1.368 . S
C1912 C1911 1.523 . S
H1913 C1888 0.950 . S
H1914 C1890 0.950 . S
H1915 C1891 0.949 . S
H1916 C1893 0.950 . S
H1917 C1895 0.950 . S
C1918 C1919 1.349 . S
C1918 C1920 1.327 . S
C1918 H1943 0.950 . S
C1919 C1918 1.349 . S
C1919 C1935 1.349 . S
C1920 C1918 1.327 . S
C1920 C1939 1.429 . S
C1920 H1944 0.950 . S
C1921 C1938 1.574 . S
C1921 C1940 1.368 . S
C1921 H1945 0.949 . S
H1922 C1926 0.949 . S
C1923 C1924 1.349 . S
C1923 C1925 1.327 . S
C1923 H1946 0.950 . S
C1924 C1923 1.349 . S
C1924 C1936 1.349 . S
C1925 C1923 1.327 . S
C1925 C1941 1.429 . S
C1925 H1947 0.950 . S
C1926 H1922 0.949 . S
C1926 C1934 1.574 . S
C1926 C1942 1.368 . S
H1927 C1935 0.950 . S
H1928 C1933 0.950 . S
H1929 C1934 0.949 . S
H1930 C1936 0.950 . S
H1931 C1937 0.950 . S
H1932 C1938 0.949 . S
C1933 H1928 0.950 . S
C1933 C1935 1.327 . S
C1933 C1939 1.429 . S
C1934 C1926 1.574 . S
C1934 H1929 0.949 . S
C1934 C1940 1.368 . S
C1935 C1919 1.349 . S
C1935 H1927 0.950 . S
C1935 C1933 1.327 . S
C1936 C1924 1.349 . S
C1936 H1930 0.950 . S
C1936 C1937 1.327 . S
C1937 H1931 0.950 . S
C1937 C1936 1.327 . S
C1937 C1941 1.429 . S
C1938 C1921 1.574 . S
C1938 H1932 0.949 . S
C1938 C1942 1.368 . S
C1939 C1920 1.429 . S
C1939 C1933 1.429 . S
C1939 C1940 1.523 . S
C1940 C1921 1.368 . S
C1940 C1934 1.368 . S
C1940 C1939 1.523 . S
C1941 C1925 1.429 . S
C1941 C1937 1.429 . S
C1941 C1942 1.523 . S
C1942 C1926 1.368 . S
C1942 C1938 1.368 . S
C1942 C1941 1.523 . S
H1943 C1918 0.950 . S
H1944 C1920 0.950 . S
H1945 C1921 0.949 . S
H1946 C1923 0.950 . S
H1947 C1925 0.950 . S
C1948 C1949 1.349 . S
C1948 C1950 1.327 . S
C1948 H1973 0.950 . S
C1949 C1948 1.349 . S
C1949 C1965 1.349 . S
C1950 C1948 1.327 . S
C1950 C1969 1.429 . S
C1950 H1974 0.950 . S
C1951 C1968 1.574 . S
C1951 C1970 1.368 . S
C1951 H1975 0.949 . S
H1952 C1956 0.949 . S
C1953 C1954 1.349 . S
C1953 C1955 1.327 . S
C1953 H1976 0.950 . S
C1954 C1953 1.349 . S
C1954 C1966 1.349 . S
C1955 C1953 1.327 . S
C1955 C1971 1.429 . S
C1955 H1977 0.950 . S
C1956 H1952 0.949 . S
C1956 C1964 1.574 . S
C1956 C1972 1.368 . S
H1957 C1965 0.950 . S
H1958 C1963 0.950 . S
H1959 C1964 0.949 . S
H1960 C1966 0.950 . S
H1961 C1967 0.950 . S
H1962 C1968 0.949 . S
C1963 H1958 0.950 . S
C1963 C1965 1.327 . S
C1963 C1969 1.429 . S
C1964 C1956 1.574 . S
C1964 H1959 0.949 . S
C1964 C1970 1.368 . S
C1965 C1949 1.349 . S
C1965 H1957 0.950 . S
C1965 C1963 1.327 . S
C1966 C1954 1.349 . S
C1966 H1960 0.950 . S
C1966 C1967 1.327 . S
C1967 H1961 0.950 . S
C1967 C1966 1.327 . S
C1967 C1971 1.429 . S
C1968 C1951 1.574 . S
C1968 H1962 0.949 . S
C1968 C1972 1.368 . S
C1969 C1950 1.429 . S
C1969 C1963 1.429 . S
C1969 C1970 1.523 . S
C1970 C1951 1.368 . S
C1970 C1964 1.368 . S
C1970 C1969 1.523 . S
C1971 C1955 1.429 . S
C1971 C1967 1.429 . S
C1971 C1972 1.523 . S
C1972 C1956 1.368 . S
C1972 C1968 1.368 . S
C1972 C1971 1.523 . S
H1973 C1948 0.950 . S
H1974 C1950 0.950 . S
H1975 C1951 0.949 . S
H1976 C1953 0.950 . S
H1977 C1955 0.950 . S
C1978 C1979 1.349 . S
C1978 C1980 1.327 . S
C1978 H2003 0.950 . S
C1979 C1978 1.349 . S
C1979 C1995 1.349 . S
C1980 C1978 1.327 . S
C1980 C1999 1.429 . S
C1980 H2004 0.950 . S
C1981 C1998 1.574 . S
C1981 C2000 1.368 . S
C1981 H2005 0.949 . S
H1982 C1986 0.949 . S
C1983 C1984 1.349 . S
C1983 C1985 1.327 . S
C1983 H2006 0.950 . S
C1984 C1983 1.349 . S
C1984 C1996 1.349 . S
C1985 C1983 1.327 . S
C1985 C2001 1.429 . S
C1985 H2007 0.950 . S
C1986 H1982 0.949 . S
C1986 C1994 1.574 1_556 S
C1986 C2002 1.368 . S
H1987 C1995 0.950 . S
H1988 C1993 0.950 1_556 S
H1989 C1994 0.949 . S
H1990 C1996 0.950 . S
H1991 C1997 0.950 . S
H1992 C1998 0.949 . S
C1993 H1988 0.950 1_554 S
C1993 C1995 1.327 . S
C1993 C1999 1.429 . S
C1994 C1986 1.574 1_554 S
C1994 H1989 0.949 . S
C1994 C2000 1.368 1_554 S
C1995 C1979 1.349 . S
C1995 H1987 0.950 . S
C1995 C1993 1.327 . S
C1996 C1984 1.349 . S
C1996 H1990 0.950 . S
C1996 C1997 1.327 . S
C1997 H1991 0.950 . S
C1997 C1996 1.327 . S
C1997 C2001 1.429 . S
C1998 C1981 1.574 . S
C1998 H1992 0.949 . S
C1998 C2002 1.368 . S
C1999 C1980 1.429 . S
C1999 C1993 1.429 . S
C1999 C2000 1.523 1_554 S
C2000 C1981 1.368 . S
C2000 C1994 1.368 1_556 S
C2000 C1999 1.523 1_556 S
C2001 C1985 1.429 . S
C2001 C1997 1.429 . S
C2001 C2002 1.523 . S
C2002 C1986 1.368 . S
C2002 C1998 1.368 . S
C2002 C2001 1.523 . S
H2003 C1978 0.950 . S
H2004 C1980 0.950 . S
H2005 C1981 0.949 . S
H2006 C1983 0.950 . S
H2007 C1985 0.950 . S
C2008 C2009 1.349 . S
C2008 C2010 1.327 . S
C2008 H2033 0.950 . S
C2009 C2008 1.349 . S
C2009 C2025 1.349 . S
C2010 C2008 1.327 . S
C2010 C2029 1.429 . S
C2010 H2034 0.950 . S
C2011 C2028 1.574 . S
C2011 C2030 1.368 . S
C2011 H2035 0.949 . S
H2012 C2016 0.949 . S
C2013 C2014 1.349 . S
C2013 C2015 1.327 . S
C2013 H2036 0.950 . S
C2014 C2013 1.349 . S
C2014 C2026 1.349 . S
C2015 C2013 1.327 . S
C2015 C2031 1.429 . S
C2015 H2037 0.950 . S
C2016 H2012 0.949 . S
C2016 C2024 1.574 . S
C2016 C2032 1.368 . S
H2017 C2025 0.950 . S
H2018 C2023 0.950 . S
H2019 C2024 0.949 . S
H2020 C2026 0.950 . S
H2021 C2027 0.950 . S
H2022 C2028 0.949 . S
C2023 H2018 0.950 . S
C2023 C2025 1.327 . S
C2023 C2029 1.429 . S
C2024 C2016 1.574 . S
C2024 H2019 0.949 . S
C2024 C2030 1.368 . S
C2025 C2009 1.349 . S
C2025 H2017 0.950 . S
C2025 C2023 1.327 . S
C2026 C2014 1.349 . S
C2026 H2020 0.950 . S
C2026 C2027 1.327 . S
C2027 H2021 0.950 . S
C2027 C2026 1.327 . S
C2027 C2031 1.429 . S
C2028 C2011 1.574 . S
C2028 H2022 0.949 . S
C2028 C2032 1.368 . S
C2029 C2010 1.429 . S
C2029 C2023 1.429 . S
C2029 C2030 1.523 . S
C2030 C2011 1.368 . S
C2030 C2024 1.368 . S
C2030 C2029 1.523 . S
C2031 C2015 1.429 . S
C2031 C2027 1.429 . S
C2031 C2032 1.523 . S
C2032 C2016 1.368 . S
C2032 C2028 1.368 . S
C2032 C2031 1.523 . S
H2033 C2008 0.950 . S
H2034 C2010 0.950 . S
H2035 C2011 0.949 . S
H2036 C2013 0.950 . S
H2037 C2015 0.950 . S
C2038 C2039 1.349 . S
C2038 C2040 1.327 . S
C2038 H2063 0.950 . S
C2039 C2038 1.349 . S
C2039 C2055 1.349 . S
C2040 C2038 1.327 . S
C2040 C2059 1.429 . S
C2040 H2064 0.950 . S
C2041 C2058 1.574 . S
C2041 C2060 1.368 . S
C2041 H2065 0.949 . S
H2042 C2046 0.949 . S
C2043 C2044 1.349 . S
C2043 C2045 1.327 . S
C2043 H2066 0.950 . S
C2044 C2043 1.349 . S
C2044 C2056 1.349 . S
C2045 C2043 1.327 . S
C2045 C2061 1.429 . S
C2045 H2067 0.950 . S
C2046 H2042 0.949 . S
C2046 C2054 1.574 . S
C2046 C2062 1.368 . S
H2047 C2055 0.950 . S
H2048 C2053 0.950 . S
H2049 C2054 0.949 . S
H2050 C2056 0.950 . S
H2051 C2057 0.950 . S
H2052 C2058 0.949 . S
C2053 H2048 0.950 . S
C2053 C2055 1.327 . S
C2053 C2059 1.429 . S
C2054 C2046 1.574 . S
C2054 H2049 0.949 . S
C2054 C2060 1.368 . S
C2055 C2039 1.349 . S
C2055 H2047 0.950 . S
C2055 C2053 1.327 . S
C2056 C2044 1.349 . S
C2056 H2050 0.950 . S
C2056 C2057 1.327 . S
C2057 H2051 0.950 . S
C2057 C2056 1.327 . S
C2057 C2061 1.429 . S
C2058 C2041 1.574 . S
C2058 H2052 0.949 . S
C2058 C2062 1.368 . S
C2059 C2040 1.429 . S
C2059 C2053 1.429 . S
C2059 C2060 1.523 . S
C2060 C2041 1.368 . S
C2060 C2054 1.368 . S
C2060 C2059 1.523 . S
C2061 C2045 1.429 . S
C2061 C2057 1.429 . S
C2061 C2062 1.523 . S
C2062 C2046 1.368 . S
C2062 C2058 1.368 . S
C2062 C2061 1.523 . S
H2063 C2038 0.950 . S
H2064 C2040 0.950 . S
H2065 C2041 0.949 . S
H2066 C2043 0.950 . S
H2067 C2045 0.950 . S
C2068 C2069 1.349 . S
C2068 C2070 1.327 . S
C2068 H2093 0.950 . S
C2069 C2068 1.349 . S
C2069 C2085 1.349 . S
C2070 C2068 1.327 . S
C2070 C2089 1.429 . S
C2070 H2094 0.950 . S
C2071 C2088 1.574 . S
C2071 C2090 1.368 . S
C2071 H2095 0.949 . S
H2072 C2076 0.949 . S
C2073 C2074 1.349 . S
C2073 C2075 1.327 . S
C2073 H2096 0.950 . S
C2074 C2073 1.349 . S
C2074 C2086 1.349 . S
C2075 C2073 1.327 . S
C2075 C2091 1.429 . S
C2075 H2097 0.950 . S
C2076 H2072 0.949 . S
C2076 C2084 1.574 . S
C2076 C2092 1.368 . S
H2077 C2085 0.950 . S
H2078 C2083 0.950 . S
H2079 C2084 0.949 . S
H2080 C2086 0.950 . S
H2081 C2087 0.950 . S
H2082 C2088 0.949 . S
C2083 H2078 0.950 . S
C2083 C2085 1.327 . S
C2083 C2089 1.429 . S
C2084 C2076 1.574 . S
C2084 H2079 0.949 . S
C2084 C2090 1.368 . S
C2085 C2069 1.349 . S
C2085 H2077 0.950 . S
C2085 C2083 1.327 . S
C2086 C2074 1.349 . S
C2086 H2080 0.950 . S
C2086 C2087 1.327 . S
C2087 H2081 0.950 . S
C2087 C2086 1.327 . S
C2087 C2091 1.429 . S
C2088 C2071 1.574 . S
C2088 H2082 0.949 . S
C2088 C2092 1.368 . S
C2089 C2070 1.429 . S
C2089 C2083 1.429 . S
C2089 C2090 1.523 . S
C2090 C2071 1.368 . S
C2090 C2084 1.368 . S
C2090 C2089 1.523 . S
C2091 C2075 1.429 . S
C2091 C2087 1.429 . S
C2091 C2092 1.523 . S
C2092 C2076 1.368 . S
C2092 C2088 1.368 . S
C2092 C2091 1.523 . S
H2093 C2068 0.950 . S
H2094 C2070 0.950 . S
H2095 C2071 0.949 . S
H2096 C2073 0.950 . S
H2097 C2075 0.950 . S
C2098 C2099 1.349 . S
C2098 C2100 1.327 . S
C2098 H2123 0.950 . S
C2099 C2098 1.349 . S
C2099 C2115 1.349 . S
C2100 C2098 1.327 . S
C2100 C2119 1.429 . S
C2100 H2124 0.950 . S
C2101 C2118 1.574 . S
C2101 C2120 1.368 . S
C2101 H2125 0.949 . S
H2102 C2106 0.949 . S
C2103 C2104 1.349 . S
C2103 C2105 1.327 . S
C2103 H2126 0.950 . S
C2104 C2103 1.349 . S
C2104 C2116 1.349 . S
C2105 C2103 1.327 . S
C2105 C2121 1.429 . S
C2105 H2127 0.950 . S
C2106 H2102 0.949 . S
C2106 C2114 1.574 . S
C2106 C2122 1.368 . S
H2107 C2115 0.950 . S
H2108 C2113 0.950 . S
H2109 C2114 0.949 . S
H2110 C2116 0.950 . S
H2111 C2117 0.950 . S
H2112 C2118 0.949 . S
C2113 H2108 0.950 . S
C2113 C2115 1.327 . S
C2113 C2119 1.429 . S
C2114 C2106 1.574 . S
C2114 H2109 0.949 . S
C2114 C2120 1.368 . S
C2115 C2099 1.349 . S
C2115 H2107 0.950 . S
C2115 C2113 1.327 . S
C2116 C2104 1.349 . S
C2116 H2110 0.950 . S
C2116 C2117 1.327 . S
C2117 H2111 0.950 . S
C2117 C2116 1.327 . S
C2117 C2121 1.429 . S
C2118 C2101 1.574 . S
C2118 H2112 0.949 . S
C2118 C2122 1.368 . S
C2119 C2100 1.429 . S
C2119 C2113 1.429 . S
C2119 C2120 1.523 . S
C2120 C2101 1.368 . S
C2120 C2114 1.368 . S
C2120 C2119 1.523 . S
C2121 C2105 1.429 . S
C2121 C2117 1.429 . S
C2121 C2122 1.523 . S
C2122 C2106 1.368 . S
C2122 C2118 1.368 . S
C2122 C2121 1.523 . S
H2123 C2098 0.950 . S
H2124 C2100 0.950 . S
H2125 C2101 0.949 . S
H2126 C2103 0.950 . S
H2127 C2105 0.950 . S
C2128 C2129 1.349 . S
C2128 C2130 1.327 . S
C2128 H2153 0.950 . S
C2129 C2128 1.349 . S
C2129 C2145 1.349 . S
C2130 C2128 1.327 . S
C2130 C2149 1.429 . S
C2130 H2154 0.950 . S
C2131 C2148 1.574 . S
C2131 C2150 1.368 . S
C2131 H2155 0.949 . S
H2132 C2136 0.949 . S
C2133 C2134 1.349 . S
C2133 C2135 1.327 1_556 S
C2133 H2156 0.950 . S
C2134 C2133 1.349 . S
C2134 C2146 1.349 . S
C2135 C2133 1.327 1_554 S
C2135 C2151 1.429 . S
C2135 H2157 0.950 . S
C2136 H2132 0.949 . S
C2136 C2144 1.574 . S
C2136 C2152 1.368 . S
H2137 C2145 0.950 . S
H2138 C2143 0.950 . S
H2139 C2144 0.949 . S
H2140 C2146 0.950 . S
H2141 C2147 0.950 . S
H2142 C2148 0.949 . S
C2143 H2138 0.950 . S
C2143 C2145 1.327 . S
C2143 C2149 1.429 . S
C2144 C2136 1.574 . S
C2144 H2139 0.949 . S
C2144 C2150 1.368 . S
C2145 C2129 1.349 . S
C2145 H2137 0.950 . S
C2145 C2143 1.327 . S
C2146 C2134 1.349 . S
C2146 H2140 0.950 . S
C2146 C2147 1.327 . S
C2147 H2141 0.950 . S
C2147 C2146 1.327 . S
C2147 C2151 1.429 1_556 S
C2148 C2131 1.574 . S
C2148 H2142 0.949 . S
C2148 C2152 1.368 . S
C2149 C2130 1.429 . S
C2149 C2143 1.429 . S
C2149 C2150 1.523 . S
C2150 C2131 1.368 . S
C2150 C2144 1.368 . S
C2150 C2149 1.523 . S
C2151 C2135 1.429 . S
C2151 C2147 1.429 1_554 S
C2151 C2152 1.523 . S
C2152 C2136 1.368 . S
C2152 C2148 1.368 . S
C2152 C2151 1.523 . S
H2153 C2128 0.950 . S
H2154 C2130 0.950 . S
H2155 C2131 0.949 . S
H2156 C2133 0.950 . S
H2157 C2135 0.950 . S
C2158 C2159 1.349 . S
C2158 C2160 1.327 . S
C2158 H2183 0.950 . S
C2159 C2158 1.349 . S
C2159 C2175 1.349 . S
C2160 C2158 1.327 . S
C2160 C2179 1.429 . S
C2160 H2184 0.950 . S
C2161 C2178 1.574 . S
C2161 C2180 1.368 . S
C2161 H2185 0.949 . S
H2162 C2166 0.949 . S
C2163 C2164 1.349 . S
C2163 C2165 1.327 . S
C2163 H2186 0.950 . S
C2164 C2163 1.349 . S
C2164 C2176 1.349 . S
C2165 C2163 1.327 . S
C2165 C2181 1.429 . S
C2165 H2187 0.950 . S
C2166 H2162 0.949 . S
C2166 C2174 1.574 . S
C2166 C2182 1.368 . S
H2167 C2175 0.950 . S
H2168 C2173 0.950 . S
H2169 C2174 0.949 . S
H2170 C2176 0.950 . S
H2171 C2177 0.950 . S
H2172 C2178 0.949 . S
C2173 H2168 0.950 . S
C2173 C2175 1.327 . S
C2173 C2179 1.429 . S
C2174 C2166 1.574 . S
C2174 H2169 0.949 . S
C2174 C2180 1.368 . S
C2175 C2159 1.349 . S
C2175 H2167 0.950 . S
C2175 C2173 1.327 . S
C2176 C2164 1.349 . S
C2176 H2170 0.950 . S
C2176 C2177 1.327 . S
C2177 H2171 0.950 . S
C2177 C2176 1.327 . S
C2177 C2181 1.429 . S
C2178 C2161 1.574 . S
C2178 H2172 0.949 . S
C2178 C2182 1.368 . S
C2179 C2160 1.429 . S
C2179 C2173 1.429 . S
C2179 C2180 1.523 . S
C2180 C2161 1.368 . S
C2180 C2174 1.368 . S
C2180 C2179 1.523 . S
C2181 C2165 1.429 . S
C2181 C2177 1.429 . S
C2181 C2182 1.523 . S
C2182 C2166 1.368 . S
C2182 C2178 1.368 . S
C2182 C2181 1.523 . S
H2183 C2158 0.950 . S
H2184 C2160 0.950 . S
H2185 C2161 0.949 . S
H2186 C2163 0.950 . S
H2187 C2165 0.950 . S
C2188 C2189 1.349 . S
C2188 C2190 1.327 . S
C2188 H2213 0.950 . S
C2189 C2188 1.349 . S
C2189 C2205 1.349 . S
C2190 C2188 1.327 . S
C2190 C2209 1.429 . S
C2190 H2214 0.950 . S
C2191 C2208 1.574 . S
C2191 C2210 1.368 . S
C2191 H2215 0.949 . S
H2192 C2196 0.949 . S
C2193 C2194 1.349 . S
C2193 C2195 1.327 . S
C2193 H2216 0.950 . S
C2194 C2193 1.349 . S
C2194 C2206 1.349 . S
C2195 C2193 1.327 . S
C2195 C2211 1.429 . S
C2195 H2217 0.950 . S
C2196 H2192 0.949 . S
C2196 C2204 1.574 . S
C2196 C2212 1.368 . S
H2197 C2205 0.950 . S
H2198 C2203 0.950 . S
H2199 C2204 0.949 . S
H2200 C2206 0.950 . S
H2201 C2207 0.950 . S
H2202 C2208 0.949 . S
C2203 H2198 0.950 . S
C2203 C2205 1.327 . S
C2203 C2209 1.429 . S
C2204 C2196 1.574 . S
C2204 H2199 0.949 . S
C2204 C2210 1.368 . S
C2205 C2189 1.349 . S
C2205 H2197 0.950 . S
C2205 C2203 1.327 . S
C2206 C2194 1.349 . S
C2206 H2200 0.950 . S
C2206 C2207 1.327 . S
C2207 H2201 0.950 . S
C2207 C2206 1.327 . S
C2207 C2211 1.429 . S
C2208 C2191 1.574 . S
C2208 H2202 0.949 . S
C2208 C2212 1.368 . S
C2209 C2190 1.429 . S
C2209 C2203 1.429 . S
C2209 C2210 1.523 . S
C2210 C2191 1.368 . S
C2210 C2204 1.368 . S
C2210 C2209 1.523 . S
C2211 C2195 1.429 . S
C2211 C2207 1.429 . S
C2211 C2212 1.523 . S
C2212 C2196 1.368 . S
C2212 C2208 1.368 . S
C2212 C2211 1.523 . S
H2213 C2188 0.950 . S
H2214 C2190 0.950 . S
H2215 C2191 0.949 . S
H2216 C2193 0.950 . S
H2217 C2195 0.950 . S
C2218 C2219 1.349 . S
C2218 C2220 1.327 . S
C2218 H2243 0.950 . S
C2219 C2218 1.349 . S
C2219 C2235 1.349 . S
C2220 C2218 1.327 . S
C2220 C2239 1.429 . S
C2220 H2244 0.950 . S
C2221 C2238 1.574 . S
C2221 C2240 1.368 . S
C2221 H2245 0.949 . S
H2222 C2226 0.949 . S
C2223 C2224 1.349 . S
C2223 C2225 1.327 . S
C2223 H2246 0.950 . S
C2224 C2223 1.349 . S
C2224 C2236 1.349 . S
C2225 C2223 1.327 . S
C2225 C2241 1.429 . S
C2225 H2247 0.950 . S
C2226 H2222 0.949 . S
C2226 C2234 1.574 . S
C2226 C2242 1.368 . S
H2227 C2235 0.950 . S
H2228 C2233 0.950 . S
H2229 C2234 0.949 . S
H2230 C2236 0.950 . S
H2231 C2237 0.950 . S
H2232 C2238 0.949 . S
C2233 H2228 0.950 . S
C2233 C2235 1.327 . S
C2233 C2239 1.429 . S
C2234 C2226 1.574 . S
C2234 H2229 0.949 . S
C2234 C2240 1.368 . S
C2235 C2219 1.349 . S
C2235 H2227 0.950 . S
C2235 C2233 1.327 . S
C2236 C2224 1.349 . S
C2236 H2230 0.950 . S
C2236 C2237 1.327 . S
C2237 H2231 0.950 . S
C2237 C2236 1.327 . S
C2237 C2241 1.429 . S
C2238 C2221 1.574 . S
C2238 H2232 0.949 . S
C2238 C2242 1.368 . S
C2239 C2220 1.429 . S
C2239 C2233 1.429 . S
C2239 C2240 1.523 . S
C2240 C2221 1.368 . S
C2240 C2234 1.368 . S
C2240 C2239 1.523 . S
C2241 C2225 1.429 . S
C2241 C2237 1.429 . S
C2241 C2242 1.523 . S
C2242 C2226 1.368 . S
C2242 C2238 1.368 . S
C2242 C2241 1.523 . S
H2243 C2218 0.950 . S
H2244 C2220 0.950 . S
H2245 C2221 0.949 . S
H2246 C2223 0.950 . S
H2247 C2225 0.950 . S
C2248 C2249 1.349 . S
C2248 C2250 1.327 . S
C2248 H2273 0.950 . S
C2249 C2248 1.349 . S
C2249 C2265 1.349 . S
C2250 C2248 1.327 . S
C2250 C2269 1.429 . S
C2250 H2274 0.950 . S
C2251 C2268 1.574 . S
C2251 C2270 1.368 . S
C2251 H2275 0.949 . S
H2252 C2256 0.949 . S
C2253 C2254 1.349 . S
C2253 C2255 1.327 . S
C2253 H2276 0.950 . S
C2254 C2253 1.349 . S
C2254 C2266 1.349 . S
C2255 C2253 1.327 . S
C2255 C2271 1.429 . S
C2255 H2277 0.950 . S
C2256 H2252 0.949 . S
C2256 C2264 1.574 . S
C2256 C2272 1.368 . S
H2257 C2265 0.950 . S
H2258 C2263 0.952 . S
H2259 C2264 0.949 1_554 S
H2260 C2266 0.950 . S
H2261 C2267 0.950 . S
H2262 C2268 0.949 . S
C2263 H2258 0.952 . S
C2263 C2265 1.327 . S
C2263 C2269 1.429 . S
C2264 C2256 1.574 . S
C2264 H2259 0.949 1_556 S
C2264 C2270 1.368 . S
C2265 C2249 1.349 . S
C2265 H2257 0.950 . S
C2265 C2263 1.327 . S
C2266 C2254 1.349 . S
C2266 H2260 0.950 . S
C2266 C2267 1.327 . S
C2267 H2261 0.950 . S
C2267 C2266 1.327 . S
C2267 C2271 1.429 . S
C2268 C2251 1.574 . S
C2268 H2262 0.949 . S
C2268 C2272 1.368 . S
C2269 C2250 1.429 . S
C2269 C2263 1.429 . S
C2269 C2270 1.523 1_554 S
C2270 C2251 1.368 . S
C2270 C2264 1.368 . S
C2270 C2269 1.523 1_556 S
C2271 C2255 1.429 . S
C2271 C2267 1.429 . S
C2271 C2272 1.523 . S
C2272 C2256 1.368 . S
C2272 C2268 1.368 . S
C2272 C2271 1.523 . S
H2273 C2248 0.950 . S
H2274 C2250 0.950 . S
H2275 C2251 0.949 . S
H2276 C2253 0.950 . S
H2277 C2255 0.950 . S
C2278 C2279 1.349 . S
C2278 C2280 1.327 . S
C2278 H2303 0.950 . S
C2279 C2278 1.349 . S
C2279 C2295 1.349 . S
C2280 C2278 1.327 . S
C2280 C2299 1.429 . S
C2280 H2304 0.950 . S
C2281 C2298 1.574 . S
C2281 C2300 1.368 . S
C2281 H2305 0.949 . S
H2282 C2286 0.949 . S
C2283 C2284 1.349 . S
C2283 C2285 1.327 . S
C2283 H2306 0.950 . S
C2284 C2283 1.349 . S
C2284 C2296 1.349 . S
C2285 C2283 1.327 . S
C2285 C2301 1.429 . S
C2285 H2307 0.950 . S
C2286 H2282 0.949 . S
C2286 C2294 1.574 . S
C2286 C2302 1.368 . S
H2287 C2295 0.950 . S
H2288 C2293 0.950 . S
H2289 C2294 0.949 . S
H2290 C2296 0.950 . S
H2291 C2297 0.950 . S
H2292 C2298 0.949 . S
C2293 H2288 0.950 . S
C2293 C2295 1.327 . S
C2293 C2299 1.429 . S
C2294 C2286 1.574 . S
C2294 H2289 0.949 . S
C2294 C2300 1.368 . S
C2295 C2279 1.349 . S
C2295 H2287 0.950 . S
C2295 C2293 1.327 . S
C2296 C2284 1.349 . S
C2296 H2290 0.950 . S
C2296 C2297 1.327 . S
C2297 H2291 0.950 . S
C2297 C2296 1.327 . S
C2297 C2301 1.429 . S
C2298 C2281 1.574 . S
C2298 H2292 0.949 . S
C2298 C2302 1.368 . S
C2299 C2280 1.429 . S
C2299 C2293 1.429 . S
C2299 C2300 1.523 . S
C2300 C2281 1.368 . S
C2300 C2294 1.368 . S
C2300 C2299 1.523 . S
C2301 C2285 1.429 . S
C2301 C2297 1.429 . S
C2301 C2302 1.523 . S
C2302 C2286 1.368 . S
C2302 C2298 1.368 . S
C2302 C2301 1.523 . S
H2303 C2278 0.950 . S
H2304 C2280 0.950 . S
H2305 C2281 0.949 . S
H2306 C2283 0.950 . S
H2307 C2285 0.950 . S
C2308 C2309 1.349 . S
C2308 C2310 1.327 . S
C2308 H2333 0.950 . S
C2309 C2308 1.349 . S
C2309 C2325 1.349 . S
C2310 C2308 1.327 . S
C2310 C2329 1.429 . S
C2310 H2334 0.950 . S
C2311 C2328 1.574 . S
C2311 C2330 1.368 . S
C2311 H2335 0.949 . S
H2312 C2316 0.949 . S
C2313 C2314 1.349 . S
C2313 C2315 1.327 . S
C2313 H2336 0.950 . S
C2314 C2313 1.349 . S
C2314 C2326 1.349 . S
C2315 C2313 1.327 . S
C2315 C2331 1.429 . S
C2315 H2337 0.950 . S
C2316 H2312 0.949 . S
C2316 C2324 1.574 . S
C2316 C2332 1.368 . S
H2317 C2325 0.950 . S
H2318 C2323 0.950 . S
H2319 C2324 0.949 . S
H2320 C2326 0.950 . S
H2321 C2327 0.950 . S
H2322 C2328 0.949 . S
C2323 H2318 0.950 . S
C2323 C2325 1.327 . S
C2323 C2329 1.429 . S
C2324 C2316 1.574 . S
C2324 H2319 0.949 . S
C2324 C2330 1.368 . S
C2325 C2309 1.349 . S
C2325 H2317 0.950 . S
C2325 C2323 1.327 . S
C2326 C2314 1.349 . S
C2326 H2320 0.950 . S
C2326 C2327 1.327 . S
C2327 H2321 0.950 . S
C2327 C2326 1.327 . S
C2327 C2331 1.429 . S
C2328 C2311 1.574 . S
C2328 H2322 0.949 . S
C2328 C2332 1.368 . S
C2329 C2310 1.429 . S
C2329 C2323 1.429 . S
C2329 C2330 1.523 . S
C2330 C2311 1.368 . S
C2330 C2324 1.368 . S
C2330 C2329 1.523 . S
C2331 C2315 1.429 . S
C2331 C2327 1.429 . S
C2331 C2332 1.523 . S
C2332 C2316 1.368 . S
C2332 C2328 1.368 . S
C2332 C2331 1.523 . S
H2333 C2308 0.950 . S
H2334 C2310 0.950 . S
H2335 C2311 0.949 . S
H2336 C2313 0.950 . S
H2337 C2315 0.950 . S
C2338 C2339 1.349 . S
C2338 C2340 1.327 . S
C2338 H2363 0.950 . S
C2339 C2338 1.349 . S
C2339 C2355 1.349 . S
C2340 C2338 1.327 . S
C2340 C2359 1.429 . S
C2340 H2364 0.950 . S
C2341 C2358 1.574 . S
C2341 C2360 1.368 . S
C2341 H2365 0.949 . S
H2342 C2346 0.949 . S
C2343 C2344 1.349 . S
C2343 C2345 1.327 . S
C2343 H2366 0.950 . S
C2344 C2343 1.349 . S
C2344 C2356 1.349 . S
C2345 C2343 1.327 . S
C2345 C2361 1.429 . S
C2345 H2367 0.950 . S
C2346 H2342 0.949 . S
C2346 C2354 1.574 . S
C2346 C2362 1.368 . S
H2347 C2355 0.950 . S
H2348 C2353 0.950 . S
H2349 C2354 0.949 . S
H2350 C2356 0.950 . S
H2351 C2357 0.950 . S
H2352 C2358 0.949 . S
C2353 H2348 0.950 . S
C2353 C2355 1.327 . S
C2353 C2359 1.429 . S
C2354 C2346 1.574 . S
C2354 H2349 0.949 . S
C2354 C2360 1.368 . S
C2355 C2339 1.349 . S
C2355 H2347 0.950 . S
C2355 C2353 1.327 . S
C2356 C2344 1.349 . S
C2356 H2350 0.950 . S
C2356 C2357 1.327 . S
C2357 H2351 0.950 . S
C2357 C2356 1.327 . S
C2357 C2361 1.429 . S
C2358 C2341 1.574 . S
C2358 H2352 0.949 . S
C2358 C2362 1.368 . S
C2359 C2340 1.429 . S
C2359 C2353 1.429 . S
C2359 C2360 1.523 . S
C2360 C2341 1.368 . S
C2360 C2354 1.368 . S
C2360 C2359 1.523 . S
C2361 C2345 1.429 . S
C2361 C2357 1.429 . S
C2361 C2362 1.523 . S
C2362 C2346 1.368 . S
C2362 C2358 1.368 . S
C2362 C2361 1.523 . S
H2363 C2338 0.950 . S
H2364 C2340 0.950 . S
H2365 C2341 0.949 . S
H2366 C2343 0.950 . S
H2367 C2345 0.950 . S
C449 C9 0.167 . S
C454 C191 0.037 . S
C479 C359 1.576 . S
C484 C23 1.568 . S
C509 C37 0.151 . S
C514 C219 0.029 . S
C539 C51 1.619 . S
C544 C345 1.626 . S
C569 C65 2.535 . S
C574 C247 2.536 . S
C599 C79 1.528 . S
C604 C317 1.535 . S
C629 C93 2.386 . S
C634 C275 2.382 . S
C659 C443 0.551 . S
C664 C107 0.552 . S
C689 C303 2.536 . S
C694 C121 2.535 . S
C719 C135 1.528 . S
C724 C261 1.535 . S
C749 C331 2.382 . S
C754 C149 2.386 . S
C779 C163 1.619 . S
C784 C233 1.626 . S
C809 C205 1.576 . S
C814 C177 1.568 . S
C839 C289 0.551 . S
C844 C401 0.552 . S
C869 C415 0.037 . S
C874 C373 0.167 . S
C899 C429 0.029 . S
C904 C387 0.151 . S
C929 C8 1.561 . S
C934 C22 1.560 . S
C959 C34 1.749 . S
C964 C21 1.892 . S
C989 C50 1.703 . S
C994 C36 1.705 . S
C1019 C49 1.464 . S
C1024 C6 1.367 . S
C1049 C105 2.057 . S
C1054 C64 2.111 . S
C1079 C76 1.082 . S
C1084 C62 1.108 . S
C1109 C91 1.815 . S
C1114 C77 1.797 . S
C1139 C92 1.414 . S
C1144 C104 1.318 . S
C1169 C134 1.843 . S
C1174 C7 1.834 . S
C1199 C119 1.093 . S
C1204 C48 1.033 . S
C1229 C146 1.044 . S
C1234 C20 1.039 . S
C1259 C385 2.324 1_455 S
C1264 C106 2.377 . S
C1289 C400 2.377 . S
C1294 C35 2.324 . S
C1319 C160 1.033 . S
C1324 C63 1.093 . S
C1349 C90 1.044 . S
C1354 C174 1.039 . S
C1379 C202 1.581 . S
C1384 C188 1.572 . S
C1409 C218 1.445 . S
C1414 C203 1.394 . S
C1439 C230 1.740 . S
C1444 C216 1.732 . S
C1469 C190 1.582 . S
C1474 C231 1.530 . S
C1499 C246 1.771 . S
C1504 C288 1.772 . S
C1529 C245 1.139 . S
C1534 C258 1.099 . S
C1559 C274 1.686 . S
C1564 C260 1.685 . S
C1589 C273 1.422 . S
C1594 C286 1.368 . S
C1619 C189 1.497 . S
C1624 C315 1.489 . S
C1649 C300 1.836 . S
C1654 C232 1.967 . S
C1679 C328 1.450 . S
C1684 C204 1.556 . S
C1709 C427 1.433 . S
C1714 C287 1.434 . S
C1739 C441 1.434 . S
C1744 C217 1.433 . S
C1769 C244 1.836 . S
C1774 C344 1.967 . S
C1799 C358 1.556 . S
C1804 C272 1.450 . S
C1829 C176 1.560 . S
C1834 C372 1.561 . S
C1859 C384 1.749 . S
C1864 C175 1.892 . S
C1889 C162 1.703 . S
C1894 C386 1.705 . S
C1919 C161 1.464 . S
C1924 C370 1.367 . S
C1949 C120 2.111 . S
C1954 C399 2.057 . S
C1979 C132 1.082 . S
C1984 C118 1.108 . S
C2009 C147 1.815 . S
C2014 C133 1.797 . S
C2039 C148 1.414 . S
C2044 C398 1.318 . S
C2069 C371 1.834 . S
C2074 C78 1.843 . S
C2099 C356 1.581 . S
C2104 C412 1.572 . S
C2129 C357 1.394 . S
C2134 C428 1.445 . S
C2159 C426 1.732 . S
C2164 C342 1.740 . S
C2189 C343 1.530 . S
C2194 C414 1.582 . S
C2219 C442 1.772 . S
C2224 C302 1.771 . S
C2249 C301 1.139 . S
C2254 C314 1.099 . S
C2279 C330 1.686 . S
C2284 C316 1.685 . S
C2309 C329 1.422 . S
C2314 C440 1.368 . S
C2339 C413 1.497 . S
C2344 C259 1.489 . S
