# Generated by pormake.
# Topology wme, (6)-cn, num edge types: 1
# Building blocks:
#     Node 0, Type 0, BuildingBlock: MIFKUJ_clean_sbu_0, # of connection points: 6
#     Node 1, Type 0, BuildingBlock: MIFKUJ_clean_sbu_0, # of connection points: 6
#     Node 2, Type 0, BuildingBlock: MIFKUJ_clean_sbu_0, # of connection points: 6
#     Node 3, Type 0, BuildingBlock: MIFKUJ_clean_sbu_0, # of connection points: 6
#     Node 4, Type 0, BuildingBlock: MIFKUJ_clean_sbu_0, # of connection points: 6
#     Node 5, Type 0, BuildingBlock: MIFKUJ_clean_sbu_0, # of connection points: 6
#     Node 6, Type 0, BuildingBlock: MIFKUJ_clean_sbu_0, # of connection points: 6
#     Node 7, Type 0, BuildingBlock: MIFKUJ_clean_sbu_0, # of connection points: 6
#     Node 8, Type 0, BuildingBlock: MIFKUJ_clean_sbu_0, # of connection points: 6
#     Node 9, Type 0, BuildingBlock: MIFKUJ_clean_sbu_0, # of connection points: 6
#     Node 10, Type 0, BuildingBlock: MIFKUJ_clean_sbu_0, # of connection points: 6
#     Node 11, Type 0, BuildingBlock: MIFKUJ_clean_sbu_0, # of connection points: 6
#     Edge 12, Type (0, 0), BuildingBlock: TEMPAE_clean_linker_10, # of connection points: 2
#     Edge 13, Type (0, 0), BuildingBlock: TEMPAE_clean_linker_10, # of connection points: 2
#     Edge 14, Type (0, 0), BuildingBlock: TEMPAE_clean_linker_10, # of connection points: 2
#     Edge 15, Type (0, 0), BuildingBlock: TEMPAE_clean_linker_10, # of connection points: 2
#     Edge 16, Type (0, 0), BuildingBlock: TEMPAE_clean_linker_10, # of connection points: 2
#     Edge 17, Type (0, 0), BuildingBlock: TEMPAE_clean_linker_10, # of connection points: 2
#     Edge 18, Type (0, 0), BuildingBlock: TEMPAE_clean_linker_10, # of connection points: 2
#     Edge 19, Type (0, 0), BuildingBlock: TEMPAE_clean_linker_10, # of connection points: 2
#     Edge 20, Type (0, 0), BuildingBlock: TEMPAE_clean_linker_10, # of connection points: 2
#     Edge 21, Type (0, 0), BuildingBlock: TEMPAE_clean_linker_10, # of connection points: 2
#     Edge 22, Type (0, 0), BuildingBlock: TEMPAE_clean_linker_10, # of connection points: 2
#     Edge 23, Type (0, 0), BuildingBlock: TEMPAE_clean_linker_10, # of connection points: 2
#     Edge 24, Type (0, 0), BuildingBlock: TEMPAE_clean_linker_10, # of connection points: 2
#     Edge 25, Type (0, 0), BuildingBlock: TEMPAE_clean_linker_10, # of connection points: 2
#     Edge 26, Type (0, 0), BuildingBlock: TEMPAE_clean_linker_10, # of connection points: 2
#     Edge 27, Type (0, 0), BuildingBlock: TEMPAE_clean_linker_10, # of connection points: 2
#     Edge 28, Type (0, 0), BuildingBlock: TEMPAE_clean_linker_10, # of connection points: 2
#     Edge 29, Type (0, 0), BuildingBlock: TEMPAE_clean_linker_10, # of connection points: 2
#     Edge 30, Type (0, 0), BuildingBlock: TEMPAE_clean_linker_10, # of connection points: 2
#     Edge 31, Type (0, 0), BuildingBlock: TEMPAE_clean_linker_10, # of connection points: 2
#     Edge 32, Type (0, 0), BuildingBlock: TEMPAE_clean_linker_10, # of connection points: 2
#     Edge 33, Type (0, 0), BuildingBlock: TEMPAE_clean_linker_10, # of connection points: 2
#     Edge 34, Type (0, 0), BuildingBlock: TEMPAE_clean_linker_10, # of connection points: 2
#     Edge 35, Type (0, 0), BuildingBlock: TEMPAE_clean_linker_10, # of connection points: 2
#     Edge 36, Type (0, 0), BuildingBlock: TEMPAE_clean_linker_10, # of connection points: 2
#     Edge 37, Type (0, 0), BuildingBlock: TEMPAE_clean_linker_10, # of connection points: 2
#     Edge 38, Type (0, 0), BuildingBlock: TEMPAE_clean_linker_10, # of connection points: 2
#     Edge 39, Type (0, 0), BuildingBlock: TEMPAE_clean_linker_10, # of connection points: 2
#     Edge 40, Type (0, 0), BuildingBlock: TEMPAE_clean_linker_10, # of connection points: 2
#     Edge 41, Type (0, 0), BuildingBlock: TEMPAE_clean_linker_10, # of connection points: 2
#     Edge 42, Type (0, 0), BuildingBlock: TEMPAE_clean_linker_10, # of connection points: 2
#     Edge 43, Type (0, 0), BuildingBlock: TEMPAE_clean_linker_10, # of connection points: 2
#     Edge 44, Type (0, 0), BuildingBlock: TEMPAE_clean_linker_10, # of connection points: 2
#     Edge 45, Type (0, 0), BuildingBlock: TEMPAE_clean_linker_10, # of connection points: 2
#     Edge 46, Type (0, 0), BuildingBlock: TEMPAE_clean_linker_10, # of connection points: 2
#     Edge 47, Type (0, 0), BuildingBlock: TEMPAE_clean_linker_10, # of connection points: 2
# Relax obj value: 0.076
# Max RMSD: 0.168
# Mean RMSD: 0.168
data_MOF--net-wme--node1-MIFKUJ_clean_sbu_0--edge1-TEMPAE_clean_linker_10
_symmetry_space_group_name_H-M    P1
_symmetry_Int_Tables_number       1
_symmetry_cell_setting            triclinic
loop_
_symmetry_equiv_pos_as_xyz
'x, y, z'
_cell_length_a     35.139749
_cell_length_b     35.139881
_cell_length_c     52.494034
_cell_angle_alpha  90.047244
_cell_angle_beta   90.09703
_cell_angle_gamma 120.065
loop_
_atom_site_label
_atom_site_type_symbol
_atom_site_fract_x
_atom_site_fract_y
_atom_site_fract_z
_atom_type_partial_charge
Zn0 Zn 0.22382 0.2718 0.11253 0.0
Zn1 Zn 0.23221 0.37614 0.10111 0.0
C2 C 0.13468 0.21349 0.11312 0.0
O3 O 0.15085 0.2002 0.13141 0.0
C4 C 0.3079 0.45396 0.08344 0.0
O5 O 0.28005 0.44888 0.06521 0.0
O6 O 0.23411 0.21996 0.11146 0.0
O7 O 0.26853 0.32057 0.09152 0.0
O8 O 0.22512 0.33712 0.07075 0.0
C9 C 0.22217 0.19658 0.09131 0.0
O10 O 0.2078 0.2095 0.07192 0.0
O11 O 0.16089 0.24769 0.10056 0.0
C12 C 0.20923 0.43937 0.11268 0.0
O13 O 0.23717 0.44425 0.13082 0.0
O14 O 0.19821 0.40835 0.09663 0.0
O15 O 0.22119 0.35124 0.13717 0.0
O16 O 0.22548 0.29221 0.14762 0.0
O17 O 0.29554 0.42506 0.10086 0.0
C18 C 0.25172 0.3226 0.07067 0.0
C19 C 0.22015 0.32422 0.15375 0.0
Zn20 Zn 0.93277 0.20814 0.61142 0.0
Zn21 Zn 0.83792 0.21935 0.60314 0.0
C22 C 0.90033 0.11858 0.61156 0.0
O23 O 0.92727 0.13346 0.63116 0.0
C24 C 0.86532 0.30904 0.58628 0.0
O25 O 0.86002 0.29248 0.56323 0.0
O26 O 0.99491 0.21653 0.6117 0.0
O27 O 0.93127 0.25286 0.58893 0.0
O28 O 0.86649 0.20806 0.57256 0.0
C29 C 0.00702 0.20458 0.59181 0.0
O30 O 0.98074 0.19124 0.57193 0.0
O31 O 0.89402 0.14565 0.59873 0.0
C32 C 0.75356 0.20849 0.61155 0.0
O33 O 0.77659 0.23462 0.63039 0.0
O34 O 0.77225 0.19408 0.59676 0.0
O35 O 0.84653 0.2022 0.63884 0.0
O36 O 0.91294 0.21078 0.64631 0.0
O37 O 0.86027 0.28475 0.60539 0.0
C38 C 0.90729 0.23472 0.56968 0.0
C39 C 0.87551 0.20334 0.65402 0.0
Zn40 Zn 0.73478 0.93671 0.11263 0.0
Zn41 Zn 0.63106 0.84277 0.10394 0.0
C42 C 0.79196 0.90447 0.11637 0.0
O43 O 0.80476 0.93451 0.13434 0.0
C44 C 0.5556 0.84362 0.08362 0.0
O45 O 0.56007 0.81917 0.06627 0.0
O46 O 0.78818 0.99808 0.11173 0.0
O47 O 0.69002 0.9348 0.08832 0.0
O48 O 0.67212 0.86955 0.07381 0.0
C49 C 0.81178 0.00813 0.09176 0.0
O50 O 0.79823 0.98012 0.07272 0.0
O51 O 0.75846 0.89644 0.103 0.0
C52 C 0.56339 0.7572 0.11453 0.0
O53 O 0.55658 0.78048 0.13162 0.0
O54 O 0.59672 0.7767 0.10005 0.0
O55 O 0.65384 0.85624 0.14035 0.0
O56 O 0.71304 0.92123 0.14791 0.0
O57 O 0.58413 0.86024 0.10133 0.0
C58 C 0.68367 0.90944 0.06971 0.0
C59 C 0.68147 0.88489 0.15571 0.0
Zn60 Zn 0.8303 0.74485 0.60404 0.0
Zn61 Zn 0.76455 0.60579 0.60278 0.0
C62 C 0.91712 0.8142 0.60377 0.0
O63 O 0.89864 0.82922 0.61951 0.0
C64 C 0.67176 0.5711 0.60955 0.0
O65 O 0.68034 0.6086 0.59921 0.0
O66 O 0.80654 0.78611 0.59895 0.0
O67 O 0.79856 0.68861 0.58686 0.0
O68 O 0.75685 0.62761 0.56788 0.0
C69 C 0.81721 0.80892 0.57865 0.0
O70 O 0.83818 0.80059 0.56078 0.0
O71 O 0.89368 0.77635 0.59397 0.0
C72 C 0.82968 0.57412 0.60641 0.0
O73 O 0.8566 0.61041 0.61872 0.0
O74 O 0.79285 0.56827 0.59862 0.0
O75 O 0.79283 0.65404 0.63096 0.0
O76 O 0.82651 0.72547 0.64011 0.0
O77 O 0.70314 0.56383 0.61389 0.0
C78 C 0.77472 0.66897 0.56801 0.0
C79 C 0.81074 0.68553 0.64714 0.0
Zn80 Zn 0.07295 0.78629 0.11803 0.0
Zn81 Zn 0.16569 0.77527 0.10564 0.0
C82 C 0.10575 0.87561 0.11626 0.0
O83 O 0.07744 0.86149 0.13513 0.0
C84 C 0.16496 0.6982 0.08809 0.0
O85 O 0.18578 0.72525 0.06922 0.0
O86 O 0.01157 0.77833 0.11798 0.0
O87 O 0.07209 0.73827 0.09774 0.0
O88 O 0.13083 0.77983 0.07563 0.0
C89 C 0.99974 0.78927 0.09761 0.0
O90 O 0.02597 0.80115 0.07778 0.0
O91 O 0.11249 0.84797 0.10431 0.0
C92 C 0.25319 0.7979 0.11364 0.0
O93 O 0.2323 0.7712 0.13264 0.0
O94 O 0.23142 0.80821 0.09852 0.0
O95 O 0.15708 0.79054 0.14226 0.0
O96 O 0.09386 0.78651 0.15279 0.0
O97 O 0.1506 0.71149 0.10627 0.0
C98 C 0.08975 0.75277 0.07636 0.0
C99 C 0.13151 0.79248 0.15883 0.0
Zn100 Zn 0.30837 0.09856 0.59364 0.0
Zn101 Zn 0.38314 0.19192 0.58649 0.0
C102 C 0.24141 0.1191 0.60232 0.0
O103 O 0.23228 0.08738 0.61868 0.0
C104 C 0.46573 0.19658 0.57448 0.0
O105 O 0.46594 0.22324 0.55687 0.0
O106 O 0.26005 0.03556 0.59231 0.0
O107 O 0.35082 0.10619 0.56619 0.0
O108 O 0.34787 0.16372 0.55406 0.0
C109 C 0.23488 0.02535 0.57301 0.0
O110 O 0.24514 0.05447 0.55481 0.0
O111 O 0.27569 0.13289 0.58854 0.0
C112 C 0.4026 0.28177 0.59379 0.0
O113 O 0.36764 0.26387 0.60844 0.0
O114 O 0.41354 0.2572 0.58189 0.0
O115 O 0.35467 0.18115 0.62156 0.0
O116 O 0.33392 0.11153 0.62813 0.0
O117 O 0.43272 0.17773 0.58928 0.0
C118 C 0.34881 0.12914 0.5483 0.0
C119 C 0.34437 0.14922 0.63675 0.0
Zn120 Zn 0.69698 0.78498 0.38106 0.0
Zn121 Zn 0.62696 0.80791 0.39255 0.0
C122 C 0.76834 0.87339 0.37508 0.0
O123 O 0.77843 0.85268 0.35791 0.0
C124 C 0.54589 0.72968 0.40439 0.0
O125 O 0.54913 0.755 0.42368 0.0
O126 O 0.74168 0.76616 0.3758 0.0
O127 O 0.65969 0.75132 0.41078 0.0
O128 O 0.66255 0.81164 0.42406 0.0
C129 C 0.7608 0.7605 0.39475 0.0
O130 O 0.74792 0.76303 0.41785 0.0
O131 O 0.73342 0.85142 0.38812 0.0
C132 C 0.57785 0.84779 0.38018 0.0
O133 O 0.58011 0.83145 0.35811 0.0
O134 O 0.59659 0.84233 0.39942 0.0
O135 O 0.65756 0.83168 0.35859 0.0
O136 O 0.6655 0.7756 0.34825 0.0
O137 O 0.57679 0.74447 0.38803 0.0
C138 C 0.66223 0.77613 0.42899 0.0
C139 C 0.66112 0.80783 0.34163 0.0
Zn140 Zn 0.92332 0.7052 0.87168 0.0
Zn141 Zn 0.83449 0.61606 0.88374 0.0
C142 C 0.88894 0.76077 0.86563 0.0
O143 O 0.91539 0.76993 0.84606 0.0
C144 C 0.86596 0.55637 0.89726 0.0
O145 O 0.85906 0.56528 0.92052 0.0
O146 O 0.98352 0.76005 0.86899 0.0
O147 O 0.92788 0.66918 0.89924 0.0
O148 O 0.86445 0.65524 0.91492 0.0
C149 C 0.99563 0.7847 0.88864 0.0
O150 O 0.97052 0.77123 0.90897 0.0
O151 O 0.8834 0.72981 0.88052 0.0
C152 C 0.75185 0.54094 0.87608 0.0
O153 O 0.77464 0.54011 0.85648 0.0
O154 O 0.77027 0.57294 0.89171 0.0
O155 O 0.83428 0.6423 0.84902 0.0
O156 O 0.90449 0.67455 0.83842 0.0
O157 O 0.85989 0.57581 0.87857 0.0
C158 C 0.90419 0.66504 0.9183 0.0
C159 C 0.86423 0.65632 0.83208 0.0
Zn160 Zn 0.16694 0.9195 0.38058 0.0
Zn161 Zn 0.22117 0.8386 0.38987 0.0
C162 C 0.07664 0.8489 0.3788 0.0
O163 O 0.09413 0.8244 0.37351 0.0
C164 C 0.31646 0.88494 0.38884 0.0
O165 O 0.31366 0.91952 0.39548 0.0
O166 O 0.19135 0.98272 0.39023 0.0
O167 O 0.18742 0.88779 0.40134 0.0
O168 O 0.22505 0.8682 0.42413 0.0
C169 C 0.17628 0.9901 0.41048 0.0
O170 O 0.1492 0.95659 0.42467 0.0
O171 O 0.10158 0.88984 0.38256 0.0
C172 C 0.19099 0.7524 0.37432 0.0
O173 O 0.22006 0.77545 0.35674 0.0
O174 O 0.1823 0.77275 0.3913 0.0
O175 O 0.20688 0.86575 0.35855 0.0
O176 O 0.18316 0.91057 0.34561 0.0
O177 O 0.28158 0.84851 0.38488 0.0
C178 C 0.20936 0.89325 0.4213 0.0
C179 C 0.19732 0.88425 0.34063 0.0
Zn180 Zn 0.27329 0.1958 0.86809 0.0
Zn181 Zn 0.37321 0.19683 0.87674 0.0
C182 C 0.20894 0.10757 0.86754 0.0
O183 O 0.19592 0.12555 0.8502 0.0
C184 C 0.45349 0.26988 0.89578 0.0
O185 O 0.44799 0.24033 0.91293 0.0
O186 O 0.2243 0.21016 0.86846 0.0
O187 O 0.32153 0.23866 0.8908 0.0
O188 O 0.33453 0.18922 0.9073 0.0
C189 C 0.21306 0.22144 0.88886 0.0
O190 O 0.2361 0.22736 0.90969 0.0
O191 O 0.24485 0.13195 0.87935 0.0
C192 C 0.42467 0.15875 0.86306 0.0
O193 O 0.4264 0.17959 0.84196 0.0
O194 O 0.40137 0.15932 0.8814 0.0
O195 O 0.34965 0.18836 0.84032 0.0
O196 O 0.29276 0.1978 0.83275 0.0
O197 O 0.42462 0.25939 0.87839 0.0
C198 C 0.32643 0.22029 0.91022 0.0
C199 C 0.32273 0.1906 0.82493 0.0
Zn200 Zn 0.06976 0.27326 0.37527 0.0
Zn201 Zn 0.16535 0.38562 0.38584 0.0
C202 C 0.10408 0.21886 0.37801 0.0
O203 O 0.07988 0.20706 0.35722 0.0
C204 C 0.15523 0.45607 0.40271 0.0
O205 O 0.17756 0.45243 0.42173 0.0
O206 O 0.00696 0.22045 0.37513 0.0
O207 O 0.07615 0.32537 0.39335 0.0
O208 O 0.13478 0.34724 0.41661 0.0
C209 C 0.99528 0.19463 0.39424 0.0
O210 O 0.02218 0.20563 0.41379 0.0
O211 O 0.10738 0.25102 0.39087 0.0
C212 C 0.2499 0.4573 0.37542 0.0
O213 O 0.22563 0.46004 0.35723 0.0
O214 O 0.23188 0.42492 0.39078 0.0
O215 O 0.15317 0.35617 0.35068 0.0
O216 O 0.09337 0.29247 0.34071 0.0
O217 O 0.14363 0.4288 0.38439 0.0
C218 C 0.09313 0.3274 0.41486 0.0
C219 C 0.12962 0.32618 0.33455 0.0
Zn220 Zn 0.81514 0.07216 0.88039 0.0
Zn221 Zn 0.78308 0.16658 0.8878 0.0
C222 C 0.90043 0.14791 0.89412 0.0
O223 O 0.88538 0.1713 0.8831 0.0
C224 C 0.68506 0.11788 0.88361 0.0
O225 O 0.6853 0.08138 0.8886 0.0
O226 O 0.79803 0.00767 0.8805 0.0
O227 O 0.77235 0.08601 0.89455 0.0
O228 O 0.7832 0.13701 0.92128 0.0
C229 C 0.81217 0.99459 0.89895 0.0
O230 O 0.83291 0.02196 0.91777 0.0
O231 O 0.87525 0.10664 0.89641 0.0
C232 C 0.84732 0.26315 0.88034 0.0
O233 O 0.8676 0.25313 0.86287 0.0
O234 O 0.81526 0.23259 0.89244 0.0
O235 O 0.80284 0.14705 0.85516 0.0
O236 O 0.82086 0.09592 0.84579 0.0
O237 O 0.72121 0.15398 0.88212 0.0
C238 C 0.77774 0.09913 0.91724 0.0
C239 C 0.81504 0.12761 0.83918 0.0
C240 C 0.16828 0.94363 0.09676 0.0
C241 C 0.12735 0.92253 0.10898 0.0
C242 C 0.18962 0.98908 0.09163 0.0
C243 C 0.16905 0.01351 0.09849 0.0
C244 C 0.12702 0.99183 0.11001 0.0
C245 C 0.10695 0.94682 0.1153 0.0
C246 C 0.23455 0.01116 0.07951 0.0
C247 C 0.10336 0.0163 0.11714 0.0
C248 C 0.2274 0.13562 0.11279 0.0
C249 C 0.21661 0.15185 0.09123 0.0
C250 C 0.21516 0.09103 0.11456 0.0
C251 C 0.19124 0.06193 0.09439 0.0
C252 C 0.18315 0.07879 0.07182 0.0
C253 C 0.19613 0.12358 0.07046 0.0
C254 C 0.22513 0.07453 0.13878 0.0
C255 C 0.15767 0.04901 0.04987 0.0
H256 H 0.18415 0.92493 0.09191 0.0
H257 H 0.07501 0.93055 0.12443 0.0
H258 H 0.2348 0.02948 0.06226 0.0
H259 H 0.25906 0.03545 0.09299 0.0
H260 H 0.24507 0.98725 0.07411 0.0
H261 H 0.06996 0.99414 0.12486 0.0
H262 H 0.12265 0.04168 0.13171 0.0
H263 H 0.10024 0.03351 0.10025 0.0
H264 H 0.24365 0.15729 0.12882 0.0
H265 H 0.18806 0.13585 0.05357 0.0
H266 H 0.23803 0.05221 0.13438 0.0
H267 H 0.19439 0.05543 0.14985 0.0
H268 H 0.24941 0.10188 0.15094 0.0
H269 H 0.16924 0.02556 0.04564 0.0
H270 H 0.16044 0.06788 0.03232 0.0
H271 H 0.12241 0.02941 0.05512 0.0
C272 C 0.1666 0.1096 0.6074 0.0
C273 C 0.21033 0.13586 0.5994 0.0
C274 C 0.13612 0.12415 0.60529 0.0
C275 C 0.14968 0.16649 0.59533 0.0
C276 C 0.19383 0.19328 0.5872 0.0
C277 C 0.22357 0.17746 0.5891 0.0
C278 C 0.08924 0.09396 0.61364 0.0
C279 C 0.20969 0.23874 0.57671 0.0
C280 C 0.05651 0.18205 0.57055 0.0
C281 C 0.04703 0.20016 0.59182 0.0
C282 C 0.09097 0.17266 0.57104 0.0
C283 C 0.11711 0.18197 0.59325 0.0
C284 C 0.10918 0.20231 0.61432 0.0
C285 C 0.07414 0.21097 0.61342 0.0
C286 C 0.09787 0.15064 0.54821 0.0
C287 C 0.13658 0.21329 0.63826 0.0
H288 H 0.1559 0.07716 0.61509 0.0
H289 H 0.25732 0.19794 0.58296 0.0
H290 H 0.08041 0.10978 0.62903 0.0
H291 H 0.06643 0.08777 0.59749 0.0
H292 H 0.08387 0.06184 0.6207 0.0
H293 H 0.24509 0.25571 0.57155 0.0
H294 H 0.19033 0.23676 0.55954 0.0
H295 H 0.20451 0.25899 0.591 0.0
H296 H 0.036 0.17372 0.55368 0.0
H297 H 0.0673 0.22514 0.6299 0.0
H298 H 0.08919 0.11657 0.55327 0.0
H299 H 0.13293 0.16829 0.54245 0.0
H300 H 0.07751 0.14921 0.53162 0.0
H301 H 0.12989 0.18246 0.6479 0.0
H302 H 0.12945 0.23319 0.65183 0.0
H303 H 0.1721 0.23166 0.6335 0.0
C304 C 0.88545 0.052 0.07132 0.0
C305 C 0.85699 0.04659 0.0915 0.0
C306 C 0.93035 0.08354 0.07257 0.0
C307 C 0.94714 0.11076 0.09437 0.0
C308 C 0.91796 0.10776 0.11389 0.0
C309 C 0.87325 0.07551 0.1123 0.0
C310 C 0.96027 0.08535 0.05141 0.0
C311 C 0.93443 0.13671 0.13724 0.0
C312 C 0.0628 0.14406 0.11568 0.0
C313 C 0.08709 0.18771 0.10728 0.0
C314 C 0.01749 0.11872 0.11125 0.0
C315 C 0.99555 0.13764 0.0984 0.0
C316 C 0.01984 0.18164 0.08966 0.0
C317 C 0.06554 0.20613 0.09402 0.0
C318 C 0.99308 0.07165 0.12045 0.0
C319 C 0.99747 0.20296 0.07608 0.0
H320 H 0.87318 0.03007 0.05504 0.0
H321 H 0.85142 0.07189 0.12785 0.0
H322 H 0.98308 0.11983 0.04567 0.0
H323 H 0.9806 0.07139 0.05829 0.0
H324 H 0.94156 0.06642 0.03436 0.0
H325 H 0.90708 0.13485 0.14878 0.0
H326 H 0.95352 0.12631 0.14935 0.0
H327 H 0.9568 0.17146 0.13177 0.0
H328 H 0.07932 0.12942 0.12568 0.0
H329 H 0.08419 0.23989 0.08755 0.0
H330 H 0.97572 0.04912 0.1043 0.0
H331 H 0.96782 0.06739 0.13459 0.0
H332 H 0.0153 0.06153 0.12941 0.0
H333 H 0.97992 0.18353 0.05895 0.0
H334 H 0.02108 0.2372 0.07015 0.0
H335 H 0.97246 0.20343 0.08875 0.0
C336 C 0.83975 0.88222 0.55946 0.0
C337 C 0.81517 0.85002 0.57771 0.0
C338 C 0.84706 0.92517 0.56183 0.0
C339 C 0.82888 0.93597 0.58276 0.0
C340 C 0.80013 0.90238 0.59962 0.0
C341 C 0.7938 0.8598 0.59698 0.0
C342 C 0.8779 0.95983 0.54337 0.0
C343 C 0.7792 0.91222 0.62183 0.0
C344 C 0.90001 0.04775 0.61305 0.0
C345 C 0.88111 0.07197 0.60383 0.0
C346 C 0.88344 0.00377 0.60607 0.0
C347 C 0.84638 0.98295 0.58976 0.0
C348 C 0.82688 0.00705 0.5804 0.0
C349 C 0.84479 0.05155 0.58737 0.0
C350 C 0.90588 0.97966 0.61612 0.0
C351 C 0.78704 0.98575 0.56324 0.0
H352 H 0.85599 0.87487 0.54429 0.0
H353 H 0.7741 0.83489 0.6109 0.0
H354 H 0.86562 0.98229 0.53801 0.0
H355 H 0.91047 0.97995 0.55262 0.0
H356 H 0.88253 0.94505 0.52577 0.0
H357 H 0.7517 0.88175 0.63011 0.0
H358 H 0.80425 0.92941 0.63693 0.0
H359 H 0.76664 0.93424 0.61596 0.0
H360 H 0.92841 0.0634 0.62554 0.0
H361 H 0.83005 0.07015 0.58021 0.0
H362 H 0.91667 0.96683 0.60004 0.0
H363 H 0.88246 0.95105 0.6277 0.0
H364 H 0.93503 1.00099 0.62811 0.0
H365 H 0.79452 0.97293 0.54579 0.0
H366 H 0.77578 0.00897 0.55757 0.0
H367 H 0.75968 0.95727 0.57308 0.0
C368 C 0.95498 0.81795 0.07697 0.0
C369 C 0.96126 0.79594 0.09743 0.0
C370 C 0.92324 0.83099 0.07808 0.0
C371 C 0.89659 0.8212 0.10003 0.0
C372 C 0.90055 0.79615 0.11992 0.0
C373 C 0.93307 0.78409 0.11848 0.0
C374 C 0.92051 0.85802 0.05655 0.0
C375 C 0.87219 0.78431 0.14342 0.0
C376 C 0.86178 0.90303 0.11988 0.0
C377 C 0.81806 0.88277 0.1114 0.0
C378 C 0.88761 0.8835 0.11597 0.0
C379 C 0.8691 0.84212 0.10367 0.0
C380 C 0.82495 0.8214 0.09498 0.0
C381 C 0.8 0.84223 0.09872 0.0
C382 C 0.93483 0.90729 0.12505 0.0
C383 C 0.804 0.77709 0.08203 0.0
H384 H 0.97639 0.82705 0.06052 0.0
H385 H 0.93736 0.7667 0.13425 0.0
H386 H 0.88583 0.84558 0.0509 0.0
H387 H 0.93414 0.89253 0.06302 0.0
H388 H 0.93924 0.85793 0.03954 0.0
H389 H 0.87485 0.75965 0.15536 0.0
H390 H 0.88241 0.81427 0.15507 0.0
H391 H 0.83721 0.77106 0.13808 0.0
H392 H 0.87614 0.93463 0.12942 0.0
H393 H 0.76618 0.82642 0.0922 0.0
H394 H 0.95721 0.91219 0.10893 0.0
H395 H 0.93974 0.88718 0.13954 0.0
H396 H 0.94458 0.93991 0.13354 0.0
H397 H 0.82302 0.7787 0.06482 0.0
H398 H 0.76941 0.76541 0.07633 0.0
H399 H 0.80461 0.75249 0.09501 0.0
C400 C 0.98819 0.88493 0.60595 0.0
C401 C 0.96424 0.84129 0.59744 0.0
C402 C 0.03289 0.91128 0.60022 0.0
C403 C 0.05422 0.89343 0.58574 0.0
C404 C 0.03028 0.84945 0.57701 0.0
C405 C 0.98544 0.82386 0.58292 0.0
C406 C 0.05729 0.95827 0.60966 0.0
C407 C 0.05206 0.8295 0.56148 0.0
C408 C 0.15913 0.98093 0.55534 0.0
C409 C 0.19049 0.9861 0.57366 0.0
C410 C 0.11483 0.94877 0.55815 0.0
C411 C 0.10164 0.9213 0.57985 0.0
C412 C 0.13356 0.92426 0.59747 0.0
C413 C 0.17772 0.95669 0.59415 0.0
C414 C 0.0818 0.94646 0.53885 0.0
C415 C 0.12072 0.89524 0.62075 0.0
H416 H 0.97197 0.89871 0.61703 0.0
H417 H 0.96707 0.79013 0.57628 0.0
H418 H 0.08515 0.96349 0.62203 0.0
H419 H 0.07132 0.98116 0.59331 0.0
H420 H 0.03579 0.9671 0.62062 0.0
H421 H 0.02875 0.79485 0.55604 0.0
H422 H 0.06632 0.84896 0.54389 0.0
H423 H 0.07956 0.83054 0.57248 0.0
H424 H 0.16864 0.00354 0.53945 0.0
H425 H 0.20183 0.96032 0.6083 0.0
H426 H 0.06232 0.96018 0.54736 0.0
H427 H 0.05847 0.91187 0.53346 0.0
H428 H 0.09792 0.96537 0.52132 0.0
H429 H 0.10275 0.90497 0.6342 0.0
H430 H 0.14978 0.8978 0.63077 0.0
H431 H 0.0983 0.86038 0.61546 0.0
C432 C 1.00003 0.7842 0.37702 0.0
C433 C 0.02842 0.82954 0.38026 0.0
C434 C 0.95422 0.7659 0.37851 0.0
C435 C 0.93665 0.79369 0.38328 0.0
C436 C 0.96516 0.83947 0.38645 0.0
C437 C 0.01064 0.85678 0.38493 0.0
C438 C 0.92467 0.71695 0.37508 0.0
C439 C 0.94766 0.87026 0.39151 0.0
C440 C 0.82118 0.76695 0.3667 0.0
C441 C 0.80212 0.75978 0.39097 0.0
C442 C 0.86419 0.7749 0.3636 0.0
C443 C 0.88849 0.77552 0.38528 0.0
C444 C 0.86815 0.76472 0.40948 0.0
C445 C 0.82518 0.75701 0.41201 0.0
C446 C 0.88469 0.78607 0.33744 0.0
C447 C 0.89285 0.76469 0.43305 0.0
H448 H 0.01356 0.76296 0.3734 0.0
H449 H 0.03229 0.89186 0.38742 0.0
H450 H 0.90458 0.70257 0.39245 0.0
H451 H 0.90152 0.71031 0.35906 0.0
H452 H 0.94352 0.69994 0.37122 0.0
H453 H 0.97432 0.90508 0.39329 0.0
H454 H 0.92534 0.8679 0.37585 0.0
H455 H 0.92821 0.86066 0.40937 0.0
H456 H 0.80348 0.76882 0.35026 0.0
H457 H 0.81055 0.75102 0.43073 0.0
H458 H 0.9029 0.76846 0.33361 0.0
H459 H 0.90869 0.82184 0.33647 0.0
H460 H 0.85975 0.77775 0.3222 0.0
H461 H 0.91074 0.74667 0.42951 0.0
H462 H 0.87064 0.74958 0.44961 0.0
H463 H 0.91765 0.79904 0.4381 0.0
C464 C 0.0601 0.84607 0.86597 0.0
C465 C 0.03376 0.83016 0.88778 0.0
C466 C 0.09286 0.89058 0.864 0.0
C467 C 0.09908 0.91996 0.88421 0.0
C468 C 0.07402 0.90361 0.90675 0.0
C469 C 0.0419 0.85893 0.90831 0.0
C470 C 0.1193 0.9066 0.83978 0.0
C471 C 0.07921 0.93377 0.92864 0.0
C472 C 0.1988 0.03602 0.88449 0.0
C473 C 0.18134 0.05993 0.87291 0.0
C474 C 0.17259 0.99029 0.88822 0.0
C475 C 0.12782 0.96832 0.8806 0.0
C476 C 0.10994 0.99262 0.86946 0.0
C477 C 0.13695 0.03792 0.86558 0.0
C478 C 0.19288 0.96539 0.89994 0.0
C479 C 0.06217 0.97076 0.86154 0.0
H480 H 0.05429 0.82406 0.85009 0.0
H481 H 0.0219 0.847 0.92533 0.0
H482 H 0.10934 0.92746 0.8291 0.0
H483 H 0.15484 0.92718 0.84423 0.0
H484 H 0.11445 0.87901 0.82725 0.0
H485 H 0.06082 0.9153 0.94582 0.0
H486 H 0.11439 0.95474 0.93378 0.0
H487 H 0.06683 0.95597 0.92283 0.0
H488 H 0.23312 0.05284 0.89009 0.0
H489 H 0.12308 0.05622 0.85685 0.0
H490 H 0.19039 0.93995 0.88642 0.0
H491 H 0.17462 0.94808 0.91736 0.0
H492 H 0.22802 0.98729 0.905 0.0
H493 H 0.05515 0.94534 0.84685 0.0
H494 H 0.05314 0.99455 0.85371 0.0
H495 H 0.04068 0.9539 0.87809 0.0
C496 C 0.11053 0.15188 0.3753 0.0
C497 C 0.12364 0.19252 0.38689 0.0
C498 C 0.12676 0.12498 0.38362 0.0
C499 C 0.15759 0.13928 0.40388 0.0
C500 C 0.17176 0.1807 0.41544 0.0
C501 C 0.15416 0.20673 0.40698 0.0
C502 C 0.11033 0.08084 0.37084 0.0
C503 C 0.20478 0.19725 0.43694 0.0
C504 C 0.15242 0.0384 0.43129 0.0
C505 C 0.1814 0.03393 0.41489 0.0
C506 C 0.14805 0.07589 0.43032 0.0
C507 C 0.17357 0.10958 0.4127 0.0
C508 C 0.20738 0.10801 0.39897 0.0
C509 C 0.21071 0.06991 0.40007 0.0
C510 C 0.11227 0.0767 0.44575 0.0
C511 C 0.23663 0.14424 0.38086 0.0
H512 H 0.08676 0.1405 0.35988 0.0
H513 H 0.16436 0.23814 0.41603 0.0
H514 H 0.13827 0.07913 0.36226 0.0
H515 H 0.09484 0.0541 0.38512 0.0
H516 H 0.08584 0.0745 0.35561 0.0
H517 H 0.22002 0.23336 0.43957 0.0
H518 H 0.18801 0.18105 0.45493 0.0
H519 H 0.23116 0.18925 0.43359 0.0
H520 H 0.1304 0.01114 0.44332 0.0
H521 H 0.2342 0.06718 0.38796 0.0
H522 H 0.08348 0.06786 0.43326 0.0
H523 H 0.12354 0.11004 0.45349 0.0
H524 H 0.10139 0.05295 0.4618 0.0
H525 H 0.2184 0.14062 0.36289 0.0
H526 H 0.26681 0.143 0.37616 0.0
H527 H 0.24627 0.17698 0.38904 0.0
C528 C 0.15962 0.23613 0.91212 0.0
C529 C 0.17094 0.22136 0.89012 0.0
C530 C 0.11753 0.23089 0.91496 0.0
C531 C 0.08588 0.20983 0.89546 0.0
C532 C 0.09784 0.19683 0.87268 0.0
C533 C 0.14029 0.20296 0.87024 0.0
C534 C 0.1065 0.24582 0.93942 0.0
C535 C 0.06508 0.17429 0.85139 0.0
C536 C 0.96419 0.14126 0.9094 0.0
C537 C 0.94815 0.16728 0.89899 0.0
C538 C 0.00935 0.1559 0.90973 0.0
C539 C 0.03923 0.19763 0.89947 0.0
C540 C 0.0236 0.22543 0.89073 0.0
C541 C 0.97816 0.20991 0.89058 0.0
C542 C 0.02479 0.12554 0.91961 0.0
C543 C 0.05463 0.27055 0.88024 0.0
H544 H 0.18327 0.25076 0.92745 0.0
H545 H 0.14875 0.1915 0.85316 0.0
H546 H 0.08414 0.25902 0.93597 0.0
H547 H 0.08958 0.21733 0.95247 0.0
H548 H 0.13658 0.27146 0.94918 0.0
H549 H 0.08036 0.16888 0.83429 0.0
H550 H 0.03828 0.14193 0.85808 0.0
H551 H 0.04987 0.19412 0.84579 0.0
H552 H 0.9413 0.10849 0.91625 0.0
H553 H 0.96613 0.23042 0.88271 0.0
H554 H 0.05169 0.14296 0.93367 0.0
H555 H 0.03814 0.1151 0.90362 0.0
H556 H 0.99787 0.09568 0.92875 0.0
H557 H 0.08286 0.28892 0.89337 0.0
H558 H 0.03809 0.29007 0.87714 0.0
H559 H 0.06806 0.2673 0.86177 0.0
C560 C 0.92791 0.1355 0.37184 0.0
C561 C 0.95555 0.14996 0.39328 0.0
C562 C 0.89364 0.09151 0.36969 0.0
C563 C 0.88715 0.06107 0.38928 0.0
C564 C 0.91368 0.07601 0.41146 0.0
C565 C 0.94724 0.12019 0.41325 0.0
C566 C 0.86563 0.07716 0.34592 0.0
C567 C 0.90833 0.04481 0.43273 0.0
C568 C 0.78365 0.94735 0.39133 0.0
C569 C 0.7981 0.92135 0.3791 0.0
C570 C 0.81192 0.99302 0.39444 0.0
C571 C 0.85587 0.01297 0.38555 0.0
C572 C 0.87062 0.98666 0.37346 0.0
C573 C 0.84154 0.94143 0.3702 0.0
C574 C 0.79475 0.01996 0.40713 0.0
C575 C 0.91737 0.00622 0.36414 0.0
H576 H 0.93381 0.15821 0.35638 0.0
H577 H 0.96815 0.13091 0.43001 0.0
H578 H 0.87335 0.05536 0.33445 0.0
H579 H 0.83027 0.05799 0.35097 0.0
H580 H 0.87121 0.10552 0.33392 0.0
H581 H 0.92867 0.06225 0.44967 0.0
H582 H 0.87343 0.0255 0.43867 0.0
H583 H 0.91818 0.0211 0.42588 0.0
H584 H 0.75007 0.93213 0.39813 0.0
H585 H 0.85314 0.92161 0.36089 0.0
H586 H 0.79875 0.0467 0.39421 0.0
H587 H 0.81409 0.03577 0.4246 0.0
H588 H 0.75951 0.9998 0.41239 0.0
H589 H 0.9245 0.03214 0.34982 0.0
H590 H 0.92382 0.9812 0.35539 0.0
H591 H 0.94064 0.022 0.38022 0.0
C592 C 0.89107 0.83228 0.86125 0.0
C593 C 0.87068 0.78972 0.87148 0.0
C594 C 0.8763 0.86159 0.86714 0.0
C595 C 0.83944 0.84783 0.88326 0.0
C596 C 0.81801 0.80456 0.89328 0.0
C597 C 0.83425 0.77612 0.88753 0.0
C598 C 0.90088 0.90772 0.85651 0.0
C599 C 0.77815 0.78848 0.91014 0.0
C600 C 0.83696 0.94354 0.91492 0.0
C601 C 0.81212 0.95237 0.89741 0.0
C602 C 0.84393 0.9079 0.91141 0.0
C603 C 0.82493 0.8798 0.89012 0.0
C604 C 0.79689 0.88642 0.87355 0.0
C605 C 0.79109 0.92285 0.87726 0.0
C606 C 0.87446 0.90247 0.92941 0.0
C607 C 0.77516 0.85661 0.85098 0.0
H608 H 0.91955 0.84324 0.84905 0.0
H609 H 0.81832 0.74322 0.89543 0.0
H610 H 0.8784 0.91427 0.84489 0.0
H611 H 0.91335 0.93198 0.87233 0.0
H612 H 0.92919 0.91332 0.84446 0.0
H613 H 0.76368 0.75319 0.91515 0.0
H614 H 0.78722 0.80803 0.92799 0.0
H615 H 0.75269 0.79317 0.90048 0.0
H616 H 0.85309 0.96589 0.93069 0.0
H617 H 0.7714 0.92908 0.86382 0.0
H618 H 0.90563 0.91136 0.91941 0.0
H619 H 0.85978 0.86776 0.93557 0.0
H620 H 0.88236 0.92362 0.94659 0.0
H621 H 0.80021 0.86318 0.83618 0.0
H622 H 0.74914 0.86174 0.84243 0.0
H623 H 0.76043 0.82162 0.85663 0.0
C624 C 0.19097 0.6472 0.07398 0.0
C625 C 0.16357 0.65539 0.08967 0.0
C626 C 0.19398 0.60911 0.07697 0.0
C627 C 0.16841 0.57799 0.09583 0.0
C628 C 0.13901 0.58497 0.11088 0.0
C629 C 0.13722 0.6238 0.10778 0.0
C630 C 0.22628 0.60335 0.06079 0.0
C631 C 0.11069 0.55224 0.13091 0.0
C632 C 0.1631 0.46707 0.09191 0.0
C633 C 0.19567 0.47286 0.10951 0.0
C634 C 0.15262 0.50038 0.08785 0.0
C635 C 0.1758 0.54059 0.1014 0.0
C636 C 0.20814 0.54621 0.11948 0.0
C637 C 0.21737 0.51222 0.12345 0.0
C638 C 0.11747 0.49296 0.06869 0.0
C639 C 0.23415 0.58878 0.13406 0.0
H640 H 0.21156 0.67145 0.05998 0.0
H641 H 0.11574 0.62976 0.11985 0.0
H642 H 0.2528 0.60497 0.07307 0.0
H643 H 0.20974 0.5706 0.05147 0.0
H644 H 0.24154 0.629 0.04584 0.0
H645 H 0.08602 0.55988 0.13891 0.0
H646 H 0.09326 0.51852 0.12281 0.0
H647 H 0.13175 0.55232 0.14671 0.0
H648 H 0.1461 0.43671 0.08112 0.0
H649 H 0.24274 0.51716 0.13702 0.0
H650 H 0.13249 0.51572 0.05238 0.0
H651 H 0.09308 0.50026 0.07741 0.0
H652 H 0.1 0.4587 0.06132 0.0
H653 H 0.25323 0.61613 0.12058 0.0
H654 H 0.25737 0.58745 0.14793 0.0
H655 H 0.2116 0.5967 0.14453 0.0
C656 C 0.68175 0.1709 0.58733 0.0
C657 C 0.70831 0.20013 0.60648 0.0
C658 C 0.64007 0.16542 0.58161 0.0
C659 C 0.62484 0.19016 0.59511 0.0
C660 C 0.65119 0.21903 0.61476 0.0
C661 C 0.69231 0.22343 0.62028 0.0
C662 C 0.61274 0.13389 0.56075 0.0
C663 C 0.6366 0.24645 0.62948 0.0
C664 C 0.54402 0.21894 0.56488 0.0
C665 C 0.5051 0.19174 0.57825 0.0
C666 C 0.58274 0.21767 0.56959 0.0
C667 C 0.58264 0.1881 0.58794 0.0
C668 C 0.54302 0.15926 0.60078 0.0
C669 C 0.50481 0.1616 0.5959 0.0
C670 C 0.62426 0.24932 0.55563 0.0
C671 C 0.54135 0.12689 0.62025 0.0
H672 H 0.69372 0.15266 0.57661 0.0
H673 H 0.71248 0.2462 0.63508 0.0
H674 H 0.57918 0.11078 0.56784 0.0
H675 H 0.60923 0.1524 0.54469 0.0
H676 H 0.62758 0.11459 0.55343 0.0
H677 H 0.66024 0.26625 0.64474 0.0
H678 H 0.63298 0.26914 0.61631 0.0
H679 H 0.604 0.22499 0.63826 0.0
H680 H 0.5447 0.24234 0.55119 0.0
H681 H 0.47487 0.14024 0.60622 0.0
H682 H 0.63887 0.23129 0.54633 0.0
H683 H 0.64888 0.27272 0.56941 0.0
H684 H 0.61833 0.26845 0.54089 0.0
H685 H 0.55553 0.10748 0.61225 0.0
H686 H 0.50728 0.10391 0.62673 0.0
H687 H 0.56151 0.14492 0.63708 0.0
C688 C 0.48903 0.69262 0.12262 0.0
C689 C 0.52988 0.71041 0.1104 0.0
C690 C 0.45536 0.64956 0.11759 0.0
C691 C 0.46281 0.6233 0.10011 0.0
C692 C 0.50436 0.64055 0.08821 0.0
C693 C 0.53737 0.68406 0.09338 0.0
C694 C 0.41136 0.63259 0.13048 0.0
C695 C 0.51359 0.61335 0.06964 0.0
C696 C 0.38074 0.50104 0.10475 0.0
C697 C 0.3504 0.49562 0.08567 0.0
C698 C 0.41873 0.54199 0.10887 0.0
C699 C 0.4263 0.57843 0.09372 0.0
C700 C 0.39672 0.57272 0.07376 0.0
C701 C 0.35927 0.53134 0.0699 0.0
C702 C 0.44974 0.5467 0.13016 0.0
C703 C 0.40341 0.61082 0.0573 0.0
H704 H 0.48282 0.71276 0.13571 0.0
H705 H 0.56887 0.69755 0.08388 0.0
H706 H 0.38543 0.62446 0.11593 0.0
H707 H 0.40244 0.60191 0.14103 0.0
H708 H 0.41123 0.65687 0.144 0.0
H709 H 0.54835 0.63062 0.0632 0.0
H710 H 0.50605 0.58169 0.07852 0.0
H711 H 0.49197 0.60544 0.05271 0.0
H712 H 0.37427 0.47355 0.11692 0.0
H713 H 0.33604 0.52751 0.05511 0.0
H714 H 0.44799 0.56744 0.14554 0.0
H715 H 0.48415 0.56342 0.12319 0.0
H716 H 0.44174 0.51443 0.13841 0.0
H717 H 0.39996 0.63515 0.0691 0.0
H718 H 0.37932 0.60025 0.04139 0.0
H719 H 0.43708 0.62783 0.04923 0.0
C720 C 0.80848 0.49764 0.59306 0.0
C721 C 0.84048 0.53863 0.60274 0.0
C722 C 0.81693 0.46284 0.59042 0.0
C723 C 0.85864 0.46911 0.59736 0.0
C724 C 0.89148 0.51063 0.60665 0.0
C725 C 0.88194 0.54485 0.60937 0.0
C726 C 0.7808 0.419 0.58065 0.0
C727 C 0.93648 0.51869 0.61397 0.0
C728 C 0.85847 0.36372 0.61352 0.0
C729 C 0.86989 0.35297 0.59009 0.0
C730 C 0.85647 0.4024 0.61647 0.0
C731 C 0.86687 0.43147 0.59561 0.0
C732 C 0.88095 0.42208 0.57236 0.0
C733 C 0.8819 0.38273 0.56981 0.0
C734 C 0.8407 0.41078 0.64146 0.0
C735 C 0.8931 0.45261 0.54982 0.0
H736 H 0.77629 0.49235 0.58791 0.0
H737 H 0.90692 0.57641 0.61678 0.0
H738 H 0.79202 0.40925 0.56339 0.0
H739 H 0.77274 0.39324 0.59524 0.0
H740 H 0.75032 0.41964 0.57585 0.0
H741 H 0.9591 0.55339 0.61962 0.0
H742 H 0.93365 0.49706 0.63011 0.0
H743 H 0.95127 0.5103 0.59781 0.0
H744 H 0.84895 0.34084 0.62929 0.0
H745 H 0.89107 0.37479 0.5517 0.0
H746 H 0.80819 0.40824 0.63865 0.0
H747 H 0.8637 0.44454 0.64838 0.0
H748 H 0.83738 0.38698 0.65643 0.0
H749 H 0.86316 0.4516 0.54216 0.0
H750 H 0.90848 0.44348 0.53429 0.0
H751 H 0.91618 0.48701 0.55572 0.0
C752 C 0.47847 0.81784 0.06933 0.0
C753 C 0.51442 0.84565 0.08482 0.0
C754 C 0.43727 0.81457 0.07257 0.0
C755 C 0.43192 0.84016 0.09155 0.0
C756 C 0.46872 0.87024 0.10621 0.0
C757 C 0.50947 0.87243 0.10279 0.0
C758 C 0.39886 0.78173 0.0567 0.0
C759 C 0.46455 0.89855 0.12639 0.0
C760 C 0.32492 0.84338 0.09053 0.0
C761 C 0.29982 0.81122 0.10869 0.0
C762 C 0.36847 0.85414 0.08517 0.0
C763 C 0.38698 0.83168 0.09795 0.0
C764 C 0.36184 0.7995 0.11642 0.0
C765 C 0.31885 0.78996 0.12168 0.0
C766 C 0.39445 0.88904 0.06559 0.0
C767 C 0.37996 0.77424 0.13024 0.0
H768 H 0.48188 0.797 0.05537 0.0
H769 H 0.53712 0.89424 0.11473 0.0
H770 H 0.3751 0.75462 0.06907 0.0
H771 H 0.38129 0.79743 0.04811 0.0
H772 H 0.40923 0.76734 0.04121 0.0
H773 H 0.49709 0.92407 0.13383 0.0
H774 H 0.44701 0.91494 0.11869 0.0
H775 H 0.44486 0.8776 0.14253 0.0
H776 H 0.31049 0.86 0.08045 0.0
H777 H 0.29972 0.76486 0.13563 0.0
H778 H 0.40209 0.87415 0.04917 0.0
H779 H 0.42627 0.91439 0.07385 0.0
H780 H 0.37639 0.90536 0.0585 0.0
H781 H 0.3882 0.7557 0.11631 0.0
H782 H 0.35635 0.75062 0.14429 0.0
H783 H 0.41076 0.79731 0.14038 0.0
C784 C 0.59171 0.53636 0.59912 0.0
C785 C 0.62596 0.5346 0.61181 0.0
C786 C 0.54987 0.49879 0.59703 0.0
C787 C 0.54234 0.45884 0.60799 0.0
C788 C 0.57579 0.4579 0.62257 0.0
C789 C 0.61723 0.49581 0.62428 0.0
C790 C 0.51486 0.50111 0.58156 0.0
C791 C 0.56889 0.41602 0.63484 0.0
C792 C 0.43121 0.35546 0.61428 0.0
C793 C 0.43352 0.32963 0.59461 0.0
C794 C 0.46524 0.39894 0.61802 0.0
C795 C 0.50208 0.41678 0.60162 0.0
C796 C 0.50284 0.39194 0.58057 0.0
C797 C 0.46856 0.34863 0.57735 0.0
C798 C 0.46316 0.42456 0.64054 0.0
C799 C 0.54133 0.40997 0.56245 0.0
H800 H 0.59817 0.56633 0.58954 0.0
H801 H 0.6434 0.49443 0.63443 0.0
H802 H 0.51141 0.48498 0.56284 0.0
H803 H 0.48252 0.48332 0.59123 0.0
H804 H 0.5231 0.53561 0.57812 0.0
H805 H 0.59645 0.42192 0.64772 0.0
H806 H 0.53789 0.40024 0.64592 0.0
H807 H 0.566 0.39246 0.61982 0.0
H808 H 0.40412 0.341 0.62764 0.0
H809 H 0.47023 0.32899 0.56192 0.0
H810 H 0.4739 0.45897 0.6351 0.0
H811 H 0.48586 0.42569 0.65563 0.0
H812 H 0.42952 0.40934 0.64867 0.0
H813 H 0.54945 0.44307 0.55565 0.0
H814 H 0.53476 0.38826 0.54565 0.0
H815 H 0.57071 0.41349 0.57255 0.0
C816 C 0.39885 0.92674 0.39118 0.0
C817 C 0.3594 0.88694 0.38767 0.0
C818 C 0.43948 0.92808 0.39083 0.0
C819 C 0.44036 0.88865 0.38706 0.0
C820 C 0.40063 0.84845 0.38351 0.0
C821 C 0.36073 0.84814 0.38374 0.0
C822 C 0.48135 0.97149 0.39444 0.0
C823 C 0.40017 0.80559 0.37952 0.0
C824 C 0.53531 0.87966 0.36106 0.0
C825 C 0.54925 0.86705 0.38287 0.0
C826 C 0.50227 0.89074 0.3625 0.0
C827 C 0.48251 0.88865 0.3863 0.0
C828 C 0.49888 0.87935 0.40868 0.0
C829 C 0.53234 0.86882 0.40671 0.0
C830 C 0.48611 0.90109 0.33825 0.0
C831 C 0.47855 0.87676 0.4344 0.0
H832 H 0.39801 0.95682 0.39423 0.0
H833 H 0.33042 0.81719 0.38109 0.0
H834 H 0.49965 0.9698 0.41124 0.0
H835 H 0.50297 0.97861 0.37763 0.0
H836 H 0.475 0.99918 0.39718 0.0
H837 H 0.36631 0.77711 0.37755 0.0
H838 H 0.41891 0.80758 0.36209 0.0
H839 H 0.41646 0.79933 0.3958 0.0
H840 H 0.54889 0.87905 0.34263 0.0
H841 H 0.54322 0.85929 0.42364 0.0
H842 H 0.48111 0.92957 0.34106 0.0
H843 H 0.45391 0.87246 0.33283 0.0
H844 H 0.50935 0.90841 0.32221 0.0
H845 H 0.47316 0.90498 0.43727 0.0
H846 H 0.49931 0.87619 0.45022 0.0
H847 H 0.44598 0.84629 0.43538 0.0
C848 C 0.69148 0.46496 0.86601 0.0
C849 C 0.70649 0.50383 0.88016 0.0
C850 C 0.64924 0.42878 0.86966 0.0
C851 C 0.62082 0.43151 0.88771 0.0
C852 C 0.63547 0.4708 0.90189 0.0
C853 C 0.67829 0.50643 0.89808 0.0
C854 C 0.63526 0.38736 0.85438 0.0
C855 C 0.60594 0.47509 0.92111 0.0
C856 C 0.50009 0.34607 0.87821 0.0
C857 C 0.4947 0.31323 0.89545 0.0
C858 C 0.54035 0.38575 0.87637 0.0
C859 C 0.57624 0.39259 0.89194 0.0
C860 C 0.57049 0.36021 0.90998 0.0
C861 C 0.52979 0.32108 0.9116 0.0
C862 C 0.54497 0.41964 0.85709 0.0
C863 C 0.60795 0.36595 0.92678 0.0
H864 H 0.71305 0.46244 0.85223 0.0
H865 H 0.68959 0.53637 0.90903 0.0
H866 H 0.62695 0.35942 0.8674 0.0
H867 H 0.60527 0.37899 0.84318 0.0
H868 H 0.66128 0.39059 0.84108 0.0
H869 H 0.62168 0.50826 0.92999 0.0
H870 H 0.57484 0.46854 0.91183 0.0
H871 H 0.59714 0.45024 0.93636 0.0
H872 H 0.4731 0.34046 0.86578 0.0
H873 H 0.52602 0.29599 0.92501 0.0
H874 H 0.56767 0.42192 0.84173 0.0
H875 H 0.55944 0.45255 0.86615 0.0
H876 H 0.51294 0.41145 0.84832 0.0
H877 H 0.63402 0.366 0.91485 0.0
H878 H 0.59726 0.33935 0.94115 0.0
H879 H 0.62285 0.39802 0.93684 0.0
C880 C 0.14277 0.67881 0.39455 0.0
C881 C 0.17504 0.70479 0.37667 0.0
C882 C 0.13189 0.63504 0.39899 0.0
C883 C 0.1545 0.61738 0.3856 0.0
C884 C 0.18568 0.64288 0.36677 0.0
C885 C 0.19519 0.68606 0.36235 0.0
C886 C 0.09766 0.60841 0.41875 0.0
C887 C 0.21099 0.62553 0.35229 0.0
C888 C 0.17649 0.53241 0.41561 0.0
C889 C 0.14995 0.49513 0.40077 0.0
C890 C 0.17672 0.57195 0.41165 0.0
C891 C 0.14904 0.574 0.39272 0.0
C892 C 0.12003 0.53568 0.37884 0.0
C893 C 0.12118 0.49674 0.38282 0.0
C894 C 0.20867 0.61222 0.4266 0.0
C895 C 0.08933 0.53635 0.35894 0.0
H896 H 0.12681 0.69298 0.40553 0.0
H897 H 0.22012 0.70582 0.34846 0.0
H898 H 0.07439 0.57509 0.4113 0.0
H899 H 0.1139 0.60424 0.4358 0.0
H900 H 0.07876 0.62446 0.42476 0.0
H901 H 0.23248 0.64873 0.33737 0.0
H902 H 0.23187 0.61955 0.36571 0.0
H903 H 0.18804 0.59367 0.3431 0.0
H904 H 0.19886 0.53144 0.42949 0.0
H905 H 0.10028 0.46786 0.37147 0.0
H906 H 0.19137 0.62798 0.43546 0.0
H907 H 0.23387 0.63664 0.41355 0.0
H908 H 0.22568 0.60441 0.44183 0.0
H909 H 0.07208 0.55321 0.36638 0.0
H910 H 0.06444 0.5027 0.35265 0.0
H911 H 0.10854 0.55505 0.34206 0.0
C912 C 0.6437 0.15815 0.87927 0.0
C913 C 0.64313 0.118 0.88083 0.0
C914 C 0.60468 0.1595 0.877 0.0
C915 C 0.56391 0.1197 0.87604 0.0
C916 C 0.56294 0.07899 0.87761 0.0
C917 C 0.60263 0.07861 0.88009 0.0
C918 C 0.60718 0.20366 0.87554 0.0
C919 C 0.52007 0.03594 0.87646 0.0
C920 C 0.46651 0.13453 0.8909 0.0
C921 C 0.45464 0.141 0.86645 0.0
C922 C 0.5005 0.12496 0.89432 0.0
C923 C 0.5227 0.12135 0.87277 0.0
C924 C 0.50868 0.12476 0.84801 0.0
C925 C 0.47499 0.13479 0.84516 0.0
C926 C 0.51463 0.12177 0.92104 0.0
C927 C 0.53112 0.12061 0.82453 0.0
H928 H 0.67477 0.1888 0.87997 0.0
H929 H 0.60191 0.04747 0.88129 0.0
H930 H 0.59334 0.20667 0.85714 0.0
H931 H 0.58718 0.20655 0.89094 0.0
H932 H 0.64142 0.23154 0.87725 0.0
H933 H 0.52486 0.00712 0.8783 0.0
H934 H 0.49791 0.03459 0.8919 0.0
H935 H 0.50318 0.03335 0.85812 0.0
H936 H 0.45095 0.13933 0.90744 0.0
H937 H 0.46563 0.13929 0.8262 0.0
H938 H 0.547 0.15123 0.92518 0.0
H939 H 0.5187 0.09257 0.92294 0.0
H940 H 0.4907 0.11973 0.93555 0.0
H941 H 0.56462 0.1497 0.82308 0.0
H942 H 0.51276 0.11841 0.80682 0.0
H943 H 0.53477 0.09109 0.82581 0.0
C944 C 0.325 0.49029 0.39588 0.0
C945 C 0.29585 0.49394 0.3791 0.0
C946 C 0.36779 0.52602 0.40002 0.0
C947 C 0.38146 0.56657 0.38745 0.0
C948 C 0.35227 0.57015 0.37031 0.0
C949 C 0.31015 0.53384 0.36621 0.0
C950 C 0.3981 0.52065 0.41818 0.0
C951 C 0.36501 0.61285 0.35681 0.0
C952 C 0.46877 0.67447 0.41683 0.0
C953 C 0.50521 0.68619 0.40103 0.0
C954 C 0.42886 0.63511 0.41307 0.0
C955 C 0.42514 0.6062 0.39317 0.0
C956 C 0.46224 0.61702 0.37769 0.0
C957 C 0.50173 0.657 0.38168 0.0
C958 C 0.3901 0.62531 0.42984 0.0
C959 C 0.45985 0.58691 0.35646 0.0
H960 H 0.31433 0.4596 0.40586 0.0
H961 H 0.28792 0.53723 0.35332 0.0
H962 H 0.43002 0.53068 0.4088 0.0
H963 H 0.40502 0.54243 0.43493 0.0
H964 H 0.38385 0.48625 0.42497 0.0
H965 H 0.33898 0.60993 0.34357 0.0
H966 H 0.37157 0.63885 0.37103 0.0
H967 H 0.39573 0.6239 0.34584 0.0
H968 H 0.47096 0.69669 0.43183 0.0
H969 H 0.5297 0.66559 0.36945 0.0
H970 H 0.37662 0.59234 0.43861 0.0
H971 H 0.36352 0.62479 0.41813 0.0
H972 H 0.39892 0.65002 0.44526 0.0
H973 H 0.44667 0.55296 0.36374 0.0
H974 H 0.49247 0.59796 0.34766 0.0
H975 H 0.43696 0.58561 0.34145 0.0
C976 C 0.89303 0.50646 0.91194 0.0
C977 C 0.87383 0.51928 0.89285 0.0
C978 C 0.89526 0.46779 0.90949 0.0
C979 C 0.87671 0.44068 0.88776 0.0
C980 C 0.85893 0.45449 0.86795 0.0
C981 C 0.8582 0.49391 0.87061 0.0
C982 C 0.9155 0.45488 0.93074 0.0
C983 C 0.83799 0.42621 0.84471 0.0
C984 C 0.89507 0.34465 0.87315 0.0
C985 C 0.85721 0.30922 0.8837 0.0
C986 C 0.90266 0.38792 0.87493 0.0
C987 C 0.87121 0.39575 0.88705 0.0
C988 C 0.83327 0.36016 0.89799 0.0
C989 C 0.82699 0.31755 0.8964 0.0
C990 C 0.94395 0.42514 0.86352 0.0
C991 C 0.79854 0.36684 0.91077 0.0
H992 H 0.90547 0.52619 0.92908 0.0
H993 H 0.84301 0.5035 0.85588 0.0
H994 H 0.88926 0.42655 0.94129 0.0
H995 H 0.93812 0.44437 0.92292 0.0
H996 H 0.93396 0.48224 0.94444 0.0
H997 H 0.82899 0.44323 0.83011 0.0
H998 H 0.86053 0.41643 0.83597 0.0
H999 H 0.80776 0.3956 0.85041 0.0
H1000 H 0.91865 0.33854 0.86338 0.0
H1001 H 0.79748 0.29047 0.9045 0.0
H1002 H 0.96157 0.45142 0.87792 0.0
H1003 H 0.93528 0.43992 0.84748 0.0
H1004 H 0.96658 0.41411 0.85637 0.0
H1005 H 0.81325 0.39051 0.92676 0.0
H1006 H 0.77091 0.33569 0.91831 0.0
H1007 H 0.78508 0.38106 0.897 0.0
C1008 C 0.11625 0.30249 0.28906 0.0
C1009 C 0.14475 0.33068 0.30792 0.0
C1010 C 0.13052 0.30489 0.26394 0.0
C1011 C 0.17448 0.33596 0.25761 0.0
C1012 C 0.20325 0.36508 0.27639 0.0
C1013 C 0.18797 0.36222 0.30137 0.0
C1014 C 0.09876 0.27361 0.24429 0.0
C1015 C 0.25042 0.39844 0.27027 0.0
C1016 C 0.21724 0.30514 0.19978 0.0
C1017 C 0.21208 0.33007 0.18068 0.0
C1018 C 0.20682 0.30817 0.22516 0.0
C1019 C 0.19049 0.33649 0.23148 0.0
C1020 C 0.18652 0.36278 0.21247 0.0
C1021 C 0.19753 0.35937 0.18726 0.0
C1022 C 0.2119 0.27998 0.24505 0.0
C1023 C 0.16895 0.39315 0.21854 0.0
H1024 H 0.08271 0.27826 0.29392 0.0
H1025 H 0.21021 0.38408 0.31586 0.0
H1026 H 0.09688 0.29225 0.22776 0.0
H1027 H 0.11067 0.25173 0.23709 0.0
H1028 H 0.06513 0.25284 0.25207 0.0
H1029 H 0.26789 0.42013 0.28674 0.0
H1030 H 0.26825 0.38124 0.26446 0.0
H1031 H 0.2518 0.41921 0.25399 0.0
H1032 H 0.22883 0.28272 0.19488 0.0
H1033 H 0.19344 0.37875 0.1726 0.0
H1034 H 0.17907 0.25531 0.2524 0.0
H1035 H 0.23137 0.30048 0.26144 0.0
H1036 H 0.22825 0.26233 0.23738 0.0
H1037 H 0.13396 0.37345 0.22431 0.0
H1038 H 0.17122 0.41392 0.20201 0.0
H1039 H 0.18724 0.41491 0.23479 0.0
C1040 C 0.89981 0.20916 0.69924 0.0
C1041 C 0.86567 0.19673 0.68152 0.0
C1042 C 0.89094 0.20166 0.72531 0.0
C1043 C 0.84684 0.18063 0.73378 0.0
C1044 C 0.81229 0.16914 0.71611 0.0
C1045 C 0.82216 0.17759 0.69015 0.0
C1046 C 0.92866 0.21485 0.74369 0.0
C1047 C 0.76483 0.14619 0.72447 0.0
C1048 C 0.82426 0.11354 0.79378 0.0
C1049 C 0.82164 0.1411 0.81218 0.0
C1050 C 0.83148 0.12574 0.76814 0.0
C1051 C 0.83674 0.16677 0.76072 0.0
C1052 C 0.83372 0.19466 0.77908 0.0
C1053 C 0.82587 0.18132 0.80465 0.0
C1054 C 0.83402 0.09488 0.74904 0.0
C1055 C 0.83966 0.23886 0.77178 0.0
H1056 H 0.93357 0.22453 0.69274 0.0
H1057 H 0.79563 0.168 0.67654 0.0
H1058 H 0.9263 0.23416 0.75972 0.0
H1059 H 0.927 0.18499 0.75192 0.0
H1060 H 0.96116 0.23468 0.73437 0.0
H1061 H 0.74222 0.14285 0.7087 0.0
H1062 H 0.75521 0.11286 0.73162 0.0
H1063 H 0.7604 0.16441 0.74037 0.0
H1064 H 0.82059 0.08219 0.7994 0.0
H1065 H 0.82384 0.20273 0.81878 0.0
H1066 H 0.86721 0.11072 0.74033 0.0
H1067 H 0.80998 0.08755 0.73342 0.0
H1068 H 0.82732 0.06335 0.7578 0.0
H1069 H 0.87308 0.25995 0.76387 0.0
H1070 H 0.83521 0.25614 0.78824 0.0
H1071 H 0.81581 0.23482 0.75667 0.0
C1072 C 0.71246 0.89957 0.1998 0.0
C1073 C 0.67696 0.87523 0.18327 0.0
C1074 C 0.70946 0.88924 0.22576 0.0
C1075 C 0.66983 0.85409 0.23543 0.0
C1076 C 0.63353 0.83005 0.21898 0.0
C1077 C 0.63762 0.84073 0.19304 0.0
C1078 C 0.749 0.91527 0.24273 0.0
C1079 C 0.59056 0.79274 0.22874 0.0
C1080 C 0.67538 0.79873 0.29608 0.0
C1081 C 0.66263 0.81915 0.31443 0.0
C1082 C 0.67791 0.80987 0.27027 0.0
C1083 C 0.66681 0.84172 0.26264 0.0
C1084 C 0.6534 0.86207 0.281 0.0
C1085 C 0.65186 0.85082 0.30673 0.0
C1086 C 0.69289 0.7879 0.25121 0.0
C1087 C 0.6408 0.89578 0.27347 0.0
H1088 H 0.74304 0.92611 0.19234 0.0
H1089 H 0.60997 0.82196 0.18039 0.0
H1090 H 0.74026 0.92988 0.25883 0.0
H1091 H 0.75974 0.89312 0.25101 0.0
H1092 H 0.77713 0.9421 0.2323 0.0
H1093 H 0.5649 0.7786 0.21366 0.0
H1094 H 0.59573 0.76622 0.23635 0.0
H1095 H 0.57821 0.80436 0.24465 0.0
H1096 H 0.68401 0.77442 0.30191 0.0
H1097 H 0.64208 0.86682 0.3208 0.0
H1098 H 0.72271 0.81308 0.24119 0.0
H1099 H 0.66704 0.77043 0.23657 0.0
H1100 H 0.70051 0.76394 0.26029 0.0
H1101 H 0.66935 0.92462 0.26467 0.0
H1102 H 0.6295 0.9073 0.28998 0.0
H1103 H 0.61416 0.8817 0.259 0.0
C1104 C 0.82453 0.70949 0.69256 0.0
C1105 C 0.81286 0.67611 0.6744 0.0
C1106 C 0.82931 0.70236 0.71831 0.0
C1107 C 0.82257 0.66091 0.72611 0.0
C1108 C 0.80967 0.62665 0.70803 0.0
C1109 C 0.8048 0.63461 0.68234 0.0
C1110 C 0.84278 0.73966 0.73704 0.0
C1111 C 0.8024 0.58209 0.71569 0.0
C1112 C 0.88497 0.6662 0.78606 0.0
C1113 C 0.85246 0.65387 0.8048 0.0
C1114 C 0.87514 0.66667 0.76024 0.0
C1115 C 0.83178 0.65476 0.75294 0.0
C1116 C 0.79842 0.64078 0.77161 0.0
C1117 C 0.80914 0.64039 0.79735 0.0
C1118 C 0.91157 0.68153 0.74085 0.0
C1119 C 0.75184 0.62796 0.76452 0.0
H1120 H 0.83044 0.74154 0.68664 0.0
H1121 H 0.79581 0.60868 0.66839 0.0
H1122 H 0.81929 0.72892 0.75317 0.0
H1123 H 0.87564 0.74936 0.74507 0.0
H1124 H 0.84426 0.76904 0.72814 0.0
H1125 H 0.78956 0.55811 0.69971 0.0
H1126 H 0.83388 0.58532 0.72234 0.0
H1127 H 0.77893 0.56875 0.7318 0.0
H1128 H 0.91844 0.67623 0.79159 0.0
H1129 H 0.78376 0.63059 0.81168 0.0
H1130 H 0.91817 0.71313 0.73231 0.0
H1131 H 0.90153 0.65716 0.72517 0.0
H1132 H 0.94259 0.6862 0.74937 0.0
H1133 H 0.75097 0.65729 0.75751 0.0
H1134 H 0.72898 0.614 0.78091 0.0
H1135 H 0.73978 0.60346 0.74884 0.0
C1136 C 0.11564 0.7966 0.20473 0.0
C1137 C 0.14609 0.80269 0.18568 0.0
C1138 C 0.12907 0.80899 0.22997 0.0
C1139 C 0.17417 0.82838 0.23633 0.0
C1140 C 0.20499 0.83343 0.21741 0.0
C1141 C 0.19055 0.82033 0.19226 0.0
C1142 C 0.09506 0.80255 0.24969 0.0
C1143 C 0.25335 0.85415 0.2235 0.0
C1144 C 0.20199 0.90143 0.2943 0.0
C1145 C 0.19958 0.87304 0.31376 0.0
C1146 C 0.197 0.88839 0.2687 0.0
C1147 C 0.18879 0.84571 0.26251 0.0
C1148 C 0.18905 0.81794 0.28194 0.0
C1149 C 0.19462 0.83206 0.30739 0.0
C1150 C 0.19763 0.91925 0.24848 0.0
C1151 C 0.18025 0.77214 0.27613 0.0
H1152 H 0.08118 0.78259 0.19987 0.0
H1153 H 0.2143 0.82518 0.17764 0.0
H1154 H 0.09722 0.78412 0.26625 0.0
H1155 H 0.10148 0.83499 0.25679 0.0
H1156 H 0.06103 0.78445 0.24197 0.0
H1157 H 0.27242 0.85201 0.20725 0.0
H1158 H 0.2668 0.88932 0.22842 0.0
H1159 H 0.25837 0.83805 0.24032 0.0
H1160 H 0.20627 0.93335 0.29913 0.0
H1161 H 0.19229 0.80987 0.32237 0.0
H1162 H 0.16386 0.90663 0.24097 0.0
H1163 H 0.21867 0.92102 0.23227 0.0
H1164 H 0.20986 0.953 0.25599 0.0
H1165 H 0.14502 0.7508 0.27115 0.0
H1166 H 0.18794 0.75733 0.29262 0.0
H1167 H 0.19982 0.77242 0.2595 0.0
C1168 C 0.3629 0.18316 0.78768 0.0
C1169 C 0.32674 0.18522 0.79728 0.0
C1170 C 0.36688 0.1777 0.76156 0.0
C1171 C 0.33383 0.17412 0.74467 0.0
C1172 C 0.29729 0.17624 0.75417 0.0
C1173 C 0.29422 0.18185 0.78037 0.0
C1174 C 0.4064 0.17572 0.75205 0.0
C1175 C 0.26131 0.17231 0.73667 0.0
C1176 C 0.36052 0.19813 0.67457 0.0
C1177 C 0.34246 0.15562 0.66441 0.0
C1178 C 0.35836 0.20467 0.70074 0.0
C1179 C 0.33728 0.16779 0.71704 0.0
C1180 C 0.31905 0.12481 0.70692 0.0
C1181 C 0.32204 0.11924 0.68071 0.0
C1182 C 0.37849 0.251 0.71095 0.0
C1183 C 0.29601 0.08472 0.72375 0.0
H1184 H 0.38829 0.18599 0.80053 0.0
H1185 H 0.26607 0.18325 0.7876 0.0
H1186 H 0.39559 0.14391 0.74226 0.0
H1187 H 0.42456 0.20215 0.73789 0.0
H1188 H 0.42933 0.17933 0.76769 0.0
H1189 H 0.23512 0.17471 0.7471 0.0
H1190 H 0.27535 0.19859 0.72205 0.0
H1191 H 0.24616 0.14036 0.72645 0.0
H1192 H 0.37652 0.2264 0.66208 0.0
H1193 H 0.30781 0.08628 0.67296 0.0
H1194 H 0.40345 0.2567 0.72571 0.0
H1195 H 0.3528 0.25576 0.7202 0.0
H1196 H 0.39439 0.27612 0.69577 0.0
H1197 H 0.31877 0.08595 0.73883 0.0
H1198 H 0.28377 0.05358 0.71288 0.0
H1199 H 0.26774 0.08427 0.73341 0.0
C1200 C 0.29085 0.19912 0.953 0.0
C1201 C 0.31662 0.23171 0.9353 0.0
C1202 C 0.27696 0.2101 0.97553 0.0
C1203 C 0.29022 0.25471 0.98048 0.0
C1204 C 0.31733 0.2877 0.96291 0.0
C1205 C 0.32978 0.27569 0.94039 0.0
C1206 C 0.24722 0.17407 -0.00634 0.0
C1207 C 0.33304 0.33573 0.9678 0.0
C1208 C 0.23196 0.29171 0.02643 0.0
C1209 C 0.25959 0.30328 0.04775 0.0
C1210 C 0.24007 0.2734 0.00477 0.0
C1211 C 0.27719 0.26761 0.00435 0.0
C1212 C 0.30457 0.27841 0.02604 0.0
C1213 C 0.2953 0.29589 0.04749 0.0
C1214 C 0.2098 0.26171 0.98208 0.0
C1215 C 0.34478 0.27328 0.02622 0.0
H1216 H 0.28011 0.165 0.94874 0.0
H1217 H 0.34971 0.30077 0.92659 0.0
H1218 H 0.26239 0.18031 0.01287 0.0
H1219 H 0.21565 0.17381 -0.00435 0.0
H1220 H 0.24015 0.14108 0.98711 0.0
H1221 H 0.35507 0.35733 0.95251 0.0
H1222 H 0.30447 0.34089 0.96926 0.0
H1223 H 0.35103 0.34608 0.9862 0.0
H1224 H 0.20405 0.29692 0.02667 0.0
H1225 H 0.31678 0.30471 0.06396 0.0
H1226 H 0.20268 0.22978 0.97372 0.0
H1227 H 0.22605 0.28723 0.9672 0.0
H1228 H 0.17821 0.2598 0.98716 0.0
H1229 H 0.33579 0.2393 0.02073 0.0
H1230 H 0.3611 0.28069 0.04517 0.0
H1231 H 0.36883 0.2958 0.01198 0.0
C1232 C 0.0189 0.28892 0.43411 0.0
C1233 C 0.06397 0.30349 0.43637 0.0
C1234 C 0.99053 0.27029 0.45475 0.0
C1235 C 0.00756 0.26586 0.47823 0.0
C1236 C 0.0523 0.27734 0.48017 0.0
C1237 C 0.08028 0.2966 0.4592 0.0
C1238 C 0.94308 0.25862 0.45191 0.0
C1239 C 0.07108 0.27158 0.50479 0.0
C1240 C 0.95773 0.28432 0.53717 0.0
C1241 C 0.92875 0.24133 0.54498 0.0
C1242 C 0.98317 0.29251 0.51529 0.0
C1243 C 0.98055 0.25668 0.50145 0.0
C1244 C 0.95111 0.21296 0.50924 0.0
C1245 C 0.92483 0.20575 0.53085 0.0
C1246 C 0.013 0.33959 0.5071 0.0
C1247 C 0.9486 0.17411 0.49538 0.0
H1248 H 0.00591 0.29376 0.41643 0.0
H1249 H 0.11492 0.30714 0.46088 0.0
H1250 H 0.92072 0.22547 0.45976 0.0
H1251 H 0.93757 0.28247 0.46285 0.0
H1252 H 0.93393 0.25927 0.43171 0.0
H1253 H 0.10393 0.27486 0.50201 0.0
H1254 H 0.07448 0.29689 0.5187 0.0
H1255 H 0.04865 0.23892 0.51326 0.0
H1256 H 0.96058 0.31163 0.54835 0.0
H1257 H 0.90297 0.17252 0.53745 0.0
H1258 H 0.0052 0.34419 0.48724 0.0
H1259 H 0.04775 0.34744 0.50748 0.0
H1260 H 0.00985 0.36345 0.51955 0.0
H1261 H 0.94449 0.17649 0.47459 0.0
H1262 H 0.92115 0.14234 0.50237 0.0
H1263 H 0.97989 0.17405 0.49817 0.0
C1264 C 0.7317 0.92822 0.0316 0.0
C1265 C 0.69727 0.92904 0.04445 0.0
C1266 C 0.75063 0.9546 0.01 0.0
C1267 C 0.7332 0.98061 0.00076 0.0
C1268 C 0.69645 0.97903 0.01288 0.0
C1269 C 0.67958 0.95396 0.03495 0.0
C1270 C 0.79076 0.95668 -0.00183 0.0
C1271 C 0.67565 0.00477 0.00297 0.0
C1272 C 0.79157 0.08486 0.96209 0.0
C1273 C 0.77358 0.06913 0.93795 0.0
C1274 C 0.78213 0.05559 0.98245 0.0
C1275 C 0.75295 0.01003 0.97857 0.0
C1276 C 0.73701 0.99391 0.95387 0.0
C1277 C 0.74771 0.02369 0.93384 0.0
C1278 C 0.80122 0.0736 0.00842 0.0
C1279 C 0.70566 0.94566 0.94894 0.0
H1280 H 0.74565 0.90929 0.0394 0.0
H1281 H 0.65289 0.95433 0.0451 0.0
H1282 H 0.78862 0.95576 0.97707 0.0
H1283 H 0.82026 0.98824 0.00358 0.0
H1284 H 0.79559 0.92935 0.00475 0.0
H1285 H 0.64512 0.99697 0.01341 0.0
H1286 H 0.69917 0.04052 0.00487 0.0
H1287 H 0.66758 0.99769 0.98244 0.0
H1288 H 0.81199 0.11997 0.96518 0.0
H1289 H 0.73364 0.0114 0.91516 0.0
H1290 H 0.8132 0.05307 0.01755 0.0
H1291 H 0.77529 0.07273 0.02085 0.0
H1292 H 0.82879 0.10809 0.0074 0.0
H1293 H 0.71761 0.92516 0.95808 0.0
H1294 H 0.70106 0.93788 0.92825 0.0
H1295 H 0.67317 0.93623 0.95737 0.0
C1296 C 0.73775 0.71148 0.55869 0.0
C1297 C 0.76131 0.6917 0.54993 0.0
C1298 C 0.72143 0.73052 0.54158 0.0
C1299 C 0.7293 0.72982 0.51522 0.0
C1300 C 0.75464 0.71125 0.50649 0.0
C1301 C 0.76979 0.69169 0.52398 0.0
C1302 C 0.69424 0.74953 0.55162 0.0
C1303 C 0.76483 0.71112 0.47861 0.0
C1304 C 0.6516 0.72465 0.46386 0.0
C1305 C 0.67408 0.76747 0.45426 0.0
C1306 C 0.66756 0.71292 0.48511 0.0
C1307 C 0.7078 0.7445 0.49638 0.0
C1308 C 0.72942 0.78852 0.48758 0.0
C1309 C 0.71191 0.79965 0.46669 0.0
C1310 C 0.64281 0.66598 0.49441 0.0
C1311 C 0.77276 0.82291 0.49881 0.0
H1312 H 0.73092 0.7108 0.57887 0.0
H1313 H 0.78809 0.67626 0.51741 0.0
H1314 H 0.70609 0.78289 0.54377 0.0
H1315 H 0.65959 0.72859 0.54537 0.0
H1316 H 0.69504 0.75158 0.57275 0.0
H1317 H 0.78946 0.70064 0.4753 0.0
H1318 H 0.7343 0.68846 0.46809 0.0
H1319 H 0.7775 0.74448 0.47055 0.0
H1320 H 0.62234 0.6999 0.45412 0.0
H1321 H 0.72958 0.83263 0.4589 0.0
H1322 H 0.6397 0.66509 0.51547 0.0
H1323 H 0.66127 0.64908 0.48932 0.0
H1324 H 0.60939 0.64728 0.48592 0.0
H1325 H 0.77192 0.82143 0.51991 0.0
H1326 H 0.78162 0.85666 0.49279 0.0
H1327 H 0.7991 0.81644 0.49245 0.0
C1328 C 0.92068 0.70353 0.96029 0.0
C1329 C 0.92482 0.67474 0.9436 0.0
C1330 C 0.94664 0.71864 0.98246 0.0
C1331 C 0.97641 0.70366 0.98809 0.0
C1332 C 0.97912 0.67309 0.97172 0.0
C1333 C 0.95369 0.65947 0.9495 0.0
C1334 C 0.94345 0.75177 -0.00069 0.0
C1335 C 0.00948 0.65533 0.97741 0.0
C1336 C 0.0762 0.76581 0.03101 0.0
C1337 C 0.06108 0.74194 0.0537 0.0
C1338 C 0.04826 0.75503 0.00974 0.0
C1339 C 0.00459 0.71919 0.0112 0.0
C1340 C 0.98903 0.69558 0.0342 0.0
C1341 C 0.01737 0.70732 0.05515 0.0
C1342 C 0.06565 0.78135 0.98555 0.0
C1343 C 0.94289 0.65688 0.03644 0.0
H1344 H 0.89889 0.7159 0.95535 0.0
H1345 H 0.95679 0.63723 0.93645 0.0
H1346 H 0.93671 0.73994 0.01928 0.0
H1347 H 0.97534 0.78309 -0.0007 0.0
H1348 H 0.91729 0.75857 -0.00709 0.0
H1349 H 0.0062 0.63032 0.96326 0.0
H1350 H 0.04411 0.6826 0.97746 0.0
H1351 H 1.00246 0.6402 -0.00338 0.0
H1352 H 0.10975 0.79288 0.02988 0.0
H1353 H 0.00535 0.68871 0.07265 0.0
H1354 H 0.04296 0.79253 0.97873 0.0
H1355 H 0.06749 0.76032 0.97039 0.0
H1356 H 0.09889 0.81054 0.9882 0.0
H1357 H 0.91853 0.66651 0.03063 0.0
H1358 H 0.93512 0.64358 0.05612 0.0
H1359 H 0.93886 0.63022 0.0234 0.0
C1360 C 0.25633 0.97387 0.42521 0.0
C1361 C 0.22655 0.93361 0.43635 0.0
C1362 C 0.27647 0.01261 0.43973 0.0
C1363 C 0.26697 0.01055 0.46603 0.0
C1364 C 0.23551 0.96999 0.47707 0.0
C1365 C 0.21596 0.93178 0.46208 0.0
C1366 C 0.30963 0.05505 0.42721 0.0
C1367 C 0.22418 0.96652 0.50502 0.0
C1368 C 0.35149 0.08103 0.51502 0.0
C1369 C 0.3356 0.10845 0.52303 0.0
C1370 C 0.33148 0.05142 0.49492 0.0
C1371 C 0.29412 0.04868 0.48288 0.0
C1372 C 0.28014 0.07887 0.48949 0.0
C1373 C 0.3016 0.10904 0.50938 0.0
C1374 C 0.34811 0.02054 0.48808 0.0
C1375 C 0.24071 0.07714 0.47684 0.0
H1376 H 0.26471 0.9748 0.40526 0.0
H1377 H 0.19303 0.90037 0.47055 0.0
H1378 H 0.30482 0.08256 0.43333 0.0
H1379 H 0.34325 0.06328 0.43309 0.0
H1380 H 0.30755 0.05267 0.40609 0.0
H1381 H 0.19459 0.93459 0.50976 0.0
H1382 H 0.25225 0.96988 0.5165 0.0
H1383 H 0.21829 0.99351 0.51069 0.0
H1384 H 0.37811 0.08098 0.5255 0.0
H1385 H 0.28928 0.13025 0.51568 0.0
H1386 H 0.35137 0.01921 0.46714 0.0
H1387 H 0.32414 0.98682 0.49459 0.0
H1388 H 0.38045 0.03048 0.49704 0.0
H1389 H 0.24631 0.08201 0.45604 0.0
H1390 H 0.23375 0.1026 0.48435 0.0
H1391 H 0.21119 0.0443 0.47972 0.0
loop_
_geom_bond_atom_site_label_1
_geom_bond_atom_site_label_2
_geom_bond_distance
_geom_bond_site_symmetry_2
_ccdc_geom_bond_type
Zn0 O6 1.969 . S
Zn0 O7 1.965 . S
Zn0 O11 2.024 . S
Zn0 O16 1.969 . S
Zn1 O8 1.969 . S
Zn1 O14 1.969 . S
Zn1 O15 1.965 . S
Zn1 O17 2.024 . S
C2 O3 1.229 . S
C2 O11 1.058 . S
O3 C2 1.229 . S
C4 O5 1.229 . S
C4 O17 1.058 . S
O5 C4 1.229 . S
O6 Zn0 1.969 . S
O6 C9 1.267 . S
O7 Zn0 1.965 . S
O7 C18 1.260 . S
O8 Zn1 1.969 . S
O8 C18 1.258 . S
C9 O6 1.267 . S
C9 O10 1.228 . S
O10 C9 1.228 . S
O11 Zn0 2.024 . S
O11 C2 1.058 . S
C12 O13 1.228 . S
C12 O14 1.267 . S
O13 C12 1.228 . S
O14 Zn1 1.969 . S
O14 C12 1.267 . S
O15 Zn1 1.965 . S
O15 C19 1.260 . S
O16 Zn0 1.969 . S
O16 C19 1.258 . S
O17 Zn1 2.024 . S
O17 C4 1.058 . S
C18 O7 1.260 . S
C18 O8 1.258 . S
C19 O15 1.260 . S
C19 O16 1.258 . S
Zn20 O26 1.969 . S
Zn20 O27 1.965 . S
Zn20 O31 2.024 . S
Zn20 O36 1.969 . S
Zn21 O28 1.969 . S
Zn21 O34 1.969 . S
Zn21 O35 1.965 . S
Zn21 O37 2.024 . S
C22 O23 1.229 . S
C22 O31 1.058 . S
O23 C22 1.229 . S
C24 O25 1.229 . S
C24 O37 1.058 . S
O25 C24 1.229 . S
O26 Zn20 1.969 . S
O26 C29 1.267 . S
O27 Zn20 1.965 . S
O27 C38 1.260 . S
O28 Zn21 1.969 . S
O28 C38 1.258 . S
C29 O26 1.267 . S
C29 O30 1.228 . S
O30 C29 1.228 . S
O31 Zn20 2.024 . S
O31 C22 1.058 . S
C32 O33 1.228 . S
C32 O34 1.267 . S
O33 C32 1.228 . S
O34 Zn21 1.969 . S
O34 C32 1.267 . S
O35 Zn21 1.965 . S
O35 C39 1.260 . S
O36 Zn20 1.969 . S
O36 C39 1.258 . S
O37 Zn21 2.024 . S
O37 C24 1.058 . S
C38 O27 1.260 . S
C38 O28 1.258 . S
C39 O35 1.260 . S
C39 O36 1.258 . S
Zn40 O46 1.969 . S
Zn40 O47 1.965 . S
Zn40 O51 2.024 . S
Zn40 O56 1.969 . S
Zn41 O48 1.969 . S
Zn41 O54 1.969 . S
Zn41 O55 1.965 . S
Zn41 O57 2.024 . S
C42 O43 1.229 . S
C42 O51 1.058 . S
O43 C42 1.229 . S
C44 O45 1.229 . S
C44 O57 1.058 . S
O45 C44 1.229 . S
O46 Zn40 1.969 . S
O46 C49 1.267 . S
O47 Zn40 1.965 . S
O47 C58 1.260 . S
O48 Zn41 1.969 . S
O48 C58 1.258 . S
C49 O46 1.267 . S
C49 O50 1.228 . S
O50 C49 1.228 . S
O51 Zn40 2.024 . S
O51 C42 1.058 . S
C52 O53 1.228 . S
C52 O54 1.267 . S
O53 C52 1.228 . S
O54 Zn41 1.969 . S
O54 C52 1.267 . S
O55 Zn41 1.965 . S
O55 C59 1.260 . S
O56 Zn40 1.969 . S
O56 C59 1.258 . S
O57 Zn41 2.024 . S
O57 C44 1.058 . S
C58 O47 1.260 . S
C58 O48 1.258 . S
C59 O55 1.260 . S
C59 O56 1.258 . S
Zn60 O66 1.969 . S
Zn60 O67 1.965 . S
Zn60 O71 2.024 . S
Zn60 O76 1.969 . S
Zn61 O68 1.969 . S
Zn61 O74 1.969 . S
Zn61 O75 1.965 . S
Zn61 O77 2.024 . S
C62 O63 1.229 . S
C62 O71 1.058 . S
O63 C62 1.229 . S
C64 O65 1.229 . S
C64 O77 1.058 . S
O65 C64 1.229 . S
O66 Zn60 1.969 . S
O66 C69 1.267 . S
O67 Zn60 1.965 . S
O67 C78 1.260 . S
O68 Zn61 1.969 . S
O68 C78 1.258 . S
C69 O66 1.267 . S
C69 O70 1.228 . S
O70 C69 1.228 . S
O71 Zn60 2.024 . S
O71 C62 1.058 . S
C72 O73 1.228 . S
C72 O74 1.267 . S
O73 C72 1.228 . S
O74 Zn61 1.969 . S
O74 C72 1.267 . S
O75 Zn61 1.965 . S
O75 C79 1.260 . S
O76 Zn60 1.969 . S
O76 C79 1.258 . S
O77 Zn61 2.024 . S
O77 C64 1.058 . S
C78 O67 1.260 . S
C78 O68 1.258 . S
C79 O75 1.260 . S
C79 O76 1.258 . S
Zn80 O86 1.969 . S
Zn80 O87 1.965 . S
Zn80 O91 2.024 . S
Zn80 O96 1.969 . S
Zn81 O88 1.969 . S
Zn81 O94 1.969 . S
Zn81 O95 1.965 . S
Zn81 O97 2.024 . S
C82 O83 1.229 . S
C82 O91 1.058 . S
O83 C82 1.229 . S
C84 O85 1.229 . S
C84 O97 1.058 . S
O85 C84 1.229 . S
O86 Zn80 1.969 . S
O86 C89 1.267 . S
O87 Zn80 1.965 . S
O87 C98 1.260 . S
O88 Zn81 1.969 . S
O88 C98 1.258 . S
C89 O86 1.267 . S
C89 O90 1.228 . S
O90 C89 1.228 . S
O91 Zn80 2.024 . S
O91 C82 1.058 . S
C92 O93 1.228 . S
C92 O94 1.267 . S
O93 C92 1.228 . S
O94 Zn81 1.969 . S
O94 C92 1.267 . S
O95 Zn81 1.965 . S
O95 C99 1.260 . S
O96 Zn80 1.969 . S
O96 C99 1.258 . S
O97 Zn81 2.024 . S
O97 C84 1.058 . S
C98 O87 1.260 . S
C98 O88 1.258 . S
C99 O95 1.260 . S
C99 O96 1.258 . S
Zn100 O106 1.969 . S
Zn100 O107 1.965 . S
Zn100 O111 2.024 . S
Zn100 O116 1.969 . S
Zn101 O108 1.969 . S
Zn101 O114 1.969 . S
Zn101 O115 1.965 . S
Zn101 O117 2.024 . S
C102 O103 1.229 . S
C102 O111 1.058 . S
O103 C102 1.229 . S
C104 O105 1.229 . S
C104 O117 1.058 . S
O105 C104 1.229 . S
O106 Zn100 1.969 . S
O106 C109 1.267 . S
O107 Zn100 1.965 . S
O107 C118 1.260 . S
O108 Zn101 1.969 . S
O108 C118 1.258 . S
C109 O106 1.267 . S
C109 O110 1.228 . S
O110 C109 1.228 . S
O111 Zn100 2.024 . S
O111 C102 1.058 . S
C112 O113 1.228 . S
C112 O114 1.267 . S
O113 C112 1.228 . S
O114 Zn101 1.969 . S
O114 C112 1.267 . S
O115 Zn101 1.965 . S
O115 C119 1.260 . S
O116 Zn100 1.969 . S
O116 C119 1.258 . S
O117 Zn101 2.024 . S
O117 C104 1.058 . S
C118 O107 1.260 . S
C118 O108 1.258 . S
C119 O115 1.260 . S
C119 O116 1.258 . S
Zn120 O126 1.969 . S
Zn120 O127 1.965 . S
Zn120 O131 2.024 . S
Zn120 O136 1.969 . S
Zn121 O128 1.969 . S
Zn121 O134 1.969 . S
Zn121 O135 1.965 . S
Zn121 O137 2.024 . S
C122 O123 1.229 . S
C122 O131 1.058 . S
O123 C122 1.229 . S
C124 O125 1.229 . S
C124 O137 1.058 . S
O125 C124 1.229 . S
O126 Zn120 1.969 . S
O126 C129 1.267 . S
O127 Zn120 1.965 . S
O127 C138 1.260 . S
O128 Zn121 1.969 . S
O128 C138 1.258 . S
C129 O126 1.267 . S
C129 O130 1.228 . S
O130 C129 1.228 . S
O131 Zn120 2.024 . S
O131 C122 1.058 . S
C132 O133 1.228 . S
C132 O134 1.267 . S
O133 C132 1.228 . S
O134 Zn121 1.969 . S
O134 C132 1.267 . S
O135 Zn121 1.965 . S
O135 C139 1.260 . S
O136 Zn120 1.969 . S
O136 C139 1.258 . S
O137 Zn121 2.024 . S
O137 C124 1.058 . S
C138 O127 1.260 . S
C138 O128 1.258 . S
C139 O135 1.260 . S
C139 O136 1.258 . S
Zn140 O146 1.969 . S
Zn140 O147 1.965 . S
Zn140 O151 2.024 . S
Zn140 O156 1.969 . S
Zn141 O148 1.969 . S
Zn141 O154 1.969 . S
Zn141 O155 1.965 . S
Zn141 O157 2.024 . S
C142 O143 1.229 . S
C142 O151 1.058 . S
O143 C142 1.229 . S
C144 O145 1.229 . S
C144 O157 1.058 . S
O145 C144 1.229 . S
O146 Zn140 1.969 . S
O146 C149 1.267 . S
O147 Zn140 1.965 . S
O147 C158 1.260 . S
O148 Zn141 1.969 . S
O148 C158 1.258 . S
C149 O146 1.267 . S
C149 O150 1.228 . S
O150 C149 1.228 . S
O151 Zn140 2.024 . S
O151 C142 1.058 . S
C152 O153 1.228 . S
C152 O154 1.267 . S
O153 C152 1.228 . S
O154 Zn141 1.969 . S
O154 C152 1.267 . S
O155 Zn141 1.965 . S
O155 C159 1.260 . S
O156 Zn140 1.969 . S
O156 C159 1.258 . S
O157 Zn141 2.024 . S
O157 C144 1.058 . S
C158 O147 1.260 . S
C158 O148 1.258 . S
C159 O155 1.260 . S
C159 O156 1.258 . S
Zn160 O166 1.969 . S
Zn160 O167 1.965 . S
Zn160 O171 2.024 . S
Zn160 O176 1.969 . S
Zn161 O168 1.969 . S
Zn161 O174 1.969 . S
Zn161 O175 1.965 . S
Zn161 O177 2.024 . S
C162 O163 1.229 . S
C162 O171 1.058 . S
O163 C162 1.229 . S
C164 O165 1.229 . S
C164 O177 1.058 . S
O165 C164 1.229 . S
O166 Zn160 1.969 . S
O166 C169 1.267 . S
O167 Zn160 1.965 . S
O167 C178 1.260 . S
O168 Zn161 1.969 . S
O168 C178 1.258 . S
C169 O166 1.267 . S
C169 O170 1.228 . S
O170 C169 1.228 . S
O171 Zn160 2.024 . S
O171 C162 1.058 . S
C172 O173 1.228 . S
C172 O174 1.267 . S
O173 C172 1.228 . S
O174 Zn161 1.969 . S
O174 C172 1.267 . S
O175 Zn161 1.965 . S
O175 C179 1.260 . S
O176 Zn160 1.969 . S
O176 C179 1.258 . S
O177 Zn161 2.024 . S
O177 C164 1.058 . S
C178 O167 1.260 . S
C178 O168 1.258 . S
C179 O175 1.260 . S
C179 O176 1.258 . S
Zn180 O186 1.969 . S
Zn180 O187 1.965 . S
Zn180 O191 2.024 . S
Zn180 O196 1.969 . S
Zn181 O188 1.969 . S
Zn181 O194 1.969 . S
Zn181 O195 1.965 . S
Zn181 O197 2.024 . S
C182 O183 1.229 . S
C182 O191 1.058 . S
O183 C182 1.229 . S
C184 O185 1.229 . S
C184 O197 1.058 . S
O185 C184 1.229 . S
O186 Zn180 1.969 . S
O186 C189 1.267 . S
O187 Zn180 1.965 . S
O187 C198 1.260 . S
O188 Zn181 1.969 . S
O188 C198 1.258 . S
C189 O186 1.267 . S
C189 O190 1.228 . S
O190 C189 1.228 . S
O191 Zn180 2.024 . S
O191 C182 1.058 . S
C192 O193 1.228 . S
C192 O194 1.267 . S
O193 C192 1.228 . S
O194 Zn181 1.969 . S
O194 C192 1.267 . S
O195 Zn181 1.965 . S
O195 C199 1.260 . S
O196 Zn180 1.969 . S
O196 C199 1.258 . S
O197 Zn181 2.024 . S
O197 C184 1.058 . S
C198 O187 1.260 . S
C198 O188 1.258 . S
C199 O195 1.260 . S
C199 O196 1.258 . S
Zn200 O206 1.969 . S
Zn200 O207 1.965 . S
Zn200 O211 2.024 . S
Zn200 O216 1.969 . S
Zn201 O208 1.969 . S
Zn201 O214 1.969 . S
Zn201 O215 1.965 . S
Zn201 O217 2.024 . S
C202 O203 1.229 . S
C202 O211 1.058 . S
O203 C202 1.229 . S
C204 O205 1.229 . S
C204 O217 1.058 . S
O205 C204 1.229 . S
O206 Zn200 1.969 . S
O206 C209 1.267 . S
O207 Zn200 1.965 . S
O207 C218 1.260 . S
O208 Zn201 1.969 . S
O208 C218 1.258 . S
C209 O206 1.267 . S
C209 O210 1.228 . S
O210 C209 1.228 . S
O211 Zn200 2.024 . S
O211 C202 1.058 . S
C212 O213 1.228 . S
C212 O214 1.267 . S
O213 C212 1.228 . S
O214 Zn201 1.969 . S
O214 C212 1.267 . S
O215 Zn201 1.965 . S
O215 C219 1.260 . S
O216 Zn200 1.969 . S
O216 C219 1.258 . S
O217 Zn201 2.024 . S
O217 C204 1.058 . S
C218 O207 1.260 . S
C218 O208 1.258 . S
C219 O215 1.260 . S
C219 O216 1.258 . S
Zn220 O226 1.969 . S
Zn220 O227 1.965 . S
Zn220 O231 2.024 . S
Zn220 O236 1.969 . S
Zn221 O228 1.969 . S
Zn221 O234 1.969 . S
Zn221 O235 1.965 . S
Zn221 O237 2.024 . S
C222 O223 1.229 . S
C222 O231 1.058 . S
O223 C222 1.229 . S
C224 O225 1.229 . S
C224 O237 1.058 . S
O225 C224 1.229 . S
O226 Zn220 1.969 . S
O226 C229 1.267 . S
O227 Zn220 1.965 . S
O227 C238 1.260 . S
O228 Zn221 1.969 . S
O228 C238 1.258 . S
C229 O226 1.267 . S
C229 O230 1.228 . S
O230 C229 1.228 . S
O231 Zn220 2.024 . S
O231 C222 1.058 . S
C232 O233 1.228 . S
C232 O234 1.267 . S
O233 C232 1.228 . S
O234 Zn221 1.969 . S
O234 C232 1.267 . S
O235 Zn221 1.965 . S
O235 C239 1.260 . S
O236 Zn220 1.969 . S
O236 C239 1.258 . S
O237 Zn221 2.024 . S
O237 C224 1.058 . S
C238 O227 1.260 . S
C238 O228 1.258 . S
C239 O235 1.260 . S
C239 O236 1.258 . S
C240 C241 1.391 . S
C240 C242 1.394 1_565 S
C240 H256 0.931 . S
C241 C240 1.391 . S
C241 C245 1.376 . S
C242 C240 1.394 1_545 S
C242 C243 1.369 . S
C242 C246 1.531 . S
C243 C242 1.369 . S
C243 C244 1.410 . S
C243 C251 1.503 . S
C244 C243 1.410 . S
C244 C245 1.392 1_545 S
C244 C247 1.511 . S
C245 C241 1.376 . S
C245 C244 1.392 1_565 S
C245 H257 0.929 . S
C246 C242 1.531 . S
C246 H258 0.960 . S
C246 H259 0.962 . S
C246 H260 0.960 . S
C247 C244 1.511 . S
C247 H261 0.961 1_545 S
C247 H262 0.961 . S
C247 H263 0.961 . S
C248 C249 1.370 . S
C248 C250 1.363 . S
C248 H264 0.931 . S
C249 C248 1.370 . S
C249 C253 1.408 . S
C250 C248 1.363 . S
C250 C251 1.370 . S
C250 C254 1.524 . S
C251 C243 1.503 . S
C251 C250 1.370 . S
C251 C252 1.403 . S
C252 C251 1.403 . S
C252 C253 1.404 . S
C252 C255 1.539 . S
C253 C249 1.408 . S
C253 C252 1.404 . S
C253 H265 0.930 . S
C254 C250 1.524 . S
C254 H266 0.956 . S
C254 H267 0.961 . S
C254 H268 0.961 . S
C255 C252 1.539 . S
C255 H269 0.958 . S
C255 H270 0.961 . S
C255 H271 0.960 . S
H256 C240 0.931 . S
H257 C245 0.929 . S
H258 C246 0.960 . S
H259 C246 0.962 . S
H260 C246 0.960 . S
H261 C247 0.961 1_565 S
H262 C247 0.961 . S
H263 C247 0.961 . S
H264 C248 0.931 . S
H265 C253 0.930 . S
H266 C254 0.956 . S
H267 C254 0.961 . S
H268 C254 0.961 . S
H269 C255 0.958 . S
H270 C255 0.961 . S
H271 C255 0.960 . S
C272 C273 1.391 . S
C272 C274 1.394 . S
C272 H288 0.931 . S
C273 C272 1.391 . S
C273 C277 1.376 . S
C274 C272 1.394 . S
C274 C275 1.369 . S
C274 C278 1.531 . S
C275 C274 1.369 . S
C275 C276 1.410 . S
C275 C283 1.503 . S
C276 C275 1.410 . S
C276 C277 1.392 . S
C276 C279 1.511 . S
C277 C273 1.376 . S
C277 C276 1.392 . S
C277 H289 0.929 . S
C278 C274 1.531 . S
C278 H290 0.960 . S
C278 H291 0.962 . S
C278 H292 0.960 . S
C279 C276 1.511 . S
C279 H293 0.961 . S
C279 H294 0.961 . S
C279 H295 0.961 . S
C280 C281 1.370 . S
C280 C282 1.363 . S
C280 H296 0.931 . S
C281 C280 1.370 . S
C281 C285 1.408 . S
C282 C280 1.363 . S
C282 C283 1.370 . S
C282 C286 1.524 . S
C283 C275 1.503 . S
C283 C282 1.370 . S
C283 C284 1.403 . S
C284 C283 1.403 . S
C284 C285 1.404 . S
C284 C287 1.539 . S
C285 C281 1.408 . S
C285 C284 1.404 . S
C285 H297 0.930 . S
C286 C282 1.524 . S
C286 H298 0.956 . S
C286 H299 0.961 . S
C286 H300 0.961 . S
C287 C284 1.539 . S
C287 H301 0.958 . S
C287 H302 0.961 . S
C287 H303 0.960 . S
H288 C272 0.931 . S
H289 C277 0.929 . S
H290 C278 0.960 . S
H291 C278 0.962 . S
H292 C278 0.960 . S
H293 C279 0.961 . S
H294 C279 0.961 . S
H295 C279 0.961 . S
H296 C280 0.931 . S
H297 C285 0.930 . S
H298 C286 0.956 . S
H299 C286 0.961 . S
H300 C286 0.961 . S
H301 C287 0.958 . S
H302 C287 0.961 . S
H303 C287 0.960 . S
C304 C305 1.391 . S
C304 C306 1.394 . S
C304 H320 0.931 1_545 S
C305 C304 1.391 . S
C305 C309 1.376 . S
C306 C304 1.394 . S
C306 C307 1.369 . S
C306 C310 1.531 . S
C307 C306 1.369 . S
C307 C308 1.410 . S
C307 C315 1.503 . S
C308 C307 1.410 . S
C308 C309 1.392 . S
C308 C311 1.511 . S
C309 C305 1.376 . S
C309 C308 1.392 . S
C309 H321 0.929 . S
C310 C306 1.531 . S
C310 H322 0.960 . S
C310 H323 0.962 . S
C310 H324 0.960 . S
C311 C308 1.511 . S
C311 H325 0.961 . S
C311 H326 0.961 . S
C311 H327 0.961 . S
C312 C313 1.370 . S
C312 C314 1.363 1_455 S
C312 H328 0.931 . S
C313 C312 1.370 . S
C313 C317 1.408 . S
C314 C312 1.363 1_655 S
C314 C315 1.370 . S
C314 C318 1.524 . S
C315 C307 1.503 . S
C315 C314 1.370 . S
C315 C316 1.403 . S
C316 C315 1.403 . S
C316 C317 1.404 1_655 S
C316 C319 1.539 . S
C317 C313 1.408 . S
C317 C316 1.404 1_455 S
C317 H329 0.930 . S
C318 C314 1.524 . S
C318 H330 0.956 . S
C318 H331 0.961 . S
C318 H332 0.961 . S
C319 C316 1.539 . S
C319 H333 0.958 . S
C319 H334 0.961 . S
C319 H335 0.960 . S
H320 C304 0.931 1_565 S
H321 C309 0.929 . S
H322 C310 0.960 . S
H323 C310 0.962 . S
H324 C310 0.960 . S
H325 C311 0.961 . S
H326 C311 0.961 . S
H327 C311 0.961 . S
H328 C312 0.931 . S
H329 C317 0.930 . S
H330 C318 0.956 . S
H331 C318 0.961 . S
H332 C318 0.961 . S
H333 C319 0.958 . S
H334 C319 0.961 . S
H335 C319 0.960 . S
C336 C337 1.391 . S
C336 C338 1.394 . S
C336 H352 0.931 . S
C337 C336 1.391 . S
C337 C341 1.376 . S
C338 C336 1.394 . S
C338 C339 1.369 . S
C338 C342 1.531 . S
C339 C338 1.369 . S
C339 C340 1.410 . S
C339 C347 1.503 . S
C340 C339 1.410 . S
C340 C341 1.392 . S
C340 C343 1.511 . S
C341 C337 1.376 . S
C341 C340 1.392 . S
C341 H353 0.929 . S
C342 C338 1.531 . S
C342 H354 0.960 . S
C342 H355 0.962 . S
C342 H356 0.960 . S
C343 C340 1.511 . S
C343 H357 0.961 . S
C343 H358 0.961 . S
C343 H359 0.961 . S
C344 C345 1.370 . S
C344 C346 1.363 1_545 S
C344 H360 0.931 . S
C345 C344 1.370 . S
C345 C349 1.408 . S
C346 C344 1.363 1_565 S
C346 C347 1.370 . S
C346 C350 1.524 . S
C347 C339 1.503 . S
C347 C346 1.370 . S
C347 C348 1.403 . S
C348 C347 1.403 . S
C348 C349 1.404 1_565 S
C348 C351 1.539 . S
C349 C345 1.408 . S
C349 C348 1.404 1_545 S
C349 H361 0.930 . S
C350 C346 1.524 . S
C350 H362 0.956 . S
C350 H363 0.961 . S
C350 H364 0.961 . S
C351 C348 1.539 . S
C351 H365 0.958 . S
C351 H366 0.961 . S
C351 H367 0.960 . S
H352 C336 0.931 . S
H353 C341 0.929 . S
H354 C342 0.960 . S
H355 C342 0.962 . S
H356 C342 0.960 . S
H357 C343 0.961 . S
H358 C343 0.961 . S
H359 C343 0.961 . S
H360 C344 0.931 . S
H361 C349 0.930 . S
H362 C350 0.956 . S
H363 C350 0.961 . S
H364 C350 0.961 . S
H365 C351 0.958 . S
H366 C351 0.961 . S
H367 C351 0.960 . S
C368 C369 1.391 . S
C368 C370 1.394 . S
C368 H384 0.931 1_655 S
C369 C368 1.391 . S
C369 C373 1.376 . S
C370 C368 1.394 . S
C370 C371 1.369 . S
C370 C374 1.531 . S
C371 C370 1.369 . S
C371 C372 1.410 . S
C371 C379 1.503 . S
C372 C371 1.410 . S
C372 C373 1.392 . S
C372 C375 1.511 . S
C373 C369 1.376 . S
C373 C372 1.392 . S
C373 H385 0.929 . S
C374 C370 1.531 . S
C374 H386 0.960 . S
C374 H387 0.962 . S
C374 H388 0.960 . S
C375 C372 1.511 . S
C375 H389 0.961 . S
C375 H390 0.961 . S
C375 H391 0.961 . S
C376 C377 1.370 . S
C376 C378 1.363 . S
C376 H392 0.931 . S
C377 C376 1.370 . S
C377 C381 1.408 . S
C378 C376 1.363 . S
C378 C379 1.370 . S
C378 C382 1.524 . S
C379 C371 1.503 . S
C379 C378 1.370 . S
C379 C380 1.403 . S
C380 C379 1.403 . S
C380 C381 1.404 . S
C380 C383 1.539 . S
C381 C377 1.408 . S
C381 C380 1.404 . S
C381 H393 0.930 . S
C382 C378 1.524 . S
C382 H394 0.956 . S
C382 H395 0.961 . S
C382 H396 0.961 . S
C383 C380 1.539 . S
C383 H397 0.958 . S
C383 H398 0.961 . S
C383 H399 0.960 . S
H384 C368 0.931 1_455 S
H385 C373 0.929 . S
H386 C374 0.960 . S
H387 C374 0.962 . S
H388 C374 0.960 . S
H389 C375 0.961 . S
H390 C375 0.961 . S
H391 C375 0.961 . S
H392 C376 0.931 . S
H393 C381 0.930 . S
H394 C382 0.956 . S
H395 C382 0.961 . S
H396 C382 0.961 . S
H397 C383 0.958 . S
H398 C383 0.961 . S
H399 C383 0.960 . S
C400 C401 1.391 . S
C400 C402 1.394 1_655 S
C400 H416 0.931 . S
C401 C400 1.391 . S
C401 C405 1.376 . S
C402 C400 1.394 1_455 S
C402 C403 1.369 . S
C402 C406 1.531 . S
C403 C402 1.369 . S
C403 C404 1.410 . S
C403 C411 1.503 . S
C404 C403 1.410 . S
C404 C405 1.392 1_455 S
C404 C407 1.511 . S
C405 C401 1.376 . S
C405 C404 1.392 1_655 S
C405 H417 0.929 . S
C406 C402 1.531 . S
C406 H418 0.960 . S
C406 H419 0.962 . S
C406 H420 0.960 1_455 S
C407 C404 1.511 . S
C407 H421 0.961 . S
C407 H422 0.961 . S
C407 H423 0.961 . S
C408 C409 1.370 . S
C408 C410 1.363 . S
C408 H424 0.931 . S
C409 C408 1.370 . S
C409 C413 1.408 . S
C410 C408 1.363 . S
C410 C411 1.370 . S
C410 C414 1.524 . S
C411 C403 1.503 . S
C411 C410 1.370 . S
C411 C412 1.403 . S
C412 C411 1.403 . S
C412 C413 1.404 . S
C412 C415 1.539 . S
C413 C409 1.408 . S
C413 C412 1.404 . S
C413 H425 0.930 . S
C414 C410 1.524 . S
C414 H426 0.956 . S
C414 H427 0.961 . S
C414 H428 0.961 . S
C415 C412 1.539 . S
C415 H429 0.958 . S
C415 H430 0.961 . S
C415 H431 0.960 . S
H416 C400 0.931 . S
H417 C405 0.929 . S
H418 C406 0.960 . S
H419 C406 0.962 . S
H420 C406 0.960 1_655 S
H421 C407 0.961 . S
H422 C407 0.961 . S
H423 C407 0.961 . S
H424 C408 0.931 . S
H425 C413 0.930 . S
H426 C414 0.956 . S
H427 C414 0.961 . S
H428 C414 0.961 . S
H429 C415 0.958 . S
H430 C415 0.961 . S
H431 C415 0.960 . S
C432 C433 1.391 . S
C432 C434 1.394 1_455 S
C432 H448 0.931 . S
C433 C432 1.391 . S
C433 C437 1.376 . S
C434 C432 1.394 1_655 S
C434 C435 1.369 . S
C434 C438 1.531 . S
C435 C434 1.369 . S
C435 C436 1.410 . S
C435 C443 1.503 . S
C436 C435 1.410 . S
C436 C437 1.392 1_655 S
C436 C439 1.511 . S
C437 C433 1.376 . S
C437 C436 1.392 1_455 S
C437 H449 0.929 . S
C438 C434 1.531 . S
C438 H450 0.960 . S
C438 H451 0.962 . S
C438 H452 0.960 . S
C439 C436 1.511 . S
C439 H453 0.961 . S
C439 H454 0.961 . S
C439 H455 0.961 . S
C440 C441 1.370 . S
C440 C442 1.363 . S
C440 H456 0.931 . S
C441 C440 1.370 . S
C441 C445 1.408 . S
C442 C440 1.363 . S
C442 C443 1.370 . S
C442 C446 1.524 . S
C443 C435 1.503 . S
C443 C442 1.370 . S
C443 C444 1.403 . S
C444 C443 1.403 . S
C444 C445 1.404 . S
C444 C447 1.539 . S
C445 C441 1.408 . S
C445 C444 1.404 . S
C445 H457 0.930 . S
C446 C442 1.524 . S
C446 H458 0.956 . S
C446 H459 0.961 . S
C446 H460 0.961 . S
C447 C444 1.539 . S
C447 H461 0.958 . S
C447 H462 0.961 . S
C447 H463 0.960 . S
H448 C432 0.931 . S
H449 C437 0.929 . S
H450 C438 0.960 . S
H451 C438 0.962 . S
H452 C438 0.960 . S
H453 C439 0.961 . S
H454 C439 0.961 . S
H455 C439 0.961 . S
H456 C440 0.931 . S
H457 C445 0.930 . S
H458 C446 0.956 . S
H459 C446 0.961 . S
H460 C446 0.961 . S
H461 C447 0.958 . S
H462 C447 0.961 . S
H463 C447 0.960 . S
C464 C465 1.391 . S
C464 C466 1.394 . S
C464 H480 0.931 . S
C465 C464 1.391 . S
C465 C469 1.376 . S
C466 C464 1.394 . S
C466 C467 1.369 . S
C466 C470 1.531 . S
C467 C466 1.369 . S
C467 C468 1.410 . S
C467 C475 1.503 . S
C468 C467 1.410 . S
C468 C469 1.392 . S
C468 C471 1.511 . S
C469 C465 1.376 . S
C469 C468 1.392 . S
C469 H481 0.929 . S
C470 C466 1.531 . S
C470 H482 0.960 . S
C470 H483 0.962 . S
C470 H484 0.960 . S
C471 C468 1.511 . S
C471 H485 0.961 . S
C471 H486 0.961 . S
C471 H487 0.961 . S
C472 C473 1.370 . S
C472 C474 1.363 1_545 S
C472 H488 0.931 . S
C473 C472 1.370 . S
C473 C477 1.408 . S
C474 C472 1.363 1_565 S
C474 C475 1.370 . S
C474 C478 1.524 . S
C475 C467 1.503 . S
C475 C474 1.370 . S
C475 C476 1.403 . S
C476 C475 1.403 . S
C476 C477 1.404 1_565 S
C476 C479 1.539 . S
C477 C473 1.408 . S
C477 C476 1.404 1_545 S
C477 H489 0.930 . S
C478 C474 1.524 . S
C478 H490 0.956 . S
C478 H491 0.961 . S
C478 H492 0.961 . S
C479 C476 1.539 . S
C479 H493 0.958 . S
C479 H494 0.961 1_565 S
C479 H495 0.960 . S
H480 C464 0.931 . S
H481 C469 0.929 . S
H482 C470 0.960 . S
H483 C470 0.962 . S
H484 C470 0.960 . S
H485 C471 0.961 . S
H486 C471 0.961 . S
H487 C471 0.961 . S
H488 C472 0.931 . S
H489 C477 0.930 . S
H490 C478 0.956 . S
H491 C478 0.961 . S
H492 C478 0.961 . S
H493 C479 0.958 . S
H494 C479 0.961 1_545 S
H495 C479 0.960 . S
C496 C497 1.391 . S
C496 C498 1.394 . S
C496 H512 0.931 . S
C497 C496 1.391 . S
C497 C501 1.376 . S
C498 C496 1.394 . S
C498 C499 1.369 . S
C498 C502 1.531 . S
C499 C498 1.369 . S
C499 C500 1.410 . S
C499 C507 1.503 . S
C500 C499 1.410 . S
C500 C501 1.392 . S
C500 C503 1.511 . S
C501 C497 1.376 . S
C501 C500 1.392 . S
C501 H513 0.929 . S
C502 C498 1.531 . S
C502 H514 0.960 . S
C502 H515 0.962 . S
C502 H516 0.960 . S
C503 C500 1.511 . S
C503 H517 0.961 . S
C503 H518 0.961 . S
C503 H519 0.961 . S
C504 C505 1.370 . S
C504 C506 1.363 . S
C504 H520 0.931 1_545 S
C505 C504 1.370 . S
C505 C509 1.408 . S
C506 C504 1.363 . S
C506 C507 1.370 . S
C506 C510 1.524 . S
C507 C499 1.503 . S
C507 C506 1.370 . S
C507 C508 1.403 . S
C508 C507 1.403 . S
C508 C509 1.404 . S
C508 C511 1.539 . S
C509 C505 1.408 . S
C509 C508 1.404 . S
C509 H521 0.930 . S
C510 C506 1.524 . S
C510 H522 0.956 . S
C510 H523 0.961 . S
C510 H524 0.961 . S
C511 C508 1.539 . S
C511 H525 0.958 . S
C511 H526 0.961 . S
C511 H527 0.960 . S
H512 C496 0.931 . S
H513 C501 0.929 . S
H514 C502 0.960 . S
H515 C502 0.962 . S
H516 C502 0.960 . S
H517 C503 0.961 . S
H518 C503 0.961 . S
H519 C503 0.961 . S
H520 C504 0.931 1_565 S
H521 C509 0.930 . S
H522 C510 0.956 . S
H523 C510 0.961 . S
H524 C510 0.961 . S
H525 C511 0.958 . S
H526 C511 0.961 . S
H527 C511 0.960 . S
C528 C529 1.391 . S
C528 C530 1.394 . S
C528 H544 0.931 . S
C529 C528 1.391 . S
C529 C533 1.376 . S
C530 C528 1.394 . S
C530 C531 1.369 . S
C530 C534 1.531 . S
C531 C530 1.369 . S
C531 C532 1.410 . S
C531 C539 1.503 . S
C532 C531 1.410 . S
C532 C533 1.392 . S
C532 C535 1.511 . S
C533 C529 1.376 . S
C533 C532 1.392 . S
C533 H545 0.929 . S
C534 C530 1.531 . S
C534 H546 0.960 . S
C534 H547 0.962 . S
C534 H548 0.960 . S
C535 C532 1.511 . S
C535 H549 0.961 . S
C535 H550 0.961 . S
C535 H551 0.961 . S
C536 C537 1.370 . S
C536 C538 1.363 1_655 S
C536 H552 0.931 . S
C537 C536 1.370 . S
C537 C541 1.408 . S
C538 C536 1.363 1_455 S
C538 C539 1.370 . S
C538 C542 1.524 . S
C539 C531 1.503 . S
C539 C538 1.370 . S
C539 C540 1.403 . S
C540 C539 1.403 . S
C540 C541 1.404 1_455 S
C540 C543 1.539 . S
C541 C537 1.408 . S
C541 C540 1.404 1_655 S
C541 H553 0.930 . S
C542 C538 1.524 . S
C542 H554 0.956 . S
C542 H555 0.961 . S
C542 H556 0.961 . S
C543 C540 1.539 . S
C543 H557 0.958 . S
C543 H558 0.961 . S
C543 H559 0.960 . S
H544 C528 0.931 . S
H545 C533 0.929 . S
H546 C534 0.960 . S
H547 C534 0.962 . S
H548 C534 0.960 . S
H549 C535 0.961 . S
H550 C535 0.961 . S
H551 C535 0.961 . S
H552 C536 0.931 . S
H553 C541 0.930 . S
H554 C542 0.956 . S
H555 C542 0.961 . S
H556 C542 0.961 . S
H557 C543 0.958 . S
H558 C543 0.961 . S
H559 C543 0.960 . S
C560 C561 1.391 . S
C560 C562 1.394 . S
C560 H576 0.931 . S
C561 C560 1.391 . S
C561 C565 1.376 . S
C562 C560 1.394 . S
C562 C563 1.369 . S
C562 C566 1.531 . S
C563 C562 1.369 . S
C563 C564 1.410 . S
C563 C571 1.503 . S
C564 C563 1.410 . S
C564 C565 1.392 . S
C564 C567 1.511 . S
C565 C561 1.376 . S
C565 C564 1.392 . S
C565 H577 0.929 . S
C566 C562 1.531 . S
C566 H578 0.960 . S
C566 H579 0.962 . S
C566 H580 0.960 . S
C567 C564 1.511 . S
C567 H581 0.961 . S
C567 H582 0.961 . S
C567 H583 0.961 . S
C568 C569 1.370 . S
C568 C570 1.363 1_565 S
C568 H584 0.931 . S
C569 C568 1.370 . S
C569 C573 1.408 . S
C570 C568 1.363 1_545 S
C570 C571 1.370 . S
C570 C574 1.524 . S
C571 C563 1.503 . S
C571 C570 1.370 . S
C571 C572 1.403 . S
C572 C571 1.403 . S
C572 C573 1.404 1_545 S
C572 C575 1.539 . S
C573 C569 1.408 . S
C573 C572 1.404 1_565 S
C573 H585 0.930 . S
C574 C570 1.524 . S
C574 H586 0.956 . S
C574 H587 0.961 . S
C574 H588 0.961 . S
C575 C572 1.539 . S
C575 H589 0.958 . S
C575 H590 0.961 1_545 S
C575 H591 0.960 . S
H576 C560 0.931 . S
H577 C565 0.929 . S
H578 C566 0.960 . S
H579 C566 0.962 . S
H580 C566 0.960 . S
H581 C567 0.961 . S
H582 C567 0.961 . S
H583 C567 0.961 . S
H584 C568 0.931 . S
H585 C573 0.930 . S
H586 C574 0.956 . S
H587 C574 0.961 . S
H588 C574 0.961 . S
H589 C575 0.958 . S
H590 C575 0.961 1_565 S
H591 C575 0.960 . S
C592 C593 1.391 . S
C592 C594 1.394 . S
C592 H608 0.931 . S
C593 C592 1.391 . S
C593 C597 1.376 . S
C594 C592 1.394 . S
C594 C595 1.369 . S
C594 C598 1.531 . S
C595 C594 1.369 . S
C595 C596 1.410 . S
C595 C603 1.503 . S
C596 C595 1.410 . S
C596 C597 1.392 . S
C596 C599 1.511 . S
C597 C593 1.376 . S
C597 C596 1.392 . S
C597 H609 0.929 . S
C598 C594 1.531 . S
C598 H610 0.960 . S
C598 H611 0.962 . S
C598 H612 0.960 . S
C599 C596 1.511 . S
C599 H613 0.961 . S
C599 H614 0.961 . S
C599 H615 0.961 . S
C600 C601 1.370 . S
C600 C602 1.363 . S
C600 H616 0.931 . S
C601 C600 1.370 . S
C601 C605 1.408 . S
C602 C600 1.363 . S
C602 C603 1.370 . S
C602 C606 1.524 . S
C603 C595 1.503 . S
C603 C602 1.370 . S
C603 C604 1.403 . S
C604 C603 1.403 . S
C604 C605 1.404 . S
C604 C607 1.539 . S
C605 C601 1.408 . S
C605 C604 1.404 . S
C605 H617 0.930 . S
C606 C602 1.524 . S
C606 H618 0.956 . S
C606 H619 0.961 . S
C606 H620 0.961 . S
C607 C604 1.539 . S
C607 H621 0.958 . S
C607 H622 0.961 . S
C607 H623 0.960 . S
H608 C592 0.931 . S
H609 C597 0.929 . S
H610 C598 0.960 . S
H611 C598 0.962 . S
H612 C598 0.960 . S
H613 C599 0.961 . S
H614 C599 0.961 . S
H615 C599 0.961 . S
H616 C600 0.931 . S
H617 C605 0.930 . S
H618 C606 0.956 . S
H619 C606 0.961 . S
H620 C606 0.961 . S
H621 C607 0.958 . S
H622 C607 0.961 . S
H623 C607 0.960 . S
C624 C625 1.391 . S
C624 C626 1.394 . S
C624 H640 0.931 . S
C625 C624 1.391 . S
C625 C629 1.376 . S
C626 C624 1.394 . S
C626 C627 1.369 . S
C626 C630 1.531 . S
C627 C626 1.369 . S
C627 C628 1.410 . S
C627 C635 1.503 . S
C628 C627 1.410 . S
C628 C629 1.392 . S
C628 C631 1.511 . S
C629 C625 1.376 . S
C629 C628 1.392 . S
C629 H641 0.929 . S
C630 C626 1.531 . S
C630 H642 0.960 . S
C630 H643 0.962 . S
C630 H644 0.960 . S
C631 C628 1.511 . S
C631 H645 0.961 . S
C631 H646 0.961 . S
C631 H647 0.961 . S
C632 C633 1.370 . S
C632 C634 1.363 . S
C632 H648 0.931 . S
C633 C632 1.370 . S
C633 C637 1.408 . S
C634 C632 1.363 . S
C634 C635 1.370 . S
C634 C638 1.524 . S
C635 C627 1.503 . S
C635 C634 1.370 . S
C635 C636 1.403 . S
C636 C635 1.403 . S
C636 C637 1.404 . S
C636 C639 1.539 . S
C637 C633 1.408 . S
C637 C636 1.404 . S
C637 H649 0.930 . S
C638 C634 1.524 . S
C638 H650 0.956 . S
C638 H651 0.961 . S
C638 H652 0.961 . S
C639 C636 1.539 . S
C639 H653 0.958 . S
C639 H654 0.961 . S
C639 H655 0.960 . S
H640 C624 0.931 . S
H641 C629 0.929 . S
H642 C630 0.960 . S
H643 C630 0.962 . S
H644 C630 0.960 . S
H645 C631 0.961 . S
H646 C631 0.961 . S
H647 C631 0.961 . S
H648 C632 0.931 . S
H649 C637 0.930 . S
H650 C638 0.956 . S
H651 C638 0.961 . S
H652 C638 0.961 . S
H653 C639 0.958 . S
H654 C639 0.961 . S
H655 C639 0.960 . S
C656 C657 1.391 . S
C656 C658 1.394 . S
C656 H672 0.931 . S
C657 C656 1.391 . S
C657 C661 1.376 . S
C658 C656 1.394 . S
C658 C659 1.369 . S
C658 C662 1.531 . S
C659 C658 1.369 . S
C659 C660 1.410 . S
C659 C667 1.503 . S
C660 C659 1.410 . S
C660 C661 1.392 . S
C660 C663 1.511 . S
C661 C657 1.376 . S
C661 C660 1.392 . S
C661 H673 0.929 . S
C662 C658 1.531 . S
C662 H674 0.960 . S
C662 H675 0.962 . S
C662 H676 0.960 . S
C663 C660 1.511 . S
C663 H677 0.961 . S
C663 H678 0.961 . S
C663 H679 0.961 . S
C664 C665 1.370 . S
C664 C666 1.363 . S
C664 H680 0.931 . S
C665 C664 1.370 . S
C665 C669 1.408 . S
C666 C664 1.363 . S
C666 C667 1.370 . S
C666 C670 1.524 . S
C667 C659 1.503 . S
C667 C666 1.370 . S
C667 C668 1.403 . S
C668 C667 1.403 . S
C668 C669 1.404 . S
C668 C671 1.539 . S
C669 C665 1.408 . S
C669 C668 1.404 . S
C669 H681 0.930 . S
C670 C666 1.524 . S
C670 H682 0.956 . S
C670 H683 0.961 . S
C670 H684 0.961 . S
C671 C668 1.539 . S
C671 H685 0.958 . S
C671 H686 0.961 . S
C671 H687 0.960 . S
H672 C656 0.931 . S
H673 C661 0.929 . S
H674 C662 0.960 . S
H675 C662 0.962 . S
H676 C662 0.960 . S
H677 C663 0.961 . S
H678 C663 0.961 . S
H679 C663 0.961 . S
H680 C664 0.931 . S
H681 C669 0.930 . S
H682 C670 0.956 . S
H683 C670 0.961 . S
H684 C670 0.961 . S
H685 C671 0.958 . S
H686 C671 0.961 . S
H687 C671 0.960 . S
C688 C689 1.391 . S
C688 C690 1.394 . S
C688 H704 0.931 . S
C689 C688 1.391 . S
C689 C693 1.376 . S
C690 C688 1.394 . S
C690 C691 1.369 . S
C690 C694 1.531 . S
C691 C690 1.369 . S
C691 C692 1.410 . S
C691 C699 1.503 . S
C692 C691 1.410 . S
C692 C693 1.392 . S
C692 C695 1.511 . S
C693 C689 1.376 . S
C693 C692 1.392 . S
C693 H705 0.929 . S
C694 C690 1.531 . S
C694 H706 0.960 . S
C694 H707 0.962 . S
C694 H708 0.960 . S
C695 C692 1.511 . S
C695 H709 0.961 . S
C695 H710 0.961 . S
C695 H711 0.961 . S
C696 C697 1.370 . S
C696 C698 1.363 . S
C696 H712 0.931 . S
C697 C696 1.370 . S
C697 C701 1.408 . S
C698 C696 1.363 . S
C698 C699 1.370 . S
C698 C702 1.524 . S
C699 C691 1.503 . S
C699 C698 1.370 . S
C699 C700 1.403 . S
C700 C699 1.403 . S
C700 C701 1.404 . S
C700 C703 1.539 . S
C701 C697 1.408 . S
C701 C700 1.404 . S
C701 H713 0.930 . S
C702 C698 1.524 . S
C702 H714 0.956 . S
C702 H715 0.961 . S
C702 H716 0.961 . S
C703 C700 1.539 . S
C703 H717 0.958 . S
C703 H718 0.961 . S
C703 H719 0.960 . S
H704 C688 0.931 . S
H705 C693 0.929 . S
H706 C694 0.960 . S
H707 C694 0.962 . S
H708 C694 0.960 . S
H709 C695 0.961 . S
H710 C695 0.961 . S
H711 C695 0.961 . S
H712 C696 0.931 . S
H713 C701 0.930 . S
H714 C702 0.956 . S
H715 C702 0.961 . S
H716 C702 0.961 . S
H717 C703 0.958 . S
H718 C703 0.961 . S
H719 C703 0.960 . S
C720 C721 1.391 . S
C720 C722 1.394 . S
C720 H736 0.931 . S
C721 C720 1.391 . S
C721 C725 1.376 . S
C722 C720 1.394 . S
C722 C723 1.369 . S
C722 C726 1.531 . S
C723 C722 1.369 . S
C723 C724 1.410 . S
C723 C731 1.503 . S
C724 C723 1.410 . S
C724 C725 1.392 . S
C724 C727 1.511 . S
C725 C721 1.376 . S
C725 C724 1.392 . S
C725 H737 0.929 . S
C726 C722 1.531 . S
C726 H738 0.960 . S
C726 H739 0.962 . S
C726 H740 0.960 . S
C727 C724 1.511 . S
C727 H741 0.961 . S
C727 H742 0.961 . S
C727 H743 0.961 . S
C728 C729 1.370 . S
C728 C730 1.363 . S
C728 H744 0.931 . S
C729 C728 1.370 . S
C729 C733 1.408 . S
C730 C728 1.363 . S
C730 C731 1.370 . S
C730 C734 1.524 . S
C731 C723 1.503 . S
C731 C730 1.370 . S
C731 C732 1.403 . S
C732 C731 1.403 . S
C732 C733 1.404 . S
C732 C735 1.539 . S
C733 C729 1.408 . S
C733 C732 1.404 . S
C733 H745 0.930 . S
C734 C730 1.524 . S
C734 H746 0.956 . S
C734 H747 0.961 . S
C734 H748 0.961 . S
C735 C732 1.539 . S
C735 H749 0.958 . S
C735 H750 0.961 . S
C735 H751 0.960 . S
H736 C720 0.931 . S
H737 C725 0.929 . S
H738 C726 0.960 . S
H739 C726 0.962 . S
H740 C726 0.960 . S
H741 C727 0.961 . S
H742 C727 0.961 . S
H743 C727 0.961 . S
H744 C728 0.931 . S
H745 C733 0.930 . S
H746 C734 0.956 . S
H747 C734 0.961 . S
H748 C734 0.961 . S
H749 C735 0.958 . S
H750 C735 0.961 . S
H751 C735 0.960 . S
C752 C753 1.391 . S
C752 C754 1.394 . S
C752 H768 0.931 . S
C753 C752 1.391 . S
C753 C757 1.376 . S
C754 C752 1.394 . S
C754 C755 1.369 . S
C754 C758 1.531 . S
C755 C754 1.369 . S
C755 C756 1.410 . S
C755 C763 1.503 . S
C756 C755 1.410 . S
C756 C757 1.392 . S
C756 C759 1.511 . S
C757 C753 1.376 . S
C757 C756 1.392 . S
C757 H769 0.929 . S
C758 C754 1.531 . S
C758 H770 0.960 . S
C758 H771 0.962 . S
C758 H772 0.960 . S
C759 C756 1.511 . S
C759 H773 0.961 . S
C759 H774 0.961 . S
C759 H775 0.961 . S
C760 C761 1.370 . S
C760 C762 1.363 . S
C760 H776 0.931 . S
C761 C760 1.370 . S
C761 C765 1.408 . S
C762 C760 1.363 . S
C762 C763 1.370 . S
C762 C766 1.524 . S
C763 C755 1.503 . S
C763 C762 1.370 . S
C763 C764 1.403 . S
C764 C763 1.403 . S
C764 C765 1.404 . S
C764 C767 1.539 . S
C765 C761 1.408 . S
C765 C764 1.404 . S
C765 H777 0.930 . S
C766 C762 1.524 . S
C766 H778 0.956 . S
C766 H779 0.961 . S
C766 H780 0.961 . S
C767 C764 1.539 . S
C767 H781 0.958 . S
C767 H782 0.961 . S
C767 H783 0.960 . S
H768 C752 0.931 . S
H769 C757 0.929 . S
H770 C758 0.960 . S
H771 C758 0.962 . S
H772 C758 0.960 . S
H773 C759 0.961 . S
H774 C759 0.961 . S
H775 C759 0.961 . S
H776 C760 0.931 . S
H777 C765 0.930 . S
H778 C766 0.956 . S
H779 C766 0.961 . S
H780 C766 0.961 . S
H781 C767 0.958 . S
H782 C767 0.961 . S
H783 C767 0.960 . S
C784 C785 1.391 . S
C784 C786 1.394 . S
C784 H800 0.931 . S
C785 C784 1.391 . S
C785 C789 1.376 . S
C786 C784 1.394 . S
C786 C787 1.369 . S
C786 C790 1.531 . S
C787 C786 1.369 . S
C787 C788 1.410 . S
C787 C795 1.503 . S
C788 C787 1.410 . S
C788 C789 1.392 . S
C788 C791 1.511 . S
C789 C785 1.376 . S
C789 C788 1.392 . S
C789 H801 0.929 . S
C790 C786 1.531 . S
C790 H802 0.960 . S
C790 H803 0.962 . S
C790 H804 0.960 . S
C791 C788 1.511 . S
C791 H805 0.961 . S
C791 H806 0.961 . S
C791 H807 0.961 . S
C792 C793 1.370 . S
C792 C794 1.363 . S
C792 H808 0.931 . S
C793 C792 1.370 . S
C793 C797 1.408 . S
C794 C792 1.363 . S
C794 C795 1.370 . S
C794 C798 1.524 . S
C795 C787 1.503 . S
C795 C794 1.370 . S
C795 C796 1.403 . S
C796 C795 1.403 . S
C796 C797 1.404 . S
C796 C799 1.539 . S
C797 C793 1.408 . S
C797 C796 1.404 . S
C797 H809 0.930 . S
C798 C794 1.524 . S
C798 H810 0.956 . S
C798 H811 0.961 . S
C798 H812 0.961 . S
C799 C796 1.539 . S
C799 H813 0.958 . S
C799 H814 0.961 . S
C799 H815 0.960 . S
H800 C784 0.931 . S
H801 C789 0.929 . S
H802 C790 0.960 . S
H803 C790 0.962 . S
H804 C790 0.960 . S
H805 C791 0.961 . S
H806 C791 0.961 . S
H807 C791 0.961 . S
H808 C792 0.931 . S
H809 C797 0.930 . S
H810 C798 0.956 . S
H811 C798 0.961 . S
H812 C798 0.961 . S
H813 C799 0.958 . S
H814 C799 0.961 . S
H815 C799 0.960 . S
C816 C817 1.391 . S
C816 C818 1.394 . S
C816 H832 0.931 . S
C817 C816 1.391 . S
C817 C821 1.376 . S
C818 C816 1.394 . S
C818 C819 1.369 . S
C818 C822 1.531 . S
C819 C818 1.369 . S
C819 C820 1.410 . S
C819 C827 1.503 . S
C820 C819 1.410 . S
C820 C821 1.392 . S
C820 C823 1.511 . S
C821 C817 1.376 . S
C821 C820 1.392 . S
C821 H833 0.929 . S
C822 C818 1.531 . S
C822 H834 0.960 . S
C822 H835 0.962 . S
C822 H836 0.960 . S
C823 C820 1.511 . S
C823 H837 0.961 . S
C823 H838 0.961 . S
C823 H839 0.961 . S
C824 C825 1.370 . S
C824 C826 1.363 . S
C824 H840 0.931 . S
C825 C824 1.370 . S
C825 C829 1.408 . S
C826 C824 1.363 . S
C826 C827 1.370 . S
C826 C830 1.524 . S
C827 C819 1.503 . S
C827 C826 1.370 . S
C827 C828 1.403 . S
C828 C827 1.403 . S
C828 C829 1.404 . S
C828 C831 1.539 . S
C829 C825 1.408 . S
C829 C828 1.404 . S
C829 H841 0.930 . S
C830 C826 1.524 . S
C830 H842 0.956 . S
C830 H843 0.961 . S
C830 H844 0.961 . S
C831 C828 1.539 . S
C831 H845 0.958 . S
C831 H846 0.961 . S
C831 H847 0.960 . S
H832 C816 0.931 . S
H833 C821 0.929 . S
H834 C822 0.960 . S
H835 C822 0.962 . S
H836 C822 0.960 . S
H837 C823 0.961 . S
H838 C823 0.961 . S
H839 C823 0.961 . S
H840 C824 0.931 . S
H841 C829 0.930 . S
H842 C830 0.956 . S
H843 C830 0.961 . S
H844 C830 0.961 . S
H845 C831 0.958 . S
H846 C831 0.961 . S
H847 C831 0.960 . S
C848 C849 1.391 . S
C848 C850 1.394 . S
C848 H864 0.931 . S
C849 C848 1.391 . S
C849 C853 1.376 . S
C850 C848 1.394 . S
C850 C851 1.369 . S
C850 C854 1.531 . S
C851 C850 1.369 . S
C851 C852 1.410 . S
C851 C859 1.503 . S
C852 C851 1.410 . S
C852 C853 1.392 . S
C852 C855 1.511 . S
C853 C849 1.376 . S
C853 C852 1.392 . S
C853 H865 0.929 . S
C854 C850 1.531 . S
C854 H866 0.960 . S
C854 H867 0.962 . S
C854 H868 0.960 . S
C855 C852 1.511 . S
C855 H869 0.961 . S
C855 H870 0.961 . S
C855 H871 0.961 . S
C856 C857 1.370 . S
C856 C858 1.363 . S
C856 H872 0.931 . S
C857 C856 1.370 . S
C857 C861 1.408 . S
C858 C856 1.363 . S
C858 C859 1.370 . S
C858 C862 1.524 . S
C859 C851 1.503 . S
C859 C858 1.370 . S
C859 C860 1.403 . S
C860 C859 1.403 . S
C860 C861 1.404 . S
C860 C863 1.539 . S
C861 C857 1.408 . S
C861 C860 1.404 . S
C861 H873 0.930 . S
C862 C858 1.524 . S
C862 H874 0.956 . S
C862 H875 0.961 . S
C862 H876 0.961 . S
C863 C860 1.539 . S
C863 H877 0.958 . S
C863 H878 0.961 . S
C863 H879 0.960 . S
H864 C848 0.931 . S
H865 C853 0.929 . S
H866 C854 0.960 . S
H867 C854 0.962 . S
H868 C854 0.960 . S
H869 C855 0.961 . S
H870 C855 0.961 . S
H871 C855 0.961 . S
H872 C856 0.931 . S
H873 C861 0.930 . S
H874 C862 0.956 . S
H875 C862 0.961 . S
H876 C862 0.961 . S
H877 C863 0.958 . S
H878 C863 0.961 . S
H879 C863 0.960 . S
C880 C881 1.391 . S
C880 C882 1.394 . S
C880 H896 0.931 . S
C881 C880 1.391 . S
C881 C885 1.376 . S
C882 C880 1.394 . S
C882 C883 1.369 . S
C882 C886 1.531 . S
C883 C882 1.369 . S
C883 C884 1.410 . S
C883 C891 1.503 . S
C884 C883 1.410 . S
C884 C885 1.392 . S
C884 C887 1.511 . S
C885 C881 1.376 . S
C885 C884 1.392 . S
C885 H897 0.929 . S
C886 C882 1.531 . S
C886 H898 0.960 . S
C886 H899 0.962 . S
C886 H900 0.960 . S
C887 C884 1.511 . S
C887 H901 0.961 . S
C887 H902 0.961 . S
C887 H903 0.961 . S
C888 C889 1.370 . S
C888 C890 1.363 . S
C888 H904 0.931 . S
C889 C888 1.370 . S
C889 C893 1.408 . S
C890 C888 1.363 . S
C890 C891 1.370 . S
C890 C894 1.524 . S
C891 C883 1.503 . S
C891 C890 1.370 . S
C891 C892 1.403 . S
C892 C891 1.403 . S
C892 C893 1.404 . S
C892 C895 1.539 . S
C893 C889 1.408 . S
C893 C892 1.404 . S
C893 H905 0.930 . S
C894 C890 1.524 . S
C894 H906 0.956 . S
C894 H907 0.961 . S
C894 H908 0.961 . S
C895 C892 1.539 . S
C895 H909 0.958 . S
C895 H910 0.961 . S
C895 H911 0.960 . S
H896 C880 0.931 . S
H897 C885 0.929 . S
H898 C886 0.960 . S
H899 C886 0.962 . S
H900 C886 0.960 . S
H901 C887 0.961 . S
H902 C887 0.961 . S
H903 C887 0.961 . S
H904 C888 0.931 . S
H905 C893 0.930 . S
H906 C894 0.956 . S
H907 C894 0.961 . S
H908 C894 0.961 . S
H909 C895 0.958 . S
H910 C895 0.961 . S
H911 C895 0.960 . S
C912 C913 1.391 . S
C912 C914 1.394 . S
C912 H928 0.931 . S
C913 C912 1.391 . S
C913 C917 1.376 . S
C914 C912 1.394 . S
C914 C915 1.369 . S
C914 C918 1.531 . S
C915 C914 1.369 . S
C915 C916 1.410 . S
C915 C923 1.503 . S
C916 C915 1.410 . S
C916 C917 1.392 . S
C916 C919 1.511 . S
C917 C913 1.376 . S
C917 C916 1.392 . S
C917 H929 0.929 . S
C918 C914 1.531 . S
C918 H930 0.960 . S
C918 H931 0.962 . S
C918 H932 0.960 . S
C919 C916 1.511 . S
C919 H933 0.961 . S
C919 H934 0.961 . S
C919 H935 0.961 . S
C920 C921 1.370 . S
C920 C922 1.363 . S
C920 H936 0.931 . S
C921 C920 1.370 . S
C921 C925 1.408 . S
C922 C920 1.363 . S
C922 C923 1.370 . S
C922 C926 1.524 . S
C923 C915 1.503 . S
C923 C922 1.370 . S
C923 C924 1.403 . S
C924 C923 1.403 . S
C924 C925 1.404 . S
C924 C927 1.539 . S
C925 C921 1.408 . S
C925 C924 1.404 . S
C925 H937 0.930 . S
C926 C922 1.524 . S
C926 H938 0.956 . S
C926 H939 0.961 . S
C926 H940 0.961 . S
C927 C924 1.539 . S
C927 H941 0.958 . S
C927 H942 0.961 . S
C927 H943 0.960 . S
H928 C912 0.931 . S
H929 C917 0.929 . S
H930 C918 0.960 . S
H931 C918 0.962 . S
H932 C918 0.960 . S
H933 C919 0.961 . S
H934 C919 0.961 . S
H935 C919 0.961 . S
H936 C920 0.931 . S
H937 C925 0.930 . S
H938 C926 0.956 . S
H939 C926 0.961 . S
H940 C926 0.961 . S
H941 C927 0.958 . S
H942 C927 0.961 . S
H943 C927 0.960 . S
C944 C945 1.391 . S
C944 C946 1.394 . S
C944 H960 0.931 . S
C945 C944 1.391 . S
C945 C949 1.376 . S
C946 C944 1.394 . S
C946 C947 1.369 . S
C946 C950 1.531 . S
C947 C946 1.369 . S
C947 C948 1.410 . S
C947 C955 1.503 . S
C948 C947 1.410 . S
C948 C949 1.392 . S
C948 C951 1.511 . S
C949 C945 1.376 . S
C949 C948 1.392 . S
C949 H961 0.929 . S
C950 C946 1.531 . S
C950 H962 0.960 . S
C950 H963 0.962 . S
C950 H964 0.960 . S
C951 C948 1.511 . S
C951 H965 0.961 . S
C951 H966 0.961 . S
C951 H967 0.961 . S
C952 C953 1.370 . S
C952 C954 1.363 . S
C952 H968 0.931 . S
C953 C952 1.370 . S
C953 C957 1.408 . S
C954 C952 1.363 . S
C954 C955 1.370 . S
C954 C958 1.524 . S
C955 C947 1.503 . S
C955 C954 1.370 . S
C955 C956 1.403 . S
C956 C955 1.403 . S
C956 C957 1.404 . S
C956 C959 1.539 . S
C957 C953 1.408 . S
C957 C956 1.404 . S
C957 H969 0.930 . S
C958 C954 1.524 . S
C958 H970 0.956 . S
C958 H971 0.961 . S
C958 H972 0.961 . S
C959 C956 1.539 . S
C959 H973 0.958 . S
C959 H974 0.961 . S
C959 H975 0.960 . S
H960 C944 0.931 . S
H961 C949 0.929 . S
H962 C950 0.960 . S
H963 C950 0.962 . S
H964 C950 0.960 . S
H965 C951 0.961 . S
H966 C951 0.961 . S
H967 C951 0.961 . S
H968 C952 0.931 . S
H969 C957 0.930 . S
H970 C958 0.956 . S
H971 C958 0.961 . S
H972 C958 0.961 . S
H973 C959 0.958 . S
H974 C959 0.961 . S
H975 C959 0.960 . S
C976 C977 1.391 . S
C976 C978 1.394 . S
C976 H992 0.931 . S
C977 C976 1.391 . S
C977 C981 1.376 . S
C978 C976 1.394 . S
C978 C979 1.369 . S
C978 C982 1.531 . S
C979 C978 1.369 . S
C979 C980 1.410 . S
C979 C987 1.503 . S
C980 C979 1.410 . S
C980 C981 1.392 . S
C980 C983 1.511 . S
C981 C977 1.376 . S
C981 C980 1.392 . S
C981 H993 0.929 . S
C982 C978 1.531 . S
C982 H994 0.960 . S
C982 H995 0.962 . S
C982 H996 0.960 . S
C983 C980 1.511 . S
C983 H997 0.961 . S
C983 H998 0.961 . S
C983 H999 0.961 . S
C984 C985 1.370 . S
C984 C986 1.363 . S
C984 H1000 0.931 . S
C985 C984 1.370 . S
C985 C989 1.408 . S
C986 C984 1.363 . S
C986 C987 1.370 . S
C986 C990 1.524 . S
C987 C979 1.503 . S
C987 C986 1.370 . S
C987 C988 1.403 . S
C988 C987 1.403 . S
C988 C989 1.404 . S
C988 C991 1.539 . S
C989 C985 1.408 . S
C989 C988 1.404 . S
C989 H1001 0.930 . S
C990 C986 1.524 . S
C990 H1002 0.956 . S
C990 H1003 0.961 . S
C990 H1004 0.961 . S
C991 C988 1.539 . S
C991 H1005 0.958 . S
C991 H1006 0.961 . S
C991 H1007 0.960 . S
H992 C976 0.931 . S
H993 C981 0.929 . S
H994 C982 0.960 . S
H995 C982 0.962 . S
H996 C982 0.960 . S
H997 C983 0.961 . S
H998 C983 0.961 . S
H999 C983 0.961 . S
H1000 C984 0.931 . S
H1001 C989 0.930 . S
H1002 C990 0.956 . S
H1003 C990 0.961 . S
H1004 C990 0.961 . S
H1005 C991 0.958 . S
H1006 C991 0.961 . S
H1007 C991 0.960 . S
C1008 C1009 1.391 . S
C1008 C1010 1.394 . S
C1008 H1024 0.931 . S
C1009 C1008 1.391 . S
C1009 C1013 1.376 . S
C1010 C1008 1.394 . S
C1010 C1011 1.369 . S
C1010 C1014 1.531 . S
C1011 C1010 1.369 . S
C1011 C1012 1.410 . S
C1011 C1019 1.503 . S
C1012 C1011 1.410 . S
C1012 C1013 1.392 . S
C1012 C1015 1.511 . S
C1013 C1009 1.376 . S
C1013 C1012 1.392 . S
C1013 H1025 0.929 . S
C1014 C1010 1.531 . S
C1014 H1026 0.960 . S
C1014 H1027 0.962 . S
C1014 H1028 0.960 . S
C1015 C1012 1.511 . S
C1015 H1029 0.961 . S
C1015 H1030 0.961 . S
C1015 H1031 0.961 . S
C1016 C1017 1.370 . S
C1016 C1018 1.363 . S
C1016 H1032 0.931 . S
C1017 C1016 1.370 . S
C1017 C1021 1.408 . S
C1018 C1016 1.363 . S
C1018 C1019 1.370 . S
C1018 C1022 1.524 . S
C1019 C1011 1.503 . S
C1019 C1018 1.370 . S
C1019 C1020 1.403 . S
C1020 C1019 1.403 . S
C1020 C1021 1.404 . S
C1020 C1023 1.539 . S
C1021 C1017 1.408 . S
C1021 C1020 1.404 . S
C1021 H1033 0.930 . S
C1022 C1018 1.524 . S
C1022 H1034 0.956 . S
C1022 H1035 0.961 . S
C1022 H1036 0.961 . S
C1023 C1020 1.539 . S
C1023 H1037 0.958 . S
C1023 H1038 0.961 . S
C1023 H1039 0.960 . S
H1024 C1008 0.931 . S
H1025 C1013 0.929 . S
H1026 C1014 0.960 . S
H1027 C1014 0.962 . S
H1028 C1014 0.960 . S
H1029 C1015 0.961 . S
H1030 C1015 0.961 . S
H1031 C1015 0.961 . S
H1032 C1016 0.931 . S
H1033 C1021 0.930 . S
H1034 C1022 0.956 . S
H1035 C1022 0.961 . S
H1036 C1022 0.961 . S
H1037 C1023 0.958 . S
H1038 C1023 0.961 . S
H1039 C1023 0.960 . S
C1040 C1041 1.391 . S
C1040 C1042 1.394 . S
C1040 H1056 0.931 . S
C1041 C1040 1.391 . S
C1041 C1045 1.376 . S
C1042 C1040 1.394 . S
C1042 C1043 1.369 . S
C1042 C1046 1.531 . S
C1043 C1042 1.369 . S
C1043 C1044 1.410 . S
C1043 C1051 1.503 . S
C1044 C1043 1.410 . S
C1044 C1045 1.392 . S
C1044 C1047 1.511 . S
C1045 C1041 1.376 . S
C1045 C1044 1.392 . S
C1045 H1057 0.929 . S
C1046 C1042 1.531 . S
C1046 H1058 0.960 . S
C1046 H1059 0.962 . S
C1046 H1060 0.960 . S
C1047 C1044 1.511 . S
C1047 H1061 0.961 . S
C1047 H1062 0.961 . S
C1047 H1063 0.961 . S
C1048 C1049 1.370 . S
C1048 C1050 1.363 . S
C1048 H1064 0.931 . S
C1049 C1048 1.370 . S
C1049 C1053 1.408 . S
C1050 C1048 1.363 . S
C1050 C1051 1.370 . S
C1050 C1054 1.524 . S
C1051 C1043 1.503 . S
C1051 C1050 1.370 . S
C1051 C1052 1.403 . S
C1052 C1051 1.403 . S
C1052 C1053 1.404 . S
C1052 C1055 1.539 . S
C1053 C1049 1.408 . S
C1053 C1052 1.404 . S
C1053 H1065 0.930 . S
C1054 C1050 1.524 . S
C1054 H1066 0.956 . S
C1054 H1067 0.961 . S
C1054 H1068 0.961 . S
C1055 C1052 1.539 . S
C1055 H1069 0.958 . S
C1055 H1070 0.961 . S
C1055 H1071 0.960 . S
H1056 C1040 0.931 . S
H1057 C1045 0.929 . S
H1058 C1046 0.960 . S
H1059 C1046 0.962 . S
H1060 C1046 0.960 . S
H1061 C1047 0.961 . S
H1062 C1047 0.961 . S
H1063 C1047 0.961 . S
H1064 C1048 0.931 . S
H1065 C1053 0.930 . S
H1066 C1054 0.956 . S
H1067 C1054 0.961 . S
H1068 C1054 0.961 . S
H1069 C1055 0.958 . S
H1070 C1055 0.961 . S
H1071 C1055 0.960 . S
C1072 C1073 1.391 . S
C1072 C1074 1.394 . S
C1072 H1088 0.931 . S
C1073 C1072 1.391 . S
C1073 C1077 1.376 . S
C1074 C1072 1.394 . S
C1074 C1075 1.369 . S
C1074 C1078 1.531 . S
C1075 C1074 1.369 . S
C1075 C1076 1.410 . S
C1075 C1083 1.503 . S
C1076 C1075 1.410 . S
C1076 C1077 1.392 . S
C1076 C1079 1.511 . S
C1077 C1073 1.376 . S
C1077 C1076 1.392 . S
C1077 H1089 0.929 . S
C1078 C1074 1.531 . S
C1078 H1090 0.960 . S
C1078 H1091 0.962 . S
C1078 H1092 0.960 . S
C1079 C1076 1.511 . S
C1079 H1093 0.961 . S
C1079 H1094 0.961 . S
C1079 H1095 0.961 . S
C1080 C1081 1.370 . S
C1080 C1082 1.363 . S
C1080 H1096 0.931 . S
C1081 C1080 1.370 . S
C1081 C1085 1.408 . S
C1082 C1080 1.363 . S
C1082 C1083 1.370 . S
C1082 C1086 1.524 . S
C1083 C1075 1.503 . S
C1083 C1082 1.370 . S
C1083 C1084 1.403 . S
C1084 C1083 1.403 . S
C1084 C1085 1.404 . S
C1084 C1087 1.539 . S
C1085 C1081 1.408 . S
C1085 C1084 1.404 . S
C1085 H1097 0.930 . S
C1086 C1082 1.524 . S
C1086 H1098 0.956 . S
C1086 H1099 0.961 . S
C1086 H1100 0.961 . S
C1087 C1084 1.539 . S
C1087 H1101 0.958 . S
C1087 H1102 0.961 . S
C1087 H1103 0.960 . S
H1088 C1072 0.931 . S
H1089 C1077 0.929 . S
H1090 C1078 0.960 . S
H1091 C1078 0.962 . S
H1092 C1078 0.960 . S
H1093 C1079 0.961 . S
H1094 C1079 0.961 . S
H1095 C1079 0.961 . S
H1096 C1080 0.931 . S
H1097 C1085 0.930 . S
H1098 C1086 0.956 . S
H1099 C1086 0.961 . S
H1100 C1086 0.961 . S
H1101 C1087 0.958 . S
H1102 C1087 0.961 . S
H1103 C1087 0.960 . S
C1104 C1105 1.391 . S
C1104 C1106 1.394 . S
C1104 H1120 0.931 . S
C1105 C1104 1.391 . S
C1105 C1109 1.376 . S
C1106 C1104 1.394 . S
C1106 C1107 1.369 . S
C1106 C1110 1.531 . S
C1107 C1106 1.369 . S
C1107 C1108 1.410 . S
C1107 C1115 1.503 . S
C1108 C1107 1.410 . S
C1108 C1109 1.392 . S
C1108 C1111 1.511 . S
C1109 C1105 1.376 . S
C1109 C1108 1.392 . S
C1109 H1121 0.929 . S
C1110 C1106 1.531 . S
C1110 H1122 0.960 . S
C1110 H1123 0.962 . S
C1110 H1124 0.960 . S
C1111 C1108 1.511 . S
C1111 H1125 0.961 . S
C1111 H1126 0.961 . S
C1111 H1127 0.961 . S
C1112 C1113 1.370 . S
C1112 C1114 1.363 . S
C1112 H1128 0.931 . S
C1113 C1112 1.370 . S
C1113 C1117 1.408 . S
C1114 C1112 1.363 . S
C1114 C1115 1.370 . S
C1114 C1118 1.524 . S
C1115 C1107 1.503 . S
C1115 C1114 1.370 . S
C1115 C1116 1.403 . S
C1116 C1115 1.403 . S
C1116 C1117 1.404 . S
C1116 C1119 1.539 . S
C1117 C1113 1.408 . S
C1117 C1116 1.404 . S
C1117 H1129 0.930 . S
C1118 C1114 1.524 . S
C1118 H1130 0.956 . S
C1118 H1131 0.961 . S
C1118 H1132 0.961 . S
C1119 C1116 1.539 . S
C1119 H1133 0.958 . S
C1119 H1134 0.961 . S
C1119 H1135 0.960 . S
H1120 C1104 0.931 . S
H1121 C1109 0.929 . S
H1122 C1110 0.960 . S
H1123 C1110 0.962 . S
H1124 C1110 0.960 . S
H1125 C1111 0.961 . S
H1126 C1111 0.961 . S
H1127 C1111 0.961 . S
H1128 C1112 0.931 . S
H1129 C1117 0.930 . S
H1130 C1118 0.956 . S
H1131 C1118 0.961 . S
H1132 C1118 0.961 . S
H1133 C1119 0.958 . S
H1134 C1119 0.961 . S
H1135 C1119 0.960 . S
C1136 C1137 1.391 . S
C1136 C1138 1.394 . S
C1136 H1152 0.931 . S
C1137 C1136 1.391 . S
C1137 C1141 1.376 . S
C1138 C1136 1.394 . S
C1138 C1139 1.369 . S
C1138 C1142 1.531 . S
C1139 C1138 1.369 . S
C1139 C1140 1.410 . S
C1139 C1147 1.503 . S
C1140 C1139 1.410 . S
C1140 C1141 1.392 . S
C1140 C1143 1.511 . S
C1141 C1137 1.376 . S
C1141 C1140 1.392 . S
C1141 H1153 0.929 . S
C1142 C1138 1.531 . S
C1142 H1154 0.960 . S
C1142 H1155 0.962 . S
C1142 H1156 0.960 . S
C1143 C1140 1.511 . S
C1143 H1157 0.961 . S
C1143 H1158 0.961 . S
C1143 H1159 0.961 . S
C1144 C1145 1.370 . S
C1144 C1146 1.363 . S
C1144 H1160 0.931 . S
C1145 C1144 1.370 . S
C1145 C1149 1.408 . S
C1146 C1144 1.363 . S
C1146 C1147 1.370 . S
C1146 C1150 1.524 . S
C1147 C1139 1.503 . S
C1147 C1146 1.370 . S
C1147 C1148 1.403 . S
C1148 C1147 1.403 . S
C1148 C1149 1.404 . S
C1148 C1151 1.539 . S
C1149 C1145 1.408 . S
C1149 C1148 1.404 . S
C1149 H1161 0.930 . S
C1150 C1146 1.524 . S
C1150 H1162 0.956 . S
C1150 H1163 0.961 . S
C1150 H1164 0.961 . S
C1151 C1148 1.539 . S
C1151 H1165 0.958 . S
C1151 H1166 0.961 . S
C1151 H1167 0.960 . S
H1152 C1136 0.931 . S
H1153 C1141 0.929 . S
H1154 C1142 0.960 . S
H1155 C1142 0.962 . S
H1156 C1142 0.960 . S
H1157 C1143 0.961 . S
H1158 C1143 0.961 . S
H1159 C1143 0.961 . S
H1160 C1144 0.931 . S
H1161 C1149 0.930 . S
H1162 C1150 0.956 . S
H1163 C1150 0.961 . S
H1164 C1150 0.961 . S
H1165 C1151 0.958 . S
H1166 C1151 0.961 . S
H1167 C1151 0.960 . S
C1168 C1169 1.391 . S
C1168 C1170 1.394 . S
C1168 H1184 0.931 . S
C1169 C1168 1.391 . S
C1169 C1173 1.376 . S
C1170 C1168 1.394 . S
C1170 C1171 1.369 . S
C1170 C1174 1.531 . S
C1171 C1170 1.369 . S
C1171 C1172 1.410 . S
C1171 C1179 1.503 . S
C1172 C1171 1.410 . S
C1172 C1173 1.392 . S
C1172 C1175 1.511 . S
C1173 C1169 1.376 . S
C1173 C1172 1.392 . S
C1173 H1185 0.929 . S
C1174 C1170 1.531 . S
C1174 H1186 0.960 . S
C1174 H1187 0.962 . S
C1174 H1188 0.960 . S
C1175 C1172 1.511 . S
C1175 H1189 0.961 . S
C1175 H1190 0.961 . S
C1175 H1191 0.961 . S
C1176 C1177 1.370 . S
C1176 C1178 1.363 . S
C1176 H1192 0.931 . S
C1177 C1176 1.370 . S
C1177 C1181 1.408 . S
C1178 C1176 1.363 . S
C1178 C1179 1.370 . S
C1178 C1182 1.524 . S
C1179 C1171 1.503 . S
C1179 C1178 1.370 . S
C1179 C1180 1.403 . S
C1180 C1179 1.403 . S
C1180 C1181 1.404 . S
C1180 C1183 1.539 . S
C1181 C1177 1.408 . S
C1181 C1180 1.404 . S
C1181 H1193 0.930 . S
C1182 C1178 1.524 . S
C1182 H1194 0.956 . S
C1182 H1195 0.961 . S
C1182 H1196 0.961 . S
C1183 C1180 1.539 . S
C1183 H1197 0.958 . S
C1183 H1198 0.961 . S
C1183 H1199 0.960 . S
H1184 C1168 0.931 . S
H1185 C1173 0.929 . S
H1186 C1174 0.960 . S
H1187 C1174 0.962 . S
H1188 C1174 0.960 . S
H1189 C1175 0.961 . S
H1190 C1175 0.961 . S
H1191 C1175 0.961 . S
H1192 C1176 0.931 . S
H1193 C1181 0.930 . S
H1194 C1182 0.956 . S
H1195 C1182 0.961 . S
H1196 C1182 0.961 . S
H1197 C1183 0.958 . S
H1198 C1183 0.961 . S
H1199 C1183 0.960 . S
C1200 C1201 1.391 . S
C1200 C1202 1.394 . S
C1200 H1216 0.931 . S
C1201 C1200 1.391 . S
C1201 C1205 1.376 . S
C1202 C1200 1.394 . S
C1202 C1203 1.369 . S
C1202 C1206 1.531 . S
C1203 C1202 1.369 . S
C1203 C1204 1.410 . S
C1203 C1211 1.503 1_556 S
C1204 C1203 1.410 . S
C1204 C1205 1.392 . S
C1204 C1207 1.511 1_556 S
C1205 C1201 1.376 . S
C1205 C1204 1.392 . S
C1205 H1217 0.929 . S
C1206 C1202 1.531 . S
C1206 H1218 0.960 . S
C1206 H1219 0.962 . S
C1206 H1220 0.960 . S
C1207 C1204 1.511 1_554 S
C1207 H1221 0.961 . S
C1207 H1222 0.961 . S
C1207 H1223 0.961 . S
C1208 C1209 1.370 . S
C1208 C1210 1.363 . S
C1208 H1224 0.931 . S
C1209 C1208 1.370 . S
C1209 C1213 1.408 . S
C1210 C1208 1.363 . S
C1210 C1211 1.370 . S
C1210 C1214 1.524 1_554 S
C1211 C1203 1.503 1_554 S
C1211 C1210 1.370 . S
C1211 C1212 1.403 . S
C1212 C1211 1.403 . S
C1212 C1213 1.404 . S
C1212 C1215 1.539 . S
C1213 C1209 1.408 . S
C1213 C1212 1.404 . S
C1213 H1225 0.930 . S
C1214 C1210 1.524 1_556 S
C1214 H1226 0.956 . S
C1214 H1227 0.961 . S
C1214 H1228 0.961 . S
C1215 C1212 1.539 . S
C1215 H1229 0.958 . S
C1215 H1230 0.961 . S
C1215 H1231 0.960 . S
H1216 C1200 0.931 . S
H1217 C1205 0.929 . S
H1218 C1206 0.960 . S
H1219 C1206 0.962 . S
H1220 C1206 0.960 . S
H1221 C1207 0.961 . S
H1222 C1207 0.961 . S
H1223 C1207 0.961 . S
H1224 C1208 0.931 . S
H1225 C1213 0.930 . S
H1226 C1214 0.956 . S
H1227 C1214 0.961 . S
H1228 C1214 0.961 . S
H1229 C1215 0.958 . S
H1230 C1215 0.961 . S
H1231 C1215 0.960 . S
C1232 C1233 1.391 . S
C1232 C1234 1.394 . S
C1232 H1248 0.931 . S
C1233 C1232 1.391 . S
C1233 C1237 1.376 . S
C1234 C1232 1.394 . S
C1234 C1235 1.369 . S
C1234 C1238 1.531 1_455 S
C1235 C1234 1.369 . S
C1235 C1236 1.410 . S
C1235 C1243 1.503 1_455 S
C1236 C1235 1.410 . S
C1236 C1237 1.392 . S
C1236 C1239 1.511 . S
C1237 C1233 1.376 . S
C1237 C1236 1.392 . S
C1237 H1249 0.929 . S
C1238 C1234 1.531 1_655 S
C1238 H1250 0.960 . S
C1238 H1251 0.962 . S
C1238 H1252 0.960 . S
C1239 C1236 1.511 . S
C1239 H1253 0.961 . S
C1239 H1254 0.961 . S
C1239 H1255 0.961 . S
C1240 C1241 1.370 . S
C1240 C1242 1.363 . S
C1240 H1256 0.931 . S
C1241 C1240 1.370 . S
C1241 C1245 1.408 . S
C1242 C1240 1.363 . S
C1242 C1243 1.370 . S
C1242 C1246 1.524 . S
C1243 C1235 1.503 1_655 S
C1243 C1242 1.370 . S
C1243 C1244 1.403 . S
C1244 C1243 1.403 . S
C1244 C1245 1.404 . S
C1244 C1247 1.539 . S
C1245 C1241 1.408 . S
C1245 C1244 1.404 . S
C1245 H1257 0.930 . S
C1246 C1242 1.524 . S
C1246 H1258 0.956 . S
C1246 H1259 0.961 1_655 S
C1246 H1260 0.961 . S
C1247 C1244 1.539 . S
C1247 H1261 0.958 . S
C1247 H1262 0.961 . S
C1247 H1263 0.960 1_655 S
H1248 C1232 0.931 . S
H1249 C1237 0.929 . S
H1250 C1238 0.960 . S
H1251 C1238 0.962 . S
H1252 C1238 0.960 . S
H1253 C1239 0.961 . S
H1254 C1239 0.961 . S
H1255 C1239 0.961 . S
H1256 C1240 0.931 . S
H1257 C1245 0.930 . S
H1258 C1246 0.956 . S
H1259 C1246 0.961 1_455 S
H1260 C1246 0.961 . S
H1261 C1247 0.958 . S
H1262 C1247 0.961 . S
H1263 C1247 0.960 1_455 S
C1264 C1265 1.391 . S
C1264 C1266 1.394 . S
C1264 H1280 0.931 . S
C1265 C1264 1.391 . S
C1265 C1269 1.376 . S
C1266 C1264 1.394 . S
C1266 C1267 1.369 . S
C1266 C1270 1.531 1_554 S
C1267 C1266 1.369 . S
C1267 C1268 1.410 . S
C1267 C1275 1.503 1_564 S
C1268 C1267 1.410 . S
C1268 C1269 1.392 . S
C1268 C1271 1.511 1_565 S
C1269 C1265 1.376 . S
C1269 C1268 1.392 . S
C1269 H1281 0.929 . S
C1270 C1266 1.531 1_556 S
C1270 H1282 0.960 . S
C1270 H1283 0.962 . S
C1270 H1284 0.960 . S
C1271 C1268 1.511 1_545 S
C1271 H1285 0.961 . S
C1271 H1286 0.961 . S
C1271 H1287 0.961 1_545 S
C1272 C1273 1.370 . S
C1272 C1274 1.363 . S
C1272 H1288 0.931 . S
C1273 C1272 1.370 . S
C1273 C1277 1.408 . S
C1274 C1272 1.363 . S
C1274 C1275 1.370 . S
C1274 C1278 1.524 1_556 S
C1275 C1267 1.503 1_546 S
C1275 C1274 1.370 . S
C1275 C1276 1.403 . S
C1276 C1275 1.403 . S
C1276 C1277 1.404 . S
C1276 C1279 1.539 1_545 S
C1277 C1273 1.408 . S
C1277 C1276 1.404 . S
C1277 H1289 0.930 . S
C1278 C1274 1.524 1_554 S
C1278 H1290 0.956 . S
C1278 H1291 0.961 . S
C1278 H1292 0.961 . S
C1279 C1276 1.539 1_565 S
C1279 H1293 0.958 . S
C1279 H1294 0.961 . S
C1279 H1295 0.960 . S
H1280 C1264 0.931 . S
H1281 C1269 0.929 . S
H1282 C1270 0.960 . S
H1283 C1270 0.962 . S
H1284 C1270 0.960 . S
H1285 C1271 0.961 . S
H1286 C1271 0.961 . S
H1287 C1271 0.961 1_565 S
H1288 C1272 0.931 . S
H1289 C1277 0.930 . S
H1290 C1278 0.956 . S
H1291 C1278 0.961 . S
H1292 C1278 0.961 . S
H1293 C1279 0.958 . S
H1294 C1279 0.961 . S
H1295 C1279 0.960 . S
C1296 C1297 1.391 . S
C1296 C1298 1.394 . S
C1296 H1312 0.931 . S
C1297 C1296 1.391 . S
C1297 C1301 1.376 . S
C1298 C1296 1.394 . S
C1298 C1299 1.369 . S
C1298 C1302 1.531 . S
C1299 C1298 1.369 . S
C1299 C1300 1.410 . S
C1299 C1307 1.503 . S
C1300 C1299 1.410 . S
C1300 C1301 1.392 . S
C1300 C1303 1.511 . S
C1301 C1297 1.376 . S
C1301 C1300 1.392 . S
C1301 H1313 0.929 . S
C1302 C1298 1.531 . S
C1302 H1314 0.960 . S
C1302 H1315 0.962 . S
C1302 H1316 0.960 . S
C1303 C1300 1.511 . S
C1303 H1317 0.961 . S
C1303 H1318 0.961 . S
C1303 H1319 0.961 . S
C1304 C1305 1.370 . S
C1304 C1306 1.363 . S
C1304 H1320 0.931 . S
C1305 C1304 1.370 . S
C1305 C1309 1.408 . S
C1306 C1304 1.363 . S
C1306 C1307 1.370 . S
C1306 C1310 1.524 . S
C1307 C1299 1.503 . S
C1307 C1306 1.370 . S
C1307 C1308 1.403 . S
C1308 C1307 1.403 . S
C1308 C1309 1.404 . S
C1308 C1311 1.539 . S
C1309 C1305 1.408 . S
C1309 C1308 1.404 . S
C1309 H1321 0.930 . S
C1310 C1306 1.524 . S
C1310 H1322 0.956 . S
C1310 H1323 0.961 . S
C1310 H1324 0.961 . S
C1311 C1308 1.539 . S
C1311 H1325 0.958 . S
C1311 H1326 0.961 . S
C1311 H1327 0.960 . S
H1312 C1296 0.931 . S
H1313 C1301 0.929 . S
H1314 C1302 0.960 . S
H1315 C1302 0.962 . S
H1316 C1302 0.960 . S
H1317 C1303 0.961 . S
H1318 C1303 0.961 . S
H1319 C1303 0.961 . S
H1320 C1304 0.931 . S
H1321 C1309 0.930 . S
H1322 C1310 0.956 . S
H1323 C1310 0.961 . S
H1324 C1310 0.961 . S
H1325 C1311 0.958 . S
H1326 C1311 0.961 . S
H1327 C1311 0.960 . S
C1328 C1329 1.391 . S
C1328 C1330 1.394 . S
C1328 H1344 0.931 . S
C1329 C1328 1.391 . S
C1329 C1333 1.376 . S
C1330 C1328 1.394 . S
C1330 C1331 1.369 . S
C1330 C1334 1.531 . S
C1331 C1330 1.369 . S
C1331 C1332 1.410 . S
C1331 C1339 1.503 1_656 S
C1332 C1331 1.410 . S
C1332 C1333 1.392 . S
C1332 C1335 1.524 . S
C1333 C1329 1.376 . S
C1333 C1332 1.392 . S
C1333 H1345 0.929 . S
C1334 C1330 1.531 . S
C1334 H1346 0.960 1_556 S
C1334 H1347 0.962 1_655 S
C1334 H1348 0.960 . S
C1335 C1332 1.524 . S
C1335 H1349 0.980 . S
C1335 H1350 0.971 1_556 S
C1335 H1351 0.937 1_556 S
C1336 C1337 1.370 . S
C1336 C1338 1.363 . S
C1336 H1352 0.931 . S
C1337 C1336 1.370 . S
C1337 C1341 1.408 . S
C1338 C1336 1.363 . S
C1338 C1339 1.370 . S
C1338 C1342 1.524 1_554 S
C1339 C1331 1.503 1_454 S
C1339 C1338 1.370 . S
C1339 C1340 1.403 . S
C1340 C1339 1.403 . S
C1340 C1341 1.404 . S
C1340 C1343 1.539 1_455 S
C1341 C1337 1.408 . S
C1341 C1340 1.404 . S
C1341 H1353 0.930 . S
C1342 C1338 1.524 1_556 S
C1342 H1354 0.956 . S
C1342 H1355 0.961 . S
C1342 H1356 0.961 . S
C1343 C1340 1.539 1_655 S
C1343 H1357 0.958 . S
C1343 H1358 0.961 . S
C1343 H1359 0.960 . S
H1344 C1328 0.931 . S
H1345 C1333 0.929 . S
H1346 C1334 0.960 1_554 S
H1347 C1334 0.962 1_455 S
H1348 C1334 0.960 . S
H1349 C1335 0.980 . S
H1350 C1335 0.971 1_554 S
H1351 C1335 0.937 1_554 S
H1352 C1336 0.931 . S
H1353 C1341 0.930 . S
H1354 C1342 0.956 . S
H1355 C1342 0.961 . S
H1356 C1342 0.961 . S
H1357 C1343 0.958 . S
H1358 C1343 0.961 . S
H1359 C1343 0.960 . S
C1360 C1361 1.391 . S
C1360 C1362 1.394 . S
C1360 H1376 0.931 . S
C1361 C1360 1.391 . S
C1361 C1365 1.376 . S
C1362 C1360 1.394 . S
C1362 C1363 1.369 . S
C1362 C1366 1.531 1_565 S
C1363 C1362 1.369 . S
C1363 C1364 1.410 . S
C1363 C1371 1.503 1_565 S
C1364 C1363 1.410 . S
C1364 C1365 1.392 . S
C1364 C1367 1.511 . S
C1365 C1361 1.376 . S
C1365 C1364 1.392 . S
C1365 H1377 0.929 . S
C1366 C1362 1.531 1_545 S
C1366 H1378 0.960 . S
C1366 H1379 0.962 . S
C1366 H1380 0.960 . S
C1367 C1364 1.511 . S
C1367 H1381 0.961 . S
C1367 H1382 0.961 . S
C1367 H1383 0.961 . S
C1368 C1369 1.370 . S
C1368 C1370 1.363 . S
C1368 H1384 0.931 . S
C1369 C1368 1.370 . S
C1369 C1373 1.408 . S
C1370 C1368 1.363 . S
C1370 C1371 1.370 . S
C1370 C1374 1.524 1_545 S
C1371 C1363 1.503 1_545 S
C1371 C1370 1.370 . S
C1371 C1372 1.403 . S
C1372 C1371 1.403 . S
C1372 C1373 1.404 . S
C1372 C1375 1.539 . S
C1373 C1369 1.408 . S
C1373 C1372 1.404 . S
C1373 H1385 0.930 . S
C1374 C1370 1.524 1_565 S
C1374 H1386 0.956 . S
C1374 H1387 0.961 . S
C1374 H1388 0.961 . S
C1375 C1372 1.539 . S
C1375 H1389 0.958 . S
C1375 H1390 0.961 . S
C1375 H1391 0.960 . S
H1376 C1360 0.931 . S
H1377 C1365 0.929 . S
H1378 C1366 0.960 . S
H1379 C1366 0.962 . S
H1380 C1366 0.960 . S
H1381 C1367 0.961 . S
H1382 C1367 0.961 . S
H1383 C1367 0.961 . S
H1384 C1368 0.931 . S
H1385 C1373 0.930 . S
H1386 C1374 0.956 . S
H1387 C1374 0.961 . S
H1388 C1374 0.961 . S
H1389 C1375 0.958 . S
H1390 C1375 0.961 . S
H1391 C1375 0.960 . S
C241 C82 1.139 . S
C249 C9 1.083 . S
C273 C102 1.098 . S
C281 C29 1.116 1_455 S
C305 C49 1.074 1_545 S
C313 C2 1.143 . S
C337 C69 1.120 . S
C345 C22 1.148 . S
C369 C89 1.079 1_655 S
C377 C42 1.144 . S
C401 C62 1.105 . S
C409 C109 1.119 1_565 S
C433 C162 1.168 . S
C441 C129 1.099 . S
C465 C149 1.046 1_455 S
C473 C182 1.121 . S
C497 C202 1.131 . S
C505 C169 1.125 1_545 S
C529 C189 1.155 . S
C537 C222 1.136 . S
C561 C209 1.049 1_655 S
C569 C122 1.118 . S
C593 C142 1.121 . S
C601 C229 1.124 1_565 S
C625 C84 1.287 . S
C633 C12 1.397 . S
C657 C32 1.395 . S
C665 C104 1.305 . S
C689 C52 1.429 . S
C697 C4 1.289 . S
C721 C72 1.430 . S
C729 C24 1.303 . S
C753 C44 1.228 . S
C761 C92 1.402 . S
C785 C64 1.237 . S
C793 C112 1.409 . S
C817 C164 1.258 . S
C825 C132 1.414 . S
C849 C152 1.427 . S
C857 C184 1.284 . S
C881 C172 1.377 . S
C889 C204 1.285 . S
C913 C224 1.321 . S
C921 C192 1.402 . S
C945 C212 1.380 . S
C953 C124 1.291 . S
C977 C144 1.250 . S
C985 C232 1.413 . S
C1009 C219 1.681 . S
C1017 C19 1.676 . S
C1041 C39 1.678 . S
C1049 C239 1.675 . S
C1073 C59 1.659 . S
C1081 C139 1.669 . S
C1105 C79 1.649 . S
C1113 C159 1.664 . S
C1137 C99 1.680 . S
C1145 C179 1.675 . S
C1169 C199 1.647 . S
C1177 C119 1.659 . S
C1201 C198 1.862 . S
C1209 C18 1.833 . S
C1233 C218 1.854 . S
C1241 C38 1.841 . S
C1265 C58 1.846 . S
C1273 C238 1.827 . S
C1297 C78 1.857 . S
C1305 C138 1.838 . S
C1329 C158 1.860 . S
C1337 C98 1.828 . S
C1361 C178 1.826 . S
C1369 C118 1.850 . S
