# Generated by pormake.
# Topology crb, (4)-cn, num edge types: 1
# Building blocks:
#     Node 0, Type 0, BuildingBlock: QUQFOY_clean_sbu_3, # of connection points: 4
#     Node 1, Type 0, BuildingBlock: QUQFOY_clean_sbu_3, # of connection points: 4
#     Node 2, Type 0, BuildingBlock: QUQFOY_clean_sbu_3, # of connection points: 4
#     Node 3, Type 0, BuildingBlock: QUQFOY_clean_sbu_3, # of connection points: 4
#     Node 4, Type 0, BuildingBlock: QUQFOY_clean_sbu_3, # of connection points: 4
#     Node 5, Type 0, BuildingBlock: QUQFOY_clean_sbu_3, # of connection points: 4
#     Node 6, Type 0, BuildingBlock: QUQFOY_clean_sbu_3, # of connection points: 4
#     Node 7, Type 0, BuildingBlock: QUQFOY_clean_sbu_3, # of connection points: 4
#     Edge 8, Type (0, 0), BuildingBlock: FUNLAD_clean_linker_0, # of connection points: 2
#     Edge 9, Type (0, 0), BuildingBlock: FUNLAD_clean_linker_0, # of connection points: 2
#     Edge 10, Type (0, 0), BuildingBlock: FUNLAD_clean_linker_0, # of connection points: 2
#     Edge 11, Type (0, 0), BuildingBlock: FUNLAD_clean_linker_0, # of connection points: 2
#     Edge 12, Type (0, 0), BuildingBlock: FUNLAD_clean_linker_0, # of connection points: 2
#     Edge 13, Type (0, 0), BuildingBlock: FUNLAD_clean_linker_0, # of connection points: 2
#     Edge 14, Type (0, 0), BuildingBlock: FUNLAD_clean_linker_0, # of connection points: 2
#     Edge 15, Type (0, 0), BuildingBlock: FUNLAD_clean_linker_0, # of connection points: 2
#     Edge 16, Type (0, 0), BuildingBlock: FUNLAD_clean_linker_0, # of connection points: 2
#     Edge 17, Type (0, 0), BuildingBlock: FUNLAD_clean_linker_0, # of connection points: 2
#     Edge 18, Type (0, 0), BuildingBlock: FUNLAD_clean_linker_0, # of connection points: 2
#     Edge 19, Type (0, 0), BuildingBlock: FUNLAD_clean_linker_0, # of connection points: 2
#     Edge 20, Type (0, 0), BuildingBlock: FUNLAD_clean_linker_0, # of connection points: 2
#     Edge 21, Type (0, 0), BuildingBlock: FUNLAD_clean_linker_0, # of connection points: 2
#     Edge 22, Type (0, 0), BuildingBlock: FUNLAD_clean_linker_0, # of connection points: 2
#     Edge 23, Type (0, 0), BuildingBlock: FUNLAD_clean_linker_0, # of connection points: 2
# Relax obj value: 0.113
# Max RMSD: 0.155
# Mean RMSD: 0.155
data_MOF--net-crb--node1-QUQFOY_clean_sbu_3--edge1-FUNLAD_clean_linker_0
_symmetry_space_group_name_H-M    P1
_symmetry_Int_Tables_number       1
_symmetry_cell_setting            triclinic
loop_
_symmetry_equiv_pos_as_xyz
'x, y, z'
_cell_length_a     52.001127
_cell_length_b     51.614526
_cell_length_c     27.993265
_cell_angle_alpha  89.695908
_cell_angle_beta   89.962415
_cell_angle_gamma 89.668531
loop_
_atom_site_label
_atom_site_type_symbol
_atom_site_fract_x
_atom_site_fract_y
_atom_site_fract_z
_atom_type_partial_charge
C0 C 0.3694 0.31734 0.08553 0.0
O1 O 0.36271 0.32396 0.12741 0.0
Cd2 Cd 0.31903 0.33204 0.15022 0.0
O3 O 0.35267 0.31468 0.05271 0.0
Cd4 Cd 0.30555 0.31826 0.04295 0.0
C5 C 0.3044 0.38174 0.07423 0.0
O6 O 0.2967 0.29576 0.11668 0.0
O7 O 0.26311 0.31047 0.08026 0.0
O8 O 0.30857 0.28418 0.98284 0.0
C9 C 0.27244 0.29711 0.11425 0.0
O10 O 0.30806 0.37484 0.11743 0.0
C11 C 0.29634 0.29695 0.95119 0.0
O12 O 0.30391 0.36501 0.04117 0.0
O13 O 0.28848 0.31941 0.96256 0.0
C14 C 0.59825 0.30355 0.96958 0.0
O15 O 0.60684 0.30586 0.92729 0.0
Cd16 Cd 0.65203 0.3091 0.90964 0.0
O17 O 0.61359 0.30252 0.00498 0.0
Cd18 Cd 0.65989 0.30359 0.02179 0.0
C19 C 0.66682 0.36342 0.97214 0.0
O20 O 0.67309 0.27595 0.95667 0.0
O21 O 0.70384 0.29477 -0.00538 0.0
O22 O 0.65565 0.27316 0.0887 0.0
C23 C 0.69704 0.27871 0.96301 0.0
O24 O 0.66479 0.35334 0.9309 0.0
C25 C 0.66443 0.28882 0.11944 0.0
O26 O 0.66432 0.34966 0.00961 0.0
O27 O 0.67088 0.31111 0.10452 0.0
C28 C 0.6211 0.65532 0.06494 0.0
O29 O 0.62635 0.64999 0.10822 0.0
Cd30 Cd 0.66919 0.64433 0.13765 0.0
O31 O 0.639 0.65813 0.03424 0.0
Cd32 Cd 0.68658 0.65711 0.03106 0.0
C33 C 0.68901 0.59427 0.0668 0.0
O34 O 0.69138 0.68073 0.10443 0.0
O35 O 0.72691 0.66671 0.07417 0.0
O36 O 0.68284 0.69138 0.97126 0.0
C37 C 0.71568 0.68011 0.10585 0.0
O38 O 0.68346 0.60199 0.1087 0.0
C39 C 0.69793 0.68075 0.94147 0.0
O40 O 0.69005 0.61021 0.03209 0.0
O41 O 0.70754 0.65897 0.9533 0.0
C42 C 0.38862 0.68049 0.99256 0.0
O43 O 0.38098 0.67501 0.95073 0.0
Cd44 Cd 0.33674 0.66889 0.92924 0.0
O45 O 0.37258 0.68287 0.02672 0.0
Cd46 Cd 0.32571 0.67893 0.03739 0.0
C47 C 0.32411 0.61666 -0.00212 0.0
O48 O 0.3141 0.70415 0.96746 0.0
O49 O 0.28243 0.6858 0.00376 0.0
O50 O 0.32521 0.70947 0.10446 0.0
C51 C 0.29004 0.70147 0.97184 0.0
O52 O 0.32562 0.62467 0.95491 0.0
C53 C 0.31486 0.6934 0.13309 0.0
O54 O 0.32526 0.63251 0.03227 0.0
O55 O 0.31001 0.67105 0.11695 0.0
C56 C 0.86973 0.84027 0.56041 0.0
O57 O 0.86458 0.84667 0.60313 0.0
Cd58 Cd 0.82158 0.85175 0.63264 0.0
O59 O 0.85175 0.83615 0.53056 0.0
Cd60 Cd 0.80425 0.8361 0.52861 0.0
C61 C 0.79978 0.89959 0.55825 0.0
O62 O 0.80024 0.8137 0.60422 0.0
O63 O 0.76434 0.82586 0.57252 0.0
O64 O 0.80824 0.80114 0.47076 0.0
C65 C 0.77592 0.81342 0.60531 0.0
O66 O 0.80573 0.89311 0.60079 0.0
C67 C 0.79319 0.8115 0.44039 0.0
O68 O 0.79922 0.88277 0.52531 0.0
O69 O 0.78339 0.83327 0.45124 0.0
C70 C 0.10106 0.80221 0.49054 0.0
O71 O 0.1095 0.80516 0.44828 0.0
Cd72 Cd 0.15447 0.80872 0.4292 0.0
O73 O 0.11654 0.80042 0.52564 0.0
Cd74 Cd 0.16305 0.80071 0.54154 0.0
C75 C 0.16936 0.86156 0.49657 0.0
O76 O 0.17666 0.77543 0.47341 0.0
O77 O 0.20699 0.79399 0.51294 0.0
O78 O 0.15942 0.76775 0.6042 0.0
C79 C 0.20055 0.77896 0.47939 0.0
O80 O 0.16693 0.85223 0.45479 0.0
C81 C 0.16828 0.78217 0.63687 0.0
O82 O 0.16727 0.84715 0.53335 0.0
O83 O 0.17441 0.80509 0.62498 0.0
C84 C 0.10881 0.15941 0.58703 0.0
O85 O 0.11529 0.15507 0.63009 0.0
Cd86 Cd 0.15883 0.14812 0.65488 0.0
O87 O 0.12573 0.16043 0.55413 0.0
Cd88 Cd 0.17288 0.15674 0.54507 0.0
C89 C 0.17344 0.09506 0.58746 0.0
O90 O 0.18209 0.18192 0.61503 0.0
O91 O 0.21528 0.16427 0.58206 0.0
O92 O 0.16963 0.18954 0.48234 0.0
C93 C 0.20628 0.17936 0.61358 0.0
O94 O 0.16982 0.10418 0.62912 0.0
C95 C 0.18231 0.17665 0.45174 0.0
O96 O 0.174 0.10997 0.55118 0.0
O97 O 0.19039 0.15442 0.46459 0.0
C98 C 0.88242 0.19296 0.46997 0.0
O99 O 0.87318 0.18809 0.429 0.0
Cd100 Cd 0.82778 0.18525 0.41366 0.0
O101 O 0.86762 0.1965 0.50564 0.0
Cd102 Cd 0.82138 0.19664 0.52385 0.0
C103 C 0.81298 0.1346 0.48592 0.0
O104 O 0.8088 0.22175 0.45466 0.0
O105 O 0.77745 0.20632 0.49637 0.0
O106 O 0.82589 0.22878 0.58768 0.0
C107 C 0.78482 0.2207 0.46222 0.0
O108 O 0.8145 0.14229 0.44273 0.0
C109 C 0.81746 0.21364 0.61998 0.0
O110 O 0.81611 0.15038 0.52001 0.0
O111 O 0.81105 0.19105 0.60716 0.0
C112 C 0.30351 0.42862 0.09706 0.0
C113 C 0.30189 0.40951 0.06168 0.0
C114 C 0.30297 0.45485 0.08458 0.0
C115 C 0.30102 0.46251 0.03633 0.0
C116 C 0.29826 0.44344 0.00128 0.0
C117 C 0.2988 0.41722 0.01373 0.0
C118 C 0.30195 0.4901 0.0213 0.0
C119 C 0.31464 0.50813 0.0464 0.0
C120 C 0.31627 0.53576 0.03216 0.0
C121 C 0.32074 0.55404 0.06796 0.0
C122 C 0.32304 0.58021 0.05663 0.0
C123 C 0.32127 0.58877 0.00896 0.0
H124 H 0.31185 0.53056 0.95552 0.0
C125 C 0.31705 0.57049 0.97283 0.0
C126 C 0.31454 0.54418 0.98429 0.0
H127 H 0.31576 0.57646 0.93576 0.0
H128 H 0.30553 0.42336 0.13438 0.0
H129 H 0.30404 0.46898 0.1129 0.0
H130 H 0.29637 0.44882 0.96396 0.0
H131 H 0.29726 0.40301 0.98555 0.0
H132 H 0.29265 0.49536 0.98789 0.0
H133 H 0.32413 0.50268 0.07952 0.0
H134 H 0.32236 0.54806 0.10502 0.0
H135 H 0.32643 0.5937 0.08542 0.0
C136 C 0.4049 0.30731 0.02788 0.0
C137 C 0.39684 0.31245 0.07485 0.0
C138 C 0.43084 0.30283 0.01779 0.0
C139 C 0.44925 0.30345 0.05455 0.0
C140 C 0.44111 0.30801 0.10155 0.0
C141 C 0.41522 0.31265 0.11162 0.0
C142 C 0.47704 0.29929 0.04553 0.0
C143 C 0.48855 0.30552 0.00393 0.0
C144 C 0.51676 0.30367 -0.00388 0.0
C145 C 0.5262 0.30356 0.9491 0.0
C146 C 0.55265 0.30312 0.94024 0.0
C147 C 0.57023 0.30288 0.97835 0.0
H148 H 0.52821 0.30445 0.07101 0.0
C149 C 0.56079 0.30287 0.02538 0.0
C150 C 0.53442 0.30343 0.03422 0.0
H151 H 0.57378 0.30297 0.05562 0.0
H152 H 0.39118 0.30677 -0.0012 0.0
H153 H 0.43627 0.29856 0.98134 0.0
H154 H 0.4549 0.30838 0.13055 0.0
H155 H 0.40964 0.31633 0.14825 0.0
H156 H 0.48834 0.29194 0.07523 0.0
H157 H 0.47705 0.31286 0.97441 0.0
H158 H 0.51306 0.30398 0.91908 0.0
H159 H 0.5593 0.30321 0.90356 0.0
C160 C 0.67394 0.40232 0.02298 0.0
C161 C 0.67215 0.3914 0.97722 0.0
C162 C 0.67861 0.42868 0.02852 0.0
C163 C 0.68188 0.44481 0.98835 0.0
C164 C 0.67994 0.43398 0.94258 0.0
C165 C 0.67524 0.4075 0.937 0.0
C166 C 0.68563 0.47319 0.99305 0.0
C167 C 0.69547 0.48421 0.03252 0.0
C168 C 0.69589 0.5126 0.04016 0.0
C169 C 0.69457 0.5219 0.08711 0.0
C170 C 0.69291 0.54845 0.09591 0.0
C171 C 0.69288 0.5663 0.05784 0.0
H172 H 0.6989 0.52407 0.96553 0.0
C173 C 0.69547 0.55704 0.01091 0.0
C174 C 0.69697 0.53046 0.00211 0.0
H175 H 0.69581 0.57029 0.98077 0.0
H176 H 0.67141 0.39056 0.05479 0.0
H177 H 0.67888 0.43631 0.06441 0.0
H178 H 0.68204 0.44604 0.91103 0.0
H179 H 0.67388 0.39972 0.90124 0.0
H180 H 0.67926 0.48525 0.96341 0.0
H181 H 0.70198 0.47211 0.06199 0.0
H182 H 0.69399 0.50854 0.11709 0.0
H183 H 0.69118 0.55492 0.13252 0.0
C184 C 0.43445 0.68042 0.96505 0.0
C185 C 0.41645 0.68281 0.00224 0.0
C186 C 0.46079 0.68067 0.97473 0.0
C187 C 0.46966 0.68309 0.022 0.0
C188 C 0.45166 0.68661 0.05879 0.0
C189 C 0.42534 0.68642 0.04911 0.0
C190 C 0.49732 0.68154 0.03483 0.0
C191 C 0.51533 0.67019 0.00723 0.0
C192 C 0.54235 0.66673 0.02286 0.0
C193 C 0.5619 0.66599 0.98836 0.0
C194 C 0.58752 0.66231 0.00193 0.0
C195 C 0.594 0.65887 0.05032 0.0
H196 H 0.53412 0.66245 0.09866 0.0
C197 C 0.57433 0.6591 0.08476 0.0
C198 C 0.54878 0.66296 0.07121 0.0
H199 H 0.57863 0.65633 0.1223 0.0
H200 H 0.42824 0.67801 0.92842 0.0
H201 H 0.47395 0.67892 0.945 0.0
H202 H 0.45794 0.68881 0.09545 0.0
H203 H 0.412 0.68851 0.07859 0.0
H204 H 0.50277 0.689 0.06957 0.0
H205 H 0.51043 0.66293 0.97214 0.0
H206 H 0.55737 0.6685 0.95083 0.0
H207 H 0.60219 0.66209 0.97446 0.0
C208 C 0.79423 0.94594 0.5824 0.0
C209 C 0.79483 0.92713 0.54635 0.0
C210 C 0.79162 0.97216 0.57077 0.0
C211 C 0.78991 0.98016 0.52269 0.0
C212 C 0.78923 0.96127 0.48689 0.0
C213 C 0.79173 0.93503 0.49852 0.0
C214 C 0.78941 0.00793 0.50848 0.0
C215 C 0.80008 0.02657 0.5353 0.0
C216 C 0.80153 0.05422 0.52091 0.0
C217 C 0.80477 0.0727 0.55686 0.0
C218 C 0.80793 0.09876 0.54535 0.0
C219 C 0.80823 0.10701 0.49739 0.0
H220 H 0.79968 0.04867 0.44397 0.0
C221 C 0.80473 0.08859 0.46121 0.0
C222 C 0.80144 0.0624 0.47282 0.0
H223 H 0.80499 0.09431 0.42393 0.0
H224 H 0.7961 0.94047 0.61966 0.0
H225 H 0.79105 0.98599 0.59965 0.0
H226 H 0.78758 0.96686 0.44965 0.0
H227 H 0.79189 0.92102 0.46984 0.0
H228 H 0.78115 0.0128 0.47396 0.0
H229 H 0.80855 0.02156 0.56957 0.0
H230 H 0.80507 0.06692 0.59414 0.0
H231 H 0.81057 0.11238 0.57422 0.0
C232 C 0.05545 0.80598 0.46215 0.0
C233 C 0.07305 0.80232 0.4997 0.0
C234 C 0.02912 0.80811 0.4715 0.0
C235 C 0.01989 0.80677 0.51876 0.0
C236 C 0.03741 0.80205 0.55593 0.0
C237 C 0.06368 0.79992 0.5466 0.0
C238 C -0.00763 0.81049 0.53131 0.0
C239 C 0.97505 0.82235 0.50278 0.0
C240 C 0.94822 0.82734 0.51816 0.0
C241 C 0.92855 0.82754 0.48392 0.0
C242 C 0.90305 0.83193 0.49751 0.0
C243 C 0.8968 0.83663 0.5456 0.0
H244 H 0.95688 0.83359 0.59317 0.0
C245 C 0.91663 0.83722 0.57963 0.0
C246 C 0.94207 0.83264 0.56609 0.0
H247 H 0.91252 0.841 0.61689 0.0
H248 H 0.06202 0.80761 0.42553 0.0
H249 H 0.01627 0.8108 0.44154 0.0
H250 H 0.03084 0.80063 0.5926 0.0
H251 H 0.07666 0.7969 0.57638 0.0
H252 H 0.98642 0.804 0.56659 0.0
H253 H 0.98029 0.82858 0.46705 0.0
H254 H 0.93287 0.82387 0.44669 0.0
H255 H 0.88824 0.83152 0.47033 0.0
C256 C 0.17833 0.05645 0.53454 0.0
C257 C 0.17605 0.06677 0.58072 0.0
C258 C 0.17932 0.02971 0.52767 0.0
C259 C 0.1783 0.01263 0.567 0.0
C260 C 0.17636 0.02299 0.61315 0.0
C261 C 0.17531 0.04976 0.62002 0.0
C262 C 0.1776 0.98404 0.56148 0.0
C263 C 0.18498 0.97145 0.52165 0.0
C264 C 0.18218 0.94305 0.51596 0.0
C265 C 0.17897 0.93292 0.46993 0.0
C266 C 0.17504 0.90642 0.46338 0.0
C267 C 0.17444 0.88949 0.50285 0.0
H268 H 0.18594 0.93284 0.59115 0.0
C269 C 0.17854 0.89953 0.54878 0.0
C270 C 0.18249 0.92597 0.55529 0.0
H271 H 0.17863 0.88698 0.57993 0.0
H272 H 0.17879 0.069 0.50342 0.0
H273 H 0.18006 0.02273 0.49137 0.0
H274 H 0.17538 0.01032 0.64408 0.0
H275 H 0.17354 0.05705 0.65608 0.0
H276 H 0.17008 0.97308 0.59154 0.0
H277 H 0.19227 0.98215 0.49114 0.0
H278 H 0.17894 0.94563 0.43899 0.0
H279 H 0.17215 0.89928 0.42748 0.0
C280 C 0.92076 0.19775 0.52284 0.0
C281 C 0.91057 0.19327 0.47716 0.0
C282 C 0.94718 0.19615 0.53077 0.0
C283 C 0.964 0.18986 0.49319 0.0
C284 C 0.954 0.1866 0.4471 0.0
C285 C 0.9275 0.18812 0.43914 0.0
C286 C 0.99197 0.18645 0.50116 0.0
C287 C 0.00147 0.17695 0.5425 0.0
C288 C 0.02923 0.17261 0.55229 0.0
C289 C 0.03688 0.16842 0.5998 0.0
C290 C 0.06267 0.16404 0.61111 0.0
C291 C 0.08144 0.16368 0.57501 0.0
H292 H 0.04302 0.17428 0.47878 0.0
C293 C 0.07381 0.16759 0.52735 0.0
C294 C 0.04799 0.17191 0.51602 0.0
H295 H 0.08777 0.16721 0.49863 0.0
H296 H 0.90831 0.20215 0.5528 0.0
H297 H 0.95431 0.19985 0.56638 0.0
H298 H 0.96664 0.1821 0.41745 0.0
H299 H 0.92029 0.18479 0.40342 0.0
H300 H 0.00461 0.19101 0.47153 0.0
H301 H 0.98823 0.17197 0.57111 0.0
H302 H 0.02285 0.16865 0.62845 0.0
H303 H 0.06786 0.16105 0.6482 0.0
C304 C 0.18154 0.21306 0.39242 0.0
C305 C 0.18858 0.18751 0.4043 0.0
C306 C 0.18974 0.22421 0.34949 0.0
C307 C 0.20501 0.20989 0.31741 0.0
C308 C 0.21115 0.18404 0.32861 0.0
C309 C 0.20299 0.17293 0.37151 0.0
C310 C 0.21735 0.22185 0.27494 0.0
C311 C 0.21023 0.24469 0.25543 0.0
C312 C 0.22609 0.25771 0.21851 0.0
C313 C 0.21439 0.27382 0.18418 0.0
C314 C 0.22932 0.28665 0.14987 0.0
C315 C 0.25623 0.28386 0.14998 0.0
H316 H 0.26282 0.24383 0.24587 0.0
C317 C 0.26788 0.26812 0.18492 0.0
C318 C 0.25303 0.25526 0.21883 0.0
H319 H 0.28858 0.26574 0.18628 0.0
H320 H 0.17046 0.22479 0.41704 0.0
H321 H 0.185 0.24434 0.34289 0.0
H322 H 0.22297 0.17259 0.30471 0.0
H323 H 0.20864 0.15316 0.37956 0.0
H324 H 0.23369 0.21152 0.25983 0.0
H325 H 0.19258 0.25422 0.26653 0.0
H326 H 0.19369 0.27632 0.18371 0.0
H327 H 0.21984 0.2988 0.1235 0.0
C328 C 0.67597 0.29969 0.20337 0.0
C329 C 0.66863 0.2811 0.16965 0.0
C330 C 0.68334 0.29213 0.24928 0.0
C331 C 0.68388 0.26575 0.26211 0.0
C332 C 0.67465 0.24739 0.22962 0.0
C333 C 0.66712 0.25498 0.18368 0.0
C334 C 0.69596 0.25662 0.30719 0.0
C335 C 0.71611 0.26901 0.32659 0.0
C336 C 0.73259 0.25753 0.36434 0.0
C337 C 0.75864 0.26436 0.3652 0.0
C338 C 0.77547 0.2526 0.39748 0.0
C339 C 0.76649 0.23404 0.43019 0.0
H340 H 0.70321 0.2344 0.39927 0.0
C341 C 0.74019 0.22798 0.43092 0.0
C342 C 0.72334 0.23957 0.39813 0.0
H343 H 0.73272 0.2139 0.45609 0.0
H344 H 0.67677 0.32005 0.1939 0.0
H345 H 0.68928 0.30694 0.27412 0.0
H346 H 0.67457 0.22698 0.23887 0.0
H347 H 0.66126 0.24026 0.15856 0.0
H348 H 0.69059 0.2376 0.32051 0.0
H349 H 0.72298 0.28677 0.31009 0.0
H350 H 0.76621 0.27829 0.33979 0.0
H351 H 0.7956 0.25788 0.39642 0.0
C352 C 0.79595 0.77344 0.38559 0.0
C353 C 0.78666 0.79848 0.39525 0.0
C354 C 0.78823 0.76045 0.34439 0.0
C355 C 0.77119 0.7724 0.31188 0.0
C356 C 0.76251 0.79769 0.32107 0.0
C357 C 0.77018 0.81062 0.36223 0.0
C358 C 0.76008 0.75851 0.27057 0.0
C359 C 0.76974 0.73646 0.2521 0.0
C360 C 0.75588 0.72191 0.21466 0.0
C361 C 0.76973 0.70725 0.18115 0.0
C362 C 0.7568 0.69349 0.14559 0.0
C363 C 0.72979 0.69397 0.1435 0.0
H364 H 0.7175 0.73197 0.23953 0.0
C365 C 0.71601 0.70809 0.17785 0.0
C366 C 0.72886 0.72179 0.21312 0.0
H367 H 0.69518 0.70858 0.17763 0.0
H368 H 0.80862 0.76357 0.4105 0.0
H369 H 0.79492 0.74078 0.33937 0.0
H370 H 0.74928 0.80731 0.29681 0.0
H371 H 0.76275 0.82995 0.3686 0.0
H372 H 0.74282 0.7669 0.25484 0.0
H373 H 0.78825 0.72901 0.26382 0.0
H374 H 0.79055 0.70673 0.1821 0.0
H375 H 0.76791 0.68262 0.11972 0.0
C376 C 0.21187 0.75143 0.40956 0.0
C377 C 0.21958 0.76878 0.44514 0.0
C378 C 0.22936 0.74286 0.37529 0.0
C379 C 0.25502 0.7514 0.37597 0.0
C380 C 0.26276 0.76868 0.41162 0.0
C381 C 0.24526 0.77713 0.44621 0.0
C382 C 0.27335 0.74399 0.3378 0.0
C383 C 0.27172 0.72118 0.31504 0.0
C384 C 0.2865 0.71446 0.27147 0.0
C385 C 0.28692 0.68848 0.25706 0.0
C386 C 0.29718 0.68157 0.21291 0.0
C387 C 0.30719 0.70053 0.18204 0.0
H388 H 0.29719 0.75368 0.25065 0.0
C389 C 0.30793 0.7264 0.1972 0.0
C390 C 0.29757 0.73336 0.24146 0.0
H391 H 0.31547 0.74143 0.17406 0.0
H392 H 0.19218 0.74479 0.40762 0.0
H393 H 0.22244 0.73024 0.34741 0.0
H394 H 0.28233 0.77576 0.41254 0.0
H395 H 0.25171 0.79063 0.4731 0.0
H396 H 0.28827 0.75772 0.32839 0.0
H397 H 0.2583 0.70674 0.32822 0.0
H398 H 0.27849 0.67354 0.27935 0.0
H399 H 0.29648 0.66142 0.20237 0.0
C400 C 0.18106 0.78938 0.72159 0.0
C401 C 0.17301 0.77236 0.68568 0.0
C402 C 0.18892 0.77983 0.76596 0.0
C403 C 0.18921 0.75299 0.77502 0.0
C404 C 0.1793 0.73618 0.74045 0.0
C405 C 0.17131 0.74576 0.69606 0.0
C406 C 0.20159 0.74187 0.81829 0.0
C407 C 0.22219 0.75309 0.83847 0.0
C408 C 0.23854 0.74019 0.8749 0.0
C409 C 0.26458 0.74702 0.87704 0.0
C410 C 0.28119 0.73449 0.90873 0.0
C411 C 0.27203 0.71508 0.93953 0.0
H412 H 0.20902 0.71595 0.90673 0.0
C413 C 0.24578 0.70878 0.93868 0.0
C414 C 0.22914 0.7212 0.90654 0.0
H415 H 0.23816 0.69404 0.96238 0.0
H416 H 0.18205 0.81005 0.71498 0.0
H417 H 0.19541 0.79346 0.79256 0.0
H418 H 0.17901 0.71546 0.74682 0.0
H419 H 0.16491 0.73221 0.66921 0.0
H420 H 0.19586 0.72257 0.82946 0.0
H421 H 0.22931 0.77122 0.82384 0.0
H422 H 0.27227 0.76171 0.85329 0.0
H423 H 0.30127 0.73995 0.90886 0.0
C424 C 0.29632 0.25995 0.89375 0.0
C425 C 0.29057 0.28597 0.9039 0.0
C426 C 0.28866 0.24903 0.85049 0.0
C427 C 0.27528 0.26408 0.8164 0.0
C428 C 0.27049 0.29032 0.82598 0.0
C429 C 0.27805 0.30117 0.8692 0.0
C430 C 0.26343 0.25272 0.77319 0.0
C431 C 0.26913 0.22913 0.75571 0.0
C432 C 0.25323 0.21706 0.71807 0.0
C433 C 0.2644 0.19945 0.68601 0.0
C434 C 0.2493 0.18731 0.6514 0.0
C435 C 0.22274 0.19232 0.64895 0.0
H436 H 0.21713 0.23453 0.74093 0.0
C437 C 0.2116 0.20971 0.68143 0.0
C438 C 0.22662 0.22186 0.71566 0.0
H439 H 0.19115 0.21382 0.68077 0.0
H440 H 0.30594 0.24776 0.9199 0.0
H441 H 0.29231 0.22862 0.84513 0.0
H442 H 0.26014 0.30234 0.80051 0.0
H443 H 0.27348 0.32134 0.87585 0.0
H444 H 0.24852 0.2642 0.75576 0.0
H445 H 0.28551 0.21823 0.76918 0.0
H446 H 0.2848 0.19516 0.68767 0.0
H447 H 0.25836 0.17385 0.62696 0.0
C448 C 0.74166 0.27397 0.93034 0.0
C449 C 0.71587 0.26597 0.9314 0.0
C450 C 0.75889 0.26314 0.89757 0.0
C451 C 0.75056 0.24403 0.86555 0.0
C452 C 0.72513 0.23523 0.8683 0.0
C453 C 0.70789 0.24622 0.9006 0.0
C454 C 0.76736 0.2333 0.82772 0.0
C455 C 0.78623 0.24694 0.80645 0.0
C456 C 0.79849 0.23798 0.76159 0.0
C457 C 0.80582 0.25637 0.72712 0.0
C458 C 0.81333 0.2485 0.68143 0.0
C459 C 0.81363 0.22208 0.6697 0.0
H460 H 0.79662 0.19675 0.77736 0.0
C461 C 0.80829 0.20364 0.70536 0.0
C462 C 0.80101 0.21149 0.75098 0.0
H463 H 0.80897 0.18311 0.69764 0.0
H464 H 0.74838 0.28901 0.95402 0.0
H465 H 0.77857 0.26983 0.89728 0.0
H466 H 0.71831 0.22037 0.84429 0.0
H467 H 0.6882 0.23948 0.90095 0.0
H468 H 0.7617 0.21479 0.81286 0.0
H469 H 0.79022 0.26655 0.81807 0.0
H470 H 0.80438 0.2769 0.73465 0.0
H471 H 0.81761 0.26312 0.65473 0.0
C472 C 0.69539 0.71851 0.88528 0.0
C473 C 0.7049 0.69364 0.89612 0.0
C474 C 0.70359 0.73156 0.84421 0.0
C475 C 0.72136 0.71986 0.81295 0.0
C476 C 0.73029 0.69473 0.82329 0.0
C477 C 0.72211 0.68171 0.86434 0.0
C478 C 0.73282 0.7339 0.77181 0.0
C479 C 0.72267 0.75544 0.75182 0.0
C480 C 0.73641 0.77029 0.71428 0.0
C481 C 0.72235 0.7845 0.68016 0.0
C482 C 0.73507 0.79867 0.64461 0.0
C483 C 0.76208 0.79912 0.64309 0.0
H484 H 0.77492 0.76143 0.74007 0.0
C485 C 0.77608 0.78542 0.67799 0.0
C486 C 0.76343 0.77126 0.71325 0.0
H487 H 0.79691 0.78561 0.67815 0.0
H488 H 0.68217 0.72824 0.90922 0.0
H489 H 0.69668 0.75112 0.83833 0.0
H490 H 0.74409 0.6853 0.80002 0.0
H491 H 0.72976 0.66253 0.87168 0.0
H492 H 0.75063 0.72603 0.75746 0.0
H493 H 0.7037 0.76221 0.76227 0.0
H494 H 0.70152 0.78436 0.68067 0.0
H495 H 0.72378 0.80918 0.61832 0.0
loop_
_geom_bond_atom_site_label_1
_geom_bond_atom_site_label_2
_geom_bond_distance
_geom_bond_site_symmetry_2
_ccdc_geom_bond_type
C0 O1 1.306 . S
C0 O3 1.160 1_554 S
O1 C0 1.306 . S
O1 Cd2 2.228 . S
Cd2 O1 2.228 . S
Cd2 O6 2.273 . S
Cd2 O10 2.277 . S
O3 C0 1.160 1_556 S
O3 Cd4 2.203 1_556 S
Cd4 O3 2.203 1_554 S
Cd4 O6 2.411 . S
Cd4 O7 2.333 . S
Cd4 O8 2.352 1_554 S
Cd4 O12 2.277 . S
Cd4 O13 2.356 1_554 S
C5 O10 1.209 . S
C5 O12 1.226 . S
O6 Cd2 2.273 . S
O6 Cd4 2.411 . S
O6 C9 1.320 . S
O7 Cd4 2.333 . S
O7 C9 1.214 . S
O8 Cd4 2.352 1_556 S
O8 C11 1.258 . S
C9 O6 1.320 . S
C9 O7 1.214 . S
O10 Cd2 2.277 . S
O10 C5 1.209 . S
C11 O8 1.258 . S
C11 O13 1.282 . S
O12 Cd4 2.277 . S
O12 C5 1.226 . S
O13 Cd4 2.356 1_556 S
O13 C11 1.282 . S
C14 O15 1.306 . S
C14 O17 1.160 . S
O15 C14 1.306 . S
O15 Cd16 2.228 1_554 S
Cd16 O15 2.228 1_556 S
Cd16 O20 2.273 . S
Cd16 O24 2.279 . S
O17 C14 1.160 . S
O17 Cd18 2.203 . S
Cd18 O17 2.203 . S
Cd18 O20 2.411 1_554 S
Cd18 O21 2.333 . S
Cd18 O22 2.352 . S
Cd18 O26 2.277 . S
Cd18 O27 2.356 . S
C19 O24 1.206 1_554 S
C19 O26 1.226 . S
O20 Cd16 2.273 . S
O20 Cd18 2.411 1_556 S
O20 C23 1.320 . S
O21 Cd18 2.333 . S
O21 C23 1.214 1_554 S
O22 Cd18 2.352 . S
O22 C25 1.258 . S
C23 O20 1.320 . S
C23 O21 1.214 1_556 S
O24 Cd16 2.279 . S
O24 C19 1.206 1_556 S
C25 O22 1.258 . S
C25 O27 1.282 . S
O26 Cd18 2.277 . S
O26 C19 1.226 . S
O27 Cd18 2.356 . S
O27 C25 1.282 . S
C28 O29 1.306 . S
C28 O31 1.160 1_554 S
O29 C28 1.306 . S
O29 Cd30 2.228 . S
Cd30 O29 2.228 . S
Cd30 O34 2.273 . S
Cd30 O38 2.277 . S
O31 C28 1.160 1_556 S
O31 Cd32 2.203 1_556 S
Cd32 O31 2.203 1_554 S
Cd32 O34 2.411 . S
Cd32 O35 2.333 . S
Cd32 O36 2.352 1_554 S
Cd32 O40 2.277 . S
Cd32 O41 2.356 1_554 S
C33 O38 1.209 . S
C33 O40 1.226 . S
O34 Cd30 2.273 . S
O34 Cd32 2.411 . S
O34 C37 1.320 . S
O35 Cd32 2.333 . S
O35 C37 1.214 . S
O36 Cd32 2.352 1_556 S
O36 C39 1.258 . S
C37 O34 1.320 . S
C37 O35 1.214 . S
O38 Cd30 2.277 . S
O38 C33 1.209 . S
C39 O36 1.258 . S
C39 O41 1.282 . S
O40 Cd32 2.277 . S
O40 C33 1.226 . S
O41 Cd32 2.356 1_556 S
O41 C39 1.282 . S
C42 O43 1.306 . S
C42 O45 1.160 . S
O43 C42 1.306 . S
O43 Cd44 2.228 1_554 S
Cd44 O43 2.228 1_556 S
Cd44 O48 2.273 . S
Cd44 O52 2.279 . S
O45 C42 1.160 . S
O45 Cd46 2.203 . S
Cd46 O45 2.203 . S
Cd46 O48 2.411 1_554 S
Cd46 O49 2.333 . S
Cd46 O50 2.352 . S
Cd46 O54 2.277 . S
Cd46 O55 2.356 . S
C47 O52 1.206 1_554 S
C47 O54 1.226 . S
O48 Cd44 2.273 . S
O48 Cd46 2.411 1_556 S
O48 C51 1.320 . S
O49 Cd46 2.333 . S
O49 C51 1.214 1_554 S
O50 Cd46 2.352 . S
O50 C53 1.258 . S
C51 O48 1.320 . S
C51 O49 1.214 1_556 S
O52 Cd44 2.279 . S
O52 C47 1.206 1_556 S
C53 O50 1.258 . S
C53 O55 1.282 . S
O54 Cd46 2.277 . S
O54 C47 1.226 . S
O55 Cd46 2.356 . S
O55 C53 1.282 . S
C56 O57 1.306 . S
C56 O59 1.160 . S
O57 C56 1.306 . S
O57 Cd58 2.228 . S
Cd58 O57 2.228 . S
Cd58 O62 2.273 . S
Cd58 O66 2.277 . S
O59 C56 1.160 . S
O59 Cd60 2.203 . S
Cd60 O59 2.203 . S
Cd60 O62 2.411 . S
Cd60 O63 2.333 . S
Cd60 O64 2.352 . S
Cd60 O68 2.277 . S
Cd60 O69 2.356 . S
C61 O66 1.209 . S
C61 O68 1.226 . S
O62 Cd58 2.273 . S
O62 Cd60 2.411 . S
O62 C65 1.320 . S
O63 Cd60 2.333 . S
O63 C65 1.214 . S
O64 Cd60 2.352 . S
O64 C67 1.258 . S
C65 O62 1.320 . S
C65 O63 1.214 . S
O66 Cd58 2.277 . S
O66 C61 1.209 . S
C67 O64 1.258 . S
C67 O69 1.282 . S
O68 Cd60 2.277 . S
O68 C61 1.226 . S
O69 Cd60 2.356 . S
O69 C67 1.282 . S
C70 O71 1.306 . S
C70 O73 1.160 . S
O71 C70 1.306 . S
O71 Cd72 2.228 . S
Cd72 O71 2.228 . S
Cd72 O76 2.273 . S
Cd72 O80 2.277 . S
O73 C70 1.160 . S
O73 Cd74 2.203 . S
Cd74 O73 2.203 . S
Cd74 O76 2.411 . S
Cd74 O77 2.333 . S
Cd74 O78 2.352 . S
Cd74 O82 2.277 . S
Cd74 O83 2.356 . S
C75 O80 1.209 . S
C75 O82 1.226 . S
O76 Cd72 2.273 . S
O76 Cd74 2.411 . S
O76 C79 1.320 . S
O77 Cd74 2.333 . S
O77 C79 1.214 . S
O78 Cd74 2.352 . S
O78 C81 1.258 . S
C79 O76 1.320 . S
C79 O77 1.214 . S
O80 Cd72 2.277 . S
O80 C75 1.209 . S
C81 O78 1.258 . S
C81 O83 1.282 . S
O82 Cd74 2.277 . S
O82 C75 1.226 . S
O83 Cd74 2.356 . S
O83 C81 1.282 . S
C84 O85 1.306 . S
C84 O87 1.160 . S
O85 C84 1.306 . S
O85 Cd86 2.228 . S
Cd86 O85 2.228 . S
Cd86 O90 2.273 . S
Cd86 O94 2.277 . S
O87 C84 1.160 . S
O87 Cd88 2.203 . S
Cd88 O87 2.203 . S
Cd88 O90 2.411 . S
Cd88 O91 2.333 . S
Cd88 O92 2.352 . S
Cd88 O96 2.277 . S
Cd88 O97 2.356 . S
C89 O94 1.209 . S
C89 O96 1.226 . S
O90 Cd86 2.273 . S
O90 Cd88 2.411 . S
O90 C93 1.320 . S
O91 Cd88 2.333 . S
O91 C93 1.214 . S
O92 Cd88 2.352 . S
O92 C95 1.258 . S
C93 O90 1.320 . S
C93 O91 1.214 . S
O94 Cd86 2.277 . S
O94 C89 1.209 . S
C95 O92 1.258 . S
C95 O97 1.282 . S
O96 Cd88 2.277 . S
O96 C89 1.226 . S
O97 Cd88 2.356 . S
O97 C95 1.282 . S
C98 O99 1.306 . S
C98 O101 1.160 . S
O99 C98 1.306 . S
O99 Cd100 2.228 . S
Cd100 O99 2.228 . S
Cd100 O104 2.273 . S
Cd100 O108 2.277 . S
O101 C98 1.160 . S
O101 Cd102 2.203 . S
Cd102 O101 2.203 . S
Cd102 O104 2.411 . S
Cd102 O105 2.333 . S
Cd102 O106 2.352 . S
Cd102 O110 2.277 . S
Cd102 O111 2.356 . S
C103 O108 1.209 . S
C103 O110 1.226 . S
O104 Cd100 2.273 . S
O104 Cd102 2.411 . S
O104 C107 1.320 . S
O105 Cd102 2.333 . S
O105 C107 1.214 . S
O106 Cd102 2.352 . S
O106 C109 1.258 . S
C107 O104 1.320 . S
C107 O105 1.214 . S
O108 Cd100 2.277 . S
O108 C103 1.209 . S
C109 O106 1.258 . S
C109 O111 1.282 . S
O110 Cd102 2.277 . S
O110 C103 1.226 . S
O111 Cd102 2.356 . S
O111 C109 1.282 . S
C112 C113 1.386 . S
C112 C114 1.383 . S
C112 H128 0.951 . S
C113 C112 1.386 . S
C113 C117 1.383 . S
C114 C112 1.383 . S
C114 C115 1.402 . S
C114 H129 0.951 . S
C115 C114 1.402 . S
C115 C116 1.375 1_554 S
C115 C118 1.481 . S
C116 C115 1.375 1_556 S
C116 C117 1.367 1_556 S
C116 H130 0.951 . S
C117 C113 1.383 . S
C117 C116 1.367 1_554 S
C117 H131 0.950 1_554 S
C118 C115 1.481 . S
C118 C119 1.297 . S
C118 H132 0.950 1_554 S
C119 C118 1.297 . S
C119 C120 1.479 . S
C119 H133 0.950 . S
C120 C119 1.479 . S
C120 C121 1.375 . S
C120 C126 1.404 1_554 S
C121 C120 1.375 . S
C121 C122 1.369 . S
C121 H134 0.950 . S
C122 C121 1.369 . S
C122 C123 1.392 . S
C122 H135 0.951 . S
C123 C122 1.392 . S
C123 C125 1.384 1_554 S
H124 C126 0.949 . S
C125 C123 1.384 1_556 S
C125 C126 1.385 . S
C125 H127 0.950 . S
C126 C120 1.404 1_556 S
C126 H124 0.949 . S
C126 C125 1.385 . S
H127 C125 0.950 . S
H128 C112 0.951 . S
H129 C114 0.951 . S
H130 C116 0.951 . S
H131 C117 0.950 1_556 S
H132 C118 0.950 1_556 S
H133 C119 0.950 . S
H134 C121 0.950 . S
H135 C122 0.951 . S
C136 C137 1.386 1_556 S
C136 C138 1.383 1_556 S
C136 H152 0.951 . S
C137 C136 1.386 1_554 S
C137 C141 1.383 . S
C138 C136 1.383 1_554 S
C138 C139 1.402 . S
C138 H153 0.951 1_554 S
C139 C138 1.402 . S
C139 C140 1.375 . S
C139 C142 1.481 . S
C140 C139 1.375 . S
C140 C141 1.367 . S
C140 H154 0.951 . S
C141 C137 1.383 . S
C141 C140 1.367 . S
C141 H155 0.950 . S
C142 C139 1.481 . S
C142 C143 1.297 . S
C142 H156 0.950 . S
C143 C142 1.297 . S
C143 C144 1.479 . S
C143 H157 0.950 . S
C144 C143 1.479 . S
C144 C145 1.375 . S
C144 C150 1.404 . S
C145 C144 1.375 . S
C145 C146 1.369 . S
C145 H158 0.950 1_554 S
C146 C145 1.369 . S
C146 C147 1.392 . S
C146 H159 0.951 . S
C147 C146 1.392 . S
C147 C149 1.384 . S
H148 C150 0.949 . S
C149 C147 1.384 . S
C149 C150 1.385 . S
C149 H151 0.950 . S
C150 C144 1.404 . S
C150 H148 0.949 . S
C150 C149 1.385 . S
H151 C149 0.950 . S
H152 C136 0.951 . S
H153 C138 0.951 1_556 S
H154 C140 0.951 . S
H155 C141 0.950 . S
H156 C142 0.950 . S
H157 C143 0.950 . S
H158 C145 0.950 1_556 S
H159 C146 0.951 . S
C160 C161 1.386 . S
C160 C162 1.383 . S
C160 H176 0.951 . S
C161 C160 1.386 . S
C161 C165 1.383 . S
C162 C160 1.383 . S
C162 C163 1.402 . S
C162 H177 0.951 . S
C163 C162 1.402 . S
C163 C164 1.375 . S
C163 C166 1.481 . S
C164 C163 1.375 . S
C164 C165 1.367 . S
C164 H178 0.951 . S
C165 C161 1.383 . S
C165 C164 1.367 . S
C165 H179 0.950 . S
C166 C163 1.481 . S
C166 C167 1.297 . S
C166 H180 0.950 . S
C167 C166 1.297 . S
C167 C168 1.479 . S
C167 H181 0.950 . S
C168 C167 1.479 . S
C168 C169 1.375 . S
C168 C174 1.404 . S
C169 C168 1.375 . S
C169 C170 1.369 . S
C169 H182 0.950 . S
C170 C169 1.369 . S
C170 C171 1.392 . S
C170 H183 0.951 . S
C171 C170 1.392 . S
C171 C173 1.384 . S
H172 C174 0.949 . S
C173 C171 1.384 . S
C173 C174 1.385 . S
C173 H175 0.950 . S
C174 C168 1.404 . S
C174 H172 0.949 . S
C174 C173 1.385 . S
H175 C173 0.950 . S
H176 C160 0.951 . S
H177 C162 0.951 . S
H178 C164 0.951 . S
H179 C165 0.950 . S
H180 C166 0.950 . S
H181 C167 0.950 . S
H182 C169 0.950 . S
H183 C170 0.951 . S
C184 C185 1.386 . S
C184 C186 1.383 . S
C184 H200 0.951 . S
C185 C184 1.386 . S
C185 C189 1.383 . S
C186 C184 1.383 . S
C186 C187 1.402 . S
C186 H201 0.951 . S
C187 C186 1.402 . S
C187 C188 1.375 . S
C187 C190 1.481 . S
C188 C187 1.375 . S
C188 C189 1.367 . S
C188 H202 0.951 . S
C189 C185 1.383 . S
C189 C188 1.367 . S
C189 H203 0.950 . S
C190 C187 1.481 . S
C190 C191 1.297 . S
C190 H204 0.950 . S
C191 C190 1.297 . S
C191 C192 1.479 . S
C191 H205 0.950 . S
C192 C191 1.479 . S
C192 C193 1.375 . S
C192 C198 1.404 . S
C193 C192 1.375 . S
C193 C194 1.369 . S
C193 H206 0.950 . S
C194 C193 1.369 . S
C194 C195 1.392 . S
C194 H207 0.951 . S
C195 C194 1.392 . S
C195 C197 1.384 . S
H196 C198 0.949 . S
C197 C195 1.384 . S
C197 C198 1.385 . S
C197 H199 0.950 . S
C198 C192 1.404 . S
C198 H196 0.949 . S
C198 C197 1.385 . S
H199 C197 0.950 . S
H200 C184 0.951 . S
H201 C186 0.951 . S
H202 C188 0.951 . S
H203 C189 0.950 . S
H204 C190 0.950 . S
H205 C191 0.950 . S
H206 C193 0.950 . S
H207 C194 0.951 . S
C208 C209 1.386 . S
C208 C210 1.383 . S
C208 H224 0.951 . S
C209 C208 1.386 . S
C209 C213 1.383 . S
C210 C208 1.383 . S
C210 C211 1.402 . S
C210 H225 0.951 . S
C211 C210 1.402 . S
C211 C212 1.375 . S
C211 C214 1.481 . S
C212 C211 1.375 . S
C212 C213 1.367 . S
C212 H226 0.951 . S
C213 C209 1.383 . S
C213 C212 1.367 . S
C213 H227 0.950 . S
C214 C211 1.481 . S
C214 C215 1.297 1_565 S
C214 H228 0.950 . S
C215 C214 1.297 1_545 S
C215 C216 1.479 . S
C215 H229 0.950 . S
C216 C215 1.479 . S
C216 C217 1.375 . S
C216 C222 1.404 . S
C217 C216 1.375 . S
C217 C218 1.369 . S
C217 H230 0.950 . S
C218 C217 1.369 . S
C218 C219 1.392 . S
C218 H231 0.951 . S
C219 C218 1.392 . S
C219 C221 1.384 . S
H220 C222 0.949 . S
C221 C219 1.384 . S
C221 C222 1.385 . S
C221 H223 0.950 . S
C222 C216 1.404 . S
C222 H220 0.949 . S
C222 C221 1.385 . S
H223 C221 0.950 . S
H224 C208 0.951 . S
H225 C210 0.951 . S
H226 C212 0.951 . S
H227 C213 0.950 . S
H228 C214 0.950 . S
H229 C215 0.950 . S
H230 C217 0.950 . S
H231 C218 0.951 . S
C232 C233 1.386 . S
C232 C234 1.383 . S
C232 H248 0.951 . S
C233 C232 1.386 . S
C233 C237 1.383 . S
C234 C232 1.383 . S
C234 C235 1.402 . S
C234 H249 0.951 . S
C235 C234 1.402 . S
C235 C236 1.375 . S
C235 C238 1.481 . S
C236 C235 1.375 . S
C236 C237 1.367 . S
C236 H250 0.951 . S
C237 C233 1.383 . S
C237 C236 1.367 . S
C237 H251 0.950 . S
C238 C235 1.481 . S
C238 C239 1.297 1_455 S
C238 H252 0.939 1_455 S
C239 C238 1.297 1_655 S
C239 C240 1.479 . S
C239 H253 0.950 . S
C240 C239 1.479 . S
C240 C241 1.375 . S
C240 C246 1.404 . S
C241 C240 1.375 . S
C241 C242 1.369 . S
C241 H254 0.950 . S
C242 C241 1.369 . S
C242 C243 1.392 . S
C242 H255 0.951 . S
C243 C242 1.392 . S
C243 C245 1.384 . S
H244 C246 0.949 . S
C245 C243 1.384 . S
C245 C246 1.385 . S
C245 H247 0.950 . S
C246 C240 1.404 . S
C246 H244 0.949 . S
C246 C245 1.385 . S
H247 C245 0.950 . S
H248 C232 0.951 . S
H249 C234 0.951 . S
H250 C236 0.951 . S
H251 C237 0.950 . S
H252 C238 0.939 1_655 S
H253 C239 0.950 . S
H254 C241 0.950 . S
H255 C242 0.951 . S
C256 C257 1.386 . S
C256 C258 1.383 . S
C256 H272 0.951 . S
C257 C256 1.386 . S
C257 C261 1.383 . S
C258 C256 1.383 . S
C258 C259 1.402 . S
C258 H273 0.951 . S
C259 C258 1.402 . S
C259 C260 1.375 . S
C259 C262 1.481 . S
C260 C259 1.375 . S
C260 C261 1.367 . S
C260 H274 0.951 . S
C261 C257 1.383 . S
C261 C260 1.367 . S
C261 H275 0.950 . S
C262 C259 1.481 . S
C262 C263 1.297 1_545 S
C262 H276 0.950 . S
C263 C262 1.297 1_565 S
C263 C264 1.479 . S
C263 H277 0.960 . S
C264 C263 1.479 . S
C264 C265 1.375 . S
C264 C270 1.404 . S
C265 C264 1.375 . S
C265 C266 1.369 . S
C265 H278 0.950 . S
C266 C265 1.369 . S
C266 C267 1.392 . S
C266 H279 0.951 . S
C267 C266 1.392 . S
C267 C269 1.384 . S
H268 C270 0.949 . S
C269 C267 1.384 . S
C269 C270 1.385 . S
C269 H271 0.950 . S
C270 C264 1.404 . S
C270 H268 0.949 . S
C270 C269 1.385 . S
H271 C269 0.950 . S
H272 C256 0.951 . S
H273 C258 0.951 . S
H274 C260 0.951 . S
H275 C261 0.950 . S
H276 C262 0.950 . S
H277 C263 0.960 . S
H278 C265 0.950 . S
H279 C266 0.951 . S
C280 C281 1.386 . S
C280 C282 1.383 . S
C280 H296 0.951 . S
C281 C280 1.386 . S
C281 C285 1.383 . S
C282 C280 1.383 . S
C282 C283 1.402 . S
C282 H297 0.951 . S
C283 C282 1.402 . S
C283 C284 1.375 . S
C283 C286 1.481 . S
C284 C283 1.375 . S
C284 C285 1.367 . S
C284 H298 0.951 . S
C285 C281 1.383 . S
C285 C284 1.367 . S
C285 H299 0.950 . S
C286 C283 1.481 . S
C286 C287 1.297 1_655 S
C286 H300 0.950 . S
C287 C286 1.297 1_455 S
C287 C288 1.479 . S
C287 H301 0.964 . S
C288 C287 1.479 . S
C288 C289 1.375 . S
C288 C294 1.404 . S
C289 C288 1.375 . S
C289 C290 1.369 . S
C289 H302 0.950 . S
C290 C289 1.369 . S
C290 C291 1.392 . S
C290 H303 0.951 . S
C291 C290 1.392 . S
C291 C293 1.384 . S
H292 C294 0.949 . S
C293 C291 1.384 . S
C293 C294 1.385 . S
C293 H295 0.950 . S
C294 C288 1.404 . S
C294 H292 0.949 . S
C294 C293 1.385 . S
H295 C293 0.950 . S
H296 C280 0.951 . S
H297 C282 0.951 . S
H298 C284 0.951 . S
H299 C285 0.950 . S
H300 C286 0.950 . S
H301 C287 0.964 . S
H302 C289 0.950 . S
H303 C290 0.951 . S
C304 C305 1.386 . S
C304 C306 1.383 . S
C304 H320 0.951 . S
C305 C304 1.386 . S
C305 C309 1.383 . S
C306 C304 1.383 . S
C306 C307 1.402 . S
C306 H321 0.951 . S
C307 C306 1.402 . S
C307 C308 1.375 . S
C307 C310 1.481 . S
C308 C307 1.375 . S
C308 C309 1.367 . S
C308 H322 0.951 . S
C309 C305 1.383 . S
C309 C308 1.367 . S
C309 H323 0.950 . S
C310 C307 1.481 . S
C310 C311 1.297 . S
C310 H324 0.950 . S
C311 C310 1.297 . S
C311 C312 1.479 . S
C311 H325 0.950 . S
C312 C311 1.479 . S
C312 C313 1.375 . S
C312 C318 1.404 . S
C313 C312 1.375 . S
C313 C314 1.369 . S
C313 H326 0.950 . S
C314 C313 1.369 . S
C314 C315 1.392 . S
C314 H327 0.951 . S
C315 C314 1.392 . S
C315 C317 1.384 . S
H316 C318 0.949 . S
C317 C315 1.384 . S
C317 C318 1.385 . S
C317 H319 0.950 . S
C318 C312 1.404 . S
C318 H316 0.949 . S
C318 C317 1.385 . S
H319 C317 0.950 . S
H320 C304 0.951 . S
H321 C306 0.951 . S
H322 C308 0.951 . S
H323 C309 0.950 . S
H324 C310 0.950 . S
H325 C311 0.950 . S
H326 C313 0.950 . S
H327 C314 0.951 . S
C328 C329 1.386 . S
C328 C330 1.383 . S
C328 H344 0.951 . S
C329 C328 1.386 . S
C329 C333 1.383 . S
C330 C328 1.383 . S
C330 C331 1.402 . S
C330 H345 0.951 . S
C331 C330 1.402 . S
C331 C332 1.375 . S
C331 C334 1.481 . S
C332 C331 1.375 . S
C332 C333 1.367 . S
C332 H346 0.951 . S
C333 C329 1.383 . S
C333 C332 1.367 . S
C333 H347 0.950 . S
C334 C331 1.481 . S
C334 C335 1.297 . S
C334 H348 0.950 . S
C335 C334 1.297 . S
C335 C336 1.479 . S
C335 H349 0.950 . S
C336 C335 1.479 . S
C336 C337 1.375 . S
C336 C342 1.404 . S
C337 C336 1.375 . S
C337 C338 1.369 . S
C337 H350 0.950 . S
C338 C337 1.369 . S
C338 C339 1.392 . S
C338 H351 0.951 . S
C339 C338 1.392 . S
C339 C341 1.384 . S
H340 C342 0.949 . S
C341 C339 1.384 . S
C341 C342 1.385 . S
C341 H343 0.950 . S
C342 C336 1.404 . S
C342 H340 0.949 . S
C342 C341 1.385 . S
H343 C341 0.950 . S
H344 C328 0.951 . S
H345 C330 0.951 . S
H346 C332 0.951 . S
H347 C333 0.950 . S
H348 C334 0.950 . S
H349 C335 0.950 . S
H350 C337 0.950 . S
H351 C338 0.951 . S
C352 C353 1.386 . S
C352 C354 1.383 . S
C352 H368 0.951 . S
C353 C352 1.386 . S
C353 C357 1.383 . S
C354 C352 1.383 . S
C354 C355 1.402 . S
C354 H369 0.951 . S
C355 C354 1.402 . S
C355 C356 1.375 . S
C355 C358 1.481 . S
C356 C355 1.375 . S
C356 C357 1.367 . S
C356 H370 0.951 . S
C357 C353 1.383 . S
C357 C356 1.367 . S
C357 H371 0.950 . S
C358 C355 1.481 . S
C358 C359 1.297 . S
C358 H372 0.950 . S
C359 C358 1.297 . S
C359 C360 1.479 . S
C359 H373 0.950 . S
C360 C359 1.479 . S
C360 C361 1.375 . S
C360 C366 1.404 . S
C361 C360 1.375 . S
C361 C362 1.369 . S
C361 H374 0.950 . S
C362 C361 1.369 . S
C362 C363 1.392 . S
C362 H375 0.951 . S
C363 C362 1.392 . S
C363 C365 1.384 . S
H364 C366 0.949 . S
C365 C363 1.384 . S
C365 C366 1.385 . S
C365 H367 0.950 . S
C366 C360 1.404 . S
C366 H364 0.949 . S
C366 C365 1.385 . S
H367 C365 0.950 . S
H368 C352 0.951 . S
H369 C354 0.951 . S
H370 C356 0.951 . S
H371 C357 0.950 . S
H372 C358 0.950 . S
H373 C359 0.950 . S
H374 C361 0.950 . S
H375 C362 0.951 . S
C376 C377 1.386 . S
C376 C378 1.383 . S
C376 H392 0.951 . S
C377 C376 1.386 . S
C377 C381 1.383 . S
C378 C376 1.383 . S
C378 C379 1.402 . S
C378 H393 0.951 . S
C379 C378 1.402 . S
C379 C380 1.375 . S
C379 C382 1.481 . S
C380 C379 1.375 . S
C380 C381 1.367 . S
C380 H394 0.951 . S
C381 C377 1.383 . S
C381 C380 1.367 . S
C381 H395 0.950 . S
C382 C379 1.481 . S
C382 C383 1.297 . S
C382 H396 0.950 . S
C383 C382 1.297 . S
C383 C384 1.479 . S
C383 H397 0.950 . S
C384 C383 1.479 . S
C384 C385 1.375 . S
C384 C390 1.404 . S
C385 C384 1.375 . S
C385 C386 1.369 . S
C385 H398 0.950 . S
C386 C385 1.369 . S
C386 C387 1.392 . S
C386 H399 0.951 . S
C387 C386 1.392 . S
C387 C389 1.384 . S
H388 C390 0.949 . S
C389 C387 1.384 . S
C389 C390 1.385 . S
C389 H391 0.950 . S
C390 C384 1.404 . S
C390 H388 0.949 . S
C390 C389 1.385 . S
H391 C389 0.950 . S
H392 C376 0.951 . S
H393 C378 0.951 . S
H394 C380 0.951 . S
H395 C381 0.950 . S
H396 C382 0.950 . S
H397 C383 0.950 . S
H398 C385 0.950 . S
H399 C386 0.951 . S
C400 C401 1.386 . S
C400 C402 1.383 . S
C400 H416 0.951 . S
C401 C400 1.386 . S
C401 C405 1.383 . S
C402 C400 1.383 . S
C402 C403 1.402 . S
C402 H417 0.951 . S
C403 C402 1.402 . S
C403 C404 1.375 . S
C403 C406 1.481 . S
C404 C403 1.375 . S
C404 C405 1.367 . S
C404 H418 0.951 . S
C405 C401 1.383 . S
C405 C404 1.367 . S
C405 H419 0.950 . S
C406 C403 1.481 . S
C406 C407 1.297 . S
C406 H420 0.950 . S
C407 C406 1.297 . S
C407 C408 1.479 . S
C407 H421 0.950 . S
C408 C407 1.479 . S
C408 C409 1.375 . S
C408 C414 1.404 . S
C409 C408 1.375 . S
C409 C410 1.369 . S
C409 H422 0.950 . S
C410 C409 1.369 . S
C410 C411 1.392 . S
C410 H423 0.951 . S
C411 C410 1.392 . S
C411 C413 1.384 . S
H412 C414 0.949 . S
C413 C411 1.384 . S
C413 C414 1.385 . S
C413 H415 0.950 . S
C414 C408 1.404 . S
C414 H412 0.949 . S
C414 C413 1.385 . S
H415 C413 0.950 . S
H416 C400 0.951 . S
H417 C402 0.951 . S
H418 C404 0.951 . S
H419 C405 0.950 . S
H420 C406 0.950 . S
H421 C407 0.950 . S
H422 C409 0.950 . S
H423 C410 0.951 . S
C424 C425 1.386 . S
C424 C426 1.383 . S
C424 H440 0.951 . S
C425 C424 1.386 . S
C425 C429 1.383 . S
C426 C424 1.383 . S
C426 C427 1.402 . S
C426 H441 0.951 . S
C427 C426 1.402 . S
C427 C428 1.375 . S
C427 C430 1.481 . S
C428 C427 1.375 . S
C428 C429 1.367 . S
C428 H442 0.951 . S
C429 C425 1.383 . S
C429 C428 1.367 . S
C429 H443 0.950 . S
C430 C427 1.481 . S
C430 C431 1.297 . S
C430 H444 0.950 . S
C431 C430 1.297 . S
C431 C432 1.479 . S
C431 H445 0.950 . S
C432 C431 1.479 . S
C432 C433 1.375 . S
C432 C438 1.404 . S
C433 C432 1.375 . S
C433 C434 1.369 . S
C433 H446 0.950 . S
C434 C433 1.369 . S
C434 C435 1.392 . S
C434 H447 0.951 . S
C435 C434 1.392 . S
C435 C437 1.384 . S
H436 C438 0.949 . S
C437 C435 1.384 . S
C437 C438 1.385 . S
C437 H439 0.950 . S
C438 C432 1.404 . S
C438 H436 0.949 . S
C438 C437 1.385 . S
H439 C437 0.950 . S
H440 C424 0.951 . S
H441 C426 0.951 . S
H442 C428 0.951 . S
H443 C429 0.950 . S
H444 C430 0.950 . S
H445 C431 0.950 . S
H446 C433 0.950 . S
H447 C434 0.951 . S
C448 C449 1.386 . S
C448 C450 1.383 . S
C448 H464 0.951 . S
C449 C448 1.386 . S
C449 C453 1.383 . S
C450 C448 1.383 . S
C450 C451 1.402 . S
C450 H465 0.951 . S
C451 C450 1.402 . S
C451 C452 1.375 . S
C451 C454 1.481 . S
C452 C451 1.375 . S
C452 C453 1.367 . S
C452 H466 0.951 . S
C453 C449 1.383 . S
C453 C452 1.367 . S
C453 H467 0.950 . S
C454 C451 1.481 . S
C454 C455 1.297 . S
C454 H468 0.950 . S
C455 C454 1.297 . S
C455 C456 1.479 . S
C455 H469 0.950 . S
C456 C455 1.479 . S
C456 C457 1.375 . S
C456 C462 1.404 . S
C457 C456 1.375 . S
C457 C458 1.369 . S
C457 H470 0.950 . S
C458 C457 1.369 . S
C458 C459 1.392 . S
C458 H471 0.951 . S
C459 C458 1.392 . S
C459 C461 1.384 . S
H460 C462 0.949 . S
C461 C459 1.384 . S
C461 C462 1.385 . S
C461 H463 0.950 . S
C462 C456 1.404 . S
C462 H460 0.949 . S
C462 C461 1.385 . S
H463 C461 0.950 . S
H464 C448 0.951 . S
H465 C450 0.951 . S
H466 C452 0.951 . S
H467 C453 0.950 . S
H468 C454 0.950 . S
H469 C455 0.950 . S
H470 C457 0.950 . S
H471 C458 0.951 . S
C472 C473 1.386 . S
C472 C474 1.383 . S
C472 H488 0.951 . S
C473 C472 1.386 . S
C473 C477 1.383 . S
C474 C472 1.383 . S
C474 C475 1.402 . S
C474 H489 0.951 . S
C475 C474 1.402 . S
C475 C476 1.375 . S
C475 C478 1.481 . S
C476 C475 1.375 . S
C476 C477 1.367 . S
C476 H490 0.951 . S
C477 C473 1.383 . S
C477 C476 1.367 . S
C477 H491 0.950 . S
C478 C475 1.481 . S
C478 C479 1.297 . S
C478 H492 0.950 . S
C479 C478 1.297 . S
C479 C480 1.479 . S
C479 H493 0.950 . S
C480 C479 1.479 . S
C480 C481 1.375 . S
C480 C486 1.404 . S
C481 C480 1.375 . S
C481 C482 1.369 . S
C481 H494 0.950 . S
C482 C481 1.369 . S
C482 C483 1.392 . S
C482 H495 0.951 . S
C483 C482 1.392 . S
C483 C485 1.384 . S
H484 C486 0.949 . S
C485 C483 1.384 . S
C485 C486 1.385 . S
C485 H487 0.950 . S
C486 C480 1.404 . S
C486 H484 0.949 . S
C486 C485 1.385 . S
H487 C485 0.950 . S
H488 C472 0.951 . S
H489 C474 0.951 . S
H490 C476 0.951 . S
H491 C477 0.950 . S
H492 C478 0.950 . S
H493 C479 0.950 . S
H494 C481 0.950 . S
H495 C482 0.951 . S
C113 C5 1.511 . S
C123 C47 1.519 . S
C137 C0 1.465 . S
C147 C14 1.487 . S
C161 C19 1.529 . S
C171 C33 1.498 . S
C185 C42 1.499 . S
C195 C28 1.447 . S
C209 C61 1.512 . S
C219 C103 1.504 . S
C233 C70 1.506 . S
C243 C56 1.460 . S
C257 C89 1.526 . S
C267 C75 1.536 . S
C281 C98 1.475 . S
C291 C84 1.511 . S
C305 C95 1.473 . S
C315 C9 1.486 . S
C329 C25 1.467 . S
C339 C107 1.466 . S
C353 C67 1.467 . S
C363 C37 1.487 . S
C377 C79 1.490 . S
C387 C53 1.463 . S
C401 C81 1.486 . S
C411 C51 1.477 . S
C425 C11 1.466 . S
C435 C93 1.487 . S
C449 C23 1.477 . S
C459 C109 1.482 . S
C473 C39 1.475 . S
C483 C65 1.486 . S
