# Generated by pormake.
# Topology yfg, (5)-cn, num edge types: 1
# Building blocks:
#     Node 0, Type 0, BuildingBlock: XOMCOT_clean_sbu_1, # of connection points: 5
#     Node 1, Type 0, BuildingBlock: XOMCOT_clean_sbu_1, # of connection points: 5
#     Node 2, Type 0, BuildingBlock: XOMCOT_clean_sbu_1, # of connection points: 5
#     Node 3, Type 0, BuildingBlock: XOMCOT_clean_sbu_1, # of connection points: 5
#     Node 4, Type 0, BuildingBlock: XOMCOT_clean_sbu_1, # of connection points: 5
#     Node 5, Type 0, BuildingBlock: XOMCOT_clean_sbu_1, # of connection points: 5
#     Node 6, Type 0, BuildingBlock: XOMCOT_clean_sbu_1, # of connection points: 5
#     Node 7, Type 0, BuildingBlock: XOMCOT_clean_sbu_1, # of connection points: 5
#     Edge 8, Type (0, 0), BuildingBlock: TEMPAE_clean_linker_10, # of connection points: 2
#     Edge 9, Type (0, 0), BuildingBlock: TEMPAE_clean_linker_10, # of connection points: 2
#     Edge 10, Type (0, 0), BuildingBlock: TEMPAE_clean_linker_10, # of connection points: 2
#     Edge 11, Type (0, 0), BuildingBlock: TEMPAE_clean_linker_10, # of connection points: 2
#     Edge 12, Type (0, 0), BuildingBlock: TEMPAE_clean_linker_10, # of connection points: 2
#     Edge 13, Type (0, 0), BuildingBlock: TEMPAE_clean_linker_10, # of connection points: 2
#     Edge 14, Type (0, 0), BuildingBlock: TEMPAE_clean_linker_10, # of connection points: 2
#     Edge 15, Type (0, 0), BuildingBlock: TEMPAE_clean_linker_10, # of connection points: 2
#     Edge 16, Type (0, 0), BuildingBlock: TEMPAE_clean_linker_10, # of connection points: 2
#     Edge 17, Type (0, 0), BuildingBlock: TEMPAE_clean_linker_10, # of connection points: 2
#     Edge 18, Type (0, 0), BuildingBlock: TEMPAE_clean_linker_10, # of connection points: 2
#     Edge 19, Type (0, 0), BuildingBlock: TEMPAE_clean_linker_10, # of connection points: 2
#     Edge 20, Type (0, 0), BuildingBlock: TEMPAE_clean_linker_10, # of connection points: 2
#     Edge 21, Type (0, 0), BuildingBlock: TEMPAE_clean_linker_10, # of connection points: 2
#     Edge 22, Type (0, 0), BuildingBlock: TEMPAE_clean_linker_10, # of connection points: 2
#     Edge 23, Type (0, 0), BuildingBlock: TEMPAE_clean_linker_10, # of connection points: 2
#     Edge 24, Type (0, 0), BuildingBlock: TEMPAE_clean_linker_10, # of connection points: 2
#     Edge 25, Type (0, 0), BuildingBlock: TEMPAE_clean_linker_10, # of connection points: 2
#     Edge 26, Type (0, 0), BuildingBlock: TEMPAE_clean_linker_10, # of connection points: 2
#     Edge 27, Type (0, 0), BuildingBlock: TEMPAE_clean_linker_10, # of connection points: 2
# Relax obj value: 0.434
# Max RMSD: 0.202
# Mean RMSD: 0.202
data_MOF--net-yfg--node1-XOMCOT_clean_sbu_1--edge1-TEMPAE_clean_linker_10
_symmetry_space_group_name_H-M    P1
_symmetry_Int_Tables_number       1
_symmetry_cell_setting            triclinic
loop_
_symmetry_equiv_pos_as_xyz
'x, y, z'
_cell_length_a     36.083835
_cell_length_b     36.108832
_cell_length_c     40.13547
_cell_angle_alpha  90.028494
_cell_angle_beta   90.117305
_cell_angle_gamma 89.966926
loop_
_atom_site_label
_atom_site_type_symbol
_atom_site_fract_x
_atom_site_fract_y
_atom_site_fract_z
_atom_type_partial_charge
C0 C 0.19065 0.50383 0.08163 0.0
C1 C 0.18316 0.50768 0.11504 0.0
N2 N 0.21214 0.49406 0.13234 0.0
N3 N 0.2242 0.48789 0.078 0.0
C4 C 0.23659 0.48216 0.10933 0.0
H5 H 0.17337 0.51312 0.06123 0.0
Co6 Co 0.24934 0.48242 0.03796 0.0
C7 C 0.28588 0.40802 0.0545 0.0
O8 O 0.26817 0.38738 0.03274 0.0
N9 N 0.27504 0.47829 0.99748 0.0
C10 C 0.29932 0.46062 0.94907 0.0
C11 C 0.27898 0.44948 0.97632 0.0
C12 C 0.29282 0.50654 0.98234 0.0
N13 N 0.30803 0.49666 0.95293 0.0
O14 O 0.28595 0.51567 0.05419 0.0
H15 H 0.26669 0.42251 0.97962 0.0
H16 H 0.29445 0.53407 0.99271 0.0
O17 O 0.27873 0.44252 0.05679 0.0
C18 C 0.2759 0.54926 0.05726 0.0
O19 O 0.24288 0.55919 0.04665 0.0
N20 N 0.21105 0.45182 0.02231 0.0
C21 C 0.13821 0.43022 0.00878 0.0
C22 C 0.15861 0.41318 0.03443 0.0
C23 C 0.19501 0.42459 0.04099 0.0
C24 C 0.19257 0.46675 0.9959 0.0
C25 C 0.15635 0.45614 0.98851 0.0
H26 H 0.20869 0.41438 0.06313 0.0
H27 H 0.20459 0.4897 0.98241 0.0
H28 H 0.26377 0.47124 0.1152 0.0
H29 H 0.15853 0.5199 0.1258 0.0
H30 H 0.30599 0.44374 0.92762 0.0
H31 H 0.14578 0.39305 0.05072 0.0
H32 H 0.14168 0.47076 0.96897 0.0
C33 C 0.50108 0.1831 0.32622 0.0
C34 C 0.50038 0.17497 0.35972 0.0
N35 N 0.51067 0.20551 0.37676 0.0
N36 N 0.5123 0.2184 0.3222 0.0
C37 C 0.51754 0.23137 0.35334 0.0
H38 H 0.49359 0.16464 0.30607 0.0
Co39 Co 0.51491 0.24482 0.28269 0.0
C40 C 0.59022 0.28178 0.29921 0.0
O41 O 0.6115 0.26578 0.27691 0.0
N42 N 0.51507 0.27165 0.24292 0.0
C43 C 0.52447 0.3077 0.19882 0.0
C44 C 0.54118 0.28977 0.2253 0.0
C45 C 0.48314 0.2785 0.22647 0.0
N46 N 0.48776 0.30078 0.19983 0.0
O47 O 0.48341 0.28074 0.30149 0.0
H48 H 0.57026 0.29077 0.23142 0.0
H49 H 0.45676 0.26729 0.23414 0.0
O50 O 0.55583 0.27379 0.30068 0.0
C51 C 0.44891 0.27517 0.30483 0.0
O52 O 0.43403 0.24472 0.29288 0.0
N53 N 0.54521 0.20772 0.26435 0.0
C54 C 0.56638 0.13518 0.24985 0.0
C55 C 0.58451 0.15528 0.275 0.0
C56 C 0.57345 0.19164 0.28193 0.0
C57 C 0.52993 0.18987 0.23774 0.0
C58 C 0.54043 0.15375 0.22982 0.0
H59 H 0.58424 0.20486 0.30406 0.0
H60 H 0.50674 0.20205 0.22466 0.0
H61 H 0.5247 0.25977 0.35871 0.0
H62 H 0.49287 0.1486 0.37054 0.0
H63 H 0.53817 0.32547 0.18098 0.0
H64 H 0.60436 0.14196 0.29134 0.0
H65 H 0.52614 0.13949 0.20982 0.0
C66 C 0.78077 0.58557 0.56961 0.0
C67 C 0.78544 0.59269 0.60295 0.0
N68 N 0.7581 0.57569 0.61968 0.0
N69 N 0.7512 0.56309 0.56519 0.0
C70 C 0.73714 0.55892 0.5963 0.0
H71 H 0.79845 0.59616 0.55027 0.0
Co72 Co 0.73248 0.54175 0.52543 0.0
C73 C 0.67353 0.58845 0.53951 0.0
O74 O 0.69555 0.61325 0.52607 0.0
N75 N 0.71345 0.52224 0.4861 0.0
C76 C 0.69713 0.5213 0.43284 0.0
C77 C 0.71139 0.54261 0.45814 0.0
C78 C 0.70019 0.48851 0.47734 0.0
N79 N 0.68988 0.48714 0.44483 0.0
O80 O 0.72559 0.49453 0.54814 0.0
H81 H 0.7202 0.57116 0.45626 0.0
H82 H 0.69799 0.46553 0.49445 0.0
O83 O 0.68372 0.55473 0.53966 0.0
C84 C 0.74284 0.47812 0.57176 0.0
O85 O 0.77454 0.49125 0.58284 0.0
N86 N 0.7808 0.53009 0.51051 0.0
C87 C 0.85631 0.525 0.49754 0.0
C88 C 0.83685 0.55748 0.48993 0.0
C89 C 0.79879 0.55919 0.49619 0.0
C90 C 0.7981 0.49652 0.51275 0.0
C91 C 0.83629 0.4937 0.50753 0.0
H92 H 0.78408 0.58493 0.49213 0.0
H93 H 0.78307 0.4719 0.51948 0.0
H94 H 0.71323 0.54197 0.60195 0.0
H95 H 0.80771 0.60848 0.61417 0.0
H96 H 0.69322 0.53028 0.40737 0.0
H97 H 0.85123 0.58199 0.48132 0.0
H98 H 0.85021 0.46758 0.51204 0.0
C99 C 0.49066 0.7871 0.83823 0.0
C100 C 0.49114 0.78945 0.8722 0.0
N101 N 0.46794 0.76375 0.8843 0.0
N102 N 0.46705 0.76003 0.82854 0.0
C103 C 0.45335 0.74636 0.85748 0.0
H104 H 0.50868 0.80249 0.82187 0.0
Co105 Co 0.46523 0.74161 0.78468 0.0
C106 C 0.42493 0.67907 0.79798 0.0
O107 O 0.4003 0.69729 0.78023 0.0
N108 N 0.465 0.72304 0.74122 0.0
C109 C 0.45774 0.71751 0.68649 0.0
C110 C 0.44635 0.73621 0.71462 0.0
C111 C 0.4865 0.69565 0.7289 0.0
N112 N 0.48342 0.69224 0.69549 0.0
O113 O 0.51751 0.73272 0.78881 0.0
H114 H 0.42714 0.7592 0.71536 0.0
H115 H 0.50504 0.67927 0.74412 0.0
O116 O 0.45707 0.69296 0.80171 0.0
C117 C 0.55085 0.72894 0.77903 0.0
O118 O 0.55915 0.73252 0.74734 0.0
N119 N 0.47015 0.79001 0.76833 0.0
C120 C 0.46896 0.86612 0.75712 0.0
C121 C 0.43774 0.84791 0.76971 0.0
C122 C 0.43883 0.80981 0.77479 0.0
C123 C 0.49994 0.80655 0.75365 0.0
C124 C 0.49992 0.84486 0.74788 0.0
H125 H 0.41515 0.79603 0.78567 0.0
H126 H 0.52426 0.79083 0.74754 0.0
H127 H 0.43535 0.72249 0.85907 0.0
H128 H 0.50876 0.80731 0.88704 0.0
H129 H 0.44946 0.72372 0.66117 0.0
H130 H 0.413 0.86317 0.77643 0.0
H131 H 0.52446 0.85792 0.73778 0.0
C132 C 0.19535 0.46407 0.43207 0.0
C133 C 0.18671 0.46172 0.39882 0.0
N134 N 0.2126 0.48031 0.3812 0.0
N135 N 0.22642 0.4842 0.43567 0.0
C136 C 0.23642 0.49365 0.40442 0.0
H137 H 0.18066 0.45095 0.45235 0.0
Co138 Co 0.25158 0.49007 0.47556 0.0
C139 C 0.27976 0.56907 0.46006 0.0
O140 O 0.25973 0.58839 0.48113 0.0
N141 N 0.27738 0.49369 0.51593 0.0
C142 C 0.31053 0.50906 0.56064 0.0
C143 C 0.28973 0.52244 0.53434 0.0
C144 C 0.29027 0.46341 0.53191 0.0
N145 N 0.31111 0.47177 0.55884 0.0
O146 O 0.29116 0.46276 0.45741 0.0
H147 H 0.28478 0.55124 0.5289 0.0
H148 H 0.28456 0.43552 0.5237 0.0
O149 O 0.27625 0.53396 0.45843 0.0
C150 C 0.28857 0.42785 0.45465 0.0
O151 O 0.25956 0.41073 0.46699 0.0
N152 N 0.21073 0.51563 0.49292 0.0
C153 C 0.13594 0.52877 0.50515 0.0
C154 C 0.15501 0.5498 0.48142 0.0
C155 C 0.1924 0.54236 0.47526 0.0
C156 C 0.19329 0.49718 0.51802 0.0
C157 C 0.15577 0.50326 0.52449 0.0
H158 H 0.20508 0.55487 0.45368 0.0
H159 H 0.20734 0.47478 0.53069 0.0
H160 H 0.26131 0.5091 0.39901 0.0
H161 H 0.1637 0.4462 0.38868 0.0
H162 H 0.32508 0.52564 0.57892 0.0
H163 H 0.1403 0.56908 0.46549 0.0
H164 H 0.14176 0.48626 0.54279 0.0
C165 C 0.5501 0.19932 0.67574 0.0
C166 C 0.55169 0.18967 0.64267 0.0
N167 N 0.53693 0.21748 0.62455 0.0
N168 N 0.53401 0.23284 0.67852 0.0
C169 C 0.5265 0.24337 0.64697 0.0
H170 H 0.56005 0.18304 0.69654 0.0
Co171 Co 0.52782 0.25851 0.71816 0.0
C172 C 0.45054 0.28843 0.7017 0.0
O173 O 0.43217 0.26754 0.72273 0.0
N174 N 0.52365 0.28472 0.7582 0.0
C175 C 0.50709 0.31608 0.80348 0.0
C176 C 0.49449 0.29548 0.77685 0.0
C177 C 0.55349 0.29842 0.77436 0.0
N178 N 0.54435 0.31811 0.80175 0.0
O179 O 0.55886 0.2966 0.70122 0.0
H180 H 0.46592 0.28905 0.77175 0.0
H181 H 0.58157 0.29377 0.76608 0.0
O182 O 0.48573 0.28554 0.69933 0.0
C183 C 0.59314 0.28987 0.697 0.0
O184 O 0.6064 0.25741 0.70583 0.0
N185 N 0.49885 0.21914 0.73469 0.0
C186 C 0.47954 0.14597 0.74933 0.0
C187 C 0.46397 0.16427 0.7218 0.0
C188 C 0.47398 0.20083 0.7149 0.0
C189 C 0.51202 0.20278 0.76294 0.0
C190 C 0.50226 0.16645 0.77101 0.0
H191 H 0.4649 0.21287 0.69163 0.0
H192 H 0.53281 0.2166 0.77786 0.0
H193 H 0.51458 0.26994 0.64058 0.0
H194 H 0.56264 0.164 0.63284 0.0
H195 H 0.48993 0.32917 0.82216 0.0
H196 H 0.4468 0.14964 0.70399 0.0
H197 H 0.51441 0.15381 0.79292 0.0
C198 C 0.80642 0.55871 0.91349 0.0
C199 C 0.80891 0.56483 0.87972 0.0
N200 N 0.77886 0.54986 0.86504 0.0
N201 N 0.77485 0.54014 0.91991 0.0
C202 C 0.75874 0.53489 0.88984 0.0
H203 H 0.82508 0.56921 0.93238 0.0
Co204 Co 0.75376 0.53472 0.9617 0.0
C205 C 0.71997 0.45813 0.95128 0.0
O206 O 0.73838 0.44088 0.97486 0.0
N207 N 0.7318 0.53087 0.00425 0.0
C208 C 0.71458 0.51426 0.05537 0.0
C209 C 0.73376 0.50369 0.0273 0.0
C210 C 0.71168 0.55778 0.01923 0.0
N211 N 0.70065 0.54841 0.05027 0.0
O212 O 0.7139 0.56484 0.94677 0.0
H213 H 0.74955 0.47848 0.02479 0.0
H214 H 0.70541 0.58403 0.00766 0.0
O215 O 0.72553 0.49246 0.94581 0.0
C216 C 0.71944 0.59909 0.94134 0.0
O217 O 0.75079 0.61409 0.95118 0.0
N218 N 0.79485 0.50627 0.97523 0.0
C219 C 0.86512 0.47755 0.98928 0.0
C220 C 0.84327 0.46235 0.96376 0.0
C221 C 0.80843 0.4775 0.95678 0.0
C222 C 0.8154 0.52092 1.00053 0.0
C223 C 0.85041 0.50674 0.00821 0.0
H224 H 0.79342 0.46761 0.93522 0.0
H225 H 0.80529 0.54491 0.01388 0.0
H226 H 0.73136 0.52321 0.88646 0.0
H227 H 0.83031 0.58038 0.86705 0.0
H228 H 0.71234 0.49851 0.07821 0.0
H229 H 0.85394 0.44051 0.94795 0.0
H230 H 0.86636 0.51937 0.02808 0.0
C231 C 0.47586 0.8091 0.17808 0.0
C232 C 0.47019 0.81408 0.14449 0.0
N233 N 0.47687 0.78169 0.12881 0.0
N234 N 0.48636 0.77383 0.18359 0.0
C235 C 0.48695 0.75791 0.15316 0.0
H236 H 0.47061 0.82927 0.19744 0.0
Co237 Co 0.48894 0.75056 0.22488 0.0
C238 C 0.56114 0.70763 0.2145 0.0
O239 O 0.57855 0.72045 0.24081 0.0
N240 N 0.48945 0.72707 0.26686 0.0
C241 C 0.50114 0.70542 0.31773 0.0
C242 C 0.51554 0.72429 0.29085 0.0
C243 C 0.45926 0.71069 0.2803 0.0
N244 N 0.46552 0.69674 0.31106 0.0
O245 O 0.45473 0.71449 0.20907 0.0
H246 H 0.54276 0.73657 0.28984 0.0
H247 H 0.43259 0.71031 0.2681 0.0
O248 O 0.52825 0.71849 0.20793 0.0
C249 C 0.4223 0.72384 0.19998 0.0
O250 O 0.41148 0.75838 0.20326 0.0
N251 N 0.52166 0.78759 0.23965 0.0
C252 C 0.55342 0.8572 0.25021 0.0
C253 C 0.56884 0.83234 0.22716 0.0
C254 C 0.55226 0.79786 0.22192 0.0
C255 C 0.50777 0.81029 0.26371 0.0
C256 C 0.52333 0.84513 0.26954 0.0
H257 H 0.56195 0.78109 0.20143 0.0
H258 H 0.48257 0.80264 0.27652 0.0
H259 H 0.49277 0.72888 0.1493 0.0
H260 H 0.4599 0.8391 0.13289 0.0
H261 H 0.51591 0.69914 0.34051 0.0
H262 H 0.59211 0.84033 0.21177 0.0
H263 H 0.50996 0.86348 0.28715 0.0
C264 C 0.24704 0.49795 0.32992 0.0
C265 C 0.21513 0.48345 0.34525 0.0
C266 C 0.24959 0.50099 0.29508 0.0
C267 C 0.21986 0.48861 0.27494 0.0
C268 C 0.1878 0.47373 0.29003 0.0
C269 C 0.18566 0.47173 0.32484 0.0
C270 C 0.28403 0.51758 0.27985 0.0
C271 C 0.15556 0.45995 0.26937 0.0
C272 C 0.20352 0.52352 0.18707 0.0
C273 C 0.2167 0.49388 0.16793 0.0
C274 C 0.20612 0.523 0.22194 0.0
C275 C 0.22162 0.4917 0.23802 0.0
C276 C 0.23595 0.46213 0.21874 0.0
C277 C 0.2336 0.46375 0.18384 0.0
C278 C 0.19135 0.55547 0.24157 0.0
C279 C 0.25223 0.42807 0.23495 0.0
H280 H 0.27027 0.50692 0.34489 0.0
H281 H 0.16056 0.46104 0.33584 0.0
H282 H 0.2977 0.49697 0.26346 0.0
H283 H 0.27649 0.54166 0.26406 0.0
H284 H 0.3043 0.52684 0.299 0.0
H285 H 0.13324 0.44771 0.28489 0.0
H286 H 0.14363 0.48311 0.25471 0.0
H287 H 0.16521 0.4387 0.25139 0.0
H288 H 0.19113 0.54715 0.17469 0.0
H289 H 0.24369 0.44081 0.16898 0.0
H290 H 0.2124 0.56515 0.25978 0.0
H291 H 0.16659 0.54679 0.25593 0.0
H292 H 0.18344 0.57906 0.22527 0.0
H293 H 0.27377 0.43597 0.25338 0.0
H294 H 0.26473 0.40886 0.21648 0.0
H295 H 0.23019 0.41307 0.24867 0.0
C296 C 0.53569 0.23784 0.42626 0.0
C297 C 0.5131 0.2101 0.41242 0.0
C298 C 0.5389 0.24216 0.46088 0.0
C299 C 0.51938 0.21788 0.48222 0.0
C300 C 0.49605 0.1903 0.4685 0.0
C301 C 0.49308 0.18684 0.4338 0.0
C302 C 0.56389 0.27209 0.47456 0.0
C303 C 0.47479 0.16388 0.4905 0.0
C304 C 0.5574 0.19846 0.5685 0.0
C305 C 0.53346 0.21913 0.58878 0.0
C306 C 0.55347 0.19837 0.53377 0.0
C307 C 0.52505 0.21971 0.51884 0.0
C308 C 0.50136 0.24146 0.53901 0.0
C309 C 0.50577 0.24081 0.57377 0.0
C310 C 0.57935 0.17487 0.51308 0.0
C311 C 0.4709 0.26477 0.52392 0.0
H312 H 0.55162 0.25574 0.41009 0.0
H313 H 0.475 0.16586 0.42347 0.0
H314 H 0.54878 0.28912 0.49312 0.0
H315 H 0.5878 0.25927 0.4876 0.0
H316 H 0.57463 0.29062 0.4547 0.0
H317 H 0.45672 0.14491 0.47594 0.0
H318 H 0.49446 0.14697 0.50538 0.0
H319 H 0.45732 0.17956 0.50832 0.0
H320 H 0.57936 0.18229 0.57976 0.0
H321 H 0.48695 0.25663 0.58921 0.0
H322 H 0.59368 0.19228 0.49435 0.0
H323 H 0.56324 0.15364 0.49927 0.0
H324 H 0.60059 0.16058 0.5285 0.0
H325 H 0.48242 0.28334 0.50451 0.0
H326 H 0.45641 0.28192 0.54284 0.0
H327 H 0.45025 0.2466 0.51156 0.0
C328 C 0.72217 0.57371 0.67198 0.0
C329 C 0.75604 0.57079 0.65516 0.0
C330 C 0.72053 0.56991 0.70687 0.0
C331 C 0.75345 0.56226 0.72497 0.0
C332 C 0.78741 0.55809 0.70776 0.0
C333 C 0.7883 0.56277 0.67316 0.0
C334 C 0.68392 0.57538 0.72432 0.0
C335 C 0.82303 0.54914 0.72593 0.0
C336 C 0.77077 0.5881 0.81499 0.0
C337 C 0.76808 0.55366 0.83076 0.0
C338 C 0.76302 0.59186 0.78091 0.0
C339 C 0.75342 0.56014 0.76202 0.0
C340 C 0.74884 0.52558 0.77824 0.0
C341 C 0.75583 0.52287 0.81263 0.0
C342 C 0.7669 0.62945 0.76485 0.0
C343 C 0.73869 0.49111 0.75899 0.0
H344 H 0.69727 0.57997 0.65791 0.0
H345 H 0.8143 0.5598 0.65996 0.0
H346 H 0.67966 0.55398 0.74376 0.0
H347 H 0.68389 0.60274 0.73693 0.0
H348 H 0.66023 0.57452 0.70663 0.0
H349 H 0.84659 0.54465 0.70862 0.0
H350 H 0.83028 0.57216 0.74306 0.0
H351 H 0.81943 0.52386 0.74129 0.0
H352 H 0.77937 0.61203 0.82936 0.0
H353 H 0.75352 0.49635 0.8251 0.0
H354 H 0.74261 0.63538 0.74872 0.0
H355 H 0.79189 0.62975 0.74878 0.0
H356 H 0.76955 0.65195 0.7836 0.0
H357 H 0.71448 0.49643 0.74259 0.0
H358 H 0.73213 0.46748 0.77568 0.0
H359 H 0.76218 0.48304 0.74271 0.0
C360 C 0.49781 0.74926 0.9374 0.0
C361 C 0.46527 0.75379 0.9188 0.0
C362 C 0.49687 0.74701 0.97216 0.0
C363 C 0.46251 0.7504 0.98882 0.0
C364 C 0.42921 0.75217 0.97003 0.0
C365 C 0.43099 0.75358 0.935 0.0
C366 C 0.53301 0.74421 0.99105 0.0
C367 C 0.39203 0.75579 0.98684 0.0
C368 C 0.46538 0.73714 0.0828 0.0
C369 C 0.47143 0.77361 0.09386 0.0
C370 C 0.46104 0.72908 0.04875 0.0
C371 C 0.46248 0.7582 0.02522 0.0
C372 C 0.46739 0.79512 0.03629 0.0
C373 C 0.47204 0.8023 0.07035 0.0
C374 C 0.45588 0.68938 0.03791 0.0
C375 C 0.46899 0.82707 0.01203 0.0
H376 H 0.52425 0.74941 0.92466 0.0
H377 H 0.40593 0.75723 0.92045 0.0
H378 H 0.53966 0.77145 0.00239 0.0
H379 H 0.5308 0.72375 0.01156 0.0
H380 H 0.55636 0.73605 0.97459 0.0
H381 H 0.36884 0.74981 0.96941 0.0
H382 H 0.39002 0.73691 0.00855 0.0
H383 H 0.38874 0.78451 0.99624 0.0
H384 H 0.46397 0.71476 0.10067 0.0
H385 H 0.47705 0.83046 0.07842 0.0
H386 H 0.47958 0.68067 0.02218 0.0
H387 H 0.43045 0.68672 0.02252 0.0
H388 H 0.45379 0.67014 0.05942 0.0
H389 H 0.49401 0.82442 0.99617 0.0
H390 H 0.46998 0.85434 0.02482 0.0
H391 H 0.44448 0.82659 0.9953 0.0
C392 C 0.07949 0.42691 0.97499 0.0
C393 C 0.09718 0.42585 0.00617 0.0
C394 C 0.04083 0.43062 0.97243 0.0
C395 C 0.01919 0.43291 0.00176 0.0
C396 C 0.03654 0.42902 0.03323 0.0
C397 C 0.07529 0.42572 0.03508 0.0
C398 C 0.02347 0.43463 0.93836 0.0
C399 C 0.01448 0.43091 0.06511 0.0
C400 C 0.93228 0.49214 0.99749 0.0
C401 C 0.90425 0.46553 0.99398 0.0
C402 C 0.96963 0.48178 1.00022 0.0
C403 C 0.97936 0.44377 0.99963 0.0
C404 C 0.95119 0.41667 0.99654 0.0
C405 C 0.91396 0.42788 0.99354 0.0
C406 C 0.99878 0.51163 0.00317 0.0
C407 C 0.96042 0.3759 0.99622 0.0
H408 H 0.09607 0.42641 0.9525 0.0
H409 H 0.08851 0.42538 0.05934 0.0
H410 H 0.99914 0.41608 0.93585 0.0
H411 H 0.01345 0.46346 0.93507 0.0
H412 H 0.04336 0.42828 0.91805 0.0
H413 H 0.03109 0.42219 0.08708 0.0
H414 H 0.00491 0.45976 0.06923 0.0
H415 H 0.98948 0.41313 0.06341 0.0
H416 H 0.9251 0.52129 0.99722 0.0
H417 H 0.89239 0.40718 0.99099 0.0
H418 H 0.01837 0.50967 0.98197 0.0
H419 H 0.01508 0.50772 0.02637 0.0
H420 H 0.9866 0.53989 0.00344 0.0
H421 H 0.97862 0.3695 0.97474 0.0
H422 H 0.93525 0.35828 0.99457 0.0
H423 H 0.97594 0.36843 0.01915 0.0
C424 C 0.60424 0.07634 0.25174 0.0
C425 C 0.56986 0.0941 0.24801 0.0
C426 C 0.60676 0.03741 0.25231 0.0
C427 C 0.57412 0.01583 0.24938 0.0
C428 C 0.53945 0.03365 0.24546 0.0
C429 C 0.53776 0.07241 0.24486 0.0
C430 C 0.64423 0.01936 0.25629 0.0
C431 C 0.50389 0.01178 0.24243 0.0
C432 C 0.57211 0.91568 0.22092 0.0
C433 C 0.56501 0.89688 0.25089 0.0
C434 C 0.57759 0.95416 0.22034 0.0
C435 C 0.57561 0.97456 0.2504 0.0
C436 C 0.5705 0.95559 0.28094 0.0
C437 C 0.56533 0.917 0.28082 0.0
C438 C 0.58303 0.97324 0.18724 0.0
C439 C 0.56827 0.97629 0.31356 0.0
H440 H 0.62914 0.09289 0.25421 0.0
H441 H 0.51095 0.08579 0.24289 0.0
H442 H 0.64469 0.00232 0.27929 0.0
H443 H 0.64958 1.00043 0.23505 0.0
H444 H 0.66702 0.03998 0.25768 0.0
H445 H 0.47923 0.02988 0.23925 0.0
H446 H 0.50547 0.9927 0.22081 0.0
H447 H 0.49987 0.99456 0.26502 0.0
H448 H 0.57138 0.90068 0.19754 0.0
H449 H 0.56041 0.90271 0.30414 0.0
H450 H 0.60619 0.99337 0.18872 0.0
H451 H 0.55761 0.98897 0.1807 0.0
H452 H 0.58886 0.95325 0.16686 0.0
H453 H 0.59177 0.99591 0.31599 0.0
H454 H 0.56844 0.95732 0.33534 0.0
H455 H 0.54235 0.99284 0.31421 0.0
C456 C 0.07491 0.56144 0.51114 0.0
C457 C 0.09491 0.5288 0.50558 0.0
C458 C 0.03593 0.56146 0.51007 0.0
C459 C 0.01676 0.52828 0.50224 0.0
C460 C 0.03703 0.49539 0.49617 0.0
C461 C 0.07583 0.49598 0.4983 0.0
C462 C 0.01526 0.59686 0.51746 0.0
C463 C 0.01778 0.45968 0.48698 0.0
C464 C 0.91609 0.51573 0.52745 0.0
C465 C 0.89734 0.5248 0.49795 0.0
C466 C 0.95489 0.51748 0.52935 0.0
C467 C 0.97548 0.52767 0.5008 0.0
C468 C 0.95664 0.53638 0.47077 0.0
C469 C 0.91768 0.53537 0.46985 0.0
C470 C 0.9738 0.50878 0.56203 0.0
C471 C 0.97763 0.54641 0.43956 0.0
H472 H 0.08979 0.58682 0.5166 0.0
H473 H 0.09142 0.47089 0.49337 0.0
H474 H 0.99845 0.60512 0.49553 0.0
H475 H 0.99581 0.59241 0.53846 0.0
H476 H 0.03422 0.62 0.52397 0.0
H477 H 0.03767 0.43685 0.482 0.0
H478 H 0.99905 0.45099 0.50741 0.0
H479 H 1.00039 0.4639 0.46446 0.0
H480 H 0.90025 0.50813 0.54933 0.0
H481 H 0.90309 0.54243 0.44708 0.0
H482 H 0.99139 0.53247 0.5698 0.0
H483 H 0.9923 0.48447 0.55903 0.0
H484 H 0.95369 0.50276 0.58223 0.0
H485 H 0.99471 0.57146 0.44402 0.0
H486 H 0.95889 0.5518 0.41811 0.0
H487 H 0.99686 0.52363 0.43281 0.0
C488 C 0.44322 0.08657 0.74383 0.0
C489 C 0.47603 0.10496 0.75288 0.0
C490 C 0.4411 0.04769 0.74405 0.0
C491 C 0.47234 0.02664 0.75399 0.0
C492 C 0.50521 0.04496 0.76389 0.0
C493 C 0.50676 0.08376 0.76294 0.0
C494 C 0.4056 0.02912 0.7332 0.0
C495 C 0.53901 0.02355 0.77502 0.0
C496 C 0.45812 0.92779 0.78354 0.0
C497 C 0.46969 0.9072 0.75578 0.0
C498 C 0.45866 0.96662 0.78321 0.0
C499 C 0.47073 0.98541 0.75428 0.0
C500 C 0.48225 0.9648 0.72606 0.0
C501 C 0.48188 0.92587 0.72725 0.0
C502 C 0.44683 0.98751 0.81402 0.0
C503 C 0.49495 0.98388 0.69464 0.0
H504 H 0.41921 0.10257 0.73632 0.0
H505 H 0.53258 0.09741 0.7692 0.0
H506 H 0.4111 0.0106 0.71169 0.0
H507 H 0.3947 0.0116 0.75365 0.0
H508 H 0.38388 0.04941 0.72593 0.0
H509 H 0.56195 0.04199 0.78313 0.0
H510 H 0.53175 0.00491 0.79599 0.0
H511 H 0.54913 0.00586 0.75434 0.0
H512 H 0.4492 0.91342 0.80584 0.0
H513 H 0.49063 0.91001 0.70571 0.0
H514 H 0.42372 0.00663 0.80794 0.0
H515 H 0.47017 0.00467 0.82333 0.0
H516 H 0.43776 0.96873 0.83434 0.0
H517 H 0.47296 0.00281 0.68545 0.0
H518 H 0.5019 0.9639 0.67454 0.0
H519 H 0.51976 1.00102 0.69998 0.0
C520 C 0.39158 0.66329 0.19078 0.0
C521 C 0.40098 0.69847 0.17909 0.0
C522 C 0.37193 0.63858 0.17039 0.0
C523 C 0.36305 0.64905 0.13729 0.0
C524 C 0.37371 0.68426 0.12515 0.0
C525 C 0.39198 0.7089 0.14652 0.0
C526 C 0.36014 0.60163 0.18442 0.0
C527 C 0.36586 0.69589 0.08968 0.0
C528 C 0.3373 0.57205 0.07722 0.0
C529 C 0.29866 0.57552 0.07632 0.0
C530 C 0.35884 0.5964 0.09643 0.0
C531 C 0.34105 0.62387 0.11587 0.0
C532 C 0.302 0.62725 0.11512 0.0
C533 C 0.2813 0.60332 0.09496 0.0
C534 C 0.40052 0.59273 0.09598 0.0
C535 C 0.28202 0.65566 0.13612 0.0
H536 H 0.399 0.65548 0.21602 0.0
H537 H 0.40013 0.73602 0.13752 0.0
H538 H 0.32953 0.59903 0.18312 0.0
H539 H 0.372 0.57881 0.16932 0.0
H540 H 0.36901 0.59794 0.21074 0.0
H541 H 0.37861 0.72302 0.08348 0.0
H542 H 0.37654 0.67474 0.07208 0.0
H543 H 0.33551 0.69795 0.08566 0.0
H544 H 0.35064 0.55053 0.06269 0.0
H545 H 0.25134 0.60564 0.0946 0.0
H546 H 0.41072 0.58506 0.12113 0.0
H547 H 0.41337 0.61968 0.08946 0.0
H548 H 0.41009 0.57148 0.07791 0.0
H549 H 0.289 0.65155 0.16281 0.0
H550 H 0.25144 0.65408 0.13319 0.0
H551 H 0.29119 0.68394 0.12921 0.0
C552 C 0.44416 0.32076 0.3509 0.0
C553 C 0.42691 0.30059 0.32537 0.0
C554 C 0.42333 0.3429 0.37253 0.0
C555 C 0.38456 0.34548 0.36789 0.0
C556 C 0.3672 0.32616 0.34141 0.0
C557 C 0.38861 0.30347 0.32066 0.0
C558 C 0.44264 0.36252 0.40091 0.0
C559 C 0.32598 0.32903 0.33532 0.0
C560 C 0.32203 0.36993 0.44016 0.0
C561 C 0.31539 0.40751 0.43422 0.0
C562 C 0.34558 0.34965 0.41931 0.0
C563 C 0.36187 0.3673 0.39146 0.0
C564 C 0.35557 0.40542 0.38562 0.0
C565 C 0.33269 0.42524 0.40739 0.0
C566 C 0.35251 0.30922 0.42673 0.0
C567 C 0.37192 0.42495 0.3558 0.0
H568 H 0.47381 0.31822 0.35474 0.0
H569 H 0.37541 0.28801 0.30075 0.0
H570 H 0.43669 0.39264 0.4 0.0
H571 H 0.43193 0.35203 0.42503 0.0
H572 H 0.47315 0.35847 0.4004 0.0
H573 H 0.31723 0.31417 0.31237 0.0
H574 H 0.31072 0.31723 0.3568 0.0
H575 H 0.31768 0.35852 0.33309 0.0
H576 H 0.30874 0.35641 0.46109 0.0
H577 H 0.32716 0.45429 0.40263 0.0
H578 H 0.38274 0.30371 0.42799 0.0
H579 H 0.34106 0.29189 0.40634 0.0
H580 H 0.3397 0.30038 0.45058 0.0
H581 H 0.40248 0.42162 0.35556 0.0
H582 H 0.36527 0.455 0.35551 0.0
H583 H 0.36109 0.41226 0.33255 0.0
C584 C 0.65071 0.30573 0.66598 0.0
C585 C 0.61718 0.31711 0.6803 0.0
C586 C 0.67292 0.33075 0.64833 0.0
C587 C 0.66156 0.36811 0.64546 0.0
C588 C 0.62817 0.37997 0.66056 0.0
C589 C 0.60618 0.35421 0.67759 0.0
C590 C 0.7081 0.31704 0.63214 0.0
C591 C 0.61549 0.41978 0.65842 0.0
C592 C 0.73287 0.44103 0.62322 0.0
C593 C 0.72453 0.44758 0.58961 0.0
C594 C 0.71275 0.41501 0.64172 0.0
C595 C 0.68415 0.39465 0.62597 0.0
C596 C 0.67646 0.40028 0.59174 0.0
C597 C 0.69654 0.42699 0.57403 0.0
C598 C 0.72128 0.4102 0.67833 0.0
C599 C 0.64651 0.37866 0.574 0.0
H600 H 0.65919 0.27699 0.66782 0.0
H601 H 0.58035 0.36312 0.6888 0.0
H602 H 0.70648 0.32123 0.60479 0.0
H603 H 0.73219 0.33319 0.64132 0.0
H604 H 0.71325 0.28721 0.63711 0.0
H605 H 0.58966 0.42481 0.67275 0.0
H606 H 0.63745 0.43846 0.66804 0.0
H607 H 0.61045 0.42739 0.63202 0.0
H608 H 0.75416 0.45729 0.63547 0.0
H609 H 0.69008 0.43199 0.54804 0.0
H610 H 0.72782 0.3808 0.68377 0.0
H611 H 0.69659 0.41768 0.69334 0.0
H612 H 0.74494 0.42763 0.68661 0.0
H613 H 0.65109 0.3485 0.57732 0.0
H614 H 0.64549 0.38484 0.54689 0.0
H615 H 0.61911 0.38533 0.58498 0.0
C616 C 0.66719 0.60094 0.90055 0.0
C617 C 0.69421 0.61982 0.91912 0.0
C618 C 0.64527 0.6196 0.87708 0.0
C619 C 0.6503 0.6581 0.87226 0.0
C620 C 0.67718 0.6774 0.8912 0.0
C621 C 0.69894 0.65798 0.91434 0.0
C622 C 0.61652 0.59818 0.85763 0.0
C623 C 0.6829 0.71854 0.887 0.0
C624 C 0.61241 0.69988 0.79222 0.0
C625 C 0.57824 0.71396 0.80301 0.0
C626 C 0.63655 0.6821 0.81462 0.0
C627 C 0.62615 0.67839 0.84849 0.0
C628 C 0.59202 0.69314 0.85958 0.0
C629 C 0.56872 0.71104 0.83681 0.0
C630 C 0.67265 0.66634 0.8019 0.0
C631 C 0.57971 0.68988 0.89545 0.0
H632 H 0.6636 0.57136 0.90386 0.0
H633 H 0.71985 0.67269 0.92855 0.0
H634 H 0.5885 0.6093 0.86312 0.0
H635 H 0.62128 0.60156 0.8305 0.0
H636 H 0.61685 0.56814 0.86363 0.0
H637 H 0.70573 0.72926 0.90292 0.0
H638 H 0.68928 0.72498 0.8606 0.0
H639 H 0.65703 0.73351 0.89347 0.0
H640 H 0.61987 0.70182 0.76613 0.0
H641 H 0.54249 0.722 0.8455 0.0
H642 H 0.67273 0.63579 0.8049 0.0
H643 H 0.69621 0.67731 0.81672 0.0
H644 H 0.67739 0.67291 0.77521 0.0
H645 H 0.58631 0.66222 0.90589 0.0
H646 H 0.54944 0.69456 0.8981 0.0
H647 H 0.59449 0.71088 0.91067 0.0
C648 C 0.33669 0.4146 0.0968 0.0
C649 C 0.31529 0.39174 0.07597 0.0
C650 C 0.36516 0.39995 0.11674 0.0
C651 C 0.37241 0.36142 0.11608 0.0
C652 C 0.3508 0.33813 0.09531 0.0
C653 C 0.32259 0.35357 0.07544 0.0
C654 C 0.38756 0.42578 0.13848 0.0
C655 C 0.35742 0.29687 0.09415 0.0
C656 C 0.4668 0.32726 0.14599 0.0
C657 C 0.45895 0.31579 0.17863 0.0
C658 C 0.43894 0.34207 0.12533 0.0
C659 C 0.40226 0.34545 0.13752 0.0
C660 C 0.39414 0.33397 0.17042 0.0
C661 C 0.42252 0.31945 0.19054 0.0
C662 C 0.44876 0.35418 0.09045 0.0
C663 C 0.35547 0.33722 0.18447 0.0
H664 H 0.33141 0.44415 0.09739 0.0
H665 H 0.30622 0.33565 0.05951 0.0
H666 H 0.38474 0.41767 0.165 0.0
H667 H 0.41737 0.42366 0.13203 0.0
H668 H 0.37877 0.45513 0.1358 0.0
H669 H 0.33828 0.28256 0.07666 0.0
H670 H 0.38635 0.29113 0.08638 0.0
H671 H 0.35378 0.28484 0.11937 0.0
H672 H 0.49469 0.32432 0.13644 0.0
H673 H 0.41615 0.31151 0.21588 0.0
H674 H 0.44219 0.38398 0.0872 0.0
H675 H 0.43189 0.3386 0.07205 0.0
H676 H 0.47855 0.3498 0.08472 0.0
H677 H 0.34659 0.36664 0.18451 0.0
H678 H 0.35355 0.32638 0.21031 0.0
H679 H 0.33562 0.32178 0.16854 0.0
C680 C 0.58349 0.32461 0.34819 0.0
C681 C 0.60578 0.30957 0.32288 0.0
C682 C 0.59731 0.35133 0.37044 0.0
C683 C 0.63411 0.36429 0.36686 0.0
C684 C 0.65693 0.34899 0.34163 0.0
C685 C 0.6426 0.32167 0.32012 0.0
C686 C 0.57206 0.36637 0.3972 0.0
C687 C 0.6962 0.36227 0.33673 0.0
C688 C 0.65532 0.46218 0.39636 0.0
C689 C 0.67485 0.45611 0.42621 0.0
C690 C 0.64202 0.43263 0.37699 0.0
C691 C 0.64777 0.39576 0.38778 0.0
C692 C 0.66657 0.38925 0.41826 0.0
C693 C 0.68002 0.41943 0.43702 0.0
C694 C 0.62198 0.44093 0.34476 0.0
C695 C 0.6727 0.35037 0.43093 0.0
H696 H 0.55493 0.31588 0.35051 0.0
H697 H 0.66008 0.31035 0.3007 0.0
H698 H 0.58639 0.36652 0.42168 0.0
H699 H 0.56452 0.39541 0.39125 0.0
H700 H 0.54615 0.34996 0.39951 0.0
H701 H 0.71096 0.34638 0.31711 0.0
H702 H 0.69601 0.39196 0.32961 0.0
H703 H 0.71198 0.35993 0.36038 0.0
H704 H 0.65019 0.49019 0.38799 0.0
H705 H 0.69514 0.41416 0.45985 0.0
H706 H 0.5935 0.42943 0.34559 0.0
H707 H 0.63651 0.42743 0.32365 0.0
H708 H 0.62012 0.47111 0.33965 0.0
H709 H 0.64578 0.33572 0.43306 0.0
H710 H 0.68668 0.34994 0.45561 0.0
H711 H 0.68988 0.33462 0.41293 0.0
C712 C 0.49537 0.66149 0.64141 0.0
C713 C 0.50729 0.6713 0.67353 0.0
C714 C 0.51965 0.6447 0.61857 0.0
C715 C 0.55687 0.63776 0.62796 0.0
C716 C 0.56867 0.64617 0.66077 0.0
C717 C 0.54377 0.66271 0.68312 0.0
C718 C 0.50584 0.63556 0.584 0.0
C719 C 0.60816 0.63941 0.67183 0.0
C720 C 0.62006 0.57461 0.5775 0.0
C721 C 0.64088 0.6004 0.55924 0.0
C722 C 0.59179 0.5862 0.59922 0.0
C723 C 0.58429 0.62448 0.60289 0.0
C724 C 0.60444 0.65052 0.58376 0.0
C725 C 0.63234 0.63817 0.56212 0.0
C726 C 0.57086 0.55756 0.61908 0.0
C727 C 0.59747 0.69161 0.58706 0.0
H728 H 0.46713 0.66746 0.63395 0.0
H729 H 0.55353 0.67036 0.70767 0.0
H730 H 0.5199 0.65355 0.56553 0.0
H731 H 0.51269 0.60646 0.57759 0.0
H732 H 0.47543 0.63955 0.58153 0.0
H733 H 0.61198 0.64401 0.699 0.0
H734 H 0.61676 0.6107 0.66578 0.0
H735 H 0.62698 0.65837 0.65821 0.0
H736 H 0.62649 0.54536 0.57553 0.0
H737 H 0.64824 0.65833 0.54817 0.0
H738 H 0.54056 0.56189 0.6164 0.0
H739 H 0.57769 0.56055 0.64591 0.0
H740 H 0.57768 0.52885 0.61122 0.0
H741 H 0.56779 0.69785 0.58247 0.0
H742 H 0.61445 0.70814 0.56944 0.0
H743 H 0.604 0.7007 0.61282 0.0
C744 C 0.32322 0.55883 0.93097 0.0
C745 C 0.32805 0.52025 0.93007 0.0
C746 C 0.3422 0.58216 0.90892 0.0
C747 C 0.36638 0.56665 0.88495 0.0
C748 C 0.37169 0.52783 0.88394 0.0
C749 C 0.35256 0.5051 0.90656 0.0
C750 C 0.33582 0.62347 0.91092 0.0
C751 C 0.39723 0.51029 0.85869 0.0
C752 C 0.38 0.62826 0.80956 0.0
C753 C 0.4133 0.64626 0.81741 0.0
C754 C 0.36549 0.60073 0.83043 0.0
C755 C 0.38455 0.59124 0.86009 0.0
C756 C 0.41915 0.60799 0.86731 0.0
C757 C 0.43325 0.63518 0.84574 0.0
C758 C 0.32875 0.58323 0.8216 0.0
C759 C 0.44021 0.59884 0.89879 0.0
H760 H 0.30399 0.57098 0.94849 0.0
H761 H 0.35698 0.47546 0.9059 0.0
H762 H 0.36264 0.63815 0.9138 0.0
H763 H 0.32291 0.63342 0.88746 0.0
H764 H 0.31756 0.63128 0.93205 0.0
H765 H 0.39923 0.47979 0.86179 0.0
H766 H 0.38711 0.51632 0.83314 0.0
H767 H 0.4254 0.52234 0.86088 0.0
H768 H 0.36461 0.63649 0.78755 0.0
H769 H 0.45897 0.64908 0.85202 0.0
H770 H 0.30734 0.59238 0.83963 0.0
H771 H 0.33064 0.55263 0.82329 0.0
H772 H 0.31938 0.59081 0.79612 0.0
H773 H 0.42494 0.6099 0.92061 0.0
H774 H 0.46853 0.61091 0.89883 0.0
H775 H 0.44242 0.56842 0.90204 0.0
C776 C 0.3068 0.62637 0.43425 0.0
C777 C 0.30701 0.58775 0.43802 0.0
C778 C 0.33241 0.64416 0.41327 0.0
C779 C 0.35929 0.62291 0.39604 0.0
C780 C 0.35971 0.58392 0.39985 0.0
C781 C 0.33344 0.56683 0.42055 0.0
C782 C 0.33054 0.6857 0.40937 0.0
C783 C 0.38812 0.56023 0.38229 0.0
C784 C 0.4057 0.66384 0.31928 0.0
C785 C 0.43917 0.67771 0.33235 0.0
C786 C 0.37947 0.64622 0.33968 0.0
C787 C 0.38696 0.64149 0.37404 0.0
C788 C 0.42085 0.65462 0.38738 0.0
C789 C 0.44632 0.67278 0.36653 0.0
C790 C 0.34355 0.63285 0.32445 0.0
C791 C 0.43021 0.64954 0.42378 0.0
H792 H 0.28635 0.64274 0.44744 0.0
H793 H 0.33393 0.53697 0.42333 0.0
H794 H 0.357 0.69838 0.41763 0.0
H795 H 0.3267 0.69294 0.38271 0.0
H796 H 0.30754 0.69816 0.42394 0.0
H797 H 0.38488 0.53032 0.38808 0.0
H798 H 0.3858 0.56396 0.35494 0.0
H799 H 0.41644 0.56902 0.38965 0.0
H800 H 0.39981 0.66647 0.29297 0.0
H801 H 0.47169 0.68337 0.37727 0.0
H802 H 0.31973 0.64592 0.33736 0.0
H803 H 0.34086 0.60248 0.32776 0.0
H804 H 0.3416 0.63925 0.29743 0.0
H805 H 0.40955 0.66418 0.43942 0.0
H806 H 0.45824 0.66018 0.43011 0.0
H807 H 0.42891 0.61974 0.43043 0.0
C808 C 0.34189 0.4556 0.61223 0.0
C809 C 0.33163 0.44609 0.57957 0.0
C810 C 0.36185 0.43078 0.63247 0.0
C811 C 0.37169 0.39545 0.61988 0.0
C812 C 0.36165 0.38575 0.58691 0.0
C813 C 0.34196 0.41116 0.56718 0.0
C814 C 0.37227 0.44226 0.66743 0.0
C815 C 0.37159 0.3484 0.57246 0.0
C816 C 0.44997 0.34084 0.6606 0.0
C817 C 0.43042 0.31586 0.68079 0.0
C818 C 0.43127 0.36715 0.64095 0.0
C819 C 0.39203 0.36837 0.64125 0.0
C820 C 0.37215 0.34318 0.66149 0.0
C821 C 0.39155 0.31735 0.68107 0.0
C822 C 0.45353 0.3936 0.61984 0.0
C823 C 0.33031 0.3433 0.66225 0.0
H824 H 0.33391 0.48231 0.62217 0.0
H825 H 0.33507 0.40368 0.5418 0.0
H826 H 0.35929 0.42324 0.6857 0.0
H827 H 0.40272 0.44022 0.67086 0.0
H828 H 0.36343 0.47103 0.67322 0.0
H829 H 0.36167 0.34508 0.5464 0.0
H830 H 0.40209 0.34453 0.57287 0.0
H831 H 0.35936 0.32605 0.58788 0.0
H832 H 0.47999 0.34001 0.66021 0.0
H833 H 0.37615 0.29815 0.69649 0.0
H834 H 0.44641 0.4226 0.62636 0.0
H835 H 0.44651 0.38965 0.59315 0.0
H836 H 0.48387 0.3897 0.62304 0.0
H837 H 0.32006 0.37092 0.67011 0.0
H838 H 0.31897 0.32209 0.67948 0.0
H839 H 0.31923 0.33797 0.63689 0.0
C840 C 0.69247 0.39871 0.93042 0.0
C841 C 0.69349 0.43754 0.9299 0.0
C842 C 0.66801 0.37897 0.90972 0.0
C843 C 0.64365 0.39852 0.88831 0.0
C844 C 0.64428 0.43773 0.88793 0.0
C845 C 0.66932 0.45674 0.90857 0.0
C846 C 0.66854 0.33716 0.91048 0.0
C847 C 0.61852 0.45963 0.8657 0.0
C848 C 0.60454 0.34891 0.81247 0.0
C849 C 0.5692 0.33824 0.82356 0.0
C850 C 0.62904 0.36836 0.83329 0.0
C851 C 0.61787 0.37792 0.86596 0.0
C852 C 0.58218 0.36768 0.87727 0.0
C853 C 0.55839 0.34781 0.85604 0.0
C854 C 0.66692 0.37867 0.8203 0.0
C855 C 0.56912 0.37772 0.91184 0.0
H856 H 0.71116 0.38366 0.94668 0.0
H857 H 0.66977 0.48675 0.9081 0.0
H858 H 0.64075 0.32646 0.91722 0.0
H859 H 0.67523 0.32625 0.88535 0.0
H860 H 0.68913 0.32612 0.92854 0.0
H861 H 0.62189 0.49 0.86896 0.0
H862 H 0.62378 0.45263 0.83921 0.0
H863 H 0.58932 0.45219 0.8711 0.0
H864 H 0.61308 0.34251 0.78729 0.0
H865 H 0.53141 0.3395 0.86507 0.0
H866 H 0.68871 0.36687 0.83672 0.0
H867 H 0.67033 0.4092 0.82061 0.0
H868 H 0.67161 0.3686 0.79449 0.0
H869 H 0.58758 0.36493 0.93074 0.0
H870 H 0.54025 0.36849 0.91659 0.0
H871 H 0.57058 0.40816 0.9154 0.0
C872 C 0.5629 0.67011 0.16178 0.0
C873 C 0.58072 0.68276 0.19078 0.0
C874 C 0.58154 0.64786 0.13846 0.0
C875 C 0.61885 0.63757 0.14438 0.0
C876 C 0.63683 0.64971 0.17383 0.0
C877 C 0.61761 0.67219 0.19661 0.0
C878 C 0.56137 0.63567 0.10733 0.0
C879 C 0.67654 0.63922 0.18115 0.0
C880 C 0.65898 0.55401 0.09902 0.0
C881 C 0.67965 0.57074 0.07352 0.0
C882 C 0.63889 0.57535 0.12208 0.0
C883 C 0.6393 0.61446 0.11962 0.0
C884 C 0.65976 0.63156 0.09379 0.0
C885 C 0.67971 0.60956 0.07117 0.0
C886 C 0.61736 0.55603 0.1492 0.0
C887 C 0.66087 0.67318 0.09024 0.0
H888 H 0.53435 0.67777 0.15711 0.0
H889 H 0.63166 0.68167 0.21892 0.0
H890 H 0.57628 0.64574 0.08495 0.0
H891 H 0.5608 0.60499 0.10594 0.0
H892 H 0.53241 0.64613 0.10638 0.0
H893 H 0.68633 0.65033 0.20544 0.0
H894 H 0.67947 0.60864 0.18144 0.0
H895 H 0.69488 0.64989 0.16119 0.0
H896 H 0.65822 0.52411 0.10083 0.0
H897 H 0.69592 0.62293 0.05197 0.0
H898 H 0.58766 0.5638 0.14765 0.0
H899 H 0.6276 0.56504 0.17399 0.0
H900 H 0.61965 0.5254 0.14759 0.0
H901 H 0.63232 0.68428 0.08776 0.0
H902 H 0.67728 0.68217 0.06829 0.0
H903 H 0.67318 0.68572 0.11295 0.0
loop_
_geom_bond_atom_site_label_1
_geom_bond_atom_site_label_2
_geom_bond_distance
_geom_bond_site_symmetry_2
_ccdc_geom_bond_type
C0 C1 1.351 . S
C0 N3 1.368 . S
C0 H5 0.931 . S
C1 C0 1.351 . S
C1 N2 1.373 . S
C1 H29 0.930 . S
N2 C1 1.373 . S
N2 C4 1.340 . S
N3 C0 1.368 . S
N3 C4 1.321 . S
N3 Co6 2.135 . S
C4 N2 1.340 . S
C4 N3 1.321 . S
C4 H28 0.930 . S
H5 C0 0.931 . S
Co6 N3 2.135 . S
Co6 N9 2.121 . S
Co6 O14 2.055 . S
Co6 O17 2.039 . S
Co6 N20 2.140 . S
C7 O8 1.227 . S
C7 O17 1.265 . S
O8 C7 1.227 . S
N9 Co6 2.121 . S
N9 C11 1.375 1_554 S
N9 C12 1.313 1_554 S
C10 C11 1.338 . S
C10 N13 1.377 . S
C10 H30 0.930 . S
C11 N9 1.375 1_556 S
C11 C10 1.338 . S
C11 H15 0.931 . S
C12 N9 1.313 1_556 S
C12 N13 1.344 . S
C12 H16 0.930 1_556 S
N13 C10 1.377 . S
N13 C12 1.344 . S
O14 Co6 2.055 . S
O14 C18 1.253 . S
H15 C11 0.931 . S
H16 C12 0.930 1_554 S
O17 Co6 2.039 . S
O17 C7 1.265 . S
C18 O14 1.253 . S
C18 O19 1.227 . S
O19 C18 1.227 . S
N20 Co6 2.140 . S
N20 C23 1.346 . S
N20 C24 1.345 . S
C21 C22 1.387 . S
C21 C25 1.391 . S
C22 C21 1.387 . S
C22 C23 1.369 . S
C22 H31 0.929 . S
C23 N20 1.346 . S
C23 C22 1.369 . S
C23 H26 0.928 . S
C24 N20 1.345 . S
C24 C25 1.371 . S
C24 H27 0.931 . S
C25 C21 1.391 . S
C25 C24 1.371 . S
C25 H32 0.930 1_554 S
H26 C23 0.928 . S
H27 C24 0.931 . S
H28 C4 0.930 . S
H29 C1 0.930 . S
H30 C10 0.930 . S
H31 C22 0.929 . S
H32 C25 0.930 1_556 S
C33 C34 1.351 . S
C33 N36 1.368 . S
C33 H38 0.931 . S
C34 C33 1.351 . S
C34 N35 1.373 . S
C34 H62 0.930 . S
N35 C34 1.373 . S
N35 C37 1.340 . S
N36 C33 1.368 . S
N36 C37 1.321 . S
N36 Co39 2.135 . S
C37 N35 1.340 . S
C37 N36 1.321 . S
C37 H61 0.930 . S
H38 C33 0.931 . S
Co39 N36 2.135 . S
Co39 N42 2.121 . S
Co39 O47 2.055 . S
Co39 O50 2.039 . S
Co39 N53 2.140 . S
C40 O41 1.227 . S
C40 O50 1.265 . S
O41 C40 1.227 . S
N42 Co39 2.121 . S
N42 C44 1.375 . S
N42 C45 1.313 . S
C43 C44 1.338 . S
C43 N46 1.377 . S
C43 H63 0.930 . S
C44 N42 1.375 . S
C44 C43 1.338 . S
C44 H48 0.931 . S
C45 N42 1.313 . S
C45 N46 1.344 . S
C45 H49 0.930 . S
N46 C43 1.377 . S
N46 C45 1.344 . S
O47 Co39 2.055 . S
O47 C51 1.253 . S
H48 C44 0.931 . S
H49 C45 0.930 . S
O50 Co39 2.039 . S
O50 C40 1.265 . S
C51 O47 1.253 . S
C51 O52 1.227 . S
O52 C51 1.227 . S
N53 Co39 2.140 . S
N53 C56 1.346 . S
N53 C57 1.345 . S
C54 C55 1.387 . S
C54 C58 1.391 . S
C55 C54 1.387 . S
C55 C56 1.369 . S
C55 H64 0.929 . S
C56 N53 1.346 . S
C56 C55 1.369 . S
C56 H59 0.928 . S
C57 N53 1.345 . S
C57 C58 1.371 . S
C57 H60 0.931 . S
C58 C54 1.391 . S
C58 C57 1.371 . S
C58 H65 0.930 . S
H59 C56 0.928 . S
H60 C57 0.931 . S
H61 C37 0.930 . S
H62 C34 0.930 . S
H63 C43 0.930 . S
H64 C55 0.929 . S
H65 C58 0.930 . S
C66 C67 1.351 . S
C66 N69 1.368 . S
C66 H71 0.931 . S
C67 C66 1.351 . S
C67 N68 1.373 . S
C67 H95 0.930 . S
N68 C67 1.373 . S
N68 C70 1.340 . S
N69 C66 1.368 . S
N69 C70 1.321 . S
N69 Co72 2.135 . S
C70 N68 1.340 . S
C70 N69 1.321 . S
C70 H94 0.930 . S
H71 C66 0.931 . S
Co72 N69 2.135 . S
Co72 N75 2.121 . S
Co72 O80 2.055 . S
Co72 O83 2.039 . S
Co72 N86 2.140 . S
C73 O74 1.227 . S
C73 O83 1.265 . S
O74 C73 1.227 . S
N75 Co72 2.121 . S
N75 C77 1.375 . S
N75 C78 1.313 . S
C76 C77 1.338 . S
C76 N79 1.377 . S
C76 H96 0.930 . S
C77 N75 1.375 . S
C77 C76 1.338 . S
C77 H81 0.931 . S
C78 N75 1.313 . S
C78 N79 1.344 . S
C78 H82 0.930 . S
N79 C76 1.377 . S
N79 C78 1.344 . S
O80 Co72 2.055 . S
O80 C84 1.253 . S
H81 C77 0.931 . S
H82 C78 0.930 . S
O83 Co72 2.039 . S
O83 C73 1.265 . S
C84 O80 1.253 . S
C84 O85 1.227 . S
O85 C84 1.227 . S
N86 Co72 2.140 . S
N86 C89 1.346 . S
N86 C90 1.345 . S
C87 C88 1.387 . S
C87 C91 1.391 . S
C88 C87 1.387 . S
C88 C89 1.369 . S
C88 H97 0.929 . S
C89 N86 1.346 . S
C89 C88 1.369 . S
C89 H92 0.928 . S
C90 N86 1.345 . S
C90 C91 1.371 . S
C90 H93 0.931 . S
C91 C87 1.391 . S
C91 C90 1.371 . S
C91 H98 0.930 . S
H92 C89 0.928 . S
H93 C90 0.931 . S
H94 C70 0.930 . S
H95 C67 0.930 . S
H96 C76 0.930 . S
H97 C88 0.929 . S
H98 C91 0.930 . S
C99 C100 1.351 . S
C99 N102 1.368 . S
C99 H104 0.931 . S
C100 C99 1.351 . S
C100 N101 1.373 . S
C100 H128 0.930 . S
N101 C100 1.373 . S
N101 C103 1.340 . S
N102 C99 1.368 . S
N102 C103 1.321 . S
N102 Co105 2.135 . S
C103 N101 1.340 . S
C103 N102 1.321 . S
C103 H127 0.930 . S
H104 C99 0.931 . S
Co105 N102 2.135 . S
Co105 N108 2.121 . S
Co105 O113 2.055 . S
Co105 O116 2.039 . S
Co105 N119 2.140 . S
C106 O107 1.227 . S
C106 O116 1.265 . S
O107 C106 1.227 . S
N108 Co105 2.121 . S
N108 C110 1.375 . S
N108 C111 1.313 . S
C109 C110 1.338 . S
C109 N112 1.377 . S
C109 H129 0.930 . S
C110 N108 1.375 . S
C110 C109 1.338 . S
C110 H114 0.931 . S
C111 N108 1.313 . S
C111 N112 1.344 . S
C111 H115 0.930 . S
N112 C109 1.377 . S
N112 C111 1.344 . S
O113 Co105 2.055 . S
O113 C117 1.253 . S
H114 C110 0.931 . S
H115 C111 0.930 . S
O116 Co105 2.039 . S
O116 C106 1.265 . S
C117 O113 1.253 . S
C117 O118 1.227 . S
O118 C117 1.227 . S
N119 Co105 2.140 . S
N119 C122 1.346 . S
N119 C123 1.345 . S
C120 C121 1.387 . S
C120 C124 1.391 . S
C121 C120 1.387 . S
C121 C122 1.369 . S
C121 H130 0.929 . S
C122 N119 1.346 . S
C122 C121 1.369 . S
C122 H125 0.928 . S
C123 N119 1.345 . S
C123 C124 1.371 . S
C123 H126 0.931 . S
C124 C120 1.391 . S
C124 C123 1.371 . S
C124 H131 0.930 . S
H125 C122 0.928 . S
H126 C123 0.931 . S
H127 C103 0.930 . S
H128 C100 0.930 . S
H129 C109 0.930 . S
H130 C121 0.929 . S
H131 C124 0.930 . S
C132 C133 1.351 . S
C132 N135 1.368 . S
C132 H137 0.931 . S
C133 C132 1.351 . S
C133 N134 1.373 . S
C133 H161 0.930 . S
N134 C133 1.373 . S
N134 C136 1.340 . S
N135 C132 1.368 . S
N135 C136 1.321 . S
N135 Co138 2.135 . S
C136 N134 1.340 . S
C136 N135 1.321 . S
C136 H160 0.930 . S
H137 C132 0.931 . S
Co138 N135 2.135 . S
Co138 N141 2.121 . S
Co138 O146 2.055 . S
Co138 O149 2.039 . S
Co138 N152 2.140 . S
C139 O140 1.227 . S
C139 O149 1.265 . S
O140 C139 1.227 . S
N141 Co138 2.121 . S
N141 C143 1.375 . S
N141 C144 1.313 . S
C142 C143 1.338 . S
C142 N145 1.377 . S
C142 H162 0.930 . S
C143 N141 1.375 . S
C143 C142 1.338 . S
C143 H147 0.931 . S
C144 N141 1.313 . S
C144 N145 1.344 . S
C144 H148 0.930 . S
N145 C142 1.377 . S
N145 C144 1.344 . S
O146 Co138 2.055 . S
O146 C150 1.253 . S
H147 C143 0.931 . S
H148 C144 0.930 . S
O149 Co138 2.039 . S
O149 C139 1.265 . S
C150 O146 1.253 . S
C150 O151 1.227 . S
O151 C150 1.227 . S
N152 Co138 2.140 . S
N152 C155 1.346 . S
N152 C156 1.345 . S
C153 C154 1.387 . S
C153 C157 1.391 . S
C154 C153 1.387 . S
C154 C155 1.369 . S
C154 H163 0.929 . S
C155 N152 1.346 . S
C155 C154 1.369 . S
C155 H158 0.928 . S
C156 N152 1.345 . S
C156 C157 1.371 . S
C156 H159 0.931 . S
C157 C153 1.391 . S
C157 C156 1.371 . S
C157 H164 0.930 . S
H158 C155 0.928 . S
H159 C156 0.931 . S
H160 C136 0.930 . S
H161 C133 0.930 . S
H162 C142 0.930 . S
H163 C154 0.929 . S
H164 C157 0.930 . S
C165 C166 1.351 . S
C165 N168 1.368 . S
C165 H170 0.931 . S
C166 C165 1.351 . S
C166 N167 1.373 . S
C166 H194 0.930 . S
N167 C166 1.373 . S
N167 C169 1.340 . S
N168 C165 1.368 . S
N168 C169 1.321 . S
N168 Co171 2.135 . S
C169 N167 1.340 . S
C169 N168 1.321 . S
C169 H193 0.930 . S
H170 C165 0.931 . S
Co171 N168 2.135 . S
Co171 N174 2.121 . S
Co171 O179 2.055 . S
Co171 O182 2.039 . S
Co171 N185 2.140 . S
C172 O173 1.227 . S
C172 O182 1.265 . S
O173 C172 1.227 . S
N174 Co171 2.121 . S
N174 C176 1.375 . S
N174 C177 1.313 . S
C175 C176 1.338 . S
C175 N178 1.377 . S
C175 H195 0.930 . S
C176 N174 1.375 . S
C176 C175 1.338 . S
C176 H180 0.931 . S
C177 N174 1.313 . S
C177 N178 1.344 . S
C177 H181 0.930 . S
N178 C175 1.377 . S
N178 C177 1.344 . S
O179 Co171 2.055 . S
O179 C183 1.253 . S
H180 C176 0.931 . S
H181 C177 0.930 . S
O182 Co171 2.039 . S
O182 C172 1.265 . S
C183 O179 1.253 . S
C183 O184 1.227 . S
O184 C183 1.227 . S
N185 Co171 2.140 . S
N185 C188 1.346 . S
N185 C189 1.345 . S
C186 C187 1.387 . S
C186 C190 1.391 . S
C187 C186 1.387 . S
C187 C188 1.369 . S
C187 H196 0.929 . S
C188 N185 1.346 . S
C188 C187 1.369 . S
C188 H191 0.928 . S
C189 N185 1.345 . S
C189 C190 1.371 . S
C189 H192 0.931 . S
C190 C186 1.391 . S
C190 C189 1.371 . S
C190 H197 0.930 . S
H191 C188 0.928 . S
H192 C189 0.931 . S
H193 C169 0.930 . S
H194 C166 0.930 . S
H195 C175 0.930 . S
H196 C187 0.929 . S
H197 C190 0.930 . S
C198 C199 1.351 . S
C198 N201 1.368 . S
C198 H203 0.931 . S
C199 C198 1.351 . S
C199 N200 1.373 . S
C199 H227 0.930 . S
N200 C199 1.373 . S
N200 C202 1.340 . S
N201 C198 1.368 . S
N201 C202 1.321 . S
N201 Co204 2.135 . S
C202 N200 1.340 . S
C202 N201 1.321 . S
C202 H226 0.930 . S
H203 C198 0.931 . S
Co204 N201 2.135 . S
Co204 N207 2.121 . S
Co204 O212 2.055 . S
Co204 O215 2.039 . S
Co204 N218 2.140 . S
C205 O206 1.227 . S
C205 O215 1.265 . S
O206 C205 1.227 . S
N207 Co204 2.121 . S
N207 C209 1.375 1_556 S
N207 C210 1.313 1_556 S
C208 C209 1.338 . S
C208 N211 1.377 . S
C208 H228 0.930 . S
C209 N207 1.375 1_554 S
C209 C208 1.338 . S
C209 H213 0.931 . S
C210 N207 1.313 1_554 S
C210 N211 1.344 . S
C210 H214 0.930 1_554 S
N211 C208 1.377 . S
N211 C210 1.344 . S
O212 Co204 2.055 . S
O212 C216 1.253 . S
H213 C209 0.931 . S
H214 C210 0.930 1_556 S
O215 Co204 2.039 . S
O215 C205 1.265 . S
C216 O212 1.253 . S
C216 O217 1.227 . S
O217 C216 1.227 . S
N218 Co204 2.140 . S
N218 C221 1.346 . S
N218 C222 1.345 . S
C219 C220 1.387 . S
C219 C223 1.391 . S
C220 C219 1.387 . S
C220 C221 1.369 . S
C220 H229 0.929 . S
C221 N218 1.346 . S
C221 C220 1.369 . S
C221 H224 0.928 . S
C222 N218 1.345 . S
C222 C223 1.371 . S
C222 H225 0.931 . S
C223 C219 1.391 . S
C223 C222 1.371 . S
C223 H230 0.930 1_556 S
H224 C221 0.928 . S
H225 C222 0.931 . S
H226 C202 0.930 . S
H227 C199 0.930 . S
H228 C208 0.930 . S
H229 C220 0.929 . S
H230 C223 0.930 1_554 S
C231 C232 1.351 . S
C231 N234 1.368 . S
C231 H236 0.931 . S
C232 C231 1.351 . S
C232 N233 1.373 . S
C232 H260 0.930 . S
N233 C232 1.373 . S
N233 C235 1.340 . S
N234 C231 1.368 . S
N234 C235 1.321 . S
N234 Co237 2.135 . S
C235 N233 1.340 . S
C235 N234 1.321 . S
C235 H259 0.930 . S
H236 C231 0.931 . S
Co237 N234 2.135 . S
Co237 N240 2.121 . S
Co237 O245 2.055 . S
Co237 O248 2.039 . S
Co237 N251 2.140 . S
C238 O239 1.227 . S
C238 O248 1.265 . S
O239 C238 1.227 . S
N240 Co237 2.121 . S
N240 C242 1.375 . S
N240 C243 1.313 . S
C241 C242 1.338 . S
C241 N244 1.377 . S
C241 H261 0.930 . S
C242 N240 1.375 . S
C242 C241 1.338 . S
C242 H246 0.931 . S
C243 N240 1.313 . S
C243 N244 1.344 . S
C243 H247 0.930 . S
N244 C241 1.377 . S
N244 C243 1.344 . S
O245 Co237 2.055 . S
O245 C249 1.253 . S
H246 C242 0.931 . S
H247 C243 0.930 . S
O248 Co237 2.039 . S
O248 C238 1.265 . S
C249 O245 1.253 . S
C249 O250 1.227 . S
O250 C249 1.227 . S
N251 Co237 2.140 . S
N251 C254 1.346 . S
N251 C255 1.345 . S
C252 C253 1.387 . S
C252 C256 1.391 . S
C253 C252 1.387 . S
C253 C254 1.369 . S
C253 H262 0.929 . S
C254 N251 1.346 . S
C254 C253 1.369 . S
C254 H257 0.928 . S
C255 N251 1.345 . S
C255 C256 1.371 . S
C255 H258 0.931 . S
C256 C252 1.391 . S
C256 C255 1.371 . S
C256 H263 0.930 . S
H257 C254 0.928 . S
H258 C255 0.931 . S
H259 C235 0.930 . S
H260 C232 0.930 . S
H261 C241 0.930 . S
H262 C253 0.929 . S
H263 C256 0.930 . S
C264 C265 1.391 . S
C264 C266 1.394 . S
C264 H280 0.931 . S
C265 C264 1.391 . S
C265 C269 1.376 . S
C266 C264 1.394 . S
C266 C267 1.369 . S
C266 C270 1.531 . S
C267 C266 1.369 . S
C267 C268 1.410 . S
C267 C275 1.503 . S
C268 C267 1.410 . S
C268 C269 1.392 . S
C268 C271 1.511 . S
C269 C265 1.376 . S
C269 C268 1.392 . S
C269 H281 0.929 . S
C270 C266 1.531 . S
C270 H282 0.960 . S
C270 H283 0.962 . S
C270 H284 0.960 . S
C271 C268 1.511 . S
C271 H285 0.961 . S
C271 H286 0.961 . S
C271 H287 0.961 . S
C272 C273 1.370 . S
C272 C274 1.363 . S
C272 H288 0.931 . S
C273 C272 1.370 . S
C273 C277 1.408 . S
C274 C272 1.363 . S
C274 C275 1.370 . S
C274 C278 1.524 . S
C275 C267 1.503 . S
C275 C274 1.370 . S
C275 C276 1.403 . S
C276 C275 1.403 . S
C276 C277 1.404 . S
C276 C279 1.539 . S
C277 C273 1.408 . S
C277 C276 1.404 . S
C277 H289 0.930 . S
C278 C274 1.524 . S
C278 H290 0.956 . S
C278 H291 0.961 . S
C278 H292 0.961 . S
C279 C276 1.539 . S
C279 H293 0.958 . S
C279 H294 0.961 . S
C279 H295 0.960 . S
H280 C264 0.931 . S
H281 C269 0.929 . S
H282 C270 0.960 . S
H283 C270 0.962 . S
H284 C270 0.960 . S
H285 C271 0.961 . S
H286 C271 0.961 . S
H287 C271 0.961 . S
H288 C272 0.931 . S
H289 C277 0.930 . S
H290 C278 0.956 . S
H291 C278 0.961 . S
H292 C278 0.961 . S
H293 C279 0.958 . S
H294 C279 0.961 . S
H295 C279 0.960 . S
C296 C297 1.391 . S
C296 C298 1.394 . S
C296 H312 0.931 . S
C297 C296 1.391 . S
C297 C301 1.376 . S
C298 C296 1.394 . S
C298 C299 1.369 . S
C298 C302 1.531 . S
C299 C298 1.369 . S
C299 C300 1.410 . S
C299 C307 1.503 . S
C300 C299 1.410 . S
C300 C301 1.392 . S
C300 C303 1.511 . S
C301 C297 1.376 . S
C301 C300 1.392 . S
C301 H313 0.929 . S
C302 C298 1.531 . S
C302 H314 0.960 . S
C302 H315 0.962 . S
C302 H316 0.960 . S
C303 C300 1.511 . S
C303 H317 0.961 . S
C303 H318 0.961 . S
C303 H319 0.961 . S
C304 C305 1.370 . S
C304 C306 1.363 . S
C304 H320 0.931 . S
C305 C304 1.370 . S
C305 C309 1.408 . S
C306 C304 1.363 . S
C306 C307 1.370 . S
C306 C310 1.524 . S
C307 C299 1.503 . S
C307 C306 1.370 . S
C307 C308 1.403 . S
C308 C307 1.403 . S
C308 C309 1.404 . S
C308 C311 1.539 . S
C309 C305 1.408 . S
C309 C308 1.404 . S
C309 H321 0.930 . S
C310 C306 1.524 . S
C310 H322 0.956 . S
C310 H323 0.961 . S
C310 H324 0.961 . S
C311 C308 1.539 . S
C311 H325 0.958 . S
C311 H326 0.961 . S
C311 H327 0.960 . S
H312 C296 0.931 . S
H313 C301 0.929 . S
H314 C302 0.960 . S
H315 C302 0.962 . S
H316 C302 0.960 . S
H317 C303 0.961 . S
H318 C303 0.961 . S
H319 C303 0.961 . S
H320 C304 0.931 . S
H321 C309 0.930 . S
H322 C310 0.956 . S
H323 C310 0.961 . S
H324 C310 0.961 . S
H325 C311 0.958 . S
H326 C311 0.961 . S
H327 C311 0.960 . S
C328 C329 1.391 . S
C328 C330 1.394 . S
C328 H344 0.931 . S
C329 C328 1.391 . S
C329 C333 1.376 . S
C330 C328 1.394 . S
C330 C331 1.369 . S
C330 C334 1.531 . S
C331 C330 1.369 . S
C331 C332 1.410 . S
C331 C339 1.503 . S
C332 C331 1.410 . S
C332 C333 1.392 . S
C332 C335 1.511 . S
C333 C329 1.376 . S
C333 C332 1.392 . S
C333 H345 0.929 . S
C334 C330 1.531 . S
C334 H346 0.960 . S
C334 H347 0.962 . S
C334 H348 0.960 . S
C335 C332 1.511 . S
C335 H349 0.961 . S
C335 H350 0.961 . S
C335 H351 0.961 . S
C336 C337 1.370 . S
C336 C338 1.363 . S
C336 H352 0.931 . S
C337 C336 1.370 . S
C337 C341 1.408 . S
C338 C336 1.363 . S
C338 C339 1.370 . S
C338 C342 1.524 . S
C339 C331 1.503 . S
C339 C338 1.370 . S
C339 C340 1.403 . S
C340 C339 1.403 . S
C340 C341 1.404 . S
C340 C343 1.539 . S
C341 C337 1.408 . S
C341 C340 1.404 . S
C341 H353 0.930 . S
C342 C338 1.524 . S
C342 H354 0.956 . S
C342 H355 0.961 . S
C342 H356 0.961 . S
C343 C340 1.539 . S
C343 H357 0.958 . S
C343 H358 0.961 . S
C343 H359 0.960 . S
H344 C328 0.931 . S
H345 C333 0.929 . S
H346 C334 0.960 . S
H347 C334 0.962 . S
H348 C334 0.960 . S
H349 C335 0.961 . S
H350 C335 0.961 . S
H351 C335 0.961 . S
H352 C336 0.931 . S
H353 C341 0.930 . S
H354 C342 0.956 . S
H355 C342 0.961 . S
H356 C342 0.961 . S
H357 C343 0.958 . S
H358 C343 0.961 . S
H359 C343 0.960 . S
C360 C361 1.391 . S
C360 C362 1.394 . S
C360 H376 0.931 . S
C361 C360 1.391 . S
C361 C365 1.376 . S
C362 C360 1.394 . S
C362 C363 1.369 . S
C362 C366 1.531 . S
C363 C362 1.369 . S
C363 C364 1.410 . S
C363 C371 1.503 1_556 S
C364 C363 1.410 . S
C364 C365 1.392 . S
C364 C367 1.511 . S
C365 C361 1.376 . S
C365 C364 1.392 . S
C365 H377 0.929 . S
C366 C362 1.531 . S
C366 H378 0.960 1_556 S
C366 H379 0.962 1_556 S
C366 H380 0.960 . S
C367 C364 1.511 . S
C367 H381 0.961 . S
C367 H382 0.961 . S
C367 H383 0.961 . S
C368 C369 1.370 . S
C368 C370 1.363 . S
C368 H384 0.931 . S
C369 C368 1.370 . S
C369 C373 1.408 . S
C370 C368 1.363 . S
C370 C371 1.370 . S
C370 C374 1.524 . S
C371 C363 1.503 1_554 S
C371 C370 1.370 . S
C371 C372 1.403 . S
C372 C371 1.403 . S
C372 C373 1.404 . S
C372 C375 1.539 . S
C373 C369 1.408 . S
C373 C372 1.404 . S
C373 H385 0.930 . S
C374 C370 1.524 . S
C374 H386 0.956 . S
C374 H387 0.961 1_554 S
C374 H388 0.961 . S
C375 C372 1.539 . S
C375 H389 0.958 . S
C375 H390 0.961 . S
C375 H391 0.960 1_554 S
H376 C360 0.931 . S
H377 C365 0.929 . S
H378 C366 0.960 1_554 S
H379 C366 0.962 1_554 S
H380 C366 0.960 . S
H381 C367 0.961 . S
H382 C367 0.961 . S
H383 C367 0.961 . S
H384 C368 0.931 . S
H385 C373 0.930 . S
H386 C374 0.956 . S
H387 C374 0.961 1_556 S
H388 C374 0.961 . S
H389 C375 0.958 . S
H390 C375 0.961 . S
H391 C375 0.960 1_556 S
C392 C393 1.391 1_556 S
C392 C394 1.394 . S
C392 H408 0.931 . S
C393 C392 1.391 1_554 S
C393 C397 1.376 . S
C394 C392 1.394 . S
C394 C395 1.369 1_556 S
C394 C398 1.531 . S
C395 C394 1.369 1_554 S
C395 C396 1.410 . S
C395 C403 1.503 1_455 S
C396 C395 1.410 . S
C396 C397 1.392 . S
C396 C399 1.511 . S
C397 C393 1.376 . S
C397 C396 1.392 . S
C397 H409 0.929 . S
C398 C394 1.531 . S
C398 H410 0.954 1_455 S
C398 H411 0.962 . S
C398 H412 0.960 . S
C399 C396 1.511 . S
C399 H413 0.961 . S
C399 H414 0.961 1_455 S
C399 H415 0.961 . S
C400 C401 1.370 . S
C400 C402 1.363 . S
C400 H416 0.931 . S
C401 C400 1.370 . S
C401 C405 1.408 1_556 S
C402 C400 1.363 . S
C402 C403 1.370 1_556 S
C402 C406 1.524 . S
C403 C395 1.503 1_655 S
C403 C402 1.370 1_554 S
C403 C404 1.403 . S
C404 C403 1.403 . S
C404 C405 1.404 . S
C404 C407 1.539 . S
C405 C401 1.408 1_554 S
C405 C404 1.404 . S
C405 H417 0.930 . S
C406 C402 1.524 . S
C406 H418 0.956 1_655 S
C406 H419 0.961 1_655 S
C406 H420 0.961 . S
C407 C404 1.539 . S
C407 H421 0.958 . S
C407 H422 0.961 . S
C407 H423 0.960 . S
H408 C392 0.931 . S
H409 C397 0.929 . S
H410 C398 0.954 1_655 S
H411 C398 0.962 . S
H412 C398 0.960 . S
H413 C399 0.961 . S
H414 C399 0.961 1_655 S
H415 C399 0.961 . S
H416 C400 0.931 . S
H417 C405 0.930 . S
H418 C406 0.956 1_455 S
H419 C406 0.961 1_455 S
H420 C406 0.961 . S
H421 C407 0.958 . S
H422 C407 0.961 . S
H423 C407 0.960 . S
C424 C425 1.391 . S
C424 C426 1.394 . S
C424 H440 0.931 . S
C425 C424 1.391 . S
C425 C429 1.376 . S
C426 C424 1.394 . S
C426 C427 1.369 . S
C426 C430 1.531 . S
C427 C426 1.369 . S
C427 C428 1.410 . S
C427 C435 1.503 1_545 S
C428 C427 1.410 . S
C428 C429 1.392 . S
C428 C431 1.511 . S
C429 C425 1.376 . S
C429 C428 1.392 . S
C429 H441 0.929 . S
C430 C426 1.531 . S
C430 H442 0.960 1_545 S
C430 H443 0.962 . S
C430 H444 0.960 . S
C431 C428 1.511 . S
C431 H445 0.961 . S
C431 H446 0.961 1_545 S
C431 H447 0.961 . S
C432 C433 1.370 . S
C432 C434 1.363 . S
C432 H448 0.931 . S
C433 C432 1.370 . S
C433 C437 1.408 . S
C434 C432 1.363 . S
C434 C435 1.370 . S
C434 C438 1.524 . S
C435 C427 1.503 1_565 S
C435 C434 1.370 . S
C435 C436 1.403 . S
C436 C435 1.403 . S
C436 C437 1.404 . S
C436 C439 1.539 . S
C437 C433 1.408 . S
C437 C436 1.404 . S
C437 H449 0.930 . S
C438 C434 1.524 . S
C438 H450 0.956 1_565 S
C438 H451 0.961 1_565 S
C438 H452 0.961 . S
C439 C436 1.539 . S
C439 H453 0.958 . S
C439 H454 0.961 . S
C439 H455 0.960 . S
H440 C424 0.931 . S
H441 C429 0.929 . S
H442 C430 0.960 1_565 S
H443 C430 0.962 . S
H444 C430 0.960 . S
H445 C431 0.961 . S
H446 C431 0.961 1_565 S
H447 C431 0.961 . S
H448 C432 0.931 . S
H449 C437 0.930 . S
H450 C438 0.956 1_545 S
H451 C438 0.961 1_545 S
H452 C438 0.961 . S
H453 C439 0.958 . S
H454 C439 0.961 . S
H455 C439 0.960 . S
C456 C457 1.391 . S
C456 C458 1.394 . S
C456 H472 0.931 . S
C457 C456 1.391 . S
C457 C461 1.376 . S
C458 C456 1.394 . S
C458 C459 1.369 . S
C458 C462 1.531 . S
C459 C458 1.369 . S
C459 C460 1.410 . S
C459 C467 1.503 1_455 S
C460 C459 1.410 . S
C460 C461 1.392 . S
C460 C463 1.511 . S
C461 C457 1.376 . S
C461 C460 1.392 . S
C461 H473 0.929 . S
C462 C458 1.531 . S
C462 H474 0.960 1_455 S
C462 H475 0.962 . S
C462 H476 0.960 . S
C463 C460 1.511 . S
C463 H477 0.961 . S
C463 H478 0.948 1_455 S
C463 H479 0.961 . S
C464 C465 1.370 . S
C464 C466 1.363 . S
C464 H480 0.931 . S
C465 C464 1.370 . S
C465 C469 1.408 . S
C466 C464 1.363 . S
C466 C467 1.370 . S
C466 C470 1.524 . S
C467 C459 1.503 1_655 S
C467 C466 1.370 . S
C467 C468 1.403 . S
C468 C467 1.403 . S
C468 C469 1.404 . S
C468 C471 1.539 . S
C469 C465 1.408 . S
C469 C468 1.404 . S
C469 H481 0.930 . S
C470 C466 1.524 . S
C470 H482 0.956 1_655 S
C470 H483 0.961 1_655 S
C470 H484 0.961 . S
C471 C468 1.539 . S
C471 H485 0.958 . S
C471 H486 0.961 . S
C471 H487 0.960 . S
H472 C456 0.931 . S
H473 C461 0.929 . S
H474 C462 0.960 1_655 S
H475 C462 0.962 . S
H476 C462 0.960 . S
H477 C463 0.961 . S
H478 C463 0.948 1_655 S
H479 C463 0.961 . S
H480 C464 0.931 . S
H481 C469 0.930 . S
H482 C470 0.956 1_455 S
H483 C470 0.961 1_455 S
H484 C470 0.961 . S
H485 C471 0.958 . S
H486 C471 0.961 . S
H487 C471 0.960 . S
C488 C489 1.391 . S
C488 C490 1.394 . S
C488 H504 0.931 . S
C489 C488 1.391 . S
C489 C493 1.376 . S
C490 C488 1.394 . S
C490 C491 1.369 . S
C490 C494 1.531 . S
C491 C490 1.369 . S
C491 C492 1.410 . S
C491 C499 1.503 1_545 S
C492 C491 1.410 . S
C492 C493 1.392 . S
C492 C495 1.511 . S
C493 C489 1.376 . S
C493 C492 1.392 . S
C493 H505 0.929 . S
C494 C490 1.531 . S
C494 H506 0.960 1_545 S
C494 H507 0.962 . S
C494 H508 0.960 . S
C495 C492 1.511 . S
C495 H509 0.961 . S
C495 H510 0.945 1_545 S
C495 H511 0.961 . S
C496 C497 1.370 . S
C496 C498 1.363 . S
C496 H512 0.931 . S
C497 C496 1.370 . S
C497 C501 1.408 . S
C498 C496 1.363 . S
C498 C499 1.370 . S
C498 C502 1.524 . S
C499 C491 1.503 1_565 S
C499 C498 1.370 . S
C499 C500 1.403 . S
C500 C499 1.403 . S
C500 C501 1.404 . S
C500 C503 1.539 . S
C501 C497 1.408 . S
C501 C500 1.404 . S
C501 H513 0.930 . S
C502 C498 1.524 . S
C502 H514 0.956 1_565 S
C502 H515 0.961 1_565 S
C502 H516 0.961 . S
C503 C500 1.539 . S
C503 H517 0.958 . S
C503 H518 0.961 . S
C503 H519 0.960 . S
H504 C488 0.931 . S
H505 C493 0.929 . S
H506 C494 0.960 1_565 S
H507 C494 0.962 . S
H508 C494 0.960 . S
H509 C495 0.961 . S
H510 C495 0.945 1_565 S
H511 C495 0.961 . S
H512 C496 0.931 . S
H513 C501 0.930 . S
H514 C502 0.956 1_545 S
H515 C502 0.961 1_545 S
H516 C502 0.961 . S
H517 C503 0.958 . S
H518 C503 0.961 . S
H519 C503 0.960 . S
C520 C521 1.391 . S
C520 C522 1.394 . S
C520 H536 0.931 . S
C521 C520 1.391 . S
C521 C525 1.376 . S
C522 C520 1.394 . S
C522 C523 1.369 . S
C522 C526 1.531 . S
C523 C522 1.369 . S
C523 C524 1.410 . S
C523 C531 1.503 . S
C524 C523 1.410 . S
C524 C525 1.392 . S
C524 C527 1.511 . S
C525 C521 1.376 . S
C525 C524 1.392 . S
C525 H537 0.929 . S
C526 C522 1.531 . S
C526 H538 0.960 . S
C526 H539 0.962 . S
C526 H540 0.960 . S
C527 C524 1.511 . S
C527 H541 0.961 . S
C527 H542 0.961 . S
C527 H543 0.961 . S
C528 C529 1.370 . S
C528 C530 1.363 . S
C528 H544 0.931 . S
C529 C528 1.370 . S
C529 C533 1.408 . S
C530 C528 1.363 . S
C530 C531 1.370 . S
C530 C534 1.524 . S
C531 C523 1.503 . S
C531 C530 1.370 . S
C531 C532 1.403 . S
C532 C531 1.403 . S
C532 C533 1.404 . S
C532 C535 1.539 . S
C533 C529 1.408 . S
C533 C532 1.404 . S
C533 H545 0.930 . S
C534 C530 1.524 . S
C534 H546 0.956 . S
C534 H547 0.961 . S
C534 H548 0.961 . S
C535 C532 1.539 . S
C535 H549 0.958 . S
C535 H550 0.961 . S
C535 H551 0.960 . S
H536 C520 0.931 . S
H537 C525 0.929 . S
H538 C526 0.960 . S
H539 C526 0.962 . S
H540 C526 0.960 . S
H541 C527 0.961 . S
H542 C527 0.961 . S
H543 C527 0.961 . S
H544 C528 0.931 . S
H545 C533 0.930 . S
H546 C534 0.956 . S
H547 C534 0.961 . S
H548 C534 0.961 . S
H549 C535 0.958 . S
H550 C535 0.961 . S
H551 C535 0.960 . S
C552 C553 1.391 . S
C552 C554 1.394 . S
C552 H568 0.931 . S
C553 C552 1.391 . S
C553 C557 1.376 . S
C554 C552 1.394 . S
C554 C555 1.369 . S
C554 C558 1.531 . S
C555 C554 1.369 . S
C555 C556 1.410 . S
C555 C563 1.503 . S
C556 C555 1.410 . S
C556 C557 1.392 . S
C556 C559 1.511 . S
C557 C553 1.376 . S
C557 C556 1.392 . S
C557 H569 0.929 . S
C558 C554 1.531 . S
C558 H570 0.960 . S
C558 H571 0.962 . S
C558 H572 0.960 . S
C559 C556 1.511 . S
C559 H573 0.961 . S
C559 H574 0.961 . S
C559 H575 0.961 . S
C560 C561 1.370 . S
C560 C562 1.363 . S
C560 H576 0.931 . S
C561 C560 1.370 . S
C561 C565 1.408 . S
C562 C560 1.363 . S
C562 C563 1.370 . S
C562 C566 1.524 . S
C563 C555 1.503 . S
C563 C562 1.370 . S
C563 C564 1.403 . S
C564 C563 1.403 . S
C564 C565 1.404 . S
C564 C567 1.539 . S
C565 C561 1.408 . S
C565 C564 1.404 . S
C565 H577 0.930 . S
C566 C562 1.524 . S
C566 H578 0.956 . S
C566 H579 0.961 . S
C566 H580 0.961 . S
C567 C564 1.539 . S
C567 H581 0.958 . S
C567 H582 0.961 . S
C567 H583 0.960 . S
H568 C552 0.931 . S
H569 C557 0.929 . S
H570 C558 0.960 . S
H571 C558 0.962 . S
H572 C558 0.960 . S
H573 C559 0.961 . S
H574 C559 0.961 . S
H575 C559 0.961 . S
H576 C560 0.931 . S
H577 C565 0.930 . S
H578 C566 0.956 . S
H579 C566 0.961 . S
H580 C566 0.961 . S
H581 C567 0.958 . S
H582 C567 0.961 . S
H583 C567 0.960 . S
C584 C585 1.391 . S
C584 C586 1.394 . S
C584 H600 0.931 . S
C585 C584 1.391 . S
C585 C589 1.376 . S
C586 C584 1.394 . S
C586 C587 1.369 . S
C586 C590 1.531 . S
C587 C586 1.369 . S
C587 C588 1.410 . S
C587 C595 1.503 . S
C588 C587 1.410 . S
C588 C589 1.392 . S
C588 C591 1.511 . S
C589 C585 1.376 . S
C589 C588 1.392 . S
C589 H601 0.929 . S
C590 C586 1.531 . S
C590 H602 0.960 . S
C590 H603 0.962 . S
C590 H604 0.960 . S
C591 C588 1.511 . S
C591 H605 0.961 . S
C591 H606 0.961 . S
C591 H607 0.961 . S
C592 C593 1.370 . S
C592 C594 1.363 . S
C592 H608 0.931 . S
C593 C592 1.370 . S
C593 C597 1.408 . S
C594 C592 1.363 . S
C594 C595 1.370 . S
C594 C598 1.524 . S
C595 C587 1.503 . S
C595 C594 1.370 . S
C595 C596 1.403 . S
C596 C595 1.403 . S
C596 C597 1.404 . S
C596 C599 1.539 . S
C597 C593 1.408 . S
C597 C596 1.404 . S
C597 H609 0.930 . S
C598 C594 1.524 . S
C598 H610 0.956 . S
C598 H611 0.961 . S
C598 H612 0.961 . S
C599 C596 1.539 . S
C599 H613 0.958 . S
C599 H614 0.961 . S
C599 H615 0.960 . S
H600 C584 0.931 . S
H601 C589 0.929 . S
H602 C590 0.960 . S
H603 C590 0.962 . S
H604 C590 0.960 . S
H605 C591 0.961 . S
H606 C591 0.961 . S
H607 C591 0.961 . S
H608 C592 0.931 . S
H609 C597 0.930 . S
H610 C598 0.956 . S
H611 C598 0.961 . S
H612 C598 0.961 . S
H613 C599 0.958 . S
H614 C599 0.961 . S
H615 C599 0.960 . S
C616 C617 1.391 . S
C616 C618 1.394 . S
C616 H632 0.931 . S
C617 C616 1.391 . S
C617 C621 1.376 . S
C618 C616 1.394 . S
C618 C619 1.369 . S
C618 C622 1.531 . S
C619 C618 1.369 . S
C619 C620 1.410 . S
C619 C627 1.503 . S
C620 C619 1.410 . S
C620 C621 1.392 . S
C620 C623 1.511 . S
C621 C617 1.376 . S
C621 C620 1.392 . S
C621 H633 0.929 . S
C622 C618 1.531 . S
C622 H634 0.960 . S
C622 H635 0.962 . S
C622 H636 0.960 . S
C623 C620 1.511 . S
C623 H637 0.961 . S
C623 H638 0.961 . S
C623 H639 0.961 . S
C624 C625 1.370 . S
C624 C626 1.363 . S
C624 H640 0.931 . S
C625 C624 1.370 . S
C625 C629 1.408 . S
C626 C624 1.363 . S
C626 C627 1.370 . S
C626 C630 1.524 . S
C627 C619 1.503 . S
C627 C626 1.370 . S
C627 C628 1.403 . S
C628 C627 1.403 . S
C628 C629 1.404 . S
C628 C631 1.539 . S
C629 C625 1.408 . S
C629 C628 1.404 . S
C629 H641 0.930 . S
C630 C626 1.524 . S
C630 H642 0.956 . S
C630 H643 0.961 . S
C630 H644 0.961 . S
C631 C628 1.539 . S
C631 H645 0.958 . S
C631 H646 0.961 . S
C631 H647 0.960 . S
H632 C616 0.931 . S
H633 C621 0.929 . S
H634 C622 0.960 . S
H635 C622 0.962 . S
H636 C622 0.960 . S
H637 C623 0.961 . S
H638 C623 0.961 . S
H639 C623 0.961 . S
H640 C624 0.931 . S
H641 C629 0.930 . S
H642 C630 0.956 . S
H643 C630 0.961 . S
H644 C630 0.961 . S
H645 C631 0.958 . S
H646 C631 0.961 . S
H647 C631 0.960 . S
C648 C649 1.391 . S
C648 C650 1.394 . S
C648 H664 0.931 . S
C649 C648 1.391 . S
C649 C653 1.376 . S
C650 C648 1.394 . S
C650 C651 1.369 . S
C650 C654 1.531 . S
C651 C650 1.369 . S
C651 C652 1.410 . S
C651 C659 1.503 . S
C652 C651 1.410 . S
C652 C653 1.392 . S
C652 C655 1.511 . S
C653 C649 1.376 . S
C653 C652 1.392 . S
C653 H665 0.929 . S
C654 C650 1.531 . S
C654 H666 0.960 . S
C654 H667 0.962 . S
C654 H668 0.960 . S
C655 C652 1.511 . S
C655 H669 0.961 . S
C655 H670 0.961 . S
C655 H671 0.961 . S
C656 C657 1.370 . S
C656 C658 1.363 . S
C656 H672 0.931 . S
C657 C656 1.370 . S
C657 C661 1.408 . S
C658 C656 1.363 . S
C658 C659 1.370 . S
C658 C662 1.524 . S
C659 C651 1.503 . S
C659 C658 1.370 . S
C659 C660 1.403 . S
C660 C659 1.403 . S
C660 C661 1.404 . S
C660 C663 1.539 . S
C661 C657 1.408 . S
C661 C660 1.404 . S
C661 H673 0.930 . S
C662 C658 1.524 . S
C662 H674 0.956 . S
C662 H675 0.961 . S
C662 H676 0.961 . S
C663 C660 1.539 . S
C663 H677 0.958 . S
C663 H678 0.961 . S
C663 H679 0.960 . S
H664 C648 0.931 . S
H665 C653 0.929 . S
H666 C654 0.960 . S
H667 C654 0.962 . S
H668 C654 0.960 . S
H669 C655 0.961 . S
H670 C655 0.961 . S
H671 C655 0.961 . S
H672 C656 0.931 . S
H673 C661 0.930 . S
H674 C662 0.956 . S
H675 C662 0.961 . S
H676 C662 0.961 . S
H677 C663 0.958 . S
H678 C663 0.961 . S
H679 C663 0.960 . S
C680 C681 1.391 . S
C680 C682 1.394 . S
C680 H696 0.931 . S
C681 C680 1.391 . S
C681 C685 1.376 . S
C682 C680 1.394 . S
C682 C683 1.369 . S
C682 C686 1.531 . S
C683 C682 1.369 . S
C683 C684 1.410 . S
C683 C691 1.503 . S
C684 C683 1.410 . S
C684 C685 1.392 . S
C684 C687 1.511 . S
C685 C681 1.376 . S
C685 C684 1.392 . S
C685 H697 0.929 . S
C686 C682 1.531 . S
C686 H698 0.960 . S
C686 H699 0.962 . S
C686 H700 0.960 . S
C687 C684 1.511 . S
C687 H701 0.961 . S
C687 H702 0.961 . S
C687 H703 0.961 . S
C688 C689 1.370 . S
C688 C690 1.363 . S
C688 H704 0.931 . S
C689 C688 1.370 . S
C689 C693 1.408 . S
C690 C688 1.363 . S
C690 C691 1.370 . S
C690 C694 1.524 . S
C691 C683 1.503 . S
C691 C690 1.370 . S
C691 C692 1.403 . S
C692 C691 1.403 . S
C692 C693 1.404 . S
C692 C695 1.539 . S
C693 C689 1.408 . S
C693 C692 1.404 . S
C693 H705 0.930 . S
C694 C690 1.524 . S
C694 H706 0.956 . S
C694 H707 0.961 . S
C694 H708 0.961 . S
C695 C692 1.539 . S
C695 H709 0.958 . S
C695 H710 0.961 . S
C695 H711 0.960 . S
H696 C680 0.931 . S
H697 C685 0.929 . S
H698 C686 0.960 . S
H699 C686 0.962 . S
H700 C686 0.960 . S
H701 C687 0.961 . S
H702 C687 0.961 . S
H703 C687 0.961 . S
H704 C688 0.931 . S
H705 C693 0.930 . S
H706 C694 0.956 . S
H707 C694 0.961 . S
H708 C694 0.961 . S
H709 C695 0.958 . S
H710 C695 0.961 . S
H711 C695 0.960 . S
C712 C713 1.391 . S
C712 C714 1.394 . S
C712 H728 0.931 . S
C713 C712 1.391 . S
C713 C717 1.376 . S
C714 C712 1.394 . S
C714 C715 1.369 . S
C714 C718 1.531 . S
C715 C714 1.369 . S
C715 C716 1.410 . S
C715 C723 1.503 . S
C716 C715 1.410 . S
C716 C717 1.392 . S
C716 C719 1.511 . S
C717 C713 1.376 . S
C717 C716 1.392 . S
C717 H729 0.929 . S
C718 C714 1.531 . S
C718 H730 0.960 . S
C718 H731 0.962 . S
C718 H732 0.960 . S
C719 C716 1.511 . S
C719 H733 0.961 . S
C719 H734 0.961 . S
C719 H735 0.961 . S
C720 C721 1.370 . S
C720 C722 1.363 . S
C720 H736 0.931 . S
C721 C720 1.370 . S
C721 C725 1.408 . S
C722 C720 1.363 . S
C722 C723 1.370 . S
C722 C726 1.524 . S
C723 C715 1.503 . S
C723 C722 1.370 . S
C723 C724 1.403 . S
C724 C723 1.403 . S
C724 C725 1.404 . S
C724 C727 1.539 . S
C725 C721 1.408 . S
C725 C724 1.404 . S
C725 H737 0.930 . S
C726 C722 1.524 . S
C726 H738 0.956 . S
C726 H739 0.961 . S
C726 H740 0.961 . S
C727 C724 1.539 . S
C727 H741 0.958 . S
C727 H742 0.961 . S
C727 H743 0.960 . S
H728 C712 0.931 . S
H729 C717 0.929 . S
H730 C718 0.960 . S
H731 C718 0.962 . S
H732 C718 0.960 . S
H733 C719 0.961 . S
H734 C719 0.961 . S
H735 C719 0.961 . S
H736 C720 0.931 . S
H737 C725 0.930 . S
H738 C726 0.956 . S
H739 C726 0.961 . S
H740 C726 0.961 . S
H741 C727 0.958 . S
H742 C727 0.961 . S
H743 C727 0.960 . S
C744 C745 1.391 . S
C744 C746 1.394 . S
C744 H760 0.931 . S
C745 C744 1.391 . S
C745 C749 1.376 . S
C746 C744 1.394 . S
C746 C747 1.369 . S
C746 C750 1.531 . S
C747 C746 1.369 . S
C747 C748 1.410 . S
C747 C755 1.503 . S
C748 C747 1.410 . S
C748 C749 1.392 . S
C748 C751 1.511 . S
C749 C745 1.376 . S
C749 C748 1.392 . S
C749 H761 0.929 . S
C750 C746 1.531 . S
C750 H762 0.960 . S
C750 H763 0.962 . S
C750 H764 0.960 . S
C751 C748 1.511 . S
C751 H765 0.961 . S
C751 H766 0.961 . S
C751 H767 0.961 . S
C752 C753 1.370 . S
C752 C754 1.363 . S
C752 H768 0.931 . S
C753 C752 1.370 . S
C753 C757 1.408 . S
C754 C752 1.363 . S
C754 C755 1.370 . S
C754 C758 1.524 . S
C755 C747 1.503 . S
C755 C754 1.370 . S
C755 C756 1.403 . S
C756 C755 1.403 . S
C756 C757 1.404 . S
C756 C759 1.539 . S
C757 C753 1.408 . S
C757 C756 1.404 . S
C757 H769 0.930 . S
C758 C754 1.524 . S
C758 H770 0.956 . S
C758 H771 0.961 . S
C758 H772 0.961 . S
C759 C756 1.539 . S
C759 H773 0.958 . S
C759 H774 0.961 . S
C759 H775 0.960 . S
H760 C744 0.931 . S
H761 C749 0.929 . S
H762 C750 0.960 . S
H763 C750 0.962 . S
H764 C750 0.960 . S
H765 C751 0.961 . S
H766 C751 0.961 . S
H767 C751 0.961 . S
H768 C752 0.931 . S
H769 C757 0.930 . S
H770 C758 0.956 . S
H771 C758 0.961 . S
H772 C758 0.961 . S
H773 C759 0.958 . S
H774 C759 0.961 . S
H775 C759 0.960 . S
C776 C777 1.391 . S
C776 C778 1.394 . S
C776 H792 0.931 . S
C777 C776 1.391 . S
C777 C781 1.376 . S
C778 C776 1.394 . S
C778 C779 1.369 . S
C778 C782 1.531 . S
C779 C778 1.369 . S
C779 C780 1.410 . S
C779 C787 1.503 . S
C780 C779 1.410 . S
C780 C781 1.392 . S
C780 C783 1.511 . S
C781 C777 1.376 . S
C781 C780 1.392 . S
C781 H793 0.929 . S
C782 C778 1.531 . S
C782 H794 0.960 . S
C782 H795 0.962 . S
C782 H796 0.960 . S
C783 C780 1.511 . S
C783 H797 0.961 . S
C783 H798 0.961 . S
C783 H799 0.961 . S
C784 C785 1.370 . S
C784 C786 1.363 . S
C784 H800 0.931 . S
C785 C784 1.370 . S
C785 C789 1.408 . S
C786 C784 1.363 . S
C786 C787 1.370 . S
C786 C790 1.524 . S
C787 C779 1.503 . S
C787 C786 1.370 . S
C787 C788 1.403 . S
C788 C787 1.403 . S
C788 C789 1.404 . S
C788 C791 1.539 . S
C789 C785 1.408 . S
C789 C788 1.404 . S
C789 H801 0.930 . S
C790 C786 1.524 . S
C790 H802 0.956 . S
C790 H803 0.961 . S
C790 H804 0.961 . S
C791 C788 1.539 . S
C791 H805 0.958 . S
C791 H806 0.961 . S
C791 H807 0.960 . S
H792 C776 0.931 . S
H793 C781 0.929 . S
H794 C782 0.960 . S
H795 C782 0.962 . S
H796 C782 0.960 . S
H797 C783 0.961 . S
H798 C783 0.961 . S
H799 C783 0.961 . S
H800 C784 0.931 . S
H801 C789 0.930 . S
H802 C790 0.956 . S
H803 C790 0.961 . S
H804 C790 0.961 . S
H805 C791 0.958 . S
H806 C791 0.961 . S
H807 C791 0.960 . S
C808 C809 1.391 . S
C808 C810 1.394 . S
C808 H824 0.931 . S
C809 C808 1.391 . S
C809 C813 1.376 . S
C810 C808 1.394 . S
C810 C811 1.369 . S
C810 C814 1.531 . S
C811 C810 1.369 . S
C811 C812 1.410 . S
C811 C819 1.503 . S
C812 C811 1.410 . S
C812 C813 1.392 . S
C812 C815 1.511 . S
C813 C809 1.376 . S
C813 C812 1.392 . S
C813 H825 0.929 . S
C814 C810 1.531 . S
C814 H826 0.960 . S
C814 H827 0.962 . S
C814 H828 0.960 . S
C815 C812 1.511 . S
C815 H829 0.961 . S
C815 H830 0.961 . S
C815 H831 0.961 . S
C816 C817 1.370 . S
C816 C818 1.363 . S
C816 H832 0.931 . S
C817 C816 1.370 . S
C817 C821 1.408 . S
C818 C816 1.363 . S
C818 C819 1.370 . S
C818 C822 1.524 . S
C819 C811 1.503 . S
C819 C818 1.370 . S
C819 C820 1.403 . S
C820 C819 1.403 . S
C820 C821 1.404 . S
C820 C823 1.539 . S
C821 C817 1.408 . S
C821 C820 1.404 . S
C821 H833 0.930 . S
C822 C818 1.524 . S
C822 H834 0.956 . S
C822 H835 0.961 . S
C822 H836 0.961 . S
C823 C820 1.539 . S
C823 H837 0.958 . S
C823 H838 0.961 . S
C823 H839 0.960 . S
H824 C808 0.931 . S
H825 C813 0.929 . S
H826 C814 0.960 . S
H827 C814 0.962 . S
H828 C814 0.960 . S
H829 C815 0.961 . S
H830 C815 0.961 . S
H831 C815 0.961 . S
H832 C816 0.931 . S
H833 C821 0.930 . S
H834 C822 0.956 . S
H835 C822 0.961 . S
H836 C822 0.961 . S
H837 C823 0.958 . S
H838 C823 0.961 . S
H839 C823 0.960 . S
C840 C841 1.391 . S
C840 C842 1.394 . S
C840 H856 0.931 . S
C841 C840 1.391 . S
C841 C845 1.376 . S
C842 C840 1.394 . S
C842 C843 1.369 . S
C842 C846 1.531 . S
C843 C842 1.369 . S
C843 C844 1.410 . S
C843 C851 1.503 . S
C844 C843 1.410 . S
C844 C845 1.392 . S
C844 C847 1.511 . S
C845 C841 1.376 . S
C845 C844 1.392 . S
C845 H857 0.929 . S
C846 C842 1.531 . S
C846 H858 0.960 . S
C846 H859 0.962 . S
C846 H860 0.960 . S
C847 C844 1.511 . S
C847 H861 0.961 . S
C847 H862 0.961 . S
C847 H863 0.961 . S
C848 C849 1.370 . S
C848 C850 1.363 . S
C848 H864 0.931 . S
C849 C848 1.370 . S
C849 C853 1.408 . S
C850 C848 1.363 . S
C850 C851 1.370 . S
C850 C854 1.524 . S
C851 C843 1.503 . S
C851 C850 1.370 . S
C851 C852 1.403 . S
C852 C851 1.403 . S
C852 C853 1.404 . S
C852 C855 1.539 . S
C853 C849 1.408 . S
C853 C852 1.404 . S
C853 H865 0.930 . S
C854 C850 1.524 . S
C854 H866 0.956 . S
C854 H867 0.961 . S
C854 H868 0.961 . S
C855 C852 1.539 . S
C855 H869 0.958 . S
C855 H870 0.961 . S
C855 H871 0.960 . S
H856 C840 0.931 . S
H857 C845 0.929 . S
H858 C846 0.960 . S
H859 C846 0.962 . S
H860 C846 0.960 . S
H861 C847 0.961 . S
H862 C847 0.961 . S
H863 C847 0.961 . S
H864 C848 0.931 . S
H865 C853 0.930 . S
H866 C854 0.956 . S
H867 C854 0.961 . S
H868 C854 0.961 . S
H869 C855 0.958 . S
H870 C855 0.961 . S
H871 C855 0.960 . S
C872 C873 1.391 . S
C872 C874 1.394 . S
C872 H888 0.931 . S
C873 C872 1.391 . S
C873 C877 1.376 . S
C874 C872 1.394 . S
C874 C875 1.369 . S
C874 C878 1.531 . S
C875 C874 1.369 . S
C875 C876 1.410 . S
C875 C883 1.503 . S
C876 C875 1.410 . S
C876 C877 1.392 . S
C876 C879 1.511 . S
C877 C873 1.376 . S
C877 C876 1.392 . S
C877 H889 0.929 . S
C878 C874 1.531 . S
C878 H890 0.960 . S
C878 H891 0.962 . S
C878 H892 0.960 . S
C879 C876 1.511 . S
C879 H893 0.961 . S
C879 H894 0.961 . S
C879 H895 0.961 . S
C880 C881 1.370 . S
C880 C882 1.363 . S
C880 H896 0.931 . S
C881 C880 1.370 . S
C881 C885 1.408 . S
C882 C880 1.363 . S
C882 C883 1.370 . S
C882 C886 1.524 . S
C883 C875 1.503 . S
C883 C882 1.370 . S
C883 C884 1.403 . S
C884 C883 1.403 . S
C884 C885 1.404 . S
C884 C887 1.539 . S
C885 C881 1.408 . S
C885 C884 1.404 . S
C885 H897 0.930 . S
C886 C882 1.524 . S
C886 H898 0.956 . S
C886 H899 0.961 . S
C886 H900 0.961 . S
C887 C884 1.539 . S
C887 H901 0.958 . S
C887 H902 0.961 . S
C887 H903 0.960 . S
H888 C872 0.931 . S
H889 C877 0.929 . S
H890 C878 0.960 . S
H891 C878 0.962 . S
H892 C878 0.960 . S
H893 C879 0.961 . S
H894 C879 0.961 . S
H895 C879 0.961 . S
H896 C880 0.931 . S
H897 C885 0.930 . S
H898 C886 0.956 . S
H899 C886 0.961 . S
H900 C886 0.961 . S
H901 C887 0.958 . S
H902 C887 0.961 . S
H903 C887 0.960 . S
C265 N134 0.479 . S
C273 N2 0.569 . S
C297 N35 0.424 . S
C305 N167 0.546 . S
C329 N68 0.484 . S
C337 N200 0.570 . S
C361 N101 0.610 . S
C369 N233 0.545 . S
C393 C21 0.975 . S
C401 C219 1.003 . S
C425 C54 0.964 . S
C433 C252 1.003 . S
C457 C153 0.967 . S
C465 C87 1.001 . S
C489 C186 0.967 . S
C497 C120 1.001 . S
C521 C249 0.485 . S
C529 C18 0.433 . S
C553 C51 0.482 . S
C561 C150 0.369 . S
C585 C183 0.371 . S
C593 C84 0.364 . S
C617 C216 0.408 . S
C625 C117 0.359 . S
C649 C7 1.851 . S
C657 N46 1.949 . S
C681 C40 1.866 . S
C689 N79 1.953 . S
C713 N112 1.946 . S
C721 C73 1.875 . S
C745 N13 1.944 . S
C753 C106 1.874 . S
C777 C139 1.903 . S
C785 N244 1.956 . S
C809 N145 1.947 . S
C817 C172 1.876 . S
C841 C205 1.904 . S
C849 N178 1.957 . S
C873 C238 1.866 . S
C881 N211 1.953 . S
