# Generated by pormake.
# Topology wjh, (4)-cn, num edge types: 1
# Building blocks:
#     Node 0, Type 0, BuildingBlock: UXUYUI_clean_sbu_0, # of connection points: 4
#     Node 1, Type 0, BuildingBlock: UXUYUI_clean_sbu_0, # of connection points: 4
#     Node 2, Type 0, BuildingBlock: UXUYUI_clean_sbu_0, # of connection points: 4
#     Node 3, Type 0, BuildingBlock: UXUYUI_clean_sbu_0, # of connection points: 4
#     Node 4, Type 0, BuildingBlock: UXUYUI_clean_sbu_0, # of connection points: 4
#     Node 5, Type 0, BuildingBlock: UXUYUI_clean_sbu_0, # of connection points: 4
#     Node 6, Type 0, BuildingBlock: UXUYUI_clean_sbu_0, # of connection points: 4
#     Node 7, Type 0, BuildingBlock: UXUYUI_clean_sbu_0, # of connection points: 4
#     Node 8, Type 0, BuildingBlock: UXUYUI_clean_sbu_0, # of connection points: 4
#     Node 9, Type 0, BuildingBlock: UXUYUI_clean_sbu_0, # of connection points: 4
#     Node 10, Type 0, BuildingBlock: UXUYUI_clean_sbu_0, # of connection points: 4
#     Node 11, Type 0, BuildingBlock: UXUYUI_clean_sbu_0, # of connection points: 4
#     Edge 12, Type (0, 0), BuildingBlock: XUDNAN_clean_linker_2, # of connection points: 2
#     Edge 13, Type (0, 0), BuildingBlock: XUDNAN_clean_linker_2, # of connection points: 2
#     Edge 14, Type (0, 0), BuildingBlock: XUDNAN_clean_linker_2, # of connection points: 2
#     Edge 15, Type (0, 0), BuildingBlock: XUDNAN_clean_linker_2, # of connection points: 2
#     Edge 16, Type (0, 0), BuildingBlock: XUDNAN_clean_linker_2, # of connection points: 2
#     Edge 17, Type (0, 0), BuildingBlock: XUDNAN_clean_linker_2, # of connection points: 2
#     Edge 18, Type (0, 0), BuildingBlock: XUDNAN_clean_linker_2, # of connection points: 2
#     Edge 19, Type (0, 0), BuildingBlock: XUDNAN_clean_linker_2, # of connection points: 2
#     Edge 20, Type (0, 0), BuildingBlock: XUDNAN_clean_linker_2, # of connection points: 2
#     Edge 21, Type (0, 0), BuildingBlock: XUDNAN_clean_linker_2, # of connection points: 2
#     Edge 22, Type (0, 0), BuildingBlock: XUDNAN_clean_linker_2, # of connection points: 2
#     Edge 23, Type (0, 0), BuildingBlock: XUDNAN_clean_linker_2, # of connection points: 2
#     Edge 24, Type (0, 0), BuildingBlock: XUDNAN_clean_linker_2, # of connection points: 2
#     Edge 25, Type (0, 0), BuildingBlock: XUDNAN_clean_linker_2, # of connection points: 2
#     Edge 26, Type (0, 0), BuildingBlock: XUDNAN_clean_linker_2, # of connection points: 2
#     Edge 27, Type (0, 0), BuildingBlock: XUDNAN_clean_linker_2, # of connection points: 2
#     Edge 28, Type (0, 0), BuildingBlock: XUDNAN_clean_linker_2, # of connection points: 2
#     Edge 29, Type (0, 0), BuildingBlock: XUDNAN_clean_linker_2, # of connection points: 2
#     Edge 30, Type (0, 0), BuildingBlock: XUDNAN_clean_linker_2, # of connection points: 2
#     Edge 31, Type (0, 0), BuildingBlock: XUDNAN_clean_linker_2, # of connection points: 2
#     Edge 32, Type (0, 0), BuildingBlock: XUDNAN_clean_linker_2, # of connection points: 2
#     Edge 33, Type (0, 0), BuildingBlock: XUDNAN_clean_linker_2, # of connection points: 2
#     Edge 34, Type (0, 0), BuildingBlock: XUDNAN_clean_linker_2, # of connection points: 2
#     Edge 35, Type (0, 0), BuildingBlock: XUDNAN_clean_linker_2, # of connection points: 2
# Relax obj value: 0.245
# Max RMSD: 0.173
# Mean RMSD: 0.173
data_MOF--net-wjh--node1-UXUYUI_clean_sbu_0--edge1-XUDNAN_clean_linker_2
_symmetry_space_group_name_H-M    P1
_symmetry_Int_Tables_number       1
_symmetry_cell_setting            triclinic
loop_
_symmetry_equiv_pos_as_xyz
'x, y, z'
_cell_length_a     90.445829
_cell_length_b     90.439486
_cell_length_c     35.961635
_cell_angle_alpha  90.010211
_cell_angle_beta   89.977747
_cell_angle_gamma 119.98686
loop_
_atom_site_label
_atom_site_type_symbol
_atom_site_fract_x
_atom_site_fract_y
_atom_site_fract_z
_atom_type_partial_charge
Li0 Li 0.48039 0.11701 0.06063 0.0
Li1 Li 0.50569 0.1309 0.09819 0.0
Li2 Li 0.4938 0.14725 0.07187 0.0
Li3 Li 0.50749 0.13637 0.0325 0.0
C4 C 0.47534 0.11738 0.13734 0.0
N5 N 0.45955 0.09465 0.19504 0.0
C6 C 0.47427 0.10142 0.1369 0.0
C7 C 0.46835 0.12177 0.1671 0.0
C8 C 0.46624 0.09011 0.16632 0.0
C9 C 0.46043 0.1101 0.19602 0.0
C10 C 0.51398 0.11094 0.05381 0.0
C11 C 0.54382 0.11963 0.05953 0.0
N12 N 0.54042 0.1041 0.04665 0.0
C13 C 0.51079 0.09505 0.04074 0.0
C14 C 0.53063 0.12332 0.06339 0.0
C15 C 0.52432 0.09185 0.03728 0.0
C16 C 0.46046 0.08371 0.03505 0.0
N17 N 0.45955 0.0961 0.05441 0.0
C18 C 0.43059 0.07669 0.07118 0.0
C19 C 0.44491 0.09303 0.07173 0.0
C20 C 0.43145 0.06332 0.05318 0.0
C21 C 0.44656 0.06714 0.03422 0.0
H22 H 0.47228 0.08654 0.02162 0.0
H23 H 0.44456 0.10306 0.08737 0.0
C24 C 0.52401 0.14178 0.16536 0.0
N25 N 0.51619 0.12834 0.14163 0.0
C26 C 0.5305 0.13995 0.19921 0.0
C27 C 0.52096 0.11056 0.18318 0.0
C28 C 0.51471 0.11297 0.14968 0.0
C29 C 0.52878 0.12408 0.20868 0.0
H30 H 0.52481 0.15379 0.15833 0.0
H31 H 0.50833 0.10244 0.13048 0.0
C32 C 0.47013 0.13433 0.01401 0.0
N33 N 0.43983 0.13282 0.99461 0.0
C34 C 0.46605 0.13451 0.97659 0.0
C35 C 0.45879 0.13343 0.04156 0.0
C36 C 0.45067 0.13372 0.96735 0.0
C37 C 0.44354 0.13267 0.0312 0.0
C38 C 0.52797 0.16946 0.05875 0.0
C39 C 0.52329 0.17399 0.02544 0.0
C40 C 0.5427 0.18142 0.07734 0.0
C41 C 0.53346 0.19045 0.01131 0.0
C42 C 0.55253 0.19775 0.0623 0.0
N43 N 0.54774 0.20189 0.02987 0.0
C44 C 0.48998 0.16996 0.11802 0.0
C45 C 0.48755 0.17437 0.05384 0.0
C46 C 0.48687 0.18313 0.12745 0.0
N47 N 0.49013 0.16579 0.08178 0.0
C48 C 0.48433 0.18759 0.062 0.0
C49 C 0.48387 0.19205 0.09925 0.0
H50 H 0.49216 0.16293 0.13959 0.0
H51 H 0.48787 0.17089 0.02522 0.0
C52 C 0.51184 0.13458 0.95618 0.0
N53 N 0.52066 0.14026 0.98855 0.0
C54 C 0.52051 0.13705 0.92262 0.0
C55 C 0.54719 0.15078 0.95642 0.0
C56 C 0.53801 0.14831 0.9893 0.0
C57 C 0.5384 0.14519 0.92256 0.0
H58 H 0.49805 0.12812 0.9565 0.0
H59 H 0.54473 0.15289 0.01537 0.0
O60 O 0.48317 0.12874 0.10893 0.0
O61 O 0.50079 0.1142 0.05729 0.0
O62 O 0.4852 0.13515 0.02329 0.0
O63 O 0.51827 0.15345 0.07333 0.0
H64 H 0.47956 0.09776 0.11409 0.0
H65 H 0.46904 0.13406 0.16783 0.0
H66 H 0.46534 0.07772 0.16632 0.0
H67 H 0.45498 0.11334 0.21924 0.0
H68 H 0.55676 0.12911 0.0668 0.0
H69 H 0.49799 0.08527 0.03337 0.0
H70 H 0.53341 0.13566 0.07375 0.0
H71 H 0.52202 0.07961 0.02716 0.0
H72 H 0.41917 0.07446 0.0857 0.0
H73 H 0.44804 0.05731 0.02048 0.0
H74 H 0.5363 0.15065 0.21824 0.0
H75 H 0.51958 0.0982 0.18917 0.0
H76 H 0.4747 0.13528 0.95489 0.0
H77 H 0.46172 0.13342 0.07067 0.0
H78 H 0.44736 0.13384 0.93849 0.0
H79 H 0.43468 0.13198 0.05226 0.0
H80 H 0.51198 0.16493 0.01056 0.0
H81 H 0.54649 0.17809 0.10314 0.0
H82 H 0.52998 0.19412 0.98557 0.0
H83 H 0.56396 0.20714 0.0764 0.0
H84 H 0.4865 0.18607 0.15651 0.0
H85 H 0.48234 0.19431 0.0394 0.0
H86 H 0.51331 0.13245 0.89703 0.0
H87 H 0.561 0.15723 0.95732 0.0
Li88 Li 0.37312 0.50603 0.27124 0.0
Li89 Li 0.36345 0.48015 0.23183 0.0
Li90 Li 0.37193 0.5087 0.20377 0.0
Li91 Li 0.34668 0.49352 0.23962 0.0
C92 C 0.39838 0.49815 0.24614 0.0
N93 N 0.42218 0.49016 0.27289 0.0
C94 C 0.39513 0.4886 0.27877 0.0
C95 C 0.41374 0.50364 0.22715 0.0
C96 C 0.40731 0.48468 0.29182 0.0
C97 C 0.42561 0.49949 0.24114 0.0
C98 C 0.33841 0.47101 0.29377 0.0
C99 C 0.3121 0.44403 0.29077 0.0
N100 N 0.30705 0.44772 0.3234 0.0
C101 C 0.333 0.47447 0.3274 0.0
C102 C 0.32789 0.45564 0.27531 0.0
C103 C 0.31708 0.46257 0.34185 0.0
C104 C 0.37358 0.51908 0.34053 0.0
N105 N 0.38403 0.51724 0.31619 0.0
C106 C 0.40713 0.52983 0.3595 0.0
C107 C 0.4007 0.52293 0.32446 0.0
C108 C 0.39633 0.53103 0.38595 0.0
C109 C 0.37945 0.5259 0.37576 0.0
H110 H 0.3606 0.51511 0.33254 0.0
H111 H 0.40898 0.52197 0.30418 0.0
C112 C 0.36983 0.45634 0.19437 0.0
N113 N 0.36478 0.45996 0.22705 0.0
C114 C 0.37287 0.44266 0.19212 0.0
C115 C 0.36494 0.43645 0.25686 0.0
C116 C 0.36215 0.45026 0.25789 0.0
C117 C 0.37073 0.43271 0.2239 0.0
H118 H 0.37207 0.46446 0.17046 0.0
H119 H 0.35845 0.45361 0.28373 0.0
C120 C 0.37464 0.53531 0.24581 0.0
N121 N 0.39695 0.57006 0.2508 0.0
C122 C 0.36838 0.54656 0.24995 0.0
C123 C 0.39227 0.54175 0.24425 0.0
C124 C 0.37986 0.56408 0.2524 0.0
C125 C 0.40333 0.55935 0.24682 0.0
C126 C 0.33831 0.48114 0.16992 0.0
C127 C 0.33415 0.49329 0.15777 0.0
C128 C 0.32821 0.46408 0.15927 0.0
C129 C 0.31975 0.48809 0.13542 0.0
C130 C 0.31393 0.45941 0.13685 0.0
N131 N 0.31002 0.47141 0.12552 0.0
C132 C 0.39486 0.52148 0.14328 0.0
C133 C 0.37908 0.5356 0.15344 0.0
C134 C 0.40405 0.53282 0.1146 0.0
N135 N 0.38284 0.52323 0.16232 0.0
C136 C 0.38812 0.54734 0.12536 0.0
C137 C 0.40091 0.54614 0.10583 0.0
H138 H 0.39751 0.51147 0.15085 0.0
H139 H 0.36929 0.53656 0.16865 0.0
C140 C 0.32329 0.50106 0.27028 0.0
N141 N 0.32401 0.48928 0.24807 0.0
C142 C 0.30768 0.49825 0.28398 0.0
C143 C 0.2937 0.4713 0.25126 0.0
C144 C 0.30961 0.4747 0.23792 0.0
C145 C 0.29267 0.48306 0.27508 0.0
H146 H 0.33495 0.51229 0.27882 0.0
H147 H 0.31048 0.46527 0.22116 0.0
O148 O 0.38647 0.50178 0.23224 0.0
O149 O 0.35379 0.48268 0.27863 0.0
O150 O 0.36344 0.51812 0.2432 0.0
O151 O 0.35229 0.48593 0.19186 0.0
H152 H 0.38337 0.48433 0.29398 0.0
H153 H 0.41645 0.51103 0.20183 0.0
H154 H 0.40495 0.47729 0.31701 0.0
H155 H 0.43755 0.50365 0.22671 0.0
H156 H 0.3038 0.43215 0.27663 0.0
H157 H 0.34094 0.48622 0.34221 0.0
H158 H 0.3317 0.45286 0.24891 0.0
H159 H 0.3127 0.46514 0.36776 0.0
H160 H 0.42025 0.53372 0.36613 0.0
H161 H 0.37084 0.52709 0.39486 0.0
H162 H 0.37757 0.44039 0.16629 0.0
H163 H 0.36295 0.42903 0.2819 0.0
H164 H 0.35478 0.5418 0.25109 0.0
H165 H 0.39744 0.53334 0.24098 0.0
H166 H 0.37518 0.57292 0.25556 0.0
H167 H 0.41699 0.5645 0.2456 0.0
H168 H 0.34186 0.50653 0.16585 0.0
H169 H 0.33133 0.45456 0.16844 0.0
H170 H 0.3163 0.49732 0.12598 0.0
H171 H 0.30594 0.44624 0.1285 0.0
H172 H 0.41387 0.53152 0.10024 0.0
H173 H 0.38518 0.55731 0.11906 0.0
H174 H 0.30749 0.50751 0.30276 0.0
H175 H 0.2824 0.45946 0.24368 0.0
Li176 Li 0.88319 0.36449 0.4008 0.0
Li177 Li 0.86601 0.37154 0.44398 0.0
Li178 Li 0.85358 0.34576 0.40558 0.0
Li179 Li 0.86297 0.37218 0.37499 0.0
C180 C 0.88226 0.34999 0.46402 0.0
N181 N 0.90774 0.34654 0.49808 0.0
C182 C 0.89296 0.36204 0.49016 0.0
C183 C 0.88442 0.33612 0.45542 0.0
C184 C 0.90579 0.36008 0.50703 0.0
C185 C 0.89741 0.33462 0.47288 0.0
C186 C 0.89097 0.40147 0.38868 0.0
C187 C 0.89398 0.42906 0.37656 0.0
N188 N 0.90487 0.43139 0.34815 0.0
C189 C 0.90219 0.40413 0.3594 0.0
C190 C 0.88682 0.41402 0.3974 0.0
C191 C 0.90909 0.41935 0.33924 0.0
C192 C 0.90859 0.3568 0.3752 0.0
N193 N 0.90539 0.36743 0.39604 0.0
C194 C 0.93475 0.38402 0.41293 0.0
C195 C 0.91802 0.38082 0.41476 0.0
C196 C 0.93853 0.37328 0.39168 0.0
C197 C 0.92517 0.35948 0.37271 0.0
H198 H 0.89833 0.3463 0.36044 0.0
H199 H 0.91508 0.3891 0.43097 0.0
C200 C 0.85392 0.37037 0.5158 0.0
N201 N 0.8657 0.38093 0.49072 0.0
C202 C 0.85343 0.37625 0.55137 0.0
C203 C 0.87744 0.40372 0.53484 0.0
C204 C 0.87742 0.3973 0.49947 0.0
C205 C 0.86534 0.39312 0.56138 0.0
H206 H 0.84504 0.3573 0.50829 0.0
H207 H 0.88694 0.40527 0.47926 0.0
C208 C 0.85969 0.33951 0.33737 0.0
N209 N 0.84403 0.31035 0.29421 0.0
C210 C 0.84968 0.33863 0.3069 0.0
C211 C 0.86177 0.32557 0.34579 0.0
C212 C 0.84188 0.32378 0.28542 0.0
C213 C 0.85372 0.31093 0.32369 0.0
C214 C 0.82782 0.35227 0.40785 0.0
C215 C 0.82074 0.35051 0.37243 0.0
C216 C 0.81721 0.34352 0.43788 0.0
C217 C 0.80316 0.33998 0.36765 0.0
C218 C 0.79969 0.33306 0.43193 0.0
N219 N 0.79309 0.33153 0.39724 0.0
C220 C 0.83568 0.31387 0.44047 0.0
C221 C 0.8236 0.31467 0.38259 0.0
C222 C 0.82255 0.29719 0.44666 0.0
N223 N 0.83595 0.32229 0.40892 0.0
C224 C 0.81026 0.29799 0.38757 0.0
C225 C 0.80954 0.28909 0.42014 0.0
H226 H 0.84547 0.32024 0.46129 0.0
H227 H 0.8238 0.32166 0.35811 0.0
C228 C 0.86637 0.38559 0.30237 0.0
N229 N 0.85984 0.38486 0.33678 0.0
C230 C 0.86429 0.39501 0.27419 0.0
C231 C 0.84933 0.4032 0.31784 0.0
C232 C 0.85154 0.39348 0.34504 0.0
C233 C 0.85562 0.40396 0.28169 0.0
H234 H 0.87317 0.37881 0.29683 0.0
H235 H 0.84674 0.39286 0.37289 0.0
O236 O 0.86998 0.35197 0.4463 0.0
O237 O 0.88363 0.38641 0.40789 0.0
O238 O 0.86754 0.354 0.35857 0.0
O239 O 0.84504 0.36239 0.41302 0.0
H240 H 0.89154 0.37291 0.49696 0.0
H241 H 0.87624 0.32667 0.43528 0.0
H242 H 0.91424 0.36937 0.52712 0.0
H243 H 0.8993 0.324 0.46634 0.0
H244 H 0.8908 0.43884 0.38283 0.0
H245 H 0.90537 0.39444 0.352 0.0
H246 H 0.87792 0.41203 0.41959 0.0
H247 H 0.91774 0.42156 0.31639 0.0
H248 H 0.94466 0.39503 0.42737 0.0
H249 H 0.92748 0.35082 0.3562 0.0
H250 H 0.84377 0.36768 0.57073 0.0
H251 H 0.88705 0.4167 0.54155 0.0
H252 H 0.84778 0.34921 0.30013 0.0
H253 H 0.86927 0.32593 0.36952 0.0
H254 H 0.83404 0.3229 0.26187 0.0
H255 H 0.85513 0.30001 0.33006 0.0
H256 H 0.82874 0.35695 0.34873 0.0
H257 H 0.82244 0.34464 0.46541 0.0
H258 H 0.79754 0.33843 0.34037 0.0
H259 H 0.79135 0.32614 0.45489 0.0
H260 H 0.82252 0.29074 0.47206 0.0
H261 H 0.80032 0.29233 0.36672 0.0
H262 H 0.86921 0.39503 0.24673 0.0
H263 H 0.84289 0.41017 0.32522 0.0
Li264 Li 0.52367 0.8858 0.5745 0.0
Li265 Li 0.49647 0.86735 0.60621 0.0
Li266 Li 0.51053 0.85546 0.57104 0.0
Li267 Li 0.49772 0.86929 0.53921 0.0
C268 C 0.53157 0.86693 0.62926 0.0
N269 N 0.55611 0.85956 0.65393 0.0
C270 C 0.52901 0.85768 0.66209 0.0
C271 C 0.54662 0.87243 0.60898 0.0
C272 C 0.54156 0.85408 0.67409 0.0
C273 C 0.55887 0.86859 0.62193 0.0
C274 C 0.50571 0.90163 0.59664 0.0
C275 C 0.50556 0.92803 0.60509 0.0
N276 N 0.51196 0.92944 0.63995 0.0
C277 C 0.51224 0.90333 0.63262 0.0
C278 C 0.5023 0.91407 0.58279 0.0
C279 C 0.51532 0.91748 0.65404 0.0
C280 C 0.55043 0.91565 0.54411 0.0
N281 N 0.54422 0.90707 0.57657 0.0
C282 C 0.56579 0.93042 0.61126 0.0
C283 C 0.55175 0.91392 0.60974 0.0
C284 C 0.57223 0.93976 0.57824 0.0
C285 C 0.5646 0.93208 0.54427 0.0
H286 H 0.54407 0.90989 0.51823 0.0
H287 H 0.54656 0.90675 0.63512 0.0
C288 C 0.48153 0.85207 0.67391 0.0
N289 N 0.48258 0.86378 0.64881 0.0
C290 C 0.47145 0.84855 0.70567 0.0
C291 C 0.46336 0.86892 0.68468 0.0
C292 C 0.4736 0.87203 0.65332 0.0
C293 C 0.46223 0.85708 0.71144 0.0
H294 H 0.48846 0.84539 0.66907 0.0
H295 H 0.47425 0.88093 0.63244 0.0
C296 C 0.51993 0.86375 0.49678 0.0
N297 N 0.51851 0.84727 0.43103 0.0
C298 C 0.50679 0.84701 0.49072 0.0
C299 C 0.53236 0.8721 0.46942 0.0
C300 C 0.5063 0.8389 0.45729 0.0
C301 C 0.53142 0.86356 0.43636 0.0
C302 C 0.46874 0.84184 0.56961 0.0
C303 C 0.45772 0.82419 0.57035 0.0
C304 C 0.462 0.85278 0.56841 0.0
C305 C 0.4401 0.81775 0.56986 0.0
C306 C 0.44431 0.84585 0.56794 0.0
N307 N 0.43382 0.82863 0.56867 0.0
C308 C 0.50442 0.82417 0.59669 0.0
C309 C 0.52769 0.83666 0.5545 0.0
C310 C 0.50709 0.81047 0.60279 0.0
N311 N 0.51469 0.83689 0.57302 0.0
C312 C 0.53071 0.82307 0.55948 0.0
C313 C 0.52041 0.80984 0.58418 0.0
H314 H 0.49434 0.82486 0.61134 0.0
H315 H 0.53589 0.84716 0.53645 0.0
C316 C 0.48798 0.88554 0.48712 0.0
N317 N 0.48563 0.86996 0.49652 0.0
C318 C 0.4783 0.88709 0.45882 0.0
C319 C 0.4646 0.85661 0.44886 0.0
C320 C 0.47436 0.85561 0.47785 0.0
C321 C 0.4663 0.87247 0.43966 0.0
H322 H 0.49713 0.89673 0.50223 0.0
H323 H 0.47259 0.84334 0.48612 0.0
O324 O 0.51916 0.87002 0.61623 0.0
O325 O 0.50272 0.88798 0.57486 0.0
O326 O 0.52076 0.87207 0.5292 0.0
O327 O 0.48602 0.84822 0.57011 0.0
H328 H 0.51743 0.85327 0.67808 0.0
H329 H 0.54869 0.87931 0.58313 0.0
H330 H 0.53972 0.8469 0.6994 0.0
H331 H 0.57053 0.87268 0.6064 0.0
H332 H 0.50299 0.93774 0.59468 0.0
H333 H 0.51487 0.89384 0.64404 0.0
H334 H 0.49718 0.91296 0.55512 0.0
H335 H 0.52039 0.91894 0.68189 0.0
H336 H 0.5714 0.93592 0.63793 0.0
H337 H 0.56908 0.93897 0.51829 0.0
H338 H 0.47101 0.83938 0.72563 0.0
H339 H 0.4562 0.87552 0.68765 0.0
H340 H 0.49709 0.84028 0.51153 0.0
H341 H 0.54262 0.88507 0.4737 0.0
H342 H 0.4962 0.82595 0.45225 0.0
H343 H 0.54095 0.86988 0.41493 0.0
H344 H 0.46275 0.81556 0.57129 0.0
H345 H 0.47029 0.86646 0.56775 0.0
H346 H 0.43142 0.80412 0.57041 0.0
H347 H 0.43893 0.85416 0.56699 0.0
H348 H 0.49875 0.80042 0.62175 0.0
H349 H 0.54119 0.82308 0.5449 0.0
H350 H 0.48006 0.89955 0.4522 0.0
H351 H 0.45537 0.84505 0.43478 0.0
Li352 Li 0.63457 0.52005 0.73178 0.0
Li353 Li 0.61907 0.49315 0.76116 0.0
Li354 Li 0.64811 0.50351 0.74484 0.0
Li355 Li 0.626 0.49403 0.69626 0.0
C356 C 0.65273 0.52712 0.79775 0.0
N357 N 0.68015 0.55452 0.83163 0.0
C358 C 0.65283 0.52929 0.83624 0.0
C359 C 0.6666 0.53889 0.77648 0.0
C360 C 0.66681 0.54323 0.85285 0.0
C361 C 0.68033 0.55265 0.79414 0.0
C362 C 0.59967 0.5065 0.72929 0.0
C363 C 0.57671 0.51159 0.71327 0.0
N364 N 0.57719 0.51756 0.74823 0.0
C365 C 0.59994 0.51269 0.76506 0.0
C366 C 0.58799 0.50596 0.70315 0.0
C367 C 0.58847 0.51822 0.77409 0.0
C368 C 0.63481 0.54739 0.69436 0.0
N369 N 0.63614 0.54178 0.72856 0.0
C370 C 0.63337 0.56395 0.75792 0.0
C371 C 0.63578 0.54992 0.76005 0.0
C372 C 0.631 0.56949 0.72311 0.0
C373 C 0.63226 0.56135 0.69094 0.0
H374 H 0.63473 0.5404 0.66987 0.0
H375 H 0.63631 0.54494 0.78698 0.0
C376 C 0.60913 0.48041 0.8327 0.0
N377 N 0.60276 0.48058 0.79862 0.0
C378 C 0.59814 0.47165 0.86204 0.0
C379 C 0.5742 0.46324 0.82054 0.0
C380 C 0.58568 0.4722 0.79195 0.0
C381 C 0.58041 0.46294 0.8562 0.0
H382 H 0.62279 0.48717 0.83704 0.0
H383 H 0.58099 0.47243 0.76443 0.0
C384 C 0.65938 0.51415 0.6715 0.0
N385 N 0.68036 0.51139 0.61948 0.0
C386 C 0.65927 0.49873 0.66716 0.0
C387 C 0.67012 0.52814 0.64933 0.0
C388 C 0.66998 0.4976 0.64072 0.0
C389 C 0.68066 0.5265 0.62322 0.0
C390 C 0.61729 0.46411 0.74693 0.0
C391 C 0.62174 0.4562 0.77461 0.0
C392 C 0.60088 0.45558 0.73172 0.0
C393 C 0.60961 0.4399 0.78683 0.0
C394 C 0.58913 0.43929 0.74465 0.0
N395 N 0.5937 0.43186 0.77174 0.0
C396 C 0.66576 0.49608 0.79598 0.0
C397 C 0.68356 0.51163 0.74538 0.0
C398 C 0.67903 0.49494 0.81266 0.0
N399 N 0.6681 0.50398 0.76262 0.0
C400 C 0.69725 0.51075 0.76107 0.0
C401 C 0.69497 0.50208 0.79491 0.0
H402 H 0.65349 0.49067 0.80964 0.0
H403 H 0.68533 0.51836 0.71951 0.0
C404 C 0.61577 0.49252 0.62224 0.0
N405 N 0.61889 0.48375 0.64879 0.0
C406 C 0.61056 0.48559 0.58674 0.0
C407 C 0.6118 0.46071 0.60673 0.0
C408 C 0.6172 0.46821 0.64169 0.0
C409 C 0.60841 0.46943 0.57876 0.0
H410 H 0.61732 0.5049 0.62874 0.0
H411 H 0.62008 0.46166 0.66313 0.0
O412 O 0.63916 0.51338 0.78137 0.0
O413 O 0.61111 0.50148 0.71934 0.0
O414 O 0.64891 0.51563 0.69686 0.0
O415 O 0.62881 0.48026 0.73525 0.0
H416 H 0.64222 0.52027 0.8531 0.0
H417 H 0.66681 0.53746 0.7467 0.0
H418 H 0.66705 0.54506 0.88262 0.0
H419 H 0.69114 0.56185 0.77802 0.0
H420 H 0.56761 0.51126 0.6933 0.0
H421 H 0.60902 0.5134 0.78556 0.0
H422 H 0.58772 0.50131 0.67526 0.0
H423 H 0.58858 0.5231 0.80162 0.0
H424 H 0.63264 0.56994 0.7834 0.0
H425 H 0.63026 0.56504 0.66358 0.0
H426 H 0.60349 0.47197 0.88917 0.0
H427 H 0.56064 0.45652 0.81472 0.0
H428 H 0.65113 0.48777 0.6841 0.0
H429 H 0.67031 0.54015 0.65229 0.0
H430 H 0.67005 0.48576 0.63711 0.0
H431 H 0.68905 0.53724 0.60589 0.0
H432 H 0.63439 0.46254 0.78658 0.0
H433 H 0.59714 0.46162 0.71064 0.0
H434 H 0.61286 0.43365 0.80834 0.0
H435 H 0.57635 0.4326 0.73331 0.0
H436 H 0.67684 0.48855 0.83926 0.0
H437 H 0.70934 0.51647 0.7465 0.0
H438 H 0.60795 0.49266 0.56596 0.0
H439 H 0.61049 0.44831 0.60146 0.0
Li440 Li 0.14043 0.6327 0.86466 0.0
Li441 Li 0.14791 0.65358 0.91315 0.0
Li442 Li 0.13729 0.62407 0.9317 0.0
Li443 Li 0.11884 0.63375 0.90456 0.0
C444 C 0.17532 0.65079 0.89681 0.0
N445 N 0.20919 0.67526 0.88598 0.0
C446 C 0.18095 0.65841 0.86194 0.0
C447 C 0.18698 0.65565 0.92616 0.0
C448 C 0.19811 0.67071 0.857 0.0
C449 C 0.20402 0.66806 0.92016 0.0
C450 C 0.14125 0.66711 0.855 0.0
C451 C 0.14621 0.69579 0.86116 0.0
N452 N 0.15581 0.70031 0.82964 0.0
C453 C 0.15102 0.67199 0.82248 0.0
C454 C 0.13868 0.67904 0.87435 0.0
C455 C 0.15832 0.68885 0.81018 0.0
C456 C 0.13205 0.62465 0.79022 0.0
N457 N 0.14354 0.6262 0.81641 0.0
C458 C 0.15653 0.61571 0.77404 0.0
C459 C 0.15564 0.62186 0.80914 0.0
C460 C 0.1447 0.6138 0.7464 0.0
C461 C 0.13238 0.61844 0.75491 0.0
H462 H 0.12235 0.62786 0.79715 0.0
H463 H 0.16441 0.6229 0.83078 0.0
C464 C 0.16421 0.67742 0.96852 0.0
N465 N 0.16432 0.67583 0.93096 0.0
C466 C 0.17729 0.69156 0.98635 0.0
C467 C 0.1902 0.70271 0.92649 0.0
C468 C 0.17675 0.68831 0.9097 0.0
C469 C 0.19081 0.70416 0.96543 0.0
H470 H 0.15439 0.6673 0.985 0.0
H471 H 0.17678 0.68672 0.87996 0.0
C472 C 0.11854 0.59816 0.87893 0.0
N473 N 0.11485 0.56771 0.85323 0.0
C474 C 0.10282 0.58551 0.86515 0.0
C475 C 0.13241 0.59536 0.87957 0.0
C476 C 0.1012 0.57018 0.85232 0.0
C477 C 0.13028 0.57988 0.86647 0.0
C478 C 0.11875 0.63911 0.97524 0.0
C479 C 0.10888 0.6241 0.99538 0.0
C480 C 0.11539 0.65257 0.97811 0.0
C481 C 0.09563 0.62273 0.01781 0.0
C482 C 0.10202 0.65069 0.00081 0.0
N483 N 0.09249 0.63593 0.02 0.0
C484 C 0.1525 0.61854 0.9923 0.0
C485 C 0.12784 0.59315 0.97277 0.0
C486 C 0.15525 0.60984 0.02094 0.0
N487 N 0.1392 0.61009 0.96855 0.0
C488 C 0.12999 0.58395 0.00147 0.0
C489 C 0.14395 0.59232 0.02572 0.0
H490 H 0.16078 0.63213 0.98936 0.0
H491 H 0.11704 0.58683 0.95424 0.0
C492 C 0.0918 0.6408 0.89272 0.0
N493 N 0.09601 0.62921 0.90524 0.0
C494 C 0.07476 0.63686 0.89269 0.0
C495 C 0.06687 0.60923 0.9188 0.0
C496 C 0.084 0.61368 0.91816 0.0
C497 C 0.06201 0.62082 0.90557 0.0
H498 H 0.10163 0.65301 0.88232 0.0
H499 H 0.08778 0.60474 0.92792 0.0
O500 O 0.15846 0.6389 0.90226 0.0
O501 O 0.13392 0.65063 0.86733 0.0
O502 O 0.12038 0.61334 0.89092 0.0
O503 O 0.13149 0.64055 0.95239 0.0
H504 H 0.17214 0.65512 0.83905 0.0
H505 H 0.18297 0.65006 0.95339 0.0
H506 H 0.20258 0.67674 0.83018 0.0
H507 H 0.21312 0.67199 0.9427 0.0
H508 H 0.14445 0.7052 0.87602 0.0
H509 H 0.15293 0.66285 0.80688 0.0
H510 H 0.13111 0.67546 0.8995 0.0
H511 H 0.16598 0.69283 0.78515 0.0
H512 H 0.16633 0.61244 0.76873 0.0
H513 H 0.12275 0.61684 0.73491 0.0
H514 H 0.17712 0.69231 0.0164 0.0
H515 H 0.20046 0.71209 0.90935 0.0
H516 H 0.092 0.58754 0.86431 0.0
H517 H 0.1447 0.60505 0.88999 0.0
H518 H 0.0891 0.56027 0.84158 0.0
H519 H 0.1409 0.57754 0.86677 0.0
H520 H 0.11127 0.61355 0.99337 0.0
H521 H 0.12296 0.66428 0.96278 0.0
H522 H 0.08781 0.61115 0.03338 0.0
H523 H 0.0992 0.66095 0.00314 0.0
H524 H 0.1659 0.61684 0.0397 0.0
H525 H 0.12093 0.57046 0.00454 0.0
H526 H 0.07157 0.64608 0.88186 0.0
H527 H 0.05753 0.59685 0.92958 0.0
Li528 Li 0.85081 0.507 0.90304 0.0
Li529 Li 0.86195 0.49397 0.9447 0.0
Li530 Li 0.88079 0.51829 0.90452 0.0
Li531 Li 0.86294 0.49026 0.87778 0.0
C532 C 0.85897 0.52494 0.96732 0.0
N533 N 0.84383 0.53926 0.00965 0.0
C534 C 0.8475 0.51548 0.99559 0.0
C535 C 0.86299 0.5418 0.96107 0.0
C536 C 0.83991 0.52291 0.01654 0.0
C537 C 0.85513 0.54878 0.98263 0.0
C538 C 0.8277 0.47299 0.88998 0.0
C539 C 0.79801 0.45117 0.88575 0.0
N540 N 0.79781 0.45539 0.84954 0.0
C541 C 0.82714 0.47712 0.85268 0.0
C542 C 0.81297 0.45992 0.90665 0.0
C543 C 0.81194 0.46806 0.83274 0.0
C544 C 0.8297 0.51769 0.86611 0.0
N545 N 0.83197 0.51063 0.89741 0.0
C546 C 0.80363 0.50181 0.91772 0.0
C547 C 0.81941 0.50297 0.92323 0.0
C548 C 0.80059 0.50826 0.88489 0.0
C549 C 0.81403 0.51673 0.85934 0.0
H550 H 0.83962 0.52309 0.84528 0.0
H551 H 0.82127 0.49679 0.94701 0.0
C552 C 0.8732 0.48911 0.01497 0.0
N553 N 0.85966 0.48339 0.9915 0.0
C554 C 0.87135 0.48122 0.04945 0.0
C555 C 0.84173 0.46175 0.03465 0.0
C556 C 0.84416 0.46999 0.00058 0.0
C557 C 0.85541 0.46738 0.05971 0.0
H558 H 0.88539 0.49981 0.00689 0.0
H559 H 0.83368 0.46573 0.98131 0.0
C560 C 0.87383 0.52671 0.83807 0.0
N561 N 0.89024 0.55604 0.79557 0.0
C562 C 0.88024 0.52627 0.80299 0.0
C563 C 0.87555 0.54202 0.85128 0.0
C564 C 0.88855 0.54124 0.78198 0.0
C565 C 0.88395 0.55673 0.82948 0.0
C566 C 0.88496 0.4841 0.91932 0.0
C567 C 0.90177 0.48736 0.91812 0.0
C568 C 0.87162 0.46748 0.92562 0.0
C569 C 0.90497 0.4739 0.92336 0.0
C570 C 0.87534 0.45437 0.93072 0.0
N571 N 0.8918 0.45783 0.9295 0.0
C572 C 0.9091 0.55005 0.92675 0.0
C573 C 0.91282 0.53735 0.87249 0.0
C574 C 0.92619 0.56302 0.92553 0.0
N575 N 0.90291 0.53748 0.90072 0.0
C576 C 0.92989 0.55009 0.87003 0.0
C577 C 0.93691 0.56292 0.8973 0.0
H578 H 0.90095 0.54964 0.94921 0.0
H579 H 0.90755 0.52704 0.85248 0.0
C580 C 0.85036 0.4581 0.84132 0.0
N581 N 0.86253 0.47491 0.84103 0.0
C582 C 0.85053 0.44703 0.81452 0.0
C583 C 0.87602 0.47064 0.78825 0.0
C584 C 0.87539 0.48123 0.81567 0.0
C585 C 0.86343 0.45329 0.78738 0.0
H586 H 0.84059 0.45322 0.86251 0.0
H587 H 0.8853 0.49448 0.81712 0.0
O588 O 0.86653 0.51786 0.94648 0.0
O589 O 0.84228 0.4821 0.91059 0.0
O590 O 0.86595 0.51227 0.85944 0.0
O591 O 0.88167 0.49715 0.91387 0.0
H592 H 0.84429 0.50246 0.00101 0.0
H593 H 0.87217 0.54949 0.94005 0.0
H594 H 0.83088 0.51567 0.03825 0.0
H595 H 0.85807 0.56179 0.97797 0.0
H596 H 0.78654 0.44105 0.89837 0.0
H597 H 0.83827 0.4872 0.83912 0.0
H598 H 0.813 0.45661 0.9355 0.0
H599 H 0.81137 0.47115 0.80391 0.0
H600 H 0.79368 0.49528 0.93826 0.0
H601 H 0.81213 0.52162 0.83337 0.0
H602 H 0.88221 0.48604 0.06804 0.0
H603 H 0.82931 0.45096 0.04107 0.0
H604 H 0.87878 0.51449 0.79197 0.0
H605 H 0.87046 0.54251 0.87811 0.0
H606 H 0.89363 0.54109 0.75483 0.0
H607 H 0.88544 0.56868 0.8395 0.0
H608 H 0.91223 0.50016 0.91312 0.0
H609 H 0.85852 0.46469 0.92639 0.0
H610 H 0.91792 0.47624 0.92251 0.0
H611 H 0.86514 0.44145 0.93559 0.0
H612 H 0.93111 0.57252 0.94739 0.0
H613 H 0.9376 0.54965 0.84749 0.0
H614 H 0.84057 0.43375 0.81483 0.0
H615 H 0.88639 0.47589 0.76834 0.0
Li616 Li 0.34736 0.85551 0.07113 0.0
Li617 Li 0.37263 0.8682 0.10934 0.0
Li618 Li 0.36534 0.88528 0.06744 0.0
Li619 Li 0.37491 0.86703 0.03973 0.0
C620 C 0.33888 0.86609 0.1338 0.0
N621 N 0.31003 0.85363 0.17774 0.0
C622 C 0.33888 0.8601 0.16963 0.0
C623 C 0.32425 0.86584 0.1204 0.0
C624 C 0.32415 0.85382 0.19139 0.0
C625 C 0.30978 0.85946 0.14302 0.0
C626 C 0.35485 0.83118 0.08596 0.0
C627 C 0.33958 0.80146 0.06832 0.0
N628 N 0.33387 0.79716 0.10385 0.0
C629 C 0.34884 0.82644 0.12231 0.0
C630 C 0.35023 0.81858 0.05876 0.0
C631 C 0.33827 0.80918 0.13081 0.0
C632 C 0.319 0.83182 0.03106 0.0
N633 N 0.32457 0.83666 0.06648 0.0
C634 C 0.29955 0.81247 0.0906 0.0
C635 C 0.31512 0.82739 0.09608 0.0
C636 C 0.29374 0.80685 0.05428 0.0
C637 C 0.30355 0.8169 0.02427 0.0
H638 H 0.3269 0.83919 0.00796 0.0
H639 H 0.3199 0.83112 0.12399 0.0
C640 C 0.38817 0.88285 0.17667 0.0
N641 N 0.3835 0.86891 0.155 0.0
C642 C 0.39639 0.88454 0.21053 0.0
C643 C 0.39489 0.85749 0.1991 0.0
C644 C 0.38693 0.85646 0.16514 0.0
C645 C 0.3997 0.87166 0.22247 0.0
H646 H 0.38556 0.8927 0.16746 0.0
H647 H 0.38347 0.84571 0.14693 0.0
C648 C 0.35248 0.8793 0.00167 0.0
N649 N 0.34773 0.90092 0.95536 0.0
C650 C 0.36512 0.88954 0.97608 0.0
C651 C 0.33738 0.87993 0.00356 0.0
C652 C 0.36248 0.90041 0.95293 0.0
C653 C 0.33524 0.89098 0.97994 0.0
C654 C 0.40441 0.89069 0.07916 0.0
C655 C 0.4174 0.9077 0.08227 0.0
C656 C 0.40832 0.87761 0.08249 0.0
C657 C 0.43415 0.91136 0.08839 0.0
C658 C 0.42522 0.8818 0.08865 0.0
N659 N 0.43768 0.89845 0.09143 0.0
C660 C 0.35504 0.91004 0.07712 0.0
C661 C 0.38132 0.91958 0.04568 0.0
C662 C 0.35718 0.92642 0.07591 0.0
N663 N 0.36714 0.90701 0.06249 0.0
C664 C 0.38399 0.93615 0.0439 0.0
C665 C 0.37196 0.93981 0.05971 0.0
H666 H 0.34393 0.89985 0.09044 0.0
H667 H 0.39074 0.91678 0.03443 0.0
C668 C 0.37641 0.85026 0.9766 0.0
N669 N 0.38624 0.86405 0.99828 0.0
C670 C 0.38335 0.84678 0.94544 0.0
C671 C 0.41029 0.87217 0.95852 0.0
C672 C 0.40281 0.87516 0.98946 0.0
C673 C 0.40055 0.85772 0.93621 0.0
H674 H 0.36308 0.84208 0.98332 0.0
H675 H 0.41025 0.88642 0.00615 0.0
O676 O 0.35326 0.87246 0.11233 0.0
O677 O 0.36495 0.84806 0.07699 0.0
O678 O 0.35503 0.86895 0.02529 0.0
O679 O 0.38792 0.88694 0.07383 0.0
H680 H 0.3501 0.86025 0.18051 0.0
H681 H 0.32396 0.87025 0.0926 0.0
H682 H 0.32395 0.84909 0.21913 0.0
H683 H 0.29834 0.85908 0.13291 0.0
H684 H 0.33584 0.7916 0.04749 0.0
H685 H 0.35199 0.83601 0.14359 0.0
H686 H 0.35476 0.82194 0.03053 0.0
H687 H 0.33344 0.80537 0.15877 0.0
H688 H 0.29234 0.80522 0.1146 0.0
H689 H 0.29974 0.81294 0.9958 0.0
H690 H 0.40024 0.89593 0.22693 0.0
H691 H 0.39702 0.84716 0.20707 0.0
H692 H 0.37692 0.88924 0.97443 0.0
H693 H 0.32749 0.87206 0.02324 0.0
H694 H 0.37219 0.9085 0.93314 0.0
H695 H 0.32365 0.89168 0.98121 0.0
H696 H 0.41455 0.91795 0.08003 0.0
H697 H 0.39844 0.86437 0.08027 0.0
H698 H 0.44434 0.92447 0.0908 0.0
H699 H 0.42843 0.87182 0.09123 0.0
H700 H 0.3475 0.92864 0.08809 0.0
H701 H 0.3957 0.9461 0.03165 0.0
H702 H 0.37524 0.83576 0.92845 0.0
H703 H 0.4236 0.88097 0.9524 0.0
Li704 Li 0.49162 0.34705 0.22526 0.0
Li705 Li 0.50789 0.37221 0.26529 0.0
Li706 Li 0.48045 0.36507 0.24299 0.0
Li707 Li 0.50336 0.37589 0.20026 0.0
C708 C 0.47049 0.34223 0.294 0.0
N709 N 0.43875 0.32535 0.32751 0.0
C710 C 0.46671 0.34975 0.32372 0.0
C711 C 0.4581 0.32613 0.2813 0.0
C712 C 0.45059 0.34102 0.34027 0.0
C713 C 0.44214 0.31779 0.29864 0.0
C714 C 0.5261 0.35832 0.22913 0.0
C715 C 0.54889 0.35287 0.21374 0.0
N716 N 0.54624 0.34427 0.24633 0.0
C717 C 0.52359 0.34942 0.26248 0.0
C718 C 0.53883 0.36006 0.20453 0.0
C719 C 0.53391 0.34242 0.27066 0.0
C720 C 0.48493 0.32186 0.17401 0.0
N721 N 0.48724 0.3251 0.21106 0.0
C722 C 0.48367 0.29748 0.22261 0.0
C723 C 0.48677 0.31338 0.23545 0.0
C724 C 0.48096 0.2937 0.18445 0.0
C725 C 0.48168 0.30615 0.16005 0.0
H726 H 0.48572 0.33158 0.15528 0.0
H727 H 0.48875 0.31637 0.26479 0.0
C728 C 0.51834 0.3841 0.33857 0.0
N729 N 0.52407 0.38246 0.30475 0.0
C730 C 0.52988 0.39372 0.36653 0.0
C731 C 0.55305 0.39948 0.32462 0.0
C732 C 0.54106 0.38968 0.29756 0.0
C733 C 0.5475 0.40187 0.35941 0.0
H734 H 0.50482 0.37854 0.34336 0.0
H735 H 0.54536 0.38845 0.27031 0.0
C736 C 0.47126 0.35971 0.16807 0.0
N737 N 0.45258 0.36694 0.11794 0.0
C738 C 0.47163 0.37534 0.16968 0.0
C739 C 0.46133 0.34774 0.14103 0.0
C740 C 0.46211 0.37876 0.1441 0.0
C741 C 0.452 0.35164 0.11589 0.0
C742 C 0.51481 0.40427 0.24545 0.0
C743 C 0.51322 0.41749 0.26146 0.0
C744 C 0.53064 0.40767 0.23146 0.0
C745 C 0.52747 0.43387 0.26325 0.0
C746 C 0.54459 0.42422 0.23378 0.0
N747 N 0.54274 0.43687 0.2495 0.0
C748 C 0.4615 0.38003 0.26713 0.0
C749 C 0.4448 0.35282 0.23936 0.0
C750 C 0.44766 0.38279 0.26663 0.0
N751 N 0.45997 0.3655 0.2525 0.0
C752 C 0.43057 0.355 0.23853 0.0
C753 C 0.43207 0.37042 0.25104 0.0
H754 H 0.47375 0.3899 0.27711 0.0
H755 H 0.44402 0.34147 0.22749 0.0
C756 C 0.51806 0.38188 0.12937 0.0
N757 N 0.51231 0.38858 0.15566 0.0
C758 C 0.52364 0.38994 0.09496 0.0
C759 C 0.51734 0.41166 0.1155 0.0
C760 C 0.51193 0.40322 0.14949 0.0
C761 C 0.52317 0.40496 0.08758 0.0
H762 H 0.51799 0.37009 0.13495 0.0
H763 H 0.50715 0.40821 0.17072 0.0
O764 O 0.48609 0.35071 0.27689 0.0
O765 O 0.51607 0.36517 0.22022 0.0
O766 O 0.48026 0.35591 0.19318 0.0
O767 O 0.50093 0.3881 0.24409 0.0
H768 H 0.47596 0.36233 0.33349 0.0
H769 H 0.46065 0.3202 0.25797 0.0
H770 H 0.44747 0.34674 0.36315 0.0
H771 H 0.43243 0.30535 0.289 0.0
H772 H 0.5588 0.35412 0.19495 0.0
H773 H 0.51379 0.34792 0.28185 0.0
H774 H 0.5409 0.36689 0.17858 0.0
H775 H 0.53211 0.33549 0.29635 0.0
H776 H 0.48318 0.28818 0.2423 0.0
H777 H 0.48001 0.30389 0.13037 0.0
H778 H 0.52505 0.39542 0.39278 0.0
H779 H 0.56652 0.40545 0.31809 0.0
H780 H 0.47906 0.38469 0.19065 0.0
H781 H 0.46078 0.33552 0.13956 0.0
H782 H 0.46226 0.39079 0.14511 0.0
H783 H 0.44427 0.34249 0.09481 0.0
H784 H 0.50112 0.41515 0.27252 0.0
H785 H 0.53224 0.39771 0.21897 0.0
H786 H 0.5264 0.44421 0.27561 0.0
H787 H 0.5569 0.427 0.22311 0.0
H788 H 0.44957 0.39498 0.27614 0.0
H789 H 0.41874 0.34501 0.22678 0.0
H790 H 0.52787 0.38425 0.07405 0.0
H791 H 0.51698 0.42332 0.11114 0.0
Li792 Li 0.13451 0.50673 0.43732 0.0
Li793 Li 0.14746 0.4918 0.4056 0.0
Li794 Li 0.1341 0.50536 0.36967 0.0
Li795 Li 0.11648 0.47942 0.40537 0.0
C796 C 0.16196 0.53381 0.40036 0.0
N797 N 0.17723 0.56889 0.39494 0.0
C798 C 0.17965 0.54377 0.3964 0.0
C799 C 0.15202 0.54167 0.4015 0.0
C800 C 0.18714 0.5615 0.39372 0.0
C801 C 0.15998 0.55942 0.39874 0.0
C802 C 0.12956 0.46899 0.46456 0.0
C803 C 0.12567 0.44076 0.45701 0.0
N804 N 0.1249 0.43883 0.49459 0.0
C805 C 0.1287 0.46672 0.50309 0.0
C806 C 0.128 0.45591 0.44132 0.0
C807 C 0.12635 0.45139 0.51775 0.0
C808 C 0.1221 0.52191 0.48653 0.0
N809 N 0.13611 0.5207 0.47819 0.0
C810 C 0.15253 0.54159 0.52424 0.0
C811 C 0.15111 0.53004 0.49664 0.0
C812 C 0.13846 0.54363 0.53217 0.0
C813 C 0.12305 0.53349 0.51332 0.0
H814 H 0.11029 0.51411 0.4718 0.0
H815 H 0.16205 0.52884 0.48924 0.0
C816 C 0.17396 0.49338 0.36782 0.0
N817 N 0.16594 0.48777 0.40103 0.0
C818 C 0.18742 0.49084 0.35816 0.0
C819 C 0.18435 0.47693 0.41742 0.0
C820 C 0.17091 0.47983 0.42606 0.0
C821 C 0.19274 0.48246 0.383 0.0
H822 H 0.16965 0.4996 0.34854 0.0
H823 H 0.16442 0.47565 0.45248 0.0
C824 C 0.10202 0.50146 0.38557 0.0
N825 N 0.07606 0.5032 0.3489 0.0
C826 C 0.09207 0.48911 0.3592 0.0
C827 C 0.09868 0.51466 0.39342 0.0
C828 C 0.07903 0.49021 0.34094 0.0
C829 C 0.08554 0.51534 0.37453 0.0
C830 C 0.12747 0.47209 0.33363 0.0
C831 C 0.11728 0.47274 0.30518 0.0
C832 C 0.13358 0.46065 0.3309 0.0
C833 C 0.11305 0.46167 0.27491 0.0
C834 C 0.12905 0.44978 0.30019 0.0
N835 N 0.11894 0.45049 0.27309 0.0
C836 C 0.14662 0.51501 0.29822 0.0
C837 C 0.1301 0.52732 0.31743 0.0
C838 C 0.14965 0.52307 0.26376 0.0
N839 N 0.13687 0.51712 0.32406 0.0
C840 C 0.13276 0.53561 0.28325 0.0
C841 C 0.14267 0.53352 0.2559 0.0
H842 H 0.15204 0.507 0.30443 0.0
H843 H 0.12284 0.52926 0.33871 0.0
C844 C 0.08239 0.45958 0.42555 0.0
N845 N 0.09503 0.4589 0.40663 0.0
C846 C 0.06566 0.44602 0.4237 0.0
C847 C 0.07545 0.43081 0.38483 0.0
C848 C 0.09198 0.44474 0.38722 0.0
C849 C 0.06194 0.43151 0.40244 0.0
H850 H 0.0852 0.47104 0.44068 0.0
H851 H 0.10225 0.4444 0.37272 0.0
O852 O 0.15449 0.51644 0.40294 0.0
O853 O 0.13171 0.48389 0.44987 0.0
O854 O 0.11487 0.50063 0.40388 0.0
O855 O 0.13188 0.48289 0.36348 0.0
H856 H 0.18751 0.53786 0.39539 0.0
H857 H 0.13832 0.53416 0.40447 0.0
H858 H 0.20082 0.56938 0.39065 0.0
H859 H 0.15244 0.56567 0.39961 0.0
H860 H 0.12447 0.43055 0.4393 0.0
H861 H 0.12983 0.47672 0.52147 0.0
H862 H 0.12866 0.45748 0.41154 0.0
H863 H 0.12567 0.44946 0.54753 0.0
H864 H 0.16463 0.54926 0.53825 0.0
H865 H 0.1119 0.53463 0.51909 0.0
H866 H 0.19334 0.49508 0.33114 0.0
H867 H 0.18819 0.47055 0.43743 0.0
H868 H 0.09427 0.47869 0.35303 0.0
H869 H 0.10631 0.52445 0.41348 0.0
H870 H 0.07124 0.48071 0.32049 0.0
H871 H 0.0829 0.52555 0.38019 0.0
H872 H 0.11288 0.48185 0.30609 0.0
H873 H 0.14173 0.46013 0.35225 0.0
H874 H 0.10514 0.46203 0.25276 0.0
H875 H 0.1336 0.4408 0.29786 0.0
H876 H 0.15727 0.52102 0.24339 0.0
H877 H 0.12743 0.54383 0.27856 0.0
H878 H 0.05567 0.44729 0.43729 0.0
H879 H 0.07321 0.41978 0.36865 0.0
Li880 Li 0.6297 0.13652 0.60214 0.0
Li881 Li 0.65324 0.14688 0.55663 0.0
Li882 Li 0.62412 0.13082 0.53693 0.0
Li883 Li 0.63635 0.1168 0.56979 0.0
C884 C 0.6265 0.16052 0.5477 0.0
N885 N 0.60763 0.17391 0.51736 0.0
C886 C 0.63334 0.17258 0.51913 0.0
C887 C 0.61009 0.15534 0.56098 0.0
C888 C 0.62359 0.17917 0.50411 0.0
C889 C 0.60075 0.16225 0.54526 0.0
C890 C 0.66157 0.14615 0.63221 0.0
C891 C 0.68023 0.15245 0.68499 0.0
N892 N 0.68242 0.16845 0.68649 0.0
C893 C 0.66399 0.16265 0.63429 0.0
C894 C 0.66972 0.14098 0.65777 0.0
C895 C 0.67459 0.17374 0.66193 0.0
C896 C 0.61236 0.12827 0.67094 0.0
N897 N 0.62147 0.14118 0.64659 0.0
C898 C 0.61551 0.16009 0.68139 0.0
C899 C 0.6235 0.15698 0.65168 0.0
C900 C 0.60544 0.14683 0.70618 0.0
C901 C 0.60426 0.13085 0.70129 0.0
H902 H 0.6109 0.11581 0.666 0.0
H903 H 0.63081 0.16702 0.63186 0.0
C904 C 0.67477 0.16968 0.50492 0.0
N905 N 0.67499 0.16442 0.54019 0.0
C906 C 0.68987 0.18153 0.4876 0.0
C907 C 0.7053 0.18242 0.54324 0.0
C908 C 0.68985 0.17037 0.55941 0.0
C909 C 0.7054 0.18803 0.50677 0.0
H910 H 0.66283 0.1643 0.48992 0.0
H911 H 0.68987 0.16552 0.58682 0.0
C912 C 0.60114 0.09872 0.56762 0.0
N913 N 0.57609 0.06645 0.54619 0.0
C914 C 0.60158 0.09257 0.53221 0.0
C915 C 0.58796 0.08846 0.59212 0.0
C916 C 0.5888 0.07622 0.52191 0.0
C917 C 0.57541 0.07219 0.58077 0.0
C918 C 0.65616 0.12606 0.50581 0.0
C919 C 0.65697 0.12398 0.4675 0.0
C920 C 0.66876 0.12643 0.529 0.0
C921 C 0.67036 0.12225 0.45299 0.0
C922 C 0.68194 0.12467 0.5134 0.0
N923 N 0.68247 0.12263 0.47604 0.0
C924 C 0.61559 0.13365 0.46322 0.0
C925 C 0.59211 0.12221 0.50485 0.0
C926 C 0.60492 0.13186 0.43346 0.0
N927 N 0.60901 0.1287 0.49791 0.0
C928 C 0.58098 0.12019 0.47595 0.0
C929 C 0.58732 0.1249 0.4396 0.0
H930 H 0.62912 0.13884 0.45866 0.0
H931 H 0.58727 0.11853 0.53284 0.0
C932 C 0.63568 0.08896 0.60798 0.0
N933 N 0.63598 0.0956 0.57389 0.0
C934 C 0.63386 0.0727 0.61108 0.0
C935 C 0.63314 0.07073 0.544 0.0
C936 C 0.63478 0.08686 0.54222 0.0
C937 C 0.63247 0.06337 0.57873 0.0
H938 H 0.63644 0.09612 0.63272 0.0
H939 H 0.63453 0.09213 0.51546 0.0
O940 O 0.63568 0.15361 0.56223 0.0
O941 O 0.65111 0.13492 0.60576 0.0
O942 O 0.6136 0.11461 0.57864 0.0
O943 O 0.64323 0.12803 0.52017 0.0
H944 H 0.64604 0.17681 0.50864 0.0
H945 H 0.60449 0.14584 0.58271 0.0
H946 H 0.62871 0.18847 0.48191 0.0
H947 H 0.58799 0.15826 0.55509 0.0
H948 H 0.68663 0.14863 0.70494 0.0
H949 H 0.65793 0.16695 0.61462 0.0
H950 H 0.66793 0.12822 0.65658 0.0
H951 H 0.67661 0.18656 0.6638 0.0
H952 H 0.61687 0.17263 0.68447 0.0
H953 H 0.5965 0.12027 0.71966 0.0
H954 H 0.68939 0.18559 0.45951 0.0
H955 H 0.71706 0.18696 0.55868 0.0
H956 H 0.6117 0.10028 0.51289 0.0
H957 H 0.58745 0.09303 0.61965 0.0
H958 H 0.58901 0.0713 0.49461 0.0
H959 H 0.56513 0.0641 0.59946 0.0
H960 H 0.64736 0.12372 0.44918 0.0
H961 H 0.66842 0.12809 0.55868 0.0
H962 H 0.67114 0.12063 0.42338 0.0
H963 H 0.69177 0.12494 0.531 0.0
H964 H 0.61032 0.1355 0.40584 0.0
H965 H 0.56756 0.11504 0.48201 0.0
H966 H 0.63334 0.06741 0.63839 0.0
H967 H 0.63168 0.06381 0.51841 0.0
Li968 Li 0.50577 0.65524 0.72829 0.0
Li969 Li 0.4941 0.63305 0.77349 0.0
Li970 Li 0.51893 0.63683 0.73814 0.0
Li971 Li 0.48996 0.6251 0.71024 0.0
C972 C 0.5185 0.65932 0.80815 0.0
N973 N 0.51865 0.66975 0.88046 0.0
C974 C 0.51424 0.6719 0.81566 0.0
C975 C 0.52281 0.65202 0.83744 0.0
C976 C 0.51443 0.67703 0.85239 0.0
C977 C 0.52279 0.65745 0.8738 0.0
C978 C 0.46899 0.63955 0.75483 0.0
C979 C 0.44173 0.62595 0.78604 0.0
N980 N 0.44364 0.64156 0.7935 0.0
C981 C 0.47065 0.65546 0.76267 0.0
C982 C 0.45437 0.62466 0.76644 0.0
C983 C 0.4577 0.6562 0.78229 0.0
C984 C 0.50024 0.67637 0.68216 0.0
N985 N 0.51059 0.67689 0.71011 0.0
C986 C 0.52799 0.70715 0.70404 0.0
C987 C 0.52429 0.69182 0.72133 0.0
C988 C 0.51773 0.70686 0.67444 0.0
C989 C 0.50368 0.69127 0.66362 0.0
H990 H 0.48958 0.66424 0.67363 0.0
H991 H 0.53253 0.69178 0.74307 0.0
C992 C 0.48251 0.61153 0.83603 0.0
N993 N 0.48371 0.62604 0.82196 0.0
C994 C 0.47466 0.60512 0.8703 0.0
C995 C 0.46963 0.62886 0.87558 0.0
C996 C 0.47779 0.63492 0.84141 0.0
C997 C 0.46783 0.61366 0.89042 0.0
H998 H 0.48767 0.60488 0.82062 0.0
H999 H 0.4792 0.64664 0.83033 0.0
C1000 C 0.52091 0.65449 0.66419 0.0
N1001 N 0.53839 0.67924 0.61106 0.0
C1002 C 0.51302 0.65411 0.63052 0.0
C1003 C 0.5377 0.66737 0.6708 0.0
C1004 C 0.52208 0.66676 0.60401 0.0
C1005 C 0.54632 0.67979 0.64359 0.0
C1006 C 0.4897 0.59883 0.73904 0.0
C1007 C 0.49866 0.59256 0.71907 0.0
C1008 C 0.47229 0.58821 0.74604 0.0
C1009 C 0.48998 0.57575 0.70607 0.0
C1010 C 0.46407 0.57149 0.73254 0.0
N1011 N 0.473 0.56566 0.71298 0.0
C1012 C 0.54747 0.63508 0.76621 0.0
C1013 C 0.54395 0.63314 0.70075 0.0
C1014 C 0.5613 0.63229 0.76344 0.0
N1015 N 0.53904 0.63527 0.73512 0.0
C1016 C 0.55773 0.6304 0.69666 0.0
C1017 C 0.56644 0.62969 0.72832 0.0
H1018 H 0.54321 0.63665 0.7932 0.0
H1019 H 0.53681 0.63302 0.67654 0.0
C1020 C 0.45864 0.60481 0.67328 0.0
N1021 N 0.47556 0.61002 0.67288 0.0
C1022 C 0.44792 0.59394 0.64562 0.0
C1023 C 0.47231 0.59416 0.61739 0.0
C1024 C 0.48255 0.605 0.64571 0.0
C1025 C 0.45474 0.5885 0.61714 0.0
H1026 H 0.45349 0.60922 0.69487 0.0
H1027 H 0.4961 0.60947 0.64606 0.0
O1028 O 0.51815 0.65397 0.7724 0.0
O1029 O 0.48145 0.63858 0.73529 0.0
O1030 O 0.51207 0.64256 0.69097 0.0
O1031 O 0.49784 0.61539 0.75105 0.0
H1032 H 0.51059 0.67748 0.79346 0.0
H1033 H 0.52582 0.64205 0.83226 0.0
H1034 H 0.51111 0.68671 0.8586 0.0
H1035 H 0.52599 0.65183 0.89675 0.0
H1036 H 0.43041 0.61454 0.79543 0.0
H1037 H 0.48185 0.66711 0.75395 0.0
H1038 H 0.45292 0.61225 0.76089 0.0
H1039 H 0.45885 0.66842 0.78867 0.0
H1040 H 0.53898 0.719 0.71289 0.0
H1041 H 0.49546 0.69063 0.64102 0.0
H1042 H 0.47404 0.59363 0.88094 0.0
H1043 H 0.46451 0.63588 0.88977 0.0
H1044 H 0.49998 0.64425 0.62513 0.0
H1045 H 0.54392 0.66789 0.69688 0.0
H1046 H 0.51612 0.6667 0.5779 0.0
H1047 H 0.55929 0.6899 0.6484 0.0
H1048 H 0.51213 0.60063 0.71337 0.0
H1049 H 0.46518 0.5929 0.76141 0.0
H1050 H 0.49672 0.57075 0.6904 0.0
H1051 H 0.45057 0.56316 0.73752 0.0
H1052 H 0.56773 0.63192 0.78852 0.0
H1053 H 0.56106 0.62814 0.66914 0.0
H1054 H 0.4345 0.59012 0.64611 0.0
H1055 H 0.47804 0.59017 0.59611 0.0
H1056 H 0.55862 0.14555 0.24538 0.0
H1057 H 0.51195 0.09662 0.25492 0.0
H1058 H 0.52161 0.09181 0.31555 0.0
H1059 H 0.58639 0.13253 0.28524 0.0
H1060 H 0.59941 0.15234 0.30951 0.0
H1061 H 0.58868 0.15217 0.26722 0.0
H1062 H 0.57407 0.16667 0.30152 0.0
H1063 H 0.58479 0.16691 0.34392 0.0
H1064 H 0.56185 0.15698 0.34306 0.0
H1065 H 0.53644 0.09205 0.37439 0.0
H1066 H 0.55572 0.09714 0.42739 0.0
H1067 H 0.5925 0.1462 0.38036 0.0
C1068 C 0.55036 0.13391 0.26041 0.0
C1069 C 0.53456 0.12142 0.24537 0.0
C1070 C 0.52422 0.10625 0.26566 0.0
C1071 C 0.52953 0.10345 0.30022 0.0
C1072 C 0.54521 0.11596 0.31414 0.0
C1073 C 0.55548 0.13089 0.29493 0.0
C1074 C 0.5719 0.14212 0.31583 0.0
C1075 C 0.58752 0.14495 0.29309 0.0
C1076 C 0.57322 0.15918 0.32673 0.0
C1077 C 0.56928 0.13109 0.34965 0.0
C1078 C 0.55377 0.1161 0.34819 0.0
C1079 C 0.54858 0.10379 0.376 0.0
C1080 C 0.55958 0.10685 0.4061 0.0
C1081 C 0.57559 0.1221 0.40813 0.0
C1082 C 0.58041 0.13437 0.37948 0.0
H1083 H 0.42744 0.55781 0.40755 0.0
H1084 H 0.37895 0.51799 0.451 0.0
H1085 H 0.38876 0.52812 0.51481 0.0
H1086 H 0.45368 0.55577 0.48108 0.0
H1087 H 0.46814 0.5785 0.48163 0.0
H1088 H 0.45734 0.56811 0.43923 0.0
H1089 H 0.44517 0.5886 0.43397 0.0
H1090 H 0.45595 0.59906 0.4763 0.0
H1091 H 0.43321 0.59027 0.47225 0.0
H1092 H 0.40366 0.5426 0.57373 0.0
H1093 H 0.4227 0.56071 0.62401 0.0
H1094 H 0.46153 0.59097 0.5423 0.0
C1095 C 0.41895 0.55112 0.43049 0.0
C1096 C 0.4024 0.53715 0.42426 0.0
C1097 C 0.39159 0.52889 0.45505 0.0
C1098 C 0.39708 0.53446 0.49142 0.0
C1099 C 0.41344 0.54828 0.49656 0.0
C1100 C 0.42423 0.55651 0.467 0.0
C1101 C 0.44112 0.57117 0.48019 0.0
C1102 C 0.45594 0.5682 0.46993 0.0
C1103 C 0.44402 0.58829 0.46476 0.0
C1104 C 0.4381 0.56992 0.52177 0.0
C1105 C 0.42206 0.55661 0.53062 0.0
C1106 C 0.41626 0.55306 0.56719 0.0
C1107 C 0.42712 0.56346 0.5955 0.0
C1108 C 0.44358 0.57724 0.58707 0.0
C1109 C 0.44911 0.5804 0.54967 0.0
H1110 H 0.86975 0.4598 0.71287 0.0
H1111 H 0.85774 0.42078 0.79646 0.0
H1112 H 0.8576 0.40137 0.74794 0.0
H1113 H 0.84352 0.43192 0.64127 0.0
H1114 H 0.85824 0.44355 0.60426 0.0
H1115 H 0.85796 0.45455 0.64575 0.0
H1116 H 0.89025 0.46575 0.65535 0.0
H1117 H 0.89063 0.45478 0.61386 0.0
H1118 H 0.89789 0.45078 0.65737 0.0
H1119 H 0.85845 0.38615 0.69032 0.0
H1120 H 0.85971 0.37594 0.62745 0.0
H1121 H 0.87065 0.42477 0.58136 0.0
C1122 C 0.8673 0.44725 0.72104 0.0
C1123 C 0.86376 0.44179 0.75843 0.0
C1124 C 0.86032 0.42516 0.76791 0.0
C1125 C 0.86031 0.41409 0.74061 0.0
C1126 C 0.86377 0.41985 0.70399 0.0
C1127 C 0.86719 0.43603 0.69415 0.0
C1128 C 0.87007 0.43893 0.65267 0.0
C1129 C 0.85664 0.44244 0.63496 0.0
C1130 C 0.88829 0.45342 0.64433 0.0
C1131 C 0.8676 0.4218 0.64068 0.0
C1132 C 0.86408 0.41102 0.67072 0.0
C1133 C 0.86117 0.39447 0.66656 0.0
C1134 C 0.86179 0.38875 0.63069 0.0
C1135 C 0.86519 0.39951 0.59937 0.0
C1136 C 0.86822 0.41629 0.60468 0.0
H1137 H 0.45882 0.8802 0.75472 0.0
H1138 H 0.44132 0.82609 0.74427 0.0
H1139 H 0.42377 0.82038 0.8008 0.0
H1140 H 0.46159 0.88229 0.8539 0.0
H1141 H 0.45404 0.89727 0.85807 0.0
H1142 H 0.4652 0.89711 0.81674 0.0
H1143 H 0.43971 0.89294 0.77618 0.0
H1144 H 0.42849 0.89316 0.81738 0.0
H1145 H 0.41865 0.87533 0.78577 0.0
H1146 H 0.4082 0.82059 0.85849 0.0
H1147 H 0.3957 0.8267 0.91332 0.0
H1148 H 0.42279 0.88058 0.88494 0.0
C1149 C 0.45117 0.86712 0.76409 0.0
C1150 C 0.45147 0.85359 0.7451 0.0
C1151 C 0.44147 0.83669 0.75864 0.0
C1152 C 0.43139 0.83331 0.79059 0.0
C1153 C 0.43144 0.84696 0.80865 0.0
C1154 C 0.44104 0.86352 0.79588 0.0
C1155 C 0.43887 0.8759 0.82047 0.0
C1156 C 0.45594 0.88891 0.83835 0.0
C1157 C 0.43096 0.88485 0.79864 0.0
C1158 C 0.42656 0.8637 0.84912 0.0
C1159 C 0.42242 0.84707 0.84179 0.0
C1160 C 0.41129 0.83356 0.86444 0.0
C1161 C 0.40419 0.83715 0.89539 0.0
C1162 C 0.40822 0.85411 0.90342 0.0
C1163 C 0.41959 0.86751 0.87985 0.0
H1164 H 0.55091 0.41049 0.04598 0.0
H1165 H 0.50759 0.41876 0.04634 0.0
H1166 H 0.51689 0.43358 0.98591 0.0
H1167 H 0.58079 0.45043 0.00714 0.0
H1168 H 0.59153 0.44206 0.97935 0.0
H1169 H 0.58109 0.43153 0.02189 0.0
H1170 H 0.56308 0.40319 0.98595 0.0
H1171 H 0.5735 0.41363 0.94327 0.0
H1172 H 0.55055 0.40273 0.94653 0.0
H1173 H 0.53141 0.44824 0.92639 0.0
H1174 H 0.5504 0.46214 0.8727 0.0
H1175 H 0.58372 0.44352 0.91061 0.0
C1176 C 0.54325 0.41521 0.03312 0.0
C1177 C 0.52854 0.4135 0.05088 0.0
C1178 C 0.51902 0.42012 0.03344 0.0
C1179 C 0.52413 0.42845 0.99901 0.0
C1180 C 0.53874 0.42999 0.98237 0.0
C1181 C 0.54816 0.42355 0.99881 0.0
C1182 C 0.56363 0.42733 0.97565 0.0
C1183 C 0.58024 0.4385 0.9973 0.0
C1184 C 0.56262 0.41073 0.96204 0.0
C1185 C 0.56155 0.43708 0.94382 0.0
C1186 C 0.54707 0.43839 0.94808 0.0
C1187 C 0.54271 0.44718 0.92258 0.0
C1188 C 0.55352 0.45494 0.89207 0.0
C1189 C 0.56854 0.4539 0.8874 0.0
C1190 C 0.57244 0.44469 0.91355 0.0
H1191 H 0.1199 0.53722 0.21195 0.0
H1192 H 0.17294 0.55003 0.2181 0.0
H1193 H 0.1786 0.56507 0.15797 0.0
H1194 H 0.11511 0.53043 0.11219 0.0
H1195 H 0.10171 0.53981 0.10727 0.0
H1196 H 0.10162 0.52945 0.15014 0.0
H1197 H 0.10913 0.55701 0.18678 0.0
H1198 H 0.10917 0.56742 0.14409 0.0
H1199 H 0.12772 0.57685 0.17372 0.0
H1200 H 0.17887 0.57987 0.09905 0.0
H1201 H 0.17366 0.59342 0.0448 0.0
H1202 H 0.12045 0.57088 0.07663 0.0
C1203 C 0.13271 0.54322 0.20066 0.0
C1204 C 0.14597 0.54241 0.21962 0.0
C1205 C 0.16253 0.55029 0.20379 0.0
C1206 C 0.16589 0.5589 0.16973 0.0
C1207 C 0.15253 0.55946 0.15179 0.0
C1208 C 0.13627 0.55181 0.16662 0.0
C1209 C 0.12428 0.55461 0.14207 0.0
C1210 C 0.10983 0.53756 0.12703 0.0
C1211 C 0.11716 0.56457 0.16291 0.0
C1212 C 0.13642 0.56524 0.11137 0.0
C1213 C 0.15264 0.56785 0.1175 0.0
C1214 C 0.1662 0.57782 0.09379 0.0
C1215 C 0.16314 0.58549 0.06318 0.0
C1216 C 0.14665 0.5831 0.05654 0.0
C1217 C 0.1331 0.57267 0.08074 0.0
H1218 H 0.49756 0.27623 0.20226 0.0
H1219 H 0.45707 0.27366 0.13296 0.0
H1220 H 0.45278 0.24685 0.10505 0.0
H1221 H 0.5154 0.26151 0.13443 0.0
H1222 H 0.52041 0.24928 0.16637 0.0
H1223 H 0.51962 0.26769 0.18264 0.0
H1224 H 0.49736 0.24916 0.23263 0.0
H1225 H 0.49815 0.23069 0.21662 0.0
H1226 H 0.47802 0.23024 0.21865 0.0
H1227 H 0.45379 0.22116 0.08264 0.0
H1228 H 0.45971 0.19795 0.06794 0.0
H1229 H 0.49965 0.21732 0.15158 0.0
C1230 C 0.48758 0.26984 0.18171 0.0
C1231 C 0.47764 0.277 0.16975 0.0
C1232 C 0.46493 0.26846 0.14226 0.0
C1233 C 0.46234 0.2532 0.1264 0.0
C1234 C 0.47255 0.24663 0.13838 0.0
C1235 C 0.48486 0.25462 0.1655 0.0
C1236 C 0.49453 0.24521 0.17236 0.0
C1237 C 0.51362 0.2566 0.1634 0.0
C1238 C 0.49185 0.23842 0.21245 0.0
C1239 C 0.48583 0.23079 0.14459 0.0
C1240 C 0.47315 0.23181 0.12537 0.0
C1241 C 0.46364 0.22018 0.09761 0.0
C1242 C 0.46718 0.20712 0.08927 0.0
C1243 C 0.48014 0.20583 0.10859 0.0
C1244 C 0.48951 0.21782 0.13669 0.0
H1245 H 0.27996 0.50469 0.2832 0.0
H1246 H 0.26849 0.45293 0.30628 0.0
H1247 H 0.2419 0.44717 0.33824 0.0
H1248 H 0.26509 0.51182 0.36992 0.0
H1249 H 0.2564 0.52406 0.34955 0.0
H1250 H 0.27432 0.52393 0.32803 0.0
H1251 H 0.25758 0.5137 0.26601 0.0
H1252 H 0.23966 0.51392 0.28726 0.0
H1253 H 0.23683 0.49469 0.26561 0.0
H1254 H 0.21677 0.44743 0.36892 0.0
H1255 H 0.19427 0.45311 0.3919 0.0
H1256 H 0.22284 0.50483 0.3493 0.0
C1257 C 0.27186 0.49215 0.29502 0.0
C1258 C 0.27624 0.47924 0.29224 0.0
C1259 C 0.26523 0.46293 0.30768 0.0
C1260 C 0.2502 0.45959 0.32614 0.0
C1261 C 0.24638 0.4727 0.3288 0.0
C1262 C 0.25685 0.4886 0.3134 0.0
C1263 C 0.24982 0.50046 0.31964 0.0
C1264 C 0.26214 0.51598 0.34319 0.0
C1265 C 0.24573 0.50601 0.28242 0.0
C1266 C 0.23375 0.48875 0.34097 0.0
C1267 C 0.23199 0.47282 0.3462 0.0
C1268 C 0.21803 0.45987 0.36501 0.0
C1269 C 0.20538 0.46324 0.37819 0.0
C1270 C 0.2068 0.47938 0.37228 0.0
C1271 C 0.22131 0.49231 0.35389 0.0
H1272 H 0.73119 0.21775 0.53595 0.0
H1273 H 0.71583 0.18664 0.43616 0.0
H1274 H 0.74182 0.20841 0.40409 0.0
H1275 H 0.74695 0.25727 0.49077 0.0
H1276 H 0.76456 0.26893 0.52221 0.0
H1277 H 0.74553 0.25029 0.53826 0.0
H1278 H 0.76353 0.23675 0.55931 0.0
H1279 H 0.78266 0.25539 0.54338 0.0
H1280 H 0.77734 0.23457 0.52632 0.0
H1281 H 0.76847 0.23428 0.38179 0.0
H1282 H 0.794 0.26251 0.37086 0.0
H1283 H 0.79173 0.27676 0.48509 0.0
C1284 C 0.73349 0.21539 0.5076 0.0
C1285 C 0.72155 0.20054 0.4885 0.0
C1286 C 0.72478 0.19802 0.45115 0.0
C1287 C 0.73954 0.21025 0.43281 0.0
C1288 C 0.75092 0.22489 0.45223 0.0
C1289 C 0.74811 0.22749 0.48882 0.0
C1290 C 0.76187 0.24474 0.50271 0.0
C1291 C 0.75427 0.25596 0.51414 0.0
C1292 C 0.77195 0.24273 0.53483 0.0
C1293 C 0.77272 0.25151 0.46806 0.0
C1294 C 0.76626 0.23983 0.43932 0.0
C1295 C 0.77373 0.24349 0.40415 0.0
C1296 C 0.78814 0.25957 0.39815 0.0
C1297 C 0.79488 0.27178 0.42716 0.0
C1298 C 0.78709 0.26757 0.46258 0.0
H1299 H 0.5213 0.79582 0.65092 0.0
H1300 H 0.5259 0.79105 0.53204 0.0
H1301 H 0.52838 0.76535 0.54272 0.0
H1302 H 0.55082 0.78085 0.67953 0.0
H1303 H 0.53809 0.76974 0.71954 0.0
H1304 H 0.53836 0.78865 0.70265 0.0
H1305 H 0.50538 0.77174 0.69695 0.0
H1306 H 0.505 0.75282 0.71372 0.0
H1307 H 0.49531 0.75244 0.66968 0.0
H1308 H 0.52686 0.73842 0.56586 0.0
H1309 H 0.52295 0.71296 0.60015 0.0
H1310 H 0.52035 0.73585 0.70401 0.0
C1311 C 0.52301 0.78946 0.62718 0.0
C1312 C 0.52338 0.79536 0.59064 0.0
C1313 C 0.52574 0.7868 0.56026 0.0
C1314 C 0.52712 0.77219 0.56607 0.0
C1315 C 0.52635 0.7665 0.60243 0.0
C1316 C 0.52455 0.77499 0.63251 0.0
C1317 C 0.52331 0.76584 0.66864 0.0
C1318 C 0.53856 0.77694 0.69409 0.0
C1319 C 0.50624 0.76039 0.68839 0.0
C1320 C 0.52415 0.75058 0.65413 0.0
C1321 C 0.52597 0.75123 0.61586 0.0
C1322 C 0.52575 0.73792 0.59586 0.0
C1323 C 0.52347 0.72353 0.61546 0.0
C1324 C 0.52156 0.72265 0.65458 0.0
C1325 C 0.52216 0.73644 0.67415 0.0
H1326 H 0.72925 0.52593 0.79895 0.0
H1327 H 0.6922 0.47356 0.82769 0.0
H1328 H 0.71506 0.46996 0.85567 0.0
H1329 H 0.76295 0.5178 0.77344 0.0
H1330 H 0.77971 0.53756 0.7924 0.0
H1331 H 0.76035 0.53629 0.77561 0.0
H1332 H 0.7559 0.5467 0.83957 0.0
H1333 H 0.77524 0.54797 0.85659 0.0
H1334 H 0.75542 0.53531 0.88111 0.0
H1335 H 0.74168 0.47166 0.87908 0.0
H1336 H 0.77076 0.4784 0.89591 0.0
H1337 H 0.79089 0.5297 0.85223 0.0
C1338 C 0.72597 0.51368 0.81095 0.0
C1339 C 0.7089 0.50006 0.81136 0.0
C1340 C 0.70512 0.48427 0.82764 0.0
C1341 C 0.71802 0.48207 0.84343 0.0
C1342 C 0.73466 0.49575 0.8427 0.0
C1343 C 0.73871 0.51124 0.82686 0.0
C1344 C 0.75771 0.52377 0.82934 0.0
C1345 C 0.76564 0.52917 0.79038 0.0
C1346 C 0.76127 0.53936 0.85307 0.0
C1347 C 0.76368 0.51282 0.84876 0.0
C1348 C 0.75014 0.49674 0.85632 0.0
C1349 C 0.75239 0.48425 0.87362 0.0
C1350 C 0.76896 0.48826 0.88333 0.0
C1351 C 0.7831 0.50465 0.87582 0.0
C1352 C 0.78035 0.51707 0.85831 0.0
H1353 H 0.20933 0.73837 0.94758 0.0
H1354 H 0.20691 0.70074 0.02606 0.0
H1355 H 0.23228 0.72309 0.05832 0.0
H1356 H 0.25501 0.76216 0.94027 0.0
H1357 H 0.25627 0.78265 0.93729 0.0
H1358 H 0.23752 0.76379 0.92083 0.0
H1359 H 0.21862 0.77034 0.96425 0.0
H1360 H 0.23732 0.78921 0.98087 0.0
H1361 H 0.2232 0.77317 0.01337 0.0
H1362 H 0.25821 0.749 0.08095 0.0
H1363 H 0.28343 0.77715 0.09267 0.0
H1364 H 0.26906 0.7984 0.00045 0.0
C1365 C 0.21417 0.73487 0.97153 0.0
C1366 C 0.20602 0.71785 0.98457 0.0
C1367 C 0.21271 0.71375 0.01605 0.0
C1368 C 0.22718 0.72633 0.03445 0.0
C1369 C 0.23484 0.74296 0.02104 0.0
C1370 C 0.22861 0.7473 0.99036 0.0
C1371 C 0.23947 0.76615 0.98153 0.0
C1372 C 0.24754 0.76884 0.94268 0.0
C1373 C 0.22903 0.77525 0.98524 0.0
C1374 C 0.25282 0.77163 0.01188 0.0
C1375 C 0.24985 0.75805 0.03436 0.0
C1376 C 0.26059 0.7598 0.0638 0.0
C1377 C 0.27482 0.7759 0.07041 0.0
C1378 C 0.27817 0.79007 0.04776 0.0
C1379 C 0.26692 0.78783 0.01819 0.0
H1380 H 0.6018 0.1373 0.77977 0.0
H1381 H 0.58578 0.16161 0.69774 0.0
H1382 H 0.56757 0.16464 0.74475 0.0
H1383 H 0.56165 0.1134 0.82516 0.0
H1384 H 0.57052 0.11622 0.87123 0.0
H1385 H 0.58279 0.11649 0.83153 0.0
H1386 H 0.60744 0.14625 0.85114 0.0
H1387 H 0.59525 0.14606 0.89095 0.0
H1388 H 0.60316 0.16349 0.85829 0.0
H1389 H 0.54978 0.16339 0.79917 0.0
H1390 H 0.53471 0.1594 0.85896 0.0
H1391 H 0.56292 0.13683 0.90648 0.0
C1392 C 0.5945 0.14332 0.77183 0.0
C1393 C 0.59524 0.1493 0.7352 0.0
C1394 C 0.58557 0.15717 0.7258 0.0
C1395 C 0.57514 0.15886 0.75224 0.0
C1396 C 0.57462 0.15276 0.78803 0.0
C1397 C 0.58415 0.14529 0.79801 0.0
C1398 C 0.58119 0.13973 0.83837 0.0
C1399 C 0.57358 0.12031 0.84175 0.0
C1400 C 0.59775 0.14947 0.86102 0.0
C1401 C 0.56832 0.14503 0.84932 0.0
C1402 C 0.56468 0.15247 0.8198 0.0
C1403 C 0.55265 0.15775 0.82261 0.0
C1404 C 0.54412 0.15538 0.85653 0.0
C1405 C 0.54777 0.14793 0.8872 0.0
C1406 C 0.56011 0.1428 0.88355 0.0
H1407 H 0.44729 0.57989 0.91002 0.0
H1408 H 0.46782 0.63146 0.9526 0.0
H1409 H 0.45229 0.6198 0.01142 0.0
H1410 H 0.40611 0.56162 0.95231 0.0
H1411 H 0.40496 0.54158 0.96291 0.0
H1412 H 0.41724 0.55398 0.9236 0.0
H1413 H 0.44402 0.55409 0.94957 0.0
H1414 H 0.43181 0.54164 0.9889 0.0
H1415 H 0.45115 0.56172 0.99613 0.0
H1416 H 0.43428 0.60251 0.06552 0.0
H1417 H 0.41634 0.58079 0.11214 0.0
H1418 H 0.40899 0.54061 0.03557 0.0
C1419 C 0.44874 0.5888 0.93176 0.0
C1420 C 0.45877 0.60666 0.92635 0.0
C1421 C 0.45998 0.61776 0.95557 0.0
C1422 C 0.45129 0.61125 0.98925 0.0
C1423 C 0.44154 0.59361 0.99351 0.0
C1424 C 0.44033 0.58254 0.96568 0.0
C1425 C 0.42932 0.5641 0.97759 0.0
C1426 C 0.41347 0.55478 0.95261 0.0
C1427 C 0.4397 0.55485 0.97808 0.0
C1428 C 0.42453 0.56653 0.01652 0.0
C1429 C 0.43159 0.58365 0.02505 0.0
C1430 C 0.42873 0.58908 0.05919 0.0
C1431 C 0.41847 0.57667 0.08539 0.0
C1432 C 0.41132 0.55906 0.07742 0.0
C1433 C 0.41443 0.55399 0.0425 0.0
H1434 H 0.87726 0.45914 0.09528 0.0
H1435 H 0.82794 0.45594 0.10649 0.0
H1436 H 0.82298 0.44004 0.1652 0.0
H1437 H 0.8648 0.41788 0.12938 0.0
H1438 H 0.8844 0.42418 0.15407 0.0
H1439 H 0.88448 0.43595 0.11363 0.0
H1440 H 0.89816 0.46394 0.15206 0.0
H1441 H 0.89824 0.45227 0.1926 0.0
H1442 H 0.88795 0.46494 0.1943 0.0
H1443 H 0.82268 0.42322 0.22071 0.0
H1444 H 0.82738 0.40727 0.27037 0.0
H1445 H 0.87758 0.42273 0.225 0.0
C1446 C 0.86554 0.45535 0.11039 0.0
C1447 C 0.85295 0.45872 0.09616 0.0
C1448 C 0.83766 0.45328 0.11652 0.0
C1449 C 0.83476 0.44433 0.15002 0.0
C1450 C 0.84732 0.44102 0.16295 0.0
C1451 C 0.86246 0.44645 0.14395 0.0
C1452 C 0.8737 0.44089 0.16356 0.0
C1453 C 0.87703 0.42902 0.13867 0.0
C1454 C 0.8905 0.45644 0.1764 0.0
C1455 C 0.86242 0.43133 0.1963 0.0
C1456 C 0.84728 0.43157 0.19543 0.0
C1457 C 0.83458 0.42312 0.222 0.0
C1458 C 0.83744 0.41418 0.25028 0.0
C1459 C 0.85291 0.4138 0.25193 0.0
C1460 C 0.86555 0.4226 0.22451 0.0
H1461 H 0.46036 0.86026 0.36813 0.0
H1462 H 0.447 0.88758 0.44803 0.0
H1463 H 0.42806 0.88983 0.4016 0.0
H1464 H 0.46192 0.88524 0.28879 0.0
H1465 H 0.45321 0.86744 0.25704 0.0
H1466 H 0.46521 0.86743 0.29697 0.0
H1467 H 0.43972 0.83843 0.31797 0.0
H1468 H 0.42762 0.83839 0.27813 0.0
H1469 H 0.41902 0.83645 0.32425 0.0
H1470 H 0.41021 0.88856 0.34729 0.0
H1471 H 0.39582 0.88545 0.28737 0.0
H1472 H 0.42241 0.86078 0.241 0.0
C1473 C 0.45335 0.86661 0.37579 0.0
C1474 C 0.45505 0.87372 0.41156 0.0
C1475 C 0.44589 0.88215 0.42062 0.0
C1476 C 0.43507 0.88342 0.39454 0.0
C1477 C 0.4337 0.87633 0.35945 0.0
C1478 C 0.44268 0.86822 0.34987 0.0
C1479 C 0.43936 0.86227 0.30979 0.0
C1480 C 0.45591 0.87113 0.28679 0.0
C1481 C 0.43093 0.84272 0.30741 0.0
C1482 C 0.42708 0.86824 0.29843 0.0
C1483 C 0.42388 0.87619 0.32759 0.0
C1484 C 0.41275 0.88253 0.32408 0.0
C1485 C 0.40474 0.88082 0.28974 0.0
C1486 C 0.40805 0.87303 0.25905 0.0
C1487 C 0.41938 0.86664 0.26377 0.0
H1488 H 0.58313 0.4369 0.56281 0.0
H1489 H 0.62014 0.48452 0.511 0.0
H1490 H 0.60967 0.47179 0.4489 0.0
H1491 H 0.58489 0.40828 0.49351 0.0
H1492 H 0.5623 0.39336 0.49604 0.0
H1493 H 0.57346 0.40588 0.53622 0.0
H1494 H 0.55232 0.4173 0.54024 0.0
H1495 H 0.54111 0.40484 0.5001 0.0
H1496 H 0.54935 0.42757 0.50028 0.0
H1497 H 0.5946 0.45417 0.39278 0.0
H1498 H 0.57508 0.43344 0.3465 0.0
H1499 H 0.54765 0.39736 0.435 0.0
C1500 C 0.58919 0.44454 0.53835 0.0
C1501 C 0.6025 0.46165 0.54157 0.0
C1502 C 0.60988 0.4714 0.50903 0.0
C1503 C 0.60408 0.46426 0.47372 0.0
C1504 C 0.59086 0.44737 0.4715 0.0
C1505 C 0.58346 0.43766 0.50293 0.0
C1506 C 0.56884 0.42013 0.49294 0.0
C1507 C 0.5726 0.40609 0.50542 0.0
C1508 C 0.5519 0.4173 0.50936 0.0
C1509 C 0.56906 0.42158 0.45099 0.0
C1510 C 0.58198 0.43732 0.43916 0.0
C1511 C 0.58451 0.44176 0.40167 0.0
C1512 C 0.57343 0.42986 0.37559 0.0
C1513 C 0.5599 0.41375 0.38713 0.0
C1514 C 0.55783 0.40958 0.42535 0.0
H1515 H 0.14845 0.54737 0.60511 0.0
H1516 H 0.13143 0.56906 0.5192 0.0
H1517 H 0.13298 0.59063 0.56379 0.0
H1518 H 0.12403 0.55139 0.67787 0.0
H1519 H 0.13992 0.55639 0.71336 0.0
H1520 H 0.13885 0.54361 0.67397 0.0
H1521 H 0.17062 0.56489 0.65911 0.0
H1522 H 0.17177 0.57777 0.69845 0.0
H1523 H 0.17752 0.58719 0.6528 0.0
H1524 H 0.13583 0.60935 0.61771 0.0
H1525 H 0.13799 0.62297 0.67836 0.0
H1526 H 0.15136 0.58788 0.7304 0.0
C1527 C 0.14529 0.55683 0.59572 0.0
C1528 C 0.13994 0.55672 0.55882 0.0
C1529 C 0.13555 0.56902 0.54746 0.0
C1530 C 0.13647 0.58132 0.57249 0.0
C1531 C 0.14166 0.58104 0.60882 0.0
C1532 C 0.14588 0.56905 0.62054 0.0
C1533 C 0.14997 0.57088 0.66171 0.0
C1534 C 0.13744 0.5546 0.68297 0.0
C1535 C 0.16858 0.57546 0.66839 0.0
C1536 C 0.14729 0.58568 0.6713 0.0
C1537 C 0.1427 0.59147 0.6403 0.0
C1538 C 0.13935 0.60489 0.64224 0.0
C1539 C 0.14049 0.61247 0.67691 0.0
C1540 C 0.14474 0.60647 0.70936 0.0
C1541 C 0.14833 0.59298 0.7062 0.0
H1542 H 0.42061 0.0373 0.00179 0.0
H1543 H 0.4111 0.0482 0.11412 0.0
H1544 H 0.39091 0.01769 0.1239 0.0
H1545 H 0.37717 -0.00015 0.98346 0.0
H1546 H 0.38601 0.98862 0.9591 0.0
H1547 H 0.39682 0.01162 0.95783 0.0
H1548 H 0.42438 0.01294 0.98254 0.0
H1549 H 0.41367 0.99003 0.98409 0.0
H1550 H 0.42359 0.00226 0.02545 0.0
H1551 H 0.37544 0.98595 0.12539 0.0
H1552 H 0.36626 0.95545 0.11867 0.0
H1553 H 0.38641 0.9648 0.00621 0.0
C1554 C 0.41408 0.03335 0.02825 0.0
C1555 C 0.41743 0.0453 0.05702 0.0
C1556 C 0.40852 0.03948 0.0912 0.0
C1557 C 0.39704 0.0221 0.09715 0.0
C1558 C 0.39455 0.01064 0.06868 0.0
C1559 C 0.40275 0.01603 0.03482 0.0
C1560 C 0.39946 0.00101 0.01049 0.0
C1561 C 0.38925 0.00023 0.97566 0.0
C1562 C 0.41627 0.0016 6e-05 0.0
C1563 C 0.38882 0.98638 0.03666 0.0
C1564 C 0.38581 0.99219 0.06976 0.0
C1565 C 0.37738 0.9812 0.0993 0.0
C1566 C 0.37216 0.96386 0.09515 0.0
C1567 C 0.37551 0.95769 0.06182 0.0
C1568 C 0.38364 0.96911 0.03201 0.0
H1569 H 0.42215 0.38852 0.29601 0.0
H1570 H 0.41135 0.36229 0.1898 0.0
H1571 H 0.39157 0.37266 0.17432 0.0
H1572 H 0.37934 0.38378 0.31156 0.0
H1573 H 0.38845 0.40495 0.33087 0.0
H1574 H 0.3993 0.39293 0.33644 0.0
H1575 H 0.42653 0.41779 0.30677 0.0
H1576 H 0.41577 0.42981 0.30094 0.0
H1577 H 0.42521 0.42546 0.26132 0.0
H1578 H 0.376 0.38901 0.16675 0.0
H1579 H 0.36549 0.40953 0.16858 0.0
H1580 H 0.38785 0.42615 0.27815 0.0
C1581 C 0.41541 0.38469 0.26976 0.0
C1582 C 0.41825 0.37446 0.24431 0.0
C1583 C 0.40913 0.36977 0.21023 0.0
C1584 C 0.39793 0.37569 0.20103 0.0
C1585 C 0.39592 0.38626 0.22622 0.0
C1586 C 0.40432 0.39061 0.26002 0.0
C1587 C 0.4013 0.40345 0.28062 0.0
C1588 C 0.39151 0.39581 0.31703 0.0
C1589 C 0.4182 0.42011 0.2878 0.0
C1590 C 0.39035 0.40606 0.2526 0.0
C1591 C 0.38717 0.39588 0.22162 0.0
C1592 C 0.3782 0.39687 0.1911 0.0
C1593 C 0.37241 0.40866 0.19225 0.0
C1594 C 0.37572 0.41936 0.2236 0.0
C1595 C 0.38469 0.41786 0.25418 0.0
H1596 H 0.03545 0.41858 0.45261 0.0
H1597 H 0.04752 0.41447 0.33756 0.0
H1598 H 0.017 0.39521 0.32468 0.0
H1599 H 0.99778 0.37444 0.46178 0.0
H1600 H 0.98638 0.38199 0.48981 0.0
H1601 H 0.00935 0.39264 0.49184 0.0
H1602 H 0.01097 0.42132 0.47543 0.0
H1603 H 0.98808 0.41079 0.4731 0.0
H1604 H 0.00072 0.4228 0.43373 0.0
H1605 H 0.98518 0.38038 0.32169 0.0
H1606 H 0.95463 0.37097 0.3291 0.0
H1607 H 0.96311 0.38468 0.446 0.0
C1608 C 0.03173 0.41337 0.42487 0.0
C1609 C 0.04394 0.41798 0.39619 0.0
C1610 C 0.03849 0.41087 0.36025 0.0
C1611 C 0.02115 0.39995 0.35259 0.0
C1612 C 0.0094 0.39616 0.3812 0.0
C1613 C 0.01447 0.40253 0.41673 0.0
C1614 C -0.00074 0.39802 0.4415 0.0
C1615 C 0.99813 0.38606 0.4731 0.0
C1616 C -0.0002 0.41419 0.45681 0.0
C1617 C 0.98489 0.38883 0.41388 0.0
C1618 C 0.99096 0.38761 0.37943 0.0
C1619 C 0.98022 0.3809 0.34874 0.0
C1620 C 0.96285 0.37553 0.35326 0.0
C1621 C 0.95643 0.37703 0.38816 0.0
C1622 C 0.96761 0.38341 0.41893 0.0
H1623 H 0.5739 0.96502 0.62245 0.0
H1624 H 0.60096 0.95532 0.53499 0.0
H1625 H 0.62208 0.98618 0.53195 0.0
H1626 H 0.57712 0.00117 0.58321 0.0
H1627 H 0.5797 0.01247 0.62619 0.0
H1628 H 0.56854 0.98953 0.62591 0.0
H1629 H 0.58923 0.98964 0.6759 0.0
H1630 H 0.60048 0.01265 0.67637 0.0
H1631 H 0.61192 0.00143 0.66757 0.0
H1632 H 0.63807 0.01809 0.53332 0.0
H1633 H 0.64716 0.04874 0.53729 0.0
H1634 H 0.60932 0.03764 0.62312 0.0
C1635 C 0.58461 0.96935 0.60356 0.0
C1636 C 0.58598 0.95784 0.57927 0.0
C1637 C 0.59978 0.96399 0.55392 0.0
C1638 C 0.61186 0.98145 0.55218 0.0
C1639 C 0.60994 0.99254 0.576 0.0
C1640 C 0.59667 0.98674 0.60126 0.0
C1641 C 0.59636 0.00142 0.62078 0.0
C1642 C 0.57943 0.00112 0.61356 0.0
C1643 C 0.5997 0.00127 0.66264 0.0
C1644 C 0.61119 0.01641 0.60169 0.0
C1645 C 0.61904 0.01102 0.57641 0.0
C1646 C 0.6322 0.02247 0.55342 0.0
C1647 C 0.63722 0.03983 0.55574 0.0
C1648 C 0.629 0.04554 0.58067 0.0
C1649 C 0.61611 0.03369 0.60449 0.0
H1650 H 0.60783 0.57193 0.76747 0.0
H1651 H 0.641 0.59568 0.6725 0.0
H1652 H 0.62961 0.6154 0.6661 0.0
H1653 H 0.57238 0.57252 0.73237 0.0
H1654 H 0.56577 0.57696 0.77627 0.0
H1655 H 0.57768 0.56592 0.77524 0.0
H1656 H 0.60049 0.58877 0.8188 0.0
H1657 H 0.58861 0.59989 0.82006 0.0
H1658 H 0.61068 0.61099 0.8059 0.0
H1659 H 0.61289 0.63101 0.66759 0.0
H1660 H 0.59228 0.64113 0.67672 0.0
H1661 H 0.57055 0.60705 0.77108 0.0
C1662 C 0.6131 0.58159 0.74596 0.0
C1663 C 0.62546 0.58239 0.72073 0.0
C1664 C 0.63152 0.59483 0.69212 0.0
C1665 C 0.6252 0.60613 0.68842 0.0
C1666 C 0.61289 0.60485 0.71362 0.0
C1667 C 0.60698 0.59293 0.74193 0.0
C1668 C 0.593 0.59339 0.76404 0.0
C1669 C 0.57622 0.57618 0.76182 0.0
C1670 C 0.59853 0.59857 0.8046 0.0
C1671 C 0.59169 0.60724 0.74335 0.0
C1672 C 0.60334 0.6138 0.71451 0.0
C1673 C 0.60386 0.6261 0.69034 0.0
C1674 C 0.59206 0.6317 0.69562 0.0
C1675 C 0.5799 0.62497 0.72478 0.0
C1676 C 0.57993 0.61274 0.7491 0.0
H1677 H 0.03495 0.58983 0.8861 0.0
H1678 H 0.04765 0.64063 0.92224 0.0
H1679 H 0.01701 0.63194 0.92122 0.0
H1680 H 0.00018 0.5822 0.82525 0.0
H1681 H 0.98764 0.55998 0.83779 0.0
H1682 H 0.0106 0.57057 0.83957 0.0
H1683 H 0.00918 0.56181 0.90871 0.0
H1684 H 0.98623 0.55113 0.90709 0.0
H1685 H 0.99769 0.56737 0.94158 0.0
H1686 H 0.98456 0.61701 0.91853 0.0
H1687 H 0.95338 0.59723 0.91449 0.0
H1688 H 0.96265 0.55629 0.8824 0.0
C1689 C 0.03133 0.59915 0.89401 0.0
C1690 C 0.04371 0.61591 0.90435 0.0
C1691 C 0.03841 0.62776 0.91384 0.0
C1692 C 0.02103 0.62292 0.91348 0.0
C1693 C 0.00916 0.60622 0.90347 0.0
C1694 C 0.01413 0.59454 0.8939 0.0
C1695 C 0.99895 0.57724 0.88522 0.0
C1696 C -0.00062 0.57221 0.84454 0.0
C1697 C 0.99796 0.56359 0.91227 0.0
C1698 C 0.98461 0.58092 0.89176 0.0
C1699 C 0.99069 0.5977 0.90209 0.0
C1700 C 0.97967 0.60386 0.91035 0.0
C1701 C 0.962 0.59252 0.90817 0.0
C1702 C 0.95555 0.57523 0.89788 0.0
C1703 C 0.96711 0.5695 0.88952 0.0
loop_
_geom_bond_atom_site_label_1
_geom_bond_atom_site_label_2
_geom_bond_distance
_geom_bond_site_symmetry_2
_ccdc_geom_bond_type
Li0 N17 1.990 . S
Li0 O60 1.956 . S
Li0 O61 1.970 . S
Li0 O62 1.961 . S
Li1 N25 1.990 . S
Li1 O60 1.970 . S
Li1 O61 1.956 . S
Li1 O63 1.961 . S
Li2 N47 1.990 . S
Li2 O60 1.961 . S
Li2 O62 1.956 . S
Li2 O63 1.970 . S
Li3 N53 1.990 1_554 S
Li3 O61 1.961 . S
Li3 O62 1.970 . S
Li3 O63 1.956 . S
C4 C6 1.348 . S
C4 C7 1.356 . S
C4 O60 1.325 . S
N5 C8 1.314 . S
N5 C9 1.279 . S
C6 C4 1.348 . S
C6 C8 1.353 . S
C6 H64 0.929 . S
C7 C4 1.356 . S
C7 C9 1.358 . S
C7 H65 0.930 . S
C8 N5 1.314 . S
C8 C6 1.353 . S
C8 H66 0.930 . S
C9 N5 1.279 . S
C9 C7 1.358 . S
C9 H67 0.930 . S
C10 C13 1.348 . S
C10 C14 1.356 . S
C10 O61 1.325 . S
C11 N12 1.279 . S
C11 C14 1.358 . S
C11 H68 0.930 . S
N12 C11 1.279 . S
N12 C15 1.314 . S
C13 C10 1.348 . S
C13 C15 1.353 . S
C13 H69 0.929 . S
C14 C10 1.356 . S
C14 C11 1.358 . S
C14 H70 0.930 . S
C15 N12 1.314 . S
C15 C13 1.353 . S
C15 H71 0.930 . S
C16 N17 1.314 . S
C16 C21 1.353 . S
C16 H22 0.930 . S
N17 Li0 1.990 . S
N17 C16 1.314 . S
N17 C19 1.279 . S
C18 C19 1.358 . S
C18 C20 1.356 . S
C18 H72 0.930 . S
C19 N17 1.279 . S
C19 C18 1.358 . S
C19 H23 0.930 . S
C20 C18 1.356 . S
C20 C21 1.348 . S
C21 C16 1.353 . S
C21 C20 1.348 . S
C21 H73 0.929 . S
H22 C16 0.930 . S
H23 C19 0.930 . S
C24 N25 1.314 . S
C24 C26 1.353 . S
C24 H30 0.930 . S
N25 Li1 1.990 . S
N25 C24 1.314 . S
N25 C28 1.279 . S
C26 C24 1.353 . S
C26 C29 1.348 . S
C26 H74 0.929 . S
C27 C28 1.358 . S
C27 C29 1.356 . S
C27 H75 0.930 . S
C28 N25 1.279 . S
C28 C27 1.358 . S
C28 H31 0.930 . S
C29 C26 1.348 . S
C29 C27 1.356 . S
H30 C24 0.930 . S
H31 C28 0.930 . S
C32 C34 1.348 1_554 S
C32 C35 1.356 . S
C32 O62 1.325 . S
N33 C36 1.314 . S
N33 C37 1.279 . S
C34 C32 1.348 1_556 S
C34 C36 1.353 . S
C34 H76 0.929 . S
C35 C32 1.356 . S
C35 C37 1.358 1_554 S
C35 H77 0.930 . S
C36 N33 1.314 . S
C36 C34 1.353 . S
C36 H78 0.930 . S
C37 N33 1.279 . S
C37 C35 1.358 1_556 S
C37 H79 0.930 . S
C38 C39 1.348 . S
C38 C40 1.356 . S
C38 O63 1.325 . S
C39 C38 1.348 . S
C39 C41 1.353 . S
C39 H80 0.929 . S
C40 C38 1.356 . S
C40 C42 1.358 . S
C40 H81 0.930 . S
C41 C39 1.353 . S
C41 N43 1.314 . S
C41 H82 0.930 . S
C42 C40 1.358 . S
C42 N43 1.279 . S
C42 H83 0.930 . S
N43 C41 1.314 . S
N43 C42 1.279 . S
C44 C46 1.353 . S
C44 N47 1.314 . S
C44 H50 0.930 . S
C45 N47 1.279 . S
C45 C48 1.358 . S
C45 H51 0.930 . S
C46 C44 1.353 . S
C46 C49 1.348 . S
C46 H84 0.929 . S
N47 Li2 1.990 . S
N47 C44 1.314 . S
N47 C45 1.279 . S
C48 C45 1.358 . S
C48 C49 1.356 . S
C48 H85 0.930 . S
C49 C46 1.348 . S
C49 C48 1.356 . S
H50 C44 0.930 . S
H51 C45 0.930 . S
C52 N53 1.314 . S
C52 C54 1.353 . S
C52 H58 0.930 . S
N53 Li3 1.990 1_556 S
N53 C52 1.314 . S
N53 C56 1.279 . S
C54 C52 1.353 . S
C54 C57 1.348 . S
C54 H86 0.929 . S
C55 C56 1.358 . S
C55 C57 1.356 . S
C55 H87 0.930 . S
C56 N53 1.279 . S
C56 C55 1.358 . S
C56 H59 0.930 . S
C57 C54 1.348 . S
C57 C55 1.356 . S
H58 C52 0.930 . S
H59 C56 0.930 . S
O60 Li0 1.956 . S
O60 Li1 1.970 . S
O60 Li2 1.961 . S
O60 C4 1.325 . S
O61 Li0 1.970 . S
O61 Li1 1.956 . S
O61 Li3 1.961 . S
O61 C10 1.325 . S
O62 Li0 1.961 . S
O62 Li2 1.956 . S
O62 Li3 1.970 . S
O62 C32 1.325 . S
O63 Li1 1.961 . S
O63 Li2 1.970 . S
O63 Li3 1.956 . S
O63 C38 1.325 . S
H64 C6 0.929 . S
H65 C7 0.930 . S
H66 C8 0.930 . S
H67 C9 0.930 . S
H68 C11 0.930 . S
H69 C13 0.929 . S
H70 C14 0.930 . S
H71 C15 0.930 . S
H72 C18 0.930 . S
H73 C21 0.929 . S
H74 C26 0.929 . S
H75 C27 0.930 . S
H76 C34 0.929 . S
H77 C35 0.930 . S
H78 C36 0.930 . S
H79 C37 0.930 . S
H80 C39 0.929 . S
H81 C40 0.930 . S
H82 C41 0.930 . S
H83 C42 0.930 . S
H84 C46 0.929 . S
H85 C48 0.930 . S
H86 C54 0.929 . S
H87 C55 0.930 . S
Li88 N105 1.990 . S
Li88 O148 1.956 . S
Li88 O149 1.970 . S
Li88 O150 1.961 . S
Li89 N113 1.990 . S
Li89 O148 1.970 . S
Li89 O149 1.956 . S
Li89 O151 1.961 . S
Li90 N135 1.990 . S
Li90 O148 1.961 . S
Li90 O150 1.956 . S
Li90 O151 1.970 . S
Li91 N141 1.990 . S
Li91 O149 1.961 . S
Li91 O150 1.970 . S
Li91 O151 1.956 . S
C92 C94 1.348 . S
C92 C95 1.356 . S
C92 O148 1.325 . S
N93 C96 1.314 . S
N93 C97 1.279 . S
C94 C92 1.348 . S
C94 C96 1.353 . S
C94 H152 0.929 . S
C95 C92 1.356 . S
C95 C97 1.358 . S
C95 H153 0.930 . S
C96 N93 1.314 . S
C96 C94 1.353 . S
C96 H154 0.930 . S
C97 N93 1.279 . S
C97 C95 1.358 . S
C97 H155 0.930 . S
C98 C101 1.348 . S
C98 C102 1.356 . S
C98 O149 1.325 . S
C99 N100 1.279 . S
C99 C102 1.358 . S
C99 H156 0.930 . S
N100 C99 1.279 . S
N100 C103 1.314 . S
C101 C98 1.348 . S
C101 C103 1.353 . S
C101 H157 0.929 . S
C102 C98 1.356 . S
C102 C99 1.358 . S
C102 H158 0.930 . S
C103 N100 1.314 . S
C103 C101 1.353 . S
C103 H159 0.930 . S
C104 N105 1.314 . S
C104 C109 1.353 . S
C104 H110 0.930 . S
N105 Li88 1.990 . S
N105 C104 1.314 . S
N105 C107 1.279 . S
C106 C107 1.358 . S
C106 C108 1.356 . S
C106 H160 0.930 . S
C107 N105 1.279 . S
C107 C106 1.358 . S
C107 H111 0.930 . S
C108 C106 1.356 . S
C108 C109 1.348 . S
C109 C104 1.353 . S
C109 C108 1.348 . S
C109 H161 0.929 . S
H110 C104 0.930 . S
H111 C107 0.930 . S
C112 N113 1.314 . S
C112 C114 1.353 . S
C112 H118 0.930 . S
N113 Li89 1.990 . S
N113 C112 1.314 . S
N113 C116 1.279 . S
C114 C112 1.353 . S
C114 C117 1.348 . S
C114 H162 0.929 . S
C115 C116 1.358 . S
C115 C117 1.356 . S
C115 H163 0.930 . S
C116 N113 1.279 . S
C116 C115 1.358 . S
C116 H119 0.930 . S
C117 C114 1.348 . S
C117 C115 1.356 . S
H118 C112 0.930 . S
H119 C116 0.930 . S
C120 C122 1.348 . S
C120 C123 1.356 . S
C120 O150 1.325 . S
N121 C124 1.314 . S
N121 C125 1.279 . S
C122 C120 1.348 . S
C122 C124 1.353 . S
C122 H164 0.929 . S
C123 C120 1.356 . S
C123 C125 1.358 . S
C123 H165 0.930 . S
C124 N121 1.314 . S
C124 C122 1.353 . S
C124 H166 0.930 . S
C125 N121 1.279 . S
C125 C123 1.358 . S
C125 H167 0.930 . S
C126 C127 1.348 . S
C126 C128 1.356 . S
C126 O151 1.325 . S
C127 C126 1.348 . S
C127 C129 1.353 . S
C127 H168 0.929 . S
C128 C126 1.356 . S
C128 C130 1.358 . S
C128 H169 0.930 . S
C129 C127 1.353 . S
C129 N131 1.314 . S
C129 H170 0.930 . S
C130 C128 1.358 . S
C130 N131 1.279 . S
C130 H171 0.930 . S
N131 C129 1.314 . S
N131 C130 1.279 . S
C132 C134 1.353 . S
C132 N135 1.314 . S
C132 H138 0.930 . S
C133 N135 1.279 . S
C133 C136 1.358 . S
C133 H139 0.930 . S
C134 C132 1.353 . S
C134 C137 1.348 . S
C134 H172 0.929 . S
N135 Li90 1.990 . S
N135 C132 1.314 . S
N135 C133 1.279 . S
C136 C133 1.358 . S
C136 C137 1.356 . S
C136 H173 0.930 . S
C137 C134 1.348 . S
C137 C136 1.356 . S
H138 C132 0.930 . S
H139 C133 0.930 . S
C140 N141 1.314 . S
C140 C142 1.353 . S
C140 H146 0.930 . S
N141 Li91 1.990 . S
N141 C140 1.314 . S
N141 C144 1.279 . S
C142 C140 1.353 . S
C142 C145 1.348 . S
C142 H174 0.929 . S
C143 C144 1.358 . S
C143 C145 1.356 . S
C143 H175 0.930 . S
C144 N141 1.279 . S
C144 C143 1.358 . S
C144 H147 0.930 . S
C145 C142 1.348 . S
C145 C143 1.356 . S
H146 C140 0.930 . S
H147 C144 0.930 . S
O148 Li88 1.956 . S
O148 Li89 1.970 . S
O148 Li90 1.961 . S
O148 C92 1.325 . S
O149 Li88 1.970 . S
O149 Li89 1.956 . S
O149 Li91 1.961 . S
O149 C98 1.325 . S
O150 Li88 1.961 . S
O150 Li90 1.956 . S
O150 Li91 1.970 . S
O150 C120 1.325 . S
O151 Li89 1.961 . S
O151 Li90 1.970 . S
O151 Li91 1.956 . S
O151 C126 1.325 . S
H152 C94 0.929 . S
H153 C95 0.930 . S
H154 C96 0.930 . S
H155 C97 0.930 . S
H156 C99 0.930 . S
H157 C101 0.929 . S
H158 C102 0.930 . S
H159 C103 0.930 . S
H160 C106 0.930 . S
H161 C109 0.929 . S
H162 C114 0.929 . S
H163 C115 0.930 . S
H164 C122 0.929 . S
H165 C123 0.930 . S
H166 C124 0.930 . S
H167 C125 0.930 . S
H168 C127 0.929 . S
H169 C128 0.930 . S
H170 C129 0.930 . S
H171 C130 0.930 . S
H172 C134 0.929 . S
H173 C136 0.930 . S
H174 C142 0.929 . S
H175 C143 0.930 . S
Li176 N193 1.990 . S
Li176 O236 1.956 . S
Li176 O237 1.970 . S
Li176 O238 1.961 . S
Li177 N201 1.990 . S
Li177 O236 1.970 . S
Li177 O237 1.956 . S
Li177 O239 1.961 . S
Li178 N223 1.990 . S
Li178 O236 1.961 . S
Li178 O238 1.956 . S
Li178 O239 1.970 . S
Li179 N229 1.990 . S
Li179 O237 1.961 . S
Li179 O238 1.970 . S
Li179 O239 1.956 . S
C180 C182 1.348 . S
C180 C183 1.356 . S
C180 O236 1.325 . S
N181 C184 1.314 . S
N181 C185 1.279 . S
C182 C180 1.348 . S
C182 C184 1.353 . S
C182 H240 0.929 . S
C183 C180 1.356 . S
C183 C185 1.358 . S
C183 H241 0.930 . S
C184 N181 1.314 . S
C184 C182 1.353 . S
C184 H242 0.930 . S
C185 N181 1.279 . S
C185 C183 1.358 . S
C185 H243 0.930 . S
C186 C189 1.348 . S
C186 C190 1.356 . S
C186 O237 1.325 . S
C187 N188 1.279 . S
C187 C190 1.358 . S
C187 H244 0.930 . S
N188 C187 1.279 . S
N188 C191 1.314 . S
C189 C186 1.348 . S
C189 C191 1.353 . S
C189 H245 0.929 . S
C190 C186 1.356 . S
C190 C187 1.358 . S
C190 H246 0.930 . S
C191 N188 1.314 . S
C191 C189 1.353 . S
C191 H247 0.930 . S
C192 N193 1.314 . S
C192 C197 1.353 . S
C192 H198 0.930 . S
N193 Li176 1.990 . S
N193 C192 1.314 . S
N193 C195 1.279 . S
C194 C195 1.358 . S
C194 C196 1.356 . S
C194 H248 0.930 . S
C195 N193 1.279 . S
C195 C194 1.358 . S
C195 H199 0.930 . S
C196 C194 1.356 . S
C196 C197 1.348 . S
C197 C192 1.353 . S
C197 C196 1.348 . S
C197 H249 0.929 . S
H198 C192 0.930 . S
H199 C195 0.930 . S
C200 N201 1.314 . S
C200 C202 1.353 . S
C200 H206 0.930 . S
N201 Li177 1.990 . S
N201 C200 1.314 . S
N201 C204 1.279 . S
C202 C200 1.353 . S
C202 C205 1.348 . S
C202 H250 0.929 . S
C203 C204 1.358 . S
C203 C205 1.356 . S
C203 H251 0.930 . S
C204 N201 1.279 . S
C204 C203 1.358 . S
C204 H207 0.930 . S
C205 C202 1.348 . S
C205 C203 1.356 . S
H206 C200 0.930 . S
H207 C204 0.930 . S
C208 C210 1.348 . S
C208 C211 1.356 . S
C208 O238 1.325 . S
N209 C212 1.314 . S
N209 C213 1.279 . S
C210 C208 1.348 . S
C210 C212 1.353 . S
C210 H252 0.929 . S
C211 C208 1.356 . S
C211 C213 1.358 . S
C211 H253 0.930 . S
C212 N209 1.314 . S
C212 C210 1.353 . S
C212 H254 0.930 . S
C213 N209 1.279 . S
C213 C211 1.358 . S
C213 H255 0.930 . S
C214 C215 1.348 . S
C214 C216 1.356 . S
C214 O239 1.325 . S
C215 C214 1.348 . S
C215 C217 1.353 . S
C215 H256 0.929 . S
C216 C214 1.356 . S
C216 C218 1.358 . S
C216 H257 0.930 . S
C217 C215 1.353 . S
C217 N219 1.314 . S
C217 H258 0.930 . S
C218 C216 1.358 . S
C218 N219 1.279 . S
C218 H259 0.930 . S
N219 C217 1.314 . S
N219 C218 1.279 . S
C220 C222 1.353 . S
C220 N223 1.314 . S
C220 H226 0.930 . S
C221 N223 1.279 . S
C221 C224 1.358 . S
C221 H227 0.930 . S
C222 C220 1.353 . S
C222 C225 1.348 . S
C222 H260 0.929 . S
N223 Li178 1.990 . S
N223 C220 1.314 . S
N223 C221 1.279 . S
C224 C221 1.358 . S
C224 C225 1.356 . S
C224 H261 0.930 . S
C225 C222 1.348 . S
C225 C224 1.356 . S
H226 C220 0.930 . S
H227 C221 0.930 . S
C228 N229 1.314 . S
C228 C230 1.353 . S
C228 H234 0.930 . S
N229 Li179 1.990 . S
N229 C228 1.314 . S
N229 C232 1.279 . S
C230 C228 1.353 . S
C230 C233 1.348 . S
C230 H262 0.929 . S
C231 C232 1.358 . S
C231 C233 1.356 . S
C231 H263 0.930 . S
C232 N229 1.279 . S
C232 C231 1.358 . S
C232 H235 0.930 . S
C233 C230 1.348 . S
C233 C231 1.356 . S
H234 C228 0.930 . S
H235 C232 0.930 . S
O236 Li176 1.956 . S
O236 Li177 1.970 . S
O236 Li178 1.961 . S
O236 C180 1.325 . S
O237 Li176 1.970 . S
O237 Li177 1.956 . S
O237 Li179 1.961 . S
O237 C186 1.325 . S
O238 Li176 1.961 . S
O238 Li178 1.956 . S
O238 Li179 1.970 . S
O238 C208 1.325 . S
O239 Li177 1.961 . S
O239 Li178 1.970 . S
O239 Li179 1.956 . S
O239 C214 1.325 . S
H240 C182 0.929 . S
H241 C183 0.930 . S
H242 C184 0.930 . S
H243 C185 0.930 . S
H244 C187 0.930 . S
H245 C189 0.929 . S
H246 C190 0.930 . S
H247 C191 0.930 . S
H248 C194 0.930 . S
H249 C197 0.929 . S
H250 C202 0.929 . S
H251 C203 0.930 . S
H252 C210 0.929 . S
H253 C211 0.930 . S
H254 C212 0.930 . S
H255 C213 0.930 . S
H256 C215 0.929 . S
H257 C216 0.930 . S
H258 C217 0.930 . S
H259 C218 0.930 . S
H260 C222 0.929 . S
H261 C224 0.930 . S
H262 C230 0.929 . S
H263 C231 0.930 . S
Li264 N281 1.990 . S
Li264 O324 1.956 . S
Li264 O325 1.970 . S
Li264 O326 1.961 . S
Li265 N289 1.990 . S
Li265 O324 1.970 . S
Li265 O325 1.956 . S
Li265 O327 1.961 . S
Li266 N311 1.990 . S
Li266 O324 1.961 . S
Li266 O326 1.956 . S
Li266 O327 1.970 . S
Li267 N317 1.990 . S
Li267 O325 1.961 . S
Li267 O326 1.970 . S
Li267 O327 1.956 . S
C268 C270 1.348 . S
C268 C271 1.356 . S
C268 O324 1.325 . S
N269 C272 1.314 . S
N269 C273 1.279 . S
C270 C268 1.348 . S
C270 C272 1.353 . S
C270 H328 0.929 . S
C271 C268 1.356 . S
C271 C273 1.358 . S
C271 H329 0.930 . S
C272 N269 1.314 . S
C272 C270 1.353 . S
C272 H330 0.930 . S
C273 N269 1.279 . S
C273 C271 1.358 . S
C273 H331 0.930 . S
C274 C277 1.348 . S
C274 C278 1.356 . S
C274 O325 1.325 . S
C275 N276 1.279 . S
C275 C278 1.358 . S
C275 H332 0.930 . S
N276 C275 1.279 . S
N276 C279 1.314 . S
C277 C274 1.348 . S
C277 C279 1.353 . S
C277 H333 0.929 . S
C278 C274 1.356 . S
C278 C275 1.358 . S
C278 H334 0.930 . S
C279 N276 1.314 . S
C279 C277 1.353 . S
C279 H335 0.930 . S
C280 N281 1.314 . S
C280 C285 1.353 . S
C280 H286 0.930 . S
N281 Li264 1.990 . S
N281 C280 1.314 . S
N281 C283 1.279 . S
C282 C283 1.358 . S
C282 C284 1.356 . S
C282 H336 0.930 . S
C283 N281 1.279 . S
C283 C282 1.358 . S
C283 H287 0.930 . S
C284 C282 1.356 . S
C284 C285 1.348 . S
C285 C280 1.353 . S
C285 C284 1.348 . S
C285 H337 0.929 . S
H286 C280 0.930 . S
H287 C283 0.930 . S
C288 N289 1.314 . S
C288 C290 1.353 . S
C288 H294 0.930 . S
N289 Li265 1.990 . S
N289 C288 1.314 . S
N289 C292 1.279 . S
C290 C288 1.353 . S
C290 C293 1.348 . S
C290 H338 0.929 . S
C291 C292 1.358 . S
C291 C293 1.356 . S
C291 H339 0.930 . S
C292 N289 1.279 . S
C292 C291 1.358 . S
C292 H295 0.930 . S
C293 C290 1.348 . S
C293 C291 1.356 . S
H294 C288 0.930 . S
H295 C292 0.930 . S
C296 C298 1.348 . S
C296 C299 1.356 . S
C296 O326 1.325 . S
N297 C300 1.314 . S
N297 C301 1.279 . S
C298 C296 1.348 . S
C298 C300 1.353 . S
C298 H340 0.929 . S
C299 C296 1.356 . S
C299 C301 1.358 . S
C299 H341 0.930 . S
C300 N297 1.314 . S
C300 C298 1.353 . S
C300 H342 0.930 . S
C301 N297 1.279 . S
C301 C299 1.358 . S
C301 H343 0.930 . S
C302 C303 1.348 . S
C302 C304 1.356 . S
C302 O327 1.325 . S
C303 C302 1.348 . S
C303 C305 1.353 . S
C303 H344 0.929 . S
C304 C302 1.356 . S
C304 C306 1.358 . S
C304 H345 0.930 . S
C305 C303 1.353 . S
C305 N307 1.314 . S
C305 H346 0.930 . S
C306 C304 1.358 . S
C306 N307 1.279 . S
C306 H347 0.930 . S
N307 C305 1.314 . S
N307 C306 1.279 . S
C308 C310 1.353 . S
C308 N311 1.314 . S
C308 H314 0.930 . S
C309 N311 1.279 . S
C309 C312 1.358 . S
C309 H315 0.930 . S
C310 C308 1.353 . S
C310 C313 1.348 . S
C310 H348 0.929 . S
N311 Li266 1.990 . S
N311 C308 1.314 . S
N311 C309 1.279 . S
C312 C309 1.358 . S
C312 C313 1.356 . S
C312 H349 0.930 . S
C313 C310 1.348 . S
C313 C312 1.356 . S
H314 C308 0.930 . S
H315 C309 0.930 . S
C316 N317 1.314 . S
C316 C318 1.353 . S
C316 H322 0.930 . S
N317 Li267 1.990 . S
N317 C316 1.314 . S
N317 C320 1.279 . S
C318 C316 1.353 . S
C318 C321 1.348 . S
C318 H350 0.929 . S
C319 C320 1.358 . S
C319 C321 1.356 . S
C319 H351 0.930 . S
C320 N317 1.279 . S
C320 C319 1.358 . S
C320 H323 0.930 . S
C321 C318 1.348 . S
C321 C319 1.356 . S
H322 C316 0.930 . S
H323 C320 0.930 . S
O324 Li264 1.956 . S
O324 Li265 1.970 . S
O324 Li266 1.961 . S
O324 C268 1.325 . S
O325 Li264 1.970 . S
O325 Li265 1.956 . S
O325 Li267 1.961 . S
O325 C274 1.325 . S
O326 Li264 1.961 . S
O326 Li266 1.956 . S
O326 Li267 1.970 . S
O326 C296 1.325 . S
O327 Li265 1.961 . S
O327 Li266 1.970 . S
O327 Li267 1.956 . S
O327 C302 1.325 . S
H328 C270 0.929 . S
H329 C271 0.930 . S
H330 C272 0.930 . S
H331 C273 0.930 . S
H332 C275 0.930 . S
H333 C277 0.929 . S
H334 C278 0.930 . S
H335 C279 0.930 . S
H336 C282 0.930 . S
H337 C285 0.929 . S
H338 C290 0.929 . S
H339 C291 0.930 . S
H340 C298 0.929 . S
H341 C299 0.930 . S
H342 C300 0.930 . S
H343 C301 0.930 . S
H344 C303 0.929 . S
H345 C304 0.930 . S
H346 C305 0.930 . S
H347 C306 0.930 . S
H348 C310 0.929 . S
H349 C312 0.930 . S
H350 C318 0.929 . S
H351 C319 0.930 . S
Li352 N369 1.990 . S
Li352 O412 1.956 . S
Li352 O413 1.970 . S
Li352 O414 1.961 . S
Li353 N377 1.990 . S
Li353 O412 1.970 . S
Li353 O413 1.956 . S
Li353 O415 1.961 . S
Li354 N399 1.990 . S
Li354 O412 1.961 . S
Li354 O414 1.956 . S
Li354 O415 1.970 . S
Li355 N405 1.990 . S
Li355 O413 1.961 . S
Li355 O414 1.970 . S
Li355 O415 1.956 . S
C356 C358 1.348 . S
C356 C359 1.356 . S
C356 O412 1.325 . S
N357 C360 1.314 . S
N357 C361 1.279 . S
C358 C356 1.348 . S
C358 C360 1.353 . S
C358 H416 0.929 . S
C359 C356 1.356 . S
C359 C361 1.358 . S
C359 H417 0.930 . S
C360 N357 1.314 . S
C360 C358 1.353 . S
C360 H418 0.930 . S
C361 N357 1.279 . S
C361 C359 1.358 . S
C361 H419 0.930 . S
C362 C365 1.348 . S
C362 C366 1.356 . S
C362 O413 1.325 . S
C363 N364 1.279 . S
C363 C366 1.358 . S
C363 H420 0.930 . S
N364 C363 1.279 . S
N364 C367 1.314 . S
C365 C362 1.348 . S
C365 C367 1.353 . S
C365 H421 0.929 . S
C366 C362 1.356 . S
C366 C363 1.358 . S
C366 H422 0.930 . S
C367 N364 1.314 . S
C367 C365 1.353 . S
C367 H423 0.930 . S
C368 N369 1.314 . S
C368 C373 1.353 . S
C368 H374 0.930 . S
N369 Li352 1.990 . S
N369 C368 1.314 . S
N369 C371 1.279 . S
C370 C371 1.358 . S
C370 C372 1.356 . S
C370 H424 0.930 . S
C371 N369 1.279 . S
C371 C370 1.358 . S
C371 H375 0.930 . S
C372 C370 1.356 . S
C372 C373 1.348 . S
C373 C368 1.353 . S
C373 C372 1.348 . S
C373 H425 0.929 . S
H374 C368 0.930 . S
H375 C371 0.930 . S
C376 N377 1.314 . S
C376 C378 1.353 . S
C376 H382 0.930 . S
N377 Li353 1.990 . S
N377 C376 1.314 . S
N377 C380 1.279 . S
C378 C376 1.353 . S
C378 C381 1.348 . S
C378 H426 0.929 . S
C379 C380 1.358 . S
C379 C381 1.356 . S
C379 H427 0.930 . S
C380 N377 1.279 . S
C380 C379 1.358 . S
C380 H383 0.930 . S
C381 C378 1.348 . S
C381 C379 1.356 . S
H382 C376 0.930 . S
H383 C380 0.930 . S
C384 C386 1.348 . S
C384 C387 1.356 . S
C384 O414 1.325 . S
N385 C388 1.314 . S
N385 C389 1.279 . S
C386 C384 1.348 . S
C386 C388 1.353 . S
C386 H428 0.929 . S
C387 C384 1.356 . S
C387 C389 1.358 . S
C387 H429 0.930 . S
C388 N385 1.314 . S
C388 C386 1.353 . S
C388 H430 0.930 . S
C389 N385 1.279 . S
C389 C387 1.358 . S
C389 H431 0.930 . S
C390 C391 1.348 . S
C390 C392 1.356 . S
C390 O415 1.325 . S
C391 C390 1.348 . S
C391 C393 1.353 . S
C391 H432 0.929 . S
C392 C390 1.356 . S
C392 C394 1.358 . S
C392 H433 0.930 . S
C393 C391 1.353 . S
C393 N395 1.314 . S
C393 H434 0.930 . S
C394 C392 1.358 . S
C394 N395 1.279 . S
C394 H435 0.930 . S
N395 C393 1.314 . S
N395 C394 1.279 . S
C396 C398 1.353 . S
C396 N399 1.314 . S
C396 H402 0.930 . S
C397 N399 1.279 . S
C397 C400 1.358 . S
C397 H403 0.930 . S
C398 C396 1.353 . S
C398 C401 1.348 . S
C398 H436 0.929 . S
N399 Li354 1.990 . S
N399 C396 1.314 . S
N399 C397 1.279 . S
C400 C397 1.358 . S
C400 C401 1.356 . S
C400 H437 0.930 . S
C401 C398 1.348 . S
C401 C400 1.356 . S
H402 C396 0.930 . S
H403 C397 0.930 . S
C404 N405 1.314 . S
C404 C406 1.353 . S
C404 H410 0.930 . S
N405 Li355 1.990 . S
N405 C404 1.314 . S
N405 C408 1.279 . S
C406 C404 1.353 . S
C406 C409 1.348 . S
C406 H438 0.929 . S
C407 C408 1.358 . S
C407 C409 1.356 . S
C407 H439 0.930 . S
C408 N405 1.279 . S
C408 C407 1.358 . S
C408 H411 0.930 . S
C409 C406 1.348 . S
C409 C407 1.356 . S
H410 C404 0.930 . S
H411 C408 0.930 . S
O412 Li352 1.956 . S
O412 Li353 1.970 . S
O412 Li354 1.961 . S
O412 C356 1.325 . S
O413 Li352 1.970 . S
O413 Li353 1.956 . S
O413 Li355 1.961 . S
O413 C362 1.325 . S
O414 Li352 1.961 . S
O414 Li354 1.956 . S
O414 Li355 1.970 . S
O414 C384 1.325 . S
O415 Li353 1.961 . S
O415 Li354 1.970 . S
O415 Li355 1.956 . S
O415 C390 1.325 . S
H416 C358 0.929 . S
H417 C359 0.930 . S
H418 C360 0.930 . S
H419 C361 0.930 . S
H420 C363 0.930 . S
H421 C365 0.929 . S
H422 C366 0.930 . S
H423 C367 0.930 . S
H424 C370 0.930 . S
H425 C373 0.929 . S
H426 C378 0.929 . S
H427 C379 0.930 . S
H428 C386 0.929 . S
H429 C387 0.930 . S
H430 C388 0.930 . S
H431 C389 0.930 . S
H432 C391 0.929 . S
H433 C392 0.930 . S
H434 C393 0.930 . S
H435 C394 0.930 . S
H436 C398 0.929 . S
H437 C400 0.930 . S
H438 C406 0.929 . S
H439 C407 0.930 . S
Li440 N457 1.990 . S
Li440 O500 1.956 . S
Li440 O501 1.970 . S
Li440 O502 1.961 . S
Li441 N465 1.990 . S
Li441 O500 1.970 . S
Li441 O501 1.956 . S
Li441 O503 1.961 . S
Li442 N487 1.990 . S
Li442 O500 1.961 . S
Li442 O502 1.956 . S
Li442 O503 1.970 . S
Li443 N493 1.990 . S
Li443 O501 1.961 . S
Li443 O502 1.970 . S
Li443 O503 1.956 . S
C444 C446 1.348 . S
C444 C447 1.356 . S
C444 O500 1.325 . S
N445 C448 1.314 . S
N445 C449 1.279 . S
C446 C444 1.348 . S
C446 C448 1.353 . S
C446 H504 0.929 . S
C447 C444 1.356 . S
C447 C449 1.358 . S
C447 H505 0.930 . S
C448 N445 1.314 . S
C448 C446 1.353 . S
C448 H506 0.930 . S
C449 N445 1.279 . S
C449 C447 1.358 . S
C449 H507 0.930 . S
C450 C453 1.348 . S
C450 C454 1.356 . S
C450 O501 1.325 . S
C451 N452 1.279 . S
C451 C454 1.358 . S
C451 H508 0.930 . S
N452 C451 1.279 . S
N452 C455 1.314 . S
C453 C450 1.348 . S
C453 C455 1.353 . S
C453 H509 0.929 . S
C454 C450 1.356 . S
C454 C451 1.358 . S
C454 H510 0.930 . S
C455 N452 1.314 . S
C455 C453 1.353 . S
C455 H511 0.930 . S
C456 N457 1.314 . S
C456 C461 1.353 . S
C456 H462 0.930 . S
N457 Li440 1.990 . S
N457 C456 1.314 . S
N457 C459 1.279 . S
C458 C459 1.358 . S
C458 C460 1.356 . S
C458 H512 0.930 . S
C459 N457 1.279 . S
C459 C458 1.358 . S
C459 H463 0.930 . S
C460 C458 1.356 . S
C460 C461 1.348 . S
C461 C456 1.353 . S
C461 C460 1.348 . S
C461 H513 0.929 . S
H462 C456 0.930 . S
H463 C459 0.930 . S
C464 N465 1.314 . S
C464 C466 1.353 . S
C464 H470 0.930 . S
N465 Li441 1.990 . S
N465 C464 1.314 . S
N465 C468 1.279 . S
C466 C464 1.353 . S
C466 C469 1.348 . S
C466 H514 0.929 . S
C467 C468 1.358 . S
C467 C469 1.356 . S
C467 H515 0.930 . S
C468 N465 1.279 . S
C468 C467 1.358 . S
C468 H471 0.930 . S
C469 C466 1.348 . S
C469 C467 1.356 . S
H470 C464 0.930 . S
H471 C468 0.930 . S
C472 C474 1.348 . S
C472 C475 1.356 . S
C472 O502 1.325 . S
N473 C476 1.314 . S
N473 C477 1.279 . S
C474 C472 1.348 . S
C474 C476 1.353 . S
C474 H516 0.929 . S
C475 C472 1.356 . S
C475 C477 1.358 . S
C475 H517 0.930 . S
C476 N473 1.314 . S
C476 C474 1.353 . S
C476 H518 0.930 . S
C477 N473 1.279 . S
C477 C475 1.358 . S
C477 H519 0.930 . S
C478 C479 1.348 1_556 S
C478 C480 1.356 . S
C478 O503 1.325 . S
C479 C478 1.348 1_554 S
C479 C481 1.353 . S
C479 H520 0.929 . S
C480 C478 1.356 . S
C480 C482 1.358 1_556 S
C480 H521 0.930 . S
C481 C479 1.353 . S
C481 N483 1.314 . S
C481 H522 0.930 . S
C482 C480 1.358 1_554 S
C482 N483 1.279 . S
C482 H523 0.930 . S
N483 C481 1.314 . S
N483 C482 1.279 . S
C484 C486 1.353 . S
C484 N487 1.314 1_554 S
C484 H490 0.930 . S
C485 N487 1.279 . S
C485 C488 1.358 1_556 S
C485 H491 0.930 . S
C486 C484 1.353 . S
C486 C489 1.348 . S
C486 H524 0.929 . S
N487 Li442 1.990 . S
N487 C484 1.314 1_556 S
N487 C485 1.279 . S
C488 C485 1.358 1_554 S
C488 C489 1.356 . S
C488 H525 0.930 . S
C489 C486 1.348 . S
C489 C488 1.356 . S
H490 C484 0.930 . S
H491 C485 0.930 . S
C492 N493 1.314 . S
C492 C494 1.353 . S
C492 H498 0.930 . S
N493 Li443 1.990 . S
N493 C492 1.314 . S
N493 C496 1.279 . S
C494 C492 1.353 . S
C494 C497 1.348 . S
C494 H526 0.929 . S
C495 C496 1.358 . S
C495 C497 1.356 . S
C495 H527 0.930 . S
C496 N493 1.279 . S
C496 C495 1.358 . S
C496 H499 0.930 . S
C497 C494 1.348 . S
C497 C495 1.356 . S
H498 C492 0.930 . S
H499 C496 0.930 . S
O500 Li440 1.956 . S
O500 Li441 1.970 . S
O500 Li442 1.961 . S
O500 C444 1.325 . S
O501 Li440 1.970 . S
O501 Li441 1.956 . S
O501 Li443 1.961 . S
O501 C450 1.325 . S
O502 Li440 1.961 . S
O502 Li442 1.956 . S
O502 Li443 1.970 . S
O502 C472 1.325 . S
O503 Li441 1.961 . S
O503 Li442 1.970 . S
O503 Li443 1.956 . S
O503 C478 1.325 . S
H504 C446 0.929 . S
H505 C447 0.930 . S
H506 C448 0.930 . S
H507 C449 0.930 . S
H508 C451 0.930 . S
H509 C453 0.929 . S
H510 C454 0.930 . S
H511 C455 0.930 . S
H512 C458 0.930 . S
H513 C461 0.929 . S
H514 C466 0.929 . S
H515 C467 0.930 . S
H516 C474 0.929 . S
H517 C475 0.930 . S
H518 C476 0.930 . S
H519 C477 0.930 . S
H520 C479 0.929 . S
H521 C480 0.930 . S
H522 C481 0.930 . S
H523 C482 0.930 . S
H524 C486 0.929 . S
H525 C488 0.930 . S
H526 C494 0.929 . S
H527 C495 0.930 . S
Li528 N545 1.990 . S
Li528 O588 1.956 . S
Li528 O589 1.970 . S
Li528 O590 1.961 . S
Li529 N553 1.990 . S
Li529 O588 1.970 . S
Li529 O589 1.956 . S
Li529 O591 1.961 . S
Li530 N575 1.990 . S
Li530 O588 1.961 . S
Li530 O590 1.956 . S
Li530 O591 1.970 . S
Li531 N581 1.990 . S
Li531 O589 1.961 . S
Li531 O590 1.970 . S
Li531 O591 1.956 . S
C532 C534 1.348 . S
C532 C535 1.356 . S
C532 O588 1.325 . S
N533 C536 1.314 . S
N533 C537 1.279 1_554 S
C534 C532 1.348 . S
C534 C536 1.353 1_556 S
C534 H592 0.929 . S
C535 C532 1.356 . S
C535 C537 1.358 . S
C535 H593 0.930 . S
C536 N533 1.314 . S
C536 C534 1.353 1_554 S
C536 H594 0.930 . S
C537 N533 1.279 1_556 S
C537 C535 1.358 . S
C537 H595 0.930 . S
C538 C541 1.348 . S
C538 C542 1.356 . S
C538 O589 1.325 . S
C539 N540 1.279 . S
C539 C542 1.358 . S
C539 H596 0.930 . S
N540 C539 1.279 . S
N540 C543 1.314 . S
C541 C538 1.348 . S
C541 C543 1.353 . S
C541 H597 0.929 . S
C542 C538 1.356 . S
C542 C539 1.358 . S
C542 H598 0.930 . S
C543 N540 1.314 . S
C543 C541 1.353 . S
C543 H599 0.930 . S
C544 N545 1.314 . S
C544 C549 1.353 . S
C544 H550 0.930 . S
N545 Li528 1.990 . S
N545 C544 1.314 . S
N545 C547 1.279 . S
C546 C547 1.358 . S
C546 C548 1.356 . S
C546 H600 0.930 . S
C547 N545 1.279 . S
C547 C546 1.358 . S
C547 H551 0.930 . S
C548 C546 1.356 . S
C548 C549 1.348 . S
C549 C544 1.353 . S
C549 C548 1.348 . S
C549 H601 0.929 . S
H550 C544 0.930 . S
H551 C547 0.930 . S
C552 N553 1.295 1_554 S
C552 C554 1.379 . S
C552 H558 0.922 1_554 S
N553 Li529 1.990 . S
N553 C552 1.295 1_556 S
N553 C556 1.279 . S
C554 C552 1.379 . S
C554 C557 1.348 . S
C554 H602 0.929 . S
C555 C556 1.358 1_554 S
C555 C557 1.356 . S
C555 H603 0.930 . S
C556 N553 1.279 . S
C556 C555 1.358 1_556 S
C556 H559 0.930 . S
C557 C554 1.348 . S
C557 C555 1.356 . S
H558 C552 0.922 1_556 S
H559 C556 0.930 . S
C560 C562 1.348 . S
C560 C563 1.356 . S
C560 O590 1.325 . S
N561 C564 1.314 . S
N561 C565 1.279 . S
C562 C560 1.348 . S
C562 C564 1.353 . S
C562 H604 0.929 . S
C563 C560 1.356 . S
C563 C565 1.358 . S
C563 H605 0.930 . S
C564 N561 1.314 . S
C564 C562 1.353 . S
C564 H606 0.930 . S
C565 N561 1.279 . S
C565 C563 1.358 . S
C565 H607 0.930 . S
C566 C567 1.348 . S
C566 C568 1.356 . S
C566 O591 1.325 . S
C567 C566 1.348 . S
C567 C569 1.353 . S
C567 H608 0.929 . S
C568 C566 1.356 . S
C568 C570 1.358 . S
C568 H609 0.930 . S
C569 C567 1.353 . S
C569 N571 1.314 . S
C569 H610 0.930 . S
C570 C568 1.358 . S
C570 N571 1.279 . S
C570 H611 0.930 . S
N571 C569 1.314 . S
N571 C570 1.279 . S
C572 C574 1.353 . S
C572 N575 1.314 . S
C572 H578 0.930 . S
C573 N575 1.279 . S
C573 C576 1.358 . S
C573 H579 0.930 . S
C574 C572 1.353 . S
C574 C577 1.348 . S
C574 H612 0.929 . S
N575 Li530 1.990 . S
N575 C572 1.314 . S
N575 C573 1.279 . S
C576 C573 1.358 . S
C576 C577 1.356 . S
C576 H613 0.930 . S
C577 C574 1.348 . S
C577 C576 1.356 . S
H578 C572 0.930 . S
H579 C573 0.930 . S
C580 N581 1.314 . S
C580 C582 1.353 . S
C580 H586 0.930 . S
N581 Li531 1.990 . S
N581 C580 1.314 . S
N581 C584 1.279 . S
C582 C580 1.353 . S
C582 C585 1.348 . S
C582 H614 0.929 . S
C583 C584 1.358 . S
C583 C585 1.356 . S
C583 H615 0.930 . S
C584 N581 1.279 . S
C584 C583 1.358 . S
C584 H587 0.930 . S
C585 C582 1.348 . S
C585 C583 1.356 . S
H586 C580 0.930 . S
H587 C584 0.930 . S
O588 Li528 1.956 . S
O588 Li529 1.970 . S
O588 Li530 1.961 . S
O588 C532 1.325 . S
O589 Li528 1.970 . S
O589 Li529 1.956 . S
O589 Li531 1.961 . S
O589 C538 1.325 . S
O590 Li528 1.961 . S
O590 Li530 1.956 . S
O590 Li531 1.970 . S
O590 C560 1.325 . S
O591 Li529 1.961 . S
O591 Li530 1.970 . S
O591 Li531 1.956 . S
O591 C566 1.325 . S
H592 C534 0.929 . S
H593 C535 0.930 . S
H594 C536 0.930 . S
H595 C537 0.930 . S
H596 C539 0.930 . S
H597 C541 0.929 . S
H598 C542 0.930 . S
H599 C543 0.930 . S
H600 C546 0.930 . S
H601 C549 0.929 . S
H602 C554 0.929 . S
H603 C555 0.930 . S
H604 C562 0.929 . S
H605 C563 0.930 . S
H606 C564 0.930 . S
H607 C565 0.930 . S
H608 C567 0.929 . S
H609 C568 0.930 . S
H610 C569 0.930 . S
H611 C570 0.930 . S
H612 C574 0.929 . S
H613 C576 0.930 . S
H614 C582 0.929 . S
H615 C583 0.930 . S
Li616 N633 1.990 . S
Li616 O676 1.956 . S
Li616 O677 1.970 . S
Li616 O678 1.961 . S
Li617 N641 1.990 . S
Li617 O676 1.970 . S
Li617 O677 1.956 . S
Li617 O679 1.961 . S
Li618 N663 1.990 . S
Li618 O676 1.961 . S
Li618 O678 1.956 . S
Li618 O679 1.970 . S
Li619 N669 1.990 1_554 S
Li619 O677 1.961 . S
Li619 O678 1.970 . S
Li619 O679 1.956 . S
C620 C622 1.348 . S
C620 C623 1.356 . S
C620 O676 1.325 . S
N621 C624 1.314 . S
N621 C625 1.279 . S
C622 C620 1.348 . S
C622 C624 1.353 . S
C622 H680 0.929 . S
C623 C620 1.356 . S
C623 C625 1.358 . S
C623 H681 0.930 . S
C624 N621 1.314 . S
C624 C622 1.353 . S
C624 H682 0.930 . S
C625 N621 1.279 . S
C625 C623 1.358 . S
C625 H683 0.930 . S
C626 C629 1.348 . S
C626 C630 1.356 . S
C626 O677 1.325 . S
C627 N628 1.279 . S
C627 C630 1.358 . S
C627 H684 0.930 . S
N628 C627 1.279 . S
N628 C631 1.314 . S
C629 C626 1.348 . S
C629 C631 1.353 . S
C629 H685 0.929 . S
C630 C626 1.356 . S
C630 C627 1.358 . S
C630 H686 0.930 . S
C631 N628 1.314 . S
C631 C629 1.353 . S
C631 H687 0.930 . S
C632 N633 1.314 . S
C632 C637 1.353 . S
C632 H638 0.930 . S
N633 Li616 1.990 . S
N633 C632 1.314 . S
N633 C635 1.279 . S
C634 C635 1.358 . S
C634 C636 1.356 . S
C634 H688 0.930 . S
C635 N633 1.279 . S
C635 C634 1.358 . S
C635 H639 0.930 . S
C636 C634 1.356 . S
C636 C637 1.348 . S
C637 C632 1.353 . S
C637 C636 1.348 . S
C637 H689 0.929 1_554 S
H638 C632 0.930 . S
H639 C635 0.930 . S
C640 N641 1.314 . S
C640 C642 1.353 . S
C640 H646 0.930 . S
N641 Li617 1.990 . S
N641 C640 1.314 . S
N641 C644 1.279 . S
C642 C640 1.353 . S
C642 C645 1.348 . S
C642 H690 0.929 . S
C643 C644 1.358 . S
C643 C645 1.356 . S
C643 H691 0.930 . S
C644 N641 1.279 . S
C644 C643 1.358 . S
C644 H647 0.930 . S
C645 C642 1.348 . S
C645 C643 1.356 . S
H646 C640 0.930 . S
H647 C644 0.930 . S
C648 C650 1.348 . S
C648 C651 1.356 . S
C648 O678 1.325 1_556 S
N649 C652 1.314 . S
N649 C653 1.279 . S
C650 C648 1.348 . S
C650 C652 1.353 . S
C650 H692 0.929 . S
C651 C648 1.356 . S
C651 C653 1.358 . S
C651 H693 0.930 1_556 S
C652 N649 1.314 . S
C652 C650 1.353 . S
C652 H694 0.930 . S
C653 N649 1.279 . S
C653 C651 1.358 . S
C653 H695 0.930 . S
C654 C655 1.348 . S
C654 C656 1.356 . S
C654 O679 1.325 . S
C655 C654 1.348 . S
C655 C657 1.353 . S
C655 H696 0.929 . S
C656 C654 1.356 . S
C656 C658 1.358 . S
C656 H697 0.930 . S
C657 C655 1.353 . S
C657 N659 1.314 . S
C657 H698 0.930 . S
C658 C656 1.358 . S
C658 N659 1.279 . S
C658 H699 0.930 . S
N659 C657 1.314 . S
N659 C658 1.279 . S
C660 C662 1.353 . S
C660 N663 1.314 . S
C660 H666 0.930 . S
C661 N663 1.279 . S
C661 C664 1.358 . S
C661 H667 0.930 . S
C662 C660 1.353 . S
C662 C665 1.348 . S
C662 H700 0.929 . S
N663 Li618 1.990 . S
N663 C660 1.314 . S
N663 C661 1.279 . S
C664 C661 1.358 . S
C664 C665 1.356 . S
C664 H701 0.930 . S
C665 C662 1.348 . S
C665 C664 1.356 . S
H666 C660 0.930 . S
H667 C661 0.930 . S
C668 N669 1.314 . S
C668 C670 1.353 . S
C668 H674 0.930 . S
N669 Li619 1.990 1_556 S
N669 C668 1.314 . S
N669 C672 1.279 . S
C670 C668 1.353 . S
C670 C673 1.348 . S
C670 H702 0.929 . S
C671 C672 1.358 . S
C671 C673 1.356 . S
C671 H703 0.930 . S
C672 N669 1.279 . S
C672 C671 1.358 . S
C672 H675 0.930 . S
C673 C670 1.348 . S
C673 C671 1.356 . S
H674 C668 0.930 . S
H675 C672 0.930 . S
O676 Li616 1.956 . S
O676 Li617 1.970 . S
O676 Li618 1.961 . S
O676 C620 1.325 . S
O677 Li616 1.970 . S
O677 Li617 1.956 . S
O677 Li619 1.961 . S
O677 C626 1.325 . S
O678 Li616 1.961 . S
O678 Li618 1.956 . S
O678 Li619 1.970 . S
O678 C648 1.325 1_554 S
O679 Li617 1.961 . S
O679 Li618 1.970 . S
O679 Li619 1.956 . S
O679 C654 1.325 . S
H680 C622 0.929 . S
H681 C623 0.930 . S
H682 C624 0.930 . S
H683 C625 0.930 . S
H684 C627 0.930 . S
H685 C629 0.929 . S
H686 C630 0.930 . S
H687 C631 0.930 . S
H688 C634 0.930 . S
H689 C637 0.929 1_556 S
H690 C642 0.929 . S
H691 C643 0.930 . S
H692 C650 0.929 . S
H693 C651 0.930 1_554 S
H694 C652 0.930 . S
H695 C653 0.930 . S
H696 C655 0.929 . S
H697 C656 0.930 . S
H698 C657 0.930 . S
H699 C658 0.930 . S
H700 C662 0.929 . S
H701 C664 0.930 . S
H702 C670 0.929 . S
H703 C671 0.930 . S
Li704 N721 1.990 . S
Li704 O764 1.956 . S
Li704 O765 1.970 . S
Li704 O766 1.961 . S
Li705 N729 1.990 . S
Li705 O764 1.970 . S
Li705 O765 1.956 . S
Li705 O767 1.961 . S
Li706 N751 1.990 . S
Li706 O764 1.961 . S
Li706 O766 1.956 . S
Li706 O767 1.970 . S
Li707 N757 1.990 . S
Li707 O765 1.961 . S
Li707 O766 1.970 . S
Li707 O767 1.956 . S
C708 C710 1.348 . S
C708 C711 1.356 . S
C708 O764 1.325 . S
N709 C712 1.314 . S
N709 C713 1.279 . S
C710 C708 1.348 . S
C710 C712 1.353 . S
C710 H768 0.929 . S
C711 C708 1.356 . S
C711 C713 1.358 . S
C711 H769 0.930 . S
C712 N709 1.314 . S
C712 C710 1.353 . S
C712 H770 0.930 . S
C713 N709 1.279 . S
C713 C711 1.358 . S
C713 H771 0.930 . S
C714 C717 1.348 . S
C714 C718 1.356 . S
C714 O765 1.325 . S
C715 N716 1.279 . S
C715 C718 1.358 . S
C715 H772 0.930 . S
N716 C715 1.279 . S
N716 C719 1.314 . S
C717 C714 1.348 . S
C717 C719 1.353 . S
C717 H773 0.929 . S
C718 C714 1.356 . S
C718 C715 1.358 . S
C718 H774 0.930 . S
C719 N716 1.314 . S
C719 C717 1.353 . S
C719 H775 0.930 . S
C720 N721 1.314 . S
C720 C725 1.353 . S
C720 H726 0.930 . S
N721 Li704 1.990 . S
N721 C720 1.314 . S
N721 C723 1.279 . S
C722 C723 1.358 . S
C722 C724 1.356 . S
C722 H776 0.930 . S
C723 N721 1.279 . S
C723 C722 1.358 . S
C723 H727 0.930 . S
C724 C722 1.356 . S
C724 C725 1.348 . S
C725 C720 1.353 . S
C725 C724 1.348 . S
C725 H777 0.929 . S
H726 C720 0.930 . S
H727 C723 0.930 . S
C728 N729 1.314 . S
C728 C730 1.353 . S
C728 H734 0.930 . S
N729 Li705 1.990 . S
N729 C728 1.314 . S
N729 C732 1.279 . S
C730 C728 1.353 . S
C730 C733 1.348 . S
C730 H778 0.929 . S
C731 C732 1.358 . S
C731 C733 1.356 . S
C731 H779 0.930 . S
C732 N729 1.279 . S
C732 C731 1.358 . S
C732 H735 0.930 . S
C733 C730 1.348 . S
C733 C731 1.356 . S
H734 C728 0.930 . S
H735 C732 0.930 . S
C736 C738 1.348 . S
C736 C739 1.356 . S
C736 O766 1.325 . S
N737 C740 1.314 . S
N737 C741 1.279 . S
C738 C736 1.348 . S
C738 C740 1.353 . S
C738 H780 0.929 . S
C739 C736 1.356 . S
C739 C741 1.358 . S
C739 H781 0.930 . S
C740 N737 1.314 . S
C740 C738 1.353 . S
C740 H782 0.930 . S
C741 N737 1.279 . S
C741 C739 1.358 . S
C741 H783 0.930 . S
C742 C743 1.348 . S
C742 C744 1.356 . S
C742 O767 1.325 . S
C743 C742 1.348 . S
C743 C745 1.353 . S
C743 H784 0.929 . S
C744 C742 1.356 . S
C744 C746 1.358 . S
C744 H785 0.930 . S
C745 C743 1.353 . S
C745 N747 1.314 . S
C745 H786 0.930 . S
C746 C744 1.358 . S
C746 N747 1.279 . S
C746 H787 0.930 . S
N747 C745 1.314 . S
N747 C746 1.279 . S
C748 C750 1.353 . S
C748 N751 1.314 . S
C748 H754 0.930 . S
C749 N751 1.279 . S
C749 C752 1.358 . S
C749 H755 0.930 . S
C750 C748 1.353 . S
C750 C753 1.348 . S
C750 H788 0.929 . S
N751 Li706 1.990 . S
N751 C748 1.314 . S
N751 C749 1.279 . S
C752 C749 1.358 . S
C752 C753 1.356 . S
C752 H789 0.930 . S
C753 C750 1.348 . S
C753 C752 1.356 . S
H754 C748 0.930 . S
H755 C749 0.930 . S
C756 N757 1.314 . S
C756 C758 1.353 . S
C756 H762 0.930 . S
N757 Li707 1.990 . S
N757 C756 1.314 . S
N757 C760 1.279 . S
C758 C756 1.353 . S
C758 C761 1.348 . S
C758 H790 0.929 . S
C759 C760 1.358 . S
C759 C761 1.356 . S
C759 H791 0.930 . S
C760 N757 1.279 . S
C760 C759 1.358 . S
C760 H763 0.930 . S
C761 C758 1.348 . S
C761 C759 1.356 . S
H762 C756 0.930 . S
H763 C760 0.930 . S
O764 Li704 1.956 . S
O764 Li705 1.970 . S
O764 Li706 1.961 . S
O764 C708 1.325 . S
O765 Li704 1.970 . S
O765 Li705 1.956 . S
O765 Li707 1.961 . S
O765 C714 1.325 . S
O766 Li704 1.961 . S
O766 Li706 1.956 . S
O766 Li707 1.970 . S
O766 C736 1.325 . S
O767 Li705 1.961 . S
O767 Li706 1.970 . S
O767 Li707 1.956 . S
O767 C742 1.325 . S
H768 C710 0.929 . S
H769 C711 0.930 . S
H770 C712 0.930 . S
H771 C713 0.930 . S
H772 C715 0.930 . S
H773 C717 0.929 . S
H774 C718 0.930 . S
H775 C719 0.930 . S
H776 C722 0.930 . S
H777 C725 0.929 . S
H778 C730 0.929 . S
H779 C731 0.930 . S
H780 C738 0.929 . S
H781 C739 0.930 . S
H782 C740 0.930 . S
H783 C741 0.930 . S
H784 C743 0.929 . S
H785 C744 0.930 . S
H786 C745 0.930 . S
H787 C746 0.930 . S
H788 C750 0.929 . S
H789 C752 0.930 . S
H790 C758 0.929 . S
H791 C759 0.930 . S
Li792 N809 1.990 . S
Li792 O852 1.956 . S
Li792 O853 1.970 . S
Li792 O854 1.961 . S
Li793 N817 1.990 . S
Li793 O852 1.970 . S
Li793 O853 1.956 . S
Li793 O855 1.961 . S
Li794 N839 1.990 . S
Li794 O852 1.961 . S
Li794 O854 1.956 . S
Li794 O855 1.970 . S
Li795 N845 1.990 . S
Li795 O853 1.961 . S
Li795 O854 1.970 . S
Li795 O855 1.956 . S
C796 C798 1.348 . S
C796 C799 1.356 . S
C796 O852 1.325 . S
N797 C800 1.314 . S
N797 C801 1.279 . S
C798 C796 1.348 . S
C798 C800 1.353 . S
C798 H856 0.929 . S
C799 C796 1.356 . S
C799 C801 1.358 . S
C799 H857 0.930 . S
C800 N797 1.314 . S
C800 C798 1.353 . S
C800 H858 0.930 . S
C801 N797 1.279 . S
C801 C799 1.358 . S
C801 H859 0.930 . S
C802 C805 1.348 . S
C802 C806 1.356 . S
C802 O853 1.325 . S
C803 N804 1.279 . S
C803 C806 1.358 . S
C803 H860 0.930 . S
N804 C803 1.279 . S
N804 C807 1.314 . S
C805 C802 1.348 . S
C805 C807 1.353 . S
C805 H861 0.929 . S
C806 C802 1.356 . S
C806 C803 1.358 . S
C806 H862 0.930 . S
C807 N804 1.314 . S
C807 C805 1.353 . S
C807 H863 0.930 . S
C808 N809 1.314 . S
C808 C813 1.353 . S
C808 H814 0.930 . S
N809 Li792 1.990 . S
N809 C808 1.314 . S
N809 C811 1.279 . S
C810 C811 1.358 . S
C810 C812 1.356 . S
C810 H864 0.930 . S
C811 N809 1.279 . S
C811 C810 1.358 . S
C811 H815 0.930 . S
C812 C810 1.356 . S
C812 C813 1.348 . S
C813 C808 1.353 . S
C813 C812 1.348 . S
C813 H865 0.929 . S
H814 C808 0.930 . S
H815 C811 0.930 . S
C816 N817 1.314 . S
C816 C818 1.353 . S
C816 H822 0.930 . S
N817 Li793 1.990 . S
N817 C816 1.314 . S
N817 C820 1.279 . S
C818 C816 1.353 . S
C818 C821 1.348 . S
C818 H866 0.929 . S
C819 C820 1.358 . S
C819 C821 1.356 . S
C819 H867 0.930 . S
C820 N817 1.279 . S
C820 C819 1.358 . S
C820 H823 0.930 . S
C821 C818 1.348 . S
C821 C819 1.356 . S
H822 C816 0.930 . S
H823 C820 0.930 . S
C824 C826 1.348 . S
C824 C827 1.356 . S
C824 O854 1.325 . S
N825 C828 1.314 . S
N825 C829 1.279 . S
C826 C824 1.348 . S
C826 C828 1.353 . S
C826 H868 0.929 . S
C827 C824 1.356 . S
C827 C829 1.358 . S
C827 H869 0.930 . S
C828 N825 1.314 . S
C828 C826 1.353 . S
C828 H870 0.930 . S
C829 N825 1.279 . S
C829 C827 1.358 . S
C829 H871 0.930 . S
C830 C831 1.348 . S
C830 C832 1.356 . S
C830 O855 1.325 . S
C831 C830 1.348 . S
C831 C833 1.353 . S
C831 H872 0.929 . S
C832 C830 1.356 . S
C832 C834 1.358 . S
C832 H873 0.930 . S
C833 C831 1.353 . S
C833 N835 1.314 . S
C833 H874 0.930 . S
C834 C832 1.358 . S
C834 N835 1.279 . S
C834 H875 0.930 . S
N835 C833 1.314 . S
N835 C834 1.279 . S
C836 C838 1.353 . S
C836 N839 1.314 . S
C836 H842 0.930 . S
C837 N839 1.279 . S
C837 C840 1.358 . S
C837 H843 0.930 . S
C838 C836 1.353 . S
C838 C841 1.348 . S
C838 H876 0.929 . S
N839 Li794 1.990 . S
N839 C836 1.314 . S
N839 C837 1.279 . S
C840 C837 1.358 . S
C840 C841 1.356 . S
C840 H877 0.930 . S
C841 C838 1.348 . S
C841 C840 1.356 . S
H842 C836 0.930 . S
H843 C837 0.930 . S
C844 N845 1.314 . S
C844 C846 1.353 . S
C844 H850 0.930 . S
N845 Li795 1.990 . S
N845 C844 1.314 . S
N845 C848 1.279 . S
C846 C844 1.353 . S
C846 C849 1.348 . S
C846 H878 0.929 . S
C847 C848 1.358 . S
C847 C849 1.356 . S
C847 H879 0.930 . S
C848 N845 1.279 . S
C848 C847 1.358 . S
C848 H851 0.930 . S
C849 C846 1.348 . S
C849 C847 1.356 . S
H850 C844 0.930 . S
H851 C848 0.930 . S
O852 Li792 1.956 . S
O852 Li793 1.970 . S
O852 Li794 1.961 . S
O852 C796 1.325 . S
O853 Li792 1.970 . S
O853 Li793 1.956 . S
O853 Li795 1.961 . S
O853 C802 1.325 . S
O854 Li792 1.961 . S
O854 Li794 1.956 . S
O854 Li795 1.970 . S
O854 C824 1.325 . S
O855 Li793 1.961 . S
O855 Li794 1.970 . S
O855 Li795 1.956 . S
O855 C830 1.325 . S
H856 C798 0.929 . S
H857 C799 0.930 . S
H858 C800 0.930 . S
H859 C801 0.930 . S
H860 C803 0.930 . S
H861 C805 0.929 . S
H862 C806 0.930 . S
H863 C807 0.930 . S
H864 C810 0.930 . S
H865 C813 0.929 . S
H866 C818 0.929 . S
H867 C819 0.930 . S
H868 C826 0.929 . S
H869 C827 0.930 . S
H870 C828 0.930 . S
H871 C829 0.930 . S
H872 C831 0.929 . S
H873 C832 0.930 . S
H874 C833 0.930 . S
H875 C834 0.930 . S
H876 C838 0.929 . S
H877 C840 0.930 . S
H878 C846 0.929 . S
H879 C847 0.930 . S
Li880 N897 1.990 . S
Li880 O940 1.956 . S
Li880 O941 1.970 . S
Li880 O942 1.961 . S
Li881 N905 1.990 . S
Li881 O940 1.970 . S
Li881 O941 1.956 . S
Li881 O943 1.961 . S
Li882 N927 1.990 . S
Li882 O940 1.961 . S
Li882 O942 1.956 . S
Li882 O943 1.970 . S
Li883 N933 1.990 . S
Li883 O941 1.961 . S
Li883 O942 1.970 . S
Li883 O943 1.956 . S
C884 C886 1.348 . S
C884 C887 1.356 . S
C884 O940 1.325 . S
N885 C888 1.314 . S
N885 C889 1.279 . S
C886 C884 1.348 . S
C886 C888 1.353 . S
C886 H944 0.929 . S
C887 C884 1.356 . S
C887 C889 1.358 . S
C887 H945 0.930 . S
C888 N885 1.314 . S
C888 C886 1.353 . S
C888 H946 0.930 . S
C889 N885 1.279 . S
C889 C887 1.358 . S
C889 H947 0.930 . S
C890 C893 1.348 . S
C890 C894 1.356 . S
C890 O941 1.325 . S
C891 N892 1.279 . S
C891 C894 1.358 . S
C891 H948 0.930 . S
N892 C891 1.279 . S
N892 C895 1.314 . S
C893 C890 1.348 . S
C893 C895 1.353 . S
C893 H949 0.929 . S
C894 C890 1.356 . S
C894 C891 1.358 . S
C894 H950 0.930 . S
C895 N892 1.314 . S
C895 C893 1.353 . S
C895 H951 0.930 . S
C896 N897 1.314 . S
C896 C901 1.353 . S
C896 H902 0.930 . S
N897 Li880 1.990 . S
N897 C896 1.314 . S
N897 C899 1.279 . S
C898 C899 1.358 . S
C898 C900 1.356 . S
C898 H952 0.930 . S
C899 N897 1.279 . S
C899 C898 1.358 . S
C899 H903 0.930 . S
C900 C898 1.356 . S
C900 C901 1.348 . S
C901 C896 1.353 . S
C901 C900 1.348 . S
C901 H953 0.929 . S
H902 C896 0.930 . S
H903 C899 0.930 . S
C904 N905 1.314 . S
C904 C906 1.353 . S
C904 H910 0.930 . S
N905 Li881 1.990 . S
N905 C904 1.314 . S
N905 C908 1.279 . S
C906 C904 1.353 . S
C906 C909 1.348 . S
C906 H954 0.929 . S
C907 C908 1.358 . S
C907 C909 1.356 . S
C907 H955 0.930 . S
C908 N905 1.279 . S
C908 C907 1.358 . S
C908 H911 0.930 . S
C909 C906 1.348 . S
C909 C907 1.356 . S
H910 C904 0.930 . S
H911 C908 0.930 . S
C912 C914 1.348 . S
C912 C915 1.356 . S
C912 O942 1.325 . S
N913 C916 1.314 . S
N913 C917 1.279 . S
C914 C912 1.348 . S
C914 C916 1.353 . S
C914 H956 0.929 . S
C915 C912 1.356 . S
C915 C917 1.358 . S
C915 H957 0.930 . S
C916 N913 1.314 . S
C916 C914 1.353 . S
C916 H958 0.930 . S
C917 N913 1.279 . S
C917 C915 1.358 . S
C917 H959 0.930 . S
C918 C919 1.348 . S
C918 C920 1.356 . S
C918 O943 1.325 . S
C919 C918 1.348 . S
C919 C921 1.353 . S
C919 H960 0.929 . S
C920 C918 1.356 . S
C920 C922 1.358 . S
C920 H961 0.930 . S
C921 C919 1.353 . S
C921 N923 1.314 . S
C921 H962 0.930 . S
C922 C920 1.358 . S
C922 N923 1.279 . S
C922 H963 0.930 . S
N923 C921 1.314 . S
N923 C922 1.279 . S
C924 C926 1.353 . S
C924 N927 1.314 . S
C924 H930 0.930 . S
C925 N927 1.279 . S
C925 C928 1.358 . S
C925 H931 0.930 . S
C926 C924 1.353 . S
C926 C929 1.348 . S
C926 H964 0.929 . S
N927 Li882 1.990 . S
N927 C924 1.314 . S
N927 C925 1.279 . S
C928 C925 1.358 . S
C928 C929 1.356 . S
C928 H965 0.930 . S
C929 C926 1.348 . S
C929 C928 1.356 . S
H930 C924 0.930 . S
H931 C925 0.930 . S
C932 N933 1.314 . S
C932 C934 1.353 . S
C932 H938 0.930 . S
N933 Li883 1.990 . S
N933 C932 1.314 . S
N933 C936 1.279 . S
C934 C932 1.353 . S
C934 C937 1.348 . S
C934 H966 0.929 . S
C935 C936 1.358 . S
C935 C937 1.356 . S
C935 H967 0.930 . S
C936 N933 1.279 . S
C936 C935 1.358 . S
C936 H939 0.930 . S
C937 C934 1.348 . S
C937 C935 1.356 . S
H938 C932 0.930 . S
H939 C936 0.930 . S
O940 Li880 1.956 . S
O940 Li881 1.970 . S
O940 Li882 1.961 . S
O940 C884 1.325 . S
O941 Li880 1.970 . S
O941 Li881 1.956 . S
O941 Li883 1.961 . S
O941 C890 1.325 . S
O942 Li880 1.961 . S
O942 Li882 1.956 . S
O942 Li883 1.970 . S
O942 C912 1.325 . S
O943 Li881 1.961 . S
O943 Li882 1.970 . S
O943 Li883 1.956 . S
O943 C918 1.325 . S
H944 C886 0.929 . S
H945 C887 0.930 . S
H946 C888 0.930 . S
H947 C889 0.930 . S
H948 C891 0.930 . S
H949 C893 0.929 . S
H950 C894 0.930 . S
H951 C895 0.930 . S
H952 C898 0.930 . S
H953 C901 0.929 . S
H954 C906 0.929 . S
H955 C907 0.930 . S
H956 C914 0.929 . S
H957 C915 0.930 . S
H958 C916 0.930 . S
H959 C917 0.930 . S
H960 C919 0.929 . S
H961 C920 0.930 . S
H962 C921 0.930 . S
H963 C922 0.930 . S
H964 C926 0.929 . S
H965 C928 0.930 . S
H966 C934 0.929 . S
H967 C935 0.930 . S
Li968 N985 1.990 . S
Li968 O1028 1.956 . S
Li968 O1029 1.970 . S
Li968 O1030 1.961 . S
Li969 N993 1.990 . S
Li969 O1028 1.970 . S
Li969 O1029 1.956 . S
Li969 O1031 1.961 . S
Li970 N1015 1.990 . S
Li970 O1028 1.961 . S
Li970 O1030 1.956 . S
Li970 O1031 1.970 . S
Li971 N1021 1.990 . S
Li971 O1029 1.961 . S
Li971 O1030 1.970 . S
Li971 O1031 1.956 . S
C972 C974 1.348 . S
C972 C975 1.356 . S
C972 O1028 1.325 . S
N973 C976 1.314 . S
N973 C977 1.279 . S
C974 C972 1.348 . S
C974 C976 1.353 . S
C974 H1032 0.929 . S
C975 C972 1.356 . S
C975 C977 1.358 . S
C975 H1033 0.930 . S
C976 N973 1.314 . S
C976 C974 1.353 . S
C976 H1034 0.930 . S
C977 N973 1.279 . S
C977 C975 1.358 . S
C977 H1035 0.930 . S
C978 C981 1.348 . S
C978 C982 1.356 . S
C978 O1029 1.325 . S
C979 N980 1.279 . S
C979 C982 1.358 . S
C979 H1036 0.930 . S
N980 C979 1.279 . S
N980 C983 1.314 . S
C981 C978 1.348 . S
C981 C983 1.353 . S
C981 H1037 0.929 . S
C982 C978 1.356 . S
C982 C979 1.358 . S
C982 H1038 0.930 . S
C983 N980 1.314 . S
C983 C981 1.353 . S
C983 H1039 0.930 . S
C984 N985 1.314 . S
C984 C989 1.353 . S
C984 H990 0.930 . S
N985 Li968 1.990 . S
N985 C984 1.314 . S
N985 C987 1.279 . S
C986 C987 1.358 . S
C986 C988 1.356 . S
C986 H1040 0.930 . S
C987 N985 1.279 . S
C987 C986 1.358 . S
C987 H991 0.930 . S
C988 C986 1.356 . S
C988 C989 1.348 . S
C989 C984 1.353 . S
C989 C988 1.348 . S
C989 H1041 0.929 . S
H990 C984 0.930 . S
H991 C987 0.930 . S
C992 N993 1.314 . S
C992 C994 1.353 . S
C992 H998 0.930 . S
N993 Li969 1.990 . S
N993 C992 1.314 . S
N993 C996 1.279 . S
C994 C992 1.353 . S
C994 C997 1.348 . S
C994 H1042 0.929 . S
C995 C996 1.358 . S
C995 C997 1.356 . S
C995 H1043 0.930 . S
C996 N993 1.279 . S
C996 C995 1.358 . S
C996 H999 0.930 . S
C997 C994 1.348 . S
C997 C995 1.356 . S
H998 C992 0.930 . S
H999 C996 0.930 . S
C1000 C1002 1.348 . S
C1000 C1003 1.356 . S
C1000 O1030 1.325 . S
N1001 C1004 1.314 . S
N1001 C1005 1.279 . S
C1002 C1000 1.348 . S
C1002 C1004 1.353 . S
C1002 H1044 0.929 . S
C1003 C1000 1.356 . S
C1003 C1005 1.358 . S
C1003 H1045 0.930 . S
C1004 N1001 1.314 . S
C1004 C1002 1.353 . S
C1004 H1046 0.930 . S
C1005 N1001 1.279 . S
C1005 C1003 1.358 . S
C1005 H1047 0.930 . S
C1006 C1007 1.348 . S
C1006 C1008 1.356 . S
C1006 O1031 1.325 . S
C1007 C1006 1.348 . S
C1007 C1009 1.353 . S
C1007 H1048 0.929 . S
C1008 C1006 1.356 . S
C1008 C1010 1.358 . S
C1008 H1049 0.930 . S
C1009 C1007 1.353 . S
C1009 N1011 1.314 . S
C1009 H1050 0.930 . S
C1010 C1008 1.358 . S
C1010 N1011 1.279 . S
C1010 H1051 0.930 . S
N1011 C1009 1.314 . S
N1011 C1010 1.279 . S
C1012 C1014 1.353 . S
C1012 N1015 1.314 . S
C1012 H1018 0.930 . S
C1013 N1015 1.279 . S
C1013 C1016 1.358 . S
C1013 H1019 0.930 . S
C1014 C1012 1.353 . S
C1014 C1017 1.348 . S
C1014 H1052 0.929 . S
N1015 Li970 1.990 . S
N1015 C1012 1.314 . S
N1015 C1013 1.279 . S
C1016 C1013 1.358 . S
C1016 C1017 1.356 . S
C1016 H1053 0.930 . S
C1017 C1014 1.348 . S
C1017 C1016 1.356 . S
H1018 C1012 0.930 . S
H1019 C1013 0.930 . S
C1020 N1021 1.314 . S
C1020 C1022 1.353 . S
C1020 H1026 0.930 . S
N1021 Li971 1.990 . S
N1021 C1020 1.314 . S
N1021 C1024 1.279 . S
C1022 C1020 1.353 . S
C1022 C1025 1.348 . S
C1022 H1054 0.929 . S
C1023 C1024 1.358 . S
C1023 C1025 1.356 . S
C1023 H1055 0.930 . S
C1024 N1021 1.279 . S
C1024 C1023 1.358 . S
C1024 H1027 0.930 . S
C1025 C1022 1.348 . S
C1025 C1023 1.356 . S
H1026 C1020 0.930 . S
H1027 C1024 0.930 . S
O1028 Li968 1.956 . S
O1028 Li969 1.970 . S
O1028 Li970 1.961 . S
O1028 C972 1.325 . S
O1029 Li968 1.970 . S
O1029 Li969 1.956 . S
O1029 Li971 1.961 . S
O1029 C978 1.325 . S
O1030 Li968 1.961 . S
O1030 Li970 1.956 . S
O1030 Li971 1.970 . S
O1030 C1000 1.325 . S
O1031 Li969 1.961 . S
O1031 Li970 1.970 . S
O1031 Li971 1.956 . S
O1031 C1006 1.325 . S
H1032 C974 0.929 . S
H1033 C975 0.930 . S
H1034 C976 0.930 . S
H1035 C977 0.930 . S
H1036 C979 0.930 . S
H1037 C981 0.929 . S
H1038 C982 0.930 . S
H1039 C983 0.930 . S
H1040 C986 0.930 . S
H1041 C989 0.929 . S
H1042 C994 0.929 . S
H1043 C995 0.930 . S
H1044 C1002 0.929 . S
H1045 C1003 0.930 . S
H1046 C1004 0.930 . S
H1047 C1005 0.930 . S
H1048 C1007 0.929 . S
H1049 C1008 0.930 . S
H1050 C1009 0.930 . S
H1051 C1010 0.930 . S
H1052 C1014 0.929 . S
H1053 C1016 0.930 . S
H1054 C1022 0.929 . S
H1055 C1023 0.930 . S
H1056 C1068 0.930 . S
H1057 C1070 0.930 . S
H1058 C1071 0.930 . S
H1059 C1075 0.959 . S
H1060 C1075 0.959 . S
H1061 C1075 0.961 . S
H1062 C1076 0.960 . S
H1063 C1076 0.961 . S
H1064 C1076 0.959 . S
H1065 C1079 0.929 . S
H1066 C1080 0.931 . S
H1067 C1082 0.930 . S
C1068 H1056 0.930 . S
C1068 C1069 1.399 . S
C1068 C1073 1.399 . S
C1069 C1068 1.399 . S
C1069 C1070 1.376 . S
C1070 H1057 0.930 . S
C1070 C1069 1.376 . S
C1070 C1071 1.388 . S
C1071 H1058 0.930 . S
C1071 C1070 1.388 . S
C1071 C1072 1.390 . S
C1072 C1071 1.390 . S
C1072 C1073 1.394 . S
C1072 C1078 1.465 . S
C1073 C1068 1.399 . S
C1073 C1072 1.394 . S
C1073 C1074 1.516 . S
C1074 C1073 1.516 . S
C1074 C1075 1.502 . S
C1074 C1076 1.561 . S
C1074 C1077 1.526 . S
C1075 H1059 0.959 . S
C1075 H1060 0.959 . S
C1075 H1061 0.961 . S
C1075 C1074 1.502 . S
C1076 H1062 0.960 . S
C1076 H1063 0.961 . S
C1076 H1064 0.959 . S
C1076 C1074 1.561 . S
C1077 C1074 1.526 . S
C1077 C1078 1.396 . S
C1077 C1082 1.390 . S
C1078 C1072 1.465 . S
C1078 C1077 1.396 . S
C1078 C1079 1.399 . S
C1079 H1065 0.929 . S
C1079 C1078 1.399 . S
C1079 C1080 1.385 . S
C1080 H1066 0.931 . S
C1080 C1079 1.385 . S
C1080 C1081 1.389 . S
C1081 C1080 1.389 . S
C1081 C1082 1.387 . S
C1082 H1067 0.930 . S
C1082 C1077 1.390 . S
C1082 C1081 1.387 . S
H1083 C1095 0.930 . S
H1084 C1097 0.930 . S
H1085 C1098 0.930 . S
H1086 C1102 0.959 . S
H1087 C1102 0.959 . S
H1088 C1102 0.961 . S
H1089 C1103 0.960 . S
H1090 C1103 0.961 . S
H1091 C1103 0.959 . S
H1092 C1106 0.929 . S
H1093 C1107 0.931 . S
H1094 C1109 0.930 . S
C1095 H1083 0.930 . S
C1095 C1096 1.399 . S
C1095 C1100 1.399 . S
C1096 C1095 1.399 . S
C1096 C1097 1.376 . S
C1097 H1084 0.930 . S
C1097 C1096 1.376 . S
C1097 C1098 1.388 . S
C1098 H1085 0.930 . S
C1098 C1097 1.388 . S
C1098 C1099 1.390 . S
C1099 C1098 1.390 . S
C1099 C1100 1.394 . S
C1099 C1105 1.465 . S
C1100 C1095 1.399 . S
C1100 C1099 1.394 . S
C1100 C1101 1.516 . S
C1101 C1100 1.516 . S
C1101 C1102 1.502 . S
C1101 C1103 1.561 . S
C1101 C1104 1.526 . S
C1102 H1086 0.959 . S
C1102 H1087 0.959 . S
C1102 H1088 0.961 . S
C1102 C1101 1.502 . S
C1103 H1089 0.960 . S
C1103 H1090 0.961 . S
C1103 H1091 0.959 . S
C1103 C1101 1.561 . S
C1104 C1101 1.526 . S
C1104 C1105 1.396 . S
C1104 C1109 1.390 . S
C1105 C1099 1.465 . S
C1105 C1104 1.396 . S
C1105 C1106 1.399 . S
C1106 H1092 0.929 . S
C1106 C1105 1.399 . S
C1106 C1107 1.385 . S
C1107 H1093 0.931 . S
C1107 C1106 1.385 . S
C1107 C1108 1.389 . S
C1108 C1107 1.389 . S
C1108 C1109 1.387 . S
C1109 H1094 0.930 . S
C1109 C1104 1.390 . S
C1109 C1108 1.387 . S
H1110 C1122 0.930 . S
H1111 C1124 0.930 . S
H1112 C1125 0.930 . S
H1113 C1129 0.959 . S
H1114 C1129 0.959 . S
H1115 C1129 0.961 . S
H1116 C1130 0.960 . S
H1117 C1130 0.961 . S
H1118 C1130 0.959 . S
H1119 C1133 0.929 . S
H1120 C1134 0.931 . S
H1121 C1136 0.930 . S
C1122 H1110 0.930 . S
C1122 C1123 1.399 . S
C1122 C1127 1.399 . S
C1123 C1122 1.399 . S
C1123 C1124 1.376 . S
C1124 H1111 0.930 . S
C1124 C1123 1.376 . S
C1124 C1125 1.388 . S
C1125 H1112 0.930 . S
C1125 C1124 1.388 . S
C1125 C1126 1.390 . S
C1126 C1125 1.390 . S
C1126 C1127 1.394 . S
C1126 C1132 1.465 . S
C1127 C1122 1.399 . S
C1127 C1126 1.394 . S
C1127 C1128 1.516 . S
C1128 C1127 1.516 . S
C1128 C1129 1.502 . S
C1128 C1130 1.561 . S
C1128 C1131 1.526 . S
C1129 H1113 0.959 . S
C1129 H1114 0.959 . S
C1129 H1115 0.961 . S
C1129 C1128 1.502 . S
C1130 H1116 0.960 . S
C1130 H1117 0.961 . S
C1130 H1118 0.959 . S
C1130 C1128 1.561 . S
C1131 C1128 1.526 . S
C1131 C1132 1.396 . S
C1131 C1136 1.390 . S
C1132 C1126 1.465 . S
C1132 C1131 1.396 . S
C1132 C1133 1.399 . S
C1133 H1119 0.929 . S
C1133 C1132 1.399 . S
C1133 C1134 1.385 . S
C1134 H1120 0.931 . S
C1134 C1133 1.385 . S
C1134 C1135 1.389 . S
C1135 C1134 1.389 . S
C1135 C1136 1.387 . S
C1136 H1121 0.930 . S
C1136 C1131 1.390 . S
C1136 C1135 1.387 . S
H1137 C1149 0.930 . S
H1138 C1151 0.930 . S
H1139 C1152 0.930 . S
H1140 C1156 0.959 . S
H1141 C1156 0.959 . S
H1142 C1156 0.961 . S
H1143 C1157 0.960 . S
H1144 C1157 0.961 . S
H1145 C1157 0.959 . S
H1146 C1160 0.929 . S
H1147 C1161 0.931 . S
H1148 C1163 0.930 . S
C1149 H1137 0.930 . S
C1149 C1150 1.399 . S
C1149 C1154 1.399 . S
C1150 C1149 1.399 . S
C1150 C1151 1.376 . S
C1151 H1138 0.930 . S
C1151 C1150 1.376 . S
C1151 C1152 1.388 . S
C1152 H1139 0.930 . S
C1152 C1151 1.388 . S
C1152 C1153 1.390 . S
C1153 C1152 1.390 . S
C1153 C1154 1.394 . S
C1153 C1159 1.465 . S
C1154 C1149 1.399 . S
C1154 C1153 1.394 . S
C1154 C1155 1.516 . S
C1155 C1154 1.516 . S
C1155 C1156 1.502 . S
C1155 C1157 1.561 . S
C1155 C1158 1.526 . S
C1156 H1140 0.959 . S
C1156 H1141 0.959 . S
C1156 H1142 0.961 . S
C1156 C1155 1.502 . S
C1157 H1143 0.960 . S
C1157 H1144 0.961 . S
C1157 H1145 0.959 . S
C1157 C1155 1.561 . S
C1158 C1155 1.526 . S
C1158 C1159 1.396 . S
C1158 C1163 1.390 . S
C1159 C1153 1.465 . S
C1159 C1158 1.396 . S
C1159 C1160 1.399 . S
C1160 H1146 0.929 . S
C1160 C1159 1.399 . S
C1160 C1161 1.385 . S
C1161 H1147 0.931 . S
C1161 C1160 1.385 . S
C1161 C1162 1.389 . S
C1162 C1161 1.389 . S
C1162 C1163 1.387 . S
C1163 H1148 0.930 . S
C1163 C1158 1.390 . S
C1163 C1162 1.387 . S
H1164 C1176 0.930 . S
H1165 C1178 0.930 . S
H1166 C1179 0.930 1_556 S
H1167 C1183 0.959 . S
H1168 C1183 0.959 . S
H1169 C1183 0.961 . S
H1170 C1184 0.960 . S
H1171 C1184 0.961 . S
H1172 C1184 0.959 . S
H1173 C1187 0.929 . S
H1174 C1188 0.931 . S
H1175 C1190 0.930 . S
C1176 H1164 0.930 . S
C1176 C1177 1.399 . S
C1176 C1181 1.399 . S
C1177 C1176 1.399 . S
C1177 C1178 1.376 . S
C1178 H1165 0.930 . S
C1178 C1177 1.376 . S
C1178 C1179 1.388 . S
C1179 H1166 0.930 1_554 S
C1179 C1178 1.388 . S
C1179 C1180 1.390 1_554 S
C1180 C1179 1.390 1_556 S
C1180 C1181 1.394 1_556 S
C1180 C1186 1.465 . S
C1181 C1176 1.399 . S
C1181 C1180 1.394 1_554 S
C1181 C1182 1.516 1_554 S
C1182 C1181 1.516 1_556 S
C1182 C1183 1.502 1_556 S
C1182 C1184 1.561 . S
C1182 C1185 1.526 . S
C1183 H1167 0.959 . S
C1183 H1168 0.959 . S
C1183 H1169 0.961 . S
C1183 C1182 1.502 1_554 S
C1184 H1170 0.960 . S
C1184 H1171 0.961 . S
C1184 H1172 0.959 . S
C1184 C1182 1.561 . S
C1185 C1182 1.526 . S
C1185 C1186 1.396 . S
C1185 C1190 1.390 . S
C1186 C1180 1.465 . S
C1186 C1185 1.396 . S
C1186 C1187 1.399 . S
C1187 H1173 0.929 . S
C1187 C1186 1.399 . S
C1187 C1188 1.385 . S
C1188 H1174 0.931 . S
C1188 C1187 1.385 . S
C1188 C1189 1.389 . S
C1189 C1188 1.389 . S
C1189 C1190 1.387 . S
C1190 H1175 0.930 . S
C1190 C1185 1.390 . S
C1190 C1189 1.387 . S
H1191 C1203 0.930 . S
H1192 C1205 0.930 . S
H1193 C1206 0.930 . S
H1194 C1210 0.959 . S
H1195 C1210 0.959 . S
H1196 C1210 0.961 . S
H1197 C1211 0.960 . S
H1198 C1211 0.961 . S
H1199 C1211 0.959 . S
H1200 C1214 0.929 . S
H1201 C1215 0.931 . S
H1202 C1217 0.930 . S
C1203 H1191 0.930 . S
C1203 C1204 1.399 . S
C1203 C1208 1.399 . S
C1204 C1203 1.399 . S
C1204 C1205 1.376 . S
C1205 H1192 0.930 . S
C1205 C1204 1.376 . S
C1205 C1206 1.388 . S
C1206 H1193 0.930 . S
C1206 C1205 1.388 . S
C1206 C1207 1.390 . S
C1207 C1206 1.390 . S
C1207 C1208 1.394 . S
C1207 C1213 1.465 . S
C1208 C1203 1.399 . S
C1208 C1207 1.394 . S
C1208 C1209 1.516 . S
C1209 C1208 1.516 . S
C1209 C1210 1.502 . S
C1209 C1211 1.561 . S
C1209 C1212 1.526 . S
C1210 H1194 0.959 . S
C1210 H1195 0.959 . S
C1210 H1196 0.961 . S
C1210 C1209 1.502 . S
C1211 H1197 0.960 . S
C1211 H1198 0.961 . S
C1211 H1199 0.959 . S
C1211 C1209 1.561 . S
C1212 C1209 1.526 . S
C1212 C1213 1.396 . S
C1212 C1217 1.390 . S
C1213 C1207 1.465 . S
C1213 C1212 1.396 . S
C1213 C1214 1.399 . S
C1214 H1200 0.929 . S
C1214 C1213 1.399 . S
C1214 C1215 1.385 . S
C1215 H1201 0.931 . S
C1215 C1214 1.385 . S
C1215 C1216 1.389 . S
C1216 C1215 1.389 . S
C1216 C1217 1.387 . S
C1217 H1202 0.930 . S
C1217 C1212 1.390 . S
C1217 C1216 1.387 . S
H1218 C1230 0.930 . S
H1219 C1232 0.930 . S
H1220 C1233 0.930 . S
H1221 C1237 0.959 . S
H1222 C1237 0.959 . S
H1223 C1237 0.961 . S
H1224 C1238 0.960 . S
H1225 C1238 0.961 . S
H1226 C1238 0.959 . S
H1227 C1241 0.929 . S
H1228 C1242 0.931 . S
H1229 C1244 0.930 . S
C1230 H1218 0.930 . S
C1230 C1231 1.399 . S
C1230 C1235 1.399 . S
C1231 C1230 1.399 . S
C1231 C1232 1.376 . S
C1232 H1219 0.930 . S
C1232 C1231 1.376 . S
C1232 C1233 1.388 . S
C1233 H1220 0.930 . S
C1233 C1232 1.388 . S
C1233 C1234 1.390 . S
C1234 C1233 1.390 . S
C1234 C1235 1.394 . S
C1234 C1240 1.465 . S
C1235 C1230 1.399 . S
C1235 C1234 1.394 . S
C1235 C1236 1.516 . S
C1236 C1235 1.516 . S
C1236 C1237 1.502 . S
C1236 C1238 1.561 . S
C1236 C1239 1.526 . S
C1237 H1221 0.959 . S
C1237 H1222 0.959 . S
C1237 H1223 0.961 . S
C1237 C1236 1.502 . S
C1238 H1224 0.960 . S
C1238 H1225 0.961 . S
C1238 H1226 0.959 . S
C1238 C1236 1.561 . S
C1239 C1236 1.526 . S
C1239 C1240 1.396 . S
C1239 C1244 1.390 . S
C1240 C1234 1.465 . S
C1240 C1239 1.396 . S
C1240 C1241 1.399 . S
C1241 H1227 0.929 . S
C1241 C1240 1.399 . S
C1241 C1242 1.385 . S
C1242 H1228 0.931 . S
C1242 C1241 1.385 . S
C1242 C1243 1.389 . S
C1243 C1242 1.389 . S
C1243 C1244 1.387 . S
C1244 H1229 0.930 . S
C1244 C1239 1.390 . S
C1244 C1243 1.387 . S
H1245 C1257 0.930 . S
H1246 C1259 0.930 . S
H1247 C1260 0.930 . S
H1248 C1264 0.959 . S
H1249 C1264 0.959 . S
H1250 C1264 0.961 . S
H1251 C1265 0.960 . S
H1252 C1265 0.961 . S
H1253 C1265 0.959 . S
H1254 C1268 0.929 . S
H1255 C1269 0.931 . S
H1256 C1271 0.930 . S
C1257 H1245 0.930 . S
C1257 C1258 1.399 . S
C1257 C1262 1.399 . S
C1258 C1257 1.399 . S
C1258 C1259 1.376 . S
C1259 H1246 0.930 . S
C1259 C1258 1.376 . S
C1259 C1260 1.388 . S
C1260 H1247 0.930 . S
C1260 C1259 1.388 . S
C1260 C1261 1.390 . S
C1261 C1260 1.390 . S
C1261 C1262 1.394 . S
C1261 C1267 1.465 . S
C1262 C1257 1.399 . S
C1262 C1261 1.394 . S
C1262 C1263 1.516 . S
C1263 C1262 1.516 . S
C1263 C1264 1.502 . S
C1263 C1265 1.561 . S
C1263 C1266 1.526 . S
C1264 H1248 0.959 . S
C1264 H1249 0.959 . S
C1264 H1250 0.961 . S
C1264 C1263 1.502 . S
C1265 H1251 0.960 . S
C1265 H1252 0.961 . S
C1265 H1253 0.959 . S
C1265 C1263 1.561 . S
C1266 C1263 1.526 . S
C1266 C1267 1.396 . S
C1266 C1271 1.390 . S
C1267 C1261 1.465 . S
C1267 C1266 1.396 . S
C1267 C1268 1.399 . S
C1268 H1254 0.929 . S
C1268 C1267 1.399 . S
C1268 C1269 1.385 . S
C1269 H1255 0.931 . S
C1269 C1268 1.385 . S
C1269 C1270 1.389 . S
C1270 C1269 1.389 . S
C1270 C1271 1.387 . S
C1271 H1256 0.930 . S
C1271 C1266 1.390 . S
C1271 C1270 1.387 . S
H1272 C1284 0.930 . S
H1273 C1286 0.930 . S
H1274 C1287 0.930 . S
H1275 C1291 0.959 . S
H1276 C1291 0.959 . S
H1277 C1291 0.961 . S
H1278 C1292 0.960 . S
H1279 C1292 0.961 . S
H1280 C1292 0.959 . S
H1281 C1295 0.929 . S
H1282 C1296 0.931 . S
H1283 C1298 0.930 . S
C1284 H1272 0.930 . S
C1284 C1285 1.399 . S
C1284 C1289 1.399 . S
C1285 C1284 1.399 . S
C1285 C1286 1.376 . S
C1286 H1273 0.930 . S
C1286 C1285 1.376 . S
C1286 C1287 1.388 . S
C1287 H1274 0.930 . S
C1287 C1286 1.388 . S
C1287 C1288 1.390 . S
C1288 C1287 1.390 . S
C1288 C1289 1.394 . S
C1288 C1294 1.465 . S
C1289 C1284 1.399 . S
C1289 C1288 1.394 . S
C1289 C1290 1.516 . S
C1290 C1289 1.516 . S
C1290 C1291 1.502 . S
C1290 C1292 1.561 . S
C1290 C1293 1.526 . S
C1291 H1275 0.959 . S
C1291 H1276 0.959 . S
C1291 H1277 0.961 . S
C1291 C1290 1.502 . S
C1292 H1278 0.960 . S
C1292 H1279 0.961 . S
C1292 H1280 0.959 . S
C1292 C1290 1.561 . S
C1293 C1290 1.526 . S
C1293 C1294 1.396 . S
C1293 C1298 1.390 . S
C1294 C1288 1.465 . S
C1294 C1293 1.396 . S
C1294 C1295 1.399 . S
C1295 H1281 0.929 . S
C1295 C1294 1.399 . S
C1295 C1296 1.385 . S
C1296 H1282 0.931 . S
C1296 C1295 1.385 . S
C1296 C1297 1.389 . S
C1297 C1296 1.389 . S
C1297 C1298 1.387 . S
C1298 H1283 0.930 . S
C1298 C1293 1.390 . S
C1298 C1297 1.387 . S
H1299 C1311 0.930 . S
H1300 C1313 0.930 . S
H1301 C1314 0.930 . S
H1302 C1318 0.959 . S
H1303 C1318 0.959 . S
H1304 C1318 0.961 . S
H1305 C1319 0.960 . S
H1306 C1319 0.961 . S
H1307 C1319 0.959 . S
H1308 C1322 0.929 . S
H1309 C1323 0.931 . S
H1310 C1325 0.930 . S
C1311 H1299 0.930 . S
C1311 C1312 1.399 . S
C1311 C1316 1.399 . S
C1312 C1311 1.399 . S
C1312 C1313 1.376 . S
C1313 H1300 0.930 . S
C1313 C1312 1.376 . S
C1313 C1314 1.388 . S
C1314 H1301 0.930 . S
C1314 C1313 1.388 . S
C1314 C1315 1.390 . S
C1315 C1314 1.390 . S
C1315 C1316 1.394 . S
C1315 C1321 1.465 . S
C1316 C1311 1.399 . S
C1316 C1315 1.394 . S
C1316 C1317 1.516 . S
C1317 C1316 1.516 . S
C1317 C1318 1.502 . S
C1317 C1319 1.561 . S
C1317 C1320 1.526 . S
C1318 H1302 0.959 . S
C1318 H1303 0.959 . S
C1318 H1304 0.961 . S
C1318 C1317 1.502 . S
C1319 H1305 0.960 . S
C1319 H1306 0.961 . S
C1319 H1307 0.959 . S
C1319 C1317 1.561 . S
C1320 C1317 1.526 . S
C1320 C1321 1.396 . S
C1320 C1325 1.390 . S
C1321 C1315 1.465 . S
C1321 C1320 1.396 . S
C1321 C1322 1.399 . S
C1322 H1308 0.929 . S
C1322 C1321 1.399 . S
C1322 C1323 1.385 . S
C1323 H1309 0.931 . S
C1323 C1322 1.385 . S
C1323 C1324 1.389 . S
C1324 C1323 1.389 . S
C1324 C1325 1.387 . S
C1325 H1310 0.930 . S
C1325 C1320 1.390 . S
C1325 C1324 1.387 . S
H1326 C1338 0.930 . S
H1327 C1340 0.930 . S
H1328 C1341 0.930 . S
H1329 C1345 0.959 . S
H1330 C1345 0.959 . S
H1331 C1345 0.961 . S
H1332 C1346 0.960 . S
H1333 C1346 0.961 . S
H1334 C1346 0.959 . S
H1335 C1349 0.929 . S
H1336 C1350 0.931 . S
H1337 C1352 0.930 . S
C1338 H1326 0.930 . S
C1338 C1339 1.399 . S
C1338 C1343 1.399 . S
C1339 C1338 1.399 . S
C1339 C1340 1.376 . S
C1340 H1327 0.930 . S
C1340 C1339 1.376 . S
C1340 C1341 1.388 . S
C1341 H1328 0.930 . S
C1341 C1340 1.388 . S
C1341 C1342 1.390 . S
C1342 C1341 1.390 . S
C1342 C1343 1.394 . S
C1342 C1348 1.465 . S
C1343 C1338 1.399 . S
C1343 C1342 1.394 . S
C1343 C1344 1.516 . S
C1344 C1343 1.516 . S
C1344 C1345 1.502 . S
C1344 C1346 1.561 . S
C1344 C1347 1.526 . S
C1345 H1329 0.959 . S
C1345 H1330 0.959 . S
C1345 H1331 0.961 . S
C1345 C1344 1.502 . S
C1346 H1332 0.960 . S
C1346 H1333 0.961 . S
C1346 H1334 0.959 . S
C1346 C1344 1.561 . S
C1347 C1344 1.526 . S
C1347 C1348 1.396 . S
C1347 C1352 1.390 . S
C1348 C1342 1.465 . S
C1348 C1347 1.396 . S
C1348 C1349 1.399 . S
C1349 H1335 0.929 . S
C1349 C1348 1.399 . S
C1349 C1350 1.385 . S
C1350 H1336 0.931 . S
C1350 C1349 1.385 . S
C1350 C1351 1.389 . S
C1351 C1350 1.389 . S
C1351 C1352 1.387 . S
C1352 H1337 0.930 . S
C1352 C1347 1.390 . S
C1352 C1351 1.387 . S
H1353 C1365 0.930 . S
H1354 C1367 0.930 . S
H1355 C1368 0.930 1_554 S
H1356 C1372 0.959 . S
H1357 C1372 0.959 . S
H1358 C1372 0.961 . S
H1359 C1373 0.960 . S
H1360 C1373 0.961 . S
H1361 C1373 0.959 . S
H1362 C1376 0.929 . S
H1363 C1377 0.931 . S
H1364 C1379 0.930 1_556 S
C1365 H1353 0.930 . S
C1365 C1366 1.399 . S
C1365 C1370 1.399 . S
C1366 C1365 1.399 . S
C1366 C1367 1.376 . S
C1367 H1354 0.930 . S
C1367 C1366 1.376 . S
C1367 C1368 1.388 . S
C1368 H1355 0.930 1_556 S
C1368 C1367 1.388 . S
C1368 C1369 1.390 . S
C1369 C1368 1.390 . S
C1369 C1370 1.394 . S
C1369 C1375 1.465 1_556 S
C1370 C1365 1.399 . S
C1370 C1369 1.394 . S
C1370 C1371 1.516 . S
C1371 C1370 1.516 . S
C1371 C1372 1.502 . S
C1371 C1373 1.561 . S
C1371 C1374 1.526 . S
C1372 H1356 0.959 . S
C1372 H1357 0.959 . S
C1372 H1358 0.961 . S
C1372 C1371 1.502 . S
C1373 H1359 0.960 . S
C1373 H1360 0.961 . S
C1373 H1361 0.959 . S
C1373 C1371 1.561 . S
C1374 C1371 1.526 . S
C1374 C1375 1.396 1_556 S
C1374 C1379 1.390 1_556 S
C1375 C1369 1.465 1_554 S
C1375 C1374 1.396 1_554 S
C1375 C1376 1.399 . S
C1376 H1362 0.929 . S
C1376 C1375 1.399 . S
C1376 C1377 1.385 . S
C1377 H1363 0.931 . S
C1377 C1376 1.385 . S
C1377 C1378 1.389 . S
C1378 C1377 1.389 . S
C1378 C1379 1.387 . S
C1379 H1364 0.930 1_554 S
C1379 C1374 1.390 1_554 S
C1379 C1378 1.387 . S
H1380 C1392 0.930 . S
H1381 C1394 0.930 . S
H1382 C1395 0.930 . S
H1383 C1399 0.959 . S
H1384 C1399 0.959 . S
H1385 C1399 0.961 . S
H1386 C1400 0.960 . S
H1387 C1400 0.961 . S
H1388 C1400 0.959 . S
H1389 C1403 0.929 . S
H1390 C1404 0.931 . S
H1391 C1406 0.930 . S
C1392 H1380 0.930 . S
C1392 C1393 1.399 . S
C1392 C1397 1.399 . S
C1393 C1392 1.399 . S
C1393 C1394 1.376 . S
C1394 H1381 0.930 . S
C1394 C1393 1.376 . S
C1394 C1395 1.388 . S
C1395 H1382 0.930 . S
C1395 C1394 1.388 . S
C1395 C1396 1.390 . S
C1396 C1395 1.390 . S
C1396 C1397 1.394 . S
C1396 C1402 1.465 . S
C1397 C1392 1.399 . S
C1397 C1396 1.394 . S
C1397 C1398 1.516 . S
C1398 C1397 1.516 . S
C1398 C1399 1.502 . S
C1398 C1400 1.561 . S
C1398 C1401 1.526 . S
C1399 H1383 0.959 . S
C1399 H1384 0.959 . S
C1399 H1385 0.961 . S
C1399 C1398 1.502 . S
C1400 H1386 0.960 . S
C1400 H1387 0.961 . S
C1400 H1388 0.959 . S
C1400 C1398 1.561 . S
C1401 C1398 1.526 . S
C1401 C1402 1.396 . S
C1401 C1406 1.390 . S
C1402 C1396 1.465 . S
C1402 C1401 1.396 . S
C1402 C1403 1.399 . S
C1403 H1389 0.929 . S
C1403 C1402 1.399 . S
C1403 C1404 1.385 . S
C1404 H1390 0.931 . S
C1404 C1403 1.385 . S
C1404 C1405 1.389 . S
C1405 C1404 1.389 . S
C1405 C1406 1.387 . S
C1406 H1391 0.930 . S
C1406 C1401 1.390 . S
C1406 C1405 1.387 . S
H1407 C1419 0.930 . S
H1408 C1421 0.930 . S
H1409 C1422 0.930 . S
H1410 C1426 0.959 . S
H1411 C1426 0.959 . S
H1412 C1426 0.961 . S
H1413 C1427 0.960 . S
H1414 C1427 0.961 . S
H1415 C1427 0.959 . S
H1416 C1430 0.929 . S
H1417 C1431 0.931 . S
H1418 C1433 0.930 . S
C1419 H1407 0.930 . S
C1419 C1420 1.399 . S
C1419 C1424 1.399 . S
C1420 C1419 1.399 . S
C1420 C1421 1.376 . S
C1421 H1408 0.930 . S
C1421 C1420 1.376 . S
C1421 C1422 1.388 . S
C1422 H1409 0.930 . S
C1422 C1421 1.388 . S
C1422 C1423 1.390 . S
C1423 C1422 1.390 . S
C1423 C1424 1.394 . S
C1423 C1429 1.465 1_556 S
C1424 C1419 1.399 . S
C1424 C1423 1.394 . S
C1424 C1425 1.516 . S
C1425 C1424 1.516 . S
C1425 C1426 1.502 . S
C1425 C1427 1.561 . S
C1425 C1428 1.526 1_556 S
C1426 H1410 0.959 . S
C1426 H1411 0.959 . S
C1426 H1412 0.961 . S
C1426 C1425 1.502 . S
C1427 H1413 0.960 . S
C1427 H1414 0.961 . S
C1427 H1415 0.959 . S
C1427 C1425 1.561 . S
C1428 C1425 1.526 1_554 S
C1428 C1429 1.396 . S
C1428 C1433 1.390 . S
C1429 C1423 1.465 1_554 S
C1429 C1428 1.396 . S
C1429 C1430 1.399 . S
C1430 H1416 0.929 . S
C1430 C1429 1.399 . S
C1430 C1431 1.385 . S
C1431 H1417 0.931 . S
C1431 C1430 1.385 . S
C1431 C1432 1.389 . S
C1432 C1431 1.389 . S
C1432 C1433 1.387 . S
C1433 H1418 0.930 . S
C1433 C1428 1.390 . S
C1433 C1432 1.387 . S
H1434 C1446 0.930 . S
H1435 C1448 0.930 . S
H1436 C1449 0.930 . S
H1437 C1453 0.959 . S
H1438 C1453 0.959 . S
H1439 C1453 0.961 . S
H1440 C1454 0.960 . S
H1441 C1454 0.961 . S
H1442 C1454 0.959 . S
H1443 C1457 0.929 . S
H1444 C1458 0.931 . S
H1445 C1460 0.930 . S
C1446 H1434 0.930 . S
C1446 C1447 1.399 . S
C1446 C1451 1.399 . S
C1447 C1446 1.399 . S
C1447 C1448 1.376 . S
C1448 H1435 0.930 . S
C1448 C1447 1.376 . S
C1448 C1449 1.388 . S
C1449 H1436 0.930 . S
C1449 C1448 1.388 . S
C1449 C1450 1.390 . S
C1450 C1449 1.390 . S
C1450 C1451 1.394 . S
C1450 C1456 1.465 . S
C1451 C1446 1.399 . S
C1451 C1450 1.394 . S
C1451 C1452 1.516 . S
C1452 C1451 1.516 . S
C1452 C1453 1.502 . S
C1452 C1454 1.561 . S
C1452 C1455 1.526 . S
C1453 H1437 0.959 . S
C1453 H1438 0.959 . S
C1453 H1439 0.961 . S
C1453 C1452 1.502 . S
C1454 H1440 0.960 . S
C1454 H1441 0.961 . S
C1454 H1442 0.959 . S
C1454 C1452 1.561 . S
C1455 C1452 1.526 . S
C1455 C1456 1.396 . S
C1455 C1460 1.390 . S
C1456 C1450 1.465 . S
C1456 C1455 1.396 . S
C1456 C1457 1.399 . S
C1457 H1443 0.929 . S
C1457 C1456 1.399 . S
C1457 C1458 1.385 . S
C1458 H1444 0.931 . S
C1458 C1457 1.385 . S
C1458 C1459 1.389 . S
C1459 C1458 1.389 . S
C1459 C1460 1.387 . S
C1460 H1445 0.930 . S
C1460 C1455 1.390 . S
C1460 C1459 1.387 . S
H1461 C1473 0.930 . S
H1462 C1475 0.930 . S
H1463 C1476 0.930 . S
H1464 C1480 0.959 . S
H1465 C1480 0.959 . S
H1466 C1480 0.961 . S
H1467 C1481 0.960 . S
H1468 C1481 0.961 . S
H1469 C1481 0.959 . S
H1470 C1484 0.929 . S
H1471 C1485 0.931 . S
H1472 C1487 0.930 . S
C1473 H1461 0.930 . S
C1473 C1474 1.399 . S
C1473 C1478 1.399 . S
C1474 C1473 1.399 . S
C1474 C1475 1.376 . S
C1475 H1462 0.930 . S
C1475 C1474 1.376 . S
C1475 C1476 1.388 . S
C1476 H1463 0.930 . S
C1476 C1475 1.388 . S
C1476 C1477 1.390 . S
C1477 C1476 1.390 . S
C1477 C1478 1.394 . S
C1477 C1483 1.465 . S
C1478 C1473 1.399 . S
C1478 C1477 1.394 . S
C1478 C1479 1.516 . S
C1479 C1478 1.516 . S
C1479 C1480 1.502 . S
C1479 C1481 1.561 . S
C1479 C1482 1.526 . S
C1480 H1464 0.959 . S
C1480 H1465 0.959 . S
C1480 H1466 0.961 . S
C1480 C1479 1.502 . S
C1481 H1467 0.960 . S
C1481 H1468 0.961 . S
C1481 H1469 0.959 . S
C1481 C1479 1.561 . S
C1482 C1479 1.526 . S
C1482 C1483 1.396 . S
C1482 C1487 1.390 . S
C1483 C1477 1.465 . S
C1483 C1482 1.396 . S
C1483 C1484 1.399 . S
C1484 H1470 0.929 . S
C1484 C1483 1.399 . S
C1484 C1485 1.385 . S
C1485 H1471 0.931 . S
C1485 C1484 1.385 . S
C1485 C1486 1.389 . S
C1486 C1485 1.389 . S
C1486 C1487 1.387 . S
C1487 H1472 0.930 . S
C1487 C1482 1.390 . S
C1487 C1486 1.387 . S
H1488 C1500 0.930 . S
H1489 C1502 0.930 . S
H1490 C1503 0.930 . S
H1491 C1507 0.959 . S
H1492 C1507 0.959 . S
H1493 C1507 0.961 . S
H1494 C1508 0.960 . S
H1495 C1508 0.961 . S
H1496 C1508 0.959 . S
H1497 C1511 0.929 . S
H1498 C1512 0.931 . S
H1499 C1514 0.930 . S
C1500 H1488 0.930 . S
C1500 C1501 1.399 . S
C1500 C1505 1.399 . S
C1501 C1500 1.399 . S
C1501 C1502 1.376 . S
C1502 H1489 0.930 . S
C1502 C1501 1.376 . S
C1502 C1503 1.388 . S
C1503 H1490 0.930 . S
C1503 C1502 1.388 . S
C1503 C1504 1.390 . S
C1504 C1503 1.390 . S
C1504 C1505 1.394 . S
C1504 C1510 1.465 . S
C1505 C1500 1.399 . S
C1505 C1504 1.394 . S
C1505 C1506 1.516 . S
C1506 C1505 1.516 . S
C1506 C1507 1.502 . S
C1506 C1508 1.561 . S
C1506 C1509 1.526 . S
C1507 H1491 0.959 . S
C1507 H1492 0.959 . S
C1507 H1493 0.961 . S
C1507 C1506 1.502 . S
C1508 H1494 0.960 . S
C1508 H1495 0.961 . S
C1508 H1496 0.959 . S
C1508 C1506 1.561 . S
C1509 C1506 1.526 . S
C1509 C1510 1.396 . S
C1509 C1514 1.390 . S
C1510 C1504 1.465 . S
C1510 C1509 1.396 . S
C1510 C1511 1.399 . S
C1511 H1497 0.929 . S
C1511 C1510 1.399 . S
C1511 C1512 1.385 . S
C1512 H1498 0.931 . S
C1512 C1511 1.385 . S
C1512 C1513 1.389 . S
C1513 C1512 1.389 . S
C1513 C1514 1.387 . S
C1514 H1499 0.930 . S
C1514 C1509 1.390 . S
C1514 C1513 1.387 . S
H1515 C1527 0.930 . S
H1516 C1529 0.930 . S
H1517 C1530 0.930 . S
H1518 C1534 0.959 . S
H1519 C1534 0.959 . S
H1520 C1534 0.961 . S
H1521 C1535 0.960 . S
H1522 C1535 0.961 . S
H1523 C1535 0.959 . S
H1524 C1538 0.929 . S
H1525 C1539 0.931 . S
H1526 C1541 0.930 . S
C1527 H1515 0.930 . S
C1527 C1528 1.399 . S
C1527 C1532 1.399 . S
C1528 C1527 1.399 . S
C1528 C1529 1.376 . S
C1529 H1516 0.930 . S
C1529 C1528 1.376 . S
C1529 C1530 1.388 . S
C1530 H1517 0.930 . S
C1530 C1529 1.388 . S
C1530 C1531 1.390 . S
C1531 C1530 1.390 . S
C1531 C1532 1.394 . S
C1531 C1537 1.465 . S
C1532 C1527 1.399 . S
C1532 C1531 1.394 . S
C1532 C1533 1.516 . S
C1533 C1532 1.516 . S
C1533 C1534 1.502 . S
C1533 C1535 1.561 . S
C1533 C1536 1.526 . S
C1534 H1518 0.959 . S
C1534 H1519 0.959 . S
C1534 H1520 0.961 . S
C1534 C1533 1.502 . S
C1535 H1521 0.960 . S
C1535 H1522 0.961 . S
C1535 H1523 0.959 . S
C1535 C1533 1.561 . S
C1536 C1533 1.526 . S
C1536 C1537 1.396 . S
C1536 C1541 1.390 . S
C1537 C1531 1.465 . S
C1537 C1536 1.396 . S
C1537 C1538 1.399 . S
C1538 H1524 0.929 . S
C1538 C1537 1.399 . S
C1538 C1539 1.385 . S
C1539 H1525 0.931 . S
C1539 C1538 1.385 . S
C1539 C1540 1.389 . S
C1540 C1539 1.389 . S
C1540 C1541 1.387 . S
C1541 H1526 0.930 . S
C1541 C1536 1.390 . S
C1541 C1540 1.387 . S
H1542 C1554 0.930 . S
H1543 C1556 0.930 . S
H1544 C1557 0.930 . S
H1545 C1561 0.959 . S
H1546 C1561 0.961 . S
H1547 C1561 0.958 1_545 S
H1548 C1562 0.973 . S
H1549 C1562 0.952 1_565 S
H1550 C1562 0.917 1_565 S
H1551 C1565 0.929 . S
H1552 C1566 0.931 . S
H1553 C1568 0.930 . S
C1554 H1542 0.930 . S
C1554 C1555 1.399 . S
C1554 C1559 1.399 . S
C1555 C1554 1.399 . S
C1555 C1556 1.376 . S
C1556 H1543 0.930 . S
C1556 C1555 1.376 . S
C1556 C1557 1.388 . S
C1557 H1544 0.930 . S
C1557 C1556 1.388 . S
C1557 C1558 1.390 . S
C1558 C1557 1.390 . S
C1558 C1559 1.394 . S
C1558 C1564 1.465 1_545 S
C1559 C1554 1.399 . S
C1559 C1558 1.394 . S
C1559 C1560 1.518 . S
C1560 C1559 1.518 . S
C1560 C1561 1.505 1_545 S
C1560 C1562 1.564 1_554 S
C1560 C1563 1.522 1_545 S
C1561 H1545 0.959 . S
C1561 H1546 0.961 . S
C1561 H1547 0.958 1_565 S
C1561 C1560 1.505 1_565 S
C1562 H1548 0.973 . S
C1562 H1549 0.952 1_545 S
C1562 H1550 0.917 1_545 S
C1562 C1560 1.564 1_556 S
C1563 C1560 1.522 1_565 S
C1563 C1564 1.396 . S
C1563 C1568 1.390 . S
C1564 C1558 1.465 1_565 S
C1564 C1563 1.396 . S
C1564 C1565 1.399 . S
C1565 H1551 0.929 . S
C1565 C1564 1.399 . S
C1565 C1566 1.385 . S
C1566 H1552 0.931 . S
C1566 C1565 1.385 . S
C1566 C1567 1.389 . S
C1567 C1566 1.389 . S
C1567 C1568 1.387 . S
C1568 H1553 0.930 . S
C1568 C1563 1.390 . S
C1568 C1567 1.387 . S
H1569 C1581 0.930 . S
H1570 C1583 0.930 . S
H1571 C1584 0.930 . S
H1572 C1588 0.959 . S
H1573 C1588 0.959 . S
H1574 C1588 0.961 . S
H1575 C1589 0.960 . S
H1576 C1589 0.961 . S
H1577 C1589 0.959 . S
H1578 C1592 0.929 . S
H1579 C1593 0.931 . S
H1580 C1595 0.930 . S
C1581 H1569 0.930 . S
C1581 C1582 1.399 . S
C1581 C1586 1.399 . S
C1582 C1581 1.399 . S
C1582 C1583 1.376 . S
C1583 H1570 0.930 . S
C1583 C1582 1.376 . S
C1583 C1584 1.388 . S
C1584 H1571 0.930 . S
C1584 C1583 1.388 . S
C1584 C1585 1.390 . S
C1585 C1584 1.390 . S
C1585 C1586 1.394 . S
C1585 C1591 1.465 . S
C1586 C1581 1.399 . S
C1586 C1585 1.394 . S
C1586 C1587 1.516 . S
C1587 C1586 1.516 . S
C1587 C1588 1.502 . S
C1587 C1589 1.561 . S
C1587 C1590 1.526 . S
C1588 H1572 0.959 . S
C1588 H1573 0.959 . S
C1588 H1574 0.961 . S
C1588 C1587 1.502 . S
C1589 H1575 0.960 . S
C1589 H1576 0.961 . S
C1589 H1577 0.959 . S
C1589 C1587 1.561 . S
C1590 C1587 1.526 . S
C1590 C1591 1.396 . S
C1590 C1595 1.390 . S
C1591 C1585 1.465 . S
C1591 C1590 1.396 . S
C1591 C1592 1.399 . S
C1592 H1578 0.929 . S
C1592 C1591 1.399 . S
C1592 C1593 1.385 . S
C1593 H1579 0.931 . S
C1593 C1592 1.385 . S
C1593 C1594 1.389 . S
C1594 C1593 1.389 . S
C1594 C1595 1.387 . S
C1595 H1580 0.930 . S
C1595 C1590 1.390 . S
C1595 C1594 1.387 . S
H1596 C1608 0.930 . S
H1597 C1610 0.930 . S
H1598 C1611 0.930 . S
H1599 C1615 0.960 . S
H1600 C1615 0.959 . S
H1601 C1615 0.961 1_455 S
H1602 C1616 0.976 . S
H1603 C1616 0.951 1_655 S
H1604 C1616 0.917 1_655 S
H1605 C1619 0.929 . S
H1606 C1620 0.931 . S
H1607 C1622 0.930 . S
C1608 H1596 0.930 . S
C1608 C1609 1.399 . S
C1608 C1613 1.399 . S
C1609 C1608 1.399 . S
C1609 C1610 1.376 . S
C1610 H1597 0.930 . S
C1610 C1609 1.376 . S
C1610 C1611 1.388 . S
C1611 H1598 0.930 . S
C1611 C1610 1.388 . S
C1611 C1612 1.390 . S
C1612 C1611 1.390 . S
C1612 C1613 1.394 . S
C1612 C1618 1.465 1_455 S
C1613 C1608 1.399 . S
C1613 C1612 1.394 . S
C1613 C1614 1.520 . S
C1614 C1613 1.520 . S
C1614 C1615 1.505 1_455 S
C1614 C1616 1.564 . S
C1614 C1617 1.520 1_455 S
C1615 H1599 0.960 . S
C1615 H1600 0.959 . S
C1615 H1601 0.961 1_655 S
C1615 C1614 1.505 1_655 S
C1616 H1602 0.976 . S
C1616 H1603 0.951 1_455 S
C1616 H1604 0.917 1_455 S
C1616 C1614 1.564 . S
C1617 C1614 1.520 1_655 S
C1617 C1618 1.396 . S
C1617 C1622 1.390 . S
C1618 C1612 1.465 1_655 S
C1618 C1617 1.396 . S
C1618 C1619 1.399 . S
C1619 H1605 0.929 . S
C1619 C1618 1.399 . S
C1619 C1620 1.385 . S
C1620 H1606 0.931 . S
C1620 C1619 1.385 . S
C1620 C1621 1.389 . S
C1621 C1620 1.389 . S
C1621 C1622 1.387 . S
C1622 H1607 0.930 . S
C1622 C1617 1.390 . S
C1622 C1621 1.387 . S
H1623 C1635 0.930 . S
H1624 C1637 0.930 . S
H1625 C1638 0.930 . S
H1626 C1642 0.977 . S
H1627 C1642 0.999 . S
H1628 C1642 0.931 1_565 S
H1629 C1643 0.937 1_565 S
H1630 C1643 0.990 . S
H1631 C1643 0.945 . S
H1632 C1646 0.929 . S
H1633 C1647 0.931 . S
H1634 C1649 0.930 . S
C1635 H1623 0.930 . S
C1635 C1636 1.399 . S
C1635 C1640 1.399 . S
C1636 C1635 1.399 . S
C1636 C1637 1.376 . S
C1637 H1624 0.930 . S
C1637 C1636 1.376 . S
C1637 C1638 1.388 . S
C1638 H1625 0.930 . S
C1638 C1637 1.388 . S
C1638 C1639 1.390 . S
C1639 C1638 1.390 . S
C1639 C1640 1.394 . S
C1639 C1645 1.465 1_565 S
C1640 C1635 1.399 . S
C1640 C1639 1.394 . S
C1640 C1641 1.504 1_565 S
C1641 C1640 1.504 1_545 S
C1641 C1642 1.484 . S
C1641 C1643 1.567 . S
C1641 C1644 1.534 . S
C1642 H1626 0.977 . S
C1642 H1627 0.999 . S
C1642 H1628 0.931 1_545 S
C1642 C1641 1.484 . S
C1643 H1629 0.937 1_545 S
C1643 H1630 0.990 . S
C1643 H1631 0.945 . S
C1643 C1641 1.567 . S
C1644 C1641 1.534 . S
C1644 C1645 1.396 . S
C1644 C1649 1.390 . S
C1645 C1639 1.465 1_545 S
C1645 C1644 1.396 . S
C1645 C1646 1.399 . S
C1646 H1632 0.929 . S
C1646 C1645 1.399 . S
C1646 C1647 1.385 . S
C1647 H1633 0.931 . S
C1647 C1646 1.385 . S
C1647 C1648 1.389 . S
C1648 C1647 1.389 . S
C1648 C1649 1.387 . S
C1649 H1634 0.930 . S
C1649 C1644 1.390 . S
C1649 C1648 1.387 . S
H1650 C1662 0.930 . S
H1651 C1664 0.930 . S
H1652 C1665 0.930 . S
H1653 C1669 0.959 . S
H1654 C1669 0.959 . S
H1655 C1669 0.961 . S
H1656 C1670 0.960 . S
H1657 C1670 0.961 . S
H1658 C1670 0.959 . S
H1659 C1673 0.929 . S
H1660 C1674 0.931 . S
H1661 C1676 0.930 . S
C1662 H1650 0.930 . S
C1662 C1663 1.399 . S
C1662 C1667 1.399 . S
C1663 C1662 1.399 . S
C1663 C1664 1.376 . S
C1664 H1651 0.930 . S
C1664 C1663 1.376 . S
C1664 C1665 1.388 . S
C1665 H1652 0.930 . S
C1665 C1664 1.388 . S
C1665 C1666 1.390 . S
C1666 C1665 1.390 . S
C1666 C1667 1.394 . S
C1666 C1672 1.465 . S
C1667 C1662 1.399 . S
C1667 C1666 1.394 . S
C1667 C1668 1.516 . S
C1668 C1667 1.516 . S
C1668 C1669 1.502 . S
C1668 C1670 1.561 . S
C1668 C1671 1.526 . S
C1669 H1653 0.959 . S
C1669 H1654 0.959 . S
C1669 H1655 0.961 . S
C1669 C1668 1.502 . S
C1670 H1656 0.960 . S
C1670 H1657 0.961 . S
C1670 H1658 0.959 . S
C1670 C1668 1.561 . S
C1671 C1668 1.526 . S
C1671 C1672 1.396 . S
C1671 C1676 1.390 . S
C1672 C1666 1.465 . S
C1672 C1671 1.396 . S
C1672 C1673 1.399 . S
C1673 H1659 0.929 . S
C1673 C1672 1.399 . S
C1673 C1674 1.385 . S
C1674 H1660 0.931 . S
C1674 C1673 1.385 . S
C1674 C1675 1.389 . S
C1675 C1674 1.389 . S
C1675 C1676 1.387 . S
C1676 H1661 0.930 . S
C1676 C1671 1.390 . S
C1676 C1675 1.387 . S
H1677 C1689 0.930 . S
H1678 C1691 0.930 . S
H1679 C1692 0.930 . S
H1680 C1696 0.956 . S
H1681 C1696 0.956 . S
H1682 C1696 0.965 1_455 S
H1683 C1697 0.963 . S
H1684 C1697 0.959 1_655 S
H1685 C1697 0.959 1_655 S
H1686 C1700 0.929 . S
H1687 C1701 0.931 . S
H1688 C1703 0.930 . S
C1689 H1677 0.930 . S
C1689 C1690 1.399 . S
C1689 C1694 1.399 . S
C1690 C1689 1.399 . S
C1690 C1691 1.376 . S
C1691 H1678 0.930 . S
C1691 C1690 1.376 . S
C1691 C1692 1.388 . S
C1692 H1679 0.930 . S
C1692 C1691 1.388 . S
C1692 C1693 1.390 . S
C1693 C1692 1.390 . S
C1693 C1694 1.394 . S
C1693 C1699 1.465 1_455 S
C1694 C1689 1.399 . S
C1694 C1693 1.394 . S
C1694 C1695 1.517 . S
C1695 C1694 1.517 . S
C1695 C1696 1.503 1_455 S
C1695 C1697 1.561 . S
C1695 C1698 1.524 1_455 S
C1696 H1680 0.956 . S
C1696 H1681 0.956 . S
C1696 H1682 0.965 1_655 S
C1696 C1695 1.503 1_655 S
C1697 H1683 0.963 . S
C1697 H1684 0.959 1_455 S
C1697 H1685 0.959 1_455 S
C1697 C1695 1.561 . S
C1698 C1695 1.524 1_655 S
C1698 C1699 1.396 . S
C1698 C1703 1.390 . S
C1699 C1693 1.465 1_655 S
C1699 C1698 1.396 . S
C1699 C1700 1.399 . S
C1700 H1686 0.929 . S
C1700 C1699 1.399 . S
C1700 C1701 1.385 . S
C1701 H1687 0.931 . S
C1701 C1700 1.385 . S
C1701 C1702 1.389 . S
C1702 C1701 1.389 . S
C1702 C1703 1.387 . S
C1703 H1688 0.930 . S
C1703 C1698 1.390 . S
C1703 C1702 1.387 . S
C1069 C29 1.196 . S
C1081 C929 1.192 . S
C1096 C108 1.205 . S
C1108 C1025 1.200 . S
C1123 C585 1.196 . S
C1135 C205 1.203 . S
C1150 C293 1.201 . S
C1162 C673 1.206 . S
C1177 C761 1.196 . S
C1189 C381 1.192 . S
C1204 C841 1.204 . S
C1216 C489 1.205 . S
C1231 C724 1.146 . S
C1243 C49 1.195 . S
C1258 C145 1.194 . S
C1270 C821 1.141 . S
C1285 C909 1.156 . S
C1297 C225 1.192 . S
C1312 C313 1.167 . S
C1324 C988 1.103 . S
C1339 C401 1.100 . S
C1351 C548 1.144 . S
C1366 C469 1.103 . S
C1378 C636 1.171 . S
C1393 C900 1.749 . S
C1405 C57 1.767 . S
C1420 C997 1.786 . S
C1432 C137 1.760 . S
C1447 C557 1.784 . S
C1459 C233 1.773 . S
C1474 C321 1.749 . S
C1486 C645 1.770 . S
C1501 C409 1.779 . S
C1513 C733 1.750 . S
C1528 C812 1.753 . S
C1540 C460 1.783 . S
C1555 C20 1.116 . S
C1567 C665 1.130 . S
C1582 C753 1.127 . S
C1594 C117 1.145 . S
C1609 C849 1.115 . S
C1621 C196 1.128 . S
C1636 C284 1.178 . S
C1648 C937 1.166 . S
C1663 C372 1.173 . S
C1675 C1017 1.158 . S
C1690 C497 1.137 . S
C1702 C577 1.155 . S
