# Generated by pormake.
# Topology wgi, (5)-cn, num edge types: 1
# Building blocks:
#     Node 0, Type 0, BuildingBlock: XOMCOT_clean_sbu_0, # of connection points: 5
#     Node 1, Type 0, BuildingBlock: XOMCOT_clean_sbu_0, # of connection points: 5
#     Node 2, Type 0, BuildingBlock: XOMCOT_clean_sbu_0, # of connection points: 5
#     Node 3, Type 0, BuildingBlock: XOMCOT_clean_sbu_0, # of connection points: 5
#     Node 4, Type 0, BuildingBlock: XOMCOT_clean_sbu_0, # of connection points: 5
#     Node 5, Type 0, BuildingBlock: XOMCOT_clean_sbu_0, # of connection points: 5
#     Node 6, Type 0, BuildingBlock: XOMCOT_clean_sbu_0, # of connection points: 5
#     Node 7, Type 0, BuildingBlock: XOMCOT_clean_sbu_0, # of connection points: 5
#     Node 8, Type 0, BuildingBlock: XOMCOT_clean_sbu_0, # of connection points: 5
#     Node 9, Type 0, BuildingBlock: XOMCOT_clean_sbu_0, # of connection points: 5
#     Node 10, Type 0, BuildingBlock: XOMCOT_clean_sbu_0, # of connection points: 5
#     Node 11, Type 0, BuildingBlock: XOMCOT_clean_sbu_0, # of connection points: 5
#     Node 12, Type 0, BuildingBlock: XOMCOT_clean_sbu_0, # of connection points: 5
#     Node 13, Type 0, BuildingBlock: XOMCOT_clean_sbu_0, # of connection points: 5
#     Node 14, Type 0, BuildingBlock: XOMCOT_clean_sbu_0, # of connection points: 5
#     Node 15, Type 0, BuildingBlock: XOMCOT_clean_sbu_0, # of connection points: 5
#     Node 16, Type 0, BuildingBlock: XOMCOT_clean_sbu_0, # of connection points: 5
#     Node 17, Type 0, BuildingBlock: XOMCOT_clean_sbu_0, # of connection points: 5
#     Node 18, Type 0, BuildingBlock: XOMCOT_clean_sbu_0, # of connection points: 5
#     Node 19, Type 0, BuildingBlock: XOMCOT_clean_sbu_0, # of connection points: 5
#     Node 20, Type 0, BuildingBlock: XOMCOT_clean_sbu_0, # of connection points: 5
#     Node 21, Type 0, BuildingBlock: XOMCOT_clean_sbu_0, # of connection points: 5
#     Node 22, Type 0, BuildingBlock: XOMCOT_clean_sbu_0, # of connection points: 5
#     Node 23, Type 0, BuildingBlock: XOMCOT_clean_sbu_0, # of connection points: 5
#     Node 24, Type 0, BuildingBlock: XOMCOT_clean_sbu_0, # of connection points: 5
#     Node 25, Type 0, BuildingBlock: XOMCOT_clean_sbu_0, # of connection points: 5
#     Node 26, Type 0, BuildingBlock: XOMCOT_clean_sbu_0, # of connection points: 5
#     Node 27, Type 0, BuildingBlock: XOMCOT_clean_sbu_0, # of connection points: 5
#     Node 28, Type 0, BuildingBlock: XOMCOT_clean_sbu_0, # of connection points: 5
#     Node 29, Type 0, BuildingBlock: XOMCOT_clean_sbu_0, # of connection points: 5
#     Node 30, Type 0, BuildingBlock: XOMCOT_clean_sbu_0, # of connection points: 5
#     Node 31, Type 0, BuildingBlock: XOMCOT_clean_sbu_0, # of connection points: 5
#     Edge 32, Type (0, 0), None
#     Edge 33, Type (0, 0), None
#     Edge 34, Type (0, 0), None
#     Edge 35, Type (0, 0), None
#     Edge 36, Type (0, 0), None
#     Edge 37, Type (0, 0), None
#     Edge 38, Type (0, 0), None
#     Edge 39, Type (0, 0), None
#     Edge 40, Type (0, 0), None
#     Edge 41, Type (0, 0), None
#     Edge 42, Type (0, 0), None
#     Edge 43, Type (0, 0), None
#     Edge 44, Type (0, 0), None
#     Edge 45, Type (0, 0), None
#     Edge 46, Type (0, 0), None
#     Edge 47, Type (0, 0), None
#     Edge 48, Type (0, 0), None
#     Edge 49, Type (0, 0), None
#     Edge 50, Type (0, 0), None
#     Edge 51, Type (0, 0), None
#     Edge 52, Type (0, 0), None
#     Edge 53, Type (0, 0), None
#     Edge 54, Type (0, 0), None
#     Edge 55, Type (0, 0), None
#     Edge 56, Type (0, 0), None
#     Edge 57, Type (0, 0), None
#     Edge 58, Type (0, 0), None
#     Edge 59, Type (0, 0), None
#     Edge 60, Type (0, 0), None
#     Edge 61, Type (0, 0), None
#     Edge 62, Type (0, 0), None
#     Edge 63, Type (0, 0), None
#     Edge 64, Type (0, 0), None
#     Edge 65, Type (0, 0), None
#     Edge 66, Type (0, 0), None
#     Edge 67, Type (0, 0), None
#     Edge 68, Type (0, 0), None
#     Edge 69, Type (0, 0), None
#     Edge 70, Type (0, 0), None
#     Edge 71, Type (0, 0), None
#     Edge 72, Type (0, 0), None
#     Edge 73, Type (0, 0), None
#     Edge 74, Type (0, 0), None
#     Edge 75, Type (0, 0), None
#     Edge 76, Type (0, 0), None
#     Edge 77, Type (0, 0), None
#     Edge 78, Type (0, 0), None
#     Edge 79, Type (0, 0), None
#     Edge 80, Type (0, 0), None
#     Edge 81, Type (0, 0), None
#     Edge 82, Type (0, 0), None
#     Edge 83, Type (0, 0), None
#     Edge 84, Type (0, 0), None
#     Edge 85, Type (0, 0), None
#     Edge 86, Type (0, 0), None
#     Edge 87, Type (0, 0), None
#     Edge 88, Type (0, 0), None
#     Edge 89, Type (0, 0), None
#     Edge 90, Type (0, 0), None
#     Edge 91, Type (0, 0), None
#     Edge 92, Type (0, 0), None
#     Edge 93, Type (0, 0), None
#     Edge 94, Type (0, 0), None
#     Edge 95, Type (0, 0), None
#     Edge 96, Type (0, 0), None
#     Edge 97, Type (0, 0), None
#     Edge 98, Type (0, 0), None
#     Edge 99, Type (0, 0), None
#     Edge 100, Type (0, 0), None
#     Edge 101, Type (0, 0), None
#     Edge 102, Type (0, 0), None
#     Edge 103, Type (0, 0), None
#     Edge 104, Type (0, 0), None
#     Edge 105, Type (0, 0), None
#     Edge 106, Type (0, 0), None
#     Edge 107, Type (0, 0), None
#     Edge 108, Type (0, 0), None
#     Edge 109, Type (0, 0), None
#     Edge 110, Type (0, 0), None
#     Edge 111, Type (0, 0), None
# Relax obj value: 0.171
# Max RMSD: 0.150
# Mean RMSD: 0.150
data_MOF--net-wgi--node1-XOMCOT_clean_sbu_0--edge1-none
_symmetry_space_group_name_H-M    P1
_symmetry_Int_Tables_number       1
_symmetry_cell_setting            triclinic
loop_
_symmetry_equiv_pos_as_xyz
'x, y, z'
_cell_length_a     40.332858
_cell_length_b     40.33261
_cell_length_c     12.55857
_cell_angle_alpha  89.999943
_cell_angle_beta   89.990574
_cell_angle_gamma 90.0
loop_
_atom_site_label
_atom_site_type_symbol
_atom_site_fract_x
_atom_site_fract_y
_atom_site_fract_z
_atom_type_partial_charge
Co0 Co 0.15435 0.15807 0.42551 0.0
C1 C 0.22575 0.16231 0.48348 0.0
C2 C 0.21685 0.12398 0.36899 0.0
C3 C 0.24857 0.12021 0.40895 0.0
N4 N 0.20235 0.15063 0.41476 0.0
N5 N 0.25411 0.14456 0.4799 0.0
H6 H 0.22107 0.18065 0.54424 0.0
H7 H 0.20414 0.10615 0.31937 0.0
C8 C 0.15862 0.14023 0.19153 0.0
O9 O 0.183 0.16148 0.17931 0.0
N10 N 0.10704 0.16518 0.44335 0.0
C11 C 0.09376 0.19169 0.49262 0.0
C12 C 0.06039 0.18663 0.50521 0.0
C13 C 0.08145 0.144 0.42769 0.0
N14 N 0.05247 0.15656 0.46522 0.0
C15 C 0.1721 0.22719 0.42288 0.0
C16 C 0.12862 0.24414 0.26223 0.0
C17 C 0.14087 0.26941 0.32828 0.0
C18 C 0.16417 0.26069 0.4063 0.0
C19 C 0.13655 0.21109 0.28287 0.0
N20 N 0.15735 0.20264 0.36447 0.0
H21 H 0.18735 0.22108 0.49035 0.0
H22 H 0.12286 0.19236 0.24027 0.0
H23 H 0.1076 0.21297 0.52026 0.0
H24 H 0.08421 0.11961 0.39291 0.0
O25 O 0.16001 0.16956 0.57242 0.0
O26 O 0.1505 0.11865 0.51077 0.0
O27 O 0.14528 0.13619 0.28285 0.0
C28 C 0.15482 0.13833 0.59154 0.0
H29 H 0.2651 0.09956 0.39438 0.0
H30 H 0.0433 0.20407 0.54084 0.0
H31 H 0.1111 0.24945 0.19931 0.0
H32 H 0.17422 0.27916 0.45978 0.0
Co33 Co 0.12528 0.90434 0.67549 0.0
C34 C 0.12105 0.97575 0.73345 0.0
C35 C 0.15939 0.96683 0.61899 0.0
C36 C 0.16316 0.99855 0.65895 0.0
N37 N 0.13273 0.95234 0.66473 0.0
N38 N 0.13881 1.0041 0.72989 0.0
H39 H 0.1027 0.97108 0.7942 0.0
H40 H 0.17722 0.95411 0.56938 0.0
C41 C 0.14312 0.90861 0.44151 0.0
O42 O 0.12188 0.933 0.42932 0.0
N43 N 0.11817 0.85703 0.69333 0.0
C44 C 0.09166 0.84376 0.74262 0.0
C45 C 0.09672 0.81038 0.75522 0.0
C46 C 0.13935 0.83144 0.67768 0.0
N47 N 0.12679 0.80247 0.71522 0.0
C48 C 0.05616 0.92209 0.67291 0.0
C49 C 0.03921 0.87861 0.51223 0.0
C50 C 1.01394 0.89086 0.5783 0.0
C51 C 0.02266 0.91416 0.65633 0.0
C52 C 0.07227 0.88655 0.53287 0.0
N53 N 0.08071 0.90734 0.61448 0.0
H54 H 0.06227 0.93734 0.74039 0.0
H55 H 0.09099 0.87285 0.49025 0.0
H56 H 0.07037 0.8576 0.77026 0.0
H57 H 0.16374 0.83421 0.6429 0.0
O58 O 0.11379 0.91002 0.82241 0.0
O59 O 0.1647 0.9005 0.76072 0.0
O60 O 0.14716 0.89527 0.53281 0.0
C61 C 0.14502 0.90481 0.8415 0.0
H62 H 0.18382 1.01507 0.6444 0.0
H63 H 0.07927 0.7933 0.79086 0.0
H64 H 0.0339 0.8611 0.44929 0.0
H65 H 1.00419 0.92421 0.70983 0.0
Co66 Co 0.37904 0.87528 0.92553 0.0
C67 C 0.30763 0.87105 0.98349 0.0
C68 C 0.31655 0.90939 0.86903 0.0
C69 C 0.28482 0.91315 0.90896 0.0
N70 N 0.33104 0.88274 0.91479 0.0
N71 N 0.27927 0.8888 0.9799 0.0
H72 H 0.31229 0.8527 0.04424 0.0
H73 H 0.32926 0.92721 0.81942 0.0
C74 C 0.37477 0.89313 0.69156 0.0
O75 O 0.35039 0.87188 0.67938 0.0
N76 N 0.42635 0.86817 0.94337 0.0
C77 C 0.43962 0.84167 0.99264 0.0
C78 C 0.47299 0.84672 1.00525 0.0
C79 C 0.45194 0.88936 0.92774 0.0
N80 N 0.48091 0.87679 0.96527 0.0
C81 C 0.36128 0.80617 0.92293 0.0
C82 C 0.40477 0.78921 0.76223 0.0
C83 C 0.39251 0.76394 0.8283 0.0
C84 C 0.36921 0.77267 0.90634 0.0
C85 C 0.39684 0.82227 0.78289 0.0
N86 N 0.37604 0.83071 0.8645 0.0
H87 H 0.34603 0.81228 0.99041 0.0
H88 H 0.41053 0.84099 0.74028 0.0
H89 H 0.42578 0.82038 0.02027 0.0
H90 H 0.44917 0.91374 0.89296 0.0
O91 O 0.37336 0.86379 0.07245 0.0
O92 O 0.38288 0.9147 1.01079 0.0
O93 O 0.38812 0.89716 0.78286 0.0
C94 C 0.37856 0.89503 0.09156 0.0
H95 H 0.26829 0.9338 0.8944 0.0
H96 H 0.49007 0.82928 0.04088 0.0
H97 H 0.42229 0.7839 0.6993 0.0
H98 H 0.35916 0.75419 0.95983 0.0
Co99 Co 0.40809 0.12901 0.17549 0.0
C100 C 0.41232 0.05761 0.23345 0.0
C101 C 0.37398 0.06653 0.11902 0.0
C102 C 0.37021 0.0348 0.15898 0.0
N103 N 0.40064 0.08102 0.16474 0.0
N104 N 0.39457 0.02925 0.22989 0.0
H105 H 0.43067 0.06228 0.29419 0.0
H106 H 0.35615 0.07924 0.06943 0.0
C107 C 0.39024 0.12475 0.94153 0.0
O108 O 0.41148 0.10036 0.92931 0.0
N109 N 0.4152 0.17633 0.19332 0.0
C110 C 0.44171 0.1896 0.24258 0.0
C111 C 0.43665 0.22297 0.25519 0.0
C112 C 0.39402 0.20191 0.1777 0.0
N113 N 0.40658 0.23089 0.21522 0.0
C114 C 0.4772 0.11126 0.17285 0.0
C115 C 0.49416 0.15475 1.01218 0.0
C116 C 0.51943 0.14249 0.07824 0.0
C117 C 0.5107 0.11919 0.15626 0.0
C118 C 0.46111 0.14681 0.03282 0.0
N119 N 0.45266 0.12601 0.11444 0.0
H120 H 0.47109 0.09601 0.24032 0.0
H121 H 0.44238 0.16051 0.99022 0.0
H122 H 0.46299 0.17576 0.27021 0.0
H123 H 0.36963 0.19915 0.14294 0.0
O124 O 0.41958 0.12334 0.32239 0.0
O125 O 0.36867 0.13286 0.26077 0.0
O126 O 0.38621 0.13809 0.03284 0.0
C127 C 0.38835 0.12854 0.34153 0.0
H128 H 0.34956 0.01827 0.14445 0.0
H129 H 0.45409 0.24005 0.29081 0.0
H130 H 0.49948 0.17226 0.94925 0.0
H131 H 0.52917 0.10914 0.20975 0.0
Co132 Co 0.15437 0.87525 0.11319 0.0
C133 C 0.22575 0.87103 0.05494 0.0
C134 C 0.21689 0.90932 0.16961 0.0
C135 C 0.24859 0.91312 0.12946 0.0
N136 N 0.20237 0.88269 0.12383 0.0
N137 N 0.25407 0.88882 0.0583 0.0
H138 H 0.22106 0.85268 0.9942 0.0
H139 H 0.20421 0.92712 0.21939 0.0
C140 C 0.15866 0.89307 0.34718 0.0
O141 O 0.18303 0.87181 0.35936 0.0
N142 N 0.10705 0.86816 0.09544 0.0
C143 C 0.09377 0.84165 0.04621 0.0
C144 C 0.0604 0.84672 0.03362 0.0
C145 C 0.08147 0.88935 0.11106 0.0
N146 N 0.05249 0.8768 0.07356 0.0
C147 C 0.17211 0.80613 0.11574 0.0
C148 C 0.12864 0.78918 0.27645 0.0
C149 C 0.14088 0.76391 0.21036 0.0
C150 C 0.16417 0.77263 0.13231 0.0
C151 C 0.13657 0.82223 0.25582 0.0
N152 N 0.15737 0.83067 0.17419 0.0
H153 H 0.18736 0.81224 0.04825 0.0
H154 H 0.12288 0.84096 0.29845 0.0
H155 H 0.1076 0.82035 1.01858 0.0
H156 H 0.08425 0.91374 0.14579 0.0
O157 O 0.16001 0.86377 0.96625 0.0
O158 O 0.15052 0.91468 0.02797 0.0
O159 O 0.14532 0.89713 0.25588 0.0
C160 C 0.15482 0.895 0.94719 0.0
H161 H 0.26514 0.93376 0.14404 0.0
H162 H 0.04331 0.82928 0.99801 0.0
H163 H 0.11112 0.78386 0.3394 0.0
H164 H 0.17421 0.75416 0.0788 0.0
Co165 Co 0.40813 0.90437 0.36323 0.0
C166 C 0.41235 0.97574 0.30498 0.0
C167 C 0.37405 0.96689 0.41965 0.0
C168 C 0.37024 0.99859 0.37948 0.0
N169 N 0.40069 0.95237 0.37388 0.0
N170 N 0.39455 1.00407 0.30831 0.0
H171 H 0.4307 0.97105 0.24425 0.0
H172 H 0.35625 0.95421 0.46944 0.0
C173 C 0.3903 0.90867 0.59724 0.0
O174 O 0.41156 0.93304 0.60942 0.0
N175 N 0.41522 0.85706 0.34548 0.0
C176 C 0.44173 0.84377 0.29623 0.0
C177 C 0.43666 0.8104 0.28364 0.0
C178 C 0.39403 0.83148 0.36112 0.0
N179 N 0.40658 0.80249 0.32361 0.0
C180 C 0.47725 0.92211 0.36575 0.0
C181 C 0.4942 0.87864 0.52646 0.0
C182 C 0.51947 0.89088 0.46036 0.0
C183 C 0.51075 0.91417 0.38231 0.0
C184 C 0.46115 0.88658 0.50583 0.0
N185 N 0.4527 0.90737 0.42421 0.0
H186 H 0.47114 0.93736 0.29827 0.0
H187 H 0.44242 0.87289 0.54847 0.0
H188 H 0.46303 0.8576 0.26859 0.0
H189 H 0.36964 0.83425 0.39586 0.0
O190 O 0.41961 0.91001 0.21629 0.0
O191 O 0.3687 0.90053 0.27803 0.0
O192 O 0.38625 0.89533 0.50593 0.0
C193 C 0.38838 0.90482 0.19725 0.0
H194 H 0.3496 1.01513 0.39404 0.0
H195 H 0.4541 0.79331 0.24803 0.0
H196 H 0.49951 0.86113 0.5894 0.0
H197 H 0.52922 0.92421 0.3288 0.0
Co198 Co 0.37899 0.15811 0.61322 0.0
C199 C 0.30762 0.16233 0.55495 0.0
C200 C 0.31646 0.12404 0.66965 0.0
C201 C 0.28476 0.12024 0.62949 0.0
N202 N 0.33099 0.15068 0.62386 0.0
N203 N 0.27929 0.14454 0.5583 0.0
H204 H 0.31232 0.18068 0.49421 0.0
H205 H 0.32913 0.10625 0.71945 0.0
C206 C 0.3747 0.14028 0.84722 0.0
O207 O 0.35033 0.16155 0.85944 0.0
N208 N 0.42631 0.1652 0.59547 0.0
C209 C 0.4396 0.1917 0.54623 0.0
C210 C 0.47297 0.18664 0.53366 0.0
C211 C 0.45189 0.14401 0.61111 0.0
N212 N 0.48088 0.15656 0.57361 0.0
C213 C 0.36125 0.22723 0.61578 0.0
C214 C 0.40473 0.24418 0.77646 0.0
C215 C 0.39249 0.26945 0.71037 0.0
C216 C 0.36919 0.26073 0.63235 0.0
C217 C 0.39679 0.21113 0.75584 0.0
N218 N 0.37599 0.20268 0.67422 0.0
H219 H 0.346 0.22111 0.54831 0.0
H220 H 0.41047 0.1924 0.79846 0.0
H221 H 0.42577 0.213 0.51859 0.0
H222 H 0.44911 0.11961 0.64585 0.0
O223 O 0.37336 0.1696 0.46629 0.0
O224 O 0.38284 0.11868 0.52799 0.0
O225 O 0.38803 0.13623 0.7559 0.0
C226 C 0.37855 0.13836 0.44722 0.0
H227 H 0.26821 0.09961 0.64407 0.0
H228 H 0.49007 0.20408 0.49805 0.0
H229 H 0.42224 0.24949 0.83939 0.0
H230 H 0.35915 0.2792 0.57885 0.0
Co231 Co 0.12525 0.12898 0.86324 0.0
C232 C 0.12103 0.05761 0.80498 0.0
C233 C 0.15933 0.06646 0.91962 0.0
C234 C 0.16313 0.03476 0.87945 0.0
N235 N 0.13269 0.08098 0.87388 0.0
N236 N 0.13883 0.02929 0.8083 0.0
H237 H 0.10268 0.0623 0.74427 0.0
H238 H 0.17713 0.07914 0.96939 0.0
C239 C 0.14308 0.12469 0.09722 0.0
O240 O 0.12182 0.10032 0.10944 0.0
N241 N 0.11816 0.1763 0.84549 0.0
C242 C 0.09165 0.18959 0.79627 0.0
C243 C 0.09672 0.22296 0.78368 0.0
C244 C 0.13935 0.20188 0.86111 0.0
N245 N 0.1268 0.23086 0.82361 0.0
C246 C 0.05613 0.11124 0.86582 0.0
C247 C 0.03918 0.15472 0.02652 0.0
C248 C 1.01391 0.14248 0.96042 0.0
C249 C 0.02264 0.11918 0.88239 0.0
C250 C 0.07223 0.14677 1.00589 0.0
N251 N 0.08068 0.12598 0.92426 0.0
H252 H 0.06225 0.09599 0.79834 0.0
H253 H 0.09096 0.16046 0.04851 0.0
H254 H 0.07035 0.17576 0.76865 0.0
H255 H 0.16374 0.1991 0.89583 0.0
O256 O 0.11377 0.12334 0.71631 0.0
O257 O 0.16468 0.13283 0.778 0.0
O258 O 0.14713 0.13803 1.00591 0.0
C259 C 0.145 0.12854 0.69723 0.0
H260 H 0.18377 0.01822 0.89399 0.0
H261 H 0.07928 0.24005 0.74808 0.0
H262 H 0.03386 0.17223 0.08945 0.0
H263 H 1.00416 0.10914 0.82888 0.0
Co264 Co 0.87902 0.87528 0.61323 0.0
C265 C 0.80763 0.87105 0.55525 0.0
C266 C 0.81653 0.90938 0.66974 0.0
C267 C 0.7848 0.91314 0.62979 0.0
N268 N 0.83103 0.88273 0.62397 0.0
N269 N 0.77926 0.8888 0.55884 0.0
H270 H 0.8123 0.85271 0.49448 0.0
H271 H 0.82923 0.9272 0.71937 0.0
C272 C 0.87476 0.89313 0.84721 0.0
O273 O 0.85037 0.87188 0.85943 0.0
N274 N 0.92634 0.86818 0.5954 0.0
C275 C 0.93962 0.84167 0.54613 0.0
C276 C 0.97299 0.84672 0.53356 0.0
C277 C 0.95193 0.88935 0.61107 0.0
N278 N 0.98091 0.87679 0.57358 0.0
C279 C 0.86127 0.80617 0.61585 0.0
C280 C 0.90475 0.78921 0.77651 0.0
C281 C 0.8925 0.76394 0.71045 0.0
C282 C 0.8692 0.77267 0.63243 0.0
C283 C 0.89682 0.82227 0.75587 0.0
N284 N 0.87602 0.83071 0.67427 0.0
H285 H 0.84602 0.81228 0.54838 0.0
H286 H 0.91051 0.841 0.79847 0.0
H287 H 0.92578 0.82038 0.51846 0.0
H288 H 0.94916 0.91374 0.64585 0.0
O289 O 0.87336 0.86379 0.46632 0.0
O290 O 0.88287 0.9147 0.52797 0.0
O291 O 0.88809 0.89717 0.75589 0.0
C292 C 0.87856 0.89502 0.4472 0.0
H293 H 0.76827 0.93379 0.64437 0.0
H294 H 0.99007 0.82928 0.49792 0.0
H295 H 0.92227 0.7839 0.83943 0.0
H296 H 0.85916 0.75419 0.57895 0.0
Co297 Co 0.9081 0.12902 0.36324 0.0
C298 C 0.91233 0.05761 0.30528 0.0
C299 C 0.87399 0.06653 0.41974 0.0
C300 C 0.87022 0.03481 0.37978 0.0
N301 N 0.90064 0.08102 0.374 0.0
N302 N 0.89457 0.02926 0.30885 0.0
H303 H 0.93068 0.06228 0.24453 0.0
H304 H 0.85616 0.07924 0.46935 0.0
C305 C 0.89025 0.12475 0.59722 0.0
O306 O 0.91149 0.10036 0.60941 0.0
N307 N 0.9152 0.17633 0.3454 0.0
C308 C 0.94171 0.1896 0.29612 0.0
C309 C 0.93666 0.22297 0.28352 0.0
C310 C 0.89402 0.20192 0.36105 0.0
N311 N 0.90659 0.23089 0.32351 0.0
C312 C 0.97722 0.11127 0.36583 0.0
C313 C 0.99416 0.15474 0.52653 0.0
C314 C 0.01943 0.14249 0.46046 0.0
C315 C 1.01071 0.1192 0.38242 0.0
C316 C 0.96111 0.14681 0.50587 0.0
N317 N 0.95267 0.12602 0.42426 0.0
H318 H 0.97111 0.09602 0.29835 0.0
H319 H 0.94238 0.16051 0.54848 0.0
H320 H 0.963 0.17576 0.26847 0.0
H321 H 0.86964 0.19915 0.39583 0.0
O322 O 0.91959 0.12334 0.21632 0.0
O323 O 0.86868 0.13286 0.278 0.0
O324 O 0.88622 0.13809 0.50592 0.0
C325 C 0.88835 0.12854 0.19722 0.0
H326 H 0.84956 0.01828 0.39433 0.0
H327 H 0.9541 0.24006 0.24788 0.0
H328 H 0.99947 0.17226 0.58947 0.0
H329 H 0.02919 0.10915 0.32894 0.0
Co330 Co 0.65434 0.15807 0.11321 0.0
C331 C 0.72575 0.1623 0.05524 0.0
C332 C 0.71682 0.12397 0.16971 0.0
C333 C 0.74855 0.1202 0.12977 0.0
N334 N 0.70233 0.15062 0.12395 0.0
N335 N 0.7541 0.14456 0.05883 0.0
H336 H 0.72108 0.18065 0.99448 0.0
H337 H 0.70411 0.10615 0.21932 0.0
C338 C 0.6586 0.14023 0.34717 0.0
O339 O 0.68299 0.16148 0.35936 0.0
N340 N 0.60703 0.16518 0.09538 0.0
C341 C 0.59375 0.19169 0.04611 0.0
C342 C 0.56038 0.18664 0.03352 0.0
C343 C 0.58144 0.14401 0.11103 0.0
N344 N 0.55246 0.15657 0.07353 0.0
C345 C 0.67209 0.22719 0.1158 0.0
C346 C 0.62861 0.24415 0.2765 0.0
C347 C 0.64086 0.26941 0.21043 0.0
C348 C 0.66416 0.26069 0.13239 0.0
C349 C 0.63654 0.21109 0.25585 0.0
N350 N 0.65734 0.20265 0.17423 0.0
H351 H 0.68734 0.22108 0.04832 0.0
H352 H 0.62284 0.19236 0.29846 0.0
H353 H 0.6076 0.21298 1.01846 0.0
H354 H 0.5842 0.11962 0.14579 0.0
O355 O 0.66001 0.16956 0.96629 0.0
O356 O 0.65049 0.11865 0.02795 0.0
O357 O 0.64526 0.1362 0.25588 0.0
C358 C 0.65481 0.13833 0.94718 0.0
H359 H 0.76508 0.09956 0.14434 0.0
H360 H 0.5433 0.20408 0.99788 0.0
H361 H 0.61109 0.24946 0.33944 0.0
H362 H 0.67421 0.27916 0.0789 0.0
Co363 Co 0.62528 0.90434 0.86324 0.0
C364 C 0.62105 0.97575 0.80528 0.0
C365 C 0.65939 0.96683 0.91971 0.0
C366 C 0.66316 0.99856 0.87975 0.0
N367 N 0.63273 0.95234 0.87399 0.0
N368 N 0.6388 1.0041 0.80884 0.0
H369 H 0.6027 0.97108 0.74454 0.0
H370 H 0.67722 0.95412 0.9693 0.0
C371 C 0.64314 0.90861 0.0972 0.0
O372 O 0.62189 0.933 0.10942 0.0
N373 N 0.61818 0.85703 0.84541 0.0
C374 C 0.59167 0.84376 0.79615 0.0
C375 C 0.59673 0.81038 0.78354 0.0
C376 C 0.63936 0.83144 0.86103 0.0
N377 N 0.6268 0.80247 0.82351 0.0
C378 C 0.55617 0.92209 0.86589 0.0
C379 C 0.53921 0.87861 0.02657 0.0
C380 C 0.51395 0.89086 0.96051 0.0
C381 C 0.52267 0.91416 0.88249 0.0
C382 C 0.57227 0.88655 1.00591 0.0
N383 N 0.58071 0.90734 0.9243 0.0
H384 H 0.56228 0.93735 0.79842 0.0
H385 H 0.591 0.87285 0.04852 0.0
H386 H 0.57038 0.8576 0.76853 0.0
H387 H 0.66374 0.83421 0.89579 0.0
O388 O 0.61379 0.91002 0.71634 0.0
O389 O 0.6647 0.9005 0.77796 0.0
O390 O 0.64717 0.89527 1.00589 0.0
C391 C 0.64502 0.90481 0.6972 0.0
H392 H 0.68381 1.01508 0.89429 0.0
H393 H 0.57928 0.7933 0.74792 0.0
H394 H 0.5339 0.8611 0.08951 0.0
H395 H 0.50419 0.92422 0.82902 0.0
Co396 Co 0.879 0.15811 0.92554 0.0
C397 C 0.80763 0.16233 0.9838 0.0
C398 C 0.81648 0.12403 0.86912 0.0
C399 C 0.78478 0.12024 0.90927 0.0
N400 N 0.831 0.15067 0.91491 0.0
N401 N 0.7793 0.14454 0.98044 0.0
H402 H 0.81232 0.18068 0.04454 0.0
H403 H 0.82917 0.10624 0.81933 0.0
C404 C 0.87472 0.14028 0.69155 0.0
O405 O 0.85034 0.16155 0.67936 0.0
N406 N 0.92632 0.1652 0.94328 0.0
C407 C 0.93961 0.19171 0.99251 0.0
C408 C 0.97298 0.18664 1.00508 0.0
C409 C 0.9519 0.14401 0.92763 0.0
N410 N 0.98088 0.15657 0.9651 0.0
C411 C 0.86126 0.22723 0.923 0.0
C412 C 0.90474 0.24418 0.76227 0.0
C413 C 0.8925 0.26945 0.82838 0.0
C414 C 0.8692 0.26073 0.90642 0.0
C415 C 0.8968 0.21113 0.78291 0.0
N416 N 0.876 0.20268 0.86454 0.0
H417 H 0.84601 0.22111 0.99048 0.0
H418 H 0.91049 0.1924 0.74028 0.0
H419 H 0.92578 0.21301 0.02016 0.0
H420 H 0.94913 0.11962 0.89291 0.0
O421 O 0.87336 0.16959 0.07248 0.0
O422 O 0.88285 0.11868 1.01076 0.0
O423 O 0.88805 0.13623 0.78285 0.0
C424 C 0.87856 0.13836 0.09154 0.0
H425 H 0.76823 0.0996 0.89468 0.0
H426 H 0.99007 0.20408 0.0407 0.0
H427 H 0.92225 0.24949 0.69933 0.0
H428 H 0.85916 0.2792 0.95994 0.0
Co429 Co 0.62524 0.12898 0.6755 0.0
C430 C 0.62102 0.05761 0.73376 0.0
C431 C 0.65932 0.06647 0.61908 0.0
C432 C 0.66313 0.03477 0.65926 0.0
N433 N 0.63268 0.08098 0.66485 0.0
N434 N 0.63882 0.02929 0.73042 0.0
H435 H 0.60267 0.06231 0.79449 0.0
H436 H 0.67712 0.07915 0.5693 0.0
C437 C 0.64307 0.12469 0.4415 0.0
O438 O 0.62181 0.10032 0.42931 0.0
N439 N 0.61815 0.1763 0.69326 0.0
C440 C 0.59164 0.18959 0.7425 0.0
C441 C 0.59671 0.22296 0.75509 0.0
C442 C 0.63934 0.20188 0.67762 0.0
N443 N 0.62679 0.23086 0.71513 0.0
C444 C 0.55612 0.11125 0.67297 0.0
C445 C 0.53918 0.15472 0.51225 0.0
C446 C 0.51391 0.14248 0.57835 0.0
C447 C 0.52262 0.11918 0.6564 0.0
C448 C 0.57223 0.14678 0.53289 0.0
N449 N 0.58067 0.12599 0.61452 0.0
H450 H 0.56223 0.096 0.74045 0.0
H451 H 0.59096 0.16047 0.49026 0.0
H452 H 0.57035 0.17576 0.77014 0.0
H453 H 0.66374 0.19911 0.64287 0.0
O454 O 0.61376 0.12335 0.82244 0.0
O455 O 0.66467 0.13283 0.7607 0.0
O456 O 0.64712 0.13803 0.5328 0.0
C457 C 0.64499 0.12854 0.84149 0.0
H458 H 0.68377 0.01823 0.64469 0.0
H459 H 0.57927 0.24005 0.7907 0.0
H460 H 0.53387 0.17223 0.44931 0.0
H461 H 0.50414 0.10914 0.7099 0.0
Co462 Co 0.65438 0.87525 0.42551 0.0
C463 C 0.72575 0.87103 0.48379 0.0
C464 C 0.71691 0.90931 0.36908 0.0
C465 C 0.74861 0.91311 0.40924 0.0
N466 N 0.70238 0.88268 0.41487 0.0
N467 N 0.75408 0.88882 0.48043 0.0
H468 H 0.72105 0.85268 0.54453 0.0
H469 H 0.70424 0.92711 0.31927 0.0
C470 C 0.65868 0.89307 0.19151 0.0
O471 O 0.68305 0.87181 0.17928 0.0
N472 N 0.60706 0.86816 0.44325 0.0
C473 C 0.59377 0.84165 0.49249 0.0
C474 C 0.5604 0.84672 0.50504 0.0
C475 C 0.58148 0.88935 0.42759 0.0
N476 N 0.55249 0.87679 0.46505 0.0
C477 C 0.67212 0.80613 0.42295 0.0
C478 C 0.62865 0.78918 0.26227 0.0
C479 C 0.64089 0.76391 0.32836 0.0
C480 C 0.66418 0.77263 0.40639 0.0
C481 C 0.63659 0.82223 0.28289 0.0
N482 N 0.65738 0.83067 0.36451 0.0
H483 H 0.68737 0.81224 0.49042 0.0
H484 H 0.6229 0.84096 0.24026 0.0
H485 H 0.6076 0.82036 0.52015 0.0
H486 H 0.58426 0.91374 0.39285 0.0
O487 O 0.66001 0.86376 0.57244 0.0
O488 O 0.65053 0.91468 0.51073 0.0
O489 O 0.64534 0.89713 0.28282 0.0
C490 C 0.65482 0.895 0.59151 0.0
H491 H 0.76516 0.93375 0.39465 0.0
H492 H 0.5433 0.82928 0.54066 0.0
H493 H 0.61114 0.78386 0.19934 0.0
H494 H 0.67422 0.75416 0.45989 0.0
Co495 Co 0.90812 0.90438 0.1755 0.0
C496 C 0.91235 0.97575 0.23375 0.0
C497 C 0.87405 0.9669 0.11911 0.0
C498 C 0.87025 0.9986 0.15929 0.0
N499 N 0.90069 0.95238 0.16486 0.0
N500 N 0.89455 1.00407 0.23043 0.0
H501 H 0.9307 0.97105 0.29447 0.0
H502 H 0.85625 0.95422 0.06934 0.0
C503 C 0.89029 0.90867 0.94152 0.0
O504 O 0.91155 0.93304 0.9293 0.0
N505 N 0.91522 0.85706 0.19324 0.0
C506 C 0.94173 0.84377 0.24246 0.0
C507 C 0.93666 0.8104 0.25506 0.0
C508 C 0.89402 0.83148 0.17763 0.0
N509 N 0.90658 0.8025 0.21513 0.0
C510 C 0.97724 0.92212 0.17291 0.0
C511 C 0.9942 0.87864 1.0122 0.0
C512 C 0.01946 0.89088 0.07829 0.0
C513 C 1.01074 0.91418 0.15632 0.0
C514 C 0.96114 0.88658 0.03284 0.0
N515 N 0.9527 0.90738 0.11447 0.0
H516 H 0.97113 0.93737 0.24039 0.0
H517 H 0.94242 0.87289 0.99022 0.0
H518 H 0.96302 0.8576 0.27008 0.0
H519 H 0.86963 0.83425 0.14291 0.0
O520 O 0.91961 0.91001 0.32242 0.0
O521 O 0.8687 0.90053 0.26074 0.0
O522 O 0.88625 0.89533 0.03283 0.0
C523 C 0.88838 0.90482 0.34151 0.0
H524 H 0.84961 1.01514 0.14474 0.0
H525 H 0.9541 0.79331 0.29065 0.0
H526 H 0.99951 0.86113 0.94926 0.0
H527 H 0.02922 0.92422 0.20982 0.0
Co528 Co 0.65435 0.65809 0.92549 0.0
C529 C 0.72575 0.66233 0.98348 0.0
C530 C 0.71685 0.62401 0.86897 0.0
C531 C 0.74858 0.62024 0.90893 0.0
N532 N 0.70235 0.65065 0.91475 0.0
N533 N 0.75411 0.64459 0.97989 0.0
H534 H 0.72107 0.68068 0.04424 0.0
H535 H 0.70415 0.60618 0.81934 0.0
C536 C 0.65862 0.64024 0.69151 0.0
O537 O 0.683 0.66149 0.67928 0.0
N538 N 0.60704 0.6652 0.94332 0.0
C539 C 0.59376 0.69171 0.99259 0.0
C540 C 0.56039 0.68665 1.00518 0.0
C541 C 0.58145 0.64402 0.92767 0.0
N542 N 0.55247 0.65658 0.96519 0.0
C543 C 0.6721 0.72721 0.92286 0.0
C544 C 0.62861 0.74416 0.7622 0.0
C545 C 0.64086 0.76943 0.82825 0.0
C546 C 0.66417 0.76071 0.90627 0.0
C547 C 0.63655 0.71111 0.78285 0.0
N548 N 0.65735 0.70267 0.86445 0.0
H549 H 0.68735 0.7211 0.99032 0.0
H550 H 0.62285 0.69238 0.74025 0.0
H551 H 0.6076 0.71299 0.02023 0.0
H552 H 0.58422 0.61963 0.89289 0.0
O553 O 0.66001 0.66959 0.0724 0.0
O554 O 0.65051 0.61868 1.01075 0.0
O555 O 0.64528 0.63621 0.78283 0.0
C556 C 0.65481 0.63836 0.09152 0.0
H557 H 0.76511 0.5996 0.89436 0.0
H558 H 0.5433 0.70409 0.04081 0.0
H559 H 0.6111 0.74947 0.69927 0.0
H560 H 0.67422 0.77919 0.95974 0.0
Co561 Co 0.62528 0.40433 0.17551 0.0
C562 C 0.62104 0.47573 0.23352 0.0
C563 C 0.65936 0.46683 0.11897 0.0
C564 C 0.66312 0.49856 0.15891 0.0
N565 N 0.63272 0.45233 0.16478 0.0
N566 N 0.63878 0.5041 0.22989 0.0
H567 H 0.6027 0.47106 0.2943 0.0
H568 H 0.67718 0.45413 0.06931 0.0
C569 C 0.64312 0.4086 0.94152 0.0
O570 O 0.62187 0.43298 0.92933 0.0
N571 N 0.61817 0.35702 0.19334 0.0
C572 C 0.59167 0.34374 0.24262 0.0
C573 C 0.59672 0.31037 0.25518 0.0
C574 C 0.63935 0.33143 0.17766 0.0
N575 N 0.62679 0.30245 0.21515 0.0
C576 C 0.55616 0.42208 0.17293 0.0
C577 C 0.53921 0.3786 1.01226 0.0
C578 C 0.51394 0.39085 0.07832 0.0
C579 C 0.52266 0.41414 0.15635 0.0
C580 C 0.57227 0.38653 0.0329 0.0
N581 N 0.58071 0.40733 0.1145 0.0
H582 H 0.56227 0.43733 0.2404 0.0
H583 H 0.59099 0.37283 0.99029 0.0
H584 H 0.57038 0.35758 0.27029 0.0
H585 H 0.66374 0.33419 0.14288 0.0
O586 O 0.61379 0.41 0.32243 0.0
O587 O 0.6647 0.40049 0.26074 0.0
O588 O 0.64716 0.39526 0.03283 0.0
C589 C 0.64502 0.4048 0.34153 0.0
H590 H 0.68376 0.5151 0.1443 0.0
H591 H 0.57928 0.29328 0.29083 0.0
H592 H 0.5339 0.36108 0.94933 0.0
H593 H 0.50419 0.42419 0.20984 0.0
Co594 Co 0.87903 0.37527 0.42551 0.0
C595 C 0.80763 0.37103 0.48349 0.0
C596 C 0.81655 0.40937 0.36901 0.0
C597 C 0.78482 0.41313 0.40896 0.0
N598 N 0.83104 0.38272 0.41477 0.0
N599 N 0.77927 0.38878 0.4799 0.0
H600 H 0.8123 0.35268 0.54424 0.0
H601 H 0.82926 0.42719 0.3194 0.0
C602 C 0.87478 0.39312 0.19155 0.0
O603 O 0.85039 0.37187 0.17935 0.0
N604 N 0.92635 0.36816 0.44335 0.0
C605 C 0.93962 0.34165 0.49261 0.0
C606 C 0.97299 0.34671 0.50522 0.0
C607 C 0.95194 0.38934 0.42772 0.0
N608 N 0.98091 0.37678 0.46525 0.0
C609 C 0.86129 0.30615 0.4229 0.0
C610 C 0.90477 0.2892 0.2622 0.0
C611 C 0.89252 0.26393 0.32827 0.0
C612 C 0.86922 0.27265 0.40631 0.0
C613 C 0.89684 0.32225 0.28286 0.0
N614 N 0.87604 0.33069 0.36448 0.0
H615 H 0.84603 0.31226 0.49038 0.0
H616 H 0.91053 0.34098 0.24025 0.0
H617 H 0.92578 0.32036 0.52025 0.0
H618 H 0.94917 0.41373 0.39295 0.0
O619 O 0.87336 0.36378 0.57243 0.0
O620 O 0.88288 0.41469 0.51077 0.0
O621 O 0.88812 0.39715 0.28285 0.0
C622 C 0.87856 0.39501 0.59154 0.0
H623 H 0.76829 0.43378 0.39439 0.0
H624 H 0.99007 0.32926 0.54085 0.0
H625 H 0.92229 0.28389 0.19927 0.0
H626 H 0.85916 0.25417 0.45979 0.0
Co627 Co 0.90809 0.62903 0.67551 0.0
C628 C 0.91233 0.55763 0.73352 0.0
C629 C 0.87401 0.56652 0.619 0.0
C630 C 0.87025 0.53479 0.65894 0.0
N631 N 0.90065 0.58103 0.66479 0.0
N632 N 0.89459 0.52926 0.7299 0.0
H633 H 0.93066 0.56231 0.79429 0.0
H634 H 0.85619 0.57922 0.56936 0.0
C635 C 0.89024 0.62477 0.44154 0.0
O636 O 0.91149 0.60038 0.42931 0.0
N637 N 0.91519 0.67634 0.69333 0.0
C638 C 0.9417 0.68962 0.74258 0.0
C639 C 0.93664 0.72299 0.75516 0.0
C640 C 0.89402 0.70193 0.67767 0.0
N641 N 0.90658 0.73091 0.71515 0.0
C642 C 0.9772 0.61128 0.67287 0.0
C643 C 0.99416 0.65477 0.51221 0.0
C644 C 0.01943 0.64251 0.57826 0.0
C645 C 1.0107 0.61921 0.65628 0.0
C646 C 0.96111 0.64683 0.53285 0.0
N647 N 0.95266 0.62603 0.61446 0.0
H648 H 0.97109 0.59602 0.74034 0.0
H649 H 0.94238 0.66053 0.49025 0.0
H650 H 0.96299 0.67578 0.77023 0.0
H651 H 0.86963 0.69917 0.64292 0.0
O652 O 0.91958 0.62336 0.82242 0.0
O653 O 0.86867 0.63287 0.76079 0.0
O654 O 0.88621 0.6381 0.53286 0.0
C655 C 0.88835 0.62856 0.84155 0.0
H656 H 0.84961 0.51825 0.64434 0.0
H657 H 0.95409 0.74008 0.79078 0.0
H658 H 0.99948 0.67229 0.44929 0.0
H659 H 0.02917 0.60916 0.70976 0.0
Co660 Co 0.65437 0.37523 0.61321 0.0
C661 C 0.72574 0.37101 0.55494 0.0
C662 C 0.71689 0.4093 0.66962 0.0
C663 C 0.7486 0.4131 0.62947 0.0
N664 N 0.70237 0.38267 0.62384 0.0
N665 N 0.75407 0.3888 0.5583 0.0
H666 H 0.72105 0.35266 0.49421 0.0
H667 H 0.70421 0.4271 0.71941 0.0
C668 C 0.65866 0.39306 0.8472 0.0
O669 O 0.68303 0.3718 0.85939 0.0
N670 N 0.60705 0.36814 0.59546 0.0
C671 C 0.59377 0.34163 0.54624 0.0
C672 C 0.5604 0.3467 0.53364 0.0
C673 C 0.58147 0.38933 0.61108 0.0
N674 N 0.55249 0.37678 0.57358 0.0
C675 C 0.67211 0.30611 0.61576 0.0
C676 C 0.62863 0.28916 0.77649 0.0
C677 C 0.64087 0.2639 0.71039 0.0
C678 C 0.66417 0.27261 0.63234 0.0
C679 C 0.63657 0.32222 0.75584 0.0
N680 N 0.65737 0.33066 0.67421 0.0
H681 H 0.68736 0.31222 0.54828 0.0
H682 H 0.62288 0.34094 0.79847 0.0
H683 H 0.6076 0.32033 0.51861 0.0
H684 H 0.58425 0.41373 0.64581 0.0
O685 O 0.66001 0.36375 0.46627 0.0
O686 O 0.65053 0.41466 0.52799 0.0
O687 O 0.64532 0.39711 0.7559 0.0
C688 C 0.65482 0.39498 0.44721 0.0
H689 H 0.76514 0.43373 0.64405 0.0
H690 H 0.54331 0.32926 0.49804 0.0
H691 H 0.61112 0.28385 0.83943 0.0
H692 H 0.67421 0.25414 0.57885 0.0
Co693 Co 0.90813 0.40436 0.86321 0.0
C694 C 0.91236 0.47573 0.80491 0.0
C695 C 0.87408 0.4669 0.91968 0.0
C696 C 0.87028 0.4986 0.87953 0.0
N697 N 0.9007 0.45237 0.87384 0.0
N698 N 0.89457 0.50407 0.8083 0.0
H699 H 0.9307 0.47103 0.74415 0.0
H700 H 0.85628 0.45423 0.96951 0.0
C701 C 0.89031 0.40865 0.09722 0.0
O702 O 0.91158 0.43302 0.10942 0.0
N703 N 0.91522 0.35704 0.84547 0.0
C704 C 0.94173 0.34375 0.79623 0.0
C705 C 0.93666 0.31038 0.78368 0.0
C706 C 0.89403 0.33146 0.86114 0.0
N707 N 0.90659 0.30248 0.82368 0.0
C708 C 0.97725 0.4221 0.86573 0.0
C709 C 0.9942 0.37862 0.02643 0.0
C710 C 0.01947 0.39086 0.96033 0.0
C711 C 1.01075 0.41416 0.88229 0.0
C712 C 0.96115 0.38656 1.00581 0.0
N713 N 0.9527 0.40736 0.92419 0.0
H714 H 0.97114 0.43735 0.79826 0.0
H715 H 0.94242 0.37287 0.04844 0.0
H716 H 0.96302 0.35758 0.76857 0.0
H717 H 0.86963 0.33424 0.89588 0.0
O718 O 0.91961 0.40999 0.71627 0.0
O719 O 0.8687 0.40052 0.77802 0.0
O720 O 0.88625 0.39532 1.00591 0.0
C721 C 0.88838 0.4048 0.69723 0.0
H722 H 0.84966 0.51516 0.89415 0.0
H723 H 0.9541 0.29329 0.74806 0.0
H724 H 0.99951 0.36111 0.08937 0.0
H725 H 0.02923 0.4242 0.82878 0.0
Co726 Co 0.87899 0.65813 0.11324 0.0
C727 C 0.80763 0.66236 0.05495 0.0
C728 C 0.81646 0.62407 0.16967 0.0
C729 C 0.78476 0.62027 0.1295 0.0
N730 N 0.83099 0.6507 0.12387 0.0
N731 N 0.77929 0.64457 0.05831 0.0
H732 H 0.81233 0.6807 0.99421 0.0
H733 H 0.82913 0.60628 0.21948 0.0
C734 C 0.8747 0.6403 0.34724 0.0
O735 O 0.85033 0.66156 0.35947 0.0
N736 N 0.92631 0.66522 0.09549 0.0
C737 C 0.9396 0.69172 0.04626 0.0
C738 C 0.97297 0.68666 0.03369 0.0
C739 C 0.95189 0.64402 0.11113 0.0
N740 N 0.98088 0.65658 0.07364 0.0
C741 C 0.86126 0.72725 0.11581 0.0
C742 C 0.90473 0.7442 0.27649 0.0
C743 C 0.89249 0.76946 0.2104 0.0
C744 C 0.8692 0.76075 0.13238 0.0
C745 C 0.89679 0.71115 0.25586 0.0
N746 N 0.876 0.7027 0.17425 0.0
H747 H 0.84601 0.72114 0.04834 0.0
H748 H 0.91048 0.69242 0.29848 0.0
H749 H 0.92578 0.71302 1.01863 0.0
H750 H 0.94911 0.61963 0.14587 0.0
O751 O 0.87337 0.66962 0.96631 0.0
O752 O 0.88284 0.6187 0.02801 0.0
O753 O 0.88803 0.63625 0.25592 0.0
C754 C 0.87855 0.63838 0.94724 0.0
H755 H 0.76821 0.59964 0.14409 0.0
H756 H 0.99007 0.7041 0.99809 0.0
H757 H 0.92224 0.74951 0.33943 0.0
H758 H 0.85915 0.77922 0.07889 0.0
Co759 Co 0.62525 0.629 0.36321 0.0
C760 C 0.62102 0.55763 0.30491 0.0
C761 C 0.6593 0.56646 0.41964 0.0
C762 C 0.66309 0.53475 0.37949 0.0
N763 N 0.63268 0.58099 0.37383 0.0
N764 N 0.6388 0.52929 0.30829 0.0
H765 H 0.60269 0.56233 0.24416 0.0
H766 H 0.67709 0.57913 0.46946 0.0
C767 C 0.64308 0.62471 0.59721 0.0
O768 O 0.62181 0.60034 0.60944 0.0
N769 N 0.61816 0.67632 0.34549 0.0
C770 C 0.59165 0.68961 0.29627 0.0
C771 C 0.59672 0.72298 0.28371 0.0
C772 C 0.63935 0.7019 0.36113 0.0
N773 N 0.62679 0.73088 0.32368 0.0
C774 C 0.55613 0.61126 0.3658 0.0
C775 C 0.53918 0.65474 0.52649 0.0
C776 C 0.51391 0.6425 0.4604 0.0
C777 C 0.52264 0.6192 0.38237 0.0
C778 C 0.57223 0.64679 0.50586 0.0
N779 N 0.58068 0.626 0.42424 0.0
H780 H 0.56225 0.596 0.29833 0.0
H781 H 0.59096 0.66048 0.54848 0.0
H782 H 0.57036 0.67578 0.26863 0.0
H783 H 0.66375 0.69912 0.39585 0.0
O784 O 0.61376 0.62337 0.21629 0.0
O785 O 0.66468 0.63284 0.27797 0.0
O786 O 0.64713 0.63804 0.50589 0.0
C787 C 0.645 0.62856 0.19721 0.0
H788 H 0.68372 0.5182 0.3941 0.0
H789 H 0.57928 0.74007 0.24811 0.0
H790 H 0.53386 0.67225 0.58941 0.0
H791 H 0.50416 0.60915 0.32887 0.0
Co792 Co 0.37902 0.37526 0.11325 0.0
C793 C 0.30763 0.37103 0.05525 0.0
C794 C 0.31652 0.40935 0.16976 0.0
C795 C 0.2848 0.41311 0.1298 0.0
N796 N 0.33103 0.38271 0.12398 0.0
N797 N 0.27926 0.38877 0.05884 0.0
H798 H 0.31231 0.35268 0.99448 0.0
H799 H 0.32922 0.42717 0.2194 0.0
C800 C 0.37476 0.39311 0.34723 0.0
O801 O 0.35037 0.37186 0.35946 0.0
N802 N 0.42634 0.36816 0.09542 0.0
C803 C 0.43962 0.34165 0.04615 0.0
C804 C 0.47299 0.3467 0.03359 0.0
C805 C 0.45193 0.38933 0.1111 0.0
N806 N 0.48091 0.37677 0.07361 0.0
C807 C 0.36128 0.30614 0.11588 0.0
C808 C 0.40476 0.2892 0.27654 0.0
C809 C 0.39251 0.26393 0.21048 0.0
C810 C 0.36921 0.27265 0.13246 0.0
C811 C 0.39682 0.32225 0.25589 0.0
N812 N 0.37602 0.33069 0.17429 0.0
H813 H 0.34602 0.31226 0.04841 0.0
H814 H 0.41052 0.34098 0.2985 0.0
H815 H 0.42578 0.32036 1.0185 0.0
H816 H 0.44916 0.41372 0.14587 0.0
O817 O 0.37336 0.36377 0.96634 0.0
O818 O 0.38287 0.41468 0.02799 0.0
O819 O 0.38809 0.39715 0.25591 0.0
C820 C 0.37856 0.395 0.94722 0.0
H821 H 0.26826 0.43376 0.14438 0.0
H822 H 0.49008 0.32926 0.99796 0.0
H823 H 0.42227 0.28388 0.33947 0.0
H824 H 0.35916 0.25417 0.07899 0.0
Co825 Co 0.4081 0.62903 0.86322 0.0
C826 C 0.41233 0.55763 0.80522 0.0
C827 C 0.37402 0.56652 0.91977 0.0
C828 C 0.37026 0.5348 0.87983 0.0
N829 N 0.40065 0.58103 0.87395 0.0
N830 N 0.3946 0.52926 0.80884 0.0
H831 H 0.43068 0.5623 0.74443 0.0
H832 H 0.35619 0.57923 0.96942 0.0
C833 C 0.39025 0.62476 0.09721 0.0
O834 O 0.41151 0.60038 0.1094 0.0
N835 N 0.4152 0.67634 0.84539 0.0
C836 C 0.44171 0.68962 0.79611 0.0
C837 C 0.43666 0.72299 0.78355 0.0
C838 C 0.39402 0.70193 0.86107 0.0
N839 N 0.40659 0.73091 0.82358 0.0
C840 C 0.47722 0.61128 0.86581 0.0
C841 C 0.49416 0.65476 0.0265 0.0
C842 C 0.51943 0.64251 0.96043 0.0
C843 C 0.51071 0.61921 0.8824 0.0
C844 C 0.46111 0.64683 1.00584 0.0
N845 N 0.45267 0.62603 0.92423 0.0
H846 H 0.47111 0.59603 0.79834 0.0
H847 H 0.44238 0.66053 0.04845 0.0
H848 H 0.463 0.67578 0.76845 0.0
H849 H 0.36963 0.69916 0.89585 0.0
O850 O 0.41959 0.62336 0.7163 0.0
O851 O 0.36868 0.63287 0.77798 0.0
O852 O 0.38622 0.6381 1.0059 0.0
C853 C 0.38836 0.62856 0.6972 0.0
H854 H 0.34962 0.51826 0.89443 0.0
H855 H 0.4541 0.74007 0.74791 0.0
H856 H 0.49947 0.67228 0.08943 0.0
H857 H 0.52919 0.60916 0.82892 0.0
Co858 Co 0.15434 0.65809 0.61322 0.0
C859 C 0.22574 0.66232 0.55524 0.0
C860 C 0.21683 0.62399 0.66972 0.0
C861 C 0.24856 0.62023 0.62978 0.0
N862 N 0.20233 0.65064 0.62396 0.0
N863 N 0.25411 0.64458 0.55884 0.0
H864 H 0.22108 0.68067 0.49449 0.0
H865 H 0.20412 0.60617 0.71934 0.0
C866 C 0.1586 0.64024 0.84719 0.0
O867 O 0.18299 0.66149 0.85939 0.0
N868 N 0.10703 0.6652 0.5954 0.0
C869 C 0.09376 0.69171 0.54613 0.0
C870 C 0.06038 0.68666 0.53355 0.0
C871 C 0.08144 0.64403 0.61105 0.0
N872 N 0.05246 0.65659 0.57356 0.0
C873 C 0.17209 0.72721 0.61583 0.0
C874 C 0.12861 0.74416 0.77653 0.0
C875 C 0.14086 0.76943 0.71046 0.0
C876 C 0.16416 0.76071 0.63243 0.0
C877 C 0.13654 0.71111 0.75588 0.0
N878 N 0.15734 0.70266 0.67426 0.0
H879 H 0.18734 0.7211 0.54835 0.0
H880 H 0.12284 0.69238 0.79849 0.0
H881 H 0.1076 0.713 0.51848 0.0
H882 H 0.0842 0.61963 0.64581 0.0
O883 O 0.16001 0.66958 0.46631 0.0
O884 O 0.15049 0.61867 0.52797 0.0
O885 O 0.14526 0.63621 0.75589 0.0
C886 C 0.15481 0.63835 0.44719 0.0
H887 H 0.26509 0.59958 0.64435 0.0
H888 H 0.0433 0.7041 0.49791 0.0
H889 H 0.11109 0.74947 0.83947 0.0
H890 H 0.17421 0.77918 0.57894 0.0
Co891 Co 0.12528 0.40433 0.36322 0.0
C892 C 0.12104 0.47573 0.30521 0.0
C893 C 0.15936 0.46683 0.41973 0.0
C894 C 0.16312 0.49856 0.3798 0.0
N895 N 0.13273 0.45232 0.37394 0.0
N896 N 0.13877 0.5041 0.30883 0.0
H897 H 0.10271 0.47105 0.24444 0.0
H898 H 0.17718 0.45414 0.46937 0.0
C899 C 0.14313 0.40859 0.59719 0.0
O900 O 0.12188 0.43297 0.60942 0.0
N901 N 0.11818 0.35701 0.3454 0.0
C902 C 0.09167 0.34374 0.29615 0.0
C903 C 0.09673 0.31036 0.28358 0.0
C904 C 0.13936 0.33142 0.36106 0.0
N905 N 0.12679 0.30245 0.32358 0.0
C906 C 0.05617 0.42208 0.36587 0.0
C907 C 0.03921 0.37859 0.52655 0.0
C908 C 1.01395 0.39084 0.46049 0.0
C909 C 0.02267 0.41415 0.38247 0.0
C910 C 0.07227 0.38652 0.50589 0.0
N911 N 0.08071 0.40733 0.42428 0.0
H912 H 0.06228 0.43733 0.2984 0.0
H913 H 0.091 0.37283 0.54848 0.0
H914 H 0.07038 0.35758 0.2685 0.0
H915 H 0.16375 0.33419 0.39581 0.0
O916 O 0.11379 0.40999 0.21631 0.0
O917 O 0.1647 0.40048 0.27794 0.0
O918 O 0.14717 0.39526 0.50587 0.0
C919 C 0.14502 0.40479 0.19718 0.0
H920 H 0.18375 0.51511 0.39439 0.0
H921 H 0.07928 0.29328 0.24795 0.0
H922 H 0.0339 0.36107 0.58947 0.0
H923 H 1.00419 0.4242 0.329 0.0
Co924 Co 0.379 0.65812 0.42552 0.0
C925 C 0.30763 0.66235 0.4838 0.0
C926 C 0.31648 0.62406 0.36911 0.0
C927 C 0.28478 0.62026 0.40926 0.0
N928 N 0.331 0.65069 0.41489 0.0
N929 N 0.2793 0.64456 0.48043 0.0
H930 H 0.31232 0.6807 0.54453 0.0
H931 H 0.32916 0.60626 0.31931 0.0
C932 C 0.37472 0.6403 0.19153 0.0
O933 O 0.35034 0.66156 0.17933 0.0
N934 N 0.42632 0.66522 0.44325 0.0
C935 C 0.43961 0.69173 0.49248 0.0
C936 C 0.47298 0.68666 0.50505 0.0
C937 C 0.4519 0.64403 0.42761 0.0
N938 N 0.48088 0.65659 0.46508 0.0
C939 C 0.36126 0.72725 0.42297 0.0
C940 C 0.40474 0.7442 0.26224 0.0
C941 C 0.3925 0.76946 0.32834 0.0
C942 C 0.3692 0.76074 0.40639 0.0
C943 C 0.3968 0.71114 0.28288 0.0
N944 N 0.37601 0.7027 0.36452 0.0
H945 H 0.34601 0.72113 0.49045 0.0
H946 H 0.41049 0.69241 0.24025 0.0
H947 H 0.42578 0.71302 0.52013 0.0
H948 H 0.44913 0.61964 0.39289 0.0
O949 O 0.37336 0.66961 0.57246 0.0
O950 O 0.38285 0.6187 0.51074 0.0
O951 O 0.38805 0.63625 0.28283 0.0
C952 C 0.37856 0.63838 0.59152 0.0
H953 H 0.26823 0.59963 0.39467 0.0
H954 H 0.49007 0.7041 0.54066 0.0
H955 H 0.42225 0.74951 0.19929 0.0
H956 H 0.35916 0.77922 0.45989 0.0
Co957 Co 0.12524 0.629 0.17552 0.0
C958 C 0.12101 0.55763 0.23382 0.0
C959 C 0.15929 0.56646 0.11906 0.0
C960 C 0.16308 0.53475 0.15921 0.0
N961 N 0.13267 0.58099 0.1649 0.0
N962 N 0.13879 0.52929 0.23043 0.0
H963 H 0.10267 0.56233 0.29459 0.0
H964 H 0.17709 0.57913 0.06923 0.0
C965 C 0.14307 0.6247 0.94151 0.0
O966 O 0.1218 0.60034 0.92931 0.0
N967 N 0.11815 0.67632 0.19326 0.0
C968 C 0.09165 0.68961 0.2425 0.0
C969 C 0.09671 0.72298 0.25505 0.0
C970 C 0.13934 0.7019 0.17759 0.0
N971 N 0.12678 0.73088 0.21506 0.0
C972 C 0.05612 0.61126 0.17299 0.0
C973 C 0.03918 0.65473 1.01228 0.0
C974 C 1.01391 0.6425 0.07838 0.0
C975 C 0.02262 0.6192 0.15642 0.0
C976 C 0.07223 0.6468 0.03292 0.0
N977 N 0.08067 0.626 0.11454 0.0
H978 H 0.06223 0.59601 0.24047 0.0
H979 H 0.09096 0.66048 0.99029 0.0
H980 H 0.07035 0.67578 0.27017 0.0
H981 H 0.16374 0.69912 0.14285 0.0
O982 O 0.11376 0.62337 0.32247 0.0
O983 O 0.16467 0.63284 0.26072 0.0
O984 O 0.14712 0.63803 0.03282 0.0
C985 C 0.14499 0.62856 0.34151 0.0
H986 H 0.18371 0.5182 0.14458 0.0
H987 H 0.07927 0.74007 0.29067 0.0
H988 H 0.03387 0.67225 0.94934 0.0
H989 H 1.00414 0.60916 0.20992 0.0
Co990 Co 0.15438 0.37523 0.92549 0.0
C991 C 0.22575 0.371 0.98379 0.0
C992 C 0.21692 0.40928 0.86906 0.0
C993 C 0.24862 0.41308 0.90923 0.0
N994 N 0.20238 0.38266 0.91486 0.0
N995 N 0.25408 0.38879 0.98043 0.0
H996 H 0.22104 0.35266 0.04453 0.0
H997 H 0.20425 0.42708 0.81924 0.0
C998 C 0.15867 0.39306 0.69149 0.0
O999 O 0.18304 0.37179 0.67925 0.0
N1000 N 0.10706 0.36814 0.94323 0.0
C1001 C 0.09377 0.34163 0.99246 0.0
C1002 C 0.0604 0.3467 1.00501 0.0
C1003 C 0.08148 0.38933 0.92756 0.0
N1004 N 0.05249 0.37677 0.96502 0.0
C1005 C 0.17212 0.30611 0.92292 0.0
C1006 C 0.12865 0.28916 0.76223 0.0
C1007 C 0.14088 0.26389 0.82833 0.0
C1008 C 0.16418 0.27261 0.90635 0.0
C1009 C 0.13659 0.32221 0.78286 0.0
N1010 N 0.15738 0.33065 0.86448 0.0
H1011 H 0.18737 0.31222 0.99039 0.0
H1012 H 0.1229 0.34094 0.74024 0.0
H1013 H 0.1076 0.32034 0.02011 0.0
H1014 H 0.08426 0.41372 0.89284 0.0
O1015 O 0.16001 0.36374 0.07242 0.0
O1016 O 0.15053 0.41466 1.01071 0.0
O1017 O 0.14534 0.39711 0.78281 0.0
C1018 C 0.15482 0.39498 0.09149 0.0
H1019 H 0.26517 0.43371 0.89463 0.0
H1020 H 0.0433 0.32926 0.04062 0.0
H1021 H 0.11113 0.28385 0.6993 0.0
H1022 H 0.17422 0.25413 0.95985 0.0
Co1023 Co 0.40812 0.40436 0.67552 0.0
C1024 C 0.41235 0.47573 0.73382 0.0
C1025 C 0.37408 0.4669 0.61909 0.0
C1026 C 0.37029 0.49861 0.65924 0.0
N1027 N 0.4007 0.45236 0.66491 0.0
N1028 N 0.39458 0.50407 0.73044 0.0
H1029 H 0.43069 0.47103 0.79457 0.0
H1030 H 0.35628 0.45423 0.56927 0.0
C1031 C 0.3903 0.40865 0.44153 0.0
O1032 O 0.41156 0.43302 0.4293 0.0
N1033 N 0.41521 0.35704 0.69325 0.0
C1034 C 0.44172 0.34375 0.74246 0.0
C1035 C 0.43665 0.31038 0.75502 0.0
C1036 C 0.39402 0.33146 0.6776 0.0
N1037 N 0.40658 0.30247 0.71506 0.0
C1038 C 0.47724 0.4221 0.67292 0.0
C1039 C 0.4942 0.37862 0.51223 0.0
C1040 C 0.51946 0.39086 0.57831 0.0
C1041 C 0.51074 0.41416 0.65634 0.0
C1042 C 0.46114 0.38656 0.53287 0.0
N1043 N 0.4527 0.40736 0.61449 0.0
H1044 H 0.47113 0.43735 0.7404 0.0
H1045 H 0.44241 0.37287 0.49025 0.0
H1046 H 0.46302 0.35758 0.7701 0.0
H1047 H 0.36963 0.33424 0.64289 0.0
O1048 O 0.41961 0.40999 0.82245 0.0
O1049 O 0.3687 0.40051 0.76077 0.0
O1050 O 0.38624 0.39532 0.53285 0.0
C1051 C 0.38838 0.4048 0.84153 0.0
H1052 H 0.34966 0.51516 0.64463 0.0
H1053 H 0.45409 0.29328 0.79062 0.0
H1054 H 0.49951 0.36111 0.44929 0.0
H1055 H 0.52922 0.4242 0.70983 0.0
loop_
_geom_bond_atom_site_label_1
_geom_bond_atom_site_label_2
_geom_bond_distance
_geom_bond_site_symmetry_2
_ccdc_geom_bond_type
Co0 N4 2.148 . S
Co0 N10 2.128 . S
Co0 N20 2.194 . S
Co0 O25 2.351 . S
Co0 O26 2.155 . S
Co0 O27 2.096 . S
C1 N4 1.301 . S
C1 N5 1.328 . S
C1 H6 0.930 . S
C2 C3 1.333 . S
C2 N4 1.317 . S
C2 H7 0.930 . S
C3 C2 1.333 . S
C3 N5 1.350 . S
C3 H29 0.931 . S
N4 Co0 2.148 . S
N4 C1 1.301 . S
N4 C2 1.317 . S
N5 C1 1.328 . S
N5 C3 1.350 . S
H6 C1 0.930 . S
H7 C2 0.930 . S
C8 O9 1.224 . S
C8 O27 1.247 . S
O9 C8 1.224 . S
N10 Co0 2.128 . S
N10 C11 1.355 . S
N10 C13 1.311 . S
C11 N10 1.355 . S
C11 C12 1.363 . S
C11 H23 0.929 . S
C12 C11 1.363 . S
C12 N14 1.375 . S
C12 H30 0.931 . S
C13 N10 1.311 . S
C13 N14 1.347 . S
C13 H24 0.929 . S
N14 C12 1.375 . S
N14 C13 1.347 . S
C15 C18 1.365 . S
C15 N20 1.328 . S
C15 H21 0.929 . S
C16 C17 1.362 . S
C16 C19 1.378 . S
C16 H31 0.929 . S
C17 C16 1.362 . S
C17 C18 1.366 . S
C18 C15 1.365 . S
C18 C17 1.366 . S
C18 H32 0.930 . S
C19 C16 1.378 . S
C19 N20 1.315 . S
C19 H22 0.930 . S
N20 Co0 2.194 . S
N20 C15 1.328 . S
N20 C19 1.315 . S
H21 C15 0.929 . S
H22 C19 0.930 . S
H23 C11 0.929 . S
H24 C13 0.929 . S
O25 Co0 2.351 . S
O25 C28 1.244 . S
O26 Co0 2.155 . S
O26 C28 1.240 . S
O27 Co0 2.096 . S
O27 C8 1.247 . S
C28 O25 1.244 . S
C28 O26 1.240 . S
H29 C3 0.931 . S
H30 C12 0.931 . S
H31 C16 0.929 . S
H32 C18 0.930 . S
Co33 N37 2.148 . S
Co33 N43 2.128 . S
Co33 N53 2.194 . S
Co33 O58 2.351 . S
Co33 O59 2.155 . S
Co33 O60 2.096 . S
C34 N37 1.301 . S
C34 N38 1.328 . S
C34 H39 0.930 . S
C35 C36 1.333 . S
C35 N37 1.317 . S
C35 H40 0.930 . S
C36 C35 1.333 . S
C36 N38 1.350 . S
C36 H62 0.931 1_565 S
N37 Co33 2.148 . S
N37 C34 1.301 . S
N37 C35 1.317 . S
N38 C34 1.328 . S
N38 C36 1.350 . S
H39 C34 0.930 . S
H40 C35 0.930 . S
C41 O42 1.224 . S
C41 O60 1.247 . S
O42 C41 1.224 . S
N43 Co33 2.128 . S
N43 C44 1.355 . S
N43 C46 1.311 . S
C44 N43 1.355 . S
C44 C45 1.363 . S
C44 H56 0.929 . S
C45 C44 1.363 . S
C45 N47 1.375 . S
C45 H63 0.931 . S
C46 N43 1.311 . S
C46 N47 1.347 . S
C46 H57 0.929 . S
N47 C45 1.375 . S
N47 C46 1.347 . S
C48 C51 1.365 . S
C48 N53 1.328 . S
C48 H54 0.929 . S
C49 C50 1.383 . S
C49 C52 1.378 . S
C49 H64 0.929 . S
C50 C49 1.383 . S
C50 C51 1.383 . S
C51 C48 1.365 . S
C51 C50 1.383 . S
C51 H65 0.930 . S
C52 C49 1.378 . S
C52 N53 1.315 . S
C52 H55 0.930 . S
N53 Co33 2.194 . S
N53 C48 1.328 . S
N53 C52 1.315 . S
H54 C48 0.929 . S
H55 C52 0.930 . S
H56 C44 0.929 . S
H57 C46 0.929 . S
O58 Co33 2.351 . S
O58 C61 1.244 . S
O59 Co33 2.155 . S
O59 C61 1.240 . S
O60 Co33 2.096 . S
O60 C41 1.247 . S
C61 O58 1.244 . S
C61 O59 1.240 . S
H62 C36 0.931 1_545 S
H63 C45 0.931 . S
H64 C49 0.929 . S
H65 C51 0.930 . S
Co66 N70 2.148 . S
Co66 N76 2.128 . S
Co66 N86 2.194 . S
Co66 O91 2.351 1_556 S
Co66 O92 2.148 1_556 S
Co66 O93 2.096 . S
C67 N70 1.301 . S
C67 N71 1.328 . S
C67 H72 0.930 1_556 S
C68 C69 1.333 . S
C68 N70 1.317 . S
C68 H73 0.930 . S
C69 C68 1.333 . S
C69 N71 1.350 . S
C69 H95 0.931 . S
N70 Co66 2.148 . S
N70 C67 1.301 . S
N70 C68 1.317 . S
N71 C67 1.328 . S
N71 C69 1.350 . S
H72 C67 0.930 1_554 S
H73 C68 0.930 . S
C74 O75 1.224 . S
C74 O93 1.247 . S
O75 C74 1.224 . S
N76 Co66 2.128 . S
N76 C77 1.355 . S
N76 C79 1.311 . S
C77 N76 1.355 . S
C77 C78 1.363 . S
C77 H89 0.929 . S
C78 C77 1.363 . S
C78 N80 1.375 . S
C78 H96 0.931 . S
C79 N76 1.311 . S
C79 N80 1.347 . S
C79 H90 0.929 . S
N80 C78 1.375 . S
N80 C79 1.347 . S
C81 C84 1.365 . S
C81 N86 1.328 . S
C81 H87 0.929 1_556 S
C82 C83 1.362 . S
C82 C85 1.378 . S
C82 H97 0.929 . S
C83 C82 1.362 . S
C83 C84 1.366 . S
C84 C81 1.365 . S
C84 C83 1.366 . S
C84 H98 0.930 1_556 S
C85 C82 1.378 . S
C85 N86 1.315 . S
C85 H88 0.930 . S
N86 Co66 2.194 . S
N86 C81 1.328 . S
N86 C85 1.315 . S
H87 C81 0.929 1_554 S
H88 C85 0.930 . S
H89 C77 0.929 . S
H90 C79 0.929 . S
O91 Co66 2.351 1_554 S
O91 C94 1.244 . S
O92 Co66 2.148 1_554 S
O92 C94 1.248 . S
O93 Co66 2.096 . S
O93 C74 1.247 . S
C94 O91 1.244 . S
C94 O92 1.248 . S
H95 C69 0.931 . S
H96 C78 0.931 . S
H97 C82 0.929 . S
H98 C84 0.930 1_554 S
Co99 N103 2.148 . S
Co99 N109 2.128 . S
Co99 N119 2.194 . S
Co99 O124 2.351 . S
Co99 O125 2.155 . S
Co99 O126 2.096 . S
C100 N103 1.301 . S
C100 N104 1.328 . S
C100 H105 0.930 . S
C101 C102 1.333 . S
C101 N103 1.317 . S
C101 H106 0.930 . S
C102 C101 1.333 . S
C102 N104 1.350 . S
C102 H128 0.931 1_545 S
N103 Co99 2.148 . S
N103 C100 1.301 . S
N103 C101 1.317 . S
N104 C100 1.328 . S
N104 C102 1.350 . S
H105 C100 0.930 . S
H106 C101 0.930 . S
C107 O108 1.224 . S
C107 O126 1.247 1_556 S
O108 C107 1.224 . S
N109 Co99 2.128 . S
N109 C110 1.355 . S
N109 C112 1.311 . S
C110 N109 1.355 . S
C110 C111 1.363 . S
C110 H122 0.929 . S
C111 C110 1.363 . S
C111 N113 1.375 . S
C111 H129 0.931 . S
C112 N109 1.311 . S
C112 N113 1.347 . S
C112 H123 0.929 . S
N113 C111 1.375 . S
N113 C112 1.347 . S
C114 C117 1.365 . S
C114 N119 1.328 . S
C114 H120 0.929 . S
C115 C116 1.362 . S
C115 C118 1.378 . S
C115 H130 0.929 1_554 S
C116 C115 1.362 . S
C116 C117 1.366 . S
C117 C114 1.365 . S
C117 C116 1.366 . S
C117 H131 0.930 . S
C118 C115 1.378 . S
C118 N119 1.315 . S
C118 H121 0.930 1_554 S
N119 Co99 2.194 . S
N119 C114 1.328 . S
N119 C118 1.315 . S
H120 C114 0.929 . S
H121 C118 0.930 1_556 S
H122 C110 0.929 . S
H123 C112 0.929 . S
O124 Co99 2.351 . S
O124 C127 1.244 . S
O125 Co99 2.155 . S
O125 C127 1.240 . S
O126 Co99 2.096 . S
O126 C107 1.247 1_554 S
C127 O124 1.244 . S
C127 O125 1.240 . S
H128 C102 0.931 1_565 S
H129 C111 0.931 . S
H130 C115 0.929 1_556 S
H131 C117 0.930 . S
Co132 N136 2.148 . S
Co132 N142 2.128 . S
Co132 N152 2.194 . S
Co132 O157 2.351 1_554 S
Co132 O158 2.148 1_554 S
Co132 O159 2.096 . S
C133 N136 1.301 . S
C133 N137 1.328 . S
C133 H138 0.930 1_554 S
C134 C135 1.333 . S
C134 N136 1.317 . S
C134 H139 0.930 . S
C135 C134 1.333 . S
C135 N137 1.350 . S
C135 H161 0.931 . S
N136 Co132 2.148 . S
N136 C133 1.301 . S
N136 C134 1.317 . S
N137 C133 1.328 . S
N137 C135 1.350 . S
H138 C133 0.930 1_556 S
H139 C134 0.930 . S
C140 O141 1.224 . S
C140 O159 1.247 . S
O141 C140 1.224 . S
N142 Co132 2.128 . S
N142 C143 1.355 . S
N142 C145 1.311 . S
C143 N142 1.355 . S
C143 C144 1.363 . S
C143 H155 0.929 . S
C144 C143 1.363 . S
C144 N146 1.375 . S
C144 H162 0.931 . S
C145 N142 1.311 . S
C145 N146 1.347 . S
C145 H156 0.929 . S
N146 C144 1.375 . S
N146 C145 1.347 . S
C147 C150 1.365 . S
C147 N152 1.328 . S
C147 H153 0.929 1_554 S
C148 C149 1.362 . S
C148 C151 1.378 . S
C148 H163 0.929 . S
C149 C148 1.362 . S
C149 C150 1.366 . S
C150 C147 1.365 . S
C150 C149 1.366 . S
C150 H164 0.930 1_554 S
C151 C148 1.378 . S
C151 N152 1.315 . S
C151 H154 0.930 . S
N152 Co132 2.194 . S
N152 C147 1.328 . S
N152 C151 1.315 . S
H153 C147 0.929 1_556 S
H154 C151 0.930 . S
H155 C143 0.929 . S
H156 C145 0.929 . S
O157 Co132 2.351 1_556 S
O157 C160 1.244 . S
O158 Co132 2.148 1_556 S
O158 C160 1.248 . S
O159 Co132 2.096 . S
O159 C140 1.247 . S
C160 O157 1.244 . S
C160 O158 1.248 . S
H161 C135 0.931 . S
H162 C144 0.931 . S
H163 C148 0.929 . S
H164 C150 0.930 1_556 S
Co165 N169 2.148 . S
Co165 N175 2.128 . S
Co165 N185 2.194 . S
Co165 O190 2.351 . S
Co165 O191 2.155 . S
Co165 O192 2.096 . S
C166 N169 1.301 . S
C166 N170 1.328 . S
C166 H171 0.930 . S
C167 C168 1.333 . S
C167 N169 1.317 . S
C167 H172 0.930 . S
C168 C167 1.333 . S
C168 N170 1.350 . S
C168 H194 0.931 1_565 S
N169 Co165 2.148 . S
N169 C166 1.301 . S
N169 C167 1.317 . S
N170 C166 1.328 . S
N170 C168 1.350 . S
H171 C166 0.930 . S
H172 C167 0.930 . S
C173 O174 1.224 . S
C173 O192 1.247 . S
O174 C173 1.224 . S
N175 Co165 2.128 . S
N175 C176 1.355 . S
N175 C178 1.311 . S
C176 N175 1.355 . S
C176 C177 1.363 . S
C176 H188 0.929 . S
C177 C176 1.363 . S
C177 N179 1.375 . S
C177 H195 0.931 . S
C178 N175 1.311 . S
C178 N179 1.347 . S
C178 H189 0.929 . S
N179 C177 1.375 . S
N179 C178 1.347 . S
C180 C183 1.365 . S
C180 N185 1.328 . S
C180 H186 0.929 . S
C181 C182 1.362 . S
C181 C184 1.378 . S
C181 H196 0.929 . S
C182 C181 1.362 . S
C182 C183 1.366 . S
C183 C180 1.365 . S
C183 C182 1.366 . S
C183 H197 0.930 . S
C184 C181 1.378 . S
C184 N185 1.315 . S
C184 H187 0.930 . S
N185 Co165 2.194 . S
N185 C180 1.328 . S
N185 C184 1.315 . S
H186 C180 0.929 . S
H187 C184 0.930 . S
H188 C176 0.929 . S
H189 C178 0.929 . S
O190 Co165 2.351 . S
O190 C193 1.244 . S
O191 Co165 2.155 . S
O191 C193 1.240 . S
O192 Co165 2.096 . S
O192 C173 1.247 . S
C193 O190 1.244 . S
C193 O191 1.240 . S
H194 C168 0.931 1_545 S
H195 C177 0.931 . S
H196 C181 0.929 . S
H197 C183 0.930 . S
Co198 N202 2.148 . S
Co198 N208 2.128 . S
Co198 N218 2.194 . S
Co198 O223 2.351 . S
Co198 O224 2.155 . S
Co198 O225 2.096 . S
C199 N202 1.301 . S
C199 N203 1.328 . S
C199 H204 0.930 . S
C200 C201 1.333 . S
C200 N202 1.317 . S
C200 H205 0.930 . S
C201 C200 1.333 . S
C201 N203 1.350 . S
C201 H227 0.931 . S
N202 Co198 2.148 . S
N202 C199 1.301 . S
N202 C200 1.317 . S
N203 C199 1.328 . S
N203 C201 1.350 . S
H204 C199 0.930 . S
H205 C200 0.930 . S
C206 O207 1.224 . S
C206 O225 1.247 . S
O207 C206 1.224 . S
N208 Co198 2.128 . S
N208 C209 1.355 . S
N208 C211 1.311 . S
C209 N208 1.355 . S
C209 C210 1.363 . S
C209 H221 0.929 . S
C210 C209 1.363 . S
C210 N212 1.375 . S
C210 H228 0.931 . S
C211 N208 1.311 . S
C211 N212 1.347 . S
C211 H222 0.929 . S
N212 C210 1.375 . S
N212 C211 1.347 . S
C213 C216 1.365 . S
C213 N218 1.328 . S
C213 H219 0.929 . S
C214 C215 1.362 . S
C214 C217 1.378 . S
C214 H229 0.929 . S
C215 C214 1.362 . S
C215 C216 1.366 . S
C216 C213 1.365 . S
C216 C215 1.366 . S
C216 H230 0.930 . S
C217 C214 1.378 . S
C217 N218 1.315 . S
C217 H220 0.930 . S
N218 Co198 2.194 . S
N218 C213 1.328 . S
N218 C217 1.315 . S
H219 C213 0.929 . S
H220 C217 0.930 . S
H221 C209 0.929 . S
H222 C211 0.929 . S
O223 Co198 2.351 . S
O223 C226 1.244 . S
O224 Co198 2.155 . S
O224 C226 1.240 . S
O225 Co198 2.096 . S
O225 C206 1.247 . S
C226 O223 1.244 . S
C226 O224 1.240 . S
H227 C201 0.931 . S
H228 C210 0.931 . S
H229 C214 0.929 . S
H230 C216 0.930 . S
Co231 N235 2.148 . S
Co231 N241 2.128 . S
Co231 N251 2.194 . S
Co231 O256 2.351 . S
Co231 O257 2.155 . S
Co231 O258 2.096 . S
C232 N235 1.301 . S
C232 N236 1.328 . S
C232 H237 0.930 . S
C233 C234 1.333 . S
C233 N235 1.317 . S
C233 H238 0.930 . S
C234 C233 1.333 . S
C234 N236 1.350 . S
C234 H260 0.931 1_545 S
N235 Co231 2.148 . S
N235 C232 1.301 . S
N235 C233 1.317 . S
N236 C232 1.328 . S
N236 C234 1.350 . S
H237 C232 0.930 . S
H238 C233 0.930 . S
C239 O240 1.224 . S
C239 O258 1.247 1_554 S
O240 C239 1.224 . S
N241 Co231 2.128 . S
N241 C242 1.355 . S
N241 C244 1.311 . S
C242 N241 1.355 . S
C242 C243 1.363 . S
C242 H254 0.929 . S
C243 C242 1.363 . S
C243 N245 1.375 . S
C243 H261 0.931 . S
C244 N241 1.311 . S
C244 N245 1.347 . S
C244 H255 0.929 . S
N245 C243 1.375 . S
N245 C244 1.347 . S
C246 C249 1.365 . S
C246 N251 1.328 . S
C246 H252 0.929 . S
C247 C248 1.383 . S
C247 C250 1.378 . S
C247 H262 0.929 1_556 S
C248 C247 1.383 . S
C248 C249 1.383 . S
C249 C246 1.365 . S
C249 C248 1.383 . S
C249 H263 0.930 . S
C250 C247 1.378 . S
C250 N251 1.315 . S
C250 H253 0.930 1_556 S
N251 Co231 2.194 . S
N251 C246 1.328 . S
N251 C250 1.315 . S
H252 C246 0.929 . S
H253 C250 0.930 1_554 S
H254 C242 0.929 . S
H255 C244 0.929 . S
O256 Co231 2.351 . S
O256 C259 1.244 . S
O257 Co231 2.155 . S
O257 C259 1.240 . S
O258 Co231 2.096 . S
O258 C239 1.247 1_556 S
C259 O256 1.244 . S
C259 O257 1.240 . S
H260 C234 0.931 1_565 S
H261 C243 0.931 . S
H262 C247 0.929 1_554 S
H263 C249 0.930 . S
Co264 N268 2.148 . S
Co264 N274 2.128 . S
Co264 N284 2.194 . S
Co264 O289 2.351 . S
Co264 O290 2.155 . S
Co264 O291 2.096 . S
C265 N268 1.301 . S
C265 N269 1.328 . S
C265 H270 0.930 . S
C266 C267 1.333 . S
C266 N268 1.317 . S
C266 H271 0.930 . S
C267 C266 1.333 . S
C267 N269 1.350 . S
C267 H293 0.931 . S
N268 Co264 2.148 . S
N268 C265 1.301 . S
N268 C266 1.317 . S
N269 C265 1.328 . S
N269 C267 1.350 . S
H270 C265 0.930 . S
H271 C266 0.930 . S
C272 O273 1.224 . S
C272 O291 1.247 . S
O273 C272 1.224 . S
N274 Co264 2.128 . S
N274 C275 1.355 . S
N274 C277 1.311 . S
C275 N274 1.355 . S
C275 C276 1.363 . S
C275 H287 0.929 . S
C276 C275 1.363 . S
C276 N278 1.375 . S
C276 H294 0.931 . S
C277 N274 1.311 . S
C277 N278 1.347 . S
C277 H288 0.929 . S
N278 C276 1.375 . S
N278 C277 1.347 . S
C279 C282 1.365 . S
C279 N284 1.328 . S
C279 H285 0.929 . S
C280 C281 1.362 . S
C280 C283 1.378 . S
C280 H295 0.929 . S
C281 C280 1.362 . S
C281 C282 1.366 . S
C282 C279 1.365 . S
C282 C281 1.366 . S
C282 H296 0.930 . S
C283 C280 1.378 . S
C283 N284 1.315 . S
C283 H286 0.930 . S
N284 Co264 2.194 . S
N284 C279 1.328 . S
N284 C283 1.315 . S
H285 C279 0.929 . S
H286 C283 0.930 . S
H287 C275 0.929 . S
H288 C277 0.929 . S
O289 Co264 2.351 . S
O289 C292 1.244 . S
O290 Co264 2.155 . S
O290 C292 1.240 . S
O291 Co264 2.096 . S
O291 C272 1.247 . S
C292 O289 1.244 . S
C292 O290 1.240 . S
H293 C267 0.931 . S
H294 C276 0.931 . S
H295 C280 0.929 . S
H296 C282 0.930 . S
Co297 N301 2.148 . S
Co297 N307 2.128 . S
Co297 N317 2.194 . S
Co297 O322 2.351 . S
Co297 O323 2.155 . S
Co297 O324 2.096 . S
C298 N301 1.301 . S
C298 N302 1.328 . S
C298 H303 0.930 . S
C299 C300 1.333 . S
C299 N301 1.317 . S
C299 H304 0.930 . S
C300 C299 1.333 . S
C300 N302 1.350 . S
C300 H326 0.931 1_545 S
N301 Co297 2.148 . S
N301 C298 1.301 . S
N301 C299 1.317 . S
N302 C298 1.328 . S
N302 C300 1.350 . S
H303 C298 0.930 . S
H304 C299 0.930 . S
C305 O306 1.224 . S
C305 O324 1.247 . S
O306 C305 1.224 . S
N307 Co297 2.128 . S
N307 C308 1.355 . S
N307 C310 1.311 . S
C308 N307 1.355 . S
C308 C309 1.363 . S
C308 H320 0.929 . S
C309 C308 1.363 . S
C309 N311 1.375 . S
C309 H327 0.931 . S
C310 N307 1.311 . S
C310 N311 1.347 . S
C310 H321 0.929 . S
N311 C309 1.375 . S
N311 C310 1.347 . S
C312 C315 1.365 . S
C312 N317 1.328 . S
C312 H318 0.929 . S
C313 C314 1.383 . S
C313 C316 1.378 . S
C313 H328 0.929 . S
C314 C313 1.383 . S
C314 C315 1.383 . S
C315 C312 1.365 . S
C315 C314 1.383 . S
C315 H329 0.930 . S
C316 C313 1.378 . S
C316 N317 1.315 . S
C316 H319 0.930 . S
N317 Co297 2.194 . S
N317 C312 1.328 . S
N317 C316 1.315 . S
H318 C312 0.929 . S
H319 C316 0.930 . S
H320 C308 0.929 . S
H321 C310 0.929 . S
O322 Co297 2.351 . S
O322 C325 1.244 . S
O323 Co297 2.155 . S
O323 C325 1.240 . S
O324 Co297 2.096 . S
O324 C305 1.247 . S
C325 O322 1.244 . S
C325 O323 1.240 . S
H326 C300 0.931 1_565 S
H327 C309 0.931 . S
H328 C313 0.929 . S
H329 C315 0.930 . S
Co330 N334 2.148 . S
Co330 N340 2.128 . S
Co330 N350 2.194 . S
Co330 O355 2.351 1_554 S
Co330 O356 2.148 1_554 S
Co330 O357 2.096 . S
C331 N334 1.301 . S
C331 N335 1.328 . S
C331 H336 0.930 1_554 S
C332 C333 1.333 . S
C332 N334 1.317 . S
C332 H337 0.930 . S
C333 C332 1.333 . S
C333 N335 1.350 . S
C333 H359 0.931 . S
N334 Co330 2.148 . S
N334 C331 1.301 . S
N334 C332 1.317 . S
N335 C331 1.328 . S
N335 C333 1.350 . S
H336 C331 0.930 1_556 S
H337 C332 0.930 . S
C338 O339 1.224 . S
C338 O357 1.247 . S
O339 C338 1.224 . S
N340 Co330 2.128 . S
N340 C341 1.355 . S
N340 C343 1.311 . S
C341 N340 1.355 . S
C341 C342 1.363 . S
C341 H353 0.929 . S
C342 C341 1.363 . S
C342 N344 1.375 . S
C342 H360 0.931 . S
C343 N340 1.311 . S
C343 N344 1.347 . S
C343 H354 0.929 . S
N344 C342 1.375 . S
N344 C343 1.347 . S
C345 C348 1.365 . S
C345 N350 1.328 . S
C345 H351 0.929 1_554 S
C346 C347 1.362 . S
C346 C349 1.378 . S
C346 H361 0.929 . S
C347 C346 1.362 . S
C347 C348 1.366 . S
C348 C345 1.365 . S
C348 C347 1.366 . S
C348 H362 0.930 1_554 S
C349 C346 1.378 . S
C349 N350 1.315 . S
C349 H352 0.930 . S
N350 Co330 2.194 . S
N350 C345 1.328 . S
N350 C349 1.315 . S
H351 C345 0.929 1_556 S
H352 C349 0.930 . S
H353 C341 0.929 . S
H354 C343 0.929 . S
O355 Co330 2.351 1_556 S
O355 C358 1.244 . S
O356 Co330 2.148 1_556 S
O356 C358 1.248 . S
O357 Co330 2.096 . S
O357 C338 1.247 . S
C358 O355 1.244 . S
C358 O356 1.248 . S
H359 C333 0.931 . S
H360 C342 0.931 . S
H361 C346 0.929 . S
H362 C348 0.930 1_556 S
Co363 N367 2.148 . S
Co363 N373 2.128 . S
Co363 N383 2.194 . S
Co363 O388 2.351 . S
Co363 O389 2.155 . S
Co363 O390 2.096 . S
C364 N367 1.301 . S
C364 N368 1.328 . S
C364 H369 0.930 . S
C365 C366 1.333 . S
C365 N367 1.317 . S
C365 H370 0.930 . S
C366 C365 1.333 . S
C366 N368 1.350 . S
C366 H392 0.931 1_565 S
N367 Co363 2.148 . S
N367 C364 1.301 . S
N367 C365 1.317 . S
N368 C364 1.328 . S
N368 C366 1.350 . S
H369 C364 0.930 . S
H370 C365 0.930 . S
C371 O372 1.224 . S
C371 O390 1.247 1_554 S
O372 C371 1.224 . S
N373 Co363 2.128 . S
N373 C374 1.355 . S
N373 C376 1.311 . S
C374 N373 1.355 . S
C374 C375 1.363 . S
C374 H386 0.929 . S
C375 C374 1.363 . S
C375 N377 1.375 . S
C375 H393 0.931 . S
C376 N373 1.311 . S
C376 N377 1.347 . S
C376 H387 0.929 . S
N377 C375 1.375 . S
N377 C376 1.347 . S
C378 C381 1.365 . S
C378 N383 1.328 . S
C378 H384 0.929 . S
C379 C380 1.362 . S
C379 C382 1.378 . S
C379 H394 0.929 1_556 S
C380 C379 1.362 . S
C380 C381 1.366 . S
C381 C378 1.365 . S
C381 C380 1.366 . S
C381 H395 0.930 . S
C382 C379 1.378 . S
C382 N383 1.315 . S
C382 H385 0.930 1_556 S
N383 Co363 2.194 . S
N383 C378 1.328 . S
N383 C382 1.315 . S
H384 C378 0.929 . S
H385 C382 0.930 1_554 S
H386 C374 0.929 . S
H387 C376 0.929 . S
O388 Co363 2.351 . S
O388 C391 1.244 . S
O389 Co363 2.155 . S
O389 C391 1.240 . S
O390 Co363 2.096 . S
O390 C371 1.247 1_556 S
C391 O388 1.244 . S
C391 O389 1.240 . S
H392 C366 0.931 1_545 S
H393 C375 0.931 . S
H394 C379 0.929 1_554 S
H395 C381 0.930 . S
Co396 N400 2.148 . S
Co396 N406 2.128 . S
Co396 N416 2.194 . S
Co396 O421 2.351 1_556 S
Co396 O422 2.148 1_556 S
Co396 O423 2.096 . S
C397 N400 1.301 . S
C397 N401 1.328 . S
C397 H402 0.930 1_556 S
C398 C399 1.333 . S
C398 N400 1.317 . S
C398 H403 0.930 . S
C399 C398 1.333 . S
C399 N401 1.350 . S
C399 H425 0.931 . S
N400 Co396 2.148 . S
N400 C397 1.301 . S
N400 C398 1.317 . S
N401 C397 1.328 . S
N401 C399 1.350 . S
H402 C397 0.930 1_554 S
H403 C398 0.930 . S
C404 O405 1.224 . S
C404 O423 1.247 . S
O405 C404 1.224 . S
N406 Co396 2.128 . S
N406 C407 1.355 . S
N406 C409 1.311 . S
C407 N406 1.355 . S
C407 C408 1.363 . S
C407 H419 0.929 . S
C408 C407 1.363 . S
C408 N410 1.375 . S
C408 H426 0.931 . S
C409 N406 1.311 . S
C409 N410 1.347 . S
C409 H420 0.929 . S
N410 C408 1.375 . S
N410 C409 1.347 . S
C411 C414 1.365 . S
C411 N416 1.328 . S
C411 H417 0.929 1_556 S
C412 C413 1.362 . S
C412 C415 1.378 . S
C412 H427 0.929 . S
C413 C412 1.362 . S
C413 C414 1.366 . S
C414 C411 1.365 . S
C414 C413 1.366 . S
C414 H428 0.930 1_556 S
C415 C412 1.378 . S
C415 N416 1.315 . S
C415 H418 0.930 . S
N416 Co396 2.194 . S
N416 C411 1.328 . S
N416 C415 1.315 . S
H417 C411 0.929 1_554 S
H418 C415 0.930 . S
H419 C407 0.929 . S
H420 C409 0.929 . S
O421 Co396 2.351 1_554 S
O421 C424 1.244 . S
O422 Co396 2.148 1_554 S
O422 C424 1.248 . S
O423 Co396 2.096 . S
O423 C404 1.247 . S
C424 O421 1.244 . S
C424 O422 1.248 . S
H425 C399 0.931 . S
H426 C408 0.931 . S
H427 C412 0.929 . S
H428 C414 0.930 1_554 S
Co429 N433 2.148 . S
Co429 N439 2.128 . S
Co429 N449 2.194 . S
Co429 O454 2.351 . S
Co429 O455 2.155 . S
Co429 O456 2.096 . S
C430 N433 1.301 . S
C430 N434 1.328 . S
C430 H435 0.930 . S
C431 C432 1.333 . S
C431 N433 1.317 . S
C431 H436 0.930 . S
C432 C431 1.333 . S
C432 N434 1.350 . S
C432 H458 0.931 1_545 S
N433 Co429 2.148 . S
N433 C430 1.301 . S
N433 C431 1.317 . S
N434 C430 1.328 . S
N434 C432 1.350 . S
H435 C430 0.930 . S
H436 C431 0.930 . S
C437 O438 1.224 . S
C437 O456 1.247 . S
O438 C437 1.224 . S
N439 Co429 2.128 . S
N439 C440 1.355 . S
N439 C442 1.311 . S
C440 N439 1.355 . S
C440 C441 1.363 . S
C440 H452 0.929 . S
C441 C440 1.363 . S
C441 N443 1.375 . S
C441 H459 0.931 . S
C442 N439 1.311 . S
C442 N443 1.347 . S
C442 H453 0.929 . S
N443 C441 1.375 . S
N443 C442 1.347 . S
C444 C447 1.365 . S
C444 N449 1.328 . S
C444 H450 0.929 . S
C445 C446 1.362 . S
C445 C448 1.378 . S
C445 H460 0.929 . S
C446 C445 1.362 . S
C446 C447 1.366 . S
C447 C444 1.365 . S
C447 C446 1.366 . S
C447 H461 0.930 . S
C448 C445 1.378 . S
C448 N449 1.315 . S
C448 H451 0.930 . S
N449 Co429 2.194 . S
N449 C444 1.328 . S
N449 C448 1.315 . S
H450 C444 0.929 . S
H451 C448 0.930 . S
H452 C440 0.929 . S
H453 C442 0.929 . S
O454 Co429 2.351 . S
O454 C457 1.244 . S
O455 Co429 2.155 . S
O455 C457 1.240 . S
O456 Co429 2.096 . S
O456 C437 1.247 . S
C457 O454 1.244 . S
C457 O455 1.240 . S
H458 C432 0.931 1_565 S
H459 C441 0.931 . S
H460 C445 0.929 . S
H461 C447 0.930 . S
Co462 N466 2.148 . S
Co462 N472 2.128 . S
Co462 N482 2.194 . S
Co462 O487 2.351 . S
Co462 O488 2.155 . S
Co462 O489 2.096 . S
C463 N466 1.301 . S
C463 N467 1.328 . S
C463 H468 0.930 . S
C464 C465 1.333 . S
C464 N466 1.317 . S
C464 H469 0.930 . S
C465 C464 1.333 . S
C465 N467 1.350 . S
C465 H491 0.931 . S
N466 Co462 2.148 . S
N466 C463 1.301 . S
N466 C464 1.317 . S
N467 C463 1.328 . S
N467 C465 1.350 . S
H468 C463 0.930 . S
H469 C464 0.930 . S
C470 O471 1.224 . S
C470 O489 1.247 . S
O471 C470 1.224 . S
N472 Co462 2.128 . S
N472 C473 1.355 . S
N472 C475 1.311 . S
C473 N472 1.355 . S
C473 C474 1.363 . S
C473 H485 0.929 . S
C474 C473 1.363 . S
C474 N476 1.375 . S
C474 H492 0.931 . S
C475 N472 1.311 . S
C475 N476 1.347 . S
C475 H486 0.929 . S
N476 C474 1.375 . S
N476 C475 1.347 . S
C477 C480 1.365 . S
C477 N482 1.328 . S
C477 H483 0.929 . S
C478 C479 1.362 . S
C478 C481 1.378 . S
C478 H493 0.929 . S
C479 C478 1.362 . S
C479 C480 1.366 . S
C480 C477 1.365 . S
C480 C479 1.366 . S
C480 H494 0.930 . S
C481 C478 1.378 . S
C481 N482 1.315 . S
C481 H484 0.930 . S
N482 Co462 2.194 . S
N482 C477 1.328 . S
N482 C481 1.315 . S
H483 C477 0.929 . S
H484 C481 0.930 . S
H485 C473 0.929 . S
H486 C475 0.929 . S
O487 Co462 2.351 . S
O487 C490 1.244 . S
O488 Co462 2.155 . S
O488 C490 1.240 . S
O489 Co462 2.096 . S
O489 C470 1.247 . S
C490 O487 1.244 . S
C490 O488 1.240 . S
H491 C465 0.931 . S
H492 C474 0.931 . S
H493 C478 0.929 . S
H494 C480 0.930 . S
Co495 N499 2.148 . S
Co495 N505 2.128 . S
Co495 N515 2.194 . S
Co495 O520 2.351 . S
Co495 O521 2.155 . S
Co495 O522 2.096 . S
C496 N499 1.301 . S
C496 N500 1.328 . S
C496 H501 0.930 . S
C497 C498 1.333 . S
C497 N499 1.317 . S
C497 H502 0.930 . S
C498 C497 1.333 . S
C498 N500 1.350 . S
C498 H524 0.931 1_565 S
N499 Co495 2.148 . S
N499 C496 1.301 . S
N499 C497 1.317 . S
N500 C496 1.328 . S
N500 C498 1.350 . S
H501 C496 0.930 . S
H502 C497 0.930 . S
C503 O504 1.224 . S
C503 O522 1.247 1_556 S
O504 C503 1.224 . S
N505 Co495 2.128 . S
N505 C506 1.355 . S
N505 C508 1.311 . S
C506 N505 1.355 . S
C506 C507 1.363 . S
C506 H518 0.929 . S
C507 C506 1.363 . S
C507 N509 1.375 . S
C507 H525 0.931 . S
C508 N505 1.311 . S
C508 N509 1.347 . S
C508 H519 0.929 . S
N509 C507 1.375 . S
N509 C508 1.347 . S
C510 C513 1.365 . S
C510 N515 1.328 . S
C510 H516 0.929 . S
C511 C512 1.383 . S
C511 C514 1.378 . S
C511 H526 0.929 1_554 S
C512 C511 1.383 . S
C512 C513 1.383 . S
C513 C510 1.365 . S
C513 C512 1.383 . S
C513 H527 0.930 . S
C514 C511 1.378 . S
C514 N515 1.315 . S
C514 H517 0.930 1_554 S
N515 Co495 2.194 . S
N515 C510 1.328 . S
N515 C514 1.315 . S
H516 C510 0.929 . S
H517 C514 0.930 1_556 S
H518 C506 0.929 . S
H519 C508 0.929 . S
O520 Co495 2.351 . S
O520 C523 1.244 . S
O521 Co495 2.155 . S
O521 C523 1.240 . S
O522 Co495 2.096 . S
O522 C503 1.247 1_554 S
C523 O520 1.244 . S
C523 O521 1.240 . S
H524 C498 0.931 1_545 S
H525 C507 0.931 . S
H526 C511 0.929 1_556 S
H527 C513 0.930 . S
Co528 N532 2.148 . S
Co528 N538 2.128 . S
Co528 N548 2.194 . S
Co528 O553 2.351 1_556 S
Co528 O554 2.148 1_556 S
Co528 O555 2.096 . S
C529 N532 1.301 . S
C529 N533 1.328 . S
C529 H534 0.930 1_556 S
C530 C531 1.333 . S
C530 N532 1.317 . S
C530 H535 0.930 . S
C531 C530 1.333 . S
C531 N533 1.350 . S
C531 H557 0.931 . S
N532 Co528 2.148 . S
N532 C529 1.301 . S
N532 C530 1.317 . S
N533 C529 1.328 . S
N533 C531 1.350 . S
H534 C529 0.930 1_554 S
H535 C530 0.930 . S
C536 O537 1.224 . S
C536 O555 1.247 . S
O537 C536 1.224 . S
N538 Co528 2.128 . S
N538 C539 1.355 . S
N538 C541 1.311 . S
C539 N538 1.355 . S
C539 C540 1.363 . S
C539 H551 0.929 . S
C540 C539 1.363 . S
C540 N542 1.375 . S
C540 H558 0.931 . S
C541 N538 1.311 . S
C541 N542 1.347 . S
C541 H552 0.929 . S
N542 C540 1.375 . S
N542 C541 1.347 . S
C543 C546 1.365 . S
C543 N548 1.328 . S
C543 H549 0.929 1_556 S
C544 C545 1.362 . S
C544 C547 1.378 . S
C544 H559 0.929 . S
C545 C544 1.362 . S
C545 C546 1.366 . S
C546 C543 1.365 . S
C546 C545 1.366 . S
C546 H560 0.930 1_556 S
C547 C544 1.378 . S
C547 N548 1.315 . S
C547 H550 0.930 . S
N548 Co528 2.194 . S
N548 C543 1.328 . S
N548 C547 1.315 . S
H549 C543 0.929 1_554 S
H550 C547 0.930 . S
H551 C539 0.929 . S
H552 C541 0.929 . S
O553 Co528 2.351 1_554 S
O553 C556 1.244 . S
O554 Co528 2.148 1_554 S
O554 C556 1.248 . S
O555 Co528 2.096 . S
O555 C536 1.247 . S
C556 O553 1.244 . S
C556 O554 1.248 . S
H557 C531 0.931 . S
H558 C540 0.931 . S
H559 C544 0.929 . S
H560 C546 0.930 1_554 S
Co561 N565 2.148 . S
Co561 N571 2.128 . S
Co561 N581 2.194 . S
Co561 O586 2.351 . S
Co561 O587 2.155 . S
Co561 O588 2.096 . S
C562 N565 1.301 . S
C562 N566 1.328 . S
C562 H567 0.930 . S
C563 C564 1.333 . S
C563 N565 1.317 . S
C563 H568 0.930 . S
C564 C563 1.333 . S
C564 N566 1.350 . S
C564 H590 0.931 . S
N565 Co561 2.148 . S
N565 C562 1.301 . S
N565 C563 1.317 . S
N566 C562 1.328 . S
N566 C564 1.350 . S
H567 C562 0.930 . S
H568 C563 0.930 . S
C569 O570 1.224 . S
C569 O588 1.247 1_556 S
O570 C569 1.224 . S
N571 Co561 2.128 . S
N571 C572 1.355 . S
N571 C574 1.311 . S
C572 N571 1.355 . S
C572 C573 1.363 . S
C572 H584 0.929 . S
C573 C572 1.363 . S
C573 N575 1.375 . S
C573 H591 0.931 . S
C574 N571 1.311 . S
C574 N575 1.347 . S
C574 H585 0.929 . S
N575 C573 1.375 . S
N575 C574 1.347 . S
C576 C579 1.365 . S
C576 N581 1.328 . S
C576 H582 0.929 . S
C577 C578 1.362 . S
C577 C580 1.378 . S
C577 H592 0.929 1_554 S
C578 C577 1.362 . S
C578 C579 1.366 . S
C579 C576 1.365 . S
C579 C578 1.366 . S
C579 H593 0.930 . S
C580 C577 1.378 . S
C580 N581 1.315 . S
C580 H583 0.930 1_554 S
N581 Co561 2.194 . S
N581 C576 1.328 . S
N581 C580 1.315 . S
H582 C576 0.929 . S
H583 C580 0.930 1_556 S
H584 C572 0.929 . S
H585 C574 0.929 . S
O586 Co561 2.351 . S
O586 C589 1.244 . S
O587 Co561 2.155 . S
O587 C589 1.240 . S
O588 Co561 2.096 . S
O588 C569 1.247 1_554 S
C589 O586 1.244 . S
C589 O587 1.240 . S
H590 C564 0.931 . S
H591 C573 0.931 . S
H592 C577 0.929 1_556 S
H593 C579 0.930 . S
Co594 N598 2.148 . S
Co594 N604 2.128 . S
Co594 N614 2.194 . S
Co594 O619 2.351 . S
Co594 O620 2.155 . S
Co594 O621 2.096 . S
C595 N598 1.301 . S
C595 N599 1.328 . S
C595 H600 0.930 . S
C596 C597 1.333 . S
C596 N598 1.317 . S
C596 H601 0.930 . S
C597 C596 1.333 . S
C597 N599 1.350 . S
C597 H623 0.931 . S
N598 Co594 2.148 . S
N598 C595 1.301 . S
N598 C596 1.317 . S
N599 C595 1.328 . S
N599 C597 1.350 . S
H600 C595 0.930 . S
H601 C596 0.930 . S
C602 O603 1.224 . S
C602 O621 1.247 . S
O603 C602 1.224 . S
N604 Co594 2.128 . S
N604 C605 1.355 . S
N604 C607 1.311 . S
C605 N604 1.355 . S
C605 C606 1.363 . S
C605 H617 0.929 . S
C606 C605 1.363 . S
C606 N608 1.375 . S
C606 H624 0.931 . S
C607 N604 1.311 . S
C607 N608 1.347 . S
C607 H618 0.929 . S
N608 C606 1.375 . S
N608 C607 1.347 . S
C609 C612 1.365 . S
C609 N614 1.328 . S
C609 H615 0.929 . S
C610 C611 1.362 . S
C610 C613 1.378 . S
C610 H625 0.929 . S
C611 C610 1.362 . S
C611 C612 1.366 . S
C612 C609 1.365 . S
C612 C611 1.366 . S
C612 H626 0.930 . S
C613 C610 1.378 . S
C613 N614 1.315 . S
C613 H616 0.930 . S
N614 Co594 2.194 . S
N614 C609 1.328 . S
N614 C613 1.315 . S
H615 C609 0.929 . S
H616 C613 0.930 . S
H617 C605 0.929 . S
H618 C607 0.929 . S
O619 Co594 2.351 . S
O619 C622 1.244 . S
O620 Co594 2.155 . S
O620 C622 1.240 . S
O621 Co594 2.096 . S
O621 C602 1.247 . S
C622 O619 1.244 . S
C622 O620 1.240 . S
H623 C597 0.931 . S
H624 C606 0.931 . S
H625 C610 0.929 . S
H626 C612 0.930 . S
Co627 N631 2.148 . S
Co627 N637 2.128 . S
Co627 N647 2.194 . S
Co627 O652 2.351 . S
Co627 O653 2.155 . S
Co627 O654 2.096 . S
C628 N631 1.301 . S
C628 N632 1.328 . S
C628 H633 0.930 . S
C629 C630 1.333 . S
C629 N631 1.317 . S
C629 H634 0.930 . S
C630 C629 1.333 . S
C630 N632 1.350 . S
C630 H656 0.931 . S
N631 Co627 2.148 . S
N631 C628 1.301 . S
N631 C629 1.317 . S
N632 C628 1.328 . S
N632 C630 1.350 . S
H633 C628 0.930 . S
H634 C629 0.930 . S
C635 O636 1.224 . S
C635 O654 1.247 . S
O636 C635 1.224 . S
N637 Co627 2.128 . S
N637 C638 1.355 . S
N637 C640 1.311 . S
C638 N637 1.355 . S
C638 C639 1.363 . S
C638 H650 0.929 . S
C639 C638 1.363 . S
C639 N641 1.375 . S
C639 H657 0.931 . S
C640 N637 1.311 . S
C640 N641 1.347 . S
C640 H651 0.929 . S
N641 C639 1.375 . S
N641 C640 1.347 . S
C642 C645 1.365 . S
C642 N647 1.328 . S
C642 H648 0.929 . S
C643 C644 1.383 . S
C643 C646 1.378 . S
C643 H658 0.929 . S
C644 C643 1.383 . S
C644 C645 1.383 . S
C645 C642 1.365 . S
C645 C644 1.383 . S
C645 H659 0.930 . S
C646 C643 1.378 . S
C646 N647 1.315 . S
C646 H649 0.930 . S
N647 Co627 2.194 . S
N647 C642 1.328 . S
N647 C646 1.315 . S
H648 C642 0.929 . S
H649 C646 0.930 . S
H650 C638 0.929 . S
H651 C640 0.929 . S
O652 Co627 2.351 . S
O652 C655 1.244 . S
O653 Co627 2.155 . S
O653 C655 1.240 . S
O654 Co627 2.096 . S
O654 C635 1.247 . S
C655 O652 1.244 . S
C655 O653 1.240 . S
H656 C630 0.931 . S
H657 C639 0.931 . S
H658 C643 0.929 . S
H659 C645 0.930 . S
Co660 N664 2.148 . S
Co660 N670 2.128 . S
Co660 N680 2.194 . S
Co660 O685 2.351 . S
Co660 O686 2.155 . S
Co660 O687 2.096 . S
C661 N664 1.301 . S
C661 N665 1.328 . S
C661 H666 0.930 . S
C662 C663 1.333 . S
C662 N664 1.317 . S
C662 H667 0.930 . S
C663 C662 1.333 . S
C663 N665 1.350 . S
C663 H689 0.931 . S
N664 Co660 2.148 . S
N664 C661 1.301 . S
N664 C662 1.317 . S
N665 C661 1.328 . S
N665 C663 1.350 . S
H666 C661 0.930 . S
H667 C662 0.930 . S
C668 O669 1.224 . S
C668 O687 1.247 . S
O669 C668 1.224 . S
N670 Co660 2.128 . S
N670 C671 1.355 . S
N670 C673 1.311 . S
C671 N670 1.355 . S
C671 C672 1.363 . S
C671 H683 0.929 . S
C672 C671 1.363 . S
C672 N674 1.375 . S
C672 H690 0.931 . S
C673 N670 1.311 . S
C673 N674 1.347 . S
C673 H684 0.929 . S
N674 C672 1.375 . S
N674 C673 1.347 . S
C675 C678 1.365 . S
C675 N680 1.328 . S
C675 H681 0.929 . S
C676 C677 1.362 . S
C676 C679 1.378 . S
C676 H691 0.929 . S
C677 C676 1.362 . S
C677 C678 1.366 . S
C678 C675 1.365 . S
C678 C677 1.366 . S
C678 H692 0.930 . S
C679 C676 1.378 . S
C679 N680 1.315 . S
C679 H682 0.930 . S
N680 Co660 2.194 . S
N680 C675 1.328 . S
N680 C679 1.315 . S
H681 C675 0.929 . S
H682 C679 0.930 . S
H683 C671 0.929 . S
H684 C673 0.929 . S
O685 Co660 2.351 . S
O685 C688 1.244 . S
O686 Co660 2.155 . S
O686 C688 1.240 . S
O687 Co660 2.096 . S
O687 C668 1.247 . S
C688 O685 1.244 . S
C688 O686 1.240 . S
H689 C663 0.931 . S
H690 C672 0.931 . S
H691 C676 0.929 . S
H692 C678 0.930 . S
Co693 N697 2.148 . S
Co693 N703 2.128 . S
Co693 N713 2.194 . S
Co693 O718 2.351 . S
Co693 O719 2.155 . S
Co693 O720 2.096 . S
C694 N697 1.301 . S
C694 N698 1.328 . S
C694 H699 0.930 . S
C695 C696 1.333 . S
C695 N697 1.317 . S
C695 H700 0.930 . S
C696 C695 1.333 . S
C696 N698 1.350 . S
C696 H722 0.931 . S
N697 Co693 2.148 . S
N697 C694 1.301 . S
N697 C695 1.317 . S
N698 C694 1.328 . S
N698 C696 1.350 . S
H699 C694 0.930 . S
H700 C695 0.930 . S
C701 O702 1.224 . S
C701 O720 1.247 1_554 S
O702 C701 1.224 . S
N703 Co693 2.128 . S
N703 C704 1.355 . S
N703 C706 1.311 . S
C704 N703 1.355 . S
C704 C705 1.363 . S
C704 H716 0.929 . S
C705 C704 1.363 . S
C705 N707 1.375 . S
C705 H723 0.931 . S
C706 N703 1.311 . S
C706 N707 1.347 . S
C706 H717 0.929 . S
N707 C705 1.375 . S
N707 C706 1.347 . S
C708 C711 1.365 . S
C708 N713 1.328 . S
C708 H714 0.929 . S
C709 C710 1.383 . S
C709 C712 1.378 . S
C709 H724 0.929 1_556 S
C710 C709 1.383 . S
C710 C711 1.383 . S
C711 C708 1.365 . S
C711 C710 1.383 . S
C711 H725 0.930 . S
C712 C709 1.378 . S
C712 N713 1.315 . S
C712 H715 0.930 1_556 S
N713 Co693 2.194 . S
N713 C708 1.328 . S
N713 C712 1.315 . S
H714 C708 0.929 . S
H715 C712 0.930 1_554 S
H716 C704 0.929 . S
H717 C706 0.929 . S
O718 Co693 2.351 . S
O718 C721 1.244 . S
O719 Co693 2.155 . S
O719 C721 1.240 . S
O720 Co693 2.096 . S
O720 C701 1.247 1_556 S
C721 O718 1.244 . S
C721 O719 1.240 . S
H722 C696 0.931 . S
H723 C705 0.931 . S
H724 C709 0.929 1_554 S
H725 C711 0.930 . S
Co726 N730 2.148 . S
Co726 N736 2.128 . S
Co726 N746 2.194 . S
Co726 O751 2.351 1_554 S
Co726 O752 2.148 1_554 S
Co726 O753 2.096 . S
C727 N730 1.301 . S
C727 N731 1.328 . S
C727 H732 0.930 1_554 S
C728 C729 1.333 . S
C728 N730 1.317 . S
C728 H733 0.930 . S
C729 C728 1.333 . S
C729 N731 1.350 . S
C729 H755 0.931 . S
N730 Co726 2.148 . S
N730 C727 1.301 . S
N730 C728 1.317 . S
N731 C727 1.328 . S
N731 C729 1.350 . S
H732 C727 0.930 1_556 S
H733 C728 0.930 . S
C734 O735 1.224 . S
C734 O753 1.247 . S
O735 C734 1.224 . S
N736 Co726 2.128 . S
N736 C737 1.355 . S
N736 C739 1.311 . S
C737 N736 1.355 . S
C737 C738 1.363 . S
C737 H749 0.929 . S
C738 C737 1.363 . S
C738 N740 1.375 . S
C738 H756 0.931 . S
C739 N736 1.311 . S
C739 N740 1.347 . S
C739 H750 0.929 . S
N740 C738 1.375 . S
N740 C739 1.347 . S
C741 C744 1.365 . S
C741 N746 1.328 . S
C741 H747 0.929 1_554 S
C742 C743 1.362 . S
C742 C745 1.378 . S
C742 H757 0.929 . S
C743 C742 1.362 . S
C743 C744 1.366 . S
C744 C741 1.365 . S
C744 C743 1.366 . S
C744 H758 0.930 1_554 S
C745 C742 1.378 . S
C745 N746 1.315 . S
C745 H748 0.930 . S
N746 Co726 2.194 . S
N746 C741 1.328 . S
N746 C745 1.315 . S
H747 C741 0.929 1_556 S
H748 C745 0.930 . S
H749 C737 0.929 . S
H750 C739 0.929 . S
O751 Co726 2.351 1_556 S
O751 C754 1.244 . S
O752 Co726 2.148 1_556 S
O752 C754 1.248 . S
O753 Co726 2.096 . S
O753 C734 1.247 . S
C754 O751 1.244 . S
C754 O752 1.248 . S
H755 C729 0.931 . S
H756 C738 0.931 . S
H757 C742 0.929 . S
H758 C744 0.930 1_556 S
Co759 N763 2.148 . S
Co759 N769 2.128 . S
Co759 N779 2.194 . S
Co759 O784 2.351 . S
Co759 O785 2.155 . S
Co759 O786 2.096 . S
C760 N763 1.301 . S
C760 N764 1.328 . S
C760 H765 0.930 . S
C761 C762 1.333 . S
C761 N763 1.317 . S
C761 H766 0.930 . S
C762 C761 1.333 . S
C762 N764 1.350 . S
C762 H788 0.931 . S
N763 Co759 2.148 . S
N763 C760 1.301 . S
N763 C761 1.317 . S
N764 C760 1.328 . S
N764 C762 1.350 . S
H765 C760 0.930 . S
H766 C761 0.930 . S
C767 O768 1.224 . S
C767 O786 1.247 . S
O768 C767 1.224 . S
N769 Co759 2.128 . S
N769 C770 1.355 . S
N769 C772 1.311 . S
C770 N769 1.355 . S
C770 C771 1.363 . S
C770 H782 0.929 . S
C771 C770 1.363 . S
C771 N773 1.375 . S
C771 H789 0.931 . S
C772 N769 1.311 . S
C772 N773 1.347 . S
C772 H783 0.929 . S
N773 C771 1.375 . S
N773 C772 1.347 . S
C774 C777 1.365 . S
C774 N779 1.328 . S
C774 H780 0.929 . S
C775 C776 1.362 . S
C775 C778 1.378 . S
C775 H790 0.929 . S
C776 C775 1.362 . S
C776 C777 1.366 . S
C777 C774 1.365 . S
C777 C776 1.366 . S
C777 H791 0.930 . S
C778 C775 1.378 . S
C778 N779 1.315 . S
C778 H781 0.930 . S
N779 Co759 2.194 . S
N779 C774 1.328 . S
N779 C778 1.315 . S
H780 C774 0.929 . S
H781 C778 0.930 . S
H782 C770 0.929 . S
H783 C772 0.929 . S
O784 Co759 2.351 . S
O784 C787 1.244 . S
O785 Co759 2.155 . S
O785 C787 1.240 . S
O786 Co759 2.096 . S
O786 C767 1.247 . S
C787 O784 1.244 . S
C787 O785 1.240 . S
H788 C762 0.931 . S
H789 C771 0.931 . S
H790 C775 0.929 . S
H791 C777 0.930 . S
Co792 N796 2.148 . S
Co792 N802 2.128 . S
Co792 N812 2.194 . S
Co792 O817 2.351 1_554 S
Co792 O818 2.148 1_554 S
Co792 O819 2.096 . S
C793 N796 1.301 . S
C793 N797 1.328 . S
C793 H798 0.930 1_554 S
C794 C795 1.333 . S
C794 N796 1.317 . S
C794 H799 0.930 . S
C795 C794 1.333 . S
C795 N797 1.350 . S
C795 H821 0.931 . S
N796 Co792 2.148 . S
N796 C793 1.301 . S
N796 C794 1.317 . S
N797 C793 1.328 . S
N797 C795 1.350 . S
H798 C793 0.930 1_556 S
H799 C794 0.930 . S
C800 O801 1.224 . S
C800 O819 1.247 . S
O801 C800 1.224 . S
N802 Co792 2.128 . S
N802 C803 1.355 . S
N802 C805 1.311 . S
C803 N802 1.355 . S
C803 C804 1.363 . S
C803 H815 0.929 . S
C804 C803 1.363 . S
C804 N806 1.375 . S
C804 H822 0.931 . S
C805 N802 1.311 . S
C805 N806 1.347 . S
C805 H816 0.929 . S
N806 C804 1.375 . S
N806 C805 1.347 . S
C807 C810 1.365 . S
C807 N812 1.328 . S
C807 H813 0.929 1_554 S
C808 C809 1.362 . S
C808 C811 1.378 . S
C808 H823 0.929 . S
C809 C808 1.362 . S
C809 C810 1.366 . S
C810 C807 1.365 . S
C810 C809 1.366 . S
C810 H824 0.930 1_554 S
C811 C808 1.378 . S
C811 N812 1.315 . S
C811 H814 0.930 . S
N812 Co792 2.194 . S
N812 C807 1.328 . S
N812 C811 1.315 . S
H813 C807 0.929 1_556 S
H814 C811 0.930 . S
H815 C803 0.929 . S
H816 C805 0.929 . S
O817 Co792 2.351 1_556 S
O817 C820 1.244 . S
O818 Co792 2.148 1_556 S
O818 C820 1.248 . S
O819 Co792 2.096 . S
O819 C800 1.247 . S
C820 O817 1.244 . S
C820 O818 1.248 . S
H821 C795 0.931 . S
H822 C804 0.931 . S
H823 C808 0.929 . S
H824 C810 0.930 1_556 S
Co825 N829 2.148 . S
Co825 N835 2.128 . S
Co825 N845 2.194 . S
Co825 O850 2.351 . S
Co825 O851 2.155 . S
Co825 O852 2.096 . S
C826 N829 1.301 . S
C826 N830 1.328 . S
C826 H831 0.930 . S
C827 C828 1.333 . S
C827 N829 1.317 . S
C827 H832 0.930 . S
C828 C827 1.333 . S
C828 N830 1.350 . S
C828 H854 0.931 . S
N829 Co825 2.148 . S
N829 C826 1.301 . S
N829 C827 1.317 . S
N830 C826 1.328 . S
N830 C828 1.350 . S
H831 C826 0.930 . S
H832 C827 0.930 . S
C833 O834 1.224 . S
C833 O852 1.247 1_554 S
O834 C833 1.224 . S
N835 Co825 2.128 . S
N835 C836 1.355 . S
N835 C838 1.311 . S
C836 N835 1.355 . S
C836 C837 1.363 . S
C836 H848 0.929 . S
C837 C836 1.363 . S
C837 N839 1.375 . S
C837 H855 0.931 . S
C838 N835 1.311 . S
C838 N839 1.347 . S
C838 H849 0.929 . S
N839 C837 1.375 . S
N839 C838 1.347 . S
C840 C843 1.365 . S
C840 N845 1.328 . S
C840 H846 0.929 . S
C841 C842 1.362 . S
C841 C844 1.378 . S
C841 H856 0.929 1_556 S
C842 C841 1.362 . S
C842 C843 1.366 . S
C843 C840 1.365 . S
C843 C842 1.366 . S
C843 H857 0.930 . S
C844 C841 1.378 . S
C844 N845 1.315 . S
C844 H847 0.930 1_556 S
N845 Co825 2.194 . S
N845 C840 1.328 . S
N845 C844 1.315 . S
H846 C840 0.929 . S
H847 C844 0.930 1_554 S
H848 C836 0.929 . S
H849 C838 0.929 . S
O850 Co825 2.351 . S
O850 C853 1.244 . S
O851 Co825 2.155 . S
O851 C853 1.240 . S
O852 Co825 2.096 . S
O852 C833 1.247 1_556 S
C853 O850 1.244 . S
C853 O851 1.240 . S
H854 C828 0.931 . S
H855 C837 0.931 . S
H856 C841 0.929 1_554 S
H857 C843 0.930 . S
Co858 N862 2.148 . S
Co858 N868 2.128 . S
Co858 N878 2.194 . S
Co858 O883 2.351 . S
Co858 O884 2.155 . S
Co858 O885 2.096 . S
C859 N862 1.301 . S
C859 N863 1.328 . S
C859 H864 0.930 . S
C860 C861 1.333 . S
C860 N862 1.317 . S
C860 H865 0.930 . S
C861 C860 1.333 . S
C861 N863 1.350 . S
C861 H887 0.931 . S
N862 Co858 2.148 . S
N862 C859 1.301 . S
N862 C860 1.317 . S
N863 C859 1.328 . S
N863 C861 1.350 . S
H864 C859 0.930 . S
H865 C860 0.930 . S
C866 O867 1.224 . S
C866 O885 1.247 . S
O867 C866 1.224 . S
N868 Co858 2.128 . S
N868 C869 1.355 . S
N868 C871 1.311 . S
C869 N868 1.355 . S
C869 C870 1.363 . S
C869 H881 0.929 . S
C870 C869 1.363 . S
C870 N872 1.375 . S
C870 H888 0.931 . S
C871 N868 1.311 . S
C871 N872 1.347 . S
C871 H882 0.929 . S
N872 C870 1.375 . S
N872 C871 1.347 . S
C873 C876 1.365 . S
C873 N878 1.328 . S
C873 H879 0.929 . S
C874 C875 1.362 . S
C874 C877 1.378 . S
C874 H889 0.929 . S
C875 C874 1.362 . S
C875 C876 1.366 . S
C876 C873 1.365 . S
C876 C875 1.366 . S
C876 H890 0.930 . S
C877 C874 1.378 . S
C877 N878 1.315 . S
C877 H880 0.930 . S
N878 Co858 2.194 . S
N878 C873 1.328 . S
N878 C877 1.315 . S
H879 C873 0.929 . S
H880 C877 0.930 . S
H881 C869 0.929 . S
H882 C871 0.929 . S
O883 Co858 2.351 . S
O883 C886 1.244 . S
O884 Co858 2.155 . S
O884 C886 1.240 . S
O885 Co858 2.096 . S
O885 C866 1.247 . S
C886 O883 1.244 . S
C886 O884 1.240 . S
H887 C861 0.931 . S
H888 C870 0.931 . S
H889 C874 0.929 . S
H890 C876 0.930 . S
Co891 N895 2.148 . S
Co891 N901 2.128 . S
Co891 N911 2.194 . S
Co891 O916 2.351 . S
Co891 O917 2.155 . S
Co891 O918 2.096 . S
C892 N895 1.301 . S
C892 N896 1.328 . S
C892 H897 0.930 . S
C893 C894 1.333 . S
C893 N895 1.317 . S
C893 H898 0.930 . S
C894 C893 1.333 . S
C894 N896 1.350 . S
C894 H920 0.931 . S
N895 Co891 2.148 . S
N895 C892 1.301 . S
N895 C893 1.317 . S
N896 C892 1.328 . S
N896 C894 1.350 . S
H897 C892 0.930 . S
H898 C893 0.930 . S
C899 O900 1.224 . S
C899 O918 1.247 . S
O900 C899 1.224 . S
N901 Co891 2.128 . S
N901 C902 1.355 . S
N901 C904 1.311 . S
C902 N901 1.355 . S
C902 C903 1.363 . S
C902 H914 0.929 . S
C903 C902 1.363 . S
C903 N905 1.375 . S
C903 H921 0.931 . S
C904 N901 1.311 . S
C904 N905 1.347 . S
C904 H915 0.929 . S
N905 C903 1.375 . S
N905 C904 1.347 . S
C906 C909 1.365 . S
C906 N911 1.328 . S
C906 H912 0.929 . S
C907 C908 1.383 . S
C907 C910 1.378 . S
C907 H922 0.929 . S
C908 C907 1.383 . S
C908 C909 1.383 . S
C909 C906 1.365 . S
C909 C908 1.383 . S
C909 H923 0.930 . S
C910 C907 1.378 . S
C910 N911 1.315 . S
C910 H913 0.930 . S
N911 Co891 2.194 . S
N911 C906 1.328 . S
N911 C910 1.315 . S
H912 C906 0.929 . S
H913 C910 0.930 . S
H914 C902 0.929 . S
H915 C904 0.929 . S
O916 Co891 2.351 . S
O916 C919 1.244 . S
O917 Co891 2.155 . S
O917 C919 1.240 . S
O918 Co891 2.096 . S
O918 C899 1.247 . S
C919 O916 1.244 . S
C919 O917 1.240 . S
H920 C894 0.931 . S
H921 C903 0.931 . S
H922 C907 0.929 . S
H923 C909 0.930 . S
Co924 N928 2.148 . S
Co924 N934 2.128 . S
Co924 N944 2.194 . S
Co924 O949 2.351 . S
Co924 O950 2.155 . S
Co924 O951 2.096 . S
C925 N928 1.301 . S
C925 N929 1.328 . S
C925 H930 0.930 . S
C926 C927 1.333 . S
C926 N928 1.317 . S
C926 H931 0.930 . S
C927 C926 1.333 . S
C927 N929 1.350 . S
C927 H953 0.931 . S
N928 Co924 2.148 . S
N928 C925 1.301 . S
N928 C926 1.317 . S
N929 C925 1.328 . S
N929 C927 1.350 . S
H930 C925 0.930 . S
H931 C926 0.930 . S
C932 O933 1.224 . S
C932 O951 1.247 . S
O933 C932 1.224 . S
N934 Co924 2.128 . S
N934 C935 1.355 . S
N934 C937 1.311 . S
C935 N934 1.355 . S
C935 C936 1.363 . S
C935 H947 0.929 . S
C936 C935 1.363 . S
C936 N938 1.375 . S
C936 H954 0.931 . S
C937 N934 1.311 . S
C937 N938 1.347 . S
C937 H948 0.929 . S
N938 C936 1.375 . S
N938 C937 1.347 . S
C939 C942 1.365 . S
C939 N944 1.328 . S
C939 H945 0.929 . S
C940 C941 1.362 . S
C940 C943 1.378 . S
C940 H955 0.929 . S
C941 C940 1.362 . S
C941 C942 1.366 . S
C942 C939 1.365 . S
C942 C941 1.366 . S
C942 H956 0.930 . S
C943 C940 1.378 . S
C943 N944 1.315 . S
C943 H946 0.930 . S
N944 Co924 2.194 . S
N944 C939 1.328 . S
N944 C943 1.315 . S
H945 C939 0.929 . S
H946 C943 0.930 . S
H947 C935 0.929 . S
H948 C937 0.929 . S
O949 Co924 2.351 . S
O949 C952 1.244 . S
O950 Co924 2.155 . S
O950 C952 1.240 . S
O951 Co924 2.096 . S
O951 C932 1.247 . S
C952 O949 1.244 . S
C952 O950 1.240 . S
H953 C927 0.931 . S
H954 C936 0.931 . S
H955 C940 0.929 . S
H956 C942 0.930 . S
Co957 N961 2.148 . S
Co957 N967 2.128 . S
Co957 N977 2.194 . S
Co957 O982 2.351 . S
Co957 O983 2.155 . S
Co957 O984 2.096 . S
C958 N961 1.301 . S
C958 N962 1.328 . S
C958 H963 0.930 . S
C959 C960 1.333 . S
C959 N961 1.317 . S
C959 H964 0.930 . S
C960 C959 1.333 . S
C960 N962 1.350 . S
C960 H986 0.931 . S
N961 Co957 2.148 . S
N961 C958 1.301 . S
N961 C959 1.317 . S
N962 C958 1.328 . S
N962 C960 1.350 . S
H963 C958 0.930 . S
H964 C959 0.930 . S
C965 O966 1.224 . S
C965 O984 1.247 1_556 S
O966 C965 1.224 . S
N967 Co957 2.128 . S
N967 C968 1.355 . S
N967 C970 1.311 . S
C968 N967 1.355 . S
C968 C969 1.363 . S
C968 H980 0.929 . S
C969 C968 1.363 . S
C969 N971 1.375 . S
C969 H987 0.931 . S
C970 N967 1.311 . S
C970 N971 1.347 . S
C970 H981 0.929 . S
N971 C969 1.375 . S
N971 C970 1.347 . S
C972 C975 1.365 . S
C972 N977 1.328 . S
C972 H978 0.929 . S
C973 C974 1.383 . S
C973 C976 1.378 . S
C973 H988 0.929 1_554 S
C974 C973 1.383 . S
C974 C975 1.383 . S
C975 C972 1.365 . S
C975 C974 1.383 . S
C975 H989 0.930 . S
C976 C973 1.378 . S
C976 N977 1.315 . S
C976 H979 0.930 1_554 S
N977 Co957 2.194 . S
N977 C972 1.328 . S
N977 C976 1.315 . S
H978 C972 0.929 . S
H979 C976 0.930 1_556 S
H980 C968 0.929 . S
H981 C970 0.929 . S
O982 Co957 2.351 . S
O982 C985 1.244 . S
O983 Co957 2.155 . S
O983 C985 1.240 . S
O984 Co957 2.096 . S
O984 C965 1.247 1_554 S
C985 O982 1.244 . S
C985 O983 1.240 . S
H986 C960 0.931 . S
H987 C969 0.931 . S
H988 C973 0.929 1_556 S
H989 C975 0.930 . S
Co990 N994 2.148 . S
Co990 N1000 2.128 . S
Co990 N1010 2.194 . S
Co990 O1015 2.351 1_556 S
Co990 O1016 2.148 1_556 S
Co990 O1017 2.096 . S
C991 N994 1.301 . S
C991 N995 1.328 . S
C991 H996 0.930 1_556 S
C992 C993 1.333 . S
C992 N994 1.317 . S
C992 H997 0.930 . S
C993 C992 1.333 . S
C993 N995 1.350 . S
C993 H1019 0.931 . S
N994 Co990 2.148 . S
N994 C991 1.301 . S
N994 C992 1.317 . S
N995 C991 1.328 . S
N995 C993 1.350 . S
H996 C991 0.930 1_554 S
H997 C992 0.930 . S
C998 O999 1.224 . S
C998 O1017 1.247 . S
O999 C998 1.224 . S
N1000 Co990 2.128 . S
N1000 C1001 1.355 . S
N1000 C1003 1.311 . S
C1001 N1000 1.355 . S
C1001 C1002 1.363 . S
C1001 H1013 0.929 . S
C1002 C1001 1.363 . S
C1002 N1004 1.375 . S
C1002 H1020 0.931 . S
C1003 N1000 1.311 . S
C1003 N1004 1.347 . S
C1003 H1014 0.929 . S
N1004 C1002 1.375 . S
N1004 C1003 1.347 . S
C1005 C1008 1.365 . S
C1005 N1010 1.328 . S
C1005 H1011 0.929 1_556 S
C1006 C1007 1.362 . S
C1006 C1009 1.378 . S
C1006 H1021 0.929 . S
C1007 C1006 1.362 . S
C1007 C1008 1.366 . S
C1008 C1005 1.365 . S
C1008 C1007 1.366 . S
C1008 H1022 0.930 1_556 S
C1009 C1006 1.378 . S
C1009 N1010 1.315 . S
C1009 H1012 0.930 . S
N1010 Co990 2.194 . S
N1010 C1005 1.328 . S
N1010 C1009 1.315 . S
H1011 C1005 0.929 1_554 S
H1012 C1009 0.930 . S
H1013 C1001 0.929 . S
H1014 C1003 0.929 . S
O1015 Co990 2.351 1_554 S
O1015 C1018 1.244 . S
O1016 Co990 2.148 1_554 S
O1016 C1018 1.248 . S
O1017 Co990 2.096 . S
O1017 C998 1.247 . S
C1018 O1015 1.244 . S
C1018 O1016 1.248 . S
H1019 C993 0.931 . S
H1020 C1002 0.931 . S
H1021 C1006 0.929 . S
H1022 C1008 0.930 1_554 S
Co1023 N1027 2.148 . S
Co1023 N1033 2.128 . S
Co1023 N1043 2.194 . S
Co1023 O1048 2.351 . S
Co1023 O1049 2.155 . S
Co1023 O1050 2.096 . S
C1024 N1027 1.301 . S
C1024 N1028 1.328 . S
C1024 H1029 0.930 . S
C1025 C1026 1.333 . S
C1025 N1027 1.317 . S
C1025 H1030 0.930 . S
C1026 C1025 1.333 . S
C1026 N1028 1.350 . S
C1026 H1052 0.931 . S
N1027 Co1023 2.148 . S
N1027 C1024 1.301 . S
N1027 C1025 1.317 . S
N1028 C1024 1.328 . S
N1028 C1026 1.350 . S
H1029 C1024 0.930 . S
H1030 C1025 0.930 . S
C1031 O1032 1.224 . S
C1031 O1050 1.247 . S
O1032 C1031 1.224 . S
N1033 Co1023 2.128 . S
N1033 C1034 1.355 . S
N1033 C1036 1.311 . S
C1034 N1033 1.355 . S
C1034 C1035 1.363 . S
C1034 H1046 0.929 . S
C1035 C1034 1.363 . S
C1035 N1037 1.375 . S
C1035 H1053 0.931 . S
C1036 N1033 1.311 . S
C1036 N1037 1.347 . S
C1036 H1047 0.929 . S
N1037 C1035 1.375 . S
N1037 C1036 1.347 . S
C1038 C1041 1.365 . S
C1038 N1043 1.328 . S
C1038 H1044 0.929 . S
C1039 C1040 1.362 . S
C1039 C1042 1.378 . S
C1039 H1054 0.929 . S
C1040 C1039 1.362 . S
C1040 C1041 1.366 . S
C1041 C1038 1.365 . S
C1041 C1040 1.366 . S
C1041 H1055 0.930 . S
C1042 C1039 1.378 . S
C1042 N1043 1.315 . S
C1042 H1045 0.930 . S
N1043 Co1023 2.194 . S
N1043 C1038 1.328 . S
N1043 C1042 1.315 . S
H1044 C1038 0.929 . S
H1045 C1042 0.930 . S
H1046 C1034 0.929 . S
H1047 C1036 0.929 . S
O1048 Co1023 2.351 . S
O1048 C1051 1.244 . S
O1049 Co1023 2.155 . S
O1049 C1051 1.240 . S
O1050 Co1023 2.096 . S
O1050 C1031 1.247 . S
C1051 O1048 1.244 . S
C1051 O1049 1.240 . S
H1052 C1026 0.931 . S
H1053 C1035 0.931 . S
H1054 C1039 0.929 . S
H1055 C1041 0.930 . S
C239 C8 1.817 . S
C41 C140 1.817 . S
C74 C173 1.817 . S
C206 C107 1.817 . S
C272 C503 1.817 . S
C404 C305 1.817 . S
C338 C437 1.817 . S
C470 C371 1.817 . S
C767 C536 1.817 . S
C668 C569 1.817 . S
C701 C602 1.817 . S
C734 C635 1.817 . S
C1031 C800 1.817 . S
C833 C932 1.817 . S
C965 C866 1.817 . S
C998 C899 1.817 . S
C28 C259 1.260 . S
C61 C160 1.260 . S
C94 C193 1.260 . S
C127 C226 1.260 . S
C523 C292 1.260 . S
C325 C424 1.260 . S
C457 C358 1.260 . S
C391 C490 1.260 . S
C556 C787 1.259 . S
C688 C589 1.259 . S
C721 C622 1.259 . S
C655 C754 1.259 . S
C820 C1051 1.259 . S
C853 C952 1.259 . S
C886 C985 1.259 . S
C919 C1018 1.259 . S
N203 N5 2.080 . S
N38 N236 2.080 1_565 S
N137 N71 2.080 1_554 S
N170 N104 2.080 1_565 S
N467 N269 2.080 . S
N500 N302 2.080 1_565 S
N401 N335 2.080 1_556 S
N434 N368 2.080 1_545 S
N533 N731 2.080 1_556 S
N764 N566 2.081 . S
N665 N599 2.080 . S
N698 N632 2.080 . S
N995 N797 2.080 1_556 S
N830 N1028 2.081 . S
N929 N863 2.080 . S
N962 N896 2.080 . S
C17 N905 1.712 . S
N278 C50 1.682 1_655 S
N839 C83 1.712 . S
C116 N344 1.712 . S
C149 N971 1.712 . S
C182 N476 1.712 . S
C215 N1037 1.712 . S
N410 C248 1.682 1_655 S
N641 C281 1.712 . S
C314 N14 1.682 1_655 S
C347 N575 1.712 . S
N80 C380 1.712 . S
N707 C413 1.712 . S
C446 N212 1.712 . S
C479 N773 1.712 . S
N146 C512 1.682 1_455 S
N377 C545 1.712 . S
N806 C578 1.712 . S
C611 N311 1.712 . S
C644 N872 1.682 1_655 S
N443 C677 1.712 . S
C710 N1004 1.682 1_655 S
N509 C743 1.712 . S
N938 C776 1.712 . S
N113 C809 1.712 . S
C842 N542 1.712 . S
N47 C875 1.712 . S
N608 C908 1.682 1_655 S
N179 C941 1.712 . S
C974 N740 1.682 1_455 S
C1007 N245 1.712 . S
C1040 N674 1.712 . S
