# Generated by pormake.
# Topology unv, (4)-cn, num edge types: 1
# Building blocks:
#     Node 0, Type 0, BuildingBlock: NAHDIM_clean_sbu_0, # of connection points: 4
#     Node 1, Type 0, BuildingBlock: NAHDIM_clean_sbu_0, # of connection points: 4
#     Node 2, Type 0, BuildingBlock: NAHDIM_clean_sbu_0, # of connection points: 4
#     Node 3, Type 0, BuildingBlock: NAHDIM_clean_sbu_0, # of connection points: 4
#     Node 4, Type 0, BuildingBlock: NAHDIM_clean_sbu_0, # of connection points: 4
#     Node 5, Type 0, BuildingBlock: NAHDIM_clean_sbu_0, # of connection points: 4
#     Node 6, Type 0, BuildingBlock: NAHDIM_clean_sbu_0, # of connection points: 4
#     Node 7, Type 0, BuildingBlock: NAHDIM_clean_sbu_0, # of connection points: 4
#     Node 8, Type 0, BuildingBlock: NAHDIM_clean_sbu_0, # of connection points: 4
#     Node 9, Type 0, BuildingBlock: NAHDIM_clean_sbu_0, # of connection points: 4
#     Node 10, Type 0, BuildingBlock: NAHDIM_clean_sbu_0, # of connection points: 4
#     Node 11, Type 0, BuildingBlock: NAHDIM_clean_sbu_0, # of connection points: 4
#     Node 12, Type 0, BuildingBlock: NAHDIM_clean_sbu_0, # of connection points: 4
#     Node 13, Type 0, BuildingBlock: NAHDIM_clean_sbu_0, # of connection points: 4
#     Node 14, Type 0, BuildingBlock: NAHDIM_clean_sbu_0, # of connection points: 4
#     Node 15, Type 0, BuildingBlock: NAHDIM_clean_sbu_0, # of connection points: 4
#     Node 16, Type 0, BuildingBlock: NAHDIM_clean_sbu_0, # of connection points: 4
#     Node 17, Type 0, BuildingBlock: NAHDIM_clean_sbu_0, # of connection points: 4
#     Node 18, Type 0, BuildingBlock: NAHDIM_clean_sbu_0, # of connection points: 4
#     Node 19, Type 0, BuildingBlock: NAHDIM_clean_sbu_0, # of connection points: 4
#     Node 20, Type 0, BuildingBlock: NAHDIM_clean_sbu_0, # of connection points: 4
#     Node 21, Type 0, BuildingBlock: NAHDIM_clean_sbu_0, # of connection points: 4
#     Node 22, Type 0, BuildingBlock: NAHDIM_clean_sbu_0, # of connection points: 4
#     Node 23, Type 0, BuildingBlock: NAHDIM_clean_sbu_0, # of connection points: 4
#     Edge 24, Type (0, 0), BuildingBlock: UVAHIK_clean_linker_0, # of connection points: 2
#     Edge 25, Type (0, 0), BuildingBlock: UVAHIK_clean_linker_0, # of connection points: 2
#     Edge 26, Type (0, 0), BuildingBlock: UVAHIK_clean_linker_0, # of connection points: 2
#     Edge 27, Type (0, 0), BuildingBlock: UVAHIK_clean_linker_0, # of connection points: 2
#     Edge 28, Type (0, 0), BuildingBlock: UVAHIK_clean_linker_0, # of connection points: 2
#     Edge 29, Type (0, 0), BuildingBlock: UVAHIK_clean_linker_0, # of connection points: 2
#     Edge 30, Type (0, 0), BuildingBlock: UVAHIK_clean_linker_0, # of connection points: 2
#     Edge 31, Type (0, 0), BuildingBlock: UVAHIK_clean_linker_0, # of connection points: 2
#     Edge 32, Type (0, 0), BuildingBlock: UVAHIK_clean_linker_0, # of connection points: 2
#     Edge 33, Type (0, 0), BuildingBlock: UVAHIK_clean_linker_0, # of connection points: 2
#     Edge 34, Type (0, 0), BuildingBlock: UVAHIK_clean_linker_0, # of connection points: 2
#     Edge 35, Type (0, 0), BuildingBlock: UVAHIK_clean_linker_0, # of connection points: 2
#     Edge 36, Type (0, 0), BuildingBlock: UVAHIK_clean_linker_0, # of connection points: 2
#     Edge 37, Type (0, 0), BuildingBlock: UVAHIK_clean_linker_0, # of connection points: 2
#     Edge 38, Type (0, 0), BuildingBlock: UVAHIK_clean_linker_0, # of connection points: 2
#     Edge 39, Type (0, 0), BuildingBlock: UVAHIK_clean_linker_0, # of connection points: 2
#     Edge 40, Type (0, 0), BuildingBlock: UVAHIK_clean_linker_0, # of connection points: 2
#     Edge 41, Type (0, 0), BuildingBlock: UVAHIK_clean_linker_0, # of connection points: 2
#     Edge 42, Type (0, 0), BuildingBlock: UVAHIK_clean_linker_0, # of connection points: 2
#     Edge 43, Type (0, 0), BuildingBlock: UVAHIK_clean_linker_0, # of connection points: 2
#     Edge 44, Type (0, 0), BuildingBlock: UVAHIK_clean_linker_0, # of connection points: 2
#     Edge 45, Type (0, 0), BuildingBlock: UVAHIK_clean_linker_0, # of connection points: 2
#     Edge 46, Type (0, 0), BuildingBlock: UVAHIK_clean_linker_0, # of connection points: 2
#     Edge 47, Type (0, 0), BuildingBlock: UVAHIK_clean_linker_0, # of connection points: 2
#     Edge 48, Type (0, 0), BuildingBlock: UVAHIK_clean_linker_0, # of connection points: 2
#     Edge 49, Type (0, 0), BuildingBlock: UVAHIK_clean_linker_0, # of connection points: 2
#     Edge 50, Type (0, 0), BuildingBlock: UVAHIK_clean_linker_0, # of connection points: 2
#     Edge 51, Type (0, 0), BuildingBlock: UVAHIK_clean_linker_0, # of connection points: 2
#     Edge 52, Type (0, 0), BuildingBlock: UVAHIK_clean_linker_0, # of connection points: 2
#     Edge 53, Type (0, 0), BuildingBlock: UVAHIK_clean_linker_0, # of connection points: 2
#     Edge 54, Type (0, 0), BuildingBlock: UVAHIK_clean_linker_0, # of connection points: 2
#     Edge 55, Type (0, 0), BuildingBlock: UVAHIK_clean_linker_0, # of connection points: 2
#     Edge 56, Type (0, 0), BuildingBlock: UVAHIK_clean_linker_0, # of connection points: 2
#     Edge 57, Type (0, 0), BuildingBlock: UVAHIK_clean_linker_0, # of connection points: 2
#     Edge 58, Type (0, 0), BuildingBlock: UVAHIK_clean_linker_0, # of connection points: 2
#     Edge 59, Type (0, 0), BuildingBlock: UVAHIK_clean_linker_0, # of connection points: 2
#     Edge 60, Type (0, 0), BuildingBlock: UVAHIK_clean_linker_0, # of connection points: 2
#     Edge 61, Type (0, 0), BuildingBlock: UVAHIK_clean_linker_0, # of connection points: 2
#     Edge 62, Type (0, 0), BuildingBlock: UVAHIK_clean_linker_0, # of connection points: 2
#     Edge 63, Type (0, 0), BuildingBlock: UVAHIK_clean_linker_0, # of connection points: 2
#     Edge 64, Type (0, 0), BuildingBlock: UVAHIK_clean_linker_0, # of connection points: 2
#     Edge 65, Type (0, 0), BuildingBlock: UVAHIK_clean_linker_0, # of connection points: 2
#     Edge 66, Type (0, 0), BuildingBlock: UVAHIK_clean_linker_0, # of connection points: 2
#     Edge 67, Type (0, 0), BuildingBlock: UVAHIK_clean_linker_0, # of connection points: 2
#     Edge 68, Type (0, 0), BuildingBlock: UVAHIK_clean_linker_0, # of connection points: 2
#     Edge 69, Type (0, 0), BuildingBlock: UVAHIK_clean_linker_0, # of connection points: 2
#     Edge 70, Type (0, 0), BuildingBlock: UVAHIK_clean_linker_0, # of connection points: 2
#     Edge 71, Type (0, 0), BuildingBlock: UVAHIK_clean_linker_0, # of connection points: 2
# Relax obj value: 0.376
# Max RMSD: 0.323
# Mean RMSD: 0.306
data_MOF--net-unv--node1-NAHDIM_clean_sbu_0--edge1-UVAHIK_clean_linker_0
_symmetry_space_group_name_H-M    P1
_symmetry_Int_Tables_number       1
_symmetry_cell_setting            triclinic
loop_
_symmetry_equiv_pos_as_xyz
'x, y, z'
_cell_length_a     61.597782
_cell_length_b     61.593213
_cell_length_c     61.60723
_cell_angle_alpha  90.002975
_cell_angle_beta   90.002847
_cell_angle_gamma 90.007059
loop_
_atom_site_label
_atom_site_type_symbol
_atom_site_fract_x
_atom_site_fract_y
_atom_site_fract_z
_atom_type_partial_charge
C0 C 0.09116 0.15846 0.35598 0.0
O1 O 0.10554 0.15404 0.37111 0.0
O2 O 0.08587 0.09056 0.3473 0.0
Zn3 Zn 0.07504 0.1152 0.36554 0.0
O4 O 0.09107 0.11409 0.39399 0.0
C5 C 0.03183 0.09843 0.35885 0.0
O6 O 0.04011 0.0924 0.34016 0.0
O7 O 0.07739 0.14406 0.35066 0.0
C8 C 0.08717 0.0969 0.4047 0.0
O9 O 0.07379 0.08249 0.39641 0.0
C10 C 0.1022 0.08965 0.33478 0.0
O11 O 0.11437 0.10693 0.33192 0.0
O12 O 0.04351 0.10923 0.37201 0.0
C13 C 0.98691 0.35861 0.33608 0.0
O14 O 0.97402 0.36398 0.31999 0.0
O15 O 0.9471 0.40516 0.33914 0.0
Zn16 Zn 0.96395 0.39121 0.36341 0.0
O17 O 0.94437 0.38122 0.38766 0.0
C18 C 0.99272 0.42811 0.36448 0.0
O19 O 0.99343 0.42488 0.34341 0.0
O20 O 0.9848 0.36774 0.35446 0.0
C21 C 0.92389 0.38372 0.38769 0.0
O22 O 0.91432 0.39132 0.37023 0.0
C23 C 0.93414 0.39816 0.32469 0.0
O24 O 0.92989 0.37731 0.32324 0.0
O25 O 0.98158 0.41535 0.37626 0.0
C26 C 0.02373 0.84986 0.21216 0.0
O27 O 0.04498 0.85159 0.21135 0.0
O28 O 0.04781 0.90462 0.21528 0.0
Zn29 Zn 0.02603 0.89253 0.19408 0.0
O30 O 0.03998 0.88632 0.1652 0.0
C31 C 0.99736 0.92837 0.20392 0.0
O32 O 0.00538 0.92608 0.22355 0.0
O33 O 0.01212 0.86565 0.20578 0.0
C34 C 0.04676 0.9026 0.15451 0.0
O35 O 0.04477 0.92207 0.163 0.0
C36 C 0.06809 0.90654 0.21195 0.0
O37 O 0.07658 0.89903 0.1939 0.0
O38 O 0.00333 0.9154 0.18903 0.0
C39 C 0.94293 0.64005 0.18784 0.0
O40 O 0.92278 0.63566 0.18239 0.0
O41 O 0.93181 0.57986 0.17772 0.0
Zn42 Zn 0.95182 0.60131 0.16327 0.0
O43 O 0.93963 0.61106 0.1347 0.0
C44 C 0.99096 0.57669 0.17163 0.0
O45 O 0.98511 0.57894 0.19202 0.0
O46 O 0.95799 0.62731 0.18183 0.0
C47 C 0.91949 0.61236 0.13043 0.0
O48 O 0.90526 0.6074 0.14552 0.0
C49 C 0.92909 0.57943 0.19814 0.0
O50 O 0.93852 0.59429 0.21019 0.0
O51 O 0.97953 0.58545 0.15686 0.0
C52 C 0.35255 0.01402 0.11762 0.0
O53 O 0.34291 0.0004 0.10433 0.0
O54 O 0.35371 0.01985 0.06024 0.0
Zn55 Zn 0.37924 0.01959 0.0805 0.0
O56 O 0.40083 0.04227 0.07116 0.0
C57 C 0.38669 0.97457 0.06835 0.0
O58 O 0.36659 0.97559 0.0613 0.0
O59 O 0.36904 0.02451 0.111 0.0
C60 C 0.41028 0.03814 0.05329 0.0
O61 O 0.40447 0.02073 0.04241 0.0
C62 C 0.34296 0.03695 0.05612 0.0
O63 O 0.34872 0.05535 0.06524 0.0
O64 O 0.39476 0.99087 0.0781 0.0
C65 C 0.62815 0.46468 0.12321 0.0
O66 O 0.63029 0.44501 0.11524 0.0
O67 O 0.64767 0.46763 0.06664 0.0
Zn68 Zn 0.61837 0.47469 0.07905 0.0
O69 O 0.59701 0.45066 0.0733 0.0
C70 C 0.61401 0.5076 0.04621 0.0
O71 O 0.63018 0.49675 0.03751 0.0
O72 O 0.62229 0.48003 0.11075 0.0
C73 C 0.59526 0.4443 0.05376 0.0
O74 O 0.60795 0.4529 0.03893 0.0
C75 C 0.65521 0.44885 0.06267 0.0
O76 O 0.64347 0.43158 0.06702 0.0
O77 O 0.6066 0.50161 0.06451 0.0
C78 C 0.33532 0.0087 0.34509 0.0
O79 O 0.34905 0.02146 0.35526 0.0
O80 O 0.32773 0.95978 0.3984 0.0
Zn81 Zn 0.34473 0.98193 0.38146 0.0
O82 O 0.37381 0.96906 0.37416 0.0
C83 C 0.3326 0.0139 0.41256 0.0
O84 O 0.3133 0.00597 0.40813 0.0
O85 O 0.32996 0.9908 0.35383 0.0
C86 C 0.39089 0.98049 0.37238 0.0
O87 O 0.38959 0.00164 0.3748 0.0
C88 C 0.3381 0.95135 0.41414 0.0
O89 O 0.35867 0.95639 0.41671 0.0
O90 O 0.34888 0.00701 0.40192 0.0
C91 C 0.65632 0.5095 0.34782 0.0
O92 O 0.65264 0.52956 0.35398 0.0
O93 O 0.65632 0.52088 0.4082 0.0
Zn94 Zn 0.63815 0.50144 0.38935 0.0
O95 O 0.60952 0.51562 0.38308 0.0
C96 C 0.64764 0.46749 0.41938 0.0
O97 O 0.66656 0.47733 0.41942 0.0
O98 O 0.65231 0.49414 0.36097 0.0
C99 C 0.59462 0.50439 0.37428 0.0
O100 O 0.59844 0.48393 0.3696 0.0
C101 C 0.65918 0.5413 0.40785 0.0
O102 O 0.65007 0.55319 0.39269 0.0
O103 O 0.6328 0.47433 0.40676 0.0
C104 C 0.15297 0.35759 0.0371 0.0
O105 O 0.15044 0.34749 0.05571 0.0
O106 O 0.09917 0.34292 0.05617 0.0
Zn107 Zn 0.10851 0.37174 0.04392 0.0
O108 O 0.108 0.39507 0.06689 0.0
C109 C 0.06804 0.37215 0.02008 0.0
O110 O 0.06271 0.3571 0.03421 0.0
O111 O 0.13757 0.36908 0.02964 0.0
C112 C 0.09016 0.39731 0.07701 0.0
O113 O 0.0741 0.38399 0.0726 0.0
C114 C 0.09906 0.33751 0.07608 0.0
O115 O 0.107 0.3509 0.09066 0.0
O116 O 0.08689 0.38053 0.02089 0.0
C117 C 0.11269 0.64284 0.50505 0.0
O118 O 0.10282 0.62467 0.51028 0.0
O119 O 0.05412 0.68131 0.48645 0.0
Zn120 Zn 0.06902 0.65575 0.50014 0.0
O121 O 0.06174 0.62908 0.48299 0.0
C122 C 0.04127 0.66052 0.5378 0.0
O123 O 0.03326 0.67686 0.52669 0.0
O124 O 0.10132 0.65938 0.50036 0.0
C125 C 0.06766 0.62571 0.46353 0.0
O126 O 0.07915 0.64053 0.45336 0.0
C127 C 0.06256 0.70006 0.48499 0.0
O128 O 0.08231 0.70324 0.49239 0.0
O129 O 0.05743 0.65019 0.5302 0.0
C130 C 0.8515 0.8916 0.46403 0.0
O131 O 0.85974 0.88861 0.44458 0.0
O132 O 0.9093 0.8838 0.45807 0.0
Zn133 Zn 0.89354 0.90909 0.47127 0.0
O134 O 0.89473 0.9346 0.45103 0.0
C135 C 0.91764 0.90191 0.51027 0.0
O136 O 0.91223 0.88167 0.50619 0.0
O137 O 0.86304 0.90062 0.47852 0.0
C138 C 0.8908 0.95346 0.45842 0.0
O139 O 0.88452 0.95549 0.4787 0.0
C140 C 0.9296 0.88592 0.45506 0.0
O141 O 0.93867 0.90484 0.45895 0.0
O142 O 0.9102 0.91688 0.49818 0.0
C143 C 0.34187 0.63048 0.46544 0.0
O144 O 0.35441 0.64732 0.46167 0.0
O145 O 0.39958 0.63324 0.47288 0.0
Zn146 Zn 0.38232 0.60621 0.46684 0.0
O147 O 0.38942 0.58404 0.48961 0.0
C148 C 0.4022 0.60569 0.42457 0.0
O149 O 0.40358 0.62669 0.42804 0.0
O150 O 0.35033 0.6118 0.46752 0.0
C151 C 0.40895 0.5776 0.49103 0.0
O152 O 0.42356 0.58594 0.4779 0.0
C153 C 0.40466 0.63975 0.49177 0.0
O154 O 0.39744 0.62911 0.50879 0.0
O155 O 0.39226 0.59389 0.43827 0.0
C156 C 0.502 0.6414 0.81193 0.0
O157 O 0.51699 0.62695 0.80733 0.0
O158 O 0.50308 0.58474 0.82059 0.0
Zn159 Zn 0.48454 0.60618 0.83692 0.0
O160 O 0.4957 0.60788 0.86766 0.0
C161 C 0.44737 0.58561 0.81891 0.0
O162 O 0.45819 0.58926 0.8009 0.0
O163 O 0.48595 0.63585 0.82365 0.0
C164 C 0.48625 0.59834 0.88333 0.0
O165 O 0.46817 0.58764 0.87967 0.0
C166 C 0.50479 0.56591 0.82888 0.0
O167 O 0.49541 0.56203 0.84763 0.0
O168 O 0.45451 0.59357 0.83654 0.0
C169 C 0.54039 0.85924 0.85589 0.0
O170 O 0.55151 0.86177 0.87392 0.0
O171 O 0.50313 0.92095 0.85138 0.0
Zn172 Zn 0.52403 0.90148 0.8669 0.0
O173 O 0.51152 0.89493 0.89631 0.0
C174 C 0.562 0.92344 0.85222 0.0
O175 O 0.55483 0.91638 0.83341 0.0
O176 O 0.52778 0.87428 0.84965 0.0
C177 C 0.5226 0.8943 0.9137 0.0
O178 O 0.54369 0.89732 0.91276 0.0
C179 C 0.48405 0.91515 0.84613 0.0
O180 O 0.47745 0.89541 0.85081 0.0
O181 O 0.55194 0.91802 0.86939 0.0
C182 C 0.52726 0.33687 0.65061 0.0
O183 O 0.54799 0.34055 0.64716 0.0
O184 O 0.53724 0.39896 0.66331 0.0
Zn185 Zn 0.52431 0.38163 0.6388 0.0
O186 O 0.54539 0.37799 0.61422 0.0
C187 C 0.49176 0.41573 0.63479 0.0
O188 O 0.49902 0.42194 0.65385 0.0
O189 O 0.51382 0.35236 0.64844 0.0
C190 C 0.56505 0.3842 0.61402 0.0
O191 O 0.57346 0.39292 0.63157 0.0
C192 C 0.53692 0.39303 0.68306 0.0
O193 O 0.52918 0.3738 0.68804 0.0
O194 O 0.49948 0.39868 0.6261 0.0
C195 C 0.44041 0.12126 0.65937 0.0
O196 O 0.4195 0.11835 0.66241 0.0
O197 O 0.42985 0.06463 0.68021 0.0
Zn198 Zn 0.43892 0.07564 0.6508 0.0
O199 O 0.41433 0.07711 0.62929 0.0
C200 C 0.46622 0.03719 0.64634 0.0
O201 O 0.45722 0.03139 0.66477 0.0
O202 O 0.45215 0.10513 0.6542 0.0
C203 C 0.40814 0.05952 0.62046 0.0
O204 O 0.41675 0.04112 0.62696 0.0
C205 C 0.4126 0.0543 0.68487 0.0
O206 O 0.39794 0.05092 0.66977 0.0
O207 O 0.46133 0.05543 0.638 0.0
C208 C 0.8133 0.52297 0.63667 0.0
O209 O 0.80946 0.54203 0.62789 0.0
O210 O 0.80992 0.53201 0.57941 0.0
Zn211 Zn 0.83337 0.51644 0.59589 0.0
O212 O 0.85905 0.53614 0.59936 0.0
C213 C 0.82909 0.48007 0.56685 0.0
O214 O 0.8092 0.48753 0.56499 0.0
O215 O 0.82295 0.50858 0.62552 0.0
C216 C 0.87592 0.5301 0.60957 0.0
O217 O 0.87663 0.51045 0.61783 0.0
C218 C 0.81406 0.54758 0.56652 0.0
O219 O 0.83422 0.55411 0.56415 0.0
O220 O 0.8423 0.48964 0.57949 0.0
C221 C 0.1708 0.94114 0.65111 0.0
O222 O 0.16227 0.9238 0.64208 0.0
O223 O 0.18913 0.9376 0.58991 0.0
Zn224 Zn 0.16898 0.95626 0.60745 0.0
O225 O 0.13863 0.94513 0.60364 0.0
C226 C 0.18207 0.99262 0.58028 0.0
O227 O 0.19776 0.97947 0.57431 0.0
O228 O 0.17608 0.95708 0.63914 0.0
C229 C 0.13162 0.94392 0.58429 0.0
O230 O 0.14473 0.94903 0.56825 0.0
C231 C 0.20824 0.93182 0.59506 0.0
O232 O 0.21594 0.93703 0.61425 0.0
O233 O 0.16884 0.98653 0.5949 0.0
C234 C 0.85439 0.50069 0.86117 0.0
O235 O 0.86254 0.48217 0.8679 0.0
O236 O 0.83908 0.50038 0.92236 0.0
Zn237 Zn 0.86344 0.51322 0.90489 0.0
O238 O 0.88973 0.49389 0.90741 0.0
C239 C 0.85545 0.55347 0.9265 0.0
O240 O 0.83523 0.54701 0.92434 0.0
O241 O 0.85366 0.51669 0.87416 0.0
C242 C 0.89272 0.48477 0.92568 0.0
O243 O 0.87899 0.48856 0.94155 0.0
C244 C 0.83294 0.48069 0.92188 0.0
O245 O 0.84241 0.46703 0.90853 0.0
O246 O 0.87055 0.54206 0.91829 0.0
C247 C 0.12644 0.98429 0.87517 0.0
O248 O 0.13159 0.00319 0.88362 0.0
O249 O 0.14138 0.98791 0.93094 0.0
Zn250 Zn 0.11281 0.97788 0.91843 0.0
O251 O 0.09004 0.00104 0.92217 0.0
C252 C 0.11682 0.93862 0.94346 0.0
O253 O 0.13732 0.94035 0.9378 0.0
O254 O 0.11725 0.9702 0.8871 0.0
C255 C 0.08691 0.00737 0.94155 0.0
O256 O 0.09873 -0.00108 0.95717 0.0
C257 C 0.14699 0.00754 0.93393 0.0
O258 O 0.13368 0.02325 0.92838 0.0
O259 O 0.10318 0.95214 0.93593 0.0
C260 C 0.62705 0.84425 0.49814 0.0
O261 O 0.61727 0.84622 0.51699 0.0
O262 O 0.56787 0.81961 0.48449 0.0
Zn263 Zn 0.58351 0.84812 0.4818 0.0
O264 O 0.5751 0.86771 0.50652 0.0
C265 C 0.56191 0.8544 0.44027 0.0
O266 O 0.55698 0.83374 0.44224 0.0
O267 O 0.61576 0.84413 0.4809 0.0
C268 C 0.55523 0.87312 0.50761 0.0
O269 O 0.54157 0.86506 0.49334 0.0
C270 C 0.562 0.81158 0.50255 0.0
O271 O 0.56726 0.82158 0.52064 0.0
O272 O 0.57367 0.86338 0.45464 0.0
C273 C 0.65919 0.18234 0.96446 0.0
O274 O 0.64329 0.19597 0.9685 0.0
O275 O 0.61069 0.18372 0.92642 0.0
Zn276 Zn 0.62787 0.15834 0.93745 0.0
O277 O 0.63385 0.13689 0.91368 0.0
C278 C 0.59641 0.15284 0.972 0.0
O279 O 0.59834 0.17399 0.97391 0.0
O280 O 0.65591 0.16632 0.95189 0.0
C281 C 0.61778 0.12978 0.9029 0.0
O282 O 0.59846 0.13808 0.90656 0.0
C283 C 0.61003 0.19069 0.90702 0.0
O284 O 0.62339 0.18262 0.89249 0.0
O285 O 0.6082 0.14283 0.95835 0.0
C286 C 0.34765 0.33765 0.91085 0.0
O287 O 0.34871 0.34643 0.89145 0.0
O288 O 0.41027 0.31619 0.89629 0.0
Zn289 Zn 0.3942 0.34173 0.90885 0.0
O290 O 0.39104 0.36644 0.88769 0.0
C291 C 0.42205 0.33922 0.94614 0.0
O292 O 0.41932 0.31828 0.9431 0.0
O293 O 0.36513 0.33335 0.9209 0.0
C294 C 0.40769 0.37777 0.88328 0.0
O295 O 0.42648 0.37227 0.89176 0.0
C296 C 0.42011 0.31579 0.87815 0.0
O297 O 0.41805 0.33223 0.86474 0.0
O298 O 0.4124 0.35253 0.93367 0.0
C299 C 0.8707 0.17484 0.0587 0.0
O300 O 0.88672 0.18544 0.04942 0.0
O301 O 0.92578 0.17456 0.0816 0.0
Zn302 Zn 0.90576 0.14939 0.0762 0.0
O303 O 0.90758 0.12815 0.10091 0.0
C304 C 0.9277 0.14385 0.03514 0.0
O305 O 0.92959 0.16506 0.03643 0.0
O306 O 0.87502 0.15901 0.07121 0.0
C307 C 0.92655 0.12183 0.10599 0.0
O308 O 0.94327 0.13013 0.09566 0.0
C309 C 0.93143 0.18221 0.09989 0.0
O310 O 0.92262 0.17447 0.1177 0.0
O311 O 0.91724 0.13379 0.04982 0.0
C312 C 0.16088 0.02673 0.57394 0.0
C313 C 0.17722 0.01225 0.56733 0.0
C314 C 0.15342 0.04285 0.55984 0.0
C315 C 0.16274 0.06845 0.50539 0.0
H316 H 0.09984 0.06789 0.50328 0.0
C317 C 0.1138 0.10647 0.43419 0.0
C318 C 0.09756 0.0927 0.42593 0.0
C319 C 0.12397 0.10168 0.45397 0.0
C320 C 0.11742 0.06832 0.50369 0.0
H321 H 0.19974 0.00444 0.54141 0.0
H322 H 0.18634 0.03199 0.51665 0.0
H323 H 0.11837 0.05117 0.53371 0.0
H324 H 0.07903 0.06336 0.4321 0.0
H325 H 0.09676 0.055 0.46619 0.0
H326 H 0.1616 0.08433 0.47446 0.0
C327 C 0.17944 0.03124 0.5328 0.0
C328 C 0.1281 0.05898 0.52133 0.0
C329 C 0.18707 0.01528 0.54699 0.0
C330 C 0.09146 0.07433 0.43797 0.0
C331 C 0.10151 0.06963 0.45766 0.0
C332 C 0.15202 0.07773 0.48764 0.0
C333 C 0.16195 0.04468 0.53873 0.0
C334 C 0.15091 0.05827 0.52208 0.0
C335 C 0.11794 0.08315 0.46588 0.0
C336 C 0.12925 0.07703 0.48626 0.0
H337 H 0.15318 0.02501 0.58965 0.0
H338 H 0.14029 0.05327 0.56515 0.0
H339 H 0.18032 0.06853 0.50562 0.0
H340 H 0.11883 0.12076 0.42527 0.0
H341 H 0.13654 0.11244 0.45993 0.0
C342 C 0.9228 0.37771 0.42787 0.0
C343 C 0.91181 0.38243 0.40843 0.0
C344 C 0.91263 0.3809 0.44788 0.0
C345 C 0.86019 0.39341 0.47499 0.0
H346 H 0.89586 0.43129 0.5104 0.0
C347 C 0.82449 0.4558 0.53462 0.0
C348 C 0.83667 0.46213 0.55283 0.0
C349 C 0.83281 0.44067 0.51991 0.0
C350 C 0.88574 0.42031 0.50112 0.0
H351 H 0.88087 0.39216 0.39471 0.0
H352 H 0.86319 0.39786 0.4296 0.0
H353 H 0.91173 0.41314 0.47937 0.0
H354 H 0.86641 0.45642 0.57077 0.0
H355 H 0.88067 0.42956 0.54548 0.0
H356 H 0.83401 0.40109 0.49654 0.0
C357 C 0.87966 0.3917 0.4294 0.0
C358 C 0.89489 0.40989 0.48324 0.0
C359 C 0.88985 0.38855 0.40938 0.0
C360 C 0.85678 0.4521 0.55671 0.0
C361 C 0.86498 0.43676 0.54215 0.0
C362 C 0.85103 0.40373 0.49304 0.0
C363 C 0.89124 0.38879 0.44885 0.0
C364 C 0.88211 0.39677 0.46965 0.0
C365 C 0.8534 0.43134 0.52322 0.0
C366 C 0.86358 0.41779 0.50599 0.0
H367 H 0.93966 0.37271 0.42772 0.0
H368 H 0.92183 0.37817 0.46261 0.0
H369 H 0.85 0.38321 0.46491 0.0
H370 H 0.80893 0.46323 0.53117 0.0
H371 H 0.82352 0.43714 0.50542 0.0
C372 C 0.05484 0.88013 0.12147 0.0
C373 C 0.05663 0.89986 0.13283 0.0
C374 C 0.06336 0.87811 0.1005 0.0
C375 C 0.10244 0.90306 0.06257 0.0
H376 H 0.06382 0.88276 0.01718 0.0
C377 C 0.08877 0.92375 0.96876 0.0
C378 C 0.11043 0.92424 0.9616 0.0
C379 C 0.08339 0.91387 0.98843 0.0
C380 C 0.07486 0.88827 0.0297 0.0
H381 H 0.06923 0.93272 0.13136 0.0
H382 H 0.08413 0.92917 0.09498 0.0
H383 H 0.05288 0.8795 0.05521 0.0
H384 H 0.14308 0.91293 0.96846 0.0
H385 H 0.13362 0.8956 0.00279 0.0
H386 H 0.12391 0.91291 0.03722 0.0
C387 C 0.07623 0.91523 0.10225 0.0
C388 C 0.06868 0.88626 0.05146 0.0
C389 C 0.06754 0.91732 0.12304 0.0
C390 C 0.12628 0.91305 0.97362 0.0
C391 C 0.12089 0.90319 0.99334 0.0
C392 C 0.10866 0.90497 0.04089 0.0
C393 C 0.07408 0.89569 0.09068 0.0
C394 C 0.0821 0.89433 0.06804 0.0
C395 C 0.09955 0.90426 0.00136 0.0
C396 C 0.09464 0.89825 0.02417 0.0
H397 H 0.04651 0.86639 0.12861 0.0
H398 H 0.06154 0.86286 0.09195 0.0
H399 H 0.11321 0.90917 0.07506 0.0
H400 H 0.07613 0.93208 0.95981 0.0
H401 H 0.06682 0.91511 0.99417 0.0
C402 C 0.89063 0.61443 0.10181 0.0
C403 C 0.91244 0.61706 0.10798 0.0
C404 C 0.88463 0.6159 0.07997 0.0
C405 C 0.90861 0.60518 0.0272 0.0
H406 H 0.85333 0.6255 0.00503 0.0
C407 C 0.88209 0.57942 0.94277 0.0
C408 C 0.86093 0.57096 0.94195 0.0
C409 C 0.88851 0.59256 0.96009 0.0
C410 C 0.86885 0.61975 0.01096 0.0
H411 H 0.94472 0.62511 0.09633 0.0
H412 H 0.93419 0.62775 0.05832 0.0
H413 H 0.8643 0.63481 0.04204 0.0
H414 H 0.82939 0.57113 0.9576 0.0
H415 H 0.84075 0.59328 0.98814 0.0
H416 H 0.91278 0.58903 0.99694 0.0
C417 C 0.92182 0.62416 0.0703 0.0
C418 C 0.87512 0.62512 0.03213 0.0
C419 C 0.92783 0.62266 0.09208 0.0
C420 C 0.84585 0.57734 0.95781 0.0
C421 C 0.85236 0.5902 0.97531 0.0
C422 C 0.9023 0.59969 0.00619 0.0
C423 C 0.90032 0.62007 0.06392 0.0
C424 C 0.89485 0.61743 0.04062 0.0
C425 C 0.87403 0.59719 0.97714 0.0
C426 C 0.88209 0.60641 0.99797 0.0
H427 H 0.87837 0.61022 0.11368 0.0
H428 H 0.86795 0.61251 0.07555 0.0
H429 H 0.92376 0.59868 0.03334 0.0
H430 H 0.89397 0.57506 0.93056 0.0
H431 H 0.90516 0.59819 0.96065 0.0
C432 C 0.43413 0.07117 0.05585 0.0
C433 C 0.42853 0.05164 0.04545 0.0
C434 C 0.45195 0.08334 0.04867 0.0
C435 C 0.48873 0.08983 0.0012 0.0
H436 H 0.52738 0.11678 0.04299 0.0
C437 C 0.57345 0.11979 0.97732 0.0
C438 C 0.57871 0.14118 0.98331 0.0
C439 C 0.55524 0.10954 0.98606 0.0
C440 C 0.51662 0.10946 0.03116 0.0
H441 H 0.43727 0.02953 0.01946 0.0
H442 H 0.46841 0.05032 0.00735 0.0
H443 H 0.49474 0.09802 0.05565 0.0
H444 H 0.56953 0.16819 0.00397 0.0
H445 H 0.53778 0.15003 0.01951 0.0
H446 H 0.51089 0.10077 0.97681 0.0
C447 C 0.45884 0.05662 0.02068 0.0
C448 C 0.49787 0.0988 0.03837 0.0
C449 C 0.44101 0.0446 0.02773 0.0
C450 C 0.56588 0.15173 -0.00102 0.0
C451 C 0.54775 0.14134 0.00792 0.0
C452 C 0.50753 0.10024 0.99406 0.0
C453 C 0.46457 0.07615 0.03102 0.0
C454 C 0.48382 0.08865 0.02347 0.0
C455 C 0.542 0.12034 0.00115 0.0
C456 C 0.52177 0.10995 0.00897 0.0
H457 H 0.4248 0.07704 0.06954 0.0
H458 H 0.45573 0.09843 0.05685 0.0
H459 H 0.47804 0.08269 0.98922 0.0
H460 H 0.58299 0.11116 0.96533 0.0
H461 H 0.55133 0.09321 0.98079 0.0
C462 C 0.5611 0.42354 0.06156 0.0
C463 C 0.57817 0.42875 0.04733 0.0
C464 C 0.54385 0.41054 0.05453 0.0
C465 C 0.52707 0.37203 0.01161 0.0
H466 H 0.46948 0.39577 0.02089 0.0
C467 C 0.43994 0.36959 0.96635 0.0
C468 C 0.43759 0.3472 0.96261 0.0
C469 C 0.45589 0.37726 0.98051 0.0
C470 C 0.48545 0.38889 0.01827 0.0
H471 H 0.59106 0.42362 0.01496 0.0
H472 H 0.56108 0.40097 0.00278 0.0
H473 H 0.50073 0.41261 0.03857 0.0
H474 H 0.44959 0.31528 0.97143 0.0
H475 H 0.47751 0.32875 0.99613 0.0
H476 H 0.51194 0.34888 0.99061 0.0
C477 C 0.56101 0.40686 0.01935 0.0
C478 C 0.50331 0.39838 0.02855 0.0
C479 C 0.57811 0.41997 0.02629 0.0
C480 C 0.45103 0.33263 0.9739 0.0
C481 C 0.46708 0.34033 0.98798 0.0
C482 C 0.50921 0.36246 0.00144 0.0
C483 C 0.5435 0.40233 0.03324 0.0
C484 C 0.52435 0.39039 0.02488 0.0
C485 C 0.46989 0.36274 0.99117 0.0
C486 C 0.48829 0.37112 0.00424 0.0
H487 H 0.56071 0.43005 0.07789 0.0
H488 H 0.53063 0.40717 0.06563 0.0
H489 H 0.54309 0.36541 0.00866 0.0
H490 H 0.42982 0.38125 0.95794 0.0
H491 H 0.4578 0.39464 0.98244 0.0
C492 C 0.53315 0.85975 0.41211 0.0
C493 C 0.55093 0.86797 0.42379 0.0
C494 C 0.52027 0.87358 0.39958 0.0
C495 C 0.50417 0.93077 0.39941 0.0
H496 H 0.46942 0.91284 0.35009 0.0
C497 C 0.43156 0.98182 0.37164 0.0
C498 C 0.41225 0.96977 0.37002 0.0
C499 C 0.45165 0.97129 0.37219 0.0
C500 C 0.4791 0.91811 0.3638 0.0
H501 H 0.57041 0.89669 0.42983 0.0
H502 H 0.54823 0.92071 0.40758 0.0
H503 H 0.50018 0.89055 0.36156 0.0
H504 H 0.39896 0.93735 0.36623 0.0
H505 H 0.43391 0.91904 0.36741 0.0
H506 H 0.4827 0.95784 0.4022 0.0
C507 C 0.54384 0.90372 0.4086 0.0
C508 C 0.49667 0.90535 0.37039 0.0
C509 C 0.55661 0.88992 0.42128 0.0
C510 C 0.41353 0.94711 0.36765 0.0
C511 C 0.4336 0.93661 0.36812 0.0
C512 C 0.4867 0.94354 0.39277 0.0
C513 C 0.52502 0.89589 0.39832 0.0
C514 C 0.50898 0.91117 0.38872 0.0
C515 C 0.45283 0.94853 0.37102 0.0
C516 C 0.47355 0.93701 0.37533 0.0
H517 H 0.52838 0.84289 0.41365 0.0
H518 H 0.50582 0.86699 0.39205 0.0
H519 H 0.51303 0.93563 0.4138 0.0
H520 H 0.43114 -0.00068 0.37332 0.0
H521 H 0.46624 0.98092 0.37419 0.0
C522 C 0.43412 0.60662 0.39965 0.0
C523 C 0.41627 0.59528 0.40817 0.0
C524 C 0.45034 0.5956 0.38828 0.0
C525 C 0.47335 0.54052 0.38665 0.0
H526 H 0.51444 0.5678 0.34755 0.0
C527 C 0.55503 0.50038 0.36606 0.0
C528 C 0.57287 0.51384 0.37064 0.0
C529 C 0.53414 0.5091 0.36457 0.0
C530 C 0.503 0.55994 0.35835 0.0
H531 H 0.40013 0.56403 0.40936 0.0
H532 H 0.42796 0.54494 0.3887 0.0
H533 H 0.47943 0.58515 0.35442 0.0
H534 H 0.58301 0.54714 0.37605 0.0
H535 H 0.54654 0.56235 0.37334 0.0
H536 H 0.49707 0.51554 0.39084 0.0
C537 C 0.42995 0.56217 0.39157 0.0
C538 C 0.48299 0.56988 0.36237 0.0
C539 C 0.41389 0.57313 0.40327 0.0
C540 C 0.56956 0.53632 0.37266 0.0
C541 C 0.54872 0.54507 0.37091 0.0
C542 C 0.49318 0.53046 0.38239 0.0
C543 C 0.4489 0.57305 0.38488 0.0
C544 C 0.46821 0.56067 0.37718 0.0
C545 C 0.53075 0.53148 0.36734 0.0
C546 C 0.50848 0.54041 0.36876 0.0
H547 H 0.43643 0.6237 0.40311 0.0
H548 H 0.4647 0.60458 0.38357 0.0
H549 H 0.46267 0.53304 0.39844 0.0
H550 H 0.55706 0.48299 0.36434 0.0
H551 H 0.52056 0.49829 0.36171 0.0
C552 C 0.10207 0.43228 0.09434 0.0
C553 C 0.08671 0.41553 0.09226 0.0
C554 C 0.09752 0.45054 0.10709 0.0
C555 C 0.05918 0.47185 0.14875 0.0
H556 H 0.06868 0.52706 0.12007 0.0
C557 C 0.01417 0.55862 0.14367 0.0
C558 C 0.00897 0.56197 0.16562 0.0
C559 C 0.02913 0.54271 0.13768 0.0
C560 C 0.066 0.51178 0.12836 0.0
H561 H 0.05501 0.40429 0.10276 0.0
H562 H 0.04702 0.43602 0.12464 0.0
H563 H 0.08445 0.49414 0.10482 0.0
H564 H 0.01649 0.55219 0.19861 0.0
H565 H 0.04284 0.52449 0.18812 0.0
H566 H 0.03952 0.4892 0.17143 0.0
C567 C 0.06267 0.43509 0.11667 0.0
C568 C 0.07525 0.49294 0.11976 0.0
C569 C 0.06718 0.41694 0.10393 0.0
C570 C 0.02 0.54989 0.18154 0.0
C571 C 0.03502 0.53395 0.17553 0.0
C572 C 0.04986 0.49066 0.15729 0.0
C573 C 0.07758 0.45231 0.11808 0.0
C574 C 0.0713 0.47265 0.12943 0.0
C575 C 0.03933 0.52979 0.15349 0.0
C576 C 0.05253 0.51074 0.14677 0.0
H577 H 0.11731 0.43162 0.0856 0.0
H578 H 0.10942 0.46346 0.10801 0.0
H579 H 0.05614 0.45651 0.15679 0.0
H580 H 0.00605 0.56769 0.13099 0.0
H581 H 0.03181 0.5398 0.12055 0.0
C582 C 0.0012 0.45137 0.39665 0.0
C583 C 0.00315 0.4474 0.37427 0.0
C584 C 0.00948 0.47039 0.40573 0.0
C585 C 0.04767 0.51558 0.39689 0.0
H586 H 0.00986 0.54563 0.43728 0.0
C587 C 0.06621 0.60171 0.43059 0.0
C588 C 0.06148 0.60522 0.45263 0.0
C589 C 0.05985 0.58242 0.42039 0.0
C590 C 0.02073 0.53733 0.42623 0.0
H591 H 0.01603 0.45998 0.34399 0.0
H592 H 0.03049 0.49331 0.35993 0.0
H593 H 0.99791 0.51176 0.42089 0.0
H594 H 0.04686 0.59101 0.48138 0.0
H595 H 0.03612 0.55744 0.46375 0.0
H596 H 0.07056 0.54121 0.40239 0.0
C597 C 0.02259 0.48161 0.37041 0.0
C598 C 0.01388 0.51792 0.41683 0.0
C599 C 0.01423 0.46257 0.36129 0.0
C600 C 0.05059 0.58894 0.46432 0.0
C601 C 0.04432 0.56971 0.45418 0.0
C602 C 0.05459 0.53504 0.40638 0.0
C603 C 0.01995 0.48588 0.39267 0.0
C604 C 0.02732 0.50673 0.40221 0.0
C605 C 0.04868 0.56628 0.43206 0.0
C606 C 0.04125 0.54602 0.4213 0.0
H607 H 0.99289 0.43997 0.40715 0.0
H608 H 0.00754 0.47305 0.423 0.0
H609 H 0.05842 0.50724 0.38577 0.0
H610 H 0.07458 0.61395 0.42114 0.0
H611 H 0.06331 0.58034 0.40328 0.0
C612 C 0.89644 0.99357 0.45513 0.0
C613 C 0.89658 0.97288 0.44552 0.0
C614 C 0.90521 0.0114 0.44419 0.0
C615 C 0.92546 0.03108 0.39097 0.0
H616 H 0.96899 0.06006 0.42599 0.0
C617 C 0.00054 0.07292 0.35456 0.0
C618 C 0.01047 0.09002 0.36591 0.0
C619 C 0.98214 0.06267 0.36298 0.0
C620 C 0.95658 0.05263 0.416 0.0
H621 H 0.90454 0.95499 0.41623 0.0
H622 H 0.91988 0.98607 0.39719 0.0
H623 H 0.94404 0.0348 0.44298 0.0
H624 H 0.00791 0.11097 0.39408 0.0
H625 H 0.97543 0.09354 0.40846 0.0
H626 H 0.93839 0.04858 0.36387 0.0
C627 C 0.91297 0.98854 0.41317 0.0
C628 C 0.94226 0.03806 0.42579 0.0
C629 C 0.9043 0.97069 0.42415 0.0
C630 C 0.00079 0.09764 0.3851 0.0
C631 C 0.98223 0.08755 0.3934 0.0
C632 C 0.9397 0.04583 0.38117 0.0
C633 C 0.91417 0.00892 0.42336 0.0
C634 C 0.92692 0.02671 0.41331 0.0
C635 C 0.97312 0.06946 0.38284 0.0
C636 C 0.95583 0.05634 0.39349 0.0
H637 H 0.89046 0.99586 0.47151 0.0
H638 H 0.90567 0.02699 0.45232 0.0
H639 H 0.91363 0.02273 0.381 0.0
H640 H 0.00759 0.06666 0.33972 0.0
H641 H 0.97576 0.04867 0.35448 0.0
C642 C 0.39948 0.55118 0.52054 0.0
C643 C 0.41509 0.56053 0.50676 0.0
C644 C 0.40527 0.53463 0.53495 0.0
C645 C 0.4472 0.49281 0.54369 0.0
H646 H 0.42597 0.49235 0.60296 0.0
C647 C 0.46985 0.42362 0.6015 0.0
C648 C 0.47733 0.4301 0.62205 0.0
C649 C 0.45894 0.43828 0.58809 0.0
C650 C 0.43203 0.49227 0.58645 0.0
H651 H 0.44909 0.56009 0.49756 0.0
H652 H 0.4592 0.53144 0.5228 0.0
H653 H 0.41435 0.52106 0.57815 0.0
H654 H 0.47808 0.45668 0.64516 0.0
H655 H 0.45933 0.48233 0.62163 0.0
H656 H 0.46545 0.46456 0.55206 0.0
C657 C 0.44241 0.53663 0.52224 0.0
C658 C 0.42524 0.50859 0.5722 0.0
C659 C 0.43664 0.55317 0.50787 0.0
C660 C 0.47257 0.45118 0.6294 0.0
C661 C 0.46172 0.46587 0.61594 0.0
C662 C 0.45396 0.47652 0.55789 0.0
C663 C 0.42678 0.52707 0.53584 0.0
C664 C 0.43299 0.50919 0.55075 0.0
C665 C 0.45534 0.45976 0.59489 0.0
C666 C 0.44665 0.47617 0.5795 0.0
H667 H 0.38272 0.55649 0.52007 0.0
H668 H 0.39283 0.52748 0.54511 0.0
H669 H 0.45322 0.49263 0.52717 0.0
H670 H 0.47304 0.40742 0.59544 0.0
H671 H 0.45382 0.43294 0.57214 0.0
C672 C 0.60814 0.52784 0.01162 0.0
C673 C 0.60289 0.52471 0.03357 0.0
C674 C 0.596 0.542 -0.00121 0.0
C675 C 0.54129 0.566 0.99614 0.0
H676 H 0.56567 0.59287 0.94477 0.0
C677 C 0.49103 0.58052 0.91942 0.0
C678 C 0.49707 0.59681 0.90468 0.0
C679 C 0.50306 0.57707 0.9383 0.0
C680 C 0.5585 0.58594 0.95923 0.0
H681 H 0.58164 0.53504 0.05967 0.0
H682 H 0.56076 0.5603 0.03738 0.0
H683 H 0.5897 0.57842 0.97236 0.0
H684 H 0.51947 0.62335 0.89892 0.0
H685 H 0.54003 0.61788 0.93229 0.0
H686 H 0.51007 0.57383 0.98316 0.0
C687 C 0.57391 0.55133 0.02992 0.0
C688 C 0.57235 0.5773 0.97495 0.0
C689 C 0.58595 0.53695 0.04273 0.0
C690 C 0.51459 0.61047 0.90986 0.0
C691 C 0.52645 0.60724 0.92893 0.0
C692 C 0.52743 0.57495 0.98058 0.0
C693 C 0.57844 0.55362 0.00764 0.0
C694 C 0.56393 0.56642 0.99316 0.0
C695 C 0.52126 0.59006 0.94308 0.0
C696 C 0.53583 0.58425 0.96149 0.0
H697 H 0.62107 0.51865 0.00403 0.0
H698 H 0.59981 0.54298 0.98167 0.0
H699 H 0.53413 0.55773 0.0099 0.0
H700 H 0.47763 0.56969 0.91588 0.0
H701 H 0.49869 0.56347 0.94853 0.0
C702 C 0.42275 0.95582 0.06844 0.0
C703 C 0.40117 0.95683 0.06109 0.0
C704 C 0.43768 0.94202 0.05839 0.0
C705 C 0.44354 0.89846 0.01637 0.0
H706 H 0.49537 0.93086 0.00137 0.0
C707 C 0.48884 0.88935 0.93569 0.0
C708 C 0.51136 0.89291 0.93488 0.0
C709 C 0.4776 0.89107 0.95528 0.0
C710 C 0.4813 0.92128 0.00575 0.0
H711 H 0.37789 0.94279 0.03871 0.0
H712 H 0.40395 0.9192 0.02086 0.0
H713 H 0.47123 0.94471 0.02914 0.0
H714 H 0.53999 0.89953 0.9543 0.0
H715 H 0.5203 0.90256 0.98858 0.0
H716 H 0.45318 0.87566 0.9919 0.0
C717 C 0.40939 0.92882 0.03453 0.0
C718 C 0.46739 0.92922 0.02176 0.0
C719 C 0.39442 0.94248 0.04471 0.0
C720 C 0.52261 0.89687 0.95434 0.0
C721 C 0.51134 0.89868 0.97396 0.0
C722 C 0.45743 0.89055 0.00024 0.0
C723 C 0.4314 0.92908 0.04066 0.0
C724 C 0.44797 0.9183 0.02678 0.0
C725 C 0.48862 0.89642 0.97453 0.0
C726 C 0.4761 0.90226 0.99428 0.0
H727 H 0.42839 0.96646 0.08126 0.0
H728 H 0.45439 0.94224 0.06386 0.0
H729 H 0.42892 0.88943 0.02012 0.0
H730 H 0.47969 0.8861 0.92102 0.0
H731 H 0.46009 0.88944 0.95509 0.0
C732 C 0.59759 0.39431 0.59166 0.0
C733 C 0.57709 0.38441 0.59323 0.0
C734 C 0.60735 0.39734 0.57138 0.0
C735 C 0.59096 0.40647 0.51555 0.0
H736 H 0.65236 0.40199 0.50249 0.0
C737 C 0.62349 0.43866 0.43479 0.0
C738 C 0.64256 0.45108 0.43612 0.0
C739 C 0.61717 0.42543 0.4521 0.0
C740 C 0.63518 0.40343 0.50591 0.0
H741 H 0.55154 0.36843 0.5749 0.0
H742 H 0.56856 0.3738 0.53966 0.0
H743 H 0.63852 0.38806 0.53701 0.0
H744 H 0.67055 0.45851 0.45614 0.0
H745 H 0.6592 0.43615 0.48655 0.0
H746 H 0.58754 0.4228 0.48526 0.0
C747 C 0.57693 0.37947 0.55405 0.0
C748 C 0.62728 0.39539 0.52564 0.0
C749 C 0.56722 0.37637 0.57427 0.0
C750 C 0.65576 0.44912 0.45461 0.0
C751 C 0.64929 0.43615 0.47204 0.0
C752 C 0.59884 0.41469 0.496 0.0
C753 C 0.59676 0.39057 0.55234 0.0
C754 C 0.60513 0.39708 0.53074 0.0
C755 C 0.6296 0.42461 0.47126 0.0
C756 C 0.6211 0.41358 0.49102 0.0
H757 H 0.60566 0.4006 0.60596 0.0
H758 H 0.62261 0.40605 0.57052 0.0
H759 H 0.57386 0.40835 0.51918 0.0
H760 H 0.61311 0.43963 0.42062 0.0
H761 H 0.60219 0.41634 0.45068 0.0
C762 C 0.38605 0.04023 0.59248 0.0
C763 C 0.39359 0.05983 0.60137 0.0
C764 C 0.37467 0.04011 0.57291 0.0
C765 C 0.37051 0.07102 0.52265 0.0
H766 H 0.32521 0.02919 0.50998 0.0
C767 C 0.35694 0.0337 0.43838 0.0
C768 C 0.33592 0.02735 0.43218 0.0
C769 C 0.3606 0.04302 0.45872 0.0
C770 C 0.33755 0.04128 0.51325 0.0
H771 H 0.39417 0.09481 0.59722 0.0
H772 H 0.37425 0.09455 0.56289 0.0
H773 H 0.33644 0.03509 0.54741 0.0
H774 H 0.30203 0.02736 0.44181 0.0
H775 H 0.30844 0.04379 0.47725 0.0
H776 H 0.37199 0.0768 0.48839 0.0
C777 C 0.37733 0.07928 0.57105 0.0
C778 C 0.34415 0.04448 0.53469 0.0
C779 C 0.38862 0.07943 0.59076 0.0
C780 C 0.31845 0.03189 0.44615 0.0
C781 C 0.32213 0.0412 0.46652 0.0
C782 C 0.36394 0.06779 0.50117 0.0
C783 C 0.37062 0.05957 0.5617 0.0
C784 C 0.36114 0.05889 0.53956 0.0
C785 C 0.34333 0.04621 0.4733 0.0
C786 C 0.34783 0.05242 0.49617 0.0
H787 H 0.38955 0.02486 0.60028 0.0
H788 H 0.36996 0.02462 0.56604 0.0
H789 H 0.38374 0.08216 0.52584 0.0
H790 H 0.37075 0.03051 0.42798 0.0
H791 H 0.37716 0.04651 0.46348 0.0
C792 C 0.00787 0.65881 0.56076 0.0
C793 C 0.02891 0.65128 0.5562 0.0
C794 C 0.99429 0.64719 0.57469 0.0
C795 C 0.9865 0.59066 0.5912 0.0
H796 H 0.9372 0.61496 0.62186 0.0
C797 C 0.91502 0.53705 0.61853 0.0
C798 C 0.89484 0.54478 0.61121 0.0
C799 C 0.93325 0.55058 0.61838 0.0
C800 C 0.95097 0.60794 0.61347 0.0
H801 H 0.05302 0.62699 0.56452 0.0
H802 H 0.02947 0.607 0.58926 0.0
H803 H 0.96709 0.63863 0.61093 0.0
H804 H 0.8777 0.57305 0.59903 0.0
H805 H 0.90945 0.59656 0.59872 0.0
H806 H 0.97007 0.56015 0.59309 0.0
C807 C 0.02323 0.6215 0.58153 0.0
C808 C 0.96806 0.62148 0.60717 0.0
C809 C 0.03677 0.63304 0.56744 0.0
C810 C 0.89305 0.56655 0.60465 0.0
C811 C 0.9112 0.5801 0.60467 0.0
C812 C 0.9695 0.57713 0.59763 0.0
C813 C 0.00151 0.62788 0.58453 0.0
C814 C 0.98565 0.61313 0.59524 0.0
C815 C 0.93158 0.57215 0.61112 0.0
C816 C 0.95121 0.58576 0.60813 0.0
H817 H 0.00134 0.67287 0.55247 0.0
H818 H 0.97765 0.65256 0.57647 0.0
H819 H -0.00042 0.58365 0.58179 0.0
H820 H 0.91689 0.52037 0.62379 0.0
H821 H 0.94875 0.54407 0.62355 0.0
C822 C 0.9414 0.92842 0.52978 0.0
C823 C 0.93555 0.9068 0.52548 0.0
C824 C 0.9607 0.93313 0.5407 0.0
C825 C 0.00668 0.90897 0.57175 0.0
H826 H 0.03988 0.95336 0.54189 0.0
C827 C 0.09396 0.93486 0.59698 0.0
C828 C 0.10866 0.93846 0.57988 0.0
C829 C 0.07198 0.93114 0.59267 0.0
C830 C 0.03086 0.94086 0.55036 0.0
H831 H 0.94453 0.87313 0.53065 0.0
H832 H 0.97835 0.88134 0.54932 0.0
H833 H 0.00233 0.94703 0.53173 0.0
H834 H 0.11195 0.94026 0.54486 0.0
H835 H 0.07378 0.93354 0.53738 0.0
H836 H 0.0357 0.9023 0.58978 0.0
C837 C 0.96797 0.89468 0.54448 0.0
C838 C 0.0092 0.93745 0.54478 0.0
C839 C 0.94859 0.88997 0.53368 0.0
C840 C 0.10104 0.93771 0.55841 0.0
C841 C 0.07912 0.934 0.55412 0.0
C842 C 0.02843 0.9124 0.57736 0.0
C843 C 0.97463 0.91632 0.54741 0.0
C844 C 0.99691 0.92128 0.55518 0.0
C845 C 0.06428 0.93099 0.57119 0.0
C846 C 0.04084 0.92813 0.56642 0.0
H847 H 0.93156 0.94175 0.5239 0.0
H848 H 0.96513 0.94997 0.54315 0.0
H849 H 0.99761 0.89649 0.58018 0.0
H850 H 0.09934 0.93533 0.61371 0.0
H851 H 0.06092 0.92896 0.60616 0.0
C852 C 0.05759 0.3949 0.98796 0.0
C853 C 0.0517 0.38041 0.00457 0.0
C854 C 0.04178 0.40379 0.9743 0.0
C855 C 0.98345 0.3984 0.95834 0.0
H856 H 0.98821 0.46015 0.94698 0.0
C857 C 0.91068 0.45504 0.94629 0.0
C858 C 0.91142 0.47031 0.92939 0.0
C859 C 0.92864 0.44204 0.9508 0.0
C860 C 0.98684 0.44282 0.94968 0.0
H861 H 0.0247 0.36348 0.01955 0.0
H862 H 0.99718 0.37939 0.99634 0.0
H863 H 0.01853 0.44097 0.96366 0.0
H864 H 0.93135 0.48375 0.90368 0.0
H865 H 0.9632 0.4613 0.91208 0.0
H866 H 0.95117 0.40072 0.94557 0.0
C867 C 0.014 0.38357 0.99339 0.0
C868 C 0.00423 0.43178 0.95919 0.0
C869 C 0.0298 0.37454 0.00686 0.0
C870 C 0.93036 0.47207 0.91678 0.0
C871 C 0.94855 0.45931 0.9216 0.0
C872 C 0.96598 0.40951 0.94912 0.0
C873 C 0.01973 0.39851 0.97709 0.0
C874 C 0.00253 0.40953 0.96419 0.0
C875 C 0.94784 0.44428 0.93873 0.0
C876 C 0.96735 0.43191 0.94521 0.0
H877 H 0.07438 0.3996 0.98567 0.0
H878 H 0.04682 0.41497 0.96171 0.0
H879 H 0.98176 0.38117 0.96143 0.0
H880 H 0.89626 0.45325 0.95619 0.0
H881 H 0.92777 0.43073 0.96424 0.0
C882 C 0.05386 0.02909 0.93162 0.0
C883 C 0.07014 0.02373 0.94671 0.0
C884 C 0.03747 0.04385 0.93714 0.0
C885 C 0.02463 0.08828 0.97489 0.0
H886 H 0.96452 0.07109 0.96729 0.0
C887 C 0.93911 0.10881 0.01789 0.0
C888 C 0.94032 0.13159 0.01878 0.0
C889 C 0.95329 0.09704 0.00465 0.0
C890 C 0.98123 0.07615 0.96938 0.0
H891 H 0.08232 0.03002 0.97914 0.0
H892 H 0.05397 0.05587 0.98862 0.0
H893 H 0.99357 0.04813 0.9528 0.0
H894 H 0.95646 0.15992 0.00542 0.0
H895 H 0.98122 0.13934 0.98238 0.0
H896 H 0.01248 0.11587 0.99208 0.0
C897 C 0.05383 0.04868 0.97257 0.0
C898 C 0.99782 0.06312 0.96096 0.0
C899 C 0.06999 0.03376 0.96718 0.0
C900 C 0.95519 0.14239 0.00524 0.0
C901 C 0.96944 0.13061 0.9921 0.0
C902 C 0.00808 0.10139 0.98312 0.0
C903 C 0.03732 0.05376 0.95769 0.0
C904 C 0.01969 0.06881 0.96411 0.0
C905 C 0.96903 0.1078 0.99211 0.0
C906 C 0.98623 0.09523 0.98087 0.0
H907 H 0.05354 0.02158 0.91573 0.0
H908 H 0.02496 0.04756 0.92536 0.0
H909 H 0.04135 0.09314 0.97739 0.0
H910 H 0.92779 0.1 0.02806 0.0
H911 H 0.95267 0.07947 0.00513 0.0
C912 C 0.48318 0.00047 0.64194 0.0
C913 C 0.47984 0.02164 0.63409 0.0
C914 C 0.494 0.98506 0.62927 0.0
C915 C 0.50493 0.97279 0.57207 0.0
H916 H 0.54334 0.92871 0.59544 0.0
C917 C 0.56237 0.89883 0.53843 0.0
C918 C 0.54776 0.8893 0.5237 0.0
C919 C 0.55539 0.91505 0.55271 0.0
C920 C 0.53277 0.94101 0.58866 0.0
H921 H 0.4863 0.04356 0.60728 0.0
H922 H 0.50535 0.01675 0.58532 0.0
H923 H 0.53018 0.95783 0.61901 0.0
H924 H 0.51424 0.88889 0.51286 0.0
H925 H 0.50209 0.91699 0.53781 0.0
H926 H 0.50752 0.95613 0.54175 0.0
C927 C 0.49924 0.01195 0.60109 0.0
C928 C 0.5251 0.95757 0.60218 0.0
C929 C 0.48842 0.02734 0.61374 0.0
C930 C 0.52595 0.89597 0.52389 0.0
C931 C 0.51901 0.91219 0.5381 0.0
C932 C 0.51252 0.95625 0.55861 0.0
C933 C 0.50172 0.9905 0.6085 0.0
C934 C 0.51098 0.97357 0.59405 0.0
C935 C 0.53369 0.9221 0.55248 0.0
C936 C 0.52635 0.94005 0.56678 0.0
H937 H 0.47681 0.99555 0.65757 0.0
H938 H 0.4955 0.96864 0.63538 0.0
H939 H 0.49387 0.98469 0.56535 0.0
H940 H 0.57929 0.89403 0.53869 0.0
H941 H 0.5671 0.92247 0.56352 0.0
C942 C 0.63967 0.0985 0.88874 0.0
C943 C 0.62005 0.11017 0.88923 0.0
C944 C 0.64064 0.07805 0.87892 0.0
C945 C 0.60942 0.03921 0.84446 0.0
H946 H 0.63306 0.99596 0.88362 0.0
C947 C 0.58699 0.94981 0.83392 0.0
C948 C 0.57871 0.94066 0.85312 0.0
C949 C 0.59941 0.9688 0.83466 0.0
C950 C 0.62654 0.00782 0.87239 0.0
H951 H 0.58657 0.11033 0.87832 0.0
H952 H 0.58817 0.07474 0.86151 0.0
H953 H 0.64032 0.03426 0.89013 0.0
H954 H 0.57862 0.94313 0.88825 0.0
H955 H 0.59987 0.97627 0.88953 0.0
H956 H 0.59422 0.01294 0.82772 0.0
C957 C 0.60288 0.08132 0.86854 0.0
C958 C 0.63091 0.02979 0.87598 0.0
C959 C 0.6019 0.1017 0.87836 0.0
C960 C 0.5846 0.94986 0.87314 0.0
C961 C 0.59697 0.96882 0.87387 0.0
C962 C 0.60499 0.01726 0.84093 0.0
C963 C 0.62205 0.06894 0.86933 0.0
C964 C 0.62161 0.04578 0.86259 0.0
C965 C 0.60381 0.97898 0.85461 0.0
C966 C 0.61273 0.00139 0.85541 0.0
H967 H 0.65402 0.10467 0.89683 0.0
H968 H 0.65573 0.06904 0.87953 0.0
H969 H 0.60234 0.05112 0.83363 0.0
H970 H 0.58295 0.94298 0.81823 0.0
H971 H 0.60476 0.97603 0.81955 0.0
C972 C 0.42694 0.55529 0.80119 0.0
C973 C 0.43124 0.56781 0.81977 0.0
C974 C 0.41654 0.53521 0.80304 0.0
C975 C 0.38931 0.49751 0.84208 0.0
H976 H 0.42598 0.45443 0.81444 0.0
C977 C 0.38534 0.40649 0.86496 0.0
C978 C 0.40579 0.39771 0.87007 0.0
C979 C 0.38374 0.42644 0.85422 0.0
C980 C 0.41546 0.46624 0.82213 0.0
H981 H 0.42573 0.57029 0.85448 0.0
H982 H 0.40794 0.5353 0.85774 0.0
H983 H 0.42936 0.49237 0.80416 0.0
H984 H 0.44055 0.40248 0.86711 0.0
H985 H 0.43778 0.43714 0.84847 0.0
H986 H 0.3765 0.47139 0.8611 0.0
C987 C 0.41252 0.54087 0.8417 0.0
C988 C 0.41718 0.48799 0.81605 0.0
C989 C 0.42287 0.56094 0.83985 0.0
C990 C 0.42456 0.40882 0.86347 0.0
C991 C 0.42296 0.42863 0.85262 0.0
C992 C 0.38758 0.4757 0.84816 0.0
C993 C 0.41024 0.52729 0.8235 0.0
C994 C 0.40472 0.504 0.82653 0.0
C995 C 0.40256 0.43784 0.84819 0.0
C996 C 0.40126 0.45999 0.83883 0.0
H997 H 0.43292 0.56025 0.78541 0.0
H998 H 0.41458 0.52531 0.78863 0.0
H999 H 0.3793 0.50942 0.85027 0.0
H1000 H 0.37057 0.39828 0.86982 0.0
H1001 H 0.36781 0.43311 0.85091 0.0
C1002 C 0.91214 0.09211 0.12986 0.0
C1003 C 0.92982 0.10413 0.12187 0.0
C1004 C 0.91561 0.07401 0.14314 0.0
C1005 C 0.95717 0.04635 0.17687 0.0
H1006 H 0.9277 0.99363 0.15908 0.0
C1007 C 0.97568 0.95004 0.17728 0.0
C1008 C 0.98361 0.94731 0.1985 0.0
C1009 C 0.9649 0.96908 0.17139 0.0
C1010 C 0.93597 0.00824 0.16431 0.0
H1011 H 0.96491 0.10722 0.12235 0.0
H1012 H 0.97092 0.07573 0.14534 0.0
H1013 H 0.91738 0.02827 0.14287 0.0
H1014 H 0.98541 0.96196 0.23048 0.0
H1015 H 0.96649 0.99522 0.22015 0.0
H1016 H 0.97654 0.02622 0.19745 0.0
C1017 C 0.95438 0.08029 0.1415 0.0
C1018 C 0.92992 0.02811 0.1552 0.0
C1019 C 0.95093 0.09826 0.12816 0.0
C1020 C 0.97961 0.96361 0.21396 0.0
C1021 C 0.96886 0.9827 0.20804 0.0
C1022 C 0.9632 0.0265 0.18601 0.0
C1023 C 0.9368 0.06772 0.14882 0.0
C1024 C 0.94088 0.04729 0.16093 0.0
C1025 C 0.96182 0.98584 0.18656 0.0
C1026 C 0.95309 0.00714 0.17938 0.0
H1027 H 0.89566 0.09626 0.12534 0.0
H1028 H 0.90173 0.06474 0.1487 0.0
H1029 H 0.96573 0.0609 0.18181 0.0
H1030 H 0.97843 0.93778 0.16498 0.0
H1031 H 0.95991 0.97106 0.15465 0.0
C1032 C 0.09954 0.19819 0.35778 0.0
C1033 C 0.08853 0.18088 0.34782 0.0
C1034 C 0.09408 0.21964 0.35279 0.0
C1035 C 0.06295 0.25493 0.31514 0.0
H1036 H 0.04846 0.28623 0.36776 0.0
C1037 C 0.00091 0.32524 0.31752 0.0
C1038 C 0.00335 0.34139 0.3334 0.0
C1039 C 0.01537 0.30774 0.31666 0.0
C1040 C 0.05284 0.27807 0.35282 0.0
H1041 H 0.06455 0.17244 0.32342 0.0
H1042 H 0.05502 0.20981 0.31479 0.0
H1043 H 0.06777 0.25208 0.37021 0.0
H1044 H 0.02367 0.35287 0.35975 0.0
H1045 H 0.04928 0.32291 0.35776 0.0
H1046 H 0.04759 0.28084 0.29777 0.0
C1047 C 0.06783 0.20686 0.32646 0.0
C1048 C 0.06393 0.25841 0.35426 0.0
C1049 C 0.0732 0.18543 0.33154 0.0
C1050 C 0.02117 0.34042 0.34757 0.0
C1051 C 0.0358 0.32318 0.34648 0.0
C1052 C 0.05198 0.27477 0.31367 0.0
C1053 C 0.07763 0.22415 0.33763 0.0
C1054 C 0.06873 0.24641 0.3355 0.0
C1055 C 0.03272 0.30626 0.33148 0.0
C1056 C 0.0464 0.28637 0.33254 0.0
H1057 H 0.11156 0.19524 0.37028 0.0
H1058 H 0.10209 0.23269 0.36143 0.0
H1059 H 0.06657 0.24606 0.3004 0.0
H1060 H 0.9873 0.3256 0.30639 0.0
H1061 H 0.01233 0.29492 0.30502 0.0
C1062 C 0.9322 0.67609 0.20331 0.0
C1063 C 0.94836 0.66057 0.19903 0.0
C1064 C 0.93779 0.69653 0.21143 0.0
C1065 C 0.98296 0.72871 0.23539 0.0
H1066 H 0.9583 0.77549 0.20128 0.0
C1067 C 0.02596 0.81033 0.22129 0.0
C1068 C 0.01338 0.82912 0.21835 0.0
C1069 C 0.01597 0.79024 0.22459 0.0
C1070 C 0.96503 0.76275 0.21135 0.0
H1071 H 0.98287 0.65379 0.2012 0.0
H1072 H 0.99261 0.68944 0.21503 0.0
H1073 H 0.94407 0.73898 0.19732 0.0
H1074 H 0.98053 0.84186 0.2181 0.0
H1075 H 0.96314 0.80685 0.22415 0.0
H1076 H 0.00449 0.7525 0.24881 0.0
C1077 C 0.97562 0.68584 0.21231 0.0
C1078 C 0.95684 0.74177 0.20908 0.0
C1079 C 0.97004 0.66544 0.20419 0.0
C1080 C 0.99067 0.82762 0.22002 0.0
C1081 C 0.9807 0.80756 0.22342 0.0
C1082 C 0.99115 0.74975 0.2377 0.0
C1083 C 0.95963 0.7018 0.21546 0.0
C1084 C 0.96609 0.72442 0.22063 0.0
C1085 C 0.99321 0.78855 0.22513 0.0
C1086 C 0.98264 0.7669 0.22527 0.0
H1087 H 0.91532 0.67276 0.19969 0.0
H1088 H 0.92509 0.70841 0.21397 0.0
H1089 H 0.99021 0.7157 0.24474 0.0
H1090 H 0.04349 0.81096 0.22016 0.0
H1091 H 0.02609 0.7759 0.22562 0.0
C1092 C 0.32817 0.00309 0.14824 0.0
C1093 C 0.34488 0.0164 0.14023 0.0
C1094 C 0.32182 0.00441 0.16997 0.0
C1095 C 0.32501 0.03867 0.21922 0.0
H1096 H 0.32293 0.98363 0.24967 0.0
C1097 C 0.33894 0.03052 0.31108 0.0
C1098 C 0.32903 0.01339 0.32241 0.0
C1099 C 0.33576 0.0329 0.28877 0.0
C1100 C 0.32291 -0.00084 0.24142 0.0
H1101 H 0.36749 0.04212 0.14855 0.0
H1102 H 0.35649 0.04431 0.18649 0.0
H1103 H 0.32692 0.98403 0.21046 0.0
H1104 H 0.30661 0.98637 0.31957 0.0
H1105 H 0.30069 0.99081 0.2807 0.0
H1106 H 0.32149 0.0538 0.25031 0.0
C1107 C 0.34819 0.03296 0.17593 0.0
C1108 C 0.32527 -0.00064 0.2189 0.0
C1109 C 0.35462 0.03157 0.15423 0.0
C1110 C 0.31469 -0.00042 0.31125 0.0
C1111 C 0.31139 0.00205 0.28895 0.0
C1112 C 0.32253 0.03847 0.24177 0.0
C1113 C 0.33197 0.01915 0.1841 0.0
C1114 C 0.32684 0.01911 0.20762 0.0
C1115 C 0.32246 0.01829 0.27732 0.0
C1116 C 0.32197 0.0187 0.2532 0.0
H1117 H 0.32025 0.99132 0.13784 0.0
H1118 H 0.30913 0.99371 0.17578 0.0
H1119 H 0.32586 0.05413 0.21089 0.0
H1120 H 0.35005 0.04147 0.3192 0.0
H1121 H 0.34471 0.04547 0.28034 0.0
C1122 C 0.63584 0.49082 0.15321 0.0
C1123 C 0.63375 0.46927 0.14605 0.0
C1124 C 0.64164 0.4953 0.17462 0.0
C1125 C 0.66558 0.4706 0.22406 0.0
H1126 H 0.63587 0.51817 0.25263 0.0
C1127 C 0.66108 0.48328 0.31711 0.0
C1128 C 0.66123 0.50476 0.32484 0.0
C1129 C 0.66179 0.47911 0.29483 0.0
C1130 C 0.64459 0.50506 0.24479 0.0
H1131 H 0.63609 0.43549 0.15571 0.0
H1132 H 0.64558 0.44332 0.19336 0.0
H1133 H 0.62812 0.51037 0.2148 0.0
H1134 H 0.66419 0.53858 0.3154 0.0
H1135 H 0.66554 0.53125 0.27658 0.0
H1136 H 0.6815 0.46497 0.25452 0.0
C1137 C 0.64321 0.45676 0.18227 0.0
C1138 C 0.64014 0.50057 0.22308 0.0
C1139 C 0.6376 0.45227 0.16075 0.0
C1140 C 0.66375 0.52187 0.30997 0.0
C1141 C 0.66444 0.51769 0.28773 0.0
C1142 C 0.66993 0.47502 0.2459 0.0
C1143 C 0.64525 0.47834 0.18946 0.0
C1144 C 0.65051 0.48325 0.21246 0.0
C1145 C 0.66267 0.49634 0.27992 0.0
C1146 C 0.65942 0.49228 0.25647 0.0
H1147 H 0.63324 0.50429 0.14221 0.0
H1148 H 0.64345 0.51209 0.17949 0.0
H1149 H 0.67407 0.45732 0.21627 0.0
H1150 H 0.65926 0.46973 0.32817 0.0
H1151 H 0.66035 0.46248 0.28927 0.0
C1152 C 0.30757 0.34399 0.91271 0.0
C1153 C 0.32656 0.33555 0.92211 0.0
C1154 C 0.2882 0.34453 0.92447 0.0
C1155 C 0.25989 0.32232 0.97237 0.0
H1156 H 0.23018 0.37782 0.97189 0.0
C1157 C 0.19073 0.343 0.03249 0.0
C1158 C 0.17301 0.35474 0.0242 0.0
C1159 C 0.20937 0.33991 0.0199 0.0
C1160 C 0.23808 0.36212 0.972 0.0
H1161 H 0.33984 0.31999 0.95081 0.0
H1162 H 0.30598 0.32093 0.97129 0.0
H1163 H 0.26215 0.37261 0.94931 0.0
H1164 H 0.16091 0.3723 0.99614 0.0
H1165 H 0.19312 0.3666 0.97417 0.0
H1166 H 0.23574 0.3118 0.99504 0.0
C1167 C 0.3061 0.32712 0.95483 0.0
C1168 C 0.2564 0.35914 0.95904 0.0
C1169 C 0.3255 0.32668 0.94312 0.0
C1170 C 0.17433 0.36332 0.00311 0.0
C1171 C 0.19286 0.36013 0.99051 0.0
C1172 C 0.24145 0.32526 0.98527 0.0
C1173 C 0.28739 0.33653 0.94582 0.0
C1174 C 0.2675 0.33923 0.95908 0.0
C1175 C 0.21062 0.34841 -0.00126 0.0
C1176 C 0.23034 0.34521 0.98523 0.0
H1177 H 0.30781 0.35085 0.89652 0.0
H1178 H 0.27393 0.35157 0.91699 0.0
H1179 H 0.26807 0.30675 0.97261 0.0
H1180 H 0.19023 0.33622 0.0487 0.0
H1181 H 0.22288 0.33105 0.02683 0.0
C1182 C 0.14724 0.66286 0.49723 0.0
C1183 C 0.13659 0.64357 0.50319 0.0
C1184 C 0.16973 0.66315 0.4943 0.0
C1185 C 0.21975 0.63219 0.50674 0.0
H1186 H 0.24291 0.66178 0.45621 0.0
C1187 C 0.30543 0.61536 0.47477 0.0
C1188 C 0.31829 0.63328 0.46892 0.0
C1189 C 0.28344 0.618 0.47939 0.0
C1190 C 0.2367 0.65367 0.47052 0.0
H1191 H 0.14122 0.60955 0.51106 0.0
H1192 H 0.18031 0.60998 0.50567 0.0
H1193 H 0.20415 0.66407 0.46422 0.0
H1194 H 0.318 0.66797 0.46282 0.0
H1195 H 0.27938 0.67255 0.47084 0.0
H1196 H 0.2522 0.62144 0.51279 0.0
C1197 C 0.17138 0.62497 0.50357 0.0
C1198 C 0.21453 0.65501 0.47515 0.0
C1199 C 0.14893 0.6247 0.50654 0.0
C1200 C 0.30853 0.65385 0.4673 0.0
C1201 C 0.28643 0.65647 0.47183 0.0
C1202 C 0.24186 0.63079 0.50207 0.0
C1203 C 0.18202 0.64415 0.49725 0.0
C1204 C 0.20577 0.64404 0.49316 0.0
C1205 C 0.27375 0.6386 0.47819 0.0
C1206 C 0.25051 0.64126 0.48375 0.0
H1207 H 0.13819 0.67771 0.49461 0.0
H1208 H 0.1775 0.67824 0.48971 0.0
H1209 H 0.21358 0.62391 0.52098 0.0
H1210 H 0.31238 0.59926 0.47609 0.0
H1211 H 0.27398 0.60387 0.48387 0.0
C1212 C 0.66136 0.84159 0.47661 0.0
C1213 C 0.651 0.84429 0.49676 0.0
C1214 C 0.68385 0.84368 0.47487 0.0
C1215 C 0.72929 0.87118 0.50111 0.0
H1216 H 0.76438 0.83508 0.46332 0.0
C1217 C 0.82111 0.88571 0.49036 0.0
C1218 C 0.82922 0.88427 0.46908 0.0
C1219 C 0.80005 0.87882 0.49513 0.0
C1220 C 0.75475 0.8454 0.47381 0.0
H1221 H 0.65622 0.85038 0.53106 0.0
H1222 H 0.69557 0.85403 0.52797 0.0
H1223 H 0.72633 0.82584 0.46948 0.0
H1224 H 0.82162 0.8744 0.43615 0.0
H1225 H 0.78474 0.86279 0.44438 0.0
H1226 H 0.75743 0.89109 0.50501 0.0
C1227 C 0.68621 0.85051 0.51351 0.0
C1228 C 0.733 0.84006 0.47738 0.0
C1229 C 0.6637 0.84831 0.51528 0.0
C1230 C 0.81587 0.87568 0.45271 0.0
C1231 C 0.79478 0.86887 0.45747 0.0
C1232 C 0.75099 0.87657 0.49748 0.0
C1233 C 0.69646 0.84859 0.49322 0.0
C1234 C 0.71998 0.85305 0.49087 0.0
C1235 C 0.7866 0.87042 0.47872 0.0
C1236 C 0.76391 0.86389 0.48357 0.0
H1237 H 0.65205 0.83842 0.46203 0.0
H1238 H 0.69125 0.84231 0.45898 0.0
H1239 H 0.71957 0.8817 0.51132 0.0
H1240 H 0.83104 0.89211 0.50338 0.0
H1241 H 0.79434 0.87996 0.51172 0.0
C1242 C 0.55074 0.82006 0.85327 0.0
C1243 C 0.54081 0.83839 0.84406 0.0
C1244 C 0.54893 0.7998 0.84326 0.0
C1245 C 0.51198 0.7703 0.80709 0.0
H1246 H 0.55545 0.72519 0.81305 0.0
C1247 C 0.52461 0.67129 0.79614 0.0
C1248 C 0.50548 0.66454 0.80661 0.0
C1249 C 0.5295 0.69337 0.79427 0.0
C1250 C 0.54324 0.73765 0.81079 0.0
H1251 H 0.52244 0.85016 0.81639 0.0
H1252 H 0.51962 0.81487 0.79876 0.0
H1253 H 0.56489 0.76261 0.8215 0.0
H1254 H 0.47578 0.67566 0.82194 0.0
H1255 H 0.48443 0.71397 0.81903 0.0
H1256 H 0.49028 0.7453 0.7966 0.0
C1257 C 0.52836 0.81604 0.81397 0.0
C1258 C 0.54859 0.75907 0.81593 0.0
C1259 C 0.53005 0.83628 0.82404 0.0
C1260 C 0.4907 0.68031 0.81388 0.0
C1261 C 0.49561 0.70233 0.81205 0.0
C1262 C 0.50667 0.7489 0.80184 0.0
C1263 C 0.53729 0.79747 0.82375 0.0
C1264 C 0.53282 0.77551 0.81485 0.0
C1265 C 0.51536 0.70911 0.80283 0.0
C1266 C 0.52202 0.73222 0.80436 0.0
H1267 H 0.55916 0.82116 0.86866 0.0
H1268 H 0.55578 0.78581 0.85141 0.0
H1269 H 0.49937 0.78251 0.80617 0.0
H1270 H 0.53624 0.65953 0.79018 0.0
H1271 H 0.54468 0.69809 0.78676 0.0
C1272 C 0.53398 0.29711 0.65565 0.0
C1273 C 0.51947 0.31471 0.65552 0.0
C1274 C 0.52636 0.27596 0.65866 0.0
C1275 C 0.47947 0.24396 0.67814 0.0
H1276 H 0.5008 0.20072 0.63768 0.0
C1277 C 0.43701 0.1614 0.66501 0.0
C1278 C 0.45015 0.1431 0.66144 0.0
C1279 C 0.4462 0.1821 0.66621 0.0
C1280 C 0.49491 0.21248 0.64934 0.0
H1281 H 0.48569 0.32401 0.65924 0.0
H1282 H 0.47242 0.2871 0.66437 0.0
H1283 H 0.51579 0.23726 0.63689 0.0
H1284 H 0.48333 0.13211 0.65693 0.0
H1285 H 0.49936 0.16816 0.65934 0.0
H1286 H 0.45844 0.21919 0.69046 0.0
C1287 C 0.48969 0.28966 0.66227 0.0
C1288 C 0.50351 0.23343 0.64888 0.0
C1289 C 0.49729 0.3108 0.65919 0.0
C1290 C 0.47272 0.14589 0.65952 0.0
C1291 C 0.48191 0.16657 0.6608 0.0
C1292 C 0.4709 0.22296 0.67865 0.0
C1293 C 0.5041 0.27199 0.66169 0.0
C1294 C 0.49577 0.24945 0.66315 0.0
C1295 C 0.46874 0.18494 0.66395 0.0
C1296 C 0.47841 0.20703 0.66413 0.0
H1297 H 0.55118 0.29958 0.65298 0.0
H1298 H 0.53789 0.26268 0.65843 0.0
H1299 H 0.47337 0.25591 0.68951 0.0
H1300 H 0.41957 0.15979 0.66653 0.0
H1301 H 0.43557 0.19594 0.66838 0.0
C1302 C 0.83545 0.5221 0.83234 0.0
C1303 C 0.84565 0.50279 0.83896 0.0
C1304 C 0.82724 0.52414 0.81133 0.0
C1305 C 0.8114 0.4924 0.76274 0.0
H1306 H 0.82493 0.54575 0.73218 0.0
C1307 C 0.81534 0.49964 0.6698 0.0
C1308 C 0.80939 0.51939 0.66005 0.0
C1309 C 0.81476 0.49734 0.69232 0.0
C1310 C 0.82059 0.53092 0.74058 0.0
H1311 H 0.85501 0.47039 0.82882 0.0
H1312 H 0.84108 0.47411 0.792 0.0
H1313 H 0.83404 0.54239 0.77041 0.0
H1314 H 0.79661 0.55165 0.66612 0.0
H1315 H 0.79548 0.54756 0.70548 0.0
H1316 H 0.7986 0.48073 0.73259 0.0
C1317 C 0.83909 0.48754 0.80317 0.0
C1318 C 0.82585 0.52898 0.76251 0.0
C1319 C 0.84725 0.48548 0.82421 0.0
C1320 C 0.80152 0.5363 0.67316 0.0
C1321 C 0.80094 0.534 0.6957 0.0
C1322 C 0.80616 0.49434 0.74076 0.0
C1323 C 0.82912 0.50694 0.79646 0.0
C1324 C 0.82168 0.50957 0.77373 0.0
C1325 C 0.80819 0.51474 0.70553 0.0
C1326 C 0.81107 0.51348 0.72937 0.0
H1327 H 0.83379 0.53569 0.84338 0.0
H1328 H 0.81941 0.53919 0.80673 0.0
H1329 H 0.80765 0.47738 0.77106 0.0
H1330 H 0.82138 0.48625 0.66013 0.0
H1331 H 0.82059 0.48235 0.6994 0.0
C1332 C 0.17909 0.96262 0.68456 0.0
C1333 C 0.17122 0.94345 0.67499 0.0
C1334 C 0.17675 0.96614 0.70681 0.0
C1335 C 0.16401 0.93956 0.7592 0.0
H1336 H 0.14151 0.99644 0.77419 0.0
C1337 C 0.12704 0.95902 0.84326 0.0
C1338 C 0.1322 0.97927 0.85243 0.0
C1339 C 0.13301 0.95422 0.8219 0.0
C1340 C 0.14805 0.98057 0.77034 0.0
H1341 H 0.15585 0.91242 0.68147 0.0
H1342 H 0.15162 0.91866 0.72031 0.0
H1343 H 0.15111 0.98851 0.73673 0.0
H1344 H 0.14776 0.01031 0.84642 0.0
H1345 H 0.15829 0.00186 0.80931 0.0
H1346 H 0.16072 0.93161 0.79288 0.0
C1347 C 0.15968 0.93092 0.71061 0.0
C1348 C 0.1536 0.97604 0.74887 0.0
C1349 C 0.16203 0.92738 0.68833 0.0
C1350 C 0.14342 0.9946 0.83981 0.0
C1351 C 0.1494 0.98979 0.8185 0.0
C1352 C 0.15847 0.94411 0.78073 0.0
C1353 C 0.16649 0.95058 0.71998 0.0
C1354 C 0.16159 0.95548 0.74304 0.0
C1355 C 0.14425 0.96956 0.80929 0.0
C1356 C 0.15037 0.96466 0.78652 0.0
H1357 H 0.18643 0.97524 0.67477 0.0
H1358 H 0.18254 0.98127 0.71364 0.0
H1359 H 0.1703 0.92363 0.75522 0.0
H1360 H 0.1184 0.94686 0.85257 0.0
H1361 H 0.12857 0.93859 0.81518 0.0
C1362 C 0.83079 0.16917 0.06375 0.0
C1363 C 0.84789 0.17989 0.05313 0.0
C1364 C 0.80937 0.1722 0.05701 0.0
C1365 C 0.77331 0.20639 0.02273 0.0
H1366 H 0.74108 0.15267 0.01645 0.0
C1367 C 0.68447 0.20145 0.99024 0.0
C1368 C 0.68049 0.18461 0.97534 0.0
C1369 C 0.70433 0.20262 0.00125 0.0
C1370 C 0.74987 0.16782 0.01807 0.0
H1371 H 0.85582 0.20301 0.02777 0.0
H1372 H 0.81846 0.20797 0.01574 0.0
H1373 H 0.77657 0.15217 0.03362 0.0
H1374 H 0.6945 0.15617 0.95989 0.0
H1375 H 0.72893 0.15832 0.97891 0.0
H1376 H 0.7467 0.22184 0.00639 0.0
C1377 C 0.82157 0.19743 0.02946 0.0
C1378 C 0.77011 0.16759 0.02817 0.0
C1379 C 0.84302 0.19447 0.03627 0.0
C1380 C 0.69692 0.16928 0.97136 0.0
C1381 C 0.71664 0.17042 0.98237 0.0
C1382 C 0.75295 0.20663 0.01262 0.0
C1383 C 0.80456 0.18592 0.03942 0.0
C1384 C 0.78223 0.1868 0.03037 0.0
C1385 C 0.72048 0.1869 0.99764 0.0
C1386 C 0.74123 0.18725 0.00985 0.0
H1387 H 0.83397 0.15802 0.07697 0.0
H1388 H 0.79658 0.16342 0.0653 0.0
H1389 H 0.78216 0.2215 0.02435 0.0
H1390 H 0.67215 0.21352 0.99364 0.0
H1391 H 0.70685 0.21549 0.01297 0.0
C1392 C 0.10025 0.93025 0.21952 0.0
C1393 C 0.08112 0.92012 0.22679 0.0
C1394 C 0.11046 0.94599 0.23233 0.0
C1395 C 0.11228 0.96974 0.28757 0.0
H1396 H 0.11667 0.02496 0.25762 0.0
C1397 C 0.09573 0.05008 0.32952 0.0
C1398 C 0.10716 0.06894 0.32368 0.0
C1399 C 0.09938 0.03058 0.31871 0.0
C1400 C 0.11612 0.00962 0.26619 0.0
H1401 H 0.05863 0.91728 0.2537 0.0
H1402 H 0.07652 0.94447 0.27607 0.0
H1403 H 0.11141 0.99173 0.23678 0.0
H1404 H 0.13185 0.08197 0.30224 0.0
H1405 H 0.13813 0.04764 0.28307 0.0
H1406 H 0.116 0.98772 0.31704 0.0
C1407 C 0.08363 0.94037 0.26051 0.0
C1408 C 0.11309 0.99056 0.25424 0.0
C1409 C 0.07328 0.9249 0.24764 0.0
C1410 C 0.12275 0.06772 0.30706 0.0
C1411 C 0.12632 0.04811 0.29608 0.0
C1412 C 0.11541 0.98875 0.2995 0.0
C1413 C 0.10193 0.95156 0.25273 0.0
C1414 C 0.11021 0.97059 0.26489 0.0
C1415 C 0.11453 0.02937 0.30172 0.0
C1416 C 0.11635 0.009 0.28899 0.0
H1417 H 0.10666 0.9269 0.2035 0.0
H1418 H 0.12461 0.95431 0.226 0.0
H1419 H 0.11046 0.9545 0.29615 0.0
H1420 H 0.08365 0.05038 0.3423 0.0
H1421 H 0.0897 0.0166 0.3232 0.0
C1422 C 0.91599 0.40795 0.28944 0.0
C1423 C 0.92373 0.414 0.31003 0.0
C1424 C 0.90812 0.42376 0.27508 0.0
C1425 C 0.88967 0.48113 0.27216 0.0
H1426 H 0.92064 0.48257 0.21743 0.0
C1427 C 0.91618 0.55964 0.23112 0.0
C1428 C 0.9183 0.56062 0.20845 0.0
C1429 C 0.90914 0.54061 0.24118 0.0
C1430 C 0.91136 0.48224 0.23235 0.0
H1431 H 0.92809 0.44101 0.33224 0.0
H1432 H 0.91435 0.46831 0.30745 0.0
H1433 H 0.92189 0.44995 0.2397 0.0
H1434 H 0.91318 0.54287 0.17843 0.0
H1435 H 0.90085 0.50959 0.19608 0.0
H1436 H 0.88007 0.51383 0.26535 0.0
C1437 C 0.91431 0.4515 0.30227 0.0
C1438 C 0.91208 0.4635 0.24512 0.0
C1439 C 0.92242 0.43586 0.3164 0.0
C1440 C 0.91189 0.54259 0.19596 0.0
C1441 C 0.9049 0.5235 0.20605 0.0
C1442 C 0.8889 0.49984 0.25939 0.0
C1443 C 0.90747 0.44573 0.28131 0.0
C1444 C 0.90207 0.46314 0.2656 0.0
C1445 C 0.90406 0.5221 0.22881 0.0
C1446 C 0.90056 0.50093 0.23981 0.0
H1447 H 0.9168 0.3912 0.28415 0.0
H1448 H 0.90294 0.4189 0.259 0.0
H1449 H 0.8815 0.48114 0.28774 0.0
H1450 H 0.92087 0.57327 0.2412 0.0
H1451 H 0.90892 0.54004 0.25875 0.0
C1452 C 0.17372 0.03391 0.94973 0.0
C1453 C 0.16814 0.01249 0.94418 0.0
C1454 C 0.19343 0.03835 0.9601 0.0
C1455 C 0.24787 0.0154 0.97043 0.0
H1456 H 0.24753 0.05288 0.02102 0.0
C1457 C 0.3176 0.01597 0.03235 0.0
C1458 C 0.32388 0.03588 0.04157 0.0
C1459 C 0.29934 0.01471 0.01901 0.0
C1460 C 0.24799 0.04266 0.00672 0.0
H1461 H 0.17901 0.97897 0.94488 0.0
H1462 H 0.21324 0.98671 0.96296 0.0
H1463 H 0.21428 0.04793 7e-05 0.0
H1464 H 0.31605 0.07014 0.04377 0.0
H1465 H 0.28419 0.06795 0.02027 0.0
H1466 H 0.28148 0.00991 0.97718 0.0
C1467 C 0.20251 0.00011 0.95916 0.0
C1468 C 0.22893 0.03982 0.99473 0.0
C1469 C 0.1828 0.99566 0.94891 0.0
C1470 C 0.3116 0.05455 0.03697 0.0
C1471 C 0.29329 0.05328 0.02359 0.0
C1472 C 0.26692 0.01828 0.98237 0.0
C1473 C 0.208 0.02147 0.96498 0.0
C1474 C 0.22859 0.02588 0.97667 0.0
C1475 C 0.28692 0.03332 0.01451 0.0
C1476 C 0.26712 0.03165 0.00086 0.0
H1477 H 0.16279 0.04724 0.94629 0.0
H1478 H 0.19731 0.05499 0.96424 0.0
H1479 H 0.2482 0.00486 0.95636 0.0
H1480 H 0.32665 0.00125 0.03559 0.0
H1481 H 0.29469 -0.00098 0.01257 0.0
C1482 C 0.69033 0.46492 0.05073 0.0
C1483 C 0.67648 0.44684 0.05182 0.0
C1484 C 0.70964 0.46389 0.03902 0.0
C1485 C 0.73361 0.43698 0.99244 0.0
H1486 H 0.78546 0.46697 0.01187 0.0
C1487 C 0.80876 0.4516 0.93714 0.0
C1488 C 0.81638 0.47312 0.93749 0.0
C1489 C 0.79346 0.44458 0.95241 0.0
C1490 C 0.77111 0.4585 0.00624 0.0
H1491 H 0.67228 0.41328 0.04202 0.0
H1492 H 0.70616 0.41157 0.02124 0.0
H1493 H 0.75571 0.46086 0.03726 0.0
H1494 H 0.81388 0.50414 0.95408 0.0
H1495 H 0.78729 0.49195 0.98045 0.0
H1496 H 0.74875 0.43538 0.96116 0.0
C1497 C 0.70196 0.4265 0.02952 0.0
C1498 C 0.75412 0.45498 0.02076 0.0
C1499 C 0.68265 0.42747 0.04147 0.0
C1500 C 0.8084 0.48744 0.95335 0.0
C1501 C 0.79329 0.48041 0.96862 0.0
C1502 C 0.75066 0.44051 0.97787 0.0
C1503 C 0.7155 0.44481 0.02801 0.0
C1504 C 0.73491 0.44486 0.01382 0.0
C1505 C 0.78572 0.45891 0.96839 0.0
C1506 C 0.76924 0.45198 0.98447 0.0
H1507 H 0.68607 0.48007 0.05859 0.0
H1508 H 0.71957 0.47836 0.03791 0.0
H1509 H 0.71893 0.42926 0.9866 0.0
H1510 H 0.81462 0.44018 0.92513 0.0
H1511 H 0.78788 0.42791 0.95189 0.0
C1512 C 0.33823 0.93117 0.44931 0.0
C1513 C 0.32668 0.93892 0.43121 0.0
C1514 C 0.32723 0.92258 0.46716 0.0
C1515 C 0.27388 0.90318 0.48718 0.0
H1516 H 0.29086 0.93258 0.54018 0.0
C1517 C 0.21484 0.9202 0.55678 0.0
C1518 C 0.22264 0.9228 0.57807 0.0
C1519 C 0.22901 0.91533 0.53983 0.0
C1520 C 0.28616 0.9237 0.52576 0.0
H1521 H 0.29463 0.94228 0.41701 0.0
H1522 H 0.27542 0.92736 0.44826 0.0
H1523 H 0.31315 0.93621 0.50796 0.0
H1524 H 0.25119 0.92047 0.59854 0.0
H1525 H 0.27595 0.91148 0.56892 0.0
H1526 H 0.24652 0.89115 0.5049 0.0
C1527 C 0.29299 0.92786 0.4486 0.0
C1528 C 0.29896 0.92586 0.5072 0.0
C1529 C 0.304 0.93652 0.43073 0.0
C1530 C 0.2447 0.91882 0.58228 0.0
C1531 C 0.2589 0.91379 0.56528 0.0
C1532 C 0.26114 0.90086 0.50583 0.0
C1533 C 0.30447 0.92147 0.46727 0.0
C1534 C 0.29263 0.91616 0.48756 0.0
C1535 C 0.25135 0.91277 0.54373 0.0
C1536 C 0.26676 0.91169 0.52516 0.0
H1537 H 0.35574 0.93256 0.45012 0.0
H1538 H 0.33651 0.91749 0.48121 0.0
H1539 H 0.26878 0.89528 0.47232 0.0
H1540 H 0.19791 0.92303 0.55295 0.0
H1541 H 0.22257 0.91491 0.52348 0.0
C1542 C 0.77529 0.5489 0.55475 0.0
C1543 C 0.79658 0.55685 0.55294 0.0
C1544 C 0.75918 0.55587 0.54048 0.0
C1545 C 0.7535 0.57604 0.48504 0.0
H1546 H 0.69257 0.57574 0.50086 0.0
C1547 C 0.68427 0.57039 0.42148 0.0
C1548 C 0.67224 0.55136 0.42517 0.0
C1549 C 0.69805 0.57852 0.43766 0.0
C1550 C 0.70953 0.57624 0.49624 0.0
H1551 H 0.81738 0.5793 0.5355 0.0
H1552 H 0.78908 0.59161 0.51058 0.0
H1553 H 0.72016 0.57725 0.52926 0.0
H1554 H 0.66417 0.5266 0.44886 0.0
H1555 H 0.68769 0.541 0.47709 0.0
H1556 H 0.74274 0.57413 0.45202 0.0
C1557 C 0.78498 0.57975 0.52289 0.0
C1558 C 0.72533 0.57695 0.51246 0.0
C1559 C 0.80116 0.57274 0.5372 0.0
C1560 C 0.67338 0.54122 0.44553 0.0
C1561 C 0.68668 0.54957 0.46176 0.0
C1562 C 0.73767 0.57556 0.4688 0.0
C1563 C 0.76391 0.57103 0.52408 0.0
C1564 C 0.74748 0.57573 0.50708 0.0
C1565 C 0.69943 0.56804 0.45788 0.0
C1566 C 0.71559 0.57459 0.47434 0.0
H1567 H 0.77119 0.53669 0.56672 0.0
H1568 H 0.74326 0.54851 0.54168 0.0
H1569 H 0.77039 0.57497 0.4803 0.0
H1570 H 0.68367 0.57846 0.40587 0.0
H1571 H 0.70785 0.59273 0.43431 0.0
C1572 C 0.08091 0.31464 0.1045 0.0
C1573 C 0.08705 0.31784 0.08275 0.0
C1574 C 0.06687 0.29767 0.1101 0.0
C1575 C 0.04243 0.24662 0.08918 0.0
H1576 H 0.99248 0.26341 0.12367 0.0
C1577 C 0.96099 0.20324 0.08188 0.0
C1578 C 0.9497 0.19777 0.10094 0.0
C1579 C 0.9793 0.21648 0.08274 0.0
C1580 C 0.00649 0.25837 0.11433 0.0
H1581 H 0.08426 0.30506 0.05004 0.0
H1582 H 0.05986 0.2757 0.05974 0.0
H1583 H 0.02314 0.28833 0.12009 0.0
H1584 H 0.94848 0.20244 0.13583 0.0
H1585 H 0.98053 0.22602 0.13724 0.0
H1586 H 0.0254 0.21705 0.0827 0.0
C1587 C 0.06591 0.28613 0.07254 0.0
C1588 C 0.02409 0.27259 0.11232 0.0
C1589 C 0.07981 0.30308 0.06694 0.0
C1590 C 0.95684 0.20635 0.12086 0.0
C1591 C 0.97514 0.21983 0.12169 0.0
C1592 C 0.02484 0.23249 0.09111 0.0
C1593 C 0.05887 0.28351 0.09408 0.0
C1594 C 0.04196 0.26711 0.09919 0.0
C1595 C 0.98673 0.22471 0.10265 0.0
C1596 C 0.00644 0.23849 0.10317 0.0
H1597 H 0.08623 0.32574 0.11706 0.0
H1598 H 0.0619 0.29591 0.12687 0.0
H1599 H 0.05615 0.24175 0.07932 0.0
H1600 H 0.95594 0.19699 0.06624 0.0
H1601 H 0.98765 0.22033 0.06775 0.0
C1602 C 0.02814 0.71493 0.4694 0.0
C1603 C 0.0496 0.71836 0.4764 0.0
C1604 C 0.01528 0.73235 0.46275 0.0
C1605 C 0.01683 0.78982 0.44534 0.0
H1606 H 0.95906 0.79159 0.47029 0.0
C1607 C 0.96599 0.86817 0.4521 0.0
C1608 C 0.94326 0.86665 0.45077 0.0
C1609 C 0.97884 0.84952 0.45116 0.0
C1610 C 0.97496 0.7912 0.4628 0.0
H1611 H 0.07461 0.74269 0.48118 0.0
H1612 H 0.05204 0.77318 0.46974 0.0
H1613 H 0.9819 0.76001 0.47629 0.0
H1614 H 0.91628 0.84453 0.446 0.0
H1615 H 0.93875 0.81201 0.44393 0.0
H1616 H 0.00995 0.82125 0.43216 0.0
C1617 C 0.04525 0.75696 0.46924 0.0
C1618 C 0.98809 0.77309 0.46629 0.0
C1619 C 0.05813 0.73951 0.47592 0.0
C1620 C 0.93374 0.84622 0.44726 0.0
C1621 C 0.94661 0.82757 0.44622 0.0
C1622 C 0.00364 0.80796 0.44177 0.0
C1623 C 0.02357 0.7536 0.46294 0.0
C1624 C 0.00925 0.77229 0.45783 0.0
C1625 C 0.96926 0.82894 0.44876 0.0
C1626 C 0.98265 0.80897 0.4507 0.0
H1627 H 0.0211 0.69882 0.46941 0.0
H1628 H -0.00127 0.72921 0.45769 0.0
H1629 H 0.03298 0.78954 0.4384 0.0
H1630 H 0.97385 0.88366 0.45482 0.0
H1631 H 0.9962 0.85117 0.45338 0.0
C1632 C 0.5399 0.78391 0.52269 0.0
C1633 C 0.54778 0.79222 0.50296 0.0
C1634 C 0.52529 0.76652 0.52285 0.0
C1635 C 0.504 0.7219 0.48853 0.0
H1636 H 0.45384 0.72518 0.52645 0.0
C1637 C 0.4293 0.66781 0.47589 0.0
C1638 C 0.42018 0.6579 0.49432 0.0
C1639 C 0.44512 0.68386 0.47809 0.0
C1640 C 0.46789 0.72392 0.51596 0.0
H1641 H 0.5468 0.78853 0.46793 0.0
H1642 H 0.52127 0.75846 0.46821 0.0
H1643 H 0.48177 0.75327 0.52838 0.0
H1644 H 0.42014 0.65752 0.52953 0.0
H1645 H 0.44783 0.68571 0.53334 0.0
H1646 H 0.48997 0.69278 0.47586 0.0
C1647 C 0.52654 0.76515 0.48359 0.0
C1648 C 0.48392 0.73997 0.51709 0.0
C1649 C 0.54111 0.78249 0.48343 0.0
C1650 C 0.42684 0.66483 0.51502 0.0
C1651 C 0.44265 0.681 0.51721 0.0
C1652 C 0.48797 0.70594 0.48736 0.0
C1653 C 0.51831 0.75706 0.50328 0.0
C1654 C 0.50203 0.73927 0.50319 0.0
C1655 C 0.45216 0.69045 0.49875 0.0
C1656 C 0.46961 0.70692 0.50085 0.0
H1657 H 0.54475 0.79102 0.53802 0.0
H1658 H 0.51945 0.76048 0.53829 0.0
H1659 H 0.51795 0.72065 0.4779 0.0
H1660 H 0.42449 0.66293 0.45969 0.0
H1661 H 0.45187 0.69111 0.46356 0.0
C1662 C 0.51648 0.52718 0.82601 0.0
C1663 C 0.51511 0.54798 0.81672 0.0
C1664 C 0.52403 0.50962 0.81385 0.0
C1665 C 0.55268 0.49421 0.76318 0.0
H1666 H 0.51556 0.44345 0.76614 0.0
C1667 C 0.54663 0.43064 0.69494 0.0
C1668 C 0.54187 0.40898 0.70032 0.0
C1669 C 0.54803 0.44649 0.71109 0.0
C1670 C 0.52643 0.45725 0.7654 0.0
H1671 H 0.52155 0.56686 0.78771 0.0
H1672 H 0.53452 0.53611 0.76638 0.0
H1673 H 0.50944 0.4735 0.79088 0.0
H1674 H 0.53646 0.38667 0.72702 0.0
H1675 H 0.53926 0.41429 0.75525 0.0
H1676 H 0.56931 0.47808 0.73724 0.0
C1677 C 0.52994 0.53343 0.78314 0.0
C1678 C 0.52288 0.47454 0.7796 0.0
C1679 C 0.52239 0.55103 0.79532 0.0
C1680 C 0.53992 0.40325 0.72231 0.0
C1681 C 0.54141 0.4191 0.73848 0.0
C1682 C 0.55628 0.47686 0.74898 0.0
C1683 C 0.53037 0.51244 0.79213 0.0
C1684 C 0.53572 0.49336 0.77841 0.0
C1685 C 0.54481 0.44101 0.733 0.0
C1686 C 0.54293 0.45834 0.74968 0.0
H1687 H 0.51119 0.5243 0.84253 0.0
H1688 H 0.52451 0.49371 0.82134 0.0
H1689 H 0.56302 0.5084 0.76207 0.0
H1690 H 0.54828 0.43561 0.67815 0.0
H1691 H 0.55048 0.46321 0.70624 0.0
C1692 C 0.44993 0.92347 0.82544 0.0
C1693 C 0.46983 0.93038 0.83421 0.0
C1694 C 0.43729 0.93767 0.813 0.0
C1695 C 0.43022 0.99589 0.79884 0.0
H1696 H 0.41315 0.97374 0.74247 0.0
C1697 C 0.42591 0.04836 0.72266 0.0
C1698 C 0.41095 0.04338 0.70617 0.0
C1699 C 0.42683 0.03584 0.74149 0.0
C1700 C 0.41728 0.98013 0.75832 0.0
H1701 H 0.49166 0.95786 0.83754 0.0
H1702 H 0.4698 0.98244 0.81582 0.0
H1703 H 0.42655 0.94877 0.76998 0.0
H1704 H 0.38424 0.02228 0.69714 0.0
H1705 H 0.38591 0.00031 0.73016 0.0
H1706 H 0.42187 0.0274 0.78679 0.0
C1707 C 0.4638 0.96615 0.81866 0.0
C1708 C 0.425 0.9658 0.7741 0.0
C1709 C 0.47645 0.95197 0.83095 0.0
C1710 C 0.39601 0.02646 0.70951 0.0
C1711 C 0.39703 0.01381 0.72836 0.0
C1712 C 0.4225 0.01022 0.78307 0.0
C1713 C 0.44424 0.9591 0.80928 0.0
C1714 C 0.4323 0.97363 0.79424 0.0
C1715 C 0.41287 0.01801 0.74425 0.0
C1716 C 0.41669 0.00259 0.76237 0.0
H1717 H 0.44434 0.90695 0.82774 0.0
H1718 H 0.42222 0.93183 0.80607 0.0
H1719 H 0.43534 0.00234 0.81438 0.0
H1720 H 0.43756 0.06138 0.72064 0.0
H1721 H 0.43938 0.03939 0.75328 0.0
C1722 C 0.44023 0.28259 0.88979 0.0
C1723 C 0.43688 0.29901 0.87433 0.0
C1724 C 0.45823 0.26895 0.88838 0.0
C1725 C 0.51381 0.2687 0.86678 0.0
H1726 H 0.51328 0.21021 0.89004 0.0
C1727 C 0.5902 0.21295 0.87908 0.0
C1728 C 0.59169 0.2047 0.90033 0.0
C1729 C 0.57151 0.22404 0.87234 0.0
C1730 C 0.51363 0.2265 0.8834 0.0
H1731 H 0.44907 0.31304 0.84441 0.0
H1732 H 0.4804 0.28887 0.84174 0.0
H1733 H 0.47902 0.22874 0.88301 0.0
H1734 H 0.57501 0.20226 0.93132 0.0
H1735 H 0.54255 0.22125 0.91943 0.0
H1736 H 0.54859 0.26631 0.86744 0.0
C1737 C 0.46929 0.28688 0.85521 0.0
C1738 C 0.49405 0.23714 0.87944 0.0
C1739 C 0.45124 0.30061 0.85666 0.0
C1740 C 0.57444 0.20835 0.91483 0.0
C1741 C 0.55575 0.21907 0.90801 0.0
C1742 C 0.53345 0.2579 0.8705 0.0
C1743 C 0.4733 0.27127 0.87139 0.0
C1744 C 0.49389 0.25866 0.87182 0.0
C1745 C 0.55395 0.22669 0.88663 0.0
C1746 C 0.53348 0.23699 0.87953 0.0
H1747 H 0.42949 0.28087 0.90362 0.0
H1748 H 0.46088 0.25734 0.90131 0.0
H1749 H 0.51433 0.28533 0.86108 0.0
H1750 H 0.60322 0.21041 0.86755 0.0
H1751 H 0.57048 0.2299 0.85579 0.0
loop_
_geom_bond_atom_site_label_1
_geom_bond_atom_site_label_2
_geom_bond_distance
_geom_bond_site_symmetry_2
_ccdc_geom_bond_type
C0 O1 1.160 1_655 S
C0 O7 1.185 . S
O1 C0 1.160 1_455 S
O2 Zn3 1.899 . S
O2 C10 1.284 1_655 S
Zn3 O2 1.899 . S
Zn3 O4 2.032 1_655 S
Zn3 O7 2.086 . S
Zn3 O12 1.977 . S
O4 Zn3 2.032 1_455 S
O4 C8 1.278 . S
C5 O6 1.203 . S
C5 O12 1.267 . S
O6 C5 1.203 . S
O7 C0 1.185 . S
O7 Zn3 2.086 . S
C8 O4 1.278 . S
C8 O9 1.211 . S
O9 C8 1.211 . S
C10 O2 1.284 1_455 S
C10 O11 1.273 . S
O11 C10 1.273 . S
O12 Zn3 1.977 . S
O12 C5 1.267 . S
C13 O14 1.160 1_455 S
C13 O20 1.185 . S
O14 C13 1.160 1_655 S
O15 Zn16 1.899 . S
O15 C23 1.284 1_455 S
Zn16 O15 1.899 . S
Zn16 O17 2.032 1_455 S
Zn16 O20 2.086 . S
Zn16 O25 1.977 . S
O17 Zn16 2.032 1_655 S
O17 C21 1.278 . S
C18 O19 1.203 . S
C18 O25 1.267 . S
O19 C18 1.203 . S
O20 C13 1.185 . S
O20 Zn16 2.086 . S
C21 O17 1.278 . S
C21 O22 1.211 . S
O22 C21 1.211 . S
C23 O15 1.284 1_655 S
C23 O24 1.273 . S
O24 C23 1.273 . S
O25 Zn16 1.977 . S
O25 C18 1.267 . S
C26 O27 1.160 1_655 S
C26 O33 1.185 . S
O27 C26 1.160 1_455 S
O28 Zn29 1.899 . S
O28 C36 1.284 1_655 S
Zn29 O28 1.899 . S
Zn29 O30 2.032 1_655 S
Zn29 O33 2.086 . S
Zn29 O38 1.977 . S
O30 Zn29 2.032 1_455 S
O30 C34 1.278 . S
C31 O32 1.203 . S
C31 O38 1.267 . S
O32 C31 1.203 . S
O33 C26 1.185 . S
O33 Zn29 2.086 . S
C34 O30 1.278 . S
C34 O35 1.211 . S
O35 C34 1.211 . S
C36 O28 1.284 1_455 S
C36 O37 1.273 . S
O37 C36 1.273 . S
O38 Zn29 1.977 . S
O38 C31 1.267 . S
C39 O40 1.160 1_455 S
C39 O46 1.185 . S
O40 C39 1.160 1_655 S
O41 Zn42 1.899 . S
O41 C49 1.284 1_455 S
Zn42 O41 1.899 . S
Zn42 O43 2.032 1_455 S
Zn42 O46 2.086 . S
Zn42 O51 1.977 . S
O43 Zn42 2.032 1_655 S
O43 C47 1.278 . S
C44 O45 1.203 . S
C44 O51 1.267 . S
O45 C44 1.203 . S
O46 C39 1.185 . S
O46 Zn42 2.086 . S
C47 O43 1.278 . S
C47 O48 1.211 . S
O48 C47 1.211 . S
C49 O41 1.284 1_655 S
C49 O50 1.273 . S
O50 C49 1.273 . S
O51 Zn42 1.977 . S
O51 C44 1.267 . S
C52 O53 1.160 1_565 S
C52 O59 1.185 . S
O53 C52 1.160 1_545 S
O54 Zn55 1.899 . S
O54 C62 1.284 1_565 S
Zn55 O54 1.899 . S
Zn55 O56 2.032 1_565 S
Zn55 O59 2.086 . S
Zn55 O64 1.977 . S
O56 Zn55 2.032 1_545 S
O56 C60 1.278 . S
C57 O58 1.203 . S
C57 O64 1.267 . S
O58 C57 1.203 . S
O59 C52 1.185 . S
O59 Zn55 2.086 . S
C60 O56 1.278 . S
C60 O61 1.211 . S
O61 C60 1.211 . S
C62 O54 1.284 1_545 S
C62 O63 1.273 . S
O63 C62 1.273 . S
O64 Zn55 1.977 . S
O64 C57 1.267 . S
C65 O66 1.160 . S
C65 O72 1.185 . S
O66 C65 1.160 . S
O67 Zn68 1.899 . S
O67 C75 1.284 . S
Zn68 O67 1.899 . S
Zn68 O69 2.032 . S
Zn68 O72 2.086 . S
Zn68 O77 1.977 . S
O69 Zn68 2.032 . S
O69 C73 1.278 . S
C70 O71 1.203 . S
C70 O77 1.267 . S
O71 C70 1.203 . S
O72 C65 1.185 . S
O72 Zn68 2.086 . S
C73 O69 1.278 . S
C73 O74 1.211 . S
O74 C73 1.211 . S
C75 O67 1.284 . S
C75 O76 1.273 . S
O76 C75 1.273 . S
O77 Zn68 1.977 . S
O77 C70 1.267 . S
C78 O79 1.160 1_545 S
C78 O85 1.185 . S
O79 C78 1.160 1_565 S
O80 Zn81 1.899 . S
O80 C88 1.284 1_545 S
Zn81 O80 1.899 . S
Zn81 O82 2.032 1_545 S
Zn81 O85 2.086 . S
Zn81 O90 1.977 . S
O82 Zn81 2.032 1_565 S
O82 C86 1.278 . S
C83 O84 1.203 . S
C83 O90 1.267 . S
O84 C83 1.203 . S
O85 C78 1.185 . S
O85 Zn81 2.086 . S
C86 O82 1.278 . S
C86 O87 1.211 . S
O87 C86 1.211 . S
C88 O80 1.284 1_565 S
C88 O89 1.273 . S
O89 C88 1.273 . S
O90 Zn81 1.977 . S
O90 C83 1.267 . S
C91 O92 1.160 . S
C91 O98 1.185 . S
O92 C91 1.160 . S
O93 Zn94 1.899 . S
O93 C101 1.284 . S
Zn94 O93 1.899 . S
Zn94 O95 2.032 . S
Zn94 O98 2.086 . S
Zn94 O103 1.977 . S
O95 Zn94 2.032 . S
O95 C99 1.278 . S
C96 O97 1.203 . S
C96 O103 1.267 . S
O97 C96 1.203 . S
O98 C91 1.185 . S
O98 Zn94 2.086 . S
C99 O95 1.278 . S
C99 O100 1.211 . S
O100 C99 1.211 . S
C101 O93 1.284 . S
C101 O102 1.273 . S
O102 C101 1.273 . S
O103 Zn94 1.977 . S
O103 C96 1.267 . S
C104 O105 1.160 1_556 S
C104 O111 1.185 . S
O105 C104 1.160 1_554 S
O106 Zn107 1.899 . S
O106 C114 1.284 1_556 S
Zn107 O106 1.899 . S
Zn107 O108 2.032 1_556 S
Zn107 O111 2.086 . S
Zn107 O116 1.977 . S
O108 Zn107 2.032 1_554 S
O108 C112 1.278 . S
C109 O110 1.203 . S
C109 O116 1.267 . S
O110 C109 1.203 . S
O111 C104 1.185 . S
O111 Zn107 2.086 . S
C112 O108 1.278 . S
C112 O113 1.211 . S
O113 C112 1.211 . S
C114 O106 1.284 1_554 S
C114 O115 1.273 . S
O115 C114 1.273 . S
O116 Zn107 1.977 . S
O116 C109 1.267 . S
C117 O118 1.160 . S
C117 O124 1.185 . S
O118 C117 1.160 . S
O119 Zn120 1.899 . S
O119 C127 1.284 . S
Zn120 O119 1.899 . S
Zn120 O121 2.032 . S
Zn120 O124 2.086 . S
Zn120 O129 1.977 . S
O121 Zn120 2.032 . S
O121 C125 1.278 . S
C122 O123 1.203 . S
C122 O129 1.267 . S
O123 C122 1.203 . S
O124 C117 1.185 . S
O124 Zn120 2.086 . S
C125 O121 1.278 . S
C125 O126 1.211 . S
O126 C125 1.211 . S
C127 O119 1.284 . S
C127 O128 1.273 . S
O128 C127 1.273 . S
O129 Zn120 1.977 . S
O129 C122 1.267 . S
C130 O131 1.160 . S
C130 O137 1.185 . S
O131 C130 1.160 . S
O132 Zn133 1.899 . S
O132 C140 1.284 . S
Zn133 O132 1.899 . S
Zn133 O134 2.032 . S
Zn133 O137 2.086 . S
Zn133 O142 1.977 . S
O134 Zn133 2.032 . S
O134 C138 1.278 . S
C135 O136 1.203 . S
C135 O142 1.267 . S
O136 C135 1.203 . S
O137 C130 1.185 . S
O137 Zn133 2.086 . S
C138 O134 1.278 . S
C138 O139 1.211 . S
O139 C138 1.211 . S
C140 O132 1.284 . S
C140 O141 1.273 . S
O141 C140 1.273 . S
O142 Zn133 1.977 . S
O142 C135 1.267 . S
C143 O144 1.160 . S
C143 O150 1.185 . S
O144 C143 1.160 . S
O145 Zn146 1.899 . S
O145 C153 1.284 . S
Zn146 O145 1.899 . S
Zn146 O147 2.032 . S
Zn146 O150 2.086 . S
Zn146 O155 1.977 . S
O147 Zn146 2.032 . S
O147 C151 1.278 . S
C148 O149 1.203 . S
C148 O155 1.267 . S
O149 C148 1.203 . S
O150 C143 1.185 . S
O150 Zn146 2.086 . S
C151 O147 1.278 . S
C151 O152 1.211 . S
O152 C151 1.211 . S
C153 O145 1.284 . S
C153 O154 1.273 . S
O154 C153 1.273 . S
O155 Zn146 1.977 . S
O155 C148 1.267 . S
C156 O157 1.160 . S
C156 O163 1.185 . S
O157 C156 1.160 . S
O158 Zn159 1.899 . S
O158 C166 1.284 . S
Zn159 O158 1.899 . S
Zn159 O160 2.032 . S
Zn159 O163 2.086 . S
Zn159 O168 1.977 . S
O160 Zn159 2.032 . S
O160 C164 1.278 . S
C161 O162 1.203 . S
C161 O168 1.267 . S
O162 C161 1.203 . S
O163 C156 1.185 . S
O163 Zn159 2.086 . S
C164 O160 1.278 . S
C164 O165 1.211 . S
O165 C164 1.211 . S
C166 O158 1.284 . S
C166 O167 1.273 . S
O167 C166 1.273 . S
O168 Zn159 1.977 . S
O168 C161 1.267 . S
C169 O170 1.160 . S
C169 O176 1.185 . S
O170 C169 1.160 . S
O171 Zn172 1.899 . S
O171 C179 1.284 . S
Zn172 O171 1.899 . S
Zn172 O173 2.032 . S
Zn172 O176 2.086 . S
Zn172 O181 1.977 . S
O173 Zn172 2.032 . S
O173 C177 1.278 . S
C174 O175 1.203 . S
C174 O181 1.267 . S
O175 C174 1.203 . S
O176 C169 1.185 . S
O176 Zn172 2.086 . S
C177 O173 1.278 . S
C177 O178 1.211 . S
O178 C177 1.211 . S
C179 O171 1.284 . S
C179 O180 1.273 . S
O180 C179 1.273 . S
O181 Zn172 1.977 . S
O181 C174 1.267 . S
C182 O183 1.160 . S
C182 O189 1.185 . S
O183 C182 1.160 . S
O184 Zn185 1.899 . S
O184 C192 1.284 . S
Zn185 O184 1.899 . S
Zn185 O186 2.032 . S
Zn185 O189 2.086 . S
Zn185 O194 1.977 . S
O186 Zn185 2.032 . S
O186 C190 1.278 . S
C187 O188 1.203 . S
C187 O194 1.267 . S
O188 C187 1.203 . S
O189 C182 1.185 . S
O189 Zn185 2.086 . S
C190 O186 1.278 . S
C190 O191 1.211 . S
O191 C190 1.211 . S
C192 O184 1.284 . S
C192 O193 1.273 . S
O193 C192 1.273 . S
O194 Zn185 1.977 . S
O194 C187 1.267 . S
C195 O196 1.160 . S
C195 O202 1.185 . S
O196 C195 1.160 . S
O197 Zn198 1.899 . S
O197 C205 1.284 . S
Zn198 O197 1.899 . S
Zn198 O199 2.032 . S
Zn198 O202 2.086 . S
Zn198 O207 1.977 . S
O199 Zn198 2.032 . S
O199 C203 1.278 . S
C200 O201 1.203 . S
C200 O207 1.267 . S
O201 C200 1.203 . S
O202 C195 1.185 . S
O202 Zn198 2.086 . S
C203 O199 1.278 . S
C203 O204 1.211 . S
O204 C203 1.211 . S
C205 O197 1.284 . S
C205 O206 1.273 . S
O206 C205 1.273 . S
O207 Zn198 1.977 . S
O207 C200 1.267 . S
C208 O209 1.160 . S
C208 O215 1.185 . S
O209 C208 1.160 . S
O210 Zn211 1.899 . S
O210 C218 1.284 . S
Zn211 O210 1.899 . S
Zn211 O212 2.032 . S
Zn211 O215 2.086 . S
Zn211 O220 1.977 . S
O212 Zn211 2.032 . S
O212 C216 1.278 . S
C213 O214 1.203 . S
C213 O220 1.267 . S
O214 C213 1.203 . S
O215 C208 1.185 . S
O215 Zn211 2.086 . S
C216 O212 1.278 . S
C216 O217 1.211 . S
O217 C216 1.211 . S
C218 O210 1.284 . S
C218 O219 1.273 . S
O219 C218 1.273 . S
O220 Zn211 1.977 . S
O220 C213 1.267 . S
C221 O222 1.160 1_545 S
C221 O228 1.185 . S
O222 C221 1.160 1_565 S
O223 Zn224 1.899 . S
O223 C231 1.284 1_545 S
Zn224 O223 1.899 . S
Zn224 O225 2.032 1_545 S
Zn224 O228 2.086 . S
Zn224 O233 1.977 . S
O225 Zn224 2.032 1_565 S
O225 C229 1.278 . S
C226 O227 1.203 . S
C226 O233 1.267 . S
O227 C226 1.203 . S
O228 C221 1.185 . S
O228 Zn224 2.086 . S
C229 O225 1.278 . S
C229 O230 1.211 . S
O230 C229 1.211 . S
C231 O223 1.284 1_565 S
C231 O232 1.273 . S
O232 C231 1.273 . S
O233 Zn224 1.977 . S
O233 C226 1.267 . S
C234 O235 1.160 . S
C234 O241 1.185 . S
O235 C234 1.160 . S
O236 Zn237 1.899 . S
O236 C244 1.284 . S
Zn237 O236 1.899 . S
Zn237 O238 2.032 . S
Zn237 O241 2.086 . S
Zn237 O246 1.977 . S
O238 Zn237 2.032 . S
O238 C242 1.278 . S
C239 O240 1.203 . S
C239 O246 1.267 . S
O240 C239 1.203 . S
O241 C234 1.185 . S
O241 Zn237 2.086 . S
C242 O238 1.278 . S
C242 O243 1.211 . S
O243 C242 1.211 . S
C244 O236 1.284 . S
C244 O245 1.273 . S
O245 C244 1.273 . S
O246 Zn237 1.977 . S
O246 C239 1.267 . S
C247 O248 1.160 1_565 S
C247 O254 1.185 . S
O248 C247 1.160 1_545 S
O249 Zn250 1.899 . S
O249 C257 1.284 1_565 S
Zn250 O249 1.899 . S
Zn250 O251 2.032 1_565 S
Zn250 O254 2.086 . S
Zn250 O259 1.977 . S
O251 Zn250 2.032 1_545 S
O251 C255 1.278 . S
C252 O253 1.203 . S
C252 O259 1.267 . S
O253 C252 1.203 . S
O254 C247 1.185 . S
O254 Zn250 2.086 . S
C255 O251 1.278 . S
C255 O256 1.211 . S
O256 C255 1.211 . S
C257 O249 1.284 1_545 S
C257 O258 1.273 . S
O258 C257 1.273 . S
O259 Zn250 1.977 . S
O259 C252 1.267 . S
C260 O261 1.160 . S
C260 O267 1.185 . S
O261 C260 1.160 . S
O262 Zn263 1.899 . S
O262 C270 1.284 . S
Zn263 O262 1.899 . S
Zn263 O264 2.032 . S
Zn263 O267 2.086 . S
Zn263 O272 1.977 . S
O264 Zn263 2.032 . S
O264 C268 1.278 . S
C265 O266 1.203 . S
C265 O272 1.267 . S
O266 C265 1.203 . S
O267 C260 1.185 . S
O267 Zn263 2.086 . S
C268 O264 1.278 . S
C268 O269 1.211 . S
O269 C268 1.211 . S
C270 O262 1.284 . S
C270 O271 1.273 . S
O271 C270 1.273 . S
O272 Zn263 1.977 . S
O272 C265 1.267 . S
C273 O274 1.160 1_554 S
C273 O280 1.185 . S
O274 C273 1.160 1_556 S
O275 Zn276 1.899 . S
O275 C283 1.284 1_554 S
Zn276 O275 1.899 . S
Zn276 O277 2.032 1_554 S
Zn276 O280 2.086 . S
Zn276 O285 1.977 . S
O277 Zn276 2.032 1_556 S
O277 C281 1.278 . S
C278 O279 1.203 . S
C278 O285 1.267 . S
O279 C278 1.203 . S
O280 C273 1.185 . S
O280 Zn276 2.086 . S
C281 O277 1.278 . S
C281 O282 1.211 . S
O282 C281 1.211 . S
C283 O275 1.284 1_556 S
C283 O284 1.273 . S
O284 C283 1.273 . S
O285 Zn276 1.977 . S
O285 C278 1.267 . S
C286 O287 1.160 1_554 S
C286 O293 1.185 . S
O287 C286 1.160 1_556 S
O288 Zn289 1.899 . S
O288 C296 1.284 1_554 S
Zn289 O288 1.899 . S
Zn289 O290 2.032 1_554 S
Zn289 O293 2.086 . S
Zn289 O298 1.977 . S
O290 Zn289 2.032 1_556 S
O290 C294 1.278 . S
C291 O292 1.203 . S
C291 O298 1.267 . S
O292 C291 1.203 . S
O293 C286 1.185 . S
O293 Zn289 2.086 . S
C294 O290 1.278 . S
C294 O295 1.211 . S
O295 C294 1.211 . S
C296 O288 1.284 1_556 S
C296 O297 1.273 . S
O297 C296 1.273 . S
O298 Zn289 1.977 . S
O298 C291 1.267 . S
C299 O300 1.160 1_556 S
C299 O306 1.185 . S
O300 C299 1.160 1_554 S
O301 Zn302 1.899 . S
O301 C309 1.284 1_556 S
Zn302 O301 1.899 . S
Zn302 O303 2.032 1_556 S
Zn302 O306 2.086 . S
Zn302 O311 1.977 . S
O303 Zn302 2.032 1_554 S
O303 C307 1.278 . S
C304 O305 1.203 . S
C304 O311 1.267 . S
O305 C304 1.203 . S
O306 C299 1.185 . S
O306 Zn302 2.086 . S
C307 O303 1.278 . S
C307 O308 1.211 . S
O308 C307 1.211 . S
C309 O301 1.284 1_554 S
C309 O310 1.273 . S
O310 C309 1.273 . S
O311 Zn302 1.977 . S
O311 C304 1.267 . S
C312 C313 1.349 . S
C312 C314 1.327 . S
C312 H337 0.950 . S
C313 C312 1.349 . S
C313 C329 1.349 . S
C314 C312 1.327 . S
C314 C333 1.429 . S
C314 H338 0.950 . S
C315 C332 1.574 . S
C315 C334 1.368 . S
C315 H339 0.949 . S
H316 C320 0.949 . S
C317 C318 1.349 . S
C317 C319 1.327 . S
C317 H340 0.950 . S
C318 C317 1.349 . S
C318 C330 1.349 . S
C319 C317 1.327 . S
C319 C335 1.429 . S
C319 H341 0.950 . S
C320 H316 0.949 . S
C320 C328 1.574 . S
C320 C336 1.368 . S
H321 C329 0.950 . S
H322 C327 0.950 . S
H323 C328 0.949 . S
H324 C330 0.950 . S
H325 C331 0.950 . S
H326 C332 0.949 . S
C327 H322 0.950 . S
C327 C329 1.327 . S
C327 C333 1.429 . S
C328 C320 1.574 . S
C328 H323 0.949 . S
C328 C334 1.368 . S
C329 C313 1.349 . S
C329 H321 0.950 . S
C329 C327 1.327 . S
C330 C318 1.349 . S
C330 H324 0.950 . S
C330 C331 1.327 . S
C331 H325 0.950 . S
C331 C330 1.327 . S
C331 C335 1.429 . S
C332 C315 1.574 . S
C332 H326 0.949 . S
C332 C336 1.368 . S
C333 C314 1.429 . S
C333 C327 1.429 . S
C333 C334 1.523 . S
C334 C315 1.368 . S
C334 C328 1.368 . S
C334 C333 1.523 . S
C335 C319 1.429 . S
C335 C331 1.429 . S
C335 C336 1.523 . S
C336 C320 1.368 . S
C336 C332 1.368 . S
C336 C335 1.523 . S
H337 C312 0.950 . S
H338 C314 0.950 . S
H339 C315 0.949 . S
H340 C317 0.950 . S
H341 C319 0.950 . S
C342 C343 1.349 . S
C342 C344 1.327 . S
C342 H367 0.950 . S
C343 C342 1.349 . S
C343 C359 1.349 . S
C344 C342 1.327 . S
C344 C363 1.429 . S
C344 H368 0.950 . S
C345 C362 1.574 . S
C345 C364 1.368 . S
C345 H369 0.949 . S
H346 C350 0.949 . S
C347 C348 1.349 . S
C347 C349 1.327 . S
C347 H370 0.950 . S
C348 C347 1.349 . S
C348 C360 1.349 . S
C349 C347 1.327 . S
C349 C365 1.429 . S
C349 H371 0.950 . S
C350 H346 0.949 . S
C350 C358 1.574 . S
C350 C366 1.368 . S
H351 C359 0.950 . S
H352 C357 0.950 . S
H353 C358 0.949 . S
H354 C360 0.950 . S
H355 C361 0.950 . S
H356 C362 0.949 . S
C357 H352 0.950 . S
C357 C359 1.327 . S
C357 C363 1.429 . S
C358 C350 1.574 . S
C358 H353 0.949 . S
C358 C364 1.368 . S
C359 C343 1.349 . S
C359 H351 0.950 . S
C359 C357 1.327 . S
C360 C348 1.349 . S
C360 H354 0.950 . S
C360 C361 1.327 . S
C361 H355 0.950 . S
C361 C360 1.327 . S
C361 C365 1.429 . S
C362 C345 1.574 . S
C362 H356 0.949 . S
C362 C366 1.368 . S
C363 C344 1.429 . S
C363 C357 1.429 . S
C363 C364 1.523 . S
C364 C345 1.368 . S
C364 C358 1.368 . S
C364 C363 1.523 . S
C365 C349 1.429 . S
C365 C361 1.429 . S
C365 C366 1.523 . S
C366 C350 1.368 . S
C366 C362 1.368 . S
C366 C365 1.523 . S
H367 C342 0.950 . S
H368 C344 0.950 . S
H369 C345 0.949 . S
H370 C347 0.950 . S
H371 C349 0.950 . S
C372 C373 1.349 . S
C372 C374 1.327 . S
C372 H397 0.950 . S
C373 C372 1.349 . S
C373 C389 1.349 . S
C374 C372 1.327 . S
C374 C393 1.429 . S
C374 H398 0.950 . S
C375 C392 1.574 . S
C375 C394 1.368 . S
C375 H399 0.949 . S
H376 C380 0.949 . S
C377 C378 1.349 . S
C377 C379 1.327 . S
C377 H400 0.950 . S
C378 C377 1.349 . S
C378 C390 1.349 . S
C379 C377 1.327 . S
C379 C395 1.429 . S
C379 H401 0.950 . S
C380 H376 0.949 . S
C380 C388 1.574 . S
C380 C396 1.368 . S
H381 C389 0.950 . S
H382 C387 0.950 . S
H383 C388 0.949 . S
H384 C390 0.950 . S
H385 C391 0.950 . S
H386 C392 0.965 . S
C387 H382 0.950 . S
C387 C389 1.327 . S
C387 C393 1.429 . S
C388 C380 1.574 . S
C388 H383 0.949 . S
C388 C394 1.368 . S
C389 C373 1.349 . S
C389 H381 0.950 . S
C389 C387 1.327 . S
C390 C378 1.349 . S
C390 H384 0.950 . S
C390 C391 1.327 . S
C391 H385 0.950 . S
C391 C390 1.327 . S
C391 C395 1.429 . S
C392 C375 1.574 . S
C392 H386 0.965 . S
C392 C396 1.368 . S
C393 C374 1.429 . S
C393 C387 1.429 . S
C393 C394 1.523 . S
C394 C375 1.368 . S
C394 C388 1.368 . S
C394 C393 1.523 . S
C395 C379 1.429 . S
C395 C391 1.429 . S
C395 C396 1.523 1_556 S
C396 C380 1.368 . S
C396 C392 1.368 . S
C396 C395 1.523 1_554 S
H397 C372 0.950 . S
H398 C374 0.950 . S
H399 C375 0.949 . S
H400 C377 0.950 . S
H401 C379 0.950 . S
C402 C403 1.349 . S
C402 C404 1.327 . S
C402 H427 0.950 . S
C403 C402 1.349 . S
C403 C419 1.349 . S
C404 C402 1.327 . S
C404 C423 1.429 . S
C404 H428 0.950 . S
C405 C422 1.574 . S
C405 C424 1.368 . S
C405 H429 0.949 . S
H406 C410 0.949 . S
C407 C408 1.349 . S
C407 C409 1.327 . S
C407 H430 0.950 . S
C408 C407 1.349 . S
C408 C420 1.349 . S
C409 C407 1.327 . S
C409 C425 1.429 . S
C409 H431 0.950 . S
C410 H406 0.949 . S
C410 C418 1.574 . S
C410 C426 1.368 . S
H411 C419 0.950 . S
H412 C417 0.950 . S
H413 C418 0.949 . S
H414 C420 0.950 . S
H415 C421 0.950 . S
H416 C422 0.949 1_556 S
C417 H412 0.950 . S
C417 C419 1.327 . S
C417 C423 1.429 . S
C418 C410 1.574 . S
C418 H413 0.949 . S
C418 C424 1.368 . S
C419 C403 1.349 . S
C419 H411 0.950 . S
C419 C417 1.327 . S
C420 C408 1.349 . S
C420 H414 0.950 . S
C420 C421 1.327 . S
C421 H415 0.950 . S
C421 C420 1.327 . S
C421 C425 1.429 . S
C422 C405 1.574 . S
C422 H416 0.949 1_554 S
C422 C426 1.368 . S
C423 C404 1.429 . S
C423 C417 1.429 . S
C423 C424 1.523 . S
C424 C405 1.368 . S
C424 C418 1.368 . S
C424 C423 1.523 . S
C425 C409 1.429 . S
C425 C421 1.429 . S
C425 C426 1.523 1_556 S
C426 C410 1.368 . S
C426 C422 1.368 . S
C426 C425 1.523 1_554 S
H427 C402 0.950 . S
H428 C404 0.950 . S
H429 C405 0.949 . S
H430 C407 0.950 . S
H431 C409 0.950 . S
C432 C433 1.349 . S
C432 C434 1.327 . S
C432 H457 0.950 . S
C433 C432 1.349 . S
C433 C449 1.349 . S
C434 C432 1.327 . S
C434 C453 1.429 . S
C434 H458 0.950 . S
C435 C452 1.574 . S
C435 C454 1.368 . S
C435 H459 0.949 . S
H436 C440 0.949 . S
C437 C438 1.349 . S
C437 C439 1.327 . S
C437 H460 0.950 . S
C438 C437 1.349 . S
C438 C450 1.349 . S
C439 C437 1.327 . S
C439 C455 1.429 . S
C439 H461 0.950 . S
C440 H436 0.949 . S
C440 C448 1.574 . S
C440 C456 1.368 . S
H441 C449 0.950 . S
H442 C447 0.950 . S
H443 C448 0.949 . S
H444 C450 0.950 . S
H445 C451 0.950 . S
H446 C452 0.949 . S
C447 H442 0.950 . S
C447 C449 1.327 . S
C447 C453 1.429 . S
C448 C440 1.574 . S
C448 H443 0.949 . S
C448 C454 1.368 . S
C449 C433 1.349 . S
C449 H441 0.950 . S
C449 C447 1.327 . S
C450 C438 1.349 . S
C450 H444 0.950 . S
C450 C451 1.327 . S
C451 H445 0.950 . S
C451 C450 1.327 . S
C451 C455 1.429 . S
C452 C435 1.574 . S
C452 H446 0.949 . S
C452 C456 1.368 . S
C453 C434 1.429 . S
C453 C447 1.429 . S
C453 C454 1.523 . S
C454 C435 1.368 . S
C454 C448 1.368 . S
C454 C453 1.523 . S
C455 C439 1.429 . S
C455 C451 1.429 . S
C455 C456 1.523 . S
C456 C440 1.368 . S
C456 C452 1.368 . S
C456 C455 1.523 . S
H457 C432 0.950 . S
H458 C434 0.950 . S
H459 C435 0.949 . S
H460 C437 0.950 . S
H461 C439 0.950 . S
C462 C463 1.349 . S
C462 C464 1.327 . S
C462 H487 0.950 . S
C463 C462 1.349 . S
C463 C479 1.349 . S
C464 C462 1.327 . S
C464 C483 1.429 . S
C464 H488 0.950 . S
C465 C482 1.574 . S
C465 C484 1.368 . S
C465 H489 0.949 . S
H466 C470 0.949 . S
C467 C468 1.349 . S
C467 C469 1.327 . S
C467 H490 0.950 . S
C468 C467 1.349 . S
C468 C480 1.349 . S
C469 C467 1.327 . S
C469 C485 1.429 . S
C469 H491 0.950 . S
C470 H466 0.949 . S
C470 C478 1.574 . S
C470 C486 1.368 . S
H471 C479 0.950 . S
H472 C477 0.950 . S
H473 C478 0.949 . S
H474 C480 0.950 . S
H475 C481 0.950 . S
H476 C482 0.949 . S
C477 H472 0.950 . S
C477 C479 1.327 . S
C477 C483 1.429 . S
C478 C470 1.574 . S
C478 H473 0.949 . S
C478 C484 1.368 . S
C479 C463 1.349 . S
C479 H471 0.950 . S
C479 C477 1.327 . S
C480 C468 1.349 . S
C480 H474 0.950 . S
C480 C481 1.327 . S
C481 H475 0.950 . S
C481 C480 1.327 . S
C481 C485 1.429 . S
C482 C465 1.574 . S
C482 H476 0.949 . S
C482 C486 1.368 . S
C483 C464 1.429 . S
C483 C477 1.429 . S
C483 C484 1.523 . S
C484 C465 1.368 . S
C484 C478 1.368 . S
C484 C483 1.523 . S
C485 C469 1.429 . S
C485 C481 1.429 . S
C485 C486 1.523 . S
C486 C470 1.368 . S
C486 C482 1.368 . S
C486 C485 1.523 . S
H487 C462 0.950 . S
H488 C464 0.950 . S
H489 C465 0.949 . S
H490 C467 0.950 . S
H491 C469 0.950 . S
C492 C493 1.349 . S
C492 C494 1.327 . S
C492 H517 0.950 . S
C493 C492 1.349 . S
C493 C509 1.349 . S
C494 C492 1.327 . S
C494 C513 1.429 . S
C494 H518 0.950 . S
C495 C512 1.574 . S
C495 C514 1.368 . S
C495 H519 0.949 . S
H496 C500 0.949 . S
C497 C498 1.349 . S
C497 C499 1.327 . S
C497 H520 0.950 . S
C498 C497 1.349 . S
C498 C510 1.349 . S
C499 C497 1.327 . S
C499 C515 1.429 . S
C499 H521 0.950 . S
C500 H496 0.949 . S
C500 C508 1.574 . S
C500 C516 1.368 . S
H501 C509 0.950 . S
H502 C507 0.950 . S
H503 C508 0.949 . S
H504 C510 0.950 . S
H505 C511 0.950 . S
H506 C512 0.949 . S
C507 H502 0.950 . S
C507 C509 1.327 . S
C507 C513 1.429 . S
C508 C500 1.574 . S
C508 H503 0.949 . S
C508 C514 1.368 . S
C509 C493 1.349 . S
C509 H501 0.950 . S
C509 C507 1.327 . S
C510 C498 1.349 . S
C510 H504 0.950 . S
C510 C511 1.327 . S
C511 H505 0.950 . S
C511 C510 1.327 . S
C511 C515 1.429 . S
C512 C495 1.574 . S
C512 H506 0.949 . S
C512 C516 1.368 . S
C513 C494 1.429 . S
C513 C507 1.429 . S
C513 C514 1.523 . S
C514 C495 1.368 . S
C514 C508 1.368 . S
C514 C513 1.523 . S
C515 C499 1.429 . S
C515 C511 1.429 . S
C515 C516 1.523 . S
C516 C500 1.368 . S
C516 C512 1.368 . S
C516 C515 1.523 . S
H517 C492 0.950 . S
H518 C494 0.950 . S
H519 C495 0.949 . S
H520 C497 0.950 . S
H521 C499 0.950 . S
C522 C523 1.349 . S
C522 C524 1.327 . S
C522 H547 0.950 . S
C523 C522 1.349 . S
C523 C539 1.349 . S
C524 C522 1.327 . S
C524 C543 1.429 . S
C524 H548 0.950 . S
C525 C542 1.574 . S
C525 C544 1.368 . S
C525 H549 0.949 . S
H526 C530 0.949 . S
C527 C528 1.349 . S
C527 C529 1.327 . S
C527 H550 0.950 . S
C528 C527 1.349 . S
C528 C540 1.349 . S
C529 C527 1.327 . S
C529 C545 1.429 . S
C529 H551 0.950 . S
C530 H526 0.949 . S
C530 C538 1.574 . S
C530 C546 1.368 . S
H531 C539 0.950 . S
H532 C537 0.950 . S
H533 C538 0.949 . S
H534 C540 0.950 . S
H535 C541 0.950 . S
H536 C542 0.949 . S
C537 H532 0.950 . S
C537 C539 1.327 . S
C537 C543 1.429 . S
C538 C530 1.574 . S
C538 H533 0.949 . S
C538 C544 1.368 . S
C539 C523 1.349 . S
C539 H531 0.950 . S
C539 C537 1.327 . S
C540 C528 1.349 . S
C540 H534 0.950 . S
C540 C541 1.327 . S
C541 H535 0.950 . S
C541 C540 1.327 . S
C541 C545 1.429 . S
C542 C525 1.574 . S
C542 H536 0.949 . S
C542 C546 1.368 . S
C543 C524 1.429 . S
C543 C537 1.429 . S
C543 C544 1.523 . S
C544 C525 1.368 . S
C544 C538 1.368 . S
C544 C543 1.523 . S
C545 C529 1.429 . S
C545 C541 1.429 . S
C545 C546 1.523 . S
C546 C530 1.368 . S
C546 C542 1.368 . S
C546 C545 1.523 . S
H547 C522 0.950 . S
H548 C524 0.950 . S
H549 C525 0.949 . S
H550 C527 0.950 . S
H551 C529 0.950 . S
C552 C553 1.349 . S
C552 C554 1.327 . S
C552 H577 0.950 . S
C553 C552 1.349 . S
C553 C569 1.349 . S
C554 C552 1.327 . S
C554 C573 1.429 . S
C554 H578 0.950 . S
C555 C572 1.574 . S
C555 C574 1.368 . S
C555 H579 0.949 . S
H556 C560 0.949 . S
C557 C558 1.349 . S
C557 C559 1.327 . S
C557 H580 0.950 . S
C558 C557 1.349 . S
C558 C570 1.349 . S
C559 C557 1.327 . S
C559 C575 1.429 . S
C559 H581 0.950 . S
C560 H556 0.949 . S
C560 C568 1.574 . S
C560 C576 1.368 . S
H561 C569 0.950 . S
H562 C567 0.950 . S
H563 C568 0.949 . S
H564 C570 0.950 . S
H565 C571 0.950 . S
H566 C572 0.949 . S
C567 H562 0.950 . S
C567 C569 1.327 . S
C567 C573 1.429 . S
C568 C560 1.574 . S
C568 H563 0.949 . S
C568 C574 1.368 . S
C569 C553 1.349 . S
C569 H561 0.950 . S
C569 C567 1.327 . S
C570 C558 1.349 . S
C570 H564 0.950 . S
C570 C571 1.327 . S
C571 H565 0.950 . S
C571 C570 1.327 . S
C571 C575 1.429 . S
C572 C555 1.574 . S
C572 H566 0.949 . S
C572 C576 1.368 . S
C573 C554 1.429 . S
C573 C567 1.429 . S
C573 C574 1.523 . S
C574 C555 1.368 . S
C574 C568 1.368 . S
C574 C573 1.523 . S
C575 C559 1.429 . S
C575 C571 1.429 . S
C575 C576 1.523 . S
C576 C560 1.368 . S
C576 C572 1.368 . S
C576 C575 1.523 . S
H577 C552 0.950 . S
H578 C554 0.950 . S
H579 C555 0.949 . S
H580 C557 0.950 . S
H581 C559 0.950 . S
C582 C583 1.349 . S
C582 C584 1.327 . S
C582 H607 0.950 . S
C583 C582 1.349 . S
C583 C599 1.349 . S
C584 C582 1.327 . S
C584 C603 1.429 . S
C584 H608 0.950 . S
C585 C602 1.574 . S
C585 C604 1.368 . S
C585 H609 0.949 . S
H586 C590 0.949 . S
C587 C588 1.349 . S
C587 C589 1.327 . S
C587 H610 0.950 . S
C588 C587 1.349 . S
C588 C600 1.349 . S
C589 C587 1.327 . S
C589 C605 1.429 . S
C589 H611 0.950 . S
C590 H586 0.949 . S
C590 C598 1.574 . S
C590 C606 1.368 . S
H591 C599 0.950 . S
H592 C597 0.950 . S
H593 C598 0.949 . S
H594 C600 0.950 . S
H595 C601 0.950 . S
H596 C602 0.949 . S
C597 H592 0.950 . S
C597 C599 1.327 . S
C597 C603 1.429 . S
C598 C590 1.574 . S
C598 H593 0.949 . S
C598 C604 1.368 . S
C599 C583 1.349 . S
C599 H591 0.950 . S
C599 C597 1.327 . S
C600 C588 1.349 . S
C600 H594 0.950 . S
C600 C601 1.327 . S
C601 H595 0.950 . S
C601 C600 1.327 . S
C601 C605 1.429 . S
C602 C585 1.574 . S
C602 H596 0.949 . S
C602 C606 1.368 . S
C603 C584 1.429 . S
C603 C597 1.429 . S
C603 C604 1.523 . S
C604 C585 1.368 . S
C604 C598 1.368 . S
C604 C603 1.523 . S
C605 C589 1.429 . S
C605 C601 1.429 . S
C605 C606 1.523 . S
C606 C590 1.368 . S
C606 C602 1.368 . S
C606 C605 1.523 . S
H607 C582 0.950 . S
H608 C584 0.950 . S
H609 C585 0.949 . S
H610 C587 0.950 . S
H611 C589 0.950 . S
C612 C613 1.349 . S
C612 C614 1.327 . S
C612 H637 0.950 . S
C613 C612 1.349 . S
C613 C629 1.349 . S
C614 C612 1.327 . S
C614 C633 1.429 . S
C614 H638 0.950 . S
C615 C632 1.574 . S
C615 C634 1.368 . S
C615 H639 0.949 . S
H616 C620 0.930 1_545 S
C617 C618 1.349 . S
C617 C619 1.327 . S
C617 H640 0.950 . S
C618 C617 1.349 . S
C618 C630 1.349 . S
C619 C617 1.327 . S
C619 C635 1.429 . S
C619 H641 0.950 . S
C620 H616 0.930 1_565 S
C620 C628 1.574 . S
C620 C636 1.368 . S
H621 C629 0.950 . S
H622 C627 0.950 . S
H623 C628 0.949 . S
H624 C630 0.950 . S
H625 C631 0.950 . S
H626 C632 0.949 . S
C627 H622 0.950 . S
C627 C629 1.327 . S
C627 C633 1.429 . S
C628 C620 1.574 . S
C628 H623 0.949 . S
C628 C634 1.368 . S
C629 C613 1.349 . S
C629 H621 0.950 . S
C629 C627 1.327 . S
C630 C618 1.349 . S
C630 H624 0.950 . S
C630 C631 1.327 . S
C631 H625 0.950 . S
C631 C630 1.327 . S
C631 C635 1.429 . S
C632 C615 1.574 . S
C632 H626 0.949 . S
C632 C636 1.368 . S
C633 C614 1.429 . S
C633 C627 1.429 . S
C633 C634 1.523 . S
C634 C615 1.368 . S
C634 C628 1.368 . S
C634 C633 1.523 . S
C635 C619 1.429 . S
C635 C631 1.429 . S
C635 C636 1.523 1_545 S
C636 C620 1.368 . S
C636 C632 1.368 . S
C636 C635 1.523 1_565 S
H637 C612 0.950 . S
H638 C614 0.950 . S
H639 C615 0.949 . S
H640 C617 0.950 . S
H641 C619 0.950 . S
C642 C643 1.349 . S
C642 C644 1.327 . S
C642 H667 0.950 . S
C643 C642 1.349 . S
C643 C659 1.349 . S
C644 C642 1.327 . S
C644 C663 1.429 . S
C644 H668 0.950 . S
C645 C662 1.574 . S
C645 C664 1.368 . S
C645 H669 0.949 . S
H646 C650 0.949 . S
C647 C648 1.349 . S
C647 C649 1.327 . S
C647 H670 0.950 . S
C648 C647 1.349 . S
C648 C660 1.349 . S
C649 C647 1.327 . S
C649 C665 1.429 . S
C649 H671 0.950 . S
C650 H646 0.949 . S
C650 C658 1.574 . S
C650 C666 1.368 . S
H651 C659 0.950 . S
H652 C657 0.950 . S
H653 C658 0.949 . S
H654 C660 0.950 . S
H655 C661 0.950 . S
H656 C662 0.949 . S
C657 H652 0.950 . S
C657 C659 1.327 . S
C657 C663 1.429 . S
C658 C650 1.574 . S
C658 H653 0.949 . S
C658 C664 1.368 . S
C659 C643 1.349 . S
C659 H651 0.950 . S
C659 C657 1.327 . S
C660 C648 1.349 . S
C660 H654 0.950 . S
C660 C661 1.327 . S
C661 H655 0.950 . S
C661 C660 1.327 . S
C661 C665 1.429 . S
C662 C645 1.574 . S
C662 H656 0.949 . S
C662 C666 1.368 . S
C663 C644 1.429 . S
C663 C657 1.429 . S
C663 C664 1.523 . S
C664 C645 1.368 . S
C664 C658 1.368 . S
C664 C663 1.523 . S
C665 C649 1.429 . S
C665 C661 1.429 . S
C665 C666 1.523 . S
C666 C650 1.368 . S
C666 C662 1.368 . S
C666 C665 1.523 . S
H667 C642 0.950 . S
H668 C644 0.950 . S
H669 C645 0.949 . S
H670 C647 0.950 . S
H671 C649 0.950 . S
C672 C673 1.349 . S
C672 C674 1.327 . S
C672 H697 0.950 . S
C673 C672 1.349 . S
C673 C689 1.349 . S
C674 C672 1.327 . S
C674 C693 1.429 . S
C674 H698 0.950 . S
C675 C692 1.574 . S
C675 C694 1.368 . S
C675 H699 0.955 . S
H676 C680 0.949 . S
C677 C678 1.349 . S
C677 C679 1.327 . S
C677 H700 0.950 . S
C678 C677 1.349 . S
C678 C690 1.349 . S
C679 C677 1.327 . S
C679 C695 1.429 . S
C679 H701 0.950 . S
C680 H676 0.949 . S
C680 C688 1.574 . S
C680 C696 1.368 . S
H681 C689 0.950 . S
H682 C687 0.950 . S
H683 C688 0.949 . S
H684 C690 0.950 . S
H685 C691 0.950 . S
H686 C692 0.949 . S
C687 H682 0.950 . S
C687 C689 1.327 . S
C687 C693 1.429 . S
C688 C680 1.574 . S
C688 H683 0.949 . S
C688 C694 1.368 . S
C689 C673 1.349 . S
C689 H681 0.950 . S
C689 C687 1.327 . S
C690 C678 1.349 . S
C690 H684 0.950 . S
C690 C691 1.327 . S
C691 H685 0.950 . S
C691 C690 1.327 . S
C691 C695 1.429 . S
C692 C675 1.574 . S
C692 H686 0.949 . S
C692 C696 1.368 . S
C693 C674 1.429 . S
C693 C687 1.429 . S
C693 C694 1.523 1_554 S
C694 C675 1.368 . S
C694 C688 1.368 . S
C694 C693 1.523 1_556 S
C695 C679 1.429 . S
C695 C691 1.429 . S
C695 C696 1.523 . S
C696 C680 1.368 . S
C696 C692 1.368 . S
C696 C695 1.523 . S
H697 C672 0.950 . S
H698 C674 0.950 . S
H699 C675 0.955 . S
H700 C677 0.950 . S
H701 C679 0.950 . S
C702 C703 1.349 . S
C702 C704 1.327 . S
C702 H727 0.950 . S
C703 C702 1.349 . S
C703 C719 1.349 . S
C704 C702 1.327 . S
C704 C723 1.429 . S
C704 H728 0.950 . S
C705 C722 1.574 . S
C705 C724 1.368 . S
C705 H729 0.949 . S
H706 C710 0.949 . S
C707 C708 1.349 . S
C707 C709 1.327 . S
C707 H730 0.950 . S
C708 C707 1.349 . S
C708 C720 1.349 . S
C709 C707 1.327 . S
C709 C725 1.429 . S
C709 H731 0.950 . S
C710 H706 0.949 . S
C710 C718 1.574 . S
C710 C726 1.368 . S
H711 C719 0.950 . S
H712 C717 0.950 . S
H713 C718 0.965 . S
H714 C720 0.950 . S
H715 C721 0.950 . S
H716 C722 0.949 . S
C717 H712 0.950 . S
C717 C719 1.327 . S
C717 C723 1.429 . S
C718 C710 1.574 . S
C718 H713 0.965 . S
C718 C724 1.368 . S
C719 C703 1.349 . S
C719 H711 0.950 . S
C719 C717 1.327 . S
C720 C708 1.349 . S
C720 H714 0.950 . S
C720 C721 1.327 . S
C721 H715 0.950 . S
C721 C720 1.327 . S
C721 C725 1.429 . S
C722 C705 1.574 . S
C722 H716 0.949 . S
C722 C726 1.368 . S
C723 C704 1.429 . S
C723 C717 1.429 . S
C723 C724 1.523 1_554 S
C724 C705 1.368 . S
C724 C718 1.368 . S
C724 C723 1.523 1_556 S
C725 C709 1.429 . S
C725 C721 1.429 . S
C725 C726 1.523 . S
C726 C710 1.368 . S
C726 C722 1.368 . S
C726 C725 1.523 . S
H727 C702 0.950 . S
H728 C704 0.950 . S
H729 C705 0.949 . S
H730 C707 0.950 . S
H731 C709 0.950 . S
C732 C733 1.349 . S
C732 C734 1.327 . S
C732 H757 0.950 . S
C733 C732 1.349 . S
C733 C749 1.349 . S
C734 C732 1.327 . S
C734 C753 1.429 . S
C734 H758 0.950 . S
C735 C752 1.574 . S
C735 C754 1.368 . S
C735 H759 0.949 . S
H736 C740 0.949 . S
C737 C738 1.349 . S
C737 C739 1.327 . S
C737 H760 0.950 . S
C738 C737 1.349 . S
C738 C750 1.349 . S
C739 C737 1.327 . S
C739 C755 1.429 . S
C739 H761 0.950 . S
C740 H736 0.949 . S
C740 C748 1.574 . S
C740 C756 1.368 . S
H741 C749 0.950 . S
H742 C747 0.950 . S
H743 C748 0.949 . S
H744 C750 0.950 . S
H745 C751 0.950 . S
H746 C752 0.949 . S
C747 H742 0.950 . S
C747 C749 1.327 . S
C747 C753 1.429 . S
C748 C740 1.574 . S
C748 H743 0.949 . S
C748 C754 1.368 . S
C749 C733 1.349 . S
C749 H741 0.950 . S
C749 C747 1.327 . S
C750 C738 1.349 . S
C750 H744 0.950 . S
C750 C751 1.327 . S
C751 H745 0.950 . S
C751 C750 1.327 . S
C751 C755 1.429 . S
C752 C735 1.574 . S
C752 H746 0.949 . S
C752 C756 1.368 . S
C753 C734 1.429 . S
C753 C747 1.429 . S
C753 C754 1.523 . S
C754 C735 1.368 . S
C754 C748 1.368 . S
C754 C753 1.523 . S
C755 C739 1.429 . S
C755 C751 1.429 . S
C755 C756 1.523 . S
C756 C740 1.368 . S
C756 C752 1.368 . S
C756 C755 1.523 . S
H757 C732 0.950 . S
H758 C734 0.950 . S
H759 C735 0.949 . S
H760 C737 0.950 . S
H761 C739 0.950 . S
C762 C763 1.349 . S
C762 C764 1.327 . S
C762 H787 0.950 . S
C763 C762 1.349 . S
C763 C779 1.349 . S
C764 C762 1.327 . S
C764 C783 1.429 . S
C764 H788 0.950 . S
C765 C782 1.574 . S
C765 C784 1.368 . S
C765 H789 0.949 . S
H766 C770 0.949 . S
C767 C768 1.349 . S
C767 C769 1.327 . S
C767 H790 0.950 . S
C768 C767 1.349 . S
C768 C780 1.349 . S
C769 C767 1.327 . S
C769 C785 1.429 . S
C769 H791 0.950 . S
C770 H766 0.949 . S
C770 C778 1.574 . S
C770 C786 1.368 . S
H771 C779 0.950 . S
H772 C777 0.950 . S
H773 C778 0.949 . S
H774 C780 0.950 . S
H775 C781 0.950 . S
H776 C782 0.949 . S
C777 H772 0.950 . S
C777 C779 1.327 . S
C777 C783 1.429 . S
C778 C770 1.574 . S
C778 H773 0.949 . S
C778 C784 1.368 . S
C779 C763 1.349 . S
C779 H771 0.950 . S
C779 C777 1.327 . S
C780 C768 1.349 . S
C780 H774 0.950 . S
C780 C781 1.327 . S
C781 H775 0.950 . S
C781 C780 1.327 . S
C781 C785 1.429 . S
C782 C765 1.574 . S
C782 H776 0.949 . S
C782 C786 1.368 . S
C783 C764 1.429 . S
C783 C777 1.429 . S
C783 C784 1.523 . S
C784 C765 1.368 . S
C784 C778 1.368 . S
C784 C783 1.523 . S
C785 C769 1.429 . S
C785 C781 1.429 . S
C785 C786 1.523 . S
C786 C770 1.368 . S
C786 C782 1.368 . S
C786 C785 1.523 . S
H787 C762 0.950 . S
H788 C764 0.950 . S
H789 C765 0.949 . S
H790 C767 0.950 . S
H791 C769 0.950 . S
C792 C793 1.349 . S
C792 C794 1.327 . S
C792 H817 0.950 . S
C793 C792 1.349 . S
C793 C809 1.349 . S
C794 C792 1.327 . S
C794 C813 1.429 . S
C794 H818 0.950 . S
C795 C812 1.574 . S
C795 C814 1.368 . S
C795 H819 0.949 1_655 S
H796 C800 0.949 . S
C797 C798 1.349 . S
C797 C799 1.327 . S
C797 H820 0.950 . S
C798 C797 1.349 . S
C798 C810 1.349 . S
C799 C797 1.327 . S
C799 C815 1.429 . S
C799 H821 0.950 . S
C800 H796 0.949 . S
C800 C808 1.574 . S
C800 C816 1.368 . S
H801 C809 0.950 . S
H802 C807 0.950 . S
H803 C808 0.949 . S
H804 C810 0.950 . S
H805 C811 0.950 . S
H806 C812 0.949 . S
C807 H802 0.950 . S
C807 C809 1.327 . S
C807 C813 1.429 . S
C808 C800 1.574 . S
C808 H803 0.949 . S
C808 C814 1.368 . S
C809 C793 1.349 . S
C809 H801 0.950 . S
C809 C807 1.327 . S
C810 C798 1.349 . S
C810 H804 0.950 . S
C810 C811 1.327 . S
C811 H805 0.950 . S
C811 C810 1.327 . S
C811 C815 1.429 . S
C812 C795 1.574 . S
C812 H806 0.949 . S
C812 C816 1.368 . S
C813 C794 1.429 . S
C813 C807 1.429 . S
C813 C814 1.523 1_455 S
C814 C795 1.368 . S
C814 C808 1.368 . S
C814 C813 1.523 1_655 S
C815 C799 1.429 . S
C815 C811 1.429 . S
C815 C816 1.523 . S
C816 C800 1.368 . S
C816 C812 1.368 . S
C816 C815 1.523 . S
H817 C792 0.950 . S
H818 C794 0.950 . S
H819 C795 0.949 1_455 S
H820 C797 0.950 . S
H821 C799 0.950 . S
C822 C823 1.349 . S
C822 C824 1.327 . S
C822 H847 0.950 . S
C823 C822 1.349 . S
C823 C839 1.349 . S
C824 C822 1.327 . S
C824 C843 1.429 . S
C824 H848 0.950 . S
C825 C842 1.574 . S
C825 C844 1.368 . S
C825 H849 0.949 . S
H826 C830 0.949 . S
C827 C828 1.349 . S
C827 C829 1.327 . S
C827 H850 0.950 . S
C828 C827 1.349 . S
C828 C840 1.349 . S
C829 C827 1.327 . S
C829 C845 1.429 . S
C829 H851 0.950 . S
C830 H826 0.949 . S
C830 C838 1.574 . S
C830 C846 1.368 . S
H831 C839 0.950 . S
H832 C837 0.950 . S
H833 C838 0.949 1_655 S
H834 C840 0.950 . S
H835 C841 0.950 . S
H836 C842 0.949 . S
C837 H832 0.950 . S
C837 C839 1.327 . S
C837 C843 1.429 . S
C838 C830 1.574 . S
C838 H833 0.949 1_455 S
C838 C844 1.368 . S
C839 C823 1.349 . S
C839 H831 0.950 . S
C839 C837 1.327 . S
C840 C828 1.349 . S
C840 H834 0.950 . S
C840 C841 1.327 . S
C841 H835 0.950 . S
C841 C840 1.327 . S
C841 C845 1.429 . S
C842 C825 1.574 . S
C842 H836 0.949 . S
C842 C846 1.368 . S
C843 C824 1.429 . S
C843 C837 1.429 . S
C843 C844 1.523 1_655 S
C844 C825 1.368 . S
C844 C838 1.368 . S
C844 C843 1.523 1_455 S
C845 C829 1.429 . S
C845 C841 1.429 . S
C845 C846 1.523 . S
C846 C830 1.368 . S
C846 C842 1.368 . S
C846 C845 1.523 . S
H847 C822 0.950 . S
H848 C824 0.950 . S
H849 C825 0.949 . S
H850 C827 0.950 . S
H851 C829 0.950 . S
C852 C853 1.349 . S
C852 C854 1.327 . S
C852 H877 0.950 . S
C853 C852 1.349 . S
C853 C869 1.349 . S
C854 C852 1.327 . S
C854 C873 1.429 . S
C854 H878 0.950 . S
C855 C872 1.574 . S
C855 C874 1.368 . S
C855 H879 0.949 . S
H856 C860 0.949 . S
C857 C858 1.349 . S
C857 C859 1.327 . S
C857 H880 0.950 . S
C858 C857 1.349 . S
C858 C870 1.349 . S
C859 C857 1.327 . S
C859 C875 1.429 . S
C859 H881 0.950 . S
C860 H856 0.949 . S
C860 C868 1.574 . S
C860 C876 1.368 . S
H861 C869 0.950 . S
H862 C867 0.950 . S
H863 C868 0.949 1_455 S
H864 C870 0.950 . S
H865 C871 0.950 . S
H866 C872 0.949 . S
C867 H862 0.950 . S
C867 C869 1.327 . S
C867 C873 1.429 . S
C868 C860 1.574 . S
C868 H863 0.949 1_655 S
C868 C874 1.368 . S
C869 C853 1.349 . S
C869 H861 0.950 . S
C869 C867 1.327 . S
C870 C858 1.349 . S
C870 H864 0.950 . S
C870 C871 1.327 . S
C871 H865 0.950 . S
C871 C870 1.327 . S
C871 C875 1.429 . S
C872 C855 1.574 . S
C872 H866 0.949 . S
C872 C876 1.368 . S
C873 C854 1.429 . S
C873 C867 1.429 . S
C873 C874 1.523 1_455 S
C874 C855 1.368 . S
C874 C868 1.368 . S
C874 C873 1.523 1_655 S
C875 C859 1.429 . S
C875 C871 1.429 . S
C875 C876 1.523 . S
C876 C860 1.368 . S
C876 C872 1.368 . S
C876 C875 1.523 . S
H877 C852 0.950 . S
H878 C854 0.950 . S
H879 C855 0.949 . S
H880 C857 0.950 . S
H881 C859 0.950 . S
C882 C883 1.349 . S
C882 C884 1.327 . S
C882 H907 0.950 . S
C883 C882 1.349 . S
C883 C899 1.349 . S
C884 C882 1.327 . S
C884 C903 1.429 . S
C884 H908 0.950 . S
C885 C902 1.574 . S
C885 C904 1.368 . S
C885 H909 0.949 . S
H886 C890 0.949 1_655 S
C887 C888 1.349 . S
C887 C889 1.327 . S
C887 H910 0.950 . S
C888 C887 1.349 . S
C888 C900 1.349 . S
C889 C887 1.327 . S
C889 C905 1.429 . S
C889 H911 0.950 . S
C890 H886 0.949 1_455 S
C890 C898 1.574 . S
C890 C906 1.368 . S
H891 C899 0.950 . S
H892 C897 0.950 . S
H893 C898 0.949 . S
H894 C900 0.950 . S
H895 C901 0.950 . S
H896 C902 0.949 . S
C897 H892 0.950 . S
C897 C899 1.327 . S
C897 C903 1.429 . S
C898 C890 1.574 . S
C898 H893 0.949 . S
C898 C904 1.368 . S
C899 C883 1.349 . S
C899 H891 0.950 . S
C899 C897 1.327 . S
C900 C888 1.349 . S
C900 H894 0.950 . S
C900 C901 1.327 . S
C901 H895 0.950 . S
C901 C900 1.327 . S
C901 C905 1.429 . S
C902 C885 1.574 . S
C902 H896 0.949 . S
C902 C906 1.368 . S
C903 C884 1.429 . S
C903 C897 1.429 . S
C903 C904 1.523 . S
C904 C885 1.368 . S
C904 C898 1.368 . S
C904 C903 1.523 . S
C905 C889 1.429 . S
C905 C901 1.429 . S
C905 C906 1.523 1_655 S
C906 C890 1.368 . S
C906 C902 1.368 . S
C906 C905 1.523 1_455 S
H907 C882 0.950 . S
H908 C884 0.950 . S
H909 C885 0.949 . S
H910 C887 0.950 . S
H911 C889 0.950 . S
C912 C913 1.349 . S
C912 C914 1.327 . S
C912 H937 0.950 . S
C913 C912 1.349 . S
C913 C929 1.349 . S
C914 C912 1.327 . S
C914 C933 1.429 . S
C914 H938 0.950 . S
C915 C932 1.574 . S
C915 C934 1.368 . S
C915 H939 0.949 1_565 S
H916 C920 0.949 . S
C917 C918 1.349 . S
C917 C919 1.327 . S
C917 H940 0.950 . S
C918 C917 1.349 . S
C918 C930 1.349 . S
C919 C917 1.327 . S
C919 C935 1.429 . S
C919 H941 0.950 . S
C920 H916 0.949 . S
C920 C928 1.574 . S
C920 C936 1.368 . S
H921 C929 0.950 . S
H922 C927 0.950 . S
H923 C928 0.949 . S
H924 C930 0.950 . S
H925 C931 0.950 . S
H926 C932 0.949 . S
C927 H922 0.950 . S
C927 C929 1.327 . S
C927 C933 1.429 . S
C928 C920 1.574 . S
C928 H923 0.949 . S
C928 C934 1.368 . S
C929 C913 1.349 . S
C929 H921 0.950 . S
C929 C927 1.327 . S
C930 C918 1.349 . S
C930 H924 0.950 . S
C930 C931 1.327 . S
C931 H925 0.950 . S
C931 C930 1.327 . S
C931 C935 1.429 . S
C932 C915 1.574 . S
C932 H926 0.949 . S
C932 C936 1.368 . S
C933 C914 1.429 . S
C933 C927 1.429 . S
C933 C934 1.523 1_545 S
C934 C915 1.368 . S
C934 C928 1.368 . S
C934 C933 1.523 1_565 S
C935 C919 1.429 . S
C935 C931 1.429 . S
C935 C936 1.523 . S
C936 C920 1.368 . S
C936 C932 1.368 . S
C936 C935 1.523 . S
H937 C912 0.950 . S
H938 C914 0.950 . S
H939 C915 0.949 1_545 S
H940 C917 0.950 . S
H941 C919 0.950 . S
C942 C943 1.349 . S
C942 C944 1.327 . S
C942 H967 0.950 . S
C943 C942 1.349 . S
C943 C959 1.349 . S
C944 C942 1.327 . S
C944 C963 1.429 . S
C944 H968 0.950 . S
C945 C962 1.574 . S
C945 C964 1.368 . S
C945 H969 0.949 . S
H946 C950 0.949 1_565 S
C947 C948 1.349 . S
C947 C949 1.327 . S
C947 H970 0.950 . S
C948 C947 1.349 . S
C948 C960 1.349 . S
C949 C947 1.327 . S
C949 C965 1.429 . S
C949 H971 0.950 . S
C950 H946 0.949 1_545 S
C950 C958 1.574 . S
C950 C966 1.368 . S
H951 C959 0.950 . S
H952 C957 0.950 . S
H953 C958 0.949 . S
H954 C960 0.950 . S
H955 C961 0.950 . S
H956 C962 0.949 . S
C957 H952 0.950 . S
C957 C959 1.327 . S
C957 C963 1.429 . S
C958 C950 1.574 . S
C958 H953 0.949 . S
C958 C964 1.368 . S
C959 C943 1.349 . S
C959 H951 0.950 . S
C959 C957 1.327 . S
C960 C948 1.349 . S
C960 H954 0.950 . S
C960 C961 1.327 . S
C961 H955 0.950 . S
C961 C960 1.327 . S
C961 C965 1.429 . S
C962 C945 1.574 . S
C962 H956 0.949 . S
C962 C966 1.368 . S
C963 C944 1.429 . S
C963 C957 1.429 . S
C963 C964 1.523 . S
C964 C945 1.368 . S
C964 C958 1.368 . S
C964 C963 1.523 . S
C965 C949 1.429 . S
C965 C961 1.429 . S
C965 C966 1.523 1_565 S
C966 C950 1.368 . S
C966 C962 1.368 . S
C966 C965 1.523 1_545 S
H967 C942 0.950 . S
H968 C944 0.950 . S
H969 C945 0.949 . S
H970 C947 0.950 . S
H971 C949 0.950 . S
C972 C973 1.349 . S
C972 C974 1.327 . S
C972 H997 0.950 . S
C973 C972 1.349 . S
C973 C989 1.349 . S
C974 C972 1.327 . S
C974 C993 1.429 . S
C974 H998 0.950 . S
C975 C992 1.574 . S
C975 C994 1.368 . S
C975 H999 0.949 . S
H976 C980 0.949 . S
C977 C978 1.349 . S
C977 C979 1.327 . S
C977 H1000 0.950 . S
C978 C977 1.349 . S
C978 C990 1.349 . S
C979 C977 1.327 . S
C979 C995 1.429 . S
C979 H1001 0.950 . S
C980 H976 0.949 . S
C980 C988 1.574 . S
C980 C996 1.368 . S
H981 C989 0.950 . S
H982 C987 0.950 . S
H983 C988 0.949 . S
H984 C990 0.950 . S
H985 C991 0.950 . S
H986 C992 0.949 . S
C987 H982 0.950 . S
C987 C989 1.327 . S
C987 C993 1.429 . S
C988 C980 1.574 . S
C988 H983 0.949 . S
C988 C994 1.368 . S
C989 C973 1.349 . S
C989 H981 0.950 . S
C989 C987 1.327 . S
C990 C978 1.349 . S
C990 H984 0.950 . S
C990 C991 1.327 . S
C991 H985 0.950 . S
C991 C990 1.327 . S
C991 C995 1.429 . S
C992 C975 1.574 . S
C992 H986 0.949 . S
C992 C996 1.368 . S
C993 C974 1.429 . S
C993 C987 1.429 . S
C993 C994 1.523 . S
C994 C975 1.368 . S
C994 C988 1.368 . S
C994 C993 1.523 . S
C995 C979 1.429 . S
C995 C991 1.429 . S
C995 C996 1.523 . S
C996 C980 1.368 . S
C996 C992 1.368 . S
C996 C995 1.523 . S
H997 C972 0.950 . S
H998 C974 0.950 . S
H999 C975 0.949 . S
H1000 C977 0.950 . S
H1001 C979 0.950 . S
C1002 C1003 1.349 . S
C1002 C1004 1.327 . S
C1002 H1027 0.950 . S
C1003 C1002 1.349 . S
C1003 C1019 1.349 . S
C1004 C1002 1.327 . S
C1004 C1023 1.429 . S
C1004 H1028 0.950 . S
C1005 C1022 1.574 . S
C1005 C1024 1.368 . S
C1005 H1029 0.949 . S
H1006 C1010 0.949 . S
C1007 C1008 1.349 . S
C1007 C1009 1.327 . S
C1007 H1030 0.950 . S
C1008 C1007 1.349 . S
C1008 C1020 1.349 . S
C1009 C1007 1.327 . S
C1009 C1025 1.429 . S
C1009 H1031 0.950 . S
C1010 H1006 0.949 . S
C1010 C1018 1.574 . S
C1010 C1026 1.368 . S
H1011 C1019 0.950 . S
H1012 C1017 0.950 . S
H1013 C1018 0.949 . S
H1014 C1020 0.950 . S
H1015 C1021 0.950 . S
H1016 C1022 0.938 1_565 S
C1017 H1012 0.950 . S
C1017 C1019 1.327 . S
C1017 C1023 1.429 . S
C1018 C1010 1.574 . S
C1018 H1013 0.949 . S
C1018 C1024 1.368 . S
C1019 C1003 1.349 . S
C1019 H1011 0.950 . S
C1019 C1017 1.327 . S
C1020 C1008 1.349 . S
C1020 H1014 0.950 . S
C1020 C1021 1.327 . S
C1021 H1015 0.950 . S
C1021 C1020 1.327 . S
C1021 C1025 1.429 . S
C1022 C1005 1.574 . S
C1022 H1016 0.938 1_545 S
C1022 C1026 1.368 . S
C1023 C1004 1.429 . S
C1023 C1017 1.429 . S
C1023 C1024 1.523 . S
C1024 C1005 1.368 . S
C1024 C1018 1.368 . S
C1024 C1023 1.523 . S
C1025 C1009 1.429 . S
C1025 C1021 1.429 . S
C1025 C1026 1.523 1_565 S
C1026 C1010 1.368 . S
C1026 C1022 1.368 . S
C1026 C1025 1.523 1_545 S
H1027 C1002 0.950 . S
H1028 C1004 0.950 . S
H1029 C1005 0.949 . S
H1030 C1007 0.950 . S
H1031 C1009 0.950 . S
C1032 C1033 1.349 1_455 S
C1032 C1034 1.327 . S
C1032 H1057 0.950 . S
C1033 C1032 1.349 1_655 S
C1033 C1049 1.349 . S
C1034 C1032 1.327 . S
C1034 C1053 1.429 1_455 S
C1034 H1058 0.950 . S
C1035 C1052 1.574 . S
C1035 C1054 1.368 . S
C1035 H1059 0.949 . S
H1036 C1040 0.949 . S
C1037 C1038 1.349 1_655 S
C1037 C1039 1.327 . S
C1037 H1060 0.950 . S
C1038 C1037 1.349 1_455 S
C1038 C1050 1.349 . S
C1039 C1037 1.327 . S
C1039 C1055 1.429 1_655 S
C1039 H1061 0.950 . S
C1040 H1036 0.949 . S
C1040 C1048 1.574 . S
C1040 C1056 1.368 . S
H1041 C1049 0.950 . S
H1042 C1047 0.950 . S
H1043 C1048 0.949 . S
H1044 C1050 0.950 . S
H1045 C1051 0.950 . S
H1046 C1052 0.949 . S
C1047 H1042 0.950 . S
C1047 C1049 1.327 . S
C1047 C1053 1.429 . S
C1048 C1040 1.574 . S
C1048 H1043 0.949 . S
C1048 C1054 1.368 1_455 S
C1049 C1033 1.349 . S
C1049 H1041 0.950 . S
C1049 C1047 1.327 . S
C1050 C1038 1.349 . S
C1050 H1044 0.950 . S
C1050 C1051 1.327 . S
C1051 H1045 0.950 . S
C1051 C1050 1.327 . S
C1051 C1055 1.429 . S
C1052 C1035 1.574 . S
C1052 H1046 0.949 . S
C1052 C1056 1.368 1_655 S
C1053 C1034 1.429 1_655 S
C1053 C1047 1.429 . S
C1053 C1054 1.523 . S
C1054 C1035 1.368 . S
C1054 C1048 1.368 1_655 S
C1054 C1053 1.523 . S
C1055 C1039 1.429 1_455 S
C1055 C1051 1.429 . S
C1055 C1056 1.523 . S
C1056 C1040 1.368 . S
C1056 C1052 1.368 1_455 S
C1056 C1055 1.523 . S
H1057 C1032 0.950 . S
H1058 C1034 0.950 . S
H1059 C1035 0.949 . S
H1060 C1037 0.950 . S
H1061 C1039 0.950 . S
C1062 C1063 1.349 1_655 S
C1062 C1064 1.327 . S
C1062 H1087 0.950 . S
C1063 C1062 1.349 1_455 S
C1063 C1079 1.349 . S
C1064 C1062 1.327 . S
C1064 C1083 1.429 1_655 S
C1064 H1088 0.950 . S
C1065 C1082 1.574 . S
C1065 C1084 1.368 . S
C1065 H1089 0.949 . S
H1066 C1070 0.949 . S
C1067 C1068 1.349 1_455 S
C1067 C1069 1.327 . S
C1067 H1090 0.950 . S
C1068 C1067 1.349 1_655 S
C1068 C1080 1.349 . S
C1069 C1067 1.327 . S
C1069 C1085 1.429 1_455 S
C1069 H1091 0.950 . S
C1070 H1066 0.949 . S
C1070 C1078 1.574 . S
C1070 C1086 1.368 . S
H1071 C1079 0.950 . S
H1072 C1077 0.950 . S
H1073 C1078 0.949 . S
H1074 C1080 0.950 . S
H1075 C1081 0.950 . S
H1076 C1082 0.949 . S
C1077 H1072 0.950 . S
C1077 C1079 1.327 . S
C1077 C1083 1.429 . S
C1078 C1070 1.574 . S
C1078 H1073 0.949 . S
C1078 C1084 1.368 1_655 S
C1079 C1063 1.349 . S
C1079 H1071 0.950 . S
C1079 C1077 1.327 . S
C1080 C1068 1.349 . S
C1080 H1074 0.950 . S
C1080 C1081 1.327 . S
C1081 H1075 0.950 . S
C1081 C1080 1.327 . S
C1081 C1085 1.429 . S
C1082 C1065 1.574 . S
C1082 H1076 0.949 . S
C1082 C1086 1.368 1_455 S
C1083 C1064 1.429 1_455 S
C1083 C1077 1.429 . S
C1083 C1084 1.523 . S
C1084 C1065 1.368 . S
C1084 C1078 1.368 1_455 S
C1084 C1083 1.523 . S
C1085 C1069 1.429 1_655 S
C1085 C1081 1.429 . S
C1085 C1086 1.523 . S
C1086 C1070 1.368 . S
C1086 C1082 1.368 1_655 S
C1086 C1085 1.523 . S
H1087 C1062 0.950 . S
H1088 C1064 0.950 . S
H1089 C1065 0.949 . S
H1090 C1067 0.950 . S
H1091 C1069 0.950 . S
C1092 C1093 1.349 1_545 S
C1092 C1094 1.327 . S
C1092 H1117 0.950 . S
C1093 C1092 1.349 1_565 S
C1093 C1109 1.349 . S
C1094 C1092 1.327 . S
C1094 C1113 1.429 1_545 S
C1094 H1118 0.950 . S
C1095 C1112 1.574 . S
C1095 C1114 1.368 . S
C1095 H1119 0.949 . S
H1096 C1100 0.949 . S
C1097 C1098 1.349 1_565 S
C1097 C1099 1.327 . S
C1097 H1120 0.950 . S
C1098 C1097 1.349 1_545 S
C1098 C1110 1.349 . S
C1099 C1097 1.327 . S
C1099 C1115 1.429 1_565 S
C1099 H1121 0.950 . S
C1100 H1096 0.949 . S
C1100 C1108 1.574 . S
C1100 C1116 1.368 . S
H1101 C1109 0.950 . S
H1102 C1107 0.950 . S
H1103 C1108 0.949 . S
H1104 C1110 0.950 . S
H1105 C1111 0.950 . S
H1106 C1112 0.949 . S
C1107 H1102 0.950 . S
C1107 C1109 1.327 . S
C1107 C1113 1.429 . S
C1108 C1100 1.574 . S
C1108 H1103 0.949 . S
C1108 C1114 1.368 1_545 S
C1109 C1093 1.349 . S
C1109 H1101 0.950 . S
C1109 C1107 1.327 . S
C1110 C1098 1.349 . S
C1110 H1104 0.950 . S
C1110 C1111 1.327 . S
C1111 H1105 0.950 . S
C1111 C1110 1.327 . S
C1111 C1115 1.429 . S
C1112 C1095 1.574 . S
C1112 H1106 0.949 . S
C1112 C1116 1.368 1_565 S
C1113 C1094 1.429 1_565 S
C1113 C1107 1.429 . S
C1113 C1114 1.523 . S
C1114 C1095 1.368 . S
C1114 C1108 1.368 1_565 S
C1114 C1113 1.523 . S
C1115 C1099 1.429 1_545 S
C1115 C1111 1.429 . S
C1115 C1116 1.523 . S
C1116 C1100 1.368 . S
C1116 C1112 1.368 1_545 S
C1116 C1115 1.523 . S
H1117 C1092 0.950 . S
H1118 C1094 0.950 . S
H1119 C1095 0.949 . S
H1120 C1097 0.950 . S
H1121 C1099 0.950 . S
C1122 C1123 1.349 . S
C1122 C1124 1.327 . S
C1122 H1147 0.950 . S
C1123 C1122 1.349 . S
C1123 C1139 1.349 . S
C1124 C1122 1.327 . S
C1124 C1143 1.429 . S
C1124 H1148 0.950 . S
C1125 C1142 1.574 . S
C1125 C1144 1.368 . S
C1125 H1149 0.949 . S
H1126 C1130 0.949 . S
C1127 C1128 1.349 . S
C1127 C1129 1.327 . S
C1127 H1150 0.950 . S
C1128 C1127 1.349 . S
C1128 C1140 1.349 . S
C1129 C1127 1.327 . S
C1129 C1145 1.429 . S
C1129 H1151 0.950 . S
C1130 H1126 0.949 . S
C1130 C1138 1.574 . S
C1130 C1146 1.368 . S
H1131 C1139 0.950 . S
H1132 C1137 0.950 . S
H1133 C1138 0.949 . S
H1134 C1140 0.950 . S
H1135 C1141 0.950 . S
H1136 C1142 0.949 . S
C1137 H1132 0.950 . S
C1137 C1139 1.327 . S
C1137 C1143 1.429 . S
C1138 C1130 1.574 . S
C1138 H1133 0.949 . S
C1138 C1144 1.368 . S
C1139 C1123 1.349 . S
C1139 H1131 0.950 . S
C1139 C1137 1.327 . S
C1140 C1128 1.349 . S
C1140 H1134 0.950 . S
C1140 C1141 1.327 . S
C1141 H1135 0.950 . S
C1141 C1140 1.327 . S
C1141 C1145 1.429 . S
C1142 C1125 1.574 . S
C1142 H1136 0.949 . S
C1142 C1146 1.368 . S
C1143 C1124 1.429 . S
C1143 C1137 1.429 . S
C1143 C1144 1.523 . S
C1144 C1125 1.368 . S
C1144 C1138 1.368 . S
C1144 C1143 1.523 . S
C1145 C1129 1.429 . S
C1145 C1141 1.429 . S
C1145 C1146 1.523 . S
C1146 C1130 1.368 . S
C1146 C1142 1.368 . S
C1146 C1145 1.523 . S
H1147 C1122 0.950 . S
H1148 C1124 0.950 . S
H1149 C1125 0.949 . S
H1150 C1127 0.950 . S
H1151 C1129 0.950 . S
C1152 C1153 1.349 1_556 S
C1152 C1154 1.327 . S
C1152 H1177 0.950 . S
C1153 C1152 1.349 1_554 S
C1153 C1169 1.349 . S
C1154 C1152 1.327 . S
C1154 C1173 1.429 1_556 S
C1154 H1178 0.950 . S
C1155 C1172 1.574 . S
C1155 C1174 1.368 . S
C1155 H1179 0.949 . S
H1156 C1160 0.949 . S
C1157 C1158 1.349 1_554 S
C1157 C1159 1.327 . S
C1157 H1180 0.950 . S
C1158 C1157 1.349 1_556 S
C1158 C1170 1.349 . S
C1159 C1157 1.327 . S
C1159 C1175 1.429 1_554 S
C1159 H1181 0.950 . S
C1160 H1156 0.949 . S
C1160 C1168 1.574 . S
C1160 C1176 1.368 . S
H1161 C1169 0.950 . S
H1162 C1167 0.950 . S
H1163 C1168 0.949 . S
H1164 C1170 0.950 . S
H1165 C1171 0.950 . S
H1166 C1172 0.949 . S
C1167 H1162 0.950 . S
C1167 C1169 1.327 . S
C1167 C1173 1.429 . S
C1168 C1160 1.574 . S
C1168 H1163 0.949 . S
C1168 C1174 1.368 1_556 S
C1169 C1153 1.349 . S
C1169 H1161 0.950 . S
C1169 C1167 1.327 . S
C1170 C1158 1.349 . S
C1170 H1164 0.950 . S
C1170 C1171 1.327 . S
C1171 H1165 0.950 . S
C1171 C1170 1.327 . S
C1171 C1175 1.429 . S
C1172 C1155 1.574 . S
C1172 H1166 0.949 . S
C1172 C1176 1.368 1_554 S
C1173 C1154 1.429 1_554 S
C1173 C1167 1.429 . S
C1173 C1174 1.523 . S
C1174 C1155 1.368 . S
C1174 C1168 1.368 1_554 S
C1174 C1173 1.523 . S
C1175 C1159 1.429 1_556 S
C1175 C1171 1.429 . S
C1175 C1176 1.523 . S
C1176 C1160 1.368 . S
C1176 C1172 1.368 1_556 S
C1176 C1175 1.523 . S
H1177 C1152 0.950 . S
H1178 C1154 0.950 . S
H1179 C1155 0.949 . S
H1180 C1157 0.950 . S
H1181 C1159 0.950 . S
C1182 C1183 1.349 . S
C1182 C1184 1.327 . S
C1182 H1207 0.950 . S
C1183 C1182 1.349 . S
C1183 C1199 1.349 . S
C1184 C1182 1.327 . S
C1184 C1203 1.429 . S
C1184 H1208 0.950 . S
C1185 C1202 1.574 . S
C1185 C1204 1.368 . S
C1185 H1209 0.949 . S
H1186 C1190 0.949 . S
C1187 C1188 1.349 . S
C1187 C1189 1.327 . S
C1187 H1210 0.950 . S
C1188 C1187 1.349 . S
C1188 C1200 1.349 . S
C1189 C1187 1.327 . S
C1189 C1205 1.429 . S
C1189 H1211 0.950 . S
C1190 H1186 0.949 . S
C1190 C1198 1.574 . S
C1190 C1206 1.368 . S
H1191 C1199 0.950 . S
H1192 C1197 0.950 . S
H1193 C1198 0.949 . S
H1194 C1200 0.950 . S
H1195 C1201 0.950 . S
H1196 C1202 0.949 . S
C1197 H1192 0.950 . S
C1197 C1199 1.327 . S
C1197 C1203 1.429 . S
C1198 C1190 1.574 . S
C1198 H1193 0.949 . S
C1198 C1204 1.368 . S
C1199 C1183 1.349 . S
C1199 H1191 0.950 . S
C1199 C1197 1.327 . S
C1200 C1188 1.349 . S
C1200 H1194 0.950 . S
C1200 C1201 1.327 . S
C1201 H1195 0.950 . S
C1201 C1200 1.327 . S
C1201 C1205 1.429 . S
C1202 C1185 1.574 . S
C1202 H1196 0.949 . S
C1202 C1206 1.368 . S
C1203 C1184 1.429 . S
C1203 C1197 1.429 . S
C1203 C1204 1.523 . S
C1204 C1185 1.368 . S
C1204 C1198 1.368 . S
C1204 C1203 1.523 . S
C1205 C1189 1.429 . S
C1205 C1201 1.429 . S
C1205 C1206 1.523 . S
C1206 C1190 1.368 . S
C1206 C1202 1.368 . S
C1206 C1205 1.523 . S
H1207 C1182 0.950 . S
H1208 C1184 0.950 . S
H1209 C1185 0.949 . S
H1210 C1187 0.950 . S
H1211 C1189 0.950 . S
C1212 C1213 1.349 . S
C1212 C1214 1.327 . S
C1212 H1237 0.950 . S
C1213 C1212 1.349 . S
C1213 C1229 1.349 . S
C1214 C1212 1.327 . S
C1214 C1233 1.429 . S
C1214 H1238 0.950 . S
C1215 C1232 1.574 . S
C1215 C1234 1.368 . S
C1215 H1239 0.949 . S
H1216 C1220 0.949 . S
C1217 C1218 1.349 . S
C1217 C1219 1.327 . S
C1217 H1240 0.950 . S
C1218 C1217 1.349 . S
C1218 C1230 1.349 . S
C1219 C1217 1.327 . S
C1219 C1235 1.429 . S
C1219 H1241 0.950 . S
C1220 H1216 0.949 . S
C1220 C1228 1.574 . S
C1220 C1236 1.368 . S
H1221 C1229 0.950 . S
H1222 C1227 0.950 . S
H1223 C1228 0.949 . S
H1224 C1230 0.950 . S
H1225 C1231 0.950 . S
H1226 C1232 0.949 . S
C1227 H1222 0.950 . S
C1227 C1229 1.327 . S
C1227 C1233 1.429 . S
C1228 C1220 1.574 . S
C1228 H1223 0.949 . S
C1228 C1234 1.368 . S
C1229 C1213 1.349 . S
C1229 H1221 0.950 . S
C1229 C1227 1.327 . S
C1230 C1218 1.349 . S
C1230 H1224 0.950 . S
C1230 C1231 1.327 . S
C1231 H1225 0.950 . S
C1231 C1230 1.327 . S
C1231 C1235 1.429 . S
C1232 C1215 1.574 . S
C1232 H1226 0.949 . S
C1232 C1236 1.368 . S
C1233 C1214 1.429 . S
C1233 C1227 1.429 . S
C1233 C1234 1.523 . S
C1234 C1215 1.368 . S
C1234 C1228 1.368 . S
C1234 C1233 1.523 . S
C1235 C1219 1.429 . S
C1235 C1231 1.429 . S
C1235 C1236 1.523 . S
C1236 C1220 1.368 . S
C1236 C1232 1.368 . S
C1236 C1235 1.523 . S
H1237 C1212 0.950 . S
H1238 C1214 0.950 . S
H1239 C1215 0.949 . S
H1240 C1217 0.950 . S
H1241 C1219 0.950 . S
C1242 C1243 1.349 . S
C1242 C1244 1.327 . S
C1242 H1267 0.950 . S
C1243 C1242 1.349 . S
C1243 C1259 1.349 . S
C1244 C1242 1.327 . S
C1244 C1263 1.429 . S
C1244 H1268 0.950 . S
C1245 C1262 1.574 . S
C1245 C1264 1.368 . S
C1245 H1269 0.949 . S
H1246 C1250 0.949 . S
C1247 C1248 1.349 . S
C1247 C1249 1.327 . S
C1247 H1270 0.950 . S
C1248 C1247 1.349 . S
C1248 C1260 1.349 . S
C1249 C1247 1.327 . S
C1249 C1265 1.429 . S
C1249 H1271 0.950 . S
C1250 H1246 0.949 . S
C1250 C1258 1.574 . S
C1250 C1266 1.368 . S
H1251 C1259 0.950 . S
H1252 C1257 0.950 . S
H1253 C1258 0.949 . S
H1254 C1260 0.950 . S
H1255 C1261 0.950 . S
H1256 C1262 0.949 . S
C1257 H1252 0.950 . S
C1257 C1259 1.327 . S
C1257 C1263 1.429 . S
C1258 C1250 1.574 . S
C1258 H1253 0.949 . S
C1258 C1264 1.368 . S
C1259 C1243 1.349 . S
C1259 H1251 0.950 . S
C1259 C1257 1.327 . S
C1260 C1248 1.349 . S
C1260 H1254 0.950 . S
C1260 C1261 1.327 . S
C1261 H1255 0.950 . S
C1261 C1260 1.327 . S
C1261 C1265 1.429 . S
C1262 C1245 1.574 . S
C1262 H1256 0.949 . S
C1262 C1266 1.368 . S
C1263 C1244 1.429 . S
C1263 C1257 1.429 . S
C1263 C1264 1.523 . S
C1264 C1245 1.368 . S
C1264 C1258 1.368 . S
C1264 C1263 1.523 . S
C1265 C1249 1.429 . S
C1265 C1261 1.429 . S
C1265 C1266 1.523 . S
C1266 C1250 1.368 . S
C1266 C1262 1.368 . S
C1266 C1265 1.523 . S
H1267 C1242 0.950 . S
H1268 C1244 0.950 . S
H1269 C1245 0.949 . S
H1270 C1247 0.950 . S
H1271 C1249 0.950 . S
C1272 C1273 1.349 . S
C1272 C1274 1.327 . S
C1272 H1297 0.950 . S
C1273 C1272 1.349 . S
C1273 C1289 1.349 . S
C1274 C1272 1.327 . S
C1274 C1293 1.429 . S
C1274 H1298 0.950 . S
C1275 C1292 1.574 . S
C1275 C1294 1.368 . S
C1275 H1299 0.949 . S
H1276 C1280 0.949 . S
C1277 C1278 1.349 . S
C1277 C1279 1.327 . S
C1277 H1300 0.950 . S
C1278 C1277 1.349 . S
C1278 C1290 1.349 . S
C1279 C1277 1.327 . S
C1279 C1295 1.429 . S
C1279 H1301 0.950 . S
C1280 H1276 0.949 . S
C1280 C1288 1.574 . S
C1280 C1296 1.368 . S
H1281 C1289 0.950 . S
H1282 C1287 0.950 . S
H1283 C1288 0.949 . S
H1284 C1290 0.950 . S
H1285 C1291 0.950 . S
H1286 C1292 0.949 . S
C1287 H1282 0.950 . S
C1287 C1289 1.327 . S
C1287 C1293 1.429 . S
C1288 C1280 1.574 . S
C1288 H1283 0.949 . S
C1288 C1294 1.368 . S
C1289 C1273 1.349 . S
C1289 H1281 0.950 . S
C1289 C1287 1.327 . S
C1290 C1278 1.349 . S
C1290 H1284 0.950 . S
C1290 C1291 1.327 . S
C1291 H1285 0.950 . S
C1291 C1290 1.327 . S
C1291 C1295 1.429 . S
C1292 C1275 1.574 . S
C1292 H1286 0.949 . S
C1292 C1296 1.368 . S
C1293 C1274 1.429 . S
C1293 C1287 1.429 . S
C1293 C1294 1.523 . S
C1294 C1275 1.368 . S
C1294 C1288 1.368 . S
C1294 C1293 1.523 . S
C1295 C1279 1.429 . S
C1295 C1291 1.429 . S
C1295 C1296 1.523 . S
C1296 C1280 1.368 . S
C1296 C1292 1.368 . S
C1296 C1295 1.523 . S
H1297 C1272 0.950 . S
H1298 C1274 0.950 . S
H1299 C1275 0.949 . S
H1300 C1277 0.950 . S
H1301 C1279 0.950 . S
C1302 C1303 1.349 . S
C1302 C1304 1.327 . S
C1302 H1327 0.950 . S
C1303 C1302 1.349 . S
C1303 C1319 1.349 . S
C1304 C1302 1.327 . S
C1304 C1323 1.429 . S
C1304 H1328 0.950 . S
C1305 C1322 1.574 . S
C1305 C1324 1.368 . S
C1305 H1329 0.949 . S
H1306 C1310 0.949 . S
C1307 C1308 1.349 . S
C1307 C1309 1.327 . S
C1307 H1330 0.950 . S
C1308 C1307 1.349 . S
C1308 C1320 1.349 . S
C1309 C1307 1.327 . S
C1309 C1325 1.429 . S
C1309 H1331 0.950 . S
C1310 H1306 0.949 . S
C1310 C1318 1.574 . S
C1310 C1326 1.368 . S
H1311 C1319 0.950 . S
H1312 C1317 0.950 . S
H1313 C1318 0.949 . S
H1314 C1320 0.950 . S
H1315 C1321 0.950 . S
H1316 C1322 0.949 . S
C1317 H1312 0.950 . S
C1317 C1319 1.327 . S
C1317 C1323 1.429 . S
C1318 C1310 1.574 . S
C1318 H1313 0.949 . S
C1318 C1324 1.368 . S
C1319 C1303 1.349 . S
C1319 H1311 0.950 . S
C1319 C1317 1.327 . S
C1320 C1308 1.349 . S
C1320 H1314 0.950 . S
C1320 C1321 1.327 . S
C1321 H1315 0.950 . S
C1321 C1320 1.327 . S
C1321 C1325 1.429 . S
C1322 C1305 1.574 . S
C1322 H1316 0.949 . S
C1322 C1326 1.368 . S
C1323 C1304 1.429 . S
C1323 C1317 1.429 . S
C1323 C1324 1.523 . S
C1324 C1305 1.368 . S
C1324 C1318 1.368 . S
C1324 C1323 1.523 . S
C1325 C1309 1.429 . S
C1325 C1321 1.429 . S
C1325 C1326 1.523 . S
C1326 C1310 1.368 . S
C1326 C1322 1.368 . S
C1326 C1325 1.523 . S
H1327 C1302 0.950 . S
H1328 C1304 0.950 . S
H1329 C1305 0.949 . S
H1330 C1307 0.950 . S
H1331 C1309 0.950 . S
C1332 C1333 1.349 . S
C1332 C1334 1.327 . S
C1332 H1357 0.950 . S
C1333 C1332 1.349 . S
C1333 C1349 1.349 1_545 S
C1334 C1332 1.327 . S
C1334 C1353 1.429 . S
C1334 H1358 0.950 . S
C1335 C1352 1.574 . S
C1335 C1354 1.368 1_565 S
C1335 H1359 0.949 . S
H1336 C1340 0.949 . S
C1337 C1338 1.349 . S
C1337 C1339 1.327 . S
C1337 H1360 0.950 . S
C1338 C1337 1.349 . S
C1338 C1350 1.349 1_565 S
C1339 C1337 1.327 . S
C1339 C1355 1.429 . S
C1339 H1361 0.950 . S
C1340 H1336 0.949 . S
C1340 C1348 1.574 . S
C1340 C1356 1.368 1_545 S
H1341 C1349 0.950 . S
H1342 C1347 0.950 . S
H1343 C1348 0.949 . S
H1344 C1350 0.950 . S
H1345 C1351 0.950 . S
H1346 C1352 0.949 . S
C1347 H1342 0.950 . S
C1347 C1349 1.327 . S
C1347 C1353 1.429 1_565 S
C1348 C1340 1.574 . S
C1348 H1343 0.949 . S
C1348 C1354 1.368 . S
C1349 C1333 1.349 1_565 S
C1349 H1341 0.950 . S
C1349 C1347 1.327 . S
C1350 C1338 1.349 1_545 S
C1350 H1344 0.950 . S
C1350 C1351 1.327 . S
C1351 H1345 0.950 . S
C1351 C1350 1.327 . S
C1351 C1355 1.429 1_545 S
C1352 C1335 1.574 . S
C1352 H1346 0.949 . S
C1352 C1356 1.368 . S
C1353 C1334 1.429 . S
C1353 C1347 1.429 1_545 S
C1353 C1354 1.523 . S
C1354 C1335 1.368 1_545 S
C1354 C1348 1.368 . S
C1354 C1353 1.523 . S
C1355 C1339 1.429 . S
C1355 C1351 1.429 1_565 S
C1355 C1356 1.523 . S
C1356 C1340 1.368 1_565 S
C1356 C1352 1.368 . S
C1356 C1355 1.523 . S
H1357 C1332 0.950 . S
H1358 C1334 0.950 . S
H1359 C1335 0.949 . S
H1360 C1337 0.950 . S
H1361 C1339 0.950 . S
C1362 C1363 1.349 . S
C1362 C1364 1.327 . S
C1362 H1387 0.950 . S
C1363 C1362 1.349 . S
C1363 C1379 1.349 . S
C1364 C1362 1.327 . S
C1364 C1383 1.429 . S
C1364 H1388 0.950 . S
C1365 C1382 1.575 . S
C1365 C1384 1.368 1_554 S
C1365 H1389 0.949 1_554 S
H1366 C1370 0.949 . S
C1367 C1368 1.349 . S
C1367 C1369 1.327 . S
C1367 H1390 0.950 . S
C1368 C1367 1.349 . S
C1368 C1380 1.349 . S
C1369 C1367 1.327 . S
C1369 C1385 1.429 . S
C1369 H1391 0.950 . S
C1370 H1366 0.949 . S
C1370 C1378 1.574 1_554 S
C1370 C1386 1.368 . S
H1371 C1379 0.950 . S
H1372 C1377 0.950 . S
H1373 C1378 0.949 . S
H1374 C1380 0.950 . S
H1375 C1381 0.950 . S
H1376 C1382 0.949 . S
C1377 H1372 0.950 . S
C1377 C1379 1.327 . S
C1377 C1383 1.429 . S
C1378 C1370 1.574 1_556 S
C1378 H1373 0.949 . S
C1378 C1384 1.368 . S
C1379 C1363 1.349 . S
C1379 H1371 0.950 . S
C1379 C1377 1.327 . S
C1380 C1368 1.349 . S
C1380 H1374 0.950 . S
C1380 C1381 1.327 . S
C1381 H1375 0.950 . S
C1381 C1380 1.327 . S
C1381 C1385 1.429 . S
C1382 C1365 1.575 . S
C1382 H1376 0.949 . S
C1382 C1386 1.368 . S
C1383 C1364 1.429 . S
C1383 C1377 1.429 . S
C1383 C1384 1.523 . S
C1384 C1365 1.368 1_556 S
C1384 C1378 1.368 . S
C1384 C1383 1.523 . S
C1385 C1369 1.429 . S
C1385 C1381 1.429 . S
C1385 C1386 1.523 . S
C1386 C1370 1.368 . S
C1386 C1382 1.368 . S
C1386 C1385 1.523 . S
H1387 C1362 0.950 . S
H1388 C1364 0.950 . S
H1389 C1365 0.949 1_556 S
H1390 C1367 0.950 . S
H1391 C1369 0.950 . S
C1392 C1393 1.349 . S
C1392 C1394 1.327 . S
C1392 H1417 0.950 . S
C1393 C1392 1.349 . S
C1393 C1409 1.349 . S
C1394 C1392 1.327 . S
C1394 C1413 1.429 . S
C1394 H1418 0.950 . S
C1395 C1412 1.574 . S
C1395 C1414 1.368 . S
C1395 H1419 0.949 . S
H1396 C1400 0.949 . S
C1397 C1398 1.349 . S
C1397 C1399 1.327 . S
C1397 H1420 0.950 . S
C1398 C1397 1.349 . S
C1398 C1410 1.349 . S
C1399 C1397 1.327 . S
C1399 C1415 1.429 . S
C1399 H1421 0.950 . S
C1400 H1396 0.949 . S
C1400 C1408 1.574 . S
C1400 C1416 1.368 . S
H1401 C1409 0.950 . S
H1402 C1407 0.950 . S
H1403 C1408 0.949 . S
H1404 C1410 0.950 . S
H1405 C1411 0.950 . S
H1406 C1412 0.949 . S
C1407 H1402 0.950 . S
C1407 C1409 1.327 . S
C1407 C1413 1.429 . S
C1408 C1400 1.574 . S
C1408 H1403 0.949 . S
C1408 C1414 1.368 1_545 S
C1409 C1393 1.349 . S
C1409 H1401 0.950 . S
C1409 C1407 1.327 . S
C1410 C1398 1.349 . S
C1410 H1404 0.950 . S
C1410 C1411 1.327 . S
C1411 H1405 0.950 . S
C1411 C1410 1.327 . S
C1411 C1415 1.429 . S
C1412 C1395 1.574 . S
C1412 H1406 0.949 . S
C1412 C1416 1.368 1_565 S
C1413 C1394 1.429 . S
C1413 C1407 1.429 . S
C1413 C1414 1.523 . S
C1414 C1395 1.368 . S
C1414 C1408 1.368 1_565 S
C1414 C1413 1.523 . S
C1415 C1399 1.429 . S
C1415 C1411 1.429 . S
C1415 C1416 1.523 . S
C1416 C1400 1.368 . S
C1416 C1412 1.368 1_545 S
C1416 C1415 1.523 . S
H1417 C1392 0.950 . S
H1418 C1394 0.950 . S
H1419 C1395 0.949 . S
H1420 C1397 0.950 . S
H1421 C1399 0.950 . S
C1422 C1423 1.349 . S
C1422 C1424 1.327 . S
C1422 H1447 0.950 . S
C1423 C1422 1.349 . S
C1423 C1439 1.349 . S
C1424 C1422 1.327 . S
C1424 C1443 1.429 . S
C1424 H1448 0.950 . S
C1425 C1442 1.574 . S
C1425 C1444 1.368 . S
C1425 H1449 0.949 . S
H1426 C1430 0.949 . S
C1427 C1428 1.349 . S
C1427 C1429 1.327 . S
C1427 H1450 0.950 . S
C1428 C1427 1.349 . S
C1428 C1440 1.349 . S
C1429 C1427 1.327 . S
C1429 C1445 1.429 . S
C1429 H1451 0.950 . S
C1430 H1426 0.949 . S
C1430 C1438 1.574 . S
C1430 C1446 1.368 . S
H1431 C1439 0.950 . S
H1432 C1437 0.950 . S
H1433 C1438 0.949 . S
H1434 C1440 0.950 . S
H1435 C1441 0.950 . S
H1436 C1442 0.949 . S
C1437 H1432 0.950 . S
C1437 C1439 1.327 . S
C1437 C1443 1.429 . S
C1438 C1430 1.574 . S
C1438 H1433 0.949 . S
C1438 C1444 1.368 . S
C1439 C1423 1.349 . S
C1439 H1431 0.950 . S
C1439 C1437 1.327 . S
C1440 C1428 1.349 . S
C1440 H1434 0.950 . S
C1440 C1441 1.327 . S
C1441 H1435 0.950 . S
C1441 C1440 1.327 . S
C1441 C1445 1.429 . S
C1442 C1425 1.574 . S
C1442 H1436 0.949 . S
C1442 C1446 1.368 . S
C1443 C1424 1.429 . S
C1443 C1437 1.429 . S
C1443 C1444 1.523 . S
C1444 C1425 1.368 . S
C1444 C1438 1.368 . S
C1444 C1443 1.523 . S
C1445 C1429 1.429 . S
C1445 C1441 1.429 . S
C1445 C1446 1.523 . S
C1446 C1430 1.368 . S
C1446 C1442 1.368 . S
C1446 C1445 1.523 . S
H1447 C1422 0.950 . S
H1448 C1424 0.950 . S
H1449 C1425 0.949 . S
H1450 C1427 0.950 . S
H1451 C1429 0.950 . S
C1452 C1453 1.349 . S
C1452 C1454 1.327 . S
C1452 H1477 0.950 . S
C1453 C1452 1.349 . S
C1453 C1469 1.349 1_545 S
C1454 C1452 1.327 . S
C1454 C1473 1.429 . S
C1454 H1478 0.950 . S
C1455 C1472 1.574 . S
C1455 C1474 1.368 1_565 S
C1455 H1479 0.949 . S
H1456 C1460 0.949 . S
C1457 C1458 1.349 1_565 S
C1457 C1459 1.327 . S
C1457 H1480 0.950 . S
C1458 C1457 1.349 1_545 S
C1458 C1470 1.349 . S
C1459 C1457 1.327 . S
C1459 C1475 1.429 1_565 S
C1459 H1481 0.950 . S
C1460 H1456 0.949 . S
C1460 C1468 1.574 1_554 S
C1460 C1476 1.368 . S
H1461 C1469 0.950 . S
H1462 C1467 0.950 . S
H1463 C1468 0.949 . S
H1464 C1470 0.950 . S
H1465 C1471 0.950 . S
H1466 C1472 0.949 . S
C1467 H1462 0.950 . S
C1467 C1469 1.327 . S
C1467 C1473 1.429 1_565 S
C1468 C1460 1.574 1_556 S
C1468 H1463 0.949 . S
C1468 C1474 1.368 . S
C1469 C1453 1.349 1_565 S
C1469 H1461 0.950 . S
C1469 C1467 1.327 . S
C1470 C1458 1.349 . S
C1470 H1464 0.950 . S
C1470 C1471 1.327 . S
C1471 H1465 0.950 . S
C1471 C1470 1.327 . S
C1471 C1475 1.429 . S
C1472 C1455 1.574 . S
C1472 H1466 0.949 . S
C1472 C1476 1.368 1_566 S
C1473 C1454 1.429 . S
C1473 C1467 1.429 1_545 S
C1473 C1474 1.523 . S
C1474 C1455 1.368 1_545 S
C1474 C1468 1.368 . S
C1474 C1473 1.523 . S
C1475 C1459 1.429 1_545 S
C1475 C1471 1.429 . S
C1475 C1476 1.523 . S
C1476 C1460 1.368 . S
C1476 C1472 1.368 1_544 S
C1476 C1475 1.523 . S
H1477 C1452 0.950 . S
H1478 C1454 0.950 . S
H1479 C1455 0.949 . S
H1480 C1457 0.950 . S
H1481 C1459 0.950 . S
C1482 C1483 1.349 . S
C1482 C1484 1.327 . S
C1482 H1507 0.950 . S
C1483 C1482 1.349 . S
C1483 C1499 1.349 . S
C1484 C1482 1.327 . S
C1484 C1503 1.429 . S
C1484 H1508 0.950 . S
C1485 C1502 1.574 . S
C1485 C1504 1.368 1_556 S
C1485 H1509 0.949 . S
H1486 C1490 0.949 . S
C1487 C1488 1.349 . S
C1487 C1489 1.327 . S
C1487 H1510 0.950 . S
C1488 C1487 1.349 . S
C1488 C1500 1.349 . S
C1489 C1487 1.327 . S
C1489 C1505 1.429 . S
C1489 H1511 0.950 . S
C1490 H1486 0.949 . S
C1490 C1498 1.574 1_556 S
C1490 C1506 1.368 . S
H1491 C1499 0.950 . S
H1492 C1497 0.950 . S
H1493 C1498 0.949 . S
H1494 C1500 0.950 . S
H1495 C1501 0.950 . S
H1496 C1502 0.949 . S
C1497 H1492 0.950 . S
C1497 C1499 1.327 . S
C1497 C1503 1.429 . S
C1498 C1490 1.574 1_554 S
C1498 H1493 0.949 . S
C1498 C1504 1.368 . S
C1499 C1483 1.349 . S
C1499 H1491 0.950 . S
C1499 C1497 1.327 . S
C1500 C1488 1.349 . S
C1500 H1494 0.950 . S
C1500 C1501 1.327 . S
C1501 H1495 0.950 . S
C1501 C1500 1.327 . S
C1501 C1505 1.429 . S
C1502 C1485 1.574 . S
C1502 H1496 0.949 . S
C1502 C1506 1.368 . S
C1503 C1484 1.429 . S
C1503 C1497 1.429 . S
C1503 C1504 1.523 . S
C1504 C1485 1.368 1_554 S
C1504 C1498 1.368 . S
C1504 C1503 1.523 . S
C1505 C1489 1.429 . S
C1505 C1501 1.429 . S
C1505 C1506 1.523 . S
C1506 C1490 1.368 . S
C1506 C1502 1.368 . S
C1506 C1505 1.523 . S
H1507 C1482 0.950 . S
H1508 C1484 0.950 . S
H1509 C1485 0.949 . S
H1510 C1487 0.950 . S
H1511 C1489 0.950 . S
C1512 C1513 1.349 . S
C1512 C1514 1.327 . S
C1512 H1537 0.950 . S
C1513 C1512 1.349 . S
C1513 C1529 1.349 1_565 S
C1514 C1512 1.327 . S
C1514 C1533 1.429 . S
C1514 H1538 0.950 . S
C1515 C1532 1.574 . S
C1515 C1534 1.368 1_545 S
C1515 H1539 0.949 . S
H1516 C1520 0.949 . S
C1517 C1518 1.349 1_545 S
C1517 C1519 1.327 . S
C1517 H1540 0.950 . S
C1518 C1517 1.349 1_565 S
C1518 C1530 1.349 . S
C1519 C1517 1.327 . S
C1519 C1535 1.429 1_545 S
C1519 H1541 0.950 . S
C1520 H1516 0.949 . S
C1520 C1528 1.574 . S
C1520 C1536 1.368 . S
H1521 C1529 0.950 . S
H1522 C1527 0.950 . S
H1523 C1528 0.949 . S
H1524 C1530 0.950 . S
H1525 C1531 0.950 . S
H1526 C1532 0.949 . S
C1527 H1522 0.950 . S
C1527 C1529 1.327 . S
C1527 C1533 1.429 1_545 S
C1528 C1520 1.574 . S
C1528 H1523 0.949 . S
C1528 C1534 1.368 . S
C1529 C1513 1.349 1_545 S
C1529 H1521 0.950 . S
C1529 C1527 1.327 . S
C1530 C1518 1.349 . S
C1530 H1524 0.950 . S
C1530 C1531 1.327 . S
C1531 H1525 0.950 . S
C1531 C1530 1.327 . S
C1531 C1535 1.429 . S
C1532 C1515 1.574 . S
C1532 H1526 0.949 . S
C1532 C1536 1.368 1_545 S
C1533 C1514 1.429 . S
C1533 C1527 1.429 1_565 S
C1533 C1534 1.523 . S
C1534 C1515 1.368 1_565 S
C1534 C1528 1.368 . S
C1534 C1533 1.523 . S
C1535 C1519 1.429 1_565 S
C1535 C1531 1.429 . S
C1535 C1536 1.523 . S
C1536 C1520 1.368 . S
C1536 C1532 1.368 1_565 S
C1536 C1535 1.523 . S
H1537 C1512 0.950 . S
H1538 C1514 0.950 . S
H1539 C1515 0.949 . S
H1540 C1517 0.950 . S
H1541 C1519 0.950 . S
C1542 C1543 1.349 . S
C1542 C1544 1.327 . S
C1542 H1567 0.950 . S
C1543 C1542 1.349 . S
C1543 C1559 1.349 . S
C1544 C1542 1.327 . S
C1544 C1563 1.429 . S
C1544 H1568 0.950 . S
C1545 C1562 1.574 . S
C1545 C1564 1.368 . S
C1545 H1569 0.949 . S
H1546 C1550 0.949 . S
C1547 C1548 1.349 . S
C1547 C1549 1.327 . S
C1547 H1570 0.950 . S
C1548 C1547 1.349 . S
C1548 C1560 1.349 . S
C1549 C1547 1.327 . S
C1549 C1565 1.429 . S
C1549 H1571 0.950 . S
C1550 H1546 0.949 . S
C1550 C1558 1.574 . S
C1550 C1566 1.368 . S
H1551 C1559 0.950 . S
H1552 C1557 0.950 . S
H1553 C1558 0.949 . S
H1554 C1560 0.950 . S
H1555 C1561 0.950 . S
H1556 C1562 0.949 . S
C1557 H1552 0.950 . S
C1557 C1559 1.327 . S
C1557 C1563 1.429 . S
C1558 C1550 1.574 . S
C1558 H1553 0.949 . S
C1558 C1564 1.368 . S
C1559 C1543 1.349 . S
C1559 H1551 0.950 . S
C1559 C1557 1.327 . S
C1560 C1548 1.349 . S
C1560 H1554 0.950 . S
C1560 C1561 1.327 . S
C1561 H1555 0.950 . S
C1561 C1560 1.327 . S
C1561 C1565 1.429 . S
C1562 C1545 1.574 . S
C1562 H1556 0.949 . S
C1562 C1566 1.368 . S
C1563 C1544 1.429 . S
C1563 C1557 1.429 . S
C1563 C1564 1.523 . S
C1564 C1545 1.368 . S
C1564 C1558 1.368 . S
C1564 C1563 1.523 . S
C1565 C1549 1.429 . S
C1565 C1561 1.429 . S
C1565 C1566 1.523 . S
C1566 C1550 1.368 . S
C1566 C1562 1.368 . S
C1566 C1565 1.523 . S
H1567 C1542 0.950 . S
H1568 C1544 0.950 . S
H1569 C1545 0.949 . S
H1570 C1547 0.950 . S
H1571 C1549 0.950 . S
C1572 C1573 1.349 . S
C1572 C1574 1.327 . S
C1572 H1597 0.950 . S
C1573 C1572 1.349 . S
C1573 C1589 1.349 1_554 S
C1574 C1572 1.327 . S
C1574 C1593 1.429 . S
C1574 H1598 0.950 . S
C1575 C1592 1.574 1_455 S
C1575 C1594 1.368 1_556 S
C1575 H1599 0.949 . S
H1576 C1580 0.949 . S
C1577 C1578 1.349 1_556 S
C1577 C1579 1.327 . S
C1577 H1600 0.950 . S
C1578 C1577 1.349 1_554 S
C1578 C1590 1.349 . S
C1579 C1577 1.327 . S
C1579 C1595 1.429 1_556 S
C1579 H1601 0.950 . S
C1580 H1576 0.949 . S
C1580 C1588 1.574 . S
C1580 C1596 1.368 . S
H1581 C1589 0.950 . S
H1582 C1587 0.950 . S
H1583 C1588 0.949 . S
H1584 C1590 0.950 . S
H1585 C1591 0.950 . S
H1586 C1592 0.949 . S
C1587 H1582 0.950 . S
C1587 C1589 1.327 . S
C1587 C1593 1.429 1_556 S
C1588 C1580 1.574 . S
C1588 H1583 0.949 . S
C1588 C1594 1.368 1_655 S
C1589 C1573 1.349 1_556 S
C1589 H1581 0.950 . S
C1589 C1587 1.327 . S
C1590 C1578 1.349 . S
C1590 H1584 0.950 . S
C1590 C1591 1.327 . S
C1591 H1585 0.950 . S
C1591 C1590 1.327 . S
C1591 C1595 1.429 . S
C1592 C1575 1.574 1_655 S
C1592 H1586 0.949 . S
C1592 C1596 1.368 1_556 S
C1593 C1574 1.429 . S
C1593 C1587 1.429 1_554 S
C1593 C1594 1.523 . S
C1594 C1575 1.368 1_554 S
C1594 C1588 1.368 1_455 S
C1594 C1593 1.523 . S
C1595 C1579 1.429 1_554 S
C1595 C1591 1.429 . S
C1595 C1596 1.523 . S
C1596 C1580 1.368 . S
C1596 C1592 1.368 1_554 S
C1596 C1595 1.523 . S
H1597 C1572 0.950 . S
H1598 C1574 0.950 . S
H1599 C1575 0.949 . S
H1600 C1577 0.950 . S
H1601 C1579 0.950 . S
C1602 C1603 1.349 . S
C1602 C1604 1.327 . S
C1602 H1627 0.950 . S
C1603 C1602 1.349 . S
C1603 C1619 1.349 . S
C1604 C1602 1.327 . S
C1604 C1623 1.429 . S
C1604 H1628 0.950 . S
C1605 C1622 1.574 . S
C1605 C1624 1.368 1_655 S
C1605 H1629 0.949 . S
H1606 C1610 0.949 . S
C1607 C1608 1.349 . S
C1607 C1609 1.327 . S
C1607 H1630 0.950 . S
C1608 C1607 1.349 . S
C1608 C1620 1.349 . S
C1609 C1607 1.327 . S
C1609 C1625 1.429 . S
C1609 H1631 0.950 . S
C1610 H1606 0.949 . S
C1610 C1618 1.576 . S
C1610 C1626 1.365 1_455 S
H1611 C1619 0.950 . S
H1612 C1617 0.950 . S
H1613 C1618 0.949 . S
H1614 C1620 0.950 . S
H1615 C1621 0.950 . S
H1616 C1622 0.949 . S
C1617 H1612 0.950 . S
C1617 C1619 1.327 . S
C1617 C1623 1.429 . S
C1618 C1610 1.576 . S
C1618 H1613 0.949 . S
C1618 C1624 1.368 . S
C1619 C1603 1.349 . S
C1619 H1611 0.950 . S
C1619 C1617 1.327 . S
C1620 C1608 1.349 . S
C1620 H1614 0.950 . S
C1620 C1621 1.327 . S
C1621 H1615 0.950 . S
C1621 C1620 1.327 . S
C1621 C1625 1.429 . S
C1622 C1605 1.574 . S
C1622 H1616 0.949 . S
C1622 C1626 1.368 . S
C1623 C1604 1.429 . S
C1623 C1617 1.429 . S
C1623 C1624 1.523 . S
C1624 C1605 1.368 1_455 S
C1624 C1618 1.368 . S
C1624 C1623 1.523 . S
C1625 C1609 1.429 . S
C1625 C1621 1.429 . S
C1625 C1626 1.523 . S
C1626 C1610 1.365 1_655 S
C1626 C1622 1.368 . S
C1626 C1625 1.523 . S
H1627 C1602 0.950 . S
H1628 C1604 0.950 . S
H1629 C1605 0.949 . S
H1630 C1607 0.950 . S
H1631 C1609 0.950 . S
C1632 C1633 1.349 . S
C1632 C1634 1.327 . S
C1632 H1657 0.950 . S
C1633 C1632 1.349 . S
C1633 C1649 1.349 . S
C1634 C1632 1.327 . S
C1634 C1653 1.429 . S
C1634 H1658 0.950 . S
C1635 C1652 1.574 . S
C1635 C1654 1.368 . S
C1635 H1659 0.949 . S
H1636 C1640 0.949 . S
C1637 C1638 1.349 . S
C1637 C1639 1.327 . S
C1637 H1660 0.950 . S
C1638 C1637 1.349 . S
C1638 C1650 1.349 . S
C1639 C1637 1.327 . S
C1639 C1655 1.429 . S
C1639 H1661 0.950 . S
C1640 H1636 0.949 . S
C1640 C1648 1.574 . S
C1640 C1656 1.368 . S
H1641 C1649 0.950 . S
H1642 C1647 0.950 . S
H1643 C1648 0.949 . S
H1644 C1650 0.950 . S
H1645 C1651 0.950 . S
H1646 C1652 0.949 . S
C1647 H1642 0.950 . S
C1647 C1649 1.327 . S
C1647 C1653 1.429 . S
C1648 C1640 1.574 . S
C1648 H1643 0.949 . S
C1648 C1654 1.368 . S
C1649 C1633 1.349 . S
C1649 H1641 0.950 . S
C1649 C1647 1.327 . S
C1650 C1638 1.349 . S
C1650 H1644 0.950 . S
C1650 C1651 1.327 . S
C1651 H1645 0.950 . S
C1651 C1650 1.327 . S
C1651 C1655 1.429 . S
C1652 C1635 1.574 . S
C1652 H1646 0.949 . S
C1652 C1656 1.368 . S
C1653 C1634 1.429 . S
C1653 C1647 1.429 . S
C1653 C1654 1.523 . S
C1654 C1635 1.368 . S
C1654 C1648 1.368 . S
C1654 C1653 1.523 . S
C1655 C1639 1.429 . S
C1655 C1651 1.429 . S
C1655 C1656 1.523 . S
C1656 C1640 1.368 . S
C1656 C1652 1.368 . S
C1656 C1655 1.523 . S
H1657 C1632 0.950 . S
H1658 C1634 0.950 . S
H1659 C1635 0.949 . S
H1660 C1637 0.950 . S
H1661 C1639 0.950 . S
C1662 C1663 1.349 . S
C1662 C1664 1.327 . S
C1662 H1687 0.950 . S
C1663 C1662 1.349 . S
C1663 C1679 1.349 . S
C1664 C1662 1.327 . S
C1664 C1683 1.429 . S
C1664 H1688 0.950 . S
C1665 C1682 1.574 . S
C1665 C1684 1.368 . S
C1665 H1689 0.949 . S
H1666 C1670 0.949 . S
C1667 C1668 1.349 . S
C1667 C1669 1.327 . S
C1667 H1690 0.950 . S
C1668 C1667 1.349 . S
C1668 C1680 1.349 . S
C1669 C1667 1.327 . S
C1669 C1685 1.429 . S
C1669 H1691 0.950 . S
C1670 H1666 0.949 . S
C1670 C1678 1.574 . S
C1670 C1686 1.368 . S
H1671 C1679 0.950 . S
H1672 C1677 0.950 . S
H1673 C1678 0.949 . S
H1674 C1680 0.950 . S
H1675 C1681 0.950 . S
H1676 C1682 0.949 . S
C1677 H1672 0.950 . S
C1677 C1679 1.327 . S
C1677 C1683 1.429 . S
C1678 C1670 1.574 . S
C1678 H1673 0.949 . S
C1678 C1684 1.368 . S
C1679 C1663 1.349 . S
C1679 H1671 0.950 . S
C1679 C1677 1.327 . S
C1680 C1668 1.349 . S
C1680 H1674 0.950 . S
C1680 C1681 1.327 . S
C1681 H1675 0.950 . S
C1681 C1680 1.327 . S
C1681 C1685 1.429 . S
C1682 C1665 1.574 . S
C1682 H1676 0.949 . S
C1682 C1686 1.368 . S
C1683 C1664 1.429 . S
C1683 C1677 1.429 . S
C1683 C1684 1.523 . S
C1684 C1665 1.368 . S
C1684 C1678 1.368 . S
C1684 C1683 1.523 . S
C1685 C1669 1.429 . S
C1685 C1681 1.429 . S
C1685 C1686 1.523 . S
C1686 C1670 1.368 . S
C1686 C1682 1.368 . S
C1686 C1685 1.523 . S
H1687 C1662 0.950 . S
H1688 C1664 0.950 . S
H1689 C1665 0.949 . S
H1690 C1667 0.950 . S
H1691 C1669 0.950 . S
C1692 C1693 1.349 . S
C1692 C1694 1.327 . S
C1692 H1717 0.950 . S
C1693 C1692 1.349 . S
C1693 C1709 1.349 . S
C1694 C1692 1.327 . S
C1694 C1713 1.429 . S
C1694 H1718 0.950 . S
C1695 C1712 1.574 1_565 S
C1695 C1714 1.368 . S
C1695 H1719 0.949 . S
H1696 C1700 0.949 1_545 S
C1697 C1698 1.349 . S
C1697 C1699 1.327 . S
C1697 H1720 0.950 . S
C1698 C1697 1.349 . S
C1698 C1710 1.349 . S
C1699 C1697 1.327 . S
C1699 C1715 1.429 . S
C1699 H1721 0.950 . S
C1700 H1696 0.949 1_565 S
C1700 C1708 1.574 . S
C1700 C1716 1.368 1_565 S
H1701 C1709 0.950 . S
H1702 C1707 0.950 . S
H1703 C1708 0.949 . S
H1704 C1710 0.950 . S
H1705 C1711 0.950 . S
H1706 C1712 0.949 . S
C1707 H1702 0.950 . S
C1707 C1709 1.327 . S
C1707 C1713 1.429 . S
C1708 C1700 1.574 . S
C1708 H1703 0.949 . S
C1708 C1714 1.368 . S
C1709 C1693 1.349 . S
C1709 H1701 0.950 . S
C1709 C1707 1.327 . S
C1710 C1698 1.349 . S
C1710 H1704 0.950 . S
C1710 C1711 1.327 . S
C1711 H1705 0.950 . S
C1711 C1710 1.327 . S
C1711 C1715 1.429 . S
C1712 C1695 1.574 1_545 S
C1712 H1706 0.949 . S
C1712 C1716 1.368 . S
C1713 C1694 1.429 . S
C1713 C1707 1.429 . S
C1713 C1714 1.523 . S
C1714 C1695 1.368 . S
C1714 C1708 1.368 . S
C1714 C1713 1.523 . S
C1715 C1699 1.429 . S
C1715 C1711 1.429 . S
C1715 C1716 1.523 . S
C1716 C1700 1.368 1_545 S
C1716 C1712 1.368 . S
C1716 C1715 1.523 . S
H1717 C1692 0.950 . S
H1718 C1694 0.950 . S
H1719 C1695 0.949 . S
H1720 C1697 0.950 . S
H1721 C1699 0.950 . S
C1722 C1723 1.349 1_554 S
C1722 C1724 1.327 . S
C1722 H1747 0.950 . S
C1723 C1722 1.349 1_556 S
C1723 C1739 1.349 . S
C1724 C1722 1.327 . S
C1724 C1743 1.429 1_554 S
C1724 H1748 0.950 . S
C1725 C1742 1.574 . S
C1725 C1744 1.368 . S
C1725 H1749 0.949 . S
H1726 C1730 0.949 . S
C1727 C1728 1.349 . S
C1727 C1729 1.327 . S
C1727 H1750 0.950 . S
C1728 C1727 1.349 . S
C1728 C1740 1.349 1_556 S
C1729 C1727 1.327 . S
C1729 C1745 1.429 . S
C1729 H1751 0.950 . S
C1730 H1726 0.949 . S
C1730 C1738 1.574 . S
C1730 C1746 1.368 1_554 S
H1731 C1739 0.950 . S
H1732 C1737 0.950 . S
H1733 C1738 0.949 . S
H1734 C1740 0.950 . S
H1735 C1741 0.950 . S
H1736 C1742 0.949 . S
C1737 H1732 0.950 . S
C1737 C1739 1.327 . S
C1737 C1743 1.429 . S
C1738 C1730 1.574 . S
C1738 H1733 0.949 . S
C1738 C1744 1.368 1_554 S
C1739 C1723 1.349 . S
C1739 H1731 0.950 . S
C1739 C1737 1.327 . S
C1740 C1728 1.349 1_554 S
C1740 H1734 0.950 . S
C1740 C1741 1.327 . S
C1741 H1735 0.950 . S
C1741 C1740 1.327 . S
C1741 C1745 1.429 1_554 S
C1742 C1725 1.574 . S
C1742 H1736 0.949 . S
C1742 C1746 1.368 . S
C1743 C1724 1.429 1_556 S
C1743 C1737 1.429 . S
C1743 C1744 1.523 . S
C1744 C1725 1.368 . S
C1744 C1738 1.368 1_556 S
C1744 C1743 1.523 . S
C1745 C1729 1.429 . S
C1745 C1741 1.429 1_556 S
C1745 C1746 1.523 . S
C1746 C1730 1.368 1_556 S
C1746 C1742 1.368 . S
C1746 C1745 1.523 . S
H1747 C1722 0.950 . S
H1748 C1724 0.950 . S
H1749 C1725 0.949 . S
H1750 C1727 0.950 . S
H1751 C1729 0.950 . S
C313 C226 0.588 . S
C318 C8 0.566 . S
C343 C21 0.561 . S
C348 C213 0.648 . S
C373 C34 0.582 . S
C378 C252 0.596 . S
C403 C47 0.581 . S
C408 C239 0.642 . S
C433 C60 0.574 . S
C438 C278 0.591 . S
C463 C73 0.554 . S
C468 C291 0.586 . S
C493 C265 0.650 . S
C498 C86 0.556 . S
C523 C148 0.635 . S
C528 C99 0.556 . S
C553 C112 0.574 . S
C558 C44 0.591 . S
C583 C18 0.581 . S
C588 C125 0.552 . S
C613 C138 0.602 . S
C618 C5 0.623 . S
C643 C151 0.556 . S
C648 C187 0.635 . S
C673 C70 0.658 . S
C678 C164 0.612 . S
C703 C57 0.618 . S
C708 C177 0.600 . S
C733 C190 0.556 . S
C738 C96 0.635 . S
C763 C203 0.554 . S
C768 C83 0.586 . S
C793 C122 0.658 . S
C798 C216 0.612 . S
C823 C135 0.644 . S
C828 C229 0.576 . S
C853 C109 0.618 . S
C858 C242 0.600 . S
C883 C255 0.582 . S
C888 C304 0.596 . S
C913 C200 0.658 . S
C918 C268 0.612 . S
C943 C281 0.581 . S
C948 C174 0.642 . S
C973 C161 0.650 . S
C978 C294 0.556 . S
C1003 C307 0.582 . S
C1008 C31 0.596 . S
C1033 C0 1.502 . S
C1038 C13 1.507 . S
C1063 C39 1.432 . S
C1068 C26 1.428 . S
C1093 C52 1.502 . S
C1098 C78 1.507 . S
C1123 C65 1.618 . S
C1128 C91 1.621 . S
C1153 C286 1.506 . S
C1158 C104 1.503 . S
C1183 C117 1.618 . S
C1188 C143 1.621 . S
C1213 C260 1.550 . S
C1218 C130 1.547 . S
C1243 C169 1.547 . S
C1248 C156 1.550 . S
C1273 C182 1.621 . S
C1278 C195 1.618 . S
C1303 C234 1.547 . S
C1308 C208 1.550 . S
C1333 C221 1.432 . S
C1338 C247 1.428 . S
C1363 C299 1.428 . S
C1368 C273 1.433 . S
C1393 C36 1.122 . S
C1398 C10 1.122 . S
C1423 C23 1.251 . S
C1428 C49 1.251 . S
C1453 C257 1.122 . S
C1458 C62 1.122 . S
C1483 C75 1.213 . S
C1488 C244 1.213 . S
C1513 C88 1.251 . S
C1518 C231 1.251 . S
C1543 C218 1.347 . S
C1548 C101 1.347 . S
C1573 C114 1.122 . S
C1578 C309 1.122 . S
C1603 C127 1.213 . S
C1608 C140 1.213 . S
C1633 C270 1.347 . S
C1638 C153 1.347 . S
C1663 C166 1.347 . S
C1668 C192 1.347 . S
C1693 C179 1.213 . S
C1698 C205 1.213 . S
C1723 C296 1.251 . S
C1728 C283 1.251 . S
