# Generated by pormake.
# Topology dia-f, (3)-cn, num edge types: 1
# Building blocks:
#     Node 0, Type 0, BuildingBlock: OLANEW_clean_sbu_2, # of connection points: 3
#     Node 1, Type 0, BuildingBlock: OLANEW_clean_sbu_2, # of connection points: 3
#     Node 2, Type 0, BuildingBlock: OLANEW_clean_sbu_2, # of connection points: 3
#     Node 3, Type 0, BuildingBlock: OLANEW_clean_sbu_2, # of connection points: 3
#     Node 4, Type 0, BuildingBlock: OLANEW_clean_sbu_2, # of connection points: 3
#     Node 5, Type 0, BuildingBlock: OLANEW_clean_sbu_2, # of connection points: 3
#     Node 6, Type 0, BuildingBlock: OLANEW_clean_sbu_2, # of connection points: 3
#     Node 7, Type 0, BuildingBlock: OLANEW_clean_sbu_2, # of connection points: 3
#     Node 8, Type 0, BuildingBlock: OLANEW_clean_sbu_2, # of connection points: 3
#     Node 9, Type 0, BuildingBlock: OLANEW_clean_sbu_2, # of connection points: 3
#     Node 10, Type 0, BuildingBlock: OLANEW_clean_sbu_2, # of connection points: 3
#     Node 11, Type 0, BuildingBlock: OLANEW_clean_sbu_2, # of connection points: 3
#     Node 12, Type 0, BuildingBlock: OLANEW_clean_sbu_2, # of connection points: 3
#     Node 13, Type 0, BuildingBlock: OLANEW_clean_sbu_2, # of connection points: 3
#     Node 14, Type 0, BuildingBlock: OLANEW_clean_sbu_2, # of connection points: 3
#     Node 15, Type 0, BuildingBlock: OLANEW_clean_sbu_2, # of connection points: 3
#     Edge 16, Type (0, 0), BuildingBlock: MIFKUJ_clean_linker_0, # of connection points: 2
#     Edge 17, Type (0, 0), BuildingBlock: MIFKUJ_clean_linker_0, # of connection points: 2
#     Edge 18, Type (0, 0), BuildingBlock: MIFKUJ_clean_linker_0, # of connection points: 2
#     Edge 19, Type (0, 0), BuildingBlock: MIFKUJ_clean_linker_0, # of connection points: 2
#     Edge 20, Type (0, 0), BuildingBlock: MIFKUJ_clean_linker_0, # of connection points: 2
#     Edge 21, Type (0, 0), BuildingBlock: MIFKUJ_clean_linker_0, # of connection points: 2
#     Edge 22, Type (0, 0), BuildingBlock: MIFKUJ_clean_linker_0, # of connection points: 2
#     Edge 23, Type (0, 0), BuildingBlock: MIFKUJ_clean_linker_0, # of connection points: 2
#     Edge 24, Type (0, 0), BuildingBlock: MIFKUJ_clean_linker_0, # of connection points: 2
#     Edge 25, Type (0, 0), BuildingBlock: MIFKUJ_clean_linker_0, # of connection points: 2
#     Edge 26, Type (0, 0), BuildingBlock: MIFKUJ_clean_linker_0, # of connection points: 2
#     Edge 27, Type (0, 0), BuildingBlock: MIFKUJ_clean_linker_0, # of connection points: 2
#     Edge 28, Type (0, 0), BuildingBlock: MIFKUJ_clean_linker_0, # of connection points: 2
#     Edge 29, Type (0, 0), BuildingBlock: MIFKUJ_clean_linker_0, # of connection points: 2
#     Edge 30, Type (0, 0), BuildingBlock: MIFKUJ_clean_linker_0, # of connection points: 2
#     Edge 31, Type (0, 0), BuildingBlock: MIFKUJ_clean_linker_0, # of connection points: 2
#     Edge 32, Type (0, 0), BuildingBlock: MIFKUJ_clean_linker_0, # of connection points: 2
#     Edge 33, Type (0, 0), BuildingBlock: MIFKUJ_clean_linker_0, # of connection points: 2
#     Edge 34, Type (0, 0), BuildingBlock: MIFKUJ_clean_linker_0, # of connection points: 2
#     Edge 35, Type (0, 0), BuildingBlock: MIFKUJ_clean_linker_0, # of connection points: 2
#     Edge 36, Type (0, 0), BuildingBlock: MIFKUJ_clean_linker_0, # of connection points: 2
#     Edge 37, Type (0, 0), BuildingBlock: MIFKUJ_clean_linker_0, # of connection points: 2
#     Edge 38, Type (0, 0), BuildingBlock: MIFKUJ_clean_linker_0, # of connection points: 2
#     Edge 39, Type (0, 0), BuildingBlock: MIFKUJ_clean_linker_0, # of connection points: 2
# Relax obj value: 0.008
# Max RMSD: 0.058
# Mean RMSD: 0.047
data_MOF--net-dia-f--node1-OLANEW_clean_sbu_2--edge1-MIFKUJ_clean_linker_0
_symmetry_space_group_name_H-M    P1
_symmetry_Int_Tables_number       1
_symmetry_cell_setting            triclinic
loop_
_symmetry_equiv_pos_as_xyz
'x, y, z'
_cell_length_a     94.901214
_cell_length_b     95.012289
_cell_length_c     23.49206
_cell_angle_alpha  90.02758
_cell_angle_beta   89.993209
_cell_angle_gamma 96.697903
loop_
_atom_site_label
_atom_site_type_symbol
_atom_site_fract_x
_atom_site_fract_y
_atom_site_fract_z
_atom_type_partial_charge
O0 O 0.06271 0.6091 0.10393 0.0
Cd1 Cd 0.04298 0.59442 0.1493 0.0
O2 O 0.07541 0.60996 0.1824 0.0
Cd3 Cd 0.05684 0.60333 0.23472 0.0
O4 O 0.04003 0.61204 0.28197 0.0
C5 C 0.04355 0.62456 0.30016 0.0
O6 O 0.05657 0.6305 0.29106 0.0
C7 C 0.0744 0.61261 0.12957 0.0
C8 C 0.04138 0.56688 0.10689 0.0
O9 O 0.03335 0.57568 0.0872 0.0
O10 O 0.04998 0.57103 0.14718 0.0
O11 O 0.6649 0.71149 0.61077 0.0
Cd12 Cd 0.67921 0.72213 0.68951 0.0
O13 O 0.66618 0.73189 0.56639 0.0
Cd14 Cd 0.66015 0.74643 0.50109 0.0
O15 O 0.65241 0.76438 0.45794 0.0
C16 C 0.65065 0.77513 0.48825 0.0
O17 O 0.6537 0.77489 0.54278 0.0
C18 C 0.66172 0.71875 0.56827 0.0
C19 C 0.70823 0.72578 0.66623 0.0
O20 O 0.7021 0.71394 0.6848 0.0
O21 O 0.70061 0.73588 0.65805 0.0
O22 O 0.59281 0.42313 0.72756 0.0
Cd23 Cd 0.58503 0.44542 0.75985 0.0
O24 O 0.57174 0.41197 0.74515 0.0
Cd25 Cd 0.55573 0.39357 0.75497 0.0
O26 O 0.53877 0.37626 0.76854 0.0
C27 C 0.53495 0.37278 0.81895 0.0
O28 O 0.5414 0.37964 0.86194 0.0
C29 C 0.5844 0.4117 0.72756 0.0
C30 C 0.58601 0.46519 0.67186 0.0
O31 O 0.59694 0.46399 0.70273 0.0
O32 O 0.57458 0.45706 0.68273 0.0
O33 O 0.90371 0.28072 0.52393 0.0
Cd34 Cd 0.89164 0.25673 0.53573 0.0
O35 O 0.91999 0.27378 0.46713 0.0
Cd36 Cd 0.91489 0.25117 0.48395 0.0
O37 O 0.92475 0.2328 0.51318 0.0
C38 C 0.93411 0.22843 0.48108 0.0
O39 O 0.93642 0.23434 0.43088 0.0
C40 C 0.91439 0.28369 0.4916 0.0
C41 C 0.86225 0.2569 0.53733 0.0
O42 O 0.86951 0.25808 0.58345 0.0
O43 O 0.86889 0.25554 0.49049 0.0
O44 O 0.05706 0.39121 0.80155 0.0
Cd45 Cd 0.0423 0.40812 0.76074 0.0
O46 O 0.06315 0.38435 0.71646 0.0
Cd47 Cd 0.04733 0.39524 0.67232 0.0
O48 O 0.0264 0.39375 0.63286 0.0
C49 C 0.02488 0.38772 0.58459 0.0
O50 O 0.03615 0.38392 0.55893 0.0
C51 C 0.06432 0.3838 0.77034 0.0
C52 C 0.04222 0.43275 0.82516 0.0
O53 O 0.03206 0.42266 0.82932 0.0
O54 O 0.05244 0.43114 0.79098 0.0
O55 O 0.90548 0.76446 0.64394 0.0
Cd56 Cd 0.88786 0.75335 0.71096 0.0
O57 O 0.90945 0.74366 0.61143 0.0
Cd58 Cd 0.92156 0.729 0.5659 0.0
O59 O 0.93453 0.71381 0.52897 0.0
C60 C 0.94772 0.71739 0.52168 0.0
O61 O 0.95317 0.73028 0.53569 0.0
C62 C 0.91241 0.75707 0.61142 0.0
C63 C 0.85979 0.74944 0.67356 0.0
O64 O 0.86512 0.76125 0.69533 0.0
O65 O 0.86788 0.73962 0.66787 0.0
O66 O 0.60417 0.6098 0.16765 0.0
Cd67 Cd 0.59729 0.58639 0.12668 0.0
O68 O 0.58184 0.61255 0.18214 0.0
Cd69 Cd 0.56451 0.62469 0.20554 0.0
O70 O 0.54591 0.63623 0.20278 0.0
C71 C 0.54676 0.64921 0.21679 0.0
O72 O 0.55894 0.6556 0.23514 0.0
C73 C 0.5949 0.61724 0.18641 0.0
C74 C 0.59486 0.56587 0.2121 0.0
O75 O 0.60679 0.56972 0.18795 0.0
O76 O 0.58401 0.57162 0.19543 0.0
O77 O 0.67073 0.23489 0.55126 0.0
Cd78 Cd 0.6815 0.25955 0.5496 0.0
O79 O 0.65161 0.23919 0.50445 0.0
Cd80 Cd 0.65618 0.26222 0.5089 0.0
O81 O 0.65081 0.28336 0.53004 0.0
C82 C 0.63786 0.2853 0.52417 0.0
O83 O 0.62889 0.27487 0.5043 0.0
C84 C 0.659 0.23043 0.52762 0.0
C85 C 0.71103 0.26074 0.5472 0.0
O86 O 0.7043 0.26082 0.59449 0.0
O87 O 0.7038 0.26026 0.50102 0.0
O88 O 0.43182 0.24715 0.97686 0.0
Cd89 Cd 0.41887 0.2241 0.00074 0.0
O90 O 0.42919 0.24363 0.88474 0.0
Cd91 Cd 0.42185 0.22118 0.89602 0.0
O92 O 0.42813 0.1999 0.90468 0.0
C93 C 0.43961 0.19932 0.93198 0.0
O94 O 0.44597 0.21104 0.95457 0.0
C95 C 0.43347 0.25168 0.92604 0.0
C96 C 0.38987 0.22589 0.01254 0.0
O97 O 0.39812 0.22699 0.05588 0.0
O98 O 0.39532 0.22388 0.96371 0.0
O99 O 0.17788 0.73466 0.01881 0.0
Cd100 Cd 0.18982 0.75886 0.02447 0.0
O101 O 0.16704 0.73824 0.9383 0.0
Cd102 Cd 0.17188 0.76116 0.94607 0.0
O103 O 0.16429 0.7805 0.97799 0.0
C104 C 0.15676 0.77896 0.0228 0.0
O105 O 0.15483 0.76641 0.04696 0.0
C106 C 0.17008 0.72988 0.97748 0.0
C107 C 0.21912 0.75854 0.03205 0.0
O108 O 0.21144 0.75857 0.07693 0.0
O109 O 0.21295 0.7588 0.98359 0.0
O110 O 0.1964 0.22851 0.04504 0.0
Cd111 Cd 0.21346 0.24713 0.08548 0.0
O112 O 0.18268 0.24502 0.02887 0.0
Cd113 Cd 0.16478 0.25487 0.99446 0.0
O114 O 0.15038 0.26942 0.9628 0.0
C115 C 0.14549 0.278 0.99708 0.0
O116 O 0.14889 0.27759 0.05123 0.0
C117 C 0.1848 0.23206 0.02583 0.0
C118 C 0.24163 0.24199 0.07239 0.0
O119 O 0.23472 0.23827 0.11788 0.0
O120 O 0.23518 0.24801 0.03296 0.0
O121 O 0.41113 0.77344 0.06376 0.0
Cd122 Cd 0.39858 0.75 0.0837 0.0
O123 O 0.41822 0.76716 0.97937 0.0
Cd124 Cd 0.41378 0.74471 0.99993 0.0
O125 O 0.42545 0.72835 0.03621 0.0
C126 C 0.43619 0.73331 0.06538 0.0
O127 O 0.43866 0.74711 0.07228 0.0
C128 C 0.41719 0.77673 0.01652 0.0
C129 C 0.36932 0.75054 0.07545 0.0
O130 O 0.37577 0.75273 0.12314 0.0
O131 O 0.3767 0.74798 0.03176 0.0
O132 O 0.56062 0.10267 0.63209 0.0
Cd133 Cd 0.54009 0.08647 0.66271 0.0
O134 O 0.57398 0.09742 0.70374 0.0
Cd135 Cd 0.55532 0.08734 0.74842 0.0
O136 O 0.53578 0.09188 0.79015 0.0
C137 C 0.53726 0.10196 0.82602 0.0
O138 O 0.55014 0.10793 0.83764 0.0
C139 C 0.57262 0.10386 0.65693 0.0
C140 C 0.54077 0.06009 0.61143 0.0
O141 O 0.53379 0.06945 0.58907 0.0
O142 O 0.54726 0.06314 0.65847 0.0
O143 O 0.07081 0.89567 0.19365 0.0
Cd144 Cd 0.05431 0.91247 0.2201 0.0
O145 O 0.05532 0.87878 0.2263 0.0
Cd146 Cd 0.04513 0.85738 0.24525 0.0
O147 O 0.03061 0.8398 0.27926 0.0
C148 C 0.02681 0.84078 0.33086 0.0
O149 O 0.03209 0.85189 0.36055 0.0
C150 C 0.06729 0.88257 0.2032 0.0
C151 C 0.05871 0.93746 0.15711 0.0
O152 O 0.06476 0.9364 0.20546 0.0
O153 O 0.05062 0.92669 0.13858 0.0
O154 O 0.56913 0.89091 0.27722 0.0
Cd155 Cd 0.55175 0.90579 0.24105 0.0
O156 O 0.57142 0.88086 0.19389 0.0
Cd157 Cd 0.55366 0.89 0.15519 0.0
O158 O 0.53212 0.88648 0.12137 0.0
C159 C 0.53027 0.88265 0.06983 0.0
O160 O 0.54143 0.88215 0.03712 0.0
C161 C 0.57508 0.88243 0.2458 0.0
C162 C 0.55082 0.93027 0.30584 0.0
O163 O 0.55974 0.92989 0.26506 0.0
O164 O 0.54235 0.91904 0.31614 0.0
O165 O 0.09519 0.10699 0.77902 0.0
Cd166 Cd 0.0802 0.08667 0.73959 0.0
O167 O 0.07754 0.11939 0.76456 0.0
Cd168 Cd 0.0654 0.13754 0.7575 0.0
O169 O 0.04846 0.15026 0.7351 0.0
C170 C 0.04631 0.15262 0.68274 0.0
O171 O 0.0547 0.14783 0.64461 0.0
C172 C 0.09014 0.11878 0.78216 0.0
C173 C 0.07751 0.06347 0.81305 0.0
O174 O 0.08724 0.06489 0.77493 0.0
O175 O 0.0691 0.07306 0.81649 0.0
H176 H 0.15282 0.71619 0.89643 0.0
H177 H 0.13892 0.69295 0.90456 0.0
H178 H 0.15796 0.68679 0.06801 0.0
H179 H 0.17208 0.70987 0.05987 0.0
H180 H 0.15349 0.66199 0.00881 0.0
H181 H 0.12682 0.70063 0.05957 0.0
H182 H 0.11673 0.72303 0.04253 0.0
H183 H 0.09339 0.70438 0.89935 0.0
H184 H 0.1035 0.68191 0.91514 0.0
H185 H 0.10066 0.62186 0.17214 0.0
H186 H 0.11905 0.63832 0.12784 0.0
H187 H 0.09379 0.63867 0.97528 0.0
H188 H 0.0752 0.6223 0.01965 0.0
H189 H 0.10161 0.66479 0.01266 0.0
H190 H 0.1254 0.62447 0.97441 0.0
H191 H 0.13526 0.60215 0.99522 0.0
H192 H 0.16373 0.62361 0.11763 0.0
H193 H 0.1539 0.64603 0.0982 0.0
C194 C 0.15426 0.70978 0.93364 0.0
C195 C 0.1634 0.71499 0.97793 0.0
C196 C 0.14629 0.69651 0.93822 0.0
C197 C 0.14722 0.68827 0.98736 0.0
C198 C 0.15705 0.69299 0.02979 0.0
C199 C 0.16508 0.70624 0.02515 0.0
C200 C 0.13699 0.67548 0.99746 0.0
C201 C 0.14214 0.66256 0.00979 0.0
C202 C 0.12218 0.67619 0.99748 0.0
C203 C 0.11605 0.68966 0.98809 0.0
C204 C 0.11962 0.70135 0.0242 0.0
C205 C 0.11389 0.71405 0.01481 0.0
C206 C 0.10446 0.71514 0.96977 0.0
C207 C 0.10072 0.70352 0.93414 0.0
C208 C 0.10644 0.69081 0.94328 0.0
C209 C 0.0991 0.62521 0.12877 0.0
C210 C 0.08639 0.62085 0.09964 0.0
C211 C 0.10969 0.63457 0.10332 0.0
C212 C 0.10784 0.63968 0.04809 0.0
C213 C 0.09544 0.63484 0.01792 0.0
C214 C 0.08483 0.62547 0.04335 0.0
C215 C 0.11807 0.65125 0.02485 0.0
C216 C 0.11292 0.66403 0.01038 0.0
C217 C 0.13286 0.65039 0.02326 0.0
C218 C 0.13884 0.63693 0.03506 0.0
C219 C 0.13369 0.62442 0.00609 0.0
C220 C 0.13929 0.61175 0.01758 0.0
C221 C 0.1501 0.61146 0.05778 0.0
C222 C 0.15535 0.62385 0.0865 0.0
C223 C 0.14978 0.63655 0.07519 0.0
H224 H 0.15442 0.60163 0.06662 0.0
H225 H 0.10003 0.72498 0.96258 0.0
H226 H 0.64336 0.77923 0.37712 0.0
H227 H 0.63281 0.79936 0.33734 0.0
H228 H 0.6342 0.81918 0.50279 0.0
H229 H 0.64463 0.79907 0.54302 0.0
H230 H 0.60861 0.81931 0.45345 0.0
H231 H 0.65708 0.83189 0.39924 0.0
H232 H 0.68005 0.82821 0.35618 0.0
H233 H 0.66012 0.82168 0.1927 0.0
H234 H 0.63698 0.82514 0.23494 0.0
H235 H 0.58578 0.88313 0.35435 0.0
H236 H 0.60097 0.86685 0.39667 0.0
H237 H 0.60265 0.84523 0.2357 0.0
H238 H 0.58777 0.86161 0.19278 0.0
H239 H 0.62786 0.84725 0.28662 0.0
H240 H 0.57938 0.83259 0.34105 0.0
H241 H 0.55611 0.83566 0.38299 0.0
H242 H 0.57585 0.84543 0.54494 0.0
H243 H 0.59928 0.84259 0.50373 0.0
C244 C 0.64151 0.78791 0.40499 0.0
C245 C 0.64482 0.78753 0.46327 0.0
C246 C 0.63554 0.79944 0.38212 0.0
C247 C 0.63283 0.81083 0.41702 0.0
C248 C 0.63622 0.81052 0.47509 0.0
C249 C 0.6422 0.79902 0.49797 0.0
C250 C 0.62585 0.82274 0.39353 0.0
C251 C 0.61295 0.82559 0.41761 0.0
C252 C 0.63135 0.83071 0.34595 0.0
C253 C 0.64526 0.82865 0.32038 0.0
C254 C 0.65757 0.82956 0.3542 0.0
C255 C 0.67063 0.82753 0.32991 0.0
C256 C 0.67154 0.82468 0.27176 0.0
C257 C 0.6594 0.82388 0.23775 0.0
C258 C 0.64631 0.82589 0.26183 0.0
C259 C 0.58952 0.87502 0.32776 0.0
C260 C 0.58544 0.8736 0.27029 0.0
C261 C 0.59816 0.86568 0.35209 0.0
C262 C 0.60274 0.85466 0.3196 0.0
C263 C 0.59921 0.85362 0.26164 0.0
C264 C 0.59066 0.86299 0.23721 0.0
C265 C 0.61058 0.84375 0.34637 0.0
C266 C 0.62361 0.84106 0.32283 0.0
C267 C 0.60517 0.83586 0.3943 0.0
C268 C 0.59109 0.83753 0.41916 0.0
C269 C 0.57877 0.8355 0.38549 0.0
C270 C 0.56555 0.83718 0.40915 0.0
C271 C 0.56451 0.84078 0.46655 0.0
C272 C 0.57668 0.84267 0.50046 0.0
C273 C 0.58993 0.84101 0.47699 0.0
H274 H 0.55427 0.84208 0.48479 0.0
H275 H 0.68167 0.82311 0.25305 0.0
H276 H 0.44626 0.27067 0.00327 0.0
H277 H 0.46168 0.29252 0.98328 0.0
H278 H 0.45417 0.28648 0.80334 0.0
H279 H 0.4389 0.26451 0.82284 0.0
H280 H 0.48178 0.29157 0.82511 0.0
H281 H 0.44036 0.31293 0.87728 0.0
H282 H 0.42015 0.3174 0.93794 0.0
H283 H 0.44881 0.33235 0.07204 0.0
H284 H 0.4692 0.32779 0.01245 0.0
H285 H 0.51864 0.35727 0.73974 0.0
H286 H 0.49984 0.33789 0.75686 0.0
H287 H 0.50644 0.34243 0.93794 0.0
H288 H 0.52509 0.362 0.92126 0.0
H289 H 0.4786 0.33855 0.91324 0.0
H290 H 0.51978 0.31608 0.86378 0.0
H291 H 0.54014 0.31142 0.80429 0.0
H292 H 0.51195 0.29829 0.66631 0.0
H293 H 0.49142 0.30306 0.72477 0.0
C294 C 0.44771 0.27408 0.95947 0.0
C295 C 0.44138 0.26579 0.91464 0.0
C296 C 0.4565 0.28662 0.94812 0.0
C297 C 0.45904 0.29117 0.89179 0.0
C298 C 0.45238 0.28316 0.84711 0.0
C299 C 0.44361 0.27061 0.85839 0.0
C300 C 0.46942 0.30373 0.87925 0.0
C301 C 0.48094 0.30191 0.84358 0.0
C302 C 0.46854 0.31711 0.90463 0.0
C303 C 0.4563 0.31989 0.94055 0.0
C304 C 0.44235 0.31706 0.91987 0.0
C305 C 0.43086 0.31963 0.95403 0.0
C306 C 0.43319 0.32512 0.00886 0.0
C307 C 0.44702 0.32808 0.02958 0.0
C308 C 0.45855 0.32552 0.9956 0.0
C309 C 0.51609 0.35417 0.78323 0.0
C310 C 0.52343 0.36114 0.82914 0.0
C311 C 0.50536 0.34306 0.79294 0.0
C312 C 0.50185 0.3386 0.84867 0.0
C313 C 0.50898 0.3457 0.89459 0.0
C314 C 0.51968 0.35685 0.88494 0.0
C315 C 0.49093 0.32637 0.85909 0.0
C316 C 0.47936 0.32823 0.89447 0.0
C317 C 0.49176 0.31299 0.83361 0.0
C318 C 0.50408 0.31007 0.79845 0.0
C319 C 0.51793 0.31231 0.8206 0.0
C320 C 0.5295 0.30963 0.7871 0.0
C321 C 0.52734 0.3046 0.7315 0.0
C322 C 0.5136 0.30221 0.70935 0.0
C323 C 0.502 0.30488 0.74267 0.0
H324 H 0.53631 0.30253 0.70563 0.0
H325 H 0.42428 0.32711 0.03524 0.0
H326 H 0.9351 0.21726 0.58844 0.0
H327 H 0.95261 0.20268 0.62584 0.0
H328 H 0.97208 0.20218 0.46006 0.0
H329 H 0.95459 0.21663 0.42222 0.0
H330 H 0.97069 0.17634 0.51243 0.0
H331 H 0.98571 0.22534 0.55944 0.0
H332 H 0.98289 0.24862 0.60166 0.0
H333 H 0.97693 0.22944 0.76672 0.0
H334 H 0.97953 0.20601 0.72529 0.0
H335 H 0.03969 0.16035 0.57493 0.0
H336 H 0.0192 0.17172 0.54435 0.0
H337 H 0.00466 0.17261 0.7182 0.0
H338 H 0.02533 0.16148 0.74937 0.0
H339 H 0.00212 0.19707 0.66727 0.0
H340 H 0.98887 0.14831 0.62221 0.0
H341 H 0.99164 0.12497 0.58049 0.0
H342 H 0.994 0.14327 0.41319 0.0
H343 H 0.99144 0.16677 0.45398 0.0
C344 C 0.94299 0.21389 0.55973 0.0
C345 C 0.94353 0.21822 0.50243 0.0
C346 C 0.95302 0.20561 0.58126 0.0
C347 C 0.96377 0.20153 0.5459 0.0
C348 C 0.9639 0.20525 0.48811 0.0
C349 C 0.95391 0.21355 0.4666 0.0
C350 C 0.97532 0.19402 0.56945 0.0
C351 C 0.97764 0.1809 0.54599 0.0
C352 C 0.98415 0.19982 0.61421 0.0
C353 C 0.98265 0.21391 0.63917 0.0
C354 C 0.98368 0.22607 0.60466 0.0
C355 C 0.98215 0.2393 0.62845 0.0
C356 C 0.97969 0.2405 0.68681 0.0
C357 C 0.97881 0.22849 0.72151 0.0
C358 C 0.98032 0.21524 0.6979 0.0
C359 C 0.03216 0.16298 0.60675 0.0
C360 C 0.03412 0.15995 0.66459 0.0
C361 C 0.02039 0.1694 0.58912 0.0
C362 C 0.01025 0.17279 0.62884 0.0
C363 C 0.01231 0.17003 0.68676 0.0
C364 C 0.02413 0.16366 0.7045 0.0
C365 C 0.99763 0.17942 0.60987 0.0
C366 C 0.99511 0.19239 0.63413 0.0
C367 C 0.98858 0.17345 0.56597 0.0
C368 C 0.99008 0.15933 0.54123 0.0
C369 C 0.99009 0.14738 0.57656 0.0
C370 C 0.9916 0.13412 0.55307 0.0
C371 C 0.99303 0.13265 0.49424 0.0
C372 C 0.99291 0.14443 0.45876 0.0
C373 C 0.99141 0.15772 0.48204 0.0
H374 H 0.9942 0.12237 0.47614 0.0
H375 H 0.97851 0.25075 0.70516 0.0
H376 H 0.07961 0.36525 0.7156 0.0
H377 H 0.09324 0.34771 0.75802 0.0
H378 H 0.08336 0.36216 0.92582 0.0
H379 H 0.06968 0.37987 0.8837 0.0
H380 H 0.11148 0.35717 0.91497 0.0
H381 H 0.06536 0.33281 0.87639 0.0
H382 H 0.04436 0.32502 0.81764 0.0
H383 H 0.0702 0.30383 0.70321 0.0
H384 H 0.0914 0.31167 0.76086 0.0
H385 H 0.13285 0.29739 0.05937 0.0
H386 H 0.11893 0.31563 0.02401 0.0
H387 H 0.12443 0.3014 0.85186 0.0
H388 H 0.13813 0.28297 0.88692 0.0
H389 H 0.0978 0.30642 0.86912 0.0
H390 H 0.144 0.33134 0.90496 0.0
H391 H 0.1652 0.33932 0.96232 0.0
H392 H 0.1395 0.35954 0.08052 0.0
H393 H 0.11811 0.35151 0.02423 0.0
C394 C 0.08039 0.36481 0.76155 0.0
C395 C 0.07347 0.37392 0.79627 0.0
C396 C 0.08815 0.35472 0.7857 0.0
C397 C 0.08913 0.3535 0.84504 0.0
C398 C 0.08267 0.3629 0.8799 0.0
C399 C 0.07485 0.37299 0.85575 0.0
C400 C 0.09664 0.3422 0.87039 0.0
C401 C 0.10838 0.34605 0.90571 0.0
C402 C 0.09273 0.32773 0.85731 0.0
C403 C 0.07999 0.32294 0.82267 0.0
C404 C 0.06659 0.32659 0.83845 0.0
C405 C 0.05464 0.32215 0.80539 0.0
C406 C 0.05595 0.31397 0.75665 0.0
C407 C 0.0692 0.31018 0.74094 0.0
C408 C 0.08119 0.31461 0.77383 0.0
C409 C 0.13107 0.29811 0.01399 0.0
C410 C 0.13666 0.28875 0.97594 0.0
C411 C 0.12317 0.30859 0.99382 0.0
C412 C 0.12081 0.31001 0.93521 0.0
C413 C 0.12614 0.30052 0.89726 0.0
C414 C 0.134 0.29 0.91738 0.0
C415 C 0.11277 0.32137 0.91328 0.0
C416 C 0.1009 0.31752 0.87863 0.0
C417 C 0.11659 0.33584 0.92685 0.0
C418 C 0.12944 0.34069 0.96071 0.0
C419 C 0.14285 0.33739 0.94343 0.0
C420 C 0.15491 0.34194 0.9757 0.0
C421 C 0.15369 0.3499 0.02512 0.0
C422 C 0.14042 0.35335 0.04228 0.0
C423 C 0.12833 0.34882 0.01019 0.0
H424 H 0.16303 0.35341 0.05004 0.0
H425 H 0.04669 0.31054 0.73111 0.0
H426 H 0.01646 0.84033 0.43919 0.0
H427 H 0.99806 0.82342 0.48081 0.0
H428 H 0.99447 0.79993 0.32326 0.0
H429 H 0.01282 0.81702 0.28073 0.0
H430 H 0.96883 0.80364 0.36353 0.0
H431 H 0.00998 0.78657 0.43919 0.0
H432 H 0.03328 0.78779 0.48644 0.0
H433 H 0.01539 0.80288 0.63954 0.0
H434 H 0.99201 0.80195 0.59296 0.0
H435 H 0.92183 0.74971 0.50605 0.0
H436 H 0.94227 0.76131 0.45318 0.0
H437 H 0.95015 0.79214 0.58768 0.0
H438 H 0.92996 0.78048 0.64097 0.0
H439 H 0.97462 0.78126 0.55155 0.0
H440 H 0.93415 0.80073 0.46955 0.0
H441 H 0.91096 0.79922 0.42118 0.0
H442 H 0.92803 0.77865 0.2783 0.0
H443 H 0.95129 0.77987 0.32621 0.0
C444 C 0.01185 0.83152 0.41337 0.0
C445 C 0.01613 0.83003 0.35661 0.0
C446 C 0.00137 0.8218 0.43738 0.0
C447 C 0.995 0.81029 0.40542 0.0
C448 C 0.99928 0.80871 0.34877 0.0
C449 C 0.00979 0.81846 0.32461 0.0
C450 C 0.9835 0.80032 0.43091 0.0
C451 C 0.97019 0.7985 0.40406 0.0
C452 C 0.9852 0.79371 0.48408 0.0
C453 C 0.99925 0.79428 0.5124 0.0
C454 C 0.01103 0.79025 0.4828 0.0
C455 C 0.02425 0.79087 0.50949 0.0
C456 C 0.02582 0.79543 0.56593 0.0
C457 C 0.01416 0.79936 0.59582 0.0
C458 C 0.00091 0.79876 0.56931 0.0
C459 C 0.92807 0.75881 0.5247 0.0
C460 C 0.92445 0.76406 0.57804 0.0
C461 C 0.93964 0.76551 0.4942 0.0
C462 C 0.94773 0.77757 0.51661 0.0
C463 C 0.94409 0.78281 0.56978 0.0
C464 C 0.9325 0.7762 0.59998 0.0
C465 C 0.95993 0.78493 0.48486 0.0
C466 C 0.97336 0.78622 0.51057 0.0
C467 C 0.95836 0.79096 0.43052 0.0
C468 C 0.9444 0.79023 0.40175 0.0
C469 C 0.93292 0.79577 0.42805 0.0
C470 C 0.91977 0.79499 0.40067 0.0
C471 C 0.91801 0.7888 0.34678 0.0
C472 C 0.9294 0.78342 0.32009 0.0
C473 C 0.94257 0.78415 0.34732 0.0
H474 H 0.90782 0.78822 0.32565 0.0
H475 H 0.03607 0.79591 0.58652 0.0
H476 H 0.43513 0.70439 0.05572 0.0
H477 H 0.453 0.68948 0.08763 0.0
H478 H 0.47805 0.72625 0.15743 0.0
H479 H 0.46039 0.74119 0.12542 0.0
H480 H 0.49387 0.71087 0.09258 0.0
H481 H 0.45992 0.70185 0.24388 0.0
H482 H 0.4363 0.69473 0.28546 0.0
H483 H 0.43565 0.65338 0.211 0.0
H484 H 0.45919 0.66032 0.16829 0.0
H485 H 0.54508 0.67716 0.2406 0.0
H486 H 0.52534 0.69079 0.22069 0.0
H487 H 0.50096 0.65328 0.15362 0.0
H488 H 0.52056 0.63951 0.17419 0.0
H489 H 0.48451 0.66862 0.21694 0.0
H490 H 0.51794 0.67749 0.06442 0.0
H491 H 0.54143 0.68437 0.0213 0.0
H492 H 0.54278 0.72579 0.0958 0.0
H493 H 0.51938 0.71908 0.14004 0.0
C494 C 0.44438 0.70927 0.07832 0.0
C495 C 0.44635 0.72399 0.08788 0.0
C496 C 0.45456 0.70073 0.09669 0.0
C497 C 0.46683 0.70676 0.12511 0.0
C498 C 0.46868 0.72139 0.1355 0.0
C499 C 0.45853 0.72991 0.11726 0.0
C500 C 0.47812 0.69799 0.14175 0.0
C501 C 0.49186 0.70175 0.12046 0.0
C502 C 0.4754 0.68585 0.17674 0.0
C503 C 0.46125 0.68165 0.2024 0.0
C504 C 0.45469 0.69128 0.23596 0.0
C505 C 0.44132 0.68727 0.25982 0.0
C506 C 0.43446 0.67363 0.25075 0.0
C507 C 0.44097 0.66395 0.21791 0.0
C508 C 0.45433 0.66791 0.19391 0.0
C509 C 0.53549 0.67177 0.22201 0.0
C510 C 0.53446 0.65727 0.20854 0.0
C511 C 0.52423 0.67959 0.21049 0.0
C512 C 0.51176 0.6731 0.18485 0.0
C513 C 0.51049 0.65852 0.17326 0.0
C514 C 0.52174 0.65068 0.1849 0.0
C515 C 0.50027 0.68161 0.16824 0.0
C516 C 0.4865 0.67777 0.18923 0.0
C517 C 0.50292 0.69366 0.13271 0.0
C518 C 0.51697 0.69774 0.10601 0.0
C519 C 0.5233 0.68803 0.07197 0.0
C520 C 0.53659 0.6919 0.04727 0.0
C521 C 0.54361 0.70549 0.05593 0.0
C522 C 0.53734 0.71525 0.0892 0.0
C523 C 0.52406 0.71143 0.11406 0.0
H524 H 0.5539 0.70847 0.03676 0.0
H525 H 0.42412 0.67054 0.26926 0.0
H526 H 0.57232 0.12157 0.56546 0.0
H527 H 0.59089 0.13993 0.53566 0.0
H528 H 0.61862 0.12678 0.66592 0.0
H529 H 0.59988 0.10855 0.69709 0.0
H530 H 0.61787 0.154 0.67183 0.0
H531 H 0.62545 0.12244 0.52122 0.0
H532 H 0.61913 0.10593 0.44182 0.0
H533 H 0.60283 0.13915 0.34728 0.0
H534 H 0.60886 0.15583 0.42643 0.0
H535 H 0.67014 0.20921 0.58523 0.0
H536 H 0.6593 0.18478 0.59866 0.0
H537 H 0.6244 0.19285 0.4906 0.0
H538 H 0.63516 0.21721 0.47658 0.0
H539 H 0.63251 0.16608 0.47338 0.0
H540 H 0.62143 0.19594 0.63138 0.0
H541 H 0.62752 0.21239 0.71124 0.0
H542 H 0.65067 0.18166 0.79178 0.0
H543 H 0.64486 0.16508 0.71195 0.0
C544 C 0.58244 0.1224 0.58723 0.0
C545 C 0.58457 0.11364 0.63395 0.0
C546 C 0.59311 0.13287 0.56983 0.0
C547 C 0.60623 0.13469 0.59819 0.0
C548 C 0.60859 0.12558 0.64336 0.0
C549 C 0.59787 0.11514 0.66108 0.0
C550 C 0.6168 0.14701 0.58444 0.0
C551 C 0.62135 0.15642 0.62857 0.0
C552 C 0.62116 0.15035 0.52788 0.0
C553 C 0.61754 0.14037 0.48 0.0
C554 C 0.62043 0.12621 0.48368 0.0
C555 C 0.61691 0.11682 0.43867 0.0
C556 C 0.61057 0.12149 0.38958 0.0
C557 C 0.60775 0.13556 0.38534 0.0
C558 C 0.61123 0.14499 0.43024 0.0
C559 C 0.66027 0.20573 0.5636 0.0
C560 C 0.65343 0.21522 0.53037 0.0
C561 C 0.65409 0.19177 0.57139 0.0
C562 C 0.64097 0.18707 0.54616 0.0
C563 C 0.63452 0.19627 0.51046 0.0
C564 C 0.64066 0.21022 0.50277 0.0
C565 C 0.6333 0.17304 0.56063 0.0
C566 C 0.62926 0.1634 0.51669 0.0
C567 C 0.62942 0.16943 0.61737 0.0
C568 C 0.63286 0.17935 0.66542 0.0
C569 C 0.62791 0.19274 0.66591 0.0
C570 C 0.63129 0.20208 0.71119 0.0
C571 C 0.63952 0.19809 0.75647 0.0
C572 C 0.64433 0.18474 0.75663 0.0
C573 C 0.64099 0.17537 0.71139 0.0
H574 H 0.64212 0.20533 0.79149 0.0
H575 H 0.60785 0.1142 0.35478 0.0
H576 H 0.01804 0.37172 0.48991 0.0
H577 H 0.99482 0.3598 0.46424 0.0
H578 H 0.97586 0.38054 0.60338 0.0
H579 H 0.99922 0.39228 0.63028 0.0
H580 H 0.96922 0.35326 0.61007 0.0
H581 H 0.96706 0.38668 0.46179 0.0
H582 H 0.97544 0.40158 0.37991 0.0
H583 H 0.97978 0.36436 0.28077 0.0
H584 H 0.97162 0.34922 0.36227 0.0
H585 H 0.90755 0.30725 0.54813 0.0
H586 H 0.92173 0.33045 0.55321 0.0
H587 H 0.95123 0.31659 0.43151 0.0
H588 H 0.93707 0.29354 0.42544 0.0
H589 H 0.94836 0.34467 0.41782 0.0
H590 H 0.95647 0.31247 0.57281 0.0
H591 H 0.94902 0.29718 0.65485 0.0
H592 H 0.93417 0.33252 0.7409 0.0
H593 H 0.94139 0.34798 0.65896 0.0
C594 C 0.00891 0.37402 0.51435 0.0
C595 C 0.01052 0.38281 0.56262 0.0
C596 C 0.99557 0.36726 0.49929 0.0
C597 C 0.98354 0.3693 0.5317 0.0
C598 C 0.98499 0.3788 0.57775 0.0
C599 C 0.99836 0.38551 0.59305 0.0
C600 C 0.97003 0.36001 0.52238 0.0
C601 C 0.96441 0.35173 0.56829 0.0
C602 C 0.96389 0.35775 0.4677 0.0
C603 C 0.96877 0.3668 0.41835 0.0
C604 C 0.96989 0.38166 0.42267 0.0
C605 C 0.97459 0.39015 0.37628 0.0
C606 C 0.97815 0.38392 0.32519 0.0
C607 C 0.97701 0.36917 0.32036 0.0
C608 C 0.97232 0.36063 0.36662 0.0
C609 C 0.91687 0.30925 0.52143 0.0
C610 C 0.92131 0.29845 0.48713 0.0
C611 C 0.92497 0.32251 0.52445 0.0
C612 C 0.93766 0.32515 0.49348 0.0
C613 C 0.94149 0.31478 0.45587 0.0
C614 C 0.93341 0.30155 0.45274 0.0
C615 C 0.9479 0.33783 0.50518 0.0
C616 C 0.95293 0.34663 0.4598 0.0
C617 C 0.95358 0.34058 0.5603 0.0
C618 C 0.94929 0.33131 0.60955 0.0
C619 C 0.95152 0.31694 0.60907 0.0
C620 C 0.94736 0.30825 0.65555 0.0
C621 C 0.94108 0.31386 0.70297 0.0
C622 C 0.939 0.32818 0.70407 0.0
C623 C 0.94312 0.33691 0.65764 0.0
H624 H 0.93787 0.30712 0.73893 0.0
H625 H 0.98179 0.39051 0.28933 0.0
H626 H 0.53725 0.12407 0.89993 0.0
H627 H 0.51718 0.13621 0.92849 0.0
H628 H 0.48889 0.10608 0.83322 0.0
H629 H 0.50908 0.09397 0.80332 0.0
H630 H 0.48465 0.13233 0.80707 0.0
H631 H 0.48773 0.1071 0.98069 0.0
H632 H 0.49944 0.0979 0.06421 0.0
H633 H 0.51242 0.14039 0.12107 0.0
H634 H 0.50096 0.14987 0.03749 0.0
H635 H 0.42983 0.17317 0.88831 0.0
H636 H 0.4428 0.1524 0.88146 0.0
H637 H 0.47832 0.17523 0.96924 0.0
H638 H 0.46536 0.19579 0.97757 0.0
H639 H 0.47502 0.14845 0.00263 0.0
H640 H 0.47645 0.17319 0.82118 0.0
H641 H 0.46579 0.18298 0.73628 0.0
H642 H 0.4452 0.14164 0.69396 0.0
H643 H 0.45562 0.13164 0.77904 0.0
C644 C 0.52675 0.11986 0.88569 0.0
C645 C 0.52479 0.10809 0.84908 0.0
C646 C 0.51524 0.12677 0.90243 0.0
C647 C 0.50148 0.12198 0.88352 0.0
C648 C 0.4994 0.10994 0.84848 0.0
C649 C 0.51095 0.10301 0.83154 0.0
C650 C 0.48961 0.13041 0.89605 0.0
C651 C 0.48229 0.13554 0.85002 0.0
C652 C 0.4867 0.13485 0.95195 0.0
C653 C 0.49353 0.12919 0.0026 0.0
C654 C 0.49315 0.11449 0.0108 0.0
C655 C 0.49974 0.10922 0.0582 0.0
C656 C 0.50668 0.11855 0.09789 0.0
C657 C 0.50703 0.13317 0.09032 0.0
C658 C 0.50047 0.1385 0.04298 0.0
C659 C 0.44033 0.17368 0.90684 0.0
C660 C 0.44662 0.18619 0.93293 0.0
C661 C 0.44774 0.16182 0.90274 0.0
C662 C 0.46163 0.16233 0.924 0.0
C663 C 0.46763 0.17457 0.95246 0.0
C664 C 0.46021 0.18637 0.95696 0.0
C665 C 0.4704 0.15062 0.91355 0.0
C666 C 0.47715 0.14492 0.9599 0.0
C667 C 0.47288 0.14572 0.85792 0.0
C668 C 0.46666 0.15171 0.80677 0.0
C669 C 0.46956 0.16622 0.79396 0.0
C670 C 0.46358 0.1718 0.7458 0.0
C671 C 0.45478 0.16295 0.70986 0.0
C672 C 0.45199 0.14849 0.72191 0.0
C673 C 0.45793 0.14286 0.77008 0.0
H674 H 0.45016 0.16728 0.67259 0.0
H675 H 0.51178 0.11445 0.13454 0.0
H676 H 0.61669 0.63689 0.15559 0.0
H677 H 0.62632 0.65794 0.20911 0.0
H678 H 0.59376 0.64868 0.33652 0.0
H679 H 0.58371 0.62807 0.28144 0.0
H680 H 0.5991 0.67573 0.32885 0.0
H681 H 0.62829 0.63798 0.34809 0.0
H682 H 0.64295 0.61978 0.31514 0.0
H683 H 0.67197 0.65193 0.23574 0.0
H684 H 0.65737 0.67031 0.26765 0.0
H685 H 0.63933 0.69842 0.57938 0.0
H686 H 0.62612 0.68507 0.50322 0.0
H687 H 0.65153 0.70943 0.37759 0.0
H688 H 0.66458 0.72309 0.45374 0.0
H689 H 0.65021 0.67738 0.3765 0.0
H690 H 0.62105 0.71544 0.37472 0.0
H691 H 0.60622 0.73222 0.418 0.0
H692 H 0.57687 0.6975 0.47729 0.0
H693 H 0.59166 0.6805 0.43514 0.0
C694 C 0.61144 0.63955 0.19446 0.0
C695 C 0.59947 0.6309 0.21446 0.0
C696 C 0.617 0.65151 0.22522 0.0
C697 C 0.61101 0.65472 0.27773 0.0
C698 C 0.5986 0.64645 0.29624 0.0
C699 C 0.59284 0.63468 0.2647 0.0
C700 C 0.61823 0.66595 0.31529 0.0
C701 C 0.61026 0.67603 0.33938 0.0
C702 C 0.63285 0.66651 0.32884 0.0
C703 C 0.64165 0.65549 0.30966 0.0
C704 C 0.63774 0.64115 0.32326 0.0
C705 C 0.64605 0.63081 0.30482 0.0
C706 C 0.65836 0.63469 0.2732 0.0
C707 C 0.66242 0.64894 0.26011 0.0
C708 C 0.65414 0.65932 0.27838 0.0
C709 C 0.64191 0.70109 0.53548 0.0
C710 C 0.65288 0.71183 0.52229 0.0
C711 C 0.63434 0.69352 0.49214 0.0
C712 C 0.63782 0.69636 0.43496 0.0
C713 C 0.64863 0.70722 0.42155 0.0
C714 C 0.656 0.71503 0.46496 0.0
C715 C 0.63106 0.687 0.38995 0.0
C716 C 0.63911 0.67721 0.36494 0.0
C717 C 0.61648 0.68649 0.37689 0.0
C718 C 0.60754 0.69669 0.40218 0.0
C719 C 0.61151 0.71138 0.39746 0.0
C720 C 0.60309 0.72093 0.42169 0.0
C721 C 0.59063 0.71593 0.45049 0.0
C722 C 0.58654 0.70136 0.45501 0.0
C723 C 0.59493 0.69176 0.4309 0.0
H724 H 0.58412 0.72334 0.4692 0.0
H725 H 0.66478 0.62667 0.25898 0.0
H726 H 0.087 0.88537 0.11884 0.0
H727 H 0.10321 0.86848 0.09022 0.0
H728 H 0.08581 0.83947 0.2203 0.0
H729 H 0.06995 0.85658 0.25058 0.0
H730 H 0.11441 0.84128 0.21738 0.0
H731 H 0.07647 0.83412 0.08114 0.0
H732 H 0.05998 0.84135 0.00858 0.0
H733 H 0.09516 0.8568 0.90193 0.0
H734 H 0.11188 0.84983 0.97423 0.0
H735 H 0.13929 0.77845 0.11521 0.0
H736 H 0.12545 0.79698 0.14764 0.0
H737 H 0.14333 0.8245 0.01353 0.0
H738 H 0.15709 0.80586 0.98008 0.0
H739 H 0.11516 0.82412 0.01802 0.0
H740 H 0.15314 0.83044 0.15278 0.0
H741 H 0.16961 0.82316 0.22532 0.0
H742 H 0.13448 0.80927 0.33474 0.0
H743 H 0.11778 0.81629 0.2625 0.0
C744 C 0.08661 0.87539 0.14134 0.0
C745 C 0.07692 0.87215 0.18602 0.0
C746 C 0.09584 0.86572 0.12473 0.0
C747 C 0.09554 0.8526 0.15242 0.0
C748 C 0.0861 0.84946 0.19792 0.0
C749 C 0.07687 0.85915 0.21459 0.0
C750 C 0.10514 0.8422 0.134 0.0
C751 C 0.11446 0.83738 0.17397 0.0
C752 C 0.10547 0.83743 0.07698 0.0
C753 C 0.09543 0.84158 0.03335 0.0
C754 C 0.08069 0.83916 0.04241 0.0
C755 C 0.0713 0.84319 0.00129 0.0
C756 C 0.07652 0.84957 0.95074 0.0
C757 C 0.09114 0.85188 0.94114 0.0
C758 C 0.10057 0.84788 0.98215 0.0
C759 C 0.14041 0.78848 0.09284 0.0
C760 C 0.14929 0.79066 0.04496 0.0
C761 C 0.13252 0.7991 0.11166 0.0
C762 C 0.13344 0.81218 0.08334 0.0
C763 C 0.14247 0.81449 0.03605 0.0
C764 C 0.15036 0.80384 0.01711 0.0
C765 C 0.12442 0.82314 0.10143 0.0
C766 C 0.11518 0.82806 0.06138 0.0
C767 C 0.12418 0.82799 0.15838 0.0
C768 C 0.1342 0.82378 0.20198 0.0
C769 C 0.14892 0.82573 0.19212 0.0
C770 C 0.1583 0.82167 0.23322 0.0
C771 C 0.15309 0.81573 0.28455 0.0
C772 C 0.1385 0.81386 0.29493 0.0
C773 C 0.12907 0.8179 0.25395 0.0
H774 H 0.16037 0.81259 0.31632 0.0
H775 H 0.06923 0.85268 0.91896 0.0
H776 H 0.01517 0.61651 0.31867 0.0
H777 H 0.99789 0.63083 0.36016 0.0
H778 H 0.03102 0.66542 0.38491 0.0
H779 H 0.04831 0.6512 0.34441 0.0
H780 H 0.01405 0.6621 0.47625 0.0
H781 H 0.00815 0.66499 0.27262 0.0
H782 H 0.00355 0.65538 0.176 0.0
H783 H 0.96264 0.63571 0.22924 0.0
H784 H 0.96708 0.64507 0.32644 0.0
H785 H 0.97639 0.72144 0.50444 0.0
H786 H 0.99162 0.70421 0.47025 0.0
H787 H 0.95521 0.67272 0.45505 0.0
H788 H 0.93984 0.68995 0.4887 0.0
H789 H 0.97243 0.67267 0.36298 0.0
H790 H 0.97772 0.67137 0.56528 0.0
H791 H 0.98235 0.68132 0.66131 0.0
H792 H 0.02443 0.69816 0.61056 0.0
H793 H 0.01998 0.68847 0.51393 0.0
C794 C 0.01878 0.62713 0.33332 0.0
C795 C 0.0331 0.63274 0.32798 0.0
C796 C 0.00889 0.63532 0.35678 0.0
C797 C 0.01314 0.64925 0.37503 0.0
C798 C 0.02749 0.6547 0.37108 0.0
C799 C 0.03736 0.64656 0.34772 0.0
C800 C 0.0027 0.65835 0.39728 0.0
C801 C 0.00501 0.6645 0.4513 0.0
C802 C 0.99071 0.6612 0.36532 0.0
C803 C 0.98802 0.65559 0.30693 0.0
C804 C 0.99823 0.65852 0.26383 0.0
C805 C 0.99564 0.65314 0.20895 0.0
C806 C 0.98283 0.6449 0.19654 0.0
C807 C 0.97257 0.64207 0.23895 0.0
C808 C 0.97511 0.64741 0.29393 0.0
C809 C 0.9716 0.71086 0.49378 0.0
C810 C 0.9569 0.70705 0.49956 0.0
C811 C 0.98033 0.701 0.47448 0.0
C812 C 0.97457 0.68712 0.46088 0.0
C813 C 0.95987 0.68336 0.46553 0.0
C814 C 0.95112 0.69321 0.48488 0.0
C815 C 0.98392 0.67659 0.44156 0.0
C816 C 0.98139 0.67017 0.38816 0.0
C817 C 0.99573 0.6735 0.47405 0.0
C818 C 0.99847 0.67929 0.53221 0.0
C819 C 0.98793 0.67728 0.57446 0.0
C820 C 0.99053 0.68286 0.62903 0.0
C821 C 0.00367 0.6904 0.64199 0.0
C822 C 0.01425 0.69234 0.60044 0.0
C823 C 0.0117 0.68679 0.54578 0.0
H824 H 0.00566 0.69471 0.68427 0.0
H825 H 0.98084 0.64075 0.15402 0.0
H826 H 0.08158 0.14236 0.83396 0.0
H827 H 0.09667 0.16257 0.87411 0.0
H828 H 0.13391 0.14342 0.82536 0.0
H829 H 0.11891 0.12332 0.78455 0.0
H830 H 0.13547 0.1524 0.93404 0.0
H831 H 0.1237 0.17159 0.75215 0.0
H832 H 0.10738 0.17806 0.67744 0.0
H833 H 0.08914 0.20555 0.79457 0.0
H834 H 0.10523 0.19909 0.87025 0.0
H835 H 0.19011 0.20812 0.97067 0.0
H836 H 0.17298 0.18974 0.92947 0.0
H837 H 0.13866 0.21289 0.98174 0.0
H838 H 0.1558 0.23132 0.02316 0.0
H839 H 0.13418 0.20242 0.87571 0.0
H840 H 0.1462 0.18416 0.05642 0.0
H841 H 0.16205 0.17761 0.13269 0.0
H842 H 0.17914 0.14823 0.02034 0.0
H843 H 0.16353 0.15475 0.94311 0.0
C844 C 0.09296 0.14263 0.83034 0.0
C845 C 0.09903 0.13137 0.80495 0.0
C846 C 0.10159 0.15414 0.85379 0.0
C847 C 0.11643 0.15457 0.85225 0.0
C848 C 0.12249 0.14332 0.82701 0.0
C849 C 0.11389 0.13185 0.80365 0.0
C850 C 0.12573 0.16647 0.87848 0.0
C851 C 0.1353 0.16332 0.92081 0.0
C852 C 0.12516 0.18076 0.86259 0.0
C853 C 0.11557 0.18474 0.81702 0.0
C854 C 0.11614 0.17893 0.7621 0.0
C855 C 0.10694 0.18261 0.71956 0.0
C856 C 0.0972 0.19218 0.7313 0.0
C857 C 0.09667 0.19812 0.78557 0.0
C858 C 0.10584 0.19447 0.82828 0.0
C859 C 0.17892 0.20932 0.97323 0.0
C860 C 0.17432 0.22127 0.99944 0.0
C861 C 0.16913 0.1988 0.94979 0.0
C862 C 0.15452 0.19986 0.95299 0.0
C863 C 0.14989 0.21188 0.97851 0.0
C864 C 0.15971 0.22247 0.00175 0.0
C865 C 0.14413 0.1883 0.93045 0.0
C866 C 0.13432 0.1915 0.88907 0.0
C867 C 0.1444 0.17403 0.94741 0.0
C868 C 0.15378 0.17004 0.99383 0.0
C869 C 0.15342 0.17638 0.04784 0.0
C870 C 0.16234 0.17266 0.09127 0.0
C871 C 0.17162 0.16254 0.08133 0.0
C872 C 0.17196 0.15609 0.02797 0.0
C873 C 0.16306 0.15978 0.98436 0.0
H874 H 0.17852 0.15967 0.11501 0.0
H875 H 0.09009 0.19501 0.69831 0.0
H876 H 0.61097 0.29262 0.51525 0.0
H877 H 0.60214 0.31428 0.54867 0.0
H878 H 0.64409 0.33013 0.6071 0.0
H879 H 0.65303 0.30836 0.57425 0.0
H880 H 0.62408 0.33349 0.68677 0.0
H881 H 0.63059 0.34343 0.48772 0.0
H882 H 0.62783 0.33883 0.38478 0.0
H883 H 0.58262 0.33752 0.40061 0.0
H884 H 0.58509 0.34192 0.50385 0.0
H885 H 0.61124 0.4046 0.73523 0.0
H886 H 0.62022 0.38309 0.70047 0.0
H887 H 0.57836 0.3674 0.64031 0.0
H888 H 0.56945 0.38915 0.67322 0.0
H889 H 0.59831 0.36391 0.56173 0.0
H890 H 0.59163 0.35383 0.7602 0.0
H891 H 0.59417 0.35829 0.86329 0.0
H892 H 0.63942 0.35967 0.84887 0.0
H893 H 0.63716 0.35541 0.74548 0.0
C894 C 0.61836 0.30073 0.5349 0.0
C895 C 0.63272 0.29876 0.54203 0.0
C896 C 0.61329 0.31314 0.5538 0.0
C897 C 0.62248 0.32387 0.57994 0.0
C898 C 0.63683 0.32198 0.58698 0.0
C899 C 0.64192 0.30956 0.56799 0.0
C900 C 0.61699 0.33689 0.60131 0.0
C901 C 0.61864 0.34027 0.65926 0.0
C902 C 0.60954 0.3455 0.56572 0.0
C903 C 0.60802 0.34287 0.50362 0.0
C904 C 0.62005 0.34205 0.46934 0.0
C905 C 0.61854 0.3395 0.41092 0.0
C906 C 0.60506 0.33785 0.3862 0.0
C907 C 0.59306 0.33878 0.41983 0.0
C908 C 0.59451 0.34132 0.47829 0.0
C909 C 0.60393 0.39653 0.71485 0.0
C910 C 0.58955 0.3984 0.70827 0.0
C911 C 0.60906 0.38421 0.69528 0.0
C912 C 0.59991 0.37353 0.66866 0.0
C913 C 0.58557 0.37545 0.66132 0.0
C914 C 0.58043 0.38778 0.68098 0.0
C915 C 0.60541 0.36053 0.64719 0.0
C916 C 0.60377 0.35714 0.58923 0.0
C917 C 0.61284 0.3519 0.6828 0.0
C918 C 0.61423 0.35444 0.74498 0.0
C919 C 0.60213 0.3552 0.77892 0.0
C920 C 0.60352 0.35767 0.83743 0.0
C921 C 0.61695 0.3593 0.86259 0.0
C922 C 0.62902 0.35842 0.82931 0.0
C923 C 0.62769 0.35597 0.77075 0.0
H924 H 0.618 0.3612 0.9079 0.0
H925 H 0.60391 0.33588 0.34096 0.0
H926 H 0.4312 0.78729 0.92107 0.0
H927 H 0.44726 0.80924 0.91349 0.0
H928 H 0.43641 0.82063 0.08437 0.0
H929 H 0.42015 0.79881 0.09211 0.0
H930 H 0.44167 0.84417 0.015 0.0
H931 H 0.46386 0.80252 0.06431 0.0
H932 H 0.46962 0.77811 0.05026 0.0
H933 H 0.48913 0.79005 0.88976 0.0
H934 H 0.48327 0.8145 0.90252 0.0
H935 H 0.50541 0.87959 0.1301 0.0
H936 H 0.48323 0.86553 0.10339 0.0
H937 H 0.5007 0.85753 0.93855 0.0
H938 H 0.52302 0.87143 0.96521 0.0
H939 H 0.49129 0.83355 0.99082 0.0
H940 H 0.47241 0.87679 0.95168 0.0
H941 H 0.46686 0.9011 0.9697 0.0
H942 H 0.44164 0.88653 0.11443 0.0
H943 H 0.4472 0.86215 0.09781 0.0
C944 C 0.43196 0.79461 0.9566 0.0
C945 C 0.42459 0.79116 0.00762 0.0
C946 C 0.44115 0.80715 0.95216 0.0
C947 C 0.44323 0.81641 0.99877 0.0
C948 C 0.43499 0.8136 0.04796 0.0
C949 C 0.42575 0.80108 0.05238 0.0
C950 C 0.4552 0.82791 0.99924 0.0
C951 C 0.45254 0.8419 0.00982 0.0
C952 C 0.46935 0.82494 0.99155 0.0
C953 C 0.47297 0.81028 0.98403 0.0
C954 C 0.46928 0.79991 0.02583 0.0
C955 C 0.47257 0.78607 0.01813 0.0
C956 C 0.4797 0.78252 0.96906 0.0
C957 C 0.48358 0.79281 0.92768 0.0
C958 C 0.48028 0.80666 0.93511 0.0
C959 C 0.50445 0.87511 0.08768 0.0
C960 C 0.51606 0.87648 0.05005 0.0
C961 C 0.4917 0.86714 0.07232 0.0
C962 C 0.49029 0.86048 0.01891 0.0
C963 C 0.50157 0.86256 0.98001 0.0
C964 C 0.51432 0.87052 0.99534 0.0
C965 C 0.47786 0.84992 0.00685 0.0
C966 C 0.48044 0.83599 0.99462 0.0
C967 C 0.46371 0.85299 0.0135 0.0
C968 C 0.46031 0.86764 0.02369 0.0
C969 C 0.46577 0.87878 0.98762 0.0
C970 C 0.4626 0.89257 0.99754 0.0
C971 C 0.45392 0.89536 0.04323 0.0
C972 C 0.44836 0.88436 0.07905 0.0
C973 C 0.45151 0.87054 0.06935 0.0
H974 H 0.45148 0.90605 0.05083 0.0
H975 H 0.48225 0.7718 0.96318 0.0
H976 H 0.01991 0.55196 0.04704 0.0
H977 H 0.01985 0.52841 0.00394 0.0
H978 H 0.0622 0.52611 0.06675 0.0
H979 H 0.0622 0.54943 0.11145 0.0
H980 H 0.05481 0.52091 0.93717 0.0
H981 H 0.04241 0.5069 0.13198 0.0
H982 H 0.02788 0.50722 0.21889 0.0
H983 H 0.99059 0.49185 0.12381 0.0
H984 H 0.00488 0.49165 0.0361 0.0
H985 H 0.06486 0.45154 0.85579 0.0
H986 H 0.06456 0.47374 0.90798 0.0
H987 H 0.01886 0.46645 0.9178 0.0
H988 H 0.01922 0.44381 0.86853 0.0
H989 H 0.02765 0.47698 0.01164 0.0
H990 H 0.03787 0.49044 0.81908 0.0
H991 H 0.05037 0.49114 0.72691 0.0
H992 H 0.08895 0.50878 0.80834 0.0
H993 H 0.07672 0.50802 0.90116 0.0
C994 C 0.02916 0.54638 0.05201 0.0
C995 C 0.04106 0.5525 0.08262 0.0
C996 C 0.0291 0.53296 0.02749 0.0
C997 C 0.04102 0.5256 0.03236 0.0
C998 C 0.0529 0.53167 0.06278 0.0
C999 C 0.05286 0.54494 0.08837 0.0
C1000 C 0.04124 0.51175 0.00403 0.0
C1001 C 0.04905 0.51122 0.95366 0.0
C1002 C 0.03326 0.49934 0.02468 0.0
C1003 C 0.02469 0.49942 0.07739 0.0
C1004 C 0.03109 0.50374 0.12949 0.0
C1005 C 0.0229 0.50386 0.17892 0.0
C1006 C 0.00831 0.49961 0.17684 0.0
C1007 C 0.00189 0.49517 0.12534 0.0
C1008 C 0.01003 0.49504 0.07577 0.0
C1009 C 0.05476 0.45467 0.8693 0.0
C1010 C 0.04206 0.44601 0.85787 0.0
C1011 C 0.05458 0.46741 0.8988 0.0
C1012 C 0.04166 0.472 0.91575 0.0
C1013 C 0.02897 0.4632 0.90513 0.0
C1014 C 0.02918 0.45028 0.87686 0.0
C1015 C 0.04137 0.48595 0.94437 0.0
C1016 C 0.03348 0.48657 0.99479 0.0
C1017 C 0.04901 0.49856 0.9229 0.0
C1018 C 0.05641 0.49904 0.86715 0.0
C1019 C 0.04904 0.49437 0.81739 0.0
C1020 C 0.05608 0.4948 0.76503 0.0
C1021 C 0.07046 0.49997 0.7618 0.0
C1022 C 0.07782 0.50476 0.81092 0.0
C1023 C 0.07084 0.50435 0.86341 0.0
H1024 H 0.07589 0.50029 0.72122 0.0
H1025 H 0.00199 0.49971 0.21516 0.0
H1026 H 0.7263 0.70547 0.65963 0.0
H1027 H 0.75207 0.70897 0.64905 0.0
H1028 H 0.75107 0.75424 0.64223 0.0
H1029 H 0.72521 0.75076 0.65063 0.0
H1030 H 0.76996 0.74717 0.56994 0.0
H1031 H 0.75964 0.73685 0.76645 0.0
H1032 H 0.74873 0.72317 0.84762 0.0
H1033 H 0.77021 0.68759 0.79999 0.0
H1034 H 0.7811 0.701 0.71806 0.0
H1035 H 0.84074 0.76888 0.66789 0.0
H1036 H 0.81507 0.76424 0.65383 0.0
H1037 H 0.81859 0.71967 0.6338 0.0
H1038 H 0.84428 0.72421 0.64737 0.0
H1039 H 0.79871 0.72561 0.71529 0.0
H1040 H 0.81057 0.73773 0.52154 0.0
H1041 H 0.82178 0.7526 0.44421 0.0
H1042 H 0.79778 0.78637 0.49185 0.0
H1043 H 0.78657 0.77177 0.57003 0.0
C1044 C 0.73156 0.71616 0.65549 0.0
C1045 C 0.72374 0.72785 0.65648 0.0
C1046 C 0.74631 0.71816 0.64966 0.0
C1047 C 0.75357 0.73189 0.64603 0.0
C1048 C 0.74573 0.74355 0.64512 0.0
C1049 C 0.73094 0.74154 0.65011 0.0
C1050 C 0.76934 0.73413 0.64517 0.0
C1051 C 0.77623 0.74257 0.60206 0.0
C1052 C 0.77758 0.72796 0.68653 0.0
C1053 C 0.77106 0.71987 0.73579 0.0
C1054 C 0.76195 0.72607 0.77305 0.0
C1055 C 0.75579 0.71837 0.81922 0.0
C1056 C 0.75875 0.70451 0.82886 0.0
C1057 C 0.76791 0.69832 0.79241 0.0
C1058 C 0.77408 0.70597 0.74613 0.0
C1059 C 0.83608 0.75812 0.65967 0.0
C1060 C 0.84454 0.74691 0.65896 0.0
C1061 C 0.82142 0.75549 0.65145 0.0
C1062 C 0.81495 0.74161 0.64267 0.0
C1063 C 0.8234 0.73045 0.64046 0.0
C1064 C 0.83808 0.73308 0.64807 0.0
C1065 C 0.79929 0.73863 0.64019 0.0
C1066 C 0.79242 0.7301 0.6829 0.0
C1067 C 0.79111 0.7449 0.59903 0.0
C1068 C 0.79783 0.7537 0.552 0.0
C1069 C 0.80777 0.74837 0.51586 0.0
C1070 C 0.81411 0.75674 0.4718 0.0
C1071 C 0.81052 0.77043 0.46321 0.0
C1072 C 0.80056 0.77577 0.49859 0.0
C1073 C 0.7942 0.76745 0.54275 0.0
H1074 H 0.81543 0.77689 0.42906 0.0
H1075 H 0.75397 0.69857 0.86464 0.0
H1076 H 0.60944 0.48103 0.62864 0.0
H1077 H 0.61046 0.49808 0.55062 0.0
H1078 H 0.56499 0.49028 0.53165 0.0
H1079 H 0.56394 0.47287 0.60863 0.0
H1080 H 0.57691 0.49133 0.43129 0.0
H1081 H 0.5815 0.52083 0.59654 0.0
H1082 H 0.59141 0.52973 0.6885 0.0
H1083 H 0.63208 0.54083 0.61026 0.0
H1084 H 0.62246 0.53182 0.51794 0.0
H1085 H 0.57068 0.55281 0.26145 0.0
H1086 H 0.56887 0.53554 0.33919 0.0
H1087 H 0.61449 0.53779 0.34572 0.0
H1088 H 0.61641 0.555 0.26786 0.0
H1089 H 0.6019 0.5399 0.45263 0.0
H1090 H 0.59653 0.5099 0.28665 0.0
H1091 H 0.58581 0.50142 0.19547 0.0
H1092 H 0.54534 0.49194 0.27717 0.0
H1093 H 0.55578 0.50055 0.36874 0.0
C1094 C 0.59965 0.48296 0.60796 0.0
C1095 C 0.5866 0.47564 0.62496 0.0
C1096 C 0.60024 0.49277 0.5635 0.0
C1097 C 0.58777 0.49565 0.53579 0.0
C1098 C 0.57474 0.48827 0.55244 0.0
C1099 C 0.57416 0.47834 0.59655 0.0
C1100 C 0.58837 0.50619 0.48889 0.0
C1101 C 0.58219 0.50201 0.43631 0.0
C1102 C 0.59546 0.52008 0.49499 0.0
C1103 C 0.60129 0.52553 0.55043 0.0
C1104 C 0.59259 0.52507 0.59903 0.0
C1105 C 0.59815 0.53015 0.65121 0.0
C1106 C 0.61238 0.53581 0.65525 0.0
C1107 C 0.62107 0.53643 0.60708 0.0
C1108 C 0.61556 0.53135 0.5548 0.0
C1109 C 0.58033 0.5496 0.27932 0.0
C1110 C 0.59369 0.55525 0.25843 0.0
C1111 C 0.57927 0.53971 0.32361 0.0
C1112 C 0.59155 0.53535 0.34795 0.0
C1113 C 0.6049 0.54102 0.32745 0.0
C1114 C 0.60596 0.55081 0.28283 0.0
C1115 C 0.5905 0.52499 0.3953 0.0
C1116 C 0.59659 0.52922 0.44788 0.0
C1117 C 0.5832 0.51122 0.3894 0.0
C1118 C 0.57691 0.50602 0.3344 0.0
C1119 C 0.58532 0.50613 0.28507 0.0
C1120 C 0.57929 0.50127 0.23334 0.0
C1121 C 0.56489 0.49618 0.23049 0.0
C1122 C 0.55649 0.4959 0.27942 0.0
C1123 C 0.56246 0.50076 0.33125 0.0
H1124 H 0.56025 0.49242 0.19041 0.0
H1125 H 0.61666 0.53974 0.69569 0.0
H1126 H 0.84521 0.25937 0.62984 0.0
H1127 H 0.81955 0.26012 0.63088 0.0
H1128 H 0.81838 0.25585 0.44807 0.0
H1129 H 0.84407 0.25524 0.44656 0.0
H1130 H 0.80274 0.27618 0.4837 0.0
H1131 H 0.80716 0.22787 0.53264 0.0
H1132 H 0.81606 0.20856 0.58711 0.0
H1133 H 0.79794 0.22341 0.74017 0.0
H1134 H 0.78909 0.24293 0.68672 0.0
H1135 H 0.72813 0.25943 0.45404 0.0
H1136 H 0.75383 0.25908 0.45243 0.0
H1137 H 0.75503 0.26227 0.63561 0.0
H1138 H 0.72929 0.26238 0.63766 0.0
H1139 H 0.77071 0.24251 0.59952 0.0
H1140 H 0.76624 0.29082 0.55076 0.0
H1141 H 0.75738 0.31018 0.49645 0.0
H1142 H 0.77558 0.29544 0.34335 0.0
H1143 H 0.78439 0.27587 0.39663 0.0
C1144 C 0.8395 0.25856 0.58983 0.0
C1145 C 0.84668 0.2572 0.53812 0.0
C1146 C 0.82482 0.25894 0.59053 0.0
C1147 C 0.81703 0.2579 0.5396 0.0
C1148 C 0.82418 0.25666 0.48787 0.0
C1149 C 0.83886 0.25626 0.48712 0.0
C1150 C 0.80143 0.25824 0.54024 0.0
C1151 C 0.7957 0.2687 0.5084 0.0
C1152 C 0.7923 0.24869 0.57355 0.0
C1153 C 0.79759 0.23695 0.60577 0.0
C1154 C 0.80518 0.22709 0.578 0.0
C1155 C 0.81019 0.21609 0.60867 0.0
C1156 C 0.8076 0.21478 0.66709 0.0
C1157 C 0.79996 0.22445 0.69493 0.0
C1158 C 0.79493 0.23547 0.66446 0.0
C1159 C 0.73386 0.26012 0.49399 0.0
C1160 C 0.72666 0.26096 0.54599 0.0
C1161 C 0.74857 0.25998 0.49298 0.0
C1162 C 0.75639 0.2608 0.54387 0.0
C1163 C 0.74922 0.26163 0.59582 0.0
C1164 C 0.73451 0.26174 0.59689 0.0
C1165 C 0.77199 0.26048 0.54305 0.0
C1166 C 0.77773 0.25001 0.57484 0.0
C1167 C 0.78113 0.27003 0.50973 0.0
C1168 C 0.77586 0.2818 0.4776 0.0
C1169 C 0.76826 0.29164 0.50543 0.0
C1170 C 0.76326 0.30266 0.47485 0.0
C1171 C 0.76589 0.30402 0.41646 0.0
C1172 C 0.77354 0.29437 0.38856 0.0
C1173 C 0.77855 0.28332 0.41894 0.0
H1174 H 0.76201 0.31256 0.39286 0.0
H1175 H 0.81149 0.20626 0.69077 0.0
H1176 H 0.3744 0.22581 0.11083 0.0
H1177 H 0.34904 0.22788 0.1205 0.0
H1178 H 0.34529 0.23075 0.93805 0.0
H1179 H 0.37061 0.22857 0.9279 0.0
H1180 H 0.3324 0.25152 0.9977 0.0
H1181 H 0.33324 0.20091 0.99982 0.0
H1182 H 0.34101 0.17851 0.03381 0.0
H1183 H 0.32539 0.18623 0.20113 0.0
H1184 H 0.3177 0.20879 0.16832 0.0
H1185 H 0.25775 0.24454 0.97576 0.0
H1186 H 0.28276 0.24122 0.96566 0.0
H1187 H 0.28474 0.23128 0.14452 0.0
H1188 H 0.25958 0.23412 0.15445 0.0
H1189 H 0.29878 0.21408 0.08727 0.0
H1190 H 0.29825 0.26434 0.08936 0.0
H1191 H 0.29092 0.28729 0.0597 0.0
H1192 H 0.30648 0.28121 0.89089 0.0
H1193 H 0.31374 0.25812 0.91936 0.0
C1194 C 0.36818 0.22685 0.07274 0.0
C1195 C 0.37451 0.227 0.01858 0.0
C1196 C 0.35369 0.22799 0.07835 0.0
C1197 C 0.3453 0.22939 0.02996 0.0
C1198 C 0.3516 0.22966 0.97589 0.0
C1199 C 0.36605 0.22837 0.97019 0.0
C1200 C 0.32997 0.23078 0.03576 0.0
C1201 C 0.32499 0.24327 0.01656 0.0
C1202 C 0.32044 0.22019 0.06199 0.0
C1203 C 0.32503 0.20661 0.08175 0.0
C1204 C 0.33158 0.19789 0.04399 0.0
C1205 C 0.33594 0.18515 0.06301 0.0
C1206 C 0.33373 0.18096 0.11963 0.0
C1207 C 0.32712 0.18949 0.15731 0.0
C1208 C 0.32274 0.20225 0.13851 0.0
C1209 C 0.2635 0.24162 0.01293 0.0
C1210 C 0.2567 0.23966 0.06597 0.0
C1211 C 0.27783 0.23979 0.00717 0.0
C1212 C 0.28573 0.23625 0.05455 0.0
C1213 C 0.27889 0.23405 0.10736 0.0
C1214 C 0.26451 0.2357 0.113 0.0
C1215 C 0.30112 0.23485 0.04905 0.0
C1216 C 0.30615 0.22236 0.06837 0.0
C1217 C 0.31074 0.24554 0.02361 0.0
C1218 C 0.30641 0.25943 0.00635 0.0
C1219 C 0.30001 0.26785 0.0458 0.0
C1220 C 0.29588 0.28089 0.02922 0.0
C1221 C 0.2982 0.28569 0.97341 0.0
C1222 C 0.30468 0.27747 0.93409 0.0
C1223 C 0.30881 0.26441 0.95043 0.0
H1224 H 0.295 0.29579 0.96066 0.0
H1225 H 0.33712 0.1711 0.13428 0.0
H1226 H 0.353 0.74837 0.97916 0.0
H1227 H 0.3275 0.74977 0.97164 0.0
H1228 H 0.3251 0.75549 0.15339 0.0
H1229 H 0.35059 0.75403 0.16138 0.0
H1230 H 0.30362 0.7363 0.11336 0.0
H1231 H 0.32461 0.7834 0.06648 0.0
H1232 H 0.34051 0.80128 0.01411 0.0
H1233 H 0.31991 0.788 0.85712 0.0
H1234 H 0.30401 0.76989 0.90849 0.0
H1235 H 0.2354 0.75928 0.12828 0.0
H1236 H 0.2609 0.7579 0.13487 0.0
H1237 H 0.26338 0.75492 0.95195 0.0
H1238 H 0.23792 0.75657 0.94492 0.0
H1239 H 0.28489 0.77256 0.9918 0.0
H1240 H 0.26394 0.72558 0.03695 0.0
H1241 H 0.24809 0.70737 0.08781 0.0
H1242 H 0.2686 0.71987 0.24583 0.0
H1243 H 0.28446 0.7383 0.19599 0.0
C1244 C 0.34706 0.7499 0.01757 0.0
C1245 C 0.35384 0.75113 0.07087 0.0
C1246 C 0.33249 0.75076 0.01315 0.0
C1247 C 0.32444 0.75287 0.06189 0.0
C1248 C 0.33113 0.75387 0.11524 0.0
C1249 C 0.3457 0.75308 0.11969 0.0
C1250 C 0.30903 0.75403 0.05729 0.0
C1251 C 0.29952 0.74434 0.08739 0.0
C1252 C 0.30369 0.76429 0.02221 0.0
C1253 C 0.31321 0.77519 0.99127 0.0
C1254 C 0.32355 0.78421 0.02073 0.0
C1255 C 0.33254 0.7944 0.99124 0.0
C1256 C 0.33125 0.79575 0.9323 0.0
C1257 C 0.32092 0.78693 0.90276 0.0
C1258 C 0.3119 0.77671 0.93205 0.0
C1259 C 0.24137 0.75835 0.08942 0.0
C1260 C 0.23462 0.75798 0.03608 0.0
C1261 C 0.25594 0.7575 0.09328 0.0
C1262 C 0.26402 0.7561 0.04394 0.0
C1263 C 0.25735 0.75596 0.99059 0.0
C1264 C 0.24279 0.75688 0.98667 0.0
C1265 C 0.27944 0.75484 0.04798 0.0
C1266 C 0.28897 0.7645 0.01776 0.0
C1267 C 0.2848 0.7445 0.08272 0.0
C1268 C 0.27529 0.73341 0.11281 0.0
C1269 C 0.265 0.72452 0.08261 0.0
C1270 C 0.25602 0.71415 0.11124 0.0
C1271 C 0.25731 0.71249 0.17004 0.0
C1272 C 0.2676 0.72118 0.2003 0.0
C1273 C 0.27659 0.73158 0.17188 0.0
H1274 H 0.25036 0.70444 0.19213 0.0
H1275 H 0.33822 0.80364 0.90955 0.0
H1276 H 0.56969 0.95429 0.30487 0.0
H1277 H 0.56868 0.97591 0.36031 0.0
H1278 H 0.52942 0.95766 0.43699 0.0
H1279 H 0.53061 0.93584 0.383 0.0
H1280 H 0.55108 0.9946 0.36049 0.0
H1281 H 0.526 0.97058 0.56961 0.0
H1282 H 0.52587 0.94884 0.62707 0.0
H1283 H 0.56636 0.94186 0.55795 0.0
H1284 H 0.56683 0.96365 0.50068 0.0
H1285 H 0.52545 0.04907 0.51996 0.0
H1286 H 0.52747 0.02669 0.47104 0.0
H1287 H 0.56024 0.01778 0.58847 0.0
H1288 H 0.55797 0.03994 0.63866 0.0
H1289 H 0.54349 0.99458 0.56944 0.0
H1290 H 0.56812 0.03045 0.45226 0.0
H1291 H 0.57136 0.05261 0.39675 0.0
H1292 H 0.5374 0.03652 0.28519 0.0
H1293 H 0.53384 0.01432 0.34053 0.0
C1294 C 0.56088 0.95485 0.33376 0.0
C1295 C 0.55026 0.94333 0.3397 0.0
C1296 C 0.5603 0.96723 0.36533 0.0
C1297 C 0.54906 0.96839 0.4033 0.0
C1298 C 0.53836 0.95694 0.40888 0.0
C1299 C 0.53902 0.94448 0.37777 0.0
C1300 C 0.54838 0.98169 0.43598 0.0
C1301 C 0.54943 0.99458 0.40618 0.0
C1302 C 0.54649 0.98174 0.49579 0.0
C1303 C 0.54637 0.96867 0.53043 0.0
C1304 C 0.5349 0.96443 0.56683 0.0
C1305 C 0.53476 0.95209 0.59934 0.0
C1306 C 0.54608 0.94395 0.59601 0.0
C1307 C 0.55758 0.94814 0.56031 0.0
C1308 C 0.55777 0.96048 0.52776 0.0
C1309 C 0.53305 0.04232 0.53552 0.0
C1310 C 0.54161 0.04631 0.58301 0.0
C1311 C 0.53424 0.02955 0.50735 0.0
C1312 C 0.54418 0.02065 0.52547 0.0
C1313 C 0.55251 0.02447 0.57364 0.0
C1314 C 0.55123 0.03717 0.60221 0.0
C1315 C 0.546 0.00744 0.4938 0.0
C1316 C 0.54514 0.99459 0.52375 0.0
C1317 C 0.54849 0.00746 0.43435 0.0
C1318 C 0.55063 0.02078 0.40086 0.0
C1319 C 0.56128 0.03168 0.41613 0.0
C1320 C 0.56318 0.04424 0.38467 0.0
C1321 C 0.55457 0.04599 0.33756 0.0
C1322 C 0.54406 0.03516 0.32174 0.0
C1323 C 0.5421 0.02258 0.3531 0.0
H1324 H 0.55606 0.05572 0.31325 0.0
H1325 H 0.54595 0.93439 0.62119 0.0
H1326 H 0.05971 0.05881 0.90429 0.0
H1327 H 0.057 0.03823 0.96739 0.0
H1328 H 0.08866 0.01933 0.87107 0.0
H1329 H 0.09169 0.04004 0.80871 0.0
H1330 H 0.04821 0.01165 0.94876 0.0
H1331 H 0.10661 0.999 0.95637 0.0
H1332 H 0.1308 0.01171 0.9524 0.0
H1333 H 0.11522 0.04952 0.01419 0.0
H1334 H 0.09099 0.037 0.01926 0.0
H1335 H 0.05019 0.94188 0.04813 0.0
H1336 H 0.05369 0.96387 0.99347 0.0
H1337 H 0.07542 0.98516 0.13626 0.0
H1338 H 0.07231 0.96308 0.19066 0.0
H1339 H 0.08895 0.99288 0.04269 0.0
H1340 H 0.04066 0.98976 0.10319 0.0
H1341 H 0.01609 0.97861 0.11635 0.0
H1342 H 0.01074 0.97526 0.93516 0.0
H1343 H 0.03535 0.98623 0.92093 0.0
C1344 C 0.06615 0.0503 0.8967 0.0
C1345 C 0.07595 0.05108 0.85159 0.0
C1346 C 0.06456 0.03853 0.93273 0.0
C1347 C 0.07272 0.02729 0.92437 0.0
C1348 C 0.08244 0.02799 0.87907 0.0
C1349 C 0.08411 0.03981 0.84328 0.0
C1350 C 0.07082 0.01469 0.96221 0.0
C1351 C 0.05712 0.00757 0.96934 0.0
C1352 C 0.08239 0.00949 0.99004 0.0
C1353 C 0.09696 0.01709 0.98764 0.0
C1354 C 0.10836 0.01001 0.9693 0.0
C1355 C 0.12207 0.01719 0.96683 0.0
C1356 C 0.12453 0.03142 0.98286 0.0
C1357 C 0.11329 0.03851 0.00158 0.0
C1358 C 0.09956 0.03138 0.00418 0.0
C1359 C 0.05572 0.95124 0.06792 0.0
C1360 C 0.06092 0.95075 0.12382 0.0
C1361 C 0.05766 0.96383 0.03669 0.0
C1362 C 0.06463 0.97624 0.06103 0.0
C1363 C 0.06999 0.97573 0.1166 0.0
C1364 C 0.06817 0.96311 0.1477 0.0
C1365 C 0.06638 0.98972 0.02843 0.0
C1366 C 0.08004 0.99699 0.02219 0.0
C1367 C 0.05472 0.99527 0.00266 0.0
C1368 C 0.03989 0.9887 0.01103 0.0
C1369 C 0.03428 0.98656 0.06617 0.0
C1370 C 0.02033 0.98029 0.07382 0.0
C1371 C 0.01187 0.9762 0.02663 0.0
C1372 C 0.01731 0.97842 0.97168 0.0
C1373 C 0.03126 0.98467 0.96379 0.0
H1374 H 0.00107 0.97135 0.03264 0.0
H1375 H 0.13516 0.03696 0.98088 0.0
loop_
_geom_bond_atom_site_label_1
_geom_bond_atom_site_label_2
_geom_bond_distance
_geom_bond_site_symmetry_2
_ccdc_geom_bond_type
O0 Cd1 2.300 . S
O0 C7 1.275 . S
Cd1 O0 2.300 . S
Cd1 O9 2.381 . S
Cd1 O10 2.378 . S
O2 Cd3 2.385 . S
O2 C7 1.255 . S
Cd3 O2 2.385 . S
Cd3 O4 2.317 . S
O4 Cd3 2.317 . S
O4 C5 1.232 . S
C5 O4 1.232 . S
C5 O6 1.218 . S
O6 C5 1.218 . S
C7 O0 1.275 . S
C7 O2 1.255 . S
C8 O9 1.258 . S
C8 O10 1.256 . S
O9 Cd1 2.381 . S
O9 C8 1.258 . S
O10 Cd1 2.378 . S
O10 C8 1.256 . S
O11 Cd12 2.300 . S
O11 C18 1.275 . S
Cd12 O11 2.300 . S
Cd12 O20 2.381 . S
Cd12 O21 2.378 . S
O13 Cd14 2.385 . S
O13 C18 1.255 . S
Cd14 O13 2.385 . S
Cd14 O15 2.317 . S
O15 Cd14 2.317 . S
O15 C16 1.232 . S
C16 O15 1.232 . S
C16 O17 1.218 . S
O17 C16 1.218 . S
C18 O11 1.275 . S
C18 O13 1.255 . S
C19 O20 1.258 . S
C19 O21 1.256 . S
O20 Cd12 2.381 . S
O20 C19 1.258 . S
O21 Cd12 2.378 . S
O21 C19 1.256 . S
O22 Cd23 2.300 . S
O22 C29 1.275 . S
Cd23 O22 2.300 . S
Cd23 O31 2.381 . S
Cd23 O32 2.378 . S
O24 Cd25 2.385 . S
O24 C29 1.255 . S
Cd25 O24 2.385 . S
Cd25 O26 2.317 . S
O26 Cd25 2.317 . S
O26 C27 1.232 . S
C27 O26 1.232 . S
C27 O28 1.218 . S
O28 C27 1.218 . S
C29 O22 1.275 . S
C29 O24 1.255 . S
C30 O31 1.258 . S
C30 O32 1.256 . S
O31 Cd23 2.381 . S
O31 C30 1.258 . S
O32 Cd23 2.378 . S
O32 C30 1.256 . S
O33 Cd34 2.300 . S
O33 C40 1.275 . S
Cd34 O33 2.300 . S
Cd34 O42 2.381 . S
Cd34 O43 2.378 . S
O35 Cd36 2.385 . S
O35 C40 1.255 . S
Cd36 O35 2.385 . S
Cd36 O37 2.317 . S
O37 Cd36 2.317 . S
O37 C38 1.232 . S
C38 O37 1.232 . S
C38 O39 1.218 . S
O39 C38 1.218 . S
C40 O33 1.275 . S
C40 O35 1.255 . S
C41 O42 1.258 . S
C41 O43 1.256 . S
O42 Cd34 2.381 . S
O42 C41 1.258 . S
O43 Cd34 2.378 . S
O43 C41 1.256 . S
O44 Cd45 2.300 . S
O44 C51 1.275 . S
Cd45 O44 2.300 . S
Cd45 O53 2.381 . S
Cd45 O54 2.378 . S
O46 Cd47 2.385 . S
O46 C51 1.255 . S
Cd47 O46 2.385 . S
Cd47 O48 2.317 . S
O48 Cd47 2.317 . S
O48 C49 1.232 . S
C49 O48 1.232 . S
C49 O50 1.218 . S
O50 C49 1.218 . S
C51 O44 1.275 . S
C51 O46 1.255 . S
C52 O53 1.258 . S
C52 O54 1.256 . S
O53 Cd45 2.381 . S
O53 C52 1.258 . S
O54 Cd45 2.378 . S
O54 C52 1.256 . S
O55 Cd56 2.300 . S
O55 C62 1.275 . S
Cd56 O55 2.300 . S
Cd56 O64 2.381 . S
Cd56 O65 2.378 . S
O57 Cd58 2.385 . S
O57 C62 1.255 . S
Cd58 O57 2.385 . S
Cd58 O59 2.317 . S
O59 Cd58 2.317 . S
O59 C60 1.232 . S
C60 O59 1.232 . S
C60 O61 1.218 . S
O61 C60 1.218 . S
C62 O55 1.275 . S
C62 O57 1.255 . S
C63 O64 1.258 . S
C63 O65 1.256 . S
O64 Cd56 2.381 . S
O64 C63 1.258 . S
O65 Cd56 2.378 . S
O65 C63 1.256 . S
O66 Cd67 2.300 . S
O66 C73 1.275 . S
Cd67 O66 2.300 . S
Cd67 O75 2.381 . S
Cd67 O76 2.378 . S
O68 Cd69 2.385 . S
O68 C73 1.255 . S
Cd69 O68 2.385 . S
Cd69 O70 2.317 . S
O70 Cd69 2.317 . S
O70 C71 1.232 . S
C71 O70 1.232 . S
C71 O72 1.218 . S
O72 C71 1.218 . S
C73 O66 1.275 . S
C73 O68 1.255 . S
C74 O75 1.258 . S
C74 O76 1.256 . S
O75 Cd67 2.381 . S
O75 C74 1.258 . S
O76 Cd67 2.378 . S
O76 C74 1.256 . S
O77 Cd78 2.300 . S
O77 C84 1.275 . S
Cd78 O77 2.300 . S
Cd78 O86 2.381 . S
Cd78 O87 2.378 . S
O79 Cd80 2.385 . S
O79 C84 1.255 . S
Cd80 O79 2.385 . S
Cd80 O81 2.317 . S
O81 Cd80 2.317 . S
O81 C82 1.232 . S
C82 O81 1.232 . S
C82 O83 1.218 . S
O83 C82 1.218 . S
C84 O77 1.275 . S
C84 O79 1.255 . S
C85 O86 1.258 . S
C85 O87 1.256 . S
O86 Cd78 2.381 . S
O86 C85 1.258 . S
O87 Cd78 2.378 . S
O87 C85 1.256 . S
O88 Cd89 2.300 1_554 S
O88 C95 1.275 1_554 S
Cd89 O88 2.300 1_556 S
Cd89 O97 2.381 1_556 S
Cd89 O98 2.378 . S
O90 Cd91 2.385 . S
O90 C95 1.255 . S
Cd91 O90 2.385 . S
Cd91 O92 2.317 . S
O92 Cd91 2.317 . S
O92 C93 1.232 . S
C93 O92 1.232 . S
C93 O94 1.218 . S
O94 C93 1.218 . S
C95 O88 1.275 1_556 S
C95 O90 1.255 . S
C96 O97 1.258 . S
C96 O98 1.256 1_554 S
O97 Cd89 2.381 1_554 S
O97 C96 1.258 . S
O98 Cd89 2.378 . S
O98 C96 1.256 1_556 S
O99 Cd100 2.300 1_554 S
O99 C106 1.275 1_554 S
Cd100 O99 2.300 1_556 S
Cd100 O108 2.381 1_556 S
Cd100 O109 2.378 . S
O101 Cd102 2.385 . S
O101 C106 1.255 . S
Cd102 O101 2.385 . S
Cd102 O103 2.317 . S
O103 Cd102 2.317 . S
O103 C104 1.232 . S
C104 O103 1.232 . S
C104 O105 1.218 . S
O105 C104 1.218 . S
C106 O99 1.275 1_556 S
C106 O101 1.255 . S
C107 O108 1.258 1_556 S
C107 O109 1.256 . S
O108 Cd100 2.381 1_554 S
O108 C107 1.258 1_554 S
O109 Cd100 2.378 . S
O109 C107 1.256 . S
O110 Cd111 2.300 1_554 S
O110 C117 1.275 1_554 S
Cd111 O110 2.300 1_556 S
Cd111 O119 2.381 1_556 S
Cd111 O120 2.378 . S
O112 Cd113 2.385 . S
O112 C117 1.255 . S
Cd113 O112 2.385 . S
Cd113 O114 2.317 . S
O114 Cd113 2.317 . S
O114 C115 1.232 . S
C115 O114 1.232 . S
C115 O116 1.218 . S
O116 C115 1.218 . S
C117 O110 1.275 1_556 S
C117 O112 1.255 . S
C118 O119 1.258 . S
C118 O120 1.256 1_554 S
O119 Cd111 2.381 1_554 S
O119 C118 1.258 . S
O120 Cd111 2.378 . S
O120 C118 1.256 1_556 S
O121 Cd122 2.300 1_554 S
O121 C128 1.275 . S
Cd122 O121 2.300 1_556 S
Cd122 O130 2.381 1_556 S
Cd122 O131 2.378 . S
O123 Cd124 2.385 . S
O123 C128 1.255 1_556 S
Cd124 O123 2.385 . S
Cd124 O125 2.317 . S
O125 Cd124 2.317 . S
O125 C126 1.232 1_556 S
C126 O125 1.232 1_554 S
C126 O127 1.218 1_554 S
O127 C126 1.218 1_556 S
C128 O121 1.275 . S
C128 O123 1.255 1_554 S
C129 O130 1.258 1_556 S
C129 O131 1.256 . S
O130 Cd122 2.381 1_554 S
O130 C129 1.258 1_554 S
O131 Cd122 2.378 . S
O131 C129 1.256 . S
O132 Cd133 2.300 . S
O132 C139 1.275 . S
Cd133 O132 2.300 . S
Cd133 O141 2.381 . S
Cd133 O142 2.378 . S
O134 Cd135 2.385 . S
O134 C139 1.255 . S
Cd135 O134 2.385 . S
Cd135 O136 2.317 . S
O136 Cd135 2.317 . S
O136 C137 1.232 . S
C137 O136 1.232 . S
C137 O138 1.218 . S
O138 C137 1.218 . S
C139 O132 1.275 . S
C139 O134 1.255 . S
C140 O141 1.258 . S
C140 O142 1.256 . S
O141 Cd133 2.381 . S
O141 C140 1.258 . S
O142 Cd133 2.378 . S
O142 C140 1.256 . S
O143 Cd144 2.300 . S
O143 C150 1.275 . S
Cd144 O143 2.300 . S
Cd144 O152 2.381 . S
Cd144 O153 2.378 . S
O145 Cd146 2.385 . S
O145 C150 1.255 . S
Cd146 O145 2.385 . S
Cd146 O147 2.317 . S
O147 Cd146 2.317 . S
O147 C148 1.232 . S
C148 O147 1.232 . S
C148 O149 1.218 . S
O149 C148 1.218 . S
C150 O143 1.275 . S
C150 O145 1.255 . S
C151 O152 1.258 . S
C151 O153 1.256 . S
O152 Cd144 2.381 . S
O152 C151 1.258 . S
O153 Cd144 2.378 . S
O153 C151 1.256 . S
O154 Cd155 2.300 . S
O154 C161 1.275 . S
Cd155 O154 2.300 . S
Cd155 O163 2.381 . S
Cd155 O164 2.378 . S
O156 Cd157 2.385 . S
O156 C161 1.255 . S
Cd157 O156 2.385 . S
Cd157 O158 2.317 . S
O158 Cd157 2.317 . S
O158 C159 1.232 . S
C159 O158 1.232 . S
C159 O160 1.218 . S
O160 C159 1.218 . S
C161 O154 1.275 . S
C161 O156 1.255 . S
C162 O163 1.258 . S
C162 O164 1.256 . S
O163 Cd155 2.381 . S
O163 C162 1.258 . S
O164 Cd155 2.378 . S
O164 C162 1.256 . S
O165 Cd166 2.300 . S
O165 C172 1.275 . S
Cd166 O165 2.300 . S
Cd166 O174 2.381 . S
Cd166 O175 2.378 . S
O167 Cd168 2.385 . S
O167 C172 1.255 . S
Cd168 O167 2.385 . S
Cd168 O169 2.317 . S
O169 Cd168 2.317 . S
O169 C170 1.232 . S
C170 O169 1.232 . S
C170 O171 1.218 . S
O171 C170 1.218 . S
C172 O165 1.275 . S
C172 O167 1.255 . S
C173 O174 1.258 . S
C173 O175 1.256 . S
O174 Cd166 2.381 . S
O174 C173 1.258 . S
O175 Cd166 2.378 . S
O175 C173 1.256 . S
H176 C194 0.951 . S
H177 C196 0.951 . S
H178 C198 0.950 . S
H179 C199 0.950 . S
H180 C201 0.950 . S
H181 C204 0.950 . S
H182 C205 0.950 . S
H183 C207 0.950 . S
H184 C208 0.950 . S
H185 C209 0.951 . S
H186 C211 0.951 . S
H187 C213 0.950 . S
H188 C214 0.950 . S
H189 C216 0.950 . S
H190 C219 0.950 . S
H191 C220 0.950 . S
H192 C222 0.950 . S
H193 C223 0.950 . S
C194 H176 0.951 . S
C194 C195 1.366 . S
C194 C196 1.388 . S
C195 C194 1.366 . S
C195 C199 1.385 . S
C196 H177 0.951 . S
C196 C194 1.388 . S
C196 C197 1.366 . S
C197 C196 1.366 . S
C197 C198 1.414 . S
C197 C200 1.499 . S
C198 H178 0.950 . S
C198 C197 1.414 . S
C198 C199 1.374 . S
C199 H179 0.950 . S
C199 C195 1.385 . S
C199 C198 1.374 . S
C200 C197 1.499 . S
C200 C201 1.373 . S
C200 C202 1.389 . S
C201 H180 0.950 . S
C201 C200 1.373 . S
C201 C217 1.377 . S
C202 C200 1.389 . S
C202 C203 1.524 . S
C202 C216 1.377 . S
C203 C202 1.524 . S
C203 C204 1.397 . S
C203 C208 1.363 . S
C204 H181 0.950 . S
C204 C203 1.397 . S
C204 C205 1.334 . S
C205 H182 0.950 . S
C205 C204 1.334 . S
C205 C206 1.287 . S
C206 C205 1.287 . S
C206 C207 1.524 . S
C206 H225 0.913 . S
C207 H183 0.950 . S
C207 C206 1.524 . S
C207 C208 1.415 . S
C208 H184 0.950 . S
C208 C203 1.363 . S
C208 C207 1.415 . S
C209 H185 0.951 . S
C209 C210 1.366 . S
C209 C211 1.388 . S
C210 C209 1.366 . S
C210 C214 1.385 . S
C211 H186 0.951 . S
C211 C209 1.388 . S
C211 C212 1.366 . S
C212 C211 1.366 . S
C212 C213 1.414 . S
C212 C215 1.499 . S
C213 H187 0.950 . S
C213 C212 1.414 . S
C213 C214 1.374 . S
C214 H188 0.950 . S
C214 C210 1.385 . S
C214 C213 1.374 . S
C215 C212 1.499 . S
C215 C216 1.373 . S
C215 C217 1.389 . S
C216 H189 0.950 . S
C216 C202 1.377 . S
C216 C215 1.373 . S
C217 C201 1.377 . S
C217 C215 1.389 . S
C217 C218 1.524 . S
C218 C217 1.524 . S
C218 C219 1.397 . S
C218 C223 1.363 . S
C219 H190 0.950 . S
C219 C218 1.397 . S
C219 C220 1.334 1_554 S
C220 H191 0.950 . S
C220 C219 1.334 1_556 S
C220 C221 1.287 . S
C221 C220 1.287 . S
C221 C222 1.524 . S
C221 H224 0.999 . S
C222 H192 0.950 . S
C222 C221 1.524 . S
C222 C223 1.415 1_556 S
C223 H193 0.950 . S
C223 C218 1.363 . S
C223 C222 1.415 1_554 S
H224 C221 0.999 . S
H225 C206 0.913 . S
H226 C244 0.951 . S
H227 C246 0.951 . S
H228 C248 0.950 . S
H229 C249 0.950 . S
H230 C251 0.950 . S
H231 C254 0.950 . S
H232 C255 0.950 . S
H233 C257 0.950 . S
H234 C258 0.950 . S
H235 C259 0.951 . S
H236 C261 0.951 . S
H237 C263 0.950 . S
H238 C264 0.950 . S
H239 C266 0.950 . S
H240 C269 0.950 . S
H241 C270 0.950 . S
H242 C272 0.950 . S
H243 C273 0.950 . S
C244 H226 0.951 . S
C244 C245 1.366 . S
C244 C246 1.388 . S
C245 C244 1.366 . S
C245 C249 1.385 . S
C246 H227 0.951 . S
C246 C244 1.388 . S
C246 C247 1.366 . S
C247 C246 1.366 . S
C247 C248 1.414 . S
C247 C250 1.499 . S
C248 H228 0.950 . S
C248 C247 1.414 . S
C248 C249 1.374 . S
C249 H229 0.950 . S
C249 C245 1.385 . S
C249 C248 1.374 . S
C250 C247 1.499 . S
C250 C251 1.373 . S
C250 C252 1.389 . S
C251 H230 0.950 . S
C251 C250 1.373 . S
C251 C267 1.377 . S
C252 C250 1.389 . S
C252 C253 1.524 . S
C252 C266 1.377 . S
C253 C252 1.524 . S
C253 C254 1.397 . S
C253 C258 1.363 . S
C254 H231 0.950 . S
C254 C253 1.397 . S
C254 C255 1.334 . S
C255 H232 0.950 . S
C255 C254 1.334 . S
C255 C256 1.287 . S
C256 C255 1.287 . S
C256 C257 1.524 . S
C256 H275 0.913 . S
C257 H233 0.950 . S
C257 C256 1.524 . S
C257 C258 1.415 . S
C258 H234 0.950 . S
C258 C253 1.363 . S
C258 C257 1.415 . S
C259 H235 0.951 . S
C259 C260 1.366 . S
C259 C261 1.388 . S
C260 C259 1.366 . S
C260 C264 1.385 . S
C261 H236 0.951 . S
C261 C259 1.388 . S
C261 C262 1.366 . S
C262 C261 1.366 . S
C262 C263 1.414 . S
C262 C265 1.499 . S
C263 H237 0.950 . S
C263 C262 1.414 . S
C263 C264 1.374 . S
C264 H238 0.950 . S
C264 C260 1.385 . S
C264 C263 1.374 . S
C265 C262 1.499 . S
C265 C266 1.373 . S
C265 C267 1.389 . S
C266 H239 0.950 . S
C266 C252 1.377 . S
C266 C265 1.373 . S
C267 C251 1.377 . S
C267 C265 1.389 . S
C267 C268 1.524 . S
C268 C267 1.524 . S
C268 C269 1.397 . S
C268 C273 1.363 . S
C269 H240 0.950 . S
C269 C268 1.397 . S
C269 C270 1.334 . S
C270 H241 0.950 . S
C270 C269 1.334 . S
C270 C271 1.287 . S
C271 C270 1.287 . S
C271 C272 1.524 . S
C271 H274 0.999 . S
C272 H242 0.950 . S
C272 C271 1.524 . S
C272 C273 1.415 . S
C273 H243 0.950 . S
C273 C268 1.363 . S
C273 C272 1.415 . S
H274 C271 0.999 . S
H275 C256 0.913 . S
H276 C294 0.951 1_554 S
H277 C296 0.951 . S
H278 C298 0.950 . S
H279 C299 0.950 . S
H280 C301 0.950 . S
H281 C304 0.950 . S
H282 C305 0.950 . S
H283 C307 0.950 . S
H284 C308 0.950 . S
H285 C309 0.951 . S
H286 C311 0.951 . S
H287 C313 0.950 . S
H288 C314 0.950 . S
H289 C316 0.950 . S
H290 C319 0.950 . S
H291 C320 0.950 . S
H292 C322 0.950 . S
H293 C323 0.950 . S
C294 H276 0.951 1_556 S
C294 C295 1.366 . S
C294 C296 1.388 . S
C295 C294 1.366 . S
C295 C299 1.385 . S
C296 H277 0.951 . S
C296 C294 1.388 . S
C296 C297 1.366 . S
C297 C296 1.366 . S
C297 C298 1.414 . S
C297 C300 1.499 . S
C298 H278 0.950 . S
C298 C297 1.414 . S
C298 C299 1.374 . S
C299 H279 0.950 . S
C299 C295 1.385 . S
C299 C298 1.374 . S
C300 C297 1.499 . S
C300 C301 1.373 . S
C300 C302 1.389 . S
C301 H280 0.950 . S
C301 C300 1.373 . S
C301 C317 1.377 . S
C302 C300 1.389 . S
C302 C303 1.524 1_556 S
C302 C316 1.377 . S
C303 C302 1.524 1_554 S
C303 C304 1.397 . S
C303 C308 1.363 . S
C304 H281 0.950 . S
C304 C303 1.397 . S
C304 C305 1.334 . S
C305 H282 0.950 . S
C305 C304 1.334 . S
C305 C306 1.287 . S
C306 C305 1.287 . S
C306 C307 1.524 . S
C306 H325 0.913 . S
C307 H283 0.950 . S
C307 C306 1.524 . S
C307 C308 1.415 . S
C308 H284 0.950 . S
C308 C303 1.363 . S
C308 C307 1.415 . S
C309 H285 0.951 . S
C309 C310 1.366 . S
C309 C311 1.388 . S
C310 C309 1.366 . S
C310 C314 1.385 . S
C311 H286 0.951 . S
C311 C309 1.388 . S
C311 C312 1.366 . S
C312 C311 1.366 . S
C312 C313 1.414 . S
C312 C315 1.499 . S
C313 H287 0.950 . S
C313 C312 1.414 . S
C313 C314 1.374 . S
C314 H288 0.950 . S
C314 C310 1.385 . S
C314 C313 1.374 . S
C315 C312 1.499 . S
C315 C316 1.373 . S
C315 C317 1.389 . S
C316 H289 0.950 . S
C316 C302 1.377 . S
C316 C315 1.373 . S
C317 C301 1.377 . S
C317 C315 1.389 . S
C317 C318 1.524 . S
C318 C317 1.524 . S
C318 C319 1.397 . S
C318 C323 1.363 . S
C319 H290 0.950 . S
C319 C318 1.397 . S
C319 C320 1.334 . S
C320 H291 0.950 . S
C320 C319 1.334 . S
C320 C321 1.287 . S
C321 C320 1.287 . S
C321 C322 1.524 . S
C321 H324 0.999 . S
C322 H292 0.950 . S
C322 C321 1.524 . S
C322 C323 1.415 . S
C323 H293 0.950 . S
C323 C318 1.363 . S
C323 C322 1.415 . S
H324 C321 0.999 . S
H325 C306 0.913 . S
H326 C344 0.951 . S
H327 C346 0.951 . S
H328 C348 0.950 . S
H329 C349 0.950 . S
H330 C351 0.950 . S
H331 C354 0.950 . S
H332 C355 0.950 . S
H333 C357 0.950 . S
H334 C358 0.950 . S
H335 C359 0.951 . S
H336 C361 0.951 . S
H337 C363 0.999 . S
H338 C364 0.950 . S
H339 C366 0.950 . S
H340 C369 0.950 . S
H341 C370 0.950 . S
H342 C372 0.950 . S
H343 C373 0.950 . S
C344 H326 0.951 . S
C344 C345 1.366 . S
C344 C346 1.388 . S
C345 C344 1.366 . S
C345 C349 1.385 . S
C346 H327 0.951 . S
C346 C344 1.388 . S
C346 C347 1.366 . S
C347 C346 1.366 . S
C347 C348 1.414 . S
C347 C350 1.499 . S
C348 H328 0.950 . S
C348 C347 1.414 . S
C348 C349 1.374 . S
C349 H329 0.950 . S
C349 C345 1.385 . S
C349 C348 1.374 . S
C350 C347 1.499 . S
C350 C351 1.373 . S
C350 C352 1.389 . S
C351 H330 0.950 . S
C351 C350 1.373 . S
C351 C367 1.377 . S
C352 C350 1.389 . S
C352 C353 1.524 . S
C352 C366 1.377 . S
C353 C352 1.524 . S
C353 C354 1.397 . S
C353 C358 1.363 . S
C354 H331 0.950 . S
C354 C353 1.397 . S
C354 C355 1.334 . S
C355 H332 0.950 . S
C355 C354 1.334 . S
C355 C356 1.287 . S
C356 C355 1.287 . S
C356 C357 1.524 . S
C356 H375 0.913 . S
C357 H333 0.950 . S
C357 C356 1.524 . S
C357 C358 1.415 . S
C358 H334 0.950 . S
C358 C353 1.363 . S
C358 C357 1.415 . S
C359 H335 0.951 . S
C359 C360 1.366 . S
C359 C361 1.388 . S
C360 C359 1.366 . S
C360 C364 1.385 . S
C361 H336 0.951 . S
C361 C359 1.388 . S
C361 C362 1.366 . S
C362 C361 1.366 . S
C362 C363 1.404 1_455 S
C362 C365 1.499 1_455 S
C363 H337 0.999 . S
C363 C362 1.404 1_655 S
C363 C364 1.337 1_655 S
C364 H338 0.950 . S
C364 C360 1.385 . S
C364 C363 1.337 1_455 S
C365 C362 1.499 1_655 S
C365 C366 1.373 . S
C365 C367 1.389 . S
C366 H339 0.950 . S
C366 C352 1.377 . S
C366 C365 1.373 . S
C367 C351 1.377 . S
C367 C365 1.389 . S
C367 C368 1.519 1_655 S
C368 C367 1.519 1_455 S
C368 C369 1.397 1_455 S
C368 C373 1.367 . S
C369 H340 0.950 . S
C369 C368 1.397 1_655 S
C369 C370 1.334 1_655 S
C370 H341 0.950 . S
C370 C369 1.334 1_455 S
C370 C371 1.287 . S
C371 C370 1.287 . S
C371 C372 1.524 . S
C371 H374 0.999 . S
C372 H342 0.950 . S
C372 C371 1.524 . S
C372 C373 1.415 . S
C373 H343 0.950 . S
C373 C368 1.367 . S
C373 C372 1.415 . S
H374 C371 0.999 . S
H375 C356 0.913 . S
H376 C394 0.951 . S
H377 C396 0.951 . S
H378 C398 0.950 . S
H379 C399 0.950 . S
H380 C401 0.950 . S
H381 C404 0.950 . S
H382 C405 0.950 . S
H383 C407 0.950 . S
H384 C408 0.950 . S
H385 C409 0.951 . S
H386 C411 0.951 1_554 S
H387 C413 0.950 . S
H388 C414 0.950 . S
H389 C416 0.950 . S
H390 C419 0.950 . S
H391 C420 0.950 . S
H392 C422 0.950 . S
H393 C423 0.950 1_554 S
C394 H376 0.951 . S
C394 C395 1.366 . S
C394 C396 1.388 . S
C395 C394 1.366 . S
C395 C399 1.385 . S
C396 H377 0.951 . S
C396 C394 1.388 . S
C396 C397 1.366 . S
C397 C396 1.366 . S
C397 C398 1.414 . S
C397 C400 1.499 . S
C398 H378 0.950 . S
C398 C397 1.414 . S
C398 C399 1.374 . S
C399 H379 0.950 . S
C399 C395 1.385 . S
C399 C398 1.374 . S
C400 C397 1.499 . S
C400 C401 1.373 . S
C400 C402 1.389 . S
C401 H380 0.950 . S
C401 C400 1.373 . S
C401 C417 1.377 . S
C402 C400 1.389 . S
C402 C403 1.524 . S
C402 C416 1.377 . S
C403 C402 1.524 . S
C403 C404 1.397 . S
C403 C408 1.363 . S
C404 H381 0.950 . S
C404 C403 1.397 . S
C404 C405 1.334 . S
C405 H382 0.950 . S
C405 C404 1.334 . S
C405 C406 1.287 . S
C406 C405 1.287 . S
C406 C407 1.524 . S
C406 H425 0.913 . S
C407 H383 0.950 . S
C407 C406 1.524 . S
C407 C408 1.415 . S
C408 H384 0.950 . S
C408 C403 1.363 . S
C408 C407 1.415 . S
C409 H385 0.951 . S
C409 C410 1.366 1_554 S
C409 C411 1.388 1_554 S
C410 C409 1.366 1_556 S
C410 C414 1.385 . S
C411 H386 0.951 1_556 S
C411 C409 1.388 1_556 S
C411 C412 1.366 . S
C412 C411 1.366 . S
C412 C413 1.414 . S
C412 C415 1.499 . S
C413 H387 0.950 . S
C413 C412 1.414 . S
C413 C414 1.374 . S
C414 H388 0.950 . S
C414 C410 1.385 . S
C414 C413 1.374 . S
C415 C412 1.499 . S
C415 C416 1.373 . S
C415 C417 1.389 . S
C416 H389 0.950 . S
C416 C402 1.377 . S
C416 C415 1.373 . S
C417 C401 1.377 . S
C417 C415 1.389 . S
C417 C418 1.524 . S
C418 C417 1.524 . S
C418 C419 1.397 . S
C418 C423 1.363 . S
C419 H390 0.950 . S
C419 C418 1.397 . S
C419 C420 1.334 . S
C420 H391 0.950 . S
C420 C419 1.334 . S
C420 C421 1.287 . S
C421 C420 1.287 . S
C421 C422 1.524 1_556 S
C421 H424 0.999 1_556 S
C422 H392 0.950 . S
C422 C421 1.524 1_554 S
C422 C423 1.415 1_554 S
C423 H393 0.950 1_556 S
C423 C418 1.363 . S
C423 C422 1.415 1_556 S
H424 C421 0.999 1_554 S
H425 C406 0.913 . S
H426 C444 0.951 . S
H427 C446 0.951 . S
H428 C448 0.950 . S
H429 C449 0.950 . S
H430 C451 0.950 . S
H431 C454 0.950 . S
H432 C455 0.950 . S
H433 C457 0.950 . S
H434 C458 0.950 . S
H435 C459 0.951 . S
H436 C461 0.951 . S
H437 C463 0.950 . S
H438 C464 0.950 . S
H439 C466 0.950 . S
H440 C469 0.950 . S
H441 C470 0.950 . S
H442 C472 0.950 . S
H443 C473 0.950 . S
C444 H426 0.951 . S
C444 C445 1.366 . S
C444 C446 1.388 . S
C445 C444 1.366 . S
C445 C449 1.385 . S
C446 H427 0.951 . S
C446 C444 1.388 . S
C446 C447 1.355 1_455 S
C447 C446 1.355 1_655 S
C447 C448 1.417 . S
C447 C450 1.506 . S
C448 H428 0.950 . S
C448 C447 1.417 . S
C448 C449 1.374 1_655 S
C449 H429 0.950 . S
C449 C445 1.385 . S
C449 C448 1.374 1_455 S
C450 C447 1.506 . S
C450 C451 1.373 . S
C450 C452 1.389 . S
C451 H430 0.950 . S
C451 C450 1.373 . S
C451 C467 1.377 . S
C452 C450 1.389 . S
C452 C453 1.524 1_655 S
C452 C466 1.377 . S
C453 C452 1.524 1_455 S
C453 C454 1.397 . S
C453 C458 1.363 . S
C454 H431 0.950 . S
C454 C453 1.397 . S
C454 C455 1.334 . S
C455 H432 0.950 . S
C455 C454 1.334 . S
C455 C456 1.287 . S
C456 C455 1.287 . S
C456 C457 1.524 . S
C456 H475 0.913 . S
C457 H433 0.950 . S
C457 C456 1.524 . S
C457 C458 1.415 . S
C458 H434 0.950 . S
C458 C453 1.363 . S
C458 C457 1.415 . S
C459 H435 0.951 . S
C459 C460 1.366 . S
C459 C461 1.388 . S
C460 C459 1.366 . S
C460 C464 1.385 . S
C461 H436 0.951 . S
C461 C459 1.388 . S
C461 C462 1.366 . S
C462 C461 1.366 . S
C462 C463 1.414 . S
C462 C465 1.499 . S
C463 H437 0.950 . S
C463 C462 1.414 . S
C463 C464 1.374 . S
C464 H438 0.950 . S
C464 C460 1.385 . S
C464 C463 1.374 . S
C465 C462 1.499 . S
C465 C466 1.373 . S
C465 C467 1.389 . S
C466 H439 0.950 . S
C466 C452 1.377 . S
C466 C465 1.373 . S
C467 C451 1.377 . S
C467 C465 1.389 . S
C467 C468 1.524 . S
C468 C467 1.524 . S
C468 C469 1.397 . S
C468 C473 1.363 . S
C469 H440 0.950 . S
C469 C468 1.397 . S
C469 C470 1.334 . S
C470 H441 0.950 . S
C470 C469 1.334 . S
C470 C471 1.287 . S
C471 C470 1.287 . S
C471 C472 1.524 . S
C471 H474 0.999 . S
C472 H442 0.950 . S
C472 C471 1.524 . S
C472 C473 1.415 . S
C473 H443 0.950 . S
C473 C468 1.363 . S
C473 C472 1.415 . S
H474 C471 0.999 . S
H475 C456 0.913 . S
H476 C494 0.951 . S
H477 C496 0.951 . S
H478 C498 0.950 . S
H479 C499 0.950 . S
H480 C501 0.950 . S
H481 C504 0.950 . S
H482 C505 0.950 . S
H483 C507 0.950 . S
H484 C508 0.950 . S
H485 C509 0.951 . S
H486 C511 0.951 . S
H487 C513 0.950 . S
H488 C514 0.950 . S
H489 C516 0.950 . S
H490 C519 0.950 . S
H491 C520 0.950 1_556 S
H492 C522 0.950 . S
H493 C523 0.950 . S
C494 H476 0.951 . S
C494 C495 1.366 . S
C494 C496 1.388 . S
C495 C494 1.366 . S
C495 C499 1.385 . S
C496 H477 0.951 . S
C496 C494 1.388 . S
C496 C497 1.366 . S
C497 C496 1.366 . S
C497 C498 1.414 . S
C497 C500 1.499 . S
C498 H478 0.950 . S
C498 C497 1.414 . S
C498 C499 1.374 . S
C499 H479 0.950 . S
C499 C495 1.385 . S
C499 C498 1.374 . S
C500 C497 1.499 . S
C500 C501 1.373 . S
C500 C502 1.389 . S
C501 H480 0.950 . S
C501 C500 1.373 . S
C501 C517 1.377 . S
C502 C500 1.389 . S
C502 C503 1.524 . S
C502 C516 1.377 . S
C503 C502 1.524 . S
C503 C504 1.397 . S
C503 C508 1.363 . S
C504 H481 0.950 . S
C504 C503 1.397 . S
C504 C505 1.334 . S
C505 H482 0.950 . S
C505 C504 1.334 . S
C505 C506 1.287 . S
C506 C505 1.287 . S
C506 C507 1.524 . S
C506 H525 0.913 . S
C507 H483 0.950 . S
C507 C506 1.524 . S
C507 C508 1.415 . S
C508 H484 0.950 . S
C508 C503 1.363 . S
C508 C507 1.415 . S
C509 H485 0.951 . S
C509 C510 1.366 . S
C509 C511 1.388 . S
C510 C509 1.366 . S
C510 C514 1.385 . S
C511 H486 0.951 . S
C511 C509 1.388 . S
C511 C512 1.366 . S
C512 C511 1.366 . S
C512 C513 1.414 . S
C512 C515 1.499 . S
C513 H487 0.950 . S
C513 C512 1.414 . S
C513 C514 1.374 . S
C514 H488 0.950 . S
C514 C510 1.385 . S
C514 C513 1.374 . S
C515 C512 1.499 . S
C515 C516 1.373 . S
C515 C517 1.389 . S
C516 H489 0.950 . S
C516 C502 1.377 . S
C516 C515 1.373 . S
C517 C501 1.377 . S
C517 C515 1.389 . S
C517 C518 1.524 . S
C518 C517 1.524 . S
C518 C519 1.397 . S
C518 C523 1.363 . S
C519 H490 0.950 . S
C519 C518 1.397 . S
C519 C520 1.334 . S
C520 H491 0.950 1_554 S
C520 C519 1.334 . S
C520 C521 1.287 . S
C521 C520 1.287 . S
C521 C522 1.524 . S
C521 H524 0.999 1_554 S
C522 H492 0.950 . S
C522 C521 1.524 . S
C522 C523 1.415 . S
C523 H493 0.950 . S
C523 C518 1.363 . S
C523 C522 1.415 . S
H524 C521 0.999 1_556 S
H525 C506 0.913 . S
H526 C544 0.951 . S
H527 C546 0.951 . S
H528 C548 0.950 . S
H529 C549 0.950 . S
H530 C551 0.950 . S
H531 C554 0.950 . S
H532 C555 0.950 . S
H533 C557 0.950 . S
H534 C558 0.950 . S
H535 C559 0.951 . S
H536 C561 0.951 . S
H537 C563 0.950 . S
H538 C564 0.950 . S
H539 C566 0.950 . S
H540 C569 0.950 . S
H541 C570 0.950 . S
H542 C572 0.950 . S
H543 C573 0.950 . S
C544 H526 0.951 . S
C544 C545 1.366 . S
C544 C546 1.388 . S
C545 C544 1.366 . S
C545 C549 1.385 . S
C546 H527 0.951 . S
C546 C544 1.388 . S
C546 C547 1.366 . S
C547 C546 1.366 . S
C547 C548 1.414 . S
C547 C550 1.499 . S
C548 H528 0.950 . S
C548 C547 1.414 . S
C548 C549 1.374 . S
C549 H529 0.950 . S
C549 C545 1.385 . S
C549 C548 1.374 . S
C550 C547 1.499 . S
C550 C551 1.373 . S
C550 C552 1.389 . S
C551 H530 0.950 . S
C551 C550 1.373 . S
C551 C567 1.377 . S
C552 C550 1.389 . S
C552 C553 1.524 . S
C552 C566 1.377 . S
C553 C552 1.524 . S
C553 C554 1.397 . S
C553 C558 1.363 . S
C554 H531 0.950 . S
C554 C553 1.397 . S
C554 C555 1.334 . S
C555 H532 0.950 . S
C555 C554 1.334 . S
C555 C556 1.287 . S
C556 C555 1.287 . S
C556 C557 1.524 . S
C556 H575 0.913 . S
C557 H533 0.950 . S
C557 C556 1.524 . S
C557 C558 1.415 . S
C558 H534 0.950 . S
C558 C553 1.363 . S
C558 C557 1.415 . S
C559 H535 0.951 . S
C559 C560 1.366 . S
C559 C561 1.388 . S
C560 C559 1.366 . S
C560 C564 1.385 . S
C561 H536 0.951 . S
C561 C559 1.388 . S
C561 C562 1.366 . S
C562 C561 1.366 . S
C562 C563 1.414 . S
C562 C565 1.499 . S
C563 H537 0.950 . S
C563 C562 1.414 . S
C563 C564 1.374 . S
C564 H538 0.950 . S
C564 C560 1.385 . S
C564 C563 1.374 . S
C565 C562 1.499 . S
C565 C566 1.373 . S
C565 C567 1.389 . S
C566 H539 0.950 . S
C566 C552 1.377 . S
C566 C565 1.373 . S
C567 C551 1.377 . S
C567 C565 1.389 . S
C567 C568 1.524 . S
C568 C567 1.524 . S
C568 C569 1.397 . S
C568 C573 1.363 . S
C569 H540 0.950 . S
C569 C568 1.397 . S
C569 C570 1.334 . S
C570 H541 0.950 . S
C570 C569 1.334 . S
C570 C571 1.287 . S
C571 C570 1.287 . S
C571 C572 1.524 . S
C571 H574 0.999 . S
C572 H542 0.950 . S
C572 C571 1.524 . S
C572 C573 1.415 . S
C573 H543 0.950 . S
C573 C568 1.363 . S
C573 C572 1.415 . S
H574 C571 0.999 . S
H575 C556 0.913 . S
H576 C594 0.951 . S
H577 C596 0.951 . S
H578 C598 0.950 . S
H579 C599 0.950 . S
H580 C601 0.950 . S
H581 C604 0.950 . S
H582 C605 0.950 . S
H583 C607 0.950 . S
H584 C608 0.950 . S
H585 C609 0.951 . S
H586 C611 0.951 . S
H587 C613 0.950 . S
H588 C614 0.950 . S
H589 C616 0.950 . S
H590 C619 0.950 . S
H591 C620 0.950 . S
H592 C622 0.950 . S
H593 C623 0.950 . S
C594 H576 0.951 . S
C594 C595 1.366 . S
C594 C596 1.388 . S
C595 C594 1.366 . S
C595 C599 1.385 . S
C596 H577 0.951 . S
C596 C594 1.388 . S
C596 C597 1.350 1_455 S
C597 C596 1.350 1_655 S
C597 C598 1.420 . S
C597 C600 1.509 . S
C598 H578 0.950 . S
C598 C597 1.420 . S
C598 C599 1.374 1_655 S
C599 H579 0.950 . S
C599 C595 1.385 . S
C599 C598 1.374 1_455 S
C600 C597 1.509 . S
C600 C601 1.373 . S
C600 C602 1.389 . S
C601 H580 0.950 . S
C601 C600 1.373 . S
C601 C617 1.377 . S
C602 C600 1.389 . S
C602 C603 1.524 1_655 S
C602 C616 1.377 . S
C603 C602 1.524 1_455 S
C603 C604 1.397 . S
C603 C608 1.363 . S
C604 H581 0.950 . S
C604 C603 1.397 . S
C604 C605 1.334 . S
C605 H582 0.950 . S
C605 C604 1.334 . S
C605 C606 1.287 . S
C606 C605 1.287 . S
C606 C607 1.524 . S
C606 H625 0.913 . S
C607 H583 0.950 . S
C607 C606 1.524 . S
C607 C608 1.415 . S
C608 H584 0.950 . S
C608 C603 1.363 . S
C608 C607 1.415 . S
C609 H585 0.951 . S
C609 C610 1.366 . S
C609 C611 1.388 . S
C610 C609 1.366 . S
C610 C614 1.385 . S
C611 H586 0.951 . S
C611 C609 1.388 . S
C611 C612 1.366 . S
C612 C611 1.366 . S
C612 C613 1.414 . S
C612 C615 1.499 . S
C613 H587 0.950 . S
C613 C612 1.414 . S
C613 C614 1.374 . S
C614 H588 0.950 . S
C614 C610 1.385 . S
C614 C613 1.374 . S
C615 C612 1.499 . S
C615 C616 1.373 . S
C615 C617 1.389 . S
C616 H589 0.950 . S
C616 C602 1.377 . S
C616 C615 1.373 . S
C617 C601 1.377 . S
C617 C615 1.389 . S
C617 C618 1.524 . S
C618 C617 1.524 . S
C618 C619 1.397 . S
C618 C623 1.363 . S
C619 H590 0.950 . S
C619 C618 1.397 . S
C619 C620 1.334 . S
C620 H591 0.950 . S
C620 C619 1.334 . S
C620 C621 1.287 . S
C621 C620 1.287 . S
C621 C622 1.524 . S
C621 H624 0.999 . S
C622 H592 0.950 . S
C622 C621 1.524 . S
C622 C623 1.415 . S
C623 H593 0.950 . S
C623 C618 1.363 . S
C623 C622 1.415 . S
H624 C621 0.999 . S
H625 C606 0.913 . S
H626 C644 0.951 . S
H627 C646 0.951 . S
H628 C648 0.950 . S
H629 C649 0.950 . S
H630 C651 0.950 . S
H631 C654 0.950 . S
H632 C655 0.950 . S
H633 C657 0.950 . S
H634 C658 0.950 . S
H635 C659 0.951 1_554 S
H636 C661 0.951 . S
H637 C663 0.950 . S
H638 C664 0.950 . S
H639 C666 0.950 . S
H640 C669 0.950 . S
H641 C670 0.950 . S
H642 C672 0.950 . S
H643 C673 0.950 . S
C644 H626 0.951 . S
C644 C645 1.366 . S
C644 C646 1.388 . S
C645 C644 1.366 . S
C645 C649 1.385 . S
C646 H627 0.951 . S
C646 C644 1.388 . S
C646 C647 1.366 . S
C647 C646 1.366 . S
C647 C648 1.414 . S
C647 C650 1.499 . S
C648 H628 0.950 . S
C648 C647 1.414 . S
C648 C649 1.374 . S
C649 H629 0.950 . S
C649 C645 1.385 . S
C649 C648 1.374 . S
C650 C647 1.499 . S
C650 C651 1.373 . S
C650 C652 1.389 . S
C651 H630 0.950 . S
C651 C650 1.373 . S
C651 C667 1.377 . S
C652 C650 1.389 . S
C652 C653 1.524 . S
C652 C666 1.377 . S
C653 C652 1.524 . S
C653 C654 1.397 . S
C653 C658 1.363 . S
C654 H631 0.950 . S
C654 C653 1.397 . S
C654 C655 1.334 . S
C655 H632 0.950 . S
C655 C654 1.334 . S
C655 C656 1.287 . S
C656 C655 1.287 . S
C656 C657 1.524 . S
C656 H675 0.913 . S
C657 H633 0.950 . S
C657 C656 1.524 . S
C657 C658 1.415 . S
C658 H634 0.950 . S
C658 C653 1.363 . S
C658 C657 1.415 . S
C659 H635 0.951 1_556 S
C659 C660 1.366 . S
C659 C661 1.388 . S
C660 C659 1.366 . S
C660 C664 1.385 . S
C661 H636 0.951 . S
C661 C659 1.388 . S
C661 C662 1.366 . S
C662 C661 1.366 . S
C662 C663 1.414 . S
C662 C665 1.499 . S
C663 H637 0.950 . S
C663 C662 1.414 . S
C663 C664 1.374 . S
C664 H638 0.950 . S
C664 C660 1.385 . S
C664 C663 1.374 . S
C665 C662 1.499 . S
C665 C666 1.373 . S
C665 C667 1.389 . S
C666 H639 0.950 . S
C666 C652 1.377 . S
C666 C665 1.373 . S
C667 C651 1.377 . S
C667 C665 1.389 . S
C667 C668 1.524 . S
C668 C667 1.524 . S
C668 C669 1.397 . S
C668 C673 1.363 . S
C669 H640 0.950 . S
C669 C668 1.397 . S
C669 C670 1.334 . S
C670 H641 0.950 . S
C670 C669 1.334 . S
C670 C671 1.287 . S
C671 C670 1.287 . S
C671 C672 1.524 . S
C671 H674 0.999 . S
C672 H642 0.950 . S
C672 C671 1.524 . S
C672 C673 1.415 . S
C673 H643 0.950 . S
C673 C668 1.363 . S
C673 C672 1.415 . S
H674 C671 0.999 . S
H675 C656 0.913 . S
H676 C694 0.951 . S
H677 C696 0.951 . S
H678 C698 0.950 . S
H679 C699 0.950 . S
H680 C701 0.950 . S
H681 C704 0.950 . S
H682 C705 0.950 . S
H683 C707 0.950 . S
H684 C708 0.950 . S
H685 C709 0.951 . S
H686 C711 0.951 . S
H687 C713 0.950 . S
H688 C714 0.950 . S
H689 C716 0.950 . S
H690 C719 0.950 . S
H691 C720 0.950 . S
H692 C722 0.950 . S
H693 C723 0.950 . S
C694 H676 0.951 . S
C694 C695 1.366 . S
C694 C696 1.388 . S
C695 C694 1.366 . S
C695 C699 1.385 . S
C696 H677 0.951 . S
C696 C694 1.388 . S
C696 C697 1.366 . S
C697 C696 1.366 . S
C697 C698 1.414 . S
C697 C700 1.499 . S
C698 H678 0.950 . S
C698 C697 1.414 . S
C698 C699 1.374 . S
C699 H679 0.950 . S
C699 C695 1.385 . S
C699 C698 1.374 . S
C700 C697 1.499 . S
C700 C701 1.373 . S
C700 C702 1.389 . S
C701 H680 0.950 . S
C701 C700 1.373 . S
C701 C717 1.377 . S
C702 C700 1.389 . S
C702 C703 1.524 . S
C702 C716 1.377 . S
C703 C702 1.524 . S
C703 C704 1.397 . S
C703 C708 1.363 . S
C704 H681 0.950 . S
C704 C703 1.397 . S
C704 C705 1.334 . S
C705 H682 0.950 . S
C705 C704 1.334 . S
C705 C706 1.287 . S
C706 C705 1.287 . S
C706 C707 1.524 . S
C706 H725 0.913 . S
C707 H683 0.950 . S
C707 C706 1.524 . S
C707 C708 1.415 . S
C708 H684 0.950 . S
C708 C703 1.363 . S
C708 C707 1.415 . S
C709 H685 0.951 . S
C709 C710 1.366 . S
C709 C711 1.388 . S
C710 C709 1.366 . S
C710 C714 1.385 . S
C711 H686 0.951 . S
C711 C709 1.388 . S
C711 C712 1.366 . S
C712 C711 1.366 . S
C712 C713 1.414 . S
C712 C715 1.499 . S
C713 H687 0.950 . S
C713 C712 1.414 . S
C713 C714 1.374 . S
C714 H688 0.950 . S
C714 C710 1.385 . S
C714 C713 1.374 . S
C715 C712 1.499 . S
C715 C716 1.373 . S
C715 C717 1.389 . S
C716 H689 0.950 . S
C716 C702 1.377 . S
C716 C715 1.373 . S
C717 C701 1.377 . S
C717 C715 1.389 . S
C717 C718 1.524 . S
C718 C717 1.524 . S
C718 C719 1.397 . S
C718 C723 1.363 . S
C719 H690 0.950 . S
C719 C718 1.397 . S
C719 C720 1.334 . S
C720 H691 0.950 . S
C720 C719 1.334 . S
C720 C721 1.287 . S
C721 C720 1.287 . S
C721 C722 1.524 . S
C721 H724 0.999 . S
C722 H692 0.950 . S
C722 C721 1.524 . S
C722 C723 1.415 . S
C723 H693 0.950 . S
C723 C718 1.363 . S
C723 C722 1.415 . S
H724 C721 0.999 . S
H725 C706 0.913 . S
H726 C744 0.951 . S
H727 C746 0.951 . S
H728 C748 0.950 . S
H729 C749 0.950 . S
H730 C751 0.950 . S
H731 C754 0.950 . S
H732 C755 0.950 . S
H733 C757 0.950 . S
H734 C758 0.950 . S
H735 C759 0.951 . S
H736 C761 0.951 . S
H737 C763 0.950 . S
H738 C764 0.950 . S
H739 C766 0.950 . S
H740 C769 0.950 . S
H741 C770 0.950 . S
H742 C772 0.950 . S
H743 C773 0.950 . S
C744 H726 0.951 . S
C744 C745 1.366 . S
C744 C746 1.388 . S
C745 C744 1.366 . S
C745 C749 1.385 . S
C746 H727 0.951 . S
C746 C744 1.388 . S
C746 C747 1.366 . S
C747 C746 1.366 . S
C747 C748 1.414 . S
C747 C750 1.499 . S
C748 H728 0.950 . S
C748 C747 1.414 . S
C748 C749 1.374 . S
C749 H729 0.950 . S
C749 C745 1.385 . S
C749 C748 1.374 . S
C750 C747 1.499 . S
C750 C751 1.373 . S
C750 C752 1.389 . S
C751 H730 0.950 . S
C751 C750 1.373 . S
C751 C767 1.377 . S
C752 C750 1.389 . S
C752 C753 1.524 . S
C752 C766 1.377 . S
C753 C752 1.524 . S
C753 C754 1.397 . S
C753 C758 1.363 . S
C754 H731 0.950 . S
C754 C753 1.397 . S
C754 C755 1.334 1_554 S
C755 H732 0.950 . S
C755 C754 1.334 1_556 S
C755 C756 1.287 . S
C756 C755 1.287 . S
C756 C757 1.524 . S
C756 H775 0.913 . S
C757 H733 0.950 . S
C757 C756 1.524 . S
C757 C758 1.415 1_556 S
C758 H734 0.950 . S
C758 C753 1.363 . S
C758 C757 1.415 1_554 S
C759 H735 0.951 . S
C759 C760 1.366 . S
C759 C761 1.388 . S
C760 C759 1.366 . S
C760 C764 1.385 . S
C761 H736 0.951 . S
C761 C759 1.388 . S
C761 C762 1.366 . S
C762 C761 1.366 . S
C762 C763 1.414 . S
C762 C765 1.499 . S
C763 H737 0.950 . S
C763 C762 1.414 . S
C763 C764 1.374 . S
C764 H738 0.950 . S
C764 C760 1.385 . S
C764 C763 1.374 . S
C765 C762 1.499 . S
C765 C766 1.373 . S
C765 C767 1.389 . S
C766 H739 0.950 . S
C766 C752 1.377 . S
C766 C765 1.373 . S
C767 C751 1.377 . S
C767 C765 1.389 . S
C767 C768 1.524 . S
C768 C767 1.524 . S
C768 C769 1.397 . S
C768 C773 1.363 . S
C769 H740 0.950 . S
C769 C768 1.397 . S
C769 C770 1.334 . S
C770 H741 0.950 . S
C770 C769 1.334 . S
C770 C771 1.287 . S
C771 C770 1.287 . S
C771 C772 1.524 . S
C771 H774 0.999 . S
C772 H742 0.950 . S
C772 C771 1.524 . S
C772 C773 1.415 . S
C773 H743 0.950 . S
C773 C768 1.363 . S
C773 C772 1.415 . S
H774 C771 0.999 . S
H775 C756 0.913 . S
H776 C794 0.951 . S
H777 C796 1.014 . S
H778 C798 0.950 . S
H779 C799 0.950 . S
H780 C801 0.950 1_455 S
H781 C804 0.950 . S
H782 C805 0.950 . S
H783 C807 0.950 . S
H784 C808 0.950 . S
H785 C809 0.951 . S
H786 C811 0.951 . S
H787 C813 0.950 . S
H788 C814 0.950 . S
H789 C816 0.950 . S
H790 C819 0.950 . S
H791 C820 0.950 . S
H792 C822 0.950 . S
H793 C823 0.950 . S
C794 H776 0.951 . S
C794 C795 1.366 . S
C794 C796 1.341 1_455 S
C795 C794 1.366 . S
C795 C799 1.385 . S
C796 H777 1.014 . S
C796 C794 1.341 1_655 S
C796 C797 1.352 1_655 S
C797 C796 1.352 1_455 S
C797 C798 1.414 . S
C797 C800 1.499 1_455 S
C798 H778 0.950 . S
C798 C797 1.414 . S
C798 C799 1.374 . S
C799 H779 0.950 . S
C799 C795 1.385 . S
C799 C798 1.374 . S
C800 C797 1.499 1_655 S
C800 C801 1.373 . S
C800 C802 1.389 . S
C801 H780 0.950 1_655 S
C801 C800 1.373 . S
C801 C817 1.377 . S
C802 C800 1.389 . S
C802 C803 1.524 . S
C802 C816 1.377 . S
C803 C802 1.524 . S
C803 C804 1.397 . S
C803 C808 1.363 . S
C804 H781 0.950 . S
C804 C803 1.397 . S
C804 C805 1.334 . S
C805 H782 0.950 . S
C805 C804 1.334 . S
C805 C806 1.287 . S
C806 C805 1.287 . S
C806 C807 1.524 . S
C806 H825 0.913 . S
C807 H783 0.950 . S
C807 C806 1.524 . S
C807 C808 1.415 . S
C808 H784 0.950 . S
C808 C803 1.363 . S
C808 C807 1.415 . S
C809 H785 0.951 . S
C809 C810 1.366 . S
C809 C811 1.388 . S
C810 C809 1.366 . S
C810 C814 1.385 . S
C811 H786 0.951 . S
C811 C809 1.388 . S
C811 C812 1.366 . S
C812 C811 1.366 . S
C812 C813 1.414 . S
C812 C815 1.499 . S
C813 H787 0.950 . S
C813 C812 1.414 . S
C813 C814 1.374 . S
C814 H788 0.950 . S
C814 C810 1.385 . S
C814 C813 1.374 . S
C815 C812 1.499 . S
C815 C816 1.373 . S
C815 C817 1.389 . S
C816 H789 0.950 . S
C816 C802 1.377 . S
C816 C815 1.373 . S
C817 C801 1.377 . S
C817 C815 1.389 . S
C817 C818 1.524 . S
C818 C817 1.524 . S
C818 C819 1.397 . S
C818 C823 1.363 1_655 S
C819 H790 0.950 . S
C819 C818 1.397 . S
C819 C820 1.334 . S
C820 H791 0.950 . S
C820 C819 1.334 . S
C820 C821 1.287 . S
C821 C820 1.287 . S
C821 C822 1.524 1_655 S
C821 H824 0.999 . S
C822 H792 0.950 . S
C822 C821 1.524 1_455 S
C822 C823 1.415 . S
C823 H793 0.950 . S
C823 C818 1.363 1_455 S
C823 C822 1.415 . S
H824 C821 0.999 . S
H825 C806 0.913 . S
H826 C844 0.951 . S
H827 C846 0.951 . S
H828 C848 0.950 . S
H829 C849 0.950 . S
H830 C851 0.950 . S
H831 C854 0.950 . S
H832 C855 0.950 . S
H833 C857 0.950 . S
H834 C858 0.950 . S
H835 C859 0.951 . S
H836 C861 0.951 . S
H837 C863 0.950 . S
H838 C864 0.950 1_554 S
H839 C866 0.950 . S
H840 C869 0.950 . S
H841 C870 0.950 . S
H842 C872 0.950 . S
H843 C873 0.950 . S
C844 H826 0.951 . S
C844 C845 1.366 . S
C844 C846 1.388 . S
C845 C844 1.366 . S
C845 C849 1.385 . S
C846 H827 0.951 . S
C846 C844 1.388 . S
C846 C847 1.366 . S
C847 C846 1.366 . S
C847 C848 1.414 . S
C847 C850 1.499 . S
C848 H828 0.950 . S
C848 C847 1.414 . S
C848 C849 1.374 . S
C849 H829 0.950 . S
C849 C845 1.385 . S
C849 C848 1.374 . S
C850 C847 1.499 . S
C850 C851 1.373 . S
C850 C852 1.389 . S
C851 H830 0.950 . S
C851 C850 1.373 . S
C851 C867 1.377 . S
C852 C850 1.389 . S
C852 C853 1.524 . S
C852 C866 1.377 . S
C853 C852 1.524 . S
C853 C854 1.397 . S
C853 C858 1.363 . S
C854 H831 0.950 . S
C854 C853 1.397 . S
C854 C855 1.334 . S
C855 H832 0.950 . S
C855 C854 1.334 . S
C855 C856 1.287 . S
C856 C855 1.287 . S
C856 C857 1.524 . S
C856 H875 0.913 . S
C857 H833 0.950 . S
C857 C856 1.524 . S
C857 C858 1.415 . S
C858 H834 0.950 . S
C858 C853 1.363 . S
C858 C857 1.415 . S
C859 H835 0.951 . S
C859 C860 1.366 . S
C859 C861 1.388 . S
C860 C859 1.366 . S
C860 C864 1.385 . S
C861 H836 0.951 . S
C861 C859 1.388 . S
C861 C862 1.366 . S
C862 C861 1.366 . S
C862 C863 1.414 . S
C862 C865 1.499 . S
C863 H837 0.950 . S
C863 C862 1.414 . S
C863 C864 1.374 . S
C864 H838 0.950 1_556 S
C864 C860 1.385 . S
C864 C863 1.374 . S
C865 C862 1.499 . S
C865 C866 1.373 . S
C865 C867 1.389 . S
C866 H839 0.950 . S
C866 C852 1.377 . S
C866 C865 1.373 . S
C867 C851 1.377 . S
C867 C865 1.389 . S
C867 C868 1.524 . S
C868 C867 1.524 . S
C868 C869 1.397 1_556 S
C868 C873 1.363 . S
C869 H840 0.950 . S
C869 C868 1.397 1_554 S
C869 C870 1.334 . S
C870 H841 0.950 . S
C870 C869 1.334 . S
C870 C871 1.287 . S
C871 C870 1.287 . S
C871 C872 1.524 1_554 S
C871 H874 0.999 . S
C872 H842 0.950 . S
C872 C871 1.524 1_556 S
C872 C873 1.415 . S
C873 H843 0.950 . S
C873 C868 1.363 . S
C873 C872 1.415 . S
H874 C871 0.999 . S
H875 C856 0.913 . S
H876 C894 0.951 . S
H877 C896 0.951 . S
H878 C898 0.950 . S
H879 C899 0.950 . S
H880 C901 0.950 . S
H881 C904 0.950 . S
H882 C905 0.950 . S
H883 C907 0.950 . S
H884 C908 0.950 . S
H885 C909 0.951 . S
H886 C911 0.951 . S
H887 C913 0.950 . S
H888 C914 0.950 . S
H889 C916 0.950 . S
H890 C919 0.950 . S
H891 C920 0.950 . S
H892 C922 0.950 . S
H893 C923 0.950 . S
C894 H876 0.951 . S
C894 C895 1.366 . S
C894 C896 1.388 . S
C895 C894 1.366 . S
C895 C899 1.385 . S
C896 H877 0.951 . S
C896 C894 1.388 . S
C896 C897 1.366 . S
C897 C896 1.366 . S
C897 C898 1.414 . S
C897 C900 1.499 . S
C898 H878 0.950 . S
C898 C897 1.414 . S
C898 C899 1.374 . S
C899 H879 0.950 . S
C899 C895 1.385 . S
C899 C898 1.374 . S
C900 C897 1.499 . S
C900 C901 1.373 . S
C900 C902 1.389 . S
C901 H880 0.950 . S
C901 C900 1.373 . S
C901 C917 1.377 . S
C902 C900 1.389 . S
C902 C903 1.524 . S
C902 C916 1.377 . S
C903 C902 1.524 . S
C903 C904 1.397 . S
C903 C908 1.363 . S
C904 H881 0.950 . S
C904 C903 1.397 . S
C904 C905 1.334 . S
C905 H882 0.950 . S
C905 C904 1.334 . S
C905 C906 1.287 . S
C906 C905 1.287 . S
C906 C907 1.524 . S
C906 H925 0.913 . S
C907 H883 0.950 . S
C907 C906 1.524 . S
C907 C908 1.415 . S
C908 H884 0.950 . S
C908 C903 1.363 . S
C908 C907 1.415 . S
C909 H885 0.951 . S
C909 C910 1.366 . S
C909 C911 1.388 . S
C910 C909 1.366 . S
C910 C914 1.385 . S
C911 H886 0.951 . S
C911 C909 1.388 . S
C911 C912 1.366 . S
C912 C911 1.366 . S
C912 C913 1.414 . S
C912 C915 1.499 . S
C913 H887 0.950 . S
C913 C912 1.414 . S
C913 C914 1.374 . S
C914 H888 0.950 . S
C914 C910 1.385 . S
C914 C913 1.374 . S
C915 C912 1.499 . S
C915 C916 1.373 . S
C915 C917 1.389 . S
C916 H889 0.950 . S
C916 C902 1.377 . S
C916 C915 1.373 . S
C917 C901 1.377 . S
C917 C915 1.389 . S
C917 C918 1.524 . S
C918 C917 1.524 . S
C918 C919 1.397 . S
C918 C923 1.363 . S
C919 H890 0.950 . S
C919 C918 1.397 . S
C919 C920 1.334 . S
C920 H891 0.950 . S
C920 C919 1.334 . S
C920 C921 1.287 . S
C921 C920 1.287 . S
C921 C922 1.524 . S
C921 H924 0.999 . S
C922 H892 0.950 . S
C922 C921 1.524 . S
C922 C923 1.415 . S
C923 H893 0.950 . S
C923 C918 1.363 . S
C923 C922 1.415 . S
H924 C921 0.999 . S
H925 C906 0.913 . S
H926 C944 0.951 . S
H927 C946 0.951 . S
H928 C948 0.950 . S
H929 C949 0.950 . S
H930 C951 0.950 . S
H931 C954 0.950 . S
H932 C955 0.950 . S
H933 C957 0.950 . S
H934 C958 0.950 . S
H935 C959 0.951 . S
H936 C961 0.951 . S
H937 C963 0.950 . S
H938 C964 0.950 . S
H939 C966 0.950 . S
H940 C969 0.950 . S
H941 C970 0.950 . S
H942 C972 0.950 . S
H943 C973 0.950 . S
C944 H926 0.951 . S
C944 C945 1.366 . S
C944 C946 1.388 . S
C945 C944 1.366 . S
C945 C949 1.385 . S
C946 H927 0.951 . S
C946 C944 1.388 . S
C946 C947 1.366 . S
C947 C946 1.366 . S
C947 C948 1.414 . S
C947 C950 1.499 . S
C948 H928 0.950 . S
C948 C947 1.414 . S
C948 C949 1.374 . S
C949 H929 0.950 . S
C949 C945 1.385 . S
C949 C948 1.374 . S
C950 C947 1.499 . S
C950 C951 1.373 . S
C950 C952 1.389 . S
C951 H930 0.950 . S
C951 C950 1.373 . S
C951 C967 1.377 . S
C952 C950 1.389 . S
C952 C953 1.524 . S
C952 C966 1.377 . S
C953 C952 1.524 . S
C953 C954 1.397 . S
C953 C958 1.363 . S
C954 H931 0.950 . S
C954 C953 1.397 . S
C954 C955 1.334 . S
C955 H932 0.950 . S
C955 C954 1.334 . S
C955 C956 1.287 . S
C956 C955 1.287 . S
C956 C957 1.524 . S
C956 H975 0.913 . S
C957 H933 0.950 . S
C957 C956 1.524 . S
C957 C958 1.415 . S
C958 H934 0.950 . S
C958 C953 1.363 . S
C958 C957 1.415 . S
C959 H935 0.951 . S
C959 C960 1.366 . S
C959 C961 1.388 . S
C960 C959 1.366 . S
C960 C964 1.385 . S
C961 H936 0.951 . S
C961 C959 1.388 . S
C961 C962 1.366 . S
C962 C961 1.366 . S
C962 C963 1.414 . S
C962 C965 1.499 . S
C963 H937 0.950 . S
C963 C962 1.414 . S
C963 C964 1.374 . S
C964 H938 0.950 . S
C964 C960 1.385 . S
C964 C963 1.374 . S
C965 C962 1.499 . S
C965 C966 1.373 . S
C965 C967 1.389 . S
C966 H939 0.950 . S
C966 C952 1.377 . S
C966 C965 1.373 . S
C967 C951 1.377 . S
C967 C965 1.389 . S
C967 C968 1.524 . S
C968 C967 1.524 . S
C968 C969 1.397 . S
C968 C973 1.363 . S
C969 H940 0.950 . S
C969 C968 1.397 . S
C969 C970 1.334 1_554 S
C970 H941 0.950 . S
C970 C969 1.334 1_556 S
C970 C971 1.287 . S
C971 C970 1.287 . S
C971 C972 1.524 . S
C971 H974 0.999 . S
C972 H942 0.950 . S
C972 C971 1.524 . S
C972 C973 1.415 1_556 S
C973 H943 0.950 . S
C973 C968 1.363 . S
C973 C972 1.415 1_554 S
H974 C971 0.999 . S
H975 C956 0.913 . S
H976 C994 0.951 . S
H977 C996 0.951 . S
H978 C998 0.950 . S
H979 C999 0.950 . S
H980 C1001 0.950 . S
H981 C1004 0.950 . S
H982 C1005 0.950 . S
H983 C1007 0.950 1_655 S
H984 C1008 0.950 1_556 S
H985 C1009 0.951 . S
H986 C1011 0.951 . S
H987 C1013 0.950 . S
H988 C1014 0.950 . S
H989 C1016 0.950 . S
H990 C1019 0.950 . S
H991 C1020 0.950 . S
H992 C1022 0.950 . S
H993 C1023 0.938 1_554 S
C994 H976 0.951 . S
C994 C995 1.366 . S
C994 C996 1.388 . S
C995 C994 1.366 . S
C995 C999 1.385 . S
C996 H977 0.951 . S
C996 C994 1.388 . S
C996 C997 1.366 . S
C997 C996 1.366 . S
C997 C998 1.414 . S
C997 C1000 1.499 . S
C998 H978 0.950 . S
C998 C997 1.414 . S
C998 C999 1.374 . S
C999 H979 0.950 . S
C999 C995 1.385 . S
C999 C998 1.374 . S
C1000 C997 1.499 . S
C1000 C1001 1.373 . S
C1000 C1002 1.389 . S
C1001 H980 0.950 . S
C1001 C1000 1.373 . S
C1001 C1017 1.377 1_554 S
C1002 C1000 1.389 . S
C1002 C1003 1.524 . S
C1002 C1016 1.377 1_554 S
C1003 C1002 1.524 . S
C1003 C1004 1.397 . S
C1003 C1008 1.363 . S
C1004 H981 0.950 . S
C1004 C1003 1.397 . S
C1004 C1005 1.334 . S
C1005 H982 0.950 . S
C1005 C1004 1.334 . S
C1005 C1006 1.287 . S
C1006 C1005 1.287 . S
C1006 C1007 1.524 . S
C1006 H1025 0.947 . S
C1007 H983 0.950 1_455 S
C1007 C1006 1.524 . S
C1007 C1008 1.415 . S
C1008 H984 0.950 1_554 S
C1008 C1003 1.363 . S
C1008 C1007 1.415 . S
C1009 H985 0.951 . S
C1009 C1010 1.366 . S
C1009 C1011 1.388 . S
C1010 C1009 1.366 . S
C1010 C1014 1.385 . S
C1011 H986 0.951 . S
C1011 C1009 1.388 . S
C1011 C1012 1.366 . S
C1012 C1011 1.366 . S
C1012 C1013 1.414 . S
C1012 C1015 1.499 . S
C1013 H987 0.950 . S
C1013 C1012 1.414 . S
C1013 C1014 1.374 . S
C1014 H988 0.950 . S
C1014 C1010 1.385 . S
C1014 C1013 1.374 . S
C1015 C1012 1.499 . S
C1015 C1016 1.373 . S
C1015 C1017 1.389 . S
C1016 H989 0.950 . S
C1016 C1002 1.377 1_556 S
C1016 C1015 1.373 . S
C1017 C1001 1.377 1_556 S
C1017 C1015 1.389 . S
C1017 C1018 1.524 . S
C1018 C1017 1.524 . S
C1018 C1019 1.397 . S
C1018 C1023 1.363 . S
C1019 H990 0.950 . S
C1019 C1018 1.397 . S
C1019 C1020 1.334 . S
C1020 H991 0.950 . S
C1020 C1019 1.334 . S
C1020 C1021 1.287 . S
C1021 C1020 1.287 . S
C1021 C1022 1.524 . S
C1021 H1024 0.999 . S
C1022 H992 0.950 . S
C1022 C1021 1.524 . S
C1022 C1023 1.415 . S
C1023 H993 0.938 1_556 S
C1023 C1018 1.363 . S
C1023 C1022 1.415 . S
H1024 C1021 0.999 . S
H1025 C1006 0.947 . S
H1026 C1044 0.951 . S
H1027 C1046 0.951 . S
H1028 C1048 0.950 . S
H1029 C1049 0.950 . S
H1030 C1051 0.950 . S
H1031 C1054 0.950 . S
H1032 C1055 0.950 . S
H1033 C1057 0.950 . S
H1034 C1058 0.950 . S
H1035 C1059 0.951 . S
H1036 C1061 0.951 . S
H1037 C1063 0.950 . S
H1038 C1064 0.950 . S
H1039 C1066 0.950 . S
H1040 C1069 0.950 . S
H1041 C1070 0.950 . S
H1042 C1072 0.950 . S
H1043 C1073 0.950 . S
C1044 H1026 0.951 . S
C1044 C1045 1.366 . S
C1044 C1046 1.388 . S
C1045 C1044 1.366 . S
C1045 C1049 1.385 . S
C1046 H1027 0.951 . S
C1046 C1044 1.388 . S
C1046 C1047 1.366 . S
C1047 C1046 1.366 . S
C1047 C1048 1.414 . S
C1047 C1050 1.499 . S
C1048 H1028 0.950 . S
C1048 C1047 1.414 . S
C1048 C1049 1.374 . S
C1049 H1029 0.950 . S
C1049 C1045 1.385 . S
C1049 C1048 1.374 . S
C1050 C1047 1.499 . S
C1050 C1051 1.373 . S
C1050 C1052 1.389 . S
C1051 H1030 0.950 . S
C1051 C1050 1.373 . S
C1051 C1067 1.377 . S
C1052 C1050 1.389 . S
C1052 C1053 1.524 . S
C1052 C1066 1.377 . S
C1053 C1052 1.524 . S
C1053 C1054 1.397 . S
C1053 C1058 1.363 . S
C1054 H1031 0.950 . S
C1054 C1053 1.397 . S
C1054 C1055 1.334 . S
C1055 H1032 0.950 . S
C1055 C1054 1.334 . S
C1055 C1056 1.287 . S
C1056 C1055 1.287 . S
C1056 C1057 1.524 . S
C1056 H1075 0.913 . S
C1057 H1033 0.950 . S
C1057 C1056 1.524 . S
C1057 C1058 1.415 . S
C1058 H1034 0.950 . S
C1058 C1053 1.363 . S
C1058 C1057 1.415 . S
C1059 H1035 0.951 . S
C1059 C1060 1.366 . S
C1059 C1061 1.388 . S
C1060 C1059 1.366 . S
C1060 C1064 1.385 . S
C1061 H1036 0.951 . S
C1061 C1059 1.388 . S
C1061 C1062 1.366 . S
C1062 C1061 1.366 . S
C1062 C1063 1.414 . S
C1062 C1065 1.499 . S
C1063 H1037 0.950 . S
C1063 C1062 1.414 . S
C1063 C1064 1.374 . S
C1064 H1038 0.950 . S
C1064 C1060 1.385 . S
C1064 C1063 1.374 . S
C1065 C1062 1.499 . S
C1065 C1066 1.373 . S
C1065 C1067 1.389 . S
C1066 H1039 0.950 . S
C1066 C1052 1.377 . S
C1066 C1065 1.373 . S
C1067 C1051 1.377 . S
C1067 C1065 1.389 . S
C1067 C1068 1.524 . S
C1068 C1067 1.524 . S
C1068 C1069 1.397 . S
C1068 C1073 1.363 . S
C1069 H1040 0.950 . S
C1069 C1068 1.397 . S
C1069 C1070 1.334 . S
C1070 H1041 0.950 . S
C1070 C1069 1.334 . S
C1070 C1071 1.287 . S
C1071 C1070 1.287 . S
C1071 C1072 1.524 . S
C1071 H1074 0.999 . S
C1072 H1042 0.950 . S
C1072 C1071 1.524 . S
C1072 C1073 1.415 . S
C1073 H1043 0.950 . S
C1073 C1068 1.363 . S
C1073 C1072 1.415 . S
H1074 C1071 0.999 . S
H1075 C1056 0.913 . S
H1076 C1094 0.951 . S
H1077 C1096 0.951 . S
H1078 C1098 0.950 . S
H1079 C1099 0.950 . S
H1080 C1101 0.950 . S
H1081 C1104 0.950 . S
H1082 C1105 0.950 . S
H1083 C1107 0.950 . S
H1084 C1108 0.950 . S
H1085 C1109 0.951 . S
H1086 C1111 0.951 . S
H1087 C1113 0.950 . S
H1088 C1114 0.950 . S
H1089 C1116 0.950 . S
H1090 C1119 0.950 . S
H1091 C1120 0.950 . S
H1092 C1122 0.950 . S
H1093 C1123 0.950 . S
C1094 H1076 0.951 . S
C1094 C1095 1.366 . S
C1094 C1096 1.388 . S
C1095 C1094 1.366 . S
C1095 C1099 1.385 . S
C1096 H1077 0.951 . S
C1096 C1094 1.388 . S
C1096 C1097 1.366 . S
C1097 C1096 1.366 . S
C1097 C1098 1.414 . S
C1097 C1100 1.499 . S
C1098 H1078 0.950 . S
C1098 C1097 1.414 . S
C1098 C1099 1.374 . S
C1099 H1079 0.950 . S
C1099 C1095 1.385 . S
C1099 C1098 1.374 . S
C1100 C1097 1.499 . S
C1100 C1101 1.373 . S
C1100 C1102 1.389 . S
C1101 H1080 0.950 . S
C1101 C1100 1.373 . S
C1101 C1117 1.377 . S
C1102 C1100 1.389 . S
C1102 C1103 1.524 . S
C1102 C1116 1.377 . S
C1103 C1102 1.524 . S
C1103 C1104 1.397 . S
C1103 C1108 1.363 . S
C1104 H1081 0.950 . S
C1104 C1103 1.397 . S
C1104 C1105 1.334 . S
C1105 H1082 0.950 . S
C1105 C1104 1.334 . S
C1105 C1106 1.287 . S
C1106 C1105 1.287 . S
C1106 C1107 1.524 . S
C1106 H1125 0.913 . S
C1107 H1083 0.950 . S
C1107 C1106 1.524 . S
C1107 C1108 1.415 . S
C1108 H1084 0.950 . S
C1108 C1103 1.363 . S
C1108 C1107 1.415 . S
C1109 H1085 0.951 . S
C1109 C1110 1.366 . S
C1109 C1111 1.388 . S
C1110 C1109 1.366 . S
C1110 C1114 1.385 . S
C1111 H1086 0.951 . S
C1111 C1109 1.388 . S
C1111 C1112 1.366 . S
C1112 C1111 1.366 . S
C1112 C1113 1.414 . S
C1112 C1115 1.499 . S
C1113 H1087 0.950 . S
C1113 C1112 1.414 . S
C1113 C1114 1.374 . S
C1114 H1088 0.950 . S
C1114 C1110 1.385 . S
C1114 C1113 1.374 . S
C1115 C1112 1.499 . S
C1115 C1116 1.373 . S
C1115 C1117 1.389 . S
C1116 H1089 0.950 . S
C1116 C1102 1.377 . S
C1116 C1115 1.373 . S
C1117 C1101 1.377 . S
C1117 C1115 1.389 . S
C1117 C1118 1.524 . S
C1118 C1117 1.524 . S
C1118 C1119 1.397 . S
C1118 C1123 1.363 . S
C1119 H1090 0.950 . S
C1119 C1118 1.397 . S
C1119 C1120 1.334 . S
C1120 H1091 0.950 . S
C1120 C1119 1.334 . S
C1120 C1121 1.287 . S
C1121 C1120 1.287 . S
C1121 C1122 1.524 . S
C1121 H1124 0.999 . S
C1122 H1092 0.950 . S
C1122 C1121 1.524 . S
C1122 C1123 1.415 . S
C1123 H1093 0.950 . S
C1123 C1118 1.363 . S
C1123 C1122 1.415 . S
H1124 C1121 0.999 . S
H1125 C1106 0.913 . S
H1126 C1144 0.951 . S
H1127 C1146 0.951 . S
H1128 C1148 0.950 . S
H1129 C1149 0.950 . S
H1130 C1151 0.950 . S
H1131 C1154 0.950 . S
H1132 C1155 0.950 . S
H1133 C1157 0.950 . S
H1134 C1158 0.950 . S
H1135 C1159 0.951 . S
H1136 C1161 0.951 . S
H1137 C1163 0.950 . S
H1138 C1164 0.950 . S
H1139 C1166 0.950 . S
H1140 C1169 0.950 . S
H1141 C1170 0.950 . S
H1142 C1172 0.950 . S
H1143 C1173 0.950 . S
C1144 H1126 0.951 . S
C1144 C1145 1.366 . S
C1144 C1146 1.388 . S
C1145 C1144 1.366 . S
C1145 C1149 1.385 . S
C1146 H1127 0.951 . S
C1146 C1144 1.388 . S
C1146 C1147 1.366 . S
C1147 C1146 1.366 . S
C1147 C1148 1.414 . S
C1147 C1150 1.499 . S
C1148 H1128 0.950 . S
C1148 C1147 1.414 . S
C1148 C1149 1.374 . S
C1149 H1129 0.950 . S
C1149 C1145 1.385 . S
C1149 C1148 1.374 . S
C1150 C1147 1.499 . S
C1150 C1151 1.373 . S
C1150 C1152 1.389 . S
C1151 H1130 0.950 . S
C1151 C1150 1.373 . S
C1151 C1167 1.377 . S
C1152 C1150 1.389 . S
C1152 C1153 1.524 . S
C1152 C1166 1.377 . S
C1153 C1152 1.524 . S
C1153 C1154 1.397 . S
C1153 C1158 1.363 . S
C1154 H1131 0.950 . S
C1154 C1153 1.397 . S
C1154 C1155 1.334 . S
C1155 H1132 0.950 . S
C1155 C1154 1.334 . S
C1155 C1156 1.287 . S
C1156 C1155 1.287 . S
C1156 C1157 1.524 . S
C1156 H1175 0.913 . S
C1157 H1133 0.950 . S
C1157 C1156 1.524 . S
C1157 C1158 1.415 . S
C1158 H1134 0.950 . S
C1158 C1153 1.363 . S
C1158 C1157 1.415 . S
C1159 H1135 0.951 . S
C1159 C1160 1.366 . S
C1159 C1161 1.388 . S
C1160 C1159 1.366 . S
C1160 C1164 1.385 . S
C1161 H1136 0.951 . S
C1161 C1159 1.388 . S
C1161 C1162 1.366 . S
C1162 C1161 1.366 . S
C1162 C1163 1.414 . S
C1162 C1165 1.499 . S
C1163 H1137 0.950 . S
C1163 C1162 1.414 . S
C1163 C1164 1.374 . S
C1164 H1138 0.950 . S
C1164 C1160 1.385 . S
C1164 C1163 1.374 . S
C1165 C1162 1.499 . S
C1165 C1166 1.373 . S
C1165 C1167 1.389 . S
C1166 H1139 0.950 . S
C1166 C1152 1.377 . S
C1166 C1165 1.373 . S
C1167 C1151 1.377 . S
C1167 C1165 1.389 . S
C1167 C1168 1.524 . S
C1168 C1167 1.524 . S
C1168 C1169 1.397 . S
C1168 C1173 1.363 . S
C1169 H1140 0.950 . S
C1169 C1168 1.397 . S
C1169 C1170 1.334 . S
C1170 H1141 0.950 . S
C1170 C1169 1.334 . S
C1170 C1171 1.287 . S
C1171 C1170 1.287 . S
C1171 C1172 1.524 . S
C1171 H1174 0.999 . S
C1172 H1142 0.950 . S
C1172 C1171 1.524 . S
C1172 C1173 1.415 . S
C1173 H1143 0.950 . S
C1173 C1168 1.363 . S
C1173 C1172 1.415 . S
H1174 C1171 0.999 . S
H1175 C1156 0.913 . S
H1176 C1194 0.951 . S
H1177 C1196 0.951 . S
H1178 C1198 0.950 . S
H1179 C1199 0.950 . S
H1180 C1201 0.950 . S
H1181 C1204 0.950 . S
H1182 C1205 0.950 . S
H1183 C1207 0.950 . S
H1184 C1208 0.950 . S
H1185 C1209 0.951 . S
H1186 C1211 0.951 . S
H1187 C1213 0.950 . S
H1188 C1214 0.950 . S
H1189 C1216 0.950 . S
H1190 C1219 0.950 . S
H1191 C1220 0.950 . S
H1192 C1222 0.950 . S
H1193 C1223 0.950 . S
C1194 H1176 0.951 . S
C1194 C1195 1.366 . S
C1194 C1196 1.388 . S
C1195 C1194 1.366 . S
C1195 C1199 1.385 1_554 S
C1196 H1177 0.951 . S
C1196 C1194 1.388 . S
C1196 C1197 1.366 . S
C1197 C1196 1.366 . S
C1197 C1198 1.414 1_554 S
C1197 C1200 1.499 . S
C1198 H1178 0.950 . S
C1198 C1197 1.414 1_556 S
C1198 C1199 1.374 . S
C1199 H1179 0.950 . S
C1199 C1195 1.385 1_556 S
C1199 C1198 1.374 . S
C1200 C1197 1.499 . S
C1200 C1201 1.373 1_554 S
C1200 C1202 1.389 . S
C1201 H1180 0.950 . S
C1201 C1200 1.373 1_556 S
C1201 C1217 1.377 . S
C1202 C1200 1.389 . S
C1202 C1203 1.524 . S
C1202 C1216 1.377 . S
C1203 C1202 1.524 . S
C1203 C1204 1.397 . S
C1203 C1208 1.363 . S
C1204 H1181 0.950 . S
C1204 C1203 1.397 . S
C1204 C1205 1.334 . S
C1205 H1182 0.950 . S
C1205 C1204 1.334 . S
C1205 C1206 1.287 . S
C1206 C1205 1.287 . S
C1206 C1207 1.524 . S
C1206 H1225 0.913 . S
C1207 H1183 0.950 . S
C1207 C1206 1.524 . S
C1207 C1208 1.415 . S
C1208 H1184 0.950 . S
C1208 C1203 1.363 . S
C1208 C1207 1.415 . S
C1209 H1185 0.951 . S
C1209 C1210 1.366 1_556 S
C1209 C1211 1.388 . S
C1210 C1209 1.366 1_554 S
C1210 C1214 1.385 . S
C1211 H1186 0.951 . S
C1211 C1209 1.388 . S
C1211 C1212 1.366 1_556 S
C1212 C1211 1.366 1_554 S
C1212 C1213 1.414 . S
C1212 C1215 1.499 . S
C1213 H1187 0.950 . S
C1213 C1212 1.414 . S
C1213 C1214 1.374 . S
C1214 H1188 0.950 . S
C1214 C1210 1.385 . S
C1214 C1213 1.374 . S
C1215 C1212 1.499 . S
C1215 C1216 1.373 . S
C1215 C1217 1.389 1_554 S
C1216 H1189 0.950 . S
C1216 C1202 1.377 . S
C1216 C1215 1.373 . S
C1217 C1201 1.377 . S
C1217 C1215 1.389 1_556 S
C1217 C1218 1.524 . S
C1218 C1217 1.524 . S
C1218 C1219 1.397 . S
C1218 C1223 1.363 . S
C1219 H1190 0.950 . S
C1219 C1218 1.397 . S
C1219 C1220 1.334 . S
C1220 H1191 0.950 . S
C1220 C1219 1.334 . S
C1220 C1221 1.287 . S
C1221 C1220 1.287 . S
C1221 C1222 1.524 . S
C1221 H1224 0.999 . S
C1222 H1192 0.950 . S
C1222 C1221 1.524 . S
C1222 C1223 1.415 . S
C1223 H1193 0.950 . S
C1223 C1218 1.363 . S
C1223 C1222 1.415 . S
H1224 C1221 0.999 . S
H1225 C1206 0.913 . S
H1226 C1244 0.951 . S
H1227 C1246 0.951 . S
H1228 C1248 0.950 . S
H1229 C1249 0.950 . S
H1230 C1251 0.950 . S
H1231 C1254 0.950 . S
H1232 C1255 0.950 . S
H1233 C1257 0.950 . S
H1234 C1258 0.950 . S
H1235 C1259 0.951 . S
H1236 C1261 0.951 . S
H1237 C1263 0.950 . S
H1238 C1264 0.950 . S
H1239 C1266 0.950 . S
H1240 C1269 0.950 . S
H1241 C1270 0.950 . S
H1242 C1272 0.950 1_554 S
H1243 C1273 0.950 . S
C1244 H1226 0.951 . S
C1244 C1245 1.366 . S
C1244 C1246 1.388 . S
C1245 C1244 1.366 . S
C1245 C1249 1.385 1_556 S
C1246 H1227 0.951 . S
C1246 C1244 1.388 . S
C1246 C1247 1.366 . S
C1247 C1246 1.366 . S
C1247 C1248 1.414 1_556 S
C1247 C1250 1.499 . S
C1248 H1228 0.950 . S
C1248 C1247 1.414 1_554 S
C1248 C1249 1.374 . S
C1249 H1229 0.950 . S
C1249 C1245 1.385 1_554 S
C1249 C1248 1.374 . S
C1250 C1247 1.499 . S
C1250 C1251 1.373 . S
C1250 C1252 1.389 . S
C1251 H1230 0.950 . S
C1251 C1250 1.373 . S
C1251 C1267 1.377 . S
C1252 C1250 1.389 . S
C1252 C1253 1.524 . S
C1252 C1266 1.377 . S
C1253 C1252 1.524 . S
C1253 C1254 1.397 1_556 S
C1253 C1258 1.363 . S
C1254 H1231 0.950 . S
C1254 C1253 1.397 1_554 S
C1254 C1255 1.334 . S
C1255 H1232 0.950 . S
C1255 C1254 1.334 . S
C1255 C1256 1.296 . S
C1256 C1255 1.296 . S
C1256 C1257 1.512 1_554 S
C1256 H1275 0.915 . S
C1257 H1233 0.950 . S
C1257 C1256 1.512 1_556 S
C1257 C1258 1.415 . S
C1258 H1234 0.950 . S
C1258 C1253 1.363 . S
C1258 C1257 1.415 . S
C1259 H1235 0.951 . S
C1259 C1260 1.366 1_554 S
C1259 C1261 1.388 . S
C1260 C1259 1.366 1_556 S
C1260 C1264 1.385 . S
C1261 H1236 0.951 . S
C1261 C1259 1.388 . S
C1261 C1262 1.366 1_554 S
C1262 C1261 1.366 1_556 S
C1262 C1263 1.414 . S
C1262 C1265 1.499 . S
C1263 H1237 0.950 . S
C1263 C1262 1.414 . S
C1263 C1264 1.374 . S
C1264 H1238 0.950 . S
C1264 C1260 1.385 . S
C1264 C1263 1.374 . S
C1265 C1262 1.499 . S
C1265 C1266 1.373 . S
C1265 C1267 1.389 . S
C1266 H1239 0.950 . S
C1266 C1252 1.377 . S
C1266 C1265 1.373 . S
C1267 C1251 1.377 . S
C1267 C1265 1.389 . S
C1267 C1268 1.524 . S
C1268 C1267 1.524 . S
C1268 C1269 1.397 . S
C1268 C1273 1.363 1_556 S
C1269 H1240 0.950 . S
C1269 C1268 1.397 . S
C1269 C1270 1.334 . S
C1270 H1241 0.950 . S
C1270 C1269 1.334 . S
C1270 C1271 1.287 . S
C1271 C1270 1.287 . S
C1271 C1272 1.524 . S
C1271 H1274 0.999 . S
C1272 H1242 0.950 1_556 S
C1272 C1271 1.524 . S
C1272 C1273 1.415 1_556 S
C1273 H1243 0.950 . S
C1273 C1268 1.363 1_554 S
C1273 C1272 1.415 1_554 S
H1274 C1271 0.999 . S
H1275 C1256 0.915 . S
H1276 C1294 0.951 . S
H1277 C1296 0.951 . S
H1278 C1298 0.950 . S
H1279 C1299 0.950 . S
H1280 C1301 0.952 . S
H1281 C1304 0.950 . S
H1282 C1305 0.950 . S
H1283 C1307 0.950 . S
H1284 C1308 0.950 . S
H1285 C1309 0.951 . S
H1286 C1311 0.951 . S
H1287 C1313 0.950 . S
H1288 C1314 0.950 . S
H1289 C1316 0.950 . S
H1290 C1319 0.950 . S
H1291 C1320 0.950 . S
H1292 C1322 0.950 . S
H1293 C1323 0.950 . S
C1294 H1276 0.951 . S
C1294 C1295 1.366 . S
C1294 C1296 1.388 . S
C1295 C1294 1.366 . S
C1295 C1299 1.385 . S
C1296 H1277 0.951 . S
C1296 C1294 1.388 . S
C1296 C1297 1.366 . S
C1297 C1296 1.366 . S
C1297 C1298 1.414 . S
C1297 C1300 1.499 . S
C1298 H1278 0.950 . S
C1298 C1297 1.414 . S
C1298 C1299 1.374 . S
C1299 H1279 0.950 . S
C1299 C1295 1.385 . S
C1299 C1298 1.374 . S
C1300 C1297 1.499 . S
C1300 C1301 1.412 . S
C1300 C1302 1.389 . S
C1301 H1280 0.952 . S
C1301 C1300 1.412 . S
C1301 C1317 1.337 1_565 S
C1302 C1300 1.389 . S
C1302 C1303 1.524 . S
C1302 C1316 1.377 1_565 S
C1303 C1302 1.524 . S
C1303 C1304 1.397 . S
C1303 C1308 1.363 . S
C1304 H1281 0.950 . S
C1304 C1303 1.397 . S
C1304 C1305 1.334 . S
C1305 H1282 0.950 . S
C1305 C1304 1.334 . S
C1305 C1306 1.287 . S
C1306 C1305 1.287 . S
C1306 C1307 1.524 . S
C1306 H1325 0.913 . S
C1307 H1283 0.950 . S
C1307 C1306 1.524 . S
C1307 C1308 1.415 . S
C1308 H1284 0.950 . S
C1308 C1303 1.363 . S
C1308 C1307 1.415 . S
C1309 H1285 0.951 . S
C1309 C1310 1.366 . S
C1309 C1311 1.388 . S
C1310 C1309 1.366 . S
C1310 C1314 1.385 . S
C1311 H1286 0.951 . S
C1311 C1309 1.388 . S
C1311 C1312 1.366 . S
C1312 C1311 1.366 . S
C1312 C1313 1.414 . S
C1312 C1315 1.499 . S
C1313 H1287 0.950 . S
C1313 C1312 1.414 . S
C1313 C1314 1.374 . S
C1314 H1288 0.950 . S
C1314 C1310 1.385 . S
C1314 C1313 1.374 . S
C1315 C1312 1.499 . S
C1315 C1316 1.373 . S
C1315 C1317 1.389 . S
C1316 H1289 0.950 . S
C1316 C1302 1.377 1_545 S
C1316 C1315 1.373 . S
C1317 C1301 1.337 1_545 S
C1317 C1315 1.389 . S
C1317 C1318 1.524 . S
C1318 C1317 1.524 . S
C1318 C1319 1.397 . S
C1318 C1323 1.363 . S
C1319 H1290 0.950 . S
C1319 C1318 1.397 . S
C1319 C1320 1.334 . S
C1320 H1291 0.950 . S
C1320 C1319 1.334 . S
C1320 C1321 1.287 . S
C1321 C1320 1.287 . S
C1321 C1322 1.524 . S
C1321 H1324 0.999 . S
C1322 H1292 0.950 . S
C1322 C1321 1.524 . S
C1322 C1323 1.415 . S
C1323 H1293 0.950 . S
C1323 C1318 1.363 . S
C1323 C1322 1.415 . S
H1324 C1321 0.999 . S
H1325 C1306 0.913 . S
H1326 C1344 0.951 . S
H1327 C1346 0.951 . S
H1328 C1348 0.950 . S
H1329 C1349 0.950 . S
H1330 C1351 0.951 . S
H1331 C1354 0.950 1_556 S
H1332 C1355 0.950 1_556 S
H1333 C1357 0.950 . S
H1334 C1358 0.950 . S
H1335 C1359 0.951 . S
H1336 C1361 0.951 . S
H1337 C1363 0.950 . S
H1338 C1364 0.950 . S
H1339 C1366 0.951 . S
H1340 C1369 0.950 1_554 S
H1341 C1370 0.950 1_554 S
H1342 C1372 0.950 . S
H1343 C1373 0.950 . S
C1344 H1326 0.951 . S
C1344 C1345 1.366 . S
C1344 C1346 1.388 . S
C1345 C1344 1.366 . S
C1345 C1349 1.385 . S
C1346 H1327 0.951 . S
C1346 C1344 1.388 . S
C1346 C1347 1.366 . S
C1347 C1346 1.366 . S
C1347 C1348 1.414 . S
C1347 C1350 1.499 . S
C1348 H1328 0.950 . S
C1348 C1347 1.414 . S
C1348 C1349 1.374 . S
C1349 H1329 0.950 . S
C1349 C1345 1.385 . S
C1349 C1348 1.374 . S
C1350 C1347 1.499 . S
C1350 C1351 1.392 . S
C1350 C1352 1.389 1_556 S
C1351 H1330 0.951 . S
C1351 C1350 1.392 . S
C1351 C1367 1.357 1_545 S
C1352 C1350 1.389 1_554 S
C1352 C1353 1.524 . S
C1352 C1366 1.398 . S
C1353 C1352 1.524 . S
C1353 C1354 1.397 . S
C1353 C1358 1.363 . S
C1354 H1331 0.950 1_554 S
C1354 C1353 1.397 . S
C1354 C1355 1.334 . S
C1355 H1332 0.950 1_554 S
C1355 C1354 1.334 . S
C1355 C1356 1.287 . S
C1356 C1355 1.287 . S
C1356 C1357 1.524 . S
C1356 H1375 0.913 . S
C1357 H1333 0.950 . S
C1357 C1356 1.524 . S
C1357 C1358 1.415 . S
C1358 H1334 0.950 . S
C1358 C1353 1.363 . S
C1358 C1357 1.415 . S
C1359 H1335 0.951 . S
C1359 C1360 1.366 . S
C1359 C1361 1.388 . S
C1360 C1359 1.366 . S
C1360 C1364 1.385 . S
C1361 H1336 0.951 . S
C1361 C1359 1.388 . S
C1361 C1362 1.366 . S
C1362 C1361 1.366 . S
C1362 C1363 1.414 . S
C1362 C1365 1.499 . S
C1363 H1337 0.950 . S
C1363 C1362 1.414 . S
C1363 C1364 1.374 . S
C1364 H1338 0.950 . S
C1364 C1360 1.385 . S
C1364 C1363 1.374 . S
C1365 C1362 1.499 . S
C1365 C1366 1.353 1_565 S
C1365 C1367 1.389 1_554 S
C1366 H1339 0.951 . S
C1366 C1352 1.398 . S
C1366 C1365 1.353 1_545 S
C1367 C1351 1.357 1_565 S
C1367 C1365 1.389 1_556 S
C1367 C1368 1.524 . S
C1368 C1367 1.524 . S
C1368 C1369 1.397 . S
C1368 C1373 1.363 . S
C1369 H1340 0.950 1_556 S
C1369 C1368 1.397 . S
C1369 C1370 1.334 . S
C1370 H1341 0.950 1_556 S
C1370 C1369 1.334 . S
C1370 C1371 1.287 . S
C1371 C1370 1.287 . S
C1371 C1372 1.524 . S
C1371 H1374 0.999 . S
C1372 H1342 0.950 . S
C1372 C1371 1.524 . S
C1372 C1373 1.415 . S
C1373 H1343 0.950 . S
C1373 C1368 1.363 . S
C1373 C1372 1.415 . S
H1374 C1371 0.999 . S
H1375 C1356 0.913 . S
C195 C106 1.644 1_554 S
C210 C7 1.649 . S
C245 C16 1.339 . S
C260 C161 1.650 . S
C295 C95 1.450 . S
C310 C27 1.233 . S
C345 C38 1.379 . S
C360 C170 1.255 . S
C395 C51 1.650 . S
C410 C115 1.338 . S
C445 C148 1.233 . S
C460 C62 1.451 . S
C495 C126 1.379 . S
C510 C71 1.255 . S
C545 C139 1.648 . S
C560 C84 1.643 . S
C595 C49 1.365 . S
C610 C40 1.498 . S
C645 C137 1.377 . S
C660 C93 1.240 . S
C695 C73 1.575 . S
C710 C18 1.574 . S
C745 C150 1.581 . S
C760 C104 1.529 1_554 S
C795 C5 1.377 . S
C810 C60 1.240 . S
C845 C172 1.576 . S
C860 C117 1.575 . S
C895 C82 1.531 . S
C910 C29 1.580 . S
C945 C128 1.499 . S
C960 C159 1.366 . S
C995 C8 1.624 . S
C1010 C52 1.625 . S
C1045 C19 1.572 . S
C1060 C63 1.566 . S
C1095 C30 1.581 . S
C1110 C74 1.580 . S
C1145 C41 1.596 . S
C1160 C85 1.596 . S
C1195 C96 1.565 . S
C1210 C118 1.572 . S
C1245 C129 1.596 . S
C1260 C107 1.596 . S
C1295 C162 1.624 . S
C1310 C140 1.624 . S
C1345 C173 1.581 . S
C1360 C151 1.582 . S
