# Generated by pormake.
# Topology wfs, (7)-cn, num edge types: 1
# Building blocks:
#     Node 0, Type 0, BuildingBlock: HICVOG_clean_sbu_0, # of connection points: 7
#     Node 1, Type 0, BuildingBlock: HICVOG_clean_sbu_0, # of connection points: 7
#     Node 2, Type 0, BuildingBlock: HICVOG_clean_sbu_0, # of connection points: 7
#     Node 3, Type 0, BuildingBlock: HICVOG_clean_sbu_0, # of connection points: 7
#     Node 4, Type 0, BuildingBlock: HICVOG_clean_sbu_0, # of connection points: 7
#     Node 5, Type 0, BuildingBlock: HICVOG_clean_sbu_0, # of connection points: 7
#     Node 6, Type 0, BuildingBlock: HICVOG_clean_sbu_0, # of connection points: 7
#     Node 7, Type 0, BuildingBlock: HICVOG_clean_sbu_0, # of connection points: 7
#     Edge 8, Type (0, 0), BuildingBlock: XUDNAN_clean_linker_2, # of connection points: 2
#     Edge 9, Type (0, 0), BuildingBlock: XUDNAN_clean_linker_2, # of connection points: 2
#     Edge 10, Type (0, 0), BuildingBlock: XUDNAN_clean_linker_2, # of connection points: 2
#     Edge 11, Type (0, 0), BuildingBlock: XUDNAN_clean_linker_2, # of connection points: 2
#     Edge 12, Type (0, 0), BuildingBlock: XUDNAN_clean_linker_2, # of connection points: 2
#     Edge 13, Type (0, 0), BuildingBlock: XUDNAN_clean_linker_2, # of connection points: 2
#     Edge 14, Type (0, 0), BuildingBlock: XUDNAN_clean_linker_2, # of connection points: 2
#     Edge 15, Type (0, 0), BuildingBlock: XUDNAN_clean_linker_2, # of connection points: 2
#     Edge 16, Type (0, 0), BuildingBlock: XUDNAN_clean_linker_2, # of connection points: 2
#     Edge 17, Type (0, 0), BuildingBlock: XUDNAN_clean_linker_2, # of connection points: 2
#     Edge 18, Type (0, 0), BuildingBlock: XUDNAN_clean_linker_2, # of connection points: 2
#     Edge 19, Type (0, 0), BuildingBlock: XUDNAN_clean_linker_2, # of connection points: 2
#     Edge 20, Type (0, 0), BuildingBlock: XUDNAN_clean_linker_2, # of connection points: 2
#     Edge 21, Type (0, 0), BuildingBlock: XUDNAN_clean_linker_2, # of connection points: 2
#     Edge 22, Type (0, 0), BuildingBlock: XUDNAN_clean_linker_2, # of connection points: 2
#     Edge 23, Type (0, 0), BuildingBlock: XUDNAN_clean_linker_2, # of connection points: 2
#     Edge 24, Type (0, 0), BuildingBlock: XUDNAN_clean_linker_2, # of connection points: 2
#     Edge 25, Type (0, 0), BuildingBlock: XUDNAN_clean_linker_2, # of connection points: 2
#     Edge 26, Type (0, 0), BuildingBlock: XUDNAN_clean_linker_2, # of connection points: 2
#     Edge 27, Type (0, 0), BuildingBlock: XUDNAN_clean_linker_2, # of connection points: 2
#     Edge 28, Type (0, 0), BuildingBlock: XUDNAN_clean_linker_2, # of connection points: 2
#     Edge 29, Type (0, 0), BuildingBlock: XUDNAN_clean_linker_2, # of connection points: 2
#     Edge 30, Type (0, 0), BuildingBlock: XUDNAN_clean_linker_2, # of connection points: 2
#     Edge 31, Type (0, 0), BuildingBlock: XUDNAN_clean_linker_2, # of connection points: 2
#     Edge 32, Type (0, 0), BuildingBlock: XUDNAN_clean_linker_2, # of connection points: 2
#     Edge 33, Type (0, 0), BuildingBlock: XUDNAN_clean_linker_2, # of connection points: 2
#     Edge 34, Type (0, 0), BuildingBlock: XUDNAN_clean_linker_2, # of connection points: 2
#     Edge 35, Type (0, 0), BuildingBlock: XUDNAN_clean_linker_2, # of connection points: 2
# Relax obj value: 0.539
# Max RMSD: 0.320
# Mean RMSD: 0.320
data_MOF--net-wfs--node1-HICVOG_clean_sbu_0--edge1-XUDNAN_clean_linker_2
_symmetry_space_group_name_H-M    P1
_symmetry_Int_Tables_number       1
_symmetry_cell_setting            triclinic
loop_
_symmetry_equiv_pos_as_xyz
'x, y, z'
_cell_length_a     31.093188
_cell_length_b     29.77737
_cell_length_c     32.932619
_cell_angle_alpha  90.057056
_cell_angle_beta   89.882992
_cell_angle_gamma 89.979704
loop_
_atom_site_label
_atom_site_type_symbol
_atom_site_fract_x
_atom_site_fract_y
_atom_site_fract_z
_atom_type_partial_charge
Zn0 Zn 0.19043 0.15146 0.19209 0.0
C1 C 0.19329 0.27818 0.23325 0.0
N2 N 0.23577 0.26923 0.2343 0.0
C3 C 0.23706 0.22608 0.22286 0.0
N4 N 0.19797 0.20966 0.21482 0.0
N5 N 0.16967 0.24206 0.22128 0.0
C6 C 0.04888 0.23695 0.14725 0.0
O7 O 0.02746 0.21112 0.17249 0.0
O8 O 0.23548 0.10685 0.21187 0.0
Zn9 Zn 0.10703 0.23436 0.21518 0.0
N10 N 0.1971 0.15492 0.13445 0.0
C11 C 0.20024 0.19377 0.07166 0.0
C12 C 0.18652 0.19147 0.11199 0.0
C13 C 0.21976 0.12039 0.11838 0.0
N14 N 0.22444 0.15982 0.05599 0.0
C15 C 0.2352 0.12304 0.07845 0.0
O16 O 0.08456 0.17016 0.2255 0.0
C17 C 0.09847 0.1303 0.22041 0.0
O18 O 0.1361 0.12261 0.20746 0.0
H19 H 0.16912 0.21909 0.1257 0.0
H20 H 0.22577 0.09163 0.13732 0.0
C21 C 0.046 0.29598 0.25012 0.0
C22 C 0.02611 0.31862 0.2827 0.0
C23 C 0.07859 0.28856 0.32741 0.0
C24 C 0.0968 0.26467 0.29536 0.0
N25 N 0.08084 0.26974 0.25731 0.0
N26 N 0.04345 0.31441 0.32047 0.0
H27 H 0.03269 0.29666 0.21985 0.0
C28 C 0.24556 0.09765 0.24833 0.0
O29 O 0.22895 0.12155 0.27803 0.0
O30 O 0.08495 0.25306 0.15869 0.0
H31 H 0.1239 0.24263 0.30054 0.0
H32 H 0.1925 0.22269 0.0532 0.0
H33 H 0.09148 0.28561 0.35778 0.0
Zn34 Zn 0.11514 0.76345 0.79557 0.0
C35 C 0.23647 0.78384 0.75701 0.0
N36 N 0.23433 0.74075 0.74512 0.0
C37 C 0.19564 0.72817 0.75949 0.0
N38 N 0.17526 0.76185 0.77929 0.0
N39 N 0.20123 0.79695 0.77749 0.0
C40 C 0.24231 0.9146 0.75008 0.0
O41 O 0.22358 0.89404 0.71959 0.0
O42 O 0.09834 0.73828 0.85199 0.0
Zn43 Zn 0.19517 0.85257 0.80657 0.0
N44 N 0.08539 0.73233 0.75314 0.0
C45 C 0.07673 0.72355 0.68195 0.0
C46 C 0.09698 0.74382 0.71475 0.0
C47 C 0.05302 0.7028 0.76033 0.0
N48 N 0.04381 0.69478 0.68893 0.0
C49 C 0.03061 0.68419 0.72723 0.0
O50 O 0.13608 0.88088 0.80384 0.0
C51 C 0.09795 0.86719 0.79751 0.0
O52 O 0.08955 0.82563 0.79343 0.0
H53 H 0.12231 0.7681 0.70976 0.0
H54 H 0.04423 0.69531 0.79137 0.0
C55 C 0.23385 0.87227 0.88148 0.0
C56 C 0.25006 0.86379 0.92063 0.0
C57 C 0.2222 0.78944 0.91639 0.0
C58 C 0.20603 0.79845 0.87787 0.0
N59 N 0.21194 0.8398 0.86144 0.0
N60 N 0.24352 0.82219 0.9368 0.0
H61 H 0.23837 0.90382 0.86617 0.0
C62 C 0.0922 0.76721 0.88008 0.0
O63 O 0.10388 0.80891 0.87345 0.0
O64 O 0.23529 0.90155 0.78626 0.0
H65 H 0.1895 0.77258 0.861 0.0
H66 H 0.08622 0.73152 0.65117 0.0
H67 H 0.21783 0.75672 0.93004 0.0
Zn68 Zn 0.80243 0.86044 0.20252 0.0
C69 C 0.8028 0.73293 0.2422 0.0
N70 N 0.76383 0.74471 0.25663 0.0
C71 C 0.76181 0.78834 0.24651 0.0
N72 N 0.7971 0.80237 0.22688 0.0
N73 N 0.82337 0.76764 0.22411 0.0
C74 C 0.91132 0.7763 0.12636 0.0
O75 O 0.90326 0.8189 0.13342 0.0
O76 O 0.75943 0.90448 0.22653 0.0
Zn77 Zn 0.88386 0.77158 0.21022 0.0
N78 N 0.78638 0.85466 0.14668 0.0
C79 C 0.77063 0.81229 0.08744 0.0
C80 C 0.7887 0.8152 0.1261 0.0
C81 C 0.76695 0.89117 0.13049 0.0
N82 N 0.75052 0.84873 0.07142 0.0
C83 C 0.74767 0.88832 0.09208 0.0
O84 O 0.90793 0.83456 0.21678 0.0
C85 C 0.89843 0.87616 0.21561 0.0
O86 O 0.86021 0.88941 0.20916 0.0
H87 H 0.8036 0.78616 0.13988 0.0
H88 H 0.76685 0.92188 0.14792 0.0
C89 C 0.94472 0.7092 0.2442 0.0
C90 C 0.96693 0.68934 0.27678 0.0
C91 C 0.92051 0.72712 0.32302 0.0
C92 C 0.90055 0.74872 0.29078 0.0
N93 N 0.9125 0.73871 0.25213 0.0
N94 N 0.95347 0.69857 0.31532 0.0
H95 H 0.95349 0.70278 0.21297 0.0
C96 C 0.7644 0.92779 0.25854 0.0
O97 O 0.79917 0.92206 0.28054 0.0
O98 O 0.90215 0.74773 0.15391 0.0
H99 H 0.8752 0.77286 0.29634 0.0
H100 H 0.7721 0.7812 0.07049 0.0
H101 H 0.9108 0.73394 0.35398 0.0
Zn102 Zn 0.88763 0.22218 0.79614 0.0
C103 C 0.76785 0.21566 0.75051 0.0
N104 N 0.77551 0.25806 0.73879 0.0
C105 C 0.81355 0.26686 0.75656 0.0
N106 N 0.82828 0.23141 0.7782 0.0
N107 N 0.79889 0.19959 0.77473 0.0
C108 C 0.74815 0.08345 0.75333 0.0
O109 O 0.76935 0.10123 0.7228 0.0
O110 O 0.90406 0.25042 0.85073 0.0
Zn111 Zn 0.79517 0.14731 0.80822 0.0
N112 N 0.9208 0.24938 0.75346 0.0
C113 C 0.93071 0.25822 0.68243 0.0
C114 C 0.90969 0.2381 0.71493 0.0
C115 C 0.95293 0.27906 0.76108 0.0
N116 N 0.96293 0.28773 0.68988 0.0
C117 C 0.97529 0.29884 0.72831 0.0
O118 O 0.85042 0.11457 0.81046 0.0
C119 C 0.89067 0.11835 0.80512 0.0
O120 O 0.90796 0.15635 0.79791 0.0
H121 H 0.88403 0.21429 0.70962 0.0
H122 H 0.96113 0.28562 0.79232 0.0
C123 C 0.75938 0.13387 0.88545 0.0
C124 C 0.73992 0.14585 0.92257 0.0
C125 C 0.7559 0.22247 0.90854 0.0
C126 C 0.77465 0.21021 0.87174 0.0
N127 N 0.77591 0.16616 0.86104 0.0
N128 N 0.73904 0.19019 0.93292 0.0
H129 H 0.7618 0.09957 0.87524 0.0
C130 C 0.90034 0.22786 0.88345 0.0
O131 O 0.88058 0.1889 0.88214 0.0
O132 O 0.75347 0.09884 0.78902 0.0
H133 H 0.78735 0.23563 0.85164 0.0
H134 H 0.92185 0.25018 0.65153 0.0
H135 H 0.75447 0.25737 0.91758 0.0
Zn136 Zn 0.60783 0.73033 0.71189 0.0
C137 C 0.73644 0.7164 0.72455 0.0
N138 N 0.73532 0.76038 0.73313 0.0
C139 C 0.6938 0.7707 0.72642 0.0
N140 N 0.67049 0.73447 0.71472 0.0
N141 N 0.69784 0.70035 0.7135 0.0
C142 C 0.73167 0.56971 0.75087 0.0
O143 O 0.69758 0.57139 0.77446 0.0
O144 O 0.58035 0.74877 0.65742 0.0
Zn145 Zn 0.68775 0.63839 0.69946 0.0
N146 N 0.58551 0.77173 0.75201 0.0
C147 C 0.58747 0.80813 0.81636 0.0
C148 C 0.60487 0.77761 0.7886 0.0
C149 C 0.54911 0.79436 0.74239 0.0
N150 N 0.55063 0.83035 0.80692 0.0
C151 C 0.53087 0.82443 0.77044 0.0
O152 O 0.63224 0.61458 0.71906 0.0
C153 C 0.59452 0.627 0.72846 0.0
O154 O 0.58314 0.6682 0.72695 0.0
H155 H 0.63364 0.75895 0.79604 0.0
H156 H 0.53361 0.78722 0.71376 0.0
C157 C 0.72032 0.60628 0.62537 0.0
C158 C 0.72086 0.59777 0.5836 0.0
C159 C 0.65785 0.64232 0.57648 0.0
C160 C 0.65667 0.64901 0.61838 0.0
N161 N 0.68843 0.63164 0.64171 0.0
N162 N 0.6896 0.61659 0.56014 0.0
H163 H 0.74464 0.59242 0.64502 0.0
C164 C 0.59326 0.75479 0.62107 0.0
O165 O 0.63415 0.74995 0.61206 0.0
O166 O 0.73416 0.59615 0.72066 0.0
H167 H 0.63049 0.66713 0.63245 0.0
H168 H 0.60267 0.81347 0.84548 0.0
H169 H 0.63305 0.6562 0.55724 0.0
Zn170 Zn 0.6007 0.27987 0.2838 0.0
C171 C 0.73007 0.28131 0.27432 0.0
N172 N 0.7284 0.23653 0.27709 0.0
C173 C 0.68608 0.22901 0.28307 0.0
N174 N 0.66306 0.26793 0.28444 0.0
N175 N 0.6916 0.3004 0.27929 0.0
C176 C 0.74066 0.42437 0.25288 0.0
O177 O 0.71145 0.41959 0.22443 0.0
O178 O 0.56608 0.25659 0.33285 0.0
Zn179 Zn 0.68751 0.36027 0.29838 0.0
N180 N 0.58137 0.25084 0.23529 0.0
C181 C 0.59339 0.23286 0.16593 0.0
C182 C 0.60534 0.2557 0.20103 0.0
C183 C 0.54504 0.22575 0.23567 0.0
N184 N 0.55712 0.20753 0.16623 0.0
C185 C 0.53211 0.20326 0.20007 0.0
O186 O 0.63664 0.39266 0.27945 0.0
C187 C 0.59728 0.38527 0.27251 0.0
O188 O 0.58131 0.34589 0.27507 0.0
H189 H 0.63409 0.27613 0.20142 0.0
H190 H 0.52645 0.22494 0.26332 0.0
C191 C 0.72081 0.37085 0.37681 0.0
C192 C 0.72123 0.36785 0.41916 0.0
C193 C 0.65347 0.33115 0.41721 0.0
C194 C 0.6524 0.33618 0.37512 0.0
N195 N 0.68621 0.35566 0.35596 0.0
N196 N 0.68753 0.34759 0.43828 0.0
H197 H 0.74727 0.38614 0.36057 0.0
C198 C 0.57686 0.24216 0.36783 0.0
O199 O 0.61777 0.23734 0.37669 0.0
O200 O 0.73829 0.40018 0.28459 0.0
H201 H 0.62514 0.32465 0.35772 0.0
H202 H 0.61247 0.23559 0.13854 0.0
H203 H 0.62698 0.31547 0.43311 0.0
Zn204 Zn 0.31237 0.3561 0.68983 0.0
C205 C 0.30459 0.2272 0.7226 0.0
N206 N 0.26438 0.23974 0.73299 0.0
C207 C 0.26429 0.28344 0.72375 0.0
N208 N 0.30193 0.29708 0.70849 0.0
N209 N 0.32822 0.26214 0.70819 0.0
C210 C 0.39143 0.24088 0.61189 0.0
O211 O 0.34959 0.23587 0.6153 0.0
O212 O 0.26532 0.39988 0.70553 0.0
Zn213 Zn 0.39092 0.26693 0.70092 0.0
N214 N 0.31414 0.35638 0.63197 0.0
C215 C 0.34815 0.34486 0.56815 0.0
C216 C 0.34878 0.34207 0.61048 0.0
C217 C 0.27971 0.37501 0.61331 0.0
N218 N 0.31438 0.36527 0.54957 0.0
C219 C 0.28034 0.38119 0.57133 0.0
O220 O 0.4165 0.32854 0.71933 0.0
C221 C 0.40317 0.36903 0.72285 0.0
O222 O 0.36552 0.38047 0.71251 0.0
H223 H 0.37674 0.32964 0.62621 0.0
H224 H 0.25322 0.38773 0.63127 0.0
C225 C 0.45164 0.20109 0.72504 0.0
C226 C 0.47109 0.16987 0.75123 0.0
C227 C 0.41591 0.18324 0.79969 0.0
C228 C 0.39787 0.21547 0.77421 0.0
N229 N 0.41561 0.22303 0.73708 0.0
N230 N 0.45238 0.16174 0.78792 0.0
H231 H 0.46601 0.21001 0.69625 0.0
C232 C 0.26127 0.42088 0.73893 0.0
O233 O 0.28782 0.41204 0.76885 0.0
O234 O 0.41292 0.25323 0.64287 0.0
H235 H 0.36978 0.2341 0.78383 0.0
H236 H 0.37521 0.33311 0.5504 0.0
H237 H 0.40177 0.17629 0.82905 0.0
Zn238 Zn 0.38581 0.74595 0.29769 0.0
C239 C 0.25979 0.72503 0.2743 0.0
N240 N 0.25909 0.76887 0.26474 0.0
C241 C 0.29913 0.78213 0.27453 0.0
N242 N 0.32337 0.74782 0.28892 0.0
N243 N 0.29813 0.71209 0.28903 0.0
C244 C 0.26313 0.58567 0.26523 0.0
O245 O 0.28392 0.59912 0.23269 0.0
O246 O 0.40663 0.7541 0.35678 0.0
Zn247 Zn 0.31095 0.65594 0.31476 0.0
N248 N 0.41085 0.79063 0.26213 0.0
C249 C 0.41005 0.82984 0.19916 0.0
C250 C 0.39225 0.79826 0.22543 0.0
C251 C 0.44798 0.81151 0.27265 0.0
N252 N 0.44739 0.85038 0.20945 0.0
C253 C 0.4672 0.8419 0.24547 0.0
O254 O 0.36885 0.63165 0.30073 0.0
C255 C 0.40444 0.64463 0.28586 0.0
O256 O 0.4127 0.68619 0.28049 0.0
H257 H 0.36387 0.77982 0.21652 0.0
H258 H 0.46353 0.80226 0.30076 0.0
C259 C 0.28122 0.63232 0.39143 0.0
C260 C 0.26423 0.64002 0.43028 0.0
C261 C 0.29637 0.71231 0.4302 0.0
C262 C 0.31096 0.70528 0.39054 0.0
N263 N 0.30314 0.66527 0.37212 0.0
N264 N 0.27307 0.67973 0.44905 0.0
H265 H 0.27612 0.60088 0.37581 0.0
C266 C 0.41258 0.78998 0.37714 0.0
O267 O 0.40299 0.82899 0.36106 0.0
O268 O 0.26975 0.60534 0.29897 0.0
H269 H 0.3269 0.73192 0.37417 0.0
H270 H 0.39511 0.83686 0.17021 0.0
H271 H 0.30244 0.74387 0.44543 0.0
H272 H 0.26211 0.02783 0.19656 0.0
H273 H 0.28191 0.07199 0.32063 0.0
H274 H 0.3115 0.99731 0.33783 0.0
H275 H 0.22137 0.9263 0.21947 0.0
H276 H 0.24548 0.89555 0.17809 0.0
H277 H 0.23587 0.95472 0.17307 0.0
H278 H 0.31674 0.96857 0.15708 0.0
H279 H 0.32575 0.90884 0.16064 0.0
H280 H 0.35709 0.94703 0.19105 0.0
H281 H 0.32732 0.91441 0.34418 0.0
H282 H 0.32455 0.83137 0.3394 0.0
H283 H 0.29285 0.84104 0.21209 0.0
C284 C 0.27406 0.02236 0.22702 0.0
C285 C 0.26993 0.05591 0.25721 0.0
C286 C 0.2849 0.0469 0.29696 0.0
C287 C 0.30197 1.0046 0.30694 0.0
C288 C 0.30401 0.97163 0.27683 0.0
C289 C 0.29064 0.98021 0.23755 0.0
C290 C 0.2907 0.93777 0.21211 0.0
C291 C 0.24569 0.92803 0.19471 0.0
C292 C 0.32459 0.94072 0.1782 0.0
C293 C 0.3036 0.90348 0.24375 0.0
C294 C 0.31258 0.92375 0.28058 0.0
C295 C 0.32179 0.89838 0.31516 0.0
C296 C 0.32086 0.85127 0.31216 0.0
C297 C 0.31069 0.83014 0.27503 0.0
C298 C 0.30232 0.85661 0.24043 0.0
H299 H 0.97202 0.6914 0.78971 0.0
H300 H 0.994 0.62577 0.67384 0.0
H301 H 0.91676 0.60981 0.6686 0.0
H302 H 0.87033 0.61829 0.81971 0.0
H303 H 0.84714 0.66743 0.8431 0.0
H304 H 0.90443 0.65815 0.84539 0.0
H305 H 0.91647 0.73694 0.81446 0.0
H306 H 0.85977 0.74604 0.81052 0.0
H307 H 0.89307 0.75012 0.7658 0.0
H308 H 0.84066 0.6284 0.66264 0.0
H309 H 0.7703 0.66683 0.66371 0.0
H310 H 0.79423 0.71347 0.78559 0.0
C311 C 0.9613 0.67099 0.76455 0.0
C312 C 0.98921 0.66012 0.73206 0.0
C313 C 0.97322 0.6347 0.69903 0.0
C314 C 0.92931 0.62526 0.69586 0.0
C315 C 0.90196 0.64043 0.72649 0.0
C316 C 0.91749 0.6612 0.76111 0.0
C317 C 0.88123 0.68096 0.78623 0.0
C318 C 0.87544 0.65462 0.82596 0.0
C319 C 0.88808 0.73146 0.79466 0.0
C320 C 0.84381 0.673 0.7579 0.0
C321 C 0.85617 0.64852 0.72406 0.0
C322 C 0.82969 0.64488 0.69006 0.0
C323 C 0.7897 0.66644 0.69085 0.0
C324 C 0.77616 0.69013 0.72563 0.0
C325 C 0.80338 0.69338 0.75953 0.0
H326 H 0.71644 0.17075 0.33761 0.0
H327 H 0.62853 0.18088 0.23691 0.0
H328 H 0.62607 0.09907 0.23129 0.0
H329 H 0.78028 0.10003 0.29243 0.0
H330 H 0.79599 0.06641 0.33541 0.0
H331 H 0.7782 0.12306 0.34307 0.0
H332 H 0.71887 0.09618 0.39263 0.0
H333 H 0.73712 0.03913 0.38599 0.0
H334 H 0.6816 0.05324 0.37682 0.0
H335 H 0.64849 0.01939 0.22394 0.0
H336 H 0.69202 0.95068 0.21655 0.0
H337 H 0.77012 0.9911 0.31906 0.0
C338 C 0.69439 0.15543 0.31626 0.0
C339 C 0.67061 0.18253 0.28917 0.0
C340 C 0.64437 0.16151 0.25985 0.0
C341 C 0.64358 0.11453 0.25599 0.0
C342 C 0.66973 0.08891 0.28142 0.0
C343 C 0.69435 0.10868 0.31146 0.0
C344 C 0.72619 0.07546 0.32923 0.0
C345 C 0.77288 0.09226 0.32472 0.0
C346 C 0.71528 0.0654 0.37382 0.0
C347 C 0.71781 0.03491 0.30261 0.0
C348 C 0.68427 0.04287 0.27603 0.0
C349 C 0.67391 0.01236 0.24541 0.0
C350 C 0.69889 0.97335 0.24136 0.0
C351 C 0.73421 0.9652 0.26743 0.0
C352 C 0.74288 0.99591 0.29911 0.0
H353 H 0.03214 0.3239 0.66962 0.0
H354 H 0.0101 0.33619 0.79951 0.0
H355 H 0.08517 0.35726 0.80885 0.0
H356 H 0.1162 0.26836 0.67027 0.0
H357 H 0.14692 0.29443 0.63019 0.0
H358 H 0.08968 0.29923 0.63036 0.0
H359 H 0.09546 0.38584 0.62899 0.0
H360 H 0.15337 0.38153 0.62854 0.0
H361 H 0.12679 0.4146 0.66695 0.0
H362 H 0.1627 0.3472 0.80813 0.0
H363 H 0.23433 0.31416 0.79554 0.0
H364 H 0.20947 0.31284 0.66657 0.0
C365 C 0.04241 0.33295 0.6999 0.0
C366 C 0.01523 0.32596 0.73384 0.0
C367 C 0.03014 0.33885 0.77282 0.0
C368 C 0.07295 0.35193 0.77848 0.0
C369 C 0.10015 0.35357 0.74483 0.0
C370 C 0.08507 0.34612 0.70591 0.0
C371 C 0.12185 0.34171 0.67584 0.0
C372 C 0.11843 0.29834 0.65028 0.0
C373 C 0.12452 0.38341 0.64847 0.0
C374 C 0.15947 0.34039 0.7048 0.0
C375 C 0.14657 0.34967 0.74427 0.0
C376 C 0.17368 0.342 0.77728 0.0
C377 C 0.21408 0.32289 0.77 0.0
C378 C 0.22694 0.31219 0.7301 0.0
C379 C 0.20025 0.32249 0.69708 0.0
H380 H 0.24271 0.98836 0.79797 0.0
H381 H 0.29507 0.93562 0.6857 0.0
H382 H 0.3306 0.00891 0.67245 0.0
H383 H 0.2131 0.09002 0.75537 0.0
H384 H 0.22216 0.12226 0.80091 0.0
H385 H 0.20884 0.06374 0.8045 0.0
H386 H 0.27727 0.05024 0.84614 0.0
H387 H 0.29196 0.10863 0.84253 0.0
H388 H 0.32928 0.06582 0.8262 0.0
H389 H 0.354 0.09181 0.66873 0.0
H390 H 0.35367 0.17513 0.67032 0.0
H391 H 0.28233 0.17196 0.78318 0.0
C392 C 0.26278 0.9918 0.77121 0.0
C393 C 0.26693 0.95629 0.74321 0.0
C394 C 0.29193 0.9625 0.70769 0.0
C395 C 0.31239 1.00387 0.70011 0.0
C396 C 0.30695 0.03873 0.7281 0.0
C397 C 0.28218 0.03301 0.76268 0.0
C398 C 0.27522 0.07686 0.78477 0.0
C399 C 0.22701 0.08892 0.78644 0.0
C400 C 0.29472 0.07533 0.82746 0.0
C401 C 0.29982 0.10838 0.75742 0.0
C402 C 0.31862 0.08603 0.72514 0.0
C403 C 0.33978 0.10944 0.69417 0.0
C404 C 0.33968 0.15679 0.69532 0.0
C405 C 0.3179 0.17982 0.72679 0.0
C406 C 0.29959 0.15512 0.75894 0.0
H407 H 0.20171 0.71914 0.21382 0.0
H408 H 0.22776 0.67464 0.33595 0.0
H409 H 0.15834 0.63512 0.33813 0.0
H410 H 0.1047 0.75519 0.2346 0.0
H411 H 0.0794 0.74134 0.18697 0.0
H412 H 0.13627 0.74991 0.18883 0.0
H413 H 0.14796 0.67085 0.15745 0.0
H414 H 0.09059 0.66188 0.15633 0.0
H415 H 0.12503 0.62224 0.18183 0.0
H416 H 0.08242 0.6159 0.33374 0.0
H417 H 0.00507 0.63169 0.32993 0.0
H418 H 0.02443 0.69574 0.21295 0.0
C419 C 0.19329 0.69919 0.24014 0.0
C420 C 0.22093 0.69721 0.27382 0.0
C421 C 0.20816 0.67376 0.30898 0.0
C422 C 0.16869 0.6513 0.31037 0.0
C423 C 0.14169 0.65398 0.27669 0.0
C424 C 0.1533 0.67791 0.24231 0.0
C425 C 0.11511 0.68551 0.21477 0.0
C426 C 0.10848 0.73594 0.20587 0.0
C427 C 0.11997 0.65849 0.17525 0.0
C428 C 0.07952 0.66636 0.24099 0.0
C429 C 0.09586 0.64586 0.27534 0.0
C430 C 0.06923 0.63106 0.30663 0.0
C431 C 0.02523 0.6404 0.30426 0.0
C432 C 0.00842 0.66541 0.27135 0.0
C433 C 0.03561 0.67581 0.23819 0.0
H434 H 0.74382 0.01195 0.80409 0.0
H435 H 0.69829 0.06034 0.68795 0.0
H436 H 0.66404 0.98649 0.67485 0.0
H437 H 0.77773 0.91084 0.76722 0.0
H438 H 0.76532 0.87898 0.81226 0.0
H439 H 0.77656 0.93792 0.81621 0.0
H440 H 0.70386 0.94992 0.85218 0.0
H441 H 0.69146 0.89098 0.84797 0.0
H442 H 0.65459 0.93222 0.82817 0.0
H443 H 0.64309 0.9038 0.67085 0.0
H444 H 0.64679 0.82054 0.6722 0.0
H445 H 0.71059 0.82639 0.78866 0.0
C446 C 0.72527 0.00746 0.77657 0.0
C447 C 0.72295 0.04189 0.7473 0.0
C448 C 0.70001 0.03434 0.71087 0.0
C449 C 0.68024 0.99263 0.70337 0.0
C450 C 0.68415 0.95871 0.73243 0.0
C451 C 0.70651 0.96575 0.76819 0.0
C452 C 0.71272 0.92239 0.79134 0.0
C453 C 0.76091 0.91193 0.79704 0.0
C454 C 0.68918 0.92396 0.83235 0.0
C455 C 0.69158 0.88951 0.76258 0.0
C456 C 0.67405 0.91103 0.7293 0.0
C457 C 0.65605 0.88676 0.69713 0.0
C458 C 0.65793 0.83948 0.6982 0.0
C459 C 0.67847 0.81735 0.73076 0.0
C460 C 0.69397 0.84269 0.76383 0.0
H461 H 0.78682 0.29606 0.33453 0.0
H462 H 0.76292 0.32081 0.20724 0.0
H463 H 0.83489 0.35561 0.20035 0.0
H464 H 0.8609 0.39953 0.35127 0.0
H465 H 0.89391 0.36735 0.38552 0.0
H466 H 0.83676 0.35724 0.38306 0.0
H467 H 0.85106 0.27299 0.3682 0.0
H468 H 0.90777 0.28273 0.37087 0.0
H469 H 0.88499 0.25772 0.32589 0.0
H470 H 0.91267 0.37045 0.20354 0.0
H471 H 0.99003 0.35872 0.21471 0.0
H472 H 0.9642 0.32426 0.34041 0.0
C473 C 0.79658 0.31031 0.3057 0.0
C474 C 0.7701 0.30643 0.27144 0.0
C475 C 0.78328 0.32412 0.23373 0.0
C476 C 0.82373 0.34433 0.22976 0.0
C477 C 0.85004 0.34682 0.26396 0.0
C478 C 0.83678 0.33063 0.30139 0.0
C479 C 0.87327 0.33024 0.33159 0.0
C480 C 0.86577 0.36571 0.36482 0.0
C481 C 0.87965 0.28313 0.35014 0.0
C482 C 0.91018 0.34353 0.30407 0.0
C483 C 0.89584 0.35509 0.26573 0.0
C484 C 0.92428 0.36235 0.23362 0.0
C485 C 0.96822 0.35498 0.24013 0.0
C486 C 0.98307 0.33943 0.27825 0.0
C487 C 0.95392 0.33654 0.31107 0.0
H488 H 0.73429 0.50399 0.80933 0.0
H489 H 0.79834 0.54903 0.69952 0.0
H490 H 0.84087 0.47932 0.69814 0.0
H491 H 0.82995 0.43911 0.85258 0.0
H492 H 0.7948 0.39593 0.87183 0.0
H493 H 0.77645 0.45334 0.86945 0.0
H494 H 0.71065 0.42837 0.82681 0.0
H495 H 0.72863 0.3712 0.82929 0.0
H496 H 0.71931 0.39705 0.78062 0.0
H497 H 0.86152 0.39859 0.69841 0.0
H498 H 0.86055 0.31598 0.70267 0.0
H499 H 0.79048 0.32353 0.81579 0.0
C500 C 0.75841 0.49994 0.78585 0.0
C501 C 0.76293 0.53217 0.75462 0.0
C502 C 0.79436 0.52514 0.724 0.0
C503 C 0.81885 0.48556 0.723 0.0
C504 C 0.81234 0.45358 0.75331 0.0
C505 C 0.78343 0.46072 0.78464 0.0
C506 C 0.77869 0.41903 0.81068 0.0
C507 C 0.79602 0.42737 0.85369 0.0
C508 C 0.73156 0.40298 0.81187 0.0
C509 C 0.80723 0.38645 0.78761 0.0
C510 C 0.82688 0.40719 0.75488 0.0
C511 C 0.8483 0.38238 0.72505 0.0
C512 C 0.84824 0.33532 0.72793 0.0
C513 C 0.8281 0.3136 0.76098 0.0
C514 C 0.80864 0.33964 0.79175 0.0
H515 H 0.29903 0.19884 0.27502 0.0
H516 H 0.26592 0.20578 0.1479 0.0
H517 H 0.33628 0.17408 0.12933 0.0
H518 H 0.39492 0.24086 0.26796 0.0
H519 H 0.4226 0.20625 0.30445 0.0
H520 H 0.36564 0.2137 0.30842 0.0
H521 H 0.3549 0.12749 0.30613 0.0
H522 H 0.41228 0.11963 0.30185 0.0
H523 H 0.37681 0.09544 0.26452 0.0
H524 H 0.41329 0.16366 0.12359 0.0
H525 H 0.49003 0.17973 0.13052 0.0
H526 H 0.47674 0.17487 0.26193 0.0
C527 C 0.3064 0.19176 0.2435 0.0
C528 C 0.27695 0.20273 0.21278 0.0
C529 C 0.28743 0.19509 0.17171 0.0
C530 C 0.3274 0.17722 0.16099 0.0
C531 C 0.35647 0.16731 0.19187 0.0
C532 C 0.34633 0.17383 0.23245 0.0
C533 C 0.38557 0.16835 0.25908 0.0
C534 C 0.39258 0.20976 0.28651 0.0
C535 C 0.38219 0.12515 0.28438 0.0
C536 C 0.42009 0.16403 0.22679 0.0
C537 C 0.40242 0.16128 0.18838 0.0
C538 C 0.4276 0.16455 0.1535 0.0
C539 C 0.4714 0.17395 0.15784 0.0
C540 C 0.4896 0.18058 0.19681 0.0
C541 C 0.46406 0.17191 0.23156 0.0
H542 H 0.20434 0.66341 0.81596 0.0
H543 H 0.16356 0.68741 0.69266 0.0
H544 H 0.15786 0.60602 0.68082 0.0
H545 H 0.27696 0.58777 0.78837 0.0
H546 H 0.2733 0.55117 0.83181 0.0
H547 H 0.25834 0.60912 0.83657 0.0
H548 H 0.18289 0.58622 0.86276 0.0
H549 H 0.19781 0.52784 0.85855 0.0
H550 H 0.15034 0.54828 0.83323 0.0
H551 H 0.16997 0.52426 0.6776 0.0
H552 H 0.20715 0.45138 0.67964 0.0
H553 H 0.24987 0.47971 0.80243 0.0
C554 C 0.19142 0.65116 0.78751 0.0
C555 C 0.18089 0.68145 0.75621 0.0
C556 C 0.16822 0.66474 0.71793 0.0
C557 C 0.16543 0.61843 0.71086 0.0
C558 C 0.17719 0.58915 0.74195 0.0
C559 C 0.1904 0.60488 0.77951 0.0
C560 C 0.21107 0.56766 0.80416 0.0
C561 C 0.25766 0.57966 0.81587 0.0
C562 C 0.18389 0.55686 0.84192 0.0
C563 C 0.20968 0.52938 0.7738 0.0
C564 C 0.18844 0.54202 0.73878 0.0
C565 C 0.18618 0.5138 0.70506 0.0
C566 C 0.20754 0.4724 0.7065 0.0
C567 C 0.2317 0.45989 0.74115 0.0
C568 C 0.23138 0.48814 0.77568 0.0
H569 H 0.52919 0.8513 0.18859 0.0
H570 H 0.50543 0.86654 0.31761 0.0
H571 H 0.58338 0.87306 0.32953 0.0
H572 H 0.60676 0.77879 0.1964 0.0
H573 H 0.6402 0.79775 0.15503 0.0
H574 H 0.58371 0.80945 0.15455 0.0
H575 H 0.60036 0.89285 0.14605 0.0
H576 H 0.65768 0.88411 0.14918 0.0
H577 H 0.63117 0.92242 0.18356 0.0
H578 H 0.66018 0.85481 0.33008 0.0
H579 H 0.73058 0.81825 0.31834 0.0
H580 H 0.70648 0.81669 0.18908 0.0
C581 C 0.54031 0.85843 0.21906 0.0
C582 C 0.51148 0.85816 0.25217 0.0
C583 C 0.52711 0.86619 0.29183 0.0
C584 C 0.57134 0.87038 0.29881 0.0
C585 C 0.59931 0.86708 0.26578 0.0
C586 C 0.58436 0.86214 0.22646 0.0
C587 C 0.62059 0.85117 0.19726 0.0
C588 C 0.6123 0.80666 0.17455 0.0
C589 C 0.62796 0.88994 0.16727 0.0
C590 C 0.65753 0.84687 0.22679 0.0
C591 C 0.64487 0.85734 0.26605 0.0
C592 C 0.67107 0.84828 0.29941 0.0
C593 C 0.71068 0.82718 0.29262 0.0
C594 C 0.72356 0.81581 0.25286 0.0
C595 C 0.69738 0.82668 0.21955 0.0
H596 H 0.75272 0.48514 0.19131 0.0
H597 H 0.79417 0.45292 0.31361 0.0
H598 H 0.82992 0.52643 0.31855 0.0
H599 H 0.85163 0.55685 0.16377 0.0
H600 H 0.81844 0.59488 0.13502 0.0
H601 H 0.80496 0.53602 0.13738 0.0
H602 H 0.7288 0.55645 0.16361 0.0
H603 H 0.74202 0.61504 0.1615 0.0
H604 H 0.72343 0.59078 0.20849 0.0
H605 H 0.84119 0.60863 0.31783 0.0
H606 H 0.83449 0.69033 0.30825 0.0
H607 H 0.79557 0.6698 0.18384 0.0
C608 C 0.77081 0.49283 0.21849 0.0
C609 C 0.77041 0.4633 0.25209 0.0
C610 C 0.79397 0.47485 0.28738 0.0
C611 C 0.81455 0.51661 0.29045 0.0
C612 C 0.81238 0.54601 0.25758 0.0
C613 C 0.79207 0.53421 0.22181 0.0
C614 C 0.79013 0.57368 0.19276 0.0
C615 C 0.81796 0.56482 0.15499 0.0
C616 C 0.74334 0.58462 0.18095 0.0
C617 C 0.80956 0.61035 0.21892 0.0
C618 C 0.82265 0.59352 0.25608 0.0
C619 C 0.83369 0.62193 0.2881 0.0
C620 C 0.8304 0.66843 0.28231 0.0
C621 C 0.81802 0.68625 0.24436 0.0
C622 C 0.80824 0.65683 0.21212 0.0
H623 H 0.53344 0.15145 0.80611 0.0
H624 H 0.50764 0.1499 0.67673 0.0
H625 H 0.58522 0.14526 0.66292 0.0
H626 H 0.60956 0.22209 0.8071 0.0
H627 H 0.64528 0.19745 0.84397 0.0
H628 H 0.58914 0.18412 0.8452 0.0
H629 H 0.60631 0.09917 0.83941 0.0
H630 H 0.66296 0.11225 0.83914 0.0
H631 H 0.64015 0.0792 0.7987 0.0
H632 H 0.66179 0.16546 0.66272 0.0
H633 H 0.73331 0.19841 0.67679 0.0
H634 H 0.71055 0.18512 0.80581 0.0
C635 C 0.54398 0.1476 0.77495 0.0
C636 C 0.51467 0.15221 0.74255 0.0
C637 C 0.52963 0.14772 0.7021 0.0
C638 C 0.57369 0.14447 0.69394 0.0
C639 C 0.60216 0.14436 0.72656 0.0
C640 C 0.58791 0.14418 0.76642 0.0
C641 C 0.62482 0.15112 0.79577 0.0
C642 C 0.61668 0.19108 0.82463 0.0
C643 C 0.6341 0.10785 0.81965 0.0
C644 C 0.66071 0.16083 0.76612 0.0
C645 C 0.64748 0.15511 0.72635 0.0
C646 C 0.67316 0.16815 0.69365 0.0
C647 C 0.71336 0.18728 0.70183 0.0
C648 C 0.7273 0.1928 0.74227 0.0
C649 C 0.70087 0.1794 0.7747 0.0
H650 H 0.247 0.52926 0.20041 0.0
H651 H 0.2183 0.54848 0.3282 0.0
H652 H 0.18203 0.47512 0.33006 0.0
H653 H 0.14497 0.46415 0.1756 0.0
H654 H 0.17357 0.4281 0.1408 0.0
H655 H 0.19023 0.48566 0.1474 0.0
H656 H 0.26725 0.45903 0.16539 0.0
H657 H 0.2509 0.40171 0.15858 0.0
H658 H 0.27454 0.41915 0.20598 0.0
H659 H 0.16622 0.39403 0.32261 0.0
H660 H 0.16805 0.31388 0.30498 0.0
H661 H 0.19651 0.34694 0.18028 0.0
C662 C 0.2319 0.51865 0.22845 0.0
C663 C 0.2357 0.54475 0.26421 0.0
C664 C 0.21597 0.52925 0.30041 0.0
C665 C 0.19503 0.48759 0.30172 0.0
C666 C 0.19314 0.46195 0.26635 0.0
C667 C 0.21039 0.47717 0.23016 0.0
C668 C 0.20775 0.44117 0.19758 0.0
C669 C 0.17731 0.45564 0.16331 0.0
C670 C 0.25277 0.42959 0.18095 0.0
C671 C 0.18877 0.40251 0.22176 0.0
C672 C 0.18013 0.41543 0.2613 0.0
C673 C 0.17009 0.38399 0.29122 0.0
C674 C 0.17004 0.33831 0.28078 0.0
C675 C 0.17793 0.32432 0.24045 0.0
C676 C 0.18674 0.35706 0.21053 0.0
H677 H 0.28845 0.81341 0.81698 0.0
H678 H 0.27345 0.80975 0.68656 0.0
H679 H 0.34496 0.84464 0.67805 0.0
H680 H 0.36418 0.91741 0.82195 0.0
H681 H 0.39508 0.89104 0.86158 0.0
H682 H 0.33787 0.88161 0.85841 0.0
H683 H 0.35079 0.79581 0.85633 0.0
H684 H 0.40762 0.8047 0.85958 0.0
H685 H 0.38586 0.77258 0.81797 0.0
H686 H 0.42097 0.86366 0.68241 0.0
H687 H 0.49766 0.85368 0.69776 0.0
H688 H 0.46701 0.8388 0.82554 0.0
C689 C 0.2997 0.82218 0.78688 0.0
C690 C 0.27547 0.81066 0.7524 0.0
C691 C 0.29157 0.8196 0.71319 0.0
C692 C 0.33184 0.83981 0.70819 0.0
C693 C 0.35583 0.84994 0.74276 0.0
C694 C 0.34044 0.84118 0.78147 0.0
C695 C 0.37578 0.84538 0.81282 0.0
C696 C 0.36776 0.8863 0.84031 0.0
C697 C 0.38028 0.80203 0.83808 0.0
C698 C 0.41423 0.85299 0.78528 0.0
C699 C 0.40156 0.8582 0.74529 0.0
C700 C 0.43127 0.86031 0.71363 0.0
C701 C 0.47479 0.85405 0.7226 0.0
C702 C 0.48804 0.84441 0.76277 0.0
C703 C 0.45772 0.84662 0.79468 0.0
H704 H 0.01083 0.11874 0.20957 0.0
H705 H 0.12657 0.05179 0.25135 0.0
H706 H 0.08656 0.98102 0.25843 0.0
H707 H 0.93366 0.05398 0.27424 0.0
H708 H 0.89368 0.05159 0.23475 0.0
H709 H 0.92985 0.09879 0.23764 0.0
H710 H 0.95341 0.08449 0.16326 0.0
H711 H 0.91771 0.03703 0.16027 0.0
H712 H 0.97411 0.03009 0.14915 0.0
H713 H 0.03752 0.91622 0.25437 0.0
H714 H 0.98007 0.86084 0.24284 0.0
H715 H 0.89468 0.96788 0.20366 0.0
C716 C 0.02723 0.08945 0.22136 0.0
C717 C 0.0717 0.09076 0.23018 0.0
C718 C 0.09249 0.0515 0.24447 0.0
C719 C 0.07006 0.01112 0.24866 0.0
C720 C 0.02672 0.01038 0.23846 0.0
C721 C 0.00523 0.04843 0.22547 0.0
C722 C 0.95918 0.0372 0.21398 0.0
C723 C 0.9272 0.06186 0.24182 0.0
C724 C 0.95062 0.04784 0.16899 0.0
C725 C 0.9587 0.98691 0.22177 0.0
C726 C -0.002 0.97235 0.23606 0.0
C727 C 0.00635 0.9272 0.24371 0.0
C728 C 0.97353 0.89594 0.23684 0.0
C729 C 0.93275 0.90989 0.22248 0.0
C730 C 0.92535 0.95613 0.215 0.0
H731 H 0.97975 0.10798 0.80131 0.0
H732 H 0.86001 0.0329 0.80888 0.0
H733 H 0.90025 0.96232 0.80706 0.0
H734 H 0.03434 0.03197 0.73306 0.0
H735 H 0.08603 0.03718 0.7573 0.0
H736 H 0.04829 0.08306 0.75933 0.0
H737 H 0.05242 0.08311 0.83788 0.0
H738 H 0.0903 0.03734 0.836 0.0
H739 H 0.04155 0.03198 0.86531 0.0
H740 H 0.95142 0.89974 0.8027 0.0
H741 H 0.0124 0.84745 0.79959 0.0
H742 H 0.10102 0.96033 0.79657 0.0
C743 C 0.96209 0.07669 0.80267 0.0
C744 C 0.91657 0.07635 0.8052 0.0
C745 C 0.89477 0.03449 0.80703 0.0
C746 C 0.91732 0.99396 0.80592 0.0
C747 C 0.96187 0.99541 0.8032 0.0
C748 C 0.98426 0.03547 0.8019 0.0
C749 C 0.03241 0.02679 0.79946 0.0
C750 C 0.05137 0.04589 0.75993 0.0
C751 C 0.05553 0.04594 0.8369 0.0
C752 C 0.03321 0.97572 0.79939 0.0
C753 C 0.99202 0.95858 0.80138 0.0
C754 C 0.98392 0.91264 0.80125 0.0
C755 C 0.01889 0.88318 0.79932 0.0
C756 C 0.06165 0.89961 0.79779 0.0
C757 C 0.06877 0.94665 0.79777 0.0
H758 H 0.60013 0.53748 0.71073 0.0
H759 H 0.51681 0.63614 0.76788 0.0
H760 H 0.46331 0.57647 0.78161 0.0
H761 H 0.51887 0.48081 0.6593 0.0
H762 H 0.54235 0.42577 0.66452 0.0
H763 H 0.57629 0.47464 0.66442 0.0
H764 H 0.60808 0.45082 0.7338 0.0
H765 H 0.57398 0.40186 0.73421 0.0
H766 H 0.57252 0.44081 0.77613 0.0
H767 H 0.41706 0.50819 0.78421 0.0
H768 H 0.37774 0.4383 0.77001 0.0
H769 H 0.48994 0.38359 0.70909 0.0
C770 C 0.57104 0.54649 0.72694 0.0
C771 C 0.56286 0.59151 0.73872 0.0
C772 C 0.52386 0.60195 0.75881 0.0
C773 C 0.49346 0.5682 0.76694 0.0
C774 C 0.50251 0.52427 0.75466 0.0
C775 C 0.54022 0.5134 0.73482 0.0
C776 C 0.54026 0.4647 0.72105 0.0
C777 C 0.54468 0.46131 0.67458 0.0
C778 C 0.57582 0.43797 0.74259 0.0
C779 C 0.49604 0.45004 0.73524 0.0
C780 C 0.47528 0.48479 0.75528 0.0
C781 C 0.43317 0.48067 0.769 0.0
C782 C 0.41112 0.44077 0.76076 0.0
C783 C 0.43092 0.40539 0.73871 0.0
C784 C 0.4744 0.40958 0.72686 0.0
H785 H 0.51166 0.40044 0.29101 0.0
H786 H 0.62317 0.46033 0.23305 0.0
H787 H 0.58394 0.53157 0.2254 0.0
H788 H 0.42864 0.46266 0.23076 0.0
H789 H 0.39374 0.46896 0.27417 0.0
H790 H 0.42834 0.42057 0.27007 0.0
H791 H 0.46097 0.43917 0.34043 0.0
H792 H 0.42686 0.48778 0.34455 0.0
H793 H 0.48434 0.49376 0.34898 0.0
H794 H 0.53642 0.59875 0.23094 0.0
H795 H 0.48187 0.65654 0.2468 0.0
H796 H 0.4008 0.554 0.30114 0.0
C797 C 0.5272 0.42814 0.27555 0.0
C798 C 0.57036 0.42473 0.26238 0.0
C799 C 0.59009 0.46214 0.24332 0.0
C800 C 0.56806 0.5028 0.23875 0.0
C801 C 0.52615 0.50571 0.2533 0.0
C802 C 0.50565 0.46934 0.27096 0.0
C803 C 0.46159 0.48271 0.28674 0.0
C804 C 0.42597 0.45721 0.26407 0.0
C805 C 0.45828 0.47543 0.3329 0.0
C806 C 0.4612 0.53231 0.27613 0.0
C807 C 0.49861 0.5448 0.25658 0.0
C808 C 0.50665 0.58929 0.24571 0.0
C809 C 0.47556 0.62195 0.25499 0.0
C810 C 0.4369 0.60998 0.27504 0.0
C811 C 0.42977 0.56438 0.28543 0.0
H812 H 0.2497 0.10781 0.99785 0.0
H813 H 0.28046 0.05373 0.1169 0.0
H814 H 0.30436 0.98383 0.08533 0.0
H815 H 0.20656 0.02498 0.95434 0.0
H816 H 0.23169 0.02665 0.90499 0.0
H817 H 0.22879 0.07667 0.93493 0.0
H818 H 0.30979 0.08524 0.92758 0.0
H819 H 0.31823 0.032 0.90229 0.0
H820 H 0.34568 0.04395 0.94877 0.0
H821 H 0.3037 0.91437 0.04442 0.0
H822 H 0.28437 0.85442 0.99675 0.0
H823 H 0.26289 0.95509 0.90319 0.0
C824 C 0.26293 0.08201 0.01729 0.0
C825 C 0.26048 0.08573 0.05997 0.0
C826 C 0.27899 0.05128 0.0842 0.0
C827 C 0.29389 0.01149 0.06652 0.0
C828 C 0.29243 0.00746 0.02452 0.0
C829 C 0.27915 0.04253 1.00005 0.0
C830 C 0.27712 0.02812 0.95608 0.0
C831 C 0.23346 0.03974 0.93651 0.0
C832 C 0.31484 0.04866 0.93225 0.0
C833 C 0.28352 0.97804 0.9609 0.0
C834 C 0.29467 0.96706 1.00019 0.0
C835 C 0.2964 0.9226 0.01318 0.0
C836 C 0.28486 0.88868 0.98579 0.0
C837 C 0.27097 0.89926 0.94589 0.0
C838 C 0.27272 0.94463 0.93304 0.0
H839 H 0.05565 0.82726 0.93209 0.0
H840 H 0.06957 0.68406 0.91179 0.0
H841 H 0.02391 0.66938 0.97244 0.0
H842 H 0.0572 0.82614 0.04075 0.0
H843 H 0.01738 0.8699 0.04515 0.0
H844 H 0.05215 0.86788 1.00142 0.0
H845 H 0.98545 0.86664 0.95431 0.0
H846 H 0.95046 0.86831 0.99792 0.0
H847 H 0.94516 0.82378 0.96115 0.0
H848 H 0.97626 0.67192 0.03776 0.0
H849 H 0.93166 0.69117 0.09798 0.0
H850 H 0.94745 0.83267 0.07059 0.0
C851 C 0.04964 0.79266 0.94045 0.0
C852 C 0.06675 0.75677 0.91732 0.0
C853 C 0.05714 0.71212 0.92915 0.0
C854 C 0.03115 0.70352 0.96354 0.0
C855 C 0.01455 0.73993 0.98545 0.0
C856 C 0.02342 0.78361 0.97402 0.0
C857 C 0.00103 0.81719 1.00134 0.0
C858 C 0.0339 0.84702 0.02348 0.0
C859 C 0.96861 0.84564 0.97724 0.0
C860 C 0.97837 0.78583 0.03046 0.0
C861 C 0.98649 0.74134 0.02115 0.0
C862 C 0.96959 0.70669 0.04497 0.0
C863 C 0.94419 0.71792 0.07912 0.0
C864 C 0.9356 0.76343 0.089 0.0
C865 C 0.95282 0.7975 0.06387 0.0
H866 H 0.7248 0.05393 0.91038 0.0
H867 H 0.71516 0.15958 1.00142 0.0
H868 H 0.69794 0.10277 0.05285 0.0
H869 H 0.64487 0.9718 0.9607 0.0
H870 H 0.67849 0.92635 0.94326 0.0
H871 H 0.67382 0.97714 0.91369 0.0
H872 H 0.75817 0.98139 0.91549 0.0
H873 H 0.76097 0.93306 0.94776 0.0
H874 H 0.78463 0.98532 0.96408 0.0
H875 H 0.69436 0.03503 0.0965 0.0
H876 H 0.71227 0.96375 0.12943 0.0
H877 H 0.73456 0.90294 0.01118 0.0
C878 C 0.71889 0.06589 0.9408 0.0
C879 C 0.72265 0.11181 0.95156 0.0
C880 C 0.71283 0.12482 0.992 0.0
C881 C 0.70264 0.09273 0.02156 0.0
C882 C 0.70195 0.04766 0.01031 0.0
C883 C 0.70961 0.03425 0.9708 0.0
C884 C 0.71411 0.98372 0.96773 0.0
C885 C 0.67556 0.9635 0.945 0.0
C886 C 0.75702 0.97013 0.94763 0.0
C887 C 0.71261 0.97138 0.01224 0.0
C888 C 0.70299 0.00835 0.03602 0.0
C889 C 0.70199 0.00589 0.07818 0.0
C890 C 0.71315 0.96523 0.09663 0.0
C891 C 0.72706 0.92805 0.07294 0.0
C892 C 0.72457 0.93074 0.03019 0.0
H893 H 0.98011 0.19561 0.11154 0.0
H894 H 0.07745 0.29704 0.08922 0.0
H895 H 0.04706 0.30981 0.02059 0.0
H896 H 0.98198 0.14802 0.01274 0.0
H897 H 0.92504 0.13679 0.01163 0.0
H898 H 0.95307 0.13803 0.05937 0.0
H899 H 0.89991 0.19827 0.08608 0.0
H900 H 0.87181 0.19741 0.03829 0.0
H901 H 0.89264 0.24958 0.05789 0.0
H902 H 0.00563 0.31013 0.95315 0.0
H903 H 0.96122 0.29432 0.89247 0.0
H904 H 0.89282 0.19121 0.95952 0.0
C905 C 0.99494 0.22087 0.09247 0.0
C906 C 0.03107 0.2456 0.10602 0.0
C907 C 0.04971 0.27779 0.07966 0.0
C908 C 0.03255 0.28534 0.04066 0.0
C909 C -0.00316 0.26031 0.02834 0.0
C910 C 0.9785 0.22852 0.05351 0.0
C911 C 0.94168 0.20442 0.0327 0.0
C912 C 0.95102 0.15383 0.02888 0.0
C913 C 0.89899 0.21295 0.05507 0.0
C914 C 0.94224 0.22726 0.99162 0.0
C915 C 0.97391 0.25979 0.98973 0.0
C916 C 0.98072 0.2848 0.95446 0.0
C917 C 0.95516 0.27571 0.92014 0.0
C918 C 0.92339 0.24156 0.92111 0.0
C919 C 0.91668 0.21762 0.95767 0.0
H920 H 0.75294 0.45038 0.40267 0.0
H921 H 0.75674 0.34373 0.49161 0.0
H922 H 0.78772 0.39596 0.54146 0.0
H923 H 0.84594 0.52652 0.45257 0.0
H924 H 0.81464 0.5753 0.43936 0.0
H925 H 0.81643 0.52763 0.40553 0.0
H926 H 0.7335 0.52463 0.40637 0.0
H927 H 0.73124 0.57108 0.44045 0.0
H928 H 0.70562 0.5189 0.45424 0.0
H929 H 0.78922 0.45942 0.58608 0.0
H930 H 0.75795 0.52399 0.62039 0.0
H931 H 0.74885 0.59441 0.50552 0.0
C932 C 0.76313 0.43743 0.43177 0.0
C933 C 0.75293 0.39309 0.44334 0.0
C934 C 0.76474 0.37756 0.48218 0.0
C935 C 0.78267 0.40708 0.51056 0.0
C936 C 0.78814 0.45209 0.49972 0.0
C937 C 0.77942 0.46713 0.46075 0.0
C938 C 0.77616 0.51792 0.45938 0.0
C939 C 0.81566 0.53802 0.43796 0.0
C940 C 0.73412 0.53395 0.43902 0.0
C941 C 0.77701 0.5283 0.50436 0.0
C942 C 0.78722 0.49043 0.52681 0.0
C943 C 0.78275 0.48962 0.5689 0.0
C944 C 0.76475 0.52693 0.58828 0.0
C945 C 0.75092 0.56464 0.56551 0.0
C946 C 0.75951 0.56613 0.5235 0.0
H947 H 0.4783 0.24465 0.59338 0.0
H948 H 0.35264 0.22696 0.53841 0.0
H949 H 0.38661 0.22212 0.47082 0.0
H950 H 0.52301 0.31338 0.5151 0.0
H951 H 0.57597 0.28892 0.51765 0.0
H952 H 0.54208 0.28959 0.56205 0.0
H953 H 0.54966 0.20328 0.5685 0.0
H954 H 0.58364 0.20234 0.52411 0.0
H955 H 0.53593 0.16802 0.52592 0.0
H956 H 0.4337 0.2233 0.40845 0.0
H957 H 0.49073 0.22854 0.35634 0.0
H958 H 0.58653 0.24242 0.45118 0.0
C959 C 0.45793 0.23945 0.56717 0.0
C960 C 0.41265 0.23612 0.57143 0.0
C961 C 0.38731 0.2294 0.53619 0.0
C962 C 0.40634 0.22666 0.49754 0.0
C963 C 0.45092 0.23029 0.49438 0.0
C964 C 0.47647 0.23628 0.52825 0.0
C965 C 0.5236 0.23973 0.51629 0.0
C966 C 0.54225 0.28563 0.5285 0.0
C967 C 0.54975 0.20103 0.53481 0.0
C968 C 0.52048 0.23518 0.47041 0.0
C969 C 0.47821 0.22988 0.45844 0.0
C970 C 0.46694 0.22702 0.41754 0.0
C971 C 0.4996 0.23006 0.38811 0.0
C972 C 0.54321 0.23555 0.39954 0.0
C973 C 0.55364 0.23758 0.44138 0.0
H974 H 0.26489 0.4646 0.59801 0.0
H975 H 0.23448 0.37222 0.50087 0.0
H976 H 0.20118 0.43425 0.46225 0.0
H977 H 0.17516 0.55439 0.57722 0.0
H978 H 0.21353 0.59829 0.58754 0.0
H979 H 0.21587 0.54624 0.61539 0.0
H980 H 0.29528 0.53612 0.59432 0.0
H981 H 0.29356 0.58753 0.56652 0.0
H982 H 0.30934 0.53639 0.54113 0.0
H983 H 0.18877 0.50579 0.42789 0.0
H984 H 0.21028 0.5769 0.39632 0.0
H985 H 0.26045 0.62361 0.5115 0.0
C986 C 0.24875 0.45714 0.56968 0.0
C987 C 0.25089 0.41374 0.55269 0.0
C988 C 0.23205 0.40521 0.51458 0.0
C989 C 0.21282 0.44023 0.49272 0.0
C990 C 0.21363 0.48356 0.50915 0.0
C991 C 0.23139 0.49211 0.54692 0.0
C992 C 0.23991 0.54176 0.55305 0.0
C993 C 0.20926 0.56132 0.58519 0.0
C994 C 0.28731 0.5509 0.56433 0.0
C995 C 0.22899 0.55912 0.5112 0.0
C996 C 0.21097 0.52567 0.48741 0.0
C997 C 0.20261 0.53216 0.44634 0.0
C998 C 0.21582 0.5724 0.42847 0.0
C999 C 0.23909 0.60468 0.45119 0.0
C1000 C 0.24297 0.59929 0.49351 0.0
H1001 H 0.59348 0.72788 0.54105 0.0
H1002 H 0.52065 0.80554 0.62887 0.0
H1003 H 0.46649 0.82298 0.57622 0.0
H1004 H 0.57231 0.79579 0.45263 0.0
H1005 H 0.56644 0.74851 0.41888 0.0
H1006 H 0.60052 0.74412 0.46286 0.0
H1007 H 0.55772 0.6744 0.48687 0.0
H1008 H 0.52343 0.67865 0.443 0.0
H1009 H 0.50024 0.67839 0.49321 0.0
H1010 H 0.42212 0.8351 0.5127 0.0
H1011 H 0.38731 0.83505 0.44506 0.0
H1012 H 0.48412 0.74255 0.40046 0.0
C1013 C 0.56629 0.74882 0.54904 0.0
C1014 C 0.56151 0.76583 0.58894 0.0
C1015 C 0.52502 0.79236 0.59847 0.0
C1016 C 0.49414 0.80246 0.56874 0.0
C1017 C 0.4996 0.78496 0.52974 0.0
C1018 C 0.53445 0.75816 0.51998 0.0
C1019 C 0.53152 0.74172 0.47638 0.0
C1020 C 0.56998 0.75855 0.45121 0.0
C1021 C 0.52801 0.69023 0.47479 0.0
C1022 C 0.4899 0.76389 0.46299 0.0
C1023 C 0.47233 0.7892 0.4941 0.0
C1024 C 0.43526 0.81485 0.48835 0.0
C1025 C 0.41571 0.81468 0.44989 0.0
C1026 C 0.43259 0.78822 0.41791 0.0
C1027 C 0.47 0.76226 0.42472 0.0
loop_
_geom_bond_atom_site_label_1
_geom_bond_atom_site_label_2
_geom_bond_distance
_geom_bond_site_symmetry_2
_ccdc_geom_bond_type
Zn0 N4 2.020 . S
Zn0 O8 2.019 . S
Zn0 N10 2.119 . S
Zn0 O18 1.975 . S
C1 N2 1.334 . S
C1 N5 1.336 . S
N2 C1 1.334 . S
N2 C3 1.334 . S
C3 N2 1.334 . S
C3 N4 1.336 . S
N4 Zn0 2.020 . S
N4 C3 1.336 . S
N4 N5 1.354 . S
N5 C1 1.336 . S
N5 N4 1.354 . S
N5 Zn9 2.020 . S
C6 O7 1.244 . S
C6 O30 1.257 . S
O7 C6 1.244 . S
O8 Zn0 2.019 . S
O8 C28 1.257 . S
Zn9 N5 2.020 . S
Zn9 O16 1.975 . S
Zn9 N25 2.119 . S
Zn9 O30 2.019 . S
N10 Zn0 2.119 . S
N10 C12 1.334 . S
N10 C13 1.328 . S
C11 C12 1.391 . S
C11 N14 1.329 . S
C11 H32 0.930 . S
C12 N10 1.334 . S
C12 C11 1.391 . S
C12 H19 0.930 . S
C13 N10 1.328 . S
C13 C15 1.392 . S
C13 H20 0.930 . S
N14 C11 1.329 . S
N14 C15 1.331 . S
C15 C13 1.392 . S
C15 N14 1.331 . S
O16 Zn9 1.975 . S
O16 C17 1.252 . S
C17 O16 1.252 . S
C17 O18 1.252 . S
O18 Zn0 1.975 . S
O18 C17 1.252 . S
H19 C12 0.930 . S
H20 C13 0.930 . S
C21 C22 1.392 . S
C21 N25 1.328 . S
C21 H27 0.930 . S
C22 C21 1.392 . S
C22 N26 1.331 . S
C23 C24 1.391 . S
C23 N26 1.329 . S
C23 H33 0.930 . S
C24 C23 1.391 . S
C24 N25 1.334 . S
C24 H31 0.930 . S
N25 Zn9 2.119 . S
N25 C21 1.328 . S
N25 C24 1.334 . S
N26 C22 1.331 . S
N26 C23 1.329 . S
H27 C21 0.930 . S
C28 O8 1.257 . S
C28 O29 1.244 . S
O29 C28 1.244 . S
O30 C6 1.257 . S
O30 Zn9 2.019 . S
H31 C24 0.930 . S
H32 C11 0.930 . S
H33 C23 0.930 . S
Zn34 N38 2.020 . S
Zn34 O42 2.019 . S
Zn34 N44 2.119 . S
Zn34 O52 1.975 . S
C35 N36 1.334 . S
C35 N39 1.336 . S
N36 C35 1.334 . S
N36 C37 1.334 . S
C37 N36 1.334 . S
C37 N38 1.336 . S
N38 Zn34 2.020 . S
N38 C37 1.336 . S
N38 N39 1.354 . S
N39 C35 1.336 . S
N39 N38 1.354 . S
N39 Zn43 2.020 . S
C40 O41 1.244 . S
C40 O64 1.257 . S
O41 C40 1.244 . S
O42 Zn34 2.019 . S
O42 C62 1.257 . S
Zn43 N39 2.020 . S
Zn43 O50 1.975 . S
Zn43 N59 2.119 . S
Zn43 O64 2.019 . S
N44 Zn34 2.119 . S
N44 C46 1.334 . S
N44 C47 1.328 . S
C45 C46 1.391 . S
C45 N48 1.329 . S
C45 H66 0.930 . S
C46 N44 1.334 . S
C46 C45 1.391 . S
C46 H53 0.930 . S
C47 N44 1.328 . S
C47 C49 1.392 . S
C47 H54 0.930 . S
N48 C45 1.329 . S
N48 C49 1.331 . S
C49 C47 1.392 . S
C49 N48 1.331 . S
O50 Zn43 1.975 . S
O50 C51 1.252 . S
C51 O50 1.252 . S
C51 O52 1.252 . S
O52 Zn34 1.975 . S
O52 C51 1.252 . S
H53 C46 0.930 . S
H54 C47 0.930 . S
C55 C56 1.392 . S
C55 N59 1.328 . S
C55 H61 0.930 . S
C56 C55 1.392 . S
C56 N60 1.331 . S
C57 C58 1.391 . S
C57 N60 1.329 . S
C57 H67 0.930 . S
C58 C57 1.391 . S
C58 N59 1.334 . S
C58 H65 0.930 . S
N59 Zn43 2.119 . S
N59 C55 1.328 . S
N59 C58 1.334 . S
N60 C56 1.331 . S
N60 C57 1.329 . S
H61 C55 0.930 . S
C62 O42 1.257 . S
C62 O63 1.244 . S
O63 C62 1.244 . S
O64 C40 1.257 . S
O64 Zn43 2.019 . S
H65 C58 0.930 . S
H66 C45 0.930 . S
H67 C57 0.930 . S
Zn68 N72 2.020 . S
Zn68 O76 2.019 . S
Zn68 N78 2.119 . S
Zn68 O86 1.975 . S
C69 N70 1.334 . S
C69 N73 1.336 . S
N70 C69 1.334 . S
N70 C71 1.334 . S
C71 N70 1.334 . S
C71 N72 1.336 . S
N72 Zn68 2.020 . S
N72 C71 1.336 . S
N72 N73 1.354 . S
N73 C69 1.336 . S
N73 N72 1.354 . S
N73 Zn77 2.020 . S
C74 O75 1.244 . S
C74 O98 1.257 . S
O75 C74 1.244 . S
O76 Zn68 2.019 . S
O76 C96 1.257 . S
Zn77 N73 2.020 . S
Zn77 O84 1.975 . S
Zn77 N93 2.119 . S
Zn77 O98 2.019 . S
N78 Zn68 2.119 . S
N78 C80 1.334 . S
N78 C81 1.328 . S
C79 C80 1.391 . S
C79 N82 1.329 . S
C79 H100 0.930 . S
C80 N78 1.334 . S
C80 C79 1.391 . S
C80 H87 0.930 . S
C81 N78 1.328 . S
C81 C83 1.392 . S
C81 H88 0.930 . S
N82 C79 1.329 . S
N82 C83 1.331 . S
C83 C81 1.392 . S
C83 N82 1.331 . S
O84 Zn77 1.975 . S
O84 C85 1.252 . S
C85 O84 1.252 . S
C85 O86 1.252 . S
O86 Zn68 1.975 . S
O86 C85 1.252 . S
H87 C80 0.930 . S
H88 C81 0.930 . S
C89 C90 1.392 . S
C89 N93 1.328 . S
C89 H95 0.930 . S
C90 C89 1.392 . S
C90 N94 1.331 . S
C91 C92 1.391 . S
C91 N94 1.329 . S
C91 H101 0.930 . S
C92 C91 1.391 . S
C92 N93 1.334 . S
C92 H99 0.930 . S
N93 Zn77 2.119 . S
N93 C89 1.328 . S
N93 C92 1.334 . S
N94 C90 1.331 . S
N94 C91 1.329 . S
H95 C89 0.930 . S
C96 O76 1.257 . S
C96 O97 1.244 . S
O97 C96 1.244 . S
O98 C74 1.257 . S
O98 Zn77 2.019 . S
H99 C92 0.930 . S
H100 C79 0.930 . S
H101 C91 0.930 . S
Zn102 N106 2.020 . S
Zn102 O110 2.019 . S
Zn102 N112 2.119 . S
Zn102 O120 1.975 . S
C103 N104 1.334 . S
C103 N107 1.336 . S
N104 C103 1.334 . S
N104 C105 1.334 . S
C105 N104 1.334 . S
C105 N106 1.336 . S
N106 Zn102 2.020 . S
N106 C105 1.336 . S
N106 N107 1.354 . S
N107 C103 1.336 . S
N107 N106 1.354 . S
N107 Zn111 2.020 . S
C108 O109 1.244 . S
C108 O132 1.257 . S
O109 C108 1.244 . S
O110 Zn102 2.019 . S
O110 C130 1.257 . S
Zn111 N107 2.020 . S
Zn111 O118 1.975 . S
Zn111 N127 2.119 . S
Zn111 O132 2.019 . S
N112 Zn102 2.119 . S
N112 C114 1.334 . S
N112 C115 1.328 . S
C113 C114 1.391 . S
C113 N116 1.329 . S
C113 H134 0.930 . S
C114 N112 1.334 . S
C114 C113 1.391 . S
C114 H121 0.930 . S
C115 N112 1.328 . S
C115 C117 1.392 . S
C115 H122 0.930 . S
N116 C113 1.329 . S
N116 C117 1.331 . S
C117 C115 1.392 . S
C117 N116 1.331 . S
O118 Zn111 1.975 . S
O118 C119 1.252 . S
C119 O118 1.252 . S
C119 O120 1.252 . S
O120 Zn102 1.975 . S
O120 C119 1.252 . S
H121 C114 0.930 . S
H122 C115 0.930 . S
C123 C124 1.392 . S
C123 N127 1.328 . S
C123 H129 0.930 . S
C124 C123 1.392 . S
C124 N128 1.331 . S
C125 C126 1.391 . S
C125 N128 1.329 . S
C125 H135 0.930 . S
C126 C125 1.391 . S
C126 N127 1.334 . S
C126 H133 0.930 . S
N127 Zn111 2.119 . S
N127 C123 1.328 . S
N127 C126 1.334 . S
N128 C124 1.331 . S
N128 C125 1.329 . S
H129 C123 0.930 . S
C130 O110 1.257 . S
C130 O131 1.244 . S
O131 C130 1.244 . S
O132 C108 1.257 . S
O132 Zn111 2.019 . S
H133 C126 0.930 . S
H134 C113 0.930 . S
H135 C125 0.930 . S
Zn136 N140 2.020 . S
Zn136 O144 2.019 . S
Zn136 N146 2.119 . S
Zn136 O154 1.975 . S
C137 N138 1.334 . S
C137 N141 1.336 . S
N138 C137 1.334 . S
N138 C139 1.334 . S
C139 N138 1.334 . S
C139 N140 1.336 . S
N140 Zn136 2.020 . S
N140 C139 1.336 . S
N140 N141 1.354 . S
N141 C137 1.336 . S
N141 N140 1.354 . S
N141 Zn145 2.020 . S
C142 O143 1.244 . S
C142 O166 1.257 . S
O143 C142 1.244 . S
O144 Zn136 2.019 . S
O144 C164 1.257 . S
Zn145 N141 2.020 . S
Zn145 O152 1.975 . S
Zn145 N161 2.119 . S
Zn145 O166 2.019 . S
N146 Zn136 2.119 . S
N146 C148 1.334 . S
N146 C149 1.328 . S
C147 C148 1.391 . S
C147 N150 1.329 . S
C147 H168 0.930 . S
C148 N146 1.334 . S
C148 C147 1.391 . S
C148 H155 0.930 . S
C149 N146 1.328 . S
C149 C151 1.392 . S
C149 H156 0.930 . S
N150 C147 1.329 . S
N150 C151 1.331 . S
C151 C149 1.392 . S
C151 N150 1.331 . S
O152 Zn145 1.975 . S
O152 C153 1.252 . S
C153 O152 1.252 . S
C153 O154 1.252 . S
O154 Zn136 1.975 . S
O154 C153 1.252 . S
H155 C148 0.930 . S
H156 C149 0.930 . S
C157 C158 1.392 . S
C157 N161 1.328 . S
C157 H163 0.930 . S
C158 C157 1.392 . S
C158 N162 1.331 . S
C159 C160 1.391 . S
C159 N162 1.329 . S
C159 H169 0.930 . S
C160 C159 1.391 . S
C160 N161 1.334 . S
C160 H167 0.930 . S
N161 Zn145 2.119 . S
N161 C157 1.328 . S
N161 C160 1.334 . S
N162 C158 1.331 . S
N162 C159 1.329 . S
H163 C157 0.930 . S
C164 O144 1.257 . S
C164 O165 1.244 . S
O165 C164 1.244 . S
O166 C142 1.257 . S
O166 Zn145 2.019 . S
H167 C160 0.930 . S
H168 C147 0.930 . S
H169 C159 0.930 . S
Zn170 N174 2.020 . S
Zn170 O178 2.019 . S
Zn170 N180 2.119 . S
Zn170 O188 1.975 . S
C171 N172 1.334 . S
C171 N175 1.336 . S
N172 C171 1.334 . S
N172 C173 1.334 . S
C173 N172 1.334 . S
C173 N174 1.336 . S
N174 Zn170 2.020 . S
N174 C173 1.336 . S
N174 N175 1.354 . S
N175 C171 1.336 . S
N175 N174 1.354 . S
N175 Zn179 2.020 . S
C176 O177 1.244 . S
C176 O200 1.257 . S
O177 C176 1.244 . S
O178 Zn170 2.019 . S
O178 C198 1.257 . S
Zn179 N175 2.020 . S
Zn179 O186 1.975 . S
Zn179 N195 2.119 . S
Zn179 O200 2.019 . S
N180 Zn170 2.119 . S
N180 C182 1.334 . S
N180 C183 1.328 . S
C181 C182 1.391 . S
C181 N184 1.329 . S
C181 H202 0.930 . S
C182 N180 1.334 . S
C182 C181 1.391 . S
C182 H189 0.930 . S
C183 N180 1.328 . S
C183 C185 1.392 . S
C183 H190 0.930 . S
N184 C181 1.329 . S
N184 C185 1.331 . S
C185 C183 1.392 . S
C185 N184 1.331 . S
O186 Zn179 1.975 . S
O186 C187 1.252 . S
C187 O186 1.252 . S
C187 O188 1.252 . S
O188 Zn170 1.975 . S
O188 C187 1.252 . S
H189 C182 0.930 . S
H190 C183 0.930 . S
C191 C192 1.392 . S
C191 N195 1.328 . S
C191 H197 0.930 . S
C192 C191 1.392 . S
C192 N196 1.331 . S
C193 C194 1.391 . S
C193 N196 1.329 . S
C193 H203 0.930 . S
C194 C193 1.391 . S
C194 N195 1.334 . S
C194 H201 0.930 . S
N195 Zn179 2.119 . S
N195 C191 1.328 . S
N195 C194 1.334 . S
N196 C192 1.331 . S
N196 C193 1.329 . S
H197 C191 0.930 . S
C198 O178 1.257 . S
C198 O199 1.244 . S
O199 C198 1.244 . S
O200 C176 1.257 . S
O200 Zn179 2.019 . S
H201 C194 0.930 . S
H202 C181 0.930 . S
H203 C193 0.930 . S
Zn204 N208 2.020 . S
Zn204 O212 2.019 . S
Zn204 N214 2.119 . S
Zn204 O222 1.975 . S
C205 N206 1.334 . S
C205 N209 1.336 . S
N206 C205 1.334 . S
N206 C207 1.334 . S
C207 N206 1.334 . S
C207 N208 1.336 . S
N208 Zn204 2.020 . S
N208 C207 1.336 . S
N208 N209 1.354 . S
N209 C205 1.336 . S
N209 N208 1.354 . S
N209 Zn213 2.020 . S
C210 O211 1.244 . S
C210 O234 1.257 . S
O211 C210 1.244 . S
O212 Zn204 2.019 . S
O212 C232 1.257 . S
Zn213 N209 2.020 . S
Zn213 O220 1.975 . S
Zn213 N229 2.119 . S
Zn213 O234 2.019 . S
N214 Zn204 2.119 . S
N214 C216 1.334 . S
N214 C217 1.328 . S
C215 C216 1.391 . S
C215 N218 1.329 . S
C215 H236 0.930 . S
C216 N214 1.334 . S
C216 C215 1.391 . S
C216 H223 0.930 . S
C217 N214 1.328 . S
C217 C219 1.392 . S
C217 H224 0.930 . S
N218 C215 1.329 . S
N218 C219 1.331 . S
C219 C217 1.392 . S
C219 N218 1.331 . S
O220 Zn213 1.975 . S
O220 C221 1.252 . S
C221 O220 1.252 . S
C221 O222 1.252 . S
O222 Zn204 1.975 . S
O222 C221 1.252 . S
H223 C216 0.930 . S
H224 C217 0.930 . S
C225 C226 1.392 . S
C225 N229 1.328 . S
C225 H231 0.930 . S
C226 C225 1.392 . S
C226 N230 1.331 . S
C227 C228 1.391 . S
C227 N230 1.329 . S
C227 H237 0.930 . S
C228 C227 1.391 . S
C228 N229 1.334 . S
C228 H235 0.930 . S
N229 Zn213 2.119 . S
N229 C225 1.328 . S
N229 C228 1.334 . S
N230 C226 1.331 . S
N230 C227 1.329 . S
H231 C225 0.930 . S
C232 O212 1.257 . S
C232 O233 1.244 . S
O233 C232 1.244 . S
O234 C210 1.257 . S
O234 Zn213 2.019 . S
H235 C228 0.930 . S
H236 C215 0.930 . S
H237 C227 0.930 . S
Zn238 N242 2.020 . S
Zn238 O246 2.019 . S
Zn238 N248 2.119 . S
Zn238 O256 1.975 . S
C239 N240 1.334 . S
C239 N243 1.336 . S
N240 C239 1.334 . S
N240 C241 1.334 . S
C241 N240 1.334 . S
C241 N242 1.336 . S
N242 Zn238 2.020 . S
N242 C241 1.336 . S
N242 N243 1.354 . S
N243 C239 1.336 . S
N243 N242 1.354 . S
N243 Zn247 2.020 . S
C244 O245 1.244 . S
C244 O268 1.257 . S
O245 C244 1.244 . S
O246 Zn238 2.019 . S
O246 C266 1.257 . S
Zn247 N243 2.020 . S
Zn247 O254 1.975 . S
Zn247 N263 2.119 . S
Zn247 O268 2.019 . S
N248 Zn238 2.119 . S
N248 C250 1.334 . S
N248 C251 1.328 . S
C249 C250 1.391 . S
C249 N252 1.329 . S
C249 H270 0.930 . S
C250 N248 1.334 . S
C250 C249 1.391 . S
C250 H257 0.930 . S
C251 N248 1.328 . S
C251 C253 1.392 . S
C251 H258 0.930 . S
N252 C249 1.329 . S
N252 C253 1.331 . S
C253 C251 1.392 . S
C253 N252 1.331 . S
O254 Zn247 1.975 . S
O254 C255 1.252 . S
C255 O254 1.252 . S
C255 O256 1.252 . S
O256 Zn238 1.975 . S
O256 C255 1.252 . S
H257 C250 0.930 . S
H258 C251 0.930 . S
C259 C260 1.392 . S
C259 N263 1.328 . S
C259 H265 0.930 . S
C260 C259 1.392 . S
C260 N264 1.331 . S
C261 C262 1.391 . S
C261 N264 1.329 . S
C261 H271 0.930 . S
C262 C261 1.391 . S
C262 N263 1.334 . S
C262 H269 0.930 . S
N263 Zn247 2.119 . S
N263 C259 1.328 . S
N263 C262 1.334 . S
N264 C260 1.331 . S
N264 C261 1.329 . S
H265 C259 0.930 . S
C266 O246 1.257 . S
C266 O267 1.244 . S
O267 C266 1.244 . S
O268 C244 1.257 . S
O268 Zn247 2.019 . S
H269 C262 0.930 . S
H270 C249 0.930 . S
H271 C261 0.930 . S
H272 C284 0.930 1_545 S
H273 C286 0.930 . S
H274 C287 0.930 . S
H275 C291 0.959 . S
H276 C291 0.959 . S
H277 C291 0.961 . S
H278 C292 0.960 . S
H279 C292 0.961 . S
H280 C292 0.959 . S
H281 C295 0.929 . S
H282 C296 0.931 . S
H283 C298 0.930 . S
C284 H272 0.930 1_565 S
C284 C285 1.399 1_565 S
C284 C289 1.399 . S
C285 C284 1.399 1_545 S
C285 C286 1.376 . S
C286 H273 0.930 . S
C286 C285 1.376 . S
C286 C287 1.388 1_545 S
C287 H274 0.930 . S
C287 C286 1.388 1_565 S
C287 C288 1.390 . S
C288 C287 1.390 . S
C288 C289 1.394 . S
C288 C294 1.465 . S
C289 C284 1.399 . S
C289 C288 1.394 . S
C289 C290 1.516 . S
C290 C289 1.516 . S
C290 C291 1.502 . S
C290 C292 1.561 . S
C290 C293 1.526 . S
C291 H275 0.959 . S
C291 H276 0.959 . S
C291 H277 0.961 . S
C291 C290 1.502 . S
C292 H278 0.960 . S
C292 H279 0.961 . S
C292 H280 0.959 . S
C292 C290 1.561 . S
C293 C290 1.526 . S
C293 C294 1.396 . S
C293 C298 1.390 . S
C294 C288 1.465 . S
C294 C293 1.396 . S
C294 C295 1.399 . S
C295 H281 0.929 . S
C295 C294 1.399 . S
C295 C296 1.385 . S
C296 H282 0.931 . S
C296 C295 1.385 . S
C296 C297 1.389 . S
C297 C296 1.389 . S
C297 C298 1.387 . S
C298 H283 0.930 . S
C298 C293 1.390 . S
C298 C297 1.387 . S
H299 C311 0.930 . S
H300 C313 0.930 1_455 S
H301 C314 0.930 . S
H302 C318 0.959 . S
H303 C318 0.959 . S
H304 C318 0.961 . S
H305 C319 0.960 . S
H306 C319 0.961 . S
H307 C319 0.959 . S
H308 C322 0.929 . S
H309 C323 0.931 . S
H310 C325 0.930 . S
C311 H299 0.930 . S
C311 C312 1.399 1_655 S
C311 C316 1.399 . S
C312 C311 1.399 1_455 S
C312 C313 1.376 1_455 S
C313 H300 0.930 1_655 S
C313 C312 1.376 1_655 S
C313 C314 1.388 . S
C314 H301 0.930 . S
C314 C313 1.388 . S
C314 C315 1.390 . S
C315 C314 1.390 . S
C315 C316 1.394 . S
C315 C321 1.465 . S
C316 C311 1.399 . S
C316 C315 1.394 . S
C316 C317 1.516 . S
C317 C316 1.516 . S
C317 C318 1.502 . S
C317 C319 1.561 . S
C317 C320 1.526 . S
C318 H302 0.959 . S
C318 H303 0.959 . S
C318 H304 0.961 . S
C318 C317 1.502 . S
C319 H305 0.960 . S
C319 H306 0.961 . S
C319 H307 0.959 . S
C319 C317 1.561 . S
C320 C317 1.526 . S
C320 C321 1.396 . S
C320 C325 1.390 . S
C321 C315 1.465 . S
C321 C320 1.396 . S
C321 C322 1.399 . S
C322 H308 0.929 . S
C322 C321 1.399 . S
C322 C323 1.385 . S
C323 H309 0.931 . S
C323 C322 1.385 . S
C323 C324 1.389 . S
C324 C323 1.389 . S
C324 C325 1.387 . S
C325 H310 0.930 . S
C325 C320 1.390 . S
C325 C324 1.387 . S
H326 C338 0.930 . S
H327 C340 0.930 . S
H328 C341 0.930 . S
H329 C345 0.959 . S
H330 C345 0.959 . S
H331 C345 0.961 . S
H332 C346 0.960 . S
H333 C346 0.961 . S
H334 C346 0.959 . S
H335 C349 0.929 . S
H336 C350 0.932 1_565 S
H337 C352 0.930 . S
C338 H326 0.930 . S
C338 C339 1.399 . S
C338 C343 1.399 . S
C339 C338 1.399 . S
C339 C340 1.376 . S
C340 H327 0.930 . S
C340 C339 1.376 . S
C340 C341 1.388 . S
C341 H328 0.930 . S
C341 C340 1.388 . S
C341 C342 1.390 . S
C342 C341 1.390 . S
C342 C343 1.394 . S
C342 C348 1.465 . S
C343 C338 1.399 . S
C343 C342 1.394 . S
C343 C344 1.516 . S
C344 C343 1.516 . S
C344 C345 1.502 . S
C344 C346 1.561 . S
C344 C347 1.526 . S
C345 H329 0.959 . S
C345 H330 0.959 . S
C345 H331 0.961 . S
C345 C344 1.502 . S
C346 H332 0.960 . S
C346 H333 0.961 . S
C346 H334 0.959 . S
C346 C344 1.561 . S
C347 C344 1.526 . S
C347 C348 1.396 . S
C347 C352 1.390 1_545 S
C348 C342 1.465 . S
C348 C347 1.396 . S
C348 C349 1.399 . S
C349 H335 0.929 . S
C349 C348 1.399 . S
C349 C350 1.383 . S
C350 H336 0.932 1_545 S
C350 C349 1.383 . S
C350 C351 1.391 1_545 S
C351 C350 1.391 1_565 S
C351 C352 1.387 . S
C352 H337 0.930 . S
C352 C347 1.390 1_565 S
C352 C351 1.387 . S
H353 C365 0.930 . S
H354 C367 0.930 1_655 S
H355 C368 0.930 . S
H356 C372 0.959 . S
H357 C372 0.959 . S
H358 C372 0.961 . S
H359 C373 0.960 . S
H360 C373 0.961 . S
H361 C373 0.959 . S
H362 C376 0.929 . S
H363 C377 0.931 . S
H364 C379 0.930 . S
C365 H353 0.930 . S
C365 C366 1.399 1_455 S
C365 C370 1.399 . S
C366 C365 1.399 1_655 S
C366 C367 1.376 1_655 S
C367 H354 0.930 1_455 S
C367 C366 1.376 1_455 S
C367 C368 1.388 . S
C368 H355 0.930 . S
C368 C367 1.388 . S
C368 C369 1.390 . S
C369 C368 1.390 . S
C369 C370 1.394 . S
C369 C375 1.465 . S
C370 C365 1.399 . S
C370 C369 1.394 . S
C370 C371 1.516 . S
C371 C370 1.516 . S
C371 C372 1.502 . S
C371 C373 1.561 . S
C371 C374 1.526 . S
C372 H356 0.959 . S
C372 H357 0.959 . S
C372 H358 0.961 . S
C372 C371 1.502 . S
C373 H359 0.960 . S
C373 H360 0.961 . S
C373 H361 0.959 . S
C373 C371 1.561 . S
C374 C371 1.526 . S
C374 C375 1.396 . S
C374 C379 1.390 . S
C375 C369 1.465 . S
C375 C374 1.396 . S
C375 C376 1.399 . S
C376 H362 0.929 . S
C376 C375 1.399 . S
C376 C377 1.385 . S
C377 H363 0.931 . S
C377 C376 1.385 . S
C377 C378 1.389 . S
C378 C377 1.389 . S
C378 C379 1.387 . S
C379 H364 0.930 . S
C379 C374 1.390 . S
C379 C378 1.387 . S
H380 C392 0.930 . S
H381 C394 0.930 . S
H382 C395 0.930 . S
H383 C399 0.959 . S
H384 C399 0.959 . S
H385 C399 0.961 . S
H386 C400 0.960 . S
H387 C400 0.961 . S
H388 C400 0.959 . S
H389 C403 0.929 . S
H390 C404 0.931 . S
H391 C406 0.930 . S
C392 H380 0.930 . S
C392 C393 1.399 1_545 S
C392 C397 1.399 . S
C393 C392 1.399 1_565 S
C393 C394 1.376 . S
C394 H381 0.930 . S
C394 C393 1.376 . S
C394 C395 1.388 1_565 S
C395 H382 0.930 . S
C395 C394 1.388 1_545 S
C395 C396 1.390 . S
C396 C395 1.390 . S
C396 C397 1.394 . S
C396 C402 1.465 . S
C397 C392 1.399 . S
C397 C396 1.394 . S
C397 C398 1.516 . S
C398 C397 1.516 . S
C398 C399 1.502 . S
C398 C400 1.561 . S
C398 C401 1.526 . S
C399 H383 0.959 . S
C399 H384 0.959 . S
C399 H385 0.961 . S
C399 C398 1.502 . S
C400 H386 0.960 . S
C400 H387 0.961 . S
C400 H388 0.959 . S
C400 C398 1.561 . S
C401 C398 1.526 . S
C401 C402 1.396 . S
C401 C406 1.390 . S
C402 C396 1.465 . S
C402 C401 1.396 . S
C402 C403 1.399 . S
C403 H389 0.929 . S
C403 C402 1.399 . S
C403 C404 1.385 . S
C404 H390 0.931 . S
C404 C403 1.385 . S
C404 C405 1.389 . S
C405 C404 1.389 . S
C405 C406 1.387 . S
C406 H391 0.930 . S
C406 C401 1.390 . S
C406 C405 1.387 . S
H407 C419 0.930 . S
H408 C421 0.930 . S
H409 C422 0.930 . S
H410 C426 0.959 . S
H411 C426 0.959 . S
H412 C426 0.961 . S
H413 C427 0.960 . S
H414 C427 0.961 . S
H415 C427 0.959 . S
H416 C430 0.929 . S
H417 C431 0.931 1_655 S
H418 C433 0.930 . S
C419 H407 0.930 . S
C419 C420 1.399 . S
C419 C424 1.399 . S
C420 C419 1.399 . S
C420 C421 1.376 . S
C421 H408 0.930 . S
C421 C420 1.376 . S
C421 C422 1.388 . S
C422 H409 0.930 . S
C422 C421 1.388 . S
C422 C423 1.390 . S
C423 C422 1.390 . S
C423 C424 1.394 . S
C423 C429 1.465 . S
C424 C419 1.399 . S
C424 C423 1.394 . S
C424 C425 1.516 . S
C425 C424 1.516 . S
C425 C426 1.502 . S
C425 C427 1.561 . S
C425 C428 1.526 . S
C426 H410 0.959 . S
C426 H411 0.959 . S
C426 H412 0.961 . S
C426 C425 1.502 . S
C427 H413 0.960 . S
C427 H414 0.961 . S
C427 H415 0.959 . S
C427 C425 1.561 . S
C428 C425 1.526 . S
C428 C429 1.396 . S
C428 C433 1.390 . S
C429 C423 1.465 . S
C429 C428 1.396 . S
C429 C430 1.399 . S
C430 H416 0.929 . S
C430 C429 1.399 . S
C430 C431 1.385 . S
C431 H417 0.931 1_455 S
C431 C430 1.385 . S
C431 C432 1.389 1_455 S
C432 C431 1.389 1_655 S
C432 C433 1.387 1_655 S
C433 H418 0.930 . S
C433 C428 1.390 . S
C433 C432 1.387 1_455 S
H434 C446 0.930 . S
H435 C448 0.930 . S
H436 C449 0.930 . S
H437 C453 0.959 . S
H438 C453 0.959 . S
H439 C453 0.961 . S
H440 C454 0.960 . S
H441 C454 0.961 . S
H442 C454 0.959 . S
H443 C457 0.929 . S
H444 C458 0.931 . S
H445 C460 0.930 . S
C446 H434 0.930 . S
C446 C447 1.399 1_565 S
C446 C451 1.399 . S
C447 C446 1.399 1_545 S
C447 C448 1.376 . S
C448 H435 0.930 . S
C448 C447 1.376 . S
C448 C449 1.388 1_545 S
C449 H436 0.930 . S
C449 C448 1.388 1_565 S
C449 C450 1.390 . S
C450 C449 1.390 . S
C450 C451 1.394 . S
C450 C456 1.465 . S
C451 C446 1.399 . S
C451 C450 1.394 . S
C451 C452 1.516 . S
C452 C451 1.516 . S
C452 C453 1.502 . S
C452 C454 1.561 . S
C452 C455 1.526 . S
C453 H437 0.959 . S
C453 H438 0.959 . S
C453 H439 0.961 . S
C453 C452 1.502 . S
C454 H440 0.960 . S
C454 H441 0.961 . S
C454 H442 0.959 . S
C454 C452 1.561 . S
C455 C452 1.526 . S
C455 C456 1.396 . S
C455 C460 1.390 . S
C456 C450 1.465 . S
C456 C455 1.396 . S
C456 C457 1.399 . S
C457 H443 0.929 . S
C457 C456 1.399 . S
C457 C458 1.385 . S
C458 H444 0.931 . S
C458 C457 1.385 . S
C458 C459 1.389 . S
C459 C458 1.389 . S
C459 C460 1.387 . S
C460 H445 0.930 . S
C460 C455 1.390 . S
C460 C459 1.387 . S
H461 C473 0.930 . S
H462 C475 0.930 . S
H463 C476 0.930 . S
H464 C480 0.959 . S
H465 C480 0.959 . S
H466 C480 0.961 . S
H467 C481 0.960 . S
H468 C481 0.961 . S
H469 C481 0.959 . S
H470 C484 0.929 . S
H471 C485 0.931 1_455 S
H472 C487 0.930 . S
C473 H461 0.930 . S
C473 C474 1.399 . S
C473 C478 1.399 . S
C474 C473 1.399 . S
C474 C475 1.376 . S
C475 H462 0.930 . S
C475 C474 1.376 . S
C475 C476 1.388 . S
C476 H463 0.930 . S
C476 C475 1.388 . S
C476 C477 1.390 . S
C477 C476 1.390 . S
C477 C478 1.394 . S
C477 C483 1.465 . S
C478 C473 1.399 . S
C478 C477 1.394 . S
C478 C479 1.516 . S
C479 C478 1.516 . S
C479 C480 1.502 . S
C479 C481 1.561 . S
C479 C482 1.526 . S
C480 H464 0.959 . S
C480 H465 0.959 . S
C480 H466 0.961 . S
C480 C479 1.502 . S
C481 H467 0.960 . S
C481 H468 0.961 . S
C481 H469 0.959 . S
C481 C479 1.561 . S
C482 C479 1.526 . S
C482 C483 1.396 . S
C482 C487 1.390 . S
C483 C477 1.465 . S
C483 C482 1.396 . S
C483 C484 1.399 . S
C484 H470 0.929 . S
C484 C483 1.399 . S
C484 C485 1.385 . S
C485 H471 0.931 1_655 S
C485 C484 1.385 . S
C485 C486 1.389 1_655 S
C486 C485 1.389 1_455 S
C486 C487 1.387 1_455 S
C487 H472 0.930 . S
C487 C482 1.390 . S
C487 C486 1.387 1_655 S
H488 C500 0.930 . S
H489 C502 0.930 . S
H490 C503 0.930 . S
H491 C507 0.959 . S
H492 C507 0.959 . S
H493 C507 0.961 . S
H494 C508 0.960 . S
H495 C508 0.961 . S
H496 C508 0.959 . S
H497 C511 0.929 . S
H498 C512 0.931 . S
H499 C514 0.930 . S
C500 H488 0.930 . S
C500 C501 1.399 . S
C500 C505 1.399 . S
C501 C500 1.399 . S
C501 C502 1.376 . S
C502 H489 0.930 . S
C502 C501 1.376 . S
C502 C503 1.388 . S
C503 H490 0.930 . S
C503 C502 1.388 . S
C503 C504 1.390 . S
C504 C503 1.390 . S
C504 C505 1.394 . S
C504 C510 1.465 . S
C505 C500 1.399 . S
C505 C504 1.394 . S
C505 C506 1.516 . S
C506 C505 1.516 . S
C506 C507 1.502 . S
C506 C508 1.561 . S
C506 C509 1.526 . S
C507 H491 0.959 . S
C507 H492 0.959 . S
C507 H493 0.961 . S
C507 C506 1.502 . S
C508 H494 0.960 . S
C508 H495 0.961 . S
C508 H496 0.959 . S
C508 C506 1.561 . S
C509 C506 1.526 . S
C509 C510 1.396 . S
C509 C514 1.390 . S
C510 C504 1.465 . S
C510 C509 1.396 . S
C510 C511 1.399 . S
C511 H497 0.929 . S
C511 C510 1.399 . S
C511 C512 1.385 . S
C512 H498 0.931 . S
C512 C511 1.385 . S
C512 C513 1.389 . S
C513 C512 1.389 . S
C513 C514 1.387 . S
C514 H499 0.930 . S
C514 C509 1.390 . S
C514 C513 1.387 . S
H515 C527 0.930 . S
H516 C529 0.930 . S
H517 C530 0.930 . S
H518 C534 0.959 . S
H519 C534 0.959 . S
H520 C534 0.961 . S
H521 C535 0.960 . S
H522 C535 0.961 . S
H523 C535 0.959 . S
H524 C538 0.929 . S
H525 C539 0.931 . S
H526 C541 0.930 . S
C527 H515 0.930 . S
C527 C528 1.399 . S
C527 C532 1.399 . S
C528 C527 1.399 . S
C528 C529 1.376 . S
C529 H516 0.930 . S
C529 C528 1.376 . S
C529 C530 1.388 . S
C530 H517 0.930 . S
C530 C529 1.388 . S
C530 C531 1.390 . S
C531 C530 1.390 . S
C531 C532 1.394 . S
C531 C537 1.465 . S
C532 C527 1.399 . S
C532 C531 1.394 . S
C532 C533 1.516 . S
C533 C532 1.516 . S
C533 C534 1.502 . S
C533 C535 1.561 . S
C533 C536 1.526 . S
C534 H518 0.959 . S
C534 H519 0.959 . S
C534 H520 0.961 . S
C534 C533 1.502 . S
C535 H521 0.960 . S
C535 H522 0.961 . S
C535 H523 0.959 . S
C535 C533 1.561 . S
C536 C533 1.526 . S
C536 C537 1.396 . S
C536 C541 1.390 . S
C537 C531 1.465 . S
C537 C536 1.396 . S
C537 C538 1.399 . S
C538 H524 0.929 . S
C538 C537 1.399 . S
C538 C539 1.385 . S
C539 H525 0.931 . S
C539 C538 1.385 . S
C539 C540 1.389 . S
C540 C539 1.389 . S
C540 C541 1.387 . S
C541 H526 0.930 . S
C541 C536 1.390 . S
C541 C540 1.387 . S
H542 C554 0.930 . S
H543 C556 0.930 . S
H544 C557 0.930 . S
H545 C561 0.959 . S
H546 C561 0.959 . S
H547 C561 0.961 . S
H548 C562 0.960 . S
H549 C562 0.961 . S
H550 C562 0.959 . S
H551 C565 0.929 . S
H552 C566 0.931 . S
H553 C568 0.930 . S
C554 H542 0.930 . S
C554 C555 1.399 . S
C554 C559 1.399 . S
C555 C554 1.399 . S
C555 C556 1.376 . S
C556 H543 0.930 . S
C556 C555 1.376 . S
C556 C557 1.388 . S
C557 H544 0.930 . S
C557 C556 1.388 . S
C557 C558 1.390 . S
C558 C557 1.390 . S
C558 C559 1.394 . S
C558 C564 1.465 . S
C559 C554 1.399 . S
C559 C558 1.394 . S
C559 C560 1.516 . S
C560 C559 1.516 . S
C560 C561 1.502 . S
C560 C562 1.561 . S
C560 C563 1.526 . S
C561 H545 0.959 . S
C561 H546 0.959 . S
C561 H547 0.961 . S
C561 C560 1.502 . S
C562 H548 0.960 . S
C562 H549 0.961 . S
C562 H550 0.959 . S
C562 C560 1.561 . S
C563 C560 1.526 . S
C563 C564 1.396 . S
C563 C568 1.390 . S
C564 C558 1.465 . S
C564 C563 1.396 . S
C564 C565 1.399 . S
C565 H551 0.929 . S
C565 C564 1.399 . S
C565 C566 1.385 . S
C566 H552 0.931 . S
C566 C565 1.385 . S
C566 C567 1.389 . S
C567 C566 1.389 . S
C567 C568 1.387 . S
C568 H553 0.930 . S
C568 C563 1.390 . S
C568 C567 1.387 . S
H569 C581 0.930 . S
H570 C583 0.930 . S
H571 C584 0.930 . S
H572 C588 0.959 . S
H573 C588 0.959 . S
H574 C588 0.961 . S
H575 C589 0.960 . S
H576 C589 0.961 . S
H577 C589 0.959 . S
H578 C592 0.929 . S
H579 C593 0.931 . S
H580 C595 0.930 . S
C581 H569 0.930 . S
C581 C582 1.399 . S
C581 C586 1.399 . S
C582 C581 1.399 . S
C582 C583 1.376 . S
C583 H570 0.930 . S
C583 C582 1.376 . S
C583 C584 1.388 . S
C584 H571 0.930 . S
C584 C583 1.388 . S
C584 C585 1.390 . S
C585 C584 1.390 . S
C585 C586 1.394 . S
C585 C591 1.465 . S
C586 C581 1.399 . S
C586 C585 1.394 . S
C586 C587 1.516 . S
C587 C586 1.516 . S
C587 C588 1.502 . S
C587 C589 1.561 . S
C587 C590 1.526 . S
C588 H572 0.959 . S
C588 H573 0.959 . S
C588 H574 0.961 . S
C588 C587 1.502 . S
C589 H575 0.960 . S
C589 H576 0.961 . S
C589 H577 0.959 . S
C589 C587 1.561 . S
C590 C587 1.526 . S
C590 C591 1.396 . S
C590 C595 1.390 . S
C591 C585 1.465 . S
C591 C590 1.396 . S
C591 C592 1.399 . S
C592 H578 0.929 . S
C592 C591 1.399 . S
C592 C593 1.385 . S
C593 H579 0.931 . S
C593 C592 1.385 . S
C593 C594 1.389 . S
C594 C593 1.389 . S
C594 C595 1.387 . S
C595 H580 0.930 . S
C595 C590 1.390 . S
C595 C594 1.387 . S
H596 C608 0.930 . S
H597 C610 0.930 . S
H598 C611 0.930 . S
H599 C615 0.959 . S
H600 C615 0.959 . S
H601 C615 0.961 . S
H602 C616 0.960 . S
H603 C616 0.961 . S
H604 C616 0.959 . S
H605 C619 0.929 . S
H606 C620 0.931 . S
H607 C622 0.930 . S
C608 H596 0.930 . S
C608 C609 1.399 . S
C608 C613 1.399 . S
C609 C608 1.399 . S
C609 C610 1.376 . S
C610 H597 0.930 . S
C610 C609 1.376 . S
C610 C611 1.388 . S
C611 H598 0.930 . S
C611 C610 1.388 . S
C611 C612 1.390 . S
C612 C611 1.390 . S
C612 C613 1.394 . S
C612 C618 1.465 . S
C613 C608 1.399 . S
C613 C612 1.394 . S
C613 C614 1.516 . S
C614 C613 1.516 . S
C614 C615 1.502 . S
C614 C616 1.561 . S
C614 C617 1.526 . S
C615 H599 0.959 . S
C615 H600 0.959 . S
C615 H601 0.961 . S
C615 C614 1.502 . S
C616 H602 0.960 . S
C616 H603 0.961 . S
C616 H604 0.959 . S
C616 C614 1.561 . S
C617 C614 1.526 . S
C617 C618 1.396 . S
C617 C622 1.390 . S
C618 C612 1.465 . S
C618 C617 1.396 . S
C618 C619 1.399 . S
C619 H605 0.929 . S
C619 C618 1.399 . S
C619 C620 1.385 . S
C620 H606 0.931 . S
C620 C619 1.385 . S
C620 C621 1.389 . S
C621 C620 1.389 . S
C621 C622 1.387 . S
C622 H607 0.930 . S
C622 C617 1.390 . S
C622 C621 1.387 . S
H623 C635 0.930 . S
H624 C637 0.930 . S
H625 C638 0.930 . S
H626 C642 0.959 . S
H627 C642 0.959 . S
H628 C642 0.961 . S
H629 C643 0.960 . S
H630 C643 0.961 . S
H631 C643 0.959 . S
H632 C646 0.929 . S
H633 C647 0.931 . S
H634 C649 0.930 . S
C635 H623 0.930 . S
C635 C636 1.399 . S
C635 C640 1.399 . S
C636 C635 1.399 . S
C636 C637 1.376 . S
C637 H624 0.930 . S
C637 C636 1.376 . S
C637 C638 1.388 . S
C638 H625 0.930 . S
C638 C637 1.388 . S
C638 C639 1.390 . S
C639 C638 1.390 . S
C639 C640 1.394 . S
C639 C645 1.465 . S
C640 C635 1.399 . S
C640 C639 1.394 . S
C640 C641 1.516 . S
C641 C640 1.516 . S
C641 C642 1.502 . S
C641 C643 1.561 . S
C641 C644 1.526 . S
C642 H626 0.959 . S
C642 H627 0.959 . S
C642 H628 0.961 . S
C642 C641 1.502 . S
C643 H629 0.960 . S
C643 H630 0.961 . S
C643 H631 0.959 . S
C643 C641 1.561 . S
C644 C641 1.526 . S
C644 C645 1.396 . S
C644 C649 1.390 . S
C645 C639 1.465 . S
C645 C644 1.396 . S
C645 C646 1.399 . S
C646 H632 0.929 . S
C646 C645 1.399 . S
C646 C647 1.385 . S
C647 H633 0.931 . S
C647 C646 1.385 . S
C647 C648 1.389 . S
C648 C647 1.389 . S
C648 C649 1.387 . S
C649 H634 0.930 . S
C649 C644 1.390 . S
C649 C648 1.387 . S
H650 C662 0.930 . S
H651 C664 0.930 . S
H652 C665 0.930 . S
H653 C669 0.959 . S
H654 C669 0.959 . S
H655 C669 0.961 . S
H656 C670 0.960 . S
H657 C670 0.961 . S
H658 C670 0.959 . S
H659 C673 0.929 . S
H660 C674 0.931 . S
H661 C676 0.930 . S
C662 H650 0.930 . S
C662 C663 1.399 . S
C662 C667 1.399 . S
C663 C662 1.399 . S
C663 C664 1.376 . S
C664 H651 0.930 . S
C664 C663 1.376 . S
C664 C665 1.388 . S
C665 H652 0.930 . S
C665 C664 1.388 . S
C665 C666 1.390 . S
C666 C665 1.390 . S
C666 C667 1.394 . S
C666 C672 1.465 . S
C667 C662 1.399 . S
C667 C666 1.394 . S
C667 C668 1.516 . S
C668 C667 1.516 . S
C668 C669 1.502 . S
C668 C670 1.561 . S
C668 C671 1.526 . S
C669 H653 0.959 . S
C669 H654 0.959 . S
C669 H655 0.961 . S
C669 C668 1.502 . S
C670 H656 0.960 . S
C670 H657 0.961 . S
C670 H658 0.959 . S
C670 C668 1.561 . S
C671 C668 1.526 . S
C671 C672 1.396 . S
C671 C676 1.390 . S
C672 C666 1.465 . S
C672 C671 1.396 . S
C672 C673 1.399 . S
C673 H659 0.929 . S
C673 C672 1.399 . S
C673 C674 1.385 . S
C674 H660 0.931 . S
C674 C673 1.385 . S
C674 C675 1.389 . S
C675 C674 1.389 . S
C675 C676 1.387 . S
C676 H661 0.930 . S
C676 C671 1.390 . S
C676 C675 1.387 . S
H677 C689 0.930 . S
H678 C691 0.930 . S
H679 C692 0.930 . S
H680 C696 0.959 . S
H681 C696 0.959 . S
H682 C696 0.961 . S
H683 C697 0.960 . S
H684 C697 0.961 . S
H685 C697 0.959 . S
H686 C700 0.929 . S
H687 C701 0.931 . S
H688 C703 0.930 . S
C689 H677 0.930 . S
C689 C690 1.399 . S
C689 C694 1.399 . S
C690 C689 1.399 . S
C690 C691 1.376 . S
C691 H678 0.930 . S
C691 C690 1.376 . S
C691 C692 1.388 . S
C692 H679 0.930 . S
C692 C691 1.388 . S
C692 C693 1.390 . S
C693 C692 1.390 . S
C693 C694 1.394 . S
C693 C699 1.465 . S
C694 C689 1.399 . S
C694 C693 1.394 . S
C694 C695 1.516 . S
C695 C694 1.516 . S
C695 C696 1.502 . S
C695 C697 1.561 . S
C695 C698 1.526 . S
C696 H680 0.959 . S
C696 H681 0.959 . S
C696 H682 0.961 . S
C696 C695 1.502 . S
C697 H683 0.960 . S
C697 H684 0.961 . S
C697 H685 0.959 . S
C697 C695 1.561 . S
C698 C695 1.526 . S
C698 C699 1.396 . S
C698 C703 1.390 . S
C699 C693 1.465 . S
C699 C698 1.396 . S
C699 C700 1.399 . S
C700 H686 0.929 . S
C700 C699 1.399 . S
C700 C701 1.385 . S
C701 H687 0.931 . S
C701 C700 1.385 . S
C701 C702 1.389 . S
C702 C701 1.389 . S
C702 C703 1.387 . S
C703 H688 0.930 . S
C703 C698 1.390 . S
C703 C702 1.387 . S
H704 C716 0.930 . S
H705 C718 0.930 . S
H706 C719 0.930 . S
H707 C723 0.959 . S
H708 C723 0.959 . S
H709 C723 0.961 . S
H710 C724 0.960 . S
H711 C724 0.961 . S
H712 C724 0.959 . S
H713 C727 0.929 . S
H714 C728 0.931 . S
H715 C730 0.930 . S
C716 H704 0.930 . S
C716 C717 1.399 . S
C716 C721 1.399 . S
C717 C716 1.399 . S
C717 C718 1.376 . S
C718 H705 0.930 . S
C718 C717 1.376 . S
C718 C719 1.388 . S
C719 H706 0.930 . S
C719 C718 1.388 . S
C719 C720 1.390 . S
C720 C719 1.390 . S
C720 C721 1.394 . S
C720 C726 1.465 1_445 S
C721 C716 1.399 . S
C721 C720 1.394 . S
C721 C722 1.516 1_455 S
C722 C721 1.516 1_655 S
C722 C723 1.502 . S
C722 C724 1.561 1_645 S
C722 C725 1.526 1_545 S
C723 H707 0.959 . S
C723 H708 0.959 . S
C723 H709 0.961 . S
C723 C722 1.502 . S
C724 H710 0.960 . S
C724 H711 0.961 . S
C724 H712 0.959 . S
C724 C722 1.561 1_465 S
C725 C722 1.526 1_565 S
C725 C726 1.396 . S
C725 C730 1.390 . S
C726 C720 1.465 1_665 S
C726 C725 1.396 . S
C726 C727 1.399 . S
C727 H713 0.929 . S
C727 C726 1.399 . S
C727 C728 1.385 . S
C728 H714 0.931 . S
C728 C727 1.385 . S
C728 C729 1.389 . S
C729 C728 1.389 . S
C729 C730 1.387 . S
C730 H715 0.930 . S
C730 C725 1.390 . S
C730 C729 1.387 . S
H731 C743 0.930 . S
H732 C745 0.930 . S
H733 C746 0.930 . S
H734 C750 0.959 . S
H735 C750 0.959 1_455 S
H736 C750 0.961 1_545 S
H737 C751 0.960 . S
H738 C751 0.961 . S
H739 C751 0.959 . S
H740 C754 0.929 . S
H741 C755 0.931 . S
H742 C757 0.930 . S
C743 H731 0.930 . S
C743 C744 1.399 . S
C743 C748 1.399 . S
C744 C743 1.399 . S
C744 C745 1.376 . S
C745 H732 0.930 . S
C745 C744 1.376 . S
C745 C746 1.388 . S
C746 H733 0.930 . S
C746 C745 1.388 . S
C746 C747 1.390 . S
C747 C746 1.390 . S
C747 C748 1.394 . S
C747 C753 1.465 1_645 S
C748 C743 1.399 . S
C748 C747 1.394 . S
C748 C749 1.516 1_655 S
C749 C748 1.516 1_455 S
C749 C750 1.502 1_445 S
C749 C751 1.561 . S
C749 C752 1.526 1_545 S
C750 H734 0.959 . S
C750 H735 0.959 1_655 S
C750 H736 0.961 1_565 S
C750 C749 1.502 1_665 S
C751 H737 0.960 . S
C751 H738 0.961 . S
C751 H739 0.959 . S
C751 C749 1.561 . S
C752 C749 1.526 1_565 S
C752 C753 1.396 . S
C752 C757 1.390 . S
C753 C747 1.465 1_465 S
C753 C752 1.396 . S
C753 C754 1.399 . S
C754 H740 0.929 . S
C754 C753 1.399 . S
C754 C755 1.385 . S
C755 H741 0.931 . S
C755 C754 1.385 . S
C755 C756 1.389 . S
C756 C755 1.389 . S
C756 C757 1.387 . S
C757 H742 0.930 . S
C757 C752 1.390 . S
C757 C756 1.387 . S
H758 C770 0.930 . S
H759 C772 0.930 . S
H760 C773 0.930 . S
H761 C777 0.959 . S
H762 C777 0.959 . S
H763 C777 0.961 . S
H764 C778 0.960 . S
H765 C778 0.961 . S
H766 C778 0.959 . S
H767 C781 0.929 . S
H768 C782 0.931 . S
H769 C784 0.930 . S
C770 H758 0.930 . S
C770 C771 1.399 . S
C770 C775 1.399 . S
C771 C770 1.399 . S
C771 C772 1.376 . S
C772 H759 0.930 . S
C772 C771 1.376 . S
C772 C773 1.388 . S
C773 H760 0.930 . S
C773 C772 1.388 . S
C773 C774 1.390 . S
C774 C773 1.390 . S
C774 C775 1.394 . S
C774 C780 1.465 . S
C775 C770 1.399 . S
C775 C774 1.394 . S
C775 C776 1.516 . S
C776 C775 1.516 . S
C776 C777 1.502 . S
C776 C778 1.561 . S
C776 C779 1.526 . S
C777 H761 0.959 . S
C777 H762 0.959 . S
C777 H763 0.961 . S
C777 C776 1.502 . S
C778 H764 0.960 . S
C778 H765 0.961 . S
C778 H766 0.959 . S
C778 C776 1.561 . S
C779 C776 1.526 . S
C779 C780 1.396 . S
C779 C784 1.390 . S
C780 C774 1.465 . S
C780 C779 1.396 . S
C780 C781 1.399 . S
C781 H767 0.929 . S
C781 C780 1.399 . S
C781 C782 1.385 . S
C782 H768 0.931 . S
C782 C781 1.385 . S
C782 C783 1.389 . S
C783 C782 1.389 . S
C783 C784 1.387 . S
C784 H769 0.930 . S
C784 C779 1.390 . S
C784 C783 1.387 . S
H785 C797 0.930 . S
H786 C799 0.930 . S
H787 C800 0.930 . S
H788 C804 0.959 . S
H789 C804 0.959 . S
H790 C804 0.961 . S
H791 C805 0.960 . S
H792 C805 0.961 . S
H793 C805 0.959 . S
H794 C808 0.929 . S
H795 C809 0.931 . S
H796 C811 0.930 . S
C797 H785 0.930 . S
C797 C798 1.399 . S
C797 C802 1.399 . S
C798 C797 1.399 . S
C798 C799 1.376 . S
C799 H786 0.930 . S
C799 C798 1.376 . S
C799 C800 1.388 . S
C800 H787 0.930 . S
C800 C799 1.388 . S
C800 C801 1.390 . S
C801 C800 1.390 . S
C801 C802 1.394 . S
C801 C807 1.465 . S
C802 C797 1.399 . S
C802 C801 1.394 . S
C802 C803 1.516 . S
C803 C802 1.516 . S
C803 C804 1.502 . S
C803 C805 1.561 . S
C803 C806 1.526 . S
C804 H788 0.959 . S
C804 H789 0.959 . S
C804 H790 0.961 . S
C804 C803 1.502 . S
C805 H791 0.960 . S
C805 H792 0.961 . S
C805 H793 0.959 . S
C805 C803 1.561 . S
C806 C803 1.526 . S
C806 C807 1.396 . S
C806 C811 1.390 . S
C807 C801 1.465 . S
C807 C806 1.396 . S
C807 C808 1.399 . S
C808 H794 0.929 . S
C808 C807 1.399 . S
C808 C809 1.385 . S
C809 H795 0.931 . S
C809 C808 1.385 . S
C809 C810 1.389 . S
C810 C809 1.389 . S
C810 C811 1.387 . S
C811 H796 0.930 . S
C811 C806 1.390 . S
C811 C810 1.387 . S
H812 C824 0.930 . S
H813 C826 0.930 . S
H814 C827 0.930 . S
H815 C831 0.959 . S
H816 C831 0.959 . S
H817 C831 0.961 . S
H818 C832 0.960 . S
H819 C832 0.961 . S
H820 C832 0.959 . S
H821 C835 0.929 . S
H822 C836 0.931 . S
H823 C838 0.930 . S
C824 H812 0.930 . S
C824 C825 1.399 . S
C824 C829 1.399 . S
C825 C824 1.399 . S
C825 C826 1.376 . S
C826 H813 0.930 . S
C826 C825 1.376 . S
C826 C827 1.388 . S
C827 H814 0.930 . S
C827 C826 1.388 . S
C827 C828 1.390 . S
C828 C827 1.390 . S
C828 C829 1.394 . S
C828 C834 1.465 1_544 S
C829 C824 1.399 . S
C829 C828 1.394 . S
C829 C830 1.516 1_545 S
C830 C829 1.516 1_565 S
C830 C831 1.502 1_564 S
C830 C832 1.561 . S
C830 C833 1.526 1_554 S
C831 H815 0.959 . S
C831 H816 0.959 . S
C831 H817 0.961 . S
C831 C830 1.502 1_546 S
C832 H818 0.960 . S
C832 H819 0.961 . S
C832 H820 0.959 . S
C832 C830 1.561 . S
C833 C830 1.526 1_556 S
C833 C834 1.396 . S
C833 C838 1.390 . S
C834 C828 1.465 1_566 S
C834 C833 1.396 . S
C834 C835 1.399 . S
C835 H821 0.929 . S
C835 C834 1.399 . S
C835 C836 1.385 . S
C836 H822 0.931 . S
C836 C835 1.385 . S
C836 C837 1.389 . S
C837 C836 1.389 . S
C837 C838 1.387 . S
C838 H823 0.930 . S
C838 C833 1.390 . S
C838 C837 1.387 . S
H839 C851 0.930 . S
H840 C853 0.930 . S
H841 C854 0.930 . S
H842 C858 0.959 . S
H843 C858 0.959 . S
H844 C858 0.961 . S
H845 C859 0.960 1_556 S
H846 C859 0.961 1_655 S
H847 C859 0.959 . S
H848 C862 0.929 1_455 S
H849 C863 0.931 . S
H850 C865 0.930 . S
C851 H839 0.930 . S
C851 C852 1.399 . S
C851 C856 1.399 . S
C852 C851 1.399 . S
C852 C853 1.376 . S
C853 H840 0.930 . S
C853 C852 1.376 . S
C853 C854 1.388 . S
C854 H841 0.930 . S
C854 C853 1.388 . S
C854 C855 1.390 . S
C855 C854 1.390 . S
C855 C856 1.394 . S
C855 C861 1.465 1_456 S
C856 C851 1.399 . S
C856 C855 1.394 . S
C856 C857 1.516 1_455 S
C857 C856 1.516 1_655 S
C857 C858 1.502 . S
C857 C859 1.561 1_656 S
C857 C860 1.526 1_556 S
C858 H842 0.959 . S
C858 H843 0.959 . S
C858 H844 0.961 . S
C858 C857 1.502 . S
C859 H845 0.960 1_554 S
C859 H846 0.961 1_455 S
C859 H847 0.959 . S
C859 C857 1.561 1_454 S
C860 C857 1.526 1_554 S
C860 C861 1.396 . S
C860 C865 1.390 . S
C861 C855 1.465 1_654 S
C861 C860 1.396 . S
C861 C862 1.399 . S
C862 H848 0.929 1_655 S
C862 C861 1.399 . S
C862 C863 1.385 . S
C863 H849 0.931 . S
C863 C862 1.385 . S
C863 C864 1.389 . S
C864 C863 1.389 . S
C864 C865 1.387 . S
C865 H850 0.930 . S
C865 C860 1.390 . S
C865 C864 1.387 . S
H866 C878 0.930 . S
H867 C880 0.930 . S
H868 C881 0.930 1_554 S
H869 C885 0.959 . S
H870 C885 0.959 . S
H871 C885 0.961 . S
H872 C886 0.960 . S
H873 C886 0.961 . S
H874 C886 0.959 . S
H875 C889 0.929 . S
H876 C890 0.931 . S
H877 C892 0.930 . S
C878 H866 0.930 . S
C878 C879 1.399 . S
C878 C883 1.399 . S
C879 C878 1.399 . S
C879 C880 1.376 . S
C880 H867 0.930 . S
C880 C879 1.376 . S
C880 C881 1.388 . S
C881 H868 0.930 1_556 S
C881 C880 1.388 . S
C881 C882 1.390 . S
C882 C881 1.390 . S
C882 C883 1.394 . S
C882 C888 1.465 1_556 S
C883 C878 1.399 . S
C883 C882 1.394 . S
C883 C884 1.516 1_545 S
C884 C883 1.516 1_565 S
C884 C885 1.502 . S
C884 C886 1.561 . S
C884 C887 1.526 1_556 S
C885 H869 0.959 . S
C885 H870 0.959 . S
C885 H871 0.961 . S
C885 C884 1.502 . S
C886 H872 0.960 . S
C886 H873 0.961 . S
C886 H874 0.959 . S
C886 C884 1.561 . S
C887 C884 1.526 1_554 S
C887 C888 1.396 1_565 S
C887 C892 1.390 . S
C888 C882 1.465 1_554 S
C888 C887 1.396 1_545 S
C888 C889 1.399 . S
C889 H875 0.929 . S
C889 C888 1.399 . S
C889 C890 1.385 1_545 S
C890 H876 0.931 . S
C890 C889 1.385 1_565 S
C890 C891 1.389 . S
C891 C890 1.389 . S
C891 C892 1.387 . S
C892 H877 0.930 . S
C892 C887 1.390 . S
C892 C891 1.387 . S
H893 C905 0.930 . S
H894 C907 0.930 . S
H895 C908 0.930 . S
H896 C912 0.959 . S
H897 C912 0.959 . S
H898 C912 0.961 . S
H899 C913 0.960 1_554 S
H900 C913 0.961 1_655 S
H901 C913 0.959 . S
H902 C916 0.929 1_455 S
H903 C917 0.931 . S
H904 C919 0.930 . S
C905 H893 0.930 . S
C905 C906 1.399 . S
C905 C910 1.399 . S
C906 C905 1.399 . S
C906 C907 1.376 . S
C907 H894 0.930 . S
C907 C906 1.376 . S
C907 C908 1.388 . S
C908 H895 0.930 . S
C908 C907 1.388 . S
C908 C909 1.390 . S
C909 C908 1.390 . S
C909 C910 1.394 . S
C909 C915 1.465 1_454 S
C910 C905 1.399 . S
C910 C909 1.394 . S
C910 C911 1.516 1_455 S
C911 C910 1.516 1_655 S
C911 C912 1.502 . S
C911 C913 1.561 1_654 S
C911 C914 1.526 1_554 S
C912 H896 0.959 . S
C912 H897 0.959 . S
C912 H898 0.961 . S
C912 C911 1.502 . S
C913 H899 0.960 1_556 S
C913 H900 0.961 1_455 S
C913 H901 0.959 . S
C913 C911 1.561 1_456 S
C914 C911 1.526 1_556 S
C914 C915 1.396 . S
C914 C919 1.390 . S
C915 C909 1.465 1_656 S
C915 C914 1.396 . S
C915 C916 1.399 . S
C916 H902 0.929 1_655 S
C916 C915 1.399 . S
C916 C917 1.385 . S
C917 H903 0.931 . S
C917 C916 1.385 . S
C917 C918 1.389 . S
C918 C917 1.389 . S
C918 C919 1.387 . S
C919 H904 0.930 . S
C919 C914 1.390 . S
C919 C918 1.387 . S
H920 C932 0.930 . S
H921 C934 0.930 . S
H922 C935 0.930 . S
H923 C939 0.959 . S
H924 C939 0.959 . S
H925 C939 0.961 . S
H926 C940 0.960 . S
H927 C940 0.961 . S
H928 C940 0.959 . S
H929 C943 0.929 . S
H930 C944 0.931 . S
H931 C946 0.930 . S
C932 H920 0.930 . S
C932 C933 1.399 . S
C932 C937 1.399 . S
C933 C932 1.399 . S
C933 C934 1.376 . S
C934 H921 0.930 . S
C934 C933 1.376 . S
C934 C935 1.388 . S
C935 H922 0.930 . S
C935 C934 1.388 . S
C935 C936 1.390 . S
C936 C935 1.390 . S
C936 C937 1.394 . S
C936 C942 1.465 . S
C937 C932 1.399 . S
C937 C936 1.394 . S
C937 C938 1.516 . S
C938 C937 1.516 . S
C938 C939 1.502 . S
C938 C940 1.561 . S
C938 C941 1.526 . S
C939 H923 0.959 . S
C939 H924 0.959 . S
C939 H925 0.961 . S
C939 C938 1.502 . S
C940 H926 0.960 . S
C940 H927 0.961 . S
C940 H928 0.959 . S
C940 C938 1.561 . S
C941 C938 1.526 . S
C941 C942 1.396 . S
C941 C946 1.390 . S
C942 C936 1.465 . S
C942 C941 1.396 . S
C942 C943 1.399 . S
C943 H929 0.929 . S
C943 C942 1.399 . S
C943 C944 1.385 . S
C944 H930 0.931 . S
C944 C943 1.385 . S
C944 C945 1.389 . S
C945 C944 1.389 . S
C945 C946 1.387 . S
C946 H931 0.930 . S
C946 C941 1.390 . S
C946 C945 1.387 . S
H947 C959 0.930 . S
H948 C961 0.930 . S
H949 C962 0.930 . S
H950 C966 0.959 . S
H951 C966 0.959 . S
H952 C966 0.961 . S
H953 C967 0.960 . S
H954 C967 0.961 . S
H955 C967 0.959 . S
H956 C970 0.929 . S
H957 C971 0.931 . S
H958 C973 0.930 . S
C959 H947 0.930 . S
C959 C960 1.399 . S
C959 C964 1.399 . S
C960 C959 1.399 . S
C960 C961 1.376 . S
C961 H948 0.930 . S
C961 C960 1.376 . S
C961 C962 1.388 . S
C962 H949 0.930 . S
C962 C961 1.388 . S
C962 C963 1.390 . S
C963 C962 1.390 . S
C963 C964 1.394 . S
C963 C969 1.465 . S
C964 C959 1.399 . S
C964 C963 1.394 . S
C964 C965 1.516 . S
C965 C964 1.516 . S
C965 C966 1.502 . S
C965 C967 1.561 . S
C965 C968 1.526 . S
C966 H950 0.959 . S
C966 H951 0.959 . S
C966 H952 0.961 . S
C966 C965 1.502 . S
C967 H953 0.960 . S
C967 H954 0.961 . S
C967 H955 0.959 . S
C967 C965 1.561 . S
C968 C965 1.526 . S
C968 C969 1.396 . S
C968 C973 1.390 . S
C969 C963 1.465 . S
C969 C968 1.396 . S
C969 C970 1.399 . S
C970 H956 0.929 . S
C970 C969 1.399 . S
C970 C971 1.385 . S
C971 H957 0.931 . S
C971 C970 1.385 . S
C971 C972 1.389 . S
C972 C971 1.389 . S
C972 C973 1.387 . S
C973 H958 0.930 . S
C973 C968 1.390 . S
C973 C972 1.387 . S
H974 C986 0.930 . S
H975 C988 0.930 . S
H976 C989 0.930 . S
H977 C993 0.959 . S
H978 C993 0.959 . S
H979 C993 0.961 . S
H980 C994 0.960 . S
H981 C994 0.961 . S
H982 C994 0.959 . S
H983 C997 0.929 . S
H984 C998 0.931 . S
H985 C1000 0.930 . S
C986 H974 0.930 . S
C986 C987 1.399 . S
C986 C991 1.399 . S
C987 C986 1.399 . S
C987 C988 1.376 . S
C988 H975 0.930 . S
C988 C987 1.376 . S
C988 C989 1.388 . S
C989 H976 0.930 . S
C989 C988 1.388 . S
C989 C990 1.390 . S
C990 C989 1.390 . S
C990 C991 1.394 . S
C990 C996 1.465 . S
C991 C986 1.399 . S
C991 C990 1.394 . S
C991 C992 1.516 . S
C992 C991 1.516 . S
C992 C993 1.502 . S
C992 C994 1.561 . S
C992 C995 1.526 . S
C993 H977 0.959 . S
C993 H978 0.959 . S
C993 H979 0.961 . S
C993 C992 1.502 . S
C994 H980 0.960 . S
C994 H981 0.961 . S
C994 H982 0.959 . S
C994 C992 1.561 . S
C995 C992 1.526 . S
C995 C996 1.396 . S
C995 C1000 1.390 . S
C996 C990 1.465 . S
C996 C995 1.396 . S
C996 C997 1.399 . S
C997 H983 0.929 . S
C997 C996 1.399 . S
C997 C998 1.385 . S
C998 H984 0.931 . S
C998 C997 1.385 . S
C998 C999 1.389 . S
C999 C998 1.389 . S
C999 C1000 1.387 . S
C1000 H985 0.930 . S
C1000 C995 1.390 . S
C1000 C999 1.387 . S
H1001 C1013 0.930 . S
H1002 C1015 0.930 . S
H1003 C1016 0.930 . S
H1004 C1020 0.959 . S
H1005 C1020 0.959 . S
H1006 C1020 0.961 . S
H1007 C1021 0.960 . S
H1008 C1021 0.961 . S
H1009 C1021 0.959 . S
H1010 C1024 0.929 . S
H1011 C1025 0.931 . S
H1012 C1027 0.930 . S
C1013 H1001 0.930 . S
C1013 C1014 1.399 . S
C1013 C1018 1.399 . S
C1014 C1013 1.399 . S
C1014 C1015 1.376 . S
C1015 H1002 0.930 . S
C1015 C1014 1.376 . S
C1015 C1016 1.388 . S
C1016 H1003 0.930 . S
C1016 C1015 1.388 . S
C1016 C1017 1.390 . S
C1017 C1016 1.390 . S
C1017 C1018 1.394 . S
C1017 C1023 1.465 . S
C1018 C1013 1.399 . S
C1018 C1017 1.394 . S
C1018 C1019 1.516 . S
C1019 C1018 1.516 . S
C1019 C1020 1.502 . S
C1019 C1021 1.561 . S
C1019 C1022 1.526 . S
C1020 H1004 0.959 . S
C1020 H1005 0.959 . S
C1020 H1006 0.961 . S
C1020 C1019 1.502 . S
C1021 H1007 0.960 . S
C1021 H1008 0.961 . S
C1021 H1009 0.959 . S
C1021 C1019 1.561 . S
C1022 C1019 1.526 . S
C1022 C1023 1.396 . S
C1022 C1027 1.390 . S
C1023 C1017 1.465 . S
C1023 C1022 1.396 . S
C1023 C1024 1.399 . S
C1024 H1010 0.929 . S
C1024 C1023 1.399 . S
C1024 C1025 1.385 . S
C1025 H1011 0.931 . S
C1025 C1024 1.385 . S
C1025 C1026 1.389 . S
C1026 C1025 1.389 . S
C1026 C1027 1.387 . S
C1027 H1012 0.930 . S
C1027 C1022 1.390 . S
C1027 C1026 1.387 . S
C285 C28 1.740 . S
C297 C241 1.606 . S
C312 C49 1.305 . S
C324 C137 1.308 . S
C339 C173 1.630 . S
C351 C96 1.724 . S
C366 C117 1.310 . S
C378 C207 1.308 . S
C393 C40 1.754 . S
C405 C205 1.648 . S
C420 C239 1.236 . S
C432 C90 1.227 . S
C447 C108 1.754 . S
C459 C139 1.658 . S
C474 C171 1.274 . S
C486 C22 1.291 . S
C501 C142 1.708 . S
C513 C105 1.570 . S
C528 C3 1.236 . S
C540 C185 1.227 . S
C555 C37 1.627 . S
C567 C232 1.722 . S
C582 C253 1.287 . S
C594 C71 1.269 . S
C609 C176 1.711 . S
C621 C69 1.567 . S
C636 C226 1.307 . S
C648 C103 1.295 . S
C663 C244 1.708 . S
C675 C1 1.573 . S
C690 C35 1.303 . S
C702 C151 1.310 . S
C717 C17 1.633 . S
C729 C85 1.633 . S
C744 C119 1.652 . S
C756 C51 1.652 . S
C771 C153 1.650 . S
C783 C221 1.651 . S
C798 C187 1.633 . S
C810 C255 1.634 . S
C825 C15 0.777 . S
C837 C56 0.729 . S
C852 C62 0.667 . S
C864 C74 0.667 . S
C879 C124 0.772 . S
C891 C83 0.905 . S
C906 C6 0.668 . S
C918 C130 0.669 . S
C933 C192 0.726 . S
C945 C158 0.849 . S
C960 C210 0.665 . S
C972 C198 0.666 . S
C987 C219 0.744 . S
C999 C260 0.880 . S
C1014 C164 0.804 . S
C1026 C266 0.802 . S
