# Generated by pormake.
# Topology lvt, (4)-cn, num edge types: 1
# Building blocks:
#     Node 0, Type 0, BuildingBlock: MUDLON_clean_sbu_0, # of connection points: 4
#     Node 1, Type 0, BuildingBlock: MUDLON_clean_sbu_0, # of connection points: 4
#     Node 2, Type 0, BuildingBlock: MUDLON_clean_sbu_0, # of connection points: 4
#     Node 3, Type 0, BuildingBlock: MUDLON_clean_sbu_0, # of connection points: 4
#     Node 4, Type 0, BuildingBlock: MUDLON_clean_sbu_0, # of connection points: 4
#     Node 5, Type 0, BuildingBlock: MUDLON_clean_sbu_0, # of connection points: 4
#     Node 6, Type 0, BuildingBlock: MUDLON_clean_sbu_0, # of connection points: 4
#     Node 7, Type 0, BuildingBlock: MUDLON_clean_sbu_0, # of connection points: 4
#     Edge 8, Type (0, 0), BuildingBlock: FUNLAD_clean_linker_1, # of connection points: 2
#     Edge 9, Type (0, 0), BuildingBlock: FUNLAD_clean_linker_1, # of connection points: 2
#     Edge 10, Type (0, 0), BuildingBlock: FUNLAD_clean_linker_1, # of connection points: 2
#     Edge 11, Type (0, 0), BuildingBlock: FUNLAD_clean_linker_1, # of connection points: 2
#     Edge 12, Type (0, 0), BuildingBlock: FUNLAD_clean_linker_1, # of connection points: 2
#     Edge 13, Type (0, 0), BuildingBlock: FUNLAD_clean_linker_1, # of connection points: 2
#     Edge 14, Type (0, 0), BuildingBlock: FUNLAD_clean_linker_1, # of connection points: 2
#     Edge 15, Type (0, 0), BuildingBlock: FUNLAD_clean_linker_1, # of connection points: 2
#     Edge 16, Type (0, 0), BuildingBlock: FUNLAD_clean_linker_1, # of connection points: 2
#     Edge 17, Type (0, 0), BuildingBlock: FUNLAD_clean_linker_1, # of connection points: 2
#     Edge 18, Type (0, 0), BuildingBlock: FUNLAD_clean_linker_1, # of connection points: 2
#     Edge 19, Type (0, 0), BuildingBlock: FUNLAD_clean_linker_1, # of connection points: 2
#     Edge 20, Type (0, 0), BuildingBlock: FUNLAD_clean_linker_1, # of connection points: 2
#     Edge 21, Type (0, 0), BuildingBlock: FUNLAD_clean_linker_1, # of connection points: 2
#     Edge 22, Type (0, 0), BuildingBlock: FUNLAD_clean_linker_1, # of connection points: 2
#     Edge 23, Type (0, 0), BuildingBlock: FUNLAD_clean_linker_1, # of connection points: 2
# Relax obj value: 0.001
# Max RMSD: 0.037
# Mean RMSD: 0.025
data_MOF--net-lvt--node1-MUDLON_clean_sbu_0--edge1-FUNLAD_clean_linker_1
_symmetry_space_group_name_H-M    P1
_symmetry_Int_Tables_number       1
_symmetry_cell_setting            triclinic
loop_
_symmetry_equiv_pos_as_xyz
'x, y, z'
_cell_length_a     44.207686
_cell_length_b     44.300859
_cell_length_c     9.8293746
_cell_angle_alpha  90.282444
_cell_angle_beta   90.449831
_cell_angle_gamma 90.329672
loop_
_atom_site_label
_atom_site_type_symbol
_atom_site_fract_x
_atom_site_fract_y
_atom_site_fract_z
_atom_type_partial_charge
Mg0 Mg 0.06935 0.02242 0.49065 0.0
C1 C 0.1064 0.07533 0.59536 0.0
O2 O 0.09074 0.08895 0.49978 0.0
C3 C 0.02472 0.97334 0.54831 0.0
O4 O 0.03067 0.96809 0.41958 0.0
C5 C 1.01452 0.05422 0.36311 0.0
O6 O 1.00012 0.03192 0.42234 0.0
O7 O 0.04335 0.05492 0.36764 0.0
O8 O 0.10084 0.04775 0.62065 0.0
O9 O 0.09903 0.99029 0.38738 0.0
C10 C 0.12576 0.99809 0.35442 0.0
O11 O 0.13356 0.02669 0.36224 0.0
O12 O 0.03795 0.99522 0.60881 0.0
Mg13 Mg 0.29992 0.7732 0.70697 0.0
C14 C 0.25505 0.72311 0.70597 0.0
O15 O 0.26868 0.71998 0.58846 0.0
C16 C 0.31653 0.81983 0.93389 0.0
O17 O 0.28718 0.82367 0.94158 0.0
C18 C 0.24938 0.81224 0.62168 0.0
O19 O 0.23939 0.79832 0.72997 0.0
O20 O 0.27575 0.80599 0.57822 0.0
O21 O 0.26408 0.74387 0.7872 0.0
O22 O 0.33084 0.74062 0.6132 0.0
C23 C 0.35915 0.74095 0.63802 0.0
O24 O 0.37103 0.76407 0.70392 0.0
O25 O 0.32695 0.79991 0.85333 0.0
Mg26 Mg 0.53938 1.01166 0.14443 0.0
C27 C 0.50496 0.95456 0.0975 0.0
O28 O 0.52244 0.95642 0.99061 0.0
C29 C 0.5743 0.06152 0.27462 0.0
O30 O 0.56276 0.07393 0.16495 0.0
C31 C 0.58893 0.97051 0.09106 0.0
O32 O 0.57829 0.96249 0.21014 0.0
O33 O 0.57599 0.99186 0.02729 0.0
O34 O 0.5075 0.97456 0.19081 0.0
O35 O 0.51278 0.04702 0.04654 0.0
C36 C 0.48501 0.04887 0.07854 0.0
O37 O 0.47312 0.02767 0.15467 0.0
O38 O 0.56627 0.03463 0.30415 0.0
Mg39 Mg 0.30383 0.27252 0.43086 0.0
C40 C 0.28837 0.21959 0.61285 0.0
O41 O 0.30869 0.20608 0.53752 0.0
C42 C 0.35269 0.31548 0.36397 0.0
O43 O 0.34707 0.30179 0.2475 0.0
C44 C 0.25513 0.31484 0.46169 0.0
O45 O 0.26993 0.31479 0.57824 0.0
O46 O 0.26457 0.29812 0.36547 0.0
O47 O 0.28517 0.24799 0.60291 0.0
O48 O 0.32058 0.23866 0.2874 0.0
C49 C 0.3485 0.23197 0.29497 0.0
O50 O 0.36584 0.24642 0.38314 0.0
O51 O 0.33814 0.30733 0.46887 0.0
Mg52 Mg 0.79552 0.26105 0.22842 0.0
C53 C 0.83241 0.31815 0.27575 0.0
O54 O 0.82578 0.32092 0.1459 0.0
C55 C 0.759 0.20847 0.34537 0.0
O56 O 0.78167 0.19313 0.29484 0.0
C57 C 0.85224 0.22334 0.22057 0.0
O58 O 0.85887 0.24227 0.31986 0.0
O59 O 0.8273 0.22645 0.1563 0.0
O60 O 0.82228 0.29538 0.34032 0.0
O61 O 0.76873 0.28449 0.07241 0.0
C62 C 0.75543 0.30837 0.11226 0.0
O63 O 0.75999 0.31777 0.23783 0.0
O64 O 0.76 0.23723 0.34256 0.0
Mg65 Mg 0.81255 0.7745 0.94082 0.0
C66 C 0.85959 0.81924 0.86688 0.0
O67 O 0.85795 0.82252 -0.00041 0.0
C68 C 0.76165 0.73387 0.926 0.0
O69 O 0.76543 0.74057 0.05548 0.0
C70 C 0.86343 0.7329 0.00588 0.0
O71 O 0.8736 0.74665 0.89713 0.0
O72 O 0.83874 0.74178 0.05775 0.0
O73 O 0.84256 0.79988 0.80814 0.0
O74 O 0.78479 0.80663 0.05179 0.0
C75 C 0.77601 0.82938 0.98381 0.0
O76 O 0.78613 0.83306 0.85963 0.0
O77 O 0.77926 0.74589 0.83972 0.0
Mg78 Mg 0.55164 0.51602 0.89925 0.0
C79 C 0.49712 0.48523 0.0311 0.0
O80 O 0.4826 0.49815 0.93014 0.0
C81 C 0.59535 0.56465 0.90269 0.0
O82 O 0.5919 0.55704 0.77404 0.0
C83 C 0.58358 0.45686 0.83335 0.0
O84 O 0.55875 0.44551 0.88555 0.0
O85 O 0.58529 0.4852 0.81358 0.0
O86 O 0.52542 0.48964 0.04509 0.0
O87 O 0.52295 0.54283 0.76232 0.0
C88 C 0.50437 0.56033 0.82159 0.0
O89 O 0.50264 0.55955 0.95496 0.0
O90 O 0.58015 0.55055 0.99174 0.0
Mg91 Mg 0.03559 0.51344 0.69873 0.0
C92 C 0.98038 0.49905 0.50352 0.0
O93 O 0.97895 0.52819 0.48104 0.0
C94 C 0.07216 0.57026 0.67087 0.0
O95 O 0.06004 0.57392 0.7913 0.0
C96 C 0.07709 0.4645 0.64626 0.0
O97 O 0.06519 0.47132 0.52742 0.0
O98 O 0.06828 0.47883 0.75119 0.0
O99 O 1.00108 0.4887 0.58055 0.0
O100 O 1.01387 0.53731 0.8664 0.0
C101 C 0.98536 0.53757 0.88195 0.0
O102 O 0.96838 0.51901 0.80948 0.0
O103 O 0.06439 0.54733 0.59938 0.0
H104 H 0.14878 0.0763 0.71692 0.0
C105 C 0.13387 0.0898 0.65357 0.0
H106 H 0.12847 0.13063 0.547 0.0
H107 H 0.24503 0.17606 0.91576 0.0
H108 H 0.21053 0.17622 0.10702 0.0
H109 H 0.15925 0.15442 0.08456 0.0
H110 H 0.14204 0.13237 0.87031 0.0
C111 C 0.14271 0.11754 0.61506 0.0
C112 C 0.17437 0.1284 0.63535 0.0
C113 C 0.184 0.14126 0.76078 0.0
C114 C 0.21343 0.15436 0.77302 0.0
C115 C 0.22266 0.16658 0.90006 0.0
C116 C 0.20316 0.16663 0.01075 0.0
C117 C 0.17427 0.15434 -0.00191 0.0
C118 C 0.16468 0.14175 0.87478 0.0
H119 H 0.24292 0.21397 0.6994 0.0
C120 C 0.26329 0.20183 0.67158 0.0
H121 H 0.28261 0.15938 0.63328 0.0
H122 H 0.16395 0.10292 0.38478 0.0
H123 H 0.19817 0.10276 0.19355 0.0
H124 H 0.24843 0.12691 0.21136 0.0
H125 H 0.2649 0.15107 0.42027 0.0
C126 C 0.26247 0.17151 0.66401 0.0
C127 C 0.23294 0.15499 0.65903 0.0
C128 C 0.22366 0.141 0.53502 0.0
C129 C 0.19443 0.12761 0.52359 0.0
C130 C 0.18575 0.11378 0.3987 0.0
C131 C 0.2052 0.11344 0.28803 0.0
C132 C 0.23351 0.12697 0.29819 0.0
C133 C 0.2427 0.14072 0.41947 0.0
H134 H 0.17236 0.98342 0.3109 0.0
C135 C 0.14976 0.97528 0.33444 0.0
H136 H 0.12373 0.93763 0.39518 0.0
H137 H 0.23206 0.84885 0.21215 0.0
H138 H 0.2086 0.8528 0.98828 0.0
H139 H 0.16831 0.88992 0.9449 0.0
H140 H 0.1514 0.92368 0.12445 0.0
C141 C 0.14586 0.94598 0.36559 0.0
C142 C 0.17225 0.92554 0.3863 0.0
C143 C 0.18219 0.90629 0.28023 0.0
C144 C 0.20542 0.88475 0.30555 0.0
C145 C 0.21452 0.86552 0.19827 0.0
C146 C 0.20126 0.86758 0.06951 0.0
C147 C 0.17858 0.88852 0.045 0.0
C148 C 0.16906 0.90772 0.14876 0.0
H149 H 0.20752 0.83805 0.60514 0.0
C150 C 0.23004 0.83598 0.56236 0.0
H151 H 0.26126 0.85534 0.42526 0.0
H152 H 0.1597 0.95997 0.61108 0.0
H153 H 0.18546 0.95832 0.82958 0.0
H154 H 0.22769 0.92319 0.8688 0.0
H155 H 0.2439 0.88897 0.69082 0.0
C156 C 0.23905 0.85664 0.47131 0.0
C157 C 0.21856 0.88241 0.43714 0.0
C158 C 0.21022 0.90331 0.54016 0.0
C159 C 0.18664 0.92439 0.51573 0.0
C160 C 0.17783 0.94388 0.62296 0.0
C161 C 0.19244 0.9432 0.74899 0.0
C162 C 0.21615 0.92337 0.77123 0.0
C163 C 0.22505 0.90364 0.66851 0.0
H164 H 0.48471 0.91189 0.02688 0.0
C165 C 0.48184 0.93026 0.09935 0.0
H166 H 0.45146 0.95083 0.23548 0.0
H167 H 0.34408 0.89196 0.87975 0.0
H168 H 0.33892 0.94491 0.82715 0.0
H169 H 0.37528 0.98246 0.91803 0.0
H170 H 0.41728 0.96709 0.06116 0.0
C171 C 0.45594 0.93159 0.16989 0.0
C172 C 0.43092 0.90956 0.1388 0.0
C173 C 0.40557 0.91896 0.06067 0.0
C174 C 0.38407 0.8973 0.01123 0.0
C175 C 0.36039 0.90731 0.9249 0.0
C176 C 0.35729 0.93772 0.89268 0.0
C177 C 0.37779 0.95886 0.94359 0.0
C178 C 0.40179 0.94971 0.02583 0.0
H179 H 0.32718 0.85683 0.07912 0.0
C180 C 0.33712 0.84088 0.0082 0.0
H181 H 0.37714 0.82669 0.91204 0.0
H182 H 0.47444 0.88456 0.30026 0.0
H183 H 0.47898 0.83164 0.36039 0.0
H184 H 0.44155 0.79416 0.27783 0.0
H185 H 0.39934 0.80929 0.13478 0.0
C186 C 0.36693 0.84277 0.98151 0.0
C187 C 0.38732 0.86625 0.04428 0.0
C188 C 0.41186 0.85716 0.12832 0.0
C189 C 0.43359 0.87878 0.17563 0.0
C190 C 0.45767 0.86898 0.25988 0.0
C191 C 0.46043 0.83873 0.29571 0.0
C192 C 0.43934 0.81762 0.24927 0.0
C193 C 0.41528 0.82659 0.16679 0.0
H194 H 0.34439 0.18825 0.18604 0.0
C195 C 0.36032 0.20529 0.2224 0.0
H196 H 0.40596 0.2175 0.25225 0.0
H197 H 0.45793 0.08908 0.3517 0.0
H198 H 0.46303 0.11236 0.5743 0.0
H199 H 0.44061 0.16211 0.62141 0.0
H200 H 0.41258 0.18864 0.44743 0.0
C201 C 0.39026 0.20039 0.2144 0.0
C202 C 0.40294 0.17004 0.18326 0.0
C203 C 0.41897 0.15458 0.28731 0.0
C204 C 0.43171 0.1258 0.26052 0.0
C205 C 0.44763 0.11094 0.36638 0.0
C206 C 0.45079 0.12405 0.49479 0.0
C207 C 0.43818 0.15205 0.5213 0.0
C208 C 0.42226 0.16713 0.41976 0.0
H209 H 0.48068 0.09636 0.01256 0.0
C210 C 0.46849 0.07738 0.05599 0.0
H211 H 0.42879 0.06301 0.15525 0.0
H212 H 0.37586 0.19438 0.9578 0.0
H213 H 0.37001 0.17045 0.73618 0.0
H214 H 0.39038 0.11958 0.69327 0.0
H215 H 0.41746 0.09259 0.87077 0.0
C216 C 0.44065 0.08158 0.10684 0.0
C217 C 0.42841 0.11239 0.12992 0.0
C218 C 0.41249 0.12775 0.02582 0.0
C219 C 0.39996 0.15677 0.052 0.0
C220 C 0.38501 0.17198 0.94476 0.0
C221 C 0.38163 0.15855 0.81692 0.0
C222 C 0.39318 0.12993 0.79262 0.0
C223 C 0.40862 0.11467 0.89522 0.0
H224 H 0.99885 0.95894 0.72874 0.0
C225 C 1.00221 0.95479 0.62084 0.0
H226 H 0.9892 0.92877 0.44924 0.0
H227 H 0.93876 0.81789 0.77905 0.0
H228 H 0.98369 0.79654 0.67822 0.0
H229 H 0.01977 0.82866 0.55393 0.0
H230 H 1.0112 0.88237 0.53044 0.0
C231 C 0.98555 0.93349 0.55645 0.0
C232 C 0.9632 0.91428 0.62952 0.0
C233 C 0.96824 0.88277 0.64024 0.0
C234 C 0.94723 0.86416 0.71056 0.0
C235 C 0.9535 0.83298 0.72401 0.0
C236 C 0.97934 0.82043 0.66727 0.0
C237 C 0.99967 0.83851 0.59739 0.0
C238 C 0.99439 0.86933 0.58428 0.0
H239 H 0.88217 0.834 0.678 0.0
C240 C 0.88113 0.83752 0.78737 0.0
H241 H 0.89792 0.86241 0.95595 0.0
H242 H 0.94456 0.97314 0.61321 0.0
H243 H 0.89951 0.99441 0.71326 0.0
H244 H 0.8638 0.96238 0.84021 0.0
H245 H 0.87284 0.90878 0.86665 0.0
C246 C 0.89945 0.85808 0.84732 0.0
C247 C 0.92095 0.87703 0.76838 0.0
C248 C 0.91573 0.90846 0.75635 0.0
C249 C 0.93665 0.92706 0.68545 0.0
C250 C 0.93005 0.95811 0.66984 0.0
C251 C 0.9041 0.97061 0.72587 0.0
C252 C 0.88398 0.95257 0.79718 0.0
C253 C 0.88952 0.92184 0.81201 0.0
H254 H 1.00999 0.10103 0.28691 0.0
C255 C 0.99745 0.08065 0.31177 0.0
H256 H 0.95446 0.06079 0.33756 0.0
H257 H 0.88333 0.17623 0.50517 0.0
H258 H 0.88505 0.14834 0.71638 0.0
H259 H 0.91619 0.10261 0.73791 0.0
H260 H 0.94599 0.0846 0.54908 0.0
C261 C 0.96694 0.08098 0.30919 0.0
C262 C 0.94918 0.10948 0.29445 0.0
C263 C 0.93216 0.12006 0.40679 0.0
C264 C 0.91454 0.14674 0.39504 0.0
C265 C 0.89752 0.15642 0.50875 0.0
C266 C 0.89816 0.14055 0.63065 0.0
C267 C 0.91568 0.1148 0.64275 0.0
C268 C 0.93259 0.10464 0.53293 0.0
H269 H 0.86323 0.17876 0.12942 0.0
C270 C 0.87153 0.1965 0.19698 0.0
H271 H 0.90538 0.21 0.33711 0.0
H272 H 0.97655 0.09415 0.05553 0.0
H273 H 0.97561 0.12265 0.84525 0.0
H274 H 0.94717 0.17023 0.82859 0.0
H275 H 0.91903 0.18942 0.02129 0.0
C276 C 0.89763 0.19259 0.26657 0.0
C277 C 0.91403 0.16315 0.27134 0.0
C278 C 0.93085 0.1525 0.15856 0.0
C279 C 0.94813 0.12547 0.16961 0.0
C280 C 0.96383 0.11492 0.05402 0.0
C281 C 0.96338 0.13101 0.93258 0.0
C282 C 0.94729 0.15777 0.92307 0.0
C283 C 0.93116 0.16849 0.03433 0.0
H284 H 0.71014 0.20633 0.39414 0.0
C285 C 0.73024 0.19275 0.37892 0.0
H286 H 0.74764 0.14892 0.35362 0.0
H287 H 0.60742 0.11796 0.56425 0.0
H288 H 0.62223 0.14103 0.77991 0.0
H289 H 0.67178 0.16636 0.80656 0.0
H290 H 0.70694 0.16882 0.61818 0.0
C291 C 0.72765 0.16241 0.37283 0.0
C292 C 0.69765 0.14668 0.36113 0.0
C293 C 0.6776 0.14486 0.47303 0.0
C294 C 0.64909 0.1298 0.45825 0.0
C295 C 0.62933 0.12891 0.57058 0.0
C296 C 0.63756 0.14205 0.69467 0.0
C297 C 0.66548 0.15632 0.70971 0.0
C298 C 0.68541 0.15768 0.6007 0.0
H299 H 0.61465 0.063 0.41139 0.0
C300 C 0.60061 0.07629 0.3434 0.0
H301 H 0.59578 0.11709 0.23615 0.0
H302 H 0.7306 0.1454 0.12567 0.0
H303 H 0.71643 0.12085 0.91391 0.0
H304 H 0.66787 0.0936 0.89102 0.0
H305 H 0.63305 0.09093 0.07967 0.0
C306 C 0.60956 0.10429 0.30719 0.0
C307 C 0.6408 0.11629 0.33219 0.0
C308 C 0.66129 0.11724 0.22185 0.0
C309 C 0.68959 0.13248 0.23601 0.0
C310 C 0.70909 0.13365 0.1222 0.0
C311 C 0.70122 0.11972 -0.00047 0.0
C312 C 0.67385 0.10445 0.98652 0.0
C313 C 0.65402 0.10321 0.09569 0.0
H314 H 0.62813 0.96658 0.95278 0.0
C315 C 0.61657 0.95617 0.03786 0.0
H316 H 0.61651 0.92123 0.18268 0.0
H317 H 0.71635 0.86872 0.73729 0.0
H318 H 0.67668 0.8715 0.56729 0.0
H319 H 0.62751 0.89442 0.62106 0.0
H320 H 0.61785 0.9149 0.84492 0.0
C321 C 0.62802 0.93123 0.09644 0.0
C322 C 0.65794 0.9182 0.05952 0.0
C323 C 0.66302 0.90579 0.92828 0.0
C324 C 0.69125 0.892 0.89816 0.0
C325 C 0.69557 0.87967 0.76628 0.0
C326 C 0.67288 0.88094 0.66749 0.0
C327 C 0.64522 0.89388 0.69769 0.0
C328 C 0.64011 0.90589 0.82662 0.0
H329 H 0.73871 0.84107 0.1227 0.0
C330 C 0.75137 0.84868 0.03483 0.0
H331 H 0.75542 0.88112 0.8799 0.0
H332 H 0.65605 0.94032 0.32055 0.0
H333 H 0.696 0.93813 0.48986 0.0
H334 H 0.74521 0.91526 0.43582 0.0
H335 H 0.75461 0.89421 0.21237 0.0
C336 C 0.74286 0.87384 0.96861 0.0
C337 C 0.71413 0.88994 0.00017 0.0
C338 C 0.70929 0.90299 0.13029 0.0
C339 C 0.68109 0.91677 0.16042 0.0
C340 C 0.67686 0.92936 0.29184 0.0
C341 C 0.6997 0.92845 0.39004 0.0
C342 C 0.72738 0.91553 0.3597 0.0
C343 C 0.73235 0.90319 0.23126 0.0
H344 H 0.61946 0.59469 0.04896 0.0
C345 C 0.61694 0.58875 0.94204 0.0
H346 H 0.63072 0.5977 0.74069 0.0
H347 H 0.67984 0.72921 0.84472 0.0
H348 H 0.63365 0.73956 0.71929 0.0
H349 H 0.597 0.69883 0.66741 0.0
H350 H 0.60624 0.64754 0.74139 0.0
C351 C 0.63374 0.60298 0.84805 0.0
C352 C 0.65562 0.62746 0.88362 0.0
C353 C 0.65011 0.65726 0.8378 0.0
C354 C 0.67139 0.6807 0.86652 0.0
C355 C 0.6648 0.71042 0.82333 0.0
C356 C 0.63827 0.71672 0.75177 0.0
C357 C 0.61763 0.69379 0.72261 0.0
C358 C 0.62329 0.66441 0.76528 0.0
H359 H 0.73622 0.7056 0.77687 0.0
C360 C 0.73824 0.71177 0.88373 0.0
H361 H 0.72274 0.70405 0.08351 0.0
H362 H 0.6747 0.57224 0.97513 0.0
H363 H 0.7208 0.56199 0.10084 0.0
H364 H 0.75712 0.60286 0.15504 0.0
H365 H 0.74764 0.65419 0.08259 0.0
C366 C 0.72015 0.69865 0.97606 0.0
C367 C 0.69832 0.6742 0.93967 0.0
C368 C 0.70386 0.64439 0.98529 0.0
C369 C 0.68267 0.62092 0.95605 0.0
C370 C 0.6895 0.59114 0.99783 0.0
C371 C 0.71603 0.58487 0.06938 0.0
C372 C 0.73649 0.60787 0.09978 0.0
C373 C 0.73068 0.63728 0.05799 0.0
H374 H 0.72292 0.31116 0.93918 0.0
C375 C 0.73233 0.32336 0.02597 0.0
H376 H 0.73051 0.36225 0.14932 0.0
H377 H 0.64256 0.40674 0.63542 0.0
H378 H 0.68589 0.40003 0.48832 0.0
H379 H 0.73289 0.37715 0.5753 0.0
H380 H 0.73686 0.36058 0.80962 0.0
C381 C 0.72111 0.35053 0.06107 0.0
C382 C 0.69258 0.3632 0.00234 0.0
C383 C 0.6909 0.37351 0.86592 0.0
C384 C 0.66409 0.38781 0.8169 0.0
C385 C 0.66266 0.39675 0.679 0.0
C386 C 0.6873 0.39286 0.59328 0.0
C387 C 0.71376 0.37991 0.64222 0.0
C388 C 0.71569 0.37036 0.77686 0.0
H389 H 0.63305 0.45037 0.81948 0.0
C390 C 0.61158 0.43855 0.82975 0.0
H391 H 0.58994 0.3973 0.87264 0.0
H392 H 0.687 0.34394 0.26573 0.0
H393 H 0.64453 0.3523 0.41475 0.0
H394 H 0.59963 0.38003 0.33506 0.0
H395 H 0.59664 0.39898 0.10519 0.0
C396 C 0.61145 0.40887 0.85938 0.0
C397 C 0.63939 0.3928 0.90567 0.0
C398 C 0.64104 0.38226 0.0418 0.0
C399 C 0.6674 0.36716 0.08937 0.0
C400 C 0.66795 0.35625 0.22486 0.0
C401 C 0.64364 0.36077 0.31167 0.0
C402 C 0.61834 0.37629 0.26668 0.0
C403 C 0.61691 0.38695 0.13377 0.0
H404 H 0.86486 0.33331 0.43555 0.0
C405 C 0.85338 0.34001 0.34244 0.0
H406 H 0.84753 0.37361 0.19418 0.0
H407 H 0.92345 0.44523 0.69758 0.0
H408 H 0.88271 0.43058 0.84764 0.0
H409 H 0.84105 0.39789 0.76531 0.0
H410 H 0.84004 0.37931 0.53339 0.0
C411 C 0.8592 0.36728 0.2874 0.0
C412 C 0.88347 0.38832 0.33912 0.0
C413 C 0.88313 0.39991 0.4743 0.0
C414 C 0.90666 0.41972 0.52062 0.0
C415 C 0.90611 0.43032 0.65682 0.0
C416 C 0.8828 0.42218 0.74402 0.0
C417 C 0.85938 0.40371 0.69773 0.0
C418 C 0.85929 0.39287 0.56444 0.0
H419 H 0.94048 0.48792 0.37448 0.0
C420 C 0.9569 0.47859 0.44535 0.0
H421 H 0.97012 0.44014 0.5569 0.0
H422 H 0.89142 0.37087 0.07317 0.0
H423 H 0.93099 0.38741 0.92192 0.0
H424 H 0.97061 0.4229 0.00082 0.0
H425 H 0.97097 0.44192 0.23226 0.0
C426 C 0.95466 0.44933 0.48147 0.0
C427 C 0.92976 0.42914 0.43049 0.0
C428 C 0.92969 0.41827 0.29453 0.0
C429 C 0.90667 0.39783 0.24898 0.0
C430 C 0.90782 0.38684 0.11331 0.0
C431 C 0.93058 0.39601 0.02518 0.0
C432 C 0.95289 0.41598 0.06961 0.0
C433 C 0.95271 0.42687 0.20273 0.0
H434 H 0.86384 0.68932 0.11574 0.0
C435 C 0.87662 0.70366 0.04729 0.0
H436 H 0.91365 0.70692 0.91459 0.0
H437 H 0.95089 0.57825 0.21131 0.0
H438 H 0.95688 0.607 0.42111 0.0
H439 H 0.94149 0.66038 0.43327 0.0
H440 H 0.91969 0.68532 0.23628 0.0
C441 C 0.90151 0.69284 0.98638 0.0
C442 C 0.90908 0.66008 0.98588 0.0
C443 C 0.92205 0.64598 0.1015 0.0
C444 C 0.93172 0.61537 0.09339 0.0
C445 C 0.94398 0.60164 0.21104 0.0
C446 C 0.9474 0.61784 0.3321 0.0
C447 C 0.93867 0.64789 0.33904 0.0
C448 C 0.92612 0.66192 0.2254 0.0
H449 H 0.9868 0.58202 0.98353 0.0
C450 C 0.97173 0.5638 0.95144 0.0
H451 H 0.92653 0.55036 0.91758 0.0
H452 H 0.8825 0.67937 0.74906 0.0
H453 H 0.87701 0.6509 0.53929 0.0
H454 H 0.8954 0.5986 0.5225 0.0
H455 H 0.91941 0.57449 0.71475 0.0
C456 C 0.94165 0.56817 0.95334 0.0
C457 C 0.92899 0.59916 0.9689 0.0
C458 C 0.91513 0.61303 0.85455 0.0
C459 C 0.90504 0.64339 0.86337 0.0
C460 C 0.8911 0.65655 0.74768 0.0
C461 C 0.88765 0.64043 0.62655 0.0
C462 C 0.89798 0.61099 0.61715 0.0
C463 C 0.91166 0.59738 0.72901 0.0
H464 H 0.49588 0.44457 0.1601 0.0
C465 C 0.48195 0.46173 0.11244 0.0
H466 H 0.43793 0.47667 0.0682 0.0
H467 H 0.37212 0.35228 0.03272 0.0
H468 H 0.36709 0.37135 0.80374 0.0
H469 H 0.39407 0.41749 0.73376 0.0
H470 H 0.42605 0.4449 0.89244 0.0
C471 C 0.45163 0.45943 0.11675 0.0
C472 C 0.43609 0.43121 0.16168 0.0
C473 C 0.41815 0.41485 0.0659 0.0
C474 C 0.40349 0.38761 0.10488 0.0
C475 C 0.3847 0.3725 0.00815 0.0
C476 C 0.38141 0.3833 0.87611 0.0
C477 C 0.39653 0.4093 0.83683 0.0
C478 C 0.41474 0.42493 0.92977 0.0
H479 H 0.36757 0.36051 0.43809 0.0
C480 C 0.37244 0.34247 0.3664 0.0
H481 H 0.39831 0.32759 0.20123 0.0
H482 H 0.46469 0.45916 0.37634 0.0
H483 H 0.47207 0.43873 0.60286 0.0
H484 H 0.45174 0.38859 0.66241 0.0
H485 H 0.42295 0.35906 0.49783 0.0
C486 C 0.39389 0.34608 0.27135 0.0
C487 C 0.40768 0.37598 0.23817 0.0
C488 C 0.42575 0.39224 0.33391 0.0
C489 C 0.43915 0.42036 0.29683 0.0
C490 C 0.45529 0.43708 0.39705 0.0
C491 C 0.45953 0.4257 0.52768 0.0
C492 C 0.44796 0.39753 0.56141 0.0
C493 C 0.43126 0.38089 0.46614 0.0
H494 H 0.3641 0.69189 0.60308 0.0
C495 C 0.37664 0.71266 0.62255 0.0
H496 H 0.41876 0.73218 0.67268 0.0
H497 H 0.47406 0.62764 0.01254 0.0
H498 H 0.4691 0.66763 0.17878 0.0
H499 H 0.4417 0.71432 0.12308 0.0
H500 H 0.41976 0.72157 0.89982 0.0
C501 C 0.40647 0.71137 0.65096 0.0
C502 C 0.42202 0.68223 0.68306 0.0
C503 C 0.43412 0.67795 0.81586 0.0
C504 C 0.44878 0.65044 0.84995 0.0
C505 C 0.46169 0.6475 0.9819 0.0
C506 C 0.45922 0.67041 0.07852 0.0
C507 C 0.44389 0.69672 0.04703 0.0
C508 C 0.43149 0.7006 0.9177 0.0
H509 H 0.49775 0.59291 0.65319 0.0
C510 C 0.48793 0.58411 0.74595 0.0
H511 H 0.45365 0.58745 0.89164 0.0
H512 H 0.40556 0.68433 0.41451 0.0
H513 H 0.40799 0.64325 0.25087 0.0
H514 H 0.42845 0.5937 0.31668 0.0
H515 H 0.44707 0.58503 0.54569 0.0
C516 C 0.46294 0.59681 0.79869 0.0
C517 C 0.45037 0.62651 0.75336 0.0
C518 C 0.43823 0.63074 0.62049 0.0
C519 C 0.42486 0.65891 0.58432 0.0
C520 C 0.41466 0.66306 0.44892 0.0
C521 C 0.41611 0.63973 0.35374 0.0
C522 C 0.42773 0.61186 0.3907 0.0
C523 C 0.43858 0.60725 0.52242 0.0
H524 H 0.21326 0.71176 0.81878 0.0
C525 C 0.22779 0.70474 0.73594 0.0
H526 H 0.23472 0.67391 0.57549 0.0
H527 H 0.127 0.60559 0.94022 0.0
H528 H 0.16146 0.60827 0.1321 0.0
H529 H 0.21035 0.63491 0.11442 0.0
H530 H 0.22489 0.65926 0.90515 0.0
C531 C 0.22012 0.68053 0.65881 0.0
C532 C 0.19069 0.66385 0.67177 0.0
C533 C 0.18285 0.64891 0.79415 0.0
C534 C 0.15486 0.6329 0.8032 0.0
C535 C 0.1477 0.61833 0.92718 0.0
C536 C 0.16741 0.61947 0.03827 0.0
C537 C 0.19491 0.6345 0.02838 0.0
C538 C 0.2028 0.64877 0.90775 0.0
H539 H 0.11242 0.58218 0.54839 0.0
C540 C 0.09799 0.58969 0.63075 0.0
H541 H 0.09097 0.62175 0.7861 0.0
H542 H 0.19867 0.68923 0.42029 0.0
H543 H 0.16446 0.68599 0.22753 0.0
H544 H 0.11585 0.65881 0.24443 0.0
H545 H 0.10127 0.63453 0.45409 0.0
C546 C 0.10539 0.61473 0.70282 0.0
C547 C 0.13497 0.63106 0.68889 0.0
C548 C 0.14294 0.64573 0.56611 0.0
C549 C 0.17087 0.66187 0.55723 0.0
C550 C 0.17805 0.67636 0.43312 0.0
C551 C 0.15849 0.67488 0.32154 0.0
C552 C 0.13113 0.65956 0.33101 0.0
C553 C 0.12319 0.64541 0.45187 0.0
H554 H 0.21595 0.33361 0.34817 0.0
C555 C 0.22785 0.33367 0.44533 0.0
H556 H 0.22889 0.34991 0.64785 0.0
H557 H 0.14438 0.45695 0.38513 0.0
H558 H 0.18829 0.47048 0.25233 0.0
H559 H 0.23357 0.43824 0.25165 0.0
H560 H 0.23513 0.39218 0.38302 0.0
C561 C 0.2176 0.3506 0.5493 0.0
C562 C 0.18962 0.36905 0.54012 0.0
C563 C 0.18913 0.39597 0.46263 0.0
C564 C 0.16309 0.41472 0.46419 0.0
C565 C 0.16338 0.44167 0.38702 0.0
C566 C 0.18851 0.44982 0.31066 0.0
C567 C 0.214 0.43166 0.31022 0.0
C568 C 0.21451 0.40514 0.38568 0.0
H569 H 0.11321 0.4389 0.75175 0.0
C570 C 0.10166 0.44209 0.65492 0.0
H571 H 0.09956 0.43039 0.44649 0.0
H572 H 0.18297 0.31873 0.69769 0.0
H573 H 0.13873 0.3047 0.82787 0.0
H574 H 0.09319 0.33661 0.8265 0.0
H575 H 0.09171 0.38286 0.69617 0.0
C576 C 0.11063 0.42664 0.54401 0.0
C577 C 0.13772 0.40675 0.54448 0.0
C578 C 0.138 0.37953 0.61979 0.0
C579 C 0.16409 0.36085 0.61864 0.0
C580 C 0.16383 0.33385 0.69535 0.0
C581 C 0.13854 0.32544 0.77009 0.0
C582 C 0.11291 0.34342 0.76942 0.0
C583 C 0.11245 0.37007 0.69485 0.0
loop_
_geom_bond_atom_site_label_1
_geom_bond_atom_site_label_2
_geom_bond_distance
_geom_bond_site_symmetry_2
_ccdc_geom_bond_type
Mg0 O7 2.159 . S
Mg0 O8 2.048 . S
Mg0 O9 2.048 1_545 S
Mg0 O12 2.141 1_545 S
C1 O2 1.313 . S
C1 O8 1.195 . S
O2 C1 1.313 . S
C3 O4 1.245 . S
C3 O12 1.289 1_655 S
O4 C3 1.245 . S
C5 O6 1.245 . S
C5 O7 1.279 1_655 S
O6 C5 1.245 . S
O7 Mg0 2.159 . S
O7 C5 1.279 1_455 S
O8 Mg0 2.048 . S
O8 C1 1.195 . S
O9 Mg0 2.048 1_565 S
O9 C10 1.195 . S
C10 O9 1.195 . S
C10 O11 1.313 . S
O11 C10 1.313 . S
O12 Mg0 2.141 1_565 S
O12 C3 1.289 1_455 S
Mg13 O20 2.141 . S
Mg13 O21 2.048 . S
Mg13 O22 2.048 . S
Mg13 O25 2.141 . S
C14 O15 1.313 . S
C14 O21 1.195 . S
O15 C14 1.313 . S
C16 O17 1.245 1_556 S
C16 O25 1.289 . S
O17 C16 1.245 1_554 S
C18 O19 1.245 . S
C18 O20 1.289 . S
O19 C18 1.245 . S
O20 Mg13 2.141 . S
O20 C18 1.289 . S
O21 Mg13 2.048 . S
O21 C14 1.195 . S
O22 Mg13 2.048 . S
O22 C23 1.195 . S
C23 O22 1.195 . S
C23 O24 1.313 . S
O24 C23 1.313 . S
O25 Mg13 2.141 . S
O25 C16 1.289 . S
Mg26 O33 2.141 . S
Mg26 O34 2.048 . S
Mg26 O35 2.048 1_565 S
Mg26 O38 2.141 1_565 S
C27 O28 1.313 1_554 S
C27 O34 1.195 . S
O28 C27 1.313 1_556 S
C29 O30 1.245 . S
C29 O38 1.289 . S
O30 C29 1.245 . S
C31 O32 1.245 1_554 S
C31 O33 1.289 . S
O32 C31 1.245 1_556 S
O33 Mg26 2.141 . S
O33 C31 1.289 . S
O34 Mg26 2.048 . S
O34 C27 1.195 . S
O35 Mg26 2.048 1_545 S
O35 C36 1.195 . S
C36 O35 1.195 . S
C36 O37 1.313 . S
O37 C36 1.313 . S
O38 Mg26 2.141 1_545 S
O38 C29 1.289 . S
Mg39 O46 2.141 . S
Mg39 O47 2.048 . S
Mg39 O48 2.048 . S
Mg39 O51 2.141 . S
C40 O41 1.313 . S
C40 O47 1.195 . S
O41 C40 1.313 . S
C42 O43 1.245 . S
C42 O51 1.289 . S
O43 C42 1.245 . S
C44 O45 1.245 . S
C44 O46 1.289 . S
O45 C44 1.245 . S
O46 Mg39 2.141 . S
O46 C44 1.289 . S
O47 Mg39 2.048 . S
O47 C40 1.195 . S
O48 Mg39 2.048 . S
O48 C49 1.195 . S
C49 O48 1.195 . S
C49 O50 1.313 . S
O50 C49 1.313 . S
O51 Mg39 2.141 . S
O51 C42 1.289 . S
Mg52 O59 2.141 . S
Mg52 O60 2.048 . S
Mg52 O61 2.048 . S
Mg52 O64 2.141 . S
C53 O54 1.313 . S
C53 O60 1.195 . S
O54 C53 1.313 . S
C55 O56 1.245 . S
C55 O64 1.289 . S
O56 C55 1.245 . S
C57 O58 1.245 . S
C57 O59 1.289 . S
O58 C57 1.245 . S
O59 Mg52 2.141 . S
O59 C57 1.289 . S
O60 Mg52 2.048 . S
O60 C53 1.195 . S
O61 Mg52 2.048 . S
O61 C62 1.195 . S
C62 O61 1.195 . S
C62 O63 1.313 . S
O63 C62 1.313 . S
O64 Mg52 2.141 . S
O64 C55 1.289 . S
Mg65 O72 2.141 . S
Mg65 O73 2.048 . S
Mg65 O74 2.048 . S
Mg65 O77 2.141 . S
C66 O67 1.313 . S
C66 O73 1.195 . S
O67 C66 1.313 . S
C68 O69 1.245 . S
C68 O77 1.289 . S
O69 C68 1.245 . S
C70 O71 1.245 . S
C70 O72 1.289 . S
O71 C70 1.245 . S
O72 Mg65 2.141 . S
O72 C70 1.289 . S
O73 Mg65 2.048 . S
O73 C66 1.195 . S
O74 Mg65 2.048 . S
O74 C75 1.195 . S
C75 O74 1.195 . S
C75 O76 1.313 . S
O76 C75 1.313 . S
O77 Mg65 2.141 . S
O77 C68 1.289 . S
Mg78 O85 2.141 . S
Mg78 O86 2.048 . S
Mg78 O87 2.048 . S
Mg78 O90 2.141 . S
C79 O80 1.313 1_554 S
C79 O86 1.195 . S
O80 C79 1.313 1_556 S
C81 O82 1.245 . S
C81 O90 1.289 1_556 S
O82 C81 1.245 . S
C83 O84 1.245 1_554 S
C83 O85 1.289 . S
O84 C83 1.245 1_556 S
O85 Mg78 2.141 . S
O85 C83 1.289 . S
O86 Mg78 2.048 . S
O86 C79 1.195 . S
O87 Mg78 2.048 . S
O87 C88 1.195 1_554 S
C88 O87 1.195 1_556 S
C88 O89 1.313 . S
O89 C88 1.313 . S
O90 Mg78 2.141 . S
O90 C81 1.289 1_554 S
Mg91 O98 2.141 . S
Mg91 O99 2.048 . S
Mg91 O100 2.048 . S
Mg91 O103 2.141 . S
C92 O93 1.313 . S
C92 O99 1.195 1_655 S
O93 C92 1.313 . S
C94 O95 1.245 . S
C94 O103 1.289 . S
O95 C94 1.245 . S
C96 O97 1.245 . S
C96 O98 1.289 . S
O97 C96 1.245 . S
O98 Mg91 2.141 . S
O98 C96 1.289 . S
O99 Mg91 2.048 . S
O99 C92 1.195 1_455 S
O100 Mg91 2.048 . S
O100 C101 1.195 1_455 S
C101 O100 1.195 1_655 S
C101 O102 1.313 . S
O102 C101 1.313 . S
O103 Mg91 2.141 . S
O103 C94 1.289 . S
H104 C105 0.951 . S
C105 H104 0.951 . S
C105 C111 1.265 . S
H106 C111 0.950 . S
H107 C115 0.949 . S
H108 C116 0.950 . S
H109 C117 0.951 . S
H110 C118 0.951 . S
C111 C105 1.265 . S
C111 H106 0.950 . S
C111 C112 1.478 . S
C112 C111 1.478 . S
C112 C113 1.397 . S
C112 C129 1.394 . S
C113 C112 1.397 . S
C113 C114 1.438 . S
C113 C118 1.429 . S
C114 C113 1.438 . S
C114 C115 1.428 . S
C114 C127 1.394 . S
C115 H107 0.949 . S
C115 C114 1.428 . S
C115 C116 1.345 . S
C116 H108 0.950 . S
C116 C115 1.345 . S
C116 C117 1.424 . S
C117 H109 0.951 . S
C117 C116 1.424 . S
C117 C118 1.347 . S
C118 H110 0.951 . S
C118 C113 1.429 . S
C118 C117 1.347 . S
H119 C120 0.951 . S
C120 H119 0.951 . S
C120 C126 1.265 . S
H121 C126 0.950 . S
H122 C130 0.949 . S
H123 C131 0.950 . S
H124 C132 0.951 . S
H125 C133 0.951 . S
C126 C120 1.265 . S
C126 H121 0.950 . S
C126 C127 1.478 . S
C127 C114 1.394 . S
C127 C126 1.478 . S
C127 C128 1.397 . S
C128 C127 1.397 . S
C128 C129 1.438 . S
C128 C133 1.429 . S
C129 C112 1.394 . S
C129 C128 1.438 . S
C129 C130 1.428 . S
C130 H122 0.949 . S
C130 C129 1.428 . S
C130 C131 1.345 . S
C131 H123 0.950 . S
C131 C130 1.345 . S
C131 C132 1.424 . S
C132 H124 0.951 . S
C132 C131 1.424 . S
C132 C133 1.347 . S
C133 H125 0.951 . S
C133 C128 1.429 . S
C133 C132 1.347 . S
H134 C135 0.951 . S
C135 H134 0.951 . S
C135 C141 1.265 . S
H136 C141 0.950 . S
H137 C145 0.949 . S
H138 C146 0.950 . S
H139 C147 0.951 . S
H140 C148 0.951 . S
C141 C135 1.265 . S
C141 H136 0.950 . S
C141 C142 1.478 . S
C142 C141 1.478 . S
C142 C143 1.397 . S
C142 C159 1.394 . S
C143 C142 1.397 . S
C143 C144 1.438 . S
C143 C148 1.429 . S
C144 C143 1.438 . S
C144 C145 1.428 . S
C144 C157 1.394 . S
C145 H137 0.949 . S
C145 C144 1.428 . S
C145 C146 1.345 . S
C146 H138 0.950 . S
C146 C145 1.345 . S
C146 C147 1.424 . S
C147 H139 0.951 . S
C147 C146 1.424 . S
C147 C148 1.347 . S
C148 H140 0.951 . S
C148 C143 1.429 . S
C148 C147 1.347 . S
H149 C150 0.951 . S
C150 H149 0.951 . S
C150 C156 1.265 . S
H151 C156 0.950 . S
H152 C160 0.949 . S
H153 C161 0.950 . S
H154 C162 0.951 . S
H155 C163 0.951 . S
C156 C150 1.265 . S
C156 H151 0.950 . S
C156 C157 1.478 . S
C157 C144 1.394 . S
C157 C156 1.478 . S
C157 C158 1.397 . S
C158 C157 1.397 . S
C158 C159 1.438 . S
C158 C163 1.429 . S
C159 C142 1.394 . S
C159 C158 1.438 . S
C159 C160 1.428 . S
C160 H152 0.949 . S
C160 C159 1.428 . S
C160 C161 1.345 1_556 S
C161 H153 0.950 . S
C161 C160 1.345 1_554 S
C161 C162 1.424 . S
C162 H154 0.951 . S
C162 C161 1.424 . S
C162 C163 1.347 1_554 S
C163 H155 0.951 . S
C163 C158 1.429 . S
C163 C162 1.347 1_556 S
H164 C165 0.951 1_556 S
C165 H164 0.951 1_554 S
C165 C171 1.265 . S
H166 C171 0.950 . S
H167 C175 0.949 . S
H168 C176 0.950 . S
H169 C177 0.951 . S
H170 C178 0.951 . S
C171 C165 1.265 . S
C171 H166 0.950 . S
C171 C172 1.478 . S
C172 C171 1.478 . S
C172 C173 1.397 1_554 S
C172 C189 1.394 . S
C173 C172 1.397 1_556 S
C173 C174 1.438 . S
C173 C178 1.429 . S
C174 C173 1.438 . S
C174 C175 1.428 . S
C174 C187 1.394 . S
C175 H167 0.949 . S
C175 C174 1.428 . S
C175 C176 1.345 . S
C176 H168 0.950 . S
C176 C175 1.345 . S
C176 C177 1.424 . S
C177 H169 0.951 . S
C177 C176 1.424 . S
C177 C178 1.347 . S
C178 H170 0.951 . S
C178 C173 1.429 . S
C178 C177 1.347 . S
H179 C180 0.951 . S
C180 H179 0.951 . S
C180 C186 1.265 . S
H181 C186 0.950 . S
H182 C190 0.949 . S
H183 C191 0.950 . S
H184 C192 0.951 . S
H185 C193 0.951 . S
C186 C180 1.265 . S
C186 H181 0.950 . S
C186 C187 1.478 . S
C187 C174 1.394 . S
C187 C186 1.478 . S
C187 C188 1.397 1_556 S
C188 C187 1.397 1_554 S
C188 C189 1.438 . S
C188 C193 1.429 . S
C189 C172 1.394 . S
C189 C188 1.438 . S
C189 C190 1.428 . S
C190 H182 0.949 . S
C190 C189 1.428 . S
C190 C191 1.345 . S
C191 H183 0.950 . S
C191 C190 1.345 . S
C191 C192 1.424 . S
C192 H184 0.951 . S
C192 C191 1.424 . S
C192 C193 1.347 . S
C193 H185 0.951 . S
C193 C188 1.429 . S
C193 C192 1.347 . S
H194 C195 0.951 . S
C195 H194 0.951 . S
C195 C201 1.265 . S
H196 C201 0.950 . S
H197 C205 0.949 . S
H198 C206 0.950 . S
H199 C207 0.951 . S
H200 C208 0.951 . S
C201 C195 1.265 . S
C201 H196 0.950 . S
C201 C202 1.478 . S
C202 C201 1.478 . S
C202 C203 1.397 . S
C202 C219 1.394 . S
C203 C202 1.397 . S
C203 C204 1.438 . S
C203 C208 1.429 . S
C204 C203 1.438 . S
C204 C205 1.428 . S
C204 C217 1.394 . S
C205 H197 0.949 . S
C205 C204 1.428 . S
C205 C206 1.345 . S
C206 H198 0.950 . S
C206 C205 1.345 . S
C206 C207 1.424 . S
C207 H199 0.951 . S
C207 C206 1.424 . S
C207 C208 1.347 . S
C208 H200 0.951 . S
C208 C203 1.429 . S
C208 C207 1.347 . S
H209 C210 0.951 . S
C210 H209 0.951 . S
C210 C216 1.265 . S
H211 C216 0.950 . S
H212 C220 0.949 . S
H213 C221 0.950 . S
H214 C222 0.951 . S
H215 C223 0.951 . S
C216 C210 1.265 . S
C216 H211 0.950 . S
C216 C217 1.478 . S
C217 C204 1.394 . S
C217 C216 1.478 . S
C217 C218 1.397 . S
C218 C217 1.397 . S
C218 C219 1.438 . S
C218 C223 1.429 1_554 S
C219 C202 1.394 . S
C219 C218 1.438 . S
C219 C220 1.428 1_554 S
C220 H212 0.949 . S
C220 C219 1.428 1_556 S
C220 C221 1.345 . S
C221 H213 0.950 . S
C221 C220 1.345 . S
C221 C222 1.424 . S
C222 H214 0.951 . S
C222 C221 1.424 . S
C222 C223 1.347 . S
C223 H215 0.951 . S
C223 C218 1.429 1_556 S
C223 C222 1.347 . S
H224 C225 0.951 . S
C225 H224 0.951 . S
C225 C231 1.265 . S
H226 C231 0.950 . S
H227 C235 0.949 . S
H228 C236 0.950 . S
H229 C237 0.951 . S
H230 C238 0.951 . S
C231 C225 1.265 . S
C231 H226 0.950 . S
C231 C232 1.478 . S
C232 C231 1.478 . S
C232 C233 1.397 . S
C232 C249 1.394 . S
C233 C232 1.397 . S
C233 C234 1.438 . S
C233 C238 1.429 . S
C234 C233 1.438 . S
C234 C235 1.428 . S
C234 C247 1.394 . S
C235 H227 0.949 . S
C235 C234 1.428 . S
C235 C236 1.345 . S
C236 H228 0.950 . S
C236 C235 1.345 . S
C236 C237 1.424 . S
C237 H229 0.951 . S
C237 C236 1.424 . S
C237 C238 1.347 . S
C238 H230 0.951 . S
C238 C233 1.429 . S
C238 C237 1.347 . S
H239 C240 0.951 . S
C240 H239 0.951 . S
C240 C246 1.265 . S
H241 C246 0.950 . S
H242 C250 0.949 . S
H243 C251 0.950 . S
H244 C252 0.951 . S
H245 C253 0.951 . S
C246 C240 1.265 . S
C246 H241 0.950 . S
C246 C247 1.478 . S
C247 C234 1.394 . S
C247 C246 1.478 . S
C247 C248 1.397 . S
C248 C247 1.397 . S
C248 C249 1.438 . S
C248 C253 1.429 . S
C249 C232 1.394 . S
C249 C248 1.438 . S
C249 C250 1.428 . S
C250 H242 0.949 . S
C250 C249 1.428 . S
C250 C251 1.345 . S
C251 H243 0.950 . S
C251 C250 1.345 . S
C251 C252 1.424 . S
C252 H244 0.951 . S
C252 C251 1.424 . S
C252 C253 1.347 . S
C253 H245 0.951 . S
C253 C248 1.429 . S
C253 C252 1.347 . S
H254 C255 0.951 . S
C255 H254 0.951 . S
C255 C261 1.265 . S
H256 C261 0.950 . S
H257 C265 0.949 . S
H258 C266 0.950 . S
H259 C267 0.951 1_554 S
H260 C268 0.951 . S
C261 C255 1.265 . S
C261 H256 0.950 . S
C261 C262 1.478 . S
C262 C261 1.478 . S
C262 C263 1.397 . S
C262 C279 1.394 . S
C263 C262 1.397 . S
C263 C264 1.438 . S
C263 C268 1.429 . S
C264 C263 1.438 . S
C264 C265 1.428 . S
C264 C277 1.394 . S
C265 H257 0.949 . S
C265 C264 1.428 . S
C265 C266 1.345 . S
C266 H258 0.950 . S
C266 C265 1.345 . S
C266 C267 1.424 . S
C267 H259 0.951 1_556 S
C267 C266 1.424 . S
C267 C268 1.347 . S
C268 H260 0.951 . S
C268 C263 1.429 . S
C268 C267 1.347 . S
H269 C270 0.951 . S
C270 H269 0.951 . S
C270 C276 1.265 . S
H271 C276 0.950 . S
H272 C280 0.949 . S
H273 C281 0.950 . S
H274 C282 0.951 . S
H275 C283 0.951 . S
C276 C270 1.265 . S
C276 H271 0.950 . S
C276 C277 1.478 . S
C277 C264 1.394 . S
C277 C276 1.478 . S
C277 C278 1.397 . S
C278 C277 1.397 . S
C278 C279 1.438 . S
C278 C283 1.429 . S
C279 C262 1.394 . S
C279 C278 1.438 . S
C279 C280 1.428 . S
C280 H272 0.949 . S
C280 C279 1.428 . S
C280 C281 1.345 . S
C281 H273 0.950 . S
C281 C280 1.345 . S
C281 C282 1.424 . S
C282 H274 0.951 . S
C282 C281 1.424 . S
C282 C283 1.347 . S
C283 H275 0.951 . S
C283 C278 1.429 . S
C283 C282 1.347 . S
H284 C285 0.951 . S
C285 H284 0.951 . S
C285 C291 1.265 . S
H286 C291 0.950 . S
H287 C295 0.949 . S
H288 C296 0.950 . S
H289 C297 0.951 . S
H290 C298 0.951 . S
C291 C285 1.265 . S
C291 H286 0.950 . S
C291 C292 1.478 . S
C292 C291 1.478 . S
C292 C293 1.397 . S
C292 C309 1.394 . S
C293 C292 1.397 . S
C293 C294 1.438 . S
C293 C298 1.429 . S
C294 C293 1.438 . S
C294 C295 1.428 . S
C294 C307 1.394 . S
C295 H287 0.949 . S
C295 C294 1.428 . S
C295 C296 1.345 . S
C296 H288 0.950 . S
C296 C295 1.345 . S
C296 C297 1.424 . S
C297 H289 0.951 . S
C297 C296 1.424 . S
C297 C298 1.347 . S
C298 H290 0.951 . S
C298 C293 1.429 . S
C298 C297 1.347 . S
H299 C300 0.951 . S
C300 H299 0.951 . S
C300 C306 1.265 . S
H301 C306 0.950 . S
H302 C310 0.949 . S
H303 C311 0.950 . S
H304 C312 0.951 . S
H305 C313 0.951 1_556 S
C306 C300 1.265 . S
C306 H301 0.950 . S
C306 C307 1.478 . S
C307 C294 1.394 . S
C307 C306 1.478 . S
C307 C308 1.397 . S
C308 C307 1.397 . S
C308 C309 1.438 . S
C308 C313 1.429 . S
C309 C292 1.394 . S
C309 C308 1.438 . S
C309 C310 1.428 . S
C310 H302 0.949 . S
C310 C309 1.428 . S
C310 C311 1.345 1_554 S
C311 H303 0.950 . S
C311 C310 1.345 1_556 S
C311 C312 1.424 . S
C312 H304 0.951 . S
C312 C311 1.424 . S
C312 C313 1.347 1_556 S
C313 H305 0.951 1_554 S
C313 C308 1.429 . S
C313 C312 1.347 1_554 S
H314 C315 0.951 . S
C315 H314 0.951 . S
C315 C321 1.265 . S
H316 C321 0.950 . S
H317 C325 0.949 . S
H318 C326 0.950 . S
H319 C327 0.951 . S
H320 C328 0.951 . S
C321 C315 1.265 . S
C321 H316 0.950 . S
C321 C322 1.478 . S
C322 C321 1.478 . S
C322 C323 1.397 1_554 S
C322 C339 1.394 . S
C323 C322 1.397 1_556 S
C323 C324 1.438 . S
C323 C328 1.429 . S
C324 C323 1.438 . S
C324 C325 1.428 . S
C324 C337 1.394 . S
C325 H317 0.949 . S
C325 C324 1.428 . S
C325 C326 1.345 . S
C326 H318 0.950 . S
C326 C325 1.345 . S
C326 C327 1.424 . S
C327 H319 0.951 . S
C327 C326 1.424 . S
C327 C328 1.347 . S
C328 H320 0.951 . S
C328 C323 1.429 . S
C328 C327 1.347 . S
H329 C330 0.951 . S
C330 H329 0.951 . S
C330 C336 1.265 . S
H331 C336 0.950 . S
H332 C340 0.949 . S
H333 C341 0.950 . S
H334 C342 0.951 . S
H335 C343 0.951 . S
C336 C330 1.265 . S
C336 H331 0.950 . S
C336 C337 1.478 . S
C337 C324 1.394 . S
C337 C336 1.478 . S
C337 C338 1.397 1_556 S
C338 C337 1.397 1_554 S
C338 C339 1.438 . S
C338 C343 1.429 . S
C339 C322 1.394 . S
C339 C338 1.438 . S
C339 C340 1.428 . S
C340 H332 0.949 . S
C340 C339 1.428 . S
C340 C341 1.345 . S
C341 H333 0.950 . S
C341 C340 1.345 . S
C341 C342 1.424 . S
C342 H334 0.951 . S
C342 C341 1.424 . S
C342 C343 1.347 . S
C343 H335 0.951 . S
C343 C338 1.429 . S
C343 C342 1.347 . S
H344 C345 0.951 1_554 S
C345 H344 0.951 1_556 S
C345 C351 1.265 . S
H346 C351 0.950 . S
H347 C355 0.949 . S
H348 C356 0.950 . S
H349 C357 0.951 . S
H350 C358 0.951 . S
C351 C345 1.265 . S
C351 H346 0.950 . S
C351 C352 1.478 . S
C352 C351 1.478 . S
C352 C353 1.397 . S
C352 C369 1.394 . S
C353 C352 1.397 . S
C353 C354 1.438 . S
C353 C358 1.429 . S
C354 C353 1.438 . S
C354 C355 1.428 . S
C354 C367 1.394 . S
C355 H347 0.949 . S
C355 C354 1.428 . S
C355 C356 1.345 . S
C356 H348 0.950 . S
C356 C355 1.345 . S
C356 C357 1.424 . S
C357 H349 0.951 . S
C357 C356 1.424 . S
C357 C358 1.347 . S
C358 H350 0.951 . S
C358 C353 1.429 . S
C358 C357 1.347 . S
H359 C360 0.951 . S
C360 H359 0.951 . S
C360 C366 1.265 . S
H361 C366 0.950 1_554 S
H362 C370 0.949 . S
H363 C371 0.950 . S
H364 C372 0.951 . S
H365 C373 0.951 . S
C366 C360 1.265 . S
C366 H361 0.950 1_556 S
C366 C367 1.478 . S
C367 C354 1.394 . S
C367 C366 1.478 . S
C367 C368 1.397 . S
C368 C367 1.397 . S
C368 C369 1.438 . S
C368 C373 1.429 1_556 S
C369 C352 1.394 . S
C369 C368 1.438 . S
C369 C370 1.428 1_556 S
C370 H362 0.949 . S
C370 C369 1.428 1_554 S
C370 C371 1.345 . S
C371 H363 0.950 . S
C371 C370 1.345 . S
C371 C372 1.424 . S
C372 H364 0.951 . S
C372 C371 1.424 . S
C372 C373 1.347 . S
C373 H365 0.951 . S
C373 C368 1.429 1_554 S
C373 C372 1.347 . S
H374 C375 0.951 . S
C375 H374 0.951 . S
C375 C381 1.265 . S
H376 C381 0.950 . S
H377 C385 0.949 . S
H378 C386 0.950 . S
H379 C387 0.951 . S
H380 C388 0.951 . S
C381 C375 1.265 . S
C381 H376 0.950 . S
C381 C382 1.478 . S
C382 C381 1.478 . S
C382 C383 1.397 . S
C382 C399 1.394 . S
C383 C382 1.397 . S
C383 C384 1.438 . S
C383 C388 1.429 . S
C384 C383 1.438 . S
C384 C385 1.428 1_554 S
C384 C397 1.394 . S
C385 H377 0.949 . S
C385 C384 1.428 1_556 S
C385 C386 1.345 . S
C386 H378 0.950 . S
C386 C385 1.345 . S
C386 C387 1.424 . S
C387 H379 0.951 . S
C387 C386 1.424 . S
C387 C388 1.347 1_556 S
C388 H380 0.951 . S
C388 C383 1.429 . S
C388 C387 1.347 1_554 S
H389 C390 0.951 . S
C390 H389 0.951 . S
C390 C396 1.265 . S
H391 C396 0.950 . S
H392 C400 0.949 . S
H393 C401 0.950 . S
H394 C402 0.951 . S
H395 C403 0.951 . S
C396 C390 1.265 . S
C396 H391 0.950 . S
C396 C397 1.478 . S
C397 C384 1.394 . S
C397 C396 1.478 . S
C397 C398 1.397 . S
C398 C397 1.397 . S
C398 C399 1.438 . S
C398 C403 1.429 . S
C399 C382 1.394 . S
C399 C398 1.438 . S
C399 C400 1.428 . S
C400 H392 0.949 . S
C400 C399 1.428 . S
C400 C401 1.345 . S
C401 H393 0.950 . S
C401 C400 1.345 . S
C401 C402 1.424 . S
C402 H394 0.951 . S
C402 C401 1.424 . S
C402 C403 1.347 . S
C403 H395 0.951 . S
C403 C398 1.429 . S
C403 C402 1.347 . S
H404 C405 0.951 . S
C405 H404 0.951 . S
C405 C411 1.265 . S
H406 C411 0.950 . S
H407 C415 0.949 . S
H408 C416 0.950 . S
H409 C417 0.951 . S
H410 C418 0.951 . S
C411 C405 1.265 . S
C411 H406 0.950 . S
C411 C412 1.478 . S
C412 C411 1.478 . S
C412 C413 1.397 . S
C412 C429 1.394 . S
C413 C412 1.397 . S
C413 C414 1.438 . S
C413 C418 1.429 . S
C414 C413 1.438 . S
C414 C415 1.428 . S
C414 C427 1.394 . S
C415 H407 0.949 . S
C415 C414 1.428 . S
C415 C416 1.345 . S
C416 H408 0.950 . S
C416 C415 1.345 . S
C416 C417 1.424 . S
C417 H409 0.951 . S
C417 C416 1.424 . S
C417 C418 1.347 . S
C418 H410 0.951 . S
C418 C413 1.429 . S
C418 C417 1.347 . S
H419 C420 0.951 . S
C420 H419 0.951 . S
C420 C426 1.265 . S
H421 C426 0.950 . S
H422 C430 0.949 . S
H423 C431 0.950 . S
H424 C432 0.951 . S
H425 C433 0.951 . S
C426 C420 1.265 . S
C426 H421 0.950 . S
C426 C427 1.478 . S
C427 C414 1.394 . S
C427 C426 1.478 . S
C427 C428 1.397 . S
C428 C427 1.397 . S
C428 C429 1.438 . S
C428 C433 1.429 . S
C429 C412 1.394 . S
C429 C428 1.438 . S
C429 C430 1.428 . S
C430 H422 0.949 . S
C430 C429 1.428 . S
C430 C431 1.345 . S
C431 H423 0.950 . S
C431 C430 1.345 . S
C431 C432 1.424 . S
C432 H424 0.951 . S
C432 C431 1.424 . S
C432 C433 1.347 . S
C433 H425 0.951 . S
C433 C428 1.429 . S
C433 C432 1.347 . S
H434 C435 0.951 . S
C435 H434 0.951 . S
C435 C441 1.265 . S
H436 C441 0.950 . S
H437 C445 0.949 . S
H438 C446 0.950 1_554 S
H439 C447 0.951 1_554 S
H440 C448 0.951 . S
C441 C435 1.265 . S
C441 H436 0.950 . S
C441 C442 1.478 . S
C442 C441 1.478 . S
C442 C443 1.397 . S
C442 C459 1.394 . S
C443 C442 1.397 . S
C443 C444 1.438 . S
C443 C448 1.429 . S
C444 C443 1.438 . S
C444 C445 1.428 . S
C444 C457 1.394 . S
C445 H437 0.949 . S
C445 C444 1.428 . S
C445 C446 1.345 . S
C446 H438 0.950 1_556 S
C446 C445 1.345 . S
C446 C447 1.424 . S
C447 H439 0.951 1_556 S
C447 C446 1.424 . S
C447 C448 1.347 . S
C448 H440 0.951 . S
C448 C443 1.429 . S
C448 C447 1.347 . S
H449 C450 0.951 . S
C450 H449 0.951 . S
C450 C456 1.265 . S
H451 C456 0.950 . S
H452 C460 0.949 . S
H453 C461 0.950 . S
H454 C462 0.951 . S
H455 C463 0.951 . S
C456 C450 1.265 . S
C456 H451 0.950 . S
C456 C457 1.478 . S
C457 C444 1.394 . S
C457 C456 1.478 . S
C457 C458 1.397 . S
C458 C457 1.397 . S
C458 C459 1.438 . S
C458 C463 1.429 . S
C459 C442 1.394 . S
C459 C458 1.438 . S
C459 C460 1.428 . S
C460 H452 0.949 . S
C460 C459 1.428 . S
C460 C461 1.345 . S
C461 H453 0.950 . S
C461 C460 1.345 . S
C461 C462 1.424 . S
C462 H454 0.951 . S
C462 C461 1.424 . S
C462 C463 1.347 . S
C463 H455 0.951 . S
C463 C458 1.429 . S
C463 C462 1.347 . S
H464 C465 0.951 . S
C465 H464 0.951 . S
C465 C471 1.265 . S
H466 C471 0.950 . S
H467 C475 0.949 . S
H468 C476 0.950 . S
H469 C477 0.951 . S
H470 C478 0.951 . S
C471 C465 1.265 . S
C471 H466 0.950 . S
C471 C472 1.478 . S
C472 C471 1.478 . S
C472 C473 1.397 1_554 S
C472 C489 1.394 . S
C473 C472 1.397 1_556 S
C473 C474 1.438 . S
C473 C478 1.429 . S
C474 C473 1.438 . S
C474 C475 1.428 . S
C474 C487 1.394 1_556 S
C475 H467 0.949 . S
C475 C474 1.428 . S
C475 C476 1.345 . S
C476 H468 0.950 . S
C476 C475 1.345 . S
C476 C477 1.424 . S
C477 H469 0.951 . S
C477 C476 1.424 . S
C477 C478 1.347 . S
C478 H470 0.951 . S
C478 C473 1.429 . S
C478 C477 1.347 . S
H479 C480 0.951 . S
C480 H479 0.951 . S
C480 C486 1.265 . S
H481 C486 0.950 . S
H482 C490 0.949 . S
H483 C491 0.950 . S
H484 C492 0.951 . S
H485 C493 0.951 . S
C486 C480 1.265 . S
C486 H481 0.950 . S
C486 C487 1.478 . S
C487 C474 1.394 1_554 S
C487 C486 1.478 . S
C487 C488 1.397 . S
C488 C487 1.397 . S
C488 C489 1.438 . S
C488 C493 1.429 . S
C489 C472 1.394 . S
C489 C488 1.438 . S
C489 C490 1.428 . S
C490 H482 0.949 . S
C490 C489 1.428 . S
C490 C491 1.345 . S
C491 H483 0.950 . S
C491 C490 1.345 . S
C491 C492 1.424 . S
C492 H484 0.951 . S
C492 C491 1.424 . S
C492 C493 1.347 . S
C493 H485 0.951 . S
C493 C488 1.429 . S
C493 C492 1.347 . S
H494 C495 0.951 . S
C495 H494 0.951 . S
C495 C501 1.265 . S
H496 C501 0.950 . S
H497 C505 0.949 . S
H498 C506 0.950 . S
H499 C507 0.951 . S
H500 C508 0.951 . S
C501 C495 1.265 . S
C501 H496 0.950 . S
C501 C502 1.478 . S
C502 C501 1.478 . S
C502 C503 1.397 1_556 S
C502 C519 1.394 . S
C503 C502 1.397 1_554 S
C503 C504 1.438 . S
C503 C508 1.429 . S
C504 C503 1.438 . S
C504 C505 1.428 . S
C504 C517 1.394 1_554 S
C505 H497 0.949 . S
C505 C504 1.428 . S
C505 C506 1.345 . S
C506 H498 0.950 . S
C506 C505 1.345 . S
C506 C507 1.424 . S
C507 H499 0.951 . S
C507 C506 1.424 . S
C507 C508 1.347 . S
C508 H500 0.951 . S
C508 C503 1.429 . S
C508 C507 1.347 . S
H509 C510 0.951 . S
C510 H509 0.951 . S
C510 C516 1.265 . S
H511 C516 0.950 . S
H512 C520 0.949 . S
H513 C521 0.950 . S
H514 C522 0.951 . S
H515 C523 0.951 . S
C516 C510 1.265 . S
C516 H511 0.950 . S
C516 C517 1.478 . S
C517 C504 1.394 1_556 S
C517 C516 1.478 . S
C517 C518 1.397 . S
C518 C517 1.397 . S
C518 C519 1.438 . S
C518 C523 1.429 . S
C519 C502 1.394 . S
C519 C518 1.438 . S
C519 C520 1.428 . S
C520 H512 0.949 . S
C520 C519 1.428 . S
C520 C521 1.345 . S
C521 H513 0.950 . S
C521 C520 1.345 . S
C521 C522 1.424 . S
C522 H514 0.951 . S
C522 C521 1.424 . S
C522 C523 1.347 . S
C523 H515 0.951 . S
C523 C518 1.429 . S
C523 C522 1.347 . S
H524 C525 0.951 . S
C525 H524 0.951 . S
C525 C531 1.265 . S
H526 C531 0.950 . S
H527 C535 0.949 . S
H528 C536 0.950 . S
H529 C537 0.951 1_554 S
H530 C538 0.951 . S
C531 C525 1.265 . S
C531 H526 0.950 . S
C531 C532 1.478 . S
C532 C531 1.478 . S
C532 C533 1.397 . S
C532 C549 1.394 . S
C533 C532 1.397 . S
C533 C534 1.438 . S
C533 C538 1.429 . S
C534 C533 1.438 . S
C534 C535 1.428 . S
C534 C547 1.394 . S
C535 H527 0.949 . S
C535 C534 1.428 . S
C535 C536 1.345 . S
C536 H528 0.950 . S
C536 C535 1.345 . S
C536 C537 1.424 . S
C537 H529 0.951 1_556 S
C537 C536 1.424 . S
C537 C538 1.347 . S
C538 H530 0.951 . S
C538 C533 1.429 . S
C538 C537 1.347 . S
H539 C540 0.951 . S
C540 H539 0.951 . S
C540 C546 1.265 . S
H541 C546 0.950 . S
H542 C550 0.949 . S
H543 C551 0.950 . S
H544 C552 0.951 . S
H545 C553 0.951 . S
C546 C540 1.265 . S
C546 H541 0.950 . S
C546 C547 1.478 . S
C547 C534 1.394 . S
C547 C546 1.478 . S
C547 C548 1.397 . S
C548 C547 1.397 . S
C548 C549 1.438 . S
C548 C553 1.429 . S
C549 C532 1.394 . S
C549 C548 1.438 . S
C549 C550 1.428 . S
C550 H542 0.949 . S
C550 C549 1.428 . S
C550 C551 1.345 . S
C551 H543 0.950 . S
C551 C550 1.345 . S
C551 C552 1.424 . S
C552 H544 0.951 . S
C552 C551 1.424 . S
C552 C553 1.347 . S
C553 H545 0.951 . S
C553 C548 1.429 . S
C553 C552 1.347 . S
H554 C555 0.951 . S
C555 H554 0.951 . S
C555 C561 1.265 . S
H556 C561 0.950 . S
H557 C565 0.949 . S
H558 C566 0.950 . S
H559 C567 0.951 1_556 S
H560 C568 0.951 . S
C561 C555 1.265 . S
C561 H556 0.950 . S
C561 C562 1.478 . S
C562 C561 1.478 . S
C562 C563 1.397 . S
C562 C579 1.394 . S
C563 C562 1.397 . S
C563 C564 1.438 . S
C563 C568 1.429 . S
C564 C563 1.438 . S
C564 C565 1.428 . S
C564 C577 1.394 . S
C565 H557 0.949 . S
C565 C564 1.428 . S
C565 C566 1.345 . S
C566 H558 0.950 . S
C566 C565 1.345 . S
C566 C567 1.424 . S
C567 H559 0.951 1_554 S
C567 C566 1.424 . S
C567 C568 1.347 . S
C568 H560 0.951 . S
C568 C563 1.429 . S
C568 C567 1.347 . S
H569 C570 0.951 . S
C570 H569 0.951 . S
C570 C576 1.265 . S
H571 C576 0.950 . S
H572 C580 0.949 . S
H573 C581 0.950 . S
H574 C582 0.951 . S
H575 C583 0.951 . S
C576 C570 1.265 . S
C576 H571 0.950 . S
C576 C577 1.478 . S
C577 C564 1.394 . S
C577 C576 1.478 . S
C577 C578 1.397 . S
C578 C577 1.397 . S
C578 C579 1.438 . S
C578 C583 1.429 . S
C579 C562 1.394 . S
C579 C578 1.438 . S
C579 C580 1.428 . S
C580 H572 0.949 . S
C580 C579 1.428 . S
C580 C581 1.345 . S
C581 H573 0.950 . S
C581 C580 1.345 . S
C581 C582 1.424 . S
C582 H574 0.951 . S
C582 C581 1.424 . S
C582 C583 1.347 . S
C583 H575 0.951 . S
C583 C578 1.429 . S
C583 C582 1.347 . S
C105 C1 1.573 . S
C120 C40 1.581 . S
C135 C10 1.469 . S
C150 C18 1.465 . S
C165 C27 1.454 . S
C180 C16 1.435 . S
C195 C49 1.534 . S
C210 C36 1.534 . S
C225 C3 1.513 . S
C240 C66 1.516 . S
C255 C5 1.441 . S
C270 C57 1.433 . S
C285 C55 1.477 . S
C300 C29 1.475 . S
C315 C31 1.501 . S
C330 C75 1.527 . S
C345 C81 1.438 . S
C360 C68 1.435 . S
C375 C62 1.516 . S
C390 C83 1.508 . S
C405 C53 1.555 . S
C420 C92 1.540 . S
C435 C70 1.447 . S
C450 C101 1.459 . S
C465 C79 1.504 . S
C480 C42 1.490 . S
C495 C23 1.552 . S
C510 C88 1.569 . S
C525 C14 1.523 . S
C540 C94 1.520 . S
C555 C44 1.462 . S
C570 C96 1.455 . S
