# Generated by pormake.
# Topology uoh, (4)-cn, num edge types: 1
# Building blocks:
#     Node 0, Type 0, BuildingBlock: AZAVOO_clean_sbu_0, # of connection points: 4
#     Node 1, Type 0, BuildingBlock: AZAVOO_clean_sbu_0, # of connection points: 4
#     Node 2, Type 0, BuildingBlock: AZAVOO_clean_sbu_0, # of connection points: 4
#     Node 3, Type 0, BuildingBlock: AZAVOO_clean_sbu_0, # of connection points: 4
#     Node 4, Type 0, BuildingBlock: AZAVOO_clean_sbu_0, # of connection points: 4
#     Node 5, Type 0, BuildingBlock: AZAVOO_clean_sbu_0, # of connection points: 4
#     Node 6, Type 0, BuildingBlock: AZAVOO_clean_sbu_0, # of connection points: 4
#     Node 7, Type 0, BuildingBlock: AZAVOO_clean_sbu_0, # of connection points: 4
#     Node 8, Type 0, BuildingBlock: AZAVOO_clean_sbu_0, # of connection points: 4
#     Node 9, Type 0, BuildingBlock: AZAVOO_clean_sbu_0, # of connection points: 4
#     Node 10, Type 0, BuildingBlock: AZAVOO_clean_sbu_0, # of connection points: 4
#     Node 11, Type 0, BuildingBlock: AZAVOO_clean_sbu_0, # of connection points: 4
#     Node 12, Type 0, BuildingBlock: AZAVOO_clean_sbu_0, # of connection points: 4
#     Node 13, Type 0, BuildingBlock: AZAVOO_clean_sbu_0, # of connection points: 4
#     Node 14, Type 0, BuildingBlock: AZAVOO_clean_sbu_0, # of connection points: 4
#     Node 15, Type 0, BuildingBlock: AZAVOO_clean_sbu_0, # of connection points: 4
#     Node 16, Type 0, BuildingBlock: AZAVOO_clean_sbu_0, # of connection points: 4
#     Node 17, Type 0, BuildingBlock: AZAVOO_clean_sbu_0, # of connection points: 4
#     Node 18, Type 0, BuildingBlock: AZAVOO_clean_sbu_0, # of connection points: 4
#     Node 19, Type 0, BuildingBlock: AZAVOO_clean_sbu_0, # of connection points: 4
#     Node 20, Type 0, BuildingBlock: AZAVOO_clean_sbu_0, # of connection points: 4
#     Node 21, Type 0, BuildingBlock: AZAVOO_clean_sbu_0, # of connection points: 4
#     Node 22, Type 0, BuildingBlock: AZAVOO_clean_sbu_0, # of connection points: 4
#     Node 23, Type 0, BuildingBlock: AZAVOO_clean_sbu_0, # of connection points: 4
#     Node 24, Type 0, BuildingBlock: AZAVOO_clean_sbu_0, # of connection points: 4
#     Node 25, Type 0, BuildingBlock: AZAVOO_clean_sbu_0, # of connection points: 4
#     Node 26, Type 0, BuildingBlock: AZAVOO_clean_sbu_0, # of connection points: 4
#     Node 27, Type 0, BuildingBlock: AZAVOO_clean_sbu_0, # of connection points: 4
#     Node 28, Type 0, BuildingBlock: AZAVOO_clean_sbu_0, # of connection points: 4
#     Node 29, Type 0, BuildingBlock: AZAVOO_clean_sbu_0, # of connection points: 4
#     Node 30, Type 0, BuildingBlock: AZAVOO_clean_sbu_0, # of connection points: 4
#     Node 31, Type 0, BuildingBlock: AZAVOO_clean_sbu_0, # of connection points: 4
#     Node 32, Type 0, BuildingBlock: AZAVOO_clean_sbu_0, # of connection points: 4
#     Node 33, Type 0, BuildingBlock: AZAVOO_clean_sbu_0, # of connection points: 4
#     Node 34, Type 0, BuildingBlock: AZAVOO_clean_sbu_0, # of connection points: 4
#     Node 35, Type 0, BuildingBlock: AZAVOO_clean_sbu_0, # of connection points: 4
#     Edge 36, Type (0, 0), BuildingBlock: UVAHIK_clean_linker_0, # of connection points: 2
#     Edge 37, Type (0, 0), BuildingBlock: UVAHIK_clean_linker_0, # of connection points: 2
#     Edge 38, Type (0, 0), BuildingBlock: UVAHIK_clean_linker_0, # of connection points: 2
#     Edge 39, Type (0, 0), BuildingBlock: UVAHIK_clean_linker_0, # of connection points: 2
#     Edge 40, Type (0, 0), BuildingBlock: UVAHIK_clean_linker_0, # of connection points: 2
#     Edge 41, Type (0, 0), BuildingBlock: UVAHIK_clean_linker_0, # of connection points: 2
#     Edge 42, Type (0, 0), BuildingBlock: UVAHIK_clean_linker_0, # of connection points: 2
#     Edge 43, Type (0, 0), BuildingBlock: UVAHIK_clean_linker_0, # of connection points: 2
#     Edge 44, Type (0, 0), BuildingBlock: UVAHIK_clean_linker_0, # of connection points: 2
#     Edge 45, Type (0, 0), BuildingBlock: UVAHIK_clean_linker_0, # of connection points: 2
#     Edge 46, Type (0, 0), BuildingBlock: UVAHIK_clean_linker_0, # of connection points: 2
#     Edge 47, Type (0, 0), BuildingBlock: UVAHIK_clean_linker_0, # of connection points: 2
#     Edge 48, Type (0, 0), BuildingBlock: UVAHIK_clean_linker_0, # of connection points: 2
#     Edge 49, Type (0, 0), BuildingBlock: UVAHIK_clean_linker_0, # of connection points: 2
#     Edge 50, Type (0, 0), BuildingBlock: UVAHIK_clean_linker_0, # of connection points: 2
#     Edge 51, Type (0, 0), BuildingBlock: UVAHIK_clean_linker_0, # of connection points: 2
#     Edge 52, Type (0, 0), BuildingBlock: UVAHIK_clean_linker_0, # of connection points: 2
#     Edge 53, Type (0, 0), BuildingBlock: UVAHIK_clean_linker_0, # of connection points: 2
#     Edge 54, Type (0, 0), BuildingBlock: UVAHIK_clean_linker_0, # of connection points: 2
#     Edge 55, Type (0, 0), BuildingBlock: UVAHIK_clean_linker_0, # of connection points: 2
#     Edge 56, Type (0, 0), BuildingBlock: UVAHIK_clean_linker_0, # of connection points: 2
#     Edge 57, Type (0, 0), BuildingBlock: UVAHIK_clean_linker_0, # of connection points: 2
#     Edge 58, Type (0, 0), BuildingBlock: UVAHIK_clean_linker_0, # of connection points: 2
#     Edge 59, Type (0, 0), BuildingBlock: UVAHIK_clean_linker_0, # of connection points: 2
#     Edge 60, Type (0, 0), BuildingBlock: UVAHIK_clean_linker_0, # of connection points: 2
#     Edge 61, Type (0, 0), BuildingBlock: UVAHIK_clean_linker_0, # of connection points: 2
#     Edge 62, Type (0, 0), BuildingBlock: UVAHIK_clean_linker_0, # of connection points: 2
#     Edge 63, Type (0, 0), BuildingBlock: UVAHIK_clean_linker_0, # of connection points: 2
#     Edge 64, Type (0, 0), BuildingBlock: UVAHIK_clean_linker_0, # of connection points: 2
#     Edge 65, Type (0, 0), BuildingBlock: UVAHIK_clean_linker_0, # of connection points: 2
#     Edge 66, Type (0, 0), BuildingBlock: UVAHIK_clean_linker_0, # of connection points: 2
#     Edge 67, Type (0, 0), BuildingBlock: UVAHIK_clean_linker_0, # of connection points: 2
#     Edge 68, Type (0, 0), BuildingBlock: UVAHIK_clean_linker_0, # of connection points: 2
#     Edge 69, Type (0, 0), BuildingBlock: UVAHIK_clean_linker_0, # of connection points: 2
#     Edge 70, Type (0, 0), BuildingBlock: UVAHIK_clean_linker_0, # of connection points: 2
#     Edge 71, Type (0, 0), BuildingBlock: UVAHIK_clean_linker_0, # of connection points: 2
#     Edge 72, Type (0, 0), BuildingBlock: UVAHIK_clean_linker_0, # of connection points: 2
#     Edge 73, Type (0, 0), BuildingBlock: UVAHIK_clean_linker_0, # of connection points: 2
#     Edge 74, Type (0, 0), BuildingBlock: UVAHIK_clean_linker_0, # of connection points: 2
#     Edge 75, Type (0, 0), BuildingBlock: UVAHIK_clean_linker_0, # of connection points: 2
#     Edge 76, Type (0, 0), BuildingBlock: UVAHIK_clean_linker_0, # of connection points: 2
#     Edge 77, Type (0, 0), BuildingBlock: UVAHIK_clean_linker_0, # of connection points: 2
#     Edge 78, Type (0, 0), BuildingBlock: UVAHIK_clean_linker_0, # of connection points: 2
#     Edge 79, Type (0, 0), BuildingBlock: UVAHIK_clean_linker_0, # of connection points: 2
#     Edge 80, Type (0, 0), BuildingBlock: UVAHIK_clean_linker_0, # of connection points: 2
#     Edge 81, Type (0, 0), BuildingBlock: UVAHIK_clean_linker_0, # of connection points: 2
#     Edge 82, Type (0, 0), BuildingBlock: UVAHIK_clean_linker_0, # of connection points: 2
#     Edge 83, Type (0, 0), BuildingBlock: UVAHIK_clean_linker_0, # of connection points: 2
#     Edge 84, Type (0, 0), BuildingBlock: UVAHIK_clean_linker_0, # of connection points: 2
#     Edge 85, Type (0, 0), BuildingBlock: UVAHIK_clean_linker_0, # of connection points: 2
#     Edge 86, Type (0, 0), BuildingBlock: UVAHIK_clean_linker_0, # of connection points: 2
#     Edge 87, Type (0, 0), BuildingBlock: UVAHIK_clean_linker_0, # of connection points: 2
#     Edge 88, Type (0, 0), BuildingBlock: UVAHIK_clean_linker_0, # of connection points: 2
#     Edge 89, Type (0, 0), BuildingBlock: UVAHIK_clean_linker_0, # of connection points: 2
#     Edge 90, Type (0, 0), BuildingBlock: UVAHIK_clean_linker_0, # of connection points: 2
#     Edge 91, Type (0, 0), BuildingBlock: UVAHIK_clean_linker_0, # of connection points: 2
#     Edge 92, Type (0, 0), BuildingBlock: UVAHIK_clean_linker_0, # of connection points: 2
#     Edge 93, Type (0, 0), BuildingBlock: UVAHIK_clean_linker_0, # of connection points: 2
#     Edge 94, Type (0, 0), BuildingBlock: UVAHIK_clean_linker_0, # of connection points: 2
#     Edge 95, Type (0, 0), BuildingBlock: UVAHIK_clean_linker_0, # of connection points: 2
#     Edge 96, Type (0, 0), BuildingBlock: UVAHIK_clean_linker_0, # of connection points: 2
#     Edge 97, Type (0, 0), BuildingBlock: UVAHIK_clean_linker_0, # of connection points: 2
#     Edge 98, Type (0, 0), BuildingBlock: UVAHIK_clean_linker_0, # of connection points: 2
#     Edge 99, Type (0, 0), BuildingBlock: UVAHIK_clean_linker_0, # of connection points: 2
#     Edge 100, Type (0, 0), BuildingBlock: UVAHIK_clean_linker_0, # of connection points: 2
#     Edge 101, Type (0, 0), BuildingBlock: UVAHIK_clean_linker_0, # of connection points: 2
#     Edge 102, Type (0, 0), BuildingBlock: UVAHIK_clean_linker_0, # of connection points: 2
#     Edge 103, Type (0, 0), BuildingBlock: UVAHIK_clean_linker_0, # of connection points: 2
#     Edge 104, Type (0, 0), BuildingBlock: UVAHIK_clean_linker_0, # of connection points: 2
#     Edge 105, Type (0, 0), BuildingBlock: UVAHIK_clean_linker_0, # of connection points: 2
#     Edge 106, Type (0, 0), BuildingBlock: UVAHIK_clean_linker_0, # of connection points: 2
#     Edge 107, Type (0, 0), BuildingBlock: UVAHIK_clean_linker_0, # of connection points: 2
# Relax obj value: 0.294
# Max RMSD: 0.301
# Mean RMSD: 0.301
data_MOF--net-uoh--node1-AZAVOO_clean_sbu_0--edge1-UVAHIK_clean_linker_0
_symmetry_space_group_name_H-M    P1
_symmetry_Int_Tables_number       1
_symmetry_cell_setting            triclinic
loop_
_symmetry_equiv_pos_as_xyz
'x, y, z'
_cell_length_a     110.08594
_cell_length_b     110.02867
_cell_length_c     34.843203
_cell_angle_alpha  89.989732
_cell_angle_beta   90.009917
_cell_angle_gamma 120.05417
loop_
_atom_site_label
_atom_site_type_symbol
_atom_site_fract_x
_atom_site_fract_y
_atom_site_fract_z
_atom_type_partial_charge
Mg0 Mg 0.24781 0.16995 0.26444 0.0
O1 O 0.26931 0.17217 0.25726 0.0
O2 O 0.28312 0.18277 0.30746 0.0
Mg3 Mg 0.26956 0.18741 0.3484 0.0
C4 C 0.28099 0.17693 0.2746 0.0
C5 C 0.2456 0.15381 0.19226 0.0
O6 O 0.2489 0.14768 0.21936 0.0
O7 O 0.25711 0.19309 0.25203 0.0
O8 O 0.26932 0.20334 0.30524 0.0
O9 O 0.24008 0.14957 0.29348 0.0
O10 O 0.24989 0.16995 0.32399 0.0
C11 C 0.26473 0.20404 0.27205 0.0
C12 C 0.24469 0.15652 0.32518 0.0
O13 O 0.24391 0.16408 0.2012 0.0
Mg14 Mg 0.82743 0.08538 0.26678 0.0
O15 O 0.82419 0.10385 0.25442 0.0
O16 O 0.8129 0.10731 0.30236 0.0
Mg17 Mg 0.80899 0.09037 0.34711 0.0
C18 C 0.8188 0.11059 0.2695 0.0
C19 C 0.84352 0.09816 0.19402 0.0
O20 O 0.84919 0.10818 0.21985 0.0
O21 O 0.80449 0.07041 0.25445 0.0
O22 O 0.79372 0.07288 0.30577 0.0
O23 O 0.84753 0.09944 0.29583 0.0
O24 O 0.82703 0.08862 0.32563 0.0
C25 C 0.79338 0.06701 0.27378 0.0
C26 C 0.84035 0.09736 0.32697 0.0
O27 O 0.83359 0.08617 0.20414 0.0
Mg28 Mg 0.92406 0.7835 0.26822 0.0
O29 O 0.90796 0.76078 0.25532 0.0
O30 O 0.90745 0.74623 0.30038 0.0
Mg31 Mg 0.9242 0.76059 0.34421 0.0
C32 C 0.90297 0.74846 0.26891 0.0
C33 C 0.90807 0.78411 0.19881 0.0
O34 O 0.89914 0.78053 0.22738 0.0
O35 O 0.94182 0.77967 0.25166 0.0
O36 O 0.94225 0.76684 0.30085 0.0
O37 O 0.90802 0.78559 0.30171 0.0
O38 O 0.92219 0.77894 0.32695 0.0
C39 C 0.94728 0.7734 0.2693 0.0
C40 C 0.91167 0.78091 0.33097 0.0
O41 O 0.92073 0.78765 0.20621 0.0
Mg42 Mg 0.16273 0.25183 0.21772 0.0
O43 O 0.16398 0.27268 0.231 0.0
O44 O 0.17333 0.28725 0.18135 0.0
Mg45 Mg 0.17738 0.27492 0.13474 0.0
C46 C 0.16817 0.28457 0.21516 0.0
C47 C 0.14863 0.23681 0.29534 0.0
O48 O 0.1389 0.22784 0.27197 0.0
O49 O 0.1862 0.2619 0.22441 0.0
O50 O 0.19491 0.27483 0.17139 0.0
O51 O 0.14139 0.24364 0.19344 0.0
O52 O 0.16096 0.25467 0.15942 0.0
C53 C 0.19656 0.26995 0.20307 0.0
C54 C 0.14748 0.2489 0.16093 0.0
O55 O 0.15962 0.24713 0.28142 0.0
Mg56 Mg 0.74603 0.91289 0.2358 0.0
O57 O 0.72413 0.89458 0.2485 0.0
O58 O 0.71012 0.88967 0.19775 0.0
Mg59 Mg 0.72366 0.90542 0.15118 0.0
C60 C 0.71224 0.88734 0.23229 0.0
C61 C 0.74747 0.90319 0.31742 0.0
O62 O 0.74145 0.89132 0.29824 0.0
O63 O 0.73759 0.92781 0.24065 0.0
O64 O 0.72494 0.92373 0.18706 0.0
O65 O 0.75282 0.8984 0.21328 0.0
O66 O 0.74311 0.90791 0.17765 0.0
C67 C 0.72999 0.93046 0.21839 0.0
C68 C 0.7481 0.89954 0.18021 0.0
O69 O 0.75114 0.91462 0.29971 0.0
Mg70 Mg 0.11583 0.8643 0.13185 0.0
O71 O 0.12978 0.86062 0.17295 0.0
O72 O 0.12828 0.84022 0.15706 0.0
Mg73 Mg 0.11482 0.83186 0.1027 0.0
C74 C 0.13293 0.85106 0.17851 0.0
C75 C 0.11927 0.88581 0.20438 0.0
O76 O 0.11909 0.89724 0.21421 0.0
O77 O 0.09607 0.84688 0.1598 0.0
O78 O 0.09515 0.82741 0.13718 0.0
O79 O 0.13381 0.87601 0.09165 0.0
O80 O 0.11914 0.85317 0.08909 0.0
C81 C 0.08989 0.83354 0.15654 0.0
C82 C 0.12998 0.86405 0.07536 0.0
O83 O 0.11615 0.88146 0.16996 0.0
Mg84 Mg 0.7618 0.84443 0.73536 0.0
O85 O 0.74026 0.84207 0.7428 0.0
O86 O 0.72762 0.83421 0.68923 0.0
Mg87 Mg 0.74189 0.83137 0.64636 0.0
C88 C 0.729 0.83833 0.72403 0.0
C89 C 0.77266 0.85746 0.81696 0.0
O90 O 0.78179 0.86815 0.79631 0.0
O91 O 0.75219 0.82085 0.73865 0.0
O92 O 0.74062 0.81326 0.68313 0.0
O93 O 0.76965 0.86614 0.71389 0.0
O94 O 0.76106 0.84727 0.67671 0.0
C95 C 0.74461 0.81094 0.71542 0.0
C96 C 0.76584 0.86057 0.68011 0.0
O97 O 0.76381 0.84625 0.80014 0.0
Mg98 Mg 0.13435 0.87907 0.63518 0.0
O99 O 0.13903 0.86535 0.67488 0.0
O100 O 0.15979 0.86809 0.65743 0.0
Mg101 Mg 0.16731 0.88184 0.60334 0.0
C102 C 0.14908 0.86285 0.67947 0.0
C103 C 0.11297 0.87405 0.709 0.0
O104 O 0.10116 0.87316 0.72012 0.0
O105 O 0.15139 0.89914 0.66326 0.0
O106 O 0.17108 0.90106 0.63894 0.0
O107 O 0.12311 0.86141 0.59354 0.0
O108 O 0.14572 0.8769 0.59099 0.0
C109 C 0.16473 0.90584 0.65923 0.0
C110 C 0.13507 0.86608 0.57635 0.0
O111 O 0.11685 0.87743 0.67434 0.0
Mg112 Mg 0.08462 0.2497 0.71645 0.0
O113 O 0.10341 0.27137 0.72738 0.0
O114 O 0.10676 0.28522 0.67692 0.0
Mg115 Mg 0.09099 0.27127 0.6309 0.0
C116 C 0.10997 0.28323 0.71063 0.0
C117 C 0.08498 0.23599 0.79511 0.0
O118 O 0.08587 0.22699 0.77217 0.0
O119 O 0.06994 0.25843 0.72189 0.0
O120 O 0.07284 0.27007 0.66697 0.0
O121 O 0.09869 0.24249 0.69314 0.0
O122 O 0.08886 0.252 0.658 0.0
C123 C 0.0667 0.26549 0.69925 0.0
C124 C 0.09727 0.24705 0.66011 0.0
O125 O 0.08376 0.24592 0.78065 0.0
Mg126 Mg 0.82882 0.74339 0.77174 0.0
O127 O 0.82578 0.72167 0.76165 0.0
O128 O 0.81435 0.70742 0.81046 0.0
Mg129 Mg 0.81051 0.72095 0.85369 0.0
C130 C 0.82035 0.7097 0.7778 0.0
C131 C 0.84474 0.74644 0.69801 0.0
O132 O 0.85073 0.74224 0.72323 0.0
O133 O 0.8059 0.73517 0.75937 0.0
O134 O 0.79509 0.72276 0.81186 0.0
O135 O 0.849 0.75 0.8008 0.0
O136 O 0.82855 0.74053 0.83088 0.0
C137 C 0.79479 0.72787 0.7791 0.0
C138 C 0.84192 0.74535 0.8323 0.0
O139 O 0.83474 0.74825 0.70889 0.0
Mg140 Mg 0.21841 0.07459 0.76307 0.0
O141 O 0.2415 0.0896 0.75087 0.0
O142 O 0.25522 0.08935 0.79735 0.0
Mg143 Mg 0.23995 0.07332 0.84133 0.0
C144 C 0.25361 0.09396 0.76526 0.0
C145 C 0.21907 0.09094 0.69334 0.0
O146 O 0.22376 0.09999 0.72175 0.0
O147 O 0.22095 0.05588 0.74825 0.0
O148 O 0.23282 0.05479 0.79896 0.0
O149 O 0.21711 0.09137 0.79491 0.0
O150 O 0.22258 0.07661 0.82219 0.0
C151 C 0.22639 0.04985 0.76718 0.0
C152 C 0.2212 0.08754 0.82502 0.0
O153 O 0.2147 0.07807 0.70064 0.0
Mg154 Mg 0.91876 0.1567 0.76558 0.0
O155 O 0.89876 0.15756 0.75679 0.0
O156 O 0.89471 0.16831 0.805 0.0
Mg157 Mg 0.91323 0.17476 0.84616 0.0
C158 C 0.89129 0.16194 0.77281 0.0
C159 C 0.90481 0.13939 0.6952 0.0
O160 O 0.8963 0.13248 0.72365 0.0
O161 O 0.93155 0.17978 0.75033 0.0
O162 O 0.92848 0.19034 0.80118 0.0
O163 O 0.90674 0.13671 0.79771 0.0
O164 O 0.91669 0.15772 0.82478 0.0
C165 C 0.93398 0.19086 0.76845 0.0
C166 C 0.90869 0.14431 0.82792 0.0
O167 O 0.91656 0.15018 0.70285 0.0
Mg168 Mg 0.89551 0.46652 0.62564 0.0
O169 O 0.91683 0.4708 0.60639 0.0
O170 O 0.93316 0.48162 0.65118 0.0
Mg171 Mg 0.92115 0.4839 0.70235 0.0
C172 C 0.92946 0.4763 0.61773 0.0
C173 C 0.88898 0.45235 0.54534 0.0
O174 O 0.88897 0.44232 0.56584 0.0
O175 O 0.90259 0.48964 0.61921 0.0
O176 O 0.91759 0.49974 0.66789 0.0
O177 O 0.89149 0.44606 0.65076 0.0
O178 O 0.90074 0.46614 0.68262 0.0
C179 C 0.9109 0.50047 0.6388 0.0
C180 C 0.89703 0.45305 0.68201 0.0
O181 O 0.88988 0.46298 0.56235 0.0
Mg182 Mg 0.50584 0.41213 0.58935 0.0
O183 O 0.50262 0.43077 0.58134 0.0
O184 O 0.49275 0.43411 0.63301 0.0
Mg185 Mg 0.49048 0.41732 0.67646 0.0
C186 C 0.49768 0.43746 0.59906 0.0
C187 C 0.50611 0.40406 0.49946 0.0
O188 O 0.49858 0.39073 0.50877 0.0
O189 O 0.48238 0.39725 0.58209 0.0
O190 O 0.47394 0.39958 0.63836 0.0
O191 O 0.52697 0.42609 0.61419 0.0
O192 O 0.50753 0.41534 0.64868 0.0
C193 C 0.47223 0.39373 0.60554 0.0
C194 C 0.52086 0.42397 0.64725 0.0
O195 O 0.50988 0.41343 0.52524 0.0
Mg196 Mg 0.57366 0.07324 0.61206 0.0
O197 O 0.55582 0.05205 0.59264 0.0
O198 O 0.55101 0.03609 0.63836 0.0
Mg199 Mg 0.56573 0.04778 0.68881 0.0
C200 C 0.54882 0.0395 0.60513 0.0
C201 C 0.57787 0.09255 0.54196 0.0
O202 O 0.57901 0.10112 0.56977 0.0
O203 O 0.58906 0.0656 0.60358 0.0
O204 O 0.585 0.05123 0.65334 0.0
O205 O 0.5584 0.07851 0.63755 0.0
O206 O 0.56805 0.06798 0.669 0.0
C207 C 0.59195 0.0576 0.62327 0.0
C208 C 0.55937 0.07262 0.66872 0.0
O209 O 0.57611 0.08054 0.55036 0.0
Mg210 Mg 0.81795 0.56586 0.57646 0.0
O211 O 0.82279 0.58812 0.58817 0.0
O212 O 0.83558 0.60292 0.54181 0.0
Mg213 Mg 0.83906 0.58923 0.49846 0.0
C214 C 0.82912 0.60039 0.5738 0.0
C215 C 0.80185 0.56464 0.64778 0.0
O216 O 0.79563 0.56754 0.62 0.0
O217 O 0.84032 0.57203 0.59157 0.0
O218 O 0.85262 0.58542 0.54193 0.0
O219 O 0.79882 0.56177 0.54425 0.0
O220 O 0.81974 0.56996 0.51766 0.0
C221 C 0.85191 0.57933 0.57381 0.0
C222 C 0.80682 0.56683 0.51443 0.0
O223 O 0.8113 0.56171 0.63911 0.0
Mg224 Mg 0.4021 0.23507 0.57416 0.0
O225 O 0.38007 0.21664 0.58445 0.0
O226 O 0.36673 0.21267 0.53271 0.0
Mg227 Mg 0.38115 0.22849 0.48711 0.0
C228 C 0.36837 0.20977 0.56712 0.0
C229 C 0.40328 0.22405 0.65256 0.0
O230 O 0.39943 0.21336 0.62923 0.0
O231 O 0.39413 0.25048 0.57796 0.0
O232 O 0.38342 0.24751 0.52135 0.0
O233 O 0.40923 0.22075 0.55191 0.0
O234 O 0.40017 0.23065 0.51544 0.0
C235 C 0.3879 0.25402 0.55323 0.0
C236 C 0.40513 0.22228 0.51835 0.0
O237 O 0.40583 0.23578 0.63863 0.0
Mg238 Mg 0.75048 0.16412 0.57294 0.0
O239 O 0.76742 0.15841 0.58363 0.0
O240 O 0.77027 0.14753 0.53351 0.0
Mg241 Mg 0.75385 0.14568 0.48967 0.0
C242 C 0.77355 0.15259 0.56733 0.0
C243 C 0.76365 0.17719 0.64981 0.0
O244 O 0.7745 0.18132 0.62693 0.0
O245 O 0.73398 0.14137 0.58284 0.0
O246 O 0.73601 0.13075 0.53049 0.0
O247 O 0.766 0.18421 0.54606 0.0
O248 O 0.75385 0.16429 0.51407 0.0
C249 C 0.73012 0.13038 0.56247 0.0
C250 C 0.76343 0.17737 0.51405 0.0
O251 O 0.75135 0.1697 0.63634 0.0
Mg252 Mg 0.41934 0.16646 0.07709 0.0
O253 O 0.39815 0.16421 0.09131 0.0
O254 O 0.38319 0.15388 0.04295 0.0
Mg255 Mg 0.39539 0.1496 0.99668 0.0
C256 C 0.38606 0.15946 0.07624 0.0
C257 C 0.43191 0.18269 0.15452 0.0
O258 O 0.43831 0.19351 0.13131 0.0
O259 O 0.41047 0.14318 0.08632 0.0
O260 O 0.3967 0.13324 0.03534 0.0
O261 O 0.42583 0.18723 0.05042 0.0
O262 O 0.41553 0.16703 0.01896 0.0
C263 C 0.40227 0.13235 0.06664 0.0
C264 C 0.42021 0.18038 0.01904 0.0
O265 O 0.42437 0.17052 0.14044 0.0
Mg266 Mg 0.82354 0.25585 0.0743 0.0
O267 O 0.82502 0.23611 0.07972 0.0
O268 O 0.83471 0.23223 0.02866 0.0
Mg269 Mg 0.83996 0.25091 0.98876 0.0
C270 C 0.82911 0.22874 0.06186 0.0
C271 C 0.80766 0.24124 0.14623 0.0
O272 O 0.80047 0.2327 0.11809 0.0
O273 O 0.84697 0.26898 0.0864 0.0
O274 O 0.85622 0.26609 0.03241 0.0
O275 O 0.80299 0.24349 0.04443 0.0
O276 O 0.82349 0.2543 0.01464 0.0
C277 C 0.85756 0.27152 0.0657 0.0
C278 C 0.81011 0.24608 0.01297 0.0
O279 O 0.81815 0.25315 0.13802 0.0
Mg280 Mg 0.76136 0.60249 0.07291 0.0
O281 O 0.77856 0.62485 0.08561 0.0
O282 O 0.78106 0.6389 0.03662 0.0
Mg283 Mg 0.76536 0.62467 0.99044 0.0
C284 C 0.78454 0.63693 0.07 0.0
C285 C 0.77337 0.60021 0.14888 0.0
O286 O 0.78412 0.60539 0.1253 0.0
O287 O 0.74455 0.60838 0.0816 0.0
O288 O 0.74603 0.61996 0.02747 0.0
O289 O 0.77689 0.59778 0.04647 0.0
O290 O 0.76514 0.60588 0.0142 0.0
C291 C 0.73999 0.61441 0.05929 0.0
C292 C 0.77447 0.60208 0.01433 0.0
O293 O 0.76145 0.59744 0.13606 0.0
Mg294 Mg 0.50879 0.09222 0.11626 0.0
O295 O 0.50859 0.07181 0.1057 0.0
O296 O 0.49929 0.05684 0.15435 0.0
Mg297 Mg 0.49389 0.06884 0.199 0.0
C298 C 0.50487 0.05998 0.12108 0.0
C299 C 0.52367 0.09551 0.04089 0.0
O300 O 0.53178 0.09439 0.06661 0.0
O301 O 0.48531 0.081 0.10661 0.0
O302 O 0.47656 0.06776 0.15918 0.0
O303 O 0.52974 0.10133 0.14393 0.0
O304 O 0.50961 0.08966 0.17522 0.0
C305 C 0.47491 0.07237 0.12704 0.0
C306 C 0.52313 0.09597 0.17574 0.0
O307 O 0.51312 0.09629 0.05231 0.0
Mg308 Mg 0.93938 0.42515 0.12918 0.0
O309 O 0.96219 0.44183 0.11895 0.0
O310 O 0.97454 0.44521 0.17271 0.0
Mg311 Mg 0.95888 0.43095 0.21888 0.0
C312 C 0.97374 0.44785 0.13739 0.0
C313 C 0.94096 0.43218 0.04044 0.0
O314 O 0.9506 0.44468 0.0522 0.0
O315 O 0.94587 0.40866 0.12942 0.0
O316 O 0.95527 0.41077 0.1878 0.0
O317 O 0.93348 0.44089 0.14782 0.0
O318 O 0.94137 0.43059 0.18686 0.0
C319 C 0.95107 0.4045 0.1555 0.0
C320 C 0.93697 0.43935 0.18223 0.0
O321 O 0.93484 0.42232 0.06475 0.0
Mg322 Mg 0.58493 0.48583 0.09337 0.0
O323 O 0.56592 0.48844 0.08425 0.0
O324 O 0.56135 0.49674 0.13731 0.0
Mg325 Mg 0.57765 0.49881 0.18198 0.0
C326 C 0.55862 0.49255 0.10256 0.0
C327 C 0.58482 0.47311 0.0129 0.0
O328 O 0.58454 0.46322 0.03467 0.0
O329 O 0.59924 0.50952 0.09059 0.0
O330 O 0.59562 0.51664 0.14741 0.0
O331 O 0.57088 0.46398 0.114 0.0
O332 O 0.58042 0.48261 0.15186 0.0
C333 C 0.602 0.51915 0.11521 0.0
C334 C 0.57196 0.4693 0.14784 0.0
O335 O 0.58574 0.48395 0.02863 0.0
Mg336 Mg 0.58324 0.83033 0.93582 0.0
O337 O 0.60487 0.83375 0.9211 0.0
O338 O 0.61957 0.84436 0.96982 0.0
Mg339 Mg 0.60671 0.84731 0.01698 0.0
C340 C 0.61702 0.83905 0.93618 0.0
C341 C 0.56675 0.81503 0.86155 0.0
O342 O 0.5578 0.80646 0.88717 0.0
O343 O 0.59122 0.8535 0.92749 0.0
O344 O 0.60455 0.86344 0.97926 0.0
O345 O 0.57732 0.80961 0.96143 0.0
O346 O 0.58703 0.82959 0.99386 0.0
C347 C 0.59895 0.86428 0.94794 0.0
C348 C 0.5825 0.81628 0.99331 0.0
O349 O 0.57778 0.82596 0.87281 0.0
Mg350 Mg 0.16816 0.75803 0.99096 0.0
O351 O 0.16066 0.77298 0.97399 0.0
O352 O 0.14425 0.77187 0.01345 0.0
Mg353 Mg 0.14269 0.7564 0.06079 0.0
C354 C 0.152 0.77686 0.9838 0.0
C355 C 0.18657 0.77427 0.9243 0.0
O356 O 0.19079 0.78328 0.9528 0.0
O357 O 0.14754 0.73945 0.97205 0.0
O358 O 0.13269 0.73771 0.01839 0.0
O359 O 0.18502 0.77472 0.02541 0.0
O360 O 0.16403 0.75968 0.04878 0.0
C361 C 0.13544 0.73313 0.98777 0.0
C362 C 0.17626 0.7706 0.05371 0.0
O363 O 0.17726 0.76158 0.93072 0.0
Mg364 Mg 0.24711 0.42821 0.926 0.0
O365 O 0.22768 0.40702 0.91432 0.0
O366 O 0.22196 0.3931 0.96567 0.0
Mg367 Mg 0.23867 0.40583 0.01105 0.0
C368 C 0.2198 0.39539 0.93114 0.0
C369 C 0.24692 0.42334 0.8375 0.0
O370 O 0.24644 0.41184 0.84999 0.0
O371 O 0.26071 0.41824 0.92078 0.0
O372 O 0.25579 0.40523 0.97394 0.0
O373 O 0.23385 0.4364 0.94987 0.0
O374 O 0.24272 0.42585 0.98454 0.0
C375 C 0.26255 0.40995 0.9425 0.0
C376 C 0.23492 0.4315 0.98273 0.0
O377 O 0.24809 0.43254 0.86164 0.0
Mg378 Mg 0.50081 0.92217 0.87847 0.0
O379 O 0.50476 0.94387 0.89403 0.0
O380 O 0.51698 0.95956 0.84876 0.0
Mg381 Mg 0.52063 0.94699 0.80189 0.0
C382 C 0.51072 0.95636 0.88114 0.0
C383 C 0.48404 0.91796 0.95029 0.0
O384 O 0.47885 0.92289 0.92469 0.0
O385 O 0.52346 0.9292 0.89199 0.0
O386 O 0.53511 0.94332 0.84277 0.0
O387 O 0.48122 0.91734 0.84855 0.0
O388 O 0.50197 0.927 0.82013 0.0
C389 C 0.53486 0.93702 0.8739 0.0
C390 C 0.48874 0.9228 0.81812 0.0
O391 O 0.49389 0.91579 0.94032 0.0
Mg392 Mg 0.10639 0.57928 0.86349 0.0
O393 O 0.08881 0.5607 0.89682 0.0
O394 O 0.06886 0.55589 0.86681 0.0
Mg395 Mg 0.07367 0.56899 0.81214 0.0
C396 C 0.07543 0.55382 0.89394 0.0
C397 C 0.12254 0.58517 0.94777 0.0
O398 O 0.13453 0.59105 0.96634 0.0
O399 O 0.09887 0.59369 0.88637 0.0
O400 O 0.0802 0.58853 0.8498 0.0
O401 O 0.11004 0.56491 0.82634 0.0
O402 O 0.09491 0.57193 0.81333 0.0
C403 C 0.08904 0.59591 0.87579 0.0
C404 C 0.10049 0.56451 0.80379 0.0
O405 O 0.12271 0.58583 0.91136 0.0
Mg406 Mg 0.41731 0.49725 0.90474 0.0
O407 O 0.43511 0.49305 0.91807 0.0
O408 O 0.43837 0.48213 0.86866 0.0
Mg409 Mg 0.42237 0.47967 0.82266 0.0
C410 C 0.44155 0.48745 0.90224 0.0
C411 C 0.41759 0.5129 0.97984 0.0
O412 O 0.41775 0.5219 0.95476 0.0
O413 O 0.40144 0.47429 0.91312 0.0
O414 O 0.40388 0.464 0.86075 0.0
O415 O 0.43258 0.51779 0.87921 0.0
O416 O 0.42146 0.4979 0.84647 0.0
C417 C 0.39774 0.46343 0.89242 0.0
C418 C 0.43072 0.51109 0.84719 0.0
O419 O 0.41681 0.50163 0.96794 0.0
Mg420 Mg 0.06793 0.50307 0.33767 0.0
O421 O 0.04591 0.49698 0.35518 0.0
O422 O 0.03038 0.48346 0.31104 0.0
Mg423 Mg 0.0437 0.48214 0.26159 0.0
C424 C 0.03332 0.48974 0.34343 0.0
C425 C 0.08359 0.52075 0.41166 0.0
O426 O 0.09082 0.53067 0.38646 0.0
O427 O 0.06303 0.48088 0.34909 0.0
O428 O 0.04987 0.46859 0.29896 0.0
O429 O 0.07045 0.52231 0.30952 0.0
O430 O 0.06262 0.50195 0.27988 0.0
C431 C 0.05642 0.46949 0.33011 0.0
C432 C 0.0655 0.51483 0.27868 0.0
O433 O 0.07415 0.50876 0.40003 0.0
Mg434 Mg 0.49516 0.57994 0.40202 0.0
O435 O 0.49697 0.56044 0.41097 0.0
O436 O 0.50685 0.55633 0.36071 0.0
Mg437 Mg 0.51102 0.57376 0.3174 0.0
C438 C 0.50141 0.55316 0.39415 0.0
C439 C 0.48044 0.56727 0.47663 0.0
O440 O 0.47323 0.5578 0.45035 0.0
O441 O 0.51854 0.59358 0.41133 0.0
O442 O 0.52776 0.59059 0.35744 0.0
O443 O 0.47426 0.56721 0.37507 0.0
O444 O 0.49423 0.57688 0.34272 0.0
C445 C 0.5291 0.59645 0.3901 0.0
C446 C 0.48076 0.56893 0.34283 0.0
O447 O 0.49062 0.57904 0.46605 0.0
Mg448 Mg 0.40973 0.90231 0.38023 0.0
O449 O 0.42976 0.9232 0.38856 0.0
O450 O 0.43374 0.93809 0.34062 0.0
Mg451 Mg 0.4151 0.92591 0.29974 0.0
C452 C 0.43721 0.9351 0.37267 0.0
C453 C 0.42398 0.8991 0.4502 0.0
O454 O 0.43233 0.90055 0.42149 0.0
O455 O 0.3971 0.9127 0.39601 0.0
O456 O 0.4001 0.92638 0.34527 0.0
O457 O 0.42156 0.89425 0.34772 0.0
O458 O 0.4116 0.90535 0.321 0.0
C459 C 0.39471 0.92143 0.37814 0.0
C460 C 0.41952 0.89987 0.31758 0.0
O461 O 0.4122 0.89812 0.44288 0.0
Mg462 Mg 0.16946 0.42653 0.42653 0.0
O463 O 0.16566 0.40466 0.41331 0.0
O464 O 0.15533 0.39044 0.46311 0.0
Mg465 Mg 0.15309 0.40399 0.50973 0.0
C466 C 0.16039 0.39264 0.42918 0.0
C467 C 0.1841 0.44133 0.34908 0.0
O468 O 0.19385 0.45017 0.37263 0.0
O469 O 0.14628 0.41874 0.41967 0.0
O470 O 0.1368 0.40633 0.47315 0.0
O471 O 0.19039 0.43242 0.45054 0.0
O472 O 0.17087 0.42328 0.48488 0.0
C473 C 0.13573 0.41155 0.44138 0.0
C474 C 0.18411 0.42753 0.48306 0.0
O475 O 0.17296 0.43115 0.36279 0.0
Mg476 Mg 0.57089 0.7448 0.43898 0.0
O477 O 0.59188 0.7647 0.43042 0.0
O478 O 0.60605 0.76938 0.48062 0.0
Mg479 Mg 0.59325 0.75156 0.52336 0.0
C480 C 0.60355 0.77236 0.4472 0.0
C481 C 0.56864 0.75754 0.36452 0.0
O482 O 0.57044 0.76679 0.391 0.0
O483 O 0.58137 0.73185 0.42902 0.0
O484 O 0.59403 0.73545 0.48235 0.0
O485 O 0.56223 0.757 0.46663 0.0
O486 O 0.57303 0.74772 0.49834 0.0
C487 C 0.58957 0.72953 0.44973 0.0
C488 C 0.56725 0.75542 0.49864 0.0
O489 O 0.5673 0.74585 0.37491 0.0
Mg490 Mg 0.24322 0.8464 0.49229 0.0
O491 O 0.22626 0.85154 0.47825 0.0
O492 O 0.22501 0.86612 0.52024 0.0
Mg493 Mg 0.2414 0.86903 0.56612 0.0
C494 C 0.22082 0.8587 0.4898 0.0
C495 C 0.22818 0.82954 0.42263 0.0
O496 O 0.21852 0.82551 0.44935 0.0
O497 O 0.25975 0.86833 0.47526 0.0
O498 O 0.25958 0.88171 0.52337 0.0
O499 O 0.22804 0.82787 0.5245 0.0
O500 O 0.2407 0.84899 0.55052 0.0
C501 C 0.26467 0.88022 0.49187 0.0
C502 C 0.23095 0.83601 0.554 0.0
O503 O 0.24087 0.83823 0.43119 0.0
C504 C 0.22395 0.10819 0.86226 0.0
C505 C 0.22493 0.09594 0.86058 0.0
C506 C 0.22727 0.11606 0.89602 0.0
C507 C 0.24667 0.12262 0.98673 0.0
H508 H 0.22073 0.13397 0.02488 0.0
C509 C 0.24655 0.13775 0.1436 0.0
C510 C 0.24417 0.14885 0.15226 0.0
C511 C 0.24522 0.13286 0.10612 0.0
C512 C 0.22821 0.1311 0.0143 0.0
H513 H 0.23008 0.0823 0.89306 0.0
H514 H 0.23592 0.09606 0.95189 0.0
H515 H 0.21656 0.12245 0.9625 0.0
H516 H 0.23866 0.16365 0.1283 0.0
H517 H 0.23639 0.15509 0.06236 0.0
H518 H 0.25823 0.1311 0.03861 0.0
C519 C 0.23275 0.09966 0.92694 0.0
C520 C 0.22581 0.12448 0.97863 0.0
C521 C 0.22936 0.09176 0.89326 0.0
C522 C 0.24051 0.15504 0.12251 0.0
C523 C 0.23917 0.15012 0.08483 0.0
C524 C 0.2491 0.12928 0.02226 0.0
C525 C 0.23169 0.11186 0.92868 0.0
C526 C 0.23487 0.11993 0.96488 0.0
C527 C 0.24152 0.13897 0.0763 0.0
C528 C 0.23974 0.13332 0.0368 0.0
H529 H 0.22058 0.11171 0.83752 0.0
H530 H 0.22646 0.12547 0.8965 0.0
H531 H 0.25397 0.11946 0.97649 0.0
H532 H 0.24937 0.13273 0.16582 0.0
H533 H 0.24685 0.12409 0.10065 0.0
C534 C 0.89055 0.12369 0.86509 0.0
C535 C 0.90084 0.138 0.86363 0.0
C536 C 0.88271 0.11793 0.89852 0.0
C537 C 0.87136 0.12824 0.9855 0.0
H538 H 0.86657 0.09375 0.02975 0.0
C539 C 0.85825 0.11501 0.14331 0.0
C540 C 0.8484 0.10119 0.15388 0.0
C541 C 0.8629 0.1182 0.10558 0.0
C542 C 0.8676 0.10326 0.01735 0.0
H543 H 0.91137 0.15733 0.89645 0.0
H544 H 0.89767 0.14733 0.95445 0.0
H545 H 0.87821 0.10179 0.96748 0.0
H546 H 0.83571 0.07983 0.13319 0.0
H547 H 0.84398 0.08547 0.06668 0.0
H548 H 0.86105 0.12992 0.03547 0.0
C549 C 0.89548 0.14063 0.9296 0.0
C550 C 0.87428 0.10786 0.98182 0.0
C551 C 0.90335 0.14635 0.89639 0.0
C552 C 0.84332 0.09058 0.12584 0.0
C553 C 0.84806 0.09378 0.08789 0.0
C554 C 0.86469 0.12365 0.02083 0.0
C555 C 0.88499 0.12641 0.93088 0.0
C556 C 0.87655 0.1206 0.96615 0.0
C557 C 0.85784 0.10766 0.07744 0.0
C558 C 0.86311 0.11133 0.03763 0.0
H559 H 0.8884 0.11698 0.84029 0.0
H560 H 0.87467 0.10694 0.89878 0.0
H561 H 0.8727 0.13794 0.97363 0.0
H562 H 0.8624 0.12344 0.16417 0.0
H563 H 0.87064 0.12894 0.09854 0.0
C564 C 0.88831 0.77592 0.15241 0.0
C565 C 0.90271 0.78135 0.15904 0.0
C566 C 0.88265 0.77133 0.11599 0.0
C567 C 0.89085 0.77429 0.01376 0.0
H568 H 0.85627 0.73839 0.00831 0.0
C569 C 0.86361 0.75137 0.86946 0.0
C570 C 0.8491 0.74636 0.86891 0.0
C571 C 0.87081 0.75415 0.90425 0.0
C572 C 0.86588 0.74845 0.00937 0.0
H573 H 0.92259 0.7868 0.13222 0.0
H574 H 0.91264 0.77891 0.06806 0.0
H575 H 0.8679 0.74703 0.07003 0.0
H576 H 0.83063 0.73972 0.90432 0.0
H577 H 0.84319 0.74472 0.965 0.0
H578 H 0.88864 0.77593 0.95331 0.0
C579 C 0.90577 0.77816 0.09133 0.0
C580 C 0.87253 0.75339 0.04467 0.0
C581 C 0.91146 0.78269 0.12799 0.0
C582 C 0.84181 0.74354 0.90381 0.0
C583 C 0.84902 0.74636 0.93861 0.0
C584 C 0.88415 0.76937 0.97843 0.0
C585 C 0.89126 0.77214 0.08527 0.0
C586 C 0.88493 0.76647 0.04731 0.0
C587 C 0.86365 0.75201 0.93919 0.0
C588 C 0.87147 0.75651 0.97596 0.0
H589 H 0.88127 0.77479 0.17562 0.0
H590 H 0.87147 0.76701 0.11195 0.0
H591 H 0.90035 0.78444 0.01505 0.0
H592 H 0.86951 0.75355 0.843 0.0
H593 H 0.88204 0.75825 0.90377 0.0
C594 C 0.1559 0.24677 0.36134 0.0
C595 C 0.14606 0.23618 0.33715 0.0
C596 C 0.1527 0.24742 0.39975 0.0
C597 C 0.13778 0.25265 0.46512 0.0
H598 H 0.1173 0.22056 0.53225 0.0
C599 C 0.10411 0.25244 0.5911 0.0
C600 C 0.10503 0.24659 0.62606 0.0
C601 C 0.11088 0.25143 0.55844 0.0
C602 C 0.12316 0.22964 0.51396 0.0
H603 H 0.12551 0.21742 0.33498 0.0
H604 H 0.1199 0.21859 0.40217 0.0
H605 H 0.12627 0.21757 0.47076 0.0
H606 H 0.11381 0.23513 0.65421 0.0
H607 H 0.12552 0.23322 0.59676 0.0
H608 H 0.1344 0.26464 0.50775 0.0
C609 C 0.13011 0.22637 0.39134 0.0
C610 C 0.12818 0.2279 0.47873 0.0
C611 C 0.13329 0.22575 0.35281 0.0
C612 C 0.11294 0.23978 0.62771 0.0
C613 C 0.11959 0.23863 0.59486 0.0
C614 C 0.13266 0.25434 0.5001 0.0
C615 C 0.13962 0.23746 0.41486 0.0
C616 C 0.13539 0.23937 0.45376 0.0
C617 C 0.11858 0.24442 0.55991 0.0
C618 C 0.12512 0.24282 0.52458 0.0
H619 H 0.1659 0.2549 0.3503 0.0
H620 H 0.16031 0.25595 0.41739 0.0
H621 H 0.14316 0.26165 0.44631 0.0
H622 H 0.098 0.25762 0.58867 0.0
H623 H 0.10977 0.25582 0.53173 0.0
C624 C 0.74089 0.89116 0.38066 0.0
C625 C 0.7499 0.90305 0.35893 0.0
C626 C 0.74357 0.89043 0.41945 0.0
C627 C 0.77192 0.90013 0.48356 0.0
H628 H 0.74363 0.88763 0.56354 0.0
C629 C 0.76507 0.88105 0.65136 0.0
C630 C 0.7661 0.8689 0.64674 0.0
C631 C 0.76458 0.88841 0.61919 0.0
C632 C 0.7517 0.89136 0.54166 0.0
H633 H 0.76856 0.92365 0.3606 0.0
H634 H 0.77359 0.92208 0.4286 0.0
H635 H 0.7392 0.89502 0.50115 0.0
H636 H 0.76789 0.85519 0.60531 0.0
H637 H 0.76747 0.86831 0.54927 0.0
H638 H 0.78395 0.89542 0.52305 0.0
C639 C 0.76434 0.91349 0.41556 0.0
C640 C 0.74916 0.89552 0.50609 0.0
C641 C 0.76146 0.91438 0.37685 0.0
C642 C 0.76705 0.86449 0.60963 0.0
C643 C 0.7669 0.87203 0.57765 0.0
C644 C 0.77433 0.89569 0.51884 0.0
C645 C 0.75545 0.90145 0.43701 0.0
C646 C 0.75911 0.89961 0.4765 0.0
C647 C 0.7655 0.88394 0.58214 0.0
C648 C 0.76409 0.89096 0.54778 0.0
H649 H 0.73185 0.88233 0.36755 0.0
H650 H 0.73666 0.88097 0.43534 0.0
H651 H 0.77968 0.90312 0.46101 0.0
H652 H 0.76427 0.88462 0.67972 0.0
H653 H 0.76341 0.89755 0.62317 0.0
C654 C 0.12436 0.84929 0.52141 0.0
C655 C 0.13594 0.86109 0.53761 0.0
C656 C 0.12383 0.84682 0.48186 0.0
C657 C 0.14438 0.8622 0.39015 0.0
H658 H 0.10744 0.85146 0.35059 0.0
C659 C 0.13482 0.88693 0.25734 0.0
C660 C 0.12331 0.87876 0.23344 0.0
C661 C 0.13733 0.88107 0.28977 0.0
C662 C 0.11779 0.85424 0.36093 0.0
H663 H 0.15663 0.87875 0.52577 0.0
H664 H 0.15549 0.87501 0.45755 0.0
H665 H 0.11007 0.84715 0.41732 0.0
H666 H 0.1054 0.85807 0.22454 0.0
H667 H 0.10988 0.84763 0.28104 0.0
H668 H 0.15219 0.87098 0.33486 0.0
C669 C 0.14685 0.86734 0.47468 0.0
C670 C 0.11934 0.85169 0.39942 0.0
C671 C 0.1475 0.86958 0.51419 0.0
C672 C 0.11459 0.86446 0.24178 0.0
C673 C 0.11705 0.85857 0.27444 0.0
C674 C 0.14286 0.86521 0.35211 0.0
C675 C 0.13472 0.85631 0.45759 0.0
C676 C 0.13274 0.85609 0.41504 0.0
C677 C 0.12825 0.86692 0.29932 0.0
C678 C 0.12961 0.86155 0.33726 0.0
H679 H 0.11536 0.84242 0.53889 0.0
H680 H 0.11454 0.83789 0.47019 0.0
H681 H 0.15482 0.86535 0.40038 0.0
H682 H 0.14158 0.89804 0.25175 0.0
H683 H 0.14593 0.88786 0.30853 0.0
C684 C 0.75604 0.8843 0.14857 0.0
C685 C 0.74892 0.89191 0.14633 0.0
C686 C 0.75812 0.87831 0.11567 0.0
C687 C 0.74567 0.86723 0.01679 0.0
H688 H 0.78384 0.87584 0.99666 0.0
C689 C 0.75993 0.84844 0.87921 0.0
C690 C 0.77127 0.85908 0.85861 0.0
C691 C 0.75746 0.85065 0.91716 0.0
C692 C 0.77313 0.87332 0.002 0.0
H693 H 0.73803 0.8988 0.108 0.0
H694 H 0.74151 0.88821 0.05079 0.0
H695 H 0.77817 0.88276 0.05778 0.0
H696 H 0.78936 0.88005 0.86244 0.0
H697 H 0.78504 0.88387 0.92882 0.0
H698 H 0.74069 0.85816 0.96066 0.0
C699 C 0.74545 0.88685 0.078 0.0
C700 C 0.76985 0.87716 0.03705 0.0
C701 C 0.74348 0.89295 0.1108 0.0
C702 C 0.78051 0.87167 0.87746 0.0
C703 C 0.77808 0.87384 0.91554 0.0
C704 C 0.74891 0.86328 0.98192 0.0
C705 C 0.753 0.87969 0.07999 0.0
C706 C 0.75614 0.87437 0.04449 0.0
C707 C 0.76632 0.86349 0.93542 0.0
C708 C 0.76272 0.8665 0.9739 0.0
H709 H 0.76036 0.88331 0.17553 0.0
H710 H 0.76388 0.87274 0.11804 0.0
H711 H 0.735 0.86487 0.0219 0.0
H712 H 0.75264 0.83858 0.86562 0.0
H713 H 0.74842 0.84242 0.93197 0.0
C714 C 0.14835 0.87502 0.02423 0.0
C715 C 0.13637 0.86321 0.03888 0.0
C716 C 0.15224 0.87535 0.98584 0.0
C717 C 0.14106 0.854 0.89437 0.0
H718 H 0.14805 0.88943 0.85147 0.0
C719 C 0.114 0.85924 0.76106 0.0
C720 C 0.12108 0.87096 0.737 0.0
C721 C 0.12076 0.85758 0.79283 0.0
C722 C 0.14641 0.87954 0.86272 0.0
H723 H 0.11996 0.84196 0.02608 0.0
H724 H 0.12622 0.8427 0.95944 0.0
H725 H 0.15187 0.88792 0.91915 0.0
H726 H 0.14069 0.89013 0.7272 0.0
H727 H 0.15272 0.88714 0.78236 0.0
H728 H 0.13392 0.84534 0.83848 0.0
C729 C 0.13291 0.85168 0.97715 0.0
C730 C 0.14867 0.87865 0.90178 0.0
C731 C 0.1292 0.85127 0.01561 0.0
C732 C 0.13521 0.88074 0.74436 0.0
C733 C 0.142 0.87912 0.77628 0.0
C734 C 0.13843 0.85482 0.8555 0.0
C735 C 0.14404 0.864 0.96116 0.0
C736 C 0.14538 0.86571 0.91858 0.0
C737 C 0.13469 0.86773 0.80148 0.0
C738 C 0.14059 0.86748 0.83959 0.0
H739 H 0.15424 0.88431 0.04173 0.0
H740 H 0.16118 0.88485 0.97502 0.0
H741 H 0.13884 0.84394 0.90583 0.0
H742 H 0.10303 0.85166 0.75623 0.0
H743 H 0.11476 0.84881 0.81196 0.0
C744 C 0.08806 0.24651 0.86055 0.0
C745 C 0.08733 0.23581 0.83687 0.0
C746 C 0.09214 0.2475 0.89888 0.0
C747 C 0.09768 0.22857 0.97855 0.0
H748 H 0.1275 0.26571 0.00744 0.0
C749 C 0.12449 0.24091 0.12785 0.0
C750 C 0.13924 0.24829 0.12672 0.0
C751 C 0.11671 0.23959 0.0948 0.0
C752 C 0.11916 0.2553 -0.00018 0.0
H753 H 0.0895 0.21728 0.83552 0.0
H754 H 0.09667 0.21904 0.90249 0.0
H755 H 0.11577 0.2623 0.94576 0.0
H756 H 0.15737 0.26019 0.09011 0.0
H757 H 0.14382 0.25803 0.03277 0.0
H758 H 0.10142 0.22152 0.03228 0.0
C759 C 0.09404 0.22664 0.89137 0.0
C760 C 0.11234 0.25336 0.96469 0.0
C761 C 0.09001 0.22567 0.85294 0.0
C762 C 0.14604 0.25455 0.09211 0.0
C763 C 0.13827 0.25334 0.05923 0.0
C764 C 0.10444 0.23053 0.01389 0.0
C765 C 0.09552 0.23778 0.91442 0.0
C766 C 0.10169 0.23994 0.95338 0.0
C767 C 0.12354 0.24574 0.06013 0.0
C768 C 0.11543 0.24387 0.02451 0.0
H769 H 0.08596 0.25444 0.84917 0.0
H770 H 0.09299 0.25608 0.91613 0.0
H771 H 0.08945 0.21813 0.97068 0.0
H772 H 0.11893 0.23594 0.15407 0.0
H773 H 0.10535 0.23374 0.09633 0.0
C774 C 0.90742 0.77176 0.39813 0.0
C775 C 0.90332 0.77684 0.36665 0.0
C776 C 0.89938 0.76758 0.43155 0.0
C777 C 0.87427 0.77274 0.48718 0.0
H778 H 0.8672 0.73836 0.53753 0.0
C779 C 0.84357 0.75363 0.63034 0.0
C780 C 0.84965 0.74894 0.65783 0.0
C781 C 0.8485 0.75613 0.59251 0.0
C782 C 0.86915 0.74802 0.52391 0.0
H783 H 0.8877 0.78176 0.34573 0.0
H784 H 0.87371 0.77454 0.40454 0.0
H785 H 0.87904 0.74463 0.47553 0.0
H786 H 0.86556 0.74311 0.6672 0.0
H787 H 0.87422 0.74763 0.60176 0.0
H788 H 0.86475 0.77635 0.53614 0.0
C789 C 0.88312 0.77377 0.40313 0.0
C790 C 0.8759 0.75159 0.48844 0.0
C791 C 0.89112 0.77786 0.36951 0.0
C792 C 0.86063 0.74669 0.64674 0.0
C793 C 0.86553 0.74918 0.60909 0.0
C794 C 0.86756 0.7692 0.52284 0.0
C795 C 0.88714 0.76849 0.43434 0.0
C796 C 0.87879 0.76412 0.47011 0.0
C797 C 0.85954 0.75393 0.58155 0.0
C798 C 0.86521 0.75695 0.54194 0.0
H799 H 0.91687 0.77105 0.39714 0.0
H800 H 0.90286 0.7638 0.45547 0.0
H801 H 0.87644 0.7825 0.47372 0.0
H802 H 0.83506 0.75542 0.63803 0.0
H803 H 0.84362 0.7597 0.57183 0.0
C804 C 0.22606 0.11059 0.64727 0.0
C805 C 0.2207 0.09618 0.65359 0.0
C806 C 0.22912 0.11609 0.61029 0.0
C807 C 0.22149 0.1075 0.50883 0.0
H808 H 0.25678 0.14224 0.49485 0.0
C809 C 0.23875 0.13464 0.36135 0.0
C810 C 0.2439 0.14919 0.36135 0.0
C811 C 0.23692 0.12744 0.39579 0.0
C812 C 0.24686 0.13259 0.49834 0.0
H813 H 0.21388 0.07612 0.6259 0.0
H814 H 0.21916 0.08581 0.5607 0.0
H815 H 0.25109 0.13066 0.55723 0.0
H816 H 0.2515 0.16767 0.39731 0.0
H817 H 0.24821 0.15511 0.45746 0.0
H818 H 0.21711 0.10961 0.45015 0.0
C819 C 0.22101 0.0928 0.58466 0.0
C820 C 0.24361 0.12595 0.534 0.0
C821 C 0.21798 0.08727 0.6219 0.0
C822 C 0.24757 0.15648 0.39637 0.0
C823 C 0.24574 0.14927 0.43082 0.0
C824 C 0.22473 0.11417 0.47311 0.0
C825 C 0.22686 0.10731 0.57868 0.0
C826 C 0.23078 0.1135 0.53981 0.0
C827 C 0.24022 0.13465 0.43093 0.0
C828 C 0.23734 0.12692 0.46771 0.0
H829 H 0.2282 0.11775 0.67098 0.0
H830 H 0.23333 0.12726 0.60646 0.0
H831 H 0.21149 0.09796 0.51262 0.0
H832 H 0.2359 0.12874 0.33479 0.0
H833 H 0.23284 0.11621 0.39493 0.0
C834 C 0.88562 0.12567 0.64851 0.0
C835 C 0.89968 0.13593 0.65531 0.0
C836 C 0.8801 0.12329 0.61154 0.0
C837 C 0.88897 0.12654 0.51015 0.0
H838 H 0.85258 0.12362 0.49745 0.0
C839 C 0.86162 0.11484 0.3629 0.0
C840 C 0.84731 0.10457 0.36289 0.0
C841 C 0.8686 0.1207 0.39733 0.0
C842 C 0.8627 0.12433 0.50055 0.0
H843 H 0.91911 0.15143 0.62845 0.0
H844 H 0.90943 0.14703 0.56326 0.0
H845 H 0.86402 0.12965 0.56004 0.0
H846 H 0.82898 0.09272 0.39876 0.0
H847 H 0.84116 0.10276 0.45885 0.0
H848 H 0.88747 0.12074 0.45104 0.0
C849 C 0.90272 0.14095 0.58685 0.0
C850 C 0.86925 0.1278 0.53633 0.0
C851 C 0.90825 0.14344 0.62407 0.0
C852 C 0.83999 0.10064 0.39783 0.0
C853 C 0.84698 0.10646 0.43227 0.0
C854 C 0.88237 0.12296 0.47436 0.0
C855 C 0.88852 0.13103 0.58045 0.0
C856 C 0.88231 0.12867 0.54164 0.0
C857 C 0.86141 0.11638 0.43247 0.0
C858 C 0.86904 0.12156 0.46935 0.0
H859 H 0.87872 0.11969 0.67188 0.0
H860 H 0.86919 0.11541 0.60729 0.0
H861 H 0.89901 0.12707 0.51359 0.0
H862 H 0.86753 0.11815 0.33636 0.0
H863 H 0.87966 0.12849 0.39645 0.0
C864 C 0.94012 0.44616 0.25159 0.0
C865 C 0.93425 0.44592 0.21561 0.0
C866 C 0.93553 0.44992 0.2845 0.0
C867 C 0.90375 0.44664 0.32293 0.0
H868 H 0.92733 0.4704 0.40546 0.0
C869 C 0.88808 0.44052 0.48326 0.0
C870 C 0.89127 0.45281 0.50346 0.0
C871 C 0.8923 0.44126 0.44508 0.0
C872 C 0.92062 0.46386 0.38245 0.0
H873 H 0.91949 0.45015 0.18559 0.0
H874 H 0.91126 0.45643 0.24337 0.0
H875 H 0.93796 0.46999 0.34403 0.0
H876 H 0.901 0.47548 0.49917 0.0
H877 H 0.90863 0.47674 0.43271 0.0
H878 H 0.8865 0.43996 0.36201 0.0
C879 C 0.91947 0.45378 0.24593 0.0
C880 C 0.9267 0.46358 0.34748 0.0
C881 C 0.92425 0.45027 0.2129 0.0
C882 C 0.89828 0.46581 0.48429 0.0
C883 C 0.90274 0.46656 0.44638 0.0
C884 C 0.89771 0.44671 0.35812 0.0
C885 C 0.92482 0.45329 0.28211 0.0
C886 C 0.91833 0.45485 0.31757 0.0
C887 C 0.90001 0.45432 0.42671 0.0
C888 C 0.90611 0.4552 0.3883 0.0
H889 H 0.94786 0.4429 0.25459 0.0
H890 H 0.93979 0.44941 0.3121 0.0
H891 H 0.8971 0.43969 0.30043 0.0
H892 H 0.88273 0.43039 0.49733 0.0
H893 H 0.89014 0.43168 0.43052 0.0
C894 C 0.56379 0.46686 0.21581 0.0
C895 C 0.56314 0.46063 0.18012 0.0
C896 C 0.5553 0.45884 0.24613 0.0
C897 C 0.53742 0.42404 0.28735 0.0
H898 H 0.51737 0.43865 0.34493 0.0
C899 C 0.50749 0.39874 0.42969 0.0
C900 C 0.51025 0.40852 0.4592 0.0
C901 C 0.51178 0.40333 0.39194 0.0
C902 C 0.52292 0.43443 0.32921 0.0
H903 H 0.55335 0.44096 0.14866 0.0
H904 H 0.53869 0.42683 0.20242 0.0
H905 H 0.52922 0.45009 0.28544 0.0
H906 H 0.51957 0.43075 0.47204 0.0
H907 H 0.52707 0.43862 0.40708 0.0
H908 H 0.53169 0.40878 0.33223 0.0
C909 C 0.54566 0.438 0.20642 0.0
C910 C 0.52966 0.44096 0.29514 0.0
C911 C 0.55402 0.44609 0.17574 0.0
C912 C 0.51724 0.4229 0.45013 0.0
C913 C 0.52144 0.42743 0.41268 0.0
C914 C 0.53076 0.41755 0.32177 0.0
C915 C 0.54613 0.44436 0.24174 0.0
C916 C 0.53732 0.43609 0.27451 0.0
C917 C 0.51877 0.41775 0.38309 0.0
C918 C 0.52382 0.42298 0.34368 0.0
H919 H 0.57086 0.47794 0.22054 0.0
H920 H 0.55605 0.46395 0.27332 0.0
H921 H 0.5433 0.42011 0.27192 0.0
H922 H 0.50213 0.3876 0.43577 0.0
H923 H 0.50955 0.39562 0.36969 0.0
C924 C 0.57462 0.08632 0.47226 0.0
C925 C 0.57679 0.09599 0.50155 0.0
C926 C 0.57168 0.08862 0.43487 0.0
C927 C 0.55551 0.10612 0.38522 0.0
H928 H 0.56663 0.09407 0.29373 0.0
C929 C 0.52352 0.09222 0.24629 0.0
C930 C 0.53079 0.09688 0.21139 0.0
C931 C 0.53076 0.09361 0.28035 0.0
C932 C 0.56356 0.09763 0.31895 0.0
H933 H 0.57852 0.11611 0.51403 0.0
H934 H 0.57349 0.12017 0.44857 0.0
H935 H 0.57768 0.09481 0.35521 0.0
H936 H 0.55136 0.10654 0.18472 0.0
H937 H 0.56403 0.10896 0.24446 0.0
H938 H 0.54132 0.10881 0.34918 0.0
C939 C 0.57383 0.1107 0.45475 0.0
C940 C 0.5698 0.09795 0.35417 0.0
C941 C 0.57677 0.1084 0.49219 0.0
C942 C 0.54546 0.10282 0.21118 0.0
C943 C 0.55271 0.10418 0.24532 0.0
C944 C 0.54927 0.10576 0.35011 0.0
C945 C 0.57087 0.10064 0.42594 0.0
C946 C 0.56565 0.10195 0.3878 0.0
C947 C 0.54543 0.09969 0.28029 0.0
C948 C 0.55301 0.10123 0.31676 0.0
H949 H 0.57462 0.07667 0.47846 0.0
H950 H 0.56934 0.0806 0.41345 0.0
H951 H 0.55197 0.10911 0.41063 0.0
H952 H 0.51223 0.08763 0.24746 0.0
H953 H 0.52484 0.08984 0.30676 0.0
C954 C 0.79115 0.57327 0.69572 0.0
C955 C 0.79984 0.5676 0.68792 0.0
C956 C 0.79062 0.57799 0.73241 0.0
C957 C 0.79646 0.57478 0.83385 0.0
H958 H 0.7985 0.61096 0.84072 0.0
C959 C 0.79096 0.59669 0.97878 0.0
C960 C 0.78139 0.60161 0.9785 0.0
C961 C 0.79591 0.59428 0.94435 0.0
C962 C 0.79788 0.60083 0.83929 0.0
H963 H 0.81435 0.56191 0.71296 0.0
H964 H 0.81318 0.56997 0.77769 0.0
H965 H 0.80133 0.60246 0.77862 0.0
H966 H 0.77006 0.60855 0.94202 0.0
H967 H 0.77857 0.60426 0.88214 0.0
H968 H 0.79249 0.57289 0.89426 0.0
C969 C 0.80689 0.57083 0.75507 0.0
C970 C 0.7995 0.59598 0.80377 0.0
C971 C 0.80753 0.5662 0.7181 0.0
C972 C 0.77745 0.60478 0.94324 0.0
C973 C 0.78239 0.60237 0.90886 0.0
C974 C 0.79475 0.57961 0.86942 0.0
C975 C 0.79867 0.57706 0.76227 0.0
C976 C 0.79846 0.58276 0.80057 0.0
C977 C 0.7914 0.59677 0.90899 0.0
C978 C 0.79511 0.59254 0.87236 0.0
H979 H 0.78506 0.57449 0.67321 0.0
H980 H 0.78397 0.58248 0.73737 0.0
H981 H 0.79556 0.56453 0.83211 0.0
H982 H 0.79424 0.59421 0.00555 0.0
H983 H 0.80302 0.59016 0.94539 0.0
C984 C 0.41041 0.23362 0.71947 0.0
C985 C 0.40414 0.22212 0.69419 0.0
C986 C 0.41134 0.23147 0.75875 0.0
C987 C 0.39585 0.20397 0.83339 0.0
H988 H 0.43228 0.2238 0.88284 0.0
C989 C 0.41175 0.1795 0.95217 0.0
C990 C 0.41817 0.18733 0.98537 0.0
C991 C 0.40935 0.18577 0.92064 0.0
C992 C 0.42198 0.21839 0.86966 0.0
H993 H 0.3937 0.1994 0.69029 0.0
H994 H 0.39535 0.19571 0.75819 0.0
H995 H 0.42902 0.23138 0.8194 0.0
H996 H 0.42753 0.20806 0.01109 0.0
H997 H 0.42357 0.21916 0.95504 0.0
H998 H 0.38899 0.19053 0.88257 0.0
C999 C 0.39946 0.20636 0.74797 0.0
C1000 C 0.42011 0.22272 0.83345 0.0
C1001 C 0.39864 0.20849 0.70893 0.0
C1002 C 0.42247 0.20172 0.98597 0.0
C1003 C 0.42023 0.20808 0.95401 0.0
C1004 C 0.39773 0.19962 0.86933 0.0
C1005 C 0.40584 0.2178 0.77332 0.0
C1006 C 0.40716 0.21518 0.81438 0.0
C1007 C 0.41348 0.20008 0.92129 0.0
C1008 C 0.41094 0.20645 0.88711 0.0
H1009 H 0.41474 0.24425 0.70886 0.0
H1010 H 0.41631 0.24047 0.77772 0.0
H1011 H 0.38567 0.19816 0.8197 0.0
H1012 H 0.40859 0.16849 0.9503 0.0
H1013 H 0.40441 0.17945 0.8954 0.0
C1014 C 0.77798 0.18299 0.70896 0.0
C1015 C 0.76602 0.18148 0.69032 0.0
C1016 C 0.78127 0.18846 0.74598 0.0
C1017 C 0.76795 0.19929 0.83043 0.0
H1018 H 0.80783 0.22361 0.84756 0.0
C1019 C 0.79109 0.22563 0.97737 0.0
C1020 C 0.80346 0.23877 0.97697 0.0
C1021 C 0.78556 0.21827 0.94312 0.0
C1022 C 0.79663 0.21704 0.84321 0.0
H1023 H 0.7478 0.18396 0.69583 0.0
H1024 H 0.75392 0.19428 0.76004 0.0
H1025 H 0.7998 0.21127 0.78744 0.0
H1026 H 0.8193 0.25489 0.94068 0.0
H1027 H 0.80933 0.24248 0.88095 0.0
H1028 H 0.76486 0.20581 0.88569 0.0
C1029 C 0.76057 0.19087 0.74663 0.0
C1030 C 0.79201 0.20967 0.80884 0.0
C1031 C 0.75708 0.18503 0.7098 0.0
C1032 C 0.80985 0.24468 0.94178 0.0
C1033 C 0.80418 0.23749 0.90758 0.0
C1034 C 0.77259 0.20688 0.86473 0.0
C1035 C 0.77291 0.19297 0.76481 0.0
C1036 C 0.77762 0.20062 0.80198 0.0
C1037 C 0.79217 0.22403 0.90781 0.0
C1038 C 0.78701 0.21589 0.8715 0.0
H1039 H 0.78491 0.1801 0.6947 0.0
H1040 H 0.79057 0.18942 0.75948 0.0
H1041 H 0.7568 0.19233 0.82635 0.0
H1042 H 0.786 0.22082 0.00423 0.0
H1043 H 0.77639 0.20788 0.94454 0.0
C1044 C 0.40088 0.21561 0.44892 0.0
C1045 C 0.40677 0.21521 0.48434 0.0
C1046 C 0.40355 0.21009 0.41604 0.0
C1047 C 0.43019 0.20419 0.37349 0.0
H1048 H 0.40094 0.18102 0.30091 0.0
C1049 C 0.43928 0.19826 0.21251 0.0
C1050 C 0.4314 0.18483 0.19626 0.0
C1051 C 0.43718 0.20059 0.25077 0.0
C1052 C 0.4092 0.18736 0.3211 0.0
H1053 H 0.41985 0.20846 0.51321 0.0
H1054 H 0.4247 0.19901 0.45542 0.0
H1055 H 0.39463 0.18718 0.36216 0.0
H1056 H 0.41572 0.16312 0.20806 0.0
H1057 H 0.41201 0.16727 0.27457 0.0
H1058 H 0.44478 0.20472 0.33181 0.0
C1059 C 0.41797 0.20356 0.45331 0.0
C1060 C 0.4056 0.19096 0.35595 0.0
C1061 C 0.41513 0.20889 0.48635 0.0
C1062 C 0.42193 0.17363 0.2196 0.0
C1063 C 0.41974 0.17599 0.25764 0.0
C1064 C 0.43381 0.20075 0.33835 0.0
C1065 C 0.41232 0.20424 0.41781 0.0
C1066 C 0.41606 0.19952 0.38228 0.0
C1067 C 0.42708 0.18955 0.27328 0.0
C1068 C 0.42335 0.19239 0.31172 0.0
H1069 H 0.39445 0.22045 0.44634 0.0
H1070 H 0.39916 0.21085 0.38891 0.0
H1071 H 0.43845 0.21091 0.39323 0.0
H1072 H 0.44669 0.20709 0.19533 0.0
H1073 H 0.44294 0.21117 0.26212 0.0
C1074 C 0.78166 0.19862 0.47924 0.0
C1075 C 0.77106 0.18442 0.4786 0.0
C1076 C 0.78799 0.20563 0.44517 0.0
C1077 C 0.79254 0.19973 0.34266 0.0
H1078 H 0.79591 0.23624 0.3276 0.0
C1079 C 0.79458 0.22204 0.19344 0.0
C1080 C 0.80459 0.23615 0.18625 0.0
C1081 C 0.7923 0.21668 0.23059 0.0
C1082 C 0.79524 0.22615 0.33161 0.0
H1083 H 0.75903 0.16636 0.44187 0.0
H1084 H 0.76996 0.17858 0.38256 0.0
H1085 H 0.78902 0.22487 0.39034 0.0
H1086 H 0.81987 0.25581 0.21258 0.0
H1087 H 0.81567 0.2464 0.27809 0.0
H1088 H 0.79829 0.2008 0.28359 0.0
C1089 C 0.77355 0.18427 0.40937 0.0
C1090 C 0.79132 0.21965 0.36752 0.0
C1091 C 0.76723 0.17727 0.44339 0.0
C1092 C 0.81206 0.24489 0.21726 0.0
C1093 C 0.80967 0.23953 0.25468 0.0
C1094 C 0.79638 0.20619 0.3068 0.0
C1095 C 0.78386 0.19859 0.40979 0.0
C1096 C 0.78962 0.20622 0.37317 0.0
C1097 C 0.7999 0.22531 0.26153 0.0
C1098 C 0.79744 0.21931 0.30069 0.0
H1099 H 0.78488 0.20441 0.50598 0.0
H1100 H 0.79602 0.21661 0.44647 0.0
H1101 H 0.79161 0.18952 0.34631 0.0
H1102 H 0.78863 0.21499 0.17026 0.0
H1103 H 0.78452 0.20574 0.23512 0.0
C1104 C 0.78806 0.56815 0.47701 0.0
C1105 C 0.80174 0.57024 0.4791 0.0
C1106 C 0.78353 0.57192 0.44393 0.0
C1107 C 0.79712 0.59553 0.36145 0.0
H1108 H 0.76293 0.56897 0.30892 0.0
C1109 C 0.78869 0.60114 0.20268 0.0
C1110 C 0.77529 0.59767 0.18943 0.0
C1111 C 0.79069 0.59862 0.24064 0.0
C1112 C 0.77236 0.57661 0.32364 0.0
H1113 H 0.82116 0.57739 0.44761 0.0
H1114 H 0.81336 0.58421 0.3905 0.0
H1115 H 0.76858 0.56279 0.37125 0.0
H1116 H 0.75346 0.58894 0.20574 0.0
H1117 H 0.75702 0.58457 0.27257 0.0
H1118 H 0.80107 0.60929 0.31395 0.0
C1119 C 0.80622 0.57983 0.41457 0.0
C1120 C 0.77559 0.57305 0.35921 0.0
C1121 C 0.81068 0.57592 0.44731 0.0
C1122 C 0.76391 0.5917 0.21513 0.0
C1123 C 0.76593 0.58916 0.2533 0.0
C1124 C 0.79386 0.59912 0.32616 0.0
C1125 C 0.79266 0.57798 0.41268 0.0
C1126 C 0.78822 0.58233 0.37779 0.0
C1127 C 0.77936 0.59259 0.26639 0.0
C1128 C 0.78167 0.58953 0.30629 0.0
H1129 H 0.7809 0.56373 0.50101 0.0
H1130 H 0.77301 0.57037 0.44305 0.0
H1131 H 0.80679 0.60297 0.37562 0.0
H1132 H 0.79768 0.60573 0.18365 0.0
H1133 H 0.80112 0.60113 0.24959 0.0
C1134 C 0.54204 0.07715 0.70317 0.0
C1135 C 0.55131 0.07185 0.70343 0.0
C1136 C 0.53576 0.07796 0.73721 0.0
C1137 C 0.52951 0.06602 0.83902 0.0
H1138 H 0.5318 0.10187 0.85799 0.0
C1139 C 0.53442 0.08826 0.9895 0.0
C1140 C 0.52544 0.09333 -9e-05 0.0
C1141 C 0.53516 0.08471 0.95158 0.0
C1142 C 0.53088 0.09173 0.85285 0.0
H1143 H 0.56083 0.06276 0.73926 0.0
H1144 H 0.55009 0.06434 0.79838 0.0
H1145 H 0.53682 0.09648 0.79392 0.0
H1146 H 0.51049 0.09907 0.97847 0.0
H1147 H 0.51214 0.0932 0.91139 0.0
H1148 H 0.5243 0.06162 0.89851 0.0
C1149 C 0.54745 0.06767 0.77196 0.0
C1150 C 0.5337 0.0886 0.81617 0.0
C1151 C 0.55369 0.06683 0.73801 0.0
C1152 C 0.51752 0.0952 0.97126 0.0
C1153 C 0.51843 0.09183 0.933 0.0
C1154 C 0.52684 0.06921 0.87567 0.0
C1155 C 0.53863 0.0735 0.77213 0.0
C1156 C 0.53345 0.07588 0.80914 0.0
C1157 C 0.52707 0.08631 0.92306 0.0
C1158 C 0.52789 0.08224 0.88314 0.0
H1159 H 0.53995 0.08104 0.6769 0.0
H1160 H 0.52887 0.08233 0.7363 0.0
H1161 H 0.52891 0.056 0.83437 0.0
H1162 H 0.54063 0.08663 0.01083 0.0
H1163 H 0.54207 0.08068 0.94451 0.0
C1164 C 0.90211 0.43531 0.71223 0.0
C1165 C 0.89968 0.44665 0.71576 0.0
C1166 C 0.90547 0.43005 0.74471 0.0
C1167 C 0.92338 0.43194 0.81733 0.0
H1168 H 0.90037 0.42292 0.90888 0.0
C1169 C 0.94448 0.44 0.97191 0.0
C1170 C 0.93644 0.42995 -0.00016 0.0
C1171 C 0.93957 0.43861 0.93428 0.0
C1172 C 0.90681 0.42515 0.88344 0.0
H1173 H 0.89836 0.46103 0.75576 0.0
H1174 H 0.90376 0.45159 0.81229 0.0
H1175 H 0.89162 0.4265 0.84796 0.0
H1176 H 0.91722 0.41021 0.00983 0.0
H1177 H 0.90853 0.40796 0.94415 0.0
H1178 H 0.93894 0.43147 0.8534 0.0
C1179 C 0.90324 0.44688 0.78457 0.0
C1180 C 0.90182 0.42725 0.84869 0.0
C1181 C 0.90023 0.45233 0.75222 0.0
C1182 C 0.92364 0.41817 0.989 0.0
C1183 C 0.91865 0.41687 0.95146 0.0
C1184 C 0.92848 0.43006 0.85229 0.0
C1185 C 0.90603 0.43582 0.7811 0.0
C1186 C 0.9102 0.431 0.81561 0.0
C1187 C 0.92645 0.42721 0.92394 0.0
C1188 C 0.92037 0.42699 0.88585 0.0
H1189 H 0.9018 0.43081 0.68435 0.0
H1190 H 0.90765 0.42154 0.74147 0.0
H1191 H 0.93006 0.43494 0.7922 0.0
H1192 H 0.95442 0.44915 0.97932 0.0
H1193 H 0.94574 0.44681 0.91375 0.0
C1194 C 0.52202 0.42932 0.71743 0.0
C1195 C 0.52888 0.43132 0.68204 0.0
C1196 C 0.52966 0.43576 0.75062 0.0
C1197 C 0.56433 0.44944 0.79356 0.0
H1198 H 0.55068 0.46633 0.86691 0.0
C1199 C 0.58032 0.45853 0.95366 0.0
C1200 C 0.58201 0.47078 0.97122 0.0
C1201 C 0.57585 0.45547 0.91553 0.0
C1202 C 0.55474 0.46181 0.84653 0.0
H1203 H 0.54916 0.4417 0.65371 0.0
H1204 H 0.56252 0.45285 0.71195 0.0
H1205 H 0.53867 0.45786 0.80558 0.0
H1206 H 0.58106 0.4898 0.96184 0.0
H1207 H 0.57326 0.48442 0.89539 0.0
H1208 H 0.58026 0.45317 0.83494 0.0
C1209 C 0.55122 0.4463 0.71385 0.0
C1210 C 0.54778 0.45684 0.8116 0.0
C1211 C 0.54356 0.43997 0.68053 0.0
C1212 C 0.57979 0.48023 0.94928 0.0
C1213 C 0.57525 0.47712 0.91126 0.0
C1214 C 0.57124 0.45431 0.82871 0.0
C1215 C 0.54434 0.44422 0.74924 0.0
C1216 C 0.55239 0.45045 0.78497 0.0
C1217 C 0.57292 0.46456 0.89428 0.0
C1218 C 0.56641 0.46041 0.85571 0.0
H1219 H 0.51077 0.42262 0.71975 0.0
H1220 H 0.52409 0.43381 0.7776 0.0
H1221 H 0.56806 0.44448 0.77365 0.0
H1222 H 0.58197 0.45105 0.96973 0.0
H1223 H 0.57406 0.44566 0.90328 0.0
C1224 C 0.55373 0.79831 0.80799 0.0
C1225 C 0.56513 0.81108 0.82052 0.0
C1226 C 0.55325 0.79373 0.77029 0.0
C1227 C 0.57731 0.79703 0.69397 0.0
H1228 H 0.5437 0.77752 0.6317 0.0
C1229 C 0.57275 0.76126 0.56816 0.0
C1230 C 0.56691 0.76272 0.53384 0.0
C1231 C 0.57239 0.76812 0.60143 0.0
C1232 C 0.55319 0.78305 0.64867 0.0
H1233 H 0.58452 0.8295 0.80267 0.0
H1234 H 0.58364 0.82151 0.73704 0.0
H1235 H 0.54291 0.78837 0.69232 0.0
H1236 H 0.55593 0.77239 0.50762 0.0
H1237 H 0.55521 0.7843 0.56605 0.0
H1238 H 0.58755 0.79157 0.65077 0.0
C1239 C 0.57518 0.81495 0.75649 0.0
C1240 C 0.55271 0.78916 0.6834 0.0
C1241 C 0.57564 0.81954 0.79405 0.0
C1242 C 0.56057 0.77109 0.5336 0.0
C1243 C 0.56009 0.77785 0.56703 0.0
C1244 C 0.57775 0.79083 0.6595 0.0
C1245 C 0.56419 0.80184 0.74453 0.0
C1246 C 0.56475 0.79613 0.70649 0.0
C1247 C 0.56606 0.77648 0.60121 0.0
C1248 C 0.56567 0.78366 0.63671 0.0
H1249 H 0.54544 0.79157 0.82764 0.0
H1250 H 0.54468 0.78355 0.7619 0.0
H1251 H 0.58671 0.80218 0.71137 0.0
H1252 H 0.57753 0.75475 0.5695 0.0
H1253 H 0.57688 0.76671 0.62755 0.0
C1254 C 0.21247 0.81637 0.59237 0.0
C1255 C 0.22369 0.83026 0.59071 0.0
C1256 C 0.20677 0.81011 0.62758 0.0
C1257 C 0.2053 0.81718 0.73054 0.0
H1258 H 0.20108 0.78023 0.74383 0.0
C1259 C 0.20141 0.7936 0.87923 0.0
C1260 C 0.19106 0.7795 0.88493 0.0
C1261 C 0.20453 0.79928 0.84245 0.0
C1262 C 0.20202 0.79045 0.74041 0.0
H1263 H 0.23726 0.84876 0.62433 0.0
H1264 H 0.22738 0.83776 0.68607 0.0
H1265 H 0.20733 0.7915 0.68105 0.0
H1266 H 0.17623 0.76014 0.85645 0.0
H1267 H 0.18177 0.77013 0.79178 0.0
H1268 H 0.20021 0.81621 0.79009 0.0
C1269 C 0.22292 0.83175 0.66009 0.0
C1270 C 0.20557 0.7969 0.70448 0.0
C1271 C 0.22861 0.83804 0.62477 0.0
C1272 C 0.18429 0.77102 0.85291 0.0
C1273 C 0.18744 0.77674 0.81595 0.0
C1274 C 0.20175 0.81073 0.76646 0.0
C1275 C 0.21221 0.8176 0.66185 0.0
C1276 C 0.20741 0.8104 0.6993 0.0
C1277 C 0.19739 0.791 0.81052 0.0
C1278 C 0.20029 0.7974 0.77186 0.0
H1279 H 0.20834 0.81016 0.56653 0.0
H1280 H 0.19833 0.79929 0.62804 0.0
H1281 H 0.20644 0.8275 0.72724 0.0
H1282 H 0.20689 0.80039 0.90328 0.0
H1283 H 0.21249 0.81022 0.83904 0.0
C1284 C 0.20627 0.43133 0.51429 0.0
C1285 C 0.19179 0.42648 0.51658 0.0
C1286 C 0.21361 0.43076 0.54637 0.0
C1287 C 0.20865 0.41302 0.63948 0.0
H1288 H 0.24381 0.44605 0.66742 0.0
C1289 C 0.23992 0.41313 0.77161 0.0
C1290 C 0.24397 0.42454 0.79667 0.0
C1291 C 0.23528 0.41346 0.73453 0.0
C1292 C 0.23402 0.43675 0.65991 0.0
H1293 H 0.17372 0.41728 0.55442 0.0
H1294 H 0.18647 0.41618 0.61012 0.0
H1295 H 0.23184 0.44609 0.60832 0.0
H1296 H 0.24704 0.44555 0.80173 0.0
H1297 H 0.23893 0.44612 0.73697 0.0
H1298 H 0.21058 0.4038 0.69146 0.0
C1299 C 0.19212 0.42029 0.58343 0.0
C1300 C 0.22723 0.43673 0.62596 0.0
C1301 C 0.18481 0.42095 0.5515 0.0
C1302 C 0.24396 0.43657 0.78317 0.0
C1303 C 0.23938 0.43693 0.74599 0.0
C1304 C 0.21547 0.41301 0.67324 0.0
C1305 C 0.2066 0.42525 0.58128 0.0
C1306 C 0.21436 0.42494 0.61572 0.0
C1307 C 0.23465 0.42524 0.72163 0.0
C1308 C 0.22813 0.42494 0.6841 0.0
H1309 H 0.21196 0.43566 0.4878 0.0
H1310 H 0.22475 0.43457 0.54381 0.0
H1311 H 0.19881 0.40374 0.63213 0.0
H1312 H 0.23985 0.40371 0.78103 0.0
H1313 H 0.23189 0.40438 0.7162 0.0
C1314 C 0.48379 0.91018 0.01832 0.0
C1315 C 0.47882 0.91577 0.99014 0.0
C1316 C 0.47889 0.90855 0.05614 0.0
C1317 C 0.46236 0.92199 0.12258 0.0
H1318 H 0.44883 0.8868 0.1771 0.0
C1319 C 0.42453 0.90701 0.24884 0.0
C1320 C 0.42713 0.90121 0.28154 0.0
C1321 C 0.43213 0.9089 0.21523 0.0
C1322 C 0.45276 0.89675 0.16242 0.0
H1323 H 0.46478 0.92392 0.97942 0.0
H1324 H 0.45628 0.92101 0.04479 0.0
H1325 H 0.46026 0.89009 0.1146 0.0
H1326 H 0.43946 0.89247 0.3044 0.0
H1327 H 0.45274 0.89573 0.24529 0.0
H1328 H 0.45462 0.92856 0.16972 0.0
C1329 C 0.46405 0.91805 0.03797 0.0
C1330 C 0.45931 0.89863 0.12675 0.0
C1331 C 0.46886 0.91961 0.00039 0.0
C1332 C 0.43725 0.897 0.27965 0.0
C1333 C 0.44483 0.89883 0.24586 0.0
C1334 C 0.45582 0.9201 0.15805 0.0
C1335 C 0.46907 0.91261 0.06631 0.0
C1336 C 0.46383 0.91114 0.1061 0.0
C1337 C 0.44245 0.90496 0.21351 0.0
C1338 C 0.45064 0.90734 0.17786 0.0
H1339 H 0.49147 0.90714 0.01123 0.0
H1340 H 0.48293 0.90434 0.0775 0.0
H1341 H 0.46602 0.93185 0.10765 0.0
H1342 H 0.41664 0.91013 0.24911 0.0
H1343 H 0.42987 0.91337 0.19043 0.0
C1344 C 0.10546 0.58542 0.99355 0.0
C1345 C 0.10951 0.57775 0.96992 0.0
C1346 C 0.09573 0.57871 0.02302 0.0
C1347 C 0.07082 0.54396 0.06583 0.0
H1348 H 0.08726 0.56272 0.16192 0.0
C1349 C 0.06267 0.51424 0.2074 0.0
C1350 C 0.06433 0.52119 0.24248 0.0
C1351 C 0.06409 0.52119 0.17268 0.0
C1352 C 0.08221 0.55741 0.1355 0.0
H1353 H 0.10645 0.55717 0.95737 0.0
H1354 H 0.08955 0.5454 0.00905 0.0
H1355 H 0.09676 0.57496 0.10191 0.0
H1356 H 0.06748 0.54041 0.26878 0.0
H1357 H 0.06948 0.55239 0.20825 0.0
H1358 H 0.05652 0.52623 0.09946 0.0
C1359 C 0.09349 0.55648 0.00426 0.0
C1360 C 0.08771 0.56447 0.10095 0.0
C1361 C 0.10316 0.56319 0.97469 0.0
C1362 C 0.06634 0.53484 0.24218 0.0
C1363 C 0.06759 0.54174 0.20744 0.0
C1364 C 0.06521 0.53692 0.10044 0.0
C1365 C 0.09005 0.56425 0.02961 0.0
C1366 C 0.08238 0.55767 0.0657 0.0
C1367 C 0.06705 0.53521 0.17224 0.0
C1368 C 0.07115 0.54339 0.13574 0.0
H1369 H 0.11047 0.59673 0.99072 0.0
H1370 H 0.09323 0.58495 0.04198 0.0
H1371 H 0.06645 0.53854 0.03913 0.0
H1372 H 0.0611 0.50371 0.20666 0.0
H1373 H 0.06373 0.51581 0.14632 0.0
C1374 C 0.42263 0.5297 0.03417 0.0
C1375 C 0.42037 0.51667 0.02089 0.0
C1376 C 0.42715 0.534 0.07179 0.0
C1377 C 0.44754 0.52905 0.14599 0.0
H1378 H 0.43513 0.54926 0.21136 0.0
C1379 C 0.48013 0.56316 0.27312 0.0
C1380 C 0.47298 0.56176 0.30767 0.0
C1381 C 0.47271 0.55666 0.23972 0.0
C1382 C 0.43861 0.54353 0.1935 0.0
H1383 H 0.42023 0.49756 0.03737 0.0
H1384 H 0.42812 0.5051 0.10285 0.0
H1385 H 0.42297 0.53924 0.15069 0.0
H1386 H 0.45241 0.5525 0.33428 0.0
H1387 H 0.43945 0.54126 0.27571 0.0
H1388 H 0.46329 0.53348 0.18839 0.0
C1389 C 0.42656 0.51204 0.08404 0.0
C1390 C 0.43173 0.5379 0.15875 0.0
C1391 C 0.42199 0.50772 0.04657 0.0
C1392 C 0.45824 0.55375 0.30812 0.0
C1393 C 0.45081 0.54737 0.2746 0.0
C1394 C 0.45448 0.53478 0.18049 0.0
C1395 C 0.42954 0.52537 0.0967 0.0
C1396 C 0.43618 0.53067 0.1346 0.0
C1397 C 0.45798 0.54877 0.24011 0.0
C1398 C 0.45016 0.54217 0.20442 0.0
H1399 H 0.42143 0.53681 0.01514 0.0
H1400 H 0.42942 0.54436 0.08077 0.0
H1401 H 0.45131 0.52367 0.12773 0.0
H1402 H 0.49146 0.56937 0.27168 0.0
H1403 H 0.47849 0.55805 0.21338 0.0
C1404 C 0.08693 0.55682 0.74231 0.0
C1405 C 0.09687 0.55662 0.76724 0.0
C1406 C 0.08486 0.55098 0.70565 0.0
C1407 C 0.10376 0.54366 0.63132 0.0
H1408 H 0.0672 0.52334 0.5828 0.0
C1409 C 0.0962 0.53675 0.46699 0.0
C1410 C 0.08572 0.52363 0.45335 0.0
C1411 C 0.09766 0.53962 0.50636 0.0
C1412 C 0.07748 0.52889 0.59605 0.0
H1413 H 0.11198 0.5496 0.77385 0.0
H1414 H 0.10832 0.53937 0.70978 0.0
H1415 H 0.06888 0.52958 0.6506 0.0
H1416 H 0.06874 0.50311 0.47044 0.0
H1417 H 0.07133 0.50814 0.53895 0.0
H1418 H 0.11236 0.54306 0.57669 0.0
C1419 C 0.10225 0.54417 0.71853 0.0
C1420 C 0.07844 0.53256 0.63477 0.0
C1421 C 0.10427 0.54994 0.7553 0.0
C1422 C 0.0769 0.51335 0.47994 0.0
C1423 C 0.07832 0.51625 0.51921 0.0
C1424 C 0.1028 0.54007 0.59254 0.0
C1425 C 0.09272 0.54488 0.69305 0.0
C1426 C 0.09159 0.54008 0.65274 0.0
C1427 C 0.08863 0.52945 0.53284 0.0
C1428 C 0.08966 0.53274 0.57441 0.0
H1429 H 0.08111 0.56194 0.7505 0.0
H1430 H 0.07753 0.55179 0.68657 0.0
H1431 H 0.11405 0.54959 0.64426 0.0
H1432 H 0.10316 0.54489 0.44727 0.0
H1433 H 0.10563 0.54994 0.51598 0.0
C1434 C 0.44912 0.53265 0.81361 0.0
C1435 C 0.43906 0.51826 0.81274 0.0
C1436 C 0.45644 0.53953 0.78031 0.0
C1437 C 0.46552 0.53282 0.68342 0.0
H1438 H 0.46644 0.56737 0.65494 0.0
C1439 C 0.46829 0.54949 0.52784 0.0
C1440 C 0.47757 0.56351 0.51762 0.0
C1441 C 0.46601 0.54548 0.56622 0.0
C1442 C 0.4665 0.55787 0.66284 0.0
H1443 H 0.42886 0.49981 0.77634 0.0
H1444 H 0.44157 0.51173 0.71862 0.0
H1445 H 0.45827 0.5574 0.7189 0.0
H1446 H 0.49158 0.58441 0.53969 0.0
H1447 H 0.48733 0.57735 0.60745 0.0
H1448 H 0.47319 0.53297 0.62695 0.0
C1449 C 0.44398 0.51768 0.74505 0.0
C1450 C 0.46184 0.55217 0.6994 0.0
C1451 C 0.43664 0.51085 0.77816 0.0
C1452 C 0.48436 0.57352 0.54675 0.0
C1453 C 0.48194 0.56951 0.58541 0.0
C1454 C 0.47011 0.53848 0.64697 0.0
C1455 C 0.45388 0.53211 0.74565 0.0
C1456 C 0.46088 0.53935 0.70956 0.0
C1457 C 0.47287 0.5554 0.59538 0.0
C1458 C 0.47021 0.5508 0.63591 0.0
H1459 H 0.45122 0.53865 0.83985 0.0
H1460 H 0.46406 0.55064 0.78163 0.0
H1461 H 0.46519 0.52309 0.69076 0.0
H1462 H 0.4629 0.54149 0.50618 0.0
H1463 H 0.45876 0.53458 0.57311 0.0
C1464 C 0.468 0.92003 0.78158 0.0
C1465 C 0.48217 0.92357 0.78201 0.0
C1466 C 0.4612 0.919 0.74691 0.0
C1467 C 0.46728 0.92737 0.64296 0.0
H1468 H 0.43047 0.89423 0.63211 0.0
C1469 C 0.44337 0.9047 0.49628 0.0
C1470 C 0.42933 0.90103 0.4899 0.0
C1471 C 0.44912 0.90813 0.53297 0.0
C1472 C 0.44065 0.90362 0.63488 0.0
H1473 H 0.50049 0.92941 0.74669 0.0
H1474 H 0.48859 0.92738 0.68611 0.0
H1475 H 0.44211 0.89989 0.69444 0.0
H1476 H 0.41018 0.89764 0.51726 0.0
H1477 H 0.42027 0.90345 0.58191 0.0
H1478 H 0.46597 0.9308 0.58302 0.0
C1479 C 0.48275 0.92558 0.71254 0.0
C1480 C 0.44732 0.90691 0.67058 0.0
C1481 C 0.48958 0.92669 0.74726 0.0
C1482 C 0.42102 0.9004 0.52131 0.0
C1483 C 0.42678 0.90373 0.55824 0.0
C1484 C 0.46066 0.92403 0.60726 0.0
C1485 C 0.4684 0.92141 0.71193 0.0
C1486 C 0.46081 0.9187 0.67489 0.0
C1487 C 0.44096 0.90787 0.56421 0.0
C1488 C 0.44739 0.91199 0.60275 0.0
H1489 H 0.46204 0.91768 0.80797 0.0
H1490 H 0.45023 0.91604 0.74747 0.0
H1491 H 0.47755 0.93667 0.64546 0.0
H1492 H 0.45008 0.90529 0.47277 0.0
H1493 H 0.46001 0.91103 0.5369 0.0
C1494 C 0.17683 0.43159 0.28284 0.0
C1495 C 0.18674 0.44201 0.30728 0.0
C1496 C 0.18001 0.43106 0.24433 0.0
C1497 C 0.20464 0.4508 0.16567 0.0
H1498 H 0.19777 0.41402 0.1346 0.0
C1499 C 0.21966 0.43925 0.01558 0.0
C1500 C 0.22733 0.43218 0.01693 0.0
C1501 C 0.21309 0.44046 0.04858 0.0
C1502 C 0.19969 0.42433 0.14281 0.0
H1503 H 0.20742 0.46058 0.30984 0.0
H1504 H 0.21299 0.45962 0.24249 0.0
H1505 H 0.18914 0.41683 0.19646 0.0
H1506 H 0.2341 0.42085 0.05405 0.0
H1507 H 0.22245 0.4227 0.11109 0.0
H1508 H 0.21558 0.45833 0.11226 0.0
C1509 C 0.20275 0.45188 0.25318 0.0
C1510 C 0.19465 0.42593 0.17805 0.0
C1511 C 0.19959 0.45238 0.29182 0.0
C1512 C 0.22813 0.42619 0.05177 0.0
C1513 C 0.22144 0.42724 0.08452 0.0
C1514 C 0.20959 0.44917 0.13016 0.0
C1515 C 0.19314 0.44098 0.22935 0.0
C1516 C 0.19728 0.43921 0.19017 0.0
C1517 C 0.21394 0.43445 0.08334 0.0
C1518 C 0.20741 0.43597 0.11881 0.0
H1519 H 0.16678 0.4235 0.29373 0.0
H1520 H 0.17233 0.42266 0.22647 0.0
H1521 H 0.20674 0.46114 0.17421 0.0
H1522 H 0.21889 0.44403 0.9892 0.0
H1523 H 0.20733 0.44604 0.04692 0.0
C1524 C 0.5881 0.81624 0.06271 0.0
C1525 C 0.58316 0.80891 0.02799 0.0
C1526 C 0.58785 0.80919 0.0962 0.0
C1527 C 0.56921 0.77443 0.14106 0.0
H1528 H 0.5984 0.79267 0.2178 0.0
C1529 C 0.56731 0.75178 0.29418 0.0
C1530 C 0.57007 0.76158 0.32362 0.0
C1531 C 0.56957 0.75609 0.25572 0.0
C1532 C 0.59019 0.78744 0.19657 0.0
H1533 H 0.57437 0.78845 0.00096 0.0
H1534 H 0.57399 0.77611 0.05972 0.0
H1535 H 0.60181 0.80295 0.15396 0.0
H1536 H 0.57727 0.78351 0.3358 0.0
H1537 H 0.58124 0.79094 0.2692 0.0
H1538 H 0.5575 0.75906 0.18428 0.0
C1539 C 0.57796 0.78731 0.06096 0.0
C1540 C 0.59212 0.79332 0.16009 0.0
C1541 C 0.57824 0.79439 0.02732 0.0
C1542 C 0.57499 0.77568 0.31388 0.0
C1543 C 0.5774 0.77998 0.27572 0.0
C1544 C 0.56732 0.76848 0.17762 0.0
C1545 C 0.58265 0.79463 0.09584 0.0
C1546 C 0.58147 0.78715 0.13232 0.0
C1547 C 0.57484 0.77028 0.24629 0.0
C1548 C 0.57761 0.7752 0.20603 0.0
H1549 H 0.59183 0.82738 0.06436 0.0
H1550 H 0.5913 0.8151 0.12271 0.0
H1551 H 0.56078 0.76947 0.12037 0.0
H1552 H 0.56352 0.74085 0.30085 0.0
H1553 H 0.56749 0.74842 0.23346 0.0
C1554 C 0.233 0.82378 0.35687 0.0
C1555 C 0.22392 0.82499 0.38285 0.0
C1556 C 0.22845 0.8189 0.31958 0.0
C1557 C 0.20459 0.81645 0.24486 0.0
H1558 H 0.20216 0.78136 0.21451 0.0
C1559 C 0.17443 0.77084 0.12497 0.0
C1560 C 0.18048 0.77801 0.09065 0.0
C1561 C 0.17986 0.77733 0.16023 0.0
C1562 C 0.20281 0.79117 0.22274 0.0
H1563 H 0.20329 0.82268 0.39014 0.0
H1564 H 0.19556 0.8146 0.32477 0.0
H1565 H 0.2128 0.79206 0.27634 0.0
H1566 H 0.19632 0.79774 0.06593 0.0
H1567 H 0.20545 0.80926 0.12778 0.0
H1568 H 0.19472 0.81562 0.19105 0.0
C1569 C 0.20605 0.81718 0.33337 0.0
C1570 C 0.20899 0.79732 0.25774 0.0
C1571 C 0.21044 0.8217 0.37075 0.0
C1572 C 0.19152 0.79199 0.09206 0.0
C1573 C 0.19672 0.79857 0.12728 0.0
C1574 C 0.19868 0.81045 0.20948 0.0
C1575 C 0.21494 0.8156 0.3077 0.0
C1576 C 0.20975 0.8099 0.26919 0.0
C1577 C 0.19116 0.79117 0.16154 0.0
C1578 C 0.19758 0.79767 0.1985 0.0
H1579 H 0.24344 0.82627 0.36564 0.0
H1580 H 0.23544 0.81772 0.30003 0.0
H1581 H 0.20506 0.82615 0.25336 0.0
H1582 H 0.16596 0.76003 0.12457 0.0
H1583 H 0.17539 0.7715 0.18648 0.0
C1584 C 0.21239 0.26641 0.24726 0.0
C1585 C 0.21064 0.27229 0.21339 0.0
C1586 C 0.22467 0.266 0.25368 0.0
C1587 C 0.2514 0.26391 0.19637 0.0
H1588 H 0.26121 0.25677 0.29731 0.0
C1589 C 0.2742 0.22995 0.28063 0.0
C1590 C 0.26678 0.21771 0.25839 0.0
C1591 C 0.27366 0.24207 0.27161 0.0
C1592 C 0.25901 0.25904 0.26875 0.0
H1593 H 0.22108 0.28373 0.16162 0.0
H1594 H 0.2427 0.28326 0.17325 0.0
H1595 H 0.24899 0.26985 0.29131 0.0
H1596 H 0.25414 0.2091 0.20706 0.0
H1597 H 0.25279 0.22981 0.19223 0.0
H1598 H 0.26137 0.25305 0.17381 0.0
C1599 C 0.23438 0.27859 0.19434 0.0
C1600 C 0.25177 0.26639 0.26536 0.0
C1601 C 0.222 0.27893 0.18777 0.0
C1602 C 0.25986 0.21827 0.22511 0.0
C1603 C 0.25922 0.23029 0.21634 0.0
C1604 C 0.25888 0.25679 0.1997 0.0
C1605 C 0.23562 0.27157 0.22657 0.0
C1606 C 0.24702 0.26805 0.22934 0.0
C1607 C 0.2656 0.24216 0.24036 0.0
C1608 C 0.26191 0.25341 0.23606 0.0
H1609 H 0.20394 0.26133 0.26789 0.0
H1610 H 0.22508 0.26036 0.27866 0.0
H1611 H 0.24805 0.26505 0.16804 0.0
H1612 H 0.27982 0.22997 0.30615 0.0
H1613 H 0.279 0.25112 0.29024 0.0
C1614 C 0.72107 0.94685 0.20188 0.0
C1615 C 0.72819 0.94263 0.22733 0.0
C1616 C 0.72147 0.95965 0.20714 0.0
C1617 C 0.73402 0.99017 0.27471 0.0
H1618 H 0.74565 0.01193 0.18075 0.0
C1619 C 0.77985 0.04693 0.22889 0.0
C1620 C 0.78002 0.05471 0.26107 0.0
C1621 C 0.76823 0.03379 0.22135 0.0
C1622 C 0.74235 0.00601 0.20728 0.0
H1623 H 0.74029 0.94803 0.28007 0.0
H1624 H 0.74132 0.97032 0.28862 0.0
H1625 H 0.73449 0.98653 0.17761 0.0
H1626 H 0.76746 0.05546 0.30803 0.0
H1627 H 0.74703 0.0326 0.29434 0.0
H1628 H 0.74318 0.00969 0.3046 0.0
C1629 C 0.73525 0.96376 0.26481 0.0
C1630 C 0.73574 0.99138 0.20547 0.0
C1631 C 0.73479 0.95098 0.25968 0.0
C1632 C 0.76777 0.04964 0.28335 0.0
C1633 C 0.75607 0.03649 0.27561 0.0
C1634 C 0.74081 0.0048 0.27655 0.0
C1635 C 0.72902 0.96851 0.2379 0.0
C1636 C 0.73222 0.98334 0.23931 0.0
C1637 C 0.75642 0.02813 0.24558 0.0
C1638 C 0.74577 0.01292 0.24294 0.0
H1639 H 0.71571 0.94058 0.1769 0.0
H1640 H 0.71634 0.96286 0.18625 0.0
H1641 H 0.73106 0.98427 0.30128 0.0
H1642 H 0.78903 0.05055 0.21083 0.0
H1643 H 0.76901 0.02768 0.19814 0.0
C1644 C 0.96886 0.77153 0.2788 0.0
C1645 C 0.9608 0.7752 0.25527 0.0
C1646 C 0.98258 0.7753 0.26853 0.0
C1647 C 0.00799 0.78749 0.18859 0.0
H1648 H 0.03559 0.80748 0.26819 0.0
C1649 C 0.07 0.83096 0.19764 0.0
C1650 C 0.07568 0.82491 0.1732 0.0
C1651 C 0.05609 0.82315 0.21012 0.0
C1652 C 0.028 0.80188 0.24574 0.0
H1653 H 0.96055 0.78487 0.2012 0.0
H1654 H 0.98444 0.79134 0.18323 0.0
H1655 H 0.0106 0.7963 0.28331 0.0
H1656 H 0.07132 0.8057 0.14396 0.0
H1657 H 0.04705 0.79215 0.16565 0.0
H1658 H 0.0254 0.7934 0.15078 0.0
C1659 C 0.98015 0.7856 0.20969 0.0
C1660 C 0.01371 0.79537 0.25445 0.0
C1661 C 0.96647 0.78194 0.22009 0.0
C1662 C 0.06729 0.81072 0.16268 0.0
C1663 C 0.05335 0.80296 0.17489 0.0
C1664 C 0.02229 0.79389 0.17997 0.0
C1665 C 0.98848 0.78268 0.23435 0.0
C1666 C 0.00356 0.78831 0.22581 0.0
C1667 C 0.04755 0.80916 0.1982 0.0
C1668 C 0.03243 0.80135 0.20831 0.0
H1669 H 0.96484 0.7663 0.30603 0.0
H1670 H 0.9887 0.77276 0.28782 0.0
H1671 H 0.0004 0.78206 0.16603 0.0
H1672 H 0.07619 0.84184 0.20643 0.0
H1673 H 0.05187 0.82823 0.2279 0.0
C1674 C 0.78155 0.73391 0.73192 0.0
C1675 C 0.78161 0.7271 0.76597 0.0
C1676 C 0.77054 0.73633 0.7239 0.0
C1677 C 0.74662 0.74138 0.71029 0.0
H1678 H 0.73894 0.75589 0.8028 0.0
C1679 C 0.7331 0.78517 0.70022 0.0
C1680 C 0.74132 0.79647 0.72492 0.0
C1681 C 0.7317 0.77196 0.70662 0.0
C1682 C 0.74092 0.75187 0.77663 0.0
H1683 H 0.76924 0.71584 0.81576 0.0
H1684 H 0.7498 0.71975 0.80122 0.0
H1685 H 0.7482 0.74011 0.80787 0.0
H1686 H 0.7537 0.80246 0.77722 0.0
H1687 H 0.75169 0.77983 0.7876 0.0
H1688 H 0.74081 0.75438 0.6791 0.0
C1689 C 0.75853 0.72368 0.78138 0.0
C1690 C 0.74604 0.74257 0.77951 0.0
C1691 C 0.76965 0.72136 0.78961 0.0
C1692 C 0.74735 0.79404 0.75744 0.0
C1693 C 0.74605 0.78093 0.76364 0.0
C1694 C 0.74175 0.75089 0.70742 0.0
C1695 C 0.7592 0.73187 0.74953 0.0
C1696 C 0.74976 0.73789 0.74635 0.0
C1697 C 0.73856 0.76982 0.73772 0.0
C1698 C 0.73966 0.75689 0.74061 0.0
H1699 H 0.79048 0.73831 0.71269 0.0
H1700 H 0.77158 0.74274 0.69917 0.0
H1701 H 0.74891 0.73761 0.68412 0.0
H1702 H 0.72814 0.78662 0.67515 0.0
H1703 H 0.72565 0.76359 0.68644 0.0
C1704 C 0.22659 0.02746 0.77889 0.0
C1705 C 0.22376 0.03589 0.75428 0.0
C1706 C 0.22218 0.01352 0.76938 0.0
C1707 C 0.21 0.98798 0.68982 0.0
H1708 H 0.1891 0.96065 0.76924 0.0
C1709 C 0.16665 0.92572 0.69936 0.0
C1710 C 0.17303 0.92012 0.67584 0.0
C1711 C 0.17418 0.93971 0.71148 0.0
C1712 C 0.19492 0.96816 0.74682 0.0
H1713 H 0.2148 0.03646 0.69927 0.0
H1714 H 0.20723 0.01217 0.68261 0.0
H1715 H 0.20038 0.98571 0.78375 0.0
H1716 H 0.19255 0.92473 0.64807 0.0
H1717 H 0.2056 0.94907 0.66919 0.0
H1718 H 0.20428 0.97044 0.65265 0.0
C1719 C 0.21282 0.01636 0.70933 0.0
C1720 C 0.20149 0.9825 0.7552 0.0
C1721 C 0.21712 0.03027 0.71896 0.0
C1722 C 0.18726 0.92868 0.666 0.0
C1723 C 0.19474 0.94267 0.67788 0.0
C1724 C 0.20354 0.97365 0.68154 0.0
C1725 C 0.21498 0.00774 0.7349 0.0
C1726 C 0.20896 0.99256 0.72666 0.0
C1727 C 0.18822 0.94841 0.70016 0.0
C1728 C 0.19579 0.96359 0.70983 0.0
H1729 H 0.23171 0.03143 0.80629 0.0
H1730 H 0.22416 0.00717 0.78939 0.0
H1731 H 0.21574 0.99549 0.66732 0.0
H1732 H 0.15573 0.91942 0.7076 0.0
H1733 H 0.16886 0.94387 0.7285 0.0
C1734 C 0.95275 0.20544 0.72104 0.0
C1735 C 0.94469 0.2047 0.75315 0.0
C1736 C 0.96465 0.21807 0.71109 0.0
C1737 C 0.98963 0.24591 0.69182 0.0
H1738 H 0.01189 0.26218 0.78348 0.0
C1739 C 0.04904 0.27272 0.68219 0.0
C1740 C 0.05438 0.26694 0.70879 0.0
C1741 C 0.03587 0.27143 0.6879 0.0
C1742 C 0.00582 0.25786 0.75751 0.0
H1743 H 0.94192 0.21701 0.79732 0.0
H1744 H 0.96258 0.23914 0.77943 0.0
H1745 H 0.98669 0.24716 0.789 0.0
H1746 H 0.05071 0.25664 0.76415 0.0
H1747 H 0.0278 0.25406 0.77354 0.0
H1748 H 0.00893 0.25535 0.66085 0.0
C1749 C 0.95992 0.22985 0.76265 0.0
C1750 C 0.99128 0.24937 0.76058 0.0
C1751 C 0.94804 0.21716 0.77282 0.0
C1752 C 0.04686 0.26105 0.7428 0.0
C1753 C 0.03371 0.25971 0.7484 0.0
C1754 C 0.00419 0.25423 0.68882 0.0
C1755 C 0.96873 0.23031 0.73276 0.0
C1756 C 0.98311 0.24258 0.72802 0.0
C1757 C 0.02777 0.26432 0.72024 0.0
C1758 C 0.01253 0.25956 0.72196 0.0
H1759 H 0.95042 0.19609 0.70498 0.0
H1760 H 0.97118 0.2179 0.68812 0.0
H1761 H 0.9836 0.24121 0.666 0.0
H1762 H 0.05466 0.27753 0.65592 0.0
H1763 H 0.03173 0.27536 0.66602 0.0
C1764 C 0.86363 0.57114 0.62023 0.0
C1765 C 0.86454 0.57922 0.58797 0.0
C1766 C 0.87445 0.56847 0.62881 0.0
C1767 C 0.90045 0.56409 0.5757 0.0
H1768 H 0.90615 0.55245 0.67587 0.0
C1769 C 0.91965 0.52592 0.65288 0.0
C1770 C 0.91199 0.5141 0.62927 0.0
C1771 C 0.91907 0.53818 0.64683 0.0
C1772 C 0.90501 0.55592 0.64769 0.0
H1773 H 0.87826 0.59217 0.54204 0.0
H1774 H 0.89722 0.58763 0.55739 0.0
H1775 H 0.89618 0.56775 0.67112 0.0
H1776 H 0.89852 0.50629 0.57912 0.0
H1777 H 0.89733 0.52745 0.56904 0.0
H1778 H 0.90893 0.55195 0.55224 0.0
C1779 C 0.88797 0.58306 0.57544 0.0
C1780 C 0.89914 0.56457 0.64498 0.0
C1781 C 0.8771 0.5857 0.56674 0.0
C1782 C 0.90447 0.51513 0.59805 0.0
C1783 C 0.9039 0.52736 0.59203 0.0
C1784 C 0.90641 0.55552 0.57843 0.0
C1785 C 0.88648 0.57388 0.60547 0.0
C1786 C 0.89611 0.56814 0.60891 0.0
C1787 C 0.91086 0.53889 0.61698 0.0
C1788 C 0.90806 0.55074 0.61436 0.0
H1789 H 0.85418 0.5661 0.63749 0.0
H1790 H 0.87286 0.56127 0.65202 0.0
H1791 H 0.89827 0.5666 0.5474 0.0
H1792 H 0.92566 0.52554 0.67699 0.0
H1793 H 0.92469 0.54695 0.66625 0.0
C1794 C 0.39229 0.27461 0.59402 0.0
C1795 C 0.3882 0.26754 0.55862 0.0
C1796 C 0.39617 0.28878 0.59653 0.0
C1797 C 0.41487 0.31891 0.5374 0.0
H1798 H 0.40921 0.33926 0.6196 0.0
C1799 C 0.45453 0.37719 0.55811 0.0
C1800 C 0.4584 0.38147 0.59627 0.0
C1801 C 0.44233 0.36449 0.54994 0.0
C1802 C 0.41101 0.33376 0.59653 0.0
H1803 H 0.38359 0.26945 0.49903 0.0
H1804 H 0.39065 0.29423 0.50343 0.0
H1805 H 0.39348 0.31394 0.61356 0.0
H1806 H 0.45221 0.37614 0.65573 0.0
H1807 H 0.43154 0.35378 0.64184 0.0
H1808 H 0.43302 0.33816 0.52212 0.0
C1809 C 0.39084 0.28878 0.52912 0.0
C1810 C 0.40189 0.31928 0.59294 0.0
C1811 C 0.38677 0.27457 0.52671 0.0
C1812 C 0.44948 0.37316 0.62598 0.0
C1813 C 0.4375 0.36031 0.61789 0.0
C1814 C 0.42415 0.33327 0.54145 0.0
C1815 C 0.39616 0.29615 0.56362 0.0
C1816 C 0.40395 0.31169 0.56384 0.0
C1817 C 0.43395 0.35558 0.57979 0.0
C1818 C 0.42262 0.34087 0.57175 0.0
H1819 H 0.39339 0.26947 0.61922 0.0
H1820 H 0.40027 0.29423 0.62346 0.0
H1821 H 0.41684 0.31327 0.51502 0.0
H1822 H 0.4611 0.3835 0.5346 0.0
H1823 H 0.43976 0.36148 0.52017 0.0
C1824 C 0.61013 0.05086 0.63831 0.0
C1825 C 0.60471 0.05699 0.61321 0.0
C1826 C 0.62353 0.05272 0.63233 0.0
C1827 C 0.65372 0.06775 0.56338 0.0
H1828 H 0.67591 0.08213 0.65605 0.0
C1829 C 0.70947 0.11692 0.60573 0.0
C1830 C 0.71761 0.11708 0.57449 0.0
C1831 C 0.69652 0.10506 0.61343 0.0
C1832 C 0.66988 0.07808 0.6299 0.0
H1833 H 0.60857 0.06872 0.56016 0.0
H1834 H 0.63183 0.07221 0.55027 0.0
H1835 H 0.65049 0.06873 0.66052 0.0
H1836 H 0.71909 0.1044 0.52898 0.0
H1837 H 0.69655 0.08359 0.5429 0.0
H1838 H 0.67303 0.07823 0.53249 0.0
C1839 C 0.62582 0.06586 0.57444 0.0
C1840 C 0.65527 0.0702 0.63248 0.0
C1841 C 0.61246 0.06399 0.58035 0.0
C1842 C 0.71298 0.10471 0.55294 0.0
C1843 C 0.70003 0.09279 0.56082 0.0
C1844 C 0.66832 0.07576 0.56077 0.0
C1845 C 0.63175 0.06073 0.60113 0.0
C1846 C 0.64699 0.06557 0.59908 0.0
C1847 C 0.69142 0.09299 0.5903 0.0
C1848 C 0.67653 0.08163 0.59388 0.0
H1849 H 0.60437 0.04527 0.66371 0.0
H1850 H 0.62769 0.04842 0.65307 0.0
H1851 H 0.64767 0.06403 0.53716 0.0
H1852 H 0.71273 0.12621 0.6231 0.0
H1853 H 0.69014 0.10572 0.63608 0.0
C1854 C 0.39337 0.10674 0.05448 0.0
C1855 C 0.40053 0.11861 0.07821 0.0
C1856 C 0.39421 0.09465 0.06152 0.0
C1857 C 0.41003 0.07879 0.06089 0.0
H1858 H 0.42048 0.07114 0.16033 0.0
C1859 C 0.45874 0.07521 0.08233 0.0
C1860 C 0.4606 0.06896 0.11527 0.0
C1861 C 0.44594 0.0745 0.07531 0.0
C1862 C 0.41729 0.07272 0.13225 0.0
H1863 H 0.41292 0.12653 0.13021 0.0
H1864 H 0.41472 0.10586 0.14177 0.0
H1865 H 0.40613 0.0821 0.15669 0.0
H1866 H 0.44995 0.05566 0.16428 0.0
H1867 H 0.42748 0.05423 0.15159 0.0
H1868 H 0.42137 0.0696 0.03645 0.0
C1869 C 0.40832 0.10566 0.11791 0.0
C1870 C 0.40919 0.07922 0.1302 0.0
C1871 C 0.40742 0.11766 0.11101 0.0
C1872 C 0.44895 0.06081 0.13897 0.0
C1873 C 0.43607 0.06003 0.13178 0.0
C1874 C 0.41792 0.07206 0.06294 0.0
C1875 C 0.40224 0.09423 0.09234 0.0
C1876 C 0.40636 0.08326 0.09454 0.0
C1877 C 0.43461 0.06743 0.10087 0.0
C1878 C 0.42251 0.06989 0.09861 0.0
H1879 H 0.38778 0.10702 0.02925 0.0
H1880 H 0.38916 0.08593 0.0417 0.0
H1881 H 0.40798 0.08159 0.03282 0.0
H1882 H 0.46742 0.08143 0.06316 0.0
H1883 H 0.44535 0.08046 0.05138 0.0
C1884 C 0.94427 0.38068 0.17952 0.0
C1885 C 0.94994 0.3907 0.15012 0.0
C1886 C 0.9392 0.3665 0.17146 0.0
C1887 C 0.92483 0.34343 0.08672 0.0
H1888 H 0.91479 0.31435 0.16329 0.0
C1889 C 0.88332 0.28692 0.05377 0.0
C1890 C 0.87182 0.28205 0.07895 0.0
C1891 C 0.8963 0.29841 0.06367 0.0
C1892 C 0.91765 0.32237 0.14154 0.0
H1893 H 0.95649 0.39423 0.09069 0.0
H1894 H 0.9487 0.36967 0.07716 0.0
H1895 H 0.93306 0.33845 0.17759 0.0
H1896 H 0.86532 0.28468 0.13569 0.0
H1897 H 0.88803 0.30476 0.1529 0.0
H1898 H 0.90934 0.32741 0.05095 0.0
C1899 C 0.94734 0.37251 0.10593 0.0
C1900 C 0.92804 0.3362 0.14973 0.0
C1901 C 0.95198 0.38662 0.1137 0.0
C1902 C 0.87391 0.28824 0.11547 0.0
C1903 C 0.88695 0.29967 0.12549 0.0
C1904 C 0.9147 0.32963 0.07834 0.0
C1905 C 0.94001 0.36213 0.13399 0.0
C1906 C 0.93138 0.34703 0.12294 0.0
C1907 C 0.89809 0.30517 0.09909 0.0
C1908 C 0.91066 0.31906 0.10609 0.0
H1909 H 0.94252 0.38358 0.20782 0.0
H1910 H 0.93361 0.35895 0.19396 0.0
H1911 H 0.92675 0.35136 0.06544 0.0
H1912 H 0.88216 0.28234 0.02555 0.0
H1913 H 0.90476 0.3024 0.04294 0.0
C1914 C 0.71942 0.60741 0.10287 0.0
C1915 C 0.72593 0.61256 0.06713 0.0
C1916 C 0.70499 0.60205 0.10716 0.0
C1917 C 0.67472 0.58187 0.04946 0.0
H1918 H 0.65362 0.58339 0.13651 0.0
C1919 C 0.61775 0.53828 0.06991 0.0
C1920 C 0.6138 0.53344 0.10764 0.0
C1921 C 0.62992 0.55111 0.06284 0.0
C1922 C 0.65935 0.58274 0.11209 0.0
H1923 H 0.72264 0.6175 0.00906 0.0
H1924 H 0.69743 0.6079 0.01652 0.0
H1925 H 0.6784 0.60113 0.12964 0.0
H1926 H 0.61915 0.53845 0.16763 0.0
H1927 H 0.6407 0.56032 0.1555 0.0
H1928 H 0.65634 0.56296 0.03332 0.0
C1929 C 0.70352 0.608 0.0411 0.0
C1930 C 0.6735 0.593 0.10805 0.0
C1931 C 0.71797 0.61354 0.03694 0.0
C1932 C 0.62191 0.54195 0.13821 0.0
C1933 C 0.63426 0.55459 0.13116 0.0
C1934 C 0.66071 0.57147 0.05388 0.0
C1935 C 0.69682 0.60164 0.0757 0.0
C1936 C 0.68137 0.59248 0.07708 0.0
C1937 C 0.63866 0.55921 0.09332 0.0
C1938 C 0.65289 0.57152 0.08578 0.0
H1939 H 0.72527 0.60662 0.12681 0.0
H1940 H 0.70008 0.59717 0.13414 0.0
H1941 H 0.68061 0.58108 0.02563 0.0
H1942 H 0.61157 0.53201 0.04581 0.0
H1943 H 0.63266 0.55446 0.03335 0.0
C1944 C 0.5603 0.94434 0.86549 0.0
C1945 C 0.54788 0.93753 0.88728 0.0
C1946 C 0.57173 0.9426 0.87444 0.0
C1947 C 0.58474 0.92644 0.94654 0.0
H1948 H 0.59659 0.91479 0.8558 0.0
C1949 C 0.59352 0.87883 0.90369 0.0
C1950 C 0.60031 0.87791 0.93679 0.0
C1951 C 0.59271 0.89085 0.89634 0.0
C1952 C 0.59348 0.91808 0.88147 0.0
H1953 H 0.53827 0.92461 0.93764 0.0
H1954 H 0.55786 0.9213 0.95253 0.0
H1955 H 0.58435 0.92788 0.84879 0.0
H1956 H 0.61268 0.88946 0.98632 0.0
H1957 H 0.61139 0.91057 0.97313 0.0
H1958 H 0.59265 0.91547 0.97908 0.0
C1959 C 0.55895 0.92812 0.92877 0.0
C1960 C 0.58661 0.92578 0.87748 0.0
C1961 C 0.54759 0.9299 0.91996 0.0
C1962 C 0.60721 0.88974 0.96079 0.0
C1963 C 0.60643 0.90183 0.95333 0.0
C1964 C 0.59145 0.91859 0.95051 0.0
C1965 C 0.57096 0.934 0.90529 0.0
C1966 C 0.58149 0.9294 0.90993 0.0
C1967 C 0.59873 0.90232 0.92176 0.0
C1968 C 0.59523 0.91369 0.91791 0.0
H1969 H 0.56096 0.95046 0.84039 0.0
H1970 H 0.58092 0.9475 0.85618 0.0
H1971 H 0.58127 0.92939 0.97217 0.0
H1972 H 0.58819 0.86999 0.88436 0.0
H1973 H 0.58654 0.89073 0.87198 0.0
C1974 C 0.09766 0.61603 0.92193 0.0
C1975 C 0.08848 0.60804 0.89219 0.0
C1976 C 0.0983 0.6284 0.93433 0.0
C1977 C 0.09302 0.65639 0.89724 0.0
H1978 H 0.10141 0.66974 0.00221 0.0
C1979 C 0.11314 0.71005 0.99488 0.0
C1980 C 0.12489 0.71919 0.97268 0.0
C1981 C 0.10472 0.69599 0.98417 0.0
C1982 C 0.0988 0.66611 0.97285 0.0
H1983 H 0.07221 0.60643 0.85371 0.0
H1984 H 0.07338 0.62805 0.87546 0.0
H1985 H 0.09366 0.64522 0.98813 0.0
H1986 H 0.13624 0.72102 0.92007 0.0
H1987 H 0.12162 0.69659 0.90155 0.0
H1988 H 0.09857 0.67739 0.88183 0.0
C1989 C 0.08017 0.62478 0.88882 0.0
C1990 C 0.09452 0.6521 0.96476 0.0
C1991 C 0.07947 0.61236 0.8765 0.0
C1992 C 0.12735 0.71424 0.93802 0.0
C1993 C 0.1189 0.70023 0.92723 0.0
C1994 C 0.09734 0.67042 0.90532 0.0
C1995 C 0.08982 0.6331 0.91725 0.0
C1996 C 0.09201 0.64721 0.92673 0.0
C1997 C 0.1078 0.69083 0.95089 0.0
C1998 C 0.1007 0.67553 0.94306 0.0
H1999 H 0.10468 0.61297 0.93485 0.0
H2000 H 0.10595 0.63463 0.95604 0.0
H2001 H 0.09124 0.65297 0.8676 0.0
H2002 H 0.11088 0.71352 0.02165 0.0
H2003 H 0.09611 0.68902 0.00268 0.0
C2004 C 0.28255 0.4134 0.90095 0.0
C2005 C 0.27383 0.40686 0.93273 0.0
C2006 C 0.29463 0.41254 0.89525 0.0
C2007 C 0.32025 0.40876 0.95332 0.0
H2008 H 0.33904 0.41697 0.85482 0.0
C2009 C 0.37909 0.43853 0.87853 0.0
C2010 C 0.38484 0.45025 0.90312 0.0
C2011 C 0.36549 0.42732 0.88464 0.0
C2012 C 0.33398 0.41433 0.88263 0.0
H2013 H 0.27026 0.39312 0.98134 0.0
H2014 H 0.29125 0.3914 0.9709 0.0
H2015 H 0.31379 0.40683 0.85718 0.0
H2016 H 0.38135 0.45864 0.9557 0.0
H2017 H 0.35775 0.43954 0.96562 0.0
H2018 H 0.34045 0.41636 0.97877 0.0
C2019 C 0.28893 0.39753 0.95099 0.0
C2020 C 0.31946 0.4087 0.88396 0.0
C2021 C 0.27686 0.39848 0.95688 0.0
C2022 C 0.37722 0.44989 0.93585 0.0
C2023 C 0.36364 0.43878 0.94179 0.0
C2024 C 0.33474 0.41417 0.95198 0.0
C2025 C 0.29826 0.405 0.92095 0.0
C2026 C 0.31256 0.40674 0.91932 0.0
C2027 C 0.35735 0.42764 0.91535 0.0
C2028 C 0.3419 0.4179 0.91669 0.0
H2029 H 0.2805 0.41985 0.88154 0.0
H2030 H 0.30157 0.4186 0.87205 0.0
H2031 H 0.31535 0.40732 0.98117 0.0
H2032 H 0.38476 0.43835 0.85333 0.0
H2033 H 0.36111 0.41876 0.86419 0.0
C2034 C 0.06044 0.44949 0.31709 0.0
C2035 C 0.05754 0.45737 0.34331 0.0
C2036 C 0.06441 0.43997 0.33021 0.0
C2037 C 0.08039 0.43436 0.41726 0.0
H2038 H 0.07924 0.40452 0.35537 0.0
C2039 C 0.11967 0.41294 0.39299 0.0
C2040 C 0.12219 0.41045 0.43095 0.0
C2041 C 0.10799 0.41422 0.38418 0.0
C2042 C 0.07949 0.41273 0.37312 0.0
H2043 H 0.05507 0.46056 0.40344 0.0
H2044 H 0.06099 0.44326 0.42644 0.0
H2045 H 0.06472 0.41467 0.33752 0.0
H2046 H 0.11394 0.40647 0.48899 0.0
H2047 H 0.09369 0.40907 0.47364 0.0
H2048 H 0.09521 0.43244 0.45263 0.0
C2049 C 0.061 0.4449 0.3958 0.0
C2050 C 0.07128 0.41865 0.36278 0.0
C2051 C 0.05746 0.45471 0.38269 0.0
C2052 C 0.11231 0.4084 0.45948 0.0
C2053 C 0.10074 0.40992 0.45076 0.0
C2054 C 0.08834 0.42825 0.42795 0.0
C2055 C 0.06522 0.4379 0.36986 0.0
C2056 C 0.07197 0.42988 0.38402 0.0
C2057 C 0.09871 0.41324 0.41325 0.0
C2058 C 0.0883 0.41769 0.40538 0.0
H2059 H 0.06065 0.45144 0.28654 0.0
H2060 H 0.06768 0.43495 0.30919 0.0
H2061 H 0.08154 0.44314 0.43406 0.0
H2062 H 0.12704 0.41446 0.37033 0.0
H2063 H 0.10673 0.41689 0.35509 0.0
C2064 C 0.55461 0.61313 0.37657 0.0
C2065 C 0.54302 0.60827 0.40139 0.0
C2066 C 0.56672 0.62609 0.38314 0.0
C2067 C 0.58222 0.65777 0.3825 0.0
H2068 H 0.59078 0.67601 0.48183 0.0
C2069 C 0.586 0.71021 0.40514 0.0
C2070 C 0.59264 0.71843 0.43764 0.0
C2071 C 0.5865 0.69801 0.39788 0.0
C2072 C 0.58893 0.6712 0.45373 0.0
H2073 H 0.5357 0.61247 0.45489 0.0
H2074 H 0.55638 0.63501 0.46565 0.0
H2075 H 0.5801 0.6507 0.47829 0.0
H2076 H 0.60635 0.72111 0.4856 0.0
H2077 H 0.60746 0.69992 0.47242 0.0
H2078 H 0.59091 0.67825 0.35795 0.0
C2079 C 0.55635 0.62891 0.44126 0.0
C2080 C 0.58259 0.65659 0.45176 0.0
C2081 C 0.54434 0.61595 0.43485 0.0
C2082 C 0.60091 0.71488 0.46066 0.0
C2083 C 0.6015 0.70269 0.45319 0.0
C2084 C 0.58879 0.67239 0.38445 0.0
C2085 C 0.56743 0.63446 0.41454 0.0
C2086 C 0.57824 0.64965 0.41625 0.0
C2087 C 0.59377 0.69377 0.42272 0.0
C2088 C 0.5913 0.67919 0.42015 0.0
H2089 H 0.55405 0.60736 0.35082 0.0
H2090 H 0.57519 0.62988 0.36247 0.0
H2091 H 0.57916 0.65287 0.35453 0.0
H2092 H 0.57964 0.71268 0.38654 0.0
H2093 H 0.58027 0.69141 0.37433 0.0
C2094 C 0.3771 0.9184 0.42817 0.0
C2095 C 0.3845 0.92504 0.39455 0.0
C2096 C 0.36605 0.92017 0.44068 0.0
C2097 C 0.34416 0.92692 0.46746 0.0
H2098 H 0.31858 0.92143 0.38409 0.0
C2099 C 0.28595 0.90417 0.49882 0.0
C2100 C 0.27772 0.89217 0.47636 0.0
C2101 C 0.29962 0.91399 0.48749 0.0
C2102 C 0.32563 0.92309 0.40775 0.0
H2103 H 0.38684 0.93971 0.34952 0.0
H2104 H 0.36763 0.94292 0.37171 0.0
H2105 H 0.3427 0.928 0.36981 0.0
H2106 H 0.27683 0.88188 0.42245 0.0
H2107 H 0.30053 0.89869 0.40317 0.0
H2108 H 0.32675 0.92071 0.50515 0.0
C2109 C 0.37019 0.9361 0.3879 0.0
C2110 C 0.33955 0.92703 0.3996 0.0
C2111 C 0.38123 0.93428 0.37526 0.0
C2112 C 0.28294 0.8909 0.44072 0.0
C2113 C 0.29655 0.90067 0.42944 0.0
C2114 C 0.33021 0.92284 0.47558 0.0
C2115 C 0.36217 0.9287 0.42004 0.0
C2116 C 0.34877 0.92826 0.42926 0.0
C2117 C 0.30527 0.91201 0.45345 0.0
C2118 C 0.3206 0.92015 0.44565 0.0
H2119 H 0.37937 0.91128 0.44392 0.0
H2120 H 0.36002 0.91414 0.46525 0.0
H2121 H 0.35109 0.92814 0.49104 0.0
H2122 H 0.28219 0.90556 0.52628 0.0
H2123 H 0.30599 0.92274 0.50631 0.0
C2124 C 0.2899 0.16925 0.21907 0.0
C2125 C 0.29226 0.17551 0.25556 0.0
C2126 C 0.30035 0.16781 0.20067 0.0
C2127 C 0.3326 0.16648 0.21818 0.0
H2128 H 0.33816 0.17384 0.10883 0.0
C2129 C 0.37824 0.16703 0.13458 0.0
C2130 C 0.37524 0.16088 0.09785 0.0
C2131 C 0.36827 0.16885 0.15456 0.0
C2132 C 0.33663 0.17159 0.13928 0.0
H2133 H 0.30753 0.18514 0.30133 0.0
H2134 H 0.32589 0.18269 0.26889 0.0
H2135 H 0.32078 0.17737 0.14253 0.0
H2136 H 0.35925 0.15161 0.05367 0.0
H2137 H 0.3418 0.15466 0.08875 0.0
H2138 H 0.34843 0.16065 0.21483 0.0
C2139 C 0.31585 0.1788 0.25478 0.0
C2140 C 0.32669 0.17364 0.15861 0.0
C2141 C 0.30536 0.18027 0.27326 0.0
C2142 C 0.36194 0.15642 0.08181 0.0
C2143 C 0.35197 0.15826 0.10181 0.0
C2144 C 0.34255 0.16443 0.19882 0.0
C2145 C 0.31345 0.1726 0.21821 0.0
C2146 C 0.32448 0.17101 0.19821 0.0
C2147 C 0.35506 0.16457 0.13831 0.0
C2148 C 0.3446 0.16687 0.15909 0.0
H2149 H 0.27994 0.1654 0.20453 0.0
H2150 H 0.29808 0.16277 0.17281 0.0
H2151 H 0.33102 0.1642 0.2486 0.0
H2152 H 0.38838 0.1706 0.14786 0.0
H2153 H 0.37103 0.17388 0.18243 0.0
C2154 C 0.82069 0.21193 0.11698 0.0
C2155 C 0.82748 0.21599 0.08117 0.0
C2156 C 0.81953 0.20032 0.13639 0.0
C2157 C 0.82097 0.16781 0.12341 0.0
H2158 H 0.82746 0.1711 0.23334 0.0
C2159 C 0.82601 0.12615 0.21156 0.0
C2160 C 0.81951 0.12253 0.24784 0.0
C2161 C 0.82678 0.13738 0.19089 0.0
C2162 C 0.82544 0.16995 0.20275 0.0
H2163 H 0.83819 0.21082 0.03747 0.0
H2164 H 0.83625 0.19052 0.07171 0.0
H2165 H 0.82931 0.19095 0.19741 0.0
H2166 H 0.80869 0.12792 0.29065 0.0
H2167 H 0.80996 0.14751 0.25434 0.0
H2168 H 0.81713 0.14679 0.12881 0.0
C2169 C 0.83173 0.19632 0.0845 0.0
C2170 C 0.82652 0.18133 0.18212 0.0
C2171 C 0.83289 0.20798 0.06495 0.0
C2172 C 0.81379 0.13043 0.26288 0.0
C2173 C 0.81459 0.1417 0.24215 0.0
C2174 C 0.81989 0.15642 0.14405 0.0
C2175 C 0.82515 0.19245 0.12063 0.0
C2176 C 0.82425 0.18039 0.14224 0.0
C2177 C 0.8211 0.1453 0.20592 0.0
C2178 C 0.8221 0.15735 0.18398 0.0
H2179 H 0.81629 0.21776 0.13033 0.0
H2180 H 0.81416 0.19748 0.1638 0.0
H2181 H 0.81898 0.16669 0.0928 0.0
H2182 H 0.83057 0.12034 0.19902 0.0
H2183 H 0.83204 0.14 0.16333 0.0
C2184 C 0.80042 0.64648 0.12714 0.0
C2185 C 0.79625 0.64876 0.09091 0.0
C2186 C 0.81185 0.65732 0.1463 0.0
C2187 C 0.84404 0.69138 0.12941 0.0
H2188 H 0.8431 0.69515 0.23989 0.0
C2189 C 0.88687 0.7391 0.21218 0.0
C2190 C 0.8913 0.73666 0.24784 0.0
C2191 C 0.87548 0.72828 0.19286 0.0
C2192 C 0.8436 0.69413 0.20909 0.0
H2193 H 0.80078 0.66439 0.04683 0.0
H2194 H 0.82066 0.6834 0.08063 0.0
H2195 H 0.82254 0.67687 0.20676 0.0
H2196 H 0.88726 0.72079 0.29074 0.0
H2197 H 0.86737 0.70183 0.25676 0.0
H2198 H 0.86508 0.70872 0.13177 0.0
C2199 C 0.81517 0.67312 0.09388 0.0
C2200 C 0.8318 0.68366 0.19006 0.0
C2201 C 0.8037 0.66225 0.07462 0.0
C2202 C 0.88414 0.72305 0.26339 0.0
C2203 C 0.87268 0.71221 0.24404 0.0
C2204 C 0.85582 0.70188 0.14843 0.0
C2205 C 0.81943 0.67075 0.12986 0.0
C2206 C 0.83188 0.68214 0.14998 0.0
C2207 C 0.86818 0.71473 0.20865 0.0
C2208 C 0.85575 0.70337 0.18851 0.0
H2209 H 0.79498 0.63624 0.14063 0.0
H2210 H 0.81494 0.65505 0.17369 0.0
H2211 H 0.84456 0.69036 0.09862 0.0
H2212 H 0.8921 0.74945 0.19924 0.0
H2213 H 0.8722 0.73064 0.1659 0.0
C2214 C 0.16559 0.3833 0.36966 0.0
C2215 C 0.16035 0.38103 0.40741 0.0
C2216 C 0.16584 0.37255 0.34908 0.0
C2217 C 0.16574 0.33927 0.36172 0.0
H2218 H 0.15622 0.33436 0.25348 0.0
C2219 C 0.1613 0.29268 0.27427 0.0
C2220 C 0.16696 0.2955 0.23696 0.0
C2221 C 0.16016 0.3029 0.29507 0.0
C2222 C 0.15906 0.33569 0.28358 0.0
H2223 H 0.15118 0.36557 0.45293 0.0
H2224 H 0.15155 0.34675 0.41678 0.0
H2225 H 0.15453 0.35236 0.28995 0.0
H2226 H 0.17584 0.31136 0.19234 0.0
H2227 H 0.17394 0.32925 0.22884 0.0
H2228 H 0.17034 0.32265 0.35531 0.0
C2229 C 0.15558 0.35693 0.40333 0.0
C2230 C 0.15807 0.346 0.3045 0.0
C2231 C 0.1553 0.3677 0.42397 0.0
C2232 C 0.17141 0.3088 0.22094 0.0
C2233 C 0.17025 0.31904 0.24179 0.0
C2234 C 0.16673 0.32897 0.34079 0.0
C2235 C 0.16088 0.35925 0.36566 0.0
C2236 C 0.16146 0.34795 0.34378 0.0
C2237 C 0.16463 0.31621 0.27912 0.0
C2238 C 0.16345 0.32709 0.30143 0.0
H2239 H 0.16959 0.39343 0.35592 0.0
H2240 H 0.17018 0.37475 0.32034 0.0
H2241 H 0.16863 0.34065 0.39178 0.0
H2242 H 0.15772 0.28254 0.28755 0.0
H2243 H 0.1556 0.30031 0.32354 0.0
C2244 C 0.61181 0.78786 0.38921 0.0
C2245 C 0.61449 0.78481 0.42645 0.0
C2246 C 0.62215 0.79925 0.36875 0.0
C2247 C 0.65514 0.83286 0.37988 0.0
H2248 H 0.6604 0.82733 0.27254 0.0
C2249 C 0.70283 0.87347 0.29291 0.0
C2250 C 0.70068 0.8759 0.25452 0.0
C2251 C 0.6921 0.86262 0.31396 0.0
C2252 C 0.65895 0.82912 0.30232 0.0
H2253 H 0.63015 0.79155 0.47152 0.0
H2254 H 0.64828 0.81146 0.43558 0.0
H2255 H 0.64219 0.80798 0.3095 0.0
H2256 H 0.68539 0.86886 0.2084 0.0
H2257 H 0.66657 0.85001 0.24539 0.0
H2258 H 0.67188 0.85401 0.37269 0.0
C2259 C 0.63809 0.80504 0.42243 0.0
C2260 C 0.64853 0.81801 0.32353 0.0
C2261 C 0.62773 0.79359 0.44294 0.0
C2262 C 0.68745 0.86727 0.23782 0.0
C2263 C 0.67668 0.8564 0.25896 0.0
C2264 C 0.66554 0.84398 0.35863 0.0
C2265 C 0.63544 0.80791 0.38498 0.0
C2266 C 0.64652 0.81975 0.36256 0.0
C2267 C 0.6789 0.85393 0.29725 0.0
C2268 C 0.66759 0.84223 0.31962 0.0
H2269 H 0.60173 0.78139 0.37556 0.0
H2270 H 0.61971 0.8013 0.34021 0.0
H2271 H 0.65371 0.83458 0.40974 0.0
H2272 H 0.71286 0.87992 0.30685 0.0
H2273 H 0.69424 0.8609 0.34319 0.0
C2274 C 0.20065 0.84603 0.44553 0.0
C2275 C 0.20954 0.85832 0.46603 0.0
C2276 C 0.19124 0.84588 0.41858 0.0
C2277 C 0.18753 0.86886 0.35132 0.0
H2278 H 0.15001 0.83711 0.33777 0.0
C2279 C 0.15073 0.86572 0.22805 0.0
C2280 C 0.14205 0.85251 0.21138 0.0
C2281 C 0.15891 0.86704 0.26014 0.0
C2282 C 0.16054 0.84595 0.34079 0.0
H2283 H 0.21521 0.87997 0.47566 0.0
H2284 H 0.1987 0.87979 0.42776 0.0
H2285 H 0.16343 0.83851 0.39488 0.0
H2286 H 0.13539 0.83036 0.21462 0.0
H2287 H 0.14961 0.83263 0.27065 0.0
H2288 H 0.18483 0.87614 0.29678 0.0
C2289 C 0.19908 0.87027 0.43278 0.0
C2290 C 0.16816 0.84682 0.37372 0.0
C2291 C 0.20842 0.87035 0.46031 0.0
C2292 C 0.14193 0.84068 0.22694 0.0
C2293 C 0.14999 0.84198 0.25927 0.0
C2294 C 0.17993 0.86796 0.31822 0.0
C2295 C 0.19058 0.85808 0.41121 0.0
C2296 C 0.18181 0.85816 0.37902 0.0
C2297 C 0.15843 0.85514 0.27663 0.0
C2298 C 0.16643 0.85637 0.31225 0.0
H2299 H 0.20121 0.83657 0.44962 0.0
H2300 H 0.18494 0.83638 0.40222 0.0
H2301 H 0.19811 0.87763 0.35442 0.0
H2302 H 0.15116 0.87506 0.21644 0.0
H2303 H 0.16524 0.87735 0.27272 0.0
C2304 C 0.70428 0.834 0.72559 0.0
C2305 C 0.7173 0.83877 0.74375 0.0
C2306 C 0.69328 0.8343 0.74492 0.0
C2307 C 0.68609 0.85119 0.8267 0.0
H2308 H 0.64859 0.81881 0.82201 0.0
C2309 C 0.64197 0.84448 0.92916 0.0
C2310 C 0.62846 0.83911 0.91357 0.0
C2311 C 0.65272 0.84459 0.90749 0.0
C2312 C 0.65897 0.82801 0.82326 0.0
H2313 H 0.72894 0.84765 0.79654 0.0
H2314 H 0.70983 0.84807 0.82999 0.0
H2315 H 0.66745 0.81893 0.78497 0.0
H2316 H 0.61571 0.82968 0.86276 0.0
H2317 H 0.63446 0.83004 0.82505 0.0
H2318 H 0.67765 0.86026 0.86505 0.0
C2319 C 0.70814 0.84425 0.80071 0.0
C2320 C 0.66977 0.82807 0.80199 0.0
C2321 C 0.71908 0.84392 0.78153 0.0
C2322 C 0.62596 0.83385 0.87582 0.0
C2323 C 0.6367 0.83398 0.8542 0.0
C2324 C 0.6753 0.85113 0.84791 0.0
C2325 C 0.69511 0.83943 0.7827 0.0
C2326 C 0.68347 0.83962 0.80372 0.0
C2327 C 0.65021 0.83936 0.86974 0.0
C2328 C 0.66163 0.8395 0.84665 0.0
H2329 H 0.70254 0.82999 0.69652 0.0
H2330 H 0.68338 0.83062 0.73018 0.0
H2331 H 0.6965 0.86034 0.82816 0.0
H2332 H 0.64427 0.84857 0.95815 0.0
H2333 H 0.66297 0.84864 0.92051 0.0
C2334 C 0.13855 0.78783 0.95641 0.0
C2335 C 0.15099 0.78725 0.95902 0.0
C2336 C 0.13743 0.79676 0.92968 0.0
C2337 C 0.15834 0.82818 0.87017 0.0
H2338 H 0.12762 0.81107 0.7974 0.0
C2339 C 0.16076 0.85461 0.72601 0.0
C2340 C 0.14846 0.85393 0.71208 0.0
C2341 C 0.16031 0.84673 0.75799 0.0
C2342 C 0.13616 0.8161 0.81777 0.0
H2343 H 0.1722 0.79601 0.93696 0.0
H2344 H 0.1703 0.81166 0.89123 0.0
H2345 H 0.12798 0.79757 0.85264 0.0
H2346 H 0.12595 0.844 0.71986 0.0
H2347 H 0.12515 0.83033 0.77586 0.0
H2348 H 0.16656 0.84669 0.83564 0.0
C2349 C 0.1614 0.8052 0.90951 0.0
C2350 C 0.13633 0.80836 0.84945 0.0
C2351 C 0.16244 0.79616 0.93559 0.0
C2352 C 0.13564 0.84489 0.73021 0.0
C2353 C 0.13517 0.83694 0.76209 0.0
C2354 C 0.15811 0.83595 0.83876 0.0
C2355 C 0.14883 0.80545 0.9058 0.0
C2356 C 0.14759 0.81423 0.87545 0.0
C2357 C 0.14753 0.83792 0.77676 0.0
C2358 C 0.1472 0.8299 0.8116 0.0
H2359 H 0.12955 0.78104 0.97397 0.0
H2360 H 0.12763 0.7968 0.92742 0.0
H2361 H 0.16705 0.83303 0.8901 0.0
H2362 H 0.17081 0.86143 0.71262 0.0
H2363 H 0.17 0.84751 0.76789 0.0
C2364 C 0.19611 0.37364 0.92772 0.0
C2365 C 0.20811 0.38413 0.90914 0.0
C2366 C 0.18511 0.36307 0.90645 0.0
C2367 C 0.17158 0.35357 0.80576 0.0
H2368 H 0.15 0.31643 0.84997 0.0
C2369 C 0.12927 0.2925 0.75894 0.0
C2370 C 0.12144 0.29505 0.73162 0.0
C2371 C 0.13976 0.30353 0.78011 0.0
C2372 C 0.15604 0.32667 0.83681 0.0
H2373 H 0.21814 0.39165 0.85384 0.0
H2374 H 0.19948 0.37292 0.81709 0.0
H2375 H 0.16857 0.33503 0.88712 0.0
H2376 H 0.11833 0.31109 0.70511 0.0
H2377 H 0.13614 0.3303 0.74335 0.0
H2378 H 0.15971 0.34499 0.75451 0.0
C2379 C 0.19815 0.37306 0.84783 0.0
C2380 C 0.16656 0.33748 0.85856 0.0
C2381 C 0.20896 0.38378 0.86898 0.0
C2382 C 0.12433 0.30886 0.72575 0.0
C2383 C 0.1346 0.31988 0.74761 0.0
C2384 C 0.16128 0.34269 0.7837 0.0
C2385 C 0.18602 0.36257 0.86617 0.0
C2386 C 0.17452 0.3511 0.84335 0.0
C2387 C 0.14246 0.31737 0.7752 0.0
C2388 C 0.15336 0.32906 0.79885 0.0
H2389 H 0.19513 0.37372 0.95864 0.0
H2390 H 0.17586 0.35538 0.92168 0.0
H2391 H 0.17723 0.36395 0.79315 0.0
H2392 H 0.12735 0.28195 0.76378 0.0
H2393 H 0.14579 0.30116 0.80017 0.0
C2394 C 0.82802 0.70089 0.72195 0.0
C2395 C 0.82117 0.69827 0.75763 0.0
C2396 C 0.82888 0.69025 0.70257 0.0
C2397 C 0.82675 0.65606 0.71695 0.0
H2398 H 0.82151 0.65295 0.60655 0.0
C2399 C 0.82183 0.60905 0.63081 0.0
C2400 C 0.82869 0.61183 0.59508 0.0
C2401 C 0.82109 0.61963 0.65087 0.0
C2402 C 0.82317 0.65378 0.6373 0.0
H2403 H 0.80983 0.68233 0.80085 0.0
H2404 H 0.81121 0.66367 0.76667 0.0
H2405 H 0.8195 0.67108 0.64131 0.0
H2406 H 0.84027 0.62802 0.55268 0.0
H2407 H 0.83907 0.64657 0.58797 0.0
H2408 H 0.83038 0.63872 0.71291 0.0
C2409 C 0.81606 0.67405 0.75399 0.0
C2410 C 0.822 0.66416 0.65724 0.0
C2411 C 0.8152 0.68472 0.77348 0.0
C2412 C 0.83489 0.62551 0.58004 0.0
C2413 C 0.83413 0.63611 0.60016 0.0
C2414 C 0.8279 0.64566 0.697 0.0
C2415 C 0.82288 0.6767 0.71826 0.0
C2416 C 0.82382 0.66545 0.69729 0.0
C2417 C 0.82719 0.63327 0.63576 0.0
C2418 C 0.82615 0.64443 0.65693 0.0
H2419 H 0.83281 0.71119 0.70886 0.0
H2420 H 0.8344 0.69272 0.67542 0.0
H2421 H 0.82841 0.6569 0.74771 0.0
H2422 H 0.81691 0.59865 0.64334 0.0
H2423 H 0.81552 0.61705 0.67796 0.0
C2424 C 0.26423 0.10937 0.70771 0.0
C2425 C 0.26595 0.10505 0.74436 0.0
C2426 C 0.27557 0.12028 0.68847 0.0
C2427 C 0.3101 0.15146 0.70553 0.0
H2428 H 0.31493 0.14931 0.59595 0.0
C2429 C 0.35857 0.19399 0.62446 0.0
C2430 C 0.35655 0.19785 0.58751 0.0
C2431 C 0.34766 0.18257 0.64352 0.0
C2432 C 0.31364 0.15016 0.62646 0.0
H2433 H 0.28111 0.10876 0.78917 0.0
H2434 H 0.30098 0.12785 0.75538 0.0
H2435 H 0.29593 0.12933 0.62924 0.0
H2436 H 0.34133 0.19273 0.54189 0.0
H2437 H 0.3222 0.17293 0.57547 0.0
H2438 H 0.32768 0.17233 0.70275 0.0
C2439 C 0.29076 0.1228 0.74177 0.0
C2440 C 0.30277 0.13868 0.64557 0.0
C2441 C 0.27939 0.11181 0.76102 0.0
C2442 C 0.34328 0.19004 0.57025 0.0
C2443 C 0.33233 0.17862 0.58941 0.0
C2444 C 0.32094 0.16296 0.6864 0.0
C2445 C 0.28895 0.12721 0.70536 0.0
C2446 C 0.30084 0.13921 0.68531 0.0
C2447 C 0.3344 0.17472 0.62626 0.0
C2448 C 0.32283 0.16247 0.6466 0.0
H2449 H 0.25404 0.10444 0.69391 0.0
H2450 H 0.27377 0.12351 0.66069 0.0
H2451 H 0.30877 0.15229 0.73603 0.0
H2452 H 0.36865 0.1997 0.63869 0.0
H2453 H 0.34971 0.17976 0.67159 0.0
C2454 C 0.87494 0.15306 0.7166 0.0
C2455 C 0.87846 0.15969 0.75271 0.0
C2456 C 0.86312 0.15124 0.69683 0.0
C2457 C 0.82937 0.15015 0.70974 0.0
H2458 H 0.83303 0.15892 0.60104 0.0
C2459 C 0.78808 0.15697 0.62645 0.0
C2460 C 0.78491 0.15197 0.5885 0.0
C2461 C 0.79901 0.15688 0.64637 0.0
C2462 C 0.83176 0.15621 0.63123 0.0
H2463 H 0.87215 0.16943 0.7965 0.0
H2464 H 0.8515 0.1663 0.76178 0.0
H2465 H 0.85301 0.16079 0.63635 0.0
H2466 H 0.79064 0.14268 0.54208 0.0
H2467 H 0.80969 0.14236 0.57719 0.0
H2468 H 0.80814 0.14562 0.70469 0.0
C2469 C 0.85788 0.16243 0.74899 0.0
C2470 C 0.84322 0.15732 0.65149 0.0
C2471 C 0.86974 0.16429 0.76879 0.0
C2472 C 0.79283 0.14666 0.57119 0.0
C2473 C 0.80379 0.14655 0.59123 0.0
C2474 C 0.8179 0.14901 0.68947 0.0
C2475 C 0.8545 0.15598 0.71268 0.0
C2476 C 0.84219 0.15441 0.69103 0.0
C2477 C 0.80705 0.15173 0.629 0.0
C2478 C 0.81899 0.15215 0.65004 0.0
H2479 H 0.88135 0.14932 0.70332 0.0
H2480 H 0.86069 0.14606 0.66916 0.0
H2481 H 0.82819 0.14762 0.74005 0.0
H2482 H 0.78219 0.16109 0.64085 0.0
H2483 H 0.80135 0.16113 0.6752 0.0
C2484 C 0.02553 0.49516 0.40516 0.0
C2485 C 0.02201 0.48842 0.36923 0.0
C2486 C 0.01514 0.49376 0.43053 0.0
C2487 C 0.97787 0.47091 0.45451 0.0
H2488 H 0.98393 0.50304 0.51524 0.0
C2489 C 0.93561 0.47028 0.55413 0.0
C2490 C 0.93999 0.47688 0.59016 0.0
C2491 C 0.94539 0.47138 0.52689 0.0
C2492 C 0.98216 0.49394 0.49881 0.0
H2493 H 0.00468 0.47497 0.33175 0.0
H2494 H 0.98641 0.47264 0.37622 0.0
H2495 H 0.00101 0.50586 0.46648 0.0
H2496 H 0.95814 0.4896 0.62591 0.0
H2497 H 0.97528 0.49147 0.57821 0.0
H2498 H 0.95897 0.45902 0.48689 0.0
C2499 C 0.9973 0.4789 0.38473 0.0
C2500 C 0.99192 0.49555 0.4708 0.0
C2501 C 0.00776 0.4803 0.35918 0.0
C2502 C 0.95441 0.48441 0.5985 0.0
C2503 C 0.96422 0.48555 0.57108 0.0
C2504 C 0.96807 0.46931 0.48248 0.0
C2505 C 0.0009 0.48562 0.42073 0.0
C2506 C 0.98998 0.48403 0.44859 0.0
C2507 C 0.95981 0.47914 0.53489 0.0
C2508 C 0.97018 0.48079 0.50515 0.0
H2509 H 0.03637 0.50145 0.41411 0.0
H2510 H 0.01829 0.49886 0.45825 0.0
H2511 H 0.97615 0.46179 0.43826 0.0
H2512 H 0.92458 0.46438 0.5466 0.0
H2513 H 0.94165 0.46645 0.49917 0.0
C2514 C 0.50542 0.5326 0.39818 0.0
C2515 C 0.50036 0.54086 0.4147 0.0
C2516 C 0.50462 0.5212 0.41827 0.0
C2517 C 0.50127 0.50717 0.51646 0.0
H2518 H 0.49093 0.47229 0.46373 0.0
C2519 C 0.4921 0.45704 0.59648 0.0
C2520 C 0.49761 0.44932 0.57898 0.0
C2521 C 0.49198 0.46809 0.57685 0.0
C2522 C 0.49396 0.482 0.47882 0.0
H2523 H 0.49031 0.54345 0.46529 0.0
H2524 H 0.48884 0.52359 0.49988 0.0
H2525 H 0.49168 0.49176 0.42831 0.0
H2526 H 0.50742 0.44729 0.52708 0.0
H2527 H 0.50733 0.46654 0.49338 0.0
H2528 H 0.50364 0.49744 0.56693 0.0
C2529 C 0.4936 0.52603 0.47166 0.0
C2530 C 0.4944 0.49316 0.45849 0.0
C2531 C 0.49438 0.53738 0.45163 0.0
C2532 C 0.50303 0.45294 0.54151 0.0
C2533 C 0.5029 0.46394 0.52198 0.0
C2534 C 0.50084 0.49601 0.5368 0.0
C2535 C 0.49876 0.51784 0.45532 0.0
C2536 C 0.49812 0.5059 0.47702 0.0
C2537 C 0.49734 0.47162 0.53931 0.0
C2538 C 0.49727 0.48332 0.51815 0.0
H2539 H 0.5101 0.53498 0.36986 0.0
H2540 H 0.50882 0.51518 0.40503 0.0
H2541 H 0.50436 0.51691 0.53149 0.0
H2542 H 0.48782 0.45452 0.62525 0.0
H2543 H 0.48752 0.47374 0.59088 0.0
C2544 C 0.52991 0.01462 0.59204 0.0
C2545 C 0.53789 0.02867 0.57999 0.0
C2546 C 0.51962 0.0045 0.56805 0.0
C2547 C 0.49708 0.00082 0.48536 0.0
H2548 H 0.49276 0.96372 0.47701 0.0
C2549 C 0.45802 0.95947 0.3788 0.0
C2550 C 0.44989 0.94577 0.39321 0.0
C2551 C 0.46948 0.96964 0.3997 0.0
C2552 C 0.49377 0.974 0.47924 0.0
H2553 H 0.54132 0.04304 0.53299 0.0
H2554 H 0.52351 0.02541 0.49134 0.0
H2555 H 0.51115 0.9813 0.51794 0.0
H2556 H 0.44767 0.93195 0.44064 0.0
H2557 H 0.46742 0.94963 0.47694 0.0
H2558 H 0.47962 0.9935 0.44705 0.0
C2559 C 0.52508 0.02224 0.51948 0.0
C2560 C 0.50429 0.98406 0.50274 0.0
C2561 C 0.53536 0.03234 0.54337 0.0
C2562 C 0.45367 0.94239 0.42855 0.0
C2563 C 0.46509 0.95252 0.44935 0.0
C2564 C 0.48655 0.99076 0.46191 0.0
C2565 C 0.51707 0.00822 0.53155 0.0
C2566 C 0.50602 0.99756 0.5062 0.0
C2567 C 0.47305 0.9663 0.43538 0.0
C2568 C 0.48472 0.9772 0.45874 0.0
H2569 H 0.53156 0.01142 0.62004 0.0
H2570 H 0.51352 0.99381 0.57835 0.0
H2571 H 0.49802 0.01107 0.48782 0.0
H2572 H 0.45544 0.96242 0.35165 0.0
H2573 H 0.47553 0.98012 0.38793 0.0
C2574 C 0.51371 0.05348 0.06296 0.0
C2575 C 0.50667 0.04957 0.09845 0.0
C2576 C 0.51476 0.04365 0.0401 0.0
C2577 C 0.51189 0.00873 0.04191 0.0
H2578 H 0.50597 0.0096 0.9324 0.0
C2579 C 0.50375 0.96378 0.94121 0.0
C2580 C 0.5105 0.96735 0.90527 0.0
C2581 C 0.50369 0.97402 0.96467 0.0
C2582 C 0.50782 0.00933 0.96283 0.0
H2583 H 0.49545 0.03224 0.13801 0.0
H2584 H 0.49716 0.01497 0.09778 0.0
H2585 H 0.50514 0.02694 0.97414 0.0
H2586 H 0.52241 0.98456 0.86583 0.0
H2587 H 0.52235 0.00251 0.90705 0.0
H2588 H 0.51447 0.99103 0.03056 0.0
C2589 C 0.50199 0.02573 0.0879 0.0
C2590 C 0.50734 0.01926 0.9868 0.0
C2591 C 0.50096 0.03561 0.11091 0.0
C2592 C 0.5171 0.98144 0.89327 0.0
C2593 C 0.51702 0.99171 0.91682 0.0
C2594 C 0.51235 0.99878 0.01794 0.0
C2595 C 0.50876 0.02962 0.05201 0.0
C2596 C 0.50935 0.01907 0.02663 0.0
C2597 C 0.51037 0.98811 0.95287 0.0
C2598 C 0.51027 0.99894 0.97815 0.0
H2599 H 0.51833 0.06415 0.05248 0.0
H2600 H 0.52028 0.04707 0.013 0.0
H2601 H 0.5137 0.00842 0.07236 0.0
H2602 H 0.49849 0.95304 0.95144 0.0
H2603 H 0.49827 0.97086 0.99196 0.0
C2604 C 0.99794 0.46906 0.13642 0.0
C2605 C 0.98651 0.4582 0.11672 0.0
C2606 C 0.00953 0.47934 0.11611 0.0
C2607 C 0.02554 0.50418 0.06038 0.0
H2608 H 0.0423 0.49469 0.97602 0.0
C2609 C 0.05422 0.54176 0.93528 0.0
C2610 C 0.06705 0.54323 0.92322 0.0
C2611 C 0.04598 0.53159 0.96233 0.0
C2612 C 0.03783 0.4975 -0.00026 0.0
H2613 H 0.97856 0.4492 0.06055 0.0
H2614 H -0.00119 0.46698 0.02535 0.0
H2615 H 0.02524 0.4761 0.01796 0.0
H2616 H 0.08131 0.53518 0.92942 0.0
H2617 H 0.06668 0.51708 0.9765 0.0
H2618 H 0.03766 0.52548 0.04123 0.0
C2619 C -0.00122 0.46762 0.05638 0.0
C2620 C 0.02804 0.48688 0.02357 0.0
C2621 C 0.98713 0.45752 0.07654 0.0
C2622 C 0.07148 0.53429 0.9385 0.0
C2623 C 0.06309 0.52391 0.96514 0.0
C2624 C 0.03514 0.51476 0.03616 0.0
C2625 C 0.01 0.47874 0.07587 0.0
C2626 C 0.02163 0.4901 0.05371 0.0
C2627 C 0.05028 0.52251 0.97737 0.0
C2628 C 0.0412 0.51149 0.00523 0.0
H2629 H 0.99774 0.46986 0.16738 0.0
H2630 H 0.01807 0.48782 0.13178 0.0
H2631 H 0.02071 0.50694 0.08326 0.0
H2632 H 0.05057 0.54854 0.9239 0.0
H2633 H 0.03609 0.53066 0.97094 0.0
C2634 C 0.54327 0.48726 0.04472 0.0
C2635 C 0.54658 0.49227 0.08263 0.0
C2636 C 0.53189 0.4868 0.02574 0.0
C2637 C 0.49859 0.48634 0.04279 0.0
H2638 H 0.50218 0.49665 0.9352 0.0
C2639 C 0.45646 0.49272 0.9611 0.0
C2640 C 0.45324 0.48745 0.92342 0.0
C2641 C 0.46769 0.49313 0.98087 0.0
C2642 C 0.50096 0.49358 0.96512 0.0
H2643 H 0.54046 0.50076 0.13021 0.0
H2644 H 0.52063 0.5001 0.0968 0.0
H2645 H 0.52221 0.49811 0.96922 0.0
H2646 H 0.45925 0.47832 0.87719 0.0
H2647 H 0.47883 0.47897 0.91186 0.0
H2648 H 0.47734 0.48186 0.03864 0.0
C2649 C 0.52679 0.49637 0.082 0.0
C2650 C 0.51244 0.49443 0.98464 0.0
C2651 C 0.5382 0.49683 0.10107 0.0
C2652 C 0.46145 0.48247 0.90612 0.0
C2653 C 0.47272 0.48292 0.9259 0.0
C2654 C 0.48711 0.48551 0.02326 0.0
C2655 C 0.52352 0.49135 0.0441 0.0
C2656 C 0.51138 0.49077 0.02367 0.0
C2657 C 0.476 0.48831 0.96343 0.0
C2658 C 0.48816 0.48909 0.98418 0.0
H2659 H 0.54943 0.4836 0.0296 0.0
H2660 H 0.52954 0.48267 0.99679 0.0
H2661 H 0.49736 0.48324 0.07268 0.0
H2662 H 0.45038 0.49666 0.97537 0.0
H2663 H 0.47004 0.49748 0.00958 0.0
loop_
_geom_bond_atom_site_label_1
_geom_bond_atom_site_label_2
_geom_bond_distance
_geom_bond_site_symmetry_2
_ccdc_geom_bond_type
Mg0 O1 2.028 . S
Mg0 O7 1.986 . S
Mg0 O9 2.114 . S
Mg0 O10 2.251 . S
Mg0 O13 2.010 . S
O1 Mg0 2.028 . S
O1 C4 1.250 . S
O2 Mg3 2.028 . S
O2 C4 1.248 . S
Mg3 O2 2.028 . S
Mg3 O8 2.032 . S
Mg3 O10 2.079 . S
C4 O1 1.250 . S
C4 O2 1.248 . S
C5 O6 1.264 . S
C5 O13 1.249 . S
O6 C5 1.264 . S
O7 Mg0 1.986 . S
O7 C11 1.246 . S
O8 Mg3 2.032 . S
O8 C11 1.259 . S
O9 Mg0 2.114 . S
O9 C12 1.252 . S
O10 Mg0 2.251 . S
O10 Mg3 2.079 . S
O10 C12 1.273 . S
C11 O7 1.246 . S
C11 O8 1.259 . S
C12 O9 1.252 . S
C12 O10 1.273 . S
O13 Mg0 2.010 . S
O13 C5 1.249 . S
Mg14 O15 2.028 . S
Mg14 O21 1.986 . S
Mg14 O23 2.114 . S
Mg14 O24 2.251 . S
Mg14 O27 2.010 . S
O15 Mg14 2.028 . S
O15 C18 1.250 . S
O16 Mg17 2.028 . S
O16 C18 1.248 . S
Mg17 O16 2.028 . S
Mg17 O22 2.032 . S
Mg17 O24 2.079 . S
C18 O15 1.250 . S
C18 O16 1.248 . S
C19 O20 1.264 . S
C19 O27 1.249 . S
O20 C19 1.264 . S
O21 Mg14 1.986 . S
O21 C25 1.246 . S
O22 Mg17 2.032 . S
O22 C25 1.259 . S
O23 Mg14 2.114 . S
O23 C26 1.252 . S
O24 Mg14 2.251 . S
O24 Mg17 2.079 . S
O24 C26 1.273 . S
C25 O21 1.246 . S
C25 O22 1.259 . S
C26 O23 1.252 . S
C26 O24 1.273 . S
O27 Mg14 2.010 . S
O27 C19 1.249 . S
Mg28 O29 2.028 . S
Mg28 O35 1.986 . S
Mg28 O37 2.114 . S
Mg28 O38 2.251 . S
Mg28 O41 2.010 . S
O29 Mg28 2.028 . S
O29 C32 1.250 . S
O30 Mg31 2.028 . S
O30 C32 1.248 . S
Mg31 O30 2.028 . S
Mg31 O36 2.032 . S
Mg31 O38 2.079 . S
C32 O29 1.250 . S
C32 O30 1.248 . S
C33 O34 1.264 . S
C33 O41 1.249 . S
O34 C33 1.264 . S
O35 Mg28 1.986 . S
O35 C39 1.246 . S
O36 Mg31 2.032 . S
O36 C39 1.259 . S
O37 Mg28 2.114 . S
O37 C40 1.252 . S
O38 Mg28 2.251 . S
O38 Mg31 2.079 . S
O38 C40 1.273 . S
C39 O35 1.246 . S
C39 O36 1.259 . S
C40 O37 1.252 . S
C40 O38 1.273 . S
O41 Mg28 2.010 . S
O41 C33 1.249 . S
Mg42 O43 2.028 . S
Mg42 O49 1.986 . S
Mg42 O51 2.114 . S
Mg42 O52 2.251 . S
Mg42 O55 2.010 . S
O43 Mg42 2.028 . S
O43 C46 1.250 . S
O44 Mg45 2.028 . S
O44 C46 1.248 . S
Mg45 O44 2.028 . S
Mg45 O50 2.032 . S
Mg45 O52 2.079 . S
C46 O43 1.250 . S
C46 O44 1.248 . S
C47 O48 1.264 . S
C47 O55 1.249 . S
O48 C47 1.264 . S
O49 Mg42 1.986 . S
O49 C53 1.246 . S
O50 Mg45 2.032 . S
O50 C53 1.259 . S
O51 Mg42 2.114 . S
O51 C54 1.252 . S
O52 Mg42 2.251 . S
O52 Mg45 2.079 . S
O52 C54 1.273 . S
C53 O49 1.246 . S
C53 O50 1.259 . S
C54 O51 1.252 . S
C54 O52 1.273 . S
O55 Mg42 2.010 . S
O55 C47 1.249 . S
Mg56 O57 2.028 . S
Mg56 O63 1.986 . S
Mg56 O65 2.114 . S
Mg56 O66 2.251 . S
Mg56 O69 2.010 . S
O57 Mg56 2.028 . S
O57 C60 1.250 . S
O58 Mg59 2.028 . S
O58 C60 1.248 . S
Mg59 O58 2.028 . S
Mg59 O64 2.032 . S
Mg59 O66 2.079 . S
C60 O57 1.250 . S
C60 O58 1.248 . S
C61 O62 1.264 . S
C61 O69 1.249 . S
O62 C61 1.264 . S
O63 Mg56 1.986 . S
O63 C67 1.246 . S
O64 Mg59 2.032 . S
O64 C67 1.259 . S
O65 Mg56 2.114 . S
O65 C68 1.252 . S
O66 Mg56 2.251 . S
O66 Mg59 2.079 . S
O66 C68 1.273 . S
C67 O63 1.246 . S
C67 O64 1.259 . S
C68 O65 1.252 . S
C68 O66 1.273 . S
O69 Mg56 2.010 . S
O69 C61 1.249 . S
Mg70 O71 2.028 . S
Mg70 O77 1.986 . S
Mg70 O79 2.114 . S
Mg70 O80 2.251 . S
Mg70 O83 2.010 . S
O71 Mg70 2.028 . S
O71 C74 1.250 . S
O72 Mg73 2.028 . S
O72 C74 1.248 . S
Mg73 O72 2.028 . S
Mg73 O78 2.032 . S
Mg73 O80 2.079 . S
C74 O71 1.250 . S
C74 O72 1.248 . S
C75 O76 1.264 . S
C75 O83 1.249 . S
O76 C75 1.264 . S
O77 Mg70 1.986 . S
O77 C81 1.246 . S
O78 Mg73 2.032 . S
O78 C81 1.259 . S
O79 Mg70 2.114 . S
O79 C82 1.252 . S
O80 Mg70 2.251 . S
O80 Mg73 2.079 . S
O80 C82 1.273 . S
C81 O77 1.246 . S
C81 O78 1.259 . S
C82 O79 1.252 . S
C82 O80 1.273 . S
O83 Mg70 2.010 . S
O83 C75 1.249 . S
Mg84 O85 2.028 . S
Mg84 O91 1.986 . S
Mg84 O93 2.114 . S
Mg84 O94 2.251 . S
Mg84 O97 2.010 . S
O85 Mg84 2.028 . S
O85 C88 1.250 . S
O86 Mg87 2.028 . S
O86 C88 1.248 . S
Mg87 O86 2.028 . S
Mg87 O92 2.032 . S
Mg87 O94 2.079 . S
C88 O85 1.250 . S
C88 O86 1.248 . S
C89 O90 1.264 . S
C89 O97 1.249 . S
O90 C89 1.264 . S
O91 Mg84 1.986 . S
O91 C95 1.246 . S
O92 Mg87 2.032 . S
O92 C95 1.259 . S
O93 Mg84 2.114 . S
O93 C96 1.252 . S
O94 Mg84 2.251 . S
O94 Mg87 2.079 . S
O94 C96 1.273 . S
C95 O91 1.246 . S
C95 O92 1.259 . S
C96 O93 1.252 . S
C96 O94 1.273 . S
O97 Mg84 2.010 . S
O97 C89 1.249 . S
Mg98 O99 2.028 . S
Mg98 O105 1.986 . S
Mg98 O107 2.114 . S
Mg98 O108 2.251 . S
Mg98 O111 2.010 . S
O99 Mg98 2.028 . S
O99 C102 1.250 . S
O100 Mg101 2.028 . S
O100 C102 1.248 . S
Mg101 O100 2.028 . S
Mg101 O106 2.032 . S
Mg101 O108 2.079 . S
C102 O99 1.250 . S
C102 O100 1.248 . S
C103 O104 1.264 . S
C103 O111 1.249 . S
O104 C103 1.264 . S
O105 Mg98 1.986 . S
O105 C109 1.246 . S
O106 Mg101 2.032 . S
O106 C109 1.259 . S
O107 Mg98 2.114 . S
O107 C110 1.252 . S
O108 Mg98 2.251 . S
O108 Mg101 2.079 . S
O108 C110 1.273 . S
C109 O105 1.246 . S
C109 O106 1.259 . S
C110 O107 1.252 . S
C110 O108 1.273 . S
O111 Mg98 2.010 . S
O111 C103 1.249 . S
Mg112 O113 2.028 . S
Mg112 O119 1.986 . S
Mg112 O121 2.114 . S
Mg112 O122 2.251 . S
Mg112 O125 2.010 . S
O113 Mg112 2.028 . S
O113 C116 1.250 . S
O114 Mg115 2.028 . S
O114 C116 1.248 . S
Mg115 O114 2.028 . S
Mg115 O120 2.032 . S
Mg115 O122 2.079 . S
C116 O113 1.250 . S
C116 O114 1.248 . S
C117 O118 1.264 . S
C117 O125 1.249 . S
O118 C117 1.264 . S
O119 Mg112 1.986 . S
O119 C123 1.246 . S
O120 Mg115 2.032 . S
O120 C123 1.259 . S
O121 Mg112 2.114 . S
O121 C124 1.252 . S
O122 Mg112 2.251 . S
O122 Mg115 2.079 . S
O122 C124 1.273 . S
C123 O119 1.246 . S
C123 O120 1.259 . S
C124 O121 1.252 . S
C124 O122 1.273 . S
O125 Mg112 2.010 . S
O125 C117 1.249 . S
Mg126 O127 2.028 . S
Mg126 O133 1.986 . S
Mg126 O135 2.114 . S
Mg126 O136 2.251 . S
Mg126 O139 2.010 . S
O127 Mg126 2.028 . S
O127 C130 1.250 . S
O128 Mg129 2.028 . S
O128 C130 1.248 . S
Mg129 O128 2.028 . S
Mg129 O134 2.032 . S
Mg129 O136 2.079 . S
C130 O127 1.250 . S
C130 O128 1.248 . S
C131 O132 1.264 . S
C131 O139 1.249 . S
O132 C131 1.264 . S
O133 Mg126 1.986 . S
O133 C137 1.246 . S
O134 Mg129 2.032 . S
O134 C137 1.259 . S
O135 Mg126 2.114 . S
O135 C138 1.252 . S
O136 Mg126 2.251 . S
O136 Mg129 2.079 . S
O136 C138 1.273 . S
C137 O133 1.246 . S
C137 O134 1.259 . S
C138 O135 1.252 . S
C138 O136 1.273 . S
O139 Mg126 2.010 . S
O139 C131 1.249 . S
Mg140 O141 2.028 . S
Mg140 O147 1.986 . S
Mg140 O149 2.114 . S
Mg140 O150 2.251 . S
Mg140 O153 2.010 . S
O141 Mg140 2.028 . S
O141 C144 1.250 . S
O142 Mg143 2.028 . S
O142 C144 1.248 . S
Mg143 O142 2.028 . S
Mg143 O148 2.032 . S
Mg143 O150 2.079 . S
C144 O141 1.250 . S
C144 O142 1.248 . S
C145 O146 1.264 . S
C145 O153 1.249 . S
O146 C145 1.264 . S
O147 Mg140 1.986 . S
O147 C151 1.246 . S
O148 Mg143 2.032 . S
O148 C151 1.259 . S
O149 Mg140 2.114 . S
O149 C152 1.252 . S
O150 Mg140 2.251 . S
O150 Mg143 2.079 . S
O150 C152 1.273 . S
C151 O147 1.246 . S
C151 O148 1.259 . S
C152 O149 1.252 . S
C152 O150 1.273 . S
O153 Mg140 2.010 . S
O153 C145 1.249 . S
Mg154 O155 2.028 . S
Mg154 O161 1.986 . S
Mg154 O163 2.114 . S
Mg154 O164 2.251 . S
Mg154 O167 2.010 . S
O155 Mg154 2.028 . S
O155 C158 1.250 . S
O156 Mg157 2.028 . S
O156 C158 1.248 . S
Mg157 O156 2.028 . S
Mg157 O162 2.032 . S
Mg157 O164 2.079 . S
C158 O155 1.250 . S
C158 O156 1.248 . S
C159 O160 1.264 . S
C159 O167 1.249 . S
O160 C159 1.264 . S
O161 Mg154 1.986 . S
O161 C165 1.246 . S
O162 Mg157 2.032 . S
O162 C165 1.259 . S
O163 Mg154 2.114 . S
O163 C166 1.252 . S
O164 Mg154 2.251 . S
O164 Mg157 2.079 . S
O164 C166 1.273 . S
C165 O161 1.246 . S
C165 O162 1.259 . S
C166 O163 1.252 . S
C166 O164 1.273 . S
O167 Mg154 2.010 . S
O167 C159 1.249 . S
Mg168 O169 2.028 . S
Mg168 O175 1.986 . S
Mg168 O177 2.114 . S
Mg168 O178 2.251 . S
Mg168 O181 2.010 . S
O169 Mg168 2.028 . S
O169 C172 1.250 . S
O170 Mg171 2.028 . S
O170 C172 1.248 . S
Mg171 O170 2.028 . S
Mg171 O176 2.032 . S
Mg171 O178 2.079 . S
C172 O169 1.250 . S
C172 O170 1.248 . S
C173 O174 1.264 . S
C173 O181 1.249 . S
O174 C173 1.264 . S
O175 Mg168 1.986 . S
O175 C179 1.246 . S
O176 Mg171 2.032 . S
O176 C179 1.259 . S
O177 Mg168 2.114 . S
O177 C180 1.252 . S
O178 Mg168 2.251 . S
O178 Mg171 2.079 . S
O178 C180 1.273 . S
C179 O175 1.246 . S
C179 O176 1.259 . S
C180 O177 1.252 . S
C180 O178 1.273 . S
O181 Mg168 2.010 . S
O181 C173 1.249 . S
Mg182 O183 2.028 . S
Mg182 O189 1.986 . S
Mg182 O191 2.114 . S
Mg182 O192 2.251 . S
Mg182 O195 2.010 . S
O183 Mg182 2.028 . S
O183 C186 1.250 . S
O184 Mg185 2.028 . S
O184 C186 1.248 . S
Mg185 O184 2.028 . S
Mg185 O190 2.032 . S
Mg185 O192 2.079 . S
C186 O183 1.250 . S
C186 O184 1.248 . S
C187 O188 1.264 . S
C187 O195 1.249 . S
O188 C187 1.264 . S
O189 Mg182 1.986 . S
O189 C193 1.246 . S
O190 Mg185 2.032 . S
O190 C193 1.259 . S
O191 Mg182 2.114 . S
O191 C194 1.252 . S
O192 Mg182 2.251 . S
O192 Mg185 2.079 . S
O192 C194 1.273 . S
C193 O189 1.246 . S
C193 O190 1.259 . S
C194 O191 1.252 . S
C194 O192 1.273 . S
O195 Mg182 2.010 . S
O195 C187 1.249 . S
Mg196 O197 2.028 . S
Mg196 O203 1.986 . S
Mg196 O205 2.114 . S
Mg196 O206 2.251 . S
Mg196 O209 2.010 . S
O197 Mg196 2.028 . S
O197 C200 1.250 . S
O198 Mg199 2.028 . S
O198 C200 1.248 . S
Mg199 O198 2.028 . S
Mg199 O204 2.032 . S
Mg199 O206 2.079 . S
C200 O197 1.250 . S
C200 O198 1.248 . S
C201 O202 1.264 . S
C201 O209 1.249 . S
O202 C201 1.264 . S
O203 Mg196 1.986 . S
O203 C207 1.246 . S
O204 Mg199 2.032 . S
O204 C207 1.259 . S
O205 Mg196 2.114 . S
O205 C208 1.252 . S
O206 Mg196 2.251 . S
O206 Mg199 2.079 . S
O206 C208 1.273 . S
C207 O203 1.246 . S
C207 O204 1.259 . S
C208 O205 1.252 . S
C208 O206 1.273 . S
O209 Mg196 2.010 . S
O209 C201 1.249 . S
Mg210 O211 2.028 . S
Mg210 O217 1.986 . S
Mg210 O219 2.114 . S
Mg210 O220 2.251 . S
Mg210 O223 2.010 . S
O211 Mg210 2.028 . S
O211 C214 1.250 . S
O212 Mg213 2.028 . S
O212 C214 1.248 . S
Mg213 O212 2.028 . S
Mg213 O218 2.032 . S
Mg213 O220 2.079 . S
C214 O211 1.250 . S
C214 O212 1.248 . S
C215 O216 1.264 . S
C215 O223 1.249 . S
O216 C215 1.264 . S
O217 Mg210 1.986 . S
O217 C221 1.246 . S
O218 Mg213 2.032 . S
O218 C221 1.259 . S
O219 Mg210 2.114 . S
O219 C222 1.252 . S
O220 Mg210 2.251 . S
O220 Mg213 2.079 . S
O220 C222 1.273 . S
C221 O217 1.246 . S
C221 O218 1.259 . S
C222 O219 1.252 . S
C222 O220 1.273 . S
O223 Mg210 2.010 . S
O223 C215 1.249 . S
Mg224 O225 2.028 . S
Mg224 O231 1.986 . S
Mg224 O233 2.114 . S
Mg224 O234 2.251 . S
Mg224 O237 2.010 . S
O225 Mg224 2.028 . S
O225 C228 1.250 . S
O226 Mg227 2.028 . S
O226 C228 1.248 . S
Mg227 O226 2.028 . S
Mg227 O232 2.032 . S
Mg227 O234 2.079 . S
C228 O225 1.250 . S
C228 O226 1.248 . S
C229 O230 1.264 . S
C229 O237 1.249 . S
O230 C229 1.264 . S
O231 Mg224 1.986 . S
O231 C235 1.246 . S
O232 Mg227 2.032 . S
O232 C235 1.259 . S
O233 Mg224 2.114 . S
O233 C236 1.252 . S
O234 Mg224 2.251 . S
O234 Mg227 2.079 . S
O234 C236 1.273 . S
C235 O231 1.246 . S
C235 O232 1.259 . S
C236 O233 1.252 . S
C236 O234 1.273 . S
O237 Mg224 2.010 . S
O237 C229 1.249 . S
Mg238 O239 2.028 . S
Mg238 O245 1.986 . S
Mg238 O247 2.114 . S
Mg238 O248 2.251 . S
Mg238 O251 2.010 . S
O239 Mg238 2.028 . S
O239 C242 1.250 . S
O240 Mg241 2.028 . S
O240 C242 1.248 . S
Mg241 O240 2.028 . S
Mg241 O246 2.032 . S
Mg241 O248 2.079 . S
C242 O239 1.250 . S
C242 O240 1.248 . S
C243 O244 1.264 . S
C243 O251 1.249 . S
O244 C243 1.264 . S
O245 Mg238 1.986 . S
O245 C249 1.246 . S
O246 Mg241 2.032 . S
O246 C249 1.259 . S
O247 Mg238 2.114 . S
O247 C250 1.252 . S
O248 Mg238 2.251 . S
O248 Mg241 2.079 . S
O248 C250 1.273 . S
C249 O245 1.246 . S
C249 O246 1.259 . S
C250 O247 1.252 . S
C250 O248 1.273 . S
O251 Mg238 2.010 . S
O251 C243 1.249 . S
Mg252 O253 2.028 . S
Mg252 O259 1.986 . S
Mg252 O261 2.114 . S
Mg252 O262 2.251 . S
Mg252 O265 2.010 . S
O253 Mg252 2.028 . S
O253 C256 1.250 . S
O254 Mg255 2.028 . S
O254 C256 1.248 . S
Mg255 O254 2.028 . S
Mg255 O260 2.032 . S
Mg255 O262 2.079 . S
C256 O253 1.250 . S
C256 O254 1.248 . S
C257 O258 1.264 . S
C257 O265 1.249 . S
O258 C257 1.264 . S
O259 Mg252 1.986 . S
O259 C263 1.246 . S
O260 Mg255 2.032 . S
O260 C263 1.259 . S
O261 Mg252 2.114 . S
O261 C264 1.252 . S
O262 Mg252 2.251 . S
O262 Mg255 2.079 . S
O262 C264 1.273 . S
C263 O259 1.246 . S
C263 O260 1.259 . S
C264 O261 1.252 . S
C264 O262 1.273 . S
O265 Mg252 2.010 . S
O265 C257 1.249 . S
Mg266 O267 2.028 . S
Mg266 O273 1.986 . S
Mg266 O275 2.114 . S
Mg266 O276 2.251 . S
Mg266 O279 2.010 . S
O267 Mg266 2.028 . S
O267 C270 1.250 . S
O268 Mg269 2.028 . S
O268 C270 1.248 . S
Mg269 O268 2.028 . S
Mg269 O274 2.032 . S
Mg269 O276 2.079 . S
C270 O267 1.250 . S
C270 O268 1.248 . S
C271 O272 1.264 . S
C271 O279 1.249 . S
O272 C271 1.264 . S
O273 Mg266 1.986 . S
O273 C277 1.246 . S
O274 Mg269 2.032 . S
O274 C277 1.259 . S
O275 Mg266 2.114 . S
O275 C278 1.252 . S
O276 Mg266 2.251 . S
O276 Mg269 2.079 . S
O276 C278 1.273 . S
C277 O273 1.246 . S
C277 O274 1.259 . S
C278 O275 1.252 . S
C278 O276 1.273 . S
O279 Mg266 2.010 . S
O279 C271 1.249 . S
Mg280 O281 2.028 . S
Mg280 O287 1.986 . S
Mg280 O289 2.114 . S
Mg280 O290 2.251 . S
Mg280 O293 2.010 . S
O281 Mg280 2.028 . S
O281 C284 1.250 . S
O282 Mg283 2.028 . S
O282 C284 1.248 . S
Mg283 O282 2.028 . S
Mg283 O288 2.032 . S
Mg283 O290 2.079 . S
C284 O281 1.250 . S
C284 O282 1.248 . S
C285 O286 1.264 . S
C285 O293 1.249 . S
O286 C285 1.264 . S
O287 Mg280 1.986 . S
O287 C291 1.246 . S
O288 Mg283 2.032 . S
O288 C291 1.259 . S
O289 Mg280 2.114 . S
O289 C292 1.252 . S
O290 Mg280 2.251 . S
O290 Mg283 2.079 . S
O290 C292 1.273 . S
C291 O287 1.246 . S
C291 O288 1.259 . S
C292 O289 1.252 . S
C292 O290 1.273 . S
O293 Mg280 2.010 . S
O293 C285 1.249 . S
Mg294 O295 2.028 . S
Mg294 O301 1.986 . S
Mg294 O303 2.114 . S
Mg294 O304 2.251 . S
Mg294 O307 2.010 1_554 S
O295 Mg294 2.028 . S
O295 C298 1.250 . S
O296 Mg297 2.028 . S
O296 C298 1.248 . S
Mg297 O296 2.028 . S
Mg297 O302 2.032 . S
Mg297 O304 2.079 . S
C298 O295 1.250 . S
C298 O296 1.248 . S
C299 O300 1.264 . S
C299 O307 1.249 . S
O300 C299 1.264 . S
O301 Mg294 1.986 . S
O301 C305 1.246 . S
O302 Mg297 2.032 . S
O302 C305 1.259 . S
O303 Mg294 2.114 . S
O303 C306 1.252 . S
O304 Mg294 2.251 . S
O304 Mg297 2.079 . S
O304 C306 1.273 . S
C305 O301 1.246 . S
C305 O302 1.259 . S
C306 O303 1.252 . S
C306 O304 1.273 . S
O307 Mg294 2.010 1_556 S
O307 C299 1.249 . S
Mg308 O309 2.028 . S
Mg308 O315 1.986 . S
Mg308 O317 2.114 . S
Mg308 O318 2.251 . S
Mg308 O321 2.010 1_554 S
O309 Mg308 2.028 . S
O309 C312 1.250 . S
O310 Mg311 2.028 . S
O310 C312 1.248 . S
Mg311 O310 2.028 . S
Mg311 O316 2.032 . S
Mg311 O318 2.079 . S
C312 O309 1.250 . S
C312 O310 1.248 . S
C313 O314 1.264 . S
C313 O321 1.249 . S
O314 C313 1.264 . S
O315 Mg308 1.986 . S
O315 C319 1.246 . S
O316 Mg311 2.032 . S
O316 C319 1.259 . S
O317 Mg308 2.114 . S
O317 C320 1.252 . S
O318 Mg308 2.251 . S
O318 Mg311 2.079 . S
O318 C320 1.273 . S
C319 O315 1.246 . S
C319 O316 1.259 . S
C320 O317 1.252 . S
C320 O318 1.273 . S
O321 Mg308 2.010 1_556 S
O321 C313 1.249 . S
Mg322 O323 2.028 . S
Mg322 O329 1.986 . S
Mg322 O331 2.114 . S
Mg322 O332 2.251 . S
Mg322 O335 2.010 1_554 S
O323 Mg322 2.028 . S
O323 C326 1.250 . S
O324 Mg325 2.028 . S
O324 C326 1.248 . S
Mg325 O324 2.028 . S
Mg325 O330 2.032 . S
Mg325 O332 2.079 . S
C326 O323 1.250 . S
C326 O324 1.248 . S
C327 O328 1.264 . S
C327 O335 1.249 . S
O328 C327 1.264 . S
O329 Mg322 1.986 . S
O329 C333 1.246 . S
O330 Mg325 2.032 . S
O330 C333 1.259 . S
O331 Mg322 2.114 . S
O331 C334 1.252 . S
O332 Mg322 2.251 . S
O332 Mg325 2.079 . S
O332 C334 1.273 . S
C333 O329 1.246 . S
C333 O330 1.259 . S
C334 O331 1.252 . S
C334 O332 1.273 . S
O335 Mg322 2.010 1_556 S
O335 C327 1.249 . S
Mg336 O337 2.028 . S
Mg336 O343 1.986 . S
Mg336 O345 2.114 . S
Mg336 O346 2.251 . S
Mg336 O349 2.010 . S
O337 Mg336 2.028 . S
O337 C340 1.250 . S
O338 Mg339 2.028 . S
O338 C340 1.248 . S
Mg339 O338 2.028 . S
Mg339 O344 2.032 . S
Mg339 O346 2.079 . S
C340 O337 1.250 . S
C340 O338 1.248 . S
C341 O342 1.264 . S
C341 O349 1.249 . S
O342 C341 1.264 . S
O343 Mg336 1.986 . S
O343 C347 1.246 . S
O344 Mg339 2.032 . S
O344 C347 1.259 . S
O345 Mg336 2.114 . S
O345 C348 1.252 . S
O346 Mg336 2.251 . S
O346 Mg339 2.079 . S
O346 C348 1.273 . S
C347 O343 1.246 . S
C347 O344 1.259 . S
C348 O345 1.252 . S
C348 O346 1.273 . S
O349 Mg336 2.010 . S
O349 C341 1.249 . S
Mg350 O351 2.028 . S
Mg350 O357 1.986 . S
Mg350 O359 2.114 . S
Mg350 O360 2.251 . S
Mg350 O363 2.010 . S
O351 Mg350 2.028 . S
O351 C354 1.250 . S
O352 Mg353 2.028 . S
O352 C354 1.248 . S
Mg353 O352 2.028 . S
Mg353 O358 2.032 . S
Mg353 O360 2.079 . S
C354 O351 1.250 . S
C354 O352 1.248 . S
C355 O356 1.264 . S
C355 O363 1.249 . S
O356 C355 1.264 . S
O357 Mg350 1.986 . S
O357 C361 1.246 . S
O358 Mg353 2.032 . S
O358 C361 1.259 . S
O359 Mg350 2.114 . S
O359 C362 1.252 . S
O360 Mg350 2.251 . S
O360 Mg353 2.079 . S
O360 C362 1.273 . S
C361 O357 1.246 . S
C361 O358 1.259 . S
C362 O359 1.252 . S
C362 O360 1.273 . S
O363 Mg350 2.010 . S
O363 C355 1.249 . S
Mg364 O365 2.028 . S
Mg364 O371 1.986 . S
Mg364 O373 2.114 . S
Mg364 O374 2.251 . S
Mg364 O377 2.010 . S
O365 Mg364 2.028 . S
O365 C368 1.250 . S
O366 Mg367 2.028 . S
O366 C368 1.248 . S
Mg367 O366 2.028 . S
Mg367 O372 2.032 . S
Mg367 O374 2.079 . S
C368 O365 1.250 . S
C368 O366 1.248 . S
C369 O370 1.264 . S
C369 O377 1.249 . S
O370 C369 1.264 . S
O371 Mg364 1.986 . S
O371 C375 1.246 . S
O372 Mg367 2.032 . S
O372 C375 1.259 . S
O373 Mg364 2.114 . S
O373 C376 1.252 . S
O374 Mg364 2.251 . S
O374 Mg367 2.079 . S
O374 C376 1.273 . S
C375 O371 1.246 . S
C375 O372 1.259 . S
C376 O373 1.252 . S
C376 O374 1.273 . S
O377 Mg364 2.010 . S
O377 C369 1.249 . S
Mg378 O379 2.028 . S
Mg378 O385 1.986 . S
Mg378 O387 2.114 . S
Mg378 O388 2.251 . S
Mg378 O391 2.010 1_556 S
O379 Mg378 2.028 . S
O379 C382 1.250 . S
O380 Mg381 2.028 . S
O380 C382 1.248 . S
Mg381 O380 2.028 . S
Mg381 O386 2.032 . S
Mg381 O388 2.079 . S
C382 O379 1.250 . S
C382 O380 1.248 . S
C383 O384 1.264 . S
C383 O391 1.249 . S
O384 C383 1.264 . S
O385 Mg378 1.986 . S
O385 C389 1.246 . S
O386 Mg381 2.032 . S
O386 C389 1.259 . S
O387 Mg378 2.114 . S
O387 C390 1.252 . S
O388 Mg378 2.251 . S
O388 Mg381 2.079 . S
O388 C390 1.273 . S
C389 O385 1.246 . S
C389 O386 1.259 . S
C390 O387 1.252 . S
C390 O388 1.273 . S
O391 Mg378 2.010 1_554 S
O391 C383 1.249 . S
Mg392 O393 2.028 . S
Mg392 O399 1.986 . S
Mg392 O401 2.114 . S
Mg392 O402 2.251 . S
Mg392 O405 2.010 1_556 S
O393 Mg392 2.028 . S
O393 C396 1.250 . S
O394 Mg395 2.028 . S
O394 C396 1.248 . S
Mg395 O394 2.028 . S
Mg395 O400 2.032 . S
Mg395 O402 2.079 . S
C396 O393 1.250 . S
C396 O394 1.248 . S
C397 O398 1.264 . S
C397 O405 1.249 . S
O398 C397 1.264 . S
O399 Mg392 1.986 . S
O399 C403 1.246 . S
O400 Mg395 2.032 . S
O400 C403 1.259 . S
O401 Mg392 2.114 . S
O401 C404 1.252 . S
O402 Mg392 2.251 . S
O402 Mg395 2.079 . S
O402 C404 1.273 . S
C403 O399 1.246 . S
C403 O400 1.259 . S
C404 O401 1.252 . S
C404 O402 1.273 . S
O405 Mg392 2.010 1_554 S
O405 C397 1.249 . S
Mg406 O407 2.028 . S
Mg406 O413 1.986 . S
Mg406 O415 2.114 . S
Mg406 O416 2.251 . S
Mg406 O419 2.010 1_556 S
O407 Mg406 2.028 . S
O407 C410 1.250 . S
O408 Mg409 2.028 . S
O408 C410 1.248 . S
Mg409 O408 2.028 . S
Mg409 O414 2.032 . S
Mg409 O416 2.079 . S
C410 O407 1.250 . S
C410 O408 1.248 . S
C411 O412 1.264 . S
C411 O419 1.249 . S
O412 C411 1.264 . S
O413 Mg406 1.986 . S
O413 C417 1.246 . S
O414 Mg409 2.032 . S
O414 C417 1.259 . S
O415 Mg406 2.114 . S
O415 C418 1.252 . S
O416 Mg406 2.251 . S
O416 Mg409 2.079 . S
O416 C418 1.273 . S
C417 O413 1.246 . S
C417 O414 1.259 . S
C418 O415 1.252 . S
C418 O416 1.273 . S
O419 Mg406 2.010 1_554 S
O419 C411 1.249 . S
Mg420 O421 2.028 . S
Mg420 O427 1.986 . S
Mg420 O429 2.114 . S
Mg420 O430 2.251 . S
Mg420 O433 2.010 . S
O421 Mg420 2.028 . S
O421 C424 1.250 . S
O422 Mg423 2.028 . S
O422 C424 1.248 . S
Mg423 O422 2.028 . S
Mg423 O428 2.032 . S
Mg423 O430 2.079 . S
C424 O421 1.250 . S
C424 O422 1.248 . S
C425 O426 1.264 . S
C425 O433 1.249 . S
O426 C425 1.264 . S
O427 Mg420 1.986 . S
O427 C431 1.246 . S
O428 Mg423 2.032 . S
O428 C431 1.259 . S
O429 Mg420 2.114 . S
O429 C432 1.252 . S
O430 Mg420 2.251 . S
O430 Mg423 2.079 . S
O430 C432 1.273 . S
C431 O427 1.246 . S
C431 O428 1.259 . S
C432 O429 1.252 . S
C432 O430 1.273 . S
O433 Mg420 2.010 . S
O433 C425 1.249 . S
Mg434 O435 2.028 . S
Mg434 O441 1.986 . S
Mg434 O443 2.114 . S
Mg434 O444 2.251 . S
Mg434 O447 2.010 . S
O435 Mg434 2.028 . S
O435 C438 1.250 . S
O436 Mg437 2.028 . S
O436 C438 1.248 . S
Mg437 O436 2.028 . S
Mg437 O442 2.032 . S
Mg437 O444 2.079 . S
C438 O435 1.250 . S
C438 O436 1.248 . S
C439 O440 1.264 . S
C439 O447 1.249 . S
O440 C439 1.264 . S
O441 Mg434 1.986 . S
O441 C445 1.246 . S
O442 Mg437 2.032 . S
O442 C445 1.259 . S
O443 Mg434 2.114 . S
O443 C446 1.252 . S
O444 Mg434 2.251 . S
O444 Mg437 2.079 . S
O444 C446 1.273 . S
C445 O441 1.246 . S
C445 O442 1.259 . S
C446 O443 1.252 . S
C446 O444 1.273 . S
O447 Mg434 2.010 . S
O447 C439 1.249 . S
Mg448 O449 2.028 . S
Mg448 O455 1.986 . S
Mg448 O457 2.114 . S
Mg448 O458 2.251 . S
Mg448 O461 2.010 . S
O449 Mg448 2.028 . S
O449 C452 1.250 . S
O450 Mg451 2.028 . S
O450 C452 1.248 . S
Mg451 O450 2.028 . S
Mg451 O456 2.032 . S
Mg451 O458 2.079 . S
C452 O449 1.250 . S
C452 O450 1.248 . S
C453 O454 1.264 . S
C453 O461 1.249 . S
O454 C453 1.264 . S
O455 Mg448 1.986 . S
O455 C459 1.246 . S
O456 Mg451 2.032 . S
O456 C459 1.259 . S
O457 Mg448 2.114 . S
O457 C460 1.252 . S
O458 Mg448 2.251 . S
O458 Mg451 2.079 . S
O458 C460 1.273 . S
C459 O455 1.246 . S
C459 O456 1.259 . S
C460 O457 1.252 . S
C460 O458 1.273 . S
O461 Mg448 2.010 . S
O461 C453 1.249 . S
Mg462 O463 2.028 . S
Mg462 O469 1.986 . S
Mg462 O471 2.114 . S
Mg462 O472 2.251 . S
Mg462 O475 2.010 . S
O463 Mg462 2.028 . S
O463 C466 1.250 . S
O464 Mg465 2.028 . S
O464 C466 1.248 . S
Mg465 O464 2.028 . S
Mg465 O470 2.032 . S
Mg465 O472 2.079 . S
C466 O463 1.250 . S
C466 O464 1.248 . S
C467 O468 1.264 . S
C467 O475 1.249 . S
O468 C467 1.264 . S
O469 Mg462 1.986 . S
O469 C473 1.246 . S
O470 Mg465 2.032 . S
O470 C473 1.259 . S
O471 Mg462 2.114 . S
O471 C474 1.252 . S
O472 Mg462 2.251 . S
O472 Mg465 2.079 . S
O472 C474 1.273 . S
C473 O469 1.246 . S
C473 O470 1.259 . S
C474 O471 1.252 . S
C474 O472 1.273 . S
O475 Mg462 2.010 . S
O475 C467 1.249 . S
Mg476 O477 2.028 . S
Mg476 O483 1.986 . S
Mg476 O485 2.114 . S
Mg476 O486 2.251 . S
Mg476 O489 2.010 . S
O477 Mg476 2.028 . S
O477 C480 1.250 . S
O478 Mg479 2.028 . S
O478 C480 1.248 . S
Mg479 O478 2.028 . S
Mg479 O484 2.032 . S
Mg479 O486 2.079 . S
C480 O477 1.250 . S
C480 O478 1.248 . S
C481 O482 1.264 . S
C481 O489 1.249 . S
O482 C481 1.264 . S
O483 Mg476 1.986 . S
O483 C487 1.246 . S
O484 Mg479 2.032 . S
O484 C487 1.259 . S
O485 Mg476 2.114 . S
O485 C488 1.252 . S
O486 Mg476 2.251 . S
O486 Mg479 2.079 . S
O486 C488 1.273 . S
C487 O483 1.246 . S
C487 O484 1.259 . S
C488 O485 1.252 . S
C488 O486 1.273 . S
O489 Mg476 2.010 . S
O489 C481 1.249 . S
Mg490 O491 2.028 . S
Mg490 O497 1.986 . S
Mg490 O499 2.114 . S
Mg490 O500 2.251 . S
Mg490 O503 2.010 . S
O491 Mg490 2.028 . S
O491 C494 1.250 . S
O492 Mg493 2.028 . S
O492 C494 1.248 . S
Mg493 O492 2.028 . S
Mg493 O498 2.032 . S
Mg493 O500 2.079 . S
C494 O491 1.250 . S
C494 O492 1.248 . S
C495 O496 1.264 . S
C495 O503 1.249 . S
O496 C495 1.264 . S
O497 Mg490 1.986 . S
O497 C501 1.246 . S
O498 Mg493 2.032 . S
O498 C501 1.259 . S
O499 Mg490 2.114 . S
O499 C502 1.252 . S
O500 Mg490 2.251 . S
O500 Mg493 2.079 . S
O500 C502 1.273 . S
C501 O497 1.246 . S
C501 O498 1.259 . S
C502 O499 1.252 . S
C502 O500 1.273 . S
O503 Mg490 2.010 . S
O503 C495 1.249 . S
C504 C505 1.349 . S
C504 C506 1.327 . S
C504 H529 0.950 . S
C505 C504 1.349 . S
C505 C521 1.349 . S
C506 C504 1.327 . S
C506 C525 1.429 . S
C506 H530 0.950 . S
C507 C524 1.574 . S
C507 C526 1.368 . S
C507 H531 0.949 . S
H508 C512 0.949 . S
C509 C510 1.349 . S
C509 C511 1.327 . S
C509 H532 0.950 . S
C510 C509 1.349 . S
C510 C522 1.349 . S
C511 C509 1.327 . S
C511 C527 1.429 . S
C511 H533 0.950 . S
C512 H508 0.949 . S
C512 C520 1.574 . S
C512 C528 1.368 . S
H513 C521 0.950 . S
H514 C519 0.950 . S
H515 C520 0.949 . S
H516 C522 0.950 . S
H517 C523 0.950 . S
H518 C524 0.949 . S
C519 H514 0.950 . S
C519 C521 1.327 . S
C519 C525 1.429 . S
C520 C512 1.574 . S
C520 H515 0.949 . S
C520 C526 1.368 . S
C521 C505 1.349 . S
C521 H513 0.950 . S
C521 C519 1.327 . S
C522 C510 1.349 . S
C522 H516 0.950 . S
C522 C523 1.327 . S
C523 H517 0.950 . S
C523 C522 1.327 . S
C523 C527 1.429 . S
C524 C507 1.574 . S
C524 H518 0.949 . S
C524 C528 1.368 . S
C525 C506 1.429 . S
C525 C519 1.429 . S
C525 C526 1.523 . S
C526 C507 1.368 . S
C526 C520 1.368 . S
C526 C525 1.523 . S
C527 C511 1.429 . S
C527 C523 1.429 . S
C527 C528 1.523 1_554 S
C528 C512 1.368 . S
C528 C524 1.368 . S
C528 C527 1.523 1_556 S
H529 C504 0.950 . S
H530 C506 0.950 . S
H531 C507 0.949 . S
H532 C509 0.950 . S
H533 C511 0.950 . S
C534 C535 1.349 . S
C534 C536 1.327 . S
C534 H559 0.950 . S
C535 C534 1.349 . S
C535 C551 1.349 . S
C536 C534 1.327 . S
C536 C555 1.429 . S
C536 H560 0.950 . S
C537 C554 1.574 . S
C537 C556 1.368 . S
C537 H561 0.949 . S
H538 C542 0.949 . S
C539 C540 1.349 . S
C539 C541 1.327 . S
C539 H562 0.950 . S
C540 C539 1.349 . S
C540 C552 1.349 . S
C541 C539 1.327 . S
C541 C557 1.429 . S
C541 H563 0.950 . S
C542 H538 0.949 . S
C542 C550 1.574 . S
C542 C558 1.368 . S
H543 C551 0.950 . S
H544 C549 0.950 . S
H545 C550 0.949 . S
H546 C552 0.950 . S
H547 C553 0.950 . S
H548 C554 0.949 . S
C549 H544 0.950 . S
C549 C551 1.327 . S
C549 C555 1.429 . S
C550 C542 1.574 . S
C550 H545 0.949 . S
C550 C556 1.368 . S
C551 C535 1.349 . S
C551 H543 0.950 . S
C551 C549 1.327 . S
C552 C540 1.349 . S
C552 H546 0.950 . S
C552 C553 1.327 . S
C553 H547 0.950 . S
C553 C552 1.327 . S
C553 C557 1.429 . S
C554 C537 1.574 . S
C554 H548 0.949 . S
C554 C558 1.368 . S
C555 C536 1.429 . S
C555 C549 1.429 . S
C555 C556 1.523 . S
C556 C537 1.368 . S
C556 C550 1.368 . S
C556 C555 1.523 . S
C557 C541 1.429 . S
C557 C553 1.429 . S
C557 C558 1.523 1_554 S
C558 C542 1.368 . S
C558 C554 1.368 . S
C558 C557 1.523 1_556 S
H559 C534 0.950 . S
H560 C536 0.950 . S
H561 C537 0.949 . S
H562 C539 0.950 . S
H563 C541 0.950 . S
C564 C565 1.349 . S
C564 C566 1.327 . S
C564 H589 0.950 . S
C565 C564 1.349 . S
C565 C581 1.349 . S
C566 C564 1.327 . S
C566 C585 1.429 . S
C566 H590 0.950 . S
C567 C584 1.574 . S
C567 C586 1.368 . S
C567 H591 0.949 . S
H568 C572 0.949 . S
C569 C570 1.349 . S
C569 C571 1.327 . S
C569 H592 0.950 . S
C570 C569 1.349 . S
C570 C582 1.349 . S
C571 C569 1.327 . S
C571 C587 1.429 . S
C571 H593 0.950 . S
C572 H568 0.949 . S
C572 C580 1.574 . S
C572 C588 1.368 . S
H573 C581 0.950 . S
H574 C579 0.950 . S
H575 C580 0.949 . S
H576 C582 0.950 . S
H577 C583 0.950 . S
H578 C584 0.949 . S
C579 H574 0.950 . S
C579 C581 1.327 . S
C579 C585 1.429 . S
C580 C572 1.574 . S
C580 H575 0.949 . S
C580 C586 1.368 . S
C581 C565 1.349 . S
C581 H573 0.950 . S
C581 C579 1.327 . S
C582 C570 1.349 . S
C582 H576 0.950 . S
C582 C583 1.327 . S
C583 H577 0.950 . S
C583 C582 1.327 . S
C583 C587 1.429 . S
C584 C567 1.574 . S
C584 H578 0.949 . S
C584 C588 1.368 . S
C585 C566 1.429 . S
C585 C579 1.429 . S
C585 C586 1.523 1_554 S
C586 C567 1.368 . S
C586 C580 1.368 . S
C586 C585 1.523 1_556 S
C587 C571 1.429 . S
C587 C583 1.429 . S
C587 C588 1.523 . S
C588 C572 1.368 . S
C588 C584 1.368 . S
C588 C587 1.523 . S
H589 C564 0.950 . S
H590 C566 0.950 . S
H591 C567 0.949 . S
H592 C569 0.950 . S
H593 C571 0.950 . S
C594 C595 1.349 . S
C594 C596 1.327 . S
C594 H619 0.950 . S
C595 C594 1.349 . S
C595 C611 1.349 . S
C596 C594 1.327 . S
C596 C615 1.429 . S
C596 H620 0.950 . S
C597 C614 1.574 . S
C597 C616 1.368 . S
C597 H621 0.949 . S
H598 C602 0.949 . S
C599 C600 1.349 . S
C599 C601 1.327 . S
C599 H622 0.950 . S
C600 C599 1.349 . S
C600 C612 1.349 . S
C601 C599 1.327 . S
C601 C617 1.429 . S
C601 H623 0.950 . S
C602 H598 0.949 . S
C602 C610 1.574 . S
C602 C618 1.368 . S
H603 C611 0.950 . S
H604 C609 0.950 . S
H605 C610 0.949 . S
H606 C612 0.950 . S
H607 C613 0.950 . S
H608 C614 0.949 . S
C609 H604 0.950 . S
C609 C611 1.327 . S
C609 C615 1.429 . S
C610 C602 1.574 . S
C610 H605 0.949 . S
C610 C616 1.368 . S
C611 C595 1.349 . S
C611 H603 0.950 . S
C611 C609 1.327 . S
C612 C600 1.349 . S
C612 H606 0.950 . S
C612 C613 1.327 . S
C613 H607 0.950 . S
C613 C612 1.327 . S
C613 C617 1.429 . S
C614 C597 1.574 . S
C614 H608 0.949 . S
C614 C618 1.368 . S
C615 C596 1.429 . S
C615 C609 1.429 . S
C615 C616 1.523 . S
C616 C597 1.368 . S
C616 C610 1.368 . S
C616 C615 1.523 . S
C617 C601 1.429 . S
C617 C613 1.429 . S
C617 C618 1.523 . S
C618 C602 1.368 . S
C618 C614 1.368 . S
C618 C617 1.523 . S
H619 C594 0.950 . S
H620 C596 0.950 . S
H621 C597 0.949 . S
H622 C599 0.950 . S
H623 C601 0.950 . S
C624 C625 1.349 . S
C624 C626 1.327 . S
C624 H649 0.950 . S
C625 C624 1.349 . S
C625 C641 1.349 . S
C626 C624 1.327 . S
C626 C645 1.429 . S
C626 H650 0.950 . S
C627 C644 1.574 . S
C627 C646 1.368 . S
C627 H651 0.949 . S
H628 C632 0.949 . S
C629 C630 1.349 . S
C629 C631 1.327 . S
C629 H652 0.950 . S
C630 C629 1.349 . S
C630 C642 1.349 . S
C631 C629 1.327 . S
C631 C647 1.429 . S
C631 H653 0.950 . S
C632 H628 0.949 . S
C632 C640 1.574 . S
C632 C648 1.368 . S
H633 C641 0.950 . S
H634 C639 0.950 . S
H635 C640 0.949 . S
H636 C642 0.950 . S
H637 C643 0.950 . S
H638 C644 0.949 . S
C639 H634 0.950 . S
C639 C641 1.327 . S
C639 C645 1.429 . S
C640 C632 1.574 . S
C640 H635 0.949 . S
C640 C646 1.368 . S
C641 C625 1.349 . S
C641 H633 0.950 . S
C641 C639 1.327 . S
C642 C630 1.349 . S
C642 H636 0.950 . S
C642 C643 1.327 . S
C643 H637 0.950 . S
C643 C642 1.327 . S
C643 C647 1.429 . S
C644 C627 1.574 . S
C644 H638 0.949 . S
C644 C648 1.368 . S
C645 C626 1.429 . S
C645 C639 1.429 . S
C645 C646 1.523 . S
C646 C627 1.368 . S
C646 C640 1.368 . S
C646 C645 1.523 . S
C647 C631 1.429 . S
C647 C643 1.429 . S
C647 C648 1.523 . S
C648 C632 1.368 . S
C648 C644 1.368 . S
C648 C647 1.523 . S
H649 C624 0.950 . S
H650 C626 0.950 . S
H651 C627 0.949 . S
H652 C629 0.950 . S
H653 C631 0.950 . S
C654 C655 1.349 . S
C654 C656 1.327 . S
C654 H679 0.950 . S
C655 C654 1.349 . S
C655 C671 1.349 . S
C656 C654 1.327 . S
C656 C675 1.429 . S
C656 H680 0.950 . S
C657 C674 1.574 . S
C657 C676 1.368 . S
C657 H681 0.949 . S
H658 C662 0.949 . S
C659 C660 1.349 . S
C659 C661 1.327 . S
C659 H682 0.950 . S
C660 C659 1.349 . S
C660 C672 1.349 . S
C661 C659 1.327 . S
C661 C677 1.429 . S
C661 H683 0.950 . S
C662 H658 0.949 . S
C662 C670 1.574 . S
C662 C678 1.368 . S
H663 C671 0.950 . S
H664 C669 0.950 . S
H665 C670 0.949 . S
H666 C672 0.950 . S
H667 C673 0.950 . S
H668 C674 0.949 . S
C669 H664 0.950 . S
C669 C671 1.327 . S
C669 C675 1.429 . S
C670 C662 1.574 . S
C670 H665 0.949 . S
C670 C676 1.368 . S
C671 C655 1.349 . S
C671 H663 0.950 . S
C671 C669 1.327 . S
C672 C660 1.349 . S
C672 H666 0.950 . S
C672 C673 1.327 . S
C673 H667 0.950 . S
C673 C672 1.327 . S
C673 C677 1.429 . S
C674 C657 1.574 . S
C674 H668 0.949 . S
C674 C678 1.368 . S
C675 C656 1.429 . S
C675 C669 1.429 . S
C675 C676 1.523 . S
C676 C657 1.368 . S
C676 C670 1.368 . S
C676 C675 1.523 . S
C677 C661 1.429 . S
C677 C673 1.429 . S
C677 C678 1.523 . S
C678 C662 1.368 . S
C678 C674 1.368 . S
C678 C677 1.523 . S
H679 C654 0.950 . S
H680 C656 0.950 . S
H681 C657 0.949 . S
H682 C659 0.950 . S
H683 C661 0.950 . S
C684 C685 1.349 . S
C684 C686 1.327 . S
C684 H709 0.950 . S
C685 C684 1.349 . S
C685 C701 1.349 . S
C686 C684 1.327 . S
C686 C705 1.429 . S
C686 H710 0.950 . S
C687 C704 1.574 . S
C687 C706 1.368 . S
C687 H711 0.949 . S
H688 C692 0.949 . S
C689 C690 1.349 . S
C689 C691 1.327 . S
C689 H712 0.950 . S
C690 C689 1.349 . S
C690 C702 1.349 . S
C691 C689 1.327 . S
C691 C707 1.429 . S
C691 H713 0.950 . S
C692 H688 0.949 . S
C692 C700 1.574 . S
C692 C708 1.368 . S
H693 C701 0.950 . S
H694 C699 0.950 . S
H695 C700 0.949 . S
H696 C702 0.950 . S
H697 C703 0.950 . S
H698 C704 0.949 . S
C699 H694 0.950 . S
C699 C701 1.327 . S
C699 C705 1.429 . S
C700 C692 1.574 . S
C700 H695 0.949 . S
C700 C706 1.368 . S
C701 C685 1.349 . S
C701 H693 0.950 . S
C701 C699 1.327 . S
C702 C690 1.349 . S
C702 H696 0.950 . S
C702 C703 1.327 . S
C703 H697 0.950 . S
C703 C702 1.327 . S
C703 C707 1.429 . S
C704 C687 1.574 . S
C704 H698 0.949 . S
C704 C708 1.368 . S
C705 C686 1.429 . S
C705 C699 1.429 . S
C705 C706 1.523 . S
C706 C687 1.368 . S
C706 C700 1.368 . S
C706 C705 1.523 . S
C707 C691 1.429 . S
C707 C703 1.429 . S
C707 C708 1.523 1_556 S
C708 C692 1.368 . S
C708 C704 1.368 . S
C708 C707 1.523 1_554 S
H709 C684 0.950 . S
H710 C686 0.950 . S
H711 C687 0.949 . S
H712 C689 0.950 . S
H713 C691 0.950 . S
C714 C715 1.349 . S
C714 C716 1.327 . S
C714 H739 0.950 . S
C715 C714 1.349 . S
C715 C731 1.349 . S
C716 C714 1.327 . S
C716 C735 1.429 . S
C716 H740 0.950 . S
C717 C734 1.574 . S
C717 C736 1.368 . S
C717 H741 0.949 . S
H718 C722 0.949 . S
C719 C720 1.349 . S
C719 C721 1.327 . S
C719 H742 0.950 . S
C720 C719 1.349 . S
C720 C732 1.349 . S
C721 C719 1.327 . S
C721 C737 1.429 . S
C721 H743 0.950 . S
C722 H718 0.949 . S
C722 C730 1.574 . S
C722 C738 1.368 . S
H723 C731 0.950 . S
H724 C729 0.950 . S
H725 C730 0.949 . S
H726 C732 0.950 . S
H727 C733 0.950 . S
H728 C734 0.949 . S
C729 H724 0.950 . S
C729 C731 1.327 . S
C729 C735 1.429 . S
C730 C722 1.574 . S
C730 H725 0.949 . S
C730 C736 1.368 . S
C731 C715 1.349 . S
C731 H723 0.950 . S
C731 C729 1.327 . S
C732 C720 1.349 . S
C732 H726 0.950 . S
C732 C733 1.327 . S
C733 H727 0.950 . S
C733 C732 1.327 . S
C733 C737 1.429 . S
C734 C717 1.574 . S
C734 H728 0.949 . S
C734 C738 1.368 . S
C735 C716 1.429 . S
C735 C729 1.429 . S
C735 C736 1.523 . S
C736 C717 1.368 . S
C736 C730 1.368 . S
C736 C735 1.523 . S
C737 C721 1.429 . S
C737 C733 1.429 . S
C737 C738 1.523 1_556 S
C738 C722 1.368 . S
C738 C734 1.368 . S
C738 C737 1.523 1_554 S
H739 C714 0.950 . S
H740 C716 0.950 . S
H741 C717 0.949 . S
H742 C719 0.950 . S
H743 C721 0.950 . S
C744 C745 1.349 . S
C744 C746 1.327 . S
C744 H769 0.950 . S
C745 C744 1.349 . S
C745 C761 1.349 . S
C746 C744 1.327 . S
C746 C765 1.429 . S
C746 H770 0.950 . S
C747 C764 1.574 . S
C747 C766 1.368 . S
C747 H771 0.949 . S
H748 C752 0.949 . S
C749 C750 1.349 . S
C749 C751 1.327 . S
C749 H772 0.950 . S
C750 C749 1.349 . S
C750 C762 1.349 . S
C751 C749 1.327 . S
C751 C767 1.429 . S
C751 H773 0.950 . S
C752 H748 0.949 . S
C752 C760 1.574 . S
C752 C768 1.368 . S
H753 C761 0.950 . S
H754 C759 0.950 . S
H755 C760 0.949 . S
H756 C762 0.950 . S
H757 C763 0.950 . S
H758 C764 0.949 . S
C759 H754 0.950 . S
C759 C761 1.327 . S
C759 C765 1.429 . S
C760 C752 1.574 . S
C760 H755 0.949 . S
C760 C766 1.368 . S
C761 C745 1.349 . S
C761 H753 0.950 . S
C761 C759 1.327 . S
C762 C750 1.349 . S
C762 H756 0.950 . S
C762 C763 1.327 . S
C763 H757 0.950 . S
C763 C762 1.327 . S
C763 C767 1.429 . S
C764 C747 1.574 . S
C764 H758 0.949 . S
C764 C768 1.368 . S
C765 C746 1.429 . S
C765 C759 1.429 . S
C765 C766 1.523 1_556 S
C766 C747 1.368 . S
C766 C760 1.368 . S
C766 C765 1.523 1_554 S
C767 C751 1.429 . S
C767 C763 1.429 . S
C767 C768 1.523 . S
C768 C752 1.368 . S
C768 C764 1.368 . S
C768 C767 1.523 . S
H769 C744 0.950 . S
H770 C746 0.950 . S
H771 C747 0.949 . S
H772 C749 0.950 . S
H773 C751 0.950 . S
C774 C775 1.349 . S
C774 C776 1.327 . S
C774 H799 0.950 . S
C775 C774 1.349 . S
C775 C791 1.349 . S
C776 C774 1.327 . S
C776 C795 1.429 . S
C776 H800 0.950 . S
C777 C794 1.574 . S
C777 C796 1.368 . S
C777 H801 0.949 . S
H778 C782 0.949 . S
C779 C780 1.349 . S
C779 C781 1.327 . S
C779 H802 0.950 . S
C780 C779 1.349 . S
C780 C792 1.349 . S
C781 C779 1.327 . S
C781 C797 1.429 . S
C781 H803 0.950 . S
C782 H778 0.949 . S
C782 C790 1.574 . S
C782 C798 1.368 . S
H783 C791 0.950 . S
H784 C789 0.950 . S
H785 C790 0.949 . S
H786 C792 0.950 . S
H787 C793 0.950 . S
H788 C794 0.949 . S
C789 H784 0.950 . S
C789 C791 1.327 . S
C789 C795 1.429 . S
C790 C782 1.574 . S
C790 H785 0.949 . S
C790 C796 1.368 . S
C791 C775 1.349 . S
C791 H783 0.950 . S
C791 C789 1.327 . S
C792 C780 1.349 . S
C792 H786 0.950 . S
C792 C793 1.327 . S
C793 H787 0.950 . S
C793 C792 1.327 . S
C793 C797 1.429 . S
C794 C777 1.574 . S
C794 H788 0.949 . S
C794 C798 1.368 . S
C795 C776 1.429 . S
C795 C789 1.429 . S
C795 C796 1.523 . S
C796 C777 1.368 . S
C796 C790 1.368 . S
C796 C795 1.523 . S
C797 C781 1.429 . S
C797 C793 1.429 . S
C797 C798 1.523 . S
C798 C782 1.368 . S
C798 C794 1.368 . S
C798 C797 1.523 . S
H799 C774 0.950 . S
H800 C776 0.950 . S
H801 C777 0.949 . S
H802 C779 0.950 . S
H803 C781 0.950 . S
C804 C805 1.349 . S
C804 C806 1.327 . S
C804 H829 0.950 . S
C805 C804 1.349 . S
C805 C821 1.349 . S
C806 C804 1.327 . S
C806 C825 1.429 . S
C806 H830 0.950 . S
C807 C824 1.574 . S
C807 C826 1.368 . S
C807 H831 0.949 . S
H808 C812 0.949 . S
C809 C810 1.349 . S
C809 C811 1.327 . S
C809 H832 0.950 . S
C810 C809 1.349 . S
C810 C822 1.349 . S
C811 C809 1.327 . S
C811 C827 1.429 . S
C811 H833 0.950 . S
C812 H808 0.949 . S
C812 C820 1.574 . S
C812 C828 1.368 . S
H813 C821 0.950 . S
H814 C819 0.950 . S
H815 C820 0.949 . S
H816 C822 0.950 . S
H817 C823 0.950 . S
H818 C824 0.949 . S
C819 H814 0.950 . S
C819 C821 1.327 . S
C819 C825 1.429 . S
C820 C812 1.574 . S
C820 H815 0.949 . S
C820 C826 1.368 . S
C821 C805 1.349 . S
C821 H813 0.950 . S
C821 C819 1.327 . S
C822 C810 1.349 . S
C822 H816 0.950 . S
C822 C823 1.327 . S
C823 H817 0.950 . S
C823 C822 1.327 . S
C823 C827 1.429 . S
C824 C807 1.574 . S
C824 H818 0.949 . S
C824 C828 1.368 . S
C825 C806 1.429 . S
C825 C819 1.429 . S
C825 C826 1.523 . S
C826 C807 1.368 . S
C826 C820 1.368 . S
C826 C825 1.523 . S
C827 C811 1.429 . S
C827 C823 1.429 . S
C827 C828 1.523 . S
C828 C812 1.368 . S
C828 C824 1.368 . S
C828 C827 1.523 . S
H829 C804 0.950 . S
H830 C806 0.950 . S
H831 C807 0.949 . S
H832 C809 0.950 . S
H833 C811 0.950 . S
C834 C835 1.349 . S
C834 C836 1.327 . S
C834 H859 0.950 . S
C835 C834 1.349 . S
C835 C851 1.349 . S
C836 C834 1.327 . S
C836 C855 1.429 . S
C836 H860 0.950 . S
C837 C854 1.574 . S
C837 C856 1.368 . S
C837 H861 0.949 . S
H838 C842 0.949 . S
C839 C840 1.349 . S
C839 C841 1.327 . S
C839 H862 0.950 . S
C840 C839 1.349 . S
C840 C852 1.349 . S
C841 C839 1.327 . S
C841 C857 1.429 . S
C841 H863 0.950 . S
C842 H838 0.949 . S
C842 C850 1.574 . S
C842 C858 1.368 . S
H843 C851 0.950 . S
H844 C849 0.950 . S
H845 C850 0.949 . S
H846 C852 0.950 . S
H847 C853 0.950 . S
H848 C854 0.949 . S
C849 H844 0.950 . S
C849 C851 1.327 . S
C849 C855 1.429 . S
C850 C842 1.574 . S
C850 H845 0.949 . S
C850 C856 1.368 . S
C851 C835 1.349 . S
C851 H843 0.950 . S
C851 C849 1.327 . S
C852 C840 1.349 . S
C852 H846 0.950 . S
C852 C853 1.327 . S
C853 H847 0.950 . S
C853 C852 1.327 . S
C853 C857 1.429 . S
C854 C837 1.574 . S
C854 H848 0.949 . S
C854 C858 1.368 . S
C855 C836 1.429 . S
C855 C849 1.429 . S
C855 C856 1.523 . S
C856 C837 1.368 . S
C856 C850 1.368 . S
C856 C855 1.523 . S
C857 C841 1.429 . S
C857 C853 1.429 . S
C857 C858 1.523 . S
C858 C842 1.368 . S
C858 C854 1.368 . S
C858 C857 1.523 . S
H859 C834 0.950 . S
H860 C836 0.950 . S
H861 C837 0.949 . S
H862 C839 0.950 . S
H863 C841 0.950 . S
C864 C865 1.349 . S
C864 C866 1.327 . S
C864 H889 0.950 . S
C865 C864 1.349 . S
C865 C881 1.349 . S
C866 C864 1.327 . S
C866 C885 1.429 . S
C866 H890 0.950 . S
C867 C884 1.574 . S
C867 C886 1.368 . S
C867 H891 0.949 . S
H868 C872 0.949 . S
C869 C870 1.349 . S
C869 C871 1.327 . S
C869 H892 0.950 . S
C870 C869 1.349 . S
C870 C882 1.349 . S
C871 C869 1.327 . S
C871 C887 1.429 . S
C871 H893 0.950 . S
C872 H868 0.949 . S
C872 C880 1.574 . S
C872 C888 1.368 . S
H873 C881 0.950 . S
H874 C879 0.950 . S
H875 C880 0.949 . S
H876 C882 0.950 . S
H877 C883 0.950 . S
H878 C884 0.949 . S
C879 H874 0.950 . S
C879 C881 1.327 . S
C879 C885 1.429 . S
C880 C872 1.574 . S
C880 H875 0.949 . S
C880 C886 1.368 . S
C881 C865 1.349 . S
C881 H873 0.950 . S
C881 C879 1.327 . S
C882 C870 1.349 . S
C882 H876 0.950 . S
C882 C883 1.327 . S
C883 H877 0.950 . S
C883 C882 1.327 . S
C883 C887 1.429 . S
C884 C867 1.574 . S
C884 H878 0.949 . S
C884 C888 1.368 . S
C885 C866 1.429 . S
C885 C879 1.429 . S
C885 C886 1.523 . S
C886 C867 1.368 . S
C886 C880 1.368 . S
C886 C885 1.523 . S
C887 C871 1.429 . S
C887 C883 1.429 . S
C887 C888 1.523 . S
C888 C872 1.368 . S
C888 C884 1.368 . S
C888 C887 1.523 . S
H889 C864 0.950 . S
H890 C866 0.950 . S
H891 C867 0.949 . S
H892 C869 0.950 . S
H893 C871 0.950 . S
C894 C895 1.349 . S
C894 C896 1.327 . S
C894 H919 0.950 . S
C895 C894 1.349 . S
C895 C911 1.349 . S
C896 C894 1.327 . S
C896 C915 1.429 . S
C896 H920 0.950 . S
C897 C914 1.574 . S
C897 C916 1.368 . S
C897 H921 0.949 . S
H898 C902 0.949 . S
C899 C900 1.349 . S
C899 C901 1.327 . S
C899 H922 0.950 . S
C900 C899 1.349 . S
C900 C912 1.349 . S
C901 C899 1.327 . S
C901 C917 1.429 . S
C901 H923 0.950 . S
C902 H898 0.949 . S
C902 C910 1.574 . S
C902 C918 1.368 . S
H903 C911 0.950 . S
H904 C909 0.950 . S
H905 C910 0.949 . S
H906 C912 0.950 . S
H907 C913 0.950 . S
H908 C914 0.949 . S
C909 H904 0.950 . S
C909 C911 1.327 . S
C909 C915 1.429 . S
C910 C902 1.574 . S
C910 H905 0.949 . S
C910 C916 1.368 . S
C911 C895 1.349 . S
C911 H903 0.950 . S
C911 C909 1.327 . S
C912 C900 1.349 . S
C912 H906 0.950 . S
C912 C913 1.327 . S
C913 H907 0.950 . S
C913 C912 1.327 . S
C913 C917 1.429 . S
C914 C897 1.574 . S
C914 H908 0.949 . S
C914 C918 1.368 . S
C915 C896 1.429 . S
C915 C909 1.429 . S
C915 C916 1.523 . S
C916 C897 1.368 . S
C916 C910 1.368 . S
C916 C915 1.523 . S
C917 C901 1.429 . S
C917 C913 1.429 . S
C917 C918 1.523 . S
C918 C902 1.368 . S
C918 C914 1.368 . S
C918 C917 1.523 . S
H919 C894 0.950 . S
H920 C896 0.950 . S
H921 C897 0.949 . S
H922 C899 0.950 . S
H923 C901 0.950 . S
C924 C925 1.349 . S
C924 C926 1.327 . S
C924 H949 0.950 . S
C925 C924 1.349 . S
C925 C941 1.349 . S
C926 C924 1.327 . S
C926 C945 1.429 . S
C926 H950 0.950 . S
C927 C944 1.574 . S
C927 C946 1.368 . S
C927 H951 0.949 . S
H928 C932 0.949 . S
C929 C930 1.349 . S
C929 C931 1.327 . S
C929 H952 0.950 . S
C930 C929 1.349 . S
C930 C942 1.349 . S
C931 C929 1.327 . S
C931 C947 1.429 . S
C931 H953 0.950 . S
C932 H928 0.949 . S
C932 C940 1.574 . S
C932 C948 1.368 . S
H933 C941 0.950 . S
H934 C939 0.950 . S
H935 C940 0.949 . S
H936 C942 0.950 . S
H937 C943 0.950 . S
H938 C944 0.949 . S
C939 H934 0.950 . S
C939 C941 1.327 . S
C939 C945 1.429 . S
C940 C932 1.574 . S
C940 H935 0.949 . S
C940 C946 1.368 . S
C941 C925 1.349 . S
C941 H933 0.950 . S
C941 C939 1.327 . S
C942 C930 1.349 . S
C942 H936 0.950 . S
C942 C943 1.327 . S
C943 H937 0.950 . S
C943 C942 1.327 . S
C943 C947 1.429 . S
C944 C927 1.574 . S
C944 H938 0.949 . S
C944 C948 1.368 . S
C945 C926 1.429 . S
C945 C939 1.429 . S
C945 C946 1.523 . S
C946 C927 1.368 . S
C946 C940 1.368 . S
C946 C945 1.523 . S
C947 C931 1.429 . S
C947 C943 1.429 . S
C947 C948 1.523 . S
C948 C932 1.368 . S
C948 C944 1.368 . S
C948 C947 1.523 . S
H949 C924 0.950 . S
H950 C926 0.950 . S
H951 C927 0.949 . S
H952 C929 0.950 . S
H953 C931 0.950 . S
C954 C955 1.349 . S
C954 C956 1.327 . S
C954 H979 0.950 . S
C955 C954 1.349 . S
C955 C971 1.349 . S
C956 C954 1.327 . S
C956 C975 1.429 . S
C956 H980 0.950 . S
C957 C974 1.574 . S
C957 C976 1.368 . S
C957 H981 0.949 . S
H958 C962 0.949 . S
C959 C960 1.349 . S
C959 C961 1.327 . S
C959 H982 0.950 . S
C960 C959 1.349 . S
C960 C972 1.349 . S
C961 C959 1.327 . S
C961 C977 1.429 1_554 S
C961 H983 0.950 1_554 S
C962 H958 0.949 . S
C962 C970 1.574 . S
C962 C978 1.368 . S
H963 C971 0.950 . S
H964 C969 0.950 . S
H965 C970 0.949 . S
H966 C972 0.950 . S
H967 C973 0.950 . S
H968 C974 0.949 . S
C969 H964 0.950 . S
C969 C971 1.327 . S
C969 C975 1.429 . S
C970 C962 1.574 . S
C970 H965 0.949 . S
C970 C976 1.368 . S
C971 C955 1.349 . S
C971 H963 0.950 . S
C971 C969 1.327 . S
C972 C960 1.349 . S
C972 H966 0.950 . S
C972 C973 1.327 1_554 S
C973 H967 0.950 . S
C973 C972 1.327 1_556 S
C973 C977 1.429 . S
C974 C957 1.574 . S
C974 H968 0.949 . S
C974 C978 1.368 . S
C975 C956 1.429 . S
C975 C969 1.429 . S
C975 C976 1.523 . S
C976 C957 1.368 . S
C976 C970 1.368 . S
C976 C975 1.523 . S
C977 C961 1.429 1_556 S
C977 C973 1.429 . S
C977 C978 1.523 . S
C978 C962 1.368 . S
C978 C974 1.368 . S
C978 C977 1.523 . S
H979 C954 0.950 . S
H980 C956 0.950 . S
H981 C957 0.949 . S
H982 C959 0.950 . S
H983 C961 0.950 1_556 S
C984 C985 1.349 . S
C984 C986 1.327 . S
C984 H1009 0.950 . S
C985 C984 1.349 . S
C985 C1001 1.349 . S
C986 C984 1.327 . S
C986 C1005 1.429 . S
C986 H1010 0.950 . S
C987 C1004 1.574 . S
C987 C1006 1.368 . S
C987 H1011 0.949 . S
H988 C992 0.949 . S
C989 C990 1.349 . S
C989 C991 1.327 1_554 S
C989 H1012 0.950 . S
C990 C989 1.349 . S
C990 C1002 1.349 . S
C991 C989 1.327 1_556 S
C991 C1007 1.429 . S
C991 H1013 0.950 . S
C992 H988 0.949 . S
C992 C1000 1.574 . S
C992 C1008 1.368 . S
H993 C1001 0.950 . S
H994 C999 0.950 . S
H995 C1000 0.949 . S
H996 C1002 0.950 . S
H997 C1003 0.950 1_556 S
H998 C1004 0.949 . S
C999 H994 0.950 . S
C999 C1001 1.327 . S
C999 C1005 1.429 . S
C1000 C992 1.574 . S
C1000 H995 0.949 . S
C1000 C1006 1.368 . S
C1001 C985 1.349 . S
C1001 H993 0.950 . S
C1001 C999 1.327 . S
C1002 C990 1.349 . S
C1002 H996 0.950 . S
C1002 C1003 1.327 . S
C1003 H997 0.950 1_554 S
C1003 C1002 1.327 . S
C1003 C1007 1.429 1_554 S
C1004 C987 1.574 . S
C1004 H998 0.949 . S
C1004 C1008 1.368 . S
C1005 C986 1.429 . S
C1005 C999 1.429 . S
C1005 C1006 1.523 . S
C1006 C987 1.368 . S
C1006 C1000 1.368 . S
C1006 C1005 1.523 . S
C1007 C991 1.429 . S
C1007 C1003 1.429 1_556 S
C1007 C1008 1.523 . S
C1008 C992 1.368 . S
C1008 C1004 1.368 . S
C1008 C1007 1.523 . S
H1009 C984 0.950 . S
H1010 C986 0.950 . S
H1011 C987 0.949 . S
H1012 C989 0.950 . S
H1013 C991 0.950 . S
C1014 C1015 1.349 . S
C1014 C1016 1.327 . S
C1014 H1039 0.950 . S
C1015 C1014 1.349 . S
C1015 C1031 1.349 . S
C1016 C1014 1.327 . S
C1016 C1035 1.429 . S
C1016 H1040 0.950 . S
C1017 C1034 1.574 . S
C1017 C1036 1.368 . S
C1017 H1041 0.949 . S
H1018 C1022 0.949 . S
C1019 C1020 1.349 . S
C1019 C1021 1.327 1_554 S
C1019 H1042 0.950 . S
C1020 C1019 1.349 . S
C1020 C1032 1.349 . S
C1021 C1019 1.327 1_556 S
C1021 C1037 1.429 . S
C1021 H1043 0.950 . S
C1022 H1018 0.949 . S
C1022 C1030 1.574 . S
C1022 C1038 1.368 . S
H1023 C1031 0.950 . S
H1024 C1029 0.950 . S
H1025 C1030 0.949 . S
H1026 C1032 0.950 . S
H1027 C1033 0.950 . S
H1028 C1034 0.949 . S
C1029 H1024 0.950 . S
C1029 C1031 1.327 . S
C1029 C1035 1.429 . S
C1030 C1022 1.574 . S
C1030 H1025 0.949 . S
C1030 C1036 1.368 . S
C1031 C1015 1.349 . S
C1031 H1023 0.950 . S
C1031 C1029 1.327 . S
C1032 C1020 1.349 . S
C1032 H1026 0.950 . S
C1032 C1033 1.327 1_554 S
C1033 H1027 0.950 . S
C1033 C1032 1.327 1_556 S
C1033 C1037 1.429 . S
C1034 C1017 1.574 . S
C1034 H1028 0.949 . S
C1034 C1038 1.368 . S
C1035 C1016 1.429 . S
C1035 C1029 1.429 . S
C1035 C1036 1.523 . S
C1036 C1017 1.368 . S
C1036 C1030 1.368 . S
C1036 C1035 1.523 . S
C1037 C1021 1.429 . S
C1037 C1033 1.429 . S
C1037 C1038 1.523 . S
C1038 C1022 1.368 . S
C1038 C1034 1.368 . S
C1038 C1037 1.523 . S
H1039 C1014 0.950 . S
H1040 C1016 0.950 . S
H1041 C1017 0.949 . S
H1042 C1019 0.950 . S
H1043 C1021 0.950 . S
C1044 C1045 1.349 . S
C1044 C1046 1.327 . S
C1044 H1069 0.950 . S
C1045 C1044 1.349 . S
C1045 C1061 1.349 . S
C1046 C1044 1.327 . S
C1046 C1065 1.429 . S
C1046 H1070 0.950 . S
C1047 C1064 1.574 . S
C1047 C1066 1.368 . S
C1047 H1071 0.949 . S
H1048 C1052 0.949 . S
C1049 C1050 1.349 . S
C1049 C1051 1.327 . S
C1049 H1072 0.950 . S
C1050 C1049 1.349 . S
C1050 C1062 1.349 . S
C1051 C1049 1.327 . S
C1051 C1067 1.429 . S
C1051 H1073 0.950 . S
C1052 H1048 0.949 . S
C1052 C1060 1.574 . S
C1052 C1068 1.368 . S
H1053 C1061 0.950 . S
H1054 C1059 0.950 . S
H1055 C1060 0.949 . S
H1056 C1062 0.950 . S
H1057 C1063 0.950 . S
H1058 C1064 0.949 . S
C1059 H1054 0.950 . S
C1059 C1061 1.327 . S
C1059 C1065 1.429 . S
C1060 C1052 1.574 . S
C1060 H1055 0.949 . S
C1060 C1066 1.368 . S
C1061 C1045 1.349 . S
C1061 H1053 0.950 . S
C1061 C1059 1.327 . S
C1062 C1050 1.349 . S
C1062 H1056 0.950 . S
C1062 C1063 1.327 . S
C1063 H1057 0.950 . S
C1063 C1062 1.327 . S
C1063 C1067 1.429 . S
C1064 C1047 1.574 . S
C1064 H1058 0.949 . S
C1064 C1068 1.368 . S
C1065 C1046 1.429 . S
C1065 C1059 1.429 . S
C1065 C1066 1.523 . S
C1066 C1047 1.368 . S
C1066 C1060 1.368 . S
C1066 C1065 1.523 . S
C1067 C1051 1.429 . S
C1067 C1063 1.429 . S
C1067 C1068 1.523 . S
C1068 C1052 1.368 . S
C1068 C1064 1.368 . S
C1068 C1067 1.523 . S
H1069 C1044 0.950 . S
H1070 C1046 0.950 . S
H1071 C1047 0.949 . S
H1072 C1049 0.950 . S
H1073 C1051 0.950 . S
C1074 C1075 1.349 . S
C1074 C1076 1.327 . S
C1074 H1099 0.950 . S
C1075 C1074 1.349 . S
C1075 C1091 1.349 . S
C1076 C1074 1.327 . S
C1076 C1095 1.429 . S
C1076 H1100 0.950 . S
C1077 C1094 1.574 . S
C1077 C1096 1.368 . S
C1077 H1101 0.949 . S
H1078 C1082 0.949 . S
C1079 C1080 1.349 . S
C1079 C1081 1.327 . S
C1079 H1102 0.950 . S
C1080 C1079 1.349 . S
C1080 C1092 1.349 . S
C1081 C1079 1.327 . S
C1081 C1097 1.429 . S
C1081 H1103 0.950 . S
C1082 H1078 0.949 . S
C1082 C1090 1.574 . S
C1082 C1098 1.368 . S
H1083 C1091 0.950 . S
H1084 C1089 0.950 . S
H1085 C1090 0.949 . S
H1086 C1092 0.950 . S
H1087 C1093 0.950 . S
H1088 C1094 0.949 . S
C1089 H1084 0.950 . S
C1089 C1091 1.327 . S
C1089 C1095 1.429 . S
C1090 C1082 1.574 . S
C1090 H1085 0.949 . S
C1090 C1096 1.368 . S
C1091 C1075 1.349 . S
C1091 H1083 0.950 . S
C1091 C1089 1.327 . S
C1092 C1080 1.349 . S
C1092 H1086 0.950 . S
C1092 C1093 1.327 . S
C1093 H1087 0.950 . S
C1093 C1092 1.327 . S
C1093 C1097 1.429 . S
C1094 C1077 1.574 . S
C1094 H1088 0.949 . S
C1094 C1098 1.368 . S
C1095 C1076 1.429 . S
C1095 C1089 1.429 . S
C1095 C1096 1.523 . S
C1096 C1077 1.368 . S
C1096 C1090 1.368 . S
C1096 C1095 1.523 . S
C1097 C1081 1.429 . S
C1097 C1093 1.429 . S
C1097 C1098 1.523 . S
C1098 C1082 1.368 . S
C1098 C1094 1.368 . S
C1098 C1097 1.523 . S
H1099 C1074 0.950 . S
H1100 C1076 0.950 . S
H1101 C1077 0.949 . S
H1102 C1079 0.950 . S
H1103 C1081 0.950 . S
C1104 C1105 1.349 . S
C1104 C1106 1.327 . S
C1104 H1129 0.950 . S
C1105 C1104 1.349 . S
C1105 C1121 1.349 . S
C1106 C1104 1.327 . S
C1106 C1125 1.429 . S
C1106 H1130 0.950 . S
C1107 C1124 1.574 . S
C1107 C1126 1.368 . S
C1107 H1131 0.949 . S
H1108 C1112 0.949 . S
C1109 C1110 1.349 . S
C1109 C1111 1.327 . S
C1109 H1132 0.950 . S
C1110 C1109 1.349 . S
C1110 C1122 1.349 . S
C1111 C1109 1.327 . S
C1111 C1127 1.429 . S
C1111 H1133 0.950 . S
C1112 H1108 0.949 . S
C1112 C1120 1.574 . S
C1112 C1128 1.368 . S
H1113 C1121 0.950 . S
H1114 C1119 0.950 . S
H1115 C1120 0.949 . S
H1116 C1122 0.950 . S
H1117 C1123 0.950 . S
H1118 C1124 0.949 . S
C1119 H1114 0.950 . S
C1119 C1121 1.327 . S
C1119 C1125 1.429 . S
C1120 C1112 1.574 . S
C1120 H1115 0.949 . S
C1120 C1126 1.368 . S
C1121 C1105 1.349 . S
C1121 H1113 0.950 . S
C1121 C1119 1.327 . S
C1122 C1110 1.349 . S
C1122 H1116 0.950 . S
C1122 C1123 1.327 . S
C1123 H1117 0.950 . S
C1123 C1122 1.327 . S
C1123 C1127 1.429 . S
C1124 C1107 1.574 . S
C1124 H1118 0.949 . S
C1124 C1128 1.368 . S
C1125 C1106 1.429 . S
C1125 C1119 1.429 . S
C1125 C1126 1.523 . S
C1126 C1107 1.368 . S
C1126 C1120 1.368 . S
C1126 C1125 1.523 . S
C1127 C1111 1.429 . S
C1127 C1123 1.429 . S
C1127 C1128 1.523 . S
C1128 C1112 1.368 . S
C1128 C1124 1.368 . S
C1128 C1127 1.523 . S
H1129 C1104 0.950 . S
H1130 C1106 0.950 . S
H1131 C1107 0.949 . S
H1132 C1109 0.950 . S
H1133 C1111 0.950 . S
C1134 C1135 1.349 . S
C1134 C1136 1.327 . S
C1134 H1159 0.950 . S
C1135 C1134 1.349 . S
C1135 C1151 1.349 . S
C1136 C1134 1.327 . S
C1136 C1155 1.429 . S
C1136 H1160 0.950 . S
C1137 C1154 1.574 . S
C1137 C1156 1.368 . S
C1137 H1161 0.949 . S
H1138 C1142 0.949 . S
C1139 C1140 1.349 . S
C1139 C1141 1.327 . S
C1139 H1162 0.950 . S
C1140 C1139 1.349 . S
C1140 C1152 1.349 . S
C1141 C1139 1.327 . S
C1141 C1157 1.429 . S
C1141 H1163 0.950 . S
C1142 H1138 0.949 . S
C1142 C1150 1.574 . S
C1142 C1158 1.368 . S
H1143 C1151 0.950 . S
H1144 C1149 0.950 . S
H1145 C1150 0.949 . S
H1146 C1152 0.950 . S
H1147 C1153 0.950 . S
H1148 C1154 0.949 . S
C1149 H1144 0.950 . S
C1149 C1151 1.327 . S
C1149 C1155 1.429 . S
C1150 C1142 1.574 . S
C1150 H1145 0.949 . S
C1150 C1156 1.368 . S
C1151 C1135 1.349 . S
C1151 H1143 0.950 . S
C1151 C1149 1.327 . S
C1152 C1140 1.349 . S
C1152 H1146 0.950 . S
C1152 C1153 1.327 . S
C1153 H1147 0.950 . S
C1153 C1152 1.327 . S
C1153 C1157 1.429 . S
C1154 C1137 1.574 . S
C1154 H1148 0.949 . S
C1154 C1158 1.368 . S
C1155 C1136 1.429 . S
C1155 C1149 1.429 . S
C1155 C1156 1.523 . S
C1156 C1137 1.368 . S
C1156 C1150 1.368 . S
C1156 C1155 1.523 . S
C1157 C1141 1.429 . S
C1157 C1153 1.429 . S
C1157 C1158 1.523 . S
C1158 C1142 1.368 . S
C1158 C1154 1.368 . S
C1158 C1157 1.523 . S
H1159 C1134 0.950 . S
H1160 C1136 0.950 . S
H1161 C1137 0.949 . S
H1162 C1139 0.950 . S
H1163 C1141 0.950 . S
C1164 C1165 1.349 . S
C1164 C1166 1.327 . S
C1164 H1189 0.950 . S
C1165 C1164 1.349 . S
C1165 C1181 1.349 . S
C1166 C1164 1.327 . S
C1166 C1185 1.429 . S
C1166 H1190 0.950 . S
C1167 C1184 1.574 . S
C1167 C1186 1.368 . S
C1167 H1191 0.949 . S
H1168 C1172 0.949 . S
C1169 C1170 1.349 . S
C1169 C1171 1.327 . S
C1169 H1192 0.950 . S
C1170 C1169 1.349 . S
C1170 C1182 1.349 . S
C1171 C1169 1.327 . S
C1171 C1187 1.429 . S
C1171 H1193 0.950 . S
C1172 H1168 0.949 . S
C1172 C1180 1.574 . S
C1172 C1188 1.368 . S
H1173 C1181 0.950 . S
H1174 C1179 0.950 . S
H1175 C1180 0.949 . S
H1176 C1182 0.950 . S
H1177 C1183 0.950 . S
H1178 C1184 0.949 . S
C1179 H1174 0.950 . S
C1179 C1181 1.327 . S
C1179 C1185 1.429 . S
C1180 C1172 1.574 . S
C1180 H1175 0.949 . S
C1180 C1186 1.368 . S
C1181 C1165 1.349 . S
C1181 H1173 0.950 . S
C1181 C1179 1.327 . S
C1182 C1170 1.349 . S
C1182 H1176 0.950 . S
C1182 C1183 1.327 . S
C1183 H1177 0.950 . S
C1183 C1182 1.327 . S
C1183 C1187 1.429 . S
C1184 C1167 1.574 . S
C1184 H1178 0.949 . S
C1184 C1188 1.368 . S
C1185 C1166 1.429 . S
C1185 C1179 1.429 . S
C1185 C1186 1.523 . S
C1186 C1167 1.368 . S
C1186 C1180 1.368 . S
C1186 C1185 1.523 . S
C1187 C1171 1.429 . S
C1187 C1183 1.429 . S
C1187 C1188 1.523 . S
C1188 C1172 1.368 . S
C1188 C1184 1.368 . S
C1188 C1187 1.523 . S
H1189 C1164 0.950 . S
H1190 C1166 0.950 . S
H1191 C1167 0.949 . S
H1192 C1169 0.950 . S
H1193 C1171 0.950 . S
C1194 C1195 1.349 . S
C1194 C1196 1.327 . S
C1194 H1219 0.950 . S
C1195 C1194 1.349 . S
C1195 C1211 1.349 . S
C1196 C1194 1.327 . S
C1196 C1215 1.429 . S
C1196 H1220 0.950 . S
C1197 C1214 1.574 . S
C1197 C1216 1.368 . S
C1197 H1221 0.949 . S
H1198 C1202 0.949 . S
C1199 C1200 1.349 . S
C1199 C1201 1.327 . S
C1199 H1222 0.950 . S
C1200 C1199 1.349 . S
C1200 C1212 1.349 . S
C1201 C1199 1.327 . S
C1201 C1217 1.429 . S
C1201 H1223 0.950 . S
C1202 H1198 0.949 . S
C1202 C1210 1.574 . S
C1202 C1218 1.368 . S
H1203 C1211 0.950 . S
H1204 C1209 0.950 . S
H1205 C1210 0.949 . S
H1206 C1212 0.950 . S
H1207 C1213 0.950 . S
H1208 C1214 0.949 . S
C1209 H1204 0.950 . S
C1209 C1211 1.327 . S
C1209 C1215 1.429 . S
C1210 C1202 1.574 . S
C1210 H1205 0.949 . S
C1210 C1216 1.368 . S
C1211 C1195 1.349 . S
C1211 H1203 0.950 . S
C1211 C1209 1.327 . S
C1212 C1200 1.349 . S
C1212 H1206 0.950 . S
C1212 C1213 1.327 . S
C1213 H1207 0.950 . S
C1213 C1212 1.327 . S
C1213 C1217 1.429 . S
C1214 C1197 1.574 . S
C1214 H1208 0.949 . S
C1214 C1218 1.368 . S
C1215 C1196 1.429 . S
C1215 C1209 1.429 . S
C1215 C1216 1.523 . S
C1216 C1197 1.368 . S
C1216 C1210 1.368 . S
C1216 C1215 1.523 . S
C1217 C1201 1.429 . S
C1217 C1213 1.429 . S
C1217 C1218 1.523 . S
C1218 C1202 1.368 . S
C1218 C1214 1.368 . S
C1218 C1217 1.523 . S
H1219 C1194 0.950 . S
H1220 C1196 0.950 . S
H1221 C1197 0.949 . S
H1222 C1199 0.950 . S
H1223 C1201 0.950 . S
C1224 C1225 1.349 . S
C1224 C1226 1.327 . S
C1224 H1249 0.950 . S
C1225 C1224 1.349 . S
C1225 C1241 1.349 . S
C1226 C1224 1.327 . S
C1226 C1245 1.429 . S
C1226 H1250 0.950 . S
C1227 C1244 1.574 . S
C1227 C1246 1.368 . S
C1227 H1251 0.949 . S
H1228 C1232 0.949 . S
C1229 C1230 1.349 . S
C1229 C1231 1.327 . S
C1229 H1252 0.950 . S
C1230 C1229 1.349 . S
C1230 C1242 1.349 . S
C1231 C1229 1.327 . S
C1231 C1247 1.429 . S
C1231 H1253 0.950 . S
C1232 H1228 0.949 . S
C1232 C1240 1.574 . S
C1232 C1248 1.368 . S
H1233 C1241 0.950 . S
H1234 C1239 0.950 . S
H1235 C1240 0.949 . S
H1236 C1242 0.950 . S
H1237 C1243 0.950 . S
H1238 C1244 0.949 . S
C1239 H1234 0.950 . S
C1239 C1241 1.327 . S
C1239 C1245 1.429 . S
C1240 C1232 1.574 . S
C1240 H1235 0.949 . S
C1240 C1246 1.368 . S
C1241 C1225 1.349 . S
C1241 H1233 0.950 . S
C1241 C1239 1.327 . S
C1242 C1230 1.349 . S
C1242 H1236 0.950 . S
C1242 C1243 1.327 . S
C1243 H1237 0.950 . S
C1243 C1242 1.327 . S
C1243 C1247 1.429 . S
C1244 C1227 1.574 . S
C1244 H1238 0.949 . S
C1244 C1248 1.368 . S
C1245 C1226 1.429 . S
C1245 C1239 1.429 . S
C1245 C1246 1.523 . S
C1246 C1227 1.368 . S
C1246 C1240 1.368 . S
C1246 C1245 1.523 . S
C1247 C1231 1.429 . S
C1247 C1243 1.429 . S
C1247 C1248 1.523 . S
C1248 C1232 1.368 . S
C1248 C1244 1.368 . S
C1248 C1247 1.523 . S
H1249 C1224 0.950 . S
H1250 C1226 0.950 . S
H1251 C1227 0.949 . S
H1252 C1229 0.950 . S
H1253 C1231 0.950 . S
C1254 C1255 1.349 . S
C1254 C1256 1.327 . S
C1254 H1279 0.950 . S
C1255 C1254 1.349 . S
C1255 C1271 1.349 . S
C1256 C1254 1.327 . S
C1256 C1275 1.429 . S
C1256 H1280 0.950 . S
C1257 C1274 1.574 . S
C1257 C1276 1.368 . S
C1257 H1281 0.949 . S
H1258 C1262 0.949 . S
C1259 C1260 1.349 . S
C1259 C1261 1.327 . S
C1259 H1282 0.950 . S
C1260 C1259 1.349 . S
C1260 C1272 1.349 . S
C1261 C1259 1.327 . S
C1261 C1277 1.429 . S
C1261 H1283 0.950 . S
C1262 H1258 0.949 . S
C1262 C1270 1.574 . S
C1262 C1278 1.368 . S
H1263 C1271 0.950 . S
H1264 C1269 0.950 . S
H1265 C1270 0.949 . S
H1266 C1272 0.950 . S
H1267 C1273 0.950 . S
H1268 C1274 0.949 . S
C1269 H1264 0.950 . S
C1269 C1271 1.327 . S
C1269 C1275 1.429 . S
C1270 C1262 1.574 . S
C1270 H1265 0.949 . S
C1270 C1276 1.368 . S
C1271 C1255 1.349 . S
C1271 H1263 0.950 . S
C1271 C1269 1.327 . S
C1272 C1260 1.349 . S
C1272 H1266 0.950 . S
C1272 C1273 1.327 . S
C1273 H1267 0.950 . S
C1273 C1272 1.327 . S
C1273 C1277 1.429 . S
C1274 C1257 1.574 . S
C1274 H1268 0.949 . S
C1274 C1278 1.368 . S
C1275 C1256 1.429 . S
C1275 C1269 1.429 . S
C1275 C1276 1.523 . S
C1276 C1257 1.368 . S
C1276 C1270 1.368 . S
C1276 C1275 1.523 . S
C1277 C1261 1.429 . S
C1277 C1273 1.429 . S
C1277 C1278 1.523 . S
C1278 C1262 1.368 . S
C1278 C1274 1.368 . S
C1278 C1277 1.523 . S
H1279 C1254 0.950 . S
H1280 C1256 0.950 . S
H1281 C1257 0.949 . S
H1282 C1259 0.950 . S
H1283 C1261 0.950 . S
C1284 C1285 1.349 . S
C1284 C1286 1.327 . S
C1284 H1309 0.950 . S
C1285 C1284 1.349 . S
C1285 C1301 1.349 . S
C1286 C1284 1.327 . S
C1286 C1305 1.429 . S
C1286 H1310 0.950 . S
C1287 C1304 1.574 . S
C1287 C1306 1.368 . S
C1287 H1311 0.949 . S
H1288 C1292 0.949 . S
C1289 C1290 1.349 . S
C1289 C1291 1.327 . S
C1289 H1312 0.950 . S
C1290 C1289 1.349 . S
C1290 C1302 1.349 . S
C1291 C1289 1.327 . S
C1291 C1307 1.429 . S
C1291 H1313 0.950 . S
C1292 H1288 0.949 . S
C1292 C1300 1.574 . S
C1292 C1308 1.368 . S
H1293 C1301 0.950 . S
H1294 C1299 0.950 . S
H1295 C1300 0.949 . S
H1296 C1302 0.950 . S
H1297 C1303 0.950 . S
H1298 C1304 0.949 . S
C1299 H1294 0.950 . S
C1299 C1301 1.327 . S
C1299 C1305 1.429 . S
C1300 C1292 1.574 . S
C1300 H1295 0.949 . S
C1300 C1306 1.368 . S
C1301 C1285 1.349 . S
C1301 H1293 0.950 . S
C1301 C1299 1.327 . S
C1302 C1290 1.349 . S
C1302 H1296 0.950 . S
C1302 C1303 1.327 . S
C1303 H1297 0.950 . S
C1303 C1302 1.327 . S
C1303 C1307 1.429 . S
C1304 C1287 1.574 . S
C1304 H1298 0.949 . S
C1304 C1308 1.368 . S
C1305 C1286 1.429 . S
C1305 C1299 1.429 . S
C1305 C1306 1.523 . S
C1306 C1287 1.368 . S
C1306 C1300 1.368 . S
C1306 C1305 1.523 . S
C1307 C1291 1.429 . S
C1307 C1303 1.429 . S
C1307 C1308 1.523 . S
C1308 C1292 1.368 . S
C1308 C1304 1.368 . S
C1308 C1307 1.523 . S
H1309 C1284 0.950 . S
H1310 C1286 0.950 . S
H1311 C1287 0.949 . S
H1312 C1289 0.950 . S
H1313 C1291 0.950 . S
C1314 C1315 1.349 . S
C1314 C1316 1.327 . S
C1314 H1339 0.950 . S
C1315 C1314 1.349 . S
C1315 C1331 1.349 . S
C1316 C1314 1.327 . S
C1316 C1335 1.429 . S
C1316 H1340 0.950 . S
C1317 C1334 1.574 . S
C1317 C1336 1.368 . S
C1317 H1341 0.949 . S
H1318 C1322 0.949 . S
C1319 C1320 1.349 . S
C1319 C1321 1.327 . S
C1319 H1342 0.950 . S
C1320 C1319 1.349 . S
C1320 C1332 1.349 . S
C1321 C1319 1.327 . S
C1321 C1337 1.429 . S
C1321 H1343 0.950 . S
C1322 H1318 0.949 . S
C1322 C1330 1.574 . S
C1322 C1338 1.368 . S
H1323 C1331 0.950 . S
H1324 C1329 0.950 . S
H1325 C1330 0.949 . S
H1326 C1332 0.950 . S
H1327 C1333 0.950 . S
H1328 C1334 0.949 . S
C1329 H1324 0.950 . S
C1329 C1331 1.327 . S
C1329 C1335 1.429 . S
C1330 C1322 1.574 . S
C1330 H1325 0.949 . S
C1330 C1336 1.368 . S
C1331 C1315 1.349 . S
C1331 H1323 0.950 . S
C1331 C1329 1.327 . S
C1332 C1320 1.349 . S
C1332 H1326 0.950 . S
C1332 C1333 1.327 . S
C1333 H1327 0.950 . S
C1333 C1332 1.327 . S
C1333 C1337 1.429 . S
C1334 C1317 1.574 . S
C1334 H1328 0.949 . S
C1334 C1338 1.368 . S
C1335 C1316 1.429 . S
C1335 C1329 1.429 . S
C1335 C1336 1.523 . S
C1336 C1317 1.368 . S
C1336 C1330 1.368 . S
C1336 C1335 1.523 . S
C1337 C1321 1.429 . S
C1337 C1333 1.429 . S
C1337 C1338 1.523 . S
C1338 C1322 1.368 . S
C1338 C1334 1.368 . S
C1338 C1337 1.523 . S
H1339 C1314 0.950 . S
H1340 C1316 0.950 . S
H1341 C1317 0.949 . S
H1342 C1319 0.950 . S
H1343 C1321 0.950 . S
C1344 C1345 1.349 . S
C1344 C1346 1.327 . S
C1344 H1369 0.950 . S
C1345 C1344 1.349 . S
C1345 C1361 1.349 . S
C1346 C1344 1.327 . S
C1346 C1365 1.429 . S
C1346 H1370 0.950 . S
C1347 C1364 1.574 . S
C1347 C1366 1.368 . S
C1347 H1371 0.949 . S
H1348 C1352 0.949 . S
C1349 C1350 1.349 . S
C1349 C1351 1.327 . S
C1349 H1372 0.950 . S
C1350 C1349 1.349 . S
C1350 C1362 1.349 . S
C1351 C1349 1.327 . S
C1351 C1367 1.429 . S
C1351 H1373 0.950 . S
C1352 H1348 0.949 . S
C1352 C1360 1.574 . S
C1352 C1368 1.368 . S
H1353 C1361 0.950 . S
H1354 C1359 0.950 . S
H1355 C1360 0.949 . S
H1356 C1362 0.950 . S
H1357 C1363 0.950 . S
H1358 C1364 0.949 . S
C1359 H1354 0.950 . S
C1359 C1361 1.327 . S
C1359 C1365 1.429 . S
C1360 C1352 1.574 . S
C1360 H1355 0.949 . S
C1360 C1366 1.368 . S
C1361 C1345 1.349 . S
C1361 H1353 0.950 . S
C1361 C1359 1.327 . S
C1362 C1350 1.349 . S
C1362 H1356 0.950 . S
C1362 C1363 1.327 . S
C1363 H1357 0.950 . S
C1363 C1362 1.327 . S
C1363 C1367 1.429 . S
C1364 C1347 1.574 . S
C1364 H1358 0.949 . S
C1364 C1368 1.368 . S
C1365 C1346 1.429 . S
C1365 C1359 1.429 . S
C1365 C1366 1.523 . S
C1366 C1347 1.368 . S
C1366 C1360 1.368 . S
C1366 C1365 1.523 . S
C1367 C1351 1.429 . S
C1367 C1363 1.429 . S
C1367 C1368 1.523 . S
C1368 C1352 1.368 . S
C1368 C1364 1.368 . S
C1368 C1367 1.523 . S
H1369 C1344 0.950 . S
H1370 C1346 0.950 . S
H1371 C1347 0.949 . S
H1372 C1349 0.950 . S
H1373 C1351 0.950 . S
C1374 C1375 1.349 . S
C1374 C1376 1.327 . S
C1374 H1399 0.950 . S
C1375 C1374 1.349 . S
C1375 C1391 1.349 . S
C1376 C1374 1.327 . S
C1376 C1395 1.429 . S
C1376 H1400 0.950 . S
C1377 C1394 1.574 . S
C1377 C1396 1.368 . S
C1377 H1401 0.949 . S
H1378 C1382 0.949 . S
C1379 C1380 1.349 . S
C1379 C1381 1.327 . S
C1379 H1402 0.950 . S
C1380 C1379 1.349 . S
C1380 C1392 1.349 . S
C1381 C1379 1.327 . S
C1381 C1397 1.429 . S
C1381 H1403 0.950 . S
C1382 H1378 0.949 . S
C1382 C1390 1.574 . S
C1382 C1398 1.368 . S
H1383 C1391 0.950 . S
H1384 C1389 0.950 . S
H1385 C1390 0.949 . S
H1386 C1392 0.950 . S
H1387 C1393 0.950 . S
H1388 C1394 0.949 . S
C1389 H1384 0.950 . S
C1389 C1391 1.327 . S
C1389 C1395 1.429 . S
C1390 C1382 1.574 . S
C1390 H1385 0.949 . S
C1390 C1396 1.368 . S
C1391 C1375 1.349 . S
C1391 H1383 0.950 . S
C1391 C1389 1.327 . S
C1392 C1380 1.349 . S
C1392 H1386 0.950 . S
C1392 C1393 1.327 . S
C1393 H1387 0.950 . S
C1393 C1392 1.327 . S
C1393 C1397 1.429 . S
C1394 C1377 1.574 . S
C1394 H1388 0.949 . S
C1394 C1398 1.368 . S
C1395 C1376 1.429 . S
C1395 C1389 1.429 . S
C1395 C1396 1.523 . S
C1396 C1377 1.368 . S
C1396 C1390 1.368 . S
C1396 C1395 1.523 . S
C1397 C1381 1.429 . S
C1397 C1393 1.429 . S
C1397 C1398 1.523 . S
C1398 C1382 1.368 . S
C1398 C1394 1.368 . S
C1398 C1397 1.523 . S
H1399 C1374 0.950 . S
H1400 C1376 0.950 . S
H1401 C1377 0.949 . S
H1402 C1379 0.950 . S
H1403 C1381 0.950 . S
C1404 C1405 1.349 . S
C1404 C1406 1.327 . S
C1404 H1429 0.950 . S
C1405 C1404 1.349 . S
C1405 C1421 1.349 . S
C1406 C1404 1.327 . S
C1406 C1425 1.429 . S
C1406 H1430 0.950 . S
C1407 C1424 1.574 . S
C1407 C1426 1.368 . S
C1407 H1431 0.949 . S
H1408 C1412 0.949 . S
C1409 C1410 1.349 . S
C1409 C1411 1.327 . S
C1409 H1432 0.950 . S
C1410 C1409 1.349 . S
C1410 C1422 1.349 . S
C1411 C1409 1.327 . S
C1411 C1427 1.429 . S
C1411 H1433 0.950 . S
C1412 H1408 0.949 . S
C1412 C1420 1.574 . S
C1412 C1428 1.368 . S
H1413 C1421 0.950 . S
H1414 C1419 0.950 . S
H1415 C1420 0.949 . S
H1416 C1422 0.950 . S
H1417 C1423 0.950 . S
H1418 C1424 0.949 . S
C1419 H1414 0.950 . S
C1419 C1421 1.327 . S
C1419 C1425 1.429 . S
C1420 C1412 1.574 . S
C1420 H1415 0.949 . S
C1420 C1426 1.368 . S
C1421 C1405 1.349 . S
C1421 H1413 0.950 . S
C1421 C1419 1.327 . S
C1422 C1410 1.349 . S
C1422 H1416 0.950 . S
C1422 C1423 1.327 . S
C1423 H1417 0.950 . S
C1423 C1422 1.327 . S
C1423 C1427 1.429 . S
C1424 C1407 1.574 . S
C1424 H1418 0.949 . S
C1424 C1428 1.368 . S
C1425 C1406 1.429 . S
C1425 C1419 1.429 . S
C1425 C1426 1.523 . S
C1426 C1407 1.368 . S
C1426 C1420 1.368 . S
C1426 C1425 1.523 . S
C1427 C1411 1.429 . S
C1427 C1423 1.429 . S
C1427 C1428 1.523 . S
C1428 C1412 1.368 . S
C1428 C1424 1.368 . S
C1428 C1427 1.523 . S
H1429 C1404 0.950 . S
H1430 C1406 0.950 . S
H1431 C1407 0.949 . S
H1432 C1409 0.950 . S
H1433 C1411 0.950 . S
C1434 C1435 1.349 . S
C1434 C1436 1.327 . S
C1434 H1459 0.950 . S
C1435 C1434 1.349 . S
C1435 C1451 1.349 . S
C1436 C1434 1.327 . S
C1436 C1455 1.429 . S
C1436 H1460 0.950 . S
C1437 C1454 1.574 . S
C1437 C1456 1.368 . S
C1437 H1461 0.949 . S
H1438 C1442 0.949 . S
C1439 C1440 1.349 . S
C1439 C1441 1.327 . S
C1439 H1462 0.950 . S
C1440 C1439 1.349 . S
C1440 C1452 1.349 . S
C1441 C1439 1.327 . S
C1441 C1457 1.429 . S
C1441 H1463 0.950 . S
C1442 H1438 0.949 . S
C1442 C1450 1.574 . S
C1442 C1458 1.368 . S
H1443 C1451 0.950 . S
H1444 C1449 0.950 . S
H1445 C1450 0.949 . S
H1446 C1452 0.950 . S
H1447 C1453 0.950 . S
H1448 C1454 0.949 . S
C1449 H1444 0.950 . S
C1449 C1451 1.327 . S
C1449 C1455 1.429 . S
C1450 C1442 1.574 . S
C1450 H1445 0.949 . S
C1450 C1456 1.368 . S
C1451 C1435 1.349 . S
C1451 H1443 0.950 . S
C1451 C1449 1.327 . S
C1452 C1440 1.349 . S
C1452 H1446 0.950 . S
C1452 C1453 1.327 . S
C1453 H1447 0.950 . S
C1453 C1452 1.327 . S
C1453 C1457 1.429 . S
C1454 C1437 1.574 . S
C1454 H1448 0.949 . S
C1454 C1458 1.368 . S
C1455 C1436 1.429 . S
C1455 C1449 1.429 . S
C1455 C1456 1.523 . S
C1456 C1437 1.368 . S
C1456 C1450 1.368 . S
C1456 C1455 1.523 . S
C1457 C1441 1.429 . S
C1457 C1453 1.429 . S
C1457 C1458 1.523 . S
C1458 C1442 1.368 . S
C1458 C1454 1.368 . S
C1458 C1457 1.523 . S
H1459 C1434 0.950 . S
H1460 C1436 0.950 . S
H1461 C1437 0.949 . S
H1462 C1439 0.950 . S
H1463 C1441 0.950 . S
C1464 C1465 1.349 . S
C1464 C1466 1.327 . S
C1464 H1489 0.950 . S
C1465 C1464 1.349 . S
C1465 C1481 1.349 . S
C1466 C1464 1.327 . S
C1466 C1485 1.429 . S
C1466 H1490 0.950 . S
C1467 C1484 1.574 . S
C1467 C1486 1.368 . S
C1467 H1491 0.949 . S
H1468 C1472 0.949 . S
C1469 C1470 1.349 . S
C1469 C1471 1.327 . S
C1469 H1492 0.950 . S
C1470 C1469 1.349 . S
C1470 C1482 1.349 . S
C1471 C1469 1.327 . S
C1471 C1487 1.429 . S
C1471 H1493 0.950 . S
C1472 H1468 0.949 . S
C1472 C1480 1.574 . S
C1472 C1488 1.368 . S
H1473 C1481 0.950 . S
H1474 C1479 0.950 . S
H1475 C1480 0.949 . S
H1476 C1482 0.950 . S
H1477 C1483 0.950 . S
H1478 C1484 0.949 . S
C1479 H1474 0.950 . S
C1479 C1481 1.327 . S
C1479 C1485 1.429 . S
C1480 C1472 1.574 . S
C1480 H1475 0.949 . S
C1480 C1486 1.368 . S
C1481 C1465 1.349 . S
C1481 H1473 0.950 . S
C1481 C1479 1.327 . S
C1482 C1470 1.349 . S
C1482 H1476 0.950 . S
C1482 C1483 1.327 . S
C1483 H1477 0.950 . S
C1483 C1482 1.327 . S
C1483 C1487 1.429 . S
C1484 C1467 1.574 . S
C1484 H1478 0.949 . S
C1484 C1488 1.368 . S
C1485 C1466 1.429 . S
C1485 C1479 1.429 . S
C1485 C1486 1.523 . S
C1486 C1467 1.368 . S
C1486 C1480 1.368 . S
C1486 C1485 1.523 . S
C1487 C1471 1.429 . S
C1487 C1483 1.429 . S
C1487 C1488 1.523 . S
C1488 C1472 1.368 . S
C1488 C1484 1.368 . S
C1488 C1487 1.523 . S
H1489 C1464 0.950 . S
H1490 C1466 0.950 . S
H1491 C1467 0.949 . S
H1492 C1469 0.950 . S
H1493 C1471 0.950 . S
C1494 C1495 1.349 . S
C1494 C1496 1.327 . S
C1494 H1519 0.950 . S
C1495 C1494 1.349 . S
C1495 C1511 1.349 . S
C1496 C1494 1.327 . S
C1496 C1515 1.429 . S
C1496 H1520 0.950 . S
C1497 C1514 1.574 . S
C1497 C1516 1.368 . S
C1497 H1521 0.949 . S
H1498 C1502 0.949 . S
C1499 C1500 1.349 . S
C1499 C1501 1.327 1_556 S
C1499 H1522 0.950 . S
C1500 C1499 1.349 . S
C1500 C1512 1.349 . S
C1501 C1499 1.327 1_554 S
C1501 C1517 1.429 . S
C1501 H1523 0.950 . S
C1502 H1498 0.949 . S
C1502 C1510 1.574 . S
C1502 C1518 1.368 . S
H1503 C1511 0.950 . S
H1504 C1509 0.950 . S
H1505 C1510 0.949 . S
H1506 C1512 0.950 . S
H1507 C1513 0.961 . S
H1508 C1514 0.949 . S
C1509 H1504 0.950 . S
C1509 C1511 1.327 . S
C1509 C1515 1.429 . S
C1510 C1502 1.574 . S
C1510 H1505 0.949 . S
C1510 C1516 1.368 . S
C1511 C1495 1.349 . S
C1511 H1503 0.950 . S
C1511 C1509 1.327 . S
C1512 C1500 1.349 . S
C1512 H1506 0.950 . S
C1512 C1513 1.299 1_556 S
C1513 H1507 0.961 . S
C1513 C1512 1.299 1_554 S
C1513 C1517 1.446 . S
C1514 C1497 1.574 . S
C1514 H1508 0.949 . S
C1514 C1518 1.368 . S
C1515 C1496 1.429 . S
C1515 C1509 1.429 . S
C1515 C1516 1.523 . S
C1516 C1497 1.368 . S
C1516 C1510 1.368 . S
C1516 C1515 1.523 . S
C1517 C1501 1.429 . S
C1517 C1513 1.446 . S
C1517 C1518 1.523 . S
C1518 C1502 1.368 . S
C1518 C1514 1.368 . S
C1518 C1517 1.523 . S
H1519 C1494 0.950 . S
H1520 C1496 0.950 . S
H1521 C1497 0.949 . S
H1522 C1499 0.950 . S
H1523 C1501 0.950 . S
C1524 C1525 1.349 . S
C1524 C1526 1.327 1_556 S
C1524 H1549 0.950 . S
C1525 C1524 1.349 . S
C1525 C1541 1.349 . S
C1526 C1524 1.327 1_554 S
C1526 C1545 1.429 . S
C1526 H1550 0.950 . S
C1527 C1544 1.574 . S
C1527 C1546 1.368 . S
C1527 H1551 0.949 . S
H1528 C1532 0.949 . S
C1529 C1530 1.349 . S
C1529 C1531 1.327 . S
C1529 H1552 0.950 . S
C1530 C1529 1.349 . S
C1530 C1542 1.349 . S
C1531 C1529 1.327 . S
C1531 C1547 1.429 . S
C1531 H1553 0.950 . S
C1532 H1528 0.949 . S
C1532 C1540 1.574 . S
C1532 C1548 1.368 . S
H1533 C1541 0.950 . S
H1534 C1539 0.950 1_554 S
H1535 C1540 0.949 . S
H1536 C1542 0.950 . S
H1537 C1543 0.950 . S
H1538 C1544 0.949 . S
C1539 H1534 0.950 1_556 S
C1539 C1541 1.327 . S
C1539 C1545 1.429 1_556 S
C1540 C1532 1.574 . S
C1540 H1535 0.949 . S
C1540 C1546 1.368 . S
C1541 C1525 1.349 . S
C1541 H1533 0.950 . S
C1541 C1539 1.327 . S
C1542 C1530 1.349 . S
C1542 H1536 0.950 . S
C1542 C1543 1.327 . S
C1543 H1537 0.950 . S
C1543 C1542 1.327 . S
C1543 C1547 1.429 . S
C1544 C1527 1.574 . S
C1544 H1538 0.949 . S
C1544 C1548 1.368 . S
C1545 C1526 1.429 . S
C1545 C1539 1.429 1_554 S
C1545 C1546 1.523 . S
C1546 C1527 1.368 . S
C1546 C1540 1.368 . S
C1546 C1545 1.523 . S
C1547 C1531 1.429 . S
C1547 C1543 1.429 . S
C1547 C1548 1.523 . S
C1548 C1532 1.368 . S
C1548 C1544 1.368 . S
C1548 C1547 1.523 . S
H1549 C1524 0.950 . S
H1550 C1526 0.950 . S
H1551 C1527 0.949 . S
H1552 C1529 0.950 . S
H1553 C1531 0.950 . S
C1554 C1555 1.349 . S
C1554 C1556 1.327 . S
C1554 H1579 0.950 . S
C1555 C1554 1.349 . S
C1555 C1571 1.349 . S
C1556 C1554 1.327 . S
C1556 C1575 1.429 . S
C1556 H1580 0.950 . S
C1557 C1574 1.574 . S
C1557 C1576 1.368 . S
C1557 H1581 0.949 . S
H1558 C1562 0.949 . S
C1559 C1560 1.349 . S
C1559 C1561 1.327 1_556 S
C1559 H1582 0.950 . S
C1560 C1559 1.349 . S
C1560 C1572 1.349 . S
C1561 C1559 1.327 1_554 S
C1561 C1577 1.429 . S
C1561 H1583 0.950 . S
C1562 H1558 0.949 . S
C1562 C1570 1.574 . S
C1562 C1578 1.368 . S
H1563 C1571 0.950 . S
H1564 C1569 0.950 . S
H1565 C1570 0.949 . S
H1566 C1572 0.950 . S
H1567 C1573 0.950 1_554 S
H1568 C1574 0.949 . S
C1569 H1564 0.950 . S
C1569 C1571 1.327 . S
C1569 C1575 1.429 . S
C1570 C1562 1.574 . S
C1570 H1565 0.949 . S
C1570 C1576 1.368 . S
C1571 C1555 1.349 . S
C1571 H1563 0.950 . S
C1571 C1569 1.327 . S
C1572 C1560 1.349 . S
C1572 H1566 0.950 . S
C1572 C1573 1.327 . S
C1573 H1567 0.950 1_556 S
C1573 C1572 1.327 . S
C1573 C1577 1.429 1_556 S
C1574 C1557 1.574 . S
C1574 H1568 0.949 . S
C1574 C1578 1.368 . S
C1575 C1556 1.429 . S
C1575 C1569 1.429 . S
C1575 C1576 1.523 . S
C1576 C1557 1.368 . S
C1576 C1570 1.368 . S
C1576 C1575 1.523 . S
C1577 C1561 1.429 . S
C1577 C1573 1.429 1_554 S
C1577 C1578 1.523 . S
C1578 C1562 1.368 . S
C1578 C1574 1.368 . S
C1578 C1577 1.523 . S
H1579 C1554 0.950 . S
H1580 C1556 0.950 . S
H1581 C1557 0.949 . S
H1582 C1559 0.950 . S
H1583 C1561 0.950 . S
C1584 C1585 1.349 . S
C1584 C1586 1.327 . S
C1584 H1609 0.950 . S
C1585 C1584 1.349 . S
C1585 C1601 1.349 . S
C1586 C1584 1.327 . S
C1586 C1605 1.429 . S
C1586 H1610 0.950 . S
C1587 C1604 1.574 . S
C1587 C1606 1.368 . S
C1587 H1611 0.949 . S
H1588 C1592 0.949 . S
C1589 C1590 1.349 . S
C1589 C1591 1.327 . S
C1589 H1612 0.950 . S
C1590 C1589 1.349 . S
C1590 C1602 1.349 . S
C1591 C1589 1.327 . S
C1591 C1607 1.429 . S
C1591 H1613 0.950 . S
C1592 H1588 0.949 . S
C1592 C1600 1.574 . S
C1592 C1608 1.368 . S
H1593 C1601 0.950 . S
H1594 C1599 0.950 . S
H1595 C1600 0.949 . S
H1596 C1602 0.950 . S
H1597 C1603 0.950 . S
H1598 C1604 0.949 . S
C1599 H1594 0.950 . S
C1599 C1601 1.327 . S
C1599 C1605 1.429 . S
C1600 C1592 1.574 . S
C1600 H1595 0.949 . S
C1600 C1606 1.368 . S
C1601 C1585 1.349 . S
C1601 H1593 0.950 . S
C1601 C1599 1.327 . S
C1602 C1590 1.349 . S
C1602 H1596 0.950 . S
C1602 C1603 1.327 . S
C1603 H1597 0.950 . S
C1603 C1602 1.327 . S
C1603 C1607 1.429 . S
C1604 C1587 1.574 . S
C1604 H1598 0.949 . S
C1604 C1608 1.368 . S
C1605 C1586 1.429 . S
C1605 C1599 1.429 . S
C1605 C1606 1.523 . S
C1606 C1587 1.368 . S
C1606 C1600 1.368 . S
C1606 C1605 1.523 . S
C1607 C1591 1.429 . S
C1607 C1603 1.429 . S
C1607 C1608 1.523 . S
C1608 C1592 1.368 . S
C1608 C1604 1.368 . S
C1608 C1607 1.523 . S
H1609 C1584 0.950 . S
H1610 C1586 0.950 . S
H1611 C1587 0.949 . S
H1612 C1589 0.950 . S
H1613 C1591 0.950 . S
C1614 C1615 1.349 . S
C1614 C1616 1.327 . S
C1614 H1639 0.950 . S
C1615 C1614 1.349 . S
C1615 C1631 1.349 . S
C1616 C1614 1.327 . S
C1616 C1635 1.429 . S
C1616 H1640 0.950 . S
C1617 C1634 1.574 1_565 S
C1617 C1636 1.368 . S
C1617 H1641 0.949 . S
H1618 C1622 0.949 . S
C1619 C1620 1.349 . S
C1619 C1621 1.327 . S
C1619 H1642 0.950 . S
C1620 C1619 1.349 . S
C1620 C1632 1.349 . S
C1621 C1619 1.327 . S
C1621 C1637 1.429 . S
C1621 H1643 0.950 . S
C1622 H1618 0.949 . S
C1622 C1630 1.574 1_545 S
C1622 C1638 1.368 . S
H1623 C1631 0.950 . S
H1624 C1629 0.950 . S
H1625 C1630 0.949 . S
H1626 C1632 0.950 . S
H1627 C1633 0.950 . S
H1628 C1634 0.949 . S
C1629 H1624 0.950 . S
C1629 C1631 1.327 . S
C1629 C1635 1.429 . S
C1630 C1622 1.574 1_565 S
C1630 H1625 0.949 . S
C1630 C1636 1.368 . S
C1631 C1615 1.349 . S
C1631 H1623 0.950 . S
C1631 C1629 1.327 . S
C1632 C1620 1.349 . S
C1632 H1626 0.950 . S
C1632 C1633 1.327 . S
C1633 H1627 0.950 . S
C1633 C1632 1.327 . S
C1633 C1637 1.429 . S
C1634 C1617 1.574 1_545 S
C1634 H1628 0.949 . S
C1634 C1638 1.368 . S
C1635 C1616 1.429 . S
C1635 C1629 1.429 . S
C1635 C1636 1.523 . S
C1636 C1617 1.368 . S
C1636 C1630 1.368 . S
C1636 C1635 1.523 . S
C1637 C1621 1.429 . S
C1637 C1633 1.429 . S
C1637 C1638 1.523 . S
C1638 C1622 1.368 . S
C1638 C1634 1.368 . S
C1638 C1637 1.523 . S
H1639 C1614 0.950 . S
H1640 C1616 0.950 . S
H1641 C1617 0.949 . S
H1642 C1619 0.950 . S
H1643 C1621 0.950 . S
C1644 C1645 1.349 . S
C1644 C1646 1.327 . S
C1644 H1669 0.950 . S
C1645 C1644 1.349 . S
C1645 C1661 1.349 . S
C1646 C1644 1.327 . S
C1646 C1665 1.429 . S
C1646 H1670 0.950 . S
C1647 C1664 1.574 1_655 S
C1647 C1666 1.368 . S
C1647 H1671 0.949 . S
H1648 C1652 0.949 . S
C1649 C1650 1.349 . S
C1649 C1651 1.327 . S
C1649 H1672 0.950 . S
C1650 C1649 1.349 . S
C1650 C1662 1.349 . S
C1651 C1649 1.327 . S
C1651 C1667 1.429 . S
C1651 H1673 0.950 . S
C1652 H1648 0.949 . S
C1652 C1660 1.574 1_455 S
C1652 C1668 1.368 . S
H1653 C1661 0.950 . S
H1654 C1659 0.950 . S
H1655 C1660 0.949 . S
H1656 C1662 0.950 . S
H1657 C1663 0.950 . S
H1658 C1664 0.949 . S
C1659 H1654 0.950 . S
C1659 C1661 1.327 . S
C1659 C1665 1.429 . S
C1660 C1652 1.574 1_655 S
C1660 H1655 0.949 . S
C1660 C1666 1.368 . S
C1661 C1645 1.349 . S
C1661 H1653 0.950 . S
C1661 C1659 1.327 . S
C1662 C1650 1.349 . S
C1662 H1656 0.950 . S
C1662 C1663 1.327 . S
C1663 H1657 0.950 . S
C1663 C1662 1.327 . S
C1663 C1667 1.429 . S
C1664 C1647 1.574 1_455 S
C1664 H1658 0.949 . S
C1664 C1668 1.368 . S
C1665 C1646 1.429 . S
C1665 C1659 1.429 . S
C1665 C1666 1.523 . S
C1666 C1647 1.368 . S
C1666 C1660 1.368 . S
C1666 C1665 1.523 . S
C1667 C1651 1.429 . S
C1667 C1663 1.429 . S
C1667 C1668 1.523 . S
C1668 C1652 1.368 . S
C1668 C1664 1.368 . S
C1668 C1667 1.523 . S
H1669 C1644 0.950 . S
H1670 C1646 0.950 . S
H1671 C1647 0.949 . S
H1672 C1649 0.950 . S
H1673 C1651 0.950 . S
C1674 C1675 1.349 . S
C1674 C1676 1.327 . S
C1674 H1699 0.950 . S
C1675 C1674 1.349 . S
C1675 C1691 1.349 . S
C1676 C1674 1.327 . S
C1676 C1695 1.429 . S
C1676 H1700 0.950 . S
C1677 C1694 1.574 . S
C1677 C1696 1.368 . S
C1677 H1701 0.949 . S
H1678 C1682 0.949 . S
C1679 C1680 1.349 . S
C1679 C1681 1.327 . S
C1679 H1702 0.950 . S
C1680 C1679 1.349 . S
C1680 C1692 1.349 . S
C1681 C1679 1.327 . S
C1681 C1697 1.429 . S
C1681 H1703 0.950 . S
C1682 H1678 0.949 . S
C1682 C1690 1.574 . S
C1682 C1698 1.368 . S
H1683 C1691 0.950 . S
H1684 C1689 0.950 . S
H1685 C1690 0.949 . S
H1686 C1692 0.950 . S
H1687 C1693 0.950 . S
H1688 C1694 0.949 . S
C1689 H1684 0.950 . S
C1689 C1691 1.327 . S
C1689 C1695 1.429 . S
C1690 C1682 1.574 . S
C1690 H1685 0.949 . S
C1690 C1696 1.368 . S
C1691 C1675 1.349 . S
C1691 H1683 0.950 . S
C1691 C1689 1.327 . S
C1692 C1680 1.349 . S
C1692 H1686 0.950 . S
C1692 C1693 1.327 . S
C1693 H1687 0.950 . S
C1693 C1692 1.327 . S
C1693 C1697 1.429 . S
C1694 C1677 1.574 . S
C1694 H1688 0.949 . S
C1694 C1698 1.368 . S
C1695 C1676 1.429 . S
C1695 C1689 1.429 . S
C1695 C1696 1.523 . S
C1696 C1677 1.368 . S
C1696 C1690 1.368 . S
C1696 C1695 1.523 . S
C1697 C1681 1.429 . S
C1697 C1693 1.429 . S
C1697 C1698 1.523 . S
C1698 C1682 1.368 . S
C1698 C1694 1.368 . S
C1698 C1697 1.523 . S
H1699 C1674 0.950 . S
H1700 C1676 0.950 . S
H1701 C1677 0.949 . S
H1702 C1679 0.950 . S
H1703 C1681 0.950 . S
C1704 C1705 1.349 . S
C1704 C1706 1.327 . S
C1704 H1729 0.950 . S
C1705 C1704 1.349 . S
C1705 C1721 1.349 . S
C1706 C1704 1.327 . S
C1706 C1725 1.429 . S
C1706 H1730 0.950 . S
C1707 C1724 1.574 1_545 S
C1707 C1726 1.368 . S
C1707 H1731 0.949 . S
H1708 C1712 0.949 . S
C1709 C1710 1.349 . S
C1709 C1711 1.327 . S
C1709 H1732 0.950 . S
C1710 C1709 1.349 . S
C1710 C1722 1.349 . S
C1711 C1709 1.327 . S
C1711 C1727 1.429 . S
C1711 H1733 0.950 . S
C1712 H1708 0.949 . S
C1712 C1720 1.574 1_565 S
C1712 C1728 1.368 . S
H1713 C1721 0.950 . S
H1714 C1719 0.950 . S
H1715 C1720 0.949 . S
H1716 C1722 0.950 . S
H1717 C1723 0.950 . S
H1718 C1724 0.949 . S
C1719 H1714 0.950 . S
C1719 C1721 1.327 . S
C1719 C1725 1.429 . S
C1720 C1712 1.574 1_545 S
C1720 H1715 0.949 . S
C1720 C1726 1.368 . S
C1721 C1705 1.349 . S
C1721 H1713 0.950 . S
C1721 C1719 1.327 . S
C1722 C1710 1.349 . S
C1722 H1716 0.950 . S
C1722 C1723 1.327 . S
C1723 H1717 0.950 . S
C1723 C1722 1.327 . S
C1723 C1727 1.429 . S
C1724 C1707 1.574 1_565 S
C1724 H1718 0.949 . S
C1724 C1728 1.368 . S
C1725 C1706 1.429 . S
C1725 C1719 1.429 . S
C1725 C1726 1.523 . S
C1726 C1707 1.368 . S
C1726 C1720 1.368 . S
C1726 C1725 1.523 . S
C1727 C1711 1.429 . S
C1727 C1723 1.429 . S
C1727 C1728 1.523 . S
C1728 C1712 1.368 . S
C1728 C1724 1.368 . S
C1728 C1727 1.523 . S
H1729 C1704 0.950 . S
H1730 C1706 0.950 . S
H1731 C1707 0.949 . S
H1732 C1709 0.950 . S
H1733 C1711 0.950 . S
C1734 C1735 1.349 . S
C1734 C1736 1.327 . S
C1734 H1759 0.950 . S
C1735 C1734 1.349 . S
C1735 C1751 1.349 . S
C1736 C1734 1.327 . S
C1736 C1755 1.429 . S
C1736 H1760 0.950 . S
C1737 C1754 1.574 1_655 S
C1737 C1756 1.368 . S
C1737 H1761 0.949 . S
H1738 C1742 0.949 . S
C1739 C1740 1.349 . S
C1739 C1741 1.327 . S
C1739 H1762 0.950 . S
C1740 C1739 1.349 . S
C1740 C1752 1.349 . S
C1741 C1739 1.327 . S
C1741 C1757 1.429 . S
C1741 H1763 0.950 . S
C1742 H1738 0.949 . S
C1742 C1750 1.574 1_455 S
C1742 C1758 1.368 . S
H1743 C1751 0.950 . S
H1744 C1749 0.950 . S
H1745 C1750 0.949 . S
H1746 C1752 0.950 . S
H1747 C1753 0.950 . S
H1748 C1754 0.949 . S
C1749 H1744 0.950 . S
C1749 C1751 1.327 . S
C1749 C1755 1.429 . S
C1750 C1742 1.574 1_655 S
C1750 H1745 0.949 . S
C1750 C1756 1.368 . S
C1751 C1735 1.349 . S
C1751 H1743 0.950 . S
C1751 C1749 1.327 . S
C1752 C1740 1.349 . S
C1752 H1746 0.950 . S
C1752 C1753 1.327 . S
C1753 H1747 0.950 . S
C1753 C1752 1.327 . S
C1753 C1757 1.429 . S
C1754 C1737 1.574 1_455 S
C1754 H1748 0.949 . S
C1754 C1758 1.368 . S
C1755 C1736 1.429 . S
C1755 C1749 1.429 . S
C1755 C1756 1.523 . S
C1756 C1737 1.368 . S
C1756 C1750 1.368 . S
C1756 C1755 1.523 . S
C1757 C1741 1.429 . S
C1757 C1753 1.429 . S
C1757 C1758 1.523 . S
C1758 C1742 1.368 . S
C1758 C1754 1.368 . S
C1758 C1757 1.523 . S
H1759 C1734 0.950 . S
H1760 C1736 0.950 . S
H1761 C1737 0.949 . S
H1762 C1739 0.950 . S
H1763 C1741 0.950 . S
C1764 C1765 1.349 . S
C1764 C1766 1.327 . S
C1764 H1789 0.950 . S
C1765 C1764 1.349 . S
C1765 C1781 1.349 . S
C1766 C1764 1.327 . S
C1766 C1785 1.429 . S
C1766 H1790 0.950 . S
C1767 C1784 1.574 . S
C1767 C1786 1.368 . S
C1767 H1791 0.949 . S
H1768 C1772 0.949 . S
C1769 C1770 1.349 . S
C1769 C1771 1.327 . S
C1769 H1792 0.950 . S
C1770 C1769 1.349 . S
C1770 C1782 1.349 . S
C1771 C1769 1.327 . S
C1771 C1787 1.429 . S
C1771 H1793 0.950 . S
C1772 H1768 0.949 . S
C1772 C1780 1.574 . S
C1772 C1788 1.368 . S
H1773 C1781 0.950 . S
H1774 C1779 0.950 . S
H1775 C1780 0.949 . S
H1776 C1782 0.950 . S
H1777 C1783 0.950 . S
H1778 C1784 0.949 . S
C1779 H1774 0.950 . S
C1779 C1781 1.327 . S
C1779 C1785 1.429 . S
C1780 C1772 1.574 . S
C1780 H1775 0.949 . S
C1780 C1786 1.368 . S
C1781 C1765 1.349 . S
C1781 H1773 0.950 . S
C1781 C1779 1.327 . S
C1782 C1770 1.349 . S
C1782 H1776 0.950 . S
C1782 C1783 1.327 . S
C1783 H1777 0.950 . S
C1783 C1782 1.327 . S
C1783 C1787 1.429 . S
C1784 C1767 1.574 . S
C1784 H1778 0.949 . S
C1784 C1788 1.368 . S
C1785 C1766 1.429 . S
C1785 C1779 1.429 . S
C1785 C1786 1.523 . S
C1786 C1767 1.368 . S
C1786 C1780 1.368 . S
C1786 C1785 1.523 . S
C1787 C1771 1.429 . S
C1787 C1783 1.429 . S
C1787 C1788 1.523 . S
C1788 C1772 1.368 . S
C1788 C1784 1.368 . S
C1788 C1787 1.523 . S
H1789 C1764 0.950 . S
H1790 C1766 0.950 . S
H1791 C1767 0.949 . S
H1792 C1769 0.950 . S
H1793 C1771 0.950 . S
C1794 C1795 1.349 . S
C1794 C1796 1.327 . S
C1794 H1819 0.950 . S
C1795 C1794 1.349 . S
C1795 C1811 1.349 . S
C1796 C1794 1.327 . S
C1796 C1815 1.429 . S
C1796 H1820 0.950 . S
C1797 C1814 1.574 . S
C1797 C1816 1.368 . S
C1797 H1821 0.949 . S
H1798 C1802 0.949 . S
C1799 C1800 1.349 . S
C1799 C1801 1.327 . S
C1799 H1822 0.950 . S
C1800 C1799 1.349 . S
C1800 C1812 1.349 . S
C1801 C1799 1.327 . S
C1801 C1817 1.429 . S
C1801 H1823 0.950 . S
C1802 H1798 0.949 . S
C1802 C1810 1.574 . S
C1802 C1818 1.368 . S
H1803 C1811 0.950 . S
H1804 C1809 0.950 . S
H1805 C1810 0.949 . S
H1806 C1812 0.950 . S
H1807 C1813 0.950 . S
H1808 C1814 0.949 . S
C1809 H1804 0.950 . S
C1809 C1811 1.327 . S
C1809 C1815 1.429 . S
C1810 C1802 1.574 . S
C1810 H1805 0.949 . S
C1810 C1816 1.368 . S
C1811 C1795 1.349 . S
C1811 H1803 0.950 . S
C1811 C1809 1.327 . S
C1812 C1800 1.349 . S
C1812 H1806 0.950 . S
C1812 C1813 1.327 . S
C1813 H1807 0.950 . S
C1813 C1812 1.327 . S
C1813 C1817 1.429 . S
C1814 C1797 1.574 . S
C1814 H1808 0.949 . S
C1814 C1818 1.368 . S
C1815 C1796 1.429 . S
C1815 C1809 1.429 . S
C1815 C1816 1.523 . S
C1816 C1797 1.368 . S
C1816 C1810 1.368 . S
C1816 C1815 1.523 . S
C1817 C1801 1.429 . S
C1817 C1813 1.429 . S
C1817 C1818 1.523 . S
C1818 C1802 1.368 . S
C1818 C1814 1.368 . S
C1818 C1817 1.523 . S
H1819 C1794 0.950 . S
H1820 C1796 0.950 . S
H1821 C1797 0.949 . S
H1822 C1799 0.950 . S
H1823 C1801 0.950 . S
C1824 C1825 1.349 . S
C1824 C1826 1.327 . S
C1824 H1849 0.950 . S
C1825 C1824 1.349 . S
C1825 C1841 1.349 . S
C1826 C1824 1.327 . S
C1826 C1845 1.429 . S
C1826 H1850 0.950 . S
C1827 C1844 1.574 . S
C1827 C1846 1.368 . S
C1827 H1851 0.949 . S
H1828 C1832 0.949 . S
C1829 C1830 1.349 . S
C1829 C1831 1.327 . S
C1829 H1852 0.950 . S
C1830 C1829 1.349 . S
C1830 C1842 1.349 . S
C1831 C1829 1.327 . S
C1831 C1847 1.429 . S
C1831 H1853 0.950 . S
C1832 H1828 0.949 . S
C1832 C1840 1.574 . S
C1832 C1848 1.368 . S
H1833 C1841 0.950 . S
H1834 C1839 0.950 . S
H1835 C1840 0.949 . S
H1836 C1842 0.950 . S
H1837 C1843 0.950 . S
H1838 C1844 0.949 . S
C1839 H1834 0.950 . S
C1839 C1841 1.327 . S
C1839 C1845 1.429 . S
C1840 C1832 1.574 . S
C1840 H1835 0.949 . S
C1840 C1846 1.368 . S
C1841 C1825 1.349 . S
C1841 H1833 0.950 . S
C1841 C1839 1.327 . S
C1842 C1830 1.349 . S
C1842 H1836 0.950 . S
C1842 C1843 1.327 . S
C1843 H1837 0.950 . S
C1843 C1842 1.327 . S
C1843 C1847 1.429 . S
C1844 C1827 1.574 . S
C1844 H1838 0.949 . S
C1844 C1848 1.368 . S
C1845 C1826 1.429 . S
C1845 C1839 1.429 . S
C1845 C1846 1.523 . S
C1846 C1827 1.368 . S
C1846 C1840 1.368 . S
C1846 C1845 1.523 . S
C1847 C1831 1.429 . S
C1847 C1843 1.429 . S
C1847 C1848 1.523 . S
C1848 C1832 1.368 . S
C1848 C1844 1.368 . S
C1848 C1847 1.523 . S
H1849 C1824 0.950 . S
H1850 C1826 0.950 . S
H1851 C1827 0.949 . S
H1852 C1829 0.950 . S
H1853 C1831 0.950 . S
C1854 C1855 1.349 . S
C1854 C1856 1.327 . S
C1854 H1879 0.950 . S
C1855 C1854 1.349 . S
C1855 C1871 1.349 . S
C1856 C1854 1.327 . S
C1856 C1875 1.429 . S
C1856 H1880 0.950 . S
C1857 C1874 1.574 . S
C1857 C1876 1.368 . S
C1857 H1881 0.949 . S
H1858 C1862 0.949 . S
C1859 C1860 1.349 . S
C1859 C1861 1.327 . S
C1859 H1882 0.950 . S
C1860 C1859 1.349 . S
C1860 C1872 1.349 . S
C1861 C1859 1.327 . S
C1861 C1877 1.429 . S
C1861 H1883 0.950 . S
C1862 H1858 0.949 . S
C1862 C1870 1.574 . S
C1862 C1878 1.368 . S
H1863 C1871 0.950 . S
H1864 C1869 0.950 . S
H1865 C1870 0.949 . S
H1866 C1872 0.950 . S
H1867 C1873 0.950 . S
H1868 C1874 0.949 . S
C1869 H1864 0.950 . S
C1869 C1871 1.327 . S
C1869 C1875 1.429 . S
C1870 C1862 1.574 . S
C1870 H1865 0.949 . S
C1870 C1876 1.368 . S
C1871 C1855 1.349 . S
C1871 H1863 0.950 . S
C1871 C1869 1.327 . S
C1872 C1860 1.349 . S
C1872 H1866 0.950 . S
C1872 C1873 1.327 . S
C1873 H1867 0.950 . S
C1873 C1872 1.327 . S
C1873 C1877 1.429 . S
C1874 C1857 1.574 . S
C1874 H1868 0.949 . S
C1874 C1878 1.368 . S
C1875 C1856 1.429 . S
C1875 C1869 1.429 . S
C1875 C1876 1.523 . S
C1876 C1857 1.368 . S
C1876 C1870 1.368 . S
C1876 C1875 1.523 . S
C1877 C1861 1.429 . S
C1877 C1873 1.429 . S
C1877 C1878 1.523 . S
C1878 C1862 1.368 . S
C1878 C1874 1.368 . S
C1878 C1877 1.523 . S
H1879 C1854 0.950 . S
H1880 C1856 0.950 . S
H1881 C1857 0.949 . S
H1882 C1859 0.950 . S
H1883 C1861 0.950 . S
C1884 C1885 1.349 . S
C1884 C1886 1.327 . S
C1884 H1909 0.950 . S
C1885 C1884 1.349 . S
C1885 C1901 1.349 . S
C1886 C1884 1.327 . S
C1886 C1905 1.429 . S
C1886 H1910 0.950 . S
C1887 C1904 1.574 . S
C1887 C1906 1.368 . S
C1887 H1911 0.949 . S
H1888 C1892 0.949 . S
C1889 C1890 1.349 . S
C1889 C1891 1.327 . S
C1889 H1912 0.950 . S
C1890 C1889 1.349 . S
C1890 C1902 1.349 . S
C1891 C1889 1.327 . S
C1891 C1907 1.429 . S
C1891 H1913 0.950 . S
C1892 H1888 0.949 . S
C1892 C1900 1.574 . S
C1892 C1908 1.368 . S
H1893 C1901 0.950 1_556 S
H1894 C1899 0.950 . S
H1895 C1900 0.949 . S
H1896 C1902 0.950 . S
H1897 C1903 0.950 . S
H1898 C1904 0.949 . S
C1899 H1894 0.950 . S
C1899 C1901 1.327 . S
C1899 C1905 1.429 . S
C1900 C1892 1.574 . S
C1900 H1895 0.949 . S
C1900 C1906 1.368 . S
C1901 C1885 1.349 . S
C1901 H1893 0.950 1_554 S
C1901 C1899 1.327 . S
C1902 C1890 1.349 . S
C1902 H1896 0.950 . S
C1902 C1903 1.327 . S
C1903 H1897 0.950 . S
C1903 C1902 1.327 . S
C1903 C1907 1.429 . S
C1904 C1887 1.574 . S
C1904 H1898 0.949 . S
C1904 C1908 1.368 . S
C1905 C1886 1.429 . S
C1905 C1899 1.429 . S
C1905 C1906 1.523 . S
C1906 C1887 1.368 . S
C1906 C1900 1.368 . S
C1906 C1905 1.523 . S
C1907 C1891 1.429 . S
C1907 C1903 1.429 . S
C1907 C1908 1.523 . S
C1908 C1892 1.368 . S
C1908 C1904 1.368 . S
C1908 C1907 1.523 . S
H1909 C1884 0.950 . S
H1910 C1886 0.950 . S
H1911 C1887 0.949 . S
H1912 C1889 0.950 . S
H1913 C1891 0.950 . S
C1914 C1915 1.349 . S
C1914 C1916 1.327 . S
C1914 H1939 0.950 . S
C1915 C1914 1.349 . S
C1915 C1931 1.349 . S
C1916 C1914 1.327 . S
C1916 C1935 1.429 . S
C1916 H1940 0.950 . S
C1917 C1934 1.574 . S
C1917 C1936 1.368 . S
C1917 H1941 0.949 . S
H1918 C1922 0.949 . S
C1919 C1920 1.349 . S
C1919 C1921 1.327 . S
C1919 H1942 0.950 1_554 S
C1920 C1919 1.349 . S
C1920 C1932 1.349 . S
C1921 C1919 1.327 . S
C1921 C1937 1.429 . S
C1921 H1943 0.950 . S
C1922 H1918 0.949 . S
C1922 C1930 1.574 . S
C1922 C1938 1.368 . S
H1923 C1931 0.950 . S
H1924 C1929 0.950 . S
H1925 C1930 0.949 . S
H1926 C1932 0.950 . S
H1927 C1933 0.950 . S
H1928 C1934 0.949 . S
C1929 H1924 0.950 . S
C1929 C1931 1.327 . S
C1929 C1935 1.429 . S
C1930 C1922 1.574 . S
C1930 H1925 0.949 . S
C1930 C1936 1.368 . S
C1931 C1915 1.349 . S
C1931 H1923 0.950 . S
C1931 C1929 1.327 . S
C1932 C1920 1.349 . S
C1932 H1926 0.950 . S
C1932 C1933 1.327 . S
C1933 H1927 0.950 . S
C1933 C1932 1.327 . S
C1933 C1937 1.429 . S
C1934 C1917 1.574 . S
C1934 H1928 0.949 . S
C1934 C1938 1.368 . S
C1935 C1916 1.429 . S
C1935 C1929 1.429 . S
C1935 C1936 1.523 . S
C1936 C1917 1.368 . S
C1936 C1930 1.368 . S
C1936 C1935 1.523 . S
C1937 C1921 1.429 . S
C1937 C1933 1.429 . S
C1937 C1938 1.523 . S
C1938 C1922 1.368 . S
C1938 C1934 1.368 . S
C1938 C1937 1.523 . S
H1939 C1914 0.950 . S
H1940 C1916 0.950 . S
H1941 C1917 0.949 . S
H1942 C1919 0.950 1_556 S
H1943 C1921 0.950 . S
C1944 C1945 1.349 . S
C1944 C1946 1.327 . S
C1944 H1969 0.950 . S
C1945 C1944 1.349 . S
C1945 C1961 1.349 . S
C1946 C1944 1.327 . S
C1946 C1965 1.429 . S
C1946 H1970 0.950 . S
C1947 C1964 1.574 . S
C1947 C1966 1.368 . S
C1947 H1971 0.949 . S
H1948 C1952 0.949 . S
C1949 C1950 1.349 . S
C1949 C1951 1.327 . S
C1949 H1972 0.950 . S
C1950 C1949 1.349 . S
C1950 C1962 1.349 . S
C1951 C1949 1.327 . S
C1951 C1967 1.429 . S
C1951 H1973 0.950 . S
C1952 H1948 0.949 . S
C1952 C1960 1.574 . S
C1952 C1968 1.368 . S
H1953 C1961 0.950 . S
H1954 C1959 0.950 . S
H1955 C1960 0.949 . S
H1956 C1962 0.950 . S
H1957 C1963 0.950 . S
H1958 C1964 0.949 . S
C1959 H1954 0.950 . S
C1959 C1961 1.327 . S
C1959 C1965 1.429 . S
C1960 C1952 1.574 . S
C1960 H1955 0.949 . S
C1960 C1966 1.368 . S
C1961 C1945 1.349 . S
C1961 H1953 0.950 . S
C1961 C1959 1.327 . S
C1962 C1950 1.349 . S
C1962 H1956 0.950 . S
C1962 C1963 1.327 . S
C1963 H1957 0.950 . S
C1963 C1962 1.327 . S
C1963 C1967 1.429 . S
C1964 C1947 1.574 . S
C1964 H1958 0.949 . S
C1964 C1968 1.368 . S
C1965 C1946 1.429 . S
C1965 C1959 1.429 . S
C1965 C1966 1.523 . S
C1966 C1947 1.368 . S
C1966 C1960 1.368 . S
C1966 C1965 1.523 . S
C1967 C1951 1.429 . S
C1967 C1963 1.429 . S
C1967 C1968 1.523 . S
C1968 C1952 1.368 . S
C1968 C1964 1.368 . S
C1968 C1967 1.523 . S
H1969 C1944 0.950 . S
H1970 C1946 0.950 . S
H1971 C1947 0.949 . S
H1972 C1949 0.950 . S
H1973 C1951 0.950 . S
C1974 C1975 1.349 . S
C1974 C1976 1.327 . S
C1974 H1999 0.969 . S
C1975 C1974 1.349 . S
C1975 C1991 1.349 . S
C1976 C1974 1.327 . S
C1976 C1995 1.429 . S
C1976 H2000 0.950 . S
C1977 C1994 1.574 . S
C1977 C1996 1.368 . S
C1977 H2001 0.949 . S
H1978 C1982 0.949 . S
C1979 C1980 1.349 . S
C1979 C1981 1.327 . S
C1979 H2002 0.950 . S
C1980 C1979 1.349 . S
C1980 C1992 1.349 . S
C1981 C1979 1.327 . S
C1981 C1997 1.429 . S
C1981 H2003 0.950 . S
C1982 H1978 0.949 . S
C1982 C1990 1.574 . S
C1982 C1998 1.368 . S
H1983 C1991 0.950 . S
H1984 C1989 0.950 . S
H1985 C1990 0.949 . S
H1986 C1992 0.950 . S
H1987 C1993 0.950 . S
H1988 C1994 0.949 . S
C1989 H1984 0.950 . S
C1989 C1991 1.327 . S
C1989 C1995 1.429 . S
C1990 C1982 1.574 . S
C1990 H1985 0.949 . S
C1990 C1996 1.368 . S
C1991 C1975 1.349 . S
C1991 H1983 0.950 . S
C1991 C1989 1.327 . S
C1992 C1980 1.349 . S
C1992 H1986 0.950 . S
C1992 C1993 1.327 . S
C1993 H1987 0.950 . S
C1993 C1992 1.327 . S
C1993 C1997 1.429 . S
C1994 C1977 1.574 . S
C1994 H1988 0.949 . S
C1994 C1998 1.368 . S
C1995 C1976 1.429 . S
C1995 C1989 1.429 . S
C1995 C1996 1.523 . S
C1996 C1977 1.368 . S
C1996 C1990 1.368 . S
C1996 C1995 1.523 . S
C1997 C1981 1.429 . S
C1997 C1993 1.429 . S
C1997 C1998 1.523 . S
C1998 C1982 1.368 . S
C1998 C1994 1.368 . S
C1998 C1997 1.523 . S
H1999 C1974 0.969 . S
H2000 C1976 0.950 . S
H2001 C1977 0.949 . S
H2002 C1979 0.950 . S
H2003 C1981 0.950 . S
C2004 C2005 1.349 . S
C2004 C2006 1.327 . S
C2004 H2029 0.950 . S
C2005 C2004 1.349 . S
C2005 C2021 1.349 . S
C2006 C2004 1.327 . S
C2006 C2025 1.429 . S
C2006 H2030 0.950 . S
C2007 C2024 1.574 . S
C2007 C2026 1.368 . S
C2007 H2031 0.949 . S
H2008 C2012 0.949 . S
C2009 C2010 1.349 . S
C2009 C2011 1.327 . S
C2009 H2032 0.950 1_556 S
C2010 C2009 1.349 . S
C2010 C2022 1.349 . S
C2011 C2009 1.327 . S
C2011 C2027 1.429 . S
C2011 H2033 0.950 . S
C2012 H2008 0.949 . S
C2012 C2020 1.574 . S
C2012 C2028 1.368 . S
H2013 C2021 0.950 . S
H2014 C2019 0.950 . S
H2015 C2020 0.949 . S
H2016 C2022 0.950 . S
H2017 C2023 0.950 . S
H2018 C2024 0.949 . S
C2019 H2014 0.950 . S
C2019 C2021 1.327 . S
C2019 C2025 1.429 . S
C2020 C2012 1.574 . S
C2020 H2015 0.949 . S
C2020 C2026 1.368 . S
C2021 C2005 1.349 . S
C2021 H2013 0.950 . S
C2021 C2019 1.327 . S
C2022 C2010 1.349 . S
C2022 H2016 0.950 . S
C2022 C2023 1.327 . S
C2023 H2017 0.950 . S
C2023 C2022 1.327 . S
C2023 C2027 1.429 . S
C2024 C2007 1.574 . S
C2024 H2018 0.949 . S
C2024 C2028 1.368 . S
C2025 C2006 1.429 . S
C2025 C2019 1.429 . S
C2025 C2026 1.523 . S
C2026 C2007 1.368 . S
C2026 C2020 1.368 . S
C2026 C2025 1.523 . S
C2027 C2011 1.429 . S
C2027 C2023 1.429 . S
C2027 C2028 1.523 . S
C2028 C2012 1.368 . S
C2028 C2024 1.368 . S
C2028 C2027 1.523 . S
H2029 C2004 0.950 . S
H2030 C2006 0.950 . S
H2031 C2007 0.949 . S
H2032 C2009 0.950 1_554 S
H2033 C2011 0.950 . S
C2034 C2035 1.349 . S
C2034 C2036 1.327 . S
C2034 H2059 0.950 . S
C2035 C2034 1.349 . S
C2035 C2051 1.349 . S
C2036 C2034 1.327 . S
C2036 C2055 1.429 . S
C2036 H2060 0.950 . S
C2037 C2054 1.574 . S
C2037 C2056 1.368 . S
C2037 H2061 0.949 . S
H2038 C2042 0.949 . S
C2039 C2040 1.349 . S
C2039 C2041 1.327 . S
C2039 H2062 0.950 . S
C2040 C2039 1.349 . S
C2040 C2052 1.349 . S
C2041 C2039 1.327 . S
C2041 C2057 1.429 . S
C2041 H2063 0.950 . S
C2042 H2038 0.949 . S
C2042 C2050 1.574 . S
C2042 C2058 1.368 . S
H2043 C2051 0.950 . S
H2044 C2049 0.950 . S
H2045 C2050 0.949 . S
H2046 C2052 0.950 . S
H2047 C2053 0.950 . S
H2048 C2054 0.949 . S
C2049 H2044 0.950 . S
C2049 C2051 1.327 . S
C2049 C2055 1.429 . S
C2050 C2042 1.574 . S
C2050 H2045 0.949 . S
C2050 C2056 1.368 . S
C2051 C2035 1.349 . S
C2051 H2043 0.950 . S
C2051 C2049 1.327 . S
C2052 C2040 1.349 . S
C2052 H2046 0.950 . S
C2052 C2053 1.327 . S
C2053 H2047 0.950 . S
C2053 C2052 1.327 . S
C2053 C2057 1.429 . S
C2054 C2037 1.574 . S
C2054 H2048 0.949 . S
C2054 C2058 1.368 . S
C2055 C2036 1.429 . S
C2055 C2049 1.429 . S
C2055 C2056 1.523 . S
C2056 C2037 1.368 . S
C2056 C2050 1.368 . S
C2056 C2055 1.523 . S
C2057 C2041 1.429 . S
C2057 C2053 1.429 . S
C2057 C2058 1.523 . S
C2058 C2042 1.368 . S
C2058 C2054 1.368 . S
C2058 C2057 1.523 . S
H2059 C2034 0.950 . S
H2060 C2036 0.950 . S
H2061 C2037 0.949 . S
H2062 C2039 0.950 . S
H2063 C2041 0.950 . S
C2064 C2065 1.349 . S
C2064 C2066 1.327 . S
C2064 H2089 0.950 . S
C2065 C2064 1.349 . S
C2065 C2081 1.349 . S
C2066 C2064 1.327 . S
C2066 C2085 1.429 . S
C2066 H2090 0.950 . S
C2067 C2084 1.574 . S
C2067 C2086 1.368 . S
C2067 H2091 0.949 . S
H2068 C2072 0.949 . S
C2069 C2070 1.349 . S
C2069 C2071 1.327 . S
C2069 H2092 0.950 . S
C2070 C2069 1.349 . S
C2070 C2082 1.349 . S
C2071 C2069 1.327 . S
C2071 C2087 1.429 . S
C2071 H2093 0.950 . S
C2072 H2068 0.949 . S
C2072 C2080 1.574 . S
C2072 C2088 1.368 . S
H2073 C2081 0.950 . S
H2074 C2079 0.950 . S
H2075 C2080 0.949 . S
H2076 C2082 0.950 . S
H2077 C2083 0.950 . S
H2078 C2084 0.949 . S
C2079 H2074 0.950 . S
C2079 C2081 1.327 . S
C2079 C2085 1.429 . S
C2080 C2072 1.574 . S
C2080 H2075 0.949 . S
C2080 C2086 1.368 . S
C2081 C2065 1.349 . S
C2081 H2073 0.950 . S
C2081 C2079 1.327 . S
C2082 C2070 1.349 . S
C2082 H2076 0.950 . S
C2082 C2083 1.327 . S
C2083 H2077 0.950 . S
C2083 C2082 1.327 . S
C2083 C2087 1.429 . S
C2084 C2067 1.574 . S
C2084 H2078 0.949 . S
C2084 C2088 1.368 . S
C2085 C2066 1.429 . S
C2085 C2079 1.429 . S
C2085 C2086 1.523 . S
C2086 C2067 1.368 . S
C2086 C2080 1.368 . S
C2086 C2085 1.523 . S
C2087 C2071 1.429 . S
C2087 C2083 1.429 . S
C2087 C2088 1.523 . S
C2088 C2072 1.368 . S
C2088 C2084 1.368 . S
C2088 C2087 1.523 . S
H2089 C2064 0.950 . S
H2090 C2066 0.950 . S
H2091 C2067 0.949 . S
H2092 C2069 0.950 . S
H2093 C2071 0.950 . S
C2094 C2095 1.349 . S
C2094 C2096 1.327 . S
C2094 H2119 0.950 . S
C2095 C2094 1.349 . S
C2095 C2111 1.349 . S
C2096 C2094 1.327 . S
C2096 C2115 1.429 . S
C2096 H2120 0.950 . S
C2097 C2114 1.574 . S
C2097 C2116 1.368 . S
C2097 H2121 0.949 . S
H2098 C2102 0.949 . S
C2099 C2100 1.349 . S
C2099 C2101 1.327 . S
C2099 H2122 0.950 . S
C2100 C2099 1.349 . S
C2100 C2112 1.349 . S
C2101 C2099 1.327 . S
C2101 C2117 1.429 . S
C2101 H2123 0.950 . S
C2102 H2098 0.949 . S
C2102 C2110 1.574 . S
C2102 C2118 1.368 . S
H2103 C2111 0.950 . S
H2104 C2109 0.950 . S
H2105 C2110 0.949 . S
H2106 C2112 0.950 . S
H2107 C2113 0.950 . S
H2108 C2114 0.949 . S
C2109 H2104 0.950 . S
C2109 C2111 1.327 . S
C2109 C2115 1.429 . S
C2110 C2102 1.574 . S
C2110 H2105 0.949 . S
C2110 C2116 1.368 . S
C2111 C2095 1.349 . S
C2111 H2103 0.950 . S
C2111 C2109 1.327 . S
C2112 C2100 1.349 . S
C2112 H2106 0.950 . S
C2112 C2113 1.327 . S
C2113 H2107 0.950 . S
C2113 C2112 1.327 . S
C2113 C2117 1.429 . S
C2114 C2097 1.574 . S
C2114 H2108 0.949 . S
C2114 C2118 1.368 . S
C2115 C2096 1.429 . S
C2115 C2109 1.429 . S
C2115 C2116 1.523 . S
C2116 C2097 1.368 . S
C2116 C2110 1.368 . S
C2116 C2115 1.523 . S
C2117 C2101 1.429 . S
C2117 C2113 1.429 . S
C2117 C2118 1.523 . S
C2118 C2102 1.368 . S
C2118 C2114 1.368 . S
C2118 C2117 1.523 . S
H2119 C2094 0.950 . S
H2120 C2096 0.950 . S
H2121 C2097 0.949 . S
H2122 C2099 0.950 . S
H2123 C2101 0.950 . S
C2124 C2125 1.349 . S
C2124 C2126 1.327 . S
C2124 H2149 0.950 . S
C2125 C2124 1.349 . S
C2125 C2141 1.349 . S
C2126 C2124 1.327 . S
C2126 C2145 1.429 . S
C2126 H2150 0.950 . S
C2127 C2144 1.574 . S
C2127 C2146 1.368 . S
C2127 H2151 0.949 . S
H2128 C2132 0.949 . S
C2129 C2130 1.349 . S
C2129 C2131 1.327 . S
C2129 H2152 0.950 . S
C2130 C2129 1.349 . S
C2130 C2142 1.349 . S
C2131 C2129 1.327 . S
C2131 C2147 1.429 . S
C2131 H2153 0.950 . S
C2132 H2128 0.949 . S
C2132 C2140 1.574 . S
C2132 C2148 1.368 . S
H2133 C2141 0.950 . S
H2134 C2139 0.950 . S
H2135 C2140 0.949 . S
H2136 C2142 0.950 . S
H2137 C2143 0.950 . S
H2138 C2144 0.949 . S
C2139 H2134 0.950 . S
C2139 C2141 1.327 . S
C2139 C2145 1.429 . S
C2140 C2132 1.574 . S
C2140 H2135 0.949 . S
C2140 C2146 1.368 . S
C2141 C2125 1.349 . S
C2141 H2133 0.950 . S
C2141 C2139 1.327 . S
C2142 C2130 1.349 . S
C2142 H2136 0.950 . S
C2142 C2143 1.327 . S
C2143 H2137 0.950 . S
C2143 C2142 1.327 . S
C2143 C2147 1.429 . S
C2144 C2127 1.574 . S
C2144 H2138 0.949 . S
C2144 C2148 1.368 . S
C2145 C2126 1.429 . S
C2145 C2139 1.429 . S
C2145 C2146 1.523 . S
C2146 C2127 1.368 . S
C2146 C2140 1.368 . S
C2146 C2145 1.523 . S
C2147 C2131 1.429 . S
C2147 C2143 1.429 . S
C2147 C2148 1.523 . S
C2148 C2132 1.368 . S
C2148 C2144 1.368 . S
C2148 C2147 1.523 . S
H2149 C2124 0.950 . S
H2150 C2126 0.950 . S
H2151 C2127 0.949 . S
H2152 C2129 0.950 . S
H2153 C2131 0.950 . S
C2154 C2155 1.349 . S
C2154 C2156 1.327 . S
C2154 H2179 0.950 . S
C2155 C2154 1.349 . S
C2155 C2171 1.349 . S
C2156 C2154 1.327 . S
C2156 C2175 1.429 . S
C2156 H2180 0.950 . S
C2157 C2174 1.574 . S
C2157 C2176 1.368 . S
C2157 H2181 0.949 . S
H2158 C2162 0.949 . S
C2159 C2160 1.349 . S
C2159 C2161 1.327 . S
C2159 H2182 0.950 . S
C2160 C2159 1.349 . S
C2160 C2172 1.349 . S
C2161 C2159 1.327 . S
C2161 C2177 1.429 . S
C2161 H2183 0.950 . S
C2162 H2158 0.949 . S
C2162 C2170 1.574 . S
C2162 C2178 1.368 . S
H2163 C2171 0.950 . S
H2164 C2169 0.950 . S
H2165 C2170 0.949 . S
H2166 C2172 0.950 . S
H2167 C2173 0.950 . S
H2168 C2174 0.949 . S
C2169 H2164 0.950 . S
C2169 C2171 1.327 . S
C2169 C2175 1.429 . S
C2170 C2162 1.574 . S
C2170 H2165 0.949 . S
C2170 C2176 1.368 . S
C2171 C2155 1.349 . S
C2171 H2163 0.950 . S
C2171 C2169 1.327 . S
C2172 C2160 1.349 . S
C2172 H2166 0.950 . S
C2172 C2173 1.327 . S
C2173 H2167 0.950 . S
C2173 C2172 1.327 . S
C2173 C2177 1.429 . S
C2174 C2157 1.574 . S
C2174 H2168 0.949 . S
C2174 C2178 1.368 . S
C2175 C2156 1.429 . S
C2175 C2169 1.429 . S
C2175 C2176 1.523 . S
C2176 C2157 1.368 . S
C2176 C2170 1.368 . S
C2176 C2175 1.523 . S
C2177 C2161 1.429 . S
C2177 C2173 1.429 . S
C2177 C2178 1.523 . S
C2178 C2162 1.368 . S
C2178 C2174 1.368 . S
C2178 C2177 1.523 . S
H2179 C2154 0.950 . S
H2180 C2156 0.950 . S
H2181 C2157 0.949 . S
H2182 C2159 0.950 . S
H2183 C2161 0.950 . S
C2184 C2185 1.349 . S
C2184 C2186 1.327 . S
C2184 H2209 0.950 . S
C2185 C2184 1.349 . S
C2185 C2201 1.349 . S
C2186 C2184 1.327 . S
C2186 C2205 1.429 . S
C2186 H2210 0.950 . S
C2187 C2204 1.574 . S
C2187 C2206 1.368 . S
C2187 H2211 0.949 . S
H2188 C2192 0.949 . S
C2189 C2190 1.349 . S
C2189 C2191 1.327 . S
C2189 H2212 0.950 . S
C2190 C2189 1.349 . S
C2190 C2202 1.349 . S
C2191 C2189 1.327 . S
C2191 C2207 1.429 . S
C2191 H2213 0.950 . S
C2192 H2188 0.949 . S
C2192 C2200 1.574 . S
C2192 C2208 1.368 . S
H2193 C2201 0.950 . S
H2194 C2199 0.950 . S
H2195 C2200 0.949 . S
H2196 C2202 0.950 . S
H2197 C2203 0.950 . S
H2198 C2204 0.949 . S
C2199 H2194 0.950 . S
C2199 C2201 1.327 . S
C2199 C2205 1.429 . S
C2200 C2192 1.574 . S
C2200 H2195 0.949 . S
C2200 C2206 1.368 . S
C2201 C2185 1.349 . S
C2201 H2193 0.950 . S
C2201 C2199 1.327 . S
C2202 C2190 1.349 . S
C2202 H2196 0.950 . S
C2202 C2203 1.327 . S
C2203 H2197 0.950 . S
C2203 C2202 1.327 . S
C2203 C2207 1.429 . S
C2204 C2187 1.574 . S
C2204 H2198 0.949 . S
C2204 C2208 1.368 . S
C2205 C2186 1.429 . S
C2205 C2199 1.429 . S
C2205 C2206 1.523 . S
C2206 C2187 1.368 . S
C2206 C2200 1.368 . S
C2206 C2205 1.523 . S
C2207 C2191 1.429 . S
C2207 C2203 1.429 . S
C2207 C2208 1.523 . S
C2208 C2192 1.368 . S
C2208 C2204 1.368 . S
C2208 C2207 1.523 . S
H2209 C2184 0.950 . S
H2210 C2186 0.950 . S
H2211 C2187 0.949 . S
H2212 C2189 0.950 . S
H2213 C2191 0.950 . S
C2214 C2215 1.349 . S
C2214 C2216 1.327 . S
C2214 H2239 0.950 . S
C2215 C2214 1.349 . S
C2215 C2231 1.349 . S
C2216 C2214 1.327 . S
C2216 C2235 1.429 . S
C2216 H2240 0.950 . S
C2217 C2234 1.574 . S
C2217 C2236 1.368 . S
C2217 H2241 0.949 . S
H2218 C2222 0.949 . S
C2219 C2220 1.349 . S
C2219 C2221 1.327 . S
C2219 H2242 0.950 . S
C2220 C2219 1.349 . S
C2220 C2232 1.349 . S
C2221 C2219 1.327 . S
C2221 C2237 1.429 . S
C2221 H2243 0.950 . S
C2222 H2218 0.949 . S
C2222 C2230 1.574 . S
C2222 C2238 1.368 . S
H2223 C2231 0.950 . S
H2224 C2229 0.950 . S
H2225 C2230 0.949 . S
H2226 C2232 0.950 . S
H2227 C2233 0.950 . S
H2228 C2234 0.949 . S
C2229 H2224 0.950 . S
C2229 C2231 1.327 . S
C2229 C2235 1.429 . S
C2230 C2222 1.574 . S
C2230 H2225 0.949 . S
C2230 C2236 1.368 . S
C2231 C2215 1.349 . S
C2231 H2223 0.950 . S
C2231 C2229 1.327 . S
C2232 C2220 1.349 . S
C2232 H2226 0.950 . S
C2232 C2233 1.327 . S
C2233 H2227 0.950 . S
C2233 C2232 1.327 . S
C2233 C2237 1.429 . S
C2234 C2217 1.574 . S
C2234 H2228 0.949 . S
C2234 C2238 1.368 . S
C2235 C2216 1.429 . S
C2235 C2229 1.429 . S
C2235 C2236 1.523 . S
C2236 C2217 1.368 . S
C2236 C2230 1.368 . S
C2236 C2235 1.523 . S
C2237 C2221 1.429 . S
C2237 C2233 1.429 . S
C2237 C2238 1.523 . S
C2238 C2222 1.368 . S
C2238 C2234 1.368 . S
C2238 C2237 1.523 . S
H2239 C2214 0.950 . S
H2240 C2216 0.950 . S
H2241 C2217 0.949 . S
H2242 C2219 0.950 . S
H2243 C2221 0.950 . S
C2244 C2245 1.349 . S
C2244 C2246 1.327 . S
C2244 H2269 0.950 . S
C2245 C2244 1.349 . S
C2245 C2261 1.349 . S
C2246 C2244 1.327 . S
C2246 C2265 1.429 . S
C2246 H2270 0.950 . S
C2247 C2264 1.574 . S
C2247 C2266 1.368 . S
C2247 H2271 0.949 . S
H2248 C2252 0.949 . S
C2249 C2250 1.349 . S
C2249 C2251 1.327 . S
C2249 H2272 0.950 . S
C2250 C2249 1.349 . S
C2250 C2262 1.349 . S
C2251 C2249 1.327 . S
C2251 C2267 1.429 . S
C2251 H2273 0.950 . S
C2252 H2248 0.949 . S
C2252 C2260 1.574 . S
C2252 C2268 1.368 . S
H2253 C2261 0.950 . S
H2254 C2259 0.950 . S
H2255 C2260 0.949 . S
H2256 C2262 0.950 . S
H2257 C2263 0.950 . S
H2258 C2264 0.949 . S
C2259 H2254 0.950 . S
C2259 C2261 1.327 . S
C2259 C2265 1.429 . S
C2260 C2252 1.574 . S
C2260 H2255 0.949 . S
C2260 C2266 1.368 . S
C2261 C2245 1.349 . S
C2261 H2253 0.950 . S
C2261 C2259 1.327 . S
C2262 C2250 1.349 . S
C2262 H2256 0.950 . S
C2262 C2263 1.327 . S
C2263 H2257 0.950 . S
C2263 C2262 1.327 . S
C2263 C2267 1.429 . S
C2264 C2247 1.574 . S
C2264 H2258 0.949 . S
C2264 C2268 1.368 . S
C2265 C2246 1.429 . S
C2265 C2259 1.429 . S
C2265 C2266 1.523 . S
C2266 C2247 1.368 . S
C2266 C2260 1.368 . S
C2266 C2265 1.523 . S
C2267 C2251 1.429 . S
C2267 C2263 1.429 . S
C2267 C2268 1.523 . S
C2268 C2252 1.368 . S
C2268 C2264 1.368 . S
C2268 C2267 1.523 . S
H2269 C2244 0.950 . S
H2270 C2246 0.950 . S
H2271 C2247 0.949 . S
H2272 C2249 0.950 . S
H2273 C2251 0.950 . S
C2274 C2275 1.349 . S
C2274 C2276 1.327 . S
C2274 H2299 0.950 . S
C2275 C2274 1.349 . S
C2275 C2291 1.349 . S
C2276 C2274 1.327 . S
C2276 C2295 1.429 . S
C2276 H2300 0.950 . S
C2277 C2294 1.574 . S
C2277 C2296 1.368 . S
C2277 H2301 0.949 . S
H2278 C2282 0.949 . S
C2279 C2280 1.349 . S
C2279 C2281 1.327 . S
C2279 H2302 0.950 . S
C2280 C2279 1.349 . S
C2280 C2292 1.349 . S
C2281 C2279 1.327 . S
C2281 C2297 1.429 . S
C2281 H2303 0.950 . S
C2282 H2278 0.949 . S
C2282 C2290 1.574 . S
C2282 C2298 1.368 . S
H2283 C2291 0.950 . S
H2284 C2289 0.950 . S
H2285 C2290 0.949 . S
H2286 C2292 0.950 . S
H2287 C2293 0.950 . S
H2288 C2294 0.949 . S
C2289 H2284 0.950 . S
C2289 C2291 1.327 . S
C2289 C2295 1.429 . S
C2290 C2282 1.574 . S
C2290 H2285 0.949 . S
C2290 C2296 1.368 . S
C2291 C2275 1.349 . S
C2291 H2283 0.950 . S
C2291 C2289 1.327 . S
C2292 C2280 1.349 . S
C2292 H2286 0.950 . S
C2292 C2293 1.327 . S
C2293 H2287 0.950 . S
C2293 C2292 1.327 . S
C2293 C2297 1.429 . S
C2294 C2277 1.574 . S
C2294 H2288 0.949 . S
C2294 C2298 1.368 . S
C2295 C2276 1.429 . S
C2295 C2289 1.429 . S
C2295 C2296 1.523 . S
C2296 C2277 1.368 . S
C2296 C2290 1.368 . S
C2296 C2295 1.523 . S
C2297 C2281 1.429 . S
C2297 C2293 1.429 . S
C2297 C2298 1.523 . S
C2298 C2282 1.368 . S
C2298 C2294 1.368 . S
C2298 C2297 1.523 . S
H2299 C2274 0.950 . S
H2300 C2276 0.950 . S
H2301 C2277 0.949 . S
H2302 C2279 0.950 . S
H2303 C2281 0.950 . S
C2304 C2305 1.349 . S
C2304 C2306 1.327 . S
C2304 H2329 0.950 . S
C2305 C2304 1.349 . S
C2305 C2321 1.349 . S
C2306 C2304 1.327 . S
C2306 C2325 1.429 . S
C2306 H2330 0.950 . S
C2307 C2324 1.574 . S
C2307 C2326 1.368 . S
C2307 H2331 0.949 . S
H2308 C2312 0.949 . S
C2309 C2310 1.349 . S
C2309 C2311 1.327 . S
C2309 H2332 0.950 . S
C2310 C2309 1.349 . S
C2310 C2322 1.349 . S
C2311 C2309 1.327 . S
C2311 C2327 1.429 . S
C2311 H2333 0.950 . S
C2312 H2308 0.949 . S
C2312 C2320 1.574 . S
C2312 C2328 1.368 . S
H2313 C2321 0.950 . S
H2314 C2319 0.950 . S
H2315 C2320 0.949 . S
H2316 C2322 0.950 . S
H2317 C2323 0.950 . S
H2318 C2324 0.949 . S
C2319 H2314 0.950 . S
C2319 C2321 1.327 . S
C2319 C2325 1.429 . S
C2320 C2312 1.574 . S
C2320 H2315 0.949 . S
C2320 C2326 1.368 . S
C2321 C2305 1.349 . S
C2321 H2313 0.950 . S
C2321 C2319 1.327 . S
C2322 C2310 1.349 . S
C2322 H2316 0.950 . S
C2322 C2323 1.327 . S
C2323 H2317 0.950 . S
C2323 C2322 1.327 . S
C2323 C2327 1.429 . S
C2324 C2307 1.574 . S
C2324 H2318 0.949 . S
C2324 C2328 1.368 . S
C2325 C2306 1.429 . S
C2325 C2319 1.429 . S
C2325 C2326 1.523 . S
C2326 C2307 1.368 . S
C2326 C2320 1.368 . S
C2326 C2325 1.523 . S
C2327 C2311 1.429 . S
C2327 C2323 1.429 . S
C2327 C2328 1.523 . S
C2328 C2312 1.368 . S
C2328 C2324 1.368 . S
C2328 C2327 1.523 . S
H2329 C2304 0.950 . S
H2330 C2306 0.950 . S
H2331 C2307 0.949 . S
H2332 C2309 0.950 . S
H2333 C2311 0.950 . S
C2334 C2335 1.349 . S
C2334 C2336 1.327 . S
C2334 H2359 0.950 . S
C2335 C2334 1.349 . S
C2335 C2351 1.349 . S
C2336 C2334 1.327 . S
C2336 C2355 1.429 . S
C2336 H2360 0.950 . S
C2337 C2354 1.574 . S
C2337 C2356 1.368 . S
C2337 H2361 0.949 . S
H2338 C2342 0.949 . S
C2339 C2340 1.349 . S
C2339 C2341 1.327 . S
C2339 H2362 0.950 . S
C2340 C2339 1.349 . S
C2340 C2352 1.349 . S
C2341 C2339 1.327 . S
C2341 C2357 1.429 . S
C2341 H2363 0.950 . S
C2342 H2338 0.949 . S
C2342 C2350 1.574 . S
C2342 C2358 1.368 . S
H2343 C2351 0.950 . S
H2344 C2349 0.950 . S
H2345 C2350 0.949 . S
H2346 C2352 0.950 . S
H2347 C2353 0.950 . S
H2348 C2354 0.949 . S
C2349 H2344 0.950 . S
C2349 C2351 1.327 . S
C2349 C2355 1.429 . S
C2350 C2342 1.574 . S
C2350 H2345 0.949 . S
C2350 C2356 1.368 . S
C2351 C2335 1.349 . S
C2351 H2343 0.950 . S
C2351 C2349 1.327 . S
C2352 C2340 1.349 . S
C2352 H2346 0.950 . S
C2352 C2353 1.327 . S
C2353 H2347 0.950 . S
C2353 C2352 1.327 . S
C2353 C2357 1.429 . S
C2354 C2337 1.574 . S
C2354 H2348 0.949 . S
C2354 C2358 1.368 . S
C2355 C2336 1.429 . S
C2355 C2349 1.429 . S
C2355 C2356 1.523 . S
C2356 C2337 1.368 . S
C2356 C2350 1.368 . S
C2356 C2355 1.523 . S
C2357 C2341 1.429 . S
C2357 C2353 1.429 . S
C2357 C2358 1.523 . S
C2358 C2342 1.368 . S
C2358 C2354 1.368 . S
C2358 C2357 1.523 . S
H2359 C2334 0.950 . S
H2360 C2336 0.950 . S
H2361 C2337 0.949 . S
H2362 C2339 0.950 . S
H2363 C2341 0.950 . S
C2364 C2365 1.349 . S
C2364 C2366 1.327 . S
C2364 H2389 0.950 . S
C2365 C2364 1.349 . S
C2365 C2381 1.349 . S
C2366 C2364 1.327 . S
C2366 C2385 1.429 . S
C2366 H2390 0.950 . S
C2367 C2384 1.574 . S
C2367 C2386 1.368 . S
C2367 H2391 0.949 . S
H2368 C2372 0.949 . S
C2369 C2370 1.349 . S
C2369 C2371 1.327 . S
C2369 H2392 0.950 . S
C2370 C2369 1.349 . S
C2370 C2382 1.349 . S
C2371 C2369 1.327 . S
C2371 C2387 1.429 . S
C2371 H2393 0.950 . S
C2372 H2368 0.949 . S
C2372 C2380 1.574 . S
C2372 C2388 1.368 . S
H2373 C2381 0.950 . S
H2374 C2379 0.950 . S
H2375 C2380 0.949 . S
H2376 C2382 0.950 . S
H2377 C2383 0.950 . S
H2378 C2384 0.949 . S
C2379 H2374 0.950 . S
C2379 C2381 1.327 . S
C2379 C2385 1.429 . S
C2380 C2372 1.574 . S
C2380 H2375 0.949 . S
C2380 C2386 1.368 . S
C2381 C2365 1.349 . S
C2381 H2373 0.950 . S
C2381 C2379 1.327 . S
C2382 C2370 1.349 . S
C2382 H2376 0.950 . S
C2382 C2383 1.327 . S
C2383 H2377 0.950 . S
C2383 C2382 1.327 . S
C2383 C2387 1.429 . S
C2384 C2367 1.574 . S
C2384 H2378 0.949 . S
C2384 C2388 1.368 . S
C2385 C2366 1.429 . S
C2385 C2379 1.429 . S
C2385 C2386 1.523 . S
C2386 C2367 1.368 . S
C2386 C2380 1.368 . S
C2386 C2385 1.523 . S
C2387 C2371 1.429 . S
C2387 C2383 1.429 . S
C2387 C2388 1.523 . S
C2388 C2372 1.368 . S
C2388 C2384 1.368 . S
C2388 C2387 1.523 . S
H2389 C2364 0.950 . S
H2390 C2366 0.950 . S
H2391 C2367 0.949 . S
H2392 C2369 0.950 . S
H2393 C2371 0.950 . S
C2394 C2395 1.349 . S
C2394 C2396 1.327 . S
C2394 H2419 0.950 . S
C2395 C2394 1.349 . S
C2395 C2411 1.349 . S
C2396 C2394 1.327 . S
C2396 C2415 1.429 . S
C2396 H2420 0.950 . S
C2397 C2414 1.574 . S
C2397 C2416 1.368 . S
C2397 H2421 0.949 . S
H2398 C2402 0.949 . S
C2399 C2400 1.349 . S
C2399 C2401 1.327 . S
C2399 H2422 0.950 . S
C2400 C2399 1.349 . S
C2400 C2412 1.349 . S
C2401 C2399 1.327 . S
C2401 C2417 1.429 . S
C2401 H2423 0.950 . S
C2402 H2398 0.949 . S
C2402 C2410 1.574 . S
C2402 C2418 1.368 . S
H2403 C2411 0.950 . S
H2404 C2409 0.950 . S
H2405 C2410 0.949 . S
H2406 C2412 0.950 . S
H2407 C2413 0.950 . S
H2408 C2414 0.949 . S
C2409 H2404 0.950 . S
C2409 C2411 1.327 . S
C2409 C2415 1.429 . S
C2410 C2402 1.574 . S
C2410 H2405 0.949 . S
C2410 C2416 1.368 . S
C2411 C2395 1.349 . S
C2411 H2403 0.950 . S
C2411 C2409 1.327 . S
C2412 C2400 1.349 . S
C2412 H2406 0.950 . S
C2412 C2413 1.327 . S
C2413 H2407 0.950 . S
C2413 C2412 1.327 . S
C2413 C2417 1.429 . S
C2414 C2397 1.574 . S
C2414 H2408 0.949 . S
C2414 C2418 1.368 . S
C2415 C2396 1.429 . S
C2415 C2409 1.429 . S
C2415 C2416 1.523 . S
C2416 C2397 1.368 . S
C2416 C2410 1.368 . S
C2416 C2415 1.523 . S
C2417 C2401 1.429 . S
C2417 C2413 1.429 . S
C2417 C2418 1.523 . S
C2418 C2402 1.368 . S
C2418 C2414 1.368 . S
C2418 C2417 1.523 . S
H2419 C2394 0.950 . S
H2420 C2396 0.950 . S
H2421 C2397 0.949 . S
H2422 C2399 0.950 . S
H2423 C2401 0.950 . S
C2424 C2425 1.349 . S
C2424 C2426 1.327 . S
C2424 H2449 0.950 . S
C2425 C2424 1.349 . S
C2425 C2441 1.349 . S
C2426 C2424 1.327 . S
C2426 C2445 1.429 . S
C2426 H2450 0.950 . S
C2427 C2444 1.574 . S
C2427 C2446 1.368 . S
C2427 H2451 0.949 . S
H2428 C2432 0.949 . S
C2429 C2430 1.349 . S
C2429 C2431 1.327 . S
C2429 H2452 0.950 . S
C2430 C2429 1.349 . S
C2430 C2442 1.349 . S
C2431 C2429 1.327 . S
C2431 C2447 1.429 . S
C2431 H2453 0.950 . S
C2432 H2428 0.949 . S
C2432 C2440 1.574 . S
C2432 C2448 1.368 . S
H2433 C2441 0.950 . S
H2434 C2439 0.950 . S
H2435 C2440 0.949 . S
H2436 C2442 0.950 . S
H2437 C2443 0.950 . S
H2438 C2444 0.949 . S
C2439 H2434 0.950 . S
C2439 C2441 1.327 . S
C2439 C2445 1.429 . S
C2440 C2432 1.574 . S
C2440 H2435 0.949 . S
C2440 C2446 1.368 . S
C2441 C2425 1.349 . S
C2441 H2433 0.950 . S
C2441 C2439 1.327 . S
C2442 C2430 1.349 . S
C2442 H2436 0.950 . S
C2442 C2443 1.327 . S
C2443 H2437 0.950 . S
C2443 C2442 1.327 . S
C2443 C2447 1.429 . S
C2444 C2427 1.574 . S
C2444 H2438 0.949 . S
C2444 C2448 1.368 . S
C2445 C2426 1.429 . S
C2445 C2439 1.429 . S
C2445 C2446 1.523 . S
C2446 C2427 1.368 . S
C2446 C2440 1.368 . S
C2446 C2445 1.523 . S
C2447 C2431 1.429 . S
C2447 C2443 1.429 . S
C2447 C2448 1.523 . S
C2448 C2432 1.368 . S
C2448 C2444 1.368 . S
C2448 C2447 1.523 . S
H2449 C2424 0.950 . S
H2450 C2426 0.950 . S
H2451 C2427 0.949 . S
H2452 C2429 0.950 . S
H2453 C2431 0.950 . S
C2454 C2455 1.349 . S
C2454 C2456 1.327 . S
C2454 H2479 0.950 . S
C2455 C2454 1.349 . S
C2455 C2471 1.349 . S
C2456 C2454 1.327 . S
C2456 C2475 1.429 . S
C2456 H2480 0.950 . S
C2457 C2474 1.574 . S
C2457 C2476 1.368 . S
C2457 H2481 0.949 . S
H2458 C2462 0.949 . S
C2459 C2460 1.349 . S
C2459 C2461 1.327 . S
C2459 H2482 0.950 . S
C2460 C2459 1.349 . S
C2460 C2472 1.349 . S
C2461 C2459 1.327 . S
C2461 C2477 1.429 . S
C2461 H2483 0.950 . S
C2462 H2458 0.949 . S
C2462 C2470 1.574 . S
C2462 C2478 1.368 . S
H2463 C2471 0.950 . S
H2464 C2469 0.950 . S
H2465 C2470 0.949 . S
H2466 C2472 0.950 . S
H2467 C2473 0.950 . S
H2468 C2474 0.949 . S
C2469 H2464 0.950 . S
C2469 C2471 1.327 . S
C2469 C2475 1.429 . S
C2470 C2462 1.574 . S
C2470 H2465 0.949 . S
C2470 C2476 1.368 . S
C2471 C2455 1.349 . S
C2471 H2463 0.950 . S
C2471 C2469 1.327 . S
C2472 C2460 1.349 . S
C2472 H2466 0.950 . S
C2472 C2473 1.327 . S
C2473 H2467 0.950 . S
C2473 C2472 1.327 . S
C2473 C2477 1.429 . S
C2474 C2457 1.574 . S
C2474 H2468 0.949 . S
C2474 C2478 1.368 . S
C2475 C2456 1.429 . S
C2475 C2469 1.429 . S
C2475 C2476 1.523 . S
C2476 C2457 1.368 . S
C2476 C2470 1.368 . S
C2476 C2475 1.523 . S
C2477 C2461 1.429 . S
C2477 C2473 1.429 . S
C2477 C2478 1.523 . S
C2478 C2462 1.368 . S
C2478 C2474 1.368 . S
C2478 C2477 1.523 . S
H2479 C2454 0.950 . S
H2480 C2456 0.950 . S
H2481 C2457 0.949 . S
H2482 C2459 0.950 . S
H2483 C2461 0.950 . S
C2484 C2485 1.349 . S
C2484 C2486 1.327 . S
C2484 H2509 0.950 . S
C2485 C2484 1.349 . S
C2485 C2501 1.349 . S
C2486 C2484 1.327 . S
C2486 C2505 1.429 . S
C2486 H2510 0.950 . S
C2487 C2504 1.574 1_455 S
C2487 C2506 1.368 . S
C2487 H2511 0.949 . S
H2488 C2492 0.949 . S
C2489 C2490 1.349 . S
C2489 C2491 1.327 . S
C2489 H2512 0.950 . S
C2490 C2489 1.349 . S
C2490 C2502 1.349 . S
C2491 C2489 1.327 . S
C2491 C2507 1.429 . S
C2491 H2513 0.950 . S
C2492 H2488 0.949 . S
C2492 C2500 1.574 1_655 S
C2492 C2508 1.368 . S
H2493 C2501 0.950 . S
H2494 C2499 0.950 . S
H2495 C2500 0.949 . S
H2496 C2502 0.950 . S
H2497 C2503 0.950 . S
H2498 C2504 0.949 . S
C2499 H2494 0.950 . S
C2499 C2501 1.327 . S
C2499 C2505 1.429 . S
C2500 C2492 1.574 1_455 S
C2500 H2495 0.949 . S
C2500 C2506 1.368 . S
C2501 C2485 1.349 . S
C2501 H2493 0.950 . S
C2501 C2499 1.327 . S
C2502 C2490 1.349 . S
C2502 H2496 0.950 . S
C2502 C2503 1.327 . S
C2503 H2497 0.950 . S
C2503 C2502 1.327 . S
C2503 C2507 1.429 . S
C2504 C2487 1.574 1_655 S
C2504 H2498 0.949 . S
C2504 C2508 1.368 . S
C2505 C2486 1.429 . S
C2505 C2499 1.429 . S
C2505 C2506 1.523 . S
C2506 C2487 1.368 . S
C2506 C2500 1.368 . S
C2506 C2505 1.523 . S
C2507 C2491 1.429 . S
C2507 C2503 1.429 . S
C2507 C2508 1.523 . S
C2508 C2492 1.368 . S
C2508 C2504 1.368 . S
C2508 C2507 1.523 . S
H2509 C2484 0.950 . S
H2510 C2486 0.950 . S
H2511 C2487 0.949 . S
H2512 C2489 0.950 . S
H2513 C2491 0.950 . S
C2514 C2515 1.349 . S
C2514 C2516 1.327 . S
C2514 H2539 0.950 . S
C2515 C2514 1.349 . S
C2515 C2531 1.349 . S
C2516 C2514 1.327 . S
C2516 C2535 1.429 . S
C2516 H2540 0.950 . S
C2517 C2534 1.574 . S
C2517 C2536 1.368 . S
C2517 H2541 0.949 . S
H2518 C2522 0.949 . S
C2519 C2520 1.349 . S
C2519 C2521 1.327 . S
C2519 H2542 0.950 . S
C2520 C2519 1.349 . S
C2520 C2532 1.349 . S
C2521 C2519 1.327 . S
C2521 C2537 1.429 . S
C2521 H2543 0.950 . S
C2522 H2518 0.949 . S
C2522 C2530 1.574 . S
C2522 C2538 1.368 . S
H2523 C2531 0.950 . S
H2524 C2529 0.950 . S
H2525 C2530 0.949 . S
H2526 C2532 0.950 . S
H2527 C2533 0.950 . S
H2528 C2534 0.949 . S
C2529 H2524 0.950 . S
C2529 C2531 1.327 . S
C2529 C2535 1.429 . S
C2530 C2522 1.574 . S
C2530 H2525 0.949 . S
C2530 C2536 1.368 . S
C2531 C2515 1.349 . S
C2531 H2523 0.950 . S
C2531 C2529 1.327 . S
C2532 C2520 1.349 . S
C2532 H2526 0.950 . S
C2532 C2533 1.327 . S
C2533 H2527 0.950 . S
C2533 C2532 1.327 . S
C2533 C2537 1.429 . S
C2534 C2517 1.574 . S
C2534 H2528 0.949 . S
C2534 C2538 1.368 . S
C2535 C2516 1.429 . S
C2535 C2529 1.429 . S
C2535 C2536 1.523 . S
C2536 C2517 1.368 . S
C2536 C2530 1.368 . S
C2536 C2535 1.523 . S
C2537 C2521 1.429 . S
C2537 C2533 1.429 . S
C2537 C2538 1.523 . S
C2538 C2522 1.368 . S
C2538 C2534 1.368 . S
C2538 C2537 1.523 . S
H2539 C2514 0.950 . S
H2540 C2516 0.950 . S
H2541 C2517 0.949 . S
H2542 C2519 0.950 . S
H2543 C2521 0.950 . S
C2544 C2545 1.349 . S
C2544 C2546 1.327 . S
C2544 H2569 0.950 . S
C2545 C2544 1.349 . S
C2545 C2561 1.349 . S
C2546 C2544 1.327 . S
C2546 C2565 1.429 . S
C2546 H2570 0.950 . S
C2547 C2564 1.574 1_545 S
C2547 C2566 1.368 . S
C2547 H2571 0.949 . S
H2548 C2552 0.949 . S
C2549 C2550 1.349 . S
C2549 C2551 1.327 . S
C2549 H2572 0.950 . S
C2550 C2549 1.349 . S
C2550 C2562 1.349 . S
C2551 C2549 1.327 . S
C2551 C2567 1.429 . S
C2551 H2573 0.950 . S
C2552 H2548 0.949 . S
C2552 C2560 1.574 1_565 S
C2552 C2568 1.368 . S
H2553 C2561 0.950 . S
H2554 C2559 0.950 . S
H2555 C2560 0.949 . S
H2556 C2562 0.950 . S
H2557 C2563 0.950 . S
H2558 C2564 0.949 . S
C2559 H2554 0.950 . S
C2559 C2561 1.327 . S
C2559 C2565 1.429 . S
C2560 C2552 1.574 1_545 S
C2560 H2555 0.949 . S
C2560 C2566 1.368 . S
C2561 C2545 1.349 . S
C2561 H2553 0.950 . S
C2561 C2559 1.327 . S
C2562 C2550 1.349 . S
C2562 H2556 0.950 . S
C2562 C2563 1.327 . S
C2563 H2557 0.950 . S
C2563 C2562 1.327 . S
C2563 C2567 1.429 . S
C2564 C2547 1.574 1_565 S
C2564 H2558 0.949 . S
C2564 C2568 1.368 . S
C2565 C2546 1.429 . S
C2565 C2559 1.429 . S
C2565 C2566 1.523 . S
C2566 C2547 1.368 . S
C2566 C2560 1.368 . S
C2566 C2565 1.523 . S
C2567 C2551 1.429 . S
C2567 C2563 1.429 . S
C2567 C2568 1.523 . S
C2568 C2552 1.368 . S
C2568 C2564 1.368 . S
C2568 C2567 1.523 . S
H2569 C2544 0.950 . S
H2570 C2546 0.950 . S
H2571 C2547 0.949 . S
H2572 C2549 0.950 . S
H2573 C2551 0.950 . S
C2574 C2575 1.349 1_556 S
C2574 C2576 1.327 . S
C2574 H2599 0.950 . S
C2575 C2574 1.349 1_554 S
C2575 C2591 1.349 . S
C2576 C2574 1.327 . S
C2576 C2595 1.429 1_556 S
C2576 H2600 0.950 . S
C2577 C2594 1.574 1_545 S
C2577 C2596 1.368 . S
C2577 H2601 0.949 . S
H2578 C2582 0.949 . S
C2579 C2580 1.349 1_554 S
C2579 C2581 1.327 . S
C2579 H2602 0.950 . S
C2580 C2579 1.349 1_556 S
C2580 C2592 1.349 . S
C2581 C2579 1.327 . S
C2581 C2597 1.429 1_554 S
C2581 H2603 0.950 . S
C2582 H2578 0.949 . S
C2582 C2590 1.574 1_565 S
C2582 C2598 1.368 . S
H2583 C2591 0.950 . S
H2584 C2589 0.950 . S
H2585 C2590 0.949 . S
H2586 C2592 0.950 . S
H2587 C2593 0.950 . S
H2588 C2594 0.949 . S
C2589 H2584 0.950 . S
C2589 C2591 1.327 . S
C2589 C2595 1.429 . S
C2590 C2582 1.574 1_545 S
C2590 H2585 0.949 . S
C2590 C2596 1.368 1_556 S
C2591 C2575 1.349 . S
C2591 H2583 0.950 . S
C2591 C2589 1.327 . S
C2592 C2580 1.349 . S
C2592 H2586 0.950 . S
C2592 C2593 1.327 . S
C2593 H2587 0.950 . S
C2593 C2592 1.327 . S
C2593 C2597 1.429 . S
C2594 C2577 1.574 1_565 S
C2594 H2588 0.949 . S
C2594 C2598 1.368 1_554 S
C2595 C2576 1.429 1_554 S
C2595 C2589 1.429 . S
C2595 C2596 1.523 . S
C2596 C2577 1.368 . S
C2596 C2590 1.368 1_554 S
C2596 C2595 1.523 . S
C2597 C2581 1.429 1_556 S
C2597 C2593 1.429 . S
C2597 C2598 1.523 . S
C2598 C2582 1.368 . S
C2598 C2594 1.368 1_556 S
C2598 C2597 1.523 . S
H2599 C2574 0.950 . S
H2600 C2576 0.950 . S
H2601 C2577 0.949 . S
H2602 C2579 0.950 . S
H2603 C2581 0.950 . S
C2604 C2605 1.349 . S
C2604 C2606 1.327 . S
C2604 H2629 0.950 . S
C2605 C2604 1.349 . S
C2605 C2621 1.349 . S
C2606 C2604 1.327 . S
C2606 C2625 1.429 . S
C2606 H2630 0.950 . S
C2607 C2624 1.574 1_654 S
C2607 C2626 1.368 . S
C2607 H2631 0.949 . S
H2608 C2612 0.949 . S
C2609 C2610 1.349 . S
C2609 C2611 1.327 . S
C2609 H2632 0.950 . S
C2610 C2609 1.349 . S
C2610 C2622 1.349 . S
C2611 C2609 1.327 . S
C2611 C2627 1.429 . S
C2611 H2633 0.950 . S
C2612 H2608 0.949 . S
C2612 C2620 1.574 1_456 S
C2612 C2628 1.368 . S
H2613 C2621 0.950 . S
H2614 C2619 0.950 . S
H2615 C2620 0.949 . S
H2616 C2622 0.950 . S
H2617 C2623 0.950 . S
H2618 C2624 0.949 . S
C2619 H2614 0.950 . S
C2619 C2621 1.327 . S
C2619 C2625 1.429 . S
C2620 C2612 1.574 1_654 S
C2620 H2615 0.949 . S
C2620 C2626 1.368 . S
C2621 C2605 1.349 . S
C2621 H2613 0.950 . S
C2621 C2619 1.327 . S
C2622 C2610 1.349 . S
C2622 H2616 0.950 . S
C2622 C2623 1.327 . S
C2623 H2617 0.950 . S
C2623 C2622 1.327 . S
C2623 C2627 1.429 . S
C2624 C2607 1.574 1_456 S
C2624 H2618 0.949 . S
C2624 C2628 1.368 . S
C2625 C2606 1.429 . S
C2625 C2619 1.429 . S
C2625 C2626 1.523 . S
C2626 C2607 1.368 . S
C2626 C2620 1.368 . S
C2626 C2625 1.523 . S
C2627 C2611 1.429 . S
C2627 C2623 1.429 . S
C2627 C2628 1.523 . S
C2628 C2612 1.368 . S
C2628 C2624 1.368 . S
C2628 C2627 1.523 . S
H2629 C2604 0.950 . S
H2630 C2606 0.950 . S
H2631 C2607 0.949 . S
H2632 C2609 0.950 . S
H2633 C2611 0.950 . S
C2634 C2635 1.349 1_556 S
C2634 C2636 1.327 . S
C2634 H2659 0.950 . S
C2635 C2634 1.349 1_554 S
C2635 C2651 1.349 . S
C2636 C2634 1.327 . S
C2636 C2655 1.429 1_556 S
C2636 H2660 0.950 . S
C2637 C2654 1.574 . S
C2637 C2656 1.368 . S
C2637 H2661 0.949 . S
H2638 C2642 0.949 . S
C2639 C2640 1.349 1_554 S
C2639 C2641 1.327 . S
C2639 H2662 0.950 . S
C2640 C2639 1.349 1_556 S
C2640 C2652 1.349 . S
C2641 C2639 1.327 . S
C2641 C2657 1.429 1_554 S
C2641 H2663 0.950 . S
C2642 H2638 0.949 . S
C2642 C2650 1.574 . S
C2642 C2658 1.368 . S
H2643 C2651 0.950 . S
H2644 C2649 0.950 . S
H2645 C2650 0.949 . S
H2646 C2652 0.950 . S
H2647 C2653 0.950 . S
H2648 C2654 0.949 . S
C2649 H2644 0.950 . S
C2649 C2651 1.327 . S
C2649 C2655 1.429 . S
C2650 C2642 1.574 . S
C2650 H2645 0.949 . S
C2650 C2656 1.368 1_556 S
C2651 C2635 1.349 . S
C2651 H2643 0.950 . S
C2651 C2649 1.327 . S
C2652 C2640 1.349 . S
C2652 H2646 0.950 . S
C2652 C2653 1.327 . S
C2653 H2647 0.950 . S
C2653 C2652 1.327 . S
C2653 C2657 1.429 . S
C2654 C2637 1.574 . S
C2654 H2648 0.949 . S
C2654 C2658 1.368 1_554 S
C2655 C2636 1.429 1_554 S
C2655 C2649 1.429 . S
C2655 C2656 1.523 . S
C2656 C2637 1.368 . S
C2656 C2650 1.368 1_554 S
C2656 C2655 1.523 . S
C2657 C2641 1.429 1_556 S
C2657 C2653 1.429 . S
C2657 C2658 1.523 . S
C2658 C2642 1.368 . S
C2658 C2654 1.368 1_556 S
C2658 C2657 1.523 . S
H2659 C2634 0.950 . S
H2660 C2636 0.950 . S
H2661 C2637 0.949 . S
H2662 C2639 0.950 . S
H2663 C2641 0.950 . S
C505 C152 0.863 . S
C510 C5 0.838 . S
C535 C166 0.863 . S
C540 C19 0.838 . S
C565 C33 0.838 . S
C570 C138 0.863 . S
C595 C47 0.838 . S
C600 C124 0.863 . S
C625 C61 0.838 . S
C630 C96 0.863 . S
C655 C110 0.863 . S
C660 C75 0.838 . S
C685 C68 0.863 . S
C690 C89 0.838 . S
C715 C82 0.863 . S
C720 C103 0.838 . S
C745 C117 0.838 . S
C750 C54 0.863 . S
C775 C40 0.863 . S
C780 C131 0.838 . S
C805 C145 0.838 . S
C810 C12 0.863 . S
C835 C159 0.838 . S
C840 C26 0.863 . S
C865 C320 0.863 . S
C870 C173 0.838 . S
C895 C334 0.863 . S
C900 C187 0.838 . S
C925 C201 0.838 . S
C930 C306 0.863 . S
C955 C215 0.838 . S
C960 C292 0.863 . S
C985 C229 0.838 . S
C990 C264 0.863 . S
C1015 C243 0.838 . S
C1020 C278 0.863 . S
C1045 C236 0.863 . S
C1050 C257 0.838 . S
C1075 C250 0.863 . S
C1080 C271 0.838 . S
C1105 C222 0.863 . S
C1110 C285 0.838 . S
C1135 C208 0.863 . S
C1140 C299 0.838 . S
C1165 C180 0.863 . S
C1170 C313 0.838 . S
C1195 C194 0.863 . S
C1200 C327 0.838 . S
C1225 C341 0.838 . S
C1230 C488 0.863 . S
C1255 C502 0.863 . S
C1260 C355 0.838 . S
C1285 C474 0.863 . S
C1290 C369 0.838 . S
C1315 C383 0.838 . S
C1320 C460 0.863 . S
C1345 C397 0.838 . S
C1350 C432 0.863 . S
C1375 C411 0.838 . S
C1380 C446 0.863 . S
C1405 C404 0.863 . S
C1410 C425 0.838 . S
C1435 C418 0.863 . S
C1440 C439 0.838 . S
C1465 C390 0.863 . S
C1470 C453 0.838 . S
C1495 C467 0.838 . S
C1500 C376 0.863 . S
C1525 C348 0.863 . S
C1530 C481 0.838 . S
C1555 C495 0.838 . S
C1560 C362 0.863 . S
C1585 C53 1.156 . S
C1590 C11 1.156 . S
C1615 C67 1.156 . S
C1620 C25 1.156 . S
C1645 C39 1.156 . S
C1650 C81 1.156 . S
C1675 C137 1.156 . S
C1680 C95 1.156 . S
C1705 C151 1.156 . S
C1710 C109 1.156 . S
C1735 C165 1.156 . S
C1740 C123 1.156 . S
C1765 C221 1.156 . S
C1770 C179 1.156 . S
C1795 C235 1.156 . S
C1800 C193 1.156 . S
C1825 C207 1.156 . S
C1830 C249 1.156 . S
C1855 C263 1.156 . S
C1860 C305 1.156 . S
C1885 C319 1.156 . S
C1890 C277 1.156 . S
C1915 C291 1.156 . S
C1920 C333 1.156 . S
C1945 C389 1.156 . S
C1950 C347 1.156 . S
C1975 C403 1.156 . S
C1980 C361 1.156 . S
C2005 C375 1.156 . S
C2010 C417 1.156 . S
C2035 C431 1.156 . S
C2040 C473 1.156 . S
C2065 C445 1.156 . S
C2070 C487 1.156 . S
C2095 C459 1.156 . S
C2100 C501 1.156 . S
C2125 C4 1.170 . S
C2130 C256 1.170 . S
C2155 C270 1.170 . S
C2160 C18 1.170 . S
C2185 C284 1.170 . S
C2190 C32 1.170 . S
C2215 C466 1.170 . S
C2220 C46 1.170 . S
C2245 C480 1.170 . S
C2250 C60 1.170 . S
C2275 C494 1.170 . S
C2280 C74 1.170 . S
C2305 C88 1.170 . S
C2310 C340 1.170 . S
C2335 C354 1.170 . S
C2340 C102 1.170 . S
C2365 C368 1.170 . S
C2370 C116 1.170 . S
C2395 C130 1.170 . S
C2400 C214 1.170 . S
C2425 C144 1.170 . S
C2430 C228 1.170 . S
C2455 C158 1.170 . S
C2460 C242 1.170 . S
C2485 C424 1.170 . S
C2490 C172 1.170 . S
C2515 C438 1.170 . S
C2520 C186 1.170 . S
C2545 C200 1.170 . S
C2550 C452 1.170 . S
C2575 C298 1.170 . S
C2580 C382 1.170 . S
C2605 C312 1.170 . S
C2610 C396 1.170 . S
C2635 C326 1.170 . S
C2640 C410 1.170 . S
