# Generated by pormake.
# Topology uni, (4)-cn, num edge types: 1
# Building blocks:
#     Node 0, Type 0, BuildingBlock: GALJAG_clean_sbu_0, # of connection points: 4
#     Node 1, Type 0, BuildingBlock: GALJAG_clean_sbu_0, # of connection points: 4
#     Node 2, Type 0, BuildingBlock: GALJAG_clean_sbu_0, # of connection points: 4
#     Node 3, Type 0, BuildingBlock: GALJAG_clean_sbu_0, # of connection points: 4
#     Node 4, Type 0, BuildingBlock: GALJAG_clean_sbu_0, # of connection points: 4
#     Node 5, Type 0, BuildingBlock: GALJAG_clean_sbu_0, # of connection points: 4
#     Edge 6, Type (0, 0), BuildingBlock: XIVTED_clean_linker_0, # of connection points: 2
#     Edge 7, Type (0, 0), BuildingBlock: XIVTED_clean_linker_0, # of connection points: 2
#     Edge 8, Type (0, 0), BuildingBlock: XIVTED_clean_linker_0, # of connection points: 2
#     Edge 9, Type (0, 0), BuildingBlock: XIVTED_clean_linker_0, # of connection points: 2
#     Edge 10, Type (0, 0), BuildingBlock: XIVTED_clean_linker_0, # of connection points: 2
#     Edge 11, Type (0, 0), BuildingBlock: XIVTED_clean_linker_0, # of connection points: 2
#     Edge 12, Type (0, 0), BuildingBlock: XIVTED_clean_linker_0, # of connection points: 2
#     Edge 13, Type (0, 0), BuildingBlock: XIVTED_clean_linker_0, # of connection points: 2
#     Edge 14, Type (0, 0), BuildingBlock: XIVTED_clean_linker_0, # of connection points: 2
#     Edge 15, Type (0, 0), BuildingBlock: XIVTED_clean_linker_0, # of connection points: 2
#     Edge 16, Type (0, 0), BuildingBlock: XIVTED_clean_linker_0, # of connection points: 2
#     Edge 17, Type (0, 0), BuildingBlock: XIVTED_clean_linker_0, # of connection points: 2
# Relax obj value: 0.070
# Max RMSD: 0.134
# Mean RMSD: 0.134
data_MOF--net-uni--node1-GALJAG_clean_sbu_0--edge1-XIVTED_clean_linker_0
_symmetry_space_group_name_H-M    P1
_symmetry_Int_Tables_number       1
_symmetry_cell_setting            triclinic
loop_
_symmetry_equiv_pos_as_xyz
'x, y, z'
_cell_length_a     38.047765
_cell_length_b     38.034362
_cell_length_c     25.604068
_cell_angle_alpha  90.022016
_cell_angle_beta   90.01356
_cell_angle_gamma 120.30869
loop_
_atom_site_label
_atom_site_type_symbol
_atom_site_fract_x
_atom_site_fract_y
_atom_site_fract_z
_atom_type_partial_charge
In0 In 0.62263 0.01007 0.046 0.0
O1 O 0.58865 0.98187 0.97019 0.0
O2 O 0.58986 0.03529 0.997 0.0
C3 C 0.62879 0.94401 0.06837 0.0
C4 C 0.69896 0.06874 0.02016 0.0
C5 C 0.5841 0.01603 0.13176 0.0
O6 O 0.5997 0.94219 0.04257 0.0
O7 O 0.65558 0.97947 0.0821 0.0
O8 O 0.61227 0.04694 0.1093 0.0
O9 O 0.57493 0.9827 0.11031 0.0
C10 C 0.57839 0.00815 0.96221 0.0
O11 O 0.68501 0.0648 0.06585 0.0
O12 O 0.67479 0.04264 0.98796 0.0
In13 In 0.62546 0.62321 0.21674 0.0
O14 O 0.6271 0.60841 0.13047 0.0
O15 O 0.57671 0.56592 0.17563 0.0
C16 C 0.69999 0.63709 0.24359 0.0
C17 C 0.62673 0.69303 0.19212 0.0
C18 C 0.58185 0.58483 0.30262 0.0
O19 O 0.68342 0.62101 0.20059 0.0
O20 O 0.67929 0.64668 0.27245 0.0
O21 O 0.58384 0.61685 0.28516 0.0
O22 O 0.60124 0.57211 0.27635 0.0
C23 C 0.59371 0.57519 0.13153 0.0
O24 O 0.59474 0.65863 0.19063 0.0
O25 O 0.65796 0.6924 0.20702 0.0
In26 In 0.01063 0.62202 0.384 0.0
O27 O 0.04461 0.60738 0.32197 0.0
O28 O 0.98032 0.56959 0.32583 0.0
C29 C 0.07142 0.69785 0.40794 0.0
C30 C 0.95143 0.6379 0.35719 0.0
C31 C 0.00645 0.57554 0.46633 0.0
O32 O 0.06941 0.68116 0.36459 0.0
O33 O 0.04251 0.67663 0.43872 0.0
O34 O 0.97577 0.57651 0.44952 0.0
O35 O 0.03872 0.5971 0.44086 0.0
C36 C 0.01291 0.57763 0.30302 0.0
O37 O 0.95238 0.62342 0.40117 0.0
O38 O 0.98066 0.64506 0.32738 0.0
In39 In 0.39869 0.01266 0.54592 0.0
O40 O 0.33846 0.95481 0.56465 0.0
O41 O 0.3459 0.9797 0.48863 0.0
C42 C 0.44143 0.00983 0.62851 0.0
C43 C 0.447 0.01739 0.46559 0.0
C44 C 0.38322 0.07245 0.57122 0.0
O45 O 0.41214 0.97825 0.6086 0.0
O46 O 0.44988 0.0426 0.60586 0.0
O47 O 0.39856 0.07148 0.52793 0.0
O48 O 0.37492 0.04291 0.60105 0.0
C49 C 0.32337 0.95175 0.51988 0.0
O50 O 0.44382 0.04738 0.48009 0.0
O51 O 0.42672 0.98556 0.49241 0.0
In52 In 0.40204 0.39911 0.71882 0.0
O53 O 0.40246 0.34027 0.73566 0.0
O54 O 0.37931 0.34571 0.66247 0.0
C55 C 0.44875 0.42987 0.80532 0.0
C56 C 0.44214 0.44335 0.6341 0.0
C57 C 0.33235 0.39892 0.74045 0.0
O58 O 0.45976 0.44609 0.76093 0.0
O59 O 0.4144 0.39773 0.80609 0.0
O60 O 0.36692 0.43068 0.74253 0.0
O61 O 0.33279 0.36737 0.72651 0.0
C62 C 0.38748 0.32428 0.692 0.0
O63 O 0.41022 0.44186 0.65098 0.0
O64 O 0.4539 0.42312 0.66034 0.0
In65 In 0.01164 0.3971 0.88403 0.0
O66 O 0.07958 0.42021 0.88556 0.0
O67 O 0.04202 0.36467 0.84557 0.0
C68 C 0.01289 0.43925 0.96977 0.0
C69 C 0.00566 0.43736 0.80024 0.0
C70 C 0.9527 0.32057 0.90844 0.0
O71 O 0.03911 0.429 0.96119 0.0
O72 O 0.98611 0.42874 0.93469 0.0
O73 O 0.95586 0.33569 0.86361 0.0
O74 O 0.97978 0.34365 0.94045 0.0
C75 C 0.07759 0.39145 0.85883 0.0
O76 O 0.9751 0.40672 0.81966 0.0
O77 O 0.0386 0.44807 0.82379 0.0
H78 H 0.59459 0.0839 0.18375 0.0
H79 H 0.45197 0.95447 0.4226 0.0
H80 H 0.5296 0.95264 0.19146 0.0
H81 H 0.49426 0.08229 0.40163 0.0
H82 H 0.48624 0.95499 0.34184 0.0
H83 H 0.56312 0.08557 0.26675 0.0
C84 C 0.57363 0.05548 0.20281 0.0
C85 C 0.56459 0.01807 0.18067 0.0
C86 C 0.48815 0.98299 0.35488 0.0
C87 C 0.52896 0.01975 0.27557 0.0
C88 C 0.46873 0.98275 0.40115 0.0
C89 C 0.47018 0.01837 0.41876 0.0
C90 C 0.50939 0.01917 0.32597 0.0
C91 C 0.49233 0.05413 0.38935 0.0
C92 C 0.55573 0.05645 0.25013 0.0
C93 C 0.53734 0.98216 0.20702 0.0
N94 N 0.51106 0.05363 0.34429 0.0
N95 N 0.52063 0.98391 0.25309 0.0
H96 H 0.53163 0.60109 0.36195 0.0
H97 H 0.50498 0.44232 0.58479 0.0
H98 H 0.58267 0.52246 0.35356 0.0
H99 H 0.42765 0.49475 0.57461 0.0
H100 H 0.53865 0.47716 0.50417 0.0
H101 H 0.49738 0.5675 0.44364 0.0
C102 C 0.53554 0.57673 0.37724 0.0
C103 C 0.55995 0.56447 0.351 0.0
C104 C 0.51431 0.48109 0.5195 0.0
C105 C 0.52136 0.52635 0.44428 0.0
C106 C 0.49519 0.46133 0.56565 0.0
C107 C 0.46343 0.46561 0.58632 0.0
C108 C 0.50186 0.50562 0.4939 0.0
C109 C 0.45196 0.49058 0.55985 0.0
C110 C 0.51599 0.55758 0.42375 0.0
C111 C 0.56405 0.5328 0.37245 0.0
N112 N 0.47124 0.50976 0.51496 0.0
N113 N 0.54511 0.51499 0.41791 0.0
H114 H 0.93837 0.42209 0.74285 0.0
H115 H 0.07074 0.57734 0.5158 0.0
H116 H 0.06911 0.49876 0.74759 0.0
H117 H 0.94033 0.52342 0.52565 0.0
H118 H 0.06978 0.54363 0.59726 0.0
H119 H 0.93746 0.45462 0.66045 0.0
C120 C 0.96682 0.44588 0.7267 0.0
C121 C 0.00387 0.45779 0.75207 0.0
C122 C 0.04132 0.53907 0.58165 0.0
C123 C 0.0031 0.49468 0.65786 0.0
C124 C 0.04183 0.55816 0.53497 0.0
C125 C 0.00556 0.55319 0.51397 0.0
C126 C 0.00422 0.51456 0.60752 0.0
C127 C 0.96899 0.52809 0.54059 0.0
C128 C 0.96628 0.46438 0.67972 0.0
C129 C 0.03984 0.48867 0.72941 0.0
N130 N 0.96923 0.50964 0.58603 0.0
N131 N 0.03857 0.50588 0.68355 0.0
H132 H 0.56605 0.06875 0.92597 0.0
H133 H 0.43586 0.94329 0.67754 0.0
H134 H 0.5415 0.9476 0.88973 0.0
H135 H 0.49406 0.07408 0.68922 0.0
H136 H 0.46833 0.94232 0.75976 0.0
H137 H 0.53288 0.06917 0.84411 0.0
C138 C 0.55344 0.04216 0.90094 0.0
C139 C 0.55655 0.00812 0.91452 0.0
C140 C 0.47411 0.97123 0.74417 0.0
C141 C 0.51863 0.00836 0.82106 0.0
C142 C 0.45561 0.9718 0.69731 0.0
C143 C 0.46242 0.00883 0.67652 0.0
C144 C 0.4991 0.0079 0.77077 0.0
C145 C 0.48818 0.04487 0.70377 0.0
C146 C 0.53474 0.0425 0.85415 0.0
C147 C 0.53983 0.97452 0.88062 0.0
N148 N 0.5054 0.0435 0.74966 0.0
N149 N 0.5215 0.97544 0.8355 0.0
H150 H 0.52255 0.50231 0.1248 0.0
H151 H 0.52429 0.49768 0.81249 0.0
H152 H 0.62171 0.59163 0.03098 0.0
H153 H 0.42856 0.40433 0.90644 0.0
H154 H 0.56212 0.53059 0.89212 0.0
H155 H 0.48931 0.46404 0.04553 0.0
C156 C 0.53746 0.51371 0.08751 0.0
C157 C 0.57484 0.5503 0.08439 0.0
C158 C 0.53297 0.50277 0.89537 0.0
C159 C 0.53688 0.5068 0.99346 0.0
C160 C 0.51136 0.48396 0.84991 0.0
C161 C 0.47315 0.44834 0.85292 0.0
C162 C 0.51614 0.48597 0.94427 0.0
C163 C 0.45788 0.43183 0.90238 0.0
C164 C 0.51847 0.49186 0.04226 0.0
C165 C 0.59284 0.56362 0.03512 0.0
N166 N 0.4793 0.45093 0.94613 0.0
N167 N 0.57356 0.54201 0.99155 0.0
H168 H 0.95239 0.45136 0.00693 0.0
H169 H 0.07899 0.58212 0.2541 0.0
H170 H 0.07319 0.47484 0.04277 0.0
H171 H 0.9482 0.52405 0.24371 0.0
H172 H 0.07932 0.54853 0.17256 0.0
H173 H 0.95221 0.48421 0.0892 0.0
C174 C 0.97894 0.46362 0.03199 0.0
C175 C 0.01285 0.4604 0.01811 0.0
C176 C 0.05055 0.543 0.18831 0.0
C177 C 0.01289 0.49798 0.11202 0.0
C178 C 0.05035 0.56214 0.23478 0.0
C179 C 0.01351 0.55576 0.25568 0.0
C180 C 0.0137 0.5178 0.16221 0.0
C181 C 0.97727 0.52965 0.22904 0.0
C182 C 0.97873 0.48214 0.07902 0.0
C183 C 0.04638 0.47664 0.05209 0.0
N184 N 0.97829 0.51184 0.18348 0.0
N185 N 0.04563 0.49487 0.0974 0.0
H186 H 0.69091 0.77122 0.19687 0.0
H187 H 0.57102 0.86492 0.05014 0.0
H188 H 0.56525 0.70048 0.14881 0.0
H189 H 0.68834 0.93919 0.12271 0.0
H190 H 0.57079 0.804 0.08046 0.0
H191 H 0.69261 0.83291 0.16555 0.0
C192 C 0.66365 0.76872 0.1799 0.0
C193 C 0.62786 0.73073 0.17546 0.0
C194 C 0.59664 0.83359 0.08973 0.0
C195 C 0.6297 0.80098 0.1392 0.0
C196 C 0.59687 0.86839 0.07223 0.0
C197 C 0.62974 0.90715 0.084 0.0
C198 C 0.62961 0.83749 0.11908 0.0
C199 C 0.66239 0.90985 0.11283 0.0
C200 C 0.66465 0.8039 0.16202 0.0
C201 C 0.59345 0.72917 0.1531 0.0
N202 N 0.6615 0.87544 0.12943 0.0
N203 N 0.59527 0.76376 0.13564 0.0
H204 H 0.93492 0.6531 0.25882 0.0
H205 H 0.73401 0.65639 0.34077 0.0
H206 H 0.89052 0.63488 0.4173 0.0
H207 H 0.75566 0.62965 0.18422 0.0
H208 H 0.79771 0.66102 0.36889 0.0
H209 H 0.87561 0.65713 0.23048 0.0
C210 C 0.91287 0.65034 0.28772 0.0
C211 C 0.91746 0.64346 0.34045 0.0
C212 C 0.78857 0.65432 0.32836 0.0
C213 C 0.84978 0.64815 0.30832 0.0
C214 C 0.75236 0.65182 0.31223 0.0
C215 C 0.73953 0.64243 0.26014 0.0
C216 C 0.81234 0.64787 0.29199 0.0
C217 C 0.76439 0.63674 0.22481 0.0
C218 C 0.87899 0.65246 0.27147 0.0
C219 C 0.88798 0.64001 0.37623 0.0
N220 N 0.79967 0.63958 0.24138 0.0
N221 N 0.85534 0.6424 0.35951 0.0
H222 H 0.13296 0.75303 0.34555 0.0
H223 H 0.26526 0.89297 0.58253 0.0
H224 H 0.08887 0.73361 0.50422 0.0
H225 H 0.29133 0.93121 0.42165 0.0
H226 H 0.20152 0.83309 0.55488 0.0
H227 H 0.19246 0.81734 0.37256 0.0
C228 C 0.1357 0.76245 0.38599 0.0
C229 C 0.10605 0.73797 0.42275 0.0
C230 C 0.22103 0.85476 0.52568 0.0
C231 C 0.1741 0.81115 0.454 0.0
C232 C 0.25742 0.88887 0.54143 0.0
C233 C 0.28359 0.91698 0.50429 0.0
C234 C 0.21106 0.84846 0.47234 0.0
C235 C 0.27197 0.91026 0.45155 0.0
C236 C 0.16959 0.79916 0.40137 0.0
C237 C 0.11104 0.7516 0.47463 0.0
N238 N 0.23673 0.87648 0.43707 0.0
N239 N 0.14461 0.78712 0.48882 0.0
H240 H 0.39188 0.26723 0.7522 0.0
H241 H 0.3891 0.13445 0.51072 0.0
H242 H 0.3708 0.29144 0.59412 0.0
H243 H 0.36665 0.08903 0.66883 0.0
H244 H 0.38587 0.19402 0.54025 0.0
H245 H 0.38629 0.20335 0.72255 0.0
C246 C 0.38586 0.25896 0.71133 0.0
C247 C 0.38187 0.28461 0.67552 0.0
C248 C 0.38129 0.17082 0.56836 0.0
C249 C 0.37588 0.21202 0.64129 0.0
C250 C 0.3832 0.1369 0.55155 0.0
C251 C 0.37821 0.10688 0.58742 0.0
C252 C 0.37501 0.175 0.62154 0.0
C253 C 0.37062 0.11149 0.63989 0.0
C254 C 0.38256 0.22251 0.69446 0.0
C255 C 0.37403 0.27248 0.62301 0.0
N256 N 0.36966 0.14513 0.65549 0.0
N257 N 0.37167 0.23721 0.60736 0.0
H258 H 0.08208 0.33166 0.80451 0.0
H259 H 0.32497 0.4615 0.78007 0.0
H260 H 0.15675 0.45005 0.87432 0.0
H261 H 0.25403 0.33498 0.73563 0.0
H262 H 0.26266 0.45923 0.80886 0.0
H263 H 0.14394 0.33322 0.77399 0.0
C264 C 0.11148 0.35787 0.81358 0.0
C265 C 0.11434 0.39074 0.84205 0.0
C266 C 0.26067 0.43194 0.79278 0.0
C267 C 0.18501 0.39293 0.80693 0.0
C268 C 0.29622 0.43328 0.77615 0.0
C269 C 0.29463 0.39836 0.75554 0.0
C270 C 0.22318 0.39545 0.78856 0.0
C271 C 0.25658 0.36259 0.7514 0.0
C272 C 0.14673 0.35877 0.79614 0.0
C273 C 0.15315 0.424 0.85263 0.0
N274 N 0.22231 0.36204 0.76778 0.0
N275 N 0.18692 0.4243 0.83491 0.0
H276 H 0.89329 0.26328 0.84541 0.0
H277 H 0.75879 0.1256 0.0832 0.0
H278 H 0.93386 0.28638 0.00567 0.0
H279 H 0.73077 0.08931 0.92185 0.0
H280 H 0.82332 0.18449 0.05578 0.0
H281 H 0.83375 0.19913 0.87245 0.0
C282 C 0.88982 0.25467 0.88622 0.0
C283 C 0.91844 0.28022 0.92339 0.0
C284 C 0.80322 0.16346 0.0264 0.0
C285 C 0.85025 0.20712 0.95471 0.0
C286 C 0.76637 0.12988 0.04204 0.0
C287 C 0.73936 0.10266 0.00472 0.0
C288 C 0.8129 0.17009 0.97299 0.0
C289 C 0.75071 0.10959 0.95191 0.0
C290 C 0.85585 0.21805 0.90165 0.0
C291 C 0.91249 0.26758 0.97575 0.0
N292 N 0.78646 0.14281 0.93758 0.0
N293 N 0.87888 0.2321 0.98992 0.0
loop_
_geom_bond_atom_site_label_1
_geom_bond_atom_site_label_2
_geom_bond_distance
_geom_bond_site_symmetry_2
_ccdc_geom_bond_type
In0 O1 2.294 1_544 S
In0 O2 2.326 1_554 S
In0 O6 2.266 1_545 S
In0 O7 2.326 1_545 S
In0 O8 2.266 . S
In0 O9 2.326 1_545 S
In0 O11 2.294 . S
In0 O12 2.326 1_554 S
O1 In0 2.294 1_566 S
O1 C10 1.240 1_565 S
O2 In0 2.326 1_556 S
O2 C10 1.252 . S
C3 O6 1.252 . S
C3 O7 1.260 . S
C4 O11 1.240 . S
C4 O12 1.252 1_554 S
C5 O8 1.252 . S
C5 O9 1.260 1_545 S
O6 In0 2.266 1_565 S
O6 C3 1.252 . S
O7 In0 2.326 1_565 S
O7 C3 1.260 . S
O8 In0 2.266 . S
O8 C5 1.252 . S
O9 In0 2.326 1_565 S
O9 C5 1.260 1_565 S
C10 O1 1.240 1_545 S
C10 O2 1.252 . S
O11 In0 2.294 . S
O11 C4 1.240 . S
O12 In0 2.326 1_556 S
O12 C4 1.252 1_556 S
In13 O14 2.294 . S
In13 O15 2.326 . S
In13 O19 2.266 . S
In13 O20 2.326 . S
In13 O21 2.266 . S
In13 O22 2.326 . S
In13 O24 2.294 . S
In13 O25 2.326 . S
O14 In13 2.294 . S
O14 C23 1.240 . S
O15 In13 2.326 . S
O15 C23 1.252 . S
C16 O19 1.252 . S
C16 O20 1.260 . S
C17 O24 1.240 . S
C17 O25 1.252 . S
C18 O21 1.252 . S
C18 O22 1.260 . S
O19 In13 2.266 . S
O19 C16 1.252 . S
O20 In13 2.326 . S
O20 C16 1.260 . S
O21 In13 2.266 . S
O21 C18 1.252 . S
O22 In13 2.326 . S
O22 C18 1.260 . S
C23 O14 1.240 . S
C23 O15 1.252 . S
O24 In13 2.294 . S
O24 C17 1.240 . S
O25 In13 2.326 . S
O25 C17 1.252 . S
In26 O27 2.294 . S
In26 O28 2.326 1_455 S
In26 O32 2.266 . S
In26 O33 2.326 . S
In26 O34 2.266 1_455 S
In26 O35 2.326 . S
In26 O37 2.294 1_455 S
In26 O38 2.326 1_455 S
O27 In26 2.294 . S
O27 C36 1.240 . S
O28 In26 2.326 1_655 S
O28 C36 1.252 1_655 S
C29 O32 1.252 . S
C29 O33 1.260 . S
C30 O37 1.240 . S
C30 O38 1.252 . S
C31 O34 1.252 1_455 S
C31 O35 1.260 . S
O32 In26 2.266 . S
O32 C29 1.252 . S
O33 In26 2.326 . S
O33 C29 1.260 . S
O34 In26 2.266 1_655 S
O34 C31 1.252 1_655 S
O35 In26 2.326 . S
O35 C31 1.260 . S
C36 O27 1.240 . S
C36 O28 1.252 1_455 S
O37 In26 2.294 1_655 S
O37 C30 1.240 . S
O38 In26 2.326 1_655 S
O38 C30 1.252 . S
In39 O40 2.294 1_545 S
In39 O41 2.326 1_545 S
In39 O45 2.266 1_545 S
In39 O46 2.326 . S
In39 O47 2.266 . S
In39 O48 2.326 . S
In39 O50 2.294 . S
In39 O51 2.326 1_545 S
O40 In39 2.294 1_565 S
O40 C49 1.240 . S
O41 In39 2.326 1_565 S
O41 C49 1.252 . S
C42 O45 1.252 1_545 S
C42 O46 1.260 . S
C43 O50 1.240 . S
C43 O51 1.252 1_545 S
C44 O47 1.252 . S
C44 O48 1.260 . S
O45 In39 2.266 1_565 S
O45 C42 1.252 1_565 S
O46 In39 2.326 . S
O46 C42 1.260 . S
O47 In39 2.266 . S
O47 C44 1.252 . S
O48 In39 2.326 . S
O48 C44 1.260 . S
C49 O40 1.240 . S
C49 O41 1.252 . S
O50 In39 2.294 . S
O50 C43 1.240 . S
O51 In39 2.326 1_565 S
O51 C43 1.252 1_565 S
In52 O53 2.294 . S
In52 O54 2.326 . S
In52 O58 2.266 . S
In52 O59 2.326 . S
In52 O60 2.266 . S
In52 O61 2.326 . S
In52 O63 2.294 . S
In52 O64 2.326 . S
O53 In52 2.294 . S
O53 C62 1.240 . S
O54 In52 2.326 . S
O54 C62 1.252 . S
C55 O58 1.252 . S
C55 O59 1.260 . S
C56 O63 1.240 . S
C56 O64 1.252 . S
C57 O60 1.252 . S
C57 O61 1.260 . S
O58 In52 2.266 . S
O58 C55 1.252 . S
O59 In52 2.326 . S
O59 C55 1.260 . S
O60 In52 2.266 . S
O60 C57 1.252 . S
O61 In52 2.326 . S
O61 C57 1.260 . S
C62 O53 1.240 . S
C62 O54 1.252 . S
O63 In52 2.294 . S
O63 C56 1.240 . S
O64 In52 2.326 . S
O64 C56 1.252 . S
In65 O66 2.294 . S
In65 O67 2.326 . S
In65 O71 2.266 . S
In65 O72 2.326 1_455 S
In65 O73 2.266 1_455 S
In65 O74 2.326 1_455 S
In65 O76 2.294 1_455 S
In65 O77 2.326 . S
O66 In65 2.294 . S
O66 C75 1.240 . S
O67 In65 2.326 . S
O67 C75 1.252 . S
C68 O71 1.252 . S
C68 O72 1.260 1_455 S
C69 O76 1.240 1_455 S
C69 O77 1.252 . S
C70 O73 1.252 . S
C70 O74 1.260 . S
O71 In65 2.266 . S
O71 C68 1.252 . S
O72 In65 2.326 1_655 S
O72 C68 1.260 1_655 S
O73 In65 2.266 1_655 S
O73 C70 1.252 . S
O74 In65 2.326 1_655 S
O74 C70 1.260 . S
C75 O66 1.240 . S
C75 O67 1.252 . S
O76 In65 2.294 1_655 S
O76 C69 1.240 1_655 S
O77 In65 2.326 . S
O77 C69 1.252 . S
H78 C84 0.930 . S
H79 C88 0.930 . S
H80 C93 0.929 . S
H81 C91 0.929 . S
H82 C86 0.929 . S
H83 C92 0.929 . S
C84 H78 0.930 . S
C84 C85 1.367 . S
C84 C92 1.378 . S
C85 C84 1.367 . S
C85 C93 1.433 1_545 S
C86 H82 0.929 . S
C86 C88 1.378 . S
C86 C90 1.354 . S
C87 C90 1.464 1_545 S
C87 C92 1.350 . S
C87 N95 1.427 1_545 S
C88 H79 0.930 . S
C88 C86 1.378 . S
C88 C89 1.367 . S
C89 C88 1.367 . S
C89 C91 1.433 1_565 S
C90 C86 1.354 . S
C90 C87 1.464 1_565 S
C90 N94 1.421 1_565 S
C91 H81 0.929 . S
C91 C89 1.433 1_545 S
C91 N94 1.384 . S
C92 H83 0.929 . S
C92 C84 1.378 . S
C92 C87 1.350 . S
C93 H80 0.929 . S
C93 C85 1.433 1_565 S
C93 N95 1.384 . S
N94 C90 1.421 1_545 S
N94 C91 1.384 . S
N95 C87 1.427 1_565 S
N95 C93 1.384 . S
H96 C102 0.930 . S
H97 C106 0.930 . S
H98 C111 0.929 . S
H99 C109 0.929 . S
H100 C104 0.929 . S
H101 C110 0.929 . S
C102 H96 0.930 . S
C102 C103 1.367 . S
C102 C110 1.378 . S
C103 C102 1.367 . S
C103 C111 1.433 . S
C104 H100 0.929 . S
C104 C106 1.378 . S
C104 C108 1.350 . S
C105 C108 1.463 . S
C105 C110 1.350 . S
C105 N113 1.427 . S
C106 H97 0.930 . S
C106 C104 1.378 . S
C106 C107 1.367 . S
C107 C106 1.367 . S
C107 C109 1.433 . S
C108 C104 1.350 . S
C108 C105 1.463 . S
C108 N112 1.427 . S
C109 H99 0.929 . S
C109 C107 1.433 . S
C109 N112 1.384 . S
C110 H101 0.929 . S
C110 C102 1.378 . S
C110 C105 1.350 . S
C111 H98 0.929 . S
C111 C103 1.433 . S
C111 N113 1.384 . S
N112 C108 1.427 . S
N112 C109 1.384 . S
N113 C105 1.427 . S
N113 C111 1.384 . S
H114 C120 0.930 1_655 S
H115 C124 0.930 . S
H116 C129 0.929 . S
H117 C127 0.929 1_655 S
H118 C122 0.929 . S
H119 C128 0.929 1_655 S
C120 H114 0.930 1_455 S
C120 C121 1.367 . S
C120 C128 1.378 . S
C121 C120 1.367 . S
C121 C129 1.433 . S
C122 H118 0.929 . S
C122 C124 1.378 . S
C122 C126 1.350 . S
C123 C126 1.463 . S
C123 C128 1.350 . S
C123 N131 1.427 . S
C124 H115 0.930 . S
C124 C122 1.378 . S
C124 C125 1.367 . S
C125 C124 1.367 . S
C125 C127 1.433 . S
C126 C122 1.350 . S
C126 C123 1.463 . S
C126 N130 1.427 . S
C127 H117 0.929 1_455 S
C127 C125 1.433 . S
C127 N130 1.384 . S
C128 H119 0.929 1_455 S
C128 C120 1.378 . S
C128 C123 1.350 . S
C129 H116 0.929 . S
C129 C121 1.433 . S
C129 N131 1.384 . S
N130 C126 1.427 . S
N130 C127 1.384 . S
N131 C123 1.427 . S
N131 C129 1.384 . S
H132 C138 0.930 . S
H133 C142 0.930 . S
H134 C147 0.929 . S
H135 C145 0.929 . S
H136 C140 0.929 . S
H137 C146 0.929 . S
C138 H132 0.930 . S
C138 C139 1.367 . S
C138 C146 1.378 . S
C139 C138 1.367 . S
C139 C147 1.433 1_545 S
C140 H136 0.929 . S
C140 C142 1.378 . S
C140 C144 1.350 1_565 S
C141 C144 1.463 . S
C141 C146 1.350 . S
C141 N149 1.427 1_545 S
C142 H133 0.930 . S
C142 C140 1.378 . S
C142 C143 1.367 1_565 S
C143 C142 1.367 1_545 S
C143 C145 1.433 . S
C144 C140 1.350 1_545 S
C144 C141 1.463 . S
C144 N148 1.427 . S
C145 H135 0.929 . S
C145 C143 1.433 . S
C145 N148 1.384 . S
C146 H137 0.929 . S
C146 C138 1.378 . S
C146 C141 1.350 . S
C147 H134 0.929 . S
C147 C139 1.433 1_565 S
C147 N149 1.384 . S
N148 C144 1.427 . S
N148 C145 1.384 . S
N149 C141 1.427 1_565 S
N149 C147 1.384 . S
H150 C156 0.930 . S
H151 C160 0.930 . S
H152 C165 0.929 . S
H153 C163 0.929 . S
H154 C158 0.929 . S
H155 C164 0.929 . S
C156 H150 0.930 . S
C156 C157 1.367 . S
C156 C164 1.378 . S
C157 C156 1.367 . S
C157 C165 1.433 . S
C158 H154 0.929 . S
C158 C160 1.378 . S
C158 C162 1.350 . S
C159 C162 1.463 . S
C159 C164 1.350 1_556 S
C159 N167 1.427 . S
C160 H151 0.930 . S
C160 C158 1.378 . S
C160 C161 1.367 . S
C161 C160 1.367 . S
C161 C163 1.433 . S
C162 C158 1.350 . S
C162 C159 1.463 . S
C162 N166 1.427 . S
C163 H153 0.929 . S
C163 C161 1.433 . S
C163 N166 1.384 . S
C164 H155 0.929 . S
C164 C156 1.378 . S
C164 C159 1.350 1_554 S
C165 H152 0.929 . S
C165 C157 1.433 . S
C165 N167 1.384 1_554 S
N166 C162 1.427 . S
N166 C163 1.384 . S
N167 C159 1.427 . S
N167 C165 1.384 1_556 S
H168 C174 0.930 . S
H169 C178 0.930 . S
H170 C183 0.929 1_556 S
H171 C181 0.929 . S
H172 C176 0.929 . S
H173 C182 0.929 . S
C174 H168 0.930 . S
C174 C175 1.367 1_655 S
C174 C182 1.378 . S
C175 C174 1.367 1_455 S
C175 C183 1.433 . S
C176 H172 0.929 . S
C176 C178 1.378 . S
C176 C180 1.350 . S
C177 C180 1.463 . S
C177 C182 1.350 1_455 S
C177 N185 1.427 . S
C178 H169 0.930 . S
C178 C176 1.378 . S
C178 C179 1.367 . S
C179 C178 1.367 . S
C179 C181 1.433 1_455 S
C180 C176 1.350 . S
C180 C177 1.463 . S
C180 N184 1.427 1_455 S
C181 H171 0.929 . S
C181 C179 1.433 1_655 S
C181 N184 1.384 . S
C182 H173 0.929 . S
C182 C174 1.378 . S
C182 C177 1.350 1_655 S
C183 H170 0.929 1_554 S
C183 C175 1.433 . S
C183 N185 1.384 . S
N184 C180 1.427 1_655 S
N184 C181 1.384 . S
N185 C177 1.427 . S
N185 C183 1.384 . S
H186 C192 0.930 . S
H187 C196 0.930 . S
H188 C201 0.929 . S
H189 C199 0.929 . S
H190 C194 0.929 . S
H191 C200 0.929 . S
C192 H186 0.930 . S
C192 C193 1.367 . S
C192 C200 1.378 . S
C193 C192 1.367 . S
C193 C201 1.433 . S
C194 H190 0.929 . S
C194 C196 1.378 . S
C194 C198 1.350 . S
C195 C198 1.463 . S
C195 C200 1.350 . S
C195 N203 1.427 . S
C196 H187 0.930 . S
C196 C194 1.378 . S
C196 C197 1.367 . S
C197 C196 1.367 . S
C197 C199 1.433 . S
C198 C194 1.350 . S
C198 C195 1.463 . S
C198 N202 1.427 . S
C199 H189 0.929 . S
C199 C197 1.433 . S
C199 N202 1.384 . S
C200 H191 0.929 . S
C200 C192 1.378 . S
C200 C195 1.350 . S
C201 H188 0.929 . S
C201 C193 1.433 . S
C201 N203 1.384 . S
N202 C198 1.427 . S
N202 C199 1.384 . S
N203 C195 1.427 . S
N203 C201 1.384 . S
H204 C210 0.930 . S
H205 C214 0.930 . S
H206 C219 0.929 . S
H207 C217 0.929 . S
H208 C212 0.929 . S
H209 C218 0.929 . S
C210 H204 0.930 . S
C210 C211 1.367 . S
C210 C218 1.378 . S
C211 C210 1.367 . S
C211 C219 1.433 . S
C212 H208 0.929 . S
C212 C214 1.378 . S
C212 C216 1.350 . S
C213 C216 1.463 . S
C213 C218 1.350 . S
C213 N221 1.427 . S
C214 H205 0.930 . S
C214 C212 1.378 . S
C214 C215 1.367 . S
C215 C214 1.367 . S
C215 C217 1.433 . S
C216 C212 1.350 . S
C216 C213 1.463 . S
C216 N220 1.427 . S
C217 H207 0.929 . S
C217 C215 1.433 . S
C217 N220 1.384 . S
C218 H209 0.929 . S
C218 C210 1.378 . S
C218 C213 1.350 . S
C219 H206 0.929 . S
C219 C211 1.433 . S
C219 N221 1.384 . S
N220 C216 1.427 . S
N220 C217 1.384 . S
N221 C213 1.427 . S
N221 C219 1.384 . S
H222 C228 0.930 . S
H223 C232 0.930 . S
H224 C237 0.929 . S
H225 C235 0.929 . S
H226 C230 0.929 . S
H227 C236 0.929 . S
C228 H222 0.930 . S
C228 C229 1.367 . S
C228 C236 1.378 . S
C229 C228 1.367 . S
C229 C237 1.433 . S
C230 H226 0.929 . S
C230 C232 1.378 . S
C230 C234 1.350 . S
C231 C234 1.463 . S
C231 C236 1.350 . S
C231 N239 1.427 . S
C232 H223 0.930 . S
C232 C230 1.378 . S
C232 C233 1.367 . S
C233 C232 1.367 . S
C233 C235 1.433 . S
C234 C230 1.350 . S
C234 C231 1.463 . S
C234 N238 1.427 . S
C235 H225 0.929 . S
C235 C233 1.433 . S
C235 N238 1.384 . S
C236 H227 0.929 . S
C236 C228 1.378 . S
C236 C231 1.350 . S
C237 H224 0.929 . S
C237 C229 1.433 . S
C237 N239 1.384 . S
N238 C234 1.427 . S
N238 C235 1.384 . S
N239 C231 1.427 . S
N239 C237 1.384 . S
H240 C246 0.930 . S
H241 C250 0.930 . S
H242 C255 0.929 . S
H243 C253 0.929 . S
H244 C248 0.929 . S
H245 C254 0.929 . S
C246 H240 0.930 . S
C246 C247 1.367 . S
C246 C254 1.378 . S
C247 C246 1.367 . S
C247 C255 1.433 . S
C248 H244 0.929 . S
C248 C250 1.378 . S
C248 C252 1.350 . S
C249 C252 1.463 . S
C249 C254 1.350 . S
C249 N257 1.427 . S
C250 H241 0.930 . S
C250 C248 1.378 . S
C250 C251 1.367 . S
C251 C250 1.367 . S
C251 C253 1.433 . S
C252 C248 1.350 . S
C252 C249 1.463 . S
C252 N256 1.427 . S
C253 H243 0.929 . S
C253 C251 1.433 . S
C253 N256 1.384 . S
C254 H245 0.929 . S
C254 C246 1.378 . S
C254 C249 1.350 . S
C255 H242 0.929 . S
C255 C247 1.433 . S
C255 N257 1.384 . S
N256 C252 1.427 . S
N256 C253 1.384 . S
N257 C249 1.427 . S
N257 C255 1.384 . S
H258 C264 0.930 . S
H259 C268 0.930 . S
H260 C273 0.929 . S
H261 C271 0.929 . S
H262 C266 0.929 . S
H263 C272 0.929 . S
C264 H258 0.930 . S
C264 C265 1.367 . S
C264 C272 1.378 . S
C265 C264 1.367 . S
C265 C273 1.433 . S
C266 H262 0.929 . S
C266 C268 1.378 . S
C266 C270 1.350 . S
C267 C270 1.463 . S
C267 C272 1.350 . S
C267 N275 1.427 . S
C268 H259 0.930 . S
C268 C266 1.378 . S
C268 C269 1.367 . S
C269 C268 1.367 . S
C269 C271 1.433 . S
C270 C266 1.350 . S
C270 C267 1.463 . S
C270 N274 1.427 . S
C271 H261 0.929 . S
C271 C269 1.433 . S
C271 N274 1.384 . S
C272 H263 0.929 . S
C272 C264 1.378 . S
C272 C267 1.350 . S
C273 H260 0.929 . S
C273 C265 1.433 . S
C273 N275 1.384 . S
N274 C270 1.427 . S
N274 C271 1.384 . S
N275 C267 1.427 . S
N275 C273 1.384 . S
H276 C282 0.930 . S
H277 C286 0.930 . S
H278 C291 0.929 . S
H279 C289 0.929 . S
H280 C284 0.929 . S
H281 C290 0.929 . S
C282 H276 0.930 . S
C282 C283 1.367 . S
C282 C290 1.378 . S
C283 C282 1.367 . S
C283 C291 1.433 . S
C284 H280 0.929 . S
C284 C286 1.378 . S
C284 C288 1.350 1_554 S
C285 C288 1.463 . S
C285 C290 1.350 . S
C285 N293 1.427 . S
C286 H277 0.930 . S
C286 C284 1.378 . S
C286 C287 1.367 1_554 S
C287 C286 1.367 1_556 S
C287 C289 1.433 . S
C288 C284 1.350 1_556 S
C288 C285 1.463 . S
C288 N292 1.427 . S
C289 H279 0.929 . S
C289 C287 1.433 . S
C289 N292 1.384 . S
C290 H281 0.929 . S
C290 C282 1.378 . S
C290 C285 1.350 . S
C291 H278 0.929 . S
C291 C283 1.433 . S
C291 N293 1.384 . S
N292 C288 1.427 . S
N292 C289 1.384 . S
N293 C285 1.427 . S
N293 C291 1.384 . S
C85 C5 1.772 . S
C89 C43 1.773 1_565 S
C103 C18 1.772 . S
C107 C56 1.772 . S
C121 C69 1.771 . S
C125 C31 1.773 . S
C139 C10 1.772 . S
C143 C42 1.772 . S
C157 C23 1.773 . S
C161 C55 1.773 . S
C175 C68 1.773 1_554 S
C179 C36 1.771 . S
C193 C17 1.430 . S
C197 C3 1.428 . S
C211 C30 1.431 . S
C215 C16 1.432 . S
C229 C29 1.429 . S
C233 C49 1.426 . S
C247 C62 1.429 . S
C251 C44 1.428 . S
C265 C75 1.431 . S
C269 C57 1.428 . S
C283 C70 1.428 . S
C287 C4 1.429 1_556 S
