# Generated by pormake.
# Topology snp, (6)-cn, num edge types: 1
# Building blocks:
#     Node 0, Type 0, BuildingBlock: PAMTOO_clean_sbu_0, # of connection points: 6
#     Node 1, Type 0, BuildingBlock: PAMTOO_clean_sbu_0, # of connection points: 6
#     Node 2, Type 0, BuildingBlock: PAMTOO_clean_sbu_0, # of connection points: 6
#     Node 3, Type 0, BuildingBlock: PAMTOO_clean_sbu_0, # of connection points: 6
#     Edge 4, Type (0, 0), BuildingBlock: UVAHIK_clean_linker_0, # of connection points: 2
#     Edge 5, Type (0, 0), BuildingBlock: UVAHIK_clean_linker_0, # of connection points: 2
#     Edge 6, Type (0, 0), BuildingBlock: UVAHIK_clean_linker_0, # of connection points: 2
#     Edge 7, Type (0, 0), BuildingBlock: UVAHIK_clean_linker_0, # of connection points: 2
#     Edge 8, Type (0, 0), BuildingBlock: UVAHIK_clean_linker_0, # of connection points: 2
#     Edge 9, Type (0, 0), BuildingBlock: UVAHIK_clean_linker_0, # of connection points: 2
#     Edge 10, Type (0, 0), BuildingBlock: UVAHIK_clean_linker_0, # of connection points: 2
#     Edge 11, Type (0, 0), BuildingBlock: UVAHIK_clean_linker_0, # of connection points: 2
#     Edge 12, Type (0, 0), BuildingBlock: UVAHIK_clean_linker_0, # of connection points: 2
#     Edge 13, Type (0, 0), BuildingBlock: UVAHIK_clean_linker_0, # of connection points: 2
#     Edge 14, Type (0, 0), BuildingBlock: UVAHIK_clean_linker_0, # of connection points: 2
#     Edge 15, Type (0, 0), BuildingBlock: UVAHIK_clean_linker_0, # of connection points: 2
# Relax obj value: 0.599
# Max RMSD: 0.190
# Mean RMSD: 0.190
data_MOF--net-snp--node1-PAMTOO_clean_sbu_0--edge1-UVAHIK_clean_linker_0
_symmetry_space_group_name_H-M    P1
_symmetry_Int_Tables_number       1
_symmetry_cell_setting            triclinic
loop_
_symmetry_equiv_pos_as_xyz
'x, y, z'
_cell_length_a     31.504948
_cell_length_b     32.031378
_cell_length_c     37.083628
_cell_angle_alpha  94.621354
_cell_angle_beta   95.439604
_cell_angle_gamma 93.762747
loop_
_atom_site_label
_atom_site_type_symbol
_atom_site_fract_x
_atom_site_fract_y
_atom_site_fract_z
_atom_type_partial_charge
Dy0 Dy 0.2214 0.95353 0.13184 0.0
Dy1 Dy 0.24407 0.05207 0.16629 0.0
C2 C 0.31944 0.99185 0.14917 0.0
O3 O 0.20528 0.95466 0.19026 0.0
O4 O 0.21936 0.02308 0.21492 0.0
O5 O 0.22664 0.88953 0.14465 0.0
O6 O 0.19565 0.9022 1.09256 0.0
O7 O 0.17356 0.04061 0.16139 0.0
O8 O 0.16066 0.98369 0.11991 0.0
O9 O 0.2384 0.05517 0.10486 0.0
O10 O 0.21996 0.98716 1.08032 0.0
O11 O 0.24269 0.11755 0.1572 0.0
O12 O 0.27605 0.09928 0.20663 0.0
C13 C 0.20626 0.98353 0.21788 0.0
O14 O 0.29204 0.96466 0.1294 0.0
O15 O 0.30684 0.02334 0.16921 0.0
C16 C 0.23725 0.84355 1.09377 0.0
C17 C 0.28753 0.79018 1.05426 0.0
C18 C 0.3052 0.81337 1.08662 0.0
C19 C 0.2804 0.83999 0.10607 0.0
C20 C 0.21906 0.81912 1.06245 0.0
C21 C 0.24391 0.79291 1.04279 0.0
C22 C 0.21141 0.87384 0.11216 0.0
C23 C 0.15157 0.02122 0.13241 0.0
C24 C 0.22654 0.02771 1.07649 0.0
C25 C 0.25051 0.16715 0.20829 0.0
C26 C 0.22619 0.23935 0.24717 0.0
C27 C 0.19552 0.20634 0.23392 0.0
C28 C 0.20761 0.17043 0.21457 0.0
C29 C 0.28092 0.20017 0.22083 0.0
C30 C 0.26895 0.23593 0.2401 0.0
C31 C 0.26461 0.13029 0.18809 0.0
H32 H 0.33847 0.81177 1.09649 0.0
H33 H 0.29536 0.85847 0.13024 0.0
H34 H 0.1859 0.82142 1.05247 0.0
H35 H 0.22925 0.77638 1.01762 0.0
H36 H 0.16231 0.20813 0.23879 0.0
H37 H 0.18368 0.14521 0.20476 0.0
H38 H 0.31416 0.1981 0.21604 0.0
H39 H 0.29356 0.26025 0.25055 0.0
Dy40 Dy 0.11608 0.22448 0.64745 0.0
Dy41 Dy 1.01657 0.22014 0.66559 0.0
C42 C 0.06812 0.30736 0.66344 0.0
O43 O 0.11869 0.20421 0.70496 0.0
O44 O 0.04833 0.19689 0.71678 0.0
O45 O 0.17708 0.25581 0.66834 0.0
O46 O 0.17186 0.21307 0.61936 0.0
O47 O 1.02432 0.15935 0.634 0.0
O48 O 0.09735 0.15645 0.6367 0.0
O49 O 1.01286 0.21945 0.60388 0.0
O50 O 0.08268 0.21801 0.59019 0.0
O51 O 0.96107 0.19618 0.68981 0.0
O52 O 0.95628 0.24644 0.65402 0.0
C53 C 0.08932 0.19372 0.72646 0.0
O54 O 0.09124 0.28745 0.64127 0.0
O55 O 0.04371 0.28602 0.68318 0.0
C56 C 0.21587 0.27559 0.62013 0.0
C57 C 0.24127 0.33541 0.5731 0.0
C58 C 0.22073 0.34774 0.60383 0.0
C59 C 0.20797 0.31811 0.62704 0.0
C60 C 0.23941 0.26389 0.59126 0.0
C61 C 0.25186 0.29341 0.56789 0.0
C62 C 0.19535 0.24275 0.63974 0.0
C63 C 0.05843 0.14096 0.62497 0.0
C64 C 0.04123 0.21645 0.57979 0.0
C65 C 0.90855 0.24474 0.69843 0.0
C66 C 0.85341 0.28856 0.74058 0.0
C67 C 0.89788 0.29231 0.75046 0.0
C68 C 0.92529 0.27062 0.72945 0.0
C69 C 0.86448 0.24146 0.68812 0.0
C70 C 0.83709 0.26318 0.70898 0.0
C71 C 0.93651 0.22289 0.67515 0.0
H72 H 0.21267 0.37988 0.60901 0.0
H73 H 0.19004 0.32825 0.64926 0.0
H74 H 0.24588 0.23135 0.58542 0.0
H75 H 0.26707 0.28243 0.54428 0.0
H76 H 0.91141 0.31109 0.77495 0.0
H77 H 0.95941 0.27384 0.73745 0.0
H78 H 0.85122 0.22211 0.66382 0.0
H79 H 0.8031 0.25999 0.70045 0.0
Dy80 Dy 0.87214 0.98612 0.1358 0.0
Dy81 Dy 0.84901 0.08173 0.11996 0.0
C82 C 0.77619 1.01285 0.12771 0.0
O83 O 0.8624 0.98412 1.0745 0.0
O84 O 0.86106 0.05387 1.06333 0.0
O85 O 0.85644 0.92045 0.1204 0.0
O86 O 0.90557 0.93978 0.16459 0.0
O87 O 0.91793 0.07832 0.13599 0.0
O88 O 0.9277 1.01455 0.11034 0.0
O89 O 0.85745 0.08136 0.18176 0.0
O90 O 0.89641 0.02392 0.18866 0.0
O91 O 0.86253 0.14172 1.09952 0.0
O92 O 0.80918 0.13245 0.13183 0.0
C93 C 0.86374 1.01386 1.05182 0.0
O94 O 0.80447 0.99497 0.14857 0.0
O95 O 0.78898 0.0407 0.10642 0.0
C96 C 0.86044 0.87901 0.16904 0.0
C97 C 0.81606 0.82086 0.20748 0.0
C98 C 0.80315 0.86194 0.20585 0.0
C99 C 0.82523 0.89077 0.1869 0.0
C100 C 0.8733 0.83808 0.1702 0.0
C101 C 0.85133 0.80918 0.18935 0.0
C102 C 0.88149 0.90848 0.14701 0.0
C103 C 0.93913 0.05489 0.11483 0.0
C104 C 0.8825 0.0592 0.20233 0.0
C105 C 0.80331 0.18214 1.08851 0.0
C106 C 0.75859 0.23324 1.04209 0.0
C107 C 0.77262 0.19476 1.02833 0.0
C108 C 0.79467 0.16937 1.05137 0.0
C109 C 0.78792 0.21948 1.10265 0.0
C110 C 0.76566 0.24484 1.07966 0.0
C111 C 0.82969 0.158 0.11269 0.0
H112 H 0.77584 0.87178 0.21914 0.0
H113 H 0.81453 0.92215 0.18582 0.0
H114 H 0.9002 0.82847 0.15621 0.0
H115 H 0.86244 0.77799 0.19055 0.0
H116 H 0.76844 0.18512 0.99948 0.0
H117 H 0.80613 0.14047 1.04001 0.0
H118 H 0.79407 0.22955 0.13139 0.0
H119 H 0.75492 0.27399 1.09116 0.0
Dy120 Dy 0.08805 0.85109 0.6486 0.0
Dy121 Dy 0.98945 0.82511 0.61597 0.0
C122 C 0.051 0.75622 0.63712 0.0
O123 O 0.09062 0.84477 0.58726 0.0
O124 O 1.01979 0.8365 0.56395 0.0
O125 O 0.15379 0.84248 0.64139 0.0
O126 O 0.1382 0.88049 0.68862 0.0
O127 O 0.99602 0.89467 0.62315 0.0
O128 O 0.06761 0.9056 0.61955 0.0
O129 O 0.98788 0.83897 0.67711 0.0
O130 O 0.05091 0.87908 0.69265 0.0
O131 O 0.92952 0.83177 0.58454 0.0
O132 O 0.93531 0.78128 0.61997 0.0
C133 C 0.06081 0.84311 0.55936 0.0
O134 O 0.07113 0.78481 0.66107 0.0
O135 O 1.02601 0.768 0.61023 0.0
C136 C 0.19796 0.83958 0.69535 0.0
C137 C 0.25694 0.79608 0.73724 0.0
C138 C 0.22147 0.77423 0.71647 0.0
C139 C 0.19214 0.79579 0.6959 0.0
C140 C 0.23344 0.86148 0.71558 0.0
C141 C 0.26263 0.83998 0.73645 0.0
C142 C 0.16814 0.86226 0.67265 0.0
C143 C 1.02835 0.91608 0.61196 0.0
C144 C 1.01262 0.86569 0.7004 0.0
C145 C 0.8906 0.76702 0.5654 0.0
C146 C 0.8483 0.71091 0.50887 0.0
C147 C 0.8856 0.73542 0.50344 0.0
C148 C 0.90668 0.7629 0.53146 0.0
C149 C 0.85424 0.74194 0.57147 0.0
C150 C 0.83326 0.714 0.54346 0.0
C151 C 0.91158 0.79723 0.59458 0.0
H152 H 0.21627 0.74044 0.71617 0.0
H153 H 0.16498 0.77821 0.68031 0.0
H154 H 0.23845 0.89525 0.71538 0.0
H155 H 0.28901 0.85797 0.75271 0.0
H156 H 0.89776 0.73481 0.47707 0.0
H157 H 0.93502 0.78165 0.52629 0.0
H158 H 0.84175 0.74436 0.59773 0.0
H159 H 0.80496 0.69536 0.54876 0.0
C160 C 0.97149 0.04981 1.05563 0.0
C161 C 0.95782 0.07461 1.08457 0.0
C162 C 0.98418 0.06806 1.02506 0.0
C163 C 0.03834 0.16719 1.01361 0.0
H164 H 0.08466 0.06974 0.97009 0.0
C165 C 0.14349 0.09027 0.10662 0.0
C166 C 0.1317 0.04702 0.1051 0.0
C167 C 0.13422 0.11286 1.07652 0.0
C168 C 0.07258 0.09764 0.98269 0.0
H169 H 0.94515 0.13811 0.10327 0.0
H170 H 0.9661 0.1697 1.05006 0.0
H171 H 1.01108 0.08469 0.95266 0.0
H172 H 0.09964 0.99394 1.07112 0.0
H173 H 0.08005 0.03323 1.0203 0.0
H174 H 0.0974 0.17953 1.04687 0.0
C175 C 0.96772 0.13614 1.0508 0.0
C176 C 1.03046 0.10668 0.97225 0.0
C177 C 0.95594 0.11796 1.08167 0.0
C178 C 0.10887 0.02731 1.07335 0.0
C179 C 0.09879 0.04997 1.04357 0.0
C180 C 0.08008 0.15856 1.02536 0.0
C181 C 0.98416 0.11199 1.02262 0.0
C182 C 1.01094 0.13319 0.99686 0.0
C183 C 0.11147 0.09322 1.04443 0.0
C184 C 0.09357 0.11853 1.01517 0.0
H185 H 0.97229 1.01614 1.05644 0.0
H186 H 0.9959 0.04744 1.00429 0.0
H187 H 1.02569 0.19455 1.02654 0.0
H188 H 0.16173 0.10643 0.13044 0.0
H189 H 0.1451 0.14577 1.07865 0.0
C190 C 0.05499 0.96144 0.56673 0.0
C191 C 1.02075 0.93835 0.5789 0.0
C192 C 0.05228 0.97381 0.53159 0.0
C193 C 0.97349 1.00645 0.46641 0.0
H194 H 0.08592 0.0594 0.46287 0.0
C195 C 1.01126 0.09675 0.57745 0.0
C196 C 0.05231 0.11439 0.59016 0.0
C197 C 1.00077 0.08404 0.54073 0.0
C198 C 0.05368 0.0455 0.46276 0.0
H199 H 0.95629 0.91025 0.56352 0.0
H200 H 0.95096 0.93313 0.50224 0.0
H201 H 0.07562 0.98392 0.45893 0.0
H202 H 0.11508 0.13168 0.57397 0.0
H203 H 0.09738 0.10856 0.51024 0.0
H204 H 0.95226 0.06856 0.47037 0.0
C205 C 0.98028 0.9412 0.5198 0.0
C206 C 0.04758 1.00164 0.45992 0.0
C207 C 0.98304 0.92887 0.55527 0.0
C208 C 0.08335 0.11709 0.56538 0.0
C209 C 0.07282 0.10459 0.52842 0.0
C210 C 0.97952 0.05023 0.46692 0.0
C211 C 1.01498 0.9637 0.50726 0.0
C212 C 1.01009 0.98387 0.47229 0.0
C213 C 1.03116 0.08814 0.5152 0.0
C214 C 1.02136 0.06838 0.47689 0.0
H215 H 0.08461 0.96893 0.58408 0.0
H216 H 0.07954 0.99235 0.52419 0.0
H217 H 0.942 0.99289 0.47013 0.0
H218 H 0.98642 0.09469 0.59568 0.0
H219 H 0.96853 0.07059 0.53291 0.0
C220 C 0.71361 0.97964 0.15592 0.0
C221 C 0.72937 1.0038 0.12936 0.0
C222 C 0.66938 0.97346 0.15828 0.0
C223 C 0.5633 0.97913 0.10563 0.0
H224 H 0.52122 0.99197 0.20048 0.0
C225 C 0.38201 0.95756 0.12435 0.0
C226 C 0.36633 0.98779 0.1484 0.0
C227 C 0.42618 0.95545 0.12261 0.0
C228 C 0.53239 0.98835 0.17375 0.0
H229 H 0.71054 0.0396 1.08397 0.0
H230 H 0.63411 0.0288 1.08804 0.0
H231 H 0.59816 0.9956 0.19579 0.0
H232 H 0.38544 0.03896 0.18997 0.0
H233 H 0.4619 0.03521 0.1869 0.0
H234 H 0.49758 0.97288 1.08352 0.0
C235 C 0.65572 1.01439 0.10698 0.0
C236 C 0.57659 0.98998 0.17109 0.0
C237 C 0.69975 1.02081 0.10481 0.0
C238 C 0.3961 1.01522 0.1711 0.0
C239 C 0.44015 1.01292 0.16952 0.0
C240 C 0.51911 0.97722 0.1083 0.0
C241 C 0.63982 0.99093 0.13391 0.0
C242 C 0.59271 0.98599 0.13696 0.0
C243 C 0.45589 0.98325 0.14506 0.0
C244 C 0.50299 0.98238 0.14237 0.0
H245 H 0.73541 0.96601 0.17526 0.0
H246 H 0.65833 0.95489 0.17916 0.0
H247 H 0.57445 0.97545 1.0789 0.0
H248 H 0.36017 0.93583 0.10649 0.0
H249 H 0.43707 0.93189 0.1037 0.0
C250 C 0.04147 0.37719 0.68507 0.0
C251 C 0.06823 0.35408 0.66402 0.0
C252 C 0.04075 0.42094 0.68381 0.0
C253 C 0.06644 0.50565 0.62457 0.0
H254 H 0.05762 0.58083 0.71039 0.0
C255 C 0.03298 0.6802 0.61493 0.0
C256 C 0.05482 0.71051 0.64093 0.0
C257 C 0.03537 0.6372 0.61864 0.0
C258 C 0.0604 0.56034 0.68617 0.0
H259 H 0.11597 0.35952 0.62575 0.0
H260 H 0.11492 0.43504 0.62386 0.0
H261 H 0.06063 0.50541 0.7158 0.0
H262 H 0.09656 0.71886 0.69134 0.0
H263 H 0.10085 0.64374 0.69775 0.0
H264 H 0.06664 0.56034 0.59495 0.0
C265 C 0.09392 0.4195 0.64094 0.0
C266 C 0.06163 0.51696 0.68922 0.0
C267 C 0.09471 0.376 0.64223 0.0
C268 C 0.07926 0.6965 0.67078 0.0
C269 C 0.0815 0.65336 0.67458 0.0
C270 C 0.06497 0.54887 0.6215 0.0
C271 C 0.06664 0.44265 0.66137 0.0
C272 C 0.06479 0.48897 0.65845 0.0
C273 C 0.05959 0.62305 0.64853 0.0
C274 C 0.06189 0.57692 0.65222 0.0
H275 H 1.02059 0.36143 0.7021 0.0
H276 H 1.0191 0.43759 0.69975 0.0
H277 H 0.06837 0.4852 0.60016 0.0
H278 H 1.01367 0.68963 0.59165 0.0
H279 H 1.01757 0.61498 0.59827 0.0
C280 C 0.21197 0.38847 0.53312 0.0
C281 C 0.24557 0.3637 0.54355 0.0
C282 C 0.20925 0.40461 0.49916 0.0
C283 C 0.26119 0.40087 0.41147 0.0
H284 H 0.14669 0.3586 0.37209 0.0
C285 C 0.23448 0.31591 0.26978 0.0
C286 C 0.21504 0.27534 0.27135 0.0
C287 C 0.23095 0.34763 0.2973 0.0
C288 C 0.17871 0.371 0.38251 0.0
H289 H 0.30634 0.34283 0.52927 0.0
H290 H 0.30049 0.36839 0.4696 0.0
H291 H 0.16053 0.38167 0.43601 0.0
H292 H 0.17392 0.2373 0.30151 0.0
H293 H 0.16786 0.29197 0.34919 0.0
H294 H 0.28014 0.38525 0.35858 0.0
C295 C 0.27614 0.37587 0.48729 0.0
C296 C 0.1867 0.38489 0.41929 0.0
C297 C 0.27924 0.36044 0.52149 0.0
C298 C 0.189 0.26822 0.29923 0.0
C299 C 0.18544 0.29983 0.32664 0.0
C300 C 0.2533 0.38629 0.37475 0.0
C301 C 0.23953 0.3955 0.47467 0.0
C302 C 0.22871 0.39699 0.4348 0.0
C303 C 0.20781 0.33939 0.32684 0.0
C304 C 0.21257 0.36832 0.3606 0.0
H305 H 0.18557 0.39215 0.54951 0.0
H306 H 0.18139 0.42093 0.49089 0.0
H307 H 0.29362 0.41147 0.42219 0.0
H308 H 0.25405 0.32259 0.24815 0.0
H309 H 0.24803 0.37793 0.29638 0.0
C310 C 0.83445 0.34838 0.78282 0.0
C311 C 0.82404 0.30818 0.7648 0.0
C312 C 0.8105 0.36349 0.81028 0.0
C313 C 0.7874 0.35974 0.88687 0.0
H314 H 0.67177 0.31697 0.89775 0.0
C315 C 0.71568 0.24775 0.98458 0.0
C316 C 0.74134 0.26289 1.01659 0.0
C317 C 0.70917 0.27333 0.95614 0.0
C318 C 0.70394 0.32974 0.89523 0.0
H319 H 0.77838 0.25378 0.75948 0.0
H320 H 0.73735 0.27954 0.80735 0.0
H321 H 0.69275 0.32723 0.83718 0.0
H322 H 0.77522 0.31859 1.04582 0.0
H323 H 0.76267 0.3635 0.99668 0.0
H324 H 0.80002 0.35896 0.94412 0.0
C325 C 0.76337 0.29998 0.80009 0.0
C326 C 0.71595 0.33563 0.86054 0.0
C327 C 0.78717 0.28497 0.77265 0.0
C328 C 0.75557 0.30571 1.02142 0.0
C329 C 0.74865 0.33147 0.99309 0.0
C330 C 0.77544 0.35385 0.92142 0.0
C331 C 0.77588 0.33855 0.82038 0.0
C332 C 0.7587 0.3477 0.85588 0.0
C333 C 0.72795 0.31474 0.95927 0.0
C334 C 0.73451 0.3358 0.92573 0.0
H335 H 0.86214 0.3674 0.77673 0.0
H336 H 0.82056 0.39363 0.82502 0.0
H337 H 0.82059 0.36915 0.88447 0.0
H338 H 0.7032 0.21521 0.98045 0.0
H339 H 0.69293 0.25919 0.93061 0.0
C340 C 0.84437 0.66825 0.44879 0.0
C341 C 0.8233 0.68612 0.47729 0.0
C342 C 0.82232 0.65731 0.41461 0.0
C343 C 0.73038 0.69944 0.36488 0.0
H344 H 0.79299 0.65811 0.28612 0.0
C345 C 0.78668 0.74832 0.21833 0.0
C346 C 0.79449 0.79129 0.22991 0.0
C347 C 0.76998 0.72025 0.24137 0.0
C348 C 0.774 0.66916 0.3073 0.0
H349 H 0.76083 0.69853 0.49414 0.0
H350 H 0.72193 0.6764 0.43546 0.0
H351 H 0.79782 0.62469 0.34257 0.0
H352 H 0.78987 0.83857 0.27434 0.0
H353 H 0.76173 0.79033 0.31431 0.0
H354 H 0.70636 0.74365 0.32945 0.0
C355 C 0.75612 0.6737 0.43858 0.0
C356 C 0.77737 0.65039 0.34011 0.0
C357 C 0.77845 0.68585 0.47261 0.0
C358 C 0.78361 0.80584 0.26428 0.0
C359 C 0.76711 0.77798 0.28721 0.0
C360 C 0.72597 0.71726 0.33179 0.0
C361 C 0.77833 0.66307 0.4083 0.0
C362 C 0.7593 0.66827 0.37054 0.0
C363 C 0.76088 0.73468 0.27644 0.0
C364 C 0.75114 0.70513 0.30401 0.0
H365 H 0.87867 0.66609 0.45195 0.0
H366 H 0.84111 0.6486 0.39263 0.0
H367 H 0.71474 0.71385 0.38692 0.0
H368 H 0.79416 0.73629 0.19171 0.0
H369 H 0.76531 0.68719 0.23212 0.0
C370 C 0.32977 0.78646 0.7684 0.0
C371 C 0.28587 0.7739 0.762 0.0
C372 C 0.35506 0.77114 0.79673 0.0
C373 C 0.37572 0.77265 0.87793 0.0
H374 H 0.35002 0.66828 0.92016 0.0
C375 C 0.35594 0.78469 1.02499 0.0
C376 C 0.31498 0.76727 1.03007 0.0
C377 C 0.37673 0.77004 0.99534 0.0
C378 C 0.35799 0.69757 0.90882 0.0
H379 H 0.23519 0.73242 0.77829 0.0
H380 H 0.27892 0.70597 0.82728 0.0
H381 H 0.34036 0.67046 0.85427 0.0
H382 H 0.2674 0.71609 1.01177 0.0
H383 H 0.30166 0.69267 0.95899 0.0
H384 H 0.38886 0.80117 0.9318 0.0
C385 C 0.29414 0.72727 0.81034 0.0
C386 C 0.35268 0.6987 0.87104 0.0
C387 C 0.26886 0.7427 0.78222 0.0
C388 C 0.29808 0.73137 1.00776 0.0
C389 C 0.31837 0.71735 0.9777 0.0
C390 C 0.38055 0.77165 0.91557 0.0
C391 C 0.33695 0.74288 0.81909 0.0
C392 C 0.3584 0.73703 0.85551 0.0
C393 C 0.35647 0.73852 0.96964 0.0
C394 C 0.36838 0.73489 0.9316 0.0
H395 H 0.34414 0.80961 0.75263 0.0
H396 H 0.38809 0.78338 0.80258 0.0
H397 H 0.38061 0.80272 0.86694 0.0
H398 H 0.37041 0.81204 1.04185 0.0
H399 H 0.40686 0.78606 0.99081 0.0
C400 C 0.88487 0.0304 0.98872 0.0
C401 C 0.87386 1.00102 1.01333 0.0
C402 C 0.89887 1.01736 0.95455 0.0
C403 C 0.9025 0.92035 0.88844 0.0
H404 H 0.9873 0.98888 0.84625 0.0
C405 C 0.95461 0.87066 0.74412 0.0
C406 C 0.99661 0.88156 0.73609 0.0
C407 C 0.93935 0.88612 0.77694 0.0
C408 C 0.96387 0.96887 0.85754 0.0
H409 H 0.86903 0.9342 1.01983 0.0
H410 H 0.89287 0.91198 0.96162 0.0
H411 H 0.96182 1.01369 0.90376 0.0
H412 H 0.05525 0.9179 0.75768 0.0
H413 H 1.0293 0.94393 0.81467 0.0
H414 H 0.90534 0.875 0.84309 0.0
C415 C 0.89036 0.94522 0.96805 0.0
C416 C 0.94863 0.98359 0.89067 0.0
C417 C 0.87665 0.95819 1.00201 0.0
C418 C 1.02272 0.90856 0.76241 0.0
C419 C 1.00752 0.92393 0.79533 0.0
C420 C 0.91776 0.90565 0.85545 0.0
C421 C 0.90206 0.97437 0.94347 0.0
C422 C 0.91769 0.95956 0.90704 0.0
C423 C 0.96541 0.91312 0.80344 0.0
C424 C 0.94889 0.92944 0.83913 0.0
H425 H 0.88379 0.06367 0.99621 0.0
H426 H 0.90708 0.0412 0.93679 0.0
H427 H 0.87832 0.9007 0.8992 0.0
H428 H 0.93309 0.85032 0.72479 0.0
H429 H 0.90657 0.87723 0.78111 0.0
C430 C 0.19201 0.92753 0.26125 0.0
C431 C 0.19155 0.96995 0.25337 0.0
C432 C 0.17785 0.91392 0.2937 0.0
C433 C 0.10718 0.93854 0.3668 0.0
H434 H 0.17426 0.86354 0.42159 0.0
C435 C 0.04445 0.85968 0.4929 0.0
C436 C 0.07438 0.8538 0.5226 0.0
C437 C 0.05763 0.87341 0.45996 0.0
C438 C 0.15492 0.88463 0.40699 0.0
H439 H 0.17465 0.03098 0.2745 0.0
H440 H 0.14868 1.00703 0.33049 0.0
H441 H 0.19912 0.88885 0.36632 0.0
H442 H 0.1424 0.85825 0.53961 0.0
H443 H 0.16505 0.88137 0.48306 0.0
H444 H 0.06214 0.93309 0.4066 0.0
C445 C 0.16066 0.98429 0.3115 0.0
C446 C 0.16922 0.89902 0.37481 0.0
C447 C 0.17588 0.99817 0.27933 0.0
C448 C 0.11801 0.86173 0.51767 0.0
C449 C 0.13116 0.87506 0.48477 0.0
C450 C 0.0923 0.92328 0.39854 0.0
C451 C 0.16155 0.94186 0.31945 0.0
C452 C 0.1459 0.92659 0.35417 0.0
C453 C 0.10138 0.88143 0.4551 0.0
C454 C 0.11616 0.89649 0.41979 0.0
H455 H 0.20373 0.90457 0.2423 0.0
H456 H 0.17897 0.88104 0.29832 0.0
H457 H 0.0878 0.95921 0.3517 0.0
H458 H 1.01057 0.85443 0.49527 0.0
H459 H 0.03328 0.87744 0.43817 0.0
C460 C 0.07679 0.17641 0.79126 0.0
C461 C 0.10338 0.17697 0.76265 0.0
C462 C 0.0903 0.16073 0.82484 0.0
C463 C 0.16608 0.08893 0.86774 0.0
H464 H 0.14762 0.14921 0.95905 0.0
C465 C 0.1991 1.01714 1.00869 0.0
C466 C 0.21624 0.04406 1.0394 0.0
C467 C 0.18596 0.033 0.97513 0.0
C468 C 0.15315 0.1317 0.93395 0.0
H469 H 0.16539 0.16023 0.7479 0.0
H470 H 0.18817 0.13208 0.80547 0.0
H471 H 0.12294 0.17649 0.90154 0.0
H472 H 0.23252 0.1097 1.05757 0.0
H473 H 0.20979 0.137 0.99976 0.0
H474 H 0.19564 0.04378 0.90003 0.0
C475 C 0.15688 0.14421 0.80215 0.0
C476 C 0.13862 0.14739 0.90068 0.0
C477 C 0.1438 0.16072 0.76895 0.0
C478 C 0.21995 0.08752 1.03489 0.0
C479 C 0.20639 0.1034 1.0015 0.0
C480 C 0.17968 0.07271 0.90099 0.0
C481 C 0.13055 0.14401 0.83092 0.0
C482 C 0.14507 0.12653 0.86682 0.0
C483 C 0.18893 0.07655 0.97084 0.0
C484 C 0.17376 0.09381 0.93491 0.0
H485 H 0.04548 0.18848 0.78786 0.0
H486 H 0.06876 0.16107 0.84593 0.0
H487 H 0.17163 0.07156 0.84255 0.0
H488 H 0.195 0.98361 1.01068 0.0
H489 H 0.17236 1.01097 0.9527 0.0
C490 C 0.92506 0.0531 0.26367 0.0
C491 C 0.89723 0.07538 0.24148 0.0
C492 C 0.94037 0.06888 0.2996 0.0
C493 C 0.9206 0.1493 0.37591 0.0
H494 H 0.03426 0.1266 0.4153 0.0
C495 C 0.98128 0.19355 0.52964 0.0
C496 C 1.02502 0.20509 0.54006 0.0
C497 C 0.96618 0.17875 0.4935 0.0
C498 C 1.00253 0.13373 0.4049 0.0
H499 H 0.86406 0.13251 0.24099 0.0
H500 H 0.89063 0.15996 0.30295 0.0
H501 H 1.00763 0.09951 0.3534 0.0
H502 H 0.08686 0.20998 0.51911 0.0
H503 H 0.06065 0.18523 0.45626 0.0
H504 H 0.91571 0.18405 0.42715 0.0
C505 C 0.90038 0.12979 0.29286 0.0
C506 C 0.98684 0.11753 0.36915 0.0
C507 C 0.88511 0.11401 0.25689 0.0
C508 C 0.05295 0.20186 0.51253 0.0
C509 C 0.03781 0.18707 0.47625 0.0
C510 C 0.9362 0.16532 0.41169 0.0
C511 C 0.92856 0.1077 0.31504 0.0
C512 C 0.94549 0.12498 0.35375 0.0
C513 C 0.99405 0.17491 0.46594 0.0
C514 C 0.97754 0.15794 0.42708 0.0
H515 H 0.93537 0.02328 0.25324 0.0
H516 H 0.96128 0.05018 0.3154 0.0
H517 H 0.8885 0.15567 0.36585 0.0
H518 H 0.95849 0.19474 0.54973 0.0
H519 H 0.93249 0.16918 0.48751 0.0
loop_
_geom_bond_atom_site_label_1
_geom_bond_atom_site_label_2
_geom_bond_distance
_geom_bond_site_symmetry_2
_ccdc_geom_bond_type
Dy0 O3 2.307 . S
Dy0 O5 2.395 1_554 S
Dy0 O6 2.379 1_554 S
Dy0 O8 2.339 . S
Dy0 O10 2.298 1_564 S
Dy0 O14 2.275 1_565 S
Dy0 C22 2.738 1_554 S
Dy1 O4 2.298 . S
Dy1 O7 2.275 . S
Dy1 O9 2.307 . S
Dy1 O11 2.395 . S
Dy1 O12 2.379 . S
Dy1 O15 2.339 . S
Dy1 C31 2.738 . S
C2 O14 1.254 . S
C2 O15 1.257 . S
O3 Dy0 2.307 . S
O3 C13 1.266 . S
O4 Dy1 2.298 . S
O4 C13 1.236 1_545 S
O5 Dy0 2.395 1_556 S
O5 C22 1.255 . S
O6 Dy0 2.379 1_556 S
O6 C22 1.249 . S
O7 Dy1 2.275 . S
O7 C23 1.254 . S
O8 Dy0 2.339 . S
O8 C23 1.257 1_565 S
O9 Dy1 2.307 . S
O9 C24 1.266 1_554 S
O10 Dy0 2.298 1_546 S
O10 C24 1.236 . S
O11 Dy1 2.395 . S
O11 C31 1.255 . S
O12 Dy1 2.379 . S
O12 C31 1.249 . S
C13 O3 1.266 . S
C13 O4 1.236 1_565 S
O14 Dy0 2.275 1_545 S
O14 C2 1.254 . S
O15 Dy1 2.339 . S
O15 C2 1.257 . S
C16 C19 1.344 . S
C16 C20 1.328 . S
C16 C22 1.516 . S
C17 C18 1.304 . S
C17 C21 1.323 . S
C18 C17 1.304 . S
C18 C19 1.371 . S
C18 H32 0.930 . S
C19 C16 1.344 . S
C19 C18 1.371 . S
C19 H33 0.931 . S
C20 C16 1.328 . S
C20 C21 1.433 . S
C20 H34 0.931 . S
C21 C17 1.323 . S
C21 C20 1.433 . S
C21 H35 0.933 . S
C22 Dy0 2.738 1_556 S
C22 O5 1.255 . S
C22 O6 1.249 . S
C22 C16 1.516 . S
C23 O7 1.254 . S
C23 O8 1.257 1_545 S
C24 O9 1.266 1_556 S
C24 O10 1.236 . S
C25 C28 1.344 . S
C25 C29 1.328 . S
C25 C31 1.516 . S
C26 C27 1.304 . S
C26 C30 1.323 . S
C27 C26 1.304 . S
C27 C28 1.371 . S
C27 H36 0.930 . S
C28 C25 1.344 . S
C28 C27 1.371 . S
C28 H37 0.931 . S
C29 C25 1.328 . S
C29 C30 1.433 . S
C29 H38 0.931 . S
C30 C26 1.323 . S
C30 C29 1.433 . S
C30 H39 0.933 . S
C31 Dy1 2.738 . S
C31 O11 1.255 . S
C31 O12 1.249 . S
C31 C25 1.516 . S
H32 C18 0.930 . S
H33 C19 0.931 . S
H34 C20 0.931 . S
H35 C21 0.933 . S
H36 C27 0.930 . S
H37 C28 0.931 . S
H38 C29 0.931 . S
H39 C30 0.933 . S
Dy40 O43 2.307 . S
Dy40 O45 2.395 . S
Dy40 O46 2.379 . S
Dy40 O48 2.339 . S
Dy40 O50 2.298 . S
Dy40 O54 2.275 . S
Dy40 C62 2.738 . S
Dy41 O44 2.298 1_655 S
Dy41 O47 2.275 1_655 S
Dy41 O49 2.307 . S
Dy41 O51 2.395 . S
Dy41 O52 2.379 . S
Dy41 O55 2.339 . S
Dy41 C71 2.738 . S
C42 O54 1.254 . S
C42 O55 1.257 1_455 S
O43 Dy40 2.307 . S
O43 C53 1.266 . S
O44 Dy41 2.298 1_455 S
O44 C53 1.236 . S
O45 Dy40 2.395 . S
O45 C62 1.255 . S
O46 Dy40 2.379 . S
O46 C62 1.249 . S
O47 Dy41 2.275 1_455 S
O47 C63 1.254 . S
O48 Dy40 2.339 . S
O48 C63 1.257 . S
O49 Dy41 2.307 . S
O49 C64 1.266 . S
O50 Dy40 2.298 . S
O50 C64 1.236 1_455 S
O51 Dy41 2.395 . S
O51 C71 1.255 . S
O52 Dy41 2.379 . S
O52 C71 1.249 . S
C53 O43 1.266 . S
C53 O44 1.236 . S
O54 Dy40 2.275 . S
O54 C42 1.254 . S
O55 Dy41 2.339 . S
O55 C42 1.257 1_655 S
C56 C59 1.344 . S
C56 C60 1.328 . S
C56 C62 1.516 . S
C57 C58 1.304 . S
C57 C61 1.323 . S
C58 C57 1.304 . S
C58 C59 1.371 . S
C58 H72 0.930 . S
C59 C56 1.344 . S
C59 C58 1.371 . S
C59 H73 0.931 . S
C60 C56 1.328 . S
C60 C61 1.433 . S
C60 H74 0.931 . S
C61 C57 1.323 . S
C61 C60 1.433 . S
C61 H75 0.933 . S
C62 Dy40 2.738 . S
C62 O45 1.255 . S
C62 O46 1.249 . S
C62 C56 1.516 . S
C63 O47 1.254 . S
C63 O48 1.257 . S
C64 O49 1.266 . S
C64 O50 1.236 1_655 S
C65 C68 1.344 . S
C65 C69 1.328 . S
C65 C71 1.516 . S
C66 C67 1.304 . S
C66 C70 1.323 . S
C67 C66 1.304 . S
C67 C68 1.371 . S
C67 H76 0.930 . S
C68 C65 1.344 . S
C68 C67 1.371 . S
C68 H77 0.931 . S
C69 C65 1.328 . S
C69 C70 1.433 . S
C69 H78 0.931 . S
C70 C66 1.323 . S
C70 C69 1.433 . S
C70 H79 0.933 . S
C71 Dy41 2.738 . S
C71 O51 1.255 . S
C71 O52 1.249 . S
C71 C65 1.516 . S
H72 C58 0.930 . S
H73 C59 0.931 . S
H74 C60 0.931 . S
H75 C61 0.933 . S
H76 C67 0.930 . S
H77 C68 0.931 . S
H78 C69 0.931 . S
H79 C70 0.933 . S
Dy80 O83 2.307 1_554 S
Dy80 O85 2.395 . S
Dy80 O86 2.379 . S
Dy80 O88 2.339 . S
Dy80 O90 2.298 1_565 S
Dy80 O94 2.275 . S
Dy80 C102 2.738 . S
Dy81 O84 2.298 1_545 S
Dy81 O87 2.275 1_556 S
Dy81 O89 2.307 1_556 S
Dy81 O91 2.395 . S
Dy81 O92 2.379 . S
Dy81 O95 2.339 . S
Dy81 C111 2.738 . S
C82 O94 1.254 1_545 S
C82 O95 1.257 1_554 S
O83 Dy80 2.307 1_556 S
O83 C93 1.266 . S
O84 Dy81 2.298 1_565 S
O84 C93 1.236 . S
O85 Dy80 2.395 . S
O85 C102 1.255 . S
O86 Dy80 2.379 . S
O86 C102 1.249 . S
O87 Dy81 2.275 1_554 S
O87 C103 1.254 1_545 S
O88 Dy80 2.339 . S
O88 C103 1.257 . S
O89 Dy81 2.307 1_554 S
O89 C104 1.266 . S
O90 Dy80 2.298 1_545 S
O90 C104 1.236 . S
O91 Dy81 2.395 . S
O91 C111 1.255 . S
O92 Dy81 2.379 . S
O92 C111 1.249 . S
C93 O83 1.266 . S
C93 O84 1.236 . S
O94 Dy80 2.275 . S
O94 C82 1.254 1_565 S
O95 Dy81 2.339 . S
O95 C82 1.257 1_556 S
C96 C99 1.344 . S
C96 C100 1.328 . S
C96 C102 1.516 . S
C97 C98 1.304 . S
C97 C101 1.323 . S
C98 C97 1.304 . S
C98 C99 1.371 . S
C98 H112 0.930 . S
C99 C96 1.344 . S
C99 C98 1.371 . S
C99 H113 0.931 . S
C100 C96 1.328 . S
C100 C101 1.433 . S
C100 H114 0.931 . S
C101 C97 1.323 . S
C101 C100 1.433 . S
C101 H115 0.933 . S
C102 Dy80 2.738 . S
C102 O85 1.255 . S
C102 O86 1.249 . S
C102 C96 1.516 . S
C103 O87 1.254 1_565 S
C103 O88 1.257 . S
C104 O89 1.266 . S
C104 O90 1.236 . S
C105 C108 1.344 . S
C105 C109 1.328 . S
C105 C111 1.516 . S
C106 C107 1.304 . S
C106 C110 1.323 . S
C107 C106 1.304 . S
C107 C108 1.371 . S
C107 H116 0.930 . S
C108 C105 1.344 . S
C108 C107 1.371 . S
C108 H117 0.931 . S
C109 C105 1.328 . S
C109 C110 1.433 . S
C109 H118 0.931 . S
C110 C106 1.323 . S
C110 C109 1.433 . S
C110 H119 0.933 . S
C111 Dy81 2.738 . S
C111 O91 1.255 . S
C111 O92 1.249 . S
C111 C105 1.516 . S
H112 C98 0.930 . S
H113 C99 0.931 . S
H114 C100 0.931 . S
H115 C101 0.933 . S
H116 C107 0.930 . S
H117 C108 0.931 . S
H118 C109 0.931 . S
H119 C110 0.933 . S
Dy120 O123 2.307 . S
Dy120 O125 2.395 . S
Dy120 O126 2.379 . S
Dy120 O128 2.339 . S
Dy120 O130 2.298 1_455 S
Dy120 O134 2.275 . S
Dy120 C142 2.738 . S
Dy121 O124 2.298 1_655 S
Dy121 O127 2.275 . S
Dy121 O129 2.307 . S
Dy121 O131 2.395 . S
Dy121 O132 2.379 . S
Dy121 O135 2.339 . S
Dy121 C151 2.738 . S
C122 O134 1.254 1_655 S
C122 O135 1.257 . S
O123 Dy120 2.307 . S
O123 C133 1.266 . S
O124 Dy121 2.298 1_455 S
O124 C133 1.236 . S
O125 Dy120 2.395 . S
O125 C142 1.255 . S
O126 Dy120 2.379 . S
O126 C142 1.249 . S
O127 Dy121 2.275 . S
O127 C143 1.254 1_655 S
O128 Dy120 2.339 . S
O128 C143 1.257 . S
O129 Dy121 2.307 . S
O129 C144 1.266 . S
O130 Dy120 2.298 1_655 S
O130 C144 1.236 . S
O131 Dy121 2.395 . S
O131 C151 1.255 . S
O132 Dy121 2.379 . S
O132 C151 1.249 . S
C133 O123 1.266 . S
C133 O124 1.236 . S
O134 Dy120 2.275 . S
O134 C122 1.254 1_455 S
O135 Dy121 2.339 . S
O135 C122 1.257 . S
C136 C139 1.344 . S
C136 C140 1.328 . S
C136 C142 1.516 . S
C137 C138 1.304 . S
C137 C141 1.323 . S
C138 C137 1.304 . S
C138 C139 1.371 . S
C138 H152 0.930 . S
C139 C136 1.344 . S
C139 C138 1.371 . S
C139 H153 0.931 . S
C140 C136 1.328 . S
C140 C141 1.433 . S
C140 H154 0.931 . S
C141 C137 1.323 . S
C141 C140 1.433 . S
C141 H155 0.933 . S
C142 Dy120 2.738 . S
C142 O125 1.255 . S
C142 O126 1.249 . S
C142 C136 1.516 . S
C143 O127 1.254 1_455 S
C143 O128 1.257 . S
C144 O129 1.266 . S
C144 O130 1.236 . S
C145 C148 1.344 . S
C145 C149 1.328 . S
C145 C151 1.516 . S
C146 C147 1.304 . S
C146 C150 1.323 . S
C147 C146 1.304 . S
C147 C148 1.371 . S
C147 H156 0.930 . S
C148 C145 1.344 . S
C148 C147 1.371 . S
C148 H157 0.931 . S
C149 C145 1.328 . S
C149 C150 1.433 . S
C149 H158 0.931 . S
C150 C146 1.323 . S
C150 C149 1.433 . S
C150 H159 0.933 . S
C151 Dy121 2.738 . S
C151 O131 1.255 . S
C151 O132 1.249 . S
C151 C145 1.516 . S
H152 C138 0.930 . S
H153 C139 0.931 . S
H154 C140 0.931 . S
H155 C141 0.933 . S
H156 C147 0.930 . S
H157 C148 0.931 . S
H158 C149 0.931 . S
H159 C150 0.933 . S
C160 C161 1.351 . S
C160 C162 1.327 . S
C160 H185 0.950 1_554 S
C161 C160 1.351 . S
C161 C177 1.347 1_565 S
C162 C160 1.327 . S
C162 C181 1.429 1_565 S
C162 H186 0.950 . S
C163 C180 1.574 1_655 S
C163 C182 1.368 . S
C163 H187 0.949 . S
H164 C168 0.949 . S
C165 C166 1.349 . S
C165 C167 1.327 . S
C165 H188 0.950 . S
C166 C165 1.349 . S
C166 C178 1.349 1_545 S
C167 C165 1.327 . S
C167 C183 1.429 . S
C167 H189 0.950 . S
C168 H164 0.949 . S
C168 C176 1.574 1_455 S
C168 C184 1.368 1_565 S
H169 C177 0.950 . S
H170 C175 0.950 . S
H171 C176 0.949 . S
H172 C178 0.950 . S
H173 C179 0.950 . S
H174 C180 0.949 . S
C175 H170 0.950 . S
C175 C177 1.327 . S
C175 C181 1.429 . S
C176 C168 1.574 1_655 S
C176 H171 0.949 . S
C176 C182 1.368 1_565 S
C177 C161 1.347 1_545 S
C177 H169 0.950 . S
C177 C175 1.327 . S
C178 C166 1.349 1_565 S
C178 H172 0.950 . S
C178 C179 1.327 . S
C179 H173 0.950 . S
C179 C178 1.327 . S
C179 C183 1.429 1_565 S
C180 C163 1.574 1_455 S
C180 H174 0.949 . S
C180 C184 1.368 . S
C181 C162 1.429 1_545 S
C181 C175 1.429 . S
C181 C182 1.523 . S
C182 C163 1.368 . S
C182 C176 1.368 1_545 S
C182 C181 1.523 . S
C183 C167 1.429 . S
C183 C179 1.429 1_545 S
C183 C184 1.523 . S
C184 C168 1.368 1_545 S
C184 C180 1.368 . S
C184 C183 1.523 . S
H185 C160 0.950 1_556 S
H186 C162 0.950 . S
H187 C163 0.949 . S
H188 C165 0.950 . S
H189 C167 0.950 . S
C190 C191 1.341 1_455 S
C190 C192 1.327 . S
C190 H215 0.950 . S
C191 C190 1.341 1_655 S
C191 C207 1.357 . S
C192 C190 1.327 . S
C192 C211 1.429 . S
C192 H216 0.950 . S
C193 C210 1.574 1_565 S
C193 C212 1.368 1_655 S
C193 H217 0.949 . S
H194 C198 0.949 . S
C195 C196 1.349 1_655 S
C195 C197 1.327 . S
C195 H218 0.950 . S
C196 C195 1.349 1_455 S
C196 C208 1.349 . S
C197 C195 1.327 . S
C197 C213 1.429 1_655 S
C197 H219 0.950 . S
C198 H194 0.949 . S
C198 C206 1.574 1_545 S
C198 C214 1.368 . S
H199 C207 0.950 . S
H200 C205 0.950 . S
H201 C206 0.949 . S
H202 C208 0.950 . S
H203 C209 0.950 . S
H204 C210 0.949 . S
C205 H200 0.950 . S
C205 C207 1.327 . S
C205 C211 1.429 1_655 S
C206 C198 1.574 1_565 S
C206 H201 0.949 . S
C206 C212 1.368 . S
C207 C191 1.357 . S
C207 H199 0.950 . S
C207 C205 1.327 . S
C208 C196 1.349 . S
C208 H202 0.950 . S
C208 C209 1.327 . S
C209 H203 0.950 . S
C209 C208 1.327 . S
C209 C213 1.429 . S
C210 C193 1.574 1_545 S
C210 H204 0.949 . S
C210 C214 1.368 1_655 S
C211 C192 1.429 . S
C211 C205 1.429 1_455 S
C211 C212 1.523 . S
C212 C193 1.368 1_455 S
C212 C206 1.368 . S
C212 C211 1.523 . S
C213 C197 1.429 1_455 S
C213 C209 1.429 . S
C213 C214 1.523 . S
C214 C198 1.368 . S
C214 C210 1.368 1_455 S
C214 C213 1.523 . S
H215 C190 0.950 . S
H216 C192 0.950 . S
H217 C193 0.949 . S
H218 C195 0.950 . S
H219 C197 0.950 . S
C220 C221 1.349 . S
C220 C222 1.327 . S
C220 H245 0.950 . S
C221 C220 1.349 . S
C221 C237 1.349 1_564 S
C222 C220 1.327 . S
C222 C241 1.429 1_565 S
C222 H246 0.950 . S
C223 C240 1.574 1_556 S
C223 C242 1.368 1_556 S
C223 H247 0.949 . S
H224 C228 0.949 . S
C225 C226 1.349 . S
C225 C227 1.327 . S
C225 H248 0.937 1_554 S
C226 C225 1.349 . S
C226 C238 1.349 . S
C227 C225 1.327 . S
C227 C243 1.429 . S
C227 H249 0.950 1_554 S
C228 H224 0.949 . S
C228 C236 1.574 . S
C228 C244 1.368 1_565 S
H229 C237 0.950 . S
H230 C235 0.950 . S
H231 C236 0.949 . S
H232 C238 0.950 1_565 S
H233 C239 0.950 . S
H234 C240 0.949 1_556 S
C235 H230 0.950 . S
C235 C237 1.327 . S
C235 C241 1.429 1_556 S
C236 C228 1.574 . S
C236 H231 0.949 . S
C236 C242 1.368 1_565 S
C237 C221 1.349 1_546 S
C237 H229 0.950 . S
C237 C235 1.327 . S
C238 C226 1.349 . S
C238 H232 0.950 1_545 S
C238 C239 1.327 1_545 S
C239 H233 0.950 . S
C239 C238 1.327 1_565 S
C239 C243 1.429 1_565 S
C240 C223 1.574 1_554 S
C240 H234 0.949 1_554 S
C240 C244 1.368 . S
C241 C222 1.429 1_545 S
C241 C235 1.429 1_554 S
C241 C242 1.523 . S
C242 C223 1.368 1_554 S
C242 C236 1.368 1_545 S
C242 C241 1.523 . S
C243 C227 1.429 . S
C243 C239 1.429 1_545 S
C243 C244 1.523 . S
C244 C228 1.368 1_545 S
C244 C240 1.368 . S
C244 C243 1.523 . S
H245 C220 0.950 . S
H246 C222 0.950 . S
H247 C223 0.949 . S
H248 C225 0.937 1_556 S
H249 C227 0.950 1_556 S
C250 C251 1.349 . S
C250 C252 1.327 . S
C250 H275 0.950 . S
C251 C250 1.349 . S
C251 C267 1.349 . S
C252 C250 1.327 . S
C252 C271 1.429 . S
C252 H276 0.950 . S
C253 C270 1.574 . S
C253 C272 1.368 . S
C253 H277 0.949 . S
H254 C258 0.949 . S
C255 C256 1.350 1_655 S
C255 C257 1.327 1_655 S
C255 H278 0.950 . S
C256 C255 1.350 1_455 S
C256 C268 1.349 . S
C257 C255 1.327 1_455 S
C257 C273 1.429 . S
C257 H279 0.950 1_455 S
C258 H254 0.949 . S
C258 C266 1.574 . S
C258 C274 1.368 . S
H259 C267 0.950 . S
H260 C265 0.950 . S
H261 C266 0.949 . S
H262 C268 0.950 . S
H263 C269 0.950 . S
H264 C270 0.949 . S
C265 H260 0.950 . S
C265 C267 1.327 . S
C265 C271 1.429 . S
C266 C258 1.574 . S
C266 H261 0.949 . S
C266 C272 1.368 . S
C267 C251 1.349 . S
C267 H259 0.950 . S
C267 C265 1.327 . S
C268 C256 1.349 . S
C268 H262 0.950 . S
C268 C269 1.327 . S
C269 H263 0.950 . S
C269 C268 1.327 . S
C269 C273 1.429 . S
C270 C253 1.574 . S
C270 H264 0.949 . S
C270 C274 1.368 . S
C271 C252 1.429 . S
C271 C265 1.429 . S
C271 C272 1.523 . S
C272 C253 1.368 . S
C272 C266 1.368 . S
C272 C271 1.523 . S
C273 C257 1.429 . S
C273 C269 1.429 . S
C273 C274 1.523 . S
C274 C258 1.368 . S
C274 C270 1.368 . S
C274 C273 1.523 . S
H275 C250 0.950 . S
H276 C252 0.950 . S
H277 C253 0.949 . S
H278 C255 0.950 . S
H279 C257 0.950 1_655 S
C280 C281 1.349 . S
C280 C282 1.327 . S
C280 H305 0.950 . S
C281 C280 1.349 . S
C281 C297 1.349 . S
C282 C280 1.327 . S
C282 C301 1.429 . S
C282 H306 0.950 . S
C283 C300 1.574 . S
C283 C302 1.368 . S
C283 H307 0.949 . S
H284 C288 0.949 . S
C285 C286 1.349 . S
C285 C287 1.327 . S
C285 H308 0.950 . S
C286 C285 1.349 . S
C286 C298 1.349 . S
C287 C285 1.327 . S
C287 C303 1.429 . S
C287 H309 0.950 . S
C288 H284 0.949 . S
C288 C296 1.574 . S
C288 C304 1.368 . S
H289 C297 0.950 . S
H290 C295 0.950 . S
H291 C296 0.949 . S
H292 C298 0.950 . S
H293 C299 0.950 . S
H294 C300 0.949 . S
C295 H290 0.950 . S
C295 C297 1.327 . S
C295 C301 1.429 . S
C296 C288 1.574 . S
C296 H291 0.949 . S
C296 C302 1.368 . S
C297 C281 1.349 . S
C297 H289 0.950 . S
C297 C295 1.327 . S
C298 C286 1.349 . S
C298 H292 0.950 . S
C298 C299 1.327 . S
C299 H293 0.950 . S
C299 C298 1.327 . S
C299 C303 1.429 . S
C300 C283 1.574 . S
C300 H294 0.949 . S
C300 C304 1.368 . S
C301 C282 1.429 . S
C301 C295 1.429 . S
C301 C302 1.523 . S
C302 C283 1.368 . S
C302 C296 1.368 . S
C302 C301 1.523 . S
C303 C287 1.429 . S
C303 C299 1.429 . S
C303 C304 1.523 . S
C304 C288 1.368 . S
C304 C300 1.368 . S
C304 C303 1.523 . S
H305 C280 0.950 . S
H306 C282 0.950 . S
H307 C283 0.949 . S
H308 C285 0.950 . S
H309 C287 0.950 . S
C310 C311 1.349 . S
C310 C312 1.327 . S
C310 H335 0.950 . S
C311 C310 1.349 . S
C311 C327 1.349 . S
C312 C310 1.327 . S
C312 C331 1.429 . S
C312 H336 0.950 . S
C313 C330 1.574 . S
C313 C332 1.368 . S
C313 H337 0.949 . S
H314 C318 0.949 . S
C315 C316 1.349 . S
C315 C317 1.327 . S
C315 H338 0.950 . S
C316 C315 1.349 . S
C316 C328 1.349 . S
C317 C315 1.327 . S
C317 C333 1.429 . S
C317 H339 0.950 . S
C318 H314 0.949 . S
C318 C326 1.574 . S
C318 C334 1.368 . S
H319 C327 0.950 . S
H320 C325 0.950 . S
H321 C326 0.949 . S
H322 C328 0.950 . S
H323 C329 0.950 . S
H324 C330 0.949 . S
C325 H320 0.950 . S
C325 C327 1.327 . S
C325 C331 1.429 . S
C326 C318 1.574 . S
C326 H321 0.949 . S
C326 C332 1.368 . S
C327 C311 1.349 . S
C327 H319 0.950 . S
C327 C325 1.327 . S
C328 C316 1.349 . S
C328 H322 0.950 . S
C328 C329 1.327 . S
C329 H323 0.950 . S
C329 C328 1.327 . S
C329 C333 1.429 . S
C330 C313 1.574 . S
C330 H324 0.949 . S
C330 C334 1.368 . S
C331 C312 1.429 . S
C331 C325 1.429 . S
C331 C332 1.523 . S
C332 C313 1.368 . S
C332 C326 1.368 . S
C332 C331 1.523 . S
C333 C317 1.429 . S
C333 C329 1.429 . S
C333 C334 1.523 . S
C334 C318 1.368 . S
C334 C330 1.368 . S
C334 C333 1.523 . S
H335 C310 0.950 . S
H336 C312 0.950 . S
H337 C313 0.949 . S
H338 C315 0.950 . S
H339 C317 0.950 . S
C340 C341 1.349 . S
C340 C342 1.327 . S
C340 H365 0.950 . S
C341 C340 1.349 . S
C341 C357 1.349 . S
C342 C340 1.327 . S
C342 C361 1.429 . S
C342 H366 0.950 . S
C343 C360 1.574 . S
C343 C362 1.368 . S
C343 H367 0.949 . S
H344 C348 0.949 . S
C345 C346 1.349 . S
C345 C347 1.327 . S
C345 H368 0.950 . S
C346 C345 1.349 . S
C346 C358 1.349 . S
C347 C345 1.327 . S
C347 C363 1.429 . S
C347 H369 0.950 . S
C348 H344 0.949 . S
C348 C356 1.574 . S
C348 C364 1.368 . S
H349 C357 0.950 . S
H350 C355 0.950 . S
H351 C356 0.949 . S
H352 C358 0.950 . S
H353 C359 0.950 . S
H354 C360 0.949 . S
C355 H350 0.950 . S
C355 C357 1.327 . S
C355 C361 1.429 . S
C356 C348 1.574 . S
C356 H351 0.949 . S
C356 C362 1.368 . S
C357 C341 1.349 . S
C357 H349 0.950 . S
C357 C355 1.327 . S
C358 C346 1.349 . S
C358 H352 0.950 . S
C358 C359 1.327 . S
C359 H353 0.950 . S
C359 C358 1.327 . S
C359 C363 1.429 . S
C360 C343 1.574 . S
C360 H354 0.949 . S
C360 C364 1.368 . S
C361 C342 1.429 . S
C361 C355 1.429 . S
C361 C362 1.523 . S
C362 C343 1.368 . S
C362 C356 1.368 . S
C362 C361 1.523 . S
C363 C347 1.429 . S
C363 C359 1.429 . S
C363 C364 1.523 . S
C364 C348 1.368 . S
C364 C360 1.368 . S
C364 C363 1.523 . S
H365 C340 0.950 . S
H366 C342 0.950 . S
H367 C343 0.949 . S
H368 C345 0.950 . S
H369 C347 0.950 . S
C370 C371 1.349 . S
C370 C372 1.327 . S
C370 H395 0.950 . S
C371 C370 1.349 . S
C371 C387 1.349 . S
C372 C370 1.327 . S
C372 C391 1.429 . S
C372 H396 0.950 . S
C373 C390 1.574 . S
C373 C392 1.368 . S
C373 H397 0.949 . S
H374 C378 0.949 . S
C375 C376 1.349 . S
C375 C377 1.327 . S
C375 H398 0.950 . S
C376 C375 1.349 . S
C376 C388 1.349 . S
C377 C375 1.327 . S
C377 C393 1.429 . S
C377 H399 0.950 . S
C378 H374 0.949 . S
C378 C386 1.574 . S
C378 C394 1.368 . S
H379 C387 0.950 . S
H380 C385 0.950 . S
H381 C386 0.949 . S
H382 C388 0.950 . S
H383 C389 0.950 . S
H384 C390 0.949 . S
C385 H380 0.950 . S
C385 C387 1.327 . S
C385 C391 1.429 . S
C386 C378 1.574 . S
C386 H381 0.949 . S
C386 C392 1.368 . S
C387 C371 1.349 . S
C387 H379 0.950 . S
C387 C385 1.327 . S
C388 C376 1.349 . S
C388 H382 0.950 . S
C388 C389 1.327 . S
C389 H383 0.950 . S
C389 C388 1.327 . S
C389 C393 1.429 . S
C390 C373 1.574 . S
C390 H384 0.949 . S
C390 C394 1.368 . S
C391 C372 1.429 . S
C391 C385 1.429 . S
C391 C392 1.523 . S
C392 C373 1.368 . S
C392 C386 1.368 . S
C392 C391 1.523 . S
C393 C377 1.429 . S
C393 C389 1.429 . S
C393 C394 1.523 . S
C394 C378 1.368 . S
C394 C390 1.368 . S
C394 C393 1.523 . S
H395 C370 0.950 . S
H396 C372 0.950 . S
H397 C373 0.949 . S
H398 C375 0.950 . S
H399 C377 0.950 . S
C400 C401 1.349 . S
C400 C402 1.327 . S
C400 H425 0.950 . S
C401 C400 1.349 . S
C401 C417 1.349 . S
C402 C400 1.327 . S
C402 C421 1.429 . S
C402 H426 0.950 . S
C403 C420 1.574 . S
C403 C422 1.368 . S
C403 H427 0.949 . S
H404 C408 0.949 . S
C405 C406 1.349 . S
C405 C407 1.327 . S
C405 H428 0.950 . S
C406 C405 1.349 . S
C406 C418 1.349 . S
C407 C405 1.327 . S
C407 C423 1.429 . S
C407 H429 0.950 . S
C408 H404 0.949 . S
C408 C416 1.574 . S
C408 C424 1.368 . S
H409 C417 0.950 . S
H410 C415 0.950 . S
H411 C416 0.949 . S
H412 C418 0.950 . S
H413 C419 0.950 . S
H414 C420 0.949 . S
C415 H410 0.950 . S
C415 C417 1.327 . S
C415 C421 1.429 . S
C416 C408 1.574 . S
C416 H411 0.949 . S
C416 C422 1.368 . S
C417 C401 1.349 . S
C417 H409 0.950 . S
C417 C415 1.327 . S
C418 C406 1.349 . S
C418 H412 0.950 . S
C418 C419 1.327 . S
C419 H413 0.950 . S
C419 C418 1.327 . S
C419 C423 1.429 . S
C420 C403 1.574 . S
C420 H414 0.949 . S
C420 C424 1.368 . S
C421 C402 1.429 . S
C421 C415 1.429 . S
C421 C422 1.523 . S
C422 C403 1.368 . S
C422 C416 1.368 . S
C422 C421 1.523 . S
C423 C407 1.429 . S
C423 C419 1.429 . S
C423 C424 1.523 . S
C424 C408 1.368 . S
C424 C420 1.368 . S
C424 C423 1.523 . S
H425 C400 0.950 . S
H426 C402 0.950 . S
H427 C403 0.949 . S
H428 C405 0.950 . S
H429 C407 0.950 . S
C430 C431 1.349 . S
C430 C432 1.327 . S
C430 H455 0.950 . S
C431 C430 1.349 . S
C431 C447 1.349 . S
C432 C430 1.327 . S
C432 C451 1.429 . S
C432 H456 0.950 . S
C433 C450 1.574 . S
C433 C452 1.368 . S
C433 H457 0.949 . S
H434 C438 0.949 . S
C435 C436 1.349 . S
C435 C437 1.327 . S
C435 H458 0.950 . S
C436 C435 1.349 . S
C436 C448 1.349 . S
C437 C435 1.327 . S
C437 C453 1.429 . S
C437 H459 0.950 . S
C438 H434 0.949 . S
C438 C446 1.574 . S
C438 C454 1.368 . S
H439 C447 0.950 . S
H440 C445 0.950 . S
H441 C446 0.949 . S
H442 C448 0.950 . S
H443 C449 0.950 . S
H444 C450 0.949 . S
C445 H440 0.950 . S
C445 C447 1.327 . S
C445 C451 1.429 . S
C446 C438 1.574 . S
C446 H441 0.949 . S
C446 C452 1.368 . S
C447 C431 1.349 . S
C447 H439 0.950 . S
C447 C445 1.327 . S
C448 C436 1.349 . S
C448 H442 0.950 . S
C448 C449 1.327 . S
C449 H443 0.950 . S
C449 C448 1.327 . S
C449 C453 1.429 . S
C450 C433 1.574 . S
C450 H444 0.949 . S
C450 C454 1.368 . S
C451 C432 1.429 . S
C451 C445 1.429 . S
C451 C452 1.523 . S
C452 C433 1.368 . S
C452 C446 1.368 . S
C452 C451 1.523 . S
C453 C437 1.429 . S
C453 C449 1.429 . S
C453 C454 1.523 . S
C454 C438 1.368 . S
C454 C450 1.368 . S
C454 C453 1.523 . S
H455 C430 0.950 . S
H456 C432 0.950 . S
H457 C433 0.949 . S
H458 C435 0.950 . S
H459 C437 0.950 . S
C460 C461 1.349 . S
C460 C462 1.327 . S
C460 H485 0.950 . S
C461 C460 1.349 . S
C461 C477 1.349 . S
C462 C460 1.327 . S
C462 C481 1.429 . S
C462 H486 0.950 . S
C463 C480 1.574 . S
C463 C482 1.368 . S
C463 H487 0.949 . S
H464 C468 0.949 . S
C465 C466 1.349 . S
C465 C467 1.327 . S
C465 H488 0.950 . S
C466 C465 1.349 . S
C466 C478 1.349 . S
C467 C465 1.327 . S
C467 C483 1.429 . S
C467 H489 0.950 . S
C468 H464 0.949 . S
C468 C476 1.574 . S
C468 C484 1.368 . S
H469 C477 0.950 . S
H470 C475 0.950 . S
H471 C476 0.949 . S
H472 C478 0.950 . S
H473 C479 0.950 . S
H474 C480 0.949 . S
C475 H470 0.950 . S
C475 C477 1.327 . S
C475 C481 1.429 . S
C476 C468 1.574 . S
C476 H471 0.949 . S
C476 C482 1.368 . S
C477 C461 1.349 . S
C477 H469 0.950 . S
C477 C475 1.327 . S
C478 C466 1.349 . S
C478 H472 0.950 . S
C478 C479 1.327 . S
C479 H473 0.950 . S
C479 C478 1.327 . S
C479 C483 1.429 . S
C480 C463 1.574 . S
C480 H474 0.949 . S
C480 C484 1.368 . S
C481 C462 1.429 . S
C481 C475 1.429 . S
C481 C482 1.523 . S
C482 C463 1.368 . S
C482 C476 1.368 . S
C482 C481 1.523 . S
C483 C467 1.429 . S
C483 C479 1.429 . S
C483 C484 1.523 . S
C484 C468 1.368 . S
C484 C480 1.368 . S
C484 C483 1.523 . S
H485 C460 0.950 . S
H486 C462 0.950 . S
H487 C463 0.949 . S
H488 C465 0.950 . S
H489 C467 0.950 . S
C490 C491 1.349 . S
C490 C492 1.327 . S
C490 H515 0.950 . S
C491 C490 1.349 . S
C491 C507 1.349 . S
C492 C490 1.327 . S
C492 C511 1.429 . S
C492 H516 0.950 . S
C493 C510 1.574 . S
C493 C512 1.368 . S
C493 H517 0.949 . S
H494 C498 0.949 . S
C495 C496 1.349 . S
C495 C497 1.327 . S
C495 H518 0.950 . S
C496 C495 1.349 . S
C496 C508 1.349 . S
C497 C495 1.327 . S
C497 C513 1.429 . S
C497 H519 0.950 . S
C498 H494 0.949 . S
C498 C506 1.574 . S
C498 C514 1.368 . S
H499 C507 0.950 . S
H500 C505 0.950 . S
H501 C506 0.949 . S
H502 C508 0.950 . S
H503 C509 0.950 . S
H504 C510 0.949 . S
C505 H500 0.950 . S
C505 C507 1.327 . S
C505 C511 1.429 . S
C506 C498 1.574 . S
C506 H501 0.949 . S
C506 C512 1.368 . S
C507 C491 1.349 . S
C507 H499 0.950 . S
C507 C505 1.327 . S
C508 C496 1.349 . S
C508 H502 0.950 . S
C508 C509 1.327 . S
C509 H503 0.950 . S
C509 C508 1.327 . S
C509 C513 1.429 . S
C510 C493 1.574 . S
C510 H504 0.949 . S
C510 C514 1.368 . S
C511 C492 1.429 . S
C511 C505 1.429 . S
C511 C512 1.523 . S
C512 C493 1.368 . S
C512 C506 1.368 . S
C512 C511 1.523 . S
C513 C497 1.429 . S
C513 C509 1.429 . S
C513 C514 1.523 . S
C514 C498 1.368 . S
C514 C510 1.368 . S
C514 C513 1.523 . S
H515 C490 0.950 . S
H516 C492 0.950 . S
H517 C493 0.949 . S
H518 C495 0.950 . S
H519 C497 0.950 . S
C161 C103 0.543 . S
C166 C23 0.580 . S
C191 C143 0.574 1_655 S
C196 C63 0.542 . S
C221 C82 0.531 1_565 S
C226 C2 0.517 . S
C251 C42 0.530 . S
C256 C122 0.511 1_455 S
C281 C57 1.141 . S
C286 C26 1.163 . S
C311 C66 0.955 . S
C316 C106 0.955 . S
C341 C146 1.163 . S
C346 C97 1.140 . S
C371 C137 1.350 . S
C376 C17 1.350 . S
C401 C93 4.484 . S
C406 C144 4.437 . S
C431 C13 4.845 . S
C436 C133 4.845 . S
C461 C53 4.484 . S
C466 C24 4.437 . S
C491 C104 4.130 . S
C496 C64 4.130 . S
