# Generated by pormake.
# Topology uoj, (4)-cn, num edge types: 1
# Building blocks:
#     Node 0, Type 0, BuildingBlock: QUQFOY_clean_sbu_1, # of connection points: 4
#     Node 1, Type 0, BuildingBlock: QUQFOY_clean_sbu_1, # of connection points: 4
#     Node 2, Type 0, BuildingBlock: QUQFOY_clean_sbu_1, # of connection points: 4
#     Node 3, Type 0, BuildingBlock: QUQFOY_clean_sbu_1, # of connection points: 4
#     Node 4, Type 0, BuildingBlock: QUQFOY_clean_sbu_1, # of connection points: 4
#     Node 5, Type 0, BuildingBlock: QUQFOY_clean_sbu_1, # of connection points: 4
#     Node 6, Type 0, BuildingBlock: QUQFOY_clean_sbu_1, # of connection points: 4
#     Node 7, Type 0, BuildingBlock: QUQFOY_clean_sbu_1, # of connection points: 4
#     Edge 8, Type (0, 0), BuildingBlock: XIVTED_clean_linker_0, # of connection points: 2
#     Edge 9, Type (0, 0), BuildingBlock: XIVTED_clean_linker_0, # of connection points: 2
#     Edge 10, Type (0, 0), BuildingBlock: XIVTED_clean_linker_0, # of connection points: 2
#     Edge 11, Type (0, 0), BuildingBlock: XIVTED_clean_linker_0, # of connection points: 2
#     Edge 12, Type (0, 0), BuildingBlock: XIVTED_clean_linker_0, # of connection points: 2
#     Edge 13, Type (0, 0), BuildingBlock: XIVTED_clean_linker_0, # of connection points: 2
#     Edge 14, Type (0, 0), BuildingBlock: XIVTED_clean_linker_0, # of connection points: 2
#     Edge 15, Type (0, 0), BuildingBlock: XIVTED_clean_linker_0, # of connection points: 2
#     Edge 16, Type (0, 0), BuildingBlock: XIVTED_clean_linker_0, # of connection points: 2
#     Edge 17, Type (0, 0), BuildingBlock: XIVTED_clean_linker_0, # of connection points: 2
#     Edge 18, Type (0, 0), BuildingBlock: XIVTED_clean_linker_0, # of connection points: 2
#     Edge 19, Type (0, 0), BuildingBlock: XIVTED_clean_linker_0, # of connection points: 2
#     Edge 20, Type (0, 0), BuildingBlock: XIVTED_clean_linker_0, # of connection points: 2
#     Edge 21, Type (0, 0), BuildingBlock: XIVTED_clean_linker_0, # of connection points: 2
#     Edge 22, Type (0, 0), BuildingBlock: XIVTED_clean_linker_0, # of connection points: 2
#     Edge 23, Type (0, 0), BuildingBlock: XIVTED_clean_linker_0, # of connection points: 2
# Relax obj value: 0.060
# Max RMSD: 0.096
# Mean RMSD: 0.096
data_MOF--net-uoj--node1-QUQFOY_clean_sbu_1--edge1-XIVTED_clean_linker_0
_symmetry_space_group_name_H-M    P1
_symmetry_Int_Tables_number       1
_symmetry_cell_setting            triclinic
loop_
_symmetry_equiv_pos_as_xyz
'x, y, z'
_cell_length_a     33.043377
_cell_length_b     33.021969
_cell_length_c     41.149372
_cell_angle_alpha  89.910086
_cell_angle_beta   89.70646
_cell_angle_gamma 90.296564
loop_
_atom_site_label
_atom_site_type_symbol
_atom_site_fract_x
_atom_site_fract_y
_atom_site_fract_z
_atom_type_partial_charge
O0 O 0.0113 0.25336 0.49294 0.0
Cd1 Cd 0.06833 0.27615 0.4874 0.0
Cd2 Cd 0.04822 0.26737 0.42637 0.0
O3 O 0.00295 0.22878 0.44369 0.0
O4 O 0.0958 0.26171 0.52867 0.0
O5 O 0.11211 0.23603 0.48057 0.0
C6 C 0.11625 0.23589 0.51181 0.0
C7 C 0.09391 0.25739 0.38383 0.0
C8 C -0.00923 0.2326 0.47295 0.0
C9 C 0.05107 0.35128 0.4548 0.0
O10 O 0.03689 0.32782 0.43317 0.0
O11 O 0.07095 0.3371 0.47856 0.0
O12 O 0.05568 0.2614 0.37842 0.0
O13 O 0.10562 0.25496 0.4137 0.0
O14 O 0.23995 0.95856 0.58861 0.0
Cd15 Cd 0.26673 0.9038 0.59516 0.0
Cd16 Cd 0.25865 0.92739 0.6555 0.0
O17 O 0.21725 0.96935 0.63825 0.0
O18 O 0.25484 0.87545 0.55365 0.0
O19 O 0.22957 0.85676 0.60142 0.0
C20 C 0.23003 0.85306 0.57014 0.0
C21 C 0.25221 0.88066 0.6976 0.0
C22 C 0.21909 0.97934 0.60838 0.0
C23 C 0.34146 0.92936 0.62526 0.0
O24 O 0.31786 0.94308 0.64704 0.0
O25 O 0.32792 0.90675 0.60277 0.0
O26 O 0.25372 0.91907 0.70342 0.0
O27 O 0.25037 0.86908 0.66763 0.0
O28 O 0.95453 0.72649 0.49032 0.0
Cd29 Cd 0.90044 0.69831 0.48281 0.0
Cd30 Cd 0.92488 0.70882 0.42247 0.0
O31 O 0.9667 0.74991 0.44104 0.0
O32 O 0.87001 0.70904 0.52378 0.0
O33 O 0.85277 0.73373 0.47569 0.0
C34 C 0.84753 0.73286 0.50683 0.0
C35 C 0.87822 0.71603 0.38073 0.0
C36 C 0.97589 0.74775 0.47102 0.0
C37 C 0.92708 0.62496 0.45071 0.0
O38 O 0.9404 0.64946 0.42929 0.0
O39 O 0.90475 0.6374 0.47385 0.0
O40 O 0.91662 0.71531 0.37467 0.0
O41 O 0.86667 0.71681 0.41078 0.0
O42 O 0.71438 0.00934 0.57863 0.0
Cd43 Cd 0.69318 0.0665 0.58561 0.0
Cd44 Cd 0.70178 0.04381 0.64638 0.0
O45 O 0.73809 -0.0021 0.62771 0.0
O46 O 0.70924 0.09667 0.54566 0.0
O47 O 0.73374 0.10957 0.59472 0.0
C48 C 0.73461 0.1161 0.56372 0.0
C49 C 0.71339 0.08601 0.69074 0.0
C50 C 0.7339 -0.01286 0.59819 0.0
C51 C 0.61775 0.04976 0.61861 0.0
O52 O 0.64092 0.03477 0.63999 0.0
O53 O 0.63227 0.06948 0.59467 0.0
O54 O 0.70816 0.04752 0.69453 0.0
O55 O 0.71621 0.09991 0.66144 0.0
O56 O 0.46614 0.74023 0.98462 0.0
Cd57 Cd 0.41113 0.7652 0.97416 0.0
Cd58 Cd 0.44047 0.75296 0.91659 0.0
O59 O 0.47875 0.71107 0.93761 0.0
O60 O 0.38001 0.75736 1.01537 0.0
O61 O 0.36472 0.72699 0.96902 0.0
C62 C 0.35853 0.73106 0.99987 0.0
C63 C 0.39292 0.74609 0.8755 0.0
C64 C 0.48752 0.71665 0.96737 0.0
C65 C 0.44006 0.83712 0.94142 0.0
O66 O 0.45854 0.81169 0.92369 0.0
O67 O 0.41258 0.82539 0.96109 0.0
O68 O 0.43125 0.74538 0.869 0.0
O69 O 0.38187 0.74685 0.90568 0.0
O70 O 0.74121 0.49935 0.09351 0.0
Cd71 Cd 0.76634 0.55436 0.10331 0.0
Cd72 Cd 0.75589 0.52595 0.16225 0.0
O73 O 0.71643 0.48386 0.14175 0.0
O74 O 0.75699 0.58449 0.06208 0.0
O75 O 0.72824 0.60046 0.10906 0.0
C76 C 0.73099 0.60579 0.07802 0.0
C77 C 0.74582 0.5731 0.20333 0.0
C78 C 0.71998 0.47631 0.11153 0.0
C79 C 0.84017 0.5293 0.13544 0.0
O80 O 0.81599 0.51294 0.15574 0.0
O81 O 0.827 0.5528 0.11343 0.0
O82 O 0.74746 0.53482 0.20983 0.0
O83 O 0.74576 0.58404 0.17316 0.0
O84 O 0.50421 0.22227 0.98307 0.0
Cd85 Cd 0.55938 0.19725 0.97298 0.0
Cd86 Cd 0.53111 0.20933 0.91532 0.0
O87 O 0.49285 0.2517 0.93597 0.0
O88 O 0.58907 0.20496 1.01458 0.0
O89 O 0.60546 0.23604 0.96856 0.0
C90 C 0.61046 0.23195 0.99952 0.0
C91 C 0.57943 0.2157 0.87433 0.0
C92 C 0.48355 0.24626 0.96573 0.0
C93 C 0.53108 0.1253 0.94058 0.0
O94 O 0.51271 0.15071 0.92285 0.0
O95 O 0.55846 0.13707 0.96007 0.0
O96 O 0.54122 0.2163 0.86771 0.0
O97 O 0.58995 0.21535 0.90455 0.0
O98 O 0.21479 0.46474 0.08684 0.0
Cd99 Cd 0.1953 0.40723 0.096 0.0
Cd100 Cd 0.2066 0.43229 0.15535 0.0
O101 O 0.2426 0.47737 0.13428 0.0
O102 O 0.20812 0.37732 0.05531 0.0
O103 O 0.23782 0.36564 0.10261 0.0
C104 C 0.23584 0.35907 0.07169 0.0
C105 C 0.22069 0.3887 0.19828 0.0
C106 C 0.23613 0.48741 0.10486 0.0
C107 C 0.12149 0.42379 0.13118 0.0
O108 O 0.14542 0.44103 0.15096 0.0
O109 O 0.13524 0.40258 0.10791 0.0
O110 O 0.21643 0.42711 0.20303 0.0
O111 O 0.22112 0.37574 0.16866 0.0
H112 H 0.23804 0.40316 0.26222 0.0
H113 H 0.17391 0.27881 0.38786 0.0
H114 H 0.19415 0.31025 0.19762 0.0
H115 H 0.08091 0.24928 0.31846 0.0
H116 H 0.21697 0.30321 0.3432 0.0
H117 H 0.21732 0.36145 0.30864 0.0
C118 C 0.22515 0.37344 0.25783 0.0
C119 C 0.21783 0.36017 0.22602 0.0
C120 C 0.18734 0.29091 0.33777 0.0
C121 C 0.19342 0.31249 0.27901 0.0
C122 C 0.1629 0.2765 0.36318 0.0
C123 C 0.12349 0.26251 0.35692 0.0
C124 C 0.17233 0.29098 0.30589 0.0
C125 C 0.11088 0.26029 0.32443 0.0
C126 C 0.21345 0.34954 0.28435 0.0
C127 C 0.20061 0.32156 0.22173 0.0
N128 N 0.1351 0.27469 0.30015 0.0
N129 N 0.188 0.29955 0.24792 0.0
H130 H 0.23925 0.8909 0.76283 0.0
H131 H 0.40231 0.73218 0.8102 0.0
H132 H 0.28315 0.80428 0.69286 0.0
H133 H 0.31625 0.7761 0.88084 0.0
H134 H 0.35821 0.75631 0.76667 0.0
H135 H 0.26526 0.8482 0.80664 0.0
C136 C 0.25354 0.86244 0.75673 0.0
C137 C 0.25918 0.85122 0.72415 0.0
C138 C 0.34857 0.75987 0.79169 0.0
C139 C 0.29006 0.80282 0.77408 0.0
C140 C 0.37374 0.7461 0.81655 0.0
C141 C 0.36308 0.75233 0.84921 0.0
C142 C 0.31302 0.78095 0.79956 0.0
C143 C 0.32569 0.77064 0.85601 0.0
C144 C 0.26841 0.83808 0.78173 0.0
C145 C 0.27805 0.81405 0.71764 0.0
N146 N 0.30243 0.7851 0.83143 0.0
N147 N 0.29363 0.79162 0.74233 0.0
H148 H 0.88847 0.72933 0.31545 0.0
H149 H 0.73164 0.56354 0.26861 0.0
H150 H 0.80174 0.6847 0.38572 0.0
H151 H 0.77364 0.65089 0.19788 0.0
H152 H 0.75492 0.60844 0.31208 0.0
H153 H 0.84574 0.70295 0.27178 0.0
C154 C 0.85998 0.71483 0.32165 0.0
C155 C 0.84876 0.70904 0.35427 0.0
C156 C 0.7582 0.61819 0.28706 0.0
C157 C 0.80034 0.67774 0.30451 0.0
C158 C 0.7449 0.59257 0.26224 0.0
C159 C 0.75089 0.60337 0.22957 0.0
C160 C 0.77863 0.65433 0.27913 0.0
C161 C 0.76837 0.64134 0.22273 0.0
C162 C 0.8356 0.69975 0.29673 0.0
C163 C 0.81154 0.68989 0.36091 0.0
N164 N 0.78247 0.66504 0.24727 0.0
N165 N 0.78912 0.67409 0.3363 0.0
H166 H 0.6579 0.19059 0.88046 0.0
H167 H 0.72624 0.0692 0.75498 0.0
H168 H 0.56979 0.22473 0.80853 0.0
H169 H 0.68782 0.16455 0.69059 0.0
H170 H 0.70322 0.10932 0.80134 0.0
H171 H 0.70215 0.16598 0.83693 0.0
C172 C 0.64817 0.19371 0.85549 0.0
C173 C 0.60976 0.20922 0.84817 0.0
C174 C 0.70102 0.12212 0.77718 0.0
C175 C 0.66001 0.18049 0.79835 0.0
C176 C 0.71407 0.09912 0.75068 0.0
C177 C 0.70902 0.11357 0.71889 0.0
C178 C 0.68197 0.15949 0.77181 0.0
C179 C 0.69258 0.15238 0.7147 0.0
C180 C 0.67329 0.17921 0.8307 0.0
C181 C 0.5989 0.21254 0.81532 0.0
N182 N 0.67868 0.17355 0.7408 0.0
N183 N 0.62377 0.19802 0.79164 0.0
H184 H 0.20343 -0.00245 0.54556 0.0
H185 H 0.12333 0.22127 0.57724 0.0
H186 H 0.19308 0.04664 0.64242 0.0
H187 H 0.15832 0.17445 0.48336 0.0
H188 H 0.14782 0.15887 0.60255 0.0
H189 H 0.18266 0.06207 0.52332 0.0
C190 C 0.19645 0.02191 0.56225 0.0
C191 C 0.20029 0.01674 0.59594 0.0
C192 C 0.15056 0.16257 0.57648 0.0
C193 C 0.17677 0.0914 0.5704 0.0
C194 C 0.13688 0.19826 0.562 0.0
C195 C 0.1385 0.20296 0.52806 0.0
C196 C 0.16564 0.13138 0.5568 0.0
C197 C 0.15624 0.17214 0.50956 0.0
C198 C 0.18482 0.05895 0.54946 0.0
C199 C 0.19039 0.04934 0.6163 0.0
N200 N 0.16869 0.13755 0.52414 0.0
N201 N 0.17922 0.08551 0.60317 0.0
H202 H 0.2167 0.84644 0.50457 0.0
H203 H -0.00617 0.76069 0.53433 0.0
H204 H 0.16968 0.80766 0.5977 0.0
H205 H 0.0434 0.77596 0.43777 0.0
H206 H 0.05817 0.7812 0.5571 0.0
H207 H 0.15513 0.82078 0.47871 0.0
C208 C 0.19387 0.83175 0.51951 0.0
C209 C 0.1982 0.82951 0.55344 0.0
C210 C 0.05518 0.78017 0.53092 0.0
C211 C 0.12748 0.80103 0.52406 0.0
C212 C 0.01824 0.76871 0.51782 0.0
C213 C 0.01322 0.76636 0.48403 0.0
C214 C 0.0877 0.78961 0.5102 0.0
C215 C 0.04594 0.77749 0.46396 0.0
C216 C 0.15861 0.81742 0.50472 0.0
C217 C 0.16762 0.81027 0.57153 0.0
N218 N 0.08198 0.78854 0.47738 0.0
N219 N 0.13341 0.79725 0.55666 0.0
H220 H 0.72954 0.95845 0.53647 0.0
H221 H 0.84171 0.74992 0.5719 0.0
H222 H 0.77165 0.92556 0.63211 0.0
H223 H 0.79554 0.78599 0.47832 0.0
H224 H 0.81087 0.81008 0.59609 0.0
H225 H 0.75009 0.89292 0.51636 0.0
C226 C 0.74331 0.93748 0.55335 0.0
C227 C 0.749 0.94776 0.58612 0.0
C228 C 0.80702 0.80447 0.57037 0.0
C229 C 0.77264 0.87181 0.56293 0.0
C230 C 0.82431 0.76997 0.55655 0.0
C231 C 0.82154 0.76315 0.52293 0.0
C232 C 0.7869 0.83225 0.55038 0.0
C233 C 0.79876 0.79017 0.50427 0.0
C234 C 0.75489 0.8998 0.54176 0.0
C235 C 0.76692 0.91904 0.60665 0.0
N236 N 0.78272 0.82371 0.51819 0.0
N237 N 0.77825 0.8823 0.59466 0.0
H238 H 0.78982 0.16381 0.59478 0.0
H239 H 0.9303 0.19541 0.43726 0.0
H240 H 0.75479 0.12325 0.49924 0.0
H241 H 0.96203 0.23109 0.53486 0.0
H242 H 0.86433 0.17161 0.45793 0.0
H243 H 0.85068 0.19401 0.57137 0.0
C244 C 0.79463 0.16179 0.56877 0.0
C245 C 0.76732 0.14075 0.549 0.0
C246 C 0.88586 0.18471 0.47469 0.0
C247 C 0.83755 0.17457 0.52197 0.0
C248 C 0.92356 0.19802 0.46295 0.0
C249 C 0.95179 0.21525 0.48431 0.0
C250 C 0.87656 0.18876 0.50794 0.0
C251 C 0.94133 0.21814 0.51736 0.0
C252 C 0.82957 0.17883 0.55539 0.0
C253 C 0.77511 0.13918 0.5154 0.0
N254 N 0.90471 0.20511 0.52806 0.0
N255 N 0.80979 0.15546 0.50296 0.0
H256 H 0.22598 0.51477 0.04317 0.0
H257 H 0.3526 0.71921 0.06569 0.0
H258 H 0.28051 0.54835 0.13451 0.0
H259 H 0.30554 0.67618 0.9743 0.0
H260 H 0.31938 0.66219 0.09328 0.0
H261 H 0.24911 0.57797 1.01967 0.0
C262 C 0.24296 0.53541 0.0584 0.0
C263 C 0.25153 0.52594 0.09094 0.0
C264 C 0.31593 0.66558 0.06727 0.0
C265 C 0.27824 0.59915 0.06379 0.0
C266 C 0.33458 0.69829 0.0515 0.0
C267 C 0.33209 0.70225 1.01756 0.0
C268 C 0.2946 0.63681 0.04893 0.0
C269 C 0.30852 0.67418 1.00044 0.0
C270 C 0.25609 0.57173 0.04487 0.0
C271 C 0.27347 0.55426 0.10929 0.0
N272 N 0.29101 0.64252 1.01627 0.0
N273 N 0.28625 0.58963 0.0954 0.0
H274 H 0.67309 0.6548 0.10423 0.0
H275 H 0.55148 0.67803 0.93724 0.0
H276 H 0.71893 0.61127 1.01234 0.0
H277 H 0.5076 0.71633 1.03127 0.0
H278 H 0.6146 0.65592 0.963 0.0
H279 H 0.61497 0.68315 0.0762 0.0
C280 C 0.67131 0.65184 0.07806 0.0
C281 C 0.70075 0.63037 0.06066 0.0
C282 C 0.59104 0.66915 0.97789 0.0
C283 C 0.63369 0.66194 1.02839 0.0
C284 C 0.55493 0.68143 0.96325 0.0
C285 C 0.52421 0.69907 0.98209 0.0
C286 C 0.59627 0.67462 1.01152 0.0
C287 C 0.53043 0.70306 1.01568 0.0
C288 C 0.6379 0.66775 0.06205 0.0
C289 C 0.69685 0.62752 1.02673 0.0
N290 N 0.56566 0.69104 1.02922 0.0
N291 N 0.66363 0.6427 1.01172 0.0
H292 H 0.71188 0.46131 0.0472 0.0
H293 H 0.61685 0.24018 0.06568 0.0
H294 H 0.68873 0.40741 0.14121 0.0
H295 H 0.65772 0.29293 0.97516 0.0
H296 H 0.64445 0.29877 0.09471 0.0
H297 H 0.69079 0.39905 1.02135 0.0
C298 C 0.70212 0.43635 0.06252 0.0
C299 C 0.70228 0.43962 0.09653 0.0
C300 C 0.64783 0.29718 0.06856 0.0
C301 C 0.67814 0.36744 0.06672 0.0
C302 C 0.63239 0.26361 0.05196 0.0
C303 C 0.63467 0.26182 1.01786 0.0
C304 C 0.66546 0.32913 0.05087 0.0
C305 C 0.655 0.29309 1.00138 0.0
C306 C 0.69025 0.40058 0.04764 0.0
C307 C 0.68894 0.40624 0.11492 0.0
N308 N 0.66918 0.32558 1.01801 0.0
N309 N 0.67743 0.37136 0.09975 0.0
H310 H 0.46591 0.25191 1.02999 0.0
H311 H 0.24715 0.34924 1.0061 0.0
H312 H 0.41836 0.28215 0.93552 0.0
H313 H 0.29859 0.31793 0.09899 0.0
H314 H 0.30722 0.3218 0.97913 0.0
H315 H 0.40369 0.27527 0.05494 0.0
C316 C 0.44239 0.26374 1.01443 0.0
C317 C 0.44735 0.26495 0.98054 0.0
C318 C 0.30514 0.32061 1.00538 0.0
C319 C 0.37537 0.29159 1.00919 0.0
C320 C 0.27072 0.33595 1.02082 0.0
C321 C 0.26793 0.33605 0.0549 0.0
C322 C 0.33692 0.30533 1.0242 0.0
C323 C 0.29945 0.31863 0.07269 0.0
C324 C 0.40669 0.27696 1.02876 0.0
C325 C 0.41585 0.28084 0.96174 0.0
N326 N 0.3327 0.30427 0.05714 0.0
N327 N 0.38101 0.29342 0.97634 0.0
H328 H 0.95571 0.58307 0.39874 0.0
H329 H 0.04527 0.4038 0.50594 0.0
H330 H 0.9339 0.57262 0.50195 0.0
H331 H 0.02889 0.39547 0.40214 0.0
H332 H 0.0139 0.47091 0.505 0.0
H333 H -0.01023 0.51772 0.39963 0.0
C334 C 0.95769 0.56673 0.42153 0.0
C335 C 0.94193 0.58311 0.45031 0.0
C336 C 0.0175 0.45441 0.48245 0.0
C337 C 0.98159 0.50894 0.45161 0.0
C338 C 0.03582 0.41645 0.4829 0.0
C339 C 0.03944 0.39414 0.45408 0.0
C340 C 0.0033 0.47011 0.45293 0.0
C341 C 0.02639 0.41165 0.42492 0.0
C342 C 0.97725 0.52957 0.42203 0.0
C343 C 0.94535 0.5608 0.47919 0.0
N344 N 0.00877 0.4486 0.4251 0.0
N345 N 0.96522 0.52489 0.47918 0.0
H346 H 0.57291 0.0335 0.67249 0.0
H347 H 0.39338 0.93194 0.57319 0.0
H348 H 0.56534 0.04043 0.56797 0.0
H349 H 0.3845 0.96158 0.67514 0.0
H350 H 0.45962 0.9656 0.57111 0.0
H351 H 0.50531 0.00357 0.67421 0.0
C352 C 0.55664 0.02929 0.64994 0.0
C353 C 0.57456 0.03933 0.62004 0.0
C354 C 0.44312 0.96458 0.5939 0.0
C355 C 0.49785 0.00421 0.62174 0.0
C356 C 0.40565 0.94496 0.59521 0.0
C357 C 0.38354 0.94402 0.62439 0.0
C358 C 0.45857 0.98284 0.62205 0.0
C359 C 0.40054 0.96174 0.65213 0.0
C360 C 0.51819 0.01208 0.65091 0.0
C361 C 0.55234 0.0333 0.59151 0.0
N362 N 0.43707 0.98043 0.65027 0.0
N363 N 0.5152 0.01553 0.593 0.0
H364 H 0.45656 0.09647 0.92532 0.0
H365 H 0.51464 0.86593 0.92565 0.0
H366 H 0.57521 0.05785 0.95555 0.0
H367 H 0.39584 0.9046 0.95635 0.0
H368 H 0.53747 0.93648 0.92617 0.0
H369 H 0.43371 0.02593 0.92626 0.0
C370 C 0.47788 0.07307 0.93192 0.0
C371 C 0.51788 0.08279 0.94027 0.0
C372 C 0.50645 0.9294 0.93279 0.0
C373 C 0.49198 0.00253 0.9411 0.0
C374 C 0.49329 0.88935 0.93227 0.0
C375 C 0.45325 0.87964 0.94087 0.0
C376 C 0.47912 0.9599 0.94122 0.0
C377 C 0.42694 0.91097 0.94961 0.0
C378 C 0.4647 0.03302 0.93269 0.0
C379 C 0.54413 0.05147 0.949 0.0
N380 N 0.44026 0.94996 0.94925 0.0
N381 N 0.53081 0.01248 0.94888 0.0
H382 H 0.07841 0.44437 0.1851 0.0
H383 H 0.89382 0.53075 0.0847 0.0
H384 H 0.06686 0.42615 0.08171 0.0
H385 H 0.88292 0.49861 0.18613 0.0
H386 H 0.96175 0.50138 0.08385 0.0
H387 H 0.00949 0.47094 0.18669 0.0
C388 C 0.06108 0.44545 0.16283 0.0
C389 C 0.07816 0.4331 0.13323 0.0
C390 C 0.94443 0.50094 0.10626 0.0
C391 C 0.00014 0.46436 0.13474 0.0
C392 C 0.90598 0.5181 0.10688 0.0
C393 C 0.88286 0.51704 0.13554 0.0
C394 C 0.9599 0.48328 0.13461 0.0
C395 C 0.89979 0.4999 0.16352 0.0
C396 C 0.02192 0.46068 0.16374 0.0
C397 C 0.0546 0.43512 0.10505 0.0
N398 N 0.93741 0.48373 0.16239 0.0
N399 N 0.01684 0.45108 0.1064 0.0
loop_
_geom_bond_atom_site_label_1
_geom_bond_atom_site_label_2
_geom_bond_distance
_geom_bond_site_symmetry_2
_ccdc_geom_bond_type
O0 Cd1 2.223 . S
O0 C8 1.315 . S
Cd1 O0 2.223 . S
Cd1 O4 2.297 . S
Cd1 O5 2.439 . S
Cd1 O11 2.240 . S
Cd2 O3 2.240 . S
Cd2 O10 2.223 . S
Cd2 O12 2.297 . S
Cd2 O13 2.439 . S
O3 Cd2 2.240 . S
O3 C8 1.279 . S
O4 Cd1 2.297 . S
O4 C6 1.247 . S
O5 Cd1 2.439 . S
O5 C6 1.208 . S
C6 O4 1.247 . S
C6 O5 1.208 . S
C7 O12 1.247 . S
C7 O13 1.208 . S
C8 O0 1.315 . S
C8 O3 1.279 . S
C9 O10 1.315 . S
C9 O11 1.279 . S
O10 Cd2 2.223 . S
O10 C9 1.315 . S
O11 Cd1 2.240 . S
O11 C9 1.279 . S
O12 Cd2 2.297 . S
O12 C7 1.247 . S
O13 Cd2 2.439 . S
O13 C7 1.208 . S
O14 Cd15 2.223 . S
O14 C22 1.315 . S
Cd15 O14 2.223 . S
Cd15 O18 2.297 . S
Cd15 O19 2.439 . S
Cd15 O25 2.240 . S
Cd16 O17 2.240 . S
Cd16 O24 2.223 . S
Cd16 O26 2.297 . S
Cd16 O27 2.439 . S
O17 Cd16 2.240 . S
O17 C22 1.279 . S
O18 Cd15 2.297 . S
O18 C20 1.247 . S
O19 Cd15 2.439 . S
O19 C20 1.208 . S
C20 O18 1.247 . S
C20 O19 1.208 . S
C21 O26 1.247 . S
C21 O27 1.208 . S
C22 O14 1.315 . S
C22 O17 1.279 . S
C23 O24 1.315 . S
C23 O25 1.279 . S
O24 Cd16 2.223 . S
O24 C23 1.315 . S
O25 Cd15 2.240 . S
O25 C23 1.279 . S
O26 Cd16 2.297 . S
O26 C21 1.247 . S
O27 Cd16 2.439 . S
O27 C21 1.208 . S
O28 Cd29 2.223 . S
O28 C36 1.315 . S
Cd29 O28 2.223 . S
Cd29 O32 2.297 . S
Cd29 O33 2.439 . S
Cd29 O39 2.240 . S
Cd30 O31 2.240 . S
Cd30 O38 2.223 . S
Cd30 O40 2.297 . S
Cd30 O41 2.439 . S
O31 Cd30 2.240 . S
O31 C36 1.279 . S
O32 Cd29 2.297 . S
O32 C34 1.247 . S
O33 Cd29 2.439 . S
O33 C34 1.208 . S
C34 O32 1.247 . S
C34 O33 1.208 . S
C35 O40 1.247 . S
C35 O41 1.208 . S
C36 O28 1.315 . S
C36 O31 1.279 . S
C37 O38 1.315 . S
C37 O39 1.279 . S
O38 Cd30 2.223 . S
O38 C37 1.315 . S
O39 Cd29 2.240 . S
O39 C37 1.279 . S
O40 Cd30 2.297 . S
O40 C35 1.247 . S
O41 Cd30 2.439 . S
O41 C35 1.208 . S
O42 Cd43 2.223 . S
O42 C50 1.315 . S
Cd43 O42 2.223 . S
Cd43 O46 2.297 . S
Cd43 O47 2.439 . S
Cd43 O53 2.240 . S
Cd44 O45 2.240 . S
Cd44 O52 2.223 . S
Cd44 O54 2.297 . S
Cd44 O55 2.439 . S
O45 Cd44 2.240 . S
O45 C50 1.279 . S
O46 Cd43 2.297 . S
O46 C48 1.247 . S
O47 Cd43 2.439 . S
O47 C48 1.208 . S
C48 O46 1.247 . S
C48 O47 1.208 . S
C49 O54 1.247 . S
C49 O55 1.208 . S
C50 O42 1.315 . S
C50 O45 1.279 . S
C51 O52 1.315 . S
C51 O53 1.279 . S
O52 Cd44 2.223 . S
O52 C51 1.315 . S
O53 Cd43 2.240 . S
O53 C51 1.279 . S
O54 Cd44 2.297 . S
O54 C49 1.247 . S
O55 Cd44 2.439 . S
O55 C49 1.208 . S
O56 Cd57 2.223 . S
O56 C64 1.315 . S
Cd57 O56 2.223 . S
Cd57 O60 2.308 . S
Cd57 O61 2.439 . S
Cd57 O67 2.240 . S
Cd58 O59 2.240 . S
Cd58 O66 2.223 . S
Cd58 O68 2.297 . S
Cd58 O69 2.439 . S
O59 Cd58 2.240 . S
O59 C64 1.279 . S
O60 Cd57 2.308 . S
O60 C62 1.268 . S
O61 Cd57 2.439 . S
O61 C62 1.208 . S
C62 O60 1.268 . S
C62 O61 1.208 . S
C63 O68 1.247 . S
C63 O69 1.208 . S
C64 O56 1.315 . S
C64 O59 1.279 . S
C65 O66 1.315 . S
C65 O67 1.279 . S
O66 Cd58 2.223 . S
O66 C65 1.315 . S
O67 Cd57 2.240 . S
O67 C65 1.279 . S
O68 Cd58 2.297 . S
O68 C63 1.247 . S
O69 Cd58 2.439 . S
O69 C63 1.208 . S
O70 Cd71 2.223 . S
O70 C78 1.315 . S
Cd71 O70 2.223 . S
Cd71 O74 2.308 . S
Cd71 O75 2.439 . S
Cd71 O81 2.240 . S
Cd72 O73 2.240 . S
Cd72 O80 2.223 . S
Cd72 O82 2.297 . S
Cd72 O83 2.439 . S
O73 Cd72 2.240 . S
O73 C78 1.279 . S
O74 Cd71 2.308 . S
O74 C76 1.268 . S
O75 Cd71 2.439 . S
O75 C76 1.208 . S
C76 O74 1.268 . S
C76 O75 1.208 . S
C77 O82 1.247 . S
C77 O83 1.208 . S
C78 O70 1.315 . S
C78 O73 1.279 . S
C79 O80 1.315 . S
C79 O81 1.279 . S
O80 Cd72 2.223 . S
O80 C79 1.315 . S
O81 Cd71 2.240 . S
O81 C79 1.279 . S
O82 Cd72 2.297 . S
O82 C77 1.247 . S
O83 Cd72 2.439 . S
O83 C77 1.208 . S
O84 Cd85 2.223 . S
O84 C92 1.315 . S
Cd85 O84 2.223 . S
Cd85 O88 2.308 . S
Cd85 O89 2.439 . S
Cd85 O95 2.240 . S
Cd86 O87 2.240 . S
Cd86 O94 2.223 . S
Cd86 O96 2.297 . S
Cd86 O97 2.439 . S
O87 Cd86 2.240 . S
O87 C92 1.279 . S
O88 Cd85 2.308 . S
O88 C90 1.268 . S
O89 Cd85 2.439 . S
O89 C90 1.208 . S
C90 O88 1.268 . S
C90 O89 1.208 . S
C91 O96 1.247 . S
C91 O97 1.208 . S
C92 O84 1.315 . S
C92 O87 1.279 . S
C93 O94 1.315 . S
C93 O95 1.279 . S
O94 Cd86 2.223 . S
O94 C93 1.315 . S
O95 Cd85 2.240 . S
O95 C93 1.279 . S
O96 Cd86 2.297 . S
O96 C91 1.247 . S
O97 Cd86 2.439 . S
O97 C91 1.208 . S
O98 Cd99 2.223 . S
O98 C106 1.315 . S
Cd99 O98 2.223 . S
Cd99 O102 2.308 . S
Cd99 O103 2.439 . S
Cd99 O109 2.240 . S
Cd100 O101 2.240 . S
Cd100 O108 2.223 . S
Cd100 O110 2.297 . S
Cd100 O111 2.439 . S
O101 Cd100 2.240 . S
O101 C106 1.279 . S
O102 Cd99 2.308 . S
O102 C104 1.268 . S
O103 Cd99 2.439 . S
O103 C104 1.208 . S
C104 O102 1.268 . S
C104 O103 1.208 . S
C105 O110 1.247 . S
C105 O111 1.208 . S
C106 O98 1.315 . S
C106 O101 1.279 . S
C107 O108 1.315 . S
C107 O109 1.279 . S
O108 Cd100 2.223 . S
O108 C107 1.315 . S
O109 Cd99 2.240 . S
O109 C107 1.279 . S
O110 Cd100 2.297 . S
O110 C105 1.247 . S
O111 Cd100 2.439 . S
O111 C105 1.208 . S
H112 C118 0.930 . S
H113 C122 0.930 . S
H114 C127 0.929 . S
H115 C125 0.929 . S
H116 C120 0.929 . S
H117 C126 0.929 . S
C118 H112 0.930 . S
C118 C119 1.367 . S
C118 C126 1.378 . S
C119 C118 1.367 . S
C119 C127 1.433 . S
C120 H116 0.929 . S
C120 C122 1.378 . S
C120 C124 1.350 . S
C121 C124 1.463 . S
C121 C126 1.350 . S
C121 N129 1.427 . S
C122 H113 0.930 . S
C122 C120 1.378 . S
C122 C123 1.367 . S
C123 C122 1.367 . S
C123 C125 1.433 . S
C124 C120 1.350 . S
C124 C121 1.463 . S
C124 N128 1.427 . S
C125 H115 0.929 . S
C125 C123 1.433 . S
C125 N128 1.384 . S
C126 H117 0.929 . S
C126 C118 1.378 . S
C126 C121 1.350 . S
C127 H114 0.929 . S
C127 C119 1.433 . S
C127 N129 1.384 . S
N128 C124 1.427 . S
N128 C125 1.384 . S
N129 C121 1.427 . S
N129 C127 1.384 . S
H130 C136 0.930 . S
H131 C140 0.930 . S
H132 C145 0.929 . S
H133 C143 0.929 . S
H134 C138 0.929 . S
H135 C144 0.929 . S
C136 H130 0.930 . S
C136 C137 1.367 . S
C136 C144 1.378 . S
C137 C136 1.367 . S
C137 C145 1.433 . S
C138 H134 0.929 . S
C138 C140 1.378 . S
C138 C142 1.350 . S
C139 C142 1.463 . S
C139 C144 1.350 . S
C139 N147 1.427 . S
C140 H131 0.930 . S
C140 C138 1.378 . S
C140 C141 1.367 . S
C141 C140 1.367 . S
C141 C143 1.433 . S
C142 C138 1.350 . S
C142 C139 1.463 . S
C142 N146 1.427 . S
C143 H133 0.929 . S
C143 C141 1.433 . S
C143 N146 1.384 . S
C144 H135 0.929 . S
C144 C136 1.378 . S
C144 C139 1.350 . S
C145 H132 0.929 . S
C145 C137 1.433 . S
C145 N147 1.384 . S
N146 C142 1.427 . S
N146 C143 1.384 . S
N147 C139 1.427 . S
N147 C145 1.384 . S
H148 C154 0.930 . S
H149 C158 0.930 . S
H150 C163 0.929 . S
H151 C161 0.929 . S
H152 C156 0.929 . S
H153 C162 0.929 . S
C154 H148 0.930 . S
C154 C155 1.367 . S
C154 C162 1.378 . S
C155 C154 1.367 . S
C155 C163 1.433 . S
C156 H152 0.929 . S
C156 C158 1.378 . S
C156 C160 1.350 . S
C157 C160 1.463 . S
C157 C162 1.350 . S
C157 N165 1.427 . S
C158 H149 0.930 . S
C158 C156 1.378 . S
C158 C159 1.367 . S
C159 C158 1.367 . S
C159 C161 1.433 . S
C160 C156 1.350 . S
C160 C157 1.463 . S
C160 N164 1.427 . S
C161 H151 0.929 . S
C161 C159 1.433 . S
C161 N164 1.384 . S
C162 H153 0.929 . S
C162 C154 1.378 . S
C162 C157 1.350 . S
C163 H150 0.929 . S
C163 C155 1.433 . S
C163 N165 1.384 . S
N164 C160 1.427 . S
N164 C161 1.384 . S
N165 C157 1.427 . S
N165 C163 1.384 . S
H166 C172 0.930 . S
H167 C176 0.930 . S
H168 C181 0.929 . S
H169 C179 0.929 . S
H170 C174 0.929 . S
H171 C180 0.929 . S
C172 H166 0.930 . S
C172 C173 1.367 . S
C172 C180 1.378 . S
C173 C172 1.367 . S
C173 C181 1.433 . S
C174 H170 0.929 . S
C174 C176 1.378 . S
C174 C178 1.350 . S
C175 C178 1.463 . S
C175 C180 1.350 . S
C175 N183 1.427 . S
C176 H167 0.930 . S
C176 C174 1.378 . S
C176 C177 1.367 . S
C177 C176 1.367 . S
C177 C179 1.433 . S
C178 C174 1.350 . S
C178 C175 1.463 . S
C178 N182 1.427 . S
C179 H169 0.929 . S
C179 C177 1.433 . S
C179 N182 1.384 . S
C180 H171 0.929 . S
C180 C172 1.378 . S
C180 C175 1.350 . S
C181 H168 0.929 . S
C181 C173 1.433 . S
C181 N183 1.384 . S
N182 C178 1.427 . S
N182 C179 1.384 . S
N183 C175 1.427 . S
N183 C181 1.384 . S
H184 C190 0.930 1_565 S
H185 C194 0.930 . S
H186 C199 0.929 . S
H187 C197 0.929 . S
H188 C192 0.929 . S
H189 C198 0.929 . S
C190 H184 0.930 1_545 S
C190 C191 1.367 . S
C190 C198 1.378 . S
C191 C190 1.367 . S
C191 C199 1.444 . S
C192 H188 0.929 . S
C192 C194 1.378 . S
C192 C196 1.350 . S
C193 C196 1.463 . S
C193 C198 1.350 . S
C193 N201 1.427 . S
C194 H185 0.930 . S
C194 C192 1.378 . S
C194 C195 1.367 . S
C195 C194 1.367 . S
C195 C197 1.433 . S
C196 C192 1.350 . S
C196 C193 1.463 . S
C196 N200 1.427 . S
C197 H187 0.929 . S
C197 C195 1.433 . S
C197 N200 1.384 . S
C198 H189 0.929 . S
C198 C190 1.378 . S
C198 C193 1.350 . S
C199 H186 0.929 . S
C199 C191 1.444 . S
C199 N201 1.384 . S
N200 C196 1.427 . S
N200 C197 1.384 . S
N201 C193 1.427 . S
N201 C199 1.384 . S
H202 C208 0.930 . S
H203 C212 0.930 1_655 S
H204 C217 0.929 . S
H205 C215 0.929 . S
H206 C210 0.929 . S
H207 C216 0.929 . S
C208 H202 0.930 . S
C208 C209 1.367 . S
C208 C216 1.378 . S
C209 C208 1.367 . S
C209 C217 1.433 . S
C210 H206 0.929 . S
C210 C212 1.378 . S
C210 C214 1.350 . S
C211 C214 1.463 . S
C211 C216 1.350 . S
C211 N219 1.427 . S
C212 H203 0.930 1_455 S
C212 C210 1.378 . S
C212 C213 1.369 . S
C213 C212 1.369 . S
C213 C215 1.445 . S
C214 C210 1.350 . S
C214 C211 1.463 . S
C214 N218 1.427 . S
C215 H205 0.929 . S
C215 C213 1.445 . S
C215 N218 1.384 . S
C216 H207 0.929 . S
C216 C208 1.378 . S
C216 C211 1.350 . S
C217 H204 0.929 . S
C217 C209 1.433 . S
C217 N219 1.384 . S
N218 C214 1.427 . S
N218 C215 1.384 . S
N219 C211 1.427 . S
N219 C217 1.384 . S
H220 C226 0.930 . S
H221 C230 0.930 . S
H222 C235 0.937 . S
H223 C233 0.929 . S
H224 C228 0.929 . S
H225 C234 0.929 . S
C226 H220 0.930 . S
C226 C227 1.381 . S
C226 C234 1.378 . S
C227 C226 1.381 . S
C227 C235 1.443 . S
C228 H224 0.929 . S
C228 C230 1.378 . S
C228 C232 1.350 . S
C229 C232 1.463 . S
C229 C234 1.350 . S
C229 N237 1.427 . S
C230 H221 0.930 . S
C230 C228 1.378 . S
C230 C231 1.367 . S
C231 C230 1.367 . S
C231 C233 1.433 . S
C232 C228 1.350 . S
C232 C229 1.463 . S
C232 N236 1.427 . S
C233 H223 0.929 . S
C233 C231 1.433 . S
C233 N236 1.384 . S
C234 H225 0.929 . S
C234 C226 1.378 . S
C234 C229 1.350 . S
C235 H222 0.937 . S
C235 C227 1.443 . S
C235 N237 1.384 . S
N236 C232 1.427 . S
N236 C233 1.384 . S
N237 C229 1.427 . S
N237 C235 1.384 . S
H238 C244 0.930 . S
H239 C248 0.930 . S
H240 C253 0.929 . S
H241 C251 0.929 1_455 S
H242 C246 0.929 . S
H243 C252 0.929 . S
C244 H238 0.930 . S
C244 C245 1.367 . S
C244 C252 1.378 . S
C245 C244 1.367 . S
C245 C253 1.433 . S
C246 H242 0.929 . S
C246 C248 1.378 . S
C246 C250 1.350 . S
C247 C250 1.463 . S
C247 C252 1.350 . S
C247 N255 1.427 . S
C248 H239 0.930 . S
C248 C246 1.378 . S
C248 C249 1.367 . S
C249 C248 1.367 . S
C249 C251 1.433 . S
C250 C246 1.350 . S
C250 C247 1.463 . S
C250 N254 1.427 . S
C251 H241 0.929 1_655 S
C251 C249 1.433 . S
C251 N254 1.384 . S
C252 H243 0.929 . S
C252 C244 1.378 . S
C252 C247 1.350 . S
C253 H240 0.929 . S
C253 C245 1.433 . S
C253 N255 1.384 . S
N254 C250 1.427 . S
N254 C251 1.384 . S
N255 C247 1.427 . S
N255 C253 1.384 . S
H256 C262 0.930 . S
H257 C266 0.930 . S
H258 C271 0.929 . S
H259 C269 0.929 . S
H260 C264 0.929 . S
H261 C270 0.929 . S
C262 H256 0.930 . S
C262 C263 1.367 1_556 S
C262 C270 1.378 . S
C263 C262 1.367 1_554 S
C263 C271 1.433 . S
C264 H260 0.929 . S
C264 C266 1.378 . S
C264 C268 1.368 . S
C265 C268 1.469 . S
C265 C270 1.350 1_554 S
C265 N273 1.427 . S
C266 H257 0.930 . S
C266 C264 1.378 . S
C266 C267 1.367 1_554 S
C267 C266 1.367 1_556 S
C267 C269 1.433 . S
C268 C264 1.368 . S
C268 C265 1.469 . S
C268 N272 1.402 1_554 S
C269 H259 0.929 . S
C269 C267 1.433 . S
C269 N272 1.384 . S
C270 H261 0.929 . S
C270 C262 1.378 . S
C270 C265 1.350 1_556 S
C271 H258 0.929 . S
C271 C263 1.433 . S
C271 N273 1.384 . S
N272 C268 1.402 1_556 S
N272 C269 1.384 . S
N273 C265 1.427 . S
N273 C271 1.384 . S
H274 C280 0.930 . S
H275 C284 0.930 . S
H276 C289 0.929 1_556 S
H277 C287 0.929 . S
H278 C282 0.929 . S
H279 C288 0.929 . S
C280 H274 0.930 . S
C280 C281 1.367 . S
C280 C288 1.378 . S
C281 C280 1.367 . S
C281 C289 1.433 . S
C282 H278 0.929 . S
C282 C284 1.378 . S
C282 C286 1.350 . S
C283 C286 1.456 1_554 S
C283 C288 1.361 . S
C283 N291 1.422 1_554 S
C284 H275 0.930 . S
C284 C282 1.378 . S
C284 C285 1.367 . S
C285 C284 1.367 . S
C285 C287 1.433 . S
C286 C282 1.350 . S
C286 C283 1.456 1_556 S
C286 N290 1.427 . S
C287 H277 0.929 . S
C287 C285 1.433 . S
C287 N290 1.384 . S
C288 H279 0.929 . S
C288 C280 1.378 . S
C288 C283 1.361 . S
C289 H276 0.929 1_554 S
C289 C281 1.433 . S
C289 N291 1.384 1_554 S
N290 C286 1.427 . S
N290 C287 1.384 . S
N291 C283 1.422 1_556 S
N291 C289 1.384 1_556 S
H292 C298 0.930 1_556 S
H293 C302 0.930 . S
H294 C307 0.929 . S
H295 C305 0.929 . S
H296 C300 0.929 . S
H297 C306 0.929 . S
C298 H292 0.930 1_554 S
C298 C299 1.367 . S
C298 C306 1.378 1_554 S
C299 C298 1.367 . S
C299 C307 1.433 . S
C300 H296 0.929 . S
C300 C302 1.378 . S
C300 C304 1.357 . S
C301 C304 1.467 . S
C301 C306 1.350 1_554 S
C301 N309 1.427 . S
C302 H293 0.930 . S
C302 C300 1.378 . S
C302 C303 1.367 1_554 S
C303 C302 1.367 1_556 S
C303 C305 1.433 . S
C304 C300 1.357 . S
C304 C301 1.467 . S
C304 N308 1.416 1_554 S
C305 H295 0.929 . S
C305 C303 1.433 . S
C305 N308 1.384 . S
C306 H297 0.929 . S
C306 C298 1.378 1_556 S
C306 C301 1.350 1_556 S
C307 H294 0.929 . S
C307 C299 1.433 . S
C307 N309 1.384 . S
N308 C304 1.416 1_556 S
N308 C305 1.384 . S
N309 C301 1.427 . S
N309 C307 1.384 . S
H310 C316 0.930 . S
H311 C320 0.930 . S
H312 C325 0.929 . S
H313 C323 0.929 . S
H314 C318 0.929 . S
H315 C324 0.929 . S
C316 H310 0.930 . S
C316 C317 1.367 1_554 S
C316 C324 1.378 . S
C317 C316 1.367 1_556 S
C317 C325 1.433 . S
C318 H314 0.929 . S
C318 C320 1.378 . S
C318 C322 1.368 . S
C319 C322 1.469 . S
C319 C324 1.350 1_556 S
C319 N327 1.427 . S
C320 H311 0.930 . S
C320 C318 1.378 . S
C320 C321 1.367 1_556 S
C321 C320 1.367 1_554 S
C321 C323 1.433 . S
C322 C318 1.368 . S
C322 C319 1.469 . S
C322 N326 1.402 1_556 S
C323 H313 0.929 . S
C323 C321 1.433 . S
C323 N326 1.384 . S
C324 H315 0.929 . S
C324 C316 1.378 . S
C324 C319 1.350 1_554 S
C325 H312 0.929 . S
C325 C317 1.433 . S
C325 N327 1.384 . S
N326 C322 1.402 1_554 S
N326 C323 1.384 . S
N327 C319 1.427 . S
N327 C325 1.384 . S
H328 C334 0.930 . S
H329 C338 0.930 . S
H330 C343 0.929 . S
H331 C341 0.929 . S
H332 C336 0.907 1_655 S
H333 C342 0.907 1_455 S
C334 H328 0.930 . S
C334 C335 1.367 . S
C334 C342 1.393 . S
C335 C334 1.367 . S
C335 C343 1.433 . S
C336 H332 0.907 1_455 S
C336 C338 1.393 . S
C336 C340 1.357 . S
C337 C340 1.463 1_655 S
C337 C342 1.357 . S
C337 N345 1.427 . S
C338 H329 0.930 . S
C338 C336 1.393 . S
C338 C339 1.367 . S
C339 C338 1.367 . S
C339 C341 1.433 . S
C340 C336 1.357 . S
C340 C337 1.463 1_455 S
C340 N344 1.427 . S
C341 H331 0.929 . S
C341 C339 1.433 . S
C341 N344 1.384 . S
C342 H333 0.907 1_655 S
C342 C334 1.393 . S
C342 C337 1.357 . S
C343 H330 0.929 . S
C343 C335 1.433 . S
C343 N345 1.384 . S
N344 C340 1.427 . S
N344 C341 1.384 . S
N345 C337 1.427 . S
N345 C343 1.384 . S
H346 C352 0.930 . S
H347 C356 0.930 . S
H348 C361 0.929 . S
H349 C359 0.929 . S
H350 C354 0.929 . S
H351 C360 0.929 . S
C352 H346 0.930 . S
C352 C353 1.367 . S
C352 C360 1.378 . S
C353 C352 1.367 . S
C353 C361 1.433 . S
C354 H350 0.929 . S
C354 C356 1.378 . S
C354 C358 1.350 . S
C355 C358 1.463 1_545 S
C355 C360 1.350 . S
C355 N363 1.427 . S
C356 H347 0.930 . S
C356 C354 1.378 . S
C356 C357 1.367 . S
C357 C356 1.367 . S
C357 C359 1.433 . S
C358 C354 1.350 . S
C358 C355 1.463 1_565 S
C358 N362 1.427 . S
C359 H349 0.929 . S
C359 C357 1.433 . S
C359 N362 1.384 . S
C360 H351 0.929 . S
C360 C352 1.378 . S
C360 C355 1.350 . S
C361 H348 0.929 . S
C361 C353 1.433 . S
C361 N363 1.384 . S
N362 C358 1.427 . S
N362 C359 1.384 . S
N363 C355 1.427 . S
N363 C361 1.384 . S
H364 C370 0.930 . S
H365 C374 0.930 . S
H366 C379 0.929 . S
H367 C377 0.929 . S
H368 C372 0.929 . S
H369 C378 0.929 . S
C370 H364 0.930 . S
C370 C371 1.367 . S
C370 C378 1.378 . S
C371 C370 1.367 . S
C371 C379 1.433 . S
C372 H368 0.929 . S
C372 C374 1.378 . S
C372 C376 1.350 . S
C373 C376 1.463 1_545 S
C373 C378 1.350 . S
C373 N381 1.427 . S
C374 H365 0.930 . S
C374 C372 1.378 . S
C374 C375 1.367 . S
C375 C374 1.367 . S
C375 C377 1.433 . S
C376 C372 1.350 . S
C376 C373 1.463 1_565 S
C376 N380 1.427 . S
C377 H367 0.929 . S
C377 C375 1.433 . S
C377 N380 1.384 . S
C378 H369 0.929 . S
C378 C370 1.378 . S
C378 C373 1.350 . S
C379 H366 0.929 . S
C379 C371 1.433 . S
C379 N381 1.384 . S
N380 C376 1.427 . S
N380 C377 1.384 . S
N381 C373 1.427 . S
N381 C379 1.384 . S
H382 C388 0.930 . S
H383 C392 0.930 . S
H384 C397 0.929 . S
H385 C395 0.929 . S
H386 C390 0.929 . S
H387 C396 0.929 . S
C388 H382 0.930 . S
C388 C389 1.367 . S
C388 C396 1.378 . S
C389 C388 1.367 . S
C389 C397 1.433 . S
C390 H386 0.929 . S
C390 C392 1.378 . S
C390 C394 1.350 . S
C391 C394 1.463 1_455 S
C391 C396 1.350 . S
C391 N399 1.427 . S
C392 H383 0.930 . S
C392 C390 1.378 . S
C392 C393 1.367 . S
C393 C392 1.367 . S
C393 C395 1.433 . S
C394 C390 1.350 . S
C394 C391 1.463 1_655 S
C394 N398 1.427 . S
C395 H385 0.929 . S
C395 C393 1.433 . S
C395 N398 1.384 . S
C396 H387 0.929 . S
C396 C388 1.378 . S
C396 C391 1.350 . S
C397 H384 0.929 . S
C397 C389 1.433 . S
C397 N399 1.384 . S
N398 C394 1.427 . S
N398 C395 1.384 . S
N399 C391 1.427 . S
N399 C397 1.384 . S
C119 C105 1.557 . S
C123 C7 1.566 . S
C137 C21 1.554 . S
C141 C63 1.555 . S
C155 C35 1.556 . S
C159 C77 1.553 . S
C173 C91 1.563 . S
C177 C49 1.554 . S
C191 C22 1.486 1_545 S
C195 C6 1.491 . S
C209 C20 1.487 . S
C213 C36 1.483 1_455 S
C227 C50 1.474 1_565 S
C231 C34 1.485 . S
C245 C48 1.489 . S
C249 C8 1.503 1_655 S
C263 C106 1.498 . S
C267 C62 1.486 . S
C281 C76 1.494 . S
C285 C64 1.500 . S
C299 C78 1.500 . S
C303 C90 1.485 . S
C317 C92 1.498 . S
C321 C104 1.486 . S
C335 C37 1.264 . S
C339 C9 1.275 . S
C353 C51 1.273 . S
C357 C23 1.284 . S
C371 C93 1.265 . S
C375 C65 1.271 . S
C389 C107 1.264 . S
C393 C79 1.279 . S
