# Generated by pormake.
# Topology ske, (6)-cn, num edge types: 1
# Building blocks:
#     Node 0, Type 0, BuildingBlock: CUKXOW_clean_sbu_0, # of connection points: 6
#     Node 1, Type 0, BuildingBlock: CUKXOW_clean_sbu_0, # of connection points: 6
#     Node 2, Type 0, BuildingBlock: CUKXOW_clean_sbu_0, # of connection points: 6
#     Node 3, Type 0, BuildingBlock: CUKXOW_clean_sbu_0, # of connection points: 6
#     Node 4, Type 0, BuildingBlock: CUKXOW_clean_sbu_0, # of connection points: 6
#     Node 5, Type 0, BuildingBlock: CUKXOW_clean_sbu_0, # of connection points: 6
#     Node 6, Type 0, BuildingBlock: CUKXOW_clean_sbu_0, # of connection points: 6
#     Node 7, Type 0, BuildingBlock: CUKXOW_clean_sbu_0, # of connection points: 6
#     Edge 8, Type (0, 0), BuildingBlock: UVAHIK_clean_linker_0, # of connection points: 2
#     Edge 9, Type (0, 0), BuildingBlock: UVAHIK_clean_linker_0, # of connection points: 2
#     Edge 10, Type (0, 0), BuildingBlock: UVAHIK_clean_linker_0, # of connection points: 2
#     Edge 11, Type (0, 0), BuildingBlock: UVAHIK_clean_linker_0, # of connection points: 2
#     Edge 12, Type (0, 0), BuildingBlock: UVAHIK_clean_linker_0, # of connection points: 2
#     Edge 13, Type (0, 0), BuildingBlock: UVAHIK_clean_linker_0, # of connection points: 2
#     Edge 14, Type (0, 0), BuildingBlock: UVAHIK_clean_linker_0, # of connection points: 2
#     Edge 15, Type (0, 0), BuildingBlock: UVAHIK_clean_linker_0, # of connection points: 2
#     Edge 16, Type (0, 0), BuildingBlock: UVAHIK_clean_linker_0, # of connection points: 2
#     Edge 17, Type (0, 0), BuildingBlock: UVAHIK_clean_linker_0, # of connection points: 2
#     Edge 18, Type (0, 0), BuildingBlock: UVAHIK_clean_linker_0, # of connection points: 2
#     Edge 19, Type (0, 0), BuildingBlock: UVAHIK_clean_linker_0, # of connection points: 2
#     Edge 20, Type (0, 0), BuildingBlock: UVAHIK_clean_linker_0, # of connection points: 2
#     Edge 21, Type (0, 0), BuildingBlock: UVAHIK_clean_linker_0, # of connection points: 2
#     Edge 22, Type (0, 0), BuildingBlock: UVAHIK_clean_linker_0, # of connection points: 2
#     Edge 23, Type (0, 0), BuildingBlock: UVAHIK_clean_linker_0, # of connection points: 2
#     Edge 24, Type (0, 0), BuildingBlock: UVAHIK_clean_linker_0, # of connection points: 2
#     Edge 25, Type (0, 0), BuildingBlock: UVAHIK_clean_linker_0, # of connection points: 2
#     Edge 26, Type (0, 0), BuildingBlock: UVAHIK_clean_linker_0, # of connection points: 2
#     Edge 27, Type (0, 0), BuildingBlock: UVAHIK_clean_linker_0, # of connection points: 2
#     Edge 28, Type (0, 0), BuildingBlock: UVAHIK_clean_linker_0, # of connection points: 2
#     Edge 29, Type (0, 0), BuildingBlock: UVAHIK_clean_linker_0, # of connection points: 2
#     Edge 30, Type (0, 0), BuildingBlock: UVAHIK_clean_linker_0, # of connection points: 2
#     Edge 31, Type (0, 0), BuildingBlock: UVAHIK_clean_linker_0, # of connection points: 2
# Relax obj value: 0.167
# Max RMSD: 0.207
# Mean RMSD: 0.207
data_MOF--net-ske--node1-CUKXOW_clean_sbu_0--edge1-UVAHIK_clean_linker_0
_symmetry_space_group_name_H-M    P1
_symmetry_Int_Tables_number       1
_symmetry_cell_setting            triclinic
loop_
_symmetry_equiv_pos_as_xyz
'x, y, z'
_cell_length_a     68.034361
_cell_length_b     39.782181
_cell_length_c     22.650465
_cell_angle_alpha  97.418283
_cell_angle_beta   90.00672
_cell_angle_gamma 90.154117
loop_
_atom_site_label
_atom_site_type_symbol
_atom_site_fract_x
_atom_site_fract_y
_atom_site_fract_z
_atom_type_partial_charge
Tb0 Tb 0.16904 0.24757 0.45701 0.0
C1 C 0.1631 0.18475 0.52258 0.0
Tb2 Tb 0.16021 0.26122 0.58888 0.0
O3 O 0.19798 0.22727 0.47743 0.0
O4 O 0.18492 0.26589 0.53503 0.0
O5 O 0.16242 0.19616 0.47028 0.0
C6 C 0.16132 0.2633 0.70746 0.0
O7 O 0.16413 0.2055 0.57369 0.0
C8 C 0.12966 0.26432 0.51967 0.0
C9 C 0.16494 0.32382 0.51924 0.0
O10 O 0.14564 0.25919 0.67477 0.0
O11 O 0.17635 0.26652 0.67346 0.0
O12 O 0.13177 0.28243 0.57128 0.0
O13 O 0.14373 0.24354 0.51109 0.0
O14 O 0.16564 0.31351 0.57283 0.0
O15 O 0.16434 0.30225 0.46943 0.0
C16 C 0.16829 0.24509 0.33839 0.0
O17 O 0.18391 0.24898 0.37143 0.0
O18 O 0.15311 0.24234 0.3721 0.0
C19 C 0.19937 0.24613 0.52857 0.0
Tb20 Tb 0.89784 0.2491 0.59158 0.0
C21 C 0.89447 0.31262 0.52507 0.0
Tb22 Tb 0.88881 0.23857 0.46026 0.0
O23 O 0.92716 0.26801 0.57834 0.0
O24 O 0.91434 0.23261 0.51303 0.0
O25 O 0.89087 0.30103 0.57653 0.0
C26 C 0.88811 0.23807 0.34216 0.0
O27 O 0.89719 0.29177 0.4753 0.0
C28 C 0.85849 0.23791 0.53271 0.0
C29 C 0.89502 0.17353 0.52053 0.0
O30 O 0.87473 0.25115 0.37887 0.0
O31 O 0.90184 0.22517 0.3719 0.0
O32 O 0.85934 0.21964 0.48094 0.0
O33 O 0.87337 0.25663 0.53904 0.0
O34 O 0.89372 0.18619 0.4695 0.0
O35 O 0.89604 0.19309 0.57295 0.0
C36 C 0.8947 0.24987 0.7094 0.0
O37 O 0.88218 0.23617 0.67026 0.0
O38 O 0.909 0.26305 0.68223 0.0
C39 C 0.92883 0.2524 0.52465 0.0
Tb40 Tb 0.17184 0.75173 0.53575 0.0
C41 C 0.16532 0.81996 0.47966 0.0
Tb42 Tb 0.16041 0.74798 0.39997 0.0
O43 O 0.20062 0.72996 0.50755 0.0
O44 O 0.18532 0.75981 0.45424 0.0
O45 O 0.16719 0.80518 0.52878 0.0
C46 C 0.16373 0.74588 0.28267 0.0
O47 O 0.16437 0.80273 0.42511 0.0
C48 C 0.12898 0.74661 0.46739 0.0
C49 C 0.1628 0.6808 0.46316 0.0
O50 O 0.15045 0.76253 0.31551 0.0
O51 O 0.17516 0.73001 0.31581 0.0
O52 O 0.12819 0.74549 0.40988 0.0
O53 O 0.14679 0.74801 0.48194 0.0
O54 O 0.16409 0.6941 0.412 0.0
O55 O 0.16294 0.69943 0.51615 0.0
C56 C 0.17288 0.75975 0.65421 0.0
O57 O 0.1881 0.76008 0.61974 0.0
O58 O 0.15708 0.75524 0.62201 0.0
C59 C 0.20033 0.74171 0.45658 0.0
Tb60 Tb 0.89771 0.7329 0.40204 0.0
C61 C 0.89185 0.66901 0.46767 0.0
Tb62 Tb 0.88839 0.74443 0.53341 0.0
O63 O 0.92581 0.7104 0.41893 0.0
O64 O 0.9141 0.74885 0.48096 0.0
O65 O 0.89144 0.68039 0.41496 0.0
C66 C 0.88901 0.7451 0.65165 0.0
O67 O 0.89238 0.68969 0.51851 0.0
C68 C 0.85836 0.74674 0.46057 0.0
C69 C 0.89576 0.80853 0.47261 0.0
O70 O 0.90432 0.7449 0.61758 0.0
O71 O 0.87329 0.74507 0.61919 0.0
O72 O 0.85949 0.76505 0.5123 0.0
O73 O 0.87285 0.72714 0.45442 0.0
O74 O 0.8958 0.79594 0.52382 0.0
O75 O 0.89498 0.78882 0.42032 0.0
C76 C 0.8962 0.73235 0.28389 0.0
O77 O 0.88115 0.73258 0.31898 0.0
O78 O 0.91215 0.73231 0.31528 0.0
C79 C 0.92787 0.72749 0.47142 0.0
Tb80 Tb 0.6708 0.74037 0.95608 0.0
C81 C 0.66422 0.67621 0.01737 0.0
Tb82 Tb 0.66118 0.75183 0.0873 0.0
O83 O 0.69997 0.72113 0.97736 0.0
O84 O 0.68607 0.75846 0.03535 0.0
O85 O 0.66401 0.68868 0.96604 0.0
C86 C 0.66261 0.75258 0.20553 0.0
O87 O 0.66465 0.69604 0.06957 0.0
C88 C 0.63101 0.7551 0.01653 0.0
C89 C 0.66657 0.81571 0.02151 0.0
O90 O 0.67766 0.75129 0.1703 0.0
O91 O 0.64669 0.75356 0.17424 0.0
O92 O 0.63263 0.77257 0.06885 0.0
O93 O 0.64523 0.73462 0.00829 0.0
O94 O 0.6671 0.80439 0.07425 0.0
O95 O 0.66624 0.79498 0.97073 0.0
C96 C 0.67002 0.73956 0.83781 0.0
O97 O 0.65475 0.74049 0.87222 0.0
O98 O 0.68577 0.73894 0.86994 0.0
C99 C 0.70083 0.73945 0.02913 0.0
Tb100 Tb 0.39736 0.74319 0.09095 0.0
C101 C 0.39288 0.80756 0.02127 0.0
Tb102 Tb 0.38791 0.73276 0.95358 0.0
O103 O 0.42958 0.73736 0.08512 0.0
O104 O 0.41225 0.73534 0.0104 0.0
O105 O 0.3938 0.79606 0.07405 0.0
C106 C 0.38817 0.73261 0.83615 0.0
O107 O 0.39149 0.7874 0.9699 0.0
C108 C 0.35839 0.72979 0.0281 0.0
C109 C 0.39573 0.66906 0.01673 0.0
O110 O 0.4037 0.73285 0.86952 0.0
O111 O 0.37252 0.73229 0.8688 0.0
O112 O 0.35893 0.71262 0.97521 0.0
O113 O 0.3732 0.74881 0.0348 0.0
O114 O 0.39684 0.6822 0.9659 0.0
O115 O 0.3934 0.68787 0.06953 0.0
C116 C 0.39201 0.74933 0.20787 0.0
O117 O 0.38182 0.72966 0.16895 0.0
O118 O 0.40517 0.76555 0.18092 0.0
C119 C 0.42976 0.73377 0.02729 0.0
Tb120 Tb 0.67017 0.24721 0.0337 0.0
C121 C 0.66456 0.3117 0.97316 0.0
Tb122 Tb 0.6615 0.23645 0.90201 0.0
O123 O 0.69942 0.26736 0.0144 0.0
O124 O 0.68599 0.22994 0.95534 0.0
O125 O 0.66394 0.29905 0.02425 0.0
C126 C 0.66292 0.23592 0.78394 0.0
O127 O 0.66538 0.29208 0.92083 0.0
C128 C 0.63092 0.23077 0.96957 0.0
C129 C 0.66569 0.17226 0.96732 0.0
O130 O 0.64711 0.23897 0.8161 0.0
O131 O 0.67792 0.23306 0.8182 0.0
O132 O 0.63329 0.21386 0.91709 0.0
O133 O 0.64472 0.25215 0.9802 0.0
O134 O 0.6671 0.18379 0.91488 0.0
O135 O 0.6647 0.19285 0.01815 0.0
C136 C 0.66959 0.24773 0.15183 0.0
O137 O 0.68508 0.24341 0.1184 0.0
O138 O 0.65445 0.25189 0.1188 0.0
C139 C 0.70067 0.24915 0.96263 0.0
Tb140 Tb 0.39458 0.22824 0.90112 0.0
C141 C 0.39069 0.16513 0.96825 0.0
Tb142 Tb 0.38607 0.23972 0.03225 0.0
O143 O 0.42353 0.20808 0.91448 0.0
O144 O 0.41159 0.24483 0.97887 0.0
O145 O 0.38714 0.17653 0.91662 0.0
C146 C 0.38555 0.24067 0.1505 0.0
O147 O 0.39369 0.18617 0.0177 0.0
C148 C 0.35554 0.24155 0.96106 0.0
C149 C 0.39282 0.30419 0.97074 0.0
O150 O 0.37212 0.22736 0.11403 0.0
O151 O 0.39924 0.25357 0.12043 0.0
O152 O 0.35695 0.25996 0.01257 0.0
O153 O 0.37001 0.22199 0.95424 0.0
O154 O 0.39156 0.29191 0.02214 0.0
O155 O 0.39348 0.28427 0.91868 0.0
C156 C 0.39159 0.22753 0.78319 0.0
O157 O 0.37886 0.24049 0.82213 0.0
O158 O 0.406 0.21492 0.81061 0.0
C159 C 0.42572 0.22437 0.96748 0.0
C160 C 0.2176 0.27213 0.61915 0.0
C161 C 0.21573 0.24588 0.57168 0.0
C162 C 0.23269 0.27172 0.66103 0.0
C163 C 0.26851 0.21409 0.72058 0.0
H164 H 0.29376 0.29823 0.786 0.0
C165 C 0.33819 0.21725 0.86781 0.0
C166 C 0.33932 0.24223 0.91758 0.0
C167 C 0.32311 0.21781 0.82595 0.0
C168 C 0.28672 0.27454 0.76869 0.0
H169 H 0.22851 0.19901 0.52984 0.0
H170 H 0.25521 0.19852 0.60216 0.0
H171 H 0.26791 0.29895 0.7116 0.0
H172 H 0.32548 0.2873 0.96278 0.0
H173 H 0.29897 0.28827 0.88974 0.0
H174 H 0.28745 0.18969 0.77741 0.0
C175 C 0.24472 0.21911 0.608 0.0
C176 C 0.27186 0.27493 0.72595 0.0
C177 C 0.22953 0.21949 0.56621 0.0
C178 C 0.32498 0.26775 0.9248 0.0
C179 C 0.30989 0.2684 0.88274 0.0
C180 C 0.28342 0.21369 0.76314 0.0
C181 C 0.24647 0.24518 0.65619 0.0
C182 C 0.26251 0.24471 0.7013 0.0
C183 C 0.30875 0.24339 0.83276 0.0
C184 C 0.29272 0.24391 0.7878 0.0
H185 H 0.20735 0.2931 0.62402 0.0
H186 H 0.23336 0.29204 0.69773 0.0
H187 H 0.26145 0.19038 0.70354 0.0
H188 H 0.34903 0.19721 0.86108 0.0
H189 H 0.32287 0.19841 0.78772 0.0
C190 C 0.73219 0.27306 0.92718 0.0
C191 C 0.71742 0.24815 0.92064 0.0
C192 C 0.74773 0.27196 0.88619 0.0
C193 C 0.7734 0.21345 0.76898 0.0
H194 H 0.79251 0.29675 0.71733 0.0
C195 C 0.82698 0.21473 0.56946 0.0
C196 C 0.84227 0.23868 0.5765 0.0
C197 C 0.81185 0.21569 0.61179 0.0
C198 C 0.78749 0.27325 0.73167 0.0
H199 H 0.70763 0.20204 0.86716 0.0
H200 H 0.7342 0.2006 0.79509 0.0
H201 H 0.76634 0.29895 0.79125 0.0
H202 H 0.85367 0.28253 0.63301 0.0
H203 H 0.82749 0.28409 0.70672 0.0
H204 H 0.79446 0.18777 0.70894 0.0
C205 C 0.73406 0.22084 0.83197 0.0
C206 C 0.77248 0.27453 0.77426 0.0
C207 C 0.71865 0.22189 0.87295 0.0
C208 C 0.84209 0.26368 0.62637 0.0
C209 C 0.82699 0.26472 0.66846 0.0
C210 C 0.78835 0.21218 0.72622 0.0
C211 C 0.74884 0.24585 0.83786 0.0
C212 C 0.76519 0.24464 0.79347 0.0
C213 C 0.81166 0.24077 0.6618 0.0
C214 C 0.79559 0.24206 0.70696 0.0
H215 H 0.73167 0.29349 0.96372 0.0
H216 H 0.75897 0.29141 0.89271 0.0
H217 H 0.76845 0.18992 0.78334 0.0
H218 H 0.82674 0.19521 0.53142 0.0
H219 H 0.80018 0.19704 0.60494 0.0
C220 C 0.32745 0.70444 0.06408 0.0
C221 C 0.3424 0.72903 0.0723 0.0
C222 C 0.31219 0.70434 0.10573 0.0
C223 C 0.28746 0.69976 0.21797 0.0
H224 H 0.26488 0.78628 0.28167 0.0
C225 C 0.23183 0.71555 0.41512 0.0
C226 C 0.21615 0.73806 0.41124 0.0
C227 C 0.24703 0.71309 0.37293 0.0
C228 C 0.27091 0.76186 0.26409 0.0
H229 H 0.3531 0.77279 0.1304 0.0
H230 H 0.32669 0.77246 0.20317 0.0
H231 H 0.29162 0.78444 0.20985 0.0
H232 H 0.20406 0.7756 0.36019 0.0
H233 H 0.23032 0.77103 0.28636 0.0
H234 H 0.26654 0.6772 0.27197 0.0
C235 C 0.32658 0.75339 0.16445 0.0
C236 C 0.28642 0.76084 0.22334 0.0
C237 C 0.34182 0.75343 0.12296 0.0
C238 C 0.2159 0.75787 0.36421 0.0
C239 C 0.23106 0.75547 0.32217 0.0
C240 C 0.27198 0.7008 0.25909 0.0
C241 C 0.31149 0.72899 0.15626 0.0
C242 C 0.29492 0.7298 0.19969 0.0
C243 C 0.24693 0.73326 0.32618 0.0
C244 C 0.26347 0.73188 0.28257 0.0
H245 H 0.32752 0.68536 0.02537 0.0
H246 H 0.30072 0.68537 0.0977 0.0
H247 H 0.29375 0.67544 0.20103 0.0
H248 H 0.23242 0.70003 0.45101 0.0
H249 H 0.25909 0.69594 0.37771 0.0
C250 C 0.73166 0.71488 0.06706 0.0
C251 C 0.7172 0.7402 0.07251 0.0
C252 C 0.74688 0.71557 0.10905 0.0
C253 C 0.7731 0.77336 0.22578 0.0
H254 H 0.78996 0.68977 0.28081 0.0
C255 C 0.82758 0.77182 0.42312 0.0
C256 C 0.84186 0.7462 0.41764 0.0
C257 C 0.81224 0.77122 0.38151 0.0
C258 C 0.78561 0.71335 0.26551 0.0
H259 H 0.70759 0.78654 0.12532 0.0
H260 H 0.73381 0.78751 0.19887 0.0
H261 H 0.76389 0.68841 0.20669 0.0
H262 H 0.85102 0.69943 0.36523 0.0
H263 H 0.82468 0.69872 0.29224 0.0
H264 H 0.79484 0.7983 0.2845 0.0
C265 C 0.73359 0.76719 0.16213 0.0
C266 C 0.77063 0.71254 0.22286 0.0
C267 C 0.71842 0.76646 0.12024 0.0
C268 C 0.84036 0.71977 0.37029 0.0
C269 C 0.8251 0.71917 0.32874 0.0
C270 C 0.78809 0.77416 0.26839 0.0
C271 C 0.74804 0.74174 0.15725 0.0
C272 C 0.76416 0.74253 0.20236 0.0
C273 C 0.81081 0.74489 0.33364 0.0
C274 C 0.79458 0.74416 0.28885 0.0
H275 H 0.73114 0.6944 0.03058 0.0
H276 H 0.75787 0.69578 0.10336 0.0
H277 H 0.76873 0.79692 0.21047 0.0
H278 H 0.82832 0.79242 0.45933 0.0
H279 H 0.80139 0.79123 0.38724 0.0
C280 C 0.16232 0.87491 0.43658 0.0
C281 C 0.16474 0.85756 0.48636 0.0
C282 C 0.16156 0.91034 0.44339 0.0
C283 C 0.17519 0.98663 0.54658 0.0
H284 H 0.13739 0.03085 0.45454 0.0
C285 C 0.16428 0.13289 0.57599 0.0
C286 C 0.16244 0.14749 0.52294 0.0
C287 C 0.16388 0.09754 0.57486 0.0
C288 C 0.14813 0.01891 0.48027 0.0
H289 H 0.16832 0.86413 0.58251 0.0
H290 H 0.16689 0.92571 0.59415 0.0
H291 H 0.13832 0.96919 0.44512 0.0
H292 H 0.15872 0.13618 0.42709 0.0
H293 H 0.15821 0.07523 0.4253 0.0
H294 H 0.18511 0.03646 0.58128 0.0
C295 C 0.16577 0.91194 0.5498 0.0
C296 C 0.14869 0.98355 0.47476 0.0
C297 C 0.16648 0.87655 0.54304 0.0
C298 C 0.16013 0.12599 0.46897 0.0
C299 C 0.15968 0.09089 0.46789 0.0
C300 C 0.17464 0.02206 0.55204 0.0
C301 C 0.16325 0.92928 0.5001 0.0
C302 C 0.16235 0.96695 0.50737 0.0
C303 C 0.16153 0.07617 0.52071 0.0
C304 C 0.16126 0.03861 0.5184 0.0
H305 H 0.16097 0.86117 0.39225 0.0
H306 H 0.15987 0.92293 0.40407 0.0
H307 H 0.18601 0.97463 0.57194 0.0
H308 H 0.16609 0.14869 0.61831 0.0
H309 H 0.16521 0.08697 0.6164 0.0
C310 C 0.89137 0.37344 0.57132 0.0
C311 C 0.89465 0.34947 0.5211 0.0
C312 C 0.89107 0.40813 0.56587 0.0
C313 C 0.8835 0.46709 0.45475 0.0
H314 H 0.91044 0.53207 0.56931 0.0
C315 C 0.89372 0.60814 0.42071 0.0
C316 C 0.89149 0.63213 0.47147 0.0
C317 C 0.89405 0.57343 0.42602 0.0
C318 C 0.90265 0.5143 0.53725 0.0
H319 H 0.90049 0.34328 0.42591 0.0
H320 H 0.90003 0.40329 0.41683 0.0
H321 H 0.9108 0.47212 0.5819 0.0
H322 H 0.88735 0.63835 0.56746 0.0
H323 H 0.88761 0.57838 0.57627 0.0
H324 H 0.87525 0.50923 0.41025 0.0
C325 C 0.89743 0.3954 0.46019 0.0
C326 C 0.90286 0.47997 0.54457 0.0
C327 C 0.89781 0.36093 0.46562 0.0
C328 C 0.88929 0.62068 0.52733 0.0
C329 C 0.88956 0.58619 0.53257 0.0
C330 C 0.88324 0.50144 0.44753 0.0
C331 C 0.89394 0.41939 0.51007 0.0
C332 C 0.89331 0.45599 0.50335 0.0
C333 C 0.89213 0.56213 0.48217 0.0
C334 C 0.89278 0.52546 0.48876 0.0
H335 H 0.88889 0.36545 0.61465 0.0
H336 H 0.88824 0.42608 0.60508 0.0
H337 H 0.8758 0.44923 0.42261 0.0
H338 H 0.8955 0.61613 0.37709 0.0
H339 H 0.8962 0.55551 0.38634 0.0
C340 C 0.89618 0.86196 0.42347 0.0
C341 C 0.89682 0.84593 0.4752 0.0
C342 C 0.89671 0.89743 0.42756 0.0
C343 C 0.91012 0.97444 0.53082 0.0
H344 H 0.87482 0.01989 0.43291 0.0
C345 C 0.89674 0.11987 0.5689 0.0
C346 C 0.89584 0.13608 0.51739 0.0
C347 C 0.89722 0.08437 0.56432 0.0
C348 C 0.8849 0.00758 0.46022 0.0
H349 H 0.89865 0.85482 0.57185 0.0
H350 H 0.89932 0.91597 0.57867 0.0
H351 H 0.87565 0.95815 0.42143 0.0
H352 H 0.89501 0.12747 0.42058 0.0
H353 H 0.896 0.06632 0.41299 0.0
H354 H 0.91928 0.02394 0.56981 0.0
C355 C 0.89871 0.90136 0.53491 0.0
C356 C 0.88542 0.97218 0.45346 0.0
C357 C 0.89817 0.86613 0.53087 0.0
C358 C 0.89557 0.11604 0.46142 0.0
C359 C 0.89602 0.0808 0.45691 0.0
C360 C 0.90958 0.00986 0.53764 0.0
C361 C 0.89795 0.91751 0.48344 0.0
C362 C 0.898 0.95517 0.48875 0.0
C363 C 0.89673 0.06449 0.50817 0.0
C364 C 0.89697 0.02684 0.50237 0.0
H365 H 0.89516 0.84719 0.37993 0.0
H366 H 0.89627 0.90913 0.38698 0.0
H367 H 0.92018 0.96213 0.5582 0.0
H368 H 0.89695 0.13452 0.61266 0.0
H369 H 0.89764 0.07249 0.60471 0.0
C370 C 0.15681 0.63069 0.51663 0.0
C371 C 0.16118 0.64355 0.46306 0.0
C372 C 0.15633 0.59593 0.5193 0.0
C373 C 0.17492 0.51467 0.44413 0.0
H374 H 0.13712 0.47732 0.54644 0.0
C375 C 0.16747 0.37105 0.4567 0.0
C376 C 0.16493 0.36053 0.51323 0.0
C377 C 0.16692 0.40534 0.44945 0.0
C378 C 0.1479 0.48743 0.51822 0.0
H379 H 0.16804 0.62954 0.36971 0.0
H380 H 0.16697 0.56825 0.37419 0.0
H381 H 0.13515 0.53688 0.53208 0.0
H382 H 0.15994 0.37806 0.60663 0.0
H383 H 0.15893 0.43827 0.5939 0.0
H384 H 0.18758 0.46503 0.43014 0.0
C385 C 0.16416 0.58544 0.41437 0.0
C386 C 0.14676 0.52157 0.50981 0.0
C387 C 0.16464 0.62052 0.41165 0.0
C388 C 0.16196 0.38528 0.56254 0.0
C389 C 0.16126 0.41972 0.55515 0.0
C390 C 0.17599 0.48044 0.4523 0.0
C391 C 0.16011 0.57278 0.46845 0.0
C392 C 0.16039 0.53575 0.4732 0.0
C393 C 0.16369 0.43009 0.49843 0.0
C394 C 0.16259 0.4665 0.48985 0.0
H395 H 0.15397 0.64749 0.55727 0.0
H396 H 0.15348 0.58727 0.5619 0.0
H397 H 0.18583 0.52481 0.41637 0.0
H398 H 0.16984 0.35278 0.41759 0.0
H399 H 0.16863 0.4124 0.40512 0.0
C400 C 0.66418 0.62295 0.0669 0.0
C401 C 0.66368 0.63883 0.01499 0.0
C402 C 0.66408 0.58749 0.06298 0.0
C403 C 0.67526 0.51077 0.95823 0.0
H404 H 0.64224 0.46477 0.06204 0.0
C405 C 0.66402 0.36506 0.92406 0.0
C406 C 0.66417 0.34909 0.97588 0.0
C407 C 0.66367 0.40052 0.92816 0.0
C408 C 0.65169 0.47724 0.03306 0.0
H409 H 0.66241 0.62973 0.91825 0.0
H410 H 0.66209 0.56858 0.91184 0.0
H411 H 0.64269 0.52658 0.07286 0.0
H412 H 0.66425 0.35802 0.07268 0.0
H413 H 0.6639 0.41917 0.07946 0.0
H414 H 0.68433 0.4615 0.91857 0.0
C415 C 0.66287 0.58333 0.95547 0.0
C416 C 0.65197 0.51264 0.0394 0.0
C417 C 0.66292 0.61853 0.95933 0.0
C418 C 0.66401 0.36931 0.03166 0.0
C419 C 0.66368 0.40452 0.0357 0.0
C420 C 0.67501 0.47538 0.95196 0.0
C421 C 0.66356 0.56735 0.0071 0.0
C422 C 0.66372 0.52979 0.00197 0.0
C423 C 0.66345 0.4206 0.98413 0.0
C424 C 0.66324 0.4582 0.98933 0.0
H425 H 0.66479 0.63783 0.11042 0.0
H426 H 0.66473 0.57584 0.10359 0.0
H427 H 0.68468 0.52327 0.9292 0.0
H428 H 0.66412 0.35026 0.88044 0.0
H429 H 0.66335 0.41219 0.88754 0.0
C430 C 0.39001 0.85654 0.96288 0.0
C431 C 0.39262 0.84462 0.01825 0.0
C432 C 0.38962 0.89116 0.95866 0.0
C433 C 0.40525 0.974 0.03467 0.0
H434 H 0.3669 0.00847 0.93092 0.0
C435 C 0.39436 0.11691 0.0279 0.0
C436 C 0.39101 0.12825 0.97244 0.0
C437 C 0.3946 0.08239 0.03324 0.0
C438 C 0.37787 -0.0008 0.95944 0.0
H439 H 0.39693 0.86012 0.11272 0.0
H440 H 0.39622 0.921 0.10524 0.0
H441 H 0.36682 0.94844 0.94295 0.0
H442 H 0.38536 0.11198 0.87891 0.0
H443 H 0.38597 0.05136 0.88812 0.0
H444 H 0.41639 0.02469 0.05088 0.0
C445 C 0.39458 0.90323 0.06509 0.0
C446 C 0.37778 0.96481 0.96653 0.0
C447 C 0.39489 0.86838 0.06942 0.0
C448 C 0.38794 0.10412 0.92227 0.0
C449 C 0.38819 0.0694 0.92765 0.0
C450 C 0.40537 0.00838 0.02748 0.0
C451 C 0.39185 0.91496 0.0096 0.0
C452 C 0.3915 0.95179 0.0041 0.0
C453 C 0.39154 0.05817 0.98327 0.0
C454 C 0.39168 0.02141 0.98976 0.0
H455 H 0.38826 0.83915 0.92231 0.0
H456 H 0.38782 0.89929 0.91515 0.0
H457 H 0.4162 0.96467 0.06318 0.0
H458 H 0.39672 0.13469 0.06769 0.0
H459 H 0.39688 0.07473 0.07689 0.0
C460 C 0.39636 0.35711 0.92102 0.0
C461 C 0.39398 0.34156 0.97287 0.0
C462 C 0.39742 0.39253 0.92454 0.0
C463 C 0.40722 0.46962 0.0318 0.0
H464 H 0.37924 0.51598 0.91722 0.0
C465 C 0.39456 0.61503 0.06388 0.0
C466 C 0.39678 0.63161 0.0131 0.0
C467 C 0.39491 0.57955 0.05889 0.0
C468 C 0.3873 0.50339 0.94925 0.0
H469 H 0.39066 0.35126 0.06907 0.0
H470 H 0.39224 0.41233 0.07479 0.0
H471 H 0.37894 0.4542 0.90684 0.0
H472 H 0.40155 0.62366 0.91736 0.0
H473 H 0.40227 0.56236 0.9091 0.0
H474 H 0.41541 0.51886 0.07452 0.0
C475 C 0.39368 0.39737 0.03154 0.0
C476 C 0.38717 0.46797 0.94317 0.0
C477 C 0.39264 0.36219 0.02808 0.0
C478 C 0.39964 0.61191 0.95753 0.0
C479 C 0.39994 0.57663 0.95258 0.0
C480 C 0.4073 0.50503 0.03797 0.0
C481 C 0.39614 0.41304 0.97996 0.0
C482 C 0.39705 0.45065 0.98456 0.0
C483 C 0.39744 0.55998 0.00303 0.0
C484 C 0.3973 0.52233 -0.00315 0.0
H485 H 0.39745 0.342 0.87782 0.0
H486 H 0.39946 0.40383 0.88396 0.0
H487 H 0.41525 0.45708 0.06395 0.0
H488 H 0.39231 0.62938 0.10732 0.0
H489 H 0.39281 0.56742 0.09858 0.0
C490 C 0.66703 0.11151 0.91962 0.0
C491 C 0.66554 0.13538 0.97084 0.0
C492 C 0.66703 0.07675 0.92446 0.0
C493 C 0.65307 0.01546 0.02732 0.0
H494 H 0.68987 0.95605 0.93454 0.0
C495 C 0.66596 0.87655 0.06885 0.0
C496 C 0.66687 0.85256 0.01765 0.0
C497 C 0.66599 0.91127 0.06378 0.0
C498 C 0.67941 0.9723 0.96043 0.0
H499 H 0.66286 0.14133 0.06733 0.0
H500 H 0.66311 0.08131 0.07545 0.0
H501 H 0.68893 0.01604 0.92217 0.0
H502 H 0.6686 0.84635 0.92095 0.0
H503 H 0.66854 0.90639 0.91248 0.0
H504 H 0.6436 0.97172 0.06571 0.0
C505 C 0.66398 0.08923 0.03153 0.0
C506 C 0.67882 0.00661 0.95315 0.0
C507 C 0.66398 0.12376 0.02676 0.0
C508 C 0.66791 0.86402 0.9615 0.0
C509 C 0.66802 0.89853 0.9565 0.0
C510 C 0.65369 0.98117 0.03468 0.0
C511 C 0.66548 0.06529 0.98056 0.0
C512 C 0.66567 0.02859 0.98658 0.0
C513 C 0.66704 0.92256 0.00747 0.0
C514 C 0.66685 0.95922 0.00127 0.0
H515 H 0.66822 0.11961 0.87591 0.0
H516 H 0.66805 0.05885 0.88427 0.0
H517 H 0.64257 0.03165 0.05314 0.0
H518 H 0.66515 0.86857 0.11272 0.0
H519 H 0.66537 0.92928 0.1039 0.0
C520 C 0.1498 0.24227 0.24257 0.0
C521 C 0.16774 0.24556 0.27339 0.0
C522 C 0.14918 0.24397 0.1813 0.0
C523 C 0.18029 0.23615 0.04605 0.0
H524 H 0.13825 0.28668 0.98295 0.0
C525 C 0.1801 0.26589 0.80278 0.0
C526 C 0.16208 0.26264 0.77239 0.0
C527 C 0.18088 0.26415 0.86404 0.0
C528 C 0.14997 0.27217 -0.00027 0.0
H529 H 0.1991 0.25295 0.26464 0.0
H530 H 0.19806 0.25617 0.15771 0.0
H531 H 0.13941 0.28229 0.08924 0.0
H532 H 0.13075 0.25514 0.78182 0.0
H533 H 0.13207 0.25185 0.88865 0.0
H534 H 0.19085 0.22603 0.9565 0.0
C535 C 0.18447 0.2519 0.18057 0.0
C536 C 0.15063 0.26963 0.06069 0.0
C537 C 0.18508 0.25022 0.24185 0.0
C538 C 0.14483 0.25788 0.80428 0.0
C539 C 0.14559 0.25616 0.86551 0.0
C540 C 0.17964 0.2387 0.98507 0.0
C541 C 0.1665 0.24898 0.14958 0.0
C542 C 0.16579 0.25156 0.08462 0.0
C543 C 0.16364 0.25913 0.89613 0.0
C544 C 0.16446 0.25672 0.96114 0.0
H545 H 0.13621 0.23859 0.26586 0.0
H546 H 0.13513 0.24114 0.1587 0.0
H547 H 0.19201 0.22164 0.06284 0.0
H548 H 0.19362 0.26961 0.77917 0.0
H549 H 0.19498 0.26698 0.88634 0.0
C550 C 0.9025 0.22125 0.24142 0.0
C551 C 0.88803 0.23868 0.27724 0.0
C552 C 0.9027 0.22234 0.17999 0.0
C553 C 0.90713 0.24476 0.05821 0.0
H554 H 0.85842 0.24567 0.96961 0.0
C555 C 0.90655 0.26844 0.81267 0.0
C556 C 0.89316 0.2498 0.77426 0.0
C557 C 0.90542 0.26784 0.87412 0.0
C558 C 0.87218 0.24511 0.9935 0.0
H559 H 0.86243 0.27091 0.27746 0.0
H560 H 0.863 0.27361 0.17043 0.0
H561 H 0.85742 0.24155 0.07585 0.0
H562 H 0.868 0.21611 0.76946 0.0
H563 H 0.86631 0.21412 0.87661 0.0
H564 H 0.92193 0.24701 0.97565 0.0
C565 C 0.87398 0.25847 0.1893 0.0
C566 C 0.8716 0.24323 0.0547 0.0
C567 C 0.8737 0.25712 0.25069 0.0
C568 C 0.87849 0.23076 0.79825 0.0
C569 C 0.87746 0.22984 0.85969 0.0
C570 C 0.90772 0.24636 -0.003 0.0
C571 C 0.88852 0.24117 0.15314 0.0
C572 C 0.88907 0.24305 0.08789 0.0
C573 C 0.89098 0.24825 0.89845 0.0
C574 C 0.89026 0.24663 0.96379 0.0
H575 H 0.91367 0.2067 0.26083 0.0
H576 H 0.9139 0.20819 0.15353 0.0
H577 H 0.92089 0.24519 0.08233 0.0
H578 H 0.91792 0.28356 0.79525 0.0
H579 H 0.91582 0.2829 0.90255 0.0
C580 C 0.15056 0.75957 0.1865 0.0
C581 C 0.16583 0.74655 0.21826 0.0
C582 C 0.15259 0.76175 0.12589 0.0
C583 C 0.18206 0.7299 0.99267 0.0
H584 H 0.15817 0.80646 0.93023 0.0
C585 C 0.19131 0.75728 0.74874 0.0
C586 C 0.17349 0.76156 0.71942 0.0
C587 C 0.19164 0.75677 0.81033 0.0
C588 C 0.16488 0.78495 0.94713 0.0
H589 H 0.19521 0.72558 0.21228 0.0
H590 H 0.19908 0.73024 0.10622 0.0
H591 H 0.15678 0.80284 0.03669 0.0
H592 H 0.14216 0.76944 0.73092 0.0
H593 H 0.14279 0.76939 0.83889 0.0
H594 H 0.1904 0.71248 0.90262 0.0
C595 C 0.18533 0.73808 0.12774 0.0
C596 C 0.164 0.7827 0.00803 0.0
C597 C 0.18317 0.73549 0.18845 0.0
C598 C 0.15608 0.76614 0.75263 0.0
C599 C 0.15646 0.76621 0.81426 0.0
C600 C 0.18317 0.73242 0.93176 0.0
C601 C 0.17008 0.75147 0.09581 0.0
C602 C 0.17225 0.75483 0.03147 0.0
C603 C 0.1742 0.76115 0.84354 0.0
C604 C 0.17431 0.7597 0.90842 0.0
H605 H 0.13699 0.76807 0.20851 0.0
H606 H 0.14035 0.77138 0.10259 0.0
H607 H 0.18838 0.7079 0.00896 0.0
H608 H 0.20492 0.75359 0.72394 0.0
H609 H 0.20551 0.753 0.83203 0.0
C610 C 0.9075 0.74364 0.7464 0.0
C611 C 0.88947 0.74454 0.7166 0.0
C612 C 0.90802 0.74257 0.80782 0.0
C613 C 0.87778 0.72046 0.93284 0.0
H614 H 0.91665 0.77349 0.02974 0.0
C615 C 0.87706 0.73399 0.19026 0.0
C616 C 0.89528 0.73303 0.21903 0.0
C617 C 0.87617 0.73532 0.12892 0.0
C618 C 0.90585 0.75822 0.00324 0.0
H619 H 0.85783 0.74519 0.72726 0.0
H620 H 0.85868 0.74367 0.8348 0.0
H621 H 0.91536 0.77635 0.92299 0.0
H622 H 0.92685 0.73237 0.20663 0.0
H623 H 0.92535 0.73432 0.09936 0.0
H624 H 0.86828 0.70231 0.01315 0.0
C625 C 0.87244 0.74337 0.8107 0.0
C626 C 0.9051 0.75988 0.94202 0.0
C627 C 0.87194 0.74445 0.74923 0.0
C628 C 0.91261 0.7332 0.18548 0.0
C629 C 0.91174 0.73453 0.12415 0.0
C630 C 0.87853 0.7188 0.9941 0.0
C631 C 0.8905 0.74237 0.84073 0.0
C632 C 0.89109 0.74095 0.90603 0.0
C633 C 0.89351 0.73573 0.09515 0.0
C634 C 0.8926 0.7376 0.03002 0.0
H635 H 0.92124 0.74355 0.72219 0.0
H636 H 0.92217 0.74135 0.82936 0.0
H637 H 0.86699 0.70517 0.9063 0.0
H638 H 0.86347 0.73398 0.21522 0.0
H639 H 0.8619 0.73662 0.10814 0.0
C640 C 0.64617 0.75279 0.30419 0.0
C641 C 0.66349 0.75197 0.27042 0.0
C642 C 0.64702 0.75148 0.36554 0.0
C643 C 0.68052 0.76548 0.49517 0.0
H644 H 0.64274 0.70991 0.56694 0.0
C645 C 0.68695 0.73935 0.7398 0.0
C646 C 0.66947 0.74013 0.77285 0.0
C647 C 0.68638 0.74049 0.67834 0.0
C648 C 0.65327 0.72584 0.54773 0.0
H649 H 0.69527 0.7493 0.27389 0.0
H650 H 0.69678 0.74671 0.38098 0.0
H651 H 0.6414 0.7129 0.46023 0.0
H652 H 0.63772 0.7427 0.768 0.0
H653 H 0.63669 0.74501 0.66088 0.0
H654 H 0.69238 0.77844 0.58273 0.0
C655 C 0.68254 0.74876 0.36036 0.0
C656 C 0.6525 0.72757 0.48653 0.0
C657 C 0.68168 0.75006 0.29901 0.0
C658 C 0.65142 0.74193 0.74347 0.0
C659 C 0.65084 0.74307 0.68207 0.0
C660 C 0.6813 0.76375 0.55641 0.0
C661 C 0.66521 0.74933 0.39435 0.0
C662 C 0.66609 0.74746 0.4595 0.0
C663 C 0.66831 0.74242 0.64874 0.0
C664 C 0.66765 0.74396 0.58346 0.0
H665 H 0.63195 0.75436 0.28319 0.0
H666 H 0.63341 0.75245 0.3905 0.0
H667 H 0.69105 0.78141 0.47594 0.0
H668 H 0.70107 0.7379 0.76143 0.0
H669 H 0.7001 0.73952 0.65392 0.0
C670 C 0.37104 0.72698 0.73826 0.0
C671 C 0.38824 0.73401 0.7717 0.0
C672 C 0.371 0.72893 0.67715 0.0
C673 C 0.40471 0.73192 0.54868 0.0
H674 H 0.3583 0.7648 0.47498 0.0
C675 C 0.40481 0.76659 0.31009 0.0
C676 C 0.39013 0.75082 0.27272 0.0
C677 C 0.40397 0.76564 0.37137 0.0
C678 C 0.3713 0.75545 0.49509 0.0
H679 H 0.4188 0.74897 0.7685 0.0
H680 H 0.41863 0.75376 0.66234 0.0
H681 H 0.3583 0.76091 0.58165 0.0
H682 H 0.36267 0.72291 0.26957 0.0
H683 H 0.361 0.72181 0.37743 0.0
H684 H 0.41783 0.72744 0.46213 0.0
C685 C 0.40529 0.74566 0.68249 0.0
C686 C 0.37131 0.75301 0.55606 0.0
C687 C 0.4054 0.74314 0.74338 0.0
C688 C 0.3742 0.73515 0.29765 0.0
C689 C 0.3732 0.73463 0.35914 0.0
C690 C 0.40479 0.73487 0.488 0.0
C691 C 0.3881 0.73853 0.64853 0.0
C692 C 0.38802 0.74115 0.58363 0.0
C693 C 0.38828 0.74934 0.39632 0.0
C694 C 0.38809 0.74661 0.46071 0.0
H695 H 0.35765 0.71972 0.75924 0.0
H696 H 0.3576 0.72261 0.65235 0.0
H697 H 0.41769 0.722 0.56795 0.0
H698 H 0.41723 0.77888 0.29182 0.0
H699 H 0.41566 0.77746 0.3993 0.0
C700 C 0.6865 0.24205 0.24788 0.0
C701 C 0.66914 0.24707 0.21671 0.0
C702 C 0.68601 0.24081 0.30927 0.0
C703 C 0.65237 0.22504 0.43062 0.0
H704 H 0.69272 0.27032 0.53284 0.0
C705 C 0.64655 0.2407 0.68684 0.0
C706 C 0.66377 0.23641 0.71907 0.0
C707 C 0.64736 0.24166 0.62544 0.0
C708 C 0.68148 0.25719 0.50484 0.0
H709 H 0.63772 0.25495 0.22485 0.0
H710 H 0.63684 0.25305 0.33219 0.0
H711 H 0.69386 0.27292 0.4259 0.0
H712 H 0.69532 0.22958 0.71286 0.0
H713 H 0.69675 0.23085 0.60535 0.0
H714 H 0.64 0.20926 0.50944 0.0
C715 C 0.6508 0.24967 0.30924 0.0
C716 C 0.68212 0.25871 0.44355 0.0
C717 C 0.65131 0.25097 0.24789 0.0
C718 C 0.68182 0.23298 0.68895 0.0
C719 C 0.68265 0.23392 0.6275 0.0
C720 C 0.65174 0.22349 0.49186 0.0
C721 C 0.66814 0.24448 0.34063 0.0
C722 C 0.66755 0.24272 0.40575 0.0
C723 C 0.66542 0.23833 0.59502 0.0
C724 C 0.66626 0.23961 0.52974 0.0
H725 H 0.70044 0.23887 0.22477 0.0
H726 H 0.69958 0.23639 0.332 0.0
H727 H 0.6411 0.21198 0.40261 0.0
H728 H 0.63245 0.24354 0.70913 0.0
H729 H 0.63386 0.24556 0.60195 0.0
C730 C 0.37153 0.22114 0.24209 0.0
C731 C 0.38555 0.24028 0.21548 0.0
C732 C 0.37185 0.21998 0.30352 0.0
C733 C 0.36917 0.23513 0.43785 0.0
H734 H 0.41945 0.23484 0.51823 0.0
C735 C 0.37529 0.24637 0.69434 0.0
C736 C 0.39026 0.2281 0.71839 0.0
C737 C 0.37443 0.24786 0.63304 0.0
C738 C 0.40526 0.23451 0.4965 0.0
H739 H 0.41068 0.2737 0.23184 0.0
H740 H 0.41095 0.27261 0.33928 0.0
H741 H 0.41849 0.23681 0.41156 0.0
H742 H 0.41579 0.19641 0.6976 0.0
H743 H 0.41402 0.19804 0.59048 0.0
H744 H 0.35596 0.23149 0.52247 0.0
C745 C 0.39997 0.25774 0.31282 0.0
C746 C 0.40471 0.2362 0.43529 0.0
C747 C 0.39976 0.2586 0.25131 0.0
C748 C 0.40417 0.21086 0.68014 0.0
C749 C 0.40322 0.21205 0.6188 0.0
C750 C 0.36973 0.23314 0.49902 0.0
C751 C 0.38611 0.23822 0.33974 0.0
C752 C 0.38665 0.23658 0.4051 0.0
C753 C 0.38844 0.2308 0.59443 0.0
C754 C 0.38779 0.23282 0.52919 0.0
H755 H 0.36048 0.20663 0.21532 0.0
H756 H 0.36114 0.20424 0.32237 0.0
H757 H 0.35498 0.23581 0.41638 0.0
H758 H 0.3644 0.25997 0.72301 0.0
H759 H 0.36301 0.26293 0.61613 0.0
C760 C 0.1043 0.23021 0.45672 0.0
C761 C 0.11045 0.26096 0.4891 0.0
C762 C 0.08475 0.22604 0.43714 0.0
C763 C 0.03869 0.27364 0.41536 0.0
H764 H 1.0121 0.19663 0.46851 0.0
C765 C 0.9601 0.2796 0.5016 0.0
C766 C 0.9477 0.25121 0.49238 0.0
C767 C 0.97934 0.27794 0.4803 0.0
C768 C 1.01929 0.21786 0.45195 0.0
H769 H 0.10152 0.31197 0.52315 0.0
H770 H 0.06775 0.30503 0.48858 0.0
H771 H 0.04798 0.19886 0.46826 0.0
H772 H 0.9453 0.19908 0.45153 0.0
H773 H 0.9794 0.19584 0.41472 0.0
H774 H 1.01004 0.29349 0.40205 0.0
C775 C 0.0778 0.28404 0.47815 0.0
C776 C 0.03989 0.21915 0.45183 0.0
C777 C 0.09715 0.288 0.49831 0.0
C778 C 0.95459 0.22138 0.45888 0.0
C779 C 0.97409 0.2195 0.43825 0.0
C780 C 1.01816 0.27235 0.41548 0.0
C781 C 0.07118 0.25277 0.44872 0.0
C782 C 0.0498 0.24775 0.43595 0.0
C783 C 0.98679 0.24764 0.4498 0.0
C784 C 1.0082 0.24514 0.4362 0.0
H785 H 0.11428 0.20892 0.44922 0.0
H786 H 0.08011 0.20171 0.41431 0.0
H787 H 0.04588 0.29572 0.40174 0.0
H788 H 0.95512 0.30288 0.52736 0.0
H789 H 0.98872 0.29995 0.49075 0.0
C790 C 0.95609 0.76057 0.52094 0.0
C791 C 0.94698 0.72932 0.50239 0.0
C792 C 0.97599 0.76181 0.53752 0.0
C793 C 1.02078 0.70795 0.51219 0.0
H794 H 0.04571 0.78342 0.60959 0.0
C795 C 0.10464 0.71692 0.52396 0.0
C796 C 0.11157 0.74717 0.5058 0.0
C797 C 0.08508 0.71439 0.54242 0.0
C798 C 0.03892 0.76204 0.58264 0.0
H799 H 0.95071 0.67494 0.4914 0.0
H800 H 0.9848 0.67676 0.52428 0.0
H801 H 1.00984 0.7789 0.60758 0.0
H802 H 0.10418 0.79887 0.49538 0.0
H803 H 0.07023 0.79491 0.52924 0.0
H804 H 0.04978 0.69128 0.48694 0.0
C805 C 0.97717 0.70051 0.52327 0.0
C806 C 1.01834 0.75955 0.58104 0.0
C807 C 0.95752 0.69936 0.50518 0.0
C808 C 0.09921 0.77554 0.51053 0.0
C809 C 0.07977 0.7732 0.52975 0.0
C810 C 0.04126 0.71017 0.51459 0.0
C811 C 0.98702 0.73175 0.53696 0.0
C812 C 1.00892 0.73281 0.54473 0.0
C813 C 0.07222 0.74215 0.54322 0.0
C814 C 0.0506 0.73757 0.54881 0.0
H815 H 0.94828 0.78405 0.51855 0.0
H816 H 0.98293 0.78641 0.54727 0.0
H817 H 1.01433 0.68741 0.48239 0.0
H818 H 0.11382 0.69452 0.5193 0.0
H819 H 0.0797 0.69017 0.55279 0.0
C820 C 0.60292 0.7186 0.97602 0.0
C821 C 0.61182 0.75064 0.98635 0.0
C822 C 0.58303 0.71554 0.95985 0.0
C823 C 0.5376 0.76908 0.9674 0.0
H824 H 0.51372 0.68459 0.89785 0.0
C825 C 0.45349 0.75283 0.95446 0.0
C826 C 0.44771 0.72873 0.99115 0.0
C827 C 0.47304 0.75386 0.93492 0.0
C828 C 0.52024 0.70848 0.9166 0.0
H829 H 0.60768 0.80423 0.98363 0.0
H830 H 0.57362 0.79892 0.95055 0.0
H831 H 0.54946 0.69074 0.89702 0.0
H832 H 0.45711 0.6856 0.033 0.0
H833 H 0.4909 0.68626 -0.00359 0.0
H834 H 0.50827 0.78669 0.9864 0.0
C835 C 0.58138 0.77614 0.95801 0.0
C836 C 0.54076 0.71196 0.91691 0.0
C837 C 0.60103 0.77925 0.97606 0.0
C838 C 0.46121 0.70408 0.00395 0.0
C839 C 0.48053 0.7045 0.9831 0.0
C840 C 0.51714 0.76585 0.96567 0.0
C841 C 0.57174 0.74443 0.95225 0.0
C842 C 0.54984 0.74201 0.94397 0.0
C843 C 0.48687 0.73027 0.95062 0.0
C844 C 0.50825 0.73526 0.94174 0.0
H845 H 0.61092 0.6962 0.9845 0.0
H846 H 0.57636 0.69066 0.95675 0.0
H847 H 0.54369 0.7924 0.98999 0.0
H848 H 0.44339 0.77249 0.94512 0.0
H849 H 0.4776 0.77407 0.91012 0.0
C850 C 0.45629 0.19686 0.99435 0.0
C851 C 0.44508 0.22649 -0.00312 0.0
C852 C 0.47623 0.1985 0.00865 0.0
C853 C 0.51774 0.25359 0.06978 0.0
H854 H 0.54657 0.19586 0.94882 0.0
C855 C 0.60232 0.26261 0.01968 0.0
C856 C 0.61165 0.23181 -0.00059 0.0
C857 C 0.58212 0.26311 0.03288 0.0
C858 C 0.53884 0.21175 0.98369 0.0
H859 H 0.44544 0.28101 0.01987 0.0
H860 H 0.48073 0.28414 0.04363 0.0
H861 H 0.51108 0.19472 0.94793 0.0
H862 H 0.60799 0.17741 0.98258 0.0
H863 H 0.57321 0.17802 0.00787 0.0
H864 H 0.54596 0.27106 0.10442 0.0
C865 C 0.474 0.25952 0.03154 0.0
C866 C 0.51839 0.21109 0.9832 0.0
C867 C 0.45382 0.25777 0.01805 0.0
C868 C 0.60104 0.20148 -0.00227 0.0
C869 C 0.58109 0.2019 0.01169 0.0
C870 C 0.53842 0.25428 0.07024 0.0
C871 C 0.48559 0.22995 0.02444 0.0
C872 C 0.5075 0.23161 0.02655 0.0
C873 C 0.57112 0.23278 0.02636 0.0
C874 C 0.5492 0.23298 0.02751 0.0
H875 H 0.44981 0.17243 0.9785 0.0
H876 H 0.48454 0.17513 0.00441 0.0
H877 H 0.50979 0.26984 0.10365 0.0
H878 H 0.61022 0.28637 0.02083 0.0
H879 H 0.57489 0.28731 0.04414 0.0
loop_
_geom_bond_atom_site_label_1
_geom_bond_atom_site_label_2
_geom_bond_distance
_geom_bond_site_symmetry_2
_ccdc_geom_bond_type
Tb0 O3 2.453 . S
Tb0 O4 2.596 . S
Tb0 O5 2.374 . S
Tb0 O13 2.343 . S
Tb0 O15 2.353 . S
Tb0 O17 2.427 . S
Tb0 O18 2.513 . S
C1 O5 1.251 . S
C1 O7 1.263 . S
Tb2 O4 2.343 . S
Tb2 O7 2.353 . S
Tb2 O10 2.427 . S
Tb2 O11 2.513 . S
Tb2 O12 2.453 . S
Tb2 O13 2.596 . S
Tb2 O14 2.374 . S
O3 Tb0 2.453 . S
O3 C19 1.245 . S
O4 Tb0 2.596 . S
O4 Tb2 2.343 . S
O4 C19 1.259 . S
O5 Tb0 2.374 . S
O5 C1 1.251 . S
C6 O10 1.275 . S
C6 O11 1.246 . S
O7 C1 1.263 . S
O7 Tb2 2.353 . S
C8 O12 1.245 . S
C8 O13 1.259 . S
C9 O14 1.250 . S
C9 O15 1.263 . S
O10 Tb2 2.427 . S
O10 C6 1.275 . S
O11 Tb2 2.513 . S
O11 C6 1.246 . S
O12 Tb2 2.453 . S
O12 C8 1.245 . S
O13 Tb0 2.343 . S
O13 Tb2 2.596 . S
O13 C8 1.259 . S
O14 Tb2 2.374 . S
O14 C9 1.250 . S
O15 Tb0 2.353 . S
O15 C9 1.263 . S
C16 O17 1.275 . S
C16 O18 1.246 . S
O17 Tb0 2.427 . S
O17 C16 1.275 . S
O18 Tb0 2.513 . S
O18 C16 1.246 . S
C19 O3 1.245 . S
C19 O4 1.259 . S
Tb20 O23 2.453 . S
Tb20 O24 2.596 . S
Tb20 O25 2.374 . S
Tb20 O33 2.343 . S
Tb20 O35 2.353 . S
Tb20 O37 2.427 . S
Tb20 O38 2.513 . S
C21 O25 1.251 . S
C21 O27 1.263 . S
Tb22 O24 2.343 . S
Tb22 O27 2.353 . S
Tb22 O30 2.427 . S
Tb22 O31 2.513 . S
Tb22 O32 2.453 . S
Tb22 O33 2.596 . S
Tb22 O34 2.374 . S
O23 Tb20 2.453 . S
O23 C39 1.245 . S
O24 Tb20 2.596 . S
O24 Tb22 2.343 . S
O24 C39 1.259 . S
O25 Tb20 2.374 . S
O25 C21 1.251 . S
C26 O30 1.275 . S
C26 O31 1.246 . S
O27 C21 1.263 . S
O27 Tb22 2.353 . S
C28 O32 1.245 . S
C28 O33 1.259 . S
C29 O34 1.250 . S
C29 O35 1.263 . S
O30 Tb22 2.427 . S
O30 C26 1.275 . S
O31 Tb22 2.513 . S
O31 C26 1.246 . S
O32 Tb22 2.453 . S
O32 C28 1.245 . S
O33 Tb20 2.343 . S
O33 Tb22 2.596 . S
O33 C28 1.259 . S
O34 Tb22 2.374 . S
O34 C29 1.250 . S
O35 Tb20 2.353 . S
O35 C29 1.263 . S
C36 O37 1.275 . S
C36 O38 1.246 . S
O37 Tb20 2.427 . S
O37 C36 1.275 . S
O38 Tb20 2.513 . S
O38 C36 1.246 . S
C39 O23 1.245 . S
C39 O24 1.259 . S
Tb40 O43 2.453 . S
Tb40 O44 2.596 . S
Tb40 O45 2.374 . S
Tb40 O53 2.343 . S
Tb40 O55 2.353 . S
Tb40 O57 2.427 . S
Tb40 O58 2.513 . S
C41 O45 1.251 . S
C41 O47 1.263 . S
Tb42 O44 2.343 . S
Tb42 O47 2.353 . S
Tb42 O50 2.427 . S
Tb42 O51 2.513 . S
Tb42 O52 2.453 . S
Tb42 O53 2.596 . S
Tb42 O54 2.374 . S
O43 Tb40 2.453 . S
O43 C59 1.245 . S
O44 Tb40 2.596 . S
O44 Tb42 2.343 . S
O44 C59 1.259 . S
O45 Tb40 2.374 . S
O45 C41 1.251 . S
C46 O50 1.275 . S
C46 O51 1.246 . S
O47 C41 1.263 . S
O47 Tb42 2.353 . S
C48 O52 1.245 . S
C48 O53 1.259 . S
C49 O54 1.250 . S
C49 O55 1.263 . S
O50 Tb42 2.427 . S
O50 C46 1.275 . S
O51 Tb42 2.513 . S
O51 C46 1.246 . S
O52 Tb42 2.453 . S
O52 C48 1.245 . S
O53 Tb40 2.343 . S
O53 Tb42 2.596 . S
O53 C48 1.259 . S
O54 Tb42 2.374 . S
O54 C49 1.250 . S
O55 Tb40 2.353 . S
O55 C49 1.263 . S
C56 O57 1.275 . S
C56 O58 1.246 . S
O57 Tb40 2.427 . S
O57 C56 1.275 . S
O58 Tb40 2.513 . S
O58 C56 1.246 . S
C59 O43 1.245 . S
C59 O44 1.259 . S
Tb60 O63 2.453 . S
Tb60 O64 2.596 . S
Tb60 O65 2.374 . S
Tb60 O73 2.343 . S
Tb60 O75 2.353 . S
Tb60 O77 2.427 . S
Tb60 O78 2.513 . S
C61 O65 1.251 . S
C61 O67 1.263 . S
Tb62 O64 2.343 . S
Tb62 O67 2.353 . S
Tb62 O70 2.427 . S
Tb62 O71 2.513 . S
Tb62 O72 2.453 . S
Tb62 O73 2.596 . S
Tb62 O74 2.374 . S
O63 Tb60 2.453 . S
O63 C79 1.245 . S
O64 Tb60 2.596 . S
O64 Tb62 2.343 . S
O64 C79 1.259 . S
O65 Tb60 2.374 . S
O65 C61 1.251 . S
C66 O70 1.275 . S
C66 O71 1.246 . S
O67 C61 1.263 . S
O67 Tb62 2.353 . S
C68 O72 1.245 . S
C68 O73 1.259 . S
C69 O74 1.250 . S
C69 O75 1.263 . S
O70 Tb62 2.427 . S
O70 C66 1.275 . S
O71 Tb62 2.513 . S
O71 C66 1.246 . S
O72 Tb62 2.453 . S
O72 C68 1.245 . S
O73 Tb60 2.343 . S
O73 Tb62 2.596 . S
O73 C68 1.259 . S
O74 Tb62 2.374 . S
O74 C69 1.250 . S
O75 Tb60 2.353 . S
O75 C69 1.263 . S
C76 O77 1.275 . S
C76 O78 1.246 . S
O77 Tb60 2.427 . S
O77 C76 1.275 . S
O78 Tb60 2.513 . S
O78 C76 1.246 . S
C79 O63 1.245 . S
C79 O64 1.259 . S
Tb80 O83 2.453 . S
Tb80 O84 2.596 1_556 S
Tb80 O85 2.374 . S
Tb80 O93 2.343 . S
Tb80 O95 2.353 . S
Tb80 O97 2.427 . S
Tb80 O98 2.513 . S
C81 O85 1.251 1_554 S
C81 O87 1.263 . S
Tb82 O84 2.343 . S
Tb82 O87 2.353 . S
Tb82 O90 2.427 . S
Tb82 O91 2.513 . S
Tb82 O92 2.453 . S
Tb82 O93 2.596 1_554 S
Tb82 O94 2.374 . S
O83 Tb80 2.453 . S
O83 C99 1.245 1_556 S
O84 Tb80 2.596 1_554 S
O84 Tb82 2.343 . S
O84 C99 1.259 . S
O85 Tb80 2.374 . S
O85 C81 1.251 1_556 S
C86 O90 1.275 . S
C86 O91 1.246 . S
O87 C81 1.263 . S
O87 Tb82 2.353 . S
C88 O92 1.245 1_556 S
C88 O93 1.259 . S
C89 O94 1.250 . S
C89 O95 1.263 1_554 S
O90 Tb82 2.427 . S
O90 C86 1.275 . S
O91 Tb82 2.513 . S
O91 C86 1.246 . S
O92 Tb82 2.453 . S
O92 C88 1.245 1_554 S
O93 Tb80 2.343 . S
O93 Tb82 2.596 1_556 S
O93 C88 1.259 . S
O94 Tb82 2.374 . S
O94 C89 1.250 . S
O95 Tb80 2.353 . S
O95 C89 1.263 1_556 S
C96 O97 1.275 . S
C96 O98 1.246 . S
O97 Tb80 2.427 . S
O97 C96 1.275 . S
O98 Tb80 2.513 . S
O98 C96 1.246 . S
C99 O83 1.245 1_554 S
C99 O84 1.259 . S
Tb100 O103 2.453 . S
Tb100 O104 2.596 1_554 S
Tb100 O105 2.374 . S
Tb100 O113 2.343 . S
Tb100 O115 2.353 . S
Tb100 O117 2.427 . S
Tb100 O118 2.513 . S
C101 O105 1.251 . S
C101 O107 1.263 1_554 S
Tb102 O104 2.343 . S
Tb102 O107 2.353 . S
Tb102 O110 2.427 . S
Tb102 O111 2.513 . S
Tb102 O112 2.453 . S
Tb102 O113 2.596 1_556 S
Tb102 O114 2.374 . S
O103 Tb100 2.453 . S
O103 C119 1.245 1_554 S
O104 Tb100 2.596 1_556 S
O104 Tb102 2.343 . S
O104 C119 1.259 . S
O105 Tb100 2.374 . S
O105 C101 1.251 . S
C106 O110 1.275 . S
C106 O111 1.246 . S
O107 C101 1.263 1_556 S
O107 Tb102 2.353 . S
C108 O112 1.245 1_554 S
C108 O113 1.259 . S
C109 O114 1.250 1_554 S
C109 O115 1.263 . S
O110 Tb102 2.427 . S
O110 C106 1.275 . S
O111 Tb102 2.513 . S
O111 C106 1.246 . S
O112 Tb102 2.453 . S
O112 C108 1.245 1_556 S
O113 Tb100 2.343 . S
O113 Tb102 2.596 1_554 S
O113 C108 1.259 . S
O114 Tb102 2.374 . S
O114 C109 1.250 1_556 S
O115 Tb100 2.353 . S
O115 C109 1.263 . S
C116 O117 1.275 . S
C116 O118 1.246 . S
O117 Tb100 2.427 . S
O117 C116 1.275 . S
O118 Tb100 2.513 . S
O118 C116 1.246 . S
C119 O103 1.245 1_556 S
C119 O104 1.259 . S
Tb120 O123 2.453 . S
Tb120 O124 2.596 1_554 S
Tb120 O125 2.374 . S
Tb120 O133 2.343 . S
Tb120 O135 2.353 . S
Tb120 O137 2.427 . S
Tb120 O138 2.513 . S
C121 O125 1.251 1_556 S
C121 O127 1.263 . S
Tb122 O124 2.343 . S
Tb122 O127 2.353 . S
Tb122 O130 2.427 . S
Tb122 O131 2.513 . S
Tb122 O132 2.453 . S
Tb122 O133 2.596 1_556 S
Tb122 O134 2.374 . S
O123 Tb120 2.453 . S
O123 C139 1.245 1_554 S
O124 Tb120 2.596 1_556 S
O124 Tb122 2.343 . S
O124 C139 1.259 . S
O125 Tb120 2.374 . S
O125 C121 1.251 1_554 S
C126 O130 1.275 . S
C126 O131 1.246 . S
O127 C121 1.263 . S
O127 Tb122 2.353 . S
C128 O132 1.245 1_554 S
C128 O133 1.259 . S
C129 O134 1.250 . S
C129 O135 1.263 1_556 S
O130 Tb122 2.427 . S
O130 C126 1.275 . S
O131 Tb122 2.513 . S
O131 C126 1.246 . S
O132 Tb122 2.453 . S
O132 C128 1.245 1_556 S
O133 Tb120 2.343 . S
O133 Tb122 2.596 1_554 S
O133 C128 1.259 . S
O134 Tb122 2.374 . S
O134 C129 1.250 . S
O135 Tb120 2.353 . S
O135 C129 1.263 1_554 S
C136 O137 1.275 . S
C136 O138 1.246 . S
O137 Tb120 2.427 . S
O137 C136 1.275 . S
O138 Tb120 2.513 . S
O138 C136 1.246 . S
C139 O123 1.245 1_556 S
C139 O124 1.259 . S
Tb140 O143 2.453 . S
Tb140 O144 2.596 1_556 S
Tb140 O145 2.374 . S
Tb140 O153 2.343 . S
Tb140 O155 2.353 . S
Tb140 O157 2.427 . S
Tb140 O158 2.513 . S
C141 O145 1.251 . S
C141 O147 1.263 1_556 S
Tb142 O144 2.343 . S
Tb142 O147 2.353 . S
Tb142 O150 2.427 . S
Tb142 O151 2.513 . S
Tb142 O152 2.453 . S
Tb142 O153 2.596 1_554 S
Tb142 O154 2.374 . S
O143 Tb140 2.453 . S
O143 C159 1.245 1_556 S
O144 Tb140 2.596 1_554 S
O144 Tb142 2.343 . S
O144 C159 1.259 . S
O145 Tb140 2.374 . S
O145 C141 1.251 . S
C146 O150 1.275 . S
C146 O151 1.246 . S
O147 C141 1.263 1_554 S
O147 Tb142 2.353 . S
C148 O152 1.245 1_556 S
C148 O153 1.259 . S
C149 O154 1.250 1_556 S
C149 O155 1.263 . S
O150 Tb142 2.427 . S
O150 C146 1.275 . S
O151 Tb142 2.513 . S
O151 C146 1.246 . S
O152 Tb142 2.453 . S
O152 C148 1.245 1_554 S
O153 Tb140 2.343 . S
O153 Tb142 2.596 1_556 S
O153 C148 1.259 . S
O154 Tb142 2.374 . S
O154 C149 1.250 1_554 S
O155 Tb140 2.353 . S
O155 C149 1.263 . S
C156 O157 1.275 . S
C156 O158 1.246 . S
O157 Tb140 2.427 . S
O157 C156 1.275 . S
O158 Tb140 2.513 . S
O158 C156 1.246 . S
C159 O143 1.245 1_554 S
C159 O144 1.259 . S
C160 C161 1.349 . S
C160 C162 1.327 . S
C160 H185 0.950 . S
C161 C160 1.349 . S
C161 C177 1.349 . S
C162 C160 1.327 . S
C162 C181 1.429 . S
C162 H186 0.950 . S
C163 C180 1.574 . S
C163 C182 1.368 . S
C163 H187 0.949 . S
H164 C168 0.949 . S
C165 C166 1.349 . S
C165 C167 1.327 . S
C165 H188 0.950 . S
C166 C165 1.349 . S
C166 C178 1.349 . S
C167 C165 1.327 . S
C167 C183 1.429 . S
C167 H189 0.950 . S
C168 H164 0.949 . S
C168 C176 1.574 . S
C168 C184 1.368 . S
H169 C177 0.950 . S
H170 C175 0.950 . S
H171 C176 0.949 . S
H172 C178 0.950 . S
H173 C179 0.950 . S
H174 C180 0.949 . S
C175 H170 0.950 . S
C175 C177 1.327 . S
C175 C181 1.429 . S
C176 C168 1.574 . S
C176 H171 0.949 . S
C176 C182 1.368 . S
C177 C161 1.349 . S
C177 H169 0.950 . S
C177 C175 1.327 . S
C178 C166 1.349 . S
C178 H172 0.950 . S
C178 C179 1.327 . S
C179 H173 0.950 . S
C179 C178 1.327 . S
C179 C183 1.429 . S
C180 C163 1.574 . S
C180 H174 0.949 . S
C180 C184 1.368 . S
C181 C162 1.429 . S
C181 C175 1.429 . S
C181 C182 1.523 . S
C182 C163 1.368 . S
C182 C176 1.368 . S
C182 C181 1.523 . S
C183 C167 1.429 . S
C183 C179 1.429 . S
C183 C184 1.523 . S
C184 C168 1.368 . S
C184 C180 1.368 . S
C184 C183 1.523 . S
H185 C160 0.950 . S
H186 C162 0.950 . S
H187 C163 0.949 . S
H188 C165 0.950 . S
H189 C167 0.950 . S
C190 C191 1.349 . S
C190 C192 1.327 . S
C190 H215 0.950 . S
C191 C190 1.349 . S
C191 C207 1.349 . S
C192 C190 1.327 . S
C192 C211 1.429 . S
C192 H216 0.950 . S
C193 C210 1.574 . S
C193 C212 1.368 . S
C193 H217 0.949 . S
H194 C198 0.949 . S
C195 C196 1.349 . S
C195 C197 1.327 . S
C195 H218 0.950 . S
C196 C195 1.349 . S
C196 C208 1.349 . S
C197 C195 1.327 . S
C197 C213 1.429 . S
C197 H219 0.950 . S
C198 H194 0.949 . S
C198 C206 1.574 . S
C198 C214 1.368 . S
H199 C207 0.950 . S
H200 C205 0.950 . S
H201 C206 0.949 . S
H202 C208 0.950 . S
H203 C209 0.950 . S
H204 C210 0.949 . S
C205 H200 0.950 . S
C205 C207 1.327 . S
C205 C211 1.429 . S
C206 C198 1.574 . S
C206 H201 0.949 . S
C206 C212 1.368 . S
C207 C191 1.349 . S
C207 H199 0.950 . S
C207 C205 1.327 . S
C208 C196 1.349 . S
C208 H202 0.950 . S
C208 C209 1.327 . S
C209 H203 0.950 . S
C209 C208 1.327 . S
C209 C213 1.429 . S
C210 C193 1.574 . S
C210 H204 0.949 . S
C210 C214 1.368 . S
C211 C192 1.429 . S
C211 C205 1.429 . S
C211 C212 1.523 . S
C212 C193 1.368 . S
C212 C206 1.368 . S
C212 C211 1.523 . S
C213 C197 1.429 . S
C213 C209 1.429 . S
C213 C214 1.523 . S
C214 C198 1.368 . S
C214 C210 1.368 . S
C214 C213 1.523 . S
H215 C190 0.950 . S
H216 C192 0.950 . S
H217 C193 0.949 . S
H218 C195 0.950 . S
H219 C197 0.950 . S
C220 C221 1.349 . S
C220 C222 1.327 . S
C220 H245 0.950 . S
C221 C220 1.349 . S
C221 C237 1.349 . S
C222 C220 1.327 . S
C222 C241 1.429 . S
C222 H246 0.950 . S
C223 C240 1.574 . S
C223 C242 1.368 . S
C223 H247 0.949 . S
H224 C228 0.949 . S
C225 C226 1.349 . S
C225 C227 1.327 . S
C225 H248 0.950 . S
C226 C225 1.349 . S
C226 C238 1.349 . S
C227 C225 1.327 . S
C227 C243 1.429 . S
C227 H249 0.950 . S
C228 H224 0.949 . S
C228 C236 1.574 . S
C228 C244 1.368 . S
H229 C237 0.950 . S
H230 C235 0.950 . S
H231 C236 0.949 . S
H232 C238 0.950 . S
H233 C239 0.950 . S
H234 C240 0.949 . S
C235 H230 0.950 . S
C235 C237 1.327 . S
C235 C241 1.429 . S
C236 C228 1.574 . S
C236 H231 0.949 . S
C236 C242 1.368 . S
C237 C221 1.349 . S
C237 H229 0.950 . S
C237 C235 1.327 . S
C238 C226 1.349 . S
C238 H232 0.950 . S
C238 C239 1.327 . S
C239 H233 0.950 . S
C239 C238 1.327 . S
C239 C243 1.429 . S
C240 C223 1.574 . S
C240 H234 0.949 . S
C240 C244 1.368 . S
C241 C222 1.429 . S
C241 C235 1.429 . S
C241 C242 1.523 . S
C242 C223 1.368 . S
C242 C236 1.368 . S
C242 C241 1.523 . S
C243 C227 1.429 . S
C243 C239 1.429 . S
C243 C244 1.523 . S
C244 C228 1.368 . S
C244 C240 1.368 . S
C244 C243 1.523 . S
H245 C220 0.950 . S
H246 C222 0.950 . S
H247 C223 0.949 . S
H248 C225 0.950 . S
H249 C227 0.950 . S
C250 C251 1.349 . S
C250 C252 1.327 . S
C250 H275 0.950 . S
C251 C250 1.349 . S
C251 C267 1.349 . S
C252 C250 1.327 . S
C252 C271 1.429 . S
C252 H276 0.950 . S
C253 C270 1.574 . S
C253 C272 1.368 . S
C253 H277 0.949 . S
H254 C258 0.949 . S
C255 C256 1.349 . S
C255 C257 1.327 . S
C255 H278 0.950 . S
C256 C255 1.349 . S
C256 C268 1.349 . S
C257 C255 1.327 . S
C257 C273 1.429 . S
C257 H279 0.950 . S
C258 H254 0.949 . S
C258 C266 1.574 . S
C258 C274 1.368 . S
H259 C267 0.950 . S
H260 C265 0.950 . S
H261 C266 0.949 . S
H262 C268 0.950 . S
H263 C269 0.950 . S
H264 C270 0.949 . S
C265 H260 0.950 . S
C265 C267 1.327 . S
C265 C271 1.429 . S
C266 C258 1.574 . S
C266 H261 0.949 . S
C266 C272 1.368 . S
C267 C251 1.349 . S
C267 H259 0.950 . S
C267 C265 1.327 . S
C268 C256 1.349 . S
C268 H262 0.950 . S
C268 C269 1.327 . S
C269 H263 0.950 . S
C269 C268 1.327 . S
C269 C273 1.429 . S
C270 C253 1.574 . S
C270 H264 0.949 . S
C270 C274 1.368 . S
C271 C252 1.429 . S
C271 C265 1.429 . S
C271 C272 1.523 . S
C272 C253 1.368 . S
C272 C266 1.368 . S
C272 C271 1.523 . S
C273 C257 1.429 . S
C273 C269 1.429 . S
C273 C274 1.523 . S
C274 C258 1.368 . S
C274 C270 1.368 . S
C274 C273 1.523 . S
H275 C250 0.950 . S
H276 C252 0.950 . S
H277 C253 0.949 . S
H278 C255 0.950 . S
H279 C257 0.950 . S
C280 C281 1.349 . S
C280 C282 1.327 . S
C280 H305 0.950 . S
C281 C280 1.349 . S
C281 C297 1.349 . S
C282 C280 1.327 . S
C282 C301 1.429 . S
C282 H306 0.950 . S
C283 C300 1.574 1_565 S
C283 C302 1.368 . S
C283 H307 0.949 . S
H284 C288 0.949 . S
C285 C286 1.349 . S
C285 C287 1.327 . S
C285 H308 0.950 . S
C286 C285 1.349 . S
C286 C298 1.349 . S
C287 C285 1.327 . S
C287 C303 1.429 . S
C287 H309 0.950 . S
C288 H284 0.949 . S
C288 C296 1.574 1_545 S
C288 C304 1.368 . S
H289 C297 0.950 . S
H290 C295 0.950 . S
H291 C296 0.949 . S
H292 C298 0.950 . S
H293 C299 0.950 . S
H294 C300 0.949 . S
C295 H290 0.950 . S
C295 C297 1.327 . S
C295 C301 1.429 . S
C296 C288 1.574 1_565 S
C296 H291 0.949 . S
C296 C302 1.368 . S
C297 C281 1.349 . S
C297 H289 0.950 . S
C297 C295 1.327 . S
C298 C286 1.349 . S
C298 H292 0.950 . S
C298 C299 1.327 . S
C299 H293 0.950 . S
C299 C298 1.327 . S
C299 C303 1.429 . S
C300 C283 1.574 1_545 S
C300 H294 0.949 . S
C300 C304 1.368 . S
C301 C282 1.429 . S
C301 C295 1.429 . S
C301 C302 1.523 . S
C302 C283 1.368 . S
C302 C296 1.368 . S
C302 C301 1.523 . S
C303 C287 1.429 . S
C303 C299 1.429 . S
C303 C304 1.523 . S
C304 C288 1.368 . S
C304 C300 1.368 . S
C304 C303 1.523 . S
H305 C280 0.950 . S
H306 C282 0.950 . S
H307 C283 0.949 . S
H308 C285 0.950 . S
H309 C287 0.950 . S
C310 C311 1.349 . S
C310 C312 1.327 . S
C310 H335 0.950 . S
C311 C310 1.349 . S
C311 C327 1.349 . S
C312 C310 1.327 . S
C312 C331 1.429 . S
C312 H336 0.950 . S
C313 C330 1.574 . S
C313 C332 1.368 . S
C313 H337 0.949 . S
H314 C318 0.949 . S
C315 C316 1.349 . S
C315 C317 1.327 . S
C315 H338 0.950 . S
C316 C315 1.349 . S
C316 C328 1.349 . S
C317 C315 1.327 . S
C317 C333 1.429 . S
C317 H339 0.950 . S
C318 H314 0.949 . S
C318 C326 1.574 . S
C318 C334 1.368 . S
H319 C327 0.950 . S
H320 C325 0.950 . S
H321 C326 0.949 . S
H322 C328 0.950 . S
H323 C329 0.950 . S
H324 C330 0.949 . S
C325 H320 0.950 . S
C325 C327 1.327 . S
C325 C331 1.429 . S
C326 C318 1.574 . S
C326 H321 0.949 . S
C326 C332 1.368 . S
C327 C311 1.349 . S
C327 H319 0.950 . S
C327 C325 1.327 . S
C328 C316 1.349 . S
C328 H322 0.950 . S
C328 C329 1.327 . S
C329 H323 0.950 . S
C329 C328 1.327 . S
C329 C333 1.429 . S
C330 C313 1.574 . S
C330 H324 0.949 . S
C330 C334 1.368 . S
C331 C312 1.429 . S
C331 C325 1.429 . S
C331 C332 1.523 . S
C332 C313 1.368 . S
C332 C326 1.368 . S
C332 C331 1.523 . S
C333 C317 1.429 . S
C333 C329 1.429 . S
C333 C334 1.523 . S
C334 C318 1.368 . S
C334 C330 1.368 . S
C334 C333 1.523 . S
H335 C310 0.950 . S
H336 C312 0.950 . S
H337 C313 0.949 . S
H338 C315 0.950 . S
H339 C317 0.950 . S
C340 C341 1.349 . S
C340 C342 1.327 . S
C340 H365 0.950 . S
C341 C340 1.349 . S
C341 C357 1.349 . S
C342 C340 1.327 . S
C342 C361 1.429 . S
C342 H366 0.950 . S
C343 C360 1.574 1_565 S
C343 C362 1.368 . S
C343 H367 0.949 . S
H344 C348 0.949 . S
C345 C346 1.349 . S
C345 C347 1.327 . S
C345 H368 0.950 . S
C346 C345 1.349 . S
C346 C358 1.349 . S
C347 C345 1.327 . S
C347 C363 1.429 . S
C347 H369 0.950 . S
C348 H344 0.949 . S
C348 C356 1.574 1_545 S
C348 C364 1.368 . S
H349 C357 0.950 . S
H350 C355 0.950 . S
H351 C356 0.949 . S
H352 C358 0.950 . S
H353 C359 0.950 . S
H354 C360 0.949 . S
C355 H350 0.950 . S
C355 C357 1.327 . S
C355 C361 1.429 . S
C356 C348 1.574 1_565 S
C356 H351 0.949 . S
C356 C362 1.368 . S
C357 C341 1.349 . S
C357 H349 0.950 . S
C357 C355 1.327 . S
C358 C346 1.349 . S
C358 H352 0.950 . S
C358 C359 1.327 . S
C359 H353 0.950 . S
C359 C358 1.327 . S
C359 C363 1.429 . S
C360 C343 1.574 1_545 S
C360 H354 0.949 . S
C360 C364 1.368 . S
C361 C342 1.429 . S
C361 C355 1.429 . S
C361 C362 1.523 . S
C362 C343 1.368 . S
C362 C356 1.368 . S
C362 C361 1.523 . S
C363 C347 1.429 . S
C363 C359 1.429 . S
C363 C364 1.523 . S
C364 C348 1.368 . S
C364 C360 1.368 . S
C364 C363 1.523 . S
H365 C340 0.950 . S
H366 C342 0.950 . S
H367 C343 0.949 . S
H368 C345 0.950 . S
H369 C347 0.950 . S
C370 C371 1.349 . S
C370 C372 1.327 . S
C370 H395 0.950 . S
C371 C370 1.349 . S
C371 C387 1.349 . S
C372 C370 1.327 . S
C372 C391 1.429 . S
C372 H396 0.950 . S
C373 C390 1.574 . S
C373 C392 1.368 . S
C373 H397 0.949 . S
H374 C378 0.949 . S
C375 C376 1.349 . S
C375 C377 1.327 . S
C375 H398 0.950 . S
C376 C375 1.349 . S
C376 C388 1.349 . S
C377 C375 1.327 . S
C377 C393 1.429 . S
C377 H399 0.950 . S
C378 H374 0.949 . S
C378 C386 1.574 . S
C378 C394 1.368 . S
H379 C387 0.950 . S
H380 C385 0.950 . S
H381 C386 0.949 . S
H382 C388 0.950 . S
H383 C389 0.950 . S
H384 C390 0.949 . S
C385 H380 0.950 . S
C385 C387 1.327 . S
C385 C391 1.429 . S
C386 C378 1.574 . S
C386 H381 0.949 . S
C386 C392 1.368 . S
C387 C371 1.349 . S
C387 H379 0.950 . S
C387 C385 1.327 . S
C388 C376 1.349 . S
C388 H382 0.950 . S
C388 C389 1.327 . S
C389 H383 0.950 . S
C389 C388 1.327 . S
C389 C393 1.429 . S
C390 C373 1.574 . S
C390 H384 0.949 . S
C390 C394 1.368 . S
C391 C372 1.429 . S
C391 C385 1.429 . S
C391 C392 1.523 . S
C392 C373 1.368 . S
C392 C386 1.368 . S
C392 C391 1.523 . S
C393 C377 1.429 . S
C393 C389 1.429 . S
C393 C394 1.523 . S
C394 C378 1.368 . S
C394 C390 1.368 . S
C394 C393 1.523 . S
H395 C370 0.950 . S
H396 C372 0.950 . S
H397 C373 0.949 . S
H398 C375 0.950 . S
H399 C377 0.950 . S
C400 C401 1.349 . S
C400 C402 1.327 . S
C400 H425 0.950 . S
C401 C400 1.349 . S
C401 C417 1.349 1_554 S
C402 C400 1.327 . S
C402 C421 1.429 . S
C402 H426 0.950 . S
C403 C420 1.574 . S
C403 C422 1.368 1_556 S
C403 H427 0.949 . S
H404 C408 0.949 . S
C405 C406 1.349 . S
C405 C407 1.327 . S
C405 H428 0.950 . S
C406 C405 1.349 . S
C406 C418 1.349 1_556 S
C407 C405 1.327 . S
C407 C423 1.429 . S
C407 H429 0.950 . S
C408 H404 0.949 . S
C408 C416 1.574 . S
C408 C424 1.368 1_554 S
H409 C417 0.950 . S
H410 C415 0.950 . S
H411 C416 0.949 . S
H412 C418 0.950 . S
H413 C419 0.950 . S
H414 C420 0.949 . S
C415 H410 0.950 . S
C415 C417 1.327 . S
C415 C421 1.429 1_556 S
C416 C408 1.574 . S
C416 H411 0.949 . S
C416 C422 1.368 . S
C417 C401 1.349 1_556 S
C417 H409 0.950 . S
C417 C415 1.327 . S
C418 C406 1.349 1_554 S
C418 H412 0.950 . S
C418 C419 1.327 . S
C419 H413 0.950 . S
C419 C418 1.327 . S
C419 C423 1.429 1_554 S
C420 C403 1.574 . S
C420 H414 0.949 . S
C420 C424 1.368 . S
C421 C402 1.429 . S
C421 C415 1.429 1_554 S
C421 C422 1.523 . S
C422 C403 1.368 1_554 S
C422 C416 1.368 . S
C422 C421 1.523 . S
C423 C407 1.429 . S
C423 C419 1.429 1_556 S
C423 C424 1.523 . S
C424 C408 1.368 1_556 S
C424 C420 1.368 . S
C424 C423 1.523 . S
H425 C400 0.950 . S
H426 C402 0.950 . S
H427 C403 0.949 . S
H428 C405 0.950 . S
H429 C407 0.950 . S
C430 C431 1.349 1_556 S
C430 C432 1.327 . S
C430 H455 0.950 . S
C431 C430 1.349 1_554 S
C431 C447 1.349 . S
C432 C430 1.327 . S
C432 C451 1.429 1_556 S
C432 H456 0.950 . S
C433 C450 1.574 1_565 S
C433 C452 1.368 . S
C433 H457 0.949 . S
H434 C438 0.949 . S
C435 C436 1.349 1_554 S
C435 C437 1.327 . S
C435 H458 0.950 . S
C436 C435 1.349 1_556 S
C436 C448 1.349 . S
C437 C435 1.327 . S
C437 C453 1.429 1_554 S
C437 H459 0.950 . S
C438 H434 0.949 . S
C438 C446 1.574 1_545 S
C438 C454 1.368 . S
H439 C447 0.950 . S
H440 C445 0.950 . S
H441 C446 0.949 . S
H442 C448 0.950 . S
H443 C449 0.950 . S
H444 C450 0.949 . S
C445 H440 0.950 . S
C445 C447 1.327 . S
C445 C451 1.429 . S
C446 C438 1.574 1_565 S
C446 H441 0.949 . S
C446 C452 1.368 1_556 S
C447 C431 1.349 . S
C447 H439 0.950 . S
C447 C445 1.327 . S
C448 C436 1.349 . S
C448 H442 0.950 . S
C448 C449 1.327 . S
C449 H443 0.950 . S
C449 C448 1.327 . S
C449 C453 1.429 . S
C450 C433 1.574 1_545 S
C450 H444 0.949 . S
C450 C454 1.368 1_554 S
C451 C432 1.429 1_554 S
C451 C445 1.429 . S
C451 C452 1.523 . S
C452 C433 1.368 . S
C452 C446 1.368 1_554 S
C452 C451 1.523 . S
C453 C437 1.429 1_556 S
C453 C449 1.429 . S
C453 C454 1.523 . S
C454 C438 1.368 . S
C454 C450 1.368 1_556 S
C454 C453 1.523 . S
H455 C430 0.950 . S
H456 C432 0.950 . S
H457 C433 0.949 . S
H458 C435 0.950 . S
H459 C437 0.950 . S
C460 C461 1.349 . S
C460 C462 1.327 . S
C460 H485 0.950 . S
C461 C460 1.349 . S
C461 C477 1.349 1_556 S
C462 C460 1.327 . S
C462 C481 1.429 . S
C462 H486 0.950 . S
C463 C480 1.574 . S
C463 C482 1.368 1_554 S
C463 H487 0.949 . S
H464 C468 0.949 . S
C465 C466 1.349 . S
C465 C467 1.327 . S
C465 H488 0.950 . S
C466 C465 1.349 . S
C466 C478 1.349 1_554 S
C467 C465 1.327 . S
C467 C483 1.429 . S
C467 H489 0.950 . S
C468 H464 0.949 . S
C468 C476 1.574 . S
C468 C484 1.368 1_556 S
H469 C477 0.950 . S
H470 C475 0.950 . S
H471 C476 0.949 . S
H472 C478 0.950 . S
H473 C479 0.950 . S
H474 C480 0.949 . S
C475 H470 0.950 . S
C475 C477 1.327 . S
C475 C481 1.429 1_554 S
C476 C468 1.574 . S
C476 H471 0.949 . S
C476 C482 1.368 . S
C477 C461 1.349 1_554 S
C477 H469 0.950 . S
C477 C475 1.327 . S
C478 C466 1.349 1_556 S
C478 H472 0.950 . S
C478 C479 1.327 . S
C479 H473 0.950 . S
C479 C478 1.327 . S
C479 C483 1.429 1_556 S
C480 C463 1.574 . S
C480 H474 0.949 . S
C480 C484 1.368 . S
C481 C462 1.429 . S
C481 C475 1.429 1_556 S
C481 C482 1.523 . S
C482 C463 1.368 1_556 S
C482 C476 1.368 . S
C482 C481 1.523 . S
C483 C467 1.429 . S
C483 C479 1.429 1_554 S
C483 C484 1.523 . S
C484 C468 1.368 1_554 S
C484 C480 1.368 . S
C484 C483 1.523 . S
H485 C460 0.950 . S
H486 C462 0.950 . S
H487 C463 0.949 . S
H488 C465 0.950 . S
H489 C467 0.950 . S
C490 C491 1.349 . S
C490 C492 1.327 . S
C490 H515 0.950 . S
C491 C490 1.349 . S
C491 C507 1.349 1_556 S
C492 C490 1.327 . S
C492 C511 1.429 . S
C492 H516 0.950 . S
C493 C510 1.574 1_545 S
C493 C512 1.368 1_554 S
C493 H517 0.949 . S
H494 C498 0.949 . S
C495 C496 1.349 . S
C495 C497 1.327 . S
C495 H518 0.950 . S
C496 C495 1.349 . S
C496 C508 1.349 1_554 S
C497 C495 1.327 . S
C497 C513 1.429 . S
C497 H519 0.950 . S
C498 H494 0.949 . S
C498 C506 1.574 1_565 S
C498 C514 1.368 1_556 S
H499 C507 0.950 . S
H500 C505 0.950 . S
H501 C506 0.949 . S
H502 C508 0.950 . S
H503 C509 0.950 . S
H504 C510 0.949 . S
C505 H500 0.950 . S
C505 C507 1.327 . S
C505 C511 1.429 1_554 S
C506 C498 1.574 1_545 S
C506 H501 0.949 . S
C506 C512 1.368 . S
C507 C491 1.349 1_554 S
C507 H499 0.950 . S
C507 C505 1.327 . S
C508 C496 1.349 1_556 S
C508 H502 0.950 . S
C508 C509 1.327 . S
C509 H503 0.950 . S
C509 C508 1.327 . S
C509 C513 1.429 1_556 S
C510 C493 1.574 1_565 S
C510 H504 0.949 . S
C510 C514 1.368 . S
C511 C492 1.429 . S
C511 C505 1.429 1_556 S
C511 C512 1.523 . S
C512 C493 1.368 1_556 S
C512 C506 1.368 . S
C512 C511 1.523 . S
C513 C497 1.429 . S
C513 C509 1.429 1_554 S
C513 C514 1.523 . S
C514 C498 1.368 1_554 S
C514 C510 1.368 . S
C514 C513 1.523 . S
H515 C490 0.950 . S
H516 C492 0.950 . S
H517 C493 0.949 . S
H518 C495 0.950 . S
H519 C497 0.950 . S
C520 C521 1.349 . S
C520 C522 1.327 . S
C520 H545 0.950 . S
C521 C520 1.349 . S
C521 C537 1.349 . S
C522 C520 1.327 . S
C522 C541 1.429 . S
C522 H546 0.950 . S
C523 C540 1.574 1_554 S
C523 C542 1.368 . S
C523 H547 0.949 . S
H524 C528 0.949 . S
C525 C526 1.349 . S
C525 C527 1.327 . S
C525 H548 0.950 . S
C526 C525 1.349 . S
C526 C538 1.349 . S
C527 C525 1.327 . S
C527 C543 1.429 . S
C527 H549 0.950 . S
C528 H524 0.949 . S
C528 C536 1.574 1_556 S
C528 C544 1.368 . S
H529 C537 0.950 . S
H530 C535 0.950 . S
H531 C536 0.949 . S
H532 C538 0.950 . S
H533 C539 0.950 . S
H534 C540 0.949 . S
C535 H530 0.950 . S
C535 C537 1.327 . S
C535 C541 1.429 . S
C536 C528 1.574 1_554 S
C536 H531 0.949 . S
C536 C542 1.368 . S
C537 C521 1.349 . S
C537 H529 0.950 . S
C537 C535 1.327 . S
C538 C526 1.349 . S
C538 H532 0.950 . S
C538 C539 1.327 . S
C539 H533 0.950 . S
C539 C538 1.327 . S
C539 C543 1.429 . S
C540 C523 1.574 1_556 S
C540 H534 0.949 . S
C540 C544 1.368 . S
C541 C522 1.429 . S
C541 C535 1.429 . S
C541 C542 1.523 . S
C542 C523 1.368 . S
C542 C536 1.368 . S
C542 C541 1.523 . S
C543 C527 1.429 . S
C543 C539 1.429 . S
C543 C544 1.523 . S
C544 C528 1.368 . S
C544 C540 1.368 . S
C544 C543 1.523 . S
H545 C520 0.950 . S
H546 C522 0.950 . S
H547 C523 0.949 . S
H548 C525 0.950 . S
H549 C527 0.950 . S
C550 C551 1.349 . S
C550 C552 1.327 . S
C550 H575 0.950 . S
C551 C550 1.349 . S
C551 C567 1.349 . S
C552 C550 1.327 . S
C552 C571 1.429 . S
C552 H576 0.950 . S
C553 C570 1.574 1_554 S
C553 C572 1.368 . S
C553 H577 0.949 . S
H554 C558 0.949 . S
C555 C556 1.349 . S
C555 C557 1.327 . S
C555 H578 0.950 . S
C556 C555 1.349 . S
C556 C568 1.349 . S
C557 C555 1.327 . S
C557 C573 1.429 . S
C557 H579 0.950 . S
C558 H554 0.949 . S
C558 C566 1.574 1_556 S
C558 C574 1.368 . S
H559 C567 0.950 . S
H560 C565 0.950 . S
H561 C566 0.949 . S
H562 C568 0.950 . S
H563 C569 0.950 . S
H564 C570 0.949 . S
C565 H560 0.950 . S
C565 C567 1.327 . S
C565 C571 1.429 . S
C566 C558 1.574 1_554 S
C566 H561 0.949 . S
C566 C572 1.368 . S
C567 C551 1.349 . S
C567 H559 0.950 . S
C567 C565 1.327 . S
C568 C556 1.349 . S
C568 H562 0.950 . S
C568 C569 1.327 . S
C569 H563 0.950 . S
C569 C568 1.327 . S
C569 C573 1.429 . S
C570 C553 1.574 1_556 S
C570 H564 0.949 . S
C570 C574 1.368 . S
C571 C552 1.429 . S
C571 C565 1.429 . S
C571 C572 1.523 . S
C572 C553 1.368 . S
C572 C566 1.368 . S
C572 C571 1.523 . S
C573 C557 1.429 . S
C573 C569 1.429 . S
C573 C574 1.523 . S
C574 C558 1.368 . S
C574 C570 1.368 . S
C574 C573 1.523 . S
H575 C550 0.950 . S
H576 C552 0.950 . S
H577 C553 0.949 . S
H578 C555 0.950 . S
H579 C557 0.950 . S
C580 C581 1.349 . S
C580 C582 1.327 . S
C580 H605 0.950 . S
C581 C580 1.349 . S
C581 C597 1.349 . S
C582 C580 1.327 . S
C582 C601 1.429 . S
C582 H606 0.950 . S
C583 C600 1.574 1_554 S
C583 C602 1.368 . S
C583 H607 0.949 . S
H584 C588 0.949 . S
C585 C586 1.349 . S
C585 C587 1.327 . S
C585 H608 0.950 . S
C586 C585 1.349 . S
C586 C598 1.349 . S
C587 C585 1.327 . S
C587 C603 1.429 . S
C587 H609 0.950 . S
C588 H584 0.949 . S
C588 C596 1.574 1_556 S
C588 C604 1.368 . S
H589 C597 0.950 . S
H590 C595 0.950 . S
H591 C596 0.949 . S
H592 C598 0.950 . S
H593 C599 0.950 . S
H594 C600 0.949 . S
C595 H590 0.950 . S
C595 C597 1.327 . S
C595 C601 1.429 . S
C596 C588 1.574 1_554 S
C596 H591 0.949 . S
C596 C602 1.368 . S
C597 C581 1.349 . S
C597 H589 0.950 . S
C597 C595 1.327 . S
C598 C586 1.349 . S
C598 H592 0.950 . S
C598 C599 1.327 . S
C599 H593 0.950 . S
C599 C598 1.327 . S
C599 C603 1.429 . S
C600 C583 1.574 1_556 S
C600 H594 0.949 . S
C600 C604 1.368 . S
C601 C582 1.429 . S
C601 C595 1.429 . S
C601 C602 1.523 . S
C602 C583 1.368 . S
C602 C596 1.368 . S
C602 C601 1.523 . S
C603 C587 1.429 . S
C603 C599 1.429 . S
C603 C604 1.523 . S
C604 C588 1.368 . S
C604 C600 1.368 . S
C604 C603 1.523 . S
H605 C580 0.950 . S
H606 C582 0.950 . S
H607 C583 0.949 . S
H608 C585 0.950 . S
H609 C587 0.950 . S
C610 C611 1.349 . S
C610 C612 1.327 . S
C610 H635 0.950 . S
C611 C610 1.349 . S
C611 C627 1.349 . S
C612 C610 1.327 . S
C612 C631 1.429 . S
C612 H636 0.950 . S
C613 C630 1.574 1_556 S
C613 C632 1.368 . S
C613 H637 0.949 . S
H614 C618 0.949 . S
C615 C616 1.349 . S
C615 C617 1.327 . S
C615 H638 0.950 . S
C616 C615 1.349 . S
C616 C628 1.349 . S
C617 C615 1.327 . S
C617 C633 1.429 . S
C617 H639 0.950 . S
C618 H614 0.949 . S
C618 C626 1.574 1_554 S
C618 C634 1.368 . S
H619 C627 0.950 . S
H620 C625 0.950 . S
H621 C626 0.949 . S
H622 C628 0.950 . S
H623 C629 0.950 . S
H624 C630 0.949 . S
C625 H620 0.950 . S
C625 C627 1.327 . S
C625 C631 1.429 . S
C626 C618 1.574 1_556 S
C626 H621 0.949 . S
C626 C632 1.368 . S
C627 C611 1.349 . S
C627 H619 0.950 . S
C627 C625 1.327 . S
C628 C616 1.349 . S
C628 H622 0.950 . S
C628 C629 1.327 . S
C629 H623 0.950 . S
C629 C628 1.327 . S
C629 C633 1.429 . S
C630 C613 1.574 1_554 S
C630 H624 0.949 . S
C630 C634 1.368 . S
C631 C612 1.429 . S
C631 C625 1.429 . S
C631 C632 1.523 . S
C632 C613 1.368 . S
C632 C626 1.368 . S
C632 C631 1.523 . S
C633 C617 1.429 . S
C633 C629 1.429 . S
C633 C634 1.523 . S
C634 C618 1.368 . S
C634 C630 1.368 . S
C634 C633 1.523 . S
H635 C610 0.950 . S
H636 C612 0.950 . S
H637 C613 0.949 . S
H638 C615 0.950 . S
H639 C617 0.950 . S
C640 C641 1.349 . S
C640 C642 1.327 . S
C640 H665 0.950 . S
C641 C640 1.349 . S
C641 C657 1.349 . S
C642 C640 1.327 . S
C642 C661 1.429 . S
C642 H666 0.950 . S
C643 C660 1.574 . S
C643 C662 1.368 . S
C643 H667 0.949 . S
H644 C648 0.949 . S
C645 C646 1.349 . S
C645 C647 1.327 . S
C645 H668 0.950 . S
C646 C645 1.349 . S
C646 C658 1.349 . S
C647 C645 1.327 . S
C647 C663 1.429 . S
C647 H669 0.950 . S
C648 H644 0.949 . S
C648 C656 1.574 . S
C648 C664 1.368 . S
H649 C657 0.950 . S
H650 C655 0.950 . S
H651 C656 0.949 . S
H652 C658 0.950 . S
H653 C659 0.950 . S
H654 C660 0.949 . S
C655 H650 0.950 . S
C655 C657 1.327 . S
C655 C661 1.429 . S
C656 C648 1.574 . S
C656 H651 0.949 . S
C656 C662 1.368 . S
C657 C641 1.349 . S
C657 H649 0.950 . S
C657 C655 1.327 . S
C658 C646 1.349 . S
C658 H652 0.950 . S
C658 C659 1.327 . S
C659 H653 0.950 . S
C659 C658 1.327 . S
C659 C663 1.429 . S
C660 C643 1.574 . S
C660 H654 0.949 . S
C660 C664 1.368 . S
C661 C642 1.429 . S
C661 C655 1.429 . S
C661 C662 1.523 . S
C662 C643 1.368 . S
C662 C656 1.368 . S
C662 C661 1.523 . S
C663 C647 1.429 . S
C663 C659 1.429 . S
C663 C664 1.523 . S
C664 C648 1.368 . S
C664 C660 1.368 . S
C664 C663 1.523 . S
H665 C640 0.950 . S
H666 C642 0.950 . S
H667 C643 0.949 . S
H668 C645 0.950 . S
H669 C647 0.950 . S
C670 C671 1.349 . S
C670 C672 1.327 . S
C670 H695 0.950 . S
C671 C670 1.349 . S
C671 C687 1.349 . S
C672 C670 1.327 . S
C672 C691 1.429 . S
C672 H696 0.950 . S
C673 C690 1.574 . S
C673 C692 1.368 . S
C673 H697 0.949 . S
H674 C678 0.949 . S
C675 C676 1.349 . S
C675 C677 1.327 . S
C675 H698 0.950 . S
C676 C675 1.349 . S
C676 C688 1.349 . S
C677 C675 1.327 . S
C677 C693 1.429 . S
C677 H699 0.950 . S
C678 H674 0.949 . S
C678 C686 1.574 . S
C678 C694 1.368 . S
H679 C687 0.950 . S
H680 C685 0.950 . S
H681 C686 0.949 . S
H682 C688 0.950 . S
H683 C689 0.950 . S
H684 C690 0.949 . S
C685 H680 0.950 . S
C685 C687 1.327 . S
C685 C691 1.429 . S
C686 C678 1.574 . S
C686 H681 0.949 . S
C686 C692 1.368 . S
C687 C671 1.349 . S
C687 H679 0.950 . S
C687 C685 1.327 . S
C688 C676 1.349 . S
C688 H682 0.950 . S
C688 C689 1.327 . S
C689 H683 0.950 . S
C689 C688 1.327 . S
C689 C693 1.429 . S
C690 C673 1.574 . S
C690 H684 0.949 . S
C690 C694 1.368 . S
C691 C672 1.429 . S
C691 C685 1.429 . S
C691 C692 1.523 . S
C692 C673 1.368 . S
C692 C686 1.368 . S
C692 C691 1.523 . S
C693 C677 1.429 . S
C693 C689 1.429 . S
C693 C694 1.523 . S
C694 C678 1.368 . S
C694 C690 1.368 . S
C694 C693 1.523 . S
H695 C670 0.950 . S
H696 C672 0.950 . S
H697 C673 0.949 . S
H698 C675 0.950 . S
H699 C677 0.950 . S
C700 C701 1.349 . S
C700 C702 1.327 . S
C700 H725 0.950 . S
C701 C700 1.349 . S
C701 C717 1.349 . S
C702 C700 1.327 . S
C702 C721 1.429 . S
C702 H726 0.950 . S
C703 C720 1.574 . S
C703 C722 1.368 . S
C703 H727 0.949 . S
H704 C708 0.949 . S
C705 C706 1.349 . S
C705 C707 1.327 . S
C705 H728 0.950 . S
C706 C705 1.349 . S
C706 C718 1.349 . S
C707 C705 1.327 . S
C707 C723 1.429 . S
C707 H729 0.950 . S
C708 H704 0.949 . S
C708 C716 1.574 . S
C708 C724 1.368 . S
H709 C717 0.950 . S
H710 C715 0.950 . S
H711 C716 0.949 . S
H712 C718 0.950 . S
H713 C719 0.950 . S
H714 C720 0.949 . S
C715 H710 0.950 . S
C715 C717 1.327 . S
C715 C721 1.429 . S
C716 C708 1.574 . S
C716 H711 0.949 . S
C716 C722 1.368 . S
C717 C701 1.349 . S
C717 H709 0.950 . S
C717 C715 1.327 . S
C718 C706 1.349 . S
C718 H712 0.950 . S
C718 C719 1.327 . S
C719 H713 0.950 . S
C719 C718 1.327 . S
C719 C723 1.429 . S
C720 C703 1.574 . S
C720 H714 0.949 . S
C720 C724 1.368 . S
C721 C702 1.429 . S
C721 C715 1.429 . S
C721 C722 1.523 . S
C722 C703 1.368 . S
C722 C716 1.368 . S
C722 C721 1.523 . S
C723 C707 1.429 . S
C723 C719 1.429 . S
C723 C724 1.523 . S
C724 C708 1.368 . S
C724 C720 1.368 . S
C724 C723 1.523 . S
H725 C700 0.950 . S
H726 C702 0.950 . S
H727 C703 0.949 . S
H728 C705 0.950 . S
H729 C707 0.950 . S
C730 C731 1.349 . S
C730 C732 1.327 . S
C730 H755 0.950 . S
C731 C730 1.349 . S
C731 C747 1.349 . S
C732 C730 1.327 . S
C732 C751 1.429 . S
C732 H756 0.950 . S
C733 C750 1.574 . S
C733 C752 1.368 . S
C733 H757 0.949 . S
H734 C738 0.949 . S
C735 C736 1.349 . S
C735 C737 1.327 . S
C735 H758 0.950 . S
C736 C735 1.349 . S
C736 C748 1.349 . S
C737 C735 1.327 . S
C737 C753 1.429 . S
C737 H759 0.950 . S
C738 H734 0.949 . S
C738 C746 1.574 . S
C738 C754 1.368 . S
H739 C747 0.950 . S
H740 C745 0.950 . S
H741 C746 0.949 . S
H742 C748 0.950 . S
H743 C749 0.950 . S
H744 C750 0.949 . S
C745 H740 0.950 . S
C745 C747 1.327 . S
C745 C751 1.429 . S
C746 C738 1.574 . S
C746 H741 0.949 . S
C746 C752 1.368 . S
C747 C731 1.349 . S
C747 H739 0.950 . S
C747 C745 1.327 . S
C748 C736 1.349 . S
C748 H742 0.950 . S
C748 C749 1.327 . S
C749 H743 0.950 . S
C749 C748 1.327 . S
C749 C753 1.429 . S
C750 C733 1.574 . S
C750 H744 0.949 . S
C750 C754 1.368 . S
C751 C732 1.429 . S
C751 C745 1.429 . S
C751 C752 1.523 . S
C752 C733 1.368 . S
C752 C746 1.368 . S
C752 C751 1.523 . S
C753 C737 1.429 . S
C753 C749 1.429 . S
C753 C754 1.523 . S
C754 C738 1.368 . S
C754 C750 1.368 . S
C754 C753 1.523 . S
H755 C730 0.950 . S
H756 C732 0.950 . S
H757 C733 0.949 . S
H758 C735 0.950 . S
H759 C737 0.950 . S
C760 C761 1.349 . S
C760 C762 1.327 . S
C760 H785 0.950 . S
C761 C760 1.349 . S
C761 C777 1.349 . S
C762 C760 1.327 . S
C762 C781 1.429 . S
C762 H786 0.950 . S
C763 C780 1.574 1_455 S
C763 C782 1.368 . S
C763 H787 0.949 . S
H764 C768 0.949 . S
C765 C766 1.349 . S
C765 C767 1.327 . S
C765 H788 0.950 . S
C766 C765 1.349 . S
C766 C778 1.349 . S
C767 C765 1.327 . S
C767 C783 1.429 . S
C767 H789 0.950 . S
C768 H764 0.949 . S
C768 C776 1.574 1_655 S
C768 C784 1.368 . S
H769 C777 0.950 . S
H770 C775 0.950 . S
H771 C776 0.949 . S
H772 C778 0.950 . S
H773 C779 0.950 . S
H774 C780 0.949 . S
C775 H770 0.950 . S
C775 C777 1.327 . S
C775 C781 1.429 . S
C776 C768 1.574 1_455 S
C776 H771 0.949 . S
C776 C782 1.368 . S
C777 C761 1.349 . S
C777 H769 0.950 . S
C777 C775 1.327 . S
C778 C766 1.349 . S
C778 H772 0.950 . S
C778 C779 1.327 . S
C779 H773 0.950 . S
C779 C778 1.327 . S
C779 C783 1.429 . S
C780 C763 1.574 1_655 S
C780 H774 0.949 . S
C780 C784 1.368 . S
C781 C762 1.429 . S
C781 C775 1.429 . S
C781 C782 1.523 . S
C782 C763 1.368 . S
C782 C776 1.368 . S
C782 C781 1.523 . S
C783 C767 1.429 . S
C783 C779 1.429 . S
C783 C784 1.523 . S
C784 C768 1.368 . S
C784 C780 1.368 . S
C784 C783 1.523 . S
H785 C760 0.950 . S
H786 C762 0.950 . S
H787 C763 0.949 . S
H788 C765 0.950 . S
H789 C767 0.950 . S
C790 C791 1.349 . S
C790 C792 1.327 . S
C790 H815 0.950 . S
C791 C790 1.349 . S
C791 C807 1.349 . S
C792 C790 1.327 . S
C792 C811 1.429 . S
C792 H816 0.950 . S
C793 C810 1.574 1_655 S
C793 C812 1.368 . S
C793 H817 0.949 . S
H794 C798 0.949 . S
C795 C796 1.349 . S
C795 C797 1.327 . S
C795 H818 0.950 . S
C796 C795 1.349 . S
C796 C808 1.349 . S
C797 C795 1.327 . S
C797 C813 1.429 . S
C797 H819 0.950 . S
C798 H794 0.949 . S
C798 C806 1.574 1_455 S
C798 C814 1.368 . S
H799 C807 0.950 . S
H800 C805 0.950 . S
H801 C806 0.949 . S
H802 C808 0.950 . S
H803 C809 0.950 . S
H804 C810 0.949 . S
C805 H800 0.950 . S
C805 C807 1.327 . S
C805 C811 1.429 . S
C806 C798 1.574 1_655 S
C806 H801 0.949 . S
C806 C812 1.368 . S
C807 C791 1.349 . S
C807 H799 0.950 . S
C807 C805 1.327 . S
C808 C796 1.349 . S
C808 H802 0.950 . S
C808 C809 1.327 . S
C809 H803 0.950 . S
C809 C808 1.327 . S
C809 C813 1.429 . S
C810 C793 1.574 1_455 S
C810 H804 0.949 . S
C810 C814 1.368 . S
C811 C792 1.429 . S
C811 C805 1.429 . S
C811 C812 1.523 . S
C812 C793 1.368 . S
C812 C806 1.368 . S
C812 C811 1.523 . S
C813 C797 1.429 . S
C813 C809 1.429 . S
C813 C814 1.523 . S
C814 C798 1.368 . S
C814 C810 1.368 . S
C814 C813 1.523 . S
H815 C790 0.950 . S
H816 C792 0.950 . S
H817 C793 0.949 . S
H818 C795 0.950 . S
H819 C797 0.950 . S
C820 C821 1.349 . S
C820 C822 1.327 . S
C820 H845 0.950 . S
C821 C820 1.349 . S
C821 C837 1.349 . S
C822 C820 1.327 . S
C822 C841 1.429 . S
C822 H846 0.950 . S
C823 C840 1.574 . S
C823 C842 1.368 . S
C823 H847 0.949 1_556 S
H824 C828 0.949 . S
C825 C826 1.349 . S
C825 C827 1.327 . S
C825 H848 0.950 1_556 S
C826 C825 1.349 . S
C826 C838 1.349 . S
C827 C825 1.327 . S
C827 C843 1.429 . S
C827 H849 0.950 1_556 S
C828 H824 0.949 . S
C828 C836 1.574 . S
C828 C844 1.368 . S
H829 C837 0.950 1_554 S
H830 C835 0.950 1_554 S
H831 C836 0.949 . S
H832 C838 0.950 . S
H833 C839 0.950 . S
H834 C840 0.949 1_554 S
C835 H830 0.950 1_556 S
C835 C837 1.327 . S
C835 C841 1.429 . S
C836 C828 1.574 . S
C836 H831 0.949 . S
C836 C842 1.368 . S
C837 C821 1.349 . S
C837 H829 0.950 1_556 S
C837 C835 1.327 . S
C838 C826 1.349 . S
C838 H832 0.950 . S
C838 C839 1.327 . S
C839 H833 0.950 . S
C839 C838 1.327 . S
C839 C843 1.429 . S
C840 C823 1.574 . S
C840 H834 0.949 1_556 S
C840 C844 1.368 . S
C841 C822 1.429 . S
C841 C835 1.429 . S
C841 C842 1.523 . S
C842 C823 1.368 . S
C842 C836 1.368 . S
C842 C841 1.523 . S
C843 C827 1.429 . S
C843 C839 1.429 . S
C843 C844 1.523 . S
C844 C828 1.368 . S
C844 C840 1.368 . S
C844 C843 1.523 . S
H845 C820 0.950 . S
H846 C822 0.950 . S
H847 C823 0.949 1_554 S
H848 C825 0.950 1_554 S
H849 C827 0.950 1_554 S
C850 C851 1.349 . S
C850 C852 1.327 . S
C850 H875 0.950 1_554 S
C851 C850 1.349 . S
C851 C867 1.349 . S
C852 C850 1.327 . S
C852 C871 1.429 . S
C852 H876 0.950 1_554 S
C853 C870 1.574 . S
C853 C872 1.368 . S
C853 H877 0.949 . S
H854 C858 0.949 1_556 S
C855 C856 1.349 . S
C855 C857 1.327 . S
C855 H878 0.950 . S
C856 C855 1.349 . S
C856 C868 1.349 . S
C857 C855 1.327 . S
C857 C873 1.429 . S
C857 H879 0.950 . S
C858 H854 0.949 1_554 S
C858 C866 1.574 . S
C858 C874 1.368 . S
H859 C867 0.950 . S
H860 C865 0.950 . S
H861 C866 0.949 1_556 S
H862 C868 0.950 1_556 S
H863 C869 0.950 1_556 S
H864 C870 0.949 . S
C865 H860 0.950 . S
C865 C867 1.327 . S
C865 C871 1.429 . S
C866 C858 1.574 . S
C866 H861 0.949 1_554 S
C866 C872 1.368 . S
C867 C851 1.349 . S
C867 H859 0.950 . S
C867 C865 1.327 . S
C868 C856 1.349 . S
C868 H862 0.950 1_554 S
C868 C869 1.327 . S
C869 H863 0.950 1_554 S
C869 C868 1.327 . S
C869 C873 1.429 . S
C870 C853 1.574 . S
C870 H864 0.949 . S
C870 C874 1.368 . S
C871 C852 1.429 . S
C871 C865 1.429 . S
C871 C872 1.523 . S
C872 C853 1.368 . S
C872 C866 1.368 . S
C872 C871 1.523 . S
C873 C857 1.429 . S
C873 C869 1.429 . S
C873 C874 1.523 . S
C874 C858 1.368 . S
C874 C870 1.368 . S
C874 C873 1.523 . S
H875 C850 0.950 1_556 S
H876 C852 0.950 1_556 S
H877 C853 0.949 . S
H878 C855 0.950 . S
H879 C857 0.950 . S
C161 C19 1.840 . S
C166 C148 1.840 . S
C191 C139 1.840 . S
C196 C28 1.840 . S
C221 C108 1.840 . S
C226 C59 1.840 . S
C251 C99 1.840 . S
C256 C68 1.840 . S
C281 C41 1.852 . S
C286 C1 1.852 . S
C311 C21 1.142 . S
C316 C61 1.142 . S
C341 C69 1.852 . S
C346 C29 1.852 . S
C371 C49 1.142 . S
C376 C9 1.142 . S
C401 C81 1.852 . S
C406 C121 1.852 . S
C431 C101 1.142 . S
C436 C141 1.142 . S
C461 C149 1.852 . S
C466 C109 1.852 . S
C491 C129 1.142 . S
C496 C89 1.142 . S
C521 C16 1.512 . S
C526 C6 1.512 . S
C551 C26 1.512 . S
C556 C36 1.512 . S
C581 C46 1.512 . S
C586 C56 1.512 . S
C611 C66 1.512 . S
C616 C76 1.512 . S
C641 C86 1.512 . S
C646 C96 1.512 . S
C671 C106 1.512 . S
C676 C116 1.512 . S
C701 C136 1.512 . S
C706 C126 1.512 . S
C731 C146 1.512 . S
C736 C156 1.512 . S
C761 C8 1.853 . S
C766 C39 1.853 . S
C791 C79 1.853 . S
C796 C48 1.853 . S
C821 C88 1.853 . S
C826 C119 1.853 . S
C851 C159 1.853 . S
C856 C128 1.853 . S
