# Generated by pormake.
# Topology smc, (6)-cn, num edge types: 1
# Building blocks:
#     Node 0, Type 0, BuildingBlock: KUMJIN_clean_sbu_0, # of connection points: 6
#     Node 1, Type 0, BuildingBlock: KUMJIN_clean_sbu_0, # of connection points: 6
#     Node 2, Type 0, BuildingBlock: KUMJIN_clean_sbu_0, # of connection points: 6
#     Node 3, Type 0, BuildingBlock: KUMJIN_clean_sbu_0, # of connection points: 6
#     Node 4, Type 0, BuildingBlock: KUMJIN_clean_sbu_0, # of connection points: 6
#     Node 5, Type 0, BuildingBlock: KUMJIN_clean_sbu_0, # of connection points: 6
#     Node 6, Type 0, BuildingBlock: KUMJIN_clean_sbu_0, # of connection points: 6
#     Node 7, Type 0, BuildingBlock: KUMJIN_clean_sbu_0, # of connection points: 6
#     Node 8, Type 0, BuildingBlock: KUMJIN_clean_sbu_0, # of connection points: 6
#     Edge 9, Type (0, 0), BuildingBlock: KIFKEQ_clean_linker_1, # of connection points: 2
#     Edge 10, Type (0, 0), BuildingBlock: KIFKEQ_clean_linker_1, # of connection points: 2
#     Edge 11, Type (0, 0), BuildingBlock: KIFKEQ_clean_linker_1, # of connection points: 2
#     Edge 12, Type (0, 0), BuildingBlock: KIFKEQ_clean_linker_1, # of connection points: 2
#     Edge 13, Type (0, 0), BuildingBlock: KIFKEQ_clean_linker_1, # of connection points: 2
#     Edge 14, Type (0, 0), BuildingBlock: KIFKEQ_clean_linker_1, # of connection points: 2
#     Edge 15, Type (0, 0), BuildingBlock: KIFKEQ_clean_linker_1, # of connection points: 2
#     Edge 16, Type (0, 0), BuildingBlock: KIFKEQ_clean_linker_1, # of connection points: 2
#     Edge 17, Type (0, 0), BuildingBlock: KIFKEQ_clean_linker_1, # of connection points: 2
#     Edge 18, Type (0, 0), BuildingBlock: KIFKEQ_clean_linker_1, # of connection points: 2
#     Edge 19, Type (0, 0), BuildingBlock: KIFKEQ_clean_linker_1, # of connection points: 2
#     Edge 20, Type (0, 0), BuildingBlock: KIFKEQ_clean_linker_1, # of connection points: 2
#     Edge 21, Type (0, 0), BuildingBlock: KIFKEQ_clean_linker_1, # of connection points: 2
#     Edge 22, Type (0, 0), BuildingBlock: KIFKEQ_clean_linker_1, # of connection points: 2
#     Edge 23, Type (0, 0), BuildingBlock: KIFKEQ_clean_linker_1, # of connection points: 2
#     Edge 24, Type (0, 0), BuildingBlock: KIFKEQ_clean_linker_1, # of connection points: 2
#     Edge 25, Type (0, 0), BuildingBlock: KIFKEQ_clean_linker_1, # of connection points: 2
#     Edge 26, Type (0, 0), BuildingBlock: KIFKEQ_clean_linker_1, # of connection points: 2
#     Edge 27, Type (0, 0), BuildingBlock: KIFKEQ_clean_linker_1, # of connection points: 2
#     Edge 28, Type (0, 0), BuildingBlock: KIFKEQ_clean_linker_1, # of connection points: 2
#     Edge 29, Type (0, 0), BuildingBlock: KIFKEQ_clean_linker_1, # of connection points: 2
#     Edge 30, Type (0, 0), BuildingBlock: KIFKEQ_clean_linker_1, # of connection points: 2
#     Edge 31, Type (0, 0), BuildingBlock: KIFKEQ_clean_linker_1, # of connection points: 2
#     Edge 32, Type (0, 0), BuildingBlock: KIFKEQ_clean_linker_1, # of connection points: 2
#     Edge 33, Type (0, 0), BuildingBlock: KIFKEQ_clean_linker_1, # of connection points: 2
#     Edge 34, Type (0, 0), BuildingBlock: KIFKEQ_clean_linker_1, # of connection points: 2
#     Edge 35, Type (0, 0), BuildingBlock: KIFKEQ_clean_linker_1, # of connection points: 2
# Relax obj value: 0.109
# Max RMSD: 0.287
# Mean RMSD: 0.287
data_MOF--net-smc--node1-KUMJIN_clean_sbu_0--edge1-KIFKEQ_clean_linker_1
_symmetry_space_group_name_H-M    P1
_symmetry_Int_Tables_number       1
_symmetry_cell_setting            triclinic
loop_
_symmetry_equiv_pos_as_xyz
'x, y, z'
_cell_length_a     38.72139
_cell_length_b     38.684904
_cell_length_c     41.639126
_cell_angle_alpha  90.024624
_cell_angle_beta   89.933778
_cell_angle_gamma 120.10386
loop_
_atom_site_label
_atom_site_type_symbol
_atom_site_fract_x
_atom_site_fract_y
_atom_site_fract_z
_atom_type_partial_charge
Eu0 Eu 0.05972 0.5052 0.99042 0.0
C1 C 1.00788 0.34546 0.06157 0.0
C2 C 0.04814 0.32166 0.03593 0.0
C3 C 0.02828 0.30489 0.09174 0.0
C4 C 0.02833 0.34388 0.03494 0.0
C5 C 1.00697 0.3254 0.09011 0.0
C6 C 0.04877 0.30296 0.06467 0.0
C7 C 0.96131 0.34452 0.11234 0.0
N8 N 0.9876 0.36551 0.05917 0.0
C9 C 0.96302 0.36385 0.08349 0.0
C10 C 0.98387 0.32573 0.11585 0.0
Eu11 Eu 0.99423 0.4001 0.01039 0.0
N12 N 0.02687 0.36208 0.00751 0.0
C13 C 0.04189 0.35647 0.97957 0.0
C14 C 0.06564 0.31785 0.00775 0.0
C15 C 0.06187 0.33475 0.97933 0.0
H16 H 0.94572 0.37855 0.08102 0.0
H17 H 0.07441 0.33113 0.9572 0.0
H18 H 0.06419 0.28612 0.06597 0.0
H19 H 0.94269 0.34424 0.13186 0.0
H20 H 0.03913 0.36913 0.95734 0.0
H21 H 1.01567 0.55149 0.10096 0.0
H22 H 0.08108 0.30099 0.00748 0.0
H23 H 0.05575 0.53088 0.91329 0.0
H24 H 0.03947 0.51452 0.06965 0.0
H25 H 0.03536 0.57243 0.88342 0.0
H26 H 0.02827 0.28961 0.11354 0.0
H27 H 0.99576 0.59556 0.07395 0.0
H28 H 0.98674 0.62415 0.02317 0.0
H29 H 0.98249 0.31078 0.13822 0.0
H30 H 0.99145 0.62932 0.96443 0.0
N31 N 0.03412 0.53697 0.0242 0.0
C32 C 0.0316 0.53362 0.05695 0.0
C33 C 1.0066 0.57945 0.05977 0.0
C34 C 1.00917 0.58298 0.02635 0.0
C35 C 1.01779 0.55461 0.07509 0.0
C36 C 0.02326 0.56116 0.00886 0.0
H37 H 1.00861 0.6097 0.91239 0.0
N38 N 0.03739 0.54125 0.95889 0.0
C39 C 0.03168 0.56969 0.90923 0.0
C40 C 0.02499 0.56337 0.97547 0.0
C41 C 0.04254 0.54556 0.92631 0.0
C42 C 1.01686 0.59086 0.92569 0.0
C43 C 1.0138 0.5883 0.95916 0.0
O44 O 0.11591 0.54 0.96462 0.0
O45 O 0.0592 0.44839 1.001 0.0
O46 O 0.0283 0.42611 0.05586 0.0
O47 O 0.07676 0.49148 0.04176 0.0
O48 O 0.09013 0.47971 0.96057 0.0
O49 O 0.1064 0.56503 0.0074 0.0
O50 O 0.92886 0.36845 0.01495 0.0
O51 O 0.99637 0.45742 0.99646 0.0
O52 O 0.02234 0.47185 0.94517 0.0
O53 O 1.0041 0.40596 0.95668 0.0
O54 O 0.96056 0.42674 0.03512 0.0
O55 O 0.95612 0.34771 0.9808 0.0
C56 C 0.0831 0.45 0.97903 0.0
C57 C 0.14494 0.61105 0.96491 0.0
C58 C 0.18258 0.68512 0.96233 0.0
C59 C 0.16794 0.64895 0.98024 0.0
C60 C 0.17383 0.68245 0.92935 0.0
C61 C 0.13857 0.61046 0.93159 0.0
C62 C 0.15227 0.64563 0.91424 0.0
C63 C 0.06012 0.46067 0.06263 0.0
C64 C 0.12923 0.57193 0.98237 0.0
C65 C 1.00022 0.61018 0.97662 0.0
C66 C 0.99769 0.60735 0.01007 0.0
C67 C 0.97153 0.45696 0.01645 0.0
C68 C 0.89346 0.29909 0.00328 0.0
C69 C 0.85185 0.28481 1.00176 0.0
C70 C 0.82396 0.24447 0.00906 0.0
C71 C 0.83822 0.21894 0.01817 0.0
C72 C 0.90667 0.27292 0.01302 0.0
C73 C 0.87918 0.23317 0.02036 0.0
C74 C 1.00809 0.43387 0.93639 0.0
C75 C 0.92279 0.34091 0.9942 0.0
H76 H 0.17438 0.65028 0.00566 0.0
H77 H 0.18485 0.70914 0.91478 0.0
H78 H 0.12337 0.58266 0.91847 0.0
H79 H 0.14669 0.64433 0.88867 0.0
H80 H 0.84125 0.30476 0.99445 0.0
H81 H 0.81751 0.18793 0.02391 0.0
H82 H 0.93827 0.28314 0.01474 0.0
H83 H 0.8897 0.21319 0.02768 0.0
Eu84 Eu 0.54469 0.56361 0.99038 0.0
C85 C 0.70048 0.67855 0.06112 0.0
C86 C 0.72069 0.74017 0.03241 0.0
C87 C 0.73664 0.74211 0.08908 0.0
C88 C 0.7012 0.69807 0.03317 0.0
C89 C 0.71898 0.70032 0.08923 0.0
C90 C 0.73752 0.76202 0.0607 0.0
C91 C 0.70422 0.63819 0.1146 0.0
N92 N 0.68315 0.6382 0.06042 0.0
C93 C 0.68629 0.61794 0.08613 0.0
C94 C 0.72007 0.6795 0.11634 0.0
Eu95 Eu 0.64974 0.60549 0.01244 0.0
N96 N 0.68493 0.67603 0.00626 0.0
C97 C 0.69017 0.69443 0.97721 0.0
C98 C 0.72373 0.75906 0.00304 0.0
C99 C 0.70899 0.73609 0.97524 0.0
H100 H 0.67352 0.58591 0.085 0.0
H101 H 0.71205 0.75042 0.95226 0.0
H102 H 0.7522 0.79434 0.06067 0.0
H103 H 0.7056 0.62191 0.13523 0.0
H104 H 0.67895 0.67715 0.95549 0.0
H105 H 0.49661 0.47663 0.10248 0.0
H106 H 0.7384 0.79133 1.00143 0.0
H107 H 0.52072 0.53122 0.91349 0.0
H108 H 0.53398 0.53651 0.07005 0.0
H109 H 0.48001 0.4682 0.88463 0.0
H110 H 0.7506 0.75936 0.11053 0.0
H111 H 0.45309 0.41159 0.0765 0.0
H112 H 0.42519 0.37227 0.02625 0.0
H113 H 0.73392 0.69512 0.13842 0.0
H114 H 0.42101 0.36993 0.96743 0.0
N115 N 0.51272 0.50704 0.02502 0.0
C116 C 0.51534 0.50899 0.05781 0.0
C117 C 0.46951 0.4381 0.06184 0.0
C118 C 0.46659 0.43603 0.02838 0.0
C119 C 0.49404 0.47473 0.07658 0.0
C120 C 0.48879 0.47141 0.01026 0.0
H121 H 0.44201 0.40502 0.91471 0.0
N122 N 0.50959 0.50398 0.95981 0.0
C123 C 0.48223 0.46809 0.91053 0.0
C124 C 0.48717 0.46989 0.97689 0.0
C125 C 0.506 0.50372 0.92708 0.0
C126 C 0.46064 0.43259 0.9276 0.0
C127 C 0.46248 0.43319 0.96113 0.0
O128 O 0.50952 0.58305 0.96285 0.0
O129 O 0.60102 0.62069 1.00097 0.0
O130 O 0.62104 0.61159 0.05714 0.0
O131 O 0.55721 0.59673 0.04049 0.0
O132 O 0.57078 0.61792 0.959 0.0
O133 O 0.4853 0.55177 0.00711 0.0
O134 O 0.6841 0.57521 0.02122 0.0
O135 O 0.59307 0.54964 0.99891 0.0
O136 O 0.57889 0.55955 0.94584 0.0
O137 O 0.64539 0.60468 0.95842 0.0
O138 O 0.62375 0.54559 0.03799 0.0
O139 O 0.70213 0.61866 0.98333 0.0
C140 C 0.59937 0.64168 0.97798 0.0
C141 C 0.43851 0.54114 0.9646 0.0
C142 C 0.36452 0.50534 0.96305 0.0
C143 C 0.40109 0.52842 0.98006 0.0
C144 C 0.36626 0.4954 0.93085 0.0
C145 C 0.43824 0.5317 0.93192 0.0
C146 C 0.40264 0.5086 0.91551 0.0
C147 C 0.58676 0.61008 0.06236 0.0
C148 C 0.47799 0.56588 0.98118 0.0
C149 C 0.44008 0.39826 0.97918 0.0
C150 C 0.44234 0.39962 0.01268 0.0
C151 C 0.59358 0.52579 0.01937 0.0
C152 C 0.75291 0.60939 0.0072 0.0
C153 C 0.76978 0.58439 0.0039 0.0
C154 C 0.8109 0.59937 0.00993 0.0
C155 C 0.83442 0.63936 0.01978 0.0
C156 C 0.7772 0.64894 0.01751 0.0
C157 C 0.81762 0.66372 0.02374 0.0
C158 C 0.6175 0.58101 0.93801 0.0
C159 C 0.71044 0.59453 0.99899 0.0
H160 H 0.40043 0.53641 0.00489 0.0
H161 H 0.33918 0.4783 0.91701 0.0
H162 H 0.46567 0.54272 0.91854 0.0
H163 H 0.40327 0.50146 0.89045 0.0
H164 H 0.75122 0.55375 0.99601 0.0
H165 H 0.86588 0.6517 0.02486 0.0
H166 H 0.76496 0.66853 0.02048 0.0
H167 H 0.83614 0.69434 0.03157 0.0
Eu168 Eu 0.48663 0.99337 0.99392 0.0
C169 C 0.36642 0.03165 0.05936 0.0
C170 C 0.30732 0.9924 0.02718 0.0
C171 C 0.30066 1.00396 0.08365 0.0
C172 C 0.34924 0.01417 0.03033 0.0
C173 C 0.34235 0.02746 0.08619 0.0
C174 C 0.28317 0.98652 0.05417 0.0
C175 C 0.4023 0.07277 0.1152 0.0
N176 N 0.40675 0.05413 0.06102 0.0
C177 C 0.42488 0.07617 0.0879 0.0
C178 C 0.36088 0.04781 0.11451 0.0
Eu179 Eu 0.44313 0.05541 0.01472 0.0
N180 N 0.37344 0.02049 0.00472 0.0
C181 C 0.35761 1.00886 0.97471 0.0
C182 C 0.29094 0.97834 0.99677 0.0
C183 C 0.31622 0.98734 0.97033 0.0
H184 H 0.45697 0.09509 0.0886 0.0
H185 H 0.30386 0.97743 0.94657 0.0
H186 H 0.25093 0.96944 0.05229 0.0
H187 H 0.41684 0.0893 0.13675 0.0
H188 H 0.37668 0.01523 0.95405 0.0
H189 H 0.55937 0.01475 0.11179 0.0
H190 H 0.2589 0.96157 0.99331 0.0
H191 H 0.53174 0.02396 0.91963 0.0
H192 H 0.50369 0.993 0.07544 0.0
H193 H 0.59834 0.06083 0.89726 0.0
H194 H 0.28167 0.99996 0.1041 0.0
H195 H 0.6283 0.04873 0.09102 0.0
H196 H 0.6745 0.07495 0.04441 0.0
H197 H 0.34344 0.04523 0.13568 0.0
H198 H 0.68496 0.08747 0.98659 0.0
N199 N 0.53902 0.01664 0.03296 0.0
C200 C 0.53286 1.00902 0.06522 0.0
C201 C 0.6036 0.03981 0.07454 0.0
C202 C 0.6101 0.04684 0.04163 0.0
C203 C 0.56481 0.02086 0.08635 0.0
C204 C 0.57689 0.03487 0.02106 0.0
H205 H 0.6572 0.08426 0.93222 0.0
N206 N 0.55067 0.03174 0.96893 0.0
C207 C 0.5945 0.05669 0.92299 0.0
C208 C 0.58287 0.04278 0.98837 0.0
C209 C 0.55624 0.03693 0.9363 0.0
C210 C 0.62759 0.06946 0.94273 0.0
C211 C 0.62212 0.06198 0.97566 0.0
O212 O 0.48906 0.94941 0.96211 0.0
O213 O 0.42898 0.99169 0.00296 0.0
O214 O 0.43373 0.01931 0.05916 0.0
O215 O 0.44947 0.97107 0.04231 0.0
O216 O 0.43056 0.95867 0.96465 0.0
O217 O 0.49013 0.94183 0.01296 0.0
O218 O 0.47199 0.11942 0.02614 0.0
O219 O 0.49996 0.05605 1.00161 0.0
O220 O 0.47887 0.01946 0.94606 0.0
O221 O 0.44847 0.05616 0.96102 0.0
O222 O 0.50157 0.088 0.0421 0.0
O223 O 0.43214 0.09604 0.98568 0.0
C224 C 0.40727 0.96672 0.98132 0.0
C225 C 0.52838 0.92154 0.98071 0.0
C226 C 0.56054 0.88043 0.9872 0.0
C227 C 0.52686 0.88572 0.99129 0.0
C228 C 0.59519 0.91129 0.97291 0.0
C229 C 0.5631 0.95024 0.96497 0.0
C230 C 0.59628 0.94561 0.96171 0.0
C231 C 0.4348 0.98634 0.06399 0.0
C232 C 0.4943 0.92938 0.98492 0.0
C233 C 0.65482 0.07305 0.99604 0.0
C234 C 0.64886 0.06575 0.02893 0.0
C235 C 0.52267 0.07977 0.02303 0.0
C236 C 0.4391 0.15465 0.01059 0.0
C237 C 0.46421 0.1966 0.00821 0.0
C238 C 0.44885 0.2225 0.01344 0.0
C239 C 0.4083 0.20574 0.02156 0.0
C240 C 0.39894 0.13894 0.01917 0.0
C241 C 0.38374 0.16439 0.02464 0.0
C242 C 0.46375 0.04294 0.93932 0.0
C243 C 0.45468 0.12758 0.003 0.0
H244 H 0.49993 0.86232 1.00239 0.0
H245 H 0.6212 0.90815 0.96919 0.0
H246 H 0.56463 0.97618 0.95443 0.0
H247 H 0.62279 0.96852 0.94978 0.0
H248 H 0.49529 0.20896 1.0016 0.0
H249 H 0.39568 0.22476 0.02594 0.0
H250 H 0.37923 0.10696 0.02133 0.0
H251 H 0.35266 0.15199 0.03113 0.0
Eu252 Eu 0.72027 0.8349 0.32402 0.0
C253 C 0.67555 0.67415 0.38927 0.0
C254 C 0.71798 0.65497 0.36096 0.0
C255 C 0.69993 0.63506 0.41662 0.0
C256 C 0.69593 0.67497 0.36177 0.0
C257 C 0.6766 0.65351 0.41681 0.0
C258 C 0.7206 0.6358 0.38874 0.0
C259 C 0.62902 0.66821 0.44175 0.0
N260 N 0.65342 0.69239 0.38869 0.0
C261 C 0.6289 0.68827 0.41385 0.0
C262 C 0.65343 0.65125 0.44343 0.0
Eu263 Eu 0.65711 0.72856 0.34161 0.0
N264 N 0.69243 0.69345 0.33529 0.0
C265 C 0.70766 0.69027 0.30654 0.0
C266 C 0.73579 0.65388 0.33203 0.0
C267 C 0.73008 0.67109 0.30459 0.0
H268 H 0.61031 0.70172 0.41276 0.0
H269 H 0.74293 0.66962 0.28189 0.0
H270 H 0.73772 0.62063 0.38866 0.0
H271 H 0.61041 0.66597 0.46196 0.0
H272 H 0.70353 0.70325 0.28504 0.0
H273 H 0.67593 0.87425 0.43791 0.0
H274 H 0.75304 0.63891 0.33042 0.0
H275 H 0.71374 0.86304 0.24819 0.0
H276 H 0.6997 0.83923 0.40414 0.0
H277 H 0.69257 0.90562 0.22103 0.0
H278 H 0.70146 0.61939 0.43764 0.0
H279 H 0.65579 0.91966 0.4137 0.0
H280 H 0.64649 0.95098 0.36467 0.0
H281 H 0.65348 0.63573 0.46506 0.0
H282 H 0.65061 0.95915 0.30612 0.0
N283 N 0.6941 0.86409 0.36002 0.0
C284 C 0.69172 0.85892 0.39262 0.0
C285 C 0.66657 0.90438 0.39843 0.0
C286 C 0.66889 0.90968 0.36516 0.0
C287 C 0.6779 0.8788 0.41217 0.0
C288 C 0.68289 0.88888 0.34621 0.0
H289 H 0.66654 0.94166 0.25264 0.0
N290 N 0.69644 0.87147 0.29492 0.0
C291 C 0.68947 0.90181 0.24682 0.0
C292 C 0.68421 0.89271 0.31292 0.0
C293 C 0.70075 0.87705 0.26238 0.0
C294 C 0.67507 0.92229 0.26476 0.0
C295 C 0.67271 0.91831 0.29817 0.0
O296 O 0.77618 0.87078 0.29813 0.0
O297 O 0.72142 0.77845 0.33265 0.0
O298 O 0.69094 0.75402 0.38735 0.0
O299 O 0.73898 0.81991 0.37403 0.0
O300 O 0.75057 0.81162 0.29209 0.0
O301 O 0.76638 0.89488 0.34129 0.0
O302 O 0.59195 0.69408 0.3478 0.0
O303 O 0.65769 0.78556 0.32972 0.0
O304 O 0.68292 0.80292 0.27845 0.0
O305 O 0.66552 0.73676 0.28791 0.0
O306 O 0.62181 0.75268 0.36765 0.0
O307 O 0.61948 0.67744 0.31067 0.0
C308 C 0.74511 0.78187 0.30989 0.0
C309 C 0.80432 0.94163 0.29901 0.0
C310 C 0.84213 0.01567 0.29671 0.0
C311 C 0.82797 0.97939 0.31435 0.0
C312 C 0.83221 1.01327 0.26399 0.0
C313 C 0.79683 0.94128 0.26591 0.0
C314 C 0.81002 0.97656 0.24884 0.0
C315 C 0.72276 0.78852 0.39434 0.0
C316 C 0.7892 0.90241 0.31617 0.0
C317 C 0.65948 0.93939 0.3171 0.0
C318 C 0.65728 0.93487 0.35044 0.0
C319 C 0.63241 0.78364 0.3499 0.0
C320 C 0.55838 0.62562 0.3329 0.0
C321 C 0.51643 0.60925 0.33092 0.0
C322 C 0.49002 0.56799 0.3365 0.0
C323 C 0.5063 0.54382 0.34456 0.0
C324 C 0.57346 0.60065 0.34149 0.0
C325 C 0.54755 0.56009 0.34725 0.0
C326 C 0.66905 0.76537 0.26864 0.0
C327 C 0.5862 0.66838 0.32538 0.0
H328 H 0.83533 0.98053 0.33956 0.0
H329 H 0.84282 0.04007 0.24963 0.0
H330 H 0.78118 0.91357 0.25273 0.0
H331 H 0.80357 0.97545 0.22344 0.0
H332 H 0.50448 0.62831 0.32443 0.0
H333 H 0.48697 0.51223 0.34923 0.0
H334 H 0.60534 0.61247 0.34352 0.0
H335 H 0.55952 0.54107 0.35375 0.0
Eu336 Eu 0.20865 0.89306 0.32665 0.0
C337 C 0.36667 1.01244 0.39404 0.0
C338 C 0.3877 0.07225 0.36246 0.0
C339 C 0.40487 0.07774 0.41909 0.0
C340 C 0.36713 0.03024 0.36515 0.0
C341 C 0.38619 0.03595 0.42119 0.0
C342 C 0.40571 0.09587 0.38975 0.0
C343 C 0.37012 0.97526 0.4497 0.0
N344 N 0.34831 0.97201 0.39528 0.0
C345 C 0.35127 0.95324 0.4221 0.0
C346 C 0.38713 0.01677 0.44941 0.0
Eu347 Eu 0.31396 0.9366 0.34845 0.0
N348 N 0.34947 1.00654 0.33924 0.0
C349 C 0.35419 0.02298 0.30942 0.0
C350 C 0.39066 0.08927 0.33222 0.0
C351 C 0.37452 0.0645 0.30549 0.0
H352 H 0.33769 0.92108 0.42249 0.0
H353 H 0.37744 0.07735 0.28187 0.0
H354 H 0.42121 0.12819 0.38822 0.0
H355 H 0.37141 0.96022 0.47118 0.0
H356 H 0.34163 1.00432 0.28853 0.0
H357 H 0.15618 0.81944 0.44427 0.0
H358 H 0.40629 0.12141 0.32911 0.0
H359 H 0.19472 0.84837 0.25224 0.0
H360 H 0.19093 0.87542 0.40819 0.0
H361 H 0.16494 0.78184 0.22968 0.0
H362 H 0.41963 0.09632 0.43979 0.0
H363 H 0.12075 0.75063 0.42322 0.0
H364 H 0.10083 0.70471 0.37645 0.0
H365 H 0.40172 0.03378 0.47081 0.0
H366 H 0.10341 0.69461 0.31863 0.0
N367 N 0.17889 0.84036 0.36551 0.0
C368 C 0.1774 0.8463 0.39781 0.0
C369 C 0.13679 0.77545 0.40684 0.0
C370 C 0.1375 0.76917 0.37391 0.0
C371 C 0.1569 0.81418 0.41881 0.0
C372 C 0.15909 0.80254 0.35347 0.0
H373 H 0.12875 0.72272 0.26442 0.0
N374 N 0.18287 0.82911 0.30148 0.0
C375 C 0.16435 0.78553 0.25541 0.0
C376 C 0.16131 0.79677 0.32077 0.0
C377 C 0.18288 0.82374 0.26884 0.0
C378 C 0.14359 0.75229 0.27503 0.0
C379 C 0.1412 0.75757 0.30794 0.0
O380 O 0.16281 0.89102 0.29449 0.0
O381 O 0.26461 0.95074 0.33608 0.0
O382 O 0.28677 0.94652 0.39241 0.0
O383 O 0.22271 0.92991 0.37511 0.0
O384 O 0.23064 0.9494 0.2975 0.0
O385 O 0.15333 0.88926 0.34529 0.0
O386 O 0.34837 0.90705 0.35979 0.0
O387 O 0.25781 0.87978 0.33491 0.0
O388 O 0.24328 0.90064 0.2792 0.0
O389 O 0.31029 0.93243 0.29466 0.0
O390 O 0.28738 0.87795 0.37574 0.0
O391 O 0.36611 0.94786 0.31988 0.0
C392 C 0.26174 0.97268 0.31445 0.0
C393 C 0.09523 0.85135 0.31249 0.0
C394 C 0.02184 0.81889 0.31872 0.0
C395 C 0.06083 0.85257 0.32316 0.0
C396 C 1.01813 0.78454 0.30396 0.0
C397 C 0.08931 0.81695 0.29632 0.0
C398 C 0.05148 0.78376 0.29269 0.0
C399 C 0.25246 0.94499 0.39694 0.0
C400 C 0.13717 0.88543 0.31711 0.0
C401 C 0.11918 0.72472 0.32818 0.0
C402 C 0.11754 0.73047 0.36108 0.0
C403 C 0.25837 0.85693 0.35639 0.0
C404 C 0.41683 0.9394 0.34478 0.0
C405 C 0.43327 0.91402 0.3417 0.0
C406 C 0.47442 0.9288 0.34723 0.0
C407 C 0.49845 0.969 0.35637 0.0
C408 C 0.44158 0.97917 0.35435 0.0
C409 C 0.48208 0.99377 0.36012 0.0
C410 C 0.28207 0.91651 0.27276 0.0
C411 C 0.37433 0.92459 0.33693 0.0
H412 H 0.06429 0.87926 0.33463 0.0
H413 H 0.98898 0.75855 0.29994 0.0
H414 H 0.11384 0.81569 0.28574 0.0
H415 H 0.04795 0.7575 0.28042 0.0
H416 H 0.41434 0.88324 0.33431 0.0
H417 H 0.52999 0.9812 0.36102 0.0
H418 H 0.42965 0.99905 0.35706 0.0
H419 H 0.50098 0.02456 0.36738 0.0
Eu420 Eu 0.14753 0.32038 0.3235 0.0
C421 C 0.03826 0.37154 0.39413 0.0
C422 C 0.97442 0.33183 0.36791 0.0
C423 C 0.97686 0.35111 0.4238 0.0
C424 C 1.01651 0.35161 0.36721 0.0
C425 C 1.01874 0.37204 0.42259 0.0
C426 C 0.95473 0.33107 0.39649 0.0
C427 C 0.08346 0.4157 0.44599 0.0
N428 N 0.0787 0.39101 0.39233 0.0
C429 C 0.10147 0.41427 0.41727 0.0
C430 C 0.04193 0.39407 0.44882 0.0
Eu431 Eu 0.10714 0.38521 0.34355 0.0
N432 N 0.03647 0.35292 0.33998 0.0
C433 C 1.0161 0.33749 0.312 0.0
C434 C 0.95339 0.31416 0.33968 0.0
C435 C 0.97437 0.31753 0.3115 0.0
H436 H 0.13361 0.43084 0.41531 0.0
H437 H 0.95843 0.30467 0.28935 0.0
H438 H 0.92243 0.3157 0.39755 0.0
H439 H 0.10163 0.4334 0.46594 0.0
H440 H 0.03167 0.3398 0.28994 0.0
H441 H 0.23251 0.36274 0.43675 0.0
H442 H 0.92106 0.29869 0.3392 0.0
H443 H 0.18172 0.32937 0.24706 0.0
H444 H 0.17337 0.33982 0.40361 0.0
H445 H 0.24535 0.35198 0.21923 0.0
H446 H 0.9613 0.35081 0.44554 0.0
H447 H 0.29778 0.38318 0.41176 0.0
H448 H 0.33796 0.39377 0.36218 0.0
H449 H 0.02806 0.39516 0.47112 0.0
H450 H 0.34152 0.39139 0.30347 0.0
N451 N 0.20328 0.34581 0.35905 0.0
C452 C 0.20088 0.34777 0.39174 0.0
C453 C 0.27155 0.37267 0.39676 0.0
C454 C 0.27418 0.37104 0.36339 0.0
C455 C 0.23478 0.36117 0.41094 0.0
C456 C 0.23915 0.35735 0.3448 0.0
H457 H 0.30769 0.37715 0.25028 0.0
N458 N 0.20774 0.34528 0.29379 0.0
C459 C 0.24481 0.35417 0.24512 0.0
C460 C 0.24138 0.35698 0.31143 0.0
C461 C 0.20882 0.34219 0.26109 0.0
C462 C 0.27984 0.36804 0.26273 0.0
C463 C 0.27843 0.36918 0.29624 0.0
O464 O 0.12897 0.26576 0.29611 0.0
O465 O 0.09117 0.32066 0.33372 0.0
O466 O 0.09554 0.34846 0.38807 0.0
O467 O 0.11484 0.30179 0.37406 0.0
O468 O 0.09111 0.28825 0.29427 0.0
O469 O 0.16036 0.2735 0.34036 0.0
O470 O 0.14022 0.45046 0.34938 0.0
O471 O 0.16246 0.38352 0.32938 0.0
O472 O 0.15049 0.35705 0.27808 0.0
O473 O 0.10309 0.3755 0.28989 0.0
O474 O 0.16759 0.4189 0.36829 0.0
O475 O 0.09399 0.42379 0.31364 0.0
C476 C 0.06868 0.29619 0.31219 0.0
C477 C 0.17151 0.23745 0.2978 0.0
C478 C 0.20777 0.19969 0.29592 0.0
C479 C 0.1848 0.21317 0.31318 0.0
C480 C 0.21688 0.21092 0.26353 0.0
C481 C 0.18037 0.24628 0.26501 0.0
C482 C 0.20324 0.23375 0.24833 0.0
C483 C 0.0987 0.31688 0.39456 0.0
C484 C 0.1465 0.25188 0.31446 0.0
C485 C 0.31295 0.38202 0.3148 0.0
C486 C 0.31089 0.38321 0.34823 0.0
C487 C 0.1869 0.4084 0.34927 0.0
C488 C 0.10684 0.48595 0.33635 0.0
C489 C 0.13417 0.52766 0.33518 0.0
C490 C 0.12131 0.55533 0.34178 0.0
C491 C 0.08113 0.54074 0.3499 0.0
C492 C 0.06705 0.47241 0.3451 0.0
C493 C 0.05438 0.49967 0.35178 0.0
C494 C 0.1267 0.37122 0.26948 0.0
C495 C 0.1198 0.45688 0.32787 0.0
H496 H 0.17732 0.20482 0.33812 0.0
H497 H 0.2337 0.20088 0.24939 0.0
H498 H 0.16902 0.26242 0.25171 0.0
H499 H 0.20983 0.24121 0.22317 0.0
H500 H 0.16502 0.5385 0.32862 0.0
H501 H 0.07049 0.56126 0.3551 0.0
H502 H 0.04566 0.44072 0.34653 0.0
H503 H 0.02358 0.4889 0.35833 0.0
Eu504 Eu 0.38975 0.16882 0.65843 0.0
C505 C 0.34168 1.00679 0.72447 0.0
C506 C 0.38197 0.98553 0.69537 0.0
C507 C 0.36442 0.96589 0.75114 0.0
C508 C 0.36122 1.00682 0.69665 0.0
C509 C 0.34247 0.98579 0.75187 0.0
C510 C 0.38412 0.96575 0.72293 0.0
C511 C 0.29798 1.00382 0.77805 0.0
N512 N 0.32123 0.02678 0.72454 0.0
C513 C 0.29815 0.02428 0.75032 0.0
C514 C 0.32068 0.98494 0.779 0.0
Eu515 Eu 0.32518 0.06312 0.6775 0.0
N516 N 0.35851 0.02621 0.67045 0.0
C517 C 0.37319 0.02276 0.64153 0.0
C518 C 0.39916 0.98399 0.66624 0.0
C519 C 0.39423 1.00221 0.63909 0.0
H520 H 0.28086 0.03916 0.74978 0.0
H521 H 0.40664 1.00046 0.61625 0.0
H522 H 0.40026 0.94958 0.72249 0.0
H523 H 0.28046 1.00273 0.7987 0.0
H524 H 0.36955 0.03648 0.62025 0.0
H525 H 0.35004 0.21164 0.77281 0.0
H526 H 0.41539 0.96801 0.66426 0.0
H527 H 0.38166 0.19603 0.58254 0.0
H528 H 0.37201 0.17523 0.73876 0.0
H529 H 0.36016 0.23841 0.55557 0.0
H530 H 0.36574 0.94994 0.77205 0.0
H531 H 0.32984 0.25708 0.74875 0.0
H532 H 0.31928 0.28755 0.69973 0.0
H533 H 0.32059 0.9692 0.80055 0.0
H534 H 0.32154 0.2944 0.64109 0.0
N535 N 0.36543 0.19949 0.69467 0.0
C536 C 0.36403 0.195 0.72733 0.0
C537 C 0.33986 0.24123 0.73337 0.0
C538 C 0.34114 0.24581 0.70003 0.0
C539 C 0.35123 0.21563 0.74702 0.0
C540 C 0.3542 0.2243 0.68094 0.0
H541 H 0.33555 0.27553 0.58743 0.0
N542 N 0.36584 0.2055 0.62954 0.0
C543 C 0.35779 0.23513 0.58142 0.0
C544 C 0.35449 0.22741 0.64763 0.0
C545 C 0.36923 0.21044 0.5969 0.0
C546 C 0.34421 0.25622 0.5995 0.0
C547 C 0.34286 0.25295 0.63296 0.0
O548 O 0.44507 0.20396 0.63163 0.0
O549 O 0.38965 0.1119 0.66703 0.0
O550 O 0.36152 0.08752 0.72211 0.0
O551 O 0.40861 0.15357 0.70834 0.0
O552 O 0.41869 0.14408 0.62618 0.0
O553 O 0.43714 0.22827 0.67545 0.0
O554 O 0.26025 0.02998 0.68504 0.0
O555 O 0.32693 0.12062 0.66552 0.0
O556 O 0.35183 0.13653 0.61323 0.0
O557 O 0.33065 0.06957 0.6237 0.0
O558 O 0.29211 0.08913 0.70435 0.0
O559 O 0.28596 1.01215 0.64712 0.0
C560 C 0.4127 0.11426 0.64407 0.0
C561 C 0.47387 0.27486 0.63285 0.0
C562 C 0.51168 0.34885 0.63084 0.0
C563 C 0.49805 0.31247 0.64818 0.0
C564 C 0.50065 0.34673 0.59843 0.0
C565 C 0.46532 0.27473 0.59998 0.0
C566 C 0.47794 0.31015 0.58323 0.0
C567 C 0.39331 0.12211 0.72865 0.0
C568 C 0.45904 0.23558 0.64978 0.0
C569 C 0.33051 0.27469 0.652 0.0
C570 C 0.32938 0.27092 0.6854 0.0
C571 C 0.30264 0.11975 0.6862 0.0
C572 C 0.22477 0.96159 0.67004 0.0
C573 C 0.18309 0.94671 0.66884 0.0
C574 C 0.15578 0.90575 0.67426 0.0
C575 C 0.1707 0.88017 0.6813 0.0
C576 C 0.23872 0.9354 0.67769 0.0
C577 C 0.2118 0.89499 0.68326 0.0
C578 C 0.33512 0.09833 0.60422 0.0
C579 C 0.25333 1.00405 0.66249 0.0
H580 H 0.50622 0.31343 0.67317 0.0
H581 H 0.5108 0.37367 0.58433 0.0
H582 H 0.44924 0.24711 0.58675 0.0
H583 H 0.47065 0.30922 0.55804 0.0
H584 H 0.17198 0.96671 0.66308 0.0
H585 H 0.15044 0.84867 0.68562 0.0
H586 H 0.27045 0.94611 0.67908 0.0
H587 H 0.22285 0.87497 0.68897 0.0
Eu588 Eu 0.87772 0.22666 0.66016 0.0
C589 C 0.03155 0.35183 0.72128 0.0
C590 C 0.04764 0.40682 0.68515 0.0
C591 C 0.06509 0.41991 0.74165 0.0
C592 C 0.03033 0.36549 0.69098 0.0
C593 C 0.05 0.37892 0.74681 0.0
C594 C 0.06393 0.43386 0.71083 0.0
C595 C 0.04148 0.32358 0.77948 0.0
N596 N 1.01718 0.31219 0.72525 0.0
C597 C 0.0237 0.29799 0.75333 0.0
C598 C 0.05402 0.36414 0.77641 0.0
Eu599 Eu 0.9824 0.26988 0.68121 0.0
N600 N 1.01465 0.33855 0.66675 0.0
C601 C 1.01868 0.35124 0.63564 0.0
C602 C 0.04926 0.41978 0.65353 0.0
C603 C 0.0354 0.3919 0.6286 0.0
H604 H 1.01332 0.26646 0.75597 0.0
H605 H 0.03739 0.40166 0.60397 0.0
H606 H 0.07685 0.46567 0.70691 0.0
H607 H 0.04526 0.31197 0.80203 0.0
H608 H 1.00779 0.33008 0.61613 0.0
H609 H 0.81462 0.16182 0.77852 0.0
H610 H 0.06224 0.45126 0.64803 0.0
H611 H 0.86759 0.17635 0.58908 0.0
H612 H 0.84841 0.21486 0.73969 0.0
H613 H 0.84001 0.10843 0.5703 0.0
H614 H 0.07889 0.44117 0.76105 0.0
H615 H 0.78591 0.09148 0.7621 0.0
H616 H 0.77173 0.04202 0.71873 0.0
H617 H 0.06786 0.38394 0.79666 0.0
H618 H 0.77821 0.02764 0.66244 0.0
N619 N 0.84577 0.17692 0.70111 0.0
C620 C 0.83954 0.18519 0.7319 0.0
C621 C 0.80237 0.11508 0.7448 0.0
C622 C 0.80623 0.10631 0.71295 0.0
C623 C 0.81882 0.15469 0.75421 0.0
C624 C 0.82829 0.13818 0.69126 0.0
H625 H 0.80419 0.05191 0.60757 0.0
N626 N 0.85395 0.16098 0.63892 0.0
C627 C 0.83826 0.11402 0.59556 0.0
C628 C 0.83242 0.13002 0.65946 0.0
C629 C 0.85535 0.15317 0.60691 0.0
C630 C 0.81774 0.08223 0.61657 0.0
C631 C 0.81398 0.08987 0.64875 0.0
O632 O 0.83219 0.2214 0.62611 0.0
O633 O 0.93349 0.28506 0.66963 0.0
O634 O 0.95193 0.27017 0.72687 0.0
O635 O 0.89343 0.26579 0.7076 0.0
O636 O 0.90035 0.2811 0.62924 0.0
O637 O 0.82263 0.22546 0.67624 0.0
O638 O 1.0193 0.24438 0.69649 0.0
O639 O 0.9263 0.21239 0.66857 0.0
O640 O 0.91116 0.23486 0.61198 0.0
O641 O 0.97704 0.2588 0.62795 0.0
O642 O 0.95637 0.21276 0.71004 0.0
O643 O 0.03354 0.27804 0.65263 0.0
C644 C 0.93029 0.30544 0.6468 0.0
C645 C 0.76468 0.18444 0.64421 0.0
C646 C 0.69138 0.15428 0.64746 0.0
C647 C 0.73047 0.18781 0.65131 0.0
C648 C 0.68716 0.11789 0.63703 0.0
C649 C 0.75858 0.14777 0.6324 0.0
C650 C 0.72045 0.11479 0.6294 0.0
C651 C 0.92054 0.27427 0.73098 0.0
C652 C 0.80662 0.21866 0.64777 0.0
C653 C 0.79226 0.05846 0.67031 0.0
C654 C 0.78854 0.06664 0.70234 0.0
C655 C 0.92709 0.19081 0.69119 0.0
C656 C 0.08655 0.27456 0.67858 0.0
C657 C 0.10357 0.24963 0.67659 0.0
C658 C 0.14512 0.26557 0.68082 0.0
C659 C 0.16898 0.30658 0.68756 0.0
C660 C 0.11112 0.31519 0.68571 0.0
C661 C 0.15206 0.331 0.69019 0.0
C662 C 0.94921 0.24633 0.60573 0.0
C663 C 0.04349 0.25817 0.67215 0.0
H664 H 0.73417 0.21606 0.65947 0.0
H665 H 0.65776 0.09192 0.63388 0.0
H666 H 0.78325 0.14455 0.62475 0.0
H667 H 0.71667 0.08678 0.62053 0.0
H668 H 0.08472 0.2182 0.67106 0.0
H669 H 0.20083 0.31972 0.6912 0.0
H670 H 0.09868 0.33473 0.68754 0.0
H671 H 0.17085 0.36244 0.69559 0.0
Eu672 Eu 0.81833 0.65803 0.65731 0.0
C673 C 0.7072 0.69755 0.73759 0.0
C674 C 0.64257 0.6535 0.71402 0.0
C675 C 0.64738 0.6711 0.77054 0.0
C676 C 0.68449 0.67657 0.71138 0.0
C677 C 0.68887 0.69575 0.7673 0.0
C678 C 0.62425 0.65004 0.74393 0.0
C679 C 0.75347 0.74532 0.78758 0.0
N680 N 0.74726 0.72085 0.73369 0.0
C681 C 0.77028 0.74609 0.75765 0.0
C682 C 0.7127 0.71953 0.79262 0.0
Eu683 Eu 0.77398 0.71776 0.68309 0.0
N684 N 0.70316 0.6806 0.68284 0.0
C685 C 0.68134 0.66556 0.65544 0.0
C686 C 0.62024 0.6357 0.68633 0.0
C687 C 0.63968 0.64247 0.65681 0.0
H688 H 0.80182 0.76606 0.75395 0.0
H689 H 0.62263 0.62982 0.63507 0.0
H690 H 0.59213 0.63203 0.74651 0.0
H691 H 0.77197 0.76458 0.80676 0.0
H692 H 0.69586 0.67062 0.63241 0.0
H693 H 0.89972 0.68421 0.77135 0.0
H694 H 0.58798 0.61781 0.68731 0.0
H695 H 0.85666 0.68252 0.5811 0.0
H696 H 0.84136 0.66258 0.73779 0.0
H697 H 0.92161 0.71689 0.55477 0.0
H698 H 0.63279 0.66892 0.79328 0.0
H699 H 0.96676 0.71472 0.74699 0.0
H700 H 1.00921 0.73714 0.69794 0.0
H701 H 0.69976 0.71898 0.81583 0.0
H702 H 1.01509 0.74619 0.63955 0.0
N703 N 0.87349 0.68199 0.69355 0.0
C704 C 0.86974 0.67657 0.72613 0.0
C705 C 0.94091 0.70559 0.73179 0.0
C706 C 0.94489 0.71067 0.69854 0.0
C707 C 0.90318 0.68856 0.74561 0.0
C708 C 0.91026 0.6985 0.67969 0.0
H709 H 0.98318 0.74106 0.58659 0.0
N710 N 0.88016 0.69321 0.62896 0.0
C711 C 0.91992 0.71438 0.58069 0.0
C712 C 0.91369 0.7045 0.64668 0.0
C713 C 0.88287 0.69621 0.59609 0.0
C714 C 0.95453 0.72757 0.59868 0.0
C715 C 0.95173 0.72201 0.63191 0.0
O716 O 0.81714 0.61229 0.62526 0.0
O717 O 0.76061 0.65472 0.669 0.0
O718 O 0.77026 0.68364 0.72735 0.0
O719 O 0.7835 0.6351 0.70681 0.0
O720 O 0.7616 0.62386 0.62875 0.0
O721 O 0.82323 0.60718 0.67596 0.0
O722 O 0.80927 0.7834 0.68349 0.0
O723 O 0.83058 0.7197 0.66711 0.0
O724 O 0.8132 0.6917 0.61244 0.0
O725 O 0.76801 0.71082 0.62951 0.0
O726 O 0.83406 0.75165 0.70809 0.0
O727 O 0.75167 0.75439 0.66113 0.0
C728 C 0.73847 0.63026 0.64722 0.0
C729 C 0.85744 0.58417 0.6416 0.0
C730 C 0.89 0.54333 0.64819 0.0
C731 C 0.85711 0.54953 0.65393 0.0
C732 C 0.92271 0.57213 0.63051 0.0
C733 C 0.89007 0.61061 0.62261 0.0
C734 C 0.92253 0.60516 0.61767 0.0
C735 C 0.77041 0.64996 0.73015 0.0
C736 C 0.82437 0.59318 0.64773 0.0
C737 C 0.98585 0.73318 0.65059 0.0
C738 C 0.98248 0.72782 0.68381 0.0
C739 C 0.85425 0.74335 0.6881 0.0
C740 C 0.7742 0.81881 0.68423 0.0
C741 C 0.80038 0.86019 0.67881 0.0
C742 C 0.79343 0.88899 0.69378 0.0
C743 C 0.76002 0.87591 0.71387 0.0
C744 C 0.74103 0.80678 0.7044 0.0
C745 C 0.73401 0.83517 0.719 0.0
C746 C 0.79026 0.70786 0.60695 0.0
C747 C 0.78221 0.7885 0.6696 0.0
H748 H 0.83172 0.52777 0.6677 0.0
H749 H 0.94805 0.56826 0.62553 0.0
H750 H 0.89052 0.63547 0.61097 0.0
H751 H 0.94748 0.62641 0.60324 0.0
H752 H 0.82628 0.8699 0.66349 0.0
H753 H 0.75406 0.89737 0.72565 0.0
H754 H 0.72059 0.7754 0.70902 0.0
H755 H 0.70836 0.82556 0.73454 0.0
H756 H 0.29909 0.43033 0.96286 0.0
H757 H 0.33695 0.55099 0.99223 0.0
H758 H 0.22956 0.41141 0.97201 0.0
H759 H 0.2671 0.53227 1.00126 0.0
H760 H 0.13779 0.48634 0.02609 0.0
H761 H 0.20472 0.4954 0.02991 0.0
H762 H 0.18145 0.4233 0.94479 0.0
H763 H 0.11409 0.41357 0.94215 0.0
C764 C 0.2926 0.45269 0.972 0.0
C765 C 0.32384 0.49227 0.97678 0.0
C766 C 0.25254 0.44191 0.97692 0.0
C767 C 0.24215 0.4703 0.98687 0.0
C768 C 0.2736 0.50933 0.99375 0.0
C769 C 0.31387 0.52016 0.98876 0.0
C770 C 0.14592 0.46997 0.00979 0.0
C771 C 0.11916 0.44648 0.98553 0.0
C772 C 0.18501 0.47636 0.01115 0.0
C773 C 0.19898 0.45995 0.9878 0.0
C774 C 0.17186 0.43574 0.96376 0.0
C775 C 0.13287 0.42971 0.96237 0.0
H776 H 0.6124 0.87147 0.02614 0.0
H777 H 0.51174 0.80512 0.96354 0.0
H778 H 0.62558 0.81582 0.02645 0.0
H779 H 0.52467 0.74926 0.96384 0.0
H780 H 0.59051 0.686 0.9321 0.0
H781 H 0.57817 0.74124 0.93922 0.0
H782 H 0.60364 0.74449 0.0404 0.0
H783 H 0.61642 0.68872 0.03299 0.0
C784 C 0.59223 0.84438 0.01331 0.0
C785 C 0.56076 0.84269 0.995 0.0
C786 C 0.59995 0.8125 0.01335 0.0
C787 C 0.57677 0.77817 0.99468 0.0
C788 C 0.54371 0.77549 0.97804 0.0
C789 C 0.53575 0.80723 0.97828 0.0
C790 C 0.5942 0.69884 0.95586 0.0
C791 C 0.6036 0.68212 0.98212 0.0
C792 C 0.58647 0.73025 0.96003 0.0
C793 C 0.58834 0.74658 0.99059 0.0
C794 C 0.60116 0.73228 0.01655 0.0
C795 C 0.60862 0.70034 0.01236 0.0
H796 H 0.38 0.91521 0.0328 0.0
H797 H 0.34529 0.93406 0.93931 0.0
H798 H 0.32186 0.84853 0.03477 0.0
H799 H 0.28701 0.86687 0.94081 0.0
H800 H 0.17324 0.75027 0.95585 0.0
H801 H 0.22266 0.82026 0.96528 0.0
H802 H 0.30161 0.78457 0.00769 0.0
H803 H 0.25185 0.71417 0.99801 0.0
C804 C 0.35884 0.90627 0.01344 0.0
C805 C 0.36643 0.93155 0.98679 0.0
C806 C 0.3258 0.8672 0.01414 0.0
C807 C 0.29931 0.85182 0.98799 0.0
C808 C 0.30609 0.87757 0.96175 0.0
C809 C 0.33942 0.91646 0.96098 0.0
C810 C 0.20082 0.75724 0.96782 0.0
C811 C 0.20849 0.72633 0.976 0.0
C812 C 0.22939 0.79755 0.97298 0.0
C813 C 0.26667 0.80853 0.98676 0.0
C814 C 0.27328 0.77751 0.99711 0.0
C815 C 0.24461 0.73697 0.99175 0.0
H816 H 0.43478 0.27306 0.97727 0.0
H817 H 0.51981 0.27244 0.04366 0.0
H818 H 0.47216 0.34607 0.97653 0.0
H819 H 0.55696 0.34579 0.04354 0.0
H820 H 0.57714 0.47231 0.06736 0.0
H821 H 0.54567 0.39961 0.0638 0.0
H822 H 0.53592 0.40636 0.961 0.0
H823 H 0.56807 0.47939 0.96471 0.0
C824 C 0.46168 0.28862 0.99156 0.0
C825 C 0.47427 0.26692 0.01057 0.0
C826 C 0.48316 0.33054 0.99113 0.0
C827 C 0.51735 0.35208 0.01032 0.0
C828 C 0.53049 0.3303 0.02877 0.0
C829 C 0.50943 0.28826 0.02865 0.0
C830 C 0.56829 0.45823 0.04399 0.0
C831 C 0.57387 0.48148 0.01646 0.0
C832 C 0.55048 0.41654 0.0419 0.0
C833 C 0.53803 0.39686 0.01212 0.0
C834 C 0.54461 0.42032 0.9844 0.0
C835 C 0.56284 0.46217 0.9865 0.0
H836 H 0.57817 0.11213 0.07044 0.0
H837 H 0.5654 0.11367 0.96779 0.0
H838 H 0.65027 0.15682 0.06533 0.0
H839 H 0.6376 0.15879 0.96243 0.0
H840 H 0.77153 0.1905 0.96617 0.0
H841 H 0.69857 0.1555 0.96786 0.0
H842 H 0.70366 0.22376 0.05162 0.0
H843 H 0.7769 0.25934 0.04926 0.0
C844 C 0.59086 0.12227 0.04676 0.0
C845 C 0.56636 0.10812 0.01944 0.0
C846 C 0.63221 0.14818 0.04379 0.0
C847 C 0.65018 0.16132 0.0134 0.0
C848 C 0.62515 0.14881 0.98618 0.0
C849 C 0.58374 0.12283 0.98919 0.0
C850 C 0.75696 0.19859 0.98448 0.0
C851 C 0.7799 0.22792 0.00739 0.0
C852 C 0.71507 0.17844 0.98557 0.0
C853 C 0.69485 0.18622 0.01017 0.0
C854 C 0.718 0.21646 0.03258 0.0
C855 C 0.75998 0.23721 0.03108 0.0
H856 H 0.93212 0.47145 0.06361 0.0
H857 H 0.95311 0.48461 0.96153 0.0
H858 H 0.8905 0.50226 0.0595 0.0
H859 H 0.91204 0.51645 0.95735 0.0
H860 H 0.78854 0.52635 0.03724 0.0
H861 H 0.82553 0.49011 0.03702 0.0
H862 H 0.91426 0.57984 0.97469 0.0
H863 H 0.87773 0.61623 0.97544 0.0
C864 C 0.92793 0.48111 0.04024 0.0
C865 C 0.94702 0.47674 0.01307 0.0
C866 C 0.90383 0.49857 0.03784 0.0
C867 C 0.89782 0.51203 0.00811 0.0
C868 C 0.91628 0.50689 0.98072 0.0
C869 C 0.94004 0.48886 0.9831 0.0
C870 C 0.81563 0.53797 0.02313 0.0
C871 C 0.83016 0.57423 0.00641 0.0
C872 C 0.83709 0.51742 0.02322 0.0
C873 C 0.87325 0.53218 0.00608 0.0
C874 C 0.88668 0.56749 0.98817 0.0
C875 C 0.86571 0.58841 0.98862 0.0
H876 H 0.79892 0.79263 0.26402 0.0
H877 H 0.77364 0.76171 0.36406 0.0
H878 H 0.86622 0.80426 0.27107 0.0
H879 H 0.84197 0.77386 0.37146 0.0
H880 H 0.96005 0.76549 0.3564 0.0
H881 H 0.89133 0.75256 0.35667 0.0
H882 H 0.92752 0.85627 0.29687 0.0
H883 H 0.99618 0.86891 0.29655 0.0
C884 C 0.80757 0.78771 0.28757 0.0
C885 C 0.78099 0.77713 0.31367 0.0
C886 C 0.84655 0.79503 0.29172 0.0
C887 C 0.86037 0.79159 0.32209 0.0
C888 C 0.83274 0.77758 0.34779 0.0
C889 C 0.79348 0.77049 0.34361 0.0
C890 C 0.95354 0.78627 0.34417 0.0
C891 C 0.98381 0.81845 0.32661 0.0
C892 C 0.91401 0.77871 0.3442 0.0
C893 C 0.90342 0.8028 0.32627 0.0
C894 C 0.93427 0.83652 0.31045 0.0
C895 C 0.9739 0.84429 0.31069 0.0
H896 H 0.16439 0.12826 0.32875 0.0
H897 H 0.28235 0.20857 0.29222 0.0
H898 H 0.18366 0.07756 0.33827 0.0
H899 H 0.30148 0.15816 0.30137 0.0
H900 H 0.29352 0.03631 0.27375 0.0
H901 H 0.28472 0.09459 0.27531 0.0
H902 H 0.2254 0.05589 0.3669 0.0
H903 H 0.23398 0.9979 0.36494 0.0
C904 C 0.19477 0.13561 0.32367 0.0
C905 C 0.22163 0.17259 0.30954 0.0
C906 C 0.20586 0.10639 0.32893 0.0
C907 C 0.24408 0.11327 0.32007 0.0
C908 C 0.2716 0.15123 0.30789 0.0
C909 C 0.26065 0.18036 0.30288 0.0
C910 C 0.28046 0.04132 0.295 0.0
C911 C 0.26695 1.01331 0.32021 0.0
C912 C 0.27493 0.07464 0.29578 0.0
C913 C 0.25434 0.08039 0.32133 0.0
C914 C 0.24144 0.05279 0.34682 0.0
C915 C 0.24746 0.0198 0.34615 0.0
H916 H 0.04355 0.24532 0.36394 0.0
H917 H 1.00473 0.26388 0.27207 0.0
H918 H 0.98518 0.17865 0.36703 0.0
H919 H 0.94624 0.19686 0.27475 0.0
H920 H 0.83285 0.08102 0.2922 0.0
H921 H 0.883 0.15088 0.30114 0.0
H922 H 0.96336 0.11443 0.3394 0.0
H923 H 0.91285 0.04416 0.33024 0.0
C924 C 0.02154 0.23618 0.34517 0.0
C925 C 0.02809 0.2612 0.31853 0.0
C926 C 0.98835 0.19725 0.34653 0.0
C927 C 0.96064 0.1819 0.32116 0.0
C928 C 0.96636 0.20754 0.29508 0.0
C929 C 0.99982 0.24628 0.2936 0.0
C930 C 0.86091 0.0878 0.3032 0.0
C931 C 0.86874 0.05673 0.31034 0.0
C932 C 0.88989 0.12803 0.30807 0.0
C933 C 0.92773 0.13873 0.32049 0.0
C934 C 0.93459 0.10756 0.32988 0.0
C935 C 0.9055 0.0671 0.32482 0.0
H936 H 0.2498 0.81436 0.30112 0.0
H937 H 0.23469 0.80118 0.40373 0.0
H938 H 0.22253 0.74212 0.29568 0.0
H939 H 0.20712 0.72903 0.39854 0.0
H940 H 0.1831 0.60239 0.3822 0.0
H941 H 0.22078 0.6757 0.38478 0.0
H942 H 0.15802 0.68104 0.30098 0.0
H943 H 0.11998 0.60802 0.2991 0.0
C944 C 0.2404 0.79592 0.3225 0.0
C945 C 0.2429 0.8132 0.35276 0.0
C946 C 0.22487 0.75449 0.31944 0.0
C947 C 0.21209 0.72933 0.34663 0.0
C948 C 0.21674 0.74719 0.37703 0.0
C949 C 0.23227 0.78857 0.38004 0.0
C950 C 0.17796 0.61938 0.36407 0.0
C951 C 0.1488 0.5995 0.34033 0.0
C952 C 0.19922 0.6614 0.3657 0.0
C953 C 0.19224 0.68463 0.34332 0.0
C954 C 0.16433 0.66447 0.31867 0.0
C955 C 0.14254 0.62255 0.31749 0.0
H956 H 0.24204 0.44744 0.39588 0.0
H957 H 0.23155 0.42797 0.2936 0.0
H958 H 0.31451 0.48896 0.39058 0.0
H959 H 0.30432 0.46916 0.28815 0.0
H960 H 0.43818 0.50272 0.3013 0.0
H961 H 0.36524 0.4668 0.30233 0.0
H962 H 0.36781 0.55353 0.36896 0.0
H963 H 0.44109 0.58994 0.36738 0.0
C964 C 0.25531 0.45201 0.37222 0.0
C965 C 0.23113 0.43331 0.34531 0.0
C966 C 0.29689 0.47607 0.36913 0.0
C967 C 0.31559 0.48249 0.33894 0.0
C968 C 0.29118 0.46456 0.31185 0.0
C969 C 0.24945 0.44076 0.31495 0.0
C970 C 0.42315 0.51443 0.31584 0.0
C971 C 0.44554 0.54925 0.33426 0.0
C972 C 0.38124 0.49379 0.31643 0.0
C973 C 0.36033 0.50678 0.33605 0.0
C974 C 0.38277 0.54226 0.35387 0.0
C975 C 0.42479 0.56341 0.35275 0.0
H976 H 0.53984 0.94408 0.3115 0.0
H977 H 0.45214 0.85631 0.37547 0.0
H978 H 0.57524 0.90666 0.30996 0.0
H979 H 0.48807 0.81904 0.37453 0.0
H980 H 0.59304 0.79688 0.39802 0.0
H981 H 0.55197 0.82842 0.39514 0.0
H982 H 0.57277 0.8443 0.29293 0.0
H983 H 0.61355 0.81217 0.29596 0.0
C984 C 0.52796 0.91654 0.32507 0.0
C985 C 0.49315 0.90323 0.34365 0.0
C986 C 0.5483 0.89504 0.32419 0.0
C987 C 0.53503 0.86001 0.34248 0.0
C988 C 0.49958 0.84615 0.36047 0.0
C989 C 0.47872 0.86727 0.3608 0.0
C990 C 0.58878 0.80707 0.37493 0.0
C991 C 0.60766 0.80322 0.34742 0.0
C992 C 0.56498 0.82494 0.37321 0.0
C993 C 0.559 0.83918 0.34382 0.0
C994 C 0.57706 0.83426 0.31608 0.0
C995 C 0.60062 0.81601 0.31779 0.0
H996 H 0.63805 0.12206 0.69674 0.0
H997 H 0.65783 0.18474 0.60711 0.0
H998 H 0.56879 0.10775 0.69754 0.0
H999 H 0.58855 0.17046 0.60761 0.0
H1000 H 0.45299 0.09927 0.59785 0.0
H1001 H 0.52139 0.11143 0.60059 0.0
H1002 H 0.52499 0.13709 0.70177 0.0
H1003 H 0.4576 0.12622 0.69839 0.0
C1004 C 0.62791 0.134 0.67777 0.0
C1005 C 0.65378 0.15552 0.65232 0.0
C1006 C 0.58805 0.12544 0.67802 0.0
C1007 C 0.57262 0.13739 0.65242 0.0
C1008 C 0.59902 0.16015 0.6275 0.0
C1009 C 0.63903 0.16911 0.62749 0.0
C1010 C 0.46794 0.10616 0.6209 0.0
C1011 C 0.44876 0.10999 0.64828 0.0
C1012 C 0.50748 0.11386 0.6224 0.0
C1013 C 0.52919 0.12571 0.65137 0.0
C1014 C 0.50932 0.12759 0.67908 0.0
C1015 C 0.46996 0.12035 0.67741 0.0
H1016 H 0.94922 0.35503 0.70061 0.0
H1017 H 0.92168 0.3485 0.59986 0.0
H1018 H 0.93675 0.41135 0.70651 0.0
H1019 H 0.90944 0.40399 0.60546 0.0
H1020 H 0.8408 0.46617 0.62865 0.0
H1021 H 0.8549 0.41113 0.63095 0.0
H1022 H 0.95879 0.48324 0.68919 0.0
H1023 H 0.94464 0.53829 0.68667 0.0
C1024 C 0.94111 0.36591 0.6797 0.0
C1025 C 0.93548 0.34645 0.64999 0.0
C1026 C 0.93382 0.39814 0.68302 0.0
C1027 C 0.92048 0.41137 0.65666 0.0
C1028 C 0.91817 0.39387 0.62656 0.0
C1029 C 0.92583 0.36229 0.62326 0.0
C1030 C 0.86576 0.46976 0.64293 0.0
C1031 C 0.89121 0.50654 0.65779 0.0
C1032 C 0.87434 0.43843 0.64383 0.0
C1033 C 0.9085 0.44281 0.65982 0.0
C1034 C 0.9323 0.4786 0.67668 0.0
C1035 C 0.92399 0.51011 0.67541 0.0
H1036 H 0.71664 0.5762 0.69653 0.0
H1037 H 0.67302 0.59853 0.60855 0.0
H1038 H 0.65855 0.50955 0.6995 0.0
H1039 H 0.61492 0.5312 0.61084 0.0
H1040 H 0.50254 0.41441 0.62853 0.0
H1041 H 0.5532 0.48407 0.63761 0.0
H1042 H 0.63473 0.44657 0.67118 0.0
H1043 H 0.58364 0.37659 0.66209 0.0
C1044 C 0.69367 0.56786 0.67868 0.0
C1045 C 0.6986 0.59413 0.65339 0.0
C1046 C 0.66062 0.52889 0.6799 0.0
C1047 C 0.63158 0.51453 0.65549 0.0
C1048 C 0.63601 0.54113 0.63052 0.0
C1049 C 0.66929 0.58001 0.62925 0.0
C1050 C 0.53099 0.42094 0.63856 0.0
C1051 C 0.53893 0.3897 0.64447 0.0
C1052 C 0.56027 0.46105 0.64347 0.0
C1053 C 0.59857 0.47142 0.65461 0.0
C1054 C 0.60564 0.44001 0.6627 0.0
C1055 C 0.57623 0.3997 0.65767 0.0
H1056 H 0.79908 0.93658 0.64294 0.0
H1057 H 0.84755 0.94047 0.73674 0.0
H1058 H 0.83518 1.00982 0.64109 0.0
H1059 H 0.88485 1.01341 0.73476 0.0
H1060 H 0.89984 0.13854 0.74074 0.0
H1061 H 0.87263 0.06648 0.73971 0.0
H1062 H 0.89622 0.0723 0.63778 0.0
H1063 H 0.9223 0.14469 0.639 0.0
C1064 C 0.81845 0.9532 0.66275 0.0
C1065 C 0.82084 0.93286 0.68984 0.0
C1066 C 0.83921 0.99526 0.66177 0.0
C1067 C 0.86288 0.01807 0.68793 0.0
C1068 C 0.8664 0.9973 0.71441 0.0
C1069 C 0.84544 0.95538 0.71544 0.0
C1070 C 0.89918 0.12434 0.71813 0.0
C1071 C 0.91164 0.14697 0.68977 0.0
C1072 C 0.88392 0.08293 0.71751 0.0
C1073 C 0.88174 0.06293 0.68858 0.0
C1074 C 0.89647 0.08618 0.66042 0.0
C1075 C 0.91141 0.12772 0.66104 0.0
H1076 H 0.90979 0.77525 0.7353 0.0
H1077 H 0.89725 0.77512 0.63251 0.0
H1078 H 0.98197 0.81889 0.73016 0.0
H1079 H 0.96964 0.81922 0.62709 0.0
H1080 H 0.10349 0.85104 0.63171 0.0
H1081 H 0.03056 0.81638 0.63298 0.0
H1082 H 0.0353 0.88537 0.71614 0.0
H1083 H 0.10852 0.92083 0.71406 0.0
C1084 C 0.92258 0.78474 0.71156 0.0
C1085 C 0.89807 0.77053 0.68426 0.0
C1086 C 0.96398 0.81007 0.70858 0.0
C1087 C 0.98203 0.82258 0.67816 0.0
C1088 C 0.95708 0.80976 0.65088 0.0
C1089 C 0.91558 0.78438 0.65393 0.0
C1090 C 0.08885 0.85924 0.64988 0.0
C1091 C 0.11167 0.88874 0.6727 0.0
C1092 C 0.04698 0.83927 0.65073 0.0
C1093 C 0.02668 0.84733 0.67506 0.0
C1094 C 0.04971 0.87778 0.69736 0.0
C1095 C 0.09168 0.89844 0.69603 0.0
H1096 H 0.28275 0.14683 0.63203 0.0
H1097 H 0.26487 0.13503 0.73448 0.0
H1098 H 0.24242 0.1794 0.62876 0.0
H1099 H 0.22423 0.16706 0.73137 0.0
H1100 H 0.12392 0.19452 0.71127 0.0
H1101 H 0.15991 0.15732 0.71126 0.0
H1102 H 0.24587 0.24256 0.64466 0.0
H1103 H 0.21036 0.27987 0.64514 0.0
C1104 C 0.27049 0.15154 0.65389 0.0
C1105 C 0.27813 0.13957 0.68366 0.0
C1106 C 0.2472 0.17006 0.65204 0.0
C1107 C 0.23002 0.1761 0.67983 0.0
C1108 C 0.23659 0.16272 0.70941 0.0
C1109 C 0.26012 0.14456 0.71125 0.0
C1110 C 0.15027 0.20502 0.69639 0.0
C1111 C 0.1643 0.24028 0.67832 0.0
C1112 C 0.17117 0.18392 0.69658 0.0
C1113 C 0.20624 0.1971 0.67823 0.0
C1114 C 0.2192 0.23147 0.65916 0.0
C1115 C 0.19882 0.25295 0.65947 0.0
H1116 H 0.06135 0.33738 0.23163 0.0
H1117 H 0.18407 0.43196 0.23228 0.0
H1118 H 0.04968 0.36395 0.18243 0.0
H1119 H 0.17232 0.46005 0.18324 0.0
H1120 H 0.13796 0.48025 0.07883 0.0
H1121 H 0.15731 0.45738 0.1266 0.0
H1122 H 0.04066 0.41705 0.1674 0.0
H1123 H 0.02124 0.43856 0.11935 0.0
C1124 C 0.08617 0.36348 0.22073 0.0
C1125 C 0.12382 0.38202 0.23558 0.0
C1126 C 0.07932 0.37936 0.19276 0.0
C1127 C 0.10967 0.41507 0.17891 0.0
C1128 C 0.14806 0.4326 0.19292 0.0
C1129 C 0.15501 0.4163 0.22094 0.0
C1130 C 0.11673 0.46745 0.09818 0.0
C1131 C 0.07778 0.46117 0.0948 0.0
C1132 C 0.12782 0.45399 0.12578 0.0
C1133 C 0.10029 0.43397 0.15086 0.0
C1134 C 0.0625 0.43085 0.14841 0.0
C1135 C 0.0515 0.44401 0.12094 0.0
H1136 H 0.70682 0.74038 0.22864 0.0
H1137 H 0.60619 0.75896 0.23274 0.0
H1138 H 0.68154 0.70283 0.17888 0.0
H1139 H 0.57986 0.72023 0.18278 0.0
H1140 H 0.56598 0.6679 0.07551 0.0
H1141 H 0.58669 0.71129 0.12333 0.0
H1142 H 0.62714 0.63703 0.16758 0.0
H1143 H 0.60739 0.59489 0.12015 0.0
C1144 C 0.67976 0.73738 0.21831 0.0
C1145 C 0.65898 0.75334 0.23437 0.0
C1146 C 0.66476 0.71515 0.19 0.0
C1147 C 0.62794 0.70738 0.17695 0.0
C1148 C 0.60822 0.72544 0.19197 0.0
C1149 C 0.62349 0.748 0.22047 0.0
C1150 C 0.5782 0.66027 0.09587 0.0
C1151 C 0.58517 0.62791 0.09383 0.0
C1152 C 0.59044 0.68538 0.12326 0.0
C1153 C 0.60988 0.67862 0.14916 0.0
C1154 C 0.61359 0.64425 0.1479 0.0
C1155 C 0.60154 0.6195 0.1208 0.0
H1156 H 0.35459 0.94844 0.06875 0.0
H1157 H 0.45968 0.97723 0.12376 0.0
H1158 H 0.31392 0.92592 0.11709 0.0
H1159 H 0.41944 0.95607 0.1728 0.0
H1160 H 0.33707 0.89641 0.25623 0.0
H1161 H 0.3714 0.90599 0.2053 0.0
H1162 H 0.29836 0.94964 0.16352 0.0
H1163 H 0.26279 0.93828 0.2148 0.0
C1164 C 0.36881 0.94841 0.09111 0.0
C1165 C 0.41022 0.96284 0.092 0.0
C1166 C 0.34552 0.9364 0.11916 0.0
C1167 C 0.36292 0.93904 0.14938 0.0
C1168 C 0.40438 0.95261 0.15015 0.0
C1169 C 0.42768 0.9645 0.1219 0.0
C1170 C 0.32776 0.90735 0.23597 0.0
C1171 C 0.29695 0.91635 0.23963 0.0
C1172 C 0.34792 0.91338 0.2067 0.0
C1173 C 0.33851 0.92928 0.17993 0.0
C1174 C 0.3065 0.93694 0.18324 0.0
C1175 C 0.28585 0.93036 0.21268 0.0
H1176 H 0.48689 0.11843 0.92097 0.0
H1177 H 0.43769 0.99941 0.88289 0.0
H1178 H 0.47658 0.14201 0.86972 0.0
H1179 H 0.42533 0.02227 0.83157 0.0
H1180 H 0.42454 0.07417 0.73576 0.0
H1181 H 0.44726 0.05736 0.78425 0.0
H1182 H 0.42886 0.14316 0.83689 0.0
H1183 H 0.4079 0.16133 0.78717 0.0
C1184 C 0.47425 0.09731 0.90134 0.0
C1185 C 0.46358 0.05708 0.90597 0.0
C1186 C 0.46773 0.11077 0.87191 0.0
C1187 C 0.44957 0.08431 0.84604 0.0
C1188 C 0.43996 0.04408 0.85044 0.0
C1189 C 0.44711 0.03073 0.87993 0.0
C1190 C 0.42692 0.09074 0.7574 0.0
C1191 C 0.4158 0.1203 0.75713 0.0
C1192 C 0.43913 0.08032 0.78564 0.0
C1193 C 0.43979 0.09833 0.81515 0.0
C1194 C 0.42959 0.12881 0.8148 0.0
C1195 C 0.41774 0.13962 0.78618 0.0
H1196 H 0.94848 0.43155 0.89825 0.0
H1197 H 0.04205 0.40225 0.89889 0.0
H1198 H 0.92132 0.39226 0.84864 0.0
H1199 H 1.01631 0.36449 0.84936 0.0
H1200 H 0.94033 0.2592 0.78924 0.0
H1201 H 0.96118 0.30166 0.83636 0.0
H1202 H 0.92616 0.37956 0.79077 0.0
H1203 H 0.90346 0.33531 0.74349 0.0
C1204 C 0.96411 0.418 0.88713 0.0
C1205 C 0.99777 0.42048 0.90233 0.0
C1206 C 0.94837 0.39513 0.85878 0.0
C1207 C 0.96582 0.37405 0.84508 0.0
C1208 C 1.00103 0.37899 0.85942 0.0
C1209 C 1.01638 0.40135 0.88765 0.0
C1210 C 0.93604 0.28481 0.78943 0.0
C1211 C 0.92074 0.29396 0.76213 0.0
C1212 C 0.94876 0.30978 0.81641 0.0
C1213 C 0.94705 0.34529 0.81727 0.0
C1214 C 0.92861 0.35288 0.79104 0.0
C1215 C 0.91542 0.32739 0.76384 0.0
H1216 H 0.69016 0.60515 0.73451 0.0
H1217 H 0.79704 0.64677 0.79051 0.0
H1218 H 0.6496 0.58142 0.78279 0.0
H1219 H 0.75688 0.62492 0.83953 0.0
H1220 H 0.67752 0.56691 0.92461 0.0
H1221 H 0.71237 0.57555 0.874 0.0
H1222 H 0.62977 0.60361 0.82729 0.0
H1223 H 0.59382 0.59295 0.87823 0.0
C1224 C 0.70495 0.60738 0.75708 0.0
C1225 C 0.74687 0.62564 0.75824 0.0
C1226 C 0.68163 0.59486 0.78513 0.0
C1227 C 0.69943 0.60098 0.81565 0.0
C1228 C 0.7415 0.61857 0.81673 0.0
C1229 C 0.76481 0.63089 0.78849 0.0
C1230 C 0.66621 0.57398 0.90331 0.0
C1231 C 0.63257 0.5788 0.90546 0.0
C1232 C 0.68665 0.57957 0.8742 0.0
C1233 C 0.67472 0.591 0.84611 0.0
C1234 C 0.63996 0.59437 0.84803 0.0
C1235 C 0.61906 0.58815 0.87728 0.0
H1236 H 0.80006 0.80643 0.40952 0.0
H1237 H 0.68413 0.76686 0.45092 0.0
H1238 H 0.82094 0.78755 0.45942 0.0
H1239 H 0.70467 0.74868 0.50021 0.0
H1240 H 0.7617 0.75789 0.595 0.0
H1241 H 0.75157 0.78231 0.54486 0.0
H1242 H 0.80263 0.72178 0.49358 0.0
H1243 H 0.81313 0.69646 0.54509 0.0
C1244 C 0.77942 0.79483 0.4295 0.0
C1245 C 0.74055 0.78887 0.42632 0.0
C1246 C 0.79116 0.78334 0.45792 0.0
C1247 C 0.76452 0.76633 0.48402 0.0
C1248 C 0.72629 0.76194 0.48097 0.0
C1249 C 0.71454 0.77278 0.4527 0.0
C1250 C 0.77092 0.74928 0.57332 0.0
C1251 C 0.78767 0.72418 0.57462 0.0
C1252 C 0.76503 0.76361 0.54426 0.0
C1253 C 0.77565 0.75377 0.51487 0.0
C1254 C 0.79408 0.7301 0.51576 0.0
C1255 C 0.8 0.71542 0.54532 0.0
H1256 H 0.21804 0.92033 0.45672 0.0
H1257 H 0.29388 0.02533 0.40107 0.0
H1258 H 0.23604 0.96118 0.50538 0.0
H1259 H 0.31067 0.06661 0.44891 0.0
H1260 H 0.37427 0.11942 0.54588 0.0
H1261 H 0.34967 0.08365 0.4949 0.0
H1262 H 0.23387 1.00872 0.5381 0.0
H1263 H 0.25936 0.04337 0.58898 0.0
C1264 C 0.23695 0.95241 0.45461 0.0
C1265 C 0.25299 0.96967 0.42466 0.0
C1266 C 0.2477 0.97609 0.48265 0.0
C1267 C 0.27508 0.01774 0.48159 0.0
C1268 C 0.28996 0.03489 0.45126 0.0
C1269 C 0.27944 1.01123 0.42346 0.0
C1270 C 0.34328 0.09611 0.54407 0.0
C1271 C 0.31863 0.0847 0.57134 0.0
C1272 C 0.329 0.07527 0.5148 0.0
C1273 C 0.28953 0.0426 0.51196 0.0
C1274 C 0.26455 0.03283 0.53908 0.0
C1275 C 0.27898 0.05324 0.56826 0.0
H1276 H 0.93025 0.26999 0.5486 0.0
H1277 H 1.00345 0.22543 0.58767 0.0
H1278 H 0.96525 0.28209 0.49705 0.0
H1279 H 0.03728 0.23585 0.53638 0.0
H1280 H 0.12457 0.30634 0.45373 0.0
H1281 H 0.08536 0.28531 0.50347 0.0
H1282 H 0.97939 0.25907 0.44991 0.0
H1283 H 1.01897 0.2814 0.40103 0.0
C1284 C 0.95294 0.26163 0.54591 0.0
C1285 C 0.96383 0.24661 0.57234 0.0
C1286 C 0.97329 0.26866 0.51628 0.0
C1287 C 1.00485 0.26046 0.51215 0.0
C1288 C 1.01415 0.24366 0.53838 0.0
C1289 C 0.99424 0.23714 0.56787 0.0
C1290 C 0.09266 0.29466 0.45254 0.0
C1291 C 0.07475 0.29421 0.42314 0.0
C1292 C 0.06996 0.28281 0.48116 0.0
C1293 C 0.02871 0.27037 0.48123 0.0
C1294 C 1.01087 0.26881 0.45142 0.0
C1295 C 0.03353 0.28081 0.42306 0.0
loop_
_geom_bond_atom_site_label_1
_geom_bond_atom_site_label_2
_geom_bond_distance
_geom_bond_site_symmetry_2
_ccdc_geom_bond_type
Eu0 N31 2.657 1_556 S
Eu0 N38 2.609 . S
Eu0 O44 2.558 . S
Eu0 O45 2.612 1_556 S
Eu0 O47 2.339 1_556 S
Eu0 O48 2.563 . S
Eu0 O49 2.419 1_556 S
Eu0 O51 2.375 1_456 S
Eu0 O52 2.432 . S
Eu0 C64 2.848 . S
C1 C4 1.429 . S
C1 C5 1.411 . S
C1 N8 1.362 1_455 S
C2 C4 1.420 1_556 S
C2 C6 1.423 1_556 S
C2 C14 1.392 . S
C3 C5 1.420 . S
C3 C6 1.351 . S
C3 H26 0.931 . S
C4 C1 1.429 . S
C4 C2 1.420 1_554 S
C4 N12 1.362 1_554 S
C5 C1 1.411 . S
C5 C3 1.420 . S
C5 C10 1.395 . S
C6 C2 1.423 1_554 S
C6 C3 1.351 . S
C6 H18 0.930 . S
C7 C9 1.416 . S
C7 C10 1.363 1_655 S
C7 H19 0.937 . S
N8 C1 1.362 1_655 S
N8 C9 1.325 . S
N8 Eu11 2.622 . S
C9 C7 1.416 . S
C9 N8 1.325 . S
C9 H16 0.930 . S
C10 C5 1.395 . S
C10 C7 1.363 1_455 S
C10 H29 0.930 . S
Eu11 N8 2.622 . S
Eu11 N12 2.657 1_654 S
Eu11 O45 2.380 1_655 S
Eu11 O46 2.432 1_655 S
Eu11 O50 2.558 . S
Eu11 O51 2.619 . S
Eu11 O53 2.339 1_554 S
Eu11 O54 2.563 . S
Eu11 O55 2.419 1_554 S
Eu11 C75 2.848 . S
N12 C4 1.362 1_556 S
N12 Eu11 2.657 1_456 S
N12 C13 1.334 . S
C13 N12 1.334 . S
C13 C15 1.413 . S
C13 H20 0.929 . S
C14 C2 1.392 . S
C14 C15 1.367 . S
C14 H22 0.930 . S
C15 C13 1.413 . S
C15 C14 1.367 . S
C15 H17 0.930 . S
H16 C9 0.930 . S
H17 C15 0.930 . S
H18 C6 0.930 . S
H19 C7 0.937 . S
H20 C13 0.929 . S
H21 C35 0.930 . S
H22 C14 0.930 . S
H23 C41 0.930 . S
H24 C32 0.929 1_455 S
H25 C39 0.930 . S
H26 C3 0.931 . S
H27 C33 0.930 . S
H28 C66 0.930 . S
H29 C10 0.930 . S
H30 C65 0.931 . S
N31 Eu0 2.657 1_554 S
N31 C32 1.334 1_455 S
N31 C36 1.362 1_454 S
C32 H24 0.929 1_655 S
C32 N31 1.334 1_655 S
C32 C35 1.413 . S
C33 H27 0.930 . S
C33 C34 1.392 . S
C33 C35 1.367 . S
C34 C33 1.392 . S
C34 C36 1.420 1_554 S
C34 C66 1.423 1_554 S
C35 H21 0.930 . S
C35 C32 1.413 . S
C35 C33 1.367 . S
C36 N31 1.362 1_656 S
C36 C34 1.420 1_556 S
C36 C40 1.435 . S
H37 C42 0.947 . S
N38 Eu0 2.609 . S
N38 C40 1.351 1_455 S
N38 C41 1.321 . S
C39 H25 0.930 . S
C39 C41 1.400 . S
C39 C42 1.362 1_455 S
C40 C36 1.435 . S
C40 N38 1.351 1_655 S
C40 C43 1.432 . S
C41 H23 0.930 . S
C41 N38 1.321 . S
C41 C39 1.400 . S
C42 H37 0.947 . S
C42 C39 1.362 1_655 S
C42 C43 1.402 . S
C43 C40 1.432 . S
C43 C42 1.402 . S
C43 C65 1.420 . S
O44 Eu0 2.558 . S
O44 C64 1.257 . S
O45 Eu0 2.612 1_554 S
O45 Eu11 2.380 1_455 S
O45 C56 1.276 1_554 S
O46 Eu11 2.432 1_455 S
O46 C63 1.264 . S
O47 Eu0 2.339 1_554 S
O47 C63 1.254 . S
O48 Eu0 2.563 . S
O48 C56 1.235 . S
O49 Eu0 2.419 1_554 S
O49 C64 1.249 1_554 S
O50 Eu11 2.558 . S
O50 C75 1.257 . S
O51 Eu0 2.375 1_654 S
O51 Eu11 2.619 . S
O51 C67 1.282 . S
O52 Eu0 2.432 . S
O52 C74 1.264 1_455 S
O53 Eu11 2.339 1_556 S
O53 C74 1.254 . S
O54 Eu11 2.563 . S
O54 C67 1.235 . S
O55 Eu11 2.419 1_556 S
O55 C75 1.249 1_556 S
C56 O45 1.276 1_556 S
C56 O48 1.235 . S
C57 C59 1.393 1_556 S
C57 C61 1.395 . S
C57 C64 1.492 . S
C58 C59 1.392 . S
C58 C60 1.386 1_554 S
C59 C57 1.393 1_554 S
C59 C58 1.392 . S
C59 H76 0.930 . S
C60 C58 1.386 1_556 S
C60 C62 1.395 . S
C60 H77 0.930 . S
C61 C57 1.395 . S
C61 C62 1.379 . S
C61 H78 0.930 . S
C62 C60 1.395 . S
C62 C61 1.379 . S
C62 H79 0.930 . S
C63 O46 1.264 . S
C63 O47 1.254 . S
C64 Eu0 2.848 . S
C64 O44 1.257 . S
C64 O49 1.249 1_556 S
C64 C57 1.492 . S
C65 H30 0.931 . S
C65 C43 1.420 . S
C65 C66 1.351 . S
C66 H28 0.930 . S
C66 C34 1.423 1_556 S
C66 C65 1.351 . S
C67 O51 1.282 . S
C67 O54 1.235 . S
C68 C69 1.393 1_554 S
C68 C72 1.395 . S
C68 C75 1.492 . S
C69 C68 1.393 1_556 S
C69 C70 1.392 . S
C69 H80 0.930 . S
C70 C69 1.392 . S
C70 C71 1.386 1_556 S
C71 C70 1.386 1_554 S
C71 C73 1.395 . S
C71 H81 0.930 . S
C72 C68 1.395 . S
C72 C73 1.379 . S
C72 H82 0.930 . S
C73 C71 1.395 . S
C73 C72 1.379 . S
C73 H83 0.930 . S
C74 O52 1.264 1_655 S
C74 O53 1.254 . S
C75 Eu11 2.848 . S
C75 O50 1.257 . S
C75 O55 1.249 1_554 S
C75 C68 1.492 . S
H76 C59 0.930 . S
H77 C60 0.930 . S
H78 C61 0.930 . S
H79 C62 0.930 . S
H80 C69 0.930 . S
H81 C71 0.930 . S
H82 C72 0.930 . S
H83 C73 0.930 . S
Eu84 N115 2.657 1_556 S
Eu84 N122 2.609 . S
Eu84 O128 2.558 . S
Eu84 O129 2.612 1_556 S
Eu84 O131 2.339 1_556 S
Eu84 O132 2.563 . S
Eu84 O133 2.419 1_556 S
Eu84 O135 2.375 1_556 S
Eu84 O136 2.432 . S
Eu84 C148 2.848 . S
C85 C88 1.429 . S
C85 C89 1.411 . S
C85 N92 1.377 . S
C86 C88 1.420 1_556 S
C86 C90 1.423 1_556 S
C86 C98 1.392 . S
C87 C89 1.420 . S
C87 C90 1.351 . S
C87 H110 0.931 . S
C88 C85 1.429 . S
C88 C86 1.420 1_554 S
C88 N96 1.362 1_554 S
C89 C85 1.411 . S
C89 C87 1.420 . S
C89 C94 1.395 . S
C90 C86 1.423 1_554 S
C90 C87 1.351 . S
C90 H102 0.930 . S
C91 C93 1.400 . S
C91 C94 1.386 . S
C91 H103 0.930 . S
N92 C85 1.377 . S
N92 C93 1.321 . S
N92 Eu95 2.609 . S
C93 C91 1.400 . S
C93 N92 1.321 . S
C93 H100 0.930 . S
C94 C89 1.395 . S
C94 C91 1.386 . S
C94 H113 0.930 . S
Eu95 N92 2.609 . S
Eu95 N96 2.657 1_554 S
Eu95 O129 2.380 . S
Eu95 O130 2.432 . S
Eu95 O134 2.558 . S
Eu95 O135 2.619 . S
Eu95 O137 2.339 1_554 S
Eu95 O138 2.563 . S
Eu95 O139 2.419 1_554 S
Eu95 C159 2.848 . S
N96 C88 1.362 1_556 S
N96 Eu95 2.657 1_556 S
N96 C97 1.334 . S
C97 N96 1.334 . S
C97 C99 1.413 . S
C97 H104 0.929 . S
C98 C86 1.392 . S
C98 C99 1.367 . S
C98 H106 0.930 . S
C99 C97 1.413 . S
C99 C98 1.367 . S
C99 H101 0.930 . S
H100 C93 0.930 . S
H101 C99 0.930 . S
H102 C90 0.930 . S
H103 C91 0.930 . S
H104 C97 0.929 . S
H105 C119 0.930 . S
H106 C98 0.930 . S
H107 C125 0.930 . S
H108 C116 0.929 . S
H109 C123 0.930 . S
H110 C87 0.931 . S
H111 C117 0.930 . S
H112 C150 0.930 . S
H113 C94 0.930 . S
H114 C149 0.931 . S
N115 Eu84 2.657 1_554 S
N115 C116 1.334 . S
N115 C120 1.362 1_554 S
C116 H108 0.929 . S
C116 N115 1.334 . S
C116 C119 1.413 . S
C117 H111 0.930 . S
C117 C118 1.392 . S
C117 C119 1.367 . S
C118 C117 1.392 . S
C118 C120 1.420 1_554 S
C118 C150 1.423 1_554 S
C119 H105 0.930 . S
C119 C116 1.413 . S
C119 C117 1.367 . S
C120 N115 1.362 1_556 S
C120 C118 1.420 1_556 S
C120 C124 1.429 . S
H121 C126 0.930 . S
N122 Eu84 2.609 . S
N122 C124 1.377 . S
N122 C125 1.321 . S
C123 H109 0.930 . S
C123 C125 1.400 . S
C123 C126 1.386 . S
C124 C120 1.429 . S
C124 N122 1.377 . S
C124 C127 1.411 . S
C125 H107 0.930 . S
C125 N122 1.321 . S
C125 C123 1.400 . S
C126 H121 0.930 . S
C126 C123 1.386 . S
C126 C127 1.395 . S
C127 C124 1.411 . S
C127 C126 1.395 . S
C127 C149 1.420 . S
O128 Eu84 2.558 . S
O128 C148 1.257 . S
O129 Eu84 2.612 1_554 S
O129 Eu95 2.380 . S
O129 C140 1.276 1_554 S
O130 Eu95 2.432 . S
O130 C147 1.264 . S
O131 Eu84 2.339 1_554 S
O131 C147 1.254 . S
O132 Eu84 2.563 . S
O132 C140 1.235 . S
O133 Eu84 2.419 1_554 S
O133 C148 1.249 1_554 S
O134 Eu95 2.558 . S
O134 C159 1.257 . S
O135 Eu84 2.375 1_554 S
O135 Eu95 2.619 . S
O135 C151 1.282 . S
O136 Eu84 2.432 . S
O136 C158 1.264 . S
O137 Eu95 2.339 1_556 S
O137 C158 1.254 . S
O138 Eu95 2.563 . S
O138 C151 1.235 . S
O139 Eu95 2.419 1_556 S
O139 C159 1.249 1_556 S
C140 O129 1.276 1_556 S
C140 O132 1.235 . S
C141 C143 1.393 1_556 S
C141 C145 1.395 . S
C141 C148 1.492 . S
C142 C143 1.392 . S
C142 C144 1.386 1_554 S
C143 C141 1.393 1_554 S
C143 C142 1.392 . S
C143 H160 0.930 . S
C144 C142 1.386 1_556 S
C144 C146 1.395 . S
C144 H161 0.930 . S
C145 C141 1.395 . S
C145 C146 1.379 . S
C145 H162 0.930 . S
C146 C144 1.395 . S
C146 C145 1.379 . S
C146 H163 0.930 . S
C147 O130 1.264 . S
C147 O131 1.254 . S
C148 Eu84 2.848 . S
C148 O128 1.257 . S
C148 O133 1.249 1_556 S
C148 C141 1.492 . S
C149 H114 0.931 . S
C149 C127 1.420 . S
C149 C150 1.351 . S
C150 H112 0.930 . S
C150 C118 1.423 1_556 S
C150 C149 1.351 . S
C151 O135 1.282 . S
C151 O138 1.235 . S
C152 C153 1.393 1_554 S
C152 C156 1.395 . S
C152 C159 1.492 . S
C153 C152 1.393 1_556 S
C153 C154 1.392 . S
C153 H164 0.930 . S
C154 C153 1.392 . S
C154 C155 1.386 1_556 S
C155 C154 1.386 1_554 S
C155 C157 1.395 . S
C155 H165 0.930 . S
C156 C152 1.395 . S
C156 C157 1.379 . S
C156 H166 0.930 . S
C157 C155 1.395 . S
C157 C156 1.379 . S
C157 H167 0.930 . S
C158 O136 1.264 . S
C158 O137 1.254 . S
C159 Eu95 2.848 . S
C159 O134 1.257 . S
C159 O139 1.249 1_554 S
C159 C152 1.492 . S
H160 C143 0.930 . S
H161 C144 0.930 . S
H162 C145 0.930 . S
H163 C146 0.930 . S
H164 C153 0.930 . S
H165 C155 0.930 . S
H166 C156 0.930 . S
H167 C157 0.930 . S
Eu168 N199 2.657 1_566 S
Eu168 N206 2.609 . S
Eu168 O212 2.558 . S
Eu168 O213 2.612 1_556 S
Eu168 O215 2.339 1_556 S
Eu168 O216 2.563 . S
Eu168 O217 2.419 1_556 S
Eu168 O219 2.375 1_566 S
Eu168 O220 2.421 1_565 S
Eu168 C232 2.848 . S
C169 C172 1.429 . S
C169 C173 1.411 . S
C169 N176 1.377 1_565 S
C170 C172 1.420 1_556 S
C170 C174 1.423 1_556 S
C170 C182 1.392 . S
C171 C173 1.420 . S
C171 C174 1.351 . S
C171 H194 0.931 . S
C172 C169 1.429 . S
C172 C170 1.420 1_554 S
C172 N180 1.362 1_564 S
C173 C169 1.411 . S
C173 C171 1.420 . S
C173 C178 1.395 . S
C174 C170 1.423 1_554 S
C174 C171 1.351 . S
C174 H186 0.930 . S
C175 C177 1.400 . S
C175 C178 1.386 1_545 S
C175 H187 0.930 . S
N176 C169 1.377 1_545 S
N176 C177 1.321 . S
N176 Eu179 2.609 . S
C177 C175 1.400 . S
C177 N176 1.321 . S
C177 H184 0.930 . S
C178 C173 1.395 . S
C178 C175 1.386 1_565 S
C178 H197 0.930 . S
Eu179 N176 2.609 . S
Eu179 N180 2.657 1_554 S
Eu179 O213 2.380 1_545 S
Eu179 O214 2.432 . S
Eu179 O218 2.558 . S
Eu179 O219 2.619 . S
Eu179 O221 2.339 1_554 S
Eu179 O222 2.563 . S
Eu179 O223 2.419 1_554 S
Eu179 C243 2.848 . S
N180 C172 1.362 1_546 S
N180 Eu179 2.657 1_556 S
N180 C181 1.334 1_545 S
C181 N180 1.334 1_565 S
C181 C183 1.413 . S
C181 H188 0.929 1_565 S
C182 C170 1.392 . S
C182 C183 1.367 . S
C182 H190 0.930 . S
C183 C181 1.413 . S
C183 C182 1.367 . S
C183 H185 0.930 . S
H184 C177 0.930 . S
H185 C183 0.930 . S
H186 C174 0.930 . S
H187 C175 0.930 . S
H188 C181 0.929 1_545 S
H189 C203 0.930 . S
H190 C182 0.930 . S
H191 C209 0.930 . S
H192 C200 0.929 . S
H193 C207 0.930 . S
H194 C171 0.931 . S
H195 C201 0.930 . S
H196 C234 0.930 . S
H197 C178 0.930 . S
H198 C233 0.931 . S
N199 Eu168 2.657 1_544 S
N199 C200 1.334 . S
N199 C204 1.362 1_554 S
C200 H192 0.929 . S
C200 N199 1.334 . S
C200 C203 1.413 . S
C201 H195 0.930 . S
C201 C202 1.392 . S
C201 C203 1.367 . S
C202 C201 1.392 . S
C202 C204 1.420 1_554 S
C202 C234 1.423 1_554 S
C203 H189 0.930 . S
C203 C200 1.413 . S
C203 C201 1.367 . S
C204 N199 1.362 1_556 S
C204 C202 1.420 1_556 S
C204 C208 1.429 . S
H205 C210 0.930 . S
N206 Eu168 2.609 . S
N206 C208 1.377 1_565 S
N206 C209 1.321 . S
C207 H193 0.930 . S
C207 C209 1.400 . S
C207 C210 1.386 1_565 S
C208 C204 1.429 . S
C208 N206 1.377 1_545 S
C208 C211 1.411 . S
C209 H191 0.930 . S
C209 N206 1.321 . S
C209 C207 1.400 . S
C210 H205 0.930 . S
C210 C207 1.386 1_545 S
C210 C211 1.395 . S
C211 C208 1.411 . S
C211 C210 1.395 . S
C211 C233 1.420 . S
O212 Eu168 2.558 . S
O212 C232 1.257 . S
O213 Eu168 2.612 1_554 S
O213 Eu179 2.380 1_565 S
O213 C224 1.276 1_554 S
O214 Eu179 2.432 . S
O214 C231 1.264 1_545 S
O215 Eu168 2.339 1_554 S
O215 C231 1.254 . S
O216 Eu168 2.563 . S
O216 C224 1.235 . S
O217 Eu168 2.419 1_554 S
O217 C232 1.249 1_554 S
O218 Eu179 2.558 . S
O218 C243 1.257 . S
O219 Eu168 2.375 1_544 S
O219 Eu179 2.619 . S
O219 C235 1.282 . S
O220 Eu168 2.421 1_545 S
O220 C242 1.285 . S
O221 Eu179 2.339 1_556 S
O221 C242 1.254 . S
O222 Eu179 2.563 . S
O222 C235 1.235 . S
O223 Eu179 2.419 1_556 S
O223 C243 1.249 1_556 S
C224 O213 1.276 1_556 S
C224 O216 1.235 . S
C225 C227 1.393 1_556 S
C225 C229 1.395 . S
C225 C232 1.492 . S
C226 C227 1.392 . S
C226 C228 1.386 1_554 S
C227 C225 1.393 1_554 S
C227 C226 1.392 . S
C227 H244 0.930 . S
C228 C226 1.386 1_556 S
C228 C230 1.395 . S
C228 H245 0.930 . S
C229 C225 1.395 . S
C229 C230 1.379 . S
C229 H246 0.930 . S
C230 C228 1.395 . S
C230 C229 1.379 . S
C230 H247 0.930 . S
C231 O214 1.264 1_565 S
C231 O215 1.254 . S
C232 Eu168 2.848 . S
C232 O212 1.257 . S
C232 O217 1.249 1_556 S
C232 C225 1.492 . S
C233 H198 0.931 . S
C233 C211 1.420 . S
C233 C234 1.351 . S
C234 H196 0.930 . S
C234 C202 1.423 1_556 S
C234 C233 1.351 . S
C235 O219 1.282 . S
C235 O222 1.235 . S
C236 C237 1.393 1_554 S
C236 C240 1.395 . S
C236 C243 1.492 . S
C237 C236 1.393 1_556 S
C237 C238 1.392 . S
C237 H248 0.930 . S
C238 C237 1.392 . S
C238 C239 1.386 1_556 S
C239 C238 1.386 1_554 S
C239 C241 1.395 . S
C239 H249 0.930 . S
C240 C236 1.395 . S
C240 C241 1.379 . S
C240 H250 0.930 . S
C241 C239 1.395 . S
C241 C240 1.379 . S
C241 H251 0.930 . S
C242 O220 1.285 . S
C242 O221 1.254 . S
C243 Eu179 2.848 . S
C243 O218 1.257 . S
C243 O223 1.249 1_554 S
C243 C236 1.492 . S
H244 C227 0.930 . S
H245 C228 0.930 . S
H246 C229 0.930 . S
H247 C230 0.930 . S
H248 C237 0.930 . S
H249 C239 0.930 . S
H250 C240 0.930 . S
H251 C241 0.930 . S
Eu252 N283 2.657 . S
Eu252 N290 2.609 . S
Eu252 O296 2.558 . S
Eu252 O297 2.612 . S
Eu252 O299 2.339 . S
Eu252 O300 2.563 . S
Eu252 O301 2.419 . S
Eu252 O303 2.380 . S
Eu252 O304 2.432 . S
Eu252 C316 2.848 . S
C253 C256 1.429 . S
C253 C257 1.411 . S
C253 N260 1.377 . S
C254 C256 1.420 . S
C254 C258 1.423 . S
C254 C266 1.392 . S
C255 C257 1.420 . S
C255 C258 1.351 . S
C255 H278 0.931 . S
C256 C253 1.429 . S
C256 C254 1.420 . S
C256 N264 1.362 . S
C257 C253 1.411 . S
C257 C255 1.420 . S
C257 C262 1.395 . S
C258 C254 1.423 . S
C258 C255 1.351 . S
C258 H270 0.930 . S
C259 C261 1.400 . S
C259 C262 1.386 . S
C259 H271 0.930 . S
N260 C253 1.377 . S
N260 C261 1.321 . S
N260 Eu263 2.609 . S
C261 C259 1.400 . S
C261 N260 1.321 . S
C261 H268 0.930 . S
C262 C257 1.395 . S
C262 C259 1.386 . S
C262 H281 0.930 . S
Eu263 N260 2.609 . S
Eu263 N264 2.657 . S
Eu263 O297 2.380 . S
Eu263 O298 2.432 . S
Eu263 O302 2.558 . S
Eu263 O303 2.612 . S
Eu263 O305 2.339 . S
Eu263 O306 2.563 . S
Eu263 O307 2.419 . S
Eu263 C327 2.848 . S
N264 C256 1.362 . S
N264 Eu263 2.657 . S
N264 C265 1.334 . S
C265 N264 1.334 . S
C265 C267 1.413 . S
C265 H272 0.929 . S
C266 C254 1.392 . S
C266 C267 1.367 . S
C266 H274 0.930 . S
C267 C265 1.413 . S
C267 C266 1.367 . S
C267 H269 0.930 . S
H268 C261 0.930 . S
H269 C267 0.930 . S
H270 C258 0.930 . S
H271 C259 0.930 . S
H272 C265 0.929 . S
H273 C287 0.930 . S
H274 C266 0.930 . S
H275 C293 0.930 . S
H276 C284 0.929 . S
H277 C291 0.930 . S
H278 C255 0.931 . S
H279 C285 0.930 . S
H280 C318 0.930 . S
H281 C262 0.930 . S
H282 C317 0.931 . S
N283 Eu252 2.657 . S
N283 C284 1.334 . S
N283 C288 1.362 . S
C284 H276 0.929 . S
C284 N283 1.334 . S
C284 C287 1.413 . S
C285 H279 0.930 . S
C285 C286 1.392 . S
C285 C287 1.367 . S
C286 C285 1.392 . S
C286 C288 1.420 . S
C286 C318 1.423 . S
C287 H273 0.930 . S
C287 C284 1.413 . S
C287 C285 1.367 . S
C288 N283 1.362 . S
C288 C286 1.420 . S
C288 C292 1.429 . S
H289 C294 0.930 . S
N290 Eu252 2.609 . S
N290 C292 1.377 . S
N290 C293 1.321 . S
C291 H277 0.930 . S
C291 C293 1.400 . S
C291 C294 1.386 . S
C292 C288 1.429 . S
C292 N290 1.377 . S
C292 C295 1.411 . S
C293 H275 0.930 . S
C293 N290 1.321 . S
C293 C291 1.400 . S
C294 H289 0.930 . S
C294 C291 1.386 . S
C294 C295 1.395 . S
C295 C292 1.411 . S
C295 C294 1.395 . S
C295 C317 1.420 . S
O296 Eu252 2.558 . S
O296 C316 1.257 . S
O297 Eu252 2.612 . S
O297 Eu263 2.380 . S
O297 C308 1.276 . S
O298 Eu263 2.432 . S
O298 C315 1.264 . S
O299 Eu252 2.339 . S
O299 C315 1.254 . S
O300 Eu252 2.563 . S
O300 C308 1.235 . S
O301 Eu252 2.419 . S
O301 C316 1.249 . S
O302 Eu263 2.558 . S
O302 C327 1.257 . S
O303 Eu252 2.380 . S
O303 Eu263 2.612 . S
O303 C319 1.276 . S
O304 Eu252 2.432 . S
O304 C326 1.264 . S
O305 Eu263 2.339 . S
O305 C326 1.254 . S
O306 Eu263 2.563 . S
O306 C319 1.235 . S
O307 Eu263 2.419 . S
O307 C327 1.249 . S
C308 O297 1.276 . S
C308 O300 1.235 . S
C309 C311 1.393 . S
C309 C313 1.395 . S
C309 C316 1.492 . S
C310 C311 1.392 1_545 S
C310 C312 1.386 . S
C311 C309 1.393 . S
C311 C310 1.392 1_565 S
C311 H328 0.930 . S
C312 C310 1.386 . S
C312 C314 1.395 . S
C312 H329 0.930 . S
C313 C309 1.395 . S
C313 C314 1.379 1_565 S
C313 H330 0.930 . S
C314 C312 1.395 . S
C314 C313 1.379 1_545 S
C314 H331 0.930 . S
C315 O298 1.264 . S
C315 O299 1.254 . S
C316 Eu252 2.848 . S
C316 O296 1.257 . S
C316 O301 1.249 . S
C316 C309 1.492 . S
C317 H282 0.931 . S
C317 C295 1.420 . S
C317 C318 1.351 . S
C318 H280 0.930 . S
C318 C286 1.423 . S
C318 C317 1.351 . S
C319 O303 1.276 . S
C319 O306 1.235 . S
C320 C321 1.393 . S
C320 C324 1.395 . S
C320 C327 1.492 . S
C321 C320 1.393 . S
C321 C322 1.392 . S
C321 H332 0.930 . S
C322 C321 1.392 . S
C322 C323 1.386 . S
C323 C322 1.386 . S
C323 C325 1.395 . S
C323 H333 0.930 . S
C324 C320 1.395 . S
C324 C325 1.379 . S
C324 H334 0.930 . S
C325 C323 1.395 . S
C325 C324 1.379 . S
C325 H335 0.930 . S
C326 O304 1.264 . S
C326 O305 1.254 . S
C327 Eu263 2.848 . S
C327 O302 1.257 . S
C327 O307 1.249 . S
C327 C320 1.492 . S
H328 C311 0.930 . S
H329 C312 0.930 . S
H330 C313 0.930 . S
H331 C314 0.930 . S
H332 C321 0.930 . S
H333 C323 0.930 . S
H334 C324 0.930 . S
H335 C325 0.930 . S
Eu336 N367 2.657 . S
Eu336 N374 2.609 . S
Eu336 O380 2.558 . S
Eu336 O381 2.612 . S
Eu336 O383 2.339 . S
Eu336 O384 2.563 . S
Eu336 O385 2.419 . S
Eu336 O387 2.380 . S
Eu336 O388 2.432 . S
Eu336 C400 2.848 . S
C337 C340 1.429 . S
C337 C341 1.411 1_565 S
C337 N344 1.377 . S
C338 C340 1.420 1_545 S
C338 C342 1.423 . S
C338 C350 1.392 . S
C339 C341 1.420 . S
C339 C342 1.351 . S
C339 H362 0.931 . S
C340 C337 1.429 . S
C340 C338 1.420 1_565 S
C340 N348 1.362 . S
C341 C337 1.411 1_545 S
C341 C339 1.420 . S
C341 C346 1.395 . S
C342 C338 1.423 . S
C342 C339 1.351 . S
C342 H354 0.930 . S
C343 C345 1.400 . S
C343 C346 1.386 1_565 S
C343 H355 0.930 . S
N344 C337 1.377 . S
N344 C345 1.321 . S
N344 Eu347 2.609 . S
C345 C343 1.400 . S
C345 N344 1.321 . S
C345 H352 0.930 . S
C346 C341 1.395 . S
C346 C343 1.386 1_545 S
C346 H365 0.930 . S
Eu347 N344 2.609 . S
Eu347 N348 2.657 . S
Eu347 O381 2.380 . S
Eu347 O382 2.432 . S
Eu347 O386 2.558 . S
Eu347 O387 2.612 . S
Eu347 O389 2.339 . S
Eu347 O390 2.563 . S
Eu347 O391 2.419 . S
Eu347 C411 2.848 . S
N348 C340 1.362 . S
N348 Eu347 2.657 . S
N348 C349 1.334 . S
C349 N348 1.334 . S
C349 C351 1.413 1_565 S
C349 H356 0.929 . S
C350 C338 1.392 . S
C350 C351 1.367 . S
C350 H358 0.930 . S
C351 C349 1.413 1_545 S
C351 C350 1.367 . S
C351 H353 0.930 . S
H352 C345 0.930 . S
H353 C351 0.930 . S
H354 C342 0.930 . S
H355 C343 0.930 . S
H356 C349 0.929 . S
H357 C371 0.930 . S
H358 C350 0.930 . S
H359 C377 0.930 . S
H360 C368 0.929 . S
H361 C375 0.930 . S
H362 C339 0.931 . S
H363 C369 0.930 . S
H364 C402 0.930 . S
H365 C346 0.930 . S
H366 C401 0.931 . S
N367 Eu336 2.657 . S
N367 C368 1.334 . S
N367 C372 1.362 . S
C368 H360 0.929 . S
C368 N367 1.334 . S
C368 C371 1.413 . S
C369 H363 0.930 . S
C369 C370 1.392 . S
C369 C371 1.367 . S
C370 C369 1.392 . S
C370 C372 1.420 . S
C370 C402 1.423 . S
C371 H357 0.930 . S
C371 C368 1.413 . S
C371 C369 1.367 . S
C372 N367 1.362 . S
C372 C370 1.420 . S
C372 C376 1.429 . S
H373 C378 0.930 . S
N374 Eu336 2.609 . S
N374 C376 1.377 . S
N374 C377 1.321 . S
C375 H361 0.930 . S
C375 C377 1.400 . S
C375 C378 1.386 . S
C376 C372 1.429 . S
C376 N374 1.377 . S
C376 C379 1.411 . S
C377 H359 0.930 . S
C377 N374 1.321 . S
C377 C375 1.400 . S
C378 H373 0.930 . S
C378 C375 1.386 . S
C378 C379 1.395 . S
C379 C376 1.411 . S
C379 C378 1.395 . S
C379 C401 1.420 . S
O380 Eu336 2.558 . S
O380 C400 1.257 . S
O381 Eu336 2.612 . S
O381 Eu347 2.380 . S
O381 C392 1.276 . S
O382 Eu347 2.432 . S
O382 C399 1.264 . S
O383 Eu336 2.339 . S
O383 C399 1.254 . S
O384 Eu336 2.563 . S
O384 C392 1.235 . S
O385 Eu336 2.419 . S
O385 C400 1.249 . S
O386 Eu347 2.558 . S
O386 C411 1.257 . S
O387 Eu336 2.380 . S
O387 Eu347 2.612 . S
O387 C403 1.276 . S
O388 Eu336 2.432 . S
O388 C410 1.264 . S
O389 Eu347 2.339 . S
O389 C410 1.254 . S
O390 Eu347 2.563 . S
O390 C403 1.235 . S
O391 Eu347 2.419 . S
O391 C411 1.249 . S
C392 O381 1.276 . S
C392 O384 1.235 . S
C393 C395 1.393 . S
C393 C397 1.395 . S
C393 C400 1.492 . S
C394 C395 1.392 1_655 S
C394 C396 1.386 . S
C395 C393 1.393 . S
C395 C394 1.392 1_455 S
C395 H412 0.930 . S
C396 C394 1.386 . S
C396 C398 1.395 . S
C396 H413 0.930 . S
C397 C393 1.395 . S
C397 C398 1.379 1_455 S
C397 H414 0.930 . S
C398 C396 1.395 . S
C398 C397 1.379 1_655 S
C398 H415 0.930 . S
C399 O382 1.264 . S
C399 O383 1.254 . S
C400 Eu336 2.848 . S
C400 O380 1.257 . S
C400 O385 1.249 . S
C400 C393 1.492 . S
C401 H366 0.931 . S
C401 C379 1.420 . S
C401 C402 1.351 . S
C402 H364 0.930 . S
C402 C370 1.423 . S
C402 C401 1.351 . S
C403 O387 1.276 . S
C403 O390 1.235 . S
C404 C405 1.393 . S
C404 C408 1.395 . S
C404 C411 1.492 . S
C405 C404 1.393 . S
C405 C406 1.392 . S
C405 H416 0.930 . S
C406 C405 1.392 . S
C406 C407 1.386 . S
C407 C406 1.386 . S
C407 C409 1.395 . S
C407 H417 0.930 . S
C408 C404 1.395 . S
C408 C409 1.379 . S
C408 H418 0.930 . S
C409 C407 1.395 . S
C409 C408 1.379 . S
C409 H419 0.930 . S
C410 O388 1.264 . S
C410 O389 1.254 . S
C411 Eu347 2.848 . S
C411 O386 1.257 . S
C411 O391 1.249 . S
C411 C404 1.492 . S
H412 C395 0.930 . S
H413 C396 0.930 . S
H414 C397 0.930 . S
H415 C398 0.930 . S
H416 C405 0.930 . S
H417 C407 0.930 . S
H418 C408 0.930 . S
H419 C409 0.930 . S
Eu420 N451 2.657 . S
Eu420 N458 2.609 . S
Eu420 O464 2.558 . S
Eu420 O465 2.612 . S
Eu420 O467 2.339 . S
Eu420 O468 2.563 . S
Eu420 O469 2.419 . S
Eu420 O471 2.380 . S
Eu420 O472 2.432 . S
Eu420 C484 2.848 . S
C421 C424 1.429 . S
C421 C425 1.411 1_455 S
C421 N428 1.377 . S
C422 C424 1.420 1_655 S
C422 C426 1.423 . S
C422 C434 1.392 . S
C423 C425 1.420 . S
C423 C426 1.351 . S
C423 H446 0.931 . S
C424 C421 1.429 . S
C424 C422 1.420 1_455 S
C424 N432 1.362 . S
C425 C421 1.411 1_655 S
C425 C423 1.420 . S
C425 C430 1.395 . S
C426 C422 1.423 . S
C426 C423 1.351 . S
C426 H438 0.930 . S
C427 C429 1.400 . S
C427 C430 1.386 1_455 S
C427 H439 0.930 . S
N428 C421 1.377 . S
N428 C429 1.321 . S
N428 Eu431 2.609 . S
C429 C427 1.400 . S
C429 N428 1.321 . S
C429 H436 0.930 . S
C430 C425 1.395 . S
C430 C427 1.386 1_655 S
C430 H449 0.930 . S
Eu431 N428 2.609 . S
Eu431 N432 2.657 . S
Eu431 O465 2.380 . S
Eu431 O466 2.432 . S
Eu431 O470 2.558 . S
Eu431 O471 2.612 . S
Eu431 O473 2.339 . S
Eu431 O474 2.563 . S
Eu431 O475 2.419 . S
Eu431 C495 2.848 . S
N432 C424 1.362 . S
N432 Eu431 2.657 . S
N432 C433 1.334 . S
C433 N432 1.334 . S
C433 C435 1.413 . S
C433 H440 0.929 . S
C434 C422 1.392 . S
C434 C435 1.367 1_655 S
C434 H442 0.930 . S
C435 C433 1.413 . S
C435 C434 1.367 1_455 S
C435 H437 0.930 . S
H436 C429 0.930 . S
H437 C435 0.930 . S
H438 C426 0.930 . S
H439 C427 0.930 . S
H440 C433 0.929 . S
H441 C455 0.930 . S
H442 C434 0.930 . S
H443 C461 0.930 . S
H444 C452 0.929 . S
H445 C459 0.930 . S
H446 C423 0.931 . S
H447 C453 0.930 . S
H448 C486 0.930 . S
H449 C430 0.930 . S
H450 C485 0.931 . S
N451 Eu420 2.657 . S
N451 C452 1.334 . S
N451 C456 1.362 . S
C452 H444 0.929 . S
C452 N451 1.334 . S
C452 C455 1.413 . S
C453 H447 0.930 . S
C453 C454 1.392 . S
C453 C455 1.367 . S
C454 C453 1.392 . S
C454 C456 1.420 . S
C454 C486 1.423 . S
C455 H441 0.930 . S
C455 C452 1.413 . S
C455 C453 1.367 . S
C456 N451 1.362 . S
C456 C454 1.420 . S
C456 C460 1.429 . S
H457 C462 0.930 . S
N458 Eu420 2.609 . S
N458 C460 1.377 . S
N458 C461 1.321 . S
C459 H445 0.930 . S
C459 C461 1.400 . S
C459 C462 1.386 . S
C460 C456 1.429 . S
C460 N458 1.377 . S
C460 C463 1.411 . S
C461 H443 0.930 . S
C461 N458 1.321 . S
C461 C459 1.400 . S
C462 H457 0.930 . S
C462 C459 1.386 . S
C462 C463 1.395 . S
C463 C460 1.411 . S
C463 C462 1.395 . S
C463 C485 1.420 . S
O464 Eu420 2.558 . S
O464 C484 1.257 . S
O465 Eu420 2.612 . S
O465 Eu431 2.380 . S
O465 C476 1.276 . S
O466 Eu431 2.432 . S
O466 C483 1.264 . S
O467 Eu420 2.339 . S
O467 C483 1.254 . S
O468 Eu420 2.563 . S
O468 C476 1.235 . S
O469 Eu420 2.419 . S
O469 C484 1.249 . S
O470 Eu431 2.558 . S
O470 C495 1.257 . S
O471 Eu420 2.380 . S
O471 Eu431 2.612 . S
O471 C487 1.276 . S
O472 Eu420 2.432 . S
O472 C494 1.264 . S
O473 Eu431 2.339 . S
O473 C494 1.254 . S
O474 Eu431 2.563 . S
O474 C487 1.235 . S
O475 Eu431 2.419 . S
O475 C495 1.249 . S
C476 O465 1.276 . S
C476 O468 1.235 . S
C477 C479 1.393 . S
C477 C481 1.395 . S
C477 C484 1.492 . S
C478 C479 1.392 . S
C478 C480 1.386 . S
C479 C477 1.393 . S
C479 C478 1.392 . S
C479 H496 0.930 . S
C480 C478 1.386 . S
C480 C482 1.395 . S
C480 H497 0.930 . S
C481 C477 1.395 . S
C481 C482 1.379 . S
C481 H498 0.930 . S
C482 C480 1.395 . S
C482 C481 1.379 . S
C482 H499 0.930 . S
C483 O466 1.264 . S
C483 O467 1.254 . S
C484 Eu420 2.848 . S
C484 O464 1.257 . S
C484 O469 1.249 . S
C484 C477 1.492 . S
C485 H450 0.931 . S
C485 C463 1.420 . S
C485 C486 1.351 . S
C486 H448 0.930 . S
C486 C454 1.423 . S
C486 C485 1.351 . S
C487 O471 1.276 . S
C487 O474 1.235 . S
C488 C489 1.393 . S
C488 C492 1.395 . S
C488 C495 1.492 . S
C489 C488 1.393 . S
C489 C490 1.392 . S
C489 H500 0.930 . S
C490 C489 1.392 . S
C490 C491 1.386 . S
C491 C490 1.386 . S
C491 C493 1.395 . S
C491 H501 0.930 . S
C492 C488 1.395 . S
C492 C493 1.379 . S
C492 H502 0.930 . S
C493 C491 1.395 . S
C493 C492 1.379 . S
C493 H503 0.930 . S
C494 O472 1.264 . S
C494 O473 1.254 . S
C495 Eu431 2.848 . S
C495 O470 1.257 . S
C495 O475 1.249 . S
C495 C488 1.492 . S
H496 C479 0.930 . S
H497 C480 0.930 . S
H498 C481 0.930 . S
H499 C482 0.930 . S
H500 C489 0.930 . S
H501 C491 0.930 . S
H502 C492 0.930 . S
H503 C493 0.930 . S
Eu504 N535 2.657 . S
Eu504 N542 2.609 . S
Eu504 O548 2.558 . S
Eu504 O549 2.612 . S
Eu504 O551 2.339 . S
Eu504 O552 2.563 . S
Eu504 O553 2.419 . S
Eu504 O555 2.380 . S
Eu504 O556 2.432 . S
Eu504 C568 2.848 . S
C505 C508 1.429 . S
C505 C509 1.437 . S
C505 N512 1.377 . S
C506 C508 1.420 . S
C506 C510 1.423 1_545 S
C506 C518 1.392 . S
C507 C509 1.394 1_565 S
C507 C510 1.351 . S
C507 H530 0.931 . S
C508 C505 1.429 . S
C508 C506 1.420 . S
C508 N516 1.362 . S
C509 C505 1.437 . S
C509 C507 1.394 1_545 S
C509 C514 1.397 1_545 S
C510 C506 1.423 1_565 S
C510 C507 1.351 . S
C510 H522 0.930 . S
C511 C513 1.400 . S
C511 C514 1.386 1_545 S
C511 H523 0.930 . S
N512 C505 1.377 . S
N512 C513 1.321 . S
N512 Eu515 2.609 . S
C513 C511 1.400 . S
C513 N512 1.321 . S
C513 H520 0.930 . S
C514 C509 1.397 1_565 S
C514 C511 1.386 1_565 S
C514 H533 0.930 . S
Eu515 N512 2.609 . S
Eu515 N516 2.657 . S
Eu515 O549 2.380 . S
Eu515 O550 2.432 . S
Eu515 O554 2.558 . S
Eu515 O555 2.612 . S
Eu515 O557 2.339 . S
Eu515 O558 2.563 . S
Eu515 O559 2.419 . S
Eu515 C579 2.848 . S
N516 C508 1.362 . S
N516 Eu515 2.657 . S
N516 C517 1.334 . S
C517 N516 1.334 . S
C517 C519 1.413 . S
C517 H524 0.929 . S
C518 C506 1.392 . S
C518 C519 1.367 . S
C518 H526 0.913 1_545 S
C519 C517 1.413 . S
C519 C518 1.367 . S
C519 H521 0.930 . S
H520 C513 0.930 . S
H521 C519 0.930 . S
H522 C510 0.930 . S
H523 C511 0.930 . S
H524 C517 0.929 . S
H525 C539 0.930 . S
H526 C518 0.913 1_565 S
H527 C545 0.930 . S
H528 C536 0.929 . S
H529 C543 0.930 . S
H530 C507 0.931 . S
H531 C537 0.930 . S
H532 C570 0.930 . S
H533 C514 0.930 . S
H534 C569 0.931 . S
N535 Eu504 2.657 . S
N535 C536 1.334 . S
N535 C540 1.362 . S
C536 H528 0.929 . S
C536 N535 1.334 . S
C536 C539 1.413 . S
C537 H531 0.930 . S
C537 C538 1.392 . S
C537 C539 1.367 . S
C538 C537 1.392 . S
C538 C540 1.420 . S
C538 C570 1.423 . S
C539 H525 0.930 . S
C539 C536 1.413 . S
C539 C537 1.367 . S
C540 N535 1.362 . S
C540 C538 1.420 . S
C540 C544 1.429 . S
H541 C546 0.930 . S
N542 Eu504 2.609 . S
N542 C544 1.377 . S
N542 C545 1.321 . S
C543 H529 0.930 . S
C543 C545 1.400 . S
C543 C546 1.386 . S
C544 C540 1.429 . S
C544 N542 1.377 . S
C544 C547 1.411 . S
C545 H527 0.930 . S
C545 N542 1.321 . S
C545 C543 1.400 . S
C546 H541 0.930 . S
C546 C543 1.386 . S
C546 C547 1.395 . S
C547 C544 1.411 . S
C547 C546 1.395 . S
C547 C569 1.420 . S
O548 Eu504 2.558 . S
O548 C568 1.257 . S
O549 Eu504 2.612 . S
O549 Eu515 2.380 . S
O549 C560 1.276 . S
O550 Eu515 2.432 . S
O550 C567 1.264 . S
O551 Eu504 2.339 . S
O551 C567 1.254 . S
O552 Eu504 2.563 . S
O552 C560 1.235 . S
O553 Eu504 2.419 . S
O553 C568 1.249 . S
O554 Eu515 2.558 . S
O554 C579 1.257 . S
O555 Eu504 2.380 . S
O555 Eu515 2.612 . S
O555 C571 1.276 . S
O556 Eu504 2.432 . S
O556 C578 1.264 . S
O557 Eu515 2.339 . S
O557 C578 1.254 . S
O558 Eu515 2.563 . S
O558 C571 1.235 . S
O559 Eu515 2.419 . S
O559 C579 1.249 . S
C560 O549 1.276 . S
C560 O552 1.235 . S
C561 C563 1.393 . S
C561 C565 1.395 . S
C561 C568 1.492 . S
C562 C563 1.392 . S
C562 C564 1.386 . S
C563 C561 1.393 . S
C563 C562 1.392 . S
C563 H580 0.930 . S
C564 C562 1.386 . S
C564 C566 1.395 . S
C564 H581 0.930 . S
C565 C561 1.395 . S
C565 C566 1.379 . S
C565 H582 0.930 . S
C566 C564 1.395 . S
C566 C565 1.379 . S
C566 H583 0.930 . S
C567 O550 1.264 . S
C567 O551 1.254 . S
C568 Eu504 2.848 . S
C568 O548 1.257 . S
C568 O553 1.249 . S
C568 C561 1.492 . S
C569 H534 0.931 . S
C569 C547 1.420 . S
C569 C570 1.351 . S
C570 H532 0.930 . S
C570 C538 1.423 . S
C570 C569 1.351 . S
C571 O555 1.276 . S
C571 O558 1.235 . S
C572 C573 1.393 . S
C572 C576 1.395 . S
C572 C579 1.492 1_565 S
C573 C572 1.393 . S
C573 C574 1.392 . S
C573 H584 0.930 . S
C574 C573 1.392 . S
C574 C575 1.386 . S
C575 C574 1.386 . S
C575 C577 1.395 . S
C575 H585 0.930 . S
C576 C572 1.395 . S
C576 C577 1.379 . S
C576 H586 0.930 . S
C577 C575 1.395 . S
C577 C576 1.379 . S
C577 H587 0.930 . S
C578 O556 1.264 . S
C578 O557 1.254 . S
C579 Eu515 2.848 . S
C579 O554 1.257 . S
C579 O559 1.249 . S
C579 C572 1.492 1_545 S
H580 C563 0.930 . S
H581 C564 0.930 . S
H582 C565 0.930 . S
H583 C566 0.930 . S
H584 C573 0.930 . S
H585 C575 0.930 . S
H586 C576 0.930 . S
H587 C577 0.930 . S
Eu588 N619 2.657 . S
Eu588 N626 2.609 . S
Eu588 O632 2.558 . S
Eu588 O633 2.612 . S
Eu588 O635 2.339 . S
Eu588 O636 2.563 . S
Eu588 O637 2.419 . S
Eu588 O639 2.380 . S
Eu588 O640 2.432 . S
Eu588 C652 2.848 . S
C589 C592 1.429 . S
C589 C593 1.411 1_655 S
C589 N596 1.377 . S
C590 C592 1.420 1_455 S
C590 C594 1.423 . S
C590 C602 1.392 . S
C591 C593 1.420 . S
C591 C594 1.351 . S
C591 H614 0.931 . S
C592 C589 1.429 . S
C592 C590 1.420 1_655 S
C592 N600 1.362 . S
C593 C589 1.411 1_455 S
C593 C591 1.420 . S
C593 C598 1.395 . S
C594 C590 1.423 . S
C594 C591 1.351 . S
C594 H606 0.930 . S
C595 C597 1.400 . S
C595 C598 1.386 1_655 S
C595 H607 0.930 . S
N596 C589 1.377 . S
N596 C597 1.321 . S
N596 Eu599 2.609 . S
C597 C595 1.400 . S
C597 N596 1.321 . S
C597 H604 0.930 . S
C598 C593 1.395 . S
C598 C595 1.386 1_455 S
C598 H617 0.930 . S
Eu599 N596 2.609 . S
Eu599 N600 2.657 . S
Eu599 O633 2.380 . S
Eu599 O634 2.432 . S
Eu599 O638 2.558 . S
Eu599 O639 2.612 . S
Eu599 O641 2.339 . S
Eu599 O642 2.563 . S
Eu599 O643 2.419 . S
Eu599 C663 2.848 1_655 S
N600 C592 1.362 . S
N600 Eu599 2.657 . S
N600 C601 1.334 . S
C601 N600 1.334 . S
C601 C603 1.413 . S
C601 H608 0.929 . S
C602 C590 1.392 . S
C602 C603 1.367 1_455 S
C602 H610 0.930 . S
C603 C601 1.413 . S
C603 C602 1.367 1_655 S
C603 H605 0.930 . S
H604 C597 0.930 . S
H605 C603 0.930 . S
H606 C594 0.930 . S
H607 C595 0.930 . S
H608 C601 0.929 . S
H609 C623 0.930 . S
H610 C602 0.930 . S
H611 C629 0.930 . S
H612 C620 0.929 . S
H613 C627 0.930 . S
H614 C591 0.931 . S
H615 C621 0.930 . S
H616 C654 0.930 1_565 S
H617 C598 0.930 . S
H618 C653 0.931 1_565 S
N619 Eu588 2.657 . S
N619 C620 1.334 . S
N619 C624 1.362 . S
C620 H612 0.929 . S
C620 N619 1.334 . S
C620 C623 1.413 . S
C621 H615 0.930 . S
C621 C622 1.392 . S
C621 C623 1.367 . S
C622 C621 1.392 . S
C622 C624 1.420 . S
C622 C654 1.423 . S
C623 H609 0.930 . S
C623 C620 1.413 . S
C623 C621 1.367 . S
C624 N619 1.362 . S
C624 C622 1.420 . S
C624 C628 1.429 . S
H625 C630 0.930 . S
N626 Eu588 2.609 . S
N626 C628 1.377 . S
N626 C629 1.321 . S
C627 H613 0.930 . S
C627 C629 1.400 . S
C627 C630 1.386 . S
C628 C624 1.429 . S
C628 N626 1.377 . S
C628 C631 1.411 . S
C629 H611 0.930 . S
C629 N626 1.321 . S
C629 C627 1.400 . S
C630 H625 0.930 . S
C630 C627 1.386 . S
C630 C631 1.395 . S
C631 C628 1.411 . S
C631 C630 1.395 . S
C631 C653 1.420 . S
O632 Eu588 2.558 . S
O632 C652 1.257 . S
O633 Eu588 2.612 . S
O633 Eu599 2.380 . S
O633 C644 1.276 . S
O634 Eu599 2.432 . S
O634 C651 1.264 . S
O635 Eu588 2.339 . S
O635 C651 1.254 . S
O636 Eu588 2.563 . S
O636 C644 1.235 . S
O637 Eu588 2.419 . S
O637 C652 1.249 . S
O638 Eu599 2.558 . S
O638 C663 1.257 1_655 S
O639 Eu588 2.380 . S
O639 Eu599 2.612 . S
O639 C655 1.276 . S
O640 Eu588 2.432 . S
O640 C662 1.264 . S
O641 Eu599 2.339 . S
O641 C662 1.254 . S
O642 Eu599 2.563 . S
O642 C655 1.235 . S
O643 Eu599 2.419 . S
O643 C663 1.249 1_655 S
C644 O633 1.276 . S
C644 O636 1.235 . S
C645 C647 1.393 . S
C645 C649 1.395 . S
C645 C652 1.492 . S
C646 C647 1.392 . S
C646 C648 1.386 . S
C647 C645 1.393 . S
C647 C646 1.392 . S
C647 H664 0.930 . S
C648 C646 1.386 . S
C648 C650 1.395 . S
C648 H665 0.930 . S
C649 C645 1.395 . S
C649 C650 1.379 . S
C649 H666 0.930 . S
C650 C648 1.395 . S
C650 C649 1.379 . S
C650 H667 0.930 . S
C651 O634 1.264 . S
C651 O635 1.254 . S
C652 Eu588 2.848 . S
C652 O632 1.257 . S
C652 O637 1.249 . S
C652 C645 1.492 . S
C653 H618 0.931 1_545 S
C653 C631 1.420 . S
C653 C654 1.351 . S
C654 H616 0.930 1_545 S
C654 C622 1.423 . S
C654 C653 1.351 . S
C655 O639 1.276 . S
C655 O642 1.235 . S
C656 C657 1.393 . S
C656 C660 1.395 . S
C656 C663 1.492 . S
C657 C656 1.393 . S
C657 C658 1.392 . S
C657 H668 0.930 . S
C658 C657 1.392 . S
C658 C659 1.386 . S
C659 C658 1.386 . S
C659 C661 1.395 . S
C659 H669 0.930 . S
C660 C656 1.395 . S
C660 C661 1.379 . S
C660 H670 0.930 . S
C661 C659 1.395 . S
C661 C660 1.379 . S
C661 H671 0.930 . S
C662 O640 1.264 . S
C662 O641 1.254 . S
C663 Eu599 2.848 1_455 S
C663 O638 1.257 1_455 S
C663 O643 1.249 1_455 S
C663 C656 1.492 . S
H664 C647 0.930 . S
H665 C648 0.930 . S
H666 C649 0.930 . S
H667 C650 0.930 . S
H668 C657 0.930 . S
H669 C659 0.930 . S
H670 C660 0.930 . S
H671 C661 0.930 . S
Eu672 N703 2.657 . S
Eu672 N710 2.609 . S
Eu672 O716 2.558 . S
Eu672 O717 2.612 . S
Eu672 O719 2.339 . S
Eu672 O720 2.563 . S
Eu672 O721 2.419 . S
Eu672 O723 2.380 . S
Eu672 O724 2.432 . S
Eu672 C736 2.848 . S
C673 C676 1.429 . S
C673 C677 1.411 . S
C673 N680 1.377 . S
C674 C676 1.420 . S
C674 C678 1.423 . S
C674 C686 1.392 . S
C675 C677 1.420 . S
C675 C678 1.351 . S
C675 H698 0.931 . S
C676 C673 1.429 . S
C676 C674 1.420 . S
C676 N684 1.362 . S
C677 C673 1.411 . S
C677 C675 1.420 . S
C677 C682 1.395 . S
C678 C674 1.423 . S
C678 C675 1.351 . S
C678 H690 0.930 . S
C679 C681 1.400 . S
C679 C682 1.386 . S
C679 H691 0.930 . S
N680 C673 1.377 . S
N680 C681 1.321 . S
N680 Eu683 2.609 . S
C681 C679 1.400 . S
C681 N680 1.321 . S
C681 H688 0.930 . S
C682 C677 1.395 . S
C682 C679 1.386 . S
C682 H701 0.930 . S
Eu683 N680 2.609 . S
Eu683 N684 2.657 . S
Eu683 O717 2.380 . S
Eu683 O718 2.432 . S
Eu683 O722 2.558 . S
Eu683 O723 2.612 . S
Eu683 O725 2.339 . S
Eu683 O726 2.563 . S
Eu683 O727 2.419 . S
Eu683 C747 2.848 . S
N684 C676 1.362 . S
N684 Eu683 2.657 . S
N684 C685 1.334 . S
C685 N684 1.334 . S
C685 C687 1.413 . S
C685 H692 0.929 . S
C686 C674 1.392 . S
C686 C687 1.367 . S
C686 H694 0.930 . S
C687 C685 1.413 . S
C687 C686 1.367 . S
C687 H689 0.930 . S
H688 C681 0.930 . S
H689 C687 0.930 . S
H690 C678 0.930 . S
H691 C679 0.930 . S
H692 C685 0.929 . S
H693 C707 0.930 . S
H694 C686 0.930 . S
H695 C713 0.930 . S
H696 C704 0.929 . S
H697 C711 0.930 . S
H698 C675 0.931 . S
H699 C705 0.930 1_455 S
H700 C738 0.930 . S
H701 C682 0.930 . S
H702 C737 0.931 . S
N703 Eu672 2.657 . S
N703 C704 1.334 . S
N703 C708 1.362 . S
C704 H696 0.929 . S
C704 N703 1.334 . S
C704 C707 1.413 . S
C705 H699 0.930 1_655 S
C705 C706 1.392 . S
C705 C707 1.367 . S
C706 C705 1.392 . S
C706 C708 1.420 . S
C706 C738 1.423 1_655 S
C707 H693 0.930 . S
C707 C704 1.413 . S
C707 C705 1.367 . S
C708 N703 1.362 . S
C708 C706 1.420 . S
C708 C712 1.429 . S
H709 C714 0.930 . S
N710 Eu672 2.609 . S
N710 C712 1.377 . S
N710 C713 1.321 . S
C711 H697 0.930 . S
C711 C713 1.400 . S
C711 C714 1.386 . S
C712 C708 1.429 . S
C712 N710 1.377 . S
C712 C715 1.411 . S
C713 H695 0.930 . S
C713 N710 1.321 . S
C713 C711 1.400 . S
C714 H709 0.930 . S
C714 C711 1.386 . S
C714 C715 1.395 . S
C715 C712 1.411 . S
C715 C714 1.395 . S
C715 C737 1.420 1_655 S
O716 Eu672 2.558 . S
O716 C736 1.257 . S
O717 Eu672 2.612 . S
O717 Eu683 2.380 . S
O717 C728 1.276 . S
O718 Eu683 2.432 . S
O718 C735 1.264 . S
O719 Eu672 2.339 . S
O719 C735 1.254 . S
O720 Eu672 2.563 . S
O720 C728 1.235 . S
O721 Eu672 2.419 . S
O721 C736 1.249 . S
O722 Eu683 2.558 . S
O722 C747 1.257 . S
O723 Eu672 2.380 . S
O723 Eu683 2.612 . S
O723 C739 1.276 . S
O724 Eu672 2.432 . S
O724 C746 1.264 . S
O725 Eu683 2.339 . S
O725 C746 1.254 . S
O726 Eu683 2.563 . S
O726 C739 1.235 . S
O727 Eu683 2.419 . S
O727 C747 1.249 . S
C728 O717 1.276 . S
C728 O720 1.235 . S
C729 C731 1.393 . S
C729 C733 1.395 . S
C729 C736 1.492 . S
C730 C731 1.392 . S
C730 C732 1.386 . S
C731 C729 1.393 . S
C731 C730 1.392 . S
C731 H748 0.930 . S
C732 C730 1.386 . S
C732 C734 1.395 . S
C732 H749 0.930 . S
C733 C729 1.395 . S
C733 C734 1.379 . S
C733 H750 0.930 . S
C734 C732 1.395 . S
C734 C733 1.379 . S
C734 H751 0.930 . S
C735 O718 1.264 . S
C735 O719 1.254 . S
C736 Eu672 2.848 . S
C736 O716 1.257 . S
C736 O721 1.249 . S
C736 C729 1.492 . S
C737 H702 0.931 . S
C737 C715 1.420 1_455 S
C737 C738 1.351 . S
C738 H700 0.930 . S
C738 C706 1.423 1_455 S
C738 C737 1.351 . S
C739 O723 1.276 . S
C739 O726 1.235 . S
C740 C741 1.393 . S
C740 C744 1.395 . S
C740 C747 1.492 . S
C741 C740 1.393 . S
C741 C742 1.392 . S
C741 H752 0.930 . S
C742 C741 1.392 . S
C742 C743 1.386 . S
C743 C742 1.386 . S
C743 C745 1.395 . S
C743 H753 0.930 . S
C744 C740 1.395 . S
C744 C745 1.379 . S
C744 H754 0.930 . S
C745 C743 1.395 . S
C745 C744 1.379 . S
C745 H755 0.930 . S
C746 O724 1.264 . S
C746 O725 1.254 . S
C747 Eu683 2.848 . S
C747 O722 1.257 . S
C747 O727 1.249 . S
C747 C740 1.492 . S
H748 C731 0.930 . S
H749 C732 0.930 . S
H750 C733 0.930 . S
H751 C734 0.930 . S
H752 C741 0.930 . S
H753 C743 0.930 . S
H754 C744 0.930 . S
H755 C745 0.930 . S
H756 C764 0.950 . S
H757 C769 0.950 . S
H758 C766 0.950 . S
H759 C768 0.950 . S
H760 C770 0.950 . S
H761 C772 0.950 . S
H762 C774 0.950 . S
H763 C775 0.950 . S
C764 H756 0.950 . S
C764 C765 1.386 1_556 S
C764 C766 1.391 . S
C765 C764 1.386 1_554 S
C765 C769 1.393 . S
C766 H758 0.950 . S
C766 C764 1.391 . S
C766 C767 1.400 1_556 S
C767 C766 1.400 1_554 S
C767 C768 1.398 . S
C767 C773 1.491 . S
C768 H759 0.950 . S
C768 C767 1.398 . S
C768 C769 1.391 . S
C769 H757 0.950 . S
C769 C765 1.393 . S
C769 C768 1.391 . S
C770 H760 0.950 . S
C770 C771 1.386 . S
C770 C772 1.391 . S
C771 C770 1.386 . S
C771 C775 1.393 1_554 S
C772 H761 0.950 . S
C772 C770 1.391 . S
C772 C773 1.400 . S
C773 C767 1.491 . S
C773 C772 1.400 . S
C773 C774 1.398 1_554 S
C774 H762 0.950 . S
C774 C773 1.398 1_556 S
C774 C775 1.391 . S
C775 H763 0.950 . S
C775 C771 1.393 1_556 S
C775 C774 1.391 . S
H776 C784 0.950 . S
H777 C789 0.950 . S
H778 C786 0.950 . S
H779 C788 0.950 . S
H780 C790 0.950 . S
H781 C792 0.950 . S
H782 C794 0.950 . S
H783 C795 0.950 . S
C784 H776 0.950 . S
C784 C785 1.386 . S
C784 C786 1.391 . S
C785 C784 1.386 . S
C785 C789 1.393 1_554 S
C786 H778 0.950 . S
C786 C784 1.391 . S
C786 C787 1.400 . S
C787 C786 1.400 . S
C787 C788 1.398 1_554 S
C787 C793 1.491 . S
C788 H779 0.950 . S
C788 C787 1.398 1_556 S
C788 C789 1.391 . S
C789 H777 0.950 . S
C789 C785 1.393 1_556 S
C789 C788 1.391 . S
C790 H780 0.950 . S
C790 C791 1.386 1_556 S
C790 C792 1.391 . S
C791 C790 1.386 1_554 S
C791 C795 1.393 . S
C792 H781 0.950 . S
C792 C790 1.391 . S
C792 C793 1.400 1_556 S
C793 C787 1.491 . S
C793 C792 1.400 1_554 S
C793 C794 1.398 . S
C794 H782 0.950 . S
C794 C793 1.398 . S
C794 C795 1.391 . S
C795 H783 0.950 . S
C795 C791 1.393 . S
C795 C794 1.391 . S
H796 C804 0.950 . S
H797 C809 0.950 . S
H798 C806 0.950 . S
H799 C808 0.950 . S
H800 C810 0.950 . S
H801 C812 0.950 . S
H802 C814 0.950 . S
H803 C815 0.950 . S
C804 H796 0.950 . S
C804 C805 1.386 . S
C804 C806 1.391 . S
C805 C804 1.386 . S
C805 C809 1.393 1_554 S
C806 H798 0.950 . S
C806 C804 1.391 . S
C806 C807 1.400 . S
C807 C806 1.400 . S
C807 C808 1.398 1_554 S
C807 C813 1.491 . S
C808 H799 0.950 . S
C808 C807 1.398 1_556 S
C808 C809 1.391 . S
C809 H797 0.950 . S
C809 C805 1.393 1_556 S
C809 C808 1.391 . S
C810 H800 0.950 . S
C810 C811 1.386 1_556 S
C810 C812 1.391 . S
C811 C810 1.386 1_554 S
C811 C815 1.393 . S
C812 H801 0.950 . S
C812 C810 1.391 . S
C812 C813 1.400 1_556 S
C813 C807 1.491 . S
C813 C812 1.400 1_554 S
C813 C814 1.398 . S
C814 H802 0.950 . S
C814 C813 1.398 . S
C814 C815 1.391 . S
C815 H803 0.950 . S
C815 C811 1.393 . S
C815 C814 1.391 . S
H816 C824 0.950 . S
H817 C829 0.950 . S
H818 C826 0.950 . S
H819 C828 0.950 . S
H820 C830 0.950 . S
H821 C832 0.950 . S
H822 C834 0.950 . S
H823 C835 0.950 . S
C824 H816 0.950 . S
C824 C825 1.386 . S
C824 C826 1.391 . S
C825 C824 1.386 . S
C825 C829 1.393 1_556 S
C826 H818 0.950 . S
C826 C824 1.391 . S
C826 C827 1.400 . S
C827 C826 1.400 . S
C827 C828 1.398 1_556 S
C827 C833 1.491 . S
C828 H819 0.950 . S
C828 C827 1.398 1_554 S
C828 C829 1.391 . S
C829 H817 0.950 . S
C829 C825 1.393 1_554 S
C829 C828 1.391 . S
C830 H820 0.950 . S
C830 C831 1.386 . S
C830 C832 1.391 . S
C831 C830 1.386 . S
C831 C835 1.393 1_554 S
C832 H821 0.950 . S
C832 C830 1.391 . S
C832 C833 1.400 1_554 S
C833 C827 1.491 . S
C833 C832 1.400 1_556 S
C833 C834 1.398 . S
C834 H822 0.950 . S
C834 C833 1.398 . S
C834 C835 1.391 . S
C835 H823 0.950 . S
C835 C831 1.393 1_556 S
C835 C834 1.391 . S
H836 C844 0.950 . S
H837 C849 0.950 . S
H838 C846 0.950 . S
H839 C848 0.950 . S
H840 C850 0.950 . S
H841 C852 0.950 . S
H842 C854 0.950 . S
H843 C855 0.950 . S
C844 H836 0.950 . S
C844 C845 1.386 . S
C844 C846 1.391 . S
C845 C844 1.386 . S
C845 C849 1.393 1_554 S
C846 H838 0.950 . S
C846 C844 1.391 . S
C846 C847 1.400 1_554 S
C847 C846 1.400 1_556 S
C847 C848 1.398 . S
C847 C853 1.491 . S
C848 H839 0.950 . S
C848 C847 1.398 . S
C848 C849 1.391 . S
C849 H837 0.950 . S
C849 C845 1.393 1_556 S
C849 C848 1.391 . S
C850 H840 0.950 . S
C850 C851 1.386 . S
C850 C852 1.391 . S
C851 C850 1.386 . S
C851 C855 1.393 1_556 S
C852 H841 0.950 . S
C852 C850 1.391 . S
C852 C853 1.400 . S
C853 C847 1.491 . S
C853 C852 1.400 . S
C853 C854 1.398 1_556 S
C854 H842 0.950 . S
C854 C853 1.398 1_554 S
C854 C855 1.391 . S
C855 H843 0.950 . S
C855 C851 1.393 1_554 S
C855 C854 1.391 . S
H856 C864 0.953 . S
H857 C869 0.950 . S
H858 C866 0.950 . S
H859 C868 0.950 . S
H860 C870 0.950 . S
H861 C872 0.950 . S
H862 C874 0.950 . S
H863 C875 0.950 . S
C864 H856 0.953 . S
C864 C865 1.386 . S
C864 C866 1.389 1_554 S
C865 C864 1.386 . S
C865 C869 1.390 1_554 S
C866 H858 0.950 . S
C866 C864 1.389 1_556 S
C866 C867 1.400 . S
C867 C866 1.400 . S
C867 C868 1.398 . S
C867 C873 1.491 . S
C868 H859 0.950 . S
C868 C867 1.398 . S
C868 C869 1.391 . S
C869 H857 0.950 . S
C869 C865 1.390 1_556 S
C869 C868 1.391 . S
C870 H860 0.950 . S
C870 C871 1.386 . S
C870 C872 1.391 . S
C871 C870 1.386 . S
C871 C875 1.393 . S
C872 H861 0.950 . S
C872 C870 1.391 . S
C872 C873 1.400 . S
C873 C867 1.491 . S
C873 C872 1.400 . S
C873 C874 1.398 . S
C874 H862 0.950 . S
C874 C873 1.398 . S
C874 C875 1.391 . S
C875 H863 0.950 . S
C875 C871 1.393 . S
C875 C874 1.391 . S
H876 C884 0.950 . S
H877 C889 0.950 . S
H878 C886 0.950 . S
H879 C888 0.950 . S
H880 C890 0.950 . S
H881 C892 0.950 . S
H882 C894 0.950 . S
H883 C895 0.950 . S
C884 H876 0.950 . S
C884 C885 1.386 . S
C884 C886 1.391 . S
C885 C884 1.386 . S
C885 C889 1.393 . S
C886 H878 0.950 . S
C886 C884 1.391 . S
C886 C887 1.400 . S
C887 C886 1.400 . S
C887 C888 1.398 . S
C887 C893 1.491 . S
C888 H879 0.950 . S
C888 C887 1.398 . S
C888 C889 1.391 . S
C889 H877 0.950 . S
C889 C885 1.393 . S
C889 C888 1.391 . S
C890 H880 0.950 . S
C890 C891 1.386 . S
C890 C892 1.391 . S
C891 C890 1.386 . S
C891 C895 1.393 . S
C892 H881 0.950 . S
C892 C890 1.391 . S
C892 C893 1.400 . S
C893 C887 1.491 . S
C893 C892 1.400 . S
C893 C894 1.398 . S
C894 H882 0.950 . S
C894 C893 1.398 . S
C894 C895 1.391 . S
C895 H883 0.950 . S
C895 C891 1.393 . S
C895 C894 1.391 . S
H896 C904 0.950 . S
H897 C909 0.950 . S
H898 C906 0.950 . S
H899 C908 0.950 . S
H900 C910 0.950 . S
H901 C912 0.950 . S
H902 C914 0.950 . S
H903 C915 0.950 . S
C904 H896 0.950 . S
C904 C905 1.386 . S
C904 C906 1.391 . S
C905 C904 1.386 . S
C905 C909 1.393 . S
C906 H898 0.950 . S
C906 C904 1.391 . S
C906 C907 1.400 . S
C907 C906 1.400 . S
C907 C908 1.398 . S
C907 C913 1.491 . S
C908 H899 0.950 . S
C908 C907 1.398 . S
C908 C909 1.391 . S
C909 H897 0.950 . S
C909 C905 1.393 . S
C909 C908 1.391 . S
C910 H900 0.950 . S
C910 C911 1.386 1_545 S
C910 C912 1.391 . S
C911 C910 1.386 1_565 S
C911 C915 1.393 . S
C912 H901 0.950 . S
C912 C910 1.391 . S
C912 C913 1.400 . S
C913 C907 1.491 . S
C913 C912 1.400 . S
C913 C914 1.398 1_545 S
C914 H902 0.950 . S
C914 C913 1.398 1_565 S
C914 C915 1.391 . S
C915 H903 0.950 . S
C915 C911 1.393 . S
C915 C914 1.391 . S
H916 C924 0.950 . S
H917 C929 0.950 . S
H918 C926 0.950 . S
H919 C928 0.950 . S
H920 C930 0.950 . S
H921 C932 0.950 . S
H922 C934 0.950 . S
H923 C935 0.950 . S
C924 H916 0.950 . S
C924 C925 1.386 . S
C924 C926 1.391 . S
C925 C924 1.386 . S
C925 C929 1.393 . S
C926 H918 0.950 . S
C926 C924 1.391 . S
C926 C927 1.400 1_455 S
C927 C926 1.400 1_655 S
C927 C928 1.398 . S
C927 C933 1.491 . S
C928 H919 0.950 . S
C928 C927 1.398 . S
C928 C929 1.391 1_655 S
C929 H917 0.950 . S
C929 C925 1.393 . S
C929 C928 1.391 1_455 S
C930 H920 0.950 . S
C930 C931 1.386 . S
C930 C932 1.391 . S
C931 C930 1.386 . S
C931 C935 1.393 . S
C932 H921 0.950 . S
C932 C930 1.391 . S
C932 C933 1.400 . S
C933 C927 1.491 . S
C933 C932 1.400 . S
C933 C934 1.398 . S
C934 H922 0.950 . S
C934 C933 1.398 . S
C934 C935 1.391 . S
C935 H923 0.950 . S
C935 C931 1.393 . S
C935 C934 1.391 . S
H936 C944 0.950 . S
H937 C949 0.950 . S
H938 C946 0.950 . S
H939 C948 0.950 . S
H940 C950 0.950 . S
H941 C952 0.950 . S
H942 C954 0.950 . S
H943 C955 0.950 . S
C944 H936 0.950 . S
C944 C945 1.386 . S
C944 C946 1.391 . S
C945 C944 1.386 . S
C945 C949 1.393 . S
C946 H938 0.950 . S
C946 C944 1.391 . S
C946 C947 1.400 . S
C947 C946 1.400 . S
C947 C948 1.398 . S
C947 C953 1.491 . S
C948 H939 0.950 . S
C948 C947 1.398 . S
C948 C949 1.391 . S
C949 H937 0.950 . S
C949 C945 1.393 . S
C949 C948 1.391 . S
C950 H940 0.950 . S
C950 C951 1.386 . S
C950 C952 1.391 . S
C951 C950 1.386 . S
C951 C955 1.393 . S
C952 H941 0.950 . S
C952 C950 1.391 . S
C952 C953 1.400 . S
C953 C947 1.491 . S
C953 C952 1.400 . S
C953 C954 1.398 . S
C954 H942 0.950 . S
C954 C953 1.398 . S
C954 C955 1.391 . S
C955 H943 0.950 . S
C955 C951 1.393 . S
C955 C954 1.391 . S
H956 C964 0.950 . S
H957 C969 0.950 . S
H958 C966 0.950 . S
H959 C968 0.950 . S
H960 C970 0.950 . S
H961 C972 0.950 . S
H962 C974 0.950 . S
H963 C975 0.950 . S
C964 H956 0.950 . S
C964 C965 1.386 . S
C964 C966 1.391 . S
C965 C964 1.386 . S
C965 C969 1.393 . S
C966 H958 0.950 . S
C966 C964 1.391 . S
C966 C967 1.400 . S
C967 C966 1.400 . S
C967 C968 1.398 . S
C967 C973 1.491 . S
C968 H959 0.950 . S
C968 C967 1.398 . S
C968 C969 1.391 . S
C969 H957 0.950 . S
C969 C965 1.393 . S
C969 C968 1.391 . S
C970 H960 0.950 . S
C970 C971 1.386 . S
C970 C972 1.391 . S
C971 C970 1.386 . S
C971 C975 1.393 . S
C972 H961 0.950 . S
C972 C970 1.391 . S
C972 C973 1.400 . S
C973 C967 1.491 . S
C973 C972 1.400 . S
C973 C974 1.398 . S
C974 H962 0.950 . S
C974 C973 1.398 . S
C974 C975 1.391 . S
C975 H963 0.950 . S
C975 C971 1.393 . S
C975 C974 1.391 . S
H976 C984 0.950 . S
H977 C989 0.950 . S
H978 C986 0.950 . S
H979 C988 0.950 . S
H980 C990 0.950 . S
H981 C992 0.950 . S
H982 C994 0.950 . S
H983 C995 0.950 . S
C984 H976 0.950 . S
C984 C985 1.386 . S
C984 C986 1.391 . S
C985 C984 1.386 . S
C985 C989 1.393 . S
C986 H978 0.950 . S
C986 C984 1.391 . S
C986 C987 1.400 . S
C987 C986 1.400 . S
C987 C988 1.398 . S
C987 C993 1.491 . S
C988 H979 0.950 . S
C988 C987 1.398 . S
C988 C989 1.391 . S
C989 H977 0.950 . S
C989 C985 1.393 . S
C989 C988 1.391 . S
C990 H980 0.950 . S
C990 C991 1.386 . S
C990 C992 1.391 . S
C991 C990 1.386 . S
C991 C995 1.393 . S
C992 H981 0.950 . S
C992 C990 1.391 . S
C992 C993 1.400 . S
C993 C987 1.491 . S
C993 C992 1.400 . S
C993 C994 1.398 . S
C994 H982 0.950 . S
C994 C993 1.398 . S
C994 C995 1.391 . S
C995 H983 0.950 . S
C995 C991 1.393 . S
C995 C994 1.391 . S
H996 C1004 0.950 . S
H997 C1009 0.950 . S
H998 C1006 0.950 . S
H999 C1008 0.950 . S
H1000 C1010 0.950 . S
H1001 C1012 0.950 . S
H1002 C1014 0.950 . S
H1003 C1015 0.950 . S
C1004 H996 0.950 . S
C1004 C1005 1.386 . S
C1004 C1006 1.391 . S
C1005 C1004 1.386 . S
C1005 C1009 1.393 . S
C1006 H998 0.950 . S
C1006 C1004 1.391 . S
C1006 C1007 1.400 . S
C1007 C1006 1.400 . S
C1007 C1008 1.398 . S
C1007 C1013 1.491 . S
C1008 H999 0.950 . S
C1008 C1007 1.398 . S
C1008 C1009 1.391 . S
C1009 H997 0.950 . S
C1009 C1005 1.393 . S
C1009 C1008 1.391 . S
C1010 H1000 0.950 . S
C1010 C1011 1.386 . S
C1010 C1012 1.391 . S
C1011 C1010 1.386 . S
C1011 C1015 1.393 . S
C1012 H1001 0.950 . S
C1012 C1010 1.391 . S
C1012 C1013 1.400 . S
C1013 C1007 1.491 . S
C1013 C1012 1.400 . S
C1013 C1014 1.398 . S
C1014 H1002 0.950 . S
C1014 C1013 1.398 . S
C1014 C1015 1.391 . S
C1015 H1003 0.950 . S
C1015 C1011 1.393 . S
C1015 C1014 1.391 . S
H1016 C1024 0.950 . S
H1017 C1029 0.950 . S
H1018 C1026 0.950 . S
H1019 C1028 0.950 . S
H1020 C1030 0.950 . S
H1021 C1032 0.950 . S
H1022 C1034 0.950 . S
H1023 C1035 0.950 . S
C1024 H1016 0.950 . S
C1024 C1025 1.386 . S
C1024 C1026 1.391 . S
C1025 C1024 1.386 . S
C1025 C1029 1.393 . S
C1026 H1018 0.950 . S
C1026 C1024 1.391 . S
C1026 C1027 1.400 . S
C1027 C1026 1.400 . S
C1027 C1028 1.398 . S
C1027 C1033 1.491 . S
C1028 H1019 0.950 . S
C1028 C1027 1.398 . S
C1028 C1029 1.391 . S
C1029 H1017 0.950 . S
C1029 C1025 1.393 . S
C1029 C1028 1.391 . S
C1030 H1020 0.950 . S
C1030 C1031 1.386 . S
C1030 C1032 1.391 . S
C1031 C1030 1.386 . S
C1031 C1035 1.393 . S
C1032 H1021 0.950 . S
C1032 C1030 1.391 . S
C1032 C1033 1.400 . S
C1033 C1027 1.491 . S
C1033 C1032 1.400 . S
C1033 C1034 1.398 . S
C1034 H1022 0.950 . S
C1034 C1033 1.398 . S
C1034 C1035 1.391 . S
C1035 H1023 0.950 . S
C1035 C1031 1.393 . S
C1035 C1034 1.391 . S
H1036 C1044 0.950 . S
H1037 C1049 0.950 . S
H1038 C1046 0.950 . S
H1039 C1048 0.950 . S
H1040 C1050 0.950 . S
H1041 C1052 0.950 . S
H1042 C1054 0.950 . S
H1043 C1055 0.950 . S
C1044 H1036 0.950 . S
C1044 C1045 1.386 . S
C1044 C1046 1.391 . S
C1045 C1044 1.386 . S
C1045 C1049 1.393 . S
C1046 H1038 0.950 . S
C1046 C1044 1.391 . S
C1046 C1047 1.400 . S
C1047 C1046 1.400 . S
C1047 C1048 1.398 . S
C1047 C1053 1.491 . S
C1048 H1039 0.950 . S
C1048 C1047 1.398 . S
C1048 C1049 1.391 . S
C1049 H1037 0.950 . S
C1049 C1045 1.393 . S
C1049 C1048 1.391 . S
C1050 H1040 0.950 . S
C1050 C1051 1.386 . S
C1050 C1052 1.391 . S
C1051 C1050 1.386 . S
C1051 C1055 1.393 . S
C1052 H1041 0.950 . S
C1052 C1050 1.391 . S
C1052 C1053 1.400 . S
C1053 C1047 1.491 . S
C1053 C1052 1.400 . S
C1053 C1054 1.398 . S
C1054 H1042 0.950 . S
C1054 C1053 1.398 . S
C1054 C1055 1.391 . S
C1055 H1043 0.950 . S
C1055 C1051 1.393 . S
C1055 C1054 1.391 . S
H1056 C1064 0.950 . S
H1057 C1069 0.950 . S
H1058 C1066 0.950 . S
H1059 C1068 0.950 . S
H1060 C1070 0.950 . S
H1061 C1072 0.950 . S
H1062 C1074 0.950 . S
H1063 C1075 0.950 . S
C1064 H1056 0.950 . S
C1064 C1065 1.386 . S
C1064 C1066 1.391 . S
C1065 C1064 1.386 . S
C1065 C1069 1.393 . S
C1066 H1058 0.950 . S
C1066 C1064 1.391 . S
C1066 C1067 1.400 . S
C1067 C1066 1.400 . S
C1067 C1068 1.398 . S
C1067 C1073 1.491 1_565 S
C1068 H1059 0.950 . S
C1068 C1067 1.398 . S
C1068 C1069 1.391 . S
C1069 H1057 0.950 . S
C1069 C1065 1.393 . S
C1069 C1068 1.391 . S
C1070 H1060 0.950 . S
C1070 C1071 1.386 . S
C1070 C1072 1.391 . S
C1071 C1070 1.386 . S
C1071 C1075 1.393 . S
C1072 H1061 0.950 . S
C1072 C1070 1.391 . S
C1072 C1073 1.400 . S
C1073 C1067 1.491 1_545 S
C1073 C1072 1.400 . S
C1073 C1074 1.398 . S
C1074 H1062 0.950 . S
C1074 C1073 1.398 . S
C1074 C1075 1.391 . S
C1075 H1063 0.950 . S
C1075 C1071 1.393 . S
C1075 C1074 1.391 . S
H1076 C1084 0.950 . S
H1077 C1089 0.950 . S
H1078 C1086 0.950 . S
H1079 C1088 0.950 . S
H1080 C1090 0.950 . S
H1081 C1092 0.950 . S
H1082 C1094 0.950 . S
H1083 C1095 0.950 . S
C1084 H1076 0.950 . S
C1084 C1085 1.386 . S
C1084 C1086 1.391 . S
C1085 C1084 1.386 . S
C1085 C1089 1.393 . S
C1086 H1078 0.950 . S
C1086 C1084 1.391 . S
C1086 C1087 1.400 . S
C1087 C1086 1.400 . S
C1087 C1088 1.398 . S
C1087 C1093 1.491 1_655 S
C1088 H1079 0.950 . S
C1088 C1087 1.398 . S
C1088 C1089 1.391 . S
C1089 H1077 0.950 . S
C1089 C1085 1.393 . S
C1089 C1088 1.391 . S
C1090 H1080 0.950 . S
C1090 C1091 1.386 . S
C1090 C1092 1.391 . S
C1091 C1090 1.386 . S
C1091 C1095 1.393 . S
C1092 H1081 0.950 . S
C1092 C1090 1.391 . S
C1092 C1093 1.400 . S
C1093 C1087 1.491 1_455 S
C1093 C1092 1.400 . S
C1093 C1094 1.398 . S
C1094 H1082 0.950 . S
C1094 C1093 1.398 . S
C1094 C1095 1.391 . S
C1095 H1083 0.950 . S
C1095 C1091 1.393 . S
C1095 C1094 1.391 . S
H1096 C1104 0.950 . S
H1097 C1109 0.950 . S
H1098 C1106 0.950 . S
H1099 C1108 0.950 . S
H1100 C1110 0.950 . S
H1101 C1112 0.950 . S
H1102 C1114 0.950 . S
H1103 C1115 0.950 . S
C1104 H1096 0.950 . S
C1104 C1105 1.386 . S
C1104 C1106 1.391 . S
C1105 C1104 1.386 . S
C1105 C1109 1.393 . S
C1106 H1098 0.950 . S
C1106 C1104 1.391 . S
C1106 C1107 1.400 . S
C1107 C1106 1.400 . S
C1107 C1108 1.398 . S
C1107 C1113 1.491 . S
C1108 H1099 0.950 . S
C1108 C1107 1.398 . S
C1108 C1109 1.391 . S
C1109 H1097 0.950 . S
C1109 C1105 1.393 . S
C1109 C1108 1.391 . S
C1110 H1100 0.950 . S
C1110 C1111 1.386 . S
C1110 C1112 1.391 . S
C1111 C1110 1.386 . S
C1111 C1115 1.393 . S
C1112 H1101 0.950 . S
C1112 C1110 1.391 . S
C1112 C1113 1.400 . S
C1113 C1107 1.491 . S
C1113 C1112 1.400 . S
C1113 C1114 1.398 . S
C1114 H1102 0.950 . S
C1114 C1113 1.398 . S
C1114 C1115 1.391 . S
C1115 H1103 0.950 . S
C1115 C1111 1.393 . S
C1115 C1114 1.391 . S
H1116 C1124 0.950 . S
H1117 C1129 0.950 . S
H1118 C1126 0.950 . S
H1119 C1128 0.950 . S
H1120 C1130 0.950 . S
H1121 C1132 0.950 . S
H1122 C1134 0.950 . S
H1123 C1135 0.950 . S
C1124 H1116 0.950 . S
C1124 C1125 1.386 . S
C1124 C1126 1.391 . S
C1125 C1124 1.386 . S
C1125 C1129 1.393 . S
C1126 H1118 0.950 . S
C1126 C1124 1.391 . S
C1126 C1127 1.400 . S
C1127 C1126 1.400 . S
C1127 C1128 1.398 . S
C1127 C1133 1.491 . S
C1128 H1119 0.950 . S
C1128 C1127 1.398 . S
C1128 C1129 1.391 . S
C1129 H1117 0.950 . S
C1129 C1125 1.393 . S
C1129 C1128 1.391 . S
C1130 H1120 0.950 . S
C1130 C1131 1.386 . S
C1130 C1132 1.391 . S
C1131 C1130 1.386 . S
C1131 C1135 1.393 . S
C1132 H1121 0.950 . S
C1132 C1130 1.391 . S
C1132 C1133 1.400 . S
C1133 C1127 1.491 . S
C1133 C1132 1.400 . S
C1133 C1134 1.398 . S
C1134 H1122 0.950 . S
C1134 C1133 1.398 . S
C1134 C1135 1.391 . S
C1135 H1123 0.950 . S
C1135 C1131 1.393 . S
C1135 C1134 1.391 . S
H1136 C1144 0.950 . S
H1137 C1149 0.950 . S
H1138 C1146 0.950 . S
H1139 C1148 0.950 . S
H1140 C1150 0.950 . S
H1141 C1152 0.950 . S
H1142 C1154 0.950 . S
H1143 C1155 0.950 . S
C1144 H1136 0.950 . S
C1144 C1145 1.386 . S
C1144 C1146 1.391 . S
C1145 C1144 1.386 . S
C1145 C1149 1.393 . S
C1146 H1138 0.950 . S
C1146 C1144 1.391 . S
C1146 C1147 1.400 . S
C1147 C1146 1.400 . S
C1147 C1148 1.398 . S
C1147 C1153 1.491 . S
C1148 H1139 0.950 . S
C1148 C1147 1.398 . S
C1148 C1149 1.391 . S
C1149 H1137 0.950 . S
C1149 C1145 1.393 . S
C1149 C1148 1.391 . S
C1150 H1140 0.950 . S
C1150 C1151 1.386 . S
C1150 C1152 1.391 . S
C1151 C1150 1.386 . S
C1151 C1155 1.393 . S
C1152 H1141 0.950 . S
C1152 C1150 1.391 . S
C1152 C1153 1.400 . S
C1153 C1147 1.491 . S
C1153 C1152 1.400 . S
C1153 C1154 1.398 . S
C1154 H1142 0.950 . S
C1154 C1153 1.398 . S
C1154 C1155 1.391 . S
C1155 H1143 0.950 . S
C1155 C1151 1.393 . S
C1155 C1154 1.391 . S
H1156 C1164 0.950 . S
H1157 C1169 0.950 . S
H1158 C1166 0.950 . S
H1159 C1168 0.950 . S
H1160 C1170 0.950 . S
H1161 C1172 0.950 . S
H1162 C1174 0.950 . S
H1163 C1175 0.950 . S
C1164 H1156 0.950 . S
C1164 C1165 1.386 . S
C1164 C1166 1.391 . S
C1165 C1164 1.386 . S
C1165 C1169 1.393 . S
C1166 H1158 0.950 . S
C1166 C1164 1.391 . S
C1166 C1167 1.400 . S
C1167 C1166 1.400 . S
C1167 C1168 1.398 . S
C1167 C1173 1.491 . S
C1168 H1159 0.950 . S
C1168 C1167 1.398 . S
C1168 C1169 1.391 . S
C1169 H1157 0.950 . S
C1169 C1165 1.393 . S
C1169 C1168 1.391 . S
C1170 H1160 0.950 . S
C1170 C1171 1.386 . S
C1170 C1172 1.391 . S
C1171 C1170 1.386 . S
C1171 C1175 1.393 . S
C1172 H1161 0.950 . S
C1172 C1170 1.391 . S
C1172 C1173 1.400 . S
C1173 C1167 1.491 . S
C1173 C1172 1.400 . S
C1173 C1174 1.398 . S
C1174 H1162 0.950 . S
C1174 C1173 1.398 . S
C1174 C1175 1.391 . S
C1175 H1163 0.950 . S
C1175 C1171 1.393 . S
C1175 C1174 1.391 . S
H1176 C1184 0.950 . S
H1177 C1189 0.950 . S
H1178 C1186 0.950 . S
H1179 C1188 0.950 . S
H1180 C1190 0.950 . S
H1181 C1192 0.950 . S
H1182 C1194 0.950 . S
H1183 C1195 0.950 . S
C1184 H1176 0.950 . S
C1184 C1185 1.386 . S
C1184 C1186 1.391 . S
C1185 C1184 1.386 . S
C1185 C1189 1.393 . S
C1186 H1178 0.950 . S
C1186 C1184 1.391 . S
C1186 C1187 1.400 . S
C1187 C1186 1.400 . S
C1187 C1188 1.398 . S
C1187 C1193 1.491 . S
C1188 H1179 0.950 . S
C1188 C1187 1.398 . S
C1188 C1189 1.391 . S
C1189 H1177 0.950 . S
C1189 C1185 1.393 . S
C1189 C1188 1.391 . S
C1190 H1180 0.950 . S
C1190 C1191 1.386 . S
C1190 C1192 1.391 . S
C1191 C1190 1.386 . S
C1191 C1195 1.393 . S
C1192 H1181 0.950 . S
C1192 C1190 1.391 . S
C1192 C1193 1.400 . S
C1193 C1187 1.491 . S
C1193 C1192 1.400 . S
C1193 C1194 1.398 . S
C1194 H1182 0.950 . S
C1194 C1193 1.398 . S
C1194 C1195 1.391 . S
C1195 H1183 0.950 . S
C1195 C1191 1.393 . S
C1195 C1194 1.391 . S
H1196 C1204 0.950 . S
H1197 C1209 0.950 . S
H1198 C1206 0.950 . S
H1199 C1208 0.950 . S
H1200 C1210 0.950 . S
H1201 C1212 0.950 . S
H1202 C1214 0.950 . S
H1203 C1215 0.950 . S
C1204 H1196 0.950 . S
C1204 C1205 1.386 . S
C1204 C1206 1.391 . S
C1205 C1204 1.386 . S
C1205 C1209 1.393 . S
C1206 H1198 0.950 . S
C1206 C1204 1.391 . S
C1206 C1207 1.400 . S
C1207 C1206 1.400 . S
C1207 C1208 1.398 . S
C1207 C1213 1.491 . S
C1208 H1199 0.950 . S
C1208 C1207 1.398 . S
C1208 C1209 1.391 . S
C1209 H1197 0.950 . S
C1209 C1205 1.393 . S
C1209 C1208 1.391 . S
C1210 H1200 0.950 . S
C1210 C1211 1.386 . S
C1210 C1212 1.391 . S
C1211 C1210 1.386 . S
C1211 C1215 1.393 . S
C1212 H1201 0.950 . S
C1212 C1210 1.391 . S
C1212 C1213 1.400 . S
C1213 C1207 1.491 . S
C1213 C1212 1.400 . S
C1213 C1214 1.398 . S
C1214 H1202 0.950 . S
C1214 C1213 1.398 . S
C1214 C1215 1.391 . S
C1215 H1203 0.950 . S
C1215 C1211 1.393 . S
C1215 C1214 1.391 . S
H1216 C1224 0.950 . S
H1217 C1229 0.950 . S
H1218 C1226 0.950 . S
H1219 C1228 0.950 . S
H1220 C1230 0.950 . S
H1221 C1232 0.950 . S
H1222 C1234 0.950 . S
H1223 C1235 0.950 . S
C1224 H1216 0.950 . S
C1224 C1225 1.386 . S
C1224 C1226 1.391 . S
C1225 C1224 1.386 . S
C1225 C1229 1.393 . S
C1226 H1218 0.950 . S
C1226 C1224 1.391 . S
C1226 C1227 1.400 . S
C1227 C1226 1.400 . S
C1227 C1228 1.398 . S
C1227 C1233 1.491 . S
C1228 H1219 0.950 . S
C1228 C1227 1.398 . S
C1228 C1229 1.391 . S
C1229 H1217 0.950 . S
C1229 C1225 1.393 . S
C1229 C1228 1.391 . S
C1230 H1220 0.950 . S
C1230 C1231 1.386 . S
C1230 C1232 1.391 . S
C1231 C1230 1.386 . S
C1231 C1235 1.393 . S
C1232 H1221 0.950 . S
C1232 C1230 1.391 . S
C1232 C1233 1.400 . S
C1233 C1227 1.491 . S
C1233 C1232 1.400 . S
C1233 C1234 1.398 . S
C1234 H1222 0.950 . S
C1234 C1233 1.398 . S
C1234 C1235 1.391 . S
C1235 H1223 0.950 . S
C1235 C1231 1.393 . S
C1235 C1234 1.391 . S
H1236 C1244 0.950 . S
H1237 C1249 0.950 . S
H1238 C1246 0.950 . S
H1239 C1248 0.950 . S
H1240 C1250 0.950 . S
H1241 C1252 0.950 . S
H1242 C1254 0.950 . S
H1243 C1255 0.950 . S
C1244 H1236 0.950 . S
C1244 C1245 1.386 . S
C1244 C1246 1.391 . S
C1245 C1244 1.386 . S
C1245 C1249 1.393 . S
C1246 H1238 0.950 . S
C1246 C1244 1.391 . S
C1246 C1247 1.400 . S
C1247 C1246 1.400 . S
C1247 C1248 1.398 . S
C1247 C1253 1.491 . S
C1248 H1239 0.950 . S
C1248 C1247 1.398 . S
C1248 C1249 1.391 . S
C1249 H1237 0.950 . S
C1249 C1245 1.393 . S
C1249 C1248 1.391 . S
C1250 H1240 0.950 . S
C1250 C1251 1.386 . S
C1250 C1252 1.391 . S
C1251 C1250 1.386 . S
C1251 C1255 1.393 . S
C1252 H1241 0.950 . S
C1252 C1250 1.391 . S
C1252 C1253 1.400 . S
C1253 C1247 1.491 . S
C1253 C1252 1.400 . S
C1253 C1254 1.398 . S
C1254 H1242 0.950 . S
C1254 C1253 1.398 . S
C1254 C1255 1.391 . S
C1255 H1243 0.950 . S
C1255 C1251 1.393 . S
C1255 C1254 1.391 . S
H1256 C1264 0.950 . S
H1257 C1269 0.950 . S
H1258 C1266 0.950 . S
H1259 C1268 0.950 1_545 S
H1260 C1270 0.950 . S
H1261 C1272 0.950 . S
H1262 C1274 0.950 1_565 S
H1263 C1275 0.950 . S
C1264 H1256 0.950 . S
C1264 C1265 1.386 . S
C1264 C1266 1.391 . S
C1265 C1264 1.386 . S
C1265 C1269 1.393 . S
C1266 H1258 0.950 . S
C1266 C1264 1.391 . S
C1266 C1267 1.400 . S
C1267 C1266 1.400 . S
C1267 C1268 1.398 . S
C1267 C1273 1.491 1_565 S
C1268 H1259 0.950 1_565 S
C1268 C1267 1.398 . S
C1268 C1269 1.391 . S
C1269 H1257 0.950 . S
C1269 C1265 1.393 . S
C1269 C1268 1.391 . S
C1270 H1260 0.950 . S
C1270 C1271 1.386 . S
C1270 C1272 1.391 . S
C1271 C1270 1.386 . S
C1271 C1275 1.393 . S
C1272 H1261 0.950 . S
C1272 C1270 1.391 . S
C1272 C1273 1.400 . S
C1273 C1267 1.491 1_545 S
C1273 C1272 1.400 . S
C1273 C1274 1.398 . S
C1274 H1262 0.950 1_545 S
C1274 C1273 1.398 . S
C1274 C1275 1.391 . S
C1275 H1263 0.950 . S
C1275 C1271 1.393 . S
C1275 C1274 1.391 . S
H1276 C1284 0.950 . S
H1277 C1289 0.950 . S
H1278 C1286 0.950 . S
H1279 C1288 0.950 1_455 S
H1280 C1290 0.950 . S
H1281 C1292 0.950 . S
H1282 C1294 0.950 . S
H1283 C1295 0.950 . S
C1284 H1276 0.950 . S
C1284 C1285 1.386 . S
C1284 C1286 1.391 . S
C1285 C1284 1.386 . S
C1285 C1289 1.393 . S
C1286 H1278 0.950 . S
C1286 C1284 1.391 . S
C1286 C1287 1.400 . S
C1287 C1286 1.400 . S
C1287 C1288 1.398 . S
C1287 C1293 1.491 1_655 S
C1288 H1279 0.950 1_655 S
C1288 C1287 1.398 . S
C1288 C1289 1.391 . S
C1289 H1277 0.950 . S
C1289 C1285 1.393 . S
C1289 C1288 1.391 . S
C1290 H1280 0.950 . S
C1290 C1291 1.386 . S
C1290 C1292 1.391 . S
C1291 C1290 1.386 . S
C1291 C1295 1.393 . S
C1292 H1281 0.950 . S
C1292 C1290 1.391 . S
C1292 C1293 1.400 . S
C1293 C1287 1.491 1_455 S
C1293 C1292 1.400 . S
C1293 C1294 1.398 . S
C1294 H1282 0.950 . S
C1294 C1293 1.398 . S
C1294 C1295 1.391 . S
C1295 H1283 0.950 . S
C1295 C1291 1.393 . S
C1295 C1294 1.391 . S
C765 C142 1.184 . S
C771 C56 1.328 1_554 S
C785 C226 1.198 . S
C791 C140 1.360 1_554 S
C805 C224 1.360 1_554 S
C811 C58 1.171 . S
C825 C238 1.151 . S
C831 C151 1.325 . S
C845 C235 1.331 . S
C851 C70 1.199 . S
C865 C67 1.337 . S
C871 C154 1.150 . S
C885 C308 1.339 . S
C891 C394 1.145 . S
C905 C478 1.152 . S
C911 C392 1.349 . S
C925 C476 1.351 . S
C931 C310 1.154 . S
C945 C403 1.324 . S
C951 C490 1.153 . S
C965 C487 1.331 . S
C971 C322 1.200 . S
C985 C406 1.175 . S
C991 C319 1.319 . S
C1005 C646 1.200 . S
C1011 C560 1.359 . S
C1025 C644 1.358 . S
C1031 C730 1.201 . S
C1045 C728 1.351 . S
C1051 C562 1.154 . S
C1065 C742 1.170 . S
C1071 C655 1.320 . S
C1085 C739 1.325 . S
C1091 C574 1.202 . S
C1105 C571 1.323 . S
C1111 C658 1.156 . S
C1125 C494 2.565 . S
C1131 C63 2.631 . S
C1145 C326 2.567 . S
C1151 C147 2.630 . S
C1165 C231 2.641 . S
C1171 C410 2.558 . S
C1185 C242 2.576 . S
C1191 C567 2.636 . S
C1205 C74 2.571 . S
C1211 C651 2.641 . S
C1225 C735 2.642 . S
C1231 C158 2.558 . S
C1245 C315 2.644 . S
C1251 C746 2.564 . S
C1265 C399 2.628 . S
C1271 C578 2.577 . S
C1285 C662 2.560 . S
C1291 C483 2.635 . S
