# Generated by pormake.
# Topology ume, (4)-cn, num edge types: 1
# Building blocks:
#     Node 0, Type 0, BuildingBlock: MUDLON_clean_sbu_0, # of connection points: 4
#     Node 1, Type 0, BuildingBlock: MUDLON_clean_sbu_0, # of connection points: 4
#     Node 2, Type 0, BuildingBlock: MUDLON_clean_sbu_0, # of connection points: 4
#     Node 3, Type 0, BuildingBlock: MUDLON_clean_sbu_0, # of connection points: 4
#     Node 4, Type 0, BuildingBlock: MUDLON_clean_sbu_0, # of connection points: 4
#     Node 5, Type 0, BuildingBlock: MUDLON_clean_sbu_0, # of connection points: 4
#     Node 6, Type 0, BuildingBlock: MUDLON_clean_sbu_0, # of connection points: 4
#     Node 7, Type 0, BuildingBlock: MUDLON_clean_sbu_0, # of connection points: 4
#     Node 8, Type 0, BuildingBlock: MUDLON_clean_sbu_0, # of connection points: 4
#     Node 9, Type 0, BuildingBlock: MUDLON_clean_sbu_0, # of connection points: 4
#     Node 10, Type 0, BuildingBlock: MUDLON_clean_sbu_0, # of connection points: 4
#     Node 11, Type 0, BuildingBlock: MUDLON_clean_sbu_0, # of connection points: 4
#     Node 12, Type 0, BuildingBlock: MUDLON_clean_sbu_0, # of connection points: 4
#     Node 13, Type 0, BuildingBlock: MUDLON_clean_sbu_0, # of connection points: 4
#     Node 14, Type 0, BuildingBlock: MUDLON_clean_sbu_0, # of connection points: 4
#     Node 15, Type 0, BuildingBlock: MUDLON_clean_sbu_0, # of connection points: 4
#     Edge 16, Type (0, 0), BuildingBlock: CIFDUS_clean_linker_0, # of connection points: 2
#     Edge 17, Type (0, 0), BuildingBlock: CIFDUS_clean_linker_0, # of connection points: 2
#     Edge 18, Type (0, 0), BuildingBlock: CIFDUS_clean_linker_0, # of connection points: 2
#     Edge 19, Type (0, 0), BuildingBlock: CIFDUS_clean_linker_0, # of connection points: 2
#     Edge 20, Type (0, 0), BuildingBlock: CIFDUS_clean_linker_0, # of connection points: 2
#     Edge 21, Type (0, 0), BuildingBlock: CIFDUS_clean_linker_0, # of connection points: 2
#     Edge 22, Type (0, 0), BuildingBlock: CIFDUS_clean_linker_0, # of connection points: 2
#     Edge 23, Type (0, 0), BuildingBlock: CIFDUS_clean_linker_0, # of connection points: 2
#     Edge 24, Type (0, 0), BuildingBlock: CIFDUS_clean_linker_0, # of connection points: 2
#     Edge 25, Type (0, 0), BuildingBlock: CIFDUS_clean_linker_0, # of connection points: 2
#     Edge 26, Type (0, 0), BuildingBlock: CIFDUS_clean_linker_0, # of connection points: 2
#     Edge 27, Type (0, 0), BuildingBlock: CIFDUS_clean_linker_0, # of connection points: 2
#     Edge 28, Type (0, 0), BuildingBlock: CIFDUS_clean_linker_0, # of connection points: 2
#     Edge 29, Type (0, 0), BuildingBlock: CIFDUS_clean_linker_0, # of connection points: 2
#     Edge 30, Type (0, 0), BuildingBlock: CIFDUS_clean_linker_0, # of connection points: 2
#     Edge 31, Type (0, 0), BuildingBlock: CIFDUS_clean_linker_0, # of connection points: 2
#     Edge 32, Type (0, 0), BuildingBlock: CIFDUS_clean_linker_0, # of connection points: 2
#     Edge 33, Type (0, 0), BuildingBlock: CIFDUS_clean_linker_0, # of connection points: 2
#     Edge 34, Type (0, 0), BuildingBlock: CIFDUS_clean_linker_0, # of connection points: 2
#     Edge 35, Type (0, 0), BuildingBlock: CIFDUS_clean_linker_0, # of connection points: 2
#     Edge 36, Type (0, 0), BuildingBlock: CIFDUS_clean_linker_0, # of connection points: 2
#     Edge 37, Type (0, 0), BuildingBlock: CIFDUS_clean_linker_0, # of connection points: 2
#     Edge 38, Type (0, 0), BuildingBlock: CIFDUS_clean_linker_0, # of connection points: 2
#     Edge 39, Type (0, 0), BuildingBlock: CIFDUS_clean_linker_0, # of connection points: 2
#     Edge 40, Type (0, 0), BuildingBlock: CIFDUS_clean_linker_0, # of connection points: 2
#     Edge 41, Type (0, 0), BuildingBlock: CIFDUS_clean_linker_0, # of connection points: 2
#     Edge 42, Type (0, 0), BuildingBlock: CIFDUS_clean_linker_0, # of connection points: 2
#     Edge 43, Type (0, 0), BuildingBlock: CIFDUS_clean_linker_0, # of connection points: 2
#     Edge 44, Type (0, 0), BuildingBlock: CIFDUS_clean_linker_0, # of connection points: 2
#     Edge 45, Type (0, 0), BuildingBlock: CIFDUS_clean_linker_0, # of connection points: 2
#     Edge 46, Type (0, 0), BuildingBlock: CIFDUS_clean_linker_0, # of connection points: 2
#     Edge 47, Type (0, 0), BuildingBlock: CIFDUS_clean_linker_0, # of connection points: 2
# Relax obj value: 0.086
# Max RMSD: 0.263
# Mean RMSD: 0.263
data_MOF--net-ume--node1-MUDLON_clean_sbu_0--edge1-CIFDUS_clean_linker_0
_symmetry_space_group_name_H-M    P1
_symmetry_Int_Tables_number       1
_symmetry_cell_setting            triclinic
loop_
_symmetry_equiv_pos_as_xyz
'x, y, z'
_cell_length_a     25.828588
_cell_length_b     25.538272
_cell_length_c     102.71848
_cell_angle_alpha  90.313734
_cell_angle_beta   90.331647
_cell_angle_gamma 89.984239
loop_
_atom_site_label
_atom_site_type_symbol
_atom_site_fract_x
_atom_site_fract_y
_atom_site_fract_z
_atom_type_partial_charge
Mg0 Mg 0.27309 0.11942 0.33548 0.0
C1 C 0.35483 0.03439 0.33983 0.0
O2 O 0.32101 0.01776 0.34837 0.0
C3 C 0.15942 0.0915 0.33192 0.0
O4 O 0.15719 0.14176 0.3293 0.0
C5 C 0.26101 0.15809 0.30818 0.0
O6 O 0.24283 0.11022 0.30704 0.0
O7 O 0.27433 0.1747 0.31941 0.0
O8 O 0.34365 0.07386 0.33288 0.0
O9 O 0.28247 0.15505 0.35473 0.0
C10 C 0.24668 0.15803 0.36317 0.0
O11 O 0.19963 0.14313 0.35995 0.0
O12 O 0.20311 0.07123 0.33475 0.0
Mg13 Mg 0.90564 0.77064 0.58144 0.0
C14 C 0.86432 0.74691 0.60859 0.0
O15 O 0.87382 0.6983 0.60512 0.0
C16 C 0.86002 0.76069 0.55464 0.0
O17 O 0.90528 0.73847 0.55278 0.0
C18 C 0.91736 0.65365 0.57849 0.0
O19 O 0.8675 0.65857 0.5762 0.0
O20 O 0.94399 0.69461 0.58083 0.0
O21 O 0.87173 0.7834 0.60046 0.0
O22 O 0.95867 0.83613 0.57913 0.0
C23 C 0.9394 0.88117 0.58136 0.0
O24 O 0.89029 0.88436 0.58455 0.0
O25 O 0.84847 0.77663 0.56601 0.0
Mg26 Mg 0.26675 0.4041 0.83345 0.0
C27 C 0.15536 0.43528 0.83057 0.0
O28 O 0.15182 0.38509 0.82782 0.0
C29 C 0.37844 0.437 0.82954 0.0
O30 O 0.38219 0.38813 0.82558 0.0
C31 C 0.27794 0.38417 0.80526 0.0
O32 O 0.29462 0.43241 0.80682 0.0
O33 O 0.26358 0.35892 0.81528 0.0
O34 O 0.19949 0.45455 0.8333 0.0
O35 O 0.26511 0.36249 0.85205 0.0
C36 C 0.30692 0.34994 0.85786 0.0
O37 O 0.35102 0.35624 0.85177 0.0
O38 O 0.33481 0.45416 0.83333 0.0
Mg39 Mg 0.59852 0.76296 0.08402 0.0
C40 C 0.63401 0.73719 0.11174 0.0
O41 O 0.62106 0.68937 0.10827 0.0
C42 C 0.65366 0.76488 0.05834 0.0
O43 O 0.61563 0.79754 0.05583 0.0
C44 C 0.58724 0.8779 0.08018 0.0
O45 O 0.63657 0.87343 0.08319 0.0
O46 O 0.55987 0.83653 0.07942 0.0
O47 O 0.63034 0.77385 0.10347 0.0
O48 O 0.54621 0.69576 0.08368 0.0
C49 C 0.56607 0.65053 0.08204 0.0
O50 O 0.61649 0.64666 0.08071 0.0
O51 O 0.65789 0.74619 0.06974 0.0
Mg52 Mg 0.24252 0.39577 0.96098 0.0
C53 C 0.35324 0.42836 0.96529 0.0
O54 O 0.35548 0.38031 0.96976 0.0
C55 C 0.1301 0.42599 0.96314 0.0
O56 O 0.12495 0.37562 0.9608 0.0
C57 C 0.23282 0.35855 0.98845 0.0
O58 O 0.20546 0.40189 0.98877 0.0
O59 O 0.25153 0.34342 0.97761 0.0
O60 O 0.31038 0.44563 0.96093 0.0
O61 O 0.2354 0.3602 0.94164 0.0
C62 C 0.27523 0.34981 0.93485 0.0
O63 O 0.32125 0.35523 0.9402 0.0
O64 O 0.17531 0.44543 0.96382 0.0
Mg65 Mg 0.59941 0.74874 0.21623 0.0
C66 C 0.64038 0.7648 0.18878 0.0
O67 O 0.63779 0.81432 0.19223 0.0
C68 C 0.65666 0.74981 0.24199 0.0
O69 O 0.61916 0.71731 0.24495 0.0
C70 C 0.5719 0.63646 0.22116 0.0
O71 O 0.62045 0.63091 0.21765 0.0
O72 O 0.55299 0.68229 0.22198 0.0
O73 O 0.62916 0.72984 0.19705 0.0
O74 O 0.54869 0.81618 0.21474 0.0
C75 C 0.56712 0.86221 0.21567 0.0
O76 O 0.61714 0.86823 0.21754 0.0
O77 O 0.65932 0.76719 0.23044 0.0
Mg78 Mg 0.25088 0.12425 0.46713 0.0
C79 C 0.14104 0.09254 0.46998 0.0
O80 O 0.13725 0.14379 0.47068 0.0
C81 C 0.36392 0.0937 0.46905 0.0
O82 O 0.36741 0.14124 0.47393 0.0
C83 C 0.26994 0.14243 0.49511 0.0
O84 O 0.28631 0.09435 0.49312 0.0
O85 O 0.25292 0.16833 0.48542 0.0
O86 O 0.18551 0.07204 0.46862 0.0
O87 O 0.23787 0.16597 0.44889 0.0
C88 C 0.27311 0.16805 0.44029 0.0
O89 O 0.31987 0.15173 0.4433 0.0
O90 O 0.31996 0.07664 0.46538 0.0
Mg91 Mg 0.90329 0.74819 0.71303 0.0
C92 C 0.86393 0.77201 0.68555 0.0
O93 O 0.87283 0.82068 0.68909 0.0
C94 C 0.8548 0.75769 0.73928 0.0
O95 O 0.89758 0.78458 0.74118 0.0
C96 C 0.91336 0.86554 0.71634 0.0
O97 O 0.863 0.86051 0.71757 0.0
O98 O 0.94062 0.82469 0.71443 0.0
O99 O 0.8712 0.73554 0.69372 0.0
O100 O 0.95695 0.68348 0.71584 0.0
C101 C 0.93768 0.63805 0.71413 0.0
O102 O 0.88843 0.63418 0.71099 0.0
O103 O 0.8453 0.7394 0.72799 0.0
Mg104 Mg 0.76809 0.60587 0.8333 0.0
C105 C 0.87828 0.57415 0.83167 0.0
O106 O 0.88231 0.62421 0.83453 0.0
C107 C 0.65304 0.58092 0.83051 0.0
O108 O 0.64889 0.6322 0.83056 0.0
C109 C 0.75482 0.65531 0.80717 0.0
O110 O 0.72923 0.6114 0.80533 0.0
O111 O 0.7734 0.66517 0.8184 0.0
O112 O 0.83344 0.55431 0.83034 0.0
O113 O 0.77866 0.63725 0.8528 0.0
C114 C 0.74225 0.6411 0.86101 0.0
O115 O 0.69486 0.62902 0.85741 0.0
O116 O 0.69761 0.56017 0.8315 0.0
Mg117 Mg 0.40163 0.25377 0.0789 0.0
C118 C 0.3625 0.27683 0.10649 0.0
O119 O 0.3837 0.32264 0.1043 0.0
C120 C 0.30909 0.28499 0.0614 0.0
O121 O 0.28938 0.30248 0.07236 0.0
C122 C 0.41877 0.14007 0.07481 0.0
O123 O 0.3681 0.14419 0.07421 0.0
O124 O 0.44545 0.18152 0.07645 0.0
O125 O 0.3613 0.24293 0.09736 0.0
O126 O 0.45188 0.32259 0.08001 0.0
C127 C 0.43193 0.368 0.07893 0.0
O128 O 0.38164 0.37203 0.07724 0.0
O129 O 0.35289 0.26231 0.06162 0.0
Mg130 Mg 0.76479 0.93238 0.33199 0.0
C131 C 0.65192 0.94863 0.33378 0.0
O132 O 0.65885 0.9013 0.33844 0.0
C133 C 0.87735 0.96066 0.33129 0.0
O134 O 0.87932 0.91214 0.33546 0.0
C135 C 0.77241 0.87732 0.3064 0.0
O136 O 0.79244 0.92312 0.30355 0.0
O137 O 0.75994 0.86825 0.31813 0.0
O138 O 0.69136 0.97403 0.32993 0.0
O139 O 0.76732 0.907 0.35212 0.0
C140 C 0.75545 0.94348 0.36002 0.0
O141 O 0.74463 0.98995 0.35529 0.0
O142 O 0.8333 0.98056 0.32868 0.0
Mg143 Mg 0.1037 0.27764 0.58542 0.0
C144 C 0.14821 0.24872 0.6122 0.0
O145 O 0.12987 0.20234 0.60907 0.0
C146 C 0.18907 0.24959 0.56502 0.0
O147 O 0.21261 0.22482 0.57454 0.0
C148 C 0.08578 0.39166 0.58512 0.0
O149 O 0.136 0.38762 0.587 0.0
O150 O 0.05923 0.34986 0.58405 0.0
O151 O 0.14633 0.2852 0.6038 0.0
O152 O 0.05382 0.20855 0.58589 0.0
C153 C 0.07266 0.16414 0.58278 0.0
O154 O 0.12159 0.16129 0.57946 0.0
O155 O 0.14742 0.27438 0.56733 0.0
Mg156 Mg 0.75246 0.92688 0.46433 0.0
C157 C 0.86307 0.95654 0.46744 0.0
O158 O 0.86688 0.90562 0.46581 0.0
C159 C 0.63948 0.95282 0.46573 0.0
O160 O 0.63746 0.90962 0.45874 0.0
C161 C 0.74367 0.86074 0.4879 0.0
O162 O 0.71077 0.89854 0.49051 0.0
O163 O 0.76491 0.85963 0.47677 0.0
O164 O 0.81844 0.97744 0.4674 0.0
O165 O 0.74833 0.91308 0.44348 0.0
C166 C 0.73652 0.95501 0.43753 0.0
O167 O 0.7283 0.99757 0.44447 0.0
O168 O 0.68317 0.96909 0.4698 0.0
Mg169 Mg 0.10205 0.24149 0.71578 0.0
C170 C 0.14818 0.26993 0.68928 0.0
O171 O 0.13014 0.31649 0.6923 0.0
C172 C 0.18673 0.27153 0.73631 0.0
O173 O 0.21014 0.29474 0.7266 0.0
C174 C 0.08429 0.12728 0.71597 0.0
O175 O 0.13478 0.13129 0.71483 0.0
O176 O 0.05764 0.1691 0.71676 0.0
O177 O 0.14573 0.23353 0.69768 0.0
O178 O 0.05188 0.31024 0.71458 0.0
C179 C 0.07038 0.35511 0.71745 0.0
O180 O 0.11907 0.35857 0.7211 0.0
O181 O 0.14498 0.2465 0.73414 0.0
Mg182 Mg 0.74109 0.59737 0.96531 0.0
C183 C 0.63064 0.56646 0.96606 0.0
O184 O 0.62763 0.61513 0.96203 0.0
C185 C 0.85559 0.56941 0.96775 0.0
O186 O 0.86016 0.61992 0.96998 0.0
C187 C 0.75392 0.64482 0.99187 0.0
O188 O 0.77341 0.59804 0.99395 0.0
O189 O 0.73948 0.65673 0.98042 0.0
O190 O 0.67497 0.5472 0.96852 0.0
O191 O 0.72851 0.62971 0.9461 0.0
C192 C 0.76467 0.63851 0.93807 0.0
O193 O 0.81293 0.63122 0.94174 0.0
O194 O 0.81089 0.55018 0.96569 0.0
Mg195 Mg 0.39171 0.25214 0.2112 0.0
C196 C 0.35368 0.23573 0.1831 0.0
O197 O 0.36392 0.18647 0.18567 0.0
C198 C 0.34865 0.25547 0.23834 0.0
O199 O 0.39077 0.28367 0.2399 0.0
C200 C 0.42376 0.36307 0.21781 0.0
O201 O 0.37334 0.36987 0.21741 0.0
O202 O 0.44209 0.31753 0.21588 0.0
O203 O 0.35856 0.26977 0.19212 0.0
O204 O 0.44054 0.18329 0.20996 0.0
C205 C 0.42167 0.13788 0.21164 0.0
O206 O 0.37175 0.13306 0.21372 0.0
O207 O 0.33716 0.23863 0.227 0.0
H208 H 0.97608 0.92839 0.33606 0.0
H209 H 0.8875 0.06331 0.32407 0.0
H210 H 0.96685 0.11522 0.32301 0.0
H211 H 0.0612 0.12286 0.32593 0.0
H212 H 0.1495 0.98776 0.33796 0.0
H213 H 0.07041 0.93549 0.33854 0.0
C214 C 0.97402 0.96912 0.33318 0.0
C215 C 0.9257 0.99186 0.33018 0.0
C216 C 0.01981 0.9988 0.33262 0.0
C217 C 0.92403 0.04471 0.32644 0.0
C218 C 0.96944 0.07449 0.32584 0.0
C219 C 0.06325 0.08195 0.32865 0.0
C220 C 0.1114 0.05942 0.33193 0.0
C221 C 0.01752 0.05203 0.32898 0.0
C222 C 0.11312 1.00625 0.3354 0.0
C223 C 0.06784 0.97628 0.33574 0.0
H224 H 0.01832 0.62939 0.58346 0.0
H225 H 0.87025 0.55901 0.57459 0.0
H226 H 0.90882 0.47194 0.57588 0.0
H227 H 0.98461 0.41537 0.57973 0.0
H228 H 0.13254 0.48636 0.5885 0.0
H229 H 0.09396 0.57318 0.58706 0.0
C230 C 0.99446 0.59505 0.58177 0.0
C231 C 0.94143 0.60091 0.57894 0.0
C232 C 0.01685 0.54498 0.58255 0.0
C233 C 0.91119 0.55583 0.57679 0.0
C234 C 0.93319 0.50589 0.57754 0.0
C235 C 0.00839 0.44982 0.58134 0.0
C236 C 0.06141 0.44416 0.58424 0.0
C237 C 0.98597 0.49994 0.58046 0.0
C238 C 0.09163 0.48936 0.58625 0.0
C239 C 0.06962 0.53918 0.58543 0.0
H240 H 0.5523 0.61058 0.83297 0.0
H241 H 0.64919 0.47566 0.826 0.0
H242 H 0.57282 0.41965 0.82478 0.0
H243 H 0.47873 0.40857 0.82601 0.0
H244 H 0.38172 0.54278 0.83366 0.0
H245 H 0.45792 0.59938 0.83429 0.0
C246 C 0.5567 0.56896 0.83114 0.0
C247 C 0.60641 0.54741 0.82957 0.0
C248 C 0.5126 0.53678 0.8306 0.0
C249 C 0.61141 0.4933 0.82728 0.0
C250 C 0.56774 0.4612 0.82657 0.0
C251 C 0.47419 0.45023 0.82778 0.0
C252 C 0.42457 0.47137 0.82977 0.0
C253 C 0.51818 0.48246 0.82826 0.0
C254 C 0.41947 0.52542 0.83212 0.0
C255 C 0.46303 0.55786 0.83247 0.0
H256 H 0.52146 0.11613 0.07744 0.0
H257 H 0.37131 0.04559 0.07137 0.0
H258 H 0.41009 0.95863 0.07199 0.0
H259 H 0.48609 0.90207 0.07513 0.0
H260 H 0.63617 0.97249 0.08137 0.0
H261 H 0.59801 0.05956 0.07975 0.0
C262 C 0.49726 0.08177 0.07617 0.0
C263 C 0.44349 0.08758 0.07442 0.0
C264 C 0.51977 0.03161 0.07661 0.0
C265 C 0.41278 0.04248 0.07278 0.0
C266 C 0.43491 0.99257 0.07314 0.0
C267 C 0.51052 0.93643 0.07606 0.0
C268 C 0.56391 0.93055 0.07843 0.0
C269 C 0.48828 0.9866 0.07519 0.0
C270 C 0.59493 0.97566 0.07959 0.0
C271 C 0.57314 0.02561 0.07867 0.0
H272 H 0.02897 0.39681 0.96181 0.0
H273 H 0.1274 0.53123 0.9682 0.0
H274 H 0.0513 0.58718 0.97048 0.0
H275 H 0.95676 0.59831 0.97027 0.0
H276 H 0.85866 0.46371 0.96371 0.0
H277 H 0.93471 0.40763 0.96193 0.0
C278 C 0.03386 0.43832 0.96372 0.0
C279 C 0.08388 0.45972 0.96479 0.0
C280 C 0.98995 0.47034 0.965 0.0
C281 C 0.08938 0.51365 0.9673 0.0
C282 C 0.04585 0.54573 0.96861 0.0
C283 C 0.95197 0.55669 0.9685 0.0
C284 C 0.90199 0.53538 0.96711 0.0
C285 C 0.99594 0.52455 0.96742 0.0
C286 C 0.89661 0.48129 0.96481 0.0
C287 C 0.94011 0.44911 0.96378 0.0
H288 H 0.39748 0.46412 0.22314 0.0
H289 H 0.52939 0.36359 0.21665 0.0
H290 H 0.58716 0.43897 0.218 0.0
H291 H 0.59979 0.53395 0.21964 0.0
H292 H 0.46793 0.63465 0.226 0.0
H293 H 0.41079 0.55859 0.22621 0.0
C294 C 0.43889 0.45861 0.2221 0.0
C295 C 0.45894 0.4083 0.21967 0.0
C296 C 0.47197 0.50218 0.22284 0.0
C297 C 0.51279 0.40188 0.21847 0.0
C298 C 0.54593 0.445 0.21922 0.0
C299 C 0.55863 0.53929 0.22119 0.0
C300 C 0.5382 0.59001 0.22268 0.0
C301 C 0.52587 0.49542 0.22119 0.0
C302 C 0.48475 0.59609 0.22477 0.0
C303 C 0.45196 0.55261 0.22485 0.0
H304 H 0.46124 0.11459 0.47788 0.0
H305 H 0.37115 0.99777 0.45734 0.0
H306 H 0.4481 0.9433 0.45485 0.0
H307 H 0.54121 0.9296 0.45808 0.0
H308 H 0.63138 0.04624 0.47866 0.0
H309 H 0.55402 0.09979 0.48161 0.0
C310 C 0.4584 0.07721 0.47286 0.0
C311 C 0.41052 0.06044 0.46776 0.0
C312 C 0.50279 0.04597 0.47148 0.0
C313 C 0.40751 0.01171 0.46135 0.0
C314 C 0.45151 0.9805 0.45992 0.0
C315 C 0.54396 0.96662 0.46326 0.0
C316 C 0.59208 0.9839 0.4681 0.0
C317 C 0.49938 0.99734 0.46489 0.0
C318 C 0.59485 0.03196 0.47482 0.0
C319 C 0.55064 0.0627 0.4765 0.0
H320 H 0.98146 0.10359 0.71847 0.0
H321 H 0.13192 0.03254 0.71368 0.0
H322 H 0.09271 0.94585 0.71349 0.0
H323 H 0.01583 0.88974 0.71446 0.0
H324 H 0.86516 0.96011 0.71931 0.0
H325 H 0.90433 0.04708 0.71973 0.0
C326 C 0.00567 0.06915 0.71741 0.0
C327 C 0.05959 0.07479 0.71608 0.0
C328 C 0.98285 0.01907 0.71731 0.0
C329 C 0.09032 0.02959 0.71472 0.0
C330 C 0.06794 0.97983 0.7146 0.0
C331 C 0.99151 0.92405 0.71562 0.0
C332 C 0.93759 0.91822 0.71683 0.0
C333 C 0.01426 0.97406 0.71586 0.0
C334 C 0.90678 0.96327 0.71836 0.0
C335 C 0.92914 0.01314 0.71859 0.0
H336 H 0.56416 0.90772 0.34395 0.0
H337 H 0.62069 0.04089 0.3226 0.0
H338 H 0.53328 0.07795 0.32205 0.0
H339 H 0.44106 0.07326 0.32805 0.0
H340 H 0.386 0.94113 0.35005 0.0
H341 H 0.47259 0.90283 0.34984 0.0
C342 C 0.55748 0.94482 0.33913 0.0
C343 C 0.59905 0.97145 0.33332 0.0
C344 C 0.5073 0.96605 0.33895 0.0
C345 C 0.58951 0.01958 0.32718 0.0
C346 C 0.53948 0.04076 0.32684 0.0
C347 C 0.44789 0.03587 0.33271 0.0
C348 C 0.40693 1.01006 0.33903 0.0
C349 C 0.4981 0.01441 0.33274 0.0
C350 C 0.4167 0.9619 0.34513 0.0
C351 C 0.46627 0.93996 0.34502 0.0
H352 H 0.90913 0.98094 0.58663 0.0
H353 H 0.04169 0.88985 0.57474 0.0
H354 H 0.09427 0.96938 0.57407 0.0
H355 H 0.10273 0.06455 0.57702 0.0
H356 H 0.97015 0.15537 0.58905 0.0
H357 H 0.91747 0.07598 0.5895 0.0
C358 C 0.94951 0.97836 0.58387 0.0
C359 C 0.97138 0.92936 0.58074 0.0
C360 C 0.97953 0.0242 0.58354 0.0
C361 C 0.02381 0.92695 0.5772 0.0
C362 C 0.05392 0.97245 0.57681 0.0
C363 C 0.06229 0.0671 0.57974 0.0
C364 C 0.04049 0.116 0.58301 0.0
C365 C 0.03221 0.02125 0.58 0.0
C366 C 0.988 0.11836 0.5865 0.0
C367 C 0.95782 0.07294 0.58676 0.0
H368 H 0.05567 0.40549 0.82607 0.0
H369 H 0.14974 0.54027 0.8356 0.0
H370 H 0.07246 0.59507 0.83648 0.0
H371 H 0.97825 0.60453 0.83497 0.0
H372 H 0.88384 0.46981 0.82565 0.0
H373 H 0.96132 0.41527 0.82423 0.0
C374 C 0.05934 0.44687 0.82831 0.0
C375 C 0.10848 0.46864 0.83079 0.0
C376 C 0.0147 0.4782 0.82885 0.0
C377 C 0.11243 0.52239 0.83367 0.0
C378 C 0.06824 0.55382 0.83418 0.0
C379 C 0.97454 0.56327 0.83259 0.0
C380 C 0.92526 0.54132 0.83045 0.0
C381 C 0.01918 0.53209 0.83185 0.0
C382 C 0.92127 0.48775 0.82737 0.0
C383 C 0.96557 0.4565 0.82656 0.0
H384 H 0.59849 0.54922 0.08144 0.0
H385 H 0.46018 0.64415 0.08186 0.0
H386 H 0.40676 0.56519 0.08093 0.0
H387 H 0.39932 0.46932 0.07983 0.0
H388 H 0.5377 0.37445 0.07979 0.0
H389 H 0.59105 0.4534 0.08076 0.0
C390 C 0.55665 0.55276 0.08133 0.0
C391 C 0.53344 0.60269 0.08168 0.0
C392 C 0.52616 0.50718 0.08086 0.0
C393 C 0.47913 0.60632 0.0816 0.0
C394 C 0.44853 0.56115 0.08106 0.0
C395 C 0.44116 0.46581 0.08002 0.0
C396 C 0.46441 0.41589 0.07969 0.0
C397 C 0.47163 0.51139 0.08065 0.0
C398 C 0.51871 0.41226 0.08003 0.0
C399 C 0.54928 0.45743 0.08057 0.0
H400 H 0.45097 0.40129 0.97263 0.0
H401 H 0.36114 0.53 0.95738 0.0
H402 H 0.43881 0.58422 0.9566 0.0
H403 H 0.53225 0.59468 0.95985 0.0
H404 H 0.62254 0.46581 0.97482 0.0
H405 H 0.54449 0.41213 0.97612 0.0
C406 C 0.4483 0.44123 0.96916 0.0
C407 C 0.40026 0.46146 0.96505 0.0
C408 C 0.49317 0.47218 0.96867 0.0
C409 C 0.3976 0.51334 0.96058 0.0
C410 C 0.44201 0.54442 0.96013 0.0
C411 C 0.53493 0.55491 0.96344 0.0
C412 C 0.58323 0.53432 0.96721 0.0
C413 C 0.49 0.52417 0.96409 0.0
C414 C 0.58589 0.48265 0.97183 0.0
C415 C 0.54127 0.4519 0.97257 0.0
H416 H 0.59552 0.96427 0.21364 0.0
H417 H 0.46132 0.86389 0.21537 0.0
H418 H 0.40456 0.9402 0.2141 0.0
H419 H 0.393 0.0355 0.21284 0.0
H420 H 0.52732 0.13564 0.21072 0.0
H421 H 0.58396 0.05927 0.21175 0.0
C422 C 0.55386 0.95904 0.21375 0.0
C423 C 0.53275 0.90844 0.21467 0.0
C424 C 0.52142 1.00304 0.21293 0.0
C425 C 0.47864 0.90239 0.21468 0.0
C426 C 0.44611 0.94602 0.21396 0.0
C427 C 0.43466 0.04066 0.21258 0.0
C428 C 0.45581 0.09128 0.21175 0.0
C429 C 0.46708 0.99654 0.21313 0.0
C430 C 0.50992 0.09716 0.21135 0.0
C431 C 0.5424 0.0535 0.21196 0.0
H432 H 0.96309 0.92363 0.46757 0.0
H433 H 0.86877 0.06282 0.4704 0.0
H434 H 0.94652 0.11689 0.47186 0.0
H435 H 0.04109 0.12488 0.47168 0.0
H436 H 0.13541 0.98577 0.46862 0.0
H437 H 0.05768 0.93146 0.46795 0.0
C438 C 0.95947 0.96578 0.46855 0.0
C439 C 0.91015 0.98911 0.46882 0.0
C440 C 1.00431 0.99668 0.46932 0.0
C441 C 0.90624 0.0438 0.47013 0.0
C442 C 0.95069 0.07479 0.47096 0.0
C443 C 0.04472 0.08267 0.47092 0.0
C444 C 0.09403 0.05949 0.47015 0.0
C445 C 0.99989 0.05167 0.47047 0.0
C446 C 0.09795 1.00469 0.46919 0.0
C447 C 0.05352 0.97357 0.4688 0.0
H448 H 0.10054 0.45579 0.72186 0.0
H449 H 0.96797 0.36252 0.71069 0.0
H450 H 0.91551 0.44175 0.7088 0.0
H451 H 0.90736 0.5373 0.71017 0.0
H452 H 0.03997 0.63082 0.72116 0.0
H453 H 0.09233 0.55151 0.72326 0.0
C454 C 0.06015 0.45268 0.71902 0.0
C455 C 0.03828 0.40313 0.71642 0.0
C456 C 0.03022 0.49843 0.71791 0.0
C457 C 0.98586 0.40003 0.71275 0.0
C458 C 0.95581 0.44536 0.71166 0.0
C459 C 0.94771 0.54047 0.71304 0.0
C460 C 0.96965 0.59008 0.7155 0.0
C461 C 0.9776 0.49474 0.7142 0.0
C462 C 0.02204 0.59324 0.7192 0.0
C463 C 0.05202 0.54787 0.7204 0.0
H464 H 0.18012 0.17216 0.38346 0.0
H465 H 0.34273 0.17194 0.37395 0.0
H466 H 0.36509 0.18051 0.39695 0.0
H467 H 0.33892 0.17907 0.41988 0.0
H468 H 0.17647 0.17917 0.42951 0.0
H469 H 0.15382 0.1805 0.4064 0.0
C470 C 0.22045 0.17465 0.3864 0.0
C471 C 0.25962 0.17071 0.37695 0.0
C472 C 0.23318 0.17934 0.3997 0.0
C473 C 0.31168 0.17458 0.38096 0.0
C474 C 0.32458 0.17933 0.39415 0.0
C475 C 0.29853 0.18018 0.41695 0.0
C476 C 0.25953 0.17839 0.42646 0.0
C477 C 0.28571 0.1804 0.40362 0.0
C478 C 0.20739 0.18037 0.42244 0.0
C479 C 0.19435 0.18083 0.4092 0.0
H480 H 0.85179 0.67949 0.62876 0.0
H481 H 0.85212 0.84413 0.6194 0.0
H482 H 0.84678 0.86643 0.64246 0.0
H483 H 0.85131 0.83941 0.66533 0.0
H484 H 0.85261 0.67476 0.67468 0.0
H485 H 0.84744 0.65245 0.6516 0.0
C486 C 0.84998 0.72025 0.63174 0.0
C487 C 0.85309 0.76001 0.62235 0.0
C488 C 0.84759 0.7329 0.64504 0.0
C489 C 0.85021 0.81265 0.62641 0.0
C490 C 0.8473 0.82551 0.63961 0.0
C491 C 0.84977 0.79864 0.66234 0.0
C492 C 0.85309 0.75889 0.67173 0.0
C493 C 0.84744 0.78598 0.64903 0.0
C494 C 0.85055 0.70624 0.66767 0.0
C495 C 0.84772 0.69337 0.65446 0.0
H496 H 0.22486 0.34934 0.87465 0.0
H497 H 0.3898 0.32276 0.87293 0.0
H498 H 0.39361 0.31543 0.89656 0.0
H499 H 0.35201 0.32543 0.91782 0.0
H500 H 0.18742 0.35335 0.91975 0.0
H501 H 0.18165 0.3506 0.896 0.0
C502 C 0.26151 0.34109 0.87942 0.0
C503 C 0.30706 0.33722 0.87197 0.0
C504 C 0.26365 0.33755 0.8931 0.0
C505 C 0.35414 0.32635 0.87837 0.0
C506 C 0.35644 0.32226 0.89192 0.0
C507 C 0.31471 0.33023 0.91308 0.0
C508 C 0.27035 0.34018 0.9206 0.0
C509 C 0.31172 0.32922 0.8994 0.0
C510 C 0.2223 0.34585 0.91424 0.0
C511 C 0.21896 0.34449 0.90063 0.0
H512 H 0.63936 0.66963 0.13213 0.0
H513 H 0.65525 0.83313 0.12242 0.0
H514 H 0.66367 0.85549 0.14545 0.0
H515 H 0.65814 0.82977 0.16837 0.0
H516 H 0.64051 0.66649 0.1781 0.0
H517 H 0.64177 0.64304 0.15505 0.0
C518 C 0.64529 0.7101 0.13502 0.0
C519 C 0.646 0.74965 0.12554 0.0
C520 C 0.6495 0.72285 0.14831 0.0
C521 C 0.65415 0.80185 0.12949 0.0
C522 C 0.65887 0.81476 0.14268 0.0
C523 C 0.65524 0.78897 0.16547 0.0
C524 C 0.6486 0.75008 0.17497 0.0
C525 C 0.65529 0.77574 0.15218 0.0
C526 C 0.64529 0.69735 0.17101 0.0
C527 C 0.64586 0.68385 0.15782 0.0
H528 H 0.67468 0.64975 0.88113 0.0
H529 H 0.83765 0.65562 0.87212 0.0
H530 H 0.85883 0.66041 0.89526 0.0
H531 H 0.83158 0.65397 0.91806 0.0
H532 H 0.6686 0.64686 0.92703 0.0
H533 H 0.64713 0.65209 0.90394 0.0
C534 C 0.71481 0.65274 0.88421 0.0
C535 C 0.75447 0.65159 0.87489 0.0
C536 C 0.72684 0.6549 0.89755 0.0
C537 C 0.80627 0.65603 0.87907 0.0
C538 C 0.8185 0.65862 0.89232 0.0
C539 C 0.79134 0.65424 0.91498 0.0
C540 C 0.75187 0.64929 0.92427 0.0
C541 C 0.77917 0.65668 0.90165 0.0
C542 C 0.69988 0.6502 0.9201 0.0
C543 C 0.68749 0.65306 0.90688 0.0
H544 H 0.33727 0.17397 0.1617 0.0
H545 H 0.35119 0.33568 0.17369 0.0
H546 H 0.35022 0.36306 0.15098 0.0
H547 H 0.35443 0.34056 0.12772 0.0
H548 H 0.34037 0.17898 0.11568 0.0
H549 H 0.33173 0.15237 0.13835 0.0
C550 C 0.33939 0.21527 0.15937 0.0
C551 C 0.34498 0.25257 0.16943 0.0
C552 C 0.33912 0.23085 0.14624 0.0
C553 C 0.34712 0.30598 0.16619 0.0
C554 C 0.34677 0.32174 0.15317 0.0
C555 C 0.34875 0.29958 0.13003 0.0
C556 C 0.34872 0.26183 0.11999 0.0
C557 C 0.34417 0.28443 0.14312 0.0
C558 C 0.34075 0.20895 0.12318 0.0
C559 C 0.33604 0.19361 0.13617 0.0
H560 H 0.72018 0.01102 0.37816 0.0
H561 H 0.7855 0.85644 0.37385 0.0
H562 H 0.78364 0.84495 0.39753 0.0
H563 H 0.76583 0.8807 0.41959 0.0
H564 H 0.70076 0.03597 0.42315 0.0
H565 H 0.7 0.04502 0.39964 0.0
C566 C 0.73405 0.9747 0.38236 0.0
C567 C 0.75329 0.93483 0.37425 0.0
C568 C 0.73289 0.96847 0.39588 0.0
C569 C 0.77061 0.88786 0.37988 0.0
C570 C 0.76957 0.8813 0.39342 0.0
C571 C 0.7512 0.9163 0.41519 0.0
C572 C 0.73369 0.95768 0.42315 0.0
C573 C 0.75112 0.92156 0.40154 0.0
C574 C 0.71483 1.00359 0.4173 0.0
C575 C 0.71434 1.0089 0.40383 0.0
H576 H 0.16284 0.33822 0.66932 0.0
H577 H 0.16177 0.17321 0.6782 0.0
H578 H 0.16711 0.152 0.65505 0.0
H579 H 0.16167 0.18016 0.63221 0.0
H580 H 0.163 0.34518 0.62334 0.0
H581 H 0.16865 0.36629 0.6465 0.0
C582 C 0.16462 0.2976 0.66622 0.0
C583 C 0.16116 0.25744 0.67552 0.0
C584 C 0.1673 0.28558 0.65285 0.0
C585 C 0.16413 0.20502 0.6713 0.0
C586 C 0.16692 0.19279 0.65803 0.0
C587 C 0.16403 0.22075 0.63532 0.0
C588 C 0.16116 0.26097 0.62601 0.0
C589 C 0.16691 0.23272 0.6487 0.0
C590 C 0.16488 0.31333 0.63024 0.0
C591 C 0.16785 0.32551 0.64352 0.0
H592 H 0.2338 0.13538 0.28313 0.0
H593 H 0.31602 0.24938 0.30655 0.0
H594 H 0.34665 0.29238 0.28687 0.0
H595 H 0.35705 0.29242 0.26312 0.0
H596 H 0.27542 0.17817 0.23967 0.0
H597 H 0.23721 0.14088 0.25925 0.0
C598 C 0.2579 0.17002 0.28395 0.0
C599 C 0.27308 0.18867 0.29633 0.0
C600 C 0.27579 0.19434 0.27258 0.0
C601 C 0.30388 0.23397 0.29717 0.0
C602 C 0.32162 0.2585 0.28591 0.0
C603 C 0.33042 0.25974 0.26227 0.0
C604 C 0.31963 0.23777 0.24994 0.0
C605 C 0.30891 0.23821 0.27358 0.0
C606 C 0.28455 0.19581 0.24902 0.0
C607 C 0.26285 0.17428 0.26023 0.0
H608 H 0.7105 0.85852 0.51291 0.0
H609 H 0.82215 0.78863 0.48696 0.0
H610 H 0.86498 0.74656 0.5054 0.0
H611 H 0.87687 0.73857 0.52906 0.0
H612 H 0.76684 0.81138 0.55497 0.0
H613 H 0.71712 0.843 0.53635 0.0
C614 C 0.74371 0.83342 0.51124 0.0
C615 C 0.76348 0.82739 0.49858 0.0
C616 C 0.76885 0.81033 0.52191 0.0
C617 C 0.80626 0.79427 0.4966 0.0
C618 C 0.83097 0.77039 0.50716 0.0
C619 C 0.84164 0.76076 0.53065 0.0
C620 C 0.8261 0.77324 0.54341 0.0
C621 C 0.81361 0.77957 0.51989 0.0
C622 C 0.78004 0.80161 0.54527 0.0
C623 C 0.75158 0.81981 0.53462 0.0
H624 H 0.26123 0.33884 0.74502 0.0
H625 H 0.15131 0.22406 0.75836 0.0
H626 H 0.17303 0.24526 0.78095 0.0
H627 H 0.21815 0.30167 0.79701 0.0
H628 H 0.32522 0.41868 0.78341 0.0
H629 H 0.31001 0.39107 0.76097 0.0
C630 C 0.24249 0.31791 0.75285 0.0
C631 C 0.20447 0.28012 0.74995 0.0
C632 C 0.25443 0.33097 0.76585 0.0
C633 C 0.18055 0.25356 0.76028 0.0
C634 C 0.19288 0.26571 0.77323 0.0
C635 C 0.2387 0.32054 0.78914 0.0
C636 C 0.27254 0.36239 0.7919 0.0
C637 C 0.229 0.30513 0.77615 0.0
C638 C 0.29863 0.38664 0.78157 0.0
C639 C 0.28997 0.3709 0.76871 0.0
H640 H 0.77542 0.62904 1.01752 0.0
H641 H 0.70328 0.7388 0.99122 0.0
H642 H 0.67044 0.78907 1.00967 0.0
H643 H 0.65411 0.79626 0.0331 0.0
H644 H 0.72459 0.68542 0.05939 0.0
H645 H 0.76663 0.64168 0.04111 0.0
C646 C 0.75313 0.66435 1.01581 0.0
C647 C 0.74122 0.67962 1.00299 0.0
C648 C 0.7337 0.69274 0.02646 0.0
C649 C 0.71272 0.72583 1.00097 0.0
C650 C 0.69375 0.75458 1.01152 0.0
C651 C 0.67922 0.76297 0.03487 0.0
C652 C 0.68555 0.74375 0.04759 0.0
C653 C 0.70272 0.73751 0.02429 0.0
C654 C 0.71872 0.7009 0.0497 0.0
C655 C 0.74266 0.67569 0.03924 0.0
H656 H 0.33757 0.25154 0.03718 0.0
H657 H 0.22362 0.34569 0.05711 0.0
H658 H 0.18747 0.37329 0.03625 0.0
H659 H 0.19243 0.37629 1.01242 0.0
H660 H 0.30643 0.28278 0.99238 0.0
H661 H 0.33784 0.24891 1.0132 0.0
C662 C 0.30451 0.27771 0.03697 0.0
C663 C 0.28374 0.2969 0.04874 0.0
C664 C 0.28398 0.29372 0.02491 0.0
C665 C 0.2406 0.33042 0.04825 0.0
C666 C 0.21993 0.34637 0.0363 0.0
C667 C 0.22381 0.34807 1.01258 0.0
C668 C 0.24731 0.3325 1.00084 0.0
C669 C 0.24196 0.32912 0.02458 0.0
C670 C 0.28761 0.29551 1.00124 0.0
C671 C 0.30578 0.2763 1.01316 0.0
H672 H 0.79041 0.88709 0.28048 0.0
H673 H 0.71753 0.78611 0.30853 0.0
H674 H 0.67926 0.7343 0.2909 0.0
H675 H 0.65893 0.72358 0.26765 0.0
H676 H 0.73033 0.82598 0.23967 0.0
H677 H 0.77703 0.87088 0.25715 0.0
C678 C 0.76675 0.85332 0.28276 0.0
C679 C 0.75634 0.841 0.29582 0.0
C680 C 0.74419 0.82415 0.27258 0.0
C681 C 0.72597 0.79675 0.29857 0.0
C682 C 0.70386 0.76717 0.28849 0.0
C683 C 0.6852 0.75527 0.26534 0.0
C684 C 0.69051 0.77178 0.25237 0.0
C685 C 0.7115 0.78144 0.27547 0.0
C686 C 0.72515 0.81263 0.24957 0.0
C687 C 0.75182 0.83848 0.25957 0.0
H688 H 0.21431 0.22615 0.50415 0.0
H689 H 0.31912 0.10427 0.5165 0.0
H690 H 0.30737 0.12998 0.53917 0.0
H691 H 0.26147 0.18165 0.55566 0.0
H692 H 0.15397 0.30142 0.54349 0.0
H693 H 0.17304 0.28237 0.52071 0.0
C694 C 0.23516 0.20578 0.51179 0.0
C695 C 0.26722 0.16309 0.50861 0.0
C696 C 0.22748 0.22014 0.5249 0.0
C697 C 0.29382 0.13699 0.51866 0.0
C698 C 0.28713 0.15163 0.53165 0.0
C699 C 0.24277 0.20416 0.54804 0.0
C700 C 0.20605 0.24263 0.55133 0.0
C701 C 0.25314 0.19233 0.53492 0.0
C702 C 0.18216 0.2713 0.54128 0.0
C703 C 0.19296 0.26039 0.52822 0.0
H704 H 0.86503 0.78954 0.76445 0.0
H705 H 0.77263 0.69017 0.73935 0.0
H706 H 0.72903 0.65384 0.75828 0.0
H707 H 0.72443 0.64302 0.78196 0.0
H708 H 0.81836 0.74094 0.80705 0.0
H709 H 0.85348 0.78551 0.78811 0.0
C710 C 0.83486 0.76045 0.76309 0.0
C711 C 0.82274 0.74204 0.75051 0.0
C712 C 0.81044 0.73915 0.77403 0.0
C713 C 0.78308 0.70479 0.74893 0.0
C714 C 0.7582 0.68382 0.75976 0.0
C715 C 0.75203 0.67461 0.78331 0.0
C716 C 0.7693 0.68801 0.79591 0.0
C717 C 0.7727 0.69957 0.77236 0.0
C718 C 0.80465 0.72948 0.79747 0.0
C719 C 0.82494 0.75491 0.78663 0.0
loop_
_geom_bond_atom_site_label_1
_geom_bond_atom_site_label_2
_geom_bond_distance
_geom_bond_site_symmetry_2
_ccdc_geom_bond_type
Mg0 O7 2.141 . S
Mg0 O8 2.048 . S
Mg0 O9 2.048 . S
Mg0 O12 2.141 . S
C1 O2 1.313 . S
C1 O8 1.195 . S
O2 C1 1.313 . S
C3 O4 1.245 . S
C3 O12 1.289 . S
O4 C3 1.245 . S
C5 O6 1.245 . S
C5 O7 1.289 . S
O6 C5 1.245 . S
O7 Mg0 2.141 . S
O7 C5 1.289 . S
O8 Mg0 2.048 . S
O8 C1 1.195 . S
O9 Mg0 2.048 . S
O9 C10 1.195 . S
C10 O9 1.195 . S
C10 O11 1.313 . S
O11 C10 1.313 . S
O12 Mg0 2.141 . S
O12 C3 1.289 . S
Mg13 O20 2.141 . S
Mg13 O21 2.048 . S
Mg13 O22 2.048 . S
Mg13 O25 2.141 . S
C14 O15 1.313 . S
C14 O21 1.195 . S
O15 C14 1.313 . S
C16 O17 1.245 . S
C16 O25 1.289 . S
O17 C16 1.245 . S
C18 O19 1.245 . S
C18 O20 1.289 . S
O19 C18 1.245 . S
O20 Mg13 2.141 . S
O20 C18 1.289 . S
O21 Mg13 2.048 . S
O21 C14 1.195 . S
O22 Mg13 2.048 . S
O22 C23 1.195 . S
C23 O22 1.195 . S
C23 O24 1.313 . S
O24 C23 1.313 . S
O25 Mg13 2.141 . S
O25 C16 1.289 . S
Mg26 O33 2.141 . S
Mg26 O34 2.048 . S
Mg26 O35 2.048 . S
Mg26 O38 2.141 . S
C27 O28 1.313 . S
C27 O34 1.195 . S
O28 C27 1.313 . S
C29 O30 1.245 . S
C29 O38 1.289 . S
O30 C29 1.245 . S
C31 O32 1.245 . S
C31 O33 1.289 . S
O32 C31 1.245 . S
O33 Mg26 2.141 . S
O33 C31 1.289 . S
O34 Mg26 2.048 . S
O34 C27 1.195 . S
O35 Mg26 2.048 . S
O35 C36 1.195 . S
C36 O35 1.195 . S
C36 O37 1.313 . S
O37 C36 1.313 . S
O38 Mg26 2.141 . S
O38 C29 1.289 . S
Mg39 O46 2.141 . S
Mg39 O47 2.048 . S
Mg39 O48 2.048 . S
Mg39 O51 2.141 . S
C40 O41 1.313 . S
C40 O47 1.195 . S
O41 C40 1.313 . S
C42 O43 1.245 . S
C42 O51 1.289 . S
O43 C42 1.245 . S
C44 O45 1.245 . S
C44 O46 1.289 . S
O45 C44 1.245 . S
O46 Mg39 2.141 . S
O46 C44 1.289 . S
O47 Mg39 2.048 . S
O47 C40 1.195 . S
O48 Mg39 2.048 . S
O48 C49 1.195 . S
C49 O48 1.195 . S
C49 O50 1.313 . S
O50 C49 1.313 . S
O51 Mg39 2.141 . S
O51 C42 1.289 . S
Mg52 O59 2.141 . S
Mg52 O60 2.048 . S
Mg52 O61 2.048 . S
Mg52 O64 2.141 . S
C53 O54 1.313 . S
C53 O60 1.195 . S
O54 C53 1.313 . S
C55 O56 1.245 . S
C55 O64 1.289 . S
O56 C55 1.245 . S
C57 O58 1.245 . S
C57 O59 1.289 . S
O58 C57 1.245 . S
O59 Mg52 2.141 . S
O59 C57 1.289 . S
O60 Mg52 2.048 . S
O60 C53 1.195 . S
O61 Mg52 2.048 . S
O61 C62 1.195 . S
C62 O61 1.195 . S
C62 O63 1.313 . S
O63 C62 1.313 . S
O64 Mg52 2.141 . S
O64 C55 1.289 . S
Mg65 O72 2.141 . S
Mg65 O73 2.048 . S
Mg65 O74 2.048 . S
Mg65 O77 2.141 . S
C66 O67 1.313 . S
C66 O73 1.195 . S
O67 C66 1.313 . S
C68 O69 1.245 . S
C68 O77 1.289 . S
O69 C68 1.245 . S
C70 O71 1.245 . S
C70 O72 1.289 . S
O71 C70 1.245 . S
O72 Mg65 2.141 . S
O72 C70 1.289 . S
O73 Mg65 2.048 . S
O73 C66 1.195 . S
O74 Mg65 2.048 . S
O74 C75 1.195 . S
C75 O74 1.195 . S
C75 O76 1.313 . S
O76 C75 1.313 . S
O77 Mg65 2.141 . S
O77 C68 1.289 . S
Mg78 O85 2.141 . S
Mg78 O86 2.048 . S
Mg78 O87 2.048 . S
Mg78 O90 2.141 . S
C79 O80 1.313 . S
C79 O86 1.195 . S
O80 C79 1.313 . S
C81 O82 1.245 . S
C81 O90 1.289 . S
O82 C81 1.245 . S
C83 O84 1.245 . S
C83 O85 1.289 . S
O84 C83 1.245 . S
O85 Mg78 2.141 . S
O85 C83 1.289 . S
O86 Mg78 2.048 . S
O86 C79 1.195 . S
O87 Mg78 2.048 . S
O87 C88 1.195 . S
C88 O87 1.195 . S
C88 O89 1.313 . S
O89 C88 1.313 . S
O90 Mg78 2.141 . S
O90 C81 1.289 . S
Mg91 O98 2.141 . S
Mg91 O99 2.048 . S
Mg91 O100 2.048 . S
Mg91 O103 2.141 . S
C92 O93 1.313 . S
C92 O99 1.195 . S
O93 C92 1.313 . S
C94 O95 1.245 . S
C94 O103 1.289 . S
O95 C94 1.245 . S
C96 O97 1.245 . S
C96 O98 1.289 . S
O97 C96 1.245 . S
O98 Mg91 2.141 . S
O98 C96 1.289 . S
O99 Mg91 2.048 . S
O99 C92 1.195 . S
O100 Mg91 2.048 . S
O100 C101 1.195 . S
C101 O100 1.195 . S
C101 O102 1.313 . S
O102 C101 1.313 . S
O103 Mg91 2.141 . S
O103 C94 1.289 . S
Mg104 O111 2.141 . S
Mg104 O112 2.048 . S
Mg104 O113 2.048 . S
Mg104 O116 2.141 . S
C105 O106 1.313 . S
C105 O112 1.195 . S
O106 C105 1.313 . S
C107 O108 1.245 . S
C107 O116 1.289 . S
O108 C107 1.245 . S
C109 O110 1.245 . S
C109 O111 1.289 . S
O110 C109 1.245 . S
O111 Mg104 2.141 . S
O111 C109 1.289 . S
O112 Mg104 2.048 . S
O112 C105 1.195 . S
O113 Mg104 2.048 . S
O113 C114 1.195 . S
C114 O113 1.195 . S
C114 O115 1.313 . S
O115 C114 1.313 . S
O116 Mg104 2.141 . S
O116 C107 1.289 . S
Mg117 O124 2.141 . S
Mg117 O125 2.048 . S
Mg117 O126 2.048 . S
Mg117 O129 2.141 . S
C118 O119 1.313 . S
C118 O125 1.195 . S
O119 C118 1.313 . S
C120 O121 1.245 . S
C120 O129 1.289 . S
O121 C120 1.245 . S
C122 O123 1.245 . S
C122 O124 1.289 . S
O123 C122 1.245 . S
O124 Mg117 2.141 . S
O124 C122 1.289 . S
O125 Mg117 2.048 . S
O125 C118 1.195 . S
O126 Mg117 2.048 . S
O126 C127 1.195 . S
C127 O126 1.195 . S
C127 O128 1.313 . S
O128 C127 1.313 . S
O129 Mg117 2.141 . S
O129 C120 1.289 . S
Mg130 O137 2.141 . S
Mg130 O138 2.048 . S
Mg130 O139 2.048 . S
Mg130 O142 2.141 . S
C131 O132 1.313 . S
C131 O138 1.195 . S
O132 C131 1.313 . S
C133 O134 1.245 . S
C133 O142 1.289 . S
O134 C133 1.245 . S
C135 O136 1.245 . S
C135 O137 1.289 . S
O136 C135 1.245 . S
O137 Mg130 2.141 . S
O137 C135 1.289 . S
O138 Mg130 2.048 . S
O138 C131 1.195 . S
O139 Mg130 2.048 . S
O139 C140 1.195 . S
C140 O139 1.195 . S
C140 O141 1.313 . S
O141 C140 1.313 . S
O142 Mg130 2.141 . S
O142 C133 1.289 . S
Mg143 O150 2.141 . S
Mg143 O151 2.048 . S
Mg143 O152 2.048 . S
Mg143 O155 2.141 . S
C144 O145 1.313 . S
C144 O151 1.195 . S
O145 C144 1.313 . S
C146 O147 1.245 . S
C146 O155 1.289 . S
O147 C146 1.245 . S
C148 O149 1.245 . S
C148 O150 1.289 . S
O149 C148 1.245 . S
O150 Mg143 2.141 . S
O150 C148 1.289 . S
O151 Mg143 2.048 . S
O151 C144 1.195 . S
O152 Mg143 2.048 . S
O152 C153 1.195 . S
C153 O152 1.195 . S
C153 O154 1.313 . S
O154 C153 1.313 . S
O155 Mg143 2.141 . S
O155 C146 1.289 . S
Mg156 O163 2.141 . S
Mg156 O164 2.048 . S
Mg156 O165 2.048 . S
Mg156 O168 2.141 . S
C157 O158 1.313 . S
C157 O164 1.195 . S
O158 C157 1.313 . S
C159 O160 1.245 . S
C159 O168 1.289 . S
O160 C159 1.245 . S
C161 O162 1.245 . S
C161 O163 1.289 . S
O162 C161 1.245 . S
O163 Mg156 2.141 . S
O163 C161 1.289 . S
O164 Mg156 2.048 . S
O164 C157 1.195 . S
O165 Mg156 2.048 . S
O165 C166 1.195 . S
C166 O165 1.195 . S
C166 O167 1.313 . S
O167 C166 1.313 . S
O168 Mg156 2.141 . S
O168 C159 1.289 . S
Mg169 O176 2.141 . S
Mg169 O177 2.048 . S
Mg169 O178 2.048 . S
Mg169 O181 2.141 . S
C170 O171 1.313 . S
C170 O177 1.195 . S
O171 C170 1.313 . S
C172 O173 1.245 . S
C172 O181 1.289 . S
O173 C172 1.245 . S
C174 O175 1.245 . S
C174 O176 1.289 . S
O175 C174 1.245 . S
O176 Mg169 2.141 . S
O176 C174 1.289 . S
O177 Mg169 2.048 . S
O177 C170 1.195 . S
O178 Mg169 2.048 . S
O178 C179 1.195 . S
C179 O178 1.195 . S
C179 O180 1.313 . S
O180 C179 1.313 . S
O181 Mg169 2.141 . S
O181 C172 1.289 . S
Mg182 O189 2.141 . S
Mg182 O190 2.048 . S
Mg182 O191 2.048 . S
Mg182 O194 2.141 . S
C183 O184 1.313 . S
C183 O190 1.195 . S
O184 C183 1.313 . S
C185 O186 1.245 . S
C185 O194 1.289 . S
O186 C185 1.245 . S
C187 O188 1.245 . S
C187 O189 1.289 . S
O188 C187 1.245 . S
O189 Mg182 2.141 . S
O189 C187 1.289 . S
O190 Mg182 2.048 . S
O190 C183 1.195 . S
O191 Mg182 2.048 . S
O191 C192 1.195 . S
C192 O191 1.195 . S
C192 O193 1.313 . S
O193 C192 1.313 . S
O194 Mg182 2.141 . S
O194 C185 1.289 . S
Mg195 O202 2.141 . S
Mg195 O203 2.048 . S
Mg195 O204 2.048 . S
Mg195 O207 2.141 . S
C196 O197 1.313 . S
C196 O203 1.195 . S
O197 C196 1.313 . S
C198 O199 1.245 . S
C198 O207 1.289 . S
O199 C198 1.245 . S
C200 O201 1.245 . S
C200 O202 1.289 . S
O201 C200 1.245 . S
O202 Mg195 2.141 . S
O202 C200 1.289 . S
O203 Mg195 2.048 . S
O203 C196 1.195 . S
O204 Mg195 2.048 . S
O204 C205 1.195 . S
C205 O204 1.195 . S
C205 O206 1.313 . S
O206 C205 1.313 . S
O207 Mg195 2.141 . S
O207 C198 1.289 . S
H208 C214 0.930 1_545 S
H209 C217 0.930 . S
H210 C218 0.930 . S
H211 C219 0.930 1_565 S
H212 C222 0.930 . S
H213 C223 0.930 . S
C214 H208 0.930 1_565 S
C214 C215 1.355 . S
C214 C216 1.415 1_565 S
C215 C214 1.355 . S
C215 C217 1.419 . S
C216 C214 1.415 1_545 S
C216 C221 1.425 1_645 S
C216 C223 1.409 . S
C217 H209 0.930 . S
C217 C215 1.419 . S
C217 C218 1.362 1_655 S
C218 H210 0.930 . S
C218 C217 1.362 1_455 S
C218 C221 1.409 . S
C219 H211 0.930 1_545 S
C219 C220 1.355 . S
C219 C221 1.415 1_545 S
C220 C219 1.355 . S
C220 C222 1.419 . S
C221 C216 1.425 1_465 S
C221 C218 1.409 . S
C221 C219 1.415 1_565 S
C222 H212 0.930 . S
C222 C220 1.419 . S
C222 C223 1.362 1_455 S
C223 H213 0.930 . S
C223 C216 1.409 . S
C223 C222 1.362 1_655 S
H224 C230 0.930 1_455 S
H225 C233 0.930 . S
H226 C234 0.930 . S
H227 C235 0.930 1_655 S
H228 C238 0.930 . S
H229 C239 0.930 . S
C230 H224 0.930 1_655 S
C230 C231 1.355 . S
C230 C232 1.415 1_655 S
C231 C230 1.355 . S
C231 C233 1.419 . S
C232 C230 1.415 1_455 S
C232 C237 1.425 1_455 S
C232 C239 1.409 . S
C233 H225 0.930 . S
C233 C231 1.419 . S
C233 C234 1.362 . S
C234 H226 0.930 . S
C234 C233 1.362 . S
C234 C237 1.409 . S
C235 H227 0.930 1_455 S
C235 C236 1.355 . S
C235 C237 1.415 1_455 S
C236 C235 1.355 . S
C236 C238 1.419 . S
C237 C232 1.425 1_655 S
C237 C234 1.409 . S
C237 C235 1.415 1_655 S
C238 H228 0.930 . S
C238 C236 1.419 . S
C238 C239 1.362 . S
C239 H229 0.930 . S
C239 C232 1.409 . S
C239 C238 1.362 . S
H240 C246 0.930 . S
H241 C249 0.930 . S
H242 C250 0.930 . S
H243 C251 0.930 . S
H244 C254 0.930 . S
H245 C255 0.930 . S
C246 H240 0.930 . S
C246 C247 1.355 . S
C246 C248 1.415 . S
C247 C246 1.355 . S
C247 C249 1.419 . S
C248 C246 1.415 . S
C248 C253 1.425 . S
C248 C255 1.409 . S
C249 H241 0.930 . S
C249 C247 1.419 . S
C249 C250 1.362 . S
C250 H242 0.930 . S
C250 C249 1.362 . S
C250 C253 1.409 . S
C251 H243 0.930 . S
C251 C252 1.355 . S
C251 C253 1.415 . S
C252 C251 1.355 . S
C252 C254 1.419 . S
C253 C248 1.425 . S
C253 C250 1.409 . S
C253 C251 1.415 . S
C254 H244 0.930 . S
C254 C252 1.419 . S
C254 C255 1.362 . S
C255 H245 0.930 . S
C255 C248 1.409 . S
C255 C254 1.362 . S
H256 C262 0.930 . S
H257 C265 0.930 . S
H258 C266 0.930 . S
H259 C267 0.930 . S
H260 C270 0.930 . S
H261 C271 0.930 . S
C262 H256 0.930 . S
C262 C263 1.355 . S
C262 C264 1.415 . S
C263 C262 1.355 . S
C263 C265 1.419 . S
C264 C262 1.415 . S
C264 C269 1.425 1_545 S
C264 C271 1.409 . S
C265 H257 0.930 . S
C265 C263 1.419 . S
C265 C266 1.362 1_545 S
C266 H258 0.930 . S
C266 C265 1.362 1_565 S
C266 C269 1.409 . S
C267 H259 0.930 . S
C267 C268 1.355 . S
C267 C269 1.415 . S
C268 C267 1.355 . S
C268 C270 1.419 . S
C269 C264 1.425 1_565 S
C269 C266 1.409 . S
C269 C267 1.415 . S
C270 H260 0.930 . S
C270 C268 1.419 . S
C270 C271 1.362 1_565 S
C271 H261 0.930 . S
C271 C264 1.409 . S
C271 C270 1.362 1_545 S
H272 C278 0.930 . S
H273 C281 0.930 . S
H274 C282 0.930 . S
H275 C283 0.930 . S
H276 C286 0.930 . S
H277 C287 0.930 . S
C278 H272 0.930 . S
C278 C279 1.355 . S
C278 C280 1.415 . S
C279 C278 1.355 . S
C279 C281 1.419 . S
C280 C278 1.415 . S
C280 C285 1.425 1_455 S
C280 C287 1.409 1_455 S
C281 H273 0.930 . S
C281 C279 1.419 . S
C281 C282 1.362 . S
C282 H274 0.930 . S
C282 C281 1.362 . S
C282 C285 1.409 1_455 S
C283 H275 0.930 . S
C283 C284 1.355 . S
C283 C285 1.415 . S
C284 C283 1.355 . S
C284 C286 1.419 . S
C285 C280 1.425 1_655 S
C285 C282 1.409 1_655 S
C285 C283 1.415 . S
C286 H276 0.930 . S
C286 C284 1.419 . S
C286 C287 1.362 . S
C287 H277 0.930 . S
C287 C280 1.409 1_655 S
C287 C286 1.362 . S
H288 C294 0.930 . S
H289 C297 0.930 . S
H290 C298 0.930 . S
H291 C299 0.930 . S
H292 C302 0.930 . S
H293 C303 0.930 . S
C294 H288 0.930 . S
C294 C295 1.355 . S
C294 C296 1.415 . S
C295 C294 1.355 . S
C295 C297 1.419 . S
C296 C294 1.415 . S
C296 C301 1.425 . S
C296 C303 1.409 . S
C297 H289 0.930 . S
C297 C295 1.419 . S
C297 C298 1.362 . S
C298 H290 0.930 . S
C298 C297 1.362 . S
C298 C301 1.409 . S
C299 H291 0.930 . S
C299 C300 1.355 . S
C299 C301 1.415 . S
C300 C299 1.355 . S
C300 C302 1.419 . S
C301 C296 1.425 . S
C301 C298 1.409 . S
C301 C299 1.415 . S
C302 H292 0.930 . S
C302 C300 1.419 . S
C302 C303 1.362 . S
C303 H293 0.930 . S
C303 C296 1.409 . S
C303 C302 1.362 . S
H304 C310 0.930 . S
H305 C313 0.930 . S
H306 C314 0.930 . S
H307 C315 0.930 . S
H308 C318 0.930 . S
H309 C319 0.930 . S
C310 H304 0.930 . S
C310 C311 1.355 . S
C310 C312 1.415 . S
C311 C310 1.355 . S
C311 C313 1.419 . S
C312 C310 1.415 . S
C312 C317 1.425 1_545 S
C312 C319 1.409 1_545 S
C313 H305 0.930 . S
C313 C311 1.419 . S
C313 C314 1.362 . S
C314 H306 0.930 . S
C314 C313 1.362 . S
C314 C317 1.409 1_545 S
C315 H307 0.930 . S
C315 C316 1.355 . S
C315 C317 1.415 . S
C316 C315 1.355 . S
C316 C318 1.419 . S
C317 C312 1.425 1_565 S
C317 C314 1.409 1_565 S
C317 C315 1.415 . S
C318 H308 0.930 . S
C318 C316 1.419 . S
C318 C319 1.362 . S
C319 H309 0.930 . S
C319 C312 1.409 1_565 S
C319 C318 1.362 . S
H320 C326 0.926 1_655 S
H321 C329 0.930 . S
H322 C330 0.930 . S
H323 C331 0.926 1_455 S
H324 C334 0.930 . S
H325 C335 0.930 . S
C326 H320 0.926 1_455 S
C326 C327 1.355 . S
C326 C328 1.415 1_455 S
C327 C326 1.355 . S
C327 C329 1.419 . S
C328 C326 1.415 1_655 S
C328 C333 1.425 1_645 S
C328 C335 1.409 . S
C329 H321 0.930 . S
C329 C327 1.419 . S
C329 C330 1.362 1_545 S
C330 H322 0.930 . S
C330 C329 1.362 1_565 S
C330 C333 1.409 . S
C331 H323 0.926 1_655 S
C331 C332 1.355 . S
C331 C333 1.415 1_655 S
C332 C331 1.355 . S
C332 C334 1.419 . S
C333 C328 1.425 1_465 S
C333 C330 1.409 . S
C333 C331 1.415 1_455 S
C334 H324 0.930 . S
C334 C332 1.419 . S
C334 C335 1.362 1_565 S
C335 H325 0.930 . S
C335 C328 1.409 . S
C335 C334 1.362 1_545 S
H336 C342 0.930 . S
H337 C345 0.930 . S
H338 C346 0.930 . S
H339 C347 0.930 . S
H340 C350 0.930 . S
H341 C351 0.930 . S
C342 H336 0.930 . S
C342 C343 1.355 . S
C342 C344 1.415 . S
C343 C342 1.355 . S
C343 C345 1.419 . S
C344 C342 1.415 . S
C344 C349 1.425 1_565 S
C344 C351 1.409 . S
C345 H337 0.930 . S
C345 C343 1.419 . S
C345 C346 1.362 1_565 S
C346 H338 0.930 . S
C346 C345 1.362 1_545 S
C346 C349 1.409 . S
C347 H339 0.930 . S
C347 C348 1.355 . S
C347 C349 1.415 . S
C348 C347 1.355 . S
C348 C350 1.419 . S
C349 C344 1.425 1_545 S
C349 C346 1.409 . S
C349 C347 1.415 . S
C350 H340 0.930 . S
C350 C348 1.419 . S
C350 C351 1.362 1_545 S
C351 H341 0.930 . S
C351 C344 1.409 . S
C351 C350 1.362 1_565 S
H352 C358 0.930 . S
H353 C361 0.930 . S
H354 C362 0.930 . S
H355 C363 0.930 . S
H356 C366 0.930 . S
H357 C367 0.930 . S
C358 H352 0.930 . S
C358 C359 1.355 . S
C358 C360 1.415 . S
C359 C358 1.355 . S
C359 C361 1.419 . S
C360 C358 1.415 . S
C360 C365 1.425 1_665 S
C360 C367 1.409 1_665 S
C361 H353 0.930 . S
C361 C359 1.419 . S
C361 C362 1.362 . S
C362 H354 0.930 . S
C362 C361 1.362 . S
C362 C365 1.409 1_665 S
C363 H355 0.930 . S
C363 C364 1.355 . S
C363 C365 1.415 . S
C364 C363 1.355 . S
C364 C366 1.419 . S
C365 C360 1.425 1_445 S
C365 C362 1.409 1_445 S
C365 C363 1.415 . S
C366 H356 0.930 . S
C366 C364 1.419 . S
C366 C367 1.362 . S
C367 H357 0.930 . S
C367 C360 1.409 1_445 S
C367 C366 1.362 . S
H368 C374 0.930 . S
H369 C377 0.930 . S
H370 C378 0.930 . S
H371 C379 0.930 . S
H372 C382 0.930 . S
H373 C383 0.930 . S
C374 H368 0.930 . S
C374 C375 1.355 . S
C374 C376 1.415 . S
C375 C374 1.355 . S
C375 C377 1.419 . S
C376 C374 1.415 . S
C376 C381 1.425 1_455 S
C376 C383 1.409 . S
C377 H369 0.930 . S
C377 C375 1.419 . S
C377 C378 1.362 1_455 S
C378 H370 0.930 . S
C378 C377 1.362 1_655 S
C378 C381 1.409 . S
C379 H371 0.930 . S
C379 C380 1.355 . S
C379 C381 1.415 . S
C380 C379 1.355 . S
C380 C382 1.419 . S
C381 C376 1.425 1_655 S
C381 C378 1.409 . S
C381 C379 1.415 . S
C382 H372 0.930 . S
C382 C380 1.419 . S
C382 C383 1.362 1_655 S
C383 H373 0.930 . S
C383 C376 1.409 . S
C383 C382 1.362 1_455 S
H384 C390 0.930 . S
H385 C393 0.930 . S
H386 C394 0.930 . S
H387 C395 0.930 . S
H388 C398 0.930 . S
H389 C399 0.930 . S
C390 H384 0.930 . S
C390 C391 1.355 . S
C390 C392 1.415 . S
C391 C390 1.355 . S
C391 C393 1.419 . S
C392 C390 1.415 . S
C392 C397 1.425 . S
C392 C399 1.409 . S
C393 H385 0.930 . S
C393 C391 1.419 . S
C393 C394 1.362 . S
C394 H386 0.930 . S
C394 C393 1.362 . S
C394 C397 1.409 . S
C395 H387 0.930 . S
C395 C396 1.355 . S
C395 C397 1.415 . S
C396 C395 1.355 . S
C396 C398 1.419 . S
C397 C392 1.425 . S
C397 C394 1.409 . S
C397 C395 1.415 . S
C398 H388 0.930 . S
C398 C396 1.419 . S
C398 C399 1.362 . S
C399 H389 0.930 . S
C399 C392 1.409 . S
C399 C398 1.362 . S
H400 C406 0.930 . S
H401 C409 0.930 . S
H402 C410 0.930 . S
H403 C411 0.930 . S
H404 C414 0.930 . S
H405 C415 0.930 . S
C406 H400 0.930 . S
C406 C407 1.355 . S
C406 C408 1.415 . S
C407 C406 1.355 . S
C407 C409 1.419 . S
C408 C406 1.415 . S
C408 C413 1.425 . S
C408 C415 1.409 . S
C409 H401 0.930 . S
C409 C407 1.419 . S
C409 C410 1.362 . S
C410 H402 0.930 . S
C410 C409 1.362 . S
C410 C413 1.409 . S
C411 H403 0.930 . S
C411 C412 1.355 . S
C411 C413 1.415 . S
C412 C411 1.355 . S
C412 C414 1.419 . S
C413 C408 1.425 . S
C413 C410 1.409 . S
C413 C411 1.415 . S
C414 H404 0.930 . S
C414 C412 1.419 . S
C414 C415 1.362 . S
C415 H405 0.930 . S
C415 C408 1.409 . S
C415 C414 1.362 . S
H416 C422 0.930 . S
H417 C425 0.930 . S
H418 C426 0.930 . S
H419 C427 0.930 . S
H420 C430 0.930 . S
H421 C431 0.930 . S
C422 H416 0.930 . S
C422 C423 1.355 . S
C422 C424 1.415 1_565 S
C423 C422 1.355 . S
C423 C425 1.419 . S
C424 C422 1.415 1_545 S
C424 C429 1.425 1_545 S
C424 C431 1.409 . S
C425 H417 0.930 . S
C425 C423 1.419 . S
C425 C426 1.362 . S
C426 H418 0.930 . S
C426 C425 1.362 . S
C426 C429 1.409 . S
C427 H419 0.930 . S
C427 C428 1.355 . S
C427 C429 1.415 1_545 S
C428 C427 1.355 . S
C428 C430 1.419 . S
C429 C424 1.425 1_565 S
C429 C426 1.409 . S
C429 C427 1.415 1_565 S
C430 H420 0.930 . S
C430 C428 1.419 . S
C430 C431 1.362 . S
C431 H421 0.930 . S
C431 C424 1.409 . S
C431 C430 1.362 . S
H432 C438 0.930 . S
H433 C441 0.930 . S
H434 C442 0.930 . S
H435 C443 0.930 . S
H436 C446 0.930 . S
H437 C447 0.930 . S
C438 H432 0.930 . S
C438 C439 1.355 . S
C438 C440 1.415 1_565 S
C439 C438 1.355 . S
C439 C441 1.419 . S
C440 C438 1.415 1_545 S
C440 C445 1.425 1_645 S
C440 C447 1.409 . S
C441 H433 0.930 . S
C441 C439 1.419 . S
C441 C442 1.362 1_655 S
C442 H434 0.930 . S
C442 C441 1.362 1_455 S
C442 C445 1.409 . S
C443 H435 0.930 . S
C443 C444 1.355 . S
C443 C445 1.415 1_545 S
C444 C443 1.355 . S
C444 C446 1.419 . S
C445 C440 1.425 1_465 S
C445 C442 1.409 . S
C445 C443 1.415 1_565 S
C446 H436 0.930 . S
C446 C444 1.419 . S
C446 C447 1.362 1_455 S
C447 H437 0.930 . S
C447 C440 1.409 . S
C447 C446 1.362 1_655 S
H448 C454 0.930 . S
H449 C457 0.930 . S
H450 C458 0.930 . S
H451 C459 0.930 . S
H452 C462 0.930 . S
H453 C463 0.930 . S
C454 H448 0.930 . S
C454 C455 1.355 . S
C454 C456 1.415 . S
C455 C454 1.355 . S
C455 C457 1.419 . S
C456 C454 1.415 . S
C456 C461 1.425 1_455 S
C456 C463 1.409 . S
C457 H449 0.930 . S
C457 C455 1.419 . S
C457 C458 1.362 1_455 S
C458 H450 0.930 . S
C458 C457 1.362 1_655 S
C458 C461 1.409 . S
C459 H451 0.930 . S
C459 C460 1.355 . S
C459 C461 1.415 . S
C460 C459 1.355 . S
C460 C462 1.419 . S
C461 C456 1.425 1_655 S
C461 C458 1.409 . S
C461 C459 1.415 . S
C462 H452 0.930 . S
C462 C460 1.419 . S
C462 C463 1.362 1_655 S
C463 H453 0.930 . S
C463 C456 1.409 . S
C463 C462 1.362 1_455 S
H464 C470 0.930 . S
H465 C473 0.930 . S
H466 C474 0.930 . S
H467 C475 0.930 . S
H468 C478 0.930 . S
H469 C479 0.930 . S
C470 H464 0.930 . S
C470 C471 1.355 . S
C470 C472 1.415 . S
C471 C470 1.355 . S
C471 C473 1.419 . S
C472 C470 1.415 . S
C472 C477 1.425 . S
C472 C479 1.409 . S
C473 H465 0.930 . S
C473 C471 1.419 . S
C473 C474 1.362 . S
C474 H466 0.930 . S
C474 C473 1.362 . S
C474 C477 1.409 . S
C475 H467 0.930 . S
C475 C476 1.355 . S
C475 C477 1.415 . S
C476 C475 1.355 . S
C476 C478 1.419 . S
C477 C472 1.425 . S
C477 C474 1.409 . S
C477 C475 1.415 . S
C478 H468 0.930 . S
C478 C476 1.419 . S
C478 C479 1.362 . S
C479 H469 0.930 . S
C479 C472 1.409 . S
C479 C478 1.362 . S
H480 C486 0.930 . S
H481 C489 0.930 . S
H482 C490 0.930 . S
H483 C491 0.930 . S
H484 C494 0.930 . S
H485 C495 0.930 . S
C486 H480 0.930 . S
C486 C487 1.355 . S
C486 C488 1.415 . S
C487 C486 1.355 . S
C487 C489 1.419 . S
C488 C486 1.415 . S
C488 C493 1.425 . S
C488 C495 1.409 . S
C489 H481 0.930 . S
C489 C487 1.419 . S
C489 C490 1.362 . S
C490 H482 0.930 . S
C490 C489 1.362 . S
C490 C493 1.409 . S
C491 H483 0.930 . S
C491 C492 1.355 . S
C491 C493 1.415 . S
C492 C491 1.355 . S
C492 C494 1.419 . S
C493 C488 1.425 . S
C493 C490 1.409 . S
C493 C491 1.415 . S
C494 H484 0.930 . S
C494 C492 1.419 . S
C494 C495 1.362 . S
C495 H485 0.930 . S
C495 C488 1.409 . S
C495 C494 1.362 . S
H496 C502 0.930 . S
H497 C505 0.930 . S
H498 C506 0.930 . S
H499 C507 0.930 . S
H500 C510 0.930 . S
H501 C511 0.930 . S
C502 H496 0.930 . S
C502 C503 1.355 . S
C502 C504 1.415 . S
C503 C502 1.355 . S
C503 C505 1.419 . S
C504 C502 1.415 . S
C504 C509 1.425 . S
C504 C511 1.409 . S
C505 H497 0.930 . S
C505 C503 1.419 . S
C505 C506 1.362 . S
C506 H498 0.930 . S
C506 C505 1.362 . S
C506 C509 1.409 . S
C507 H499 0.930 . S
C507 C508 1.355 . S
C507 C509 1.415 . S
C508 C507 1.355 . S
C508 C510 1.419 . S
C509 C504 1.425 . S
C509 C506 1.409 . S
C509 C507 1.415 . S
C510 H500 0.930 . S
C510 C508 1.419 . S
C510 C511 1.362 . S
C511 H501 0.930 . S
C511 C504 1.409 . S
C511 C510 1.362 . S
H512 C518 0.930 . S
H513 C521 0.930 . S
H514 C522 0.930 . S
H515 C523 0.930 . S
H516 C526 0.930 . S
H517 C527 0.930 . S
C518 H512 0.930 . S
C518 C519 1.355 . S
C518 C520 1.415 . S
C519 C518 1.355 . S
C519 C521 1.419 . S
C520 C518 1.415 . S
C520 C525 1.425 . S
C520 C527 1.409 . S
C521 H513 0.930 . S
C521 C519 1.419 . S
C521 C522 1.362 . S
C522 H514 0.930 . S
C522 C521 1.362 . S
C522 C525 1.409 . S
C523 H515 0.930 . S
C523 C524 1.355 . S
C523 C525 1.415 . S
C524 C523 1.355 . S
C524 C526 1.419 . S
C525 C520 1.425 . S
C525 C522 1.409 . S
C525 C523 1.415 . S
C526 H516 0.930 . S
C526 C524 1.419 . S
C526 C527 1.362 . S
C527 H517 0.930 . S
C527 C520 1.409 . S
C527 C526 1.362 . S
H528 C534 0.930 . S
H529 C537 0.930 . S
H530 C538 0.930 . S
H531 C539 0.930 . S
H532 C542 0.930 . S
H533 C543 0.930 . S
C534 H528 0.930 . S
C534 C535 1.355 . S
C534 C536 1.415 . S
C535 C534 1.355 . S
C535 C537 1.419 . S
C536 C534 1.415 . S
C536 C541 1.425 . S
C536 C543 1.409 . S
C537 H529 0.930 . S
C537 C535 1.419 . S
C537 C538 1.362 . S
C538 H530 0.930 . S
C538 C537 1.362 . S
C538 C541 1.409 . S
C539 H531 0.930 . S
C539 C540 1.355 . S
C539 C541 1.415 . S
C540 C539 1.355 . S
C540 C542 1.419 . S
C541 C536 1.425 . S
C541 C538 1.409 . S
C541 C539 1.415 . S
C542 H532 0.930 . S
C542 C540 1.419 . S
C542 C543 1.362 . S
C543 H533 0.930 . S
C543 C536 1.409 . S
C543 C542 1.362 . S
H544 C550 0.930 . S
H545 C553 0.930 . S
H546 C554 0.930 . S
H547 C555 0.930 . S
H548 C558 0.930 . S
H549 C559 0.930 . S
C550 H544 0.930 . S
C550 C551 1.355 . S
C550 C552 1.415 . S
C551 C550 1.355 . S
C551 C553 1.419 . S
C552 C550 1.415 . S
C552 C557 1.425 . S
C552 C559 1.409 . S
C553 H545 0.930 . S
C553 C551 1.419 . S
C553 C554 1.362 . S
C554 H546 0.930 . S
C554 C553 1.362 . S
C554 C557 1.409 . S
C555 H547 0.930 . S
C555 C556 1.355 . S
C555 C557 1.415 . S
C556 C555 1.355 . S
C556 C558 1.419 . S
C557 C552 1.425 . S
C557 C554 1.409 . S
C557 C555 1.415 . S
C558 H548 0.930 . S
C558 C556 1.419 . S
C558 C559 1.362 . S
C559 H549 0.930 . S
C559 C552 1.409 . S
C559 C558 1.362 . S
H560 C566 0.930 . S
H561 C569 0.930 . S
H562 C570 0.930 . S
H563 C571 0.930 . S
H564 C574 0.930 . S
H565 C575 0.930 1_545 S
C566 H560 0.930 . S
C566 C567 1.355 . S
C566 C568 1.415 . S
C567 C566 1.355 . S
C567 C569 1.419 . S
C568 C566 1.415 . S
C568 C573 1.425 . S
C568 C575 1.409 . S
C569 H561 0.930 . S
C569 C567 1.419 . S
C569 C570 1.362 . S
C570 H562 0.930 . S
C570 C569 1.362 . S
C570 C573 1.409 . S
C571 H563 0.930 . S
C571 C572 1.355 . S
C571 C573 1.415 . S
C572 C571 1.355 . S
C572 C574 1.419 . S
C573 C568 1.425 . S
C573 C570 1.409 . S
C573 C571 1.415 . S
C574 H564 0.930 . S
C574 C572 1.419 . S
C574 C575 1.362 . S
C575 H565 0.930 1_565 S
C575 C568 1.409 . S
C575 C574 1.362 . S
H576 C582 0.930 . S
H577 C585 0.930 . S
H578 C586 0.930 . S
H579 C587 0.930 . S
H580 C590 0.930 . S
H581 C591 0.930 . S
C582 H576 0.930 . S
C582 C583 1.355 . S
C582 C584 1.415 . S
C583 C582 1.355 . S
C583 C585 1.419 . S
C584 C582 1.415 . S
C584 C589 1.425 . S
C584 C591 1.409 . S
C585 H577 0.930 . S
C585 C583 1.419 . S
C585 C586 1.362 . S
C586 H578 0.930 . S
C586 C585 1.362 . S
C586 C589 1.409 . S
C587 H579 0.930 . S
C587 C588 1.355 . S
C587 C589 1.415 . S
C588 C587 1.355 . S
C588 C590 1.419 . S
C589 C584 1.425 . S
C589 C586 1.409 . S
C589 C587 1.415 . S
C590 H580 0.930 . S
C590 C588 1.419 . S
C590 C591 1.362 . S
C591 H581 0.930 . S
C591 C584 1.409 . S
C591 C590 1.362 . S
H592 C598 0.930 . S
H593 C601 0.930 . S
H594 C602 0.930 . S
H595 C603 0.930 . S
H596 C606 0.930 . S
H597 C607 0.930 . S
C598 H592 0.930 . S
C598 C599 1.355 . S
C598 C600 1.415 . S
C599 C598 1.355 . S
C599 C601 1.419 . S
C600 C598 1.415 . S
C600 C605 1.425 . S
C600 C607 1.409 . S
C601 H593 0.930 . S
C601 C599 1.419 . S
C601 C602 1.362 . S
C602 H594 0.930 . S
C602 C601 1.362 . S
C602 C605 1.409 . S
C603 H595 0.930 . S
C603 C604 1.355 . S
C603 C605 1.415 . S
C604 C603 1.355 . S
C604 C606 1.419 . S
C605 C600 1.425 . S
C605 C602 1.409 . S
C605 C603 1.415 . S
C606 H596 0.930 . S
C606 C604 1.419 . S
C606 C607 1.362 . S
C607 H597 0.930 . S
C607 C600 1.409 . S
C607 C606 1.362 . S
H608 C614 0.930 . S
H609 C617 0.930 . S
H610 C618 0.930 . S
H611 C619 0.930 . S
H612 C622 0.930 . S
H613 C623 0.930 . S
C614 H608 0.930 . S
C614 C615 1.355 . S
C614 C616 1.415 . S
C615 C614 1.355 . S
C615 C617 1.419 . S
C616 C614 1.415 . S
C616 C621 1.425 . S
C616 C623 1.409 . S
C617 H609 0.930 . S
C617 C615 1.419 . S
C617 C618 1.362 . S
C618 H610 0.930 . S
C618 C617 1.362 . S
C618 C621 1.409 . S
C619 H611 0.930 . S
C619 C620 1.355 . S
C619 C621 1.415 . S
C620 C619 1.355 . S
C620 C622 1.419 . S
C621 C616 1.425 . S
C621 C618 1.409 . S
C621 C619 1.415 . S
C622 H612 0.930 . S
C622 C620 1.419 . S
C622 C623 1.362 . S
C623 H613 0.930 . S
C623 C616 1.409 . S
C623 C622 1.362 . S
H624 C630 0.930 . S
H625 C633 0.930 . S
H626 C634 0.930 . S
H627 C635 0.930 . S
H628 C638 0.930 . S
H629 C639 0.930 . S
C630 H624 0.930 . S
C630 C631 1.355 . S
C630 C632 1.415 . S
C631 C630 1.355 . S
C631 C633 1.419 . S
C632 C630 1.415 . S
C632 C637 1.425 . S
C632 C639 1.409 . S
C633 H625 0.930 . S
C633 C631 1.419 . S
C633 C634 1.362 . S
C634 H626 0.930 . S
C634 C633 1.362 . S
C634 C637 1.409 . S
C635 H627 0.930 . S
C635 C636 1.355 . S
C635 C637 1.415 . S
C636 C635 1.355 . S
C636 C638 1.419 . S
C637 C632 1.425 . S
C637 C634 1.409 . S
C637 C635 1.415 . S
C638 H628 0.930 . S
C638 C636 1.419 . S
C638 C639 1.362 . S
C639 H629 0.930 . S
C639 C632 1.409 . S
C639 C638 1.362 . S
H640 C646 0.930 . S
H641 C649 0.930 . S
H642 C650 0.930 . S
H643 C651 0.930 . S
H644 C654 0.930 . S
H645 C655 0.930 . S
C646 H640 0.930 . S
C646 C647 1.355 . S
C646 C648 1.415 1_556 S
C647 C646 1.355 . S
C647 C649 1.419 . S
C648 C646 1.415 1_554 S
C648 C653 1.425 1_554 S
C648 C655 1.409 . S
C649 H641 0.930 . S
C649 C647 1.419 . S
C649 C650 1.362 . S
C650 H642 0.930 . S
C650 C649 1.362 . S
C650 C653 1.409 . S
C651 H643 0.930 . S
C651 C652 1.355 . S
C651 C653 1.415 1_554 S
C652 C651 1.355 . S
C652 C654 1.419 . S
C653 C648 1.425 1_556 S
C653 C650 1.409 . S
C653 C651 1.415 1_556 S
C654 H644 0.930 . S
C654 C652 1.419 . S
C654 C655 1.362 . S
C655 H645 0.930 . S
C655 C648 1.409 . S
C655 C654 1.362 . S
H656 C662 0.930 . S
H657 C665 0.930 . S
H658 C666 0.930 . S
H659 C667 0.930 . S
H660 C670 0.930 . S
H661 C671 0.930 . S
C662 H656 0.930 . S
C662 C663 1.355 . S
C662 C664 1.415 1_554 S
C663 C662 1.355 . S
C663 C665 1.419 . S
C664 C662 1.415 1_556 S
C664 C669 1.425 1_556 S
C664 C671 1.409 . S
C665 H657 0.930 . S
C665 C663 1.419 . S
C665 C666 1.362 . S
C666 H658 0.930 . S
C666 C665 1.362 . S
C666 C669 1.409 . S
C667 H659 0.930 . S
C667 C668 1.355 . S
C667 C669 1.415 1_556 S
C668 C667 1.355 . S
C668 C670 1.419 . S
C669 C664 1.425 1_554 S
C669 C666 1.409 . S
C669 C667 1.415 1_554 S
C670 H660 0.930 . S
C670 C668 1.419 . S
C670 C671 1.362 . S
C671 H661 0.930 . S
C671 C664 1.409 . S
C671 C670 1.362 . S
H672 C678 0.930 . S
H673 C681 0.930 . S
H674 C682 0.930 . S
H675 C683 0.930 . S
H676 C686 0.930 . S
H677 C687 0.930 . S
C678 H672 0.930 . S
C678 C679 1.355 . S
C678 C680 1.415 . S
C679 C678 1.355 . S
C679 C681 1.419 . S
C680 C678 1.415 . S
C680 C685 1.425 . S
C680 C687 1.409 . S
C681 H673 0.930 . S
C681 C679 1.419 . S
C681 C682 1.362 . S
C682 H674 0.930 . S
C682 C681 1.362 . S
C682 C685 1.409 . S
C683 H675 0.930 . S
C683 C684 1.355 . S
C683 C685 1.415 . S
C684 C683 1.355 . S
C684 C686 1.419 . S
C685 C680 1.425 . S
C685 C682 1.409 . S
C685 C683 1.415 . S
C686 H676 0.930 . S
C686 C684 1.419 . S
C686 C687 1.362 . S
C687 H677 0.930 . S
C687 C680 1.409 . S
C687 C686 1.362 . S
H688 C694 0.930 . S
H689 C697 0.930 . S
H690 C698 0.930 . S
H691 C699 0.930 . S
H692 C702 0.930 . S
H693 C703 0.930 . S
C694 H688 0.930 . S
C694 C695 1.355 . S
C694 C696 1.415 . S
C695 C694 1.355 . S
C695 C697 1.419 . S
C696 C694 1.415 . S
C696 C701 1.425 . S
C696 C703 1.409 . S
C697 H689 0.930 . S
C697 C695 1.419 . S
C697 C698 1.362 . S
C698 H690 0.930 . S
C698 C697 1.362 . S
C698 C701 1.409 . S
C699 H691 0.930 . S
C699 C700 1.355 . S
C699 C701 1.415 . S
C700 C699 1.355 . S
C700 C702 1.419 . S
C701 C696 1.425 . S
C701 C698 1.409 . S
C701 C699 1.415 . S
C702 H692 0.930 . S
C702 C700 1.419 . S
C702 C703 1.362 . S
C703 H693 0.930 . S
C703 C696 1.409 . S
C703 C702 1.362 . S
H704 C710 0.930 . S
H705 C713 0.930 . S
H706 C714 0.930 . S
H707 C715 0.930 . S
H708 C718 0.930 . S
H709 C719 0.930 . S
C710 H704 0.930 . S
C710 C711 1.355 . S
C710 C712 1.415 . S
C711 C710 1.355 . S
C711 C713 1.419 . S
C712 C710 1.415 . S
C712 C717 1.425 . S
C712 C719 1.409 . S
C713 H705 0.930 . S
C713 C711 1.419 . S
C713 C714 1.362 . S
C714 H706 0.930 . S
C714 C713 1.362 . S
C714 C717 1.409 . S
C715 H707 0.930 . S
C715 C716 1.355 . S
C715 C717 1.415 . S
C716 C715 1.355 . S
C716 C718 1.419 . S
C717 C712 1.425 . S
C717 C714 1.409 . S
C717 C715 1.415 . S
C718 H708 0.930 . S
C718 C716 1.419 . S
C718 C719 1.362 . S
C719 H709 0.930 . S
C719 C712 1.409 . S
C719 C718 1.362 . S
C215 C133 2.022 . S
C220 C3 2.023 . S
C231 C18 2.171 . S
C236 C148 2.169 . S
C247 C107 1.983 . S
C252 C29 1.982 . S
C263 C122 2.172 . S
C268 C44 2.172 . S
C279 C55 1.971 . S
C284 C185 1.973 . S
C295 C200 2.132 . S
C300 C70 2.135 . S
C311 C81 1.970 . S
C316 C159 1.971 . S
C327 C174 2.170 . S
C332 C96 2.167 . S
C343 C131 1.657 . S
C348 C1 1.660 . S
C359 C23 1.817 . S
C364 C153 1.815 . S
C375 C27 1.742 . S
C380 C105 1.741 . S
C391 C49 1.787 . S
C396 C127 1.785 . S
C407 C53 1.666 . S
C412 C183 1.669 . S
C423 C75 1.777 . S
C428 C205 1.777 . S
C439 C157 1.740 . S
C444 C79 1.741 . S
C455 C179 1.778 . S
C460 C101 1.778 . S
C471 C10 1.593 . S
C476 C88 1.595 . S
C487 C14 1.564 . S
C492 C92 1.585 . S
C503 C36 1.596 . S
C508 C62 1.601 . S
C519 C40 1.573 . S
C524 C66 1.605 . S
C535 C114 1.594 . S
C540 C192 1.593 . S
C551 C196 1.567 . S
C556 C118 1.605 . S
C567 C140 1.612 . S
C572 C166 1.608 . S
C583 C170 1.605 . S
C588 C144 1.570 . S
C599 C5 1.749 . S
C604 C198 1.689 . S
C615 C161 1.748 . S
C620 C16 1.687 . S
C631 C172 1.703 . S
C636 C31 1.748 . S
C647 C187 1.721 . S
C652 C42 1.642 . S
C663 C120 1.640 . S
C668 C57 1.722 . S
C679 C135 1.743 . S
C684 C68 1.674 . S
C695 C83 1.756 . S
C700 C146 1.710 . S
C711 C94 1.711 . S
C716 C109 1.756 . S
