# Generated by pormake.
# Topology zfn, (5)-cn, num edge types: 1
# Building blocks:
#     Node 0, Type 0, BuildingBlock: XOMCOT_clean_sbu_0, # of connection points: 5
#     Node 1, Type 0, BuildingBlock: XOMCOT_clean_sbu_0, # of connection points: 5
#     Node 2, Type 0, BuildingBlock: XOMCOT_clean_sbu_0, # of connection points: 5
#     Node 3, Type 0, BuildingBlock: XOMCOT_clean_sbu_0, # of connection points: 5
#     Node 4, Type 0, BuildingBlock: XOMCOT_clean_sbu_0, # of connection points: 5
#     Node 5, Type 0, BuildingBlock: XOMCOT_clean_sbu_0, # of connection points: 5
#     Node 6, Type 0, BuildingBlock: XOMCOT_clean_sbu_0, # of connection points: 5
#     Node 7, Type 0, BuildingBlock: XOMCOT_clean_sbu_0, # of connection points: 5
#     Node 8, Type 0, BuildingBlock: XOMCOT_clean_sbu_0, # of connection points: 5
#     Node 9, Type 0, BuildingBlock: XOMCOT_clean_sbu_0, # of connection points: 5
#     Node 10, Type 0, BuildingBlock: XOMCOT_clean_sbu_0, # of connection points: 5
#     Node 11, Type 0, BuildingBlock: XOMCOT_clean_sbu_0, # of connection points: 5
#     Node 12, Type 0, BuildingBlock: XOMCOT_clean_sbu_0, # of connection points: 5
#     Node 13, Type 0, BuildingBlock: XOMCOT_clean_sbu_0, # of connection points: 5
#     Node 14, Type 0, BuildingBlock: XOMCOT_clean_sbu_0, # of connection points: 5
#     Node 15, Type 0, BuildingBlock: XOMCOT_clean_sbu_0, # of connection points: 5
#     Edge 16, Type (0, 0), BuildingBlock: ZUJKAS_clean_linker_0, # of connection points: 2
#     Edge 17, Type (0, 0), BuildingBlock: ZUJKAS_clean_linker_0, # of connection points: 2
#     Edge 18, Type (0, 0), BuildingBlock: ZUJKAS_clean_linker_0, # of connection points: 2
#     Edge 19, Type (0, 0), BuildingBlock: ZUJKAS_clean_linker_0, # of connection points: 2
#     Edge 20, Type (0, 0), BuildingBlock: ZUJKAS_clean_linker_0, # of connection points: 2
#     Edge 21, Type (0, 0), BuildingBlock: ZUJKAS_clean_linker_0, # of connection points: 2
#     Edge 22, Type (0, 0), BuildingBlock: ZUJKAS_clean_linker_0, # of connection points: 2
#     Edge 23, Type (0, 0), BuildingBlock: ZUJKAS_clean_linker_0, # of connection points: 2
#     Edge 24, Type (0, 0), BuildingBlock: ZUJKAS_clean_linker_0, # of connection points: 2
#     Edge 25, Type (0, 0), BuildingBlock: ZUJKAS_clean_linker_0, # of connection points: 2
#     Edge 26, Type (0, 0), BuildingBlock: ZUJKAS_clean_linker_0, # of connection points: 2
#     Edge 27, Type (0, 0), BuildingBlock: ZUJKAS_clean_linker_0, # of connection points: 2
#     Edge 28, Type (0, 0), BuildingBlock: ZUJKAS_clean_linker_0, # of connection points: 2
#     Edge 29, Type (0, 0), BuildingBlock: ZUJKAS_clean_linker_0, # of connection points: 2
#     Edge 30, Type (0, 0), BuildingBlock: ZUJKAS_clean_linker_0, # of connection points: 2
#     Edge 31, Type (0, 0), BuildingBlock: ZUJKAS_clean_linker_0, # of connection points: 2
#     Edge 32, Type (0, 0), BuildingBlock: ZUJKAS_clean_linker_0, # of connection points: 2
#     Edge 33, Type (0, 0), BuildingBlock: ZUJKAS_clean_linker_0, # of connection points: 2
#     Edge 34, Type (0, 0), BuildingBlock: ZUJKAS_clean_linker_0, # of connection points: 2
#     Edge 35, Type (0, 0), BuildingBlock: ZUJKAS_clean_linker_0, # of connection points: 2
#     Edge 36, Type (0, 0), BuildingBlock: ZUJKAS_clean_linker_0, # of connection points: 2
#     Edge 37, Type (0, 0), BuildingBlock: ZUJKAS_clean_linker_0, # of connection points: 2
#     Edge 38, Type (0, 0), BuildingBlock: ZUJKAS_clean_linker_0, # of connection points: 2
#     Edge 39, Type (0, 0), BuildingBlock: ZUJKAS_clean_linker_0, # of connection points: 2
#     Edge 40, Type (0, 0), BuildingBlock: ZUJKAS_clean_linker_0, # of connection points: 2
#     Edge 41, Type (0, 0), BuildingBlock: ZUJKAS_clean_linker_0, # of connection points: 2
#     Edge 42, Type (0, 0), BuildingBlock: ZUJKAS_clean_linker_0, # of connection points: 2
#     Edge 43, Type (0, 0), BuildingBlock: ZUJKAS_clean_linker_0, # of connection points: 2
#     Edge 44, Type (0, 0), BuildingBlock: ZUJKAS_clean_linker_0, # of connection points: 2
#     Edge 45, Type (0, 0), BuildingBlock: ZUJKAS_clean_linker_0, # of connection points: 2
#     Edge 46, Type (0, 0), BuildingBlock: ZUJKAS_clean_linker_0, # of connection points: 2
#     Edge 47, Type (0, 0), BuildingBlock: ZUJKAS_clean_linker_0, # of connection points: 2
#     Edge 48, Type (0, 0), BuildingBlock: ZUJKAS_clean_linker_0, # of connection points: 2
#     Edge 49, Type (0, 0), BuildingBlock: ZUJKAS_clean_linker_0, # of connection points: 2
#     Edge 50, Type (0, 0), BuildingBlock: ZUJKAS_clean_linker_0, # of connection points: 2
#     Edge 51, Type (0, 0), BuildingBlock: ZUJKAS_clean_linker_0, # of connection points: 2
#     Edge 52, Type (0, 0), BuildingBlock: ZUJKAS_clean_linker_0, # of connection points: 2
#     Edge 53, Type (0, 0), BuildingBlock: ZUJKAS_clean_linker_0, # of connection points: 2
#     Edge 54, Type (0, 0), BuildingBlock: ZUJKAS_clean_linker_0, # of connection points: 2
#     Edge 55, Type (0, 0), BuildingBlock: ZUJKAS_clean_linker_0, # of connection points: 2
# Relax obj value: 0.134
# Max RMSD: 0.139
# Mean RMSD: 0.139
data_MOF--net-zfn--node1-XOMCOT_clean_sbu_0--edge1-ZUJKAS_clean_linker_0
_symmetry_space_group_name_H-M    P1
_symmetry_Int_Tables_number       1
_symmetry_cell_setting            triclinic
loop_
_symmetry_equiv_pos_as_xyz
'x, y, z'
_cell_length_a     95.59428
_cell_length_b     95.598785
_cell_length_c     22.069755
_cell_angle_alpha  90.002489
_cell_angle_beta   90.023232
_cell_angle_gamma 89.996664
loop_
_atom_site_label
_atom_site_type_symbol
_atom_site_fract_x
_atom_site_fract_y
_atom_site_fract_z
_atom_type_partial_charge
Co0 Co 0.02188 0.34611 0.20609 0.0
C1 C 0.02464 0.34951 0.34139 0.0
C2 C 0.04431 0.34757 0.29559 0.0
C3 C 0.0468 0.34793 0.35695 0.0
N4 N 0.03042 0.34862 0.28552 0.0
N5 N 0.03442 0.34917 0.38555 0.0
H6 H 0.0136 0.34968 0.35065 0.0
H7 H 0.05209 0.34623 0.2605 0.0
C8 C 0.03882 0.37211 0.19608 0.0
O9 O 0.03411 0.37568 0.24983 0.0
N10 N 0.01377 0.34325 0.12687 0.0
C11 C 0.00096 0.33808 0.11485 0.0
C12 C -0.00072 0.33731 0.05293 0.0
C13 C 0.0197 0.34566 0.07237 0.0
N14 N 0.01104 0.34212 0.02645 0.0
C15 C 0.99676 0.35663 0.26149 0.0
C16 C 0.9953 0.38107 0.19511 0.0
C17 C 0.985 0.37841 0.23869 0.0
C18 C 0.9857 0.36588 0.27153 0.0
C19 C 0.00614 0.37152 0.18653 0.0
N20 N 0.00726 0.35984 0.22195 0.0
H21 H 0.99667 0.3467 0.28468 0.0
H22 H 0.01332 0.37337 0.1497 0.0
H23 H 0.99337 0.33506 0.14876 0.0
H24 H 0.03019 0.34965 0.06628 0.0
O25 O 0.01256 0.32957 0.23542 0.0
O26 O 0.03369 0.32998 0.19396 0.0
O27 O 0.03481 0.3607 0.17146 0.0
C28 C 0.02368 0.32275 0.21878 0.0
H29 H 0.05689 0.34715 0.37892 0.0
H30 H 0.99006 0.33368 0.02916 0.0
H31 H 0.99476 0.39024 0.16636 0.0
H32 H 0.97775 0.3632 0.30446 0.0
Co33 Co 0.14769 0.0168 0.6892 0.0
C34 C 0.1459 0.01968 0.82466 0.0
C35 C 0.14415 0.03924 0.77806 0.0
C36 C 0.14381 0.0418 0.83937 0.0
N37 N 0.14515 0.02534 0.76858 0.0
N38 N 0.14494 0.02948 0.86863 0.0
H39 H 0.14743 0.00875 0.83388 0.0
H40 H 0.14399 0.04705 0.7426 0.0
C41 C 0.12092 0.03251 0.67983 0.0
O42 O 0.11749 0.02732 0.73293 0.0
N43 N 0.15054 0.00874 0.61009 0.0
C44 C 0.15409 0.99542 0.59774 0.0
C45 C 0.15489 0.99385 0.53583 0.0
C46 C 0.14929 0.01513 0.55591 0.0
N47 N 0.15186 0.00625 0.5095 0.0
C48 C 0.13825 0.99155 0.747 0.0
C49 C 0.11379 0.98876 0.68156 0.0
C50 C 0.11694 0.97881 0.72615 0.0
C51 C 0.12945 0.98022 0.75857 0.0
C52 C 0.12288 -7e-05 0.67159 0.0
N53 N 0.13456 0.00171 0.70654 0.0
H54 H 0.1483 0.99182 0.76912 0.0
H55 H 0.12065 0.0069 0.6344 0.0
H56 H 0.15583 0.98739 0.63141 0.0
H57 H 0.14668 0.02608 0.55079 0.0
O58 O 0.16464 0.00808 0.7173 0.0
O59 O 0.16334 0.0292 0.67597 0.0
O60 O 0.13252 0.02914 0.65506 0.0
C61 C 0.17101 0.01944 0.70028 0.0
H62 H 0.1433 0.05198 0.8607 0.0
H63 H 0.15724 0.98423 0.51217 0.0
H64 H 0.10441 0.98791 0.65428 0.0
H65 H 0.13265 0.97239 0.79124 0.0
Co66 Co 0.47486 0.14901 0.20013 0.0
C67 C 0.47204 0.14706 0.33548 0.0
C68 C 0.45246 0.1453 0.28905 0.0
C69 C 0.44994 0.14497 0.35036 0.0
N70 N 0.46636 0.1463 0.27944 0.0
N71 N 0.46228 0.14609 0.37962 0.0
H72 H 0.48291 0.14907 0.34442 0.0
H73 H 0.44463 0.14509 0.25368 0.0
C74 C 0.45862 0.12258 0.18859 0.0
O75 O 0.46382 0.11876 0.24119 0.0
N76 N 0.48294 0.15204 0.12111 0.0
C77 C 0.49628 0.15562 0.10924 0.0
C78 C 0.49802 0.15623 0.04739 0.0
C79 C 0.47669 0.15063 0.06665 0.0
N80 N 0.48571 0.15307 0.02063 0.0
C81 C 0.49995 0.13859 0.25668 0.0
C82 C 0.50228 0.11477 0.18662 0.0
C83 C 0.51247 0.11742 0.23076 0.0
C84 C 0.51126 0.12957 0.26583 0.0
C85 C 0.49117 0.12405 0.17905 0.0
N86 N 0.48967 0.13545 0.21592 0.0
H87 H 0.49989 0.14843 0.28043 0.0
H88 H 0.48409 0.12225 0.14183 0.0
H89 H 0.50421 0.1575 0.14324 0.0
H90 H 0.46587 0.14761 0.0609 0.0
O91 O 0.48397 0.16566 0.22948 0.0
O92 O 0.46279 0.16494 0.18831 0.0
O93 O 0.46216 0.13426 0.16498 0.0
C94 C 0.47273 0.17232 0.21294 0.0
H95 H 0.43978 0.14408 0.37154 0.0
H96 H 0.50761 0.15889 0.02402 0.0
H97 H 0.50293 0.10567 0.15752 0.0
H98 H 0.51925 0.13239 0.29841 0.0
Co99 Co 0.34555 0.47389 0.70151 0.0
C100 C 0.34793 0.47147 0.83676 0.0
C101 C 0.35182 0.45213 0.79094 0.0
C102 C 0.35243 0.44975 0.85233 0.0
N103 N 0.34937 0.46583 0.78089 0.0
N104 N 0.34995 0.46193 0.88112 0.0
H105 H 0.34499 0.48214 0.84544 0.0
H106 H 0.35267 0.44427 0.75589 0.0
C107 C 0.37295 0.45952 0.68623 0.0
O108 O 0.37697 0.46542 0.73715 0.0
N109 N 0.34145 0.48148 0.62249 0.0
C110 C 0.33685 0.49448 0.61027 0.0
C111 C 0.3357 0.49594 0.54842 0.0
C112 C 0.34299 0.47517 0.56828 0.0
N113 N 0.33958 0.4838 0.52199 0.0
C114 C 0.35505 0.49958 0.75597 0.0
C115 C 0.37795 0.50326 0.68142 0.0
C116 C 0.37527 0.51321 0.72656 0.0
C117 C 0.36354 0.51133 0.76374 0.0
C118 C 0.36918 0.4917 0.67523 0.0
N119 N 0.35833 0.48951 0.71443 0.0
H120 H 0.34548 0.49898 0.78148 0.0
H121 H 0.37096 0.48474 0.63756 0.0
H122 H 0.33473 0.50241 0.64397 0.0
H123 H 0.34651 0.46448 0.56297 0.0
O124 O 0.32866 0.48216 0.73265 0.0
O125 O 0.33025 0.4609 0.69276 0.0
O126 O 0.36075 0.46194 0.66502 0.0
C127 C 0.32251 0.47052 0.71765 0.0
H128 H 0.35395 0.43971 0.87403 0.0
H129 H 0.3326 0.50536 0.52481 0.0
H130 H 0.38671 0.50441 0.6507 0.0
H131 H 0.36066 0.51911 0.79713 0.0
Co132 Co 0.01581 0.1522 0.33142 0.0
C133 C 0.01881 0.15092 0.19824 0.0
C134 C 0.03773 0.1448 0.24348 0.0
C135 C 0.03992 0.14424 0.18183 0.0
N136 N 0.02449 0.14894 0.25357 0.0
N137 N 0.02802 0.14812 0.15328 0.0
H138 H 0.00823 0.15462 0.19135 0.0
H139 H 0.04531 0.14246 0.27844 0.0
C140 C 0.02347 0.12653 0.40076 0.0
O141 O 0.01022 0.12531 0.41584 0.0
N142 N 0.00743 0.15597 0.41075 0.0
C143 C 0.9958 0.1635 0.42286 0.0
C144 C 0.9943 0.16483 0.48456 0.0
C145 C 0.01327 0.15368 0.46584 0.0
N146 N 0.00527 0.15858 0.51167 0.0
C147 C 0.98741 0.14326 0.30898 0.0
C148 C 0.99414 0.11637 0.27356 0.0
C149 C 0.98 0.12003 0.27946 0.0
C150 C 0.9767 0.13382 0.29579 0.0
C151 C 0.00449 0.12613 0.28757 0.0
N152 N 0.00106 0.13912 0.30885 0.0
H153 H 0.98466 0.15391 0.31853 0.0
H154 H 0.01532 0.12314 0.28227 0.0
H155 H 0.98922 0.16855 0.38973 0.0
H156 H 0.02333 0.14876 0.47246 0.0
O157 O 0.00774 0.16916 0.30005 0.0
O158 O 0.02847 0.16757 0.34513 0.0
O159 O 0.0275 0.13672 0.36755 0.0
C160 C 0.01912 0.17533 0.31837 0.0
H161 H 0.04955 0.14113 0.15996 0.0
H162 H 0.98607 0.17052 0.50753 0.0
H163 H -0.00279 0.10605 0.25841 0.0
H164 H 0.96595 0.13726 0.29955 0.0
Co165 Co 0.34143 0.0175 0.82266 0.0
C166 C 0.34309 0.02019 0.68961 0.0
C167 C 0.34886 0.03932 0.73411 0.0
C168 C 0.34968 0.04131 0.67234 0.0
N169 N 0.3448 0.02607 0.74472 0.0
N170 N 0.34602 0.02928 0.64441 0.0
H171 H 0.33983 0.00946 0.68293 0.0
H172 H 0.3509 0.04705 0.76877 0.0
C173 C 0.36641 0.02573 0.89507 0.0
O174 O 0.36766 0.01252 0.91072 0.0
N175 N 0.33759 0.0092 0.902 0.0
C176 C 0.33088 -0.00289 0.91456 0.0
C177 C 0.32921 0.99591 0.97627 0.0
C178 C 0.33911 0.0155 0.95659 0.0
N179 N 0.33447 0.00746 1.00281 0.0
C180 C 0.3508 0.98935 0.7984 0.0
C181 C 0.37795 0.99644 0.76861 0.0
C182 C 0.37426 0.98227 0.77117 0.0
C183 C 0.36037 0.97879 0.78465 0.0
C184 C 0.36803 0.00664 0.7826 0.0
N185 N 0.35489 0.003 0.80132 0.0
H186 H 0.34006 0.9865 0.80542 0.0
H187 H 0.37099 0.01751 0.77888 0.0
H188 H 0.32668 0.98991 0.88173 0.0
H189 H 0.34306 0.02601 0.96234 0.0
O190 O 0.32478 0.00898 0.79056 0.0
O191 O 0.32571 0.02983 0.83483 0.0
O192 O 0.35651 0.02956 0.85978 0.0
C193 C 0.31827 0.02023 0.80801 0.0
H194 H 0.35243 0.05098 0.6498 0.0
H195 H 0.32434 0.98722 0.99954 0.0
H196 H 0.3884 -0.00035 0.75568 0.0
H197 H 0.35693 0.968 0.78548 0.0
Co198 Co 0.47812 0.34336 0.31585 0.0
C199 C 0.47521 0.34487 0.18272 0.0
C200 C 0.45619 0.35077 0.22775 0.0
C201 C 0.45409 0.35153 0.16603 0.0
N202 N 0.46945 0.34666 0.23801 0.0
N203 N 0.46605 0.3478 0.13773 0.0
H204 H 0.48592 0.34156 0.17577 0.0
H205 H 0.44853 0.35287 0.26262 0.0
C206 C 0.47035 0.36836 0.38877 0.0
O207 O 0.48358 0.36928 0.40461 0.0
N208 N 0.48652 0.33956 0.39511 0.0
C209 C 0.49874 0.3331 0.40762 0.0
C210 C 0.49999 0.33143 0.46932 0.0
C211 C 0.48019 0.34094 0.44974 0.0
N212 N 0.48834 0.33645 0.49594 0.0
C213 C 0.5063 0.35234 0.28903 0.0
C214 C 0.49939 0.37959 0.26009 0.0
C215 C 0.51353 0.37573 0.2612 0.0
C216 C 0.51691 0.36178 0.27429 0.0
C217 C 0.48916 0.36981 0.27519 0.0
N218 N 0.49272 0.35661 0.29345 0.0
H219 H 0.50903 0.34154 0.29548 0.0
H220 H 0.47831 0.3729 0.27237 0.0
H221 H 0.50605 0.3291 0.3748 0.0
H222 H 0.46963 0.34474 0.45551 0.0
O223 O 0.48635 0.3265 0.28422 0.0
O224 O 0.46561 0.32785 0.32922 0.0
O225 O 0.46633 0.35867 0.35281 0.0
C226 C 0.47505 0.3202 0.3025 0.0
H227 H 0.44438 0.35429 0.14379 0.0
H228 H 0.50879 0.32676 0.49256 0.0
H229 H 0.49624 0.39006 0.24733 0.0
H230 H 0.52765 0.3582 0.27396 0.0
Co231 Co 0.15168 0.47683 0.80811 0.0
C232 C 0.15037 0.47376 0.67499 0.0
C233 C 0.14395 0.45496 0.72037 0.0
C234 C 0.14337 0.45275 0.65872 0.0
N235 N 0.1483 0.46814 0.73038 0.0
N236 N 0.14744 0.46457 0.63008 0.0
H237 H 0.15422 0.48428 0.66802 0.0
H238 H 0.14149 0.44744 0.7554 0.0
C239 C 0.12613 0.46969 0.87914 0.0
O240 O 0.12515 0.483 0.89366 0.0
N241 N 0.15552 0.48525 0.88732 0.0
C242 C 0.16263 0.49714 0.89948 0.0
C243 C 0.16401 0.4986 0.96121 0.0
C244 C 0.15352 0.47926 0.94232 0.0
N245 N 0.1582 0.48738 0.98826 0.0
C246 C 0.14347 0.50528 0.78203 0.0
C247 C 0.11607 0.49916 0.75233 0.0
C248 C 0.12021 0.5132 0.75583 0.0
C249 C 0.13424 0.51619 0.76883 0.0
C250 C 0.12566 0.48861 0.76577 0.0
N251 N 0.13889 0.49178 0.78489 0.0
H252 H 0.1543 0.50774 0.78918 0.0
H253 H 0.12233 0.47785 0.76194 0.0
H254 H 0.16733 0.50396 0.86642 0.0
H255 H 0.14889 0.46906 0.94872 0.0
O256 O 0.16885 0.48453 0.77698 0.0
O257 O 0.16677 0.46391 0.82256 0.0
O258 O 0.13603 0.46547 0.84473 0.0
C259 C 0.17477 0.47307 0.79596 0.0
H260 H 0.14012 0.44315 0.63689 0.0
H261 H 0.16941 0.50702 0.9842 0.0
H262 H 0.1055 0.49634 0.73966 0.0
H263 H 0.13803 0.52686 0.77021 0.0
Co264 Co 0.97539 0.64835 0.81645 0.0
C265 C 0.97269 0.64638 0.68112 0.0
C266 C 0.95339 0.64259 0.72742 0.0
C267 C 0.95091 0.64212 0.66608 0.0
N268 N 0.96713 0.64492 0.73712 0.0
N269 N 0.96306 0.64452 0.63691 0.0
H270 H 0.98328 0.64955 0.67228 0.0
H271 H 0.94561 0.64159 0.76271 0.0
C272 C 0.96104 0.62087 0.82963 0.0
O273 O 0.96679 0.61712 0.77806 0.0
N274 N 0.98321 0.65205 0.89546 0.0
C275 C 0.99626 0.65659 0.9073 0.0
C276 C -0.00206 0.65741 0.96915 0.0
C277 C 0.97708 0.65027 0.94993 0.0
N278 N 0.98589 0.65341 0.99594 0.0
C279 C 0.00093 0.63919 0.75958 0.0
C280 C 0.00467 0.61566 0.83029 0.0
C281 C 0.01438 0.61852 0.78442 0.0
C282 C 0.01251 0.6306 0.74937 0.0
C283 C 0.99328 0.62454 0.83892 0.0
N284 N 0.99101 0.63569 0.80138 0.0
H285 H 0.00032 0.64896 0.73547 0.0
H286 H 0.98646 0.62255 0.87689 0.0
H287 H 0.00404 0.65898 0.87329 0.0
H288 H 0.9665 0.64647 0.9557 0.0
O289 O 0.9835 0.66545 0.78651 0.0
O290 O 0.96237 0.66354 0.82737 0.0
O291 O 0.96357 0.63294 0.85204 0.0
C292 C 0.97186 0.67145 0.80264 0.0
H293 H 0.94087 0.64028 0.64482 0.0
H294 H 0.00731 0.66078 0.99248 0.0
H295 H 0.00582 0.60663 0.85949 0.0
H296 H 0.02015 0.63363 0.71558 0.0
Co297 Co 0.84493 0.97452 0.32071 0.0
C298 C 0.84701 0.97183 0.18534 0.0
C299 C 0.85078 0.95252 0.23162 0.0
C300 C 0.85127 0.95004 0.17027 0.0
N301 N 0.8485 0.96627 0.24138 0.0
N302 N 0.84887 0.9622 0.14118 0.0
H303 H 0.84411 0.98249 0.17639 0.0
H304 H 0.8516 0.9447 0.26684 0.0
C305 C 0.87195 0.95952 0.33645 0.0
O306 O 0.8761 0.96533 0.28553 0.0
N307 N 0.84105 0.98228 0.39966 0.0
C308 C 0.83678 0.9954 0.41167 0.0
C309 C 0.83563 -0.00306 0.47349 0.0
C310 C 0.84239 0.97597 0.45401 0.0
N311 N 0.83918 0.98472 0.50015 0.0
C312 C 0.85538 -0.00035 0.26481 0.0
C313 C 0.87843 0.00274 0.33902 0.0
C314 C 0.87638 0.01233 0.29182 0.0
C315 C 0.8645 0.01083 0.25516 0.0
C316 C 0.86906 0.99171 0.34686 0.0
N317 N 0.85818 0.98972 0.30756 0.0
H318 H 0.84581 -0.00067 0.23922 0.0
H319 H 0.87045 0.98494 0.38553 0.0
H320 H 0.83488 0.00337 0.37783 0.0
H321 H 0.84562 0.9652 0.45954 0.0
O322 O 0.82833 0.98329 0.2893 0.0
O323 O 0.82921 0.96201 0.32937 0.0
O324 O 0.85978 0.96217 0.35749 0.0
C325 C 0.82181 0.97185 0.30409 0.0
H326 H 0.85267 0.93996 0.14884 0.0
H327 H 0.83275 0.00645 0.49694 0.0
H328 H 0.88703 0.00391 0.37061 0.0
H329 H 0.86222 0.01823 0.21934 0.0
Co330 Co 0.51577 0.84456 0.83044 0.0
C331 C 0.51823 0.84639 0.6973 0.0
C332 C 0.53752 0.85177 0.74149 0.0
C333 C 0.53945 0.85263 0.67974 0.0
N334 N 0.52421 0.84794 0.7523 0.0
N335 N 0.52733 0.84921 0.65199 0.0
H336 H 0.50745 0.84329 0.69076 0.0
H337 H 0.54534 0.85359 0.77601 0.0
C338 C 0.52454 0.86928 0.90378 0.0
O339 O 0.51158 0.87031 0.9232 0.0
N340 N 0.5076 0.84071 0.90994 0.0
C341 C 0.49528 0.83448 0.92277 0.0
C342 C 0.49417 0.8327 0.98443 0.0
C343 C 0.51411 0.84183 0.96425 0.0
N344 N 0.50599 0.83743 0.01063 0.0
C345 C 0.48769 0.85393 0.80516 0.0
C346 C 0.49473 0.88124 0.77813 0.0
C347 C 0.48057 0.87743 0.77867 0.0
C348 C 0.47713 0.86347 0.79101 0.0
C349 C 0.50492 0.87136 0.79268 0.0
N350 N 0.50129 0.8581 0.80982 0.0
H351 H 0.4849 0.84312 0.81072 0.0
H352 H 0.51578 0.8744 0.78976 0.0
H353 H 0.48779 0.83072 0.89017 0.0
H354 H 0.52475 0.84546 0.96968 0.0
O355 O 0.50713 0.82795 0.7986 0.0
O356 O 0.52808 0.8288 0.84202 0.0
O357 O 0.52799 0.8596 0.86671 0.0
C358 C 0.51841 0.8214 0.81547 0.0
H359 H 0.54915 0.8552 0.65706 0.0
H360 H 0.48532 0.8282 1.00795 0.0
H361 H 0.49794 0.89173 0.76594 0.0
H362 H 0.46638 0.85992 0.79033 0.0
Co363 Co 0.64964 0.5174 0.32264 0.0
C364 C 0.64893 0.52068 0.18956 0.0
C365 C 0.64343 0.53977 0.23496 0.0
C366 C 0.643 0.54202 0.17331 0.0
N367 N 0.64709 0.52638 0.24493 0.0
N368 N 0.64648 0.53001 0.14467 0.0
H369 H 0.65218 0.50996 0.18261 0.0
H370 H 0.64126 0.54737 0.27001 0.0
C371 C 0.62361 0.52532 0.38863 0.0
O372 O 0.62175 0.51202 0.40136 0.0
N373 N 0.65264 0.5087 0.40189 0.0
C374 C 0.65973 0.49682 0.41447 0.0
C375 C 0.66073 0.49524 0.47627 0.0
C376 C 0.65022 0.51454 0.45686 0.0
N377 N 0.65469 0.50637 0.50299 0.0
C378 C 0.64054 0.48931 0.2956 0.0
C379 C 0.61401 0.49652 0.25695 0.0
C380 C 0.6176 0.48233 0.26046 0.0
C381 C 0.6312 0.4788 0.27861 0.0
C382 C 0.62369 0.50668 0.2744 0.0
N383 N 0.63647 0.50298 0.29716 0.0
H384 H 0.65109 0.4864 0.30631 0.0
H385 H 0.62081 0.51757 0.27025 0.0
H386 H 0.66477 0.49014 0.38173 0.0
H387 H 0.64557 0.52474 0.46316 0.0
O388 O 0.66664 0.50909 0.29304 0.0
O389 O 0.66517 0.5297 0.33918 0.0
O390 O 0.6342 0.52929 0.35776 0.0
C391 C 0.67292 0.52028 0.31284 0.0
H392 H 0.6402 0.55176 0.15149 0.0
H393 H 0.66611 0.48686 0.49961 0.0
H394 H 0.60382 0.49977 0.24073 0.0
H395 H 0.63457 0.468 0.28064 0.0
Co396 Co 0.97513 0.84228 0.71037 0.0
C397 C 0.97212 0.8438 0.84354 0.0
C398 C 0.95332 0.8502 0.79804 0.0
C399 C 0.95113 0.85089 0.85968 0.0
N400 N 0.96648 0.8458 0.7881 0.0
N401 N 0.96295 0.84683 0.88841 0.0
H402 H 0.98263 0.83993 0.85057 0.0
H403 H 0.9458 0.85263 0.76298 0.0
C404 C 0.96809 0.86766 0.63838 0.0
O405 O 0.98137 0.86834 0.62326 0.0
N406 N 0.9835 0.83825 0.63119 0.0
C407 C 0.99534 0.83106 0.61928 0.0
C408 C 0.99679 0.82954 0.55762 0.0
C409 C 0.9775 0.84014 0.57609 0.0
N410 N 0.9856 0.83534 0.53032 0.0
C411 C 0.00359 0.85063 0.73542 0.0
C412 C -0.00262 0.87796 0.76576 0.0
C413 C 0.01144 0.87388 0.76221 0.0
C414 C 0.01447 0.85988 0.74865 0.0
C415 C 0.98686 0.86836 0.75206 0.0
N416 N 0.99007 0.85514 0.73292 0.0
H417 H 0.0061 0.83981 0.72812 0.0
H418 H 0.97609 0.87165 0.75596 0.0
H419 H 0.00214 0.82637 0.65251 0.0
H420 H 0.96731 0.84479 0.56953 0.0
O421 O 0.98291 0.82523 0.74215 0.0
O422 O 0.96224 0.82709 0.69677 0.0
O423 O 0.96376 0.85791 0.67337 0.0
C424 C 0.97147 0.8192 0.72358 0.0
H425 H 0.94155 0.85422 0.88142 0.0
H426 H 0.00517 0.82404 0.53487 0.0
H427 H 0.99451 0.88849 0.77886 0.0
H428 H 0.02515 0.85612 0.74704 0.0
Co429 Co 0.6518 0.97756 0.17538 0.0
C430 C 0.65042 0.97464 0.30855 0.0
C431 C 0.64467 0.95559 0.26343 0.0
C432 C 0.64415 0.95341 0.32509 0.0
N433 N 0.64856 0.9689 0.25325 0.0
N434 N 0.64781 0.96538 0.35355 0.0
H435 H 0.65394 0.98528 0.3154 0.0
H436 H 0.64254 0.94795 0.22851 0.0
C437 C 0.62669 0.96952 0.10299 0.0
O438 O 0.62582 0.98259 0.08486 0.0
N439 N 0.65551 0.98596 0.09614 0.0
C440 C 0.66176 -0.00169 0.0839 0.0
C441 C 0.66324 -0.00027 0.02222 0.0
C442 C 0.65413 0.97972 0.04132 0.0
N443 N 0.65833 0.98807 0.99531 0.0
C444 C 0.64301 0.00572 0.20326 0.0
C445 C 0.61556 -0.00091 0.22954 0.0
C446 C 0.61958 0.01319 0.22898 0.0
C447 C 0.63362 0.01642 0.21742 0.0
C448 C 0.6253 0.98876 0.21516 0.0
N449 N 0.6386 0.9922 0.19792 0.0
H450 H 0.65387 0.00834 0.19786 0.0
H451 H 0.6221 0.97794 0.21778 0.0
H452 H 0.66578 0.00558 0.11686 0.0
H453 H 0.65013 0.96924 0.03517 0.0
O454 O 0.6687 0.98577 0.2066 0.0
O455 O 0.66728 0.96501 0.16182 0.0
O456 O 0.63642 0.96574 0.13923 0.0
C457 C 0.67497 0.97444 0.18843 0.0
H458 H 0.64126 0.94371 0.34706 0.0
H459 H 0.66803 0.0085 0.99917 0.0
H460 H 0.60498 0.99605 0.24122 0.0
H461 H 0.63732 0.02712 0.21835 0.0
Co462 Co 0.51694 0.65114 0.68681 0.0
C463 C 0.51992 0.64949 0.82229 0.0
C464 C 0.53953 0.64864 0.77563 0.0
C465 C 0.54211 0.6485 0.83692 0.0
N466 N 0.52559 0.64897 0.7662 0.0
N467 N 0.52976 0.64905 0.86633 0.0
H468 H 0.50897 0.6509 0.83138 0.0
H469 H 0.54732 0.64871 0.74012 0.0
C470 C 0.5335 0.62487 0.67849 0.0
O471 O 0.529 0.62164 0.73295 0.0
N472 N 0.50873 0.65368 0.60771 0.0
C473 C 0.49532 0.65696 0.59566 0.0
C474 C 0.49355 0.65733 0.53376 0.0
C475 C 0.51499 0.65222 0.55333 0.0
N476 N 0.50592 0.65434 0.50719 0.0
C477 C 0.49187 0.64113 0.74453 0.0
C478 C 0.48956 0.61681 0.67775 0.0
C479 C 0.47928 0.61988 0.72092 0.0
C480 C 0.48051 0.63224 0.7545 0.0
C481 C 0.50076 0.62593 0.6695 0.0
N482 N 0.50221 0.63764 0.70458 0.0
H483 H 0.49194 0.65113 0.76697 0.0
H484 H 0.5079 0.6238 0.63283 0.0
H485 H 0.48737 0.65883 0.62954 0.0
H486 H 0.52587 0.64941 0.54773 0.0
O487 O 0.50782 0.6679 0.71462 0.0
O488 O 0.52893 0.66708 0.67296 0.0
O489 O 0.52956 0.63618 0.65281 0.0
C490 C 0.51901 0.67452 0.69733 0.0
H491 H 0.55232 0.64812 0.85798 0.0
H492 H 0.48391 0.65974 0.51022 0.0
H493 H 0.48886 0.60752 0.64979 0.0
H494 H 0.47246 0.63532 0.78635 0.0
Co495 Co 0.84311 0.51652 0.19396 0.0
C496 C 0.84521 0.51901 0.32713 0.0
C497 C 0.85182 0.53785 0.28249 0.0
C498 C 0.85277 0.53981 0.34423 0.0
N499 N 0.84715 0.5248 0.27195 0.0
N500 N 0.84858 0.52798 0.37228 0.0
H501 H 0.84141 0.50847 0.33389 0.0
H502 H 0.85412 0.5455 0.24782 0.0
C503 C 0.86798 0.52394 0.11925 0.0
O504 O 0.86852 0.51076 0.1024 0.0
N505 N 0.83858 0.50853 0.11461 0.0
C506 C 0.83148 0.49666 0.1022 0.0
C507 C 0.82961 0.49555 0.04057 0.0
C508 C 0.84011 0.51484 0.06002 0.0
N509 N 0.83514 0.50696 0.01391 0.0
C510 C 0.85144 0.48798 0.21657 0.0
C511 C 0.87907 0.49387 0.24305 0.0
C512 C 0.87478 0.47987 0.24019 0.0
C513 C 0.86067 0.477 0.22842 0.0
C514 C 0.86948 0.50451 0.23083 0.0
N515 N 0.85608 0.50145 0.21361 0.0
H516 H 0.84053 0.48561 0.2112 0.0
H517 H 0.87293 0.51524 0.23438 0.0
H518 H 0.82722 0.48952 0.13513 0.0
H519 H 0.8444 0.52521 0.05417 0.0
O520 O 0.82629 0.50858 0.22702 0.0
O521 O 0.82782 0.52947 0.1835 0.0
O522 O 0.85851 0.52805 0.15612 0.0
C523 C 0.82014 0.5201 0.21046 0.0
H524 H 0.85591 0.54938 0.36667 0.0
H525 H 0.82449 0.48699 0.0174 0.0
H526 H 0.8898 0.49662 0.25319 0.0
H527 H 0.85675 0.46637 0.22891 0.0
H528 H 0.9864 0.4069 0.24303 0.0
H529 H 0.967 0.42346 0.25112 0.0
H530 H 0.93781 0.38917 0.26203 0.0
H531 H 0.95715 0.3725 0.25348 0.0
H532 H 0.9446 0.42531 0.16968 0.0
H533 H 0.92624 0.41473 0.40413 0.0
H534 H 0.94323 0.40928 0.37712 0.0
H535 H 0.92787 0.39956 0.35652 0.0
C536 C 0.97585 0.40288 0.2473 0.0
C537 C 0.9733 0.38839 0.24755 0.0
C538 C 0.9648 0.41235 0.25222 0.0
C539 C 0.95101 0.40752 0.25783 0.0
C540 C 0.94842 0.39308 0.25899 0.0
H541 H 0.87661 0.45575 0.17453 0.0
H542 H 0.89456 0.4376 0.18146 0.0
C543 C 0.95947 0.38359 0.2541 0.0
C544 C 0.93932 0.41765 0.25851 0.0
H545 H 0.91213 0.42976 0.344 0.0
C546 C 0.93751 0.4263 0.2078 0.0
C547 C 0.93017 0.41895 0.30853 0.0
C548 C 0.93199 0.41023 0.36496 0.0
C549 C 0.92671 0.4362 0.20552 0.0
C550 C 0.91738 0.43731 0.25497 0.0
C551 C 0.91925 0.42875 0.306 0.0
C552 C 0.90582 0.44756 0.25471 0.0
C553 C 0.9255 0.44554 0.15064 0.0
C554 C 0.906 0.45889 0.29503 0.0
C555 C 0.89571 0.46924 0.29149 0.0
C556 C 0.88504 0.46836 0.24774 0.0
C557 C 0.88462 0.45669 0.20899 0.0
C558 C 0.89492 0.44637 0.21251 0.0
H559 H 0.9352 0.44546 0.12294 0.0
H560 H 0.91675 0.44182 0.12173 0.0
H561 H 0.9232 0.45649 0.16429 0.0
H562 H 0.91431 0.45992 0.32813 0.0
H563 H 0.89618 0.47799 0.32258 0.0
H564 H 0.10926 0.96771 0.83538 0.0
H565 H 0.0931 0.94828 0.85389 0.0
H566 H 0.08671 0.94376 0.66142 0.0
H567 H 0.10312 0.96284 0.64245 0.0
H568 H 0.06514 0.94717 0.82118 0.0
H569 H 0.09463 0.90365 0.71573 0.0
H570 H 0.10267 0.92016 0.73505 0.0
H571 H 0.09271 0.91843 0.66627 0.0
C572 C 0.10458 0.96242 0.79699 0.0
C573 C 0.10745 0.96682 0.73745 0.0
C574 C 0.09532 0.95138 0.80766 0.0
C575 C 0.08888 0.94448 0.759 0.0
C576 C 0.09178 0.94878 0.69956 0.0
H577 H 0.01225 0.90073 0.72075 0.0
H578 H 0.03136 0.91751 0.72938 0.0
C579 C 0.10101 0.95981 0.68884 0.0
C580 C 0.07846 0.93333 0.77014 0.0
H581 H 0.07011 0.89975 0.73235 0.0
C582 C 0.0663 0.93673 0.80252 0.0
C583 C 0.08011 0.91968 0.74655 0.0
C584 C 0.0933 0.9152 0.71449 0.0
C585 C 0.05541 0.92704 0.80927 0.0
C586 C 0.05667 0.9137 0.78219 0.0
C587 C 0.06912 0.91005 0.75252 0.0
C588 C 0.04485 0.90372 0.78065 0.0
C589 C 0.04257 0.93122 0.84466 0.0
C590 C 0.04619 0.89033 0.80597 0.0
C591 C 0.03524 0.88069 0.80126 0.0
C592 C 0.02282 0.88426 0.77069 0.0
C593 C 0.02154 0.89774 0.74571 0.0
C594 C 0.03246 0.90735 0.75053 0.0
H595 H 0.0449 0.93981 0.87704 0.0
H596 H 0.03443 0.93501 0.81277 0.0
H597 H 0.03823 0.9222 0.8702 0.0
H598 H 0.05573 0.88733 0.82912 0.0
H599 H 0.03651 0.87045 0.82148 0.0
H600 H 0.59299 0.01449 0.18472 0.0
H601 H 0.57598 0.03331 0.19717 0.0
H602 H 0.60537 0.05619 0.3075 0.0
H603 H 0.62249 0.03729 0.29565 0.0
H604 H 0.56432 0.04474 0.30369 0.0
H605 H 0.59471 0.08399 0.17195 0.0
H606 H 0.59868 0.06553 0.16996 0.0
H607 H 0.60371 0.07588 0.23428 0.0
C608 C 0.5958 0.02343 0.2123 0.0
C609 C 0.60911 0.02441 0.23908 0.0
C610 C 0.58609 0.0342 0.21914 0.0
C611 C 0.5895 0.04619 0.25264 0.0
C612 C 0.60265 0.04711 0.28057 0.0
H613 H 0.52466 0.10858 0.33643 0.0
H614 H 0.54421 0.09219 0.34794 0.0
C615 C 0.6124 0.03633 0.2737 0.0
C616 C 0.57924 0.05772 0.2572 0.0
H617 H 0.57301 0.09125 0.21138 0.0
C618 C 0.56623 0.05496 0.28409 0.0
C619 C 0.5818 0.07098 0.23104 0.0
C620 C 0.59543 0.07432 0.19972 0.0
C621 C 0.55556 0.06503 0.28436 0.0
C622 C 0.55807 0.07825 0.25779 0.0
C623 C 0.57119 0.08112 0.23208 0.0
C624 C 0.54686 0.08882 0.25168 0.0
C625 C 0.54149 0.06123 0.3107 0.0
C626 C 0.5422 0.09264 0.19377 0.0
C627 C 0.53116 0.10206 0.18704 0.0
C628 C 0.52458 0.10786 0.23817 0.0
C629 C 0.52953 0.1043 0.2962 0.0
C630 C 0.5406 0.09486 0.30288 0.0
H631 H 0.54047 0.0498 0.31852 0.0
H632 H 0.54015 0.06662 0.35484 0.0
H633 H 0.53291 0.06467 0.28023 0.0
H634 H 0.54696 0.08815 0.15369 0.0
H635 H 0.5278 0.10481 0.14171 0.0
H636 H 0.38668 0.52925 0.63667 0.0
H637 H 0.40276 0.54893 0.64763 0.0
H638 H 0.40005 0.54558 0.84214 0.0
H639 H 0.38432 0.5255 0.83163 0.0
H640 H 0.39931 0.57474 0.70658 0.0
H641 H 0.44222 0.54328 0.80925 0.0
H642 H 0.42735 0.53532 0.77248 0.0
H643 H 0.42563 0.54246 0.84739 0.0
C644 C 0.38961 0.53259 0.68182 0.0
C645 C 0.38439 0.52567 0.7333 0.0
C646 C 0.39869 0.54392 0.68798 0.0
C647 C 0.40273 0.54856 0.74565 0.0
C648 C 0.39722 0.54199 0.79722 0.0
H649 H 0.46725 0.61113 0.82679 0.0
H650 H 0.44741 0.59506 0.83874 0.0
C651 C 0.38814 0.53062 0.79112 0.0
C652 C 0.41298 0.56008 0.75115 0.0
H653 H 0.44651 0.56725 0.79442 0.0
C654 C 0.40959 0.57315 0.72621 0.0
C655 C 0.42636 0.55796 0.77698 0.0
C656 C 0.43071 0.54398 0.80268 0.0
C657 C 0.41935 0.5841 0.72531 0.0
C658 C 0.43287 0.58182 0.74925 0.0
C659 C 0.4361 0.56893 0.7762 0.0
C660 C 0.44418 0.59224 0.74248 0.0
C661 C 0.41516 0.59798 0.69827 0.0
C662 C 0.44893 0.59588 0.68447 0.0
C663 C 0.46021 0.60498 0.67754 0.0
C664 C 0.46701 0.61057 0.72857 0.0
C665 C 0.46214 0.60705 0.7867 0.0
C666 C 0.45086 0.59787 0.79359 0.0
H667 H 0.40361 0.59936 0.69845 0.0
H668 H 0.42002 0.60681 0.72329 0.0
H669 H 0.41876 0.59844 0.65051 0.0
H670 H 0.44407 0.59145 0.64448 0.0
H671 H 0.46363 0.60763 0.63218 0.0
H672 H 0.87056 0.03962 0.26215 0.0
H673 H 0.88722 0.05871 0.24672 0.0
H674 H 0.92136 0.03073 0.28732 0.0
H675 H 0.90488 0.01148 0.30016 0.0
H676 H 0.90543 0.06979 0.32834 0.0
H677 H 0.93473 0.04881 0.13212 0.0
H678 H 0.91817 0.04163 0.15618 0.0
H679 H 0.93411 0.03664 0.19393 0.0
C680 C 0.88163 0.03746 0.26664 0.0
C681 C 0.8864 0.02399 0.28209 0.0
C682 C 0.89112 0.0484 0.25819 0.0
C683 C 0.90553 0.04607 0.26477 0.0
C684 C 0.91031 0.03269 0.28057 0.0
H685 H 0.98035 0.09256 0.31347 0.0
H686 H 0.96162 0.07535 0.30342 0.0
C687 C 0.90085 0.02173 0.28877 0.0
C688 C 0.91558 0.05777 0.25845 0.0
H689 H 0.94586 0.06735 0.18775 0.0
C690 C 0.91415 0.06937 0.29692 0.0
C691 C 0.9269 0.05722 0.2172 0.0
C692 C 0.9285 0.04547 0.17208 0.0
C693 C 0.92412 0.08014 0.29722 0.0
C694 C 0.93573 0.07926 0.25786 0.0
C695 C 0.93694 0.06791 0.21804 0.0
C696 C 0.94717 0.0896 0.26025 0.0
C697 C 0.92251 0.09212 0.3412 0.0
C698 C 0.94524 0.10321 0.23826 0.0
C699 C 0.95599 0.11306 0.24321 0.0
C700 C 0.96881 0.10944 0.27045 0.0
C701 C 0.97072 0.09566 0.2914 0.0
C702 C 0.96001 0.08583 0.28608 0.0
H703 H 0.91372 0.09046 0.37329 0.0
H704 H 0.93231 0.09356 0.36752 0.0
H705 H 0.92055 0.10193 0.31567 0.0
H706 H 0.93541 0.10623 0.21765 0.0
H707 H 0.95425 0.1235 0.22572 0.0
H708 H 0.45635 0.8743 0.71292 0.0
H709 H 0.43774 0.89158 0.69814 0.0
H710 H 0.46115 0.92162 0.80283 0.0
H711 H 0.47964 0.90442 0.81875 0.0
H712 H 0.42228 0.90515 0.79097 0.0
H713 H 0.45083 0.94321 0.64744 0.0
H714 H 0.45669 0.92541 0.65805 0.0
H715 H 0.46009 0.9384 0.71514 0.0
C716 C 0.45753 0.88458 0.73288 0.0
C717 C 0.46951 0.88799 0.76691 0.0
C718 C 0.44693 0.89445 0.72405 0.0
C719 C 0.4482 0.90792 0.74858 0.0
C720 C 0.46014 0.91138 0.78232 0.0
H721 H 0.40109 0.98173 0.813 0.0
H722 H 0.4184 0.96316 0.80074 0.0
C723 C 0.4707 0.90153 0.79132 0.0
C724 C 0.43675 0.91819 0.74208 0.0
H725 H 0.42973 0.95136 0.6938 0.0
C726 C 0.4238 0.91518 0.76893 0.0
C727 C 0.43882 0.93123 0.71325 0.0
C728 C 0.45232 0.93474 0.6813 0.0
C729 C 0.41305 0.92517 0.77039 0.0
C730 C 0.41529 0.93839 0.74332 0.0
C731 C 0.42808 0.94122 0.71465 0.0
C732 C 0.40486 0.94976 0.74781 0.0
C733 C 0.39964 0.92175 0.80333 0.0
C734 C 0.3916 0.94845 0.72116 0.0
C735 C 0.38168 0.95908 0.72793 0.0
C736 C 0.38491 0.97122 0.76114 0.0
C737 C 0.39833 0.9726 0.78655 0.0
C738 C 0.40821 0.96197 0.77983 0.0
H739 H 0.40067 0.91222 0.83184 0.0
H740 H 0.39638 0.93061 0.83264 0.0
H741 H 0.39121 0.91987 0.76973 0.0
H742 H 0.38892 0.9392 0.6953 0.0
H743 H 0.37151 0.95782 0.70701 0.0
H744 H 0.62152 0.45767 0.19885 0.0
H745 H 0.60444 0.4389 0.18314 0.0
H746 H 0.5731 0.46323 0.27609 0.0
H747 H 0.59006 0.48192 0.29253 0.0
H748 H 0.59044 0.42424 0.27383 0.0
H749 H 0.55273 0.45088 0.12228 0.0
H750 H 0.57024 0.45735 0.13487 0.0
H751 H 0.55663 0.46083 0.18912 0.0
C752 C 0.61097 0.45903 0.21577 0.0
C753 C 0.60713 0.4713 0.24684 0.0
C754 C 0.60123 0.44834 0.20645 0.0
C755 C 0.58747 0.44979 0.22758 0.0
C756 C 0.58357 0.46206 0.25803 0.0
H757 H 0.51444 0.4027 0.30117 0.0
H758 H 0.53295 0.41991 0.28552 0.0
C759 C 0.59329 0.47273 0.2674 0.0
C760 C 0.57738 0.43813 0.22189 0.0
H761 H 0.54438 0.43034 0.17351 0.0
C762 C 0.58046 0.42545 0.251 0.0
C763 C 0.5644 0.43978 0.19198 0.0
C764 C 0.56084 0.4529 0.15726 0.0
C765 C 0.57058 0.41462 0.25382 0.0
C766 C 0.55738 0.41651 0.22604 0.0
C767 C 0.55451 0.42898 0.19494 0.0
C768 C 0.54606 0.4061 0.23262 0.0
C769 C 0.57405 0.40153 0.28894 0.0
C770 C 0.54724 0.3927 0.20724 0.0
C771 C 0.53663 0.38283 0.21582 0.0
C772 C 0.52464 0.38625 0.24973 0.0
C773 C 0.52343 0.39979 0.27414 0.0
C774 C 0.53402 0.40962 0.2655 0.0
H775 H 0.58372 0.40273 0.31637 0.0
H776 H 0.56529 0.39867 0.31961 0.0
H777 H 0.57564 0.39274 0.25684 0.0
H778 H 0.55638 0.38988 0.18092 0.0
H779 H 0.53777 0.37257 0.19563 0.0
H780 H 0.02569 0.61027 0.67613 0.0
H781 H 0.04505 0.59393 0.65984 0.0
H782 H 0.04961 0.58895 0.85306 0.0
H783 H 0.03068 0.60565 0.86983 0.0
H784 H 0.07503 0.59167 0.79273 0.0
H785 H 0.04101 0.55165 0.68419 0.0
H786 H 0.04081 0.56862 0.64922 0.0
H787 H 0.03401 0.5665 0.72454 0.0
C788 C 0.03094 0.60583 0.71515 0.0
C789 C 0.02653 0.60913 0.77428 0.0
C790 C 0.0419 0.5964 0.70573 0.0
C791 C 0.04857 0.59006 0.75523 0.0
C792 C 0.04451 0.59367 0.81424 0.0
H793 H 0.09372 0.51422 0.80098 0.0
H794 H 0.07697 0.5334 0.79408 0.0
C795 C 0.0336 0.60311 0.82372 0.0
C796 C 0.05956 0.57936 0.74611 0.0
H797 H 0.06494 0.54623 0.69334 0.0
C798 C 0.07289 0.58177 0.77055 0.0
C799 C 0.05664 0.56642 0.71765 0.0
C800 C 0.04232 0.56303 0.69278 0.0
C801 C 0.08334 0.57148 0.76839 0.0
C802 C 0.08041 0.55853 0.74011 0.0
C803 C 0.06716 0.55622 0.71455 0.0
C804 C 0.0905 0.5468 0.74112 0.0
C805 C 0.09722 0.57431 0.79864 0.0
C806 C 0.10358 0.54789 0.71266 0.0
C807 C 0.1132 0.5369 0.71643 0.0
C808 C 0.10983 0.52461 0.74831 0.0
C809 C 0.09658 0.52346 0.77541 0.0
C810 C 0.08701 0.53444 0.77177 0.0
H811 H 0.09678 0.58361 0.8288 0.0
H812 H 0.10063 0.56514 0.82578 0.0
H813 H 0.10526 0.57628 0.76343 0.0
H814 H 0.10636 0.55725 0.68778 0.0
H815 H 0.12326 0.53801 0.69435 0.0
H816 H 0.05075 0.39633 0.2367 0.0
H817 H 0.06522 0.41274 0.17927 0.0
H818 H 0.06187 0.38643 0.02126 0.0
H819 H 0.04736 0.36995 0.07809 0.0
H820 H 0.09123 0.40674 0.11691 0.0
H821 H 0.04926 0.42612 0.9637 0.0
H822 H 0.04556 0.41712 0.03385 0.0
H823 H 0.05111 0.40743 0.96845 0.0
C824 C 0.05307 0.39402 0.18972 0.0
C825 C 0.04786 0.38185 0.16192 0.0
C826 C 0.06135 0.4034 0.15706 0.0
C827 C 0.06444 0.40084 0.09598 0.0
C828 C 0.05941 0.38866 0.06818 0.0
H829 H 0.12738 0.44115 0.87253 0.0
H830 H 0.11222 0.42427 0.92381 0.0
C831 C 0.05118 0.37923 0.10086 0.0
C832 C 0.07313 0.41085 0.06163 0.0
H833 H 0.07228 0.43409 0.94423 0.0
C834 C 0.08711 0.41272 0.07912 0.0
C835 C 0.06764 0.41869 0.01277 0.0
C836 C 0.05254 0.41737 0.99365 0.0
C837 C 0.09583 0.42216 0.04849 0.0
C838 C 0.0904 0.42982 0.99905 0.0
C839 C 0.07639 0.42808 0.98191 0.0
C840 C 0.0991 0.43997 0.96558 0.0
C841 C 0.11073 0.42404 0.06965 0.0
C842 C 0.09649 0.45433 0.97121 0.0
C843 C 0.10513 0.46401 0.94218 0.0
C844 C 0.11646 0.45945 0.90663 0.0
C845 C 0.11877 0.44501 0.89968 0.0
C846 C 0.11016 0.43535 0.92905 0.0
H847 H 0.11256 0.41919 0.1147 0.0
H848 H 0.11792 0.4191 0.03652 0.0
H849 H 0.11341 0.43533 0.0723 0.0
H850 H 0.08794 0.45805 0.99913 0.0
H851 H 0.10304 0.47506 0.94824 0.0
H852 H 0.12256 0.04185 0.56283 0.0
H853 H 0.10648 0.05781 0.51096 0.0
H854 H 0.08121 0.06047 0.6723 0.0
H855 H 0.09717 0.04453 0.72463 0.0
H856 H 0.07579 0.05426 0.49601 0.0
H857 H 0.09131 0.10194 0.62389 0.0
H858 H 0.10227 0.08657 0.61952 0.0
H859 H 0.08735 0.08676 0.66889 0.0
C860 C 0.1136 0.04585 0.58735 0.0
C861 C 0.11117 0.04198 0.64796 0.0
C862 C 0.10442 0.05492 0.55758 0.0
C863 C 0.09279 0.06038 0.58813 0.0
C864 C 0.09025 0.05646 0.64832 0.0
H865 H 0.01842 0.10261 0.46489 0.0
H866 H 0.03563 0.08629 0.50648 0.0
C867 C 0.09935 0.04732 0.678 0.0
C868 C 0.08323 0.07017 0.55709 0.0
H869 H 0.07155 0.10388 0.55956 0.0
C870 C 0.07488 0.06513 0.50959 0.0
C871 C 0.08222 0.08434 0.57475 0.0
C872 C 0.09132 0.09032 0.62424 0.0
C873 C 0.06524 0.07387 0.48013 0.0
C874 C 0.06395 0.08794 0.49903 0.0
C875 C 0.07254 0.09306 0.54552 0.0
C876 C 0.05357 0.0975 0.47175 0.0
C877 C 0.05656 0.06805 0.42894 0.0
C878 C 0.05801 0.10925 0.43904 0.0
C879 C 0.04822 0.1186 0.41515 0.0
C880 C 0.03382 0.11641 0.42426 0.0
C881 C 0.02943 0.10459 0.45703 0.0
C882 C 0.03923 0.09521 0.48057 0.0
H883 H 0.06092 0.05808 0.4113 0.0
H884 H 0.04579 0.066 0.44551 0.0
H885 H 0.05585 0.07568 0.39112 0.0
H886 H 0.06906 0.1112 0.43213 0.0
H887 H 0.05196 0.12762 0.39024 0.0
H888 H 0.44929 0.12503 0.07187 0.0
H889 H 0.43336 0.10931 0.01784 0.0
H890 H 0.43039 0.08312 0.17631 0.0
H891 H 0.44631 0.09872 0.23079 0.0
H892 H 0.43724 0.07881 0.99994 0.0
H893 H 0.38896 0.09305 0.12633 0.0
H894 H 0.40422 0.1042 0.12411 0.0
H895 H 0.40405 0.089 0.17183 0.0
C896 C 0.44522 0.11595 0.09533 0.0
C897 C 0.44902 0.11313 0.15571 0.0
C898 C 0.43616 0.10699 0.06434 0.0
C899 C 0.43064 0.09518 0.09341 0.0
C900 C 0.43445 0.09229 0.15347 0.0
H901 H 0.38988 0.02094 0.96245 0.0
H902 H 0.40564 0.0383 1.00671 0.0
C903 C 0.44358 0.10118 0.18437 0.0
C904 C 0.42104 0.08572 0.06072 0.0
H905 H 0.38746 0.07363 0.05976 0.0
C906 C 0.42634 0.07771 0.01269 0.0
C907 C 0.40683 0.08445 0.07733 0.0
C908 C 0.40058 0.09319 0.12741 0.0
C909 C 0.41782 0.06813 0.98171 0.0
C910 C 0.40371 0.06656 0.99955 0.0
C911 C 0.39832 0.07484 0.04653 0.0
C912 C 0.39443 0.05613 0.97092 0.0
C913 C 0.42392 0.05976 0.93017 0.0
C914 C 0.38287 0.06047 0.93667 0.0
C915 C 0.37385 0.05059 0.91114 0.0
C916 C 0.37618 0.03621 0.92016 0.0
C917 C 0.3878 0.03193 0.95459 0.0
C918 C 0.39685 0.04181 0.9797 0.0
H919 H 0.43394 0.06428 0.91381 0.0
H920 H 0.42596 0.04892 0.9458 0.0
H921 H 0.41645 0.05922 0.89166 0.0
H922 H 0.38082 0.0715 0.92978 0.0
H923 H 0.36497 0.05422 0.88503 0.0
H924 H 0.40035 0.45406 0.71243 0.0
H925 H 0.41649 0.43905 0.65623 0.0
H926 H 0.38396 0.42954 0.52727 0.0
H927 H 0.3677 0.44455 0.58305 0.0
H928 H 0.3994 0.40567 0.57784 0.0
H929 H 0.43382 0.44742 0.48563 0.0
H930 H 0.43031 0.44838 0.56557 0.0
H931 H 0.41629 0.45083 0.51244 0.0
C932 C 0.39662 0.44882 0.67203 0.0
C933 C 0.38274 0.4505 0.65219 0.0
C934 C 0.40587 0.44031 0.63986 0.0
C935 C 0.40142 0.43335 0.58738 0.0
C936 C 0.38758 0.43491 0.56757 0.0
H937 H 0.44281 0.3715 0.35766 0.0
H938 H 0.4257 0.38738 0.40318 0.0
C939 C 0.37832 0.44348 0.59951 0.0
C940 C 0.41114 0.42408 0.5543 0.0
H941 H 0.44153 0.42402 0.47336 0.0
C942 C 0.40856 0.40965 0.55453 0.0
C943 C 0.42307 0.42938 0.52428 0.0
C944 C 0.42604 0.44486 0.52135 0.0
C945 C 0.41786 0.40026 0.52689 0.0
C946 C 0.42986 0.40554 0.49708 0.0
C947 C 0.43232 0.42001 0.49623 0.0
C948 C 0.44022 0.39619 0.46807 0.0
C949 C 0.41501 0.38477 0.53167 0.0
C950 C 0.45414 0.39621 0.48821 0.0
C951 C 0.46396 0.38728 0.46191 0.0
C952 C 0.46003 0.37815 0.41492 0.0
C953 C 0.44613 0.37832 0.39412 0.0
C954 C 0.43632 0.38732 0.42028 0.0
H955 H 0.40749 0.38236 0.56856 0.0
H956 H 0.41044 0.38101 0.48843 0.0
H957 H 0.42483 0.37886 0.54007 0.0
H958 H 0.45736 0.40302 0.5249 0.0
H959 H 0.47458 0.3874 0.47903 0.0
H960 H 0.87187 0.55127 0.15214 0.0
H961 H 0.88808 0.56814 0.10726 0.0
H962 H 0.90261 0.53661 0.98241 0.0
H963 H 0.88664 0.51961 0.02762 0.0
H964 H 0.92414 0.55163 0.0346 0.0
H965 H 0.88328 0.58723 0.94354 0.0
H966 H 0.88195 0.58395 0.02344 0.0
H967 H 0.87936 0.56986 0.97066 0.0
C968 C 0.87851 0.54792 0.1151 0.0
C969 C 0.87794 0.53412 0.09327 0.0
C970 C 0.88771 0.5576 0.08932 0.0
C971 C 0.89636 0.55367 0.04086 0.0
C972 C 0.89597 0.53985 0.01963 0.0
H973 H 0.9553 0.59367 0.80076 0.0
H974 H 0.93998 0.57746 0.85493 0.0
C975 C 0.88684 0.53016 0.04555 0.0
C976 C 0.90595 0.56391 0.01244 0.0
H977 H 0.90679 0.59481 0.93496 0.0
C978 C 0.92035 0.56107 0.01275 0.0
C979 C 0.90095 0.5762 0.98395 0.0
C980 C 0.88554 0.57947 0.97975 0.0
C981 C 0.92993 0.57024 0.98559 0.0
C982 C 0.92492 0.58248 0.95699 0.0
C983 C 0.91055 0.58541 0.95718 0.0
C984 C 0.93441 0.59222 0.92519 0.0
C985 C 0.94534 0.56687 0.98809 0.0
C986 C 0.93616 0.60592 0.94644 0.0
C987 C 0.94491 0.61522 0.91566 0.0
C988 C 0.95192 0.611 0.86269 0.0
C989 C 0.95007 0.59725 0.84143 0.0
C990 C 0.94138 0.58795 0.87245 0.0
H991 H 0.94772 0.55884 0.02301 0.0
H992 H 0.94873 0.56275 0.94344 0.0
H993 H 0.95156 0.57641 0.9979 0.0
H994 H 0.93079 0.6094 0.98695 0.0
H995 H 0.94609 0.62574 0.93316 0.0
H996 H 0.94026 0.87062 0.66492 0.0
H997 H 0.92347 0.88644 0.61652 0.0
H998 H 0.95628 0.90296 0.50325 0.0
H999 H 0.97313 0.88723 0.5511 0.0
H1000 H 0.92528 0.91745 0.60469 0.0
H1001 H 0.92469 0.88888 0.38518 0.0
H1002 H 0.93071 0.88097 0.45482 0.0
H1003 H 0.9417 0.8931 0.41491 0.0
C1004 C 0.94391 0.87764 0.62983 0.0
C1005 C 0.95802 0.87762 0.6116 0.0
C1006 C 0.93432 0.88668 0.60237 0.0
C1007 C 0.93865 0.8957 0.55598 0.0
C1008 C 0.95274 0.89592 0.53854 0.0
H1009 H 0.89928 0.95371 0.31074 0.0
H1010 H 0.91517 0.9385 0.36698 0.0
C1011 C 0.96235 0.88696 0.56612 0.0
C1012 C 0.92843 0.90484 0.52514 0.0
H1013 H 0.91274 0.91052 0.38855 0.0
C1014 C 0.92244 0.91594 0.55755 0.0
C1015 C 0.92484 0.90277 0.46369 0.0
C1016 C 0.93071 0.89073 0.42751 0.0
C1017 C 0.91318 0.92532 0.52948 0.0
C1018 C 0.90962 0.92329 0.46785 0.0
C1019 C 0.91551 0.91207 0.43575 0.0
C1020 C 0.89997 0.93279 0.43525 0.0
C1021 C 0.90765 0.93754 0.56553 0.0
C1022 C 0.88611 0.93453 0.45477 0.0
C1023 C 0.877 0.94329 0.42291 0.0
C1024 C 0.88157 0.95032 0.37051 0.0
C1025 C 0.89542 0.94845 0.35086 0.0
C1026 C 0.90453 0.93976 0.38294 0.0
H1027 H 0.91422 0.93971 0.606 0.0
H1028 H 0.90716 0.94715 0.53733 0.0
H1029 H 0.89692 0.93511 0.58147 0.0
H1030 H 0.88228 0.92899 0.49422 0.0
H1031 H 0.86637 0.94445 0.43906 0.0
H1032 H 0.62046 0.94421 0.15328 0.0
H1033 H 0.60318 0.9272 0.11818 0.0
H1034 H 0.59267 0.95423 0.96832 0.0
H1035 H 0.60958 0.97152 1.00447 0.0
H1036 H 0.56978 0.9442 0.01953 0.0
H1037 H 0.60654 0.90042 0.97947 0.0
H1038 H 0.60733 0.90671 0.05592 0.0
H1039 H 0.61244 0.918 0.99445 0.0
C1040 C 0.61451 0.94649 0.11267 0.0
C1041 C 0.6164 0.95916 0.08144 0.0
C1042 C 0.60471 0.93672 0.09244 0.0
C1043 C 0.59684 0.9393 0.03988 0.0
C1044 C 0.59867 0.95199 0.00883 0.0
H1045 H 0.54922 0.87575 0.84869 0.0
H1046 H 0.56647 0.89313 0.8807 0.0
C1047 C 0.60833 0.96185 0.02953 0.0
C1048 C 0.5864 0.92898 0.01826 0.0
H1049 H 0.58223 0.89473 0.97855 0.0
C1050 C 0.57252 0.9334 0.01018 0.0
C1051 C 0.59002 0.91495 1.00515 0.0
C1052 C 0.60492 0.90977 1.00856 0.0
C1053 C 0.56211 0.92413 0.99023 0.0
C1054 C 0.5656 0.90994 0.98 0.0
C1055 C 0.57953 0.90557 0.98717 0.0
C1056 C 0.55504 0.89948 0.96082 0.0
C1057 C 0.54758 0.92975 0.97906 0.0
C1058 C 0.54297 0.89714 0.99562 0.0
C1059 C 0.533 0.88736 0.97692 0.0
C1060 C 0.5351 0.87953 0.92384 0.0
C1061 C 0.54735 0.88162 0.88988 0.0
C1062 C 0.5572 0.89155 0.90809 0.0
H1063 H 0.54772 0.94122 0.97075 0.0
H1064 H 0.54259 0.92455 0.93962 0.0
H1065 H 0.54103 0.92783 0.01969 0.0
H1066 H 0.54128 0.90281 0.03744 0.0
H1067 H 0.52375 0.88581 1.00443 0.0
H1068 H 0.59572 0.52202 0.40778 0.0
H1069 H 0.57929 0.53928 0.44826 0.0
H1070 H 0.61308 0.56893 0.46754 0.0
H1071 H 0.62929 0.552 0.42338 0.0
H1072 H 0.57742 0.5504 0.5517 0.0
H1073 H 0.5855 0.59378 0.39068 0.0
H1074 H 0.59268 0.57661 0.37777 0.0
H1075 H 0.60177 0.58901 0.4252 0.0
C1076 C 0.59956 0.5323 0.42 0.0
C1077 C 0.6137 0.53576 0.4121 0.0
C1078 C 0.59019 0.54216 0.44313 0.0
C1079 C 0.59485 0.55556 0.45988 0.0
C1080 C 0.60908 0.5589 0.45289 0.0
H1081 H 0.55249 0.60678 0.7258 0.0
H1082 H 0.56712 0.59006 0.67107 0.0
C1083 C 0.61837 0.54917 0.42818 0.0
C1084 C 0.58502 0.5657 0.48793 0.0
H1085 H 0.57475 0.59989 0.48563 0.0
C1086 C 0.57672 0.56117 0.53664 0.0
C1087 C 0.58382 0.57971 0.46772 0.0
C1088 C 0.59131 0.585 0.41202 0.0
C1089 C 0.56756 0.57031 0.5666 0.0
C1090 C 0.56721 0.58458 0.54944 0.0
C1091 C 0.5752 0.58902 0.49965 0.0
C1092 C 0.55867 0.59507 0.58255 0.0
C1093 C 0.5582 0.56442 0.61541 0.0
C1094 C 0.54959 0.60403 0.55083 0.0
C1095 C 0.5416 0.61395 0.5819 0.0
C1096 C 0.54238 0.6149 0.64531 0.0
C1097 C 0.55155 0.60608 0.67696 0.0
C1098 C 0.55981 0.59643 0.64575 0.0
H1099 H 0.5561 0.55312 0.60782 0.0
H1100 H 0.56349 0.56541 0.65996 0.0
H1101 H 0.54803 0.57001 0.61743 0.0
H1102 H 0.54858 0.60326 0.50205 0.0
H1103 H 0.53457 0.62063 0.55649 0.0
H1104 H 0.00486 0.3056 0.27395 0.0
H1105 H 0.00696 0.28048 0.29184 0.0
H1106 H 0.04736 0.28039 0.20497 0.0
H1107 H 0.04532 0.3056 0.18647 0.0
H1108 H 0.02902 0.25898 0.16537 0.0
H1109 H 0.03271 0.26099 0.41596 0.0
H1110 H 0.0181 0.27056 0.38592 0.0
H1111 H 0.03562 0.27612 0.36858 0.0
C1112 C 0.01421 0.30026 0.25875 0.0
C1113 C 0.02495 0.30756 0.22895 0.0
C1114 C 0.01543 0.28593 0.26938 0.0
C1115 C 0.02742 0.27867 0.25062 0.0
C1116 C 0.03809 0.28587 0.2202 0.0
H1117 H 0.04134 0.19128 0.35471 0.0
H1118 H 0.04497 0.21632 0.33637 0.0
C1119 C 0.0369 0.30024 0.20966 0.0
C1120 C 0.02848 0.26344 0.261 0.0
H1121 H 0.02743 0.23868 0.37223 0.0
C1122 C 0.02884 0.25453 0.21057 0.0
C1123 C 0.02846 0.2577 0.32003 0.0
C1124 C 0.02884 0.26683 0.37578 0.0
C1125 C 0.02852 0.23995 0.21762 0.0
C1126 C 0.02763 0.23423 0.27658 0.0
C1127 C 0.02795 0.24313 0.32707 0.0
C1128 C 0.02565 0.21909 0.28668 0.0
C1129 C 0.02898 0.2308 0.16196 0.0
C1130 C 0.0135 0.21248 0.26555 0.0
C1131 C 0.01138 0.19825 0.27608 0.0
C1132 C 0.02136 0.1904 0.30814 0.0
C1133 C 0.03348 0.19707 0.32973 0.0
C1134 C 0.03558 0.21134 0.3193 0.0
H1135 H 0.03357 0.23642 0.12262 0.0
H1136 H 0.03516 0.22116 0.17044 0.0
H1137 H 0.01817 0.22766 0.14967 0.0
H1138 H 0.00559 0.21836 0.24137 0.0
H1139 H 0.00191 0.19342 0.25906 0.0
H1140 H 0.30166 0.04234 0.84015 0.0
H1141 H 0.27652 0.04504 0.82104 0.0
H1142 H 0.27576 0.00487 0.73211 0.0
H1143 H 0.3008 0.00214 0.75043 0.0
H1144 H 0.26178 0.02681 0.66821 0.0
H1145 H 0.24536 0.02274 0.90967 0.0
H1146 H 0.25849 0.03561 0.89237 0.0
H1147 H 0.26247 0.01737 0.88405 0.0
C1148 C 0.29612 0.03409 0.81659 0.0
C1149 C 0.30316 0.022 0.79703 0.0
C1150 C 0.28178 0.03563 0.80588 0.0
C1151 C 0.27432 0.0251 0.77566 0.0
C1152 C 0.28137 0.01311 0.75555 0.0
H1153 H 0.189 0.001 0.75261 0.0
H1154 H 0.21407 0.00396 0.7697 0.0
C1155 C 0.29566 0.01155 0.76625 0.0
C1156 C 0.25912 0.02637 0.76503 0.0
H1157 H 0.22756 0.02567 0.83709 0.0
C1158 C 0.25427 0.02671 0.70503 0.0
C1159 C 0.24942 0.02612 0.81335 0.0
C1160 C 0.25412 0.02534 0.87856 0.0
C1161 C 0.23991 0.02651 0.69196 0.0
C1162 C 0.23022 0.02609 0.74027 0.0
C1163 C 0.23507 0.02606 0.80028 0.0
C1164 C 0.21505 0.02457 0.72951 0.0
C1165 C 0.23521 0.02617 0.62668 0.0
C1166 C 0.20733 0.03524 0.70144 0.0
C1167 C 0.19298 0.03357 0.69147 0.0
C1168 C 0.18617 0.02123 0.70962 0.0
C1169 C 0.19395 0.01061 0.73794 0.0
C1170 C 0.20826 0.01229 0.74791 0.0
H1171 H 0.24403 0.02407 0.59516 0.0
H1172 H 0.22707 0.01803 0.61992 0.0
H1173 H 0.23056 0.03643 0.61455 0.0
H1174 H 0.21238 0.04487 0.68764 0.0
H1175 H 0.18722 0.04196 0.66983 0.0
H1176 H 0.49246 0.30228 0.24336 0.0
H1177 H 0.48927 0.27721 0.22737 0.0
H1178 H 0.44998 0.2788 0.32315 0.0
H1179 H 0.45314 0.30396 0.33981 0.0
H1180 H 0.46799 0.257 0.36046 0.0
H1181 H 0.46161 0.25798 0.11079 0.0
H1182 H 0.47686 0.26716 0.13686 0.0
H1183 H 0.45977 0.27343 0.15727 0.0
C1184 C 0.48311 0.29732 0.26085 0.0
C1185 C 0.47303 0.30508 0.29273 0.0
C1186 C 0.48126 0.28302 0.25131 0.0
C1187 C 0.46929 0.27623 0.27322 0.0
C1188 C 0.45924 0.2839 0.3055 0.0
H1189 H 0.45088 0.18911 0.17991 0.0
H1190 H 0.44856 0.21434 0.19677 0.0
C1191 C 0.46106 0.29825 0.31495 0.0
C1192 C 0.46762 0.261 0.26444 0.0
H1193 H 0.46659 0.23571 0.15545 0.0
C1194 C 0.46751 0.25233 0.31571 0.0
C1195 C 0.4668 0.25499 0.20601 0.0
C1196 C 0.46612 0.26387 0.14956 0.0
C1197 C 0.46725 0.23773 0.30996 0.0
C1198 C 0.46727 0.23171 0.25144 0.0
C1199 C 0.46673 0.24039 0.20024 0.0
C1200 C 0.46849 0.21645 0.24235 0.0
C1201 C 0.46706 0.22886 0.3665 0.0
C1202 C 0.48054 0.20938 0.2617 0.0
C1203 C 0.48191 0.19502 0.25203 0.0
C1204 C 0.47127 0.18751 0.2226 0.0
C1205 C 0.45924 0.19463 0.20285 0.0
C1206 C 0.45789 0.20902 0.21243 0.0
H1207 H 0.46314 0.23483 0.40622 0.0
H1208 H 0.46041 0.21944 0.36022 0.0
H1209 H 0.47786 0.22534 0.3768 0.0
H1210 H 0.48896 0.215 0.28378 0.0
H1211 H 0.49133 0.18983 0.26757 0.0
H1212 H 0.3045 0.48832 0.77397 0.0
H1213 H 0.27941 0.48524 0.78947 0.0
H1214 H 0.28127 0.44503 0.7012 0.0
H1215 H 0.30646 0.44807 0.68504 0.0
H1216 H 0.25987 0.46264 0.65822 0.0
H1217 H 0.25918 0.45912 0.9088 0.0
H1218 H 0.26869 0.47401 0.88121 0.0
H1219 H 0.27492 0.45667 0.86473 0.0
C1220 C 0.29961 0.47877 0.75817 0.0
C1221 C 0.30744 0.46842 0.72834 0.0
C1222 C 0.28529 0.47699 0.76746 0.0
C1223 C 0.27856 0.46481 0.74734 0.0
C1224 C 0.28633 0.45445 0.71748 0.0
H1225 H 0.1902 0.45078 0.83533 0.0
H1226 H 0.21534 0.44692 0.82129 0.0
C1227 C 0.30069 0.4562 0.7083 0.0
C1228 C 0.26327 0.46337 0.75466 0.0
H1229 H 0.2373 0.46438 0.86054 0.0
C1230 C 0.25492 0.46281 0.70244 0.0
C1231 C 0.25688 0.4634 0.81242 0.0
C1232 C 0.26538 0.46319 0.87003 0.0
C1233 C 0.24029 0.46303 0.70642 0.0
C1234 C 0.23392 0.464 0.76406 0.0
C1235 C 0.24225 0.4638 0.81638 0.0
C1236 C 0.21868 0.46604 0.7709 0.0
C1237 C 0.23177 0.4624 0.64891 0.0
C1238 C 0.21233 0.47814 0.74781 0.0
C1239 C 0.19804 0.4804 0.75587 0.0
C1240 C 0.18986 0.4706 0.7874 0.0
C1241 C 0.19624 0.45849 0.81069 0.0
C1242 C 0.21058 0.45626 0.80273 0.0
H1243 H 0.23782 0.45766 0.61112 0.0
H1244 H 0.22203 0.45627 0.65567 0.0
H1245 H 0.22881 0.47317 0.63528 0.0
H1246 H 0.21848 0.48594 0.72421 0.0
H1247 H 0.19342 0.48985 0.73759 0.0
H1248 H 0.94942 0.80338 0.68429 0.0
H1249 H 0.94595 0.77818 0.69889 0.0
H1250 H 0.9849 0.77582 0.79707 0.0
H1251 H 0.9884 0.80091 0.78313 0.0
H1252 H 0.96392 0.75651 0.66049 0.0
H1253 H 0.95688 0.75601 0.90967 0.0
H1254 H 0.95521 0.77173 0.86487 0.0
H1255 H 0.97223 0.76535 0.88595 0.0
C1256 C 0.95718 0.79749 0.70933 0.0
C1257 C 0.96916 0.8041 0.73272 0.0
C1258 C 0.95519 0.78313 0.7176 0.0
C1259 C 0.96506 0.77523 0.74988 0.0
C1260 C 0.97702 0.78181 0.77314 0.0
H1261 H 0.98943 0.68992 0.7477 0.0
H1262 H 0.98584 0.71497 0.73261 0.0
C1263 C 0.97904 0.79612 0.76475 0.0
C1264 C 0.96333 0.75996 0.7569 0.0
H1265 H 0.96259 0.73405 0.86313 0.0
C1266 C 0.96342 0.75158 0.70472 0.0
C1267 C 0.96247 0.7536 0.81462 0.0
C1268 C 0.96155 0.76214 0.87198 0.0
C1269 C 0.96343 0.73695 0.70891 0.0
C1270 C 0.96353 0.7306 0.76677 0.0
C1271 C 0.96267 0.73897 0.81884 0.0
C1272 C 0.96536 0.71535 0.77435 0.0
C1273 C 0.96353 0.7284 0.65143 0.0
C1274 C 0.95515 0.70735 0.804 0.0
C1275 C 0.9572 0.69302 0.81296 0.0
C1276 C 0.96956 0.68653 0.79289 0.0
C1277 C 0.97978 0.69461 0.76348 0.0
C1278 C 0.97771 0.7089 0.75443 0.0
H1279 H 0.95933 0.73446 0.61246 0.0
H1280 H 0.97445 0.72538 0.64056 0.0
H1281 H 0.95726 0.71869 0.65672 0.0
H1282 H 0.94561 0.71219 0.82013 0.0
H1283 H 0.94916 0.68705 0.83589 0.0
H1284 H 0.80447 0.99045 0.24885 0.0
H1285 H 0.77949 0.98786 0.22881 0.0
H1286 H 0.78008 0.94687 0.31035 0.0
H1287 H 0.80516 0.94941 0.33116 0.0
H1288 H 0.76568 0.96651 0.16035 0.0
H1289 H 0.74869 0.96832 0.4016 0.0
H1290 H 0.76585 0.97396 0.37772 0.0
H1291 H 0.76188 0.95565 0.38251 0.0
C1292 C 0.7993 0.98088 0.26267 0.0
C1293 C 0.80674 0.97016 0.29191 0.0
C1294 C 0.78504 0.97941 0.25099 0.0
C1295 C 0.77796 0.96723 0.26855 0.0
C1296 C 0.78536 0.95642 0.29717 0.0
H1297 H 0.69102 0.95199 0.15542 0.0
H1298 H 0.71608 0.94861 0.17434 0.0
C1299 C 0.79967 0.95787 0.30885 0.0
C1300 C 0.76279 0.96606 0.25704 0.0
H1301 H 0.73106 0.96623 0.32774 0.0
C1302 C 0.75808 0.96629 0.19682 0.0
C1303 C 0.75298 0.96589 0.30492 0.0
C1304 C 0.75752 0.96603 0.37042 0.0
C1305 C 0.74376 0.96669 0.18314 0.0
C1306 C 0.73395 0.96671 0.23105 0.0
C1307 C 0.73865 0.96614 0.29123 0.0
C1308 C 0.71882 0.96847 0.21988 0.0
C1309 C 0.73923 0.96767 0.11777 0.0
C1310 C 0.71211 0.98064 0.24 0.0
C1311 C 0.69786 0.98259 0.2294 0.0
C1312 C 0.69006 0.97234 0.19872 0.0
C1313 C 0.69679 0.96009 0.17892 0.0
C1314 C 0.71108 0.95816 0.18952 0.0
H1315 H 0.74813 0.96997 0.08703 0.0
H1316 H 0.73452 0.95757 0.10368 0.0
H1317 H 0.73117 0.97594 0.11208 0.0
H1318 H 0.71793 0.98871 0.26355 0.0
H1319 H 0.69297 0.99212 0.24537 0.0
H1320 H 0.50022 0.80406 0.75767 0.0
H1321 H 0.50303 0.77911 0.73745 0.0
H1322 H 0.54334 0.77968 0.82525 0.0
H1323 H 0.54058 0.80473 0.8462 0.0
H1324 H 0.52508 0.76561 0.67164 0.0
H1325 H 0.52126 0.74794 0.91154 0.0
H1326 H 0.5157 0.76512 0.88754 0.0
H1327 H 0.53399 0.76129 0.89534 0.0
C1328 C 0.50968 0.79889 0.77288 0.0
C1329 C 0.52016 0.80632 0.80381 0.0
C1330 C 0.51127 0.78466 0.7611 0.0
C1331 C 0.52333 0.77758 0.78026 0.0
C1332 C 0.53388 0.78496 0.81078 0.0
H1333 H 0.54122 0.69121 0.6675 0.0
H1334 H 0.54371 0.71636 0.68681 0.0
C1335 C 0.5323 0.79925 0.82256 0.0
C1336 C 0.52468 0.76245 0.7682 0.0
H1337 H 0.52431 0.73053 0.83728 0.0
C1338 C 0.52505 0.75791 0.70775 0.0
C1339 C 0.52454 0.75251 0.8156 0.0
C1340 C 0.52375 0.75688 0.88122 0.0
C1341 C 0.52499 0.74363 0.69333 0.0
C1342 C 0.52468 0.73369 0.74072 0.0
C1343 C 0.52461 0.73823 0.80118 0.0
C1344 C 0.52336 0.71856 0.72857 0.0
C1345 C 0.52469 0.73926 0.62764 0.0
C1346 C 0.51116 0.71153 0.74628 0.0
C1347 C 0.50971 0.69724 0.73544 0.0
C1348 C 0.52048 0.68971 0.70693 0.0
C1349 C 0.53272 0.69677 0.68927 0.0
C1350 C 0.53415 0.71111 0.70011 0.0
H1351 H 0.52251 0.74821 0.59694 0.0
H1352 H 0.53499 0.73476 0.61511 0.0
H1353 H 0.51662 0.73108 0.62013 0.0
H1354 H 0.50273 0.71713 0.76835 0.0
H1355 H 0.50018 0.69208 0.74974 0.0
H1356 H 0.80221 0.50241 0.26763 0.0
H1357 H 0.77726 0.50576 0.28599 0.0
H1358 H 0.77912 0.54618 0.19951 0.0
H1359 H 0.80417 0.54285 0.18027 0.0
H1360 H 0.76358 0.52761 0.3506 0.0
H1361 H 0.74773 0.52501 0.10797 0.0
H1362 H 0.76469 0.51925 0.13388 0.0
H1363 H 0.76099 0.53759 0.12721 0.0
C1364 C 0.79733 0.51202 0.25243 0.0
C1365 C 0.80512 0.52234 0.22215 0.0
C1366 C 0.78309 0.51393 0.26316 0.0
C1367 C 0.77636 0.52615 0.24365 0.0
C1368 C 0.78412 0.53659 0.21419 0.0
H1369 H 0.68894 0.54262 0.34747 0.0
H1370 H 0.71413 0.54579 0.33133 0.0
C1371 C 0.79841 0.53469 0.20341 0.0
C1372 C 0.76116 0.5277 0.25363 0.0
H1373 H 0.72979 0.52764 0.17992 0.0
C1374 C 0.75616 0.52778 0.31339 0.0
C1375 C 0.75159 0.52781 0.20481 0.0
C1376 C 0.75644 0.52732 0.13977 0.0
C1377 C 0.74177 0.52761 0.32572 0.0
C1378 C 0.7322 0.52749 0.27689 0.0
C1379 C 0.7372 0.5278 0.21714 0.0
C1380 C 0.717 0.52585 0.28664 0.0
C1381 C 0.73691 0.52691 0.3907 0.0
C1382 C 0.71032 0.51369 0.2661 0.0
C1383 C 0.696 0.51187 0.27507 0.0
C1384 C 0.68809 0.52222 0.30454 0.0
C1385 C 0.69479 0.53444 0.32489 0.0
C1386 C 0.70916 0.53625 0.31588 0.0
H1387 H 0.74564 0.52462 0.42244 0.0
H1388 H 0.73225 0.53711 0.40367 0.0
H1389 H 0.72874 0.51875 0.39619 0.0
H1390 H 0.71622 0.50555 0.24342 0.0
H1391 H 0.69113 0.50235 0.25875 0.0
H1392 H 0.02495 0.3629 0.96921 0.0
H1393 H 0.02849 0.36543 0.85969 0.0
H1394 H 0.00728 0.32616 0.83014 0.0
H1395 H 0.00318 0.32401 0.93914 0.0
H1396 H 0.04214 0.35126 0.78011 0.0
H1397 H 0.98655 0.34947 0.7124 0.0
H1398 H 0.99186 0.35083 0.79055 0.0
H1399 H 0.99129 0.33402 0.75348 0.0
C1400 C 0.02103 0.35486 0.93913 0.0
C1401 C 0.01366 0.34334 0.96242 0.0
C1402 C 0.02303 0.3563 0.87659 0.0
C1403 C 0.01784 0.34616 0.83621 0.0
C1404 C 0.01091 0.3344 0.85985 0.0
H1405 H 0.04819 0.33389 0.46935 0.0
H1406 H 0.04414 0.33368 0.57873 0.0
C1407 C 0.00866 0.33311 0.92219 0.0
C1408 C 0.02002 0.34768 0.76965 0.0
H1409 H 0.00328 0.3459 0.63304 0.0
C1410 C 0.0336 0.35022 0.74803 0.0
C1411 C 0.00887 0.34665 0.7275 0.0
C1412 C 0.99382 0.34526 0.74724 0.0
C1413 C 0.03641 0.35138 0.68574 0.0
C1414 C 0.02542 0.34937 0.64348 0.0
C1415 C 0.01177 0.34722 0.66514 0.0
C1416 C 0.02782 0.3494 0.57675 0.0
C1417 C 0.05109 0.35504 0.66623 0.0
C1418 C 0.01958 0.3578 0.53848 0.0
C1419 C 0.02164 0.35763 0.47568 0.0
C1420 C 0.0321 0.34919 0.45001 0.0
C1421 C 0.04025 0.34071 0.48815 0.0
C1422 C 0.038 0.34066 0.55073 0.0
H1423 H 0.05672 0.36091 0.70221 0.0
H1424 H 0.05703 0.34526 0.65758 0.0
H1425 H 0.05111 0.36144 0.62427 0.0
H1426 H 0.01159 0.36457 0.55723 0.0
H1427 H 0.01524 0.36427 0.44721 0.0
H1428 H 0.13306 0.04555 0.95568 0.0
H1429 H 0.13449 0.04218 0.06547 0.0
H1430 H 0.15937 0.00509 0.03839 0.0
H1431 H 0.15827 0.00855 0.92872 0.0
H1432 H 0.12574 0.01845 0.13423 0.0
H1433 H 0.18266 0.02869 0.15859 0.0
H1434 H 0.17289 0.03368 0.09195 0.0
H1435 H 0.17817 0.01581 0.10258 0.0
C1436 C 0.13896 0.03676 0.97308 0.0
C1437 C 0.1456 0.02736 0.93332 0.0
C1438 C 0.13969 0.0348 0.0358 0.0
C1439 C 0.14718 0.0235 0.06004 0.0
C1440 C 0.15371 0.01401 0.02061 0.0
H1441 H 0.16515 0.99229 0.41913 0.0
H1442 H 0.16348 0.99673 0.31052 0.0
C1443 C 0.15294 0.01592 0.95787 0.0
C1444 C 0.14797 0.02149 0.12658 0.0
H1445 H 0.17084 0.02008 0.24532 0.0
C1446 C 0.13558 0.01888 0.15868 0.0
C1447 C 0.16083 0.02205 0.1582 0.0
C1448 C 0.1744 0.02533 0.1263 0.0
C1449 C 0.13573 0.01645 0.22147 0.0
C1450 C 0.14861 0.01697 0.25313 0.0
C1451 C 0.16099 0.01969 0.221 0.0
C1452 C 0.14952 0.01441 0.31939 0.0
C1453 C 0.12217 0.01296 0.25296 0.0
C1454 C 0.14237 0.023 0.36068 0.0
C1455 C 0.14318 0.0204 0.42299 0.0
C1456 C 0.15126 0.00921 0.44533 0.0
C1457 C 0.15862 0.00082 0.40373 0.0
C1458 C 0.15777 0.00341 0.34152 0.0
H1459 H 0.11404 0.0094 0.22042 0.0
H1460 H 0.12373 0.00466 0.28753 0.0
H1461 H 0.11816 0.02244 0.2762 0.0
H1462 H 0.13616 0.03173 0.34472 0.0
H1463 H 0.1373 0.02703 0.45345 0.0
H1464 H 0.50432 0.14711 0.93159 0.0
H1465 H 0.49979 0.14604 0.82273 0.0
H1466 H 0.45631 0.15546 0.85444 0.0
H1467 H 0.46081 0.15687 0.96352 0.0
H1468 H 0.48054 0.12832 0.76014 0.0
H1469 H 0.46863 0.18471 0.72671 0.0
H1470 H 0.47742 0.17821 0.79343 0.0
H1471 H 0.45884 0.17614 0.78549 0.0
C1472 C 0.49382 0.14912 0.9155 0.0
C1473 C 0.48295 0.1522 0.9564 0.0
C1474 C 0.49124 0.1484 0.85325 0.0
C1475 C 0.47776 0.15084 0.83048 0.0
C1476 C 0.46683 0.15374 0.87104 0.0
H1477 H 0.44349 0.1537 0.46613 0.0
H1478 H 0.44716 0.15423 0.5755 0.0
C1479 C 0.4694 0.15442 0.93343 0.0
C1480 C 0.47517 0.15016 0.76428 0.0
H1481 H 0.46553 0.16986 0.64215 0.0
C1482 C 0.47728 0.13739 0.73424 0.0
C1483 C 0.47089 0.16201 0.73075 0.0
C1484 C 0.4689 0.17609 0.76045 0.0
C1485 C 0.47504 0.13611 0.67156 0.0
C1486 C 0.47089 0.14801 0.63784 0.0
C1487 C 0.46872 0.16076 0.66802 0.0
C1488 C 0.46872 0.14746 0.57123 0.0
C1489 C 0.47686 0.12195 0.64234 0.0
C1490 C 0.47968 0.14363 0.53226 0.0
C1491 C 0.47758 0.14317 0.46955 0.0
C1492 C 0.4645 0.14667 0.44438 0.0
C1493 C 0.45362 0.1507 0.48367 0.0
C1494 C 0.45572 0.15111 0.54634 0.0
H1495 H 0.47614 0.11336 0.6761 0.0
H1496 H 0.46886 0.12018 0.60667 0.0
H1497 H 0.48734 0.1214 0.62095 0.0
H1498 H 0.48989 0.14106 0.55031 0.0
H1499 H 0.48617 0.13992 0.44096 0.0
H1500 H 0.36331 0.44735 0.969 0.0
H1501 H 0.36124 0.45058 0.07863 0.0
H1502 H 0.33253 0.48472 0.04979 0.0
H1503 H 0.33428 0.48135 0.94022 0.0
H1504 H 0.3672 0.47496 0.14765 0.0
H1505 H 0.31157 0.45892 0.16898 0.0
H1506 H 0.32195 0.45504 0.10272 0.0
H1507 H 0.31485 0.47227 0.11344 0.0
C1508 C 0.35644 0.45545 0.98596 0.0
C1509 C 0.34892 0.46404 0.94573 0.0
C1510 C 0.35534 0.45734 0.0486 0.0
C1511 C 0.34659 0.46776 0.07232 0.0
C1512 C 0.33918 0.47647 0.03242 0.0
H1513 H 0.32504 0.49656 0.43193 0.0
H1514 H 0.3272 0.49249 0.32315 0.0
C1515 C 0.34031 0.47463 0.96974 0.0
C1516 C 0.34541 0.46967 0.13881 0.0
H1517 H 0.32225 0.46858 0.25647 0.0
C1518 C 0.3574 0.4735 0.17158 0.0
C1519 C 0.3326 0.46777 0.16977 0.0
C1520 C 0.31952 0.46316 0.13715 0.0
C1521 C 0.35686 0.47579 0.23442 0.0
C1522 C 0.34403 0.4739 0.26543 0.0
C1523 C 0.33206 0.47001 0.23263 0.0
C1524 C 0.34275 0.47618 0.33175 0.0
C1525 C 0.36992 0.48058 0.2667 0.0
C1526 C 0.35062 0.4682 0.37289 0.0
C1527 C 0.3495 0.47059 0.43527 0.0
C1528 C 0.34042 0.48095 0.45779 0.0
C1529 C 0.33233 0.48869 0.41634 0.0
C1530 C 0.33347 0.48631 0.35405 0.0
H1531 H 0.37773 0.48499 0.23467 0.0
H1532 H 0.36745 0.48862 0.30141 0.0
H1533 H 0.37481 0.47152 0.28989 0.0
H1534 H 0.35764 0.46013 0.35677 0.0
H1535 H 0.35596 0.46448 0.46563 0.0
H1536 H 0.0304 0.15632 0.56899 0.0
H1537 H 0.03443 0.15422 0.6783 0.0
H1538 H 0.99 0.15649 0.71005 0.0
H1539 H 0.98587 0.15832 0.60111 0.0
H1540 H 0.02581 0.17356 0.7721 0.0
H1541 H 0.00247 0.1208 0.80215 0.0
H1542 H 0.0077 0.12747 0.729 0.0
H1543 H 0.99162 0.13321 0.76296 0.0
C1544 C 0.02148 0.15623 0.59911 0.0
C1545 C 0.0078 0.15747 0.57608 0.0
C1546 C 0.02381 0.15511 0.66162 0.0
C1547 C 0.0125 0.15503 0.70223 0.0
C1548 C -0.00113 0.15633 0.67949 0.0
H1549 H 0.00316 0.14786 0.0929 0.0
H1550 H -0.00046 0.15011 0.9837 0.0
C1551 C 0.99653 0.15753 0.61716 0.0
C1552 C 0.01494 0.15387 0.76852 0.0
H1553 H 0.00843 0.13318 0.89153 0.0
C1554 C 0.02209 0.1647 0.79825 0.0
C1555 C 0.00999 0.14235 0.80252 0.0
C1556 C 0.00261 0.13022 0.77263 0.0
C1557 C 0.02419 0.16446 0.8613 0.0
C1558 C 0.01929 0.15289 0.89537 0.0
C1559 C 0.01216 0.14205 0.8655 0.0
C1560 C 0.02154 0.15177 0.96193 0.0
C1561 C 0.0313 0.17678 0.89099 0.0
C1562 C 0.03511 0.15181 0.98615 0.0
C1563 C 0.03722 0.15068 0.04868 0.0
C1564 C 0.0258 0.14932 0.08859 0.0
C1565 C 0.01221 0.14911 0.06399 0.0
C1566 C 0.01011 0.15029 1.00138 0.0
H1567 H 0.03069 0.1863 0.86227 0.0
H1568 H 0.02656 0.17914 0.93577 0.0
H1569 H 0.04252 0.17429 0.89799 0.0
H1570 H 0.04412 0.15263 0.95663 0.0
H1571 H 0.04783 0.151 0.06558 0.0
H1572 H 0.31803 0.99674 0.09204 0.0
H1573 H 0.32009 0.00084 0.20089 0.0
H1574 H 0.35453 0.02901 0.16929 0.0
H1575 H 0.35269 0.02483 0.06027 0.0
H1576 H 0.34388 0.99578 0.27474 0.0
H1577 H 0.32815 0.05171 0.27981 0.0
H1578 H 0.32465 0.04049 0.21574 0.0
H1579 H 0.34187 0.04753 0.22724 0.0
C1580 C 0.32607 0.00379 0.10801 0.0
C1581 C 0.33518 0.01045 0.06702 0.0
C1582 C 0.32719 0.00617 0.17037 0.0
C1583 C 0.33735 0.01534 0.19321 0.0
C1584 C 0.34642 0.02209 0.15261 0.0
H1585 H 0.3609 0.04213 0.55583 0.0
H1586 H 0.35898 0.03838 0.44654 0.0
C1587 C 0.34533 0.0197 0.09017 0.0
C1588 C 0.33877 0.01743 0.25967 0.0
H1589 H 0.33662 0.04205 0.3715 0.0
C1590 C 0.34224 0.00588 0.29599 0.0
C1591 C 0.3367 0.03063 0.28723 0.0
C1592 C 0.33252 0.0433 0.25071 0.0
C1593 C 0.34392 0.00721 0.35902 0.0
C1594 C 0.34173 0.02039 0.38673 0.0
C1595 C 0.33829 0.03195 0.35031 0.0
C1596 C 0.34298 0.02244 0.45337 0.0
C1597 C 0.34835 0.99454 0.39505 0.0
C1598 C 0.33455 0.01483 0.49375 0.0
C1599 C 0.33565 0.01694 0.55635 0.0
C1600 C 0.34509 0.02684 0.57991 0.0
C1601 C 0.35344 0.03452 0.53929 0.0
C1602 C 0.35238 0.03235 0.47675 0.0
H1603 H 0.35342 0.98655 0.36586 0.0
H1604 H 0.35572 -0.00254 0.43182 0.0
H1605 H 0.33898 0.98969 0.41597 0.0
H1606 H 0.32696 0.00739 0.47683 0.0
H1607 H 0.32889 0.01104 0.58619 0.0
H1608 H 0.4707 0.35436 0.55374 0.0
H1609 H 0.46668 0.35617 0.663 0.0
H1610 H 0.49535 0.32212 0.69383 0.0
H1611 H 0.4993 0.32008 0.5849 0.0
H1612 H 0.45701 0.33555 0.74723 0.0
H1613 H 0.51068 0.35377 0.80238 0.0
H1614 H 0.50376 0.35403 0.72625 0.0
H1615 H 0.50991 0.33793 0.75871 0.0
C1616 C 0.47604 0.34714 0.58358 0.0
C1617 C 0.4854 0.33712 0.56021 0.0
C1618 C 0.47378 0.34825 0.64613 0.0
C1619 C 0.48091 0.33945 0.68666 0.0
C1620 C 0.48999 0.32923 0.66351 0.0
H1621 H 0.48442 0.33085 0.07894 0.0
H1622 H 0.48776 0.32881 0.96934 0.0
C1623 C 0.49223 0.32809 0.60107 0.0
C1624 C 0.47882 0.34089 0.75314 0.0
H1625 H 0.49594 0.34829 0.88532 0.0
C1626 C 0.46549 0.3384 0.77745 0.0
C1627 C 0.48993 0.34456 0.79251 0.0
C1628 C 0.50436 0.34785 0.76879 0.0
C1629 C 0.46302 0.33921 0.84018 0.0
C1630 C 0.47412 0.34292 0.87961 0.0
C1631 C 0.48745 0.34543 0.85519 0.0
C1632 C 0.47212 0.34429 0.94627 0.0
C1633 C 0.44862 0.3357 0.86374 0.0
C1634 C 0.46241 0.35385 0.96998 0.0
C1635 C 0.46048 0.35504 0.03262 0.0
C1636 C 0.46833 0.34679 0.07311 0.0
C1637 C 0.47827 0.33744 0.04925 0.0
C1638 C 0.48015 0.33622 0.98652 0.0
H1639 H 0.44258 0.32933 0.83072 0.0
H1640 H 0.44923 0.3299 0.90723 0.0
H1641 H 0.44274 0.34554 0.8717 0.0
H1642 H 0.45637 0.36049 0.94001 0.0
H1643 H 0.45294 0.36254 0.04935 0.0
H1644 H 0.15623 0.46218 0.04535 0.0
H1645 H 0.15407 0.45806 0.15453 0.0
H1646 H 0.15589 0.50249 0.18694 0.0
H1647 H 0.15773 0.50671 0.07815 0.0
H1648 H 0.17303 0.46651 0.24892 0.0
H1649 H 0.12032 0.48994 0.27828 0.0
H1650 H 0.12711 0.48491 0.2051 0.0
H1651 H 0.13275 0.50092 0.24006 0.0
C1652 C 0.15603 0.47109 0.07555 0.0
C1653 C 0.15714 0.48479 0.05269 0.0
C1654 C 0.15488 0.46871 0.13803 0.0
C1655 C 0.15464 0.47998 0.17883 0.0
C1656 C 0.15584 0.49364 0.15627 0.0
H1657 H 0.14745 0.4894 0.56947 0.0
H1658 H 0.14973 0.49294 0.46023 0.0
C1659 C 0.15705 0.49603 0.09397 0.0
C1660 C 0.15341 0.47749 0.24511 0.0
H1661 H 0.13268 0.48409 0.36795 0.0
C1662 C 0.16418 0.47027 0.27496 0.0
C1663 C 0.14188 0.48248 0.27902 0.0
C1664 C 0.12978 0.48989 0.24906 0.0
C1665 C 0.16388 0.46815 0.33802 0.0
C1666 C 0.15233 0.47312 0.372 0.0
C1667 C 0.14154 0.48031 0.34201 0.0
C1668 C 0.15118 0.47091 0.43861 0.0
C1669 C 0.17613 0.46095 0.36782 0.0
C1670 C 0.15109 0.45735 0.46296 0.0
C1671 C 0.14993 0.45529 0.52552 0.0
C1672 C 0.14868 0.46674 0.56535 0.0
C1673 C 0.14861 0.48032 0.54062 0.0
C1674 C 0.14981 0.48237 0.47798 0.0
H1675 H 0.18566 0.46144 0.33913 0.0
H1676 H 0.17853 0.4657 0.41255 0.0
H1677 H 0.17353 0.44976 0.37498 0.0
H1678 H 0.15182 0.44832 0.43351 0.0
H1679 H 0.15014 0.44468 0.54252 0.0
H1680 H 0.94364 0.65041 0.55043 0.0
H1681 H 0.94725 0.65134 0.44104 0.0
H1682 H 0.99103 0.64224 0.46632 0.0
H1683 H 0.98743 0.64071 0.57565 0.0
H1684 H 0.96418 0.66865 0.37433 0.0
H1685 H 0.9798 0.61331 0.3407 0.0
H1686 H 0.9719 0.61946 0.41 0.0
H1687 H 0.99021 0.62234 0.39596 0.0
C1688 C 0.95401 0.6484 0.53289 0.0
C1689 C 0.96522 0.64538 0.57218 0.0
C1690 C 0.95607 0.64904 0.47023 0.0
C1691 C 0.96936 0.64663 0.44536 0.0
C1692 C 0.98062 0.64384 0.48435 0.0
H1693 H 0.0049 0.64904 0.08523 0.0
H1694 H 0.00044 0.64769 0.19405 0.0
C1695 C 0.97857 0.64315 0.54704 0.0
C1696 C 0.97146 0.64736 0.37875 0.0
H1697 H 0.98284 0.62857 0.25661 0.0
C1698 C 0.96817 0.65986 0.34851 0.0
C1699 C 0.97666 0.63587 0.34511 0.0
C1700 C 0.97973 0.62194 0.37443 0.0
C1701 C 0.97023 0.66129 0.28578 0.0
C1702 C 0.97555 0.64985 0.25232 0.0
C1703 C 0.97878 0.63733 0.28245 0.0
C1704 C 0.9781 0.65074 0.18612 0.0
C1705 C 0.96703 0.67514 0.25605 0.0
C1706 C 0.96699 0.65274 0.14545 0.0
C1707 C 0.96951 0.65357 0.08306 0.0
C1708 C 0.9832 0.6524 0.06019 0.0
C1709 C 0.99427 0.65023 0.10121 0.0
C1710 C 0.99173 0.64936 0.16345 0.0
H1711 H 0.96605 0.68371 0.28976 0.0
H1712 H 0.9753 0.67796 0.22294 0.0
H1713 H 0.95697 0.67432 0.23117 0.0
H1714 H 0.95635 0.65362 0.16194 0.0
H1715 H 0.96075 0.65532 0.05289 0.0
H1716 H 0.83348 0.98178 0.08156 0.0
H1717 H 0.83181 0.98508 0.97192 0.0
H1718 H 0.86028 0.9507 0.94404 0.0
H1719 H 0.86202 0.94735 0.05359 0.0
H1720 H 0.85266 0.99109 0.88893 0.0
H1721 H 0.82763 0.94025 0.83436 0.0
H1722 H 0.82869 0.94695 0.91069 0.0
H1723 H 0.84363 0.9387 0.87647 0.0
C1724 C 0.83945 0.97497 0.05222 0.0
C1725 C 0.84785 0.96425 0.07649 0.0
C1726 C 0.83842 0.97682 0.98949 0.0
C1727 C 0.84572 0.96799 0.94972 0.0
C1728 C 0.85426 0.95741 0.97376 0.0
H1729 H 0.85514 0.96517 0.55732 0.0
H1730 H 0.85676 0.96105 0.66654 0.0
C1731 C 0.85527 0.95552 0.03645 0.0
C1732 C 0.84468 0.97008 0.88317 0.0
H1733 H 0.83531 0.95395 0.751 0.0
C1734 C 0.8488 0.983 0.8588 0.0
C1735 C 0.83968 0.95948 0.84389 0.0
C1736 C 0.83453 0.94561 0.8676 0.0
C1737 C 0.84825 0.98555 0.79617 0.0
C1738 C 0.84324 0.97497 0.75693 0.0
C1739 C 0.83917 0.96203 0.7812 0.0
C1740 C 0.84197 0.97723 0.69063 0.0
C1741 C 0.85327 -0.00053 0.77239 0.0
C1742 C 0.83289 0.98749 0.66788 0.0
C1743 C 0.83187 0.98982 0.60552 0.0
C1744 C 0.83987 0.9819 0.56442 0.0
C1745 C 0.84873 0.9714 0.58741 0.0
C1746 C 0.84974 0.96907 0.6499 0.0
H1747 H 0.85999 0.00499 0.80582 0.0
H1748 H 0.85925 -0.00187 0.72965 0.0
H1749 H 0.8441 0.00623 0.76271 0.0
H1750 H 0.82655 0.9937 0.69844 0.0
H1751 H 0.82472 -0.00222 0.58955 0.0
H1752 H 0.54036 0.86391 0.56344 0.0
H1753 H 0.53668 0.86192 0.45413 0.0
H1754 H 0.50526 0.83034 0.48449 0.0
H1755 H 0.50884 0.83233 0.5939 0.0
H1756 H 0.5402 0.8393 0.38019 0.0
H1757 H 0.48497 0.85695 0.37196 0.0
H1758 H 0.49581 0.85924 0.43816 0.0
H1759 H 0.48783 0.84258 0.42275 0.0
C1760 C 0.53267 0.85653 0.5469 0.0
C1761 C 0.52486 0.84831 0.58754 0.0
C1762 C 0.53054 0.85544 0.48437 0.0
C1763 C 0.52055 0.84613 0.46103 0.0
C1764 C 0.51278 0.83785 0.50141 0.0
H1765 H 0.49498 0.82117 0.09969 0.0
H1766 H 0.49903 0.82322 0.20861 0.0
C1767 C 0.51484 0.83899 0.56403 0.0
C1768 C 0.5186 0.8448 0.3944 0.0
H1769 H 0.49425 0.84718 0.28145 0.0
C1770 C 0.53017 0.8411 0.35856 0.0
C1771 C 0.50551 0.84715 0.36615 0.0
C1772 C 0.49285 0.85183 0.4016 0.0
C1773 C 0.52894 0.83943 0.29549 0.0
C1774 C 0.51584 0.84169 0.26739 0.0
C1775 C 0.50428 0.84541 0.30314 0.0
C1776 C 0.51386 0.84021 0.20093 0.0
C1777 C 0.54161 0.83498 0.25959 0.0
C1778 C 0.52083 0.84911 0.16032 0.0
C1779 C 0.51848 0.84801 0.09787 0.0
C1780 C 0.50904 0.83804 0.07475 0.0
C1781 C 0.50218 0.82907 0.11571 0.0
C1782 C 0.50453 0.83019 0.17808 0.0
H1783 H 0.54989 0.8305 0.28914 0.0
H1784 H 0.53873 0.82712 0.22472 0.0
H1785 H 0.54605 0.84422 0.23604 0.0
H1786 H 0.52788 0.8571 0.17703 0.0
H1787 H 0.52376 0.85526 0.06792 0.0
H1788 H 0.64515 0.50516 0.08451 0.0
H1789 H 0.64693 0.50142 0.97527 0.0
H1790 H 0.65101 0.54587 0.94762 0.0
H1791 H 0.64986 0.54968 0.05665 0.0
H1792 H 0.63007 0.51085 0.88405 0.0
H1793 H 0.68384 0.53121 0.85132 0.0
H1794 H 0.67678 0.5274 0.9253 0.0
H1795 H 0.67236 0.54348 0.88751 0.0
C1796 C 0.64666 0.51414 0.05547 0.0
C1797 C 0.64745 0.52773 0.07994 0.0
C1798 C 0.64757 0.51199 0.99282 0.0
C1799 C 0.64934 0.52334 0.95318 0.0
C1800 C 0.64996 0.53691 0.97728 0.0
H1801 H 0.65326 0.53163 0.55976 0.0
H1802 H 0.65144 0.53585 0.669 0.0
C1803 C 0.64911 0.53908 0.03986 0.0
C1804 C 0.65016 0.52102 0.88657 0.0
H1805 H 0.67066 0.52668 0.76201 0.0
C1806 C 0.63898 0.51424 0.85745 0.0
C1807 C 0.66178 0.52547 0.85174 0.0
C1808 C 0.67443 0.53217 0.88057 0.0
C1809 C 0.63901 0.51199 0.79449 0.0
C1810 C 0.6506 0.5165 0.75975 0.0
C1811 C 0.66176 0.5233 0.78872 0.0
C1812 C 0.65148 0.51394 0.69345 0.0
C1813 C 0.62655 0.50501 0.76546 0.0
C1814 C 0.65224 0.50024 0.67098 0.0
C1815 C 0.65328 0.49779 0.60867 0.0
C1816 C 0.6536 0.50901 0.56734 0.0
C1817 C 0.65287 0.52275 0.59007 0.0
C1818 C 0.65191 0.52518 0.65255 0.0
H1819 H 0.61722 0.50525 0.79546 0.0
H1820 H 0.62385 0.51013 0.72181 0.0
H1821 H 0.62911 0.4939 0.756 0.0
H1822 H 0.65212 0.49141 0.70174 0.0
H1823 H 0.65368 0.48709 0.59283 0.0
H1824 H 0.96042 0.83758 0.47299 0.0
H1825 H 0.95633 0.83926 0.36369 0.0
H1826 H 0.00077 0.8372 0.33175 0.0
H1827 H 0.00494 0.83551 0.44052 0.0
H1828 H 0.96523 0.85893 0.28135 0.0
H1829 H 0.98644 0.80691 0.21933 0.0
H1830 H 0.98258 0.81171 0.29662 0.0
H1831 H -0.00142 0.81741 0.26149 0.0
C1832 C 0.96933 0.8375 0.44281 0.0
C1833 C 0.98302 0.83626 0.46582 0.0
C1834 C 0.96697 0.83841 0.38023 0.0
C1835 C 0.97822 0.83806 0.33931 0.0
C1836 C 0.99189 0.83707 0.36218 0.0
H1837 H 0.9878 0.84654 0.94903 0.0
H1838 H 0.99132 0.84453 0.05846 0.0
C1839 C 0.99426 0.83611 0.42458 0.0
C1840 C 0.97575 0.83912 0.27283 0.0
H1841 H 0.98195 0.82264 0.13792 0.0
C1842 C 0.9688 0.85095 0.25005 0.0
C1843 C 0.98042 0.8287 0.23186 0.0
C1844 C 0.9873 0.8154 0.25352 0.0
C1845 C 0.96666 0.85279 0.18749 0.0
C1846 C 0.97146 0.84244 0.14659 0.0
C1847 C 0.97835 0.83059 0.1693 0.0
C1848 C 0.96927 0.84365 0.08007 0.0
C1849 C 0.95956 0.86594 0.16551 0.0
C1850 C 0.95572 0.84361 0.05571 0.0
C1851 C 0.95366 0.84463 0.99309 0.0
C1852 C 0.96512 0.8457 0.9532 0.0
C1853 C 0.97872 0.84561 0.97792 0.0
C1854 C 0.98076 0.84453 0.04063 0.0
H1855 H 0.95951 0.87424 0.20074 0.0
H1856 H 0.96481 0.87006 0.12431 0.0
H1857 H 0.94855 0.86352 0.15363 0.0
H1858 H 0.94671 0.84264 0.08516 0.0
H1859 H 0.94306 0.84437 0.97607 0.0
H1860 H 0.65658 0.00727 0.90521 0.0
H1861 H 0.65486 0.00287 0.79658 0.0
H1862 H 0.65638 0.95844 0.82949 0.0
H1863 H 0.65809 0.96276 0.93856 0.0
H1864 H 0.67301 0.98948 0.72004 0.0
H1865 H 0.62185 0.96202 0.72308 0.0
H1866 H 0.62839 0.97167 0.78744 0.0
H1867 H 0.63482 0.95437 0.77172 0.0
C1868 C 0.65665 0.99655 0.88952 0.0
C1869 C 0.65747 0.98537 0.93092 0.0
C1870 C 0.6556 0.99405 0.82727 0.0
C1871 C 0.65528 0.98033 0.8048 0.0
C1872 C 0.65626 0.96912 0.8458 0.0
H1873 H 0.65158 0.94566 0.44097 0.0
H1874 H 0.6535 0.94943 0.54999 0.0
C1875 C 0.65727 0.97161 0.90823 0.0
C1876 C 0.65419 0.97785 0.73838 0.0
H1877 H 0.63399 0.96241 0.62938 0.0
C1878 C 0.66445 0.98359 0.70022 0.0
C1879 C 0.64301 0.97018 0.71247 0.0
C1880 C 0.63131 0.9643 0.75064 0.0
C1881 C 0.66395 0.98173 0.63707 0.0
C1882 C 0.65278 0.97408 0.61122 0.0
C1883 C 0.64255 0.96827 0.64931 0.0
C1884 C 0.65155 0.97192 0.54473 0.0
C1885 C 0.67551 0.98776 0.59859 0.0
C1886 C 0.64963 0.98331 0.50544 0.0
C1887 C 0.64841 0.9812 0.44286 0.0
C1888 C 0.64904 0.96762 0.41821 0.0
C1889 C 0.65087 0.95624 0.458 0.0
C1890 C 0.65205 0.95837 0.52051 0.0
H1891 H 0.6849 0.9904 0.626 0.0
H1892 H 0.67862 0.98032 0.56237 0.0
H1893 H 0.67175 -0.0025 0.57661 0.0
H1894 H 0.64894 0.99385 0.52326 0.0
H1895 H 0.64678 0.9902 0.41401 0.0
H1896 H 0.50627 0.64173 0.92815 0.0
H1897 H 0.50254 0.64295 0.03753 0.0
H1898 H 0.54462 0.65815 0.06181 0.0
H1899 H 0.54827 0.65755 0.95252 0.0
H1900 H 0.51643 0.62931 0.12895 0.0
H1901 H 0.52212 0.68671 0.1563 0.0
H1902 H 0.51997 0.67854 0.08319 0.0
H1903 H 0.53679 0.67858 0.11976 0.0
C1904 C 0.51468 0.64555 0.95651 0.0
C1905 C 0.52755 0.64964 0.9311 0.0
C1906 C 0.51255 0.64613 0.01918 0.0
C1907 C 0.52322 0.65085 0.05782 0.0
C1908 C 0.53613 0.65476 0.03282 0.0
H1909 H 0.53062 0.659 0.44993 0.0
H1910 H 0.53514 0.65759 0.34079 0.0
C1911 C 0.53826 0.65423 0.97018 0.0
C1912 C 0.52094 0.65135 0.12436 0.0
H1913 H 0.52115 0.67326 0.24674 0.0
C1914 C 0.5174 0.63893 0.15466 0.0
C1915 C 0.52224 0.66391 0.1579 0.0
C1916 C 0.52536 0.67772 0.12763 0.0
C1917 C 0.5153 0.63869 0.21764 0.0
C1918 C 0.51662 0.65124 0.25109 0.0
C1919 C 0.52022 0.66365 0.22095 0.0
C1920 C 0.51396 0.65177 0.31725 0.0
C1921 C 0.51188 0.62498 0.24808 0.0
C1922 C 0.50054 0.64907 0.34006 0.0
C1923 C 0.49794 0.64985 0.40228 0.0
C1924 C 0.5087 0.65338 0.44303 0.0
C1925 C 0.52215 0.65609 0.41995 0.0
C1926 C 0.52473 0.65537 0.35759 0.0
H1927 H 0.51455 0.61589 0.21893 0.0
H1928 H 0.51756 0.62397 0.29176 0.0
H1929 H 0.5005 0.62458 0.25776 0.0
H1930 H 0.49204 0.64646 0.30963 0.0
H1931 H 0.4875 0.64757 0.41846 0.0
H1932 H 0.83069 0.51045 0.43057 0.0
H1933 H 0.82827 0.50729 0.54014 0.0
H1934 H 0.86142 0.53707 0.57029 0.0
H1935 H 0.86386 0.54032 0.46098 0.0
H1936 H 0.84711 0.49826 0.62538 0.0
H1937 H 0.83068 0.55258 0.67748 0.0
H1938 H 0.83111 0.54579 0.60121 0.0
H1939 H 0.84697 0.55155 0.63733 0.0
C1940 C 0.83753 0.51626 0.46045 0.0
C1941 C 0.8474 0.52572 0.43685 0.0
C1942 C 0.83608 0.5145 0.52315 0.0
C1943 C 0.84446 0.52216 0.56359 0.0
C1944 C 0.85456 0.53134 0.54014 0.0
H1945 H 0.85394 0.52363 0.95607 0.0
H1946 H 0.85604 0.52742 0.84677 0.0
C1947 C 0.85596 0.53317 0.47753 0.0
C1948 C 0.84282 0.52033 0.63021 0.0
H1949 H 0.836 0.538 0.76171 0.0
C1950 C 0.8446 0.50693 0.65512 0.0
C1951 C 0.83956 0.53167 0.66912 0.0
C1952 C 0.83683 0.54618 0.64497 0.0
C1953 C 0.84346 0.5046 0.71782 0.0
C1954 C 0.84026 0.51594 0.75667 0.0
C1955 C 0.83849 0.52934 0.73187 0.0
C1956 C 0.83862 0.51405 0.82316 0.0
C1957 C 0.84598 0.49007 0.74215 0.0
C1958 C 0.82792 0.50555 0.84631 0.0
C1959 C 0.82661 0.50345 0.90879 0.0
C1960 C 0.83596 0.50984 0.94963 0.0
C1961 C 0.84646 0.51865 0.92624 0.0
C1962 C 0.84774 0.52076 0.86367 0.0
H1963 H 0.8516 0.48338 0.70895 0.0
H1964 H 0.85213 0.49043 0.78482 0.0
H1965 H 0.83577 0.48506 0.75218 0.0
H1966 H 0.82057 0.50052 0.81598 0.0
H1967 H 0.81824 0.49682 0.92499 0.0
loop_
_geom_bond_atom_site_label_1
_geom_bond_atom_site_label_2
_geom_bond_distance
_geom_bond_site_symmetry_2
_ccdc_geom_bond_type
Co0 N4 2.148 . S
Co0 N10 2.128 . S
Co0 N20 2.194 . S
Co0 O25 2.351 . S
Co0 O26 2.155 . S
Co0 O27 2.096 . S
C1 N4 1.301 . S
C1 N5 1.328 . S
C1 H6 0.930 . S
C2 C3 1.333 . S
C2 N4 1.317 . S
C2 H7 0.930 . S
C3 C2 1.333 . S
C3 N5 1.350 . S
C3 H29 0.931 . S
N4 Co0 2.148 . S
N4 C1 1.301 . S
N4 C2 1.317 . S
N5 C1 1.328 . S
N5 C3 1.350 . S
H6 C1 0.930 . S
H7 C2 0.930 . S
C8 O9 1.224 . S
C8 O27 1.247 . S
O9 C8 1.224 . S
N10 Co0 2.128 . S
N10 C11 1.355 . S
N10 C13 1.311 1_554 S
C11 N10 1.355 . S
C11 C12 1.363 1_554 S
C11 H23 0.929 1_455 S
C12 C11 1.363 1_556 S
C12 N14 1.375 . S
C12 H30 0.931 1_455 S
C13 N10 1.311 1_556 S
C13 N14 1.347 . S
C13 H24 0.929 . S
N14 C12 1.375 . S
N14 C13 1.347 . S
C15 C18 1.365 . S
C15 N20 1.328 1_655 S
C15 H21 0.929 . S
C16 C17 1.362 . S
C16 C19 1.378 1_655 S
C16 H31 0.929 . S
C17 C16 1.362 . S
C17 C18 1.366 . S
C18 C15 1.365 . S
C18 C17 1.366 . S
C18 H32 0.930 . S
C19 C16 1.378 1_455 S
C19 N20 1.315 . S
C19 H22 0.930 . S
N20 Co0 2.194 . S
N20 C15 1.328 1_455 S
N20 C19 1.315 . S
H21 C15 0.929 . S
H22 C19 0.930 . S
H23 C11 0.929 1_655 S
H24 C13 0.929 . S
O25 Co0 2.351 . S
O25 C28 1.244 . S
O26 Co0 2.155 . S
O26 C28 1.240 . S
O27 Co0 2.096 . S
O27 C8 1.247 . S
C28 O25 1.244 . S
C28 O26 1.240 . S
H29 C3 0.931 . S
H30 C12 0.931 1_655 S
H31 C16 0.929 . S
H32 C18 0.930 . S
Co33 N37 2.148 . S
Co33 N43 2.128 . S
Co33 N53 2.194 . S
Co33 O58 2.351 . S
Co33 O59 2.155 . S
Co33 O60 2.096 . S
C34 N37 1.301 . S
C34 N38 1.328 . S
C34 H39 0.930 . S
C35 C36 1.333 . S
C35 N37 1.317 . S
C35 H40 0.930 . S
C36 C35 1.333 . S
C36 N38 1.350 . S
C36 H62 0.931 . S
N37 Co33 2.148 . S
N37 C34 1.301 . S
N37 C35 1.317 . S
N38 C34 1.328 . S
N38 C36 1.350 . S
H39 C34 0.930 . S
H40 C35 0.930 . S
C41 O42 1.224 . S
C41 O60 1.247 . S
O42 C41 1.224 . S
N43 Co33 2.128 . S
N43 C44 1.355 . S
N43 C46 1.311 . S
C44 N43 1.355 . S
C44 C45 1.363 . S
C44 H56 0.929 1_545 S
C45 C44 1.363 . S
C45 N47 1.375 . S
C45 H63 0.931 1_545 S
C46 N43 1.311 . S
C46 N47 1.347 . S
C46 H57 0.929 . S
N47 C45 1.375 . S
N47 C46 1.347 . S
C48 C51 1.365 . S
C48 N53 1.328 1_565 S
C48 H54 0.929 . S
C49 C50 1.362 . S
C49 C52 1.378 1_565 S
C49 H64 0.929 . S
C50 C49 1.362 . S
C50 C51 1.366 . S
C51 C48 1.365 . S
C51 C50 1.366 . S
C51 H65 0.930 . S
C52 C49 1.378 1_545 S
C52 N53 1.315 . S
C52 H55 0.930 . S
N53 Co33 2.194 . S
N53 C48 1.328 1_545 S
N53 C52 1.315 . S
H54 C48 0.929 . S
H55 C52 0.930 . S
H56 C44 0.929 1_565 S
H57 C46 0.929 . S
O58 Co33 2.351 . S
O58 C61 1.244 . S
O59 Co33 2.155 . S
O59 C61 1.240 . S
O60 Co33 2.096 . S
O60 C41 1.247 . S
C61 O58 1.244 . S
C61 O59 1.240 . S
H62 C36 0.931 . S
H63 C45 0.931 1_565 S
H64 C49 0.929 . S
H65 C51 0.930 . S
Co66 N70 2.148 . S
Co66 N76 2.128 . S
Co66 N86 2.194 . S
Co66 O91 2.351 . S
Co66 O92 2.155 . S
Co66 O93 2.096 . S
C67 N70 1.301 . S
C67 N71 1.328 . S
C67 H72 0.930 . S
C68 C69 1.333 . S
C68 N70 1.317 . S
C68 H73 0.930 . S
C69 C68 1.333 . S
C69 N71 1.350 . S
C69 H95 0.931 . S
N70 Co66 2.148 . S
N70 C67 1.301 . S
N70 C68 1.317 . S
N71 C67 1.328 . S
N71 C69 1.350 . S
H72 C67 0.930 . S
H73 C68 0.930 . S
C74 O75 1.224 . S
C74 O93 1.247 . S
O75 C74 1.224 . S
N76 Co66 2.128 . S
N76 C77 1.355 . S
N76 C79 1.311 1_554 S
C77 N76 1.355 . S
C77 C78 1.363 1_554 S
C77 H89 0.929 . S
C78 C77 1.363 1_556 S
C78 N80 1.375 . S
C78 H96 0.931 . S
C79 N76 1.311 1_556 S
C79 N80 1.347 . S
C79 H90 0.929 . S
N80 C78 1.375 . S
N80 C79 1.347 . S
C81 C84 1.365 . S
C81 N86 1.328 . S
C81 H87 0.929 . S
C82 C83 1.362 . S
C82 C85 1.378 . S
C82 H97 0.929 . S
C83 C82 1.362 . S
C83 C84 1.366 . S
C84 C81 1.365 . S
C84 C83 1.366 . S
C84 H98 0.930 . S
C85 C82 1.378 . S
C85 N86 1.315 . S
C85 H88 0.930 . S
N86 Co66 2.194 . S
N86 C81 1.328 . S
N86 C85 1.315 . S
H87 C81 0.929 . S
H88 C85 0.930 . S
H89 C77 0.929 . S
H90 C79 0.929 . S
O91 Co66 2.351 . S
O91 C94 1.244 . S
O92 Co66 2.155 . S
O92 C94 1.240 . S
O93 Co66 2.096 . S
O93 C74 1.247 . S
C94 O91 1.244 . S
C94 O92 1.240 . S
H95 C69 0.931 . S
H96 C78 0.931 . S
H97 C82 0.929 . S
H98 C84 0.930 . S
Co99 N103 2.148 . S
Co99 N109 2.128 . S
Co99 N119 2.194 . S
Co99 O124 2.351 . S
Co99 O125 2.155 . S
Co99 O126 2.096 . S
C100 N103 1.301 . S
C100 N104 1.328 . S
C100 H105 0.930 . S
C101 C102 1.333 . S
C101 N103 1.317 . S
C101 H106 0.930 . S
C102 C101 1.333 . S
C102 N104 1.350 . S
C102 H128 0.931 . S
N103 Co99 2.148 . S
N103 C100 1.301 . S
N103 C101 1.317 . S
N104 C100 1.328 . S
N104 C102 1.350 . S
H105 C100 0.930 . S
H106 C101 0.930 . S
C107 O108 1.224 . S
C107 O126 1.247 . S
O108 C107 1.224 . S
N109 Co99 2.128 . S
N109 C110 1.355 . S
N109 C112 1.311 . S
C110 N109 1.355 . S
C110 C111 1.363 . S
C110 H122 0.929 . S
C111 C110 1.363 . S
C111 N113 1.375 . S
C111 H129 0.931 . S
C112 N109 1.311 . S
C112 N113 1.347 . S
C112 H123 0.929 . S
N113 C111 1.375 . S
N113 C112 1.347 . S
C114 C117 1.365 . S
C114 N119 1.328 . S
C114 H120 0.929 . S
C115 C116 1.362 . S
C115 C118 1.378 . S
C115 H130 0.929 . S
C116 C115 1.362 . S
C116 C117 1.366 . S
C117 C114 1.365 . S
C117 C116 1.366 . S
C117 H131 0.930 . S
C118 C115 1.378 . S
C118 N119 1.315 . S
C118 H121 0.930 . S
N119 Co99 2.194 . S
N119 C114 1.328 . S
N119 C118 1.315 . S
H120 C114 0.929 . S
H121 C118 0.930 . S
H122 C110 0.929 . S
H123 C112 0.929 . S
O124 Co99 2.351 . S
O124 C127 1.244 . S
O125 Co99 2.155 . S
O125 C127 1.240 . S
O126 Co99 2.096 . S
O126 C107 1.247 . S
C127 O124 1.244 . S
C127 O125 1.240 . S
H128 C102 0.931 . S
H129 C111 0.931 . S
H130 C115 0.929 . S
H131 C117 0.930 . S
Co132 N136 2.148 . S
Co132 N142 2.128 . S
Co132 N152 2.194 . S
Co132 O157 2.351 . S
Co132 O158 2.155 . S
Co132 O159 2.096 . S
C133 N136 1.301 . S
C133 N137 1.328 . S
C133 H138 0.930 . S
C134 C135 1.333 . S
C134 N136 1.317 . S
C134 H139 0.930 . S
C135 C134 1.333 . S
C135 N137 1.350 . S
C135 H161 0.931 . S
N136 Co132 2.148 . S
N136 C133 1.301 . S
N136 C134 1.317 . S
N137 C133 1.328 . S
N137 C135 1.350 . S
H138 C133 0.930 . S
H139 C134 0.930 . S
C140 O141 1.224 . S
C140 O159 1.247 . S
O141 C140 1.224 . S
N142 Co132 2.128 . S
N142 C143 1.355 . S
N142 C145 1.311 . S
C143 N142 1.355 . S
C143 C144 1.363 . S
C143 H155 0.929 1_455 S
C144 C143 1.363 . S
C144 N146 1.375 . S
C144 H162 0.931 1_455 S
C145 N142 1.311 . S
C145 N146 1.347 . S
C145 H156 0.929 . S
N146 C144 1.375 . S
N146 C145 1.347 . S
C147 C150 1.365 . S
C147 N152 1.328 1_655 S
C147 H153 0.929 . S
C148 C149 1.362 . S
C148 C151 1.378 1_655 S
C148 H163 0.929 . S
C149 C148 1.362 . S
C149 C150 1.366 . S
C150 C147 1.365 . S
C150 C149 1.366 . S
C150 H164 0.930 . S
C151 C148 1.378 1_455 S
C151 N152 1.315 . S
C151 H154 0.930 . S
N152 Co132 2.194 . S
N152 C147 1.328 1_455 S
N152 C151 1.315 . S
H153 C147 0.929 . S
H154 C151 0.930 . S
H155 C143 0.929 1_655 S
H156 C145 0.929 . S
O157 Co132 2.351 . S
O157 C160 1.244 . S
O158 Co132 2.155 . S
O158 C160 1.240 . S
O159 Co132 2.096 . S
O159 C140 1.247 . S
C160 O157 1.244 . S
C160 O158 1.240 . S
H161 C135 0.931 . S
H162 C144 0.931 1_655 S
H163 C148 0.929 . S
H164 C150 0.930 . S
Co165 N169 2.148 . S
Co165 N175 2.128 . S
Co165 N185 2.194 . S
Co165 O190 2.351 . S
Co165 O191 2.155 . S
Co165 O192 2.096 . S
C166 N169 1.301 . S
C166 N170 1.328 . S
C166 H171 0.930 . S
C167 C168 1.333 . S
C167 N169 1.317 . S
C167 H172 0.930 . S
C168 C167 1.333 . S
C168 N170 1.350 . S
C168 H194 0.931 . S
N169 Co165 2.148 . S
N169 C166 1.301 . S
N169 C167 1.317 . S
N170 C166 1.328 . S
N170 C168 1.350 . S
H171 C166 0.930 . S
H172 C167 0.930 . S
C173 O174 1.224 . S
C173 O192 1.247 . S
O174 C173 1.224 . S
N175 Co165 2.128 . S
N175 C176 1.355 . S
N175 C178 1.311 1_556 S
C176 N175 1.355 . S
C176 C177 1.363 1_556 S
C176 H188 0.929 1_545 S
C177 C176 1.363 1_554 S
C177 N179 1.375 . S
C177 H195 0.931 1_545 S
C178 N175 1.311 1_554 S
C178 N179 1.347 . S
C178 H189 0.929 . S
N179 C177 1.375 . S
N179 C178 1.347 . S
C180 C183 1.365 . S
C180 N185 1.328 1_565 S
C180 H186 0.929 . S
C181 C182 1.362 . S
C181 C184 1.378 1_565 S
C181 H196 0.929 . S
C182 C181 1.362 . S
C182 C183 1.366 . S
C183 C180 1.365 . S
C183 C182 1.366 . S
C183 H197 0.930 . S
C184 C181 1.378 1_545 S
C184 N185 1.315 . S
C184 H187 0.930 . S
N185 Co165 2.194 . S
N185 C180 1.328 1_545 S
N185 C184 1.315 . S
H186 C180 0.929 . S
H187 C184 0.930 . S
H188 C176 0.929 1_565 S
H189 C178 0.929 . S
O190 Co165 2.351 . S
O190 C193 1.244 . S
O191 Co165 2.155 . S
O191 C193 1.240 . S
O192 Co165 2.096 . S
O192 C173 1.247 . S
C193 O190 1.244 . S
C193 O191 1.240 . S
H194 C168 0.931 . S
H195 C177 0.931 1_565 S
H196 C181 0.929 . S
H197 C183 0.930 . S
Co198 N202 2.148 . S
Co198 N208 2.128 . S
Co198 N218 2.194 . S
Co198 O223 2.351 . S
Co198 O224 2.155 . S
Co198 O225 2.096 . S
C199 N202 1.301 . S
C199 N203 1.328 . S
C199 H204 0.930 . S
C200 C201 1.333 . S
C200 N202 1.317 . S
C200 H205 0.930 . S
C201 C200 1.333 . S
C201 N203 1.350 . S
C201 H227 0.931 . S
N202 Co198 2.148 . S
N202 C199 1.301 . S
N202 C200 1.317 . S
N203 C199 1.328 . S
N203 C201 1.350 . S
H204 C199 0.930 . S
H205 C200 0.930 . S
C206 O207 1.224 . S
C206 O225 1.247 . S
O207 C206 1.224 . S
N208 Co198 2.128 . S
N208 C209 1.355 . S
N208 C211 1.311 . S
C209 N208 1.355 . S
C209 C210 1.363 . S
C209 H221 0.929 . S
C210 C209 1.363 . S
C210 N212 1.375 . S
C210 H228 0.931 . S
C211 N208 1.311 . S
C211 N212 1.347 . S
C211 H222 0.929 . S
N212 C210 1.375 . S
N212 C211 1.347 . S
C213 C216 1.365 . S
C213 N218 1.328 . S
C213 H219 0.929 . S
C214 C215 1.362 . S
C214 C217 1.378 . S
C214 H229 0.929 . S
C215 C214 1.362 . S
C215 C216 1.366 . S
C216 C213 1.365 . S
C216 C215 1.366 . S
C216 H230 0.930 . S
C217 C214 1.378 . S
C217 N218 1.315 . S
C217 H220 0.930 . S
N218 Co198 2.194 . S
N218 C213 1.328 . S
N218 C217 1.315 . S
H219 C213 0.929 . S
H220 C217 0.930 . S
H221 C209 0.929 . S
H222 C211 0.929 . S
O223 Co198 2.351 . S
O223 C226 1.244 . S
O224 Co198 2.155 . S
O224 C226 1.240 . S
O225 Co198 2.096 . S
O225 C206 1.247 . S
C226 O223 1.244 . S
C226 O224 1.240 . S
H227 C201 0.931 . S
H228 C210 0.931 . S
H229 C214 0.929 . S
H230 C216 0.930 . S
Co231 N235 2.148 . S
Co231 N241 2.128 . S
Co231 N251 2.194 . S
Co231 O256 2.351 . S
Co231 O257 2.155 . S
Co231 O258 2.096 . S
C232 N235 1.301 . S
C232 N236 1.328 . S
C232 H237 0.930 . S
C233 C234 1.333 . S
C233 N235 1.317 . S
C233 H238 0.930 . S
C234 C233 1.333 . S
C234 N236 1.350 . S
C234 H260 0.931 . S
N235 Co231 2.148 . S
N235 C232 1.301 . S
N235 C233 1.317 . S
N236 C232 1.328 . S
N236 C234 1.350 . S
H237 C232 0.930 . S
H238 C233 0.930 . S
C239 O240 1.224 . S
C239 O258 1.247 . S
O240 C239 1.224 . S
N241 Co231 2.128 . S
N241 C242 1.355 . S
N241 C244 1.311 1_556 S
C242 N241 1.355 . S
C242 C243 1.363 1_556 S
C242 H254 0.929 . S
C243 C242 1.363 1_554 S
C243 N245 1.375 . S
C243 H261 0.931 . S
C244 N241 1.311 1_554 S
C244 N245 1.347 . S
C244 H255 0.929 . S
N245 C243 1.375 . S
N245 C244 1.347 . S
C246 C249 1.365 . S
C246 N251 1.328 . S
C246 H252 0.929 . S
C247 C248 1.362 . S
C247 C250 1.378 . S
C247 H262 0.929 . S
C248 C247 1.362 . S
C248 C249 1.366 . S
C249 C246 1.365 . S
C249 C248 1.366 . S
C249 H263 0.930 . S
C250 C247 1.378 . S
C250 N251 1.315 . S
C250 H253 0.930 . S
N251 Co231 2.194 . S
N251 C246 1.328 . S
N251 C250 1.315 . S
H252 C246 0.929 . S
H253 C250 0.930 . S
H254 C242 0.929 . S
H255 C244 0.929 . S
O256 Co231 2.351 . S
O256 C259 1.244 . S
O257 Co231 2.155 . S
O257 C259 1.240 . S
O258 Co231 2.096 . S
O258 C239 1.247 . S
C259 O256 1.244 . S
C259 O257 1.240 . S
H260 C234 0.931 . S
H261 C243 0.931 . S
H262 C247 0.929 . S
H263 C249 0.930 . S
Co264 N268 2.148 . S
Co264 N274 2.128 . S
Co264 N284 2.194 . S
Co264 O289 2.351 . S
Co264 O290 2.155 . S
Co264 O291 2.096 . S
C265 N268 1.301 . S
C265 N269 1.328 . S
C265 H270 0.930 . S
C266 C267 1.333 . S
C266 N268 1.317 . S
C266 H271 0.930 . S
C267 C266 1.333 . S
C267 N269 1.350 . S
C267 H293 0.931 . S
N268 Co264 2.148 . S
N268 C265 1.301 . S
N268 C266 1.317 . S
N269 C265 1.328 . S
N269 C267 1.350 . S
H270 C265 0.930 . S
H271 C266 0.930 . S
C272 O273 1.224 . S
C272 O291 1.247 . S
O273 C272 1.224 . S
N274 Co264 2.128 . S
N274 C275 1.355 . S
N274 C277 1.311 1_556 S
C275 N274 1.355 . S
C275 C276 1.363 1_556 S
C275 H287 0.929 1_655 S
C276 C275 1.363 1_554 S
C276 N278 1.375 . S
C276 H294 0.931 1_655 S
C277 N274 1.311 1_554 S
C277 N278 1.347 . S
C277 H288 0.929 . S
N278 C276 1.375 . S
N278 C277 1.347 . S
C279 C282 1.365 . S
C279 N284 1.328 1_455 S
C279 H285 0.929 . S
C280 C281 1.362 . S
C280 C283 1.378 1_455 S
C280 H295 0.929 . S
C281 C280 1.362 . S
C281 C282 1.366 . S
C282 C279 1.365 . S
C282 C281 1.366 . S
C282 H296 0.930 . S
C283 C280 1.378 1_655 S
C283 N284 1.315 . S
C283 H286 0.930 . S
N284 Co264 2.194 . S
N284 C279 1.328 1_655 S
N284 C283 1.315 . S
H285 C279 0.929 . S
H286 C283 0.930 . S
H287 C275 0.929 1_455 S
H288 C277 0.929 . S
O289 Co264 2.351 . S
O289 C292 1.244 . S
O290 Co264 2.155 . S
O290 C292 1.240 . S
O291 Co264 2.096 . S
O291 C272 1.247 . S
C292 O289 1.244 . S
C292 O290 1.240 . S
H293 C267 0.931 . S
H294 C276 0.931 1_455 S
H295 C280 0.929 . S
H296 C282 0.930 . S
Co297 N301 2.148 . S
Co297 N307 2.128 . S
Co297 N317 2.194 . S
Co297 O322 2.351 . S
Co297 O323 2.155 . S
Co297 O324 2.096 . S
C298 N301 1.301 . S
C298 N302 1.328 . S
C298 H303 0.930 . S
C299 C300 1.333 . S
C299 N301 1.317 . S
C299 H304 0.930 . S
C300 C299 1.333 . S
C300 N302 1.350 . S
C300 H326 0.931 . S
N301 Co297 2.148 . S
N301 C298 1.301 . S
N301 C299 1.317 . S
N302 C298 1.328 . S
N302 C300 1.350 . S
H303 C298 0.930 . S
H304 C299 0.930 . S
C305 O306 1.224 . S
C305 O324 1.247 . S
O306 C305 1.224 . S
N307 Co297 2.128 . S
N307 C308 1.355 . S
N307 C310 1.311 . S
C308 N307 1.355 . S
C308 C309 1.363 . S
C308 H320 0.929 1_565 S
C309 C308 1.363 . S
C309 N311 1.375 . S
C309 H327 0.931 1_565 S
C310 N307 1.311 . S
C310 N311 1.347 . S
C310 H321 0.929 . S
N311 C309 1.375 . S
N311 C310 1.347 . S
C312 C315 1.365 . S
C312 N317 1.328 1_545 S
C312 H318 0.929 . S
C313 C314 1.362 . S
C313 C316 1.378 1_545 S
C313 H328 0.929 . S
C314 C313 1.362 . S
C314 C315 1.366 . S
C315 C312 1.365 . S
C315 C314 1.366 . S
C315 H329 0.930 . S
C316 C313 1.378 1_565 S
C316 N317 1.315 . S
C316 H319 0.930 . S
N317 Co297 2.194 . S
N317 C312 1.328 1_565 S
N317 C316 1.315 . S
H318 C312 0.929 . S
H319 C316 0.930 . S
H320 C308 0.929 1_545 S
H321 C310 0.929 . S
O322 Co297 2.351 . S
O322 C325 1.244 . S
O323 Co297 2.155 . S
O323 C325 1.240 . S
O324 Co297 2.096 . S
O324 C305 1.247 . S
C325 O322 1.244 . S
C325 O323 1.240 . S
H326 C300 0.931 . S
H327 C309 0.931 1_545 S
H328 C313 0.929 . S
H329 C315 0.930 . S
Co330 N334 2.148 . S
Co330 N340 2.128 . S
Co330 N350 2.194 . S
Co330 O355 2.351 . S
Co330 O356 2.155 . S
Co330 O357 2.096 . S
C331 N334 1.301 . S
C331 N335 1.328 . S
C331 H336 0.930 . S
C332 C333 1.333 . S
C332 N334 1.317 . S
C332 H337 0.930 . S
C333 C332 1.333 . S
C333 N335 1.350 . S
C333 H359 0.931 . S
N334 Co330 2.148 . S
N334 C331 1.301 . S
N334 C332 1.317 . S
N335 C331 1.328 . S
N335 C333 1.350 . S
H336 C331 0.930 . S
H337 C332 0.930 . S
C338 O339 1.224 . S
C338 O357 1.247 . S
O339 C338 1.224 . S
N340 Co330 2.128 . S
N340 C341 1.355 . S
N340 C343 1.311 1_556 S
C341 N340 1.355 . S
C341 C342 1.363 1_556 S
C341 H353 0.929 . S
C342 C341 1.363 1_554 S
C342 N344 1.375 . S
C342 H360 0.931 . S
C343 N340 1.311 1_554 S
C343 N344 1.347 . S
C343 H354 0.929 . S
N344 C342 1.375 . S
N344 C343 1.347 . S
C345 C348 1.365 . S
C345 N350 1.328 . S
C345 H351 0.929 . S
C346 C347 1.362 . S
C346 C349 1.378 . S
C346 H361 0.929 . S
C347 C346 1.362 . S
C347 C348 1.366 . S
C348 C345 1.365 . S
C348 C347 1.366 . S
C348 H362 0.930 . S
C349 C346 1.378 . S
C349 N350 1.315 . S
C349 H352 0.930 . S
N350 Co330 2.194 . S
N350 C345 1.328 . S
N350 C349 1.315 . S
H351 C345 0.929 . S
H352 C349 0.930 . S
H353 C341 0.929 . S
H354 C343 0.929 . S
O355 Co330 2.351 . S
O355 C358 1.244 . S
O356 Co330 2.155 . S
O356 C358 1.240 . S
O357 Co330 2.096 . S
O357 C338 1.247 . S
C358 O355 1.244 . S
C358 O356 1.240 . S
H359 C333 0.931 . S
H360 C342 0.931 . S
H361 C346 0.929 . S
H362 C348 0.930 . S
Co363 N367 2.148 . S
Co363 N373 2.128 . S
Co363 N383 2.194 . S
Co363 O388 2.351 . S
Co363 O389 2.155 . S
Co363 O390 2.096 . S
C364 N367 1.301 . S
C364 N368 1.328 . S
C364 H369 0.930 . S
C365 C366 1.333 . S
C365 N367 1.317 . S
C365 H370 0.930 . S
C366 C365 1.333 . S
C366 N368 1.350 . S
C366 H392 0.931 . S
N367 Co363 2.148 . S
N367 C364 1.301 . S
N367 C365 1.317 . S
N368 C364 1.328 . S
N368 C366 1.350 . S
H369 C364 0.930 . S
H370 C365 0.930 . S
C371 O372 1.224 . S
C371 O390 1.247 . S
O372 C371 1.224 . S
N373 Co363 2.128 . S
N373 C374 1.355 . S
N373 C376 1.311 . S
C374 N373 1.355 . S
C374 C375 1.363 . S
C374 H386 0.929 . S
C375 C374 1.363 . S
C375 N377 1.375 . S
C375 H393 0.931 . S
C376 N373 1.311 . S
C376 N377 1.347 . S
C376 H387 0.929 . S
N377 C375 1.375 . S
N377 C376 1.347 . S
C378 C381 1.365 . S
C378 N383 1.328 . S
C378 H384 0.929 . S
C379 C380 1.362 . S
C379 C382 1.378 . S
C379 H394 0.929 . S
C380 C379 1.362 . S
C380 C381 1.366 . S
C381 C378 1.365 . S
C381 C380 1.366 . S
C381 H395 0.930 . S
C382 C379 1.378 . S
C382 N383 1.315 . S
C382 H385 0.930 . S
N383 Co363 2.194 . S
N383 C378 1.328 . S
N383 C382 1.315 . S
H384 C378 0.929 . S
H385 C382 0.930 . S
H386 C374 0.929 . S
H387 C376 0.929 . S
O388 Co363 2.351 . S
O388 C391 1.244 . S
O389 Co363 2.155 . S
O389 C391 1.240 . S
O390 Co363 2.096 . S
O390 C371 1.247 . S
C391 O388 1.244 . S
C391 O389 1.240 . S
H392 C366 0.931 . S
H393 C375 0.931 . S
H394 C379 0.929 . S
H395 C381 0.930 . S
Co396 N400 2.148 . S
Co396 N406 2.128 . S
Co396 N416 2.194 . S
Co396 O421 2.351 . S
Co396 O422 2.155 . S
Co396 O423 2.096 . S
C397 N400 1.301 . S
C397 N401 1.328 . S
C397 H402 0.930 . S
C398 C399 1.333 . S
C398 N400 1.317 . S
C398 H403 0.930 . S
C399 C398 1.333 . S
C399 N401 1.350 . S
C399 H425 0.931 . S
N400 Co396 2.148 . S
N400 C397 1.301 . S
N400 C398 1.317 . S
N401 C397 1.328 . S
N401 C399 1.350 . S
H402 C397 0.930 . S
H403 C398 0.930 . S
C404 O405 1.224 . S
C404 O423 1.247 . S
O405 C404 1.224 . S
N406 Co396 2.128 . S
N406 C407 1.355 . S
N406 C409 1.311 . S
C407 N406 1.355 . S
C407 C408 1.363 . S
C407 H419 0.929 1_655 S
C408 C407 1.363 . S
C408 N410 1.375 . S
C408 H426 0.931 1_655 S
C409 N406 1.311 . S
C409 N410 1.347 . S
C409 H420 0.929 . S
N410 C408 1.375 . S
N410 C409 1.347 . S
C411 C414 1.365 . S
C411 N416 1.328 1_455 S
C411 H417 0.929 . S
C412 C413 1.362 . S
C412 C415 1.378 1_455 S
C412 H427 0.929 . S
C413 C412 1.362 . S
C413 C414 1.366 . S
C414 C411 1.365 . S
C414 C413 1.366 . S
C414 H428 0.930 . S
C415 C412 1.378 1_655 S
C415 N416 1.315 . S
C415 H418 0.930 . S
N416 Co396 2.194 . S
N416 C411 1.328 1_655 S
N416 C415 1.315 . S
H417 C411 0.929 . S
H418 C415 0.930 . S
H419 C407 0.929 1_455 S
H420 C409 0.929 . S
O421 Co396 2.351 . S
O421 C424 1.244 . S
O422 Co396 2.155 . S
O422 C424 1.240 . S
O423 Co396 2.096 . S
O423 C404 1.247 . S
C424 O421 1.244 . S
C424 O422 1.240 . S
H425 C399 0.931 . S
H426 C408 0.931 1_455 S
H427 C412 0.929 . S
H428 C414 0.930 . S
Co429 N433 2.148 . S
Co429 N439 2.128 . S
Co429 N449 2.194 . S
Co429 O454 2.351 . S
Co429 O455 2.155 . S
Co429 O456 2.096 . S
C430 N433 1.301 . S
C430 N434 1.328 . S
C430 H435 0.930 . S
C431 C432 1.333 . S
C431 N433 1.317 . S
C431 H436 0.930 . S
C432 C431 1.333 . S
C432 N434 1.350 . S
C432 H458 0.931 . S
N433 Co429 2.148 . S
N433 C430 1.301 . S
N433 C431 1.317 . S
N434 C430 1.328 . S
N434 C432 1.350 . S
H435 C430 0.930 . S
H436 C431 0.930 . S
C437 O438 1.224 . S
C437 O456 1.247 . S
O438 C437 1.224 . S
N439 Co429 2.128 . S
N439 C440 1.355 . S
N439 C442 1.311 1_554 S
C440 N439 1.355 . S
C440 C441 1.363 1_554 S
C440 H452 0.929 1_565 S
C441 C440 1.363 1_556 S
C441 N443 1.375 . S
C441 H459 0.931 1_565 S
C442 N439 1.311 1_556 S
C442 N443 1.347 . S
C442 H453 0.929 . S
N443 C441 1.375 . S
N443 C442 1.347 . S
C444 C447 1.365 . S
C444 N449 1.328 1_545 S
C444 H450 0.929 . S
C445 C446 1.362 . S
C445 C448 1.378 1_545 S
C445 H460 0.929 . S
C446 C445 1.362 . S
C446 C447 1.366 . S
C447 C444 1.365 . S
C447 C446 1.366 . S
C447 H461 0.930 . S
C448 C445 1.378 1_565 S
C448 N449 1.315 . S
C448 H451 0.930 . S
N449 Co429 2.194 . S
N449 C444 1.328 1_565 S
N449 C448 1.315 . S
H450 C444 0.929 . S
H451 C448 0.930 . S
H452 C440 0.929 1_545 S
H453 C442 0.929 . S
O454 Co429 2.351 . S
O454 C457 1.244 . S
O455 Co429 2.155 . S
O455 C457 1.240 . S
O456 Co429 2.096 . S
O456 C437 1.247 . S
C457 O454 1.244 . S
C457 O455 1.240 . S
H458 C432 0.931 . S
H459 C441 0.931 1_545 S
H460 C445 0.929 . S
H461 C447 0.930 . S
Co462 N466 2.148 . S
Co462 N472 2.128 . S
Co462 N482 2.194 . S
Co462 O487 2.351 . S
Co462 O488 2.155 . S
Co462 O489 2.096 . S
C463 N466 1.301 . S
C463 N467 1.328 . S
C463 H468 0.930 . S
C464 C465 1.333 . S
C464 N466 1.317 . S
C464 H469 0.930 . S
C465 C464 1.333 . S
C465 N467 1.350 . S
C465 H491 0.931 . S
N466 Co462 2.148 . S
N466 C463 1.301 . S
N466 C464 1.317 . S
N467 C463 1.328 . S
N467 C465 1.350 . S
H468 C463 0.930 . S
H469 C464 0.930 . S
C470 O471 1.224 . S
C470 O489 1.247 . S
O471 C470 1.224 . S
N472 Co462 2.128 . S
N472 C473 1.355 . S
N472 C475 1.311 . S
C473 N472 1.355 . S
C473 C474 1.363 . S
C473 H485 0.929 . S
C474 C473 1.363 . S
C474 N476 1.375 . S
C474 H492 0.931 . S
C475 N472 1.311 . S
C475 N476 1.347 . S
C475 H486 0.929 . S
N476 C474 1.375 . S
N476 C475 1.347 . S
C477 C480 1.365 . S
C477 N482 1.328 . S
C477 H483 0.929 . S
C478 C479 1.362 . S
C478 C481 1.378 . S
C478 H493 0.929 . S
C479 C478 1.362 . S
C479 C480 1.366 . S
C480 C477 1.365 . S
C480 C479 1.366 . S
C480 H494 0.930 . S
C481 C478 1.378 . S
C481 N482 1.315 . S
C481 H484 0.930 . S
N482 Co462 2.194 . S
N482 C477 1.328 . S
N482 C481 1.315 . S
H483 C477 0.929 . S
H484 C481 0.930 . S
H485 C473 0.929 . S
H486 C475 0.929 . S
O487 Co462 2.351 . S
O487 C490 1.244 . S
O488 Co462 2.155 . S
O488 C490 1.240 . S
O489 Co462 2.096 . S
O489 C470 1.247 . S
C490 O487 1.244 . S
C490 O488 1.240 . S
H491 C465 0.931 . S
H492 C474 0.931 . S
H493 C478 0.929 . S
H494 C480 0.930 . S
Co495 N499 2.148 . S
Co495 N505 2.128 . S
Co495 N515 2.194 . S
Co495 O520 2.351 . S
Co495 O521 2.155 . S
Co495 O522 2.096 . S
C496 N499 1.301 . S
C496 N500 1.328 . S
C496 H501 0.930 . S
C497 C498 1.333 . S
C497 N499 1.317 . S
C497 H502 0.930 . S
C498 C497 1.333 . S
C498 N500 1.350 . S
C498 H524 0.931 . S
N499 Co495 2.148 . S
N499 C496 1.301 . S
N499 C497 1.317 . S
N500 C496 1.328 . S
N500 C498 1.350 . S
H501 C496 0.930 . S
H502 C497 0.930 . S
C503 O504 1.224 . S
C503 O522 1.247 . S
O504 C503 1.224 . S
N505 Co495 2.128 . S
N505 C506 1.355 . S
N505 C508 1.311 1_554 S
C506 N505 1.355 . S
C506 C507 1.363 1_554 S
C506 H518 0.929 . S
C507 C506 1.363 1_556 S
C507 N509 1.375 . S
C507 H525 0.931 . S
C508 N505 1.311 1_556 S
C508 N509 1.347 . S
C508 H519 0.929 . S
N509 C507 1.375 . S
N509 C508 1.347 . S
C510 C513 1.365 . S
C510 N515 1.328 . S
C510 H516 0.929 . S
C511 C512 1.362 . S
C511 C514 1.378 . S
C511 H526 0.929 . S
C512 C511 1.362 . S
C512 C513 1.366 . S
C513 C510 1.365 . S
C513 C512 1.366 . S
C513 H527 0.930 . S
C514 C511 1.378 . S
C514 N515 1.315 . S
C514 H517 0.930 . S
N515 Co495 2.194 . S
N515 C510 1.328 . S
N515 C514 1.315 . S
H516 C510 0.929 . S
H517 C514 0.930 . S
H518 C506 0.929 . S
H519 C508 0.929 . S
O520 Co495 2.351 . S
O520 C523 1.244 . S
O521 Co495 2.155 . S
O521 C523 1.240 . S
O522 Co495 2.096 . S
O522 C503 1.247 . S
C523 O520 1.244 . S
C523 O521 1.240 . S
H524 C498 0.931 . S
H525 C507 0.931 . S
H526 C511 0.929 . S
H527 C513 0.930 . S
H528 C536 0.929 . S
H529 C538 0.930 . S
H530 C540 0.930 . S
H531 C543 0.929 . S
H532 C546 0.930 . S
H533 C548 0.960 . S
H534 C548 0.960 . S
H535 C548 0.960 . S
C536 H528 0.929 . S
C536 C537 1.377 . S
C536 C538 1.384 . S
C537 C536 1.377 . S
C537 C543 1.390 . S
C538 H529 0.930 . S
C538 C536 1.384 . S
C538 C539 1.372 . S
C539 C538 1.372 . S
C539 C540 1.400 . S
C539 C544 1.490 . S
C540 H530 0.930 . S
C540 C539 1.400 . S
C540 C543 1.386 . S
H541 C557 0.930 . S
H542 C558 0.931 . S
C543 H531 0.929 . S
C543 C537 1.390 . S
C543 C540 1.386 . S
C544 C539 1.490 . S
C544 C546 1.395 . S
C544 C547 1.403 . S
H545 C551 0.930 . S
C546 H532 0.930 . S
C546 C544 1.395 . S
C546 C549 1.403 . S
C547 C544 1.403 . S
C547 C548 1.524 . S
C547 C551 1.400 . S
C548 H533 0.960 . S
C548 H534 0.960 . S
C548 H535 0.960 . S
C548 C547 1.524 . S
C549 C546 1.403 . S
C549 C550 1.392 . S
C549 C553 1.495 . S
C550 C549 1.392 . S
C550 C551 1.385 . S
C550 C552 1.478 . S
C551 H545 0.930 . S
C551 C547 1.400 . S
C551 C550 1.385 . S
C552 C550 1.478 . S
C552 C554 1.381 . S
C552 C558 1.383 . S
C553 C549 1.495 . S
C553 H559 0.959 . S
C553 H560 0.961 . S
C553 H561 0.960 . S
C554 C552 1.381 . S
C554 C555 1.394 . S
C554 H562 0.930 . S
C555 C554 1.394 . S
C555 C556 1.383 . S
C555 H563 0.929 . S
C556 C555 1.383 . S
C556 C557 1.377 . S
C557 H541 0.930 . S
C557 C556 1.377 . S
C557 C558 1.379 . S
C558 H542 0.931 . S
C558 C552 1.383 . S
C558 C557 1.379 . S
H559 C553 0.959 . S
H560 C553 0.961 . S
H561 C553 0.960 . S
H562 C554 0.930 . S
H563 C555 0.929 . S
H564 C572 0.929 . S
H565 C574 0.930 . S
H566 C576 0.930 . S
H567 C579 0.929 . S
H568 C582 0.930 . S
H569 C584 0.960 . S
H570 C584 0.960 . S
H571 C584 0.960 . S
C572 H564 0.929 . S
C572 C573 1.377 . S
C572 C574 1.384 . S
C573 C572 1.377 . S
C573 C579 1.390 . S
C574 H565 0.930 . S
C574 C572 1.384 . S
C574 C575 1.372 . S
C575 C574 1.372 . S
C575 C576 1.400 . S
C575 C580 1.490 . S
C576 H566 0.930 . S
C576 C575 1.400 . S
C576 C579 1.386 . S
H577 C593 0.930 . S
H578 C594 0.931 . S
C579 H567 0.929 . S
C579 C573 1.390 . S
C579 C576 1.386 . S
C580 C575 1.490 . S
C580 C582 1.395 . S
C580 C583 1.403 . S
H581 C587 0.930 . S
C582 H568 0.930 . S
C582 C580 1.395 . S
C582 C585 1.403 . S
C583 C580 1.403 . S
C583 C584 1.524 . S
C583 C587 1.400 . S
C584 H569 0.960 . S
C584 H570 0.960 . S
C584 H571 0.960 . S
C584 C583 1.524 . S
C585 C582 1.403 . S
C585 C586 1.392 . S
C585 C589 1.495 . S
C586 C585 1.392 . S
C586 C587 1.385 . S
C586 C588 1.478 . S
C587 H581 0.930 . S
C587 C583 1.400 . S
C587 C586 1.385 . S
C588 C586 1.478 . S
C588 C590 1.381 . S
C588 C594 1.383 . S
C589 C585 1.495 . S
C589 H595 0.959 . S
C589 H596 0.961 . S
C589 H597 0.960 . S
C590 C588 1.381 . S
C590 C591 1.394 . S
C590 H598 0.930 . S
C591 C590 1.394 . S
C591 C592 1.383 . S
C591 H599 0.929 . S
C592 C591 1.383 . S
C592 C593 1.377 . S
C593 H577 0.930 . S
C593 C592 1.377 . S
C593 C594 1.379 . S
C594 H578 0.931 . S
C594 C588 1.383 . S
C594 C593 1.379 . S
H595 C589 0.959 . S
H596 C589 0.961 . S
H597 C589 0.960 . S
H598 C590 0.930 . S
H599 C591 0.929 . S
H600 C608 0.929 . S
H601 C610 0.930 . S
H602 C612 0.930 . S
H603 C615 0.929 . S
H604 C618 0.930 . S
H605 C620 0.960 . S
H606 C620 0.960 . S
H607 C620 0.960 . S
C608 H600 0.929 . S
C608 C609 1.377 . S
C608 C610 1.384 . S
C609 C608 1.377 . S
C609 C615 1.390 . S
C610 H601 0.930 . S
C610 C608 1.384 . S
C610 C611 1.372 . S
C611 C610 1.372 . S
C611 C612 1.400 . S
C611 C616 1.490 . S
C612 H602 0.930 . S
C612 C611 1.400 . S
C612 C615 1.386 . S
H613 C629 0.930 . S
H614 C630 0.931 . S
C615 H603 0.929 . S
C615 C609 1.390 . S
C615 C612 1.386 . S
C616 C611 1.490 . S
C616 C618 1.395 . S
C616 C619 1.403 . S
H617 C623 0.930 . S
C618 H604 0.930 . S
C618 C616 1.395 . S
C618 C621 1.403 . S
C619 C616 1.403 . S
C619 C620 1.524 . S
C619 C623 1.400 . S
C620 H605 0.960 . S
C620 H606 0.960 . S
C620 H607 0.960 . S
C620 C619 1.524 . S
C621 C618 1.403 . S
C621 C622 1.392 . S
C621 C625 1.495 . S
C622 C621 1.392 . S
C622 C623 1.385 . S
C622 C624 1.478 . S
C623 H617 0.930 . S
C623 C619 1.400 . S
C623 C622 1.385 . S
C624 C622 1.478 . S
C624 C626 1.381 . S
C624 C630 1.383 . S
C625 C621 1.495 . S
C625 H631 0.959 . S
C625 H632 0.961 . S
C625 H633 0.960 . S
C626 C624 1.381 . S
C626 C627 1.394 . S
C626 H634 0.930 . S
C627 C626 1.394 . S
C627 C628 1.383 . S
C627 H635 0.929 . S
C628 C627 1.383 . S
C628 C629 1.377 . S
C629 H613 0.930 . S
C629 C628 1.377 . S
C629 C630 1.379 . S
C630 H614 0.931 . S
C630 C624 1.383 . S
C630 C629 1.379 . S
H631 C625 0.959 . S
H632 C625 0.961 . S
H633 C625 0.960 . S
H634 C626 0.930 . S
H635 C627 0.929 . S
H636 C644 0.929 . S
H637 C646 0.930 . S
H638 C648 0.930 . S
H639 C651 0.929 . S
H640 C654 0.930 . S
H641 C656 0.960 . S
H642 C656 0.960 . S
H643 C656 0.960 . S
C644 H636 0.929 . S
C644 C645 1.377 . S
C644 C646 1.384 . S
C645 C644 1.377 . S
C645 C651 1.390 . S
C646 H637 0.930 . S
C646 C644 1.384 . S
C646 C647 1.372 . S
C647 C646 1.372 . S
C647 C648 1.400 . S
C647 C652 1.490 . S
C648 H638 0.930 . S
C648 C647 1.400 . S
C648 C651 1.386 . S
H649 C665 0.930 . S
H650 C666 0.931 . S
C651 H639 0.929 . S
C651 C645 1.390 . S
C651 C648 1.386 . S
C652 C647 1.490 . S
C652 C654 1.395 . S
C652 C655 1.403 . S
H653 C659 0.930 . S
C654 H640 0.930 . S
C654 C652 1.395 . S
C654 C657 1.403 . S
C655 C652 1.403 . S
C655 C656 1.524 . S
C655 C659 1.400 . S
C656 H641 0.960 . S
C656 H642 0.960 . S
C656 H643 0.960 . S
C656 C655 1.524 . S
C657 C654 1.403 . S
C657 C658 1.392 . S
C657 C661 1.495 . S
C658 C657 1.392 . S
C658 C659 1.385 . S
C658 C660 1.478 . S
C659 H653 0.930 . S
C659 C655 1.400 . S
C659 C658 1.385 . S
C660 C658 1.478 . S
C660 C662 1.381 . S
C660 C666 1.383 . S
C661 C657 1.495 . S
C661 H667 0.959 . S
C661 H668 0.961 . S
C661 H669 0.960 . S
C662 C660 1.381 . S
C662 C663 1.394 . S
C662 H670 0.930 . S
C663 C662 1.394 . S
C663 C664 1.383 . S
C663 H671 0.929 . S
C664 C663 1.383 . S
C664 C665 1.377 . S
C665 H649 0.930 . S
C665 C664 1.377 . S
C665 C666 1.379 . S
C666 H650 0.931 . S
C666 C660 1.383 . S
C666 C665 1.379 . S
H667 C661 0.959 . S
H668 C661 0.961 . S
H669 C661 0.960 . S
H670 C662 0.930 . S
H671 C663 0.929 . S
H672 C680 0.929 . S
H673 C682 0.930 . S
H674 C684 0.930 . S
H675 C687 0.929 . S
H676 C690 0.930 . S
H677 C692 0.960 . S
H678 C692 0.960 . S
H679 C692 0.960 . S
C680 H672 0.929 . S
C680 C681 1.377 . S
C680 C682 1.384 . S
C681 C680 1.377 . S
C681 C687 1.390 . S
C682 H673 0.930 . S
C682 C680 1.384 . S
C682 C683 1.372 . S
C683 C682 1.372 . S
C683 C684 1.400 . S
C683 C688 1.490 . S
C684 H674 0.930 . S
C684 C683 1.400 . S
C684 C687 1.386 . S
H685 C701 0.930 . S
H686 C702 0.931 . S
C687 H675 0.929 . S
C687 C681 1.390 . S
C687 C684 1.386 . S
C688 C683 1.490 . S
C688 C690 1.395 . S
C688 C691 1.403 . S
H689 C695 0.930 . S
C690 H676 0.930 . S
C690 C688 1.395 . S
C690 C693 1.403 . S
C691 C688 1.403 . S
C691 C692 1.524 . S
C691 C695 1.400 . S
C692 H677 0.960 . S
C692 H678 0.960 . S
C692 H679 0.960 . S
C692 C691 1.524 . S
C693 C690 1.403 . S
C693 C694 1.392 . S
C693 C697 1.495 . S
C694 C693 1.392 . S
C694 C695 1.385 . S
C694 C696 1.478 . S
C695 H689 0.930 . S
C695 C691 1.400 . S
C695 C694 1.385 . S
C696 C694 1.478 . S
C696 C698 1.381 . S
C696 C702 1.383 . S
C697 C693 1.495 . S
C697 H703 0.959 . S
C697 H704 0.961 . S
C697 H705 0.960 . S
C698 C696 1.381 . S
C698 C699 1.394 . S
C698 H706 0.930 . S
C699 C698 1.394 . S
C699 C700 1.383 . S
C699 H707 0.929 . S
C700 C699 1.383 . S
C700 C701 1.377 . S
C701 H685 0.930 . S
C701 C700 1.377 . S
C701 C702 1.379 . S
C702 H686 0.931 . S
C702 C696 1.383 . S
C702 C701 1.379 . S
H703 C697 0.959 . S
H704 C697 0.961 . S
H705 C697 0.960 . S
H706 C698 0.930 . S
H707 C699 0.929 . S
H708 C716 0.929 . S
H709 C718 0.930 . S
H710 C720 0.930 . S
H711 C723 0.929 . S
H712 C726 0.930 . S
H713 C728 0.960 . S
H714 C728 0.960 . S
H715 C728 0.960 . S
C716 H708 0.929 . S
C716 C717 1.377 . S
C716 C718 1.384 . S
C717 C716 1.377 . S
C717 C723 1.390 . S
C718 H709 0.930 . S
C718 C716 1.384 . S
C718 C719 1.372 . S
C719 C718 1.372 . S
C719 C720 1.400 . S
C719 C724 1.490 . S
C720 H710 0.930 . S
C720 C719 1.400 . S
C720 C723 1.386 . S
H721 C737 0.930 . S
H722 C738 0.931 . S
C723 H711 0.929 . S
C723 C717 1.390 . S
C723 C720 1.386 . S
C724 C719 1.490 . S
C724 C726 1.395 . S
C724 C727 1.403 . S
H725 C731 0.930 . S
C726 H712 0.930 . S
C726 C724 1.395 . S
C726 C729 1.403 . S
C727 C724 1.403 . S
C727 C728 1.524 . S
C727 C731 1.400 . S
C728 H713 0.960 . S
C728 H714 0.960 . S
C728 H715 0.960 . S
C728 C727 1.524 . S
C729 C726 1.403 . S
C729 C730 1.392 . S
C729 C733 1.495 . S
C730 C729 1.392 . S
C730 C731 1.385 . S
C730 C732 1.478 . S
C731 H725 0.930 . S
C731 C727 1.400 . S
C731 C730 1.385 . S
C732 C730 1.478 . S
C732 C734 1.381 . S
C732 C738 1.383 . S
C733 C729 1.495 . S
C733 H739 0.959 . S
C733 H740 0.961 . S
C733 H741 0.960 . S
C734 C732 1.381 . S
C734 C735 1.394 . S
C734 H742 0.930 . S
C735 C734 1.394 . S
C735 C736 1.383 . S
C735 H743 0.929 . S
C736 C735 1.383 . S
C736 C737 1.377 . S
C737 H721 0.930 . S
C737 C736 1.377 . S
C737 C738 1.379 . S
C738 H722 0.931 . S
C738 C732 1.383 . S
C738 C737 1.379 . S
H739 C733 0.959 . S
H740 C733 0.961 . S
H741 C733 0.960 . S
H742 C734 0.930 . S
H743 C735 0.929 . S
H744 C752 0.929 . S
H745 C754 0.930 . S
H746 C756 0.930 . S
H747 C759 0.929 . S
H748 C762 0.930 . S
H749 C764 0.960 . S
H750 C764 0.960 . S
H751 C764 0.960 . S
C752 H744 0.929 . S
C752 C753 1.377 . S
C752 C754 1.384 . S
C753 C752 1.377 . S
C753 C759 1.390 . S
C754 H745 0.930 . S
C754 C752 1.384 . S
C754 C755 1.372 . S
C755 C754 1.372 . S
C755 C756 1.400 . S
C755 C760 1.490 . S
C756 H746 0.930 . S
C756 C755 1.400 . S
C756 C759 1.386 . S
H757 C773 0.930 . S
H758 C774 0.931 . S
C759 H747 0.929 . S
C759 C753 1.390 . S
C759 C756 1.386 . S
C760 C755 1.490 . S
C760 C762 1.395 . S
C760 C763 1.403 . S
H761 C767 0.930 . S
C762 H748 0.930 . S
C762 C760 1.395 . S
C762 C765 1.403 . S
C763 C760 1.403 . S
C763 C764 1.524 . S
C763 C767 1.400 . S
C764 H749 0.960 . S
C764 H750 0.960 . S
C764 H751 0.960 . S
C764 C763 1.524 . S
C765 C762 1.403 . S
C765 C766 1.392 . S
C765 C769 1.495 . S
C766 C765 1.392 . S
C766 C767 1.385 . S
C766 C768 1.478 . S
C767 H761 0.930 . S
C767 C763 1.400 . S
C767 C766 1.385 . S
C768 C766 1.478 . S
C768 C770 1.381 . S
C768 C774 1.383 . S
C769 C765 1.495 . S
C769 H775 0.959 . S
C769 H776 0.961 . S
C769 H777 0.960 . S
C770 C768 1.381 . S
C770 C771 1.394 . S
C770 H778 0.930 . S
C771 C770 1.394 . S
C771 C772 1.383 . S
C771 H779 0.929 . S
C772 C771 1.383 . S
C772 C773 1.377 . S
C773 H757 0.930 . S
C773 C772 1.377 . S
C773 C774 1.379 . S
C774 H758 0.931 . S
C774 C768 1.383 . S
C774 C773 1.379 . S
H775 C769 0.959 . S
H776 C769 0.961 . S
H777 C769 0.960 . S
H778 C770 0.930 . S
H779 C771 0.929 . S
H780 C788 0.929 . S
H781 C790 0.930 . S
H782 C792 0.930 . S
H783 C795 0.929 . S
H784 C798 0.930 . S
H785 C800 0.960 . S
H786 C800 0.960 . S
H787 C800 0.960 . S
C788 H780 0.929 . S
C788 C789 1.377 . S
C788 C790 1.384 . S
C789 C788 1.377 . S
C789 C795 1.390 . S
C790 H781 0.930 . S
C790 C788 1.384 . S
C790 C791 1.372 . S
C791 C790 1.372 . S
C791 C792 1.400 . S
C791 C796 1.490 . S
C792 H782 0.930 . S
C792 C791 1.400 . S
C792 C795 1.386 . S
H793 C809 0.930 . S
H794 C810 0.931 . S
C795 H783 0.929 . S
C795 C789 1.390 . S
C795 C792 1.386 . S
C796 C791 1.490 . S
C796 C798 1.395 . S
C796 C799 1.403 . S
H797 C803 0.930 . S
C798 H784 0.930 . S
C798 C796 1.395 . S
C798 C801 1.403 . S
C799 C796 1.403 . S
C799 C800 1.524 . S
C799 C803 1.400 . S
C800 H785 0.960 . S
C800 H786 0.960 . S
C800 H787 0.960 . S
C800 C799 1.524 . S
C801 C798 1.403 . S
C801 C802 1.392 . S
C801 C805 1.495 . S
C802 C801 1.392 . S
C802 C803 1.385 . S
C802 C804 1.478 . S
C803 H797 0.930 . S
C803 C799 1.400 . S
C803 C802 1.385 . S
C804 C802 1.478 . S
C804 C806 1.381 . S
C804 C810 1.383 . S
C805 C801 1.495 . S
C805 H811 0.959 . S
C805 H812 0.961 . S
C805 H813 0.960 . S
C806 C804 1.381 . S
C806 C807 1.394 . S
C806 H814 0.930 . S
C807 C806 1.394 . S
C807 C808 1.383 . S
C807 H815 0.929 . S
C808 C807 1.383 . S
C808 C809 1.377 . S
C809 H793 0.930 . S
C809 C808 1.377 . S
C809 C810 1.379 . S
C810 H794 0.931 . S
C810 C804 1.383 . S
C810 C809 1.379 . S
H811 C805 0.959 . S
H812 C805 0.961 . S
H813 C805 0.960 . S
H814 C806 0.930 . S
H815 C807 0.929 . S
H816 C824 0.929 . S
H817 C826 0.930 . S
H818 C828 0.930 1_556 S
H819 C831 0.929 . S
H820 C834 0.930 . S
H821 C836 0.960 1_556 S
H822 C836 0.960 . S
H823 C836 0.960 1_556 S
C824 H816 0.929 . S
C824 C825 1.377 . S
C824 C826 1.384 . S
C825 C824 1.377 . S
C825 C831 1.390 . S
C826 H817 0.930 . S
C826 C824 1.384 . S
C826 C827 1.372 . S
C827 C826 1.372 . S
C827 C828 1.400 . S
C827 C832 1.490 . S
C828 H818 0.930 1_554 S
C828 C827 1.400 . S
C828 C831 1.386 . S
H829 C845 0.930 . S
H830 C846 0.931 . S
C831 H819 0.929 . S
C831 C825 1.390 . S
C831 C828 1.386 . S
C832 C827 1.490 . S
C832 C834 1.395 . S
C832 C835 1.403 . S
H833 C839 0.930 . S
C834 H820 0.930 . S
C834 C832 1.395 . S
C834 C837 1.403 . S
C835 C832 1.403 . S
C835 C836 1.524 . S
C835 C839 1.400 1_554 S
C836 H821 0.960 1_554 S
C836 H822 0.960 . S
C836 H823 0.960 1_554 S
C836 C835 1.524 . S
C837 C834 1.403 . S
C837 C838 1.392 1_554 S
C837 C841 1.495 . S
C838 C837 1.392 1_556 S
C838 C839 1.385 . S
C838 C840 1.478 . S
C839 H833 0.930 . S
C839 C835 1.400 1_556 S
C839 C838 1.385 . S
C840 C838 1.478 . S
C840 C842 1.381 . S
C840 C846 1.383 . S
C841 C837 1.495 . S
C841 H847 0.959 . S
C841 H848 0.961 1_554 S
C841 H849 0.960 . S
C842 C840 1.381 . S
C842 C843 1.394 . S
C842 H850 0.930 1_556 S
C843 C842 1.394 . S
C843 C844 1.383 . S
C843 H851 0.928 1_556 S
C844 C843 1.383 . S
C844 C845 1.377 . S
C845 H829 0.930 . S
C845 C844 1.377 . S
C845 C846 1.379 . S
C846 H830 0.931 . S
C846 C840 1.383 . S
C846 C845 1.379 . S
H847 C841 0.959 . S
H848 C841 0.961 1_556 S
H849 C841 0.960 . S
H850 C842 0.930 1_554 S
H851 C843 0.928 1_554 S
H852 C860 0.929 . S
H853 C862 0.930 . S
H854 C864 0.930 . S
H855 C867 0.929 . S
H856 C870 0.930 . S
H857 C872 0.960 . S
H858 C872 0.960 . S
H859 C872 0.960 . S
C860 H852 0.929 . S
C860 C861 1.377 . S
C860 C862 1.384 . S
C861 C860 1.377 . S
C861 C867 1.390 . S
C862 H853 0.930 . S
C862 C860 1.384 . S
C862 C863 1.372 . S
C863 C862 1.372 . S
C863 C864 1.400 . S
C863 C868 1.490 . S
C864 H854 0.930 . S
C864 C863 1.400 . S
C864 C867 1.386 . S
H865 C881 0.930 . S
H866 C882 0.931 . S
C867 H855 0.929 . S
C867 C861 1.390 . S
C867 C864 1.386 . S
C868 C863 1.490 . S
C868 C870 1.395 . S
C868 C871 1.403 . S
H869 C875 0.930 . S
C870 H856 0.930 . S
C870 C868 1.395 . S
C870 C873 1.403 . S
C871 C868 1.403 . S
C871 C872 1.524 . S
C871 C875 1.400 . S
C872 H857 0.960 . S
C872 H858 0.960 . S
C872 H859 0.960 . S
C872 C871 1.524 . S
C873 C870 1.403 . S
C873 C874 1.392 . S
C873 C877 1.495 . S
C874 C873 1.392 . S
C874 C875 1.385 . S
C874 C876 1.478 . S
C875 H869 0.930 . S
C875 C871 1.400 . S
C875 C874 1.385 . S
C876 C874 1.478 . S
C876 C878 1.381 . S
C876 C882 1.383 . S
C877 C873 1.495 . S
C877 H883 0.959 . S
C877 H884 0.961 . S
C877 H885 0.960 . S
C878 C876 1.381 . S
C878 C879 1.394 . S
C878 H886 0.930 . S
C879 C878 1.394 . S
C879 C880 1.383 . S
C879 H887 0.929 . S
C880 C879 1.383 . S
C880 C881 1.377 . S
C881 H865 0.930 . S
C881 C880 1.377 . S
C881 C882 1.379 . S
C882 H866 0.931 . S
C882 C876 1.383 . S
C882 C881 1.379 . S
H883 C877 0.959 . S
H884 C877 0.961 . S
H885 C877 0.960 . S
H886 C878 0.930 . S
H887 C879 0.929 . S
H888 C896 0.925 1_556 S
H889 C898 0.930 1_556 S
H890 C900 0.930 . S
H891 C903 0.929 . S
H892 C906 0.930 . S
H893 C908 0.960 . S
H894 C908 0.960 . S
H895 C908 0.960 . S
C896 H888 0.925 1_554 S
C896 C897 1.377 . S
C896 C898 1.384 . S
C897 C896 1.377 . S
C897 C903 1.390 . S
C898 H889 0.930 1_554 S
C898 C896 1.384 . S
C898 C899 1.372 . S
C899 C898 1.372 . S
C899 C900 1.400 . S
C899 C904 1.490 . S
C900 H890 0.930 . S
C900 C899 1.400 . S
C900 C903 1.386 . S
H901 C917 0.930 1_554 S
H902 C918 0.931 1_554 S
C903 H891 0.929 . S
C903 C897 1.390 . S
C903 C900 1.386 . S
C904 C899 1.490 . S
C904 C906 1.395 1_554 S
C904 C907 1.403 . S
H905 C911 0.930 . S
C906 H892 0.930 . S
C906 C904 1.395 1_556 S
C906 C909 1.403 . S
C907 C904 1.403 . S
C907 C908 1.524 . S
C907 C911 1.400 1_554 S
C908 H893 0.960 . S
C908 H894 0.960 . S
C908 H895 0.960 . S
C908 C907 1.524 . S
C909 C906 1.403 . S
C909 C910 1.392 . S
C909 C913 1.495 . S
C910 C909 1.392 . S
C910 C911 1.385 . S
C910 C912 1.478 . S
C911 H905 0.930 . S
C911 C907 1.400 1_556 S
C911 C910 1.385 . S
C912 C910 1.478 . S
C912 C914 1.381 . S
C912 C918 1.383 . S
C913 C909 1.495 . S
C913 H919 0.959 . S
C913 H920 0.961 . S
C913 H921 0.960 . S
C914 C912 1.381 . S
C914 C915 1.394 . S
C914 H922 0.930 . S
C915 C914 1.394 . S
C915 C916 1.383 . S
C915 H923 0.929 . S
C916 C915 1.383 . S
C916 C917 1.377 . S
C917 H901 0.930 1_556 S
C917 C916 1.377 . S
C917 C918 1.379 . S
C918 H902 0.931 1_556 S
C918 C912 1.383 . S
C918 C917 1.379 . S
H919 C913 0.959 . S
H920 C913 0.961 . S
H921 C913 0.960 . S
H922 C914 0.930 . S
H923 C915 0.929 . S
H924 C932 0.929 . S
H925 C934 0.930 . S
H926 C936 0.930 . S
H927 C939 0.929 . S
H928 C942 0.930 . S
H929 C944 0.960 . S
H930 C944 0.960 . S
H931 C944 0.960 . S
C932 H924 0.929 . S
C932 C933 1.377 . S
C932 C934 1.384 . S
C933 C932 1.377 . S
C933 C939 1.390 . S
C934 H925 0.930 . S
C934 C932 1.384 . S
C934 C935 1.372 . S
C935 C934 1.372 . S
C935 C936 1.400 . S
C935 C940 1.490 . S
C936 H926 0.930 . S
C936 C935 1.400 . S
C936 C939 1.386 . S
H937 C953 0.930 . S
H938 C954 0.931 . S
C939 H927 0.929 . S
C939 C933 1.390 . S
C939 C936 1.386 . S
C940 C935 1.490 . S
C940 C942 1.395 . S
C940 C943 1.403 . S
H941 C947 0.930 . S
C942 H928 0.930 . S
C942 C940 1.395 . S
C942 C945 1.403 . S
C943 C940 1.403 . S
C943 C944 1.524 . S
C943 C947 1.400 . S
C944 H929 0.960 . S
C944 H930 0.960 . S
C944 H931 0.960 . S
C944 C943 1.524 . S
C945 C942 1.403 . S
C945 C946 1.392 . S
C945 C949 1.495 . S
C946 C945 1.392 . S
C946 C947 1.385 . S
C946 C948 1.478 . S
C947 H941 0.930 . S
C947 C943 1.400 . S
C947 C946 1.385 . S
C948 C946 1.478 . S
C948 C950 1.381 . S
C948 C954 1.383 . S
C949 C945 1.495 . S
C949 H955 0.959 . S
C949 H956 0.961 . S
C949 H957 0.960 . S
C950 C948 1.381 . S
C950 C951 1.394 . S
C950 H958 0.930 . S
C951 C950 1.394 . S
C951 C952 1.383 . S
C951 H959 0.929 . S
C952 C951 1.383 . S
C952 C953 1.377 . S
C953 H937 0.930 . S
C953 C952 1.377 . S
C953 C954 1.379 . S
C954 H938 0.931 . S
C954 C948 1.383 . S
C954 C953 1.379 . S
H955 C949 0.959 . S
H956 C949 0.961 . S
H957 C949 0.960 . S
H958 C950 0.930 . S
H959 C951 0.929 . S
H960 C968 0.929 . S
H961 C970 0.930 . S
H962 C972 0.930 1_556 S
H963 C975 0.929 . S
H964 C978 0.930 . S
H965 C980 0.960 1_556 S
H966 C980 0.960 . S
H967 C980 0.960 1_556 S
C968 H960 0.929 . S
C968 C969 1.377 . S
C968 C970 1.384 . S
C969 C968 1.377 . S
C969 C975 1.390 . S
C970 H961 0.930 . S
C970 C968 1.384 . S
C970 C971 1.372 . S
C971 C970 1.372 . S
C971 C972 1.400 . S
C971 C976 1.490 . S
C972 H962 0.930 1_554 S
C972 C971 1.400 . S
C972 C975 1.386 . S
H973 C989 0.930 . S
H974 C990 0.931 . S
C975 H963 0.929 . S
C975 C969 1.390 . S
C975 C972 1.386 . S
C976 C971 1.490 . S
C976 C978 1.395 . S
C976 C979 1.403 . S
H977 C983 0.930 . S
C978 H964 0.930 . S
C978 C976 1.395 . S
C978 C981 1.403 . S
C979 C976 1.403 . S
C979 C980 1.524 . S
C979 C983 1.400 1_554 S
C980 H965 0.960 1_554 S
C980 H966 0.960 . S
C980 H967 0.960 1_554 S
C980 C979 1.524 . S
C981 C978 1.403 . S
C981 C982 1.392 1_554 S
C981 C985 1.495 1_554 S
C982 C981 1.392 1_556 S
C982 C983 1.385 . S
C982 C984 1.478 . S
C983 H977 0.930 . S
C983 C979 1.400 1_556 S
C983 C982 1.385 . S
C984 C982 1.478 . S
C984 C986 1.381 . S
C984 C990 1.383 . S
C985 C981 1.495 1_556 S
C985 H991 0.958 1_556 S
C985 H992 0.963 . S
C985 H993 0.958 1_556 S
C986 C984 1.381 . S
C986 C987 1.394 . S
C986 H994 0.930 1_556 S
C987 C986 1.394 . S
C987 C988 1.383 . S
C987 H995 0.939 . S
C988 C987 1.383 . S
C988 C989 1.377 . S
C989 H973 0.930 . S
C989 C988 1.377 . S
C989 C990 1.379 . S
C990 H974 0.931 . S
C990 C984 1.383 . S
C990 C989 1.379 . S
H991 C985 0.958 1_554 S
H992 C985 0.963 . S
H993 C985 0.958 1_554 S
H994 C986 0.930 1_554 S
H995 C987 0.939 . S
H996 C1004 0.929 . S
H997 C1006 0.930 . S
H998 C1008 0.930 . S
H999 C1011 0.929 . S
H1000 C1014 0.930 . S
H1001 C1016 0.960 . S
H1002 C1016 0.960 . S
H1003 C1016 0.960 . S
C1004 H996 0.929 . S
C1004 C1005 1.377 . S
C1004 C1006 1.384 . S
C1005 C1004 1.377 . S
C1005 C1011 1.390 . S
C1006 H997 0.930 . S
C1006 C1004 1.384 . S
C1006 C1007 1.372 . S
C1007 C1006 1.372 . S
C1007 C1008 1.400 . S
C1007 C1012 1.490 . S
C1008 H998 0.930 . S
C1008 C1007 1.400 . S
C1008 C1011 1.386 . S
H1009 C1025 0.930 . S
H1010 C1026 0.931 . S
C1011 H999 0.929 . S
C1011 C1005 1.390 . S
C1011 C1008 1.386 . S
C1012 C1007 1.490 . S
C1012 C1014 1.395 . S
C1012 C1015 1.403 . S
H1013 C1019 0.930 . S
C1014 H1000 0.930 . S
C1014 C1012 1.395 . S
C1014 C1017 1.403 . S
C1015 C1012 1.403 . S
C1015 C1016 1.524 . S
C1015 C1019 1.400 . S
C1016 H1001 0.960 . S
C1016 H1002 0.960 . S
C1016 H1003 0.960 . S
C1016 C1015 1.524 . S
C1017 C1014 1.403 . S
C1017 C1018 1.392 . S
C1017 C1021 1.495 . S
C1018 C1017 1.392 . S
C1018 C1019 1.385 . S
C1018 C1020 1.478 . S
C1019 H1013 0.930 . S
C1019 C1015 1.400 . S
C1019 C1018 1.385 . S
C1020 C1018 1.478 . S
C1020 C1022 1.381 . S
C1020 C1026 1.383 . S
C1021 C1017 1.495 . S
C1021 H1027 0.959 . S
C1021 H1028 0.961 . S
C1021 H1029 0.960 . S
C1022 C1020 1.381 . S
C1022 C1023 1.394 . S
C1022 H1030 0.930 . S
C1023 C1022 1.394 . S
C1023 C1024 1.383 . S
C1023 H1031 0.929 . S
C1024 C1023 1.383 . S
C1024 C1025 1.377 . S
C1025 H1009 0.930 . S
C1025 C1024 1.377 . S
C1025 C1026 1.379 . S
C1026 H1010 0.931 . S
C1026 C1020 1.383 . S
C1026 C1025 1.379 . S
H1027 C1021 0.959 . S
H1028 C1021 0.961 . S
H1029 C1021 0.960 . S
H1030 C1022 0.930 . S
H1031 C1023 0.929 . S
H1032 C1040 0.929 . S
H1033 C1042 0.930 . S
H1034 C1044 0.930 1_556 S
H1035 C1047 0.929 1_556 S
H1036 C1050 0.930 . S
H1037 C1052 0.960 . S
H1038 C1052 0.960 1_554 S
H1039 C1052 0.960 . S
C1040 H1032 0.929 . S
C1040 C1041 1.377 . S
C1040 C1042 1.384 . S
C1041 C1040 1.377 . S
C1041 C1047 1.390 . S
C1042 H1033 0.930 . S
C1042 C1040 1.384 . S
C1042 C1043 1.372 . S
C1043 C1042 1.372 . S
C1043 C1044 1.400 . S
C1043 C1048 1.490 . S
C1044 H1034 0.930 1_554 S
C1044 C1043 1.400 . S
C1044 C1047 1.386 . S
H1045 C1061 0.930 . S
H1046 C1062 0.931 . S
C1047 H1035 0.929 1_554 S
C1047 C1041 1.390 . S
C1047 C1044 1.386 . S
C1048 C1043 1.490 . S
C1048 C1050 1.395 . S
C1048 C1051 1.403 1_554 S
H1049 C1055 0.930 . S
C1050 H1036 0.930 . S
C1050 C1048 1.395 . S
C1050 C1053 1.403 . S
C1051 C1048 1.403 1_556 S
C1051 C1052 1.524 . S
C1051 C1055 1.400 . S
C1052 H1037 0.960 . S
C1052 H1038 0.960 1_556 S
C1052 H1039 0.960 . S
C1052 C1051 1.524 . S
C1053 C1050 1.403 . S
C1053 C1054 1.392 1_554 S
C1053 C1057 1.495 . S
C1054 C1053 1.392 1_556 S
C1054 C1055 1.385 . S
C1054 C1056 1.478 . S
C1055 H1049 0.930 . S
C1055 C1051 1.400 . S
C1055 C1054 1.385 . S
C1056 C1054 1.478 . S
C1056 C1058 1.383 . S
C1056 C1062 1.383 . S
C1057 C1053 1.495 . S
C1057 H1063 0.959 . S
C1057 H1064 0.961 . S
C1057 H1065 0.960 . S
C1058 C1056 1.383 . S
C1058 C1059 1.395 . S
C1058 H1066 0.927 1_556 S
C1059 C1058 1.395 . S
C1059 C1060 1.383 . S
C1059 H1067 0.929 1_556 S
C1060 C1059 1.383 . S
C1060 C1061 1.377 . S
C1061 H1045 0.930 . S
C1061 C1060 1.377 . S
C1061 C1062 1.379 . S
C1062 H1046 0.931 . S
C1062 C1056 1.383 . S
C1062 C1061 1.379 . S
H1063 C1057 0.959 . S
H1064 C1057 0.961 . S
H1065 C1057 0.960 . S
H1066 C1058 0.927 1_554 S
H1067 C1059 0.929 1_554 S
H1068 C1076 0.929 . S
H1069 C1078 0.930 . S
H1070 C1080 0.930 . S
H1071 C1083 0.929 . S
H1072 C1086 0.930 . S
H1073 C1088 0.960 . S
H1074 C1088 0.960 . S
H1075 C1088 0.960 . S
C1076 H1068 0.929 . S
C1076 C1077 1.377 . S
C1076 C1078 1.384 . S
C1077 C1076 1.377 . S
C1077 C1083 1.390 . S
C1078 H1069 0.930 . S
C1078 C1076 1.384 . S
C1078 C1079 1.372 . S
C1079 C1078 1.372 . S
C1079 C1080 1.400 . S
C1079 C1084 1.490 . S
C1080 H1070 0.930 . S
C1080 C1079 1.400 . S
C1080 C1083 1.386 . S
H1081 C1097 0.930 . S
H1082 C1098 0.931 . S
C1083 H1071 0.929 . S
C1083 C1077 1.390 . S
C1083 C1080 1.386 . S
C1084 C1079 1.490 . S
C1084 C1086 1.395 . S
C1084 C1087 1.403 . S
H1085 C1091 0.930 . S
C1086 H1072 0.930 . S
C1086 C1084 1.395 . S
C1086 C1089 1.403 . S
C1087 C1084 1.403 . S
C1087 C1088 1.524 . S
C1087 C1091 1.400 . S
C1088 H1073 0.960 . S
C1088 H1074 0.960 . S
C1088 H1075 0.960 . S
C1088 C1087 1.524 . S
C1089 C1086 1.403 . S
C1089 C1090 1.392 . S
C1089 C1093 1.495 . S
C1090 C1089 1.392 . S
C1090 C1091 1.385 . S
C1090 C1092 1.478 . S
C1091 H1085 0.930 . S
C1091 C1087 1.400 . S
C1091 C1090 1.385 . S
C1092 C1090 1.478 . S
C1092 C1094 1.381 . S
C1092 C1098 1.383 . S
C1093 C1089 1.495 . S
C1093 H1099 0.959 . S
C1093 H1100 0.961 . S
C1093 H1101 0.960 . S
C1094 C1092 1.381 . S
C1094 C1095 1.394 . S
C1094 H1102 0.930 . S
C1095 C1094 1.394 . S
C1095 C1096 1.383 . S
C1095 H1103 0.929 . S
C1096 C1095 1.383 . S
C1096 C1097 1.377 . S
C1097 H1081 0.930 . S
C1097 C1096 1.377 . S
C1097 C1098 1.379 . S
C1098 H1082 0.931 . S
C1098 C1092 1.383 . S
C1098 C1097 1.379 . S
H1099 C1093 0.959 . S
H1100 C1093 0.961 . S
H1101 C1093 0.960 . S
H1102 C1094 0.930 . S
H1103 C1095 0.929 . S
H1104 C1112 0.929 1_655 S
H1105 C1114 0.930 1_655 S
H1106 C1116 0.930 . S
H1107 C1119 0.929 . S
H1108 C1122 0.930 . S
H1109 C1124 0.960 . S
H1110 C1124 0.960 . S
H1111 C1124 0.960 . S
C1112 H1104 0.929 1_455 S
C1112 C1113 1.377 . S
C1112 C1114 1.384 . S
C1113 C1112 1.377 . S
C1113 C1119 1.390 . S
C1114 H1105 0.930 1_455 S
C1114 C1112 1.384 . S
C1114 C1115 1.372 . S
C1115 C1114 1.372 . S
C1115 C1116 1.400 . S
C1115 C1120 1.490 . S
C1116 H1106 0.930 . S
C1116 C1115 1.400 . S
C1116 C1119 1.386 . S
H1117 C1133 0.930 . S
H1118 C1134 0.931 . S
C1119 H1107 0.929 . S
C1119 C1113 1.390 . S
C1119 C1116 1.386 . S
C1120 C1115 1.490 . S
C1120 C1122 1.395 . S
C1120 C1123 1.403 . S
H1121 C1127 0.930 . S
C1122 H1108 0.930 . S
C1122 C1120 1.395 . S
C1122 C1125 1.403 . S
C1123 C1120 1.403 . S
C1123 C1124 1.524 . S
C1123 C1127 1.400 . S
C1124 H1109 0.960 . S
C1124 H1110 0.960 . S
C1124 H1111 0.960 . S
C1124 C1123 1.524 . S
C1125 C1122 1.403 . S
C1125 C1126 1.392 . S
C1125 C1129 1.495 . S
C1126 C1125 1.392 . S
C1126 C1127 1.385 . S
C1126 C1128 1.478 . S
C1127 H1121 0.930 . S
C1127 C1123 1.400 . S
C1127 C1126 1.385 . S
C1128 C1126 1.478 . S
C1128 C1130 1.381 . S
C1128 C1134 1.383 . S
C1129 C1125 1.495 . S
C1129 H1135 0.959 1_455 S
C1129 H1136 0.961 . S
C1129 H1137 0.960 1_455 S
C1130 C1128 1.381 . S
C1130 C1131 1.394 . S
C1130 H1138 0.930 1_455 S
C1131 C1130 1.394 . S
C1131 C1132 1.383 . S
C1131 H1139 0.929 1_455 S
C1132 C1131 1.383 . S
C1132 C1133 1.377 . S
C1133 H1117 0.930 . S
C1133 C1132 1.377 . S
C1133 C1134 1.379 . S
C1134 H1118 0.931 . S
C1134 C1128 1.383 . S
C1134 C1133 1.379 . S
H1135 C1129 0.959 1_655 S
H1136 C1129 0.961 . S
H1137 C1129 0.960 1_655 S
H1138 C1130 0.930 1_655 S
H1139 C1131 0.929 1_655 S
H1140 C1148 0.929 . S
H1141 C1150 0.930 . S
H1142 C1152 0.930 . S
H1143 C1155 0.929 . S
H1144 C1158 0.930 . S
H1145 C1160 0.960 . S
H1146 C1160 0.960 . S
H1147 C1160 0.960 . S
C1148 H1140 0.929 . S
C1148 C1149 1.377 . S
C1148 C1150 1.384 . S
C1149 C1148 1.377 . S
C1149 C1155 1.390 . S
C1150 H1141 0.930 . S
C1150 C1148 1.384 . S
C1150 C1151 1.372 . S
C1151 C1150 1.372 . S
C1151 C1152 1.400 . S
C1151 C1156 1.490 . S
C1152 H1142 0.930 . S
C1152 C1151 1.400 . S
C1152 C1155 1.386 . S
H1153 C1169 0.930 . S
H1154 C1170 0.959 . S
C1155 H1143 0.929 . S
C1155 C1149 1.390 . S
C1155 C1152 1.386 . S
C1156 C1151 1.490 . S
C1156 C1158 1.395 . S
C1156 C1159 1.403 . S
H1157 C1163 0.930 . S
C1158 H1144 0.930 . S
C1158 C1156 1.395 . S
C1158 C1161 1.403 . S
C1159 C1156 1.403 . S
C1159 C1160 1.524 . S
C1159 C1163 1.400 . S
C1160 H1145 0.960 . S
C1160 H1146 0.960 . S
C1160 H1147 0.960 . S
C1160 C1159 1.524 . S
C1161 C1158 1.403 . S
C1161 C1162 1.392 . S
C1161 C1165 1.495 . S
C1162 C1161 1.392 . S
C1162 C1163 1.385 . S
C1162 C1164 1.478 . S
C1163 H1157 0.930 . S
C1163 C1159 1.400 . S
C1163 C1162 1.385 . S
C1164 C1162 1.478 . S
C1164 C1166 1.381 . S
C1164 C1170 1.383 . S
C1165 C1161 1.495 . S
C1165 H1171 0.959 . S
C1165 H1172 0.961 1_545 S
C1165 H1173 0.960 . S
C1166 C1164 1.381 . S
C1166 C1167 1.394 . S
C1166 H1174 0.930 . S
C1167 C1166 1.394 . S
C1167 C1168 1.383 . S
C1167 H1175 0.929 . S
C1168 C1167 1.383 . S
C1168 C1169 1.377 . S
C1169 H1153 0.930 . S
C1169 C1168 1.377 . S
C1169 C1170 1.379 . S
C1170 H1154 0.959 . S
C1170 C1164 1.383 . S
C1170 C1169 1.379 . S
H1171 C1165 0.959 . S
H1172 C1165 0.961 1_565 S
H1173 C1165 0.960 . S
H1174 C1166 0.930 . S
H1175 C1167 0.929 . S
H1176 C1184 0.929 . S
H1177 C1186 0.930 . S
H1178 C1188 0.930 . S
H1179 C1191 0.929 . S
H1180 C1194 0.930 . S
H1181 C1196 0.960 . S
H1182 C1196 0.960 . S
H1183 C1196 0.960 . S
C1184 H1176 0.929 . S
C1184 C1185 1.377 . S
C1184 C1186 1.384 . S
C1185 C1184 1.377 . S
C1185 C1191 1.390 . S
C1186 H1177 0.930 . S
C1186 C1184 1.384 . S
C1186 C1187 1.372 . S
C1187 C1186 1.372 . S
C1187 C1188 1.400 . S
C1187 C1192 1.490 . S
C1188 H1178 0.930 . S
C1188 C1187 1.400 . S
C1188 C1191 1.386 . S
H1189 C1205 0.930 . S
H1190 C1206 0.931 . S
C1191 H1179 0.929 . S
C1191 C1185 1.390 . S
C1191 C1188 1.386 . S
C1192 C1187 1.490 . S
C1192 C1194 1.395 . S
C1192 C1195 1.403 . S
H1193 C1199 0.930 . S
C1194 H1180 0.930 . S
C1194 C1192 1.395 . S
C1194 C1197 1.403 . S
C1195 C1192 1.403 . S
C1195 C1196 1.524 . S
C1195 C1199 1.400 . S
C1196 H1181 0.960 . S
C1196 H1182 0.960 . S
C1196 H1183 0.960 . S
C1196 C1195 1.524 . S
C1197 C1194 1.403 . S
C1197 C1198 1.392 . S
C1197 C1201 1.495 . S
C1198 C1197 1.392 . S
C1198 C1199 1.385 . S
C1198 C1200 1.478 . S
C1199 H1193 0.930 . S
C1199 C1195 1.400 . S
C1199 C1198 1.385 . S
C1200 C1198 1.478 . S
C1200 C1202 1.381 . S
C1200 C1206 1.383 . S
C1201 C1197 1.495 . S
C1201 H1207 0.959 . S
C1201 H1208 0.961 . S
C1201 H1209 0.960 . S
C1202 C1200 1.381 . S
C1202 C1203 1.394 . S
C1202 H1210 0.930 . S
C1203 C1202 1.394 . S
C1203 C1204 1.383 . S
C1203 H1211 0.929 . S
C1204 C1203 1.383 . S
C1204 C1205 1.377 . S
C1205 H1189 0.930 . S
C1205 C1204 1.377 . S
C1205 C1206 1.379 . S
C1206 H1190 0.931 . S
C1206 C1200 1.383 . S
C1206 C1205 1.379 . S
H1207 C1201 0.959 . S
H1208 C1201 0.961 . S
H1209 C1201 0.960 . S
H1210 C1202 0.930 . S
H1211 C1203 0.929 . S
H1212 C1220 0.929 . S
H1213 C1222 0.930 . S
H1214 C1224 0.930 . S
H1215 C1227 0.929 . S
H1216 C1230 0.930 . S
H1217 C1232 0.960 . S
H1218 C1232 0.960 . S
H1219 C1232 0.960 . S
C1220 H1212 0.929 . S
C1220 C1221 1.377 . S
C1220 C1222 1.384 . S
C1221 C1220 1.377 . S
C1221 C1227 1.390 . S
C1222 H1213 0.930 . S
C1222 C1220 1.384 . S
C1222 C1223 1.372 . S
C1223 C1222 1.372 . S
C1223 C1224 1.400 . S
C1223 C1228 1.490 . S
C1224 H1214 0.930 . S
C1224 C1223 1.400 . S
C1224 C1227 1.386 . S
H1225 C1241 0.930 . S
H1226 C1242 0.931 . S
C1227 H1215 0.929 . S
C1227 C1221 1.390 . S
C1227 C1224 1.386 . S
C1228 C1223 1.490 . S
C1228 C1230 1.395 . S
C1228 C1231 1.403 . S
H1229 C1235 0.930 . S
C1230 H1216 0.930 . S
C1230 C1228 1.395 . S
C1230 C1233 1.403 . S
C1231 C1228 1.403 . S
C1231 C1232 1.524 . S
C1231 C1235 1.400 . S
C1232 H1217 0.960 . S
C1232 H1218 0.960 . S
C1232 H1219 0.960 . S
C1232 C1231 1.524 . S
C1233 C1230 1.403 . S
C1233 C1234 1.392 . S
C1233 C1237 1.495 . S
C1234 C1233 1.392 . S
C1234 C1235 1.385 . S
C1234 C1236 1.478 . S
C1235 H1229 0.930 . S
C1235 C1231 1.400 . S
C1235 C1234 1.385 . S
C1236 C1234 1.478 . S
C1236 C1238 1.381 . S
C1236 C1242 1.383 . S
C1237 C1233 1.495 . S
C1237 H1243 0.959 . S
C1237 H1244 0.961 . S
C1237 H1245 0.960 . S
C1238 C1236 1.381 . S
C1238 C1239 1.394 . S
C1238 H1246 0.930 . S
C1239 C1238 1.394 . S
C1239 C1240 1.383 . S
C1239 H1247 0.929 . S
C1240 C1239 1.383 . S
C1240 C1241 1.377 . S
C1241 H1225 0.930 . S
C1241 C1240 1.377 . S
C1241 C1242 1.379 . S
C1242 H1226 0.931 . S
C1242 C1236 1.383 . S
C1242 C1241 1.379 . S
H1243 C1237 0.959 . S
H1244 C1237 0.961 . S
H1245 C1237 0.960 . S
H1246 C1238 0.930 . S
H1247 C1239 0.929 . S
H1248 C1256 0.929 . S
H1249 C1258 0.930 . S
H1250 C1260 0.930 . S
H1251 C1263 0.929 . S
H1252 C1266 0.930 . S
H1253 C1268 0.960 . S
H1254 C1268 0.960 . S
H1255 C1268 0.960 . S
C1256 H1248 0.929 . S
C1256 C1257 1.377 . S
C1256 C1258 1.384 . S
C1257 C1256 1.377 . S
C1257 C1263 1.390 . S
C1258 H1249 0.930 . S
C1258 C1256 1.384 . S
C1258 C1259 1.372 . S
C1259 C1258 1.372 . S
C1259 C1260 1.400 . S
C1259 C1264 1.490 . S
C1260 H1250 0.930 . S
C1260 C1259 1.400 . S
C1260 C1263 1.386 . S
H1261 C1277 0.930 . S
H1262 C1278 0.931 . S
C1263 H1251 0.929 . S
C1263 C1257 1.390 . S
C1263 C1260 1.386 . S
C1264 C1259 1.490 . S
C1264 C1266 1.395 . S
C1264 C1267 1.403 . S
H1265 C1271 0.930 . S
C1266 H1252 0.930 . S
C1266 C1264 1.395 . S
C1266 C1269 1.403 . S
C1267 C1264 1.403 . S
C1267 C1268 1.524 . S
C1267 C1271 1.400 . S
C1268 H1253 0.960 . S
C1268 H1254 0.960 . S
C1268 H1255 0.960 . S
C1268 C1267 1.524 . S
C1269 C1266 1.403 . S
C1269 C1270 1.392 . S
C1269 C1273 1.469 1_655 S
C1270 C1269 1.392 . S
C1270 C1271 1.385 . S
C1270 C1272 1.478 . S
C1271 H1265 0.930 . S
C1271 C1267 1.400 . S
C1271 C1270 1.385 . S
C1272 C1270 1.478 . S
C1272 C1274 1.381 . S
C1272 C1278 1.383 . S
C1273 C1269 1.469 1_455 S
C1273 H1279 0.980 . S
C1273 H1280 0.997 . S
C1273 H1281 0.933 1_455 S
C1274 C1272 1.381 . S
C1274 C1275 1.394 . S
C1274 H1282 0.930 . S
C1275 C1274 1.394 . S
C1275 C1276 1.383 . S
C1275 H1283 0.929 . S
C1276 C1275 1.383 . S
C1276 C1277 1.377 . S
C1277 H1261 0.930 . S
C1277 C1276 1.377 . S
C1277 C1278 1.379 . S
C1278 H1262 0.931 . S
C1278 C1272 1.383 . S
C1278 C1277 1.379 . S
H1279 C1273 0.980 . S
H1280 C1273 0.997 . S
H1281 C1273 0.933 1_655 S
H1282 C1274 0.930 . S
H1283 C1275 0.929 . S
H1284 C1292 0.929 1_545 S
H1285 C1294 0.930 1_545 S
H1286 C1296 0.930 . S
H1287 C1299 0.929 . S
H1288 C1302 0.930 . S
H1289 C1304 0.960 . S
H1290 C1304 0.960 . S
H1291 C1304 0.960 . S
C1292 H1284 0.929 1_565 S
C1292 C1293 1.377 . S
C1292 C1294 1.384 . S
C1293 C1292 1.377 . S
C1293 C1299 1.390 . S
C1294 H1285 0.930 1_565 S
C1294 C1292 1.384 . S
C1294 C1295 1.372 . S
C1295 C1294 1.372 . S
C1295 C1296 1.400 . S
C1295 C1300 1.490 . S
C1296 H1286 0.930 . S
C1296 C1295 1.400 . S
C1296 C1299 1.386 . S
H1297 C1313 0.930 . S
H1298 C1314 0.931 . S
C1299 H1287 0.929 . S
C1299 C1293 1.390 . S
C1299 C1296 1.386 . S
C1300 C1295 1.490 . S
C1300 C1302 1.395 . S
C1300 C1303 1.403 . S
H1301 C1307 0.930 . S
C1302 H1288 0.930 . S
C1302 C1300 1.395 . S
C1302 C1305 1.403 . S
C1303 C1300 1.403 . S
C1303 C1304 1.524 . S
C1303 C1307 1.400 . S
C1304 H1289 0.960 . S
C1304 H1290 0.960 . S
C1304 H1291 0.960 . S
C1304 C1303 1.524 . S
C1305 C1302 1.403 . S
C1305 C1306 1.392 . S
C1305 C1309 1.495 . S
C1306 C1305 1.392 . S
C1306 C1307 1.385 . S
C1306 C1308 1.478 . S
C1307 H1301 0.930 . S
C1307 C1303 1.400 . S
C1307 C1306 1.385 . S
C1308 C1306 1.478 . S
C1308 C1310 1.381 . S
C1308 C1314 1.383 . S
C1309 C1305 1.495 . S
C1309 H1315 0.959 . S
C1309 H1316 0.961 . S
C1309 H1317 0.960 1_565 S
C1310 C1308 1.381 . S
C1310 C1311 1.394 . S
C1310 H1318 0.930 1_565 S
C1311 C1310 1.394 . S
C1311 C1312 1.383 . S
C1311 H1319 0.929 1_565 S
C1312 C1311 1.383 . S
C1312 C1313 1.377 . S
C1313 H1297 0.930 . S
C1313 C1312 1.377 . S
C1313 C1314 1.379 . S
C1314 H1298 0.931 . S
C1314 C1308 1.383 . S
C1314 C1313 1.379 . S
H1315 C1309 0.959 . S
H1316 C1309 0.961 . S
H1317 C1309 0.960 1_545 S
H1318 C1310 0.930 1_545 S
H1319 C1311 0.929 1_545 S
H1320 C1328 0.929 . S
H1321 C1330 0.930 . S
H1322 C1332 0.930 . S
H1323 C1335 0.929 . S
H1324 C1338 0.930 . S
H1325 C1340 0.960 . S
H1326 C1340 0.960 . S
H1327 C1340 0.960 . S
C1328 H1320 0.929 . S
C1328 C1329 1.377 . S
C1328 C1330 1.384 . S
C1329 C1328 1.377 . S
C1329 C1335 1.390 . S
C1330 H1321 0.930 . S
C1330 C1328 1.384 . S
C1330 C1331 1.372 . S
C1331 C1330 1.372 . S
C1331 C1332 1.400 . S
C1331 C1336 1.490 . S
C1332 H1322 0.930 . S
C1332 C1331 1.400 . S
C1332 C1335 1.386 . S
H1333 C1349 0.930 . S
H1334 C1350 0.931 . S
C1335 H1323 0.929 . S
C1335 C1329 1.390 . S
C1335 C1332 1.386 . S
C1336 C1331 1.490 . S
C1336 C1338 1.395 . S
C1336 C1339 1.403 . S
H1337 C1343 0.930 . S
C1338 H1324 0.930 . S
C1338 C1336 1.395 . S
C1338 C1341 1.403 . S
C1339 C1336 1.403 . S
C1339 C1340 1.524 . S
C1339 C1343 1.400 . S
C1340 H1325 0.960 . S
C1340 H1326 0.960 . S
C1340 H1327 0.960 . S
C1340 C1339 1.524 . S
C1341 C1338 1.403 . S
C1341 C1342 1.392 . S
C1341 C1345 1.495 . S
C1342 C1341 1.392 . S
C1342 C1343 1.385 . S
C1342 C1344 1.478 . S
C1343 H1337 0.930 . S
C1343 C1339 1.400 . S
C1343 C1342 1.385 . S
C1344 C1342 1.478 . S
C1344 C1346 1.381 . S
C1344 C1350 1.383 . S
C1345 C1341 1.495 . S
C1345 H1351 0.959 . S
C1345 H1352 0.961 . S
C1345 H1353 0.960 . S
C1346 C1344 1.381 . S
C1346 C1347 1.394 . S
C1346 H1354 0.930 . S
C1347 C1346 1.394 . S
C1347 C1348 1.383 . S
C1347 H1355 0.929 . S
C1348 C1347 1.383 . S
C1348 C1349 1.377 . S
C1349 H1333 0.930 . S
C1349 C1348 1.377 . S
C1349 C1350 1.379 . S
C1350 H1334 0.931 . S
C1350 C1344 1.383 . S
C1350 C1349 1.379 . S
H1351 C1345 0.959 . S
H1352 C1345 0.961 . S
H1353 C1345 0.960 . S
H1354 C1346 0.930 . S
H1355 C1347 0.929 . S
H1356 C1364 0.929 . S
H1357 C1366 0.930 . S
H1358 C1368 0.930 . S
H1359 C1371 0.929 . S
H1360 C1374 0.930 . S
H1361 C1376 0.960 . S
H1362 C1376 0.960 . S
H1363 C1376 0.960 . S
C1364 H1356 0.929 . S
C1364 C1365 1.377 . S
C1364 C1366 1.384 . S
C1365 C1364 1.377 . S
C1365 C1371 1.390 . S
C1366 H1357 0.930 . S
C1366 C1364 1.384 . S
C1366 C1367 1.372 . S
C1367 C1366 1.372 . S
C1367 C1368 1.400 . S
C1367 C1372 1.490 . S
C1368 H1358 0.930 . S
C1368 C1367 1.400 . S
C1368 C1371 1.386 . S
H1369 C1385 0.930 . S
H1370 C1386 0.931 . S
C1371 H1359 0.929 . S
C1371 C1365 1.390 . S
C1371 C1368 1.386 . S
C1372 C1367 1.490 . S
C1372 C1374 1.395 . S
C1372 C1375 1.403 . S
H1373 C1379 0.930 . S
C1374 H1360 0.930 . S
C1374 C1372 1.395 . S
C1374 C1377 1.403 . S
C1375 C1372 1.403 . S
C1375 C1376 1.524 . S
C1375 C1379 1.400 . S
C1376 H1361 0.960 . S
C1376 H1362 0.960 . S
C1376 H1363 0.960 . S
C1376 C1375 1.524 . S
C1377 C1374 1.403 . S
C1377 C1378 1.392 . S
C1377 C1381 1.495 . S
C1378 C1377 1.392 . S
C1378 C1379 1.385 . S
C1378 C1380 1.478 . S
C1379 H1373 0.930 . S
C1379 C1375 1.400 . S
C1379 C1378 1.385 . S
C1380 C1378 1.478 . S
C1380 C1382 1.381 . S
C1380 C1386 1.383 . S
C1381 C1377 1.495 . S
C1381 H1387 0.959 . S
C1381 H1388 0.961 . S
C1381 H1389 0.960 . S
C1382 C1380 1.381 . S
C1382 C1383 1.394 . S
C1382 H1390 0.930 . S
C1383 C1382 1.394 . S
C1383 C1384 1.383 . S
C1383 H1391 0.929 . S
C1384 C1383 1.383 . S
C1384 C1385 1.377 . S
C1385 H1369 0.930 . S
C1385 C1384 1.377 . S
C1385 C1386 1.379 . S
C1386 H1370 0.931 . S
C1386 C1380 1.383 . S
C1386 C1385 1.379 . S
H1387 C1381 0.959 . S
H1388 C1381 0.961 . S
H1389 C1381 0.960 . S
H1390 C1382 0.930 . S
H1391 C1383 0.929 . S
H1392 C1400 0.929 . S
H1393 C1402 0.930 . S
H1394 C1404 0.930 . S
H1395 C1407 0.929 . S
H1396 C1410 0.930 . S
H1397 C1412 0.960 . S
H1398 C1412 0.960 . S
H1399 C1412 0.960 1_455 S
C1400 H1392 0.929 . S
C1400 C1401 1.377 . S
C1400 C1402 1.384 . S
C1401 C1400 1.377 . S
C1401 C1407 1.390 . S
C1402 H1393 0.930 . S
C1402 C1400 1.384 . S
C1402 C1403 1.372 . S
C1403 C1402 1.372 . S
C1403 C1404 1.400 . S
C1403 C1408 1.490 . S
C1404 H1394 0.930 . S
C1404 C1403 1.400 . S
C1404 C1407 1.386 . S
H1405 C1421 0.930 . S
H1406 C1422 0.931 . S
C1407 H1395 0.929 . S
C1407 C1401 1.390 . S
C1407 C1404 1.386 . S
C1408 C1403 1.490 . S
C1408 C1410 1.395 . S
C1408 C1411 1.403 . S
H1409 C1415 0.930 . S
C1410 H1396 0.930 . S
C1410 C1408 1.395 . S
C1410 C1413 1.403 . S
C1411 C1408 1.403 . S
C1411 C1412 1.524 1_455 S
C1411 C1415 1.400 . S
C1412 H1397 0.960 . S
C1412 H1398 0.960 . S
C1412 H1399 0.960 1_655 S
C1412 C1411 1.524 1_655 S
C1413 C1410 1.403 . S
C1413 C1414 1.392 . S
C1413 C1417 1.495 . S
C1414 C1413 1.392 . S
C1414 C1415 1.385 . S
C1414 C1416 1.478 . S
C1415 H1409 0.930 . S
C1415 C1411 1.400 . S
C1415 C1414 1.385 . S
C1416 C1414 1.478 . S
C1416 C1418 1.381 . S
C1416 C1422 1.383 . S
C1417 C1413 1.495 . S
C1417 H1423 0.959 . S
C1417 H1424 0.961 . S
C1417 H1425 0.960 . S
C1418 C1416 1.381 . S
C1418 C1419 1.394 . S
C1418 H1426 0.930 . S
C1419 C1418 1.394 . S
C1419 C1420 1.383 . S
C1419 H1427 0.929 . S
C1420 C1419 1.383 . S
C1420 C1421 1.377 . S
C1421 H1405 0.930 . S
C1421 C1420 1.377 . S
C1421 C1422 1.379 . S
C1422 H1406 0.931 . S
C1422 C1416 1.383 . S
C1422 C1421 1.379 . S
H1423 C1417 0.959 . S
H1424 C1417 0.961 . S
H1425 C1417 0.960 . S
H1426 C1418 0.930 . S
H1427 C1419 0.929 . S
H1428 C1436 0.929 . S
H1429 C1438 0.940 . S
H1430 C1440 0.930 . S
H1431 C1443 0.929 . S
H1432 C1446 0.930 . S
H1433 C1448 0.960 . S
H1434 C1448 0.960 . S
H1435 C1448 0.960 . S
C1436 H1428 0.929 . S
C1436 C1437 1.377 . S
C1436 C1438 1.384 . S
C1437 C1436 1.377 . S
C1437 C1443 1.390 . S
C1438 H1429 0.940 . S
C1438 C1436 1.384 . S
C1438 C1439 1.372 1_556 S
C1439 C1438 1.372 1_554 S
C1439 C1440 1.400 1_554 S
C1439 C1444 1.490 . S
C1440 H1430 0.930 . S
C1440 C1439 1.400 1_556 S
C1440 C1443 1.386 . S
H1441 C1457 0.930 . S
H1442 C1458 0.931 . S
C1443 H1431 0.929 . S
C1443 C1437 1.390 . S
C1443 C1440 1.386 . S
C1444 C1439 1.490 . S
C1444 C1446 1.395 . S
C1444 C1447 1.403 . S
H1445 C1451 0.930 . S
C1446 H1432 0.930 . S
C1446 C1444 1.395 . S
C1446 C1449 1.403 . S
C1447 C1444 1.403 . S
C1447 C1448 1.524 . S
C1447 C1451 1.400 . S
C1448 H1433 0.960 . S
C1448 H1434 0.960 . S
C1448 H1435 0.960 . S
C1448 C1447 1.524 . S
C1449 C1446 1.403 . S
C1449 C1450 1.392 . S
C1449 C1453 1.495 . S
C1450 C1449 1.392 . S
C1450 C1451 1.385 . S
C1450 C1452 1.478 . S
C1451 H1445 0.930 . S
C1451 C1447 1.400 . S
C1451 C1450 1.385 . S
C1452 C1450 1.478 . S
C1452 C1454 1.381 . S
C1452 C1458 1.383 . S
C1453 C1449 1.495 . S
C1453 H1459 0.959 1_545 S
C1453 H1460 0.961 1_545 S
C1453 H1461 0.960 . S
C1454 C1452 1.381 . S
C1454 C1455 1.394 . S
C1454 H1462 0.930 . S
C1455 C1454 1.394 . S
C1455 C1456 1.383 . S
C1455 H1463 0.929 . S
C1456 C1455 1.383 . S
C1456 C1457 1.377 . S
C1457 H1441 0.930 . S
C1457 C1456 1.377 . S
C1457 C1458 1.379 . S
C1458 H1442 0.931 . S
C1458 C1452 1.383 . S
C1458 C1457 1.379 . S
H1459 C1453 0.959 1_565 S
H1460 C1453 0.961 1_565 S
H1461 C1453 0.960 . S
H1462 C1454 0.930 . S
H1463 C1455 0.929 . S
H1464 C1472 0.929 . S
H1465 C1474 0.930 . S
H1466 C1476 0.930 . S
H1467 C1479 0.929 . S
H1468 C1482 0.930 . S
H1469 C1484 0.960 . S
H1470 C1484 0.960 . S
H1471 C1484 0.960 . S
C1472 H1464 0.929 . S
C1472 C1473 1.377 . S
C1472 C1474 1.384 . S
C1473 C1472 1.377 . S
C1473 C1479 1.390 . S
C1474 H1465 0.930 . S
C1474 C1472 1.384 . S
C1474 C1475 1.372 . S
C1475 C1474 1.372 . S
C1475 C1476 1.400 . S
C1475 C1480 1.490 . S
C1476 H1466 0.930 . S
C1476 C1475 1.400 . S
C1476 C1479 1.386 . S
H1477 C1493 0.930 . S
H1478 C1494 0.931 . S
C1479 H1467 0.929 . S
C1479 C1473 1.390 . S
C1479 C1476 1.386 . S
C1480 C1475 1.490 . S
C1480 C1482 1.395 . S
C1480 C1483 1.403 . S
H1481 C1487 0.930 . S
C1482 H1468 0.930 . S
C1482 C1480 1.395 . S
C1482 C1485 1.403 . S
C1483 C1480 1.403 . S
C1483 C1484 1.524 . S
C1483 C1487 1.400 . S
C1484 H1469 0.960 . S
C1484 H1470 0.960 . S
C1484 H1471 0.960 . S
C1484 C1483 1.524 . S
C1485 C1482 1.403 . S
C1485 C1486 1.392 . S
C1485 C1489 1.495 . S
C1486 C1485 1.392 . S
C1486 C1487 1.385 . S
C1486 C1488 1.478 . S
C1487 H1481 0.930 . S
C1487 C1483 1.400 . S
C1487 C1486 1.385 . S
C1488 C1486 1.478 . S
C1488 C1490 1.381 . S
C1488 C1494 1.383 . S
C1489 C1485 1.495 . S
C1489 H1495 0.959 . S
C1489 H1496 0.961 . S
C1489 H1497 0.960 . S
C1490 C1488 1.381 . S
C1490 C1491 1.394 . S
C1490 H1498 0.930 . S
C1491 C1490 1.394 . S
C1491 C1492 1.383 . S
C1491 H1499 0.929 . S
C1492 C1491 1.383 . S
C1492 C1493 1.377 . S
C1493 H1477 0.930 . S
C1493 C1492 1.377 . S
C1493 C1494 1.379 . S
C1494 H1478 0.931 . S
C1494 C1488 1.383 . S
C1494 C1493 1.379 . S
H1495 C1489 0.959 . S
H1496 C1489 0.961 . S
H1497 C1489 0.960 . S
H1498 C1490 0.930 . S
H1499 C1491 0.929 . S
H1500 C1508 0.929 . S
H1501 C1510 0.937 . S
H1502 C1512 0.930 . S
H1503 C1515 0.929 . S
H1504 C1518 0.930 . S
H1505 C1520 0.960 . S
H1506 C1520 0.960 . S
H1507 C1520 0.960 . S
C1508 H1500 0.929 . S
C1508 C1509 1.377 . S
C1508 C1510 1.384 . S
C1509 C1508 1.377 . S
C1509 C1515 1.390 . S
C1510 H1501 0.937 . S
C1510 C1508 1.384 . S
C1510 C1511 1.372 1_556 S
C1511 C1510 1.372 1_554 S
C1511 C1512 1.400 1_554 S
C1511 C1516 1.490 . S
C1512 H1502 0.930 . S
C1512 C1511 1.400 1_556 S
C1512 C1515 1.386 . S
H1513 C1529 0.930 . S
H1514 C1530 0.931 . S
C1515 H1503 0.929 . S
C1515 C1509 1.390 . S
C1515 C1512 1.386 . S
C1516 C1511 1.490 . S
C1516 C1518 1.395 . S
C1516 C1519 1.403 . S
H1517 C1523 0.930 . S
C1518 H1504 0.930 . S
C1518 C1516 1.395 . S
C1518 C1521 1.403 . S
C1519 C1516 1.403 . S
C1519 C1520 1.524 . S
C1519 C1523 1.400 . S
C1520 H1505 0.960 . S
C1520 H1506 0.960 . S
C1520 H1507 0.960 . S
C1520 C1519 1.524 . S
C1521 C1518 1.403 . S
C1521 C1522 1.392 . S
C1521 C1525 1.495 . S
C1522 C1521 1.392 . S
C1522 C1523 1.385 . S
C1522 C1524 1.478 . S
C1523 H1517 0.930 . S
C1523 C1519 1.400 . S
C1523 C1522 1.385 . S
C1524 C1522 1.478 . S
C1524 C1526 1.381 . S
C1524 C1530 1.383 . S
C1525 C1521 1.495 . S
C1525 H1531 0.959 . S
C1525 H1532 0.961 . S
C1525 H1533 0.960 . S
C1526 C1524 1.381 . S
C1526 C1527 1.394 . S
C1526 H1534 0.930 . S
C1527 C1526 1.394 . S
C1527 C1528 1.383 . S
C1527 H1535 0.929 . S
C1528 C1527 1.383 . S
C1528 C1529 1.377 . S
C1529 H1513 0.930 . S
C1529 C1528 1.377 . S
C1529 C1530 1.379 . S
C1530 H1514 0.931 . S
C1530 C1524 1.383 . S
C1530 C1529 1.379 . S
H1531 C1525 0.959 . S
H1532 C1525 0.961 . S
H1533 C1525 0.960 . S
H1534 C1526 0.930 . S
H1535 C1527 0.929 . S
H1536 C1544 0.929 . S
H1537 C1546 0.930 . S
H1538 C1548 0.931 1_655 S
H1539 C1551 0.929 1_655 S
H1540 C1554 0.930 . S
H1541 C1556 0.960 . S
H1542 C1556 0.960 . S
H1543 C1556 0.960 . S
C1544 H1536 0.929 . S
C1544 C1545 1.377 . S
C1544 C1546 1.384 . S
C1545 C1544 1.377 . S
C1545 C1551 1.390 . S
C1546 H1537 0.930 . S
C1546 C1544 1.384 . S
C1546 C1547 1.372 . S
C1547 C1546 1.372 . S
C1547 C1548 1.400 . S
C1547 C1552 1.490 . S
C1548 H1538 0.931 1_455 S
C1548 C1547 1.400 . S
C1548 C1551 1.386 . S
H1549 C1565 0.930 . S
H1550 C1566 0.931 . S
C1551 H1539 0.929 1_455 S
C1551 C1545 1.390 . S
C1551 C1548 1.386 . S
C1552 C1547 1.490 . S
C1552 C1554 1.395 . S
C1552 C1555 1.403 . S
H1553 C1559 0.930 . S
C1554 H1540 0.930 . S
C1554 C1552 1.395 . S
C1554 C1557 1.403 . S
C1555 C1552 1.403 . S
C1555 C1556 1.524 . S
C1555 C1559 1.400 . S
C1556 H1541 0.960 . S
C1556 H1542 0.960 . S
C1556 H1543 0.960 . S
C1556 C1555 1.524 . S
C1557 C1554 1.403 . S
C1557 C1558 1.392 . S
C1557 C1561 1.495 . S
C1558 C1557 1.392 . S
C1558 C1559 1.385 . S
C1558 C1560 1.478 . S
C1559 H1553 0.930 . S
C1559 C1555 1.400 . S
C1559 C1558 1.385 . S
C1560 C1558 1.478 . S
C1560 C1562 1.381 1_556 S
C1560 C1566 1.383 1_556 S
C1561 C1557 1.495 . S
C1561 H1567 0.959 . S
C1561 H1568 0.961 . S
C1561 H1569 0.960 . S
C1562 C1560 1.381 1_554 S
C1562 C1563 1.394 . S
C1562 H1570 0.930 . S
C1563 C1562 1.394 . S
C1563 C1564 1.383 . S
C1563 H1571 0.929 . S
C1564 C1563 1.383 . S
C1564 C1565 1.377 . S
C1565 H1549 0.930 . S
C1565 C1564 1.377 . S
C1565 C1566 1.379 . S
C1566 H1550 0.931 . S
C1566 C1560 1.383 1_554 S
C1566 C1565 1.379 . S
H1567 C1561 0.959 . S
H1568 C1561 0.961 . S
H1569 C1561 0.960 . S
H1570 C1562 0.930 . S
H1571 C1563 0.929 . S
H1572 C1580 0.929 . S
H1573 C1582 0.930 . S
H1574 C1584 0.930 . S
H1575 C1587 0.929 . S
H1576 C1590 0.930 . S
H1577 C1592 0.960 . S
H1578 C1592 0.960 . S
H1579 C1592 0.960 . S
C1580 H1572 0.929 . S
C1580 C1581 1.377 . S
C1580 C1582 1.384 . S
C1581 C1580 1.377 . S
C1581 C1587 1.390 . S
C1582 H1573 0.930 . S
C1582 C1580 1.384 . S
C1582 C1583 1.372 . S
C1583 C1582 1.372 . S
C1583 C1584 1.400 . S
C1583 C1588 1.490 . S
C1584 H1574 0.930 . S
C1584 C1583 1.400 . S
C1584 C1587 1.386 . S
H1585 C1601 0.930 . S
H1586 C1602 0.931 . S
C1587 H1575 0.929 . S
C1587 C1581 1.390 . S
C1587 C1584 1.386 . S
C1588 C1583 1.490 . S
C1588 C1590 1.395 . S
C1588 C1591 1.403 . S
H1589 C1595 0.930 . S
C1590 H1576 0.930 . S
C1590 C1588 1.395 . S
C1590 C1593 1.403 . S
C1591 C1588 1.403 . S
C1591 C1592 1.524 . S
C1591 C1595 1.400 . S
C1592 H1577 0.960 . S
C1592 H1578 0.960 . S
C1592 H1579 0.960 . S
C1592 C1591 1.524 . S
C1593 C1590 1.403 . S
C1593 C1594 1.392 . S
C1593 C1597 1.495 1_545 S
C1594 C1593 1.392 . S
C1594 C1595 1.385 . S
C1594 C1596 1.478 . S
C1595 H1589 0.930 . S
C1595 C1591 1.400 . S
C1595 C1594 1.385 . S
C1596 C1594 1.478 . S
C1596 C1598 1.381 . S
C1596 C1602 1.383 . S
C1597 C1593 1.495 1_565 S
C1597 H1603 0.959 . S
C1597 H1604 0.961 . S
C1597 H1605 0.978 . S
C1598 C1596 1.381 . S
C1598 C1599 1.394 . S
C1598 H1606 0.930 . S
C1599 C1598 1.394 . S
C1599 C1600 1.383 . S
C1599 H1607 0.929 . S
C1600 C1599 1.383 . S
C1600 C1601 1.377 . S
C1601 H1585 0.930 . S
C1601 C1600 1.377 . S
C1601 C1602 1.379 . S
C1602 H1586 0.931 . S
C1602 C1596 1.383 . S
C1602 C1601 1.379 . S
H1603 C1597 0.959 . S
H1604 C1597 0.961 . S
H1605 C1597 0.978 . S
H1606 C1598 0.930 . S
H1607 C1599 0.929 . S
H1608 C1616 0.929 . S
H1609 C1618 0.930 . S
H1610 C1620 0.930 . S
H1611 C1623 0.929 . S
H1612 C1626 0.930 . S
H1613 C1628 0.960 . S
H1614 C1628 0.960 . S
H1615 C1628 0.960 . S
C1616 H1608 0.929 . S
C1616 C1617 1.377 . S
C1616 C1618 1.384 . S
C1617 C1616 1.377 . S
C1617 C1623 1.390 . S
C1618 H1609 0.930 . S
C1618 C1616 1.384 . S
C1618 C1619 1.372 . S
C1619 C1618 1.372 . S
C1619 C1620 1.400 . S
C1619 C1624 1.490 . S
C1620 H1610 0.930 . S
C1620 C1619 1.400 . S
C1620 C1623 1.386 . S
H1621 C1637 0.930 . S
H1622 C1638 0.931 . S
C1623 H1611 0.929 . S
C1623 C1617 1.390 . S
C1623 C1620 1.386 . S
C1624 C1619 1.490 . S
C1624 C1626 1.395 . S
C1624 C1627 1.403 . S
H1625 C1631 0.930 . S
C1626 H1612 0.930 . S
C1626 C1624 1.395 . S
C1626 C1629 1.403 . S
C1627 C1624 1.403 . S
C1627 C1628 1.524 . S
C1627 C1631 1.400 . S
C1628 H1613 0.960 . S
C1628 H1614 0.960 . S
C1628 H1615 0.960 . S
C1628 C1627 1.524 . S
C1629 C1626 1.403 . S
C1629 C1630 1.392 . S
C1629 C1633 1.495 . S
C1630 C1629 1.392 . S
C1630 C1631 1.385 . S
C1630 C1632 1.478 . S
C1631 H1625 0.930 . S
C1631 C1627 1.400 . S
C1631 C1630 1.385 . S
C1632 C1630 1.478 . S
C1632 C1634 1.381 1_556 S
C1632 C1638 1.383 1_556 S
C1633 C1629 1.495 . S
C1633 H1639 0.959 . S
C1633 H1640 0.961 . S
C1633 H1641 0.960 . S
C1634 C1632 1.381 1_554 S
C1634 C1635 1.394 . S
C1634 H1642 0.930 . S
C1635 C1634 1.394 . S
C1635 C1636 1.383 . S
C1635 H1643 0.929 . S
C1636 C1635 1.383 . S
C1636 C1637 1.377 . S
C1637 H1621 0.930 . S
C1637 C1636 1.377 . S
C1637 C1638 1.379 . S
C1638 H1622 0.931 . S
C1638 C1632 1.383 1_554 S
C1638 C1637 1.379 . S
H1639 C1633 0.959 . S
H1640 C1633 0.961 . S
H1641 C1633 0.960 . S
H1642 C1634 0.930 . S
H1643 C1635 0.929 . S
H1644 C1652 0.929 . S
H1645 C1654 0.930 . S
H1646 C1656 0.930 . S
H1647 C1659 0.929 . S
H1648 C1662 0.930 . S
H1649 C1664 0.960 . S
H1650 C1664 0.960 . S
H1651 C1664 0.960 . S
C1652 H1644 0.929 . S
C1652 C1653 1.377 . S
C1652 C1654 1.384 . S
C1653 C1652 1.377 . S
C1653 C1659 1.390 . S
C1654 H1645 0.930 . S
C1654 C1652 1.384 . S
C1654 C1655 1.372 . S
C1655 C1654 1.372 . S
C1655 C1656 1.400 . S
C1655 C1660 1.490 . S
C1656 H1646 0.930 . S
C1656 C1655 1.400 . S
C1656 C1659 1.386 . S
H1657 C1673 0.930 . S
H1658 C1674 0.931 . S
C1659 H1647 0.929 . S
C1659 C1653 1.390 . S
C1659 C1656 1.386 . S
C1660 C1655 1.490 . S
C1660 C1662 1.395 . S
C1660 C1663 1.403 . S
H1661 C1667 0.930 . S
C1662 H1648 0.930 . S
C1662 C1660 1.395 . S
C1662 C1665 1.403 . S
C1663 C1660 1.403 . S
C1663 C1664 1.524 . S
C1663 C1667 1.400 . S
C1664 H1649 0.960 . S
C1664 H1650 0.960 . S
C1664 H1651 0.960 . S
C1664 C1663 1.524 . S
C1665 C1662 1.403 . S
C1665 C1666 1.392 . S
C1665 C1669 1.495 . S
C1666 C1665 1.392 . S
C1666 C1667 1.385 . S
C1666 C1668 1.478 . S
C1667 H1661 0.930 . S
C1667 C1663 1.400 . S
C1667 C1666 1.385 . S
C1668 C1666 1.478 . S
C1668 C1670 1.381 . S
C1668 C1674 1.383 . S
C1669 C1665 1.495 . S
C1669 H1675 0.959 . S
C1669 H1676 0.961 . S
C1669 H1677 0.960 . S
C1670 C1668 1.381 . S
C1670 C1671 1.394 . S
C1670 H1678 0.930 . S
C1671 C1670 1.394 . S
C1671 C1672 1.383 . S
C1671 H1679 0.929 . S
C1672 C1671 1.383 . S
C1672 C1673 1.377 . S
C1673 H1657 0.930 . S
C1673 C1672 1.377 . S
C1673 C1674 1.379 . S
C1674 H1658 0.931 . S
C1674 C1668 1.383 . S
C1674 C1673 1.379 . S
H1675 C1669 0.959 . S
H1676 C1669 0.961 . S
H1677 C1669 0.960 . S
H1678 C1670 0.930 . S
H1679 C1671 0.929 . S
H1680 C1688 0.929 . S
H1681 C1690 0.930 . S
H1682 C1692 0.930 . S
H1683 C1695 0.929 . S
H1684 C1698 0.930 . S
H1685 C1700 0.960 . S
H1686 C1700 0.960 . S
H1687 C1700 0.960 . S
C1688 H1680 0.929 . S
C1688 C1689 1.377 . S
C1688 C1690 1.384 . S
C1689 C1688 1.377 . S
C1689 C1695 1.390 . S
C1690 H1681 0.930 . S
C1690 C1688 1.384 . S
C1690 C1691 1.372 . S
C1691 C1690 1.372 . S
C1691 C1692 1.400 . S
C1691 C1696 1.490 . S
C1692 H1682 0.930 . S
C1692 C1691 1.400 . S
C1692 C1695 1.386 . S
H1693 C1709 0.882 1_455 S
H1694 C1710 0.929 . S
C1695 H1683 0.929 . S
C1695 C1689 1.390 . S
C1695 C1692 1.386 . S
C1696 C1691 1.490 . S
C1696 C1698 1.395 . S
C1696 C1699 1.403 . S
H1697 C1703 0.930 . S
C1698 H1684 0.930 . S
C1698 C1696 1.395 . S
C1698 C1701 1.403 . S
C1699 C1696 1.403 . S
C1699 C1700 1.524 . S
C1699 C1703 1.400 . S
C1700 H1685 0.960 . S
C1700 H1686 0.960 . S
C1700 H1687 0.960 . S
C1700 C1699 1.524 . S
C1701 C1698 1.403 . S
C1701 C1702 1.392 . S
C1701 C1705 1.495 . S
C1702 C1701 1.392 . S
C1702 C1703 1.385 . S
C1702 C1704 1.478 . S
C1703 H1697 0.930 . S
C1703 C1699 1.400 . S
C1703 C1702 1.385 . S
C1704 C1702 1.478 . S
C1704 C1706 1.381 . S
C1704 C1710 1.383 . S
C1705 C1701 1.495 . S
C1705 H1711 0.959 . S
C1705 H1712 0.961 . S
C1705 H1713 0.960 . S
C1706 C1704 1.381 . S
C1706 C1707 1.394 . S
C1706 H1714 0.930 . S
C1707 C1706 1.394 . S
C1707 C1708 1.383 . S
C1707 H1715 0.929 . S
C1708 C1707 1.383 . S
C1708 C1709 1.377 . S
C1709 H1693 0.882 1_655 S
C1709 C1708 1.377 . S
C1709 C1710 1.379 . S
C1710 H1694 0.929 . S
C1710 C1704 1.383 . S
C1710 C1709 1.379 . S
H1711 C1705 0.959 . S
H1712 C1705 0.961 . S
H1713 C1705 0.960 . S
H1714 C1706 0.930 . S
H1715 C1707 0.929 . S
H1716 C1724 0.929 . S
H1717 C1726 0.930 . S
H1718 C1728 0.930 1_556 S
H1719 C1731 0.929 . S
H1720 C1734 0.930 . S
H1721 C1736 0.960 . S
H1722 C1736 0.960 . S
H1723 C1736 0.960 . S
C1724 H1716 0.929 . S
C1724 C1725 1.377 . S
C1724 C1726 1.384 . S
C1725 C1724 1.377 . S
C1725 C1731 1.390 . S
C1726 H1717 0.930 . S
C1726 C1724 1.384 . S
C1726 C1727 1.372 1_554 S
C1727 C1726 1.372 1_556 S
C1727 C1728 1.400 1_556 S
C1727 C1732 1.490 . S
C1728 H1718 0.930 1_554 S
C1728 C1727 1.400 1_554 S
C1728 C1731 1.386 . S
H1729 C1745 0.930 . S
H1730 C1746 0.931 . S
C1731 H1719 0.929 . S
C1731 C1725 1.390 . S
C1731 C1728 1.386 . S
C1732 C1727 1.490 . S
C1732 C1734 1.395 . S
C1732 C1735 1.403 . S
H1733 C1739 0.930 . S
C1734 H1720 0.930 . S
C1734 C1732 1.395 . S
C1734 C1737 1.403 . S
C1735 C1732 1.403 . S
C1735 C1736 1.524 . S
C1735 C1739 1.400 . S
C1736 H1721 0.960 . S
C1736 H1722 0.960 . S
C1736 H1723 0.960 . S
C1736 C1735 1.524 . S
C1737 C1734 1.403 . S
C1737 C1738 1.392 . S
C1737 C1741 1.495 1_565 S
C1738 C1737 1.392 . S
C1738 C1739 1.385 . S
C1738 C1740 1.478 . S
C1739 H1733 0.930 . S
C1739 C1735 1.400 . S
C1739 C1738 1.385 . S
C1740 C1738 1.478 . S
C1740 C1742 1.381 . S
C1740 C1746 1.383 . S
C1741 C1737 1.495 1_545 S
C1741 H1747 0.959 . S
C1741 H1748 0.961 . S
C1741 H1749 0.971 . S
C1742 C1740 1.381 . S
C1742 C1743 1.394 . S
C1742 H1750 0.930 . S
C1743 C1742 1.394 . S
C1743 C1744 1.383 . S
C1743 H1751 0.929 . S
C1744 C1743 1.383 . S
C1744 C1745 1.377 . S
C1745 H1729 0.930 . S
C1745 C1744 1.377 . S
C1745 C1746 1.379 . S
C1746 H1730 0.931 . S
C1746 C1740 1.383 . S
C1746 C1745 1.379 . S
H1747 C1741 0.959 . S
H1748 C1741 0.961 . S
H1749 C1741 0.971 . S
H1750 C1742 0.930 . S
H1751 C1743 0.929 . S
H1752 C1760 0.929 . S
H1753 C1762 0.930 . S
H1754 C1764 0.930 . S
H1755 C1767 0.929 . S
H1756 C1770 0.930 . S
H1757 C1772 0.960 . S
H1758 C1772 0.960 . S
H1759 C1772 0.960 . S
C1760 H1752 0.929 . S
C1760 C1761 1.377 . S
C1760 C1762 1.384 . S
C1761 C1760 1.377 . S
C1761 C1767 1.390 . S
C1762 H1753 0.930 . S
C1762 C1760 1.384 . S
C1762 C1763 1.372 . S
C1763 C1762 1.372 . S
C1763 C1764 1.400 . S
C1763 C1768 1.490 . S
C1764 H1754 0.930 . S
C1764 C1763 1.400 . S
C1764 C1767 1.386 . S
H1765 C1781 0.930 . S
H1766 C1782 0.931 . S
C1767 H1755 0.929 . S
C1767 C1761 1.390 . S
C1767 C1764 1.386 . S
C1768 C1763 1.490 . S
C1768 C1770 1.395 . S
C1768 C1771 1.403 . S
H1769 C1775 0.930 . S
C1770 H1756 0.930 . S
C1770 C1768 1.395 . S
C1770 C1773 1.403 . S
C1771 C1768 1.403 . S
C1771 C1772 1.524 . S
C1771 C1775 1.400 . S
C1772 H1757 0.960 . S
C1772 H1758 0.960 . S
C1772 H1759 0.960 . S
C1772 C1771 1.524 . S
C1773 C1770 1.403 . S
C1773 C1774 1.392 . S
C1773 C1777 1.495 . S
C1774 C1773 1.392 . S
C1774 C1775 1.385 . S
C1774 C1776 1.478 . S
C1775 H1769 0.930 . S
C1775 C1771 1.400 . S
C1775 C1774 1.385 . S
C1776 C1774 1.478 . S
C1776 C1778 1.381 . S
C1776 C1782 1.383 . S
C1777 C1773 1.495 . S
C1777 H1783 0.959 . S
C1777 H1784 0.961 . S
C1777 H1785 0.960 . S
C1778 C1776 1.381 . S
C1778 C1779 1.394 . S
C1778 H1786 0.930 . S
C1779 C1778 1.394 . S
C1779 C1780 1.383 . S
C1779 H1787 0.929 . S
C1780 C1779 1.383 . S
C1780 C1781 1.377 . S
C1781 H1765 0.930 . S
C1781 C1780 1.377 . S
C1781 C1782 1.379 . S
C1782 H1766 0.931 . S
C1782 C1776 1.383 . S
C1782 C1781 1.379 . S
H1783 C1777 0.959 . S
H1784 C1777 0.961 . S
H1785 C1777 0.960 . S
H1786 C1778 0.930 . S
H1787 C1779 0.929 . S
H1788 C1796 0.929 . S
H1789 C1798 0.930 . S
H1790 C1800 0.927 1_556 S
H1791 C1803 0.929 . S
H1792 C1806 0.930 . S
H1793 C1808 0.960 . S
H1794 C1808 0.960 . S
H1795 C1808 0.960 . S
C1796 H1788 0.929 . S
C1796 C1797 1.377 . S
C1796 C1798 1.384 . S
C1797 C1796 1.377 . S
C1797 C1803 1.390 . S
C1798 H1789 0.930 . S
C1798 C1796 1.384 . S
C1798 C1799 1.372 1_554 S
C1799 C1798 1.372 1_556 S
C1799 C1800 1.400 1_556 S
C1799 C1804 1.490 . S
C1800 H1790 0.927 1_554 S
C1800 C1799 1.400 1_554 S
C1800 C1803 1.386 . S
H1801 C1817 0.930 . S
H1802 C1818 0.931 . S
C1803 H1791 0.929 . S
C1803 C1797 1.390 . S
C1803 C1800 1.386 . S
C1804 C1799 1.490 . S
C1804 C1806 1.395 . S
C1804 C1807 1.403 . S
H1805 C1811 0.930 . S
C1806 H1792 0.930 . S
C1806 C1804 1.395 . S
C1806 C1809 1.403 . S
C1807 C1804 1.403 . S
C1807 C1808 1.524 . S
C1807 C1811 1.400 . S
C1808 H1793 0.960 . S
C1808 H1794 0.960 . S
C1808 H1795 0.960 . S
C1808 C1807 1.524 . S
C1809 C1806 1.403 . S
C1809 C1810 1.392 . S
C1809 C1813 1.495 . S
C1810 C1809 1.392 . S
C1810 C1811 1.385 . S
C1810 C1812 1.478 . S
C1811 H1805 0.930 . S
C1811 C1807 1.400 . S
C1811 C1810 1.385 . S
C1812 C1810 1.478 . S
C1812 C1814 1.381 . S
C1812 C1818 1.383 . S
C1813 C1809 1.495 . S
C1813 H1819 0.959 . S
C1813 H1820 0.961 . S
C1813 H1821 0.960 . S
C1814 C1812 1.381 . S
C1814 C1815 1.394 . S
C1814 H1822 0.930 . S
C1815 C1814 1.394 . S
C1815 C1816 1.383 . S
C1815 H1823 0.929 . S
C1816 C1815 1.383 . S
C1816 C1817 1.377 . S
C1817 H1801 0.930 . S
C1817 C1816 1.377 . S
C1817 C1818 1.379 . S
C1818 H1802 0.931 . S
C1818 C1812 1.383 . S
C1818 C1817 1.379 . S
H1819 C1813 0.959 . S
H1820 C1813 0.961 . S
H1821 C1813 0.960 . S
H1822 C1814 0.930 . S
H1823 C1815 0.929 . S
H1824 C1832 0.929 . S
H1825 C1834 0.930 . S
H1826 C1836 0.930 . S
H1827 C1839 0.929 . S
H1828 C1842 0.930 . S
H1829 C1844 0.960 . S
H1830 C1844 0.960 . S
H1831 C1844 0.960 . S
C1832 H1824 0.929 . S
C1832 C1833 1.377 . S
C1832 C1834 1.384 . S
C1833 C1832 1.377 . S
C1833 C1839 1.390 . S
C1834 H1825 0.930 . S
C1834 C1832 1.384 . S
C1834 C1835 1.372 . S
C1835 C1834 1.372 . S
C1835 C1836 1.400 . S
C1835 C1840 1.490 . S
C1836 H1826 0.930 . S
C1836 C1835 1.400 . S
C1836 C1839 1.386 . S
H1837 C1853 0.930 . S
H1838 C1854 0.931 . S
C1839 H1827 0.929 . S
C1839 C1833 1.390 . S
C1839 C1836 1.386 . S
C1840 C1835 1.490 . S
C1840 C1842 1.395 . S
C1840 C1843 1.403 . S
H1841 C1847 0.930 . S
C1842 H1828 0.930 . S
C1842 C1840 1.395 . S
C1842 C1845 1.403 . S
C1843 C1840 1.403 . S
C1843 C1844 1.524 1_655 S
C1843 C1847 1.400 . S
C1844 H1829 0.960 . S
C1844 H1830 0.960 . S
C1844 H1831 0.960 . S
C1844 C1843 1.524 1_455 S
C1845 C1842 1.403 . S
C1845 C1846 1.392 . S
C1845 C1849 1.495 . S
C1846 C1845 1.392 . S
C1846 C1847 1.385 . S
C1846 C1848 1.478 . S
C1847 H1841 0.930 . S
C1847 C1843 1.400 . S
C1847 C1846 1.385 . S
C1848 C1846 1.478 . S
C1848 C1850 1.381 1_554 S
C1848 C1854 1.383 1_554 S
C1849 C1845 1.495 . S
C1849 H1855 0.959 . S
C1849 H1856 0.961 . S
C1849 H1857 0.960 . S
C1850 C1848 1.381 1_556 S
C1850 C1851 1.394 . S
C1850 H1858 0.930 . S
C1851 C1850 1.394 . S
C1851 C1852 1.383 . S
C1851 H1859 0.929 . S
C1852 C1851 1.383 . S
C1852 C1853 1.377 . S
C1853 H1837 0.930 . S
C1853 C1852 1.377 . S
C1853 C1854 1.379 . S
C1854 H1838 0.931 . S
C1854 C1848 1.383 1_556 S
C1854 C1853 1.379 . S
H1855 C1849 0.959 . S
H1856 C1849 0.961 . S
H1857 C1849 0.960 . S
H1858 C1850 0.930 . S
H1859 C1851 0.929 . S
H1860 C1868 0.929 . S
H1861 C1870 0.930 . S
H1862 C1872 0.930 . S
H1863 C1875 0.929 . S
H1864 C1878 0.887 1_545 S
H1865 C1880 0.960 . S
H1866 C1880 0.960 . S
H1867 C1880 0.960 . S
C1868 H1860 0.929 . S
C1868 C1869 1.377 . S
C1868 C1870 1.384 . S
C1869 C1868 1.377 . S
C1869 C1875 1.390 . S
C1870 H1861 0.930 . S
C1870 C1868 1.384 . S
C1870 C1871 1.372 . S
C1871 C1870 1.372 . S
C1871 C1872 1.400 . S
C1871 C1876 1.490 . S
C1872 H1862 0.930 . S
C1872 C1871 1.400 . S
C1872 C1875 1.386 . S
H1873 C1889 0.930 . S
H1874 C1890 0.931 . S
C1875 H1863 0.929 . S
C1875 C1869 1.390 . S
C1875 C1872 1.386 . S
C1876 C1871 1.490 . S
C1876 C1878 1.395 . S
C1876 C1879 1.403 . S
H1877 C1883 0.930 . S
C1878 H1864 0.887 1_565 S
C1878 C1876 1.395 . S
C1878 C1881 1.403 . S
C1879 C1876 1.403 . S
C1879 C1880 1.524 . S
C1879 C1883 1.400 . S
C1880 H1865 0.960 . S
C1880 H1866 0.960 . S
C1880 H1867 0.960 . S
C1880 C1879 1.524 . S
C1881 C1878 1.403 . S
C1881 C1882 1.392 . S
C1881 C1885 1.495 1_565 S
C1882 C1881 1.392 . S
C1882 C1883 1.385 . S
C1882 C1884 1.478 . S
C1883 H1877 0.930 . S
C1883 C1879 1.400 . S
C1883 C1882 1.385 . S
C1884 C1882 1.478 . S
C1884 C1886 1.381 . S
C1884 C1890 1.383 . S
C1885 C1881 1.495 1_545 S
C1885 H1891 0.959 . S
C1885 H1892 0.961 . S
C1885 H1893 0.960 . S
C1886 C1884 1.381 . S
C1886 C1887 1.394 . S
C1886 H1894 0.930 . S
C1887 C1886 1.394 . S
C1887 C1888 1.383 . S
C1887 H1895 0.929 . S
C1888 C1887 1.383 . S
C1888 C1889 1.377 . S
C1889 H1873 0.930 . S
C1889 C1888 1.377 . S
C1889 C1890 1.379 . S
C1890 H1874 0.931 . S
C1890 C1884 1.383 . S
C1890 C1889 1.379 . S
H1891 C1885 0.959 . S
H1892 C1885 0.961 . S
H1893 C1885 0.960 . S
H1894 C1886 0.930 . S
H1895 C1887 0.929 . S
H1896 C1904 0.929 . S
H1897 C1906 0.930 . S
H1898 C1908 0.939 . S
H1899 C1911 0.929 . S
H1900 C1914 0.930 . S
H1901 C1916 0.960 . S
H1902 C1916 0.960 . S
H1903 C1916 0.960 . S
C1904 H1896 0.929 . S
C1904 C1905 1.377 . S
C1904 C1906 1.384 . S
C1905 C1904 1.377 . S
C1905 C1911 1.390 . S
C1906 H1897 0.930 . S
C1906 C1904 1.384 . S
C1906 C1907 1.372 1_556 S
C1907 C1906 1.372 1_554 S
C1907 C1908 1.400 1_554 S
C1907 C1912 1.490 . S
C1908 H1898 0.939 . S
C1908 C1907 1.400 1_556 S
C1908 C1911 1.386 . S
H1909 C1925 0.930 . S
H1910 C1926 0.931 . S
C1911 H1899 0.929 . S
C1911 C1905 1.390 . S
C1911 C1908 1.386 . S
C1912 C1907 1.490 . S
C1912 C1914 1.395 . S
C1912 C1915 1.403 . S
H1913 C1919 0.930 . S
C1914 H1900 0.930 . S
C1914 C1912 1.395 . S
C1914 C1917 1.403 . S
C1915 C1912 1.403 . S
C1915 C1916 1.524 . S
C1915 C1919 1.400 . S
C1916 H1901 0.960 . S
C1916 H1902 0.960 . S
C1916 H1903 0.960 . S
C1916 C1915 1.524 . S
C1917 C1914 1.403 . S
C1917 C1918 1.392 . S
C1917 C1921 1.495 . S
C1918 C1917 1.392 . S
C1918 C1919 1.385 . S
C1918 C1920 1.478 . S
C1919 H1913 0.930 . S
C1919 C1915 1.400 . S
C1919 C1918 1.385 . S
C1920 C1918 1.478 . S
C1920 C1922 1.381 . S
C1920 C1926 1.383 . S
C1921 C1917 1.495 . S
C1921 H1927 0.959 . S
C1921 H1928 0.961 . S
C1921 H1929 0.960 . S
C1922 C1920 1.381 . S
C1922 C1923 1.394 . S
C1922 H1930 0.930 . S
C1923 C1922 1.394 . S
C1923 C1924 1.383 . S
C1923 H1931 0.929 . S
C1924 C1923 1.383 . S
C1924 C1925 1.377 . S
C1925 H1909 0.930 . S
C1925 C1924 1.377 . S
C1925 C1926 1.379 . S
C1926 H1910 0.931 . S
C1926 C1920 1.383 . S
C1926 C1925 1.379 . S
H1927 C1921 0.959 . S
H1928 C1921 0.961 . S
H1929 C1921 0.960 . S
H1930 C1922 0.930 . S
H1931 C1923 0.929 . S
H1932 C1940 0.929 . S
H1933 C1942 0.930 . S
H1934 C1944 0.930 . S
H1935 C1947 0.929 . S
H1936 C1950 0.930 . S
H1937 C1952 0.960 . S
H1938 C1952 0.960 . S
H1939 C1952 0.960 . S
C1940 H1932 0.929 . S
C1940 C1941 1.377 . S
C1940 C1942 1.384 . S
C1941 C1940 1.377 . S
C1941 C1947 1.390 . S
C1942 H1933 0.930 . S
C1942 C1940 1.384 . S
C1942 C1943 1.372 . S
C1943 C1942 1.372 . S
C1943 C1944 1.400 . S
C1943 C1948 1.490 . S
C1944 H1934 0.930 . S
C1944 C1943 1.400 . S
C1944 C1947 1.386 . S
H1945 C1961 0.930 . S
H1946 C1962 0.931 . S
C1947 H1935 0.929 . S
C1947 C1941 1.390 . S
C1947 C1944 1.386 . S
C1948 C1943 1.490 . S
C1948 C1950 1.395 . S
C1948 C1951 1.403 . S
H1949 C1955 0.930 . S
C1950 H1936 0.930 . S
C1950 C1948 1.395 . S
C1950 C1953 1.403 . S
C1951 C1948 1.403 . S
C1951 C1952 1.524 . S
C1951 C1955 1.400 . S
C1952 H1937 0.960 . S
C1952 H1938 0.960 . S
C1952 H1939 0.960 . S
C1952 C1951 1.524 . S
C1953 C1950 1.403 . S
C1953 C1954 1.392 . S
C1953 C1957 1.495 . S
C1954 C1953 1.392 . S
C1954 C1955 1.385 . S
C1954 C1956 1.478 . S
C1955 H1949 0.930 . S
C1955 C1951 1.400 . S
C1955 C1954 1.385 . S
C1956 C1954 1.478 . S
C1956 C1958 1.381 . S
C1956 C1962 1.383 . S
C1957 C1953 1.495 . S
C1957 H1963 0.959 . S
C1957 H1964 0.961 . S
C1957 H1965 0.960 . S
C1958 C1956 1.381 . S
C1958 C1959 1.394 . S
C1958 H1966 0.930 . S
C1959 C1958 1.394 . S
C1959 C1960 1.383 . S
C1959 H1967 0.929 . S
C1960 C1959 1.383 . S
C1960 C1961 1.377 . S
C1961 H1945 0.930 . S
C1961 C1960 1.377 . S
C1961 C1962 1.379 . S
C1962 H1946 0.931 . S
C1962 C1956 1.383 . S
C1962 C1961 1.379 . S
H1963 C1957 0.959 . S
H1964 C1957 0.961 . S
H1965 C1957 0.960 . S
H1966 C1958 0.930 . S
H1967 C1959 0.929 . S
C537 C17 1.485 . S
C556 C512 1.477 . S
C573 C50 1.488 . S
C592 C413 1.471 . S
C609 C446 1.488 . S
C628 C83 1.473 . S
C645 C116 1.485 . S
C664 C479 1.495 . S
C681 C314 1.487 . S
C700 C149 1.493 . S
C717 C347 1.485 . S
C736 C182 1.495 . S
C753 C380 1.485 . S
C772 C215 1.495 . S
C789 C281 1.485 . S
C808 C248 1.495 . S
C825 C8 1.273 . S
C844 C239 1.290 . S
C861 C41 1.275 . S
C880 C140 1.253 . S
C897 C74 1.276 . S
C916 C173 1.254 . S
C933 C107 1.275 . S
C952 C206 1.291 . S
C969 C503 1.277 . S
C988 C272 1.252 . S
C1005 C404 1.275 . S
C1024 C305 1.275 . S
C1041 C437 1.278 . S
C1060 C338 1.252 . S
C1077 C371 1.275 . S
C1096 C470 1.259 . S
C1113 C28 0.884 . S
C1132 C160 0.881 . S
C1149 C193 0.883 . S
C1168 C61 0.889 . S
C1185 C226 0.883 . S
C1204 C94 0.885 . S
C1221 C127 0.884 . S
C1240 C259 0.877 . S
C1257 C424 0.883 . S
C1276 C292 0.883 . S
C1293 C325 0.885 . S
C1312 C457 0.889 . S
C1329 C358 0.884 . S
C1348 C490 0.881 . S
C1365 C523 0.885 . S
C1384 C391 0.883 . S
C1401 N14 1.330 . S
C1420 N5 1.316 . S
C1437 N38 1.333 . S
C1456 N47 1.322 . S
C1473 N80 1.328 . S
C1492 N71 1.329 . S
C1509 N104 1.334 . S
C1528 N113 1.331 . S
C1545 N146 1.336 . S
C1564 N137 1.339 . S
C1581 N179 1.334 . S
C1600 N170 1.351 . S
C1617 N212 1.335 . S
C1636 N203 1.329 . S
C1653 N245 1.336 . S
C1672 N236 1.335 . S
C1689 N269 1.333 . S
C1708 N278 1.322 . S
C1725 N302 1.335 . S
C1744 N311 1.310 . S
C1761 N335 1.338 . S
C1780 N344 1.348 . S
C1797 N368 1.340 . S
C1816 N377 1.336 . S
C1833 N410 1.330 . S
C1852 N401 1.317 . S
C1869 N443 1.334 . S
C1888 N434 1.351 . S
C1905 N467 1.340 . S
C1924 N476 1.343 . S
C1941 N500 1.337 . S
C1960 N509 1.313 . S
