# Generated by pormake.
# Topology wne, (6)-cn, num edge types: 1
# Building blocks:
#     Node 0, Type 0, BuildingBlock: IZENUY_clean_sbu_0, # of connection points: 6
#     Node 1, Type 0, BuildingBlock: IZENUY_clean_sbu_0, # of connection points: 6
#     Node 2, Type 0, BuildingBlock: IZENUY_clean_sbu_0, # of connection points: 6
#     Node 3, Type 0, BuildingBlock: IZENUY_clean_sbu_0, # of connection points: 6
#     Node 4, Type 0, BuildingBlock: IZENUY_clean_sbu_0, # of connection points: 6
#     Node 5, Type 0, BuildingBlock: IZENUY_clean_sbu_0, # of connection points: 6
#     Node 6, Type 0, BuildingBlock: IZENUY_clean_sbu_0, # of connection points: 6
#     Node 7, Type 0, BuildingBlock: IZENUY_clean_sbu_0, # of connection points: 6
#     Node 8, Type 0, BuildingBlock: IZENUY_clean_sbu_0, # of connection points: 6
#     Node 9, Type 0, BuildingBlock: IZENUY_clean_sbu_0, # of connection points: 6
#     Node 10, Type 0, BuildingBlock: IZENUY_clean_sbu_0, # of connection points: 6
#     Node 11, Type 0, BuildingBlock: IZENUY_clean_sbu_0, # of connection points: 6
#     Node 12, Type 0, BuildingBlock: IZENUY_clean_sbu_0, # of connection points: 6
#     Node 13, Type 0, BuildingBlock: IZENUY_clean_sbu_0, # of connection points: 6
#     Node 14, Type 0, BuildingBlock: IZENUY_clean_sbu_0, # of connection points: 6
#     Node 15, Type 0, BuildingBlock: IZENUY_clean_sbu_0, # of connection points: 6
#     Node 16, Type 0, BuildingBlock: IZENUY_clean_sbu_0, # of connection points: 6
#     Node 17, Type 0, BuildingBlock: IZENUY_clean_sbu_0, # of connection points: 6
#     Node 18, Type 0, BuildingBlock: IZENUY_clean_sbu_0, # of connection points: 6
#     Node 19, Type 0, BuildingBlock: IZENUY_clean_sbu_0, # of connection points: 6
#     Node 20, Type 0, BuildingBlock: IZENUY_clean_sbu_0, # of connection points: 6
#     Node 21, Type 0, BuildingBlock: IZENUY_clean_sbu_0, # of connection points: 6
#     Node 22, Type 0, BuildingBlock: IZENUY_clean_sbu_0, # of connection points: 6
#     Node 23, Type 0, BuildingBlock: IZENUY_clean_sbu_0, # of connection points: 6
#     Node 24, Type 0, BuildingBlock: IZENUY_clean_sbu_0, # of connection points: 6
#     Node 25, Type 0, BuildingBlock: IZENUY_clean_sbu_0, # of connection points: 6
#     Node 26, Type 0, BuildingBlock: IZENUY_clean_sbu_0, # of connection points: 6
#     Node 27, Type 0, BuildingBlock: IZENUY_clean_sbu_0, # of connection points: 6
#     Node 28, Type 0, BuildingBlock: IZENUY_clean_sbu_0, # of connection points: 6
#     Node 29, Type 0, BuildingBlock: IZENUY_clean_sbu_0, # of connection points: 6
#     Node 30, Type 0, BuildingBlock: IZENUY_clean_sbu_0, # of connection points: 6
#     Node 31, Type 0, BuildingBlock: IZENUY_clean_sbu_0, # of connection points: 6
#     Node 32, Type 0, BuildingBlock: IZENUY_clean_sbu_0, # of connection points: 6
#     Node 33, Type 0, BuildingBlock: IZENUY_clean_sbu_0, # of connection points: 6
#     Node 34, Type 0, BuildingBlock: IZENUY_clean_sbu_0, # of connection points: 6
#     Node 35, Type 0, BuildingBlock: IZENUY_clean_sbu_0, # of connection points: 6
#     Edge 36, Type (0, 0), BuildingBlock: AJUNOK_clean_linker_0, # of connection points: 2
#     Edge 37, Type (0, 0), BuildingBlock: AJUNOK_clean_linker_0, # of connection points: 2
#     Edge 38, Type (0, 0), BuildingBlock: AJUNOK_clean_linker_0, # of connection points: 2
#     Edge 39, Type (0, 0), BuildingBlock: AJUNOK_clean_linker_0, # of connection points: 2
#     Edge 40, Type (0, 0), BuildingBlock: AJUNOK_clean_linker_0, # of connection points: 2
#     Edge 41, Type (0, 0), BuildingBlock: AJUNOK_clean_linker_0, # of connection points: 2
#     Edge 42, Type (0, 0), BuildingBlock: AJUNOK_clean_linker_0, # of connection points: 2
#     Edge 43, Type (0, 0), BuildingBlock: AJUNOK_clean_linker_0, # of connection points: 2
#     Edge 44, Type (0, 0), BuildingBlock: AJUNOK_clean_linker_0, # of connection points: 2
#     Edge 45, Type (0, 0), BuildingBlock: AJUNOK_clean_linker_0, # of connection points: 2
#     Edge 46, Type (0, 0), BuildingBlock: AJUNOK_clean_linker_0, # of connection points: 2
#     Edge 47, Type (0, 0), BuildingBlock: AJUNOK_clean_linker_0, # of connection points: 2
#     Edge 48, Type (0, 0), BuildingBlock: AJUNOK_clean_linker_0, # of connection points: 2
#     Edge 49, Type (0, 0), BuildingBlock: AJUNOK_clean_linker_0, # of connection points: 2
#     Edge 50, Type (0, 0), BuildingBlock: AJUNOK_clean_linker_0, # of connection points: 2
#     Edge 51, Type (0, 0), BuildingBlock: AJUNOK_clean_linker_0, # of connection points: 2
#     Edge 52, Type (0, 0), BuildingBlock: AJUNOK_clean_linker_0, # of connection points: 2
#     Edge 53, Type (0, 0), BuildingBlock: AJUNOK_clean_linker_0, # of connection points: 2
#     Edge 54, Type (0, 0), BuildingBlock: AJUNOK_clean_linker_0, # of connection points: 2
#     Edge 55, Type (0, 0), BuildingBlock: AJUNOK_clean_linker_0, # of connection points: 2
#     Edge 56, Type (0, 0), BuildingBlock: AJUNOK_clean_linker_0, # of connection points: 2
#     Edge 57, Type (0, 0), BuildingBlock: AJUNOK_clean_linker_0, # of connection points: 2
#     Edge 58, Type (0, 0), BuildingBlock: AJUNOK_clean_linker_0, # of connection points: 2
#     Edge 59, Type (0, 0), BuildingBlock: AJUNOK_clean_linker_0, # of connection points: 2
#     Edge 60, Type (0, 0), BuildingBlock: AJUNOK_clean_linker_0, # of connection points: 2
#     Edge 61, Type (0, 0), BuildingBlock: AJUNOK_clean_linker_0, # of connection points: 2
#     Edge 62, Type (0, 0), BuildingBlock: AJUNOK_clean_linker_0, # of connection points: 2
#     Edge 63, Type (0, 0), BuildingBlock: AJUNOK_clean_linker_0, # of connection points: 2
#     Edge 64, Type (0, 0), BuildingBlock: AJUNOK_clean_linker_0, # of connection points: 2
#     Edge 65, Type (0, 0), BuildingBlock: AJUNOK_clean_linker_0, # of connection points: 2
#     Edge 66, Type (0, 0), BuildingBlock: AJUNOK_clean_linker_0, # of connection points: 2
#     Edge 67, Type (0, 0), BuildingBlock: AJUNOK_clean_linker_0, # of connection points: 2
#     Edge 68, Type (0, 0), BuildingBlock: AJUNOK_clean_linker_0, # of connection points: 2
#     Edge 69, Type (0, 0), BuildingBlock: AJUNOK_clean_linker_0, # of connection points: 2
#     Edge 70, Type (0, 0), BuildingBlock: AJUNOK_clean_linker_0, # of connection points: 2
#     Edge 71, Type (0, 0), BuildingBlock: AJUNOK_clean_linker_0, # of connection points: 2
#     Edge 72, Type (0, 0), BuildingBlock: AJUNOK_clean_linker_0, # of connection points: 2
#     Edge 73, Type (0, 0), BuildingBlock: AJUNOK_clean_linker_0, # of connection points: 2
#     Edge 74, Type (0, 0), BuildingBlock: AJUNOK_clean_linker_0, # of connection points: 2
#     Edge 75, Type (0, 0), BuildingBlock: AJUNOK_clean_linker_0, # of connection points: 2
#     Edge 76, Type (0, 0), BuildingBlock: AJUNOK_clean_linker_0, # of connection points: 2
#     Edge 77, Type (0, 0), BuildingBlock: AJUNOK_clean_linker_0, # of connection points: 2
#     Edge 78, Type (0, 0), BuildingBlock: AJUNOK_clean_linker_0, # of connection points: 2
#     Edge 79, Type (0, 0), BuildingBlock: AJUNOK_clean_linker_0, # of connection points: 2
#     Edge 80, Type (0, 0), BuildingBlock: AJUNOK_clean_linker_0, # of connection points: 2
#     Edge 81, Type (0, 0), BuildingBlock: AJUNOK_clean_linker_0, # of connection points: 2
#     Edge 82, Type (0, 0), BuildingBlock: AJUNOK_clean_linker_0, # of connection points: 2
#     Edge 83, Type (0, 0), BuildingBlock: AJUNOK_clean_linker_0, # of connection points: 2
#     Edge 84, Type (0, 0), BuildingBlock: AJUNOK_clean_linker_0, # of connection points: 2
#     Edge 85, Type (0, 0), BuildingBlock: AJUNOK_clean_linker_0, # of connection points: 2
#     Edge 86, Type (0, 0), BuildingBlock: AJUNOK_clean_linker_0, # of connection points: 2
#     Edge 87, Type (0, 0), BuildingBlock: AJUNOK_clean_linker_0, # of connection points: 2
#     Edge 88, Type (0, 0), BuildingBlock: AJUNOK_clean_linker_0, # of connection points: 2
#     Edge 89, Type (0, 0), BuildingBlock: AJUNOK_clean_linker_0, # of connection points: 2
#     Edge 90, Type (0, 0), BuildingBlock: AJUNOK_clean_linker_0, # of connection points: 2
#     Edge 91, Type (0, 0), BuildingBlock: AJUNOK_clean_linker_0, # of connection points: 2
#     Edge 92, Type (0, 0), BuildingBlock: AJUNOK_clean_linker_0, # of connection points: 2
#     Edge 93, Type (0, 0), BuildingBlock: AJUNOK_clean_linker_0, # of connection points: 2
#     Edge 94, Type (0, 0), BuildingBlock: AJUNOK_clean_linker_0, # of connection points: 2
#     Edge 95, Type (0, 0), BuildingBlock: AJUNOK_clean_linker_0, # of connection points: 2
#     Edge 96, Type (0, 0), BuildingBlock: AJUNOK_clean_linker_0, # of connection points: 2
#     Edge 97, Type (0, 0), BuildingBlock: AJUNOK_clean_linker_0, # of connection points: 2
#     Edge 98, Type (0, 0), BuildingBlock: AJUNOK_clean_linker_0, # of connection points: 2
#     Edge 99, Type (0, 0), BuildingBlock: AJUNOK_clean_linker_0, # of connection points: 2
#     Edge 100, Type (0, 0), BuildingBlock: AJUNOK_clean_linker_0, # of connection points: 2
#     Edge 101, Type (0, 0), BuildingBlock: AJUNOK_clean_linker_0, # of connection points: 2
#     Edge 102, Type (0, 0), BuildingBlock: AJUNOK_clean_linker_0, # of connection points: 2
#     Edge 103, Type (0, 0), BuildingBlock: AJUNOK_clean_linker_0, # of connection points: 2
#     Edge 104, Type (0, 0), BuildingBlock: AJUNOK_clean_linker_0, # of connection points: 2
#     Edge 105, Type (0, 0), BuildingBlock: AJUNOK_clean_linker_0, # of connection points: 2
#     Edge 106, Type (0, 0), BuildingBlock: AJUNOK_clean_linker_0, # of connection points: 2
#     Edge 107, Type (0, 0), BuildingBlock: AJUNOK_clean_linker_0, # of connection points: 2
#     Edge 108, Type (0, 0), BuildingBlock: AJUNOK_clean_linker_0, # of connection points: 2
#     Edge 109, Type (0, 0), BuildingBlock: AJUNOK_clean_linker_0, # of connection points: 2
#     Edge 110, Type (0, 0), BuildingBlock: AJUNOK_clean_linker_0, # of connection points: 2
#     Edge 111, Type (0, 0), BuildingBlock: AJUNOK_clean_linker_0, # of connection points: 2
#     Edge 112, Type (0, 0), BuildingBlock: AJUNOK_clean_linker_0, # of connection points: 2
#     Edge 113, Type (0, 0), BuildingBlock: AJUNOK_clean_linker_0, # of connection points: 2
#     Edge 114, Type (0, 0), BuildingBlock: AJUNOK_clean_linker_0, # of connection points: 2
#     Edge 115, Type (0, 0), BuildingBlock: AJUNOK_clean_linker_0, # of connection points: 2
#     Edge 116, Type (0, 0), BuildingBlock: AJUNOK_clean_linker_0, # of connection points: 2
#     Edge 117, Type (0, 0), BuildingBlock: AJUNOK_clean_linker_0, # of connection points: 2
#     Edge 118, Type (0, 0), BuildingBlock: AJUNOK_clean_linker_0, # of connection points: 2
#     Edge 119, Type (0, 0), BuildingBlock: AJUNOK_clean_linker_0, # of connection points: 2
#     Edge 120, Type (0, 0), BuildingBlock: AJUNOK_clean_linker_0, # of connection points: 2
#     Edge 121, Type (0, 0), BuildingBlock: AJUNOK_clean_linker_0, # of connection points: 2
#     Edge 122, Type (0, 0), BuildingBlock: AJUNOK_clean_linker_0, # of connection points: 2
#     Edge 123, Type (0, 0), BuildingBlock: AJUNOK_clean_linker_0, # of connection points: 2
#     Edge 124, Type (0, 0), BuildingBlock: AJUNOK_clean_linker_0, # of connection points: 2
#     Edge 125, Type (0, 0), BuildingBlock: AJUNOK_clean_linker_0, # of connection points: 2
#     Edge 126, Type (0, 0), BuildingBlock: AJUNOK_clean_linker_0, # of connection points: 2
#     Edge 127, Type (0, 0), BuildingBlock: AJUNOK_clean_linker_0, # of connection points: 2
#     Edge 128, Type (0, 0), BuildingBlock: AJUNOK_clean_linker_0, # of connection points: 2
#     Edge 129, Type (0, 0), BuildingBlock: AJUNOK_clean_linker_0, # of connection points: 2
#     Edge 130, Type (0, 0), BuildingBlock: AJUNOK_clean_linker_0, # of connection points: 2
#     Edge 131, Type (0, 0), BuildingBlock: AJUNOK_clean_linker_0, # of connection points: 2
#     Edge 132, Type (0, 0), BuildingBlock: AJUNOK_clean_linker_0, # of connection points: 2
#     Edge 133, Type (0, 0), BuildingBlock: AJUNOK_clean_linker_0, # of connection points: 2
#     Edge 134, Type (0, 0), BuildingBlock: AJUNOK_clean_linker_0, # of connection points: 2
#     Edge 135, Type (0, 0), BuildingBlock: AJUNOK_clean_linker_0, # of connection points: 2
#     Edge 136, Type (0, 0), BuildingBlock: AJUNOK_clean_linker_0, # of connection points: 2
#     Edge 137, Type (0, 0), BuildingBlock: AJUNOK_clean_linker_0, # of connection points: 2
#     Edge 138, Type (0, 0), BuildingBlock: AJUNOK_clean_linker_0, # of connection points: 2
#     Edge 139, Type (0, 0), BuildingBlock: AJUNOK_clean_linker_0, # of connection points: 2
#     Edge 140, Type (0, 0), BuildingBlock: AJUNOK_clean_linker_0, # of connection points: 2
#     Edge 141, Type (0, 0), BuildingBlock: AJUNOK_clean_linker_0, # of connection points: 2
#     Edge 142, Type (0, 0), BuildingBlock: AJUNOK_clean_linker_0, # of connection points: 2
#     Edge 143, Type (0, 0), BuildingBlock: AJUNOK_clean_linker_0, # of connection points: 2
# Relax obj value: 0.280
# Max RMSD: 0.272
# Mean RMSD: 0.272
data_MOF--net-wne--node1-IZENUY_clean_sbu_0--edge1-AJUNOK_clean_linker_0
_symmetry_space_group_name_H-M    P1
_symmetry_Int_Tables_number       1
_symmetry_cell_setting            triclinic
loop_
_symmetry_equiv_pos_as_xyz
'x, y, z'
_cell_length_a     46.176068
_cell_length_b     46.15997
_cell_length_c     29.728131
_cell_angle_alpha  90.051683
_cell_angle_beta   90.031801
_cell_angle_gamma 120.07663
loop_
_atom_site_label
_atom_site_type_symbol
_atom_site_fract_x
_atom_site_fract_y
_atom_site_fract_z
_atom_type_partial_charge
Fe0 Fe 0.27201 0.23679 0.03165 0.0
Fe1 Fe 0.32651 0.25697 0.10287 0.0
O2 O 0.28754 0.22723 0.08012 0.0
Fe3 Fe 0.26312 0.18829 0.10731 0.0
O4 O 0.26511 0.16583 0.05867 0.0
O5 O 0.2496 0.19226 0.01089 0.0
O6 O 0.30664 0.24223 0.99866 0.0
C7 C 0.33667 0.26284 1.00735 0.0
C8 C 0.21446 0.20558 0.07807 0.0
O9 O 0.34602 0.27406 0.04712 0.0
C10 C 0.28325 0.23184 0.17761 0.0
O11 O 0.29168 0.28263 0.04386 0.0
O12 O 0.31313 0.28664 0.11057 0.0
O13 O 0.22149 0.18287 0.08831 0.0
O14 O 0.23675 0.23265 0.06219 0.0
C15 C 0.33182 0.20334 0.12219 0.0
O16 O 0.31298 0.24557 0.16225 0.0
O17 O 0.25932 0.20896 0.15589 0.0
C18 C 0.30142 0.2975 0.08164 0.0
O19 O 0.34246 0.22871 0.0977 0.0
O20 O 0.30058 0.18733 0.13246 0.0
C21 C 0.25325 0.16727 0.0209 0.0
Fe22 Fe 0.84448 0.05568 0.03141 0.0
Fe23 Fe 0.83115 0.09591 0.10102 0.0
O24 O 0.85686 0.08144 0.07952 0.0
Fe25 Fe 0.89468 0.09199 0.10741 0.0
O26 O 0.91864 0.11495 0.05886 0.0
O27 O 0.88881 0.07369 0.01085 0.0
O28 O 0.84355 0.08713 0.99756 0.0
C29 C 0.82667 0.10092 1.00552 0.0
C30 C 0.87086 1.02443 0.07745 0.0
O31 O 0.81543 0.10003 0.04495 0.0
C32 C 0.85148 0.07405 0.17734 0.0
O33 O 0.79808 0.03416 0.04354 0.0
O34 O 0.79845 0.05469 0.10974 0.0
O35 O 0.89538 0.05319 0.08825 0.0
O36 O 0.84453 1.02236 0.06261 0.0
C37 C 0.88772 0.15079 0.12084 0.0
O38 O 0.84114 0.09275 0.16089 0.0
O39 O 0.87205 0.06882 0.15616 0.0
C40 C 0.78334 0.03328 0.0803 0.0
O41 O 0.8636 0.13856 0.09413 0.0
O42 O 0.90017 0.13251 0.13267 0.0
C43 C 0.91548 0.1012 0.02089 0.0
Fe44 Fe 1.02483 0.80727 0.0272 0.0
Fe45 Fe 0.98847 0.75453 0.09867 0.0
O46 O 0.99968 0.79358 0.0759 0.0
Fe47 Fe 0.98735 0.81947 0.10346 0.0
O48 O 0.96395 0.81927 0.05458 0.0
O49 O 1.00534 0.83215 1.00653 0.0
O50 O 0.99371 0.77345 0.99436 0.0
C51 C 0.98298 0.74325 1.00359 0.0
C52 C 0.0545 0.86487 0.07452 0.0
O53 O 0.986 0.73463 0.04323 0.0
C54 C 1.00719 0.79656 0.17443 0.0
O55 O 1.04809 0.78403 0.03931 0.0
O56 O 1.03111 0.76788 0.10766 0.0
O57 O 1.02541 0.85981 0.085 0.0
O58 O 0.05754 0.84169 0.05757 0.0
C59 C 0.93106 0.75169 0.11647 0.0
O60 O 0.98992 0.76732 0.15811 0.0
O61 O 1.01086 0.82163 0.15291 0.0
C62 C 0.05125 0.77274 0.07708 0.0
O63 O 0.94493 0.7404 0.09159 0.0
O64 O 0.94753 0.78284 0.12767 0.0
C65 C 0.97739 0.83018 0.0166 0.0
Fe66 Fe 0.19862 0.24471 0.41284 0.0
Fe67 Fe 0.24896 0.25791 0.48807 0.0
O68 O 0.23691 0.27156 0.44009 0.0
Fe69 Fe 0.26364 0.31134 0.41778 0.0
O70 O 0.23238 0.32321 0.42458 0.0
O71 O 0.19411 0.28013 0.38778 0.0
O72 O 0.17524 0.24461 0.4615 0.0
C73 C 0.17827 0.23407 0.49951 0.0
C74 C 0.24171 0.26833 0.34246 0.0
O75 O 0.2046 0.23256 0.50926 0.0
C76 C 0.31022 0.2949 0.43853 0.0
O77 O 0.19692 0.20485 0.43191 0.0
O78 O 0.24777 0.22403 0.45697 0.0
O79 O 0.25272 0.29773 0.35817 0.0
O80 O 0.22058 0.24315 0.36415 0.0
C81 C 0.2703 0.32138 0.51355 0.0
O82 O 0.2954 0.28173 0.47554 0.0
O83 O 0.29529 0.30118 0.40884 0.0
C84 C 0.22127 0.20023 0.44169 0.0
O85 O 0.25115 0.29098 0.52149 0.0
O86 O 0.28048 0.33147 0.47364 0.0
C87 C 0.2074 0.31104 0.39917 0.0
Fe88 Fe 0.82761 1.0113 0.49492 0.0
Fe89 Fe 0.77408 0.97965 0.42198 0.0
O90 O 0.81343 0.98917 0.44385 0.0
Fe91 Fe 0.83908 0.97774 0.4135 0.0
O92 O 0.83867 0.95152 0.45898 0.0
O93 O 0.85101 0.98959 0.51208 0.0
O94 O 0.79297 0.97902 0.52494 0.0
C95 C 0.763 0.97016 0.51724 0.0
C96 C 0.8854 0.04295 0.44782 0.0
O97 O 0.75408 0.9744 0.4783 0.0
C98 C 0.81711 1.00237 0.34686 0.0
O99 O 0.8067 0.0367 0.48632 0.0
O100 O 0.78658 1.02279 0.41822 0.0
O101 O 0.8799 1.01441 0.43376 0.0
O102 O 0.86291 0.04522 0.46801 0.0
C103 C 0.77109 0.92281 0.39657 0.0
O104 O 0.78757 0.98455 0.36217 0.0
O105 O 0.84159 1.004 0.36764 0.0
C106 C 0.79807 0.04392 0.44911 0.0
O107 O 0.75941 0.93546 0.42318 0.0
O108 O 0.80239 0.93954 0.38657 0.0
C109 C 0.84907 0.96241 0.49824 0.0
Fe110 Fe 0.06866 0.8308 0.49133 0.0
Fe111 Fe 0.10143 0.81086 0.41793 0.0
O112 O 0.09169 0.8401 0.44101 0.0
Fe113 Fe 0.10378 0.87805 0.41253 0.0
O114 O 0.12951 0.90239 0.45936 0.0
O115 O 0.09013 0.87562 0.5105 0.0
O116 O 0.10028 0.82765 0.52202 0.0
C117 C 0.10991 0.80728 0.51308 0.0
C118 C 1.0383 0.85877 0.44606 0.0
O119 O 0.10589 0.79486 0.47364 0.0
C120 C 0.07984 0.83323 0.34368 0.0
O121 O 1.04342 0.78461 0.48058 0.0
O122 O 0.05838 0.78021 0.41242 0.0
O123 O 0.06716 0.88203 0.43335 0.0
O124 O 1.03536 0.83287 0.46358 0.0
C125 C 0.15862 0.86515 0.39502 0.0
O126 O 0.09734 0.82102 0.35855 0.0
O127 O 0.07798 0.85558 0.3655 0.0
C128 C 1.03688 0.76952 0.44276 0.0
O129 O 0.14558 0.84037 0.42083 0.0
O130 O 0.14212 0.88002 0.38549 0.0
C131 C 0.11772 0.90113 0.49818 0.0
Fe132 Fe 0.83491 0.87616 0.90829 0.0
Fe133 Fe 0.82498 0.83222 0.99043 0.0
O134 O 0.80956 0.83986 0.94042 0.0
Fe135 Fe 0.76911 0.81052 0.92109 0.0
O136 O 0.75622 0.84132 0.92402 0.0
O137 O 0.79789 0.87805 0.88331 0.0
O138 O 0.83658 0.90329 0.9536 0.0
C139 C 0.84722 0.90286 0.99277 0.0
C140 C 0.80909 0.8279 0.84392 0.0
O141 O 0.84914 0.87759 1.00657 0.0
C142 C 0.79227 0.76915 0.94588 0.0
O143 O 0.87597 0.88024 0.92672 0.0
O144 O 0.8592 0.83277 0.96144 0.0
O145 O 0.78041 0.81822 0.86074 0.0
O146 O 0.83512 0.85056 0.86253 0.0
C147 C 0.76129 0.8099 0.01672 0.0
O148 O 0.80328 0.7858 0.98232 0.0
O149 O 0.77998 0.77875 0.91602 0.0
C150 C 0.8816 0.8574 0.94094 0.0
O151 O 0.79161 0.83059 0.02288 0.0
O152 O 0.75093 0.79661 0.9782 0.0
C153 C 0.76725 0.86489 0.89618 0.0
Fe154 Fe 0.20359 0.97677 0.915 0.0
Fe155 Fe 0.24917 1.01046 0.99606 0.0
O156 O 0.24087 0.98838 0.94487 0.0
Fe157 Fe 0.27073 0.97924 0.92237 0.0
O158 O 0.2415 0.93492 0.92409 0.0
O159 O 0.20198 0.93856 0.88828 0.0
O160 O 0.17805 0.95074 0.96078 0.0
C161 C 0.17873 0.96185 0.9999 0.0
C162 C 0.24912 1.0004 0.84722 0.0
O163 O 0.20419 0.98891 0.01366 0.0
C164 C 0.31101 0.0434 0.94951 0.0
O165 O 0.19964 1.01348 0.93521 0.0
O166 O 0.24759 0.04433 0.9694 0.0
O167 O 0.26143 0.98328 0.8628 0.0
O168 O 0.22697 1.00275 0.86872 0.0
C169 C 0.27312 0.96967 0.01723 0.0
O170 O 0.29542 0.03579 0.98692 0.0
O171 O 0.30095 1.02264 0.9181 0.0
C172 C 0.22276 0.042 0.94927 0.0
O173 O 0.25183 0.97816 0.02587 0.0
O174 O 0.2862 0.97471 0.97823 0.0
C175 C 0.21689 0.9221 0.89778 0.0
Fe176 Fe 0.10139 0.30665 0.92223 0.0
Fe177 Fe 0.10393 0.24195 0.91296 0.0
O178 O 0.09198 0.26715 0.94342 0.0
Fe179 Fe 0.06926 0.25228 0.99387 0.0
O180 O 0.10112 0.28666 0.02493 0.0
O181 O 0.10581 0.32582 0.97873 0.0
O182 O 0.14571 0.3217 0.92404 0.0
C183 C 0.15865 0.31022 0.89747 0.0
C184 C 1.03681 0.28215 0.94847 0.0
O185 O 0.14225 0.27894 0.88732 0.0
C186 C 1.03851 0.19499 0.94548 0.0
O187 O 0.0975 0.29411 0.86243 0.0
O188 O 0.07829 0.24002 0.86655 0.0
O189 O 1.04393 0.27321 0.98546 0.0
O190 O 0.05801 0.29381 0.91768 0.0
C191 C 0.118 0.23065 0.99769 0.0
O192 O 0.06725 0.20087 0.93198 0.0
O193 O 1.03577 0.21726 0.96564 0.0
C194 C 0.08033 0.26485 0.84619 0.0
O195 O 0.12958 0.24182 0.95896 0.0
O196 O 0.09072 0.22866 0.01098 0.0
C197 C 0.10992 0.31666 0.0175 0.0
Fe198 Fe 0.89104 0.81726 0.61125 0.0
Fe199 Fe 0.84456 0.8069 0.53211 0.0
O200 O 0.85402 0.79125 0.58046 0.0
Fe201 Fe 0.82625 0.75036 0.59979 0.0
O202 O 0.85826 0.73906 0.5958 0.0
O203 O 0.8941 0.781 0.6365 0.0
O204 O 0.9169 0.8187 0.56461 0.0
C205 C 0.91545 0.8298 0.52615 0.0
C206 C 0.84412 0.7913 0.67691 0.0
O207 O 0.88964 0.83152 0.51411 0.0
C208 C 0.78228 0.77155 0.57838 0.0
O209 O 0.89465 0.8581 0.59266 0.0
O210 O 0.84544 0.84058 0.56353 0.0
O211 O 0.83436 0.76242 0.66018 0.0
O212 O 0.86629 0.81743 0.6579 0.0
C213 C 0.824 0.74345 0.50373 0.0
O214 O 0.79831 0.7847 0.54217 0.0
O215 O 0.79305 0.75886 0.606 0.0
C216 C 0.87145 0.86378 0.58054 0.0
O217 O 0.84236 0.77422 0.49746 0.0
O218 O 0.81243 0.73207 0.5427 0.0
C219 C 0.88142 0.75032 0.62421 0.0
Fe220 Fe 0.26006 0.09094 0.60719 0.0
Fe221 Fe 0.27197 0.05786 0.52538 0.0
O222 O 0.28566 0.07958 0.57687 0.0
Fe223 Fe 0.32457 0.0884 0.59897 0.0
O224 O 0.33986 0.13259 0.59771 0.0
O225 O 0.29691 0.12952 0.63345 0.0
O226 O 0.26003 0.11676 0.56139 0.0
C227 C 0.24927 0.10549 0.5224 0.0
C228 C 0.2826 0.0676 0.67467 0.0
O229 O 0.24764 0.07849 0.50868 0.0
C230 C 0.30219 1.02532 0.56971 0.0
O231 O 0.21951 0.05384 0.5871 0.0
O232 O 0.23694 1.02345 0.55221 0.0
O233 O 0.31183 0.0843 0.65852 0.0
O234 O 0.25783 0.06522 0.65379 0.0
C235 C 0.3365 0.09985 0.50449 0.0
O236 O 0.29414 0.03369 0.53303 0.0
O237 O 0.31076 0.04464 0.60266 0.0
C238 C 0.21426 1.02547 0.57248 0.0
O239 O 0.30657 0.09093 0.49576 0.0
O240 O 0.34446 0.09373 0.54292 0.0
C241 C 0.32823 0.14587 0.62333 0.0
Fe242 Fe 1.02966 0.2389 0.52871 0.0
Fe243 Fe 0.99436 0.25864 0.59889 0.0
O244 O 1.00438 0.22923 0.57706 0.0
Fe245 Fe 0.99028 0.19066 0.60489 0.0
O246 O 0.96647 0.1674 0.55623 0.0
O247 O 1.00825 0.19427 0.50835 0.0
O248 O 1.00001 0.24351 0.49516 0.0
C249 C 0.99028 0.26392 0.50344 0.0
C250 C 0.05685 0.20909 0.57709 0.0
O251 O 0.99278 0.27562 0.54296 0.0
C252 C 1.011 0.23389 0.67534 0.0
O253 O 0.05539 0.2849 0.54093 0.0
O254 O 1.03735 0.28861 0.6074 0.0
O255 O 1.02725 0.18609 0.58749 0.0
O256 O 0.06116 0.2355 0.55947 0.0
C257 C 0.93566 0.20454 0.61773 0.0
O258 O 0.99546 0.24755 0.65853 0.0
O259 O 1.0139 0.21199 0.65386 0.0
C260 C 0.06023 0.29964 0.57883 0.0
O261 O 0.95016 0.22982 0.59288 0.0
O262 O 0.95125 0.18903 0.62856 0.0
C263 C 0.97993 0.16887 0.51862 0.0
Fe264 Fe 0.94301 0.56973 0.35939 0.0
Fe265 Fe 0.99738 0.59056 0.43119 0.0
O266 O 0.95732 0.5614 0.41014 0.0
Fe267 Fe 0.93133 0.52461 0.44078 0.0
O268 O 0.93003 0.49826 0.39491 0.0
O269 O 0.9182 0.52451 0.34223 0.0
O270 O 0.97708 0.57116 0.32836 0.0
C271 C 1.0074 0.59101 0.33658 0.0
C272 C 0.88558 0.54458 0.40729 0.0
O273 O 1.01655 0.60516 0.37479 0.0
C274 C 0.95633 0.57018 0.50846 0.0
O275 O 0.9649 0.6162 0.36843 0.0
O276 O 0.98595 0.62187 0.43597 0.0
O277 O 0.8908 0.52154 0.42189 0.0
O278 O 0.90828 0.5692 0.38703 0.0
C279 C 0.99875 0.53572 0.45563 0.0
O280 O 0.98525 0.58227 0.49125 0.0
O281 O 0.93069 0.54885 0.48765 0.0
C282 C 0.97437 0.63197 0.40576 0.0
O283 O 1.01084 0.56007 0.42892 0.0
O284 O 0.96761 0.52186 0.46607 0.0
C285 C 0.91869 0.49855 0.35627 0.0
Fe286 Fe 0.51494 0.38703 0.36063 0.0
Fe287 Fe 0.49125 0.41747 0.43213 0.0
O288 O 0.52187 0.40879 0.41182 0.0
Fe289 Fe 0.55838 0.42041 0.44344 0.0
O290 O 0.58485 0.44639 0.39826 0.0
O291 O 0.56035 0.40784 0.34558 0.0
O292 O 0.51412 0.42003 0.3303 0.0
C293 C 0.49262 0.42852 0.33706 0.0
C294 C 0.53983 0.35506 0.40891 0.0
O295 O 0.47791 0.4229 0.37504 0.0
C296 C 0.51129 0.39683 0.50929 0.0
O297 O 0.46832 0.36272 0.36639 0.0
O298 O 0.46119 0.37367 0.43533 0.0
O299 O 0.56249 0.38353 0.42405 0.0
O300 O 0.51504 0.35272 0.38849 0.0
C301 C 0.54468 0.47514 0.45778 0.0
O302 O 0.49872 0.4132 0.49216 0.0
O303 O 0.53418 0.39464 0.48956 0.0
C304 C 0.45099 0.35439 0.40232 0.0
O305 O 0.52012 0.46174 0.43149 0.0
O306 O 0.55951 0.45886 0.46895 0.0
C307 C 0.58535 0.43508 0.3597 0.0
Fe308 Fe 0.696 0.14018 0.36194 0.0
Fe309 Fe 0.65941 0.08488 0.43158 0.0
O310 O 0.67173 0.12531 0.41121 0.0
Fe311 Fe 0.66046 0.15115 0.44167 0.0
O312 O 0.63596 0.15237 0.395 0.0
O313 O 0.67508 0.16419 0.34344 0.0
O314 O 0.66505 0.10648 0.32858 0.0
C315 C 0.65321 0.07595 0.33655 0.0
C316 C 0.7266 0.19743 0.41068 0.0
O317 O 0.65568 0.06603 0.37544 0.0
C318 C 0.68099 0.12567 0.50847 0.0
O319 O 0.72053 0.11862 0.37301 0.0
O320 O 0.70159 0.09495 0.43858 0.0
O321 O 0.6979 0.19197 0.42348 0.0
O322 O 0.72912 0.17474 0.39152 0.0
C323 C 0.60332 0.08395 0.45336 0.0
O324 O 0.66217 0.09686 0.49166 0.0
O325 O 0.68529 0.15167 0.48884 0.0
C326 C 0.72467 0.10742 0.41031 0.0
O327 O 0.61604 0.07274 0.42627 0.0
O328 O 0.62097 0.11457 0.46627 0.0
C329 C 0.64778 0.16268 0.35608 0.0
Fe330 Fe 0.91653 0.58626 0.82817 0.0
Fe331 Fe 0.93849 0.64054 0.75667 0.0
O332 O 0.90857 0.60102 0.77773 0.0
Fe333 Fe 0.87133 0.57578 0.7473 0.0
O334 O 0.84571 0.57583 0.79332 0.0
O335 O 0.87131 0.56229 0.84506 0.0
O336 O 0.91857 0.6203 0.85921 0.0
C337 C 0.93925 0.65049 0.85196 0.0
C338 C 0.89032 0.52908 0.77979 0.0
O339 O 0.95291 0.65988 0.81339 0.0
C340 C 0.9183 0.5981 0.68111 0.0
O341 O 0.96305 0.60775 0.82009 0.0
O342 O 0.96918 0.62819 0.75231 0.0
O343 O 0.8672 0.53472 0.76652 0.0
O344 O 0.91535 0.55148 0.79986 0.0
C345 C 0.88458 0.64395 0.73237 0.0
O346 O 0.92998 0.6276 0.69666 0.0
O347 O 0.89489 0.57365 0.7011 0.0
C348 C 0.97942 0.61749 0.78335 0.0
O349 O 0.90909 0.65519 0.75865 0.0
O350 O 0.86992 0.61281 0.72131 0.0
C351 C 0.84612 0.5646 0.83199 0.0
Fe352 Fe 0.50141 0.30815 0.75077 0.0
Fe353 Fe 0.49081 0.3443 0.82978 0.0
O354 O 0.47613 0.32062 0.77993 0.0
Fe355 Fe 0.4367 0.31058 0.75784 0.0
O356 O 0.42194 0.2664 0.76167 0.0
O357 O 0.4645 0.26957 0.72519 0.0
O358 O 0.50096 0.28304 0.79764 0.0
C359 C 0.51192 0.29507 0.83628 0.0
C360 C 0.47897 0.33062 0.68222 0.0
O361 O 0.51394 0.32261 0.84877 0.0
C362 C 0.46113 0.37577 0.78108 0.0
O363 O 0.54251 0.3449 0.76995 0.0
O364 O 0.52616 0.37714 0.80127 0.0
O365 O 0.44961 0.31343 0.69817 0.0
O366 O 0.50373 0.33326 0.70354 0.0
C367 C 0.42613 0.30408 0.85311 0.0
O368 O 0.47032 0.36989 0.81886 0.0
O369 O 0.44927 0.35359 0.75151 0.0
C370 C 0.54858 0.37391 0.78256 0.0
O371 O 0.45614 0.31332 0.8615 0.0
O372 O 0.41732 0.30739 0.81373 0.0
C373 C 0.43326 0.25319 0.73539 0.0
Fe374 Fe 0.73519 0.16238 0.8246 0.0
Fe375 Fe 0.77289 0.14479 0.7549 0.0
O376 O 0.75945 0.17205 0.77524 0.0
Fe377 Fe 0.7693 0.20871 0.74439 0.0
O378 O 0.79428 0.23508 0.79033 0.0
O379 O 0.7557 0.20747 0.84258 0.0
O380 O 0.76635 0.16048 0.85823 0.0
C381 C 0.77937 0.14283 0.85048 0.0
C382 C 0.70348 0.18813 0.77724 0.0
O383 O 0.77854 0.13131 0.81134 0.0
C384 C 0.74833 0.16168 0.67875 0.0
O385 O 0.71133 0.11618 0.81432 0.0
O386 O 0.73117 0.11109 0.74964 0.0
O387 O 0.73194 0.21161 0.76411 0.0
O388 O 0.70152 0.16272 0.79488 0.0
C389 C 0.82722 0.20045 0.72938 0.0
O390 O 0.76807 0.15263 0.69487 0.0
O391 O 0.74386 0.18337 0.69828 0.0
C392 C 0.70797 0.10032 0.77774 0.0
O393 O 0.81607 0.1774 0.75792 0.0
O394 O 0.80859 0.21255 0.71788 0.0
C395 C 0.78274 0.23347 0.82951 0.0
Fe396 Fe 0.43684 0.14235 0.25686 0.0
Fe397 Fe 0.50375 0.20693 0.24499 0.0
O398 O 0.4775 0.17065 0.27671 0.0
Fe399 Fe 0.49241 0.16216 0.32669 0.0
O400 O 0.45919 0.16077 0.35927 0.0
O401 O 0.41802 0.12896 0.31365 0.0
O402 O 0.42516 0.17411 0.25909 0.0
C403 C 0.4368 0.19729 0.23066 0.0
C404 C 0.45886 0.09967 0.28127 0.0
O405 O 0.4676 0.20989 0.21892 0.0
C406 C 0.54954 0.1872 0.27849 0.0
O407 O 0.44893 0.14977 0.19663 0.0
O408 O 0.50381 0.18119 0.19928 0.0
O409 O 0.4703 0.11583 0.31792 0.0
O410 O 0.44621 0.10959 0.25233 0.0
C411 C 0.51566 0.23304 0.32965 0.0
O412 O 0.54434 0.21032 0.26433 0.0
O413 O 0.52656 0.16233 0.29782 0.0
C414 C 0.47768 0.15897 0.18023 0.0
O415 O 0.50544 0.23396 0.29037 0.0
O416 O 0.51696 0.2074 0.34339 0.0
C417 C 0.4286 0.14159 0.35242 0.0
Fe418 Fe 0.93873 0.31309 0.25436 0.0
Fe419 Fe 0.87045 0.30841 0.25032 0.0
O420 O 0.90942 0.32274 0.27738 0.0
Fe421 Fe 0.91927 0.34792 0.32575 0.0
O422 O 0.92529 0.31907 0.35856 0.0
O423 O 0.9562 0.31067 0.30979 0.0
O424 O 0.90997 0.26887 0.25971 0.0
C425 C 0.88526 0.25489 0.23393 0.0
C426 C 0.97953 0.37906 0.2747 0.0
O427 O 0.86961 0.27049 0.22403 0.0
C428 C 0.88747 0.37404 0.28017 0.0
O429 O 0.92713 0.31565 0.19507 0.0
O430 O 0.89129 0.33345 0.20238 0.0
O431 O 0.96497 0.37456 0.31262 0.0
O432 O 0.96869 0.35592 0.24657 0.0
C433 C 0.84995 0.29623 0.33685 0.0
O434 O 0.86475 0.34422 0.27023 0.0
O435 O 0.91466 0.37889 0.29557 0.0
C436 C 0.914 0.33243 0.1804 0.0
O437 O 0.84812 0.28342 0.29854 0.0
O438 O 0.87485 0.32505 0.34708 0.0
C439 C 0.94578 0.30961 0.34978 0.0
Fe440 Fe 0.73718 0.5892 0.32369 0.0
Fe441 Fe 0.77406 0.64342 0.253 0.0
O442 O 0.7616 0.60345 0.27472 0.0
Fe443 Fe 0.77308 0.57709 0.24583 0.0
O444 O 0.79849 0.57817 0.29273 0.0
O445 O 0.75872 0.56599 0.34355 0.0
O446 O 0.76762 0.6233 0.35681 0.0
C447 C 0.77982 0.65378 0.34828 0.0
C448 C 0.70769 0.53083 0.27841 0.0
O449 O 0.77872 0.66353 0.30862 0.0
C450 C 0.75039 0.59973 0.17845 0.0
O451 O 0.71242 0.61046 0.31151 0.0
O452 O 0.73233 0.63438 0.24642 0.0
O453 O 0.73669 0.53661 0.26679 0.0
O454 O 0.70451 0.55421 0.29389 0.0
C455 C 0.8293 0.64389 0.22979 0.0
O456 O 0.76962 0.62925 0.19337 0.0
O457 O 0.74716 0.57448 0.19906 0.0
C458 C 0.70917 0.62255 0.27444 0.0
O459 O 0.81727 0.65499 0.25797 0.0
O460 O 0.81162 0.61298 0.21842 0.0
C461 C 0.78659 0.5683 0.33177 0.0
Fe462 Fe 0.51095 0.14189 0.86471 0.0
Fe463 Fe 0.49274 0.08505 0.9317 0.0
O464 O 0.52049 0.12598 0.91272 0.0
Fe465 Fe 0.55771 0.15159 0.9434 0.0
O466 O 0.58324 0.15308 0.89633 0.0
O467 O 0.556 0.16629 0.8463 0.0
O468 O 0.50824 0.10922 0.82947 0.0
C469 C 0.48954 0.07847 0.83571 0.0
C470 C 0.53812 0.19841 0.91424 0.0
O471 O 0.47829 0.06702 0.87468 0.0
C472 C 0.51136 0.1253 1.00964 0.0
O473 O 0.46476 0.11988 0.87545 0.0
O474 O 0.45978 0.09376 0.93901 0.0
O475 O 0.5614 0.19265 0.92574 0.0
O476 O 0.51223 0.17554 0.89655 0.0
C477 C 0.54805 0.08463 0.95406 0.0
O478 O 0.50139 0.0966 0.99222 0.0
O479 O 0.53331 0.15159 0.99067 0.0
C480 C 0.44891 0.1066 0.91177 0.0
O481 O 0.52462 0.07382 0.92616 0.0
O482 O 0.56068 0.11501 0.96764 0.0
C483 C 0.58164 0.16409 0.85791 0.0
Fe484 Fe 0.9287 0.42142 0.93829 0.0
Fe485 Fe 0.93957 0.38363 0.86172 0.0
O486 O 0.95422 0.40853 0.91064 0.0
Fe487 Fe 0.99378 0.41952 0.93317 0.0
O488 O 1.00807 0.46352 0.92791 0.0
O489 O 0.96521 0.46059 0.9631 0.0
O490 O 0.92932 0.44553 0.8901 0.0
C491 C 0.91839 0.43262 0.85185 0.0
C492 C 0.95138 0.40133 1.00906 0.0
O493 O 0.91613 0.40466 0.84102 0.0
C494 C 0.97076 0.35411 0.91199 0.0
O495 O 0.88778 0.38427 0.9195 0.0
O496 O 0.90443 0.35134 0.8914 0.0
O497 O 0.98072 0.41732 0.99266 0.0
O498 O 0.92642 0.39748 0.98698 0.0
C499 C 1.00425 0.42496 0.83809 0.0
O500 O 0.96049 0.3586 0.87418 0.0
O501 O 0.98193 0.37681 0.94088 0.0
C502 C 0.88171 0.355 0.90832 0.0
O503 O 0.97398 0.41396 0.82905 0.0
O504 O 1.01332 0.42243 0.87763 0.0
C505 C 0.9964 0.47706 0.95293 0.0
Fe506 Fe 0.69458 0.56817 0.86419 0.0
Fe507 Fe 0.65813 0.58684 0.93395 0.0
O508 O 0.66991 0.55853 0.91297 0.0
Fe509 Fe 0.65792 0.5208 0.94227 0.0
O510 O 0.63324 0.49608 0.89502 0.0
O511 O 0.67364 0.52325 0.84507 0.0
O512 O 0.66405 0.57118 0.83074 0.0
C513 C 0.65333 0.59084 0.83809 0.0
C514 C 0.72402 0.54025 0.91148 0.0
O515 O 0.65435 0.60221 0.87751 0.0
C516 C 0.6795 0.56607 1.00997 0.0
O517 O 0.71914 0.61438 0.87522 0.0
O518 O 0.70046 0.619 0.94092 0.0
O519 O 0.69494 0.51698 0.92315 0.0
O520 O 0.72723 0.56644 0.8946 0.0
C521 C 0.60155 0.53173 0.95586 0.0
O522 O 0.66132 0.57714 0.99389 0.0
O523 O 0.68293 0.5441 0.98963 0.0
C524 C 0.72326 0.62999 0.91228 0.0
O525 O 0.61452 0.55591 0.92912 0.0
O526 O 0.61877 0.51812 0.96776 0.0
C527 C 0.64582 0.49759 0.85665 0.0
Fe528 Fe 0.60492 0.90125 0.6908 0.0
Fe529 Fe 0.65841 0.92225 0.76373 0.0
O530 O 0.61921 0.89259 0.74128 0.0
Fe531 Fe 0.59367 0.85495 0.7707 0.0
O532 O 0.59438 0.83004 0.72424 0.0
O533 O 0.58156 0.8563 0.67255 0.0
O534 O 0.6397 0.90457 0.65969 0.0
C535 C 0.66979 0.92492 0.66867 0.0
C536 C 0.54705 0.87371 0.73801 0.0
O537 O 0.67833 0.93766 0.70787 0.0
C538 C 0.61525 0.90096 0.83823 0.0
O539 O 0.62574 0.94745 0.70069 0.0
O540 O 0.64581 0.95277 0.76867 0.0
O541 O 0.55282 0.85064 0.75086 0.0
O542 O 0.56953 0.89911 0.71875 0.0
C543 C 0.66162 0.86821 0.78715 0.0
O544 O 0.64486 0.91275 0.82333 0.0
O545 O 0.59092 0.87791 0.81741 0.0
C546 C 0.6345 0.96289 0.73821 0.0
O547 O 0.67328 0.89294 0.76125 0.0
O548 O 0.63034 0.85339 0.79711 0.0
C549 C 0.58359 0.83093 0.68543 0.0
Fe550 Fe 0.178 0.72101 0.69467 0.0
Fe551 Fe 0.15987 0.75846 0.76389 0.0
O552 O 0.18818 0.74673 0.74259 0.0
Fe553 Fe 0.2266 0.7598 0.77078 0.0
O554 O 0.25011 0.78399 0.72267 0.0
O555 O 0.22259 0.74246 0.67414 0.0
O556 O 0.17356 0.75029 0.66042 0.0
C557 C 0.15424 0.76141 0.66788 0.0
C558 C 0.20766 0.69337 0.74196 0.0
O559 O 0.14379 0.76148 0.70756 0.0
C560 C 0.18218 0.73818 0.83972 0.0
O561 O 0.13215 0.6958 0.70732 0.0
O562 O 0.12798 0.71618 0.7719 0.0
O563 O 0.2309 0.7229 0.75209 0.0
O564 O 0.181 0.68942 0.72587 0.0
C565 C 0.21491 0.81554 0.78464 0.0
O566 O 0.17031 0.75574 0.82375 0.0
O567 O 0.20444 0.73553 0.81876 0.0
C568 C 0.11727 0.69238 0.74477 0.0
O569 O 0.19046 0.80219 0.75829 0.0
O570 O 0.22903 0.79878 0.79604 0.0
C571 C 0.248 0.7709 0.68449 0.0
Fe572 Fe 0.36023 0.4737 0.69541 0.0
Fe573 Fe 0.32574 0.41846 0.76539 0.0
O574 O 0.336 0.45823 0.74467 0.0
Fe575 Fe 0.32324 0.48313 0.77431 0.0
O576 O 0.29881 0.48351 0.72688 0.0
O577 O 0.33944 0.4978 0.67726 0.0
O578 O 0.32928 0.44 0.66232 0.0
C579 C 0.31896 0.40964 0.66981 0.0
C580 C 0.38951 0.53042 0.74443 0.0
O581 O 0.32239 0.40003 0.70863 0.0
C582 C 0.34459 0.45947 0.84282 0.0
O583 O 0.3852 0.45248 0.70507 0.0
O584 O 0.36871 0.43073 0.77186 0.0
O585 O 0.3604 0.52437 0.75646 0.0
O586 O 0.39284 0.50804 0.72575 0.0
C587 C 0.26799 0.41489 0.78733 0.0
O588 O 0.32841 0.43039 0.82552 0.0
O589 O 0.34754 0.48462 0.82222 0.0
C590 C 0.39087 0.44258 0.74232 0.0
O591 O 0.28167 0.40388 0.76139 0.0
O592 O 0.28422 0.44596 0.79857 0.0
C593 C 0.31163 0.49539 0.6889 0.0
Fe594 Fe 0.57956 0.92096 0.16029 0.0
Fe595 Fe 0.6023 0.97495 0.08876 0.0
O596 O 0.5723 0.9352 0.10889 0.0
Fe597 Fe 0.53617 0.90948 0.0769 0.0
O598 O 0.50889 0.90783 0.12196 0.0
O599 O 0.53433 0.89555 0.17529 0.0
O600 O 0.57957 0.9546 0.19038 0.0
C601 C 0.60074 0.98476 0.18364 0.0
C602 C 0.55619 0.86408 0.1118 0.0
O603 O 0.6155 0.99389 0.14575 0.0
C604 C 0.5835 0.93458 0.01122 0.0
O605 O 0.62607 0.94403 0.15445 0.0
O606 O 0.63307 0.96226 0.08556 0.0
O607 O 0.53315 0.869 0.09613 0.0
O608 O 0.58033 0.88685 0.13291 0.0
C609 C 0.54836 0.97743 0.0624 0.0
O610 O 0.59519 0.96334 0.02869 0.0
O611 O 0.56106 0.90891 0.03065 0.0
C612 C 0.64318 0.95293 0.11837 0.0
O613 O 0.57248 0.98916 0.0895 0.0
O614 O 0.53417 0.94626 0.05147 0.0
C615 C 0.50884 0.89658 0.16079 0.0
Fe616 Fe 0.15811 0.67663 0.15848 0.0
Fe617 Fe 0.10448 0.6463 0.08598 0.0
O618 O 0.14364 0.65491 0.10697 0.0
Fe619 Fe 0.16886 0.6436 0.07547 0.0
O620 O 0.16955 0.61782 0.12092 0.0
O621 O 0.18265 0.65606 0.17389 0.0
O622 O 0.12394 0.64371 0.1889 0.0
C623 C 0.09388 0.63438 0.18048 0.0
C624 C 0.21505 0.70895 0.10979 0.0
O625 O 0.08529 0.64064 0.14265 0.0
C626 C 0.14552 0.66751 1.00944 0.0
O627 O 0.136 0.70084 0.15224 0.0
O628 O 0.11843 0.69008 0.08307 0.0
O629 O 0.20964 0.68064 0.09478 0.0
O630 O 0.19269 0.71094 0.13093 0.0
C631 C 0.10053 0.58871 0.06052 0.0
O632 O 0.1165 0.65082 0.02616 0.0
O633 O 0.1705 0.66929 0.02899 0.0
C634 C 0.12786 0.70949 0.11594 0.0
O635 O 0.08897 0.60202 0.08626 0.0
O636 O 0.13175 0.60503 0.04991 0.0
C637 C 0.18093 0.62916 0.15969 0.0
Fe638 Fe 0.43797 0.54159 0.08199 0.0
Fe639 Fe 0.40401 0.49685 0.16363 0.0
O640 O 0.42603 0.50445 0.11244 0.0
Fe641 Fe 0.43466 0.474 0.09045 0.0
O642 O 0.47908 0.50282 0.09156 0.0
O643 O 0.47597 0.54259 0.05565 0.0
O644 O 0.4642 0.56749 0.12768 0.0
C645 C 0.45314 0.56732 0.16669 0.0
C646 C 0.41338 0.49508 0.01486 0.0
O647 O 0.42609 0.54203 0.18069 0.0
C648 C 0.37021 0.43475 0.11788 0.0
O649 O 0.4016 0.54622 0.10176 0.0
O650 O 0.37042 0.49874 0.13665 0.0
O651 O 0.43032 0.48266 0.0307 0.0
O652 O 0.41177 0.51793 0.03577 0.0
C653 C 0.44483 0.47285 0.18519 0.0
O654 O 0.37806 0.45058 0.15512 0.0
O655 O 0.39113 0.44395 0.08676 0.0
C656 C 0.37305 0.52355 0.1162 0.0
O657 O 0.43592 0.49383 0.19388 0.0
O658 O 0.43954 0.45923 0.14651 0.0
C659 C 0.49217 0.52745 0.06539 0.0
Fe660 Fe 0.16062 0.49928 0.66248 0.0
Fe661 Fe 0.10605 0.47625 0.59097 0.0
O662 O 0.14559 0.50669 0.61184 0.0
Fe663 Fe 0.1705 0.54369 0.58101 0.0
O664 O 0.17089 0.5698 0.62672 0.0
O665 O 0.18408 0.54456 0.67934 0.0
O666 O 0.12621 0.4967 0.69333 0.0
C667 C 0.09633 0.47496 0.68621 0.0
C668 C 0.21778 0.52572 0.61419 0.0
O669 O 0.0872 0.46136 0.6476 0.0
C670 C 0.14702 0.49732 0.514 0.0
O671 O 0.13996 0.45291 0.65411 0.0
O672 O 0.1193 0.44607 0.58622 0.0
O673 O 0.21176 0.54831 0.59986 0.0
O674 O 0.19563 0.50087 0.63462 0.0
C675 C 0.10211 0.52996 0.56699 0.0
O676 O 0.11799 0.48488 0.53096 0.0
O677 O 0.17212 0.51976 0.53451 0.0
C678 C 0.13133 0.43688 0.61698 0.0
O679 O 0.09087 0.50533 0.59319 0.0
O680 O 0.13319 0.54475 0.55587 0.0
C681 C 0.18206 0.56975 0.66556 0.0
Fe682 Fe 0.53659 0.64048 0.58197 0.0
Fe683 Fe 0.58263 0.67523 0.66229 0.0
O684 O 0.57425 0.65282 0.61135 0.0
Fe685 Fe 0.60441 0.6442 0.58864 0.0
O686 O 0.57576 0.5998 0.59026 0.0
O687 O 0.53531 0.60237 0.55544 0.0
O688 O 0.51165 0.6146 0.62832 0.0
C689 C 0.51244 0.62616 0.6672 0.0
C690 C 0.58247 0.66572 0.51423 0.0
O691 O 0.53775 0.65359 0.68022 0.0
C692 C 0.64438 0.70843 0.61571 0.0
O693 O 0.53231 0.67703 0.602 0.0
O694 O 0.58059 0.70869 0.6351 0.0
O695 O 0.59493 0.64847 0.52903 0.0
O696 O 0.55929 0.66638 0.53536 0.0
C697 C 0.60669 0.63449 0.68366 0.0
O698 O 0.62885 0.70078 0.65313 0.0
O699 O 0.6343 0.68766 0.58438 0.0
C700 C 0.5554 0.70583 0.61528 0.0
O701 O 0.58563 0.64328 0.69235 0.0
O702 O 0.6199 0.63958 0.64465 0.0
C703 C 0.55069 0.58637 0.56485 0.0
Fe704 Fe 0.4393 0.91131 0.57874 0.0
Fe705 Fe 0.40483 0.92597 0.65649 0.0
O706 O 0.42916 0.93864 0.60706 0.0
Fe707 Fe 0.44216 0.97828 0.58459 0.0
O708 O 0.48534 0.99008 0.59019 0.0
O709 O 0.47944 0.94655 0.55335 0.0
O710 O 0.46298 0.91046 0.62652 0.0
C711 C 0.4502 0.90028 0.66497 0.0
C712 C 0.42027 0.93581 0.50895 0.0
O713 O 0.42313 0.89977 0.67628 0.0
C714 C 0.3802 0.96284 0.60787 0.0
O715 O 0.40056 0.8719 0.59804 0.0
O716 O 0.37066 0.89202 0.62722 0.0
O717 O 0.43885 0.96496 0.52499 0.0
O718 O 0.4155 0.9103 0.53037 0.0
C719 C 0.44906 0.98962 0.67979 0.0
O720 O 0.38291 0.95066 0.64519 0.0
O721 O 0.40011 0.96762 0.57697 0.0
C722 C 0.37215 0.86814 0.60963 0.0
O723 O 0.43738 0.95921 0.68853 0.0
O724 O 0.44646 0.99868 0.64024 0.0
C725 C 0.49744 0.97765 0.56408 0.0
Fe726 Fe 0.22237 0.48464 0.27081 0.0
Fe727 Fe 0.17759 0.47506 0.18976 0.0
O728 O 0.18487 0.46014 0.24065 0.0
Fe729 Fe 0.15387 0.42135 0.26256 0.0
O730 O 0.18187 0.40483 0.26099 0.0
O731 O 0.22226 0.44722 0.29705 0.0
O732 O 0.24743 0.4833 0.2249 0.0
C733 C 0.24743 0.49449 0.18605 0.0
C734 C 0.17666 0.46357 0.3385 0.0
O735 O 0.22267 0.49733 0.17253 0.0
C736 C 0.11577 0.44794 0.23561 0.0
O737 O 0.22832 0.52604 0.2509 0.0
O738 O 0.18059 0.51086 0.21745 0.0
O739 O 0.16309 0.4342 0.32224 0.0
O740 O 0.19945 0.48795 0.31736 0.0
C741 C 0.1524 0.40999 0.16797 0.0
O742 O 0.13149 0.45558 0.19835 0.0
O743 O 0.12462 0.43583 0.26668 0.0
C744 C 0.2062 0.53281 0.23696 0.0
O745 O 0.17358 0.43983 0.15918 0.0
O746 O 0.1386 0.40188 0.2065 0.0
C747 C 0.20647 0.41591 0.28721 0.0
Fe748 Fe 0.59721 0.75721 0.2748 0.0
Fe749 Fe 0.60706 0.72132 0.19479 0.0
O750 O 0.62206 0.74455 0.24499 0.0
Fe751 Fe 0.66146 0.75386 0.26629 0.0
O752 O 0.67685 0.79809 0.26321 0.0
O753 O 0.6346 0.79609 0.29944 0.0
O754 O 0.59702 0.78213 0.2278 0.0
C755 C 0.58558 0.76991 0.18937 0.0
C756 C 0.62039 0.73532 0.34335 0.0
O757 O 0.58323 0.7423 0.17704 0.0
C758 C 0.63704 0.68936 0.24082 0.0
O759 O 0.55597 0.72012 0.25624 0.0
O760 O 0.57225 0.68816 0.22358 0.0
O761 O 0.64944 0.751 0.32622 0.0
O762 O 0.59536 0.73252 0.32257 0.0
C763 C 0.67144 0.76234 0.17121 0.0
O764 O 0.62815 0.69638 0.20376 0.0
O765 O 0.64814 0.71046 0.27181 0.0
C766 C 0.54988 0.6912 0.24282 0.0
O767 O 0.64132 0.75288 0.16316 0.0
O768 O 0.68036 0.75762 0.20981 0.0
C769 C 0.66576 0.81204 0.28855 0.0
Fe770 Fe 0.36072 0.90187 0.19461 0.0
Fe771 Fe 0.3277 0.92327 0.26593 0.0
O772 O 0.33637 0.89305 0.24363 0.0
Fe773 Fe 0.3221 0.85452 0.27174 0.0
O774 O 0.29707 0.83128 0.22371 0.0
O775 O 0.33842 0.85728 0.17494 0.0
O776 O 0.33093 0.90671 0.16217 0.0
C777 C 0.32204 0.92774 0.17039 0.0
C778 C 0.38765 0.87135 0.24137 0.0
O779 O 0.32487 0.93979 0.20985 0.0
C780 C 0.34649 0.89916 0.34094 0.0
O781 O 0.38699 0.94772 0.20559 0.0
O782 O 0.37109 0.95286 0.27278 0.0
O783 O 0.35804 0.84883 0.25257 0.0
O784 O 0.39228 0.89813 0.22465 0.0
C785 C 0.26874 0.86993 0.28662 0.0
O786 O 0.33018 0.91246 0.32543 0.0
O787 O 0.34722 0.87593 0.31976 0.0
C788 C 0.39323 0.96278 0.24328 0.0
O789 O 0.28331 0.89512 0.2617 0.0
O790 O 0.284 0.854 0.29709 0.0
C791 C 0.30991 0.83247 0.18563 0.0
C792 C 0.25408 0.13395 0.95436 0.0
C793 C 0.23775 0.13624 0.99293 0.0
C794 C 0.24519 0.10257 0.93516 0.0
C795 C 0.21942 0.07231 0.95344 0.0
H796 H 0.2757 0.15617 0.94134 0.0
H797 H 0.26083 0.10176 0.90859 0.0
S798 S 0.1665 0.06526 0.05108 0.0
N799 N 0.19257 0.10593 0.04609 0.0
N800 N 0.17587 0.04734 1.00988 0.0
C801 C 0.20099 0.0747 0.98938 0.0
C802 C 0.21025 0.10653 1.00925 0.0
C803 C 0.97814 0.15543 0.93207 0.0
C804 C 1.0088 0.161 0.95024 0.0
C805 C 0.94716 0.13296 0.95218 0.0
C806 C 0.94574 0.1155 0.9916 0.0
H807 H 0.9783 0.17119 0.90494 0.0
H808 H 0.92464 0.13176 0.93934 0.0
S809 S 1.01809 0.11793 0.04955 0.0
N810 N 1.03509 0.1443 1.0072 0.0
N811 N 0.97727 0.10257 0.04525 0.0
C812 C 0.97585 0.11857 1.00769 0.0
C813 C 1.00725 0.14105 0.98685 0.0
C814 C 0.92057 0.83565 0.92882 0.0
C815 C 0.91548 0.86135 0.94587 0.0
C816 C 0.94353 0.82778 0.94888 0.0
C817 C 0.96199 0.84505 0.98722 0.0
H818 H 0.90426 0.8193 0.90256 0.0
H819 H 0.94452 0.80613 0.93684 0.0
S820 S 0.96065 0.91647 0.04242 0.0
N821 N 0.93335 0.90586 1.00091 0.0
N822 N 0.97595 0.89095 0.03888 0.0
C823 C 0.95914 0.87245 1.00232 0.0
C824 C 0.93616 0.88073 0.9815 0.0
C825 C 0.08672 0.18611 0.53351 0.0
C826 C 0.08593 0.20381 0.57165 0.0
C827 C 0.11724 0.19398 0.5126 0.0
C828 C 0.14827 0.21938 0.52943 0.0
H829 H 0.06355 0.16887 0.51664 0.0
H830 H 0.11639 0.18183 0.48103 0.0
S831 S 0.16027 0.27036 0.63135 0.0
N832 N 0.11924 0.24594 0.62746 0.0
N833 N 0.17634 0.25979 0.58907 0.0
C834 C 0.14803 0.23489 0.56994 0.0
C835 C 0.11695 0.22726 0.59085 0.0
C836 C 0.88329 0.93416 0.50617 0.0
C837 C 0.86211 0.94438 0.52599 0.0
C838 C 0.89085 0.91163 0.52795 0.0
C839 C 0.87701 0.89775 0.57014 0.0
H840 H 0.89269 0.94228 0.47241 0.0
H841 H 0.90491 0.90245 0.50958 0.0
S842 S 0.82218 0.91823 0.63794 0.0
N843 N 0.82989 0.94116 0.59208 0.0
N844 N 0.84274 0.89769 0.63202 0.0
C845 C 0.85754 0.90943 0.59149 0.0
C846 C 0.85045 0.933 0.56972 0.0
C847 C 0.15184 0.93374 0.56535 0.0
C848 C 0.13423 0.93224 0.526 0.0
C849 C 0.17478 0.9648 0.58508 0.0
C850 C 0.1805 0.99548 0.56681 0.0
H851 H 0.1501 0.91108 0.57868 0.0
H852 H 0.19045 0.96495 0.61234 0.0
S853 S 0.13758 1.00471 0.46719 0.0
N854 N 0.12178 0.96385 0.47189 0.0
N855 N 0.16419 1.02177 0.50938 0.0
C856 C 0.1607 0.99393 0.52997 0.0
C857 C 0.13785 0.96246 0.5094 0.0
C858 C 0.89015 0.99533 0.02517 0.0
C859 C 0.87476 0.99507 0.06621 0.0
C860 C 0.88257 0.96531 1.00288 0.0
C861 C 0.85985 0.93371 0.02109 0.0
H862 H 0.90573 1.01886 1.00805 0.0
H863 H 0.89334 0.96687 0.96998 0.0
S864 S 0.81466 0.91907 0.12917 0.0
N865 N 0.83675 0.96029 0.12492 0.0
N866 N 0.82389 0.90416 0.08425 0.0
C867 C 0.84627 0.93308 0.06364 0.0
C868 C 0.85336 0.96364 0.08582 0.0
C869 C 0.11687 0.93852 1.0083 0.0
C870 C 0.14746 0.94465 0.0272 0.0
C871 C 0.08592 0.91622 0.02849 0.0
C872 C 0.08428 0.89861 0.06793 0.0
H873 H 0.11678 0.94954 0.97618 0.0
H874 H 0.06313 0.91008 0.01048 0.0
S875 S 0.15714 0.90753 0.13249 0.0
N876 N 0.17418 0.9335 0.08971 0.0
N877 N 0.11621 0.89062 0.12657 0.0
C878 C 0.11479 0.90634 0.08872 0.0
C879 C 0.14631 0.92954 0.06863 0.0
C880 C 0.16595 0.18578 0.02674 0.0
C881 C 0.18009 0.19923 0.06903 0.0
C882 C 0.14419 0.19448 1.00508 0.0
C883 C 0.13501 0.2164 0.02519 0.0
H884 H 0.17465 0.17143 1.00804 0.0
H885 H 0.13599 0.18548 0.97116 0.0
S886 S 0.16197 0.25547 0.13767 0.0
N887 N 0.18126 0.23371 0.13145 0.0
N888 N 0.13919 0.24865 0.09178 0.0
C889 C 0.14637 0.22744 0.06916 0.0
C890 C 0.16911 0.21916 0.09081 0.0
C891 C 1.00795 0.87801 0.49529 0.0
C892 C 1.00907 0.86335 0.45423 0.0
C893 C 0.97729 0.86868 0.51687 0.0
C894 C 0.94639 0.84481 0.49791 0.0
H895 H 1.03099 0.894 0.5133 0.0
H896 H 0.97789 0.87873 0.55003 0.0
S897 S 0.93523 0.80142 0.38897 0.0
N898 N 0.97624 0.82532 0.3942 0.0
N899 N 0.91883 0.80898 0.43375 0.0
C900 C 0.94698 0.83225 0.45507 0.0
C901 C 0.97823 0.84127 0.43349 0.0
C902 C 0.21202 0.13027 0.5143 0.0
C903 C 0.23513 0.12246 0.4949 0.0
C904 C 0.20297 0.15174 0.49268 0.0
C905 C 0.21724 0.16685 0.45121 0.0
H906 H 0.20222 0.12113 0.54763 0.0
H907 H 0.18743 0.15927 0.51076 0.0
S908 S 0.27709 0.15275 0.38486 0.0
N909 N 0.26974 0.12919 0.43 0.0
N910 N 0.25407 0.17075 0.39042 0.0
C911 C 0.23865 0.15746 0.43019 0.0
C912 C 0.24728 0.135 0.45175 0.0
C913 C 0.94612 0.13504 0.45198 0.0
C914 C 0.96465 0.13768 0.49085 0.0
C915 C 0.92366 0.10349 0.43305 0.0
C916 C 0.91909 0.07336 0.45189 0.0
H917 H 0.94673 0.15714 0.43849 0.0
H918 H 0.90727 0.10245 0.4062 0.0
S919 S 0.96464 0.06717 0.55064 0.0
N920 N 0.97928 0.10779 0.54499 0.0
N921 N 0.93748 0.04891 0.5093 0.0
C922 C 0.93981 0.07609 0.4882 0.0
C923 C 0.96234 0.1081 0.50779 0.0
C924 C 0.88253 0.43598 0.35421 0.0
C925 C 0.90201 0.4662 0.33064 0.0
C926 C 0.87203 0.40461 0.3341 0.0
C927 C 0.88114 0.40198 0.28976 0.0
H928 H 0.87699 0.43661 0.38949 0.0
H929 H 0.86002 0.3825 0.35515 0.0
S930 S 0.92756 0.47291 0.21119 0.0
N931 N 0.92587 0.49107 0.25831 0.0
N932 N 0.90774 0.43226 0.2214 0.0
C933 C 0.89806 0.4318 0.26463 0.0
C934 C 0.90812 0.46383 0.28481 0.0
C935 C 0.67863 0.48642 0.33507 0.0
C936 C 0.67978 0.49707 0.29041 0.0
C937 C 0.64804 0.4648 0.35634 0.0
C938 C 0.61725 0.45232 0.33362 0.0
H939 H 0.70126 0.49756 0.35522 0.0
H940 H 0.6484 0.45922 0.39166 0.0
S941 S 0.60664 0.46885 0.21462 0.0
N942 N 0.64749 0.49115 0.22313 0.0
N943 N 0.59016 0.44928 0.26244 0.0
C944 C 0.61821 0.46018 0.28779 0.0
C945 C 0.64939 0.48286 0.26639 0.0
C946 C 0.60168 0.20872 0.32374 0.0
C947 C 0.58334 0.19124 0.28533 0.0
C948 C 0.62453 0.20106 0.34452 0.0
C949 C 0.63053 0.17604 0.32735 0.0
H950 H 0.59579 0.22596 0.34058 0.0
H951 H 0.63605 0.21337 0.37595 0.0
S952 S 0.59108 0.12477 0.22566 0.0
N953 N 0.57423 0.14893 0.22977 0.0
N954 N 0.618 0.13559 0.26771 0.0
C955 C 0.61446 0.16032 0.28701 0.0
C956 C 0.59073 0.16767 0.26632 0.0
C957 C 0.81469 0.56525 0.90104 0.0
C958 C 0.81492 0.55067 0.85956 0.0
C959 C 0.78426 0.55797 0.92189 0.0
C960 C 0.75291 0.53514 0.90279 0.0
H961 H 0.83802 0.58449 0.9155 0.0
H962 H 0.78528 0.57251 0.95111 0.0
S963 S 0.74008 0.48713 0.79749 0.0
N964 N 0.7812 0.51017 0.80226 0.0
N965 N 0.72448 0.49587 0.84207 0.0
C966 C 0.75305 0.5182 0.86355 0.0
C967 C 0.78389 0.52618 0.84175 0.0
C968 C 0.55781 0.24828 0.86535 0.0
C969 C 0.5431 0.23246 0.90632 0.0
C970 C 0.54936 0.27048 0.84448 0.0
C971 C 0.52635 0.27839 0.86408 0.0
H972 H 0.57317 0.24071 0.84689 0.0
H973 H 0.55936 0.27995 0.81134 0.0
S974 S 0.48378 0.24696 0.97345 0.0
N975 N 0.50628 0.22845 0.96721 0.0
N976 N 0.49163 0.27119 0.92894 0.0
C977 C 0.51389 0.26526 0.90689 0.0
C978 C 0.52196 0.24209 0.92773 0.0
C979 C 0.80724 0.29535 0.84055 0.0
C980 C 0.8 0.26408 0.85825 0.0
C981 C 0.83025 0.32569 0.86167 0.0
C982 C 0.84752 0.32603 0.9009 0.0
H983 H 0.79661 0.29643 0.80852 0.0
H984 H 0.83721 0.34898 0.84449 0.0
S985 S 0.83583 0.25103 0.96256 0.0
N986 N 0.80981 0.2354 0.91948 0.0
N987 N 0.85395 0.29217 0.9581 0.0
C988 C 0.83868 0.29487 0.92056 0.0
C989 C 0.81476 0.26399 0.89952 0.0
C990 C 0.55281 0.29512 0.3397 0.0
C991 C 0.52905 0.26393 0.35788 0.0
C992 C 0.56081 0.3255 0.36119 0.0
C993 C 0.54485 0.32603 0.40131 0.0
H994 H 0.56389 0.29612 0.30721 0.0
H995 H 0.57691 0.34874 0.34373 0.0
S996 S 0.48234 0.25124 0.46418 0.0
N997 N 0.49174 0.23548 0.42034 0.0
N998 N 0.50549 0.29238 0.45951 0.0
C999 C 0.52269 0.29495 0.42124 0.0
C1000 C 0.51508 0.26398 0.39985 0.0
C1001 C 0.75814 0.25177 0.37018 0.0
C1002 C 0.75676 0.23129 0.40615 0.0
C1003 C 0.78892 0.27506 0.35033 0.0
C1004 C 0.81963 0.27924 0.36605 0.0
H1005 H 0.73516 0.24726 0.35413 0.0
H1006 H 0.78851 0.28821 0.32038 0.0
S1007 S 0.8301 0.23412 0.46188 0.0
N1008 N 0.78921 0.21855 0.45848 0.0
N1009 N 0.84679 0.26284 0.42207 0.0
C1010 C 0.81883 0.26105 0.4043 0.0
C1011 C 0.7875 0.23704 0.42413 0.0
C1012 C 0.80855 0.5291 0.34515 0.0
C1013 C 0.80385 0.55528 0.36096 0.0
C1014 C 0.83181 0.5218 0.36546 0.0
C1015 C 0.85178 0.5408 0.40195 0.0
H1016 H 0.79577 0.5156 0.31492 0.0
H1017 H 0.83668 0.50356 0.34947 0.0
S1018 S 0.84769 0.61061 0.4578 0.0
N1019 N 0.81929 0.59846 0.41747 0.0
N1020 N 0.86369 0.58567 0.45457 0.0
C1021 C 0.84563 0.56552 0.41985 0.0
C1022 C 0.82156 0.57257 0.39963 0.0
C1023 C 0.64237 0.16745 0.7687 0.0
C1024 C 0.67383 0.19217 0.78547 0.0
C1025 C 0.61209 0.16061 0.78961 0.0
C1026 C 0.61209 0.17771 0.82882 0.0
H1027 H 0.64127 0.1513 0.74148 0.0
H1028 H 0.5888 0.13988 0.77727 0.0
S1029 S 0.68717 0.24631 0.8845 0.0
N1030 N 0.70251 0.23543 0.8417 0.0
N1031 N 0.64607 0.22213 0.88153 0.0
C1032 C 0.64314 0.20388 0.84416 0.0
C1033 C 0.67384 0.21128 0.82233 0.0
C1034 C 0.86874 0.47503 0.82043 0.0
C1035 C 0.88673 0.49525 0.78364 0.0
C1036 C 0.87728 0.45242 0.83997 0.0
C1037 C 0.90376 0.44863 0.8231 0.0
H1038 H 0.85047 0.47937 0.83736 0.0
H1039 H 0.86463 0.43957 0.87055 0.0
S1040 S 0.95657 0.49315 0.7248 0.0
N1041 N 0.93085 0.50813 0.72943 0.0
N1042 N 0.94591 0.46493 0.76506 0.0
C1043 C 0.9199 0.4664 0.784 0.0
C1044 C 0.91157 0.48978 0.76453 0.0
C1045 C 0.61222 0.46526 0.78905 0.0
C1046 C 0.62968 0.46661 0.82848 0.0
C1047 C 0.58899 0.43428 0.76943 0.0
C1048 C 0.58272 0.40347 0.78797 0.0
H1049 H 0.61422 0.48802 0.77566 0.0
H1050 H 0.57344 0.43432 0.74213 0.0
S1051 S 0.62529 0.39379 0.88765 0.0
N1052 N 0.64161 0.43471 0.88274 0.0
N1053 N 0.59857 0.37689 0.84553 0.0
C1054 C 0.60247 0.40483 0.82477 0.0
C1055 C 0.62567 0.43626 0.84518 0.0
C1056 C 0.54321 0.76954 0.67608 0.0
C1057 C 0.56908 0.7997 0.65799 0.0
C1058 C 0.53442 0.73824 0.65686 0.0
C1059 C 0.55159 0.73582 0.61923 0.0
H1060 H 0.53119 0.77002 0.70714 0.0
H1061 H 0.5167 0.71573 0.67454 0.0
S1062 S 0.61954 0.80737 0.55728 0.0
N1063 N 0.60964 0.82524 0.598 0.0
N1064 N 0.59424 0.76662 0.56306 0.0
C1065 C 0.57577 0.76596 0.599 0.0
C1066 C 0.5843 0.79783 0.61811 0.0
C1067 C 0.30859 0.79053 0.66969 0.0
C1068 C 0.27813 0.78751 0.65498 0.0
C1069 C 0.33946 0.81359 0.64981 0.0
C1070 C 0.34114 0.83499 0.61492 0.0
H1071 H 0.30879 0.77661 0.69891 0.0
H1072 H 0.36235 0.8171 0.66499 0.0
S1073 S 0.26844 0.83534 0.56207 0.0
N1074 N 0.25147 0.80601 0.60106 0.0
N1075 N 0.3092 0.84986 0.56462 0.0
C1076 C 0.31059 0.83047 0.59796 0.0
C1077 C 0.27919 0.80668 0.61777 0.0
C1078 C 0.25805 0.50592 0.60029 0.0
C1079 C 0.25177 0.53019 0.61978 0.0
C1080 C 0.28003 0.49678 0.62049 0.0
C1081 C 0.29609 0.51112 0.66146 0.0
H1082 H 0.24328 0.49148 0.5717 0.0
H1083 H 0.28211 0.47633 0.60606 0.0
S1084 S 0.29132 0.57829 0.7237 0.0
N1085 N 0.26635 0.57059 0.68001 0.0
N1086 N 0.30694 0.55315 0.7183 0.0
C1087 C 0.29218 0.53723 0.67928 0.0
C1088 C 0.27035 0.54693 0.65827 0.0
C1089 C 0.44683 0.88629 0.25257 0.0
C1090 C 0.41551 0.86483 0.23238 0.0
C1091 C 0.47721 0.89434 0.23101 0.0
C1092 C 0.47739 0.88198 0.18779 0.0
H1093 H 0.44791 0.89948 0.28326 0.0
H1094 H 0.50057 0.91259 0.24653 0.0
S1095 S 0.40258 0.82148 0.12295 0.0
N1096 N 0.38701 0.82834 0.16911 0.0
N1097 N 0.4437 0.84416 0.12803 0.0
C1098 C 0.4464 0.85845 0.16895 0.0
C1099 C 0.41559 0.8496 0.19145 0.0
C1100 C 0.18211 0.59845 0.22884 0.0
C1101 C 0.19545 0.61233 0.18656 0.0
C1102 C 0.19013 0.57593 0.24974 0.0
C1103 C 0.21242 0.56719 0.22971 0.0
H1104 H 0.16317 0.60265 0.24393 0.0
H1105 H 0.17628 0.56274 0.27951 0.0
S1106 S 0.25812 0.60112 0.12274 0.0
N1107 N 0.23489 0.61889 0.12798 0.0
N1108 N 0.25052 0.57746 0.1678 0.0
C1109 C 0.22852 0.58379 0.18987 0.0
C1110 C 0.21979 0.60602 0.16806 0.0
C1111 C 0.50819 0.63108 0.25542 0.0
C1112 C 0.51574 0.66199 0.23587 0.0
C1113 C 0.48556 0.60015 0.23503 0.0
C1114 C 0.47027 0.59896 0.19359 0.0
H1115 H 0.52224 0.63086 0.2845 0.0
H1116 H 0.48226 0.57725 0.24982 0.0
S1117 S 0.47858 0.67219 0.1308 0.0
N1118 N 0.50322 0.68885 0.17496 0.0
N1119 N 0.46165 0.63122 0.13611 0.0
C1120 C 0.47566 0.62947 0.17547 0.0
C1121 C 0.49803 0.6608 0.19678 0.0
C1122 C 0.22704 0.66309 0.69256 0.0
C1123 C 0.21291 0.66448 0.73392 0.0
C1124 C 0.21859 0.63223 0.67211 0.0
C1125 C 0.19618 0.60138 0.6925 0.0
H1126 H 0.24192 0.68588 0.67358 0.0
H1127 H 0.2282 0.63251 0.63878 0.0
S1128 S 0.15474 0.59104 0.80272 0.0
N1129 N 0.1769 0.63205 0.79568 0.0
N1130 N 0.16234 0.57434 0.75829 0.0
C1131 C 0.18419 0.6024 0.73556 0.0
C1132 C 0.19224 0.63383 0.75597 0.0
C1133 C 0.45059 0.60271 0.67613 0.0
C1134 C 0.48136 0.60933 0.69491 0.0
C1135 C 0.41988 0.58105 0.69731 0.0
C1136 C 0.41863 0.5645 0.73766 0.0
H1137 H 0.45015 0.61282 0.64343 0.0
H1138 H 0.39691 0.57433 0.67938 0.0
S1139 S 0.49217 0.57531 0.80235 0.0
N1140 N 0.50875 0.60007 0.75832 0.0
N1141 N 0.45119 0.55823 0.79701 0.0
C1142 C 0.44936 0.57289 0.75833 0.0
C1143 C 0.48066 0.59549 0.73721 0.0
C1144 C 0.50765 0.89479 0.75142 0.0
C1145 C 0.51306 0.86951 0.7335 0.0
C1146 C 0.48422 0.90235 0.73224 0.0
C1147 C 0.46564 0.88524 0.69391 0.0
H1148 H 0.52403 0.91109 0.77766 0.0
H1149 H 0.48304 0.92377 0.74483 0.0
S1150 S 0.46757 0.81468 0.63691 0.0
N1151 N 0.49526 0.82537 0.67792 0.0
N1152 N 0.45182 0.83977 0.64149 0.0
C1153 C 0.46878 0.85816 0.67804 0.0
C1154 C 0.49222 0.85017 0.69801 0.0
C1155 C 0.30921 0.53406 0.17905 0.0
C1156 C 0.27912 0.50903 0.1596 0.0
C1157 C 0.34059 0.54336 0.1598 0.0
C1158 C 0.34323 0.5276 0.12069 0.0
H1159 H 0.30858 0.54509 0.21095 0.0
H1160 H 0.36299 0.56033 0.17837 0.0
S1161 S 0.27197 0.46234 0.05493 0.0
N1162 N 0.2539 0.4708 0.09691 0.0
N1163 N 0.31271 0.48722 0.06174 0.0
C1164 C 0.31319 0.5043 0.09926 0.0
C1165 C 0.28121 0.49522 0.11846 0.0
C1166 C 0.58653 0.80292 0.12143 0.0
C1167 C 0.57089 0.78617 0.16144 0.0
C1168 C 0.5778 0.82495 0.10053 0.0
C1169 C 0.5526 0.83051 0.11822 0.0
H1170 H 0.6075 0.80119 0.10832 0.0
H1171 H 0.59303 0.84014 0.07278 0.0
S1172 S 0.50115 0.78909 0.21893 0.0
N1173 N 0.52685 0.77402 0.21543 0.0
N1174 N 0.51009 0.81467 0.17571 0.0
C1175 C 0.53474 0.81138 0.15573 0.0
C1176 C 0.54405 0.78952 0.17752 0.0
C1177 C 0.27618 0.80044 0.11814 0.0
C1178 C 0.29384 0.80171 0.1573 0.0
C1179 C 0.25386 0.76956 0.0976 0.0
C1180 C 0.24878 0.73889 0.11499 0.0
H1181 H 0.2774 0.82306 0.10559 0.0
H1182 H 0.23799 0.76943 0.07063 0.0
S1183 S 0.29262 0.72937 0.21331 0.0
N1184 N 0.30748 0.77016 0.20993 0.0
N1185 N 0.26609 0.71248 0.171 0.0
C1186 C 0.26885 0.74034 0.15145 0.0
C1187 C 0.29111 0.77164 0.17279 0.0
C1188 C 0.35166 0.18473 0.19064 0.0
C1189 C 0.35813 0.19939 0.14763 0.0
C1190 C 0.37742 0.18554 0.21743 0.0
C1191 C 0.41125 0.20106 0.20292 0.0
H1192 H 0.32659 0.17322 0.20436 0.0
H1193 H 0.37055 0.17359 0.25009 0.0
S1194 S 0.44185 0.24262 0.09233 0.0
N1195 N 0.40139 0.22956 0.0914 0.0
N1196 N 0.44918 0.23103 0.14157 0.0
C1197 C 0.41805 0.2157 0.15986 0.0
C1198 C 0.39179 0.2148 0.13244 0.0
C1199 C 0.89816 0.18255 0.19485 0.0
C1200 C 0.89115 0.1799 0.1484 0.0
C1201 C 0.89468 0.20573 0.22238 0.0
C1202 C 0.88345 0.22704 0.20515 0.0
H1203 H 0.90543 0.16595 0.21042 0.0
H1204 H 0.90091 0.20698 0.25773 0.0
S1205 S 0.86407 0.23193 0.08516 0.0
N1206 N 0.87415 0.2023 0.08612 0.0
N1207 N 0.86726 0.24492 0.13765 0.0
C1208 C 0.87681 0.22492 0.15871 0.0
C1209 C 0.8808 0.20175 0.13057 0.0
C1210 C 0.87674 0.70308 0.21729 0.0
C1211 C 0.85654 0.67007 0.20048 0.0
C1212 C 0.89903 0.72999 0.18962 0.0
C1213 C 0.90218 0.72543 0.14345 0.0
H1214 H 0.87523 0.7083 0.25248 0.0
H1215 H 0.91471 0.75427 0.20494 0.0
S1216 S 0.85433 0.64479 0.08142 0.0
N1217 N 0.84091 0.6351 0.13373 0.0
N1218 N 0.88225 0.68515 0.08188 0.0
C1219 C 0.88179 0.69268 0.12601 0.0
C1220 C 0.85931 0.66525 0.1543 0.0
C1221 C 0.19775 0.35767 0.29866 0.0
C1222 C 0.20876 0.3902 0.31584 0.0
C1223 C 0.19519 0.33143 0.32606 0.0
C1224 C 0.20302 0.33624 0.37227 0.0
H1225 H 0.19106 0.35241 0.26345 0.0
H1226 H 0.18804 0.30752 0.31055 0.0
S1227 S 0.2294 0.41528 0.43548 0.0
N1228 N 0.22521 0.42464 0.38318 0.0
N1229 N 0.2202 0.3758 0.43445 0.0
C1230 C 0.21304 0.36836 0.39013 0.0
C1231 C 0.21601 0.39512 0.36214 0.0
C1232 C 0.68637 0.84854 0.35882 0.0
C1233 C 0.69186 0.84229 0.31417 0.0
C1234 C 0.71245 0.87342 0.38542 0.0
C1235 C 0.74559 0.89337 0.36905 0.0
H1236 H 0.66191 0.8335 0.37389 0.0
H1237 H 0.70646 0.87714 0.41939 0.0
S1238 S 0.77318 0.88844 0.25345 0.0
N1239 N 0.73322 0.8593 0.25429 0.0
N1240 N 0.78162 0.90555 0.30405 0.0
C1241 C 0.75135 0.88755 0.32434 0.0
C1242 C 0.72478 0.86234 0.29712 0.0
C1243 C 0.23216 0.85393 0.35671 0.0
C1244 C 0.23879 0.86629 0.31237 0.0
C1245 C 0.20747 0.85526 0.38343 0.0
C1246 C 0.18804 0.86914 0.36752 0.0
H1247 H 0.24671 0.84385 0.37142 0.0
H1248 H 0.20343 0.84502 0.41711 0.0
S1249 S 0.19408 0.90346 0.25284 0.0
N1250 N 0.22274 0.89205 0.2533 0.0
N1251 N 0.17675 0.89433 0.30323 0.0
C1252 C 0.19425 0.88137 0.32313 0.0
C1253 C 0.21932 0.87993 0.2958 0.0
C1254 C 0.746 0.87802 0.82423 0.0
C1255 C 0.7411 0.86833 0.86979 0.0
C1256 C 0.71976 0.87627 0.79752 0.0
C1257 C 0.68707 0.86445 0.81469 0.0
H1258 H 0.77011 0.88635 0.80867 0.0
H1259 H 0.72526 0.88452 0.76289 0.0
S1260 S 0.66121 0.83783 0.93265 0.0
N1261 N 0.70086 0.84766 0.93128 0.0
N1262 N 0.65215 0.84433 0.88125 0.0
C1263 C 0.68191 0.85492 0.86024 0.0
C1264 C 0.70865 0.85694 0.88758 0.0
C1265 C 0.22724 0.84844 0.85779 0.0
C1266 C 0.2183 0.84475 0.81194 0.0
C1267 C 0.22511 0.87229 0.88545 0.0
C1268 C 0.21362 0.89359 0.86897 0.0
H1269 H 0.23516 0.83218 0.87285 0.0
H1270 H 0.23274 0.87418 0.92029 0.0
S1271 S 0.18941 0.89593 0.7505 0.0
N1272 N 0.1989 0.86588 0.75091 0.0
N1273 N 0.19501 0.91026 0.80258 0.0
C1274 C 0.20499 0.89042 0.82306 0.0
C1275 C 0.20735 0.86629 0.79481 0.0
C1276 C 0.20747 0.36908 0.88522 0.0
C1277 C 0.18773 0.3357 0.86956 0.0
C1278 C 0.23205 0.39491 0.85808 0.0
C1279 C 0.23814 0.38888 0.81357 0.0
H1280 H 0.20383 0.37547 0.919 0.0
H1281 H 0.24695 0.41962 0.8726 0.0
S1282 S 0.19224 0.30668 0.75461 0.0
N1283 N 0.1755 0.29882 0.80535 0.0
N1284 N 0.22109 0.34675 0.75461 0.0
C1285 C 0.21824 0.35571 0.79723 0.0
C1286 C 0.19338 0.32941 0.825 0.0
C1287 C 0.87242 0.69165 0.63458 0.0
C1288 C 0.88453 0.72442 0.65191 0.0
C1289 C 0.87061 0.66524 0.66101 0.0
C1290 C 0.88063 0.67003 0.70646 0.0
H1291 H 0.86406 0.68621 0.59995 0.0
H1292 H 0.86216 0.64114 0.64526 0.0
S1293 S 0.91219 0.75001 0.76979 0.0
N1294 N 0.90537 0.75922 0.71865 0.0
N1295 N 0.90199 0.71025 0.76807 0.0
C1296 C 0.89228 0.70252 0.72445 0.0
C1297 C 0.8943 0.72942 0.69743 0.0
C1298 C 0.34839 0.18034 0.69541 0.0
C1299 C 0.35397 0.17552 0.65014 0.0
C1300 C 0.37447 0.20434 0.72295 0.0
C1301 C 0.40763 0.22461 0.70693 0.0
H1302 H 0.32391 0.16481 0.71017 0.0
H1303 H 0.3685 0.20709 0.75735 0.0
S1304 S 0.43529 0.22355 0.58997 0.0
N1305 N 0.39531 0.19447 0.59007 0.0
N1306 N 0.44371 0.2389 0.64156 0.0
C1307 C 0.41342 0.22028 0.66158 0.0
C1308 C 0.38686 0.19609 0.63343 0.0
C1309 C 0.90044 0.18941 0.68892 0.0
C1310 C 0.90596 0.20087 0.64413 0.0
C1311 C 0.87617 0.19091 0.71634 0.0
C1312 C 0.85597 0.20397 0.70068 0.0
H1313 H 0.91563 0.17999 0.70347 0.0
H1314 H 0.87312 0.18146 0.75038 0.0
S1315 S 0.8592 0.23598 0.58516 0.0
N1316 N 0.88824 0.2251 0.58503 0.0
N1317 N 0.84287 0.22756 0.63616 0.0
C1318 C 0.86106 0.21528 0.65582 0.0
C1319 C 0.8858 0.21376 0.62782 0.0
C1320 C 0.05684 0.54408 0.46803 0.0
C1321 C 1.0237 0.53152 0.4838 0.0
C1322 C 0.08243 0.54514 0.49545 0.0
C1323 C 0.07636 0.53385 0.54032 0.0
H1324 H 0.06324 0.55347 0.43396 0.0
H1325 H 0.10697 0.55417 0.4809 0.0
S1326 S 0.99472 0.50045 0.59961 0.0
N1327 N 0.98698 0.50874 0.54845 0.0
N1328 N 1.03448 0.51062 0.59968 0.0
C1329 C 1.04341 0.52156 0.55673 0.0
C1330 C 1.01734 0.52035 0.52871 0.0
C1331 C 0.55955 0.53674 0.55448 0.0
C1332 C 0.54645 0.55667 0.53786 0.0
C1333 C 0.56059 0.5117 0.5281 0.0
C1334 C 0.54886 0.50537 0.48341 0.0
H1335 H 0.56933 0.54062 0.58844 0.0
H1336 H 0.56995 0.49668 0.5433 0.0
S1337 S 0.51419 0.55171 0.42208 0.0
N1338 N 0.52279 0.56884 0.47265 0.0
N1339 N 0.52481 0.52248 0.42321 0.0
C1340 C 0.53616 0.52549 0.46613 0.0
C1341 C 0.53487 0.55076 0.49316 0.0
C1342 C 0.57138 0.06185 0.52655 0.0
C1343 C 0.57416 0.05778 0.48013 0.0
C1344 C 0.54806 0.03512 0.55359 0.0
C1345 C 0.52617 1.00284 0.53577 0.0
H1346 H 0.58787 0.08567 0.54243 0.0
H1347 H 0.54683 0.04 0.58899 0.0
S1348 S 0.52119 0.97951 0.41537 0.0
N1349 N 0.55159 1.01897 0.4171 0.0
N1350 N 0.50784 0.96937 0.46763 0.0
C1351 C 0.52835 0.99857 0.48927 0.0
C1352 C 0.55211 1.02578 0.46168 0.0
C1353 C 0.5556 0.03527 0.05314 0.0
C1354 C 0.54504 1.0031 0.03482 0.0
C1355 C 0.55833 0.06204 0.02675 0.0
C1356 C 0.55098 0.05822 0.9804 0.0
H1357 H 0.56212 0.03995 0.08846 0.0
H1358 H 0.56549 0.08566 0.04313 0.0
S1359 S 0.52453 0.98017 0.9146 0.0
N1360 N 0.5286 0.96988 0.96645 0.0
N1361 N 0.5338 1.01964 0.91701 0.0
C1362 C 0.54084 1.02633 0.9615 0.0
C1363 C 0.53779 0.99902 0.98849 0.0
C1364 C 0.05475 0.527 0.96359 0.0
C1365 C 1.02169 0.50679 0.97997 0.0
C1366 C 0.08059 0.55218 0.99018 0.0
C1367 C 0.07485 0.55832 0.03479 0.0
H1368 H 0.06085 0.52324 0.9297 0.0
H1369 H 0.10503 0.56748 0.97519 0.0
S1370 S 0.99366 0.511 0.09555 0.0
N1371 N 0.9855 0.49402 0.04492 0.0
N1372 N 1.03344 0.54063 0.09468 0.0
C1373 C 1.04203 0.53786 0.05183 0.0
C1374 C 1.01572 0.51246 0.02463 0.0
C1375 C 0.54177 0.51858 0.05425 0.0
C1376 C 0.52135 0.53112 0.0377 0.0
C1377 C 0.56637 0.51713 0.02738 0.0
C1378 C 0.57173 0.52787 0.98224 0.0
H1379 H 0.53864 0.50957 0.08854 0.0
H1380 H 0.58181 0.50824 0.04253 0.0
S1381 S 0.52361 0.56051 0.92088 0.0
N1382 N 0.50756 0.55301 0.97203 0.0
N1383 N 0.55309 0.55023 0.92174 0.0
C1384 C 0.55107 0.53992 0.96503 0.0
C1385 C 0.52625 0.54163 0.99253 0.0
C1386 C 0.39242 0.28062 0.97251 0.0
C1387 C 0.35997 0.27559 0.96884 0.0
C1388 C 0.41326 0.28925 0.93468 0.0
C1389 C 0.40259 0.29353 0.89179 0.0
H1390 H 0.40139 0.27692 1.00447 0.0
H1391 H 0.43797 0.29244 0.93924 0.0
S1392 S 0.32046 0.28591 0.86577 0.0
N1393 N 0.31852 0.27719 0.9199 0.0
N1394 N 0.35775 0.29366 0.84903 0.0
C1395 C 0.37037 0.28929 0.88811 0.0
C1396 C 0.34911 0.28034 0.92656 0.0
C1397 C 0.79144 0.12236 0.9705 0.0
C1398 C 0.81671 0.11406 0.96629 0.0
C1399 C 0.77984 0.1319 0.93287 0.0
C1400 C 0.79281 0.13326 0.88943 0.0
H1401 H 0.78 0.12083 1.00286 0.0
H1402 H 0.75996 0.13757 0.9378 0.0
S1403 S 0.8618 0.11767 0.86055 0.0
N1404 N 0.85638 0.11069 0.91517 0.0
N1405 N 0.83387 0.12799 0.84488 0.0
C1406 C 0.81868 0.12601 0.88483 0.0
C1407 C 0.83084 0.11667 0.92312 0.0
C1408 C 0.96999 0.70845 0.88463 0.0
C1409 C 0.94977 0.67379 0.89101 0.0
C1410 C 0.98032 0.73059 0.92124 0.0
C1411 C 0.97121 0.71901 0.96581 0.0
H1412 H 0.97783 0.7186 0.85117 0.0
H1413 H 0.99599 0.7571 0.91443 0.0
S1414 S 0.91803 0.63074 1.00117 0.0
N1415 N 0.9205 0.62893 0.94597 0.0
N1416 N 0.94037 0.67081 0.0142 0.0
C1417 C 0.95099 0.68451 0.97278 0.0
C1418 C 0.94015 0.6619 0.93556 0.0
C1419 C 0.29263 0.37767 0.54996 0.0
C1420 C 0.2837 0.34392 0.55305 0.0
C1421 C 0.30351 0.39843 0.58806 0.0
C1422 C 0.30628 0.38638 0.63072 0.0
H1423 H 0.29058 0.38794 0.51814 0.0
H1424 H 0.3098 0.42424 0.58384 0.0
S1425 S 0.28788 0.30012 0.65587 0.0
N1426 N 0.27966 0.29952 0.60175 0.0
N1427 N 0.30011 0.33858 0.67295 0.0
C1428 C 0.29786 0.35274 0.634 0.0
C1429 C 0.28665 0.33156 0.59531 0.0
C1430 C 0.6826 0.93132 0.58599 0.0
C1431 C 0.69418 0.93647 0.63094 0.0
C1432 C 0.70481 0.94229 0.54943 0.0
C1433 C 0.73955 0.95847 0.5562 0.0
H1434 H 0.65604 0.91899 0.5788 0.0
H1435 H 0.69464 0.93787 0.51565 0.0
S1436 S 0.7828 0.9775 0.66737 0.0
N1437 N 0.74264 0.95851 0.68002 0.0
N1438 N 0.78453 0.97902 0.61194 0.0
C1439 C 0.75147 0.96354 0.60112 0.0
C1440 C 0.7288 0.95262 0.63825 0.0
C1441 C 0.12202 0.80718 0.59549 0.0
C1442 C 0.12194 0.79532 0.55149 0.0
C1443 C 0.13185 0.79578 0.63304 0.0
C1444 C 0.14245 0.77232 0.62826 0.0
H1445 H 0.11422 0.82543 0.60131 0.0
H1446 H 0.13162 0.80582 0.6659 0.0
S1447 S 0.14648 0.73268 0.52101 0.0
N1448 N 0.13303 0.7583 0.50588 0.0
N1449 N 0.15169 0.73693 0.57603 0.0
C1450 C 0.14253 0.76018 0.58453 0.0
C1451 C 0.13228 0.77165 0.54633 0.0
C1452 C 0.68264 0.76793 0.08839 0.0
C1453 C 0.69512 0.77503 0.13284 0.0
C1454 C 0.70406 0.7793 0.05111 0.0
C1455 C 0.73888 0.79859 0.05665 0.0
H1456 H 0.65598 0.75309 0.08213 0.0
H1457 H 0.69319 0.77297 0.01774 0.0
S1458 S 0.78428 0.82478 0.16617 0.0
N1459 N 0.74442 0.80289 0.18027 0.0
N1460 N 0.78495 0.8245 0.11067 0.0
C1461 C 0.75172 0.80613 0.10107 0.0
C1462 C 0.72982 0.79426 0.13899 0.0
C1463 C 0.27403 0.95796 0.09956 0.0
C1464 C 0.28604 0.95866 0.05553 0.0
C1465 C 0.28644 0.94902 0.13689 0.0
C1466 C 0.31104 0.93999 0.13166 0.0
H1467 H 0.25483 0.96445 0.1055 0.0
H1468 H 0.27613 0.94838 0.16985 0.0
S1469 S 0.35204 0.93891 0.02447 0.0
N1470 N 0.32483 0.95039 1.00958 0.0
N1471 N 0.34803 0.93342 0.07944 0.0
C1472 C 0.32356 0.94087 0.08803 0.0
C1473 C 0.31108 0.95019 0.05008 0.0
C1474 C 0.1464 0.39694 0.08572 0.0
C1475 C 0.14127 0.3855 0.13061 0.0
C1476 C 0.13628 0.37464 0.04938 0.0
C1477 C 0.12103 0.33999 0.0564 0.0
H1478 H 0.15806 0.42344 0.07841 0.0
H1479 H 0.14058 0.38468 0.01556 0.0
S1480 S 0.10276 0.29724 0.16767 0.0
N1481 N 0.12044 0.33741 0.18011 0.0
N1482 N 0.10155 0.29523 0.11222 0.0
C1483 C 0.11605 0.3282 0.10129 0.0
C1484 C 0.12608 0.35099 0.13824 0.0
C1485 C 0.79623 0.68621 0.46876 0.0
C1486 C 0.81398 0.7211 0.4636 0.0
C1487 C 0.78584 0.66488 0.4313 0.0
C1488 C 0.79249 0.6775 0.38686 0.0
H1489 H 0.79014 0.67514 0.50206 0.0
H1490 H 0.77204 0.6382 0.43742 0.0
S1491 S 0.83912 0.76703 0.35449 0.0
N1492 N 0.83852 0.76744 0.40997 0.0
N1493 N 0.81883 0.72716 0.34 0.0
C1494 C 0.81057 0.7123 0.38113 0.0
C1495 C 0.82137 0.73414 0.41925 0.0
C1496 C 0.34889 0.1062 0.42187 0.0
C1497 C 0.36072 0.11195 0.46666 0.0
C1498 C 0.37086 0.11579 0.3852 0.0
C1499 C 0.40563 0.13192 0.39169 0.0
H1500 H 0.32229 0.09361 0.41486 0.0
H1501 H 0.36046 0.11054 0.35153 0.0
S1502 S 0.44953 0.15398 0.5024 0.0
N1503 N 0.40945 0.13553 0.5154 0.0
N1504 N 0.45096 0.15377 0.44694 0.0
C1505 C 0.41785 0.13833 0.43644 0.0
C1506 C 0.39538 0.12829 0.47374 0.0
C1507 C 0.97711 0.26299 0.42136 0.0
C1508 C 0.9793 0.27651 0.46481 0.0
C1509 C 0.96739 0.2745 0.38383 0.0
C1510 C 0.95914 0.29971 0.38835 0.0
H1511 H 0.98275 0.24312 0.41611 0.0
H1512 H 0.96544 0.26294 0.35139 0.0
S1513 S 0.96299 0.34528 0.49348 0.0
N1514 N 0.97391 0.31782 0.50922 0.0
N1515 N 0.9556 0.33938 0.43897 0.0
C1516 C 0.96187 0.31398 0.43129 0.0
C1517 C 0.97189 0.30238 0.46942 0.0
C1518 C 0.07399 0.64605 0.25223 0.0
C1519 C 0.07068 0.62299 0.21878 0.0
C1520 C 0.05435 0.63547 0.29136 0.0
C1521 C 1.03086 0.60147 0.29822 0.0
H1522 H 0.09195 0.67243 0.24807 0.0
H1523 H 0.05698 0.65408 0.31579 0.0
S1524 S 1.01589 0.53107 0.22301 0.0
N1525 N 1.04449 0.56476 0.19652 0.0
N1526 N 1.00718 0.54463 0.26969 0.0
C1527 C 1.028 0.57817 0.26537 0.0
C1528 C 1.04805 0.58899 0.22571 0.0
C1529 C 0.46138 0.45495 0.30432 0.0
C1530 C 0.48126 0.4402 0.29785 0.0
C1531 C 0.44995 0.46553 0.26765 0.0
C1532 C 0.45758 0.46142 0.22293 0.0
H1533 H 0.45462 0.45844 0.33796 0.0
H1534 H 0.43462 0.47668 0.27454 0.0
S1535 S 0.50886 0.42436 0.18729 0.0
N1536 N 0.50827 0.42217 0.24271 0.0
N1537 N 0.48643 0.44193 0.17424 0.0
C1538 C 0.47734 0.44669 0.21587 0.0
C1539 C 0.48931 0.43619 0.25316 0.0
C1540 C 0.64841 0.06377 0.25399 0.0
C1541 C 0.63888 0.05219 0.29842 0.0
C1542 C 0.63554 0.04203 0.21706 0.0
C1543 C 0.61232 1.00787 0.22296 0.0
H1544 H 0.66644 0.08983 0.24759 0.0
H1545 H 0.64412 0.0521 0.1837 0.0
S1546 S 0.57743 0.96548 0.33254 0.0
N1547 N 0.60381 1.00477 0.3462 0.0
N1548 N 0.57912 0.96378 0.27722 0.0
C1549 C 0.60188 0.99614 0.26733 0.0
C1550 C 0.61533 1.01828 0.3049 0.0
C1551 C 0.4613 1.00158 0.76212 0.0
C1552 C 0.46094 1.01344 0.71836 0.0
C1553 C 0.4701 1.02249 0.79994 0.0
C1554 C 0.47934 0.05629 0.79563 0.0
H1555 H 0.4544 0.9757 0.76751 0.0
H1556 H 0.47002 1.01218 0.8327 0.0
S1557 S 0.48221 0.1 0.68913 0.0
N1558 N 0.47041 0.06135 0.6734 0.0
N1559 N 0.4872 0.10078 0.74418 0.0
C1560 C 0.47933 0.06864 0.75213 0.0
C1561 C 0.47014 0.04725 0.71363 0.0
C1562 C 1.03858 0.44411 0.71883 0.0
C1563 C 0.07332 0.46266 0.72537 0.0
C1564 C 1.01662 0.43225 0.75551 0.0
C1565 C 1.02848 0.43808 0.80031 0.0
H1566 H 1.02821 0.4389 0.68514 0.0
H1567 H 0.99002 0.41814 0.74847 0.0
S1568 S 0.11737 0.48514 0.83593 0.0
N1569 N 0.11873 0.48626 0.78047 0.0
N1570 N 0.07729 0.46374 0.84901 0.0
C1571 C 0.06316 0.45648 0.80738 0.0
C1572 C 0.08558 0.46884 0.77007 0.0
C1573 C 0.60672 0.62217 0.76595 0.0
C1574 C 0.61881 0.62263 0.72202 0.0
C1575 C 0.61833 0.61252 0.80344 0.0
C1576 C 0.64218 0.60245 0.79861 0.0
H1577 H 0.58816 0.62955 0.77175 0.0
H1578 H 0.60813 0.61243 0.8363 0.0
S1579 S 0.68261 0.59968 0.6916 0.0
N1580 N 0.65653 0.61256 0.67646 0.0
N1581 N 0.67825 0.59419 0.74655 0.0
C1582 C 0.65457 0.60277 0.75498 0.0
C1583 C 0.64291 0.61287 0.71686 0.0
C1584 C 0.23246 0.23118 0.2774 0.0
C1585 C 0.25297 0.26207 0.29872 0.0
C1586 C 0.2432 0.22151 0.23949 0.0
C1587 C 0.27508 0.24219 0.22079 0.0
H1588 H 0.20775 0.21391 0.29034 0.0
H1589 H 0.22604 0.19742 0.22468 0.0
S1590 S 0.33861 0.32585 0.26314 0.0
N1591 N 0.30677 0.3137 0.2981 0.0
N1592 N 0.3272 0.29522 0.22631 0.0
C1593 C 0.29603 0.27325 0.24152 0.0
C1594 C 0.28487 0.28334 0.28037 0.0
C1595 C 0.86625 0.05888 0.24996 0.0
C1596 C 0.84175 0.0595 0.22277 0.0
C1597 C 0.85775 0.0405 0.28976 0.0
C1598 C 0.82421 1.02142 0.30411 0.0
H1599 H 0.8923 0.07222 0.23984 0.0
H1600 H 0.87792 0.04103 0.30904 0.0
S1601 S 0.75053 1.0153 0.24522 0.0
N1602 N 0.78262 0.0403 0.21305 0.0
N1603 N 0.76635 1.00524 0.28827 0.0
C1604 C 0.7994 1.02239 0.27773 0.0
C1605 C 0.80824 0.0416 0.23706 0.0
C1606 C 1.02387 0.82731 0.24668 0.0
C1607 C 1.02295 0.80218 0.21919 0.0
C1608 C 1.04234 0.83691 0.28651 0.0
C1609 C 0.06127 0.82219 0.30044 0.0
H1610 H 1.01046 0.84003 0.23702 0.0
H1611 H 1.04188 0.85639 0.30628 0.0
S1612 S 0.06765 0.7554 0.23964 0.0
N1613 N 1.04235 0.76252 0.20819 0.0
N1614 N 0.07775 0.78095 0.28316 0.0
C1615 C 0.06041 0.79676 0.27335 0.0
C1616 C 1.04104 0.78662 0.23279 0.0
C1617 C 0.83932 0.78742 0.76036 0.0
C1618 C 0.83009 0.79525 0.71917 0.0
C1619 C 0.83118 0.79706 0.80103 0.0
C1620 C 0.81271 0.81376 0.80154 0.0
H1621 H 0.85444 0.77552 0.76104 0.0
H1622 H 0.8402 0.7923 0.83226 0.0
S1623 S 0.78141 0.8384 0.70272 0.0
N1624 N 0.80163 0.82055 0.68117 0.0
N1625 N 0.7842 0.83632 0.7579 0.0
C1626 C 0.80194 0.82018 0.76072 0.0
C1627 C 0.81124 0.81151 0.71936 0.0
C1628 C 0.2406 1.0311 0.78505 0.0
C1629 C 0.25908 1.01706 0.80288 0.0
C1630 C 0.2492 0.04813 0.74431 0.0
C1631 C 0.2768 0.05216 0.7195 0.0
H1632 H 0.21901 1.0289 0.80252 0.0
H1633 H 0.23386 0.05813 0.73207 0.0
S1634 S 0.33372 1.02048 0.75059 0.0
N1635 N 0.30659 1.00851 0.79243 0.0
N1636 N 0.32281 0.04086 0.71506 0.0
C1637 C 0.29592 0.03872 0.73676 0.0
C1638 C 0.28697 1.02098 0.77854 0.0
C1639 C 1.03127 0.21883 0.7432 0.0
C1640 C 1.02564 0.24234 0.72083 0.0
C1641 C 0.04929 0.22678 0.78313 0.0
C1642 C 0.06275 0.25873 0.80265 0.0
H1643 H 1.02209 0.19399 0.72938 0.0
H1644 H 0.05287 0.20753 0.79851 0.0
S1645 S 0.05386 0.32912 0.7586 0.0
N1646 N 1.03341 0.2985 0.72199 0.0
N1647 N 0.06839 0.31399 0.79728 0.0
C1648 C 0.05689 0.28251 0.78121 0.0
C1649 C 1.03789 0.27412 0.74043 0.0
C1650 C 0.95403 0.61751 0.61114 0.0
C1651 C 0.93095 0.5913 0.63879 0.0
C1652 C 0.9645 0.61073 0.56998 0.0
C1653 C 0.95187 0.57762 0.55516 0.0
H1654 H 0.96339 0.64335 0.62073 0.0
H1655 H 0.98132 0.63142 0.54882 0.0
S1656 S 0.89621 0.5001 0.61802 0.0
N1657 N 0.8998 0.53069 0.65054 0.0
N1658 N 0.91901 0.51862 0.57319 0.0
C1659 C 0.93077 0.55136 0.58367 0.0
C1660 C 0.92037 0.55803 0.62546 0.0
C1661 C 0.52671 0.38356 0.58252 0.0
C1662 C 0.50171 0.38225 0.55445 0.0
C1663 C 0.51877 0.36678 0.62346 0.0
C1664 C 0.48535 0.34757 0.63808 0.0
H1665 H 0.55277 0.39744 0.57253 0.0
H1666 H 0.53929 0.36885 0.64357 0.0
S1667 S 0.41044 0.33637 0.57642 0.0
N1668 N 0.44224 0.36086 0.54351 0.0
N1669 N 0.42691 0.32873 0.62106 0.0
C1670 C 0.45995 0.34639 0.61051 0.0
C1671 C 0.46823 0.36395 0.56861 0.0
C1672 C 0.73227 0.14549 0.55439 0.0
C1673 C 0.69714 0.12948 0.55219 0.0
C1674 C 0.74896 0.15408 0.59592 0.0
C1675 C 0.7309 0.1479 0.6361 0.0
H1676 H 0.74693 0.15227 0.52375 0.0
H1677 H 0.77607 0.16719 0.59647 0.0
S1678 S 0.63874 0.10614 0.64822 0.0
N1679 N 0.64493 0.10651 0.59342 0.0
N1680 N 0.6763 0.12436 0.67152 0.0
C1681 C 0.6958 0.13139 0.63432 0.0
C1682 C 0.67884 0.12173 0.59223 0.0
C1683 C 0.50075 0.13007 0.13477 0.0
C1684 C 0.48127 0.14568 0.13701 0.0
C1685 C 0.50864 0.12124 0.09325 0.0
C1686 C 0.49809 0.12878 0.05289 0.0
H1687 H 0.51062 0.12543 0.1653 0.0
H1688 H 0.52446 0.11011 0.0926 0.0
S1689 S 0.44648 0.16917 0.04091 0.0
N1690 N 0.45042 0.16683 0.09582 0.0
N1691 N 0.46746 0.15276 0.01754 0.0
C1692 C 0.47831 0.144 0.05481 0.0
C1693 C 0.46925 0.15179 0.09703 0.0
C1694 C 0.95121 0.35279 0.11194 0.0
C1695 C 0.92477 0.35131 0.13742 0.0
C1696 C 0.96155 0.37103 0.07153 0.0
C1697 C 0.9455 0.38795 0.05516 0.0
H1698 H 0.9638 0.33959 0.12302 0.0
H1699 H 0.98132 0.37087 0.05222 0.0
S1700 S 0.87831 0.39605 0.11143 0.0
N1701 N 0.88513 0.37155 0.14474 0.0
N1702 N 0.90462 0.40521 0.06924 0.0
C1703 C 0.92033 0.3881 0.08127 0.0
C1704 C 0.90989 0.36987 0.1222 0.0
C1705 C 0.74942 0.60349 0.09508 0.0
C1706 C 0.73213 0.59411 0.136 0.0
C1707 C 0.73189 0.59442 0.05424 0.0
C1708 C 0.69671 0.57797 0.0532 0.0
H1709 H 0.77649 0.61639 0.09461 0.0
H1710 H 0.74594 0.59997 0.02317 0.0
S1711 S 0.64001 0.54679 0.15117 0.0
N1712 N 0.678 0.56461 0.17319 0.0
N1713 N 0.64524 0.55182 0.09619 0.0
C1714 C 0.67918 0.56898 0.09385 0.0
C1715 C 0.69692 0.57608 0.13536 0.0
C1716 C 0.63338 0.93023 0.91323 0.0
C1717 C 0.60821 0.91293 0.88083 0.0
C1718 C 0.62572 0.93911 0.95499 0.0
C1719 C 0.59274 0.93082 0.96534 0.0
H1720 H 0.65879 0.93589 0.90695 0.0
H1721 H 0.6453 0.95107 0.98003 0.0
S1722 S 0.519 0.89067 0.89016 0.0
N1723 N 0.54977 0.89195 0.8604 0.0
N1724 N 0.53567 0.90758 0.9392 0.0
C1725 C 0.56789 0.91526 0.9326 0.0
C1726 C 0.57557 0.90663 0.89018 0.0
C1727 C 0.17063 0.67839 0.93388 0.0
C1728 C 0.15065 0.68313 0.96497 0.0
C1729 C 0.18014 0.69617 0.89364 0.0
C1730 C 0.17057 0.71999 0.88299 0.0
H1731 H 0.1794 0.66104 0.94101 0.0
H1732 H 0.19549 0.69123 0.87089 0.0
S1733 S 0.11793 0.74152 0.95395 0.0
N1734 N 0.12094 0.71266 0.98307 0.0
N1735 N 0.13935 0.74689 0.90714 0.0
C1736 C 0.15002 0.72463 0.91365 0.0
C1737 C 0.13992 0.70599 0.95472 0.0
C1738 C 0.38156 0.50239 0.95291 0.0
C1739 C 0.39579 0.48418 0.97102 0.0
C1740 C 0.36393 0.49311 0.91254 0.0
C1741 C 0.35934 0.46499 0.88831 0.0
H1742 H 0.38422 0.52442 0.96976 0.0
H1743 H 0.35413 0.50852 0.89994 0.0
S1744 S 0.38991 0.40751 0.92149 0.0
N1745 N 0.40328 0.43588 0.96199 0.0
N1746 N 0.36912 0.41791 0.88594 0.0
C1747 C 0.3724 0.44574 0.90636 0.0
C1748 C 0.39101 0.45555 0.94758 0.0
C1749 C 0.18263 0.50879 0.44666 0.0
C1750 C 0.15234 0.48757 0.46873 0.0
C1751 C 0.19016 0.50027 0.40519 0.0
C1752 C 0.16787 0.46999 0.38376 0.0
H1753 H 0.20095 0.53246 0.46144 0.0
H1754 H 0.21388 0.51778 0.38991 0.0
S1755 S 0.08504 0.40517 0.42723 0.0
N1756 N 0.09962 0.43473 0.46619 0.0
N1757 N 0.11406 0.41837 0.38768 0.0
C1758 C 0.13744 0.44822 0.40535 0.0
C1759 C 0.12953 0.45716 0.44782 0.0
C1760 C 0.62787 0.7011 0.40283 0.0
C1761 C 0.61511 0.72173 0.38931 0.0
C1762 C 0.61757 0.6831 0.4435 0.0
C1763 C 0.59431 0.68536 0.47185 0.0
H1764 H 0.64472 0.69772 0.38099 0.0
H1765 H 0.62732 0.66684 0.45224 0.0
S1766 S 0.55764 0.74031 0.45357 0.0
N1767 N 0.58101 0.74617 0.40883 0.0
N1768 N 0.56175 0.71311 0.48487 0.0
C1769 C 0.58299 0.70759 0.4594 0.0
C1770 C 0.59338 0.72559 0.41824 0.0
C1771 C 0.40322 0.90519 0.43684 0.0
C1772 C 0.4047 0.93062 0.46421 0.0
C1773 C 0.38428 0.89544 0.39744 0.0
C1774 C 0.36555 0.91041 0.38377 0.0
H1775 H 0.41642 0.89223 0.44638 0.0
H1776 H 0.38425 0.87564 0.37781 0.0
S1777 S 0.36118 0.97853 0.44403 0.0
N1778 N 0.38635 0.97108 0.47527 0.0
N1779 N 0.35026 0.95259 0.40084 0.0
C1780 C 0.3672 0.93635 0.41057 0.0
C1781 C 0.38694 0.94655 0.45079 0.0
C1782 C 0.31353 0.34313 0.1364 0.0
C1783 C 0.30645 0.33133 0.09143 0.0
C1784 C 0.33079 0.37742 0.14646 0.0
C1785 C 0.34061 0.401 0.1119 0.0
H1786 H 0.30865 0.32587 0.16379 0.0
H1787 H 0.33942 0.38529 0.18059 0.0
S1788 S 0.31577 0.38308 0.99166 0.0
N1789 N 0.30232 0.34578 0.01417 0.0
N1790 N 0.3332 0.41035 0.0331 0.0
C1791 C 0.32806 0.38941 0.06812 0.0
C1792 C 0.31121 0.35447 0.05778 0.0
C1793 C 0.69504 0.95692 0.08669 0.0
C1794 C 0.67963 0.96758 0.1186 0.0
C1795 C 0.72864 0.97792 0.07343 0.0
C1796 C 0.74718 1.01073 0.09019 0.0
H1797 H 0.68052 0.93278 0.07046 0.0
H1798 H 0.73987 0.9687 0.0496 0.0
S1799 S 0.71579 0.05178 0.16936 0.0
N1800 N 0.68485 1.01285 0.16522 0.0
N1801 N 0.74559 0.05371 0.13686 0.0
C1802 C 0.73125 1.02169 0.12118 0.0
C1803 C 0.69823 0.99973 0.13649 0.0
C1804 C 0.10569 0.77191 0.07089 0.0
C1805 C 0.0725 0.75766 0.0859 0.0
C1806 C 0.12582 0.7585 0.08482 0.0
C1807 C 0.11383 0.73172 0.11577 0.0
H1808 H 0.11594 0.79308 0.04817 0.0
H1809 H 0.15037 0.76816 0.06996 0.0
S1810 S 1.0281 0.68359 0.16162 0.0
N1811 N 1.02767 0.71241 0.12941 0.0
N1812 N 0.06687 0.69102 0.15947 0.0
C1813 C 0.08119 0.7181 0.13175 0.0
C1814 C 0.06014 0.72992 0.11555 0.0
C1815 C 0.39849 0.30651 0.43332 0.0
C1816 C 0.41439 0.33282 0.40181 0.0
C1817 C 0.36474 0.2939 0.44603 0.0
C1818 C 0.34646 0.30835 0.42908 0.0
H1819 H 0.4127 0.29665 0.44966 0.0
H1820 H 0.35321 0.2733 0.4696 0.0
S1821 S 0.37936 0.38209 0.35211 0.0
N1822 N 0.40999 0.37373 0.35618 0.0
N1823 N 0.34895 0.35362 0.38335 0.0
C1824 C 0.36288 0.33554 0.39867 0.0
C1825 C 0.3961 0.34672 0.38402 0.0
C1826 C 0.77699 0.08085 0.47681 0.0
C1827 C 0.79251 0.07257 0.44286 0.0
C1828 C 0.75816 0.09605 0.46599 0.0
C1829 C 0.75374 0.103 0.42082 0.0
H1830 H 0.77622 0.0723 0.51095 0.0
H1831 H 0.74435 0.0994 0.49297 0.0
S1832 S 0.79824 0.09558 0.32202 0.0
N1833 N 0.8095 0.08003 0.36416 0.0
N1834 N 0.77296 0.10749 0.34385 0.0
C1835 C 0.77327 0.09948 0.38773 0.0
C1836 C 0.79296 0.08451 0.39885 0.0
C1837 C 0.99832 0.71137 0.46959 0.0
C1838 C 1.00869 0.73506 0.43512 0.0
C1839 C 0.983 0.67719 0.45928 0.0
C1840 C 0.97834 0.66555 0.41424 0.0
H1841 H 1.00508 0.71926 0.50421 0.0
H1842 H 0.9776 0.66001 0.48687 0.0
S1843 S 0.99065 0.71699 0.31309 0.0
N1844 N 1.00469 0.74414 0.35507 0.0
N1845 N 0.97756 0.67987 0.33596 0.0
C1846 C 0.98379 0.6885 0.38007 0.0
C1847 C 0.99864 0.72332 0.39056 0.0
C1848 C 0.76541 0.68768 0.88592 0.0
C1849 C 0.75124 0.66454 0.92102 0.0
C1850 C 0.7827 0.72219 0.89503 0.0
C1851 C 0.7863 0.73473 0.93946 0.0
H1852 H 0.7604 0.67936 0.85124 0.0
H1853 H 0.7906 0.7392 0.8667 0.0
S1854 S 0.76081 0.68433 0.04357 0.0
N1855 N 0.74761 0.65661 1.00236 0.0
N1856 N 0.77973 0.72128 0.01884 0.0
C1857 C 0.77624 0.71193 0.9749 0.0
C1858 C 0.7587 0.67685 0.96576 0.0
C1859 C 0.36907 0.07717 0.97779 0.0
C1860 C 0.34567 0.07133 0.94412 0.0
C1861 C 0.40302 0.09161 0.96717 0.0
C1862 C 0.41502 0.10108 0.92258 0.0
H1863 H 0.36088 0.06714 0.01128 0.0
H1864 H 0.41949 0.09251 0.99373 0.0
S1865 S 0.36421 0.09891 0.82497 0.0
N1866 N 0.33699 0.08201 0.86646 0.0
N1867 N 0.40113 0.10929 0.84667 0.0
C1868 C 0.39238 0.09951 0.89 0.0
C1869 C 0.35763 0.08468 0.90082 0.0
C1870 C 0.98473 0.32209 0.96705 0.0
C1871 C 0.97631 0.32563 0.92227 0.0
C1872 C 1.00071 0.30389 0.97717 0.0
C1873 C 1.00825 0.28795 0.94296 0.0
H1874 H 0.98165 0.33592 0.9942 0.0
H1875 H 1.01019 0.30528 0.01093 0.0
S1876 S 0.97987 0.27823 0.82409 0.0
N1877 N 0.96875 0.30411 0.84606 0.0
N1878 N 0.99791 0.26886 0.86514 0.0
C1879 C 0.9949 0.2865 0.89963 0.0
C1880 C 0.97904 0.30553 0.88921 0.0
C1881 C 0.73642 0.75745 0.6335 0.0
C1882 C 0.74838 0.76616 0.58877 0.0
C1883 C 0.70243 0.74297 0.644 0.0
C1884 C 0.679 0.73646 0.6101 0.0
H1885 H 0.75298 0.75899 0.66033 0.0
H1886 H 0.69427 0.73345 0.67771 0.0
S1887 S 0.69742 0.76202 0.49021 0.0
N1888 N 0.73438 0.77293 0.51224 0.0
N1889 N 0.67025 0.74587 0.53188 0.0
C1890 C 0.69094 0.74922 0.56654 0.0
C1891 C 0.72569 0.76396 0.5558 0.0
C1892 C 0.3259 0.96396 0.61569 0.0
C1893 C 0.35876 0.97786 0.59943 0.0
C1894 C 0.30551 0.97722 0.60225 0.0
C1895 C 0.31683 1.00352 0.57059 0.0
H1896 H 0.31608 0.94312 0.63893 0.0
H1897 H 0.28122 0.96772 0.61786 0.0
S1898 S 0.40165 0.05087 0.5216 0.0
N1899 N 0.40267 1.02243 0.55398 0.0
N1900 N 0.36299 0.04362 0.52518 0.0
C1901 C 0.34919 1.01694 0.55359 0.0
C1902 C 0.37052 1.0052 0.56913 0.0
C1903 C 0.11106 0.37905 0.64511 0.0
C1904 C 0.12643 0.40285 0.61112 0.0
C1905 C 0.09329 0.34487 0.63448 0.0
C1906 C 0.08928 0.33333 0.58945 0.0
H1907 H 0.10974 0.38681 0.6791 0.0
H1908 H 0.08005 0.32754 0.66139 0.0
S1909 S 0.13667 0.38517 0.49201 0.0
N1910 N 0.14576 0.41232 0.53343 0.0
N1911 N 0.11079 0.34792 0.51337 0.0
C1912 C 0.10923 0.35647 0.55664 0.0
C1913 C 0.12808 0.39133 0.5676 0.0
C1914 C 1.02616 0.62632 0.73297 0.0
C1915 C 1.0143 0.62461 0.77742 0.0
C1916 C 0.06034 0.64554 0.72239 0.0
C1917 C 0.08388 0.66331 0.75608 0.0
H1918 H 1.00855 0.61546 0.70538 0.0
H1919 H 0.06782 0.64896 0.68738 0.0
S1920 S 0.06682 0.65898 0.8791 0.0
N1921 N 1.02944 0.63678 0.85601 0.0
N1922 N 0.09376 0.67148 0.83704 0.0
C1923 C 0.07276 0.65747 0.80142 0.0
C1924 C 1.03793 0.63837 0.81196 0.0
C1925 C 0.44479 0.41728 0.80666 0.0
C1926 C 0.4562 0.40467 0.77245 0.0
C1927 C 0.42742 0.43407 0.79594 0.0
C1928 C 0.41999 0.4379 0.75083 0.0
H1929 H 0.44625 0.41131 0.84153 0.0
H1930 H 0.41699 0.44135 0.82332 0.0
S1931 S 0.45415 0.41905 0.64963 0.0
N1932 N 0.46708 0.40532 0.69204 0.0
N1933 N 0.43253 0.43498 0.67232 0.0
C1934 C 0.4357 0.43004 0.71667 0.0
C1935 C 0.45421 0.41377 0.7275 0.0
C1936 C 0.67457 0.05517 0.72227 0.0
C1937 C 0.6792 0.06652 0.76749 0.0
C1938 C 0.65567 1.02112 0.71132 0.0
C1939 C 0.64045 0.9972 0.7452 0.0
H1940 H 0.68819 0.07241 0.69527 0.0
H1941 H 0.65614 1.01343 0.677 0.0
S1942 S 0.63608 1.01407 0.86662 0.0
N1943 N 0.66089 0.05144 0.84477 0.0
N1944 N 0.62442 0.98736 0.82422 0.0
C1945 C 0.64046 1.00855 0.78947 0.0
C1946 C 0.6601 0.04327 0.8007 0.0
C1947 C 0.44922 0.05462 0.22714 0.0
C1948 C 0.45446 0.06606 0.27229 0.0
C1949 C 0.4331 1.02044 0.21669 0.0
C1950 C 0.42221 0.99663 0.25108 0.0
H1951 H 0.45457 0.07199 0.19966 0.0
H1952 H 0.42595 1.01274 0.1821 0.0
S1953 S 0.44088 1.01388 0.37303 0.0
N1954 N 0.45513 0.05127 0.3504 0.0
N1955 N 0.42591 0.98687 0.33092 0.0
C1956 C 0.43261 1.00799 0.29561 0.0
C1957 C 0.44856 0.04284 0.30627 0.0
C1958 C 1.02412 0.41125 0.21824 0.0
C1959 C 1.01292 0.40808 0.26339 0.0
C1960 C 0.05823 0.42858 0.20744 0.0
C1961 C 0.0822 0.44409 0.24126 0.0
H1962 H 1.00667 0.39731 0.19148 0.0
H1963 H 0.06574 0.42657 0.17359 0.0
S1964 S 0.06557 0.45611 0.36008 0.0
N1965 N 1.0281 0.43046 0.33906 0.0
N1966 N 0.0924 0.46439 0.31855 0.0
C1967 C 0.07109 0.4466 0.28464 0.0
C1968 C 1.03632 0.42833 0.29583 0.0
C1969 C 0.64528 0.65019 0.28959 0.0
C1970 C 0.64386 0.66149 0.24582 0.0
C1971 C 0.66367 0.63412 0.29868 0.0
C1972 C 0.68132 0.62899 0.26423 0.0
H1973 H 0.63454 0.65648 0.31772 0.0
H1974 H 0.66653 0.6286 0.33326 0.0
S1975 S 0.6797 0.6478 0.14237 0.0
N1976 N 0.65664 0.66127 0.16694 0.0
N1977 N 0.69166 0.63196 0.1832 0.0
C1978 C 0.67656 0.63662 0.21947 0.0
C1979 C 0.65757 0.65255 0.21039 0.0
loop_
_geom_bond_atom_site_label_1
_geom_bond_atom_site_label_2
_geom_bond_distance
_geom_bond_site_symmetry_2
_ccdc_geom_bond_type
Fe0 O2 1.918 . S
Fe0 O5 1.997 1_554 S
Fe0 O6 2.002 1_554 S
Fe0 O11 1.976 . S
Fe0 O14 1.996 . S
Fe1 O2 1.918 . S
Fe1 O9 1.997 . S
Fe1 O12 1.996 . S
Fe1 O16 1.976 . S
Fe1 O19 2.002 . S
O2 Fe0 1.918 . S
O2 Fe1 1.918 . S
O2 Fe3 1.918 . S
Fe3 O2 1.918 . S
Fe3 O4 2.002 . S
Fe3 O13 1.976 . S
Fe3 O17 1.996 . S
Fe3 O20 1.997 . S
O4 Fe3 2.002 . S
O4 C21 1.295 . S
O5 Fe0 1.997 1_556 S
O5 C21 1.235 1_556 S
O6 Fe0 2.002 1_556 S
O6 C7 1.295 1_556 S
C7 O6 1.295 1_554 S
C7 O9 1.235 . S
C8 O13 1.287 . S
C8 O14 1.255 . S
O9 Fe1 1.997 . S
O9 C7 1.235 . S
C10 O16 1.287 . S
C10 O17 1.255 . S
O11 Fe0 1.976 . S
O11 C18 1.287 . S
O12 Fe1 1.996 . S
O12 C18 1.255 . S
O13 Fe3 1.976 . S
O13 C8 1.287 . S
O14 Fe0 1.996 . S
O14 C8 1.255 . S
C15 O19 1.295 . S
C15 O20 1.235 . S
O16 Fe1 1.976 . S
O16 C10 1.287 . S
O17 Fe3 1.996 . S
O17 C10 1.255 . S
C18 O11 1.287 . S
C18 O12 1.255 . S
O19 Fe1 2.002 . S
O19 C15 1.295 . S
O20 Fe3 1.997 . S
O20 C15 1.235 . S
C21 O4 1.295 . S
C21 O5 1.235 1_554 S
Fe22 O24 1.918 . S
Fe22 O27 1.997 1_554 S
Fe22 O28 2.002 1_554 S
Fe22 O33 1.976 1_545 S
Fe22 O36 1.996 1_545 S
Fe23 O24 1.918 . S
Fe23 O31 1.997 . S
Fe23 O34 1.996 . S
Fe23 O38 1.976 . S
Fe23 O41 2.002 . S
O24 Fe22 1.918 . S
O24 Fe23 1.918 . S
O24 Fe25 1.918 . S
Fe25 O24 1.918 . S
Fe25 O26 2.002 . S
Fe25 O35 1.976 . S
Fe25 O39 1.996 . S
Fe25 O42 1.997 . S
O26 Fe25 2.002 . S
O26 C43 1.295 . S
O27 Fe22 1.997 1_556 S
O27 C43 1.235 1_556 S
O28 Fe22 2.002 1_556 S
O28 C29 1.295 1_556 S
C29 O28 1.295 1_554 S
C29 O31 1.235 . S
C30 O35 1.287 1_565 S
C30 O36 1.255 . S
O31 Fe23 1.997 . S
O31 C29 1.235 . S
C32 O38 1.287 . S
C32 O39 1.255 . S
O33 Fe22 1.976 1_565 S
O33 C40 1.287 . S
O34 Fe23 1.996 . S
O34 C40 1.255 1_545 S
O35 Fe25 1.976 . S
O35 C30 1.287 1_545 S
O36 Fe22 1.996 1_565 S
O36 C30 1.255 . S
C37 O41 1.295 . S
C37 O42 1.235 . S
O38 Fe23 1.976 . S
O38 C32 1.287 . S
O39 Fe25 1.996 . S
O39 C32 1.255 . S
C40 O33 1.287 . S
C40 O34 1.255 1_565 S
O41 Fe23 2.002 . S
O41 C37 1.295 . S
O42 Fe25 1.997 . S
O42 C37 1.235 . S
C43 O26 1.295 . S
C43 O27 1.235 1_554 S
Fe44 O46 1.918 . S
Fe44 O49 1.997 1_554 S
Fe44 O50 2.002 1_554 S
Fe44 O55 1.976 1_655 S
Fe44 O58 1.996 1_655 S
Fe45 O46 1.918 . S
Fe45 O53 1.997 . S
Fe45 O56 1.996 . S
Fe45 O60 1.976 . S
Fe45 O63 2.002 . S
O46 Fe44 1.918 . S
O46 Fe45 1.918 . S
O46 Fe47 1.918 . S
Fe47 O46 1.918 . S
Fe47 O48 2.002 . S
Fe47 O57 1.976 . S
Fe47 O61 1.996 . S
Fe47 O64 1.997 . S
O48 Fe47 2.002 . S
O48 C65 1.295 . S
O49 Fe44 1.997 1_556 S
O49 C65 1.235 1_556 S
O50 Fe44 2.002 1_556 S
O50 C51 1.295 1_556 S
C51 O50 1.295 1_554 S
C51 O53 1.235 . S
C52 O57 1.287 1_455 S
C52 O58 1.255 . S
O53 Fe45 1.997 . S
O53 C51 1.235 . S
C54 O60 1.287 . S
C54 O61 1.255 . S
O55 Fe44 1.976 1_455 S
O55 C62 1.287 . S
O56 Fe45 1.996 . S
O56 C62 1.255 1_655 S
O57 Fe47 1.976 . S
O57 C52 1.287 1_655 S
O58 Fe44 1.996 1_455 S
O58 C52 1.255 . S
C59 O63 1.295 . S
C59 O64 1.235 . S
O60 Fe45 1.976 . S
O60 C54 1.287 . S
O61 Fe47 1.996 . S
O61 C54 1.255 . S
C62 O55 1.287 . S
C62 O56 1.255 1_455 S
O63 Fe45 2.002 . S
O63 C59 1.295 . S
O64 Fe47 1.997 . S
O64 C59 1.235 . S
C65 O48 1.295 . S
C65 O49 1.235 1_554 S
Fe66 O68 1.918 . S
Fe66 O71 1.997 . S
Fe66 O72 2.002 . S
Fe66 O77 1.976 . S
Fe66 O80 1.996 . S
Fe67 O68 1.918 . S
Fe67 O75 1.997 . S
Fe67 O78 1.996 . S
Fe67 O82 1.976 . S
Fe67 O85 2.002 . S
O68 Fe66 1.918 . S
O68 Fe67 1.918 . S
O68 Fe69 1.918 . S
Fe69 O68 1.918 . S
Fe69 O70 2.002 . S
Fe69 O79 1.976 . S
Fe69 O83 1.996 . S
Fe69 O86 1.997 . S
O70 Fe69 2.002 . S
O70 C87 1.295 . S
O71 Fe66 1.997 . S
O71 C87 1.235 . S
O72 Fe66 2.002 . S
O72 C73 1.295 . S
C73 O72 1.295 . S
C73 O75 1.235 . S
C74 O79 1.287 . S
C74 O80 1.255 . S
O75 Fe67 1.997 . S
O75 C73 1.235 . S
C76 O82 1.287 . S
C76 O83 1.255 . S
O77 Fe66 1.976 . S
O77 C84 1.287 . S
O78 Fe67 1.996 . S
O78 C84 1.255 . S
O79 Fe69 1.976 . S
O79 C74 1.287 . S
O80 Fe66 1.996 . S
O80 C74 1.255 . S
C81 O85 1.295 . S
C81 O86 1.235 . S
O82 Fe67 1.976 . S
O82 C76 1.287 . S
O83 Fe69 1.996 . S
O83 C76 1.255 . S
C84 O77 1.287 . S
C84 O78 1.255 . S
O85 Fe67 2.002 . S
O85 C81 1.295 . S
O86 Fe69 1.997 . S
O86 C81 1.235 . S
C87 O70 1.295 . S
C87 O71 1.235 . S
Fe88 O90 1.918 . S
Fe88 O93 1.997 . S
Fe88 O94 2.002 . S
Fe88 O99 1.976 1_565 S
Fe88 O102 1.996 1_565 S
Fe89 O90 1.918 . S
Fe89 O97 1.997 . S
Fe89 O100 1.996 . S
Fe89 O104 1.976 . S
Fe89 O107 2.002 . S
O90 Fe88 1.918 . S
O90 Fe89 1.918 . S
O90 Fe91 1.918 . S
Fe91 O90 1.918 . S
Fe91 O92 2.002 . S
Fe91 O101 1.976 . S
Fe91 O105 1.996 . S
Fe91 O108 1.997 . S
O92 Fe91 2.002 . S
O92 C109 1.295 . S
O93 Fe88 1.997 . S
O93 C109 1.235 . S
O94 Fe88 2.002 . S
O94 C95 1.295 . S
C95 O94 1.295 . S
C95 O97 1.235 . S
C96 O101 1.287 1_545 S
C96 O102 1.255 . S
O97 Fe89 1.997 . S
O97 C95 1.235 . S
C98 O104 1.287 . S
C98 O105 1.255 . S
O99 Fe88 1.976 1_545 S
O99 C106 1.287 . S
O100 Fe89 1.996 . S
O100 C106 1.255 1_565 S
O101 Fe91 1.976 . S
O101 C96 1.287 1_565 S
O102 Fe88 1.996 1_545 S
O102 C96 1.255 . S
C103 O107 1.295 . S
C103 O108 1.235 . S
O104 Fe89 1.976 . S
O104 C98 1.287 . S
O105 Fe91 1.996 . S
O105 C98 1.255 . S
C106 O99 1.287 . S
C106 O100 1.255 1_545 S
O107 Fe89 2.002 . S
O107 C103 1.295 . S
O108 Fe91 1.997 . S
O108 C103 1.235 . S
C109 O92 1.295 . S
C109 O93 1.235 . S
Fe110 O112 1.918 . S
Fe110 O115 1.997 . S
Fe110 O116 2.002 . S
Fe110 O121 1.976 1_455 S
Fe110 O124 1.996 1_455 S
Fe111 O112 1.918 . S
Fe111 O119 1.997 . S
Fe111 O122 1.996 . S
Fe111 O126 1.976 . S
Fe111 O129 2.002 . S
O112 Fe110 1.918 . S
O112 Fe111 1.918 . S
O112 Fe113 1.918 . S
Fe113 O112 1.918 . S
Fe113 O114 2.002 . S
Fe113 O123 1.976 . S
Fe113 O127 1.996 . S
Fe113 O130 1.997 . S
O114 Fe113 2.002 . S
O114 C131 1.295 . S
O115 Fe110 1.997 . S
O115 C131 1.235 . S
O116 Fe110 2.002 . S
O116 C117 1.295 . S
C117 O116 1.295 . S
C117 O119 1.235 . S
C118 O123 1.287 1_655 S
C118 O124 1.255 . S
O119 Fe111 1.997 . S
O119 C117 1.235 . S
C120 O126 1.287 . S
C120 O127 1.255 . S
O121 Fe110 1.976 1_655 S
O121 C128 1.287 . S
O122 Fe111 1.996 . S
O122 C128 1.255 1_455 S
O123 Fe113 1.976 . S
O123 C118 1.287 1_455 S
O124 Fe110 1.996 1_655 S
O124 C118 1.255 . S
C125 O129 1.295 . S
C125 O130 1.235 . S
O126 Fe111 1.976 . S
O126 C120 1.287 . S
O127 Fe113 1.996 . S
O127 C120 1.255 . S
C128 O121 1.287 . S
C128 O122 1.255 1_655 S
O129 Fe111 2.002 . S
O129 C125 1.295 . S
O130 Fe113 1.997 . S
O130 C125 1.235 . S
C131 O114 1.295 . S
C131 O115 1.235 . S
Fe132 O134 1.918 . S
Fe132 O137 1.997 . S
Fe132 O138 2.002 . S
Fe132 O143 1.976 . S
Fe132 O146 1.996 . S
Fe133 O134 1.918 . S
Fe133 O141 1.997 1_556 S
Fe133 O144 1.996 . S
Fe133 O148 1.976 . S
Fe133 O151 2.002 1_556 S
O134 Fe132 1.918 . S
O134 Fe133 1.918 . S
O134 Fe135 1.918 . S
Fe135 O134 1.918 . S
Fe135 O136 2.002 . S
Fe135 O145 1.976 . S
Fe135 O149 1.996 . S
Fe135 O152 1.997 . S
O136 Fe135 2.002 . S
O136 C153 1.295 . S
O137 Fe132 1.997 . S
O137 C153 1.235 . S
O138 Fe132 2.002 . S
O138 C139 1.295 . S
C139 O138 1.295 . S
C139 O141 1.235 1_556 S
C140 O145 1.287 . S
C140 O146 1.255 . S
O141 Fe133 1.997 1_554 S
O141 C139 1.235 1_554 S
C142 O148 1.287 . S
C142 O149 1.255 . S
O143 Fe132 1.976 . S
O143 C150 1.287 . S
O144 Fe133 1.996 . S
O144 C150 1.255 . S
O145 Fe135 1.976 . S
O145 C140 1.287 . S
O146 Fe132 1.996 . S
O146 C140 1.255 . S
C147 O151 1.295 1_556 S
C147 O152 1.235 . S
O148 Fe133 1.976 . S
O148 C142 1.287 . S
O149 Fe135 1.996 . S
O149 C142 1.255 . S
C150 O143 1.287 . S
C150 O144 1.255 . S
O151 Fe133 2.002 1_554 S
O151 C147 1.295 1_554 S
O152 Fe135 1.997 . S
O152 C147 1.235 . S
C153 O136 1.295 . S
C153 O137 1.235 . S
Fe154 O156 1.918 . S
Fe154 O159 1.997 . S
Fe154 O160 2.002 . S
Fe154 O165 1.976 . S
Fe154 O168 1.996 . S
Fe155 O156 1.918 . S
Fe155 O163 1.997 1_556 S
Fe155 O166 1.996 1_565 S
Fe155 O170 1.976 1_565 S
Fe155 O173 2.002 1_556 S
O156 Fe154 1.918 . S
O156 Fe155 1.918 . S
O156 Fe157 1.918 . S
Fe157 O156 1.918 . S
Fe157 O158 2.002 . S
Fe157 O167 1.976 . S
Fe157 O171 1.996 . S
Fe157 O174 1.997 . S
O158 Fe157 2.002 . S
O158 C175 1.295 . S
O159 Fe154 1.997 . S
O159 C175 1.235 . S
O160 Fe154 2.002 . S
O160 C161 1.295 . S
C161 O160 1.295 . S
C161 O163 1.235 1_556 S
C162 O167 1.287 . S
C162 O168 1.255 . S
O163 Fe155 1.997 1_554 S
O163 C161 1.235 1_554 S
C164 O170 1.287 . S
C164 O171 1.255 1_545 S
O165 Fe154 1.976 . S
O165 C172 1.287 1_565 S
O166 Fe155 1.996 1_545 S
O166 C172 1.255 . S
O167 Fe157 1.976 . S
O167 C162 1.287 . S
O168 Fe154 1.996 . S
O168 C162 1.255 . S
C169 O173 1.295 1_556 S
C169 O174 1.235 . S
O170 Fe155 1.976 1_545 S
O170 C164 1.287 . S
O171 Fe157 1.996 . S
O171 C164 1.255 1_565 S
C172 O165 1.287 1_545 S
C172 O166 1.255 . S
O173 Fe155 2.002 1_554 S
O173 C169 1.295 1_554 S
O174 Fe157 1.997 . S
O174 C169 1.235 . S
C175 O158 1.295 . S
C175 O159 1.235 . S
Fe176 O178 1.918 . S
Fe176 O181 1.997 . S
Fe176 O182 2.002 . S
Fe176 O187 1.976 . S
Fe176 O190 1.996 . S
Fe177 O178 1.918 . S
Fe177 O185 1.997 . S
Fe177 O188 1.996 . S
Fe177 O192 1.976 . S
Fe177 O195 2.002 . S
O178 Fe176 1.918 . S
O178 Fe177 1.918 . S
O178 Fe179 1.918 . S
Fe179 O178 1.918 . S
Fe179 O180 2.002 1_556 S
Fe179 O189 1.976 1_455 S
Fe179 O193 1.996 1_455 S
Fe179 O196 1.997 1_556 S
O180 Fe179 2.002 1_554 S
O180 C197 1.295 1_554 S
O181 Fe176 1.997 . S
O181 C197 1.235 . S
O182 Fe176 2.002 . S
O182 C183 1.295 . S
C183 O182 1.295 . S
C183 O185 1.235 . S
C184 O189 1.287 . S
C184 O190 1.255 1_655 S
O185 Fe177 1.997 . S
O185 C183 1.235 . S
C186 O192 1.287 1_655 S
C186 O193 1.255 . S
O187 Fe176 1.976 . S
O187 C194 1.287 . S
O188 Fe177 1.996 . S
O188 C194 1.255 . S
O189 Fe179 1.976 1_655 S
O189 C184 1.287 . S
O190 Fe176 1.996 . S
O190 C184 1.255 1_455 S
C191 O195 1.295 . S
C191 O196 1.235 1_556 S
O192 Fe177 1.976 . S
O192 C186 1.287 1_455 S
O193 Fe179 1.996 1_655 S
O193 C186 1.255 . S
C194 O187 1.287 . S
C194 O188 1.255 . S
O195 Fe177 2.002 . S
O195 C191 1.295 . S
O196 Fe179 1.997 1_554 S
O196 C191 1.235 1_554 S
C197 O180 1.295 1_556 S
C197 O181 1.235 . S
Fe198 O200 1.918 . S
Fe198 O203 1.997 . S
Fe198 O204 2.002 . S
Fe198 O209 1.976 . S
Fe198 O212 1.996 . S
Fe199 O200 1.918 . S
Fe199 O207 1.997 . S
Fe199 O210 1.996 . S
Fe199 O214 1.976 . S
Fe199 O217 2.002 . S
O200 Fe198 1.918 . S
O200 Fe199 1.918 . S
O200 Fe201 1.918 . S
Fe201 O200 1.918 . S
Fe201 O202 2.002 . S
Fe201 O211 1.976 . S
Fe201 O215 1.996 . S
Fe201 O218 1.997 . S
O202 Fe201 2.002 . S
O202 C219 1.295 . S
O203 Fe198 1.997 . S
O203 C219 1.235 . S
O204 Fe198 2.002 . S
O204 C205 1.295 . S
C205 O204 1.295 . S
C205 O207 1.235 . S
C206 O211 1.287 . S
C206 O212 1.255 . S
O207 Fe199 1.997 . S
O207 C205 1.235 . S
C208 O214 1.287 . S
C208 O215 1.255 . S
O209 Fe198 1.976 . S
O209 C216 1.287 . S
O210 Fe199 1.996 . S
O210 C216 1.255 . S
O211 Fe201 1.976 . S
O211 C206 1.287 . S
O212 Fe198 1.996 . S
O212 C206 1.255 . S
C213 O217 1.295 . S
C213 O218 1.235 . S
O214 Fe199 1.976 . S
O214 C208 1.287 . S
O215 Fe201 1.996 . S
O215 C208 1.255 . S
C216 O209 1.287 . S
C216 O210 1.255 . S
O217 Fe199 2.002 . S
O217 C213 1.295 . S
O218 Fe201 1.997 . S
O218 C213 1.235 . S
C219 O202 1.295 . S
C219 O203 1.235 . S
Fe220 O222 1.918 . S
Fe220 O225 1.997 . S
Fe220 O226 2.002 . S
Fe220 O231 1.976 . S
Fe220 O234 1.996 . S
Fe221 O222 1.918 . S
Fe221 O229 1.997 . S
Fe221 O232 1.996 1_545 S
Fe221 O236 1.976 1_545 S
Fe221 O239 2.002 . S
O222 Fe220 1.918 . S
O222 Fe221 1.918 . S
O222 Fe223 1.918 . S
Fe223 O222 1.918 . S
Fe223 O224 2.002 . S
Fe223 O233 1.976 . S
Fe223 O237 1.996 . S
Fe223 O240 1.997 . S
O224 Fe223 2.002 . S
O224 C241 1.295 . S
O225 Fe220 1.997 . S
O225 C241 1.235 . S
O226 Fe220 2.002 . S
O226 C227 1.295 . S
C227 O226 1.295 . S
C227 O229 1.235 . S
C228 O233 1.287 . S
C228 O234 1.255 . S
O229 Fe221 1.997 . S
O229 C227 1.235 . S
C230 O236 1.287 . S
C230 O237 1.255 1_565 S
O231 Fe220 1.976 . S
O231 C238 1.287 1_545 S
O232 Fe221 1.996 1_565 S
O232 C238 1.255 . S
O233 Fe223 1.976 . S
O233 C228 1.287 . S
O234 Fe220 1.996 . S
O234 C228 1.255 . S
C235 O239 1.295 . S
C235 O240 1.235 . S
O236 Fe221 1.976 1_565 S
O236 C230 1.287 . S
O237 Fe223 1.996 . S
O237 C230 1.255 1_545 S
C238 O231 1.287 1_565 S
C238 O232 1.255 . S
O239 Fe221 2.002 . S
O239 C235 1.295 . S
O240 Fe223 1.997 . S
O240 C235 1.235 . S
C241 O224 1.295 . S
C241 O225 1.235 . S
Fe242 O244 1.918 . S
Fe242 O247 1.997 . S
Fe242 O248 2.002 . S
Fe242 O253 1.976 1_655 S
Fe242 O256 1.996 1_655 S
Fe243 O244 1.918 . S
Fe243 O251 1.997 . S
Fe243 O254 1.996 . S
Fe243 O258 1.976 . S
Fe243 O261 2.002 . S
O244 Fe242 1.918 . S
O244 Fe243 1.918 . S
O244 Fe245 1.918 . S
Fe245 O244 1.918 . S
Fe245 O246 2.002 . S
Fe245 O255 1.976 . S
Fe245 O259 1.996 . S
Fe245 O262 1.997 . S
O246 Fe245 2.002 . S
O246 C263 1.295 . S
O247 Fe242 1.997 . S
O247 C263 1.235 . S
O248 Fe242 2.002 . S
O248 C249 1.295 . S
C249 O248 1.295 . S
C249 O251 1.235 . S
C250 O255 1.287 1_455 S
C250 O256 1.255 . S
O251 Fe243 1.997 . S
O251 C249 1.235 . S
C252 O258 1.287 . S
C252 O259 1.255 . S
O253 Fe242 1.976 1_455 S
O253 C260 1.287 . S
O254 Fe243 1.996 . S
O254 C260 1.255 1_655 S
O255 Fe245 1.976 . S
O255 C250 1.287 1_655 S
O256 Fe242 1.996 1_455 S
O256 C250 1.255 . S
C257 O261 1.295 . S
C257 O262 1.235 . S
O258 Fe243 1.976 . S
O258 C252 1.287 . S
O259 Fe245 1.996 . S
O259 C252 1.255 . S
C260 O253 1.287 . S
C260 O254 1.255 1_455 S
O261 Fe243 2.002 . S
O261 C257 1.295 . S
O262 Fe245 1.997 . S
O262 C257 1.235 . S
C263 O246 1.295 . S
C263 O247 1.235 . S
Fe264 O266 1.918 . S
Fe264 O269 1.997 . S
Fe264 O270 2.002 . S
Fe264 O275 1.976 . S
Fe264 O278 1.996 . S
Fe265 O266 1.918 . S
Fe265 O273 1.997 . S
Fe265 O276 1.996 . S
Fe265 O280 1.976 . S
Fe265 O283 2.002 . S
O266 Fe264 1.918 . S
O266 Fe265 1.918 . S
O266 Fe267 1.918 . S
Fe267 O266 1.918 . S
Fe267 O268 2.002 . S
Fe267 O277 1.976 . S
Fe267 O281 1.996 . S
Fe267 O284 1.997 . S
O268 Fe267 2.002 . S
O268 C285 1.295 . S
O269 Fe264 1.997 . S
O269 C285 1.235 . S
O270 Fe264 2.002 . S
O270 C271 1.295 . S
C271 O270 1.295 . S
C271 O273 1.235 . S
C272 O277 1.287 . S
C272 O278 1.255 . S
O273 Fe265 1.997 . S
O273 C271 1.235 . S
C274 O280 1.287 . S
C274 O281 1.255 . S
O275 Fe264 1.976 . S
O275 C282 1.287 . S
O276 Fe265 1.996 . S
O276 C282 1.255 . S
O277 Fe267 1.976 . S
O277 C272 1.287 . S
O278 Fe264 1.996 . S
O278 C272 1.255 . S
C279 O283 1.295 . S
C279 O284 1.235 . S
O280 Fe265 1.976 . S
O280 C274 1.287 . S
O281 Fe267 1.996 . S
O281 C274 1.255 . S
C282 O275 1.287 . S
C282 O276 1.255 . S
O283 Fe265 2.002 . S
O283 C279 1.295 . S
O284 Fe267 1.997 . S
O284 C279 1.235 . S
C285 O268 1.295 . S
C285 O269 1.235 . S
Fe286 O288 1.918 . S
Fe286 O291 1.997 . S
Fe286 O292 2.002 . S
Fe286 O297 1.976 . S
Fe286 O300 1.996 . S
Fe287 O288 1.918 . S
Fe287 O295 1.997 . S
Fe287 O298 1.996 . S
Fe287 O302 1.976 . S
Fe287 O305 2.002 . S
O288 Fe286 1.918 . S
O288 Fe287 1.918 . S
O288 Fe289 1.918 . S
Fe289 O288 1.918 . S
Fe289 O290 2.002 . S
Fe289 O299 1.976 . S
Fe289 O303 1.996 . S
Fe289 O306 1.997 . S
O290 Fe289 2.002 . S
O290 C307 1.295 . S
O291 Fe286 1.997 . S
O291 C307 1.235 . S
O292 Fe286 2.002 . S
O292 C293 1.295 . S
C293 O292 1.295 . S
C293 O295 1.235 . S
C294 O299 1.287 . S
C294 O300 1.255 . S
O295 Fe287 1.997 . S
O295 C293 1.235 . S
C296 O302 1.287 . S
C296 O303 1.255 . S
O297 Fe286 1.976 . S
O297 C304 1.287 . S
O298 Fe287 1.996 . S
O298 C304 1.255 . S
O299 Fe289 1.976 . S
O299 C294 1.287 . S
O300 Fe286 1.996 . S
O300 C294 1.255 . S
C301 O305 1.295 . S
C301 O306 1.235 . S
O302 Fe287 1.976 . S
O302 C296 1.287 . S
O303 Fe289 1.996 . S
O303 C296 1.255 . S
C304 O297 1.287 . S
C304 O298 1.255 . S
O305 Fe287 2.002 . S
O305 C301 1.295 . S
O306 Fe289 1.997 . S
O306 C301 1.235 . S
C307 O290 1.295 . S
C307 O291 1.235 . S
Fe308 O310 1.918 . S
Fe308 O313 1.997 . S
Fe308 O314 2.002 . S
Fe308 O319 1.976 . S
Fe308 O322 1.996 . S
Fe309 O310 1.918 . S
Fe309 O317 1.997 . S
Fe309 O320 1.996 . S
Fe309 O324 1.976 . S
Fe309 O327 2.002 . S
O310 Fe308 1.918 . S
O310 Fe309 1.918 . S
O310 Fe311 1.918 . S
Fe311 O310 1.918 . S
Fe311 O312 2.002 . S
Fe311 O321 1.976 . S
Fe311 O325 1.996 . S
Fe311 O328 1.997 . S
O312 Fe311 2.002 . S
O312 C329 1.295 . S
O313 Fe308 1.997 . S
O313 C329 1.235 . S
O314 Fe308 2.002 . S
O314 C315 1.295 . S
C315 O314 1.295 . S
C315 O317 1.235 . S
C316 O321 1.287 . S
C316 O322 1.255 . S
O317 Fe309 1.997 . S
O317 C315 1.235 . S
C318 O324 1.287 . S
C318 O325 1.255 . S
O319 Fe308 1.976 . S
O319 C326 1.287 . S
O320 Fe309 1.996 . S
O320 C326 1.255 . S
O321 Fe311 1.976 . S
O321 C316 1.287 . S
O322 Fe308 1.996 . S
O322 C316 1.255 . S
C323 O327 1.295 . S
C323 O328 1.235 . S
O324 Fe309 1.976 . S
O324 C318 1.287 . S
O325 Fe311 1.996 . S
O325 C318 1.255 . S
C326 O319 1.287 . S
C326 O320 1.255 . S
O327 Fe309 2.002 . S
O327 C323 1.295 . S
O328 Fe311 1.997 . S
O328 C323 1.235 . S
C329 O312 1.295 . S
C329 O313 1.235 . S
Fe330 O332 1.918 . S
Fe330 O335 1.997 . S
Fe330 O336 2.002 . S
Fe330 O341 1.976 . S
Fe330 O344 1.996 . S
Fe331 O332 1.918 . S
Fe331 O339 1.997 . S
Fe331 O342 1.996 . S
Fe331 O346 1.976 . S
Fe331 O349 2.002 . S
O332 Fe330 1.918 . S
O332 Fe331 1.918 . S
O332 Fe333 1.918 . S
Fe333 O332 1.918 . S
Fe333 O334 2.002 . S
Fe333 O343 1.976 . S
Fe333 O347 1.996 . S
Fe333 O350 1.997 . S
O334 Fe333 2.002 . S
O334 C351 1.295 . S
O335 Fe330 1.997 . S
O335 C351 1.235 . S
O336 Fe330 2.002 . S
O336 C337 1.295 . S
C337 O336 1.295 . S
C337 O339 1.235 . S
C338 O343 1.287 . S
C338 O344 1.255 . S
O339 Fe331 1.997 . S
O339 C337 1.235 . S
C340 O346 1.287 . S
C340 O347 1.255 . S
O341 Fe330 1.976 . S
O341 C348 1.287 . S
O342 Fe331 1.996 . S
O342 C348 1.255 . S
O343 Fe333 1.976 . S
O343 C338 1.287 . S
O344 Fe330 1.996 . S
O344 C338 1.255 . S
C345 O349 1.295 . S
C345 O350 1.235 . S
O346 Fe331 1.976 . S
O346 C340 1.287 . S
O347 Fe333 1.996 . S
O347 C340 1.255 . S
C348 O341 1.287 . S
C348 O342 1.255 . S
O349 Fe331 2.002 . S
O349 C345 1.295 . S
O350 Fe333 1.997 . S
O350 C345 1.235 . S
C351 O334 1.295 . S
C351 O335 1.235 . S
Fe352 O354 1.918 . S
Fe352 O357 1.997 . S
Fe352 O358 2.002 . S
Fe352 O363 1.976 . S
Fe352 O366 1.996 . S
Fe353 O354 1.918 . S
Fe353 O361 1.997 . S
Fe353 O364 1.996 . S
Fe353 O368 1.976 . S
Fe353 O371 2.002 . S
O354 Fe352 1.918 . S
O354 Fe353 1.918 . S
O354 Fe355 1.918 . S
Fe355 O354 1.918 . S
Fe355 O356 2.002 . S
Fe355 O365 1.976 . S
Fe355 O369 1.996 . S
Fe355 O372 1.997 . S
O356 Fe355 2.002 . S
O356 C373 1.295 . S
O357 Fe352 1.997 . S
O357 C373 1.235 . S
O358 Fe352 2.002 . S
O358 C359 1.295 . S
C359 O358 1.295 . S
C359 O361 1.235 . S
C360 O365 1.287 . S
C360 O366 1.255 . S
O361 Fe353 1.997 . S
O361 C359 1.235 . S
C362 O368 1.287 . S
C362 O369 1.255 . S
O363 Fe352 1.976 . S
O363 C370 1.287 . S
O364 Fe353 1.996 . S
O364 C370 1.255 . S
O365 Fe355 1.976 . S
O365 C360 1.287 . S
O366 Fe352 1.996 . S
O366 C360 1.255 . S
C367 O371 1.295 . S
C367 O372 1.235 . S
O368 Fe353 1.976 . S
O368 C362 1.287 . S
O369 Fe355 1.996 . S
O369 C362 1.255 . S
C370 O363 1.287 . S
C370 O364 1.255 . S
O371 Fe353 2.002 . S
O371 C367 1.295 . S
O372 Fe355 1.997 . S
O372 C367 1.235 . S
C373 O356 1.295 . S
C373 O357 1.235 . S
Fe374 O376 1.918 . S
Fe374 O379 1.997 . S
Fe374 O380 2.002 . S
Fe374 O385 1.976 . S
Fe374 O388 1.996 . S
Fe375 O376 1.918 . S
Fe375 O383 1.997 . S
Fe375 O386 1.996 . S
Fe375 O390 1.976 . S
Fe375 O393 2.002 . S
O376 Fe374 1.918 . S
O376 Fe375 1.918 . S
O376 Fe377 1.918 . S
Fe377 O376 1.918 . S
Fe377 O378 2.002 . S
Fe377 O387 1.976 . S
Fe377 O391 1.996 . S
Fe377 O394 1.997 . S
O378 Fe377 2.002 . S
O378 C395 1.295 . S
O379 Fe374 1.997 . S
O379 C395 1.235 . S
O380 Fe374 2.002 . S
O380 C381 1.295 . S
C381 O380 1.295 . S
C381 O383 1.235 . S
C382 O387 1.287 . S
C382 O388 1.255 . S
O383 Fe375 1.997 . S
O383 C381 1.235 . S
C384 O390 1.287 . S
C384 O391 1.255 . S
O385 Fe374 1.976 . S
O385 C392 1.287 . S
O386 Fe375 1.996 . S
O386 C392 1.255 . S
O387 Fe377 1.976 . S
O387 C382 1.287 . S
O388 Fe374 1.996 . S
O388 C382 1.255 . S
C389 O393 1.295 . S
C389 O394 1.235 . S
O390 Fe375 1.976 . S
O390 C384 1.287 . S
O391 Fe377 1.996 . S
O391 C384 1.255 . S
C392 O385 1.287 . S
C392 O386 1.255 . S
O393 Fe375 2.002 . S
O393 C389 1.295 . S
O394 Fe377 1.997 . S
O394 C389 1.235 . S
C395 O378 1.295 . S
C395 O379 1.235 . S
Fe396 O398 1.918 . S
Fe396 O401 1.997 . S
Fe396 O402 2.002 . S
Fe396 O407 1.976 . S
Fe396 O410 1.996 . S
Fe397 O398 1.918 . S
Fe397 O405 1.997 . S
Fe397 O408 1.996 . S
Fe397 O412 1.976 . S
Fe397 O415 2.002 . S
O398 Fe396 1.918 . S
O398 Fe397 1.918 . S
O398 Fe399 1.918 . S
Fe399 O398 1.918 . S
Fe399 O400 2.002 . S
Fe399 O409 1.976 . S
Fe399 O413 1.996 . S
Fe399 O416 1.997 . S
O400 Fe399 2.002 . S
O400 C417 1.295 . S
O401 Fe396 1.997 . S
O401 C417 1.235 . S
O402 Fe396 2.002 . S
O402 C403 1.295 . S
C403 O402 1.295 . S
C403 O405 1.235 . S
C404 O409 1.287 . S
C404 O410 1.255 . S
O405 Fe397 1.997 . S
O405 C403 1.235 . S
C406 O412 1.287 . S
C406 O413 1.255 . S
O407 Fe396 1.976 . S
O407 C414 1.287 . S
O408 Fe397 1.996 . S
O408 C414 1.255 . S
O409 Fe399 1.976 . S
O409 C404 1.287 . S
O410 Fe396 1.996 . S
O410 C404 1.255 . S
C411 O415 1.295 . S
C411 O416 1.235 . S
O412 Fe397 1.976 . S
O412 C406 1.287 . S
O413 Fe399 1.996 . S
O413 C406 1.255 . S
C414 O407 1.287 . S
C414 O408 1.255 . S
O415 Fe397 2.002 . S
O415 C411 1.295 . S
O416 Fe399 1.997 . S
O416 C411 1.235 . S
C417 O400 1.295 . S
C417 O401 1.235 . S
Fe418 O420 1.918 . S
Fe418 O423 1.997 . S
Fe418 O424 2.002 . S
Fe418 O429 1.976 . S
Fe418 O432 1.996 . S
Fe419 O420 1.918 . S
Fe419 O427 1.997 . S
Fe419 O430 1.996 . S
Fe419 O434 1.976 . S
Fe419 O437 2.002 . S
O420 Fe418 1.918 . S
O420 Fe419 1.918 . S
O420 Fe421 1.918 . S
Fe421 O420 1.918 . S
Fe421 O422 2.002 . S
Fe421 O431 1.976 . S
Fe421 O435 1.996 . S
Fe421 O438 1.997 . S
O422 Fe421 2.002 . S
O422 C439 1.295 . S
O423 Fe418 1.997 . S
O423 C439 1.235 . S
O424 Fe418 2.002 . S
O424 C425 1.295 . S
C425 O424 1.295 . S
C425 O427 1.235 . S
C426 O431 1.287 . S
C426 O432 1.255 . S
O427 Fe419 1.997 . S
O427 C425 1.235 . S
C428 O434 1.287 . S
C428 O435 1.255 . S
O429 Fe418 1.976 . S
O429 C436 1.287 . S
O430 Fe419 1.996 . S
O430 C436 1.255 . S
O431 Fe421 1.976 . S
O431 C426 1.287 . S
O432 Fe418 1.996 . S
O432 C426 1.255 . S
C433 O437 1.295 . S
C433 O438 1.235 . S
O434 Fe419 1.976 . S
O434 C428 1.287 . S
O435 Fe421 1.996 . S
O435 C428 1.255 . S
C436 O429 1.287 . S
C436 O430 1.255 . S
O437 Fe419 2.002 . S
O437 C433 1.295 . S
O438 Fe421 1.997 . S
O438 C433 1.235 . S
C439 O422 1.295 . S
C439 O423 1.235 . S
Fe440 O442 1.918 . S
Fe440 O445 1.997 . S
Fe440 O446 2.002 . S
Fe440 O451 1.976 . S
Fe440 O454 1.996 . S
Fe441 O442 1.918 . S
Fe441 O449 1.997 . S
Fe441 O452 1.996 . S
Fe441 O456 1.976 . S
Fe441 O459 2.002 . S
O442 Fe440 1.918 . S
O442 Fe441 1.918 . S
O442 Fe443 1.918 . S
Fe443 O442 1.918 . S
Fe443 O444 2.002 . S
Fe443 O453 1.976 . S
Fe443 O457 1.996 . S
Fe443 O460 1.997 . S
O444 Fe443 2.002 . S
O444 C461 1.295 . S
O445 Fe440 1.997 . S
O445 C461 1.235 . S
O446 Fe440 2.002 . S
O446 C447 1.295 . S
C447 O446 1.295 . S
C447 O449 1.235 . S
C448 O453 1.287 . S
C448 O454 1.255 . S
O449 Fe441 1.997 . S
O449 C447 1.235 . S
C450 O456 1.287 . S
C450 O457 1.255 . S
O451 Fe440 1.976 . S
O451 C458 1.287 . S
O452 Fe441 1.996 . S
O452 C458 1.255 . S
O453 Fe443 1.976 . S
O453 C448 1.287 . S
O454 Fe440 1.996 . S
O454 C448 1.255 . S
C455 O459 1.295 . S
C455 O460 1.235 . S
O456 Fe441 1.976 . S
O456 C450 1.287 . S
O457 Fe443 1.996 . S
O457 C450 1.255 . S
C458 O451 1.287 . S
C458 O452 1.255 . S
O459 Fe441 2.002 . S
O459 C455 1.295 . S
O460 Fe443 1.997 . S
O460 C455 1.235 . S
C461 O444 1.295 . S
C461 O445 1.235 . S
Fe462 O464 1.918 . S
Fe462 O467 1.997 . S
Fe462 O468 2.002 . S
Fe462 O473 1.976 . S
Fe462 O476 1.996 . S
Fe463 O464 1.918 . S
Fe463 O471 1.997 . S
Fe463 O474 1.996 . S
Fe463 O478 1.976 . S
Fe463 O481 2.002 . S
O464 Fe462 1.918 . S
O464 Fe463 1.918 . S
O464 Fe465 1.918 . S
Fe465 O464 1.918 . S
Fe465 O466 2.002 . S
Fe465 O475 1.976 . S
Fe465 O479 1.996 . S
Fe465 O482 1.997 . S
O466 Fe465 2.002 . S
O466 C483 1.295 . S
O467 Fe462 1.997 . S
O467 C483 1.235 . S
O468 Fe462 2.002 . S
O468 C469 1.295 . S
C469 O468 1.295 . S
C469 O471 1.235 . S
C470 O475 1.287 . S
C470 O476 1.255 . S
O471 Fe463 1.997 . S
O471 C469 1.235 . S
C472 O478 1.287 1_554 S
C472 O479 1.255 1_554 S
O473 Fe462 1.976 . S
O473 C480 1.287 . S
O474 Fe463 1.996 . S
O474 C480 1.255 . S
O475 Fe465 1.976 . S
O475 C470 1.287 . S
O476 Fe462 1.996 . S
O476 C470 1.255 . S
C477 O481 1.295 . S
C477 O482 1.235 . S
O478 Fe463 1.976 . S
O478 C472 1.287 1_556 S
O479 Fe465 1.996 . S
O479 C472 1.255 1_556 S
C480 O473 1.287 . S
C480 O474 1.255 . S
O481 Fe463 2.002 . S
O481 C477 1.295 . S
O482 Fe465 1.997 . S
O482 C477 1.235 . S
C483 O466 1.295 . S
C483 O467 1.235 . S
Fe484 O486 1.918 . S
Fe484 O489 1.997 . S
Fe484 O490 2.002 . S
Fe484 O495 1.976 . S
Fe484 O498 1.996 . S
Fe485 O486 1.918 . S
Fe485 O493 1.997 . S
Fe485 O496 1.996 . S
Fe485 O500 1.976 . S
Fe485 O503 2.002 . S
O486 Fe484 1.918 . S
O486 Fe485 1.918 . S
O486 Fe487 1.918 . S
Fe487 O486 1.918 . S
Fe487 O488 2.002 . S
Fe487 O497 1.976 . S
Fe487 O501 1.996 . S
Fe487 O504 1.997 . S
O488 Fe487 2.002 . S
O488 C505 1.295 . S
O489 Fe484 1.997 . S
O489 C505 1.235 . S
O490 Fe484 2.002 . S
O490 C491 1.295 . S
C491 O490 1.295 . S
C491 O493 1.235 . S
C492 O497 1.287 1_554 S
C492 O498 1.255 1_554 S
O493 Fe485 1.997 . S
O493 C491 1.235 . S
C494 O500 1.287 . S
C494 O501 1.255 . S
O495 Fe484 1.976 . S
O495 C502 1.287 . S
O496 Fe485 1.996 . S
O496 C502 1.255 . S
O497 Fe487 1.976 . S
O497 C492 1.287 1_556 S
O498 Fe484 1.996 . S
O498 C492 1.255 1_556 S
C499 O503 1.295 . S
C499 O504 1.235 . S
O500 Fe485 1.976 . S
O500 C494 1.287 . S
O501 Fe487 1.996 . S
O501 C494 1.255 . S
C502 O495 1.287 . S
C502 O496 1.255 . S
O503 Fe485 2.002 . S
O503 C499 1.295 . S
O504 Fe487 1.997 . S
O504 C499 1.235 . S
C505 O488 1.295 . S
C505 O489 1.235 . S
Fe506 O508 1.918 . S
Fe506 O511 1.997 . S
Fe506 O512 2.002 . S
Fe506 O517 1.976 . S
Fe506 O520 1.996 . S
Fe507 O508 1.918 . S
Fe507 O515 1.997 . S
Fe507 O518 1.996 . S
Fe507 O522 1.976 . S
Fe507 O525 2.002 . S
O508 Fe506 1.918 . S
O508 Fe507 1.918 . S
O508 Fe509 1.918 . S
Fe509 O508 1.918 . S
Fe509 O510 2.002 . S
Fe509 O519 1.976 . S
Fe509 O523 1.996 . S
Fe509 O526 1.997 . S
O510 Fe509 2.002 . S
O510 C527 1.295 . S
O511 Fe506 1.997 . S
O511 C527 1.235 . S
O512 Fe506 2.002 . S
O512 C513 1.295 . S
C513 O512 1.295 . S
C513 O515 1.235 . S
C514 O519 1.287 . S
C514 O520 1.255 . S
O515 Fe507 1.997 . S
O515 C513 1.235 . S
C516 O522 1.287 1_554 S
C516 O523 1.255 1_554 S
O517 Fe506 1.976 . S
O517 C524 1.287 . S
O518 Fe507 1.996 . S
O518 C524 1.255 . S
O519 Fe509 1.976 . S
O519 C514 1.287 . S
O520 Fe506 1.996 . S
O520 C514 1.255 . S
C521 O525 1.295 . S
C521 O526 1.235 . S
O522 Fe507 1.976 . S
O522 C516 1.287 1_556 S
O523 Fe509 1.996 . S
O523 C516 1.255 1_556 S
C524 O517 1.287 . S
C524 O518 1.255 . S
O525 Fe507 2.002 . S
O525 C521 1.295 . S
O526 Fe509 1.997 . S
O526 C521 1.235 . S
C527 O510 1.295 . S
C527 O511 1.235 . S
Fe528 O530 1.918 . S
Fe528 O533 1.997 . S
Fe528 O534 2.002 . S
Fe528 O539 1.976 . S
Fe528 O542 1.996 . S
Fe529 O530 1.918 . S
Fe529 O537 1.997 . S
Fe529 O540 1.996 . S
Fe529 O544 1.976 . S
Fe529 O547 2.002 . S
O530 Fe528 1.918 . S
O530 Fe529 1.918 . S
O530 Fe531 1.918 . S
Fe531 O530 1.918 . S
Fe531 O532 2.002 . S
Fe531 O541 1.976 . S
Fe531 O545 1.996 . S
Fe531 O548 1.997 . S
O532 Fe531 2.002 . S
O532 C549 1.295 . S
O533 Fe528 1.997 . S
O533 C549 1.235 . S
O534 Fe528 2.002 . S
O534 C535 1.295 . S
C535 O534 1.295 . S
C535 O537 1.235 . S
C536 O541 1.287 . S
C536 O542 1.255 . S
O537 Fe529 1.997 . S
O537 C535 1.235 . S
C538 O544 1.287 . S
C538 O545 1.255 . S
O539 Fe528 1.976 . S
O539 C546 1.287 . S
O540 Fe529 1.996 . S
O540 C546 1.255 . S
O541 Fe531 1.976 . S
O541 C536 1.287 . S
O542 Fe528 1.996 . S
O542 C536 1.255 . S
C543 O547 1.295 . S
C543 O548 1.235 . S
O544 Fe529 1.976 . S
O544 C538 1.287 . S
O545 Fe531 1.996 . S
O545 C538 1.255 . S
C546 O539 1.287 . S
C546 O540 1.255 . S
O547 Fe529 2.002 . S
O547 C543 1.295 . S
O548 Fe531 1.997 . S
O548 C543 1.235 . S
C549 O532 1.295 . S
C549 O533 1.235 . S
Fe550 O552 1.918 . S
Fe550 O555 1.997 . S
Fe550 O556 2.002 . S
Fe550 O561 1.976 . S
Fe550 O564 1.996 . S
Fe551 O552 1.918 . S
Fe551 O559 1.997 . S
Fe551 O562 1.996 . S
Fe551 O566 1.976 . S
Fe551 O569 2.002 . S
O552 Fe550 1.918 . S
O552 Fe551 1.918 . S
O552 Fe553 1.918 . S
Fe553 O552 1.918 . S
Fe553 O554 2.002 . S
Fe553 O563 1.976 . S
Fe553 O567 1.996 . S
Fe553 O570 1.997 . S
O554 Fe553 2.002 . S
O554 C571 1.295 . S
O555 Fe550 1.997 . S
O555 C571 1.235 . S
O556 Fe550 2.002 . S
O556 C557 1.295 . S
C557 O556 1.295 . S
C557 O559 1.235 . S
C558 O563 1.287 . S
C558 O564 1.255 . S
O559 Fe551 1.997 . S
O559 C557 1.235 . S
C560 O566 1.287 . S
C560 O567 1.255 . S
O561 Fe550 1.976 . S
O561 C568 1.287 . S
O562 Fe551 1.996 . S
O562 C568 1.255 . S
O563 Fe553 1.976 . S
O563 C558 1.287 . S
O564 Fe550 1.996 . S
O564 C558 1.255 . S
C565 O569 1.295 . S
C565 O570 1.235 . S
O566 Fe551 1.976 . S
O566 C560 1.287 . S
O567 Fe553 1.996 . S
O567 C560 1.255 . S
C568 O561 1.287 . S
C568 O562 1.255 . S
O569 Fe551 2.002 . S
O569 C565 1.295 . S
O570 Fe553 1.997 . S
O570 C565 1.235 . S
C571 O554 1.295 . S
C571 O555 1.235 . S
Fe572 O574 1.918 . S
Fe572 O577 1.997 . S
Fe572 O578 2.002 . S
Fe572 O583 1.976 . S
Fe572 O586 1.996 . S
Fe573 O574 1.918 . S
Fe573 O581 1.997 . S
Fe573 O584 1.996 . S
Fe573 O588 1.976 . S
Fe573 O591 2.002 . S
O574 Fe572 1.918 . S
O574 Fe573 1.918 . S
O574 Fe575 1.918 . S
Fe575 O574 1.918 . S
Fe575 O576 2.002 . S
Fe575 O585 1.976 . S
Fe575 O589 1.996 . S
Fe575 O592 1.997 . S
O576 Fe575 2.002 . S
O576 C593 1.295 . S
O577 Fe572 1.997 . S
O577 C593 1.235 . S
O578 Fe572 2.002 . S
O578 C579 1.295 . S
C579 O578 1.295 . S
C579 O581 1.235 . S
C580 O585 1.287 . S
C580 O586 1.255 . S
O581 Fe573 1.997 . S
O581 C579 1.235 . S
C582 O588 1.287 . S
C582 O589 1.255 . S
O583 Fe572 1.976 . S
O583 C590 1.287 . S
O584 Fe573 1.996 . S
O584 C590 1.255 . S
O585 Fe575 1.976 . S
O585 C580 1.287 . S
O586 Fe572 1.996 . S
O586 C580 1.255 . S
C587 O591 1.295 . S
C587 O592 1.235 . S
O588 Fe573 1.976 . S
O588 C582 1.287 . S
O589 Fe575 1.996 . S
O589 C582 1.255 . S
C590 O583 1.287 . S
C590 O584 1.255 . S
O591 Fe573 2.002 . S
O591 C587 1.295 . S
O592 Fe575 1.997 . S
O592 C587 1.235 . S
C593 O576 1.295 . S
C593 O577 1.235 . S
Fe594 O596 1.918 . S
Fe594 O599 1.997 . S
Fe594 O600 2.002 . S
Fe594 O605 1.976 . S
Fe594 O608 1.996 . S
Fe595 O596 1.918 . S
Fe595 O603 1.997 . S
Fe595 O606 1.996 . S
Fe595 O610 1.976 . S
Fe595 O613 2.002 . S
O596 Fe594 1.918 . S
O596 Fe595 1.918 . S
O596 Fe597 1.918 . S
Fe597 O596 1.918 . S
Fe597 O598 2.002 . S
Fe597 O607 1.976 . S
Fe597 O611 1.996 . S
Fe597 O614 1.997 . S
O598 Fe597 2.002 . S
O598 C615 1.295 . S
O599 Fe594 1.997 . S
O599 C615 1.235 . S
O600 Fe594 2.002 . S
O600 C601 1.295 . S
C601 O600 1.295 . S
C601 O603 1.235 . S
C602 O607 1.287 . S
C602 O608 1.255 . S
O603 Fe595 1.997 . S
O603 C601 1.235 . S
C604 O610 1.287 1_556 S
C604 O611 1.255 1_556 S
O605 Fe594 1.976 . S
O605 C612 1.287 . S
O606 Fe595 1.996 . S
O606 C612 1.255 . S
O607 Fe597 1.976 . S
O607 C602 1.287 . S
O608 Fe594 1.996 . S
O608 C602 1.255 . S
C609 O613 1.295 . S
C609 O614 1.235 . S
O610 Fe595 1.976 . S
O610 C604 1.287 1_554 S
O611 Fe597 1.996 . S
O611 C604 1.255 1_554 S
C612 O605 1.287 . S
C612 O606 1.255 . S
O613 Fe595 2.002 . S
O613 C609 1.295 . S
O614 Fe597 1.997 . S
O614 C609 1.235 . S
C615 O598 1.295 . S
C615 O599 1.235 . S
Fe616 O618 1.918 . S
Fe616 O621 1.997 . S
Fe616 O622 2.002 . S
Fe616 O627 1.976 . S
Fe616 O630 1.996 . S
Fe617 O618 1.918 . S
Fe617 O625 1.997 . S
Fe617 O628 1.996 . S
Fe617 O632 1.976 . S
Fe617 O635 2.002 . S
O618 Fe616 1.918 . S
O618 Fe617 1.918 . S
O618 Fe619 1.918 . S
Fe619 O618 1.918 . S
Fe619 O620 2.002 . S
Fe619 O629 1.976 . S
Fe619 O633 1.996 . S
Fe619 O636 1.997 . S
O620 Fe619 2.002 . S
O620 C637 1.295 . S
O621 Fe616 1.997 . S
O621 C637 1.235 . S
O622 Fe616 2.002 . S
O622 C623 1.295 . S
C623 O622 1.295 . S
C623 O625 1.235 . S
C624 O629 1.287 . S
C624 O630 1.255 . S
O625 Fe617 1.997 . S
O625 C623 1.235 . S
C626 O632 1.287 1_556 S
C626 O633 1.255 1_556 S
O627 Fe616 1.976 . S
O627 C634 1.287 . S
O628 Fe617 1.996 . S
O628 C634 1.255 . S
O629 Fe619 1.976 . S
O629 C624 1.287 . S
O630 Fe616 1.996 . S
O630 C624 1.255 . S
C631 O635 1.295 . S
C631 O636 1.235 . S
O632 Fe617 1.976 . S
O632 C626 1.287 1_554 S
O633 Fe619 1.996 . S
O633 C626 1.255 1_554 S
C634 O627 1.287 . S
C634 O628 1.255 . S
O635 Fe617 2.002 . S
O635 C631 1.295 . S
O636 Fe619 1.997 . S
O636 C631 1.235 . S
C637 O620 1.295 . S
C637 O621 1.235 . S
Fe638 O640 1.918 . S
Fe638 O643 1.997 . S
Fe638 O644 2.002 . S
Fe638 O649 1.976 . S
Fe638 O652 1.996 . S
Fe639 O640 1.918 . S
Fe639 O647 1.997 . S
Fe639 O650 1.996 . S
Fe639 O654 1.976 . S
Fe639 O657 2.002 . S
O640 Fe638 1.918 . S
O640 Fe639 1.918 . S
O640 Fe641 1.918 . S
Fe641 O640 1.918 . S
Fe641 O642 2.002 . S
Fe641 O651 1.976 . S
Fe641 O655 1.996 . S
Fe641 O658 1.997 . S
O642 Fe641 2.002 . S
O642 C659 1.295 . S
O643 Fe638 1.997 . S
O643 C659 1.235 . S
O644 Fe638 2.002 . S
O644 C645 1.295 . S
C645 O644 1.295 . S
C645 O647 1.235 . S
C646 O651 1.287 1_556 S
C646 O652 1.255 1_556 S
O647 Fe639 1.997 . S
O647 C645 1.235 . S
C648 O654 1.287 . S
C648 O655 1.255 . S
O649 Fe638 1.976 . S
O649 C656 1.287 . S
O650 Fe639 1.996 . S
O650 C656 1.255 . S
O651 Fe641 1.976 . S
O651 C646 1.287 1_554 S
O652 Fe638 1.996 . S
O652 C646 1.255 1_554 S
C653 O657 1.295 . S
C653 O658 1.235 . S
O654 Fe639 1.976 . S
O654 C648 1.287 . S
O655 Fe641 1.996 . S
O655 C648 1.255 . S
C656 O649 1.287 . S
C656 O650 1.255 . S
O657 Fe639 2.002 . S
O657 C653 1.295 . S
O658 Fe641 1.997 . S
O658 C653 1.235 . S
C659 O642 1.295 . S
C659 O643 1.235 . S
Fe660 O662 1.918 . S
Fe660 O665 1.997 . S
Fe660 O666 2.002 . S
Fe660 O671 1.976 . S
Fe660 O674 1.996 . S
Fe661 O662 1.918 . S
Fe661 O669 1.997 . S
Fe661 O672 1.996 . S
Fe661 O676 1.976 . S
Fe661 O679 2.002 . S
O662 Fe660 1.918 . S
O662 Fe661 1.918 . S
O662 Fe663 1.918 . S
Fe663 O662 1.918 . S
Fe663 O664 2.002 . S
Fe663 O673 1.976 . S
Fe663 O677 1.996 . S
Fe663 O680 1.997 . S
O664 Fe663 2.002 . S
O664 C681 1.295 . S
O665 Fe660 1.997 . S
O665 C681 1.235 . S
O666 Fe660 2.002 . S
O666 C667 1.295 . S
C667 O666 1.295 . S
C667 O669 1.235 . S
C668 O673 1.287 . S
C668 O674 1.255 . S
O669 Fe661 1.997 . S
O669 C667 1.235 . S
C670 O676 1.287 . S
C670 O677 1.255 . S
O671 Fe660 1.976 . S
O671 C678 1.287 . S
O672 Fe661 1.996 . S
O672 C678 1.255 . S
O673 Fe663 1.976 . S
O673 C668 1.287 . S
O674 Fe660 1.996 . S
O674 C668 1.255 . S
C675 O679 1.295 . S
C675 O680 1.235 . S
O676 Fe661 1.976 . S
O676 C670 1.287 . S
O677 Fe663 1.996 . S
O677 C670 1.255 . S
C678 O671 1.287 . S
C678 O672 1.255 . S
O679 Fe661 2.002 . S
O679 C675 1.295 . S
O680 Fe663 1.997 . S
O680 C675 1.235 . S
C681 O664 1.295 . S
C681 O665 1.235 . S
Fe682 O684 1.918 . S
Fe682 O687 1.997 . S
Fe682 O688 2.002 . S
Fe682 O693 1.976 . S
Fe682 O696 1.996 . S
Fe683 O684 1.918 . S
Fe683 O691 1.997 . S
Fe683 O694 1.996 . S
Fe683 O698 1.976 . S
Fe683 O701 2.002 . S
O684 Fe682 1.918 . S
O684 Fe683 1.918 . S
O684 Fe685 1.918 . S
Fe685 O684 1.918 . S
Fe685 O686 2.002 . S
Fe685 O695 1.976 . S
Fe685 O699 1.996 . S
Fe685 O702 1.997 . S
O686 Fe685 2.002 . S
O686 C703 1.295 . S
O687 Fe682 1.997 . S
O687 C703 1.235 . S
O688 Fe682 2.002 . S
O688 C689 1.295 . S
C689 O688 1.295 . S
C689 O691 1.235 . S
C690 O695 1.287 . S
C690 O696 1.255 . S
O691 Fe683 1.997 . S
O691 C689 1.235 . S
C692 O698 1.287 . S
C692 O699 1.255 . S
O693 Fe682 1.976 . S
O693 C700 1.287 . S
O694 Fe683 1.996 . S
O694 C700 1.255 . S
O695 Fe685 1.976 . S
O695 C690 1.287 . S
O696 Fe682 1.996 . S
O696 C690 1.255 . S
C697 O701 1.295 . S
C697 O702 1.235 . S
O698 Fe683 1.976 . S
O698 C692 1.287 . S
O699 Fe685 1.996 . S
O699 C692 1.255 . S
C700 O693 1.287 . S
C700 O694 1.255 . S
O701 Fe683 2.002 . S
O701 C697 1.295 . S
O702 Fe685 1.997 . S
O702 C697 1.235 . S
C703 O686 1.295 . S
C703 O687 1.235 . S
Fe704 O706 1.918 . S
Fe704 O709 1.997 . S
Fe704 O710 2.002 . S
Fe704 O715 1.976 . S
Fe704 O718 1.996 . S
Fe705 O706 1.918 . S
Fe705 O713 1.997 . S
Fe705 O716 1.996 . S
Fe705 O720 1.976 . S
Fe705 O723 2.002 . S
O706 Fe704 1.918 . S
O706 Fe705 1.918 . S
O706 Fe707 1.918 . S
Fe707 O706 1.918 . S
Fe707 O708 2.002 . S
Fe707 O717 1.976 . S
Fe707 O721 1.996 . S
Fe707 O724 1.997 . S
O708 Fe707 2.002 . S
O708 C725 1.295 . S
O709 Fe704 1.997 . S
O709 C725 1.235 . S
O710 Fe704 2.002 . S
O710 C711 1.295 . S
C711 O710 1.295 . S
C711 O713 1.235 . S
C712 O717 1.287 . S
C712 O718 1.255 . S
O713 Fe705 1.997 . S
O713 C711 1.235 . S
C714 O720 1.287 . S
C714 O721 1.255 . S
O715 Fe704 1.976 . S
O715 C722 1.287 . S
O716 Fe705 1.996 . S
O716 C722 1.255 . S
O717 Fe707 1.976 . S
O717 C712 1.287 . S
O718 Fe704 1.996 . S
O718 C712 1.255 . S
C719 O723 1.295 . S
C719 O724 1.235 . S
O720 Fe705 1.976 . S
O720 C714 1.287 . S
O721 Fe707 1.996 . S
O721 C714 1.255 . S
C722 O715 1.287 . S
C722 O716 1.255 . S
O723 Fe705 2.002 . S
O723 C719 1.295 . S
O724 Fe707 1.997 . S
O724 C719 1.235 . S
C725 O708 1.295 . S
C725 O709 1.235 . S
Fe726 O728 1.918 . S
Fe726 O731 1.997 . S
Fe726 O732 2.002 . S
Fe726 O737 1.976 . S
Fe726 O740 1.996 . S
Fe727 O728 1.918 . S
Fe727 O735 1.997 . S
Fe727 O738 1.996 . S
Fe727 O742 1.976 . S
Fe727 O745 2.002 . S
O728 Fe726 1.918 . S
O728 Fe727 1.918 . S
O728 Fe729 1.918 . S
Fe729 O728 1.918 . S
Fe729 O730 2.002 . S
Fe729 O739 1.976 . S
Fe729 O743 1.996 . S
Fe729 O746 1.997 . S
O730 Fe729 2.002 . S
O730 C747 1.295 . S
O731 Fe726 1.997 . S
O731 C747 1.235 . S
O732 Fe726 2.002 . S
O732 C733 1.295 . S
C733 O732 1.295 . S
C733 O735 1.235 . S
C734 O739 1.287 . S
C734 O740 1.255 . S
O735 Fe727 1.997 . S
O735 C733 1.235 . S
C736 O742 1.287 . S
C736 O743 1.255 . S
O737 Fe726 1.976 . S
O737 C744 1.287 . S
O738 Fe727 1.996 . S
O738 C744 1.255 . S
O739 Fe729 1.976 . S
O739 C734 1.287 . S
O740 Fe726 1.996 . S
O740 C734 1.255 . S
C741 O745 1.295 . S
C741 O746 1.235 . S
O742 Fe727 1.976 . S
O742 C736 1.287 . S
O743 Fe729 1.996 . S
O743 C736 1.255 . S
C744 O737 1.287 . S
C744 O738 1.255 . S
O745 Fe727 2.002 . S
O745 C741 1.295 . S
O746 Fe729 1.997 . S
O746 C741 1.235 . S
C747 O730 1.295 . S
C747 O731 1.235 . S
Fe748 O750 1.918 . S
Fe748 O753 1.997 . S
Fe748 O754 2.002 . S
Fe748 O759 1.976 . S
Fe748 O762 1.996 . S
Fe749 O750 1.918 . S
Fe749 O757 1.997 . S
Fe749 O760 1.996 . S
Fe749 O764 1.976 . S
Fe749 O767 2.002 . S
O750 Fe748 1.918 . S
O750 Fe749 1.918 . S
O750 Fe751 1.918 . S
Fe751 O750 1.918 . S
Fe751 O752 2.002 . S
Fe751 O761 1.976 . S
Fe751 O765 1.996 . S
Fe751 O768 1.997 . S
O752 Fe751 2.002 . S
O752 C769 1.295 . S
O753 Fe748 1.997 . S
O753 C769 1.235 . S
O754 Fe748 2.002 . S
O754 C755 1.295 . S
C755 O754 1.295 . S
C755 O757 1.235 . S
C756 O761 1.287 . S
C756 O762 1.255 . S
O757 Fe749 1.997 . S
O757 C755 1.235 . S
C758 O764 1.287 . S
C758 O765 1.255 . S
O759 Fe748 1.976 . S
O759 C766 1.287 . S
O760 Fe749 1.996 . S
O760 C766 1.255 . S
O761 Fe751 1.976 . S
O761 C756 1.287 . S
O762 Fe748 1.996 . S
O762 C756 1.255 . S
C763 O767 1.295 . S
C763 O768 1.235 . S
O764 Fe749 1.976 . S
O764 C758 1.287 . S
O765 Fe751 1.996 . S
O765 C758 1.255 . S
C766 O759 1.287 . S
C766 O760 1.255 . S
O767 Fe749 2.002 . S
O767 C763 1.295 . S
O768 Fe751 1.997 . S
O768 C763 1.235 . S
C769 O752 1.295 . S
C769 O753 1.235 . S
Fe770 O772 1.918 . S
Fe770 O775 1.997 . S
Fe770 O776 2.002 . S
Fe770 O781 1.976 . S
Fe770 O784 1.996 . S
Fe771 O772 1.918 . S
Fe771 O779 1.997 . S
Fe771 O782 1.996 . S
Fe771 O786 1.976 . S
Fe771 O789 2.002 . S
O772 Fe770 1.918 . S
O772 Fe771 1.918 . S
O772 Fe773 1.918 . S
Fe773 O772 1.918 . S
Fe773 O774 2.002 . S
Fe773 O783 1.976 . S
Fe773 O787 1.996 . S
Fe773 O790 1.997 . S
O774 Fe773 2.002 . S
O774 C791 1.295 . S
O775 Fe770 1.997 . S
O775 C791 1.235 . S
O776 Fe770 2.002 . S
O776 C777 1.295 . S
C777 O776 1.295 . S
C777 O779 1.235 . S
C778 O783 1.287 . S
C778 O784 1.255 . S
O779 Fe771 1.997 . S
O779 C777 1.235 . S
C780 O786 1.287 . S
C780 O787 1.255 . S
O781 Fe770 1.976 . S
O781 C788 1.287 . S
O782 Fe771 1.996 . S
O782 C788 1.255 . S
O783 Fe773 1.976 . S
O783 C778 1.287 . S
O784 Fe770 1.996 . S
O784 C778 1.255 . S
C785 O789 1.295 . S
C785 O790 1.235 . S
O786 Fe771 1.976 . S
O786 C780 1.287 . S
O787 Fe773 1.996 . S
O787 C780 1.255 . S
C788 O781 1.287 . S
C788 O782 1.255 . S
O789 Fe771 2.002 . S
O789 C785 1.295 . S
O790 Fe773 1.997 . S
O790 C785 1.235 . S
C791 O774 1.295 . S
C791 O775 1.235 . S
C792 C793 1.369 . S
C792 C794 1.419 . S
C792 H796 0.930 . S
C793 C792 1.369 . S
C793 C802 1.429 1_556 S
C794 C792 1.419 . S
C794 C795 1.363 . S
C794 H797 0.929 . S
C795 C794 1.363 . S
C795 C801 1.428 1_556 S
H796 C792 0.930 . S
H797 C794 0.929 . S
S798 N799 1.613 . S
S798 N800 1.610 . S
N799 S798 1.613 . S
N799 C802 1.350 . S
N800 S798 1.610 . S
N800 C801 1.351 . S
C801 C795 1.428 1_554 S
C801 N800 1.351 . S
C801 C802 1.434 . S
C802 C793 1.429 1_554 S
C802 N799 1.350 . S
C802 C801 1.434 . S
C803 C804 1.369 . S
C803 C805 1.419 . S
C803 H807 0.930 . S
C804 C803 1.369 . S
C804 C813 1.429 . S
C805 C803 1.419 . S
C805 C806 1.363 . S
C805 H808 0.929 . S
C806 C805 1.363 . S
C806 C812 1.428 . S
H807 C803 0.930 . S
H808 C805 0.929 . S
S809 N810 1.613 1_554 S
S809 N811 1.610 . S
N810 S809 1.613 1_556 S
N810 C813 1.350 . S
N811 S809 1.610 . S
N811 C812 1.351 1_554 S
C812 C806 1.428 . S
C812 N811 1.351 1_556 S
C812 C813 1.434 . S
C813 C804 1.429 . S
C813 N810 1.350 . S
C813 C812 1.434 . S
C814 C815 1.369 . S
C814 C816 1.419 . S
C814 H818 0.930 . S
C815 C814 1.369 . S
C815 C824 1.429 1_556 S
C816 C814 1.419 . S
C816 C817 1.363 . S
C816 H819 0.929 . S
C817 C816 1.363 . S
C817 C823 1.428 1_556 S
H818 C814 0.930 . S
H819 C816 0.929 . S
S820 N821 1.613 . S
S820 N822 1.610 . S
N821 S820 1.613 . S
N821 C824 1.350 . S
N822 S820 1.610 . S
N822 C823 1.351 . S
C823 C817 1.428 1_554 S
C823 N822 1.351 . S
C823 C824 1.434 . S
C824 C815 1.429 1_554 S
C824 N821 1.350 . S
C824 C823 1.434 . S
C825 C826 1.369 . S
C825 C827 1.419 . S
C825 H829 0.930 . S
C826 C825 1.369 . S
C826 C835 1.429 . S
C827 C825 1.419 . S
C827 C828 1.363 . S
C827 H830 0.929 . S
C828 C827 1.363 . S
C828 C834 1.428 . S
H829 C825 0.930 . S
H830 C827 0.929 . S
S831 N832 1.613 . S
S831 N833 1.610 . S
N832 S831 1.613 . S
N832 C835 1.350 . S
N833 S831 1.610 . S
N833 C834 1.351 . S
C834 C828 1.428 . S
C834 N833 1.351 . S
C834 C835 1.434 . S
C835 C826 1.429 . S
C835 N832 1.350 . S
C835 C834 1.434 . S
C836 C837 1.369 . S
C836 C838 1.419 . S
C836 H840 0.930 . S
C837 C836 1.369 . S
C837 C846 1.429 . S
C838 C836 1.419 . S
C838 C839 1.363 . S
C838 H841 0.929 . S
C839 C838 1.363 . S
C839 C845 1.428 . S
H840 C836 0.930 . S
H841 C838 0.929 . S
S842 N843 1.613 . S
S842 N844 1.610 . S
N843 S842 1.613 . S
N843 C846 1.350 . S
N844 S842 1.610 . S
N844 C845 1.351 . S
C845 C839 1.428 . S
C845 N844 1.351 . S
C845 C846 1.434 . S
C846 C837 1.429 . S
C846 N843 1.350 . S
C846 C845 1.434 . S
C847 C848 1.369 . S
C847 C849 1.419 . S
C847 H851 0.930 . S
C848 C847 1.369 . S
C848 C857 1.429 . S
C849 C847 1.419 . S
C849 C850 1.363 . S
C849 H852 0.929 . S
C850 C849 1.363 . S
C850 C856 1.428 . S
H851 C847 0.930 . S
H852 C849 0.929 . S
S853 N854 1.613 . S
S853 N855 1.610 . S
N854 S853 1.613 . S
N854 C857 1.350 . S
N855 S853 1.610 . S
N855 C856 1.351 . S
C856 C850 1.428 . S
C856 N855 1.351 . S
C856 C857 1.434 . S
C857 C848 1.429 . S
C857 N854 1.350 . S
C857 C856 1.434 . S
C858 C859 1.390 . S
C858 C860 1.411 1_554 S
C858 H862 0.916 1_554 S
C859 C858 1.390 . S
C859 C868 1.429 . S
C860 C858 1.411 1_556 S
C860 C861 1.363 1_556 S
C860 H863 0.929 . S
C861 C860 1.363 1_554 S
C861 C867 1.428 . S
H862 C858 0.916 1_556 S
H863 C860 0.929 . S
S864 N865 1.613 . S
S864 N866 1.610 . S
N865 S864 1.613 . S
N865 C868 1.350 . S
N866 S864 1.610 . S
N866 C867 1.351 . S
C867 C861 1.428 . S
C867 N866 1.351 . S
C867 C868 1.434 . S
C868 C859 1.429 . S
C868 N865 1.350 . S
C868 C867 1.434 . S
C869 C870 1.369 1_556 S
C869 C871 1.419 1_556 S
C869 H873 0.930 . S
C870 C869 1.369 1_554 S
C870 C879 1.429 . S
C871 C869 1.419 1_554 S
C871 C872 1.363 . S
C871 H874 0.929 . S
C872 C871 1.363 . S
C872 C878 1.428 . S
H873 C869 0.930 . S
H874 C871 0.929 . S
S875 N876 1.613 . S
S875 N877 1.610 . S
N876 S875 1.613 . S
N876 C879 1.350 . S
N877 S875 1.610 . S
N877 C878 1.351 . S
C878 C872 1.428 . S
C878 N877 1.351 . S
C878 C879 1.434 . S
C879 C870 1.429 . S
C879 N876 1.350 . S
C879 C878 1.434 . S
C880 C881 1.369 . S
C880 C882 1.419 . S
C880 H884 0.930 . S
C881 C880 1.369 . S
C881 C890 1.429 . S
C882 C880 1.419 . S
C882 C883 1.363 . S
C882 H885 0.929 . S
C883 C882 1.363 . S
C883 C889 1.428 . S
H884 C880 0.930 . S
H885 C882 0.929 . S
S886 N887 1.613 . S
S886 N888 1.610 . S
N887 S886 1.613 . S
N887 C890 1.350 . S
N888 S886 1.610 . S
N888 C889 1.351 . S
C889 C883 1.428 . S
C889 N888 1.351 . S
C889 C890 1.434 . S
C890 C881 1.429 . S
C890 N887 1.350 . S
C890 C889 1.434 . S
C891 C892 1.369 . S
C891 C893 1.419 . S
C891 H895 0.930 . S
C892 C891 1.369 . S
C892 C901 1.429 . S
C893 C891 1.419 . S
C893 C894 1.363 . S
C893 H896 0.929 . S
C894 C893 1.363 . S
C894 C900 1.428 . S
H895 C891 0.930 . S
H896 C893 0.929 . S
S897 N898 1.613 . S
S897 N899 1.610 . S
N898 S897 1.613 . S
N898 C901 1.350 . S
N899 S897 1.610 . S
N899 C900 1.351 . S
C900 C894 1.428 . S
C900 N899 1.351 . S
C900 C901 1.434 . S
C901 C892 1.429 . S
C901 N898 1.350 . S
C901 C900 1.434 . S
C902 C903 1.369 . S
C902 C904 1.419 . S
C902 H906 0.930 . S
C903 C902 1.369 . S
C903 C912 1.429 . S
C904 C902 1.419 . S
C904 C905 1.363 . S
C904 H907 0.929 . S
C905 C904 1.363 . S
C905 C911 1.428 . S
H906 C902 0.930 . S
H907 C904 0.929 . S
S908 N909 1.613 . S
S908 N910 1.610 . S
N909 S908 1.613 . S
N909 C912 1.350 . S
N910 S908 1.610 . S
N910 C911 1.351 . S
C911 C905 1.428 . S
C911 N910 1.351 . S
C911 C912 1.434 . S
C912 C903 1.429 . S
C912 N909 1.350 . S
C912 C911 1.434 . S
C913 C914 1.369 . S
C913 C915 1.419 . S
C913 H917 0.930 . S
C914 C913 1.369 . S
C914 C923 1.429 . S
C915 C913 1.419 . S
C915 C916 1.363 . S
C915 H918 0.929 . S
C916 C915 1.363 . S
C916 C922 1.428 . S
H917 C913 0.930 . S
H918 C915 0.929 . S
S919 N920 1.613 . S
S919 N921 1.610 . S
N920 S919 1.613 . S
N920 C923 1.350 . S
N921 S919 1.610 . S
N921 C922 1.351 . S
C922 C916 1.428 . S
C922 N921 1.351 . S
C922 C923 1.434 . S
C923 C914 1.429 . S
C923 N920 1.350 . S
C923 C922 1.434 . S
C924 C925 1.369 . S
C924 C926 1.419 . S
C924 H928 0.930 . S
C925 C924 1.369 . S
C925 C934 1.429 . S
C926 C924 1.419 . S
C926 C927 1.363 . S
C926 H929 0.929 . S
C927 C926 1.363 . S
C927 C933 1.428 . S
H928 C924 0.930 . S
H929 C926 0.929 . S
S930 N931 1.613 . S
S930 N932 1.610 . S
N931 S930 1.613 . S
N931 C934 1.350 . S
N932 S930 1.610 . S
N932 C933 1.351 . S
C933 C927 1.428 . S
C933 N932 1.351 . S
C933 C934 1.434 . S
C934 C925 1.429 . S
C934 N931 1.350 . S
C934 C933 1.434 . S
C935 C936 1.369 . S
C935 C937 1.419 . S
C935 H939 0.930 . S
C936 C935 1.369 . S
C936 C945 1.429 . S
C937 C935 1.419 . S
C937 C938 1.363 . S
C937 H940 0.929 . S
C938 C937 1.363 . S
C938 C944 1.428 . S
H939 C935 0.930 . S
H940 C937 0.929 . S
S941 N942 1.613 . S
S941 N943 1.610 . S
N942 S941 1.613 . S
N942 C945 1.350 . S
N943 S941 1.610 . S
N943 C944 1.351 . S
C944 C938 1.428 . S
C944 N943 1.351 . S
C944 C945 1.434 . S
C945 C936 1.429 . S
C945 N942 1.350 . S
C945 C944 1.434 . S
C946 C947 1.369 . S
C946 C948 1.419 . S
C946 H950 0.930 . S
C947 C946 1.369 . S
C947 C956 1.429 . S
C948 C946 1.419 . S
C948 C949 1.363 . S
C948 H951 0.929 . S
C949 C948 1.363 . S
C949 C955 1.428 . S
H950 C946 0.930 . S
H951 C948 0.929 . S
S952 N953 1.613 . S
S952 N954 1.610 . S
N953 S952 1.613 . S
N953 C956 1.350 . S
N954 S952 1.610 . S
N954 C955 1.351 . S
C955 C949 1.428 . S
C955 N954 1.351 . S
C955 C956 1.434 . S
C956 C947 1.429 . S
C956 N953 1.350 . S
C956 C955 1.434 . S
C957 C958 1.369 . S
C957 C959 1.419 . S
C957 H961 0.930 . S
C958 C957 1.369 . S
C958 C967 1.429 . S
C959 C957 1.419 . S
C959 C960 1.363 . S
C959 H962 0.929 . S
C960 C959 1.363 . S
C960 C966 1.428 . S
H961 C957 0.930 . S
H962 C959 0.929 . S
S963 N964 1.613 . S
S963 N965 1.610 . S
N964 S963 1.613 . S
N964 C967 1.350 . S
N965 S963 1.610 . S
N965 C966 1.351 . S
C966 C960 1.428 . S
C966 N965 1.351 . S
C966 C967 1.434 . S
C967 C958 1.429 . S
C967 N964 1.350 . S
C967 C966 1.434 . S
C968 C969 1.369 . S
C968 C970 1.419 . S
C968 H972 0.930 . S
C969 C968 1.369 . S
C969 C978 1.429 . S
C970 C968 1.419 . S
C970 C971 1.363 . S
C970 H973 0.929 . S
C971 C970 1.363 . S
C971 C977 1.428 . S
H972 C968 0.930 . S
H973 C970 0.929 . S
S974 N975 1.613 . S
S974 N976 1.610 . S
N975 S974 1.613 . S
N975 C978 1.350 . S
N976 S974 1.610 . S
N976 C977 1.351 . S
C977 C971 1.428 . S
C977 N976 1.351 . S
C977 C978 1.434 . S
C978 C969 1.429 . S
C978 N975 1.350 . S
C978 C977 1.434 . S
C979 C980 1.369 . S
C979 C981 1.419 . S
C979 H983 0.930 . S
C980 C979 1.369 . S
C980 C989 1.429 . S
C981 C979 1.419 . S
C981 C982 1.363 . S
C981 H984 0.929 . S
C982 C981 1.363 . S
C982 C988 1.428 . S
H983 C979 0.930 . S
H984 C981 0.929 . S
S985 N986 1.613 . S
S985 N987 1.610 . S
N986 S985 1.613 . S
N986 C989 1.350 . S
N987 S985 1.610 . S
N987 C988 1.351 . S
C988 C982 1.428 . S
C988 N987 1.351 . S
C988 C989 1.434 . S
C989 C980 1.429 . S
C989 N986 1.350 . S
C989 C988 1.434 . S
C990 C991 1.369 . S
C990 C992 1.419 . S
C990 H994 0.930 . S
C991 C990 1.369 . S
C991 C1000 1.429 . S
C992 C990 1.419 . S
C992 C993 1.363 . S
C992 H995 0.929 . S
C993 C992 1.363 . S
C993 C999 1.428 . S
H994 C990 0.930 . S
H995 C992 0.929 . S
S996 N997 1.613 . S
S996 N998 1.610 . S
N997 S996 1.613 . S
N997 C1000 1.350 . S
N998 S996 1.610 . S
N998 C999 1.351 . S
C999 C993 1.428 . S
C999 N998 1.351 . S
C999 C1000 1.434 . S
C1000 C991 1.429 . S
C1000 N997 1.350 . S
C1000 C999 1.434 . S
C1001 C1002 1.369 . S
C1001 C1003 1.419 . S
C1001 H1005 0.930 . S
C1002 C1001 1.369 . S
C1002 C1011 1.429 . S
C1003 C1001 1.419 . S
C1003 C1004 1.363 . S
C1003 H1006 0.929 . S
C1004 C1003 1.363 . S
C1004 C1010 1.428 . S
H1005 C1001 0.930 . S
H1006 C1003 0.929 . S
S1007 N1008 1.613 . S
S1007 N1009 1.610 . S
N1008 S1007 1.613 . S
N1008 C1011 1.350 . S
N1009 S1007 1.610 . S
N1009 C1010 1.351 . S
C1010 C1004 1.428 . S
C1010 N1009 1.351 . S
C1010 C1011 1.434 . S
C1011 C1002 1.429 . S
C1011 N1008 1.350 . S
C1011 C1010 1.434 . S
C1012 C1013 1.369 . S
C1012 C1014 1.419 . S
C1012 H1016 0.930 . S
C1013 C1012 1.369 . S
C1013 C1022 1.429 . S
C1014 C1012 1.419 . S
C1014 C1015 1.363 . S
C1014 H1017 0.929 . S
C1015 C1014 1.363 . S
C1015 C1021 1.428 . S
H1016 C1012 0.930 . S
H1017 C1014 0.929 . S
S1018 N1019 1.613 . S
S1018 N1020 1.610 . S
N1019 S1018 1.613 . S
N1019 C1022 1.350 . S
N1020 S1018 1.610 . S
N1020 C1021 1.351 . S
C1021 C1015 1.428 . S
C1021 N1020 1.351 . S
C1021 C1022 1.434 . S
C1022 C1013 1.429 . S
C1022 N1019 1.350 . S
C1022 C1021 1.434 . S
C1023 C1024 1.369 . S
C1023 C1025 1.419 . S
C1023 H1027 0.930 . S
C1024 C1023 1.369 . S
C1024 C1033 1.429 . S
C1025 C1023 1.419 . S
C1025 C1026 1.363 . S
C1025 H1028 0.929 . S
C1026 C1025 1.363 . S
C1026 C1032 1.428 . S
H1027 C1023 0.930 . S
H1028 C1025 0.929 . S
S1029 N1030 1.613 . S
S1029 N1031 1.610 . S
N1030 S1029 1.613 . S
N1030 C1033 1.350 . S
N1031 S1029 1.610 . S
N1031 C1032 1.351 . S
C1032 C1026 1.428 . S
C1032 N1031 1.351 . S
C1032 C1033 1.434 . S
C1033 C1024 1.429 . S
C1033 N1030 1.350 . S
C1033 C1032 1.434 . S
C1034 C1035 1.369 . S
C1034 C1036 1.419 . S
C1034 H1038 0.930 . S
C1035 C1034 1.369 . S
C1035 C1044 1.429 . S
C1036 C1034 1.419 . S
C1036 C1037 1.363 . S
C1036 H1039 0.929 . S
C1037 C1036 1.363 . S
C1037 C1043 1.428 . S
H1038 C1034 0.930 . S
H1039 C1036 0.929 . S
S1040 N1041 1.613 . S
S1040 N1042 1.610 . S
N1041 S1040 1.613 . S
N1041 C1044 1.350 . S
N1042 S1040 1.610 . S
N1042 C1043 1.351 . S
C1043 C1037 1.428 . S
C1043 N1042 1.351 . S
C1043 C1044 1.434 . S
C1044 C1035 1.429 . S
C1044 N1041 1.350 . S
C1044 C1043 1.434 . S
C1045 C1046 1.369 . S
C1045 C1047 1.419 . S
C1045 H1049 0.930 . S
C1046 C1045 1.369 . S
C1046 C1055 1.429 . S
C1047 C1045 1.419 . S
C1047 C1048 1.363 . S
C1047 H1050 0.929 . S
C1048 C1047 1.363 . S
C1048 C1054 1.428 . S
H1049 C1045 0.930 . S
H1050 C1047 0.929 . S
S1051 N1052 1.613 . S
S1051 N1053 1.610 . S
N1052 S1051 1.613 . S
N1052 C1055 1.350 . S
N1053 S1051 1.610 . S
N1053 C1054 1.351 . S
C1054 C1048 1.428 . S
C1054 N1053 1.351 . S
C1054 C1055 1.434 . S
C1055 C1046 1.429 . S
C1055 N1052 1.350 . S
C1055 C1054 1.434 . S
C1056 C1057 1.369 . S
C1056 C1058 1.419 . S
C1056 H1060 0.930 . S
C1057 C1056 1.369 . S
C1057 C1066 1.429 . S
C1058 C1056 1.419 . S
C1058 C1059 1.363 . S
C1058 H1061 0.929 . S
C1059 C1058 1.363 . S
C1059 C1065 1.428 . S
H1060 C1056 0.930 . S
H1061 C1058 0.929 . S
S1062 N1063 1.613 . S
S1062 N1064 1.610 . S
N1063 S1062 1.613 . S
N1063 C1066 1.350 . S
N1064 S1062 1.610 . S
N1064 C1065 1.351 . S
C1065 C1059 1.428 . S
C1065 N1064 1.351 . S
C1065 C1066 1.434 . S
C1066 C1057 1.429 . S
C1066 N1063 1.350 . S
C1066 C1065 1.434 . S
C1067 C1068 1.369 . S
C1067 C1069 1.419 . S
C1067 H1071 0.930 . S
C1068 C1067 1.369 . S
C1068 C1077 1.429 . S
C1069 C1067 1.419 . S
C1069 C1070 1.363 . S
C1069 H1072 0.929 . S
C1070 C1069 1.363 . S
C1070 C1076 1.428 . S
H1071 C1067 0.930 . S
H1072 C1069 0.929 . S
S1073 N1074 1.613 . S
S1073 N1075 1.610 . S
N1074 S1073 1.613 . S
N1074 C1077 1.350 . S
N1075 S1073 1.610 . S
N1075 C1076 1.351 . S
C1076 C1070 1.428 . S
C1076 N1075 1.351 . S
C1076 C1077 1.434 . S
C1077 C1068 1.429 . S
C1077 N1074 1.350 . S
C1077 C1076 1.434 . S
C1078 C1079 1.369 . S
C1078 C1080 1.419 . S
C1078 H1082 0.930 . S
C1079 C1078 1.369 . S
C1079 C1088 1.429 . S
C1080 C1078 1.419 . S
C1080 C1081 1.363 . S
C1080 H1083 0.929 . S
C1081 C1080 1.363 . S
C1081 C1087 1.428 . S
H1082 C1078 0.930 . S
H1083 C1080 0.929 . S
S1084 N1085 1.613 . S
S1084 N1086 1.610 . S
N1085 S1084 1.613 . S
N1085 C1088 1.350 . S
N1086 S1084 1.610 . S
N1086 C1087 1.351 . S
C1087 C1081 1.428 . S
C1087 N1086 1.351 . S
C1087 C1088 1.434 . S
C1088 C1079 1.429 . S
C1088 N1085 1.350 . S
C1088 C1087 1.434 . S
C1089 C1090 1.369 . S
C1089 C1091 1.419 . S
C1089 H1093 0.930 . S
C1090 C1089 1.369 . S
C1090 C1099 1.429 . S
C1091 C1089 1.419 . S
C1091 C1092 1.363 . S
C1091 H1094 0.929 . S
C1092 C1091 1.363 . S
C1092 C1098 1.428 . S
H1093 C1089 0.930 . S
H1094 C1091 0.929 . S
S1095 N1096 1.613 . S
S1095 N1097 1.610 . S
N1096 S1095 1.613 . S
N1096 C1099 1.350 . S
N1097 S1095 1.610 . S
N1097 C1098 1.351 . S
C1098 C1092 1.428 . S
C1098 N1097 1.351 . S
C1098 C1099 1.434 . S
C1099 C1090 1.429 . S
C1099 N1096 1.350 . S
C1099 C1098 1.434 . S
C1100 C1101 1.369 . S
C1100 C1102 1.419 . S
C1100 H1104 0.930 . S
C1101 C1100 1.369 . S
C1101 C1110 1.429 . S
C1102 C1100 1.419 . S
C1102 C1103 1.363 . S
C1102 H1105 0.929 . S
C1103 C1102 1.363 . S
C1103 C1109 1.428 . S
H1104 C1100 0.930 . S
H1105 C1102 0.929 . S
S1106 N1107 1.613 . S
S1106 N1108 1.610 . S
N1107 S1106 1.613 . S
N1107 C1110 1.350 . S
N1108 S1106 1.610 . S
N1108 C1109 1.351 . S
C1109 C1103 1.428 . S
C1109 N1108 1.351 . S
C1109 C1110 1.434 . S
C1110 C1101 1.429 . S
C1110 N1107 1.350 . S
C1110 C1109 1.434 . S
C1111 C1112 1.369 . S
C1111 C1113 1.419 . S
C1111 H1115 0.930 . S
C1112 C1111 1.369 . S
C1112 C1121 1.429 . S
C1113 C1111 1.419 . S
C1113 C1114 1.363 . S
C1113 H1116 0.929 . S
C1114 C1113 1.363 . S
C1114 C1120 1.428 . S
H1115 C1111 0.930 . S
H1116 C1113 0.929 . S
S1117 N1118 1.613 . S
S1117 N1119 1.610 . S
N1118 S1117 1.613 . S
N1118 C1121 1.350 . S
N1119 S1117 1.610 . S
N1119 C1120 1.351 . S
C1120 C1114 1.428 . S
C1120 N1119 1.351 . S
C1120 C1121 1.434 . S
C1121 C1112 1.429 . S
C1121 N1118 1.350 . S
C1121 C1120 1.434 . S
C1122 C1123 1.369 . S
C1122 C1124 1.419 . S
C1122 H1126 0.930 . S
C1123 C1122 1.369 . S
C1123 C1132 1.429 . S
C1124 C1122 1.419 . S
C1124 C1125 1.363 . S
C1124 H1127 0.929 . S
C1125 C1124 1.363 . S
C1125 C1131 1.428 . S
H1126 C1122 0.930 . S
H1127 C1124 0.929 . S
S1128 N1129 1.613 . S
S1128 N1130 1.610 . S
N1129 S1128 1.613 . S
N1129 C1132 1.350 . S
N1130 S1128 1.610 . S
N1130 C1131 1.351 . S
C1131 C1125 1.428 . S
C1131 N1130 1.351 . S
C1131 C1132 1.434 . S
C1132 C1123 1.429 . S
C1132 N1129 1.350 . S
C1132 C1131 1.434 . S
C1133 C1134 1.369 . S
C1133 C1135 1.419 . S
C1133 H1137 0.930 . S
C1134 C1133 1.369 . S
C1134 C1143 1.429 . S
C1135 C1133 1.419 . S
C1135 C1136 1.363 . S
C1135 H1138 0.929 . S
C1136 C1135 1.363 . S
C1136 C1142 1.428 . S
H1137 C1133 0.930 . S
H1138 C1135 0.929 . S
S1139 N1140 1.613 . S
S1139 N1141 1.610 . S
N1140 S1139 1.613 . S
N1140 C1143 1.350 . S
N1141 S1139 1.610 . S
N1141 C1142 1.351 . S
C1142 C1136 1.428 . S
C1142 N1141 1.351 . S
C1142 C1143 1.434 . S
C1143 C1134 1.429 . S
C1143 N1140 1.350 . S
C1143 C1142 1.434 . S
C1144 C1145 1.369 . S
C1144 C1146 1.419 . S
C1144 H1148 0.930 . S
C1145 C1144 1.369 . S
C1145 C1154 1.429 . S
C1146 C1144 1.419 . S
C1146 C1147 1.363 . S
C1146 H1149 0.929 . S
C1147 C1146 1.363 . S
C1147 C1153 1.428 . S
H1148 C1144 0.930 . S
H1149 C1146 0.929 . S
S1150 N1151 1.613 . S
S1150 N1152 1.610 . S
N1151 S1150 1.613 . S
N1151 C1154 1.350 . S
N1152 S1150 1.610 . S
N1152 C1153 1.351 . S
C1153 C1147 1.428 . S
C1153 N1152 1.351 . S
C1153 C1154 1.434 . S
C1154 C1145 1.429 . S
C1154 N1151 1.350 . S
C1154 C1153 1.434 . S
C1155 C1156 1.369 . S
C1155 C1157 1.419 . S
C1155 H1159 0.930 . S
C1156 C1155 1.369 . S
C1156 C1165 1.429 . S
C1157 C1155 1.419 . S
C1157 C1158 1.363 . S
C1157 H1160 0.929 . S
C1158 C1157 1.363 . S
C1158 C1164 1.428 . S
H1159 C1155 0.930 . S
H1160 C1157 0.929 . S
S1161 N1162 1.613 . S
S1161 N1163 1.610 . S
N1162 S1161 1.613 . S
N1162 C1165 1.350 . S
N1163 S1161 1.610 . S
N1163 C1164 1.351 . S
C1164 C1158 1.428 . S
C1164 N1163 1.351 . S
C1164 C1165 1.434 . S
C1165 C1156 1.429 . S
C1165 N1162 1.350 . S
C1165 C1164 1.434 . S
C1166 C1167 1.369 . S
C1166 C1168 1.419 . S
C1166 H1170 0.930 . S
C1167 C1166 1.369 . S
C1167 C1176 1.429 . S
C1168 C1166 1.419 . S
C1168 C1169 1.363 . S
C1168 H1171 0.929 . S
C1169 C1168 1.363 . S
C1169 C1175 1.428 . S
H1170 C1166 0.930 . S
H1171 C1168 0.929 . S
S1172 N1173 1.613 . S
S1172 N1174 1.610 . S
N1173 S1172 1.613 . S
N1173 C1176 1.350 . S
N1174 S1172 1.610 . S
N1174 C1175 1.351 . S
C1175 C1169 1.428 . S
C1175 N1174 1.351 . S
C1175 C1176 1.434 . S
C1176 C1167 1.429 . S
C1176 N1173 1.350 . S
C1176 C1175 1.434 . S
C1177 C1178 1.369 . S
C1177 C1179 1.419 . S
C1177 H1181 0.930 . S
C1178 C1177 1.369 . S
C1178 C1187 1.429 . S
C1179 C1177 1.419 . S
C1179 C1180 1.363 . S
C1179 H1182 0.929 . S
C1180 C1179 1.363 . S
C1180 C1186 1.428 . S
H1181 C1177 0.930 . S
H1182 C1179 0.929 . S
S1183 N1184 1.613 . S
S1183 N1185 1.610 . S
N1184 S1183 1.613 . S
N1184 C1187 1.350 . S
N1185 S1183 1.610 . S
N1185 C1186 1.351 . S
C1186 C1180 1.428 . S
C1186 N1185 1.351 . S
C1186 C1187 1.434 . S
C1187 C1178 1.429 . S
C1187 N1184 1.350 . S
C1187 C1186 1.434 . S
C1188 C1189 1.369 . S
C1188 C1190 1.419 . S
C1188 H1192 0.930 . S
C1189 C1188 1.369 . S
C1189 C1198 1.429 . S
C1190 C1188 1.419 . S
C1190 C1191 1.363 . S
C1190 H1193 0.929 . S
C1191 C1190 1.363 . S
C1191 C1197 1.428 . S
H1192 C1188 0.930 . S
H1193 C1190 0.929 . S
S1194 N1195 1.613 . S
S1194 N1196 1.610 . S
N1195 S1194 1.613 . S
N1195 C1198 1.350 . S
N1196 S1194 1.610 . S
N1196 C1197 1.351 . S
C1197 C1191 1.428 . S
C1197 N1196 1.351 . S
C1197 C1198 1.434 . S
C1198 C1189 1.429 . S
C1198 N1195 1.350 . S
C1198 C1197 1.434 . S
C1199 C1200 1.369 . S
C1199 C1201 1.419 . S
C1199 H1203 0.930 . S
C1200 C1199 1.369 . S
C1200 C1209 1.429 . S
C1201 C1199 1.419 . S
C1201 C1202 1.363 . S
C1201 H1204 0.929 . S
C1202 C1201 1.363 . S
C1202 C1208 1.428 . S
H1203 C1199 0.930 . S
H1204 C1201 0.929 . S
S1205 N1206 1.613 . S
S1205 N1207 1.610 . S
N1206 S1205 1.613 . S
N1206 C1209 1.350 . S
N1207 S1205 1.610 . S
N1207 C1208 1.351 . S
C1208 C1202 1.428 . S
C1208 N1207 1.351 . S
C1208 C1209 1.434 . S
C1209 C1200 1.429 . S
C1209 N1206 1.350 . S
C1209 C1208 1.434 . S
C1210 C1211 1.369 . S
C1210 C1212 1.419 . S
C1210 H1214 0.930 . S
C1211 C1210 1.369 . S
C1211 C1220 1.429 . S
C1212 C1210 1.419 . S
C1212 C1213 1.363 . S
C1212 H1215 0.929 . S
C1213 C1212 1.363 . S
C1213 C1219 1.428 . S
H1214 C1210 0.930 . S
H1215 C1212 0.929 . S
S1216 N1217 1.613 . S
S1216 N1218 1.610 . S
N1217 S1216 1.613 . S
N1217 C1220 1.350 . S
N1218 S1216 1.610 . S
N1218 C1219 1.351 . S
C1219 C1213 1.428 . S
C1219 N1218 1.351 . S
C1219 C1220 1.434 . S
C1220 C1211 1.429 . S
C1220 N1217 1.350 . S
C1220 C1219 1.434 . S
C1221 C1222 1.369 . S
C1221 C1223 1.419 . S
C1221 H1225 0.930 . S
C1222 C1221 1.369 . S
C1222 C1231 1.429 . S
C1223 C1221 1.419 . S
C1223 C1224 1.363 . S
C1223 H1226 0.929 . S
C1224 C1223 1.363 . S
C1224 C1230 1.428 . S
H1225 C1221 0.930 . S
H1226 C1223 0.929 . S
S1227 N1228 1.613 . S
S1227 N1229 1.610 . S
N1228 S1227 1.613 . S
N1228 C1231 1.350 . S
N1229 S1227 1.610 . S
N1229 C1230 1.351 . S
C1230 C1224 1.428 . S
C1230 N1229 1.351 . S
C1230 C1231 1.434 . S
C1231 C1222 1.429 . S
C1231 N1228 1.350 . S
C1231 C1230 1.434 . S
C1232 C1233 1.369 . S
C1232 C1234 1.419 . S
C1232 H1236 0.930 . S
C1233 C1232 1.369 . S
C1233 C1242 1.429 . S
C1234 C1232 1.419 . S
C1234 C1235 1.363 . S
C1234 H1237 0.929 . S
C1235 C1234 1.363 . S
C1235 C1241 1.428 . S
H1236 C1232 0.930 . S
H1237 C1234 0.929 . S
S1238 N1239 1.613 . S
S1238 N1240 1.610 . S
N1239 S1238 1.613 . S
N1239 C1242 1.350 . S
N1240 S1238 1.610 . S
N1240 C1241 1.351 . S
C1241 C1235 1.428 . S
C1241 N1240 1.351 . S
C1241 C1242 1.434 . S
C1242 C1233 1.429 . S
C1242 N1239 1.350 . S
C1242 C1241 1.434 . S
C1243 C1244 1.369 . S
C1243 C1245 1.419 . S
C1243 H1247 0.930 . S
C1244 C1243 1.369 . S
C1244 C1253 1.429 . S
C1245 C1243 1.419 . S
C1245 C1246 1.363 . S
C1245 H1248 0.929 . S
C1246 C1245 1.363 . S
C1246 C1252 1.428 . S
H1247 C1243 0.930 . S
H1248 C1245 0.929 . S
S1249 N1250 1.613 . S
S1249 N1251 1.610 . S
N1250 S1249 1.613 . S
N1250 C1253 1.350 . S
N1251 S1249 1.610 . S
N1251 C1252 1.351 . S
C1252 C1246 1.428 . S
C1252 N1251 1.351 . S
C1252 C1253 1.434 . S
C1253 C1244 1.429 . S
C1253 N1250 1.350 . S
C1253 C1252 1.434 . S
C1254 C1255 1.369 . S
C1254 C1256 1.419 . S
C1254 H1258 0.930 . S
C1255 C1254 1.369 . S
C1255 C1264 1.429 . S
C1256 C1254 1.419 . S
C1256 C1257 1.363 . S
C1256 H1259 0.929 . S
C1257 C1256 1.363 . S
C1257 C1263 1.428 . S
H1258 C1254 0.930 . S
H1259 C1256 0.929 . S
S1260 N1261 1.613 . S
S1260 N1262 1.610 . S
N1261 S1260 1.613 . S
N1261 C1264 1.350 . S
N1262 S1260 1.610 . S
N1262 C1263 1.351 . S
C1263 C1257 1.428 . S
C1263 N1262 1.351 . S
C1263 C1264 1.434 . S
C1264 C1255 1.429 . S
C1264 N1261 1.350 . S
C1264 C1263 1.434 . S
C1265 C1266 1.369 . S
C1265 C1267 1.419 . S
C1265 H1269 0.930 . S
C1266 C1265 1.369 . S
C1266 C1275 1.429 . S
C1267 C1265 1.419 . S
C1267 C1268 1.363 . S
C1267 H1270 0.929 . S
C1268 C1267 1.363 . S
C1268 C1274 1.428 . S
H1269 C1265 0.930 . S
H1270 C1267 0.929 . S
S1271 N1272 1.613 . S
S1271 N1273 1.610 . S
N1272 S1271 1.613 . S
N1272 C1275 1.350 . S
N1273 S1271 1.610 . S
N1273 C1274 1.351 . S
C1274 C1268 1.428 . S
C1274 N1273 1.351 . S
C1274 C1275 1.434 . S
C1275 C1266 1.429 . S
C1275 N1272 1.350 . S
C1275 C1274 1.434 . S
C1276 C1277 1.369 . S
C1276 C1278 1.419 . S
C1276 H1280 0.930 . S
C1277 C1276 1.369 . S
C1277 C1286 1.429 . S
C1278 C1276 1.419 . S
C1278 C1279 1.363 . S
C1278 H1281 0.929 . S
C1279 C1278 1.363 . S
C1279 C1285 1.428 . S
H1280 C1276 0.930 . S
H1281 C1278 0.929 . S
S1282 N1283 1.613 . S
S1282 N1284 1.610 . S
N1283 S1282 1.613 . S
N1283 C1286 1.350 . S
N1284 S1282 1.610 . S
N1284 C1285 1.351 . S
C1285 C1279 1.428 . S
C1285 N1284 1.351 . S
C1285 C1286 1.434 . S
C1286 C1277 1.429 . S
C1286 N1283 1.350 . S
C1286 C1285 1.434 . S
C1287 C1288 1.369 . S
C1287 C1289 1.419 . S
C1287 H1291 0.930 . S
C1288 C1287 1.369 . S
C1288 C1297 1.429 . S
C1289 C1287 1.419 . S
C1289 C1290 1.363 . S
C1289 H1292 0.929 . S
C1290 C1289 1.363 . S
C1290 C1296 1.428 . S
H1291 C1287 0.930 . S
H1292 C1289 0.929 . S
S1293 N1294 1.613 . S
S1293 N1295 1.610 . S
N1294 S1293 1.613 . S
N1294 C1297 1.350 . S
N1295 S1293 1.610 . S
N1295 C1296 1.351 . S
C1296 C1290 1.428 . S
C1296 N1295 1.351 . S
C1296 C1297 1.434 . S
C1297 C1288 1.429 . S
C1297 N1294 1.350 . S
C1297 C1296 1.434 . S
C1298 C1299 1.369 . S
C1298 C1300 1.419 . S
C1298 H1302 0.930 . S
C1299 C1298 1.369 . S
C1299 C1308 1.429 . S
C1300 C1298 1.419 . S
C1300 C1301 1.363 . S
C1300 H1303 0.929 . S
C1301 C1300 1.363 . S
C1301 C1307 1.428 . S
H1302 C1298 0.930 . S
H1303 C1300 0.929 . S
S1304 N1305 1.613 . S
S1304 N1306 1.610 . S
N1305 S1304 1.613 . S
N1305 C1308 1.350 . S
N1306 S1304 1.610 . S
N1306 C1307 1.351 . S
C1307 C1301 1.428 . S
C1307 N1306 1.351 . S
C1307 C1308 1.434 . S
C1308 C1299 1.429 . S
C1308 N1305 1.350 . S
C1308 C1307 1.434 . S
C1309 C1310 1.369 . S
C1309 C1311 1.419 . S
C1309 H1313 0.930 . S
C1310 C1309 1.369 . S
C1310 C1319 1.429 . S
C1311 C1309 1.419 . S
C1311 C1312 1.363 . S
C1311 H1314 0.929 . S
C1312 C1311 1.363 . S
C1312 C1318 1.428 . S
H1313 C1309 0.930 . S
H1314 C1311 0.929 . S
S1315 N1316 1.613 . S
S1315 N1317 1.610 . S
N1316 S1315 1.613 . S
N1316 C1319 1.350 . S
N1317 S1315 1.610 . S
N1317 C1318 1.351 . S
C1318 C1312 1.428 . S
C1318 N1317 1.351 . S
C1318 C1319 1.434 . S
C1319 C1310 1.429 . S
C1319 N1316 1.350 . S
C1319 C1318 1.434 . S
C1320 C1321 1.369 . S
C1320 C1322 1.419 1_655 S
C1320 H1324 0.930 . S
C1321 C1320 1.369 . S
C1321 C1330 1.429 . S
C1322 C1320 1.419 1_455 S
C1322 C1323 1.363 . S
C1322 H1325 0.929 . S
C1323 C1322 1.363 . S
C1323 C1329 1.428 . S
H1324 C1320 0.930 . S
H1325 C1322 0.929 . S
S1326 N1327 1.613 1_455 S
S1326 N1328 1.610 . S
N1327 S1326 1.613 1_655 S
N1327 C1330 1.350 . S
N1328 S1326 1.610 . S
N1328 C1329 1.351 . S
C1329 C1323 1.428 . S
C1329 N1328 1.351 . S
C1329 C1330 1.434 1_455 S
C1330 C1321 1.429 . S
C1330 N1327 1.350 . S
C1330 C1329 1.434 1_655 S
C1331 C1332 1.369 . S
C1331 C1333 1.419 . S
C1331 H1335 0.930 . S
C1332 C1331 1.369 . S
C1332 C1341 1.429 . S
C1333 C1331 1.419 . S
C1333 C1334 1.363 . S
C1333 H1336 0.929 . S
C1334 C1333 1.363 . S
C1334 C1340 1.428 . S
H1335 C1331 0.930 . S
H1336 C1333 0.929 . S
S1337 N1338 1.613 . S
S1337 N1339 1.610 . S
N1338 S1337 1.613 . S
N1338 C1341 1.350 . S
N1339 S1337 1.610 . S
N1339 C1340 1.351 . S
C1340 C1334 1.428 . S
C1340 N1339 1.351 . S
C1340 C1341 1.434 . S
C1341 C1332 1.429 . S
C1341 N1338 1.350 . S
C1341 C1340 1.434 . S
C1342 C1343 1.369 . S
C1342 C1344 1.419 1_545 S
C1342 H1346 0.930 . S
C1343 C1342 1.369 . S
C1343 C1352 1.429 . S
C1344 C1342 1.419 1_565 S
C1344 C1345 1.363 . S
C1344 H1347 0.929 . S
C1345 C1344 1.363 . S
C1345 C1351 1.428 . S
H1346 C1342 0.930 . S
H1347 C1344 0.929 . S
S1348 N1349 1.613 1_565 S
S1348 N1350 1.610 . S
N1349 S1348 1.613 1_545 S
N1349 C1352 1.350 . S
N1350 S1348 1.610 . S
N1350 C1351 1.351 . S
C1351 C1345 1.428 . S
C1351 N1350 1.351 . S
C1351 C1352 1.434 1_565 S
C1352 C1343 1.429 . S
C1352 N1349 1.350 . S
C1352 C1351 1.434 1_545 S
C1353 C1354 1.369 . S
C1353 C1355 1.419 1_565 S
C1353 H1357 0.930 . S
C1354 C1353 1.369 . S
C1354 C1363 1.429 1_554 S
C1355 C1353 1.419 1_545 S
C1355 C1356 1.363 1_554 S
C1355 H1358 0.929 . S
C1356 C1355 1.363 1_556 S
C1356 C1362 1.428 . S
H1357 C1353 0.930 . S
H1358 C1355 0.929 . S
S1359 N1360 1.599 1_545 S
S1359 N1361 1.639 . S
N1360 S1359 1.599 1_565 S
N1360 C1363 1.350 . S
N1361 S1359 1.639 . S
N1361 C1362 1.351 . S
C1362 C1356 1.428 . S
C1362 N1361 1.351 . S
C1362 C1363 1.434 1_545 S
C1363 C1354 1.429 1_556 S
C1363 N1360 1.350 . S
C1363 C1362 1.434 1_565 S
C1364 C1365 1.369 . S
C1364 C1366 1.419 1_655 S
C1364 H1368 0.930 . S
C1365 C1364 1.369 . S
C1365 C1374 1.429 1_556 S
C1366 C1364 1.419 1_455 S
C1366 C1367 1.363 1_556 S
C1366 H1369 0.929 . S
C1367 C1366 1.363 1_554 S
C1367 C1373 1.428 . S
H1368 C1364 0.930 . S
H1369 C1366 0.929 . S
S1370 N1371 1.613 . S
S1370 N1372 1.610 1_655 S
N1371 S1370 1.613 . S
N1371 C1374 1.350 . S
N1372 S1370 1.610 1_455 S
N1372 C1373 1.351 . S
C1373 C1367 1.428 . S
C1373 N1372 1.351 . S
C1373 C1374 1.434 1_455 S
C1374 C1365 1.429 1_554 S
C1374 N1371 1.350 . S
C1374 C1373 1.434 1_655 S
C1375 C1376 1.365 1_556 S
C1375 C1377 1.422 . S
C1375 H1379 0.930 . S
C1376 C1375 1.365 1_554 S
C1376 C1385 1.429 . S
C1377 C1375 1.422 . S
C1377 C1378 1.363 . S
C1377 H1380 0.929 . S
C1378 C1377 1.363 . S
C1378 C1384 1.425 1_556 S
H1379 C1375 0.930 . S
H1380 C1377 0.929 . S
S1381 N1382 1.613 . S
S1381 N1383 1.610 . S
N1382 S1381 1.613 . S
N1382 C1385 1.350 . S
N1383 S1381 1.610 . S
N1383 C1384 1.351 . S
C1384 C1378 1.425 1_554 S
C1384 N1383 1.351 . S
C1384 C1385 1.437 . S
C1385 C1376 1.429 . S
C1385 N1382 1.350 . S
C1385 C1384 1.437 . S
C1386 C1387 1.369 . S
C1386 C1388 1.419 . S
C1386 H1390 0.930 . S
C1387 C1386 1.369 . S
C1387 C1396 1.429 . S
C1388 C1386 1.419 . S
C1388 C1389 1.363 . S
C1388 H1391 0.929 . S
C1389 C1388 1.363 . S
C1389 C1395 1.428 . S
H1390 C1386 0.930 . S
H1391 C1388 0.929 . S
S1392 N1393 1.613 . S
S1392 N1394 1.610 . S
N1393 S1392 1.613 . S
N1393 C1396 1.350 . S
N1394 S1392 1.610 . S
N1394 C1395 1.351 . S
C1395 C1389 1.428 . S
C1395 N1394 1.351 . S
C1395 C1396 1.434 . S
C1396 C1387 1.429 . S
C1396 N1393 1.350 . S
C1396 C1395 1.434 . S
C1397 C1398 1.369 . S
C1397 C1399 1.419 . S
C1397 H1401 0.930 . S
C1398 C1397 1.369 . S
C1398 C1407 1.429 . S
C1399 C1397 1.419 . S
C1399 C1400 1.363 . S
C1399 H1402 0.929 . S
C1400 C1399 1.363 . S
C1400 C1406 1.428 . S
H1401 C1397 0.930 . S
H1402 C1399 0.929 . S
S1403 N1404 1.613 . S
S1403 N1405 1.610 . S
N1404 S1403 1.613 . S
N1404 C1407 1.350 . S
N1405 S1403 1.610 . S
N1405 C1406 1.351 . S
C1406 C1400 1.428 . S
C1406 N1405 1.351 . S
C1406 C1407 1.434 . S
C1407 C1398 1.429 . S
C1407 N1404 1.350 . S
C1407 C1406 1.434 . S
C1408 C1409 1.369 . S
C1408 C1410 1.419 . S
C1408 H1412 0.930 . S
C1409 C1408 1.369 . S
C1409 C1418 1.429 . S
C1410 C1408 1.419 . S
C1410 C1411 1.363 . S
C1410 H1413 0.929 . S
C1411 C1410 1.363 . S
C1411 C1417 1.428 . S
H1412 C1408 0.930 . S
H1413 C1410 0.929 . S
S1414 N1415 1.613 . S
S1414 N1416 1.610 . S
N1415 S1414 1.613 . S
N1415 C1418 1.350 . S
N1416 S1414 1.610 . S
N1416 C1417 1.351 . S
C1417 C1411 1.428 . S
C1417 N1416 1.351 . S
C1417 C1418 1.434 . S
C1418 C1409 1.429 . S
C1418 N1415 1.350 . S
C1418 C1417 1.434 . S
C1419 C1420 1.369 . S
C1419 C1421 1.419 . S
C1419 H1423 0.930 . S
C1420 C1419 1.369 . S
C1420 C1429 1.429 . S
C1421 C1419 1.419 . S
C1421 C1422 1.363 . S
C1421 H1424 0.929 . S
C1422 C1421 1.363 . S
C1422 C1428 1.428 . S
H1423 C1419 0.930 . S
H1424 C1421 0.929 . S
S1425 N1426 1.613 . S
S1425 N1427 1.610 . S
N1426 S1425 1.613 . S
N1426 C1429 1.350 . S
N1427 S1425 1.610 . S
N1427 C1428 1.351 . S
C1428 C1422 1.428 . S
C1428 N1427 1.351 . S
C1428 C1429 1.434 . S
C1429 C1420 1.429 . S
C1429 N1426 1.350 . S
C1429 C1428 1.434 . S
C1430 C1431 1.369 . S
C1430 C1432 1.419 . S
C1430 H1434 0.930 . S
C1431 C1430 1.369 . S
C1431 C1440 1.429 . S
C1432 C1430 1.419 . S
C1432 C1433 1.363 . S
C1432 H1435 0.929 . S
C1433 C1432 1.363 . S
C1433 C1439 1.428 . S
H1434 C1430 0.930 . S
H1435 C1432 0.929 . S
S1436 N1437 1.613 . S
S1436 N1438 1.610 . S
N1437 S1436 1.613 . S
N1437 C1440 1.350 . S
N1438 S1436 1.610 . S
N1438 C1439 1.351 . S
C1439 C1433 1.428 . S
C1439 N1438 1.351 . S
C1439 C1440 1.434 . S
C1440 C1431 1.429 . S
C1440 N1437 1.350 . S
C1440 C1439 1.434 . S
C1441 C1442 1.369 . S
C1441 C1443 1.419 . S
C1441 H1445 0.930 . S
C1442 C1441 1.369 . S
C1442 C1451 1.429 . S
C1443 C1441 1.419 . S
C1443 C1444 1.363 . S
C1443 H1446 0.929 . S
C1444 C1443 1.363 . S
C1444 C1450 1.428 . S
H1445 C1441 0.930 . S
H1446 C1443 0.929 . S
S1447 N1448 1.613 . S
S1447 N1449 1.610 . S
N1448 S1447 1.613 . S
N1448 C1451 1.350 . S
N1449 S1447 1.610 . S
N1449 C1450 1.351 . S
C1450 C1444 1.428 . S
C1450 N1449 1.351 . S
C1450 C1451 1.434 . S
C1451 C1442 1.429 . S
C1451 N1448 1.350 . S
C1451 C1450 1.434 . S
C1452 C1453 1.369 . S
C1452 C1454 1.419 . S
C1452 H1456 0.930 . S
C1453 C1452 1.369 . S
C1453 C1462 1.429 . S
C1454 C1452 1.419 . S
C1454 C1455 1.363 . S
C1454 H1457 0.929 . S
C1455 C1454 1.363 . S
C1455 C1461 1.428 . S
H1456 C1452 0.930 . S
H1457 C1454 0.929 . S
S1458 N1459 1.613 . S
S1458 N1460 1.610 . S
N1459 S1458 1.613 . S
N1459 C1462 1.350 . S
N1460 S1458 1.610 . S
N1460 C1461 1.351 . S
C1461 C1455 1.428 . S
C1461 N1460 1.351 . S
C1461 C1462 1.434 . S
C1462 C1453 1.429 . S
C1462 N1459 1.350 . S
C1462 C1461 1.434 . S
C1463 C1464 1.369 . S
C1463 C1465 1.419 . S
C1463 H1467 0.930 . S
C1464 C1463 1.369 . S
C1464 C1473 1.429 . S
C1465 C1463 1.419 . S
C1465 C1466 1.363 . S
C1465 H1468 0.929 . S
C1466 C1465 1.363 . S
C1466 C1472 1.428 . S
H1467 C1463 0.930 . S
H1468 C1465 0.929 . S
S1469 N1470 1.613 . S
S1469 N1471 1.610 . S
N1470 S1469 1.613 . S
N1470 C1473 1.350 . S
N1471 S1469 1.610 . S
N1471 C1472 1.351 . S
C1472 C1466 1.428 . S
C1472 N1471 1.351 . S
C1472 C1473 1.434 . S
C1473 C1464 1.429 . S
C1473 N1470 1.350 . S
C1473 C1472 1.434 . S
C1474 C1475 1.369 . S
C1474 C1476 1.419 . S
C1474 H1478 0.930 . S
C1475 C1474 1.369 . S
C1475 C1484 1.429 . S
C1476 C1474 1.419 . S
C1476 C1477 1.363 . S
C1476 H1479 0.929 . S
C1477 C1476 1.363 . S
C1477 C1483 1.428 . S
H1478 C1474 0.930 . S
H1479 C1476 0.929 . S
S1480 N1481 1.613 . S
S1480 N1482 1.610 . S
N1481 S1480 1.613 . S
N1481 C1484 1.350 . S
N1482 S1480 1.610 . S
N1482 C1483 1.351 . S
C1483 C1477 1.428 . S
C1483 N1482 1.351 . S
C1483 C1484 1.434 . S
C1484 C1475 1.429 . S
C1484 N1481 1.350 . S
C1484 C1483 1.434 . S
C1485 C1486 1.369 . S
C1485 C1487 1.419 . S
C1485 H1489 0.930 . S
C1486 C1485 1.369 . S
C1486 C1495 1.429 . S
C1487 C1485 1.419 . S
C1487 C1488 1.363 . S
C1487 H1490 0.929 . S
C1488 C1487 1.363 . S
C1488 C1494 1.428 . S
H1489 C1485 0.930 . S
H1490 C1487 0.929 . S
S1491 N1492 1.613 . S
S1491 N1493 1.610 . S
N1492 S1491 1.613 . S
N1492 C1495 1.350 . S
N1493 S1491 1.610 . S
N1493 C1494 1.351 . S
C1494 C1488 1.428 . S
C1494 N1493 1.351 . S
C1494 C1495 1.434 . S
C1495 C1486 1.429 . S
C1495 N1492 1.350 . S
C1495 C1494 1.434 . S
C1496 C1497 1.369 . S
C1496 C1498 1.419 . S
C1496 H1500 0.930 . S
C1497 C1496 1.369 . S
C1497 C1506 1.429 . S
C1498 C1496 1.419 . S
C1498 C1499 1.363 . S
C1498 H1501 0.929 . S
C1499 C1498 1.363 . S
C1499 C1505 1.428 . S
H1500 C1496 0.930 . S
H1501 C1498 0.929 . S
S1502 N1503 1.613 . S
S1502 N1504 1.610 . S
N1503 S1502 1.613 . S
N1503 C1506 1.350 . S
N1504 S1502 1.610 . S
N1504 C1505 1.351 . S
C1505 C1499 1.428 . S
C1505 N1504 1.351 . S
C1505 C1506 1.434 . S
C1506 C1497 1.429 . S
C1506 N1503 1.350 . S
C1506 C1505 1.434 . S
C1507 C1508 1.369 . S
C1507 C1509 1.419 . S
C1507 H1511 0.930 . S
C1508 C1507 1.369 . S
C1508 C1517 1.429 . S
C1509 C1507 1.419 . S
C1509 C1510 1.363 . S
C1509 H1512 0.929 . S
C1510 C1509 1.363 . S
C1510 C1516 1.428 . S
H1511 C1507 0.930 . S
H1512 C1509 0.929 . S
S1513 N1514 1.613 . S
S1513 N1515 1.610 . S
N1514 S1513 1.613 . S
N1514 C1517 1.350 . S
N1515 S1513 1.610 . S
N1515 C1516 1.351 . S
C1516 C1510 1.428 . S
C1516 N1515 1.351 . S
C1516 C1517 1.434 . S
C1517 C1508 1.429 . S
C1517 N1514 1.350 . S
C1517 C1516 1.434 . S
C1518 C1519 1.369 . S
C1518 C1520 1.419 1_455 S
C1518 H1522 0.930 . S
C1519 C1518 1.369 . S
C1519 C1528 1.429 1_455 S
C1520 C1518 1.419 1_655 S
C1520 C1521 1.363 . S
C1520 H1523 0.934 1_655 S
C1521 C1520 1.363 . S
C1521 C1527 1.428 . S
H1522 C1518 0.930 . S
H1523 C1520 0.934 1_455 S
S1524 N1525 1.613 . S
S1524 N1526 1.610 . S
N1525 S1524 1.613 . S
N1525 C1528 1.350 . S
N1526 S1524 1.610 . S
N1526 C1527 1.351 . S
C1527 C1521 1.428 . S
C1527 N1526 1.351 . S
C1527 C1528 1.434 . S
C1528 C1519 1.429 1_655 S
C1528 N1525 1.350 . S
C1528 C1527 1.434 . S
C1529 C1530 1.369 . S
C1529 C1531 1.419 . S
C1529 H1533 0.930 . S
C1530 C1529 1.369 . S
C1530 C1539 1.429 . S
C1531 C1529 1.419 . S
C1531 C1532 1.363 . S
C1531 H1534 0.929 . S
C1532 C1531 1.363 . S
C1532 C1538 1.428 . S
H1533 C1529 0.930 . S
H1534 C1531 0.929 . S
S1535 N1536 1.613 . S
S1535 N1537 1.610 . S
N1536 S1535 1.613 . S
N1536 C1539 1.350 . S
N1537 S1535 1.610 . S
N1537 C1538 1.351 . S
C1538 C1532 1.428 . S
C1538 N1537 1.351 . S
C1538 C1539 1.434 . S
C1539 C1530 1.429 . S
C1539 N1536 1.350 . S
C1539 C1538 1.434 . S
C1540 C1541 1.369 . S
C1540 C1542 1.419 . S
C1540 H1544 0.930 . S
C1541 C1540 1.369 . S
C1541 C1550 1.429 1_545 S
C1542 C1540 1.419 . S
C1542 C1543 1.363 1_545 S
C1542 H1545 0.929 . S
C1543 C1542 1.363 1_565 S
C1543 C1549 1.428 . S
H1544 C1540 0.930 . S
H1545 C1542 0.929 . S
S1546 N1547 1.613 . S
S1546 N1548 1.610 . S
N1547 S1546 1.613 . S
N1547 C1550 1.350 . S
N1548 S1546 1.610 . S
N1548 C1549 1.351 . S
C1549 C1543 1.428 . S
C1549 N1548 1.351 . S
C1549 C1550 1.434 . S
C1550 C1541 1.429 1_565 S
C1550 N1547 1.350 . S
C1550 C1549 1.434 . S
C1551 C1552 1.369 . S
C1551 C1553 1.419 . S
C1551 H1555 0.930 . S
C1552 C1551 1.369 . S
C1552 C1561 1.429 1_565 S
C1553 C1551 1.419 . S
C1553 C1554 1.363 1_565 S
C1553 H1556 0.929 . S
C1554 C1553 1.363 1_545 S
C1554 C1560 1.428 . S
H1555 C1551 0.930 . S
H1556 C1553 0.929 . S
S1557 N1558 1.613 . S
S1557 N1559 1.610 . S
N1558 S1557 1.613 . S
N1558 C1561 1.350 . S
N1559 S1557 1.610 . S
N1559 C1560 1.351 . S
C1560 C1554 1.428 . S
C1560 N1559 1.351 . S
C1560 C1561 1.434 . S
C1561 C1552 1.429 1_545 S
C1561 N1558 1.350 . S
C1561 C1560 1.434 . S
C1562 C1563 1.369 1_655 S
C1562 C1564 1.419 . S
C1562 H1566 0.930 . S
C1563 C1562 1.369 1_455 S
C1563 C1572 1.429 . S
C1564 C1562 1.419 . S
C1564 C1565 1.363 . S
C1564 H1567 0.929 . S
C1565 C1564 1.363 . S
C1565 C1571 1.428 1_655 S
H1566 C1562 0.930 . S
H1567 C1564 0.929 . S
S1568 N1569 1.613 . S
S1568 N1570 1.610 . S
N1569 S1568 1.613 . S
N1569 C1572 1.350 . S
N1570 S1568 1.610 . S
N1570 C1571 1.351 . S
C1571 C1565 1.428 1_455 S
C1571 N1570 1.351 . S
C1571 C1572 1.434 . S
C1572 C1563 1.429 . S
C1572 N1569 1.350 . S
C1572 C1571 1.434 . S
C1573 C1574 1.369 . S
C1573 C1575 1.419 . S
C1573 H1577 0.930 . S
C1574 C1573 1.369 . S
C1574 C1583 1.429 . S
C1575 C1573 1.419 . S
C1575 C1576 1.363 . S
C1575 H1578 0.929 . S
C1576 C1575 1.363 . S
C1576 C1582 1.428 . S
H1577 C1573 0.930 . S
H1578 C1575 0.929 . S
S1579 N1580 1.613 . S
S1579 N1581 1.610 . S
N1580 S1579 1.613 . S
N1580 C1583 1.350 . S
N1581 S1579 1.610 . S
N1581 C1582 1.351 . S
C1582 C1576 1.428 . S
C1582 N1581 1.351 . S
C1582 C1583 1.434 . S
C1583 C1574 1.429 . S
C1583 N1580 1.350 . S
C1583 C1582 1.434 . S
C1584 C1585 1.369 . S
C1584 C1586 1.419 . S
C1584 H1588 0.930 . S
C1585 C1584 1.369 . S
C1585 C1594 1.429 . S
C1586 C1584 1.419 . S
C1586 C1587 1.363 . S
C1586 H1589 0.929 . S
C1587 C1586 1.363 . S
C1587 C1593 1.428 . S
H1588 C1584 0.930 . S
H1589 C1586 0.929 . S
S1590 N1591 1.613 . S
S1590 N1592 1.610 . S
N1591 S1590 1.613 . S
N1591 C1594 1.350 . S
N1592 S1590 1.610 . S
N1592 C1593 1.351 . S
C1593 C1587 1.428 . S
C1593 N1592 1.351 . S
C1593 C1594 1.434 . S
C1594 C1585 1.429 . S
C1594 N1591 1.350 . S
C1594 C1593 1.434 . S
C1595 C1596 1.369 1_565 S
C1595 C1597 1.419 . S
C1595 H1599 0.930 . S
C1596 C1595 1.369 1_545 S
C1596 C1605 1.429 . S
C1597 C1595 1.419 . S
C1597 C1598 1.363 . S
C1597 H1600 0.929 . S
C1598 C1597 1.363 . S
C1598 C1604 1.428 1_565 S
H1599 C1595 0.930 . S
H1600 C1597 0.929 . S
S1601 N1602 1.613 . S
S1601 N1603 1.610 . S
N1602 S1601 1.613 . S
N1602 C1605 1.350 . S
N1603 S1601 1.610 . S
N1603 C1604 1.351 . S
C1604 C1598 1.428 1_545 S
C1604 N1603 1.351 . S
C1604 C1605 1.434 . S
C1605 C1596 1.429 . S
C1605 N1602 1.350 . S
C1605 C1604 1.434 . S
C1606 C1607 1.369 . S
C1606 C1608 1.419 . S
C1606 H1610 0.930 . S
C1607 C1606 1.369 . S
C1607 C1616 1.429 1_655 S
C1608 C1606 1.419 . S
C1608 C1609 1.363 1_655 S
C1608 H1611 0.929 . S
C1609 C1608 1.363 1_455 S
C1609 C1615 1.428 . S
H1610 C1606 0.930 . S
H1611 C1608 0.929 . S
S1612 N1613 1.613 . S
S1612 N1614 1.610 . S
N1613 S1612 1.613 . S
N1613 C1616 1.350 . S
N1614 S1612 1.610 . S
N1614 C1615 1.351 . S
C1615 C1609 1.428 . S
C1615 N1614 1.351 . S
C1615 C1616 1.434 . S
C1616 C1607 1.429 1_455 S
C1616 N1613 1.350 . S
C1616 C1615 1.434 . S
C1617 C1618 1.369 . S
C1617 C1619 1.419 . S
C1617 H1621 0.930 . S
C1618 C1617 1.369 . S
C1618 C1627 1.429 . S
C1619 C1617 1.419 . S
C1619 C1620 1.363 . S
C1619 H1622 0.929 . S
C1620 C1619 1.363 . S
C1620 C1626 1.428 . S
H1621 C1617 0.930 . S
H1622 C1619 0.929 . S
S1623 N1624 1.613 . S
S1623 N1625 1.610 . S
N1624 S1623 1.613 . S
N1624 C1627 1.350 . S
N1625 S1623 1.610 . S
N1625 C1626 1.351 . S
C1626 C1620 1.428 . S
C1626 N1625 1.351 . S
C1626 C1627 1.434 . S
C1627 C1618 1.429 . S
C1627 N1624 1.350 . S
C1627 C1626 1.434 . S
C1628 C1629 1.369 1_545 S
C1628 C1630 1.419 . S
C1628 H1632 0.930 . S
C1629 C1628 1.369 1_565 S
C1629 C1638 1.429 . S
C1630 C1628 1.419 . S
C1630 C1631 1.363 . S
C1630 H1633 0.929 . S
C1631 C1630 1.363 . S
C1631 C1637 1.428 1_545 S
H1632 C1628 0.930 . S
H1633 C1630 0.929 . S
S1634 N1635 1.613 . S
S1634 N1636 1.610 . S
N1635 S1634 1.613 . S
N1635 C1638 1.350 . S
N1636 S1634 1.610 . S
N1636 C1637 1.351 . S
C1637 C1631 1.428 1_565 S
C1637 N1636 1.351 . S
C1637 C1638 1.434 . S
C1638 C1629 1.429 . S
C1638 N1635 1.350 . S
C1638 C1637 1.434 . S
C1639 C1640 1.369 1_455 S
C1639 C1641 1.419 . S
C1639 H1643 0.930 . S
C1640 C1639 1.369 1_655 S
C1640 C1649 1.429 . S
C1641 C1639 1.419 . S
C1641 C1642 1.363 . S
C1641 H1644 0.929 . S
C1642 C1641 1.363 . S
C1642 C1648 1.428 1_455 S
H1643 C1639 0.930 . S
H1644 C1641 0.929 . S
S1645 N1646 1.613 . S
S1645 N1647 1.610 . S
N1646 S1645 1.613 . S
N1646 C1649 1.350 . S
N1647 S1645 1.610 . S
N1647 C1648 1.351 . S
C1648 C1642 1.428 1_655 S
C1648 N1647 1.351 . S
C1648 C1649 1.434 . S
C1649 C1640 1.429 . S
C1649 N1646 1.350 . S
C1649 C1648 1.434 . S
C1650 C1651 1.369 . S
C1650 C1652 1.419 . S
C1650 H1654 0.930 . S
C1651 C1650 1.369 . S
C1651 C1660 1.429 . S
C1652 C1650 1.419 . S
C1652 C1653 1.363 . S
C1652 H1655 0.929 . S
C1653 C1652 1.363 . S
C1653 C1659 1.428 . S
H1654 C1650 0.930 . S
H1655 C1652 0.929 . S
S1656 N1657 1.613 . S
S1656 N1658 1.610 . S
N1657 S1656 1.613 . S
N1657 C1660 1.350 . S
N1658 S1656 1.610 . S
N1658 C1659 1.351 . S
C1659 C1653 1.428 . S
C1659 N1658 1.351 . S
C1659 C1660 1.434 . S
C1660 C1651 1.429 . S
C1660 N1657 1.350 . S
C1660 C1659 1.434 . S
C1661 C1662 1.369 . S
C1661 C1663 1.419 . S
C1661 H1665 0.930 . S
C1662 C1661 1.369 . S
C1662 C1671 1.429 . S
C1663 C1661 1.419 . S
C1663 C1664 1.363 . S
C1663 H1666 0.929 . S
C1664 C1663 1.363 . S
C1664 C1670 1.428 . S
H1665 C1661 0.930 . S
H1666 C1663 0.929 . S
S1667 N1668 1.613 . S
S1667 N1669 1.610 . S
N1668 S1667 1.613 . S
N1668 C1671 1.350 . S
N1669 S1667 1.610 . S
N1669 C1670 1.351 . S
C1670 C1664 1.428 . S
C1670 N1669 1.351 . S
C1670 C1671 1.434 . S
C1671 C1662 1.429 . S
C1671 N1668 1.350 . S
C1671 C1670 1.434 . S
C1672 C1673 1.369 . S
C1672 C1674 1.419 . S
C1672 H1676 0.930 . S
C1673 C1672 1.369 . S
C1673 C1682 1.429 . S
C1674 C1672 1.419 . S
C1674 C1675 1.363 . S
C1674 H1677 0.929 . S
C1675 C1674 1.363 . S
C1675 C1681 1.428 . S
H1676 C1672 0.930 . S
H1677 C1674 0.929 . S
S1678 N1679 1.613 . S
S1678 N1680 1.610 . S
N1679 S1678 1.613 . S
N1679 C1682 1.350 . S
N1680 S1678 1.610 . S
N1680 C1681 1.351 . S
C1681 C1675 1.428 . S
C1681 N1680 1.351 . S
C1681 C1682 1.434 . S
C1682 C1673 1.429 . S
C1682 N1679 1.350 . S
C1682 C1681 1.434 . S
C1683 C1684 1.369 . S
C1683 C1685 1.419 . S
C1683 H1687 0.930 . S
C1684 C1683 1.369 . S
C1684 C1693 1.429 . S
C1685 C1683 1.419 . S
C1685 C1686 1.363 . S
C1685 H1688 0.929 . S
C1686 C1685 1.363 . S
C1686 C1692 1.428 . S
H1687 C1683 0.930 . S
H1688 C1685 0.929 . S
S1689 N1690 1.613 . S
S1689 N1691 1.610 . S
N1690 S1689 1.613 . S
N1690 C1693 1.350 . S
N1691 S1689 1.610 . S
N1691 C1692 1.351 . S
C1692 C1686 1.428 . S
C1692 N1691 1.351 . S
C1692 C1693 1.434 . S
C1693 C1684 1.429 . S
C1693 N1690 1.350 . S
C1693 C1692 1.434 . S
C1694 C1695 1.369 . S
C1694 C1696 1.419 . S
C1694 H1698 0.930 . S
C1695 C1694 1.369 . S
C1695 C1704 1.429 . S
C1696 C1694 1.419 . S
C1696 C1697 1.363 . S
C1696 H1699 0.929 . S
C1697 C1696 1.363 . S
C1697 C1703 1.428 . S
H1698 C1694 0.930 . S
H1699 C1696 0.929 . S
S1700 N1701 1.613 . S
S1700 N1702 1.610 . S
N1701 S1700 1.613 . S
N1701 C1704 1.350 . S
N1702 S1700 1.610 . S
N1702 C1703 1.351 . S
C1703 C1697 1.428 . S
C1703 N1702 1.351 . S
C1703 C1704 1.434 . S
C1704 C1695 1.429 . S
C1704 N1701 1.350 . S
C1704 C1703 1.434 . S
C1705 C1706 1.369 . S
C1705 C1707 1.419 . S
C1705 H1709 0.930 . S
C1706 C1705 1.369 . S
C1706 C1715 1.429 . S
C1707 C1705 1.419 . S
C1707 C1708 1.363 . S
C1707 H1710 0.929 . S
C1708 C1707 1.363 . S
C1708 C1714 1.428 . S
H1709 C1705 0.930 . S
H1710 C1707 0.929 . S
S1711 N1712 1.613 . S
S1711 N1713 1.610 . S
N1712 S1711 1.613 . S
N1712 C1715 1.350 . S
N1713 S1711 1.610 . S
N1713 C1714 1.351 . S
C1714 C1708 1.428 . S
C1714 N1713 1.351 . S
C1714 C1715 1.434 . S
C1715 C1706 1.429 . S
C1715 N1712 1.350 . S
C1715 C1714 1.434 . S
C1716 C1717 1.369 . S
C1716 C1718 1.419 . S
C1716 H1720 0.930 . S
C1717 C1716 1.369 . S
C1717 C1726 1.429 . S
C1718 C1716 1.419 . S
C1718 C1719 1.363 . S
C1718 H1721 0.929 . S
C1719 C1718 1.363 . S
C1719 C1725 1.428 . S
H1720 C1716 0.930 . S
H1721 C1718 0.929 . S
S1722 N1723 1.613 . S
S1722 N1724 1.610 . S
N1723 S1722 1.613 . S
N1723 C1726 1.350 . S
N1724 S1722 1.610 . S
N1724 C1725 1.351 . S
C1725 C1719 1.428 . S
C1725 N1724 1.351 . S
C1725 C1726 1.434 . S
C1726 C1717 1.429 . S
C1726 N1723 1.350 . S
C1726 C1725 1.434 . S
C1727 C1728 1.369 . S
C1727 C1729 1.419 . S
C1727 H1731 0.930 . S
C1728 C1727 1.369 . S
C1728 C1737 1.429 . S
C1729 C1727 1.419 . S
C1729 C1730 1.363 . S
C1729 H1732 0.929 . S
C1730 C1729 1.363 . S
C1730 C1736 1.428 . S
H1731 C1727 0.930 . S
H1732 C1729 0.929 . S
S1733 N1734 1.613 . S
S1733 N1735 1.610 . S
N1734 S1733 1.613 . S
N1734 C1737 1.350 . S
N1735 S1733 1.610 . S
N1735 C1736 1.351 . S
C1736 C1730 1.428 . S
C1736 N1735 1.351 . S
C1736 C1737 1.434 . S
C1737 C1728 1.429 . S
C1737 N1734 1.350 . S
C1737 C1736 1.434 . S
C1738 C1739 1.369 . S
C1738 C1740 1.419 . S
C1738 H1742 0.930 . S
C1739 C1738 1.369 . S
C1739 C1748 1.429 . S
C1740 C1738 1.419 . S
C1740 C1741 1.363 . S
C1740 H1743 0.929 . S
C1741 C1740 1.363 . S
C1741 C1747 1.428 . S
H1742 C1738 0.930 . S
H1743 C1740 0.929 . S
S1744 N1745 1.613 . S
S1744 N1746 1.610 . S
N1745 S1744 1.613 . S
N1745 C1748 1.350 . S
N1746 S1744 1.610 . S
N1746 C1747 1.351 . S
C1747 C1741 1.428 . S
C1747 N1746 1.351 . S
C1747 C1748 1.434 . S
C1748 C1739 1.429 . S
C1748 N1745 1.350 . S
C1748 C1747 1.434 . S
C1749 C1750 1.369 . S
C1749 C1751 1.419 . S
C1749 H1753 0.930 . S
C1750 C1749 1.369 . S
C1750 C1759 1.429 . S
C1751 C1749 1.419 . S
C1751 C1752 1.363 . S
C1751 H1754 0.929 . S
C1752 C1751 1.363 . S
C1752 C1758 1.428 . S
H1753 C1749 0.930 . S
H1754 C1751 0.929 . S
S1755 N1756 1.613 . S
S1755 N1757 1.610 . S
N1756 S1755 1.613 . S
N1756 C1759 1.350 . S
N1757 S1755 1.610 . S
N1757 C1758 1.351 . S
C1758 C1752 1.428 . S
C1758 N1757 1.351 . S
C1758 C1759 1.434 . S
C1759 C1750 1.429 . S
C1759 N1756 1.350 . S
C1759 C1758 1.434 . S
C1760 C1761 1.369 . S
C1760 C1762 1.419 . S
C1760 H1764 0.930 . S
C1761 C1760 1.369 . S
C1761 C1770 1.429 . S
C1762 C1760 1.419 . S
C1762 C1763 1.363 . S
C1762 H1765 0.929 . S
C1763 C1762 1.363 . S
C1763 C1769 1.428 . S
H1764 C1760 0.930 . S
H1765 C1762 0.929 . S
S1766 N1767 1.613 . S
S1766 N1768 1.610 . S
N1767 S1766 1.613 . S
N1767 C1770 1.350 . S
N1768 S1766 1.610 . S
N1768 C1769 1.351 . S
C1769 C1763 1.428 . S
C1769 N1768 1.351 . S
C1769 C1770 1.434 . S
C1770 C1761 1.429 . S
C1770 N1767 1.350 . S
C1770 C1769 1.434 . S
C1771 C1772 1.369 . S
C1771 C1773 1.419 . S
C1771 H1775 0.930 . S
C1772 C1771 1.369 . S
C1772 C1781 1.429 . S
C1773 C1771 1.419 . S
C1773 C1774 1.363 . S
C1773 H1776 0.929 . S
C1774 C1773 1.363 . S
C1774 C1780 1.428 . S
H1775 C1771 0.930 . S
H1776 C1773 0.929 . S
S1777 N1778 1.613 . S
S1777 N1779 1.610 . S
N1778 S1777 1.613 . S
N1778 C1781 1.350 . S
N1779 S1777 1.610 . S
N1779 C1780 1.351 . S
C1780 C1774 1.428 . S
C1780 N1779 1.351 . S
C1780 C1781 1.434 . S
C1781 C1772 1.429 . S
C1781 N1778 1.350 . S
C1781 C1780 1.434 . S
C1782 C1783 1.369 . S
C1782 C1784 1.419 . S
C1782 H1786 0.930 . S
C1783 C1782 1.369 . S
C1783 C1792 1.429 . S
C1784 C1782 1.419 . S
C1784 C1785 1.363 . S
C1784 H1787 0.929 . S
C1785 C1784 1.363 . S
C1785 C1791 1.428 . S
H1786 C1782 0.930 . S
H1787 C1784 0.929 . S
S1788 N1789 1.613 . S
S1788 N1790 1.610 . S
N1789 S1788 1.613 . S
N1789 C1792 1.350 . S
N1790 S1788 1.610 . S
N1790 C1791 1.351 . S
C1791 C1785 1.428 . S
C1791 N1790 1.351 . S
C1791 C1792 1.434 . S
C1792 C1783 1.429 . S
C1792 N1789 1.350 . S
C1792 C1791 1.434 . S
C1793 C1794 1.369 . S
C1793 C1795 1.419 . S
C1793 H1797 0.930 . S
C1794 C1793 1.369 . S
C1794 C1803 1.429 . S
C1795 C1793 1.419 . S
C1795 C1796 1.363 . S
C1795 H1798 0.929 . S
C1796 C1795 1.363 . S
C1796 C1802 1.428 . S
H1797 C1793 0.930 . S
H1798 C1795 0.929 . S
S1799 N1800 1.613 1_545 S
S1799 N1801 1.610 . S
N1800 S1799 1.613 1_565 S
N1800 C1803 1.350 . S
N1801 S1799 1.610 . S
N1801 C1802 1.351 1_545 S
C1802 C1796 1.428 . S
C1802 N1801 1.351 1_565 S
C1802 C1803 1.434 . S
C1803 C1794 1.429 . S
C1803 N1800 1.350 . S
C1803 C1802 1.434 . S
C1804 C1805 1.369 . S
C1804 C1806 1.419 . S
C1804 H1808 0.930 . S
C1805 C1804 1.369 . S
C1805 C1814 1.429 . S
C1806 C1804 1.419 . S
C1806 C1807 1.363 . S
C1806 H1809 0.929 . S
C1807 C1806 1.363 . S
C1807 C1813 1.428 . S
H1808 C1804 0.930 . S
H1809 C1806 0.929 . S
S1810 N1811 1.613 . S
S1810 N1812 1.610 1_655 S
N1811 S1810 1.613 . S
N1811 C1814 1.350 1_655 S
N1812 S1810 1.610 1_455 S
N1812 C1813 1.351 . S
C1813 C1807 1.428 . S
C1813 N1812 1.351 . S
C1813 C1814 1.434 . S
C1814 C1805 1.429 . S
C1814 N1811 1.350 1_455 S
C1814 C1813 1.434 . S
C1815 C1816 1.369 . S
C1815 C1817 1.419 . S
C1815 H1819 0.930 . S
C1816 C1815 1.369 . S
C1816 C1825 1.429 . S
C1817 C1815 1.419 . S
C1817 C1818 1.363 . S
C1817 H1820 0.929 . S
C1818 C1817 1.363 . S
C1818 C1824 1.428 . S
H1819 C1815 0.930 . S
H1820 C1817 0.929 . S
S1821 N1822 1.613 . S
S1821 N1823 1.610 . S
N1822 S1821 1.613 . S
N1822 C1825 1.350 . S
N1823 S1821 1.610 . S
N1823 C1824 1.351 . S
C1824 C1818 1.428 . S
C1824 N1823 1.351 . S
C1824 C1825 1.434 . S
C1825 C1816 1.429 . S
C1825 N1822 1.350 . S
C1825 C1824 1.434 . S
C1826 C1827 1.369 . S
C1826 C1828 1.419 . S
C1826 H1830 0.930 . S
C1827 C1826 1.369 . S
C1827 C1836 1.429 . S
C1828 C1826 1.419 . S
C1828 C1829 1.363 . S
C1828 H1831 0.929 . S
C1829 C1828 1.363 . S
C1829 C1835 1.428 . S
H1830 C1826 0.930 . S
H1831 C1828 0.929 . S
S1832 N1833 1.613 . S
S1832 N1834 1.610 . S
N1833 S1832 1.613 . S
N1833 C1836 1.350 . S
N1834 S1832 1.610 . S
N1834 C1835 1.351 . S
C1835 C1829 1.428 . S
C1835 N1834 1.351 . S
C1835 C1836 1.434 . S
C1836 C1827 1.429 . S
C1836 N1833 1.350 . S
C1836 C1835 1.434 . S
C1837 C1838 1.369 . S
C1837 C1839 1.419 . S
C1837 H1841 0.930 . S
C1838 C1837 1.369 . S
C1838 C1847 1.429 . S
C1839 C1837 1.419 . S
C1839 C1840 1.363 . S
C1839 H1842 0.929 . S
C1840 C1839 1.363 . S
C1840 C1846 1.428 . S
H1841 C1837 0.930 . S
H1842 C1839 0.929 . S
S1843 N1844 1.613 . S
S1843 N1845 1.610 1_455 S
N1844 S1843 1.613 . S
N1844 C1847 1.350 1_455 S
N1845 S1843 1.610 1_655 S
N1845 C1846 1.351 . S
C1846 C1840 1.428 . S
C1846 N1845 1.351 . S
C1846 C1847 1.434 . S
C1847 C1838 1.429 . S
C1847 N1844 1.350 1_655 S
C1847 C1846 1.434 . S
C1848 C1849 1.369 . S
C1848 C1850 1.419 . S
C1848 H1852 0.930 . S
C1849 C1848 1.369 . S
C1849 C1858 1.429 . S
C1850 C1848 1.419 . S
C1850 C1851 1.363 . S
C1850 H1853 0.929 . S
C1851 C1850 1.363 . S
C1851 C1857 1.428 . S
H1852 C1848 0.930 . S
H1853 C1850 0.929 . S
S1854 N1855 1.613 1_554 S
S1854 N1856 1.610 1_554 S
N1855 S1854 1.613 1_556 S
N1855 C1858 1.350 . S
N1856 S1854 1.610 1_556 S
N1856 C1857 1.351 . S
C1857 C1851 1.428 . S
C1857 N1856 1.351 . S
C1857 C1858 1.434 . S
C1858 C1849 1.429 . S
C1858 N1855 1.350 . S
C1858 C1857 1.434 . S
C1859 C1860 1.369 . S
C1859 C1861 1.419 . S
C1859 H1863 0.930 . S
C1860 C1859 1.369 . S
C1860 C1869 1.429 . S
C1861 C1859 1.419 . S
C1861 C1862 1.363 . S
C1861 H1864 0.929 . S
C1862 C1861 1.363 . S
C1862 C1868 1.428 . S
H1863 C1859 0.930 . S
H1864 C1861 0.929 . S
S1865 N1866 1.613 . S
S1865 N1867 1.610 . S
N1866 S1865 1.613 . S
N1866 C1869 1.350 . S
N1867 S1865 1.610 . S
N1867 C1868 1.351 . S
C1868 C1862 1.428 . S
C1868 N1867 1.351 . S
C1868 C1869 1.434 . S
C1869 C1860 1.429 . S
C1869 N1866 1.350 . S
C1869 C1868 1.434 . S
C1870 C1871 1.369 . S
C1870 C1872 1.419 . S
C1870 H1874 0.930 . S
C1871 C1870 1.369 . S
C1871 C1880 1.429 . S
C1872 C1870 1.419 . S
C1872 C1873 1.363 . S
C1872 H1875 0.929 1_655 S
C1873 C1872 1.363 . S
C1873 C1879 1.428 . S
H1874 C1870 0.930 . S
H1875 C1872 0.929 1_455 S
S1876 N1877 1.613 . S
S1876 N1878 1.610 . S
N1877 S1876 1.613 . S
N1877 C1880 1.350 . S
N1878 S1876 1.610 . S
N1878 C1879 1.351 . S
C1879 C1873 1.428 . S
C1879 N1878 1.351 . S
C1879 C1880 1.434 . S
C1880 C1871 1.429 . S
C1880 N1877 1.350 . S
C1880 C1879 1.434 . S
C1881 C1882 1.369 . S
C1881 C1883 1.419 . S
C1881 H1885 0.930 . S
C1882 C1881 1.369 . S
C1882 C1891 1.429 . S
C1883 C1881 1.419 . S
C1883 C1884 1.363 . S
C1883 H1886 0.929 . S
C1884 C1883 1.363 . S
C1884 C1890 1.428 . S
H1885 C1881 0.930 . S
H1886 C1883 0.929 . S
S1887 N1888 1.613 . S
S1887 N1889 1.610 . S
N1888 S1887 1.613 . S
N1888 C1891 1.350 . S
N1889 S1887 1.610 . S
N1889 C1890 1.351 . S
C1890 C1884 1.428 . S
C1890 N1889 1.351 . S
C1890 C1891 1.434 . S
C1891 C1882 1.429 . S
C1891 N1888 1.350 . S
C1891 C1890 1.434 . S
C1892 C1893 1.369 . S
C1892 C1894 1.419 . S
C1892 H1896 0.930 . S
C1893 C1892 1.369 . S
C1893 C1902 1.429 . S
C1894 C1892 1.419 . S
C1894 C1895 1.363 . S
C1894 H1897 0.929 . S
C1895 C1894 1.363 . S
C1895 C1901 1.428 . S
H1896 C1892 0.930 . S
H1897 C1894 0.929 . S
S1898 N1899 1.613 . S
S1898 N1900 1.610 . S
N1899 S1898 1.613 . S
N1899 C1902 1.350 . S
N1900 S1898 1.610 . S
N1900 C1901 1.351 . S
C1901 C1895 1.428 . S
C1901 N1900 1.351 . S
C1901 C1902 1.434 . S
C1902 C1893 1.429 . S
C1902 N1899 1.350 . S
C1902 C1901 1.434 . S
C1903 C1904 1.369 . S
C1903 C1905 1.419 . S
C1903 H1907 0.930 . S
C1904 C1903 1.369 . S
C1904 C1913 1.429 . S
C1905 C1903 1.419 . S
C1905 C1906 1.363 . S
C1905 H1908 0.929 1_455 S
C1906 C1905 1.363 . S
C1906 C1912 1.428 . S
H1907 C1903 0.930 . S
H1908 C1905 0.929 1_655 S
S1909 N1910 1.613 . S
S1909 N1911 1.610 . S
N1910 S1909 1.613 . S
N1910 C1913 1.350 . S
N1911 S1909 1.610 . S
N1911 C1912 1.351 . S
C1912 C1906 1.428 . S
C1912 N1911 1.351 . S
C1912 C1913 1.434 . S
C1913 C1904 1.429 . S
C1913 N1910 1.350 . S
C1913 C1912 1.434 . S
C1914 C1915 1.369 . S
C1914 C1916 1.419 1_655 S
C1914 H1918 0.930 . S
C1915 C1914 1.369 . S
C1915 C1924 1.429 . S
C1916 C1914 1.419 1_455 S
C1916 C1917 1.363 . S
C1916 H1919 0.929 . S
C1917 C1916 1.363 . S
C1917 C1923 1.428 . S
H1918 C1914 0.930 . S
H1919 C1916 0.929 . S
S1920 N1921 1.612 1_455 S
S1920 N1922 1.615 . S
N1921 S1920 1.612 1_655 S
N1921 C1924 1.350 . S
N1922 S1920 1.615 . S
N1922 C1923 1.351 . S
C1923 C1917 1.428 . S
C1923 N1922 1.351 . S
C1923 C1924 1.434 1_455 S
C1924 C1915 1.429 . S
C1924 N1921 1.350 . S
C1924 C1923 1.434 1_655 S
C1925 C1926 1.369 . S
C1925 C1927 1.419 . S
C1925 H1929 0.930 . S
C1926 C1925 1.369 . S
C1926 C1935 1.429 . S
C1927 C1925 1.419 . S
C1927 C1928 1.363 . S
C1927 H1930 0.929 . S
C1928 C1927 1.363 . S
C1928 C1934 1.428 . S
H1929 C1925 0.930 . S
H1930 C1927 0.929 . S
S1931 N1932 1.613 . S
S1931 N1933 1.610 . S
N1932 S1931 1.613 . S
N1932 C1935 1.350 . S
N1933 S1931 1.610 . S
N1933 C1934 1.351 . S
C1934 C1928 1.428 . S
C1934 N1933 1.351 . S
C1934 C1935 1.434 . S
C1935 C1926 1.429 . S
C1935 N1932 1.350 . S
C1935 C1934 1.434 . S
C1936 C1937 1.369 . S
C1936 C1938 1.419 1_545 S
C1936 H1940 0.930 . S
C1937 C1936 1.369 . S
C1937 C1946 1.429 . S
C1938 C1936 1.419 1_565 S
C1938 C1939 1.363 . S
C1938 H1941 0.929 . S
C1939 C1938 1.363 . S
C1939 C1945 1.428 . S
H1940 C1936 0.930 . S
H1941 C1938 0.929 . S
S1942 N1943 1.613 1_565 S
S1942 N1944 1.610 . S
N1943 S1942 1.613 1_545 S
N1943 C1946 1.350 . S
N1944 S1942 1.610 . S
N1944 C1945 1.351 . S
C1945 C1939 1.428 . S
C1945 N1944 1.351 . S
C1945 C1946 1.434 1_565 S
C1946 C1937 1.429 . S
C1946 N1943 1.350 . S
C1946 C1945 1.434 1_545 S
C1947 C1948 1.369 . S
C1947 C1949 1.419 1_545 S
C1947 H1951 0.930 . S
C1948 C1947 1.369 . S
C1948 C1957 1.429 . S
C1949 C1947 1.419 1_565 S
C1949 C1950 1.363 . S
C1949 H1952 0.929 . S
C1950 C1949 1.363 . S
C1950 C1956 1.428 . S
H1951 C1947 0.930 . S
H1952 C1949 0.929 . S
S1953 N1954 1.613 1_565 S
S1953 N1955 1.610 . S
N1954 S1953 1.613 1_545 S
N1954 C1957 1.350 . S
N1955 S1953 1.610 . S
N1955 C1956 1.351 . S
C1956 C1950 1.428 . S
C1956 N1955 1.351 . S
C1956 C1957 1.434 1_565 S
C1957 C1948 1.429 . S
C1957 N1954 1.350 . S
C1957 C1956 1.434 1_545 S
C1958 C1959 1.369 . S
C1958 C1960 1.419 1_655 S
C1958 H1962 0.930 . S
C1959 C1958 1.369 . S
C1959 C1968 1.429 . S
C1960 C1958 1.419 1_455 S
C1960 C1961 1.363 . S
C1960 H1963 0.929 . S
C1961 C1960 1.363 . S
C1961 C1967 1.428 . S
H1962 C1958 0.930 . S
H1963 C1960 0.929 . S
S1964 N1965 1.613 1_455 S
S1964 N1966 1.610 . S
N1965 S1964 1.613 1_655 S
N1965 C1968 1.350 . S
N1966 S1964 1.610 . S
N1966 C1967 1.351 . S
C1967 C1961 1.428 . S
C1967 N1966 1.351 . S
C1967 C1968 1.434 1_455 S
C1968 C1959 1.429 . S
C1968 N1965 1.350 . S
C1968 C1967 1.434 1_655 S
C1969 C1970 1.369 . S
C1969 C1971 1.419 . S
C1969 H1973 0.930 . S
C1970 C1969 1.369 . S
C1970 C1979 1.429 . S
C1971 C1969 1.419 . S
C1971 C1972 1.363 . S
C1971 H1974 0.929 . S
C1972 C1971 1.363 . S
C1972 C1978 1.428 . S
H1973 C1969 0.930 . S
H1974 C1971 0.929 . S
S1975 N1976 1.613 . S
S1975 N1977 1.610 . S
N1976 S1975 1.613 . S
N1976 C1979 1.350 . S
N1977 S1975 1.610 . S
N1977 C1978 1.351 . S
C1978 C1972 1.428 . S
C1978 N1977 1.351 . S
C1978 C1979 1.434 . S
C1979 C1970 1.429 . S
C1979 N1976 1.350 . S
C1979 C1978 1.434 . S
C793 C21 1.443 1_556 S
C795 C172 1.415 . S
C804 C186 1.423 . S
C806 C43 1.444 1_556 S
C815 C150 1.419 . S
C817 C65 1.442 1_556 S
C826 C250 1.419 . S
C828 C73 1.447 . S
C837 C109 1.446 . S
C839 C216 1.415 . S
C848 C131 1.443 . S
C850 C238 1.420 . S
C859 C30 1.420 . S
C861 C139 1.447 1_554 S
C870 C161 1.446 1_554 S
C872 C52 1.416 . S
C881 C8 1.416 . S
C883 C191 1.446 1_554 S
C892 C118 1.415 . S
C894 C205 1.445 . S
C903 C227 1.444 . S
C905 C84 1.415 . S
C914 C263 1.443 . S
C916 C96 1.416 . S
C925 C285 1.448 . S
C927 C428 1.419 . S
C936 C448 1.420 . S
C938 C307 1.447 . S
C947 C406 1.421 . S
C949 C329 1.446 . S
C958 C351 1.444 . S
C960 C514 1.415 . S
C969 C470 1.414 . S
C971 C359 1.444 . S
C980 C395 1.446 . S
C982 C502 1.422 . S
C991 C411 1.447 . S
C993 C294 1.421 . S
C1002 C316 1.423 . S
C1004 C433 1.446 . S
C1013 C461 1.447 . S
C1015 C272 1.418 . S
C1024 C382 1.414 . S
C1026 C483 1.444 . S
C1035 C338 1.421 . S
C1037 C491 1.446 . S
C1046 C527 1.444 . S
C1048 C370 1.421 . S
C1057 C549 1.447 . S
C1059 C700 1.420 . S
C1068 C571 1.447 . S
C1070 C722 1.418 . S
C1079 C668 1.422 . S
C1081 C593 1.446 . S
C1090 C778 1.422 . S
C1092 C615 1.444 . S
C1101 C637 1.443 . S
C1103 C744 1.420 . S
C1112 C766 1.418 . S
C1114 C645 1.443 . S
C1123 C558 1.419 . S
C1125 C681 1.447 . S
C1134 C689 1.448 . S
C1136 C580 1.420 . S
C1145 C536 1.421 . S
C1147 C711 1.444 . S
C1156 C733 1.444 . S
C1158 C656 1.415 . S
C1167 C755 1.442 . S
C1169 C602 1.416 . S
C1178 C791 1.443 . S
C1180 C624 1.421 . S
C1189 C15 1.859 . S
C1191 C403 1.858 . S
C1200 C37 1.855 . S
C1202 C425 1.861 . S
C1211 C455 1.861 . S
C1213 C59 1.858 . S
C1222 C747 1.856 . S
C1224 C87 1.860 . S
C1233 C769 1.854 . S
C1235 C103 1.862 . S
C1244 C785 1.854 . S
C1246 C125 1.862 . S
C1255 C153 1.854 . S
C1257 C543 1.862 . S
C1266 C565 1.856 . S
C1268 C175 1.860 . S
C1277 C183 1.856 . S
C1279 C587 1.861 . S
C1288 C219 1.856 . S
C1290 C345 1.860 . S
C1299 C241 1.858 . S
C1301 C373 1.859 . S
C1310 C257 1.854 . S
C1312 C389 1.862 . S
C1321 C279 1.854 . S
C1323 C675 1.862 . S
C1332 C703 1.863 . S
C1334 C301 1.855 . S
C1343 C323 1.854 . S
C1345 C725 1.862 . S
C1354 C609 1.854 . S
C1356 C477 1.862 . S
C1365 C505 1.860 . S
C1367 C631 1.858 . S
C1376 C659 1.863 . S
C1378 C521 1.855 . S
C1387 C7 1.695 1_556 S
C1389 C367 1.701 . S
C1398 C29 1.701 1_556 S
C1400 C381 1.699 . S
C1409 C337 1.696 . S
C1411 C51 1.702 1_556 S
C1420 C81 1.693 . S
C1422 C579 1.698 . S
C1431 C535 1.698 . S
C1433 C95 1.694 . S
C1442 C117 1.695 . S
C1444 C557 1.696 . S
C1453 C763 1.702 . S
C1455 C147 1.698 1_554 S
C1464 C169 1.700 1_554 S
C1466 C777 1.694 . S
C1475 C741 1.701 . S
C1477 C197 1.694 1_554 S
C1486 C213 1.696 . S
C1488 C447 1.702 . S
C1497 C235 1.703 . S
C1499 C417 1.696 . S
C1508 C249 1.697 . S
C1510 C439 1.695 . S
C1519 C623 1.702 . S
C1521 C271 1.698 . S
C1530 C293 1.694 . S
C1532 C653 1.701 . S
C1541 C315 1.703 . S
C1543 C601 1.696 . S
C1552 C719 1.702 . S
C1554 C469 1.694 . S
C1563 C667 1.695 . S
C1565 C499 1.697 . S
C1574 C697 1.702 . S
C1576 C513 1.695 . S
C1585 C74 1.095 . S
C1587 C10 1.095 . S
C1596 C32 1.095 . S
C1598 C98 1.095 . S
C1607 C54 1.095 . S
C1609 C120 1.095 . S
C1618 C206 1.094 . S
C1620 C140 1.094 . S
C1629 C162 1.095 . S
C1631 C228 1.094 . S
C1640 C252 1.095 . S
C1642 C194 1.095 . S
C1651 C340 1.094 . S
C1653 C274 1.094 . S
C1662 C296 1.095 . S
C1664 C360 1.095 . S
C1673 C318 1.094 . S
C1675 C384 1.094 . S
C1684 C414 1.095 . S
C1686 C472 1.095 . S
C1695 C436 1.094 . S
C1697 C492 1.094 . S
C1706 C450 1.094 . S
C1708 C516 1.094 . S
C1717 C538 1.095 . S
C1719 C604 1.095 . S
C1728 C626 1.095 . S
C1730 C560 1.095 . S
C1739 C646 1.095 . S
C1741 C582 1.094 . S
C1750 C670 1.095 . S
C1752 C734 1.095 . S
C1761 C756 1.094 . S
C1763 C690 1.094 . S
C1772 C712 1.095 . S
C1774 C780 1.095 . S
C1783 C18 1.582 . S
C1785 C648 1.575 . S
C1794 C612 1.571 . S
C1796 C40 1.577 . S
C1805 C62 1.571 . S
C1807 C634 1.578 . S
C1816 C304 1.576 . S
C1818 C76 1.573 . S
C1827 C106 1.576 . S
C1829 C326 1.581 . S
C1838 C128 1.572 . S
C1840 C282 1.580 . S
C1849 C524 1.573 . S
C1851 C142 1.581 . S
C1860 C164 1.571 . S
C1862 C480 1.580 . S
C1871 C494 1.578 . S
C1873 C184 1.579 . S
C1882 C208 1.579 . S
C1884 C692 1.579 . S
C1893 C714 1.572 . S
C1895 C230 1.577 . S
C1904 C678 1.574 . S
C1906 C260 1.581 . S
C1915 C348 1.572 . S
C1917 C568 1.576 . S
C1926 C362 1.578 . S
C1928 C590 1.580 . S
C1937 C392 1.582 . S
C1939 C546 1.574 . S
C1948 C404 1.582 . S
C1950 C788 1.576 . S
C1959 C426 1.582 . S
C1961 C736 1.576 . S
C1970 C758 1.582 . S
C1972 C458 1.573 . S
