# Generated by pormake.
# Topology fcu, (12)-cn, num edge types: 1
# Building blocks:
#     Node 0, Type 0, BuildingBlock: ZALLEG_clean_sbu_0, # of connection points: 12
#     Node 1, Type 0, BuildingBlock: ZALLEG_clean_sbu_0, # of connection points: 12
#     Node 2, Type 0, BuildingBlock: ZALLEG_clean_sbu_0, # of connection points: 12
#     Node 3, Type 0, BuildingBlock: ZALLEG_clean_sbu_0, # of connection points: 12
#     Edge 4, Type (0, 0), None
#     Edge 5, Type (0, 0), None
#     Edge 6, Type (0, 0), None
#     Edge 7, Type (0, 0), None
#     Edge 8, Type (0, 0), None
#     Edge 9, Type (0, 0), None
#     Edge 10, Type (0, 0), None
#     Edge 11, Type (0, 0), None
#     Edge 12, Type (0, 0), None
#     Edge 13, Type (0, 0), None
#     Edge 14, Type (0, 0), None
#     Edge 15, Type (0, 0), None
#     Edge 16, Type (0, 0), None
#     Edge 17, Type (0, 0), None
#     Edge 18, Type (0, 0), None
#     Edge 19, Type (0, 0), None
#     Edge 20, Type (0, 0), None
#     Edge 21, Type (0, 0), None
#     Edge 22, Type (0, 0), None
#     Edge 23, Type (0, 0), None
#     Edge 24, Type (0, 0), None
#     Edge 25, Type (0, 0), None
#     Edge 26, Type (0, 0), None
#     Edge 27, Type (0, 0), None
# Relax obj value: 0.000
# Max RMSD: 0.000
# Mean RMSD: 0.000
data_MOF--net-fcu--node1-ZALLEG_clean_sbu_0--edge1-none
_symmetry_space_group_name_H-M    P1
_symmetry_Int_Tables_number       1
_symmetry_cell_setting            triclinic
loop_
_symmetry_equiv_pos_as_xyz
'x, y, z'
_cell_length_a     14.67995
_cell_length_b     14.679907
_cell_length_c     14.679747
_cell_angle_alpha  89.999979
_cell_angle_beta   90.000015
_cell_angle_gamma 90.000012
loop_
_atom_site_label
_atom_site_type_symbol
_atom_site_fract_x
_atom_site_fract_y
_atom_site_fract_z
_atom_type_partial_charge
H0 H 0.90155 0.90155 0.90155 0.0
O1 O 0.94039 0.94039 0.94039 0.0
Tb2 Tb 0.85995 0.02414 0.02414 0.0
Tb3 Tb 0.02413 0.85995 0.02414 0.0
Tb4 Tb 0.02413 0.02414 0.85996 0.0
O5 O 0.94039 0.94039 0.10789 0.0
O6 O 0.94039 0.10788 0.94039 0.0
O7 O 0.94039 0.10788 0.10789 0.0
O8 O 0.10788 0.94039 0.10789 0.0
O9 O 0.10788 0.10788 0.94039 0.0
O10 O 0.10788 0.94039 0.94039 0.0
H11 H 0.90155 0.90155 0.14673 0.0
H12 H 0.90155 0.14672 0.90155 0.0
Tb13 Tb 0.02413 0.02414 0.18832 0.0
Tb14 Tb 0.02413 0.18832 0.02414 0.0
H15 H 0.90155 0.14672 0.14673 0.0
H16 H 0.14672 0.90155 0.14673 0.0
Tb17 Tb 0.18831 0.02414 0.02414 0.0
H18 H 0.14672 0.14672 0.90156 0.0
H19 H 0.14672 0.90155 0.90155 0.0
O20 O 0.10788 0.10788 0.10789 0.0
H21 H 0.14672 0.14672 0.14673 0.0
O22 O 0.78154 0.89644 0.02415 0.0
O23 O 0.26672 0.15183 0.02415 0.0
O24 O 0.26672 0.89644 0.02415 0.0
O25 O 0.78154 0.15183 0.02415 0.0
O26 O 0.02414 0.78155 0.89645 0.0
O27 O 0.02414 0.26672 0.15183 0.0
O28 O 0.02414 0.26672 0.89645 0.0
O29 O 0.02414 0.78154 0.15183 0.0
O30 O 0.89644 0.02414 0.78155 0.0
O31 O 0.15183 0.02414 0.26673 0.0
O32 O 0.89644 0.02414 0.26673 0.0
O33 O 0.15183 0.02414 0.78155 0.0
O34 O 0.89644 0.78155 0.02415 0.0
O35 O 0.15183 0.26672 0.02415 0.0
O36 O 0.89644 0.26672 0.02415 0.0
O37 O 0.15183 0.78155 0.02415 0.0
O38 O 0.78154 0.02414 0.15183 0.0
O39 O 0.26672 0.02414 0.89645 0.0
O40 O 0.26672 0.02414 0.15183 0.0
O41 O 0.78154 0.02414 0.89645 0.0
O42 O 0.02414 0.89644 0.26673 0.0
O43 O 0.02414 0.15183 0.78155 0.0
O44 O 0.02414 0.89644 0.78155 0.0
O45 O 0.02414 0.15183 0.26673 0.0
C46 C 0.80947 0.80948 0.02415 0.0
C47 C 0.23879 0.23879 0.02415 0.0
C48 C 0.23879 0.80948 0.02415 0.0
C49 C 0.80947 0.23879 0.02415 0.0
C50 C 0.02414 0.80948 0.80948 0.0
C51 C 0.02414 0.23879 0.2388 0.0
C52 C 0.02414 0.23879 0.80948 0.0
C53 C 0.02414 0.80948 0.2388 0.0
C54 C 0.80947 0.02414 0.80948 0.0
C55 C 0.23879 0.02414 0.2388 0.0
C56 C 0.80947 0.02414 0.2388 0.0
C57 C 0.23879 0.02414 0.80948 0.0
H58 H 0.90155 0.40155 0.40155 0.0
O59 O 0.94039 0.44039 0.44039 0.0
Tb60 Tb 0.85995 0.52413 0.52414 0.0
Tb61 Tb 0.02413 0.35995 0.52414 0.0
Tb62 Tb 0.02413 0.52413 0.35995 0.0
O63 O 0.94039 0.44039 0.60788 0.0
O64 O 0.94039 0.60788 0.44039 0.0
O65 O 0.94039 0.60788 0.60789 0.0
O66 O 0.10788 0.44039 0.60788 0.0
O67 O 0.10788 0.60788 0.44039 0.0
O68 O 0.10788 0.44039 0.44039 0.0
H69 H 0.90155 0.40154 0.64672 0.0
H70 H 0.90155 0.64672 0.40155 0.0
Tb71 Tb 0.02413 0.52413 0.68832 0.0
Tb72 Tb 0.02413 0.68831 0.52414 0.0
H73 H 0.90155 0.64672 0.64673 0.0
H74 H 0.14672 0.40155 0.64672 0.0
Tb75 Tb 0.18831 0.52413 0.52414 0.0
H76 H 0.14672 0.64672 0.40155 0.0
H77 H 0.14672 0.40155 0.40155 0.0
O78 O 0.10788 0.60788 0.60788 0.0
H79 H 0.14672 0.64672 0.64672 0.0
O80 O 0.78154 0.39644 0.52413 0.0
O81 O 0.26672 0.65183 0.52413 0.0
O82 O 0.26672 0.39644 0.52413 0.0
O83 O 0.78154 0.65183 0.52413 0.0
O84 O 0.02414 0.28154 0.39644 0.0
O85 O 0.02414 0.76672 0.65183 0.0
O86 O 0.02414 0.76672 0.39645 0.0
O87 O 0.02414 0.28154 0.65183 0.0
O88 O 0.89644 0.52413 0.28155 0.0
O89 O 0.15183 0.52413 0.76673 0.0
O90 O 0.89644 0.52413 0.76673 0.0
O91 O 0.15183 0.52413 0.28155 0.0
O92 O 0.89644 0.28154 0.52413 0.0
O93 O 0.15183 0.76672 0.52413 0.0
O94 O 0.89644 0.76672 0.52413 0.0
O95 O 0.15183 0.28154 0.52413 0.0
O96 O 0.78154 0.52413 0.65183 0.0
O97 O 0.26672 0.52413 0.39644 0.0
O98 O 0.26672 0.52413 0.65183 0.0
O99 O 0.78154 0.52413 0.39645 0.0
O100 O 0.02414 0.39644 0.76673 0.0
O101 O 0.02414 0.65183 0.28155 0.0
O102 O 0.02414 0.39644 0.28155 0.0
O103 O 0.02414 0.65183 0.76673 0.0
C104 C 0.80947 0.30948 0.52413 0.0
C105 C 0.23879 0.73879 0.52413 0.0
C106 C 0.23879 0.30948 0.52413 0.0
C107 C 0.80947 0.73879 0.52413 0.0
C108 C 0.02414 0.30948 0.30948 0.0
C109 C 0.02414 0.73879 0.7388 0.0
C110 C 0.02414 0.73879 0.30948 0.0
C111 C 0.02414 0.30948 0.7388 0.0
C112 C 0.80947 0.52413 0.30948 0.0
C113 C 0.23879 0.52413 0.7388 0.0
C114 C 0.80947 0.52413 0.7388 0.0
C115 C 0.23879 0.52413 0.30948 0.0
H116 H 0.40154 0.90155 0.40155 0.0
O117 O 0.44039 0.94039 0.44039 0.0
Tb118 Tb 0.35995 0.02414 0.52414 0.0
Tb119 Tb 0.52413 0.85995 0.52414 0.0
Tb120 Tb 0.52413 0.02414 0.35995 0.0
O121 O 0.44038 0.94039 0.60788 0.0
O122 O 0.44039 0.10788 0.44039 0.0
O123 O 0.44039 0.10788 0.60788 0.0
O124 O 0.60788 0.94039 0.60789 0.0
O125 O 0.60788 0.10788 0.44039 0.0
O126 O 0.60788 0.94039 0.44039 0.0
H127 H 0.40154 0.90155 0.64672 0.0
H128 H 0.40155 0.14672 0.40155 0.0
Tb129 Tb 0.52413 0.02414 0.68832 0.0
Tb130 Tb 0.52413 0.18832 0.52414 0.0
H131 H 0.40154 0.14672 0.64672 0.0
H132 H 0.64672 0.90155 0.64673 0.0
Tb133 Tb 0.68831 0.02414 0.52414 0.0
H134 H 0.64671 0.14672 0.40155 0.0
H135 H 0.64672 0.90155 0.40155 0.0
O136 O 0.60788 0.10788 0.60788 0.0
H137 H 0.64672 0.14672 0.64672 0.0
O138 O 0.28154 0.89644 0.52413 0.0
O139 O 0.76672 0.15183 0.52413 0.0
O140 O 0.76672 0.89644 0.52413 0.0
O141 O 0.28154 0.15183 0.52413 0.0
O142 O 0.52413 0.78154 0.39645 0.0
O143 O 0.52413 0.26672 0.65183 0.0
O144 O 0.52413 0.26672 0.39644 0.0
O145 O 0.52413 0.78155 0.65183 0.0
O146 O 0.39644 0.02414 0.28155 0.0
O147 O 0.65183 0.02414 0.76673 0.0
O148 O 0.39644 0.02414 0.76673 0.0
O149 O 0.65183 0.02414 0.28155 0.0
O150 O 0.39644 0.78154 0.52413 0.0
O151 O 0.65183 0.26672 0.52413 0.0
O152 O 0.39644 0.26672 0.52413 0.0
O153 O 0.65183 0.78155 0.52413 0.0
O154 O 0.28154 0.02414 0.65183 0.0
O155 O 0.76672 0.02414 0.39645 0.0
O156 O 0.76672 0.02414 0.65183 0.0
O157 O 0.28154 0.02414 0.39644 0.0
O158 O 0.52413 0.89644 0.76673 0.0
O159 O 0.52413 0.15183 0.28155 0.0
O160 O 0.52413 0.89644 0.28155 0.0
O161 O 0.52413 0.15183 0.76673 0.0
C162 C 0.30947 0.80948 0.52413 0.0
C163 C 0.73879 0.23879 0.52413 0.0
C164 C 0.73879 0.80948 0.52413 0.0
C165 C 0.30947 0.23879 0.52413 0.0
C166 C 0.52412 0.80948 0.30948 0.0
C167 C 0.52412 0.23879 0.7388 0.0
C168 C 0.52412 0.23879 0.30948 0.0
C169 C 0.52412 0.80948 0.7388 0.0
C170 C 0.30947 0.02414 0.30948 0.0
C171 C 0.73879 0.02414 0.7388 0.0
C172 C 0.30947 0.02414 0.7388 0.0
C173 C 0.73879 0.02414 0.30948 0.0
H174 H 0.40154 0.40155 0.90156 0.0
O175 O 0.44039 0.44039 0.94039 0.0
Tb176 Tb 0.35995 0.52413 0.02414 0.0
Tb177 Tb 0.52413 0.35995 0.02414 0.0
Tb178 Tb 0.52413 0.52413 0.85996 0.0
O179 O 0.44039 0.44039 0.10789 0.0
O180 O 0.44038 0.60788 0.94039 0.0
O181 O 0.44039 0.60788 0.10789 0.0
O182 O 0.60788 0.44039 0.10789 0.0
O183 O 0.60788 0.60788 0.94039 0.0
O184 O 0.60788 0.44039 0.94039 0.0
H185 H 0.40155 0.40155 0.14673 0.0
H186 H 0.40154 0.64672 0.90155 0.0
Tb187 Tb 0.52413 0.52413 0.18832 0.0
Tb188 Tb 0.52413 0.68831 0.02414 0.0
H189 H 0.40154 0.64672 0.14673 0.0
H190 H 0.64671 0.40155 0.14673 0.0
Tb191 Tb 0.68831 0.52413 0.02414 0.0
H192 H 0.64672 0.64672 0.90155 0.0
H193 H 0.64672 0.40154 0.90155 0.0
O194 O 0.60788 0.60788 0.10789 0.0
H195 H 0.64672 0.64672 0.14673 0.0
O196 O 0.28154 0.39644 0.02415 0.0
O197 O 0.76672 0.65183 0.02415 0.0
O198 O 0.76672 0.39644 0.02415 0.0
O199 O 0.28154 0.65183 0.02415 0.0
O200 O 0.52413 0.28154 0.89645 0.0
O201 O 0.52413 0.76672 0.15183 0.0
O202 O 0.52413 0.76672 0.89645 0.0
O203 O 0.52413 0.28154 0.15183 0.0
O204 O 0.39644 0.52413 0.78155 0.0
O205 O 0.65183 0.52413 0.26673 0.0
O206 O 0.39644 0.52413 0.26673 0.0
O207 O 0.65183 0.52413 0.78155 0.0
O208 O 0.39644 0.28154 0.02415 0.0
O209 O 0.65183 0.76672 0.02415 0.0
O210 O 0.39644 0.76672 0.02415 0.0
O211 O 0.65183 0.28154 0.02415 0.0
O212 O 0.28154 0.52413 0.15183 0.0
O213 O 0.76672 0.52413 0.89645 0.0
O214 O 0.76672 0.52413 0.15183 0.0
O215 O 0.28154 0.52413 0.89645 0.0
O216 O 0.52413 0.39644 0.26673 0.0
O217 O 0.52413 0.65183 0.78155 0.0
O218 O 0.52413 0.39644 0.78155 0.0
O219 O 0.52413 0.65183 0.26673 0.0
C220 C 0.30947 0.30948 0.02415 0.0
C221 C 0.73879 0.73879 0.02415 0.0
C222 C 0.73879 0.30948 0.02415 0.0
C223 C 0.30947 0.73879 0.02415 0.0
C224 C 0.52412 0.30948 0.80948 0.0
C225 C 0.52412 0.73879 0.2388 0.0
C226 C 0.52412 0.73879 0.80948 0.0
C227 C 0.52412 0.30948 0.2388 0.0
C228 C 0.30947 0.52413 0.80948 0.0
C229 C 0.73879 0.52413 0.2388 0.0
C230 C 0.30947 0.52413 0.2388 0.0
C231 C 0.73879 0.52413 0.80948 0.0
loop_
_geom_bond_atom_site_label_1
_geom_bond_atom_site_label_2
_geom_bond_distance
_geom_bond_site_symmetry_2
_ccdc_geom_bond_type
H0 O1 0.850 . S
O1 H0 0.850 . S
O1 Tb2 2.341 1_566 S
O1 Tb3 2.341 1_656 S
O1 Tb4 2.341 1_665 S
Tb2 O1 2.341 1_544 S
Tb2 O5 2.341 1_545 S
Tb2 O6 2.341 1_554 S
Tb2 O7 2.341 . S
Tb2 O22 2.344 1_545 S
Tb2 O25 2.344 . S
Tb2 O38 2.344 . S
Tb2 O41 2.344 1_554 S
Tb3 O1 2.341 1_454 S
Tb3 O5 2.341 1_455 S
Tb3 O8 2.341 . S
Tb3 O10 2.341 1_554 S
Tb3 O26 2.344 1_554 S
Tb3 O29 2.344 . S
Tb3 O34 2.344 1_455 S
Tb3 O37 2.344 . S
Tb4 O1 2.341 1_445 S
Tb4 O6 2.341 1_455 S
Tb4 O9 2.341 . S
Tb4 O10 2.341 1_545 S
Tb4 O30 2.344 1_455 S
Tb4 O33 2.344 . S
Tb4 O43 2.344 . S
Tb4 O44 2.344 1_545 S
O5 Tb2 2.341 1_565 S
O5 Tb3 2.341 1_655 S
O5 H11 0.850 . S
O5 Tb13 2.341 1_665 S
O6 Tb2 2.341 1_556 S
O6 Tb4 2.341 1_655 S
O6 H12 0.850 . S
O6 Tb14 2.341 1_656 S
O7 Tb2 2.341 . S
O7 Tb13 2.341 1_655 S
O7 Tb14 2.341 1_655 S
O7 H15 0.850 . S
O8 Tb3 2.341 . S
O8 Tb13 2.341 1_565 S
O8 H16 0.850 . S
O8 Tb17 2.341 1_565 S
O9 Tb4 2.341 . S
O9 Tb14 2.341 1_556 S
O9 Tb17 2.341 1_556 S
O9 H18 0.850 . S
O10 Tb3 2.341 1_556 S
O10 Tb4 2.341 1_565 S
O10 Tb17 2.341 1_566 S
O10 H19 0.850 . S
H11 O5 0.850 . S
H12 O6 0.850 . S
Tb13 O5 2.341 1_445 S
Tb13 O7 2.341 1_455 S
Tb13 O8 2.341 1_545 S
Tb13 O20 2.341 . S
Tb13 O31 2.344 . S
Tb13 O32 2.344 1_455 S
Tb13 O42 2.344 1_545 S
Tb13 O45 2.344 . S
Tb14 O6 2.341 1_454 S
Tb14 O7 2.341 1_455 S
Tb14 O9 2.341 1_554 S
Tb14 O20 2.341 . S
Tb14 O27 2.344 . S
Tb14 O28 2.344 1_554 S
Tb14 O35 2.344 . S
Tb14 O36 2.344 1_455 S
H15 O7 0.850 . S
H16 O8 0.850 . S
Tb17 O8 2.341 1_545 S
Tb17 O9 2.341 1_554 S
Tb17 O10 2.341 1_544 S
Tb17 O20 2.341 . S
Tb17 O23 2.344 . S
Tb17 O24 2.344 1_545 S
Tb17 O39 2.344 1_554 S
Tb17 O40 2.344 . S
H18 O9 0.850 . S
H19 O10 0.850 . S
O20 Tb13 2.341 . S
O20 Tb14 2.341 . S
O20 Tb17 2.341 . S
O20 H21 0.850 . S
H21 O20 0.850 . S
O22 Tb2 2.344 1_565 S
O22 C46 1.272 . S
O23 Tb17 2.344 . S
O23 C47 1.272 . S
O24 Tb17 2.344 1_565 S
O24 C48 1.272 . S
O25 Tb2 2.344 . S
O25 C49 1.272 . S
O26 Tb3 2.344 1_556 S
O26 C50 1.272 . S
O27 Tb14 2.344 . S
O27 C51 1.272 . S
O28 Tb14 2.344 1_556 S
O28 C52 1.272 . S
O29 Tb3 2.344 . S
O29 C53 1.272 . S
O30 Tb4 2.344 1_655 S
O30 C54 1.272 . S
O31 Tb13 2.344 . S
O31 C55 1.272 . S
O32 Tb13 2.344 1_655 S
O32 C56 1.272 . S
O33 Tb4 2.344 . S
O33 C57 1.272 . S
O34 Tb3 2.344 1_655 S
O34 C46 1.272 . S
O35 Tb14 2.344 . S
O35 C47 1.272 . S
O36 Tb14 2.344 1_655 S
O36 C49 1.272 . S
O37 Tb3 2.344 . S
O37 C48 1.272 . S
O38 Tb2 2.344 . S
O38 C56 1.272 . S
O39 Tb17 2.344 1_556 S
O39 C57 1.272 . S
O40 Tb17 2.344 . S
O40 C55 1.272 . S
O41 Tb2 2.344 1_556 S
O41 C54 1.272 . S
O42 Tb13 2.344 1_565 S
O42 C53 1.272 . S
O43 Tb4 2.344 . S
O43 C52 1.272 . S
O44 Tb4 2.344 1_565 S
O44 C50 1.272 . S
O45 Tb13 2.344 . S
O45 C51 1.272 . S
C46 O22 1.272 . S
C46 O34 1.272 . S
C47 O23 1.272 . S
C47 O35 1.272 . S
C48 O24 1.272 . S
C48 O37 1.272 . S
C49 O25 1.272 . S
C49 O36 1.272 . S
C50 O26 1.272 . S
C50 O44 1.272 . S
C51 O27 1.272 . S
C51 O45 1.272 . S
C52 O28 1.272 . S
C52 O43 1.272 . S
C53 O29 1.272 . S
C53 O42 1.272 . S
C54 O30 1.272 . S
C54 O41 1.272 . S
C55 O31 1.272 . S
C55 O40 1.272 . S
C56 O32 1.272 . S
C56 O38 1.272 . S
C57 O33 1.272 . S
C57 O39 1.272 . S
H58 O59 0.850 . S
O59 H58 0.850 . S
O59 Tb60 2.341 . S
O59 Tb61 2.341 1_655 S
O59 Tb62 2.341 1_655 S
Tb60 O59 2.341 . S
Tb60 O63 2.341 . S
Tb60 O64 2.341 . S
Tb60 O65 2.341 . S
Tb60 O80 2.344 . S
Tb60 O83 2.344 . S
Tb60 O96 2.344 . S
Tb60 O99 2.344 . S
Tb61 O59 2.341 1_455 S
Tb61 O63 2.341 1_455 S
Tb61 O66 2.341 . S
Tb61 O68 2.341 . S
Tb61 O84 2.344 . S
Tb61 O87 2.344 . S
Tb61 O92 2.344 1_455 S
Tb61 O95 2.344 . S
Tb62 O59 2.341 1_455 S
Tb62 O64 2.341 1_455 S
Tb62 O67 2.341 . S
Tb62 O68 2.341 . S
Tb62 O88 2.344 1_455 S
Tb62 O91 2.344 . S
Tb62 O101 2.344 . S
Tb62 O102 2.344 . S
O63 Tb60 2.341 . S
O63 Tb61 2.341 1_655 S
O63 H69 0.850 . S
O63 Tb71 2.341 1_655 S
O64 Tb60 2.341 . S
O64 Tb62 2.341 1_655 S
O64 H70 0.850 . S
O64 Tb72 2.341 1_655 S
O65 Tb60 2.341 . S
O65 Tb71 2.341 1_655 S
O65 Tb72 2.341 1_655 S
O65 H73 0.850 . S
O66 Tb61 2.341 . S
O66 Tb71 2.341 . S
O66 H74 0.850 . S
O66 Tb75 2.341 . S
O67 Tb62 2.341 . S
O67 Tb72 2.341 . S
O67 Tb75 2.341 . S
O67 H76 0.850 . S
O68 Tb61 2.341 . S
O68 Tb62 2.341 . S
O68 Tb75 2.341 . S
O68 H77 0.850 . S
H69 O63 0.850 . S
H70 O64 0.850 . S
Tb71 O63 2.341 1_455 S
Tb71 O65 2.341 1_455 S
Tb71 O66 2.341 . S
Tb71 O78 2.341 . S
Tb71 O89 2.344 . S
Tb71 O90 2.344 1_455 S
Tb71 O100 2.344 . S
Tb71 O103 2.344 . S
Tb72 O64 2.341 1_455 S
Tb72 O65 2.341 1_455 S
Tb72 O67 2.341 . S
Tb72 O78 2.341 . S
Tb72 O85 2.344 . S
Tb72 O86 2.344 . S
Tb72 O93 2.344 . S
Tb72 O94 2.344 1_455 S
H73 O65 0.850 . S
H74 O66 0.850 . S
Tb75 O66 2.341 . S
Tb75 O67 2.341 . S
Tb75 O68 2.341 . S
Tb75 O78 2.341 . S
Tb75 O81 2.344 . S
Tb75 O82 2.344 . S
Tb75 O97 2.344 . S
Tb75 O98 2.344 . S
H76 O67 0.850 . S
H77 O68 0.850 . S
O78 Tb71 2.341 . S
O78 Tb72 2.341 . S
O78 Tb75 2.341 . S
O78 H79 0.850 . S
H79 O78 0.850 . S
O80 Tb60 2.344 . S
O80 C104 1.272 . S
O81 Tb75 2.344 . S
O81 C105 1.272 . S
O82 Tb75 2.344 . S
O82 C106 1.272 . S
O83 Tb60 2.344 . S
O83 C107 1.272 . S
O84 Tb61 2.344 . S
O84 C108 1.272 . S
O85 Tb72 2.344 . S
O85 C109 1.272 . S
O86 Tb72 2.344 . S
O86 C110 1.272 . S
O87 Tb61 2.344 . S
O87 C111 1.272 . S
O88 Tb62 2.344 1_655 S
O88 C112 1.272 . S
O89 Tb71 2.344 . S
O89 C113 1.272 . S
O90 Tb71 2.344 1_655 S
O90 C114 1.272 . S
O91 Tb62 2.344 . S
O91 C115 1.272 . S
O92 Tb61 2.344 1_655 S
O92 C104 1.272 . S
O93 Tb72 2.344 . S
O93 C105 1.272 . S
O94 Tb72 2.344 1_655 S
O94 C107 1.272 . S
O95 Tb61 2.344 . S
O95 C106 1.272 . S
O96 Tb60 2.344 . S
O96 C114 1.272 . S
O97 Tb75 2.344 . S
O97 C115 1.272 . S
O98 Tb75 2.344 . S
O98 C113 1.272 . S
O99 Tb60 2.344 . S
O99 C112 1.272 . S
O100 Tb71 2.344 . S
O100 C111 1.272 . S
O101 Tb62 2.344 . S
O101 C110 1.272 . S
O102 Tb62 2.344 . S
O102 C108 1.272 . S
O103 Tb71 2.344 . S
O103 C109 1.272 . S
C104 O80 1.272 . S
C104 O92 1.272 . S
C105 O81 1.272 . S
C105 O93 1.272 . S
C106 O82 1.272 . S
C106 O95 1.272 . S
C107 O83 1.272 . S
C107 O94 1.272 . S
C108 O84 1.272 . S
C108 O102 1.272 . S
C109 O85 1.272 . S
C109 O103 1.272 . S
C110 O86 1.272 . S
C110 O101 1.272 . S
C111 O87 1.272 . S
C111 O100 1.272 . S
C112 O88 1.272 . S
C112 O99 1.272 . S
C113 O89 1.272 . S
C113 O98 1.272 . S
C114 O90 1.272 . S
C114 O96 1.272 . S
C115 O91 1.272 . S
C115 O97 1.272 . S
H116 O117 0.850 . S
O117 H116 0.850 . S
O117 Tb118 2.341 1_565 S
O117 Tb119 2.341 . S
O117 Tb120 2.341 1_565 S
Tb118 O117 2.341 1_545 S
Tb118 O121 2.341 1_545 S
Tb118 O122 2.341 . S
Tb118 O123 2.341 . S
Tb118 O138 2.344 1_545 S
Tb118 O141 2.344 . S
Tb118 O154 2.344 . S
Tb118 O157 2.344 . S
Tb119 O117 2.341 . S
Tb119 O121 2.341 . S
Tb119 O124 2.341 . S
Tb119 O126 2.341 . S
Tb119 O142 2.344 . S
Tb119 O145 2.344 . S
Tb119 O150 2.344 . S
Tb119 O153 2.344 . S
Tb120 O117 2.341 1_545 S
Tb120 O122 2.341 . S
Tb120 O125 2.341 . S
Tb120 O126 2.341 1_545 S
Tb120 O146 2.344 . S
Tb120 O149 2.344 . S
Tb120 O159 2.344 . S
Tb120 O160 2.344 1_545 S
O121 Tb118 2.341 1_565 S
O121 Tb119 2.341 . S
O121 H127 0.850 . S
O121 Tb129 2.341 1_565 S
O122 Tb118 2.341 . S
O122 Tb120 2.341 . S
O122 H128 0.850 . S
O122 Tb130 2.341 . S
O123 Tb118 2.341 . S
O123 Tb129 2.341 . S
O123 Tb130 2.341 . S
O123 H131 0.850 . S
O124 Tb119 2.341 . S
O124 Tb129 2.341 1_565 S
O124 H132 0.850 . S
O124 Tb133 2.341 1_565 S
O125 Tb120 2.341 . S
O125 Tb130 2.341 . S
O125 Tb133 2.341 . S
O125 H134 0.850 . S
O126 Tb119 2.341 . S
O126 Tb120 2.341 1_565 S
O126 Tb133 2.341 1_565 S
O126 H135 0.850 . S
H127 O121 0.850 . S
H128 O122 0.850 . S
Tb129 O121 2.341 1_545 S
Tb129 O123 2.341 . S
Tb129 O124 2.341 1_545 S
Tb129 O136 2.341 . S
Tb129 O147 2.344 . S
Tb129 O148 2.344 . S
Tb129 O158 2.344 1_545 S
Tb129 O161 2.344 . S
Tb130 O122 2.341 . S
Tb130 O123 2.341 . S
Tb130 O125 2.341 . S
Tb130 O136 2.341 . S
Tb130 O143 2.344 . S
Tb130 O144 2.344 . S
Tb130 O151 2.344 . S
Tb130 O152 2.344 . S
H131 O123 0.850 . S
H132 O124 0.850 . S
Tb133 O124 2.341 1_545 S
Tb133 O125 2.341 . S
Tb133 O126 2.341 1_545 S
Tb133 O136 2.341 . S
Tb133 O139 2.344 . S
Tb133 O140 2.344 1_545 S
Tb133 O155 2.344 . S
Tb133 O156 2.344 . S
H134 O125 0.850 . S
H135 O126 0.850 . S
O136 Tb129 2.341 . S
O136 Tb130 2.341 . S
O136 Tb133 2.341 . S
O136 H137 0.850 . S
H137 O136 0.850 . S
O138 Tb118 2.344 1_565 S
O138 C162 1.272 . S
O139 Tb133 2.344 . S
O139 C163 1.272 . S
O140 Tb133 2.344 1_565 S
O140 C164 1.272 . S
O141 Tb118 2.344 . S
O141 C165 1.272 . S
O142 Tb119 2.344 . S
O142 C166 1.272 . S
O143 Tb130 2.344 . S
O143 C167 1.272 . S
O144 Tb130 2.344 . S
O144 C168 1.272 . S
O145 Tb119 2.344 . S
O145 C169 1.272 . S
O146 Tb120 2.344 . S
O146 C170 1.272 . S
O147 Tb129 2.344 . S
O147 C171 1.272 . S
O148 Tb129 2.344 . S
O148 C172 1.272 . S
O149 Tb120 2.344 . S
O149 C173 1.272 . S
O150 Tb119 2.344 . S
O150 C162 1.272 . S
O151 Tb130 2.344 . S
O151 C163 1.272 . S
O152 Tb130 2.344 . S
O152 C165 1.272 . S
O153 Tb119 2.344 . S
O153 C164 1.272 . S
O154 Tb118 2.344 . S
O154 C172 1.272 . S
O155 Tb133 2.344 . S
O155 C173 1.272 . S
O156 Tb133 2.344 . S
O156 C171 1.272 . S
O157 Tb118 2.344 . S
O157 C170 1.272 . S
O158 Tb129 2.344 1_565 S
O158 C169 1.272 . S
O159 Tb120 2.344 . S
O159 C168 1.272 . S
O160 Tb120 2.344 1_565 S
O160 C166 1.272 . S
O161 Tb129 2.344 . S
O161 C167 1.272 . S
C162 O138 1.272 . S
C162 O150 1.272 . S
C163 O139 1.272 . S
C163 O151 1.272 . S
C164 O140 1.272 . S
C164 O153 1.272 . S
C165 O141 1.272 . S
C165 O152 1.272 . S
C166 O142 1.272 . S
C166 O160 1.272 . S
C167 O143 1.272 . S
C167 O161 1.272 . S
C168 O144 1.272 . S
C168 O159 1.272 . S
C169 O145 1.272 . S
C169 O158 1.272 . S
C170 O146 1.272 . S
C170 O157 1.272 . S
C171 O147 1.272 . S
C171 O156 1.272 . S
C172 O148 1.272 . S
C172 O154 1.272 . S
C173 O149 1.272 . S
C173 O155 1.272 . S
H174 O175 0.850 . S
O175 H174 0.850 . S
O175 Tb176 2.341 1_556 S
O175 Tb177 2.341 1_556 S
O175 Tb178 2.341 . S
Tb176 O175 2.341 1_554 S
Tb176 O179 2.341 . S
Tb176 O180 2.341 1_554 S
Tb176 O181 2.341 . S
Tb176 O196 2.344 . S
Tb176 O199 2.344 . S
Tb176 O212 2.344 . S
Tb176 O215 2.344 1_554 S
Tb177 O175 2.341 1_554 S
Tb177 O179 2.341 . S
Tb177 O182 2.341 . S
Tb177 O184 2.341 1_554 S
Tb177 O200 2.344 1_554 S
Tb177 O203 2.344 . S
Tb177 O208 2.344 . S
Tb177 O211 2.344 . S
Tb178 O175 2.341 . S
Tb178 O180 2.341 . S
Tb178 O183 2.341 . S
Tb178 O184 2.341 . S
Tb178 O204 2.344 . S
Tb178 O207 2.344 . S
Tb178 O217 2.344 . S
Tb178 O218 2.344 . S
O179 Tb176 2.341 . S
O179 Tb177 2.341 . S
O179 H185 0.850 . S
O179 Tb187 2.341 . S
O180 Tb176 2.341 1_556 S
O180 Tb178 2.341 . S
O180 H186 0.850 . S
O180 Tb188 2.341 1_556 S
O181 Tb176 2.341 . S
O181 Tb187 2.341 . S
O181 Tb188 2.341 . S
O181 H189 0.850 . S
O182 Tb177 2.341 . S
O182 Tb187 2.341 . S
O182 H190 0.850 . S
O182 Tb191 2.341 . S
O183 Tb178 2.341 . S
O183 Tb188 2.341 1_556 S
O183 Tb191 2.341 1_556 S
O183 H192 0.850 . S
O184 Tb177 2.341 1_556 S
O184 Tb178 2.341 . S
O184 Tb191 2.341 1_556 S
O184 H193 0.850 . S
H185 O179 0.850 . S
H186 O180 0.850 . S
Tb187 O179 2.341 . S
Tb187 O181 2.341 . S
Tb187 O182 2.341 . S
Tb187 O194 2.341 . S
Tb187 O205 2.344 . S
Tb187 O206 2.344 . S
Tb187 O216 2.344 . S
Tb187 O219 2.344 . S
Tb188 O180 2.341 1_554 S
Tb188 O181 2.341 . S
Tb188 O183 2.341 1_554 S
Tb188 O194 2.341 . S
Tb188 O201 2.344 . S
Tb188 O202 2.344 1_554 S
Tb188 O209 2.344 . S
Tb188 O210 2.344 . S
H189 O181 0.850 . S
H190 O182 0.850 . S
Tb191 O182 2.341 . S
Tb191 O183 2.341 1_554 S
Tb191 O184 2.341 1_554 S
Tb191 O194 2.341 . S
Tb191 O197 2.344 . S
Tb191 O198 2.344 . S
Tb191 O213 2.344 1_554 S
Tb191 O214 2.344 . S
H192 O183 0.850 . S
H193 O184 0.850 . S
O194 Tb187 2.341 . S
O194 Tb188 2.341 . S
O194 Tb191 2.341 . S
O194 H195 0.850 . S
H195 O194 0.850 . S
O196 Tb176 2.344 . S
O196 C220 1.272 . S
O197 Tb191 2.344 . S
O197 C221 1.272 . S
O198 Tb191 2.344 . S
O198 C222 1.272 . S
O199 Tb176 2.344 . S
O199 C223 1.272 . S
O200 Tb177 2.344 1_556 S
O200 C224 1.272 . S
O201 Tb188 2.344 . S
O201 C225 1.272 . S
O202 Tb188 2.344 1_556 S
O202 C226 1.272 . S
O203 Tb177 2.344 . S
O203 C227 1.272 . S
O204 Tb178 2.344 . S
O204 C228 1.272 . S
O205 Tb187 2.344 . S
O205 C229 1.272 . S
O206 Tb187 2.344 . S
O206 C230 1.272 . S
O207 Tb178 2.344 . S
O207 C231 1.272 . S
O208 Tb177 2.344 . S
O208 C220 1.272 . S
O209 Tb188 2.344 . S
O209 C221 1.272 . S
O210 Tb188 2.344 . S
O210 C223 1.272 . S
O211 Tb177 2.344 . S
O211 C222 1.272 . S
O212 Tb176 2.344 . S
O212 C230 1.272 . S
O213 Tb191 2.344 1_556 S
O213 C231 1.272 . S
O214 Tb191 2.344 . S
O214 C229 1.272 . S
O215 Tb176 2.344 1_556 S
O215 C228 1.272 . S
O216 Tb187 2.344 . S
O216 C227 1.272 . S
O217 Tb178 2.344 . S
O217 C226 1.272 . S
O218 Tb178 2.344 . S
O218 C224 1.272 . S
O219 Tb187 2.344 . S
O219 C225 1.272 . S
C220 O196 1.272 . S
C220 O208 1.272 . S
C221 O197 1.272 . S
C221 O209 1.272 . S
C222 O198 1.272 . S
C222 O211 1.272 . S
C223 O199 1.272 . S
C223 O210 1.272 . S
C224 O200 1.272 . S
C224 O218 1.272 . S
C225 O201 1.272 . S
C225 O219 1.272 . S
C226 O202 1.272 . S
C226 O217 1.272 . S
C227 O203 1.272 . S
C227 O216 1.272 . S
C228 O204 1.272 . S
C228 O215 1.272 . S
C229 O205 1.272 . S
C229 O214 1.272 . S
C230 O206 1.272 . S
C230 O212 1.272 . S
C231 O207 1.272 . S
C231 O213 1.272 . S
C51 C108 1.498 . S
C56 C173 1.500 . S
C53 C110 1.500 . S
C170 C55 1.498 . S
C50 C109 1.502 . S
C57 C172 1.500 . S
C111 C52 1.500 . S
C171 C54 1.502 . S
C220 C47 1.498 . S
C223 C48 1.500 . S
C222 C49 1.500 . S
C46 C221 1.502 . S
C231 C114 1.502 . S
C113 C228 1.500 . S
C115 C230 1.498 . S
C229 C112 1.500 . S
C162 C105 1.500 . S
C106 C165 1.498 . S
C107 C164 1.502 . S
C163 C104 1.500 . S
C224 C167 1.500 . S
C169 C226 1.502 . S
C225 C166 1.500 . S
C168 C227 1.498 . S
