# Generated by pormake.
# Topology wmg, (6)-cn, num edge types: 1
# Building blocks:
#     Node 0, Type 0, BuildingBlock: VOLQOD_clean_sbu_1, # of connection points: 6
#     Node 1, Type 0, BuildingBlock: VOLQOD_clean_sbu_1, # of connection points: 6
#     Node 2, Type 0, BuildingBlock: VOLQOD_clean_sbu_1, # of connection points: 6
#     Node 3, Type 0, BuildingBlock: VOLQOD_clean_sbu_1, # of connection points: 6
#     Node 4, Type 0, BuildingBlock: VOLQOD_clean_sbu_1, # of connection points: 6
#     Node 5, Type 0, BuildingBlock: VOLQOD_clean_sbu_1, # of connection points: 6
#     Node 6, Type 0, BuildingBlock: VOLQOD_clean_sbu_1, # of connection points: 6
#     Node 7, Type 0, BuildingBlock: VOLQOD_clean_sbu_1, # of connection points: 6
#     Node 8, Type 0, BuildingBlock: VOLQOD_clean_sbu_1, # of connection points: 6
#     Node 9, Type 0, BuildingBlock: VOLQOD_clean_sbu_1, # of connection points: 6
#     Node 10, Type 0, BuildingBlock: VOLQOD_clean_sbu_1, # of connection points: 6
#     Node 11, Type 0, BuildingBlock: VOLQOD_clean_sbu_1, # of connection points: 6
#     Node 12, Type 0, BuildingBlock: VOLQOD_clean_sbu_1, # of connection points: 6
#     Node 13, Type 0, BuildingBlock: VOLQOD_clean_sbu_1, # of connection points: 6
#     Node 14, Type 0, BuildingBlock: VOLQOD_clean_sbu_1, # of connection points: 6
#     Node 15, Type 0, BuildingBlock: VOLQOD_clean_sbu_1, # of connection points: 6
#     Node 16, Type 0, BuildingBlock: VOLQOD_clean_sbu_1, # of connection points: 6
#     Node 17, Type 0, BuildingBlock: VOLQOD_clean_sbu_1, # of connection points: 6
#     Edge 18, Type (0, 0), BuildingBlock: ZUJKAS_clean_linker_0, # of connection points: 2
#     Edge 19, Type (0, 0), BuildingBlock: ZUJKAS_clean_linker_0, # of connection points: 2
#     Edge 20, Type (0, 0), BuildingBlock: ZUJKAS_clean_linker_0, # of connection points: 2
#     Edge 21, Type (0, 0), BuildingBlock: ZUJKAS_clean_linker_0, # of connection points: 2
#     Edge 22, Type (0, 0), BuildingBlock: ZUJKAS_clean_linker_0, # of connection points: 2
#     Edge 23, Type (0, 0), BuildingBlock: ZUJKAS_clean_linker_0, # of connection points: 2
#     Edge 24, Type (0, 0), BuildingBlock: ZUJKAS_clean_linker_0, # of connection points: 2
#     Edge 25, Type (0, 0), BuildingBlock: ZUJKAS_clean_linker_0, # of connection points: 2
#     Edge 26, Type (0, 0), BuildingBlock: ZUJKAS_clean_linker_0, # of connection points: 2
#     Edge 27, Type (0, 0), BuildingBlock: ZUJKAS_clean_linker_0, # of connection points: 2
#     Edge 28, Type (0, 0), BuildingBlock: ZUJKAS_clean_linker_0, # of connection points: 2
#     Edge 29, Type (0, 0), BuildingBlock: ZUJKAS_clean_linker_0, # of connection points: 2
#     Edge 30, Type (0, 0), BuildingBlock: ZUJKAS_clean_linker_0, # of connection points: 2
#     Edge 31, Type (0, 0), BuildingBlock: ZUJKAS_clean_linker_0, # of connection points: 2
#     Edge 32, Type (0, 0), BuildingBlock: ZUJKAS_clean_linker_0, # of connection points: 2
#     Edge 33, Type (0, 0), BuildingBlock: ZUJKAS_clean_linker_0, # of connection points: 2
#     Edge 34, Type (0, 0), BuildingBlock: ZUJKAS_clean_linker_0, # of connection points: 2
#     Edge 35, Type (0, 0), BuildingBlock: ZUJKAS_clean_linker_0, # of connection points: 2
#     Edge 36, Type (0, 0), BuildingBlock: ZUJKAS_clean_linker_0, # of connection points: 2
#     Edge 37, Type (0, 0), BuildingBlock: ZUJKAS_clean_linker_0, # of connection points: 2
#     Edge 38, Type (0, 0), BuildingBlock: ZUJKAS_clean_linker_0, # of connection points: 2
#     Edge 39, Type (0, 0), BuildingBlock: ZUJKAS_clean_linker_0, # of connection points: 2
#     Edge 40, Type (0, 0), BuildingBlock: ZUJKAS_clean_linker_0, # of connection points: 2
#     Edge 41, Type (0, 0), BuildingBlock: ZUJKAS_clean_linker_0, # of connection points: 2
#     Edge 42, Type (0, 0), BuildingBlock: ZUJKAS_clean_linker_0, # of connection points: 2
#     Edge 43, Type (0, 0), BuildingBlock: ZUJKAS_clean_linker_0, # of connection points: 2
#     Edge 44, Type (0, 0), BuildingBlock: ZUJKAS_clean_linker_0, # of connection points: 2
#     Edge 45, Type (0, 0), BuildingBlock: ZUJKAS_clean_linker_0, # of connection points: 2
#     Edge 46, Type (0, 0), BuildingBlock: ZUJKAS_clean_linker_0, # of connection points: 2
#     Edge 47, Type (0, 0), BuildingBlock: ZUJKAS_clean_linker_0, # of connection points: 2
#     Edge 48, Type (0, 0), BuildingBlock: ZUJKAS_clean_linker_0, # of connection points: 2
#     Edge 49, Type (0, 0), BuildingBlock: ZUJKAS_clean_linker_0, # of connection points: 2
#     Edge 50, Type (0, 0), BuildingBlock: ZUJKAS_clean_linker_0, # of connection points: 2
#     Edge 51, Type (0, 0), BuildingBlock: ZUJKAS_clean_linker_0, # of connection points: 2
#     Edge 52, Type (0, 0), BuildingBlock: ZUJKAS_clean_linker_0, # of connection points: 2
#     Edge 53, Type (0, 0), BuildingBlock: ZUJKAS_clean_linker_0, # of connection points: 2
#     Edge 54, Type (0, 0), BuildingBlock: ZUJKAS_clean_linker_0, # of connection points: 2
#     Edge 55, Type (0, 0), BuildingBlock: ZUJKAS_clean_linker_0, # of connection points: 2
#     Edge 56, Type (0, 0), BuildingBlock: ZUJKAS_clean_linker_0, # of connection points: 2
#     Edge 57, Type (0, 0), BuildingBlock: ZUJKAS_clean_linker_0, # of connection points: 2
#     Edge 58, Type (0, 0), BuildingBlock: ZUJKAS_clean_linker_0, # of connection points: 2
#     Edge 59, Type (0, 0), BuildingBlock: ZUJKAS_clean_linker_0, # of connection points: 2
#     Edge 60, Type (0, 0), BuildingBlock: ZUJKAS_clean_linker_0, # of connection points: 2
#     Edge 61, Type (0, 0), BuildingBlock: ZUJKAS_clean_linker_0, # of connection points: 2
#     Edge 62, Type (0, 0), BuildingBlock: ZUJKAS_clean_linker_0, # of connection points: 2
#     Edge 63, Type (0, 0), BuildingBlock: ZUJKAS_clean_linker_0, # of connection points: 2
#     Edge 64, Type (0, 0), BuildingBlock: ZUJKAS_clean_linker_0, # of connection points: 2
#     Edge 65, Type (0, 0), BuildingBlock: ZUJKAS_clean_linker_0, # of connection points: 2
#     Edge 66, Type (0, 0), BuildingBlock: ZUJKAS_clean_linker_0, # of connection points: 2
#     Edge 67, Type (0, 0), BuildingBlock: ZUJKAS_clean_linker_0, # of connection points: 2
#     Edge 68, Type (0, 0), BuildingBlock: ZUJKAS_clean_linker_0, # of connection points: 2
#     Edge 69, Type (0, 0), BuildingBlock: ZUJKAS_clean_linker_0, # of connection points: 2
#     Edge 70, Type (0, 0), BuildingBlock: ZUJKAS_clean_linker_0, # of connection points: 2
#     Edge 71, Type (0, 0), BuildingBlock: ZUJKAS_clean_linker_0, # of connection points: 2
# Relax obj value: 0.414
# Max RMSD: 0.276
# Mean RMSD: 0.276
data_MOF--net-wmg--node1-VOLQOD_clean_sbu_1--edge1-ZUJKAS_clean_linker_0
_symmetry_space_group_name_H-M    P1
_symmetry_Int_Tables_number       1
_symmetry_cell_setting            triclinic
loop_
_symmetry_equiv_pos_as_xyz
'x, y, z'
_cell_length_a     79.981301
_cell_length_b     79.835816
_cell_length_c     33.453491
_cell_angle_alpha  90.020097
_cell_angle_beta   89.943531
_cell_angle_gamma 119.98612
loop_
_atom_site_label
_atom_site_type_symbol
_atom_site_fract_x
_atom_site_fract_y
_atom_site_fract_z
_atom_type_partial_charge
O0 O 0.17531 0.28918 0.03133 0.0
Zn1 Zn 0.18927 0.28302 0.07311 0.0
O2 O 0.18322 0.2563 0.06946 0.0
Zn3 Zn 0.17407 0.24394 0.12155 0.0
Zn4 Zn 0.1635 0.24313 0.02914 0.0
Zn5 Zn 0.20619 0.2556 0.05316 0.0
O6 O 0.1919 0.23523 0.14405 0.0
O7 O 0.21577 0.24687 0.09949 0.0
O8 O 0.18362 0.2898 0.12705 0.0
O9 O 0.17427 0.26283 0.16147 0.0
O10 O 0.14616 0.2226 0.119 0.0
O11 O 0.13875 0.22432 0.05551 0.0
O12 O 0.17028 0.22801 0.99144 0.0
O13 O 0.21696 0.30102 0.06045 0.0
O14 O 0.20032 0.23656 0.00824 0.0
O15 O 0.22745 0.2821 0.0359 0.0
C16 C 0.16494 0.27981 0.00159 0.0
C17 C 0.20852 0.23855 0.13268 0.0
C18 C 0.13402 0.21712 0.09044 0.0
C19 C 0.17804 0.28029 0.15952 0.0
C20 C 0.18541 0.22682 0.98662 0.0
C21 C 0.22995 0.29888 0.04327 0.0
O22 O 0.15969 0.26206 -0.00371 0.0
O23 O 0.70493 0.88041 0.03153 0.0
Zn24 Zn 0.70846 0.89901 0.07507 0.0
O25 O 0.73452 0.92095 0.07623 0.0
Zn26 Zn 0.74565 0.92278 0.1293 0.0
Zn27 Zn 0.74948 0.91694 0.03584 0.0
Zn28 Zn 0.73419 0.94455 0.06325 0.0
O29 O 0.75247 0.94825 0.15587 0.0
O30 O 0.74127 0.96118 0.11197 0.0
O31 O 0.7004 0.88506 0.12733 0.0
O32 O 0.72603 0.90226 0.1656 0.0
O33 O 0.76793 0.91738 0.12683 0.0
O34 O 0.76766 0.91032 0.06243 0.0
O35 O 0.76517 0.94067 0.00304 0.0
O36 O 0.68978 0.90763 0.06088 0.0
O37 O 0.75397 0.96002 0.02073 0.0
O38 O 0.70758 0.93878 0.04568 0.0
C39 C 0.71525 0.88162 0.00154 0.0
C40 C 0.74876 0.96146 0.14573 0.0
C41 C 0.77415 0.91166 0.09774 0.0
C42 C 0.70891 0.88825 0.1609 0.0
C43 C 0.76526 0.95658 -0.00014 0.0
C44 C 0.69125 0.92331 0.04818 0.0
O45 O 0.73253 0.89551 -0.00187 0.0
O46 O 0.11224 0.82904 0.03643 0.0
Zn47 Zn 0.09323 0.81229 0.07781 0.0
O48 O 0.07069 0.81547 0.07813 0.0
Zn49 Zn 0.06716 0.82279 0.13197 0.0
Zn50 Zn 0.07461 0.83557 0.04059 0.0
Zn51 Zn 0.04824 0.79146 0.06104 0.0
O52 O 0.04124 0.80295 0.15434 0.0
O53 O 0.03013 0.7801 0.10748 0.0
O54 O 0.10613 0.81745 0.13107 0.0
O55 O 0.0868 0.82299 0.16949 0.0
O56 O 0.07197 0.85027 0.13364 0.0
O57 O 0.07907 0.8591 0.06998 0.0
O58 O 0.05166 0.82752 0.00557 0.0
O59 O 0.08621 0.78549 0.06163 0.0
O60 O 0.03393 0.79594 0.0164 0.0
O61 O 0.05561 0.7719 0.04262 0.0
C62 C 0.11145 0.83923 0.00807 0.0
C63 C 0.02868 0.78622 0.14178 0.0
C64 C 0.07712 0.8629 0.10603 0.0
C65 C 0.10156 0.82107 0.16508 0.0
C66 C 0.03689 0.81121 -0.00181 0.0
C67 C 0.07118 0.77136 0.04657 0.0
O68 O 0.09737 0.84234 0.00489 0.0
O69 O 0.82136 0.70872 0.96154 0.0
Zn70 Zn 0.80675 0.71261 0.9176 0.0
O71 O 0.81145 0.73893 0.91699 0.0
Zn72 Zn 0.82008 0.74964 0.86345 0.0
Zn73 Zn 0.8311 0.75406 0.95628 0.0
Zn74 Zn 0.78791 0.73896 0.93153 0.0
O75 O 0.80155 0.75682 0.83845 0.0
O76 O 0.77792 0.74615 0.88348 0.0
O77 O 0.81277 0.7045 0.86551 0.0
O78 O 0.8204 0.72984 0.82676 0.0
O79 O 0.84773 0.77163 0.86415 0.0
O80 O 0.85552 0.7724 0.92826 0.0
O81 O 0.82352 0.76966 0.99073 0.0
O82 O 0.77927 0.6941 0.93072 0.0
O83 O 0.79293 0.75879 0.97436 0.0
O84 O 0.7672 0.71247 0.95039 0.0
C85 C 0.83149 0.71929 0.99039 0.0
C86 C 0.78489 0.7535 0.84944 0.0
C87 C 0.86004 0.77837 0.89243 0.0
C88 C 0.81761 0.71282 0.83166 0.0
C89 C 0.80783 0.76987 0.99493 0.0
C90 C 0.76561 0.69589 0.94563 0.0
O91 O 0.83592 0.73694 0.99297 0.0
O92 O 0.28229 0.11612 0.96411 0.0
Zn93 Zn 0.27888 0.09785 0.92007 0.0
O94 O 0.25312 0.07559 0.91995 0.0
Zn95 Zn 0.24194 0.07268 0.86672 0.0
Zn96 Zn 0.23781 0.0797 0.95918 0.0
Zn97 Zn 0.25426 0.05273 0.93531 0.0
O98 O 0.23619 0.04722 0.84198 0.0
O99 O 0.24801 0.03557 0.88743 0.0
O100 O 0.28609 0.1119 0.86806 0.0
O101 O 0.26099 0.09327 0.82964 0.0
O102 O 0.21901 0.07699 0.86792 0.0
O103 O 0.21983 0.08617 0.93105 0.0
O104 O 0.22174 0.05587 0.99145 0.0
O105 O 0.29832 0.08998 0.93257 0.0
O106 O 0.23447 0.03739 0.97786 0.0
O107 O 0.28103 0.05973 0.95414 0.0
C108 C 0.27198 0.11488 0.99414 0.0
C109 C 0.24053 0.0346 0.85329 0.0
C110 C 0.213 0.0836 0.89575 0.0
C111 C 0.27764 0.10804 0.83436 0.0
C112 C 0.22232 0.04039 -0.00339 0.0
C113 C 0.29726 0.075 0.94837 0.0
O114 O 0.25465 0.10106 -0.00256 0.0
O115 O 0.88114 0.17663 0.96313 0.0
Zn116 Zn 0.89966 0.18948 0.91816 0.0
O117 O 0.92094 0.18447 0.92093 0.0
Zn118 Zn 0.92323 0.17372 0.87015 0.0
Zn119 Zn 0.91602 0.16617 0.9632 0.0
Zn120 Zn 0.94439 0.20835 0.93372 0.0
O121 O 0.94881 0.1917 0.84391 0.0
O122 O 0.96122 0.21705 0.88497 0.0
O123 O 0.88566 0.18137 0.8661 0.0
O124 O 0.90313 0.17182 0.83171 0.0
O125 O 0.91753 0.14603 0.87618 0.0
O126 O 0.90815 0.14041 0.93971 0.0
O127 O 0.93973 0.17378 0.9955 0.0
O128 O 0.90881 0.21748 0.92646 0.0
O129 O 0.95941 0.20419 0.97733 0.0
O130 O 0.93864 0.22949 0.94961 0.0
C131 C 0.88186 0.16811 0.99464 0.0
C132 C 0.96177 0.20896 0.85253 0.0
C133 C 0.91033 0.13452 0.90578 0.0
C134 C 0.88904 0.17494 0.83415 0.0
C135 C 0.95576 0.18946 -0.00155 0.0
C136 C 0.92398 0.23127 0.94196 0.0
O137 O 0.89511 0.16391 -0.00022 0.0
O138 O 0.83609 0.62074 0.36373 0.0
Zn139 Zn 0.84929 0.61512 0.40807 0.0
O140 O 0.84351 0.58848 0.40649 0.0
Zn141 Zn 0.83378 0.57655 0.45874 0.0
Zn142 Zn 0.82438 0.57486 0.3656 0.0
Zn143 Zn 0.8667 0.58787 0.3921 0.0
O144 O 0.85216 0.56924 0.48446 0.0
O145 O 0.87622 0.58042 0.44038 0.0
O146 O 0.84248 0.62227 0.46039 0.0
O147 O 0.83266 0.59565 0.49641 0.0
O148 O 0.80609 0.55443 0.45497 0.0
O149 O 0.79926 0.55704 0.3916 0.0
O150 O 0.83125 0.55858 0.33146 0.0
O151 O 0.87717 0.63319 0.39711 0.0
O152 O 0.86137 0.56797 0.34925 0.0
O153 O 0.88778 0.61419 0.37356 0.0
C154 C 0.82654 0.61112 0.33341 0.0
C155 C 0.86899 0.57281 0.47409 0.0
C156 C 0.79408 0.54949 0.42618 0.0
C157 C 0.83627 0.61303 0.49303 0.0
C158 C 0.8465 0.55747 0.32805 0.0
C159 C 0.89024 0.63099 0.38041 0.0
O160 O 0.82151 0.59335 0.32933 0.0
O161 O 0.3759 0.20935 0.36358 0.0
Zn162 Zn 0.37898 0.22866 0.40502 0.0
O163 O 0.40463 0.25117 0.40394 0.0
Zn164 Zn 0.41605 0.25507 0.45712 0.0
Zn165 Zn 0.42002 0.2467 0.3655 0.0
Zn166 Zn 0.40312 0.27356 0.38654 0.0
O167 O 0.42307 0.28152 0.4785 0.0
O168 O 0.41031 0.29198 0.43254 0.0
O169 O 0.37173 0.21615 0.45868 0.0
O170 O 0.39673 0.236 0.49612 0.0
O171 O 0.43811 0.24933 0.4574 0.0
O172 O 0.43778 0.24021 0.3944 0.0
O173 O 0.43608 0.27016 0.33196 0.0
O174 O 0.35924 0.23574 0.38953 0.0
O175 O 0.42196 0.28771 0.34183 0.0
O176 O 0.37617 0.26608 0.36841 0.0
C177 C 0.38596 0.2106 0.33306 0.0
C178 C 0.4186 0.29391 0.46613 0.0
C179 C 0.44416 0.24252 0.43004 0.0
C180 C 0.38006 0.22113 0.49246 0.0
C181 C 0.43454 0.28494 0.32437 0.0
C182 C 0.36008 0.25058 0.37351 0.0
O183 O 0.40297 0.22485 0.32844 0.0
O184 O 0.77673 0.15741 0.36562 0.0
Zn185 Zn 0.75899 0.14247 0.41037 0.0
O186 O 0.73726 0.14684 0.41314 0.0
Zn187 Zn 0.73593 0.15582 0.46683 0.0
Zn188 Zn 0.74091 0.1663 0.37432 0.0
Zn189 Zn 0.71373 0.12302 0.39962 0.0
O190 O 0.71105 0.13667 0.49408 0.0
O191 O 0.69753 0.11301 0.44906 0.0
O192 O 0.77384 0.14871 0.46142 0.0
O193 O 0.75685 0.15675 0.50134 0.0
O194 O 0.74112 0.18349 0.46636 0.0
O195 O 0.74801 0.19096 0.40215 0.0
O196 O 0.71677 0.15878 0.34371 0.0
O197 O 0.75019 0.11498 0.39714 0.0
O198 O 0.69799 0.12776 0.35871 0.0
O199 O 0.71944 0.10234 0.37975 0.0
C200 C 0.77548 0.16714 0.33686 0.0
C201 C 0.69775 0.11988 0.48357 0.0
C202 C 0.74682 0.19575 0.43788 0.0
C203 C 0.77093 0.15388 0.49544 0.0
C204 C 0.70101 0.14289 0.33984 0.0
C205 C 0.73463 0.10104 0.38332 0.0
O206 O 0.76185 0.17098 0.33517 0.0
O207 O 0.47947 0.03494 0.29278 0.0
Zn208 Zn 0.46611 0.04129 0.24991 0.0
O209 O 0.47167 0.06785 0.25432 0.0
Zn210 Zn 0.48173 0.08078 0.20303 0.0
Zn211 Zn 0.49055 0.08079 0.29622 0.0
Zn212 Zn 0.44821 0.06804 0.26905 0.0
O213 O 0.46398 0.08927 0.17929 0.0
O214 O 0.43942 0.07726 0.22222 0.0
O215 O 0.47294 0.03522 0.19631 0.0
O216 O 0.48272 0.06254 0.1629 0.0
O217 O 0.50935 0.1026 0.20808 0.0
O218 O 0.51559 0.10039 0.27214 0.0
O219 O 0.4827 0.09515 0.33362 0.0
O220 O 0.43825 0.02288 0.26021 0.0
O221 O 0.45287 0.08644 0.31484 0.0
O222 O 0.42683 0.04115 0.28403 0.0
C223 C 0.48929 0.04411 0.32325 0.0
C224 C 0.44719 0.08584 0.18955 0.0
C225 C 0.52088 0.10806 0.23772 0.0
C226 C 0.47911 0.04512 0.1644 0.0
C227 C 0.46738 0.09608 0.33756 0.0
C228 C 0.42475 0.02458 0.27625 0.0
O229 O 0.49422 0.06175 0.32901 0.0
O230 O 0.9482 0.44593 0.29771 0.0
Zn231 Zn 0.94439 0.42739 0.25386 0.0
O232 O 0.91822 0.40556 0.25314 0.0
Zn233 Zn 0.90692 0.40399 0.20044 0.0
Zn234 Zn 0.90342 0.40962 0.294 0.0
Zn235 Zn 0.91846 0.3818 0.2653 0.0
O236 O 0.90032 0.37886 0.17297 0.0
O237 O 0.91122 0.36533 0.21609 0.0
O238 O 0.95224 0.44158 0.20179 0.0
O239 O 0.92622 0.42484 0.16431 0.0
O240 O 0.88443 0.40894 0.20377 0.0
O241 O 0.88476 0.41593 0.26823 0.0
O242 O 0.88833 0.386 0.32755 0.0
O243 O 0.96304 0.41864 0.26736 0.0
O244 O 0.89902 0.3664 0.30851 0.0
O245 O 0.94514 0.38749 0.28244 0.0
C246 C 0.93796 0.44495 0.32766 0.0
C247 C 0.90389 0.36547 0.18238 0.0
C248 C 0.87814 0.4145 0.23301 0.0
C249 C 0.94343 0.43871 0.16866 0.0
C250 C 0.88816 0.37004 0.33038 0.0
C251 C 0.96152 0.40291 0.2799 0.0
O252 O 0.9206 0.43125 0.33116 0.0
O253 O 0.54451 0.50132 0.28879 0.0
Zn254 Zn 0.56434 0.51741 0.24811 0.0
O255 O 0.58599 0.51283 0.24922 0.0
Zn256 Zn 0.58927 0.50476 0.19596 0.0
Zn257 Zn 0.58085 0.4928 0.28799 0.0
Zn258 Zn 0.60906 0.53633 0.26587 0.0
O259 O 0.61535 0.52393 0.17309 0.0
O260 O 0.62674 0.54733 0.21879 0.0
O261 O 0.55191 0.51277 0.1944 0.0
O262 O 0.56998 0.50485 0.15764 0.0
O263 O 0.58362 0.47699 0.19601 0.0
O264 O 0.57539 0.46867 0.25956 0.0
O265 O 0.60336 0.50009 0.3241 0.0
O266 O 0.57255 0.54445 0.26457 0.0
O267 O 0.62341 0.53082 0.30879 0.0
O268 O 0.60263 0.55643 0.28604 0.0
C269 C 0.54456 0.49116 0.31799 0.0
C270 C 0.62801 0.54077 0.18486 0.0
C271 C 0.57752 0.46443 0.22393 0.0
C272 C 0.55599 0.50805 0.16103 0.0
C273 C 0.61925 0.51572 0.32909 0.0
C274 C 0.58758 0.55787 0.28121 0.0
O275 O 0.55814 0.48739 0.32257 0.0
O276 O 0.49887 0.95026 0.69568 0.0
Zn277 Zn 0.51404 0.94772 0.74019 0.0
O278 O 0.50989 0.92158 0.74355 0.0
Zn279 Zn 0.50101 0.91179 0.79761 0.0
Zn280 Zn 0.49051 0.90549 0.70451 0.0
Zn281 Zn 0.5338 0.92163 0.73113 0.0
O282 O 0.51997 0.90615 0.8257 0.0
O283 O 0.5433 0.91485 0.78047 0.0
O284 O 0.5081 0.95687 0.79132 0.0
O285 O 0.4997 0.93183 0.83146 0.0
O286 O 0.4738 0.88899 0.79724 0.0
O287 O 0.46637 0.88641 0.73254 0.0
O288 O 0.49913 0.89045 0.67119 0.0
O289 O 0.54131 0.96619 0.72553 0.0
O290 O 0.52967 0.90181 0.68863 0.0
O291 O 0.55478 0.94822 0.7132 0.0
C292 C 0.48871 0.93905 0.66762 0.0
C293 C 0.53645 0.90879 0.81525 0.0
C294 C 0.46185 0.88103 0.76869 0.0
C295 C 0.50271 0.94884 0.82537 0.0
C296 C 0.51499 0.89053 0.66768 0.0
C297 C 0.55562 0.9646 0.71413 0.0
O298 O 0.4847 0.92149 0.66646 0.0
O299 O 0.03579 0.54719 0.69979 0.0
Zn300 Zn 0.0402 0.56628 0.7429 0.0
O301 O 0.06638 0.58801 0.74137 0.0
Zn302 Zn 0.07814 0.59075 0.79401 0.0
Zn303 Zn 0.08086 0.58326 0.70089 0.0
Zn304 Zn 0.06584 0.61129 0.72653 0.0
O305 O 0.08562 0.61681 0.81809 0.0
O306 O 0.07356 0.62884 0.77403 0.0
O307 O 0.03313 0.5529 0.79585 0.0
O308 O 0.05912 0.57105 0.83244 0.0
O309 O 0.10019 0.58512 0.79151 0.0
O310 O 0.09996 0.57779 0.72718 0.0
O311 O 0.09576 0.6062 0.66552 0.0
O312 O 0.02124 0.57481 0.73047 0.0
O313 O 0.08496 0.62595 0.68246 0.0
O314 O 0.03904 0.60506 0.70924 0.0
C315 C 0.0458 0.54749 0.66995 0.0
C316 C 0.08171 0.62982 0.80734 0.0
C317 C 0.10659 0.57959 0.76247 0.0
C318 C 0.04207 0.55678 0.829 0.0
C319 C 0.09583 0.62205 0.66127 0.0
C320 C 0.02264 0.59002 0.71509 0.0
O321 O 0.06326 0.5609 0.66567 0.0
O322 O 0.44802 0.493 0.69024 0.0
Zn323 Zn 0.42939 0.4773 0.73314 0.0
O324 O 0.40731 0.48117 0.73374 0.0
Zn325 Zn 0.40454 0.48953 0.787 0.0
Zn326 Zn 0.41133 0.50072 0.69488 0.0
Zn327 Zn 0.3844 0.45727 0.71845 0.0
O328 O 0.37901 0.47002 0.81162 0.0
O329 O 0.36751 0.44629 0.76664 0.0
O330 O 0.44296 0.48312 0.78579 0.0
O331 O 0.42482 0.49046 0.82382 0.0
O332 O 0.4094 0.51706 0.78637 0.0
O333 O 0.41792 0.52524 0.72293 0.0
O334 O 0.38752 0.49315 0.66277 0.0
O335 O 0.42153 0.45016 0.71789 0.0
O336 O 0.36894 0.46202 0.67691 0.0
O337 O 0.39116 0.43754 0.6978 0.0
C338 C 0.44673 0.50217 0.66041 0.0
C339 C 0.3665 0.45296 0.80062 0.0
C340 C 0.41578 0.52963 0.75843 0.0
C341 C 0.43919 0.4879 0.81942 0.0
C342 C 0.37194 0.47716 0.65811 0.0
C343 C 0.40644 0.43646 0.70197 0.0
O344 O 0.43273 0.50539 0.657 0.0
O345 O 0.1538 0.37271 0.62767 0.0
Zn346 Zn 0.13981 0.37584 0.58143 0.0
O347 O 0.14402 0.40196 0.57904 0.0
Zn348 Zn 0.15294 0.41221 0.5253 0.0
Zn349 Zn 0.16329 0.41778 0.61832 0.0
Zn350 Zn 0.12012 0.4016 0.59233 0.0
O351 O 0.13382 0.41792 0.49787 0.0
O352 O 0.11047 0.40853 0.54338 0.0
O353 O 0.14717 0.36765 0.53093 0.0
O354 O 0.15454 0.39251 0.4909 0.0
O355 O 0.1803 0.43494 0.52623 0.0
O356 O 0.18777 0.43618 0.59071 0.0
O357 O 0.15522 0.43378 0.64986 0.0
O358 O 0.11216 0.35697 0.59246 0.0
O359 O 0.1243 0.42142 0.63459 0.0
O360 O 0.0994 0.37496 0.6104 0.0
C361 C 0.16364 0.38371 0.6563 0.0
C362 C 0.11728 0.41498 0.50875 0.0
C363 C 0.19236 0.44208 0.55488 0.0
C364 C 0.15232 0.37579 0.49695 0.0
C365 C 0.13924 0.43341 0.65401 0.0
C366 C 0.09812 0.35849 0.60601 0.0
O367 O 0.16805 0.40139 0.65735 0.0
O368 O 0.61728 0.77952 0.62902 0.0
Zn369 Zn 0.61266 0.76038 0.58585 0.0
O370 O 0.58658 0.73854 0.58787 0.0
Zn371 Zn 0.57449 0.73534 0.53542 0.0
Zn372 Zn 0.5723 0.74346 0.62836 0.0
Zn373 Zn 0.58736 0.7155 0.60332 0.0
O374 O 0.56766 0.70934 0.51134 0.0
O375 O 0.58002 0.6979 0.55605 0.0
O376 O 0.61929 0.77364 0.53284 0.0
O377 O 0.59321 0.7552 0.4967 0.0
O378 O 0.55216 0.74066 0.53831 0.0
O379 O 0.55375 0.74959 0.60187 0.0
O380 O 0.55705 0.72044 0.66344 0.0
O381 O 0.63178 0.75201 0.59762 0.0
O382 O 0.56817 0.70084 0.64728 0.0
O383 O 0.61425 0.72204 0.62057 0.0
C384 C 0.60743 0.77908 0.65927 0.0
C385 C 0.57196 0.69666 0.5225 0.0
C386 C 0.54658 0.74726 0.56696 0.0
C387 C 0.6102 0.76962 0.49987 0.0
C388 C 0.55709 0.70464 0.66799 0.0
C389 C 0.63058 0.73702 0.61371 0.0
O390 O 0.59004 0.76559 0.66384 0.0
O391 O 0.2115 0.84074 0.63521 0.0
Zn392 Zn 0.22974 0.85351 0.58988 0.0
O393 O 0.25043 0.84759 0.59086 0.0
Zn394 Zn 0.25215 0.83751 0.53887 0.0
Zn395 Zn 0.24507 0.82847 0.63173 0.0
Zn396 Zn 0.27436 0.87089 0.60421 0.0
O397 O 0.27757 0.85558 0.51214 0.0
O398 O 0.29097 0.8801 0.55516 0.0
O399 O 0.21518 0.84617 0.53841 0.0
O400 O 0.23181 0.83631 0.502 0.0
O401 O 0.24628 0.80974 0.54278 0.0
O402 O 0.23677 0.80294 0.60614 0.0
O403 O 0.2687 0.83512 0.66361 0.0
O404 O 0.23979 0.88159 0.5996 0.0
O405 O 0.28908 0.86552 0.64645 0.0
O406 O 0.26944 0.89224 0.62257 0.0
C407 C 0.21185 0.83146 0.66577 0.0
C408 C 0.29097 0.87251 0.52163 0.0
C409 C 0.23897 0.79769 0.5715 0.0
C410 C 0.21802 0.8398 0.50577 0.0
C411 C 0.28502 0.85046 0.66682 0.0
C412 C 0.25517 0.89476 0.6157 0.0
O413 O 0.2245 0.82633 0.6695 0.0
H414 H 0.20343 0.09161 0.82194 0.0
H415 H 0.18905 0.11199 0.80935 0.0
H416 H 0.17966 0.11362 0.93601 0.0
H417 H 0.19308 0.09283 0.94851 0.0
H418 H 0.15227 0.11578 0.89339 0.0
H419 H 0.22531 0.16816 0.83362 0.0
H420 H 0.21108 0.14583 0.80723 0.0
H421 H 0.22051 0.14566 0.85589 0.0
C422 C 0.19767 0.09579 0.8469 0.0
C423 C 0.19989 0.09109 0.88636 0.0
C424 C 0.18961 0.10757 0.83968 0.0
C425 C 0.18391 0.11488 0.87186 0.0
C426 C 0.18413 0.10834 0.91067 0.0
H427 H 0.21066 0.21338 0.98085 0.0
H428 H 0.20765 0.18706 0.93905 0.0
C429 C 0.19196 0.09652 0.91784 0.0
C430 C 0.18061 0.13148 0.86742 0.0
H431 H 0.20684 0.18063 0.85917 0.0
C432 C 0.16392 0.12995 0.8848 0.0
C433 C 0.19584 0.14993 0.85586 0.0
C434 C 0.21425 0.15265 0.83723 0.0
C435 C 0.16306 0.14647 0.89577 0.0
C436 C 0.17911 0.16496 0.88769 0.0
C437 C 0.1947 0.1664 0.86565 0.0
C438 C 0.18179 0.18249 0.90862 0.0
C439 C 0.14589 0.14394 0.91952 0.0
C440 C 0.16859 0.18909 0.9046 0.0
C441 C 0.17011 0.204 0.92906 0.0
C442 C 0.18507 0.21276 0.9574 0.0
C443 C 0.19895 0.20694 0.95945 0.0
C444 C 0.19726 0.1919 0.93545 0.0
H445 H 0.13594 0.1286 0.92773 0.0
H446 H 0.15069 0.15265 0.94738 0.0
H447 H 0.13766 0.14904 0.90151 0.0
H448 H 0.15682 0.18237 0.88341 0.0
H449 H 0.15933 0.20837 0.92639 0.0
H450 H 0.78709 0.95267 0.94145 0.0
H451 H 0.8135 0.9785 0.90327 0.0
H452 H 0.80303 0.02062 0.9615 0.0
H453 H 0.77629 0.99492 -0.00129 0.0
H454 H 0.81159 0.02868 0.88252 0.0
H455 H 0.86505 0.01324 0.95552 0.0
H456 H 0.8463 0.994 0.92689 0.0
H457 H 0.84031 0.00206 0.97202 0.0
C458 C 0.79028 0.96743 0.94577 0.0
C459 C 0.77974 0.97179 0.9735 0.0
C460 C 0.80544 0.98216 0.92405 0.0
C461 C 0.8105 0.0015 0.93019 0.0
C462 C 0.7994 0.00577 0.95637 0.0
H463 H 0.90093 0.10745 0.96364 0.0
H464 H 0.87938 0.07286 0.95709 0.0
C465 C 0.78412 0.99107 0.9777 0.0
C466 C 0.82801 0.01762 0.91174 0.0
H467 H 0.87715 0.04181 0.91884 0.0
C468 C 0.82597 0.03143 0.88964 0.0
C469 C 0.84672 0.02102 0.92095 0.0
C470 C 0.84986 0.00691 0.94533 0.0
C471 C 0.84204 0.04932 0.87967 0.0
C472 C 0.86069 0.05324 0.89124 0.0
C473 C 0.86283 0.0387 0.90997 0.0
C474 C 0.87714 0.07332 0.89262 0.0
C475 C 0.83869 0.06445 0.86016 0.0
C476 C 0.884 0.08497 0.85831 0.0
C477 C 0.89629 0.10498 0.86204 0.0
C478 C 0.90189 0.11346 0.90014 0.0
C479 C 0.89661 0.10142 0.93392 0.0
C480 C 0.88434 0.08157 0.93019 0.0
H481 H 0.8231 0.05974 0.85766 0.0
H482 H 0.84588 0.07814 0.87748 0.0
H483 H 0.84491 0.06748 0.82961 0.0
H484 H 0.87899 0.07879 0.82894 0.0
H485 H 0.90026 0.11388 0.83542 0.0
H486 H 0.87919 0.77705 0.82622 0.0
H487 H 0.9137 0.78773 0.82398 0.0
H488 H 0.92189 0.81741 0.93616 0.0
H489 H 0.88743 0.80647 0.93908 0.0
H490 H 0.95485 0.82648 0.84626 0.0
H491 H 0.92274 0.76293 0.94837 0.0
H492 H 0.90852 0.76733 0.91255 0.0
H493 H 0.91615 0.78104 0.95808 0.0
C494 C 0.88852 0.78668 0.84935 0.0
C495 C 0.88068 0.79067 0.88322 0.0
C496 C 0.90823 0.79276 0.84798 0.0
C497 C 0.92017 0.80312 0.88014 0.0
C498 C 0.91282 0.80941 0.91111 0.0
H499 H 0.03087 0.84055 0.97579 0.0
H500 H 0.00401 0.83808 0.93696 0.0
C501 C 0.89314 0.8031 0.91281 0.0
C502 C 0.93831 0.80302 0.88693 0.0
H503 H 0.95667 0.78169 0.94675 0.0
C504 C 0.95534 0.81657 0.86778 0.0
C505 C 0.93868 0.78972 0.91425 0.0
C506 C 0.92055 0.7743 0.93434 0.0
C507 C 0.97307 0.81776 0.87693 0.0
C508 C 0.97363 0.80536 0.90657 0.0
C509 C 0.95633 0.79121 0.92404 0.0
C510 C 0.99186 0.80768 0.92308 0.0
C511 C 0.99093 0.8323 0.85491 0.0
C512 C 0.99402 0.7914 0.92853 0.0
C513 C 0.00904 0.79263 0.95194 0.0
C514 C 0.02234 0.81024 0.96978 0.0
C515 C 0.02088 0.82679 0.96226 0.0
C516 C 0.00564 0.82546 0.93956 0.0
H517 H 0.98732 0.83483 0.82426 0.0
H518 H -0.00249 0.84632 0.87103 0.0
H519 H 0.00177 0.82752 0.85274 0.0
H520 H 0.98353 0.7775 0.91623 0.0
H521 H 0.00994 0.77969 0.95693 0.0
H522 H 0.78139 0.78191 -0.00282 0.0
H523 H 0.7825 0.80782 0.0377 0.0
H524 H 0.83376 0.81545 0.09692 0.0
H525 H 0.83316 0.78994 0.05523 0.0
H526 H 0.78153 0.81362 0.11689 0.0
H527 H 0.85247 0.86901 0.05416 0.0
H528 H 0.83916 0.84493 0.0338 0.0
H529 H 0.85188 0.84907 0.08029 0.0
C530 C 0.79282 0.78897 0.01902 0.0
C531 C 0.80733 0.78406 0.0226 0.0
C532 C 0.79343 0.80377 0.04226 0.0
C533 C 0.80843 0.81382 0.06985 0.0
C534 C 0.82235 0.80824 0.07512 0.0
H535 H 0.78239 0.9002 0.16917 0.0
H536 H 0.79667 0.87941 0.17683 0.0
C537 C 0.82192 0.7936 0.0514 0.0
C538 C 0.8097 0.83076 0.09094 0.0
H539 H 0.8352 0.8801 0.09095 0.0
C540 C 0.79342 0.82818 0.11204 0.0
C541 C 0.82539 0.8497 0.08488 0.0
C542 C 0.84319 0.85348 0.06188 0.0
C543 C 0.79145 0.844 0.12352 0.0
C544 C 0.80654 0.86297 0.11474 0.0
C545 C 0.82369 0.86555 0.09758 0.0
C546 C 0.80296 0.87949 0.11383 0.0
C547 C 0.77248 0.84013 0.14129 0.0
C548 C 0.80338 0.88779 0.07663 0.0
C549 C 0.79562 0.89986 0.07233 0.0
C550 C 0.78712 0.90379 0.1051 0.0
C551 C 0.78862 0.89724 0.14326 0.0
C552 C 0.79661 0.88521 0.14762 0.0
H553 H 0.76154 0.82448 0.1417 0.0
H554 H 0.7748 0.84548 0.17253 0.0
H555 H 0.76649 0.84783 0.12406 0.0
H556 H 0.80837 0.88377 0.05014 0.0
H557 H 0.79504 0.90497 0.04264 0.0
H558 H 0.21924 0.00571 0.01683 0.0
H559 H 0.1922 0.97859 0.05082 0.0
H560 H 0.16483 0.01285 0.06802 0.0
H561 H 0.1919 0.04018 0.03463 0.0
H562 H 0.16028 0.98666 0.13445 0.0
H563 H 0.14115 0.95179 0.98494 0.0
H564 H 0.16533 0.9592 0.00068 0.0
H565 H 0.15844 0.97711 0.99155 0.0
C566 C 0.20766 0.00763 0.02844 0.0
C567 C 0.20757 0.025 0.02234 0.0
C568 C 0.19225 0.99213 0.04792 0.0
C569 C 0.17646 0.9937 0.06132 0.0
C570 C 0.17691 0.01139 0.05779 0.0
H571 H 0.0685 0.88778 0.06897 0.0
H572 H 0.08951 0.92285 0.0671 0.0
C573 C 0.19236 0.02695 0.03849 0.0
C574 C 0.15858 0.97627 0.07433 0.0
H575 H 0.12369 0.9325 0.04006 0.0
C576 C 0.15212 0.97482 0.1139 0.0
C577 C 0.14777 0.96113 0.04709 0.0
C578 C 0.15338 0.96238 0.00359 0.0
C579 C 0.13542 0.95813 0.12735 0.0
C580 C 0.12519 0.94258 0.10053 0.0
C581 C 0.13142 0.94443 0.06068 0.0
C582 C 0.10895 0.92351 0.1129 0.0
C583 C 0.12894 0.95734 0.16998 0.0
C584 C 0.11197 0.91244 0.1416 0.0
C585 C 0.09959 0.89243 0.14348 0.0
C586 C 0.08439 0.88329 0.116 0.0
C587 C 0.08011 0.89458 0.09051 0.0
C588 C 0.09217 0.9146 0.08936 0.0
H589 H 0.1337 0.97206 0.18173 0.0
H590 H 0.113 0.94845 0.17275 0.0
H591 H 0.13554 0.95079 0.18896 0.0
H592 H 0.12495 0.91886 0.15959 0.0
H593 H 0.1033 0.88394 0.16297 0.0
H594 H 0.1133 0.22068 0.1505 0.0
H595 H 0.07857 0.20838 0.14879 0.0
H596 H 0.07344 0.17307 0.0466 0.0
H597 H 0.10837 0.18636 0.04684 0.0
H598 H 0.06337 0.19798 0.02792 0.0
H599 H 0.02582 0.16377 0.16888 0.0
H600 H 0.04702 0.18664 0.17822 0.0
H601 H 0.04935 0.1672 0.15677 0.0
C602 C 0.10459 0.2096 0.12889 0.0
C603 C 0.11338 0.20452 0.09859 0.0
C604 C 0.08469 0.20249 0.12802 0.0
C605 C 0.07334 0.18982 0.09747 0.0
C606 C 0.08191 0.1829 0.07033 0.0
H607 H 0.95588 0.15885 0.03486 0.0
H608 H 0.98356 0.15847 0.0646 0.0
C609 C 0.10183 0.19042 0.07051 0.0
C610 C 0.05421 0.18756 0.08801 0.0
H611 H 0.01091 0.17784 0.12783 0.0
C612 C 0.05181 0.19322 0.04969 0.0
C613 C 0.03911 0.18146 0.11632 0.0
C614 C 0.04039 0.17424 0.1572 0.0
C615 C 0.03501 0.19338 0.03912 0.0
C616 C 0.02039 0.18838 0.06807 0.0
C617 C 0.02238 0.18209 0.10604 0.0
C618 C 0.00283 0.18926 0.05836 0.0
C619 C 0.03308 0.19887 -0.00315 0.0
C620 C 0.00433 0.20686 0.04682 0.0
C621 C 0.98865 0.20713 0.02928 0.0
C622 C 0.97114 0.18981 0.02354 0.0
C623 C 0.96921 0.17244 0.03852 0.0
C624 C 0.98498 0.17217 0.05569 0.0
H625 H 0.04306 0.19734 0.97602 0.0
H626 H 0.0181 0.1898 0.98567 0.0
H627 H 0.03666 0.21421 -0.00375 0.0
H628 H 0.01797 0.22024 0.04932 0.0
H629 H 0.99052 0.22077 0.01862 0.0
H630 H 0.87417 0.54715 0.32039 0.0
H631 H 0.87252 0.52082 0.28071 0.0
H632 H 0.81731 0.50842 0.23352 0.0
H633 H 0.8186 0.53454 0.27408 0.0
H634 H 0.81542 0.47656 0.26002 0.0
H635 H 0.88 0.51342 0.16526 0.0
H636 H 0.88689 0.52067 0.21603 0.0
H637 H 0.87036 0.52652 0.19151 0.0
C638 C 0.86182 0.53908 0.30107 0.0
C639 C 0.8465 0.54293 0.30056 0.0
C640 C 0.86097 0.52411 0.27803 0.0
C641 C 0.84496 0.51286 0.25347 0.0
C642 C 0.82988 0.51702 0.25198 0.0
H643 H 0.86998 0.42596 0.16177 0.0
H644 H 0.85503 0.44609 0.15378 0.0
C645 C 0.83065 0.53194 0.27525 0.0
C646 C 0.84321 0.49551 0.23337 0.0
H647 H 0.87086 0.48026 0.18583 0.0
C648 C 0.82729 0.47737 0.24274 0.0
C649 C 0.85825 0.49643 0.20952 0.0
C650 C 0.87469 0.51536 0.19464 0.0
C651 C 0.82717 0.46022 0.23302 0.0
C652 C 0.8436 0.46133 0.21453 0.0
C653 C 0.85839 0.47932 0.20084 0.0
C654 C 0.84762 0.44511 0.21633 0.0
C655 C 0.80984 0.44116 0.24448 0.0
C656 C 0.84772 0.43722 0.25377 0.0
C657 C 0.85614 0.42572 0.25836 0.0
C658 C 0.86489 0.42205 0.2257 0.0
C659 C 0.86335 0.42854 0.18752 0.0
C660 C 0.85486 0.44009 0.18292 0.0
H661 H 0.79635 0.44174 0.24061 0.0
H662 H 0.80882 0.42902 0.22639 0.0
H663 H 0.81086 0.43824 0.27656 0.0
H664 H 0.84272 0.44121 0.28024 0.0
H665 H 0.85697 0.42084 0.28812 0.0
H666 H 0.5574 0.44526 0.15744 0.0
H667 H 0.53403 0.41052 0.15467 0.0
H668 H 0.55542 0.40246 0.267 0.0
H669 H 0.57845 0.4371 0.27039 0.0
H670 H 0.53311 0.36959 0.17748 0.0
H671 H 0.49896 0.3998 0.27731 0.0
H672 H 0.5174 0.41446 0.24145 0.0
H673 H 0.52386 0.40743 0.28725 0.0
C674 C 0.55778 0.43592 0.18047 0.0
C675 C 0.56947 0.44381 0.21445 0.0
C676 C 0.54442 0.41609 0.17883 0.0
C677 C 0.54296 0.40409 0.21083 0.0
C678 C 0.55641 0.41157 0.24204 0.0
H679 H 0.47057 0.29196 0.3048 0.0
H680 H 0.49526 0.31945 0.26746 0.0
C681 C 0.56952 0.43135 0.24399 0.0
C682 C 0.52499 0.38556 0.2171 0.0
H683 H 0.48468 0.36593 0.27527 0.0
C684 C 0.52232 0.36869 0.19839 0.0
C685 C 0.51084 0.38463 0.24373 0.0
C686 C 0.51273 0.40253 0.26346 0.0
C687 C 0.50607 0.35062 0.20717 0.0
C688 C 0.49257 0.34955 0.23602 0.0
C689 C 0.49495 0.36665 0.25315 0.0
C690 C 0.47671 0.331 0.2518 0.0
C691 C 0.50361 0.33296 0.18555 0.0
C692 C 0.45801 0.32828 0.25571 0.0
C693 C 0.44404 0.31291 0.27822 0.0
C694 C 0.44843 0.29979 0.2967 0.0
C695 C 0.46674 0.3018 0.29071 0.0
C696 C 0.48083 0.31742 0.26891 0.0
H697 H 0.51022 0.33677 0.1553 0.0
H698 H 0.51108 0.32668 0.20256 0.0
H699 H 0.48815 0.32179 0.18249 0.0
H700 H 0.45449 0.3386 0.24289 0.0
H701 H 0.42998 0.3116 0.28202 0.0
H702 H 0.54428 0.13902 0.28339 0.0
H703 H 0.5794 0.15429 0.28699 0.0
H704 H 0.57881 0.12064 0.18537 0.0
H705 H 0.54386 0.10635 0.1803 0.0
H706 H 0.59149 0.13134 0.30756 0.0
H707 H 0.63038 0.16739 0.1691 0.0
H708 H 0.60606 0.16226 0.17889 0.0
H709 H 0.61037 0.14391 0.15821 0.0
C710 C 0.55183 0.13572 0.26059 0.0
C711 C 0.54153 0.12154 0.23167 0.0
C712 C 0.57187 0.14438 0.26268 0.0
C713 C 0.5818 0.13854 0.23664 0.0
C714 C 0.57163 0.12572 0.20531 0.0
H715 H 0.66639 0.11144 0.31947 0.0
H716 H 0.63872 0.11165 0.28913 0.0
C717 C 0.55161 0.11746 0.20252 0.0
C718 C 0.60124 0.14211 0.24788 0.0
H719 H 0.64577 0.15411 0.21139 0.0
C720 C 0.60344 0.13671 0.28662 0.0
C721 C 0.61688 0.14905 0.22072 0.0
C722 C 0.61585 0.15616 0.17956 0.0
C723 C 0.62052 0.13744 0.29856 0.0
C724 C 0.63566 0.14312 0.27063 0.0
C725 C 0.63391 0.14932 0.23239 0.0
C726 C 0.65334 0.1427 0.28138 0.0
C727 C 0.62213 0.13201 0.34107 0.0
C728 C 0.67095 0.15999 0.28496 0.0
C729 C 0.68685 0.15992 0.30202 0.0
C730 C 0.6853 0.14254 0.3159 0.0
C731 C 0.66799 0.12509 0.30963 0.0
C732 C 0.65217 0.12518 0.29229 0.0
H733 H 0.61162 0.13307 0.36114 0.0
H734 H 0.61905 0.11683 0.34177 0.0
H735 H 0.63689 0.14144 0.35305 0.0
H736 H 0.67211 0.17363 0.27656 0.0
H737 H 0.70002 0.17361 0.30613 0.0
H738 H 0.49361 0.11557 0.39684 0.0
H739 H 0.4953 0.14115 0.43978 0.0
H740 H 0.44291 0.13377 0.38655 0.0
H741 H 0.44081 0.1079 0.34453 0.0
H742 H 0.50071 0.17441 0.4156 0.0
H743 H 0.43288 0.14029 0.50046 0.0
H744 H 0.44153 0.12616 0.47483 0.0
H745 H 0.42721 0.1344 0.44878 0.0
C746 C 0.48221 0.11911 0.39491 0.0
C747 C 0.46709 0.10974 0.36711 0.0
C748 C 0.4832 0.13372 0.41956 0.0
C749 C 0.46909 0.13922 0.41692 0.0
C750 C 0.45366 0.12942 0.39012 0.0
H751 H 0.46661 0.23568 0.37951 0.0
H752 H 0.47871 0.21368 0.39081 0.0
C753 C 0.45256 0.11471 0.36575 0.0
C754 C 0.47165 0.15675 0.43777 0.0
H755 H 0.44508 0.17438 0.48112 0.0
C756 C 0.48875 0.17435 0.43107 0.0
C757 C 0.45645 0.15677 0.45936 0.0
C758 C 0.43861 0.13831 0.47165 0.0
C759 C 0.49006 0.19204 0.44091 0.0
C760 C 0.47369 0.19209 0.45672 0.0
C761 C 0.45755 0.17447 0.4681 0.0
C762 C 0.47129 0.20932 0.45376 0.0
C763 C 0.50864 0.2105 0.43223 0.0
C764 C 0.46348 0.21472 0.48558 0.0
C765 C 0.45628 0.22726 0.47896 0.0
C766 C 0.45659 0.23435 0.44031 0.0
C767 C 0.46604 0.23035 0.40955 0.0
C768 C 0.47321 0.21789 0.41615 0.0
H769 H 0.52125 0.20863 0.4385 0.0
H770 H 0.50918 0.21408 0.40003 0.0
H771 H 0.50997 0.2228 0.45024 0.0
H772 H 0.46177 0.20821 0.5148 0.0
H773 H 0.44903 0.23006 0.50324 0.0
H774 H 0.76212 0.21512 0.50819 0.0
H775 H 0.78342 0.25014 0.51518 0.0
H776 H 0.77196 0.25794 0.39257 0.0
H777 H 0.75049 0.22341 0.3859 0.0
H778 H 0.81556 0.26749 0.47515 0.0
H779 H 0.77667 0.30575 0.43879 0.0
H780 H 0.76406 0.28055 0.45301 0.0
H781 H 0.77056 0.28755 0.40147 0.0
C782 C 0.76349 0.22443 0.48337 0.0
C783 C 0.75484 0.21653 0.44633 0.0
C784 C 0.77573 0.24443 0.48735 0.0
C785 C 0.77927 0.25675 0.4545 0.0
C786 C 0.7692 0.24892 0.41871 0.0
H787 H 0.87746 0.33176 0.33365 0.0
H788 H 0.8525 0.3068 0.37548 0.0
C789 C 0.75704 0.22906 0.41475 0.0
C790 C 0.79596 0.27675 0.45412 0.0
H791 H 0.81004 0.32051 0.41113 0.0
C792 C 0.81431 0.27931 0.46239 0.0
C793 C 0.7945 0.29244 0.4385 0.0
C794 C 0.77531 0.29143 0.43294 0.0
C795 C 0.83115 0.29627 0.45118 0.0
C796 C 0.82955 0.31077 0.43017 0.0
C797 C 0.81132 0.30917 0.42615 0.0
C798 C 0.84608 0.3264 0.40806 0.0
C799 C 0.85044 0.29809 0.46057 0.0
C800 C 0.85057 0.34571 0.41175 0.0
C801 C 0.86462 0.35998 0.38722 0.0
C802 C 0.87445 0.35521 0.35852 0.0
C803 C 0.87029 0.33596 0.35564 0.0
C804 C 0.85612 0.32168 0.37988 0.0
H805 H 0.84976 0.29062 0.48905 0.0
H806 H 0.85429 0.29103 0.43655 0.0
H807 H 0.86202 0.31345 0.46292 0.0
H808 H 0.84293 0.34967 0.43304 0.0
H809 H 0.86752 0.37471 0.3903 0.0
H810 H 0.65752 0.54258 0.33432 0.0
H811 H 0.68191 0.54086 0.3748 0.0
H812 H 0.63798 0.488 0.42902 0.0
H813 H 0.61345 0.48923 0.38739 0.0
H814 H 0.68782 0.53976 0.45445 0.0
H815 H 0.67349 0.47081 0.38256 0.0
H816 H 0.66286 0.48457 0.36407 0.0
H817 H 0.65391 0.47066 0.40919 0.0
C818 C 0.65298 0.53067 0.3551 0.0
C819 C 0.6336 0.5159 0.35719 0.0
C820 C 0.66694 0.52973 0.37834 0.0
C821 C 0.66182 0.51411 0.40442 0.0
C822 C 0.64232 0.49992 0.40839 0.0
H823 H 0.77464 0.53903 0.49802 0.0
H824 H 0.73959 0.52413 0.50704 0.0
C825 C 0.62833 0.50071 0.38469 0.0
C826 C 0.67733 0.51242 0.42487 0.0
H827 H 0.70191 0.48777 0.41904 0.0
C828 C 0.69075 0.52819 0.44762 0.0
C829 C 0.68091 0.49712 0.41623 0.0
C830 C 0.66714 0.47985 0.39153 0.0
C831 C 0.70864 0.5302 0.4581 0.0
C832 C 0.71291 0.51569 0.44642 0.0
C833 C 0.69856 0.49885 0.42781 0.0
C834 C 0.73315 0.51988 0.44377 0.0
C835 C 0.72346 0.54874 0.47788 0.0
C836 C 0.74092 0.52096 0.40562 0.0
C837 C 0.76072 0.52912 0.40047 0.0
C838 C 0.77324 0.5365 0.43336 0.0
C839 C 0.76535 0.53365 0.47206 0.0
C840 C 0.74536 0.5253 0.47724 0.0
H841 H 0.71834 0.5593 0.48116 0.0
H842 H 0.72678 0.54551 0.50812 0.0
H843 H 0.73704 0.55566 0.46024 0.0
H844 H 0.73179 0.51675 0.37933 0.0
H845 H 0.7663 0.53076 0.37032 0.0
H846 H 0.52412 0.75228 0.62079 0.0
H847 H 0.5109 0.77361 0.61382 0.0
H848 H 0.52672 0.78194 0.48901 0.0
H849 H 0.54054 0.76074 0.49617 0.0
H850 H 0.54275 0.81518 0.52627 0.0
H851 H 0.46654 0.77704 0.57044 0.0
H852 H 0.47959 0.77177 0.60698 0.0
H853 H 0.47879 0.76415 0.55584 0.0
C854 C 0.5242 0.75809 0.59147 0.0
C855 C 0.5336 0.75505 0.55917 0.0
C856 C 0.51642 0.77017 0.58738 0.0
C857 C 0.51767 0.77933 0.5508 0.0
C858 C 0.5255 0.77495 0.51747 0.0
H859 H 0.489 0.86884 0.60977 0.0
H860 H 0.4889 0.84346 0.56872 0.0
C861 C 0.53332 0.76277 0.52156 0.0
C862 C 0.51439 0.79605 0.55034 0.0
H863 H 0.48566 0.81109 0.59398 0.0
C864 C 0.52998 0.81422 0.53986 0.0
C865 C 0.49763 0.79493 0.5671 0.0
C866 C 0.47965 0.77584 0.57524 0.0
C867 C 0.53008 0.83133 0.54986 0.0
C868 C 0.51443 0.8302 0.5718 0.0
C869 C 0.49795 0.81204 0.57815 0.0
C870 C 0.51572 0.84725 0.59247 0.0
C871 C 0.54732 0.85042 0.53818 0.0
C872 C 0.53092 0.85794 0.61929 0.0
C873 C 0.53112 0.87256 0.64258 0.0
C874 C 0.51591 0.87652 0.64009 0.0
C875 C 0.50091 0.86609 0.61256 0.0
C876 C 0.50083 0.8516 0.58899 0.0
H877 H 0.5536 0.8491 0.50952 0.0
H878 H 0.54347 0.86193 0.53502 0.0
H879 H 0.55864 0.85487 0.56143 0.0
H880 H 0.54228 0.85448 0.62348 0.0
H881 H 0.54279 0.88019 0.66368 0.0
H882 H 0.10489 0.65973 0.65314 0.0
H883 H 0.13088 0.68479 0.61351 0.0
H884 H 0.14444 0.64275 0.56578 0.0
H885 H 0.11869 0.61758 0.60628 0.0
H886 H 0.17564 0.67249 0.59388 0.0
H887 H 0.13955 0.70097 0.49897 0.0
H888 H 0.13178 0.70012 0.5495 0.0
H889 H 0.1263 0.67797 0.52423 0.0
C890 C 0.11311 0.65569 0.63362 0.0
C891 C 0.10978 0.63667 0.63311 0.0
C892 C 0.12789 0.67003 0.6106 0.0
C893 C 0.13943 0.66561 0.58607 0.0
C894 C 0.13564 0.64647 0.58425 0.0
H895 H 0.22806 0.77846 0.49978 0.0
H896 H 0.20745 0.74347 0.49064 0.0
C897 C 0.12093 0.63212 0.60751 0.0
C898 C 0.15689 0.68149 0.5669 0.0
H899 H 0.17241 0.72493 0.52131 0.0
C900 C 0.17494 0.6837 0.57692 0.0
C901 C 0.15613 0.69585 0.54356 0.0
C902 C 0.13735 0.69345 0.52808 0.0
C903 C 0.19209 0.70089 0.56835 0.0
C904 C 0.19107 0.71637 0.55032 0.0
C905 C 0.17324 0.71325 0.53597 0.0
C906 C 0.20716 0.73659 0.55331 0.0
C907 C 0.21103 0.70265 0.58066 0.0
C908 C 0.21432 0.74426 0.59131 0.0
C909 C 0.22602 0.76412 0.59658 0.0
C910 C 0.23068 0.77678 0.56401 0.0
C911 C 0.22475 0.76905 0.52544 0.0
C912 C 0.21294 0.74907 0.52017 0.0
H913 H 0.21058 0.6886 0.57695 0.0
H914 H 0.22329 0.71385 0.56298 0.0
H915 H 0.21363 0.70656 0.6128 0.0
H916 H 0.20972 0.73507 0.61752 0.0
H917 H 0.23044 0.76961 0.62664 0.0
H918 H 0.21671 0.47471 0.5952 0.0
H919 H 0.25182 0.4895 0.59709 0.0
H920 H 0.24916 0.45203 0.50125 0.0
H921 H 0.21419 0.43807 0.49785 0.0
H922 H 0.26313 0.46605 0.62144 0.0
H923 H 0.3012 0.49788 0.47953 0.0
H924 H 0.27723 0.49376 0.4896 0.0
H925 H 0.28061 0.47438 0.47166 0.0
C926 C 0.22379 0.47043 0.57313 0.0
C927 C 0.21289 0.45526 0.54651 0.0
C928 C 0.24382 0.47883 0.57426 0.0
C929 C 0.25316 0.47179 0.54954 0.0
C930 C 0.24242 0.458 0.52012 0.0
H931 H 0.33761 0.44549 0.63717 0.0
H932 H 0.31011 0.44534 0.60506 0.0
C933 C 0.22238 0.44994 0.51828 0.0
C934 C 0.27256 0.47528 0.56089 0.0
H935 H 0.31677 0.48595 0.52458 0.0
C936 C 0.27494 0.47078 0.60031 0.0
C937 C 0.28799 0.48133 0.53342 0.0
C938 C 0.28669 0.4873 0.49131 0.0
C939 C 0.292 0.47162 0.61275 0.0
C940 C 0.30698 0.47656 0.58475 0.0
C941 C 0.30504 0.48178 0.54569 0.0
C942 C 0.32466 0.47633 0.59635 0.0
C943 C 0.29378 0.46706 0.65583 0.0
C944 C 0.34218 0.4937 0.60017 0.0
C945 C 0.35797 0.49385 0.61838 0.0
C946 C 0.35641 0.4766 0.63314 0.0
C947 C 0.33922 0.45905 0.62664 0.0
C948 C 0.3235 0.45893 0.60823 0.0
H949 H 0.2832 0.46829 0.67537 0.0
H950 H 0.29097 0.45199 0.65793 0.0
H951 H 0.30853 0.47688 0.66743 0.0
H952 H 0.34331 0.50726 0.5911 0.0
H953 H 0.37105 0.50761 0.62264 0.0
H954 H 0.10287 0.55383 0.81935 0.0
H955 H 0.11613 0.53221 0.81459 0.0
H956 H 0.1527 0.56631 0.71707 0.0
H957 H 0.13855 0.58722 0.72035 0.0
H958 H 0.12858 0.53168 0.69343 0.0
H959 H 0.16137 0.52479 0.83318 0.0
H960 H 0.13819 0.52237 0.84244 0.0
H961 H 0.1576 0.54495 0.82391 0.0
C962 C 0.11443 0.55723 0.79826 0.0
C963 C 0.11965 0.57202 0.77 0.0
C964 C 0.12208 0.54489 0.79561 0.0
C965 C 0.13538 0.54756 0.76534 0.0
C966 C 0.14239 0.56391 0.74054 0.0
H967 H 0.16941 0.46428 0.69098 0.0
H968 H 0.16909 0.49165 0.72287 0.0
C969 C 0.13438 0.5759 0.74248 0.0
C970 C 0.13831 0.53131 0.7534 0.0
H971 H 0.14859 0.49722 0.78816 0.0
C972 C 0.13331 0.52442 0.71409 0.0
C973 C 0.14437 0.52171 0.78026 0.0
C974 C 0.15087 0.52898 0.82217 0.0
C975 C 0.13373 0.50801 0.70113 0.0
C976 C 0.13871 0.49776 0.72855 0.0
C977 C 0.14437 0.50492 0.76751 0.0
C978 C 0.13832 0.47979 0.71638 0.0
C979 C 0.12882 0.50178 0.65806 0.0
C980 C 0.12097 0.46375 0.70369 0.0
C981 C 0.12109 0.44817 0.68501 0.0
C982 C 0.13857 0.44832 0.67912 0.0
C983 C 0.15571 0.46377 0.69471 0.0
C984 C 0.15558 0.4794 0.71314 0.0
H985 H 0.13023 0.51377 0.63884 0.0
H986 H 0.1383 0.49653 0.64586 0.0
H987 H 0.11365 0.48979 0.65623 0.0
H988 H 0.10746 0.46371 0.70652 0.0
H989 H 0.10761 0.4364 0.67385 0.0
H990 H 0.5347 0.70927 0.72396 0.0
H991 H 0.50926 0.68422 0.7653 0.0
H992 H 0.52185 0.64187 0.71545 0.0
H993 H 0.54758 0.66682 0.67515 0.0
H994 H 0.47757 0.65465 0.74003 0.0
H995 H 0.51492 0.62581 0.82962 0.0
H996 H 0.52791 0.64869 0.80384 0.0
H997 H 0.52173 0.62637 0.77845 0.0
C998 C 0.5323 0.69468 0.72242 0.0
C999 C 0.54315 0.69003 0.69616 0.0
C1000 C 0.51777 0.6804 0.74614 0.0
C1001 C 0.51383 0.66121 0.74409 0.0
C1002 C 0.52499 0.65666 0.71863 0.0
H1003 H 0.42187 0.55808 0.70613 0.0
H1004 H 0.44227 0.59255 0.71635 0.0
C1005 C 0.53961 0.67094 0.69522 0.0
C1006 C 0.49666 0.64541 0.76428 0.0
H1007 H 0.48169 0.60188 0.80897 0.0
C1008 C 0.47849 0.64337 0.75621 0.0
C1009 C 0.4977 0.63098 0.78678 0.0
C1010 C 0.51668 0.63324 0.80055 0.0
C1011 C 0.46143 0.62625 0.76572 0.0
C1012 C 0.46263 0.61064 0.78256 0.0
C1013 C 0.48067 0.61363 0.79516 0.0
C1014 C 0.44644 0.59043 0.77977 0.0
C1015 C 0.44235 0.62474 0.75568 0.0
C1016 C 0.44157 0.57759 0.81214 0.0
C1017 C 0.42997 0.55762 0.80616 0.0
C1018 C 0.42332 0.55028 0.76762 0.0
C1019 C 0.42687 0.56328 0.73614 0.0
C1020 C 0.4384 0.5831 0.74209 0.0
H1021 H 0.44297 0.63878 0.76109 0.0
H1022 H 0.43924 0.62133 0.72344 0.0
H1023 H 0.43033 0.61335 0.77353 0.0
H1024 H 0.4477 0.5829 0.84143 0.0
H1025 H 0.42751 0.54795 0.831 0.0
H1026 H 0.43997 0.8851 0.82536 0.0
H1027 H 0.40501 0.87068 0.82238 0.0
H1028 H 0.40253 0.8324 0.72846 0.0
H1029 H 0.4377 0.84778 0.7297 0.0
H1030 H 0.39062 0.8545 0.70218 0.0
H1031 H 0.35324 0.82582 0.8457 0.0
H1032 H 0.37366 0.84946 0.85292 0.0
H1033 H 0.37729 0.82999 0.83654 0.0
C1034 C 0.43185 0.87298 0.80544 0.0
C1035 C 0.44141 0.86764 0.77744 0.0
C1036 C 0.41179 0.86463 0.80388 0.0
C1037 C 0.40106 0.85047 0.77506 0.0
C1038 C 0.4105 0.84338 0.75079 0.0
H1039 H 0.28358 0.81934 0.70461 0.0
H1040 H 0.31042 0.81783 0.73582 0.0
C1041 C 0.43057 0.85211 0.75153 0.0
C1042 C 0.38161 0.84682 0.76354 0.0
H1043 H 0.33835 0.83877 0.80046 0.0
C1044 C 0.37908 0.85059 0.72365 0.0
C1045 C 0.36647 0.84178 0.79133 0.0
C1046 C 0.36776 0.83634 0.83389 0.0
C1047 C 0.36229 0.85032 0.7112 0.0
C1048 C 0.34781 0.84675 0.7396 0.0
C1049 C 0.34975 0.84197 0.77903 0.0
C1050 C 0.33081 0.84828 0.7282 0.0
C1051 C 0.36035 0.8542 0.66774 0.0
C1052 C 0.33327 0.86608 0.71515 0.0
C1053 C 0.31808 0.867 0.69693 0.0
C1054 C 0.3001 0.85014 0.69181 0.0
C1055 C 0.29728 0.83259 0.7078 0.0
C1056 C 0.31256 0.83167 0.72581 0.0
H1057 H 0.37012 0.85162 0.64833 0.0
H1058 H 0.34529 0.84494 0.65715 0.0
H1059 H 0.36423 0.86955 0.66418 0.0
H1060 H 0.34726 0.87909 0.71724 0.0
H1061 H 0.32067 0.88078 0.68543 0.0
H1062 H 0.14863 0.26653 0.9281 0.0
H1063 H 0.14866 0.28594 0.87164 0.0
H1064 H 0.17339 0.33677 0.94626 0.0
H1065 H 0.17368 0.3176 0.00284 0.0
H1066 H 0.13283 0.31011 0.85958 0.0
H1067 H 0.21312 0.35123 0.85571 0.0
H1068 H 0.19966 0.32935 0.88449 0.0
H1069 H 0.20248 0.3518 0.90263 0.0
C1070 C 0.15377 0.28177 0.93277 0.0
C1071 C 0.16141 0.29056 0.96986 0.0
C1072 C 0.15383 0.29284 0.90042 0.0
C1073 C 0.1615 0.31284 0.90465 0.0
C1074 C 0.16787 0.32143 0.94225 0.0
H1075 H 0.17857 0.40048 0.72892 0.0
H1076 H 0.17918 0.38396 0.79008 0.0
C1077 C 0.16788 0.3104 0.97459 0.0
C1078 C 0.16353 0.32476 0.86926 0.0
H1079 H 0.19693 0.36033 0.80903 0.0
C1080 C 0.14682 0.32111 0.84854 0.0
C1081 C 0.18186 0.33908 0.85504 0.0
C1082 C 0.20034 0.34305 0.87534 0.0
C1083 C 0.14793 0.33145 0.81386 0.0
C1084 C 0.16625 0.34556 0.79934 0.0
C1085 C 0.18295 0.34946 0.82037 0.0
C1086 C 0.16822 0.35605 0.76176 0.0
C1087 C 0.12949 0.32728 0.79311 0.0
C1088 C 0.16271 0.34596 0.72549 0.0
C1089 C 0.16239 0.3553 0.69057 0.0
C1090 C 0.16761 0.37495 0.69134 0.0
C1091 C 0.1744 0.38534 0.72731 0.0
C1092 C 0.17471 0.37593 0.7623 0.0
H1093 H 0.11672 0.31951 0.81295 0.0
H1094 H 0.1303 0.34087 0.78268 0.0
H1095 H 0.12728 0.31806 0.76657 0.0
H1096 H 0.15802 0.33067 0.72449 0.0
H1097 H 0.15727 0.3469 0.66334 0.0
H1098 H 0.67925 0.8497 -0.00067 0.0
H1099 H 0.66155 0.83187 0.94006 0.0
H1100 H 0.71195 0.86596 0.86734 0.0
H1101 H 0.72991 0.88379 0.92649 0.0
H1102 H 0.65557 0.85104 0.87607 0.0
H1103 H 0.69177 0.81069 0.82597 0.0
H1104 H 0.69438 0.82019 0.87601 0.0
H1105 H 0.70773 0.83597 0.83539 0.0
C1106 C 0.68675 0.85312 0.97092 0.0
C1107 C 0.70596 0.86829 0.96759 0.0
C1108 C 0.67658 0.84293 0.93709 0.0
C1109 C 0.68545 0.84763 0.89944 0.0
C1110 C 0.70494 0.86197 0.89627 0.0
H1111 H 0.64383 0.81047 0.65891 0.0
H1112 H 0.6624 0.82909 0.71675 0.0
C1113 C 0.71516 0.87216 0.93013 0.0
C1114 C 0.67377 0.83893 0.8632 0.0
H1115 H 0.66918 0.81153 0.78135 0.0
C1116 C 0.65846 0.84232 0.8554 0.0
C1117 C 0.67775 0.82775 0.83626 0.0
C1118 C 0.6937 0.82326 0.84386 0.0
C1119 C 0.64706 0.83491 0.82107 0.0
C1120 C 0.65094 0.8236 0.79427 0.0
C1121 C 0.66632 0.82031 0.80195 0.0
C1122 C 0.63886 0.81442 0.7587 0.0
C1123 C 0.63118 0.8395 0.81347 0.0
C1124 C 0.61932 0.80041 0.76305 0.0
C1125 C 0.6086 0.7898 0.73002 0.0
C1126 C 0.61736 0.79287 0.6922 0.0
C1127 C 0.63666 0.80768 0.68764 0.0
C1128 C 0.64733 0.81831 0.72065 0.0
H1129 H 0.63358 0.85252 0.83028 0.0
H1130 H 0.63002 0.8419 0.78114 0.0
H1131 H 0.61721 0.82713 0.82344 0.0
H1132 H 0.61261 0.797 0.79231 0.0
H1133 H 0.5938 0.77846 0.73463 0.0
H1134 H 0.21306 0.81943 0.74183 0.0
H1135 H 0.19579 0.82151 0.8003 0.0
H1136 H 0.16514 0.84114 0.72541 0.0
H1137 H 0.18208 0.83894 0.66682 0.0
H1138 H 0.1985 0.85713 0.8241 0.0
H1139 H 0.12262 0.79972 0.79678 0.0
H1140 H 0.14287 0.80011 0.77192 0.0
H1141 H 0.13412 0.81574 0.75532 0.0
C1142 C 0.20229 0.82372 0.73762 0.0
C1143 C 0.19901 0.82911 0.69968 0.0
C1144 C 0.19253 0.82499 0.77107 0.0
C1145 C 0.17922 0.83144 0.76702 0.0
C1146 C 0.1752 0.8359 0.72901 0.0
H1147 H 0.1104 0.85405 0.93494 0.0
H1148 H 0.12919 0.85568 0.8759 0.0
C1149 C 0.18496 0.83468 0.69559 0.0
C1150 C 0.1707 0.83507 0.80277 0.0
H1151 H 0.12791 0.82189 0.84904 0.0
C1152 C 0.18307 0.84939 0.82974 0.0
C1153 C 0.15059 0.82507 0.8096 0.0
C1154 C 0.13675 0.80918 0.78209 0.0
C1155 C 0.17581 0.85406 0.86346 0.0
C1156 C 0.1557 0.84395 0.87045 0.0
C1157 C 0.14333 0.82973 0.8433 0.0
C1158 C 0.14715 0.84679 0.90711 0.0
C1159 C 0.18964 0.86989 0.89103 0.0
C1160 C 0.15155 0.84192 0.94433 0.0
C1161 C 0.1409 0.84101 0.97809 0.0
C1162 C 0.12553 0.84477 0.97508 0.0
C1163 C 0.12211 0.85103 0.93829 0.0
C1164 C 0.13277 0.85191 0.90449 0.0
H1165 H 0.20344 0.87984 0.87571 0.0
H1166 H 0.18323 0.87844 0.90279 0.0
H1167 H 0.193 0.8633 0.91677 0.0
H1168 H 0.1624 0.83765 0.94684 0.0
H1169 H 0.14397 0.83621 0.006 0.0
H1170 H 0.82535 0.68245 0.99411 0.0
H1171 H 0.82585 0.66518 0.05384 0.0
H1172 H 0.84714 0.71744 0.12316 0.0
H1173 H 0.84654 0.73492 0.06362 0.0
H1174 H 0.85532 0.67173 0.11135 0.0
H1175 H 0.79464 0.6783 0.17563 0.0
H1176 H 0.80145 0.68304 0.12363 0.0
H1177 H 0.81559 0.70059 0.16103 0.0
C1178 C 0.83047 0.69041 0.02187 0.0
C1179 C 0.83564 0.71001 0.02422 0.0
C1180 C 0.83074 0.68049 0.05595 0.0
C1181 C 0.83611 0.68997 0.0929 0.0
C1182 C 0.8426 0.70984 0.09491 0.0
H1183 H 0.83441 0.6486 0.33237 0.0
H1184 H 0.83579 0.66752 0.27384 0.0
C1185 C 0.84238 0.71981 0.0608 0.0
C1186 C 0.83372 0.67872 0.12957 0.0
H1187 H 0.80706 0.66255 0.21519 0.0
C1188 C 0.8448 0.66971 0.13411 0.0
C1189 C 0.81988 0.6761 0.15896 0.0
C1190 C 0.80706 0.68487 0.15463 0.0
C1191 C 0.84256 0.65826 0.16768 0.0
C1192 C 0.82862 0.65553 0.19689 0.0
C1193 C 0.81764 0.66465 0.19252 0.0
C1194 C 0.82557 0.64352 0.23265 0.0
C1195 C 0.85531 0.64942 0.17197 0.0
C1196 C 0.81853 0.6236 0.22893 0.0
C1197 C 0.81763 0.61269 0.26233 0.0
C1198 C 0.8238 0.62158 0.29991 0.0
C1199 C 0.82966 0.64132 0.30383 0.0
C1200 C 0.8305 0.65218 0.27045 0.0
H1201 H 0.86796 0.65626 0.15156 0.0
H1202 H 0.86058 0.65083 0.20318 0.0
H1203 H 0.84684 0.63379 0.16466 0.0
H1204 H 0.81431 0.61664 0.19998 0.0
H1205 H 0.81297 0.59752 0.25826 0.0
H1206 H 0.25885 0.11081 0.07113 0.0
H1207 H 0.27808 0.12759 0.12989 0.0
H1208 H 0.32611 0.16464 0.0539 0.0
H1209 H 0.30713 0.14787 0.99502 0.0
H1210 H 0.33453 0.14427 0.11071 0.0
H1211 H 0.29852 0.18115 0.18046 0.0
H1212 H 0.28266 0.15609 0.1688 0.0
H1213 H 0.29448 0.17316 0.12906 0.0
C1214 C 0.27329 0.12292 0.06681 0.0
C1215 C 0.28153 0.12787 0.02842 0.0
C1216 C 0.28426 0.1325 0.10046 0.0
C1217 C 0.30351 0.14731 0.09615 0.0
C1218 C 0.31129 0.15319 0.05777 0.0
H1219 H 0.39854 0.21376 0.25583 0.0
H1220 H 0.37892 0.19623 0.1981 0.0
C1221 C 0.30039 0.14361 0.02417 0.0
C1222 C 0.31619 0.15511 0.13143 0.0
H1223 H 0.32253 0.17943 0.21893 0.0
C1224 C 0.33199 0.15205 0.13432 0.0
C1225 C 0.31269 0.16507 0.16221 0.0
C1226 C 0.29627 0.16924 0.15997 0.0
C1227 C 0.34434 0.15858 0.16747 0.0
C1228 C 0.34088 0.16861 0.19817 0.0
C1229 C 0.32504 0.1716 0.19536 0.0
C1230 C 0.35382 0.17678 0.23299 0.0
C1231 C 0.36077 0.15444 0.16967 0.0
C1232 C 0.34636 0.17128 0.27171 0.0
C1233 C 0.3575 0.18129 0.30475 0.0
C1234 C 0.37626 0.19709 0.29958 0.0
C1235 C 0.38419 0.20163 0.26088 0.0
C1236 C 0.37299 0.19162 0.22781 0.0
H1237 H 0.35838 0.14233 0.14963 0.0
H1238 H 0.37432 0.16749 0.16019 0.0
H1239 H 0.36278 0.15082 0.20069 0.0
H1240 H 0.3316 0.15981 0.27624 0.0
H1241 H 0.35099 0.17734 0.33416 0.0
H1242 H 0.77398 0.1824 0.2645 0.0
H1243 H 0.79244 0.1846 0.2044 0.0
H1244 H 0.82489 0.16425 0.27113 0.0
H1245 H 0.80679 0.1622 0.33137 0.0
H1246 H 0.84709 0.19477 0.21597 0.0
H1247 H 0.7813 0.13377 0.14782 0.0
H1248 H 0.77922 0.15415 0.16377 0.0
H1249 H 0.78276 0.13971 0.20024 0.0
C1250 C 0.78529 0.17874 0.2666 0.0
C1251 C 0.78872 0.17185 0.30258 0.0
C1252 C 0.79571 0.17989 0.23219 0.0
C1253 C 0.80965 0.17416 0.23334 0.0
C1254 C 0.81403 0.16856 0.26972 0.0
H1255 H 0.88182 0.15497 0.07022 0.0
H1256 H 0.86333 0.15579 0.12766 0.0
C1257 C 0.80365 0.1674 0.30408 0.0
C1258 C 0.81893 0.17281 0.19638 0.0
H1259 H 0.80988 0.14725 0.10955 0.0
C1260 C 0.83899 0.18445 0.1926 0.0
C1261 C 0.80823 0.15922 0.16619 0.0
C1262 C 0.7867 0.14586 0.16963 0.0
C1263 C 0.8487 0.18292 0.15917 0.0
C1264 C 0.83803 0.16914 0.12931 0.0
C1265 C 0.81794 0.1577 0.13275 0.0
C1266 C 0.84756 0.16656 0.09406 0.0
C1267 C 0.87024 0.19616 0.15586 0.0
C1268 C 0.844 0.17139 0.05603 0.0
C1269 C 0.85442 0.17084 0.02312 0.0
C1270 C 0.86853 0.16538 0.0278 0.0
C1271 C 0.87116 0.15936 0.06563 0.0
C1272 C 0.86073 0.15995 0.09852 0.0
H1273 H 0.87551 0.20875 0.17636 0.0
H1274 H 0.87765 0.188 0.16381 0.0
H1275 H 0.87441 0.20157 0.12479 0.0
H1276 H 0.83371 0.17634 0.0521 0.0
H1277 H 0.85194 0.17544 0.99436 0.0
H1278 H 0.47426 0.92233 0.59475 0.0
H1279 H 0.47355 0.93891 0.53377 0.0
H1280 H 0.49247 0.99151 0.60066 0.0
H1281 H 0.49332 0.97522 0.66164 0.0
H1282 H 0.45525 0.96216 0.51366 0.0
H1283 H 0.53546 0.00391 0.51494 0.0
H1284 H 0.52166 0.98221 0.54415 0.0
H1285 H 0.52405 0.00472 0.56064 0.0
C1286 C 0.47785 0.9373 0.5967 0.0
C1287 C 0.48414 0.94753 0.63295 0.0
C1288 C 0.47749 0.94675 0.56181 0.0
C1289 C 0.4834 0.96649 0.56277 0.0
C1290 C 0.48823 0.97634 0.59935 0.0
H1291 H 0.50439 0.05689 0.3978 0.0
H1292 H 0.50373 0.03714 0.45418 0.0
C1293 C 0.48861 0.96696 0.63417 0.0
C1294 C 0.48577 0.9772 0.52532 0.0
H1295 H 0.5198 0.01327 0.46717 0.0
C1296 C 0.46933 0.97323 0.50321 0.0
C1297 C 0.50422 0.99155 0.51194 0.0
C1298 C 0.52241 0.9958 0.53389 0.0
C1299 C 0.4708 0.9838 0.46858 0.0
C1300 C 0.48926 -0.00163 0.45553 0.0
C1301 C 0.50571 0.00208 0.47732 0.0
C1302 C 0.49167 0.01053 0.4203 0.0
C1303 C 0.45257 0.97973 0.44707 0.0
C1304 C 0.48595 0.00222 0.38228 0.0
C1305 C 0.4863 0.01345 0.34997 0.0
C1306 C 0.49248 0.0332 0.35517 0.0
C1307 C 0.49947 0.04172 0.39277 0.0
C1308 C 0.49906 0.03046 0.42506 0.0
H1309 H 0.43952 0.97126 0.46584 0.0
H1310 H 0.45319 0.99341 0.43798 0.0
H1311 H 0.45097 0.97123 0.41965 0.0
H1312 H 0.48066 0.98694 0.37787 0.0
H1313 H 0.48098 0.00645 0.32134 0.0
H1314 H 0.00934 0.51621 0.6699 0.0
H1315 H 0.99091 0.49768 0.61186 0.0
H1316 H 0.04105 0.52947 0.53704 0.0
H1317 H 0.05972 0.54794 0.59494 0.0
H1318 H 0.98468 0.51559 0.54694 0.0
H1319 H 0.01963 0.4738 0.49914 0.0
H1320 H 0.02307 0.48438 0.5483 0.0
H1321 H 0.03615 0.49914 0.50622 0.0
C1322 C 0.01662 0.51896 0.6413 0.0
C1323 C 0.03598 0.53367 0.637 0.0
C1324 C 0.00603 0.50838 0.60818 0.0
C1325 C 0.01463 0.51222 0.57027 0.0
C1326 C 0.03423 0.5261 0.56619 0.0
H1327 H 0.97421 0.47652 0.3296 0.0
H1328 H 0.99207 0.49442 0.38867 0.0
C1329 C 0.04487 0.53667 0.59934 0.0
C1330 C 0.00264 0.50314 0.53454 0.0
H1331 H -0.00224 0.47536 0.45319 0.0
C1332 C 0.98743 0.50666 0.52654 0.0
C1333 C 0.00638 0.49165 0.508 0.0
C1334 C 0.02208 0.48684 0.51594 0.0
C1335 C 0.97602 0.49924 0.4922 0.0
C1336 C 0.97983 0.48783 0.46556 0.0
C1337 C -0.00501 0.48425 0.47364 0.0
C1338 C 0.96811 0.47909 0.42938 0.0
C1339 C 0.96027 0.50398 0.48426 0.0
C1340 C 0.94855 0.46495 0.43266 0.0
C1341 C 0.93824 0.45472 0.39891 0.0
C1342 C 0.94741 0.45834 0.36145 0.0
C1343 C 0.96672 0.4733 0.35801 0.0
C1344 C 0.97698 0.48352 0.39172 0.0
H1345 H 0.96238 0.51669 0.50187 0.0
H1346 H 0.95965 0.50695 0.45203 0.0
H1347 H 0.94615 0.49143 0.49286 0.0
H1348 H 0.94154 0.46115 0.4616 0.0
H1349 H 0.92342 0.44325 0.40264 0.0
H1350 H 0.47873 0.49825 0.65801 0.0
H1351 H 0.49567 0.49715 0.59829 0.0
H1352 H 0.46115 0.51291 0.52567 0.0
H1353 H 0.44417 0.51422 0.58524 0.0
H1354 H 0.47454 0.47058 0.53692 0.0
H1355 H 0.51601 0.54595 0.47983 0.0
H1356 H 0.50758 0.54037 0.53085 0.0
H1357 H 0.49114 0.53768 0.49152 0.0
C1358 C 0.47506 0.50201 0.62951 0.0
C1359 C 0.45993 0.50611 0.62632 0.0
C1360 C 0.48474 0.50132 0.59544 0.0
C1361 C 0.47958 0.50489 0.55772 0.0
C1362 C 0.46546 0.51033 0.55465 0.0
H1363 H 0.51266 0.49526 0.31697 0.0
H1364 H 0.49427 0.4956 0.37488 0.0
C1365 C 0.45576 0.51105 0.58875 0.0
C1366 C 0.48736 0.50073 0.52147 0.0
H1367 H 0.51356 0.52115 0.43708 0.0
C1368 C 0.48316 0.48163 0.5151 0.0
C1369 C 0.49839 0.51517 0.4931 0.0
C1370 C 0.50372 0.53599 0.49917 0.0
C1371 C 0.48962 0.47652 0.48077 0.0
C1372 C 0.50076 0.49098 0.4525 0.0
C1373 C 0.50487 0.51007 0.45878 0.0
C1374 C 0.50911 0.48699 0.41692 0.0
C1375 C 0.48426 0.45569 0.47477 0.0
C1376 C 0.52298 0.48127 0.42131 0.0
C1377 C 0.53347 0.48096 0.38824 0.0
C1378 C 0.5304 0.48663 0.35042 0.0
C1379 C 0.51548 0.49095 0.34573 0.0
C1380 C 0.50498 0.4912 0.37877 0.0
H1381 H 0.47147 0.44572 0.49295 0.0
H1382 H 0.48116 0.45147 0.44284 0.0
H1383 H 0.49652 0.4538 0.48418 0.0
H1384 H 0.52654 0.47823 0.45064 0.0
H1385 H 0.54487 0.4776 0.3929 0.0
H1386 H 0.20116 0.22676 0.21096 0.0
H1387 H 0.22358 0.22515 0.25851 0.0
H1388 H 0.26568 0.24026 0.16456 0.0
H1389 H 0.24342 0.24165 0.1168 0.0
H1390 H 0.26306 0.21129 0.21666 0.0
H1391 H 0.27092 0.27577 0.29769 0.0
H1392 H 0.24676 0.25566 0.29315 0.0
H1393 H 0.25962 0.26864 0.24923 0.0
C1394 C 0.21506 0.22941 0.20026 0.0
C1395 C 0.2206 0.23458 0.16017 0.0
C1396 C 0.22788 0.22861 0.22753 0.0
C1397 C 0.24638 0.23298 0.21511 0.0
C1398 C 0.25149 0.23698 0.17472 0.0
H1399 H 0.35623 0.27668 0.32688 0.0
H1400 H 0.3271 0.27156 0.2923 0.0
C1401 C 0.23874 0.23779 0.14749 0.0
C1402 C 0.26098 0.23454 0.2442 0.0
H1403 H 0.28974 0.26259 0.32037 0.0
C1404 C 0.26877 0.22234 0.23967 0.0
C1405 C 0.26853 0.2492 0.2737 0.0
C1406 C 0.26119 0.2632 0.27873 0.0
C1407 C 0.28418 0.2246 0.26348 0.0
C1408 C 0.29175 0.23929 0.29293 0.0
C1409 C 0.28376 0.25129 0.29791 0.0
C1410 C 0.3087 0.24309 0.31719 0.0
C1411 C 0.29274 0.21179 0.25587 0.0
C1412 C 0.30775 0.22905 0.34366 0.0
C1413 C 0.32432 0.2319 0.3634 0.0
C1414 C 0.34214 0.24891 0.35713 0.0
C1415 C 0.34278 0.26342 0.33228 0.0
C1416 C 0.32616 0.26051 0.31248 0.0
H1417 H 0.28787 0.20399 0.22692 0.0
H1418 H 0.30876 0.22039 0.25585 0.0
H1419 H 0.28821 0.20085 0.28005 0.0
H1420 H 0.29429 0.21568 0.34824 0.0
H1421 H 0.32326 0.2205 0.38265 0.0
H1422 H 0.70825 0.07201 0.33511 0.0
H1423 H 0.71185 0.04641 0.30303 0.0
H1424 H 0.76557 0.06563 0.36544 0.0
H1425 H 0.76226 0.09131 0.39714 0.0
H1426 H 0.76898 0.06351 0.28445 0.0
H1427 H 0.7071 0.99559 0.34187 0.0
H1428 H 0.70035 0.01226 0.32196 0.0
H1429 H 0.71536 0.01873 0.36571 0.0
C1430 C 0.72061 0.07052 0.34265 0.0
C1431 C 0.73503 0.08379 0.36842 0.0
C1432 C 0.72261 0.05584 0.32442 0.0
C1433 C 0.73893 0.05407 0.33208 0.0
C1434 C 0.75287 0.06675 0.35916 0.0
H1435 H 0.75444 0.96203 0.22674 0.0
H1436 H 0.75435 0.98509 0.27513 0.0
C1437 C 0.75094 0.08143 0.37721 0.0
C1438 C 0.74252 0.04039 0.30887 0.0
H1439 H 0.72326 0.99281 0.28412 0.0
C1440 C 0.7591 0.04802 0.28474 0.0
C1441 C 0.72974 0.0202 0.30966 0.0
C1442 C 0.71223 0.01115 0.33648 0.0
C1443 C 0.76287 0.03606 0.26021 0.0
C1444 C 0.74958 0.016 0.25944 0.0
C1445 C 0.73338 0.00824 0.2847 0.0
C1446 C 0.75144 0.00305 0.23045 0.0
C1447 C 0.78094 0.04503 0.23499 0.0
C1448 C 0.75006 0.0057 0.18944 0.0
C1449 C 0.7501 0.99264 0.16185 0.0
C1450 C 0.75146 0.9766 0.17475 0.0
C1451 C 0.7535 0.97431 0.21583 0.0
C1452 C 0.75335 0.98738 0.24352 0.0
H1453 H 0.79211 0.05916 0.24733 0.0
H1454 H 0.7871 0.0353 0.23275 0.0
H1455 H 0.77735 0.04758 0.20438 0.0
H1456 H 0.74829 0.01755 0.17882 0.0
H1457 H 0.74849 0.99483 0.13045 0.0
H1458 H 0.90109 0.66875 0.39439 0.0
H1459 H 0.9259 0.69712 0.35929 0.0
H1460 H 0.94297 0.66125 0.29503 0.0
H1461 H 0.91814 0.63262 0.33008 0.0
H1462 H 0.97445 0.69925 0.32346 0.0
H1463 H 0.91668 0.70267 0.23748 0.0
H1464 H 0.91421 0.70179 0.29099 0.0
H1465 H 0.91247 0.68138 0.26469 0.0
C1466 C 0.9103 0.66687 0.37327 0.0
C1467 C 0.90745 0.64836 0.3646 0.0
C1468 C 0.92443 0.68311 0.35322 0.0
C1469 C 0.93594 0.68115 0.32417 0.0
C1470 C 0.93408 0.66296 0.31728 0.0
H1471 H -0.0021 0.75089 0.1235 0.0
H1472 H 0.97521 0.7266 0.16997 0.0
C1473 C 0.91992 0.64664 0.33736 0.0
C1474 C 0.94891 0.69782 0.29897 0.0
H1475 H 0.94872 0.72741 0.2256 0.0
C1476 C 0.9689 0.70551 0.30218 0.0
C1477 C 0.94148 0.70571 0.27102 0.0
C1478 C 0.92004 0.69743 0.26543 0.0
C1479 C 0.98174 0.72103 0.27802 0.0
C1480 C 0.97431 0.72906 0.25038 0.0
C1481 C 0.95431 0.72133 0.24721 0.0
C1482 C 0.98702 0.74457 0.22243 0.0
C1483 C 0.00311 0.72833 0.28139 0.0
C1484 C 0.0007 0.76295 0.23649 0.0
C1485 C 0.0137 0.77694 0.20997 0.0
C1486 C 0.0132 0.77272 0.16899 0.0
C1487 C -0.00121 0.75459 0.15488 0.0
C1488 C 0.9858 0.74067 0.18137 0.0
H1489 H 0.00615 0.71823 0.29851 0.0
H1490 H 0.00975 0.73052 0.25128 0.0
H1491 H 0.01016 0.74248 0.29703 0.0
H1492 H 0.0016 0.7663 0.26807 0.0
H1493 H 0.02458 0.79077 0.22182 0.0
H1494 H 0.79042 0.76049 0.76892 0.0
H1495 H 0.76749 0.76076 0.72082 0.0
H1496 H 0.72823 0.75276 0.817 0.0
H1497 H 0.75098 0.75259 0.8652 0.0
H1498 H 0.72945 0.7292 0.71058 0.0
H1499 H 0.72927 0.79654 0.75023 0.0
H1500 H 0.74848 0.79213 0.76479 0.0
H1501 H 0.72624 0.78145 0.79255 0.0
C1502 C 0.77709 0.75921 0.77992 0.0
C1503 C 0.7725 0.75647 0.8209 0.0
C1504 C 0.76399 0.75929 0.75239 0.0
C1505 C 0.74627 0.75691 0.76546 0.0
C1506 C 0.74198 0.75491 0.80641 0.0
H1507 H 0.63436 0.71129 0.66185 0.0
H1508 H 0.664 0.71592 0.69327 0.0
C1509 C 0.75497 0.75472 0.83389 0.0
C1510 C 0.73149 0.7549 0.73638 0.0
H1511 H 0.70237 0.77315 0.71205 0.0
C1512 C 0.72369 0.73895 0.7104 0.0
C1513 C 0.72415 0.76772 0.73613 0.0
C1514 C 0.73258 0.78553 0.76215 0.0
C1515 C 0.70812 0.73504 0.68528 0.0
C1516 C 0.70011 0.74729 0.68662 0.0
C1517 C 0.70845 0.76368 0.71137 0.0
C1518 C 0.68267 0.74314 0.66369 0.0
C1519 C 0.70027 0.71777 0.6578 0.0
C1520 C 0.68341 0.75682 0.63645 0.0
C1521 C 0.66655 0.75427 0.61864 0.0
C1522 C 0.64856 0.73803 0.62796 0.0
C1523 C 0.64797 0.7239 0.65391 0.0
C1524 C 0.6649 0.72649 0.67179 0.0
H1525 H 0.71104 0.71311 0.65231 0.0
H1526 H 0.68737 0.70551 0.67178 0.0
H1527 H 0.69586 0.721 0.62865 0.0
H1528 H 0.697 0.76977 0.62989 0.0
H1529 H 0.66757 0.7654 0.59861 0.0
H1530 H 0.28133 0.92268 0.66611 0.0
H1531 H 0.27792 0.9481 0.69961 0.0
H1532 H 0.22588 0.93177 0.63298 0.0
H1533 H 0.22903 0.90632 0.59953 0.0
H1534 H 0.27285 0.98003 0.67062 0.0
H1535 H 0.20944 0.92302 0.75321 0.0
H1536 H 0.22625 0.91814 0.72687 0.0
H1537 H 0.20842 0.92086 0.69965 0.0
C1538 C 0.26938 0.92473 0.65799 0.0
C1539 C 0.2553 0.91228 0.63061 0.0
C1540 C 0.26745 0.93925 0.67717 0.0
C1541 C 0.25146 0.94149 0.66921 0.0
C1542 C 0.23814 0.93 0.63993 0.0
H1543 H 0.23312 0.03208 0.77274 0.0
H1544 H 0.23431 0.00927 0.72534 0.0
C1545 C 0.24001 0.9155 0.62083 0.0
C1546 C 0.24788 0.95477 0.69372 0.0
H1547 H 0.21775 0.95535 0.76535 0.0
C1548 C 0.26076 0.97471 0.69116 0.0
C1549 C 0.23216 0.94764 0.72071 0.0
C1550 C 0.21832 0.92625 0.72568 0.0
C1551 C 0.25838 0.9878 0.71517 0.0
C1552 C 0.24261 0.98066 0.74202 0.0
C1553 C 0.22968 0.96072 0.74435 0.0
C1554 C 0.24023 0.99351 0.7704 0.0
C1555 C 0.27308 0.00907 0.71267 0.0
C1556 C 0.2424 0.99163 0.81143 0.0
C1557 C 0.24165 0.00451 0.83851 0.0
C1558 C 0.23861 0.01947 0.82508 0.0
C1559 C 0.23551 0.02074 0.78406 0.0
C1560 C 0.23634 0.00784 0.7569 0.0
H1561 H 0.28615 0.01178 0.6957 0.0
H1562 H 0.26656 0.01675 0.69736 0.0
H1563 H 0.27753 0.01535 0.74306 0.0
H1564 H 0.24528 0.98055 0.82238 0.0
H1565 H 0.24398 0.00303 0.8699 0.0
H1566 H 0.96232 0.2014 0.77279 0.0
H1567 H 0.98482 0.22327 0.7222 0.0
H1568 H 0.01709 0.26496 0.81401 0.0
H1569 H -0.00518 0.24331 0.86465 0.0
H1570 H 0.99125 0.26169 0.70883 0.0
H1571 H 0.05875 0.26165 0.74651 0.0
H1572 H 0.03522 0.24271 0.76242 0.0
H1573 H 0.04713 0.26534 0.78884 0.0
C1574 C 0.97445 0.21505 0.78231 0.0
C1575 C 0.97677 0.22065 0.82273 0.0
C1576 C 0.98721 0.22753 0.75336 0.0
C1577 C 0.00262 0.24563 0.7645 0.0
C1578 C 0.00541 0.25093 0.80493 0.0
H1579 H 0.0687 0.35564 0.65308 0.0
H1580 H 0.04345 0.32645 0.6856 0.0
C1581 C 0.99262 0.23856 0.8338 0.0
C1582 C 0.01501 0.25971 0.73392 0.0
H1583 H 0.06204 0.28786 0.7062 0.0
C1584 C 0.0067 0.26724 0.70773 0.0
C1585 C 0.03509 0.26677 0.73249 0.0
C1586 C 0.04459 0.25859 0.75881 0.0
C1587 C 0.01814 0.28231 0.68125 0.0
C1588 C 0.03836 0.29009 0.6814 0.0
C1589 C 0.04653 0.28196 0.70636 0.0
C1590 C 0.05153 0.30715 0.65722 0.0
C1591 C 0.00855 0.28991 0.65366 0.0
C1592 C 0.06426 0.30591 0.63021 0.0
C1593 C 0.07875 0.32253 0.61185 0.0
C1594 C 0.08085 0.34075 0.62034 0.0
C1595 C 0.06743 0.34183 0.6458 0.0
C1596 C 0.05294 0.32515 0.66428 0.0
H1597 H 0.99306 0.2791 0.64904 0.0
H1598 H 0.0094 0.30302 0.66709 0.0
H1599 H 0.01588 0.29394 0.62414 0.0
H1600 H 0.06341 0.29214 0.62442 0.0
H1601 H 0.08875 0.32115 0.59215 0.0
H1602 H 0.8629 0.56524 0.5545 0.0
H1603 H 0.88598 0.56574 0.60333 0.0
H1604 H 0.92623 0.57522 0.50827 0.0
H1605 H 0.90333 0.57452 0.45938 0.0
H1606 H 0.92358 0.54848 0.56652 0.0
H1607 H 0.93498 0.61737 0.63297 0.0
H1608 H 0.91049 0.59764 0.63169 0.0
H1609 H 0.92288 0.60829 0.58575 0.0
C1610 C 0.87652 0.56709 0.54393 0.0
C1611 C 0.88136 0.57004 0.50308 0.0
C1612 C 0.88973 0.56753 0.57189 0.0
C1613 C 0.90791 0.57091 0.55938 0.0
C1614 C 0.91231 0.57274 0.5185 0.0
H1615 H 0.01952 0.61539 0.66461 0.0
H1616 H 0.99021 0.61057 0.63117 0.0
C1617 C 0.89919 0.57235 0.49061 0.0
C1618 C 0.92286 0.57343 0.58857 0.0
H1619 H 0.95351 0.6045 0.65916 0.0
C1620 C 0.92999 0.56058 0.58713 0.0
C1621 C 0.93135 0.58944 0.61487 0.0
C1622 C 0.9247 0.6041 0.6164 0.0
C1623 C 0.94563 0.56347 0.61091 0.0
C1624 C 0.95411 0.57947 0.63725 0.0
C1625 C 0.94683 0.59218 0.63912 0.0
C1626 C 0.97122 0.58369 0.66148 0.0
C1627 C 0.95343 0.5498 0.60652 0.0
C1628 C 0.97003 0.57058 0.69071 0.0
C1629 C 0.98669 0.57325 0.70974 0.0
C1630 C 0.00484 0.58916 0.70002 0.0
C1631 C 0.00579 0.60298 0.67269 0.0
C1632 C 0.98907 0.60024 0.65353 0.0
H1633 H 0.94794 0.54079 0.57912 0.0
H1634 H 0.96945 0.5579 0.60547 0.0
H1635 H 0.94892 0.53996 0.63271 0.0
H1636 H 0.9563 0.55792 0.69777 0.0
H1637 H 0.98541 0.56245 0.73103 0.0
H1638 H 0.42928 0.29952 0.54517 0.0
H1639 H 0.42953 0.32378 0.59044 0.0
H1640 H 0.41397 0.34845 0.49265 0.0
H1641 H 0.41389 0.32454 0.44719 0.0
H1642 H 0.44265 0.37606 0.54343 0.0
H1643 H 0.37862 0.32071 0.62722 0.0
H1644 H 0.39875 0.31664 0.62409 0.0
H1645 H 0.38581 0.31573 0.57956 0.0
C1646 C 0.42619 0.31028 0.53317 0.0
C1647 C 0.42138 0.30996 0.49262 0.0
C1648 C 0.4262 0.32402 0.55914 0.0
C1649 C 0.4214 0.33763 0.54496 0.0
C1650 C 0.41758 0.33797 0.50419 0.0
H1651 H 0.37949 0.40674 0.65599 0.0
H1652 H 0.38351 0.38209 0.62071 0.0
C1653 C 0.41752 0.32426 0.47827 0.0
C1654 C 0.41962 0.35114 0.5725 0.0
H1655 H 0.39208 0.35309 0.64849 0.0
C1656 C 0.43172 0.37107 0.56664 0.0
C1657 C 0.4051 0.34451 0.60225 0.0
C1658 C 0.39119 0.32325 0.60863 0.0
C1659 C 0.42964 0.3846 0.58964 0.0
C1660 C 0.41524 0.37797 0.61964 0.0
C1661 C 0.40319 0.35806 0.62565 0.0
C1662 C 0.41209 0.39159 0.64405 0.0
C1663 C 0.44246 0.40587 0.58085 0.0
C1664 C 0.42656 0.40459 0.66984 0.0
C1665 C 0.42434 0.41866 0.68999 0.0
C1666 C 0.40753 0.41993 0.68483 0.0
C1667 C 0.39262 0.4062 0.66055 0.0
C1668 C 0.39489 0.39213 0.64035 0.0
H1669 H 0.44979 0.40836 0.55143 0.0
H1670 H 0.434 0.41345 0.58112 0.0
H1671 H 0.45373 0.41245 0.60428 0.0
H1672 H 0.43979 0.40415 0.67363 0.0
H1673 H 0.43605 0.42886 0.70874 0.0
H1674 H 0.70197 0.12033 0.56463 0.0
H1675 H 0.68068 0.09522 0.61186 0.0
H1676 H 0.63993 0.06554 0.51692 0.0
H1677 H 0.66149 0.0901 0.46936 0.0
H1678 H 0.64497 0.08084 0.63856 0.0
H1679 H 0.64973 0.0237 0.55505 0.0
H1680 H 0.66486 0.04902 0.54359 0.0
H1681 H 0.64074 0.0356 0.52363 0.0
C1682 C 0.68833 0.10859 0.554 0.0
C1683 C 0.68346 0.10701 0.51327 0.0
C1684 C 0.67623 0.09421 0.58096 0.0
C1685 C 0.65904 0.07817 0.56761 0.0
C1686 C 0.65349 0.0774 0.52755 0.0
H1687 H 0.55829 -0.00139 0.69214 0.0
H1688 H 0.58568 0.0266 0.66241 0.0
C1689 C 0.6657 0.09154 0.5005 0.0
C1690 C 0.64703 0.06201 0.59513 0.0
H1691 H 0.62357 0.01282 0.60207 0.0
C1692 C 0.64048 0.06598 0.63087 0.0
C1693 C 0.64173 0.04266 0.58588 0.0
C1694 C 0.64984 0.03752 0.55018 0.0
C1695 C 0.62781 0.05101 0.65635 0.0
C1696 C 0.62102 0.03156 0.64501 0.0
C1697 C 0.6285 0.02769 0.61052 0.0
C1698 C 0.60502 0.01503 0.66636 0.0
C1699 C 0.62186 0.05627 0.69504 0.0
C1700 C 0.60649 -0.00117 0.67748 0.0
C1701 C 0.59056 0.98245 0.69368 0.0
C1702 C 0.57297 0.98209 0.69925 0.0
C1703 C 0.5717 -0.00152 0.68878 0.0
C1704 C 0.58746 0.01464 0.67208 0.0
H1705 H 0.6335 0.07037 0.70653 0.0
H1706 H 0.60898 0.05777 0.68968 0.0
H1707 H 0.61829 0.04509 0.71839 0.0
H1708 H 0.61985 -0.00127 0.67298 0.0
H1709 H 0.59197 0.97004 0.70145 0.0
H1710 H 0.33413 0.10471 0.93807 0.0
H1711 H 0.36328 0.10903 0.97059 0.0
H1712 H 0.33049 0.05306 0.02625 0.0
H1713 H 0.30112 0.04847 0.99362 0.0
H1714 H 0.36705 0.10967 0.05352 0.0
H1715 H 0.37918 0.05335 0.98495 0.0
H1716 H 0.364 0.06151 0.96228 0.0
H1717 H 0.35498 0.0444 0.00274 0.0
C1718 C 0.33311 0.09313 0.95666 0.0
C1719 C 0.31524 0.07627 0.96347 0.0
C1720 C 0.34982 0.09566 0.97519 0.0
C1721 C 0.34903 0.08134 0.00058 0.0
C1722 C 0.33142 0.06415 0.0062 0.0
H1723 H 0.41298 0.08448 0.20427 0.0
H1724 H 0.39146 0.08659 0.15561 0.0
C1725 C 0.31465 0.06159 0.98765 0.0
C1726 C 0.36618 0.0852 0.02421 0.0
H1727 H 0.39602 0.06745 0.04592 0.0
C1728 C 0.37357 0.10061 0.05151 0.0
C1729 C 0.37476 0.0735 0.02112 0.0
C1730 C 0.36796 0.05737 0.99092 0.0
C1731 C 0.38882 0.1041 0.07716 0.0
C1732 C 0.39667 0.09172 0.07564 0.0
C1733 C 0.38988 0.07686 0.04709 0.0
C1734 C 0.41082 0.09289 0.10546 0.0
C1735 C 0.39619 0.12083 0.10602 0.0
C1736 C 0.42889 0.09584 0.09335 0.0
C1737 C 0.44127 0.09462 0.12114 0.0
C1738 C 0.43561 0.09015 0.16136 0.0
C1739 C 0.41778 0.08792 0.17354 0.0
C1740 C 0.40549 0.08924 0.14581 0.0
H1741 H 0.39291 0.13208 0.0955 0.0
H1742 H 0.38903 0.11549 0.13541 0.0
H1743 H 0.41202 0.12757 0.11042 0.0
H1744 H 0.43317 0.09858 0.06222 0.0
H1745 H 0.45487 0.09634 0.11075 0.0
H1746 H 0.89717 0.24149 0.92256 0.0
H1747 H 0.89274 0.2667 0.95333 0.0
H1748 H 0.94435 0.28519 0.02313 0.0
H1749 H 0.94905 0.26007 0.99219 0.0
H1750 H 0.88672 0.26695 0.03425 0.0
H1751 H 0.94948 0.3365 0.98632 0.0
H1752 H 0.94223 0.31399 0.96061 0.0
H1753 H 0.95606 0.31967 0.00597 0.0
C1754 C 0.90784 0.25117 0.94383 0.0
C1755 C 0.9234 0.24866 0.95519 0.0
C1756 C 0.90527 0.26558 0.96134 0.0
C1757 C 0.91824 0.27784 0.99036 0.0
C1758 C 0.93435 0.27608 0.00027 0.0
H1759 H 0.90393 0.33176 0.19509 0.0
H1760 H 0.90491 0.31014 0.14481 0.0
C1761 C 0.93698 0.26167 0.98266 0.0
C1762 C 0.91365 0.29082 0.01354 0.0
H1763 H 0.93183 0.33763 0.04332 0.0
C1764 C 0.89645 0.28245 0.03579 0.0
C1765 C 0.92627 0.31103 0.01519 0.0
C1766 C 0.94446 0.32089 0.99045 0.0
C1767 C 0.89193 0.29364 0.06102 0.0
C1768 C 0.90506 0.31367 0.06436 0.0
C1769 C 0.92184 0.32221 0.0408 0.0
C1770 C 0.90241 0.32572 0.0944 0.0
C1771 C 0.8733 0.2839 0.08436 0.0
C1772 C 0.90053 0.34156 0.08264 0.0
C1773 C 0.89988 0.35395 0.11139 0.0
C1774 C 0.90143 0.35084 0.15228 0.0
C1775 C 0.9027 0.33458 0.16387 0.0
C1776 C 0.90319 0.32215 0.13518 0.0
H1777 H 0.86256 0.27002 0.07036 0.0
H1778 H 0.87623 0.28072 0.11502 0.0
H1779 H 0.86691 0.29342 0.0868 0.0
H1780 H 0.89999 0.34455 0.05123 0.0
H1781 H 0.89904 0.36642 0.10147 0.0
H1782 H 0.73738 0.69364 0.99575 0.0
H1783 H 0.7127 0.66472 0.03033 0.0
H1784 H 0.73079 0.62968 0.96598 0.0
H1785 H 0.75548 0.65835 0.93153 0.0
H1786 H 0.68177 0.62725 0.00264 0.0
H1787 H 0.73966 0.62307 0.08629 0.0
H1788 H 0.74398 0.64438 0.05905 0.0
H1789 H 0.74187 0.62379 0.03276 0.0
C1790 C 0.73586 0.67973 0.9884 0.0
C1791 C 0.74858 0.67834 0.96136 0.0
C1792 C 0.72179 0.66325 0.0082 0.0
C1793 C 0.72026 0.64521 0.00117 0.0
C1794 C 0.73203 0.64357 0.97226 0.0
H1795 H 0.6313 0.53575 0.10468 0.0
H1796 H 0.65416 0.55985 0.05764 0.0
C1797 C 0.74609 0.65998 0.95257 0.0
C1798 C 0.70734 0.62836 0.02605 0.0
H1799 H 0.70765 0.59829 0.09817 0.0
C1800 C 0.68735 0.62081 0.02339 0.0
C1801 C 0.71482 0.62021 0.0533 0.0
C1802 C 0.73626 0.62832 0.05843 0.0
C1803 C 0.67456 0.60525 0.0475 0.0
C1804 C 0.68203 0.597 0.07452 0.0
C1805 C 0.70202 0.60453 0.07702 0.0
C1806 C 0.66943 0.58164 0.10282 0.0
C1807 C 0.65321 0.59816 0.04487 0.0
C1808 C 0.67109 0.58567 0.14385 0.0
C1809 C 0.65818 0.57197 0.17077 0.0
C1810 C 0.64341 0.55393 0.15712 0.0
C1811 C 0.64248 0.54952 0.11616 0.0
C1812 C 0.6554 0.56331 0.0892 0.0
H1813 H 0.65018 0.60833 0.02801 0.0
H1814 H 0.64592 0.58399 0.02933 0.0
H1815 H 0.64681 0.59608 0.0752 0.0
H1816 H 0.68194 0.59971 0.15492 0.0
H1817 H 0.6594 0.57579 0.20213 0.0
H1818 H 0.53605 0.91326 0.89609 0.0
H1819 H 0.56093 0.91694 0.94364 0.0
H1820 H 0.58989 0.90405 0.84993 0.0
H1821 H 0.56557 0.90118 0.80199 0.0
H1822 H 0.57492 0.89534 0.97169 0.0
H1823 H 0.63208 0.95609 0.88574 0.0
H1824 H 0.6068 0.94603 0.87456 0.0
H1825 H 0.61991 0.93481 0.85541 0.0
C1826 C 0.54757 0.91092 0.8858 0.0
C1827 C 0.54905 0.90718 0.84527 0.0
C1828 C 0.56181 0.91311 0.91295 0.0
C1829 C 0.5776 0.91142 0.89998 0.0
C1830 C 0.57822 0.90614 0.86021 0.0
H1831 H 0.65723 0.89159 0.02819 0.0
H1832 H 0.62915 0.8905 -0.00207 0.0
C1833 C 0.56422 0.9043 0.83296 0.0
C1834 C 0.59374 0.9157 0.92752 0.0
H1835 H 0.64282 0.94137 0.93422 0.0
C1836 C 0.58976 0.90557 0.96377 0.0
C1837 C 0.61305 0.92957 0.91791 0.0
C1838 C 0.61819 0.9424 0.88151 0.0
C1839 C 0.60469 0.90812 0.98954 0.0
C1840 C 0.62411 0.92063 0.978 0.0
C1841 C 0.62798 0.93155 0.94287 0.0
C1842 C 0.64062 0.92146 -9e-05 0.0
C1843 C 0.59943 0.89734 0.02876 0.0
C1844 C 0.65677 0.93931 0.01016 0.0
C1845 C 0.6732 0.94004 0.02662 0.0
C1846 C 0.67365 0.9229 0.03337 0.0
C1847 C 0.65729 0.90507 0.0239 0.0
C1848 C 0.64108 0.90439 0.00691 0.0
H1849 H 0.58534 0.89501 0.03995 0.0
H1850 H 0.59795 0.88289 0.02426 0.0
H1851 H 0.61057 0.90522 0.05197 0.0
H1852 H 0.6568 0.9527 0.00469 0.0
H1853 H 0.68558 0.95398 0.03361 0.0
H1854 H 0.09236 0.63359 0.88633 0.0
H1855 H 0.09362 0.6575 0.93406 0.0
H1856 H 0.07944 0.68506 0.83973 0.0
H1857 H 0.07838 0.66155 0.79187 0.0
H1858 H 0.10859 0.71105 0.89171 0.0
H1859 H 0.04356 0.65564 0.97302 0.0
H1860 H 0.06327 0.65097 0.96848 0.0
H1861 H 0.05046 0.65111 0.92458 0.0
C1862 C 0.08979 0.64491 0.87563 0.0
C1863 C 0.08507 0.64554 0.83535 0.0
C1864 C 0.09038 0.65845 0.903 0.0
C1865 C 0.08626 0.67277 0.89047 0.0
C1866 C 0.08253 0.67402 0.84999 0.0
H1867 H 0.04467 0.7413 0.00084 0.0
H1868 H 0.04908 0.71659 0.96709 0.0
C1869 C 0.08191 0.66053 0.82269 0.0
C1870 C 0.08499 0.68609 0.91938 0.0
H1871 H 0.05729 0.68783 0.99519 0.0
C1872 C 0.09753 0.70601 0.91467 0.0
C1873 C 0.07034 0.67938 0.94882 0.0
C1874 C 0.056 0.65813 0.95403 0.0
C1875 C 0.09561 0.71948 0.93819 0.0
C1876 C 0.08093 0.71278 0.9676 0.0
C1877 C 0.06859 0.69285 0.97278 0.0
C1878 C 0.07752 0.72634 0.99155 0.0
C1879 C 0.10877 0.74078 0.93023 0.0
C1880 C 0.09178 0.73953 0.01748 0.0
C1881 C 0.08935 0.75369 0.03665 0.0
C1882 C 0.07254 0.75483 0.03043 0.0
C1883 C 0.05781 0.74088 0.00617 0.0
C1884 C 0.0603 0.72675 0.98687 0.0
H1885 H 0.11642 0.7434 0.90116 0.0
H1886 H 0.10052 0.74856 0.93025 0.0
H1887 H 0.1198 0.74703 0.9542 0.0
H1888 H 0.10501 0.73917 0.02205 0.0
H1889 H 0.10091 0.76407 0.0555 0.0
H1890 H 0.24109 0.33658 0.05879 0.0
H1891 H 0.26577 0.36512 0.02393 0.0
H1892 H 0.28219 0.3295 0.95679 0.0
H1893 H 0.2575 0.3007 0.99162 0.0
H1894 H 0.31394 0.36706 0.98492 0.0
H1895 H 0.2557 0.37167 0.90348 0.0
H1896 H 0.25385 0.37067 0.9571 0.0
H1897 H 0.25148 0.3502 0.92995 0.0
C1898 C 0.25012 0.33479 0.03708 0.0
C1899 C 0.24713 0.3163 0.02755 0.0
C1900 C 0.26419 0.35113 0.01717 0.0
C1901 C 0.27547 0.34929 0.98737 0.0
C1902 C 0.27347 0.33111 0.97962 0.0
H1903 H 0.33519 0.4177 0.7847 0.0
H1904 H 0.31303 0.39402 0.83274 0.0
C1905 C 0.25939 0.3147 -0.00042 0.0
C1906 C 0.2883 0.36608 0.96229 0.0
H1907 H 0.28773 0.39602 0.89019 0.0
C1908 C 0.30828 0.37351 0.96437 0.0
C1909 C 0.28073 0.37423 0.93531 0.0
C1910 C 0.25927 0.36625 0.93091 0.0
C1911 C 0.32099 0.38895 0.93989 0.0
C1912 C 0.31342 0.39718 0.91307 0.0
C1913 C 0.29343 0.38979 0.91118 0.0
C1914 C 0.32589 0.41237 0.88431 0.0
C1915 C 0.34232 0.39592 0.94189 0.0
C1916 C 0.34003 0.43077 0.8974 0.0
C1917 C 0.35274 0.44443 0.86995 0.0
C1918 C 0.35148 0.43982 0.82905 0.0
C1919 C 0.33666 0.42167 0.816 0.0
C1920 C 0.32397 0.40811 0.84338 0.0
H1921 H 0.3454 0.38581 0.95888 0.0
H1922 H 0.34847 0.39774 0.91137 0.0
H1923 H 0.34982 0.41021 0.95696 0.0
H1924 H 0.34149 0.43439 0.92889 0.0
H1925 H 0.36396 0.45828 0.88098 0.0
H1926 H 0.96699 0.37219 0.29591 0.0
H1927 H -0.00453 0.3735 0.32652 0.0
H1928 H 0.02357 0.43578 0.33067 0.0
H1929 H -0.00421 0.43466 0.29867 0.0
H1930 H 0.04877 0.42511 0.31181 0.0
H1931 H 0.0063 0.38279 0.44345 0.0
H1932 H -0.00173 0.36998 0.39702 0.0
H1933 H -0.00375 0.39116 0.4055 0.0
C1934 C 0.97934 0.38614 0.303 0.0
C1935 C 0.97905 0.40329 0.29517 0.0
C1936 C -0.00445 0.38687 0.32071 0.0
C1937 C 0.01148 0.40472 0.33177 0.0
C1938 C 0.01145 0.42183 0.32252 0.0
H1939 H 0.08984 0.42468 0.52412 0.0
H1940 H 0.06566 0.42344 0.47782 0.0
C1941 C -0.00451 0.42115 0.30425 0.0
C1942 C 0.02788 0.40585 0.35468 0.0
H1943 H 0.03929 0.39239 0.4426 0.0
C1944 C 0.04672 0.41792 0.34039 0.0
C1945 C 0.02518 0.3967 0.39224 0.0
C1946 C 0.00544 0.38459 0.41071 0.0
C1947 C 0.06294 0.42143 0.36298 0.0
C1948 C 0.06021 0.41204 0.40026 0.0
C1949 C 0.04137 0.3996 0.41403 0.0
C1950 C 0.07652 0.41528 0.42646 0.0
C1951 C 0.08275 0.43574 0.34737 0.0
C1952 C 0.09104 0.41168 0.41277 0.0
C1953 C 0.1052 0.41289 0.43904 0.0
C1954 C 0.10471 0.41718 0.47962 0.0
C1955 C 0.09052 0.42132 0.49298 0.0
C1956 C 0.07667 0.42053 0.46659 0.0
H1957 H 0.08213 0.44577 0.32518 0.0
H1958 H 0.09256 0.44444 0.372 0.0
H1959 H 0.08904 0.42779 0.33223 0.0
H1960 H 0.09098 0.40714 0.38226 0.0
H1961 H 0.11581 0.40934 0.42813 0.0
H1962 H 0.57526 0.66505 0.53955 0.0
H1963 H 0.57602 0.64216 0.49247 0.0
H1964 H 0.56382 0.66994 0.39538 0.0
H1965 H 0.56327 0.69324 0.44239 0.0
H1966 H 0.54876 0.61625 0.43783 0.0
H1967 H 0.61519 0.67299 0.36278 0.0
H1968 H 0.60685 0.67699 0.41005 0.0
H1969 H 0.59515 0.67725 0.36446 0.0
C1970 C 0.57253 0.66624 0.50826 0.0
C1971 C 0.5694 0.68113 0.49468 0.0
C1972 C 0.57296 0.65311 0.4814 0.0
C1973 C 0.57035 0.65461 0.44043 0.0
C1974 C 0.56623 0.6688 0.42687 0.0
H1975 H 0.559 0.5667 0.27111 0.0
H1976 H 0.55495 0.59114 0.30652 0.0
C1977 C 0.56575 0.68197 0.45381 0.0
C1978 C 0.57267 0.64166 0.41217 0.0
H1979 H 0.60211 0.64108 0.33878 0.0
C1980 C 0.5603 0.62165 0.41591 0.0
C1981 C 0.58798 0.64882 0.38415 0.0
C1982 C 0.60219 0.67017 0.38015 0.0
C1983 C 0.56289 0.60855 0.3925 0.0
C1984 C 0.57809 0.61571 0.36423 0.0
C1985 C 0.59041 0.63571 0.36031 0.0
C1986 C 0.58169 0.6025 0.33945 0.0
C1987 C 0.54972 0.58714 0.39908 0.0
C1988 C 0.59852 0.60143 0.34495 0.0
C1989 C 0.60097 0.58749 0.32459 0.0
C1990 C 0.5866 0.57445 0.2984 0.0
C1991 C 0.57026 0.57635 0.29139 0.0
C1992 C 0.56787 0.59027 0.31168 0.0
H1993 H 0.54158 0.58407 0.42762 0.0
H1994 H 0.53912 0.58114 0.37429 0.0
H1995 H 0.55807 0.57945 0.39931 0.0
H1996 H 0.6094 0.61087 0.36615 0.0
H1997 H 0.61372 0.58645 0.3306 0.0
H1998 H 0.41434 0.98726 0.25857 0.0
H1999 H 0.38935 0.95805 0.29091 0.0
H2000 H 0.37126 0.99215 0.35881 0.0
H2001 H 0.3962 0.02157 0.32639 0.0
H2002 H 0.38968 0.95328 0.3732 0.0
H2003 H 0.31989 0.94521 0.32335 0.0
H2004 H 0.34226 0.95993 0.29682 0.0
H2005 H 0.33682 0.96899 0.34121 0.0
C2006 C 0.4048 0.98856 0.27974 0.0
C2007 C 0.40739 0.0068 0.29018 0.0
C2008 C 0.39052 0.97182 0.29816 0.0
C2009 C 0.37846 0.97295 0.32711 0.0
C2010 C 0.38025 0.99096 0.33605 0.0
H2011 H 0.32437 0.90653 0.53422 0.0
H2012 H 0.34613 0.92885 0.48377 0.0
C2013 C 0.39455 0.00777 0.31757 0.0
C2014 C 0.36565 0.9557 0.35123 0.0
H2015 H 0.31896 0.92703 0.38107 0.0
C2016 C 0.37417 0.94736 0.37453 0.0
C2017 C 0.34545 0.94795 0.35261 0.0
C2018 C 0.3355 0.95584 0.32689 0.0
C2019 C 0.36311 0.93192 0.40045 0.0
C2020 C 0.34305 0.92481 0.40334 0.0
C2021 C 0.33439 0.93261 0.37884 0.0
C2022 C 0.33103 0.91029 0.43364 0.0
C2023 C 0.37298 0.92352 0.42492 0.0
C2024 C 0.31543 0.89239 0.42209 0.0
C2025 C 0.30295 0.87952 0.45092 0.0
C2026 C 0.30575 0.88453 0.49168 0.0
C2027 C 0.3218 0.90222 0.5031 0.0
C2028 C 0.33431 0.91498 0.47433 0.0
H2029 H 0.38699 0.92675 0.41146 0.0
H2030 H 0.37591 0.92995 0.45531 0.0
H2031 H 0.36369 0.9076 0.42797 0.0
H2032 H 0.31266 0.88859 0.39074 0.0
H2033 H 0.29066 0.86606 0.4411 0.0
H2034 H 0.18398 0.31699 0.16635 0.0
H2035 H 0.17987 0.33229 0.22589 0.0
H2036 H 0.16265 0.2802 0.29358 0.0
H2037 H 0.16685 0.26475 0.23434 0.0
H2038 H 0.1452 0.31869 0.27106 0.0
H2039 H 0.20561 0.32348 0.36213 0.0
H2040 H 0.20397 0.31949 0.30878 0.0
H2041 H 0.18915 0.29999 0.3421 0.0
C2042 C 0.17941 0.30879 0.19392 0.0
C2043 C 0.17578 0.28965 0.19561 0.0
C2044 C 0.17707 0.31756 0.22786 0.0
C2045 C 0.17119 0.30742 0.26408 0.0
C2046 C 0.16752 0.28834 0.26598 0.0
H2047 H 0.14768 0.33938 0.49725 0.0
H2048 H 0.15179 0.32219 0.44096 0.0
C2049 C 0.16984 0.27953 0.23204 0.0
C2050 C 0.16826 0.31667 0.29949 0.0
H2051 H 0.1851 0.33297 0.39342 0.0
C2052 C 0.15392 0.32184 0.29782 0.0
C2053 C 0.17962 0.3206 0.3343 0.0
C2054 C 0.19557 0.31576 0.33705 0.0
C2055 C 0.15057 0.33087 0.33026 0.0
C2056 C 0.16214 0.33512 0.36484 0.0
C2057 C 0.17631 0.32969 0.36675 0.0
C2058 C 0.16003 0.34563 0.39895 0.0
C2059 C 0.13454 0.3356 0.32742 0.0
C2060 C 0.16368 0.36459 0.39395 0.0
C2061 C 0.16133 0.37444 0.4259 0.0
C2062 C 0.15541 0.36552 0.46353 0.0
C2063 C 0.15219 0.34664 0.46863 0.0
C2064 C 0.15453 0.33679 0.43658 0.0
H2065 H 0.12391 0.32692 0.30388 0.0
H2066 H 0.12682 0.33298 0.35639 0.0
H2067 H 0.14079 0.35111 0.31969 0.0
H2068 H 0.16832 0.37176 0.36527 0.0
H2069 H 0.16408 0.38901 0.42099 0.0
H2070 H 0.67248 0.85677 0.16204 0.0
H2071 H 0.65511 0.8366 0.21945 0.0
H2072 H 0.70442 0.87081 0.29469 0.0
H2073 H 0.7219 0.89121 0.23765 0.0
H2074 H 0.666 0.81487 0.26955 0.0
H2075 H 0.6592 0.87123 0.35353 0.0
H2076 H 0.66535 0.87356 0.3011 0.0
H2077 H 0.68336 0.87817 0.33827 0.0
C2078 C 0.67966 0.86005 0.19078 0.0
C2079 C 0.69855 0.87568 0.1953 0.0
C2080 C 0.6697 0.84849 0.2235 0.0
C2081 C 0.67841 0.85244 0.26128 0.0
C2082 C 0.69735 0.8678 0.26584 0.0
H2083 H 0.64624 0.80149 0.49553 0.0
H2084 H 0.66224 0.82111 0.43668 0.0
C2085 C 0.70734 0.87936 0.23316 0.0
C2086 C 0.66776 0.84031 0.29587 0.0
H2087 H 0.64993 0.84179 0.38764 0.0
C2088 C 0.66237 0.82068 0.29531 0.0
C2089 C 0.66308 0.84803 0.32927 0.0
C2090 C 0.66788 0.86886 0.33062 0.0
C2091 C 0.65277 0.80859 0.32787 0.0
C2092 C 0.64822 0.81635 0.3614 0.0
C2093 C 0.65349 0.83595 0.36182 0.0
C2094 C 0.6383 0.80444 0.39676 0.0
C2095 C 0.64803 0.78778 0.32658 0.0
C2096 C 0.61944 0.78876 0.39376 0.0
C2097 C 0.61022 0.77748 0.42731 0.0
C2098 C 0.61971 0.78178 0.46446 0.0
C2099 C 0.63853 0.79772 0.46738 0.0
C2100 C 0.64771 0.80898 0.43383 0.0
H2101 H 0.65637 0.78531 0.30304 0.0
H2102 H 0.65103 0.78327 0.35586 0.0
H2103 H 0.63244 0.77838 0.31997 0.0
H2104 H 0.61184 0.78528 0.36548 0.0
H2105 H 0.5957 0.76537 0.42406 0.0
H2106 H 0.09697 0.82979 0.24192 0.0
H2107 H 0.11678 0.83273 0.29996 0.0
H2108 H 0.15263 0.81908 0.22623 0.0
H2109 H 0.13312 0.81634 0.16786 0.0
H2110 H 0.12406 0.80443 0.33242 0.0
H2111 H 0.19148 0.8695 0.28219 0.0
H2112 H 0.16831 0.86202 0.25958 0.0
H2113 H 0.18149 0.84999 0.24675 0.0
C2114 C 0.10911 0.82749 0.23796 0.0
C2115 C 0.11353 0.82293 0.20021 0.0
C2116 C 0.12038 0.82915 0.27115 0.0
C2117 C 0.13627 0.82638 0.26712 0.0
C2118 C 0.14062 0.82164 0.22968 0.0
H2119 H 0.22086 0.82834 0.43027 0.0
H2120 H 0.20024 0.82415 0.37291 0.0
C2121 C 0.1294 0.82 0.19644 0.0
C2122 C 0.14809 0.82806 0.30232 0.0
H2123 H 0.19368 0.85356 0.34009 0.0
C2124 C 0.13926 0.81521 0.33426 0.0
C2125 C 0.16788 0.84216 0.3044 0.0
C2126 C 0.17785 0.85683 0.27159 0.0
C2127 C 0.14986 0.81589 0.36816 0.0
C2128 C 0.16966 0.82993 0.37013 0.0
C2129 C 0.17848 0.84278 0.33823 0.0
C2130 C 0.18152 0.8317 0.40528 0.0
C2131 C 0.13991 0.80139 0.40125 0.0
C2132 C 0.17777 0.83741 0.44225 0.0
C2133 C 0.18952 0.83986 0.47508 0.0
C2134 C 0.20525 0.8367 0.47136 0.0
C2135 C 0.20886 0.83087 0.43419 0.0
C2136 C 0.19712 0.82847 0.40139 0.0
H2137 H 0.126 0.78893 0.39121 0.0
H2138 H 0.1493 0.79588 0.41266 0.0
H2139 H 0.13686 0.80853 0.4264 0.0
H2140 H 0.16595 0.84027 0.44554 0.0
H2141 H 0.18637 0.84441 0.50325 0.0
H2142 H 0.82484 0.59864 0.56863 0.0
H2143 H 0.82088 0.61515 0.62635 0.0
H2144 H 0.83764 0.66592 0.55437 0.0
H2145 H 0.8415 0.64957 0.4964 0.0
H2146 H 0.84976 0.65054 0.66076 0.0
H2147 H 0.78654 0.65529 0.60712 0.0
H2148 H 0.79352 0.63897 0.5854 0.0
H2149 H 0.80639 0.6642 0.5726 0.0
C2150 C 0.82757 0.61328 0.56495 0.0
C2151 C 0.83344 0.62277 0.52784 0.0
C2152 C 0.82531 0.62267 0.59797 0.0
C2153 C 0.82874 0.64162 0.59437 0.0
C2154 C 0.8346 0.65115 0.55749 0.0
H2155 H 0.82782 0.72587 0.75493 0.0
H2156 H 0.83095 0.70843 0.69802 0.0
C2157 C 0.8369 0.64181 0.52447 0.0
C2158 C 0.82684 0.65171 0.62955 0.0
H2159 H 0.80211 0.67304 0.66567 0.0
C2160 C 0.83928 0.65537 0.66203 0.0
C2161 C 0.81318 0.658 0.63085 0.0
C2162 C 0.79901 0.6538 0.59731 0.0
C2163 C 0.83868 0.66556 0.69563 0.0
C2164 C 0.82506 0.67191 0.69688 0.0
C2165 C 0.81256 0.66816 0.66446 0.0
C2166 C 0.82351 0.68247 0.7316 0.0
C2167 C 0.85293 0.66984 0.72905 0.0
C2168 C 0.81815 0.67354 0.76916 0.0
C2169 C 0.81637 0.68345 0.80177 0.0
C2170 C 0.81981 0.70244 0.79728 0.0
C2171 C 0.82511 0.71129 0.75947 0.0
C2172 C 0.82689 0.70136 0.7269 0.0
H2173 H 0.86534 0.66825 0.71923 0.0
H2174 H 0.85852 0.68473 0.7407 0.0
H2175 H 0.84559 0.65955 0.75396 0.0
H2176 H 0.81514 0.65882 0.77315 0.0
H2177 H 0.81217 0.67616 0.8304 0.0
H2178 H 0.31276 0.14122 0.8338 0.0
H2179 H 0.32988 0.16137 0.77627 0.0
H2180 H 0.2827 0.12356 0.69936 0.0
H2181 H 0.26529 0.1034 0.75674 0.0
H2182 H 0.34117 0.1493 0.70802 0.0
H2183 H 0.29225 0.17753 0.66988 0.0
H2184 H 0.29135 0.16644 0.71748 0.0
H2185 H 0.28046 0.15167 0.67409 0.0
C2186 C 0.30592 0.13725 0.80473 0.0
C2187 C 0.28764 0.1207 0.79986 0.0
C2188 C 0.31574 0.14879 0.77193 0.0
C2189 C 0.30743 0.14405 0.73378 0.0
C2190 C 0.28917 0.12764 0.72877 0.0
H2191 H 0.34464 0.18839 0.49578 0.0
H2192 H 0.32765 0.16979 0.55503 0.0
C2193 C 0.2793 0.11609 0.76156 0.0
C2194 C 0.31833 0.15576 0.69893 0.0
H2195 H 0.31687 0.1834 0.62282 0.0
C2196 C 0.33596 0.15688 0.68949 0.0
C2197 C 0.31139 0.16554 0.67494 0.0
C2198 C 0.29291 0.16542 0.68472 0.0
C2199 C 0.34669 0.16724 0.65604 0.0
C2200 C 0.3397 0.17692 0.63191 0.0
C2201 C 0.32213 0.17589 0.64146 0.0
C2202 C 0.3503 0.18806 0.59629 0.0
C2203 C 0.36517 0.16735 0.64623 0.0
C2204 C 0.36862 0.20453 0.60008 0.0
C2205 C 0.37842 0.2152 0.56629 0.0
C2206 C 0.36998 0.20961 0.5282 0.0
C2207 C 0.35158 0.19309 0.52464 0.0
C2208 C 0.34183 0.18244 0.55842 0.0
H2209 H 0.36612 0.1556 0.66197 0.0
H2210 H 0.36642 0.16574 0.61356 0.0
H2211 H 0.37765 0.18136 0.65568 0.0
H2212 H 0.37523 0.20926 0.62922 0.0
H2213 H 0.39251 0.2279 0.57012 0.0
H2214 H 0.76944 0.16518 0.57183 0.0
H2215 H 0.79022 0.16798 0.62787 0.0
H2216 H 0.82203 0.15012 0.55178 0.0
H2217 H 0.80149 0.14746 0.49528 0.0
H2218 H 0.79555 0.13807 0.65963 0.0
H2219 H 0.8642 0.20025 0.60439 0.0
H2220 H 0.84098 0.19412 0.58377 0.0
H2221 H 0.85226 0.18032 0.57025 0.0
C2222 C 0.78093 0.16196 0.56686 0.0
C2223 C 0.78385 0.15615 0.52904 0.0
C2224 C 0.79275 0.16355 0.59893 0.0
C2225 C 0.80772 0.15945 0.59371 0.0
C2226 C 0.81072 0.15366 0.55611 0.0
H2227 H 0.89242 0.16229 0.76019 0.0
H2228 H 0.87214 0.1571 0.70162 0.0
C2229 C 0.79892 0.15208 0.52396 0.0
C2230 C 0.81981 0.16071 0.62806 0.0
H2231 H 0.86578 0.18532 0.66418 0.0
C2232 C 0.81091 0.14838 0.66071 0.0
C2233 C 0.83981 0.17414 0.62906 0.0
C2234 C 0.84992 0.18809 0.59518 0.0
C2235 C 0.82155 0.14913 0.69455 0.0
C2236 C 0.84149 0.16276 0.69581 0.0
C2237 C 0.85046 0.17488 0.66292 0.0
C2238 C 0.85322 0.16516 0.73158 0.0
C2239 C 0.81142 0.13524 0.72851 0.0
C2240 C 0.84927 0.17151 0.76756 0.0
C2241 C 0.8608 0.1745 0.80104 0.0
C2242 C 0.87653 0.17128 0.79899 0.0
C2243 C 0.8804 0.16487 0.76281 0.0
C2244 C 0.86885 0.16191 0.72932 0.0
H2245 H 0.7976 0.12258 0.7187 0.0
H2246 H 0.82073 0.12998 0.74151 0.0
H2247 H 0.80811 0.1428 0.7524 0.0
H2248 H 0.83745 0.17443 0.76955 0.0
H2249 H 0.85746 0.17951 0.82839 0.0
H2250 H 0.49144 0.06144 0.09047 0.0
H2251 H 0.49608 0.04647 0.03091 0.0
H2252 H 0.47797 0.99371 0.09673 0.0
H2253 H 0.47343 0.00853 0.15657 0.0
H2254 H 0.51257 0.00698 0.05168 0.0
H2255 H 0.45297 0.00424 0.96104 0.0
H2256 H 0.46979 0.02747 0.98166 0.0
H2257 H 0.45459 0.0079 0.01448 0.0
C2258 C 0.4884 0.04664 0.09231 0.0
C2259 C 0.482 0.03616 0.12828 0.0
C2260 C 0.49096 0.03809 0.05818 0.0
C2261 C 0.48711 0.01894 0.0594 0.0
C2262 C 0.48092 0.0085 0.09525 0.0
H2263 H 0.49121 0.93614 0.90172 0.0
H2264 H 0.48806 0.95406 0.9575 0.0
C2265 C 0.47833 0.017 0.12937 0.0
C2266 C 0.48991 0.00981 0.02357 0.0
H2267 H 0.47283 0.99406 0.92947 0.0
C2268 C 0.50391 0.00415 0.02493 0.0
C2269 C 0.47863 0.00629 0.98875 0.0
C2270 C 0.46303 0.01163 0.98627 0.0
C2271 C 0.50693 0.99499 0.99227 0.0
C2272 C 0.49538 0.9911 0.95774 0.0
C2273 C 0.48162 -0.00292 0.95608 0.0
C2274 C 0.49695 0.98025 0.92358 0.0
C2275 C 0.52256 0.98968 0.99487 0.0
C2276 C 0.50244 0.9889 0.88577 0.0
C2277 C 0.50416 0.97866 0.85365 0.0
C2278 C 0.5003 0.95956 0.85885 0.0
C2279 C 0.49442 0.95086 0.89668 0.0
C2280 C 0.49271 0.9611 0.92869 0.0
H2281 H 0.53337 -0.00179 0.01823 0.0
H2282 H 0.51595 0.97415 0.00275 0.0
H2283 H 0.53012 0.99203 0.96579 0.0
H2284 H 0.50563 0.00365 0.88127 0.0
H2285 H 0.50866 0.98578 0.82489 0.0
H2286 H 0.97996 0.47003 0.16687 0.0
H2287 H -0.00331 0.4908 0.10975 0.0
H2288 H 0.94673 0.45709 0.03581 0.0
H2289 H 0.92974 0.43636 0.09275 0.0
H2290 H 0.00495 0.47944 0.03639 0.0
H2291 H 0.95905 0.51284 0.0162 0.0
H2292 H 0.95863 0.50021 0.06128 0.0
H2293 H 0.94593 0.48688 0.01749 0.0
C2294 C 0.97245 0.46709 0.13854 0.0
C2295 C 0.95347 0.45156 0.13441 0.0
C2296 C 0.98206 0.47897 0.10597 0.0
C2297 C 0.97283 0.47561 0.06882 0.0
C2298 C 0.95393 0.46013 0.0645 0.0
H2299 H 0.0057 0.52535 0.83309 0.0
H2300 H 0.98948 0.50562 0.89173 0.0
C2301 C 0.9443 0.44825 0.09704 0.0
C2302 C 0.98324 0.48786 0.03417 0.0
H2303 H 0.98179 0.51842 0.96483 0.0
C2304 C -1e-05 0.48808 0.02085 0.0
C2305 C 0.97665 0.49904 0.01406 0.0
C2306 C 0.95918 0.49992 0.02813 0.0
C2307 C 0.01014 0.4989 0.98728 0.0
C2308 C 0.00348 0.50998 0.96704 0.0
C2309 C 0.98679 0.50984 0.98047 0.0
C2310 C 0.01356 0.52177 0.93165 0.0
C2311 C 0.02763 0.49804 0.97318 0.0
C2312 C 0.03241 0.53744 0.93492 0.0
C2313 C 0.04176 0.54875 0.9015 0.0
C2314 C 0.03234 0.54462 0.86429 0.0
C2315 C 0.0134 0.52891 0.86125 0.0
C2316 C 0.00408 0.51763 0.89469 0.0
H2317 H 0.0281 0.48545 0.986 0.0
H2318 H 0.02784 0.49719 0.94007 0.0
H2319 H 0.04088 0.51139 0.98271 0.0
H2320 H 0.03982 0.54105 0.96343 0.0
H2321 H 0.0563 0.56079 0.90494 0.0
H2322 H 0.47087 0.48332 0.82172 0.0
H2323 H 0.49111 0.48703 0.87946 0.0
H2324 H 0.45597 0.50157 0.9533 0.0
H2325 H 0.43571 0.49811 0.89573 0.0
H2326 H 0.49647 0.52663 0.9616 0.0
H2327 H 0.4754 0.44911 0.97447 0.0
H2328 H 0.48361 0.45954 0.92579 0.0
H2329 H 0.46166 0.45718 0.94566 0.0
C2330 C 0.4674 0.48729 0.85022 0.0
C2331 C 0.45161 0.49034 0.85415 0.0
C2332 C 0.47894 0.4893 0.88319 0.0
C2333 C 0.47482 0.49428 0.92061 0.0
C2334 C 0.45927 0.49761 0.9246 0.0
H2335 H 0.52504 0.51376 0.1568 0.0
H2336 H 0.50571 0.51085 0.09798 0.0
C2337 C 0.44772 0.4956 0.89168 0.0
C2338 C 0.4869 0.4963 0.95558 0.0
H2339 H 0.5008 0.47114 0.01626 0.0
C2340 C 0.4974 0.51452 0.9737 0.0
C2341 C 0.48803 0.48043 0.97106 0.0
C2342 C 0.47646 0.4604 0.95353 0.0
C2343 C 0.50928 0.51736 0.00675 0.0
C2344 C 0.51037 0.50147 0.02229 0.0
C2345 C 0.49991 0.48327 0.0041 0.0
C2346 C 0.52216 0.50337 0.05773 0.0
C2347 C 0.52083 0.53738 0.02431 0.0
C2348 C 0.5375 0.49969 0.0546 0.0
C2349 C 0.54853 0.50122 0.08816 0.0
C2350 C 0.54429 0.50636 0.12548 0.0
C2351 C 0.52876 0.50987 0.12848 0.0
C2352 C 0.51776 0.50833 0.0949 0.0
H2353 H 0.52215 0.54869 0.00311 0.0
H2354 H 0.51347 0.53833 0.05165 0.0
H2355 H 0.53553 0.54051 0.03283 0.0
H2356 H 0.541 0.49572 0.02611 0.0
H2357 H 0.56035 0.49838 0.08481 0.0
loop_
_geom_bond_atom_site_label_1
_geom_bond_atom_site_label_2
_geom_bond_distance
_geom_bond_site_symmetry_2
_ccdc_geom_bond_type
O0 Zn1 1.953 . S
O0 C16 1.225 1_554 S
Zn1 O0 1.953 . S
Zn1 O2 1.949 . S
Zn1 O8 1.919 . S
Zn1 O13 1.924 . S
O2 Zn1 1.949 . S
O2 Zn3 1.923 . S
O2 Zn4 1.950 . S
O2 Zn5 1.945 . S
Zn3 O2 1.923 . S
Zn3 O6 1.933 . S
Zn3 O9 1.941 . S
Zn3 O10 1.965 . S
Zn4 O2 1.950 . S
Zn4 O11 1.938 . S
Zn4 O12 1.906 . S
Zn4 O22 1.953 1_554 S
Zn5 O2 1.945 . S
Zn5 O7 1.932 . S
Zn5 O14 1.977 . S
Zn5 O15 1.910 . S
O6 Zn3 1.933 . S
O6 C17 1.226 . S
O7 Zn5 1.932 . S
O7 C17 1.307 . S
O8 Zn1 1.919 . S
O8 C19 1.253 . S
O9 Zn3 1.941 . S
O9 C19 1.283 . S
O10 Zn3 1.965 . S
O10 C18 1.303 . S
O11 Zn4 1.938 . S
O11 C18 1.247 . S
O12 Zn4 1.906 . S
O12 C20 1.304 . S
O13 Zn1 1.924 . S
O13 C21 1.311 . S
O14 Zn5 1.977 . S
O14 C20 1.272 . S
O15 Zn5 1.910 . S
O15 C21 1.231 . S
C16 O0 1.225 1_556 S
C16 O22 1.298 . S
C17 O6 1.226 . S
C17 O7 1.307 . S
C18 O10 1.303 . S
C18 O11 1.247 . S
C19 O8 1.253 . S
C19 O9 1.283 . S
C20 O12 1.304 . S
C20 O14 1.272 . S
C21 O13 1.311 . S
C21 O15 1.231 . S
O22 Zn4 1.953 1_556 S
O22 C16 1.298 . S
O23 Zn24 1.953 . S
O23 C39 1.225 1_554 S
Zn24 O23 1.953 . S
Zn24 O25 1.949 . S
Zn24 O31 1.919 . S
Zn24 O36 1.924 . S
O25 Zn24 1.949 . S
O25 Zn26 1.923 . S
O25 Zn27 1.950 . S
O25 Zn28 1.945 . S
Zn26 O25 1.923 . S
Zn26 O29 1.933 . S
Zn26 O32 1.941 . S
Zn26 O33 1.965 . S
Zn27 O25 1.950 . S
Zn27 O34 1.938 . S
Zn27 O35 1.906 . S
Zn27 O45 1.953 1_554 S
Zn28 O25 1.945 . S
Zn28 O30 1.932 . S
Zn28 O37 1.977 . S
Zn28 O38 1.910 . S
O29 Zn26 1.933 . S
O29 C40 1.226 . S
O30 Zn28 1.932 . S
O30 C40 1.307 . S
O31 Zn24 1.919 . S
O31 C42 1.253 . S
O32 Zn26 1.941 . S
O32 C42 1.283 . S
O33 Zn26 1.965 . S
O33 C41 1.303 . S
O34 Zn27 1.938 . S
O34 C41 1.247 . S
O35 Zn27 1.906 . S
O35 C43 1.304 . S
O36 Zn24 1.924 . S
O36 C44 1.311 . S
O37 Zn28 1.977 . S
O37 C43 1.272 . S
O38 Zn28 1.910 . S
O38 C44 1.231 . S
C39 O23 1.225 1_556 S
C39 O45 1.298 . S
C40 O29 1.226 . S
C40 O30 1.307 . S
C41 O33 1.303 . S
C41 O34 1.247 . S
C42 O31 1.253 . S
C42 O32 1.283 . S
C43 O35 1.304 . S
C43 O37 1.272 . S
C44 O36 1.311 . S
C44 O38 1.231 . S
O45 Zn27 1.953 1_556 S
O45 C39 1.298 . S
O46 Zn47 1.953 . S
O46 C62 1.225 1_554 S
Zn47 O46 1.953 . S
Zn47 O48 1.949 . S
Zn47 O54 1.919 . S
Zn47 O59 1.924 . S
O48 Zn47 1.949 . S
O48 Zn49 1.923 . S
O48 Zn50 1.950 . S
O48 Zn51 1.945 . S
Zn49 O48 1.923 . S
Zn49 O52 1.933 . S
Zn49 O55 1.941 . S
Zn49 O56 1.965 . S
Zn50 O48 1.950 . S
Zn50 O57 1.938 . S
Zn50 O58 1.906 . S
Zn50 O68 1.953 1_554 S
Zn51 O48 1.945 . S
Zn51 O53 1.932 . S
Zn51 O60 1.977 . S
Zn51 O61 1.910 . S
O52 Zn49 1.933 . S
O52 C63 1.226 . S
O53 Zn51 1.932 . S
O53 C63 1.307 . S
O54 Zn47 1.919 . S
O54 C65 1.253 . S
O55 Zn49 1.941 . S
O55 C65 1.283 . S
O56 Zn49 1.965 . S
O56 C64 1.303 . S
O57 Zn50 1.938 . S
O57 C64 1.247 . S
O58 Zn50 1.906 . S
O58 C66 1.304 . S
O59 Zn47 1.924 . S
O59 C67 1.311 . S
O60 Zn51 1.977 . S
O60 C66 1.272 . S
O61 Zn51 1.910 . S
O61 C67 1.231 . S
C62 O46 1.225 1_556 S
C62 O68 1.298 . S
C63 O52 1.226 . S
C63 O53 1.307 . S
C64 O56 1.303 . S
C64 O57 1.247 . S
C65 O54 1.253 . S
C65 O55 1.283 . S
C66 O58 1.304 . S
C66 O60 1.272 . S
C67 O59 1.311 . S
C67 O61 1.231 . S
O68 Zn50 1.953 1_556 S
O68 C62 1.298 . S
O69 Zn70 1.953 . S
O69 C85 1.225 1_556 S
Zn70 O69 1.953 . S
Zn70 O71 1.949 . S
Zn70 O77 1.919 . S
Zn70 O82 1.924 . S
O71 Zn70 1.949 . S
O71 Zn72 1.923 . S
O71 Zn73 1.950 . S
O71 Zn74 1.945 . S
Zn72 O71 1.923 . S
Zn72 O75 1.933 . S
Zn72 O78 1.941 . S
Zn72 O79 1.965 . S
Zn73 O71 1.950 . S
Zn73 O80 1.938 . S
Zn73 O81 1.906 . S
Zn73 O91 1.953 1_556 S
Zn74 O71 1.945 . S
Zn74 O76 1.932 . S
Zn74 O83 1.977 . S
Zn74 O84 1.910 . S
O75 Zn72 1.933 . S
O75 C86 1.226 . S
O76 Zn74 1.932 . S
O76 C86 1.307 . S
O77 Zn70 1.919 . S
O77 C88 1.253 . S
O78 Zn72 1.941 . S
O78 C88 1.283 . S
O79 Zn72 1.965 . S
O79 C87 1.303 . S
O80 Zn73 1.938 . S
O80 C87 1.247 . S
O81 Zn73 1.906 . S
O81 C89 1.304 . S
O82 Zn70 1.924 . S
O82 C90 1.311 . S
O83 Zn74 1.977 . S
O83 C89 1.272 . S
O84 Zn74 1.910 . S
O84 C90 1.231 . S
C85 O69 1.225 1_554 S
C85 O91 1.298 . S
C86 O75 1.226 . S
C86 O76 1.307 . S
C87 O79 1.303 . S
C87 O80 1.247 . S
C88 O77 1.253 . S
C88 O78 1.283 . S
C89 O81 1.304 . S
C89 O83 1.272 . S
C90 O82 1.311 . S
C90 O84 1.231 . S
O91 Zn73 1.953 1_554 S
O91 C85 1.298 . S
O92 Zn93 1.953 . S
O92 C108 1.225 1_556 S
Zn93 O92 1.953 . S
Zn93 O94 1.949 . S
Zn93 O100 1.919 . S
Zn93 O105 1.924 . S
O94 Zn93 1.949 . S
O94 Zn95 1.923 . S
O94 Zn96 1.950 . S
O94 Zn97 1.945 . S
Zn95 O94 1.923 . S
Zn95 O98 1.933 . S
Zn95 O101 1.941 . S
Zn95 O102 1.965 . S
Zn96 O94 1.950 . S
Zn96 O103 1.938 . S
Zn96 O104 1.906 . S
Zn96 O114 1.953 1_556 S
Zn97 O94 1.945 . S
Zn97 O99 1.932 . S
Zn97 O106 1.977 . S
Zn97 O107 1.910 . S
O98 Zn95 1.933 . S
O98 C109 1.226 . S
O99 Zn97 1.932 . S
O99 C109 1.307 . S
O100 Zn93 1.919 . S
O100 C111 1.253 . S
O101 Zn95 1.941 . S
O101 C111 1.283 . S
O102 Zn95 1.965 . S
O102 C110 1.303 . S
O103 Zn96 1.938 . S
O103 C110 1.247 . S
O104 Zn96 1.906 . S
O104 C112 1.304 . S
O105 Zn93 1.924 . S
O105 C113 1.311 . S
O106 Zn97 1.977 . S
O106 C112 1.272 . S
O107 Zn97 1.910 . S
O107 C113 1.231 . S
C108 O92 1.225 1_554 S
C108 O114 1.298 . S
C109 O98 1.226 . S
C109 O99 1.307 . S
C110 O102 1.303 . S
C110 O103 1.247 . S
C111 O100 1.253 . S
C111 O101 1.283 . S
C112 O104 1.304 . S
C112 O106 1.272 . S
C113 O105 1.311 . S
C113 O107 1.231 . S
O114 Zn96 1.953 1_554 S
O114 C108 1.298 . S
O115 Zn116 1.953 . S
O115 C131 1.225 1_556 S
Zn116 O115 1.953 . S
Zn116 O117 1.949 . S
Zn116 O123 1.919 . S
Zn116 O128 1.924 . S
O117 Zn116 1.949 . S
O117 Zn118 1.923 . S
O117 Zn119 1.950 . S
O117 Zn120 1.945 . S
Zn118 O117 1.923 . S
Zn118 O121 1.933 . S
Zn118 O124 1.941 . S
Zn118 O125 1.965 . S
Zn119 O117 1.950 . S
Zn119 O126 1.938 . S
Zn119 O127 1.906 . S
Zn119 O137 1.953 1_556 S
Zn120 O117 1.945 . S
Zn120 O122 1.932 . S
Zn120 O129 1.977 . S
Zn120 O130 1.910 . S
O121 Zn118 1.933 . S
O121 C132 1.226 . S
O122 Zn120 1.932 . S
O122 C132 1.307 . S
O123 Zn116 1.919 . S
O123 C134 1.253 . S
O124 Zn118 1.941 . S
O124 C134 1.283 . S
O125 Zn118 1.965 . S
O125 C133 1.303 . S
O126 Zn119 1.938 . S
O126 C133 1.247 . S
O127 Zn119 1.906 . S
O127 C135 1.304 . S
O128 Zn116 1.924 . S
O128 C136 1.311 . S
O129 Zn120 1.977 . S
O129 C135 1.272 . S
O130 Zn120 1.910 . S
O130 C136 1.231 . S
C131 O115 1.225 1_554 S
C131 O137 1.298 . S
C132 O121 1.226 . S
C132 O122 1.307 . S
C133 O125 1.303 . S
C133 O126 1.247 . S
C134 O123 1.253 . S
C134 O124 1.283 . S
C135 O127 1.304 . S
C135 O129 1.272 . S
C136 O128 1.311 . S
C136 O130 1.231 . S
O137 Zn119 1.953 1_554 S
O137 C131 1.298 . S
O138 Zn139 1.953 . S
O138 C154 1.225 . S
Zn139 O138 1.953 . S
Zn139 O140 1.949 . S
Zn139 O146 1.919 . S
Zn139 O151 1.924 . S
O140 Zn139 1.949 . S
O140 Zn141 1.923 . S
O140 Zn142 1.950 . S
O140 Zn143 1.945 . S
Zn141 O140 1.923 . S
Zn141 O144 1.933 . S
Zn141 O147 1.941 . S
Zn141 O148 1.965 . S
Zn142 O140 1.950 . S
Zn142 O149 1.938 . S
Zn142 O150 1.906 . S
Zn142 O160 1.953 . S
Zn143 O140 1.945 . S
Zn143 O145 1.932 . S
Zn143 O152 1.977 . S
Zn143 O153 1.910 . S
O144 Zn141 1.933 . S
O144 C155 1.226 . S
O145 Zn143 1.932 . S
O145 C155 1.307 . S
O146 Zn139 1.919 . S
O146 C157 1.253 . S
O147 Zn141 1.941 . S
O147 C157 1.283 . S
O148 Zn141 1.965 . S
O148 C156 1.303 . S
O149 Zn142 1.938 . S
O149 C156 1.247 . S
O150 Zn142 1.906 . S
O150 C158 1.304 . S
O151 Zn139 1.924 . S
O151 C159 1.311 . S
O152 Zn143 1.977 . S
O152 C158 1.272 . S
O153 Zn143 1.910 . S
O153 C159 1.231 . S
C154 O138 1.225 . S
C154 O160 1.298 . S
C155 O144 1.226 . S
C155 O145 1.307 . S
C156 O148 1.303 . S
C156 O149 1.247 . S
C157 O146 1.253 . S
C157 O147 1.283 . S
C158 O150 1.304 . S
C158 O152 1.272 . S
C159 O151 1.311 . S
C159 O153 1.231 . S
O160 Zn142 1.953 . S
O160 C154 1.298 . S
O161 Zn162 1.953 . S
O161 C177 1.225 . S
Zn162 O161 1.953 . S
Zn162 O163 1.949 . S
Zn162 O169 1.919 . S
Zn162 O174 1.924 . S
O163 Zn162 1.949 . S
O163 Zn164 1.923 . S
O163 Zn165 1.950 . S
O163 Zn166 1.945 . S
Zn164 O163 1.923 . S
Zn164 O167 1.933 . S
Zn164 O170 1.941 . S
Zn164 O171 1.965 . S
Zn165 O163 1.950 . S
Zn165 O172 1.938 . S
Zn165 O173 1.906 . S
Zn165 O183 1.953 . S
Zn166 O163 1.945 . S
Zn166 O168 1.932 . S
Zn166 O175 1.977 . S
Zn166 O176 1.910 . S
O167 Zn164 1.933 . S
O167 C178 1.226 . S
O168 Zn166 1.932 . S
O168 C178 1.307 . S
O169 Zn162 1.919 . S
O169 C180 1.253 . S
O170 Zn164 1.941 . S
O170 C180 1.283 . S
O171 Zn164 1.965 . S
O171 C179 1.303 . S
O172 Zn165 1.938 . S
O172 C179 1.247 . S
O173 Zn165 1.906 . S
O173 C181 1.304 . S
O174 Zn162 1.924 . S
O174 C182 1.311 . S
O175 Zn166 1.977 . S
O175 C181 1.272 . S
O176 Zn166 1.910 . S
O176 C182 1.231 . S
C177 O161 1.225 . S
C177 O183 1.298 . S
C178 O167 1.226 . S
C178 O168 1.307 . S
C179 O171 1.303 . S
C179 O172 1.247 . S
C180 O169 1.253 . S
C180 O170 1.283 . S
C181 O173 1.304 . S
C181 O175 1.272 . S
C182 O174 1.311 . S
C182 O176 1.231 . S
O183 Zn165 1.953 . S
O183 C177 1.298 . S
O184 Zn185 1.953 . S
O184 C200 1.225 . S
Zn185 O184 1.953 . S
Zn185 O186 1.949 . S
Zn185 O192 1.919 . S
Zn185 O197 1.924 . S
O186 Zn185 1.949 . S
O186 Zn187 1.923 . S
O186 Zn188 1.950 . S
O186 Zn189 1.945 . S
Zn187 O186 1.923 . S
Zn187 O190 1.933 . S
Zn187 O193 1.941 . S
Zn187 O194 1.965 . S
Zn188 O186 1.950 . S
Zn188 O195 1.938 . S
Zn188 O196 1.906 . S
Zn188 O206 1.953 . S
Zn189 O186 1.945 . S
Zn189 O191 1.932 . S
Zn189 O198 1.977 . S
Zn189 O199 1.910 . S
O190 Zn187 1.933 . S
O190 C201 1.226 . S
O191 Zn189 1.932 . S
O191 C201 1.307 . S
O192 Zn185 1.919 . S
O192 C203 1.253 . S
O193 Zn187 1.941 . S
O193 C203 1.283 . S
O194 Zn187 1.965 . S
O194 C202 1.303 . S
O195 Zn188 1.938 . S
O195 C202 1.247 . S
O196 Zn188 1.906 . S
O196 C204 1.304 . S
O197 Zn185 1.924 . S
O197 C205 1.311 . S
O198 Zn189 1.977 . S
O198 C204 1.272 . S
O199 Zn189 1.910 . S
O199 C205 1.231 . S
C200 O184 1.225 . S
C200 O206 1.298 . S
C201 O190 1.226 . S
C201 O191 1.307 . S
C202 O194 1.303 . S
C202 O195 1.247 . S
C203 O192 1.253 . S
C203 O193 1.283 . S
C204 O196 1.304 . S
C204 O198 1.272 . S
C205 O197 1.311 . S
C205 O199 1.231 . S
O206 Zn188 1.953 . S
O206 C200 1.298 . S
O207 Zn208 1.953 . S
O207 C223 1.225 . S
Zn208 O207 1.953 . S
Zn208 O209 1.949 . S
Zn208 O215 1.919 . S
Zn208 O220 1.924 . S
O209 Zn208 1.949 . S
O209 Zn210 1.923 . S
O209 Zn211 1.950 . S
O209 Zn212 1.945 . S
Zn210 O209 1.923 . S
Zn210 O213 1.933 . S
Zn210 O216 1.941 . S
Zn210 O217 1.965 . S
Zn211 O209 1.950 . S
Zn211 O218 1.938 . S
Zn211 O219 1.906 . S
Zn211 O229 1.953 . S
Zn212 O209 1.945 . S
Zn212 O214 1.932 . S
Zn212 O221 1.977 . S
Zn212 O222 1.910 . S
O213 Zn210 1.933 . S
O213 C224 1.226 . S
O214 Zn212 1.932 . S
O214 C224 1.307 . S
O215 Zn208 1.919 . S
O215 C226 1.253 . S
O216 Zn210 1.941 . S
O216 C226 1.283 . S
O217 Zn210 1.965 . S
O217 C225 1.303 . S
O218 Zn211 1.938 . S
O218 C225 1.247 . S
O219 Zn211 1.906 . S
O219 C227 1.304 . S
O220 Zn208 1.924 . S
O220 C228 1.311 . S
O221 Zn212 1.977 . S
O221 C227 1.272 . S
O222 Zn212 1.910 . S
O222 C228 1.231 . S
C223 O207 1.225 . S
C223 O229 1.298 . S
C224 O213 1.226 . S
C224 O214 1.307 . S
C225 O217 1.303 . S
C225 O218 1.247 . S
C226 O215 1.253 . S
C226 O216 1.283 . S
C227 O219 1.304 . S
C227 O221 1.272 . S
C228 O220 1.311 . S
C228 O222 1.231 . S
O229 Zn211 1.953 . S
O229 C223 1.298 . S
O230 Zn231 1.953 . S
O230 C246 1.225 . S
Zn231 O230 1.953 . S
Zn231 O232 1.949 . S
Zn231 O238 1.919 . S
Zn231 O243 1.924 . S
O232 Zn231 1.949 . S
O232 Zn233 1.923 . S
O232 Zn234 1.950 . S
O232 Zn235 1.945 . S
Zn233 O232 1.923 . S
Zn233 O236 1.933 . S
Zn233 O239 1.941 . S
Zn233 O240 1.965 . S
Zn234 O232 1.950 . S
Zn234 O241 1.938 . S
Zn234 O242 1.906 . S
Zn234 O252 1.953 . S
Zn235 O232 1.945 . S
Zn235 O237 1.932 . S
Zn235 O244 1.977 . S
Zn235 O245 1.910 . S
O236 Zn233 1.933 . S
O236 C247 1.226 . S
O237 Zn235 1.932 . S
O237 C247 1.307 . S
O238 Zn231 1.919 . S
O238 C249 1.253 . S
O239 Zn233 1.941 . S
O239 C249 1.283 . S
O240 Zn233 1.965 . S
O240 C248 1.303 . S
O241 Zn234 1.938 . S
O241 C248 1.247 . S
O242 Zn234 1.906 . S
O242 C250 1.304 . S
O243 Zn231 1.924 . S
O243 C251 1.311 . S
O244 Zn235 1.977 . S
O244 C250 1.272 . S
O245 Zn235 1.910 . S
O245 C251 1.231 . S
C246 O230 1.225 . S
C246 O252 1.298 . S
C247 O236 1.226 . S
C247 O237 1.307 . S
C248 O240 1.303 . S
C248 O241 1.247 . S
C249 O238 1.253 . S
C249 O239 1.283 . S
C250 O242 1.304 . S
C250 O244 1.272 . S
C251 O243 1.311 . S
C251 O245 1.231 . S
O252 Zn234 1.953 . S
O252 C246 1.298 . S
O253 Zn254 1.953 . S
O253 C269 1.225 . S
Zn254 O253 1.953 . S
Zn254 O255 1.949 . S
Zn254 O261 1.919 . S
Zn254 O266 1.924 . S
O255 Zn254 1.949 . S
O255 Zn256 1.923 . S
O255 Zn257 1.950 . S
O255 Zn258 1.945 . S
Zn256 O255 1.923 . S
Zn256 O259 1.933 . S
Zn256 O262 1.941 . S
Zn256 O263 1.965 . S
Zn257 O255 1.950 . S
Zn257 O264 1.938 . S
Zn257 O265 1.906 . S
Zn257 O275 1.953 . S
Zn258 O255 1.945 . S
Zn258 O260 1.932 . S
Zn258 O267 1.977 . S
Zn258 O268 1.910 . S
O259 Zn256 1.933 . S
O259 C270 1.226 . S
O260 Zn258 1.932 . S
O260 C270 1.307 . S
O261 Zn254 1.919 . S
O261 C272 1.253 . S
O262 Zn256 1.941 . S
O262 C272 1.283 . S
O263 Zn256 1.965 . S
O263 C271 1.303 . S
O264 Zn257 1.938 . S
O264 C271 1.247 . S
O265 Zn257 1.906 . S
O265 C273 1.304 . S
O266 Zn254 1.924 . S
O266 C274 1.311 . S
O267 Zn258 1.977 . S
O267 C273 1.272 . S
O268 Zn258 1.910 . S
O268 C274 1.231 . S
C269 O253 1.225 . S
C269 O275 1.298 . S
C270 O259 1.226 . S
C270 O260 1.307 . S
C271 O263 1.303 . S
C271 O264 1.247 . S
C272 O261 1.253 . S
C272 O262 1.283 . S
C273 O265 1.304 . S
C273 O267 1.272 . S
C274 O266 1.311 . S
C274 O268 1.231 . S
O275 Zn257 1.953 . S
O275 C269 1.298 . S
O276 Zn277 1.953 . S
O276 C292 1.225 . S
Zn277 O276 1.953 . S
Zn277 O278 1.949 . S
Zn277 O284 1.919 . S
Zn277 O289 1.924 . S
O278 Zn277 1.949 . S
O278 Zn279 1.923 . S
O278 Zn280 1.950 . S
O278 Zn281 1.945 . S
Zn279 O278 1.923 . S
Zn279 O282 1.933 . S
Zn279 O285 1.941 . S
Zn279 O286 1.965 . S
Zn280 O278 1.950 . S
Zn280 O287 1.938 . S
Zn280 O288 1.906 . S
Zn280 O298 1.953 . S
Zn281 O278 1.945 . S
Zn281 O283 1.932 . S
Zn281 O290 1.977 . S
Zn281 O291 1.910 . S
O282 Zn279 1.933 . S
O282 C293 1.226 . S
O283 Zn281 1.932 . S
O283 C293 1.307 . S
O284 Zn277 1.919 . S
O284 C295 1.253 . S
O285 Zn279 1.941 . S
O285 C295 1.283 . S
O286 Zn279 1.965 . S
O286 C294 1.303 . S
O287 Zn280 1.938 . S
O287 C294 1.247 . S
O288 Zn280 1.906 . S
O288 C296 1.304 . S
O289 Zn277 1.924 . S
O289 C297 1.311 . S
O290 Zn281 1.977 . S
O290 C296 1.272 . S
O291 Zn281 1.910 . S
O291 C297 1.231 . S
C292 O276 1.225 . S
C292 O298 1.298 . S
C293 O282 1.226 . S
C293 O283 1.307 . S
C294 O286 1.303 . S
C294 O287 1.247 . S
C295 O284 1.253 . S
C295 O285 1.283 . S
C296 O288 1.304 . S
C296 O290 1.272 . S
C297 O289 1.311 . S
C297 O291 1.231 . S
O298 Zn280 1.953 . S
O298 C292 1.298 . S
O299 Zn300 1.953 . S
O299 C315 1.225 . S
Zn300 O299 1.953 . S
Zn300 O301 1.949 . S
Zn300 O307 1.919 . S
Zn300 O312 1.924 . S
O301 Zn300 1.949 . S
O301 Zn302 1.923 . S
O301 Zn303 1.950 . S
O301 Zn304 1.945 . S
Zn302 O301 1.923 . S
Zn302 O305 1.933 . S
Zn302 O308 1.941 . S
Zn302 O309 1.965 . S
Zn303 O301 1.950 . S
Zn303 O310 1.938 . S
Zn303 O311 1.906 . S
Zn303 O321 1.953 . S
Zn304 O301 1.945 . S
Zn304 O306 1.932 . S
Zn304 O313 1.977 . S
Zn304 O314 1.910 . S
O305 Zn302 1.933 . S
O305 C316 1.226 . S
O306 Zn304 1.932 . S
O306 C316 1.307 . S
O307 Zn300 1.919 . S
O307 C318 1.253 . S
O308 Zn302 1.941 . S
O308 C318 1.283 . S
O309 Zn302 1.965 . S
O309 C317 1.303 . S
O310 Zn303 1.938 . S
O310 C317 1.247 . S
O311 Zn303 1.906 . S
O311 C319 1.304 . S
O312 Zn300 1.924 . S
O312 C320 1.311 . S
O313 Zn304 1.977 . S
O313 C319 1.272 . S
O314 Zn304 1.910 . S
O314 C320 1.231 . S
C315 O299 1.225 . S
C315 O321 1.298 . S
C316 O305 1.226 . S
C316 O306 1.307 . S
C317 O309 1.303 . S
C317 O310 1.247 . S
C318 O307 1.253 . S
C318 O308 1.283 . S
C319 O311 1.304 . S
C319 O313 1.272 . S
C320 O312 1.311 . S
C320 O314 1.231 . S
O321 Zn303 1.953 . S
O321 C315 1.298 . S
O322 Zn323 1.953 . S
O322 C338 1.225 . S
Zn323 O322 1.953 . S
Zn323 O324 1.949 . S
Zn323 O330 1.919 . S
Zn323 O335 1.924 . S
O324 Zn323 1.949 . S
O324 Zn325 1.923 . S
O324 Zn326 1.950 . S
O324 Zn327 1.945 . S
Zn325 O324 1.923 . S
Zn325 O328 1.933 . S
Zn325 O331 1.941 . S
Zn325 O332 1.965 . S
Zn326 O324 1.950 . S
Zn326 O333 1.938 . S
Zn326 O334 1.906 . S
Zn326 O344 1.953 . S
Zn327 O324 1.945 . S
Zn327 O329 1.932 . S
Zn327 O336 1.977 . S
Zn327 O337 1.910 . S
O328 Zn325 1.933 . S
O328 C339 1.226 . S
O329 Zn327 1.932 . S
O329 C339 1.307 . S
O330 Zn323 1.919 . S
O330 C341 1.253 . S
O331 Zn325 1.941 . S
O331 C341 1.283 . S
O332 Zn325 1.965 . S
O332 C340 1.303 . S
O333 Zn326 1.938 . S
O333 C340 1.247 . S
O334 Zn326 1.906 . S
O334 C342 1.304 . S
O335 Zn323 1.924 . S
O335 C343 1.311 . S
O336 Zn327 1.977 . S
O336 C342 1.272 . S
O337 Zn327 1.910 . S
O337 C343 1.231 . S
C338 O322 1.225 . S
C338 O344 1.298 . S
C339 O328 1.226 . S
C339 O329 1.307 . S
C340 O332 1.303 . S
C340 O333 1.247 . S
C341 O330 1.253 . S
C341 O331 1.283 . S
C342 O334 1.304 . S
C342 O336 1.272 . S
C343 O335 1.311 . S
C343 O337 1.231 . S
O344 Zn326 1.953 . S
O344 C338 1.298 . S
O345 Zn346 1.953 . S
O345 C361 1.225 . S
Zn346 O345 1.953 . S
Zn346 O347 1.949 . S
Zn346 O353 1.919 . S
Zn346 O358 1.924 . S
O347 Zn346 1.949 . S
O347 Zn348 1.923 . S
O347 Zn349 1.950 . S
O347 Zn350 1.945 . S
Zn348 O347 1.923 . S
Zn348 O351 1.933 . S
Zn348 O354 1.941 . S
Zn348 O355 1.965 . S
Zn349 O347 1.950 . S
Zn349 O356 1.938 . S
Zn349 O357 1.906 . S
Zn349 O367 1.953 . S
Zn350 O347 1.945 . S
Zn350 O352 1.932 . S
Zn350 O359 1.977 . S
Zn350 O360 1.910 . S
O351 Zn348 1.933 . S
O351 C362 1.226 . S
O352 Zn350 1.932 . S
O352 C362 1.307 . S
O353 Zn346 1.919 . S
O353 C364 1.253 . S
O354 Zn348 1.941 . S
O354 C364 1.283 . S
O355 Zn348 1.965 . S
O355 C363 1.303 . S
O356 Zn349 1.938 . S
O356 C363 1.247 . S
O357 Zn349 1.906 . S
O357 C365 1.304 . S
O358 Zn346 1.924 . S
O358 C366 1.311 . S
O359 Zn350 1.977 . S
O359 C365 1.272 . S
O360 Zn350 1.910 . S
O360 C366 1.231 . S
C361 O345 1.225 . S
C361 O367 1.298 . S
C362 O351 1.226 . S
C362 O352 1.307 . S
C363 O355 1.303 . S
C363 O356 1.247 . S
C364 O353 1.253 . S
C364 O354 1.283 . S
C365 O357 1.304 . S
C365 O359 1.272 . S
C366 O358 1.311 . S
C366 O360 1.231 . S
O367 Zn349 1.953 . S
O367 C361 1.298 . S
O368 Zn369 1.953 . S
O368 C384 1.225 . S
Zn369 O368 1.953 . S
Zn369 O370 1.949 . S
Zn369 O376 1.919 . S
Zn369 O381 1.924 . S
O370 Zn369 1.949 . S
O370 Zn371 1.923 . S
O370 Zn372 1.950 . S
O370 Zn373 1.945 . S
Zn371 O370 1.923 . S
Zn371 O374 1.933 . S
Zn371 O377 1.941 . S
Zn371 O378 1.965 . S
Zn372 O370 1.950 . S
Zn372 O379 1.938 . S
Zn372 O380 1.906 . S
Zn372 O390 1.953 . S
Zn373 O370 1.945 . S
Zn373 O375 1.932 . S
Zn373 O382 1.977 . S
Zn373 O383 1.910 . S
O374 Zn371 1.933 . S
O374 C385 1.226 . S
O375 Zn373 1.932 . S
O375 C385 1.307 . S
O376 Zn369 1.919 . S
O376 C387 1.253 . S
O377 Zn371 1.941 . S
O377 C387 1.283 . S
O378 Zn371 1.965 . S
O378 C386 1.303 . S
O379 Zn372 1.938 . S
O379 C386 1.247 . S
O380 Zn372 1.906 . S
O380 C388 1.304 . S
O381 Zn369 1.924 . S
O381 C389 1.311 . S
O382 Zn373 1.977 . S
O382 C388 1.272 . S
O383 Zn373 1.910 . S
O383 C389 1.231 . S
C384 O368 1.225 . S
C384 O390 1.298 . S
C385 O374 1.226 . S
C385 O375 1.307 . S
C386 O378 1.303 . S
C386 O379 1.247 . S
C387 O376 1.253 . S
C387 O377 1.283 . S
C388 O380 1.304 . S
C388 O382 1.272 . S
C389 O381 1.311 . S
C389 O383 1.231 . S
O390 Zn372 1.953 . S
O390 C384 1.298 . S
O391 Zn392 1.953 . S
O391 C407 1.225 . S
Zn392 O391 1.953 . S
Zn392 O393 1.949 . S
Zn392 O399 1.919 . S
Zn392 O404 1.924 . S
O393 Zn392 1.949 . S
O393 Zn394 1.923 . S
O393 Zn395 1.950 . S
O393 Zn396 1.945 . S
Zn394 O393 1.923 . S
Zn394 O397 1.933 . S
Zn394 O400 1.941 . S
Zn394 O401 1.965 . S
Zn395 O393 1.950 . S
Zn395 O402 1.938 . S
Zn395 O403 1.906 . S
Zn395 O413 1.953 . S
Zn396 O393 1.945 . S
Zn396 O398 1.932 . S
Zn396 O405 1.977 . S
Zn396 O406 1.910 . S
O397 Zn394 1.933 . S
O397 C408 1.226 . S
O398 Zn396 1.932 . S
O398 C408 1.307 . S
O399 Zn392 1.919 . S
O399 C410 1.253 . S
O400 Zn394 1.941 . S
O400 C410 1.283 . S
O401 Zn394 1.965 . S
O401 C409 1.303 . S
O402 Zn395 1.938 . S
O402 C409 1.247 . S
O403 Zn395 1.906 . S
O403 C411 1.304 . S
O404 Zn392 1.924 . S
O404 C412 1.311 . S
O405 Zn396 1.977 . S
O405 C411 1.272 . S
O406 Zn396 1.910 . S
O406 C412 1.231 . S
C407 O391 1.225 . S
C407 O413 1.298 . S
C408 O397 1.226 . S
C408 O398 1.307 . S
C409 O401 1.303 . S
C409 O402 1.247 . S
C410 O399 1.253 . S
C410 O400 1.283 . S
C411 O403 1.304 . S
C411 O405 1.272 . S
C412 O404 1.311 . S
C412 O406 1.231 . S
O413 Zn395 1.953 . S
O413 C407 1.298 . S
H414 C422 0.929 . S
H415 C424 0.930 . S
H416 C426 0.930 . S
H417 C429 0.929 . S
H418 C432 0.930 . S
H419 C434 0.960 1_554 S
H420 C434 0.960 . S
H421 C434 0.960 1_554 S
C422 H414 0.929 . S
C422 C423 1.377 . S
C422 C424 1.384 . S
C423 C422 1.377 . S
C423 C429 1.390 . S
C424 H415 0.930 . S
C424 C422 1.384 . S
C424 C425 1.372 . S
C425 C424 1.372 . S
C425 C426 1.400 . S
C425 C430 1.490 . S
C426 H416 0.930 . S
C426 C425 1.400 . S
C426 C429 1.386 . S
H427 C443 0.930 . S
H428 C444 0.931 . S
C429 H417 0.929 . S
C429 C423 1.390 . S
C429 C426 1.386 . S
C430 C425 1.490 . S
C430 C432 1.395 . S
C430 C433 1.403 . S
H431 C437 0.930 1_554 S
C432 H418 0.930 . S
C432 C430 1.395 . S
C432 C435 1.403 . S
C433 C430 1.403 . S
C433 C434 1.524 . S
C433 C437 1.400 . S
C434 H419 0.960 1_556 S
C434 H420 0.960 . S
C434 H421 0.960 1_556 S
C434 C433 1.524 . S
C435 C432 1.403 . S
C435 C436 1.392 . S
C435 C439 1.495 . S
C436 C435 1.392 . S
C436 C437 1.385 . S
C436 C438 1.478 . S
C437 H431 0.930 1_556 S
C437 C433 1.400 . S
C437 C436 1.385 . S
C438 C436 1.478 . S
C438 C440 1.381 . S
C438 C444 1.383 1_556 S
C439 C435 1.495 . S
C439 H445 0.959 . S
C439 H446 0.961 . S
C439 H447 0.960 . S
C440 C438 1.381 . S
C440 C441 1.394 . S
C440 H448 0.930 . S
C441 C440 1.394 . S
C441 C442 1.383 1_556 S
C441 H449 0.929 . S
C442 C441 1.383 1_554 S
C442 C443 1.377 . S
C443 H427 0.930 . S
C443 C442 1.377 . S
C443 C444 1.379 . S
C444 H428 0.931 . S
C444 C438 1.383 1_554 S
C444 C443 1.379 . S
H445 C439 0.959 . S
H446 C439 0.961 . S
H447 C439 0.960 . S
H448 C440 0.930 . S
H449 C441 0.929 . S
H450 C458 0.929 . S
H451 C460 0.930 . S
H452 C462 0.930 . S
H453 C465 0.929 . S
H454 C468 0.930 . S
H455 C470 0.960 . S
H456 C470 0.960 . S
H457 C470 0.960 . S
C458 H450 0.929 . S
C458 C459 1.377 1_556 S
C458 C460 1.384 . S
C459 C458 1.377 1_554 S
C459 C465 1.390 . S
C460 H451 0.930 . S
C460 C458 1.384 . S
C460 C461 1.372 1_565 S
C461 C460 1.372 1_545 S
C461 C462 1.400 1_556 S
C461 C466 1.490 . S
C462 H452 0.930 . S
C462 C461 1.400 1_554 S
C462 C465 1.386 1_545 S
H463 C479 0.930 . S
H464 C480 0.931 . S
C465 H453 0.929 . S
C465 C459 1.390 . S
C465 C462 1.386 1_565 S
C466 C461 1.490 . S
C466 C468 1.395 . S
C466 C469 1.403 . S
H467 C473 0.930 . S
C468 H454 0.930 . S
C468 C466 1.395 . S
C468 C471 1.403 . S
C469 C466 1.403 . S
C469 C470 1.524 1_556 S
C469 C473 1.400 . S
C470 H455 0.960 . S
C470 H456 0.960 . S
C470 H457 0.960 . S
C470 C469 1.524 1_554 S
C471 C468 1.403 . S
C471 C472 1.392 . S
C471 C475 1.495 . S
C472 C471 1.392 . S
C472 C473 1.385 . S
C472 C474 1.478 . S
C473 H467 0.930 . S
C473 C469 1.400 . S
C473 C472 1.385 . S
C474 C472 1.478 . S
C474 C476 1.381 . S
C474 C480 1.383 . S
C475 C471 1.495 . S
C475 H481 0.959 . S
C475 H482 0.961 . S
C475 H483 0.960 . S
C476 C474 1.381 . S
C476 C477 1.394 . S
C476 H484 0.930 . S
C477 C476 1.394 . S
C477 C478 1.383 . S
C477 H485 0.929 . S
C478 C477 1.383 . S
C478 C479 1.377 . S
C479 H463 0.930 . S
C479 C478 1.377 . S
C479 C480 1.379 . S
C480 H464 0.931 . S
C480 C474 1.383 . S
C480 C479 1.379 . S
H481 C475 0.959 . S
H482 C475 0.961 . S
H483 C475 0.960 . S
H484 C476 0.930 . S
H485 C477 0.929 . S
H486 C494 0.929 . S
H487 C496 0.930 . S
H488 C498 0.930 . S
H489 C501 0.929 . S
H490 C504 0.930 . S
H491 C506 0.960 . S
H492 C506 0.960 . S
H493 C506 0.960 . S
C494 H486 0.929 . S
C494 C495 1.377 . S
C494 C496 1.384 . S
C495 C494 1.377 . S
C495 C501 1.390 . S
C496 H487 0.930 . S
C496 C494 1.384 . S
C496 C497 1.372 . S
C497 C496 1.372 . S
C497 C498 1.400 . S
C497 C502 1.490 . S
C498 H488 0.930 . S
C498 C497 1.400 . S
C498 C501 1.386 . S
H499 C515 0.930 . S
H500 C516 0.931 . S
C501 H489 0.929 . S
C501 C495 1.390 . S
C501 C498 1.386 . S
C502 C497 1.490 . S
C502 C504 1.395 . S
C502 C505 1.403 . S
H503 C509 0.930 1_554 S
C504 H490 0.930 . S
C504 C502 1.395 . S
C504 C507 1.403 . S
C505 C502 1.403 . S
C505 C506 1.524 1_556 S
C505 C509 1.400 . S
C506 H491 0.960 . S
C506 H492 0.960 . S
C506 H493 0.960 . S
C506 C505 1.524 1_554 S
C507 C504 1.403 . S
C507 C508 1.392 . S
C507 C511 1.495 . S
C508 C507 1.392 . S
C508 C509 1.385 . S
C508 C510 1.478 . S
C509 H503 0.930 1_556 S
C509 C505 1.400 . S
C509 C508 1.385 . S
C510 C508 1.478 . S
C510 C512 1.379 1_556 S
C510 C516 1.383 1_655 S
C511 C507 1.495 . S
C511 H517 0.959 . S
C511 H518 0.961 . S
C511 H519 0.960 . S
C512 C510 1.379 1_554 S
C512 C513 1.397 1_655 S
C512 H520 0.930 . S
C513 C512 1.397 1_455 S
C513 C514 1.383 . S
C513 H521 0.929 . S
C514 C513 1.383 . S
C514 C515 1.384 . S
C515 H499 0.930 . S
C515 C514 1.384 . S
C515 C516 1.372 1_554 S
C516 H500 0.931 . S
C516 C510 1.383 1_455 S
C516 C515 1.372 1_556 S
H517 C511 0.959 . S
H518 C511 0.961 . S
H519 C511 0.960 . S
H520 C512 0.930 . S
H521 C513 0.929 . S
H522 C530 0.929 . S
H523 C532 0.930 . S
H524 C534 0.930 . S
H525 C537 0.929 . S
H526 C540 0.930 . S
H527 C542 0.960 . S
H528 C542 0.960 . S
H529 C542 0.960 . S
C530 H522 0.929 . S
C530 C531 1.377 . S
C530 C532 1.384 . S
C531 C530 1.377 . S
C531 C537 1.390 1_556 S
C532 H523 0.930 . S
C532 C530 1.384 . S
C532 C533 1.372 1_556 S
C533 C532 1.372 1_554 S
C533 C534 1.400 . S
C533 C538 1.490 . S
C534 H524 0.930 . S
C534 C533 1.400 . S
C534 C537 1.386 . S
H535 C551 0.930 . S
H536 C552 0.931 . S
C537 H525 0.929 . S
C537 C531 1.390 1_554 S
C537 C534 1.386 . S
C538 C533 1.490 . S
C538 C540 1.395 1_554 S
C538 C541 1.403 . S
H539 C545 0.930 . S
C540 H526 0.930 . S
C540 C538 1.395 1_556 S
C540 C543 1.403 1_556 S
C541 C538 1.403 . S
C541 C542 1.524 . S
C541 C545 1.400 . S
C542 H527 0.960 . S
C542 H528 0.960 . S
C542 H529 0.960 . S
C542 C541 1.524 . S
C543 C540 1.403 1_554 S
C543 C544 1.392 . S
C543 C547 1.495 1_554 S
C544 C543 1.392 . S
C544 C545 1.385 . S
C544 C546 1.478 . S
C545 H539 0.930 . S
C545 C541 1.400 . S
C545 C544 1.385 . S
C546 C544 1.478 . S
C546 C548 1.381 . S
C546 C552 1.383 . S
C547 C543 1.495 1_556 S
C547 H553 0.959 . S
C547 H554 0.961 1_556 S
C547 H555 0.960 . S
C548 C546 1.381 . S
C548 C549 1.394 . S
C548 H556 0.930 . S
C549 C548 1.394 . S
C549 C550 1.383 . S
C549 H557 0.929 . S
C550 C549 1.383 . S
C550 C551 1.377 . S
C551 H535 0.930 . S
C551 C550 1.377 . S
C551 C552 1.379 . S
C552 H536 0.931 . S
C552 C546 1.383 . S
C552 C551 1.379 . S
H553 C547 0.959 . S
H554 C547 0.961 1_554 S
H555 C547 0.960 . S
H556 C548 0.930 . S
H557 C549 0.929 . S
H558 C566 0.929 . S
H559 C568 0.928 1_554 S
H560 C570 0.927 . S
H561 C573 0.929 . S
H562 C576 0.930 . S
H563 C578 0.960 . S
H564 C578 0.960 . S
H565 C578 0.960 . S
C566 H558 0.929 . S
C566 C567 1.377 . S
C566 C568 1.384 1_545 S
C567 C566 1.377 . S
C567 C573 1.390 . S
C568 H559 0.928 1_556 S
C568 C566 1.384 1_565 S
C568 C569 1.372 1_556 S
C569 C568 1.372 1_554 S
C569 C570 1.400 1_565 S
C569 C574 1.490 . S
C570 H560 0.927 . S
C570 C569 1.400 1_545 S
C570 C573 1.386 1_554 S
H571 C587 0.930 . S
H572 C588 0.931 . S
C573 H561 0.929 . S
C573 C567 1.390 . S
C573 C570 1.386 1_556 S
C574 C569 1.490 . S
C574 C576 1.395 . S
C574 C577 1.412 . S
H575 C581 0.930 . S
C576 H562 0.930 . S
C576 C574 1.395 . S
C576 C579 1.403 . S
C577 C574 1.412 . S
C577 C578 1.508 1_554 S
C577 C581 1.407 . S
C578 H563 0.960 . S
C578 H564 0.960 . S
C578 H565 0.960 . S
C578 C577 1.508 1_556 S
C579 C576 1.403 . S
C579 C580 1.392 . S
C579 C583 1.495 . S
C580 C579 1.392 . S
C580 C581 1.385 . S
C580 C582 1.478 . S
C581 H575 0.930 . S
C581 C577 1.407 . S
C581 C580 1.385 . S
C582 C580 1.478 . S
C582 C584 1.381 . S
C582 C588 1.383 . S
C583 C579 1.495 . S
C583 H589 0.959 . S
C583 H590 0.961 . S
C583 H591 0.960 . S
C584 C582 1.381 . S
C584 C585 1.394 . S
C584 H592 0.930 . S
C585 C584 1.394 . S
C585 C586 1.383 . S
C585 H593 0.929 . S
C586 C585 1.383 . S
C586 C587 1.377 . S
C587 H571 0.930 . S
C587 C586 1.377 . S
C587 C588 1.379 . S
C588 H572 0.931 . S
C588 C582 1.383 . S
C588 C587 1.379 . S
H589 C583 0.959 . S
H590 C583 0.961 . S
H591 C583 0.960 . S
H592 C584 0.930 . S
H593 C585 0.929 . S
H594 C602 0.929 . S
H595 C604 0.930 . S
H596 C606 0.930 . S
H597 C609 0.929 . S
H598 C612 0.930 1_556 S
H599 C614 0.960 . S
H600 C614 0.960 . S
H601 C614 0.960 . S
C602 H594 0.929 . S
C602 C603 1.377 . S
C602 C604 1.384 . S
C603 C602 1.377 . S
C603 C609 1.390 . S
C604 H595 0.930 . S
C604 C602 1.384 . S
C604 C605 1.372 . S
C605 C604 1.372 . S
C605 C606 1.400 . S
C605 C610 1.490 . S
C606 H596 0.930 . S
C606 C605 1.400 . S
C606 C609 1.386 . S
H607 C623 0.930 . S
H608 C624 0.966 . S
C609 H597 0.929 . S
C609 C603 1.390 . S
C609 C606 1.386 . S
C610 C605 1.490 . S
C610 C612 1.395 . S
C610 C613 1.403 . S
H611 C617 0.930 . S
C612 H598 0.930 1_554 S
C612 C610 1.395 . S
C612 C615 1.403 1_554 S
C613 C610 1.403 . S
C613 C614 1.524 . S
C613 C617 1.400 . S
C614 H599 0.960 . S
C614 H600 0.960 . S
C614 H601 0.960 . S
C614 C613 1.524 . S
C615 C612 1.403 1_556 S
C615 C616 1.392 1_556 S
C615 C619 1.495 . S
C616 C615 1.392 1_554 S
C616 C617 1.385 . S
C616 C618 1.476 1_554 S
C617 H611 0.930 . S
C617 C613 1.400 . S
C617 C616 1.385 . S
C618 C616 1.476 1_556 S
C618 C620 1.383 . S
C618 C624 1.382 1_456 S
C619 C615 1.495 . S
C619 H625 0.959 . S
C619 H626 0.961 . S
C619 H627 0.960 . S
C620 C618 1.383 . S
C620 C621 1.394 1_455 S
C620 H628 0.930 . S
C621 C620 1.394 1_655 S
C621 C622 1.383 . S
C621 H629 0.929 . S
C622 C621 1.383 . S
C622 C623 1.377 . S
C623 H607 0.930 . S
C623 C622 1.377 . S
C623 C624 1.379 1_556 S
C624 H608 0.966 . S
C624 C618 1.382 1_654 S
C624 C623 1.379 1_554 S
H625 C619 0.959 . S
H626 C619 0.961 . S
H627 C619 0.960 . S
H628 C620 0.930 . S
H629 C621 0.929 . S
H630 C638 0.929 . S
H631 C640 0.930 . S
H632 C642 0.930 . S
H633 C645 0.929 . S
H634 C648 0.930 . S
H635 C650 0.960 . S
H636 C650 0.960 . S
H637 C650 0.960 . S
C638 H630 0.929 . S
C638 C639 1.377 . S
C638 C640 1.384 . S
C639 C638 1.377 . S
C639 C645 1.390 . S
C640 H631 0.930 . S
C640 C638 1.384 . S
C640 C641 1.372 . S
C641 C640 1.372 . S
C641 C642 1.400 . S
C641 C646 1.490 . S
C642 H632 0.930 . S
C642 C641 1.400 . S
C642 C645 1.386 . S
H643 C659 0.930 . S
H644 C660 0.931 . S
C645 H633 0.929 . S
C645 C639 1.390 . S
C645 C642 1.386 . S
C646 C641 1.490 . S
C646 C648 1.395 . S
C646 C649 1.403 . S
H647 C653 0.930 . S
C648 H634 0.930 . S
C648 C646 1.395 . S
C648 C651 1.403 . S
C649 C646 1.403 . S
C649 C650 1.524 . S
C649 C653 1.400 . S
C650 H635 0.960 . S
C650 H636 0.960 . S
C650 H637 0.960 . S
C650 C649 1.524 . S
C651 C648 1.403 . S
C651 C652 1.392 . S
C651 C655 1.495 . S
C652 C651 1.392 . S
C652 C653 1.385 . S
C652 C654 1.478 . S
C653 H647 0.930 . S
C653 C649 1.400 . S
C653 C652 1.385 . S
C654 C652 1.478 . S
C654 C656 1.381 . S
C654 C660 1.383 . S
C655 C651 1.495 . S
C655 H661 0.959 . S
C655 H662 0.961 . S
C655 H663 0.960 . S
C656 C654 1.381 . S
C656 C657 1.394 . S
C656 H664 0.930 . S
C657 C656 1.394 . S
C657 C658 1.383 . S
C657 H665 0.929 . S
C658 C657 1.383 . S
C658 C659 1.377 . S
C659 H643 0.930 . S
C659 C658 1.377 . S
C659 C660 1.379 . S
C660 H644 0.931 . S
C660 C654 1.383 . S
C660 C659 1.379 . S
H661 C655 0.959 . S
H662 C655 0.961 . S
H663 C655 0.960 . S
H664 C656 0.930 . S
H665 C657 0.929 . S
H666 C674 0.929 . S
H667 C676 0.930 . S
H668 C678 0.930 . S
H669 C681 0.929 . S
H670 C684 0.930 . S
H671 C686 0.960 . S
H672 C686 0.960 . S
H673 C686 0.960 . S
C674 H666 0.929 . S
C674 C675 1.377 . S
C674 C676 1.384 . S
C675 C674 1.377 . S
C675 C681 1.390 . S
C676 H667 0.930 . S
C676 C674 1.384 . S
C676 C677 1.372 . S
C677 C676 1.372 . S
C677 C678 1.400 . S
C677 C682 1.490 . S
C678 H668 0.930 . S
C678 C677 1.400 . S
C678 C681 1.386 . S
H679 C695 0.930 . S
H680 C696 0.931 . S
C681 H669 0.929 . S
C681 C675 1.390 . S
C681 C678 1.386 . S
C682 C677 1.490 . S
C682 C684 1.395 . S
C682 C685 1.403 . S
H683 C689 0.930 . S
C684 H670 0.930 . S
C684 C682 1.395 . S
C684 C687 1.403 . S
C685 C682 1.403 . S
C685 C686 1.524 . S
C685 C689 1.400 . S
C686 H671 0.960 . S
C686 H672 0.960 . S
C686 H673 0.960 . S
C686 C685 1.524 . S
C687 C684 1.403 . S
C687 C688 1.392 . S
C687 C691 1.495 . S
C688 C687 1.392 . S
C688 C689 1.385 . S
C688 C690 1.478 . S
C689 H683 0.930 . S
C689 C685 1.400 . S
C689 C688 1.385 . S
C690 C688 1.478 . S
C690 C692 1.381 . S
C690 C696 1.383 . S
C691 C687 1.495 . S
C691 H697 0.959 . S
C691 H698 0.961 . S
C691 H699 0.960 . S
C692 C690 1.381 . S
C692 C693 1.394 . S
C692 H700 0.930 . S
C693 C692 1.394 . S
C693 C694 1.383 . S
C693 H701 0.929 . S
C694 C693 1.383 . S
C694 C695 1.377 . S
C695 H679 0.930 . S
C695 C694 1.377 . S
C695 C696 1.379 . S
C696 H680 0.931 . S
C696 C690 1.383 . S
C696 C695 1.379 . S
H697 C691 0.959 . S
H698 C691 0.961 . S
H699 C691 0.960 . S
H700 C692 0.930 . S
H701 C693 0.929 . S
H702 C710 0.929 . S
H703 C712 0.930 . S
H704 C714 0.930 . S
H705 C717 0.929 . S
H706 C720 0.930 . S
H707 C722 0.960 . S
H708 C722 0.960 . S
H709 C722 0.960 . S
C710 H702 0.929 . S
C710 C711 1.377 . S
C710 C712 1.384 . S
C711 C710 1.377 . S
C711 C717 1.390 . S
C712 H703 0.930 . S
C712 C710 1.384 . S
C712 C713 1.372 . S
C713 C712 1.372 . S
C713 C714 1.400 . S
C713 C718 1.490 . S
C714 H704 0.930 . S
C714 C713 1.400 . S
C714 C717 1.386 . S
H715 C731 0.930 . S
H716 C732 0.931 . S
C717 H705 0.929 . S
C717 C711 1.390 . S
C717 C714 1.386 . S
C718 C713 1.490 . S
C718 C720 1.395 . S
C718 C721 1.403 . S
H719 C725 0.930 . S
C720 H706 0.930 . S
C720 C718 1.395 . S
C720 C723 1.403 . S
C721 C718 1.403 . S
C721 C722 1.524 . S
C721 C725 1.400 . S
C722 H707 0.960 . S
C722 H708 0.960 . S
C722 H709 0.960 . S
C722 C721 1.524 . S
C723 C720 1.403 . S
C723 C724 1.392 . S
C723 C727 1.495 . S
C724 C723 1.392 . S
C724 C725 1.385 . S
C724 C726 1.478 . S
C725 H719 0.930 . S
C725 C721 1.400 . S
C725 C724 1.385 . S
C726 C724 1.478 . S
C726 C728 1.381 . S
C726 C732 1.383 . S
C727 C723 1.495 . S
C727 H733 0.959 . S
C727 H734 0.961 . S
C727 H735 0.960 . S
C728 C726 1.381 . S
C728 C729 1.394 . S
C728 H736 0.930 . S
C729 C728 1.394 . S
C729 C730 1.383 . S
C729 H737 0.929 . S
C730 C729 1.383 . S
C730 C731 1.377 . S
C731 H715 0.930 . S
C731 C730 1.377 . S
C731 C732 1.379 . S
C732 H716 0.931 . S
C732 C726 1.383 . S
C732 C731 1.379 . S
H733 C727 0.959 . S
H734 C727 0.961 . S
H735 C727 0.960 . S
H736 C728 0.930 . S
H737 C729 0.929 . S
H738 C746 0.929 . S
H739 C748 0.930 . S
H740 C750 0.930 . S
H741 C753 0.929 . S
H742 C756 0.930 . S
H743 C758 0.960 . S
H744 C758 0.960 . S
H745 C758 0.960 . S
C746 H738 0.929 . S
C746 C747 1.377 . S
C746 C748 1.384 . S
C747 C746 1.377 . S
C747 C753 1.390 . S
C748 H739 0.930 . S
C748 C746 1.384 . S
C748 C749 1.372 . S
C749 C748 1.372 . S
C749 C750 1.400 . S
C749 C754 1.490 . S
C750 H740 0.930 . S
C750 C749 1.400 . S
C750 C753 1.386 . S
H751 C767 0.930 . S
H752 C768 0.931 . S
C753 H741 0.929 . S
C753 C747 1.390 . S
C753 C750 1.386 . S
C754 C749 1.490 . S
C754 C756 1.395 . S
C754 C757 1.403 . S
H755 C761 0.930 . S
C756 H742 0.930 . S
C756 C754 1.395 . S
C756 C759 1.403 . S
C757 C754 1.403 . S
C757 C758 1.524 . S
C757 C761 1.400 . S
C758 H743 0.960 . S
C758 H744 0.960 . S
C758 H745 0.960 . S
C758 C757 1.524 . S
C759 C756 1.403 . S
C759 C760 1.392 . S
C759 C763 1.495 . S
C760 C759 1.392 . S
C760 C761 1.385 . S
C760 C762 1.478 . S
C761 H755 0.930 . S
C761 C757 1.400 . S
C761 C760 1.385 . S
C762 C760 1.478 . S
C762 C764 1.381 . S
C762 C768 1.383 . S
C763 C759 1.495 . S
C763 H769 0.959 . S
C763 H770 0.961 . S
C763 H771 0.960 . S
C764 C762 1.381 . S
C764 C765 1.394 . S
C764 H772 0.930 . S
C765 C764 1.394 . S
C765 C766 1.383 . S
C765 H773 0.929 . S
C766 C765 1.383 . S
C766 C767 1.377 . S
C767 H751 0.930 . S
C767 C766 1.377 . S
C767 C768 1.379 . S
C768 H752 0.931 . S
C768 C762 1.383 . S
C768 C767 1.379 . S
H769 C763 0.959 . S
H770 C763 0.961 . S
H771 C763 0.960 . S
H772 C764 0.930 . S
H773 C765 0.929 . S
H774 C782 0.929 . S
H775 C784 0.930 . S
H776 C786 0.930 . S
H777 C789 0.929 . S
H778 C792 0.930 . S
H779 C794 0.960 . S
H780 C794 0.960 . S
H781 C794 0.960 . S
C782 H774 0.929 . S
C782 C783 1.377 . S
C782 C784 1.384 . S
C783 C782 1.377 . S
C783 C789 1.390 . S
C784 H775 0.930 . S
C784 C782 1.384 . S
C784 C785 1.372 . S
C785 C784 1.372 . S
C785 C786 1.400 . S
C785 C790 1.490 . S
C786 H776 0.930 . S
C786 C785 1.400 . S
C786 C789 1.386 . S
H787 C803 0.930 . S
H788 C804 0.931 . S
C789 H777 0.929 . S
C789 C783 1.390 . S
C789 C786 1.386 . S
C790 C785 1.490 . S
C790 C792 1.395 . S
C790 C793 1.403 . S
H791 C797 0.930 . S
C792 H778 0.930 . S
C792 C790 1.395 . S
C792 C795 1.403 . S
C793 C790 1.403 . S
C793 C794 1.524 . S
C793 C797 1.400 . S
C794 H779 0.960 . S
C794 H780 0.960 . S
C794 H781 0.960 . S
C794 C793 1.524 . S
C795 C792 1.403 . S
C795 C796 1.392 . S
C795 C799 1.495 . S
C796 C795 1.392 . S
C796 C797 1.385 . S
C796 C798 1.478 . S
C797 H791 0.930 . S
C797 C793 1.400 . S
C797 C796 1.385 . S
C798 C796 1.478 . S
C798 C800 1.381 . S
C798 C804 1.383 . S
C799 C795 1.495 . S
C799 H805 0.959 . S
C799 H806 0.961 . S
C799 H807 0.960 . S
C800 C798 1.381 . S
C800 C801 1.394 . S
C800 H808 0.930 . S
C801 C800 1.394 . S
C801 C802 1.383 . S
C801 H809 0.929 . S
C802 C801 1.383 . S
C802 C803 1.377 . S
C803 H787 0.930 . S
C803 C802 1.377 . S
C803 C804 1.379 . S
C804 H788 0.931 . S
C804 C798 1.383 . S
C804 C803 1.379 . S
H805 C799 0.959 . S
H806 C799 0.961 . S
H807 C799 0.960 . S
H808 C800 0.930 . S
H809 C801 0.929 . S
H810 C818 0.929 . S
H811 C820 0.930 . S
H812 C822 0.930 . S
H813 C825 0.929 . S
H814 C828 0.930 . S
H815 C830 0.960 . S
H816 C830 0.960 . S
H817 C830 0.960 . S
C818 H810 0.929 . S
C818 C819 1.377 . S
C818 C820 1.384 . S
C819 C818 1.377 . S
C819 C825 1.390 . S
C820 H811 0.930 . S
C820 C818 1.384 . S
C820 C821 1.372 . S
C821 C820 1.372 . S
C821 C822 1.400 . S
C821 C826 1.490 . S
C822 H812 0.930 . S
C822 C821 1.400 . S
C822 C825 1.386 . S
H823 C839 0.930 . S
H824 C840 0.931 . S
C825 H813 0.929 . S
C825 C819 1.390 . S
C825 C822 1.386 . S
C826 C821 1.490 . S
C826 C828 1.395 . S
C826 C829 1.403 . S
H827 C833 0.930 . S
C828 H814 0.930 . S
C828 C826 1.395 . S
C828 C831 1.403 . S
C829 C826 1.403 . S
C829 C830 1.524 . S
C829 C833 1.400 . S
C830 H815 0.960 . S
C830 H816 0.960 . S
C830 H817 0.960 . S
C830 C829 1.524 . S
C831 C828 1.403 . S
C831 C832 1.392 . S
C831 C835 1.495 . S
C832 C831 1.392 . S
C832 C833 1.385 . S
C832 C834 1.478 . S
C833 H827 0.930 . S
C833 C829 1.400 . S
C833 C832 1.385 . S
C834 C832 1.478 . S
C834 C836 1.381 . S
C834 C840 1.383 . S
C835 C831 1.495 . S
C835 H841 0.959 . S
C835 H842 0.961 . S
C835 H843 0.960 . S
C836 C834 1.381 . S
C836 C837 1.394 . S
C836 H844 0.930 . S
C837 C836 1.394 . S
C837 C838 1.383 . S
C837 H845 0.929 . S
C838 C837 1.383 . S
C838 C839 1.377 . S
C839 H823 0.930 . S
C839 C838 1.377 . S
C839 C840 1.379 . S
C840 H824 0.931 . S
C840 C834 1.383 . S
C840 C839 1.379 . S
H841 C835 0.959 . S
H842 C835 0.961 . S
H843 C835 0.960 . S
H844 C836 0.930 . S
H845 C837 0.929 . S
H846 C854 0.929 . S
H847 C856 0.930 . S
H848 C858 0.930 . S
H849 C861 0.929 . S
H850 C864 0.930 . S
H851 C866 0.960 . S
H852 C866 0.960 . S
H853 C866 0.960 . S
C854 H846 0.929 . S
C854 C855 1.377 . S
C854 C856 1.384 . S
C855 C854 1.377 . S
C855 C861 1.390 . S
C856 H847 0.930 . S
C856 C854 1.384 . S
C856 C857 1.372 . S
C857 C856 1.372 . S
C857 C858 1.400 . S
C857 C862 1.490 . S
C858 H848 0.930 . S
C858 C857 1.400 . S
C858 C861 1.386 . S
H859 C875 0.930 . S
H860 C876 0.931 . S
C861 H849 0.929 . S
C861 C855 1.390 . S
C861 C858 1.386 . S
C862 C857 1.490 . S
C862 C864 1.395 . S
C862 C865 1.403 . S
H863 C869 0.930 . S
C864 H850 0.930 . S
C864 C862 1.395 . S
C864 C867 1.403 . S
C865 C862 1.403 . S
C865 C866 1.524 . S
C865 C869 1.400 . S
C866 H851 0.960 . S
C866 H852 0.960 . S
C866 H853 0.960 . S
C866 C865 1.524 . S
C867 C864 1.403 . S
C867 C868 1.392 . S
C867 C871 1.495 . S
C868 C867 1.392 . S
C868 C869 1.385 . S
C868 C870 1.478 . S
C869 H863 0.930 . S
C869 C865 1.400 . S
C869 C868 1.385 . S
C870 C868 1.478 . S
C870 C872 1.381 . S
C870 C876 1.383 . S
C871 C867 1.495 . S
C871 H877 0.959 . S
C871 H878 0.961 . S
C871 H879 0.960 . S
C872 C870 1.381 . S
C872 C873 1.394 . S
C872 H880 0.930 . S
C873 C872 1.394 . S
C873 C874 1.383 . S
C873 H881 0.929 . S
C874 C873 1.383 . S
C874 C875 1.377 . S
C875 H859 0.930 . S
C875 C874 1.377 . S
C875 C876 1.379 . S
C876 H860 0.931 . S
C876 C870 1.383 . S
C876 C875 1.379 . S
H877 C871 0.959 . S
H878 C871 0.961 . S
H879 C871 0.960 . S
H880 C872 0.930 . S
H881 C873 0.929 . S
H882 C890 0.929 . S
H883 C892 0.930 . S
H884 C894 0.930 . S
H885 C897 0.929 . S
H886 C900 0.930 . S
H887 C902 0.960 . S
H888 C902 0.960 . S
H889 C902 0.960 . S
C890 H882 0.929 . S
C890 C891 1.377 . S
C890 C892 1.384 . S
C891 C890 1.377 . S
C891 C897 1.390 . S
C892 H883 0.930 . S
C892 C890 1.384 . S
C892 C893 1.372 . S
C893 C892 1.372 . S
C893 C894 1.400 . S
C893 C898 1.490 . S
C894 H884 0.930 . S
C894 C893 1.400 . S
C894 C897 1.386 . S
H895 C911 0.930 . S
H896 C912 0.931 . S
C897 H885 0.929 . S
C897 C891 1.390 . S
C897 C894 1.386 . S
C898 C893 1.490 . S
C898 C900 1.395 . S
C898 C901 1.403 . S
H899 C905 0.930 . S
C900 H886 0.930 . S
C900 C898 1.395 . S
C900 C903 1.403 . S
C901 C898 1.403 . S
C901 C902 1.524 . S
C901 C905 1.400 . S
C902 H887 0.960 . S
C902 H888 0.960 . S
C902 H889 0.960 . S
C902 C901 1.524 . S
C903 C900 1.403 . S
C903 C904 1.392 . S
C903 C907 1.495 . S
C904 C903 1.392 . S
C904 C905 1.385 . S
C904 C906 1.478 . S
C905 H899 0.930 . S
C905 C901 1.400 . S
C905 C904 1.385 . S
C906 C904 1.478 . S
C906 C908 1.381 . S
C906 C912 1.383 . S
C907 C903 1.495 . S
C907 H913 0.959 . S
C907 H914 0.961 . S
C907 H915 0.960 . S
C908 C906 1.381 . S
C908 C909 1.394 . S
C908 H916 0.930 . S
C909 C908 1.394 . S
C909 C910 1.383 . S
C909 H917 0.929 . S
C910 C909 1.383 . S
C910 C911 1.377 . S
C911 H895 0.930 . S
C911 C910 1.377 . S
C911 C912 1.379 . S
C912 H896 0.931 . S
C912 C906 1.383 . S
C912 C911 1.379 . S
H913 C907 0.959 . S
H914 C907 0.961 . S
H915 C907 0.960 . S
H916 C908 0.930 . S
H917 C909 0.929 . S
H918 C926 0.929 . S
H919 C928 0.930 . S
H920 C930 0.930 . S
H921 C933 0.929 . S
H922 C936 0.930 . S
H923 C938 0.960 . S
H924 C938 0.960 . S
H925 C938 0.960 . S
C926 H918 0.929 . S
C926 C927 1.377 . S
C926 C928 1.384 . S
C927 C926 1.377 . S
C927 C933 1.390 . S
C928 H919 0.930 . S
C928 C926 1.384 . S
C928 C929 1.372 . S
C929 C928 1.372 . S
C929 C930 1.400 . S
C929 C934 1.490 . S
C930 H920 0.930 . S
C930 C929 1.400 . S
C930 C933 1.386 . S
H931 C947 0.930 . S
H932 C948 0.931 . S
C933 H921 0.929 . S
C933 C927 1.390 . S
C933 C930 1.386 . S
C934 C929 1.490 . S
C934 C936 1.395 . S
C934 C937 1.403 . S
H935 C941 0.930 . S
C936 H922 0.930 . S
C936 C934 1.395 . S
C936 C939 1.403 . S
C937 C934 1.403 . S
C937 C938 1.524 . S
C937 C941 1.400 . S
C938 H923 0.960 . S
C938 H924 0.960 . S
C938 H925 0.960 . S
C938 C937 1.524 . S
C939 C936 1.403 . S
C939 C940 1.392 . S
C939 C943 1.495 . S
C940 C939 1.392 . S
C940 C941 1.385 . S
C940 C942 1.478 . S
C941 H935 0.930 . S
C941 C937 1.400 . S
C941 C940 1.385 . S
C942 C940 1.478 . S
C942 C944 1.381 . S
C942 C948 1.383 . S
C943 C939 1.495 . S
C943 H949 0.959 . S
C943 H950 0.961 . S
C943 H951 0.960 . S
C944 C942 1.381 . S
C944 C945 1.394 . S
C944 H952 0.930 . S
C945 C944 1.394 . S
C945 C946 1.383 . S
C945 H953 0.929 . S
C946 C945 1.383 . S
C946 C947 1.377 . S
C947 H931 0.930 . S
C947 C946 1.377 . S
C947 C948 1.379 . S
C948 H932 0.931 . S
C948 C942 1.383 . S
C948 C947 1.379 . S
H949 C943 0.959 . S
H950 C943 0.961 . S
H951 C943 0.960 . S
H952 C944 0.930 . S
H953 C945 0.929 . S
H954 C962 0.929 . S
H955 C964 0.930 . S
H956 C966 0.930 . S
H957 C969 0.929 . S
H958 C972 0.930 . S
H959 C974 0.960 . S
H960 C974 0.960 . S
H961 C974 0.960 . S
C962 H954 0.929 . S
C962 C963 1.377 . S
C962 C964 1.384 . S
C963 C962 1.377 . S
C963 C969 1.390 . S
C964 H955 0.930 . S
C964 C962 1.384 . S
C964 C965 1.372 . S
C965 C964 1.372 . S
C965 C966 1.400 . S
C965 C970 1.490 . S
C966 H956 0.930 . S
C966 C965 1.400 . S
C966 C969 1.386 . S
H967 C983 0.930 . S
H968 C984 0.931 . S
C969 H957 0.929 . S
C969 C963 1.390 . S
C969 C966 1.386 . S
C970 C965 1.490 . S
C970 C972 1.395 . S
C970 C973 1.403 . S
H971 C977 0.930 . S
C972 H958 0.930 . S
C972 C970 1.395 . S
C972 C975 1.403 . S
C973 C970 1.403 . S
C973 C974 1.524 . S
C973 C977 1.400 . S
C974 H959 0.960 . S
C974 H960 0.960 . S
C974 H961 0.960 . S
C974 C973 1.524 . S
C975 C972 1.403 . S
C975 C976 1.392 . S
C975 C979 1.495 . S
C976 C975 1.392 . S
C976 C977 1.385 . S
C976 C978 1.478 . S
C977 H971 0.930 . S
C977 C973 1.400 . S
C977 C976 1.385 . S
C978 C976 1.478 . S
C978 C980 1.381 . S
C978 C984 1.383 . S
C979 C975 1.495 . S
C979 H985 0.959 . S
C979 H986 0.961 . S
C979 H987 0.960 . S
C980 C978 1.381 . S
C980 C981 1.394 . S
C980 H988 0.930 . S
C981 C980 1.394 . S
C981 C982 1.383 . S
C981 H989 0.929 . S
C982 C981 1.383 . S
C982 C983 1.377 . S
C983 H967 0.930 . S
C983 C982 1.377 . S
C983 C984 1.379 . S
C984 H968 0.931 . S
C984 C978 1.383 . S
C984 C983 1.379 . S
H985 C979 0.959 . S
H986 C979 0.961 . S
H987 C979 0.960 . S
H988 C980 0.930 . S
H989 C981 0.929 . S
H990 C998 0.929 . S
H991 C1000 0.930 . S
H992 C1002 0.930 . S
H993 C1005 0.929 . S
H994 C1008 0.930 . S
H995 C1010 0.960 . S
H996 C1010 0.960 . S
H997 C1010 0.960 . S
C998 H990 0.929 . S
C998 C999 1.377 . S
C998 C1000 1.384 . S
C999 C998 1.377 . S
C999 C1005 1.390 . S
C1000 H991 0.930 . S
C1000 C998 1.384 . S
C1000 C1001 1.372 . S
C1001 C1000 1.372 . S
C1001 C1002 1.400 . S
C1001 C1006 1.490 . S
C1002 H992 0.930 . S
C1002 C1001 1.400 . S
C1002 C1005 1.386 . S
H1003 C1019 0.930 . S
H1004 C1020 0.931 . S
C1005 H993 0.929 . S
C1005 C999 1.390 . S
C1005 C1002 1.386 . S
C1006 C1001 1.490 . S
C1006 C1008 1.395 . S
C1006 C1009 1.403 . S
H1007 C1013 0.930 . S
C1008 H994 0.930 . S
C1008 C1006 1.395 . S
C1008 C1011 1.403 . S
C1009 C1006 1.403 . S
C1009 C1010 1.524 . S
C1009 C1013 1.400 . S
C1010 H995 0.960 . S
C1010 H996 0.960 . S
C1010 H997 0.960 . S
C1010 C1009 1.524 . S
C1011 C1008 1.403 . S
C1011 C1012 1.392 . S
C1011 C1015 1.495 . S
C1012 C1011 1.392 . S
C1012 C1013 1.385 . S
C1012 C1014 1.478 . S
C1013 H1007 0.930 . S
C1013 C1009 1.400 . S
C1013 C1012 1.385 . S
C1014 C1012 1.478 . S
C1014 C1016 1.381 . S
C1014 C1020 1.383 . S
C1015 C1011 1.495 . S
C1015 H1021 0.959 . S
C1015 H1022 0.961 . S
C1015 H1023 0.960 . S
C1016 C1014 1.381 . S
C1016 C1017 1.394 . S
C1016 H1024 0.930 . S
C1017 C1016 1.394 . S
C1017 C1018 1.383 . S
C1017 H1025 0.929 . S
C1018 C1017 1.383 . S
C1018 C1019 1.377 . S
C1019 H1003 0.930 . S
C1019 C1018 1.377 . S
C1019 C1020 1.379 . S
C1020 H1004 0.931 . S
C1020 C1014 1.383 . S
C1020 C1019 1.379 . S
H1021 C1015 0.959 . S
H1022 C1015 0.961 . S
H1023 C1015 0.960 . S
H1024 C1016 0.930 . S
H1025 C1017 0.929 . S
H1026 C1034 0.929 . S
H1027 C1036 0.930 . S
H1028 C1038 0.930 . S
H1029 C1041 0.929 . S
H1030 C1044 0.930 . S
H1031 C1046 0.960 . S
H1032 C1046 0.960 . S
H1033 C1046 0.960 . S
C1034 H1026 0.929 . S
C1034 C1035 1.377 . S
C1034 C1036 1.384 . S
C1035 C1034 1.377 . S
C1035 C1041 1.390 . S
C1036 H1027 0.930 . S
C1036 C1034 1.384 . S
C1036 C1037 1.372 . S
C1037 C1036 1.372 . S
C1037 C1038 1.400 . S
C1037 C1042 1.490 . S
C1038 H1028 0.930 . S
C1038 C1037 1.400 . S
C1038 C1041 1.386 . S
H1039 C1055 0.930 . S
H1040 C1056 0.931 . S
C1041 H1029 0.929 . S
C1041 C1035 1.390 . S
C1041 C1038 1.386 . S
C1042 C1037 1.490 . S
C1042 C1044 1.395 . S
C1042 C1045 1.403 . S
H1043 C1049 0.930 . S
C1044 H1030 0.930 . S
C1044 C1042 1.395 . S
C1044 C1047 1.403 . S
C1045 C1042 1.403 . S
C1045 C1046 1.524 . S
C1045 C1049 1.400 . S
C1046 H1031 0.960 . S
C1046 H1032 0.960 . S
C1046 H1033 0.960 . S
C1046 C1045 1.524 . S
C1047 C1044 1.403 . S
C1047 C1048 1.392 . S
C1047 C1051 1.495 . S
C1048 C1047 1.392 . S
C1048 C1049 1.385 . S
C1048 C1050 1.478 . S
C1049 H1043 0.930 . S
C1049 C1045 1.400 . S
C1049 C1048 1.385 . S
C1050 C1048 1.478 . S
C1050 C1052 1.381 . S
C1050 C1056 1.383 . S
C1051 C1047 1.495 . S
C1051 H1057 0.959 . S
C1051 H1058 0.961 . S
C1051 H1059 0.960 . S
C1052 C1050 1.381 . S
C1052 C1053 1.394 . S
C1052 H1060 0.930 . S
C1053 C1052 1.394 . S
C1053 C1054 1.383 . S
C1053 H1061 0.929 . S
C1054 C1053 1.383 . S
C1054 C1055 1.377 . S
C1055 H1039 0.930 . S
C1055 C1054 1.377 . S
C1055 C1056 1.379 . S
C1056 H1040 0.931 . S
C1056 C1050 1.383 . S
C1056 C1055 1.379 . S
H1057 C1051 0.959 . S
H1058 C1051 0.961 . S
H1059 C1051 0.960 . S
H1060 C1052 0.930 . S
H1061 C1053 0.929 . S
H1062 C1070 0.929 . S
H1063 C1072 0.930 . S
H1064 C1074 0.930 . S
H1065 C1077 0.929 . S
H1066 C1080 0.930 . S
H1067 C1082 0.960 . S
H1068 C1082 0.960 . S
H1069 C1082 0.960 . S
C1070 H1062 0.929 . S
C1070 C1071 1.377 . S
C1070 C1072 1.384 . S
C1071 C1070 1.377 . S
C1071 C1077 1.390 . S
C1072 H1063 0.930 . S
C1072 C1070 1.384 . S
C1072 C1073 1.372 . S
C1073 C1072 1.372 . S
C1073 C1074 1.400 . S
C1073 C1078 1.490 . S
C1074 H1064 0.930 . S
C1074 C1073 1.400 . S
C1074 C1077 1.386 . S
H1075 C1091 0.930 . S
H1076 C1092 0.931 . S
C1077 H1065 0.929 . S
C1077 C1071 1.390 . S
C1077 C1074 1.386 . S
C1078 C1073 1.490 . S
C1078 C1080 1.395 . S
C1078 C1081 1.403 . S
H1079 C1085 0.930 . S
C1080 H1066 0.930 . S
C1080 C1078 1.395 . S
C1080 C1083 1.403 . S
C1081 C1078 1.403 . S
C1081 C1082 1.524 . S
C1081 C1085 1.400 . S
C1082 H1067 0.960 . S
C1082 H1068 0.960 . S
C1082 H1069 0.960 . S
C1082 C1081 1.524 . S
C1083 C1080 1.403 . S
C1083 C1084 1.392 . S
C1083 C1087 1.495 . S
C1084 C1083 1.392 . S
C1084 C1085 1.385 . S
C1084 C1086 1.478 . S
C1085 H1079 0.930 . S
C1085 C1081 1.400 . S
C1085 C1084 1.385 . S
C1086 C1084 1.478 . S
C1086 C1088 1.381 . S
C1086 C1092 1.383 . S
C1087 C1083 1.495 . S
C1087 H1093 0.959 . S
C1087 H1094 0.961 . S
C1087 H1095 0.960 . S
C1088 C1086 1.381 . S
C1088 C1089 1.394 . S
C1088 H1096 0.930 . S
C1089 C1088 1.394 . S
C1089 C1090 1.383 . S
C1089 H1097 0.929 . S
C1090 C1089 1.383 . S
C1090 C1091 1.377 . S
C1091 H1075 0.930 . S
C1091 C1090 1.377 . S
C1091 C1092 1.379 . S
C1092 H1076 0.931 . S
C1092 C1086 1.383 . S
C1092 C1091 1.379 . S
H1093 C1087 0.959 . S
H1094 C1087 0.961 . S
H1095 C1087 0.960 . S
H1096 C1088 0.930 . S
H1097 C1089 0.929 . S
H1098 C1106 0.929 . S
H1099 C1108 0.930 . S
H1100 C1110 0.930 . S
H1101 C1113 0.929 . S
H1102 C1116 0.930 . S
H1103 C1118 0.960 . S
H1104 C1118 0.960 . S
H1105 C1118 0.960 . S
C1106 H1098 0.929 . S
C1106 C1107 1.377 . S
C1106 C1108 1.384 . S
C1107 C1106 1.377 . S
C1107 C1113 1.390 . S
C1108 H1099 0.930 . S
C1108 C1106 1.384 . S
C1108 C1109 1.372 . S
C1109 C1108 1.372 . S
C1109 C1110 1.400 . S
C1109 C1114 1.490 . S
C1110 H1100 0.930 . S
C1110 C1109 1.400 . S
C1110 C1113 1.386 . S
H1111 C1127 0.930 . S
H1112 C1128 0.931 . S
C1113 H1101 0.929 . S
C1113 C1107 1.390 . S
C1113 C1110 1.386 . S
C1114 C1109 1.490 . S
C1114 C1116 1.395 . S
C1114 C1117 1.403 . S
H1115 C1121 0.930 . S
C1116 H1102 0.930 . S
C1116 C1114 1.395 . S
C1116 C1119 1.403 . S
C1117 C1114 1.403 . S
C1117 C1118 1.524 . S
C1117 C1121 1.400 . S
C1118 H1103 0.960 . S
C1118 H1104 0.960 . S
C1118 H1105 0.960 . S
C1118 C1117 1.524 . S
C1119 C1116 1.403 . S
C1119 C1120 1.392 . S
C1119 C1123 1.495 . S
C1120 C1119 1.392 . S
C1120 C1121 1.385 . S
C1120 C1122 1.478 . S
C1121 H1115 0.930 . S
C1121 C1117 1.400 . S
C1121 C1120 1.385 . S
C1122 C1120 1.478 . S
C1122 C1124 1.381 . S
C1122 C1128 1.383 . S
C1123 C1119 1.495 . S
C1123 H1129 0.959 . S
C1123 H1130 0.961 . S
C1123 H1131 0.960 . S
C1124 C1122 1.381 . S
C1124 C1125 1.394 . S
C1124 H1132 0.930 . S
C1125 C1124 1.394 . S
C1125 C1126 1.383 . S
C1125 H1133 0.929 . S
C1126 C1125 1.383 . S
C1126 C1127 1.377 . S
C1127 H1111 0.930 . S
C1127 C1126 1.377 . S
C1127 C1128 1.379 . S
C1128 H1112 0.931 . S
C1128 C1122 1.383 . S
C1128 C1127 1.379 . S
H1129 C1123 0.959 . S
H1130 C1123 0.961 . S
H1131 C1123 0.960 . S
H1132 C1124 0.930 . S
H1133 C1125 0.929 . S
H1134 C1142 0.929 . S
H1135 C1144 0.930 . S
H1136 C1146 0.930 . S
H1137 C1149 0.929 . S
H1138 C1152 0.930 . S
H1139 C1154 0.960 . S
H1140 C1154 0.960 . S
H1141 C1154 0.960 . S
C1142 H1134 0.929 . S
C1142 C1143 1.377 . S
C1142 C1144 1.384 . S
C1143 C1142 1.377 . S
C1143 C1149 1.390 . S
C1144 H1135 0.930 . S
C1144 C1142 1.384 . S
C1144 C1145 1.372 . S
C1145 C1144 1.372 . S
C1145 C1146 1.400 . S
C1145 C1150 1.490 . S
C1146 H1136 0.930 . S
C1146 C1145 1.400 . S
C1146 C1149 1.386 . S
H1147 C1163 0.930 . S
H1148 C1164 0.931 . S
C1149 H1137 0.929 . S
C1149 C1143 1.390 . S
C1149 C1146 1.386 . S
C1150 C1145 1.490 . S
C1150 C1152 1.395 . S
C1150 C1153 1.403 . S
H1151 C1157 0.930 . S
C1152 H1138 0.930 . S
C1152 C1150 1.395 . S
C1152 C1155 1.403 . S
C1153 C1150 1.403 . S
C1153 C1154 1.524 . S
C1153 C1157 1.400 . S
C1154 H1139 0.960 . S
C1154 H1140 0.960 . S
C1154 H1141 0.960 . S
C1154 C1153 1.524 . S
C1155 C1152 1.403 . S
C1155 C1156 1.392 . S
C1155 C1159 1.495 . S
C1156 C1155 1.392 . S
C1156 C1157 1.385 . S
C1156 C1158 1.478 . S
C1157 H1151 0.930 . S
C1157 C1153 1.400 . S
C1157 C1156 1.385 . S
C1158 C1156 1.478 . S
C1158 C1160 1.381 . S
C1158 C1164 1.383 . S
C1159 C1155 1.495 . S
C1159 H1165 0.959 . S
C1159 H1166 0.961 . S
C1159 H1167 0.960 . S
C1160 C1158 1.381 . S
C1160 C1161 1.394 . S
C1160 H1168 0.930 . S
C1161 C1160 1.394 . S
C1161 C1162 1.383 . S
C1161 H1169 0.929 . S
C1162 C1161 1.383 . S
C1162 C1163 1.377 . S
C1163 H1147 0.930 . S
C1163 C1162 1.377 . S
C1163 C1164 1.379 . S
C1164 H1148 0.931 . S
C1164 C1158 1.383 . S
C1164 C1163 1.379 . S
H1165 C1159 0.959 . S
H1166 C1159 0.961 . S
H1167 C1159 0.960 . S
H1168 C1160 0.930 . S
H1169 C1161 0.929 . S
H1170 C1178 0.929 1_556 S
H1171 C1180 0.930 . S
H1172 C1182 0.930 . S
H1173 C1185 0.929 . S
H1174 C1188 0.930 . S
H1175 C1190 0.960 . S
H1176 C1190 0.960 . S
H1177 C1190 0.960 . S
C1178 H1170 0.929 1_554 S
C1178 C1179 1.377 . S
C1178 C1180 1.384 . S
C1179 C1178 1.377 . S
C1179 C1185 1.390 . S
C1180 H1171 0.930 . S
C1180 C1178 1.384 . S
C1180 C1181 1.372 . S
C1181 C1180 1.372 . S
C1181 C1182 1.400 . S
C1181 C1186 1.490 . S
C1182 H1172 0.930 . S
C1182 C1181 1.400 . S
C1182 C1185 1.386 . S
H1183 C1199 0.930 . S
H1184 C1200 0.931 . S
C1185 H1173 0.929 . S
C1185 C1179 1.390 . S
C1185 C1182 1.386 . S
C1186 C1181 1.490 . S
C1186 C1188 1.395 . S
C1186 C1189 1.403 . S
H1187 C1193 0.930 . S
C1188 H1174 0.930 . S
C1188 C1186 1.395 . S
C1188 C1191 1.403 . S
C1189 C1186 1.403 . S
C1189 C1190 1.524 . S
C1189 C1193 1.400 . S
C1190 H1175 0.960 . S
C1190 H1176 0.960 . S
C1190 H1177 0.960 . S
C1190 C1189 1.524 . S
C1191 C1188 1.403 . S
C1191 C1192 1.392 . S
C1191 C1195 1.495 . S
C1192 C1191 1.392 . S
C1192 C1193 1.385 . S
C1192 C1194 1.478 . S
C1193 H1187 0.930 . S
C1193 C1189 1.400 . S
C1193 C1192 1.385 . S
C1194 C1192 1.478 . S
C1194 C1196 1.381 . S
C1194 C1200 1.383 . S
C1195 C1191 1.495 . S
C1195 H1201 0.959 . S
C1195 H1202 0.961 . S
C1195 H1203 0.960 . S
C1196 C1194 1.381 . S
C1196 C1197 1.394 . S
C1196 H1204 0.930 . S
C1197 C1196 1.394 . S
C1197 C1198 1.383 . S
C1197 H1205 0.929 . S
C1198 C1197 1.383 . S
C1198 C1199 1.377 . S
C1199 H1183 0.930 . S
C1199 C1198 1.377 . S
C1199 C1200 1.379 . S
C1200 H1184 0.931 . S
C1200 C1194 1.383 . S
C1200 C1199 1.379 . S
H1201 C1195 0.959 . S
H1202 C1195 0.961 . S
H1203 C1195 0.960 . S
H1204 C1196 0.930 . S
H1205 C1197 0.929 . S
H1206 C1214 0.929 . S
H1207 C1216 0.930 . S
H1208 C1218 0.930 . S
H1209 C1221 0.929 . S
H1210 C1224 0.930 . S
H1211 C1226 0.960 . S
H1212 C1226 0.960 . S
H1213 C1226 0.960 . S
C1214 H1206 0.929 . S
C1214 C1215 1.377 . S
C1214 C1216 1.384 . S
C1215 C1214 1.377 . S
C1215 C1221 1.390 . S
C1216 H1207 0.930 . S
C1216 C1214 1.384 . S
C1216 C1217 1.372 . S
C1217 C1216 1.372 . S
C1217 C1218 1.400 . S
C1217 C1222 1.490 . S
C1218 H1208 0.930 . S
C1218 C1217 1.400 . S
C1218 C1221 1.386 . S
H1219 C1235 0.930 . S
H1220 C1236 0.931 . S
C1221 H1209 0.929 . S
C1221 C1215 1.390 . S
C1221 C1218 1.386 . S
C1222 C1217 1.490 . S
C1222 C1224 1.395 . S
C1222 C1225 1.403 . S
H1223 C1229 0.930 . S
C1224 H1210 0.930 . S
C1224 C1222 1.395 . S
C1224 C1227 1.403 . S
C1225 C1222 1.403 . S
C1225 C1226 1.524 . S
C1225 C1229 1.400 . S
C1226 H1211 0.960 . S
C1226 H1212 0.960 . S
C1226 H1213 0.960 . S
C1226 C1225 1.524 . S
C1227 C1224 1.403 . S
C1227 C1228 1.392 . S
C1227 C1231 1.495 . S
C1228 C1227 1.392 . S
C1228 C1229 1.385 . S
C1228 C1230 1.478 . S
C1229 H1223 0.930 . S
C1229 C1225 1.400 . S
C1229 C1228 1.385 . S
C1230 C1228 1.478 . S
C1230 C1232 1.381 . S
C1230 C1236 1.383 . S
C1231 C1227 1.495 . S
C1231 H1237 0.959 . S
C1231 H1238 0.961 . S
C1231 H1239 0.960 . S
C1232 C1230 1.381 . S
C1232 C1233 1.394 . S
C1232 H1240 0.930 . S
C1233 C1232 1.394 . S
C1233 C1234 1.383 . S
C1233 H1241 0.929 . S
C1234 C1233 1.383 . S
C1234 C1235 1.377 . S
C1235 H1219 0.930 . S
C1235 C1234 1.377 . S
C1235 C1236 1.379 . S
C1236 H1220 0.931 . S
C1236 C1230 1.383 . S
C1236 C1235 1.379 . S
H1237 C1231 0.959 . S
H1238 C1231 0.961 . S
H1239 C1231 0.960 . S
H1240 C1232 0.930 . S
H1241 C1233 0.929 . S
H1242 C1250 0.929 . S
H1243 C1252 0.930 . S
H1244 C1254 0.930 . S
H1245 C1257 0.929 . S
H1246 C1260 0.930 . S
H1247 C1262 0.960 . S
H1248 C1262 0.960 . S
H1249 C1262 0.960 . S
C1250 H1242 0.929 . S
C1250 C1251 1.377 . S
C1250 C1252 1.384 . S
C1251 C1250 1.377 . S
C1251 C1257 1.390 . S
C1252 H1243 0.930 . S
C1252 C1250 1.384 . S
C1252 C1253 1.372 . S
C1253 C1252 1.372 . S
C1253 C1254 1.400 . S
C1253 C1258 1.490 . S
C1254 H1244 0.930 . S
C1254 C1253 1.400 . S
C1254 C1257 1.386 . S
H1255 C1271 0.930 . S
H1256 C1272 0.931 . S
C1257 H1245 0.929 . S
C1257 C1251 1.390 . S
C1257 C1254 1.386 . S
C1258 C1253 1.490 . S
C1258 C1260 1.395 . S
C1258 C1261 1.403 . S
H1259 C1265 0.930 . S
C1260 H1246 0.930 . S
C1260 C1258 1.395 . S
C1260 C1263 1.403 . S
C1261 C1258 1.403 . S
C1261 C1262 1.524 . S
C1261 C1265 1.400 . S
C1262 H1247 0.960 . S
C1262 H1248 0.960 . S
C1262 H1249 0.960 . S
C1262 C1261 1.524 . S
C1263 C1260 1.403 . S
C1263 C1264 1.392 . S
C1263 C1267 1.495 . S
C1264 C1263 1.392 . S
C1264 C1265 1.385 . S
C1264 C1266 1.478 . S
C1265 H1259 0.930 . S
C1265 C1261 1.400 . S
C1265 C1264 1.385 . S
C1266 C1264 1.478 . S
C1266 C1268 1.381 . S
C1266 C1272 1.383 . S
C1267 C1263 1.495 . S
C1267 H1273 0.959 . S
C1267 H1274 0.961 . S
C1267 H1275 0.960 . S
C1268 C1266 1.381 . S
C1268 C1269 1.394 . S
C1268 H1276 0.930 . S
C1269 C1268 1.394 . S
C1269 C1270 1.383 . S
C1269 H1277 0.929 . S
C1270 C1269 1.383 . S
C1270 C1271 1.377 . S
C1271 H1255 0.930 . S
C1271 C1270 1.377 . S
C1271 C1272 1.379 . S
C1272 H1256 0.931 . S
C1272 C1266 1.383 . S
C1272 C1271 1.379 . S
H1273 C1267 0.959 . S
H1274 C1267 0.961 . S
H1275 C1267 0.960 . S
H1276 C1268 0.930 . S
H1277 C1269 0.929 . S
H1278 C1286 0.929 . S
H1279 C1288 0.930 . S
H1280 C1290 0.960 . S
H1281 C1293 0.929 . S
H1282 C1296 0.930 . S
H1283 C1298 0.960 . S
H1284 C1298 0.960 . S
H1285 C1298 0.960 . S
C1286 H1278 0.929 . S
C1286 C1287 1.377 . S
C1286 C1288 1.384 . S
C1287 C1286 1.377 . S
C1287 C1293 1.390 . S
C1288 H1279 0.930 . S
C1288 C1286 1.384 . S
C1288 C1289 1.372 . S
C1289 C1288 1.372 . S
C1289 C1290 1.400 . S
C1289 C1294 1.490 . S
C1290 H1280 0.960 . S
C1290 C1289 1.400 . S
C1290 C1293 1.386 . S
H1291 C1307 0.930 . S
H1292 C1308 0.931 . S
C1293 H1281 0.929 . S
C1293 C1287 1.390 . S
C1293 C1290 1.386 . S
C1294 C1289 1.490 . S
C1294 C1296 1.395 . S
C1294 C1297 1.403 1_565 S
H1295 C1301 0.930 . S
C1296 H1282 0.930 . S
C1296 C1294 1.395 . S
C1296 C1299 1.403 . S
C1297 C1294 1.403 1_545 S
C1297 C1298 1.524 . S
C1297 C1301 1.400 . S
C1298 H1283 0.960 . S
C1298 H1284 0.960 . S
C1298 H1285 0.960 . S
C1298 C1297 1.524 . S
C1299 C1296 1.403 . S
C1299 C1300 1.392 1_565 S
C1299 C1303 1.495 . S
C1300 C1299 1.392 1_545 S
C1300 C1301 1.385 . S
C1300 C1302 1.478 . S
C1301 H1295 0.930 . S
C1301 C1297 1.400 . S
C1301 C1300 1.385 . S
C1302 C1300 1.478 . S
C1302 C1304 1.381 . S
C1302 C1308 1.383 . S
C1303 C1299 1.495 . S
C1303 H1309 0.959 . S
C1303 H1310 0.961 . S
C1303 H1311 0.960 . S
C1304 C1302 1.381 . S
C1304 C1305 1.394 . S
C1304 H1312 0.901 1_545 S
C1305 C1304 1.394 . S
C1305 C1306 1.383 . S
C1305 H1313 0.929 . S
C1306 C1305 1.383 . S
C1306 C1307 1.377 . S
C1307 H1291 0.930 . S
C1307 C1306 1.377 . S
C1307 C1308 1.379 . S
C1308 H1292 0.931 . S
C1308 C1302 1.383 . S
C1308 C1307 1.379 . S
H1309 C1303 0.959 . S
H1310 C1303 0.961 . S
H1311 C1303 0.960 . S
H1312 C1304 0.901 1_565 S
H1313 C1305 0.929 . S
H1314 C1322 0.929 . S
H1315 C1324 0.930 . S
H1316 C1326 0.930 . S
H1317 C1329 0.929 . S
H1318 C1332 0.930 . S
H1319 C1334 0.960 . S
H1320 C1334 0.960 . S
H1321 C1334 0.960 . S
C1322 H1314 0.929 . S
C1322 C1323 1.377 . S
C1322 C1324 1.384 . S
C1323 C1322 1.377 . S
C1323 C1329 1.390 . S
C1324 H1315 0.930 . S
C1324 C1322 1.384 . S
C1324 C1325 1.372 . S
C1325 C1324 1.372 . S
C1325 C1326 1.400 . S
C1325 C1330 1.490 . S
C1326 H1316 0.930 . S
C1326 C1325 1.400 . S
C1326 C1329 1.386 . S
H1327 C1343 0.930 . S
H1328 C1344 0.931 . S
C1329 H1317 0.929 . S
C1329 C1323 1.390 . S
C1329 C1326 1.386 . S
C1330 C1325 1.490 . S
C1330 C1332 1.395 1_455 S
C1330 C1333 1.403 . S
H1331 C1337 0.930 . S
C1332 H1318 0.930 . S
C1332 C1330 1.395 1_655 S
C1332 C1335 1.403 . S
C1333 C1330 1.403 . S
C1333 C1334 1.524 . S
C1333 C1337 1.400 . S
C1334 H1319 0.960 . S
C1334 H1320 0.960 . S
C1334 H1321 0.960 . S
C1334 C1333 1.524 . S
C1335 C1332 1.403 . S
C1335 C1336 1.392 . S
C1335 C1339 1.495 . S
C1336 C1335 1.392 . S
C1336 C1337 1.385 1_655 S
C1336 C1338 1.478 . S
C1337 H1331 0.930 . S
C1337 C1333 1.400 . S
C1337 C1336 1.385 1_455 S
C1338 C1336 1.478 . S
C1338 C1340 1.381 . S
C1338 C1344 1.383 . S
C1339 C1335 1.495 . S
C1339 H1345 0.959 . S
C1339 H1346 0.961 . S
C1339 H1347 0.960 . S
C1340 C1338 1.381 . S
C1340 C1341 1.394 . S
C1340 H1348 0.930 . S
C1341 C1340 1.394 . S
C1341 C1342 1.383 . S
C1341 H1349 0.929 . S
C1342 C1341 1.383 . S
C1342 C1343 1.377 . S
C1343 H1327 0.930 . S
C1343 C1342 1.377 . S
C1343 C1344 1.379 . S
C1344 H1328 0.931 . S
C1344 C1338 1.383 . S
C1344 C1343 1.379 . S
H1345 C1339 0.959 . S
H1346 C1339 0.961 . S
H1347 C1339 0.960 . S
H1348 C1340 0.930 . S
H1349 C1341 0.929 . S
H1350 C1358 0.929 . S
H1351 C1360 0.930 . S
H1352 C1362 0.930 . S
H1353 C1365 0.929 . S
H1354 C1368 0.930 . S
H1355 C1370 0.960 . S
H1356 C1370 0.960 . S
H1357 C1370 0.960 . S
C1358 H1350 0.929 . S
C1358 C1359 1.377 . S
C1358 C1360 1.384 . S
C1359 C1358 1.377 . S
C1359 C1365 1.390 . S
C1360 H1351 0.930 . S
C1360 C1358 1.384 . S
C1360 C1361 1.372 . S
C1361 C1360 1.372 . S
C1361 C1362 1.400 . S
C1361 C1366 1.490 . S
C1362 H1352 0.930 . S
C1362 C1361 1.400 . S
C1362 C1365 1.386 . S
H1363 C1379 0.930 . S
H1364 C1380 0.931 . S
C1365 H1353 0.929 . S
C1365 C1359 1.390 . S
C1365 C1362 1.386 . S
C1366 C1361 1.490 . S
C1366 C1368 1.395 . S
C1366 C1369 1.403 . S
H1367 C1373 0.930 . S
C1368 H1354 0.930 . S
C1368 C1366 1.395 . S
C1368 C1371 1.403 . S
C1369 C1366 1.403 . S
C1369 C1370 1.524 . S
C1369 C1373 1.400 . S
C1370 H1355 0.960 . S
C1370 H1356 0.960 . S
C1370 H1357 0.960 . S
C1370 C1369 1.524 . S
C1371 C1368 1.403 . S
C1371 C1372 1.392 . S
C1371 C1375 1.495 . S
C1372 C1371 1.392 . S
C1372 C1373 1.385 . S
C1372 C1374 1.478 . S
C1373 H1367 0.930 . S
C1373 C1369 1.400 . S
C1373 C1372 1.385 . S
C1374 C1372 1.478 . S
C1374 C1376 1.381 . S
C1374 C1380 1.383 . S
C1375 C1371 1.495 . S
C1375 H1381 0.959 . S
C1375 H1382 0.961 . S
C1375 H1383 0.960 . S
C1376 C1374 1.381 . S
C1376 C1377 1.394 . S
C1376 H1384 0.930 . S
C1377 C1376 1.394 . S
C1377 C1378 1.383 . S
C1377 H1385 0.929 . S
C1378 C1377 1.383 . S
C1378 C1379 1.377 . S
C1379 H1363 0.930 . S
C1379 C1378 1.377 . S
C1379 C1380 1.379 . S
C1380 H1364 0.931 . S
C1380 C1374 1.383 . S
C1380 C1379 1.379 . S
H1381 C1375 0.959 . S
H1382 C1375 0.961 . S
H1383 C1375 0.960 . S
H1384 C1376 0.930 . S
H1385 C1377 0.929 . S
H1386 C1394 0.929 . S
H1387 C1396 0.930 . S
H1388 C1398 0.930 . S
H1389 C1401 0.929 . S
H1390 C1404 0.930 . S
H1391 C1406 0.960 . S
H1392 C1406 0.960 . S
H1393 C1406 0.960 . S
C1394 H1386 0.929 . S
C1394 C1395 1.377 . S
C1394 C1396 1.384 . S
C1395 C1394 1.377 . S
C1395 C1401 1.390 . S
C1396 H1387 0.930 . S
C1396 C1394 1.384 . S
C1396 C1397 1.372 . S
C1397 C1396 1.372 . S
C1397 C1398 1.400 . S
C1397 C1402 1.490 . S
C1398 H1388 0.930 . S
C1398 C1397 1.400 . S
C1398 C1401 1.386 . S
H1399 C1415 0.930 . S
H1400 C1416 0.931 . S
C1401 H1389 0.929 . S
C1401 C1395 1.390 . S
C1401 C1398 1.386 . S
C1402 C1397 1.490 . S
C1402 C1404 1.395 . S
C1402 C1405 1.403 . S
H1403 C1409 0.930 . S
C1404 H1390 0.930 . S
C1404 C1402 1.395 . S
C1404 C1407 1.403 . S
C1405 C1402 1.403 . S
C1405 C1406 1.524 . S
C1405 C1409 1.400 . S
C1406 H1391 0.960 . S
C1406 H1392 0.960 . S
C1406 H1393 0.960 . S
C1406 C1405 1.524 . S
C1407 C1404 1.403 . S
C1407 C1408 1.392 . S
C1407 C1411 1.495 . S
C1408 C1407 1.392 . S
C1408 C1409 1.385 . S
C1408 C1410 1.478 . S
C1409 H1403 0.930 . S
C1409 C1405 1.400 . S
C1409 C1408 1.385 . S
C1410 C1408 1.478 . S
C1410 C1412 1.381 . S
C1410 C1416 1.383 . S
C1411 C1407 1.495 . S
C1411 H1417 0.959 . S
C1411 H1418 0.961 . S
C1411 H1419 0.960 . S
C1412 C1410 1.381 . S
C1412 C1413 1.394 . S
C1412 H1420 0.930 . S
C1413 C1412 1.394 . S
C1413 C1414 1.383 . S
C1413 H1421 0.929 . S
C1414 C1413 1.383 . S
C1414 C1415 1.377 . S
C1415 H1399 0.930 . S
C1415 C1414 1.377 . S
C1415 C1416 1.379 . S
C1416 H1400 0.931 . S
C1416 C1410 1.383 . S
C1416 C1415 1.379 . S
H1417 C1411 0.959 . S
H1418 C1411 0.961 . S
H1419 C1411 0.960 . S
H1420 C1412 0.930 . S
H1421 C1413 0.929 . S
H1422 C1430 0.929 . S
H1423 C1432 0.930 . S
H1424 C1434 0.930 . S
H1425 C1437 0.929 . S
H1426 C1440 0.930 . S
H1427 C1442 0.960 . S
H1428 C1442 0.960 . S
H1429 C1442 0.960 . S
C1430 H1422 0.929 . S
C1430 C1431 1.377 . S
C1430 C1432 1.384 . S
C1431 C1430 1.377 . S
C1431 C1437 1.390 . S
C1432 H1423 0.930 . S
C1432 C1430 1.384 . S
C1432 C1433 1.372 . S
C1433 C1432 1.372 . S
C1433 C1434 1.400 . S
C1433 C1438 1.490 . S
C1434 H1424 0.930 . S
C1434 C1433 1.400 . S
C1434 C1437 1.386 . S
H1435 C1451 0.930 . S
H1436 C1452 0.931 1_545 S
C1437 H1425 0.929 . S
C1437 C1431 1.390 . S
C1437 C1434 1.386 . S
C1438 C1433 1.490 . S
C1438 C1440 1.395 . S
C1438 C1441 1.403 . S
H1439 C1445 0.930 . S
C1440 H1426 0.930 . S
C1440 C1438 1.395 . S
C1440 C1443 1.403 . S
C1441 C1438 1.403 . S
C1441 C1442 1.524 . S
C1441 C1445 1.400 . S
C1442 H1427 0.960 . S
C1442 H1428 0.960 . S
C1442 H1429 0.960 . S
C1442 C1441 1.524 . S
C1443 C1440 1.403 . S
C1443 C1444 1.392 . S
C1443 C1447 1.495 . S
C1444 C1443 1.392 . S
C1444 C1445 1.385 . S
C1444 C1446 1.478 1_545 S
C1445 H1439 0.930 . S
C1445 C1441 1.400 . S
C1445 C1444 1.385 . S
C1446 C1444 1.478 1_565 S
C1446 C1448 1.381 . S
C1446 C1452 1.383 . S
C1447 C1443 1.495 . S
C1447 H1453 0.959 . S
C1447 H1454 0.961 . S
C1447 H1455 0.960 1_545 S
C1448 C1446 1.381 . S
C1448 C1449 1.394 . S
C1448 H1456 0.930 . S
C1449 C1448 1.394 . S
C1449 C1450 1.383 . S
C1449 H1457 0.929 . S
C1450 C1449 1.383 . S
C1450 C1451 1.377 . S
C1451 H1435 0.930 . S
C1451 C1450 1.377 . S
C1451 C1452 1.379 . S
C1452 H1436 0.931 1_565 S
C1452 C1446 1.383 . S
C1452 C1451 1.379 . S
H1453 C1447 0.959 . S
H1454 C1447 0.961 . S
H1455 C1447 0.960 1_565 S
H1456 C1448 0.930 . S
H1457 C1449 0.929 . S
H1458 C1466 0.929 . S
H1459 C1468 0.930 . S
H1460 C1470 0.930 . S
H1461 C1473 0.929 . S
H1462 C1476 0.930 . S
H1463 C1478 0.960 . S
H1464 C1478 0.960 . S
H1465 C1478 0.960 . S
C1466 H1458 0.929 . S
C1466 C1467 1.377 . S
C1466 C1468 1.384 . S
C1467 C1466 1.377 . S
C1467 C1473 1.390 . S
C1468 H1459 0.930 . S
C1468 C1466 1.384 . S
C1468 C1469 1.372 . S
C1469 C1468 1.372 . S
C1469 C1470 1.400 . S
C1469 C1474 1.490 . S
C1470 H1460 0.930 . S
C1470 C1469 1.400 . S
C1470 C1473 1.386 . S
H1471 C1487 0.930 . S
H1472 C1488 0.931 . S
C1473 H1461 0.929 . S
C1473 C1467 1.390 . S
C1473 C1470 1.386 . S
C1474 C1469 1.490 . S
C1474 C1476 1.395 . S
C1474 C1477 1.403 . S
H1475 C1481 0.930 . S
C1476 H1462 0.930 . S
C1476 C1474 1.395 . S
C1476 C1479 1.403 . S
C1477 C1474 1.403 . S
C1477 C1478 1.524 . S
C1477 C1481 1.400 . S
C1478 H1463 0.960 . S
C1478 H1464 0.960 . S
C1478 H1465 0.960 . S
C1478 C1477 1.524 . S
C1479 C1476 1.403 . S
C1479 C1480 1.392 . S
C1479 C1483 1.495 . S
C1480 C1479 1.392 . S
C1480 C1481 1.385 . S
C1480 C1482 1.478 1_655 S
C1481 H1475 0.930 . S
C1481 C1477 1.400 . S
C1481 C1480 1.385 . S
C1482 C1480 1.478 1_455 S
C1482 C1484 1.381 . S
C1482 C1488 1.383 . S
C1483 C1479 1.495 . S
C1483 H1489 0.959 . S
C1483 H1490 0.961 . S
C1483 H1491 0.960 . S
C1484 C1482 1.381 . S
C1484 C1485 1.394 . S
C1484 H1492 0.930 1_455 S
C1485 C1484 1.394 . S
C1485 C1486 1.383 . S
C1485 H1493 0.929 . S
C1486 C1485 1.383 . S
C1486 C1487 1.377 . S
C1487 H1471 0.930 . S
C1487 C1486 1.377 . S
C1487 C1488 1.379 . S
C1488 H1472 0.931 . S
C1488 C1482 1.383 . S
C1488 C1487 1.379 . S
H1489 C1483 0.959 . S
H1490 C1483 0.961 . S
H1491 C1483 0.960 . S
H1492 C1484 0.930 1_655 S
H1493 C1485 0.929 . S
H1494 C1502 0.929 . S
H1495 C1504 0.930 . S
H1496 C1506 0.930 . S
H1497 C1509 0.929 . S
H1498 C1512 0.930 . S
H1499 C1514 0.960 . S
H1500 C1514 0.960 . S
H1501 C1514 0.960 . S
C1502 H1494 0.929 . S
C1502 C1503 1.377 . S
C1502 C1504 1.384 . S
C1503 C1502 1.377 . S
C1503 C1509 1.390 . S
C1504 H1495 0.930 . S
C1504 C1502 1.384 . S
C1504 C1505 1.372 . S
C1505 C1504 1.372 . S
C1505 C1506 1.400 . S
C1505 C1510 1.490 . S
C1506 H1496 0.930 . S
C1506 C1505 1.400 . S
C1506 C1509 1.386 . S
H1507 C1523 0.930 . S
H1508 C1524 0.931 . S
C1509 H1497 0.929 . S
C1509 C1503 1.390 . S
C1509 C1506 1.386 . S
C1510 C1505 1.490 . S
C1510 C1512 1.395 . S
C1510 C1513 1.403 . S
H1511 C1517 0.930 . S
C1512 H1498 0.930 . S
C1512 C1510 1.395 . S
C1512 C1515 1.403 . S
C1513 C1510 1.403 . S
C1513 C1514 1.524 . S
C1513 C1517 1.400 . S
C1514 H1499 0.960 . S
C1514 H1500 0.960 . S
C1514 H1501 0.960 . S
C1514 C1513 1.524 . S
C1515 C1512 1.403 . S
C1515 C1516 1.392 . S
C1515 C1519 1.495 . S
C1516 C1515 1.392 . S
C1516 C1517 1.385 . S
C1516 C1518 1.478 . S
C1517 H1511 0.930 . S
C1517 C1513 1.400 . S
C1517 C1516 1.385 . S
C1518 C1516 1.478 . S
C1518 C1520 1.381 . S
C1518 C1524 1.383 . S
C1519 C1515 1.495 . S
C1519 H1525 0.959 . S
C1519 H1526 0.961 . S
C1519 H1527 0.960 . S
C1520 C1518 1.381 . S
C1520 C1521 1.394 . S
C1520 H1528 0.930 . S
C1521 C1520 1.394 . S
C1521 C1522 1.383 . S
C1521 H1529 0.929 . S
C1522 C1521 1.383 . S
C1522 C1523 1.377 . S
C1523 H1507 0.930 . S
C1523 C1522 1.377 . S
C1523 C1524 1.379 . S
C1524 H1508 0.931 . S
C1524 C1518 1.383 . S
C1524 C1523 1.379 . S
H1525 C1519 0.959 . S
H1526 C1519 0.961 . S
H1527 C1519 0.960 . S
H1528 C1520 0.930 . S
H1529 C1521 0.929 . S
H1530 C1538 0.929 . S
H1531 C1540 0.930 . S
H1532 C1542 0.930 . S
H1533 C1545 0.929 . S
H1534 C1548 0.930 . S
H1535 C1550 0.960 . S
H1536 C1550 0.960 . S
H1537 C1550 0.960 . S
C1538 H1530 0.929 . S
C1538 C1539 1.377 . S
C1538 C1540 1.384 . S
C1539 C1538 1.377 . S
C1539 C1545 1.390 . S
C1540 H1531 0.930 . S
C1540 C1538 1.384 . S
C1540 C1541 1.372 . S
C1541 C1540 1.372 . S
C1541 C1542 1.400 . S
C1541 C1546 1.490 . S
C1542 H1532 0.930 . S
C1542 C1541 1.400 . S
C1542 C1545 1.386 . S
H1543 C1559 0.930 . S
H1544 C1560 0.931 1_565 S
C1545 H1533 0.929 . S
C1545 C1539 1.390 . S
C1545 C1542 1.386 . S
C1546 C1541 1.490 . S
C1546 C1548 1.395 . S
C1546 C1549 1.403 . S
H1547 C1553 0.930 . S
C1548 H1534 0.930 . S
C1548 C1546 1.395 . S
C1548 C1551 1.403 . S
C1549 C1546 1.403 . S
C1549 C1550 1.524 . S
C1549 C1553 1.400 . S
C1550 H1535 0.960 . S
C1550 H1536 0.960 . S
C1550 H1537 0.960 . S
C1550 C1549 1.524 . S
C1551 C1548 1.403 . S
C1551 C1552 1.392 . S
C1551 C1555 1.495 1_565 S
C1552 C1551 1.392 . S
C1552 C1553 1.385 . S
C1552 C1554 1.478 1_565 S
C1553 H1547 0.930 . S
C1553 C1549 1.400 . S
C1553 C1552 1.385 . S
C1554 C1552 1.478 1_545 S
C1554 C1556 1.381 . S
C1554 C1560 1.383 . S
C1555 C1551 1.495 1_545 S
C1555 H1561 0.974 . S
C1555 H1562 0.961 . S
C1555 H1563 0.960 . S
C1556 C1554 1.381 . S
C1556 C1557 1.394 . S
C1556 H1564 0.930 . S
C1557 C1556 1.394 . S
C1557 C1558 1.383 . S
C1557 H1565 0.929 . S
C1558 C1557 1.383 . S
C1558 C1559 1.377 . S
C1559 H1543 0.930 . S
C1559 C1558 1.377 . S
C1559 C1560 1.379 . S
C1560 H1544 0.931 1_545 S
C1560 C1554 1.383 . S
C1560 C1559 1.379 . S
H1561 C1555 0.974 . S
H1562 C1555 0.961 . S
H1563 C1555 0.960 . S
H1564 C1556 0.930 . S
H1565 C1557 0.929 . S
H1566 C1574 0.929 . S
H1567 C1576 0.930 . S
H1568 C1578 0.930 . S
H1569 C1581 0.929 . S
H1570 C1584 0.930 1_655 S
H1571 C1586 0.960 . S
H1572 C1586 0.960 . S
H1573 C1586 0.960 . S
C1574 H1566 0.929 . S
C1574 C1575 1.377 . S
C1574 C1576 1.384 . S
C1575 C1574 1.377 . S
C1575 C1581 1.390 . S
C1576 H1567 0.930 . S
C1576 C1574 1.384 . S
C1576 C1577 1.372 . S
C1577 C1576 1.372 . S
C1577 C1578 1.400 . S
C1577 C1582 1.490 1_655 S
C1578 H1568 0.930 . S
C1578 C1577 1.400 . S
C1578 C1581 1.386 . S
H1579 C1595 0.930 . S
H1580 C1596 0.931 . S
C1581 H1569 0.929 . S
C1581 C1575 1.390 . S
C1581 C1578 1.386 . S
C1582 C1577 1.490 1_455 S
C1582 C1584 1.395 . S
C1582 C1585 1.403 . S
H1583 C1589 0.930 . S
C1584 H1570 0.930 1_455 S
C1584 C1582 1.395 . S
C1584 C1587 1.403 . S
C1585 C1582 1.403 . S
C1585 C1586 1.524 . S
C1585 C1589 1.400 . S
C1586 H1571 0.960 . S
C1586 H1572 0.960 . S
C1586 H1573 0.960 . S
C1586 C1585 1.524 . S
C1587 C1584 1.403 . S
C1587 C1588 1.392 . S
C1587 C1591 1.495 . S
C1588 C1587 1.392 . S
C1588 C1589 1.385 . S
C1588 C1590 1.478 . S
C1589 H1583 0.930 . S
C1589 C1585 1.400 . S
C1589 C1588 1.385 . S
C1590 C1588 1.478 . S
C1590 C1592 1.381 . S
C1590 C1596 1.383 . S
C1591 C1587 1.495 . S
C1591 H1597 0.959 . S
C1591 H1598 0.961 . S
C1591 H1599 0.960 . S
C1592 C1590 1.381 . S
C1592 C1593 1.394 . S
C1592 H1600 0.930 . S
C1593 C1592 1.394 . S
C1593 C1594 1.383 . S
C1593 H1601 0.929 . S
C1594 C1593 1.383 . S
C1594 C1595 1.377 . S
C1595 H1579 0.930 . S
C1595 C1594 1.377 . S
C1595 C1596 1.379 . S
C1596 H1580 0.931 . S
C1596 C1590 1.383 . S
C1596 C1595 1.379 . S
H1597 C1591 0.959 . S
H1598 C1591 0.961 . S
H1599 C1591 0.960 . S
H1600 C1592 0.930 . S
H1601 C1593 0.929 . S
H1602 C1610 0.929 . S
H1603 C1612 0.930 . S
H1604 C1614 0.930 . S
H1605 C1617 0.929 . S
H1606 C1620 0.930 . S
H1607 C1622 0.960 . S
H1608 C1622 0.960 . S
H1609 C1622 0.960 . S
C1610 H1602 0.929 . S
C1610 C1611 1.377 . S
C1610 C1612 1.384 . S
C1611 C1610 1.377 . S
C1611 C1617 1.390 . S
C1612 H1603 0.930 . S
C1612 C1610 1.384 . S
C1612 C1613 1.372 . S
C1613 C1612 1.372 . S
C1613 C1614 1.400 . S
C1613 C1618 1.490 . S
C1614 H1604 0.930 . S
C1614 C1613 1.400 . S
C1614 C1617 1.386 . S
H1615 C1631 0.930 . S
H1616 C1632 0.931 . S
C1617 H1605 0.929 . S
C1617 C1611 1.390 . S
C1617 C1614 1.386 . S
C1618 C1613 1.490 . S
C1618 C1620 1.395 . S
C1618 C1621 1.403 . S
H1619 C1625 0.930 . S
C1620 H1606 0.930 . S
C1620 C1618 1.395 . S
C1620 C1623 1.403 . S
C1621 C1618 1.403 . S
C1621 C1622 1.524 . S
C1621 C1625 1.400 . S
C1622 H1607 0.960 . S
C1622 H1608 0.960 . S
C1622 H1609 0.960 . S
C1622 C1621 1.524 . S
C1623 C1620 1.403 . S
C1623 C1624 1.392 . S
C1623 C1627 1.495 . S
C1624 C1623 1.392 . S
C1624 C1625 1.385 . S
C1624 C1626 1.478 . S
C1625 H1619 0.930 . S
C1625 C1621 1.400 . S
C1625 C1624 1.385 . S
C1626 C1624 1.478 . S
C1626 C1628 1.381 . S
C1626 C1632 1.383 . S
C1627 C1623 1.495 . S
C1627 H1633 0.959 . S
C1627 H1634 0.961 . S
C1627 H1635 0.960 . S
C1628 C1626 1.381 . S
C1628 C1629 1.394 . S
C1628 H1636 0.930 . S
C1629 C1628 1.394 . S
C1629 C1630 1.383 1_655 S
C1629 H1637 0.929 . S
C1630 C1629 1.383 1_455 S
C1630 C1631 1.377 . S
C1631 H1615 0.930 . S
C1631 C1630 1.377 . S
C1631 C1632 1.379 1_455 S
C1632 H1616 0.931 . S
C1632 C1626 1.383 . S
C1632 C1631 1.379 1_655 S
H1633 C1627 0.959 . S
H1634 C1627 0.961 . S
H1635 C1627 0.960 . S
H1636 C1628 0.930 . S
H1637 C1629 0.929 . S
H1638 C1646 0.929 . S
H1639 C1648 0.930 . S
H1640 C1650 0.930 . S
H1641 C1653 0.929 . S
H1642 C1656 0.930 . S
H1643 C1658 0.960 . S
H1644 C1658 0.960 . S
H1645 C1658 0.960 . S
C1646 H1638 0.929 . S
C1646 C1647 1.377 . S
C1646 C1648 1.384 . S
C1647 C1646 1.377 . S
C1647 C1653 1.390 . S
C1648 H1639 0.930 . S
C1648 C1646 1.384 . S
C1648 C1649 1.372 . S
C1649 C1648 1.372 . S
C1649 C1650 1.400 . S
C1649 C1654 1.490 . S
C1650 H1640 0.930 . S
C1650 C1649 1.400 . S
C1650 C1653 1.386 . S
H1651 C1667 0.930 . S
H1652 C1668 0.931 . S
C1653 H1641 0.929 . S
C1653 C1647 1.390 . S
C1653 C1650 1.386 . S
C1654 C1649 1.490 . S
C1654 C1656 1.395 . S
C1654 C1657 1.403 . S
H1655 C1661 0.930 . S
C1656 H1642 0.930 . S
C1656 C1654 1.395 . S
C1656 C1659 1.403 . S
C1657 C1654 1.403 . S
C1657 C1658 1.524 . S
C1657 C1661 1.400 . S
C1658 H1643 0.960 . S
C1658 H1644 0.960 . S
C1658 H1645 0.960 . S
C1658 C1657 1.524 . S
C1659 C1656 1.403 . S
C1659 C1660 1.392 . S
C1659 C1663 1.495 . S
C1660 C1659 1.392 . S
C1660 C1661 1.385 . S
C1660 C1662 1.478 . S
C1661 H1655 0.930 . S
C1661 C1657 1.400 . S
C1661 C1660 1.385 . S
C1662 C1660 1.478 . S
C1662 C1664 1.381 . S
C1662 C1668 1.383 . S
C1663 C1659 1.495 . S
C1663 H1669 0.959 . S
C1663 H1670 0.961 . S
C1663 H1671 0.960 . S
C1664 C1662 1.381 . S
C1664 C1665 1.394 . S
C1664 H1672 0.930 . S
C1665 C1664 1.394 . S
C1665 C1666 1.383 . S
C1665 H1673 0.929 . S
C1666 C1665 1.383 . S
C1666 C1667 1.377 . S
C1667 H1651 0.930 . S
C1667 C1666 1.377 . S
C1667 C1668 1.379 . S
C1668 H1652 0.931 . S
C1668 C1662 1.383 . S
C1668 C1667 1.379 . S
H1669 C1663 0.959 . S
H1670 C1663 0.961 . S
H1671 C1663 0.960 . S
H1672 C1664 0.930 . S
H1673 C1665 0.929 . S
H1674 C1682 0.929 . S
H1675 C1684 0.930 . S
H1676 C1686 0.930 . S
H1677 C1689 0.929 . S
H1678 C1692 0.930 . S
H1679 C1694 0.960 . S
H1680 C1694 0.960 . S
H1681 C1694 0.960 . S
C1682 H1674 0.929 . S
C1682 C1683 1.377 . S
C1682 C1684 1.384 . S
C1683 C1682 1.377 . S
C1683 C1689 1.390 . S
C1684 H1675 0.930 . S
C1684 C1682 1.384 . S
C1684 C1685 1.372 . S
C1685 C1684 1.372 . S
C1685 C1686 1.400 . S
C1685 C1690 1.490 . S
C1686 H1676 0.930 . S
C1686 C1685 1.400 . S
C1686 C1689 1.386 . S
H1687 C1703 0.930 . S
H1688 C1704 0.931 . S
C1689 H1677 0.929 . S
C1689 C1683 1.390 . S
C1689 C1686 1.386 . S
C1690 C1685 1.490 . S
C1690 C1692 1.395 . S
C1690 C1693 1.403 . S
H1691 C1697 0.930 . S
C1692 H1678 0.930 . S
C1692 C1690 1.395 . S
C1692 C1695 1.403 . S
C1693 C1690 1.403 . S
C1693 C1694 1.524 . S
C1693 C1697 1.400 . S
C1694 H1679 0.960 . S
C1694 H1680 0.960 . S
C1694 H1681 0.960 . S
C1694 C1693 1.524 . S
C1695 C1692 1.403 . S
C1695 C1696 1.392 . S
C1695 C1699 1.495 . S
C1696 C1695 1.392 . S
C1696 C1697 1.385 . S
C1696 C1698 1.478 . S
C1697 H1691 0.930 . S
C1697 C1693 1.400 . S
C1697 C1696 1.385 . S
C1698 C1696 1.478 . S
C1698 C1700 1.381 . S
C1698 C1704 1.383 . S
C1699 C1695 1.495 . S
C1699 H1705 0.959 . S
C1699 H1706 0.961 . S
C1699 H1707 0.960 . S
C1700 C1698 1.381 . S
C1700 C1701 1.394 . S
C1700 H1708 0.930 . S
C1701 C1700 1.394 . S
C1701 C1702 1.383 1_545 S
C1701 H1709 0.929 . S
C1702 C1701 1.383 1_565 S
C1702 C1703 1.377 . S
C1703 H1687 0.930 . S
C1703 C1702 1.377 . S
C1703 C1704 1.379 1_565 S
C1704 H1688 0.931 . S
C1704 C1698 1.383 . S
C1704 C1703 1.379 1_545 S
H1705 C1699 0.959 . S
H1706 C1699 0.961 . S
H1707 C1699 0.960 . S
H1708 C1700 0.930 . S
H1709 C1701 0.929 . S
H1710 C1718 0.929 . S
H1711 C1720 0.930 . S
H1712 C1722 0.930 . S
H1713 C1725 0.929 . S
H1714 C1728 0.930 . S
H1715 C1730 0.960 . S
H1716 C1730 0.960 . S
H1717 C1730 0.960 . S
C1718 H1710 0.929 . S
C1718 C1719 1.377 . S
C1718 C1720 1.384 1_556 S
C1719 C1718 1.377 . S
C1719 C1725 1.390 . S
C1720 H1711 0.930 . S
C1720 C1718 1.384 1_554 S
C1720 C1721 1.372 . S
C1721 C1720 1.372 . S
C1721 C1722 1.400 1_554 S
C1721 C1726 1.490 . S
C1722 H1712 0.930 . S
C1722 C1721 1.400 1_556 S
C1722 C1725 1.386 . S
H1723 C1739 0.930 . S
H1724 C1740 0.931 . S
C1725 H1713 0.929 . S
C1725 C1719 1.390 . S
C1725 C1722 1.386 . S
C1726 C1721 1.490 . S
C1726 C1728 1.395 . S
C1726 C1729 1.403 . S
H1727 C1733 0.930 . S
C1728 H1714 0.930 . S
C1728 C1726 1.395 . S
C1728 C1731 1.403 . S
C1729 C1726 1.403 . S
C1729 C1730 1.524 1_554 S
C1729 C1733 1.400 . S
C1730 H1715 0.960 . S
C1730 H1716 0.960 . S
C1730 H1717 0.960 . S
C1730 C1729 1.524 1_556 S
C1731 C1728 1.403 . S
C1731 C1732 1.392 . S
C1731 C1735 1.495 . S
C1732 C1731 1.392 . S
C1732 C1733 1.385 . S
C1732 C1734 1.478 . S
C1733 H1727 0.930 . S
C1733 C1729 1.400 . S
C1733 C1732 1.385 . S
C1734 C1732 1.478 . S
C1734 C1736 1.381 . S
C1734 C1740 1.383 . S
C1735 C1731 1.495 . S
C1735 H1741 0.959 . S
C1735 H1742 0.961 . S
C1735 H1743 0.960 . S
C1736 C1734 1.381 . S
C1736 C1737 1.394 . S
C1736 H1744 0.930 . S
C1737 C1736 1.394 . S
C1737 C1738 1.383 . S
C1737 H1745 0.929 . S
C1738 C1737 1.383 . S
C1738 C1739 1.377 . S
C1739 H1723 0.930 . S
C1739 C1738 1.377 . S
C1739 C1740 1.379 . S
C1740 H1724 0.931 . S
C1740 C1734 1.383 . S
C1740 C1739 1.379 . S
H1741 C1735 0.959 . S
H1742 C1735 0.961 . S
H1743 C1735 0.960 . S
H1744 C1736 0.930 . S
H1745 C1737 0.929 . S
H1746 C1754 0.929 . S
H1747 C1756 0.930 . S
H1748 C1758 0.930 . S
H1749 C1761 0.929 . S
H1750 C1764 0.930 . S
H1751 C1766 0.961 . S
H1752 C1766 0.960 . S
H1753 C1766 0.960 1_554 S
C1754 H1746 0.929 . S
C1754 C1755 1.377 . S
C1754 C1756 1.384 . S
C1755 C1754 1.377 . S
C1755 C1761 1.390 . S
C1756 H1747 0.930 . S
C1756 C1754 1.384 . S
C1756 C1757 1.372 1_556 S
C1757 C1756 1.372 1_554 S
C1757 C1758 1.400 . S
C1757 C1762 1.490 . S
C1758 H1748 0.930 . S
C1758 C1757 1.400 . S
C1758 C1761 1.386 1_554 S
H1759 C1775 0.930 . S
H1760 C1776 0.931 . S
C1761 H1749 0.929 . S
C1761 C1755 1.390 . S
C1761 C1758 1.386 1_556 S
C1762 C1757 1.490 . S
C1762 C1764 1.395 . S
C1762 C1765 1.403 . S
H1763 C1769 0.930 . S
C1764 H1750 0.930 . S
C1764 C1762 1.395 . S
C1764 C1767 1.403 . S
C1765 C1762 1.403 . S
C1765 C1766 1.524 1_554 S
C1765 C1769 1.400 . S
C1766 H1751 0.961 . S
C1766 H1752 0.960 . S
C1766 H1753 0.960 1_556 S
C1766 C1765 1.524 1_556 S
C1767 C1764 1.403 . S
C1767 C1768 1.392 . S
C1767 C1771 1.495 . S
C1768 C1767 1.392 . S
C1768 C1769 1.385 . S
C1768 C1770 1.478 . S
C1769 H1763 0.930 . S
C1769 C1765 1.400 . S
C1769 C1768 1.385 . S
C1770 C1768 1.478 . S
C1770 C1772 1.381 . S
C1770 C1776 1.383 . S
C1771 C1767 1.495 . S
C1771 H1777 0.959 . S
C1771 H1778 0.961 . S
C1771 H1779 0.960 . S
C1772 C1770 1.381 . S
C1772 C1773 1.394 . S
C1772 H1780 0.930 . S
C1773 C1772 1.394 . S
C1773 C1774 1.383 . S
C1773 H1781 0.929 . S
C1774 C1773 1.383 . S
C1774 C1775 1.377 . S
C1775 H1759 0.930 . S
C1775 C1774 1.377 . S
C1775 C1776 1.379 . S
C1776 H1760 0.931 . S
C1776 C1770 1.383 . S
C1776 C1775 1.379 . S
H1777 C1771 0.959 . S
H1778 C1771 0.961 . S
H1779 C1771 0.960 . S
H1780 C1772 0.930 . S
H1781 C1773 0.929 . S
H1782 C1790 0.929 . S
H1783 C1792 0.930 . S
H1784 C1794 0.930 . S
H1785 C1797 0.929 . S
H1786 C1800 0.930 . S
H1787 C1802 0.960 . S
H1788 C1802 0.960 . S
H1789 C1802 0.960 . S
C1790 H1782 0.929 . S
C1790 C1791 1.377 1_554 S
C1790 C1792 1.384 . S
C1791 C1790 1.377 1_556 S
C1791 C1797 1.390 . S
C1792 H1783 0.930 . S
C1792 C1790 1.384 . S
C1792 C1793 1.372 . S
C1793 C1792 1.372 . S
C1793 C1794 1.400 1_554 S
C1793 C1798 1.490 . S
C1794 H1784 0.930 . S
C1794 C1793 1.400 1_556 S
C1794 C1797 1.386 . S
H1795 C1811 0.930 . S
H1796 C1812 0.931 . S
C1797 H1785 0.929 . S
C1797 C1791 1.390 . S
C1797 C1794 1.386 . S
C1798 C1793 1.490 . S
C1798 C1800 1.395 . S
C1798 C1801 1.403 . S
H1799 C1805 0.930 . S
C1800 H1786 0.930 . S
C1800 C1798 1.395 . S
C1800 C1803 1.403 . S
C1801 C1798 1.403 . S
C1801 C1802 1.524 . S
C1801 C1805 1.400 . S
C1802 H1787 0.960 . S
C1802 H1788 0.960 . S
C1802 H1789 0.960 . S
C1802 C1801 1.524 . S
C1803 C1800 1.403 . S
C1803 C1804 1.392 . S
C1803 C1807 1.495 . S
C1804 C1803 1.392 . S
C1804 C1805 1.385 . S
C1804 C1806 1.478 . S
C1805 H1799 0.930 . S
C1805 C1801 1.400 . S
C1805 C1804 1.385 . S
C1806 C1804 1.478 . S
C1806 C1808 1.381 . S
C1806 C1812 1.383 . S
C1807 C1803 1.495 . S
C1807 H1813 0.959 . S
C1807 H1814 0.961 . S
C1807 H1815 0.960 . S
C1808 C1806 1.381 . S
C1808 C1809 1.394 . S
C1808 H1816 0.930 . S
C1809 C1808 1.394 . S
C1809 C1810 1.383 . S
C1809 H1817 0.929 . S
C1810 C1809 1.383 . S
C1810 C1811 1.377 . S
C1811 H1795 0.930 . S
C1811 C1810 1.377 . S
C1811 C1812 1.379 . S
C1812 H1796 0.931 . S
C1812 C1806 1.383 . S
C1812 C1811 1.379 . S
H1813 C1807 0.959 . S
H1814 C1807 0.961 . S
H1815 C1807 0.960 . S
H1816 C1808 0.930 . S
H1817 C1809 0.929 . S
H1818 C1826 0.929 . S
H1819 C1828 0.930 . S
H1820 C1830 0.930 . S
H1821 C1833 0.929 . S
H1822 C1836 0.930 . S
H1823 C1838 0.960 . S
H1824 C1838 0.960 . S
H1825 C1838 0.960 . S
C1826 H1818 0.929 . S
C1826 C1827 1.377 . S
C1826 C1828 1.384 . S
C1827 C1826 1.377 . S
C1827 C1833 1.390 . S
C1828 H1819 0.930 . S
C1828 C1826 1.384 . S
C1828 C1829 1.372 . S
C1829 C1828 1.372 . S
C1829 C1830 1.400 . S
C1829 C1834 1.490 . S
C1830 H1820 0.930 . S
C1830 C1829 1.400 . S
C1830 C1833 1.386 . S
H1831 C1847 0.930 . S
H1832 C1848 0.931 . S
C1833 H1821 0.929 . S
C1833 C1827 1.390 . S
C1833 C1830 1.386 . S
C1834 C1829 1.490 . S
C1834 C1836 1.395 . S
C1834 C1837 1.403 . S
H1835 C1841 0.930 . S
C1836 H1822 0.930 . S
C1836 C1834 1.395 . S
C1836 C1839 1.403 . S
C1837 C1834 1.403 . S
C1837 C1838 1.524 . S
C1837 C1841 1.400 . S
C1838 H1823 0.960 . S
C1838 H1824 0.960 . S
C1838 H1825 0.960 . S
C1838 C1837 1.524 . S
C1839 C1836 1.403 . S
C1839 C1840 1.392 . S
C1839 C1843 1.488 1_556 S
C1840 C1839 1.392 . S
C1840 C1841 1.385 . S
C1840 C1842 1.478 . S
C1841 H1835 0.930 . S
C1841 C1837 1.400 . S
C1841 C1840 1.385 . S
C1842 C1840 1.478 . S
C1842 C1844 1.381 1_556 S
C1842 C1848 1.383 . S
C1843 C1839 1.488 1_554 S
C1843 H1849 0.959 1_554 S
C1843 H1850 0.958 1_554 S
C1843 H1851 0.970 . S
C1844 C1842 1.381 1_554 S
C1844 C1845 1.394 . S
C1844 H1852 0.930 . S
C1845 C1844 1.394 . S
C1845 C1846 1.383 . S
C1845 H1853 0.929 . S
C1846 C1845 1.383 . S
C1846 C1847 1.377 1_554 S
C1847 H1831 0.930 . S
C1847 C1846 1.377 1_556 S
C1847 C1848 1.379 . S
C1848 H1832 0.931 . S
C1848 C1842 1.383 . S
C1848 C1847 1.379 . S
H1849 C1843 0.959 1_556 S
H1850 C1843 0.958 1_556 S
H1851 C1843 0.970 . S
H1852 C1844 0.930 . S
H1853 C1845 0.929 . S
H1854 C1862 0.929 . S
H1855 C1864 0.930 . S
H1856 C1866 0.930 . S
H1857 C1869 0.929 . S
H1858 C1872 0.930 . S
H1859 C1874 0.960 . S
H1860 C1874 0.960 . S
H1861 C1874 0.960 . S
C1862 H1854 0.929 . S
C1862 C1863 1.377 . S
C1862 C1864 1.384 . S
C1863 C1862 1.377 . S
C1863 C1869 1.390 . S
C1864 H1855 0.930 . S
C1864 C1862 1.384 . S
C1864 C1865 1.372 . S
C1865 C1864 1.372 . S
C1865 C1866 1.400 . S
C1865 C1870 1.490 . S
C1866 H1856 0.930 . S
C1866 C1865 1.400 . S
C1866 C1869 1.386 . S
H1867 C1883 0.930 . S
H1868 C1884 0.931 . S
C1869 H1857 0.929 . S
C1869 C1863 1.390 . S
C1869 C1866 1.386 . S
C1870 C1865 1.490 . S
C1870 C1872 1.395 . S
C1870 C1873 1.403 . S
H1871 C1877 0.930 . S
C1872 H1858 0.930 . S
C1872 C1870 1.395 . S
C1872 C1875 1.403 . S
C1873 C1870 1.403 . S
C1873 C1874 1.524 . S
C1873 C1877 1.400 . S
C1874 H1859 0.960 . S
C1874 H1860 0.960 . S
C1874 H1861 0.960 . S
C1874 C1873 1.524 . S
C1875 C1872 1.403 . S
C1875 C1876 1.392 . S
C1875 C1879 1.495 . S
C1876 C1875 1.392 . S
C1876 C1877 1.385 . S
C1876 C1878 1.478 . S
C1877 H1871 0.930 . S
C1877 C1873 1.400 . S
C1877 C1876 1.385 . S
C1878 C1876 1.478 . S
C1878 C1880 1.381 1_556 S
C1878 C1884 1.383 . S
C1879 C1875 1.495 . S
C1879 H1885 0.959 . S
C1879 H1886 0.961 . S
C1879 H1887 0.960 . S
C1880 C1878 1.381 1_554 S
C1880 C1881 1.394 . S
C1880 H1888 0.930 . S
C1881 C1880 1.394 . S
C1881 C1882 1.383 . S
C1881 H1889 0.929 . S
C1882 C1881 1.383 . S
C1882 C1883 1.377 1_554 S
C1883 H1867 0.930 . S
C1883 C1882 1.377 1_556 S
C1883 C1884 1.379 . S
C1884 H1868 0.931 . S
C1884 C1878 1.383 . S
C1884 C1883 1.379 . S
H1885 C1879 0.959 . S
H1886 C1879 0.961 . S
H1887 C1879 0.960 . S
H1888 C1880 0.930 . S
H1889 C1881 0.929 . S
H1890 C1898 0.929 . S
H1891 C1900 0.930 . S
H1892 C1902 0.930 . S
H1893 C1905 0.929 . S
H1894 C1908 0.930 . S
H1895 C1910 0.960 . S
H1896 C1910 0.960 . S
H1897 C1910 0.960 . S
C1898 H1890 0.929 . S
C1898 C1899 1.377 . S
C1898 C1900 1.384 . S
C1899 C1898 1.377 . S
C1899 C1905 1.390 1_554 S
C1900 H1891 0.930 . S
C1900 C1898 1.384 . S
C1900 C1901 1.372 1_554 S
C1901 C1900 1.372 1_556 S
C1901 C1902 1.400 . S
C1901 C1906 1.490 . S
C1902 H1892 0.930 . S
C1902 C1901 1.400 . S
C1902 C1905 1.386 . S
H1903 C1919 0.930 . S
H1904 C1920 0.931 . S
C1905 H1893 0.929 . S
C1905 C1899 1.390 1_556 S
C1905 C1902 1.386 . S
C1906 C1901 1.490 . S
C1906 C1908 1.395 . S
C1906 C1909 1.403 . S
H1907 C1913 0.930 . S
C1908 H1894 0.930 . S
C1908 C1906 1.395 . S
C1908 C1911 1.403 . S
C1909 C1906 1.403 . S
C1909 C1910 1.524 . S
C1909 C1913 1.400 . S
C1910 H1895 0.960 . S
C1910 H1896 0.960 . S
C1910 H1897 0.960 . S
C1910 C1909 1.524 . S
C1911 C1908 1.403 . S
C1911 C1912 1.392 . S
C1911 C1915 1.495 . S
C1912 C1911 1.392 . S
C1912 C1913 1.385 . S
C1912 C1914 1.478 . S
C1913 H1907 0.930 . S
C1913 C1909 1.400 . S
C1913 C1912 1.385 . S
C1914 C1912 1.478 . S
C1914 C1916 1.381 . S
C1914 C1920 1.383 . S
C1915 C1911 1.495 . S
C1915 H1921 0.959 . S
C1915 H1922 0.961 . S
C1915 H1923 0.960 . S
C1916 C1914 1.381 . S
C1916 C1917 1.394 . S
C1916 H1924 0.930 . S
C1917 C1916 1.394 . S
C1917 C1918 1.383 . S
C1917 H1925 0.929 . S
C1918 C1917 1.383 . S
C1918 C1919 1.377 . S
C1919 H1903 0.930 . S
C1919 C1918 1.377 . S
C1919 C1920 1.379 . S
C1920 H1904 0.931 . S
C1920 C1914 1.383 . S
C1920 C1919 1.379 . S
H1921 C1915 0.959 . S
H1922 C1915 0.961 . S
H1923 C1915 0.960 . S
H1924 C1916 0.930 . S
H1925 C1917 0.929 . S
H1926 C1934 0.928 1_655 S
H1927 C1936 0.930 . S
H1928 C1938 0.930 . S
H1929 C1941 0.929 . S
H1930 C1944 0.930 . S
H1931 C1946 0.960 . S
H1932 C1946 0.960 . S
H1933 C1946 0.960 . S
C1934 H1926 0.928 1_455 S
C1934 C1935 1.358 1_455 S
C1934 C1936 1.405 . S
C1935 C1934 1.358 1_655 S
C1935 C1941 1.390 . S
C1936 H1927 0.930 . S
C1936 C1934 1.405 . S
C1936 C1937 1.372 . S
C1937 C1936 1.372 . S
C1937 C1938 1.400 . S
C1937 C1942 1.490 . S
C1938 H1928 0.930 . S
C1938 C1937 1.400 . S
C1938 C1941 1.386 1_455 S
H1939 C1955 0.930 . S
H1940 C1956 0.931 . S
C1941 H1929 0.929 . S
C1941 C1935 1.390 . S
C1941 C1938 1.386 1_655 S
C1942 C1937 1.490 . S
C1942 C1944 1.395 . S
C1942 C1945 1.403 . S
H1943 C1949 0.930 . S
C1944 H1930 0.930 . S
C1944 C1942 1.395 . S
C1944 C1947 1.403 . S
C1945 C1942 1.403 . S
C1945 C1946 1.524 . S
C1945 C1949 1.400 . S
C1946 H1931 0.960 . S
C1946 H1932 0.960 . S
C1946 H1933 0.960 . S
C1946 C1945 1.524 . S
C1947 C1944 1.403 . S
C1947 C1948 1.392 . S
C1947 C1951 1.495 . S
C1948 C1947 1.392 . S
C1948 C1949 1.385 . S
C1948 C1950 1.478 . S
C1949 H1943 0.930 . S
C1949 C1945 1.400 . S
C1949 C1948 1.385 . S
C1950 C1948 1.478 . S
C1950 C1952 1.381 . S
C1950 C1956 1.383 . S
C1951 C1947 1.495 . S
C1951 H1957 0.959 . S
C1951 H1958 0.961 . S
C1951 H1959 0.960 . S
C1952 C1950 1.381 . S
C1952 C1953 1.394 . S
C1952 H1960 0.930 . S
C1953 C1952 1.394 . S
C1953 C1954 1.383 . S
C1953 H1961 0.929 . S
C1954 C1953 1.383 . S
C1954 C1955 1.377 . S
C1955 H1939 0.930 . S
C1955 C1954 1.377 . S
C1955 C1956 1.379 . S
C1956 H1940 0.931 . S
C1956 C1950 1.383 . S
C1956 C1955 1.379 . S
H1957 C1951 0.959 . S
H1958 C1951 0.961 . S
H1959 C1951 0.960 . S
H1960 C1952 0.930 . S
H1961 C1953 0.929 . S
H1962 C1970 0.929 . S
H1963 C1972 0.930 . S
H1964 C1974 0.930 . S
H1965 C1977 0.929 . S
H1966 C1980 0.930 . S
H1967 C1982 0.960 . S
H1968 C1982 0.960 . S
H1969 C1982 0.960 . S
C1970 H1962 0.929 . S
C1970 C1971 1.377 . S
C1970 C1972 1.384 . S
C1971 C1970 1.377 . S
C1971 C1977 1.390 . S
C1972 H1963 0.930 . S
C1972 C1970 1.384 . S
C1972 C1973 1.372 . S
C1973 C1972 1.372 . S
C1973 C1974 1.400 . S
C1973 C1978 1.490 . S
C1974 H1964 0.930 . S
C1974 C1973 1.400 . S
C1974 C1977 1.386 . S
H1975 C1991 0.930 . S
H1976 C1992 0.931 . S
C1977 H1965 0.929 . S
C1977 C1971 1.390 . S
C1977 C1974 1.386 . S
C1978 C1973 1.490 . S
C1978 C1980 1.395 . S
C1978 C1981 1.403 . S
H1979 C1985 0.930 . S
C1980 H1966 0.930 . S
C1980 C1978 1.395 . S
C1980 C1983 1.403 . S
C1981 C1978 1.403 . S
C1981 C1982 1.524 . S
C1981 C1985 1.400 . S
C1982 H1967 0.960 . S
C1982 H1968 0.960 . S
C1982 H1969 0.960 . S
C1982 C1981 1.524 . S
C1983 C1980 1.403 . S
C1983 C1984 1.392 . S
C1983 C1987 1.495 . S
C1984 C1983 1.392 . S
C1984 C1985 1.385 . S
C1984 C1986 1.478 . S
C1985 H1979 0.930 . S
C1985 C1981 1.400 . S
C1985 C1984 1.385 . S
C1986 C1984 1.478 . S
C1986 C1988 1.381 . S
C1986 C1992 1.383 . S
C1987 C1983 1.495 . S
C1987 H1993 0.959 . S
C1987 H1994 0.961 . S
C1987 H1995 0.960 . S
C1988 C1986 1.381 . S
C1988 C1989 1.394 . S
C1988 H1996 0.930 . S
C1989 C1988 1.394 . S
C1989 C1990 1.383 . S
C1989 H1997 0.929 . S
C1990 C1989 1.383 . S
C1990 C1991 1.377 . S
C1991 H1975 0.930 . S
C1991 C1990 1.377 . S
C1991 C1992 1.379 . S
C1992 H1976 0.931 . S
C1992 C1986 1.383 . S
C1992 C1991 1.379 . S
H1993 C1987 0.959 . S
H1994 C1987 0.961 . S
H1995 C1987 0.960 . S
H1996 C1988 0.930 . S
H1997 C1989 0.929 . S
H1998 C2006 0.929 . S
H1999 C2008 0.930 . S
H2000 C2010 0.930 . S
H2001 C2013 0.929 . S
H2002 C2016 0.930 . S
H2003 C2018 0.960 . S
H2004 C2018 0.960 . S
H2005 C2018 0.960 . S
C2006 H1998 0.929 . S
C2006 C2007 1.377 1_565 S
C2006 C2008 1.384 . S
C2007 C2006 1.377 1_545 S
C2007 C2013 1.390 . S
C2008 H1999 0.930 . S
C2008 C2006 1.384 . S
C2008 C2009 1.372 . S
C2009 C2008 1.372 . S
C2009 C2010 1.400 . S
C2009 C2014 1.490 . S
C2010 H2000 0.930 . S
C2010 C2009 1.400 . S
C2010 C2013 1.386 1_565 S
H2011 C2027 0.930 . S
H2012 C2028 0.931 . S
C2013 H2001 0.929 . S
C2013 C2007 1.390 . S
C2013 C2010 1.386 1_545 S
C2014 C2009 1.490 . S
C2014 C2016 1.395 . S
C2014 C2017 1.403 . S
H2015 C2021 0.930 . S
C2016 H2002 0.930 . S
C2016 C2014 1.395 . S
C2016 C2019 1.403 . S
C2017 C2014 1.403 . S
C2017 C2018 1.524 . S
C2017 C2021 1.400 . S
C2018 H2003 0.960 . S
C2018 H2004 0.960 . S
C2018 H2005 0.960 . S
C2018 C2017 1.524 . S
C2019 C2016 1.403 . S
C2019 C2020 1.392 . S
C2019 C2023 1.495 . S
C2020 C2019 1.392 . S
C2020 C2021 1.385 . S
C2020 C2022 1.478 . S
C2021 H2015 0.930 . S
C2021 C2017 1.400 . S
C2021 C2020 1.385 . S
C2022 C2020 1.478 . S
C2022 C2024 1.381 . S
C2022 C2028 1.383 . S
C2023 C2019 1.495 . S
C2023 H2029 0.959 . S
C2023 H2030 0.961 . S
C2023 H2031 0.960 . S
C2024 C2022 1.381 . S
C2024 C2025 1.394 . S
C2024 H2032 0.930 . S
C2025 C2024 1.394 . S
C2025 C2026 1.383 . S
C2025 H2033 0.929 . S
C2026 C2025 1.383 . S
C2026 C2027 1.377 . S
C2027 H2011 0.930 . S
C2027 C2026 1.377 . S
C2027 C2028 1.379 . S
C2028 H2012 0.931 . S
C2028 C2022 1.383 . S
C2028 C2027 1.379 . S
H2029 C2023 0.959 . S
H2030 C2023 0.961 . S
H2031 C2023 0.960 . S
H2032 C2024 0.930 . S
H2033 C2025 0.929 . S
H2034 C2042 0.929 . S
H2035 C2044 0.930 . S
H2036 C2046 0.930 . S
H2037 C2049 0.929 . S
H2038 C2052 0.930 . S
H2039 C2054 0.960 . S
H2040 C2054 0.960 . S
H2041 C2054 0.960 . S
C2042 H2034 0.929 . S
C2042 C2043 1.377 . S
C2042 C2044 1.384 . S
C2043 C2042 1.377 . S
C2043 C2049 1.390 . S
C2044 H2035 0.930 . S
C2044 C2042 1.384 . S
C2044 C2045 1.372 . S
C2045 C2044 1.372 . S
C2045 C2046 1.400 . S
C2045 C2050 1.490 . S
C2046 H2036 0.930 . S
C2046 C2045 1.400 . S
C2046 C2049 1.386 . S
H2047 C2063 0.930 . S
H2048 C2064 0.931 . S
C2049 H2037 0.929 . S
C2049 C2043 1.390 . S
C2049 C2046 1.386 . S
C2050 C2045 1.490 . S
C2050 C2052 1.395 . S
C2050 C2053 1.403 . S
H2051 C2057 0.930 . S
C2052 H2038 0.930 . S
C2052 C2050 1.395 . S
C2052 C2055 1.403 . S
C2053 C2050 1.403 . S
C2053 C2054 1.524 . S
C2053 C2057 1.400 . S
C2054 H2039 0.960 . S
C2054 H2040 0.960 . S
C2054 H2041 0.960 . S
C2054 C2053 1.524 . S
C2055 C2052 1.403 . S
C2055 C2056 1.392 . S
C2055 C2059 1.495 . S
C2056 C2055 1.392 . S
C2056 C2057 1.385 . S
C2056 C2058 1.478 . S
C2057 H2051 0.930 . S
C2057 C2053 1.400 . S
C2057 C2056 1.385 . S
C2058 C2056 1.478 . S
C2058 C2060 1.381 . S
C2058 C2064 1.383 . S
C2059 C2055 1.495 . S
C2059 H2065 0.959 . S
C2059 H2066 0.961 . S
C2059 H2067 0.960 . S
C2060 C2058 1.381 . S
C2060 C2061 1.394 . S
C2060 H2068 0.930 . S
C2061 C2060 1.394 . S
C2061 C2062 1.383 . S
C2061 H2069 0.929 . S
C2062 C2061 1.383 . S
C2062 C2063 1.377 . S
C2063 H2047 0.930 . S
C2063 C2062 1.377 . S
C2063 C2064 1.379 . S
C2064 H2048 0.931 . S
C2064 C2058 1.383 . S
C2064 C2063 1.379 . S
H2065 C2059 0.959 . S
H2066 C2059 0.961 . S
H2067 C2059 0.960 . S
H2068 C2060 0.930 . S
H2069 C2061 0.929 . S
H2070 C2078 0.929 . S
H2071 C2080 0.930 . S
H2072 C2082 0.930 . S
H2073 C2085 0.929 . S
H2074 C2088 0.930 . S
H2075 C2090 0.960 . S
H2076 C2090 0.960 . S
H2077 C2090 0.960 . S
C2078 H2070 0.929 . S
C2078 C2079 1.377 . S
C2078 C2080 1.384 . S
C2079 C2078 1.377 . S
C2079 C2085 1.390 . S
C2080 H2071 0.930 . S
C2080 C2078 1.384 . S
C2080 C2081 1.372 . S
C2081 C2080 1.372 . S
C2081 C2082 1.400 . S
C2081 C2086 1.490 . S
C2082 H2072 0.930 . S
C2082 C2081 1.400 . S
C2082 C2085 1.386 . S
H2083 C2099 0.930 . S
H2084 C2100 0.931 . S
C2085 H2073 0.929 . S
C2085 C2079 1.390 . S
C2085 C2082 1.386 . S
C2086 C2081 1.490 . S
C2086 C2088 1.395 . S
C2086 C2089 1.403 . S
H2087 C2093 0.930 . S
C2088 H2074 0.930 . S
C2088 C2086 1.395 . S
C2088 C2091 1.403 . S
C2089 C2086 1.403 . S
C2089 C2090 1.524 . S
C2089 C2093 1.400 . S
C2090 H2075 0.960 . S
C2090 H2076 0.960 . S
C2090 H2077 0.960 . S
C2090 C2089 1.524 . S
C2091 C2088 1.403 . S
C2091 C2092 1.392 . S
C2091 C2095 1.495 . S
C2092 C2091 1.392 . S
C2092 C2093 1.385 . S
C2092 C2094 1.478 . S
C2093 H2087 0.930 . S
C2093 C2089 1.400 . S
C2093 C2092 1.385 . S
C2094 C2092 1.478 . S
C2094 C2096 1.381 . S
C2094 C2100 1.383 . S
C2095 C2091 1.495 . S
C2095 H2101 0.959 . S
C2095 H2102 0.961 . S
C2095 H2103 0.960 . S
C2096 C2094 1.381 . S
C2096 C2097 1.394 . S
C2096 H2104 0.930 . S
C2097 C2096 1.394 . S
C2097 C2098 1.383 . S
C2097 H2105 0.929 . S
C2098 C2097 1.383 . S
C2098 C2099 1.377 . S
C2099 H2083 0.930 . S
C2099 C2098 1.377 . S
C2099 C2100 1.379 . S
C2100 H2084 0.931 . S
C2100 C2094 1.383 . S
C2100 C2099 1.379 . S
H2101 C2095 0.959 . S
H2102 C2095 0.961 . S
H2103 C2095 0.960 . S
H2104 C2096 0.930 . S
H2105 C2097 0.929 . S
H2106 C2114 0.929 . S
H2107 C2116 0.930 . S
H2108 C2118 0.930 . S
H2109 C2121 0.929 . S
H2110 C2124 0.930 . S
H2111 C2126 0.960 . S
H2112 C2126 0.960 . S
H2113 C2126 0.960 . S
C2114 H2106 0.929 . S
C2114 C2115 1.377 . S
C2114 C2116 1.384 . S
C2115 C2114 1.377 . S
C2115 C2121 1.390 . S
C2116 H2107 0.930 . S
C2116 C2114 1.384 . S
C2116 C2117 1.372 . S
C2117 C2116 1.372 . S
C2117 C2118 1.400 . S
C2117 C2122 1.490 . S
C2118 H2108 0.930 . S
C2118 C2117 1.400 . S
C2118 C2121 1.386 . S
H2119 C2135 0.930 . S
H2120 C2136 0.931 . S
C2121 H2109 0.929 . S
C2121 C2115 1.390 . S
C2121 C2118 1.386 . S
C2122 C2117 1.490 . S
C2122 C2124 1.395 . S
C2122 C2125 1.403 . S
H2123 C2129 0.930 . S
C2124 H2110 0.930 . S
C2124 C2122 1.395 . S
C2124 C2127 1.403 . S
C2125 C2122 1.403 . S
C2125 C2126 1.524 . S
C2125 C2129 1.400 . S
C2126 H2111 0.960 . S
C2126 H2112 0.960 . S
C2126 H2113 0.960 . S
C2126 C2125 1.524 . S
C2127 C2124 1.403 . S
C2127 C2128 1.392 . S
C2127 C2131 1.495 . S
C2128 C2127 1.392 . S
C2128 C2129 1.385 . S
C2128 C2130 1.478 . S
C2129 H2123 0.930 . S
C2129 C2125 1.400 . S
C2129 C2128 1.385 . S
C2130 C2128 1.478 . S
C2130 C2132 1.381 . S
C2130 C2136 1.383 . S
C2131 C2127 1.495 . S
C2131 H2137 0.959 . S
C2131 H2138 0.961 . S
C2131 H2139 0.960 . S
C2132 C2130 1.381 . S
C2132 C2133 1.394 . S
C2132 H2140 0.930 . S
C2133 C2132 1.394 . S
C2133 C2134 1.383 . S
C2133 H2141 0.929 . S
C2134 C2133 1.383 . S
C2134 C2135 1.377 . S
C2135 H2119 0.930 . S
C2135 C2134 1.377 . S
C2135 C2136 1.379 . S
C2136 H2120 0.931 . S
C2136 C2130 1.383 . S
C2136 C2135 1.379 . S
H2137 C2131 0.959 . S
H2138 C2131 0.961 . S
H2139 C2131 0.960 . S
H2140 C2132 0.930 . S
H2141 C2133 0.929 . S
H2142 C2150 0.929 . S
H2143 C2152 0.930 . S
H2144 C2154 0.930 . S
H2145 C2157 0.929 . S
H2146 C2160 0.930 . S
H2147 C2162 0.960 . S
H2148 C2162 0.960 . S
H2149 C2162 0.960 . S
C2150 H2142 0.929 . S
C2150 C2151 1.377 . S
C2150 C2152 1.384 . S
C2151 C2150 1.377 . S
C2151 C2157 1.390 . S
C2152 H2143 0.930 . S
C2152 C2150 1.384 . S
C2152 C2153 1.372 . S
C2153 C2152 1.372 . S
C2153 C2154 1.400 . S
C2153 C2158 1.490 . S
C2154 H2144 0.930 . S
C2154 C2153 1.400 . S
C2154 C2157 1.386 . S
H2155 C2171 0.930 . S
H2156 C2172 0.931 . S
C2157 H2145 0.929 . S
C2157 C2151 1.390 . S
C2157 C2154 1.386 . S
C2158 C2153 1.490 . S
C2158 C2160 1.395 . S
C2158 C2161 1.403 . S
H2159 C2165 0.930 . S
C2160 H2146 0.930 . S
C2160 C2158 1.395 . S
C2160 C2163 1.403 . S
C2161 C2158 1.403 . S
C2161 C2162 1.524 . S
C2161 C2165 1.400 . S
C2162 H2147 0.960 . S
C2162 H2148 0.960 . S
C2162 H2149 0.960 . S
C2162 C2161 1.524 . S
C2163 C2160 1.403 . S
C2163 C2164 1.392 . S
C2163 C2167 1.495 . S
C2164 C2163 1.392 . S
C2164 C2165 1.385 . S
C2164 C2166 1.478 . S
C2165 H2159 0.930 . S
C2165 C2161 1.400 . S
C2165 C2164 1.385 . S
C2166 C2164 1.478 . S
C2166 C2168 1.381 . S
C2166 C2172 1.383 . S
C2167 C2163 1.495 . S
C2167 H2173 0.959 . S
C2167 H2174 0.961 . S
C2167 H2175 0.960 . S
C2168 C2166 1.381 . S
C2168 C2169 1.394 . S
C2168 H2176 0.930 . S
C2169 C2168 1.394 . S
C2169 C2170 1.383 . S
C2169 H2177 0.929 . S
C2170 C2169 1.383 . S
C2170 C2171 1.377 . S
C2171 H2155 0.930 . S
C2171 C2170 1.377 . S
C2171 C2172 1.379 . S
C2172 H2156 0.931 . S
C2172 C2166 1.383 . S
C2172 C2171 1.379 . S
H2173 C2167 0.959 . S
H2174 C2167 0.961 . S
H2175 C2167 0.960 . S
H2176 C2168 0.930 . S
H2177 C2169 0.929 . S
H2178 C2186 0.929 . S
H2179 C2188 0.930 . S
H2180 C2190 0.930 . S
H2181 C2193 0.929 . S
H2182 C2196 0.930 . S
H2183 C2198 0.960 . S
H2184 C2198 0.960 . S
H2185 C2198 0.960 . S
C2186 H2178 0.929 . S
C2186 C2187 1.377 . S
C2186 C2188 1.384 . S
C2187 C2186 1.377 . S
C2187 C2193 1.390 . S
C2188 H2179 0.930 . S
C2188 C2186 1.384 . S
C2188 C2189 1.372 . S
C2189 C2188 1.372 . S
C2189 C2190 1.400 . S
C2189 C2194 1.490 . S
C2190 H2180 0.930 . S
C2190 C2189 1.400 . S
C2190 C2193 1.386 . S
H2191 C2207 0.930 . S
H2192 C2208 0.931 . S
C2193 H2181 0.929 . S
C2193 C2187 1.390 . S
C2193 C2190 1.386 . S
C2194 C2189 1.490 . S
C2194 C2196 1.395 . S
C2194 C2197 1.403 . S
H2195 C2201 0.930 . S
C2196 H2182 0.930 . S
C2196 C2194 1.395 . S
C2196 C2199 1.403 . S
C2197 C2194 1.403 . S
C2197 C2198 1.524 . S
C2197 C2201 1.400 . S
C2198 H2183 0.960 . S
C2198 H2184 0.960 . S
C2198 H2185 0.960 . S
C2198 C2197 1.524 . S
C2199 C2196 1.403 . S
C2199 C2200 1.392 . S
C2199 C2203 1.495 . S
C2200 C2199 1.392 . S
C2200 C2201 1.385 . S
C2200 C2202 1.478 . S
C2201 H2195 0.930 . S
C2201 C2197 1.400 . S
C2201 C2200 1.385 . S
C2202 C2200 1.478 . S
C2202 C2204 1.381 . S
C2202 C2208 1.383 . S
C2203 C2199 1.495 . S
C2203 H2209 0.959 . S
C2203 H2210 0.961 . S
C2203 H2211 0.960 . S
C2204 C2202 1.381 . S
C2204 C2205 1.394 . S
C2204 H2212 0.930 . S
C2205 C2204 1.394 . S
C2205 C2206 1.383 . S
C2205 H2213 0.929 . S
C2206 C2205 1.383 . S
C2206 C2207 1.377 . S
C2207 H2191 0.930 . S
C2207 C2206 1.377 . S
C2207 C2208 1.379 . S
C2208 H2192 0.931 . S
C2208 C2202 1.383 . S
C2208 C2207 1.379 . S
H2209 C2203 0.959 . S
H2210 C2203 0.961 . S
H2211 C2203 0.960 . S
H2212 C2204 0.930 . S
H2213 C2205 0.929 . S
H2214 C2222 0.929 . S
H2215 C2224 0.930 . S
H2216 C2226 0.930 . S
H2217 C2229 0.929 . S
H2218 C2232 0.930 . S
H2219 C2234 0.960 . S
H2220 C2234 0.960 . S
H2221 C2234 0.960 . S
C2222 H2214 0.929 . S
C2222 C2223 1.377 . S
C2222 C2224 1.384 . S
C2223 C2222 1.377 . S
C2223 C2229 1.390 . S
C2224 H2215 0.930 . S
C2224 C2222 1.384 . S
C2224 C2225 1.372 . S
C2225 C2224 1.372 . S
C2225 C2226 1.400 . S
C2225 C2230 1.490 . S
C2226 H2216 0.930 . S
C2226 C2225 1.400 . S
C2226 C2229 1.386 . S
H2227 C2243 0.930 . S
H2228 C2244 0.931 . S
C2229 H2217 0.929 . S
C2229 C2223 1.390 . S
C2229 C2226 1.386 . S
C2230 C2225 1.490 . S
C2230 C2232 1.395 . S
C2230 C2233 1.403 . S
H2231 C2237 0.930 . S
C2232 H2218 0.930 . S
C2232 C2230 1.395 . S
C2232 C2235 1.403 . S
C2233 C2230 1.403 . S
C2233 C2234 1.524 . S
C2233 C2237 1.400 . S
C2234 H2219 0.960 . S
C2234 H2220 0.960 . S
C2234 H2221 0.960 . S
C2234 C2233 1.524 . S
C2235 C2232 1.403 . S
C2235 C2236 1.392 . S
C2235 C2239 1.495 . S
C2236 C2235 1.392 . S
C2236 C2237 1.385 . S
C2236 C2238 1.478 . S
C2237 H2231 0.930 . S
C2237 C2233 1.400 . S
C2237 C2236 1.385 . S
C2238 C2236 1.478 . S
C2238 C2240 1.381 . S
C2238 C2244 1.383 . S
C2239 C2235 1.495 . S
C2239 H2245 0.959 . S
C2239 H2246 0.961 . S
C2239 H2247 0.960 . S
C2240 C2238 1.381 . S
C2240 C2241 1.394 . S
C2240 H2248 0.930 . S
C2241 C2240 1.394 . S
C2241 C2242 1.383 . S
C2241 H2249 0.929 . S
C2242 C2241 1.383 . S
C2242 C2243 1.377 . S
C2243 H2227 0.930 . S
C2243 C2242 1.377 . S
C2243 C2244 1.379 . S
C2244 H2228 0.931 . S
C2244 C2238 1.383 . S
C2244 C2243 1.379 . S
H2245 C2239 0.959 . S
H2246 C2239 0.961 . S
H2247 C2239 0.960 . S
H2248 C2240 0.930 . S
H2249 C2241 0.929 . S
H2250 C2258 0.929 . S
H2251 C2260 0.930 . S
H2252 C2262 0.930 1_565 S
H2253 C2265 0.929 . S
H2254 C2268 0.936 . S
H2255 C2270 0.960 . S
H2256 C2270 0.960 1_554 S
H2257 C2270 0.960 1_554 S
C2258 H2250 0.929 . S
C2258 C2259 1.377 . S
C2258 C2260 1.384 . S
C2259 C2258 1.377 . S
C2259 C2265 1.390 . S
C2260 H2251 0.930 . S
C2260 C2258 1.384 . S
C2260 C2261 1.372 . S
C2261 C2260 1.372 . S
C2261 C2262 1.400 . S
C2261 C2266 1.490 . S
C2262 H2252 0.930 1_545 S
C2262 C2261 1.400 . S
C2262 C2265 1.386 . S
H2263 C2279 0.930 . S
H2264 C2280 0.931 . S
C2265 H2253 0.929 . S
C2265 C2259 1.390 . S
C2265 C2262 1.386 . S
C2266 C2261 1.490 . S
C2266 C2268 1.422 . S
C2266 C2269 1.399 1_554 S
H2267 C2273 0.936 . S
C2268 H2254 0.936 . S
C2268 C2266 1.422 . S
C2268 C2271 1.385 1_545 S
C2269 C2266 1.399 1_556 S
C2269 C2270 1.524 . S
C2269 C2273 1.405 1_545 S
C2270 H2255 0.960 . S
C2270 H2256 0.960 1_556 S
C2270 H2257 0.960 1_556 S
C2270 C2269 1.524 . S
C2271 C2268 1.385 1_565 S
C2271 C2272 1.392 1_554 S
C2271 C2275 1.495 . S
C2272 C2271 1.392 1_556 S
C2272 C2273 1.383 . S
C2272 C2274 1.478 . S
C2273 H2267 0.936 . S
C2273 C2269 1.405 1_565 S
C2273 C2272 1.383 . S
C2274 C2272 1.478 . S
C2274 C2276 1.381 . S
C2274 C2280 1.383 . S
C2275 C2271 1.495 . S
C2275 H2281 0.959 . S
C2275 H2282 0.961 1_554 S
C2275 H2283 0.960 1_554 S
C2276 C2274 1.381 . S
C2276 C2277 1.394 . S
C2276 H2284 0.930 1_565 S
C2277 C2276 1.394 . S
C2277 C2278 1.383 . S
C2277 H2285 0.929 . S
C2278 C2277 1.383 . S
C2278 C2279 1.377 . S
C2279 H2263 0.930 . S
C2279 C2278 1.377 . S
C2279 C2280 1.379 . S
C2280 H2264 0.931 . S
C2280 C2274 1.383 . S
C2280 C2279 1.379 . S
H2281 C2275 0.959 . S
H2282 C2275 0.961 1_556 S
H2283 C2275 0.960 1_556 S
H2284 C2276 0.930 1_545 S
H2285 C2277 0.929 . S
H2286 C2294 0.929 . S
H2287 C2296 0.930 1_455 S
H2288 C2298 0.930 . S
H2289 C2301 0.929 . S
H2290 C2304 0.930 . S
H2291 C2306 0.960 . S
H2292 C2306 0.960 . S
H2293 C2306 0.960 . S
C2294 H2286 0.929 . S
C2294 C2295 1.377 . S
C2294 C2296 1.384 . S
C2295 C2294 1.377 . S
C2295 C2301 1.390 . S
C2296 H2287 0.930 1_655 S
C2296 C2294 1.384 . S
C2296 C2297 1.372 . S
C2297 C2296 1.372 . S
C2297 C2298 1.400 . S
C2297 C2302 1.490 . S
C2298 H2288 0.930 . S
C2298 C2297 1.400 . S
C2298 C2301 1.386 . S
H2299 C2315 0.930 . S
H2300 C2316 0.931 1_655 S
C2301 H2289 0.929 . S
C2301 C2295 1.390 . S
C2301 C2298 1.386 . S
C2302 C2297 1.490 . S
C2302 C2304 1.395 1_655 S
C2302 C2305 1.403 . S
H2303 C2309 0.930 . S
C2304 H2290 0.930 . S
C2304 C2302 1.395 1_455 S
C2304 C2307 1.403 1_554 S
C2305 C2302 1.403 . S
C2305 C2306 1.524 . S
C2305 C2309 1.400 1_554 S
C2306 H2291 0.960 . S
C2306 H2292 0.960 . S
C2306 H2293 0.960 . S
C2306 C2305 1.524 . S
C2307 C2304 1.403 1_556 S
C2307 C2308 1.392 . S
C2307 C2311 1.495 . S
C2308 C2307 1.392 . S
C2308 C2309 1.385 1_455 S
C2308 C2310 1.478 . S
C2309 H2303 0.930 . S
C2309 C2305 1.400 1_556 S
C2309 C2308 1.385 1_655 S
C2310 C2308 1.478 . S
C2310 C2312 1.381 . S
C2310 C2316 1.383 . S
C2311 C2307 1.495 . S
C2311 H2317 0.959 . S
C2311 H2318 0.961 . S
C2311 H2319 0.960 . S
C2312 C2310 1.381 . S
C2312 C2313 1.394 . S
C2312 H2320 0.930 . S
C2313 C2312 1.394 . S
C2313 C2314 1.383 . S
C2313 H2321 0.929 . S
C2314 C2313 1.383 . S
C2314 C2315 1.377 . S
C2315 H2299 0.930 . S
C2315 C2314 1.377 . S
C2315 C2316 1.379 . S
C2316 H2300 0.931 1_455 S
C2316 C2310 1.383 . S
C2316 C2315 1.379 . S
H2317 C2311 0.959 . S
H2318 C2311 0.961 . S
H2319 C2311 0.960 . S
H2320 C2312 0.930 . S
H2321 C2313 0.929 . S
H2322 C2330 0.929 . S
H2323 C2332 0.930 . S
H2324 C2334 0.930 . S
H2325 C2337 0.929 . S
H2326 C2340 0.930 . S
H2327 C2342 0.960 . S
H2328 C2342 0.960 . S
H2329 C2342 0.960 . S
C2330 H2322 0.929 . S
C2330 C2331 1.377 . S
C2330 C2332 1.384 . S
C2331 C2330 1.377 . S
C2331 C2337 1.390 . S
C2332 H2323 0.930 . S
C2332 C2330 1.384 . S
C2332 C2333 1.372 . S
C2333 C2332 1.372 . S
C2333 C2334 1.400 . S
C2333 C2338 1.490 . S
C2334 H2324 0.930 . S
C2334 C2333 1.400 . S
C2334 C2337 1.386 . S
H2335 C2351 0.930 . S
H2336 C2352 0.931 . S
C2337 H2325 0.929 . S
C2337 C2331 1.390 . S
C2337 C2334 1.386 . S
C2338 C2333 1.490 . S
C2338 C2340 1.395 . S
C2338 C2341 1.403 . S
H2339 C2345 0.930 . S
C2340 H2326 0.930 . S
C2340 C2338 1.395 . S
C2340 C2343 1.403 1_556 S
C2341 C2338 1.403 . S
C2341 C2342 1.524 . S
C2341 C2345 1.400 1_556 S
C2342 H2327 0.960 . S
C2342 H2328 0.960 . S
C2342 H2329 0.960 . S
C2342 C2341 1.524 . S
C2343 C2340 1.403 1_554 S
C2343 C2344 1.392 . S
C2343 C2347 1.495 . S
C2344 C2343 1.392 . S
C2344 C2345 1.385 . S
C2344 C2346 1.478 . S
C2345 H2339 0.930 . S
C2345 C2341 1.400 1_554 S
C2345 C2344 1.385 . S
C2346 C2344 1.478 . S
C2346 C2348 1.381 . S
C2346 C2352 1.383 . S
C2347 C2343 1.495 . S
C2347 H2353 0.959 . S
C2347 H2354 0.961 . S
C2347 H2355 0.960 . S
C2348 C2346 1.381 . S
C2348 C2349 1.394 . S
C2348 H2356 0.930 . S
C2349 C2348 1.394 . S
C2349 C2350 1.383 . S
C2349 H2357 0.929 . S
C2350 C2349 1.383 . S
C2350 C2351 1.377 . S
C2351 H2335 0.930 . S
C2351 C2350 1.377 . S
C2351 C2352 1.379 . S
C2352 H2336 0.931 . S
C2352 C2346 1.383 . S
C2352 C2351 1.379 . S
H2353 C2347 0.959 . S
H2354 C2347 0.961 . S
H2355 C2347 0.960 . S
H2356 C2348 0.930 . S
H2357 C2349 0.929 . S
C423 C110 1.089 . S
C442 C20 1.108 . S
C459 C43 1.104 . S
C478 C133 1.102 . S
C495 C87 1.082 . S
C514 C66 1.090 . S
C531 C89 1.105 . S
C550 C41 1.063 . S
C567 C112 1.102 . S
C586 C64 1.106 . S
C603 C18 1.089 . S
C622 C135 1.104 . S
C639 C158 1.100 . S
C658 C248 1.081 . S
C675 C271 1.085 . S
C694 C181 1.097 . S
C711 C225 1.093 . S
C730 C204 1.111 . S
C747 C227 1.099 . S
C766 C179 1.100 . S
C783 C202 1.093 . S
C802 C250 1.089 . S
C819 C273 1.105 . S
C838 C156 1.077 . S
C855 C386 1.088 . S
C874 C296 1.095 . S
C891 C319 1.101 . S
C910 C409 1.084 . S
C927 C363 1.091 . S
C946 C342 1.104 . S
C963 C317 1.093 . S
C982 C365 1.091 . S
C999 C388 1.100 . S
C1018 C340 1.095 . S
C1035 C294 1.093 . S
C1054 C411 1.094 . S
C1071 C16 1.013 . S
C1090 C361 0.989 . S
C1107 C39 1.019 . S
C1126 C384 1.028 . S
C1143 C407 1.019 . S
C1162 C62 1.010 . S
C1179 C85 1.011 . S
C1198 C154 0.991 . S
C1215 C108 1.011 . S
C1234 C177 1.023 . S
C1251 C200 1.018 . S
C1270 C131 1.004 . S
C1287 C292 1.012 . S
C1306 C223 0.990 . S
C1323 C315 1.019 . S
C1342 C246 1.025 . S
C1359 C338 1.019 . S
C1378 C269 1.014 . S
C1395 C17 1.270 . S
C1414 C182 1.303 . S
C1431 C205 1.300 . S
C1450 C40 1.233 . S
C1467 C159 1.302 . S
C1486 C63 1.289 . S
C1503 C86 1.263 . S
C1522 C389 1.290 . S
C1539 C412 1.302 . S
C1558 C109 1.289 . S
C1575 C132 1.266 . S
C1594 C366 1.293 . S
C1611 C155 1.270 . S
C1630 C320 1.296 . S
C1647 C178 1.271 . S
C1666 C343 1.301 . S
C1683 C201 1.264 . S
C1702 C297 1.290 . S
C1719 C113 1.299 . S
C1738 C224 1.240 . S
C1755 C136 1.299 . S
C1774 C247 1.258 . S
C1791 C90 1.301 . S
C1810 C270 1.249 . S
C1827 C293 1.265 . S
C1846 C44 1.290 . S
C1863 C316 1.270 . S
C1882 C67 1.297 . S
C1899 C21 1.299 . S
C1918 C339 1.263 . S
C1935 C251 1.302 . S
C1954 C362 1.291 . S
C1971 C385 1.267 . S
C1990 C274 1.306 . S
C2007 C228 1.299 . S
C2026 C408 1.251 . S
C2043 C19 1.335 . S
C2062 C364 1.343 . S
C2079 C42 1.334 . S
C2098 C387 1.320 . S
C2115 C65 1.328 . S
C2134 C410 1.307 . S
C2151 C157 1.327 . S
C2170 C88 1.307 . S
C2187 C111 1.326 . S
C2206 C180 1.318 . S
C2223 C203 1.326 . S
C2242 C134 1.323 . S
C2259 C226 1.328 . S
C2278 C295 1.338 . S
C2295 C249 1.327 . S
C2314 C318 1.308 . S
C2331 C341 1.330 . S
C2350 C272 1.344 . S
