# Generated by pormake.
# Topology unu, (4)-cn, num edge types: 1
# Building blocks:
#     Node 0, Type 0, BuildingBlock: CEKHIL_clean_sbu_0, # of connection points: 4
#     Node 1, Type 0, BuildingBlock: CEKHIL_clean_sbu_0, # of connection points: 4
#     Node 2, Type 0, BuildingBlock: CEKHIL_clean_sbu_0, # of connection points: 4
#     Node 3, Type 0, BuildingBlock: CEKHIL_clean_sbu_0, # of connection points: 4
#     Node 4, Type 0, BuildingBlock: CEKHIL_clean_sbu_0, # of connection points: 4
#     Node 5, Type 0, BuildingBlock: CEKHIL_clean_sbu_0, # of connection points: 4
#     Node 6, Type 0, BuildingBlock: CEKHIL_clean_sbu_0, # of connection points: 4
#     Node 7, Type 0, BuildingBlock: CEKHIL_clean_sbu_0, # of connection points: 4
#     Node 8, Type 0, BuildingBlock: CEKHIL_clean_sbu_0, # of connection points: 4
#     Node 9, Type 0, BuildingBlock: CEKHIL_clean_sbu_0, # of connection points: 4
#     Node 10, Type 0, BuildingBlock: CEKHIL_clean_sbu_0, # of connection points: 4
#     Node 11, Type 0, BuildingBlock: CEKHIL_clean_sbu_0, # of connection points: 4
#     Node 12, Type 0, BuildingBlock: CEKHIL_clean_sbu_0, # of connection points: 4
#     Node 13, Type 0, BuildingBlock: CEKHIL_clean_sbu_0, # of connection points: 4
#     Node 14, Type 0, BuildingBlock: CEKHIL_clean_sbu_0, # of connection points: 4
#     Node 15, Type 0, BuildingBlock: CEKHIL_clean_sbu_0, # of connection points: 4
#     Node 16, Type 0, BuildingBlock: CEKHIL_clean_sbu_0, # of connection points: 4
#     Node 17, Type 0, BuildingBlock: CEKHIL_clean_sbu_0, # of connection points: 4
#     Node 18, Type 0, BuildingBlock: CEKHIL_clean_sbu_0, # of connection points: 4
#     Node 19, Type 0, BuildingBlock: CEKHIL_clean_sbu_0, # of connection points: 4
#     Node 20, Type 0, BuildingBlock: CEKHIL_clean_sbu_0, # of connection points: 4
#     Node 21, Type 0, BuildingBlock: CEKHIL_clean_sbu_0, # of connection points: 4
#     Node 22, Type 0, BuildingBlock: CEKHIL_clean_sbu_0, # of connection points: 4
#     Node 23, Type 0, BuildingBlock: CEKHIL_clean_sbu_0, # of connection points: 4
#     Node 24, Type 0, BuildingBlock: CEKHIL_clean_sbu_0, # of connection points: 4
#     Node 25, Type 0, BuildingBlock: CEKHIL_clean_sbu_0, # of connection points: 4
#     Node 26, Type 0, BuildingBlock: CEKHIL_clean_sbu_0, # of connection points: 4
#     Node 27, Type 0, BuildingBlock: CEKHIL_clean_sbu_0, # of connection points: 4
#     Node 28, Type 0, BuildingBlock: CEKHIL_clean_sbu_0, # of connection points: 4
#     Node 29, Type 0, BuildingBlock: CEKHIL_clean_sbu_0, # of connection points: 4
#     Node 30, Type 0, BuildingBlock: CEKHIL_clean_sbu_0, # of connection points: 4
#     Node 31, Type 0, BuildingBlock: CEKHIL_clean_sbu_0, # of connection points: 4
#     Node 32, Type 0, BuildingBlock: CEKHIL_clean_sbu_0, # of connection points: 4
#     Node 33, Type 0, BuildingBlock: CEKHIL_clean_sbu_0, # of connection points: 4
#     Node 34, Type 0, BuildingBlock: CEKHIL_clean_sbu_0, # of connection points: 4
#     Node 35, Type 0, BuildingBlock: CEKHIL_clean_sbu_0, # of connection points: 4
#     Edge 36, Type (0, 0), BuildingBlock: AJUNOK_clean_linker_0, # of connection points: 2
#     Edge 37, Type (0, 0), BuildingBlock: AJUNOK_clean_linker_0, # of connection points: 2
#     Edge 38, Type (0, 0), BuildingBlock: AJUNOK_clean_linker_0, # of connection points: 2
#     Edge 39, Type (0, 0), BuildingBlock: AJUNOK_clean_linker_0, # of connection points: 2
#     Edge 40, Type (0, 0), BuildingBlock: AJUNOK_clean_linker_0, # of connection points: 2
#     Edge 41, Type (0, 0), BuildingBlock: AJUNOK_clean_linker_0, # of connection points: 2
#     Edge 42, Type (0, 0), BuildingBlock: AJUNOK_clean_linker_0, # of connection points: 2
#     Edge 43, Type (0, 0), BuildingBlock: AJUNOK_clean_linker_0, # of connection points: 2
#     Edge 44, Type (0, 0), BuildingBlock: AJUNOK_clean_linker_0, # of connection points: 2
#     Edge 45, Type (0, 0), BuildingBlock: AJUNOK_clean_linker_0, # of connection points: 2
#     Edge 46, Type (0, 0), BuildingBlock: AJUNOK_clean_linker_0, # of connection points: 2
#     Edge 47, Type (0, 0), BuildingBlock: AJUNOK_clean_linker_0, # of connection points: 2
#     Edge 48, Type (0, 0), BuildingBlock: AJUNOK_clean_linker_0, # of connection points: 2
#     Edge 49, Type (0, 0), BuildingBlock: AJUNOK_clean_linker_0, # of connection points: 2
#     Edge 50, Type (0, 0), BuildingBlock: AJUNOK_clean_linker_0, # of connection points: 2
#     Edge 51, Type (0, 0), BuildingBlock: AJUNOK_clean_linker_0, # of connection points: 2
#     Edge 52, Type (0, 0), BuildingBlock: AJUNOK_clean_linker_0, # of connection points: 2
#     Edge 53, Type (0, 0), BuildingBlock: AJUNOK_clean_linker_0, # of connection points: 2
#     Edge 54, Type (0, 0), BuildingBlock: AJUNOK_clean_linker_0, # of connection points: 2
#     Edge 55, Type (0, 0), BuildingBlock: AJUNOK_clean_linker_0, # of connection points: 2
#     Edge 56, Type (0, 0), BuildingBlock: AJUNOK_clean_linker_0, # of connection points: 2
#     Edge 57, Type (0, 0), BuildingBlock: AJUNOK_clean_linker_0, # of connection points: 2
#     Edge 58, Type (0, 0), BuildingBlock: AJUNOK_clean_linker_0, # of connection points: 2
#     Edge 59, Type (0, 0), BuildingBlock: AJUNOK_clean_linker_0, # of connection points: 2
#     Edge 60, Type (0, 0), BuildingBlock: AJUNOK_clean_linker_0, # of connection points: 2
#     Edge 61, Type (0, 0), BuildingBlock: AJUNOK_clean_linker_0, # of connection points: 2
#     Edge 62, Type (0, 0), BuildingBlock: AJUNOK_clean_linker_0, # of connection points: 2
#     Edge 63, Type (0, 0), BuildingBlock: AJUNOK_clean_linker_0, # of connection points: 2
#     Edge 64, Type (0, 0), BuildingBlock: AJUNOK_clean_linker_0, # of connection points: 2
#     Edge 65, Type (0, 0), BuildingBlock: AJUNOK_clean_linker_0, # of connection points: 2
#     Edge 66, Type (0, 0), BuildingBlock: AJUNOK_clean_linker_0, # of connection points: 2
#     Edge 67, Type (0, 0), BuildingBlock: AJUNOK_clean_linker_0, # of connection points: 2
#     Edge 68, Type (0, 0), BuildingBlock: AJUNOK_clean_linker_0, # of connection points: 2
#     Edge 69, Type (0, 0), BuildingBlock: AJUNOK_clean_linker_0, # of connection points: 2
#     Edge 70, Type (0, 0), BuildingBlock: AJUNOK_clean_linker_0, # of connection points: 2
#     Edge 71, Type (0, 0), BuildingBlock: AJUNOK_clean_linker_0, # of connection points: 2
#     Edge 72, Type (0, 0), BuildingBlock: AJUNOK_clean_linker_0, # of connection points: 2
#     Edge 73, Type (0, 0), BuildingBlock: AJUNOK_clean_linker_0, # of connection points: 2
#     Edge 74, Type (0, 0), BuildingBlock: AJUNOK_clean_linker_0, # of connection points: 2
#     Edge 75, Type (0, 0), BuildingBlock: AJUNOK_clean_linker_0, # of connection points: 2
#     Edge 76, Type (0, 0), BuildingBlock: AJUNOK_clean_linker_0, # of connection points: 2
#     Edge 77, Type (0, 0), BuildingBlock: AJUNOK_clean_linker_0, # of connection points: 2
#     Edge 78, Type (0, 0), BuildingBlock: AJUNOK_clean_linker_0, # of connection points: 2
#     Edge 79, Type (0, 0), BuildingBlock: AJUNOK_clean_linker_0, # of connection points: 2
#     Edge 80, Type (0, 0), BuildingBlock: AJUNOK_clean_linker_0, # of connection points: 2
#     Edge 81, Type (0, 0), BuildingBlock: AJUNOK_clean_linker_0, # of connection points: 2
#     Edge 82, Type (0, 0), BuildingBlock: AJUNOK_clean_linker_0, # of connection points: 2
#     Edge 83, Type (0, 0), BuildingBlock: AJUNOK_clean_linker_0, # of connection points: 2
#     Edge 84, Type (0, 0), BuildingBlock: AJUNOK_clean_linker_0, # of connection points: 2
#     Edge 85, Type (0, 0), BuildingBlock: AJUNOK_clean_linker_0, # of connection points: 2
#     Edge 86, Type (0, 0), BuildingBlock: AJUNOK_clean_linker_0, # of connection points: 2
#     Edge 87, Type (0, 0), BuildingBlock: AJUNOK_clean_linker_0, # of connection points: 2
#     Edge 88, Type (0, 0), BuildingBlock: AJUNOK_clean_linker_0, # of connection points: 2
#     Edge 89, Type (0, 0), BuildingBlock: AJUNOK_clean_linker_0, # of connection points: 2
#     Edge 90, Type (0, 0), BuildingBlock: AJUNOK_clean_linker_0, # of connection points: 2
#     Edge 91, Type (0, 0), BuildingBlock: AJUNOK_clean_linker_0, # of connection points: 2
#     Edge 92, Type (0, 0), BuildingBlock: AJUNOK_clean_linker_0, # of connection points: 2
#     Edge 93, Type (0, 0), BuildingBlock: AJUNOK_clean_linker_0, # of connection points: 2
#     Edge 94, Type (0, 0), BuildingBlock: AJUNOK_clean_linker_0, # of connection points: 2
#     Edge 95, Type (0, 0), BuildingBlock: AJUNOK_clean_linker_0, # of connection points: 2
#     Edge 96, Type (0, 0), BuildingBlock: AJUNOK_clean_linker_0, # of connection points: 2
#     Edge 97, Type (0, 0), BuildingBlock: AJUNOK_clean_linker_0, # of connection points: 2
#     Edge 98, Type (0, 0), BuildingBlock: AJUNOK_clean_linker_0, # of connection points: 2
#     Edge 99, Type (0, 0), BuildingBlock: AJUNOK_clean_linker_0, # of connection points: 2
#     Edge 100, Type (0, 0), BuildingBlock: AJUNOK_clean_linker_0, # of connection points: 2
#     Edge 101, Type (0, 0), BuildingBlock: AJUNOK_clean_linker_0, # of connection points: 2
#     Edge 102, Type (0, 0), BuildingBlock: AJUNOK_clean_linker_0, # of connection points: 2
#     Edge 103, Type (0, 0), BuildingBlock: AJUNOK_clean_linker_0, # of connection points: 2
#     Edge 104, Type (0, 0), BuildingBlock: AJUNOK_clean_linker_0, # of connection points: 2
#     Edge 105, Type (0, 0), BuildingBlock: AJUNOK_clean_linker_0, # of connection points: 2
#     Edge 106, Type (0, 0), BuildingBlock: AJUNOK_clean_linker_0, # of connection points: 2
#     Edge 107, Type (0, 0), BuildingBlock: AJUNOK_clean_linker_0, # of connection points: 2
# Relax obj value: 0.187
# Max RMSD: 0.232
# Mean RMSD: 0.232
data_MOF--net-unu--node1-CEKHIL_clean_sbu_0--edge1-AJUNOK_clean_linker_0
_symmetry_space_group_name_H-M    P1
_symmetry_Int_Tables_number       1
_symmetry_cell_setting            triclinic
loop_
_symmetry_equiv_pos_as_xyz
'x, y, z'
_cell_length_a     31.98672
_cell_length_b     31.980806
_cell_length_c     73.939329
_cell_angle_alpha  89.993156
_cell_angle_beta   90.005726
_cell_angle_gamma 120.05332
loop_
_atom_site_label
_atom_site_type_symbol
_atom_site_fract_x
_atom_site_fract_y
_atom_site_fract_z
_atom_type_partial_charge
Co0 Co 0.20696 0.01745 0.11779 0.0
O1 O 0.24254 0.98459 0.11439 0.0
O2 O 0.25375 0.04764 0.09824 0.0
C3 C 0.1325 0.95143 0.1186 0.0
O4 O 0.17478 0.05906 0.11855 0.0
Co5 Co 0.15303 0.99643 0.15486 0.0
O6 O 0.12972 0.03757 0.14411 0.0
C7 C 0.25531 0.07254 0.15266 0.0
C8 C 0.26564 0.01486 0.10155 0.0
C9 C 0.14564 0.06271 0.12972 0.0
O10 O 0.25592 0.06263 0.13584 0.0
O11 O 0.21866 0.04833 0.1629 0.0
O12 O 0.15327 0.9695 0.10324 0.0
O13 O 0.16014 0.96931 0.13259 0.0
Co14 Co 0.98961 0.18802 0.11907 0.0
O15 O 0.0234 0.25687 0.11678 0.0
O16 O 0.96281 0.20723 0.09919 0.0
C17 C 0.05466 0.17843 0.12127 0.0
O18 O 0.94748 0.11422 0.11846 0.0
Co19 Co 0.00263 0.15068 0.15643 0.0
O20 O 0.96424 0.0876 0.14432 0.0
C21 C 0.92808 0.17815 0.15244 0.0
C22 C 0.99514 0.25149 0.10339 0.0
C23 C 0.94186 0.08011 0.12934 0.0
O24 O 0.9416 0.19014 0.13599 0.0
O25 O 0.94959 0.16395 0.16332 0.0
O26 O 0.03967 0.18354 0.10557 0.0
O27 O 0.03466 0.1869 0.13492 0.0
Co28 Co 0.81898 0.79971 0.11608 0.0
O29 O 0.75033 0.7646 0.11314 0.0
O30 O 0.80121 0.75426 0.09606 0.0
C31 C 0.82826 0.87424 0.11829 0.0
O32 O 0.89271 0.8314 0.11618 0.0
Co33 Co 0.85395 0.84964 0.1537 0.0
O34 O 0.91785 0.87377 0.14231 0.0
C35 C 0.82613 0.74742 0.14979 0.0
C36 C 0.75671 0.74216 0.09984 0.0
C37 C 0.92615 0.8593 0.12739 0.0
O38 O 0.81565 0.74921 0.13315 0.0
O39 O 0.83935 0.78297 0.1607 0.0
O40 O 0.82448 0.85473 0.10255 0.0
O41 O 0.81893 0.84537 0.13187 0.0
Co42 Co 0.01433 0.20263 0.3753 0.0
O43 O 0.9821 0.23915 0.37771 0.0
O44 O 0.04322 0.24945 0.39486 0.0
C45 C 0.94789 0.12852 0.3741 0.0
O46 O 0.05485 0.16934 0.37579 0.0
Co47 Co 0.99678 0.14848 0.33851 0.0
O48 O 0.03585 0.12417 0.35031 0.0
C49 C 0.07277 0.2507 0.34089 0.0
C50 C 0.01123 0.26196 0.3909 0.0
C51 C 0.05891 0.13945 0.36516 0.0
O52 O 0.06172 0.25113 0.35758 0.0
O53 O 0.04908 0.21408 0.33059 0.0
O54 O 0.96461 0.14954 0.38953 0.0
O55 O 0.96725 0.15585 0.36012 0.0
Co56 Co 0.79482 0.81445 0.37746 0.0
O57 O 0.76019 0.74576 0.38034 0.0
O58 O 0.74835 0.79607 0.39717 0.0
C59 C 0.86978 0.82459 0.376 0.0
O60 O 0.82605 0.88829 0.3773 0.0
Co61 Co 0.84663 0.84967 0.34014 0.0
O62 O 0.86988 0.91346 0.35147 0.0
C63 C 0.74417 0.82148 0.3433 0.0
C64 C 0.73706 0.75172 0.39348 0.0
C65 C 0.8545 0.92176 0.36617 0.0
O66 O 0.74496 0.81062 0.35997 0.0
O67 O 0.78042 0.83557 0.3327 0.0
O68 O 0.84911 0.82026 0.39151 0.0
O69 O 0.84167 0.815 0.36215 0.0
Co70 Co 0.18365 0.98326 0.37744 0.0
O71 O 0.25217 0.01651 0.3807 0.0
O72 O 0.20049 0.95386 0.39712 0.0
C73 C 0.17374 0.0481 0.3761 0.0
O74 O 0.10988 0.94147 0.37695 0.0
Co75 Co 0.14998 1.00067 0.34002 0.0
O76 O 0.08579 0.96183 0.3513 0.0
C77 C 0.179 0.92727 0.34298 0.0
C78 C 0.24514 0.98642 0.39361 0.0
C79 C 0.07674 0.93793 0.36599 0.0
O80 O 0.18779 0.93764 0.35983 0.0
O81 O 0.16579 0.94997 0.33229 0.0
O82 O 0.1778 0.03147 0.3916 0.0
O83 O 0.18399 0.03018 0.36221 0.0
Co84 Co 0.79933 0.9768 0.87789 0.0
O85 O 0.76701 0.01295 0.88099 0.0
O86 O 0.75173 0.94875 0.89728 0.0
C87 C 0.87539 0.03912 0.87723 0.0
O88 O 0.82794 0.93205 0.87744 0.0
Co89 Co 0.8511 0.99339 0.84073 0.0
O90 O 0.87215 0.95073 0.85173 0.0
C91 C 0.74794 0.92157 0.84329 0.0
C92 C 0.74223 0.98312 0.89374 0.0
C93 C 0.85597 0.92655 0.86629 0.0
O94 O 0.74924 0.93313 0.85998 0.0
O95 O 0.78445 0.94321 0.83276 0.0
O96 O 0.8537 0.02228 0.89254 0.0
O97 O 0.84803 0.02333 0.86304 0.0
Co98 Co 0.02129 0.81363 0.87778 0.0
O99 O 0.99108 0.74541 0.88127 0.0
O100 O 0.05191 0.79949 0.89782 0.0
C101 C 0.95349 0.8183 0.87591 0.0
O102 O 0.06006 0.88766 0.87693 0.0
Co103 Co 0.00223 0.84432 0.84007 0.0
O104 O 0.03787 0.90918 0.8511 0.0
C105 C 0.07943 0.82061 0.84375 0.0
C106 C 0.02113 0.75422 0.89436 0.0
C107 C 0.06203 0.91979 0.86577 0.0
O108 O 0.0688 0.81181 0.86057 0.0
O109 O 0.05564 0.83191 0.83282 0.0
O110 O 0.97093 0.81662 0.89155 0.0
O111 O 0.97333 0.80971 0.86222 0.0
Co112 Co 0.18979 0.20217 0.87646 0.0
O113 O 0.25882 0.23841 0.87814 0.0
O114 O 0.20939 0.24828 0.89628 0.0
C115 C 0.18018 0.12764 0.87434 0.0
O116 O 0.11607 0.16899 0.87794 0.0
Co117 Co 0.14946 0.15051 0.8395 0.0
O118 O 0.08732 0.12408 0.85244 0.0
C119 C 0.17853 0.2529 0.84301 0.0
C120 C 0.25354 0.26093 0.89169 0.0
C121 C 0.08122 0.13866 0.86772 0.0
O122 O 0.19016 0.25156 0.85953 0.0
O123 O 0.1638 0.2169 0.83224 0.0
O124 O 0.18718 0.1486 0.88994 0.0
O125 O 0.18774 0.15561 0.86055 0.0
Co126 Co 0.9797 0.79461 0.61672 0.0
O127 O 0.0135 0.75992 0.61361 0.0
O128 O 0.95035 0.74763 0.59724 0.0
C129 C 0.04448 0.86965 0.61782 0.0
O130 O 0.93703 0.82563 0.61718 0.0
Co131 Co 0.9978 0.84704 0.65396 0.0
O132 O 0.95654 0.86981 0.64293 0.0
C133 C 0.92431 0.74428 0.65133 0.0
C134 C 0.98322 0.73607 0.60085 0.0
C135 C 0.93232 0.85414 0.62834 0.0
O136 O 0.93473 0.74511 0.63453 0.0
O137 O 0.94686 0.78069 0.66184 0.0
O138 O 0.02752 0.84879 0.60238 0.0
O139 O 0.02661 0.84171 0.63176 0.0
Co140 Co 0.1988 0.18379 0.61857 0.0
O141 O 0.23423 0.25263 0.61631 0.0
O142 O 0.24502 0.20269 0.59879 0.0
C143 C 0.12399 0.17369 0.62049 0.0
O144 O 0.16669 0.11003 0.61797 0.0
Co145 Co 0.14849 0.14699 0.65594 0.0
O146 O 0.12332 0.08383 0.64385 0.0
C147 C 0.25053 0.175 0.65223 0.0
C148 C 0.25728 0.24698 0.60305 0.0
C149 C 0.13766 0.07603 0.62879 0.0
O150 O 0.24861 0.18585 0.63566 0.0
O151 O 0.21497 0.16136 0.66315 0.0
O152 O 0.14466 0.17945 0.60489 0.0
O153 O 0.15229 0.18257 0.63427 0.0
Co154 Co 0.80965 0.01207 0.61978 0.0
O155 O 0.74095 0.97972 0.61704 0.0
O156 O 0.79222 0.04173 0.60033 0.0
C157 C 0.81742 0.94575 0.6207 0.0
O158 O 0.8836 0.0529 0.61979 0.0
Co159 Co 0.84464 0.99285 0.65664 0.0
O160 O 0.90848 0.03201 0.64514 0.0
C161 C 0.81843 0.06879 0.65448 0.0
C162 C 0.74759 0.00951 0.60407 0.0
C163 C 0.91709 0.05621 0.63053 0.0
O164 O 0.8077 0.05847 0.6377 0.0
O165 O 0.83103 0.04476 0.66473 0.0
O166 O 0.81368 0.9631 0.60533 0.0
O167 O 0.80882 0.96443 0.63473 0.0
Co168 Co 0.86585 0.34659 0.45113 0.0
O169 O 0.90202 0.31416 0.44807 0.0
O170 O 0.91205 0.37595 0.43141 0.0
C171 C 0.79175 0.28012 0.45256 0.0
O172 O 0.83317 0.38773 0.45134 0.0
Co173 Co 0.81235 0.32784 0.48822 0.0
O174 O 0.78848 0.36793 0.47696 0.0
C175 C 0.91419 0.40504 0.48532 0.0
C176 C 0.92446 0.34365 0.43493 0.0
C177 C 0.80413 0.39204 0.46234 0.0
O178 O 0.91499 0.39341 0.46874 0.0
O179 O 0.87766 0.38156 0.49569 0.0
O180 O 0.81199 0.29722 0.43704 0.0
O181 O 0.8197 0.29926 0.46639 0.0
Co182 Co 0.65004 0.51866 0.45209 0.0
O183 O 0.68307 0.5874 0.44945 0.0
O184 O 0.62143 0.53666 0.43245 0.0
C185 C 0.71568 0.50983 0.45356 0.0
O186 O 0.60856 0.4448 0.45194 0.0
Co187 Co 0.66708 0.48299 0.48922 0.0
O188 O 0.628 0.41941 0.4775 0.0
C189 C 0.59266 0.51105 0.48646 0.0
C190 C 0.65365 0.58115 0.43639 0.0
C191 C 0.60449 0.41112 0.46274 0.0
O192 O 0.60323 0.52108 0.46966 0.0
O193 O 0.61606 0.49822 0.49695 0.0
O194 O 0.69934 0.51408 0.43803 0.0
O195 O 0.6966 0.51869 0.4674 0.0
Co196 Co 0.47812 0.12925 0.45231 0.0
O197 O 0.40927 0.09409 0.44992 0.0
O198 O 0.45905 0.0816 0.43303 0.0
C199 C 0.48805 0.20429 0.45317 0.0
O200 O 0.55179 0.16061 0.45182 0.0
Co201 Co 0.51605 0.18475 0.4889 0.0
O202 O 0.57906 0.20648 0.47711 0.0
C203 C 0.48864 0.08215 0.48687 0.0
C204 C 0.41483 0.0704 0.43687 0.0
C205 C 0.5861 0.18982 0.46247 0.0
O206 O 0.47584 0.08084 0.47029 0.0
O207 O 0.50283 0.11935 0.49696 0.0
O208 O 0.48292 0.18264 0.43783 0.0
O209 O 0.47934 0.1771 0.46724 0.0
Co210 Co 0.68408 0.53542 0.70984 0.0
O211 O 0.65162 0.57167 0.71229 0.0
O212 O 0.7137 0.58302 0.72911 0.0
C213 C 0.61803 0.46101 0.70907 0.0
O214 O 0.72523 0.50278 0.71012 0.0
Co215 Co 0.66481 0.47994 0.67316 0.0
O216 O 0.70545 0.45716 0.68472 0.0
C217 C 0.74158 0.58191 0.67524 0.0
C218 C 0.68149 0.59526 0.7252 0.0
C219 C 0.72953 0.47335 0.69932 0.0
O220 O 0.73046 0.58338 0.69183 0.0
O221 O 0.71795 0.5449 0.66511 0.0
O222 O 0.63507 0.48258 0.72439 0.0
O223 O 0.63665 0.48808 0.69498 0.0
Co224 Co 0.46261 0.14679 0.71068 0.0
O225 O 0.4265 0.07816 0.7135 0.0
O226 O 0.41597 0.12942 0.73027 0.0
C227 C 0.53675 0.15477 0.70947 0.0
O228 O 0.49557 0.22065 0.71064 0.0
Co229 Co 0.51599 0.18157 0.67364 0.0
O230 O 0.54092 0.2454 0.68518 0.0
C231 C 0.41372 0.15481 0.67615 0.0
C232 C 0.40373 0.08481 0.7266 0.0
C233 C 0.52558 0.25405 0.69984 0.0
O234 O 0.41375 0.14447 0.69294 0.0
O235 O 0.4501 0.16729 0.66577 0.0
O236 O 0.51612 0.15117 0.72494 0.0
O237 O 0.50906 0.14599 0.69555 0.0
Co238 Co 0.85039 0.31429 0.71207 0.0
O239 O 0.919 0.3473 0.71505 0.0
O240 O 0.8676 0.28671 0.7323 0.0
C241 C 0.84218 0.38011 0.70967 0.0
O242 O 0.77654 0.2729 0.71193 0.0
Co243 Co 0.81621 0.32917 0.67432 0.0
O244 O 0.75217 0.29073 0.68575 0.0
C245 C 0.84206 0.25347 0.67866 0.0
C246 C 0.91223 0.31885 0.72852 0.0
C247 C 0.74338 0.26788 0.70068 0.0
O248 O 0.85304 0.26636 0.69522 0.0
O249 O 0.82918 0.27581 0.66763 0.0
O250 O 0.84571 0.3644 0.72543 0.0
O251 O 0.8512 0.36018 0.69614 0.0
Co252 Co 0.46814 0.31852 0.21002 0.0
O253 O 0.43209 0.35157 0.21131 0.0
O254 O 0.42165 0.29261 0.22975 0.0
C255 C 0.54278 0.38351 0.20786 0.0
O256 O 0.50091 0.27769 0.21193 0.0
Co257 Co 0.52083 0.32921 0.17332 0.0
O258 O 0.54593 0.29272 0.18654 0.0
C259 C 0.41827 0.25571 0.17662 0.0
C260 C 0.40929 0.32417 0.22493 0.0
C261 C 0.53096 0.27239 0.20186 0.0
O262 O 0.41903 0.26904 0.19306 0.0
O263 O 0.45458 0.27701 0.16599 0.0
O264 O 0.5217 0.36986 0.22346 0.0
O265 O 0.51498 0.36267 0.19409 0.0
Co266 Co 0.69105 0.15152 0.21154 0.0
O267 O 0.65634 0.08293 0.21459 0.0
O268 O 0.72101 0.13274 0.23045 0.0
C269 C 0.62746 0.1634 0.21171 0.0
O270 O 0.7344 0.22517 0.21108 0.0
Co271 Co 0.67058 0.18635 0.17494 0.0
O272 O 0.71222 0.25018 0.1861 0.0
C273 C 0.74445 0.15739 0.17625 0.0
C274 C 0.68693 0.08855 0.22709 0.0
C275 C 0.7377 0.25866 0.20035 0.0
O276 O 0.73439 0.14654 0.19302 0.0
O277 O 0.72112 0.17138 0.16625 0.0
O278 O 0.6455 0.15895 0.22679 0.0
O279 O 0.64301 0.15251 0.19731 0.0
Co280 Co 0.857 0.53896 0.20968 0.0
O281 O 0.9255 0.57659 0.21273 0.0
O282 O 0.87275 0.58579 0.22909 0.0
C283 C 0.8509 0.46555 0.20897 0.0
O284 O 0.78299 0.50436 0.20936 0.0
Co285 Co 0.82385 0.4845 0.17282 0.0
O286 O 0.75956 0.4582 0.18411 0.0
C287 C 0.84825 0.58617 0.17478 0.0
C288 C 0.91772 0.59897 0.22568 0.0
C289 C 0.7501 0.47351 0.19859 0.0
O290 O 0.85842 0.58676 0.19163 0.0
O291 O 0.83663 0.54966 0.16456 0.0
O292 O 0.85392 0.48663 0.22427 0.0
O293 O 0.85934 0.49268 0.19489 0.0
Co294 Co 0.65849 0.1333 0.95178 0.0
O295 O 0.69135 0.09737 0.94925 0.0
O296 O 0.62971 0.08634 0.93227 0.0
C297 C 0.72454 0.20775 0.9531 0.0
O298 O 0.61698 0.16555 0.9514 0.0
Co299 Co 0.67581 0.18767 0.98859 0.0
O300 O 0.63583 0.21095 0.97681 0.0
C301 C 0.59974 0.0854 0.98604 0.0
C302 C 0.66204 0.07423 0.93614 0.0
C303 C 0.61225 0.19486 0.96211 0.0
O304 O 0.61154 0.08451 0.96948 0.0
O305 O 0.62278 0.12223 0.99631 0.0
O306 O 0.70794 0.18695 0.93761 0.0
O307 O 0.70525 0.18016 0.96701 0.0
Co308 Co 0.8757 0.52179 0.95247 0.0
O309 O 0.91136 0.59062 0.95025 0.0
O310 O 0.92406 0.54085 0.93345 0.0
C311 C 0.80122 0.513 0.95305 0.0
O312 O 0.84388 0.44801 0.95189 0.0
Co313 Co 0.81917 0.48368 0.98882 0.0
O314 O 0.79716 0.42069 0.97697 0.0
C315 C 0.92156 0.51034 0.98714 0.0
C316 C 0.93559 0.58512 0.93741 0.0
C317 C 0.81416 0.41365 0.96242 0.0
O318 O 0.92333 0.52355 0.97061 0.0
O319 O 0.88412 0.49596 0.99711 0.0
O320 O 0.82299 0.5176 0.93776 0.0
O321 O 0.82784 0.52104 0.96724 0.0
Co322 Co 0.4876 0.35047 0.9503 0.0
O323 O 0.41886 0.31709 0.94768 0.0
O324 O 0.46933 0.37829 0.93047 0.0
C325 C 0.49635 0.28473 0.95207 0.0
O326 O 0.56133 0.39234 0.95004 0.0
Co327 Co 0.5241 0.33411 0.98745 0.0
O328 O 0.58746 0.37423 0.97575 0.0
C329 C 0.49882 0.41071 0.98408 0.0
C330 C 0.42492 0.34576 0.93435 0.0
C331 C 0.59515 0.39749 0.96096 0.0
O332 O 0.48543 0.39792 0.96764 0.0
O333 O 0.5127 0.38814 0.99455 0.0
O334 O 0.49224 0.30082 0.93647 0.0
O335 O 0.48772 0.30426 0.96582 0.0
Co336 Co 0.53641 0.68281 0.78368 0.0
O337 O 0.572 0.64974 0.78097 0.0
O338 O 0.58353 0.71196 0.76423 0.0
C339 C 0.46193 0.61674 0.78479 0.0
O340 O 0.50453 0.72461 0.78355 0.0
Co341 Co 0.48159 0.66429 0.82045 0.0
O342 O 0.45919 0.7054 0.80899 0.0
C343 C 0.58431 0.73972 0.81827 0.0
C344 C 0.59532 0.67931 0.76796 0.0
C345 C 0.47545 0.72935 0.79437 0.0
O346 O 0.58514 0.72907 0.80156 0.0
O347 O 0.54735 0.71604 0.82843 0.0
O348 O 0.48271 0.63387 0.76935 0.0
O349 O 0.48943 0.63567 0.79874 0.0
Co350 Co 0.32007 0.85369 0.78521 0.0
O351 O 0.35188 0.92235 0.78254 0.0
O352 O 0.28964 0.87073 0.76596 0.0
C353 C 0.38665 0.84641 0.78596 0.0
O354 O 0.27956 0.77977 0.78518 0.0
Co355 Co 0.34029 0.81876 0.82194 0.0
O356 O 0.30108 0.75497 0.81038 0.0
C357 C 0.2636 0.84388 0.82 0.0
C358 C 0.32153 0.91544 0.76975 0.0
C359 C 0.27654 0.74634 0.79586 0.0
O360 O 0.27384 0.8552 0.80327 0.0
O361 O 0.28787 0.8314 0.83017 0.0
O362 O 0.36909 0.85005 0.77062 0.0
O363 O 0.36801 0.85484 0.80004 0.0
Co364 Co 0.1479 0.46426 0.7859 0.0
O365 O 0.0789 0.42909 0.78417 0.0
O366 O 0.12751 0.41625 0.76669 0.0
C367 C 0.15812 0.53938 0.78692 0.0
O368 O 0.22155 0.49556 0.78469 0.0
Co369 Co 0.18825 0.52012 0.82227 0.0
O370 O 0.25041 0.54206 0.80978 0.0
C371 C 0.15998 0.41736 0.82023 0.0
C372 C 0.08357 0.40489 0.7711 0.0
C373 C 0.25653 0.52517 0.79503 0.0
O374 O 0.14663 0.41606 0.80374 0.0
O375 O 0.17483 0.45464 0.83032 0.0
O376 O 0.15184 0.51749 0.77155 0.0
O377 O 0.15024 0.51235 0.80098 0.0
Co378 Co 0.35443 0.87063 0.04234 0.0
O379 O 0.32113 0.90633 0.0444 0.0
O380 O 0.38127 0.91681 0.06213 0.0
C381 C 0.28974 0.79575 0.04035 0.0
O382 O 0.39558 0.83807 0.04347 0.0
Co383 Co 0.34241 0.81914 0.0053 0.0
O384 O 0.37905 0.7933 0.01793 0.0
C385 C 0.41579 0.92162 0.00876 0.0
C386 C 0.34911 0.92888 0.05791 0.0
C387 C 0.40016 0.80801 0.03313 0.0
O388 O 0.40285 0.92033 0.02528 0.0
O389 O 0.3945 0.88553 0.99802 0.0
O390 O 0.30409 0.81673 0.05594 0.0
O391 O 0.30959 0.82382 0.02654 0.0
Co392 Co 0.13611 0.48142 0.04356 0.0
O393 O 0.09891 0.41309 0.04698 0.0
O394 O 0.09187 0.46641 0.06386 0.0
C395 C 0.20898 0.4871 0.04121 0.0
O396 O 0.17067 0.55551 0.04281 0.0
Co397 Co 0.1848 0.51297 0.00567 0.0
O398 O 0.21377 0.57765 0.01682 0.0
C399 C 0.08355 0.48797 0.00991 0.0
C400 C 0.07785 0.42131 0.06029 0.0
C401 C 0.20038 0.58791 0.0316 0.0
O402 O 0.08583 0.47899 0.02667 0.0
O403 O 0.1185 0.49986 -0.00117 0.0
O404 O 0.1903 0.48507 0.05697 0.0
O405 O 0.18001 0.4783 0.02769 0.0
Co406 Co 0.52183 0.64751 0.04185 0.0
O407 O 0.59039 0.68377 0.04488 0.0
O408 O 0.5416 0.61885 0.06089 0.0
C409 C 0.50778 0.70961 0.0417 0.0
O410 O 0.44847 0.60248 0.04152 0.0
Co411 Co 0.48541 0.66476 0.00508 0.0
O412 O 0.42196 0.62181 0.01623 0.0
C413 C 0.51775 0.59371 0.00687 0.0
C414 C 0.58545 0.6534 0.05739 0.0
C415 C 0.4145 0.59721 0.03065 0.0
O416 O 0.52838 0.60472 0.02357 0.0
O417 O 0.50178 0.61491 0.99665 0.0
O418 O 0.51292 0.69236 0.05687 0.0
O419 O 0.5192 0.69434 0.02734 0.0
Co420 Co 0.1267 0.64551 0.54295 0.0
O421 O 0.09272 0.68013 0.54578 0.0
O422 O 0.07919 0.61688 0.5623 0.0
C423 C 0.20221 0.70955 0.54206 0.0
O424 O 0.15706 0.60228 0.54281 0.0
Co425 Co 0.17925 0.66254 0.50584 0.0
O426 O 0.20151 0.62119 0.51714 0.0
C427 C 0.07648 0.58924 0.50841 0.0
C428 C 0.06853 0.65038 0.55864 0.0
C429 C 0.1856 0.59724 0.53177 0.0
O430 O 0.07723 0.60054 0.52511 0.0
O431 O 0.11304 0.61122 0.49793 0.0
O432 O 0.18068 0.6929 0.55741 0.0
O433 O 0.17464 0.69208 0.52799 0.0
Co434 Co 0.34727 0.47913 0.54377 0.0
O435 O 0.31452 0.41058 0.54675 0.0
O436 O 0.37529 0.46212 0.5639 0.0
C437 C 0.28121 0.48687 0.54156 0.0
O438 O 0.38846 0.55306 0.54351 0.0
Co439 Co 0.33174 0.51278 0.50604 0.0
O440 O 0.37 0.57698 0.51736 0.0
C441 C 0.40835 0.48829 0.51038 0.0
C442 C 0.34321 0.41743 0.56015 0.0
C443 C 0.39319 0.58606 0.53222 0.0
O444 O 0.39503 0.47659 0.52686 0.0
O445 O 0.38603 0.50116 0.49934 0.0
O446 O 0.29731 0.48361 0.55727 0.0
O447 O 0.30102 0.47796 0.52794 0.0
Co448 Co 0.51662 0.86701 0.54385 0.0
O449 O 0.58529 0.90277 0.54686 0.0
O450 O 0.53391 0.91225 0.56394 0.0
C451 C 0.50794 0.79278 0.5417 0.0
O452 O 0.4427 0.83413 0.54371 0.0
Co453 Co 0.48227 0.81739 0.50619 0.0
O454 O 0.41826 0.79123 0.51767 0.0
C455 C 0.50962 0.91934 0.5101 0.0
C456 C 0.57857 0.92471 0.56024 0.0
C457 C 0.40943 0.80504 0.53264 0.0
O458 O 0.51954 0.91742 0.5268 0.0
O459 O 0.49649 0.8839 0.49916 0.0
O460 O 0.51181 0.81242 0.5574 0.0
O461 O 0.5172 0.82156 0.52807 0.0
Co462 Co 0.3179 0.46707 0.28385 0.0
O463 O 0.35123 0.43173 0.28111 0.0
O464 O 0.29098 0.42213 0.26361 0.0
C465 C 0.38336 0.54145 0.28629 0.0
O466 O 0.27651 0.4995 0.28371 0.0
Co467 Co 0.33155 0.51584 0.32156 0.0
O468 O 0.29398 0.54194 0.30982 0.0
C469 C 0.25703 0.41388 0.31728 0.0
C470 C 0.32324 0.40995 0.26753 0.0
C471 C 0.27175 0.52823 0.29475 0.0
O472 O 0.26971 0.41628 0.30066 0.0
O473 O 0.27914 0.44906 0.32835 0.0
O474 O 0.36809 0.52193 0.27054 0.0
O475 O 0.36335 0.51251 0.29985 0.0
Co476 Co 0.53829 0.8553 0.28449 0.0
O477 O 0.57462 0.924 0.28176 0.0
O478 O 0.58674 0.87286 0.26555 0.0
C479 C 0.46386 0.84667 0.2846 0.0
O480 O 0.50562 0.78138 0.28465 0.0
Co481 Co 0.48188 0.8205 0.32102 0.0
O482 O 0.4591 0.75659 0.30985 0.0
C483 C 0.58371 0.84531 0.31957 0.0
C484 C 0.5989 0.91745 0.26923 0.0
C485 C 0.47573 0.74806 0.29551 0.0
O486 O 0.5856 0.85757 0.30291 0.0
O487 O 0.54643 0.8321 0.32952 0.0
O488 O 0.48599 0.85079 0.26945 0.0
O489 O 0.49043 0.85582 0.29889 0.0
Co490 Co 0.14953 0.68735 0.28439 0.0
O491 O 0.08066 0.65469 0.28227 0.0
O492 O 0.13082 0.71636 0.26516 0.0
C493 C 0.15825 0.62161 0.28525 0.0
O494 O 0.22331 0.72844 0.28363 0.0
Co495 Co 0.18733 0.66966 0.32095 0.0
O496 O 0.25032 0.70974 0.30896 0.0
C497 C 0.16106 0.74551 0.31893 0.0
C498 C 0.08647 0.68417 0.26928 0.0
C499 C 0.25757 0.73285 0.29416 0.0
O500 O 0.1486 0.73425 0.30232 0.0
O501 O 0.17463 0.72211 0.32908 0.0
O502 O 0.1529 0.63802 0.26992 0.0
O503 O 0.15018 0.64047 0.29936 0.0
C504 C 0.34075 0.14041 0.15004 0.0
C505 C 0.29704 0.11767 0.15977 0.0
C506 C 0.37901 0.18561 0.15525 0.0
C507 C 0.37531 0.21022 0.17042 0.0
H508 H 0.34551 0.1233 0.13819 0.0
H509 H 0.41205 0.20092 0.14743 0.0
S510 S 0.2677 0.16782 0.20005 0.0
N511 N 0.25177 0.12421 0.18505 0.0
N512 N 0.32358 0.20899 0.19481 0.0
C513 C 0.33166 0.18812 0.18022 0.0
C514 C 0.29268 0.14195 0.17494 0.0
C515 C 0.8163 0.14667 0.18037 0.0
C516 C 0.78917 0.15982 0.1691 0.0
C517 C 0.86162 0.15419 0.17512 0.0
C518 C 0.8821 0.17516 0.15832 0.0
H519 H 0.80285 0.13095 0.19356 0.0
H520 H 0.88045 0.14292 0.18432 0.0
S521 S 0.82594 0.21566 0.12353 0.0
N522 N 0.78619 0.19449 0.14013 0.0
N523 N 0.87125 0.20872 0.13027 0.0
C524 C 0.85528 0.18825 0.14681 0.0
C525 C 0.80893 0.18042 0.15215 0.0
C526 C 0.85347 0.66639 0.17914 0.0
C527 C 0.84453 0.62773 0.16758 0.0
C528 C 0.84573 0.70378 0.1735 0.0
C529 C 0.82872 0.70444 0.156 0.0
H530 H 0.86619 0.66781 0.19283 0.0
H531 H 0.85382 0.73273 0.18296 0.0
S532 S 0.79956 0.61183 0.12028 0.0
N533 N 0.81765 0.59257 0.13765 0.0
N534 N 0.80299 0.66258 0.12706 0.0
C535 C 0.81949 0.66594 0.14425 0.0
C536 C 0.82755 0.62784 0.15 0.0
C537 C 0.14551 0.33284 0.34533 0.0
C538 C 0.11835 0.29267 0.33401 0.0
C539 C 0.19086 0.3708 0.34008 0.0
C540 C 0.21132 0.37054 0.32325 0.0
H541 H 0.13192 0.33504 0.3585 0.0
H542 H 0.20962 0.40095 0.34928 0.0
S543 S 0.15573 0.27356 0.28855 0.0
N544 N 0.11582 0.25492 0.3051 0.0
N545 N 0.20088 0.32598 0.29529 0.0
C546 C 0.18471 0.33049 0.31178 0.0
C547 C 0.13835 0.29182 0.31711 0.0
C548 C 0.70671 0.85489 0.32238 0.0
C549 C 0.70162 0.82424 0.33691 0.0
C550 C 0.66908 0.8629 0.31736 0.0
C551 C 0.62466 0.84066 0.32664 0.0
H552 H 0.74045 0.87383 0.31501 0.0
H553 H 0.67491 0.88669 0.30602 0.0
S554 S 0.59174 0.75481 0.36507 0.0
N555 N 0.64796 0.77011 0.36017 0.0
N556 N 0.57718 0.78496 0.35071 0.0
C557 C 0.61889 0.80956 0.34114 0.0
C558 C 0.65726 0.80133 0.34623 0.0
C559 C 0.14912 0.85777 0.32145 0.0
C560 C 0.1781 0.883 0.33639 0.0
C561 C 0.14266 0.81275 0.31629 0.0
C562 C 0.16488 0.79095 0.32583 0.0
H563 H 0.13017 0.87225 0.31391 0.0
H564 H 0.11994 0.79491 0.30469 0.0
S565 S 0.24744 0.84388 0.36518 0.0
N566 N 0.23122 0.88401 0.36015 0.0
N567 N 0.21923 0.79957 0.35048 0.0
C568 C 0.19462 0.81619 0.34065 0.0
C569 C 0.20127 0.86213 0.34588 0.0
C570 C 0.66676 0.81233 0.81426 0.0
C571 C 0.62621 0.78493 0.82538 0.0
C572 C 0.70485 0.85727 0.81982 0.0
C573 C 0.70424 0.87703 0.83676 0.0
H574 H 0.66922 0.7992 0.80102 0.0
H575 H 0.73542 0.87617 0.81081 0.0
S576 S 0.60586 0.82078 0.87094 0.0
N577 N 0.58755 0.78157 0.85416 0.0
N578 N 0.65868 0.86589 0.86453 0.0
C579 C 0.66362 0.85031 0.84798 0.0
C580 C 0.62491 0.80436 0.84235 0.0
C581 C 0.14884 0.85134 0.82213 0.0
C582 C 0.12486 0.82348 0.83745 0.0
C583 C 0.19441 0.85922 0.81703 0.0
C584 C 0.21805 0.83958 0.82701 0.0
H585 H 0.13282 0.86815 0.81417 0.0
H586 H 0.21111 0.88079 0.80507 0.0
S587 S 0.16956 0.76169 0.86778 0.0
N588 N 0.12744 0.77476 0.86225 0.0
N589 N 0.21295 0.78951 0.85271 0.0
C590 C 0.1943 0.81134 0.84233 0.0
C591 C 0.14779 0.80321 0.84749 0.0
C592 C 0.14612 0.29234 0.82254 0.0
C593 C 0.17668 0.2962 0.83693 0.0
C594 C 0.13968 0.33109 0.81767 0.0
C595 C 0.16348 0.37543 0.82699 0.0
H596 H 0.12613 0.25876 0.81514 0.0
H597 H 0.11585 0.32617 0.80645 0.0
S598 S 0.25005 0.40536 0.865 0.0
N599 N 0.23259 0.34866 0.86002 0.0
N600 N 0.22067 0.42149 0.85088 0.0
C601 C 0.19457 0.37998 0.84132 0.0
C602 C 0.20118 0.34048 0.84625 0.0
C603 C 0.80831 0.66791 0.6774 0.0
C604 C 0.78728 0.62315 0.66837 0.0
C605 C 0.85362 0.70618 0.67232 0.0
C606 C 0.8799 0.70129 0.65802 0.0
H607 H 0.78958 0.67359 0.68849 0.0
H608 H 0.86749 0.74027 0.67939 0.0
S609 S 0.84316 0.59044 0.63093 0.0
N610 N 0.79779 0.57539 0.64503 0.0
N611 N 0.88279 0.64735 0.6355 0.0
C612 C 0.85982 0.65648 0.64909 0.0
C613 C 0.81359 0.61749 0.65422 0.0
C614 C 0.33249 0.14717 0.68083 0.0
C615 C 0.37156 0.15786 0.66922 0.0
C616 C 0.29456 0.15441 0.67547 0.0
C617 C 0.29381 0.17269 0.65823 0.0
H618 H 0.33119 0.13346 0.69434 0.0
H619 H 0.26531 0.14497 0.68493 0.0
S620 S 0.38745 0.20681 0.62253 0.0
N621 N 0.40698 0.18779 0.63953 0.0
N622 N 0.3361 0.20165 0.62949 0.0
C623 C 0.33273 0.18369 0.64644 0.0
C624 C 0.3713 0.17608 0.65189 0.0
C625 C 0.82224 0.18959 0.65516 0.0
C626 C 0.83865 0.20731 0.67271 0.0
C627 C 0.8141 0.14417 0.64969 0.0
C628 C 0.82201 0.11418 0.66149 0.0
H629 H 0.81509 0.21072 0.64551 0.0
H630 H 0.80205 0.13292 0.63594 0.0
S631 S 0.86431 0.14289 0.70911 0.0
N632 N 0.86217 0.19067 0.70202 0.0
N633 N 0.84672 0.10547 0.69176 0.0
C634 C 0.83813 0.13122 0.67916 0.0
C635 C 0.8466 0.17766 0.68472 0.0
C636 C 0.03787 0.51836 0.48742 0.0
C637 C 0.03341 0.54447 0.50189 0.0
C638 C 0.99971 0.47275 0.48253 0.0
C639 C 0.95547 0.45118 0.49193 0.0
H640 H 0.07157 0.53261 0.48006 0.0
H641 H 0.00507 0.45422 0.47129 0.0
S642 S 0.92381 0.50625 0.52997 0.0
N643 N 0.98022 0.54649 0.52498 0.0
N644 N 0.9086 0.46097 0.51583 0.0
C645 C 0.9502 0.4773 0.50625 0.0
C646 C 0.98903 0.52384 0.51118 0.0
C647 C 0.46962 0.50231 0.48643 0.0
C648 C 0.4548 0.49224 0.50459 0.0
C649 C 0.51489 0.51016 0.48088 0.0
C650 C 0.54754 0.50835 0.49324 0.0
H651 H 0.44614 0.50428 0.47633 0.0
H652 H 0.52381 0.51682 0.46665 0.0
S653 S 0.52776 0.48605 0.54265 0.0
N654 N 0.4776 0.48268 0.53515 0.0
N655 N 0.56244 0.49753 0.5247 0.0
C656 C 0.53358 0.49909 0.51152 0.0
C657 C 0.48735 0.4909 0.51718 0.0
C658 C 0.47131 0.99686 0.48397 0.0
C659 C 0.49259 0.04053 0.49374 0.0
C660 C 0.47855 0.95867 0.48895 0.0
C661 C 0.50738 0.9624 0.50393 0.0
H662 H 0.44891 0.99202 0.47228 0.0
H663 H 0.46046 0.92558 0.48116 0.0
S664 S 0.57375 0.06986 0.53353 0.0
N665 N 0.54547 0.08579 0.51882 0.0
N666 N 0.55884 0.01402 0.52816 0.0
C667 C 0.52933 0.006 0.51375 0.0
C668 C 0.52192 0.04494 0.5087 0.0
C669 C 0.48732 0.96103 0.98808 0.0
C670 C 0.46107 0.96487 0.00264 0.0
C671 C 0.53273 0.99957 0.98322 0.0
C672 C 0.55398 0.04366 0.99271 0.0
H673 H 0.47324 0.92762 0.98054 0.0
H674 H 0.55127 0.99466 0.97187 0.0
S675 S 0.49873 0.0736 0.03118 0.0
N676 N 0.45881 0.01718 0.02605 0.0
N677 N 0.54393 0.08956 0.01693 0.0
C678 C 0.52786 0.04823 0.00719 0.0
C679 C 0.48152 0.00896 0.01212 0.0
C680 C 0.00689 0.52809 0.98436 0.0
C681 C 0.96298 0.50615 0.99399 0.0
C682 C 0.0449 0.52046 0.98917 0.0
C683 C 0.04074 0.49061 0.00384 0.0
H684 H 0.01203 0.5513 0.9729 0.0
H685 H 0.07819 0.53904 0.98152 0.0
S686 S 0.93265 0.42228 0.03296 0.0
N687 N 0.91707 0.4516 0.01859 0.0
N688 N 0.98861 0.43754 0.02764 0.0
C689 C 0.99696 0.46806 0.01353 0.0
C690 C 0.95817 0.47583 0.00865 0.0
C691 C 0.47904 0.47706 0.98129 0.0
C692 C 0.50357 0.45701 0.99039 0.0
C693 C 0.48571 0.52244 0.98607 0.0
C694 C 0.51737 0.5498 0.00012 0.0
H695 H 0.45412 0.45739 0.97042 0.0
H696 H 0.46468 0.53541 0.97905 0.0
S697 S 0.59431 0.51627 0.02699 0.0
N698 N 0.56357 0.46991 0.01334 0.0
N699 N 0.57605 0.55501 0.02227 0.0
C700 C 0.54325 0.53089 0.00899 0.0
C701 C 0.53631 0.48459 0.00418 0.0
C702 C 0.29524 0.00605 0.07141 0.0
C703 C 0.29949 0.00733 0.09031 0.0
C704 C 0.315 0.98377 0.0608 0.0
C705 C 0.34028 0.96276 0.06872 0.0
H706 H 0.27297 0.01836 0.06492 0.0
H707 H 0.30786 0.98041 0.0464 0.0
S708 S 0.36872 0.96496 0.11741 0.0
N709 N 0.33598 0.99167 0.11634 0.0
N710 N 0.37401 0.95084 0.09638 0.0
C711 C 0.34903 0.96844 0.08741 0.0
C712 C 0.32828 0.99042 0.09822 0.0
C713 C 0.04997 0.38294 0.09046 0.0
C714 C 0.04388 0.38037 0.07165 0.0
C715 C 0.03035 0.34066 0.10091 0.0
C716 C 0.00354 0.29453 0.09291 0.0
H717 H 0.07362 0.41727 0.09692 0.0
H718 H 0.03893 0.34408 0.1152 0.0
S719 S 0.96917 0.26973 0.04461 0.0
N720 N 0.00336 0.32911 0.04576 0.0
N721 N 0.9658 0.24969 0.06546 0.0
C722 C 0.99272 0.29201 0.07442 0.0
C723 C 0.01319 0.33501 0.06376 0.0
C724 C 0.62601 0.6612 0.08695 0.0
C725 C 0.62817 0.66217 0.068 0.0
C726 C 0.66848 0.68398 0.09729 0.0
C727 C 0.71443 0.70767 0.08903 0.0
H728 H 0.59152 0.64666 0.09377 0.0
H729 H 0.66522 0.68563 0.11182 0.0
S730 S 0.73903 0.71211 0.03992 0.0
N731 N 0.6795 0.68282 0.04143 0.0
N732 N 0.75929 0.72469 0.06091 0.0
C733 C 0.71696 0.70429 0.0702 0.0
C734 C 0.67374 0.6818 0.05966 0.0
C735 C 0.98207 0.31315 0.43161 0.0
C736 C 0.95868 0.33622 0.4238 0.0
C737 C 0.00424 0.29357 0.42087 0.0
C738 C 0.00294 0.29566 0.40194 0.0
H739 H 0.98059 0.30746 0.4461 0.0
H740 H 0.01854 0.27301 0.42738 0.0
S741 S 0.9536 0.35899 0.37496 0.0
N742 N 0.94161 0.3658 0.39613 0.0
N743 N 0.98234 0.32816 0.37589 0.0
C744 C 0.98364 0.32245 0.39406 0.0
C745 C 0.96177 0.34305 0.40501 0.0
C746 C 0.65942 0.62087 0.40674 0.0
C747 C 0.66114 0.6234 0.42569 0.0
C748 C 0.68058 0.66318 0.39628 0.0
C749 C 0.70335 0.70931 0.4044 0.0
H750 H 0.64557 0.58637 0.39999 0.0
H751 H 0.68185 0.65976 0.38174 0.0
S752 S 0.70896 0.73468 0.45347 0.0
N753 N 0.68128 0.67516 0.45214 0.0
N754 N 0.72017 0.75454 0.43241 0.0
C755 C 0.70058 0.71205 0.42325 0.0
C756 C 0.67973 0.66904 0.43391 0.0
C757 C 0.326 0.01517 0.4341 0.0
C758 C 0.37221 0.03638 0.42609 0.0
C759 C 0.28386 0.99368 0.42355 0.0
C760 C 0.28667 0.99349 0.40463 0.0
H761 H 0.32243 0.01795 0.44856 0.0
H762 H 0.24935 0.98119 0.43014 0.0
S763 S 0.39795 0.03642 0.37724 0.0
N764 N 0.41761 0.04944 0.39829 0.0
N765 N 0.33849 0.00998 0.37842 0.0
C766 C 0.33225 0.0104 0.39659 0.0
C767 C 0.37509 0.03158 0.40734 0.0
C768 C 0.71115 0.99258 0.92344 0.0
C769 C 0.70883 0.9924 0.9045 0.0
C770 C 0.6921 0.016 0.93376 0.0
C771 C 0.66938 0.03921 0.92549 0.0
H772 H 0.73147 0.97844 0.93024 0.0
H773 H 0.69785 0.01851 0.94825 0.0
S774 S 0.64669 0.04104 0.87646 0.0
N775 N 0.67685 0.01172 0.87798 0.0
N776 N 0.64016 0.05476 0.89742 0.0
C777 C 0.66246 0.03478 0.90671 0.0
C778 C 0.68253 0.01165 0.89619 0.0
C779 C 0.99025 0.67413 0.935 0.0
C780 C 0.97081 0.62801 0.92701 0.0
C781 C 0.01245 0.71635 0.92451 0.0
C782 C 0.01531 0.71367 0.90568 0.0
H783 H 0.98528 0.67753 0.94931 0.0
H784 H 0.02307 0.75066 0.93098 0.0
S785 S 0.97903 0.60303 0.87862 0.0
N786 N 0.9631 0.58308 0.89953 0.0
N787 N 0.00409 0.66239 0.87975 0.0
C788 C 1.00075 0.66836 0.89779 0.0
C789 C 0.97871 0.62542 0.90849 0.0
C790 C 0.33644 0.31388 0.9317 0.0
C791 C 0.38246 0.33724 0.92351 0.0
C792 C 0.29405 0.29339 0.92131 0.0
C793 C 0.29632 0.29483 0.90236 0.0
H794 H 0.33312 0.30876 0.94622 0.0
H795 H 0.25961 0.27279 0.92811 0.0
S796 S 0.40728 0.35882 0.87444 0.0
N797 N 0.4274 0.36651 0.89545 0.0
N798 N 0.34777 0.32718 0.87586 0.0
C799 C 0.34188 0.32186 0.89408 0.0
C800 C 0.38503 0.3434 0.90468 0.0
C801 C 0.99045 0.70338 0.5712 0.0
C802 C 0.99032 0.70118 0.59014 0.0
C803 C 0.0123 0.68269 0.56091 0.0
C804 C 0.03396 0.65851 0.5692 0.0
H805 H 0.9777 0.7249 0.56439 0.0
H806 H 0.01508 0.68849 0.54642 0.0
S807 S 0.03407 0.63471 0.61821 0.0
N808 N 0.00712 0.66717 0.61668 0.0
N809 N 0.04733 0.62749 0.59726 0.0
C810 C 0.02911 0.65144 0.58797 0.0
C811 C 0.00754 0.67312 0.59847 0.0
C812 C 0.29185 0.28704 0.57353 0.0
C813 C 0.29183 0.28959 0.59247 0.0
C814 C 0.31279 0.32931 0.56307 0.0
C815 C 0.33508 0.37544 0.57118 0.0
H816 H 0.27197 0.25247 0.56676 0.0
H817 H 0.30868 0.32579 0.54851 0.0
S818 S 0.35296 0.40104 0.62028 0.0
N819 N 0.32196 0.34148 0.61895 0.0
N820 N 0.36199 0.42085 0.59921 0.0
C821 C 0.33996 0.37832 0.59005 0.0
C822 C 0.31803 0.33531 0.60072 0.0
C823 C 0.7089 0.00335 0.57417 0.0
C824 C 0.70571 0.00192 0.5931 0.0
C825 C 0.66697 0.98165 0.56349 0.0
C826 C 0.62054 0.95854 0.57137 0.0
H827 H 0.74367 0.01738 0.56761 0.0
H828 H 0.67099 0.98029 0.54899 0.0
S829 S 0.59336 0.95352 0.62027 0.0
N830 N 0.65294 0.98169 0.61925 0.0
N831 N 0.57427 0.94179 0.59912 0.0
C832 C 0.61709 0.96158 0.59017 0.0
C833 C 0.65972 0.98301 0.60106 0.0
C834 C 0.67457 0.62795 0.7549 0.0
C835 C 0.67399 0.62985 0.73596 0.0
C836 C 0.6525 0.64816 0.76533 0.0
C837 C 0.62991 0.67163 0.75719 0.0
H838 H 0.68809 0.60699 0.76162 0.0
H839 H 0.65032 0.64256 0.77984 0.0
S840 S 0.62738 0.69435 0.7082 0.0
N841 N 0.65528 0.66277 0.70955 0.0
N842 N 0.61471 0.7016 0.72923 0.0
C843 C 0.63393 0.67839 0.7384 0.0
C844 C 0.65571 0.65716 0.72775 0.0
C845 C 0.34653 0.99653 0.72957 0.0
C846 C 0.36965 0.04278 0.7376 0.0
C847 C 0.3256 0.9544 0.74013 0.0
C848 C 0.32791 0.95726 0.75906 0.0
H849 H 0.34753 0.99286 0.71503 0.0
H850 H 0.31168 0.9198 0.73344 0.0
S851 S 0.3763 0.06895 0.78663 0.0
N852 N 0.38705 0.08848 0.76552 0.0
N853 N 0.34856 0.0094 0.78542 0.0
C854 C 0.34657 0.00301 0.7672 0.0
C855 C 0.36721 0.04585 0.75644 0.0
C856 C 1.00019 0.3484 0.73141 0.0
C857 C 0.95423 0.3272 0.7396 0.0
C858 C 0.0426 0.36926 0.7418 0.0
C859 C 0.0404 0.37041 0.76073 0.0
H860 H 0.00352 0.3516 0.71682 0.0
H861 H 0.07711 0.3882 0.73492 0.0
S862 S 0.92926 0.31288 0.78879 0.0
N863 N 0.90918 0.30281 0.76775 0.0
N864 N 0.98881 0.34283 0.78734 0.0
C865 C 0.99474 0.3455 0.7691 0.0
C866 C 0.95158 0.32357 0.75851 0.0
C867 C 0.37525 0.33124 0.25436 0.0
C868 C 0.37539 0.3335 0.23541 0.0
C869 C 0.3544 0.35281 0.26473 0.0
C870 C 0.3322 0.37656 0.25651 0.0
H871 H 0.39481 0.31638 0.26124 0.0
H872 H 0.35827 0.3534 0.2793 0.0
S873 S 0.31507 0.3841 0.20733 0.0
N874 N 0.34585 0.3554 0.2088 0.0
N875 N 0.30589 0.39508 0.22835 0.0
C876 C 0.3277 0.37457 0.23762 0.0
C877 C 0.34961 0.35329 0.22705 0.0
C878 C 0.63369 0.95746 0.23974 0.0
C879 C 0.63463 0.95951 0.25869 0.0
C880 C 0.65508 1.00005 0.22944 0.0
C881 C 0.67883 0.04595 0.23773 0.0
H882 H 0.61255 0.92319 0.23288 0.0
H883 H 0.65007 0.99706 0.21491 0.0
S884 S 0.69915 0.06993 0.28686 0.0
N885 N 0.66683 0.01046 0.28532 0.0
N886 N 0.70788 0.09039 0.26588 0.0
C887 C 0.68464 0.04816 0.25656 0.0
C888 C 0.66219 0.00487 0.26707 0.0
C889 C 0.00527 0.65852 0.22902 0.0
C890 C 0.95893 0.63347 0.2369 0.0
C891 C 0.04717 0.68002 0.2397 0.0
C892 C 0.04403 0.67633 0.25861 0.0
H893 H 0.00929 0.65865 0.21447 0.0
H894 H 0.082 0.69562 0.23307 0.0
S895 S 0.93155 0.62215 0.28591 0.0
N896 N 0.9125 0.61239 0.26474 0.0
N897 N 0.99115 0.65195 0.28487 0.0
C898 C 0.99797 0.65552 0.26666 0.0
C899 C 0.95534 0.63433 0.25578 0.0
C900 C 0.09145 0.13213 0.10802 0.0
C901 C 0.08465 0.15534 0.12305 0.0
C902 C 0.11401 0.10428 0.10986 0.0
C903 C 0.13036 0.09877 0.1268 0.0
H904 H 0.07735 0.13364 0.09487 0.0
H905 H 0.11627 0.08496 0.09821 0.0
S906 S 0.12886 0.15859 0.16966 0.0
N907 N 0.10151 0.17552 0.15489 0.0
N908 N 0.14394 0.12357 0.15837 0.0
C909 C 0.12679 0.12449 0.14163 0.0
C910 C 0.10389 0.15267 0.13976 0.0
C911 C 0.90454 0.00863 0.10846 0.0
C912 C 0.90626 0.02917 0.1254 0.0
C913 C 0.87715 0.95832 0.106 0.0
C914 C 0.85077 0.92719 0.1204 0.0
H915 H 0.92646 0.03113 0.0974 0.0
H916 H 0.87858 0.94364 0.09296 0.0
S917 S 0.83735 0.96452 0.16647 0.0
N918 N 0.87467 0.01552 0.15609 0.0
N919 N 0.82369 0.92136 0.15146 0.0
C920 C 0.84974 0.94782 0.13699 0.0
C921 C 0.87737 0.99874 0.13948 0.0
C922 C 0.99915 0.8949 0.10731 0.0
C923 C 0.97718 0.8744 0.1239 0.0
C924 C 0.0496 0.91776 0.10539 0.0
C925 C 0.07942 0.92073 0.12 0.0
H926 H 0.97767 0.89573 0.09614 0.0
H927 H 0.0654 0.93526 0.09265 0.0
S928 S 0.03799 0.86508 0.16521 0.0
N929 N 0.98799 0.85295 0.15441 0.0
N930 N 0.08244 0.89588 0.15079 0.0
C931 C 0.05733 0.89729 0.1362 0.0
C932 C 0.00626 0.8741 0.13814 0.0
C933 C 0.1187 0.11683 0.35486 0.0
C934 C 0.09327 0.12269 0.36927 0.0
C935 C 0.14642 0.09466 0.3574 0.0
C936 C 0.14973 0.07728 0.37444 0.0
H937 H 0.11614 0.1284 0.34133 0.0
H938 H 0.16414 0.08981 0.34576 0.0
S939 S 0.09143 0.0855 0.41679 0.0
N940 N 0.07446 0.11116 0.40128 0.0
N941 N 0.12661 0.06924 0.40626 0.0
C942 C 0.12609 0.08474 0.38919 0.0
C943 C 0.09788 0.10758 0.38656 0.0
C944 C 0.91301 0.04584 0.38768 0.0
C945 C 0.91688 0.0754 0.37283 0.0
C946 C 0.88965 0.99528 0.38601 0.0
C947 C 0.86944 0.97289 0.36945 0.0
H948 H 0.93023 0.06191 0.40043 0.0
H949 H 0.88995 0.974 0.39736 0.0
S950 S 0.86258 0.03306 0.32751 0.0
N951 N 0.89339 0.07785 0.3418 0.0
N952 N 0.84933 0.98319 0.33866 0.0
C953 C 0.87004 0.00178 0.35495 0.0
C954 C 0.89385 0.05298 0.35663 0.0
C955 C 0.99371 0.88274 0.35477 0.0
C956 C 0.02511 0.90373 0.36961 0.0
C957 C 0.94372 0.85529 0.35709 0.0
C958 C 0.92293 0.84777 0.37433 0.0
H959 H 0.0078 0.88854 0.34111 0.0
H960 H 0.92121 0.84124 0.34516 0.0
S961 S 0.98948 0.89181 0.41779 0.0
N962 N 0.03225 0.91278 0.40222 0.0
N963 N 0.93792 0.86093 0.40676 0.0
C964 C 0.95402 0.86648 0.38943 0.0
C965 C 0.00522 0.89447 0.38703 0.0
C966 C 0.88919 0.88784 0.88673 0.0
C967 C 0.87107 0.89066 0.86979 0.0
C968 C 0.91371 0.862 0.88883 0.0
C969 C 0.92078 0.83822 0.87406 0.0
H970 H 0.88712 0.90811 0.8981 0.0
H971 H 0.92937 0.86285 0.90191 0.0
S972 S 0.87213 0.82769 0.82776 0.0
N973 N 0.85584 0.86232 0.83865 0.0
N974 N 0.90194 0.814 0.84261 0.0
C975 C 0.89944 0.83775 0.85745 0.0
C976 C 0.87453 0.8639 0.85532 0.0
C977 C 0.11417 0.00279 0.85372 0.0
C978 C 0.09574 0.97194 0.86886 0.0
C979 C 0.14315 0.05279 0.85566 0.0
C980 C 0.1549 0.07426 0.87283 0.0
H981 H 0.10565 0.98828 0.84012 0.0
H982 H 0.15533 0.0748 0.84356 0.0
S983 S 0.11784 0.00955 0.91689 0.0
N984 N 0.09294 0.96623 0.9016 0.0
N985 N 0.14757 0.06053 0.90543 0.0
C986 C 0.13822 0.04377 0.88816 0.0
C987 C 0.10867 0.99255 0.88613 0.0
C988 C 1.00171 0.1315 0.86236 0.0
C989 C 0.03081 0.11977 0.87304 0.0
C990 C 0.95126 0.10566 0.86391 0.0
C991 C 0.92847 0.06744 0.87626 0.0
H992 H 0.01806 0.15958 0.85219 0.0
H993 H 0.92997 0.11516 0.85525 0.0
S994 S 0.98849 0.02009 0.90618 0.0
N995 N 0.03345 0.06607 0.89556 0.0
N996 N 0.93858 0.01786 0.89888 0.0
C997 C 0.95726 0.05576 0.88719 0.0
C998 C 0.00856 0.08187 0.88547 0.0
C999 C 0.86524 0.91115 0.607 0.0
C1000 C 0.83983 0.91506 0.62193 0.0
C1001 C 0.8929 0.88832 0.60863 0.0
C1002 C 0.89589 0.86876 0.62522 0.0
H1003 H 0.86579 0.92791 0.59421 0.0
H1004 H 0.91418 0.88852 0.59719 0.0
S1005 S 0.82991 0.86219 0.66741 0.0
N1006 N 0.81498 0.89218 0.65311 0.0
N1007 N 0.86658 0.84925 0.65617 0.0
C1008 C 0.86792 0.86939 0.63982 0.0
C1009 C 0.83998 0.89258 0.63818 0.0
C1010 C 0.1131 0.99318 0.63917 0.0
C1011 C 0.12069 0.0248 0.62466 0.0
C1012 C 0.09054 0.94329 0.63663 0.0
C1013 C 0.0745 0.92282 0.61946 0.0
H1014 H 0.12353 0.00704 0.6528 0.0
H1015 H 0.08425 0.92057 0.64835 0.0
S1016 S 0.08903 0.99011 0.57672 0.0
N1017 N 0.11321 0.03259 0.59236 0.0
N1018 N 0.07065 0.93837 0.58737 0.0
C1019 C 0.08413 0.95416 0.60461 0.0
C1020 C 0.10735 0.00529 0.60725 0.0
C1021 C 0.04982 0.14104 0.63944 0.0
C1022 C 0.0707 0.14917 0.62219 0.0
C1023 C 0.99988 0.11255 0.64175 0.0
C1024 C 0.9686 0.09102 0.62691 0.0
H1025 H 0.07227 0.15554 0.65136 0.0
H1026 H 0.98574 0.10645 0.65541 0.0
S1027 S 0.00446 0.10341 0.57875 0.0
N1028 N 0.05584 0.13542 0.58978 0.0
N1029 N 0.96167 0.0817 0.59431 0.0
C1030 C 0.98855 0.10064 0.6095 0.0
C1031 C 0.03968 0.12969 0.6071 0.0
C1032 C 0.7495 0.46074 0.44036 0.0
C1033 C 0.74531 0.48632 0.45517 0.0
C1034 C 0.77132 0.43221 0.4423 0.0
C1035 C 0.7895 0.42843 0.4591 0.0
H1036 H 0.73382 0.46085 0.42739 0.0
H1037 H 0.77159 0.41108 0.43089 0.0
S1038 S 0.7949 0.49437 0.50117 0.0
N1039 N 0.76651 0.51038 0.48652 0.0
N1040 N 0.80747 0.45711 0.49016 0.0
C1041 C 0.7885 0.45641 0.47362 0.0
C1042 C 0.76639 0.48527 0.47166 0.0
C1043 C 0.51833 0.27891 0.47163 0.0
C1044 C 0.51184 0.2576 0.45451 0.0
C1045 C 0.54655 0.32886 0.47384 0.0
C1046 C 0.56944 0.35976 0.45904 0.0
H1047 H 0.50285 0.25677 0.48356 0.0
H1048 H 0.55154 0.34331 0.48742 0.0
S1049 S 0.56078 0.32284 0.41111 0.0
N1050 N 0.52799 0.27165 0.42218 0.0
N1051 N 0.58127 0.36601 0.42653 0.0
C1052 C 0.56117 0.33945 0.44169 0.0
C1053 C 0.53236 0.28824 0.43939 0.0
C1054 C 0.70837 0.24569 0.43973 0.0
C1055 C 0.73872 0.24942 0.45426 0.0
C1056 C 0.65803 0.22324 0.44192 0.0
C1057 C 0.63671 0.20388 0.45871 0.0
H1058 H 0.72371 0.2624 0.42683 0.0
H1059 H 0.63616 0.22361 0.4308 0.0
S1060 S 0.69889 0.19662 0.49997 0.0
N1061 N 0.74282 0.22633 0.48523 0.0
N1062 N 0.64855 0.18413 0.48935 0.0
C1063 C 0.66624 0.20419 0.47288 0.0
C1064 C 0.71721 0.22699 0.47067 0.0
C1065 C 0.76798 0.44001 0.71991 0.0
C1066 C 0.76521 0.45803 0.70294 0.0
C1067 C 0.79506 0.41679 0.72219 0.0
C1068 C 0.82011 0.41092 0.70758 0.0
H1069 H 0.74703 0.44139 0.73117 0.0
H1070 H 0.79441 0.40134 0.7353 0.0
S1071 S 0.83068 0.45954 0.66126 0.0
N1072 N 0.79451 0.47421 0.67193 0.0
N1073 N 0.84501 0.43045 0.67622 0.0
C1074 C 0.8202 0.43186 0.69091 0.0
C1075 C 0.79285 0.45548 0.68861 0.0
C1076 C 0.5508 0.33633 0.68856 0.0
C1077 C 0.54233 0.30551 0.70343 0.0
C1078 C 0.573 0.38633 0.69069 0.0
C1079 C 0.58788 0.40776 0.70779 0.0
H1080 H 0.54133 0.32175 0.67499 0.0
H1081 H 0.58001 0.4084 0.67872 0.0
S1082 S 0.57045 0.34278 0.75133 0.0
N1083 N 0.5475 0.29947 0.73597 0.0
N1084 N 0.58948 0.39393 0.74017 0.0
C1085 C 0.57729 0.37722 0.72297 0.0
C1086 C 0.55438 0.32596 0.72075 0.0
C1087 C 0.67029 0.23038 0.72075 0.0
C1088 C 0.69211 0.23239 0.70407 0.0
C1089 C 0.61982 0.20308 0.72267 0.0
C1090 C 0.5898 0.17703 0.70798 0.0
H1091 H 0.69196 0.25203 0.73202 0.0
H1092 H 0.60417 0.20432 0.73551 0.0
S1093 S 0.63059 0.16445 0.66243 0.0
N1094 N 0.68079 0.20145 0.67333 0.0
N1095 N 0.58632 0.15056 0.67695 0.0
C1096 C 0.61167 0.17627 0.69165 0.0
C1097 C 0.66276 0.20384 0.68971 0.0
C1098 C 0.56327 0.17506 0.19766 0.0
C1099 C 0.59871 0.18777 0.21103 0.0
C1100 C 0.53841 0.20052 0.19583 0.0
C1101 C 0.54834 0.23961 0.20725 0.0
H1102 H 0.55548 0.14599 0.18829 0.0
H1103 H 0.5127 0.19097 0.18487 0.0
S1104 S 0.64002 0.28934 0.24359 0.0
N1105 N 0.64336 0.24279 0.23566 0.0
N1106 N 0.59689 0.29101 0.23188 0.0
C1107 C 0.58306 0.25227 0.22085 0.0
C1108 C 0.60823 0.22619 0.22283 0.0
C1109 C 0.79381 0.34074 0.18862 0.0
C1110 C 0.77327 0.31005 0.20367 0.0
C1111 C 0.82123 0.39083 0.1906 0.0
C1112 C 0.82912 0.41243 0.2077 0.0
H1113 H 0.78728 0.326 0.17505 0.0
H1114 H 0.8346 0.41278 0.17851 0.0
S1115 S 0.78777 0.34782 0.25164 0.0
N1116 N 0.76612 0.30433 0.23635 0.0
N1117 N 0.81785 0.39891 0.24026 0.0
C1118 C 0.81145 0.38202 0.22302 0.0
C1119 C 0.78353 0.3307 0.22096 0.0
C1120 C 0.66728 0.44496 0.18696 0.0
C1121 C 0.69831 0.45599 0.20195 0.0
C1122 C 0.61732 0.42356 0.18908 0.0
C1123 C 0.59612 0.4121 0.2063 0.0
H1124 H 0.68164 0.45213 0.17332 0.0
H1125 H 0.5951 0.41473 0.17706 0.0
S1126 S 0.66153 0.43572 0.25008 0.0
N1127 N 0.70462 0.45584 0.23464 0.0
N1128 N 0.61035 0.41543 0.23883 0.0
C1129 C 0.62684 0.42469 0.22153 0.0
C1130 C 0.67802 0.44674 0.21931 0.0
C1131 C 0.57381 0.22847 0.94158 0.0
C1132 C 0.57602 0.20941 0.9584 0.0
C1133 C 0.54579 0.25075 0.93935 0.0
C1134 C 0.51924 0.25459 0.95388 0.0
H1135 H 0.59586 0.22861 0.93043 0.0
H1136 H 0.54691 0.26714 0.9264 0.0
S1137 S 0.50695 0.20268 -0.00029 0.0
N1138 N 0.54478 0.19017 0.9891 0.0
N1139 N 0.49251 0.23207 0.98492 0.0
C1140 C 0.51869 0.2326 0.97035 0.0
C1141 C 0.54699 0.20998 0.9726 0.0
C1142 C 0.78054 0.34125 0.94206 0.0
C1143 C 0.80028 0.36302 0.95875 0.0
C1144 C 0.75823 0.29085 0.94001 0.0
C1145 C 0.75499 0.26088 0.95461 0.0
H1146 H 0.77978 0.36283 0.9309 0.0
H1147 H 0.74123 0.27516 0.92719 0.0
S1148 S 0.80883 0.30193 0.00011 0.0
N1149 N 0.82086 0.35199 0.98936 0.0
N1150 N 0.77888 0.25762 0.98554 0.0
C1151 C 0.77774 0.28283 0.97093 0.0
C1152 C 0.80043 0.33386 0.97298 0.0
C1153 C 0.71899 0.46304 0.93942 0.0
C1154 C 0.74813 0.49052 0.95407 0.0
C1155 C 0.6685 0.43513 0.94111 0.0
C1156 C 0.64589 0.43411 0.95748 0.0
H1157 H 0.73539 0.46099 0.92688 0.0
H1158 H 0.64752 0.41214 0.92998 0.0
S1159 S 0.70476 0.50608 -0.00134 0.0
N1160 N 0.74984 0.5195 0.98458 0.0
N1161 N 0.65527 0.46751 0.98773 0.0
C1162 C 0.67427 0.46423 0.97169 0.0
C1163 C 0.72537 0.49233 0.97001 0.0
C1164 C 0.41937 0.79665 0.77252 0.0
C1165 C 0.41695 0.82361 0.78721 0.0
C1166 C 0.44137 0.76827 0.77436 0.0
C1167 C 0.46154 0.76614 0.79094 0.0
H1168 H 0.40196 0.79539 0.75981 0.0
H1169 H 0.44005 0.74583 0.76315 0.0
S1170 S 0.47214 0.83616 0.83241 0.0
N1171 N 0.44204 0.85083 0.81805 0.0
N1172 N 0.48335 0.7978 0.8215 0.0
C1173 C 0.46246 0.79562 0.80524 0.0
C1174 C 0.44015 0.8243 0.80338 0.0
C1175 C 0.21962 0.66425 0.80739 0.0
C1176 C 0.24125 0.69489 0.79242 0.0
C1177 C 0.1908 0.61431 0.80533 0.0
C1178 C 0.18245 0.59274 0.7882 0.0
H1179 H 0.22596 0.67889 0.82098 0.0
H1180 H 0.17631 0.59238 0.81737 0.0
S1181 S 0.22747 0.65728 0.74443 0.0
N1182 N 0.24983 0.70065 0.75977 0.0
N1183 N 0.19547 0.6063 0.75571 0.0
C1184 C 0.20173 0.62313 0.77294 0.0
C1185 C 0.23112 0.67435 0.77509 0.0
C1186 C 0.37856 0.5835 0.77205 0.0
C1187 C 0.40892 0.58568 0.78632 0.0
C1188 C 0.32818 0.56059 0.7743 0.0
C1189 C 0.30689 0.53911 0.79087 0.0
H1190 H 0.39392 0.60187 0.75939 0.0
H1191 H 0.30626 0.5623 0.76347 0.0
S1192 S 0.36924 0.52749 0.83124 0.0
N1193 N 0.41314 0.55909 0.81671 0.0
N1194 N 0.31882 0.51592 0.8209 0.0
C1195 C 0.33648 0.53789 0.80469 0.0
C1196 C 0.38746 0.56124 0.80245 0.0
C1197 C 0.47235 0.80104 0.02712 0.0
C1198 C 0.43227 0.78961 0.03821 0.0
C1199 C 0.49728 0.7755 0.02849 0.0
C1200 C 0.48294 0.73788 0.04104 0.0
H1201 H 0.48321 0.8286 0.01679 0.0
H1202 H 0.52741 0.78472 0.01949 0.0
S1203 S 0.37782 0.69157 0.0721 0.0
N1204 N 0.37783 0.73691 0.06139 0.0
N1205 N 0.42505 0.68923 0.06433 0.0
C1206 C 0.44327 0.72657 0.0524 0.0
C1207 C 0.41776 0.75239 0.05088 0.0
C1208 C 0.23044 0.67091 0.01967 0.0
C1209 C 0.21858 0.64001 0.03478 0.0
C1210 C 0.25145 0.7209 0.02166 0.0
C1211 C 0.26171 0.74234 0.03883 0.0
H1212 H 0.22404 0.65645 0.00606 0.0
H1213 H 0.26084 0.74293 0.00957 0.0
S1214 S 0.2356 0.67752 0.08283 0.0
N1215 N 0.21675 0.63424 0.06751 0.0
N1216 N 0.25639 0.72852 0.07141 0.0
C1217 C 0.24844 0.7118 0.05414 0.0
C1218 C 0.22678 0.66059 0.05207 0.0
C1219 C 0.34325 0.55784 0.05139 0.0
C1220 C 0.36368 0.56104 0.03431 0.0
C1221 C 0.29293 0.53151 0.05373 0.0
C1222 C 0.26164 0.50762 0.03906 0.0
H1223 H 0.3659 0.57815 0.06269 0.0
H1224 H 0.27848 0.53203 0.06692 0.0
S1225 S 0.29849 0.49822 0.99242 0.0
N1226 N 0.34973 0.53315 0.00311 0.0
N1227 N 0.2554 0.48387 0.00753 0.0
C1228 C 0.28207 0.50763 0.02229 0.0
C1229 C 0.33307 0.53429 0.01992 0.0
C1230 C 0.21953 0.55912 0.5522 0.0
C1231 C 0.20095 0.56156 0.53531 0.0
C1232 C 0.24351 0.53273 0.55433 0.0
C1233 C 0.24966 0.50811 0.53963 0.0
H1234 H 0.2181 0.57994 0.5635 0.0
H1235 H 0.25938 0.53368 0.56737 0.0
S1236 S 0.19993 0.49681 0.49348 0.0
N1237 N 0.18457 0.53228 0.5043 0.0
N1238 N 0.22982 0.48312 0.5083 0.0
C1239 C 0.22815 0.50759 0.52306 0.0
C1240 C 0.20371 0.5342 0.52091 0.0
C1241 C 0.43244 0.65884 0.55244 0.0
C1242 C 0.42863 0.63747 0.53551 0.0
C1243 C 0.46013 0.70924 0.55453 0.0
C1244 C 0.48489 0.73971 0.53976 0.0
H1245 H 0.41199 0.63688 0.56386 0.0
H1246 H 0.46033 0.72447 0.56764 0.0
S1247 S 0.4926 0.70023 0.49338 0.0
N1248 N 0.4565 0.64973 0.5043 0.0
N1249 N 0.50812 0.74407 0.50825 0.0
C1250 C 0.48379 0.71831 0.5231 0.0
C1251 C 0.45578 0.66726 0.52098 0.0
C1252 C 0.32706 0.78105 0.52178 0.0
C1253 C 0.35786 0.78721 0.53642 0.0
C1254 C 0.27695 0.75766 0.52391 0.0
C1255 C 0.25549 0.73939 0.54078 0.0
H1256 H 0.34179 0.79333 0.50836 0.0
H1257 H 0.25485 0.75269 0.51211 0.0
S1258 S 0.32032 0.74803 0.58363 0.0
N1259 N 0.36373 0.77496 0.56847 0.0
N1260 N 0.26921 0.73089 0.5727 0.0
C1261 C 0.28599 0.74712 0.55576 0.0
C1262 C 0.33729 0.77115 0.55354 0.0
C1263 C 0.21324 0.55196 0.30562 0.0
C1264 C 0.23748 0.5454 0.29094 0.0
C1265 C 0.18586 0.57458 0.30344 0.0
C1266 C 0.18153 0.59165 0.28648 0.0
H1267 H 0.21654 0.54066 0.31911 0.0
H1268 H 0.16924 0.58003 0.31529 0.0
S1269 S 0.23543 0.58073 0.24343 0.0
N1270 N 0.25341 0.5554 0.2587 0.0
N1271 N 0.2017 0.59807 0.2544 0.0
C1272 C 0.2036 0.58323 0.27144 0.0
C1273 C 0.23157 0.55997 0.27372 0.0
C1274 C 0.44331 0.67536 0.27536 0.0
C1275 C 0.46039 0.69681 0.29232 0.0
C1276 C 0.4203 0.62494 0.27336 0.0
C1277 C 0.41369 0.5945 0.28825 0.0
H1278 H 0.44533 0.69728 0.26386 0.0
H1279 H 0.40567 0.60967 0.26022 0.0
S1280 S 0.45939 0.63432 0.33479 0.0
N1281 N 0.47465 0.68479 0.32371 0.0
N1282 N 0.43129 0.59032 0.31994 0.0
C1283 C 0.43355 0.616 0.30496 0.0
C1284 C 0.45696 0.66711 0.30698 0.0
C1285 C 0.38895 0.82243 0.30222 0.0
C1286 C 0.41062 0.82361 0.28559 0.0
C1287 C 0.3389 0.79508 0.30441 0.0
C1288 C 0.30847 0.76787 0.29006 0.0
H1289 H 0.41089 0.8414 0.31385 0.0
H1290 H 0.32397 0.79389 0.31768 0.0
S1291 S 0.34646 0.76055 0.24347 0.0
N1292 N 0.39738 0.79699 0.25413 0.0
N1293 N 0.30292 0.74536 0.25847 0.0
C1294 C 0.32913 0.77058 0.2731 0.0
C1295 C 0.38037 0.79849 0.27081 0.0
loop_
_geom_bond_atom_site_label_1
_geom_bond_atom_site_label_2
_geom_bond_distance
_geom_bond_site_symmetry_2
_ccdc_geom_bond_type
Co0 O1 2.216 . S
Co0 O2 2.091 . S
Co0 O4 2.004 . S
Co0 O10 2.021 . S
Co0 O12 2.137 1_545 S
Co0 O13 2.244 . S
O1 Co0 2.216 . S
O1 C8 1.247 . S
O2 Co0 2.091 . S
O2 C8 1.261 . S
C3 O12 1.247 . S
C3 O13 1.272 1_565 S
O4 Co0 2.004 . S
O4 C9 1.259 . S
Co5 O6 2.061 . S
Co5 O11 2.052 . S
Co5 O13 2.135 . S
O6 Co5 2.061 . S
O6 C9 1.235 . S
C7 O10 1.238 . S
C7 O11 1.241 . S
C8 O1 1.247 . S
C8 O2 1.261 . S
C9 O4 1.259 . S
C9 O6 1.235 . S
O10 Co0 2.021 . S
O10 C7 1.238 . S
O11 Co5 2.052 . S
O11 C7 1.241 . S
O12 Co0 2.137 1_565 S
O12 C3 1.247 . S
O13 Co0 2.244 . S
O13 C3 1.272 1_545 S
O13 Co5 2.135 . S
Co14 O15 2.216 . S
Co14 O16 2.091 . S
Co14 O18 2.004 . S
Co14 O24 2.021 . S
Co14 O26 2.137 1_655 S
Co14 O27 2.244 . S
O15 Co14 2.216 . S
O15 C22 1.247 . S
O16 Co14 2.091 . S
O16 C22 1.261 . S
C17 O26 1.247 . S
C17 O27 1.272 1_455 S
O18 Co14 2.004 . S
O18 C23 1.259 . S
Co19 O20 2.061 . S
Co19 O25 2.052 . S
Co19 O27 2.135 . S
O20 Co19 2.061 . S
O20 C23 1.235 . S
C21 O24 1.238 . S
C21 O25 1.241 . S
C22 O15 1.247 . S
C22 O16 1.261 . S
C23 O18 1.259 . S
C23 O20 1.235 . S
O24 Co14 2.021 . S
O24 C21 1.238 . S
O25 Co19 2.052 . S
O25 C21 1.241 . S
O26 Co14 2.137 1_455 S
O26 C17 1.247 . S
O27 Co14 2.244 . S
O27 C17 1.272 1_655 S
O27 Co19 2.135 . S
Co28 O29 2.216 . S
Co28 O30 2.091 . S
Co28 O32 2.004 . S
Co28 O38 2.021 . S
Co28 O40 2.137 . S
Co28 O41 2.244 . S
O29 Co28 2.216 . S
O29 C36 1.247 . S
O30 Co28 2.091 . S
O30 C36 1.261 . S
C31 O40 1.247 . S
C31 O41 1.272 . S
O32 Co28 2.004 . S
O32 C37 1.259 . S
Co33 O34 2.061 . S
Co33 O39 2.052 . S
Co33 O41 2.135 . S
O34 Co33 2.061 . S
O34 C37 1.235 . S
C35 O38 1.238 . S
C35 O39 1.241 . S
C36 O29 1.247 . S
C36 O30 1.261 . S
C37 O32 1.259 . S
C37 O34 1.235 . S
O38 Co28 2.021 . S
O38 C35 1.238 . S
O39 Co33 2.052 . S
O39 C35 1.241 . S
O40 Co28 2.137 . S
O40 C31 1.247 . S
O41 Co28 2.244 . S
O41 C31 1.272 . S
O41 Co33 2.135 . S
Co42 O43 2.216 . S
Co42 O44 2.091 . S
Co42 O46 2.004 . S
Co42 O52 2.021 . S
Co42 O54 2.137 1_455 S
Co42 O55 2.244 . S
O43 Co42 2.216 . S
O43 C50 1.247 . S
O44 Co42 2.091 . S
O44 C50 1.261 . S
C45 O54 1.247 . S
C45 O55 1.272 1_655 S
O46 Co42 2.004 . S
O46 C51 1.259 . S
Co47 O48 2.061 . S
Co47 O53 2.052 . S
Co47 O55 2.135 . S
O48 Co47 2.061 . S
O48 C51 1.235 . S
C49 O52 1.238 . S
C49 O53 1.241 . S
C50 O43 1.247 . S
C50 O44 1.261 . S
C51 O46 1.259 . S
C51 O48 1.235 . S
O52 Co42 2.021 . S
O52 C49 1.238 . S
O53 Co47 2.052 . S
O53 C49 1.241 . S
O54 Co42 2.137 1_655 S
O54 C45 1.247 . S
O55 Co42 2.244 . S
O55 C45 1.272 1_455 S
O55 Co47 2.135 . S
Co56 O57 2.216 . S
Co56 O58 2.091 . S
Co56 O60 2.004 . S
Co56 O66 2.021 . S
Co56 O68 2.137 . S
Co56 O69 2.244 . S
O57 Co56 2.216 . S
O57 C64 1.247 . S
O58 Co56 2.091 . S
O58 C64 1.261 . S
C59 O68 1.247 . S
C59 O69 1.272 . S
O60 Co56 2.004 . S
O60 C65 1.259 . S
Co61 O62 2.061 . S
Co61 O67 2.052 . S
Co61 O69 2.135 . S
O62 Co61 2.061 . S
O62 C65 1.235 . S
C63 O66 1.238 . S
C63 O67 1.241 . S
C64 O57 1.247 . S
C64 O58 1.261 . S
C65 O60 1.259 . S
C65 O62 1.235 . S
O66 Co56 2.021 . S
O66 C63 1.238 . S
O67 Co61 2.052 . S
O67 C63 1.241 . S
O68 Co56 2.137 . S
O68 C59 1.247 . S
O69 Co56 2.244 . S
O69 C59 1.272 . S
O69 Co61 2.135 . S
Co70 O71 2.216 . S
Co70 O72 2.091 . S
Co70 O74 2.004 . S
Co70 O80 2.021 . S
Co70 O82 2.137 1_565 S
Co70 O83 2.244 . S
O71 Co70 2.216 . S
O71 C78 1.247 . S
O72 Co70 2.091 . S
O72 C78 1.261 . S
C73 O82 1.247 . S
C73 O83 1.272 1_545 S
O74 Co70 2.004 . S
O74 C79 1.259 . S
Co75 O76 2.061 . S
Co75 O81 2.052 . S
Co75 O83 2.135 . S
O76 Co75 2.061 . S
O76 C79 1.235 . S
C77 O80 1.238 . S
C77 O81 1.241 . S
C78 O71 1.247 . S
C78 O72 1.261 . S
C79 O74 1.259 . S
C79 O76 1.235 . S
O80 Co70 2.021 . S
O80 C77 1.238 . S
O81 Co75 2.052 . S
O81 C77 1.241 . S
O82 Co70 2.137 1_545 S
O82 C73 1.247 . S
O83 Co70 2.244 . S
O83 C73 1.272 1_565 S
O83 Co75 2.135 . S
Co84 O85 2.216 . S
Co84 O86 2.091 . S
Co84 O88 2.004 . S
Co84 O94 2.021 . S
Co84 O96 2.137 1_565 S
Co84 O97 2.244 . S
O85 Co84 2.216 . S
O85 C92 1.247 . S
O86 Co84 2.091 . S
O86 C92 1.261 . S
C87 O96 1.247 . S
C87 O97 1.272 1_545 S
O88 Co84 2.004 . S
O88 C93 1.259 . S
Co89 O90 2.061 . S
Co89 O95 2.052 . S
Co89 O97 2.135 . S
O90 Co89 2.061 . S
O90 C93 1.235 . S
C91 O94 1.238 . S
C91 O95 1.241 . S
C92 O85 1.247 . S
C92 O86 1.261 . S
C93 O88 1.259 . S
C93 O90 1.235 . S
O94 Co84 2.021 . S
O94 C91 1.238 . S
O95 Co89 2.052 . S
O95 C91 1.241 . S
O96 Co84 2.137 1_545 S
O96 C87 1.247 . S
O97 Co84 2.244 . S
O97 C87 1.272 1_565 S
O97 Co89 2.135 . S
Co98 O99 2.216 . S
Co98 O100 2.091 . S
Co98 O102 2.004 . S
Co98 O108 2.021 . S
Co98 O110 2.137 1_455 S
Co98 O111 2.244 . S
O99 Co98 2.216 . S
O99 C106 1.247 . S
O100 Co98 2.091 . S
O100 C106 1.261 . S
C101 O110 1.247 . S
C101 O111 1.272 1_655 S
O102 Co98 2.004 . S
O102 C107 1.259 . S
Co103 O104 2.061 . S
Co103 O109 2.052 . S
Co103 O111 2.135 . S
O104 Co103 2.061 . S
O104 C107 1.235 . S
C105 O108 1.238 . S
C105 O109 1.241 . S
C106 O99 1.247 . S
C106 O100 1.261 . S
C107 O102 1.259 . S
C107 O104 1.235 . S
O108 Co98 2.021 . S
O108 C105 1.238 . S
O109 Co103 2.052 . S
O109 C105 1.241 . S
O110 Co98 2.137 1_655 S
O110 C101 1.247 . S
O111 Co98 2.244 . S
O111 C101 1.272 1_455 S
O111 Co103 2.135 . S
Co112 O113 2.216 . S
Co112 O114 2.091 . S
Co112 O116 2.004 . S
Co112 O122 2.021 . S
Co112 O124 2.137 . S
Co112 O125 2.244 . S
O113 Co112 2.216 . S
O113 C120 1.247 . S
O114 Co112 2.091 . S
O114 C120 1.261 . S
C115 O124 1.247 . S
C115 O125 1.272 . S
O116 Co112 2.004 . S
O116 C121 1.259 . S
Co117 O118 2.061 . S
Co117 O123 2.052 . S
Co117 O125 2.135 . S
O118 Co117 2.061 . S
O118 C121 1.235 . S
C119 O122 1.238 . S
C119 O123 1.241 . S
C120 O113 1.247 . S
C120 O114 1.261 . S
C121 O116 1.259 . S
C121 O118 1.235 . S
O122 Co112 2.021 . S
O122 C119 1.238 . S
O123 Co117 2.052 . S
O123 C119 1.241 . S
O124 Co112 2.137 . S
O124 C115 1.247 . S
O125 Co112 2.244 . S
O125 C115 1.272 . S
O125 Co117 2.135 . S
Co126 O127 2.216 . S
Co126 O128 2.091 . S
Co126 O130 2.004 . S
Co126 O136 2.021 . S
Co126 O138 2.137 1_655 S
Co126 O139 2.244 . S
O127 Co126 2.216 . S
O127 C134 1.247 . S
O128 Co126 2.091 . S
O128 C134 1.261 . S
C129 O138 1.247 . S
C129 O139 1.272 1_455 S
O130 Co126 2.004 . S
O130 C135 1.259 . S
Co131 O132 2.061 . S
Co131 O137 2.052 . S
Co131 O139 2.135 . S
O132 Co131 2.061 . S
O132 C135 1.235 . S
C133 O136 1.238 . S
C133 O137 1.241 . S
C134 O127 1.247 . S
C134 O128 1.261 . S
C135 O130 1.259 . S
C135 O132 1.235 . S
O136 Co126 2.021 . S
O136 C133 1.238 . S
O137 Co131 2.052 . S
O137 C133 1.241 . S
O138 Co126 2.137 1_455 S
O138 C129 1.247 . S
O139 Co126 2.244 . S
O139 C129 1.272 1_655 S
O139 Co131 2.135 . S
Co140 O141 2.216 . S
Co140 O142 2.091 . S
Co140 O144 2.004 . S
Co140 O150 2.021 . S
Co140 O152 2.137 . S
Co140 O153 2.244 . S
O141 Co140 2.216 . S
O141 C148 1.247 . S
O142 Co140 2.091 . S
O142 C148 1.261 . S
C143 O152 1.247 . S
C143 O153 1.272 . S
O144 Co140 2.004 . S
O144 C149 1.259 . S
Co145 O146 2.061 . S
Co145 O151 2.052 . S
Co145 O153 2.135 . S
O146 Co145 2.061 . S
O146 C149 1.235 . S
C147 O150 1.238 . S
C147 O151 1.241 . S
C148 O141 1.247 . S
C148 O142 1.261 . S
C149 O144 1.259 . S
C149 O146 1.235 . S
O150 Co140 2.021 . S
O150 C147 1.238 . S
O151 Co145 2.052 . S
O151 C147 1.241 . S
O152 Co140 2.137 . S
O152 C143 1.247 . S
O153 Co140 2.244 . S
O153 C143 1.272 . S
O153 Co145 2.135 . S
Co154 O155 2.216 . S
Co154 O156 2.091 . S
Co154 O158 2.004 . S
Co154 O164 2.021 . S
Co154 O166 2.137 1_545 S
Co154 O167 2.244 . S
O155 Co154 2.216 . S
O155 C162 1.247 . S
O156 Co154 2.091 . S
O156 C162 1.261 . S
C157 O166 1.247 . S
C157 O167 1.272 1_565 S
O158 Co154 2.004 . S
O158 C163 1.259 . S
Co159 O160 2.061 . S
Co159 O165 2.052 . S
Co159 O167 2.135 . S
O160 Co159 2.061 . S
O160 C163 1.235 . S
C161 O164 1.238 . S
C161 O165 1.241 . S
C162 O155 1.247 . S
C162 O156 1.261 . S
C163 O158 1.259 . S
C163 O160 1.235 . S
O164 Co154 2.021 . S
O164 C161 1.238 . S
O165 Co159 2.052 . S
O165 C161 1.241 . S
O166 Co154 2.137 1_565 S
O166 C157 1.247 . S
O167 Co154 2.244 . S
O167 C157 1.272 1_545 S
O167 Co159 2.135 . S
Co168 O169 2.216 . S
Co168 O170 2.091 . S
Co168 O172 2.004 . S
Co168 O178 2.021 . S
Co168 O180 2.137 . S
Co168 O181 2.244 . S
O169 Co168 2.216 . S
O169 C176 1.247 . S
O170 Co168 2.091 . S
O170 C176 1.261 . S
C171 O180 1.247 . S
C171 O181 1.272 . S
O172 Co168 2.004 . S
O172 C177 1.259 . S
Co173 O174 2.061 . S
Co173 O179 2.052 . S
Co173 O181 2.135 . S
O174 Co173 2.061 . S
O174 C177 1.235 . S
C175 O178 1.238 . S
C175 O179 1.241 . S
C176 O169 1.247 . S
C176 O170 1.261 . S
C177 O172 1.259 . S
C177 O174 1.235 . S
O178 Co168 2.021 . S
O178 C175 1.238 . S
O179 Co173 2.052 . S
O179 C175 1.241 . S
O180 Co168 2.137 . S
O180 C171 1.247 . S
O181 Co168 2.244 . S
O181 C171 1.272 . S
O181 Co173 2.135 . S
Co182 O183 2.216 . S
Co182 O184 2.091 . S
Co182 O186 2.004 . S
Co182 O192 2.021 . S
Co182 O194 2.137 . S
Co182 O195 2.244 . S
O183 Co182 2.216 . S
O183 C190 1.247 . S
O184 Co182 2.091 . S
O184 C190 1.261 . S
C185 O194 1.247 . S
C185 O195 1.272 . S
O186 Co182 2.004 . S
O186 C191 1.259 . S
Co187 O188 2.061 . S
Co187 O193 2.052 . S
Co187 O195 2.135 . S
O188 Co187 2.061 . S
O188 C191 1.235 . S
C189 O192 1.238 . S
C189 O193 1.241 . S
C190 O183 1.247 . S
C190 O184 1.261 . S
C191 O186 1.259 . S
C191 O188 1.235 . S
O192 Co182 2.021 . S
O192 C189 1.238 . S
O193 Co187 2.052 . S
O193 C189 1.241 . S
O194 Co182 2.137 . S
O194 C185 1.247 . S
O195 Co182 2.244 . S
O195 C185 1.272 . S
O195 Co187 2.135 . S
Co196 O197 2.216 . S
Co196 O198 2.091 . S
Co196 O200 2.004 . S
Co196 O206 2.021 . S
Co196 O208 2.137 . S
Co196 O209 2.244 . S
O197 Co196 2.216 . S
O197 C204 1.247 . S
O198 Co196 2.091 . S
O198 C204 1.261 . S
C199 O208 1.247 . S
C199 O209 1.272 . S
O200 Co196 2.004 . S
O200 C205 1.259 . S
Co201 O202 2.061 . S
Co201 O207 2.052 . S
Co201 O209 2.135 . S
O202 Co201 2.061 . S
O202 C205 1.235 . S
C203 O206 1.238 . S
C203 O207 1.241 . S
C204 O197 1.247 . S
C204 O198 1.261 . S
C205 O200 1.259 . S
C205 O202 1.235 . S
O206 Co196 2.021 . S
O206 C203 1.238 . S
O207 Co201 2.052 . S
O207 C203 1.241 . S
O208 Co196 2.137 . S
O208 C199 1.247 . S
O209 Co196 2.244 . S
O209 C199 1.272 . S
O209 Co201 2.135 . S
Co210 O211 2.216 . S
Co210 O212 2.091 . S
Co210 O214 2.004 . S
Co210 O220 2.021 . S
Co210 O222 2.137 . S
Co210 O223 2.244 . S
O211 Co210 2.216 . S
O211 C218 1.247 . S
O212 Co210 2.091 . S
O212 C218 1.261 . S
C213 O222 1.247 . S
C213 O223 1.272 . S
O214 Co210 2.004 . S
O214 C219 1.259 . S
Co215 O216 2.061 . S
Co215 O221 2.052 . S
Co215 O223 2.135 . S
O216 Co215 2.061 . S
O216 C219 1.235 . S
C217 O220 1.238 . S
C217 O221 1.241 . S
C218 O211 1.247 . S
C218 O212 1.261 . S
C219 O214 1.259 . S
C219 O216 1.235 . S
O220 Co210 2.021 . S
O220 C217 1.238 . S
O221 Co215 2.052 . S
O221 C217 1.241 . S
O222 Co210 2.137 . S
O222 C213 1.247 . S
O223 Co210 2.244 . S
O223 C213 1.272 . S
O223 Co215 2.135 . S
Co224 O225 2.216 . S
Co224 O226 2.091 . S
Co224 O228 2.004 . S
Co224 O234 2.021 . S
Co224 O236 2.137 . S
Co224 O237 2.244 . S
O225 Co224 2.216 . S
O225 C232 1.247 . S
O226 Co224 2.091 . S
O226 C232 1.261 . S
C227 O236 1.247 . S
C227 O237 1.272 . S
O228 Co224 2.004 . S
O228 C233 1.259 . S
Co229 O230 2.061 . S
Co229 O235 2.052 . S
Co229 O237 2.135 . S
O230 Co229 2.061 . S
O230 C233 1.235 . S
C231 O234 1.238 . S
C231 O235 1.241 . S
C232 O225 1.247 . S
C232 O226 1.261 . S
C233 O228 1.259 . S
C233 O230 1.235 . S
O234 Co224 2.021 . S
O234 C231 1.238 . S
O235 Co229 2.052 . S
O235 C231 1.241 . S
O236 Co224 2.137 . S
O236 C227 1.247 . S
O237 Co224 2.244 . S
O237 C227 1.272 . S
O237 Co229 2.135 . S
Co238 O239 2.216 . S
Co238 O240 2.091 . S
Co238 O242 2.004 . S
Co238 O248 2.021 . S
Co238 O250 2.137 . S
Co238 O251 2.244 . S
O239 Co238 2.216 . S
O239 C246 1.247 . S
O240 Co238 2.091 . S
O240 C246 1.261 . S
C241 O250 1.247 . S
C241 O251 1.272 . S
O242 Co238 2.004 . S
O242 C247 1.259 . S
Co243 O244 2.061 . S
Co243 O249 2.052 . S
Co243 O251 2.135 . S
O244 Co243 2.061 . S
O244 C247 1.235 . S
C245 O248 1.238 . S
C245 O249 1.241 . S
C246 O239 1.247 . S
C246 O240 1.261 . S
C247 O242 1.259 . S
C247 O244 1.235 . S
O248 Co238 2.021 . S
O248 C245 1.238 . S
O249 Co243 2.052 . S
O249 C245 1.241 . S
O250 Co238 2.137 . S
O250 C241 1.247 . S
O251 Co238 2.244 . S
O251 C241 1.272 . S
O251 Co243 2.135 . S
Co252 O253 2.216 . S
Co252 O254 2.091 . S
Co252 O256 2.004 . S
Co252 O262 2.021 . S
Co252 O264 2.137 . S
Co252 O265 2.244 . S
O253 Co252 2.216 . S
O253 C260 1.247 . S
O254 Co252 2.091 . S
O254 C260 1.261 . S
C255 O264 1.247 . S
C255 O265 1.272 . S
O256 Co252 2.004 . S
O256 C261 1.259 . S
Co257 O258 2.061 . S
Co257 O263 2.052 . S
Co257 O265 2.135 . S
O258 Co257 2.061 . S
O258 C261 1.235 . S
C259 O262 1.238 . S
C259 O263 1.241 . S
C260 O253 1.247 . S
C260 O254 1.261 . S
C261 O256 1.259 . S
C261 O258 1.235 . S
O262 Co252 2.021 . S
O262 C259 1.238 . S
O263 Co257 2.052 . S
O263 C259 1.241 . S
O264 Co252 2.137 . S
O264 C255 1.247 . S
O265 Co252 2.244 . S
O265 C255 1.272 . S
O265 Co257 2.135 . S
Co266 O267 2.216 . S
Co266 O268 2.091 . S
Co266 O270 2.004 . S
Co266 O276 2.021 . S
Co266 O278 2.137 . S
Co266 O279 2.244 . S
O267 Co266 2.216 . S
O267 C274 1.247 . S
O268 Co266 2.091 . S
O268 C274 1.261 . S
C269 O278 1.247 . S
C269 O279 1.272 . S
O270 Co266 2.004 . S
O270 C275 1.259 . S
Co271 O272 2.061 . S
Co271 O277 2.052 . S
Co271 O279 2.135 . S
O272 Co271 2.061 . S
O272 C275 1.235 . S
C273 O276 1.238 . S
C273 O277 1.241 . S
C274 O267 1.247 . S
C274 O268 1.261 . S
C275 O270 1.259 . S
C275 O272 1.235 . S
O276 Co266 2.021 . S
O276 C273 1.238 . S
O277 Co271 2.052 . S
O277 C273 1.241 . S
O278 Co266 2.137 . S
O278 C269 1.247 . S
O279 Co266 2.244 . S
O279 C269 1.272 . S
O279 Co271 2.135 . S
Co280 O281 2.216 . S
Co280 O282 2.091 . S
Co280 O284 2.004 . S
Co280 O290 2.021 . S
Co280 O292 2.137 . S
Co280 O293 2.244 . S
O281 Co280 2.216 . S
O281 C288 1.247 . S
O282 Co280 2.091 . S
O282 C288 1.261 . S
C283 O292 1.247 . S
C283 O293 1.272 . S
O284 Co280 2.004 . S
O284 C289 1.259 . S
Co285 O286 2.061 . S
Co285 O291 2.052 . S
Co285 O293 2.135 . S
O286 Co285 2.061 . S
O286 C289 1.235 . S
C287 O290 1.238 . S
C287 O291 1.241 . S
C288 O281 1.247 . S
C288 O282 1.261 . S
C289 O284 1.259 . S
C289 O286 1.235 . S
O290 Co280 2.021 . S
O290 C287 1.238 . S
O291 Co285 2.052 . S
O291 C287 1.241 . S
O292 Co280 2.137 . S
O292 C283 1.247 . S
O293 Co280 2.244 . S
O293 C283 1.272 . S
O293 Co285 2.135 . S
Co294 O295 2.216 . S
Co294 O296 2.091 . S
Co294 O298 2.004 . S
Co294 O304 2.021 . S
Co294 O306 2.137 . S
Co294 O307 2.244 . S
O295 Co294 2.216 . S
O295 C302 1.247 . S
O296 Co294 2.091 . S
O296 C302 1.261 . S
C297 O306 1.247 . S
C297 O307 1.272 . S
O298 Co294 2.004 . S
O298 C303 1.259 . S
Co299 O300 2.061 . S
Co299 O305 2.052 . S
Co299 O307 2.135 . S
O300 Co299 2.061 . S
O300 C303 1.235 . S
C301 O304 1.238 . S
C301 O305 1.241 . S
C302 O295 1.247 . S
C302 O296 1.261 . S
C303 O298 1.259 . S
C303 O300 1.235 . S
O304 Co294 2.021 . S
O304 C301 1.238 . S
O305 Co299 2.052 . S
O305 C301 1.241 . S
O306 Co294 2.137 . S
O306 C297 1.247 . S
O307 Co294 2.244 . S
O307 C297 1.272 . S
O307 Co299 2.135 . S
Co308 O309 2.216 . S
Co308 O310 2.091 . S
Co308 O312 2.004 . S
Co308 O318 2.021 . S
Co308 O320 2.137 . S
Co308 O321 2.244 . S
O309 Co308 2.216 . S
O309 C316 1.247 . S
O310 Co308 2.091 . S
O310 C316 1.261 . S
C311 O320 1.247 . S
C311 O321 1.272 . S
O312 Co308 2.004 . S
O312 C317 1.259 . S
Co313 O314 2.061 . S
Co313 O319 2.052 . S
Co313 O321 2.135 . S
O314 Co313 2.061 . S
O314 C317 1.235 . S
C315 O318 1.238 . S
C315 O319 1.241 . S
C316 O309 1.247 . S
C316 O310 1.261 . S
C317 O312 1.259 . S
C317 O314 1.235 . S
O318 Co308 2.021 . S
O318 C315 1.238 . S
O319 Co313 2.052 . S
O319 C315 1.241 . S
O320 Co308 2.137 . S
O320 C311 1.247 . S
O321 Co308 2.244 . S
O321 C311 1.272 . S
O321 Co313 2.135 . S
Co322 O323 2.216 . S
Co322 O324 2.091 . S
Co322 O326 2.004 . S
Co322 O332 2.021 . S
Co322 O334 2.137 . S
Co322 O335 2.244 . S
O323 Co322 2.216 . S
O323 C330 1.247 . S
O324 Co322 2.091 . S
O324 C330 1.261 . S
C325 O334 1.247 . S
C325 O335 1.272 . S
O326 Co322 2.004 . S
O326 C331 1.259 . S
Co327 O328 2.061 . S
Co327 O333 2.052 . S
Co327 O335 2.135 . S
O328 Co327 2.061 . S
O328 C331 1.235 . S
C329 O332 1.238 . S
C329 O333 1.241 . S
C330 O323 1.247 . S
C330 O324 1.261 . S
C331 O326 1.259 . S
C331 O328 1.235 . S
O332 Co322 2.021 . S
O332 C329 1.238 . S
O333 Co327 2.052 . S
O333 C329 1.241 . S
O334 Co322 2.137 . S
O334 C325 1.247 . S
O335 Co322 2.244 . S
O335 C325 1.272 . S
O335 Co327 2.135 . S
Co336 O337 2.216 . S
Co336 O338 2.091 . S
Co336 O340 2.004 . S
Co336 O346 2.021 . S
Co336 O348 2.137 . S
Co336 O349 2.244 . S
O337 Co336 2.216 . S
O337 C344 1.247 . S
O338 Co336 2.091 . S
O338 C344 1.261 . S
C339 O348 1.247 . S
C339 O349 1.272 . S
O340 Co336 2.004 . S
O340 C345 1.259 . S
Co341 O342 2.061 . S
Co341 O347 2.052 . S
Co341 O349 2.135 . S
O342 Co341 2.061 . S
O342 C345 1.235 . S
C343 O346 1.238 . S
C343 O347 1.241 . S
C344 O337 1.247 . S
C344 O338 1.261 . S
C345 O340 1.259 . S
C345 O342 1.235 . S
O346 Co336 2.021 . S
O346 C343 1.238 . S
O347 Co341 2.052 . S
O347 C343 1.241 . S
O348 Co336 2.137 . S
O348 C339 1.247 . S
O349 Co336 2.244 . S
O349 C339 1.272 . S
O349 Co341 2.135 . S
Co350 O351 2.216 . S
Co350 O352 2.091 . S
Co350 O354 2.004 . S
Co350 O360 2.021 . S
Co350 O362 2.137 . S
Co350 O363 2.244 . S
O351 Co350 2.216 . S
O351 C358 1.247 . S
O352 Co350 2.091 . S
O352 C358 1.261 . S
C353 O362 1.247 . S
C353 O363 1.272 . S
O354 Co350 2.004 . S
O354 C359 1.259 . S
Co355 O356 2.061 . S
Co355 O361 2.052 . S
Co355 O363 2.135 . S
O356 Co355 2.061 . S
O356 C359 1.235 . S
C357 O360 1.238 . S
C357 O361 1.241 . S
C358 O351 1.247 . S
C358 O352 1.261 . S
C359 O354 1.259 . S
C359 O356 1.235 . S
O360 Co350 2.021 . S
O360 C357 1.238 . S
O361 Co355 2.052 . S
O361 C357 1.241 . S
O362 Co350 2.137 . S
O362 C353 1.247 . S
O363 Co350 2.244 . S
O363 C353 1.272 . S
O363 Co355 2.135 . S
Co364 O365 2.216 . S
Co364 O366 2.091 . S
Co364 O368 2.004 . S
Co364 O374 2.021 . S
Co364 O376 2.137 . S
Co364 O377 2.244 . S
O365 Co364 2.216 . S
O365 C372 1.247 . S
O366 Co364 2.091 . S
O366 C372 1.261 . S
C367 O376 1.247 . S
C367 O377 1.272 . S
O368 Co364 2.004 . S
O368 C373 1.259 . S
Co369 O370 2.061 . S
Co369 O375 2.052 . S
Co369 O377 2.135 . S
O370 Co369 2.061 . S
O370 C373 1.235 . S
C371 O374 1.238 . S
C371 O375 1.241 . S
C372 O365 1.247 . S
C372 O366 1.261 . S
C373 O368 1.259 . S
C373 O370 1.235 . S
O374 Co364 2.021 . S
O374 C371 1.238 . S
O375 Co369 2.052 . S
O375 C371 1.241 . S
O376 Co364 2.137 . S
O376 C367 1.247 . S
O377 Co364 2.244 . S
O377 C367 1.272 . S
O377 Co369 2.135 . S
Co378 O379 2.216 . S
Co378 O380 2.091 . S
Co378 O382 2.004 . S
Co378 O388 2.021 . S
Co378 O390 2.137 . S
Co378 O391 2.244 . S
O379 Co378 2.216 . S
O379 C386 1.247 . S
O380 Co378 2.091 . S
O380 C386 1.261 . S
C381 O390 1.247 . S
C381 O391 1.272 . S
O382 Co378 2.004 . S
O382 C387 1.259 . S
Co383 O384 2.061 . S
Co383 O389 2.052 . S
Co383 O391 2.135 . S
O384 Co383 2.061 . S
O384 C387 1.235 . S
C385 O388 1.238 . S
C385 O389 1.241 . S
C386 O379 1.247 . S
C386 O380 1.261 . S
C387 O382 1.259 . S
C387 O384 1.235 . S
O388 Co378 2.021 . S
O388 C385 1.238 . S
O389 Co383 2.052 . S
O389 C385 1.241 . S
O390 Co378 2.137 . S
O390 C381 1.247 . S
O391 Co378 2.244 . S
O391 C381 1.272 . S
O391 Co383 2.135 . S
Co392 O393 2.216 . S
Co392 O394 2.091 . S
Co392 O396 2.004 . S
Co392 O402 2.021 . S
Co392 O404 2.137 . S
Co392 O405 2.244 . S
O393 Co392 2.216 . S
O393 C400 1.247 . S
O394 Co392 2.091 . S
O394 C400 1.261 . S
C395 O404 1.247 . S
C395 O405 1.272 . S
O396 Co392 2.004 . S
O396 C401 1.259 . S
Co397 O398 2.061 . S
Co397 O403 2.052 . S
Co397 O405 2.135 . S
O398 Co397 2.061 . S
O398 C401 1.235 . S
C399 O402 1.238 . S
C399 O403 1.241 . S
C400 O393 1.247 . S
C400 O394 1.261 . S
C401 O396 1.259 . S
C401 O398 1.235 . S
O402 Co392 2.021 . S
O402 C399 1.238 . S
O403 Co397 2.052 . S
O403 C399 1.241 . S
O404 Co392 2.137 . S
O404 C395 1.247 . S
O405 Co392 2.244 . S
O405 C395 1.272 . S
O405 Co397 2.135 . S
Co406 O407 2.216 . S
Co406 O408 2.091 . S
Co406 O410 2.004 . S
Co406 O416 2.021 . S
Co406 O418 2.137 . S
Co406 O419 2.244 . S
O407 Co406 2.216 . S
O407 C414 1.247 . S
O408 Co406 2.091 . S
O408 C414 1.261 . S
C409 O418 1.247 . S
C409 O419 1.272 . S
O410 Co406 2.004 . S
O410 C415 1.259 . S
Co411 O412 2.061 . S
Co411 O417 2.052 . S
Co411 O419 2.135 . S
O412 Co411 2.061 . S
O412 C415 1.235 . S
C413 O416 1.238 . S
C413 O417 1.241 . S
C414 O407 1.247 . S
C414 O408 1.261 . S
C415 O410 1.259 . S
C415 O412 1.235 . S
O416 Co406 2.021 . S
O416 C413 1.238 . S
O417 Co411 2.052 . S
O417 C413 1.241 . S
O418 Co406 2.137 . S
O418 C409 1.247 . S
O419 Co406 2.244 . S
O419 C409 1.272 . S
O419 Co411 2.135 . S
Co420 O421 2.216 . S
Co420 O422 2.091 . S
Co420 O424 2.004 . S
Co420 O430 2.021 . S
Co420 O432 2.137 . S
Co420 O433 2.244 . S
O421 Co420 2.216 . S
O421 C428 1.247 . S
O422 Co420 2.091 . S
O422 C428 1.261 . S
C423 O432 1.247 . S
C423 O433 1.272 . S
O424 Co420 2.004 . S
O424 C429 1.259 . S
Co425 O426 2.061 . S
Co425 O431 2.052 . S
Co425 O433 2.135 . S
O426 Co425 2.061 . S
O426 C429 1.235 . S
C427 O430 1.238 . S
C427 O431 1.241 . S
C428 O421 1.247 . S
C428 O422 1.261 . S
C429 O424 1.259 . S
C429 O426 1.235 . S
O430 Co420 2.021 . S
O430 C427 1.238 . S
O431 Co425 2.052 . S
O431 C427 1.241 . S
O432 Co420 2.137 . S
O432 C423 1.247 . S
O433 Co420 2.244 . S
O433 C423 1.272 . S
O433 Co425 2.135 . S
Co434 O435 2.216 . S
Co434 O436 2.091 . S
Co434 O438 2.004 . S
Co434 O444 2.021 . S
Co434 O446 2.137 . S
Co434 O447 2.244 . S
O435 Co434 2.216 . S
O435 C442 1.247 . S
O436 Co434 2.091 . S
O436 C442 1.261 . S
C437 O446 1.247 . S
C437 O447 1.272 . S
O438 Co434 2.004 . S
O438 C443 1.259 . S
Co439 O440 2.061 . S
Co439 O445 2.052 . S
Co439 O447 2.135 . S
O440 Co439 2.061 . S
O440 C443 1.235 . S
C441 O444 1.238 . S
C441 O445 1.241 . S
C442 O435 1.247 . S
C442 O436 1.261 . S
C443 O438 1.259 . S
C443 O440 1.235 . S
O444 Co434 2.021 . S
O444 C441 1.238 . S
O445 Co439 2.052 . S
O445 C441 1.241 . S
O446 Co434 2.137 . S
O446 C437 1.247 . S
O447 Co434 2.244 . S
O447 C437 1.272 . S
O447 Co439 2.135 . S
Co448 O449 2.216 . S
Co448 O450 2.091 . S
Co448 O452 2.004 . S
Co448 O458 2.021 . S
Co448 O460 2.137 . S
Co448 O461 2.244 . S
O449 Co448 2.216 . S
O449 C456 1.247 . S
O450 Co448 2.091 . S
O450 C456 1.261 . S
C451 O460 1.247 . S
C451 O461 1.272 . S
O452 Co448 2.004 . S
O452 C457 1.259 . S
Co453 O454 2.061 . S
Co453 O459 2.052 . S
Co453 O461 2.135 . S
O454 Co453 2.061 . S
O454 C457 1.235 . S
C455 O458 1.238 . S
C455 O459 1.241 . S
C456 O449 1.247 . S
C456 O450 1.261 . S
C457 O452 1.259 . S
C457 O454 1.235 . S
O458 Co448 2.021 . S
O458 C455 1.238 . S
O459 Co453 2.052 . S
O459 C455 1.241 . S
O460 Co448 2.137 . S
O460 C451 1.247 . S
O461 Co448 2.244 . S
O461 C451 1.272 . S
O461 Co453 2.135 . S
Co462 O463 2.216 . S
Co462 O464 2.091 . S
Co462 O466 2.004 . S
Co462 O472 2.021 . S
Co462 O474 2.137 . S
Co462 O475 2.244 . S
O463 Co462 2.216 . S
O463 C470 1.247 . S
O464 Co462 2.091 . S
O464 C470 1.261 . S
C465 O474 1.247 . S
C465 O475 1.272 . S
O466 Co462 2.004 . S
O466 C471 1.259 . S
Co467 O468 2.061 . S
Co467 O473 2.052 . S
Co467 O475 2.135 . S
O468 Co467 2.061 . S
O468 C471 1.235 . S
C469 O472 1.238 . S
C469 O473 1.241 . S
C470 O463 1.247 . S
C470 O464 1.261 . S
C471 O466 1.259 . S
C471 O468 1.235 . S
O472 Co462 2.021 . S
O472 C469 1.238 . S
O473 Co467 2.052 . S
O473 C469 1.241 . S
O474 Co462 2.137 . S
O474 C465 1.247 . S
O475 Co462 2.244 . S
O475 C465 1.272 . S
O475 Co467 2.135 . S
Co476 O477 2.216 . S
Co476 O478 2.091 . S
Co476 O480 2.004 . S
Co476 O486 2.021 . S
Co476 O488 2.137 . S
Co476 O489 2.244 . S
O477 Co476 2.216 . S
O477 C484 1.247 . S
O478 Co476 2.091 . S
O478 C484 1.261 . S
C479 O488 1.247 . S
C479 O489 1.272 . S
O480 Co476 2.004 . S
O480 C485 1.259 . S
Co481 O482 2.061 . S
Co481 O487 2.052 . S
Co481 O489 2.135 . S
O482 Co481 2.061 . S
O482 C485 1.235 . S
C483 O486 1.238 . S
C483 O487 1.241 . S
C484 O477 1.247 . S
C484 O478 1.261 . S
C485 O480 1.259 . S
C485 O482 1.235 . S
O486 Co476 2.021 . S
O486 C483 1.238 . S
O487 Co481 2.052 . S
O487 C483 1.241 . S
O488 Co476 2.137 . S
O488 C479 1.247 . S
O489 Co476 2.244 . S
O489 C479 1.272 . S
O489 Co481 2.135 . S
Co490 O491 2.216 . S
Co490 O492 2.091 . S
Co490 O494 2.004 . S
Co490 O500 2.021 . S
Co490 O502 2.137 . S
Co490 O503 2.244 . S
O491 Co490 2.216 . S
O491 C498 1.247 . S
O492 Co490 2.091 . S
O492 C498 1.261 . S
C493 O502 1.247 . S
C493 O503 1.272 . S
O494 Co490 2.004 . S
O494 C499 1.259 . S
Co495 O496 2.061 . S
Co495 O501 2.052 . S
Co495 O503 2.135 . S
O496 Co495 2.061 . S
O496 C499 1.235 . S
C497 O500 1.238 . S
C497 O501 1.241 . S
C498 O491 1.247 . S
C498 O492 1.261 . S
C499 O494 1.259 . S
C499 O496 1.235 . S
O500 Co490 2.021 . S
O500 C497 1.238 . S
O501 Co495 2.052 . S
O501 C497 1.241 . S
O502 Co490 2.137 . S
O502 C493 1.247 . S
O503 Co490 2.244 . S
O503 C493 1.272 . S
O503 Co495 2.135 . S
C504 C505 1.369 . S
C504 C506 1.419 . S
C504 H508 0.930 . S
C505 C504 1.369 . S
C505 C514 1.429 . S
C506 C504 1.419 . S
C506 C507 1.363 . S
C506 H509 0.929 . S
C507 C506 1.363 . S
C507 C513 1.428 . S
H508 C504 0.930 . S
H509 C506 0.929 . S
S510 N511 1.613 . S
S510 N512 1.610 . S
N511 S510 1.613 . S
N511 C514 1.350 . S
N512 S510 1.610 . S
N512 C513 1.351 . S
C513 C507 1.428 . S
C513 N512 1.351 . S
C513 C514 1.434 . S
C514 C505 1.429 . S
C514 N511 1.350 . S
C514 C513 1.434 . S
C515 C516 1.369 . S
C515 C517 1.419 . S
C515 H519 0.930 . S
C516 C515 1.369 . S
C516 C525 1.429 . S
C517 C515 1.419 . S
C517 C518 1.363 . S
C517 H520 0.929 . S
C518 C517 1.363 . S
C518 C524 1.428 . S
H519 C515 0.930 . S
H520 C517 0.929 . S
S521 N522 1.613 . S
S521 N523 1.610 . S
N522 S521 1.613 . S
N522 C525 1.350 . S
N523 S521 1.610 . S
N523 C524 1.351 . S
C524 C518 1.428 . S
C524 N523 1.351 . S
C524 C525 1.434 . S
C525 C516 1.429 . S
C525 N522 1.350 . S
C525 C524 1.434 . S
C526 C527 1.369 . S
C526 C528 1.419 . S
C526 H530 0.930 . S
C527 C526 1.369 . S
C527 C536 1.429 . S
C528 C526 1.419 . S
C528 C529 1.363 . S
C528 H531 0.929 . S
C529 C528 1.363 . S
C529 C535 1.428 . S
H530 C526 0.930 . S
H531 C528 0.929 . S
S532 N533 1.613 . S
S532 N534 1.610 . S
N533 S532 1.613 . S
N533 C536 1.350 . S
N534 S532 1.610 . S
N534 C535 1.351 . S
C535 C529 1.428 . S
C535 N534 1.351 . S
C535 C536 1.434 . S
C536 C527 1.429 . S
C536 N533 1.350 . S
C536 C535 1.434 . S
C537 C538 1.369 . S
C537 C539 1.419 . S
C537 H541 0.930 . S
C538 C537 1.369 . S
C538 C547 1.429 . S
C539 C537 1.419 . S
C539 C540 1.363 . S
C539 H542 0.929 . S
C540 C539 1.363 . S
C540 C546 1.428 . S
H541 C537 0.930 . S
H542 C539 0.929 . S
S543 N544 1.613 . S
S543 N545 1.610 . S
N544 S543 1.613 . S
N544 C547 1.350 . S
N545 S543 1.610 . S
N545 C546 1.351 . S
C546 C540 1.428 . S
C546 N545 1.351 . S
C546 C547 1.434 . S
C547 C538 1.429 . S
C547 N544 1.350 . S
C547 C546 1.434 . S
C548 C549 1.369 . S
C548 C550 1.419 . S
C548 H552 0.930 . S
C549 C548 1.369 . S
C549 C558 1.429 . S
C550 C548 1.419 . S
C550 C551 1.363 . S
C550 H553 0.929 . S
C551 C550 1.363 . S
C551 C557 1.428 . S
H552 C548 0.930 . S
H553 C550 0.929 . S
S554 N555 1.613 . S
S554 N556 1.610 . S
N555 S554 1.613 . S
N555 C558 1.350 . S
N556 S554 1.610 . S
N556 C557 1.351 . S
C557 C551 1.428 . S
C557 N556 1.351 . S
C557 C558 1.434 . S
C558 C549 1.429 . S
C558 N555 1.350 . S
C558 C557 1.434 . S
C559 C560 1.369 . S
C559 C561 1.419 . S
C559 H563 0.930 . S
C560 C559 1.369 . S
C560 C569 1.429 . S
C561 C559 1.419 . S
C561 C562 1.363 . S
C561 H564 0.929 . S
C562 C561 1.363 . S
C562 C568 1.428 . S
H563 C559 0.930 . S
H564 C561 0.929 . S
S565 N566 1.613 . S
S565 N567 1.610 . S
N566 S565 1.613 . S
N566 C569 1.350 . S
N567 S565 1.610 . S
N567 C568 1.351 . S
C568 C562 1.428 . S
C568 N567 1.351 . S
C568 C569 1.434 . S
C569 C560 1.429 . S
C569 N566 1.350 . S
C569 C568 1.434 . S
C570 C571 1.369 . S
C570 C572 1.419 . S
C570 H574 0.930 . S
C571 C570 1.369 . S
C571 C580 1.429 . S
C572 C570 1.419 . S
C572 C573 1.363 . S
C572 H575 0.929 . S
C573 C572 1.363 . S
C573 C579 1.428 . S
H574 C570 0.930 . S
H575 C572 0.929 . S
S576 N577 1.613 . S
S576 N578 1.610 . S
N577 S576 1.613 . S
N577 C580 1.350 . S
N578 S576 1.610 . S
N578 C579 1.351 . S
C579 C573 1.428 . S
C579 N578 1.351 . S
C579 C580 1.434 . S
C580 C571 1.429 . S
C580 N577 1.350 . S
C580 C579 1.434 . S
C581 C582 1.369 . S
C581 C583 1.419 . S
C581 H585 0.930 . S
C582 C581 1.369 . S
C582 C591 1.429 . S
C583 C581 1.419 . S
C583 C584 1.363 . S
C583 H586 0.929 . S
C584 C583 1.363 . S
C584 C590 1.428 . S
H585 C581 0.930 . S
H586 C583 0.929 . S
S587 N588 1.613 . S
S587 N589 1.610 . S
N588 S587 1.613 . S
N588 C591 1.350 . S
N589 S587 1.610 . S
N589 C590 1.351 . S
C590 C584 1.428 . S
C590 N589 1.351 . S
C590 C591 1.434 . S
C591 C582 1.429 . S
C591 N588 1.350 . S
C591 C590 1.434 . S
C592 C593 1.369 . S
C592 C594 1.419 . S
C592 H596 0.930 . S
C593 C592 1.369 . S
C593 C602 1.429 . S
C594 C592 1.419 . S
C594 C595 1.363 . S
C594 H597 0.929 . S
C595 C594 1.363 . S
C595 C601 1.428 . S
H596 C592 0.930 . S
H597 C594 0.929 . S
S598 N599 1.613 . S
S598 N600 1.610 . S
N599 S598 1.613 . S
N599 C602 1.350 . S
N600 S598 1.610 . S
N600 C601 1.351 . S
C601 C595 1.428 . S
C601 N600 1.351 . S
C601 C602 1.434 . S
C602 C593 1.429 . S
C602 N599 1.350 . S
C602 C601 1.434 . S
C603 C604 1.369 . S
C603 C605 1.419 . S
C603 H607 0.930 . S
C604 C603 1.369 . S
C604 C613 1.429 . S
C605 C603 1.419 . S
C605 C606 1.363 . S
C605 H608 0.929 . S
C606 C605 1.363 . S
C606 C612 1.428 . S
H607 C603 0.930 . S
H608 C605 0.929 . S
S609 N610 1.613 . S
S609 N611 1.610 . S
N610 S609 1.613 . S
N610 C613 1.350 . S
N611 S609 1.610 . S
N611 C612 1.351 . S
C612 C606 1.428 . S
C612 N611 1.351 . S
C612 C613 1.434 . S
C613 C604 1.429 . S
C613 N610 1.350 . S
C613 C612 1.434 . S
C614 C615 1.369 . S
C614 C616 1.419 . S
C614 H618 0.930 . S
C615 C614 1.369 . S
C615 C624 1.429 . S
C616 C614 1.419 . S
C616 C617 1.363 . S
C616 H619 0.929 . S
C617 C616 1.363 . S
C617 C623 1.428 . S
H618 C614 0.930 . S
H619 C616 0.929 . S
S620 N621 1.613 . S
S620 N622 1.610 . S
N621 S620 1.613 . S
N621 C624 1.350 . S
N622 S620 1.610 . S
N622 C623 1.351 . S
C623 C617 1.428 . S
C623 N622 1.351 . S
C623 C624 1.434 . S
C624 C615 1.429 . S
C624 N621 1.350 . S
C624 C623 1.434 . S
C625 C626 1.369 . S
C625 C627 1.419 . S
C625 H629 0.930 . S
C626 C625 1.369 . S
C626 C635 1.429 . S
C627 C625 1.419 . S
C627 C628 1.363 . S
C627 H630 0.929 . S
C628 C627 1.363 . S
C628 C634 1.428 . S
H629 C625 0.930 . S
H630 C627 0.929 . S
S631 N632 1.613 . S
S631 N633 1.610 . S
N632 S631 1.613 . S
N632 C635 1.350 . S
N633 S631 1.610 . S
N633 C634 1.351 . S
C634 C628 1.428 . S
C634 N633 1.351 . S
C634 C635 1.434 . S
C635 C626 1.429 . S
C635 N632 1.350 . S
C635 C634 1.434 . S
C636 C637 1.369 . S
C636 C638 1.419 . S
C636 H640 0.930 . S
C637 C636 1.369 . S
C637 C646 1.429 1_455 S
C638 C636 1.419 . S
C638 C639 1.363 1_455 S
C638 H641 0.929 . S
C639 C638 1.363 1_655 S
C639 C645 1.428 . S
H640 C636 0.930 . S
H641 C638 0.929 . S
S642 N643 1.613 . S
S642 N644 1.610 . S
N643 S642 1.613 . S
N643 C646 1.350 . S
N644 S642 1.610 . S
N644 C645 1.351 . S
C645 C639 1.428 . S
C645 N644 1.351 . S
C645 C646 1.434 . S
C646 C637 1.429 1_655 S
C646 N643 1.350 . S
C646 C645 1.434 . S
C647 C648 1.369 . S
C647 C649 1.419 . S
C647 H651 0.930 . S
C648 C647 1.369 . S
C648 C657 1.429 . S
C649 C647 1.419 . S
C649 C650 1.363 . S
C649 H652 0.929 . S
C650 C649 1.363 . S
C650 C656 1.428 . S
H651 C647 0.930 . S
H652 C649 0.929 . S
S653 N654 1.613 . S
S653 N655 1.610 . S
N654 S653 1.613 . S
N654 C657 1.350 . S
N655 S653 1.610 . S
N655 C656 1.351 . S
C656 C650 1.428 . S
C656 N655 1.351 . S
C656 C657 1.434 . S
C657 C648 1.429 . S
C657 N654 1.350 . S
C657 C656 1.434 . S
C658 C659 1.369 1_565 S
C658 C660 1.419 . S
C658 H662 0.930 . S
C659 C658 1.369 1_545 S
C659 C668 1.429 . S
C660 C658 1.419 . S
C660 C661 1.363 . S
C660 H663 0.929 . S
C661 C660 1.363 . S
C661 C667 1.428 1_565 S
H662 C658 0.930 . S
H663 C660 0.929 . S
S664 N665 1.613 . S
S664 N666 1.610 . S
N665 S664 1.613 . S
N665 C668 1.350 . S
N666 S664 1.610 . S
N666 C667 1.351 . S
C667 C661 1.428 1_545 S
C667 N666 1.351 . S
C667 C668 1.434 . S
C668 C659 1.429 . S
C668 N665 1.350 . S
C668 C667 1.434 . S
C669 C670 1.369 . S
C669 C671 1.419 1_554 S
C669 H673 0.930 . S
C670 C669 1.369 . S
C670 C679 1.429 1_565 S
C671 C669 1.419 1_556 S
C671 C672 1.363 1_565 S
C671 H674 0.929 . S
C672 C671 1.363 1_545 S
C672 C678 1.428 . S
H673 C669 0.930 . S
H674 C671 0.929 . S
S675 N676 1.613 1_556 S
S675 N677 1.610 . S
N676 S675 1.613 1_554 S
N676 C679 1.350 . S
N677 S675 1.610 . S
N677 C678 1.351 . S
C678 C672 1.428 . S
C678 N677 1.351 . S
C678 C679 1.434 1_556 S
C679 C670 1.429 1_545 S
C679 N676 1.350 . S
C679 C678 1.434 1_554 S
C680 C681 1.369 1_455 S
C680 C682 1.419 . S
C680 H684 0.930 . S
C681 C680 1.369 1_655 S
C681 C690 1.429 1_556 S
C682 C680 1.419 . S
C682 C683 1.363 1_556 S
C682 H685 0.929 . S
C683 C682 1.363 1_554 S
C683 C689 1.428 1_455 S
H684 C680 0.930 . S
H685 C682 0.929 . S
S686 N687 1.613 . S
S686 N688 1.610 . S
N687 S686 1.613 . S
N687 C690 1.350 . S
N688 S686 1.610 . S
N688 C689 1.351 . S
C689 C683 1.428 1_655 S
C689 N688 1.351 . S
C689 C690 1.434 . S
C690 C681 1.429 1_554 S
C690 N687 1.350 . S
C690 C689 1.434 . S
C691 C692 1.369 . S
C691 C693 1.376 1_556 S
C691 H695 0.930 . S
C692 C691 1.369 . S
C692 C701 1.432 . S
C693 C691 1.376 1_554 S
C693 C694 1.407 . S
C693 H696 0.932 . S
C694 C693 1.407 . S
C694 C700 1.428 . S
H695 C691 0.930 . S
H696 C693 0.932 . S
S697 N698 1.613 . S
S697 N699 1.610 . S
N698 S697 1.613 . S
N698 C701 1.349 1_554 S
N699 S697 1.610 . S
N699 C700 1.351 . S
C700 C694 1.428 . S
C700 N699 1.351 . S
C700 C701 1.431 1_554 S
C701 C692 1.432 . S
C701 N698 1.349 1_556 S
C701 C700 1.431 1_556 S
C702 C703 1.369 1_565 S
C702 C704 1.419 . S
C702 H706 0.930 . S
C703 C702 1.369 1_545 S
C703 C712 1.429 . S
C704 C702 1.419 . S
C704 C705 1.363 . S
C704 H707 0.929 . S
C705 C704 1.363 . S
C705 C711 1.428 . S
H706 C702 0.930 . S
H707 C704 0.929 . S
S708 N709 1.613 . S
S708 N710 1.610 1_545 S
N709 S708 1.613 . S
N709 C712 1.350 . S
N710 S708 1.610 1_565 S
N710 C711 1.351 . S
C711 C705 1.428 . S
C711 N710 1.351 . S
C711 C712 1.434 1_565 S
C712 C703 1.429 . S
C712 N709 1.350 . S
C712 C711 1.434 1_545 S
C713 C714 1.369 . S
C713 C715 1.419 . S
C713 H717 0.930 . S
C714 C713 1.369 . S
C714 C723 1.429 . S
C715 C713 1.419 . S
C715 C716 1.363 1_455 S
C715 H718 0.929 1_455 S
C716 C715 1.363 1_655 S
C716 C722 1.428 1_655 S
H717 C713 0.930 . S
H718 C715 0.929 1_655 S
S719 N720 1.613 . S
S719 N721 1.610 . S
N720 S719 1.613 . S
N720 C723 1.350 . S
N721 S719 1.610 . S
N721 C722 1.351 . S
C722 C716 1.428 1_455 S
C722 N721 1.351 . S
C722 C723 1.434 . S
C723 C714 1.429 . S
C723 N720 1.350 . S
C723 C722 1.434 . S
C724 C725 1.369 . S
C724 C726 1.419 . S
C724 H728 0.930 . S
C725 C724 1.369 . S
C725 C734 1.429 . S
C726 C724 1.419 . S
C726 C727 1.363 . S
C726 H729 0.929 . S
C727 C726 1.363 . S
C727 C733 1.428 . S
H728 C724 0.930 . S
H729 C726 0.929 . S
S730 N731 1.613 . S
S730 N732 1.610 . S
N731 S730 1.613 . S
N731 C734 1.350 . S
N732 S730 1.610 . S
N732 C733 1.351 . S
C733 C727 1.428 . S
C733 N732 1.351 . S
C733 C734 1.434 . S
C734 C725 1.429 . S
C734 N731 1.350 . S
C734 C733 1.434 . S
C735 C736 1.369 . S
C735 C737 1.419 1_655 S
C735 H739 0.930 . S
C736 C735 1.369 . S
C736 C745 1.429 . S
C737 C735 1.419 1_455 S
C737 C738 1.360 . S
C737 H740 0.929 . S
C738 C737 1.360 . S
C738 C744 1.413 1_455 S
H739 C735 0.930 . S
H740 C737 0.929 . S
S741 N742 1.613 . S
S741 N743 1.610 . S
N742 S741 1.613 . S
N742 C745 1.350 . S
N743 S741 1.610 . S
N743 C744 1.351 . S
C744 C738 1.413 1_655 S
C744 N743 1.351 . S
C744 C745 1.434 . S
C745 C736 1.429 . S
C745 N742 1.350 . S
C745 C744 1.434 . S
C746 C747 1.369 . S
C746 C748 1.419 . S
C746 H750 0.930 . S
C747 C746 1.369 . S
C747 C756 1.429 . S
C748 C746 1.419 . S
C748 C749 1.363 . S
C748 H751 0.929 . S
C749 C748 1.363 . S
C749 C755 1.428 . S
H750 C746 0.930 . S
H751 C748 0.929 . S
S752 N753 1.613 . S
S752 N754 1.610 . S
N753 S752 1.613 . S
N753 C756 1.350 . S
N754 S752 1.610 . S
N754 C755 1.351 . S
C755 C749 1.428 . S
C755 N754 1.351 . S
C755 C756 1.434 . S
C756 C747 1.429 . S
C756 N753 1.350 . S
C756 C755 1.434 . S
C757 C758 1.369 . S
C757 C759 1.419 . S
C757 H761 0.930 . S
C758 C757 1.369 . S
C758 C767 1.429 . S
C759 C757 1.419 . S
C759 C760 1.362 1_545 S
C759 H762 0.929 1_545 S
C760 C759 1.362 1_565 S
C760 C766 1.429 1_565 S
H761 C757 0.930 . S
H762 C759 0.929 1_565 S
S763 N764 1.613 . S
S763 N765 1.610 . S
N764 S763 1.613 . S
N764 C767 1.350 . S
N765 S763 1.610 . S
N765 C766 1.351 . S
C766 C760 1.429 1_545 S
C766 N765 1.351 . S
C766 C767 1.434 . S
C767 C758 1.429 . S
C767 N764 1.350 . S
C767 C766 1.434 . S
C768 C769 1.369 . S
C768 C770 1.419 1_565 S
C768 H772 0.930 . S
C769 C768 1.369 . S
C769 C778 1.418 1_565 S
C770 C768 1.419 1_545 S
C770 C771 1.363 . S
C770 H773 0.929 1_545 S
C771 C770 1.363 . S
C771 C777 1.428 . S
H772 C768 0.930 . S
H773 C770 0.929 1_565 S
S774 N775 1.613 . S
S774 N776 1.610 . S
N775 S774 1.613 . S
N775 C778 1.350 . S
N776 S774 1.610 . S
N776 C777 1.351 . S
C777 C771 1.428 . S
C777 N776 1.351 . S
C777 C778 1.434 . S
C778 C769 1.418 1_545 S
C778 N775 1.350 . S
C778 C777 1.434 . S
C779 C780 1.369 . S
C779 C781 1.418 1_655 S
C779 H783 0.930 . S
C780 C779 1.369 . S
C780 C789 1.429 . S
C781 C779 1.418 1_455 S
C781 C782 1.361 . S
C781 H784 0.931 . S
C782 C781 1.361 . S
C782 C788 1.428 1_455 S
H783 C779 0.930 . S
H784 C781 0.931 . S
S785 N786 1.613 . S
S785 N787 1.610 . S
N786 S785 1.613 . S
N786 C789 1.350 . S
N787 S785 1.610 . S
N787 C788 1.351 . S
C788 C782 1.428 1_655 S
C788 N787 1.351 . S
C788 C789 1.434 . S
C789 C780 1.429 . S
C789 N786 1.350 . S
C789 C788 1.434 . S
C790 C791 1.369 . S
C790 C792 1.419 . S
C790 H794 0.930 . S
C791 C790 1.369 . S
C791 C800 1.429 . S
C792 C790 1.419 . S
C792 C793 1.363 . S
C792 H795 0.929 . S
C793 C792 1.363 . S
C793 C799 1.428 . S
H794 C790 0.930 . S
H795 C792 0.929 . S
S796 N797 1.613 . S
S796 N798 1.610 . S
N797 S796 1.613 . S
N797 C800 1.350 . S
N798 S796 1.610 . S
N798 C799 1.351 . S
C799 C793 1.428 . S
C799 N798 1.351 . S
C799 C800 1.434 . S
C800 C791 1.429 . S
C800 N797 1.350 . S
C800 C799 1.434 . S
C801 C802 1.369 1_455 S
C801 C803 1.419 . S
C801 H805 0.930 . S
C802 C801 1.369 1_655 S
C802 C811 1.429 . S
C803 C801 1.419 . S
C803 C804 1.363 . S
C803 H806 0.929 . S
C804 C803 1.363 . S
C804 C810 1.428 . S
H805 C801 0.930 . S
H806 C803 0.929 . S
S807 N808 1.613 . S
S807 N809 1.610 1_655 S
N808 S807 1.613 . S
N808 C811 1.350 . S
N809 S807 1.610 1_455 S
N809 C810 1.351 . S
C810 C804 1.428 . S
C810 N809 1.351 . S
C810 C811 1.434 1_455 S
C811 C802 1.429 . S
C811 N808 1.350 . S
C811 C810 1.434 1_655 S
C812 C813 1.369 . S
C812 C814 1.419 . S
C812 H816 0.930 . S
C813 C812 1.369 . S
C813 C822 1.429 . S
C814 C812 1.419 . S
C814 C815 1.363 . S
C814 H817 0.929 . S
C815 C814 1.363 . S
C815 C821 1.428 . S
H816 C812 0.930 . S
H817 C814 0.929 . S
S818 N819 1.613 . S
S818 N820 1.610 . S
N819 S818 1.613 . S
N819 C822 1.350 . S
N820 S818 1.610 . S
N820 C821 1.351 . S
C821 C815 1.428 . S
C821 N820 1.351 . S
C821 C822 1.434 . S
C822 C813 1.429 . S
C822 N819 1.350 . S
C822 C821 1.434 . S
C823 C824 1.379 . S
C823 C825 1.419 1_545 S
C823 H827 0.930 . S
C824 C823 1.379 . S
C824 C833 1.419 1_545 S
C825 C823 1.419 1_565 S
C825 C826 1.363 . S
C825 H828 0.929 1_565 S
C826 C825 1.363 . S
C826 C832 1.428 . S
H827 C823 0.930 . S
H828 C825 0.929 1_545 S
S829 N830 1.613 . S
S829 N831 1.610 . S
N830 S829 1.613 . S
N830 C833 1.350 . S
N831 S829 1.610 . S
N831 C832 1.351 . S
C832 C826 1.428 . S
C832 N831 1.351 . S
C832 C833 1.434 . S
C833 C824 1.419 1_565 S
C833 N830 1.350 . S
C833 C832 1.434 . S
C834 C835 1.369 . S
C834 C836 1.419 . S
C834 H838 0.930 . S
C835 C834 1.369 . S
C835 C844 1.429 . S
C836 C834 1.419 . S
C836 C837 1.363 . S
C836 H839 0.929 . S
C837 C836 1.363 . S
C837 C843 1.428 . S
H838 C834 0.930 . S
H839 C836 0.929 . S
S840 N841 1.613 . S
S840 N842 1.610 . S
N841 S840 1.613 . S
N841 C844 1.350 . S
N842 S840 1.610 . S
N842 C843 1.351 . S
C843 C837 1.428 . S
C843 N842 1.351 . S
C843 C844 1.434 . S
C844 C835 1.429 . S
C844 N841 1.350 . S
C844 C843 1.434 . S
C845 C846 1.369 . S
C845 C847 1.419 1_545 S
C845 H849 0.930 . S
C846 C845 1.369 . S
C846 C855 1.429 . S
C847 C845 1.419 1_565 S
C847 C848 1.363 . S
C847 H850 0.929 . S
C848 C847 1.363 . S
C848 C854 1.428 . S
H849 C845 0.930 . S
H850 C847 0.929 . S
S851 N852 1.613 . S
S851 N853 1.610 1_545 S
N852 S851 1.613 . S
N852 C855 1.350 . S
N853 S851 1.610 1_565 S
N853 C854 1.351 . S
C854 C848 1.428 . S
C854 N853 1.351 . S
C854 C855 1.434 1_565 S
C855 C846 1.429 . S
C855 N852 1.350 . S
C855 C854 1.434 1_545 S
C856 C857 1.369 . S
C856 C858 1.419 1_655 S
C856 H860 0.930 . S
C857 C856 1.369 . S
C857 C866 1.429 . S
C858 C856 1.419 1_455 S
C858 C859 1.363 . S
C858 H861 0.929 . S
C859 C858 1.363 . S
C859 C865 1.428 . S
H860 C856 0.930 . S
H861 C858 0.929 . S
S862 N863 1.613 . S
S862 N864 1.610 1_655 S
N863 S862 1.613 . S
N863 C866 1.350 . S
N864 S862 1.610 1_455 S
N864 C865 1.351 . S
C865 C859 1.428 . S
C865 N864 1.351 . S
C865 C866 1.434 1_455 S
C866 C857 1.429 . S
C866 N863 1.350 . S
C866 C865 1.434 1_655 S
C867 C868 1.369 . S
C867 C869 1.419 . S
C867 H871 0.930 . S
C868 C867 1.369 . S
C868 C877 1.429 . S
C869 C867 1.419 . S
C869 C870 1.363 . S
C869 H872 0.929 . S
C870 C869 1.363 . S
C870 C876 1.428 . S
H871 C867 0.930 . S
H872 C869 0.929 . S
S873 N874 1.613 . S
S873 N875 1.610 . S
N874 S873 1.613 . S
N874 C877 1.350 . S
N875 S873 1.610 . S
N875 C876 1.351 . S
C876 C870 1.428 . S
C876 N875 1.351 . S
C876 C877 1.434 . S
C877 C868 1.429 . S
C877 N874 1.350 . S
C877 C876 1.434 . S
C878 C879 1.369 . S
C878 C880 1.419 1_565 S
C878 H882 0.930 . S
C879 C878 1.369 . S
C879 C888 1.429 . S
C880 C878 1.419 1_545 S
C880 C881 1.363 . S
C880 H883 0.929 . S
C881 C880 1.363 . S
C881 C887 1.428 . S
H882 C878 0.930 . S
H883 C880 0.929 . S
S884 N885 1.613 1_545 S
S884 N886 1.610 . S
N885 S884 1.613 1_565 S
N885 C888 1.350 . S
N886 S884 1.610 . S
N886 C887 1.351 . S
C887 C881 1.428 . S
C887 N886 1.351 . S
C887 C888 1.434 1_545 S
C888 C879 1.429 . S
C888 N885 1.350 . S
C888 C887 1.434 1_565 S
C889 C890 1.369 . S
C889 C891 1.419 1_655 S
C889 H893 0.930 . S
C890 C889 1.369 . S
C890 C899 1.429 . S
C891 C889 1.419 1_455 S
C891 C892 1.363 . S
C891 H894 0.929 . S
C892 C891 1.363 . S
C892 C898 1.428 . S
H893 C889 0.930 . S
H894 C891 0.929 . S
S895 N896 1.613 1_455 S
S895 N897 1.610 . S
N896 S895 1.613 1_655 S
N896 C899 1.350 . S
N897 S895 1.610 . S
N897 C898 1.351 . S
C898 C892 1.428 . S
C898 N897 1.351 . S
C898 C899 1.434 1_455 S
C899 C890 1.429 . S
C899 N896 1.350 . S
C899 C898 1.434 1_655 S
C900 C901 1.369 . S
C900 C902 1.419 . S
C900 H904 0.930 . S
C901 C900 1.369 . S
C901 C910 1.429 . S
C902 C900 1.419 . S
C902 C903 1.363 . S
C902 H905 0.929 . S
C903 C902 1.363 . S
C903 C909 1.428 . S
H904 C900 0.930 . S
H905 C902 0.929 . S
S906 N907 1.613 . S
S906 N908 1.610 . S
N907 S906 1.613 . S
N907 C910 1.350 . S
N908 S906 1.610 . S
N908 C909 1.351 . S
C909 C903 1.428 . S
C909 N908 1.351 . S
C909 C910 1.434 . S
C910 C901 1.429 . S
C910 N907 1.350 . S
C910 C909 1.434 . S
C911 C912 1.369 1_565 S
C911 C913 1.419 . S
C911 H915 0.930 . S
C912 C911 1.369 1_545 S
C912 C921 1.429 1_545 S
C913 C911 1.419 . S
C913 C914 1.363 . S
C913 H916 0.929 . S
C914 C913 1.363 . S
C914 C920 1.428 . S
H915 C911 0.930 . S
H916 C913 0.929 . S
S917 N918 1.613 1_565 S
S917 N919 1.610 . S
N918 S917 1.613 1_545 S
N918 C921 1.350 1_545 S
N919 S917 1.610 . S
N919 C920 1.351 . S
C920 C914 1.428 . S
C920 N919 1.351 . S
C920 C921 1.434 . S
C921 C912 1.429 1_565 S
C921 N918 1.350 1_565 S
C921 C920 1.434 . S
C922 C923 1.369 1_455 S
C922 C924 1.419 . S
C922 H926 0.930 1_455 S
C923 C922 1.369 1_655 S
C923 C932 1.429 1_655 S
C924 C922 1.419 . S
C924 C925 1.363 . S
C924 H927 0.929 . S
C925 C924 1.363 . S
C925 C931 1.428 . S
H926 C922 0.930 1_655 S
H927 C924 0.929 . S
S928 N929 1.613 . S
S928 N930 1.610 . S
N929 S928 1.613 . S
N929 C932 1.350 . S
N930 S928 1.610 . S
N930 C931 1.351 . S
C931 C925 1.428 . S
C931 N930 1.351 . S
C931 C932 1.434 . S
C932 C923 1.429 1_455 S
C932 N929 1.350 . S
C932 C931 1.434 . S
C933 C934 1.369 . S
C933 C935 1.419 . S
C933 H937 0.930 . S
C934 C933 1.369 . S
C934 C943 1.429 . S
C935 C933 1.419 . S
C935 C936 1.363 . S
C935 H938 0.929 . S
C936 C935 1.363 . S
C936 C942 1.428 . S
H937 C933 0.930 . S
H938 C935 0.929 . S
S939 N940 1.613 . S
S939 N941 1.610 . S
N940 S939 1.613 . S
N940 C943 1.350 . S
N941 S939 1.610 . S
N941 C942 1.351 . S
C942 C936 1.428 . S
C942 N941 1.351 . S
C942 C943 1.434 . S
C943 C934 1.429 . S
C943 N940 1.350 . S
C943 C942 1.434 . S
C944 C945 1.369 . S
C944 C946 1.419 . S
C944 H948 0.930 . S
C945 C944 1.369 . S
C945 C954 1.429 . S
C946 C944 1.419 . S
C946 C947 1.363 1_545 S
C946 H949 0.929 1_545 S
C947 C946 1.363 1_565 S
C947 C953 1.428 1_565 S
H948 C944 0.930 . S
H949 C946 0.929 1_565 S
S950 N951 1.613 . S
S950 N952 1.610 1_545 S
N951 S950 1.613 . S
N951 C954 1.350 . S
N952 S950 1.610 1_565 S
N952 C953 1.351 1_565 S
C953 C947 1.428 1_545 S
C953 N952 1.351 1_545 S
C953 C954 1.434 . S
C954 C945 1.429 . S
C954 N951 1.350 . S
C954 C953 1.434 . S
C955 C956 1.369 1_655 S
C955 C957 1.419 . S
C955 H959 0.930 . S
C956 C955 1.369 1_455 S
C956 C965 1.429 . S
C957 C955 1.419 . S
C957 C958 1.363 . S
C957 H960 0.929 . S
C958 C957 1.363 . S
C958 C964 1.428 . S
H959 C955 0.930 . S
H960 C957 0.929 . S
S961 N962 1.613 . S
S961 N963 1.610 1_455 S
N962 S961 1.613 . S
N962 C965 1.350 . S
N963 S961 1.610 1_655 S
N963 C964 1.351 . S
C964 C958 1.428 . S
C964 N963 1.351 . S
C964 C965 1.434 1_655 S
C965 C956 1.429 . S
C965 N962 1.350 . S
C965 C964 1.434 1_455 S
C966 C967 1.369 . S
C966 C968 1.419 . S
C966 H970 0.930 . S
C967 C966 1.369 . S
C967 C976 1.429 . S
C968 C966 1.419 . S
C968 C969 1.363 . S
C968 H971 0.929 . S
C969 C968 1.363 . S
C969 C975 1.428 . S
H970 C966 0.930 . S
H971 C968 0.929 . S
S972 N973 1.613 . S
S972 N974 1.610 . S
N973 S972 1.613 . S
N973 C976 1.350 . S
N974 S972 1.610 . S
N974 C975 1.351 . S
C975 C969 1.428 . S
C975 N974 1.351 . S
C975 C976 1.434 . S
C976 C967 1.429 . S
C976 N973 1.350 . S
C976 C975 1.434 . S
C977 C978 1.377 . S
C977 C979 1.397 1_565 S
C977 H981 0.944 . S
C978 C977 1.377 . S
C978 C987 1.429 1_565 S
C979 C977 1.397 1_545 S
C979 C980 1.363 . S
C979 H982 0.929 . S
C980 C979 1.363 . S
C980 C986 1.428 . S
H981 C977 0.944 . S
H982 C979 0.929 . S
S983 N984 1.613 . S
S983 N985 1.610 . S
N984 S983 1.613 . S
N984 C987 1.350 . S
N985 S983 1.610 . S
N985 C986 1.351 . S
C986 C980 1.428 . S
C986 N985 1.351 . S
C986 C987 1.434 . S
C987 C978 1.429 1_545 S
C987 N984 1.350 . S
C987 C986 1.434 . S
C988 C989 1.369 1_655 S
C988 C990 1.419 . S
C988 H992 0.930 . S
C989 C988 1.369 1_455 S
C989 C998 1.429 . S
C990 C988 1.419 . S
C990 C991 1.363 . S
C990 H993 0.929 . S
C991 C990 1.363 . S
C991 C997 1.428 . S
H992 C988 0.930 . S
H993 C990 0.929 . S
S994 N995 1.613 . S
S994 N996 1.610 1_455 S
N995 S994 1.613 . S
N995 C998 1.350 . S
N996 S994 1.610 1_655 S
N996 C997 1.351 . S
C997 C991 1.428 . S
C997 N996 1.351 . S
C997 C998 1.434 1_655 S
C998 C989 1.429 . S
C998 N995 1.350 . S
C998 C997 1.434 1_455 S
C999 C1000 1.369 . S
C999 C1001 1.419 . S
C999 H1003 0.930 . S
C1000 C999 1.369 . S
C1000 C1009 1.429 . S
C1001 C999 1.419 . S
C1001 C1002 1.363 . S
C1001 H1004 0.929 . S
C1002 C1001 1.363 . S
C1002 C1008 1.428 . S
H1003 C999 0.930 . S
H1004 C1001 0.929 . S
S1005 N1006 1.613 . S
S1005 N1007 1.610 . S
N1006 S1005 1.613 . S
N1006 C1009 1.350 . S
N1007 S1005 1.610 . S
N1007 C1008 1.351 . S
C1008 C1002 1.428 . S
C1008 N1007 1.351 . S
C1008 C1009 1.434 . S
C1009 C1000 1.429 . S
C1009 N1006 1.350 . S
C1009 C1008 1.434 . S
C1010 C1011 1.369 1_565 S
C1010 C1012 1.419 . S
C1010 H1014 0.930 1_565 S
C1011 C1010 1.369 1_545 S
C1011 C1020 1.429 1_545 S
C1012 C1010 1.419 . S
C1012 C1013 1.363 . S
C1012 H1015 0.929 . S
C1013 C1012 1.363 . S
C1013 C1019 1.428 . S
H1014 C1010 0.930 1_545 S
H1015 C1012 0.929 . S
S1016 N1017 1.613 . S
S1016 N1018 1.610 . S
N1017 S1016 1.613 . S
N1017 C1020 1.350 . S
N1018 S1016 1.610 . S
N1018 C1019 1.351 . S
C1019 C1013 1.428 . S
C1019 N1018 1.351 . S
C1019 C1020 1.434 . S
C1020 C1011 1.429 1_565 S
C1020 N1017 1.350 . S
C1020 C1019 1.434 . S
C1021 C1022 1.369 . S
C1021 C1023 1.419 . S
C1021 H1025 0.930 . S
C1022 C1021 1.369 . S
C1022 C1031 1.429 . S
C1023 C1021 1.419 . S
C1023 C1024 1.363 1_455 S
C1023 H1026 0.929 . S
C1024 C1023 1.363 1_655 S
C1024 C1030 1.428 . S
H1025 C1021 0.930 . S
H1026 C1023 0.929 . S
S1027 N1028 1.613 1_655 S
S1027 N1029 1.610 . S
N1028 S1027 1.613 1_455 S
N1028 C1031 1.350 . S
N1029 S1027 1.610 . S
N1029 C1030 1.351 . S
C1030 C1024 1.428 . S
C1030 N1029 1.351 . S
C1030 C1031 1.434 1_655 S
C1031 C1022 1.429 . S
C1031 N1028 1.350 . S
C1031 C1030 1.434 1_455 S
C1032 C1033 1.369 . S
C1032 C1034 1.419 . S
C1032 H1036 0.930 . S
C1033 C1032 1.369 . S
C1033 C1042 1.429 . S
C1034 C1032 1.419 . S
C1034 C1035 1.363 . S
C1034 H1037 0.929 . S
C1035 C1034 1.363 . S
C1035 C1041 1.428 . S
H1036 C1032 0.930 . S
H1037 C1034 0.929 . S
S1038 N1039 1.613 . S
S1038 N1040 1.610 . S
N1039 S1038 1.613 . S
N1039 C1042 1.350 . S
N1040 S1038 1.610 . S
N1040 C1041 1.351 . S
C1041 C1035 1.428 . S
C1041 N1040 1.351 . S
C1041 C1042 1.434 . S
C1042 C1033 1.429 . S
C1042 N1039 1.350 . S
C1042 C1041 1.434 . S
C1043 C1044 1.369 . S
C1043 C1045 1.419 . S
C1043 H1047 0.930 . S
C1044 C1043 1.369 . S
C1044 C1053 1.429 . S
C1045 C1043 1.419 . S
C1045 C1046 1.363 . S
C1045 H1048 0.929 . S
C1046 C1045 1.363 . S
C1046 C1052 1.428 . S
H1047 C1043 0.930 . S
H1048 C1045 0.929 . S
S1049 N1050 1.613 . S
S1049 N1051 1.610 . S
N1050 S1049 1.613 . S
N1050 C1053 1.350 . S
N1051 S1049 1.610 . S
N1051 C1052 1.351 . S
C1052 C1046 1.428 . S
C1052 N1051 1.351 . S
C1052 C1053 1.434 . S
C1053 C1044 1.429 . S
C1053 N1050 1.350 . S
C1053 C1052 1.434 . S
C1054 C1055 1.369 . S
C1054 C1056 1.419 . S
C1054 H1058 0.930 . S
C1055 C1054 1.369 . S
C1055 C1064 1.429 . S
C1056 C1054 1.419 . S
C1056 C1057 1.363 . S
C1056 H1059 0.929 . S
C1057 C1056 1.363 . S
C1057 C1063 1.428 . S
H1058 C1054 0.930 . S
H1059 C1056 0.929 . S
S1060 N1061 1.613 . S
S1060 N1062 1.610 . S
N1061 S1060 1.613 . S
N1061 C1064 1.350 . S
N1062 S1060 1.610 . S
N1062 C1063 1.351 . S
C1063 C1057 1.428 . S
C1063 N1062 1.351 . S
C1063 C1064 1.434 . S
C1064 C1055 1.429 . S
C1064 N1061 1.350 . S
C1064 C1063 1.434 . S
C1065 C1066 1.369 . S
C1065 C1067 1.419 . S
C1065 H1069 0.930 . S
C1066 C1065 1.369 . S
C1066 C1075 1.429 . S
C1067 C1065 1.419 . S
C1067 C1068 1.363 . S
C1067 H1070 0.929 . S
C1068 C1067 1.363 . S
C1068 C1074 1.428 . S
H1069 C1065 0.930 . S
H1070 C1067 0.929 . S
S1071 N1072 1.613 . S
S1071 N1073 1.610 . S
N1072 S1071 1.613 . S
N1072 C1075 1.350 . S
N1073 S1071 1.610 . S
N1073 C1074 1.351 . S
C1074 C1068 1.428 . S
C1074 N1073 1.351 . S
C1074 C1075 1.434 . S
C1075 C1066 1.429 . S
C1075 N1072 1.350 . S
C1075 C1074 1.434 . S
C1076 C1077 1.369 . S
C1076 C1078 1.419 . S
C1076 H1080 0.930 . S
C1077 C1076 1.369 . S
C1077 C1086 1.429 . S
C1078 C1076 1.419 . S
C1078 C1079 1.363 . S
C1078 H1081 0.929 . S
C1079 C1078 1.363 . S
C1079 C1085 1.428 . S
H1080 C1076 0.930 . S
H1081 C1078 0.929 . S
S1082 N1083 1.613 . S
S1082 N1084 1.610 . S
N1083 S1082 1.613 . S
N1083 C1086 1.350 . S
N1084 S1082 1.610 . S
N1084 C1085 1.351 . S
C1085 C1079 1.428 . S
C1085 N1084 1.351 . S
C1085 C1086 1.434 . S
C1086 C1077 1.429 . S
C1086 N1083 1.350 . S
C1086 C1085 1.434 . S
C1087 C1088 1.369 . S
C1087 C1089 1.419 . S
C1087 H1091 0.930 . S
C1088 C1087 1.369 . S
C1088 C1097 1.429 . S
C1089 C1087 1.419 . S
C1089 C1090 1.363 . S
C1089 H1092 0.929 . S
C1090 C1089 1.363 . S
C1090 C1096 1.428 . S
H1091 C1087 0.930 . S
H1092 C1089 0.929 . S
S1093 N1094 1.613 . S
S1093 N1095 1.610 . S
N1094 S1093 1.613 . S
N1094 C1097 1.350 . S
N1095 S1093 1.610 . S
N1095 C1096 1.351 . S
C1096 C1090 1.428 . S
C1096 N1095 1.351 . S
C1096 C1097 1.434 . S
C1097 C1088 1.429 . S
C1097 N1094 1.350 . S
C1097 C1096 1.434 . S
C1098 C1099 1.369 . S
C1098 C1100 1.419 . S
C1098 H1102 0.930 . S
C1099 C1098 1.369 . S
C1099 C1108 1.429 . S
C1100 C1098 1.419 . S
C1100 C1101 1.363 . S
C1100 H1103 0.929 . S
C1101 C1100 1.363 . S
C1101 C1107 1.428 . S
H1102 C1098 0.930 . S
H1103 C1100 0.929 . S
S1104 N1105 1.613 . S
S1104 N1106 1.610 . S
N1105 S1104 1.613 . S
N1105 C1108 1.350 . S
N1106 S1104 1.610 . S
N1106 C1107 1.351 . S
C1107 C1101 1.428 . S
C1107 N1106 1.351 . S
C1107 C1108 1.434 . S
C1108 C1099 1.429 . S
C1108 N1105 1.350 . S
C1108 C1107 1.434 . S
C1109 C1110 1.369 . S
C1109 C1111 1.419 . S
C1109 H1113 0.930 . S
C1110 C1109 1.369 . S
C1110 C1119 1.429 . S
C1111 C1109 1.419 . S
C1111 C1112 1.363 . S
C1111 H1114 0.929 . S
C1112 C1111 1.363 . S
C1112 C1118 1.428 . S
H1113 C1109 0.930 . S
H1114 C1111 0.929 . S
S1115 N1116 1.613 . S
S1115 N1117 1.610 . S
N1116 S1115 1.613 . S
N1116 C1119 1.350 . S
N1117 S1115 1.610 . S
N1117 C1118 1.351 . S
C1118 C1112 1.428 . S
C1118 N1117 1.351 . S
C1118 C1119 1.434 . S
C1119 C1110 1.429 . S
C1119 N1116 1.350 . S
C1119 C1118 1.434 . S
C1120 C1121 1.369 . S
C1120 C1122 1.419 . S
C1120 H1124 0.930 . S
C1121 C1120 1.369 . S
C1121 C1130 1.429 . S
C1122 C1120 1.419 . S
C1122 C1123 1.363 . S
C1122 H1125 0.929 . S
C1123 C1122 1.363 . S
C1123 C1129 1.428 . S
H1124 C1120 0.930 . S
H1125 C1122 0.929 . S
S1126 N1127 1.613 . S
S1126 N1128 1.610 . S
N1127 S1126 1.613 . S
N1127 C1130 1.350 . S
N1128 S1126 1.610 . S
N1128 C1129 1.351 . S
C1129 C1123 1.428 . S
C1129 N1128 1.351 . S
C1129 C1130 1.434 . S
C1130 C1121 1.429 . S
C1130 N1127 1.350 . S
C1130 C1129 1.434 . S
C1131 C1132 1.369 . S
C1131 C1133 1.419 . S
C1131 H1135 0.930 . S
C1132 C1131 1.369 . S
C1132 C1141 1.429 . S
C1133 C1131 1.419 . S
C1133 C1134 1.363 . S
C1133 H1136 0.929 . S
C1134 C1133 1.363 . S
C1134 C1140 1.428 . S
H1135 C1131 0.930 . S
H1136 C1133 0.929 . S
S1137 N1138 1.613 . S
S1137 N1139 1.610 . S
N1138 S1137 1.613 . S
N1138 C1141 1.350 . S
N1139 S1137 1.610 . S
N1139 C1140 1.351 . S
C1140 C1134 1.428 . S
C1140 N1139 1.351 . S
C1140 C1141 1.434 . S
C1141 C1132 1.429 . S
C1141 N1138 1.350 . S
C1141 C1140 1.434 . S
C1142 C1143 1.369 . S
C1142 C1144 1.419 . S
C1142 H1146 0.930 . S
C1143 C1142 1.369 . S
C1143 C1152 1.429 . S
C1144 C1142 1.419 . S
C1144 C1145 1.363 . S
C1144 H1147 0.929 . S
C1145 C1144 1.363 . S
C1145 C1151 1.428 . S
H1146 C1142 0.930 . S
H1147 C1144 0.929 . S
S1148 N1149 1.613 . S
S1148 N1150 1.610 . S
N1149 S1148 1.613 . S
N1149 C1152 1.350 . S
N1150 S1148 1.610 . S
N1150 C1151 1.351 . S
C1151 C1145 1.428 . S
C1151 N1150 1.351 . S
C1151 C1152 1.434 . S
C1152 C1143 1.429 . S
C1152 N1149 1.350 . S
C1152 C1151 1.434 . S
C1153 C1154 1.369 . S
C1153 C1155 1.419 . S
C1153 H1157 0.930 . S
C1154 C1153 1.369 . S
C1154 C1163 1.429 . S
C1155 C1153 1.419 . S
C1155 C1156 1.363 . S
C1155 H1158 0.929 . S
C1156 C1155 1.363 . S
C1156 C1162 1.428 . S
H1157 C1153 0.930 . S
H1158 C1155 0.929 . S
S1159 N1160 1.613 . S
S1159 N1161 1.610 . S
N1160 S1159 1.613 . S
N1160 C1163 1.350 . S
N1161 S1159 1.610 . S
N1161 C1162 1.351 . S
C1162 C1156 1.428 . S
C1162 N1161 1.351 . S
C1162 C1163 1.434 . S
C1163 C1154 1.429 . S
C1163 N1160 1.350 . S
C1163 C1162 1.434 . S
C1164 C1165 1.369 . S
C1164 C1166 1.419 . S
C1164 H1168 0.930 . S
C1165 C1164 1.369 . S
C1165 C1174 1.429 . S
C1166 C1164 1.419 . S
C1166 C1167 1.363 . S
C1166 H1169 0.929 . S
C1167 C1166 1.363 . S
C1167 C1173 1.428 . S
H1168 C1164 0.930 . S
H1169 C1166 0.929 . S
S1170 N1171 1.613 . S
S1170 N1172 1.610 . S
N1171 S1170 1.613 . S
N1171 C1174 1.350 . S
N1172 S1170 1.610 . S
N1172 C1173 1.351 . S
C1173 C1167 1.428 . S
C1173 N1172 1.351 . S
C1173 C1174 1.434 . S
C1174 C1165 1.429 . S
C1174 N1171 1.350 . S
C1174 C1173 1.434 . S
C1175 C1176 1.369 . S
C1175 C1177 1.419 . S
C1175 H1179 0.930 . S
C1176 C1175 1.369 . S
C1176 C1185 1.429 . S
C1177 C1175 1.419 . S
C1177 C1178 1.363 . S
C1177 H1180 0.929 . S
C1178 C1177 1.363 . S
C1178 C1184 1.428 . S
H1179 C1175 0.930 . S
H1180 C1177 0.929 . S
S1181 N1182 1.613 . S
S1181 N1183 1.610 . S
N1182 S1181 1.613 . S
N1182 C1185 1.350 . S
N1183 S1181 1.610 . S
N1183 C1184 1.351 . S
C1184 C1178 1.428 . S
C1184 N1183 1.351 . S
C1184 C1185 1.434 . S
C1185 C1176 1.429 . S
C1185 N1182 1.350 . S
C1185 C1184 1.434 . S
C1186 C1187 1.369 . S
C1186 C1188 1.419 . S
C1186 H1190 0.930 . S
C1187 C1186 1.369 . S
C1187 C1196 1.429 . S
C1188 C1186 1.419 . S
C1188 C1189 1.363 . S
C1188 H1191 0.929 . S
C1189 C1188 1.363 . S
C1189 C1195 1.428 . S
H1190 C1186 0.930 . S
H1191 C1188 0.929 . S
S1192 N1193 1.613 . S
S1192 N1194 1.610 . S
N1193 S1192 1.613 . S
N1193 C1196 1.350 . S
N1194 S1192 1.610 . S
N1194 C1195 1.351 . S
C1195 C1189 1.428 . S
C1195 N1194 1.351 . S
C1195 C1196 1.434 . S
C1196 C1187 1.429 . S
C1196 N1193 1.350 . S
C1196 C1195 1.434 . S
C1197 C1198 1.369 . S
C1197 C1199 1.419 . S
C1197 H1201 0.930 . S
C1198 C1197 1.369 . S
C1198 C1207 1.429 . S
C1199 C1197 1.419 . S
C1199 C1200 1.363 . S
C1199 H1202 0.929 . S
C1200 C1199 1.363 . S
C1200 C1206 1.428 . S
H1201 C1197 0.930 . S
H1202 C1199 0.929 . S
S1203 N1204 1.613 . S
S1203 N1205 1.610 . S
N1204 S1203 1.613 . S
N1204 C1207 1.350 . S
N1205 S1203 1.610 . S
N1205 C1206 1.351 . S
C1206 C1200 1.428 . S
C1206 N1205 1.351 . S
C1206 C1207 1.434 . S
C1207 C1198 1.429 . S
C1207 N1204 1.350 . S
C1207 C1206 1.434 . S
C1208 C1209 1.369 . S
C1208 C1210 1.419 . S
C1208 H1212 0.930 . S
C1209 C1208 1.369 . S
C1209 C1218 1.429 . S
C1210 C1208 1.419 . S
C1210 C1211 1.363 . S
C1210 H1213 0.929 . S
C1211 C1210 1.363 . S
C1211 C1217 1.428 . S
H1212 C1208 0.930 . S
H1213 C1210 0.929 . S
S1214 N1215 1.613 . S
S1214 N1216 1.610 . S
N1215 S1214 1.613 . S
N1215 C1218 1.350 . S
N1216 S1214 1.610 . S
N1216 C1217 1.351 . S
C1217 C1211 1.428 . S
C1217 N1216 1.351 . S
C1217 C1218 1.434 . S
C1218 C1209 1.429 . S
C1218 N1215 1.350 . S
C1218 C1217 1.434 . S
C1219 C1220 1.369 . S
C1219 C1221 1.419 . S
C1219 H1223 0.930 . S
C1220 C1219 1.369 . S
C1220 C1229 1.429 . S
C1221 C1219 1.419 . S
C1221 C1222 1.363 . S
C1221 H1224 0.929 . S
C1222 C1221 1.363 . S
C1222 C1228 1.428 . S
H1223 C1219 0.930 . S
H1224 C1221 0.929 . S
S1225 N1226 1.613 . S
S1225 N1227 1.610 . S
N1226 S1225 1.613 . S
N1226 C1229 1.350 . S
N1227 S1225 1.610 . S
N1227 C1228 1.351 . S
C1228 C1222 1.428 . S
C1228 N1227 1.351 . S
C1228 C1229 1.434 . S
C1229 C1220 1.429 . S
C1229 N1226 1.350 . S
C1229 C1228 1.434 . S
C1230 C1231 1.369 . S
C1230 C1232 1.419 . S
C1230 H1234 0.930 . S
C1231 C1230 1.369 . S
C1231 C1240 1.429 . S
C1232 C1230 1.419 . S
C1232 C1233 1.363 . S
C1232 H1235 0.929 . S
C1233 C1232 1.363 . S
C1233 C1239 1.428 . S
H1234 C1230 0.930 . S
H1235 C1232 0.929 . S
S1236 N1237 1.613 . S
S1236 N1238 1.610 . S
N1237 S1236 1.613 . S
N1237 C1240 1.350 . S
N1238 S1236 1.610 . S
N1238 C1239 1.351 . S
C1239 C1233 1.428 . S
C1239 N1238 1.351 . S
C1239 C1240 1.434 . S
C1240 C1231 1.429 . S
C1240 N1237 1.350 . S
C1240 C1239 1.434 . S
C1241 C1242 1.369 . S
C1241 C1243 1.419 . S
C1241 H1245 0.930 . S
C1242 C1241 1.369 . S
C1242 C1251 1.429 . S
C1243 C1241 1.419 . S
C1243 C1244 1.363 . S
C1243 H1246 0.929 . S
C1244 C1243 1.363 . S
C1244 C1250 1.428 . S
H1245 C1241 0.930 . S
H1246 C1243 0.929 . S
S1247 N1248 1.613 . S
S1247 N1249 1.610 . S
N1248 S1247 1.613 . S
N1248 C1251 1.350 . S
N1249 S1247 1.610 . S
N1249 C1250 1.351 . S
C1250 C1244 1.428 . S
C1250 N1249 1.351 . S
C1250 C1251 1.434 . S
C1251 C1242 1.429 . S
C1251 N1248 1.350 . S
C1251 C1250 1.434 . S
C1252 C1253 1.369 . S
C1252 C1254 1.419 . S
C1252 H1256 0.930 . S
C1253 C1252 1.369 . S
C1253 C1262 1.429 . S
C1254 C1252 1.419 . S
C1254 C1255 1.363 . S
C1254 H1257 0.929 . S
C1255 C1254 1.363 . S
C1255 C1261 1.428 . S
H1256 C1252 0.930 . S
H1257 C1254 0.929 . S
S1258 N1259 1.613 . S
S1258 N1260 1.610 . S
N1259 S1258 1.613 . S
N1259 C1262 1.350 . S
N1260 S1258 1.610 . S
N1260 C1261 1.351 . S
C1261 C1255 1.428 . S
C1261 N1260 1.351 . S
C1261 C1262 1.434 . S
C1262 C1253 1.429 . S
C1262 N1259 1.350 . S
C1262 C1261 1.434 . S
C1263 C1264 1.369 . S
C1263 C1265 1.419 . S
C1263 H1267 0.930 . S
C1264 C1263 1.369 . S
C1264 C1273 1.429 . S
C1265 C1263 1.419 . S
C1265 C1266 1.363 . S
C1265 H1268 0.929 . S
C1266 C1265 1.363 . S
C1266 C1272 1.428 . S
H1267 C1263 0.930 . S
H1268 C1265 0.929 . S
S1269 N1270 1.613 . S
S1269 N1271 1.610 . S
N1270 S1269 1.613 . S
N1270 C1273 1.350 . S
N1271 S1269 1.610 . S
N1271 C1272 1.351 . S
C1272 C1266 1.428 . S
C1272 N1271 1.351 . S
C1272 C1273 1.434 . S
C1273 C1264 1.429 . S
C1273 N1270 1.350 . S
C1273 C1272 1.434 . S
C1274 C1275 1.369 . S
C1274 C1276 1.419 . S
C1274 H1278 0.930 . S
C1275 C1274 1.369 . S
C1275 C1284 1.429 . S
C1276 C1274 1.419 . S
C1276 C1277 1.363 . S
C1276 H1279 0.929 . S
C1277 C1276 1.363 . S
C1277 C1283 1.428 . S
H1278 C1274 0.930 . S
H1279 C1276 0.929 . S
S1280 N1281 1.613 . S
S1280 N1282 1.610 . S
N1281 S1280 1.613 . S
N1281 C1284 1.350 . S
N1282 S1280 1.610 . S
N1282 C1283 1.351 . S
C1283 C1277 1.428 . S
C1283 N1282 1.351 . S
C1283 C1284 1.434 . S
C1284 C1275 1.429 . S
C1284 N1281 1.350 . S
C1284 C1283 1.434 . S
C1285 C1286 1.369 . S
C1285 C1287 1.419 . S
C1285 H1289 0.930 . S
C1286 C1285 1.369 . S
C1286 C1295 1.429 . S
C1287 C1285 1.419 . S
C1287 C1288 1.363 . S
C1287 H1290 0.929 . S
C1288 C1287 1.363 . S
C1288 C1294 1.428 . S
H1289 C1285 0.930 . S
H1290 C1287 0.929 . S
S1291 N1292 1.613 . S
S1291 N1293 1.610 . S
N1292 S1291 1.613 . S
N1292 C1295 1.350 . S
N1293 S1291 1.610 . S
N1293 C1294 1.351 . S
C1294 C1288 1.428 . S
C1294 N1293 1.351 . S
C1294 C1295 1.434 . S
C1295 C1286 1.429 . S
C1295 N1292 1.350 . S
C1295 C1294 1.434 . S
C505 C7 1.412 . S
C507 C259 1.418 . S
C516 C273 1.414 . S
C518 C21 1.417 . S
C527 C287 1.419 . S
C529 C35 1.414 . S
C538 C49 1.413 . S
C540 C469 1.418 . S
C549 C63 1.419 . S
C551 C483 1.413 . S
C560 C77 1.418 . S
C562 C497 1.414 . S
C571 C343 1.417 . S
C573 C91 1.414 . S
C582 C105 1.420 . S
C584 C357 1.413 . S
C593 C119 1.420 . S
C595 C371 1.413 . S
C604 C217 1.412 . S
C606 C133 1.419 . S
C615 C231 1.416 . S
C617 C147 1.415 . S
C626 C245 1.415 . S
C628 C161 1.417 . S
C637 C427 1.417 . S
C639 C175 1.414 . S
C648 C441 1.416 . S
C650 C189 1.415 . S
C659 C203 1.412 . S
C661 C455 1.419 . S
C670 C385 1.418 . S
C672 C301 1.414 . S
C681 C315 1.415 . S
C683 C399 1.417 . S
C692 C329 1.412 . S
C694 C413 1.419 . S
C703 C8 1.465 . S
C705 C386 1.466 . S
C714 C400 1.462 . S
C716 C22 1.466 . S
C725 C414 1.465 . S
C727 C36 1.466 . S
C736 C176 1.465 . S
C738 C50 1.478 . S
C747 C190 1.462 . S
C749 C64 1.464 . S
C758 C204 1.466 . S
C760 C78 1.460 . S
C769 C92 1.472 . S
C771 C302 1.464 . S
C780 C316 1.467 . S
C782 C106 1.463 . S
C791 C330 1.467 . S
C793 C120 1.463 . S
C802 C134 1.463 . S
C804 C428 1.466 . S
C813 C148 1.463 . S
C815 C442 1.466 . S
C824 C162 1.462 . S
C826 C456 1.463 . S
C835 C218 1.462 . S
C837 C344 1.465 . S
C846 C232 1.467 . S
C848 C358 1.464 . S
C857 C246 1.463 . S
C859 C372 1.463 . S
C868 C260 1.464 . S
C870 C470 1.466 . S
C879 C484 1.462 . S
C881 C274 1.466 . S
C890 C288 1.463 . S
C892 C498 1.463 . S
C901 C17 1.263 . S
C903 C9 1.162 . S
C912 C23 1.160 . S
C914 C31 1.262 . S
C923 C37 1.166 . S
C925 C3 1.261 . S
C934 C51 1.162 . S
C936 C73 1.257 . S
C945 C45 1.262 . S
C947 C65 1.167 . S
C956 C79 1.164 . S
C958 C59 1.256 . S
C967 C93 1.173 . S
C969 C101 1.259 . S
C978 C107 1.172 . S
C980 C115 1.254 . S
C989 C121 1.158 . S
C991 C87 1.261 . S
C1000 C157 1.263 . S
C1002 C135 1.164 . S
C1011 C149 1.170 . S
C1013 C129 1.254 . S
C1022 C143 1.257 . S
C1024 C163 1.161 . S
C1033 C185 1.262 . S
C1035 C177 1.159 . S
C1044 C199 1.255 . S
C1046 C191 1.173 . S
C1055 C171 1.263 . S
C1057 C205 1.165 . S
C1066 C219 1.157 . S
C1068 C241 1.261 . S
C1077 C233 1.170 . S
C1079 C213 1.254 . S
C1088 C247 1.160 . S
C1090 C227 1.262 . S
C1099 C269 1.259 . S
C1101 C261 1.160 . S
C1110 C275 1.160 . S
C1112 C283 1.257 . S
C1121 C289 1.175 . S
C1123 C255 1.256 . S
C1132 C303 1.174 . S
C1134 C325 1.258 . S
C1143 C317 1.173 . S
C1145 C297 1.259 . S
C1154 C311 1.262 . S
C1156 C331 1.168 . S
C1165 C353 1.256 . S
C1167 C345 1.173 . S
C1176 C359 1.174 . S
C1178 C367 1.255 . S
C1187 C339 1.261 . S
C1189 C373 1.169 . S
C1198 C387 1.158 . S
C1200 C409 1.259 . S
C1209 C401 1.175 . S
C1211 C381 1.257 . S
C1220 C415 1.170 . S
C1222 C395 1.260 . S
C1231 C429 1.175 . S
C1233 C437 1.258 . S
C1242 C443 1.160 . S
C1244 C451 1.262 . S
C1253 C457 1.157 . S
C1255 C423 1.259 . S
C1264 C471 1.173 . S
C1266 C493 1.255 . S
C1275 C485 1.167 . S
C1277 C465 1.262 . S
C1286 C479 1.255 . S
C1288 C499 1.163 . S
