# Generated by pormake.
# Topology vby, (6)-cn, num edge types: 1
# Building blocks:
#     Node 0, Type 0, BuildingBlock: CUWYAW_clean_sbu_0, # of connection points: 6
#     Node 1, Type 0, BuildingBlock: CUWYAW_clean_sbu_0, # of connection points: 6
#     Node 2, Type 0, BuildingBlock: CUWYAW_clean_sbu_0, # of connection points: 6
#     Node 3, Type 0, BuildingBlock: CUWYAW_clean_sbu_0, # of connection points: 6
#     Node 4, Type 0, BuildingBlock: CUWYAW_clean_sbu_0, # of connection points: 6
#     Node 5, Type 0, BuildingBlock: CUWYAW_clean_sbu_0, # of connection points: 6
#     Node 6, Type 0, BuildingBlock: CUWYAW_clean_sbu_0, # of connection points: 6
#     Node 7, Type 0, BuildingBlock: CUWYAW_clean_sbu_0, # of connection points: 6
#     Edge 8, Type (0, 0), BuildingBlock: TEMPAE_clean_linker_10, # of connection points: 2
#     Edge 9, Type (0, 0), BuildingBlock: TEMPAE_clean_linker_10, # of connection points: 2
#     Edge 10, Type (0, 0), BuildingBlock: TEMPAE_clean_linker_10, # of connection points: 2
#     Edge 11, Type (0, 0), BuildingBlock: TEMPAE_clean_linker_10, # of connection points: 2
#     Edge 12, Type (0, 0), BuildingBlock: TEMPAE_clean_linker_10, # of connection points: 2
#     Edge 13, Type (0, 0), BuildingBlock: TEMPAE_clean_linker_10, # of connection points: 2
#     Edge 14, Type (0, 0), BuildingBlock: TEMPAE_clean_linker_10, # of connection points: 2
#     Edge 15, Type (0, 0), BuildingBlock: TEMPAE_clean_linker_10, # of connection points: 2
#     Edge 16, Type (0, 0), BuildingBlock: TEMPAE_clean_linker_10, # of connection points: 2
#     Edge 17, Type (0, 0), BuildingBlock: TEMPAE_clean_linker_10, # of connection points: 2
#     Edge 18, Type (0, 0), BuildingBlock: TEMPAE_clean_linker_10, # of connection points: 2
#     Edge 19, Type (0, 0), BuildingBlock: TEMPAE_clean_linker_10, # of connection points: 2
#     Edge 20, Type (0, 0), BuildingBlock: TEMPAE_clean_linker_10, # of connection points: 2
#     Edge 21, Type (0, 0), BuildingBlock: TEMPAE_clean_linker_10, # of connection points: 2
#     Edge 22, Type (0, 0), BuildingBlock: TEMPAE_clean_linker_10, # of connection points: 2
#     Edge 23, Type (0, 0), BuildingBlock: TEMPAE_clean_linker_10, # of connection points: 2
#     Edge 24, Type (0, 0), BuildingBlock: TEMPAE_clean_linker_10, # of connection points: 2
#     Edge 25, Type (0, 0), BuildingBlock: TEMPAE_clean_linker_10, # of connection points: 2
#     Edge 26, Type (0, 0), BuildingBlock: TEMPAE_clean_linker_10, # of connection points: 2
#     Edge 27, Type (0, 0), BuildingBlock: TEMPAE_clean_linker_10, # of connection points: 2
#     Edge 28, Type (0, 0), BuildingBlock: TEMPAE_clean_linker_10, # of connection points: 2
#     Edge 29, Type (0, 0), BuildingBlock: TEMPAE_clean_linker_10, # of connection points: 2
#     Edge 30, Type (0, 0), BuildingBlock: TEMPAE_clean_linker_10, # of connection points: 2
#     Edge 31, Type (0, 0), BuildingBlock: TEMPAE_clean_linker_10, # of connection points: 2
# Relax obj value: 0.624
# Max RMSD: 0.247
# Mean RMSD: 0.203
data_MOF--net-vby--node1-CUWYAW_clean_sbu_0--edge1-TEMPAE_clean_linker_10
_symmetry_space_group_name_H-M    P1
_symmetry_Int_Tables_number       1
_symmetry_cell_setting            triclinic
loop_
_symmetry_equiv_pos_as_xyz
'x, y, z'
_cell_length_a     18.863568
_cell_length_b     74.671394
_cell_length_c     31.023537
_cell_angle_alpha  86.252648
_cell_angle_beta   89.359127
_cell_angle_gamma 78.88959
loop_
_atom_site_label
_atom_site_type_symbol
_atom_site_fract_x
_atom_site_fract_y
_atom_site_fract_z
_atom_type_partial_charge
C0 C 0.9851 0.4482 -0.01243 0.0
Eu1 Eu 0.12327 0.44213 0.00047 0.0
C2 C 0.94276 0.46481 0.96576 0.0
C3 C 0.87083 0.47088 -0.023 0.0
C4 C 0.8312 0.48677 0.95646 0.0
C5 C 0.86294 0.49709 0.92439 0.0
C6 C 0.93617 0.49125 0.91446 0.0
C7 C 0.97557 0.47523 0.93482 0.0
C8 C 0.18219 0.43548 0.08139 0.0
C9 C 0.14382 0.48877 -0.00636 0.0
C10 C 0.38404 0.44592 -0.01803 0.0
Eu11 Eu 0.24665 0.4457 -0.0115 0.0
C12 C 0.4221 0.4563 0.95089 0.0
C13 C 0.39599 0.4608 0.90837 0.0
C14 C 0.43206 0.47091 0.87909 0.0
C15 C 0.49478 0.47645 0.89205 0.0
C16 C 0.51977 0.47229 0.93479 0.0
C17 C 0.4836 0.46231 0.96403 0.0
C18 C 0.1835 0.44903 0.90774 0.0
C19 C 0.22753 0.39926 -0.00168 0.0
O20 O 1.03111 0.4382 0.96306 0.0
O21 O 1.0132 0.45045 0.02452 0.0
O22 O 0.14194 0.42561 0.06414 0.0
O23 O 0.19368 0.44821 0.05416 0.0
O24 O 0.09872 0.47655 -0.00131 0.0
O25 O 0.21175 0.47933 -0.01149 0.0
O26 O 0.35373 0.4336 0.96594 0.0
O27 O 0.34211 0.45552 0.00912 0.0
O28 O 0.21555 0.46104 0.92299 0.0
O29 O 0.17991 0.43688 0.93751 0.0
O30 O 0.27341 0.41139 -0.00401 0.0
O31 O 0.15854 0.40858 0.00036 0.0
H32 H 0.84487 0.46313 0.00101 0.0
H33 H 0.77441 0.49034 0.96437 0.0
H34 H 0.96259 0.49876 0.89023 0.0
H35 H 1.03167 0.47088 0.926 0.0
H36 H 0.34841 0.4563 0.89756 0.0
H37 H 0.41242 0.4739 0.84622 0.0
H38 H 0.56815 0.47658 0.94534 0.0
H39 H 0.50392 0.45916 -0.00327 0.0
C40 C 0.13152 0.69434 0.96684 0.0
Eu41 Eu 0.99922 0.69554 -0.00842 0.0
C42 C 0.1671 0.68709 0.92752 0.0
C43 C 0.24076 0.67965 0.92802 0.0
C44 C 0.27661 0.67528 0.88947 0.0
C45 C 0.2395 0.6785 0.84946 0.0
C46 C 0.16424 0.68443 0.84971 0.0
C47 C 0.12835 0.68862 0.88847 0.0
C48 C 0.95794 0.70105 0.07636 0.0
C49 C 0.98118 0.65 -0.00546 0.0
C50 C 0.74136 0.69048 -0.01118 0.0
Eu51 Eu 0.87497 0.69425 -0.00829 0.0
C52 C 0.69077 0.69675 0.95241 0.0
C53 C 0.68752 0.68514 0.91885 0.0
C54 C 0.64661 0.69143 0.88192 0.0
C55 C 0.60694 0.70939 0.87785 0.0
C56 C 0.61009 0.72108 0.91121 0.0
C57 C 0.65187 0.71485 0.94809 0.0
C58 C 0.91272 0.70279 0.90702 0.0
C59 C 0.89264 0.73911 -0.0066 0.0
O60 O 0.08046 0.7087 0.96003 0.0
O61 O 0.11361 0.68245 -0.00437 0.0
O62 O 0.99819 0.71006 0.0534 0.0
O63 O 0.93878 0.68918 0.05375 0.0
O64 O 1.02839 0.66153 -0.00376 0.0
O65 O 0.91301 0.66019 -0.00737 0.0
O66 O 0.76178 0.70303 0.01039 0.0
O67 O 0.79543 0.67752 -0.01949 0.0
O68 O 0.86357 0.71275 0.92869 0.0
O69 O 0.94394 0.68989 0.93224 0.0
O70 O 0.84954 0.72715 0.00569 0.0
O71 O 0.95701 0.72935 -0.0194 0.0
H72 H 0.27133 0.67817 0.95784 0.0
H73 H 0.33475 0.67096 0.89099 0.0
H74 H 0.13378 0.68686 0.81981 0.0
H75 H 0.07092 0.69404 0.88754 0.0
H76 H 0.71694 0.67114 0.92097 0.0
H77 H 0.64333 0.68193 0.8574 0.0
H78 H 0.57888 0.7349 0.90913 0.0
H79 H 0.65377 0.7242 0.97312 0.0
C80 C 0.94824 0.66302 0.48515 0.0
Eu81 Eu 0.95112 0.6973 0.49298 0.0
C82 C 0.88886 0.65278 0.492 0.0
C83 C 0.87937 0.64412 0.53259 0.0
C84 C 0.82466 0.63409 0.53906 0.0
C85 C 0.77852 0.63227 0.50496 0.0
C86 C 0.78543 0.64175 0.46497 0.0
C87 C 0.84016 0.65188 0.45851 0.0
C88 C 0.94852 0.70899 0.57496 0.0
C89 C 0.75746 0.71489 0.48998 0.0
C90 C 0.92022 0.76531 0.49487 0.0
Eu91 Eu 0.92026 0.73074 0.48547 0.0
C92 C 0.97882 0.77593 0.49394 0.0
C93 C 0.96906 0.79332 0.47217 0.0
C94 C 1.02616 0.80289 0.4689 0.0
C95 C 0.09413 0.79501 0.48661 0.0
C96 C 0.10352 0.77776 0.50885 0.0
C97 C 0.04621 0.76844 0.51303 0.0
C98 C 0.92134 0.7183 0.40388 0.0
C99 C 0.11403 0.71302 0.48838 0.0
O100 O 0.94132 0.67512 0.45243 0.0
O101 O 0.97293 0.669 0.51942 0.0
O102 O 1.00259 0.69828 0.55833 0.0
O103 O 0.89996 0.71437 0.5463 0.0
O104 O 0.81372 0.70007 0.48917 0.0
O105 O 0.78774 0.73008 0.49078 0.0
O106 O 0.92145 0.75311 0.52706 0.0
O107 O 0.90582 0.75907 0.45837 0.0
O108 O 0.86842 0.72963 0.42003 0.0
O109 O 0.9703 0.71321 0.43235 0.0
O110 O 0.05776 0.72786 0.4871 0.0
O111 O 0.08381 0.69778 0.48949 0.0
H112 H 0.91555 0.64464 0.55916 0.0
H113 H 0.82209 0.62668 0.57006 0.0
H114 H 0.75084 0.64057 0.43808 0.0
H115 H 0.8454 0.6586 0.42695 0.0
H116 H 0.91759 0.79938 0.45731 0.0
H117 H 1.0178 0.81623 0.45172 0.0
H118 H 0.15521 0.77155 0.5233 0.0
H119 H 0.05505 0.75529 0.53098 0.0
C120 C 0.20048 0.37994 0.48598 0.0
Eu121 Eu 0.19998 0.41405 0.50015 0.0
C122 C 0.14217 0.3693 0.48768 0.0
C123 C 0.08613 0.37273 0.51803 0.0
C124 C 1.02587 0.36449 0.51568 0.0
C125 C 1.02029 0.3527 0.48286 0.0
C126 C 0.07736 0.34895 0.45317 0.0
C127 C 0.1377 0.3572 0.45557 0.0
C128 C 0.19582 0.42486 0.58348 0.0
C129 C 1.00642 0.43142 0.49881 0.0
C130 C 0.14545 0.48203 0.51462 0.0
Eu131 Eu 0.16871 0.44789 0.49711 0.0
C132 C 0.07846 0.49396 0.52802 0.0
C133 C 1.01488 0.49611 0.50342 0.0
C134 C 0.95174 0.50745 0.5164 0.0
C135 C 0.95069 0.51675 0.55441 0.0
C136 C 1.01319 0.51368 0.58031 0.0
C137 C 0.07662 0.50247 0.56708 0.0
C138 C 0.17125 0.43803 0.41335 0.0
C139 C 0.3622 0.43046 0.49802 0.0
O140 O 0.19332 0.39304 0.45552 0.0
O141 O 0.22056 0.38513 0.52253 0.0
O142 O 0.24939 0.41382 0.56706 0.0
O143 O 0.14803 0.43038 0.55462 0.0
O144 O 0.06268 0.41662 0.49813 0.0
O145 O 1.03653 0.44662 0.4996 0.0
O146 O 0.14724 0.47674 0.4753 0.0
O147 O 0.1723 0.46876 0.54267 0.0
O148 O 0.11831 0.44883 0.43082 0.0
O149 O 0.2194 0.43186 0.44183 0.0
O150 O 0.30605 0.4452 0.50145 0.0
O151 O 0.33199 0.41537 0.49451 0.0
H152 H 0.08775 0.38223 0.54278 0.0
H153 H 0.98253 0.36783 0.53872 0.0
H154 H 0.0751 0.33975 0.42786 0.0
H155 H 0.17999 0.35452 0.4316 0.0
H156 H 1.0141 0.48934 0.47365 0.0
H157 H 0.90493 0.50968 0.49541 0.0
H158 H 1.01376 0.5205 0.61004 0.0
H159 H 0.12452 0.50061 0.5871 0.0
C160 C 0.48866 0.9491 0.97309 0.0
Eu161 Eu 0.62315 0.94215 -0.00407 0.0
C162 C 0.43357 0.96538 -0.01935 0.0
C163 C 0.43063 0.97352 0.02036 0.0
C164 C 0.37878 0.98907 0.02738 0.0
C165 C 0.32918 0.99686 -0.00528 0.0
C166 C 0.33617 0.98952 0.95385 0.0
C167 C 0.3877 0.97383 0.94699 0.0
C168 C 0.66149 0.93956 0.08148 0.0
C169 C 0.64536 0.98842 -0.00208 0.0
C170 C 0.88138 0.94378 0.02698 0.0
Eu171 Eu 0.75174 0.94521 -0.0021 0.0
C172 C 0.90703 0.95561 0.05664 0.0
C173 C 0.98037 0.95307 0.06629 0.0
C174 C 1.00594 0.96566 0.09019 0.0
C175 C 0.95855 0.9812 0.10454 0.0
C176 C 0.88406 0.98285 0.09752 0.0
C177 C 0.85852 0.97011 0.07379 0.0
C178 C 0.71603 0.94485 0.91187 0.0
C179 C 0.72914 0.89916 -0.00448 0.0
O180 O 0.54052 0.95221 0.94714 0.0
O181 O 0.51247 0.93844 0.00713 0.0
O182 O 0.62734 0.92848 0.06357 0.0
O183 O 0.67557 0.9515 0.05306 0.0
O184 O 0.59926 0.97645 -0.00331 0.0
O185 O 0.71408 0.97883 -0.00114 0.0
O186 O 0.85921 0.95161 -0.01063 0.0
O187 O 0.83726 0.93385 0.04403 0.0
O188 O 0.75043 0.95643 0.92747 0.0
O189 O 0.70081 0.93416 0.94253 0.0
O190 O 0.77538 0.91092 0.00031 0.0
O191 O 0.66057 0.9088 -0.00916 0.0
H192 H 0.46734 0.96763 0.04639 0.0
H193 H 0.37462 0.9942 0.05935 0.0
H194 H 0.29932 0.99537 0.92787 0.0
H195 H 0.39095 0.96812 0.91564 0.0
H196 H 1.01832 0.94185 0.05361 0.0
H197 H 0.06387 0.9639 0.09412 0.0
H198 H 0.846 0.99445 0.1084 0.0
H199 H 0.80124 0.97202 0.06724 0.0
C200 C 0.6217 0.20222 0.96833 0.0
Eu201 Eu 0.50237 0.19465 -0.00084 0.0
C202 C 0.64174 0.20292 0.92212 0.0
C203 C 0.69967 0.19021 0.90739 0.0
C204 C 0.72047 0.19112 0.86417 0.0
C205 C 0.68516 0.20522 0.83459 0.0
C206 C 0.62164 0.21651 0.84853 0.0
C207 C 0.60055 0.21548 0.89183 0.0
C208 C 0.46835 0.19083 0.08528 0.0
C209 C 0.48462 0.14966 0.00019 0.0
C210 C 0.24208 0.19076 -0.00384 0.0
Eu211 Eu 0.37678 0.19434 -0.00481 0.0
C212 C 0.18174 0.20062 0.96959 0.0
C213 C 0.18941 0.2163 0.94364 0.0
C214 C 0.13656 0.22414 0.91326 0.0
C215 C 0.07501 0.21651 0.90904 0.0
C216 C 0.06677 0.20106 0.9358 0.0
C217 C 0.11997 0.19313 0.96574 0.0
C218 C 0.42305 0.20147 0.91219 0.0
C219 C 0.39285 0.23907 -0.00194 0.0
O220 O 0.56797 0.21476 -0.02051 0.0
O221 O 0.61796 0.18614 -0.01377 0.0
O222 O 0.52753 0.18286 0.0676 0.0
O223 O 0.42765 0.20057 0.05674 0.0
O224 O 0.53268 0.16098 -0.00204 0.0
O225 O 0.41679 0.16008 0.00221 0.0
O226 O 0.26877 0.20019 0.02354 0.0
O227 O 0.29218 0.18067 0.97459 0.0
O228 O 0.3724 0.21204 0.93163 0.0
O229 O 0.45083 0.18856 0.93874 0.0
O230 O 0.34513 0.22786 -0.00481 0.0
O231 O 0.46093 0.22872 0.00055 0.0
H232 H 0.73067 0.17995 0.92967 0.0
H233 H 0.7691 0.18179 0.8557 0.0
H234 H 0.59049 0.22695 0.82681 0.0
H235 H 0.55305 0.22494 0.90167 0.0
H236 H 0.23697 0.22224 0.94611 0.0
H237 H 0.1437 0.23607 0.89315 0.0
H238 H 1.01988 0.19483 0.93273 0.0
H239 H 0.11384 0.18088 -0.01503 0.0
C240 C 0.46189 0.15958 0.50364 0.0
Eu241 Eu 0.45398 0.19485 0.50157 0.0
C242 C 0.41467 0.14665 0.49574 0.0
C243 C 0.33986 0.15091 0.50339 0.0
C244 C 0.29824 0.13731 0.50352 0.0
C245 C 0.33102 0.1192 0.49644 0.0
C246 C 0.40524 0.11538 0.48593 0.0
C247 C 0.4464 0.12899 0.48546 0.0
C248 C 0.46621 0.20878 0.58052 0.0
C249 C 0.26327 0.21253 0.4951 0.0
C250 C 0.40988 0.26394 0.49252 0.0
Eu251 Eu 0.42911 0.22855 0.48987 0.0
C252 C 0.46602 0.27536 0.48951 0.0
C253 C 0.45875 0.29092 0.46071 0.0
C254 C 0.51567 0.30053 0.4552 0.0
C255 C 0.58096 0.29451 0.47797 0.0
C256 C 0.58728 0.27921 0.50739 0.0
C257 C 0.53056 0.26982 0.51323 0.0
C258 C 0.45876 0.21376 0.4105 0.0
C259 C 0.61866 0.2113 0.49497 0.0
O260 O 0.48222 0.16894 0.47028 0.0
O261 O 0.44494 0.16938 0.53676 0.0
O262 O 0.51721 0.19773 0.56231 0.0
O263 O 0.41469 0.21366 0.55384 0.0
O264 O 0.31766 0.19759 0.50316 0.0
O265 O 0.2956 0.22742 0.48714 0.0
O266 O 0.41318 0.25278 0.52691 0.0
O267 O 0.39843 0.25602 0.45767 0.0
O268 O 0.49263 0.22533 0.42638 0.0
O269 O 0.41536 0.20935 0.43871 0.0
O270 O 0.56391 0.22592 0.50081 0.0
O271 O 0.58605 0.19667 0.48935 0.0
H272 H 0.31412 0.16444 0.51164 0.0
H273 H 0.24135 0.1408 0.51131 0.0
H274 H 0.43335 0.10158 0.48123 0.0
H275 H 0.50403 0.12542 0.47971 0.0
H276 H 0.40978 0.29541 0.4419 0.0
H277 H 0.50946 0.31232 0.43232 0.0
H278 H 0.63638 0.27446 0.52596 0.0
H279 H 0.53811 0.25797 0.53593 0.0
C280 C 0.71607 0.87996 0.48647 0.0
Eu281 Eu 0.71565 0.91403 0.50084 0.0
C282 C 0.65717 0.86943 0.48768 0.0
C283 C 0.61289 0.86879 0.52433 0.0
C284 C 0.55251 0.86053 0.52337 0.0
C285 C 0.53469 0.85292 0.48566 0.0
C286 C 0.57958 0.8533 0.44927 0.0
C287 C 0.64042 0.86142 0.45035 0.0
C288 C 0.71331 0.9237 0.58534 0.0
C289 C 0.52259 0.93092 0.50115 0.0
C290 C 0.67102 0.9805 0.52226 0.0
Eu291 Eu 0.68521 0.94707 0.49974 0.0
C292 C 0.61484 0.99148 0.54739 0.0
C293 C 0.6105 1.01033 0.54698 0.0
C294 C 0.55227 1.02117 0.56652 0.0
C295 C 0.49723 1.01332 0.58695 0.0
C296 C 0.50359 0.99424 0.58892 0.0
C297 C 0.56217 0.98338 0.56927 0.0
C298 C 0.6833 0.93911 0.41461 0.0
C299 C 0.87868 0.92995 0.4987 0.0
O300 O 0.71101 0.89296 0.45587 0.0
O301 O 0.73555 0.88514 0.52311 0.0
O302 O 0.76698 0.91329 0.56741 0.0
O303 O 0.6645 0.92944 0.55716 0.0
O304 O 0.57876 0.91638 0.49669 0.0
O305 O 0.55313 0.94583 0.50584 0.0
O306 O 0.65027 0.97636 0.48485 0.0
O307 O 0.71046 0.96656 0.54362 0.0
O308 O 0.63283 0.94996 0.43385 0.0
O309 O 0.73266 0.93203 0.44187 0.0
O310 O 0.82247 0.94481 0.49871 0.0
O311 O 0.84832 0.91475 0.49857 0.0
H312 H 0.62366 0.87508 0.55342 0.0
H313 H 0.51848 0.86058 0.55174 0.0
H314 H 0.56743 0.84739 0.41991 0.0
H315 H 0.67341 0.86185 0.42163 0.0
H316 H 0.65053 1.01676 0.53002 0.0
H317 H 0.54842 1.03586 0.56325 0.0
H318 H 0.46228 0.9878 0.60432 0.0
H319 H 0.56509 0.96875 0.56984 0.0
C320 C 0.6108 0.47666 0.85631 0.0
C321 C 0.53916 0.48524 0.86122 0.0
C322 C 0.66274 0.48671 0.84245 0.0
C323 C 0.6415 0.50599 0.83362 0.0
C324 C 0.56688 0.51349 0.82823 0.0
C325 C 0.51583 0.5031 0.8435 0.0
C326 C 0.74042 0.47672 0.84359 0.0
C327 C 0.54067 0.5328 0.80994 0.0
C328 C 0.7504 0.52049 0.91424 0.0
C329 C 0.81565 0.51164 0.89696 0.0
C330 C 0.6873 0.52323 0.88946 0.0
C331 C 0.69231 0.51783 0.84626 0.0
C332 C 0.76022 0.51615 0.82567 0.0
C333 C 0.82264 0.51225 0.85167 0.0
C334 C 0.61591 0.52847 0.91219 0.0
C335 C 0.76713 0.51541 0.77737 0.0
H336 H 0.62738 0.46244 0.8679 0.0
H337 H 0.45917 0.50944 0.84499 0.0
H338 H 0.76951 0.48037 0.81419 0.0
H339 H 0.76764 0.48018 0.87245 0.0
H340 H 0.74492 0.46163 0.84555 0.0
H341 H 0.51182 0.53237 0.77915 0.0
H342 H 0.50089 0.54039 0.83212 0.0
H343 H 0.58537 0.54032 0.80335 0.0
H344 H 0.74641 0.52213 0.94872 0.0
H345 H 0.87416 0.50718 0.83677 0.0
H346 H 0.59004 0.51636 0.91736 0.0
H347 H 0.57937 0.53921 0.89246 0.0
H348 H 0.62239 0.53381 0.94422 0.0
H349 H 0.80772 0.50331 0.7688 0.0
H350 H 0.78723 0.52768 0.76422 0.0
H351 H 0.71472 0.51526 0.76159 0.0
C352 C 0.26527 0.69558 0.78093 0.0
C353 C 0.28192 0.67975 0.80897 0.0
C354 C 0.32138 0.70354 0.76279 0.0
C355 C 0.39307 0.69596 0.77563 0.0
C356 C 0.40871 0.67742 0.79209 0.0
C357 C 0.35171 0.66923 0.80737 0.0
C358 C 0.30321 0.72142 0.73614 0.0
C359 C 0.48497 0.66739 0.80131 0.0
C360 C 0.56687 0.70947 0.80095 0.0
C361 C 0.55153 0.71418 0.84358 0.0
C362 C 0.51126 0.70701 0.77347 0.0
C363 C 0.44049 0.70825 0.79024 0.0
C364 C 0.42366 0.71647 0.83024 0.0
C365 C 0.47975 0.71944 0.85618 0.0
C366 C 0.53009 0.70157 0.72821 0.0
C367 C 0.34852 0.71973 0.84923 0.0
H368 H 0.21039 0.70326 0.77837 0.0
H369 H 0.36362 0.65606 0.82543 0.0
H370 H 0.26755 0.73182 0.75459 0.0
H371 H 0.35226 0.72665 0.72547 0.0
H372 H 0.2723 0.71943 0.70715 0.0
H373 H 0.48721 0.65277 0.81177 0.0
H374 H 0.5186 0.66798 0.77197 0.0
H375 H 0.50895 0.67387 0.82731 0.0
H376 H 0.62257 0.70628 0.79029 0.0
H377 H 0.46775 0.72363 0.88872 0.0
H378 H 0.4828 0.69914 0.71008 0.0
H379 H 0.57338 0.68915 0.72906 0.0
H380 H 0.55233 0.71263 0.7104 0.0
H381 H 0.30927 0.72785 0.82586 0.0
H382 H 0.3451 0.72725 0.87917 0.0
H383 H 0.33218 0.70648 0.85751 0.0
C384 C 0.62558 0.70048 0.4748 0.0
C385 C 0.66307 0.71454 0.48989 0.0
C386 C 0.5443 0.70028 0.47344 0.0
C387 C 0.48338 0.71413 0.48944 0.0
C388 C 0.52112 0.72819 0.50572 0.0
C389 C 0.60246 0.72836 0.50474 0.0
C390 C 0.52487 0.68437 0.45215 0.0
C391 C 0.47526 0.74395 0.52691 0.0
C392 C 0.24576 0.72839 0.4744 0.0
C393 C 0.20837 0.7134 0.48866 0.0
C394 C 0.327 0.72869 0.47352 0.0
C395 C 0.38796 0.7139 0.48921 0.0
C396 C 0.35026 0.69887 0.5048 0.0
C397 C 0.26897 0.69872 0.50338 0.0
C398 C 0.34632 0.74594 0.45332 0.0
C399 C 0.39611 0.68191 0.5258 0.0
H400 H 0.66126 0.68888 0.46206 0.0
H401 H 0.61881 0.74008 0.5176 0.0
H402 H 0.46784 0.68718 0.44107 0.0
H403 H 0.56038 0.6809 0.4239 0.0
H404 H 0.53392 0.67221 0.4754 0.0
H405 H 0.46587 0.75611 0.50367 0.0
H406 H 0.42245 0.74086 0.53782 0.0
H407 H 0.5037 0.74759 0.55527 0.0
H408 H 0.21005 0.74076 0.46207 0.0
H409 H 0.25266 0.68624 0.51576 0.0
H410 H 0.40329 0.74388 0.44229 0.0
H411 H 0.33735 0.75652 0.47735 0.0
H412 H 0.31066 0.75126 0.42525 0.0
H413 H 0.40561 0.67111 0.50233 0.0
H414 H 0.36759 0.67663 0.55395 0.0
H415 H 0.44887 0.68437 0.53698 0.0
C416 C 0.87484 0.41565 0.50834 0.0
C417 C 0.91202 0.43112 0.49867 0.0
C418 C 0.79356 0.41537 0.50922 0.0
C419 C 0.73223 0.4309 0.4985 0.0
C420 C 0.76964 0.44651 0.48774 0.0
C421 C 0.85108 0.44644 0.48885 0.0
C422 C 0.77471 0.39726 0.52379 0.0
C423 C 0.72316 0.46447 0.47272 0.0
C424 C 0.51622 0.41806 0.47834 0.0
C425 C 0.45672 0.43072 0.49808 0.0
C426 C 0.59757 0.41821 0.47723 0.0
C427 C 0.63667 0.43085 0.4984 0.0
C428 C 0.577 0.44347 0.51933 0.0
C429 C 0.49553 0.44348 0.51801 0.0
C430 C 0.64204 0.40413 0.45051 0.0
C431 C 0.5982 0.45765 0.54613 0.0
H432 H 0.91084 0.40277 0.51671 0.0
H433 H 0.86719 0.45939 0.48048 0.0
H434 H 0.71828 0.39872 0.53559 0.0
H435 H 0.78221 0.38824 0.49638 0.0
H436 H 0.81161 0.39034 0.55004 0.0
H437 H 0.75031 0.47134 0.44632 0.0
H438 H 0.66962 0.46282 0.46093 0.0
H439 H 0.71535 0.4736 0.49989 0.0
H440 H 0.49884 0.40741 0.46146 0.0
H441 H 0.46089 0.45406 0.53488 0.0
H442 H 0.65425 0.39098 0.47013 0.0
H443 H 0.69353 0.40806 0.43971 0.0
H444 H 0.61143 0.40188 0.42161 0.0
H445 H 0.56425 0.45933 0.57562 0.0
H446 H 0.58845 0.47102 0.52718 0.0
H447 H 0.65577 0.45411 0.55609 0.0
C448 C 0.96349 1.01451 0.09791 0.0
C449 C 0.98938 0.99696 0.11756 0.0
C450 C 1.01219 1.02605 0.08622 0.0
C451 C 0.08681 1.01912 0.09195 0.0
C452 C 0.10859 1.00421 0.12271 0.0
C453 C 0.05823 0.9935 0.13635 0.0
C454 C 0.98518 1.04402 0.0613 0.0
C455 C 0.18688 0.99744 0.13482 0.0
C456 C 0.19608 1.00495 -0.00488 0.0
C457 C 0.26177 1.0093 0.00672 0.0
C458 C 0.13363 1.01054 0.01907 0.0
C459 C 0.13694 1.02115 0.05525 0.0
C460 C 0.19917 1.02873 0.06105 0.0
C461 C 0.26182 1.0224 0.03722 0.0
C462 C 0.06817 1.00263 0.00892 0.0
C463 C 0.20242 1.04227 0.09457 0.0
H464 H 0.90855 1.0182 0.08591 0.0
H465 H 0.07647 0.98071 0.15517 0.0
H466 H 1.02838 1.05216 0.05615 0.0
H467 H 0.96334 1.04165 0.02956 0.0
H468 H 0.93993 1.05207 0.07919 0.0
H469 H 0.19362 0.9864 0.16111 0.0
H470 H 0.21787 0.99201 0.1063 0.0
H471 H 0.21051 1.00883 0.14579 0.0
H472 H 0.19509 0.99517 0.97092 0.0
H473 H 0.31193 1.02659 0.04486 0.0
H474 H 1.01928 1.01351 0.0058 0.0
H475 H 0.05956 0.99253 0.03519 0.0
H476 H 0.07421 0.99555 -0.0217 0.0
H477 H 0.15018 1.04635 0.11146 0.0
H478 H 0.21792 1.05472 0.0787 0.0
H479 H 0.24532 1.03649 0.11856 0.0
C480 C 0.94691 0.22734 0.89041 0.0
C481 C 1.01855 0.22425 0.87695 0.0
C482 C 0.89068 0.2296 0.86061 0.0
C483 C 0.90688 0.22903 0.81562 0.0
C484 C 0.97887 0.22895 0.80185 0.0
C485 C 1.03445 0.22626 0.83285 0.0
C486 C 0.81563 0.23023 0.87866 0.0
C487 C 0.9988 0.23066 0.75478 0.0
C488 C 0.78832 0.19917 0.78315 0.0
C489 C 0.72559 0.21103 0.7958 0.0
C490 C 0.85378 0.20546 0.78106 0.0
C491 C 0.85242 0.22426 0.78612 0.0
C492 C 0.78628 0.2366 0.77929 0.0
C493 C 0.72201 0.22987 0.78541 0.0
C494 C 0.92363 0.19167 0.78124 0.0
C495 C 0.78356 0.25691 0.77392 0.0
H496 H 0.93522 0.22649 0.92474 0.0
H497 H 0.09028 0.22451 0.82242 0.0
H498 H 0.77674 0.24189 0.86367 0.0
H499 H 0.79816 0.2174 0.87227 0.0
H500 H 0.81324 0.23151 0.91415 0.0
H501 H 1.02874 0.24204 0.74932 0.0
H502 H 1.03609 0.21802 0.74606 0.0
H503 H 0.95116 0.23332 0.73299 0.0
H504 H 0.78931 0.18459 0.78425 0.0
H505 H 0.67217 0.23961 0.78903 0.0
H506 H 0.95153 0.19117 0.81274 0.0
H507 H 0.95974 0.19571 0.75553 0.0
H508 H 0.91484 0.1777 0.77575 0.0
H509 H 0.77219 0.26309 0.8054 0.0
H510 H 0.73924 0.26341 0.75144 0.0
H511 H 0.8356 0.25997 0.76137 0.0
C512 C 0.13062 0.19774 0.51088 0.0
C513 C 0.16853 0.21244 0.49509 0.0
C514 C 0.04931 0.19748 0.51182 0.0
C515 C 0.98861 0.21211 0.49514 0.0
C516 C 1.02659 0.22695 0.4785 0.0
C517 C 0.10808 0.22698 0.47934 0.0
C518 C 1.02946 0.18049 0.53325 0.0
C519 C 0.98062 0.24387 0.45741 0.0
C520 C 0.77385 0.19775 0.47956 0.0
C521 C 0.71332 0.21146 0.49498 0.0
C522 C 0.85526 0.1979 0.47865 0.0
C523 C 0.89313 0.21191 0.4951 0.0
C524 C 0.83234 0.22567 0.51149 0.0
C525 C 0.75106 0.22542 0.51043 0.0
C526 C 0.90126 0.18216 0.45755 0.0
C527 C 0.85196 0.24156 0.53281 0.0
H528 H 0.16606 0.18552 0.52425 0.0
H529 H 0.1246 0.23929 0.46595 0.0
H530 H 0.97231 0.18276 0.54399 0.0
H531 H 0.03851 0.16954 0.51015 0.0
H532 H 0.06469 0.17552 0.5617 0.0
H533 H 1.00877 0.24908 0.42901 0.0
H534 H 0.92758 0.24142 0.44668 0.0
H535 H 0.9715 0.25473 0.48075 0.0
H536 H 0.75744 0.1861 0.46639 0.0
H537 H 0.71553 0.23696 0.5235 0.0
H538 H 0.91075 0.17003 0.4809 0.0
H539 H 0.95409 0.18526 0.44671 0.0
H540 H 0.87292 0.17847 0.4292 0.0
H541 H 0.81736 0.24482 0.56154 0.0
H542 H 0.8416 0.25379 0.50987 0.0
H543 H 0.90937 0.23889 0.54309 0.0
C544 C 1.03321 0.91564 0.51491 0.0
C545 C 0.97315 0.9302 0.49895 0.0
C546 C 0.11456 0.91567 0.51644 0.0
C547 C 0.15298 0.93037 0.49962 0.0
C548 C 0.09269 0.94503 0.48255 0.0
C549 C 1.01129 0.94489 0.4834 0.0
C550 C 0.15985 0.89894 0.5386 0.0
C551 C 0.11308 0.96187 0.4607 0.0
C552 C 0.36769 0.9446 0.51511 0.0
C553 C 0.42821 0.93062 0.50084 0.0
C554 C 0.28629 0.94456 0.51577 0.0
C555 C 0.2485 0.93041 0.50002 0.0
C556 C 0.30937 0.91632 0.48486 0.0
C557 C 0.39067 0.91649 0.4862 0.0
C558 C 0.24034 0.96057 0.53596 0.0
C559 C 0.28995 0.90011 0.46478 0.0
H560 H 1.01636 0.90336 0.52827 0.0
H561 H 0.97611 0.95712 0.46985 0.0
H562 H 0.212 0.90157 0.55036 0.0
H563 H 0.13039 0.89369 0.56638 0.0
H564 H 0.1707 0.88811 0.51537 0.0
H565 H 0.104 0.97296 0.48343 0.0
H566 H 0.17033 0.95946 0.45013 0.0
H567 H 0.07819 0.96673 0.43204 0.0
H568 H 0.38413 0.95639 0.52757 0.0
H569 H 0.42635 0.90474 0.47407 0.0
H570 H 0.18721 0.95766 0.54677 0.0
H571 H 0.23158 0.97251 0.51209 0.0
H572 H 0.2684 0.96445 0.5642 0.0
H573 H 0.29846 0.88824 0.48889 0.0
H574 H 0.32584 0.89618 0.43693 0.0
H575 H 0.23308 0.90283 0.45344 0.0
C576 C 0.0717 0.6146 0.01013 0.0
C577 C 1.00439 0.62629 -0.00535 0.0
C578 C 0.0925 0.59392 0.01109 0.0
C579 C 0.04938 0.58132 -0.00575 0.0
C580 C 0.98182 0.59312 -0.02238 0.0
C581 C 0.96131 0.61375 -0.0211 0.0
C582 C 0.16354 0.5857 0.03243 0.0
C583 C 0.92802 0.58414 0.95611 0.0
C584 C 0.16064 0.52596 0.97665 0.0
C585 C 0.11912 0.51244 -0.00635 0.0
C586 C 0.13977 0.54663 0.9757 0.0
C587 C 0.07346 0.55739 -0.00601 0.0
C588 C 1.03181 0.54375 0.01199 0.0
C589 C 0.05288 0.52313 0.01075 0.0
C590 C 0.1917 0.55691 0.95271 0.0
C591 C 0.96222 0.55066 0.03489 0.0
H592 H 0.11044 0.62177 0.02326 0.0
H593 H 0.90903 0.62024 0.96576 0.0
H594 H 0.16749 0.57102 0.04268 0.0
H595 H 0.20796 0.58716 0.00952 0.0
H596 H 0.17166 0.59317 0.06122 0.0
H597 H 0.90365 0.59277 0.92752 0.0
H598 H 0.9526 0.57041 0.94553 0.0
H599 H 0.88351 0.58281 -0.02094 0.0
H600 H 0.212 0.5203 0.96229 0.0
H601 H 1.01539 0.51513 0.02497 0.0
H602 H 0.23803 0.55696 0.9744 0.0
H603 H 0.16625 0.57123 0.94276 0.0
H604 H 0.21375 0.54994 0.92351 0.0
H605 H 0.95615 0.54153 0.06388 0.0
H606 H 0.91633 0.55043 0.013 0.0
H607 H 0.95881 0.56476 0.04515 0.0
C608 C 0.90517 0.54881 0.57177 0.0
C609 C 0.88968 0.53192 0.5623 0.0
C610 C 0.85264 0.56475 0.56718 0.0
C611 C 0.78209 0.56375 0.55318 0.0
C612 C 0.76357 0.54644 0.54937 0.0
C613 C 0.81801 0.53066 0.55345 0.0
C614 C 0.87583 0.58278 0.5726 0.0
C615 C 0.68814 0.54441 0.53801 0.0
C616 C 0.70617 0.61274 0.54832 0.0
C617 C 0.73756 0.61717 0.50874 0.0
C618 C 0.70422 0.59443 0.56084 0.0
C619 C 0.73645 0.58071 0.53362 0.0
C620 C 0.7502 0.58567 0.48993 0.0
C621 C 0.75037 0.60405 0.47784 0.0
C622 C 0.67986 0.58961 0.60575 0.0
C623 C 0.77854 0.57145 0.45838 0.0
H624 H 0.9603 0.54991 0.5787 0.0
H625 H 0.8052 0.5175 0.54737 0.0
H626 H 0.87311 0.59079 0.54106 0.0
H627 H 0.83959 0.59094 0.59545 0.0
H628 H 0.93193 0.58095 0.58506 0.0
H629 H 0.67192 0.53336 0.55935 0.0
H630 H 0.64772 0.5572 0.54106 0.0
H631 H 0.68736 0.54019 0.5044 0.0
H632 H 0.69228 0.62307 0.57159 0.0
H633 H 0.77182 0.60745 0.44645 0.0
H634 H 0.72558 0.58838 0.62864 0.0
H635 H 0.66121 0.57635 0.60728 0.0
H636 H 0.63554 0.60047 0.61644 0.0
H637 H 0.83499 0.5649 0.467 0.0
H638 H 0.77802 0.57749 0.42467 0.0
H639 H 0.74556 0.56065 0.4598 0.0
C640 C 0.5526 1.02277 0.01292 0.0
C641 C 0.62079 1.01207 -0.00167 0.0
C642 C 0.53152 1.04337 0.01452 0.0
C643 C 0.57523 1.05701 -0.00082 0.0
C644 C 0.64354 1.04622 -0.0167 0.0
C645 C 0.66433 1.02555 -0.01583 0.0
C646 C 0.45956 1.05022 0.03494 0.0
C647 C 0.69795 1.05645 0.96293 0.0
C648 C 0.46469 0.11353 -0.01686 0.0
C649 C 0.50693 0.12593 0.00036 0.0
C650 C 0.48511 0.0929 -0.01843 0.0
C651 C 0.5513 0.08095 -0.00033 0.0
C652 C 0.5933 0.09342 0.01819 0.0
C653 C 0.57302 0.1141 0.01717 0.0
C654 C 0.43298 0.08413 0.95795 0.0
C655 C 0.66228 0.08506 0.04164 0.0
H656 H 0.51346 1.01478 0.02489 0.0
H657 H 0.71732 1.01987 0.9719 0.0
H658 H 0.45493 1.06426 0.04584 0.0
H659 H 0.41607 1.05009 0.01124 0.0
H660 H 0.4505 1.04099 0.06316 0.0
H661 H 0.72283 1.04956 0.93425 0.0
H662 H 0.67378 1.07082 0.95269 0.0
H663 H 0.74207 1.05629 -0.0136 0.0
H664 H 0.41345 0.12013 0.96879 0.0
H665 H 0.61098 0.12117 0.03152 0.0
H666 H 0.38653 0.08282 -0.02062 0.0
H667 H 0.45824 1.07043 0.9475 0.0
H668 H 0.41114 0.0929 0.92898 0.0
H669 H 0.66768 0.09244 0.07103 0.0
H670 H 0.70878 0.08657 0.02041 0.0
H671 H 0.66528 1.07038 0.05142 0.0
C672 C 0.25075 0.10349 0.54473 0.0
C673 C 0.29343 0.10371 0.50729 0.0
C674 C 0.24349 0.0868 0.56626 0.0
C675 C 0.2836 1.07038 0.55133 0.0
C676 C 0.31293 1.0706 0.50894 0.0
C677 C 0.31493 0.0874 0.48678 0.0
C678 C 0.20028 0.08704 0.60744 0.0
C679 C 0.35256 1.05345 0.48948 0.0
C680 C 0.43393 1.0425 0.61496 0.0
C681 C 0.42965 1.02554 0.59963 0.0
C682 C 0.37896 1.05766 0.60569 0.0
C683 C 0.31684 1.05531 0.58286 0.0
C684 C 0.30445 1.0374 0.57893 0.0
C685 C 0.36226 1.02257 0.58612 0.0
C686 C 0.39348 1.07633 0.61413 0.0
C687 C 0.23394 1.03397 0.56215 0.0
H688 H 0.22969 0.11607 0.55998 0.0
H689 H 0.3427 0.08766 0.45602 0.0
H690 H 0.19883 1.07309 0.62172 0.0
H691 H 0.22256 0.0949 0.63138 0.0
H692 H 0.14402 0.09429 0.6006 0.0
H693 H 0.37123 1.05617 0.45602 0.0
H694 H 0.40062 1.04722 0.50939 0.0
H695 H 0.31679 1.04335 0.48849 0.0
H696 H 0.48448 1.04445 0.62847 0.0
H697 H 0.35665 1.00922 0.57645 0.0
H698 H 0.34825 0.08398 0.63256 0.0
H699 H 0.39857 0.08425 0.58308 0.0
H700 H 0.44391 1.07553 0.63293 0.0
H701 H 0.19247 1.0467 0.55774 0.0
H702 H 0.21296 1.02427 0.5853 0.0
H703 H 0.24273 1.0273 0.53109 0.0
C704 C 0.3197 0.36521 -0.0177 0.0
C705 C 0.25269 0.37572 -0.00132 0.0
C706 C 0.34126 0.34466 -0.01887 0.0
C707 C 0.29923 0.33106 -0.00146 0.0
C708 C 0.23205 0.34164 0.01606 0.0
C709 C 0.21069 0.36224 0.01497 0.0
C710 C 0.41161 0.33779 0.95896 0.0
C711 C 0.17969 0.33124 0.03821 0.0
C712 C 0.30317 0.27414 -0.01863 0.0
C713 C 0.36974 0.26262 -0.00187 0.0
C714 C 0.28195 0.29474 -0.01967 0.0
C715 C 0.32385 0.30728 -0.00162 0.0
C716 C 0.39067 0.29564 0.01627 0.0
C717 C 0.41176 0.27508 0.01504 0.0
C718 C 0.21208 0.30292 0.95762 0.0
C719 C 0.44281 0.30472 0.03902 0.0
H720 H 0.35728 0.37329 0.96855 0.0
H721 H 0.1587 0.36787 0.02861 0.0
H722 H 0.45678 0.33806 -0.01863 0.0
H723 H 0.41561 0.32369 0.94864 0.0
H724 H 0.41843 0.34692 0.93011 0.0
H725 H 0.13424 0.33113 0.01589 0.0
H726 H 0.20516 0.31694 0.04831 0.0
H727 H 0.1564 0.33816 0.06721 0.0
H728 H 0.26558 0.26689 0.96726 0.0
H729 H 0.46335 0.26861 0.02914 0.0
H730 H 0.20832 0.31761 0.94763 0.0
H731 H 0.16643 0.30137 -0.02049 0.0
H732 H 0.20588 0.29547 0.92848 0.0
H733 H 0.48854 0.3061 0.01705 0.0
H734 H 0.46571 0.29613 0.06802 0.0
H735 H 0.41727 0.31844 0.04924 0.0
C736 C 0.82264 0.86426 0.00848 0.0
C737 C 0.75364 0.87564 -0.00487 0.0
C738 C 0.84414 0.84366 0.00907 0.0
C739 C 0.7994 0.83102 -0.00548 0.0
C740 C 0.72996 0.8425 -0.01972 0.0
C741 C 0.70927 0.86305 -0.01855 0.0
C742 C 0.91783 0.83557 0.02713 0.0
C743 C 0.67411 0.83322 0.96192 0.0
C744 C 0.90691 0.77611 0.9726 0.0
C745 C 0.86909 0.76265 -0.0063 0.0
C746 C 0.88601 0.79671 0.97195 0.0
C747 C 0.82367 0.80727 -0.00576 0.0
C748 C 0.7859 0.7937 0.01623 0.0
C749 C 0.80689 0.77315 0.01505 0.0
C750 C 0.9332 0.80716 0.94509 0.0
C751 C 0.72099 0.80062 0.04328 0.0
H752 H 0.86224 0.8716 0.01987 0.0
H753 H 0.65558 0.86942 0.97026 0.0
H754 H 0.92319 0.8209 0.03783 0.0
H755 H 0.95895 0.83701 0.00194 0.0
H756 H 0.92987 0.84313 0.05497 0.0
H757 H 0.64579 0.84171 0.93422 0.0
H758 H 0.69779 0.81951 0.95091 0.0
H759 H 0.63289 0.83176 -0.01297 0.0
H760 H 0.95494 0.77047 0.95487 0.0
H761 H 0.77277 0.76507 0.03257 0.0
H762 H 0.98282 0.80747 0.96367 0.0
H763 H 0.90568 0.8214 0.93601 0.0
H764 H 0.95039 0.80017 0.91511 0.0
H765 H 0.7202 0.79157 0.07309 0.0
H766 H 0.67135 0.8003 0.02473 0.0
H767 H 0.71952 0.81477 0.05267 0.0
C768 C 0.22032 0.79615 0.46343 0.0
C769 C 0.15567 0.80463 0.48224 0.0
C770 C 0.28078 0.80457 0.46132 0.0
C771 C 0.27701 0.8216 0.4797 0.0
C772 C 0.21134 0.83033 0.49811 0.0
C773 C 0.15111 0.8218 0.49878 0.0
C774 C 0.34915 0.79495 0.44054 0.0
C775 C 0.20547 0.84835 0.51848 0.0
C776 C 0.45322 0.83281 0.51775 0.0
C777 C 0.46864 0.84494 0.48411 0.0
C778 C 0.39092 0.82517 0.51674 0.0
C779 C 0.34265 0.82986 0.48137 0.0
C780 C 0.35765 0.84222 0.44747 0.0
C781 C 0.42059 0.84958 0.4492 0.0
C782 C 0.37704 0.81195 0.55337 0.0
C783 C 0.30741 0.84757 0.40928 0.0
H784 H 0.22355 0.78287 0.45048 0.0
H785 H 0.10116 0.82825 0.51362 0.0
H786 H 0.37585 0.80478 0.42118 0.0
H787 H 0.38754 0.78814 0.46612 0.0
H788 H 0.33841 0.78442 0.41914 0.0
H789 H 0.14878 0.85441 0.52661 0.0
H790 H 0.23812 0.84629 0.54856 0.0
H791 H 0.22764 0.85821 0.4965 0.0
H792 H 0.49055 0.82911 0.54463 0.0
H793 H 0.43187 0.85916 0.42344 0.0
H794 H 0.37646 0.79839 0.54089 0.0
H795 H 0.32323 0.81682 0.56778 0.0
H796 H 0.41861 0.8102 0.57919 0.0
H797 H 0.30164 0.8352 0.39272 0.0
H798 H 0.32695 0.85731 0.38554 0.0
H799 H 0.25288 0.85398 0.42044 0.0
C800 C 0.9228 0.33775 0.51609 0.0
C801 C 0.95445 0.34468 0.47912 0.0
C802 C 0.86058 0.33018 0.5131 0.0
C803 C 0.82901 0.32957 0.47215 0.0
C804 C 0.86031 0.33667 0.43472 0.0
C805 C 0.92269 0.34413 0.43864 0.0
C806 C 0.8291 0.32264 0.55376 0.0
C807 C 0.82836 0.3362 0.3905 0.0
C808 C 0.71282 0.29362 0.46604 0.0
C809 C 0.64317 0.30391 0.47151 0.0
C810 C 0.77349 0.30193 0.4642 0.0
C811 C 0.76447 0.32098 0.46866 0.0
C812 C 0.69402 0.33156 0.47251 0.0
C813 C 0.63405 0.3229 0.47365 0.0
C814 C 0.84738 0.29013 0.45937 0.0
C815 C 0.68224 0.3519 0.47709 0.0
H816 H 0.94743 0.33796 0.5474 0.0
H817 H 0.94622 0.34972 0.41 0.0
H818 H 0.77171 0.32938 0.55716 0.0
H819 H 0.83044 0.3078 0.55173 0.0
H820 H 0.85891 0.32461 0.58322 0.0
H821 H 0.85834 0.34261 0.36469 0.0
H822 H 0.82889 0.32183 0.38315 0.0
H823 H 0.77115 0.34343 0.38982 0.0
H824 H 0.71998 0.27894 0.46385 0.0
H825 H 0.58033 0.33087 0.47805 0.0
H826 H 0.87476 0.28776 0.49128 0.0
H827 H 0.88161 0.29694 0.43694 0.0
H828 H 0.84406 0.27665 0.44721 0.0
H829 H 0.70618 0.35463 0.50793 0.0
H830 H 0.62401 0.35836 0.47668 0.0
H831 H 0.70991 0.35854 0.45059 0.0
C832 C 0.21592 0.44911 0.15035 0.0
C833 C 0.19065 0.43524 0.13 0.0
C834 C 0.21814 0.44935 0.19617 0.0
C835 C 0.19463 0.4354 0.22299 0.0
C836 C 0.17083 0.42116 0.20246 0.0
C837 C 0.16918 0.42126 0.15677 0.0
C838 C 0.24412 0.46484 0.21595 0.0
C839 C 0.14509 0.40594 0.22883 0.0
C840 C 0.2424 0.4279 0.34525 0.0
C841 C 0.17904 0.43695 0.36485 0.0
C842 C 0.24877 0.42746 0.29951 0.0
C843 C 0.19047 0.4362 0.27209 0.0
C844 C 0.12652 0.4453 0.29192 0.0
C845 C 0.12173 0.44557 0.33749 0.0
C846 C 0.3181 0.41756 0.28047 0.0
C847 C 0.06243 0.45474 0.2649 0.0
H848 H 0.23262 0.46003 0.13044 0.0
H849 H 0.14968 0.41039 0.1419 0.0
H850 H 0.1991 0.47306 0.23362 0.0
H851 H 0.28759 0.45936 0.23977 0.0
H852 H 0.26485 0.47401 0.1913 0.0
H853 H 0.13192 0.39533 0.20845 0.0
H854 H 0.18702 0.39932 0.25265 0.0
H855 H 0.09613 0.41165 0.24729 0.0
H856 H 0.28726 0.42121 0.36566 0.0
H857 H 0.07232 0.45261 0.3518 0.0
H858 H 0.341 0.42704 0.25772 0.0
H859 H 0.30708 0.40625 0.26169 0.0
H860 H 0.35911 0.41181 0.30563 0.0
H861 H 0.07864 0.4652 0.24181 0.0
H862 H 1.01702 0.46149 0.28486 0.0
H863 H 0.04287 0.44467 0.2456 0.0
C864 C 0.91952 0.69008 0.1518 0.0
C865 C 0.95102 0.70229 0.12489 0.0
C866 C 0.91482 0.69153 0.19738 0.0
C867 C 0.94178 0.70559 0.2171 0.0
C868 C 0.97337 0.71793 0.18988 0.0
C869 C 0.97761 0.71612 0.14471 0.0
C870 C 0.88078 0.67798 0.22453 0.0
C871 C 1.00253 0.73324 0.20846 0.0
C872 C 0.87055 0.72232 0.32774 0.0
C873 C 0.92678 0.71435 0.35651 0.0
C874 C 0.87412 0.71929 0.28304 0.0
C875 C 0.93542 0.70788 0.2657 0.0
C876 C 0.992 0.69955 0.29473 0.0
C877 C 0.98709 0.70287 0.33943 0.0
C878 C 0.81236 0.72864 0.25413 0.0
C879 C 0.05846 0.68726 0.27841 0.0
H880 H 0.89875 0.67932 0.1373 0.0
H881 H 1.0019 0.72575 0.12468 0.0
H882 H 0.91948 0.67086 0.24964 0.0
H883 H 0.83278 0.68526 0.24152 0.0
H884 H 0.86386 0.66759 0.20493 0.0
H885 H 1.0263 0.7416 0.18334 0.0
H886 H 0.95859 0.74234 0.22501 0.0
H887 H 0.04459 0.72758 0.23301 0.0
H888 H 0.82343 0.73117 0.34016 0.0
H889 H 1.03089 0.69653 0.361 0.0
H890 H 0.79125 0.71838 0.23628 0.0
H891 H 0.83182 0.73812 0.22976 0.0
H892 H 0.76728 0.73653 0.27248 0.0
H893 H 0.04278 0.67614 0.26086 0.0
H894 H 0.09614 0.68107 0.30496 0.0
H895 H 0.08747 0.6952 0.25516 0.0
C896 C 0.89718 0.72099 0.83471 0.0
C897 C 0.91866 0.70413 0.85836 0.0
C898 C 0.90158 0.72259 0.78896 0.0
C899 C 0.92542 0.70683 0.76539 0.0
C900 C 0.94627 0.6897 0.78923 0.0
C901 C 0.94392 0.68862 0.83509 0.0
C902 C 0.88177 0.74128 0.76586 0.0
C903 C 0.97037 0.67238 0.76626 0.0
C904 C 0.87379 0.7092 0.64413 0.0
C905 C 0.93967 0.71008 0.62323 0.0
C906 C 0.86847 0.70798 0.68998 0.0
C907 C 0.92977 0.70832 0.71613 0.0
C908 C 0.99569 0.70989 0.69492 0.0
C909 C 1.0001 0.71033 0.64922 0.0
C910 C 0.79764 0.70565 0.71048 0.0
C911 C 0.06222 0.71096 0.7205 0.0
H912 H 0.87796 0.7331 0.85214 0.0
H913 H 0.96037 0.67549 0.85276 0.0
H914 H 0.92781 0.74412 0.74568 0.0
H915 H 0.83545 0.74175 0.74385 0.0
H916 H 0.86718 0.75229 0.78861 0.0
H917 H 0.97768 0.65998 0.7888 0.0
H918 H 0.93021 0.6712 0.74124 0.0
H919 H 1.02237 0.67278 0.74958 0.0
H920 H 0.82699 0.70866 0.62466 0.0
H921 H 0.0514 0.71093 0.63363 0.0
H922 H 0.7779 0.71698 0.7316 0.0
H923 H 0.80561 0.69273 0.73123 0.0
H924 H 0.75531 0.70531 0.68609 0.0
H925 H 0.04886 0.72121 0.74515 0.0
H926 H 0.10607 0.71465 0.69957 0.0
H927 H 0.08298 0.69755 0.73788 0.0
C928 C 0.12873 0.44023 0.6476 0.0
C929 C 0.18976 0.42888 0.63082 0.0
C930 C 0.12371 0.44397 0.69206 0.0
C931 C 0.18108 0.43629 0.72115 0.0
C932 C 0.2428 0.42488 0.70419 0.0
C933 C 0.24628 0.42134 0.65975 0.0
C934 C 0.0567 0.45619 0.70795 0.0
C935 C 0.30579 0.41639 0.73309 0.0
C936 C 0.20381 0.4582 0.82875 0.0
C937 C 0.17812 0.44643 0.8599 0.0
C938 C 0.20398 0.45527 0.78397 0.0
C939 C 0.17732 0.44022 0.769 0.0
C940 C 0.14984 0.42852 0.80029 0.0
C941 C 0.15081 0.43169 0.84496 0.0
C942 C 0.23435 0.46815 0.75263 0.0
C943 C 0.12034 0.41237 0.78662 0.0
H944 H 0.08466 0.44623 0.6259 0.0
H945 H 0.29392 0.41261 0.64757 0.0
H946 H 1.03098 0.44872 0.7339 0.0
H947 H 0.07133 0.46825 0.72212 0.0
H948 H 1.0166 0.46105 0.68174 0.0
H949 H 0.34998 0.40789 0.71531 0.0
H950 H 0.32777 0.42726 0.74811 0.0
H951 H 0.2875 0.4077 0.75969 0.0
H952 H 0.22538 0.4696 0.83948 0.0
H953 H 0.13078 0.42245 0.86835 0.0
H954 H 0.19367 0.47402 0.72744 0.0
H955 H 0.28204 0.46053 0.73597 0.0
H956 H 0.25093 0.47953 0.76884 0.0
H957 H 0.07741 0.41695 0.76196 0.0
H958 H 0.0977 0.40505 0.81421 0.0
H959 H 0.16389 0.4026 0.77153 0.0
C960 C 0.70309 0.95252 0.14955 0.0
C961 C 0.67106 0.93953 0.13007 0.0
C962 C 0.71068 0.95233 0.19526 0.0
C963 C 0.68554 0.93887 0.22294 0.0
C964 C 0.65407 0.92562 0.20321 0.0
C965 C 0.64743 0.9261 0.15762 0.0
C966 C 0.74479 0.96677 0.21399 0.0
C967 C 0.62602 0.911 0.23043 0.0
C968 C 0.74565 0.929 0.34338 0.0
C969 C 0.68669 0.93877 0.36564 0.0
C970 C 0.74681 0.92911 0.29734 0.0
C971 C 0.68768 0.93921 0.27227 0.0
C972 C 0.62843 0.94912 0.29479 0.0
C973 C 0.62869 0.94876 0.34053 0.0
C974 C 0.81136 0.91829 0.27543 0.0
C975 C 0.56377 0.96005 0.27049 0.0
H976 H 0.72183 0.96297 0.12908 0.0
H977 H 0.62286 0.91588 0.14346 0.0
H978 H 0.70409 0.97572 0.23309 0.0
H979 H 0.78927 0.96029 0.23632 0.0
H980 H 0.76659 0.97541 0.18858 0.0
H981 H 0.60588 0.90119 0.21051 0.0
H982 H 0.66931 0.90329 0.2521 0.0
H983 H 0.58128 0.91742 0.25124 0.0
H984 H 0.79096 0.92122 0.36191 0.0
H985 H 0.58253 0.9564 0.35679 0.0
H986 H 0.83457 0.92736 0.25177 0.0
H987 H 0.79436 0.90754 0.25717 0.0
H988 H 0.85413 0.91168 0.29883 0.0
H989 H 0.58116 0.97017 0.24692 0.0
H990 H 0.52275 0.96744 0.2923 0.0
H991 H 0.53795 0.95083 0.25189 0.0
C992 C 0.51319 0.18283 0.1625 0.0
C993 C 0.46265 0.19343 0.13341 0.0
C994 C 0.51152 0.18559 0.20739 0.0
C995 C 0.45833 0.19946 0.22454 0.0
C996 C 0.40664 0.21009 0.19537 0.0
C997 C 0.40918 0.20692 0.1506 0.0
C998 C 0.56755 0.1737 0.23651 0.0
C999 C 0.3491 0.22511 0.21137 0.0
C1000 C 0.41841 0.19762 0.34765 0.0
C1001 C 0.45904 0.20982 0.36314 0.0
C1002 C 0.41768 0.19413 0.30314 0.0
C1003 C 0.45806 0.20309 0.27253 0.0
C1004 C 0.49907 0.21543 0.28813 0.0
C1005 C 0.49931 0.21854 0.3328 0.0
C1006 C 0.37363 0.18073 0.28885 0.0
C1007 C 0.5428 0.22548 0.25746 0.0
H1008 H 0.55482 0.17234 0.15006 0.0
H1009 H 0.36984 0.2153 0.12885 0.0
H1010 H 0.60121 0.18228 0.25146 0.0
H1011 H 0.54076 0.1669 0.26314 0.0
H1012 H 0.60356 0.16305 0.21887 0.0
H1013 H 0.31193 0.23196 0.18517 0.0
H1014 H 0.31694 0.21947 0.23719 0.0
H1015 H 0.37475 0.23552 0.22572 0.0
H1016 H 0.38707 0.19073 0.37043 0.0
H1017 H 0.53091 0.22802 0.34395 0.0
H1018 H 0.40911 0.16947 0.27286 0.0
H1019 H 0.33268 0.18763 0.26474 0.0
H1020 H 0.34554 0.17475 0.31625 0.0
H1021 H 0.58375 0.21553 0.24094 0.0
H1022 H 0.57093 0.23483 0.27417 0.0
H1023 H 0.5071 0.23359 0.23211 0.0
C1024 C 0.41881 0.21979 0.84042 0.0
C1025 C 0.43501 0.20276 0.86396 0.0
C1026 C 0.42646 0.22145 0.79489 0.0
C1027 C 0.44813 0.20563 0.77128 0.0
C1028 C 0.46472 0.18836 0.79502 0.0
C1029 C 0.4593 0.18717 0.84082 0.0
C1030 C 0.41135 0.24025 0.77202 0.0
C1031 C 0.48642 0.17099 0.77188 0.0
C1032 C 0.39419 0.20902 0.65044 0.0
C1033 C 0.46007 0.20936 0.62904 0.0
C1034 C 0.38978 0.20759 0.69625 0.0
C1035 C 0.45219 0.20712 0.72202 0.0
C1036 C 0.51837 0.20807 0.70039 0.0
C1037 C 0.52173 0.2088 0.65458 0.0
C1038 C 0.31837 0.20609 0.71713 0.0
C1039 C 0.58577 0.20851 0.72568 0.0
H1040 H 0.40065 0.23197 0.85781 0.0
H1041 H 0.47171 0.17393 0.85841 0.0
H1042 H 0.45844 0.24234 0.75188 0.0
H1043 H 0.36445 0.24155 0.75002 0.0
H1044 H 0.39968 0.25127 0.79494 0.0
H1045 H 0.49575 0.15861 0.79452 0.0
H1046 H 0.44359 0.16982 0.74857 0.0
H1047 H 0.53653 0.17136 0.7531 0.0
H1048 H 0.34632 0.20917 0.63132 0.0
H1049 H 0.57295 0.20907 0.6386 0.0
H1050 H 0.3006 0.21767 0.73786 0.0
H1051 H 0.32457 0.19331 0.7383 0.0
H1052 H 0.27537 0.20606 0.69297 0.0
H1053 H 0.57642 0.22068 0.74522 0.0
H1054 H 0.63322 0.20908 0.70447 0.0
H1055 H 0.59878 0.19628 0.74852 0.0
C1056 C 0.76674 0.91882 0.66098 0.0
C1057 C 0.70927 0.92698 0.63323 0.0
C1058 C 0.7657 0.92169 0.70579 0.0
C1059 C 0.70571 0.93313 0.72444 0.0
C1060 C 0.64734 0.94142 0.69656 0.0
C1061 C 0.64972 0.93825 0.65171 0.0
C1062 C 0.82954 0.91249 0.73327 0.0
C1063 C 0.58213 0.95376 0.71412 0.0
C1064 C 0.681 0.92774 0.84893 0.0
C1065 C 0.71111 0.94204 0.86396 0.0
C1066 C 0.67775 0.92489 0.80411 0.0
C1067 C 0.70518 0.93656 0.77266 0.0
C1068 C 0.73485 0.95113 0.78776 0.0
C1069 C 0.73737 0.95367 0.83269 0.0
C1070 C 0.64549 0.90918 0.79039 0.0
C1071 C 0.76497 0.96401 0.75631 0.0
H1072 H 0.81329 0.91011 0.64756 0.0
H1073 H 0.60484 0.94468 0.63105 0.0
H1074 H 0.85412 0.92296 0.74816 0.0
H1075 H 0.81149 0.90381 0.75998 0.0
H1076 H 0.8717 0.90382 0.71441 0.0
H1077 H 0.54146 0.95934 0.68863 0.0
H1078 H 0.5563 0.9461 0.73965 0.0
H1079 H 0.59889 0.96534 0.72927 0.0
H1080 H 0.66026 0.91863 0.87234 0.0
H1081 H 0.76062 0.9648 0.84339 0.0
H1082 H 0.68695 0.89946 0.7736 0.0
H1083 H 0.60082 0.9143 0.76711 0.0
H1084 H 0.62435 0.90166 0.8182 0.0
H1085 H 0.81088 0.95629 0.73838 0.0
H1086 H 0.78405 0.97502 0.77263 0.0
H1087 H 0.72318 0.97039 0.73217 0.0
loop_
_geom_bond_atom_site_label_1
_geom_bond_atom_site_label_2
_geom_bond_distance
_geom_bond_site_symmetry_2
_ccdc_geom_bond_type
C0 Eu1 2.835 . S
C0 C2 1.500 1_554 S
C0 O20 1.257 1_554 S
C0 O21 1.260 . S
Eu1 C0 2.835 . S
Eu1 O20 2.473 1_554 S
Eu1 O21 2.480 . S
Eu1 O22 2.430 1_655 S
Eu1 O23 2.670 1_655 S
Eu1 O24 2.394 . S
Eu1 O29 2.355 1_654 S
Eu1 O31 2.374 1_655 S
C2 C0 1.500 1_556 S
C2 C3 1.377 1_556 S
C2 C7 1.377 . S
C3 C2 1.377 1_554 S
C3 C4 1.395 . S
C3 H32 0.931 . S
C4 C3 1.395 . S
C4 C5 1.383 1_554 S
C4 H33 0.931 . S
C5 C4 1.383 1_556 S
C5 C6 1.394 . S
C6 C5 1.394 . S
C6 C7 1.378 . S
C6 H34 0.931 . S
C7 C2 1.377 . S
C7 C6 1.378 . S
C7 H35 0.931 . S
C8 O22 1.259 . S
C8 O23 1.270 . S
C9 O24 1.251 1_455 S
C9 O25 1.256 . S
C10 Eu11 2.835 1_554 S
C10 C12 1.500 . S
C10 O26 1.257 . S
C10 O27 1.260 1_554 S
Eu11 C10 2.835 1_556 S
Eu11 O23 2.355 1_556 S
Eu11 O25 2.371 1_556 S
Eu11 O26 2.473 1_556 S
Eu11 O27 2.480 . S
Eu11 O28 2.430 . S
Eu11 O29 2.670 . S
Eu11 O30 2.394 . S
C12 C10 1.500 . S
C12 C13 1.377 1_554 S
C12 C17 1.377 . S
C13 C12 1.377 1_556 S
C13 C14 1.395 . S
C13 H36 0.931 . S
C14 C13 1.395 . S
C14 C15 1.383 1_556 S
C14 H37 0.931 . S
C15 C14 1.383 1_554 S
C15 C16 1.394 . S
C16 C15 1.394 . S
C16 C17 1.378 . S
C16 H38 0.931 . S
C17 C12 1.377 . S
C17 C16 1.378 . S
C17 H39 0.931 . S
C18 O28 1.259 . S
C18 O29 1.270 . S
C19 O30 1.246 1_554 S
C19 O31 1.254 . S
O20 C0 1.257 1_556 S
O20 Eu1 2.473 1_556 S
O21 C0 1.260 . S
O21 Eu1 2.480 . S
O22 Eu1 2.430 1_455 S
O22 C8 1.259 . S
O23 Eu1 2.670 1_455 S
O23 C8 1.270 . S
O23 Eu11 2.355 1_554 S
O24 Eu1 2.394 . S
O24 C9 1.251 1_655 S
O25 C9 1.256 . S
O25 Eu11 2.371 1_554 S
O26 C10 1.257 . S
O26 Eu11 2.473 1_554 S
O27 C10 1.260 1_556 S
O27 Eu11 2.480 . S
O28 Eu11 2.430 . S
O28 C18 1.259 . S
O29 Eu1 2.355 1_456 S
O29 Eu11 2.670 . S
O29 C18 1.270 . S
O30 Eu11 2.394 . S
O30 C19 1.246 1_556 S
O31 Eu1 2.374 1_455 S
O31 C19 1.254 . S
H32 C3 0.931 . S
H33 C4 0.931 . S
H34 C6 0.931 . S
H35 C7 0.931 . S
H36 C13 0.931 . S
H37 C14 0.931 . S
H38 C16 0.931 . S
H39 C17 0.931 . S
C40 Eu41 2.837 . S
C40 C42 1.498 1_554 S
C40 O60 1.244 1_554 S
C40 O61 1.276 . S
Eu41 C40 2.837 . S
Eu41 O60 2.473 1_554 S
Eu41 O61 2.480 . S
Eu41 O62 2.430 1_455 S
Eu41 O63 2.670 1_455 S
Eu41 O64 2.394 . S
Eu41 O69 2.355 1_454 S
Eu41 O71 2.372 1_454 S
C42 C40 1.498 1_556 S
C42 C43 1.377 1_556 S
C42 C47 1.377 . S
C43 C42 1.377 1_554 S
C43 C44 1.395 . S
C43 H72 0.931 . S
C44 C43 1.395 . S
C44 C45 1.383 1_554 S
C44 H73 0.931 . S
C45 C44 1.383 1_556 S
C45 C46 1.394 . S
C46 C45 1.394 . S
C46 C47 1.378 . S
C46 H74 0.931 . S
C47 C42 1.377 . S
C47 C46 1.378 . S
C47 H75 0.931 . S
C48 O62 1.259 . S
C48 O63 1.270 . S
C49 O64 1.251 1_655 S
C49 O65 1.251 . S
C50 Eu51 2.835 1_554 S
C50 C52 1.500 . S
C50 O66 1.257 . S
C50 O67 1.260 1_554 S
Eu51 C50 2.835 1_556 S
Eu51 O63 2.355 1_556 S
Eu51 O65 2.374 1_556 S
Eu51 O66 2.473 1_556 S
Eu51 O67 2.480 . S
Eu51 O68 2.430 . S
Eu51 O69 2.670 . S
Eu51 O70 2.394 . S
C52 C50 1.500 . S
C52 C53 1.377 1_554 S
C52 C57 1.377 . S
C53 C52 1.377 1_556 S
C53 C54 1.395 . S
C53 H76 0.931 . S
C54 C53 1.395 . S
C54 C55 1.383 1_556 S
C54 H77 0.931 . S
C55 C54 1.383 1_554 S
C55 C56 1.394 . S
C56 C55 1.394 . S
C56 C57 1.378 . S
C56 H78 0.931 . S
C57 C52 1.377 . S
C57 C56 1.378 . S
C57 H79 0.931 . S
C58 O68 1.259 . S
C58 O69 1.270 . S
C59 O70 1.251 . S
C59 O71 1.255 . S
O60 C40 1.244 1_556 S
O60 Eu41 2.473 1_556 S
O61 C40 1.276 . S
O61 Eu41 2.480 . S
O62 Eu41 2.430 1_655 S
O62 C48 1.259 . S
O63 Eu41 2.670 1_655 S
O63 C48 1.270 . S
O63 Eu51 2.355 1_554 S
O64 Eu41 2.394 . S
O64 C49 1.251 1_455 S
O65 C49 1.251 . S
O65 Eu51 2.374 1_554 S
O66 C50 1.257 . S
O66 Eu51 2.473 1_554 S
O67 C50 1.260 1_556 S
O67 Eu51 2.480 . S
O68 Eu51 2.430 . S
O68 C58 1.259 . S
O69 Eu41 2.355 1_656 S
O69 Eu51 2.670 . S
O69 C58 1.270 . S
O70 Eu51 2.394 . S
O70 C59 1.251 . S
O71 Eu41 2.372 1_656 S
O71 C59 1.255 . S
H72 C43 0.931 . S
H73 C44 0.931 . S
H74 C46 0.931 . S
H75 C47 0.931 . S
H76 C53 0.931 . S
H77 C54 0.931 . S
H78 C56 0.931 . S
H79 C57 0.931 . S
C80 Eu81 2.835 . S
C80 C82 1.500 1_455 S
C80 O100 1.257 . S
C80 O101 1.260 . S
Eu81 C80 2.835 . S
Eu81 O100 2.473 . S
Eu81 O101 2.480 . S
Eu81 O102 2.430 . S
Eu81 O103 2.670 . S
Eu81 O104 2.394 1_455 S
Eu81 O109 2.355 . S
Eu81 O111 2.374 . S
C82 C80 1.500 1_655 S
C82 C83 1.377 . S
C82 C87 1.377 . S
C83 C82 1.377 . S
C83 C84 1.395 . S
C83 H112 0.931 . S
C84 C83 1.395 . S
C84 C85 1.383 . S
C84 H113 0.931 . S
C85 C84 1.383 . S
C85 C86 1.394 . S
C86 C85 1.394 . S
C86 C87 1.378 . S
C86 H114 0.931 . S
C87 C82 1.377 . S
C87 C86 1.378 . S
C87 H115 0.931 . S
C88 O102 1.259 . S
C88 O103 1.270 . S
C89 O104 1.251 . S
C89 O105 1.251 . S
C90 Eu91 2.835 . S
C90 C92 1.500 . S
C90 O106 1.257 . S
C90 O107 1.260 . S
Eu91 C90 2.835 . S
Eu91 O103 2.355 . S
Eu91 O105 2.374 1_455 S
Eu91 O106 2.473 . S
Eu91 O107 2.480 . S
Eu91 O108 2.430 . S
Eu91 O109 2.670 . S
Eu91 O110 2.394 . S
C92 C90 1.500 . S
C92 C93 1.377 . S
C92 C97 1.377 . S
C93 C92 1.377 . S
C93 C94 1.395 . S
C93 H116 0.931 . S
C94 C93 1.395 . S
C94 C95 1.383 . S
C94 H117 0.931 . S
C95 C94 1.383 . S
C95 C96 1.394 . S
C96 C95 1.394 . S
C96 C97 1.378 . S
C96 H118 0.931 . S
C97 C92 1.377 . S
C97 C96 1.378 . S
C97 H119 0.931 . S
C98 O108 1.259 . S
C98 O109 1.270 . S
C99 O110 1.251 . S
C99 O111 1.251 . S
O100 C80 1.257 . S
O100 Eu81 2.473 . S
O101 C80 1.260 . S
O101 Eu81 2.480 . S
O102 Eu81 2.430 . S
O102 C88 1.259 . S
O103 Eu81 2.670 . S
O103 C88 1.270 . S
O103 Eu91 2.355 . S
O104 Eu81 2.394 1_655 S
O104 C89 1.251 . S
O105 C89 1.251 . S
O105 Eu91 2.374 1_655 S
O106 C90 1.257 . S
O106 Eu91 2.473 . S
O107 C90 1.260 . S
O107 Eu91 2.480 . S
O108 Eu91 2.430 . S
O108 C98 1.259 . S
O109 Eu81 2.355 . S
O109 Eu91 2.670 . S
O109 C98 1.270 . S
O110 Eu91 2.394 . S
O110 C99 1.251 . S
O111 Eu81 2.374 . S
O111 C99 1.251 . S
H112 C83 0.931 . S
H113 C84 0.931 . S
H114 C86 0.931 . S
H115 C87 0.931 . S
H116 C93 0.931 . S
H117 C94 0.931 . S
H118 C96 0.931 . S
H119 C97 0.931 . S
C120 Eu121 2.835 . S
C120 C122 1.500 . S
C120 O140 1.257 . S
C120 O141 1.260 . S
Eu121 C120 2.835 . S
Eu121 O140 2.473 . S
Eu121 O141 2.480 . S
Eu121 O142 2.430 . S
Eu121 O143 2.670 . S
Eu121 O144 2.394 . S
Eu121 O149 2.355 . S
Eu121 O151 2.374 1_655 S
C122 C120 1.500 . S
C122 C123 1.377 . S
C122 C127 1.377 . S
C123 C122 1.377 . S
C123 C124 1.395 . S
C123 H152 0.931 . S
C124 C123 1.395 . S
C124 C125 1.383 . S
C124 H153 0.931 . S
C125 C124 1.383 . S
C125 C126 1.394 . S
C126 C125 1.394 . S
C126 C127 1.378 . S
C126 H154 0.931 . S
C127 C122 1.377 . S
C127 C126 1.378 . S
C127 H155 0.931 . S
C128 O142 1.259 . S
C128 O143 1.270 . S
C129 O144 1.251 . S
C129 O145 1.251 . S
C130 Eu131 2.835 . S
C130 C132 1.500 1_655 S
C130 O146 1.257 . S
C130 O147 1.260 . S
Eu131 C130 2.835 . S
Eu131 O143 2.355 . S
Eu131 O145 2.374 . S
Eu131 O146 2.473 . S
Eu131 O147 2.480 . S
Eu131 O148 2.430 . S
Eu131 O149 2.670 . S
Eu131 O150 2.394 1_655 S
C132 C130 1.500 1_455 S
C132 C133 1.377 . S
C132 C137 1.377 . S
C133 C132 1.377 . S
C133 C134 1.395 . S
C133 H156 0.931 . S
C134 C133 1.395 . S
C134 C135 1.383 . S
C134 H157 0.931 . S
C135 C134 1.383 . S
C135 C136 1.394 . S
C136 C135 1.394 . S
C136 C137 1.378 . S
C136 H158 0.931 . S
C137 C132 1.377 . S
C137 C136 1.378 . S
C137 H159 0.931 . S
C138 O148 1.259 . S
C138 O149 1.270 . S
C139 O150 1.251 . S
C139 O151 1.251 . S
O140 C120 1.257 . S
O140 Eu121 2.473 . S
O141 C120 1.260 . S
O141 Eu121 2.480 . S
O142 Eu121 2.430 . S
O142 C128 1.259 . S
O143 Eu121 2.670 . S
O143 C128 1.270 . S
O143 Eu131 2.355 . S
O144 Eu121 2.394 . S
O144 C129 1.251 . S
O145 C129 1.251 . S
O145 Eu131 2.374 . S
O146 C130 1.257 . S
O146 Eu131 2.473 . S
O147 C130 1.260 . S
O147 Eu131 2.480 . S
O148 Eu131 2.430 . S
O148 C138 1.259 . S
O149 Eu121 2.355 . S
O149 Eu131 2.670 . S
O149 C138 1.270 . S
O150 Eu131 2.394 1_455 S
O150 C139 1.251 . S
O151 Eu121 2.374 1_455 S
O151 C139 1.251 . S
H152 C123 0.931 . S
H153 C124 0.931 . S
H154 C126 0.931 . S
H155 C127 0.931 . S
H156 C133 0.931 . S
H157 C134 0.931 . S
H158 C136 0.931 . S
H159 C137 0.931 . S
C160 Eu161 2.835 . S
C160 C162 1.500 1_554 S
C160 O180 1.257 1_554 S
C160 O181 1.260 . S
Eu161 C160 2.835 . S
Eu161 O180 2.473 1_554 S
Eu161 O181 2.480 . S
Eu161 O182 2.430 . S
Eu161 O183 2.670 . S
Eu161 O184 2.394 . S
Eu161 O189 2.355 1_554 S
Eu161 O191 2.374 . S
C162 C160 1.500 1_556 S
C162 C163 1.377 1_556 S
C162 C167 1.377 . S
C163 C162 1.377 1_554 S
C163 C164 1.395 . S
C163 H192 0.931 . S
C164 C163 1.395 . S
C164 C165 1.383 1_554 S
C164 H193 0.931 . S
C165 C164 1.383 1_556 S
C165 C166 1.394 . S
C166 C165 1.394 . S
C166 C167 1.378 . S
C166 H194 0.931 . S
C167 C162 1.377 . S
C167 C166 1.378 . S
C167 H195 0.931 . S
C168 O182 1.259 . S
C168 O183 1.270 . S
C169 O184 1.251 . S
C169 O185 1.256 . S
C170 Eu171 2.835 1_554 S
C170 C172 1.500 . S
C170 O186 1.257 . S
C170 O187 1.260 1_554 S
Eu171 C170 2.835 1_556 S
Eu171 O183 2.355 1_556 S
Eu171 O185 2.371 1_556 S
Eu171 O186 2.473 1_556 S
Eu171 O187 2.480 . S
Eu171 O188 2.430 . S
Eu171 O189 2.670 . S
Eu171 O190 2.394 . S
C172 C170 1.500 . S
C172 C173 1.377 1_554 S
C172 C177 1.377 . S
C173 C172 1.377 1_556 S
C173 C174 1.395 . S
C173 H196 0.931 . S
C174 C173 1.395 . S
C174 C175 1.383 1_556 S
C174 H197 0.931 . S
C175 C174 1.383 1_554 S
C175 C176 1.394 . S
C176 C175 1.394 . S
C176 C177 1.378 . S
C176 H198 0.931 . S
C177 C172 1.377 . S
C177 C176 1.378 . S
C177 H199 0.931 . S
C178 O188 1.259 . S
C178 O189 1.270 . S
C179 O190 1.247 1_554 S
C179 O191 1.254 . S
O180 C160 1.257 1_556 S
O180 Eu161 2.473 1_556 S
O181 C160 1.260 . S
O181 Eu161 2.480 . S
O182 Eu161 2.430 . S
O182 C168 1.259 . S
O183 Eu161 2.670 . S
O183 C168 1.270 . S
O183 Eu171 2.355 1_554 S
O184 Eu161 2.394 . S
O184 C169 1.251 . S
O185 C169 1.256 . S
O185 Eu171 2.371 1_554 S
O186 C170 1.257 . S
O186 Eu171 2.473 1_554 S
O187 C170 1.260 1_556 S
O187 Eu171 2.480 . S
O188 Eu171 2.430 . S
O188 C178 1.259 . S
O189 Eu161 2.355 1_556 S
O189 Eu171 2.670 . S
O189 C178 1.270 . S
O190 Eu171 2.394 . S
O190 C179 1.247 1_556 S
O191 Eu161 2.374 . S
O191 C179 1.254 . S
H192 C163 0.931 . S
H193 C164 0.931 . S
H194 C166 0.931 . S
H195 C167 0.931 . S
H196 C173 0.931 . S
H197 C174 0.931 . S
H198 C176 0.931 . S
H199 C177 0.931 . S
C200 Eu201 2.837 . S
C200 C202 1.498 1_554 S
C200 O220 1.244 1_554 S
C200 O221 1.276 . S
Eu201 C200 2.837 . S
Eu201 O220 2.473 1_554 S
Eu201 O221 2.480 . S
Eu201 O222 2.430 . S
Eu201 O223 2.670 . S
Eu201 O224 2.394 . S
Eu201 O229 2.355 1_554 S
Eu201 O231 2.372 1_554 S
C202 C200 1.498 1_556 S
C202 C203 1.377 1_556 S
C202 C207 1.377 . S
C203 C202 1.377 1_554 S
C203 C204 1.395 . S
C203 H232 0.931 . S
C204 C203 1.395 . S
C204 C205 1.383 1_554 S
C204 H233 0.931 . S
C205 C204 1.383 1_556 S
C205 C206 1.394 . S
C206 C205 1.394 . S
C206 C207 1.378 . S
C206 H234 0.931 . S
C207 C202 1.377 . S
C207 C206 1.378 . S
C207 H235 0.931 . S
C208 O222 1.259 . S
C208 O223 1.270 . S
C209 O224 1.251 . S
C209 O225 1.251 . S
C210 Eu211 2.835 1_554 S
C210 C212 1.500 . S
C210 O226 1.257 . S
C210 O227 1.260 1_554 S
Eu211 C210 2.835 1_556 S
Eu211 O223 2.355 1_556 S
Eu211 O225 2.374 1_556 S
Eu211 O226 2.473 1_556 S
Eu211 O227 2.480 . S
Eu211 O228 2.430 . S
Eu211 O229 2.670 . S
Eu211 O230 2.394 . S
C212 C210 1.500 . S
C212 C213 1.377 1_554 S
C212 C217 1.377 . S
C213 C212 1.377 1_556 S
C213 C214 1.395 . S
C213 H236 0.931 . S
C214 C213 1.395 . S
C214 C215 1.383 1_556 S
C214 H237 0.931 . S
C215 C214 1.383 1_554 S
C215 C216 1.394 . S
C216 C215 1.394 . S
C216 C217 1.378 . S
C216 H238 0.931 . S
C217 C212 1.377 . S
C217 C216 1.378 . S
C217 H239 0.931 . S
C218 O228 1.259 . S
C218 O229 1.270 . S
C219 O230 1.251 . S
C219 O231 1.255 . S
O220 C200 1.244 1_556 S
O220 Eu201 2.473 1_556 S
O221 C200 1.276 . S
O221 Eu201 2.480 . S
O222 Eu201 2.430 . S
O222 C208 1.259 . S
O223 Eu201 2.670 . S
O223 C208 1.270 . S
O223 Eu211 2.355 1_554 S
O224 Eu201 2.394 . S
O224 C209 1.251 . S
O225 C209 1.251 . S
O225 Eu211 2.374 1_554 S
O226 C210 1.257 . S
O226 Eu211 2.473 1_554 S
O227 C210 1.260 1_556 S
O227 Eu211 2.480 . S
O228 Eu211 2.430 . S
O228 C218 1.259 . S
O229 Eu201 2.355 1_556 S
O229 Eu211 2.670 . S
O229 C218 1.270 . S
O230 Eu211 2.394 . S
O230 C219 1.251 . S
O231 Eu201 2.372 1_556 S
O231 C219 1.255 . S
H232 C203 0.931 . S
H233 C204 0.931 . S
H234 C206 0.931 . S
H235 C207 0.931 . S
H236 C213 0.931 . S
H237 C214 0.931 . S
H238 C216 0.931 . S
H239 C217 0.931 . S
C240 Eu241 2.835 . S
C240 C242 1.500 . S
C240 O260 1.257 . S
C240 O261 1.260 . S
Eu241 C240 2.835 . S
Eu241 O260 2.473 . S
Eu241 O261 2.480 . S
Eu241 O262 2.430 . S
Eu241 O263 2.670 . S
Eu241 O264 2.394 . S
Eu241 O269 2.355 . S
Eu241 O271 2.374 . S
C242 C240 1.500 . S
C242 C243 1.377 . S
C242 C247 1.377 . S
C243 C242 1.377 . S
C243 C244 1.395 . S
C243 H272 0.931 . S
C244 C243 1.395 . S
C244 C245 1.383 . S
C244 H273 0.931 . S
C245 C244 1.383 . S
C245 C246 1.394 . S
C246 C245 1.394 . S
C246 C247 1.378 . S
C246 H274 0.931 . S
C247 C242 1.377 . S
C247 C246 1.378 . S
C247 H275 0.931 . S
C248 O262 1.259 . S
C248 O263 1.270 . S
C249 O264 1.251 . S
C249 O265 1.251 . S
C250 Eu251 2.835 . S
C250 C252 1.500 . S
C250 O266 1.257 . S
C250 O267 1.260 . S
Eu251 C250 2.835 . S
Eu251 O263 2.355 . S
Eu251 O265 2.374 . S
Eu251 O266 2.473 . S
Eu251 O267 2.480 . S
Eu251 O268 2.430 . S
Eu251 O269 2.670 . S
Eu251 O270 2.394 . S
C252 C250 1.500 . S
C252 C253 1.377 . S
C252 C257 1.377 . S
C253 C252 1.377 . S
C253 C254 1.395 . S
C253 H276 0.931 . S
C254 C253 1.395 . S
C254 C255 1.383 . S
C254 H277 0.931 . S
C255 C254 1.383 . S
C255 C256 1.394 . S
C256 C255 1.394 . S
C256 C257 1.378 . S
C256 H278 0.931 . S
C257 C252 1.377 . S
C257 C256 1.378 . S
C257 H279 0.931 . S
C258 O268 1.259 . S
C258 O269 1.270 . S
C259 O270 1.251 . S
C259 O271 1.251 . S
O260 C240 1.257 . S
O260 Eu241 2.473 . S
O261 C240 1.260 . S
O261 Eu241 2.480 . S
O262 Eu241 2.430 . S
O262 C248 1.259 . S
O263 Eu241 2.670 . S
O263 C248 1.270 . S
O263 Eu251 2.355 . S
O264 Eu241 2.394 . S
O264 C249 1.251 . S
O265 C249 1.251 . S
O265 Eu251 2.374 . S
O266 C250 1.257 . S
O266 Eu251 2.473 . S
O267 C250 1.260 . S
O267 Eu251 2.480 . S
O268 Eu251 2.430 . S
O268 C258 1.259 . S
O269 Eu241 2.355 . S
O269 Eu251 2.670 . S
O269 C258 1.270 . S
O270 Eu251 2.394 . S
O270 C259 1.251 . S
O271 Eu241 2.374 . S
O271 C259 1.251 . S
H272 C243 0.931 . S
H273 C244 0.931 . S
H274 C246 0.931 . S
H275 C247 0.931 . S
H276 C253 0.931 . S
H277 C254 0.931 . S
H278 C256 0.931 . S
H279 C257 0.931 . S
C280 Eu281 2.835 . S
C280 C282 1.500 . S
C280 O300 1.257 . S
C280 O301 1.260 . S
Eu281 C280 2.835 . S
Eu281 O300 2.473 . S
Eu281 O301 2.480 . S
Eu281 O302 2.430 . S
Eu281 O303 2.670 . S
Eu281 O304 2.394 . S
Eu281 O309 2.355 . S
Eu281 O311 2.374 . S
C282 C280 1.500 . S
C282 C283 1.377 . S
C282 C287 1.377 . S
C283 C282 1.377 . S
C283 C284 1.395 . S
C283 H312 0.931 . S
C284 C283 1.395 . S
C284 C285 1.383 . S
C284 H313 0.931 . S
C285 C284 1.383 . S
C285 C286 1.394 . S
C286 C285 1.394 . S
C286 C287 1.378 . S
C286 H314 0.931 . S
C287 C282 1.377 . S
C287 C286 1.378 . S
C287 H315 0.931 . S
C288 O302 1.259 . S
C288 O303 1.270 . S
C289 O304 1.251 . S
C289 O305 1.251 . S
C290 Eu291 2.835 . S
C290 C292 1.500 . S
C290 O306 1.257 . S
C290 O307 1.260 . S
Eu291 C290 2.835 . S
Eu291 O303 2.355 . S
Eu291 O305 2.374 . S
Eu291 O306 2.473 . S
Eu291 O307 2.480 . S
Eu291 O308 2.430 . S
Eu291 O309 2.670 . S
Eu291 O310 2.394 . S
C292 C290 1.500 . S
C292 C293 1.377 . S
C292 C297 1.377 . S
C293 C292 1.377 . S
C293 C294 1.395 . S
C293 H316 0.931 . S
C294 C293 1.395 . S
C294 C295 1.383 . S
C294 H317 0.931 . S
C295 C294 1.383 . S
C295 C296 1.394 . S
C296 C295 1.394 . S
C296 C297 1.378 . S
C296 H318 0.931 . S
C297 C292 1.377 . S
C297 C296 1.378 . S
C297 H319 0.931 . S
C298 O308 1.259 . S
C298 O309 1.270 . S
C299 O310 1.251 . S
C299 O311 1.251 . S
O300 C280 1.257 . S
O300 Eu281 2.473 . S
O301 C280 1.260 . S
O301 Eu281 2.480 . S
O302 Eu281 2.430 . S
O302 C288 1.259 . S
O303 Eu281 2.670 . S
O303 C288 1.270 . S
O303 Eu291 2.355 . S
O304 Eu281 2.394 . S
O304 C289 1.251 . S
O305 C289 1.251 . S
O305 Eu291 2.374 . S
O306 C290 1.257 . S
O306 Eu291 2.473 . S
O307 C290 1.260 . S
O307 Eu291 2.480 . S
O308 Eu291 2.430 . S
O308 C298 1.259 . S
O309 Eu281 2.355 . S
O309 Eu291 2.670 . S
O309 C298 1.270 . S
O310 Eu291 2.394 . S
O310 C299 1.251 . S
O311 Eu281 2.374 . S
O311 C299 1.251 . S
H312 C283 0.931 . S
H313 C284 0.931 . S
H314 C286 0.931 . S
H315 C287 0.931 . S
H316 C293 0.931 . S
H317 C294 0.931 . S
H318 C296 0.931 . S
H319 C297 0.931 . S
C320 C321 1.391 . S
C320 C322 1.394 . S
C320 H336 0.931 . S
C321 C320 1.391 . S
C321 C325 1.376 . S
C322 C320 1.394 . S
C322 C323 1.371 . S
C322 C326 1.531 . S
C323 C322 1.371 . S
C323 C324 1.409 1_554 S
C323 C331 1.503 1_554 S
C324 C323 1.409 1_556 S
C324 C325 1.392 1_556 S
C324 C327 1.511 . S
C325 C321 1.376 . S
C325 C324 1.392 1_554 S
C325 H337 0.929 . S
C326 C322 1.531 . S
C326 H338 0.962 . S
C326 H339 0.962 . S
C326 H340 0.960 . S
C327 C324 1.511 . S
C327 H341 0.961 . S
C327 H342 0.961 . S
C327 H343 0.961 . S
C328 C329 1.370 1_554 S
C328 C330 1.363 . S
C328 H344 0.931 . S
C329 C328 1.370 1_556 S
C329 C333 1.408 . S
C330 C328 1.363 . S
C330 C331 1.370 1_554 S
C330 C334 1.524 . S
C331 C323 1.503 1_556 S
C331 C330 1.370 1_556 S
C331 C332 1.403 . S
C332 C331 1.403 . S
C332 C333 1.404 . S
C332 C335 1.539 . S
C333 C329 1.408 . S
C333 C332 1.404 . S
C333 H345 0.930 . S
C334 C330 1.524 . S
C334 H346 0.956 . S
C334 H347 0.961 . S
C334 H348 0.961 . S
C335 C332 1.539 . S
C335 H349 0.958 . S
C335 H350 0.961 . S
C335 H351 0.960 . S
H336 C320 0.931 . S
H337 C325 0.929 . S
H338 C326 0.962 . S
H339 C326 0.962 . S
H340 C326 0.960 . S
H341 C327 0.961 . S
H342 C327 0.961 . S
H343 C327 0.961 . S
H344 C328 0.931 . S
H345 C333 0.930 . S
H346 C334 0.956 . S
H347 C334 0.961 . S
H348 C334 0.961 . S
H349 C335 0.958 . S
H350 C335 0.961 . S
H351 C335 0.960 . S
C352 C353 1.391 1_554 S
C352 C354 1.394 . S
C352 H368 0.931 . S
C353 C352 1.391 1_556 S
C353 C357 1.376 . S
C354 C352 1.394 . S
C354 C355 1.369 . S
C354 C358 1.531 . S
C355 C354 1.369 . S
C355 C356 1.410 1_554 S
C355 C363 1.503 . S
C356 C355 1.410 1_556 S
C356 C357 1.392 . S
C356 C359 1.511 . S
C357 C353 1.376 . S
C357 C356 1.392 . S
C357 H369 0.929 . S
C358 C354 1.531 . S
C358 H370 0.960 . S
C358 H371 0.962 . S
C358 H372 0.960 . S
C359 C356 1.511 . S
C359 H373 0.961 . S
C359 H374 0.961 . S
C359 H375 0.961 1_556 S
C360 C361 1.370 1_556 S
C360 C362 1.363 . S
C360 H376 0.931 . S
C361 C360 1.370 1_554 S
C361 C365 1.408 . S
C362 C360 1.363 . S
C362 C363 1.370 1_556 S
C362 C366 1.524 . S
C363 C355 1.503 . S
C363 C362 1.370 1_554 S
C363 C364 1.403 . S
C364 C363 1.403 . S
C364 C365 1.404 . S
C364 C367 1.539 . S
C365 C361 1.408 . S
C365 C364 1.404 . S
C365 H377 0.930 . S
C366 C362 1.524 . S
C366 H378 0.956 . S
C366 H379 0.961 . S
C366 H380 0.961 . S
C367 C364 1.539 . S
C367 H381 0.958 . S
C367 H382 0.961 . S
C367 H383 0.960 . S
H368 C352 0.931 . S
H369 C357 0.929 . S
H370 C358 0.960 . S
H371 C358 0.962 . S
H372 C358 0.960 . S
H373 C359 0.961 . S
H374 C359 0.961 . S
H375 C359 0.961 1_554 S
H376 C360 0.931 . S
H377 C365 0.930 . S
H378 C366 0.956 . S
H379 C366 0.961 . S
H380 C366 0.961 . S
H381 C367 0.958 . S
H382 C367 0.961 . S
H383 C367 0.960 . S
C384 C385 1.391 . S
C384 C386 1.394 . S
C384 H400 0.931 . S
C385 C384 1.391 . S
C385 C389 1.376 . S
C386 C384 1.394 . S
C386 C387 1.369 . S
C386 C390 1.531 . S
C387 C386 1.369 . S
C387 C388 1.410 . S
C387 C395 1.503 . S
C388 C387 1.410 . S
C388 C389 1.392 . S
C388 C391 1.511 . S
C389 C385 1.376 . S
C389 C388 1.392 . S
C389 H401 0.929 . S
C390 C386 1.531 . S
C390 H402 0.960 . S
C390 H403 0.962 . S
C390 H404 0.960 . S
C391 C388 1.511 . S
C391 H405 0.961 . S
C391 H406 0.961 . S
C391 H407 0.961 . S
C392 C393 1.370 . S
C392 C394 1.363 . S
C392 H408 0.931 . S
C393 C392 1.370 . S
C393 C397 1.408 . S
C394 C392 1.363 . S
C394 C395 1.370 . S
C394 C398 1.524 . S
C395 C387 1.503 . S
C395 C394 1.370 . S
C395 C396 1.403 . S
C396 C395 1.403 . S
C396 C397 1.404 . S
C396 C399 1.539 . S
C397 C393 1.408 . S
C397 C396 1.404 . S
C397 H409 0.930 . S
C398 C394 1.524 . S
C398 H410 0.956 . S
C398 H411 0.961 . S
C398 H412 0.961 . S
C399 C396 1.539 . S
C399 H413 0.958 . S
C399 H414 0.961 . S
C399 H415 0.960 . S
H400 C384 0.931 . S
H401 C389 0.929 . S
H402 C390 0.960 . S
H403 C390 0.962 . S
H404 C390 0.960 . S
H405 C391 0.961 . S
H406 C391 0.961 . S
H407 C391 0.961 . S
H408 C392 0.931 . S
H409 C397 0.930 . S
H410 C398 0.956 . S
H411 C398 0.961 . S
H412 C398 0.961 . S
H413 C399 0.958 . S
H414 C399 0.961 . S
H415 C399 0.960 . S
C416 C417 1.391 . S
C416 C418 1.394 . S
C416 H432 0.931 . S
C417 C416 1.391 . S
C417 C421 1.376 . S
C418 C416 1.394 . S
C418 C419 1.369 . S
C418 C422 1.531 . S
C419 C418 1.369 . S
C419 C420 1.410 . S
C419 C427 1.503 . S
C420 C419 1.410 . S
C420 C421 1.392 . S
C420 C423 1.511 . S
C421 C417 1.376 . S
C421 C420 1.392 . S
C421 H433 0.929 . S
C422 C418 1.531 . S
C422 H434 0.960 . S
C422 H435 0.962 . S
C422 H436 0.960 . S
C423 C420 1.511 . S
C423 H437 0.961 . S
C423 H438 0.961 . S
C423 H439 0.961 . S
C424 C425 1.370 . S
C424 C426 1.363 . S
C424 H440 0.931 . S
C425 C424 1.370 . S
C425 C429 1.408 . S
C426 C424 1.363 . S
C426 C427 1.370 . S
C426 C430 1.524 . S
C427 C419 1.503 . S
C427 C426 1.370 . S
C427 C428 1.403 . S
C428 C427 1.403 . S
C428 C429 1.404 . S
C428 C431 1.539 . S
C429 C425 1.408 . S
C429 C428 1.404 . S
C429 H441 0.930 . S
C430 C426 1.524 . S
C430 H442 0.956 . S
C430 H443 0.961 . S
C430 H444 0.961 . S
C431 C428 1.539 . S
C431 H445 0.958 . S
C431 H446 0.961 . S
C431 H447 0.960 . S
H432 C416 0.931 . S
H433 C421 0.929 . S
H434 C422 0.960 . S
H435 C422 0.962 . S
H436 C422 0.960 . S
H437 C423 0.961 . S
H438 C423 0.961 . S
H439 C423 0.961 . S
H440 C424 0.931 . S
H441 C429 0.930 . S
H442 C430 0.956 . S
H443 C430 0.961 . S
H444 C430 0.961 . S
H445 C431 0.958 . S
H446 C431 0.961 . S
H447 C431 0.960 . S
C448 C449 1.391 . S
C448 C450 1.394 . S
C448 H464 0.931 . S
C449 C448 1.391 . S
C449 C453 1.376 1_655 S
C450 C448 1.394 . S
C450 C451 1.369 1_655 S
C450 C454 1.531 1_554 S
C451 C450 1.369 1_455 S
C451 C452 1.410 . S
C451 C459 1.503 . S
C452 C451 1.410 . S
C452 C453 1.392 . S
C452 C455 1.511 . S
C453 C449 1.376 1_455 S
C453 C452 1.392 . S
C453 H465 0.929 . S
C454 C450 1.531 1_556 S
C454 H466 0.960 . S
C454 H467 0.962 . S
C454 H468 0.960 . S
C455 C452 1.511 . S
C455 H469 0.961 . S
C455 H470 0.961 . S
C455 H471 0.961 . S
C456 C457 1.370 . S
C456 C458 1.363 . S
C456 H472 0.931 . S
C457 C456 1.370 . S
C457 C461 1.408 1_556 S
C458 C456 1.363 . S
C458 C459 1.370 1_556 S
C458 C462 1.524 . S
C459 C451 1.503 . S
C459 C458 1.370 1_554 S
C459 C460 1.403 . S
C460 C459 1.403 . S
C460 C461 1.404 . S
C460 C463 1.539 . S
C461 C457 1.408 1_554 S
C461 C460 1.404 . S
C461 H473 0.930 . S
C462 C458 1.524 . S
C462 H474 0.956 . S
C462 H475 0.961 . S
C462 H476 0.961 . S
C463 C460 1.539 . S
C463 H477 0.958 . S
C463 H478 0.961 . S
C463 H479 0.960 . S
H464 C448 0.931 . S
H465 C453 0.929 . S
H466 C454 0.960 . S
H467 C454 0.962 . S
H468 C454 0.960 . S
H469 C455 0.961 . S
H470 C455 0.961 . S
H471 C455 0.961 . S
H472 C456 0.931 . S
H473 C461 0.930 . S
H474 C462 0.956 . S
H475 C462 0.961 . S
H476 C462 0.961 . S
H477 C463 0.958 . S
H478 C463 0.961 . S
H479 C463 0.960 . S
C480 C481 1.391 1_655 S
C480 C482 1.394 . S
C480 H496 0.931 . S
C481 C480 1.391 1_455 S
C481 C485 1.376 1_554 S
C482 C480 1.394 . S
C482 C483 1.379 . S
C482 C486 1.531 . S
C483 C482 1.379 . S
C483 C484 1.396 1_654 S
C483 C491 1.500 1_554 S
C484 C483 1.396 1_456 S
C484 C485 1.399 . S
C484 C487 1.514 . S
C485 C481 1.376 1_556 S
C485 C484 1.399 . S
C485 H497 0.929 . S
C486 C482 1.531 . S
C486 H498 0.960 . S
C486 H499 0.962 . S
C486 H500 0.960 . S
C487 C484 1.514 . S
C487 H501 0.961 . S
C487 H502 0.961 . S
C487 H503 0.961 . S
C488 C489 1.370 1_554 S
C488 C490 1.363 . S
C488 H504 0.931 . S
C489 C488 1.370 1_556 S
C489 C493 1.408 . S
C490 C488 1.363 . S
C490 C491 1.370 1_554 S
C490 C494 1.524 . S
C491 C483 1.500 1_556 S
C491 C490 1.370 1_556 S
C491 C492 1.403 . S
C492 C491 1.403 . S
C492 C493 1.404 . S
C492 C495 1.539 . S
C493 C489 1.408 . S
C493 C492 1.404 . S
C493 H505 0.930 . S
C494 C490 1.524 . S
C494 H506 0.956 . S
C494 H507 0.961 . S
C494 H508 0.961 . S
C495 C492 1.539 . S
C495 H509 0.958 . S
C495 H510 0.961 . S
C495 H511 0.960 . S
H496 C480 0.931 . S
H497 C485 0.929 . S
H498 C486 0.960 . S
H499 C486 0.962 . S
H500 C486 0.960 . S
H501 C487 0.961 . S
H502 C487 0.961 . S
H503 C487 0.961 . S
H504 C488 0.931 . S
H505 C493 0.930 . S
H506 C494 0.956 . S
H507 C494 0.961 . S
H508 C494 0.961 . S
H509 C495 0.958 . S
H510 C495 0.961 . S
H511 C495 0.960 . S
C512 C513 1.391 . S
C512 C514 1.394 . S
C512 H528 0.931 . S
C513 C512 1.391 . S
C513 C517 1.376 . S
C514 C512 1.394 . S
C514 C515 1.369 . S
C514 C518 1.531 . S
C515 C514 1.369 . S
C515 C516 1.410 . S
C515 C523 1.503 . S
C516 C515 1.410 . S
C516 C517 1.392 . S
C516 C519 1.511 . S
C517 C513 1.376 . S
C517 C516 1.392 . S
C517 H529 0.929 . S
C518 C514 1.531 . S
C518 H530 0.960 . S
C518 H531 0.962 . S
C518 H532 0.960 . S
C519 C516 1.511 . S
C519 H533 0.961 . S
C519 H534 0.961 . S
C519 H535 0.961 . S
C520 C521 1.370 . S
C520 C522 1.363 . S
C520 H536 0.931 . S
C521 C520 1.370 . S
C521 C525 1.408 . S
C522 C520 1.363 . S
C522 C523 1.370 1_655 S
C522 C526 1.524 1_655 S
C523 C515 1.503 . S
C523 C522 1.370 1_455 S
C523 C524 1.403 1_455 S
C524 C523 1.403 1_655 S
C524 C525 1.404 . S
C524 C527 1.539 . S
C525 C521 1.408 . S
C525 C524 1.404 . S
C525 H537 0.930 . S
C526 C522 1.524 1_455 S
C526 H538 0.956 . S
C526 H539 0.961 . S
C526 H540 0.961 . S
C527 C524 1.539 . S
C527 H541 0.957 1_655 S
C527 H542 0.961 . S
C527 H543 0.960 1_655 S
H528 C512 0.931 . S
H529 C517 0.929 . S
H530 C518 0.960 . S
H531 C518 0.962 . S
H532 C518 0.960 . S
H533 C519 0.961 . S
H534 C519 0.961 . S
H535 C519 0.961 . S
H536 C520 0.931 . S
H537 C525 0.930 . S
H538 C526 0.956 . S
H539 C526 0.961 . S
H540 C526 0.961 . S
H541 C527 0.957 1_455 S
H542 C527 0.961 . S
H543 C527 0.960 1_455 S
C544 C545 1.391 . S
C544 C546 1.394 . S
C544 H560 0.931 . S
C545 C544 1.391 . S
C545 C549 1.376 . S
C546 C544 1.394 . S
C546 C547 1.369 . S
C546 C550 1.531 . S
C547 C546 1.369 . S
C547 C548 1.410 . S
C547 C555 1.503 . S
C548 C547 1.410 . S
C548 C549 1.392 . S
C548 C551 1.511 . S
C549 C545 1.376 . S
C549 C548 1.392 . S
C549 H561 0.929 . S
C550 C546 1.531 . S
C550 H562 0.960 . S
C550 H563 0.962 . S
C550 H564 0.960 . S
C551 C548 1.511 . S
C551 H565 0.961 . S
C551 H566 0.961 . S
C551 H567 0.961 . S
C552 C553 1.370 . S
C552 C554 1.363 . S
C552 H568 0.931 . S
C553 C552 1.370 . S
C553 C557 1.408 . S
C554 C552 1.363 . S
C554 C555 1.370 1_455 S
C554 C558 1.524 1_455 S
C555 C547 1.503 . S
C555 C554 1.370 1_655 S
C555 C556 1.403 1_655 S
C556 C555 1.403 1_455 S
C556 C557 1.404 . S
C556 C559 1.539 1_455 S
C557 C553 1.408 . S
C557 C556 1.404 . S
C557 H569 0.930 . S
C558 C554 1.524 1_655 S
C558 H570 0.956 . S
C558 H571 0.961 . S
C558 H572 0.960 . S
C559 C556 1.539 1_655 S
C559 H573 0.958 . S
C559 H574 0.961 1_655 S
C559 H575 0.960 . S
H560 C544 0.931 . S
H561 C549 0.929 . S
H562 C550 0.960 . S
H563 C550 0.962 . S
H564 C550 0.960 . S
H565 C551 0.961 . S
H566 C551 0.961 . S
H567 C551 0.961 . S
H568 C552 0.931 . S
H569 C557 0.930 . S
H570 C558 0.956 . S
H571 C558 0.961 . S
H572 C558 0.960 . S
H573 C559 0.958 . S
H574 C559 0.961 1_455 S
H575 C559 0.960 . S
C576 C577 1.395 . S
C576 C578 1.394 . S
C576 H592 0.931 . S
C577 C576 1.395 . S
C577 C581 1.371 1_455 S
C578 C576 1.394 . S
C578 C579 1.369 1_455 S
C578 C582 1.531 . S
C579 C578 1.369 1_655 S
C579 C580 1.410 . S
C579 C587 1.503 . S
C580 C579 1.410 . S
C580 C581 1.392 . S
C580 C583 1.511 1_554 S
C581 C577 1.371 1_655 S
C581 C580 1.392 . S
C581 H593 0.929 1_554 S
C582 C578 1.531 . S
C582 H594 0.960 . S
C582 H595 0.962 . S
C582 H596 0.960 . S
C583 C580 1.511 1_556 S
C583 H597 0.961 . S
C583 H598 0.961 . S
C583 H599 0.961 1_556 S
C584 C585 1.370 1_456 S
C584 C586 1.363 . S
C584 H600 0.931 . S
C585 C584 1.370 1_654 S
C585 C589 1.408 . S
C586 C584 1.363 . S
C586 C587 1.370 1_456 S
C586 C590 1.524 . S
C587 C579 1.503 . S
C587 C586 1.370 1_654 S
C587 C588 1.403 . S
C588 C587 1.403 . S
C588 C589 1.404 . S
C588 C591 1.539 . S
C589 C585 1.408 . S
C589 C588 1.404 . S
C589 H601 0.930 . S
C590 C586 1.524 . S
C590 H602 0.956 . S
C590 H603 0.961 1_455 S
C590 H604 0.961 . S
C591 C588 1.539 . S
C591 H605 0.958 . S
C591 H606 0.961 . S
C591 H607 0.960 . S
H592 C576 0.931 . S
H593 C581 0.929 1_556 S
H594 C582 0.960 . S
H595 C582 0.962 . S
H596 C582 0.960 . S
H597 C583 0.961 . S
H598 C583 0.961 . S
H599 C583 0.961 1_554 S
H600 C584 0.931 . S
H601 C589 0.930 . S
H602 C590 0.956 . S
H603 C590 0.961 1_655 S
H604 C590 0.961 . S
H605 C591 0.958 . S
H606 C591 0.961 . S
H607 C591 0.960 . S
C608 C609 1.391 . S
C608 C610 1.394 . S
C608 H624 0.931 . S
C609 C608 1.391 . S
C609 C613 1.376 . S
C610 C608 1.394 . S
C610 C611 1.369 . S
C610 C614 1.531 . S
C611 C610 1.369 . S
C611 C612 1.410 1_455 S
C611 C619 1.503 1_455 S
C612 C611 1.410 1_655 S
C612 C613 1.392 1_655 S
C612 C615 1.511 . S
C613 C609 1.376 . S
C613 C612 1.392 1_455 S
C613 H625 0.929 . S
C614 C610 1.531 . S
C614 H626 0.960 . S
C614 H627 0.962 . S
C614 H628 0.960 . S
C615 C612 1.511 . S
C615 H629 0.961 . S
C615 H630 0.961 . S
C615 H631 0.961 . S
C616 C617 1.370 . S
C616 C618 1.363 . S
C616 H632 0.931 . S
C617 C616 1.370 . S
C617 C621 1.408 . S
C618 C616 1.363 . S
C618 C619 1.370 . S
C618 C622 1.524 . S
C619 C611 1.503 1_655 S
C619 C618 1.370 . S
C619 C620 1.403 . S
C620 C619 1.403 . S
C620 C621 1.404 . S
C620 C623 1.539 . S
C621 C617 1.408 . S
C621 C620 1.404 . S
C621 H633 0.930 . S
C622 C618 1.524 . S
C622 H634 0.956 1_655 S
C622 H635 0.961 . S
C622 H636 0.961 . S
C623 C620 1.539 . S
C623 H637 0.958 1_655 S
C623 H638 0.961 . S
C623 H639 0.960 . S
H624 C608 0.931 . S
H625 C613 0.929 . S
H626 C614 0.960 . S
H627 C614 0.962 . S
H628 C614 0.960 . S
H629 C615 0.961 . S
H630 C615 0.961 . S
H631 C615 0.961 . S
H632 C616 0.931 . S
H633 C621 0.930 . S
H634 C622 0.956 1_455 S
H635 C622 0.961 . S
H636 C622 0.961 . S
H637 C623 0.958 1_455 S
H638 C623 0.961 . S
H639 C623 0.960 . S
C640 C641 1.391 . S
C640 C642 1.394 . S
C640 H656 0.931 . S
C641 C640 1.391 . S
C641 C645 1.376 1_554 S
C642 C640 1.394 . S
C642 C643 1.369 . S
C642 C646 1.531 . S
C643 C642 1.369 . S
C643 C644 1.410 1_554 S
C643 C651 1.503 1_565 S
C644 C643 1.410 1_556 S
C644 C645 1.392 . S
C644 C647 1.511 . S
C645 C641 1.376 1_556 S
C645 C644 1.392 . S
C645 H657 0.929 . S
C646 C642 1.531 . S
C646 H658 0.951 1_565 S
C646 H659 0.962 . S
C646 H660 0.960 . S
C647 C644 1.511 . S
C647 H661 0.961 . S
C647 H662 0.906 1_565 S
C647 H663 0.961 . S
C648 C649 1.370 1_556 S
C648 C650 1.363 . S
C648 H664 0.931 . S
C649 C648 1.370 1_554 S
C649 C653 1.408 . S
C650 C648 1.363 . S
C650 C651 1.370 1_556 S
C650 C654 1.524 . S
C651 C643 1.503 1_545 S
C651 C650 1.370 1_554 S
C651 C652 1.403 . S
C652 C651 1.403 . S
C652 C653 1.404 . S
C652 C655 1.539 . S
C653 C649 1.408 . S
C653 C652 1.404 . S
C653 H665 0.930 . S
C654 C650 1.524 . S
C654 H666 0.956 . S
C654 H667 0.961 . S
C654 H668 0.961 . S
C655 C652 1.539 . S
C655 H669 0.958 . S
C655 H670 0.961 . S
C655 H671 0.960 1_545 S
H656 C640 0.931 . S
H657 C645 0.929 . S
H658 C646 0.951 1_545 S
H659 C646 0.962 . S
H660 C646 0.960 . S
H661 C647 0.961 . S
H662 C647 0.906 1_545 S
H663 C647 0.961 . S
H664 C648 0.931 . S
H665 C653 0.930 . S
H666 C654 0.956 . S
H667 C654 0.961 . S
H668 C654 0.961 . S
H669 C655 0.958 . S
H670 C655 0.961 . S
H671 C655 0.960 1_565 S
C672 C673 1.391 . S
C672 C674 1.394 . S
C672 H688 0.931 . S
C673 C672 1.391 . S
C673 C677 1.376 . S
C674 C672 1.394 . S
C674 C675 1.369 . S
C674 C678 1.531 . S
C675 C674 1.369 . S
C675 C676 1.410 . S
C675 C683 1.503 1_545 S
C676 C675 1.410 . S
C676 C677 1.392 . S
C676 C679 1.511 1_545 S
C677 C673 1.376 . S
C677 C676 1.392 . S
C677 H689 0.929 . S
C678 C674 1.531 . S
C678 H690 0.960 . S
C678 H691 0.962 . S
C678 H692 0.960 . S
C679 C676 1.511 1_565 S
C679 H693 0.961 . S
C679 H694 0.961 . S
C679 H695 0.961 . S
C680 C681 1.370 . S
C680 C682 1.363 . S
C680 H696 0.931 . S
C681 C680 1.370 . S
C681 C685 1.408 . S
C682 C680 1.363 . S
C682 C683 1.370 . S
C682 C686 1.524 1_565 S
C683 C675 1.503 1_565 S
C683 C682 1.370 . S
C683 C684 1.403 . S
C684 C683 1.403 . S
C684 C685 1.404 . S
C684 C687 1.539 . S
C685 C681 1.408 . S
C685 C684 1.404 . S
C685 H697 0.930 . S
C686 C682 1.524 1_545 S
C686 H698 0.956 . S
C686 H699 0.961 . S
C686 H700 0.961 1_545 S
C687 C684 1.539 . S
C687 H701 0.958 . S
C687 H702 0.961 . S
C687 H703 0.960 . S
H688 C672 0.931 . S
H689 C677 0.929 . S
H690 C678 0.960 . S
H691 C678 0.962 . S
H692 C678 0.960 . S
H693 C679 0.961 . S
H694 C679 0.961 . S
H695 C679 0.961 . S
H696 C680 0.931 . S
H697 C685 0.930 . S
H698 C686 0.956 . S
H699 C686 0.961 . S
H700 C686 0.961 1_565 S
H701 C687 0.958 . S
H702 C687 0.961 . S
H703 C687 0.960 . S
C704 C705 1.391 1_556 S
C704 C706 1.394 . S
C704 H720 0.931 . S
C705 C704 1.391 1_554 S
C705 C709 1.376 . S
C706 C704 1.394 . S
C706 C707 1.369 1_556 S
C706 C710 1.531 . S
C707 C706 1.369 1_554 S
C707 C708 1.410 . S
C707 C715 1.503 . S
C708 C707 1.410 . S
C708 C709 1.392 . S
C708 C711 1.511 . S
C709 C705 1.376 . S
C709 C708 1.392 . S
C709 H721 0.929 . S
C710 C706 1.531 . S
C710 H722 0.960 . S
C710 H723 0.962 . S
C710 H724 0.960 . S
C711 C708 1.511 . S
C711 H725 0.961 . S
C711 H726 0.961 . S
C711 H727 0.961 . S
C712 C713 1.372 . S
C712 C714 1.363 . S
C712 H728 0.931 . S
C713 C712 1.372 . S
C713 C717 1.405 1_556 S
C714 C712 1.363 . S
C714 C715 1.370 1_556 S
C714 C718 1.524 . S
C715 C707 1.503 . S
C715 C714 1.370 1_554 S
C715 C716 1.403 . S
C716 C715 1.403 . S
C716 C717 1.404 . S
C716 C719 1.539 . S
C717 C713 1.405 1_554 S
C717 C716 1.404 . S
C717 H729 0.930 . S
C718 C714 1.524 . S
C718 H730 0.956 . S
C718 H731 0.961 1_556 S
C718 H732 0.961 . S
C719 C716 1.539 . S
C719 H733 0.958 1_554 S
C719 H734 0.961 . S
C719 H735 0.960 . S
H720 C704 0.931 . S
H721 C709 0.929 . S
H722 C710 0.960 . S
H723 C710 0.962 . S
H724 C710 0.960 . S
H725 C711 0.961 . S
H726 C711 0.961 . S
H727 C711 0.961 . S
H728 C712 0.931 . S
H729 C717 0.930 . S
H730 C718 0.956 . S
H731 C718 0.961 1_554 S
H732 C718 0.961 . S
H733 C719 0.958 1_556 S
H734 C719 0.961 . S
H735 C719 0.960 . S
C736 C737 1.391 . S
C736 C738 1.394 . S
C736 H752 0.931 . S
C737 C736 1.391 . S
C737 C741 1.376 . S
C738 C736 1.394 . S
C738 C739 1.369 . S
C738 C742 1.531 . S
C739 C738 1.369 . S
C739 C740 1.410 . S
C739 C747 1.503 . S
C740 C739 1.410 . S
C740 C741 1.392 . S
C740 C743 1.511 1_554 S
C741 C737 1.376 . S
C741 C740 1.392 . S
C741 H753 0.929 1_554 S
C742 C738 1.531 . S
C742 H754 0.960 . S
C742 H755 0.962 . S
C742 H756 0.960 . S
C743 C740 1.511 1_556 S
C743 H757 0.961 . S
C743 H758 0.961 . S
C743 H759 0.961 1_556 S
C744 C745 1.364 1_556 S
C744 C746 1.363 . S
C744 H760 0.931 . S
C745 C744 1.364 1_554 S
C745 C749 1.417 . S
C746 C744 1.363 . S
C746 C747 1.370 1_556 S
C746 C750 1.524 . S
C747 C739 1.503 . S
C747 C746 1.370 1_554 S
C747 C748 1.403 . S
C748 C747 1.403 . S
C748 C749 1.404 . S
C748 C751 1.539 . S
C749 C745 1.417 . S
C749 C748 1.404 . S
C749 H761 0.930 . S
C750 C746 1.524 . S
C750 H762 0.956 . S
C750 H763 0.961 . S
C750 H764 0.961 . S
C751 C748 1.539 . S
C751 H765 0.958 . S
C751 H766 0.961 . S
C751 H767 0.960 . S
H752 C736 0.931 . S
H753 C741 0.929 1_556 S
H754 C742 0.960 . S
H755 C742 0.962 . S
H756 C742 0.960 . S
H757 C743 0.961 . S
H758 C743 0.961 . S
H759 C743 0.961 1_554 S
H760 C744 0.931 . S
H761 C749 0.930 . S
H762 C750 0.956 . S
H763 C750 0.961 . S
H764 C750 0.961 . S
H765 C751 0.958 . S
H766 C751 0.961 . S
H767 C751 0.960 . S
C768 C769 1.391 . S
C768 C770 1.394 . S
C768 H784 0.931 . S
C769 C768 1.391 . S
C769 C773 1.376 . S
C770 C768 1.394 . S
C770 C771 1.369 . S
C770 C774 1.531 . S
C771 C770 1.369 . S
C771 C772 1.410 . S
C771 C779 1.503 . S
C772 C771 1.410 . S
C772 C773 1.392 . S
C772 C775 1.511 . S
C773 C769 1.376 . S
C773 C772 1.392 . S
C773 H785 0.929 . S
C774 C770 1.531 . S
C774 H786 0.960 . S
C774 H787 0.962 . S
C774 H788 0.960 . S
C775 C772 1.511 . S
C775 H789 0.961 . S
C775 H790 0.961 . S
C775 H791 0.961 . S
C776 C777 1.370 . S
C776 C778 1.363 . S
C776 H792 0.931 . S
C777 C776 1.370 . S
C777 C781 1.408 . S
C778 C776 1.363 . S
C778 C779 1.370 . S
C778 C782 1.524 . S
C779 C771 1.503 . S
C779 C778 1.370 . S
C779 C780 1.403 . S
C780 C779 1.403 . S
C780 C781 1.404 . S
C780 C783 1.539 . S
C781 C777 1.408 . S
C781 C780 1.404 . S
C781 H793 0.930 . S
C782 C778 1.524 . S
C782 H794 0.956 . S
C782 H795 0.961 . S
C782 H796 0.961 . S
C783 C780 1.539 . S
C783 H797 0.958 . S
C783 H798 0.961 . S
C783 H799 0.960 . S
H784 C768 0.931 . S
H785 C773 0.929 . S
H786 C774 0.960 . S
H787 C774 0.962 . S
H788 C774 0.960 . S
H789 C775 0.961 . S
H790 C775 0.961 . S
H791 C775 0.961 . S
H792 C776 0.931 . S
H793 C781 0.930 . S
H794 C782 0.956 . S
H795 C782 0.961 . S
H796 C782 0.961 . S
H797 C783 0.958 . S
H798 C783 0.961 . S
H799 C783 0.960 . S
C800 C801 1.391 . S
C800 C802 1.394 . S
C800 H816 0.931 . S
C801 C800 1.391 . S
C801 C805 1.376 . S
C802 C800 1.394 . S
C802 C803 1.369 . S
C802 C806 1.531 . S
C803 C802 1.369 . S
C803 C804 1.410 . S
C803 C811 1.503 . S
C804 C803 1.410 . S
C804 C805 1.392 . S
C804 C807 1.511 . S
C805 C801 1.376 . S
C805 C804 1.392 . S
C805 H817 0.929 . S
C806 C802 1.531 . S
C806 H818 0.960 . S
C806 H819 0.962 . S
C806 H820 0.960 . S
C807 C804 1.511 . S
C807 H821 0.961 . S
C807 H822 0.961 . S
C807 H823 0.961 . S
C808 C809 1.370 . S
C808 C810 1.363 . S
C808 H824 0.931 . S
C809 C808 1.370 . S
C809 C813 1.408 . S
C810 C808 1.363 . S
C810 C811 1.370 . S
C810 C814 1.524 . S
C811 C803 1.503 . S
C811 C810 1.370 . S
C811 C812 1.403 . S
C812 C811 1.403 . S
C812 C813 1.404 . S
C812 C815 1.539 . S
C813 C809 1.408 . S
C813 C812 1.404 . S
C813 H825 0.930 . S
C814 C810 1.524 . S
C814 H826 0.956 . S
C814 H827 0.961 . S
C814 H828 0.961 . S
C815 C812 1.539 . S
C815 H829 0.958 . S
C815 H830 0.961 . S
C815 H831 0.960 . S
H816 C800 0.931 . S
H817 C805 0.929 . S
H818 C806 0.960 . S
H819 C806 0.962 . S
H820 C806 0.960 . S
H821 C807 0.961 . S
H822 C807 0.961 . S
H823 C807 0.961 . S
H824 C808 0.931 . S
H825 C813 0.930 . S
H826 C814 0.956 . S
H827 C814 0.961 . S
H828 C814 0.961 . S
H829 C815 0.958 . S
H830 C815 0.961 . S
H831 C815 0.960 . S
C832 C833 1.391 . S
C832 C834 1.394 . S
C832 H848 0.931 . S
C833 C832 1.391 . S
C833 C837 1.376 . S
C834 C832 1.394 . S
C834 C835 1.369 . S
C834 C838 1.531 1_455 S
C835 C834 1.369 . S
C835 C836 1.410 . S
C835 C843 1.507 . S
C836 C835 1.410 . S
C836 C837 1.392 . S
C836 C839 1.511 . S
C837 C833 1.376 . S
C837 C836 1.392 . S
C837 H849 0.929 . S
C838 C834 1.531 1_655 S
C838 H850 0.960 . S
C838 H851 0.962 . S
C838 H852 0.960 . S
C839 C836 1.511 . S
C839 H853 0.961 . S
C839 H854 0.961 . S
C839 H855 0.961 . S
C840 C841 1.370 1_455 S
C840 C842 1.363 . S
C840 H856 0.931 . S
C841 C840 1.370 1_655 S
C841 C845 1.408 . S
C842 C840 1.363 . S
C842 C843 1.381 . S
C842 C846 1.524 . S
C843 C835 1.507 . S
C843 C842 1.381 . S
C843 C844 1.388 1_455 S
C844 C843 1.388 1_655 S
C844 C845 1.404 . S
C844 C847 1.539 . S
C845 C841 1.408 . S
C845 C844 1.404 . S
C845 H857 0.930 . S
C846 C842 1.524 . S
C846 H858 0.956 . S
C846 H859 0.961 . S
C846 H860 0.961 . S
C847 C844 1.539 . S
C847 H861 0.958 . S
C847 H862 0.961 . S
C847 H863 0.960 . S
H848 C832 0.931 . S
H849 C837 0.929 . S
H850 C838 0.960 . S
H851 C838 0.962 . S
H852 C838 0.960 . S
H853 C839 0.961 . S
H854 C839 0.961 . S
H855 C839 0.961 . S
H856 C840 0.931 . S
H857 C845 0.930 . S
H858 C846 0.956 . S
H859 C846 0.961 . S
H860 C846 0.961 . S
H861 C847 0.958 . S
H862 C847 0.961 . S
H863 C847 0.960 . S
C864 C865 1.391 . S
C864 C866 1.394 . S
C864 H880 0.931 . S
C865 C864 1.391 . S
C865 C869 1.376 . S
C866 C864 1.394 . S
C866 C867 1.369 . S
C866 C870 1.531 . S
C867 C866 1.369 . S
C867 C868 1.410 1_655 S
C867 C875 1.503 . S
C868 C867 1.410 1_455 S
C868 C869 1.392 1_455 S
C868 C871 1.511 . S
C869 C865 1.376 . S
C869 C868 1.392 1_655 S
C869 H881 0.929 1_655 S
C870 C866 1.531 . S
C870 H882 0.960 . S
C870 H883 0.962 . S
C870 H884 0.960 . S
C871 C868 1.511 . S
C871 H885 0.961 . S
C871 H886 0.961 . S
C871 H887 0.961 . S
C872 C873 1.370 . S
C872 C874 1.363 1_455 S
C872 H888 0.931 . S
C873 C872 1.370 . S
C873 C877 1.408 . S
C874 C872 1.363 1_655 S
C874 C875 1.370 . S
C874 C878 1.524 . S
C875 C867 1.503 . S
C875 C874 1.370 . S
C875 C876 1.403 1_655 S
C876 C875 1.403 1_455 S
C876 C877 1.404 . S
C876 C879 1.539 . S
C877 C873 1.408 . S
C877 C876 1.404 . S
C877 H889 0.930 . S
C878 C874 1.524 . S
C878 H890 0.956 . S
C878 H891 0.961 . S
C878 H892 0.961 . S
C879 C876 1.539 . S
C879 H893 0.958 . S
C879 H894 0.961 . S
C879 H895 0.960 . S
H880 C864 0.931 . S
H881 C869 0.929 1_455 S
H882 C870 0.960 . S
H883 C870 0.962 . S
H884 C870 0.960 . S
H885 C871 0.961 . S
H886 C871 0.961 . S
H887 C871 0.961 . S
H888 C872 0.931 . S
H889 C877 0.930 . S
H890 C878 0.956 . S
H891 C878 0.961 . S
H892 C878 0.961 . S
H893 C879 0.958 . S
H894 C879 0.961 . S
H895 C879 0.960 . S
C896 C897 1.391 . S
C896 C898 1.394 . S
C896 H912 0.931 . S
C897 C896 1.391 . S
C897 C901 1.376 1_655 S
C898 C896 1.394 . S
C898 C899 1.369 . S
C898 C902 1.531 . S
C899 C898 1.369 . S
C899 C900 1.410 1_655 S
C899 C907 1.503 1_655 S
C900 C899 1.410 1_455 S
C900 C901 1.392 . S
C900 C903 1.511 . S
C901 C897 1.376 1_455 S
C901 C900 1.392 . S
C901 H913 0.929 . S
C902 C898 1.531 . S
C902 H914 0.960 . S
C902 H915 0.962 . S
C902 H916 0.960 . S
C903 C900 1.511 . S
C903 H917 0.961 . S
C903 H918 0.961 . S
C903 H919 0.961 . S
C904 C905 1.370 1_655 S
C904 C906 1.363 . S
C904 H920 0.931 . S
C905 C904 1.370 1_455 S
C905 C909 1.408 . S
C906 C904 1.363 . S
C906 C907 1.370 1_655 S
C906 C910 1.524 . S
C907 C899 1.503 1_455 S
C907 C906 1.370 1_455 S
C907 C908 1.403 . S
C908 C907 1.403 . S
C908 C909 1.404 . S
C908 C911 1.539 . S
C909 C905 1.408 . S
C909 C908 1.404 . S
C909 H921 0.930 . S
C910 C906 1.524 . S
C910 H922 0.956 . S
C910 H923 0.961 . S
C910 H924 0.961 . S
C911 C908 1.539 . S
C911 H925 0.958 . S
C911 H926 0.961 . S
C911 H927 0.960 . S
H912 C896 0.931 . S
H913 C901 0.929 . S
H914 C902 0.960 . S
H915 C902 0.962 . S
H916 C902 0.960 . S
H917 C903 0.961 . S
H918 C903 0.961 . S
H919 C903 0.961 . S
H920 C904 0.931 . S
H921 C909 0.930 . S
H922 C910 0.956 . S
H923 C910 0.961 . S
H924 C910 0.961 . S
H925 C911 0.958 . S
H926 C911 0.961 . S
H927 C911 0.960 . S
C928 C929 1.391 . S
C928 C930 1.394 . S
C928 H944 0.931 . S
C929 C928 1.391 . S
C929 C933 1.376 1_655 S
C930 C928 1.394 . S
C930 C931 1.369 1_655 S
C930 C934 1.531 . S
C931 C930 1.369 1_455 S
C931 C932 1.410 . S
C931 C939 1.503 . S
C932 C931 1.410 . S
C932 C933 1.392 . S
C932 C935 1.511 . S
C933 C929 1.376 1_455 S
C933 C932 1.392 . S
C933 H945 0.929 . S
C934 C930 1.531 . S
C934 H946 0.960 . S
C934 H947 0.962 . S
C934 H948 0.960 . S
C935 C932 1.511 . S
C935 H949 0.961 . S
C935 H950 0.961 . S
C935 H951 0.961 . S
C936 C937 1.370 . S
C936 C938 1.363 . S
C936 H952 0.931 . S
C937 C936 1.370 . S
C937 C941 1.408 . S
C938 C936 1.363 . S
C938 C939 1.370 . S
C938 C942 1.524 1_455 S
C939 C931 1.503 . S
C939 C938 1.370 . S
C939 C940 1.403 . S
C940 C939 1.403 . S
C940 C941 1.404 . S
C940 C943 1.539 . S
C941 C937 1.408 . S
C941 C940 1.404 . S
C941 H953 0.930 . S
C942 C938 1.524 1_655 S
C942 H954 0.956 . S
C942 H955 0.970 . S
C942 H956 0.961 . S
C943 C940 1.539 . S
C943 H957 0.958 . S
C943 H958 0.961 . S
C943 H959 0.960 . S
H944 C928 0.931 . S
H945 C933 0.929 . S
H946 C934 0.960 . S
H947 C934 0.962 . S
H948 C934 0.960 . S
H949 C935 0.961 . S
H950 C935 0.961 . S
H951 C935 0.961 . S
H952 C936 0.931 . S
H953 C941 0.930 . S
H954 C942 0.956 . S
H955 C942 0.970 . S
H956 C942 0.961 . S
H957 C943 0.958 . S
H958 C943 0.961 . S
H959 C943 0.960 . S
C960 C961 1.391 . S
C960 C962 1.394 . S
C960 H976 0.931 . S
C961 C960 1.391 . S
C961 C965 1.376 . S
C962 C960 1.394 . S
C962 C963 1.369 . S
C962 C966 1.531 . S
C963 C962 1.369 . S
C963 C964 1.410 . S
C963 C971 1.503 . S
C964 C963 1.410 . S
C964 C965 1.392 . S
C964 C967 1.511 . S
C965 C961 1.376 . S
C965 C964 1.392 . S
C965 H977 0.929 . S
C966 C962 1.531 . S
C966 H978 0.960 . S
C966 H979 0.962 . S
C966 H980 0.960 . S
C967 C964 1.511 . S
C967 H981 0.961 . S
C967 H982 0.961 . S
C967 H983 0.961 . S
C968 C969 1.370 . S
C968 C970 1.363 . S
C968 H984 0.931 . S
C969 C968 1.370 . S
C969 C973 1.408 . S
C970 C968 1.363 . S
C970 C971 1.370 . S
C970 C974 1.524 . S
C971 C963 1.503 . S
C971 C970 1.370 . S
C971 C972 1.403 . S
C972 C971 1.403 . S
C972 C973 1.404 . S
C972 C975 1.539 . S
C973 C969 1.408 . S
C973 C972 1.404 . S
C973 H985 0.930 . S
C974 C970 1.524 . S
C974 H986 0.956 . S
C974 H987 0.961 . S
C974 H988 0.961 . S
C975 C972 1.539 . S
C975 H989 0.958 . S
C975 H990 0.961 . S
C975 H991 0.960 . S
H976 C960 0.931 . S
H977 C965 0.929 . S
H978 C966 0.960 . S
H979 C966 0.962 . S
H980 C966 0.960 . S
H981 C967 0.961 . S
H982 C967 0.961 . S
H983 C967 0.961 . S
H984 C968 0.931 . S
H985 C973 0.930 . S
H986 C974 0.956 . S
H987 C974 0.961 . S
H988 C974 0.961 . S
H989 C975 0.958 . S
H990 C975 0.961 . S
H991 C975 0.960 . S
C992 C993 1.391 . S
C992 C994 1.394 . S
C992 H1008 0.931 . S
C993 C992 1.391 . S
C993 C997 1.376 . S
C994 C992 1.394 . S
C994 C995 1.369 . S
C994 C998 1.531 . S
C995 C994 1.369 . S
C995 C996 1.410 . S
C995 C1003 1.503 . S
C996 C995 1.410 . S
C996 C997 1.392 . S
C996 C999 1.511 . S
C997 C993 1.376 . S
C997 C996 1.392 . S
C997 H1009 0.929 . S
C998 C994 1.531 . S
C998 H1010 0.960 . S
C998 H1011 0.962 . S
C998 H1012 0.960 . S
C999 C996 1.511 . S
C999 H1013 0.961 . S
C999 H1014 0.961 . S
C999 H1015 0.961 . S
C1000 C1001 1.370 . S
C1000 C1002 1.363 . S
C1000 H1016 0.931 . S
C1001 C1000 1.370 . S
C1001 C1005 1.408 . S
C1002 C1000 1.363 . S
C1002 C1003 1.370 . S
C1002 C1006 1.524 . S
C1003 C995 1.503 . S
C1003 C1002 1.370 . S
C1003 C1004 1.403 . S
C1004 C1003 1.403 . S
C1004 C1005 1.404 . S
C1004 C1007 1.539 . S
C1005 C1001 1.408 . S
C1005 C1004 1.404 . S
C1005 H1017 0.930 . S
C1006 C1002 1.524 . S
C1006 H1018 0.956 . S
C1006 H1019 0.961 . S
C1006 H1020 0.961 . S
C1007 C1004 1.539 . S
C1007 H1021 0.958 . S
C1007 H1022 0.961 . S
C1007 H1023 0.960 . S
H1008 C992 0.931 . S
H1009 C997 0.929 . S
H1010 C998 0.960 . S
H1011 C998 0.962 . S
H1012 C998 0.960 . S
H1013 C999 0.961 . S
H1014 C999 0.961 . S
H1015 C999 0.961 . S
H1016 C1000 0.931 . S
H1017 C1005 0.930 . S
H1018 C1006 0.956 . S
H1019 C1006 0.961 . S
H1020 C1006 0.961 . S
H1021 C1007 0.958 . S
H1022 C1007 0.961 . S
H1023 C1007 0.960 . S
C1024 C1025 1.391 . S
C1024 C1026 1.394 . S
C1024 H1040 0.931 . S
C1025 C1024 1.391 . S
C1025 C1029 1.376 . S
C1026 C1024 1.394 . S
C1026 C1027 1.369 . S
C1026 C1030 1.531 . S
C1027 C1026 1.369 . S
C1027 C1028 1.410 . S
C1027 C1035 1.503 . S
C1028 C1027 1.410 . S
C1028 C1029 1.392 . S
C1028 C1031 1.511 . S
C1029 C1025 1.376 . S
C1029 C1028 1.392 . S
C1029 H1041 0.929 . S
C1030 C1026 1.531 . S
C1030 H1042 0.960 . S
C1030 H1043 0.962 . S
C1030 H1044 0.960 . S
C1031 C1028 1.511 . S
C1031 H1045 0.961 . S
C1031 H1046 0.961 . S
C1031 H1047 0.961 . S
C1032 C1033 1.370 . S
C1032 C1034 1.363 . S
C1032 H1048 0.931 . S
C1033 C1032 1.370 . S
C1033 C1037 1.408 . S
C1034 C1032 1.363 . S
C1034 C1035 1.370 . S
C1034 C1038 1.524 . S
C1035 C1027 1.503 . S
C1035 C1034 1.370 . S
C1035 C1036 1.403 . S
C1036 C1035 1.403 . S
C1036 C1037 1.404 . S
C1036 C1039 1.539 . S
C1037 C1033 1.408 . S
C1037 C1036 1.404 . S
C1037 H1049 0.930 . S
C1038 C1034 1.524 . S
C1038 H1050 0.956 . S
C1038 H1051 0.961 . S
C1038 H1052 0.961 . S
C1039 C1036 1.539 . S
C1039 H1053 0.958 . S
C1039 H1054 0.961 . S
C1039 H1055 0.960 . S
H1040 C1024 0.931 . S
H1041 C1029 0.929 . S
H1042 C1030 0.960 . S
H1043 C1030 0.962 . S
H1044 C1030 0.960 . S
H1045 C1031 0.961 . S
H1046 C1031 0.961 . S
H1047 C1031 0.961 . S
H1048 C1032 0.931 . S
H1049 C1037 0.930 . S
H1050 C1038 0.956 . S
H1051 C1038 0.961 . S
H1052 C1038 0.961 . S
H1053 C1039 0.958 . S
H1054 C1039 0.961 . S
H1055 C1039 0.960 . S
C1056 C1057 1.391 . S
C1056 C1058 1.394 . S
C1056 H1072 0.931 . S
C1057 C1056 1.391 . S
C1057 C1061 1.376 . S
C1058 C1056 1.394 . S
C1058 C1059 1.369 . S
C1058 C1062 1.531 . S
C1059 C1058 1.369 . S
C1059 C1060 1.410 . S
C1059 C1067 1.503 . S
C1060 C1059 1.410 . S
C1060 C1061 1.392 . S
C1060 C1063 1.511 . S
C1061 C1057 1.376 . S
C1061 C1060 1.392 . S
C1061 H1073 0.929 . S
C1062 C1058 1.531 . S
C1062 H1074 0.960 . S
C1062 H1075 0.962 . S
C1062 H1076 0.960 . S
C1063 C1060 1.511 . S
C1063 H1077 0.961 . S
C1063 H1078 0.961 . S
C1063 H1079 0.961 . S
C1064 C1065 1.370 . S
C1064 C1066 1.363 . S
C1064 H1080 0.931 . S
C1065 C1064 1.370 . S
C1065 C1069 1.408 . S
C1066 C1064 1.363 . S
C1066 C1067 1.370 . S
C1066 C1070 1.524 . S
C1067 C1059 1.503 . S
C1067 C1066 1.370 . S
C1067 C1068 1.403 . S
C1068 C1067 1.403 . S
C1068 C1069 1.404 . S
C1068 C1071 1.539 . S
C1069 C1065 1.408 . S
C1069 C1068 1.404 . S
C1069 H1081 0.930 . S
C1070 C1066 1.524 . S
C1070 H1082 0.956 . S
C1070 H1083 0.961 . S
C1070 H1084 0.961 . S
C1071 C1068 1.539 . S
C1071 H1085 0.958 . S
C1071 H1086 0.961 . S
C1071 H1087 0.960 . S
H1072 C1056 0.931 . S
H1073 C1061 0.929 . S
H1074 C1062 0.960 . S
H1075 C1062 0.962 . S
H1076 C1062 0.960 . S
H1077 C1063 0.961 . S
H1078 C1063 0.961 . S
H1079 C1063 0.961 . S
H1080 C1064 0.931 . S
H1081 C1069 0.930 . S
H1082 C1070 0.956 . S
H1083 C1070 0.961 . S
H1084 C1070 0.961 . S
H1085 C1071 0.958 . S
H1086 C1071 0.961 . S
H1087 C1071 0.960 . S
C321 C15 0.681 . S
C329 C5 0.676 . S
C353 C45 0.704 . S
C361 C55 0.665 . S
C385 C89 5.012 . S
C393 C99 5.023 . S
C417 C129 5.010 . S
C425 C139 5.023 . S
C449 C175 0.649 . S
C457 C165 0.672 . S
C481 C215 0.724 . S
C489 C205 0.673 . S
C513 C249 5.009 . S
C521 C259 5.023 . S
C545 C299 5.011 . S
C553 C289 5.023 . S
C577 C49 4.809 1_455 S
C585 C9 4.803 1_655 S
C609 C135 0.665 . S
C617 C85 0.712 . S
C641 C169 4.785 . S
C649 C209 4.824 . S
C673 C245 0.738 . S
C681 C295 0.666 . S
C705 C19 4.315 . S
C713 C219 4.333 . S
C737 C179 4.312 . S
C745 C59 4.333 1_554 S
C769 C95 0.459 . S
C777 C285 0.443 . S
C801 C125 0.397 . S
C809 C255 0.470 . S
C833 C8 1.490 . S
C841 C138 1.636 . S
C865 C48 1.560 . S
C873 C98 1.645 . S
C897 C58 1.619 . S
C905 C88 1.579 . S
C929 C128 1.531 . S
C937 C18 1.634 . S
C961 C168 1.539 . S
C969 C298 1.618 . S
C993 C208 1.544 . S
C1001 C258 1.618 . S
C1025 C218 1.619 . S
C1033 C248 1.576 . S
C1057 C288 1.595 . S
C1065 C178 1.631 . S
