# Generated by pormake.
# Topology thp-x, (12)-cn, num edge types: 1
# Building blocks:
#     Node 0, Type 0, BuildingBlock: EZIPEK_clean_sbu_0, # of connection points: 12
#     Node 1, Type 0, BuildingBlock: EZIPEK_clean_sbu_0, # of connection points: 12
#     Node 2, Type 0, BuildingBlock: EZIPEK_clean_sbu_0, # of connection points: 12
#     Node 3, Type 0, BuildingBlock: EZIPEK_clean_sbu_0, # of connection points: 12
#     Node 4, Type 0, BuildingBlock: EZIPEK_clean_sbu_0, # of connection points: 12
#     Node 5, Type 0, BuildingBlock: EZIPEK_clean_sbu_0, # of connection points: 12
#     Node 6, Type 0, BuildingBlock: EZIPEK_clean_sbu_0, # of connection points: 12
#     Node 7, Type 0, BuildingBlock: EZIPEK_clean_sbu_0, # of connection points: 12
#     Node 8, Type 0, BuildingBlock: EZIPEK_clean_sbu_0, # of connection points: 12
#     Node 9, Type 0, BuildingBlock: EZIPEK_clean_sbu_0, # of connection points: 12
#     Node 10, Type 0, BuildingBlock: EZIPEK_clean_sbu_0, # of connection points: 12
#     Node 11, Type 0, BuildingBlock: EZIPEK_clean_sbu_0, # of connection points: 12
#     Edge 12, Type (0, 0), BuildingBlock: AJUNOK_clean_linker_0, # of connection points: 2
#     Edge 13, Type (0, 0), BuildingBlock: AJUNOK_clean_linker_0, # of connection points: 2
#     Edge 14, Type (0, 0), BuildingBlock: AJUNOK_clean_linker_0, # of connection points: 2
#     Edge 15, Type (0, 0), BuildingBlock: AJUNOK_clean_linker_0, # of connection points: 2
#     Edge 16, Type (0, 0), BuildingBlock: AJUNOK_clean_linker_0, # of connection points: 2
#     Edge 17, Type (0, 0), BuildingBlock: AJUNOK_clean_linker_0, # of connection points: 2
#     Edge 18, Type (0, 0), BuildingBlock: AJUNOK_clean_linker_0, # of connection points: 2
#     Edge 19, Type (0, 0), BuildingBlock: AJUNOK_clean_linker_0, # of connection points: 2
#     Edge 20, Type (0, 0), BuildingBlock: AJUNOK_clean_linker_0, # of connection points: 2
#     Edge 21, Type (0, 0), BuildingBlock: AJUNOK_clean_linker_0, # of connection points: 2
#     Edge 22, Type (0, 0), BuildingBlock: AJUNOK_clean_linker_0, # of connection points: 2
#     Edge 23, Type (0, 0), BuildingBlock: AJUNOK_clean_linker_0, # of connection points: 2
#     Edge 24, Type (0, 0), BuildingBlock: AJUNOK_clean_linker_0, # of connection points: 2
#     Edge 25, Type (0, 0), BuildingBlock: AJUNOK_clean_linker_0, # of connection points: 2
#     Edge 26, Type (0, 0), BuildingBlock: AJUNOK_clean_linker_0, # of connection points: 2
#     Edge 27, Type (0, 0), BuildingBlock: AJUNOK_clean_linker_0, # of connection points: 2
#     Edge 28, Type (0, 0), BuildingBlock: AJUNOK_clean_linker_0, # of connection points: 2
#     Edge 29, Type (0, 0), BuildingBlock: AJUNOK_clean_linker_0, # of connection points: 2
#     Edge 30, Type (0, 0), BuildingBlock: AJUNOK_clean_linker_0, # of connection points: 2
#     Edge 31, Type (0, 0), BuildingBlock: AJUNOK_clean_linker_0, # of connection points: 2
#     Edge 32, Type (0, 0), BuildingBlock: AJUNOK_clean_linker_0, # of connection points: 2
#     Edge 33, Type (0, 0), BuildingBlock: AJUNOK_clean_linker_0, # of connection points: 2
#     Edge 34, Type (0, 0), BuildingBlock: AJUNOK_clean_linker_0, # of connection points: 2
#     Edge 35, Type (0, 0), BuildingBlock: AJUNOK_clean_linker_0, # of connection points: 2
#     Edge 36, Type (0, 0), BuildingBlock: AJUNOK_clean_linker_0, # of connection points: 2
#     Edge 37, Type (0, 0), BuildingBlock: AJUNOK_clean_linker_0, # of connection points: 2
#     Edge 38, Type (0, 0), BuildingBlock: AJUNOK_clean_linker_0, # of connection points: 2
#     Edge 39, Type (0, 0), BuildingBlock: AJUNOK_clean_linker_0, # of connection points: 2
#     Edge 40, Type (0, 0), BuildingBlock: AJUNOK_clean_linker_0, # of connection points: 2
#     Edge 41, Type (0, 0), BuildingBlock: AJUNOK_clean_linker_0, # of connection points: 2
#     Edge 42, Type (0, 0), BuildingBlock: AJUNOK_clean_linker_0, # of connection points: 2
#     Edge 43, Type (0, 0), BuildingBlock: AJUNOK_clean_linker_0, # of connection points: 2
#     Edge 44, Type (0, 0), BuildingBlock: AJUNOK_clean_linker_0, # of connection points: 2
#     Edge 45, Type (0, 0), BuildingBlock: AJUNOK_clean_linker_0, # of connection points: 2
#     Edge 46, Type (0, 0), BuildingBlock: AJUNOK_clean_linker_0, # of connection points: 2
#     Edge 47, Type (0, 0), BuildingBlock: AJUNOK_clean_linker_0, # of connection points: 2
#     Edge 48, Type (0, 0), BuildingBlock: AJUNOK_clean_linker_0, # of connection points: 2
#     Edge 49, Type (0, 0), BuildingBlock: AJUNOK_clean_linker_0, # of connection points: 2
#     Edge 50, Type (0, 0), BuildingBlock: AJUNOK_clean_linker_0, # of connection points: 2
#     Edge 51, Type (0, 0), BuildingBlock: AJUNOK_clean_linker_0, # of connection points: 2
#     Edge 52, Type (0, 0), BuildingBlock: AJUNOK_clean_linker_0, # of connection points: 2
#     Edge 53, Type (0, 0), BuildingBlock: AJUNOK_clean_linker_0, # of connection points: 2
#     Edge 54, Type (0, 0), BuildingBlock: AJUNOK_clean_linker_0, # of connection points: 2
#     Edge 55, Type (0, 0), BuildingBlock: AJUNOK_clean_linker_0, # of connection points: 2
#     Edge 56, Type (0, 0), BuildingBlock: AJUNOK_clean_linker_0, # of connection points: 2
#     Edge 57, Type (0, 0), BuildingBlock: AJUNOK_clean_linker_0, # of connection points: 2
#     Edge 58, Type (0, 0), BuildingBlock: AJUNOK_clean_linker_0, # of connection points: 2
#     Edge 59, Type (0, 0), BuildingBlock: AJUNOK_clean_linker_0, # of connection points: 2
#     Edge 60, Type (0, 0), BuildingBlock: AJUNOK_clean_linker_0, # of connection points: 2
#     Edge 61, Type (0, 0), BuildingBlock: AJUNOK_clean_linker_0, # of connection points: 2
#     Edge 62, Type (0, 0), BuildingBlock: AJUNOK_clean_linker_0, # of connection points: 2
#     Edge 63, Type (0, 0), BuildingBlock: AJUNOK_clean_linker_0, # of connection points: 2
#     Edge 64, Type (0, 0), BuildingBlock: AJUNOK_clean_linker_0, # of connection points: 2
#     Edge 65, Type (0, 0), BuildingBlock: AJUNOK_clean_linker_0, # of connection points: 2
#     Edge 66, Type (0, 0), BuildingBlock: AJUNOK_clean_linker_0, # of connection points: 2
#     Edge 67, Type (0, 0), BuildingBlock: AJUNOK_clean_linker_0, # of connection points: 2
#     Edge 68, Type (0, 0), BuildingBlock: AJUNOK_clean_linker_0, # of connection points: 2
#     Edge 69, Type (0, 0), BuildingBlock: AJUNOK_clean_linker_0, # of connection points: 2
#     Edge 70, Type (0, 0), BuildingBlock: AJUNOK_clean_linker_0, # of connection points: 2
#     Edge 71, Type (0, 0), BuildingBlock: AJUNOK_clean_linker_0, # of connection points: 2
#     Edge 72, Type (0, 0), BuildingBlock: AJUNOK_clean_linker_0, # of connection points: 2
#     Edge 73, Type (0, 0), BuildingBlock: AJUNOK_clean_linker_0, # of connection points: 2
#     Edge 74, Type (0, 0), BuildingBlock: AJUNOK_clean_linker_0, # of connection points: 2
#     Edge 75, Type (0, 0), BuildingBlock: AJUNOK_clean_linker_0, # of connection points: 2
#     Edge 76, Type (0, 0), BuildingBlock: AJUNOK_clean_linker_0, # of connection points: 2
#     Edge 77, Type (0, 0), BuildingBlock: AJUNOK_clean_linker_0, # of connection points: 2
#     Edge 78, Type (0, 0), BuildingBlock: AJUNOK_clean_linker_0, # of connection points: 2
#     Edge 79, Type (0, 0), BuildingBlock: AJUNOK_clean_linker_0, # of connection points: 2
#     Edge 80, Type (0, 0), BuildingBlock: AJUNOK_clean_linker_0, # of connection points: 2
#     Edge 81, Type (0, 0), BuildingBlock: AJUNOK_clean_linker_0, # of connection points: 2
#     Edge 82, Type (0, 0), BuildingBlock: AJUNOK_clean_linker_0, # of connection points: 2
#     Edge 83, Type (0, 0), BuildingBlock: AJUNOK_clean_linker_0, # of connection points: 2
# Relax obj value: 0.246
# Max RMSD: 0.289
# Mean RMSD: 0.289
data_MOF--net-thp-x--node1-EZIPEK_clean_sbu_0--edge1-AJUNOK_clean_linker_0
_symmetry_space_group_name_H-M    P1
_symmetry_Int_Tables_number       1
_symmetry_cell_setting            triclinic
loop_
_symmetry_equiv_pos_as_xyz
'x, y, z'
_cell_length_a     27.617473
_cell_length_b     27.502017
_cell_length_c     27.453078
_cell_angle_alpha  89.903197
_cell_angle_beta   90.121221
_cell_angle_gamma 89.961449
loop_
_atom_site_label
_atom_site_type_symbol
_atom_site_fract_x
_atom_site_fract_y
_atom_site_fract_z
_atom_type_partial_charge
C0 C 0.94547 0.23704 0.28051 0.0
C1 C 0.89649 0.26538 0.50327 0.0
C2 C 0.16288 0.25386 0.29771 0.0
C3 C 0.17614 0.26611 0.51196 0.0
C4 C 0.14362 0.15042 0.44244 0.0
C5 C 0.93055 0.13974 0.40138 0.0
C6 C 0.13256 0.38096 0.42704 0.0
C7 C 0.91746 0.35956 0.39499 0.0
C8 C 1.03007 0.37768 0.51935 0.0
C9 C 1.0242 0.14809 0.5338 0.0
C10 C 0.03774 0.39021 0.30647 0.0
C11 C 0.05462 0.11518 0.31094 0.0
Eu12 Eu 0.94758 0.24802 0.39853 0.0
O13 O 0.99349 0.21277 0.45371 0.0
O14 O 0.99667 0.29256 0.35843 0.0
Eu15 Eu 0.04072 0.16509 0.4144 0.0
Eu16 Eu 1.02982 0.34392 0.40618 0.0
O17 O 1.00451 0.20987 0.36224 0.0
O18 O 0.98966 0.29321 0.44749 0.0
Eu19 Eu 0.0479 0.25407 0.31347 0.0
Eu20 Eu 1.03378 0.26086 0.50361 0.0
O21 O 0.08624 0.21347 0.36956 0.0
O22 O 0.07746 0.2199 0.45508 0.0
O23 O 0.07474 0.30342 0.45348 0.0
O24 O 0.08142 0.30138 0.36535 0.0
Eu25 Eu 0.1272 0.26212 0.41335 0.0
O26 O 0.92552 0.22255 0.32219 0.0
O27 O 0.892 0.26124 0.4555 0.0
O28 O 0.17411 0.25855 0.34501 0.0
O29 O 0.18351 0.26061 0.46532 0.0
O30 O 0.10844 0.12255 0.42705 0.0
O31 O 0.97163 0.14121 0.37784 0.0
O32 O 0.09724 0.38603 0.39543 0.0
O33 O 0.95694 0.37552 0.41647 0.0
O34 O 1.02986 0.33315 0.5383 0.0
O35 O 1.02968 0.19419 0.54715 0.0
O36 O 0.05832 0.34597 0.28931 0.0
O37 O 0.05154 0.16209 0.28823 0.0
O38 O 0.15048 0.33756 0.43827 0.0
O39 O 0.13005 0.19281 0.45922 0.0
O40 O 0.90937 0.31509 0.3793 0.0
O41 O 0.90474 0.17972 0.40215 0.0
O42 O 0.94273 0.26462 0.52636 0.0
O43 O 0.12718 0.26699 0.5313 0.0
O44 O 0.9776 0.27158 0.27997 0.0
O45 O 0.11868 0.25065 0.27896 0.0
O46 O 0.05288 0.11023 0.35857 0.0
O47 O 1.02712 0.13066 0.48851 0.0
O48 O 1.00864 0.38661 0.34312 0.0
O49 O 1.031 0.38951 0.47266 0.0
C50 C 0.42154 0.76895 0.80823 0.0
C51 C 0.41623 0.74434 1.02133 0.0
C52 C 0.64468 0.79763 0.7926 0.0
C53 C 0.68811 0.77941 1.01361 0.0
C54 C 0.67392 0.67938 0.91941 0.0
C55 C 0.45987 0.62355 0.90629 0.0
C56 C 0.61844 0.9011 0.93504 0.0
C57 C 0.40275 0.84078 0.93232 0.0
C58 C 0.51644 0.87487 1.03646 0.0
C59 C 0.53577 0.64652 1.02841 0.0
C60 C 0.51691 0.89785 0.81847 0.0
C61 C 0.5521 0.62436 0.81353 0.0
Eu62 Eu 0.4584 0.73921 0.91745 0.0
O63 O 0.51731 0.71395 0.9611 0.0
O64 O 0.49183 0.793 0.87415 0.0
Eu65 Eu 0.56568 0.67428 0.91584 0.0
Eu66 Eu 0.52089 0.84812 0.91991 0.0
O67 O 0.51182 0.70868 0.87041 0.0
O68 O 0.49577 0.79047 0.96287 0.0
Eu69 Eu 0.53911 0.76241 0.82062 0.0
Eu70 Eu 0.54933 0.76385 1.01297 0.0
O71 O 0.59382 0.7321 0.8691 0.0
O72 O 0.59669 0.73177 0.95943 0.0
O73 O 0.57704 0.81556 0.96173 0.0
O74 O 0.57066 0.812 0.87294 0.0
Eu75 Eu 0.63112 0.78556 0.91378 0.0
O76 O 0.41183 0.75859 0.85424 0.0
O77 O 0.41791 0.71604 0.98287 0.0
O78 O 0.66084 0.80611 0.83815 0.0
O79 O 0.6905 0.79239 0.96713 0.0
O80 O 0.64172 0.6452 0.9129 0.0
O81 O 0.50664 0.62028 0.91526 0.0
O82 O 0.58 0.90115 0.90701 0.0
O83 O 0.4428 0.86713 0.92855 0.0
O84 O 0.53363 0.83288 0.05414 0.0
O85 O 0.5381 0.69169 0.04624 0.0
O86 O 0.53591 0.85453 0.79762 0.0
O87 O 0.53807 0.67075 0.79446 0.0
O88 O 0.64471 0.86136 0.942 0.0
O89 O 0.65909 0.71523 0.94616 0.0
O90 O 0.40042 0.79295 0.9312 0.0
O91 O 0.43712 0.66438 0.89526 0.0
O92 O 0.45937 0.76664 1.03755 0.0
O93 O 0.64228 0.76767 1.0355 0.0
O94 O 0.46526 0.76804 0.78727 0.0
O95 O 0.60699 0.77043 0.78013 0.0
O96 O 0.57174 0.62103 0.85682 0.0
O97 O 0.5514 0.63281 0.98476 0.0
O98 O 0.49696 0.89574 0.86143 0.0
O99 O 0.5137 0.88709 0.98996 0.0
C100 C 0.18924 0.83692 0.17264 0.0
C101 C 0.97956 0.89817 0.13202 0.0
C102 C 0.13567 0.62495 0.14795 0.0
C103 C 0.92021 0.67901 0.16537 0.0
C104 C 0.03798 0.64687 1.03807 0.0
C105 C 0.0678 0.86556 1.03623 0.0
C106 C 0.04204 0.61565 0.2575 0.0
C107 C 0.06466 0.89247 0.25905 0.0
C108 C 0.94424 0.78907 0.27842 0.0
C109 C 0.91327 0.77533 0.05962 0.0
C110 C 0.15222 0.71903 0.27977 0.0
C111 C 0.19325 0.75607 0.06361 0.0
Eu112 Eu 0.07752 0.8427 0.15594 0.0
O113 O 1.02323 0.80844 0.11429 0.0
O114 O 0.10476 0.78782 0.20562 0.0
Eu115 Eu 0.0539 0.75735 0.06487 0.0
Eu116 Eu 0.05177 0.75608 0.25426 0.0
O117 O 0.10659 0.78422 0.11587 0.0
O118 O 1.02465 0.80754 0.20135 0.0
Eu119 Eu 0.14238 0.73301 0.16423 0.0
Eu120 Eu 0.96647 0.78075 0.15916 0.0
O121 O 0.08515 0.7056 0.11566 0.0
O122 O 1.0025 0.72721 0.11487 0.0
O123 O 1.00065 0.72578 0.20307 0.0
O124 O 0.08111 0.70536 0.20312 0.0
Eu125 Eu 1.0306 0.66811 0.15724 0.0
O126 O 0.15651 0.85084 0.14083 0.0
O127 O 1.02417 0.90235 0.14868 0.0
O128 O 0.10081 0.63237 0.17907 0.0
O129 O 0.95425 0.64866 0.1794 0.0
O130 O 0.05729 0.68909 1.02614 0.0
O131 O 0.05567 0.8223 1.02007 0.0
O132 O 0.0499 0.66299 0.27789 0.0
O133 O 0.05026 0.84692 0.27869 0.0
O134 O 0.93122 0.79683 0.23205 0.0
O135 O 0.90864 0.7886 0.10542 0.0
O136 O 0.16611 0.7017 0.23691 0.0
O137 O 0.19856 0.74337 0.10935 0.0
O138 O 1.0289 0.61046 0.21169 0.0
O139 O 1.02198 0.63413 0.08237 0.0
O140 O 0.08509 0.8953 0.21594 0.0
O141 O 0.07961 0.87802 0.08168 0.0
O142 O 0.95307 0.85773 0.13332 0.0
O143 O 0.93266 0.71139 0.13339 0.0
O144 O 0.19275 0.79126 0.18693 0.0
O145 O 0.1686 0.65901 0.14434 0.0
O146 O 0.14617 0.7615 0.04216 0.0
O147 O 0.96032 0.76231 0.04049 0.0
O148 O 0.12734 0.75946 0.28211 0.0
O149 O 0.98333 0.76551 0.29406 0.0
C150 C 0.38764 0.93334 0.37755 0.0
C151 C 0.42337 0.15049 0.43494 0.0
C152 C 0.39706 0.98861 0.1609 0.0
C153 C 0.43563 0.21308 0.21941 0.0
C154 C 0.52384 0.07372 0.18274 0.0
C155 C 0.52486 1.03722 0.40259 0.0
C156 C 0.30737 0.09229 0.16484 0.0
C157 C 0.3066 0.05293 0.43884 0.0
C158 C 0.3019 0.18985 0.31911 0.0
C159 C 0.51435 0.20536 0.30755 0.0
C160 C 0.27645 0.97316 0.29031 0.0
C161 C 0.49698 0.93271 0.27921 0.0
Eu162 Eu 0.40841 0.04959 0.38688 0.0
O163 O 0.45467 0.10145 0.35114 0.0
O164 O 0.35997 1.02613 0.33057 0.0
Eu165 Eu 0.50111 0.06851 0.2972 0.0
Eu166 Eu 0.31235 0.08016 0.30051 0.0
O167 O 0.44706 1.02005 0.32686 0.0
O168 O 0.36533 0.10586 0.35267 0.0
Eu169 Eu 0.39745 0.98761 0.27669 0.0
Eu170 Eu 0.41181 0.16195 0.32387 0.0
O171 O 0.44756 0.04002 0.248 0.0
O172 O 0.45317 0.12308 0.26983 0.0
O173 O 0.36673 0.12832 0.2694 0.0
O174 O 0.35984 0.04753 0.24759 0.0
Eu175 Eu 0.40995 0.09643 0.21191 0.0
O176 O 0.38294 0.97375 0.40328 0.0
O177 O 0.39029 0.1177 0.42725 0.0
O178 O 0.40961 1.03518 0.15766 0.0
O179 O 0.43531 0.17214 0.19346 0.0
O180 O 0.53956 0.06418 0.22754 0.0
O181 O 0.53155 0.07249 0.37105 0.0
O182 O 0.28858 0.07415 0.20935 0.0
O183 O 0.28643 0.06931 0.39312 0.0
O184 O 0.34362 0.20469 0.3373 0.0
O185 O 0.47533 0.20801 0.33429 0.0
O186 O 0.32157 0.95696 0.28287 0.0
O187 O 0.45555 0.93674 0.25605 0.0
O188 O 0.34823 0.11672 0.16522 0.0
O189 O 0.47968 0.08871 0.17015 0.0
O190 O 0.35278 0.0416 0.44211 0.0
O191 O 0.48092 1.02398 0.41774 0.0
O192 O 0.42971 0.18328 0.4008 0.0
O193 O 0.42178 0.21636 0.26542 0.0
O194 O 0.4058 0.93108 0.33347 0.0
O195 O 0.38096 0.96702 0.20058 0.0
O196 O 0.51972 0.97556 0.29717 0.0
O197 O 0.52907 0.15923 0.28905 0.0
O198 O 0.26289 1.01869 0.29737 0.0
O199 O 0.30196 0.15903 0.28315 0.0
C200 C 0.29684 0.27861 0.14042 0.0
C201 C 0.2648 0.49425 0.1969 0.0
C202 C 0.32588 0.31279 0.91595 0.0
C203 C 0.27181 0.51976 0.91914 0.0
C204 C 0.39461 0.43549 0.93873 0.0
C205 C 0.38832 0.39887 0.16258 0.0
C206 C 0.16736 0.40513 0.93305 0.0
C207 C 0.17106 0.37899 0.15588 0.0
C208 C 0.15284 0.50437 1.03277 0.0
C209 C 0.37663 0.5335 0.06414 0.0
C210 C 0.1602 0.29334 1.03303 0.0
C211 C 0.43478 0.32458 1.03734 0.0
Eu212 Eu 0.27897 0.39502 0.13746 0.0
O213 O 0.31617 0.45049 0.09624 0.0
O214 O 0.24898 0.35248 0.07978 0.0
Eu215 Eu 0.37025 0.41795 0.05189 0.0
Eu216 Eu 0.19407 0.39486 0.04472 0.0
O217 O 0.32655 0.3622 0.08388 0.0
O218 O 0.2326 0.44177 0.09404 0.0
Eu219 Eu 0.29554 0.31038 1.03208 0.0
Eu220 Eu 0.26957 0.50151 0.05839 0.0
O221 O 0.33042 0.37294 1.00191 0.0
O222 O 0.31846 0.46082 1.01216 0.0
O223 O 0.23764 0.44865 1.01109 0.0
O224 O 0.24495 0.35877 0.99543 0.0
Eu225 Eu 0.28364 0.41545 0.95849 0.0
O226 O 0.26941 0.31473 0.15671 0.0
O227 O 0.27133 0.44656 0.19904 0.0
O228 O 0.31408 0.35901 0.90976 0.0
O229 O 0.27048 0.4737 0.90821 0.0
O230 O 0.4116 0.42244 0.98183 0.0
O231 O 0.39111 0.37789 0.11997 0.0
O232 O 0.15897 0.38003 0.97293 0.0
O233 O 0.15295 0.36983 0.11243 0.0
O234 O 0.19418 0.52622 0.04604 0.0
O235 O 0.33262 0.54925 0.07484 0.0
O236 O 0.20701 0.28023 1.01565 0.0
O237 O 0.39042 0.29799 1.03154 0.0
O238 O 0.21143 0.41881 0.91917 0.0
O239 O 0.35096 0.45397 0.93391 0.0
O240 O 0.20316 0.41345 0.15808 0.0
O241 O 0.34561 0.40641 0.18198 0.0
O242 O 0.26292 0.51924 0.1513 0.0
O243 O 0.27278 0.53607 0.96879 0.0
O244 O 0.28889 0.26032 0.09642 0.0
O245 O 0.31767 0.28663 0.9565 0.0
O246 O 0.43375 0.37162 0.04573 0.0
O247 O 0.39236 0.49129 0.08116 0.0
O248 O 0.15642 0.32972 0.06222 0.0
O249 O 0.14376 0.45711 1.03383 0.0
C250 C 0.76755 0.6906 0.27185 0.0
C251 C 0.54856 0.70696 0.27713 0.0
C252 C 0.77764 0.47175 0.30566 0.0
C253 C 0.55822 0.42992 0.28764 0.0
C254 C 0.67237 0.43116 0.19652 0.0
C255 C 0.64021 0.65456 0.15303 0.0
C256 C 0.64789 0.48185 0.41508 0.0
C257 C 0.6353 0.70589 0.37128 0.0
C258 C 0.53742 0.55723 0.39813 0.0
C259 C 0.53651 0.53794 0.17455 0.0
C260 C 0.75099 0.58534 0.41706 0.0
C261 C 0.74808 0.56245 0.14026 0.0
Eu262 Eu 0.65112 0.6602 0.2625 0.0
O263 O 0.60708 0.60137 0.23212 0.0
O264 O 0.6954 0.62354 0.31466 0.0
Eu265 Eu 0.65235 0.5498 0.19428 0.0
Eu266 Eu 0.64918 0.58995 0.3686 0.0
O267 O 0.69497 0.605 0.22996 0.0
O268 O 0.60525 0.62159 0.31352 0.0
Eu269 Eu 0.74725 0.57632 0.27938 0.0
Eu270 Eu 0.5571 0.56849 0.28256 0.0
O271 O 0.70126 0.52153 0.24741 0.0
O272 O 0.61084 0.52017 0.25167 0.0
O273 O 0.61023 0.53666 0.32964 0.0
O274 O 0.69836 0.54307 0.33058 0.0
Eu275 Eu 0.65952 0.48451 0.29989 0.0
O276 O 0.72298 0.70106 0.25553 0.0
O277 O 0.59149 0.71132 0.25762 0.0
O278 O 0.73369 0.45989 0.32107 0.0
O279 O 0.60496 0.42644 0.2959 0.0
O280 O 0.66689 0.47194 0.17081 0.0
O281 O 0.67328 0.62208 0.1617 0.0
O282 O 0.65658 0.52864 0.42139 0.0
O283 O 0.62456 0.66376 0.39203 0.0
O284 O 0.51891 0.55849 0.35321 0.0
O285 O 0.52437 0.56858 0.20955 0.0
O286 O 0.77064 0.57056 0.3715 0.0
O287 O 0.76698 0.58161 0.18504 0.0
O288 O 0.6463 0.45829 0.37361 0.0
O289 O 0.67049 0.42836 0.2443 0.0
O290 O 0.64908 0.71084 0.32534 0.0
O291 O 0.63363 0.68699 0.1872 0.0
O292 O 0.52977 0.65985 0.28878 0.0
O293 O 0.53506 0.47616 0.2826 0.0
O294 O 0.78275 0.64694 0.28557 0.0
O295 O 0.79061 0.51044 0.28056 0.0
O296 O 0.70911 0.53596 0.14224 0.0
O297 O 0.58141 0.5273 0.16128 0.0
O298 O 0.70968 0.60897 0.41735 0.0
O299 O 0.58247 0.5692 0.41027 0.0
C300 C 0.66444 0.13234 0.9277 0.0
C301 C 0.69396 0.16159 0.14459 0.0
C302 C 0.88667 0.19422 0.89778 0.0
C303 C 0.91589 0.14763 0.12243 0.0
C304 C 0.8999 1.03549 1.00652 0.0
C305 C 0.67372 0.04625 0.04266 0.0
C306 C 0.93513 0.24977 1.01999 0.0
C307 C 0.65802 0.26349 1.02892 0.0
C308 C 0.79304 0.2743 0.1376 0.0
C309 C 0.80056 0.05499 0.15222 0.0
C310 C 0.77557 0.28793 0.91529 0.0
C311 C 0.78503 0.07059 0.87758 0.0
Eu312 Eu 0.70436 0.16105 1.03338 0.0
O313 O 0.75436 0.11383 0.0677 0.0
O314 O 0.74542 0.21038 0.9882 0.0
Eu315 Eu 0.7868 0.06423 1.01601 0.0
Eu316 Eu 0.79658 0.25668 1.02685 0.0
O317 O 0.74549 0.1211 0.98305 0.0
O318 O 0.75632 0.20588 0.07035 0.0
Eu319 Eu 0.77911 0.16976 0.93316 0.0
Eu320 Eu 0.8011 0.15898 0.1123 0.0
O321 O 0.82442 0.11529 0.96891 0.0
O322 O 0.83276 0.11166 0.05762 0.0
O323 O 0.83992 0.20019 0.05986 0.0
O324 O 0.82923 0.20514 0.97907 0.0
Eu325 Eu 0.87692 0.15237 1.01048 0.0
O326 O 0.65444 0.1375 0.97444 0.0
O327 O 0.69346 0.19166 0.1078 0.0
O328 O 0.9054 0.17651 0.93877 0.0
O329 O 0.92452 0.13952 0.07579 0.0
O330 O 0.85462 1.02101 1.01419 0.0
O331 O 0.71453 1.02954 1.02281 0.0
O332 O 0.89031 0.27578 1.02452 0.0
O333 O 0.70532 0.28407 1.03596 0.0
O334 O 0.78412 0.22925 0.15299 0.0
O335 O 0.82334 0.0964 0.15471 0.0
O336 O 0.76353 0.24358 0.89994 0.0
O337 O 0.79121 0.11758 0.87628 0.0
O338 O 0.93488 0.20335 1.01201 0.0
O339 O 0.91412 0.08067 0.99715 0.0
O340 O 0.65329 0.21772 1.01767 0.0
O341 O 0.66382 0.09243 0.05345 0.0
O342 O 0.7356 0.1422 0.15768 0.0
O343 O 0.87514 0.16483 0.141 0.0
O344 O 0.70548 0.14674 0.90637 0.0
O345 O 0.84039 0.19318 0.88583 0.0
O346 O 0.78126 0.04514 0.92285 0.0
O347 O 0.78428 1.03705 0.10655 0.0
O348 O 0.79165 0.30026 0.95931 0.0
O349 O 0.82009 0.28272 0.0995 0.0
C350 C 0.16628 0.62726 0.43498 0.0
C351 C 0.16661 0.65111 0.65536 0.0
C352 C 0.38928 0.65693 0.44086 0.0
C353 C 0.3844 0.66939 0.66103 0.0
C354 C 0.39976 0.54504 0.55244 0.0
C355 C 0.17015 0.53227 0.55158 0.0
C356 C 0.41355 0.76268 0.54421 0.0
C357 C 0.13479 0.74867 0.53679 0.0
C358 C 0.26708 0.7784 0.66127 0.0
C359 C 0.28025 0.56535 0.69717 0.0
C360 C 0.27712 0.77456 0.43148 0.0
C361 C 0.27639 0.54974 0.41787 0.0
Eu362 Eu 0.19061 0.65067 0.54655 0.0
O363 O 0.23611 0.61023 0.59451 0.0
O364 O 0.23326 0.69973 0.50257 0.0
Eu365 Eu 0.28305 0.56158 0.55568 0.0
Eu366 Eu 0.27332 0.75276 0.5458 0.0
O367 O 0.24365 0.61086 0.50948 0.0
O368 O 0.23382 0.70023 0.58784 0.0
Eu369 Eu 0.28008 0.65696 0.45908 0.0
Eu370 Eu 0.27567 0.661 0.64023 0.0
O371 O 0.32287 0.61276 0.51005 0.0
O372 O 0.32141 0.6162 0.59582 0.0
O373 O 0.3169 0.70599 0.59202 0.0
O374 O 0.31935 0.70307 0.50731 0.0
Eu375 Eu 0.36777 0.6606 0.55185 0.0
O376 O 0.14988 0.62928 0.48003 0.0
O377 O 0.16944 0.68133 0.61891 0.0
O378 O 0.38607 0.68732 0.47706 0.0
O379 O 0.40647 0.6808 0.62055 0.0
O380 O 0.35526 0.52654 0.55462 0.0
O381 O 0.216 0.51819 0.55585 0.0
O382 O 0.36492 0.78134 0.53972 0.0
O383 O 0.18006 0.77317 0.54378 0.0
O384 O 0.27035 0.73304 0.67761 0.0
O385 O 0.27847 0.61259 0.70127 0.0
O386 O 0.28428 0.72846 0.41829 0.0
O387 O 0.27628 0.59654 0.40927 0.0
O388 O 0.4216 0.71685 0.55353 0.0
O389 O 0.41207 0.5918 0.55148 0.0
O390 O 0.13398 0.70181 0.53058 0.0
O391 O 0.15385 0.57766 0.54999 0.0
O392 O 0.20679 0.64171 0.67877 0.0
O393 O 0.35062 0.63662 0.65825 0.0
O394 O 0.20986 0.64217 0.42072 0.0
O395 O 0.34905 0.64506 0.41853 0.0
O396 O 0.27872 0.53049 0.46613 0.0
O397 O 0.28207 0.54198 0.65023 0.0
O398 O 0.26821 0.79079 0.47599 0.0
O399 O 0.26965 0.7941 0.6154 0.0
C400 C 0.8759 0.45052 0.87043 0.0
C401 C 0.90669 0.67066 0.91145 0.0
C402 C 0.93033 0.48661 0.65705 0.0
C403 C 0.91109 0.70688 0.68807 0.0
C404 C 1.0253 0.56143 0.67912 0.0
C405 C 1.01485 0.54306 0.89968 0.0
C406 C 0.81266 0.57348 0.64065 0.0
C407 C 0.79504 0.5787 0.91679 0.0
C408 C 0.78981 0.69757 0.78404 0.0
C409 C 1.00883 0.72287 0.80398 0.0
C410 C 0.79153 0.47105 0.76202 0.0
C411 C 1.00746 0.44547 0.78985 0.0
Eu412 Eu 0.8991 0.56523 0.87451 0.0
O413 O 0.94662 0.61625 0.8375 0.0
O414 O 0.85685 0.53335 0.81757 0.0
Eu415 Eu 1.00262 0.58328 0.79377 0.0
Eu416 Eu 0.81082 0.58261 0.77794 0.0
O417 O 0.94826 0.53519 0.82353 0.0
O418 O 0.86195 0.6151 0.82705 0.0
Eu419 Eu 0.90628 0.49603 0.77227 0.0
Eu420 Eu 0.90662 0.67188 0.79753 0.0
O421 O 0.95239 0.55032 0.7443 0.0
O422 O 0.95621 0.63155 0.75175 0.0
O423 O 0.86334 0.63185 0.74517 0.0
O424 O 0.86462 0.54799 0.73297 0.0
Eu425 Eu 0.91342 0.5959 0.69613 0.0
O426 O 0.86302 0.49269 0.88942 0.0
O427 O 0.87446 0.63768 0.9026 0.0
O428 O 0.92306 0.53293 0.64691 0.0
O429 O 0.91164 0.66871 0.65951 0.0
O430 O 0.042 0.56427 0.72489 0.0
O431 O 1.03041 0.57657 0.86877 0.0
O432 O 0.78846 0.57329 0.68637 0.0
O433 O 0.77862 0.5865 0.86782 0.0
O434 O 0.83497 0.7105 0.79565 0.0
O435 O 0.96158 0.72879 0.80658 0.0
O436 O 0.83757 0.45866 0.76042 0.0
O437 O 0.963 0.44194 0.77386 0.0
O438 O 0.85916 0.58322 0.63865 0.0
O439 O 0.98454 0.58114 0.66288 0.0
O440 O 0.83962 0.56477 0.92615 0.0
O441 O 0.96815 0.5355 0.91057 0.0
O442 O 0.91687 0.70011 0.87484 0.0
O443 O 0.9367 0.70417 0.72825 0.0
O444 O 0.90925 0.44784 0.83688 0.0
O445 O 0.92374 0.4654 0.69967 0.0
O446 O 1.02841 0.49196 0.79901 0.0
O447 O 1.02958 0.67516 0.79887 0.0
O448 O 0.7718 0.51347 0.77294 0.0
O449 O 0.77483 0.65341 0.77128 0.0
C450 C 0.76699 0.81615 0.65655 0.0
C451 C 0.76706 1.02153 0.65308 0.0
C452 C 0.79786 0.78654 0.42917 0.0
C453 C 0.79033 0.99919 0.37467 0.0
C454 C 0.9015 0.91862 0.43196 0.0
C455 C 0.8764 0.92762 0.64606 0.0
C456 C 0.67906 0.89925 0.40083 0.0
C457 C 0.65624 0.91739 0.62466 0.0
C458 C 0.66507 1.02453 0.50136 0.0
C459 C 0.88972 1.02939 0.53938 0.0
C460 C 0.63516 0.81136 0.52591 0.0
C461 C 0.91295 0.81171 0.53919 0.0
Eu462 Eu 0.76487 0.9228 0.61142 0.0
O463 O 0.81246 0.96391 0.56628 0.0
O464 O 0.72947 0.87232 0.56486 0.0
Eu465 Eu 0.86344 0.91444 0.53739 0.0
Eu466 Eu 0.68582 0.91109 0.51244 0.0
O467 O 0.81189 0.87172 0.57719 0.0
O468 O 0.72886 0.96173 0.55387 0.0
Eu469 Eu 0.77566 0.8164 0.53558 0.0
Eu470 Eu 0.77696 1.00864 0.51287 0.0
O471 O 0.82081 0.86545 0.49467 0.0
O472 O 0.82289 0.95301 0.48305 0.0
O473 O 0.7411 0.94983 0.47403 0.0
O474 O 0.73913 0.86182 0.48147 0.0
Eu475 Eu 0.7886 0.90183 0.43471 0.0
O476 O 0.76019 0.86288 0.66447 0.0
O477 O 0.74329 0.98132 0.65693 0.0
O478 O 0.81267 0.8272 0.40733 0.0
O479 O 0.79642 0.95189 0.37469 0.0
O480 O 0.91595 0.90715 0.47602 0.0
O481 O 0.88443 0.89504 0.61278 0.0
O482 O 0.67527 0.87415 0.44104 0.0
O483 O 0.6436 0.89816 0.58252 0.0
O484 O 0.7067 0.03863 0.4823 0.0
O485 O 0.84865 0.04469 0.5183 0.0
O486 O 0.68276 0.79199 0.53537 0.0
O487 O 0.86628 0.78948 0.54081 0.0
O488 O 0.72282 0.91127 0.38597 0.0
O489 O 0.85997 0.94081 0.42686 0.0
O490 O 0.69061 0.94941 0.62483 0.0
O491 O 0.83263 0.94584 0.65098 0.0
O492 O 0.7821 0.03753 0.60548 0.0
O493 O 0.78457 1.02536 0.41927 0.0
O494 O 0.77422 0.79441 0.61343 0.0
O495 O 0.81307 0.77781 0.47362 0.0
O496 O 0.91749 0.85879 0.53758 0.0
O497 O 0.90038 0.98446 0.55259 0.0
O498 O 0.62901 0.85689 0.51291 0.0
O499 O 0.64764 0.98099 0.49003 0.0
C500 C 0.04806 0.12527 0.90828 0.0
C501 C 0.25901 0.08209 0.94147 0.0
C502 C 1.02922 0.0521 0.70534 0.0
C503 C 0.24908 0.04515 0.66339 0.0
C504 C 0.1593 0.92998 0.73969 0.0
C505 C 0.16266 1.01744 0.94722 0.0
C506 C 0.14352 0.14588 0.66554 0.0
C507 C 0.20719 0.21532 0.86708 0.0
C508 C 0.28075 0.16515 0.75407 0.0
C509 C 0.26885 0.95957 0.84058 0.0
C510 C 0.0684 0.22256 0.79217 0.0
C511 C 0.05622 0.94799 0.82881 0.0
Eu512 Eu 0.15981 0.11345 0.89149 0.0
O513 O 0.19852 0.05497 0.85596 0.0
O514 O 0.11842 0.13776 0.82996 0.0
Eu515 Eu 0.1559 0.99505 0.8369 0.0
Eu516 Eu 0.1657 0.16399 0.77355 0.0
O517 O 0.11341 0.05543 0.86365 0.0
O518 O 0.20668 0.12715 0.8293 0.0
Eu519 Eu 0.06459 0.08412 0.80935 0.0
Eu520 Eu 0.25229 0.06873 0.80247 0.0
O521 O 0.11157 1.02853 0.78261 0.0
O522 O 0.19775 1.01913 0.77638 0.0
O523 O 0.20104 0.09797 0.75118 0.0
O524 O 0.11392 0.10752 0.75329 0.0
Eu525 Eu 0.1508 0.04762 0.72019 0.0
O526 O 0.08921 0.14918 0.91579 0.0
O527 O 0.21771 0.10559 0.94622 0.0
O528 O 0.0741 0.03982 0.69153 0.0
O529 O 0.2024 1.0355 0.66074 0.0
O530 O 0.15427 0.93165 0.78738 0.0
O531 O 0.18958 1.00695 0.90972 0.0
O532 O 0.13964 0.18079 0.69782 0.0
O533 O 0.17623 0.22018 0.8311 0.0
O534 O 0.2868 0.14123 0.79508 0.0
O535 O 0.28883 0.99908 0.82109 0.0
O536 O 0.04541 0.17744 0.80358 0.0
O537 O 0.04079 0.99204 0.80633 0.0
O538 O 0.17417 0.1112 0.67505 0.0
O539 O 0.15864 0.96732 0.70892 0.0
O540 O 0.20113 0.18265 0.90175 0.0
O541 O 0.1449 0.06156 0.95159 0.0
O542 O 0.27654 0.06736 0.89472 0.0
O543 O 0.27127 0.05528 0.70944 0.0
O544 O 0.05146 0.08208 0.88947 0.0
O545 O 1.0171 0.07485 0.74614 0.0
O546 O 0.093 0.95053 0.85925 0.0
O547 O 0.22224 0.95089 0.84794 0.0
O548 O 0.11266 0.22322 0.77468 0.0
O549 O 0.23846 0.18536 0.74257 0.0
C550 C 0.67436 0.33929 0.66872 0.0
C551 C 0.4562 0.39003 0.66064 0.0
C552 C 0.62824 0.11808 0.674 0.0
C553 C 0.41381 0.16429 0.64159 0.0
C554 C 0.55078 0.14552 0.55235 0.0
C555 C 0.55138 0.37585 0.55772 0.0
C556 C 0.52264 0.12212 0.77215 0.0
C557 C 0.55777 0.39636 0.77024 0.0
C558 C 0.43821 0.29359 0.79461 0.0
C559 C 0.39883 0.27388 0.57641 0.0
C560 C 0.64537 0.22886 0.78906 0.0
C561 C 0.67654 0.25338 0.5698 0.0
Eu562 Eu 0.55783 0.34255 0.67124 0.0
O563 O 0.50555 0.30608 0.62819 0.0
O564 O 0.59065 0.28986 0.71823 0.0
Eu565 Eu 0.53896 0.26022 0.57537 0.0
Eu566 Eu 0.54063 0.25847 0.76912 0.0
O567 O 0.58911 0.28722 0.62864 0.0
O568 O 0.50772 0.30612 0.71779 0.0
Eu569 Eu 0.62801 0.23687 0.67509 0.0
Eu570 Eu 0.45271 0.27322 0.67584 0.0
O571 O 0.5752 0.20965 0.62495 0.0
O572 O 0.49187 0.22625 0.6275 0.0
O573 O 0.49212 0.22165 0.71792 0.0
O574 O 0.57184 0.20735 0.71785 0.0
Eu575 Eu 0.52559 0.16986 0.66805 0.0
O576 O 0.63422 0.35989 0.65281 0.0
O577 O 0.49592 0.39162 0.68674 0.0
O578 O 0.58198 0.11494 0.68455 0.0
O579 O 0.45677 0.14445 0.63651 0.0
O580 O 0.5427 0.19052 0.53601 0.0
O581 O 0.54519 0.33201 0.53825 0.0
O582 O 0.53647 0.16734 0.79265 0.0
O583 O 0.54003 0.35206 0.79113 0.0
O584 O 0.42258 0.29845 0.74876 0.0
O585 O 0.3968 0.28258 0.62293 0.0
O586 O 0.66274 0.21511 0.74635 0.0
O587 O 0.68066 0.23969 0.61551 0.0
O588 O 0.50579 0.11948 0.7273 0.0
O589 O 0.54867 0.13149 0.59881 0.0
O590 O 0.57827 0.3942 0.72748 0.0
O591 O 0.5534 0.38715 0.60438 0.0
O592 O 0.43282 0.34902 0.65161 0.0
O593 O 0.40531 0.20647 0.6645 0.0
O594 O 0.67914 0.29502 0.68526 0.0
O595 O 0.6516 0.15986 0.66849 0.0
O596 O 0.62998 0.26317 0.54924 0.0
O597 O 0.44495 0.26501 0.55328 0.0
O598 O 0.61775 0.26738 0.7917 0.0
O599 O 0.47184 0.26243 0.8086 0.0
C600 C 0.20521 0.34892 0.23406 0.0
C601 C 0.17866 0.3387 0.19115 0.0
C602 C 0.21725 0.31265 0.26749 0.0
C603 C 0.19908 0.26584 0.26094 0.0
H604 H 0.21688 0.38519 0.24227 0.0
H605 H 0.23235 0.32346 0.30231 0.0
S606 S 0.14714 0.21414 0.14884 0.0
N607 N 0.14651 0.27352 0.14003 0.0
N608 N 0.17449 0.20578 0.20168 0.0
C609 C 0.18554 0.25246 0.21352 0.0
C610 C 0.16993 0.28929 0.18041 0.0
C611 C 0.60643 0.598 0.09332 0.0
C612 C 0.5981 0.63489 0.12803 0.0
C613 C 0.56804 0.57931 0.06629 0.0
C614 C 0.52667 0.60818 0.06435 0.0
H615 H 0.64242 0.585 0.08606 0.0
H616 H 0.57627 0.55435 1.03703 0.0
S617 S 0.47738 0.68328 0.16244 0.0
N618 N 0.53615 0.67975 0.17338 0.0
N619 N 0.46709 0.64722 0.11545 0.0
C620 C 0.51213 0.62862 0.10862 0.0
C621 C 0.54969 0.64744 0.13878 0.0
C622 C 0.97618 0.21869 0.19816 0.0
C623 C 0.95112 0.20283 0.24021 0.0
C624 C 0.98093 0.18861 0.15789 0.0
C625 C 0.9551 0.14518 0.15687 0.0
H626 H 0.99016 0.25536 0.19504 0.0
H627 H 0.99465 0.20438 0.12451 0.0
S628 S 0.90808 0.07746 0.26279 0.0
N629 N 0.91935 0.13249 0.28378 0.0
N630 N 0.92372 0.07822 0.20474 0.0
C631 C 0.94153 0.12412 0.20125 0.0
C632 C 0.93781 0.15375 0.24325 0.0
C633 C 0.43593 0.91114 0.13964 0.0
C634 C 0.41755 0.95641 0.12427 0.0
C635 C 0.47086 0.88688 0.11265 0.0
C636 C 0.48766 0.9062 0.06854 0.0
H637 H 0.42548 0.89531 0.17415 0.0
H638 H 0.48387 0.85222 0.12623 0.0
S639 S 0.44306 1.01962 1.00847 0.0
N640 N 0.41299 1.01661 0.06009 0.0
N641 N 0.47881 0.97152 1.00818 0.0
C642 C 0.4671 0.9503 0.05134 0.0
C643 C 0.43151 0.97484 0.07913 0.0
C644 C 0.15278 0.60281 0.35275 0.0
C645 C 0.13142 0.61933 0.39599 0.0
C646 C 0.16134 0.6361 0.31524 0.0
C647 C 0.14233 0.68353 0.31833 0.0
H648 H 0.17276 0.56912 0.35279 0.0
H649 H 0.18432 0.62529 0.28521 0.0
S650 S 0.04831 0.72313 0.40726 0.0
N651 N 0.06666 0.66941 0.42683 0.0
N652 N 0.08077 0.73445 0.35819 0.0
C653 C 0.10815 0.69339 0.35553 0.0
C654 C 0.09979 0.65833 0.39218 0.0
C655 C 1.03356 0.64064 0.95124 0.0
C656 C 1.02449 0.61745 0.99609 0.0
C657 C 0.99505 0.66228 0.92662 0.0
C658 C 0.94727 0.65224 0.94075 0.0
H659 H 0.06979 0.65253 0.94205 0.0
H660 H 1.00297 0.68653 0.89674 0.0
S661 S 0.91104 0.561 1.03474 0.0
N662 N 0.97055 0.56256 1.03748 0.0
N663 N 0.89628 0.60083 0.99227 0.0
C664 C 0.94001 0.61674 0.9775 0.0
C665 C 0.97986 0.59582 1.00198 0.0
C666 C 0.92553 0.80404 0.36418 0.0
C667 C 0.92219 0.81941 0.31549 0.0
C668 C 0.92233 0.8372 0.40202 0.0
C669 C 0.91466 0.88664 0.39236 0.0
H670 H 0.9336 0.76656 0.37315 0.0
H671 H 0.9247 0.82367 0.43893 0.0
S672 S 0.90434 0.94593 0.27176 0.0
N673 N 0.91153 0.88765 0.25962 0.0
N674 N 0.9041 0.9501 0.33173 0.0
C675 C 0.91017 0.90259 0.34415 0.0
C676 C 0.91366 0.86884 0.30542 0.0
C677 C 0.09069 0.98519 0.98722 0.0
C678 C 0.13708 0.97744 0.96832 0.0
C679 C 0.06371 0.94611 1.00301 0.0
C680 C 0.08246 0.89932 1.00038 0.0
H681 H 0.07521 1.02128 0.99021 0.0
H682 H 1.02951 0.95247 1.02003 0.0
S683 S 0.1995 0.85919 0.94994 0.0
N684 N 0.19985 0.91898 0.94545 0.0
N685 N 0.14657 0.84534 0.97381 0.0
C686 C 0.12682 0.89045 0.97824 0.0
C687 C 0.1552 0.92991 0.96322 0.0
C688 C 0.18197 0.14826 0.36285 0.0
C689 C 0.18668 0.15207 0.41332 0.0
C690 C 0.21927 0.16284 0.33296 0.0
C691 C 0.26275 0.18073 0.35265 0.0
H692 H 0.1483 0.13738 0.34602 0.0
H693 H 0.21367 0.16059 0.29393 0.0
S694 S 0.29829 0.17693 0.48254 0.0
N695 N 0.23933 0.16783 0.48228 0.0
N696 N 0.31311 0.1864 0.42526 0.0
C697 C 0.26961 0.17972 0.40315 0.0
C698 C 0.23049 0.16753 0.43369 0.0
C699 C 0.38514 0.59971 0.94584 0.0
C700 C 0.43098 0.5857 0.92911 0.0
C701 C 0.36786 0.58206 0.98945 0.0
C702 C 0.39503 0.54885 1.01709 0.0
H703 H 0.36463 0.62839 0.92816 0.0
H704 H 0.33382 0.59658 1.00233 0.0
S705 S 0.51081 0.49085 0.98139 0.0
N706 N 0.49727 0.5277 0.93614 0.0
N707 N 0.46694 0.49753 1.02151 0.0
C708 C 0.43828 0.53027 0.99799 0.0
C709 C 0.45487 0.54687 0.95227 0.0
C710 C 0.81817 0.4456 0.3787 0.0
C711 C 0.81593 0.44647 0.32768 0.0
C712 C 0.85456 0.41983 0.40161 0.0
C713 C 0.88794 0.39495 0.37317 0.0
H714 H 0.79123 0.46404 0.40068 0.0
H715 H 0.85501 0.41705 0.44102 0.0
S716 S 0.89817 0.38998 0.23871 0.0
N717 N 0.85056 0.42464 0.24956 0.0
N718 N 0.91921 0.37412 0.29278 0.0
C719 C 0.8874 0.39777 0.3222 0.0
C720 C 0.85088 0.42434 0.29912 0.0
C721 C 0.64366 0.92785 1.01751 0.0
C722 C 0.62024 0.93828 0.97309 0.0
C723 C 0.64871 0.96365 0.05294 0.0
C724 C 0.63426 1.01142 0.04246 0.0
H725 H 0.66011 0.89274 1.02427 0.0
H726 H 0.67287 0.95645 0.08327 0.0
S727 S 0.54866 0.04919 0.94618 0.0
N728 N 0.56535 0.99372 0.9308 0.0
N729 N 0.57689 0.06132 0.99787 0.0
C730 C 0.60047 1.01858 1.00519 0.0
C731 C 0.5947 0.98235 0.96894 0.0
C732 C 0.23486 0.85741 0.24647 0.0
C733 C 0.20701 0.87311 0.20656 0.0
C734 C 0.25024 0.8901 0.28128 0.0
C735 C 0.23918 0.93947 0.27647 0.0
H736 H 0.24655 0.81996 0.25018 0.0
H737 H 0.27614 0.87771 0.30815 0.0
S738 S 0.15815 0.9976 0.18569 0.0
N739 N 0.16299 0.94044 0.16828 0.0
N740 N 0.19069 1.00153 0.23593 0.0
C741 C 0.20621 0.95477 0.24076 0.0
C742 C 0.19148 0.92186 0.20432 0.0
C743 C 0.08065 0.5311 0.06599 0.0
C744 C 0.11171 0.53669 1.02634 0.0
C745 C 0.08952 0.55983 0.10689 0.0
C746 C 0.12234 0.59905 0.10378 0.0
H747 H 0.0598 0.49801 0.07031 0.0
H748 H 0.07166 0.55063 0.14054 0.0
S749 S 0.17273 0.64903 0.98866 0.0
N750 N 0.14716 0.59718 0.97329 0.0
N751 N 0.1637 0.65469 0.04786 0.0
C752 C 0.13813 0.61373 0.05719 0.0
C753 C 0.12772 0.5838 1.01662 0.0
C754 C 0.80785 0.73941 0.21285 0.0
C755 C 0.80766 0.7237 0.26128 0.0
C756 C 0.84452 0.72335 0.182 0.0
C757 C 0.88352 0.69548 0.19997 0.0
H758 H 0.77545 0.7547 0.19653 0.0
H759 H 0.84087 0.73054 0.14356 0.0
S760 S 0.9105 0.67177 0.33017 0.0
N761 N 0.85793 0.70055 0.33021 0.0
N762 N 0.92683 0.66802 0.27245 0.0
C763 C 0.88888 0.69082 0.25059 0.0
C764 C 0.85226 0.70934 0.28177 0.0
C765 C 0.92609 0.95195 1.01883 0.0
C766 C 0.93641 1.0014 1.0237 0.0
C767 C 0.94009 0.91931 0.05491 0.0
C768 C 0.96452 0.93507 0.0969 0.0
H769 H 0.90387 0.93929 0.9889 0.0
H770 H 0.93254 0.88122 0.04963 0.0
S771 S 1.02106 0.05591 0.11329 0.0
N772 N 0.98747 0.06147 0.06374 0.0
N773 N 1.01277 0.99978 0.13272 0.0
C774 C 0.98181 0.98296 0.09817 0.0
C775 C 0.9683 1.01616 0.06083 0.0
C776 C 0.38294 0.25613 0.12714 0.0
C777 C 0.34722 0.27796 0.15667 0.0
C778 C 0.43084 0.2534 0.14304 0.0
C779 C 0.43885 0.25966 0.19282 0.0
H780 H 0.37368 0.23831 0.09333 0.0
H781 H 0.45597 0.23193 0.12177 0.0
S782 S 0.36963 0.33662 0.2764 0.0
N783 N 0.33133 0.32177 0.23255 0.0
N784 N 0.42284 0.31522 0.25927 0.0
C785 C 0.41102 0.29575 0.21535 0.0
C786 C 0.36179 0.29923 0.20096 0.0
C787 C 0.34233 0.80582 0.38222 0.0
C788 C 0.29512 0.81238 0.39988 0.0
C789 C 0.37346 0.84531 0.37805 0.0
C790 C 0.35778 0.89216 0.39028 0.0
H791 H 0.35712 0.76968 0.37694 0.0
H792 H 0.41039 0.83911 0.36647 0.0
S793 S 0.2351 0.92848 0.43045 0.0
N794 N 0.232 0.86904 0.42333 0.0
N795 N 0.2907 0.94381 0.4151 0.0
C796 C 0.30951 0.89956 0.40402 0.0
C797 C 0.27771 0.85956 0.40761 0.0
C798 C 0.10025 0.51979 0.90763 0.0
C799 C 0.0515 0.50652 0.91266 0.0
C800 C 0.13704 0.48574 0.91096 0.0
C801 C 0.12705 0.43631 0.91746 0.0
H802 H 0.11032 0.55707 0.90027 0.0
H803 H 0.17376 0.4989 0.91114 0.0
S804 S 1.0051 0.38034 0.92085 0.0
N805 N 0.99445 0.43934 0.91783 0.0
N806 N 0.06465 0.37427 0.92217 0.0
C807 C 0.07838 0.42159 0.91981 0.0
C808 C 0.04041 0.45686 0.91769 0.0
C809 C 0.67157 0.78518 0.37932 0.0
C810 C 0.6513 0.74503 0.40343 0.0
C811 C 0.72044 0.79544 0.38495 0.0
C812 C 0.74717 0.77319 0.42207 0.0
H813 H 0.65335 0.80202 0.34912 0.0
H814 H 0.7371 0.82089 0.35996 0.0
S815 S 0.69904 0.68749 0.51507 0.0
N816 N 0.65306 0.69795 0.47815 0.0
N817 N 0.74473 0.7189 0.4929 0.0
C818 C 0.72328 0.74079 0.45397 0.0
C819 C 0.67393 0.72933 0.44615 0.0
C820 C 0.41871 0.57282 0.42581 0.0
C821 C 0.42692 0.61986 0.44434 0.0
C822 C 0.45632 0.53907 0.42469 0.0
C823 C 0.50292 0.55412 0.43812 0.0
H824 H 0.38439 0.56283 0.4097 0.0
H825 H 0.45139 0.50614 0.40362 0.0
S826 S 0.53597 0.65973 0.51305 0.0
N827 N 0.48118 0.67143 0.49202 0.0
N828 N 0.54873 0.60431 0.49419 0.0
C829 C 0.50697 0.59301 0.47041 0.0
C830 C 0.47051 0.62896 0.46938 0.0
C831 C 0.16771 0.84261 0.72206 0.0
C832 C 0.18726 0.88932 0.72395 0.0
C833 C 0.1968 0.80412 0.70701 0.0
C834 C 0.24539 0.81235 0.69408 0.0
H835 H 0.12988 0.83633 0.73036 0.0
H836 H 0.18028 0.76876 0.70165 0.0
S837 S 0.31512 0.9258 0.7072 0.0
N838 N 0.25927 0.94024 0.72267 0.0
N839 N 0.31316 0.8679 0.69172 0.0
C840 C 0.2659 0.85799 0.70037 0.0
C841 C 0.2368 0.89675 0.71611 0.0
C842 C 0.0608 0.5831 0.60625 0.0
C843 C 0.0584 0.54615 0.64081 0.0
C844 C 0.0927 0.62063 0.61711 0.0
C845 C 0.13281 0.61139 0.64748 0.0
H846 H 1.02959 0.59069 0.58386 0.0
H847 H 0.08633 0.65626 0.60217 0.0
S848 S 0.16562 0.48908 0.69517 0.0
N849 N 0.10888 0.48405 0.67695 0.0
N850 N 0.18181 0.54551 0.68217 0.0
C851 C 0.14052 0.56289 0.66264 0.0
C852 C 0.10241 0.52908 0.65787 0.0
C853 C 0.94227 1.03524 0.697 0.0
C854 C 0.98938 1.02915 0.67914 0.0
C855 C 0.90722 1.00026 0.68861 0.0
C856 C 0.91673 0.95965 0.65944 0.0
H857 H 0.93316 0.06557 0.71996 0.0
H858 H 0.8723 1.00554 0.70526 0.0
S859 S 1.03118 0.93595 0.59209 0.0
N860 N 0.04177 0.98542 0.62354 0.0
N861 N 0.97497 0.92044 0.60522 0.0
C862 C 0.9625 0.95614 0.63682 0.0
C863 C 0.99853 0.99145 0.6464 0.0
C864 C 0.65185 0.83673 0.66423 0.0
C865 C 0.6536 0.88741 0.66875 0.0
C866 C 0.65686 0.80685 0.70483 0.0
C867 C 0.66265 0.82647 0.75179 0.0
H868 H 0.6482 0.81976 0.62898 0.0
H869 H 0.65281 0.76799 0.69983 0.0
S870 S 0.67374 0.95697 0.78296 0.0
N871 N 0.66622 0.9562 0.72323 0.0
N872 N 0.67299 0.89949 0.80035 0.0
C873 C 0.66713 0.87697 0.75669 0.0
C874 C 0.66267 0.90758 0.71507 0.0
C875 C 0.0658 0.08399 0.572 0.0
C876 C 1.02488 0.11359 0.57421 0.0
C877 C 0.10465 0.09479 0.60251 0.0
C878 C 0.10033 0.13117 0.63847 0.0
H879 H 0.07223 0.06117 0.5405 0.0
H880 H 0.13818 0.07582 0.59646 0.0
S881 S 0.98415 0.18468 0.68014 0.0
N882 N 0.97042 0.15427 0.63013 0.0
N883 N 0.04296 0.17704 0.68836 0.0
C884 C 0.0536 0.14811 0.6498 0.0
C885 C 1.01433 0.1349 0.61928 0.0
C886 C 0.35303 0.7267 0.77971 0.0
C887 C 0.38022 0.76949 0.77598 0.0
C888 C 0.35503 0.69381 0.74159 0.0
C889 C 0.37663 0.70718 0.69725 0.0
H890 H 0.34176 0.71305 0.81499 0.0
H891 H 0.34317 0.65695 0.74837 0.0
S892 S 0.41832 0.83103 0.66357 0.0
N893 N 0.40764 0.83358 0.72262 0.0
N894 N 0.40332 0.77534 0.64686 0.0
C895 C 0.38863 0.75638 0.6898 0.0
C896 C 0.3892 0.78835 0.72994 0.0
C897 C 0.9828 0.44989 0.5378 0.0
C898 C 1.01777 0.41587 0.55263 0.0
C899 C 0.9533 0.47192 0.5721 0.0
C900 C 0.95841 0.46031 0.62155 0.0
H901 H 0.97501 0.4561 0.49958 0.0
H902 H 0.92541 0.49682 0.55979 0.0
S903 S 0.05263 0.38136 0.67763 0.0
N904 N 0.06244 0.37834 0.61866 0.0
N905 N 1.00615 0.41852 0.68383 0.0
C906 C 0.99652 0.42986 0.63669 0.0
C907 C 1.02711 0.40859 0.6019 0.0
C908 C 0.64023 0.10567 0.84912 0.0
C909 C 0.62429 0.12086 0.89514 0.0
C910 C 0.64885 0.1417 0.81415 0.0
C911 C 0.63312 0.18985 0.82294 0.0
H912 H 0.6581 0.07082 0.84514 0.0
H913 H 0.66954 0.13235 0.78205 0.0
S914 S 0.54268 0.22369 0.91738 0.0
N915 N 0.56038 0.16823 0.93212 0.0
N916 N 0.57442 0.23901 0.86893 0.0
C917 C 0.60062 0.19774 0.86205 0.0
C918 C 0.5922 0.15968 0.89549 0.0
C919 C 0.5539 0.12605 0.46835 0.0
C920 C 0.54666 0.10754 0.51545 0.0
C921 C 0.51331 0.14414 0.44345 0.0
C922 C 0.46635 0.1326 0.46005 0.0
H923 H 0.58939 0.13904 0.45781 0.0
H924 H 0.51889 0.16687 0.41178 0.0
S925 S 0.43667 0.04877 0.56127 0.0
N926 N 0.49604 0.05359 0.56238 0.0
N927 N 0.41832 0.08257 0.51516 0.0
C928 C 0.46157 0.09884 0.49819 0.0
C929 C 0.50344 0.08254 0.52314 0.0
C930 C 0.45002 0.37407 0.90486 0.0
C931 C 0.41484 0.41002 0.8963 0.0
C932 C 0.45642 0.33631 0.87207 0.0
C933 C 0.43033 0.33447 0.82803 0.0
H934 H 0.4697 0.37239 0.93881 0.0
H935 H 0.48181 0.30786 0.88225 0.0
S936 S 0.34449 0.42726 0.78185 0.0
N937 N 0.35831 0.44481 0.83757 0.0
N938 N 0.37704 0.37803 0.77237 0.0
C939 C 0.4008 0.37416 0.81558 0.0
C940 C 0.39178 0.41103 0.85053 0.0
C941 C 0.57566 0.44199 0.44415 0.0
C942 C 0.62294 0.45835 0.4535 0.0
C943 C 0.54976 0.41838 0.48007 0.0
C944 C 0.57042 0.4123 0.52601 0.0
H945 H 0.55919 0.44641 0.40851 0.0
H946 H 0.5148 0.40284 0.47132 0.0
S947 S 0.69269 0.45031 0.56733 0.0
N948 N 0.68967 0.46708 0.50975 0.0
N949 N 0.63946 0.42637 0.57993 0.0
C950 C 0.61653 0.43156 0.53644 0.0
C951 C 0.64347 0.45374 0.49922 0.0
C952 C 0.70508 0.71069 0.79063 0.0
C953 C 0.75114 0.73119 0.79757 0.0
C954 C 0.68252 0.68875 0.83029 0.0
C955 C 0.70132 0.69543 0.87745 0.0
H956 H 0.69291 0.70084 0.75446 0.0
H957 H 0.65054 0.66702 0.82384 0.0
S958 S 0.80322 0.77654 0.91122 0.0
N959 N 0.79869 0.78153 0.85153 0.0
N960 N 0.76078 0.7376 0.92777 0.0
C961 C 0.74011 0.72791 0.88399 0.0
C962 C 0.7607 0.75126 0.84309 0.0
C963 C 0.91387 0.13408 0.48955 0.0
C964 C 0.93184 0.1127 0.44657 0.0
C965 C 0.91718 0.1096 0.53365 0.0
C966 C 0.93072 0.0608 0.5332 0.0
H967 H 0.89616 0.16899 0.48925 0.0
H968 H 0.89819 0.12404 0.56479 0.0
S969 S 1.00212 0.99812 0.43865 0.0
N970 N 0.98022 0.04715 0.41162 0.0
N971 N 0.98389 1.00117 0.49587 0.0
C972 C 0.95982 0.04428 0.49499 0.0
C973 C 0.95723 0.06857 0.44972 0.0
C974 C 0.33078 0.94737 0.90185 0.0
C975 C 0.30025 0.92727 0.86651 0.0
C976 C 0.35903 0.91752 0.93091 0.0
C977 C 0.35794 0.86701 0.92428 0.0
H978 H 0.33307 0.98635 0.90684 0.0
H979 H 0.38514 0.93418 0.95523 0.0
S980 S 0.27132 0.7976 0.84752 0.0
N981 N 0.26129 0.85521 0.83402 0.0
N982 N 0.31453 0.79786 0.88921 0.0
C983 C 0.32209 0.84646 0.89415 0.0
C984 C 0.29359 0.87707 0.86434 0.0
C985 C 0.11756 0.50299 0.48768 0.0
C986 C 0.13818 0.49466 0.53369 0.0
C987 C 0.11711 0.46613 0.45289 0.0
C988 C 0.13613 0.41979 0.4637 0.0
H989 H 0.10761 0.53937 0.47629 0.0
H990 H 0.10336 0.47463 0.41688 0.0
S991 S 0.17898 0.37822 0.58536 0.0
N992 N 0.16573 0.43598 0.59273 0.0
N993 N 0.16635 0.3664 0.52789 0.0
C994 C 0.15019 0.41008 0.5121 0.0
C995 C 0.14928 0.44732 0.54746 0.0
C996 C 0.69405 0.38565 0.73817 0.0
C997 C 0.70603 0.3714 0.69077 0.0
C998 C 0.72171 0.41971 0.76151 0.0
C999 C 0.76204 0.43785 0.73785 0.0
H1000 H 0.66303 0.37059 0.75699 0.0
H1001 H 0.71193 0.43154 0.79772 0.0
S1002 S 0.81046 0.40654 0.61579 0.0
N1003 N 0.76132 0.37294 0.62234 0.0
N1004 N 0.81482 0.43893 0.66623 0.0
C1005 C 0.77533 0.42252 0.69086 0.0
C1006 C 0.74688 0.38799 0.66718 0.0
C1007 C 0.68875 0.0887 0.61872 0.0
C1008 C 0.64839 0.07707 0.64693 0.0
C1009 C 0.69176 0.07367 0.57104 0.0
C1010 C 0.65836 0.04046 0.55164 0.0
H1011 H 0.71508 0.11499 0.63115 0.0
H1012 H 0.72105 0.08872 0.5496 0.0
S1013 S 0.55698 0.98214 0.61835 0.0
N1014 N 0.58093 1.02082 0.6574 0.0
N1015 N 0.58882 0.98826 0.56781 0.0
C1016 C 0.62176 1.02217 0.58198 0.0
C1017 C 0.61752 0.03974 0.63041 0.0
C1018 C 0.29822 0.16258 0.66515 0.0
C1019 C 0.31096 0.14947 0.71327 0.0
C1020 C 0.32966 0.15243 0.62684 0.0
C1021 C 0.3739 0.13037 0.63753 0.0
H1022 H 0.26479 0.18109 0.65698 0.0
H1023 H 0.3235 0.16896 0.5916 0.0
S1024 S 0.40002 0.05203 0.74248 0.0
N1025 N 0.35764 0.08997 0.76126 0.0
N1026 N 0.40898 0.06475 0.68448 0.0
C1027 C 0.37527 0.10019 0.67811 0.0
C1028 C 0.34822 0.11452 0.71926 0.0
C1029 C 0.45803 0.51698 0.61079 0.0
C1030 C 0.43694 0.51035 0.56477 0.0
C1031 C 0.46362 0.4775 0.64212 0.0
C1032 C 0.44951 0.43072 0.62734 0.0
H1033 H 0.46336 0.55322 0.62534 0.0
H1034 H 0.47662 0.48398 0.67883 0.0
S1035 S 0.41019 0.39419 0.50323 0.0
N1036 N 0.41483 0.45396 0.50088 0.0
N1037 N 0.42629 0.37886 0.55912 0.0
C1038 C 0.43623 0.42316 0.57844 0.0
C1039 C 0.43107 0.46333 0.54671 0.0
C1040 C 0.82109 0.80328 0.72244 0.0
C1041 C 0.77945 0.7866 0.69835 0.0
C1042 C 0.86425 0.77718 0.71821 0.0
C1043 C 0.86515 0.73324 0.69211 0.0
H1044 H 0.82299 0.8402 0.7356 0.0
H1045 H 0.89723 0.79255 0.73309 0.0
S1046 S 0.75775 0.67252 0.63756 0.0
N1047 N 0.73534 0.71884 0.66737 0.0
N1048 N 0.81689 0.67447 0.64654 0.0
C1049 C 0.82075 0.71383 0.67556 0.0
C1050 C 0.77668 0.73783 0.6864 0.0
C1051 C 0.83308 0.32157 0.86105 0.0
C1052 C 0.78584 0.32444 0.87916 0.0
C1053 C 0.8623 0.36267 0.86025 0.0
C1054 C 0.84396 0.4083 0.874 0.0
H1055 H 0.85001 0.28657 0.85506 0.0
H1056 H 0.90007 0.35815 0.85091 0.0
S1057 S 0.71588 0.43558 0.90325 0.0
N1058 N 0.71783 0.37591 0.89835 0.0
N1059 N 0.77137 0.45533 0.89254 0.0
C1060 C 0.79419 0.41249 0.88388 0.0
C1061 C 0.76504 0.37003 0.88612 0.0
C1062 C 0.55641 0.95389 0.41625 0.0
C1063 C 0.56527 1.00297 0.40579 0.0
C1064 C 0.59243 0.91915 0.40894 0.0
C1065 C 0.63828 0.93204 0.39078 0.0
H1066 H 0.52139 0.94199 0.42939 0.0
H1067 H 0.58515 0.88221 0.41968 0.0
S1068 S 0.67725 0.05505 0.3521 0.0
N1069 N 0.62292 0.06281 0.37513 0.0
N1070 N 0.68766 0.99616 0.35603 0.0
C1071 C 0.64613 0.98033 0.37685 0.0
C1072 C 0.6107 1.01621 0.38656 0.0
C1073 C 0.26212 0.27556 0.83014 0.0
C1074 C 0.25588 0.23351 0.8585 0.0
C1075 C 0.30594 0.30044 0.83299 0.0
C1076 C 0.33787 0.28678 0.87064 0.0
H1077 H 0.23256 0.29138 0.80974 0.0
H1078 H 0.3062 0.33681 0.81841 0.0
S1079 S 0.35825 0.16136 0.90923 0.0
N1080 N 0.30025 0.16475 0.89421 0.0
N1081 N 0.38153 0.21527 0.89696 0.0
C1082 C 0.34184 0.23711 0.87756 0.0
C1083 C 0.29805 0.21064 0.87683 0.0
C1084 C 0.96216 0.22837 0.87782 0.0
C1085 C 0.92232 0.20186 0.86002 0.0
C1086 C 1.00247 0.2032 0.89622 0.0
C1087 C 1.00531 0.15233 0.89106 0.0
H1088 H 0.95766 0.26629 0.88747 0.0
H1089 H 1.03051 0.22326 0.9151 0.0
S1090 S 0.91801 0.07501 0.8211 0.0
N1091 N 0.89687 0.13085 0.81596 0.0
N1092 N 0.968 0.07997 0.85353 0.0
C1093 C 0.96974 0.12879 0.86158 0.0
C1094 C 0.93144 0.15618 0.8406 0.0
C1095 C 0.69395 0.34392 0.20067 0.0
C1096 C 0.69164 0.38733 0.17322 0.0
C1097 C 0.7269 0.30736 0.1891 0.0
C1098 C 0.75828 0.31285 0.14951 0.0
H1099 H 0.67246 0.33943 0.23335 0.0
H1100 H 0.72876 0.27544 0.21223 0.0
S1101 S 0.75738 0.41406 0.05885 0.0
N1102 N 0.71669 0.42936 0.09986 0.0
N1103 N 0.77877 0.36136 0.07744 0.0
C1104 C 0.75271 0.35393 0.11885 0.0
C1105 C 0.71889 0.39075 0.1306 0.0
C1106 C 0.60647 0.15545 0.13277 0.0
C1107 C 0.64954 0.13372 0.14979 0.0
C1108 C 0.56383 0.12917 0.13008 0.0
C1109 C 0.56238 0.08176 0.14843 0.0
H1110 H 0.60544 0.19342 0.12214 0.0
H1111 H 0.53079 0.14872 0.12138 0.0
S1112 S 0.66553 1.00418 0.18431 0.0
N1113 N 0.6892 0.05854 0.17519 0.0
N1114 N 0.60746 1.00966 0.17125 0.0
C1115 C 0.60579 0.05725 0.15783 0.0
C1116 C 0.6495 0.08382 0.1608 0.0
C1117 C 0.51032 0.45435 0.15798 0.0
C1118 C 0.49891 0.50389 0.16198 0.0
C1119 C 0.47418 0.41941 0.16246 0.0
C1120 C 0.42647 0.43323 0.17301 0.0
H1121 H 0.5474 0.44242 0.15347 0.0
H1122 H 0.48315 0.3815 0.15662 0.0
S1123 S 0.37912 0.55902 0.1806 0.0
N1124 N 0.43715 0.56519 0.17056 0.0
N1125 N 0.36982 0.49995 0.18525 0.0
C1126 C 0.41527 0.48267 0.17825 0.0
C1127 C 0.45124 0.51791 0.16998 0.0
C1128 C 0.07326 0.52393 0.24821 0.0
C1129 C 0.05101 0.56113 0.27841 0.0
C1130 C 0.07057 0.47105 0.25561 0.0
C1131 C 0.04547 0.44858 0.29509 0.0
H1132 H 0.09325 0.53606 0.2168 0.0
H1133 H 0.08822 0.44773 0.22934 0.0
S1134 S 0.98464 0.52718 0.39088 0.0
N1135 N 1.00501 0.56816 0.35217 0.0
N1136 N 1.00138 0.474 0.3689 0.0
C1137 C 1.02527 0.48612 0.32737 0.0
C1138 C 1.02756 0.53971 0.3188 0.0
C1139 C 0.77198 0.73465 0.04382 0.0
C1140 C 0.74374 0.77769 1.03407 0.0
C1141 C 0.82556 0.73302 0.04673 0.0
C1142 C 0.85816 0.77306 1.0375 0.0
H1143 H 0.75235 0.70105 0.04881 0.0
H1144 H 0.84227 0.69935 0.05786 0.0
S1145 S 0.80602 0.89567 1.00827 0.0
N1146 N 0.75688 0.86229 1.01437 0.0
N1147 N 0.85213 0.85881 1.01847 0.0
C1148 C 0.82987 0.816 1.0277 0.0
C1149 C 0.77572 0.81807 1.02569 0.0
C1150 C 1.03037 1.03517 0.25682 0.0
C1151 C 0.06115 0.06009 0.29034 0.0
C1152 C 1.02864 0.98211 0.25112 0.0
C1153 C 0.05674 0.94721 0.27868 0.0
H1154 H 1.00728 0.05686 0.23413 0.0
H1155 H 1.00471 0.96795 0.22339 0.0
S1156 S 0.14897 0.99002 0.36784 0.0
N1157 N 0.1242 0.04136 0.34936 0.0
N1158 N 0.12129 0.94602 0.33796 0.0
C1159 C 0.08908 0.97164 0.31079 0.0
C1160 C 0.09087 1.02549 0.31671 0.0
C1161 C 0.32769 0.71122 1.03474 0.0
C1162 C 0.36039 0.75155 1.03752 0.0
C1163 C 0.27524 0.71409 1.03766 0.0
C1164 C 0.24746 0.75806 0.04136 0.0
H1165 H 0.34333 0.67548 1.03073 0.0
H1166 H 0.25635 0.67985 0.03938 0.0
S1167 S 0.3126 0.87718 0.05386 0.0
N1168 N 0.35804 0.839 0.04613 0.0
N1169 N 0.26225 0.84457 0.05307 0.0
C1170 C 0.2799 0.7992 0.0456 0.0
C1171 C 0.33415 0.79614 0.04267 0.0
C1172 C 0.24703 0.07131 0.51815 0.0
C1173 C 0.28592 0.04672 0.49481 0.0
C1174 C 0.24121 0.07518 0.57112 0.0
C1175 C 0.26931 0.04975 0.60784 0.0
H1176 H 0.21912 0.08641 0.49537 0.0
H1177 H 0.21237 0.09835 0.5836 0.0
S1178 S 0.35772 0.95544 0.56821 0.0
N1179 N 0.34281 0.98188 0.51625 0.0
N1180 N 0.32803 0.98494 0.61106 0.0
C1181 C 0.3032 1.01837 0.58468 0.0
C1182 C 0.31143 1.01705 0.53081 0.0
C1183 C 0.23345 0.54878 0.83549 0.0
C1184 C 0.27487 0.54618 0.86684 0.0
C1185 C 0.23499 0.55079 0.78241 0.0
C1186 C 0.27781 0.54577 0.75255 0.0
H1187 H 0.19812 0.54988 0.85216 0.0
H1188 H 0.20089 0.55895 0.76553 0.0
S1189 S 0.39868 0.54968 0.81188 0.0
N1190 N 0.36217 0.5458 0.85923 0.0
N1191 N 0.36413 0.54985 0.76303 0.0
C1192 C 0.31949 0.54676 0.78325 0.0
C1193 C 0.3182 0.54581 0.83769 0.0
C1194 C 0.82753 0.56901 0.54395 0.0
C1195 C 0.79332 0.56967 0.58439 0.0
C1196 C 0.81567 0.5714 0.49197 0.0
C1197 C 0.76761 0.57477 0.47348 0.0
H1198 H 0.8658 0.56767 0.55226 0.0
H1199 H 0.84523 0.57225 0.46616 0.0
S1200 S 0.66081 0.57461 0.55994 0.0
N1201 N 0.70714 0.57152 0.59786 0.0
N1202 N 0.6843 0.57558 0.50464 0.0
C1203 C 0.73266 0.57356 0.51353 0.0
C1204 C 0.7451 0.57112 0.56653 0.0
C1205 C 0.77418 0.09139 0.78295 0.0
C1206 C 0.78117 0.05473 0.82093 0.0
C1207 C 0.77322 0.08299 0.73053 0.0
C1208 C 0.77907 1.03647 0.70918 0.0
H1209 H 0.76844 0.1288 0.79361 0.0
H1210 H 0.76586 0.11359 0.70684 0.0
S1211 S 0.79827 0.92523 0.78913 0.0
N1212 N 0.79502 0.96915 0.82967 0.0
N1213 N 0.7906 0.95145 0.73556 0.0
C1214 C 0.78552 0.99914 0.74714 0.0
C1215 C 0.78741 1.00833 0.80054 0.0
C1216 C 0.30429 0.12246 0.07334 0.0
C1217 C 0.29026 0.08622 0.10856 0.0
C1218 C 0.29919 0.11839 1.02081 0.0
C1219 C 0.28156 0.07652 0.99554 0.0
H1220 H 0.31945 0.15619 0.08675 0.0
H1221 H 0.30755 0.15047 0.99969 0.0
S1222 S 0.23391 0.97036 0.06685 0.0
N1223 N 0.25427 1.00606 0.11066 0.0
N1224 N 0.24528 0.99829 1.01477 0.0
C1225 C 0.26643 0.0399 1.03024 0.0
C1226 C 0.27101 0.04434 0.08456 0.0
C1227 C 0.30467 0.54939 0.32693 0.0
C1228 C 0.27643 0.52584 0.36435 0.0
C1229 C 0.29754 0.54469 0.27475 0.0
C1230 C 0.26208 0.51452 0.25231 0.0
H1231 H 0.3323 0.5749 0.33827 0.0
H1232 H 0.32008 0.56674 0.2523 0.0
S1233 S 0.17108 0.44896 0.32921 0.0
N1234 N 0.20589 0.47429 0.37104 0.0
N1235 N 0.19368 0.46445 0.2758 0.0
C1236 C 0.2324 0.49157 0.28906 0.0
C1237 C 0.23911 0.49709 0.34287 0.0
C1238 C 0.7907 0.60623 0.06022 0.0
C1239 C 0.7588 0.57182 0.08193 0.0
C1240 C 0.79501 0.61395 1.00729 0.0
C1241 C 0.77039 0.58682 0.96945 0.0
H1242 H 0.81267 0.62789 0.08446 0.0
H1243 H 0.81937 0.64211 0.99524 0.0
S1244 S 0.67156 0.50153 1.0012 0.0
N1245 N 0.69337 0.51699 0.05481 0.0
N1246 N 0.705 0.53056 0.96105 0.0
C1247 C 0.73602 0.55522 0.99025 0.0
C1248 C 0.72995 0.54801 0.04368 0.0
C1249 C 0.79227 0.07372 0.24668 0.0
C1250 C 0.79126 0.0381 0.20756 0.0
C1251 C 0.79139 0.06316 0.29864 0.0
C1252 C 0.78813 1.01538 0.3177 0.0
H1253 H 0.79537 0.11181 0.23723 0.0
H1254 H 0.79422 0.09316 0.32395 0.0
S1255 S 0.77511 0.90685 0.23328 0.0
N1256 N 0.78214 0.95226 0.19469 0.0
N1257 N 0.77657 0.93134 0.28806 0.0
C1258 C 0.78336 0.97938 0.27847 0.0
C1259 C 0.78572 0.99056 0.22561 0.0
C1260 C 0.56193 0.24855 1.03205 0.0
C1261 C 0.60235 0.28289 1.03412 0.0
C1262 C 0.51035 0.26023 1.0323 0.0
C1263 C 0.49193 0.30816 1.03622 0.0
H1264 H 0.56964 0.21008 1.02957 0.0
H1265 H 0.4847 0.23062 1.02956 0.0
S1266 S 0.57872 0.41405 0.05288 0.0
N1267 N 0.61627 0.3681 0.04585 0.0
N1268 N 0.52359 0.39115 0.04876 0.0
C1269 C 0.53205 0.3431 0.0414 0.0
C1270 C 0.58483 0.3307 0.04002 0.0
C1271 C 0.55509 0.78363 0.5749 0.0
C1272 C 0.58087 0.78908 0.53005 0.0
C1273 C 0.5023 0.78019 0.57907 0.0
C1274 C 0.4674 0.78586 0.53986 0.0
H1275 H 0.57588 0.78174 0.60822 0.0
H1276 H 0.48899 0.77085 0.61473 0.0
S1277 S 0.51213 0.79663 0.41211 0.0
N1278 N 0.56307 0.79655 0.44372 0.0
N1279 N 0.46781 0.79205 0.45209 0.0
C1280 C 0.49276 0.79058 0.4947 0.0
C1281 C 0.54677 0.79252 0.49006 0.0
C1282 C 0.99208 0.3493 0.791 0.0
C1283 C 1.02618 0.38959 0.79605 0.0
C1284 C 1.00362 0.29756 0.79164 0.0
C1285 C 0.05106 0.27898 0.79839 0.0
H1286 H 0.9543 0.35735 0.78469 0.0
H1287 H 0.97462 0.272 0.78487 0.0
S1288 S 0.15724 0.36489 0.81201 0.0
N1289 N 0.11156 0.40303 0.80614 0.0
N1290 N 0.13372 0.30974 0.8101 0.0
C1291 C 0.08582 0.31883 0.80404 0.0
C1292 C 0.07377 0.37179 0.80246 0.0
C1293 C 0.5656 0.80143 0.29113 0.0
C1294 C 0.53008 0.76269 0.28572 0.0
C1295 C 0.55645 0.85378 0.29214 0.0
C1296 C 0.51001 0.87479 0.2849 0.0
H1297 H 0.60308 0.79114 0.292 0.0
H1298 H 0.58711 0.87796 0.29612 0.0
S1299 S 0.40125 0.79398 0.26167 0.0
N1300 N 0.44478 0.75367 0.26987 0.0
N1301 N 0.42664 0.8479 0.26838 0.0
C1302 C 0.47359 0.83653 0.2779 0.0
C1303 C 0.48331 0.78291 0.27882 0.0
C1304 C 1.0088 0.82566 0.53732 0.0
C1305 C 0.96823 0.79172 0.53881 0.0
C1306 C 0.06017 0.81383 0.53835 0.0
C1307 C 0.07796 0.76568 0.53731 0.0
H1308 H 1.00117 0.86368 0.53303 0.0
H1309 H 0.08607 0.84334 0.53809 0.0
S1310 S 0.98949 0.66013 0.52452 0.0
N1311 N 0.95276 0.70666 0.53126 0.0
N1312 N 0.04487 0.68247 0.52759 0.0
C1313 C 0.03733 0.73075 0.53432 0.0
C1314 C 0.98487 0.74365 0.53596 0.0
C1315 C 0.05007 0.85421 0.85651 0.0
C1316 C 0.04136 0.89077 0.81941 0.0
C1317 C 0.04481 0.80137 0.85068 0.0
C1318 C 1.03253 0.77719 0.80603 0.0
H1319 H 0.06084 0.86677 0.89225 0.0
H1320 H 0.04922 0.77906 0.88292 0.0
S1321 S 1.00527 0.85096 0.69438 0.0
N1322 N 1.01931 0.89399 0.73395 0.0
N1323 N 1.00963 0.79856 0.72344 0.0
C1324 C 1.02362 0.81313 0.76845 0.0
C1325 C 1.0284 0.86736 0.77452 0.0
C1326 C 0.55822 1.032 0.76911 0.0
C1327 C 0.52822 0.0677 0.79317 0.0
C1328 C 0.5533 0.97899 0.77319 0.0
C1329 C 0.51852 0.95524 0.8031 0.0
H1330 H 0.58653 0.04545 0.7458 0.0
H1331 H 0.57697 0.95623 0.75212 0.0
S1332 S 0.42698 1.02931 0.87333 0.0
N1333 N 0.45979 0.07183 0.84693 0.0
N1334 N 0.45048 0.9769 0.85617 0.0
C1335 C 0.48785 0.99101 0.82728 0.0
C1336 C 0.49274 0.04469 0.82237 0.0
C1337 C 0.27141 0.28299 0.49978 0.0
C1338 C 0.2311 0.27368 0.53325 0.0
C1339 C 0.32317 0.28229 0.51149 0.0
C1340 C 0.34168 0.27452 0.55907 0.0
H1341 H 0.26354 0.28914 0.46165 0.0
H1342 H 0.34877 0.2876 0.48216 0.0
S1343 S 0.25396 0.2781 0.66618 0.0
N1344 N 0.21687 0.27277 0.6194 0.0
N1345 N 0.3091 0.27707 0.64313 0.0
C1346 C 0.30115 0.27361 0.59435 0.0
C1347 C 0.24845 0.27183 0.5816 0.0
C1348 C 0.51712 0.53302 0.81919 0.0
C1349 C 0.54595 0.56891 0.79347 0.0
C1350 C 0.51989 0.47958 0.81418 0.0
C1351 C 0.55486 0.45468 0.78478 0.0
H1352 H 0.49201 0.54685 0.84553 0.0
H1353 H 0.49419 0.4578 0.83435 0.0
S1354 S 0.64811 0.52785 0.7152 0.0
N1355 N 0.61548 0.57095 0.74088 0.0
N1356 N 0.62337 0.47599 0.73223 0.0
C1357 C 0.58586 0.49053 0.76065 0.0
C1358 C 0.58152 0.54463 0.76501 0.0
C1359 C 0.7514 0.28984 0.51361 0.0
C1360 C 0.73193 0.25633 0.5484 0.0
C1361 C 0.80337 0.29428 0.50254 0.0
C1362 C 0.84243 0.26776 0.52626 0.0
H1363 H 0.72642 0.31353 0.49454 0.0
H1364 H 0.81319 0.31943 0.47383 0.0
S1365 S 0.81562 0.17364 0.61968 0.0
N1366 N 0.76128 0.19383 0.60496 0.0
N1367 N 0.85405 0.20535 0.58654 0.0
C1368 C 0.8237 0.23485 0.56119 0.0
C1369 C 0.77106 0.2288 0.57141 0.0
C1370 C 0.06768 0.31712 1.01936 0.0
C1371 C 0.10493 0.27946 1.01972 0.0
C1372 C 1.0152 0.30968 1.02022 0.0
C1373 C 0.99308 0.26315 1.02225 0.0
H1374 H 0.07937 0.35464 1.02005 0.0
H1375 H 0.99189 0.3413 1.01997 0.0
S1376 S 0.07182 0.1498 1.03346 0.0
N1377 N 0.11247 0.19315 1.0279 0.0
N1378 N 1.01878 0.17716 1.0305 0.0
C1379 C 1.03058 0.22481 1.0246 0.0
C1380 C 0.08388 0.23305 1.02312 0.0
C1381 C 0.52132 0.29738 0.33603 0.0
C1382 C 0.53192 0.26146 0.29899 0.0
C1383 C 0.52435 0.35008 0.33055 0.0
C1384 C 0.53735 0.37482 0.28669 0.0
H1385 H 0.5098 0.28439 0.37141 0.0
H1386 H 0.5177 0.37196 0.36259 0.0
S1387 S 0.57264 0.30277 0.17595 0.0
N1388 N 0.55754 0.25919 0.21459 0.0
N1389 N 0.56592 0.35484 0.20526 0.0
C1390 C 0.54975 0.33965 0.24933 0.0
C1391 C 0.54602 0.28533 0.25477 0.0
loop_
_geom_bond_atom_site_label_1
_geom_bond_atom_site_label_2
_geom_bond_distance
_geom_bond_site_symmetry_2
_ccdc_geom_bond_type
C0 O26 1.283 . S
C0 O44 1.283 . S
C1 O27 1.283 . S
C1 O42 1.283 . S
C2 O28 1.283 . S
C2 O45 1.283 . S
C3 O29 1.283 . S
C3 O43 1.283 . S
C4 O30 1.283 . S
C4 O39 1.283 . S
C5 O31 1.283 . S
C5 O41 1.283 . S
C6 O32 1.283 . S
C6 O38 1.283 . S
C7 O33 1.283 . S
C7 O40 1.283 . S
C8 O34 1.283 . S
C8 O49 1.283 . S
C9 O35 1.283 . S
C9 O47 1.283 . S
C10 O36 1.283 . S
C10 O48 1.283 . S
C11 O37 1.283 . S
C11 O46 1.283 . S
Eu12 O13 2.370 . S
Eu12 O14 2.370 . S
Eu12 O17 2.370 . S
Eu12 O18 2.370 . S
Eu12 O26 2.363 . S
Eu12 O27 2.363 . S
Eu12 O40 2.363 . S
Eu12 O41 2.363 . S
O13 Eu12 2.370 . S
O13 Eu15 2.370 1_655 S
O13 Eu20 2.370 1_655 S
O14 Eu12 2.370 . S
O14 Eu16 2.370 . S
O14 Eu19 2.370 1_655 S
Eu15 O13 2.370 1_455 S
Eu15 O17 2.370 1_455 S
Eu15 O21 2.370 . S
Eu15 O22 2.370 . S
Eu15 O30 2.363 . S
Eu15 O31 2.363 1_455 S
Eu15 O46 2.363 . S
Eu15 O47 2.363 . S
Eu16 O14 2.370 . S
Eu16 O18 2.370 . S
Eu16 O23 2.370 1_655 S
Eu16 O24 2.370 1_655 S
Eu16 O32 2.363 1_655 S
Eu16 O33 2.363 . S
Eu16 O48 2.363 . S
Eu16 O49 2.363 . S
O17 Eu12 2.370 . S
O17 Eu15 2.370 1_655 S
O17 Eu19 2.370 1_655 S
O18 Eu12 2.370 . S
O18 Eu16 2.370 . S
O18 Eu20 2.370 1_655 S
Eu19 O14 2.370 1_455 S
Eu19 O17 2.370 1_455 S
Eu19 O21 2.370 . S
Eu19 O24 2.370 . S
Eu19 O36 2.363 1_455 S
Eu19 O37 2.363 . S
Eu19 O44 2.363 1_455 S
Eu19 O45 2.363 . S
Eu20 O13 2.370 1_455 S
Eu20 O18 2.370 1_455 S
Eu20 O22 2.370 . S
Eu20 O23 2.370 . S
Eu20 O34 2.363 1_455 S
Eu20 O35 2.363 . S
Eu20 O42 2.363 1_455 S
Eu20 O43 2.363 . S
O21 Eu15 2.370 . S
O21 Eu19 2.370 . S
O21 Eu25 2.370 . S
O22 Eu15 2.370 . S
O22 Eu20 2.370 . S
O22 Eu25 2.370 . S
O23 Eu16 2.370 1_455 S
O23 Eu20 2.370 . S
O23 Eu25 2.370 . S
O24 Eu16 2.370 1_455 S
O24 Eu19 2.370 . S
O24 Eu25 2.370 . S
Eu25 O21 2.370 . S
Eu25 O22 2.370 . S
Eu25 O23 2.370 . S
Eu25 O24 2.370 . S
Eu25 O28 2.363 . S
Eu25 O29 2.363 . S
Eu25 O38 2.363 . S
Eu25 O39 2.363 . S
O26 C0 1.283 . S
O26 Eu12 2.363 . S
O27 C1 1.283 . S
O27 Eu12 2.363 . S
O28 C2 1.283 . S
O28 Eu25 2.363 . S
O29 C3 1.283 . S
O29 Eu25 2.363 . S
O30 C4 1.283 . S
O30 Eu15 2.363 . S
O31 C5 1.283 . S
O31 Eu15 2.363 1_655 S
O32 C6 1.283 . S
O32 Eu16 2.363 1_455 S
O33 C7 1.283 . S
O33 Eu16 2.363 . S
O34 C8 1.283 . S
O34 Eu20 2.363 1_655 S
O35 C9 1.283 . S
O35 Eu20 2.363 . S
O36 C10 1.283 . S
O36 Eu19 2.363 1_655 S
O37 C11 1.283 . S
O37 Eu19 2.363 . S
O38 C6 1.283 . S
O38 Eu25 2.363 . S
O39 C4 1.283 . S
O39 Eu25 2.363 . S
O40 C7 1.283 . S
O40 Eu12 2.363 . S
O41 C5 1.283 . S
O41 Eu12 2.363 . S
O42 C1 1.283 . S
O42 Eu20 2.363 1_655 S
O43 C3 1.283 . S
O43 Eu20 2.363 . S
O44 C0 1.283 . S
O44 Eu19 2.363 1_655 S
O45 C2 1.283 . S
O45 Eu19 2.363 . S
O46 C11 1.283 . S
O46 Eu15 2.363 . S
O47 C9 1.283 . S
O47 Eu15 2.363 . S
O48 C10 1.283 . S
O48 Eu16 2.363 . S
O49 C8 1.283 . S
O49 Eu16 2.363 . S
C50 O76 1.283 . S
C50 O94 1.283 . S
C51 O77 1.283 . S
C51 O92 1.283 1_556 S
C52 O78 1.283 . S
C52 O95 1.283 . S
C53 O79 1.283 . S
C53 O93 1.283 1_556 S
C54 O80 1.283 . S
C54 O89 1.283 . S
C55 O81 1.283 . S
C55 O91 1.283 . S
C56 O82 1.283 . S
C56 O88 1.283 . S
C57 O83 1.283 . S
C57 O90 1.283 . S
C58 O84 1.283 1_556 S
C58 O99 1.283 . S
C59 O85 1.283 1_556 S
C59 O97 1.283 . S
C60 O86 1.283 . S
C60 O98 1.283 . S
C61 O87 1.283 . S
C61 O96 1.283 . S
Eu62 O63 2.370 . S
Eu62 O64 2.370 . S
Eu62 O67 2.370 . S
Eu62 O68 2.370 . S
Eu62 O76 2.363 . S
Eu62 O77 2.363 . S
Eu62 O90 2.363 . S
Eu62 O91 2.363 . S
O63 Eu62 2.370 . S
O63 Eu65 2.370 . S
O63 Eu70 2.370 . S
O64 Eu62 2.370 . S
O64 Eu66 2.370 . S
O64 Eu69 2.370 . S
Eu65 O63 2.370 . S
Eu65 O67 2.370 . S
Eu65 O71 2.370 . S
Eu65 O72 2.370 . S
Eu65 O80 2.363 . S
Eu65 O81 2.363 . S
Eu65 O96 2.363 . S
Eu65 O97 2.363 . S
Eu66 O64 2.370 . S
Eu66 O68 2.370 . S
Eu66 O73 2.370 . S
Eu66 O74 2.370 . S
Eu66 O82 2.363 . S
Eu66 O83 2.363 . S
Eu66 O98 2.363 . S
Eu66 O99 2.363 . S
O67 Eu62 2.370 . S
O67 Eu65 2.370 . S
O67 Eu69 2.370 . S
O68 Eu62 2.370 . S
O68 Eu66 2.370 . S
O68 Eu70 2.370 . S
Eu69 O64 2.370 . S
Eu69 O67 2.370 . S
Eu69 O71 2.370 . S
Eu69 O74 2.370 . S
Eu69 O86 2.363 . S
Eu69 O87 2.363 . S
Eu69 O94 2.363 . S
Eu69 O95 2.363 . S
Eu70 O63 2.370 . S
Eu70 O68 2.370 . S
Eu70 O72 2.370 . S
Eu70 O73 2.370 . S
Eu70 O84 2.363 1_556 S
Eu70 O85 2.363 1_556 S
Eu70 O92 2.363 1_556 S
Eu70 O93 2.363 1_556 S
O71 Eu65 2.370 . S
O71 Eu69 2.370 . S
O71 Eu75 2.370 . S
O72 Eu65 2.370 . S
O72 Eu70 2.370 . S
O72 Eu75 2.370 . S
O73 Eu66 2.370 . S
O73 Eu70 2.370 . S
O73 Eu75 2.370 . S
O74 Eu66 2.370 . S
O74 Eu69 2.370 . S
O74 Eu75 2.370 . S
Eu75 O71 2.370 . S
Eu75 O72 2.370 . S
Eu75 O73 2.370 . S
Eu75 O74 2.370 . S
Eu75 O78 2.363 . S
Eu75 O79 2.363 . S
Eu75 O88 2.363 . S
Eu75 O89 2.363 . S
O76 C50 1.283 . S
O76 Eu62 2.363 . S
O77 C51 1.283 . S
O77 Eu62 2.363 . S
O78 C52 1.283 . S
O78 Eu75 2.363 . S
O79 C53 1.283 . S
O79 Eu75 2.363 . S
O80 C54 1.283 . S
O80 Eu65 2.363 . S
O81 C55 1.283 . S
O81 Eu65 2.363 . S
O82 C56 1.283 . S
O82 Eu66 2.363 . S
O83 C57 1.283 . S
O83 Eu66 2.363 . S
O84 C58 1.283 1_554 S
O84 Eu70 2.363 1_554 S
O85 C59 1.283 1_554 S
O85 Eu70 2.363 1_554 S
O86 C60 1.283 . S
O86 Eu69 2.363 . S
O87 C61 1.283 . S
O87 Eu69 2.363 . S
O88 C56 1.283 . S
O88 Eu75 2.363 . S
O89 C54 1.283 . S
O89 Eu75 2.363 . S
O90 C57 1.283 . S
O90 Eu62 2.363 . S
O91 C55 1.283 . S
O91 Eu62 2.363 . S
O92 C51 1.283 1_554 S
O92 Eu70 2.363 1_554 S
O93 C53 1.283 1_554 S
O93 Eu70 2.363 1_554 S
O94 C50 1.283 . S
O94 Eu69 2.363 . S
O95 C52 1.283 . S
O95 Eu69 2.363 . S
O96 C61 1.283 . S
O96 Eu65 2.363 . S
O97 C59 1.283 . S
O97 Eu65 2.363 . S
O98 C60 1.283 . S
O98 Eu66 2.363 . S
O99 C58 1.283 . S
O99 Eu66 2.363 . S
C100 O126 1.283 . S
C100 O144 1.283 . S
C101 O127 1.283 . S
C101 O142 1.283 . S
C102 O128 1.283 . S
C102 O145 1.283 . S
C103 O129 1.283 . S
C103 O143 1.283 . S
C104 O130 1.283 1_554 S
C104 O139 1.283 . S
C105 O131 1.283 1_554 S
C105 O141 1.283 . S
C106 O132 1.283 . S
C106 O138 1.283 . S
C107 O133 1.283 . S
C107 O140 1.283 . S
C108 O134 1.283 . S
C108 O149 1.283 . S
C109 O135 1.283 . S
C109 O147 1.283 1_554 S
C110 O136 1.283 . S
C110 O148 1.283 . S
C111 O137 1.283 . S
C111 O146 1.283 1_554 S
Eu112 O113 2.370 1_455 S
Eu112 O114 2.370 . S
Eu112 O117 2.370 . S
Eu112 O118 2.370 1_455 S
Eu112 O126 2.363 . S
Eu112 O127 2.363 1_455 S
Eu112 O140 2.363 . S
Eu112 O141 2.363 . S
O113 Eu112 2.370 1_655 S
O113 Eu115 2.370 1_655 S
O113 Eu120 2.370 . S
O114 Eu112 2.370 . S
O114 Eu116 2.370 . S
O114 Eu119 2.370 . S
Eu115 O113 2.370 1_455 S
Eu115 O117 2.370 . S
Eu115 O121 2.370 . S
Eu115 O122 2.370 1_455 S
Eu115 O130 2.363 1_454 S
Eu115 O131 2.363 1_554 S
Eu115 O146 2.363 1_554 S
Eu115 O147 2.363 1_454 S
Eu116 O114 2.370 . S
Eu116 O118 2.370 1_455 S
Eu116 O123 2.370 1_455 S
Eu116 O124 2.370 . S
Eu116 O132 2.363 1_455 S
Eu116 O133 2.363 . S
Eu116 O148 2.363 . S
Eu116 O149 2.363 1_455 S
O117 Eu112 2.370 . S
O117 Eu115 2.370 . S
O117 Eu119 2.370 . S
O118 Eu112 2.370 1_655 S
O118 Eu116 2.370 1_655 S
O118 Eu120 2.370 . S
Eu119 O114 2.370 . S
Eu119 O117 2.370 . S
Eu119 O121 2.370 . S
Eu119 O124 2.370 . S
Eu119 O136 2.363 . S
Eu119 O137 2.363 . S
Eu119 O144 2.363 . S
Eu119 O145 2.363 . S
Eu120 O113 2.370 . S
Eu120 O118 2.370 . S
Eu120 O122 2.370 . S
Eu120 O123 2.370 . S
Eu120 O134 2.363 . S
Eu120 O135 2.363 . S
Eu120 O142 2.363 . S
Eu120 O143 2.363 . S
O121 Eu115 2.370 . S
O121 Eu119 2.370 . S
O121 Eu125 2.370 1_455 S
O122 Eu115 2.370 1_655 S
O122 Eu120 2.370 . S
O122 Eu125 2.370 . S
O123 Eu116 2.370 1_655 S
O123 Eu120 2.370 . S
O123 Eu125 2.370 . S
O124 Eu116 2.370 . S
O124 Eu119 2.370 . S
O124 Eu125 2.370 1_455 S
Eu125 O121 2.370 1_655 S
Eu125 O122 2.370 . S
Eu125 O123 2.370 . S
Eu125 O124 2.370 1_655 S
Eu125 O128 2.363 1_655 S
Eu125 O129 2.363 . S
Eu125 O138 2.363 . S
Eu125 O139 2.363 . S
O126 C100 1.283 . S
O126 Eu112 2.363 . S
O127 C101 1.283 . S
O127 Eu112 2.363 1_655 S
O128 C102 1.283 . S
O128 Eu125 2.363 1_455 S
O129 C103 1.283 . S
O129 Eu125 2.363 . S
O130 C104 1.283 1_556 S
O130 Eu115 2.363 1_656 S
O131 C105 1.283 1_556 S
O131 Eu115 2.363 1_556 S
O132 C106 1.283 . S
O132 Eu116 2.363 1_655 S
O133 C107 1.283 . S
O133 Eu116 2.363 . S
O134 C108 1.283 . S
O134 Eu120 2.363 . S
O135 C109 1.283 . S
O135 Eu120 2.363 . S
O136 C110 1.283 . S
O136 Eu119 2.363 . S
O137 C111 1.283 . S
O137 Eu119 2.363 . S
O138 C106 1.283 . S
O138 Eu125 2.363 . S
O139 C104 1.283 . S
O139 Eu125 2.363 . S
O140 C107 1.283 . S
O140 Eu112 2.363 . S
O141 C105 1.283 . S
O141 Eu112 2.363 . S
O142 C101 1.283 . S
O142 Eu120 2.363 . S
O143 C103 1.283 . S
O143 Eu120 2.363 . S
O144 C100 1.283 . S
O144 Eu119 2.363 . S
O145 C102 1.283 . S
O145 Eu119 2.363 . S
O146 C111 1.283 1_556 S
O146 Eu115 2.363 1_556 S
O147 C109 1.283 1_556 S
O147 Eu115 2.363 1_656 S
O148 C110 1.283 . S
O148 Eu116 2.363 . S
O149 C108 1.283 . S
O149 Eu116 2.363 1_655 S
C150 O176 1.283 . S
C150 O194 1.283 . S
C151 O177 1.283 . S
C151 O192 1.283 . S
C152 O178 1.283 . S
C152 O195 1.283 . S
C153 O179 1.283 . S
C153 O193 1.283 . S
C154 O180 1.283 . S
C154 O189 1.283 . S
C155 O181 1.283 . S
C155 O191 1.283 . S
C156 O182 1.283 . S
C156 O188 1.283 . S
C157 O183 1.283 . S
C157 O190 1.283 . S
C158 O184 1.283 . S
C158 O199 1.283 . S
C159 O185 1.283 . S
C159 O197 1.283 . S
C160 O186 1.283 . S
C160 O198 1.283 . S
C161 O187 1.283 . S
C161 O196 1.283 . S
Eu162 O163 2.370 1_565 S
Eu162 O164 2.370 . S
Eu162 O167 2.370 . S
Eu162 O168 2.370 1_565 S
Eu162 O176 2.363 . S
Eu162 O177 2.363 1_565 S
Eu162 O190 2.363 . S
Eu162 O191 2.363 . S
O163 Eu162 2.370 1_545 S
O163 Eu165 2.370 . S
O163 Eu170 2.370 . S
O164 Eu162 2.370 . S
O164 Eu166 2.370 1_565 S
O164 Eu169 2.370 . S
Eu165 O163 2.370 . S
Eu165 O167 2.370 1_545 S
Eu165 O171 2.370 1_545 S
Eu165 O172 2.370 . S
Eu165 O180 2.363 . S
Eu165 O181 2.363 1_545 S
Eu165 O196 2.363 1_545 S
Eu165 O197 2.363 . S
Eu166 O164 2.370 1_545 S
Eu166 O168 2.370 . S
Eu166 O173 2.370 . S
Eu166 O174 2.370 1_545 S
Eu166 O182 2.363 . S
Eu166 O183 2.363 1_545 S
Eu166 O198 2.363 1_545 S
Eu166 O199 2.363 . S
O167 Eu162 2.370 . S
O167 Eu165 2.370 1_565 S
O167 Eu169 2.370 . S
O168 Eu162 2.370 1_545 S
O168 Eu166 2.370 . S
O168 Eu170 2.370 . S
Eu169 O164 2.370 . S
Eu169 O167 2.370 . S
Eu169 O171 2.370 . S
Eu169 O174 2.370 . S
Eu169 O186 2.363 . S
Eu169 O187 2.363 . S
Eu169 O194 2.363 . S
Eu169 O195 2.363 . S
Eu170 O163 2.370 . S
Eu170 O168 2.370 . S
Eu170 O172 2.370 . S
Eu170 O173 2.370 . S
Eu170 O184 2.363 . S
Eu170 O185 2.363 . S
Eu170 O192 2.363 . S
Eu170 O193 2.363 . S
O171 Eu165 2.370 1_565 S
O171 Eu169 2.370 . S
O171 Eu175 2.370 1_565 S
O172 Eu165 2.370 . S
O172 Eu170 2.370 . S
O172 Eu175 2.370 . S
O173 Eu166 2.370 . S
O173 Eu170 2.370 . S
O173 Eu175 2.370 . S
O174 Eu166 2.370 1_565 S
O174 Eu169 2.370 . S
O174 Eu175 2.370 1_565 S
Eu175 O171 2.370 1_545 S
Eu175 O172 2.370 . S
Eu175 O173 2.370 . S
Eu175 O174 2.370 1_545 S
Eu175 O178 2.363 1_545 S
Eu175 O179 2.363 . S
Eu175 O188 2.363 . S
Eu175 O189 2.363 . S
O176 C150 1.283 . S
O176 Eu162 2.363 . S
O177 C151 1.283 . S
O177 Eu162 2.363 1_545 S
O178 C152 1.283 . S
O178 Eu175 2.363 1_565 S
O179 C153 1.283 . S
O179 Eu175 2.363 . S
O180 C154 1.283 . S
O180 Eu165 2.363 . S
O181 C155 1.283 . S
O181 Eu165 2.363 1_565 S
O182 C156 1.283 . S
O182 Eu166 2.363 . S
O183 C157 1.283 . S
O183 Eu166 2.363 1_565 S
O184 C158 1.283 . S
O184 Eu170 2.363 . S
O185 C159 1.283 . S
O185 Eu170 2.363 . S
O186 C160 1.283 . S
O186 Eu169 2.363 . S
O187 C161 1.283 . S
O187 Eu169 2.363 . S
O188 C156 1.283 . S
O188 Eu175 2.363 . S
O189 C154 1.283 . S
O189 Eu175 2.363 . S
O190 C157 1.283 . S
O190 Eu162 2.363 . S
O191 C155 1.283 . S
O191 Eu162 2.363 . S
O192 C151 1.283 . S
O192 Eu170 2.363 . S
O193 C153 1.283 . S
O193 Eu170 2.363 . S
O194 C150 1.283 . S
O194 Eu169 2.363 . S
O195 C152 1.283 . S
O195 Eu169 2.363 . S
O196 C161 1.283 . S
O196 Eu165 2.363 1_565 S
O197 C159 1.283 . S
O197 Eu165 2.363 . S
O198 C160 1.283 . S
O198 Eu166 2.363 1_565 S
O199 C158 1.283 . S
O199 Eu166 2.363 . S
C200 O226 1.283 . S
C200 O244 1.283 . S
C201 O227 1.283 . S
C201 O242 1.283 . S
C202 O228 1.283 . S
C202 O245 1.283 . S
C203 O229 1.283 . S
C203 O243 1.283 . S
C204 O230 1.283 . S
C204 O239 1.283 . S
C205 O231 1.283 . S
C205 O241 1.283 . S
C206 O232 1.283 . S
C206 O238 1.283 . S
C207 O233 1.283 . S
C207 O240 1.283 . S
C208 O234 1.283 . S
C208 O249 1.283 . S
C209 O235 1.283 . S
C209 O247 1.283 . S
C210 O236 1.283 . S
C210 O248 1.283 . S
C211 O237 1.283 . S
C211 O246 1.283 . S
Eu212 O213 2.370 . S
Eu212 O214 2.370 . S
Eu212 O217 2.370 . S
Eu212 O218 2.370 . S
Eu212 O226 2.363 . S
Eu212 O227 2.363 . S
Eu212 O240 2.363 . S
Eu212 O241 2.363 . S
O213 Eu212 2.370 . S
O213 Eu215 2.370 1_554 S
O213 Eu220 2.370 . S
O214 Eu212 2.370 . S
O214 Eu216 2.370 . S
O214 Eu219 2.370 . S
Eu215 O213 2.370 1_556 S
Eu215 O217 2.370 1_556 S
Eu215 O221 2.370 . S
Eu215 O222 2.370 . S
Eu215 O230 2.363 . S
Eu215 O231 2.363 1_556 S
Eu215 O246 2.363 . S
Eu215 O247 2.363 . S
Eu216 O214 2.370 . S
Eu216 O218 2.370 . S
Eu216 O223 2.370 1_554 S
Eu216 O224 2.370 1_554 S
Eu216 O232 2.363 1_554 S
Eu216 O233 2.363 . S
Eu216 O248 2.363 . S
Eu216 O249 2.363 . S
O217 Eu212 2.370 . S
O217 Eu215 2.370 1_554 S
O217 Eu219 2.370 . S
O218 Eu212 2.370 . S
O218 Eu216 2.370 . S
O218 Eu220 2.370 . S
Eu219 O214 2.370 . S
Eu219 O217 2.370 . S
Eu219 O221 2.370 1_554 S
Eu219 O224 2.370 1_554 S
Eu219 O236 2.363 . S
Eu219 O237 2.363 1_554 S
Eu219 O244 2.363 . S
Eu219 O245 2.363 1_554 S
Eu220 O213 2.370 . S
Eu220 O218 2.370 . S
Eu220 O222 2.370 1_554 S
Eu220 O223 2.370 1_554 S
Eu220 O234 2.363 . S
Eu220 O235 2.363 1_554 S
Eu220 O242 2.363 . S
Eu220 O243 2.363 1_554 S
O221 Eu215 2.370 . S
O221 Eu219 2.370 1_556 S
O221 Eu225 2.370 . S
O222 Eu215 2.370 . S
O222 Eu220 2.370 1_556 S
O222 Eu225 2.370 . S
O223 Eu216 2.370 1_556 S
O223 Eu220 2.370 1_556 S
O223 Eu225 2.370 . S
O224 Eu216 2.370 1_556 S
O224 Eu219 2.370 1_556 S
O224 Eu225 2.370 . S
Eu225 O221 2.370 . S
Eu225 O222 2.370 . S
Eu225 O223 2.370 . S
Eu225 O224 2.370 . S
Eu225 O228 2.363 . S
Eu225 O229 2.363 . S
Eu225 O238 2.363 . S
Eu225 O239 2.363 . S
O226 C200 1.283 . S
O226 Eu212 2.363 . S
O227 C201 1.283 . S
O227 Eu212 2.363 . S
O228 C202 1.283 . S
O228 Eu225 2.363 . S
O229 C203 1.283 . S
O229 Eu225 2.363 . S
O230 C204 1.283 . S
O230 Eu215 2.363 . S
O231 C205 1.283 . S
O231 Eu215 2.363 1_554 S
O232 C206 1.283 . S
O232 Eu216 2.363 1_556 S
O233 C207 1.283 . S
O233 Eu216 2.363 . S
O234 C208 1.283 . S
O234 Eu220 2.363 . S
O235 C209 1.283 . S
O235 Eu220 2.363 1_556 S
O236 C210 1.283 . S
O236 Eu219 2.363 . S
O237 C211 1.283 . S
O237 Eu219 2.363 1_556 S
O238 C206 1.283 . S
O238 Eu225 2.363 . S
O239 C204 1.283 . S
O239 Eu225 2.363 . S
O240 C207 1.283 . S
O240 Eu212 2.363 . S
O241 C205 1.283 . S
O241 Eu212 2.363 . S
O242 C201 1.283 . S
O242 Eu220 2.363 . S
O243 C203 1.283 . S
O243 Eu220 2.363 1_556 S
O244 C200 1.283 . S
O244 Eu219 2.363 . S
O245 C202 1.283 . S
O245 Eu219 2.363 1_556 S
O246 C211 1.283 . S
O246 Eu215 2.363 . S
O247 C209 1.283 . S
O247 Eu215 2.363 . S
O248 C210 1.283 . S
O248 Eu216 2.363 . S
O249 C208 1.283 . S
O249 Eu216 2.363 . S
C250 O276 1.283 . S
C250 O294 1.283 . S
C251 O277 1.283 . S
C251 O292 1.283 . S
C252 O278 1.283 . S
C252 O295 1.283 . S
C253 O279 1.283 . S
C253 O293 1.283 . S
C254 O280 1.283 . S
C254 O289 1.283 . S
C255 O281 1.283 . S
C255 O291 1.283 . S
C256 O282 1.283 . S
C256 O288 1.283 . S
C257 O283 1.283 . S
C257 O290 1.283 . S
C258 O284 1.283 . S
C258 O299 1.283 . S
C259 O285 1.283 . S
C259 O297 1.283 . S
C260 O286 1.283 . S
C260 O298 1.283 . S
C261 O287 1.283 . S
C261 O296 1.283 . S
Eu262 O263 2.370 . S
Eu262 O264 2.370 . S
Eu262 O267 2.370 . S
Eu262 O268 2.370 . S
Eu262 O276 2.363 . S
Eu262 O277 2.363 . S
Eu262 O290 2.363 . S
Eu262 O291 2.363 . S
O263 Eu262 2.370 . S
O263 Eu265 2.370 . S
O263 Eu270 2.370 . S
O264 Eu262 2.370 . S
O264 Eu266 2.370 . S
O264 Eu269 2.370 . S
Eu265 O263 2.370 . S
Eu265 O267 2.370 . S
Eu265 O271 2.370 . S
Eu265 O272 2.370 . S
Eu265 O280 2.363 . S
Eu265 O281 2.363 . S
Eu265 O296 2.363 . S
Eu265 O297 2.363 . S
Eu266 O264 2.370 . S
Eu266 O268 2.370 . S
Eu266 O273 2.370 . S
Eu266 O274 2.370 . S
Eu266 O282 2.363 . S
Eu266 O283 2.363 . S
Eu266 O298 2.363 . S
Eu266 O299 2.363 . S
O267 Eu262 2.370 . S
O267 Eu265 2.370 . S
O267 Eu269 2.370 . S
O268 Eu262 2.370 . S
O268 Eu266 2.370 . S
O268 Eu270 2.370 . S
Eu269 O264 2.370 . S
Eu269 O267 2.370 . S
Eu269 O271 2.370 . S
Eu269 O274 2.370 . S
Eu269 O286 2.363 . S
Eu269 O287 2.363 . S
Eu269 O294 2.363 . S
Eu269 O295 2.363 . S
Eu270 O263 2.370 . S
Eu270 O268 2.370 . S
Eu270 O272 2.370 . S
Eu270 O273 2.370 . S
Eu270 O284 2.363 . S
Eu270 O285 2.363 . S
Eu270 O292 2.363 . S
Eu270 O293 2.363 . S
O271 Eu265 2.370 . S
O271 Eu269 2.370 . S
O271 Eu275 2.370 . S
O272 Eu265 2.370 . S
O272 Eu270 2.370 . S
O272 Eu275 2.370 . S
O273 Eu266 2.370 . S
O273 Eu270 2.370 . S
O273 Eu275 2.370 . S
O274 Eu266 2.370 . S
O274 Eu269 2.370 . S
O274 Eu275 2.370 . S
Eu275 O271 2.370 . S
Eu275 O272 2.370 . S
Eu275 O273 2.370 . S
Eu275 O274 2.370 . S
Eu275 O278 2.363 . S
Eu275 O279 2.363 . S
Eu275 O288 2.363 . S
Eu275 O289 2.363 . S
O276 C250 1.283 . S
O276 Eu262 2.363 . S
O277 C251 1.283 . S
O277 Eu262 2.363 . S
O278 C252 1.283 . S
O278 Eu275 2.363 . S
O279 C253 1.283 . S
O279 Eu275 2.363 . S
O280 C254 1.283 . S
O280 Eu265 2.363 . S
O281 C255 1.283 . S
O281 Eu265 2.363 . S
O282 C256 1.283 . S
O282 Eu266 2.363 . S
O283 C257 1.283 . S
O283 Eu266 2.363 . S
O284 C258 1.283 . S
O284 Eu270 2.363 . S
O285 C259 1.283 . S
O285 Eu270 2.363 . S
O286 C260 1.283 . S
O286 Eu269 2.363 . S
O287 C261 1.283 . S
O287 Eu269 2.363 . S
O288 C256 1.283 . S
O288 Eu275 2.363 . S
O289 C254 1.283 . S
O289 Eu275 2.363 . S
O290 C257 1.283 . S
O290 Eu262 2.363 . S
O291 C255 1.283 . S
O291 Eu262 2.363 . S
O292 C251 1.283 . S
O292 Eu270 2.363 . S
O293 C253 1.283 . S
O293 Eu270 2.363 . S
O294 C250 1.283 . S
O294 Eu269 2.363 . S
O295 C252 1.283 . S
O295 Eu269 2.363 . S
O296 C261 1.283 . S
O296 Eu265 2.363 . S
O297 C259 1.283 . S
O297 Eu265 2.363 . S
O298 C260 1.283 . S
O298 Eu266 2.363 . S
O299 C258 1.283 . S
O299 Eu266 2.363 . S
C300 O326 1.283 . S
C300 O344 1.283 . S
C301 O327 1.283 . S
C301 O342 1.283 . S
C302 O328 1.283 . S
C302 O345 1.283 . S
C303 O329 1.283 . S
C303 O343 1.283 . S
C304 O330 1.283 1_545 S
C304 O339 1.283 . S
C305 O331 1.283 1_545 S
C305 O341 1.283 . S
C306 O332 1.283 . S
C306 O338 1.283 . S
C307 O333 1.283 . S
C307 O340 1.283 . S
C308 O334 1.283 . S
C308 O349 1.283 . S
C309 O335 1.283 . S
C309 O347 1.283 1_545 S
C310 O336 1.283 . S
C310 O348 1.283 . S
C311 O337 1.283 . S
C311 O346 1.283 1_545 S
Eu312 O313 2.370 1_556 S
Eu312 O314 2.370 . S
Eu312 O317 2.370 . S
Eu312 O318 2.370 1_556 S
Eu312 O326 2.363 . S
Eu312 O327 2.363 1_556 S
Eu312 O340 2.363 . S
Eu312 O341 2.363 . S
O313 Eu312 2.370 1_554 S
O313 Eu315 2.370 . S
O313 Eu320 2.370 . S
O314 Eu312 2.370 . S
O314 Eu316 2.370 1_556 S
O314 Eu319 2.370 . S
Eu315 O313 2.370 . S
Eu315 O317 2.370 1_554 S
Eu315 O321 2.370 1_554 S
Eu315 O322 2.370 . S
Eu315 O330 2.363 1_545 S
Eu315 O331 2.363 1_544 S
Eu315 O346 2.363 1_544 S
Eu315 O347 2.363 1_545 S
Eu316 O314 2.370 1_554 S
Eu316 O318 2.370 . S
Eu316 O323 2.370 . S
Eu316 O324 2.370 1_554 S
Eu316 O332 2.363 . S
Eu316 O333 2.363 1_554 S
Eu316 O348 2.363 1_554 S
Eu316 O349 2.363 . S
O317 Eu312 2.370 . S
O317 Eu315 2.370 1_556 S
O317 Eu319 2.370 . S
O318 Eu312 2.370 1_554 S
O318 Eu316 2.370 . S
O318 Eu320 2.370 . S
Eu319 O314 2.370 . S
Eu319 O317 2.370 . S
Eu319 O321 2.370 . S
Eu319 O324 2.370 . S
Eu319 O336 2.363 . S
Eu319 O337 2.363 . S
Eu319 O344 2.363 . S
Eu319 O345 2.363 . S
Eu320 O313 2.370 . S
Eu320 O318 2.370 . S
Eu320 O322 2.370 . S
Eu320 O323 2.370 . S
Eu320 O334 2.363 . S
Eu320 O335 2.363 . S
Eu320 O342 2.363 . S
Eu320 O343 2.363 . S
O321 Eu315 2.370 1_556 S
O321 Eu319 2.370 . S
O321 Eu325 2.370 1_556 S
O322 Eu315 2.370 . S
O322 Eu320 2.370 . S
O322 Eu325 2.370 . S
O323 Eu316 2.370 . S
O323 Eu320 2.370 . S
O323 Eu325 2.370 . S
O324 Eu316 2.370 1_556 S
O324 Eu319 2.370 . S
O324 Eu325 2.370 1_556 S
Eu325 O321 2.370 1_554 S
Eu325 O322 2.370 . S
Eu325 O323 2.370 . S
Eu325 O324 2.370 1_554 S
Eu325 O328 2.363 1_554 S
Eu325 O329 2.363 . S
Eu325 O338 2.363 . S
Eu325 O339 2.363 . S
O326 C300 1.283 . S
O326 Eu312 2.363 . S
O327 C301 1.283 . S
O327 Eu312 2.363 1_554 S
O328 C302 1.283 . S
O328 Eu325 2.363 1_556 S
O329 C303 1.283 . S
O329 Eu325 2.363 . S
O330 C304 1.283 1_565 S
O330 Eu315 2.363 1_565 S
O331 C305 1.283 1_565 S
O331 Eu315 2.363 1_566 S
O332 C306 1.283 . S
O332 Eu316 2.363 . S
O333 C307 1.283 . S
O333 Eu316 2.363 1_556 S
O334 C308 1.283 . S
O334 Eu320 2.363 . S
O335 C309 1.283 . S
O335 Eu320 2.363 . S
O336 C310 1.283 . S
O336 Eu319 2.363 . S
O337 C311 1.283 . S
O337 Eu319 2.363 . S
O338 C306 1.283 . S
O338 Eu325 2.363 . S
O339 C304 1.283 . S
O339 Eu325 2.363 . S
O340 C307 1.283 . S
O340 Eu312 2.363 . S
O341 C305 1.283 . S
O341 Eu312 2.363 . S
O342 C301 1.283 . S
O342 Eu320 2.363 . S
O343 C303 1.283 . S
O343 Eu320 2.363 . S
O344 C300 1.283 . S
O344 Eu319 2.363 . S
O345 C302 1.283 . S
O345 Eu319 2.363 . S
O346 C311 1.283 1_565 S
O346 Eu315 2.363 1_566 S
O347 C309 1.283 1_565 S
O347 Eu315 2.363 1_565 S
O348 C310 1.283 . S
O348 Eu316 2.363 1_556 S
O349 C308 1.283 . S
O349 Eu316 2.363 . S
C350 O376 1.283 . S
C350 O394 1.283 . S
C351 O377 1.283 . S
C351 O392 1.283 . S
C352 O378 1.283 . S
C352 O395 1.283 . S
C353 O379 1.283 . S
C353 O393 1.283 . S
C354 O380 1.283 . S
C354 O389 1.283 . S
C355 O381 1.283 . S
C355 O391 1.283 . S
C356 O382 1.283 . S
C356 O388 1.283 . S
C357 O383 1.283 . S
C357 O390 1.283 . S
C358 O384 1.283 . S
C358 O399 1.283 . S
C359 O385 1.283 . S
C359 O397 1.283 . S
C360 O386 1.283 . S
C360 O398 1.283 . S
C361 O387 1.283 . S
C361 O396 1.283 . S
Eu362 O363 2.370 . S
Eu362 O364 2.370 . S
Eu362 O367 2.370 . S
Eu362 O368 2.370 . S
Eu362 O376 2.363 . S
Eu362 O377 2.363 . S
Eu362 O390 2.363 . S
Eu362 O391 2.363 . S
O363 Eu362 2.370 . S
O363 Eu365 2.370 . S
O363 Eu370 2.370 . S
O364 Eu362 2.370 . S
O364 Eu366 2.370 . S
O364 Eu369 2.370 . S
Eu365 O363 2.370 . S
Eu365 O367 2.370 . S
Eu365 O371 2.370 . S
Eu365 O372 2.370 . S
Eu365 O380 2.363 . S
Eu365 O381 2.363 . S
Eu365 O396 2.363 . S
Eu365 O397 2.363 . S
Eu366 O364 2.370 . S
Eu366 O368 2.370 . S
Eu366 O373 2.370 . S
Eu366 O374 2.370 . S
Eu366 O382 2.363 . S
Eu366 O383 2.363 . S
Eu366 O398 2.363 . S
Eu366 O399 2.363 . S
O367 Eu362 2.370 . S
O367 Eu365 2.370 . S
O367 Eu369 2.370 . S
O368 Eu362 2.370 . S
O368 Eu366 2.370 . S
O368 Eu370 2.370 . S
Eu369 O364 2.370 . S
Eu369 O367 2.370 . S
Eu369 O371 2.370 . S
Eu369 O374 2.370 . S
Eu369 O386 2.363 . S
Eu369 O387 2.363 . S
Eu369 O394 2.363 . S
Eu369 O395 2.363 . S
Eu370 O363 2.370 . S
Eu370 O368 2.370 . S
Eu370 O372 2.370 . S
Eu370 O373 2.370 . S
Eu370 O384 2.363 . S
Eu370 O385 2.363 . S
Eu370 O392 2.363 . S
Eu370 O393 2.363 . S
O371 Eu365 2.370 . S
O371 Eu369 2.370 . S
O371 Eu375 2.370 . S
O372 Eu365 2.370 . S
O372 Eu370 2.370 . S
O372 Eu375 2.370 . S
O373 Eu366 2.370 . S
O373 Eu370 2.370 . S
O373 Eu375 2.370 . S
O374 Eu366 2.370 . S
O374 Eu369 2.370 . S
O374 Eu375 2.370 . S
Eu375 O371 2.370 . S
Eu375 O372 2.370 . S
Eu375 O373 2.370 . S
Eu375 O374 2.370 . S
Eu375 O378 2.363 . S
Eu375 O379 2.363 . S
Eu375 O388 2.363 . S
Eu375 O389 2.363 . S
O376 C350 1.283 . S
O376 Eu362 2.363 . S
O377 C351 1.283 . S
O377 Eu362 2.363 . S
O378 C352 1.283 . S
O378 Eu375 2.363 . S
O379 C353 1.283 . S
O379 Eu375 2.363 . S
O380 C354 1.283 . S
O380 Eu365 2.363 . S
O381 C355 1.283 . S
O381 Eu365 2.363 . S
O382 C356 1.283 . S
O382 Eu366 2.363 . S
O383 C357 1.283 . S
O383 Eu366 2.363 . S
O384 C358 1.283 . S
O384 Eu370 2.363 . S
O385 C359 1.283 . S
O385 Eu370 2.363 . S
O386 C360 1.283 . S
O386 Eu369 2.363 . S
O387 C361 1.283 . S
O387 Eu369 2.363 . S
O388 C356 1.283 . S
O388 Eu375 2.363 . S
O389 C354 1.283 . S
O389 Eu375 2.363 . S
O390 C357 1.283 . S
O390 Eu362 2.363 . S
O391 C355 1.283 . S
O391 Eu362 2.363 . S
O392 C351 1.283 . S
O392 Eu370 2.363 . S
O393 C353 1.283 . S
O393 Eu370 2.363 . S
O394 C350 1.283 . S
O394 Eu369 2.363 . S
O395 C352 1.283 . S
O395 Eu369 2.363 . S
O396 C361 1.283 . S
O396 Eu365 2.363 . S
O397 C359 1.283 . S
O397 Eu365 2.363 . S
O398 C360 1.283 . S
O398 Eu366 2.363 . S
O399 C358 1.283 . S
O399 Eu366 2.363 . S
C400 O426 1.283 . S
C400 O444 1.283 . S
C401 O427 1.283 . S
C401 O442 1.283 . S
C402 O428 1.283 . S
C402 O445 1.283 . S
C403 O429 1.283 . S
C403 O443 1.283 . S
C404 O430 1.283 1_655 S
C404 O439 1.283 . S
C405 O431 1.283 1_655 S
C405 O441 1.283 . S
C406 O432 1.283 . S
C406 O438 1.283 . S
C407 O433 1.283 . S
C407 O440 1.283 . S
C408 O434 1.283 . S
C408 O449 1.283 . S
C409 O435 1.283 . S
C409 O447 1.283 1_655 S
C410 O436 1.283 . S
C410 O448 1.283 . S
C411 O437 1.283 . S
C411 O446 1.283 1_655 S
Eu412 O413 2.370 . S
Eu412 O414 2.370 . S
Eu412 O417 2.370 . S
Eu412 O418 2.370 . S
Eu412 O426 2.363 . S
Eu412 O427 2.363 . S
Eu412 O440 2.363 . S
Eu412 O441 2.363 . S
O413 Eu412 2.370 . S
O413 Eu415 2.370 . S
O413 Eu420 2.370 . S
O414 Eu412 2.370 . S
O414 Eu416 2.370 . S
O414 Eu419 2.370 . S
Eu415 O413 2.370 . S
Eu415 O417 2.370 . S
Eu415 O421 2.370 . S
Eu415 O422 2.370 . S
Eu415 O430 2.363 1_655 S
Eu415 O431 2.363 1_655 S
Eu415 O446 2.363 1_655 S
Eu415 O447 2.363 1_655 S
Eu416 O414 2.370 . S
Eu416 O418 2.370 . S
Eu416 O423 2.370 . S
Eu416 O424 2.370 . S
Eu416 O432 2.363 . S
Eu416 O433 2.363 . S
Eu416 O448 2.363 . S
Eu416 O449 2.363 . S
O417 Eu412 2.370 . S
O417 Eu415 2.370 . S
O417 Eu419 2.370 . S
O418 Eu412 2.370 . S
O418 Eu416 2.370 . S
O418 Eu420 2.370 . S
Eu419 O414 2.370 . S
Eu419 O417 2.370 . S
Eu419 O421 2.370 . S
Eu419 O424 2.370 . S
Eu419 O436 2.363 . S
Eu419 O437 2.363 . S
Eu419 O444 2.363 . S
Eu419 O445 2.363 . S
Eu420 O413 2.370 . S
Eu420 O418 2.370 . S
Eu420 O422 2.370 . S
Eu420 O423 2.370 . S
Eu420 O434 2.363 . S
Eu420 O435 2.363 . S
Eu420 O442 2.363 . S
Eu420 O443 2.363 . S
O421 Eu415 2.370 . S
O421 Eu419 2.370 . S
O421 Eu425 2.370 . S
O422 Eu415 2.370 . S
O422 Eu420 2.370 . S
O422 Eu425 2.370 . S
O423 Eu416 2.370 . S
O423 Eu420 2.370 . S
O423 Eu425 2.370 . S
O424 Eu416 2.370 . S
O424 Eu419 2.370 . S
O424 Eu425 2.370 . S
Eu425 O421 2.370 . S
Eu425 O422 2.370 . S
Eu425 O423 2.370 . S
Eu425 O424 2.370 . S
Eu425 O428 2.363 . S
Eu425 O429 2.363 . S
Eu425 O438 2.363 . S
Eu425 O439 2.363 . S
O426 C400 1.283 . S
O426 Eu412 2.363 . S
O427 C401 1.283 . S
O427 Eu412 2.363 . S
O428 C402 1.283 . S
O428 Eu425 2.363 . S
O429 C403 1.283 . S
O429 Eu425 2.363 . S
O430 C404 1.283 1_455 S
O430 Eu415 2.363 1_455 S
O431 C405 1.283 1_455 S
O431 Eu415 2.363 1_455 S
O432 C406 1.283 . S
O432 Eu416 2.363 . S
O433 C407 1.283 . S
O433 Eu416 2.363 . S
O434 C408 1.283 . S
O434 Eu420 2.363 . S
O435 C409 1.283 . S
O435 Eu420 2.363 . S
O436 C410 1.283 . S
O436 Eu419 2.363 . S
O437 C411 1.283 . S
O437 Eu419 2.363 . S
O438 C406 1.283 . S
O438 Eu425 2.363 . S
O439 C404 1.283 . S
O439 Eu425 2.363 . S
O440 C407 1.283 . S
O440 Eu412 2.363 . S
O441 C405 1.283 . S
O441 Eu412 2.363 . S
O442 C401 1.283 . S
O442 Eu420 2.363 . S
O443 C403 1.283 . S
O443 Eu420 2.363 . S
O444 C400 1.283 . S
O444 Eu419 2.363 . S
O445 C402 1.283 . S
O445 Eu419 2.363 . S
O446 C411 1.283 1_455 S
O446 Eu415 2.363 1_455 S
O447 C409 1.283 1_455 S
O447 Eu415 2.363 1_455 S
O448 C410 1.283 . S
O448 Eu416 2.363 . S
O449 C408 1.283 . S
O449 Eu416 2.363 . S
C450 O476 1.283 . S
C450 O494 1.283 . S
C451 O477 1.283 . S
C451 O492 1.283 1_565 S
C452 O478 1.283 . S
C452 O495 1.283 . S
C453 O479 1.283 . S
C453 O493 1.283 1_565 S
C454 O480 1.283 . S
C454 O489 1.283 . S
C455 O481 1.283 . S
C455 O491 1.283 . S
C456 O482 1.283 . S
C456 O488 1.283 . S
C457 O483 1.283 . S
C457 O490 1.283 . S
C458 O484 1.283 1_565 S
C458 O499 1.283 . S
C459 O485 1.283 1_565 S
C459 O497 1.283 . S
C460 O486 1.283 . S
C460 O498 1.283 . S
C461 O487 1.283 . S
C461 O496 1.283 . S
Eu462 O463 2.370 . S
Eu462 O464 2.370 . S
Eu462 O467 2.370 . S
Eu462 O468 2.370 . S
Eu462 O476 2.363 . S
Eu462 O477 2.363 . S
Eu462 O490 2.363 . S
Eu462 O491 2.363 . S
O463 Eu462 2.370 . S
O463 Eu465 2.370 . S
O463 Eu470 2.370 . S
O464 Eu462 2.370 . S
O464 Eu466 2.370 . S
O464 Eu469 2.370 . S
Eu465 O463 2.370 . S
Eu465 O467 2.370 . S
Eu465 O471 2.370 . S
Eu465 O472 2.370 . S
Eu465 O480 2.363 . S
Eu465 O481 2.363 . S
Eu465 O496 2.363 . S
Eu465 O497 2.363 . S
Eu466 O464 2.370 . S
Eu466 O468 2.370 . S
Eu466 O473 2.370 . S
Eu466 O474 2.370 . S
Eu466 O482 2.363 . S
Eu466 O483 2.363 . S
Eu466 O498 2.363 . S
Eu466 O499 2.363 . S
O467 Eu462 2.370 . S
O467 Eu465 2.370 . S
O467 Eu469 2.370 . S
O468 Eu462 2.370 . S
O468 Eu466 2.370 . S
O468 Eu470 2.370 . S
Eu469 O464 2.370 . S
Eu469 O467 2.370 . S
Eu469 O471 2.370 . S
Eu469 O474 2.370 . S
Eu469 O486 2.363 . S
Eu469 O487 2.363 . S
Eu469 O494 2.363 . S
Eu469 O495 2.363 . S
Eu470 O463 2.370 . S
Eu470 O468 2.370 . S
Eu470 O472 2.370 . S
Eu470 O473 2.370 . S
Eu470 O484 2.363 1_565 S
Eu470 O485 2.363 1_565 S
Eu470 O492 2.363 1_565 S
Eu470 O493 2.363 1_565 S
O471 Eu465 2.370 . S
O471 Eu469 2.370 . S
O471 Eu475 2.370 . S
O472 Eu465 2.370 . S
O472 Eu470 2.370 . S
O472 Eu475 2.370 . S
O473 Eu466 2.370 . S
O473 Eu470 2.370 . S
O473 Eu475 2.370 . S
O474 Eu466 2.370 . S
O474 Eu469 2.370 . S
O474 Eu475 2.370 . S
Eu475 O471 2.370 . S
Eu475 O472 2.370 . S
Eu475 O473 2.370 . S
Eu475 O474 2.370 . S
Eu475 O478 2.363 . S
Eu475 O479 2.363 . S
Eu475 O488 2.363 . S
Eu475 O489 2.363 . S
O476 C450 1.283 . S
O476 Eu462 2.363 . S
O477 C451 1.283 . S
O477 Eu462 2.363 . S
O478 C452 1.283 . S
O478 Eu475 2.363 . S
O479 C453 1.283 . S
O479 Eu475 2.363 . S
O480 C454 1.283 . S
O480 Eu465 2.363 . S
O481 C455 1.283 . S
O481 Eu465 2.363 . S
O482 C456 1.283 . S
O482 Eu466 2.363 . S
O483 C457 1.283 . S
O483 Eu466 2.363 . S
O484 C458 1.283 1_545 S
O484 Eu470 2.363 1_545 S
O485 C459 1.283 1_545 S
O485 Eu470 2.363 1_545 S
O486 C460 1.283 . S
O486 Eu469 2.363 . S
O487 C461 1.283 . S
O487 Eu469 2.363 . S
O488 C456 1.283 . S
O488 Eu475 2.363 . S
O489 C454 1.283 . S
O489 Eu475 2.363 . S
O490 C457 1.283 . S
O490 Eu462 2.363 . S
O491 C455 1.283 . S
O491 Eu462 2.363 . S
O492 C451 1.283 1_545 S
O492 Eu470 2.363 1_545 S
O493 C453 1.283 1_545 S
O493 Eu470 2.363 1_545 S
O494 C450 1.283 . S
O494 Eu469 2.363 . S
O495 C452 1.283 . S
O495 Eu469 2.363 . S
O496 C461 1.283 . S
O496 Eu465 2.363 . S
O497 C459 1.283 . S
O497 Eu465 2.363 . S
O498 C460 1.283 . S
O498 Eu466 2.363 . S
O499 C458 1.283 . S
O499 Eu466 2.363 . S
C500 O526 1.283 . S
C500 O544 1.283 1_455 S
C501 O527 1.283 . S
C501 O542 1.283 . S
C502 O528 1.283 . S
C502 O545 1.283 1_455 S
C503 O529 1.283 . S
C503 O543 1.283 . S
C504 O530 1.283 . S
C504 O539 1.283 . S
C505 O531 1.283 . S
C505 O541 1.283 . S
C506 O532 1.283 . S
C506 O538 1.283 . S
C507 O533 1.283 . S
C507 O540 1.283 . S
C508 O534 1.283 . S
C508 O549 1.283 . S
C509 O535 1.283 . S
C509 O547 1.283 . S
C510 O536 1.283 1_455 S
C510 O548 1.283 . S
C511 O537 1.283 1_455 S
C511 O546 1.283 . S
Eu512 O513 2.370 1_545 S
Eu512 O514 2.370 . S
Eu512 O517 2.370 1_545 S
Eu512 O518 2.370 . S
Eu512 O526 2.363 . S
Eu512 O527 2.363 . S
Eu512 O540 2.363 . S
Eu512 O541 2.363 1_545 S
O513 Eu512 2.370 1_565 S
O513 Eu515 2.370 . S
O513 Eu520 2.370 1_565 S
O514 Eu512 2.370 . S
O514 Eu516 2.370 . S
O514 Eu519 2.370 . S
Eu515 O513 2.370 . S
Eu515 O517 2.370 . S
Eu515 O521 2.370 . S
Eu515 O522 2.370 . S
Eu515 O530 2.363 . S
Eu515 O531 2.363 . S
Eu515 O546 2.363 . S
Eu515 O547 2.363 . S
Eu516 O514 2.370 . S
Eu516 O518 2.370 . S
Eu516 O523 2.370 . S
Eu516 O524 2.370 . S
Eu516 O532 2.363 . S
Eu516 O533 2.363 . S
Eu516 O548 2.363 . S
Eu516 O549 2.363 . S
O517 Eu512 2.370 1_565 S
O517 Eu515 2.370 . S
O517 Eu519 2.370 1_565 S
O518 Eu512 2.370 . S
O518 Eu516 2.370 . S
O518 Eu520 2.370 . S
Eu519 O514 2.370 . S
Eu519 O517 2.370 1_545 S
Eu519 O521 2.370 1_545 S
Eu519 O524 2.370 . S
Eu519 O536 2.363 1_455 S
Eu519 O537 2.363 1_445 S
Eu519 O544 2.363 1_455 S
Eu519 O545 2.363 1_445 S
Eu520 O513 2.370 1_545 S
Eu520 O518 2.370 . S
Eu520 O522 2.370 1_545 S
Eu520 O523 2.370 . S
Eu520 O534 2.363 . S
Eu520 O535 2.363 1_545 S
Eu520 O542 2.363 . S
Eu520 O543 2.363 1_545 S
O521 Eu515 2.370 . S
O521 Eu519 2.370 1_565 S
O521 Eu525 2.370 . S
O522 Eu515 2.370 . S
O522 Eu520 2.370 1_565 S
O522 Eu525 2.370 . S
O523 Eu516 2.370 . S
O523 Eu520 2.370 . S
O523 Eu525 2.370 1_545 S
O524 Eu516 2.370 . S
O524 Eu519 2.370 . S
O524 Eu525 2.370 1_545 S
Eu525 O521 2.370 . S
Eu525 O522 2.370 . S
Eu525 O523 2.370 1_565 S
Eu525 O524 2.370 1_565 S
Eu525 O528 2.363 . S
Eu525 O529 2.363 . S
Eu525 O538 2.363 1_565 S
Eu525 O539 2.363 . S
O526 C500 1.283 . S
O526 Eu512 2.363 . S
O527 C501 1.283 . S
O527 Eu512 2.363 . S
O528 C502 1.283 . S
O528 Eu525 2.363 . S
O529 C503 1.283 . S
O529 Eu525 2.363 . S
O530 C504 1.283 . S
O530 Eu515 2.363 . S
O531 C505 1.283 . S
O531 Eu515 2.363 . S
O532 C506 1.283 . S
O532 Eu516 2.363 . S
O533 C507 1.283 . S
O533 Eu516 2.363 . S
O534 C508 1.283 . S
O534 Eu520 2.363 . S
O535 C509 1.283 . S
O535 Eu520 2.363 1_565 S
O536 C510 1.283 1_655 S
O536 Eu519 2.363 1_655 S
O537 C511 1.283 1_655 S
O537 Eu519 2.363 1_665 S
O538 C506 1.283 . S
O538 Eu525 2.363 1_545 S
O539 C504 1.283 . S
O539 Eu525 2.363 . S
O540 C507 1.283 . S
O540 Eu512 2.363 . S
O541 C505 1.283 . S
O541 Eu512 2.363 1_565 S
O542 C501 1.283 . S
O542 Eu520 2.363 . S
O543 C503 1.283 . S
O543 Eu520 2.363 1_565 S
O544 C500 1.283 1_655 S
O544 Eu519 2.363 1_655 S
O545 C502 1.283 1_655 S
O545 Eu519 2.363 1_665 S
O546 C511 1.283 . S
O546 Eu515 2.363 . S
O547 C509 1.283 . S
O547 Eu515 2.363 . S
O548 C510 1.283 . S
O548 Eu516 2.363 . S
O549 C508 1.283 . S
O549 Eu516 2.363 . S
C550 O576 1.283 . S
C550 O594 1.283 . S
C551 O577 1.283 . S
C551 O592 1.283 . S
C552 O578 1.283 . S
C552 O595 1.283 . S
C553 O579 1.283 . S
C553 O593 1.283 . S
C554 O580 1.283 . S
C554 O589 1.283 . S
C555 O581 1.283 . S
C555 O591 1.283 . S
C556 O582 1.283 . S
C556 O588 1.283 . S
C557 O583 1.283 . S
C557 O590 1.283 . S
C558 O584 1.283 . S
C558 O599 1.283 . S
C559 O585 1.283 . S
C559 O597 1.283 . S
C560 O586 1.283 . S
C560 O598 1.283 . S
C561 O587 1.283 . S
C561 O596 1.283 . S
Eu562 O563 2.370 . S
Eu562 O564 2.370 . S
Eu562 O567 2.370 . S
Eu562 O568 2.370 . S
Eu562 O576 2.363 . S
Eu562 O577 2.363 . S
Eu562 O590 2.363 . S
Eu562 O591 2.363 . S
O563 Eu562 2.370 . S
O563 Eu565 2.370 . S
O563 Eu570 2.370 . S
O564 Eu562 2.370 . S
O564 Eu566 2.370 . S
O564 Eu569 2.370 . S
Eu565 O563 2.370 . S
Eu565 O567 2.370 . S
Eu565 O571 2.370 . S
Eu565 O572 2.370 . S
Eu565 O580 2.363 . S
Eu565 O581 2.363 . S
Eu565 O596 2.363 . S
Eu565 O597 2.363 . S
Eu566 O564 2.370 . S
Eu566 O568 2.370 . S
Eu566 O573 2.370 . S
Eu566 O574 2.370 . S
Eu566 O582 2.363 . S
Eu566 O583 2.363 . S
Eu566 O598 2.363 . S
Eu566 O599 2.363 . S
O567 Eu562 2.370 . S
O567 Eu565 2.370 . S
O567 Eu569 2.370 . S
O568 Eu562 2.370 . S
O568 Eu566 2.370 . S
O568 Eu570 2.370 . S
Eu569 O564 2.370 . S
Eu569 O567 2.370 . S
Eu569 O571 2.370 . S
Eu569 O574 2.370 . S
Eu569 O586 2.363 . S
Eu569 O587 2.363 . S
Eu569 O594 2.363 . S
Eu569 O595 2.363 . S
Eu570 O563 2.370 . S
Eu570 O568 2.370 . S
Eu570 O572 2.370 . S
Eu570 O573 2.370 . S
Eu570 O584 2.363 . S
Eu570 O585 2.363 . S
Eu570 O592 2.363 . S
Eu570 O593 2.363 . S
O571 Eu565 2.370 . S
O571 Eu569 2.370 . S
O571 Eu575 2.370 . S
O572 Eu565 2.370 . S
O572 Eu570 2.370 . S
O572 Eu575 2.370 . S
O573 Eu566 2.370 . S
O573 Eu570 2.370 . S
O573 Eu575 2.370 . S
O574 Eu566 2.370 . S
O574 Eu569 2.370 . S
O574 Eu575 2.370 . S
Eu575 O571 2.370 . S
Eu575 O572 2.370 . S
Eu575 O573 2.370 . S
Eu575 O574 2.370 . S
Eu575 O578 2.363 . S
Eu575 O579 2.363 . S
Eu575 O588 2.363 . S
Eu575 O589 2.363 . S
O576 C550 1.283 . S
O576 Eu562 2.363 . S
O577 C551 1.283 . S
O577 Eu562 2.363 . S
O578 C552 1.283 . S
O578 Eu575 2.363 . S
O579 C553 1.283 . S
O579 Eu575 2.363 . S
O580 C554 1.283 . S
O580 Eu565 2.363 . S
O581 C555 1.283 . S
O581 Eu565 2.363 . S
O582 C556 1.283 . S
O582 Eu566 2.363 . S
O583 C557 1.283 . S
O583 Eu566 2.363 . S
O584 C558 1.283 . S
O584 Eu570 2.363 . S
O585 C559 1.283 . S
O585 Eu570 2.363 . S
O586 C560 1.283 . S
O586 Eu569 2.363 . S
O587 C561 1.283 . S
O587 Eu569 2.363 . S
O588 C556 1.283 . S
O588 Eu575 2.363 . S
O589 C554 1.283 . S
O589 Eu575 2.363 . S
O590 C557 1.283 . S
O590 Eu562 2.363 . S
O591 C555 1.283 . S
O591 Eu562 2.363 . S
O592 C551 1.283 . S
O592 Eu570 2.363 . S
O593 C553 1.283 . S
O593 Eu570 2.363 . S
O594 C550 1.283 . S
O594 Eu569 2.363 . S
O595 C552 1.283 . S
O595 Eu569 2.363 . S
O596 C561 1.283 . S
O596 Eu565 2.363 . S
O597 C559 1.283 . S
O597 Eu565 2.363 . S
O598 C560 1.283 . S
O598 Eu566 2.363 . S
O599 C558 1.283 . S
O599 Eu566 2.363 . S
C600 C601 1.369 . S
C600 C602 1.419 . S
C600 H604 0.930 . S
C601 C600 1.369 . S
C601 C610 1.429 . S
C602 C600 1.419 . S
C602 C603 1.363 . S
C602 H605 0.929 . S
C603 C602 1.363 . S
C603 C609 1.428 . S
H604 C600 0.930 . S
H605 C602 0.929 . S
S606 N607 1.613 . S
S606 N608 1.610 . S
N607 S606 1.613 . S
N607 C610 1.350 . S
N608 S606 1.610 . S
N608 C609 1.351 . S
C609 C603 1.428 . S
C609 N608 1.351 . S
C609 C610 1.434 . S
C610 C601 1.429 . S
C610 N607 1.350 . S
C610 C609 1.434 . S
C611 C612 1.369 . S
C611 C613 1.419 . S
C611 H615 0.930 . S
C612 C611 1.369 . S
C612 C621 1.429 . S
C613 C611 1.419 . S
C613 C614 1.363 . S
C613 H616 0.929 1_554 S
C614 C613 1.363 . S
C614 C620 1.428 . S
H615 C611 0.930 . S
H616 C613 0.929 1_556 S
S617 N618 1.613 . S
S617 N619 1.610 . S
N618 S617 1.613 . S
N618 C621 1.350 . S
N619 S617 1.610 . S
N619 C620 1.351 . S
C620 C614 1.428 . S
C620 N619 1.351 . S
C620 C621 1.434 . S
C621 C612 1.429 . S
C621 N618 1.350 . S
C621 C620 1.434 . S
C622 C623 1.369 . S
C622 C624 1.419 . S
C622 H626 0.930 . S
C623 C622 1.369 . S
C623 C632 1.429 . S
C624 C622 1.419 . S
C624 C625 1.363 . S
C624 H627 0.929 . S
C625 C624 1.363 . S
C625 C631 1.428 . S
H626 C622 0.930 . S
H627 C624 0.929 . S
S628 N629 1.613 . S
S628 N630 1.610 . S
N629 S628 1.613 . S
N629 C632 1.350 . S
N630 S628 1.610 . S
N630 C631 1.351 . S
C631 C625 1.428 . S
C631 N630 1.351 . S
C631 C632 1.434 . S
C632 C623 1.429 . S
C632 N629 1.350 . S
C632 C631 1.434 . S
C633 C634 1.369 . S
C633 C635 1.419 . S
C633 H637 0.930 . S
C634 C633 1.369 . S
C634 C643 1.429 . S
C635 C633 1.419 . S
C635 C636 1.363 . S
C635 H638 0.929 . S
C636 C635 1.363 . S
C636 C642 1.428 . S
H637 C633 0.930 . S
H638 C635 0.929 . S
S639 N640 1.613 1_545 S
S639 N641 1.610 1_545 S
N640 S639 1.613 1_565 S
N640 C643 1.350 . S
N641 S639 1.610 1_565 S
N641 C642 1.351 . S
C642 C636 1.428 . S
C642 N641 1.351 . S
C642 C643 1.434 . S
C643 C634 1.429 . S
C643 N640 1.350 . S
C643 C642 1.434 . S
C644 C645 1.369 . S
C644 C646 1.419 . S
C644 H648 0.930 . S
C645 C644 1.369 . S
C645 C654 1.429 . S
C646 C644 1.419 . S
C646 C647 1.363 . S
C646 H649 0.929 . S
C647 C646 1.363 . S
C647 C653 1.428 . S
H648 C644 0.930 . S
H649 C646 0.929 . S
S650 N651 1.613 . S
S650 N652 1.610 . S
N651 S650 1.613 . S
N651 C654 1.350 . S
N652 S650 1.610 . S
N652 C653 1.351 . S
C653 C647 1.428 . S
C653 N652 1.351 . S
C653 C654 1.434 . S
C654 C645 1.429 . S
C654 N651 1.350 . S
C654 C653 1.434 . S
C655 C656 1.369 . S
C655 C657 1.419 . S
C655 H659 0.930 . S
C656 C655 1.369 . S
C656 C665 1.429 . S
C657 C655 1.419 . S
C657 C658 1.363 . S
C657 H660 0.929 . S
C658 C657 1.363 . S
C658 C664 1.428 . S
H659 C655 0.930 . S
H660 C657 0.929 . S
S661 N662 1.613 . S
S661 N663 1.610 . S
N662 S661 1.613 . S
N662 C665 1.350 . S
N663 S661 1.610 . S
N663 C664 1.351 . S
C664 C658 1.428 . S
C664 N663 1.351 . S
C664 C665 1.434 . S
C665 C656 1.429 . S
C665 N662 1.350 . S
C665 C664 1.434 . S
C666 C667 1.369 . S
C666 C668 1.419 . S
C666 H670 0.930 . S
C667 C666 1.369 . S
C667 C676 1.429 . S
C668 C666 1.419 . S
C668 C669 1.363 . S
C668 H671 0.929 . S
C669 C668 1.363 . S
C669 C675 1.428 . S
H670 C666 0.930 . S
H671 C668 0.929 . S
S672 N673 1.613 . S
S672 N674 1.610 . S
N673 S672 1.613 . S
N673 C676 1.350 . S
N674 S672 1.610 . S
N674 C675 1.351 . S
C675 C669 1.428 . S
C675 N674 1.351 . S
C675 C676 1.434 . S
C676 C667 1.429 . S
C676 N673 1.350 . S
C676 C675 1.434 . S
C677 C678 1.369 . S
C677 C679 1.419 . S
C677 H681 0.930 . S
C678 C677 1.369 . S
C678 C687 1.429 . S
C679 C677 1.419 . S
C679 C680 1.363 . S
C679 H682 0.929 . S
C680 C679 1.363 . S
C680 C686 1.428 . S
H681 C677 0.930 . S
H682 C679 0.929 . S
S683 N684 1.613 . S
S683 N685 1.610 . S
N684 S683 1.613 . S
N684 C687 1.350 . S
N685 S683 1.610 . S
N685 C686 1.351 . S
C686 C680 1.428 . S
C686 N685 1.351 . S
C686 C687 1.434 . S
C687 C678 1.429 . S
C687 N684 1.350 . S
C687 C686 1.434 . S
C688 C689 1.369 . S
C688 C690 1.419 . S
C688 H692 0.930 . S
C689 C688 1.369 . S
C689 C698 1.429 . S
C690 C688 1.419 . S
C690 C691 1.363 . S
C690 H693 0.929 . S
C691 C690 1.363 . S
C691 C697 1.428 . S
H692 C688 0.930 . S
H693 C690 0.929 . S
S694 N695 1.613 . S
S694 N696 1.610 . S
N695 S694 1.613 . S
N695 C698 1.350 . S
N696 S694 1.610 . S
N696 C697 1.351 . S
C697 C691 1.428 . S
C697 N696 1.351 . S
C697 C698 1.434 . S
C698 C689 1.429 . S
C698 N695 1.350 . S
C698 C697 1.434 . S
C699 C700 1.369 . S
C699 C701 1.419 . S
C699 H703 0.930 . S
C700 C699 1.369 . S
C700 C709 1.429 . S
C701 C699 1.419 . S
C701 C702 1.363 . S
C701 H704 0.929 . S
C702 C701 1.363 . S
C702 C708 1.428 . S
H703 C699 0.930 . S
H704 C701 0.929 . S
S705 N706 1.613 . S
S705 N707 1.610 . S
N706 S705 1.613 . S
N706 C709 1.350 . S
N707 S705 1.610 . S
N707 C708 1.351 . S
C708 C702 1.428 . S
C708 N707 1.351 . S
C708 C709 1.434 . S
C709 C700 1.429 . S
C709 N706 1.350 . S
C709 C708 1.434 . S
C710 C711 1.369 . S
C710 C712 1.419 . S
C710 H714 0.930 . S
C711 C710 1.369 . S
C711 C720 1.429 . S
C712 C710 1.419 . S
C712 C713 1.363 . S
C712 H715 0.929 . S
C713 C712 1.363 . S
C713 C719 1.428 . S
H714 C710 0.930 . S
H715 C712 0.929 . S
S716 N717 1.613 . S
S716 N718 1.610 . S
N717 S716 1.613 . S
N717 C720 1.350 . S
N718 S716 1.610 . S
N718 C719 1.351 . S
C719 C713 1.428 . S
C719 N718 1.351 . S
C719 C720 1.434 . S
C720 C711 1.429 . S
C720 N717 1.350 . S
C720 C719 1.434 . S
C721 C722 1.369 . S
C721 C723 1.419 . S
C721 H725 0.930 . S
C722 C721 1.369 . S
C722 C731 1.429 . S
C723 C721 1.419 . S
C723 C724 1.363 . S
C723 H726 0.929 . S
C724 C723 1.363 . S
C724 C730 1.428 . S
H725 C721 0.930 . S
H726 C723 0.929 . S
S727 N728 1.613 1_545 S
S727 N729 1.610 . S
N728 S727 1.613 1_565 S
N728 C731 1.350 . S
N729 S727 1.610 . S
N729 C730 1.351 1_545 S
C730 C724 1.428 . S
C730 N729 1.351 1_565 S
C730 C731 1.434 . S
C731 C722 1.429 . S
C731 N728 1.350 . S
C731 C730 1.434 . S
C732 C733 1.369 . S
C732 C734 1.419 . S
C732 H736 0.930 . S
C733 C732 1.369 . S
C733 C742 1.429 . S
C734 C732 1.419 . S
C734 C735 1.363 . S
C734 H737 0.929 . S
C735 C734 1.363 . S
C735 C741 1.428 . S
H736 C732 0.930 . S
H737 C734 0.929 . S
S738 N739 1.613 . S
S738 N740 1.610 . S
N739 S738 1.613 . S
N739 C742 1.350 . S
N740 S738 1.610 . S
N740 C741 1.351 . S
C741 C735 1.428 . S
C741 N740 1.351 . S
C741 C742 1.434 . S
C742 C733 1.429 . S
C742 N739 1.350 . S
C742 C741 1.434 . S
C743 C744 1.369 . S
C743 C745 1.419 . S
C743 H747 0.930 . S
C744 C743 1.369 . S
C744 C753 1.429 . S
C745 C743 1.419 . S
C745 C746 1.363 . S
C745 H748 0.929 . S
C746 C745 1.363 . S
C746 C752 1.428 . S
H747 C743 0.930 . S
H748 C745 0.929 . S
S749 N750 1.613 . S
S749 N751 1.610 1_556 S
N750 S749 1.613 . S
N750 C753 1.350 1_556 S
N751 S749 1.610 1_554 S
N751 C752 1.351 . S
C752 C746 1.428 . S
C752 N751 1.351 . S
C752 C753 1.434 . S
C753 C744 1.429 . S
C753 N750 1.350 1_554 S
C753 C752 1.434 . S
C754 C755 1.369 . S
C754 C756 1.419 . S
C754 H758 0.930 . S
C755 C754 1.369 . S
C755 C764 1.429 . S
C756 C754 1.419 . S
C756 C757 1.363 . S
C756 H759 0.929 . S
C757 C756 1.363 . S
C757 C763 1.428 . S
H758 C754 0.930 . S
H759 C756 0.929 . S
S760 N761 1.613 . S
S760 N762 1.610 . S
N761 S760 1.613 . S
N761 C764 1.350 . S
N762 S760 1.610 . S
N762 C763 1.351 . S
C763 C757 1.428 . S
C763 N762 1.351 . S
C763 C764 1.434 . S
C764 C755 1.429 . S
C764 N761 1.350 . S
C764 C763 1.434 . S
C765 C766 1.369 . S
C765 C767 1.419 . S
C765 H769 0.930 . S
C766 C765 1.369 . S
C766 C775 1.429 . S
C767 C765 1.419 . S
C767 C768 1.363 . S
C767 H770 0.929 . S
C768 C767 1.363 . S
C768 C774 1.428 . S
H769 C765 0.930 . S
H770 C767 0.929 . S
S771 N772 1.613 . S
S771 N773 1.610 1_545 S
N772 S771 1.613 . S
N772 C775 1.350 1_545 S
N773 S771 1.610 1_565 S
N773 C774 1.351 . S
C774 C768 1.428 . S
C774 N773 1.351 . S
C774 C775 1.434 . S
C775 C766 1.429 . S
C775 N772 1.350 1_565 S
C775 C774 1.434 . S
C776 C777 1.369 . S
C776 C778 1.419 . S
C776 H780 0.930 . S
C777 C776 1.369 . S
C777 C786 1.429 . S
C778 C776 1.419 . S
C778 C779 1.363 . S
C778 H781 0.929 . S
C779 C778 1.363 . S
C779 C785 1.428 . S
H780 C776 0.930 . S
H781 C778 0.929 . S
S782 N783 1.613 . S
S782 N784 1.610 . S
N783 S782 1.613 . S
N783 C786 1.350 . S
N784 S782 1.610 . S
N784 C785 1.351 . S
C785 C779 1.428 . S
C785 N784 1.351 . S
C785 C786 1.434 . S
C786 C777 1.429 . S
C786 N783 1.350 . S
C786 C785 1.434 . S
C787 C788 1.369 . S
C787 C789 1.419 . S
C787 H791 0.930 . S
C788 C787 1.369 . S
C788 C797 1.429 . S
C789 C787 1.419 . S
C789 C790 1.363 . S
C789 H792 0.929 . S
C790 C789 1.363 . S
C790 C796 1.428 . S
H791 C787 0.930 . S
H792 C789 0.929 . S
S793 N794 1.613 . S
S793 N795 1.610 . S
N794 S793 1.613 . S
N794 C797 1.350 . S
N795 S793 1.610 . S
N795 C796 1.351 . S
C796 C790 1.428 . S
C796 N795 1.351 . S
C796 C797 1.434 . S
C797 C788 1.429 . S
C797 N794 1.350 . S
C797 C796 1.434 . S
C798 C799 1.369 . S
C798 C800 1.419 . S
C798 H802 0.930 . S
C799 C798 1.369 . S
C799 C808 1.429 . S
C800 C798 1.419 . S
C800 C801 1.363 . S
C800 H803 0.929 . S
C801 C800 1.363 . S
C801 C807 1.428 . S
H802 C798 0.930 . S
H803 C800 0.929 . S
S804 N805 1.613 . S
S804 N806 1.610 1_655 S
N805 S804 1.613 . S
N805 C808 1.350 1_655 S
N806 S804 1.610 1_455 S
N806 C807 1.351 . S
C807 C801 1.428 . S
C807 N806 1.351 . S
C807 C808 1.434 . S
C808 C799 1.429 . S
C808 N805 1.350 1_455 S
C808 C807 1.434 . S
C809 C810 1.369 . S
C809 C811 1.419 . S
C809 H813 0.930 . S
C810 C809 1.369 . S
C810 C819 1.429 . S
C811 C809 1.419 . S
C811 C812 1.363 . S
C811 H814 0.929 . S
C812 C811 1.363 . S
C812 C818 1.428 . S
H813 C809 0.930 . S
H814 C811 0.929 . S
S815 N816 1.613 . S
S815 N817 1.610 . S
N816 S815 1.613 . S
N816 C819 1.350 . S
N817 S815 1.610 . S
N817 C818 1.351 . S
C818 C812 1.428 . S
C818 N817 1.351 . S
C818 C819 1.434 . S
C819 C810 1.429 . S
C819 N816 1.350 . S
C819 C818 1.434 . S
C820 C821 1.369 . S
C820 C822 1.419 . S
C820 H824 0.930 . S
C821 C820 1.369 . S
C821 C830 1.429 . S
C822 C820 1.419 . S
C822 C823 1.363 . S
C822 H825 0.929 . S
C823 C822 1.363 . S
C823 C829 1.428 . S
H824 C820 0.930 . S
H825 C822 0.929 . S
S826 N827 1.613 . S
S826 N828 1.610 . S
N827 S826 1.613 . S
N827 C830 1.350 . S
N828 S826 1.610 . S
N828 C829 1.351 . S
C829 C823 1.428 . S
C829 N828 1.351 . S
C829 C830 1.434 . S
C830 C821 1.429 . S
C830 N827 1.350 . S
C830 C829 1.434 . S
C831 C832 1.369 . S
C831 C833 1.419 . S
C831 H835 0.930 . S
C832 C831 1.369 . S
C832 C841 1.429 . S
C833 C831 1.419 . S
C833 C834 1.363 . S
C833 H836 0.929 . S
C834 C833 1.363 . S
C834 C840 1.428 . S
H835 C831 0.930 . S
H836 C833 0.929 . S
S837 N838 1.613 . S
S837 N839 1.610 . S
N838 S837 1.613 . S
N838 C841 1.350 . S
N839 S837 1.610 . S
N839 C840 1.351 . S
C840 C834 1.428 . S
C840 N839 1.351 . S
C840 C841 1.434 . S
C841 C832 1.429 . S
C841 N838 1.350 . S
C841 C840 1.434 . S
C842 C843 1.369 . S
C842 C844 1.419 . S
C842 H846 0.930 1_455 S
C843 C842 1.369 . S
C843 C852 1.429 . S
C844 C842 1.419 . S
C844 C845 1.363 . S
C844 H847 0.929 . S
C845 C844 1.363 . S
C845 C851 1.428 . S
H846 C842 0.930 1_655 S
H847 C844 0.929 . S
S848 N849 1.613 . S
S848 N850 1.610 . S
N849 S848 1.613 . S
N849 C852 1.350 . S
N850 S848 1.610 . S
N850 C851 1.351 . S
C851 C845 1.428 . S
C851 N850 1.351 . S
C851 C852 1.434 . S
C852 C843 1.429 . S
C852 N849 1.350 . S
C852 C851 1.434 . S
C853 C854 1.369 . S
C853 C855 1.419 . S
C853 H857 0.930 . S
C854 C853 1.369 . S
C854 C863 1.429 . S
C855 C853 1.419 . S
C855 C856 1.363 . S
C855 H858 0.929 . S
C856 C855 1.363 . S
C856 C862 1.428 . S
H857 C853 0.930 . S
H858 C855 0.929 . S
S859 N860 1.613 . S
S859 N861 1.610 1_455 S
N860 S859 1.613 . S
N860 C863 1.350 1_455 S
N861 S859 1.610 1_655 S
N861 C862 1.351 . S
C862 C856 1.428 . S
C862 N861 1.351 . S
C862 C863 1.434 . S
C863 C854 1.429 . S
C863 N860 1.350 1_655 S
C863 C862 1.434 . S
C864 C865 1.369 . S
C864 C866 1.419 . S
C864 H868 0.930 . S
C865 C864 1.369 . S
C865 C874 1.429 . S
C866 C864 1.419 . S
C866 C867 1.363 . S
C866 H869 0.929 . S
C867 C866 1.363 . S
C867 C873 1.428 . S
H868 C864 0.930 . S
H869 C866 0.929 . S
S870 N871 1.613 . S
S870 N872 1.610 . S
N871 S870 1.613 . S
N871 C874 1.350 . S
N872 S870 1.610 . S
N872 C873 1.351 . S
C873 C867 1.428 . S
C873 N872 1.351 . S
C873 C874 1.434 . S
C874 C865 1.429 . S
C874 N871 1.350 . S
C874 C873 1.434 . S
C875 C876 1.369 . S
C875 C877 1.419 . S
C875 H879 0.930 . S
C876 C875 1.369 . S
C876 C885 1.429 . S
C877 C875 1.419 . S
C877 C878 1.363 . S
C877 H880 0.929 . S
C878 C877 1.363 . S
C878 C884 1.428 . S
H879 C875 0.930 . S
H880 C877 0.929 . S
S881 N882 1.613 1_455 S
S881 N883 1.610 . S
N882 S881 1.613 1_655 S
N882 C885 1.350 1_655 S
N883 S881 1.610 . S
N883 C884 1.351 . S
C884 C878 1.428 . S
C884 N883 1.351 . S
C884 C885 1.434 . S
C885 C876 1.429 . S
C885 N882 1.350 1_455 S
C885 C884 1.434 . S
C886 C887 1.369 . S
C886 C888 1.419 . S
C886 H890 0.930 . S
C887 C886 1.369 . S
C887 C896 1.429 . S
C888 C886 1.419 . S
C888 C889 1.363 . S
C888 H891 0.929 . S
C889 C888 1.363 . S
C889 C895 1.428 . S
H890 C886 0.930 . S
H891 C888 0.929 . S
S892 N893 1.613 . S
S892 N894 1.610 . S
N893 S892 1.613 . S
N893 C896 1.350 . S
N894 S892 1.610 . S
N894 C895 1.351 . S
C895 C889 1.428 . S
C895 N894 1.351 . S
C895 C896 1.434 . S
C896 C887 1.429 . S
C896 N893 1.350 . S
C896 C895 1.434 . S
C897 C898 1.369 . S
C897 C899 1.419 . S
C897 H901 0.930 . S
C898 C897 1.369 . S
C898 C907 1.429 . S
C899 C897 1.419 . S
C899 C900 1.363 . S
C899 H902 0.929 . S
C900 C899 1.363 . S
C900 C906 1.428 . S
H901 C897 0.930 . S
H902 C899 0.929 . S
S903 N904 1.613 1_655 S
S903 N905 1.610 . S
N904 S903 1.613 1_455 S
N904 C907 1.350 1_455 S
N905 S903 1.610 . S
N905 C906 1.351 . S
C906 C900 1.428 . S
C906 N905 1.351 . S
C906 C907 1.434 . S
C907 C898 1.429 . S
C907 N904 1.350 1_655 S
C907 C906 1.434 . S
C908 C909 1.369 . S
C908 C910 1.419 . S
C908 H912 0.930 . S
C909 C908 1.369 . S
C909 C918 1.429 . S
C910 C908 1.419 . S
C910 C911 1.363 . S
C910 H913 0.929 . S
C911 C910 1.363 . S
C911 C917 1.428 . S
H912 C908 0.930 . S
H913 C910 0.929 . S
S914 N915 1.613 . S
S914 N916 1.610 . S
N915 S914 1.613 . S
N915 C918 1.350 . S
N916 S914 1.610 . S
N916 C917 1.351 . S
C917 C911 1.428 . S
C917 N916 1.351 . S
C917 C918 1.434 . S
C918 C909 1.429 . S
C918 N915 1.350 . S
C918 C917 1.434 . S
C919 C920 1.369 . S
C919 C921 1.419 . S
C919 H923 0.930 . S
C920 C919 1.369 . S
C920 C929 1.429 . S
C921 C919 1.419 . S
C921 C922 1.363 . S
C921 H924 0.929 . S
C922 C921 1.363 . S
C922 C928 1.428 . S
H923 C919 0.930 . S
H924 C921 0.929 . S
S925 N926 1.613 1_565 S
S925 N927 1.610 1_565 S
N926 S925 1.613 1_545 S
N926 C929 1.350 . S
N927 S925 1.610 1_545 S
N927 C928 1.351 . S
C928 C922 1.428 . S
C928 N927 1.351 . S
C928 C929 1.434 . S
C929 C920 1.429 . S
C929 N926 1.350 . S
C929 C928 1.434 . S
C930 C931 1.369 . S
C930 C932 1.419 . S
C930 H934 0.930 . S
C931 C930 1.369 . S
C931 C940 1.429 . S
C932 C930 1.419 . S
C932 C933 1.363 . S
C932 H935 0.929 . S
C933 C932 1.363 . S
C933 C939 1.428 . S
H934 C930 0.930 . S
H935 C932 0.929 . S
S936 N937 1.613 . S
S936 N938 1.610 . S
N937 S936 1.613 . S
N937 C940 1.350 . S
N938 S936 1.610 . S
N938 C939 1.351 . S
C939 C933 1.428 . S
C939 N938 1.351 . S
C939 C940 1.434 . S
C940 C931 1.429 . S
C940 N937 1.350 . S
C940 C939 1.434 . S
C941 C942 1.369 . S
C941 C943 1.419 . S
C941 H945 0.930 . S
C942 C941 1.369 . S
C942 C951 1.429 . S
C943 C941 1.419 . S
C943 C944 1.363 . S
C943 H946 0.929 . S
C944 C943 1.363 . S
C944 C950 1.428 . S
H945 C941 0.930 . S
H946 C943 0.929 . S
S947 N948 1.613 . S
S947 N949 1.610 . S
N948 S947 1.613 . S
N948 C951 1.350 . S
N949 S947 1.610 . S
N949 C950 1.351 . S
C950 C944 1.428 . S
C950 N949 1.351 . S
C950 C951 1.434 . S
C951 C942 1.429 . S
C951 N948 1.350 . S
C951 C950 1.434 . S
C952 C953 1.369 . S
C952 C954 1.419 . S
C952 H956 0.930 . S
C953 C952 1.369 . S
C953 C962 1.429 . S
C954 C952 1.419 . S
C954 C955 1.363 . S
C954 H957 0.929 . S
C955 C954 1.363 . S
C955 C961 1.428 . S
H956 C952 0.930 . S
H957 C954 0.929 . S
S958 N959 1.613 . S
S958 N960 1.610 . S
N959 S958 1.613 . S
N959 C962 1.350 . S
N960 S958 1.610 . S
N960 C961 1.351 . S
C961 C955 1.428 . S
C961 N960 1.351 . S
C961 C962 1.434 . S
C962 C953 1.429 . S
C962 N959 1.350 . S
C962 C961 1.434 . S
C963 C964 1.369 . S
C963 C965 1.419 . S
C963 H967 0.930 . S
C964 C963 1.369 . S
C964 C973 1.429 . S
C965 C963 1.419 . S
C965 C966 1.363 . S
C965 H968 0.929 . S
C966 C965 1.363 . S
C966 C972 1.428 . S
H967 C963 0.930 . S
H968 C965 0.929 . S
S969 N970 1.613 1_565 S
S969 N971 1.610 . S
N970 S969 1.613 1_545 S
N970 C973 1.350 . S
N971 S969 1.610 . S
N971 C972 1.351 1_565 S
C972 C966 1.428 . S
C972 N971 1.351 1_545 S
C972 C973 1.434 . S
C973 C964 1.429 . S
C973 N970 1.350 . S
C973 C972 1.434 . S
C974 C975 1.369 . S
C974 C976 1.419 . S
C974 H978 0.930 . S
C975 C974 1.369 . S
C975 C984 1.429 . S
C976 C974 1.419 . S
C976 C977 1.363 . S
C976 H979 0.929 . S
C977 C976 1.363 . S
C977 C983 1.428 . S
H978 C974 0.930 . S
H979 C976 0.929 . S
S980 N981 1.613 . S
S980 N982 1.610 . S
N981 S980 1.613 . S
N981 C984 1.350 . S
N982 S980 1.610 . S
N982 C983 1.351 . S
C983 C977 1.428 . S
C983 N982 1.351 . S
C983 C984 1.434 . S
C984 C975 1.429 . S
C984 N981 1.350 . S
C984 C983 1.434 . S
C985 C986 1.369 . S
C985 C987 1.419 . S
C985 H989 0.930 . S
C986 C985 1.369 . S
C986 C995 1.429 . S
C987 C985 1.419 . S
C987 C988 1.363 . S
C987 H990 0.929 . S
C988 C987 1.363 . S
C988 C994 1.428 . S
H989 C985 0.930 . S
H990 C987 0.929 . S
S991 N992 1.613 . S
S991 N993 1.610 . S
N992 S991 1.613 . S
N992 C995 1.350 . S
N993 S991 1.610 . S
N993 C994 1.351 . S
C994 C988 1.428 . S
C994 N993 1.351 . S
C994 C995 1.434 . S
C995 C986 1.429 . S
C995 N992 1.350 . S
C995 C994 1.434 . S
C996 C997 1.369 . S
C996 C998 1.419 . S
C996 H1000 0.930 . S
C997 C996 1.369 . S
C997 C1006 1.429 . S
C998 C996 1.419 . S
C998 C999 1.363 . S
C998 H1001 0.929 . S
C999 C998 1.363 . S
C999 C1005 1.428 . S
H1000 C996 0.930 . S
H1001 C998 0.929 . S
S1002 N1003 1.613 . S
S1002 N1004 1.610 . S
N1003 S1002 1.613 . S
N1003 C1006 1.350 . S
N1004 S1002 1.610 . S
N1004 C1005 1.351 . S
C1005 C999 1.428 . S
C1005 N1004 1.351 . S
C1005 C1006 1.434 . S
C1006 C997 1.429 . S
C1006 N1003 1.350 . S
C1006 C1005 1.434 . S
C1007 C1008 1.369 . S
C1007 C1009 1.419 . S
C1007 H1011 0.930 . S
C1008 C1007 1.369 . S
C1008 C1017 1.429 . S
C1009 C1007 1.419 . S
C1009 C1010 1.363 . S
C1009 H1012 0.929 . S
C1010 C1009 1.363 . S
C1010 C1016 1.428 . S
H1011 C1007 0.930 . S
H1012 C1009 0.929 . S
S1013 N1014 1.613 . S
S1013 N1015 1.610 . S
N1014 S1013 1.613 . S
N1014 C1017 1.350 . S
N1015 S1013 1.610 . S
N1015 C1016 1.351 . S
C1016 C1010 1.428 . S
C1016 N1015 1.351 . S
C1016 C1017 1.434 . S
C1017 C1008 1.429 . S
C1017 N1014 1.350 . S
C1017 C1016 1.434 . S
C1018 C1019 1.369 . S
C1018 C1020 1.419 . S
C1018 H1022 0.930 . S
C1019 C1018 1.369 . S
C1019 C1028 1.429 . S
C1020 C1018 1.419 . S
C1020 C1021 1.363 . S
C1020 H1023 0.929 . S
C1021 C1020 1.363 . S
C1021 C1027 1.428 . S
H1022 C1018 0.930 . S
H1023 C1020 0.929 . S
S1024 N1025 1.613 . S
S1024 N1026 1.610 . S
N1025 S1024 1.613 . S
N1025 C1028 1.350 . S
N1026 S1024 1.610 . S
N1026 C1027 1.351 . S
C1027 C1021 1.428 . S
C1027 N1026 1.351 . S
C1027 C1028 1.434 . S
C1028 C1019 1.429 . S
C1028 N1025 1.350 . S
C1028 C1027 1.434 . S
C1029 C1030 1.369 . S
C1029 C1031 1.419 . S
C1029 H1033 0.930 . S
C1030 C1029 1.369 . S
C1030 C1039 1.429 . S
C1031 C1029 1.419 . S
C1031 C1032 1.363 . S
C1031 H1034 0.929 . S
C1032 C1031 1.363 . S
C1032 C1038 1.428 . S
H1033 C1029 0.930 . S
H1034 C1031 0.929 . S
S1035 N1036 1.613 . S
S1035 N1037 1.610 . S
N1036 S1035 1.613 . S
N1036 C1039 1.350 . S
N1037 S1035 1.610 . S
N1037 C1038 1.351 . S
C1038 C1032 1.428 . S
C1038 N1037 1.351 . S
C1038 C1039 1.434 . S
C1039 C1030 1.429 . S
C1039 N1036 1.350 . S
C1039 C1038 1.434 . S
C1040 C1041 1.369 . S
C1040 C1042 1.419 . S
C1040 H1044 0.930 . S
C1041 C1040 1.369 . S
C1041 C1050 1.429 . S
C1042 C1040 1.419 . S
C1042 C1043 1.363 . S
C1042 H1045 0.929 . S
C1043 C1042 1.363 . S
C1043 C1049 1.428 . S
H1044 C1040 0.930 . S
H1045 C1042 0.929 . S
S1046 N1047 1.613 . S
S1046 N1048 1.610 . S
N1047 S1046 1.613 . S
N1047 C1050 1.350 . S
N1048 S1046 1.610 . S
N1048 C1049 1.351 . S
C1049 C1043 1.428 . S
C1049 N1048 1.351 . S
C1049 C1050 1.434 . S
C1050 C1041 1.429 . S
C1050 N1047 1.350 . S
C1050 C1049 1.434 . S
C1051 C1052 1.369 . S
C1051 C1053 1.419 . S
C1051 H1055 0.930 . S
C1052 C1051 1.369 . S
C1052 C1061 1.429 . S
C1053 C1051 1.419 . S
C1053 C1054 1.363 . S
C1053 H1056 0.929 . S
C1054 C1053 1.363 . S
C1054 C1060 1.428 . S
H1055 C1051 0.930 . S
H1056 C1053 0.929 . S
S1057 N1058 1.613 . S
S1057 N1059 1.610 . S
N1058 S1057 1.613 . S
N1058 C1061 1.350 . S
N1059 S1057 1.610 . S
N1059 C1060 1.351 . S
C1060 C1054 1.428 . S
C1060 N1059 1.351 . S
C1060 C1061 1.434 . S
C1061 C1052 1.429 . S
C1061 N1058 1.350 . S
C1061 C1060 1.434 . S
C1062 C1063 1.369 . S
C1062 C1064 1.419 . S
C1062 H1066 0.930 . S
C1063 C1062 1.369 . S
C1063 C1072 1.429 . S
C1064 C1062 1.419 . S
C1064 C1065 1.363 . S
C1064 H1067 0.929 . S
C1065 C1064 1.363 . S
C1065 C1071 1.428 . S
H1066 C1062 0.930 . S
H1067 C1064 0.929 . S
S1068 N1069 1.613 . S
S1068 N1070 1.610 1_545 S
N1069 S1068 1.613 . S
N1069 C1072 1.350 1_545 S
N1070 S1068 1.610 1_565 S
N1070 C1071 1.351 . S
C1071 C1065 1.428 . S
C1071 N1070 1.351 . S
C1071 C1072 1.434 . S
C1072 C1063 1.429 . S
C1072 N1069 1.350 1_565 S
C1072 C1071 1.434 . S
C1073 C1074 1.369 . S
C1073 C1075 1.419 . S
C1073 H1077 0.930 . S
C1074 C1073 1.369 . S
C1074 C1083 1.429 . S
C1075 C1073 1.419 . S
C1075 C1076 1.363 . S
C1075 H1078 0.929 . S
C1076 C1075 1.363 . S
C1076 C1082 1.428 . S
H1077 C1073 0.930 . S
H1078 C1075 0.929 . S
S1079 N1080 1.613 . S
S1079 N1081 1.610 . S
N1080 S1079 1.613 . S
N1080 C1083 1.350 . S
N1081 S1079 1.610 . S
N1081 C1082 1.351 . S
C1082 C1076 1.428 . S
C1082 N1081 1.351 . S
C1082 C1083 1.434 . S
C1083 C1074 1.429 . S
C1083 N1080 1.350 . S
C1083 C1082 1.434 . S
C1084 C1085 1.369 . S
C1084 C1086 1.419 . S
C1084 H1088 0.930 . S
C1085 C1084 1.369 . S
C1085 C1094 1.429 . S
C1086 C1084 1.419 . S
C1086 C1087 1.363 . S
C1086 H1089 0.929 1_655 S
C1087 C1086 1.363 . S
C1087 C1093 1.428 . S
H1088 C1084 0.930 . S
H1089 C1086 0.929 1_455 S
S1090 N1091 1.613 1_565 S
S1090 N1092 1.610 . S
N1091 S1090 1.613 1_545 S
N1091 C1094 1.350 . S
N1092 S1090 1.610 . S
N1092 C1093 1.351 1_565 S
C1093 C1087 1.428 . S
C1093 N1092 1.351 1_545 S
C1093 C1094 1.434 . S
C1094 C1085 1.429 . S
C1094 N1091 1.350 . S
C1094 C1093 1.434 . S
C1095 C1096 1.369 . S
C1095 C1097 1.419 . S
C1095 H1099 0.930 . S
C1096 C1095 1.369 . S
C1096 C1105 1.429 . S
C1097 C1095 1.419 . S
C1097 C1098 1.363 . S
C1097 H1100 0.929 . S
C1098 C1097 1.363 . S
C1098 C1104 1.428 . S
H1099 C1095 0.930 . S
H1100 C1097 0.929 . S
S1101 N1102 1.613 . S
S1101 N1103 1.610 . S
N1102 S1101 1.613 . S
N1102 C1105 1.350 . S
N1103 S1101 1.610 . S
N1103 C1104 1.351 . S
C1104 C1098 1.428 . S
C1104 N1103 1.351 . S
C1104 C1105 1.434 . S
C1105 C1096 1.429 . S
C1105 N1102 1.350 . S
C1105 C1104 1.434 . S
C1106 C1107 1.369 . S
C1106 C1108 1.419 . S
C1106 H1110 0.930 . S
C1107 C1106 1.369 . S
C1107 C1116 1.429 . S
C1108 C1106 1.419 . S
C1108 C1109 1.363 . S
C1108 H1111 0.929 . S
C1109 C1108 1.363 . S
C1109 C1115 1.428 . S
H1110 C1106 0.930 . S
H1111 C1108 0.929 . S
S1112 N1113 1.638 . S
S1112 N1114 1.606 1_545 S
N1113 S1112 1.638 . S
N1113 C1116 1.350 . S
N1114 S1112 1.606 1_565 S
N1114 C1115 1.351 1_565 S
C1115 C1109 1.428 . S
C1115 N1114 1.351 1_545 S
C1115 C1116 1.434 . S
C1116 C1107 1.429 . S
C1116 N1113 1.350 . S
C1116 C1115 1.434 . S
C1117 C1118 1.369 . S
C1117 C1119 1.419 . S
C1117 H1121 0.930 . S
C1118 C1117 1.369 . S
C1118 C1127 1.429 . S
C1119 C1117 1.419 . S
C1119 C1120 1.363 . S
C1119 H1122 0.929 . S
C1120 C1119 1.363 . S
C1120 C1126 1.428 . S
H1121 C1117 0.930 . S
H1122 C1119 0.929 . S
S1123 N1124 1.613 . S
S1123 N1125 1.610 . S
N1124 S1123 1.613 . S
N1124 C1127 1.350 . S
N1125 S1123 1.610 . S
N1125 C1126 1.351 . S
C1126 C1120 1.428 . S
C1126 N1125 1.351 . S
C1126 C1127 1.434 . S
C1127 C1118 1.429 . S
C1127 N1124 1.350 . S
C1127 C1126 1.434 . S
C1128 C1129 1.369 . S
C1128 C1130 1.419 . S
C1128 H1132 0.930 . S
C1129 C1128 1.369 . S
C1129 C1138 1.429 . S
C1130 C1128 1.419 . S
C1130 C1131 1.363 . S
C1130 H1133 0.929 . S
C1131 C1130 1.363 . S
C1131 C1137 1.428 . S
H1132 C1128 0.930 . S
H1133 C1130 0.929 . S
S1134 N1135 1.613 . S
S1134 N1136 1.610 . S
N1135 S1134 1.613 . S
N1135 C1138 1.350 1_455 S
N1136 S1134 1.610 . S
N1136 C1137 1.351 1_455 S
C1137 C1131 1.428 . S
C1137 N1136 1.351 1_655 S
C1137 C1138 1.434 . S
C1138 C1129 1.429 . S
C1138 N1135 1.350 1_655 S
C1138 C1137 1.434 . S
C1139 C1140 1.369 1_556 S
C1139 C1141 1.419 . S
C1139 H1143 0.930 . S
C1140 C1139 1.369 1_554 S
C1140 C1149 1.429 . S
C1141 C1139 1.419 . S
C1141 C1142 1.363 . S
C1141 H1144 0.929 . S
C1142 C1141 1.363 . S
C1142 C1148 1.428 1_556 S
H1143 C1139 0.930 . S
H1144 C1141 0.929 . S
S1145 N1146 1.613 . S
S1145 N1147 1.610 . S
N1146 S1145 1.613 . S
N1146 C1149 1.350 . S
N1147 S1145 1.610 . S
N1147 C1148 1.351 . S
C1148 C1142 1.428 1_554 S
C1148 N1147 1.351 . S
C1148 C1149 1.434 . S
C1149 C1140 1.429 . S
C1149 N1146 1.350 . S
C1149 C1148 1.434 . S
C1150 C1151 1.369 . S
C1150 C1152 1.419 1_545 S
C1150 H1154 0.930 . S
C1151 C1150 1.369 . S
C1151 C1160 1.429 . S
C1152 C1150 1.419 1_565 S
C1152 C1153 1.363 . S
C1152 H1155 0.929 . S
C1153 C1152 1.363 . S
C1153 C1159 1.428 . S
H1154 C1150 0.930 . S
H1155 C1152 0.929 . S
S1156 N1157 1.613 . S
S1156 N1158 1.610 1_545 S
N1157 S1156 1.613 . S
N1157 C1160 1.350 . S
N1158 S1156 1.610 1_565 S
N1158 C1159 1.351 . S
C1159 C1153 1.428 . S
C1159 N1158 1.351 . S
C1159 C1160 1.434 1_565 S
C1160 C1151 1.429 . S
C1160 N1157 1.350 . S
C1160 C1159 1.434 1_545 S
C1161 C1162 1.369 . S
C1161 C1163 1.419 . S
C1161 H1165 0.930 . S
C1162 C1161 1.369 . S
C1162 C1171 1.429 1_554 S
C1163 C1161 1.419 . S
C1163 C1164 1.363 1_554 S
C1163 H1166 0.929 . S
C1164 C1163 1.363 1_556 S
C1164 C1170 1.428 . S
H1165 C1161 0.930 . S
H1166 C1163 0.929 . S
S1167 N1168 1.613 . S
S1167 N1169 1.610 . S
N1168 S1167 1.613 . S
N1168 C1171 1.350 . S
N1169 S1167 1.610 . S
N1169 C1170 1.351 . S
C1170 C1164 1.428 . S
C1170 N1169 1.351 . S
C1170 C1171 1.434 . S
C1171 C1162 1.429 1_556 S
C1171 N1168 1.350 . S
C1171 C1170 1.434 . S
C1172 C1173 1.369 1_545 S
C1172 C1174 1.419 . S
C1172 H1176 0.930 . S
C1173 C1172 1.369 1_565 S
C1173 C1182 1.429 . S
C1174 C1172 1.419 . S
C1174 C1175 1.363 1_545 S
C1174 H1177 0.929 . S
C1175 C1174 1.363 1_565 S
C1175 C1181 1.428 . S
H1176 C1172 0.930 . S
H1177 C1174 0.929 . S
S1178 N1179 1.613 . S
S1178 N1180 1.610 . S
N1179 S1178 1.613 . S
N1179 C1182 1.350 . S
N1180 S1178 1.610 . S
N1180 C1181 1.351 . S
C1181 C1175 1.428 . S
C1181 N1180 1.351 . S
C1181 C1182 1.434 . S
C1182 C1173 1.429 . S
C1182 N1179 1.350 . S
C1182 C1181 1.434 . S
C1183 C1184 1.369 . S
C1183 C1185 1.419 . S
C1183 H1187 0.930 . S
C1184 C1183 1.369 . S
C1184 C1193 1.429 . S
C1185 C1183 1.419 . S
C1185 C1186 1.363 . S
C1185 H1188 0.929 . S
C1186 C1185 1.363 . S
C1186 C1192 1.428 . S
H1187 C1183 0.930 . S
H1188 C1185 0.929 . S
S1189 N1190 1.613 . S
S1189 N1191 1.610 . S
N1190 S1189 1.613 . S
N1190 C1193 1.350 . S
N1191 S1189 1.610 . S
N1191 C1192 1.351 . S
C1192 C1186 1.428 . S
C1192 N1191 1.351 . S
C1192 C1193 1.434 . S
C1193 C1184 1.429 . S
C1193 N1190 1.350 . S
C1193 C1192 1.434 . S
C1194 C1195 1.369 . S
C1194 C1196 1.419 . S
C1194 H1198 0.930 . S
C1195 C1194 1.369 . S
C1195 C1204 1.429 . S
C1196 C1194 1.419 . S
C1196 C1197 1.363 . S
C1196 H1199 0.929 . S
C1197 C1196 1.363 . S
C1197 C1203 1.428 . S
H1198 C1194 0.930 . S
H1199 C1196 0.929 . S
S1200 N1201 1.613 . S
S1200 N1202 1.610 . S
N1201 S1200 1.613 . S
N1201 C1204 1.350 . S
N1202 S1200 1.610 . S
N1202 C1203 1.351 . S
C1203 C1197 1.428 . S
C1203 N1202 1.351 . S
C1203 C1204 1.434 . S
C1204 C1195 1.429 . S
C1204 N1201 1.350 . S
C1204 C1203 1.434 . S
C1205 C1206 1.369 1_545 S
C1205 C1207 1.419 . S
C1205 H1209 0.930 . S
C1206 C1205 1.369 1_565 S
C1206 C1215 1.429 . S
C1207 C1205 1.419 . S
C1207 C1208 1.363 . S
C1207 H1210 0.929 . S
C1208 C1207 1.363 . S
C1208 C1214 1.428 1_545 S
H1209 C1205 0.930 . S
H1210 C1207 0.929 . S
S1211 N1212 1.613 . S
S1211 N1213 1.610 . S
N1212 S1211 1.613 . S
N1212 C1215 1.350 . S
N1213 S1211 1.610 . S
N1213 C1214 1.351 . S
C1214 C1208 1.428 1_565 S
C1214 N1213 1.351 . S
C1214 C1215 1.434 . S
C1215 C1206 1.429 . S
C1215 N1212 1.350 . S
C1215 C1214 1.434 . S
C1216 C1217 1.369 . S
C1216 C1218 1.419 1_554 S
C1216 H1220 0.930 . S
C1217 C1216 1.369 . S
C1217 C1226 1.429 1_545 S
C1218 C1216 1.419 1_556 S
C1218 C1219 1.363 . S
C1218 H1221 0.929 . S
C1219 C1218 1.363 . S
C1219 C1225 1.428 1_545 S
H1220 C1216 0.930 . S
H1221 C1218 0.929 . S
S1222 N1223 1.613 1_556 S
S1222 N1224 1.610 . S
N1223 S1222 1.613 1_554 S
N1223 C1226 1.350 . S
N1224 S1222 1.610 . S
N1224 C1225 1.351 . S
C1225 C1219 1.428 1_565 S
C1225 N1224 1.351 . S
C1225 C1226 1.434 1_556 S
C1226 C1217 1.429 1_565 S
C1226 N1223 1.350 . S
C1226 C1225 1.434 1_554 S
C1227 C1228 1.369 . S
C1227 C1229 1.419 . S
C1227 H1231 0.930 . S
C1228 C1227 1.369 . S
C1228 C1237 1.429 . S
C1229 C1227 1.419 . S
C1229 C1230 1.363 . S
C1229 H1232 0.929 . S
C1230 C1229 1.363 . S
C1230 C1236 1.428 . S
H1231 C1227 0.930 . S
H1232 C1229 0.929 . S
S1233 N1234 1.613 . S
S1233 N1235 1.610 . S
N1234 S1233 1.613 . S
N1234 C1237 1.350 . S
N1235 S1233 1.610 . S
N1235 C1236 1.351 . S
C1236 C1230 1.428 . S
C1236 N1235 1.351 . S
C1236 C1237 1.434 . S
C1237 C1228 1.429 . S
C1237 N1234 1.350 . S
C1237 C1236 1.434 . S
C1238 C1239 1.369 . S
C1238 C1240 1.419 1_554 S
C1238 H1242 0.930 . S
C1239 C1238 1.369 . S
C1239 C1248 1.429 . S
C1240 C1238 1.419 1_556 S
C1240 C1241 1.363 . S
C1240 H1243 0.929 . S
C1241 C1240 1.363 . S
C1241 C1247 1.428 . S
H1242 C1238 0.930 . S
H1243 C1240 0.929 . S
S1244 N1245 1.613 . S
S1244 N1246 1.610 1_554 S
N1245 S1244 1.613 . S
N1245 C1248 1.350 . S
N1246 S1244 1.610 1_556 S
N1246 C1247 1.351 . S
C1247 C1241 1.428 . S
C1247 N1246 1.351 . S
C1247 C1248 1.434 1_556 S
C1248 C1239 1.429 . S
C1248 N1245 1.350 . S
C1248 C1247 1.434 1_554 S
C1249 C1250 1.369 1_545 S
C1249 C1251 1.419 . S
C1249 H1253 0.930 . S
C1250 C1249 1.369 1_565 S
C1250 C1259 1.429 . S
C1251 C1249 1.419 . S
C1251 C1252 1.363 . S
C1251 H1254 0.929 . S
C1252 C1251 1.363 . S
C1252 C1258 1.428 1_545 S
H1253 C1249 0.930 . S
H1254 C1251 0.929 . S
S1255 N1256 1.613 . S
S1255 N1257 1.610 . S
N1256 S1255 1.613 . S
N1256 C1259 1.350 . S
N1257 S1255 1.610 . S
N1257 C1258 1.351 . S
C1258 C1252 1.428 1_565 S
C1258 N1257 1.351 . S
C1258 C1259 1.434 . S
C1259 C1250 1.429 . S
C1259 N1256 1.350 . S
C1259 C1258 1.434 . S
C1260 C1261 1.369 . S
C1260 C1262 1.419 . S
C1260 H1264 0.930 . S
C1261 C1260 1.369 . S
C1261 C1270 1.429 . S
C1262 C1260 1.419 . S
C1262 C1263 1.363 . S
C1262 H1265 0.929 . S
C1263 C1262 1.363 . S
C1263 C1269 1.428 . S
H1264 C1260 0.930 . S
H1265 C1262 0.929 . S
S1266 N1267 1.613 . S
S1266 N1268 1.610 . S
N1267 S1266 1.613 . S
N1267 C1270 1.350 . S
N1268 S1266 1.610 . S
N1268 C1269 1.351 . S
C1269 C1263 1.428 . S
C1269 N1268 1.351 . S
C1269 C1270 1.434 . S
C1270 C1261 1.429 . S
C1270 N1267 1.350 . S
C1270 C1269 1.434 . S
C1271 C1272 1.369 . S
C1271 C1273 1.419 . S
C1271 H1275 0.930 . S
C1272 C1271 1.369 . S
C1272 C1281 1.429 . S
C1273 C1271 1.419 . S
C1273 C1274 1.363 . S
C1273 H1276 0.929 . S
C1274 C1273 1.363 . S
C1274 C1280 1.428 . S
H1275 C1271 0.930 . S
H1276 C1273 0.929 . S
S1277 N1278 1.613 . S
S1277 N1279 1.610 . S
N1278 S1277 1.613 . S
N1278 C1281 1.350 . S
N1279 S1277 1.610 . S
N1279 C1280 1.351 . S
C1280 C1274 1.428 . S
C1280 N1279 1.351 . S
C1280 C1281 1.434 . S
C1281 C1272 1.429 . S
C1281 N1278 1.350 . S
C1281 C1280 1.434 . S
C1282 C1283 1.369 1_655 S
C1282 C1284 1.419 . S
C1282 H1286 0.930 . S
C1283 C1282 1.369 1_455 S
C1283 C1292 1.429 . S
C1284 C1282 1.419 . S
C1284 C1285 1.363 . S
C1284 H1287 0.929 . S
C1285 C1284 1.363 . S
C1285 C1291 1.428 1_655 S
H1286 C1282 0.930 . S
H1287 C1284 0.929 . S
S1288 N1289 1.613 . S
S1288 N1290 1.610 . S
N1289 S1288 1.613 . S
N1289 C1292 1.350 . S
N1290 S1288 1.610 . S
N1290 C1291 1.351 . S
C1291 C1285 1.428 1_455 S
C1291 N1290 1.351 . S
C1291 C1292 1.434 . S
C1292 C1283 1.429 . S
C1292 N1289 1.350 . S
C1292 C1291 1.434 . S
C1293 C1294 1.369 . S
C1293 C1295 1.419 . S
C1293 H1297 0.930 . S
C1294 C1293 1.369 . S
C1294 C1303 1.429 . S
C1295 C1293 1.419 . S
C1295 C1296 1.363 . S
C1295 H1298 0.929 . S
C1296 C1295 1.363 . S
C1296 C1302 1.428 . S
H1297 C1293 0.930 . S
H1298 C1295 0.929 . S
S1299 N1300 1.613 . S
S1299 N1301 1.610 . S
N1300 S1299 1.613 . S
N1300 C1303 1.350 . S
N1301 S1299 1.610 . S
N1301 C1302 1.351 . S
C1302 C1296 1.428 . S
C1302 N1301 1.351 . S
C1302 C1303 1.434 . S
C1303 C1294 1.429 . S
C1303 N1300 1.350 . S
C1303 C1302 1.434 . S
C1304 C1305 1.369 . S
C1304 C1306 1.419 1_655 S
C1304 H1308 0.930 . S
C1305 C1304 1.369 . S
C1305 C1314 1.429 . S
C1306 C1304 1.419 1_455 S
C1306 C1307 1.363 . S
C1306 H1309 0.929 . S
C1307 C1306 1.363 . S
C1307 C1313 1.428 . S
H1308 C1304 0.930 . S
H1309 C1306 0.929 . S
S1310 N1311 1.613 1_455 S
S1310 N1312 1.610 . S
N1311 S1310 1.613 1_655 S
N1311 C1314 1.350 . S
N1312 S1310 1.610 . S
N1312 C1313 1.351 . S
C1313 C1307 1.428 . S
C1313 N1312 1.351 . S
C1313 C1314 1.434 1_455 S
C1314 C1305 1.429 . S
C1314 N1311 1.350 . S
C1314 C1313 1.434 1_655 S
C1315 C1316 1.369 1_455 S
C1315 C1317 1.419 . S
C1315 H1319 0.930 . S
C1316 C1315 1.369 1_655 S
C1316 C1325 1.429 . S
C1317 C1315 1.419 . S
C1317 C1318 1.363 . S
C1317 H1320 0.929 . S
C1318 C1317 1.363 . S
C1318 C1324 1.428 1_455 S
H1319 C1315 0.930 . S
H1320 C1317 0.929 . S
S1321 N1322 1.613 . S
S1321 N1323 1.610 . S
N1322 S1321 1.613 . S
N1322 C1325 1.350 . S
N1323 S1321 1.610 . S
N1323 C1324 1.351 . S
C1324 C1318 1.428 1_655 S
C1324 N1323 1.351 . S
C1324 C1325 1.434 . S
C1325 C1316 1.429 . S
C1325 N1322 1.350 . S
C1325 C1324 1.434 . S
C1326 C1327 1.369 . S
C1326 C1328 1.419 1_545 S
C1326 H1330 0.930 . S
C1327 C1326 1.369 . S
C1327 C1336 1.429 . S
C1328 C1326 1.419 1_565 S
C1328 C1329 1.363 . S
C1328 H1331 0.929 . S
C1329 C1328 1.363 . S
C1329 C1335 1.428 . S
H1330 C1326 0.930 . S
H1331 C1328 0.929 . S
S1332 N1333 1.613 1_565 S
S1332 N1334 1.610 . S
N1333 S1332 1.613 1_545 S
N1333 C1336 1.350 . S
N1334 S1332 1.610 . S
N1334 C1335 1.351 . S
C1335 C1329 1.428 . S
C1335 N1334 1.351 . S
C1335 C1336 1.434 1_565 S
C1336 C1327 1.429 . S
C1336 N1333 1.350 . S
C1336 C1335 1.434 1_545 S
C1337 C1338 1.369 . S
C1337 C1339 1.419 . S
C1337 H1341 0.930 . S
C1338 C1337 1.369 . S
C1338 C1347 1.429 . S
C1339 C1337 1.419 . S
C1339 C1340 1.363 . S
C1339 H1342 0.929 . S
C1340 C1339 1.363 . S
C1340 C1346 1.428 . S
H1341 C1337 0.930 . S
H1342 C1339 0.929 . S
S1343 N1344 1.613 . S
S1343 N1345 1.610 . S
N1344 S1343 1.613 . S
N1344 C1347 1.350 . S
N1345 S1343 1.610 . S
N1345 C1346 1.351 . S
C1346 C1340 1.428 . S
C1346 N1345 1.351 . S
C1346 C1347 1.434 . S
C1347 C1338 1.429 . S
C1347 N1344 1.350 . S
C1347 C1346 1.434 . S
C1348 C1349 1.369 . S
C1348 C1350 1.419 . S
C1348 H1352 0.930 . S
C1349 C1348 1.369 . S
C1349 C1358 1.429 . S
C1350 C1348 1.419 . S
C1350 C1351 1.363 . S
C1350 H1353 0.929 . S
C1351 C1350 1.363 . S
C1351 C1357 1.428 . S
H1352 C1348 0.930 . S
H1353 C1350 0.929 . S
S1354 N1355 1.613 . S
S1354 N1356 1.610 . S
N1355 S1354 1.613 . S
N1355 C1358 1.350 . S
N1356 S1354 1.610 . S
N1356 C1357 1.351 . S
C1357 C1351 1.428 . S
C1357 N1356 1.351 . S
C1357 C1358 1.434 . S
C1358 C1349 1.429 . S
C1358 N1355 1.350 . S
C1358 C1357 1.434 . S
C1359 C1360 1.369 . S
C1359 C1361 1.419 . S
C1359 H1363 0.930 . S
C1360 C1359 1.369 . S
C1360 C1369 1.429 . S
C1361 C1359 1.419 . S
C1361 C1362 1.363 . S
C1361 H1364 0.929 . S
C1362 C1361 1.363 . S
C1362 C1368 1.428 . S
H1363 C1359 0.930 . S
H1364 C1361 0.929 . S
S1365 N1366 1.613 . S
S1365 N1367 1.610 . S
N1366 S1365 1.613 . S
N1366 C1369 1.350 . S
N1367 S1365 1.610 . S
N1367 C1368 1.351 . S
C1368 C1362 1.428 . S
C1368 N1367 1.351 . S
C1368 C1369 1.434 . S
C1369 C1360 1.429 . S
C1369 N1366 1.350 . S
C1369 C1368 1.434 . S
C1370 C1371 1.369 . S
C1370 C1372 1.419 1_455 S
C1370 H1374 0.930 . S
C1371 C1370 1.369 . S
C1371 C1380 1.429 1_554 S
C1372 C1370 1.419 1_655 S
C1372 C1373 1.363 . S
C1372 H1375 0.929 . S
C1373 C1372 1.363 . S
C1373 C1379 1.428 1_554 S
H1374 C1370 0.930 . S
H1375 C1372 0.929 . S
S1376 N1377 1.613 1_655 S
S1376 N1378 1.610 . S
N1377 S1376 1.613 1_455 S
N1377 C1380 1.350 . S
N1378 S1376 1.610 . S
N1378 C1379 1.351 . S
C1379 C1373 1.428 1_556 S
C1379 N1378 1.351 . S
C1379 C1380 1.434 1_655 S
C1380 C1371 1.429 1_556 S
C1380 N1377 1.350 . S
C1380 C1379 1.434 1_455 S
C1381 C1382 1.369 . S
C1381 C1383 1.419 . S
C1381 H1385 0.930 . S
C1382 C1381 1.369 . S
C1382 C1391 1.429 . S
C1383 C1381 1.419 . S
C1383 C1384 1.363 . S
C1383 H1386 0.929 . S
C1384 C1383 1.363 . S
C1384 C1390 1.428 . S
H1385 C1381 0.930 . S
H1386 C1383 0.929 . S
S1387 N1388 1.613 . S
S1387 N1389 1.610 . S
N1388 S1387 1.613 . S
N1388 C1391 1.350 . S
N1389 S1387 1.610 . S
N1389 C1390 1.351 . S
C1390 C1384 1.428 . S
C1390 N1389 1.351 . S
C1390 C1391 1.434 . S
C1391 C1382 1.429 . S
C1391 N1388 1.350 . S
C1391 C1390 1.434 . S
C601 C207 1.156 . S
C603 C2 1.169 . S
C612 C255 1.151 . S
C614 C59 1.177 1_554 S
C623 C0 1.165 . S
C625 C303 1.164 . S
C634 C152 1.156 . S
C636 C58 1.177 1_554 S
C645 C350 1.168 . S
C647 C110 1.164 . S
C656 C104 1.180 1_556 S
C658 C401 1.154 . S
C667 C108 1.168 . S
C669 C454 1.164 . S
C678 C505 1.158 . S
C680 C105 1.170 1_556 S
C689 C4 1.168 . S
C691 C158 1.162 . S
C700 C55 1.155 . S
C702 C209 1.178 . S
C711 C252 1.175 . S
C713 C7 1.158 . S
C722 C56 1.167 . S
C724 C305 1.169 1_565 S
C733 C100 1.152 . S
C735 C160 1.176 . S
C744 C208 1.175 . S
C746 C102 1.152 . S
C755 C250 1.176 . S
C757 C103 1.157 . S
C766 C304 1.172 1_565 S
C768 C101 1.162 . S
C777 C200 1.176 . S
C779 C153 1.153 . S
C788 C360 1.180 . S
C790 C150 1.155 . S
C799 C405 1.176 1_455 S
C801 C206 1.159 . S
C810 C257 1.168 . S
C812 C452 1.165 . S
C821 C352 1.167 . S
C823 C258 1.165 . S
C832 C504 1.151 . S
C834 C358 1.179 . S
C843 C404 1.179 1_455 S
C845 C351 1.152 . S
C854 C502 1.174 1_655 S
C856 C455 1.160 . S
C865 C457 1.167 . S
C867 C52 1.167 . S
C876 C9 1.170 . S
C878 C506 1.156 . S
C887 C50 1.179 . S
C889 C353 1.153 . S
C898 C8 1.179 . S
C900 C402 1.154 . S
C909 C300 1.162 . S
C911 C560 1.171 . S
C920 C554 1.180 . S
C922 C151 1.152 . S
C931 C204 1.150 . S
C933 C558 1.180 . S
C942 C256 1.167 . S
C944 C555 1.167 . S
C953 C408 1.176 . S
C955 C54 1.157 . S
C964 C5 1.168 . S
C966 C459 1.167 1_545 S
C975 C509 1.176 . S
C977 C57 1.159 . S
C986 C355 1.175 . S
C988 C6 1.153 . S
C997 C550 1.160 . S
C999 C410 1.172 . S
C1008 C552 1.157 . S
C1010 C458 1.175 1_545 S
C1019 C508 1.168 . S
C1021 C553 1.160 . S
C1030 C354 1.172 . S
C1032 C551 1.157 . S
C1041 C450 1.180 . S
C1043 C403 1.153 . S
C1052 C310 1.180 . S
C1054 C400 1.154 . S
C1063 C155 1.175 . S
C1065 C456 1.155 . S
C1074 C507 1.151 . S
C1076 C202 1.176 . S
C1085 C302 1.151 . S
C1087 C500 1.177 1_655 S
C1096 C254 1.163 . S
C1098 C308 1.167 . S
C1107 C301 1.150 . S
C1109 C154 1.175 . S
C1118 C259 1.179 . S
C1120 C205 1.151 . S
C1129 C106 2.670 . S
C1131 C10 2.665 . S
C1140 C53 2.669 1_554 S
C1142 C109 2.670 1_556 S
C1151 C11 2.664 . S
C1153 C107 2.671 . S
C1162 C51 2.665 1_554 S
C1164 C111 2.666 1_556 S
C1173 C157 2.668 . S
C1175 C503 2.669 . S
C1184 C203 2.670 . S
C1186 C359 2.669 . S
C1195 C406 2.670 . S
C1197 C260 2.665 . S
C1206 C311 2.671 1_565 S
C1208 C451 2.668 1_545 S
C1217 C156 2.668 . S
C1219 C501 2.666 . S
C1228 C361 2.670 . S
C1230 C201 2.663 . S
C1239 C261 2.665 . S
C1241 C407 2.671 . S
C1250 C309 2.669 1_565 S
C1252 C453 2.664 1_545 S
C1261 C307 2.671 . S
C1263 C211 2.665 . S
C1272 C460 2.665 . S
C1274 C356 2.670 . S
C1283 C411 2.670 1_455 S
C1285 C510 2.664 1_655 S
C1294 C251 2.669 . S
C1296 C161 2.671 . S
C1305 C461 2.671 . S
C1307 C357 2.665 . S
C1316 C511 2.670 1_655 S
C1318 C409 2.668 1_455 S
C1327 C556 2.671 . S
C1329 C60 2.665 . S
C1338 C3 2.671 . S
C1340 C559 2.662 . S
C1349 C61 2.671 . S
C1351 C557 2.666 . S
C1360 C561 2.667 . S
C1362 C1 2.672 . S
C1371 C210 2.669 . S
C1373 C306 2.666 . S
C1382 C159 2.670 . S
C1384 C253 2.663 . S
