# Generated by pormake.
# Topology oof, (8)-cn, num edge types: 1
# Building blocks:
#     Node 0, Type 0, BuildingBlock: AJUNOK_clean_sbu_0, # of connection points: 8
#     Node 1, Type 0, BuildingBlock: AJUNOK_clean_sbu_0, # of connection points: 8
#     Node 2, Type 0, BuildingBlock: AJUNOK_clean_sbu_0, # of connection points: 8
#     Node 3, Type 0, BuildingBlock: AJUNOK_clean_sbu_0, # of connection points: 8
#     Edge 4, Type (0, 0), BuildingBlock: XUDNAN_clean_linker_2, # of connection points: 2
#     Edge 5, Type (0, 0), BuildingBlock: XUDNAN_clean_linker_2, # of connection points: 2
#     Edge 6, Type (0, 0), BuildingBlock: XUDNAN_clean_linker_2, # of connection points: 2
#     Edge 7, Type (0, 0), BuildingBlock: XUDNAN_clean_linker_2, # of connection points: 2
#     Edge 8, Type (0, 0), BuildingBlock: XUDNAN_clean_linker_2, # of connection points: 2
#     Edge 9, Type (0, 0), BuildingBlock: XUDNAN_clean_linker_2, # of connection points: 2
#     Edge 10, Type (0, 0), BuildingBlock: XUDNAN_clean_linker_2, # of connection points: 2
#     Edge 11, Type (0, 0), BuildingBlock: XUDNAN_clean_linker_2, # of connection points: 2
#     Edge 12, Type (0, 0), BuildingBlock: XUDNAN_clean_linker_2, # of connection points: 2
#     Edge 13, Type (0, 0), BuildingBlock: XUDNAN_clean_linker_2, # of connection points: 2
#     Edge 14, Type (0, 0), BuildingBlock: XUDNAN_clean_linker_2, # of connection points: 2
#     Edge 15, Type (0, 0), BuildingBlock: XUDNAN_clean_linker_2, # of connection points: 2
#     Edge 16, Type (0, 0), BuildingBlock: XUDNAN_clean_linker_2, # of connection points: 2
#     Edge 17, Type (0, 0), BuildingBlock: XUDNAN_clean_linker_2, # of connection points: 2
#     Edge 18, Type (0, 0), BuildingBlock: XUDNAN_clean_linker_2, # of connection points: 2
#     Edge 19, Type (0, 0), BuildingBlock: XUDNAN_clean_linker_2, # of connection points: 2
# Relax obj value: 0.066
# Max RMSD: 0.160
# Mean RMSD: 0.159
data_MOF--net-oof--node1-AJUNOK_clean_sbu_0--edge1-XUDNAN_clean_linker_2
_symmetry_space_group_name_H-M    P1
_symmetry_Int_Tables_number       1
_symmetry_cell_setting            triclinic
loop_
_symmetry_equiv_pos_as_xyz
'x, y, z'
_cell_length_a     13.878787
_cell_length_b     64.842635
_cell_length_c     20.978896
_cell_angle_alpha  102.33595
_cell_angle_beta   92.645134
_cell_angle_gamma 82.833423
loop_
_atom_site_label
_atom_site_type_symbol
_atom_site_fract_x
_atom_site_fract_y
_atom_site_fract_z
_atom_type_partial_charge
Cd0 Cd 0.86925 0.09219 0.19339 0.0
Cd1 Cd 0.93459 0.16443 0.34746 0.0
C2 C 0.85509 0.12098 0.08988 0.0
N3 N 0.79636 0.10931 0.11379 0.0
C4 C 0.68567 0.11001 0.02339 0.0
C5 C 0.74867 0.12075 0.99483 0.0
C6 C 0.83265 0.12689 0.0303 0.0
C7 C 0.7117 0.10416 0.08288 0.0
H8 H 0.92337 0.12424 0.11467 0.0
H9 H 0.66787 0.09429 0.10198 0.0
C10 C 0.74744 0.13773 0.30691 0.0
C11 C 0.84955 0.17239 0.49331 0.0
C12 C 0.81947 0.16733 0.55023 0.0
C13 C 0.83247 0.14608 0.55736 0.0
C14 C 0.87681 0.13044 0.50681 0.0
C15 C 0.90619 0.13622 0.45098 0.0
N16 N 0.89192 0.15686 0.44527 0.0
H17 H 0.83787 0.18864 0.48696 0.0
H18 H 0.93936 0.1242 0.41164 0.0
C19 C 0.78382 0.19325 0.26455 0.0
N20 N 0.87896 0.18707 0.27716 0.0
C21 C 0.92967 0.20993 0.21303 0.0
C22 C 0.83241 0.21705 0.20041 0.0
C23 C 0.75877 0.20822 0.22551 0.0
C24 C 0.95132 0.19484 0.2515 0.0
H25 H 0.7273 0.187 0.28582 0.0
H26 H 0.02624 0.18961 0.26216 0.0
C27 C 0.06246 0.11567 0.26105 0.0
C28 C 0.96527 0.06078 0.09586 0.0
N29 N 0.81136 0.0721 0.25929 0.0
C30 C 0.86714 0.07201 0.3141 0.0
C31 C 0.85587 0.05784 0.35383 0.0
C32 C 0.78585 0.04356 0.33736 0.0
C33 C 0.72509 0.04491 0.28221 0.0
C34 C 0.73966 0.05931 0.24326 0.0
C35 C 0.09036 0.18711 0.40283 0.0
O36 O 0.81257 0.12595 0.27046 0.0
O37 O 0.76894 0.15519 0.34191 0.0
O38 O -0.00546 0.13013 0.28193 0.0
O39 O 0.03996 0.09888 0.22337 0.0
O40 O 0.87353 0.06558 0.09197 0.0
O41 O 0.00998 0.06979 0.14641 0.0
O42 O 0.10466 0.16949 0.36222 0.0
O43 O 0.00282 0.19416 0.41793 0.0
H44 H 0.92438 0.08222 0.32492 0.0
H45 H 0.69687 0.05961 0.19896 0.0
H46 H 0.61944 0.1052 0.99852 0.0
H47 H 0.88461 0.13479 0.01025 0.0
H48 H 0.78462 0.17984 0.58763 0.0
H49 H 0.88932 0.1139 0.5105 0.0
H50 H -0.01142 0.21612 0.19379 0.0
H51 H 0.6829 0.21339 0.21701 0.0
H52 H 0.90586 0.0573 0.39474 0.0
H53 H 0.66912 0.0345 0.26801 0.0
Cd54 Cd 0.08077 0.83504 0.65801 0.0
Cd55 Cd 0.15062 0.90201 0.77937 0.0
C56 C 0.17611 0.83845 0.52217 0.0
N57 N 0.10374 0.8473 0.56456 0.0
C58 C 0.04159 0.87113 0.49611 0.0
C59 C 0.11633 0.86259 0.45187 0.0
C60 C 0.18385 0.84593 0.46508 0.0
C61 C 0.03651 0.86316 0.55237 0.0
H62 H 0.22731 0.82551 0.53247 0.0
H63 H 0.97867 0.86954 0.58646 0.0
C64 C 0.96187 0.88074 0.76184 0.0
C65 C 0.07588 0.90994 0.92483 0.0
C66 C 0.07189 0.90859 0.98998 0.0
C67 C 0.13527 0.89325 0.014 0.0
C68 C 0.19955 0.8791 0.97068 0.0
C69 C 0.20108 0.88102 0.9056 0.0
N70 N 0.14007 0.89635 0.88433 0.0
H71 H 0.02939 0.9222 0.90679 0.0
H72 H 0.25252 0.87068 0.87244 0.0
C73 C -0.0062 0.93734 0.73096 0.0
N74 N 0.05548 0.9195 0.70833 0.0
C75 C 0.02575 0.9236 0.59854 0.0
C76 C 0.9611 0.94201 0.62002 0.0
C77 C 0.9452 0.94886 0.68735 0.0
C78 C 0.07255 0.91258 0.64368 0.0
H79 H -0.01616 0.94282 0.78294 0.0
H80 H 0.12498 0.89885 0.62751 0.0
C81 C 0.2875 0.85148 0.69677 0.0
C82 C 0.93275 0.80989 0.60216 0.0
N83 N 0.13261 0.81621 0.7386 0.0
C84 C 0.14688 0.79461 0.72349 0.0
C85 C 0.182 0.78324 0.77087 0.0
C86 C 0.20385 0.79424 0.83405 0.0
C87 C 0.18771 0.81656 0.84839 0.0
C88 C 0.15131 0.82727 0.79967 0.0
C89 C 0.25263 0.9383 0.81923 0.0
O90 O 0.03136 0.86921 0.72977 0.0
O91 O 0.97726 0.89917 0.79195 0.0
O92 O 0.22458 0.86701 0.71931 0.0
O93 O 0.25784 0.83447 0.66397 0.0
O94 O 0.91379 0.82843 0.6368 0.0
O95 O 0.02182 0.80303 0.592 0.0
O96 O 0.24215 0.93012 0.75913 0.0
O97 O 0.22752 0.92792 0.85908 0.0
H98 H 0.13253 0.78618 0.67439 0.0
H99 H 0.13901 0.84444 0.81018 0.0
H100 H -0.01308 0.88366 0.48687 0.0
H101 H 0.24237 0.83893 0.43197 0.0
H102 H 0.02024 0.91962 0.02135 0.0
H103 H 0.25027 0.86717 0.98733 0.0
H104 H 0.04253 0.91818 0.54752 0.0
H105 H 0.8962 0.96299 0.70611 0.0
H106 H 0.19454 0.76605 0.75772 0.0
H107 H 0.20293 0.82561 0.8967 0.0
Cd108 Cd 0.3694 0.59304 0.1964 0.0
Cd109 Cd 0.42293 0.66592 0.3413 0.0
C110 C 0.32272 0.61986 0.08667 0.0
N111 N 0.29243 0.60268 0.10371 0.0
C112 C 0.2275 0.5912 0.99633 0.0
C113 C 0.2655 0.60779 0.97558 0.0
C114 C 0.30968 0.62279 0.02262 0.0
C115 C 0.24278 0.5888 0.06085 0.0
H116 H 0.36469 0.63025 0.12134 0.0
H117 H 0.22176 0.57498 0.07532 0.0
C118 C 0.25068 0.64132 0.2837 0.0
C119 C 0.32178 0.66107 0.47113 0.0
C120 C 0.3053 0.65345 0.5267 0.0
C121 C 0.36488 0.6357 0.5406 0.0
C122 C 0.43955 0.62595 0.49712 0.0
C123 C 0.45325 0.63407 0.44201 0.0
N124 N 0.39475 0.65134 0.43028 0.0
H125 H 0.27668 0.67485 0.46068 0.0
H126 H 0.51142 0.62679 0.40904 0.0
C127 C 0.30793 0.6898 0.23276 0.0
N128 N 0.39624 0.68016 0.24795 0.0
C129 C 0.47047 0.6916 0.16305 0.0
C130 C 0.38089 0.70224 0.14756 0.0
C131 C 0.2984 0.70078 0.18188 0.0
C132 C 0.47644 0.68053 0.2136 0.0
H133 H 0.2456 0.68985 0.26181 0.0
H134 H 0.54593 0.67299 0.22742 0.0
C135 C 0.56884 0.61874 0.24973 0.0
C136 C 0.47901 0.55663 0.12502 0.0
N137 N 0.335 0.57664 0.28129 0.0
C138 C 0.41452 0.56336 0.29296 0.0
C139 C 0.41339 0.55124 0.34014 0.0
C140 C 0.33008 0.55303 0.37709 0.0
C141 C 0.24951 0.56732 0.36581 0.0
C142 C 0.25326 0.57899 0.31699 0.0
C143 C 0.51183 0.70094 0.41197 0.0
O144 O 0.32798 0.62924 0.26439 0.0
O145 O 0.25829 0.65936 0.32042 0.0
O146 O 0.51717 0.63484 0.28101 0.0
O147 O 0.52979 0.60291 0.21819 0.0
O148 O 0.39283 0.55564 0.14182 0.0
O149 O 0.51192 0.57451 0.13976 0.0
O150 O 0.56217 0.68379 0.38499 0.0
O151 O 0.41991 0.7015 0.40696 0.0
H152 H 0.47951 0.5622 0.26532 0.0
H153 H 0.19108 0.58981 0.30827 0.0
H154 H 0.19142 0.57947 0.96218 0.0
H155 H 0.34122 0.63567 0.00916 0.0
H156 H 0.24604 0.66131 0.55811 0.0
H157 H 0.48824 0.61243 0.50616 0.0
H158 H 0.53564 0.69236 0.13756 0.0
H159 H 0.22841 0.70905 0.172 0.0
H160 H 0.47791 0.54081 0.34837 0.0
H161 H 0.18414 0.56924 0.39379 0.0
Cd162 Cd 0.60877 0.32978 0.66014 0.0
Cd163 Cd 0.66704 0.39729 0.78823 0.0
C164 C 0.6485 0.35414 0.54433 0.0
N165 N 0.57742 0.34625 0.57118 0.0
C166 C 0.47255 0.34864 0.47879 0.0
C167 C 0.5469 0.35538 0.44789 0.0
C168 C 0.63439 0.35898 0.48249 0.0
C169 C 0.48943 0.34417 0.54081 0.0
H170 H 0.71827 0.35547 0.56878 0.0
H171 H 0.4342 0.33782 0.56306 0.0
C172 C 0.47069 0.37606 0.76554 0.0
C173 C 0.58602 0.40339 0.93426 0.0
C174 C 0.56753 0.39798 0.99318 0.0
C175 C 0.59324 0.377 1.00096 0.0
C176 C 0.63752 0.36198 0.94906 0.0
C177 C 0.65518 0.36809 0.89126 0.0
N178 N 0.62896 0.38843 0.88491 0.0
H179 H 0.56691 0.41953 0.92789 0.0
H180 H 0.69083 0.35671 0.85154 0.0
C181 C 0.50896 0.43483 0.75623 0.0
N182 N 0.58351 0.42065 0.72823 0.0
C183 C 0.57597 0.43693 0.63575 0.0
C184 C 0.49876 0.45193 0.66346 0.0
C185 C 0.46438 0.45038 0.72416 0.0
C186 C 0.6169 0.42129 0.66891 0.0
H187 H 0.48527 0.43435 0.80424 0.0
H188 H 0.6778 0.41012 0.64848 0.0
C189 C 0.79554 0.35094 0.69284 0.0
C190 C 0.52344 0.29252 0.60076 0.0
N191 N 0.64188 0.31893 0.75921 0.0
C192 C 0.73496 0.31308 0.77729 0.0
C193 C 0.75449 0.30584 0.83503 0.0
C194 C 0.67748 0.30403 0.87364 0.0
C195 C 0.58194 0.30981 0.85356 0.0
C196 C 0.56572 0.31744 0.79595 0.0
C197 C 0.77574 0.42948 0.86109 0.0
O198 O 0.53118 0.36223 0.73142 0.0
O199 O 0.49929 0.39339 0.79583 0.0
O200 O 0.72067 0.3635 0.71321 0.0
O201 O 0.78293 0.33314 0.65611 0.0
O202 O 0.47414 0.30866 0.63458 0.0
O203 O 0.6133 0.29366 0.59495 0.0
O204 O 0.7744 0.41195 0.87836 0.0
O205 O 0.73964 0.43058 0.80517 0.0
H206 H 0.79445 0.31374 0.74678 0.0
H207 H 0.49233 0.32195 0.78004 0.0
H208 H 0.40358 0.34592 0.45406 0.0
H209 H 0.69378 0.36403 0.46022 0.0
H210 H 0.5328 0.41001 0.03192 0.0
H211 H 0.65994 0.3458 0.95368 0.0
H212 H 0.60709 0.43759 0.59 0.0
H213 H 0.40416 0.46116 0.74734 0.0
H214 H 0.82906 0.30127 0.84871 0.0
H215 H 0.52088 0.30865 0.88243 0.0
H216 H 0.79401 0.15349 0.94017 0.0
H217 H 0.67496 0.09304 0.89165 0.0
H218 H 0.67032 0.09464 0.77551 0.0
H219 H 0.66654 0.17773 0.81178 0.0
H220 H 0.77097 0.18985 0.79674 0.0
H221 H 0.75248 0.18542 0.87698 0.0
H222 H 0.92349 0.16424 0.87566 0.0
H223 H 0.94245 0.16843 0.79533 0.0
H224 H 0.9544 0.1418 0.80979 0.0
H225 H 0.69393 0.10079 0.66363 0.0
H226 H 0.74062 0.11162 0.56456 0.0
H227 H 0.85201 0.16705 0.68504 0.0
C228 C 0.76582 0.14067 0.90538 0.0
C229 C 0.73397 0.12323 0.92578 0.0
C230 C 0.69748 0.10688 0.87811 0.0
C231 C 0.6953 0.10753 0.81166 0.0
C232 C 0.72989 0.12462 0.79331 0.0
C233 C 0.76407 0.14095 0.83877 0.0
C234 C 0.80389 0.15668 0.80586 0.0
C235 C 0.7449 0.17873 0.82389 0.0
C236 C 0.91248 0.15784 0.82266 0.0
C237 C 0.78819 0.14643 0.73477 0.0
C238 C 0.74485 0.12803 0.72862 0.0
C239 C 0.72713 0.11527 0.66783 0.0
C240 C 0.75466 0.12146 0.61186 0.0
C241 C 0.79999 0.14018 0.61696 0.0
C242 C 0.81604 0.15286 0.67941 0.0
H243 H 0.14324 0.84024 0.32589 0.0
H244 H 0.10441 0.90425 0.44379 0.0
H245 H 0.10926 0.91889 0.34495 0.0
H246 H 0.30865 0.8505 0.20953 0.0
H247 H 0.25688 0.83338 0.14076 0.0
H248 H 0.25375 0.82783 0.22117 0.0
H249 H 0.06677 0.82831 0.21036 0.0
H250 H 0.06941 0.83386 0.12998 0.0
H251 H -0.00619 0.85133 0.1914 0.0
H252 H 0.11645 0.92662 0.23428 0.0
H253 H 0.12139 0.92714 0.11744 0.0
H254 H 0.15195 0.85811 0.06984 0.0
C255 C 0.13705 0.85732 0.33084 0.0
C256 C 0.12331 0.87116 0.39246 0.0
C257 C 0.11385 0.89342 0.39701 0.0
C258 C 0.11717 0.90186 0.34121 0.0
C259 C 0.13 0.88782 0.28117 0.0
C260 C 0.13967 0.86604 0.27545 0.0
C261 C 0.14937 0.85454 0.20469 0.0
C262 C 0.24805 0.84075 0.19339 0.0
C263 C 0.06478 0.84123 0.18284 0.0
C264 C 0.14334 0.87329 0.17166 0.0
C265 C 0.13264 0.89231 0.21681 0.0
C266 C 0.1245 0.91184 0.19836 0.0
C267 C 0.12666 0.91196 0.13182 0.0
C268 C 0.13616 0.89267 0.08438 0.0
C269 C 0.14539 0.8731 0.10489 0.0
H270 H 0.24836 0.64235 0.91583 0.0
H271 H 0.3 0.57335 0.87461 0.0
H272 H 0.32509 0.5731 0.7592 0.0
H273 H 0.12503 0.64771 0.76153 0.0
H274 H 0.18161 0.67084 0.75634 0.0
H275 H 0.1601 0.66548 0.83494 0.0
H276 H 0.34311 0.66663 0.86527 0.0
H277 H 0.36415 0.67195 0.78659 0.0
H278 H 0.43257 0.64957 0.81256 0.0
H279 H 0.35593 0.58016 0.64994 0.0
H280 H 0.38086 0.59407 0.55213 0.0
H281 H 0.31457 0.65852 0.66385 0.0
C282 C 0.26416 0.62716 0.88253 0.0
C283 C 0.2708 0.60785 0.90469 0.0
C284 C 0.29176 0.58836 0.85906 0.0
C285 C 0.30722 0.58803 0.79329 0.0
C286 C 0.30171 0.60732 0.7735 0.0
C287 C 0.28016 0.62653 0.81657 0.0
C288 C 0.28174 0.645 0.78287 0.0
C289 C 0.18111 0.65802 0.78398 0.0
C290 C 0.36007 0.65911 0.81365 0.0
C291 C 0.30803 0.63311 0.71426 0.0
C292 C 0.31934 0.6114 0.71006 0.0
C293 C 0.34622 0.59711 0.65234 0.0
C294 C 0.36098 0.60519 0.59713 0.0
C295 C 0.34912 0.62739 0.59984 0.0
C296 C 0.32243 0.64146 0.65956 0.0
H297 H 0.62564 0.39855 0.12636 0.0
H298 H 0.52023 0.34099 0.01503 0.0
H299 H 0.49132 0.33004 0.11755 0.0
H300 H 0.75154 0.37444 0.24926 0.0
H301 H 0.72256 0.39705 0.31489 0.0
H302 H 0.73129 0.40084 0.23289 0.0
H303 H 0.55706 0.42081 0.23948 0.0
H304 H 0.54774 0.41706 0.32153 0.0
H305 H 0.45818 0.40806 0.26031 0.0
H306 H 0.47321 0.32539 0.23137 0.0
H307 H 0.47793 0.32595 0.34935 0.0
H308 H 0.59809 0.38618 0.38761 0.0
C309 C 0.59519 0.38379 0.12365 0.0
C310 C 0.5744 0.37069 0.06277 0.0
C311 C 0.5369 0.35124 0.06114 0.0
C312 C 0.51973 0.34495 0.11908 0.0
C313 C 0.54074 0.35825 0.17824 0.0
C314 C 0.57829 0.37719 0.18105 0.0
C315 C 0.59858 0.38806 0.25102 0.0
C316 C 0.70746 0.39021 0.26268 0.0
C317 C 0.53668 0.40978 0.26914 0.0
C318 C 0.56645 0.37226 0.28707 0.0
C319 C 0.53252 0.3553 0.2441 0.0
C320 C 0.4992 0.33863 0.26554 0.0
C321 C 0.50151 0.33917 0.33269 0.0
C322 C 0.53758 0.3562 0.37769 0.0
C323 C 0.57011 0.37298 0.35436 0.0
H324 H 0.631 0.11552 0.21279 0.0
H325 H 0.64367 0.14663 0.41705 0.0
H326 H 0.4738 0.14113 0.4293 0.0
H327 H 0.39958 0.13874 0.181 0.0
H328 H 0.35994 0.11584 0.12608 0.0
H329 H 0.48718 0.11897 0.13473 0.0
H330 H 0.52402 0.08211 0.16498 0.0
H331 H 0.39676 0.07872 0.15617 0.0
H332 H 0.46117 0.07647 0.23144 0.0
H333 H 0.30022 0.13539 0.41849 0.0
H334 H 0.13049 0.13039 0.38364 0.0
H335 H 0.22427 0.10429 0.18549 0.0
C336 C 0.59857 0.12053 0.26028 0.0
C337 C 0.65048 0.13137 0.31397 0.0
C338 C 0.60509 0.13828 0.37524 0.0
C339 C 0.50875 0.13515 0.38282 0.0
C340 C 0.4583 0.12505 0.32866 0.0
C341 C 0.50134 0.11774 0.26853 0.0
C342 C 0.42751 0.10916 0.21711 0.0
C343 C 0.41802 0.12142 0.16147 0.0
C344 C 0.45393 0.08519 0.19089 0.0
C345 C 0.33604 0.11355 0.25734 0.0
C346 C 0.35614 0.12236 0.32182 0.0
C347 C 0.2835 0.12847 0.36816 0.0
C348 C 0.18736 0.12582 0.34791 0.0
C349 C 0.16453 0.11758 0.28182 0.0
C350 C 0.24009 0.11085 0.2363 0.0
H351 H 0.78262 0.90386 0.76403 0.0
H352 H 0.92767 0.84081 0.76607 0.0
H353 H 0.76877 0.82674 0.75565 0.0
H354 H 0.56747 0.8984 0.85837 0.0
H355 H 0.48534 0.91382 0.81252 0.0
H356 H 0.60982 0.9192 0.82607 0.0
H357 H 0.63006 0.91408 0.70131 0.0
H358 H 0.50622 0.90845 0.6874 0.0
H359 H 0.60341 0.88957 0.64837 0.0
H360 H 0.59913 0.81876 0.72798 0.0
H361 H 0.42433 0.81796 0.7018 0.0
H362 H 0.3856 0.88666 0.72675 0.0
C363 C 0.78037 0.88718 0.76343 0.0
C364 C 0.86677 0.87316 0.76357 0.0
C365 C 0.86183 0.85155 0.76378 0.0
C366 C 0.77211 0.8435 0.75843 0.0
C367 C 0.6882 0.85746 0.75479 0.0
C368 C 0.6911 0.87895 0.75903 0.0
C369 C 0.59002 0.89038 0.75271 0.0
C370 C 0.56149 0.9064 0.81621 0.0
C371 C 0.58202 0.90125 0.69394 0.0
C372 C 0.53057 0.87181 0.74148 0.0
C373 C 0.58885 0.85298 0.74279 0.0
C374 C 0.55225 0.83343 0.72844 0.0
C375 C 0.45313 0.83313 0.71309 0.0
C376 C 0.39167 0.85226 0.71277 0.0
C377 C 0.43086 0.87185 0.72766 0.0
H378 H 0.67784 0.65043 0.30574 0.0
H379 H 0.6966 0.58661 0.18503 0.0
H380 H 0.8722 0.5866 0.17517 0.0
H381 H 0.85617 0.66984 0.22044 0.0
H382 H 0.90615 0.68507 0.29383 0.0
H383 H 0.78027 0.68062 0.29004 0.0
H384 H 0.8052 0.66435 0.39282 0.0
H385 H 0.93073 0.66897 0.39754 0.0
H386 H 0.89935 0.64259 0.39419 0.0
H387 H 0.04353 0.59265 0.18095 0.0
H388 H 0.20502 0.60391 0.2072 0.0
H389 H 0.0765 0.66395 0.32202 0.0
C390 C 0.71887 0.63648 0.27721 0.0
C391 C 0.67383 0.61859 0.246 0.0
C392 C 0.72975 0.60056 0.20922 0.0
C393 C 0.82938 0.60039 0.20306 0.0
C394 C 0.87137 0.61835 0.23394 0.0
C395 C 0.81841 0.63601 0.27059 0.0
C396 C 0.88241 0.65288 0.30075 0.0
C397 C 0.85458 0.6733 0.27466 0.0
C398 C 0.87925 0.65744 0.37576 0.0
C399 C 0.97979 0.64168 0.27597 0.0
C400 C 0.97135 0.62191 0.23704 0.0
C401 C 0.05126 0.60824 0.21052 0.0
C402 C 0.14296 0.61487 0.22503 0.0
C403 C 0.15385 0.63486 0.26554 0.0
C404 C 0.07079 0.64855 0.29056 0.0
H405 H 0.97258 0.33085 0.64601 0.0
H406 H 0.83714 0.38168 0.79476 0.0
H407 H -0.00248 0.39098 0.83738 0.0
H408 H 0.17762 0.31652 0.75209 0.0
H409 H 0.26787 0.31092 0.69018 0.0
H410 H 0.14389 0.30608 0.6685 0.0
H411 H 0.127 0.33018 0.58516 0.0
H412 H 0.25292 0.3339 0.59992 0.0
H413 H 0.16182 0.35668 0.6086 0.0
H414 H 0.16789 0.39655 0.85815 0.0
H415 H 0.34196 0.39949 0.85366 0.0
H416 H 0.3714 0.34497 0.6915 0.0
C417 C 0.97707 0.34385 0.68772 0.0
C418 C 0.89265 0.35593 0.71682 0.0
C419 C 0.90103 0.3727 0.77133 0.0
C420 C -0.00825 0.37785 0.79628 0.0
C421 C 0.07358 0.36586 0.76625 0.0
C422 C 0.06762 0.34921 0.71324 0.0
C423 C 0.16758 0.3396 0.68864 0.0
C424 C 0.19054 0.31691 0.70046 0.0
C425 C 0.17789 0.34015 0.61631 0.0
C426 C 0.22949 0.35456 0.73287 0.0
C427 C 0.1737 0.3691 0.77858 0.0
C428 C 0.2128 0.38516 0.82307 0.0
C429 C 0.31159 0.38674 0.81979 0.0
C430 C 0.36967 0.37249 0.77186 0.0
C431 C 0.32861 0.3559 0.72886 0.0
H432 H 0.33161 0.28716 0.59973 0.0
H433 H 0.61113 0.25507 0.52842 0.0
H434 H 0.53173 0.22376 0.47278 0.0
H435 H 0.23623 0.23967 0.62885 0.0
H436 H 0.11471 0.24891 0.6051 0.0
H437 H 0.19696 0.26774 0.64146 0.0
H438 H 0.16798 0.28546 0.54075 0.0
H439 H 0.08816 0.26619 0.50406 0.0
H440 H 0.19196 0.2695 0.46028 0.0
H441 H 0.41963 0.19651 0.42184 0.0
H442 H 0.2844 0.17567 0.3794 0.0
H443 H 0.08001 0.22584 0.48672 0.0
C444 C 0.37649 0.27346 0.57338 0.0
C445 C 0.47755 0.27349 0.56886 0.0
C446 C 0.53348 0.25536 0.53268 0.0
C447 C 0.4891 0.2375 0.50106 0.0
C448 C 0.38903 0.23805 0.50657 0.0
C449 C 0.33361 0.25554 0.54216 0.0
C450 C 0.22727 0.25241 0.53962 0.0
C451 C 0.1917 0.25217 0.60779 0.0
C452 C 0.16523 0.2694 0.50935 0.0
C453 C 0.2309 0.23063 0.49543 0.0
C454 C 0.32488 0.22249 0.47737 0.0
C455 C 0.34586 0.20269 0.43595 0.0
C456 C 0.26858 0.19097 0.41214 0.0
C457 C 0.17174 0.19914 0.42988 0.0
C458 C 0.15322 0.21916 0.47241 0.0
H459 H 0.60728 0.27035 0.90799 0.0
H460 H 0.7978 0.31913 0.97412 0.0
H461 H 0.8456 0.30393 0.07085 0.0
H462 H 0.53339 0.26533 0.07141 0.0
H463 H 0.5361 0.23686 0.04738 0.0
H464 H 0.50676 0.25317 0.9879 0.0
H465 H 0.64542 0.2313 0.91501 0.0
H466 H 0.6753 0.21503 0.97431 0.0
H467 H 0.76715 0.22868 0.9486 0.0
H468 H 0.88432 0.28189 0.1538 0.0
H469 H 0.91282 0.25412 0.21878 0.0
H470 H 0.701 0.21863 0.09845 0.0
C471 C 0.6571 0.27808 0.94387 0.0
C472 C 0.69808 0.29604 0.93438 0.0
C473 C 0.76523 0.30545 0.98104 0.0
C474 C 0.79257 0.29696 0.03607 0.0
C475 C 0.75264 0.27895 0.0434 0.0
C476 C 0.68634 0.26958 0.99872 0.0
C477 C 0.66101 0.24928 0.01542 0.0
C478 C 0.55288 0.25129 0.0315 0.0
C479 C 0.68892 0.22995 0.96005 0.0
C480 C 0.72496 0.24851 0.07567 0.0
C481 C 0.77638 0.26591 0.09116 0.0
C482 C 0.84387 0.26829 0.14258 0.0
C483 C 0.86002 0.25237 0.17889 0.0
C484 C 0.80924 0.23424 0.16355 0.0
C485 C 0.73981 0.23247 0.11178 0.0
H486 H 0.70562 0.70554 0.41964 0.0
H487 H 0.4224 0.73858 0.4805 0.0
H488 H 0.49952 0.77024 0.53487 0.0
H489 H 0.83796 0.72665 0.56534 0.0
H490 H 0.94449 0.72879 0.52228 0.0
H491 H 0.86684 0.70871 0.48853 0.0
H492 H 0.84666 0.72285 0.38174 0.0
H493 H 0.92396 0.74305 0.41502 0.0
H494 H 0.80351 0.75047 0.38519 0.0
H495 H 0.60683 0.79825 0.58188 0.0
H496 H 0.73769 0.82068 0.61978 0.0
H497 H 0.95088 0.76933 0.52811 0.0
C498 C 0.65983 0.71939 0.4447 0.0
C499 C 0.55808 0.71961 0.44609 0.0
C500 C 0.50056 0.73808 0.47895 0.0
C501 C 0.54362 0.75613 0.50989 0.0
C502 C 0.64409 0.75542 0.50728 0.0
C503 C 0.7015 0.73754 0.47562 0.0
C504 C 0.80767 0.74096 0.47967 0.0
C505 C 0.86775 0.72535 0.51615 0.0
C506 C 0.84777 0.73924 0.41134 0.0
C507 C 0.80102 0.76355 0.51891 0.0
C508 C 0.70599 0.77161 0.53419 0.0
C509 C 0.68154 0.79214 0.57021 0.0
C510 C 0.75641 0.80474 0.59151 0.0
C511 C 0.85444 0.79673 0.57692 0.0
C512 C 0.87665 0.7759 0.5399 0.0
H513 H 0.24852 0.70465 0.04695 0.0
H514 H 0.49888 0.73247 0.1441 0.0
H515 H 0.48267 0.75857 0.07297 0.0
H516 H 0.30257 0.71121 0.88314 0.0
H517 H 0.17641 0.71715 0.86182 0.0
H518 H 0.21057 0.70011 0.9186 0.0
H519 H 0.09534 0.7247 1.00399 0.0
H520 H 0.06157 0.74194 0.94776 0.0
H521 H 0.10961 0.75259 0.02768 0.0
H522 H 0.43224 0.78325 0.99764 0.0
H523 H 0.35899 0.80315 0.91578 0.0
H524 H 0.14418 0.75879 0.86485 0.0
C525 C 0.30032 0.71613 0.05269 0.0
C526 C 0.37521 0.71654 0.10075 0.0
C527 C 0.44185 0.73173 0.10693 0.0
C528 C 0.43288 0.74669 0.06706 0.0
C529 C 0.35758 0.74606 0.02073 0.0
C530 C 0.29323 0.73101 0.01262 0.0
C531 C 0.21857 0.73392 0.95926 0.0
C532 C 0.22761 0.71445 0.90233 0.0
C533 C 0.11517 0.73857 0.98632 0.0
C534 C 0.24984 0.75324 0.9397 0.0
C535 C 0.32999 0.76001 0.97593 0.0
C536 C 0.37002 0.778 0.9685 0.0
C537 C 0.32753 0.78928 0.92231 0.0
C538 C 0.2462 0.78247 0.88397 0.0
C539 C 0.2071 0.7642 0.89293 0.0
H540 H 0.11538 0.03055 0.10715 0.0
H541 H 0.93579 0.05822 0.96537 0.0
H542 H 0.03102 0.03443 0.87586 0.0
H543 H 0.3477 0.01764 0.01516 0.0
H544 H 0.37498 0.99253 0.03983 0.0
H545 H 0.30801 0.0147 0.09302 0.0
H546 H 0.16746 0.99209 0.09731 0.0
H547 H 0.2357 0.96986 0.04622 0.0
H548 H 0.11416 0.9789 0.02193 0.0
H549 H 0.1336 0.00577 0.80251 0.0
H550 H 0.20097 0.96943 0.75135 0.0
H551 H 0.30688 0.95853 0.94029 0.0
C552 C 0.0977 0.0318 0.05718 0.0
C553 C 0.01945 0.04621 0.04265 0.0
C554 C -0.00419 0.04717 0.97703 0.0
C555 C 0.05047 0.034 0.92615 0.0
C556 C 0.12771 0.01989 0.94192 0.0
C557 C 0.14976 0.01837 0.00587 0.0
C558 C 0.22358 -0.00062 0.00941 0.0
C559 C 0.31925 0.0065 0.04124 0.0
C560 C 0.18273 0.98416 0.04578 0.0
C561 C 0.23587 0.98977 0.93739 0.0
C562 C 0.1836 0.00242 0.89928 0.0
C563 C 0.17589 0.99588 0.83168 0.0
C564 C 0.21551 0.97522 0.80284 0.0
C565 C 0.25893 0.96121 0.84207 0.0
C566 C 0.27541 0.9691 0.90926 0.0
H567 H 0.8228 0.04489 0.46881 0.0
H568 H 0.74988 0.00232 0.28813 0.0
H569 H 0.77034 0.97239 0.34445 0.0
H570 H 0.01392 0.01012 0.51316 0.0
H571 H -0.00697 0.01764 0.59965 0.0
H572 H 0.95725 0.03639 0.54847 0.0
H573 H 0.78102 0.04117 0.58948 0.0
H574 H 0.81637 0.02247 0.64112 0.0
H575 H 0.71743 0.01817 0.58292 0.0
H576 H 0.81719 0.94631 0.41646 0.0
H577 H 0.88339 0.92627 0.49954 0.0
H578 H 0.93465 0.98541 0.63156 0.0
C579 C 0.8099 0.02936 0.44101 0.0
C580 C 0.78408 0.02616 0.37375 0.0
C581 C 0.76745 0.00547 0.33983 0.0
C582 C 0.77968 0.98825 0.37135 0.0
C583 C 0.80856 0.99189 0.4369 0.0
C584 C 0.823 0.01196 0.47146 0.0
C585 C 0.86194 0.01132 0.53984 0.0
C586 C 0.96249 0.01933 0.55088 0.0
C587 C 0.78986 0.02403 0.59138 0.0
C588 C 0.86884 0.98769 0.53792 0.0
C589 C 0.83695 0.97679 0.47827 0.0
C590 C 0.84127 0.9547 0.4636 0.0
C591 C 0.87964 0.94345 0.51097 0.0
C592 C 0.91385 0.95425 0.57225 0.0
C593 C 0.9072 0.97671 0.58584 0.0
H594 H 0.54682 0.54492 1.00103 0.0
H595 H 0.55448 0.52564 0.18666 0.0
H596 H 0.66981 0.49401 0.14256 0.0
H597 H 0.53528 0.49396 0.90631 0.0
H598 H 0.60687 0.49756 0.84084 0.0
H599 H 0.5394 0.52017 0.89105 0.0
H600 H 0.69859 0.53782 0.91728 0.0
H601 H 0.76681 0.51482 0.86852 0.0
H602 H 0.80139 0.52407 0.95269 0.0
H603 H 0.77202 0.46348 0.07702 0.0
H604 H 0.82284 0.43251 0.99029 0.0
H605 H 0.74391 0.47047 0.84464 0.0
C606 C 0.57413 0.53408 0.03224 0.0
C607 C 0.54313 0.5375 0.09701 0.0
C608 C 0.57805 0.52305 0.13675 0.0
C609 C 0.64438 0.50528 0.11242 0.0
C610 C 0.67437 0.50226 0.04821 0.0
C611 C 0.63887 0.51602 0.0082 0.0
C612 C 0.67117 0.50748 0.93859 0.0
C613 C 0.58297 0.50461 0.89147 0.0
C614 C 0.73851 0.52191 0.91808 0.0
C615 C 0.72656 0.48633 0.94511 0.0
C616 C 0.73071 0.48403 0.00925 0.0
C617 C 0.77029 0.46515 0.02673 0.0
C618 C 0.7997 0.44764 0.97701 0.0
C619 C 0.78684 0.44903 0.91062 0.0
C620 C 0.75593 0.469 0.89492 0.0
H621 H 0.48352 0.45157 0.53105 0.0
H622 H 0.42137 0.4927 0.72087 0.0
H623 H 0.35388 0.5216 0.66701 0.0
H624 H 0.57146 0.49146 0.46508 0.0
H625 H 0.52472 0.48209 0.38383 0.0
H626 H 0.55655 0.46373 0.43682 0.0
H627 H 0.38337 0.4523 0.42138 0.0
H628 H 0.35053 0.47077 0.3687 0.0
H629 H 0.27962 0.47213 0.43965 0.0
H630 H 0.29565 0.54656 0.59228 0.0
H631 H 0.27322 0.56684 0.50398 0.0
H632 H 0.38839 0.51055 0.36507 0.0
C633 C 0.45611 0.46659 0.56174 0.0
C634 C 0.45668 0.46947 0.63061 0.0
C635 C 0.41915 0.48958 0.6681 0.0
C636 C 0.38103 0.50626 0.63794 0.0
C637 C 0.38189 0.5028 0.57015 0.0
C638 C 0.41979 0.48355 0.53259 0.0
C639 C 0.42027 0.4845 0.46111 0.0
C640 C 0.52444 0.4802 0.43523 0.0
C641 C 0.3545 0.46901 0.42032 0.0
C642 C 0.37803 0.50739 0.46451 0.0
C643 C 0.35433 0.51756 0.5276 0.0
C644 C 0.31461 0.53883 0.54275 0.0
C645 C 0.30168 0.55018 0.49236 0.0
C646 C 0.33013 0.54032 0.42806 0.0
C647 C 0.36682 0.51853 0.41399 0.0
loop_
_geom_bond_atom_site_label_1
_geom_bond_atom_site_label_2
_geom_bond_distance
_geom_bond_site_symmetry_2
_ccdc_geom_bond_type
Cd0 N3 2.334 1_455 S
Cd0 N29 2.304 . S
Cd0 O36 2.268 1_455 S
Cd0 O39 2.273 . S
Cd0 O40 2.417 1_455 S
Cd0 O41 2.330 . S
Cd1 N16 2.304 1_655 S
Cd1 N20 2.334 . S
Cd1 O37 2.273 . S
Cd1 O38 2.268 1_655 S
Cd1 O42 2.417 1_655 S
Cd1 O43 2.330 . S
C2 N3 1.332 1_455 S
C2 C6 1.381 . S
C2 H8 0.931 . S
N3 Cd0 2.334 1_655 S
N3 C2 1.332 1_655 S
N3 C7 1.328 . S
C4 C5 1.396 . S
C4 C7 1.378 . S
C4 H46 0.931 . S
C5 C4 1.396 . S
C5 C6 1.382 1_655 S
C6 C2 1.381 . S
C6 C5 1.382 1_455 S
C6 H47 0.930 1_554 S
C7 N3 1.328 . S
C7 C4 1.378 . S
C7 H9 0.930 . S
H8 C2 0.931 . S
H9 C7 0.930 . S
C10 O36 1.238 . S
C10 O37 1.253 . S
C11 C12 1.379 . S
C11 N16 1.337 1_655 S
C11 H17 0.929 . S
C12 C11 1.379 . S
C12 C13 1.380 1_655 S
C12 H48 0.929 . S
C13 C12 1.380 1_455 S
C13 C14 1.399 . S
C14 C13 1.399 . S
C14 C15 1.376 . S
C14 H49 0.931 . S
C15 C14 1.376 . S
C15 N16 1.338 . S
C15 H18 0.930 . S
N16 Cd1 2.304 1_455 S
N16 C11 1.337 1_455 S
N16 C15 1.338 . S
H17 C11 0.929 . S
H18 C15 0.930 . S
C19 N20 1.332 . S
C19 C23 1.381 . S
C19 H25 0.931 . S
N20 Cd1 2.334 . S
N20 C19 1.332 . S
N20 C24 1.328 1_655 S
C21 C22 1.396 1_455 S
C21 C24 1.378 . S
C21 H50 0.931 . S
C22 C21 1.396 1_655 S
C22 C23 1.382 . S
C23 C19 1.381 . S
C23 C22 1.382 . S
C23 H51 0.930 . S
C24 N20 1.328 1_455 S
C24 C21 1.378 . S
C24 H26 0.930 . S
H25 C19 0.931 . S
H26 C24 0.930 . S
C27 O38 1.238 . S
C27 O39 1.253 . S
C28 O40 1.239 . S
C28 O41 1.230 1_655 S
N29 Cd0 2.304 . S
N29 C30 1.337 . S
N29 C34 1.338 1_455 S
C30 N29 1.337 . S
C30 C31 1.379 . S
C30 H44 0.929 . S
C31 C30 1.379 . S
C31 C32 1.380 . S
C31 H52 0.929 . S
C32 C31 1.380 . S
C32 C33 1.399 1_455 S
C33 C32 1.399 1_655 S
C33 C34 1.376 . S
C33 H53 0.931 . S
C34 N29 1.338 1_655 S
C34 C33 1.376 . S
C34 H45 0.930 . S
C35 O42 1.239 . S
C35 O43 1.230 1_455 S
O36 Cd0 2.268 1_655 S
O36 C10 1.238 . S
O37 Cd1 2.273 . S
O37 C10 1.253 . S
O38 Cd1 2.268 1_455 S
O38 C27 1.238 . S
O39 Cd0 2.273 . S
O39 C27 1.253 . S
O40 Cd0 2.417 1_655 S
O40 C28 1.239 . S
O41 Cd0 2.330 . S
O41 C28 1.230 1_455 S
O42 Cd1 2.417 1_455 S
O42 C35 1.239 . S
O43 Cd1 2.330 . S
O43 C35 1.230 1_655 S
H44 C30 0.929 . S
H45 C34 0.930 . S
H46 C4 0.931 . S
H47 C6 0.930 1_556 S
H48 C12 0.929 . S
H49 C14 0.931 . S
H50 C21 0.931 . S
H51 C23 0.930 . S
H52 C31 0.929 . S
H53 C33 0.931 . S
Cd54 N57 2.334 . S
Cd54 N83 2.304 . S
Cd54 O90 2.268 1_455 S
Cd54 O93 2.273 . S
Cd54 O94 2.417 1_455 S
Cd54 O95 2.330 . S
Cd55 N70 2.304 . S
Cd55 N74 2.334 . S
Cd55 O91 2.273 1_455 S
Cd55 O92 2.268 . S
Cd55 O96 2.417 . S
Cd55 O97 2.330 1_455 S
C56 N57 1.332 . S
C56 C60 1.381 . S
C56 H62 0.931 . S
N57 Cd54 2.334 . S
N57 C56 1.332 . S
N57 C61 1.328 1_455 S
C58 C59 1.396 1_655 S
C58 C61 1.378 . S
C58 H100 0.931 . S
C59 C58 1.396 1_455 S
C59 C60 1.382 . S
C60 C56 1.381 . S
C60 C59 1.382 . S
C60 H101 0.930 . S
C61 N57 1.328 1_655 S
C61 C58 1.378 . S
C61 H63 0.930 . S
H62 C56 0.931 . S
H63 C61 0.930 . S
C64 O90 1.238 . S
C64 O91 1.253 . S
C65 C66 1.379 . S
C65 N70 1.337 1_655 S
C65 H71 0.929 . S
C66 C65 1.379 . S
C66 C67 1.380 1_655 S
C66 H102 0.929 1_556 S
C67 C66 1.380 1_455 S
C67 C68 1.399 . S
C68 C67 1.399 . S
C68 C69 1.376 . S
C68 H103 0.931 . S
C69 C68 1.376 . S
C69 N70 1.338 . S
C69 H72 0.930 . S
N70 Cd55 2.304 . S
N70 C65 1.337 1_455 S
N70 C69 1.338 . S
H71 C65 0.929 . S
H72 C69 0.930 . S
C73 N74 1.325 1_655 S
C73 C77 1.381 . S
C73 H79 0.931 . S
N74 Cd55 2.334 . S
N74 C73 1.325 1_455 S
N74 C78 1.334 . S
C75 C76 1.396 1_455 S
C75 C78 1.378 . S
C75 H104 0.931 . S
C76 C75 1.396 1_655 S
C76 C77 1.382 . S
C77 C73 1.381 . S
C77 C76 1.382 . S
C77 H105 0.930 . S
C78 N74 1.334 . S
C78 C75 1.378 . S
C78 H80 0.930 . S
H79 C73 0.931 . S
H80 C78 0.930 . S
C81 O92 1.238 . S
C81 O93 1.253 . S
C82 O94 1.239 . S
C82 O95 1.230 1_655 S
N83 Cd54 2.304 . S
N83 C84 1.337 . S
N83 C88 1.338 1_455 S
C84 N83 1.337 . S
C84 C85 1.379 . S
C84 H98 0.929 . S
C85 C84 1.379 . S
C85 C86 1.380 . S
C85 H106 0.929 . S
C86 C85 1.380 . S
C86 C87 1.399 1_455 S
C87 C86 1.399 1_655 S
C87 C88 1.376 . S
C87 H107 0.931 . S
C88 N83 1.338 1_655 S
C88 C87 1.376 . S
C88 H99 0.930 . S
C89 O96 1.239 . S
C89 O97 1.230 1_455 S
O90 Cd54 2.268 1_655 S
O90 C64 1.238 . S
O91 Cd55 2.273 1_655 S
O91 C64 1.253 . S
O92 Cd55 2.268 . S
O92 C81 1.238 . S
O93 Cd54 2.273 . S
O93 C81 1.253 . S
O94 Cd54 2.417 1_655 S
O94 C82 1.239 . S
O95 Cd54 2.330 . S
O95 C82 1.230 1_455 S
O96 Cd55 2.417 . S
O96 C89 1.239 . S
O97 Cd55 2.330 1_655 S
O97 C89 1.230 1_655 S
H98 C84 0.929 . S
H99 C88 0.930 . S
H100 C58 0.931 . S
H101 C60 0.930 . S
H102 C66 0.929 1_554 S
H103 C68 0.931 . S
H104 C75 0.931 . S
H105 C77 0.930 . S
H106 C85 0.929 . S
H107 C87 0.931 . S
Cd108 N111 2.334 . S
Cd108 N137 2.304 . S
Cd108 O144 2.268 . S
Cd108 O147 2.273 . S
Cd108 O148 2.417 . S
Cd108 O149 2.330 . S
Cd109 N124 2.304 . S
Cd109 N128 2.334 . S
Cd109 O145 2.273 . S
Cd109 O146 2.268 . S
Cd109 O150 2.417 . S
Cd109 O151 2.330 . S
C110 N111 1.332 . S
C110 C114 1.381 . S
C110 H116 0.931 . S
N111 Cd108 2.334 . S
N111 C110 1.332 . S
N111 C115 1.328 . S
C112 C113 1.396 . S
C112 C115 1.378 . S
C112 H154 0.931 . S
C113 C112 1.396 . S
C113 C114 1.382 . S
C114 C110 1.381 . S
C114 C113 1.382 . S
C114 H155 0.930 1_554 S
C115 N111 1.328 . S
C115 C112 1.378 . S
C115 H117 0.930 . S
H116 C110 0.931 . S
H117 C115 0.930 . S
C118 O144 1.238 . S
C118 O145 1.253 . S
C119 C120 1.379 . S
C119 N124 1.337 . S
C119 H125 0.929 . S
C120 C119 1.379 . S
C120 C121 1.380 . S
C120 H156 0.929 . S
C121 C120 1.380 . S
C121 C122 1.399 . S
C122 C121 1.399 . S
C122 C123 1.376 . S
C122 H157 0.931 . S
C123 C122 1.376 . S
C123 N124 1.338 . S
C123 H126 0.930 . S
N124 Cd109 2.304 . S
N124 C119 1.337 . S
N124 C123 1.338 . S
H125 C119 0.929 . S
H126 C123 0.930 . S
C127 N128 1.332 . S
C127 C131 1.381 . S
C127 H133 0.931 . S
N128 Cd109 2.334 . S
N128 C127 1.332 . S
N128 C132 1.328 . S
C129 C130 1.396 . S
C129 C132 1.378 . S
C129 H158 0.931 . S
C130 C129 1.396 . S
C130 C131 1.382 . S
C131 C127 1.381 . S
C131 C130 1.382 . S
C131 H159 0.930 . S
C132 N128 1.328 . S
C132 C129 1.378 . S
C132 H134 0.930 . S
H133 C127 0.931 . S
H134 C132 0.930 . S
C135 O146 1.238 . S
C135 O147 1.253 . S
C136 O148 1.239 . S
C136 O149 1.230 . S
N137 Cd108 2.304 . S
N137 C138 1.337 . S
N137 C142 1.338 . S
C138 N137 1.337 . S
C138 C139 1.379 . S
C138 H152 0.929 . S
C139 C138 1.379 . S
C139 C140 1.380 . S
C139 H160 0.929 . S
C140 C139 1.380 . S
C140 C141 1.399 . S
C141 C140 1.399 . S
C141 C142 1.376 . S
C141 H161 0.931 . S
C142 N137 1.338 . S
C142 C141 1.376 . S
C142 H153 0.930 . S
C143 O150 1.239 . S
C143 O151 1.230 . S
O144 Cd108 2.268 . S
O144 C118 1.238 . S
O145 Cd109 2.273 . S
O145 C118 1.253 . S
O146 Cd109 2.268 . S
O146 C135 1.238 . S
O147 Cd108 2.273 . S
O147 C135 1.253 . S
O148 Cd108 2.417 . S
O148 C136 1.239 . S
O149 Cd108 2.330 . S
O149 C136 1.230 . S
O150 Cd109 2.417 . S
O150 C143 1.239 . S
O151 Cd109 2.330 . S
O151 C143 1.230 . S
H152 C138 0.929 . S
H153 C142 0.930 . S
H154 C112 0.931 . S
H155 C114 0.930 1_556 S
H156 C120 0.929 . S
H157 C122 0.931 . S
H158 C129 0.931 . S
H159 C131 0.930 . S
H160 C139 0.929 . S
H161 C141 0.931 . S
Cd162 N165 2.334 . S
Cd162 N191 2.304 . S
Cd162 O198 2.268 . S
Cd162 O201 2.273 . S
Cd162 O202 2.417 . S
Cd162 O203 2.330 . S
Cd163 N178 2.304 . S
Cd163 N182 2.334 . S
Cd163 O199 2.273 . S
Cd163 O200 2.268 . S
Cd163 O204 2.417 . S
Cd163 O205 2.330 . S
C164 N165 1.332 . S
C164 C168 1.381 . S
C164 H170 0.931 . S
N165 Cd162 2.334 . S
N165 C164 1.332 . S
N165 C169 1.328 . S
C166 C167 1.396 . S
C166 C169 1.378 . S
C166 H208 0.931 . S
C167 C166 1.396 . S
C167 C168 1.382 . S
C168 C164 1.381 . S
C168 C167 1.382 . S
C168 H209 0.930 . S
C169 N165 1.328 . S
C169 C166 1.378 . S
C169 H171 0.930 . S
H170 C164 0.931 . S
H171 C169 0.930 . S
C172 O198 1.238 . S
C172 O199 1.253 . S
C173 C174 1.379 . S
C173 N178 1.337 . S
C173 H179 0.929 . S
C174 C173 1.379 . S
C174 C175 1.380 . S
C174 H210 0.929 1_556 S
C175 C174 1.380 . S
C175 C176 1.399 . S
C176 C175 1.399 . S
C176 C177 1.376 . S
C176 H211 0.931 . S
C177 C176 1.376 . S
C177 N178 1.338 . S
C177 H180 0.930 . S
N178 Cd163 2.304 . S
N178 C173 1.337 . S
N178 C177 1.338 . S
H179 C173 0.929 . S
H180 C177 0.930 . S
C181 N182 1.332 . S
C181 C185 1.381 . S
C181 H187 0.931 . S
N182 Cd163 2.334 . S
N182 C181 1.332 . S
N182 C186 1.328 . S
C183 C184 1.396 . S
C183 C186 1.378 . S
C183 H212 0.931 . S
C184 C183 1.396 . S
C184 C185 1.382 . S
C185 C181 1.381 . S
C185 C184 1.382 . S
C185 H213 0.930 . S
C186 N182 1.328 . S
C186 C183 1.378 . S
C186 H188 0.930 . S
H187 C181 0.931 . S
H188 C186 0.930 . S
C189 O200 1.238 . S
C189 O201 1.253 . S
C190 O202 1.239 . S
C190 O203 1.230 . S
N191 Cd162 2.304 . S
N191 C192 1.337 . S
N191 C196 1.338 . S
C192 N191 1.337 . S
C192 C193 1.379 . S
C192 H206 0.929 . S
C193 C192 1.379 . S
C193 C194 1.380 . S
C193 H214 0.929 . S
C194 C193 1.380 . S
C194 C195 1.399 . S
C195 C194 1.399 . S
C195 C196 1.376 . S
C195 H215 0.931 . S
C196 N191 1.338 . S
C196 C195 1.376 . S
C196 H207 0.930 . S
C197 O204 1.239 . S
C197 O205 1.230 . S
O198 Cd162 2.268 . S
O198 C172 1.238 . S
O199 Cd163 2.273 . S
O199 C172 1.253 . S
O200 Cd163 2.268 . S
O200 C189 1.238 . S
O201 Cd162 2.273 . S
O201 C189 1.253 . S
O202 Cd162 2.417 . S
O202 C190 1.239 . S
O203 Cd162 2.330 . S
O203 C190 1.230 . S
O204 Cd163 2.417 . S
O204 C197 1.239 . S
O205 Cd163 2.330 . S
O205 C197 1.230 . S
H206 C192 0.929 . S
H207 C196 0.930 . S
H208 C166 0.931 . S
H209 C168 0.930 . S
H210 C174 0.929 1_554 S
H211 C176 0.931 . S
H212 C183 0.931 . S
H213 C185 0.930 . S
H214 C193 0.929 . S
H215 C195 0.931 . S
H216 C228 0.930 . S
H217 C230 0.930 . S
H218 C231 0.930 . S
H219 C235 0.959 . S
H220 C235 0.959 . S
H221 C235 0.961 . S
H222 C236 0.960 . S
H223 C236 0.961 . S
H224 C236 0.959 . S
H225 C239 0.929 . S
H226 C240 0.931 . S
H227 C242 0.930 1_655 S
C228 H216 0.930 . S
C228 C229 1.399 . S
C228 C233 1.399 . S
C229 C228 1.399 . S
C229 C230 1.376 1_655 S
C230 H217 0.930 . S
C230 C229 1.376 1_455 S
C230 C231 1.388 . S
C231 H218 0.930 . S
C231 C230 1.388 . S
C231 C232 1.390 . S
C232 C231 1.390 . S
C232 C233 1.394 1_455 S
C232 C238 1.465 . S
C233 C228 1.399 . S
C233 C232 1.394 1_655 S
C233 C234 1.516 . S
C234 C233 1.516 . S
C234 C235 1.502 . S
C234 C236 1.561 1_655 S
C234 C237 1.526 1_655 S
C235 H219 0.959 . S
C235 H220 0.959 . S
C235 H221 0.961 . S
C235 C234 1.502 . S
C236 H222 0.960 . S
C236 H223 0.961 . S
C236 H224 0.959 . S
C236 C234 1.561 1_455 S
C237 C234 1.526 1_455 S
C237 C238 1.396 . S
C237 C242 1.390 . S
C238 C232 1.465 . S
C238 C237 1.396 . S
C238 C239 1.399 . S
C239 H225 0.929 . S
C239 C238 1.399 . S
C239 C240 1.385 . S
C240 H226 0.931 . S
C240 C239 1.385 . S
C240 C241 1.389 . S
C241 C240 1.389 . S
C241 C242 1.387 . S
C242 H227 0.930 1_455 S
C242 C237 1.390 . S
C242 C241 1.387 . S
H243 C255 0.930 . S
H244 C257 0.930 . S
H245 C258 0.930 . S
H246 C262 0.959 . S
H247 C262 0.959 . S
H248 C262 0.961 . S
H249 C263 0.960 . S
H250 C263 0.961 . S
H251 C263 0.959 1_655 S
H252 C266 0.929 . S
H253 C267 0.931 . S
H254 C269 0.930 . S
C255 H243 0.930 . S
C255 C256 1.399 1_455 S
C255 C260 1.399 . S
C256 C255 1.399 1_655 S
C256 C257 1.376 . S
C257 H244 0.930 . S
C257 C256 1.376 . S
C257 C258 1.388 . S
C258 H245 0.930 . S
C258 C257 1.388 . S
C258 C259 1.390 . S
C259 C258 1.390 . S
C259 C260 1.394 1_655 S
C259 C265 1.465 . S
C260 C255 1.399 . S
C260 C259 1.394 1_455 S
C260 C261 1.516 . S
C261 C260 1.516 . S
C261 C262 1.502 . S
C261 C263 1.561 . S
C261 C264 1.526 . S
C262 H246 0.959 . S
C262 H247 0.959 . S
C262 H248 0.961 . S
C262 C261 1.502 . S
C263 H249 0.960 . S
C263 H250 0.961 . S
C263 H251 0.959 1_455 S
C263 C261 1.561 . S
C264 C261 1.526 . S
C264 C265 1.396 1_455 S
C264 C269 1.390 . S
C265 C259 1.465 . S
C265 C264 1.396 1_655 S
C265 C266 1.399 . S
C266 H252 0.929 . S
C266 C265 1.399 . S
C266 C267 1.385 . S
C267 H253 0.931 . S
C267 C266 1.385 . S
C267 C268 1.389 1_655 S
C268 C267 1.389 1_455 S
C268 C269 1.387 . S
C269 H254 0.930 . S
C269 C264 1.390 . S
C269 C268 1.387 . S
H270 C282 0.930 . S
H271 C284 0.930 . S
H272 C285 0.930 . S
H273 C289 0.959 . S
H274 C289 0.959 . S
H275 C289 0.961 . S
H276 C290 0.960 . S
H277 C290 0.961 . S
H278 C290 0.959 . S
H279 C293 0.929 . S
H280 C294 0.931 . S
H281 C296 0.930 . S
C282 H270 0.930 . S
C282 C283 1.399 . S
C282 C287 1.399 . S
C283 C282 1.399 . S
C283 C284 1.376 . S
C284 H271 0.930 . S
C284 C283 1.376 . S
C284 C285 1.388 . S
C285 H272 0.930 . S
C285 C284 1.388 . S
C285 C286 1.390 . S
C286 C285 1.390 . S
C286 C287 1.394 . S
C286 C292 1.465 . S
C287 C282 1.399 . S
C287 C286 1.394 . S
C287 C288 1.516 . S
C288 C287 1.516 . S
C288 C289 1.502 . S
C288 C290 1.561 . S
C288 C291 1.526 . S
C289 H273 0.959 . S
C289 H274 0.959 . S
C289 H275 0.961 . S
C289 C288 1.502 . S
C290 H276 0.960 . S
C290 H277 0.961 . S
C290 H278 0.959 . S
C290 C288 1.561 . S
C291 C288 1.526 . S
C291 C292 1.396 . S
C291 C296 1.390 . S
C292 C286 1.465 . S
C292 C291 1.396 . S
C292 C293 1.399 . S
C293 H279 0.929 . S
C293 C292 1.399 . S
C293 C294 1.385 . S
C294 H280 0.931 . S
C294 C293 1.385 . S
C294 C295 1.389 . S
C295 C294 1.389 . S
C295 C296 1.387 . S
C296 H281 0.930 . S
C296 C291 1.390 . S
C296 C295 1.387 . S
H297 C309 0.930 . S
H298 C311 0.930 . S
H299 C312 0.930 . S
H300 C316 0.959 . S
H301 C316 0.959 . S
H302 C316 0.961 . S
H303 C317 0.960 . S
H304 C317 0.961 . S
H305 C317 0.959 . S
H306 C320 0.929 . S
H307 C321 0.931 . S
H308 C323 0.930 . S
C309 H297 0.930 . S
C309 C310 1.399 . S
C309 C314 1.399 . S
C310 C309 1.399 . S
C310 C311 1.376 . S
C311 H298 0.930 . S
C311 C310 1.376 . S
C311 C312 1.388 . S
C312 H299 0.930 . S
C312 C311 1.388 . S
C312 C313 1.390 . S
C313 C312 1.390 . S
C313 C314 1.394 . S
C313 C319 1.465 . S
C314 C309 1.399 . S
C314 C313 1.394 . S
C314 C315 1.516 . S
C315 C314 1.516 . S
C315 C316 1.502 . S
C315 C317 1.561 . S
C315 C318 1.526 . S
C316 H300 0.959 . S
C316 H301 0.959 . S
C316 H302 0.961 . S
C316 C315 1.502 . S
C317 H303 0.960 . S
C317 H304 0.961 . S
C317 H305 0.959 . S
C317 C315 1.561 . S
C318 C315 1.526 . S
C318 C319 1.396 . S
C318 C323 1.390 . S
C319 C313 1.465 . S
C319 C318 1.396 . S
C319 C320 1.399 . S
C320 H306 0.929 . S
C320 C319 1.399 . S
C320 C321 1.385 . S
C321 H307 0.931 . S
C321 C320 1.385 . S
C321 C322 1.389 . S
C322 C321 1.389 . S
C322 C323 1.387 . S
C323 H308 0.930 . S
C323 C318 1.390 . S
C323 C322 1.387 . S
H324 C336 0.930 . S
H325 C338 0.930 . S
H326 C339 0.930 . S
H327 C343 0.959 . S
H328 C343 0.959 . S
H329 C343 0.961 . S
H330 C344 0.960 . S
H331 C344 0.961 . S
H332 C344 0.959 . S
H333 C347 0.929 . S
H334 C348 0.931 . S
H335 C350 0.930 . S
C336 H324 0.930 . S
C336 C337 1.399 . S
C336 C341 1.399 . S
C337 C336 1.399 . S
C337 C338 1.376 . S
C338 H325 0.930 . S
C338 C337 1.376 . S
C338 C339 1.388 . S
C339 H326 0.930 . S
C339 C338 1.388 . S
C339 C340 1.390 . S
C340 C339 1.390 . S
C340 C341 1.394 . S
C340 C346 1.465 . S
C341 C336 1.399 . S
C341 C340 1.394 . S
C341 C342 1.516 . S
C342 C341 1.516 . S
C342 C343 1.502 . S
C342 C344 1.561 . S
C342 C345 1.526 . S
C343 H327 0.959 . S
C343 H328 0.959 . S
C343 H329 0.961 . S
C343 C342 1.502 . S
C344 H330 0.960 . S
C344 H331 0.961 . S
C344 H332 0.959 . S
C344 C342 1.561 . S
C345 C342 1.526 . S
C345 C346 1.396 . S
C345 C350 1.390 . S
C346 C340 1.465 . S
C346 C345 1.396 . S
C346 C347 1.399 . S
C347 H333 0.929 . S
C347 C346 1.399 . S
C347 C348 1.385 . S
C348 H334 0.931 . S
C348 C347 1.385 . S
C348 C349 1.389 . S
C349 C348 1.389 . S
C349 C350 1.387 . S
C350 H335 0.930 . S
C350 C345 1.390 . S
C350 C349 1.387 . S
H351 C363 0.930 . S
H352 C365 0.930 . S
H353 C366 0.930 . S
H354 C370 0.959 . S
H355 C370 0.959 . S
H356 C370 0.961 . S
H357 C371 0.960 . S
H358 C371 0.961 . S
H359 C371 0.959 . S
H360 C374 0.929 . S
H361 C375 0.931 . S
H362 C377 0.930 . S
C363 H351 0.930 . S
C363 C364 1.399 . S
C363 C368 1.399 . S
C364 C363 1.399 . S
C364 C365 1.376 . S
C365 H352 0.930 . S
C365 C364 1.376 . S
C365 C366 1.388 . S
C366 H353 0.930 . S
C366 C365 1.388 . S
C366 C367 1.390 . S
C367 C366 1.390 . S
C367 C368 1.394 . S
C367 C373 1.465 . S
C368 C363 1.399 . S
C368 C367 1.394 . S
C368 C369 1.516 . S
C369 C368 1.516 . S
C369 C370 1.502 . S
C369 C371 1.561 . S
C369 C372 1.526 . S
C370 H354 0.959 . S
C370 H355 0.959 . S
C370 H356 0.961 . S
C370 C369 1.502 . S
C371 H357 0.960 . S
C371 H358 0.961 . S
C371 H359 0.959 . S
C371 C369 1.561 . S
C372 C369 1.526 . S
C372 C373 1.396 . S
C372 C377 1.390 . S
C373 C367 1.465 . S
C373 C372 1.396 . S
C373 C374 1.399 . S
C374 H360 0.929 . S
C374 C373 1.399 . S
C374 C375 1.385 . S
C375 H361 0.931 . S
C375 C374 1.385 . S
C375 C376 1.389 . S
C376 C375 1.389 . S
C376 C377 1.387 . S
C377 H362 0.930 . S
C377 C372 1.390 . S
C377 C376 1.387 . S
H378 C390 0.930 . S
H379 C392 0.930 . S
H380 C393 0.930 . S
H381 C397 0.959 . S
H382 C397 0.959 1_455 S
H383 C397 0.961 . S
H384 C398 0.960 . S
H385 C398 0.961 1_455 S
H386 C398 0.959 . S
H387 C401 0.929 . S
H388 C402 0.931 . S
H389 C404 0.930 . S
C390 H378 0.930 . S
C390 C391 1.399 . S
C390 C395 1.399 . S
C391 C390 1.399 . S
C391 C392 1.376 . S
C392 H379 0.930 . S
C392 C391 1.376 . S
C392 C393 1.388 . S
C393 H380 0.930 . S
C393 C392 1.388 . S
C393 C394 1.390 . S
C394 C393 1.390 . S
C394 C395 1.394 . S
C394 C400 1.465 1_655 S
C395 C390 1.399 . S
C395 C394 1.394 . S
C395 C396 1.516 . S
C396 C395 1.516 . S
C396 C397 1.502 . S
C396 C398 1.561 . S
C396 C399 1.526 1_655 S
C397 H381 0.959 . S
C397 H382 0.959 1_655 S
C397 H383 0.961 . S
C397 C396 1.502 . S
C398 H384 0.960 . S
C398 H385 0.961 1_655 S
C398 H386 0.959 . S
C398 C396 1.561 . S
C399 C396 1.526 1_455 S
C399 C400 1.396 . S
C399 C404 1.390 . S
C400 C394 1.465 1_455 S
C400 C399 1.396 . S
C400 C401 1.399 . S
C401 H387 0.929 . S
C401 C400 1.399 . S
C401 C402 1.385 . S
C402 H388 0.931 . S
C402 C401 1.385 . S
C402 C403 1.389 . S
C403 C402 1.389 . S
C403 C404 1.387 . S
C404 H389 0.930 . S
C404 C399 1.390 . S
C404 C403 1.387 . S
H405 C417 0.930 . S
H406 C419 0.930 . S
H407 C420 0.930 . S
H408 C424 0.959 . S
H409 C424 0.959 . S
H410 C424 0.961 1_655 S
H411 C425 0.960 1_655 S
H412 C425 0.961 . S
H413 C425 0.959 . S
H414 C428 0.929 . S
H415 C429 0.931 . S
H416 C431 0.930 . S
C417 H405 0.930 . S
C417 C418 1.399 . S
C417 C422 1.399 . S
C418 C417 1.399 . S
C418 C419 1.376 . S
C419 H406 0.930 . S
C419 C418 1.376 . S
C419 C420 1.388 . S
C420 H407 0.930 . S
C420 C419 1.388 . S
C420 C421 1.390 . S
C421 C420 1.390 . S
C421 C422 1.394 . S
C421 C427 1.465 1_655 S
C422 C417 1.399 . S
C422 C421 1.394 . S
C422 C423 1.516 1_655 S
C423 C422 1.516 1_455 S
C423 C424 1.502 . S
C423 C425 1.561 . S
C423 C426 1.526 . S
C424 H408 0.959 . S
C424 H409 0.959 . S
C424 H410 0.961 1_455 S
C424 C423 1.502 . S
C425 H411 0.960 1_455 S
C425 H412 0.961 . S
C425 H413 0.959 . S
C425 C423 1.561 . S
C426 C423 1.526 . S
C426 C427 1.396 . S
C426 C431 1.390 . S
C427 C421 1.465 1_455 S
C427 C426 1.396 . S
C427 C428 1.399 . S
C428 H414 0.929 . S
C428 C427 1.399 . S
C428 C429 1.385 . S
C429 H415 0.931 . S
C429 C428 1.385 . S
C429 C430 1.389 . S
C430 C429 1.389 . S
C430 C431 1.387 . S
C431 H416 0.930 . S
C431 C426 1.390 . S
C431 C430 1.387 . S
H432 C444 0.930 . S
H433 C446 0.930 . S
H434 C447 0.930 . S
H435 C451 0.959 . S
H436 C451 0.959 . S
H437 C451 0.961 . S
H438 C452 0.960 . S
H439 C452 0.961 . S
H440 C452 0.959 . S
H441 C455 0.929 . S
H442 C456 0.931 . S
H443 C458 0.930 . S
C444 H432 0.930 . S
C444 C445 1.399 . S
C444 C449 1.399 . S
C445 C444 1.399 . S
C445 C446 1.376 . S
C446 H433 0.930 . S
C446 C445 1.376 . S
C446 C447 1.388 . S
C447 H434 0.930 . S
C447 C446 1.388 . S
C447 C448 1.390 . S
C448 C447 1.390 . S
C448 C449 1.394 . S
C448 C454 1.465 . S
C449 C444 1.399 . S
C449 C448 1.394 . S
C449 C450 1.516 . S
C450 C449 1.516 . S
C450 C451 1.502 . S
C450 C452 1.561 . S
C450 C453 1.526 . S
C451 H435 0.959 . S
C451 H436 0.959 . S
C451 H437 0.961 . S
C451 C450 1.502 . S
C452 H438 0.960 . S
C452 H439 0.961 . S
C452 H440 0.959 . S
C452 C450 1.561 . S
C453 C450 1.526 . S
C453 C454 1.396 . S
C453 C458 1.390 . S
C454 C448 1.465 . S
C454 C453 1.396 . S
C454 C455 1.399 . S
C455 H441 0.929 . S
C455 C454 1.399 . S
C455 C456 1.385 . S
C456 H442 0.931 . S
C456 C455 1.385 . S
C456 C457 1.389 . S
C457 C456 1.389 . S
C457 C458 1.387 . S
C458 H443 0.930 . S
C458 C453 1.390 . S
C458 C457 1.387 . S
H459 C471 0.930 . S
H460 C473 0.930 1_554 S
H461 C474 0.930 . S
H462 C478 0.959 . S
H463 C478 0.959 . S
H464 C478 0.961 . S
H465 C479 0.960 . S
H466 C479 0.961 . S
H467 C479 0.959 . S
H468 C482 0.929 . S
H469 C483 0.931 . S
H470 C485 0.930 1_556 S
C471 H459 0.930 . S
C471 C472 1.399 . S
C471 C476 1.399 . S
C472 C471 1.399 . S
C472 C473 1.376 . S
C473 H460 0.930 1_556 S
C473 C472 1.376 . S
C473 C474 1.388 1_556 S
C474 H461 0.930 . S
C474 C473 1.388 1_554 S
C474 C475 1.390 . S
C475 C474 1.390 . S
C475 C476 1.394 1_554 S
C475 C481 1.465 . S
C476 C471 1.399 . S
C476 C475 1.394 1_556 S
C476 C477 1.516 . S
C477 C476 1.516 . S
C477 C478 1.502 . S
C477 C479 1.561 . S
C477 C480 1.526 . S
C478 H462 0.959 . S
C478 H463 0.959 . S
C478 H464 0.961 . S
C478 C477 1.502 . S
C479 H465 0.960 . S
C479 H466 0.961 . S
C479 H467 0.959 . S
C479 C477 1.561 . S
C480 C477 1.526 . S
C480 C481 1.396 1_556 S
C480 C485 1.390 1_556 S
C481 C475 1.465 . S
C481 C480 1.396 1_554 S
C481 C482 1.399 . S
C482 H468 0.929 . S
C482 C481 1.399 . S
C482 C483 1.385 . S
C483 H469 0.931 . S
C483 C482 1.385 . S
C483 C484 1.389 . S
C484 C483 1.389 . S
C484 C485 1.387 . S
C485 H470 0.930 1_554 S
C485 C480 1.390 1_554 S
C485 C484 1.387 . S
H486 C498 0.930 . S
H487 C500 0.930 . S
H488 C501 0.930 . S
H489 C505 0.959 . S
H490 C505 0.959 . S
H491 C505 0.961 . S
H492 C506 0.960 . S
H493 C506 0.961 . S
H494 C506 0.959 . S
H495 C509 0.929 . S
H496 C510 0.931 . S
H497 C512 0.930 . S
C498 H486 0.930 . S
C498 C499 1.399 . S
C498 C503 1.399 . S
C499 C498 1.399 . S
C499 C500 1.376 . S
C500 H487 0.930 . S
C500 C499 1.376 . S
C500 C501 1.388 . S
C501 H488 0.930 . S
C501 C500 1.388 . S
C501 C502 1.390 . S
C502 C501 1.390 . S
C502 C503 1.394 . S
C502 C508 1.465 . S
C503 C498 1.399 . S
C503 C502 1.394 . S
C503 C504 1.516 . S
C504 C503 1.516 . S
C504 C505 1.502 . S
C504 C506 1.561 . S
C504 C507 1.526 . S
C505 H489 0.959 . S
C505 H490 0.959 . S
C505 H491 0.961 . S
C505 C504 1.502 . S
C506 H492 0.960 . S
C506 H493 0.961 . S
C506 H494 0.959 . S
C506 C504 1.561 . S
C507 C504 1.526 . S
C507 C508 1.396 . S
C507 C512 1.390 . S
C508 C502 1.465 . S
C508 C507 1.396 . S
C508 C509 1.399 . S
C509 H495 0.929 . S
C509 C508 1.399 . S
C509 C510 1.385 . S
C510 H496 0.931 . S
C510 C509 1.385 . S
C510 C511 1.389 . S
C511 C510 1.389 . S
C511 C512 1.387 . S
C512 H497 0.930 . S
C512 C507 1.390 . S
C512 C511 1.387 . S
H513 C525 0.924 1_556 S
H514 C527 0.930 . S
H515 C528 0.930 . S
H516 C532 0.959 . S
H517 C532 0.959 . S
H518 C532 0.961 . S
H519 C533 0.960 . S
H520 C533 0.961 . S
H521 C533 0.959 . S
H522 C536 0.929 . S
H523 C537 0.931 . S
H524 C539 0.930 . S
C525 H513 0.924 1_554 S
C525 C526 1.408 . S
C525 C530 1.396 1_554 S
C526 C525 1.408 . S
C526 C527 1.376 . S
C527 H514 0.930 . S
C527 C526 1.376 . S
C527 C528 1.388 . S
C528 H515 0.930 . S
C528 C527 1.388 . S
C528 C529 1.390 . S
C529 C528 1.390 . S
C529 C530 1.394 1_554 S
C529 C535 1.465 . S
C530 C525 1.396 1_556 S
C530 C529 1.394 1_556 S
C530 C531 1.516 . S
C531 C530 1.516 . S
C531 C532 1.502 . S
C531 C533 1.561 . S
C531 C534 1.526 . S
C532 H516 0.959 . S
C532 H517 0.959 . S
C532 H518 0.961 . S
C532 C531 1.502 . S
C533 H519 0.960 . S
C533 H520 0.961 . S
C533 H521 0.959 . S
C533 C531 1.561 . S
C534 C531 1.526 . S
C534 C535 1.396 1_556 S
C534 C539 1.390 . S
C535 C529 1.465 . S
C535 C534 1.396 1_554 S
C535 C536 1.399 . S
C536 H522 0.929 . S
C536 C535 1.399 . S
C536 C537 1.385 . S
C537 H523 0.931 . S
C537 C536 1.385 . S
C537 C538 1.389 1_554 S
C538 C537 1.389 1_556 S
C538 C539 1.387 . S
C539 H524 0.930 . S
C539 C534 1.390 . S
C539 C538 1.387 . S
H540 C552 0.930 . S
H541 C554 0.930 . S
H542 C555 0.930 1_556 S
H543 C559 0.959 1_556 S
H544 C559 0.959 1_565 S
H545 C559 0.961 . S
H546 C560 0.960 . S
H547 C560 0.961 . S
H548 C560 0.959 . S
H549 C563 0.929 . S
H550 C564 0.931 . S
H551 C566 0.930 . S
C552 H540 0.930 . S
C552 C553 1.399 1_455 S
C552 C557 1.399 . S
C553 C552 1.399 1_655 S
C553 C554 1.376 . S
C554 H541 0.930 . S
C554 C553 1.376 . S
C554 C555 1.388 . S
C555 H542 0.930 1_554 S
C555 C554 1.388 . S
C555 C556 1.390 . S
C556 C555 1.390 . S
C556 C557 1.394 1_655 S
C556 C562 1.465 1_544 S
C557 C552 1.399 . S
C557 C556 1.394 1_455 S
C557 C558 1.516 1_545 S
C558 C557 1.516 1_565 S
C558 C559 1.502 1_565 S
C558 C560 1.561 . S
C558 C561 1.526 1_554 S
C559 H543 0.959 1_554 S
C559 H544 0.959 1_545 S
C559 H545 0.961 . S
C559 C558 1.502 1_545 S
C560 H546 0.960 . S
C560 H547 0.961 . S
C560 H548 0.959 . S
C560 C558 1.561 . S
C561 C558 1.526 1_556 S
C561 C562 1.396 1_455 S
C561 C566 1.390 . S
C562 C556 1.465 1_566 S
C562 C561 1.396 1_655 S
C562 C563 1.399 . S
C563 H549 0.929 . S
C563 C562 1.399 . S
C563 C564 1.385 . S
C564 H550 0.931 . S
C564 C563 1.385 . S
C564 C565 1.389 1_655 S
C565 C564 1.389 1_455 S
C565 C566 1.387 . S
C566 H551 0.930 . S
C566 C561 1.390 . S
C566 C565 1.387 . S
H567 C579 0.930 . S
H568 C581 0.930 . S
H569 C582 0.930 . S
H570 C586 0.959 . S
H571 C586 0.959 . S
H572 C586 0.961 1_545 S
H573 C587 0.960 . S
H574 C587 0.961 . S
H575 C587 0.959 . S
H576 C590 0.929 . S
H577 C591 0.931 . S
H578 C593 0.930 . S
C579 H567 0.930 . S
C579 C580 1.399 . S
C579 C584 1.399 . S
C580 C579 1.399 . S
C580 C581 1.376 1_455 S
C581 H568 0.930 . S
C581 C580 1.376 1_655 S
C581 C582 1.388 . S
C582 H569 0.930 . S
C582 C581 1.388 . S
C582 C583 1.390 . S
C583 C582 1.390 . S
C583 C584 1.394 1_655 S
C583 C589 1.465 1_545 S
C584 C579 1.399 . S
C584 C583 1.394 1_455 S
C584 C585 1.516 . S
C585 C584 1.516 . S
C585 C586 1.502 1_545 S
C585 C587 1.561 . S
C585 C588 1.526 1_545 S
C586 H570 0.959 . S
C586 H571 0.959 . S
C586 H572 0.961 1_565 S
C586 C585 1.502 1_565 S
C587 H573 0.960 . S
C587 H574 0.961 . S
C587 H575 0.959 . S
C587 C585 1.561 . S
C588 C585 1.526 1_565 S
C588 C589 1.396 1_455 S
C588 C593 1.390 . S
C589 C583 1.465 1_565 S
C589 C588 1.396 1_655 S
C589 C590 1.399 . S
C590 H576 0.929 . S
C590 C589 1.399 . S
C590 C591 1.385 . S
C591 H577 0.931 . S
C591 C590 1.385 . S
C591 C592 1.389 . S
C592 C591 1.389 . S
C592 C593 1.387 1_655 S
C593 H578 0.930 . S
C593 C588 1.390 . S
C593 C592 1.387 1_455 S
H594 C606 0.930 . S
H595 C608 0.930 . S
H596 C609 0.930 . S
H597 C613 0.959 . S
H598 C613 0.959 . S
H599 C613 0.961 . S
H600 C614 0.960 . S
H601 C614 0.961 . S
H602 C614 0.959 . S
H603 C617 0.929 . S
H604 C618 0.931 . S
H605 C620 0.930 . S
C606 H594 0.930 . S
C606 C607 1.399 . S
C606 C611 1.399 . S
C607 C606 1.399 . S
C607 C608 1.376 . S
C608 H595 0.930 . S
C608 C607 1.376 . S
C608 C609 1.388 . S
C609 H596 0.930 . S
C609 C608 1.388 . S
C609 C610 1.390 . S
C610 C609 1.390 . S
C610 C611 1.394 . S
C610 C616 1.465 . S
C611 C606 1.399 . S
C611 C610 1.394 . S
C611 C612 1.516 1_554 S
C612 C611 1.516 1_556 S
C612 C613 1.502 . S
C612 C614 1.561 . S
C612 C615 1.526 . S
C613 H597 0.959 . S
C613 H598 0.959 . S
C613 H599 0.961 . S
C613 C612 1.502 . S
C614 H600 0.960 . S
C614 H601 0.961 . S
C614 H602 0.959 . S
C614 C612 1.561 . S
C615 C612 1.526 . S
C615 C616 1.396 1_556 S
C615 C620 1.390 . S
C616 C610 1.465 . S
C616 C615 1.396 1_554 S
C616 C617 1.399 . S
C617 H603 0.929 . S
C617 C616 1.399 . S
C617 C618 1.385 1_554 S
C618 H604 0.931 . S
C618 C617 1.385 1_556 S
C618 C619 1.389 . S
C619 C618 1.389 . S
C619 C620 1.387 . S
C620 H605 0.930 . S
C620 C615 1.390 . S
C620 C619 1.387 . S
H621 C633 0.930 . S
H622 C635 0.930 . S
H623 C636 0.930 . S
H624 C640 0.959 . S
H625 C640 0.959 . S
H626 C640 0.961 . S
H627 C641 0.960 . S
H628 C641 0.961 . S
H629 C641 0.959 . S
H630 C644 0.929 . S
H631 C645 0.931 . S
H632 C647 0.930 . S
C633 H621 0.930 . S
C633 C634 1.399 . S
C633 C638 1.399 . S
C634 C633 1.399 . S
C634 C635 1.376 . S
C635 H622 0.930 . S
C635 C634 1.376 . S
C635 C636 1.388 . S
C636 H623 0.930 . S
C636 C635 1.388 . S
C636 C637 1.390 . S
C637 C636 1.390 . S
C637 C638 1.394 . S
C637 C643 1.465 . S
C638 C633 1.399 . S
C638 C637 1.394 . S
C638 C639 1.516 . S
C639 C638 1.516 . S
C639 C640 1.502 . S
C639 C641 1.561 . S
C639 C642 1.526 . S
C640 H624 0.959 . S
C640 H625 0.959 . S
C640 H626 0.961 . S
C640 C639 1.502 . S
C641 H627 0.960 . S
C641 H628 0.961 . S
C641 H629 0.959 . S
C641 C639 1.561 . S
C642 C639 1.526 . S
C642 C643 1.396 . S
C642 C647 1.390 . S
C643 C637 1.465 . S
C643 C642 1.396 . S
C643 C644 1.399 . S
C644 H630 0.929 . S
C644 C643 1.399 . S
C644 C645 1.385 . S
C645 H631 0.931 . S
C645 C644 1.385 . S
C645 C646 1.389 . S
C646 C645 1.389 . S
C646 C647 1.387 . S
C647 H632 0.930 . S
C647 C642 1.390 . S
C647 C646 1.387 . S
C229 C5 1.834 1_556 S
C241 C13 1.897 . S
C256 C59 1.890 1_655 S
C268 C67 1.838 1_554 S
C283 C113 1.838 1_556 S
C295 C121 1.896 . S
C310 C175 1.882 1_554 S
C322 C167 1.843 . S
C337 C10 0.708 . S
C349 C27 0.738 . S
C364 C64 0.743 . S
C376 C81 0.703 . S
C391 C135 0.718 . S
C403 C118 0.730 . S
C418 C189 0.746 . S
C430 C172 0.697 . S
C445 C190 1.576 . S
C457 C35 1.514 . S
C472 C194 2.157 . S
C484 C22 2.147 . S
C499 C143 1.561 . S
C511 C82 1.532 . S
C526 C130 2.123 . S
C538 C86 2.190 . S
C553 C28 0.658 . S
C565 C89 0.539 . S
C580 C32 1.961 . S
C592 C76 1.987 . S
C607 C136 0.574 . S
C619 C197 0.611 . S
C634 C184 1.963 . S
C646 C140 1.985 . S
