# Generated by pormake.
# Topology uov, (4)-cn, num edge types: 1
# Building blocks:
#     Node 0, Type 0, BuildingBlock: UXUYUI_clean_sbu_0, # of connection points: 4
#     Node 1, Type 0, BuildingBlock: UXUYUI_clean_sbu_0, # of connection points: 4
#     Node 2, Type 0, BuildingBlock: UXUYUI_clean_sbu_0, # of connection points: 4
#     Node 3, Type 0, BuildingBlock: UXUYUI_clean_sbu_0, # of connection points: 4
#     Node 4, Type 0, BuildingBlock: UXUYUI_clean_sbu_0, # of connection points: 4
#     Node 5, Type 0, BuildingBlock: UXUYUI_clean_sbu_0, # of connection points: 4
#     Node 6, Type 0, BuildingBlock: UXUYUI_clean_sbu_0, # of connection points: 4
#     Node 7, Type 0, BuildingBlock: UXUYUI_clean_sbu_0, # of connection points: 4
#     Edge 8, Type (0, 0), BuildingBlock: XIVTED_clean_linker_0, # of connection points: 2
#     Edge 9, Type (0, 0), BuildingBlock: XIVTED_clean_linker_0, # of connection points: 2
#     Edge 10, Type (0, 0), BuildingBlock: XIVTED_clean_linker_0, # of connection points: 2
#     Edge 11, Type (0, 0), BuildingBlock: XIVTED_clean_linker_0, # of connection points: 2
#     Edge 12, Type (0, 0), BuildingBlock: XIVTED_clean_linker_0, # of connection points: 2
#     Edge 13, Type (0, 0), BuildingBlock: XIVTED_clean_linker_0, # of connection points: 2
#     Edge 14, Type (0, 0), BuildingBlock: XIVTED_clean_linker_0, # of connection points: 2
#     Edge 15, Type (0, 0), BuildingBlock: XIVTED_clean_linker_0, # of connection points: 2
#     Edge 16, Type (0, 0), BuildingBlock: XIVTED_clean_linker_0, # of connection points: 2
#     Edge 17, Type (0, 0), BuildingBlock: XIVTED_clean_linker_0, # of connection points: 2
#     Edge 18, Type (0, 0), BuildingBlock: XIVTED_clean_linker_0, # of connection points: 2
#     Edge 19, Type (0, 0), BuildingBlock: XIVTED_clean_linker_0, # of connection points: 2
#     Edge 20, Type (0, 0), BuildingBlock: XIVTED_clean_linker_0, # of connection points: 2
#     Edge 21, Type (0, 0), BuildingBlock: XIVTED_clean_linker_0, # of connection points: 2
#     Edge 22, Type (0, 0), BuildingBlock: XIVTED_clean_linker_0, # of connection points: 2
#     Edge 23, Type (0, 0), BuildingBlock: XIVTED_clean_linker_0, # of connection points: 2
# Relax obj value: 0.339
# Max RMSD: 0.266
# Mean RMSD: 0.265
data_MOF--net-uov--node1-UXUYUI_clean_sbu_0--edge1-XIVTED_clean_linker_0
_symmetry_space_group_name_H-M    P1
_symmetry_Int_Tables_number       1
_symmetry_cell_setting            triclinic
loop_
_symmetry_equiv_pos_as_xyz
'x, y, z'
_cell_length_a     43.738046
_cell_length_b     43.750688
_cell_length_c     62.311581
_cell_angle_alpha  90.005956
_cell_angle_beta   90.021923
_cell_angle_gamma 90.273007
loop_
_atom_site_label
_atom_site_type_symbol
_atom_site_fract_x
_atom_site_fract_y
_atom_site_fract_z
_atom_type_partial_charge
Li0 Li 0.0226 0.22805 0.63386 0.0
Li1 Li 0.00845 0.27659 0.61567 0.0
Li2 Li 0.97896 0.23119 0.61058 0.0
Li3 Li 0.02892 0.2345 0.59457 0.0
C4 C 0.95683 0.25281 0.64623 0.0
N5 N 0.89757 0.2504 0.66151 0.0
C6 C 0.93719 0.27752 0.64313 0.0
C7 C 0.94647 0.22706 0.65737 0.0
C8 C 0.90728 0.27582 0.65091 0.0
C9 C 0.9164 0.22622 0.6649 0.0
C10 C 0.07224 0.27589 0.60932 0.0
C11 C 0.08869 0.31294 0.58305 0.0
N12 N 0.11717 0.31281 0.59182 0.0
C13 C 0.10166 0.27608 0.61806 0.0
C14 C 0.06566 0.29443 0.59166 0.0
C15 C 0.12406 0.29492 0.60899 0.0
C16 C 0.06316 0.18933 0.65453 0.0
N17 N 0.04074 0.21008 0.65811 0.0
C18 C 0.04485 0.20314 0.69599 0.0
C19 C 0.03141 0.21729 0.67827 0.0
C20 C 0.06793 0.18135 0.6928 0.0
C21 C 0.0771 0.17454 0.67173 0.0
H22 H 0.07002 0.18418 0.63825 0.0
H23 H 0.01342 0.23386 0.68054 0.0
C24 C 0.98261 0.33229 0.60659 0.0
N25 N 0.00587 0.31939 0.61774 0.0
C26 C 0.97882 0.36383 0.60668 0.0
C27 C 0.02311 0.36831 0.62978 0.0
C28 C 0.02593 0.33651 0.62934 0.0
C29 C -0.00063 0.38234 0.61822 0.0
H30 H 0.96689 0.31794 0.5977 0.0
H31 H 0.04424 0.3255 0.63803 0.0
C32 C 0.0035 0.16978 0.61268 0.0
N33 N 0.98797 0.10873 0.61686 0.0
C34 C 0.00368 0.15053 0.59475 0.0
C35 C 0.99572 0.15782 0.63277 0.0
C36 C 0.99565 0.11979 0.59718 0.0
C37 C 0.98787 0.12694 0.63454 0.0
C38 C 0.98206 0.25423 0.56826 0.0
C39 C 0.97753 0.22402 0.56165 0.0
C40 C 0.97519 0.27815 0.55423 0.0
C41 C 0.96606 0.21822 0.54113 0.0
C42 C 0.9638 0.27142 0.53381 0.0
N43 N 0.9595 0.24184 0.52774 0.0
C44 C 0.9197 0.2415 0.59674 0.0
C45 C 0.92813 0.18923 0.60449 0.0
C46 C 0.89174 0.2346 0.5871 0.0
N47 N 0.93778 0.2188 0.60443 0.0
C48 C 0.90042 0.18125 0.59484 0.0
C49 C 0.88243 0.20397 0.58518 0.0
H50 H 0.92789 0.26486 0.59689 0.0
H51 H 0.94251 0.1715 0.61081 0.0
C52 C 0.06641 0.19443 0.57272 0.0
N53 N 0.05303 0.22224 0.57085 0.0
C54 C 0.0805 0.18104 0.55506 0.0
C55 C 0.06881 0.22615 0.53422 0.0
C56 C 0.05456 0.23857 0.55229 0.0
C57 C 0.08114 0.19664 0.53539 0.0
H58 H 0.06503 0.18214 0.58775 0.0
H59 H 0.04371 0.26066 0.55124 0.0
O60 O 0.986 0.2538 0.63833 0.0
O61 O 0.05015 0.25745 0.61804 0.0
O62 O 0.01162 0.1999 0.61061 0.0
O63 O 0.99317 0.26055 0.58833 0.0
H64 H 0.94485 0.2977 0.63466 0.0
H65 H 0.96144 0.2079 0.66014 0.0
H66 H 0.89176 0.29469 0.64848 0.0
H67 H 0.90803 0.20634 0.67344 0.0
H68 H 0.08391 0.32742 0.56939 0.0
H69 H 0.1071 0.26181 0.63172 0.0
H70 H 0.04304 0.29461 0.58466 0.0
H71 H 0.14694 0.29532 0.61559 0.0
H72 H 0.03695 0.20881 0.71196 0.0
H73 H 0.09508 0.15821 0.66859 0.0
H74 H 0.95983 0.37356 0.59791 0.0
H75 H 0.03962 0.38175 0.63871 0.0
H76 H 0.00994 0.15918 0.57909 0.0
H77 H 0.99565 0.17216 0.64686 0.0
H78 H 0.99559 0.1047 0.58343 0.0
H79 H 0.98171 0.11745 0.64999 0.0
H80 H 0.98264 0.20529 0.57229 0.0
H81 H 0.9787 0.30167 0.55906 0.0
H82 H 0.96237 0.19494 0.53585 0.0
H83 H 0.95839 0.28971 0.52279 0.0
H84 H 0.87836 0.25294 0.58026 0.0
H85 H 0.89434 0.15729 0.59367 0.0
H86 H 0.09015 0.15838 0.55661 0.0
H87 H 0.06885 0.23878 0.51927 0.0
Li88 Li 0.23648 0.98868 0.39524 0.0
Li89 Li 0.28469 0.96637 0.38361 0.0
Li90 Li 0.23785 0.94522 0.37045 0.0
Li91 Li 0.25386 0.93935 0.40817 0.0
C92 C 0.26279 0.01555 0.35895 0.0
N93 N 0.28275 0.07254 0.34574 0.0
C94 C 0.28099 0.0335 0.3725 0.0
C95 C 0.25479 0.02659 0.33869 0.0
C96 C 0.29087 0.06223 0.36551 0.0
C97 C 0.26506 0.05548 0.33231 0.0
C98 C 0.28164 0.97933 0.43372 0.0
C99 C 0.3112 0.95731 0.46249 0.0
N100 N 0.29794 0.97696 0.47656 0.0
C101 C 0.26864 -0.00041 0.44842 0.0
C102 C 0.30341 0.95829 0.44076 0.0
C103 C 0.27706 -0.00207 0.47002 0.0
C104 C 0.19662 0.01522 0.42277 0.0
N105 N 0.21288 0.02252 0.40492 0.0
C106 C 0.19346 0.07357 0.40572 0.0
C107 C 0.21134 0.05093 0.39606 0.0
C108 C 0.17669 0.06652 0.42431 0.0
C109 C 0.17832 0.03685 0.43273 0.0
H110 H 0.19831 0.99253 0.4295 0.0
H111 H 0.2239 0.05619 0.38162 0.0
C112 C 0.33411 0.97641 0.35475 0.0
N113 N 0.32541 0.97655 0.3757 0.0
C114 C 0.36367 0.98555 0.34902 0.0
C115 C 0.37428 0.99534 0.38651 0.0
C116 C 0.34476 0.98574 0.39149 0.0
C117 C 0.38398 0.99548 0.36504 0.0
H118 H 0.31796 0.96962 0.34248 0.0
H119 H 0.33713 0.98618 0.40794 0.0
C120 C 0.183 0.95493 0.39182 0.0
N121 N 0.1223 0.96453 0.38175 0.0
C122 C 0.15999 0.94064 0.40376 0.0
C123 C 0.17516 0.97418 0.37479 0.0
C124 C 0.12942 0.94577 0.3984 0.0
C125 C 0.14434 0.97871 0.36994 0.0
C126 C 0.29883 0.9105 0.37308 0.0
C127 C 0.30029 0.9063 0.35087 0.0
C128 C 0.32405 0.90311 0.38581 0.0
C129 C 0.32721 0.89523 0.34171 0.0
C130 C 0.35057 0.89215 0.37604 0.0
N131 N 0.3516 0.88849 0.35438 0.0
C132 C 0.22235 0.93578 0.327 0.0
C133 C 0.19554 0.90466 0.35189 0.0
C134 C 0.20586 0.92311 0.30997 0.0
N135 N 0.2168 0.92647 0.34743 0.0
C136 C 0.17818 0.89175 0.33542 0.0
C137 C 0.18311 0.90099 0.31407 0.0
H138 H 0.23954 0.9531 0.32398 0.0
H139 H 0.19166 0.89774 0.36833 0.0
C140 C 0.23238 0.92586 0.44852 0.0
N141 N 0.25015 0.91411 0.43271 0.0
C142 C 0.22674 0.90916 0.46709 0.0
C143 C 0.25748 0.86814 0.45273 0.0
C144 C 0.2629 0.88593 0.43444 0.0
C145 C 0.23905 0.87977 0.46929 0.0
H146 H 0.22221 0.94814 0.4465 0.0
H147 H 0.27673 0.8771 0.42148 0.0
O148 O 0.25338 0.98699 0.3651 0.0
O149 O 0.27335 0.98035 0.41252 0.0
O150 O 0.21301 0.95017 0.39698 0.0
O151 O 0.27286 0.92182 0.38229 0.0
H152 H 0.28738 0.02552 0.38827 0.0
H153 H 0.2408 0.01294 0.32798 0.0
H154 H 0.30495 0.07635 0.37583 0.0
H155 H 0.25901 0.06431 0.31667 0.0
H156 H 0.32776 0.9409 0.46817 0.0
H157 H 0.25237 0.01656 0.44324 0.0
H158 H 0.3139 0.94262 0.4296 0.0
H159 H 0.26704 0.01338 0.48158 0.0
H160 H 0.19259 0.09619 0.3987 0.0
H161 H 0.16618 0.03058 0.44724 0.0
H162 H 0.37031 0.98555 0.33228 0.0
H163 H 0.3894 0.00251 0.39934 0.0
H164 H 0.16573 0.92577 0.41704 0.0
H165 H 0.19265 0.98553 0.36542 0.0
H166 H 0.11136 0.93485 0.4075 0.0
H167 H 0.13794 0.99351 0.3568 0.0
H168 H 0.28098 0.91182 0.34079 0.0
H169 H 0.32322 0.9059 0.40303 0.0
H170 H 0.32873 0.89208 0.32453 0.0
H171 H 0.37034 0.88653 0.38568 0.0
H172 H 0.21099 0.93055 0.2938 0.0
H173 H 0.16063 0.87522 0.3395 0.0
H174 H 0.21184 0.91872 0.47922 0.0
H175 H 0.26725 0.84549 0.45383 0.0
Li176 Li 0.96392 0.76556 0.62222 0.0
Li177 Li 0.9734 0.71603 0.60573 0.0
Li178 Li 0.00665 0.75951 0.59866 0.0
Li179 Li 0.95461 0.75715 0.5841 0.0
C180 C 0.02842 0.73548 0.63377 0.0
N181 N 0.0885 0.72978 0.64678 0.0
C182 C 0.04326 0.70738 0.63198 0.0
C183 C 0.04404 0.76063 0.64231 0.0
C184 C 0.07366 0.70497 0.63863 0.0
C185 C 0.07444 0.75731 0.64874 0.0
C186 C 0.91533 0.71497 0.6159 0.0
C187 C 0.88697 0.6683 0.61003 0.0
N188 N 0.87984 0.66738 0.63127 0.0
C189 C 0.90766 0.71362 0.63766 0.0
C190 C 0.90483 0.69221 0.60194 0.0
C191 C 0.88969 0.68936 0.64511 0.0
C192 C 0.92093 0.79993 0.64487 0.0
N193 N 0.94847 0.78594 0.64674 0.0
C194 C 0.95275 0.80167 0.68332 0.0
C195 C 0.96439 0.7863 0.66547 0.0
C196 C 0.92465 0.81689 0.68169 0.0
C197 C 0.90866 0.8159 0.66217 0.0
H198 H 0.90854 0.7987 0.62987 0.0
H199 H 0.98607 0.77466 0.66655 0.0
C200 C 0.98135 0.65579 0.59243 0.0
N201 N 0.9735 0.67314 0.6096 0.0
C202 C 0.98263 0.62414 0.59423 0.0
C203 C 0.96816 0.62867 0.63155 0.0
C204 C 0.96726 0.66038 0.62902 0.0
C205 C 0.97586 0.61014 0.61395 0.0
H206 H 0.98711 0.66656 0.57738 0.0
H207 H 0.96172 0.67485 0.64252 0.0
C208 C 0.96771 0.8203 0.60473 0.0
N209 N 0.94937 0.87637 0.62041 0.0
C210 C 0.9407 0.83361 0.59731 0.0
C211 C 0.98551 0.83561 0.62 0.0
C212 C 0.93181 0.86196 0.60545 0.0
C213 C 0.9758 0.86389 0.62777 0.0
C214 C 0.98813 0.72813 0.55619 0.0
C215 C 0.00794 0.74582 0.54365 0.0
C216 C 0.96605 0.70978 0.54622 0.0
C217 C 0.00525 0.74492 0.52132 0.0
C218 C 0.96404 0.70957 0.52385 0.0
N219 N 0.98352 0.727 0.51196 0.0
C220 C 0.06714 0.74763 0.58664 0.0
C221 C 0.0554 0.8003 0.58964 0.0
C222 C 0.09603 0.75453 0.57844 0.0
N223 N 0.04743 0.77042 0.59174 0.0
C224 C 0.08402 0.80826 0.58142 0.0
C225 C 0.1045 0.7852 0.5752 0.0
H226 H 0.0599 0.72405 0.58809 0.0
H227 H 0.03901 0.81792 0.59336 0.0
C228 C 0.90132 0.75645 0.55787 0.0
N229 N 0.92996 0.76813 0.56029 0.0
C230 C 0.8836 0.76467 0.54015 0.0
C231 C 0.92527 0.79671 0.52786 0.0
C232 C 0.94206 0.78803 0.54584 0.0
C233 C 0.89559 0.78504 0.52485 0.0
H234 H 0.8922 0.74087 0.56972 0.0
H235 H 0.96477 0.79723 0.54838 0.0
O236 O -0.00117 0.73844 0.62701 0.0
O237 O 0.93321 0.73833 0.60833 0.0
O238 O 0.97651 0.7923 0.59726 0.0
O239 O 0.98992 0.72919 0.57811 0.0
H240 H 0.03155 0.6877 0.62535 0.0
H241 H 0.03293 0.78257 0.64372 0.0
H242 H 0.08549 0.6834 0.63725 0.0
H243 H 0.08688 0.77662 0.65525 0.0
H244 H 0.87887 0.65041 0.59945 0.0
H245 H 0.91568 0.73095 0.64871 0.0
H246 H 0.91078 0.69276 0.5851 0.0
H247 H 0.88367 0.68796 0.66192 0.0
H248 H 0.96573 0.80197 0.69812 0.0
H249 H 0.8867 0.82695 0.66042 0.0
H250 H 0.98945 0.61083 0.5804 0.0
H251 H 0.96273 0.6188 0.64703 0.0
H252 H 0.92656 0.82202 0.58559 0.0
H253 H 0.00639 0.82557 0.62598 0.0
H254 H 0.91088 0.87246 0.59995 0.0
H255 H 0.98922 0.87589 0.63971 0.0
H256 H 0.02498 0.76038 0.55104 0.0
H257 H 0.9503 0.6962 0.55567 0.0
H258 H 0.02034 0.75858 0.51142 0.0
H259 H 0.94692 0.69565 0.51593 0.0
H260 H 0.11115 0.73604 0.57401 0.0
H261 H 0.08929 0.83218 0.57884 0.0
H262 H 0.86084 0.75513 0.5384 0.0
H263 H 0.93516 0.81295 0.5167 0.0
Li264 Li 0.76068 0.04516 0.36746 0.0
Li265 Li 0.747 0.05375 0.405 0.0
Li266 Li 0.75403 0.00219 0.39079 0.0
Li267 Li 0.71006 0.03278 0.38073 0.0
C268 C 0.81284 0.0458 0.38827 0.0
N269 N 0.86908 0.0692 0.37623 0.0
C270 C 0.82326 0.07348 0.39686 0.0
C271 C 0.8311 0.02997 0.37362 0.0
C272 C 0.85176 0.08492 0.39057 0.0
C273 C 0.85942 0.04221 0.36771 0.0
C274 C 0.70725 0.09034 0.37046 0.0
C275 C 0.65918 0.11681 0.37334 0.0
N276 N 0.65933 0.12149 0.35176 0.0
C277 C 0.70697 0.09546 0.34832 0.0
C278 C 0.68324 0.10118 0.38311 0.0
C279 C 0.68253 0.11127 0.33917 0.0
C280 C 0.78703 0.04531 0.3259 0.0
N281 N 0.78306 0.06173 0.34417 0.0
C282 C 0.81241 0.10319 0.33003 0.0
C283 C 0.79495 0.09029 0.34642 0.0
C284 C 0.81722 0.08674 0.31096 0.0
C285 C 0.8041 0.05745 0.30898 0.0
H286 H 0.77687 0.02285 0.32444 0.0
H287 H 0.79109 0.10289 0.3611 0.0
C288 C 0.77243 0.06581 0.44494 0.0
N289 N 0.75434 0.07827 0.42957 0.0
C290 C 0.77872 0.08187 0.46373 0.0
C291 C 0.74817 0.1237 0.45035 0.0
C292 C 0.74226 0.10665 0.43182 0.0
C293 C 0.76658 0.11124 0.46661 0.0
H294 H 0.78204 0.04334 0.44252 0.0
H295 H 0.72818 0.11608 0.41923 0.0
C296 C 0.73567 0.97849 0.35498 0.0
N297 N 0.7346 0.91761 0.34321 0.0
C298 C 0.70843 0.96174 0.35613 0.0
C299 C 0.76235 0.96431 0.34778 0.0
C300 C 0.70836 0.93098 0.3501 0.0
C301 C 0.76134 0.9335 0.34194 0.0
C302 C 0.71607 0.01834 0.43102 0.0
C303 C 0.73156 -0.00182 0.44457 0.0
C304 C 0.69697 0.04057 0.43991 0.0
C305 C 0.72768 0.00059 0.46676 0.0
C306 C 0.69377 0.04229 0.46218 0.0
N307 N 0.70905 0.02242 0.47504 0.0
C308 C 0.79835 0.95879 0.40162 0.0
C309 C 0.74744 0.94006 0.40312 0.0
C310 C 0.80933 0.93169 0.41038 0.0
N311 N 0.76789 0.96263 0.39851 0.0
C312 C 0.75743 0.91255 0.41203 0.0
C313 C 0.78872 0.90841 0.41622 0.0
H314 H 0.81401 0.97732 0.39831 0.0
H315 H 0.72327 0.944 0.40084 0.0
C316 C 0.65954 0.03212 0.3523 0.0
N317 N 0.66808 0.03166 0.3733 0.0
C318 C 0.62857 0.0321 0.34679 0.0
C319 C 0.61604 0.03114 0.38459 0.0
C320 C 0.64712 0.03081 0.38934 0.0
C321 C 0.60646 0.0319 0.3631 0.0
H322 H 0.67682 0.03264 0.33989 0.0
H323 H 0.65451 0.02987 0.40582 0.0
O324 O 0.78477 0.03446 0.39394 0.0
O325 O 0.73057 0.07425 0.37963 0.0
O326 O 0.73634 0.00847 0.36116 0.0
O327 O 0.71996 0.0167 0.40924 0.0
H328 H 0.8094 0.08618 0.40807 0.0
H329 H 0.82325 0.0087 0.36662 0.0
H330 H 0.86005 0.10636 0.39702 0.0
H331 H 0.87366 0.03032 0.35627 0.0
H332 H 0.64033 0.12511 0.3829 0.0
H333 H 0.72524 0.08705 0.33826 0.0
H334 H 0.68291 0.09711 0.40023 0.0
H335 H 0.68195 0.11529 0.32205 0.0
H336 H 0.82233 0.12565 0.33242 0.0
H337 H 0.80664 0.04417 0.29443 0.0
H338 H 0.79358 0.07169 0.47563 0.0
H339 H 0.73843 0.14629 0.45197 0.0
H340 H 0.68763 0.97225 0.36184 0.0
H341 H 0.78369 0.97687 0.34699 0.0
H342 H 0.68747 0.9177 0.35099 0.0
H343 H 0.78185 0.92219 0.33646 0.0
H344 H 0.74671 0.98107 0.43811 0.0
H345 H 0.68535 0.05686 0.42977 0.0
H346 H 0.73961 0.98519 0.47742 0.0
H347 H 0.67929 0.05955 0.46925 0.0
H348 H 0.83355 0.9298 0.41372 0.0
H349 H 0.7408 0.89515 0.41625 0.0
H350 H 0.62198 0.03265 0.33003 0.0
H351 H 0.59964 0.03033 0.3976 0.0
Li352 Li 0.96947 0.23623 0.08947 0.0
Li353 Li 0.97794 0.22231 0.12716 0.0
Li354 Li 0.99433 0.27387 0.11309 0.0
Li355 Li 0.02251 0.22785 0.10396 0.0
C356 C 0.92215 0.26246 0.11253 0.0
N357 N 0.86083 0.27505 0.10653 0.0
C358 C 0.89987 0.24116 0.1186 0.0
C359 C 0.91315 0.29045 0.1038 0.0
C360 C 0.86902 0.24785 0.11532 0.0
C361 C 0.88207 0.29632 0.10079 0.0
C362 C 0.98423 0.16777 0.10512 0.0
C363 C -0.00266 0.12238 0.12503 0.0
N364 N 0.97582 0.10637 0.11391 0.0
C365 C 0.96244 0.15079 0.09375 0.0
C366 C 0.002 0.15339 0.12076 0.0
C367 C 0.95847 0.11981 0.09847 0.0
C368 C 0.95186 0.23991 0.04558 0.0
N369 N 0.9432 0.22998 0.06535 0.0
C370 C 0.89815 0.20698 0.05065 0.0
C371 C 0.91691 0.2138 0.06814 0.0
C372 C 0.90652 0.21686 0.02999 0.0
C373 C 0.93365 0.23389 0.02766 0.0
H374 H 0.9733 0.25185 0.04354 0.0
H375 H 0.91107 0.20512 0.08384 0.0
C376 C 0.96807 0.21267 0.17105 0.0
N377 N 0.96081 0.20182 0.15124 0.0
C378 C 0.95512 0.1995 0.18934 0.0
C379 C 0.92774 0.16405 0.1665 0.0
C380 C 0.94096 0.17809 0.14867 0.0
C381 C 0.93462 0.17491 0.18714 0.0
H382 H 0.98363 0.23183 0.1726 0.0
H383 H 0.93476 0.17048 0.13277 0.0
C384 C 0.01152 0.28495 0.07112 0.0
N385 N 0.01963 0.33582 0.0454 0.0
C386 C 0.04018 0.29137 0.06223 0.0
C387 C 0.98692 0.30419 0.06667 0.0
C388 C 0.04384 0.31725 0.04933 0.0
C389 C 0.99148 0.32985 0.05371 0.0
C390 C 0.04347 0.24274 0.14338 0.0
C391 C 0.06543 0.266 0.14232 0.0
C392 C 0.04945 0.21648 0.15541 0.0
C393 C 0.09336 0.26224 0.15285 0.0
C394 C 0.07764 0.21359 0.16574 0.0
N395 N 0.09886 0.23631 0.16422 0.0
C396 C 0.97598 0.33064 0.13027 0.0
C397 C 0.02349 0.33124 0.11196 0.0
C398 C 0.97759 0.36221 0.13339 0.0
N399 N -0.00157 0.31604 0.11928 0.0
C400 C 0.02592 0.36277 0.11454 0.0
C401 C 0.00251 0.37869 0.12504 0.0
H402 H 0.95652 0.31785 0.13619 0.0
H403 H 0.04137 0.31896 0.10374 0.0
C404 C 0.06584 0.18386 0.09091 0.0
N405 N 0.06211 0.21358 0.09661 0.0
C406 C 0.09361 0.17398 0.08249 0.0
C407 C 0.11346 0.22536 0.08626 0.0
C408 C 0.08535 0.23418 0.09482 0.0
C409 C 0.11758 0.19503 0.07955 0.0
H410 H 0.04685 0.16812 0.0918 0.0
H411 H 0.08159 0.25782 0.09906 0.0
O412 O 0.95249 0.25629 0.1157 0.0
O413 O 0.98813 0.19825 0.10091 0.0
O414 O 0.00762 0.26006 0.08418 0.0
O415 O 0.01604 0.24596 0.13307 0.0
H416 H 0.9063 0.21951 0.12553 0.0
H417 H 0.92988 0.30766 0.09958 0.0
H418 H 0.85159 0.2314 0.11976 0.0
H419 H 0.87484 0.31785 0.09398 0.0
H420 H 0.01086 0.11103 0.13716 0.0
H421 H 0.94877 0.16137 0.0814 0.0
H422 H 0.01925 0.16605 0.12945 0.0
H423 H 0.9416 0.10644 0.08986 0.0
H424 H 0.87795 0.19307 0.05324 0.0
H425 H 0.94102 0.24215 0.01211 0.0
H426 H 0.96105 0.20846 0.20501 0.0
H427 H 0.91158 0.14552 0.16412 0.0
H428 H 0.05943 0.27658 0.06525 0.0
H429 H 0.96453 0.2992 0.07305 0.0
H430 H 0.06593 0.32256 0.04244 0.0
H431 H 0.97262 0.34497 0.05021 0.0
H432 H 0.06107 0.28662 0.13331 0.0
H433 H 0.03243 0.19864 0.15694 0.0
H434 H 0.11066 0.27995 0.15199 0.0
H435 H 0.08261 0.19332 0.17503 0.0
H436 H 0.95905 0.37373 0.14154 0.0
H437 H 0.04574 0.37464 0.10819 0.0
H438 H 0.09557 0.15055 0.07707 0.0
H439 H 0.13137 0.24228 0.08421 0.0
Li440 Li 0.24737 0.03686 0.90639 0.0
Li441 Li 0.23464 0.9869 0.8943 0.0
Li442 Li 0.28147 0.01022 0.88218 0.0
Li443 Li 0.22926 0.02904 0.8695 0.0
C444 C 0.26904 0.99003 0.9326 0.0
N445 N 0.26549 0.97114 0.97484 0.0
C446 C 0.24102 0.9903 0.94336 0.0
C447 C 0.29526 0.98012 0.94331 0.0
C448 C 0.23968 0.98066 0.96471 0.0
C449 C 0.293 0.97068 0.96467 0.0
C450 C 0.1766 0.0196 0.89936 0.0
C451 C 0.12614 0.00935 0.88534 0.0
N452 N 0.11416 0.0141 0.90519 0.0
C453 C 0.16372 0.02471 0.91957 0.0
C454 C 0.15762 0.01213 0.88205 0.0
C455 C 0.13213 0.02168 0.92221 0.0
C456 C 0.22114 0.08462 0.92924 0.0
N457 N 0.24513 0.06504 0.92949 0.0
C458 C 0.26163 0.08426 0.96349 0.0
C459 C 0.26572 0.065 0.94586 0.0
C460 C 0.23645 0.10403 0.96397 0.0
C461 C 0.21641 0.10452 0.94636 0.0
H462 H 0.20528 0.08422 0.91592 0.0
H463 H 0.28496 0.04961 0.94544 0.0
C464 C 0.24009 0.92795 0.91117 0.0
N465 N 0.21895 0.94804 0.90371 0.0
C466 C 0.2309 0.90146 0.92187 0.0
C467 C 0.17832 0.9155 0.91556 0.0
C468 C 0.18855 0.94175 0.905 0.0
C469 C 0.19962 0.8955 0.92482 0.0
H470 H 0.26417 0.93321 0.90964 0.0
H471 H 0.17208 0.95753 0.89867 0.0
C472 C 0.27565 0.08065 0.88648 0.0
N473 N 0.29395 0.1366 0.90264 0.0
C474 C 0.25795 0.10662 0.88279 0.0
C475 C 0.30272 0.0831 0.89829 0.0
C476 C 0.26758 0.13471 0.89112 0.0
C477 C 0.31157 0.1116 0.90635 0.0
C478 C 0.24225 0.96018 0.85768 0.0
C479 C 0.26311 0.93631 0.85997 0.0
C480 C 0.21318 0.95423 0.84932 0.0
C481 C 0.25434 0.9067 0.85415 0.0
C482 C 0.20528 0.92431 0.84367 0.0
N483 N 0.22583 0.90136 0.84621 0.0
C484 C 0.33685 0.97931 0.88299 0.0
C485 C 0.33803 0.02579 0.86341 0.0
C486 C 0.36809 0.97528 0.87979 0.0
N487 N 0.32267 0.00436 0.87498 0.0
C488 C 0.36942 0.02285 0.86 0.0
C489 C 0.38496 -0.00247 0.86852 0.0
H490 H 0.32395 0.96282 0.89228 0.0
H491 H 0.32607 0.04563 0.85743 0.0
C492 C 0.18761 0.06996 0.85151 0.0
N493 N 0.20737 0.04706 0.8468 0.0
C494 C 0.17116 0.08418 0.83518 0.0
C495 C 0.19583 0.05099 0.80947 0.0
C496 C 0.21176 0.03734 0.82634 0.0
C497 C 0.17525 0.07481 0.8138 0.0
H498 H 0.18461 0.07708 0.868 0.0
H499 H 0.22777 0.01914 0.82314 0.0
O500 O 0.27096 -0.00086 0.91163 0.0
O501 O 0.20745 0.02301 0.89642 0.0
O502 O 0.26614 0.05278 0.87906 0.0
O503 O 0.25011 0.98916 0.86385 0.0
H504 H 0.22053 -0.00236 0.93527 0.0
H505 H 0.31712 0.97974 0.93517 0.0
H506 H 0.21812 0.98069 0.9732 0.0
H507 H 0.31311 0.96297 0.97316 0.0
H508 H 0.11124 0.0034 0.87211 0.0
H509 H 0.1779 0.03109 0.93309 0.0
H510 H 0.16706 0.00829 0.86627 0.0
H511 H 0.12189 0.02545 0.93778 0.0
H512 H 0.27768 0.08343 0.97671 0.0
H513 H 0.19651 0.11916 0.94623 0.0
H514 H 0.24811 0.88637 0.9284 0.0
H515 H 0.15397 0.91192 0.9175 0.0
H516 H 0.23688 0.10506 0.87376 0.0
H517 H 0.3165 0.06312 0.90147 0.0
H518 H 0.25404 0.155 0.88849 0.0
H519 H 0.33236 0.11383 0.91563 0.0
H520 H 0.2857 0.94055 0.86639 0.0
H521 H 0.19688 0.97248 0.84726 0.0
H522 H 0.27017 0.88796 0.85599 0.0
H523 H 0.1828 0.91934 0.83729 0.0
H524 H 0.37897 0.95514 0.88633 0.0
H525 H 0.38151 0.04077 0.85148 0.0
H526 H 0.15523 0.10212 0.83929 0.0
H527 H 0.2 0.04332 0.79322 0.0
Li528 Li 0.98039 0.75698 0.10553 0.0
Li529 Li 0.00692 0.71302 0.11723 0.0
Li530 Li 0.01691 0.76422 0.13347 0.0
Li531 Li 0.03237 0.7524 0.09593 0.0
C532 C 0.9502 0.73892 0.14165 0.0
N533 N 0.8903 0.73902 0.15562 0.0
C534 C 0.92897 0.7186 0.13273 0.0
C535 C 0.9411 0.75906 0.15782 0.0
C536 C 0.89874 0.71909 0.13996 0.0
C537 C 0.91067 0.7588 0.16463 0.0
C538 C 0.0097 0.70311 0.07389 0.0
C539 C 0.04876 0.66703 0.06391 0.0
N540 N 0.03166 0.65837 0.04671 0.0
C541 C 0.99252 0.69382 0.0561 0.0
C542 C 0.03807 0.68959 0.07784 0.0
C543 C 0.00401 0.67118 0.04255 0.0
C544 C 0.94507 0.76841 0.07068 0.0
N545 N 0.9431 0.7702 0.09238 0.0
C546 C 0.89271 0.79103 0.08978 0.0
C547 C 0.91766 0.78148 0.10212 0.0
C548 C 0.89415 0.789 0.06728 0.0
C549 C 0.92088 0.77763 0.05781 0.0
H550 H 0.96586 0.76038 0.06328 0.0
H551 H 0.91683 0.78371 0.11935 0.0
C552 C 0.0235 0.65656 0.13621 0.0
N553 N 0.00417 0.67064 0.12233 0.0
C554 C 0.02284 0.62475 0.13828 0.0
C555 C 0.98204 0.62294 0.11206 0.0
C556 C 0.9833 0.65466 0.11066 0.0
C557 C 0.00229 0.6076 0.12575 0.0
H558 H 0.03986 0.66996 0.14525 0.0
H559 H 0.96816 0.66655 0.09981 0.0
C560 C 0.99432 0.81447 0.10393 0.0
N561 N 0.9564 0.8637 0.09649 0.0
C562 C 0.99544 0.82987 0.0843 0.0
C563 C 0.9741 0.82428 0.11985 0.0
C564 C 0.97601 0.85464 0.08082 0.0
C565 C 0.9551 0.8492 0.11577 0.0
C566 C 0.07635 0.74181 0.12821 0.0
C567 C 0.08499 0.77251 0.12631 0.0
C568 C 0.09742 0.72046 0.13577 0.0
C569 C 0.11463 0.78132 0.13205 0.0
C570 C 0.12686 0.73017 0.1413 0.0
N571 N 0.13478 0.76014 0.13935 0.0
C572 C 0.04 0.7655 0.17513 0.0
C573 C 0.03269 0.81466 0.16006 0.0
C574 C 0.0541 0.77823 0.19314 0.0
N575 N 0.03001 0.78375 0.15898 0.0
C576 C 0.04618 0.82841 0.17793 0.0
C577 C 0.05773 0.81013 0.19462 0.0
H578 H 0.03815 0.74093 0.17355 0.0
H579 H 0.02536 0.82862 0.14675 0.0
C580 C 0.04684 0.77163 0.05523 0.0
N581 N 0.06021 0.75967 0.073 0.0
C582 C 0.06436 0.77916 0.03732 0.0
C583 C 0.10909 0.76045 0.05585 0.0
C584 C 0.0906 0.75324 0.07345 0.0
C585 C 0.09603 0.77401 0.03757 0.0
H586 H 0.02246 0.77556 0.0551 0.0
H587 H 0.10062 0.7426 0.08738 0.0
O588 O 0.97994 0.73862 0.13499 0.0
O589 O -0.00154 0.72518 0.0873 0.0
O590 O 0.01263 0.7897 0.10752 0.0
O591 O 0.0473 0.73261 0.12308 0.0
H592 H 0.93569 0.70287 0.12023 0.0
H593 H 0.9574 0.7747 0.16501 0.0
H594 H 0.88199 0.70365 0.13311 0.0
H595 H 0.90326 0.77432 0.17707 0.0
H596 H 0.07065 0.65639 0.0668 0.0
H597 H 0.97046 0.70393 0.05285 0.0
H598 H 0.05174 0.69629 0.0915 0.0
H599 H 0.99093 0.66377 0.02875 0.0
H600 H 0.87262 0.79992 0.09772 0.0
H601 H 0.9235 0.77659 0.04055 0.0
H602 H 0.03891 0.61364 0.14892 0.0
H603 H 0.96564 0.61049 0.10234 0.0
H604 H 0.01114 0.82286 0.07188 0.0
H605 H 0.97275 0.81247 0.13507 0.0
H606 H 0.97654 0.86669 0.06566 0.0
H607 H 0.93919 0.85687 0.1279 0.0
H608 H 0.06908 0.78939 0.12045 0.0
H609 H 0.09109 0.69662 0.13735 0.0
H610 H 0.12161 0.80499 0.13067 0.0
H611 H 0.14341 0.71388 0.14717 0.0
H612 H 0.06312 0.7631 0.20531 0.0
H613 H 0.048 0.85308 0.17843 0.0
H614 H 0.05329 0.78975 0.0237 0.0
H615 H 0.13331 0.75554 0.05655 0.0
Li616 Li 0.76279 0.01317 0.88562 0.0
Li617 Li 0.75587 0.96227 0.89805 0.0
Li618 Li 0.77088 0.97076 0.86097 0.0
Li619 Li 0.71955 0.98413 0.87395 0.0
C620 C 0.81505 0.9783 0.9033 0.0
N621 N 0.85627 0.97175 0.93662 0.0
C622 C 0.81172 0.9954 0.92211 0.0
C623 C 0.83939 0.95789 0.90146 0.0
C624 C 0.83279 0.99178 0.93876 0.0
C625 C 0.85997 0.95489 0.91848 0.0
C626 C 0.70537 0.99012 0.9168 0.0
C627 C 0.66944 0.95311 0.93071 0.0
N628 N 0.65706 0.97508 0.94342 0.0
C629 C 0.69233 0.01231 0.93003 0.0
C630 C 0.69388 0.96025 0.91717 0.0
C631 C 0.66791 0.00426 0.94337 0.0
C632 C 0.75674 0.07229 0.90299 0.0
N633 N 0.77689 0.0525 0.89405 0.0
C634 C 0.8189 0.08479 0.90346 0.0
C635 C 0.80732 0.05874 0.89338 0.0
C636 C 0.7989 0.10476 0.91415 0.0
C637 C 0.76729 0.09884 0.91306 0.0
H638 H 0.73262 0.06675 0.90313 0.0
H639 H 0.8228 0.04251 0.88617 0.0
C640 C 0.76586 0.90547 0.91791 0.0
N641 N 0.76184 0.93571 0.92176 0.0
C642 C 0.77239 0.88559 0.93478 0.0
C643 C 0.77038 0.92841 0.95925 0.0
C644 C 0.76313 0.9473 0.94197 0.0
C645 C 0.77561 0.89708 0.95578 0.0
H646 H 0.76454 0.89692 0.90167 0.0
H647 H 0.75949 0.97144 0.94458 0.0
C648 C 0.75944 0.03553 0.84758 0.0
N649 N 0.78488 0.08982 0.83337 0.0
C650 C 0.74153 0.06183 0.84613 0.0
C651 C 0.79033 0.0369 0.84189 0.0
C652 C 0.75481 0.08904 0.83889 0.0
C653 C 0.80275 0.06454 0.83471 0.0
C654 C 0.72738 0.92615 0.85526 0.0
C655 C 0.71858 0.94092 0.83635 0.0
C656 C 0.72471 0.89437 0.85673 0.0
C657 C 0.70731 0.92362 0.81922 0.0
C658 C 0.7133 0.87788 0.83925 0.0
N659 N 0.70493 0.89272 0.82101 0.0
C660 C 0.81265 0.93075 0.84213 0.0
C661 C 0.7885 0.96397 0.8174 0.0
C662 C 0.82875 0.91666 0.82557 0.0
N663 N 0.79325 0.95407 0.83779 0.0
C664 C 0.80389 0.95031 0.8003 0.0
C665 C 0.82437 0.92626 0.80426 0.0
H666 H 0.81524 0.92281 0.85844 0.0
H667 H 0.77235 0.98212 0.81438 0.0
C668 C 0.6629 0.01175 0.86329 0.0
N669 N 0.67693 0.98484 0.86777 0.0
C670 C 0.63113 0.01284 0.86107 0.0
C671 C 0.62901 0.95849 0.86793 0.0
C672 C 0.6607 0.95843 0.8699 0.0
C673 C 0.6138 0.98602 0.86381 0.0
H674 H 0.67623 0.0325 0.8622 0.0
H675 H 0.67218 0.93741 0.87391 0.0
O676 O 0.79435 0.98115 0.88693 0.0
O677 O 0.72913 -0.0021 0.90355 0.0
O678 O 0.74715 0.00884 0.85523 0.0
O679 O 0.7388 0.94247 0.87225 0.0
H680 H 0.79271 0.01086 0.92405 0.0
H681 H 0.84245 0.94451 0.88705 0.0
H682 H 0.83035 0.00475 0.95343 0.0
H683 H 0.87888 0.93914 0.91726 0.0
H684 H 0.66029 0.9301 0.9311 0.0
H685 H 0.70096 0.03553 0.92998 0.0
H686 H 0.7036 0.94273 0.90706 0.0
H687 H 0.65758 0.02122 0.95367 0.0
H688 H 0.84344 0.08805 0.90402 0.0
H689 H 0.75094 0.11387 0.92065 0.0
H690 H 0.77535 0.86156 0.93126 0.0
H691 H 0.77297 0.93863 0.97496 0.0
H692 H 0.71771 0.06135 0.85068 0.0
H693 H 0.80474 0.01699 0.84338 0.0
H694 H 0.74122 0.10957 0.83772 0.0
H695 H 0.82665 0.06593 0.83034 0.0
H696 H 0.72035 0.96546 0.83485 0.0
H697 H 0.73135 0.88255 0.87124 0.0
H698 H 0.70045 0.93476 0.8045 0.0
H699 H 0.71112 0.85328 0.84018 0.0
H700 H 0.84447 0.89845 0.82949 0.0
H701 H 0.7992 0.95808 0.78414 0.0
H702 H 0.62016 0.0346 0.85818 0.0
H703 H 0.61648 0.93729 0.87002 0.0
H704 H -0.00127 0.57639 0.64749 0.0
H705 H 0.98385 0.41846 0.58416 0.0
H706 H 0.95682 0.56705 0.58506 0.0
H707 H 0.00747 0.42315 0.65138 0.0
H708 H 0.97655 0.47353 0.58393 0.0
H709 H 0.00401 0.52076 0.64923 0.0
C710 C 0.99035 0.56266 0.63425 0.0
C711 C 0.97752 0.57643 0.61602 0.0
C712 C 0.98324 0.46255 0.59877 0.0
C713 C 0.98396 0.51295 0.61778 0.0
C714 C 0.98731 0.43104 0.59894 0.0
C715 C 0.99602 0.41606 0.61788 0.0
C716 C 0.98812 0.47941 0.61763 0.0
C717 C 0.00096 0.43375 0.63638 0.0
C718 C 0.99355 0.53094 0.63521 0.0
C719 C 0.96741 0.55751 0.59924 0.0
N720 N -0.00308 0.46454 0.6358 0.0
N721 N 0.97099 0.5268 0.60049 0.0
H722 H 0.57586 0.99589 0.33414 0.0
H723 H 0.41316 0.04653 0.37963 0.0
H724 H 0.56213 0.06736 0.38079 0.0
H725 H 0.42576 0.96838 0.33842 0.0
H726 H 0.46678 0.06024 0.37462 0.0
H727 H 0.52026 0.99135 0.32992 0.0
C728 C 0.56112 0.01097 0.34319 0.0
C729 C 0.57345 0.03171 0.35807 0.0
C730 C 0.45783 0.04023 0.36649 0.0
C731 C 0.51015 0.02656 0.35346 0.0
C732 C 0.42726 0.03237 0.3694 0.0
C733 C 0.41525 0.006 0.35973 0.0
C734 C 0.47666 0.02146 0.35394 0.0
C735 C 0.43424 0.98883 0.34623 0.0
C736 C 0.52945 0.00827 0.34087 0.0
C737 C 0.55345 0.05067 0.36946 0.0
N738 N 0.46421 -0.00338 0.34396 0.0
N739 N 0.5228 0.04745 0.36705 0.0
H740 H 0.99037 0.41553 0.15965 0.0
H741 H 0.00251 0.56933 0.09137 0.0
H742 H 0.0162 0.41848 0.09286 0.0
H743 H 0.00366 0.56925 0.1606 0.0
H744 H 0.003 0.51359 0.09164 0.0
H745 H 0.99082 0.47165 0.16043 0.0
C746 C 0.99614 0.42802 0.14519 0.0
C747 C 0.00338 0.41244 0.12619 0.0
C748 C 0.00321 0.52571 0.10679 0.0
C749 C 0.0038 0.47626 0.12692 0.0
C750 C 0.00272 0.5575 0.10664 0.0
C751 C 0.00289 0.57382 0.126 0.0
C752 C 0.0036 0.51005 0.12645 0.0
C753 C 0.00364 0.55742 0.14534 0.0
C754 C -0.00346 0.45994 0.14567 0.0
C755 C 0.01086 0.42961 0.10791 0.0
N756 N 0.00379 0.52633 0.14509 0.0
N757 N 0.01072 0.46058 0.10871 0.0
H758 H 0.42181 0.01319 0.83435 0.0
H759 H 0.57515 0.95887 0.89233 0.0
H760 H 0.42526 0.97676 0.89873 0.0
H761 H 0.57566 0.01545 0.83561 0.0
H762 H 0.51949 0.9607 0.89272 0.0
H763 H 0.47764 0.01033 0.83256 0.0
C764 C 0.43423 0.00464 0.84811 0.0
C765 C 0.41871 0.99509 0.8667 0.0
C766 C 0.53171 0.97271 0.88016 0.0
C767 C 0.48247 0.99143 0.86461 0.0
C768 C 0.56348 0.97149 0.87984 0.0
C769 C 0.57999 0.98692 0.86384 0.0
C770 C 0.51622 0.98937 0.86431 0.0
C771 C 0.56373 0.00339 0.84828 0.0
C772 C 0.46608 0.00293 0.84703 0.0
C773 C 0.43606 0.98381 0.8839 0.0
N774 N 0.53266 0.00413 0.84886 0.0
N775 N 0.46694 0.98228 0.88242 0.0
H776 H 0.11896 0.06033 0.44018 0.0
H777 H 0.12239 0.21782 0.50554 0.0
H778 H 0.19289 0.12546 0.43456 0.0
H779 H 0.06549 0.14017 0.52108 0.0
H780 H 0.14261 0.18951 0.47451 0.0
H781 H 0.09262 0.09522 0.46435 0.0
C782 C 0.12949 0.08217 0.44389 0.0
C783 C 0.15837 0.08982 0.43569 0.0
C784 C 0.12556 0.17884 0.48467 0.0
C785 C 0.12842 0.12985 0.46343 0.0
C786 C 0.11403 0.19494 0.50229 0.0
C787 C 0.09264 0.18105 0.51598 0.0
C788 C 0.11516 0.14893 0.48066 0.0
C789 C 0.0824 0.15145 0.51112 0.0
C790 C 0.11447 0.10207 0.45769 0.0
C791 C 0.17067 0.11869 0.44061 0.0
N792 N 0.09379 0.13638 0.49392 0.0
N793 N 0.1558 0.13757 0.45443 0.0
H794 H 0.23675 0.89651 0.51158 0.0
H795 H 0.12895 0.75595 0.54037 0.0
H796 H 0.22014 0.82008 0.46935 0.0
H797 H 0.14436 0.83292 0.58245 0.0
H798 H 0.17045 0.77386 0.51751 0.0
H799 H 0.2115 0.86865 0.54062 0.0
C800 C 0.22821 0.87363 0.50854 0.0
C801 C 0.23004 0.86077 0.48795 0.0
C802 C 0.1651 0.78661 0.53191 0.0
C803 C 0.2009 0.82886 0.52101 0.0
C804 C 0.14149 0.77626 0.5451 0.0
C805 C 0.13283 0.79318 0.56326 0.0
C806 C 0.18005 0.81422 0.53676 0.0
C807 C 0.14978 0.81953 0.56835 0.0
C808 C 0.21382 0.85772 0.52512 0.0
C809 C 0.21914 0.83087 0.48496 0.0
N810 N 0.1723 0.82946 0.55502 0.0
N811 N 0.20455 0.81613 0.50122 0.0
H812 H 0.76194 0.88198 0.45137 0.0
H813 H 0.91362 0.79266 0.48309 0.0
H814 H 0.8409 0.87487 0.41017 0.0
H815 H 0.83513 0.8011 0.52457 0.0
H816 H 0.88427 0.81569 0.45396 0.0
H817 H 0.78478 0.84479 0.47564 0.0
C818 C 0.78377 0.87208 0.44715 0.0
C819 C 0.79971 0.88187 0.42882 0.0
C820 C 0.87333 0.81219 0.46936 0.0
C821 C 0.82634 0.83977 0.45685 0.0
C822 C 0.89013 0.79919 0.48602 0.0
C823 C 0.87694 0.79537 0.50637 0.0
C824 C 0.84316 0.82167 0.4731 0.0
C825 C 0.84621 0.80359 0.50914 0.0
C826 C 0.79694 0.85101 0.46114 0.0
C827 C 0.8281 0.86845 0.42435 0.0
N828 N 0.83049 0.81671 0.49277 0.0
N829 N 0.84068 0.84839 0.43841 0.0
H830 H 0.78326 0.17153 0.46886 0.0
H831 H 0.8399 0.15783 0.59031 0.0
H832 H 0.76892 0.09172 0.50835 0.0
H833 H 0.86679 0.22992 0.54678 0.0
H834 H 0.80423 0.13867 0.56315 0.0
H835 H 0.80375 0.19857 0.50006 0.0
C836 C 0.78388 0.15988 0.48419 0.0
C837 C 0.7748 0.12919 0.48596 0.0
C838 C 0.81762 0.15898 0.55972 0.0
C839 C 0.79861 0.15983 0.52164 0.0
C840 C 0.83805 0.16987 0.57519 0.0
C841 C 0.8567 0.19532 0.57078 0.0
C842 C 0.81585 0.17361 0.5397 0.0
C843 C 0.85281 0.21037 0.55105 0.0
C844 C 0.79576 0.17526 0.50197 0.0
C845 C 0.7763 0.11518 0.5062 0.0
N846 N 0.83311 0.19908 0.53617 0.0
N847 N 0.78831 0.13049 0.52321 0.0
H848 H 0.84987 0.14113 0.90807 0.0
H849 H 0.844 0.21114 0.02654 0.0
H850 H 0.77658 0.12397 0.95302 0.0
H851 H 0.92713 0.20112 0.98982 0.0
H852 H 0.81513 0.1901 0.99632 0.0
H853 H 0.87428 0.17442 0.93461 0.0
C854 C 0.83872 0.14454 0.92338 0.0
C855 C 0.81128 0.12924 0.92835 0.0
C856 C 0.83966 0.19286 0.99485 0.0
C857 C 0.83895 0.1677 0.95864 0.0
C858 C 0.85621 0.20469 0.01213 0.0
C859 C 0.88818 0.20758 0.01092 0.0
C860 C 0.85511 0.18401 0.97613 0.0
C861 C 0.90256 0.19958 0.99155 0.0
C862 C 0.85264 0.16364 0.93848 0.0
C863 C 0.79756 0.1353 0.9483 0.0
N864 N 0.88595 0.18797 0.975 0.0
N865 N 0.81167 0.15381 0.96276 0.0
H866 H 0.2191 0.16395 0.9663 0.0
H867 H 0.15146 0.14266 0.08302 0.0
H868 H 0.23683 0.08493 0.00569 0.0
H869 H 0.14511 0.22663 0.04703 0.0
H870 H 0.18927 0.12403 0.05732 0.0
H871 H 0.19855 0.19029 -0.00231 0.0
C872 C 0.21906 0.15235 0.98166 0.0
C873 C 0.22927 0.12212 0.98338 0.0
C874 C 0.18006 0.14678 0.05526 0.0
C875 C 0.20553 0.15189 0.0193 0.0
C876 C 0.15845 0.15737 0.06991 0.0
C877 C 0.14485 0.18605 0.06698 0.0
C878 C 0.18778 0.16482 0.03739 0.0
C879 C 0.15502 0.20438 0.04991 0.0
C880 C 0.20742 0.16739 -0.00041 0.0
C881 C 0.22916 0.10824 0.00368 0.0
N882 N 0.17546 0.19323 0.03554 0.0
N883 N 0.21693 0.12305 0.02079 0.0
H884 H 0.0835 0.77075 0.99441 0.0
H885 H 0.22458 0.87826 0.96317 0.0
H886 H 0.15242 0.80148 0.0392 0.0
H887 H 0.15054 0.85655 0.91984 0.0
H888 H 0.20338 0.84237 0.98916 0.0
H889 H 0.11233 0.79462 0.96525 0.0
C890 C 0.1048 0.78233 -0.0019 0.0
C891 C 0.11531 0.78449 0.01936 0.0
C892 C 0.19194 0.84516 0.97387 0.0
C893 C 0.14852 0.81167 0.98601 0.0
C894 C 0.20419 0.86548 0.95891 0.0
C895 C 0.1892 0.87062 0.93931 0.0
C896 C 0.1644 0.82989 0.9693 0.0
C897 C 0.16257 0.8537 0.93489 0.0
C898 C 0.1213 0.79584 0.98143 0.0
C899 C 0.14344 0.79914 0.02309 0.0
N900 N 0.15087 0.8343 0.94985 0.0
N901 N 0.15888 0.81244 0.00662 0.0
H902 H 0.76207 0.9004 -0.00086 0.0
H903 H 0.87233 0.76285 0.03044 0.0
H904 H 0.81455 0.84805 0.95335 0.0
H905 H 0.85857 0.84023 0.07229 0.0
H906 H 0.83769 0.7858 0.00438 0.0
H907 H 0.78529 0.87079 0.02817 0.0
C908 C 0.77826 0.8827 0.99507 0.0
C909 C 0.78648 0.8771 0.97359 0.0
C910 C 0.84199 0.79753 0.01939 0.0
C911 C 0.81217 0.84255 0.00678 0.0
C912 C 0.86181 0.78454 0.03425 0.0
C913 C 0.86895 0.8 0.05337 0.0
C914 C 0.82892 0.82605 0.02373 0.0
C915 C 0.85383 0.82757 0.05774 0.0
C916 C 0.79128 0.8657 0.01169 0.0
C917 C 0.80698 0.85314 0.96947 0.0
N918 N 0.83473 0.83995 0.04288 0.0
N919 N 0.81912 0.83686 0.98589 0.0
H920 H 0.08644 0.20643 0.73099 0.0
H921 H 0.14953 0.04853 0.77806 0.0
H922 H 0.08254 0.12082 0.69664 0.0
H923 H 0.1625 0.1358 0.80921 0.0
H924 H 0.12262 0.0742 0.7489 0.0
H925 H 0.11146 0.18039 0.76089 0.0
C926 C 0.09066 0.18211 0.7298 0.0
C927 C 0.08248 0.16578 0.71127 0.0
C928 C 0.13133 0.08773 0.76212 0.0
C929 C 0.11131 0.13589 0.74534 0.0
C930 C 0.14686 0.0731 0.77873 0.0
C931 C 0.15838 0.09002 0.79611 0.0
C932 C 0.12722 0.11953 0.76288 0.0
C933 C 0.15369 0.12176 0.79629 0.0
C934 C 0.10511 0.1673 0.74682 0.0
C935 C 0.08884 0.13438 0.7105 0.0
N936 N 0.13851 0.13548 0.77992 0.0
N937 N 0.10287 0.12046 0.72728 0.0
H938 H 0.05923 0.79169 0.23691 0.0
H939 H 0.16294 0.9298 0.27749 0.0
H940 H 0.09575 0.86037 0.19402 0.0
H941 H 0.16001 0.84257 0.31001 0.0
H942 H 0.13208 0.90806 0.24861 0.0
H943 H 0.0897 0.81363 0.26601 0.0
C944 C 0.07363 0.81129 0.23353 0.0
C945 C 0.07484 0.82409 0.21285 0.0
C946 C 0.13827 0.89374 0.26209 0.0
C947 C 0.10924 0.84965 0.24628 0.0
C948 C 0.1561 0.90604 0.27855 0.0
C949 C 0.16433 0.88803 0.2963 0.0
C950 C 0.12815 0.86335 0.26347 0.0
C951 C 0.15391 0.85757 0.29691 0.0
C952 C 0.09091 0.82385 0.2502 0.0
C953 C 0.09351 0.84997 0.20969 0.0
N954 N 0.13628 0.84624 0.28078 0.0
N955 N 0.10989 0.86191 0.22623 0.0
H956 H 0.91975 0.79698 0.72314 0.0
H957 H 0.84709 0.95189 0.76718 0.0
H958 H 0.90015 0.87422 0.68246 0.0
H959 H 0.83863 0.86539 0.80017 0.0
H960 H 0.87251 0.92578 0.73754 0.0
H961 H 0.89661 0.82407 0.75343 0.0
C962 C 0.91077 0.81974 0.72066 0.0
C963 C 0.91174 0.83339 0.70031 0.0
C964 C 0.86509 0.91259 0.75131 0.0
C965 C 0.8853 0.86442 0.73475 0.0
C966 C 0.85041 0.92743 0.76821 0.0
C967 C 0.84056 0.91088 0.78628 0.0
C968 C 0.87027 0.88101 0.75253 0.0
C969 C 0.8462 0.87927 0.7868 0.0
C970 C 0.89742 0.83508 0.73787 0.0
C971 C 0.89955 0.8628 0.69787 0.0
N972 N 0.86071 0.8654 0.77021 0.0
N973 N 0.88689 0.87739 0.71491 0.0
H974 H 0.81919 0.14649 0.29751 0.0
H975 H 0.92614 0.11434 0.1965 0.0
H976 H 0.85714 0.05763 0.28379 0.0
H977 H 0.90827 0.20484 0.22083 0.0
H978 H 0.89853 0.09269 0.22715 0.0
H979 H 0.8495 0.16801 0.26832 0.0
C980 C 0.83406 0.1315 0.28851 0.0
C981 C 0.83558 0.10014 0.2932 0.0
C982 C 0.90082 0.11727 0.22585 0.0
C983 C 0.86995 0.12464 0.25942 0.0
C984 C 0.91643 0.12962 0.20834 0.0
C985 C 0.91944 0.16141 0.20616 0.0
C986 C 0.88781 0.13688 0.24114 0.0
C987 C 0.9067 0.1802 0.22202 0.0
C988 C 0.85127 0.14382 0.27175 0.0
C989 C 0.85482 0.08181 0.28059 0.0
N990 N 0.89125 0.16765 0.23877 0.0
N991 N 0.87116 0.09432 0.26424 0.0
loop_
_geom_bond_atom_site_label_1
_geom_bond_atom_site_label_2
_geom_bond_distance
_geom_bond_site_symmetry_2
_ccdc_geom_bond_type
Li0 N17 1.990 . S
Li0 O60 1.956 . S
Li0 O61 1.970 . S
Li0 O62 1.961 . S
Li1 N25 1.990 . S
Li1 O60 1.970 . S
Li1 O61 1.956 . S
Li1 O63 1.961 . S
Li2 N47 1.990 1_455 S
Li2 O60 1.961 . S
Li2 O62 1.956 . S
Li2 O63 1.970 . S
Li3 N53 1.990 . S
Li3 O61 1.961 . S
Li3 O62 1.970 . S
Li3 O63 1.956 . S
C4 C6 1.348 . S
C4 C7 1.356 . S
C4 O60 1.325 1_655 S
N5 C8 1.314 . S
N5 C9 1.279 . S
C6 C4 1.348 . S
C6 C8 1.353 . S
C6 H64 0.929 1_655 S
C7 C4 1.356 . S
C7 C9 1.358 . S
C7 H65 0.930 . S
C8 N5 1.314 . S
C8 C6 1.353 . S
C8 H66 0.930 . S
C9 N5 1.279 . S
C9 C7 1.358 . S
C9 H67 0.930 . S
C10 C13 1.348 . S
C10 C14 1.356 . S
C10 O61 1.325 . S
C11 N12 1.279 . S
C11 C14 1.358 . S
C11 H68 0.930 . S
N12 C11 1.279 . S
N12 C15 1.314 . S
C13 C10 1.348 . S
C13 C15 1.353 . S
C13 H69 0.929 . S
C14 C10 1.356 . S
C14 C11 1.358 . S
C14 H70 0.930 . S
C15 N12 1.314 . S
C15 C13 1.353 . S
C15 H71 0.930 . S
C16 N17 1.314 . S
C16 C21 1.353 . S
C16 H22 0.930 . S
N17 Li0 1.990 . S
N17 C16 1.314 . S
N17 C19 1.279 . S
C18 C19 1.358 . S
C18 C20 1.356 . S
C18 H72 0.930 . S
C19 N17 1.279 . S
C19 C18 1.358 . S
C19 H23 0.930 . S
C20 C18 1.356 . S
C20 C21 1.348 . S
C21 C16 1.353 . S
C21 C20 1.348 . S
C21 H73 0.929 . S
H22 C16 0.930 . S
H23 C19 0.930 . S
C24 N25 1.314 . S
C24 C26 1.353 . S
C24 H30 0.930 . S
N25 Li1 1.990 . S
N25 C24 1.314 . S
N25 C28 1.279 . S
C26 C24 1.353 . S
C26 C29 1.348 . S
C26 H74 0.929 . S
C27 C28 1.358 . S
C27 C29 1.356 . S
C27 H75 0.930 . S
C28 N25 1.279 . S
C28 C27 1.358 . S
C28 H31 0.930 . S
C29 C26 1.348 . S
C29 C27 1.356 . S
H30 C24 0.930 . S
H31 C28 0.930 . S
C32 C34 1.348 . S
C32 C35 1.356 . S
C32 O62 1.325 . S
N33 C36 1.314 . S
N33 C37 1.279 . S
C34 C32 1.348 . S
C34 C36 1.353 . S
C34 H76 0.929 . S
C35 C32 1.356 . S
C35 C37 1.358 . S
C35 H77 0.930 . S
C36 N33 1.314 . S
C36 C34 1.353 . S
C36 H78 0.930 . S
C37 N33 1.279 . S
C37 C35 1.358 . S
C37 H79 0.930 . S
C38 C39 1.348 . S
C38 C40 1.356 . S
C38 O63 1.325 . S
C39 C38 1.348 . S
C39 C41 1.353 . S
C39 H80 0.929 1_455 S
C40 C38 1.356 . S
C40 C42 1.358 . S
C40 H81 0.930 . S
C41 C39 1.353 . S
C41 N43 1.314 . S
C41 H82 0.930 1_455 S
C42 C40 1.358 . S
C42 N43 1.279 . S
C42 H83 0.930 . S
N43 C41 1.314 . S
N43 C42 1.279 . S
C44 C46 1.353 . S
C44 N47 1.314 . S
C44 H50 0.930 . S
C45 N47 1.279 . S
C45 C48 1.358 . S
C45 H51 0.930 . S
C46 C44 1.353 . S
C46 C49 1.348 . S
C46 H84 0.929 . S
N47 Li2 1.990 1_655 S
N47 C44 1.314 . S
N47 C45 1.279 . S
C48 C45 1.358 . S
C48 C49 1.356 . S
C48 H85 0.930 . S
C49 C46 1.348 . S
C49 C48 1.356 . S
H50 C44 0.930 . S
H51 C45 0.930 . S
C52 N53 1.314 . S
C52 C54 1.353 . S
C52 H58 0.930 . S
N53 Li3 1.990 . S
N53 C52 1.314 . S
N53 C56 1.279 . S
C54 C52 1.353 . S
C54 C57 1.348 . S
C54 H86 0.929 . S
C55 C56 1.358 . S
C55 C57 1.356 . S
C55 H87 0.930 . S
C56 N53 1.279 . S
C56 C55 1.358 . S
C56 H59 0.930 . S
C57 C54 1.348 . S
C57 C55 1.356 . S
H58 C52 0.930 . S
H59 C56 0.930 . S
O60 Li0 1.956 . S
O60 Li1 1.970 . S
O60 Li2 1.961 . S
O60 C4 1.325 1_455 S
O61 Li0 1.970 . S
O61 Li1 1.956 . S
O61 Li3 1.961 . S
O61 C10 1.325 . S
O62 Li0 1.961 . S
O62 Li2 1.956 . S
O62 Li3 1.970 . S
O62 C32 1.325 . S
O63 Li1 1.961 . S
O63 Li2 1.970 . S
O63 Li3 1.956 . S
O63 C38 1.325 . S
H64 C6 0.929 1_455 S
H65 C7 0.930 . S
H66 C8 0.930 . S
H67 C9 0.930 . S
H68 C11 0.930 . S
H69 C13 0.929 . S
H70 C14 0.930 . S
H71 C15 0.930 . S
H72 C18 0.930 . S
H73 C21 0.929 . S
H74 C26 0.929 . S
H75 C27 0.930 . S
H76 C34 0.929 . S
H77 C35 0.930 . S
H78 C36 0.930 . S
H79 C37 0.930 . S
H80 C39 0.929 1_655 S
H81 C40 0.930 . S
H82 C41 0.930 1_655 S
H83 C42 0.930 . S
H84 C46 0.929 . S
H85 C48 0.930 . S
H86 C54 0.929 . S
H87 C55 0.930 . S
Li88 N105 1.990 1_565 S
Li88 O148 1.956 . S
Li88 O149 1.970 . S
Li88 O150 1.961 . S
Li89 N113 1.990 . S
Li89 O148 1.970 . S
Li89 O149 1.956 . S
Li89 O151 1.961 . S
Li90 N135 1.990 . S
Li90 O148 1.961 . S
Li90 O150 1.956 . S
Li90 O151 1.970 . S
Li91 N141 1.990 . S
Li91 O149 1.961 . S
Li91 O150 1.970 . S
Li91 O151 1.956 . S
C92 C94 1.348 . S
C92 C95 1.356 . S
C92 O148 1.325 1_545 S
N93 C96 1.314 . S
N93 C97 1.279 . S
C94 C92 1.348 . S
C94 C96 1.353 . S
C94 H152 0.929 . S
C95 C92 1.356 . S
C95 C97 1.358 . S
C95 H153 0.930 . S
C96 N93 1.314 . S
C96 C94 1.353 . S
C96 H154 0.930 . S
C97 N93 1.279 . S
C97 C95 1.358 . S
C97 H155 0.930 . S
C98 C101 1.348 1_565 S
C98 C102 1.356 . S
C98 O149 1.325 . S
C99 N100 1.279 . S
C99 C102 1.358 . S
C99 H156 0.930 . S
N100 C99 1.279 . S
N100 C103 1.314 1_565 S
C101 C98 1.348 1_545 S
C101 C103 1.353 . S
C101 H157 0.929 . S
C102 C98 1.356 . S
C102 C99 1.358 . S
C102 H158 0.930 . S
C103 N100 1.314 1_545 S
C103 C101 1.353 . S
C103 H159 0.930 . S
C104 N105 1.314 . S
C104 C109 1.353 . S
C104 H110 0.930 . S
N105 Li88 1.990 1_545 S
N105 C104 1.314 . S
N105 C107 1.279 . S
C106 C107 1.358 . S
C106 C108 1.356 . S
C106 H160 0.930 . S
C107 N105 1.279 . S
C107 C106 1.358 . S
C107 H111 0.930 . S
C108 C106 1.356 . S
C108 C109 1.348 . S
C109 C104 1.353 . S
C109 C108 1.348 . S
C109 H161 0.929 . S
H110 C104 0.930 . S
H111 C107 0.930 . S
C112 N113 1.314 . S
C112 C114 1.353 . S
C112 H118 0.930 . S
N113 Li89 1.990 . S
N113 C112 1.314 . S
N113 C116 1.279 . S
C114 C112 1.353 . S
C114 C117 1.348 . S
C114 H162 0.929 . S
C115 C116 1.358 . S
C115 C117 1.356 . S
C115 H163 0.930 . S
C116 N113 1.279 . S
C116 C115 1.358 . S
C116 H119 0.930 . S
C117 C114 1.348 . S
C117 C115 1.356 . S
H118 C112 0.930 . S
H119 C116 0.930 . S
C120 C122 1.348 . S
C120 C123 1.356 . S
C120 O150 1.325 . S
N121 C124 1.314 . S
N121 C125 1.279 . S
C122 C120 1.348 . S
C122 C124 1.353 . S
C122 H164 0.929 . S
C123 C120 1.356 . S
C123 C125 1.358 . S
C123 H165 0.930 . S
C124 N121 1.314 . S
C124 C122 1.353 . S
C124 H166 0.930 . S
C125 N121 1.279 . S
C125 C123 1.358 . S
C125 H167 0.930 . S
C126 C127 1.348 . S
C126 C128 1.356 . S
C126 O151 1.325 . S
C127 C126 1.348 . S
C127 C129 1.353 . S
C127 H168 0.929 . S
C128 C126 1.356 . S
C128 C130 1.358 . S
C128 H169 0.930 . S
C129 C127 1.353 . S
C129 N131 1.314 . S
C129 H170 0.930 . S
C130 C128 1.358 . S
C130 N131 1.279 . S
C130 H171 0.930 . S
N131 C129 1.314 . S
N131 C130 1.279 . S
C132 C134 1.353 . S
C132 N135 1.314 . S
C132 H138 0.930 . S
C133 N135 1.279 . S
C133 C136 1.358 . S
C133 H139 0.930 . S
C134 C132 1.353 . S
C134 C137 1.348 . S
C134 H172 0.929 . S
N135 Li90 1.990 . S
N135 C132 1.314 . S
N135 C133 1.279 . S
C136 C133 1.358 . S
C136 C137 1.356 . S
C136 H173 0.930 . S
C137 C134 1.348 . S
C137 C136 1.356 . S
H138 C132 0.930 . S
H139 C133 0.930 . S
C140 N141 1.314 . S
C140 C142 1.353 . S
C140 H146 0.930 . S
N141 Li91 1.990 . S
N141 C140 1.314 . S
N141 C144 1.279 . S
C142 C140 1.353 . S
C142 C145 1.348 . S
C142 H174 0.929 . S
C143 C144 1.358 . S
C143 C145 1.356 . S
C143 H175 0.930 . S
C144 N141 1.279 . S
C144 C143 1.358 . S
C144 H147 0.930 . S
C145 C142 1.348 . S
C145 C143 1.356 . S
H146 C140 0.930 . S
H147 C144 0.930 . S
O148 Li88 1.956 . S
O148 Li89 1.970 . S
O148 Li90 1.961 . S
O148 C92 1.325 1_565 S
O149 Li88 1.970 . S
O149 Li89 1.956 . S
O149 Li91 1.961 . S
O149 C98 1.325 . S
O150 Li88 1.961 . S
O150 Li90 1.956 . S
O150 Li91 1.970 . S
O150 C120 1.325 . S
O151 Li89 1.961 . S
O151 Li90 1.970 . S
O151 Li91 1.956 . S
O151 C126 1.325 . S
H152 C94 0.929 . S
H153 C95 0.930 . S
H154 C96 0.930 . S
H155 C97 0.930 . S
H156 C99 0.930 . S
H157 C101 0.929 . S
H158 C102 0.930 . S
H159 C103 0.930 . S
H160 C106 0.930 . S
H161 C109 0.929 . S
H162 C114 0.929 . S
H163 C115 0.930 . S
H164 C122 0.929 . S
H165 C123 0.930 . S
H166 C124 0.930 . S
H167 C125 0.930 . S
H168 C127 0.929 . S
H169 C128 0.930 . S
H170 C129 0.930 . S
H171 C130 0.930 . S
H172 C134 0.929 . S
H173 C136 0.930 . S
H174 C142 0.929 . S
H175 C143 0.930 . S
Li176 N193 1.990 . S
Li176 O236 1.956 . S
Li176 O237 1.970 . S
Li176 O238 1.961 . S
Li177 N201 1.990 . S
Li177 O236 1.970 . S
Li177 O237 1.956 . S
Li177 O239 1.961 . S
Li178 N223 1.990 1_655 S
Li178 O236 1.961 . S
Li178 O238 1.956 . S
Li178 O239 1.970 . S
Li179 N229 1.990 . S
Li179 O237 1.961 . S
Li179 O238 1.970 . S
Li179 O239 1.956 . S
C180 C182 1.348 . S
C180 C183 1.356 . S
C180 O236 1.325 1_455 S
N181 C184 1.314 . S
N181 C185 1.279 . S
C182 C180 1.348 . S
C182 C184 1.353 . S
C182 H240 0.929 1_455 S
C183 C180 1.356 . S
C183 C185 1.358 . S
C183 H241 0.930 . S
C184 N181 1.314 . S
C184 C182 1.353 . S
C184 H242 0.930 . S
C185 N181 1.279 . S
C185 C183 1.358 . S
C185 H243 0.930 . S
C186 C189 1.348 . S
C186 C190 1.356 . S
C186 O237 1.325 . S
C187 N188 1.279 . S
C187 C190 1.358 . S
C187 H244 0.930 . S
N188 C187 1.279 . S
N188 C191 1.314 . S
C189 C186 1.348 . S
C189 C191 1.353 . S
C189 H245 0.929 . S
C190 C186 1.356 . S
C190 C187 1.358 . S
C190 H246 0.930 . S
C191 N188 1.314 . S
C191 C189 1.353 . S
C191 H247 0.930 . S
C192 N193 1.314 . S
C192 C197 1.353 . S
C192 H198 0.930 . S
N193 Li176 1.990 . S
N193 C192 1.314 . S
N193 C195 1.279 . S
C194 C195 1.358 . S
C194 C196 1.356 . S
C194 H248 0.930 . S
C195 N193 1.279 . S
C195 C194 1.358 . S
C195 H199 0.930 . S
C196 C194 1.356 . S
C196 C197 1.348 . S
C197 C192 1.353 . S
C197 C196 1.348 . S
C197 H249 0.929 . S
H198 C192 0.930 . S
H199 C195 0.930 . S
C200 N201 1.314 . S
C200 C202 1.353 . S
C200 H206 0.930 . S
N201 Li177 1.990 . S
N201 C200 1.314 . S
N201 C204 1.279 . S
C202 C200 1.353 . S
C202 C205 1.348 . S
C202 H250 0.929 . S
C203 C204 1.358 . S
C203 C205 1.356 . S
C203 H251 0.930 . S
C204 N201 1.279 . S
C204 C203 1.358 . S
C204 H207 0.930 . S
C205 C202 1.348 . S
C205 C203 1.356 . S
H206 C200 0.930 . S
H207 C204 0.930 . S
C208 C210 1.348 . S
C208 C211 1.356 . S
C208 O238 1.325 . S
N209 C212 1.314 . S
N209 C213 1.279 . S
C210 C208 1.348 . S
C210 C212 1.353 . S
C210 H252 0.929 . S
C211 C208 1.356 . S
C211 C213 1.358 . S
C211 H253 0.930 . S
C212 N209 1.314 . S
C212 C210 1.353 . S
C212 H254 0.930 . S
C213 N209 1.279 . S
C213 C211 1.358 . S
C213 H255 0.930 . S
C214 C215 1.348 . S
C214 C216 1.356 . S
C214 O239 1.325 . S
C215 C214 1.348 . S
C215 C217 1.353 . S
C215 H256 0.929 1_655 S
C216 C214 1.356 . S
C216 C218 1.358 . S
C216 H257 0.930 . S
C217 C215 1.353 . S
C217 N219 1.314 . S
C217 H258 0.930 1_655 S
C218 C216 1.358 . S
C218 N219 1.279 . S
C218 H259 0.930 . S
N219 C217 1.314 . S
N219 C218 1.279 . S
C220 C222 1.353 . S
C220 N223 1.314 . S
C220 H226 0.930 . S
C221 N223 1.279 . S
C221 C224 1.358 . S
C221 H227 0.930 . S
C222 C220 1.353 . S
C222 C225 1.348 . S
C222 H260 0.929 . S
N223 Li178 1.990 1_455 S
N223 C220 1.314 . S
N223 C221 1.279 . S
C224 C221 1.358 . S
C224 C225 1.356 . S
C224 H261 0.930 . S
C225 C222 1.348 . S
C225 C224 1.356 . S
H226 C220 0.930 . S
H227 C221 0.930 . S
C228 N229 1.314 . S
C228 C230 1.353 . S
C228 H234 0.930 . S
N229 Li179 1.990 . S
N229 C228 1.314 . S
N229 C232 1.279 . S
C230 C228 1.353 . S
C230 C233 1.348 . S
C230 H262 0.929 . S
C231 C232 1.358 . S
C231 C233 1.356 . S
C231 H263 0.930 . S
C232 N229 1.279 . S
C232 C231 1.358 . S
C232 H235 0.930 . S
C233 C230 1.348 . S
C233 C231 1.356 . S
H234 C228 0.930 . S
H235 C232 0.930 . S
O236 Li176 1.956 . S
O236 Li177 1.970 . S
O236 Li178 1.961 . S
O236 C180 1.325 1_655 S
O237 Li176 1.970 . S
O237 Li177 1.956 . S
O237 Li179 1.961 . S
O237 C186 1.325 . S
O238 Li176 1.961 . S
O238 Li178 1.956 . S
O238 Li179 1.970 . S
O238 C208 1.325 . S
O239 Li177 1.961 . S
O239 Li178 1.970 . S
O239 Li179 1.956 . S
O239 C214 1.325 . S
H240 C182 0.929 1_655 S
H241 C183 0.930 . S
H242 C184 0.930 . S
H243 C185 0.930 . S
H244 C187 0.930 . S
H245 C189 0.929 . S
H246 C190 0.930 . S
H247 C191 0.930 . S
H248 C194 0.930 . S
H249 C197 0.929 . S
H250 C202 0.929 . S
H251 C203 0.930 . S
H252 C210 0.929 . S
H253 C211 0.930 . S
H254 C212 0.930 . S
H255 C213 0.930 . S
H256 C215 0.929 1_455 S
H257 C216 0.930 . S
H258 C217 0.930 1_455 S
H259 C218 0.930 . S
H260 C222 0.929 . S
H261 C224 0.930 . S
H262 C230 0.929 . S
H263 C231 0.930 . S
Li264 N281 1.990 . S
Li264 O324 1.956 . S
Li264 O325 1.970 . S
Li264 O326 1.961 . S
Li265 N289 1.990 . S
Li265 O324 1.970 . S
Li265 O325 1.956 . S
Li265 O327 1.961 . S
Li266 N311 1.990 1_545 S
Li266 O324 1.961 . S
Li266 O326 1.956 . S
Li266 O327 1.970 . S
Li267 N317 1.990 . S
Li267 O325 1.961 . S
Li267 O326 1.970 . S
Li267 O327 1.956 . S
C268 C270 1.348 . S
C268 C271 1.356 . S
C268 O324 1.325 . S
N269 C272 1.314 . S
N269 C273 1.279 . S
C270 C268 1.348 . S
C270 C272 1.353 . S
C270 H328 0.929 . S
C271 C268 1.356 . S
C271 C273 1.358 . S
C271 H329 0.930 . S
C272 N269 1.314 . S
C272 C270 1.353 . S
C272 H330 0.930 . S
C273 N269 1.279 . S
C273 C271 1.358 . S
C273 H331 0.930 . S
C274 C277 1.348 . S
C274 C278 1.356 . S
C274 O325 1.325 . S
C275 N276 1.279 . S
C275 C278 1.358 . S
C275 H332 0.930 . S
N276 C275 1.279 . S
N276 C279 1.314 . S
C277 C274 1.348 . S
C277 C279 1.353 . S
C277 H333 0.929 . S
C278 C274 1.356 . S
C278 C275 1.358 . S
C278 H334 0.930 . S
C279 N276 1.314 . S
C279 C277 1.353 . S
C279 H335 0.930 . S
C280 N281 1.314 . S
C280 C285 1.353 . S
C280 H286 0.930 . S
N281 Li264 1.990 . S
N281 C280 1.314 . S
N281 C283 1.279 . S
C282 C283 1.358 . S
C282 C284 1.356 . S
C282 H336 0.930 . S
C283 N281 1.279 . S
C283 C282 1.358 . S
C283 H287 0.930 . S
C284 C282 1.356 . S
C284 C285 1.348 . S
C285 C280 1.353 . S
C285 C284 1.348 . S
C285 H337 0.929 . S
H286 C280 0.930 . S
H287 C283 0.930 . S
C288 N289 1.314 . S
C288 C290 1.353 . S
C288 H294 0.930 . S
N289 Li265 1.990 . S
N289 C288 1.314 . S
N289 C292 1.279 . S
C290 C288 1.353 . S
C290 C293 1.348 . S
C290 H338 0.929 . S
C291 C292 1.358 . S
C291 C293 1.356 . S
C291 H339 0.930 . S
C292 N289 1.279 . S
C292 C291 1.358 . S
C292 H295 0.930 . S
C293 C290 1.348 . S
C293 C291 1.356 . S
H294 C288 0.930 . S
H295 C292 0.930 . S
C296 C298 1.348 . S
C296 C299 1.356 . S
C296 O326 1.325 1_565 S
N297 C300 1.314 . S
N297 C301 1.279 . S
C298 C296 1.348 . S
C298 C300 1.353 . S
C298 H340 0.929 . S
C299 C296 1.356 . S
C299 C301 1.358 . S
C299 H341 0.930 . S
C300 N297 1.314 . S
C300 C298 1.353 . S
C300 H342 0.930 . S
C301 N297 1.279 . S
C301 C299 1.358 . S
C301 H343 0.930 . S
C302 C303 1.348 1_545 S
C302 C304 1.356 . S
C302 O327 1.325 . S
C303 C302 1.348 1_565 S
C303 C305 1.353 . S
C303 H344 0.929 . S
C304 C302 1.356 . S
C304 C306 1.358 . S
C304 H345 0.930 . S
C305 C303 1.353 . S
C305 N307 1.314 1_565 S
C305 H346 0.930 . S
C306 C304 1.358 . S
C306 N307 1.279 . S
C306 H347 0.930 . S
N307 C305 1.314 1_545 S
N307 C306 1.279 . S
C308 C310 1.353 . S
C308 N311 1.314 . S
C308 H314 0.930 . S
C309 N311 1.279 . S
C309 C312 1.358 . S
C309 H315 0.930 . S
C310 C308 1.353 . S
C310 C313 1.348 . S
C310 H348 0.929 . S
N311 Li266 1.990 1_565 S
N311 C308 1.314 . S
N311 C309 1.279 . S
C312 C309 1.358 . S
C312 C313 1.356 . S
C312 H349 0.930 . S
C313 C310 1.348 . S
C313 C312 1.356 . S
H314 C308 0.930 . S
H315 C309 0.930 . S
C316 N317 1.314 . S
C316 C318 1.353 . S
C316 H322 0.930 . S
N317 Li267 1.990 . S
N317 C316 1.314 . S
N317 C320 1.279 . S
C318 C316 1.353 . S
C318 C321 1.348 . S
C318 H350 0.929 . S
C319 C320 1.358 . S
C319 C321 1.356 . S
C319 H351 0.930 . S
C320 N317 1.279 . S
C320 C319 1.358 . S
C320 H323 0.930 . S
C321 C318 1.348 . S
C321 C319 1.356 . S
H322 C316 0.930 . S
H323 C320 0.930 . S
O324 Li264 1.956 . S
O324 Li265 1.970 . S
O324 Li266 1.961 . S
O324 C268 1.325 . S
O325 Li264 1.970 . S
O325 Li265 1.956 . S
O325 Li267 1.961 . S
O325 C274 1.325 . S
O326 Li264 1.961 . S
O326 Li266 1.956 . S
O326 Li267 1.970 . S
O326 C296 1.325 1_545 S
O327 Li265 1.961 . S
O327 Li266 1.970 . S
O327 Li267 1.956 . S
O327 C302 1.325 . S
H328 C270 0.929 . S
H329 C271 0.930 . S
H330 C272 0.930 . S
H331 C273 0.930 . S
H332 C275 0.930 . S
H333 C277 0.929 . S
H334 C278 0.930 . S
H335 C279 0.930 . S
H336 C282 0.930 . S
H337 C285 0.929 . S
H338 C290 0.929 . S
H339 C291 0.930 . S
H340 C298 0.929 . S
H341 C299 0.930 . S
H342 C300 0.930 . S
H343 C301 0.930 . S
H344 C303 0.929 . S
H345 C304 0.930 . S
H346 C305 0.930 . S
H347 C306 0.930 . S
H348 C310 0.929 . S
H349 C312 0.930 . S
H350 C318 0.929 . S
H351 C319 0.930 . S
Li352 N369 1.990 . S
Li352 O412 1.956 . S
Li352 O413 1.970 . S
Li352 O414 1.961 . S
Li353 N377 1.990 . S
Li353 O412 1.970 . S
Li353 O413 1.956 . S
Li353 O415 1.961 . S
Li354 N399 1.990 . S
Li354 O412 1.961 . S
Li354 O414 1.956 . S
Li354 O415 1.970 . S
Li355 N405 1.990 1_655 S
Li355 O413 1.961 . S
Li355 O414 1.970 . S
Li355 O415 1.956 . S
C356 C358 1.348 . S
C356 C359 1.356 . S
C356 O412 1.325 . S
N357 C360 1.314 . S
N357 C361 1.279 . S
C358 C356 1.348 . S
C358 C360 1.353 . S
C358 H416 0.929 . S
C359 C356 1.356 . S
C359 C361 1.358 . S
C359 H417 0.930 . S
C360 N357 1.314 . S
C360 C358 1.353 . S
C360 H418 0.930 . S
C361 N357 1.279 . S
C361 C359 1.358 . S
C361 H419 0.930 . S
C362 C365 1.348 . S
C362 C366 1.356 . S
C362 O413 1.325 . S
C363 N364 1.279 . S
C363 C366 1.358 . S
C363 H420 0.930 . S
N364 C363 1.279 . S
N364 C367 1.314 . S
C365 C362 1.348 . S
C365 C367 1.353 . S
C365 H421 0.929 . S
C366 C362 1.356 . S
C366 C363 1.358 . S
C366 H422 0.930 . S
C367 N364 1.314 . S
C367 C365 1.353 . S
C367 H423 0.930 . S
C368 N369 1.314 . S
C368 C373 1.353 . S
C368 H374 0.930 . S
N369 Li352 1.990 . S
N369 C368 1.314 . S
N369 C371 1.279 . S
C370 C371 1.358 . S
C370 C372 1.356 . S
C370 H424 0.930 . S
C371 N369 1.279 . S
C371 C370 1.358 . S
C371 H375 0.930 . S
C372 C370 1.356 . S
C372 C373 1.348 . S
C373 C368 1.353 . S
C373 C372 1.348 . S
C373 H425 0.929 . S
H374 C368 0.930 . S
H375 C371 0.930 . S
C376 N377 1.314 . S
C376 C378 1.353 . S
C376 H382 0.930 . S
N377 Li353 1.990 . S
N377 C376 1.314 . S
N377 C380 1.279 . S
C378 C376 1.353 . S
C378 C381 1.348 . S
C378 H426 0.929 . S
C379 C380 1.358 . S
C379 C381 1.356 . S
C379 H427 0.930 . S
C380 N377 1.279 . S
C380 C379 1.358 . S
C380 H383 0.930 . S
C381 C378 1.348 . S
C381 C379 1.356 . S
H382 C376 0.930 . S
H383 C380 0.930 . S
C384 C386 1.348 1_655 S
C384 C387 1.356 . S
C384 O414 1.325 . S
N385 C388 1.314 1_655 S
N385 C389 1.279 . S
C386 C384 1.348 1_455 S
C386 C388 1.353 . S
C386 H428 0.929 . S
C387 C384 1.356 . S
C387 C389 1.358 . S
C387 H429 0.930 . S
C388 N385 1.314 1_455 S
C388 C386 1.353 . S
C388 H430 0.930 . S
C389 N385 1.279 . S
C389 C387 1.358 . S
C389 H431 0.930 . S
C390 C391 1.348 . S
C390 C392 1.356 . S
C390 O415 1.325 1_455 S
C391 C390 1.348 . S
C391 C393 1.353 . S
C391 H432 0.929 . S
C392 C390 1.356 . S
C392 C394 1.358 . S
C392 H433 0.930 . S
C393 C391 1.353 . S
C393 N395 1.314 . S
C393 H434 0.930 . S
C394 C392 1.358 . S
C394 N395 1.279 . S
C394 H435 0.930 . S
N395 C393 1.314 . S
N395 C394 1.279 . S
C396 C398 1.353 . S
C396 N399 1.314 . S
C396 H402 0.930 . S
C397 N399 1.279 . S
C397 C400 1.358 . S
C397 H403 0.930 . S
C398 C396 1.353 . S
C398 C401 1.348 . S
C398 H436 0.929 . S
N399 Li354 1.990 . S
N399 C396 1.314 . S
N399 C397 1.279 . S
C400 C397 1.358 . S
C400 C401 1.356 . S
C400 H437 0.930 . S
C401 C398 1.348 . S
C401 C400 1.356 . S
H402 C396 0.930 . S
H403 C397 0.930 . S
C404 N405 1.314 . S
C404 C406 1.353 . S
C404 H410 0.930 . S
N405 Li355 1.990 1_455 S
N405 C404 1.314 . S
N405 C408 1.279 . S
C406 C404 1.353 . S
C406 C409 1.348 . S
C406 H438 0.929 . S
C407 C408 1.358 . S
C407 C409 1.356 . S
C407 H439 0.930 . S
C408 N405 1.279 . S
C408 C407 1.358 . S
C408 H411 0.930 . S
C409 C406 1.348 . S
C409 C407 1.356 . S
H410 C404 0.930 . S
H411 C408 0.930 . S
O412 Li352 1.956 . S
O412 Li353 1.970 . S
O412 Li354 1.961 . S
O412 C356 1.325 . S
O413 Li352 1.970 . S
O413 Li353 1.956 . S
O413 Li355 1.961 . S
O413 C362 1.325 . S
O414 Li352 1.961 . S
O414 Li354 1.956 . S
O414 Li355 1.970 . S
O414 C384 1.325 . S
O415 Li353 1.961 . S
O415 Li354 1.970 . S
O415 Li355 1.956 . S
O415 C390 1.325 1_655 S
H416 C358 0.929 . S
H417 C359 0.930 . S
H418 C360 0.930 . S
H419 C361 0.930 . S
H420 C363 0.930 . S
H421 C365 0.929 . S
H422 C366 0.930 . S
H423 C367 0.930 . S
H424 C370 0.930 . S
H425 C373 0.929 . S
H426 C378 0.929 . S
H427 C379 0.930 . S
H428 C386 0.929 . S
H429 C387 0.930 . S
H430 C388 0.930 . S
H431 C389 0.930 . S
H432 C391 0.929 . S
H433 C392 0.930 . S
H434 C393 0.930 . S
H435 C394 0.930 . S
H436 C398 0.929 . S
H437 C400 0.930 . S
H438 C406 0.929 . S
H439 C407 0.930 . S
Li440 N457 1.990 . S
Li440 O500 1.956 . S
Li440 O501 1.970 . S
Li440 O502 1.961 . S
Li441 N465 1.990 1_545 S
Li441 O500 1.970 . S
Li441 O501 1.956 . S
Li441 O503 1.961 . S
Li442 N487 1.990 . S
Li442 O500 1.961 . S
Li442 O502 1.956 . S
Li442 O503 1.970 . S
Li443 N493 1.990 . S
Li443 O501 1.961 . S
Li443 O502 1.970 . S
Li443 O503 1.956 . S
C444 C446 1.348 . S
C444 C447 1.356 . S
C444 O500 1.325 . S
N445 C448 1.314 . S
N445 C449 1.279 . S
C446 C444 1.348 . S
C446 C448 1.353 . S
C446 H504 0.929 1_545 S
C447 C444 1.356 . S
C447 C449 1.358 . S
C447 H505 0.930 . S
C448 N445 1.314 . S
C448 C446 1.353 . S
C448 H506 0.930 1_545 S
C449 N445 1.279 . S
C449 C447 1.358 . S
C449 H507 0.930 . S
C450 C453 1.348 . S
C450 C454 1.356 . S
C450 O501 1.325 . S
C451 N452 1.279 . S
C451 C454 1.358 . S
C451 H508 0.930 . S
N452 C451 1.279 . S
N452 C455 1.314 . S
C453 C450 1.348 . S
C453 C455 1.353 . S
C453 H509 0.929 . S
C454 C450 1.356 . S
C454 C451 1.358 . S
C454 H510 0.930 . S
C455 N452 1.314 . S
C455 C453 1.353 . S
C455 H511 0.930 . S
C456 N457 1.314 . S
C456 C461 1.353 . S
C456 H462 0.930 . S
N457 Li440 1.990 . S
N457 C456 1.314 . S
N457 C459 1.279 . S
C458 C459 1.358 . S
C458 C460 1.356 . S
C458 H512 0.930 . S
C459 N457 1.279 . S
C459 C458 1.358 . S
C459 H463 0.930 . S
C460 C458 1.356 . S
C460 C461 1.348 . S
C461 C456 1.353 . S
C461 C460 1.348 . S
C461 H513 0.929 . S
H462 C456 0.930 . S
H463 C459 0.930 . S
C464 N465 1.314 . S
C464 C466 1.353 . S
C464 H470 0.930 . S
N465 Li441 1.990 1_565 S
N465 C464 1.314 . S
N465 C468 1.279 . S
C466 C464 1.353 . S
C466 C469 1.348 . S
C466 H514 0.929 . S
C467 C468 1.358 . S
C467 C469 1.356 . S
C467 H515 0.930 . S
C468 N465 1.279 . S
C468 C467 1.358 . S
C468 H471 0.930 . S
C469 C466 1.348 . S
C469 C467 1.356 . S
H470 C464 0.930 . S
H471 C468 0.930 . S
C472 C474 1.348 . S
C472 C475 1.356 . S
C472 O502 1.325 . S
N473 C476 1.314 . S
N473 C477 1.279 . S
C474 C472 1.348 . S
C474 C476 1.353 . S
C474 H516 0.929 . S
C475 C472 1.356 . S
C475 C477 1.358 . S
C475 H517 0.930 . S
C476 N473 1.314 . S
C476 C474 1.353 . S
C476 H518 0.930 . S
C477 N473 1.279 . S
C477 C475 1.358 . S
C477 H519 0.930 . S
C478 C479 1.348 . S
C478 C480 1.356 . S
C478 O503 1.325 1_565 S
C479 C478 1.348 . S
C479 C481 1.353 . S
C479 H520 0.929 1_565 S
C480 C478 1.356 . S
C480 C482 1.358 . S
C480 H521 0.930 . S
C481 C479 1.353 . S
C481 N483 1.314 . S
C481 H522 0.930 . S
C482 C480 1.358 . S
C482 N483 1.279 . S
C482 H523 0.930 . S
N483 C481 1.314 . S
N483 C482 1.279 . S
C484 C486 1.353 . S
C484 N487 1.314 . S
C484 H490 0.930 . S
C485 N487 1.279 . S
C485 C488 1.358 . S
C485 H491 0.930 . S
C486 C484 1.353 . S
C486 C489 1.348 . S
C486 H524 0.929 . S
N487 Li442 1.990 . S
N487 C484 1.314 . S
N487 C485 1.279 . S
C488 C485 1.358 . S
C488 C489 1.356 . S
C488 H525 0.930 . S
C489 C486 1.348 . S
C489 C488 1.356 . S
H490 C484 0.930 . S
H491 C485 0.930 . S
C492 N493 1.314 . S
C492 C494 1.353 . S
C492 H498 0.930 . S
N493 Li443 1.990 . S
N493 C492 1.314 . S
N493 C496 1.279 . S
C494 C492 1.353 . S
C494 C497 1.348 . S
C494 H526 0.929 . S
C495 C496 1.358 . S
C495 C497 1.356 . S
C495 H527 0.930 . S
C496 N493 1.279 . S
C496 C495 1.358 . S
C496 H499 0.930 . S
C497 C494 1.348 . S
C497 C495 1.356 . S
H498 C492 0.930 . S
H499 C496 0.930 . S
O500 Li440 1.956 . S
O500 Li441 1.970 . S
O500 Li442 1.961 . S
O500 C444 1.325 . S
O501 Li440 1.970 . S
O501 Li441 1.956 . S
O501 Li443 1.961 . S
O501 C450 1.325 . S
O502 Li440 1.961 . S
O502 Li442 1.956 . S
O502 Li443 1.970 . S
O502 C472 1.325 . S
O503 Li441 1.961 . S
O503 Li442 1.970 . S
O503 Li443 1.956 . S
O503 C478 1.325 1_545 S
H504 C446 0.929 1_565 S
H505 C447 0.930 . S
H506 C448 0.930 1_565 S
H507 C449 0.930 . S
H508 C451 0.930 . S
H509 C453 0.929 . S
H510 C454 0.930 . S
H511 C455 0.930 . S
H512 C458 0.930 . S
H513 C461 0.929 . S
H514 C466 0.929 . S
H515 C467 0.930 . S
H516 C474 0.929 . S
H517 C475 0.930 . S
H518 C476 0.930 . S
H519 C477 0.930 . S
H520 C479 0.929 1_545 S
H521 C480 0.930 . S
H522 C481 0.930 . S
H523 C482 0.930 . S
H524 C486 0.929 . S
H525 C488 0.930 . S
H526 C494 0.929 . S
H527 C495 0.930 . S
Li528 N545 1.990 1_455 S
Li528 O588 1.956 . S
Li528 O589 1.970 . S
Li528 O590 1.961 . S
Li529 N553 1.990 . S
Li529 O588 1.970 . S
Li529 O589 1.956 . S
Li529 O591 1.961 . S
Li530 N575 1.990 . S
Li530 O588 1.961 . S
Li530 O590 1.956 . S
Li530 O591 1.970 . S
Li531 N581 1.990 . S
Li531 O589 1.961 . S
Li531 O590 1.970 . S
Li531 O591 1.956 . S
C532 C534 1.348 . S
C532 C535 1.356 . S
C532 O588 1.325 1_655 S
N533 C536 1.314 . S
N533 C537 1.279 . S
C534 C532 1.348 . S
C534 C536 1.353 . S
C534 H592 0.929 . S
C535 C532 1.356 . S
C535 C537 1.358 . S
C535 H593 0.930 . S
C536 N533 1.314 . S
C536 C534 1.353 . S
C536 H594 0.930 . S
C537 N533 1.279 . S
C537 C535 1.358 . S
C537 H595 0.930 . S
C538 C541 1.348 1_455 S
C538 C542 1.356 . S
C538 O589 1.325 . S
C539 N540 1.279 . S
C539 C542 1.358 . S
C539 H596 0.930 . S
N540 C539 1.279 . S
N540 C543 1.314 1_455 S
C541 C538 1.348 1_655 S
C541 C543 1.353 . S
C541 H597 0.929 . S
C542 C538 1.356 . S
C542 C539 1.358 . S
C542 H598 0.930 . S
C543 N540 1.314 1_655 S
C543 C541 1.353 . S
C543 H599 0.930 . S
C544 N545 1.314 . S
C544 C549 1.353 . S
C544 H550 0.930 . S
N545 Li528 1.990 1_655 S
N545 C544 1.314 . S
N545 C547 1.279 . S
C546 C547 1.358 . S
C546 C548 1.356 . S
C546 H600 0.930 . S
C547 N545 1.279 . S
C547 C546 1.358 . S
C547 H551 0.930 . S
C548 C546 1.356 . S
C548 C549 1.348 . S
C549 C544 1.353 . S
C549 C548 1.348 . S
C549 H601 0.929 . S
H550 C544 0.930 . S
H551 C547 0.930 . S
C552 N553 1.314 . S
C552 C554 1.353 . S
C552 H558 0.930 . S
N553 Li529 1.990 . S
N553 C552 1.314 . S
N553 C556 1.279 . S
C554 C552 1.353 . S
C554 C557 1.348 . S
C554 H602 0.929 . S
C555 C556 1.358 . S
C555 C557 1.356 . S
C555 H603 0.930 . S
C556 N553 1.279 . S
C556 C555 1.358 . S
C556 H559 0.930 . S
C557 C554 1.348 . S
C557 C555 1.356 . S
H558 C552 0.930 . S
H559 C556 0.930 . S
C560 C562 1.348 . S
C560 C563 1.356 . S
C560 O590 1.325 . S
N561 C564 1.314 . S
N561 C565 1.279 . S
C562 C560 1.348 . S
C562 C564 1.353 . S
C562 H604 0.929 . S
C563 C560 1.356 . S
C563 C565 1.358 . S
C563 H605 0.930 . S
C564 N561 1.314 . S
C564 C562 1.353 . S
C564 H606 0.930 . S
C565 N561 1.279 . S
C565 C563 1.358 . S
C565 H607 0.930 . S
C566 C567 1.348 . S
C566 C568 1.356 . S
C566 O591 1.325 . S
C567 C566 1.348 . S
C567 C569 1.353 . S
C567 H608 0.929 . S
C568 C566 1.356 . S
C568 C570 1.358 . S
C568 H609 0.930 . S
C569 C567 1.353 . S
C569 N571 1.314 . S
C569 H610 0.930 . S
C570 C568 1.358 . S
C570 N571 1.279 . S
C570 H611 0.930 . S
N571 C569 1.314 . S
N571 C570 1.279 . S
C572 C574 1.353 . S
C572 N575 1.314 . S
C572 H578 0.930 . S
C573 N575 1.279 . S
C573 C576 1.358 . S
C573 H579 0.930 . S
C574 C572 1.353 . S
C574 C577 1.348 . S
C574 H612 0.929 . S
N575 Li530 1.990 . S
N575 C572 1.314 . S
N575 C573 1.279 . S
C576 C573 1.358 . S
C576 C577 1.356 . S
C576 H613 0.930 . S
C577 C574 1.348 . S
C577 C576 1.356 . S
H578 C572 0.930 . S
H579 C573 0.930 . S
C580 N581 1.314 . S
C580 C582 1.353 . S
C580 H586 0.930 . S
N581 Li531 1.990 . S
N581 C580 1.314 . S
N581 C584 1.279 . S
C582 C580 1.353 . S
C582 C585 1.348 . S
C582 H614 0.929 . S
C583 C584 1.358 . S
C583 C585 1.356 . S
C583 H615 0.930 . S
C584 N581 1.279 . S
C584 C583 1.358 . S
C584 H587 0.930 . S
C585 C582 1.348 . S
C585 C583 1.356 . S
H586 C580 0.930 . S
H587 C584 0.930 . S
O588 Li528 1.956 . S
O588 Li529 1.970 . S
O588 Li530 1.961 . S
O588 C532 1.325 1_455 S
O589 Li528 1.970 . S
O589 Li529 1.956 . S
O589 Li531 1.961 . S
O589 C538 1.325 . S
O590 Li528 1.961 . S
O590 Li530 1.956 . S
O590 Li531 1.970 . S
O590 C560 1.325 . S
O591 Li529 1.961 . S
O591 Li530 1.970 . S
O591 Li531 1.956 . S
O591 C566 1.325 . S
H592 C534 0.929 . S
H593 C535 0.930 . S
H594 C536 0.930 . S
H595 C537 0.930 . S
H596 C539 0.930 . S
H597 C541 0.929 . S
H598 C542 0.930 . S
H599 C543 0.930 . S
H600 C546 0.930 . S
H601 C549 0.929 . S
H602 C554 0.929 . S
H603 C555 0.930 . S
H604 C562 0.929 . S
H605 C563 0.930 . S
H606 C564 0.930 . S
H607 C565 0.930 . S
H608 C567 0.929 . S
H609 C568 0.930 . S
H610 C569 0.930 . S
H611 C570 0.930 . S
H612 C574 0.929 . S
H613 C576 0.930 . S
H614 C582 0.929 . S
H615 C583 0.930 . S
Li616 N633 1.990 1_565 S
Li616 O676 1.956 . S
Li616 O677 1.970 . S
Li616 O678 1.961 . S
Li617 N641 1.990 . S
Li617 O676 1.970 . S
Li617 O677 1.956 . S
Li617 O679 1.961 . S
Li618 N663 1.990 . S
Li618 O676 1.961 . S
Li618 O678 1.956 . S
Li618 O679 1.970 . S
Li619 N669 1.990 . S
Li619 O677 1.961 . S
Li619 O678 1.970 . S
Li619 O679 1.956 . S
C620 C622 1.348 . S
C620 C623 1.356 . S
C620 O676 1.325 . S
N621 C624 1.314 . S
N621 C625 1.279 . S
C622 C620 1.348 . S
C622 C624 1.353 . S
C622 H680 0.929 . S
C623 C620 1.356 . S
C623 C625 1.358 . S
C623 H681 0.930 . S
C624 N621 1.314 . S
C624 C622 1.353 . S
C624 H682 0.930 . S
C625 N621 1.279 . S
C625 C623 1.358 . S
C625 H683 0.930 . S
C626 C629 1.348 . S
C626 C630 1.356 . S
C626 O677 1.325 . S
C627 N628 1.279 . S
C627 C630 1.358 . S
C627 H684 0.930 . S
N628 C627 1.279 . S
N628 C631 1.314 . S
C629 C626 1.348 . S
C629 C631 1.353 . S
C629 H685 0.929 1_565 S
C630 C626 1.356 . S
C630 C627 1.358 . S
C630 H686 0.930 . S
C631 N628 1.314 . S
C631 C629 1.353 . S
C631 H687 0.930 1_565 S
C632 N633 1.314 . S
C632 C637 1.353 . S
C632 H638 0.930 . S
N633 Li616 1.990 1_545 S
N633 C632 1.314 . S
N633 C635 1.279 . S
C634 C635 1.358 . S
C634 C636 1.356 . S
C634 H688 0.930 . S
C635 N633 1.279 . S
C635 C634 1.358 . S
C635 H639 0.930 . S
C636 C634 1.356 . S
C636 C637 1.348 . S
C637 C632 1.353 . S
C637 C636 1.348 . S
C637 H689 0.929 . S
H638 C632 0.930 . S
H639 C635 0.930 . S
C640 N641 1.314 . S
C640 C642 1.353 . S
C640 H646 0.930 . S
N641 Li617 1.990 . S
N641 C640 1.314 . S
N641 C644 1.279 . S
C642 C640 1.353 . S
C642 C645 1.348 . S
C642 H690 0.929 . S
C643 C644 1.358 . S
C643 C645 1.356 . S
C643 H691 0.930 . S
C644 N641 1.279 . S
C644 C643 1.358 . S
C644 H647 0.930 . S
C645 C642 1.348 . S
C645 C643 1.356 . S
H646 C640 0.930 . S
H647 C644 0.930 . S
C648 C650 1.348 . S
C648 C651 1.356 . S
C648 O678 1.325 1_545 S
N649 C652 1.314 . S
N649 C653 1.279 . S
C650 C648 1.348 . S
C650 C652 1.353 . S
C650 H692 0.929 1_545 S
C651 C648 1.356 . S
C651 C653 1.358 . S
C651 H693 0.930 . S
C652 N649 1.314 . S
C652 C650 1.353 . S
C652 H694 0.930 . S
C653 N649 1.279 . S
C653 C651 1.358 . S
C653 H695 0.930 . S
C654 C655 1.348 . S
C654 C656 1.356 . S
C654 O679 1.325 . S
C655 C654 1.348 . S
C655 C657 1.353 . S
C655 H696 0.929 . S
C656 C654 1.356 . S
C656 C658 1.358 . S
C656 H697 0.930 . S
C657 C655 1.353 . S
C657 N659 1.314 . S
C657 H698 0.930 . S
C658 C656 1.358 . S
C658 N659 1.279 . S
C658 H699 0.930 . S
N659 C657 1.314 . S
N659 C658 1.279 . S
C660 C662 1.353 . S
C660 N663 1.314 . S
C660 H666 0.930 . S
C661 N663 1.279 . S
C661 C664 1.358 . S
C661 H667 0.930 . S
C662 C660 1.353 . S
C662 C665 1.348 . S
C662 H700 0.929 . S
N663 Li618 1.990 . S
N663 C660 1.314 . S
N663 C661 1.279 . S
C664 C661 1.358 . S
C664 C665 1.356 . S
C664 H701 0.930 . S
C665 C662 1.348 . S
C665 C664 1.356 . S
H666 C660 0.930 . S
H667 C661 0.930 . S
C668 N669 1.314 . S
C668 C670 1.353 . S
C668 H674 0.930 . S
N669 Li619 1.990 . S
N669 C668 1.314 . S
N669 C672 1.279 . S
C670 C668 1.353 . S
C670 C673 1.348 . S
C670 H702 0.929 . S
C671 C672 1.358 . S
C671 C673 1.356 . S
C671 H703 0.930 . S
C672 N669 1.279 . S
C672 C671 1.358 . S
C672 H675 0.930 . S
C673 C670 1.348 . S
C673 C671 1.356 . S
H674 C668 0.930 . S
H675 C672 0.930 . S
O676 Li616 1.956 . S
O676 Li617 1.970 . S
O676 Li618 1.961 . S
O676 C620 1.325 . S
O677 Li616 1.970 . S
O677 Li617 1.956 . S
O677 Li619 1.961 . S
O677 C626 1.325 . S
O678 Li616 1.961 . S
O678 Li618 1.956 . S
O678 Li619 1.970 . S
O678 C648 1.325 1_565 S
O679 Li617 1.961 . S
O679 Li618 1.970 . S
O679 Li619 1.956 . S
O679 C654 1.325 . S
H680 C622 0.929 . S
H681 C623 0.930 . S
H682 C624 0.930 . S
H683 C625 0.930 . S
H684 C627 0.930 . S
H685 C629 0.929 1_545 S
H686 C630 0.930 . S
H687 C631 0.930 1_545 S
H688 C634 0.930 . S
H689 C637 0.929 . S
H690 C642 0.929 . S
H691 C643 0.930 . S
H692 C650 0.929 1_565 S
H693 C651 0.930 . S
H694 C652 0.930 . S
H695 C653 0.930 . S
H696 C655 0.929 . S
H697 C656 0.930 . S
H698 C657 0.930 . S
H699 C658 0.930 . S
H700 C662 0.929 . S
H701 C664 0.930 . S
H702 C670 0.929 . S
H703 C671 0.930 . S
H704 C710 0.930 . S
H705 C714 0.930 . S
H706 C719 0.929 . S
H707 C717 0.929 . S
H708 C712 0.929 . S
H709 C718 0.929 . S
C710 H704 0.930 . S
C710 C711 1.367 . S
C710 C718 1.378 . S
C711 C710 1.367 . S
C711 C719 1.433 . S
C712 H708 0.929 . S
C712 C714 1.378 . S
C712 C716 1.350 . S
C713 C716 1.463 1_655 S
C713 C718 1.350 . S
C713 N721 1.427 . S
C714 H705 0.930 . S
C714 C712 1.378 . S
C714 C715 1.367 . S
C715 C714 1.367 . S
C715 C717 1.433 . S
C716 C712 1.350 . S
C716 C713 1.463 1_455 S
C716 N720 1.427 . S
C717 H707 0.929 . S
C717 C715 1.433 . S
C717 N720 1.384 . S
C718 H709 0.929 . S
C718 C710 1.378 . S
C718 C713 1.350 . S
C719 H706 0.929 . S
C719 C711 1.433 . S
C719 N721 1.384 . S
N720 C716 1.427 . S
N720 C717 1.384 . S
N721 C713 1.427 . S
N721 C719 1.384 . S
H722 C728 0.930 . S
H723 C732 0.930 . S
H724 C737 0.929 . S
H725 C735 0.929 . S
H726 C730 0.929 . S
H727 C736 0.929 . S
C728 H722 0.930 . S
C728 C729 1.367 . S
C728 C736 1.378 1_545 S
C729 C728 1.367 . S
C729 C737 1.433 . S
C730 H726 0.929 . S
C730 C732 1.378 1_545 S
C730 C734 1.350 1_545 S
C731 C734 1.463 1_545 S
C731 C736 1.350 1_545 S
C731 N739 1.427 . S
C732 H723 0.930 . S
C732 C730 1.378 1_565 S
C732 C733 1.367 . S
C733 C732 1.367 . S
C733 C735 1.433 . S
C734 C730 1.350 1_565 S
C734 C731 1.463 1_565 S
C734 N738 1.427 . S
C735 H725 0.929 . S
C735 C733 1.433 . S
C735 N738 1.384 . S
C736 H727 0.929 . S
C736 C728 1.378 1_565 S
C736 C731 1.350 1_565 S
C737 H724 0.929 . S
C737 C729 1.433 . S
C737 N739 1.384 . S
N738 C734 1.427 . S
N738 C735 1.384 . S
N739 C731 1.427 . S
N739 C737 1.384 . S
H740 C746 0.930 . S
H741 C750 0.930 . S
H742 C755 0.929 . S
H743 C753 0.929 . S
H744 C748 0.912 1_655 S
H745 C754 0.912 1_455 S
C746 H740 0.930 . S
C746 C747 1.367 . S
C746 C754 1.389 . S
C747 C746 1.367 . S
C747 C755 1.433 . S
C748 H744 0.912 1_455 S
C748 C750 1.389 . S
C748 C752 1.355 . S
C749 C752 1.463 1_655 S
C749 C754 1.355 . S
C749 N757 1.427 . S
C750 H741 0.930 . S
C750 C748 1.389 . S
C750 C751 1.367 . S
C751 C750 1.367 . S
C751 C753 1.433 . S
C752 C748 1.355 . S
C752 C749 1.463 1_455 S
C752 N756 1.427 . S
C753 H743 0.929 . S
C753 C751 1.433 . S
C753 N756 1.384 . S
C754 H745 0.912 1_655 S
C754 C746 1.389 . S
C754 C749 1.355 . S
C755 H742 0.929 . S
C755 C747 1.433 . S
C755 N757 1.384 . S
N756 C752 1.427 . S
N756 C753 1.384 . S
N757 C749 1.427 . S
N757 C755 1.384 . S
H758 C764 0.930 . S
H759 C768 0.930 . S
H760 C773 0.929 1_565 S
H761 C771 0.929 1_545 S
H762 C766 0.929 . S
H763 C772 0.929 . S
C764 H758 0.930 . S
C764 C765 1.367 . S
C764 C772 1.378 . S
C765 C764 1.367 . S
C765 C773 1.433 . S
C766 H762 0.929 . S
C766 C768 1.378 . S
C766 C770 1.350 . S
C767 C770 1.463 1_545 S
C767 C772 1.350 . S
C767 N775 1.427 1_545 S
C768 H759 0.930 . S
C768 C766 1.378 . S
C768 C769 1.367 . S
C769 C768 1.367 . S
C769 C771 1.433 . S
C770 C766 1.350 . S
C770 C767 1.463 1_565 S
C770 N774 1.427 1_565 S
C771 H761 0.929 1_565 S
C771 C769 1.433 . S
C771 N774 1.384 1_565 S
C772 H763 0.929 . S
C772 C764 1.378 . S
C772 C767 1.350 . S
C773 H760 0.929 1_545 S
C773 C765 1.433 . S
C773 N775 1.384 1_545 S
N774 C770 1.427 1_545 S
N774 C771 1.384 1_545 S
N775 C767 1.427 1_565 S
N775 C773 1.384 1_565 S
H776 C782 0.930 . S
H777 C786 0.930 . S
H778 C791 0.929 . S
H779 C789 0.929 . S
H780 C784 0.929 . S
H781 C790 0.929 . S
C782 H776 0.930 . S
C782 C783 1.367 . S
C782 C790 1.378 . S
C783 C782 1.367 . S
C783 C791 1.433 . S
C784 H780 0.929 . S
C784 C786 1.378 . S
C784 C788 1.350 . S
C785 C788 1.463 . S
C785 C790 1.350 . S
C785 N793 1.427 . S
C786 H777 0.930 . S
C786 C784 1.378 . S
C786 C787 1.367 . S
C787 C786 1.367 . S
C787 C789 1.433 . S
C788 C784 1.350 . S
C788 C785 1.463 . S
C788 N792 1.427 . S
C789 H779 0.929 . S
C789 C787 1.433 . S
C789 N792 1.384 . S
C790 H781 0.929 . S
C790 C782 1.378 . S
C790 C785 1.350 . S
C791 H778 0.929 . S
C791 C783 1.433 . S
C791 N793 1.384 . S
N792 C788 1.427 . S
N792 C789 1.384 . S
N793 C785 1.427 . S
N793 C791 1.384 . S
H794 C800 0.930 . S
H795 C804 0.930 . S
H796 C809 0.929 . S
H797 C807 0.929 . S
H798 C802 0.929 . S
H799 C808 0.929 . S
C800 H794 0.930 . S
C800 C801 1.367 . S
C800 C808 1.378 . S
C801 C800 1.367 . S
C801 C809 1.433 . S
C802 H798 0.929 . S
C802 C804 1.378 . S
C802 C806 1.350 . S
C803 C806 1.463 . S
C803 C808 1.350 . S
C803 N811 1.427 . S
C804 H795 0.930 . S
C804 C802 1.378 . S
C804 C805 1.367 . S
C805 C804 1.367 . S
C805 C807 1.433 . S
C806 C802 1.350 . S
C806 C803 1.463 . S
C806 N810 1.427 . S
C807 H797 0.929 . S
C807 C805 1.433 . S
C807 N810 1.384 . S
C808 H799 0.929 . S
C808 C800 1.378 . S
C808 C803 1.350 . S
C809 H796 0.929 . S
C809 C801 1.433 . S
C809 N811 1.384 . S
N810 C806 1.427 . S
N810 C807 1.384 . S
N811 C803 1.427 . S
N811 C809 1.384 . S
H812 C818 0.930 . S
H813 C822 0.930 . S
H814 C827 0.929 . S
H815 C825 0.929 . S
H816 C820 0.929 . S
H817 C826 0.929 . S
C818 H812 0.930 . S
C818 C819 1.367 . S
C818 C826 1.378 . S
C819 C818 1.367 . S
C819 C827 1.433 . S
C820 H816 0.929 . S
C820 C822 1.378 . S
C820 C824 1.350 . S
C821 C824 1.463 . S
C821 C826 1.350 . S
C821 N829 1.427 . S
C822 H813 0.930 . S
C822 C820 1.378 . S
C822 C823 1.367 . S
C823 C822 1.367 . S
C823 C825 1.433 . S
C824 C820 1.350 . S
C824 C821 1.463 . S
C824 N828 1.427 . S
C825 H815 0.929 . S
C825 C823 1.433 . S
C825 N828 1.384 . S
C826 H817 0.929 . S
C826 C818 1.378 . S
C826 C821 1.350 . S
C827 H814 0.929 . S
C827 C819 1.433 . S
C827 N829 1.384 . S
N828 C824 1.427 . S
N828 C825 1.384 . S
N829 C821 1.427 . S
N829 C827 1.384 . S
H830 C836 0.930 . S
H831 C840 0.930 . S
H832 C845 0.929 . S
H833 C843 0.929 . S
H834 C838 0.929 . S
H835 C844 0.929 . S
C836 H830 0.930 . S
C836 C837 1.367 . S
C836 C844 1.378 . S
C837 C836 1.367 . S
C837 C845 1.433 . S
C838 H834 0.929 . S
C838 C840 1.378 . S
C838 C842 1.350 . S
C839 C842 1.463 . S
C839 C844 1.350 . S
C839 N847 1.427 . S
C840 H831 0.930 . S
C840 C838 1.378 . S
C840 C841 1.367 . S
C841 C840 1.367 . S
C841 C843 1.433 . S
C842 C838 1.350 . S
C842 C839 1.463 . S
C842 N846 1.427 . S
C843 H833 0.929 . S
C843 C841 1.433 . S
C843 N846 1.384 . S
C844 H835 0.929 . S
C844 C836 1.378 . S
C844 C839 1.350 . S
C845 H832 0.929 . S
C845 C837 1.433 . S
C845 N847 1.384 . S
N846 C842 1.427 . S
N846 C843 1.384 . S
N847 C839 1.427 . S
N847 C845 1.384 . S
H848 C854 0.930 . S
H849 C858 0.930 . S
H850 C863 0.929 . S
H851 C861 0.929 . S
H852 C856 0.922 1_556 S
H853 C862 0.929 . S
C854 H848 0.930 . S
C854 C855 1.367 . S
C854 C862 1.378 . S
C855 C854 1.367 . S
C855 C863 1.433 . S
C856 H852 0.922 1_554 S
C856 C858 1.394 . S
C856 C860 1.340 1_554 S
C857 C860 1.463 . S
C857 C862 1.350 . S
C857 N865 1.427 . S
C858 H849 0.930 . S
C858 C856 1.394 . S
C858 C859 1.367 . S
C859 C858 1.367 . S
C859 C861 1.433 . S
C860 C856 1.340 1_556 S
C860 C857 1.463 . S
C860 N864 1.427 . S
C861 H851 0.929 . S
C861 C859 1.433 . S
C861 N864 1.384 1_554 S
C862 H853 0.929 . S
C862 C854 1.378 . S
C862 C857 1.350 . S
C863 H850 0.929 . S
C863 C855 1.433 . S
C863 N865 1.384 . S
N864 C860 1.427 . S
N864 C861 1.384 1_556 S
N865 C857 1.427 . S
N865 C863 1.384 . S
H866 C872 0.930 . S
H867 C876 0.930 . S
H868 C881 0.929 . S
H869 C879 0.929 . S
H870 C874 0.929 . S
H871 C880 0.929 . S
C872 H866 0.930 . S
C872 C873 1.367 . S
C872 C880 1.378 . S
C873 C872 1.367 . S
C873 C881 1.433 . S
C874 H870 0.929 . S
C874 C876 1.378 . S
C874 C878 1.350 . S
C875 C878 1.463 . S
C875 C880 1.350 1_554 S
C875 N883 1.427 . S
C876 H867 0.930 . S
C876 C874 1.378 . S
C876 C877 1.367 . S
C877 C876 1.367 . S
C877 C879 1.433 . S
C878 C874 1.350 . S
C878 C875 1.463 . S
C878 N882 1.427 . S
C879 H869 0.929 . S
C879 C877 1.433 . S
C879 N882 1.384 . S
C880 H871 0.929 . S
C880 C872 1.378 . S
C880 C875 1.350 1_556 S
C881 H868 0.929 . S
C881 C873 1.433 . S
C881 N883 1.384 1_556 S
N882 C878 1.427 . S
N882 C879 1.384 . S
N883 C875 1.427 . S
N883 C881 1.384 1_554 S
H884 C890 0.930 . S
H885 C894 0.930 . S
H886 C899 0.929 . S
H887 C897 0.929 . S
H888 C892 0.929 . S
H889 C898 0.929 . S
C890 H884 0.930 . S
C890 C891 1.367 . S
C890 C898 1.378 1_554 S
C891 C890 1.367 . S
C891 C899 1.433 . S
C892 H888 0.929 . S
C892 C894 1.378 . S
C892 C896 1.350 . S
C893 C896 1.463 . S
C893 C898 1.350 . S
C893 N901 1.427 1_556 S
C894 H885 0.930 . S
C894 C892 1.378 . S
C894 C895 1.367 . S
C895 C894 1.367 . S
C895 C897 1.433 . S
C896 C892 1.350 . S
C896 C893 1.463 . S
C896 N900 1.427 . S
C897 H887 0.929 . S
C897 C895 1.433 . S
C897 N900 1.384 . S
C898 H889 0.929 . S
C898 C890 1.378 1_556 S
C898 C893 1.350 . S
C899 H886 0.929 . S
C899 C891 1.433 . S
C899 N901 1.384 . S
N900 C896 1.427 . S
N900 C897 1.384 . S
N901 C893 1.427 1_554 S
N901 C899 1.384 . S
H902 C908 0.930 . S
H903 C912 0.930 . S
H904 C917 0.929 . S
H905 C915 0.929 . S
H906 C910 0.929 . S
H907 C916 0.929 . S
C908 H902 0.930 . S
C908 C909 1.367 . S
C908 C916 1.378 1_556 S
C909 C908 1.367 . S
C909 C917 1.433 . S
C910 H906 0.929 . S
C910 C912 1.378 . S
C910 C914 1.350 . S
C911 C914 1.463 . S
C911 C916 1.350 . S
C911 N919 1.427 1_554 S
C912 H903 0.930 . S
C912 C910 1.378 . S
C912 C913 1.367 . S
C913 C912 1.367 . S
C913 C915 1.433 . S
C914 C910 1.350 . S
C914 C911 1.463 . S
C914 N918 1.427 . S
C915 H905 0.929 . S
C915 C913 1.433 . S
C915 N918 1.384 . S
C916 H907 0.929 . S
C916 C908 1.378 1_554 S
C916 C911 1.350 . S
C917 H904 0.929 . S
C917 C909 1.433 . S
C917 N919 1.384 . S
N918 C914 1.427 . S
N918 C915 1.384 . S
N919 C911 1.427 1_556 S
N919 C917 1.384 . S
H920 C926 0.930 . S
H921 C930 0.930 . S
H922 C935 0.929 . S
H923 C933 0.929 . S
H924 C928 0.929 . S
H925 C934 0.929 . S
C926 H920 0.930 . S
C926 C927 1.367 . S
C926 C934 1.378 . S
C927 C926 1.367 . S
C927 C935 1.433 . S
C928 H924 0.929 . S
C928 C930 1.378 . S
C928 C932 1.350 . S
C929 C932 1.463 . S
C929 C934 1.350 . S
C929 N937 1.427 . S
C930 H921 0.930 . S
C930 C928 1.378 . S
C930 C931 1.367 . S
C931 C930 1.367 . S
C931 C933 1.433 . S
C932 C928 1.350 . S
C932 C929 1.463 . S
C932 N936 1.427 . S
C933 H923 0.929 . S
C933 C931 1.433 . S
C933 N936 1.384 . S
C934 H925 0.929 . S
C934 C926 1.378 . S
C934 C929 1.350 . S
C935 H922 0.929 . S
C935 C927 1.433 . S
C935 N937 1.384 . S
N936 C932 1.427 . S
N936 C933 1.384 . S
N937 C929 1.427 . S
N937 C935 1.384 . S
H938 C944 0.930 . S
H939 C948 0.930 . S
H940 C953 0.929 . S
H941 C951 0.929 . S
H942 C946 0.929 . S
H943 C952 0.929 . S
C944 H938 0.930 . S
C944 C945 1.367 . S
C944 C952 1.378 . S
C945 C944 1.367 . S
C945 C953 1.433 . S
C946 H942 0.929 . S
C946 C948 1.378 . S
C946 C950 1.350 . S
C947 C950 1.463 . S
C947 C952 1.350 . S
C947 N955 1.427 . S
C948 H939 0.930 . S
C948 C946 1.378 . S
C948 C949 1.367 . S
C949 C948 1.367 . S
C949 C951 1.433 . S
C950 C946 1.350 . S
C950 C947 1.463 . S
C950 N954 1.427 . S
C951 H941 0.929 . S
C951 C949 1.433 . S
C951 N954 1.384 . S
C952 H943 0.929 . S
C952 C944 1.378 . S
C952 C947 1.350 . S
C953 H940 0.929 . S
C953 C945 1.433 . S
C953 N955 1.384 . S
N954 C950 1.427 . S
N954 C951 1.384 . S
N955 C947 1.427 . S
N955 C953 1.384 . S
H956 C962 0.930 . S
H957 C966 0.930 . S
H958 C971 0.929 . S
H959 C969 0.929 . S
H960 C964 0.929 . S
H961 C970 0.929 . S
C962 H956 0.930 . S
C962 C963 1.367 . S
C962 C970 1.378 . S
C963 C962 1.367 . S
C963 C971 1.433 . S
C964 H960 0.929 . S
C964 C966 1.378 . S
C964 C968 1.350 . S
C965 C968 1.463 . S
C965 C970 1.350 . S
C965 N973 1.427 . S
C966 H957 0.930 . S
C966 C964 1.378 . S
C966 C967 1.367 . S
C967 C966 1.367 . S
C967 C969 1.433 . S
C968 C964 1.350 . S
C968 C965 1.463 . S
C968 N972 1.427 . S
C969 H959 0.929 . S
C969 C967 1.433 . S
C969 N972 1.384 . S
C970 H961 0.929 . S
C970 C962 1.378 . S
C970 C965 1.350 . S
C971 H958 0.929 . S
C971 C963 1.433 . S
C971 N973 1.384 . S
N972 C968 1.427 . S
N972 C969 1.384 . S
N973 C965 1.427 . S
N973 C971 1.384 . S
H974 C980 0.930 . S
H975 C984 0.930 . S
H976 C989 0.929 . S
H977 C987 0.929 . S
H978 C982 0.929 . S
H979 C988 0.929 . S
C980 H974 0.930 . S
C980 C981 1.367 . S
C980 C988 1.378 . S
C981 C980 1.367 . S
C981 C989 1.433 . S
C982 H978 0.929 . S
C982 C984 1.378 . S
C982 C986 1.350 . S
C983 C986 1.463 . S
C983 C988 1.350 . S
C983 N991 1.427 . S
C984 H975 0.930 . S
C984 C982 1.378 . S
C984 C985 1.367 . S
C985 C984 1.367 . S
C985 C987 1.433 . S
C986 C982 1.350 . S
C986 C983 1.463 . S
C986 N990 1.427 . S
C987 H977 0.929 . S
C987 C985 1.433 . S
C987 N990 1.384 . S
C988 H979 0.929 . S
C988 C980 1.378 . S
C988 C983 1.350 . S
C989 H976 0.929 . S
C989 C981 1.433 . S
C989 N991 1.384 . S
N990 C986 1.427 . S
N990 C987 1.384 . S
N991 C983 1.427 . S
N991 C989 1.384 . S
C711 C205 1.142 . S
C715 C29 1.142 . S
C729 C321 1.126 . S
C733 C117 1.126 . S
C747 C401 1.127 . S
C751 C557 1.127 . S
C765 C489 1.147 . S
C769 C673 1.147 . S
C783 C108 0.722 . S
C787 C57 0.741 . S
C801 C145 0.729 . S
C805 C225 0.708 . S
C819 C313 0.712 . S
C823 C233 0.729 . S
C837 C293 0.723 . S
C841 C49 0.735 . S
C855 C636 0.722 . S
C859 C372 0.734 . S
C873 C460 0.741 . S
C877 C409 0.736 . S
C891 C585 0.723 . S
C895 C469 0.705 . S
C909 C645 0.721 . S
C913 C548 0.711 . S
C927 C20 2.119 . S
C931 C497 2.119 . S
C945 C577 2.119 . S
C949 C137 2.120 . S
C963 C196 2.115 . S
C967 C665 2.115 . S
C981 C284 2.116 . S
C985 C381 2.117 . S
