# Generated by pormake.
# Topology bcg, (8)-cn, num edge types: 1
# Building blocks:
#     Node 0, Type 0, BuildingBlock: XADDAJ01_clean_sbu_3, # of connection points: 8
#     Node 1, Type 0, BuildingBlock: XADDAJ01_clean_sbu_3, # of connection points: 8
#     Node 2, Type 0, BuildingBlock: XADDAJ01_clean_sbu_3, # of connection points: 8
#     Node 3, Type 0, BuildingBlock: XADDAJ01_clean_sbu_3, # of connection points: 8
#     Edge 4, Type (0, 0), BuildingBlock: XIVTED_clean_linker_0, # of connection points: 2
#     Edge 5, Type (0, 0), BuildingBlock: XIVTED_clean_linker_0, # of connection points: 2
#     Edge 6, Type (0, 0), BuildingBlock: XIVTED_clean_linker_0, # of connection points: 2
#     Edge 7, Type (0, 0), BuildingBlock: XIVTED_clean_linker_0, # of connection points: 2
#     Edge 8, Type (0, 0), BuildingBlock: XIVTED_clean_linker_0, # of connection points: 2
#     Edge 9, Type (0, 0), BuildingBlock: XIVTED_clean_linker_0, # of connection points: 2
#     Edge 10, Type (0, 0), BuildingBlock: XIVTED_clean_linker_0, # of connection points: 2
#     Edge 11, Type (0, 0), BuildingBlock: XIVTED_clean_linker_0, # of connection points: 2
#     Edge 12, Type (0, 0), BuildingBlock: XIVTED_clean_linker_0, # of connection points: 2
#     Edge 13, Type (0, 0), BuildingBlock: XIVTED_clean_linker_0, # of connection points: 2
#     Edge 14, Type (0, 0), BuildingBlock: XIVTED_clean_linker_0, # of connection points: 2
#     Edge 15, Type (0, 0), BuildingBlock: XIVTED_clean_linker_0, # of connection points: 2
#     Edge 16, Type (0, 0), BuildingBlock: XIVTED_clean_linker_0, # of connection points: 2
#     Edge 17, Type (0, 0), BuildingBlock: XIVTED_clean_linker_0, # of connection points: 2
#     Edge 18, Type (0, 0), BuildingBlock: XIVTED_clean_linker_0, # of connection points: 2
#     Edge 19, Type (0, 0), BuildingBlock: XIVTED_clean_linker_0, # of connection points: 2
# Relax obj value: 0.165
# Max RMSD: 0.233
# Mean RMSD: 0.233
data_MOF--net-bcg--node1-XADDAJ01_clean_sbu_3--edge1-XIVTED_clean_linker_0
_symmetry_space_group_name_H-M    P1
_symmetry_Int_Tables_number       1
_symmetry_cell_setting            triclinic
loop_
_symmetry_equiv_pos_as_xyz
'x, y, z'
_cell_length_a     22.083119
_cell_length_b     17.237133
_cell_length_c     33.754277
_cell_angle_alpha  80.492469
_cell_angle_beta   89.769683
_cell_angle_gamma 88.619135
loop_
_atom_site_label
_atom_site_type_symbol
_atom_site_fract_x
_atom_site_fract_y
_atom_site_fract_z
_atom_type_partial_charge
C0 C 0.09504 0.31159 0.05896 0.0
C1 C 0.0478 0.28459 0.03692 0.0
C2 C 0.99007 0.27188 0.05445 0.0
C3 C 0.98041 0.28501 0.0938 0.0
C4 C 0.02609 0.31383 0.11578 0.0
C5 C 0.08377 0.32574 0.09833 0.0
O6 O 0.22158 0.19938 0.96675 0.0
Tb7 Tb 0.21993 0.31698 0.98139 0.0
Tb8 Tb 0.33879 0.18068 0.02308 0.0
O9 O 0.17042 0.35279 0.92591 0.0
O10 O 0.25122 0.12385 0.02516 0.0
O11 O 0.15465 0.38325 0.00701 0.0
C12 C 0.40838 0.14844 0.96883 0.0
O13 O 0.196 0.27576 0.04143 0.0
O14 O 0.34641 0.30104 0.034 0.0
O15 O 0.30594 0.37693 0.97767 0.0
C16 C 0.1549 0.33267 0.04083 0.0
C17 C 0.34396 0.15322 0.11343 0.0
O18 O 0.2859 0.16928 0.10751 0.0
C19 C 0.21352 0.13821 0.99465 0.0
C20 C 0.34733 0.36404 0.00611 0.0
O21 O 0.37863 0.14861 0.08219 0.0
C22 C 0.46912 0.16288 0.95028 0.0
C23 C 0.5306 0.17991 0.88904 0.0
C24 C 0.47388 0.17094 0.90809 0.0
C25 C 0.52234 0.16388 0.97347 0.0
C26 C 0.57948 0.17069 0.95453 0.0
C27 C 0.5828 0.17815 0.91268 0.0
C28 C 0.19647 0.33921 0.89266 0.0
O29 O 0.25255 0.31152 0.89448 0.0
O30 O 0.40605 0.10633 0.00512 0.0
O31 O 0.36778 0.20668 0.96302 0.0
H32 H 0.05538 0.27592 0.00619 0.0
H33 H 0.93594 0.27418 0.10705 0.0
H34 H 0.11926 0.34923 0.11468 0.0
H35 H 0.43335 0.17086 0.89007 0.0
H36 H 0.51953 0.15772 0.00589 0.0
H37 H 0.62688 0.18334 0.89828 0.0
C38 C 0.56367 0.87012 0.06111 0.0
C39 C 0.51283 0.85745 0.03842 0.0
C40 C 0.45443 0.86224 0.05455 0.0
C41 C 0.44759 0.87929 0.09357 0.0
C42 C 0.49799 0.89282 0.11657 0.0
C43 C 0.55615 0.88816 0.09993 0.0
O44 O 0.72755 0.75487 0.97199 0.0
Tb45 Tb 0.67814 0.86268 0.97956 0.0
Tb46 Tb 0.85278 0.70616 0.00656 0.0
O47 O 0.62105 0.89475 0.92695 0.0
O48 O 0.76769 0.64411 0.00775 0.0
O49 O 0.64683 0.92663 0.02349 0.0
C50 C 0.90525 0.70818 0.94061 0.0
O51 O 0.63752 0.79858 0.03025 0.0
O52 O 0.80063 0.81158 0.01392 0.0
O53 O 0.76368 0.92414 0.97871 0.0
C54 C 0.62516 0.86286 0.04527 0.0
C55 C 0.88686 0.62346 0.08938 0.0
O56 O 0.83486 0.59098 0.08426 0.0
C57 C 0.71924 0.6841 0.99246 0.0
C58 C 0.8108 0.88295 0.99514 0.0
O59 O 0.90885 0.6734 0.0595 0.0
C60 C 0.96578 0.70217 0.92312 0.0
C61 C 0.02683 0.68371 0.86521 0.0
C62 C 0.9705 0.68325 0.88437 0.0
C63 C 1.01807 0.71951 0.94325 0.0
C64 C 0.07504 0.71857 0.92448 0.0
C65 C 0.07878 0.70128 0.88529 0.0
C66 C 0.64058 0.94584 0.89659 0.0
O67 O 0.69213 0.98042 0.90034 0.0
O68 O 0.88406 0.64364 0.96201 0.0
O69 O 0.89345 0.77171 0.9564 0.0
H70 H 0.5188 0.84386 0.00838 0.0
H71 H 0.40265 0.87914 0.10658 0.0
H72 H 0.5957 0.8986 0.11705 0.0
H73 H 0.93008 0.67097 0.86855 0.0
H74 H 1.01431 0.73383 0.97327 0.0
H75 H 0.12212 0.70274 0.86998 0.0
C76 C 0.07178 0.69229 0.42281 0.0
C77 C 0.01916 0.7086 0.44377 0.0
C78 C 0.96181 0.70349 0.42659 0.0
C79 C 0.95786 0.6799 0.38883 0.0
C80 C 1.01009 0.66307 0.36767 0.0
C81 C 0.06709 0.66981 0.38485 0.0
O82 O 0.22854 0.80253 0.51488 0.0
Tb83 Tb 0.18146 0.69665 0.50654 0.0
Tb84 Tb 0.35382 0.8436 0.48304 0.0
O85 O 0.11973 0.67342 0.55684 0.0
O86 O 0.26828 0.91169 0.48084 0.0
O87 O 0.15458 0.63437 0.46172 0.0
C88 C 0.40625 0.84044 0.54901 0.0
O89 O 0.14225 0.76273 0.45507 0.0
O90 O 0.30566 0.738 0.47561 0.0
O91 O 0.26707 0.62862 0.51027 0.0
C92 C 0.13225 0.69878 0.43973 0.0
C93 C 0.38671 0.92574 0.40032 0.0
O94 O 0.33455 0.96065 0.40588 0.0
C95 C 0.21951 0.87455 0.49538 0.0
C96 C 0.31537 0.66606 0.49499 0.0
O97 O 0.40961 0.87492 0.43009 0.0
C98 C 0.46675 0.84861 0.56573 0.0
C99 C 0.52838 0.88228 0.62001 0.0
C100 C 0.47142 0.87506 0.60277 0.0
C101 C 0.51942 0.82868 0.54586 0.0
C102 C 0.57668 0.83429 0.56308 0.0
C103 C 0.58063 0.86173 0.5999 0.0
C104 C 0.12946 0.61527 0.5867 0.0
O105 O 0.17329 0.56362 0.58376 0.0
O106 O 0.38135 0.90466 0.52836 0.0
O107 O 0.39771 0.77737 0.53263 0.0
H108 H 0.023 0.72699 0.47285 0.0
H109 H 0.91371 0.67574 0.37552 0.0
H110 H 0.10784 0.65712 0.36882 0.0
H111 H 0.43066 0.89035 0.61807 0.0
H112 H 0.51569 0.8072 0.51756 0.0
H113 H 0.62471 0.86637 0.61321 0.0
C114 C 0.56747 0.22619 0.43769 0.0
C115 C 0.52645 0.27118 0.45686 0.0
C116 C 0.47057 0.29639 0.43878 0.0
C117 C 0.45658 0.27585 0.40139 0.0
C118 C 0.49647 0.22919 0.38232 0.0
C119 C 0.55245 0.2054 0.40048 0.0
O120 O 0.73225 0.31684 0.51893 0.0
Tb121 Tb 0.68878 0.20475 0.51734 0.0
Tb122 Tb 0.85536 0.34783 0.47759 0.0
O123 O 0.63944 0.19555 0.57393 0.0
O124 O 0.76859 0.41428 0.47312 0.0
O125 O 0.62694 0.14453 0.48723 0.0
C126 C 0.90722 0.36388 0.54139 0.0
O127 O 0.66376 0.25744 0.4593 0.0
O128 O 0.80583 0.23937 0.48078 0.0
O129 O 0.77102 0.13153 0.51811 0.0
C130 C 0.62657 0.20082 0.45567 0.0
C131 C 0.88007 0.3883 0.38902 0.0
O132 O 0.82216 0.40674 0.39093 0.0
C133 C 0.72174 0.38253 0.49367 0.0
C134 C 0.81802 0.16826 0.5006 0.0
O135 O 0.90914 0.36377 0.42284 0.0
C136 C 0.96477 0.37624 0.56075 0.0
C137 C 0.01933 0.37723 0.62305 0.0
C138 C 0.96501 0.37119 0.6028 0.0
C139 C 0.01941 0.38686 0.53901 0.0
C140 C 0.07403 0.39268 0.55956 0.0
C141 C 0.07277 0.39097 0.60115 0.0
C142 C 0.66949 0.21281 0.60478 0.0
O143 O 0.72648 0.23223 0.59942 0.0
O144 O 0.88431 0.42333 0.51588 0.0
O145 O 0.90041 0.29518 0.52996 0.0
H146 H 0.5378 0.28562 0.48591 0.0
H147 H 0.41317 0.2939 0.3876 0.0
H148 H 0.58382 0.16931 0.38618 0.0
H149 H 0.9236 0.35901 0.61983 0.0
H150 H 0.01975 0.38654 0.50693 0.0
H151 H 0.11478 0.39499 0.61718 0.0
H152 H 0.67191 0.06255 0.96088 0.0
H153 H 0.95832 0.12711 0.03892 0.0
H154 H 0.62024 0.28474 0.99479 0.0
H155 H 0.89741 0.36922 0.02449 0.0
H156 H 0.8575 0.09079 0.0193 0.0
H157 H 0.77581 0.08003 0.98168 0.0
C158 C 0.6823 0.11383 0.97404 0.0
C159 C 0.6373 0.17158 0.97679 0.0
C160 C 0.86641 0.15227 0.01891 0.0
C161 C 0.75681 0.19297 0.0004 0.0
C162 C 0.92429 0.17292 0.02995 0.0
C163 C 0.93652 0.25147 0.03221 0.0
C164 C 0.8204 0.2108 0.01016 0.0
C165 C 0.8901 0.30826 0.02209 0.0
C166 C 0.74181 0.12399 0.98589 0.0
C167 C 0.65331 0.23803 0.993 0.0
N168 N 0.83417 0.28681 0.01178 0.0
N169 N 0.71183 0.24729 0.00378 0.0
H170 H 0.18514 0.64221 0.92772 0.0
H171 H 0.34705 0.94551 0.04622 0.0
H172 H 0.09193 0.83902 0.96699 0.0
H173 H 0.43791 0.74229 0.01183 0.0
H174 H 0.25427 0.91074 0.01481 0.0
H175 H 0.27872 0.67977 0.957 0.0
C176 C 0.18444 0.6934 0.94254 0.0
C177 C 0.13078 0.73779 0.94478 0.0
C178 C 0.29448 0.87385 0.01402 0.0
C179 C 0.23778 0.78122 0.97835 0.0
C180 C 0.34744 0.89367 0.03191 0.0
C181 C 0.40008 0.84635 0.03186 0.0
C182 C 0.29404 0.80608 -0.00401 0.0
C183 C 0.39843 0.78061 0.01235 0.0
C184 C 0.23785 0.71476 0.95928 0.0
C185 C 0.13218 0.80282 0.96485 0.0
N186 N 0.3461 0.76213 -0.00459 0.0
N187 N 0.18494 0.8228 0.98072 0.0
H188 H 0.67384 0.74718 0.59747 0.0
H189 H 0.86479 0.79176 0.39343 0.0
H190 H 0.60697 0.86833 0.48334 0.0
H191 H 0.93093 0.66349 0.50623 0.0
H192 H 0.77033 0.82061 0.4262 0.0
H193 H 0.76813 0.71555 0.56488 0.0
C194 C 0.67909 0.7673 0.56553 0.0
C195 C 0.63266 0.81105 0.54312 0.0
C196 C 0.80539 0.78613 0.44386 0.0
C197 C 0.74038 0.77462 0.50559 0.0
C198 C 0.85932 0.76938 0.42513 0.0
C199 C 0.90566 0.72455 0.44707 0.0
C200 C 0.79754 0.75812 0.48496 0.0
C201 C 0.89653 0.69861 0.48825 0.0
C202 C 0.73284 0.74895 0.54694 0.0
C203 C 0.64142 0.83417 0.50172 0.0
N204 N 0.8434 0.71558 0.50585 0.0
N205 N 0.69435 0.81599 0.48433 0.0
H206 H 0.11668 0.48177 0.48966 0.0
H207 H 0.44076 0.26193 0.51822 0.0
H208 H 0.16783 0.29466 0.58583 0.0
H209 H 0.39081 0.41722 0.40884 0.0
H210 H 0.34753 0.29983 0.5491 0.0
H211 H 0.22091 0.4778 0.46292 0.0
C212 C 0.14972 0.43997 0.50495 0.0
C213 C 0.13402 0.3891 0.54014 0.0
C214 C 0.35708 0.32632 0.51841 0.0
C215 C 0.25225 0.38498 0.51055 0.0
C216 C 0.41092 0.30547 0.50092 0.0
C217 C 0.42292 0.33476 0.46051 0.0
C218 C 0.31453 0.37618 0.49526 0.0
C219 C 0.38228 0.39123 0.43973 0.0
C220 C 0.20906 0.43816 0.49002 0.0
C221 C 0.17826 0.33594 0.559 0.0
N222 N 0.32916 0.40901 0.45707 0.0
N223 N 0.2351 0.33548 0.54406 0.0
H224 H 0.61401 0.73007 0.95085 0.0
H225 H 0.43572 0.35768 0.06286 0.0
H226 H 0.68677 0.55799 0.04736 0.0
H227 H 0.3698 0.50161 0.95389 0.0
H228 H 0.52037 0.44477 0.06324 0.0
H229 H 0.51729 0.66145 0.95732 0.0
C230 C 0.60938 0.67853 0.97371 0.0
C231 C 0.65856 0.64941 -0.00151 0.0
C232 C 0.4873 0.4578 0.03931 0.0
C233 C 0.54865 0.5705 0.00577 0.0
C234 C 0.43867 0.40799 0.03907 0.0
C235 C 0.39564 0.42169 0.00803 0.0
C236 C 0.49353 0.52212 0.00825 0.0
C237 C 0.40206 0.48841 0.97826 0.0
C238 C 0.55434 0.63923 0.97724 0.0
C239 C 0.65025 0.58222 0.02744 0.0
N240 N 0.45042 0.5359 0.97893 0.0
N241 N 0.59659 0.54498 0.03013 0.0
H242 H 0.68513 0.51996 0.44496 0.0
H243 H 0.34969 0.52316 0.53859 0.0
H244 H 0.61972 0.3391 0.53776 0.0
H245 H 0.41939 0.71579 0.45423 0.0
H246 H 0.44732 0.45344 0.53713 0.0
H247 H 0.58717 0.59004 0.44557 0.0
C248 C 0.65008 0.49444 0.46522 0.0
C249 C 0.66088 0.42291 0.4912 0.0
C250 C 0.44149 0.51115 0.51908 0.0
C251 C 0.54833 0.5035 0.4923 0.0
C252 C 0.3857 0.55128 0.52005 0.0
C253 C 0.3763 0.62613 0.49688 0.0
C254 C 0.48849 0.54548 0.49445 0.0
C255 C 0.42466 0.65883 0.47303 0.0
C256 C 0.59414 0.53475 0.46566 0.0
C257 C 0.61364 0.39346 0.51699 0.0
N258 N 0.47843 0.61837 0.47237 0.0
N259 N 0.55973 0.43366 0.51689 0.0
H260 H 0.17729 1.00627 0.04631 0.0
H261 H 0.8522 1.00713 0.9415 0.0
H262 H 0.12311 0.16524 0.93904 0.0
H263 H 0.90938 0.8321 0.04159 0.0
H264 H 0.95291 0.06354 0.93944 0.0
H265 H 0.08133 0.938 0.04426 0.0
C266 C 0.14554 0.02646 0.02223 0.0
C267 C 0.15832 0.09168 0.99291 0.0
C268 C 0.94372 1.01227 0.96164 0.0
C269 C 0.04835 1.01472 0.99062 0.0
C270 C 0.88614 0.98023 0.96285 0.0
C271 C 0.87254 0.91475 0.99168 0.0
C272 C 0.98794 0.97897 0.98967 0.0
C273 C 0.91823 0.88218 0.01864 0.0
C274 C 0.09075 0.9876 0.02109 0.0
C275 C 0.11541 0.11531 0.96237 0.0
N276 N 0.9738 0.91483 0.01713 0.0
N277 N 0.06238 0.07727 0.96222 0.0
H278 H 0.85314 0.02792 0.54558 0.0
H279 H 0.18736 1.01788 0.45131 0.0
H280 H 0.92145 0.21543 0.45758 0.0
H281 H 0.1141 0.82738 0.53526 0.0
H282 H 0.09123 0.09121 0.453 0.0
H283 H 0.9491 0.95551 0.54299 0.0
C284 C 0.88858 0.05448 0.52598 0.0
C285 C 0.87906 0.12855 0.50198 0.0
C286 C 0.09594 0.03313 0.47085 0.0
C287 C 0.98974 0.04474 0.49849 0.0
C288 C 0.15086 0.99093 0.4698 0.0
C289 C 0.15898 0.91576 0.49299 0.0
C290 C 0.04845 1.00041 0.49549 0.0
C291 C 0.10993 0.88447 0.51652 0.0
C292 C 0.94345 1.01271 0.52438 0.0
C293 C 0.92681 0.15921 0.47697 0.0
N294 N 0.05708 0.92689 0.51727 0.0
N295 N 0.9799 0.11725 0.47583 0.0
H296 H 0.38572 0.17771 0.36399 0.0
H297 H 0.46404 0.15622 0.1343 0.0
H298 H 0.56418 0.22212 0.314 0.0
H299 H 0.28368 0.14716 0.18438 0.0
H300 H 0.50483 0.16474 0.20095 0.0
H301 H 0.35093 0.15195 0.29938 0.0
C302 C 0.41773 0.18199 0.33937 0.0
C303 C 0.47767 0.20401 0.34423 0.0
C304 C 0.4564 0.16053 0.19728 0.0
C305 C 0.43835 0.17169 0.27007 0.0
C306 C 0.43309 0.15537 0.15934 0.0
C307 C 0.37031 0.1512 0.15378 0.0
C308 C 0.41657 0.16135 0.22978 0.0
C309 C 0.33232 0.15057 0.1872 0.0
C310 C 0.39787 0.16671 0.30246 0.0
C311 C 0.51753 0.20564 0.31156 0.0
N312 N 0.35603 0.15579 0.22364 0.0
N313 N 0.49706 0.19018 0.2757 0.0
H314 H 0.4069 0.98036 0.14412 0.0
H315 H 0.49324 0.86103 0.37621 0.0
H316 H 0.56787 0.84298 0.18423 0.0
H317 H 0.33823 1.00558 0.33102 0.0
H318 H 0.52716 0.86161 0.30678 0.0
H319 H 0.38524 0.99435 0.2131 0.0
C320 C 0.43806 0.9535 0.16737 0.0
C321 C 0.48892 0.90944 0.15816 0.0
C322 C 0.48612 0.8939 0.31219 0.0
C323 C 0.46551 0.92865 0.23767 0.0
C324 C 0.46681 0.89374 0.35178 0.0
C325 C 0.4127 0.93316 0.35944 0.0
C326 C 0.45077 0.93329 0.2802 0.0
C327 C 0.38022 0.97438 0.32666 0.0
C328 C 0.42598 0.96246 0.20685 0.0
C329 C 0.52832 0.87793 0.18973 0.0
N330 N 0.39947 0.97282 0.28861 0.0
N331 N 0.51562 0.88779 0.22814 0.0
H332 H 0.60722 0.98817 0.64148 0.0
H333 H 0.53932 0.87228 0.87576 0.0
H334 H 0.46324 0.83499 0.68888 0.0
H335 H 0.67519 0.03677 0.8263 0.0
H336 H 0.50236 0.86988 0.80774 0.0
H337 H 0.62535 1.01717 0.70875 0.0
C338 C 0.57909 0.96109 0.66605 0.0
C339 C 0.53416 0.90827 0.65965 0.0
C340 C 0.53985 0.90714 0.81182 0.0
C341 C 0.55446 0.94155 0.7369 0.0
C342 C 0.56088 0.90872 0.85068 0.0
C343 C 0.61115 0.95373 0.85672 0.0
C344 C 0.56958 0.95041 0.77876 0.0
C345 C 0.63694 1.00021 0.8231 0.0
C346 C 0.58925 0.97796 0.70445 0.0
C347 C 0.49829 0.87612 0.69245 0.0
N348 N 0.61645 0.99644 0.78559 0.0
N349 N 0.50969 0.89251 0.72976 0.0
H350 H 0.48017 0.09823 0.83362 0.0
H351 H 0.71275 0.28026 0.66555 0.0
H352 H 0.59692 0.29126 0.8432 0.0
H353 H 0.56169 0.14735 0.63493 0.0
H354 H 0.67029 0.27874 0.73193 0.0
H355 H 0.50565 0.11179 0.76156 0.0
C356 C 0.51025 0.14419 0.82046 0.0
C357 C 0.53723 0.19296 0.84455 0.0
C358 C 0.64591 0.25018 0.7108 0.0
C359 C 0.56752 0.20735 0.76292 0.0
C360 C 0.67042 0.25067 0.67277 0.0
C361 C 0.64099 0.21348 0.6446 0.0
C362 C 0.5916 0.21136 0.7214 0.0
C363 C 0.58587 0.17677 0.65578 0.0
C364 C 0.52501 0.15158 0.77947 0.0
C365 C 0.57614 0.25122 0.82603 0.0
N366 N 0.56312 0.1759 0.69357 0.0
N367 N 0.59059 0.25604 0.78666 0.0
H368 H 0.07471 0.71759 0.29937 0.0
H369 H 0.84004 0.54676 0.15936 0.0
H370 H 0.93112 0.56084 0.34334 0.0
H371 H 0.99488 0.67984 0.11197 0.0
H372 H 0.87767 0.54553 0.22693 0.0
H373 H 0.05323 0.69573 0.23091 0.0
C374 C 0.03943 0.67747 0.29472 0.0
C375 C 1.00404 0.64182 0.32702 0.0
C376 C 0.90421 0.57376 0.20184 0.0
C377 C 0.97867 0.61756 0.24889 0.0
C378 C 0.88261 0.57464 0.16309 0.0
C379 C 0.91418 0.61381 0.12988 0.0
C380 C 0.95827 0.61149 0.20768 0.0
C381 C 0.96901 0.64906 0.13675 0.0
C382 C 0.02696 0.66538 0.25562 0.0
C383 C 0.95868 0.59079 0.31922 0.0
N384 N 0.98921 0.64748 0.17496 0.0
N385 N 0.94691 0.58093 0.28099 0.0
H386 H 0.99669 0.34152 0.37173 0.0
H387 H 0.92302 0.38734 0.13676 0.0
H388 H 0.82843 0.43174 0.3155 0.0
H389 H 0.09414 0.29096 0.18597 0.0
H390 H 0.89144 0.40781 0.20295 0.0
H391 H 0.03798 0.33048 0.30492 0.0
C392 C 0.96863 0.35953 0.34543 0.0
C393 C 0.90881 0.38709 0.34931 0.0
C394 C 0.93644 0.38362 0.19944 0.0
C395 C 0.95545 0.37404 0.27315 0.0
C396 C 0.95428 0.37072 0.16152 0.0
C397 C 1.01088 0.33544 0.15575 0.0
C398 C 0.9759 0.36371 0.2322 0.0
C399 C 0.05001 0.31804 0.189 0.0
C400 C 0.99217 0.35303 0.30737 0.0
C401 C 0.87456 0.40962 0.31422 0.0
N402 N 0.03169 0.33203 0.22594 0.0
N403 N 0.8982 0.40206 0.2779 0.0
H404 H 0.08203 0.40323 0.8751 0.0
H405 H 0.07697 0.25088 0.66466 0.0
H406 H 0.23078 0.28416 0.82491 0.0
H407 H 0.97652 0.46094 0.68055 0.0
H408 H 0.11129 0.23549 0.7342 0.0
H409 H 0.02415 0.40197 0.81295 0.0
C410 C 0.10261 0.37734 0.85103 0.0
C411 C 0.16148 0.34411 0.85508 0.0
C412 C 0.08074 0.28411 0.72281 0.0
C413 C 0.09563 0.342 0.78473 0.0
C414 C 0.06075 0.29245 0.68336 0.0
C415 C 0.02443 0.35756 0.66709 0.0
C416 C 0.06431 0.3413 0.7462 0.0
C417 C 1.00451 0.40994 0.69227 0.0
C418 C 0.06962 0.37679 0.81571 0.0
C419 C 0.18582 0.31094 0.82311 0.0
N420 N 0.02544 0.40126 0.73073 0.0
N421 N 0.15275 0.31054 0.78944 0.0
H422 H 0.05989 0.73509 0.60771 0.0
H423 H 1.00709 0.54792 0.83597 0.0
H424 H 0.13294 0.50386 0.65525 0.0
H425 H 0.05751 0.7893 0.79995 0.0
H426 H 0.02141 0.52658 0.76603 0.0
H427 H 0.02593 0.74941 0.67515 0.0
C428 C 0.06775 0.68658 0.63209 0.0
C429 C 0.09982 0.61827 0.62582 0.0
C430 C 0.02918 0.58389 0.77366 0.0
C431 C 0.06046 0.63454 0.7028 0.0
C432 C 0.02069 0.59627 0.81321 0.0
C433 C 0.0315 0.6703 0.82332 0.0
C434 C 0.04739 0.64625 0.7443 0.0
C435 C 0.04908 0.73134 0.79307 0.0
C436 C 0.0486 0.69517 0.67054 0.0
C437 C 0.10864 0.55758 0.65871 0.0
N438 N 0.05634 0.71807 0.75477 0.0
N439 N 0.08925 0.56724 0.69595 0.0
loop_
_geom_bond_atom_site_label_1
_geom_bond_atom_site_label_2
_geom_bond_distance
_geom_bond_site_symmetry_2
_ccdc_geom_bond_type
C0 C1 1.386 . S
C0 C5 1.384 . S
C0 C16 1.497 . S
C1 C0 1.386 . S
C1 C2 1.393 1_455 S
C1 H32 0.932 1_455 S
C2 C1 1.393 1_655 S
C2 C3 1.387 . S
C3 C2 1.387 . S
C3 C4 1.392 1_655 S
C3 H33 0.930 . S
C4 C3 1.392 1_455 S
C4 C5 1.402 . S
C5 C0 1.384 . S
C5 C4 1.402 . S
C5 H34 0.930 . S
O6 Tb7 2.288 . S
O6 C19 1.253 1_556 S
Tb7 O6 2.288 . S
Tb7 O9 2.303 . S
Tb7 O11 2.430 . S
Tb7 O13 2.459 1_556 S
Tb7 O15 2.301 . S
Tb7 C16 2.808 1_556 S
Tb8 O10 2.301 . S
Tb8 C12 2.808 1_554 S
Tb8 O14 2.288 . S
Tb8 O21 2.303 . S
Tb8 O30 2.430 . S
Tb8 O31 2.459 1_554 S
O9 Tb7 2.303 . S
O9 C28 1.255 . S
O10 Tb8 2.301 . S
O10 C19 1.244 . S
O11 Tb7 2.430 . S
O11 C16 1.248 1_556 S
C12 Tb8 2.808 1_556 S
C12 C22 1.497 . S
C12 O30 1.248 1_556 S
C12 O31 1.260 . S
O13 Tb7 2.459 1_554 S
O13 C16 1.260 . S
O14 Tb8 2.288 . S
O14 C20 1.257 . S
O15 Tb7 2.301 . S
O15 C20 1.237 1_556 S
C16 C0 1.497 . S
C16 Tb7 2.808 1_554 S
C16 O11 1.248 1_554 S
C16 O13 1.260 . S
C17 O18 1.255 . S
C17 O21 1.255 . S
O18 C17 1.255 . S
C19 O6 1.253 1_554 S
C19 O10 1.244 . S
C20 O14 1.257 . S
C20 O15 1.237 1_554 S
O21 Tb8 2.303 . S
O21 C17 1.255 . S
C22 C12 1.497 . S
C22 C24 1.384 . S
C22 C25 1.386 . S
C23 C24 1.402 . S
C23 C27 1.392 . S
C24 C22 1.384 . S
C24 C23 1.402 . S
C24 H35 0.930 . S
C25 C22 1.386 . S
C25 C26 1.393 . S
C25 H36 0.932 . S
C26 C25 1.393 . S
C26 C27 1.387 . S
C27 C23 1.392 . S
C27 C26 1.387 . S
C27 H37 0.930 . S
C28 O9 1.255 . S
C28 O29 1.255 . S
O29 C28 1.255 . S
O30 Tb8 2.430 . S
O30 C12 1.248 1_554 S
O31 Tb8 2.459 1_556 S
O31 C12 1.260 . S
H32 C1 0.932 1_655 S
H33 C3 0.930 . S
H34 C5 0.930 . S
H35 C24 0.930 . S
H36 C25 0.932 . S
H37 C27 0.930 . S
C38 C39 1.386 . S
C38 C43 1.384 . S
C38 C54 1.497 . S
C39 C38 1.386 . S
C39 C40 1.393 . S
C39 H70 0.932 . S
C40 C39 1.393 . S
C40 C41 1.387 . S
C41 C40 1.387 . S
C41 C42 1.392 . S
C41 H71 0.930 . S
C42 C41 1.392 . S
C42 C43 1.402 . S
C43 C38 1.384 . S
C43 C42 1.402 . S
C43 H72 0.930 . S
O44 Tb45 2.288 . S
O44 C57 1.253 1_556 S
Tb45 O44 2.288 . S
Tb45 O47 2.303 . S
Tb45 O49 2.430 . S
Tb45 O51 2.459 1_556 S
Tb45 O53 2.301 . S
Tb45 C54 2.808 1_556 S
Tb46 O48 2.301 . S
Tb46 C50 2.808 1_554 S
Tb46 O52 2.288 . S
Tb46 O59 2.303 . S
Tb46 O68 2.430 . S
Tb46 O69 2.459 1_554 S
O47 Tb45 2.303 . S
O47 C66 1.255 . S
O48 Tb46 2.301 . S
O48 C57 1.244 . S
O49 Tb45 2.430 . S
O49 C54 1.248 1_556 S
C50 Tb46 2.808 1_556 S
C50 C60 1.497 . S
C50 O68 1.248 1_556 S
C50 O69 1.260 . S
O51 Tb45 2.459 1_554 S
O51 C54 1.260 . S
O52 Tb46 2.288 . S
O52 C58 1.257 . S
O53 Tb45 2.301 . S
O53 C58 1.237 1_556 S
C54 C38 1.497 . S
C54 Tb45 2.808 1_554 S
C54 O49 1.248 1_554 S
C54 O51 1.260 . S
C55 O56 1.255 . S
C55 O59 1.255 . S
O56 C55 1.255 . S
C57 O44 1.253 1_554 S
C57 O48 1.244 . S
C58 O52 1.257 . S
C58 O53 1.237 1_554 S
O59 Tb46 2.303 . S
O59 C55 1.255 . S
C60 C50 1.497 . S
C60 C62 1.384 . S
C60 C63 1.386 . S
C61 C62 1.402 . S
C61 C65 1.392 1_655 S
C62 C60 1.384 . S
C62 C61 1.402 . S
C62 H73 0.930 . S
C63 C60 1.386 . S
C63 C64 1.393 1_655 S
C63 H74 0.932 1_655 S
C64 C63 1.393 1_455 S
C64 C65 1.387 . S
C65 C61 1.392 1_455 S
C65 C64 1.387 . S
C65 H75 0.930 . S
C66 O47 1.255 . S
C66 O67 1.255 . S
O67 C66 1.255 . S
O68 Tb46 2.430 . S
O68 C50 1.248 1_554 S
O69 Tb46 2.459 1_556 S
O69 C50 1.260 . S
H70 C39 0.932 . S
H71 C41 0.930 . S
H72 C43 0.930 . S
H73 C62 0.930 . S
H74 C63 0.932 1_455 S
H75 C65 0.930 . S
C76 C77 1.386 . S
C76 C81 1.384 . S
C76 C92 1.497 . S
C77 C76 1.386 . S
C77 C78 1.393 1_455 S
C77 H108 0.932 1_455 S
C78 C77 1.393 1_655 S
C78 C79 1.387 . S
C79 C78 1.387 . S
C79 C80 1.392 1_655 S
C79 H109 0.930 . S
C80 C79 1.392 1_455 S
C80 C81 1.402 . S
C81 C76 1.384 . S
C81 C80 1.402 . S
C81 H110 0.930 . S
O82 Tb83 2.288 . S
O82 C95 1.257 . S
Tb83 O82 2.288 . S
Tb83 O85 2.303 . S
Tb83 O87 2.430 . S
Tb83 O89 2.459 . S
Tb83 O91 2.301 . S
Tb83 C92 2.808 . S
Tb84 O86 2.301 . S
Tb84 C88 2.808 . S
Tb84 O90 2.288 . S
Tb84 O97 2.303 . S
Tb84 O106 2.430 . S
Tb84 O107 2.459 . S
O85 Tb83 2.303 . S
O85 C104 1.255 . S
O86 Tb84 2.301 . S
O86 C95 1.237 . S
O87 Tb83 2.430 . S
O87 C92 1.248 . S
C88 Tb84 2.808 . S
C88 C98 1.497 . S
C88 O106 1.248 . S
C88 O107 1.260 . S
O89 Tb83 2.459 . S
O89 C92 1.260 . S
O90 Tb84 2.288 . S
O90 C96 1.257 . S
O91 Tb83 2.301 . S
O91 C96 1.237 . S
C92 C76 1.497 . S
C92 Tb83 2.808 . S
C92 O87 1.248 . S
C92 O89 1.260 . S
C93 O94 1.255 . S
C93 O97 1.255 . S
O94 C93 1.255 . S
C95 O82 1.257 . S
C95 O86 1.237 . S
C96 O90 1.257 . S
C96 O91 1.237 . S
O97 Tb84 2.303 . S
O97 C93 1.255 . S
C98 C88 1.497 . S
C98 C100 1.384 . S
C98 C101 1.386 . S
C99 C100 1.402 . S
C99 C103 1.392 . S
C100 C98 1.384 . S
C100 C99 1.402 . S
C100 H111 0.930 . S
C101 C98 1.386 . S
C101 C102 1.393 . S
C101 H112 0.932 . S
C102 C101 1.393 . S
C102 C103 1.387 . S
C103 C99 1.392 . S
C103 C102 1.387 . S
C103 H113 0.930 . S
C104 O85 1.255 . S
C104 O105 1.255 . S
O105 C104 1.255 . S
O106 Tb84 2.430 . S
O106 C88 1.248 . S
O107 Tb84 2.459 . S
O107 C88 1.260 . S
H108 C77 0.932 1_655 S
H109 C79 0.930 . S
H110 C81 0.930 . S
H111 C100 0.930 . S
H112 C101 0.932 . S
H113 C103 0.930 . S
C114 C115 1.386 . S
C114 C119 1.384 . S
C114 C130 1.497 . S
C115 C114 1.386 . S
C115 C116 1.393 . S
C115 H146 0.932 . S
C116 C115 1.393 . S
C116 C117 1.387 . S
C117 C116 1.387 . S
C117 C118 1.392 . S
C117 H147 0.930 . S
C118 C117 1.392 . S
C118 C119 1.402 . S
C119 C114 1.384 . S
C119 C118 1.402 . S
C119 H148 0.930 . S
O120 Tb121 2.288 . S
O120 C133 1.257 . S
Tb121 O120 2.288 . S
Tb121 O123 2.303 . S
Tb121 O125 2.430 . S
Tb121 O127 2.459 . S
Tb121 O129 2.301 . S
Tb121 C130 2.808 . S
Tb122 O124 2.301 . S
Tb122 C126 2.808 . S
Tb122 O128 2.288 . S
Tb122 O135 2.303 . S
Tb122 O144 2.430 . S
Tb122 O145 2.459 . S
O123 Tb121 2.303 . S
O123 C142 1.255 . S
O124 Tb122 2.301 . S
O124 C133 1.237 . S
O125 Tb121 2.430 . S
O125 C130 1.248 . S
C126 Tb122 2.808 . S
C126 C136 1.497 . S
C126 O144 1.248 . S
C126 O145 1.260 . S
O127 Tb121 2.459 . S
O127 C130 1.260 . S
O128 Tb122 2.288 . S
O128 C134 1.257 . S
O129 Tb121 2.301 . S
O129 C134 1.237 . S
C130 C114 1.497 . S
C130 Tb121 2.808 . S
C130 O125 1.248 . S
C130 O127 1.260 . S
C131 O132 1.255 . S
C131 O135 1.255 . S
O132 C131 1.255 . S
C133 O120 1.257 . S
C133 O124 1.237 . S
C134 O128 1.257 . S
C134 O129 1.237 . S
O135 Tb122 2.303 . S
O135 C131 1.255 . S
C136 C126 1.497 . S
C136 C138 1.384 . S
C136 C139 1.386 . S
C137 C138 1.402 . S
C137 C141 1.392 1_655 S
C138 C136 1.384 . S
C138 C137 1.402 . S
C138 H149 0.930 . S
C139 C136 1.386 . S
C139 C140 1.393 1_655 S
C139 H150 0.932 1_655 S
C140 C139 1.393 1_455 S
C140 C141 1.387 . S
C141 C137 1.392 1_455 S
C141 C140 1.387 . S
C141 H151 0.930 . S
C142 O123 1.255 . S
C142 O143 1.255 . S
O143 C142 1.255 . S
O144 Tb122 2.430 . S
O144 C126 1.248 . S
O145 Tb122 2.459 . S
O145 C126 1.260 . S
H146 C115 0.932 . S
H147 C117 0.930 . S
H148 C119 0.930 . S
H149 C138 0.930 . S
H150 C139 0.932 1_455 S
H151 C141 0.930 . S
H152 C158 0.930 1_554 S
H153 C162 0.930 1_556 S
H154 C167 0.929 . S
H155 C165 0.929 . S
H156 C160 0.929 . S
H157 C166 0.929 . S
C158 H152 0.930 1_556 S
C158 C159 1.367 . S
C158 C166 1.378 1_556 S
C159 C158 1.367 . S
C159 C167 1.433 . S
C160 H156 0.929 . S
C160 C162 1.378 1_556 S
C160 C164 1.350 1_556 S
C161 C164 1.463 1_556 S
C161 C166 1.350 1_556 S
C161 N169 1.427 . S
C162 H153 0.930 1_554 S
C162 C160 1.378 1_554 S
C162 C163 1.367 . S
C163 C162 1.367 . S
C163 C165 1.433 . S
C164 C160 1.350 1_554 S
C164 C161 1.463 1_554 S
C164 N168 1.427 . S
C165 H155 0.929 . S
C165 C163 1.433 . S
C165 N168 1.384 . S
C166 H157 0.929 . S
C166 C158 1.378 1_554 S
C166 C161 1.350 1_554 S
C167 H154 0.929 . S
C167 C159 1.433 . S
C167 N169 1.384 . S
N168 C164 1.427 . S
N168 C165 1.384 . S
N169 C161 1.427 . S
N169 C167 1.384 . S
H170 C176 0.930 . S
H171 C180 0.930 . S
H172 C185 0.929 1_554 S
H173 C183 0.929 1_556 S
H174 C178 0.929 . S
H175 C184 0.929 . S
C176 H170 0.930 . S
C176 C177 1.367 . S
C176 C184 1.378 . S
C177 C176 1.367 . S
C177 C185 1.433 . S
C178 H174 0.929 . S
C178 C180 1.378 . S
C178 C182 1.350 . S
C179 C182 1.463 1_556 S
C179 C184 1.350 . S
C179 N187 1.427 1_556 S
C180 H171 0.930 . S
C180 C178 1.378 . S
C180 C181 1.367 . S
C181 C180 1.367 . S
C181 C183 1.433 . S
C182 C178 1.350 . S
C182 C179 1.463 1_554 S
C182 N186 1.427 1_554 S
C183 H173 0.929 1_554 S
C183 C181 1.433 . S
C183 N186 1.384 1_554 S
C184 H175 0.929 . S
C184 C176 1.378 . S
C184 C179 1.350 . S
C185 H172 0.929 1_556 S
C185 C177 1.433 . S
C185 N187 1.384 1_556 S
N186 C182 1.427 1_556 S
N186 C183 1.384 1_556 S
N187 C179 1.427 1_554 S
N187 C185 1.384 1_554 S
H188 C194 0.930 . S
H189 C198 0.930 . S
H190 C203 0.929 . S
H191 C201 0.929 . S
H192 C196 0.929 . S
H193 C202 0.929 . S
C194 H188 0.930 . S
C194 C195 1.367 . S
C194 C202 1.378 . S
C195 C194 1.367 . S
C195 C203 1.433 . S
C196 H192 0.929 . S
C196 C198 1.378 . S
C196 C200 1.350 . S
C197 C200 1.463 . S
C197 C202 1.350 . S
C197 N205 1.427 . S
C198 H189 0.930 . S
C198 C196 1.378 . S
C198 C199 1.367 . S
C199 C198 1.367 . S
C199 C201 1.433 . S
C200 C196 1.350 . S
C200 C197 1.463 . S
C200 N204 1.427 . S
C201 H191 0.929 . S
C201 C199 1.433 . S
C201 N204 1.384 . S
C202 H193 0.929 . S
C202 C194 1.378 . S
C202 C197 1.350 . S
C203 H190 0.929 . S
C203 C195 1.433 . S
C203 N205 1.384 . S
N204 C200 1.427 . S
N204 C201 1.384 . S
N205 C197 1.427 . S
N205 C203 1.384 . S
H206 C212 0.930 . S
H207 C216 0.930 . S
H208 C221 0.929 . S
H209 C219 0.929 . S
H210 C214 0.929 . S
H211 C220 0.929 . S
C212 H206 0.930 . S
C212 C213 1.367 . S
C212 C220 1.378 . S
C213 C212 1.367 . S
C213 C221 1.433 . S
C214 H210 0.929 . S
C214 C216 1.378 . S
C214 C218 1.350 . S
C215 C218 1.463 . S
C215 C220 1.350 . S
C215 N223 1.427 . S
C216 H207 0.930 . S
C216 C214 1.378 . S
C216 C217 1.367 . S
C217 C216 1.367 . S
C217 C219 1.433 . S
C218 C214 1.350 . S
C218 C215 1.463 . S
C218 N222 1.427 . S
C219 H209 0.929 . S
C219 C217 1.433 . S
C219 N222 1.384 . S
C220 H211 0.929 . S
C220 C212 1.378 . S
C220 C215 1.350 . S
C221 H208 0.929 . S
C221 C213 1.433 . S
C221 N223 1.384 . S
N222 C218 1.427 . S
N222 C219 1.384 . S
N223 C215 1.427 . S
N223 C221 1.384 . S
H224 C230 0.930 . S
H225 C234 0.930 . S
H226 C239 0.929 . S
H227 C237 0.929 . S
H228 C232 0.929 . S
H229 C238 0.929 . S
C230 H224 0.930 . S
C230 C231 1.371 . S
C230 C238 1.378 . S
C231 C230 1.371 . S
C231 C239 1.431 1_556 S
C232 H228 0.929 . S
C232 C234 1.378 . S
C232 C236 1.350 . S
C233 C236 1.461 . S
C233 C238 1.347 1_554 S
C233 N241 1.433 . S
C234 H225 0.930 . S
C234 C232 1.378 . S
C234 C235 1.367 . S
C235 C234 1.367 . S
C235 C237 1.433 1_554 S
C236 C232 1.350 . S
C236 C233 1.461 . S
C236 N240 1.427 1_554 S
C237 H227 0.929 . S
C237 C235 1.433 1_556 S
C237 N240 1.384 . S
C238 H229 0.929 . S
C238 C230 1.378 . S
C238 C233 1.347 1_556 S
C239 H226 0.929 . S
C239 C231 1.431 1_554 S
C239 N241 1.384 . S
N240 C236 1.427 1_556 S
N240 C237 1.384 . S
N241 C233 1.433 . S
N241 C239 1.384 . S
H242 C248 0.930 . S
H243 C252 0.930 . S
H244 C257 0.929 . S
H245 C255 0.929 . S
H246 C250 0.929 . S
H247 C256 0.929 . S
C248 H242 0.930 . S
C248 C249 1.367 . S
C248 C256 1.378 . S
C249 C248 1.367 . S
C249 C257 1.433 . S
C250 H246 0.929 . S
C250 C252 1.378 . S
C250 C254 1.350 . S
C251 C254 1.463 . S
C251 C256 1.350 . S
C251 N259 1.427 . S
C252 H243 0.930 . S
C252 C250 1.378 . S
C252 C253 1.367 . S
C253 C252 1.367 . S
C253 C255 1.433 . S
C254 C250 1.350 . S
C254 C251 1.463 . S
C254 N258 1.427 . S
C255 H245 0.929 . S
C255 C253 1.433 . S
C255 N258 1.384 . S
C256 H247 0.929 . S
C256 C248 1.378 . S
C256 C251 1.350 . S
C257 H244 0.929 . S
C257 C249 1.433 . S
C257 N259 1.384 . S
N258 C254 1.427 . S
N258 C255 1.384 . S
N259 C251 1.427 . S
N259 C257 1.384 . S
H260 C266 0.930 1_565 S
H261 C270 0.930 1_545 S
H262 C275 0.929 . S
H263 C273 0.929 . S
H264 C268 0.929 . S
H265 C274 0.929 . S
C266 H260 0.930 1_545 S
C266 C267 1.376 . S
C266 C274 1.378 1_545 S
C267 C266 1.376 . S
C267 C275 1.426 1_556 S
C268 H264 0.929 . S
C268 C270 1.378 1_545 S
C268 C272 1.350 1_545 S
C269 C272 1.462 1_445 S
C269 C274 1.339 1_544 S
C269 N277 1.440 . S
C270 H261 0.930 1_565 S
C270 C268 1.378 1_565 S
C270 C271 1.367 . S
C271 C270 1.367 . S
C271 C273 1.433 1_554 S
C272 C268 1.350 1_565 S
C272 C269 1.462 1_665 S
C272 N276 1.427 1_554 S
C273 H263 0.929 . S
C273 C271 1.433 1_556 S
C273 N276 1.384 . S
C274 H265 0.929 . S
C274 C266 1.378 1_565 S
C274 C269 1.339 1_566 S
C275 H262 0.929 . S
C275 C267 1.426 1_554 S
C275 N277 1.384 . S
N276 C272 1.427 1_556 S
N276 C273 1.384 . S
N277 C269 1.440 . S
N277 C275 1.384 . S
H278 C284 0.930 1_565 S
H279 C288 0.930 1_545 S
H280 C293 0.929 . S
H281 C291 0.929 . S
H282 C286 0.929 . S
H283 C292 0.929 . S
C284 H278 0.930 1_545 S
C284 C285 1.367 . S
C284 C292 1.378 1_545 S
C285 C284 1.367 . S
C285 C293 1.433 . S
C286 H282 0.929 . S
C286 C288 1.378 1_545 S
C286 C290 1.350 1_545 S
C287 C290 1.463 1_645 S
C287 C292 1.350 1_545 S
C287 N295 1.427 . S
C288 H279 0.930 1_565 S
C288 C286 1.378 1_565 S
C288 C289 1.367 . S
C289 C288 1.367 . S
C289 C291 1.433 . S
C290 C286 1.350 1_565 S
C290 C287 1.463 1_465 S
C290 N294 1.427 . S
C291 H281 0.929 . S
C291 C289 1.433 . S
C291 N294 1.384 . S
C292 H283 0.929 . S
C292 C284 1.378 1_565 S
C292 C287 1.350 1_565 S
C293 H280 0.929 . S
C293 C285 1.433 . S
C293 N295 1.384 . S
N294 C290 1.427 . S
N294 C291 1.384 . S
N295 C287 1.427 . S
N295 C293 1.384 . S
H296 C302 0.930 . S
H297 C306 0.930 . S
H298 C311 0.929 . S
H299 C309 0.929 . S
H300 C304 0.929 . S
H301 C310 0.929 . S
C302 H296 0.930 . S
C302 C303 1.367 . S
C302 C310 1.378 . S
C303 C302 1.367 . S
C303 C311 1.433 . S
C304 H300 0.929 . S
C304 C306 1.378 . S
C304 C308 1.350 . S
C305 C308 1.463 . S
C305 C310 1.350 . S
C305 N313 1.427 . S
C306 H297 0.930 . S
C306 C304 1.378 . S
C306 C307 1.367 . S
C307 C306 1.367 . S
C307 C309 1.433 . S
C308 C304 1.350 . S
C308 C305 1.463 . S
C308 N312 1.427 . S
C309 H299 0.929 . S
C309 C307 1.433 . S
C309 N312 1.384 . S
C310 H301 0.929 . S
C310 C302 1.378 . S
C310 C305 1.350 . S
C311 H298 0.929 . S
C311 C303 1.433 . S
C311 N313 1.384 . S
N312 C308 1.427 . S
N312 C309 1.384 . S
N313 C305 1.427 . S
N313 C311 1.384 . S
H314 C320 0.930 . S
H315 C324 0.930 . S
H316 C329 0.929 . S
H317 C327 0.929 . S
H318 C322 0.929 . S
H319 C328 0.929 . S
C320 H314 0.930 . S
C320 C321 1.367 . S
C320 C328 1.378 . S
C321 C320 1.367 . S
C321 C329 1.433 . S
C322 H318 0.929 . S
C322 C324 1.378 . S
C322 C326 1.350 . S
C323 C326 1.463 . S
C323 C328 1.350 . S
C323 N331 1.427 . S
C324 H315 0.930 . S
C324 C322 1.378 . S
C324 C325 1.367 . S
C325 C324 1.367 . S
C325 C327 1.433 . S
C326 C322 1.350 . S
C326 C323 1.463 . S
C326 N330 1.427 . S
C327 H317 0.929 . S
C327 C325 1.433 . S
C327 N330 1.384 . S
C328 H319 0.929 . S
C328 C320 1.378 . S
C328 C323 1.350 . S
C329 H316 0.929 . S
C329 C321 1.433 . S
C329 N331 1.384 . S
N330 C326 1.427 . S
N330 C327 1.384 . S
N331 C323 1.427 . S
N331 C329 1.384 . S
H332 C338 0.930 . S
H333 C342 0.930 . S
H334 C347 0.929 . S
H335 C345 0.929 . S
H336 C340 0.929 . S
H337 C346 0.929 . S
C338 H332 0.930 . S
C338 C339 1.367 . S
C338 C346 1.378 . S
C339 C338 1.367 . S
C339 C347 1.433 . S
C340 H336 0.929 . S
C340 C342 1.378 . S
C340 C344 1.350 . S
C341 C344 1.463 . S
C341 C346 1.350 . S
C341 N349 1.427 . S
C342 H333 0.930 . S
C342 C340 1.378 . S
C342 C343 1.367 . S
C343 C342 1.367 . S
C343 C345 1.433 . S
C344 C340 1.350 . S
C344 C341 1.463 . S
C344 N348 1.427 . S
C345 H335 0.929 . S
C345 C343 1.433 . S
C345 N348 1.384 . S
C346 H337 0.929 . S
C346 C338 1.378 . S
C346 C341 1.350 . S
C347 H334 0.929 . S
C347 C339 1.433 . S
C347 N349 1.384 . S
N348 C344 1.427 . S
N348 C345 1.384 . S
N349 C341 1.427 . S
N349 C347 1.384 . S
H350 C356 0.930 . S
H351 C360 0.930 . S
H352 C365 0.929 . S
H353 C363 0.929 . S
H354 C358 0.929 . S
H355 C364 0.929 . S
C356 H350 0.930 . S
C356 C357 1.367 . S
C356 C364 1.378 . S
C357 C356 1.367 . S
C357 C365 1.433 . S
C358 H354 0.929 . S
C358 C360 1.378 . S
C358 C362 1.350 . S
C359 C362 1.463 . S
C359 C364 1.350 . S
C359 N367 1.427 . S
C360 H351 0.930 . S
C360 C358 1.378 . S
C360 C361 1.367 . S
C361 C360 1.367 . S
C361 C363 1.433 . S
C362 C358 1.350 . S
C362 C359 1.463 . S
C362 N366 1.427 . S
C363 H353 0.929 . S
C363 C361 1.433 . S
C363 N366 1.384 . S
C364 H355 0.929 . S
C364 C356 1.378 . S
C364 C359 1.350 . S
C365 H352 0.929 . S
C365 C357 1.433 . S
C365 N367 1.384 . S
N366 C362 1.427 . S
N366 C363 1.384 . S
N367 C359 1.427 . S
N367 C365 1.384 . S
H368 C374 0.930 . S
H369 C378 0.930 . S
H370 C383 0.929 . S
H371 C381 0.929 . S
H372 C376 0.929 . S
H373 C382 0.929 . S
C374 H368 0.930 . S
C374 C375 1.367 . S
C374 C382 1.378 . S
C375 C374 1.367 . S
C375 C383 1.433 . S
C376 H372 0.929 . S
C376 C378 1.378 . S
C376 C380 1.350 . S
C377 C380 1.463 . S
C377 C382 1.350 1_655 S
C377 N385 1.427 . S
C378 H369 0.930 . S
C378 C376 1.378 . S
C378 C379 1.367 . S
C379 C378 1.367 . S
C379 C381 1.433 . S
C380 C376 1.350 . S
C380 C377 1.463 . S
C380 N384 1.427 . S
C381 H371 0.929 . S
C381 C379 1.433 . S
C381 N384 1.384 . S
C382 H373 0.929 . S
C382 C374 1.378 . S
C382 C377 1.350 1_455 S
C383 H370 0.929 . S
C383 C375 1.433 . S
C383 N385 1.384 1_455 S
N384 C380 1.427 . S
N384 C381 1.384 . S
N385 C377 1.427 . S
N385 C383 1.384 1_655 S
H386 C392 0.930 . S
H387 C396 0.930 . S
H388 C401 0.929 . S
H389 C399 0.929 . S
H390 C394 0.929 . S
H391 C400 0.929 1_455 S
C392 H386 0.930 . S
C392 C393 1.367 . S
C392 C400 1.378 . S
C393 C392 1.367 . S
C393 C401 1.433 . S
C394 H390 0.929 . S
C394 C396 1.378 . S
C394 C398 1.350 . S
C395 C398 1.463 . S
C395 C400 1.350 . S
C395 N403 1.427 . S
C396 H387 0.930 . S
C396 C394 1.378 . S
C396 C397 1.367 1_655 S
C397 C396 1.367 1_455 S
C397 C399 1.433 . S
C398 C394 1.350 . S
C398 C395 1.463 . S
C398 N402 1.427 1_655 S
C399 H389 0.929 . S
C399 C397 1.433 . S
C399 N402 1.384 . S
C400 H391 0.929 1_655 S
C400 C392 1.378 . S
C400 C395 1.350 . S
C401 H388 0.929 . S
C401 C393 1.433 . S
C401 N403 1.384 . S
N402 C398 1.427 1_455 S
N402 C399 1.384 . S
N403 C395 1.427 . S
N403 C401 1.384 . S
H404 C410 0.930 . S
H405 C414 0.930 . S
H406 C419 0.929 . S
H407 C417 0.929 . S
H408 C412 0.929 . S
H409 C418 0.929 . S
C410 H404 0.930 . S
C410 C411 1.367 . S
C410 C418 1.378 . S
C411 C410 1.367 . S
C411 C419 1.433 . S
C412 H408 0.929 . S
C412 C414 1.378 1_455 S
C412 C416 1.350 . S
C413 C416 1.463 . S
C413 C418 1.350 . S
C413 N421 1.427 . S
C414 H405 0.930 . S
C414 C412 1.378 1_655 S
C414 C415 1.367 . S
C415 C414 1.367 . S
C415 C417 1.433 . S
C416 C412 1.350 . S
C416 C413 1.463 . S
C416 N420 1.427 . S
C417 H407 0.929 . S
C417 C415 1.433 . S
C417 N420 1.384 1_655 S
C418 H409 0.929 . S
C418 C410 1.378 . S
C418 C413 1.350 . S
C419 H406 0.929 . S
C419 C411 1.433 . S
C419 N421 1.384 . S
N420 C416 1.427 . S
N420 C417 1.384 1_455 S
N421 C413 1.427 . S
N421 C419 1.384 . S
H422 C428 0.930 . S
H423 C432 0.930 . S
H424 C437 0.929 . S
H425 C435 0.929 . S
H426 C430 0.929 . S
H427 C436 0.929 . S
C428 H422 0.930 . S
C428 C429 1.367 . S
C428 C436 1.378 . S
C429 C428 1.367 . S
C429 C437 1.433 . S
C430 H426 0.929 . S
C430 C432 1.378 . S
C430 C434 1.350 . S
C431 C434 1.463 . S
C431 C436 1.350 . S
C431 N439 1.427 . S
C432 H423 0.930 . S
C432 C430 1.378 . S
C432 C433 1.367 1_455 S
C433 C432 1.367 1_655 S
C433 C435 1.433 . S
C434 C430 1.350 . S
C434 C431 1.463 . S
C434 N438 1.427 1_455 S
C435 H425 0.929 . S
C435 C433 1.433 . S
C435 N438 1.384 . S
C436 H427 0.929 . S
C436 C428 1.378 . S
C436 C431 1.350 . S
C437 H424 0.929 . S
C437 C429 1.433 . S
C437 N439 1.384 . S
N438 C434 1.427 1_655 S
N438 C435 1.384 . S
N439 C431 1.427 . S
N439 C437 1.384 . S
C159 C26 2.030 . S
C163 C2 2.030 . S
C177 C64 2.034 . S
C181 C40 2.034 . S
C195 C102 2.032 . S
C199 C78 2.032 . S
C213 C140 2.031 . S
C217 C116 2.031 . S
C231 C57 1.642 1_556 S
C235 C20 1.646 . S
C249 C133 1.650 . S
C253 C96 1.650 . S
C267 C19 1.647 1_556 S
C271 C58 1.650 . S
C285 C134 1.650 . S
C289 C95 1.650 . S
C303 C118 1.180 . S
C307 C17 1.234 . S
C321 C42 1.179 . S
C325 C93 1.234 . S
C339 C99 1.185 . S
C343 C66 1.233 . S
C357 C23 1.192 . S
C361 C142 1.230 . S
C375 C80 1.193 . S
C379 C55 1.215 . S
C393 C131 1.230 . S
C397 C4 1.176 . S
C411 C28 1.217 . S
C415 C137 1.188 . S
C429 C104 1.234 . S
C433 C61 1.181 . S
