# Generated by pormake.
# Topology ukt, (4)-cn, num edge types: 1
# Building blocks:
#     Node 0, Type 0, BuildingBlock: UXUYUI_clean_sbu_0, # of connection points: 4
#     Node 1, Type 0, BuildingBlock: UXUYUI_clean_sbu_0, # of connection points: 4
#     Node 2, Type 0, BuildingBlock: UXUYUI_clean_sbu_0, # of connection points: 4
#     Node 3, Type 0, BuildingBlock: UXUYUI_clean_sbu_0, # of connection points: 4
#     Node 4, Type 0, BuildingBlock: UXUYUI_clean_sbu_0, # of connection points: 4
#     Node 5, Type 0, BuildingBlock: UXUYUI_clean_sbu_0, # of connection points: 4
#     Node 6, Type 0, BuildingBlock: UXUYUI_clean_sbu_0, # of connection points: 4
#     Node 7, Type 0, BuildingBlock: UXUYUI_clean_sbu_0, # of connection points: 4
#     Node 8, Type 0, BuildingBlock: UXUYUI_clean_sbu_0, # of connection points: 4
#     Node 9, Type 0, BuildingBlock: UXUYUI_clean_sbu_0, # of connection points: 4
#     Node 10, Type 0, BuildingBlock: UXUYUI_clean_sbu_0, # of connection points: 4
#     Node 11, Type 0, BuildingBlock: UXUYUI_clean_sbu_0, # of connection points: 4
#     Node 12, Type 0, BuildingBlock: UXUYUI_clean_sbu_0, # of connection points: 4
#     Node 13, Type 0, BuildingBlock: UXUYUI_clean_sbu_0, # of connection points: 4
#     Node 14, Type 0, BuildingBlock: UXUYUI_clean_sbu_0, # of connection points: 4
#     Node 15, Type 0, BuildingBlock: UXUYUI_clean_sbu_0, # of connection points: 4
#     Edge 16, Type (0, 0), BuildingBlock: ZUJKAS_clean_linker_0, # of connection points: 2
#     Edge 17, Type (0, 0), BuildingBlock: ZUJKAS_clean_linker_0, # of connection points: 2
#     Edge 18, Type (0, 0), BuildingBlock: ZUJKAS_clean_linker_0, # of connection points: 2
#     Edge 19, Type (0, 0), BuildingBlock: ZUJKAS_clean_linker_0, # of connection points: 2
#     Edge 20, Type (0, 0), BuildingBlock: ZUJKAS_clean_linker_0, # of connection points: 2
#     Edge 21, Type (0, 0), BuildingBlock: ZUJKAS_clean_linker_0, # of connection points: 2
#     Edge 22, Type (0, 0), BuildingBlock: ZUJKAS_clean_linker_0, # of connection points: 2
#     Edge 23, Type (0, 0), BuildingBlock: ZUJKAS_clean_linker_0, # of connection points: 2
#     Edge 24, Type (0, 0), BuildingBlock: ZUJKAS_clean_linker_0, # of connection points: 2
#     Edge 25, Type (0, 0), BuildingBlock: ZUJKAS_clean_linker_0, # of connection points: 2
#     Edge 26, Type (0, 0), BuildingBlock: ZUJKAS_clean_linker_0, # of connection points: 2
#     Edge 27, Type (0, 0), BuildingBlock: ZUJKAS_clean_linker_0, # of connection points: 2
#     Edge 28, Type (0, 0), BuildingBlock: ZUJKAS_clean_linker_0, # of connection points: 2
#     Edge 29, Type (0, 0), BuildingBlock: ZUJKAS_clean_linker_0, # of connection points: 2
#     Edge 30, Type (0, 0), BuildingBlock: ZUJKAS_clean_linker_0, # of connection points: 2
#     Edge 31, Type (0, 0), BuildingBlock: ZUJKAS_clean_linker_0, # of connection points: 2
#     Edge 32, Type (0, 0), BuildingBlock: ZUJKAS_clean_linker_0, # of connection points: 2
#     Edge 33, Type (0, 0), BuildingBlock: ZUJKAS_clean_linker_0, # of connection points: 2
#     Edge 34, Type (0, 0), BuildingBlock: ZUJKAS_clean_linker_0, # of connection points: 2
#     Edge 35, Type (0, 0), BuildingBlock: ZUJKAS_clean_linker_0, # of connection points: 2
#     Edge 36, Type (0, 0), BuildingBlock: ZUJKAS_clean_linker_0, # of connection points: 2
#     Edge 37, Type (0, 0), BuildingBlock: ZUJKAS_clean_linker_0, # of connection points: 2
#     Edge 38, Type (0, 0), BuildingBlock: ZUJKAS_clean_linker_0, # of connection points: 2
#     Edge 39, Type (0, 0), BuildingBlock: ZUJKAS_clean_linker_0, # of connection points: 2
#     Edge 40, Type (0, 0), BuildingBlock: ZUJKAS_clean_linker_0, # of connection points: 2
#     Edge 41, Type (0, 0), BuildingBlock: ZUJKAS_clean_linker_0, # of connection points: 2
#     Edge 42, Type (0, 0), BuildingBlock: ZUJKAS_clean_linker_0, # of connection points: 2
#     Edge 43, Type (0, 0), BuildingBlock: ZUJKAS_clean_linker_0, # of connection points: 2
#     Edge 44, Type (0, 0), BuildingBlock: ZUJKAS_clean_linker_0, # of connection points: 2
#     Edge 45, Type (0, 0), BuildingBlock: ZUJKAS_clean_linker_0, # of connection points: 2
#     Edge 46, Type (0, 0), BuildingBlock: ZUJKAS_clean_linker_0, # of connection points: 2
#     Edge 47, Type (0, 0), BuildingBlock: ZUJKAS_clean_linker_0, # of connection points: 2
# Relax obj value: 0.433
# Max RMSD: 0.238
# Mean RMSD: 0.238
data_MOF--net-ukt--node1-UXUYUI_clean_sbu_0--edge1-ZUJKAS_clean_linker_0
_symmetry_space_group_name_H-M    P1
_symmetry_Int_Tables_number       1
_symmetry_cell_setting            triclinic
loop_
_symmetry_equiv_pos_as_xyz
'x, y, z'
_cell_length_a     72.56448
_cell_length_b     72.56052
_cell_length_c     65.523761
_cell_angle_alpha  89.997681
_cell_angle_beta   90.011284
_cell_angle_gamma 89.994966
loop_
_atom_site_label
_atom_site_type_symbol
_atom_site_fract_x
_atom_site_fract_y
_atom_site_fract_z
_atom_type_partial_charge
Li0 Li 0.56617 0.14194 0.11935 0.0
Li1 Li 0.56091 0.11477 0.09505 0.0
Li2 Li 0.59105 0.12685 0.10183 0.0
Li3 Li 0.57036 0.14555 0.08234 0.0
C4 C 0.58536 0.10497 0.13363 0.0
N5 N 0.60936 0.08375 0.15645 0.0
C6 C 0.58425 0.08574 0.13297 0.0
C7 C 0.59847 0.11339 0.14616 0.0
C8 C 0.59656 0.07526 0.14456 0.0
C9 C 0.61054 0.10244 0.1575 0.0
C10 C 0.53442 0.14623 0.08432 0.0
C11 C 0.51922 0.14672 0.05158 0.0
N12 N 0.50989 0.16213 0.0573 0.0
C13 C 0.52465 0.16204 0.0899 0.0
C14 C 0.53167 0.13846 0.06503 0.0
C15 C 0.51231 0.16988 0.07601 0.0
C16 C 0.55327 0.17271 0.1393 0.0
N17 N 0.55849 0.15499 0.1426 0.0
C18 C 0.55481 0.1586 0.17858 0.0
C19 C 0.55927 0.1477 0.16169 0.0
C20 C 0.54938 0.17699 0.1756 0.0
C21 C 0.54847 0.18398 0.15566 0.0
H22 H 0.5533 0.17819 0.12396 0.0
H23 H 0.56371 0.1336 0.1638 0.0
C24 C 0.5576 0.0784 0.08345 0.0
N25 N 0.54745 0.09349 0.08831 0.0
C26 C 0.54923 0.06316 0.07447 0.0
C27 C 0.51992 0.07896 0.07658 0.0
C28 C 0.52888 0.09388 0.08568 0.0
C29 C 0.53025 0.06358 0.07032 0.0
H30 H 0.57237 0.07861 0.08561 0.0
H31 H 0.52118 0.10612 0.08969 0.0
C32 C 0.59912 0.16605 0.11052 0.0
N33 N 0.62497 0.19174 0.12278 0.0
C34 C 0.60782 0.17727 0.0961 0.0
C35 C 0.60339 0.16808 0.13121 0.0
C36 C 0.6209 0.19012 0.10259 0.0
C37 C 0.61654 0.18109 0.13709 0.0
C38 C 0.59393 0.11853 0.06142 0.0
C39 C 0.60636 0.1328 0.05748 0.0
C40 C 0.59648 0.10138 0.05212 0.0
C41 C 0.62129 0.12962 0.04451 0.0
C42 C 0.61159 0.09874 0.03922 0.0
N43 N 0.62359 0.11279 0.03574 0.0
C44 C 0.61824 0.10015 0.09798 0.0
C45 C 0.63077 0.12996 0.10306 0.0
C46 C 0.63553 0.0932 0.09289 0.0
N47 N 0.61607 0.11835 0.10229 0.0
C48 C 0.64835 0.12358 0.09801 0.0
C49 C 0.65074 0.10513 0.09205 0.0
H50 H 0.60629 0.0913 0.09704 0.0
H51 H 0.6288 0.14439 0.10622 0.0
C52 C 0.56531 0.1809 0.06682 0.0
N53 N 0.56782 0.16309 0.06113 0.0
C54 C 0.56449 0.19476 0.05212 0.0
C55 C 0.5683 0.17158 0.02592 0.0
C56 C 0.56897 0.15814 0.04117 0.0
C57 C 0.56637 0.19022 0.03136 0.0
H58 H 0.56426 0.18434 0.08284 0.0
H59 H 0.57076 0.14381 0.0371 0.0
O60 O 0.57356 0.11545 0.1222 0.0
O61 O 0.54696 0.13862 0.09743 0.0
O62 O 0.58621 0.15347 0.10442 0.0
O63 O 0.57968 0.12117 0.0748 0.0
H64 H 0.574 0.07898 0.12363 0.0
H65 H 0.59943 0.12822 0.14695 0.0
H66 H 0.59593 0.06037 0.1441 0.0
H67 H 0.62086 0.10879 0.16712 0.0
H68 H 0.51704 0.14092 0.03656 0.0
H69 H 0.52655 0.16819 0.10477 0.0
H70 H 0.5393 0.12635 0.06038 0.0
H71 H 0.50468 0.18214 0.08011 0.0
H72 H 0.55571 0.15278 0.19377 0.0
H73 H 0.54472 0.19819 0.15279 0.0
H74 H 0.55774 0.0517 0.06965 0.0
H75 H 0.50523 0.07972 0.07377 0.0
H76 H 0.60453 0.17609 0.08006 0.0
H77 H 0.59658 0.1598 0.14263 0.0
H78 H 0.6278 0.19884 0.09159 0.0
H79 H 0.62001 0.18277 0.15304 0.0
H80 H 0.60464 0.1461 0.06464 0.0
H81 H 0.58699 0.09018 0.05491 0.0
H82 H 0.6311 0.14051 0.04149 0.0
H83 H 0.6138 0.08551 0.03202 0.0
H84 H 0.63679 0.07884 0.0886 0.0
H85 H 0.65965 0.1333 0.09736 0.0
H86 H 0.56263 0.2089 0.05698 0.0
H87 H 0.56992 0.16747 0.01014 0.0
Li88 Li 0.35779 0.56102 0.12017 0.0
Li89 Li 0.38468 0.55551 0.09587 0.0
Li90 Li 0.37251 0.58589 0.1021 0.0
Li91 Li 0.35429 0.56435 0.08315 0.0
C92 C 0.3949 0.5814 0.13288 0.0
N93 N 0.41636 0.6073 0.15267 0.0
C94 C 0.4139 0.58202 0.12947 0.0
C95 C 0.38686 0.59377 0.14659 0.0
C96 C 0.4245 0.59526 0.13957 0.0
C97 C 0.39792 0.60681 0.15637 0.0
C98 C 0.35377 0.52841 0.08615 0.0
C99 C 0.35364 0.51213 0.05406 0.0
N100 N 0.33828 0.50284 0.06005 0.0
C101 C 0.33803 0.51867 0.09202 0.0
C102 C 0.36169 0.5251 0.06705 0.0
C103 C 0.33039 0.50581 0.07859 0.0
C104 C 0.32681 0.54903 0.14016 0.0
N105 N 0.34466 0.5537 0.14351 0.0
C106 C 0.34071 0.55072 0.17951 0.0
C107 C 0.35187 0.55446 0.16263 0.0
C108 C 0.32208 0.54611 0.17651 0.0
C109 C 0.31523 0.54504 0.15651 0.0
H110 H 0.32143 0.54902 0.12476 0.0
H111 H 0.3661 0.55846 0.16477 0.0
C112 C 0.42009 0.55179 0.08137 0.0
N113 N 0.40579 0.54191 0.08901 0.0
C114 C 0.43495 0.54281 0.07234 0.0
C115 C 0.42024 0.51362 0.07966 0.0
C116 C 0.40574 0.52319 0.08883 0.0
C117 C 0.43486 0.52352 0.07088 0.0
H118 H 0.41949 0.56669 0.08137 0.0
H119 H 0.39402 0.51574 0.09482 0.0
C120 C 0.33312 0.59306 0.11117 0.0
N121 N 0.30672 0.61788 0.12418 0.0
C122 C 0.32099 0.60103 0.09714 0.0
C123 C 0.33169 0.59758 0.13186 0.0
C124 C 0.30779 0.6136 0.10401 0.0
C125 C 0.31829 0.61018 0.13812 0.0
C126 C 0.37844 0.58665 0.05983 0.0
C127 C 0.36424 0.59958 0.05823 0.0
C128 C 0.39273 0.58671 0.04555 0.0
C129 C 0.36456 0.61238 0.04232 0.0
C130 C 0.39255 0.59972 0.02983 0.0
N131 N 0.3786 0.61219 0.02856 0.0
C132 C 0.39772 0.61378 0.0948 0.0
C133 C 0.36897 0.62546 0.10606 0.0
C134 C 0.40393 0.63151 0.09038 0.0
N135 N 0.38038 0.61105 0.10204 0.0
C136 C 0.37458 0.64346 0.10174 0.0
C137 C 0.39209 0.64658 0.09327 0.0
H138 H 0.40638 0.60205 0.09136 0.0
H139 H 0.35523 0.62306 0.11168 0.0
C140 C 0.31905 0.55794 0.06878 0.0
N141 N 0.33653 0.56097 0.06225 0.0
C142 C 0.30475 0.55609 0.05476 0.0
C143 C 0.32678 0.56013 0.02744 0.0
C144 C 0.34073 0.56169 0.04204 0.0
C145 C 0.30844 0.55759 0.03376 0.0
H146 H 0.31622 0.55717 0.08496 0.0
H147 H 0.35482 0.56374 0.03724 0.0
O148 O 0.38424 0.56878 0.12282 0.0
O149 O 0.36118 0.54144 0.09881 0.0
O150 O 0.34602 0.58061 0.1047 0.0
O151 O 0.37866 0.57425 0.07556 0.0
H152 H 0.42039 0.57243 0.1191 0.0
H153 H 0.37222 0.59339 0.14952 0.0
H154 H 0.43921 0.59597 0.13698 0.0
H155 H 0.39185 0.61656 0.1669 0.0
H156 H 0.35955 0.50952 0.03919 0.0
H157 H 0.33175 0.52103 0.10675 0.0
H158 H 0.37375 0.5327 0.06218 0.0
H159 H 0.31818 0.4982 0.0829 0.0
H160 H 0.34647 0.55168 0.19472 0.0
H161 H 0.30088 0.54193 0.15355 0.0
H162 H 0.44582 0.55094 0.06544 0.0
H163 H 0.41974 0.49872 0.0788 0.0
H164 H 0.32172 0.59755 0.08111 0.0
H165 H 0.34077 0.59142 0.14298 0.0
H166 H 0.29835 0.61991 0.0933 0.0
H167 H 0.31706 0.61383 0.15407 0.0
H168 H 0.35318 0.59981 0.06924 0.0
H169 H 0.40386 0.57683 0.04662 0.0
H170 H 0.35368 0.6225 0.04094 0.0
H171 H 0.40353 0.59994 0.01867 0.0
H172 H 0.41742 0.63326 0.08359 0.0
H173 H 0.3651 0.65474 0.10432 0.0
H174 H 0.29092 0.55368 0.06035 0.0
H175 H 0.33029 0.56148 0.01145 0.0
Li176 Li 0.93599 0.38308 0.09063 0.0
Li177 Li 0.93008 0.35503 0.11329 0.0
Li178 Li 0.92468 0.35417 0.07644 0.0
Li179 Li 0.90528 0.37213 0.09788 0.0
C180 C 0.96037 0.3506 0.07719 0.0
N181 N 0.98294 0.33387 0.04873 0.0
C182 C 0.96688 0.33273 0.08053 0.0
C183 C 0.96538 0.35999 0.05941 0.0
C184 C 0.97826 0.3245 0.06595 0.0
C185 C 0.9768 0.35129 0.0452 0.0
C186 C 0.91234 0.39212 0.1298 0.0
C187 C 0.88929 0.39474 0.15615 0.0
N188 N 0.88816 0.41316 0.15255 0.0
C189 C 0.91109 0.4111 0.1265 0.0
C190 C 0.90149 0.38388 0.14487 0.0
C191 C 0.89873 0.4215 0.13811 0.0
C192 C 0.94071 0.41871 0.07749 0.0
N193 N 0.95027 0.40393 0.08451 0.0
C194 C 0.97887 0.41806 0.07566 0.0
C195 C 0.96899 0.40346 0.08425 0.0
C196 C 0.96928 0.4332 0.06753 0.0
C197 C 0.94999 0.43365 0.06905 0.0
H198 H 0.9258 0.41844 0.07751 0.0
H199 H 0.97618 0.39136 0.08969 0.0
C200 C 0.93992 0.32228 0.13167 0.0
N201 N 0.93798 0.34057 0.13544 0.0
C202 C 0.94417 0.31019 0.14749 0.0
C203 C 0.94439 0.33606 0.17081 0.0
C204 C 0.94029 0.3477 0.15445 0.0
C205 C 0.94621 0.31701 0.16741 0.0
H206 H 0.93754 0.31703 0.11645 0.0
H207 H 0.93847 0.36233 0.15695 0.0
C208 C 0.90391 0.3801 0.05522 0.0
N209 N 0.87966 0.38168 0.02277 0.0
C210 C 0.88903 0.36793 0.05421 0.0
C211 C 0.90647 0.39309 0.03974 0.0
C212 C 0.8769 0.36895 0.03769 0.0
C213 C 0.89406 0.39366 0.02345 0.0
C214 C 0.89502 0.33414 0.10528 0.0
C215 C 0.8837 0.32486 0.09139 0.0
C216 C 0.89229 0.33162 0.12622 0.0
C217 C 0.8696 0.31354 0.0987 0.0
C218 C 0.87806 0.32016 0.13292 0.0
N219 N 0.86708 0.31145 0.11913 0.0
C220 C 0.92399 0.31988 0.05734 0.0
C221 C 0.92848 0.3447 0.03433 0.0
C222 C 0.92446 0.30726 0.04133 0.0
N223 N 0.92583 0.33818 0.05357 0.0
C224 C 0.92909 0.33254 0.01783 0.0
C225 C 0.92697 0.31353 0.02122 0.0
H226 H 0.92206 0.31512 0.07284 0.0
H227 H 0.93022 0.35931 0.03181 0.0
C228 C 0.87855 0.39878 0.09215 0.0
N229 N 0.88076 0.38175 0.10042 0.0
C230 C 0.86103 0.4064 0.09009 0.0
C231 C 0.84834 0.37931 0.10626 0.0
C232 C 0.86616 0.3722 0.10802 0.0
C233 C 0.84557 0.3964 0.09665 0.0
H234 H 0.89039 0.40612 0.08628 0.0
H235 H 0.86815 0.35885 0.11483 0.0
O236 O 0.94879 0.35872 0.09099 0.0
O237 O 0.92399 0.38163 0.11821 0.0
O238 O 0.91598 0.37939 0.07124 0.0
O239 O 0.90906 0.34508 0.09836 0.0
H240 H 0.96314 0.32527 0.0942 0.0
H241 H 0.96022 0.37372 0.05641 0.0
H242 H 0.98335 0.31065 0.0683 0.0
H243 H 0.98069 0.35835 0.03131 0.0
H244 H 0.88071 0.38851 0.16776 0.0
H245 H 0.91947 0.41772 0.115 0.0
H246 H 0.90238 0.36924 0.14773 0.0
H247 H 0.89752 0.43618 0.13561 0.0
H248 H 0.99375 0.41726 0.07473 0.0
H249 H 0.94207 0.4449 0.06262 0.0
H250 H 0.94508 0.29557 0.14431 0.0
H251 H 0.94587 0.34181 0.18598 0.0
H252 H 0.8868 0.35791 0.06612 0.0
H253 H 0.91796 0.4026 0.04029 0.0
H254 H 0.8653 0.35962 0.03675 0.0
H255 H 0.89588 0.40363 0.01134 0.0
H256 H 0.88581 0.3263 0.07512 0.0
H257 H 0.901 0.33846 0.13722 0.0
H258 H 0.86069 0.30635 0.08811 0.0
H259 H 0.87575 0.31818 0.14908 0.0
H260 H 0.92251 0.29277 0.04465 0.0
H261 H 0.93132 0.33794 0.00262 0.0
H262 H 0.85958 0.41952 0.08237 0.0
H263 H 0.8368 0.37126 0.11179 0.0
Li264 Li 0.1154 0.93406 0.09293 0.0
Li265 Li 0.14297 0.92382 0.114 0.0
Li266 Li 0.14328 0.9226 0.07713 0.0
Li267 Li 0.12404 0.9018 0.09577 0.0
C268 C 0.1524 0.95727 0.08577 0.0
N269 N 0.17668 0.98142 0.0673 0.0
C270 C 0.16932 0.96127 0.09495 0.0
C271 C 0.14771 0.96579 0.06735 0.0
C272 C 0.18143 0.97346 0.08534 0.0
C273 C 0.16021 0.97788 0.0582 0.0
C274 C 0.10804 0.90596 0.13075 0.0
C275 C 0.11041 0.88077 0.1546 0.0
N276 N 0.09174 0.87907 0.15448 0.0
C277 C 0.08889 0.90403 0.13091 0.0
C278 C 0.11892 0.89431 0.14272 0.0
C279 C 0.08091 0.89032 0.143 0.0
C280 C 0.07896 0.94138 0.0853 0.0
N281 N 0.09521 0.94985 0.08942 0.0
C282 C 0.08301 0.97899 0.07944 0.0
C283 C 0.0974 0.96833 0.08727 0.0
C284 C 0.06642 0.9704 0.07371 0.0
C285 C 0.06427 0.95145 0.07744 0.0
H286 H 0.07791 0.92656 0.08665 0.0
H287 H 0.11064 0.97457 0.09036 0.0
C288 C 0.1759 0.92359 0.13482 0.0
N289 N 0.15783 0.92796 0.13701 0.0
C290 C 0.1881 0.92615 0.15096 0.0
C291 C 0.16281 0.93766 0.17138 0.0
C292 C 0.15105 0.93488 0.15475 0.0
C293 C 0.1816 0.93319 0.16958 0.0
H294 H 0.18086 0.9183 0.1204 0.0
H295 H 0.13655 0.93816 0.15598 0.0
C296 C 0.11014 0.91653 0.0523 0.0
N297 N 0.09461 0.9181 0.0138 0.0
C298 C 0.10624 0.9003 0.04163 0.0
C299 C 0.10606 0.93355 0.04337 0.0
C300 C 0.09843 0.90138 0.02218 0.0
C301 C 0.09822 0.93406 0.02392 0.0
C302 C 0.15936 0.88868 0.087 0.0
C303 C 0.15269 0.88268 0.06813 0.0
C304 C 0.17441 0.87971 0.09588 0.0
C305 C 0.16116 0.86778 0.05845 0.0
C306 C 0.18251 0.86485 0.08572 0.0
N307 N 0.17577 0.85924 0.06737 0.0
C308 C 0.17806 0.92657 0.06052 0.0
C309 C 0.15535 0.923 0.03486 0.0
C310 C 0.19198 0.92693 0.0459 0.0
N311 N 0.16016 0.92464 0.05484 0.0
C312 C 0.16889 0.92298 0.0197 0.0
C313 C 0.18754 0.92475 0.02515 0.0
H314 H 0.18154 0.9275 0.07653 0.0
H315 H 0.14115 0.92113 0.03059 0.0
C316 C 0.09565 0.87736 0.08823 0.0
N317 N 0.11311 0.87803 0.09564 0.0
C318 C 0.08722 0.86045 0.08452 0.0
C319 C 0.11451 0.84518 0.09729 0.0
C320 C 0.12238 0.86245 0.1009 0.0
C321 C 0.09692 0.84406 0.08836 0.0
H322 H 0.08856 0.89001 0.08442 0.0
H323 H 0.13616 0.86339 0.10707 0.0
O324 O 0.14048 0.94515 0.09481 0.0
O325 O 0.11618 0.91888 0.11855 0.0
O326 O 0.11759 0.91566 0.07149 0.0
O327 O 0.15137 0.9033 0.09679 0.0
H328 H 0.17311 0.95498 0.1093 0.0
H329 H 0.13465 0.963 0.06011 0.0
H330 H 0.19462 0.97658 0.09222 0.0
H331 H 0.15681 0.98444 0.04386 0.0
H332 H 0.11866 0.87158 0.16386 0.0
H333 H 0.08029 0.91292 0.12169 0.0
H334 H 0.13379 0.89555 0.14262 0.0
H335 H 0.0661 0.8886 0.14322 0.0
H336 H 0.08517 0.99358 0.07693 0.0
H337 H 0.0519 0.94418 0.0729 0.0
H338 H 0.20252 0.92284 0.1488 0.0
H339 H 0.15722 0.94297 0.18553 0.0
H340 H 0.10925 0.88698 0.04825 0.0
H341 H 0.10888 0.94625 0.05133 0.0
H342 H 0.09539 0.88893 0.01375 0.0
H343 H 0.09499 0.94715 0.01686 0.0
H344 H 0.14113 0.88945 0.061 0.0
H345 H 0.17973 0.88416 0.1105 0.0
H346 H 0.15613 0.863 0.04384 0.0
H347 H 0.19415 0.85777 0.09243 0.0
H348 H 0.2061 0.92865 0.05088 0.0
H349 H 0.16479 0.92095 0.00397 0.0
H350 H 0.07349 0.86022 0.07803 0.0
H351 H 0.12251 0.83291 0.10043 0.0
Li352 Li 0.59046 0.37217 0.40042 0.0
Li353 Li 0.5705 0.35292 0.41974 0.0
Li354 Li 0.56798 0.3544 0.38282 0.0
Li355 Li 0.55915 0.38082 0.40388 0.0
C356 C 0.6033 0.33653 0.40866 0.0
N357 N 0.63229 0.31922 0.42816 0.0
C358 C 0.61135 0.34453 0.42591 0.0
C359 C 0.60997 0.31972 0.40136 0.0
C360 C 0.626 0.33557 0.43554 0.0
C361 C 0.62465 0.31118 0.41142 0.0
C362 C 0.57002 0.38435 0.44383 0.0
C363 C 0.54492 0.38446 0.46798 0.0
N364 N 0.55413 0.39704 0.47949 0.0
C365 C 0.57924 0.39725 0.45592 0.0
C366 C 0.55272 0.37786 0.44991 0.0
C367 C 0.57098 0.4035 0.4739 0.0
C368 C 0.61655 0.399 0.40916 0.0
N369 N 0.61461 0.38237 0.39991 0.0
C370 C 0.64712 0.38013 0.39482 0.0
C371 C 0.62935 0.37311 0.39224 0.0
C372 C 0.64964 0.39684 0.40532 0.0
C373 C 0.63402 0.40655 0.41203 0.0
H374 H 0.60453 0.40607 0.41498 0.0
H375 H 0.62738 0.35997 0.38476 0.0
C376 C 0.55892 0.32061 0.43899 0.0
N377 N 0.56855 0.33641 0.44213 0.0
C378 C 0.55793 0.30727 0.45429 0.0
C379 C 0.5765 0.3269 0.4759 0.0
C380 C 0.57721 0.33982 0.46015 0.0
C381 C 0.56695 0.31028 0.47298 0.0
H382 H 0.55228 0.31826 0.42444 0.0
H383 H 0.58502 0.35237 0.46215 0.0
C384 C 0.58665 0.38822 0.36565 0.0
N385 N 0.61403 0.40305 0.34139 0.0
C386 C 0.5889 0.40732 0.36446 0.0
C387 C 0.59825 0.37666 0.35442 0.0
C388 C 0.60285 0.41454 0.35213 0.0
C389 C 0.61202 0.38443 0.34225 0.0
C390 C 0.53113 0.35541 0.39378 0.0
C391 C 0.52798 0.36674 0.37688 0.0
C392 C 0.51726 0.34352 0.40051 0.0
C393 C 0.51092 0.36603 0.36703 0.0
C394 C 0.50039 0.34322 0.39025 0.0
N395 N 0.49759 0.35439 0.37386 0.0
C396 C 0.55767 0.32179 0.36489 0.0
C397 C 0.5612 0.34595 0.3408 0.0
C398 C 0.5529 0.30946 0.34948 0.0
N399 N 0.56179 0.33956 0.36028 0.0
C400 C 0.55672 0.334 0.32482 0.0
C401 C 0.55254 0.3155 0.32914 0.0
H402 H 0.55818 0.31722 0.3806 0.0
H403 H 0.56425 0.36025 0.33766 0.0
C404 C 0.55266 0.41759 0.41083 0.0
N405 N 0.54368 0.40124 0.40923 0.0
C406 C 0.5443 0.43247 0.42056 0.0
C407 C 0.51722 0.41365 0.42591 0.0
C408 C 0.5261 0.39912 0.41603 0.0
C409 C 0.52663 0.43035 0.42895 0.0
H410 H 0.56692 0.41856 0.40619 0.0
H411 H 0.51951 0.3858 0.41538 0.0
O412 O 0.58885 0.34492 0.39895 0.0
O413 O 0.5777 0.37868 0.4258 0.0
O414 O 0.57338 0.38083 0.378 0.0
O415 O 0.5478 0.35559 0.40354 0.0
H416 H 0.60641 0.35753 0.4318 0.0
H417 H 0.60385 0.31334 0.38805 0.0
H418 H 0.63236 0.34161 0.44888 0.0
H419 H 0.62995 0.29816 0.40593 0.0
H420 H 0.53151 0.37962 0.47281 0.0
H421 H 0.59259 0.40248 0.4514 0.0
H422 H 0.54528 0.36797 0.44074 0.0
H423 H 0.57795 0.41353 0.48337 0.0
H424 H 0.65878 0.37232 0.38921 0.0
H425 H 0.63531 0.41936 0.42039 0.0
H426 H 0.55033 0.29468 0.45149 0.0
H427 H 0.58388 0.32963 0.48995 0.0
H428 H 0.58 0.41647 0.37296 0.0
H429 H 0.59685 0.36184 0.35538 0.0
H430 H 0.60479 0.4293 0.35111 0.0
H431 H 0.62118 0.37564 0.33359 0.0
H432 H 0.53854 0.376 0.3714 0.0
H433 H 0.51953 0.33461 0.41352 0.0
H434 H 0.50829 0.37473 0.35394 0.0
H435 H 0.48952 0.3341 0.39529 0.0
H436 H 0.54995 0.29526 0.35338 0.0
H437 H 0.55641 0.33916 0.30932 0.0
H438 H 0.55218 0.44496 0.42294 0.0
H439 H 0.50358 0.4115 0.43218 0.0
Li440 Li 0.12032 0.59587 0.39651 0.0
Li441 Li 0.13956 0.57579 0.41619 0.0
Li442 Li 0.13987 0.57354 0.37953 0.0
Li443 Li 0.11202 0.56356 0.4003 0.0
C444 C 0.15526 0.60987 0.4052 0.0
N445 N 0.17076 0.64054 0.42337 0.0
C446 C 0.14895 0.61591 0.4242 0.0
C447 C 0.1695 0.61939 0.39546 0.0
C448 C 0.15695 0.63144 0.43314 0.0
C449 C 0.17715 0.63488 0.40489 0.0
C450 C 0.10593 0.58299 0.44011 0.0
C451 C 0.09223 0.56746 0.46895 0.0
N452 N 0.08898 0.58405 0.4779 0.0
C453 C 0.1024 0.59989 0.44961 0.0
C454 C 0.10078 0.56664 0.44988 0.0
C455 C 0.09387 0.60013 0.46872 0.0
C456 C 0.09128 0.61998 0.40256 0.0
N457 N 0.10896 0.61947 0.39579 0.0
C458 C 0.11017 0.65232 0.39442 0.0
C459 C 0.11821 0.63513 0.39086 0.0
C460 C 0.09239 0.6533 0.40292 0.0
C461 C 0.08265 0.63682 0.40617 0.0
H462 H 0.08421 0.60726 0.40611 0.0
H463 H 0.13213 0.63435 0.38509 0.0
C464 C 0.17418 0.57557 0.43373 0.0
N465 N 0.15609 0.57429 0.43886 0.0
C466 C 0.18773 0.57525 0.44877 0.0
C467 C 0.16386 0.57196 0.47423 0.0
C468 C 0.15072 0.57236 0.45864 0.0
C469 C 0.18264 0.57364 0.46936 0.0
H470 H 0.17806 0.57694 0.41787 0.0
H471 H 0.13633 0.57127 0.46242 0.0
C472 C 0.10576 0.59073 0.36095 0.0
N473 N 0.09109 0.6171 0.33525 0.0
C474 C 0.08667 0.59265 0.35918 0.0
C475 C 0.1174 0.60215 0.3496 0.0
C476 C 0.07952 0.60609 0.34611 0.0
C477 C 0.10972 0.61541 0.3367 0.0
C478 C 0.14912 0.54157 0.40999 0.0
C479 C 0.16692 0.53839 0.40263 0.0
C480 C 0.14362 0.53356 0.42842 0.0
C481 C 0.179 0.52744 0.41397 0.0
C482 C 0.15612 0.52272 0.43932 0.0
N483 N 0.17341 0.51993 0.43194 0.0
C484 C 0.17335 0.57371 0.36004 0.0
C485 C 0.14956 0.56108 0.33954 0.0
C486 C 0.18628 0.57056 0.34476 0.0
N487 N 0.15546 0.5689 0.35721 0.0
C488 C 0.16207 0.5577 0.32374 0.0
C489 C 0.18072 0.56247 0.32629 0.0
H490 H 0.17762 0.57972 0.37439 0.0
H491 H 0.13518 0.55745 0.33777 0.0
C492 C 0.0753 0.55679 0.40625 0.0
N493 N 0.0917 0.54798 0.40436 0.0
C494 C 0.0605 0.54798 0.41557 0.0
C495 C 0.07944 0.52078 0.4196 0.0
C496 C 0.09387 0.53007 0.40994 0.0
C497 C 0.06279 0.5301 0.42339 0.0
H498 H 0.07422 0.57118 0.40214 0.0
H499 H 0.10721 0.52357 0.40855 0.0
O500 O 0.14768 0.59468 0.39609 0.0
O501 O 0.11382 0.58254 0.42112 0.0
O502 O 0.11308 0.5781 0.37413 0.0
O503 O 0.13725 0.55264 0.39935 0.0
H504 H 0.13807 0.60865 0.43202 0.0
H505 H 0.17454 0.61491 0.38073 0.0
H506 H 0.15218 0.63626 0.44784 0.0
H507 H 0.18815 0.64241 0.39751 0.0
H508 H 0.08818 0.5549 0.47663 0.0
H509 H 0.10617 0.61272 0.44231 0.0
H510 H 0.10345 0.55343 0.44293 0.0
H511 H 0.09108 0.61312 0.47622 0.0
H512 H 0.11823 0.66464 0.39171 0.0
H513 H 0.06879 0.63691 0.41228 0.0
H514 H 0.20207 0.57624 0.4443 0.0
H515 H 0.15935 0.5708 0.48993 0.0
H516 H 0.07747 0.58394 0.36787 0.0
H517 H 0.13222 0.60094 0.35096 0.0
H518 H 0.06477 0.60779 0.34463 0.0
H519 H 0.11856 0.62441 0.32791 0.0
H520 H 0.17139 0.54438 0.38837 0.0
H521 H 0.12994 0.53591 0.43439 0.0
H522 H 0.19285 0.52496 0.4085 0.0
H523 H 0.15208 0.51658 0.45369 0.0
H524 H 0.20055 0.57413 0.34756 0.0
H525 H 0.15719 0.55157 0.30967 0.0
H526 H 0.04779 0.55554 0.41785 0.0
H527 H 0.08185 0.50705 0.42551 0.0
Li528 Li 0.92089 0.13801 0.41339 0.0
Li529 Li 0.90065 0.12023 0.39262 0.0
Li530 Li 0.93245 0.11045 0.39715 0.0
Li531 Li 0.92422 0.13911 0.37666 0.0
C532 C 0.9124 0.10537 0.43699 0.0
N533 N 0.91106 0.09055 0.47587 0.0
C534 C 0.8956 0.10403 0.44735 0.0
C535 C 0.9285 0.09903 0.44643 0.0
C536 C 0.89522 0.09657 0.467 0.0
C537 C 0.92754 0.09161 0.46607 0.0
C538 C 0.88782 0.15564 0.40078 0.0
C539 C 0.86345 0.17812 0.39827 0.0
N540 N 0.85666 0.17227 0.4165 0.0
C541 C 0.88063 0.14989 0.41949 0.0
C542 C 0.8792 0.16989 0.39007 0.0
C543 C 0.86486 0.15846 0.42719 0.0
C544 C 0.92099 0.17236 0.43171 0.0
N545 N 0.92228 0.15418 0.43649 0.0
C546 C 0.92377 0.16138 0.47207 0.0
C547 C 0.92396 0.14852 0.4562 0.0
C548 C 0.92181 0.18019 0.46757 0.0
C549 C 0.92072 0.18564 0.44704 0.0
H550 H 0.91995 0.17652 0.4159 0.0
H551 H 0.92524 0.13411 0.45976 0.0
C552 C 0.87255 0.09504 0.40061 0.0
N553 N 0.87616 0.1111 0.39075 0.0
C554 C 0.8544 0.08941 0.40369 0.0
C555 C 0.84411 0.1161 0.38476 0.0
C556 C 0.86249 0.12123 0.38208 0.0
C557 C 0.83986 0.10041 0.39644 0.0
H558 H 0.88376 0.08718 0.40715 0.0
H559 H 0.86579 0.13377 0.37397 0.0
C560 C 0.95548 0.14643 0.40869 0.0
N561 N 0.97717 0.16925 0.43243 0.0
C562 C 0.95921 0.16443 0.40234 0.0
C563 C 0.96295 0.13997 0.42701 0.0
C564 C 0.97017 0.17577 0.41457 0.0
C565 C 0.97383 0.15174 0.43883 0.0
C566 C 0.90581 0.10549 0.35742 0.0
C567 C 0.90204 0.08661 0.3574 0.0
C568 C 0.89605 0.1172 0.34437 0.0
C569 C 0.88846 0.07974 0.34432 0.0
C570 C 0.8826 0.10979 0.33151 0.0
N571 N 0.87911 0.09138 0.33177 0.0
C572 C 0.939 0.07343 0.40323 0.0
C573 C 0.96588 0.09194 0.40535 0.0
C574 C 0.94825 0.05859 0.41199 0.0
N575 N 0.94774 0.08981 0.40081 0.0
C576 C 0.97562 0.0775 0.41443 0.0
C577 C 0.9665 0.06085 0.41872 0.0
H578 H 0.92444 0.07235 0.39995 0.0
H579 H 0.97234 0.10527 0.40354 0.0
C580 C 0.92615 0.17295 0.35785 0.0
N581 N 0.92978 0.15483 0.35469 0.0
C582 C 0.92915 0.18573 0.34236 0.0
C583 C 0.93963 0.16091 0.32059 0.0
C584 C 0.93648 0.14858 0.33661 0.0
C585 C 0.9358 0.17976 0.32334 0.0
H586 H 0.92089 0.17746 0.37246 0.0
H587 H 0.93911 0.13402 0.33457 0.0
O588 O 0.91294 0.11226 0.41752 0.0
O589 O 0.90315 0.14735 0.3928 0.0
O590 O 0.94435 0.13529 0.39719 0.0
O591 O 0.91862 0.1126 0.37054 0.0
H592 H 0.88293 0.10863 0.44031 0.0
H593 H 0.94164 0.09997 0.43884 0.0
H594 H 0.88231 0.0955 0.47517 0.0
H595 H 0.93991 0.08671 0.47352 0.0
H596 H 0.85661 0.18914 0.39012 0.0
H597 H 0.88719 0.13899 0.42801 0.0
H598 H 0.88458 0.17448 0.37552 0.0
H599 H 0.85915 0.15412 0.44166 0.0
H600 H 0.9246 0.15659 0.4877 0.0
H601 H 0.91957 0.20004 0.44287 0.0
H602 H 0.85183 0.07729 0.4129 0.0
H603 H 0.83333 0.12478 0.37857 0.0
H604 H 0.95364 0.16964 0.38818 0.0
H605 H 0.96019 0.12611 0.4322 0.0
H606 H 0.97309 0.18977 0.40989 0.0
H607 H 0.97957 0.14696 0.45312 0.0
H608 H 0.90942 0.07738 0.36744 0.0
H609 H 0.89865 0.13188 0.34438 0.0
H610 H 0.88534 0.06516 0.34419 0.0
H611 H 0.87487 0.1187 0.32141 0.0
H612 H 0.9408 0.04589 0.41468 0.0
H613 H 0.98962 0.07991 0.41951 0.0
H614 H 0.92633 0.20014 0.34529 0.0
H615 H 0.94458 0.15571 0.30611 0.0
Li616 Li 0.35516 0.92769 0.41813 0.0
Li617 Li 0.37212 0.90513 0.39949 0.0
Li618 Li 0.38457 0.93633 0.40345 0.0
Li619 Li 0.3557 0.93049 0.38176 0.0
C620 C 0.38647 0.91395 0.44309 0.0
N621 N 0.40052 0.90607 0.48134 0.0
C622 C 0.38515 0.89611 0.45104 0.0
C623 C 0.39507 0.92774 0.45457 0.0
C624 C 0.39229 0.89242 0.47042 0.0
C625 C 0.40205 0.92349 0.47387 0.0
C626 C 0.33113 0.90197 0.40791 0.0
C627 C 0.29853 0.89874 0.41415 0.0
N628 N 0.30224 0.88733 0.4301 0.0
C629 C 0.3346 0.89005 0.42422 0.0
C630 C 0.31294 0.90623 0.4027 0.0
C631 C 0.31982 0.88285 0.4353 0.0
C632 C 0.32243 0.94005 0.43618 0.0
N633 N 0.33859 0.93145 0.44062 0.0
C634 C 0.32862 0.92604 0.47488 0.0
C635 C 0.34196 0.92467 0.45961 0.0
C636 C 0.31164 0.93448 0.47058 0.0
C637 C 0.30879 0.94186 0.45101 0.0
H638 H 0.31991 0.94501 0.42088 0.0
H639 H 0.35465 0.91758 0.46282 0.0
C640 C 0.39765 0.87702 0.40493 0.0
N641 N 0.38005 0.88029 0.39887 0.0
C642 C 0.40373 0.85901 0.40795 0.0
C643 C 0.37377 0.84805 0.39722 0.0
C644 C 0.36826 0.86632 0.39444 0.0
C645 C 0.39155 0.84424 0.40467 0.0
H646 H 0.40665 0.88847 0.40843 0.0
H647 H 0.35436 0.86939 0.38954 0.0
C648 C 0.35422 0.96478 0.41307 0.0
N649 N 0.34042 0.99375 0.43578 0.0
C650 C 0.34045 0.9761 0.405 0.0
C651 C 0.36114 0.96835 0.43258 0.0
C652 C 0.3336 0.99064 0.41675 0.0
C653 C 0.35394 0.98301 0.44385 0.0
C654 C 0.39019 0.90894 0.36553 0.0
C655 C 0.40935 0.9071 0.36542 0.0
C656 C 0.37937 0.89689 0.35399 0.0
C657 C 0.4174 0.8931 0.35381 0.0
C658 C 0.38794 0.88306 0.34259 0.0
N659 N 0.40661 0.88146 0.34275 0.0
C660 C 0.42134 0.93894 0.41304 0.0
C661 C 0.4065 0.96798 0.41033 0.0
C662 C 0.43678 0.94709 0.42185 0.0
N663 N 0.40645 0.94937 0.40814 0.0
C664 C 0.42169 0.97673 0.41911 0.0
C665 C 0.43677 0.96613 0.42572 0.0
H666 H 0.42062 0.92411 0.41159 0.0
H667 H 0.39434 0.97586 0.40648 0.0
C668 C 0.3244 0.94368 0.36261 0.0
N669 N 0.34172 0.9375 0.35884 0.0
C670 C 0.31239 0.94734 0.34652 0.0
C671 C 0.33654 0.93875 0.3229 0.0
C672 C 0.34812 0.93533 0.3395 0.0
C673 C 0.3183 0.94452 0.32636 0.0
H674 H 0.31974 0.94523 0.37819 0.0
H675 H 0.36203 0.93049 0.33699 0.0
O676 O 0.37971 0.91778 0.42403 0.0
O677 O 0.34547 0.90965 0.39736 0.0
O678 O 0.36095 0.95034 0.40189 0.0
O679 O 0.382 0.92222 0.37724 0.0
H680 H 0.37864 0.88521 0.44243 0.0
H681 H 0.39648 0.94156 0.44866 0.0
H682 H 0.3913 0.87869 0.47676 0.0
H683 H 0.40873 0.93404 0.4829 0.0
H684 H 0.28439 0.90203 0.41038 0.0
H685 H 0.34857 0.88663 0.42846 0.0
H686 H 0.30996 0.9153 0.39004 0.0
H687 H 0.32233 0.87375 0.44808 0.0
H688 H 0.33133 0.91985 0.48961 0.0
H689 H 0.296 0.94866 0.44704 0.0
H690 H 0.41744 0.85679 0.41398 0.0
H691 H 0.36403 0.83707 0.39424 0.0
H692 H 0.33511 0.97372 0.38982 0.0
H693 H 0.37179 0.95975 0.43902 0.0
H694 H 0.32289 -0.00053 0.41072 0.0
H695 H 0.35907 0.98582 0.45903 0.0
H696 H 0.41791 0.91634 0.37425 0.0
H697 H 0.36449 0.89803 0.3541 0.0
H698 H 0.43221 0.89146 0.35362 0.0
H699 H 0.37973 0.87355 0.3337 0.0
H700 H 0.44795 0.93835 0.427 0.0
H701 H 0.42124 0.99147 0.42165 0.0
H702 H 0.29839 0.95153 0.34988 0.0
H703 H 0.34167 0.93659 0.30756 0.0
Li704 Li 0.44168 0.87737 0.90497 0.0
Li705 Li 0.41023 0.87246 0.90318 0.0
Li706 Li 0.42985 0.84931 0.92018 0.0
Li707 Li 0.42943 0.85435 0.88095 0.0
C708 C 0.432 0.88582 0.94315 0.0
N709 N 0.44767 0.90856 0.97225 0.0
C710 C 0.42761 0.90458 0.94367 0.0
C711 C 0.44421 0.8786 0.95761 0.0
C712 C 0.43575 0.91586 0.95842 0.0
C713 C 0.45198 0.89032 0.97218 0.0
C714 C 0.41565 0.89452 0.87122 0.0
C715 C 0.39946 0.90613 0.84173 0.0
N716 N 0.39395 0.92104 0.85272 0.0
C717 C 0.41007 0.91013 0.88211 0.0
C718 C 0.41052 0.89264 0.85077 0.0
C719 C 0.39901 0.92331 0.87255 0.0
C720 C 0.45748 0.91268 0.90129 0.0
N721 N 0.46007 0.89573 0.90963 0.0
C722 C 0.48275 0.90763 0.93247 0.0
C723 C 0.47312 0.89281 0.92416 0.0
C724 C 0.47881 0.92556 0.92574 0.0
C725 C 0.46673 0.92792 0.90921 0.0
H726 H 0.44726 0.91462 0.88953 0.0
H727 H 0.47478 0.87929 0.93078 0.0
C728 C 0.38136 0.88824 0.92489 0.0
N729 N 0.38614 0.8829 0.90576 0.0
C730 C 0.36379 0.89499 0.92883 0.0
C731 C 0.35619 0.89078 0.89322 0.0
C732 C 0.37397 0.88393 0.88999 0.0
C733 C 0.35087 0.89636 0.91292 0.0
H734 H 0.39106 0.88676 0.93728 0.0
H735 H 0.37798 0.87922 0.87498 0.0
C736 C 0.46916 0.85306 0.8983 0.0
N737 N 0.50681 0.85653 0.89361 0.0
C738 C 0.47634 0.86236 0.8814 0.0
C739 C 0.48109 0.84538 0.91272 0.0
C740 C 0.49543 0.86401 0.87933 0.0
C741 C 0.5001 0.84732 0.91009 0.0
C742 C 0.39168 0.8411 0.90206 0.0
C743 C 0.38397 0.84118 0.92161 0.0
C744 C 0.3805 0.83745 0.88517 0.0
C745 C 0.36513 0.83784 0.92391 0.0
C746 C 0.36172 0.83414 0.88811 0.0
N747 N 0.35448 0.83442 0.90725 0.0
C748 C 0.42358 0.83408 0.95917 0.0
C749 C 0.43981 0.81477 0.93614 0.0
C750 C 0.42364 0.82028 0.974 0.0
N751 N 0.43151 0.83105 0.94068 0.0
C752 C 0.44008 0.80054 0.95048 0.0
C753 C 0.43176 0.80316 0.96963 0.0
H754 H 0.41688 0.8471 0.96224 0.0
H755 H 0.44591 0.81277 0.92124 0.0
C756 C 0.41802 0.84129 0.84234 0.0
N757 N 0.43184 0.84098 0.85633 0.0
C758 C 0.41869 0.82973 0.82533 0.0
C759 C 0.44796 0.81802 0.83728 0.0
C760 C 0.44671 0.82978 0.85405 0.0
C761 C 0.43367 0.81767 0.82283 0.0
H762 H 0.40619 0.85007 0.84472 0.0
H763 H 0.45728 0.82945 0.86565 0.0
O764 O 0.42442 0.87459 0.92858 0.0
O765 O 0.42654 0.88144 0.88029 0.0
O766 O 0.45053 0.85138 0.90064 0.0
O767 O 0.40999 0.84496 0.89949 0.0
H768 H 0.41807 0.91041 0.9328 0.0
H769 H 0.44802 0.86421 0.95729 0.0
H770 H 0.43259 0.93043 0.95887 0.0
H771 H 0.46158 0.88494 0.98332 0.0
H772 H 0.39533 0.90478 0.82593 0.0
H773 H 0.41406 0.91193 0.89785 0.0
H774 H 0.41519 0.88102 0.84187 0.0
H775 H 0.39444 0.93533 0.88089 0.0
H776 H 0.49184 0.90522 0.94531 0.0
H777 H 0.46358 0.94153 0.90338 0.0
H778 H 0.36021 0.89852 0.94439 0.0
H779 H 0.34672 0.89159 0.88048 0.0
H780 H 0.46724 0.86834 0.8701 0.0
H781 H 0.4757 0.83812 0.92586 0.0
H782 H 0.5012 0.87125 0.86639 0.0
H783 H 0.50951 0.84153 0.92117 0.0
H784 H 0.39237 0.84419 0.93481 0.0
H785 H 0.38621 0.83729 0.86995 0.0
H786 H 0.35896 0.83805 0.93893 0.0
H787 H 0.35289 0.83139 0.87516 0.0
H788 H 0.41684 0.82277 0.98845 0.0
H789 H 0.44659 0.78757 0.94658 0.0
H790 H 0.40744 0.82999 0.81447 0.0
H791 H 0.45959 0.80872 0.83615 0.0
Li792 Li 0.63137 0.40526 0.90153 0.0
Li793 Li 0.62178 0.43678 0.90413 0.0
Li794 Li 0.648 0.42912 0.88202 0.0
Li795 Li 0.65032 0.42861 0.91939 0.0
C796 C 0.61931 0.41136 0.86131 0.0
N797 N 0.61503 0.39192 0.82535 0.0
C798 C 0.60306 0.41302 0.85001 0.0
C799 C 0.63339 0.39985 0.8543 0.0
C800 C 0.60115 0.40306 0.83188 0.0
C801 C 0.63097 0.39013 0.8361 0.0
C802 C 0.61083 0.42109 0.93877 0.0
C803 C 0.59368 0.43804 0.96414 0.0
N804 N 0.57947 0.42596 0.96212 0.0
C805 C 0.59608 0.40879 0.93702 0.0
C806 C 0.60968 0.43576 0.95255 0.0
C807 C 0.58035 0.41149 0.94895 0.0
C808 C 0.62819 0.37221 0.92175 0.0
N809 N 0.62361 0.38015 0.90367 0.0
C810 C 0.60693 0.35313 0.89373 0.0
C811 C 0.61305 0.37106 0.88975 0.0
C812 C 0.61168 0.34459 0.91223 0.0
C813 C 0.62251 0.35436 0.92628 0.0
H814 H 0.6357 0.38003 0.93302 0.0
H815 H 0.60888 0.37775 0.87581 0.0
C816 C 0.60228 0.46884 0.91519 0.0
N817 N 0.60054 0.45144 0.90784 0.0
C818 C 0.58711 0.47771 0.92377 0.0
C819 C 0.56841 0.45118 0.91537 0.0
C820 C 0.5839 0.44294 0.90669 0.0
C821 C 0.57014 0.46841 0.92499 0.0
H822 H 0.61566 0.47533 0.91567 0.0
H823 H 0.58301 0.42906 0.90075 0.0
C824 C 0.66914 0.39478 0.90327 0.0
N825 N 0.69107 0.36441 0.91104 0.0
C826 C 0.67164 0.38857 0.92327 0.0
C827 C 0.67802 0.38567 0.88724 0.0
C828 C 0.68271 0.37316 0.92688 0.0
C829 C 0.68899 0.37031 0.89147 0.0
C830 C 0.65678 0.4632 0.90941 0.0
C831 C 0.67218 0.46927 0.89851 0.0
C832 C 0.65329 0.47036 0.92883 0.0
C833 C 0.68403 0.48215 0.90739 0.0
C834 C 0.66548 0.4832 0.93721 0.0
N835 N 0.68049 0.48877 0.92641 0.0
C836 C 0.65511 0.43984 0.84054 0.0
C837 C 0.68069 0.43195 0.86135 0.0
C838 C 0.66682 0.44361 0.82411 0.0
N839 N 0.66227 0.43413 0.85864 0.0
C840 C 0.69286 0.43579 0.84551 0.0
C841 C 0.68596 0.44175 0.82664 0.0
H842 H 0.64037 0.4415 0.8389 0.0
H843 H 0.68593 0.42748 0.87599 0.0
C844 C 0.66211 0.4298 0.96074 0.0
N845 N 0.66742 0.43193 0.94099 0.0
C846 C 0.6751 0.43092 0.97642 0.0
C847 C 0.69865 0.43666 0.9511 0.0
C848 C 0.68525 0.43533 0.93593 0.0
C849 C 0.6937 0.43418 0.97166 0.0
H850 H 0.64791 0.42669 0.96427 0.0
H851 H 0.68907 0.43671 0.92005 0.0
O852 O 0.62139 0.4212 0.87896 0.0
O853 O 0.62621 0.41889 0.9269 0.0
O854 O 0.65849 0.40996 0.89939 0.0
O855 O 0.64515 0.45038 0.90107 0.0
H856 H 0.59205 0.42193 0.85521 0.0
H857 H 0.646 0.39838 0.86286 0.0
H858 H 0.58864 0.4042 0.82299 0.0
H859 H 0.64176 0.38116 0.83052 0.0
H860 H 0.59254 0.44945 0.97469 0.0
H861 H 0.59662 0.39744 0.92635 0.0
H862 H 0.62091 0.44544 0.9541 0.0
H863 H 0.56879 0.40215 0.94765 0.0
H864 H 0.59844 0.3461 0.88258 0.0
H865 H 0.626 0.34853 0.94101 0.0
H866 H 0.58894 0.49122 0.93049 0.0
H867 H 0.55568 0.44342 0.91602 0.0
H868 H 0.665 0.39546 0.9359 0.0
H869 H 0.67658 0.39044 0.87168 0.0
H870 H 0.68465 0.36816 0.94229 0.0
H871 H 0.69589 0.36311 0.8792 0.0
H872 H 0.67495 0.46417 0.88333 0.0
H873 H 0.64146 0.46585 0.9375 0.0
H874 H 0.69604 0.48691 0.89915 0.0
H875 H 0.66304 0.4887 0.95231 0.0
H876 H 0.66105 0.4482 0.80974 0.0
H877 H 0.70751 0.43393 0.84795 0.0
H878 H 0.67071 0.4286 0.992 0.0
H879 H 0.71278 0.43941 0.94673 0.0
Li880 Li 0.07298 0.64086 0.8766 0.0
Li881 Li 0.07093 0.64553 0.91297 0.0
Li882 Li 0.09454 0.62412 0.89903 0.0
Li883 Li 0.06207 0.61637 0.89924 0.0
C884 C 0.09552 0.66972 0.89439 0.0
N885 N 0.10214 0.70722 0.89374 0.0
C886 C 0.08178 0.6819 0.888 0.0
C887 C 0.11267 0.67661 0.90039 0.0
C888 C 0.08537 0.70081 0.88779 0.0
C889 C 0.11574 0.69562 0.89998 0.0
C890 C 0.03607 0.65125 0.90035 0.0
C891 C 0.01345 0.65887 0.92601 0.0
N892 N 0.00757 0.6732 0.91433 0.0
C893 C 0.02974 0.66604 0.88858 0.0
C894 C 0.0278 0.64761 0.91919 0.0
C895 C 0.01534 0.67697 0.89591 0.0
C896 C 0.05401 0.65302 0.84152 0.0
N897 N 0.0707 0.65263 0.85091 0.0
C898 C 0.08305 0.67401 0.8269 0.0
C899 C 0.0853 0.66226 0.84352 0.0
C900 C 0.06559 0.67586 0.81787 0.0
C901 C 0.0511 0.66469 0.82488 0.0
H902 H 0.04269 0.6451 0.84771 0.0
H903 H 0.09847 0.6616 0.85119 0.0
C904 C 0.07542 0.65874 0.95274 0.0
N905 N 0.06761 0.66304 0.93449 0.0
C906 C 0.07466 0.67115 0.96899 0.0
C907 C 0.05763 0.69216 0.94748 0.0
C908 C 0.05883 0.6794 0.93163 0.0
C909 C 0.06581 0.68821 0.96642 0.0
H910 H 0.08264 0.64581 0.95454 0.0
H911 H 0.05296 0.68275 0.91698 0.0
C912 C 0.09061 0.61065 0.85934 0.0
N913 N 0.11249 0.60413 0.8256 0.0
C914 C 0.08608 0.59657 0.84568 0.0
C915 C 0.10628 0.6214 0.85585 0.0
C916 C 0.09731 0.59349 0.82871 0.0
C917 C 0.11716 0.61789 0.8387 0.0
C918 C 0.07485 0.60757 0.93662 0.0
C919 C 0.08564 0.5916 0.9369 0.0
C920 C 0.06025 0.60935 0.95038 0.0
C921 C 0.08133 0.57749 0.9506 0.0
C922 C 0.05632 0.5949 0.96378 0.0
N923 N 0.06684 0.57938 0.96359 0.0
C924 C 0.12918 0.62493 0.91654 0.0
C925 C 0.12419 0.59829 0.89631 0.0
C926 C 0.1462 0.61819 0.92294 0.0
N927 N 0.11855 0.6149 0.90364 0.0
C928 C 0.14114 0.59096 0.90239 0.0
C929 C 0.15219 0.6008 0.91623 0.0
H930 H 0.12411 0.63789 0.92243 0.0
H931 H 0.11521 0.5904 0.88646 0.0
C932 C 0.0288 0.59779 0.90913 0.0
N933 N 0.04662 0.59571 0.90325 0.0
C934 C 0.01942 0.58309 0.91806 0.0
C935 C 0.04633 0.56401 0.9128 0.0
C936 C 0.0551 0.57904 0.90379 0.0
C937 C 0.02857 0.56622 0.921 0.0
H938 H 0.02224 0.6111 0.90808 0.0
H939 H 0.0693 0.57785 0.89893 0.0
O940 O 0.0923 0.65113 0.89472 0.0
O941 O 0.05017 0.64035 0.89341 0.0
O942 O 0.07967 0.61379 0.87598 0.0
O943 O 0.07856 0.62134 0.92293 0.0
H944 H 0.06845 0.67682 0.8833 0.0
H945 H 0.12353 0.66739 0.90524 0.0
H946 H 0.07483 0.71038 0.8829 0.0
H947 H 0.12895 0.70114 0.90459 0.0
H948 H 0.00701 0.65623 0.94061 0.0
H949 H 0.03595 0.66921 0.87402 0.0
H950 H 0.0325 0.63632 0.92855 0.0
H951 H 0.01038 0.68849 0.88698 0.0
H952 H 0.09469 0.68207 0.82167 0.0
H953 H 0.03742 0.66571 0.81838 0.0
H954 H 0.08145 0.66764 0.98319 0.0
H955 H 0.05049 0.70504 0.94484 0.0
H956 H 0.07399 0.58812 0.84819 0.0
H957 H 0.11008 0.6323 0.86628 0.0
H958 H 0.09397 0.58264 0.81801 0.0
H959 H 0.12932 0.62611 0.83582 0.0
H960 H 0.09703 0.58997 0.92644 0.0
H961 H 0.05201 0.62174 0.95073 0.0
H962 H 0.08943 0.56498 0.95081 0.0
H963 H 0.04493 0.59602 0.97435 0.0
H964 H 0.15437 0.62632 0.93343 0.0
H965 H 0.14512 0.57741 0.89707 0.0
H966 H 0.00554 0.58522 0.92365 0.0
H967 H 0.05398 0.55133 0.91478 0.0
Li968 Li 0.87416 0.09639 0.895 0.0
Li969 Li 0.88431 0.0648 0.90226 0.0
Li970 Li 0.85847 0.07175 0.87932 0.0
Li971 Li 0.8538 0.07564 0.91529 0.0
C972 C 0.89714 0.08849 0.86507 0.0
N973 N 0.92207 0.11046 0.84446 0.0
C974 C 0.91604 0.0851 0.86674 0.0
C975 C 0.89091 0.10287 0.85266 0.0
C976 C 0.92842 0.09641 0.85626 0.0
C977 C 0.90373 0.11388 0.84245 0.0
C978 C 0.88332 0.09235 0.93991 0.0
C979 C 0.89749 0.09057 0.97318 0.0
N980 N 0.89267 0.10839 0.97677 0.0
C981 C 0.87855 0.11066 0.94394 0.0
C982 C 0.89292 0.08223 0.95464 0.0
C983 C 0.88338 0.11851 0.96266 0.0
C984 C 0.87194 0.13535 0.89215 0.0
N985 N 0.88351 0.12077 0.89441 0.0
C986 C 0.90873 0.14076 0.90188 0.0
C987 C 0.90163 0.12313 0.89889 0.0
C988 C 0.89695 0.15611 0.90071 0.0
C989 C 0.87841 0.15326 0.89525 0.0
H990 H 0.85749 0.13301 0.88906 0.0
H991 H 0.9104 0.11122 0.90098 0.0
C992 C 0.90622 0.03245 0.90963 0.0
N993 N 0.90546 0.05117 0.90953 0.0
C994 C 0.9211 0.02348 0.91882 0.0
C995 C 0.93467 0.05324 0.92602 0.0
C996 C 0.91949 0.06159 0.91692 0.0
C997 C 0.93532 0.03397 0.92761 0.0
H998 H 0.89496 0.02448 0.90342 0.0
H999 H 0.91843 0.07646 0.91662 0.0
C1000 C 0.83177 0.09583 0.88213 0.0
N1001 N 0.80072 0.09954 0.85807 0.0
C1002 C 0.81531 0.08724 0.88778 0.0
C1003 C 0.83238 0.10651 0.86438 0.0
C1004 C 0.79977 0.08925 0.87538 0.0
C1005 C 0.81655 0.10815 0.85238 0.0
C1006 C 0.85954 0.03723 0.91351 0.0
C1007 C 0.85352 0.0201 0.9064 0.0
C1008 C 0.86565 0.03897 0.93365 0.0
C1009 C 0.85378 0.00496 0.91956 0.0
C1010 C 0.86571 0.02351 0.94634 0.0
N1011 N 0.85983 0.00696 0.93909 0.0
C1012 C 0.84971 0.07078 0.83705 0.0
C1013 C 0.8307 0.05289 0.85882 0.0
C1014 C 0.83818 0.06715 0.82049 0.0
N1015 N 0.8455 0.06401 0.8558 0.0
C1016 C 0.81878 0.04893 0.84272 0.0
C1017 C 0.82223 0.05646 0.82334 0.0
H1018 H 0.8616 0.07956 0.83511 0.0
H1019 H 0.82766 0.04786 0.87399 0.0
C1020 C 0.83429 0.08979 0.9491 0.0
N1021 N 0.83632 0.07466 0.9371 0.0
C1022 C 0.82097 0.09014 0.96445 0.0
C1023 C 0.81178 0.05939 0.95465 0.0
C1024 C 0.82526 0.05967 0.93946 0.0
C1025 C 0.80941 0.07483 0.96731 0.0
H1026 H 0.84259 0.10186 0.94634 0.0
H1027 H 0.82655 0.04806 0.92925 0.0
O1028 O 0.88481 0.07766 0.87538 0.0
O1029 O 0.8791 0.08452 0.92146 0.0
O1030 O 0.84728 0.09354 0.89373 0.0
O1031 O 0.85955 0.05209 0.90066 0.0
H1032 H 0.92111 0.07385 0.87598 0.0
H1033 H 0.87635 0.10571 0.85121 0.0
H1034 H 0.94309 0.09399 0.85749 0.0
H1035 H 0.8991 0.12517 0.83297 0.0
H1036 H 0.90491 0.08288 0.9847 0.0
H1037 H 0.87099 0.11869 0.93286 0.0
H1038 H 0.89686 0.06808 0.95184 0.0
H1039 H 0.8797 0.13265 0.96597 0.0
H1040 H 0.92315 0.1423 0.90579 0.0
H1041 H 0.86875 0.16461 0.89451 0.0
H1042 H 0.92123 0.00857 0.9196 0.0
H1043 H 0.94522 0.06183 0.93281 0.0
H1044 H 0.8146 0.07889 0.90142 0.0
H1045 H 0.84499 0.11328 0.8598 0.0
H1046 H 0.78697 0.08255 0.87948 0.0
H1047 H 0.81687 0.11622 0.8385 0.0
H1048 H 0.84876 0.01853 0.89083 0.0
H1049 H 0.87019 0.05213 0.93944 0.0
H1050 H 0.84919 0.99161 0.91425 0.0
H1051 H 0.87041 0.02467 0.96195 0.0
H1052 H 0.84147 0.07301 0.80573 0.0
H1053 H 0.80654 0.04083 0.84568 0.0
H1054 H 0.81929 0.10254 0.97345 0.0
H1055 H 0.80317 0.04729 0.95628 0.0
Li1056 Li 0.42381 0.63936 0.61239 0.0
Li1057 Li 0.42691 0.64282 0.57552 0.0
Li1058 Li 0.40486 0.62107 0.59056 0.0
Li1059 Li 0.43791 0.61532 0.59202 0.0
C1060 C 0.38738 0.65234 0.5887 0.0
N1061 N 0.35075 0.6587 0.57949 0.0
C1062 C 0.38238 0.65874 0.56935 0.0
C1063 C 0.37375 0.64927 0.6034 0.0
C1064 C 0.36379 0.66187 0.56499 0.0
C1065 C 0.35531 0.65252 0.59843 0.0
C1066 C 0.45847 0.65441 0.59036 0.0
C1067 C 0.48031 0.6672 0.56648 0.0
N1068 N 0.48081 0.68303 0.57758 0.0
C1069 C 0.45922 0.67081 0.60155 0.0
C1070 C 0.46914 0.65256 0.57271 0.0
C1071 C 0.4706 0.68511 0.59483 0.0
C1072 C 0.43975 0.65109 0.64973 0.0
N1073 N 0.42493 0.65276 0.63718 0.0
C1074 C 0.4122 0.67643 0.65812 0.0
C1075 C 0.41124 0.66502 0.64108 0.0
C1076 C 0.4275 0.67533 0.67119 0.0
C1077 C 0.44132 0.66231 0.66697 0.0
H1078 H 0.45059 0.64143 0.64603 0.0
H1079 H 0.39985 0.66637 0.63059 0.0
C1080 C 0.43067 0.65447 0.53432 0.0
N1081 N 0.43014 0.66012 0.55408 0.0
C1082 C 0.43184 0.6674 0.51858 0.0
C1083 C 0.432 0.69165 0.54389 0.0
C1084 C 0.43067 0.67828 0.5591 0.0
C1085 C 0.43243 0.68626 0.52331 0.0
H1086 H 0.42974 0.63998 0.53073 0.0
H1087 H 0.42966 0.68238 0.57492 0.0
C1088 C 0.42075 0.60972 0.63446 0.0
N1089 N 0.4242 0.60599 0.67624 0.0
C1090 C 0.43707 0.60284 0.64286 0.0
C1091 C 0.40615 0.6146 0.64728 0.0
C1092 C 0.43854 0.60107 0.66403 0.0
C1093 C 0.40818 0.61266 0.66837 0.0
C1094 C 0.42734 0.60297 0.55564 0.0
C1095 C 0.41733 0.58651 0.55593 0.0
C1096 C 0.44334 0.6042 0.54383 0.0
C1097 C 0.42356 0.57151 0.54448 0.0
C1098 C 0.44914 0.58888 0.53264 0.0
N1099 N 0.43923 0.57299 0.53319 0.0
C1100 C 0.37476 0.61188 0.56671 0.0
C1101 C 0.37188 0.60138 0.60084 0.0
C1102 C 0.3575 0.6048 0.56183 0.0
N1103 N 0.38151 0.61017 0.58594 0.0
C1104 C 0.35446 0.59406 0.59661 0.0
C1105 C 0.34708 0.59574 0.57686 0.0
H1106 H 0.38278 0.61896 0.55521 0.0
H1107 H 0.37766 0.60015 0.61597 0.0
C1108 C 0.47285 0.59971 0.5835 0.0
N1109 N 0.45545 0.59616 0.59001 0.0
C1110 C 0.48378 0.58542 0.57598 0.0
C1111 C 0.45926 0.56401 0.58395 0.0
C1112 C 0.44888 0.57868 0.5914 0.0
C1113 C 0.47658 0.56744 0.57514 0.0
H1114 H 0.47774 0.61374 0.58272 0.0
H1115 H 0.4349 0.57637 0.59654 0.0
O1116 O 0.40546 0.64874 0.59311 0.0
O1117 O 0.44725 0.64032 0.59655 0.0
O1118 O 0.41916 0.61184 0.61381 0.0
O1119 O 0.42169 0.61768 0.56714 0.0
H1120 H 0.39268 0.66108 0.55773 0.0
H1121 H 0.37733 0.64408 0.61836 0.0
H1122 H 0.35972 0.66674 0.55006 0.0
H1123 H 0.34461 0.65005 0.60959 0.0
H1124 H 0.48852 0.666 0.55277 0.0
H1125 H 0.45099 0.67258 0.61514 0.0
H1126 H 0.46855 0.6401 0.56369 0.0
H1127 H 0.47126 0.69789 0.6033 0.0
H1128 H 0.40143 0.68653 0.66056 0.0
H1129 H 0.45331 0.66099 0.67671 0.0
H1130 H 0.43208 0.66271 0.50289 0.0
H1131 H 0.43201 0.70606 0.54818 0.0
H1132 H 0.44852 0.59907 0.63315 0.0
H1133 H 0.39349 0.6201 0.64102 0.0
H1134 H 0.45111 0.59583 0.67076 0.0
H1135 H 0.39705 0.61651 0.67848 0.0
H1136 H 0.40502 0.58521 0.56514 0.0
H1137 H 0.45137 0.61675 0.54359 0.0
H1138 H 0.41602 0.55866 0.54466 0.0
H1139 H 0.46159 0.58959 0.52359 0.0
H1140 H 0.35222 0.60672 0.54651 0.0
H1141 H 0.34692 0.58708 0.6086 0.0
H1142 H 0.49721 0.58859 0.5697 0.0
H1143 H 0.45307 0.55044 0.58347 0.0
Li1144 Li 0.8702 0.40185 0.5889 0.0
Li1145 Li 0.88049 0.43376 0.58911 0.0
Li1146 Li 0.85471 0.42381 0.60987 0.0
Li1147 Li 0.85168 0.42619 0.57295 0.0
C1148 C 0.88369 0.41711 0.63221 0.0
N1149 N 0.88804 0.42077 0.67389 0.0
C1150 C 0.89278 0.43247 0.64021 0.0
C1151 C 0.87691 0.40355 0.64537 0.0
C1152 C 0.89483 0.43407 0.66134 0.0
C1153 C 0.8792 0.40568 0.6664 0.0
C1154 C 0.89131 0.42041 0.55336 0.0
C1155 C 0.90836 0.43896 0.52933 0.0
N1156 N 0.92275 0.42702 0.5307 0.0
C1157 C 0.90629 0.40833 0.55455 0.0
C1158 C 0.89233 0.43584 0.54063 0.0
C1159 C 0.92205 0.41191 0.54296 0.0
C1160 C 0.87558 0.37013 0.56622 0.0
N1161 N 0.87819 0.37725 0.58516 0.0
C1162 C 0.89319 0.34967 0.59616 0.0
C1163 C 0.88675 0.36748 0.60012 0.0
C1164 C 0.89091 0.34207 0.57659 0.0
C1165 C 0.88179 0.35248 0.5616 0.0
H1166 H 0.86883 0.37832 0.55463 0.0
H1167 H 0.88882 0.3736 0.61498 0.0
C1168 C 0.90122 0.46533 0.57842 0.0
N1169 N 0.90206 0.44816 0.5866 0.0
C1170 C 0.91715 0.4736 0.57081 0.0
C1171 C 0.93464 0.4471 0.58211 0.0
C1172 C 0.91837 0.43935 0.58946 0.0
C1173 C 0.93397 0.46402 0.57173 0.0
H1174 H 0.88804 0.47195 0.57631 0.0
H1175 H 0.91852 0.42563 0.59593 0.0
C1176 C 0.83697 0.38869 0.58763 0.0
N1177 N 0.82581 0.35294 0.57997 0.0
C1178 C 0.82992 0.38391 0.56849 0.0
C1179 C 0.83825 0.37529 0.6029 0.0
C1180 C 0.82436 0.36577 0.56492 0.0
C1181 C 0.83258 0.35729 0.59872 0.0
C1182 C 0.84445 0.45939 0.5865 0.0
C1183 C 0.82834 0.46262 0.59764 0.0
C1184 C 0.84755 0.46909 0.56839 0.0
C1185 C 0.81557 0.47548 0.59043 0.0
C1186 C 0.83443 0.4818 0.56167 0.0
N1187 N 0.81884 0.48471 0.57274 0.0
C1188 C 0.84572 0.44201 0.64687 0.0
C1189 C 0.82753 0.41585 0.63883 0.0
C1190 C 0.83522 0.44532 0.66435 0.0
N1191 N 0.84168 0.42747 0.63458 0.0
C1192 C 0.81669 0.41863 0.6561 0.0
C1193 C 0.8204 0.4336 0.66906 0.0
H1194 H 0.85686 0.45121 0.64287 0.0
H1195 H 0.82434 0.40469 0.62854 0.0
C1196 C 0.84046 0.43068 0.53161 0.0
N1197 N 0.83486 0.43107 0.5514 0.0
C1198 C 0.82767 0.43298 0.51589 0.0
C1199 C 0.80367 0.43612 0.54126 0.0
C1200 C 0.8169 0.43368 0.55645 0.0
C1201 C 0.80897 0.43559 0.52064 0.0
H1202 H 0.85474 0.42811 0.528 0.0
H1203 H 0.81279 0.43342 0.57232 0.0
O1204 O 0.88129 0.41543 0.6116 0.0
O1205 O 0.87587 0.41732 0.56487 0.0
O1206 O 0.84289 0.40628 0.5913 0.0
O1207 O 0.85702 0.44668 0.59317 0.0
H1208 H 0.89804 0.44312 0.63023 0.0
H1209 H 0.86972 0.39164 0.63942 0.0
H1210 H 0.90177 0.44592 0.66776 0.0
H1211 H 0.87391 0.39537 0.67678 0.0
H1212 H 0.90939 0.45093 0.51955 0.0
H1213 H 0.90588 0.39646 0.56451 0.0
H1214 H 0.88101 0.4455 0.53975 0.0
H1215 H 0.93377 0.40273 0.5438 0.0
H1216 H 0.90026 0.34213 0.60808 0.0
H1217 H 0.87947 0.34703 0.54643 0.0
H1218 H 0.91599 0.4866 0.56281 0.0
H1219 H 0.94737 0.43941 0.58337 0.0
H1220 H 0.82894 0.39403 0.55643 0.0
H1221 H 0.84386 0.37869 0.61774 0.0
H1222 H 0.81896 0.36186 0.55015 0.0
H1223 H 0.83363 0.34676 0.61035 0.0
H1224 H 0.82561 0.45518 0.61161 0.0
H1225 H 0.85978 0.46657 0.55938 0.0
H1226 H 0.80302 0.47806 0.59887 0.0
H1227 H 0.83659 0.48929 0.54759 0.0
H1228 H 0.83859 0.45696 0.674 0.0
H1229 H 0.80518 0.40949 0.6589 0.0
H1230 H 0.83231 0.43247 0.50019 0.0
H1231 H 0.78936 0.43767 0.54561 0.0
Li1232 Li 0.09239 0.87142 0.59477 0.0
Li1233 Li 0.06174 0.88344 0.59186 0.0
Li1234 Li 0.06702 0.85691 0.61439 0.0
Li1235 Li 0.06742 0.85418 0.57703 0.0
C1236 C 0.08697 0.88391 0.635 0.0
N1237 N 0.10611 0.88609 0.67138 0.0
C1238 C 0.08392 0.89864 0.64831 0.0
C1239 C 0.09976 0.8703 0.64018 0.0
C1240 C 0.09373 0.8995 0.66664 0.0
C1241 C 0.1093 0.87164 0.65864 0.0
C1242 C 0.07848 0.8927 0.55722 0.0
C1243 C 0.06351 0.91084 0.53117 0.0
N1244 N 0.07659 0.9241 0.5334 0.0
C1245 C 0.09183 0.90649 0.55917 0.0
C1246 C 0.06427 0.89484 0.54299 0.0
C1247 C 0.09062 0.92226 0.54701 0.0
C1248 C 0.12702 0.86923 0.57726 0.0
N1249 N 0.11786 0.87747 0.59284 0.0
C1250 C 0.14359 0.89725 0.59933 0.0
C1251 C 0.12579 0.89118 0.60399 0.0
C1252 C 0.15311 0.88931 0.58288 0.0
C1253 C 0.14478 0.87478 0.57215 0.0
H1254 H 0.12015 0.85902 0.56803 0.0
H1255 H 0.11799 0.89813 0.61573 0.0
C1256 C 0.03213 0.90561 0.57909 0.0
N1257 N 0.04914 0.90589 0.5877 0.0
C1258 C 0.02485 0.92159 0.57048 0.0
C1259 C 0.0521 0.93812 0.58136 0.0
C1260 C 0.0588 0.92182 0.58985 0.0
C1261 C 0.03527 0.93792 0.57076 0.0
H1262 H 0.0248 0.89274 0.57758 0.0
H1263 H 0.07237 0.92152 0.59669 0.0
C1264 C 0.09827 0.83138 0.59526 0.0
N1265 N 0.12372 0.80322 0.59139 0.0
C1266 C 0.10442 0.82595 0.57595 0.0
C1267 C 0.10496 0.82233 0.61259 0.0
C1268 C 0.11732 0.81174 0.57431 0.0
C1269 C 0.11785 0.80818 0.61032 0.0
C1270 C 0.03233 0.85084 0.58685 0.0
C1271 C 0.02423 0.8367 0.59821 0.0
C1272 C 0.02616 0.8543 0.56701 0.0
C1273 C 0.01036 0.82599 0.58937 0.0
C1274 C 0.01228 0.84327 0.55868 0.0
N1275 N 0.00475 0.82945 0.56994 0.0
C1276 C 0.05819 0.85002 0.6567 0.0
C1277 C 0.0603 0.82456 0.6341 0.0
C1278 C 0.05439 0.83821 0.67304 0.0
N1279 N 0.06116 0.84295 0.63776 0.0
C1280 C 0.05641 0.81234 0.64985 0.0
C1281 C 0.05345 0.8191 0.66964 0.0
H1282 H 0.05887 0.86474 0.65913 0.0
H1283 H 0.06269 0.8194 0.61884 0.0
C1284 C 0.0661 0.84166 0.536 0.0
N1285 N 0.06308 0.83697 0.5558 0.0
C1286 C 0.0647 0.82837 0.52067 0.0
C1287 C 0.0568 0.80583 0.54642 0.0
C1288 C 0.05835 0.81954 0.56122 0.0
C1289 C 0.06033 0.8101 0.52587 0.0
H1290 H 0.07023 0.85555 0.5322 0.0
H1291 H 0.05626 0.81621 0.57715 0.0
O1292 O 0.07724 0.88282 0.61716 0.0
O1293 O 0.07926 0.87729 0.56925 0.0
O1294 O 0.08531 0.84501 0.59719 0.0
O1295 O 0.04608 0.86135 0.5952 0.0
H1296 H 0.07402 0.90928 0.64452 0.0
H1297 H 0.10242 0.85893 0.63 0.0
H1298 H 0.09149 0.91081 0.67709 0.0
H1299 H 0.11926 0.8612 0.66282 0.0
H1300 H 0.05248 0.91274 0.52026 0.0
H1301 H 0.1029 0.90516 0.5701 0.0
H1302 H 0.05381 0.88436 0.54126 0.0
H1303 H 0.1008 0.93307 0.54846 0.0
H1304 H 0.14939 0.90871 0.60776 0.0
H1305 H 0.15167 0.8682 0.55942 0.0
H1306 H 0.01191 0.92078 0.56232 0.0
H1307 H 0.06044 0.95048 0.58207 0.0
H1308 H 0.0994 0.83272 0.56234 0.0
H1309 H 0.10021 0.82611 0.62767 0.0
H1310 H 0.12223 0.80748 0.55946 0.0
H1311 H 0.12315 0.8011 0.62361 0.0
H1312 H 0.02847 0.83407 0.61374 0.0
H1313 H 0.03222 0.86519 0.55799 0.0
H1314 H 0.00403 0.81495 0.59797 0.0
H1315 H 0.00754 0.84568 0.54326 0.0
H1316 H 0.05214 0.84392 0.68811 0.0
H1317 H 0.05613 0.7977 0.64663 0.0
H1318 H 0.0678 0.83218 0.50507 0.0
H1319 H 0.05323 0.79195 0.55106 0.0
Li1320 Li 0.64358 0.07697 0.5807 0.0
Li1321 Li 0.64198 0.07281 0.61705 0.0
Li1322 Li 0.61507 0.06402 0.59664 0.0
Li1323 Li 0.62354 0.09628 0.6031 0.0
C1324 C 0.64104 0.03839 0.58284 0.0
N1325 N 0.64151 0.0082 0.55715 0.0
C1326 C 0.64883 0.02178 0.58936 0.0
C1327 C 0.63358 0.03967 0.56323 0.0
C1328 C 0.64891 0.00667 0.57615 0.0
C1329 C 0.63392 0.02425 0.55048 0.0
C1330 C 0.66654 0.09862 0.6123 0.0
C1331 C 0.68242 0.11177 0.64118 0.0
N1332 N 0.69852 0.10447 0.63428 0.0
C1333 C 0.68327 0.0914 0.60539 0.0
C1334 C 0.66612 0.10902 0.63025 0.0
C1335 C 0.69928 0.09447 0.61675 0.0
C1336 C 0.65723 0.08973 0.54258 0.0
N1337 N 0.65916 0.07659 0.5572 0.0
C1338 C 0.68495 0.06362 0.53959 0.0
C1339 C 0.67266 0.06364 0.55599 0.0
C1340 C 0.68338 0.07715 0.52434 0.0
C1341 C 0.66913 0.09018 0.52588 0.0
H1342 H 0.64676 0.10015 0.54408 0.0
H1343 H 0.67424 0.05361 0.56807 0.0
C1344 C 0.65362 0.07143 0.65852 0.0
N1345 N 0.65709 0.06566 0.63918 0.0
C1346 C 0.66606 0.06742 0.67415 0.0
C1347 C 0.68503 0.05116 0.6497 0.0
C1348 C 0.6722 0.05542 0.63459 0.0
C1349 C 0.68216 0.05742 0.66972 0.0
H1350 H 0.64149 0.07957 0.66169 0.0
H1351 H 0.67455 0.05105 0.61902 0.0
C1352 C 0.61045 0.09133 0.55938 0.0
N1353 N 0.59572 0.10618 0.52408 0.0
C1354 C 0.6128 0.11004 0.55495 0.0
C1355 C 0.60063 0.08018 0.54578 0.0
C1356 C 0.60524 0.11728 0.53706 0.0
C1357 C 0.5933 0.08794 0.52803 0.0
C1358 C 0.60333 0.08693 0.63475 0.0
C1359 C 0.58459 0.08247 0.63432 0.0
C1360 C 0.60939 0.10158 0.64687 0.0
C1361 C 0.57218 0.093 0.64571 0.0
C1362 C 0.59654 0.11179 0.65801 0.0
N1363 N 0.57835 0.10734 0.65719 0.0
C1364 C 0.59565 0.02991 0.59115 0.0
C1365 C 0.57932 0.05768 0.58501 0.0
C1366 C 0.58125 0.0196 0.58279 0.0
N1367 N 0.59468 0.04862 0.59131 0.0
C1368 C 0.5646 0.04796 0.57673 0.0
C1369 C 0.56575 0.02872 0.57485 0.0
H1370 H 0.60793 0.02303 0.59653 0.0
H1371 H 0.57901 0.07258 0.58533 0.0
C1372 C 0.62397 0.13514 0.60557 0.0
N1373 N 0.61287 0.1201 0.60457 0.0
C1374 C 0.61669 0.1527 0.60229 0.0
C1375 C 0.58656 0.13897 0.59814 0.0
C1376 C 0.59443 0.12169 0.60138 0.0
C1377 C 0.59783 0.15472 0.59786 0.0
H1378 H 0.63865 0.13342 0.6076 0.0
H1379 H 0.58603 0.10942 0.60021 0.0
O1380 O 0.64076 0.05323 0.59572 0.0
O1381 O 0.65063 0.09528 0.60171 0.0
O1382 O 0.61734 0.08405 0.57713 0.0
O1383 O 0.61567 0.07689 0.62354 0.0
H1384 H 0.65468 0.02058 0.6045 0.0
H1385 H 0.62768 0.05243 0.55789 0.0
H1386 H 0.65485 0.99372 0.581 0.0
H1387 H 0.62817 0.02505 0.53527 0.0
H1388 H 0.68226 0.11966 0.65519 0.0
H1389 H 0.68386 0.08332 0.59155 0.0
H1390 H 0.65332 0.11477 0.63579 0.0
H1391 H 0.71229 0.08882 0.61166 0.0
H1392 H 0.69595 0.05355 0.53929 0.0
H1393 H 0.66732 0.10079 0.51443 0.0
H1394 H 0.66344 0.07265 0.68936 0.0
H1395 H 0.69715 0.04324 0.64571 0.0
H1396 H 0.62064 0.11885 0.56501 0.0
H1397 H 0.59864 0.06567 0.54883 0.0
H1398 H 0.607 0.13173 0.53346 0.0
H1399 H 0.58566 0.07946 0.51741 0.0
H1400 H 0.57969 0.07098 0.62536 0.0
H1401 H 0.62382 0.10521 0.64743 0.0
H1402 H 0.55763 0.08974 0.64544 0.0
H1403 H 0.60103 0.12328 0.66729 0.0
H1404 H 0.58254 0.00475 0.58181 0.0
H1405 H 0.55301 0.05556 0.57058 0.0
H1406 H 0.62598 0.16437 0.60187 0.0
H1407 H 0.57193 0.1399 0.595 0.0
H1408 H 0.55104 0.19055 0.99295 0.0
H1409 H 0.55403 0.21467 0.96688 0.0
H1410 H 0.5869 0.2471 0.00829 0.0
H1411 H 0.58427 0.22314 0.03418 0.0
H1412 H 0.55769 0.26671 0.98771 0.0
H1413 H 0.6027 0.22641 0.93517 0.0
H1414 H 0.58139 0.2161 0.94337 0.0
H1415 H 0.59947 0.21994 0.96153 0.0
C1416 C 0.55897 0.20279 0.99644 0.0
C1417 C 0.56738 0.20494 0.01567 0.0
C1418 C 0.56063 0.21654 0.98156 0.0
C1419 C 0.57077 0.23257 0.98568 0.0
C1420 C 0.57895 0.23484 0.00489 0.0
H1421 H 0.63063 0.31631 0.92982 0.0
H1422 H 0.61796 0.28782 0.94387 0.0
C1423 C 0.57734 0.22116 0.0197 0.0
C1424 C 0.57323 0.24711 0.97012 0.0
H1425 H 0.59781 0.25759 0.92725 0.0
C1426 C 0.56615 0.2647 0.97425 0.0
C1427 C 0.58437 0.24434 0.95269 0.0
C1428 C 0.59256 0.22573 0.94784 0.0
C1429 C 0.57065 0.27985 0.96195 0.0
C1430 C 0.58236 0.27724 0.94492 0.0
C1431 C 0.58874 0.25947 0.94024 0.0
C1432 C 0.5901 0.29311 0.93365 0.0
C1433 C 0.56382 0.29873 0.96803 0.0
C1434 C 0.57873 0.30519 0.92264 0.0
C1435 C 0.58592 0.32158 0.9147 0.0
C1436 C 0.60459 0.32607 0.91767 0.0
C1437 C 0.61613 0.31335 0.9276 0.0
C1438 C 0.60894 0.29702 0.93549 0.0
H1439 H 0.55726 0.29871 0.98335 0.0
H1440 H 0.57535 0.30879 0.96813 0.0
H1441 H 0.55347 0.30353 0.95676 0.0
H1442 H 0.56418 0.30227 0.92086 0.0
H1443 H 0.57669 0.33114 0.90717 0.0
H1444 H 0.16358 0.60155 0.95578 0.0
H1445 H 0.19159 0.58848 0.97025 0.0
H1446 H 0.20696 0.56733 0.91114 0.0
H1447 H 0.17902 0.58097 0.89627 0.0
H1448 H 0.20297 0.55105 0.97028 0.0
H1449 H 0.2527 0.597 0.92997 0.0
H1450 H 0.22843 0.6023 0.93142 0.0
H1451 H 0.23637 0.58438 0.91475 0.0
C1452 C 0.17301 0.59436 0.94574 0.0
C1453 C 0.16921 0.59254 0.92481 0.0
C1454 C 0.18892 0.58673 0.95409 0.0
C1455 C 0.20139 0.5771 0.94173 0.0
C1456 C 0.19759 0.57493 0.92087 0.0
H1457 H 0.30782 0.54232 0.99524 0.0
H1458 H 0.28259 0.54354 0.9703 0.0
C1459 C 0.18159 0.58261 0.91245 0.0
C1460 C 0.21835 0.5696 0.95108 0.0
H1461 H 0.26444 0.578 0.95585 0.0
C1462 C 0.21648 0.55666 0.96686 0.0
C1463 C 0.23595 0.57687 0.94647 0.0
C1464 C 0.23862 0.59098 0.92982 0.0
C1465 C 0.23158 0.55161 0.97896 0.0
C1466 C 0.24888 0.55985 0.97526 0.0
C1467 C 0.25108 0.57177 0.95859 0.0
C1468 C 0.26403 0.55836 0.99022 0.0
C1469 C 0.22876 0.53811 0.99618 0.0
C1470 C 0.26193 0.56653 0.00945 0.0
C1471 C 0.2763 0.56613 0.02353 0.0
C1472 C 0.29309 0.55746 0.01873 0.0
C1473 C 0.29514 0.54924 -0.00062 0.0
C1474 C 0.28073 0.5498 0.98517 0.0
H1475 H 0.2165 0.52925 0.99351 0.0
H1476 H 0.24106 0.52918 -0.00181 0.0
H1477 H 0.22653 0.54583 0.01059 0.0
H1478 H 0.24925 0.57356 0.01342 0.0
H1479 H 0.27436 0.57303 0.03802 0.0
H1480 H 0.88801 0.18991 0.8844 0.0
H1481 H 0.89596 0.22033 0.8981 0.0
H1482 H 0.92826 0.19458 0.94539 0.0
H1483 H 0.92012 0.16432 0.93226 0.0
H1484 H 0.8869 0.23121 0.93806 0.0
H1485 H 0.96213 0.23617 0.92534 0.0
H1486 H 0.94763 0.22031 0.91139 0.0
H1487 H 0.95535 0.21473 0.93675 0.0
C1488 C 0.89694 0.19074 0.8976 0.0
C1489 C 0.90345 0.17464 0.90718 0.0
C1490 C 0.90157 0.20812 0.9053 0.0
C1491 C 0.91294 0.20969 0.92253 0.0
C1492 C 0.91988 0.19369 0.93174 0.0
H1493 H 0.94271 0.27929 0.01975 0.0
H1494 H 0.93966 0.25623 0.99284 0.0
C1495 C 0.9152 0.17636 0.92416 0.0
C1496 C 0.91591 0.22774 0.93248 0.0
H1497 H 0.94956 0.25562 0.9517 0.0
C1498 C 0.90055 0.23683 0.94069 0.0
C1499 C 0.93375 0.23491 0.93591 0.0
C1500 C 0.95065 0.22612 0.92671 0.0
C1501 C 0.90262 0.25225 0.95338 0.0
C1502 C 0.92054 0.25898 0.95754 0.0
C1503 C 0.93585 0.25041 0.9485 0.0
C1504 C 0.92373 0.27373 0.97274 0.0
C1505 C 0.88569 0.26048 0.96321 0.0
C1506 C 0.91619 0.29138 0.97011 0.0
C1507 C 0.91767 0.30452 0.98563 0.0
C1508 C 0.92686 0.30027 0.00395 0.0
C1509 C 0.93519 0.28287 0.00603 0.0
C1510 C 0.93362 0.26974 0.99058 0.0
H1511 H 0.87346 0.25137 0.9617 0.0
H1512 H 0.88813 0.26316 0.97968 0.0
H1513 H 0.88242 0.27381 0.95574 0.0
H1514 H 0.90878 0.29483 0.95629 0.0
H1515 H 0.91104 0.31776 0.98355 0.0
H1516 H 0.34 0.92348 0.93932 0.0
H1517 H 0.30892 0.92962 0.95151 0.0
H1518 H 0.28711 0.89082 0.90786 0.0
H1519 H 0.31838 0.8835 0.89662 0.0
H1520 H 0.27711 0.94165 0.93674 0.0
H1521 H 0.26967 0.86832 0.96011 0.0
H1522 H 0.29114 0.87757 0.95092 0.0
H1523 H 0.27303 0.87181 0.93327 0.0
C1524 C 0.32862 0.91616 0.93234 0.0
C1525 C 0.33177 0.90259 0.91741 0.0
C1526 C 0.31081 0.91987 0.93916 0.0
C1527 C 0.29572 0.91029 0.931 0.0
C1528 C 0.29861 0.89796 0.9148 0.0
H1529 H 0.18744 0.93763 0.98556 0.0
H1530 H 0.21165 0.93404 0.95987 0.0
C1531 C 0.31651 0.89398 0.90819 0.0
C1532 C 0.2774 0.91222 0.94084 0.0
H1533 H 0.24556 0.88827 0.96851 0.0
C1534 C 0.27007 0.92998 0.94352 0.0
C1535 C 0.26835 0.89695 0.94984 0.0
C1536 C 0.27599 0.87761 0.94858 0.0
C1537 C 0.25445 0.933 0.95573 0.0
C1538 C 0.2456 0.91775 0.96495 0.0
C1539 C 0.25238 0.89992 0.96139 0.0
C1540 C 0.23058 0.91995 0.98009 0.0
C1541 C 0.24825 0.95255 0.95957 0.0
C1542 C 0.23293 0.91276 -0.00021 0.0
C1543 C 0.21899 0.91433 0.01429 0.0
C1544 C 0.20237 0.92334 0.00954 0.0
C1545 C 0.2 0.93053 0.98974 0.0
C1546 C 0.21394 0.92872 0.9751 0.0
H1547 H 0.25895 0.96275 0.95515 0.0
H1548 H 0.23571 0.9554 0.9504 0.0
H1549 H 0.2448 0.95465 0.97591 0.0
H1550 H 0.24562 0.90584 0.00397 0.0
H1551 H 0.22119 0.90819 0.02915 0.0
H1552 H 0.5623 0.31435 0.51425 0.0
H1553 H 0.56496 0.29039 0.54058 0.0
H1554 H 0.57512 0.2497 0.494 0.0
H1555 H 0.57264 0.27346 0.46766 0.0
H1556 H 0.544 0.25114 0.54045 0.0
H1557 H 0.62069 0.25187 0.53816 0.0
H1558 H 0.60694 0.27164 0.53109 0.0
H1559 H 0.60876 0.25238 0.51405 0.0
C1560 C 0.56505 0.30028 0.50965 0.0
C1561 C 0.56728 0.29577 0.4889 0.0
C1562 C 0.56645 0.28664 0.52466 0.0
C1563 C 0.57027 0.26839 0.51913 0.0
C1564 C 0.57215 0.26377 0.49847 0.0
H1565 H 0.57357 0.16071 0.56671 0.0
H1566 H 0.56491 0.19005 0.55149 0.0
C1567 C 0.57063 0.27733 0.48347 0.0
C1568 C 0.57307 0.25412 0.53485 0.0
H1569 H 0.60655 0.22731 0.55605 0.0
C1570 C 0.55765 0.24605 0.54414 0.0
C1571 C 0.59092 0.24774 0.53969 0.0
C1572 C 0.60786 0.25638 0.53038 0.0
C1573 C 0.55964 0.23108 0.55755 0.0
C1574 C 0.57746 0.22402 0.56152 0.0
C1575 C 0.5929 0.23274 0.55297 0.0
C1576 C 0.58041 0.20665 0.57288 0.0
C1577 C 0.54265 0.22275 0.56708 0.0
C1578 C 0.59196 0.20623 0.59005 0.0
C1579 C 0.59691 0.1894 0.59891 0.0
C1580 C 0.59053 0.1727 0.59059 0.0
C1581 C 0.57843 0.17327 0.57382 0.0
C1582 C 0.57345 0.19007 0.56505 0.0
H1583 H 0.53116 0.23285 0.56773 0.0
H1584 H 0.53804 0.21088 0.5577 0.0
H1585 H 0.54554 0.2177 0.58276 0.0
H1586 H 0.59757 0.21889 0.59623 0.0
H1587 H 0.60612 0.18945 0.61192 0.0
H1588 H 0.31563 0.59798 0.5999 0.0
H1589 H 0.28433 0.58933 0.58968 0.0
H1590 H 0.30514 0.56984 0.5319 0.0
H1591 H 0.33638 0.57766 0.54232 0.0
H1592 H 0.26624 0.6045 0.5589 0.0
H1593 H 0.26922 0.52968 0.54507 0.0
H1594 H 0.28682 0.54167 0.55935 0.0
H1595 H 0.28768 0.54091 0.53186 0.0
C1596 C 0.31358 0.59133 0.58528 0.0
C1597 C 0.32846 0.58861 0.57186 0.0
C1598 C 0.29568 0.58648 0.57943 0.0
C1599 C 0.2924 0.5787 0.56014 0.0
C1600 C 0.30734 0.57538 0.54705 0.0
H1601 H 0.21235 0.59647 0.47156 0.0
H1602 H 0.23661 0.59681 0.49725 0.0
C1603 C 0.32519 0.58015 0.5529 0.0
C1604 C 0.27334 0.57624 0.55246 0.0
H1605 H 0.24657 0.54672 0.52481 0.0
C1606 C 0.26175 0.59172 0.5519 0.0
C1607 C 0.26728 0.55949 0.54365 0.0
C1608 C 0.27836 0.54197 0.54523 0.0
C1609 C 0.24498 0.59133 0.54131 0.0
C1610 C 0.23988 0.57517 0.53066 0.0
C1611 C 0.25068 0.55922 0.53266 0.0
C1612 C 0.2246 0.57516 0.5157 0.0
C1613 C 0.23316 0.60844 0.54109 0.0
C1614 C 0.21002 0.56254 0.51726 0.0
C1615 C 0.19618 0.56215 0.50236 0.0
C1616 C 0.19688 0.57423 0.48558 0.0
C1617 C 0.21151 0.58685 0.48417 0.0
C1618 C 0.22526 0.58724 0.499 0.0
H1619 H 0.23532 0.61679 0.55511 0.0
H1620 H 0.23704 0.6171 0.52781 0.0
H1621 H 0.2183 0.60496 0.53984 0.0
H1622 H 0.20939 0.55296 0.52992 0.0
H1623 H 0.18518 0.55214 0.50374 0.0
H1624 H 0.88889 0.31049 0.59951 0.0
H1625 H 0.89856 0.27939 0.58942 0.0
H1626 H 0.9181 0.30076 0.53191 0.0
H1627 H 0.90913 0.33174 0.54212 0.0
H1628 H 0.88471 0.26056 0.55772 0.0
H1629 H 0.95976 0.26681 0.547 0.0
H1630 H 0.94657 0.28367 0.56108 0.0
H1631 H 0.94813 0.28495 0.53365 0.0
C1632 C 0.89568 0.30858 0.58494 0.0
C1633 C 0.89814 0.32352 0.57154 0.0
C1634 C 0.90114 0.29083 0.57918 0.0
C1635 C 0.90932 0.28779 0.56006 0.0
C1636 C 0.91225 0.3028 0.54695 0.0
H1637 H 0.89795 0.20907 0.46952 0.0
H1638 H 0.89574 0.2326 0.49592 0.0
C1639 C 0.90683 0.32048 0.55267 0.0
C1640 C 0.91285 0.26887 0.55254 0.0
H1641 H 0.94437 0.24369 0.52582 0.0
C1642 C 0.89789 0.25667 0.55121 0.0
C1643 C 0.93012 0.26359 0.54441 0.0
C1644 C 0.94709 0.2754 0.54683 0.0
C1645 C 0.89933 0.24007 0.54039 0.0
C1646 C 0.91603 0.23579 0.53034 0.0
C1647 C 0.93145 0.24716 0.53321 0.0
C1648 C 0.91712 0.22089 0.51498 0.0
C1649 C 0.88273 0.2276 0.53921 0.0
C1650 C 0.93023 0.20674 0.51667 0.0
C1651 C 0.93169 0.19334 0.50139 0.0
C1652 C 0.92022 0.19406 0.48409 0.0
C1653 C 0.90712 0.20826 0.48253 0.0
C1654 C 0.90566 0.22157 0.49776 0.0
H1655 H 0.87384 0.22918 0.5529 0.0
H1656 H 0.87438 0.23137 0.52565 0.0
H1657 H 0.88685 0.21291 0.53781 0.0
H1658 H 0.93935 0.20614 0.52974 0.0
H1659 H 0.94202 0.18266 0.5029 0.0
H1660 H 0.16325 0.896 0.54364 0.0
H1661 H 0.19239 0.90824 0.53119 0.0
H1662 H 0.21204 0.91353 0.59304 0.0
H1663 H 0.18284 0.90069 0.60573 0.0
H1664 H 0.20906 0.94285 0.54048 0.0
H1665 H 0.25249 0.88294 0.5636 0.0
H1666 H 0.22768 0.88141 0.56234 0.0
H1667 H 0.23846 0.89379 0.5828 0.0
C1668 C 0.17383 0.89951 0.55463 0.0
C1669 C 0.17086 0.89708 0.57566 0.0
C1670 C 0.19041 0.90669 0.5475 0.0
C1671 C 0.20439 0.91162 0.56118 0.0
C1672 C 0.20145 0.90958 0.58224 0.0
H1673 H 0.31413 0.93953 0.51212 0.0
H1674 H 0.28924 0.93704 0.5373 0.0
C1675 C 0.18477 0.90236 0.58945 0.0
C1676 C 0.22201 0.91862 0.55293 0.0
H1677 H 0.26616 0.9053 0.5427 0.0
C1678 C 0.22167 0.93484 0.54128 0.0
C1679 C 0.23844 0.90819 0.55414 0.0
C1680 C 0.23943 0.89055 0.56629 0.0
C1681 C 0.23702 0.94036 0.52984 0.0
C1682 C 0.25299 0.92923 0.5299 0.0
C1683 C 0.25382 0.91374 0.54267 0.0
C1684 C 0.26794 0.93204 0.5149 0.0
C1685 C 0.2358 0.95769 0.51719 0.0
C1686 C 0.26417 0.92988 0.49405 0.0
C1687 C 0.2783 0.93105 0.47971 0.0
C1688 C 0.29655 0.93442 0.48591 0.0
C1689 C 0.30026 0.93678 0.50685 0.0
C1690 C 0.28607 0.93549 0.52124 0.0
H1691 H 0.22544 0.96741 0.52351 0.0
H1692 H 0.24935 0.96477 0.51634 0.0
H1693 H 0.23148 0.95404 0.50145 0.0
H1694 H 0.25033 0.92674 0.4889 0.0
H1695 H 0.27498 0.92868 0.46381 0.0
H1696 H 0.42291 0.76729 0.96211 0.0
H1697 H 0.41885 0.74247 0.9869 0.0
H1698 H 0.43394 0.77948 0.03564 0.0
H1699 H 0.43784 0.8045 0.01087 0.0
H1700 H 0.44251 0.72655 0.01416 0.0
H1701 H 0.38417 0.76025 0.05454 0.0
H1702 H 0.39284 0.7685 0.03041 0.0
H1703 H 0.40503 0.77355 0.05363 0.0
C1704 C 0.42558 0.7701 0.97808 0.0
C1705 C 0.43061 0.78786 0.98457 0.0
C1706 C 0.42319 0.75593 0.99223 0.0
C1707 C 0.42579 0.75922 0.01314 0.0
C1708 C 0.43143 0.77677 0.01963 0.0
H1709 H 0.4252 0.66448 0.09707 0.0
H1710 H 0.43462 0.6931 0.08011 0.0
C1711 C 0.4337 0.79101 0.00547 0.0
C1712 C 0.42225 0.74424 0.028 0.0
H1713 H 0.39404 0.73152 0.06726 0.0
C1714 C 0.43202 0.72766 0.02588 0.0
C1715 C 0.40842 0.74571 0.04314 0.0
C1716 C 0.39687 0.76288 0.04553 0.0
C1717 C 0.42805 0.71233 0.03818 0.0
C1718 C 0.41423 0.7138 0.05334 0.0
C1719 C 0.40475 0.73051 0.05576 0.0
C1720 C 0.40825 0.69766 0.0655 0.0
C1721 C 0.4381 0.69447 0.03416 0.0
C1722 C 0.39009 0.69126 0.06369 0.0
C1723 C 0.38464 0.67509 0.07351 0.0
C1724 C 0.39727 0.665 0.08533 0.0
C1725 C 0.41525 0.67187 0.08786 0.0
C1726 C 0.42066 0.68815 0.07813 0.0
H1727 H 0.44523 0.69456 0.01916 0.0
H1728 H 0.44865 0.69233 0.04619 0.0
H1729 H 0.42844 0.68261 0.03454 0.0
H1730 H 0.38029 0.6984 0.05403 0.0
H1731 H 0.37077 0.67004 0.07104 0.0
H1732 H 0.69167 0.44867 0.01037 0.0
H1733 H 0.71516 0.44715 0.03727 0.0
H1734 H 0.75134 0.41772 0.99651 0.0
H1735 H 0.728 0.41883 0.96981 0.0
H1736 H 0.73154 0.41492 0.0543 0.0
H1737 H 0.78354 0.46024 0.01825 0.0
H1738 H 0.75965 0.46001 0.01046 0.0
H1739 H 0.7753 0.44265 0.00128 0.0
C1740 C 0.70463 0.44186 0.00716 0.0
C1741 C 0.70801 0.434 0.98787 0.0
C1742 C 0.71803 0.44109 0.0225 0.0
C1743 C 0.73506 0.43261 0.01872 0.0
C1744 C 0.73844 0.42472 -0.00045 0.0
H1745 H 0.81697 0.3759 0.08209 0.0
H1746 H 0.78809 0.38706 0.06779 0.0
C1747 C 0.72508 0.42542 0.98428 0.0
C1748 C 0.74918 0.43115 0.03491 0.0
H1749 H 0.79472 0.43928 0.04388 0.0
C1750 C 0.74527 0.42054 0.05228 0.0
C1751 C 0.76695 0.43878 0.03242 0.0
C1752 C 0.77159 0.45122 0.01469 0.0
C1753 C 0.7591 0.41626 0.06651 0.0
C1754 C 0.77727 0.42258 0.06305 0.0
C1755 C 0.78082 0.43429 0.04645 0.0
C1756 C 0.79319 0.41573 0.07499 0.0
C1757 C 0.75421 0.40467 0.08482 0.0
C1758 C 0.80566 0.42811 0.08394 0.0
C1759 C 0.82228 0.42175 0.09212 0.0
C1760 C 0.82676 0.40289 0.09137 0.0
C1761 C 0.81383 0.39045 0.08328 0.0
C1762 C 0.79725 0.39682 0.0751 0.0
H1763 H 0.73951 0.40651 0.08912 0.0
H1764 H 0.75629 0.38991 0.08103 0.0
H1765 H 0.76298 0.40813 0.09817 0.0
H1766 H 0.80283 0.44277 0.08391 0.0
H1767 H 0.83189 0.43165 0.09842 0.0
H1768 H 0.07048 0.72542 0.96273 0.0
H1769 H 0.07171 0.74836 0.98992 0.0
H1770 H 0.06351 0.70583 0.0349 0.0
H1771 H 0.06167 0.68265 0.00769 0.0
H1772 H 0.04147 0.75167 0.02719 0.0
H1773 H 0.11539 0.73787 0.04496 0.0
H1774 H 0.10662 0.73408 0.01951 0.0
H1775 H 0.09956 0.71922 0.03989 0.0
C1776 C 0.06856 0.72092 0.97834 0.0
C1777 C 0.06591 0.70218 0.98301 0.0
C1778 C 0.06939 0.73404 0.99385 0.0
C1779 C 0.06771 0.7287 0.0143 0.0
C1780 C 0.06486 0.71012 0.01914 0.0
H1781 H 0.09836 0.81029 0.10746 0.0
H1782 H 0.08866 0.78045 0.09344 0.0
C1783 C 0.06394 0.69693 0.00359 0.0
C1784 C 0.0696 0.74275 0.03041 0.0
H1785 H 0.10218 0.76465 0.05894 0.0
C1786 C 0.05461 0.75434 0.0345 0.0
C1787 C 0.08671 0.74598 0.03999 0.0
C1788 C 0.10308 0.73369 0.036 0.0
C1789 C 0.05659 0.76976 0.04723 0.0
C1790 C 0.07411 0.77384 0.05558 0.0
C1791 C 0.08878 0.76153 0.0525 0.0
C1792 C 0.07814 0.79185 0.06523 0.0
C1793 C 0.04 0.78177 0.05118 0.0
C1794 C 0.0755 0.80808 0.05399 0.0
C1795 C 0.08106 0.82502 0.06187 0.0
C1796 C 0.08953 0.82613 0.08114 0.0
C1797 C 0.09194 0.80987 0.09255 0.0
C1798 C 0.08633 0.79286 0.08462 0.0
H1799 H 0.02705 0.77362 0.0504 0.0
H1800 H 0.04083 0.78855 0.06635 0.0
H1801 H 0.03923 0.79261 0.03927 0.0
H1802 H 0.0698 0.80758 0.03873 0.0
H1803 H 0.07943 0.83717 0.05243 0.0
H1804 H 0.65489 0.08402 0.05802 0.0
H1805 H 0.68336 0.07659 0.04006 0.0
H1806 H 0.71469 0.10589 0.0856 0.0
H1807 H 0.68616 0.11302 0.10409 0.0
H1808 H 0.70694 0.10469 0.02487 0.0
H1809 H 0.74365 0.05688 0.07739 0.0
H1810 H 0.71912 0.06093 0.07898 0.0
H1811 H 0.73499 0.07786 0.08844 0.0
C1812 C 0.66786 0.08843 0.0646 0.0
C1813 C 0.66828 0.09901 0.08259 0.0
C1814 C 0.6841 0.08428 0.05421 0.0
C1815 C 0.70111 0.09055 0.06161 0.0
C1816 C 0.70171 0.10069 0.07984 0.0
H1817 H 0.81024 0.08922 0.00603 0.0
H1818 H 0.78433 0.09278 0.02969 0.0
C1819 C 0.68541 0.10488 0.09026 0.0
C1820 C 0.71787 0.08791 0.04912 0.0
H1821 H 0.75968 0.06635 0.04771 0.0
C1822 C 0.71847 0.09628 0.02984 0.0
C1823 C 0.7329 0.07708 0.05578 0.0
C1824 C 0.7327 0.06753 0.07622 0.0
C1825 C 0.73371 0.0941 0.01696 0.0
C1826 C 0.74859 0.08294 0.02338 0.0
C1827 C 0.74818 0.07481 0.04283 0.0
C1828 C 0.76455 0.07946 0.00989 0.0
C1829 C 0.73384 0.10396 0.99667 0.0
C1830 C 0.76205 0.07038 0.99119 0.0
C1831 C 0.77673 0.06848 0.9776 0.0
C1832 C 0.79424 0.07549 0.98252 0.0
C1833 C 0.79686 0.08393 0.00165 0.0
C1834 C 0.78213 0.08585 0.01524 0.0
H1835 H 0.72386 0.11558 0.99636 0.0
H1836 H 0.74778 0.10941 0.99313 0.0
H1837 H 0.72992 0.09413 0.98445 0.0
H1838 H 0.74862 0.06513 0.98692 0.0
H1839 H 0.77417 0.06206 0.96295 0.0
H1840 H 0.41105 0.68692 0.48905 0.0
H1841 H 0.40787 0.71208 0.46452 0.0
H1842 H 0.44994 0.74278 0.49627 0.0
H1843 H 0.45307 0.71769 0.521 0.0
H1844 H 0.41872 0.76225 0.4917 0.0
H1845 H 0.43817 0.73174 0.4173 0.0
H1846 H 0.42122 0.71833 0.43061 0.0
H1847 H 0.44388 0.72102 0.44137 0.0
C1848 C 0.41997 0.69882 0.49048 0.0
C1849 C 0.43227 0.70038 0.50697 0.0
C1850 C 0.41818 0.71317 0.4764 0.0
C1851 C 0.42882 0.72921 0.47842 0.0
C1852 C 0.44164 0.73048 0.4944 0.0
H1853 H 0.42496 0.82679 0.40038 0.0
H1854 H 0.4347 0.79807 0.41687 0.0
C1855 C 0.44336 0.7162 0.50855 0.0
C1856 C 0.42498 0.74549 0.46545 0.0
H1857 H 0.4209 0.76002 0.41605 0.0
C1858 C 0.41941 0.7618 0.47517 0.0
C1859 C 0.426 0.74493 0.44389 0.0
C1860 C 0.43282 0.72811 0.43268 0.0
C1861 C 0.4143 0.77738 0.46393 0.0
C1862 C 0.41441 0.77653 0.44238 0.0
C1863 C 0.42057 0.76048 0.43259 0.0
C1864 C 0.40798 0.79228 0.42998 0.0
C1865 C 0.40879 0.79466 0.47524 0.0
C1866 C 0.38959 0.79806 0.43131 0.0
C1867 C 0.38403 0.81448 0.42211 0.0
C1868 C 0.39675 0.82536 0.41129 0.0
C1869 C 0.4149 0.81886 0.40888 0.0
C1870 C 0.42047 0.80242 0.41815 0.0
H1871 H 0.41377 0.79454 0.49127 0.0
H1872 H 0.41428 0.80713 0.46752 0.0
H1873 H 0.39353 0.7957 0.47553 0.0
H1874 H 0.37972 0.79027 0.44022 0.0
H1875 H 0.37 0.81912 0.42446 0.0
H1876 H 0.8067 0.41424 0.4864 0.0
H1877 H 0.78128 0.41266 0.46206 0.0
H1878 H 0.75351 0.45667 0.49387 0.0
H1879 H 0.77897 0.45838 0.51831 0.0
H1880 H 0.73243 0.42573 0.48983 0.0
H1881 H 0.76265 0.44439 0.41498 0.0
H1882 H 0.77567 0.42711 0.42827 0.0
H1883 H 0.77372 0.44987 0.43893 0.0
C1884 C 0.79545 0.42396 0.48788 0.0
C1885 C 0.7948 0.43639 0.50433 0.0
C1886 C 0.78094 0.42307 0.47391 0.0
C1887 C 0.76561 0.43469 0.47602 0.0
C1888 C 0.76527 0.44763 0.49193 0.0
H1889 H 0.6633 0.43213 0.40513 0.0
H1890 H 0.69225 0.44279 0.42049 0.0
C1891 C 0.77976 0.44852 0.50593 0.0
C1892 C 0.749 0.43166 0.46334 0.0
H1893 H 0.73378 0.42802 0.41413 0.0
C1894 C 0.73267 0.42651 0.47329 0.0
C1895 C 0.74933 0.43271 0.44177 0.0
C1896 C 0.76624 0.439 0.43035 0.0
C1897 C 0.71687 0.42171 0.46225 0.0
C1898 C 0.71747 0.42192 0.44072 0.0
C1899 C 0.73352 0.42772 0.43068 0.0
C1900 C 0.70158 0.41548 0.42865 0.0
C1901 C 0.6997 0.41606 0.47364 0.0
C1902 C 0.69763 0.3966 0.42773 0.0
C1903 C 0.68115 0.39048 0.41909 0.0
C1904 C 0.66833 0.40318 0.41127 0.0
C1905 C 0.67282 0.42205 0.41124 0.0
C1906 C 0.68937 0.42815 0.41986 0.0
H1907 H 0.70052 0.4195 0.49014 0.0
H1908 H 0.68739 0.42291 0.46702 0.0
H1909 H 0.69775 0.40095 0.47215 0.0
H1910 H 0.70693 0.38666 0.43453 0.0
H1911 H 0.67803 0.37589 0.41961 0.0
H1912 H 0.09477 0.6876 0.38511 0.0
H1913 H 0.08608 0.71722 0.4004 0.0
H1914 H 0.06484 0.68882 0.45319 0.0
H1915 H 0.07363 0.65938 0.43833 0.0
H1916 H 0.04254 0.71916 0.43941 0.0
H1917 H 0.11675 0.73688 0.44931 0.0
H1918 H 0.10916 0.73147 0.42388 0.0
H1919 H 0.10922 0.71386 0.44312 0.0
C1920 C 0.08811 0.68768 0.3999 0.0
C1921 C 0.08497 0.67111 0.41052 0.0
C1922 C 0.08312 0.70458 0.40857 0.0
C1923 C 0.07499 0.70516 0.42799 0.0
C1924 C 0.07102 0.68864 0.43814 0.0
H1925 H 0.07542 0.7759 0.52949 0.0
H1926 H 0.07753 0.75192 0.5035 0.0
C1927 C 0.076 0.67179 0.42954 0.0
C1928 C 0.07197 0.72282 0.43874 0.0
H1929 H 0.09511 0.7569 0.46386 0.0
C1930 C 0.05397 0.72764 0.44448 0.0
C1931 C 0.08699 0.73365 0.44549 0.0
C1932 C 0.10666 0.72873 0.4403 0.0
C1933 C 0.05063 0.74274 0.45738 0.0
C1934 C 0.0657 0.75323 0.46455 0.0
C1935 C 0.08362 0.7488 0.45822 0.0
C1936 C 0.06345 0.76768 0.48022 0.0
C1937 C 0.03118 0.74683 0.46411 0.0
C1938 C 0.05474 0.78445 0.47569 0.0
C1939 C 0.05343 0.79821 0.4906 0.0
C1940 C 0.06077 0.79534 0.51023 0.0
C1941 C 0.06933 0.77843 0.51466 0.0
C1942 C 0.07069 0.76477 0.49978 0.0
H1943 H 0.02131 0.73604 0.45909 0.0
H1944 H 0.03054 0.74801 0.48099 0.0
H1945 H 0.02674 0.76022 0.45759 0.0
H1946 H 0.04923 0.78698 0.46059 0.0
H1947 H 0.0467 0.81108 0.48677 0.0
H1948 H 0.6995 0.0489 0.50284 0.0
H1949 H 0.72437 0.05123 0.47764 0.0
H1950 H 0.72308 0.11045 0.4827 0.0
H1951 H 0.69882 0.1083 0.50831 0.0
H1952 H 0.72704 0.07084 0.43924 0.0
H1953 H 0.77649 0.09614 0.49748 0.0
H1954 H 0.75486 0.08544 0.50413 0.0
H1955 H 0.75549 0.10918 0.49629 0.0
C1956 C 0.70454 0.06241 0.49861 0.0
C1957 C 0.69725 0.0784 0.50772 0.0
C1958 C 0.71863 0.06371 0.4841 0.0
C1959 C 0.72568 0.08099 0.47855 0.0
C1960 C 0.71795 0.09698 0.48699 0.0
H1961 H 0.81461 0.12573 0.40911 0.0
H1962 H 0.78541 0.11992 0.4263 0.0
C1963 C 0.70394 0.09571 0.50149 0.0
C1964 C 0.74172 0.08244 0.46475 0.0
H1965 H 0.78595 0.09823 0.46289 0.0
C1966 C 0.73998 0.0767 0.44437 0.0
C1967 C 0.7586 0.08993 0.47162 0.0
C1968 C 0.7616 0.09537 0.49362 0.0
C1969 C 0.75457 0.07894 0.43046 0.0
C1970 C 0.77121 0.08697 0.43724 0.0
C1971 C 0.77305 0.09227 0.45771 0.0
C1972 C 0.78702 0.09027 0.4235 0.0
C1973 C 0.75196 0.0732 0.40853 0.0
C1974 C 0.79734 0.0755 0.41575 0.0
C1975 C 0.81405 0.07878 0.40574 0.0
C1976 C 0.82071 0.09688 0.40343 0.0
C1977 C 0.80979 0.11165 0.41029 0.0
C1978 C 0.79314 0.10836 0.42027 0.0
H1979 H 0.73728 0.07033 0.40492 0.0
H1980 H 0.7571 0.08408 0.39806 0.0
H1981 H 0.76005 0.0605 0.40558 0.0
H1982 H 0.79294 0.06143 0.41834 0.0
H1983 H 0.82208 0.06712 0.4005 0.0
H1984 H 0.51297 0.93211 0.94213 0.0
H1985 H 0.52112 0.9562 0.96685 0.0
H1986 H 0.46632 0.97877 0.96218 0.0
H1987 H 0.45799 0.95473 0.93779 0.0
H1988 H 0.51737 0.99738 0.96353 0.0
H1989 H 0.47485 0.96466 0.02423 0.0
H1990 H 0.48255 0.95228 0.00187 0.0
H1991 H 0.46374 0.96824 0.0 0.0
C1992 C 0.50277 0.94236 0.9462 0.0
C1993 C 0.48488 0.94158 0.938 0.0
C1994 C 0.50743 0.95607 0.96026 0.0
C1995 C 0.49421 0.96902 0.96644 0.0
C1996 C 0.47662 0.96875 0.95767 0.0
H1997 H 0.50696 0.06822 0.0381 0.0
H1998 H 0.49715 0.04487 0.01348 0.0
C1999 C 0.47198 0.95515 0.94356 0.0
C2000 C 0.49853 0.98239 0.98268 0.0
H2001 H 0.48825 0.99358 0.03198 0.0
C2002 C 0.51105 0.99659 0.9785 0.0
C2003 C 0.49032 0.9811 0.00219 0.0
C2004 C 0.47721 0.96569 0.00751 0.0
C2005 C 0.51539 0.0098 0.99335 0.0
C2006 C 0.50687 0.00876 0.01273 0.0
C2007 C 0.49458 0.99437 0.01701 0.0
C2008 C 0.51091 0.02236 0.02883 0.0
C2009 C 0.52918 0.02469 0.98833 0.0
C2010 C 0.52121 0.01718 0.04599 0.0
C2011 C 0.52675 0.03044 0.06015 0.0
C2012 C 0.52194 0.04905 0.0574 0.0
C2013 C 0.51073 0.05397 0.04076 0.0
C2014 C 0.50527 0.04072 0.02657 0.0
H2015 H 0.53704 0.02153 0.97421 0.0
H2016 H 0.5218 0.03793 0.98602 0.0
H2017 H 0.53905 0.02659 0.00111 0.0
H2018 H 0.52555 0.003 0.04799 0.0
H2019 H 0.53524 0.02625 0.07294 0.0
H2020 H 0.42899 0.498 0.04116 0.0
H2021 H 0.45148 0.48627 0.01649 0.0
H2022 H 0.49456 0.51677 0.04671 0.0
H2023 H 0.47215 0.52857 0.07146 0.0
H2024 H 0.47439 0.51345 0.99195 0.0
H2025 H 0.51468 0.46212 0.03661 0.0
H2026 H 0.49119 0.46817 0.04291 0.0
H2027 H 0.5096 0.48374 0.04889 0.0
C2028 C 0.44335 0.50179 0.04287 0.0
C2029 C 0.44888 0.51416 0.05822 0.0
C2030 C 0.45611 0.49519 0.02872 0.0
C2031 C 0.4746 0.50065 0.0299 0.0
C2032 C 0.48034 0.51232 0.04572 0.0
H2033 H 0.57403 0.4852 0.96198 0.0
H2034 H 0.54996 0.49371 0.98601 0.0
C2035 C 0.46756 0.51908 0.05976 0.0
C2036 C 0.48761 0.4955 0.01361 0.0
H2037 H 0.52625 0.47029 0.0041 0.0
C2038 C 0.48567 0.5039 0.99446 0.0
C2039 C 0.50227 0.48316 0.01715 0.0
C2040 C 0.50461 0.47363 0.03744 0.0
C2041 C 0.49845 0.50069 0.9788 0.0
C2042 C 0.51323 0.48839 0.98234 0.0
C2043 C 0.51492 0.47974 0.00144 0.0
C2044 C 0.52749 0.48468 0.96675 0.0
C2045 C 0.49638 0.51102 0.95894 0.0
C2046 C 0.52282 0.47705 0.94775 0.0
C2047 C 0.53658 0.47255 0.93369 0.0
C2048 C 0.55527 0.47536 0.93851 0.0
C2049 C 0.5598 0.48327 0.95747 0.0
C2050 C 0.54606 0.48792 0.97139 0.0
H2051 H 0.48747 0.52338 0.96066 0.0
H2052 H 0.50999 0.51545 0.95295 0.0
H2053 H 0.48988 0.50184 0.94746 0.0
H2054 H 0.50858 0.47413 0.94401 0.0
H2055 H 0.53261 0.46653 0.91922 0.0
H2056 H 0.03022 0.52851 0.91706 0.0
H2057 H 0.02076 0.50547 0.94235 0.0
H2058 H 0.00017 0.54864 0.98135 0.0
H2059 H 0.01001 0.57173 0.95666 0.0
H2060 H 0.03359 0.50633 0.98598 0.0
H2061 H 0.95747 0.50934 0.97637 0.0
H2062 H 0.97329 0.51649 0.95659 0.0
H2063 H 0.96921 0.53112 0.97821 0.0
C2064 C 0.02357 0.53309 0.93096 0.0
C2065 C 0.02077 0.55197 0.93476 0.0
C2066 C 0.01816 0.51992 0.94533 0.0
C2067 C 0.00969 0.52542 0.96356 0.0
C2068 C 0.00645 0.54416 0.9672 0.0
H2069 H 0.96465 0.47053 0.06924 0.0
H2070 H 0.97648 0.49336 0.04504 0.0
C2071 C 0.01196 0.55732 0.95296 0.0
C2072 C 0.00504 0.51174 0.97938 0.0
H2073 H 0.96879 0.49242 0.00453 0.0
C2074 C 0.01944 0.50315 0.99001 0.0
C2075 C 0.98658 0.50787 0.98461 0.0
C2076 C 0.97069 0.51655 0.9733 0.0
C2077 C 0.01584 0.49094 0.00613 0.0
C2078 C 0.99735 0.487 0.01136 0.0
C2079 C 0.98296 0.49556 0.00058 0.0
C2080 C 0.99243 0.4737 0.02758 0.0
C2081 C 0.03184 0.48276 0.01773 0.0
C2082 C 0.99783 0.45518 0.02603 0.0
C2083 C 0.99121 0.44218 0.03991 0.0
C2084 C 0.97888 0.44744 0.05538 0.0
C2085 C 0.97408 0.46611 0.0574 0.0
C2086 C 0.98081 0.47913 0.04361 0.0
H2087 H 0.04451 0.49122 0.01599 0.0
H2088 H 0.02863 0.48147 0.03423 0.0
H2089 H 0.03483 0.46881 0.01165 0.0
H2090 H 0.00643 0.45061 0.01351 0.0
H2091 H 0.99487 0.42783 0.03777 0.0
H2092 H 0.07249 0.99477 0.04271 0.0
H2093 H 0.04991 0.00681 0.01856 0.0
H2094 H 0.0063 0.97971 0.05165 0.0
H2095 H 0.02878 0.96788 0.07626 0.0
H2096 H 0.00968 0.97084 0.00833 0.0
H2097 H 0.0082 0.04625 0.02345 0.0
H2098 H 0.03069 0.03598 0.02145 0.0
H2099 H 0.01586 0.02969 0.04223 0.0
C2100 C 0.05804 0.99188 0.04532 0.0
C2101 C 0.05243 0.98034 0.06142 0.0
C2102 C 0.04517 -0.00129 0.03142 0.0
C2103 C 0.0265 0.99415 0.03341 0.0
C2104 C 0.0207 0.98334 0.04993 0.0
H2105 H 0.93068 0.00752 0.9566 0.0
H2106 H 0.95345 0.99663 0.98125 0.0
C2107 C 0.03355 0.97658 0.06391 0.0
C2108 C 0.01335 -0.00082 0.01716 0.0
H2109 H 0.99294 0.03578 0.99368 0.0
C2110 C 0.0059 0.98502 0.00516 0.0
C2111 C 0.00872 0.0177 0.01301 0.0
C2112 C 0.01615 0.03332 0.02577 0.0
C2113 C 0.99403 0.98891 0.98884 0.0
C2114 C 0.98922 0.00743 0.98478 0.0
C2115 C 0.99672 0.02159 0.9968 0.0
C2116 C 0.97599 0.01246 0.96855 0.0
C2117 C 0.98709 0.9732 0.97585 0.0
C2118 C 0.98113 0.02495 0.95323 0.0
C2119 C 0.96811 0.03126 0.93918 0.0
C2120 C 0.94975 0.0252 0.94026 0.0
C2121 C 0.94481 0.01216 0.95515 0.0
C2122 C 0.9578 0.00594 0.96926 0.0
H2123 H 0.99619 0.96093 0.97702 0.0
H2124 H 0.97316 0.96911 0.98118 0.0
H2125 H 0.98607 0.9773 0.95956 0.0
H2126 H 0.99511 0.03015 0.95246 0.0
H2127 H 0.97229 0.04125 0.9278 0.0
H2128 H 0.47954 0.53034 0.58292 0.0
H2129 H 0.48944 0.50636 0.55898 0.0
H2130 H 0.50318 0.54804 0.51462 0.0
H2131 H 0.49308 0.57197 0.53813 0.0
H2132 H 0.47267 0.50203 0.51985 0.0
H2133 H 0.54815 0.51324 0.51366 0.0
H2134 H 0.53469 0.52179 0.53483 0.0
H2135 H 0.53449 0.53372 0.5108 0.0
C2136 C 0.48494 0.5344 0.56818 0.0
C2137 C 0.48557 0.55308 0.56248 0.0
C2138 C 0.49062 0.52071 0.55457 0.0
C2139 C 0.49718 0.52548 0.53514 0.0
C2140 C 0.49852 0.54411 0.52971 0.0
H2141 H 0.52685 0.46787 0.42432 0.0
H2142 H 0.51846 0.491 0.44996 0.0
C2143 C 0.4928 0.55778 0.54324 0.0
C2144 C 0.50094 0.51107 0.51979 0.0
H2145 H 0.53439 0.49396 0.48854 0.0
C2146 C 0.48619 0.50011 0.51312 0.0
C2147 C 0.51854 0.50881 0.51095 0.0
C2148 C 0.53494 0.5199 0.51801 0.0
C2149 C 0.4885 0.48715 0.49746 0.0
C2150 C 0.50611 0.48492 0.48856 0.0
C2151 C 0.52088 0.4958 0.49534 0.0
C2152 C 0.50965 0.47106 0.4725 0.0
C2153 C 0.472 0.47631 0.49022 0.0
C2154 C 0.5073 0.45225 0.47667 0.0
C2155 C 0.51201 0.43907 0.46208 0.0
C2156 C 0.5193 0.44446 0.44311 0.0
C2157 C 0.52128 0.46334 0.43881 0.0
C2158 C 0.51651 0.47653 0.45342 0.0
H2159 H 0.45885 0.48314 0.49452 0.0
H2160 H 0.47227 0.47448 0.4734 0.0
H2161 H 0.47219 0.46246 0.4974 0.0
H2162 H 0.50244 0.44774 0.49147 0.0
H2163 H 0.51077 0.42463 0.46605 0.0
H2164 H 0.04415 0.54841 0.4532 0.0
H2165 H 0.02294 0.53578 0.47835 0.0
H2166 H 0.02965 0.48161 0.45236 0.0
H2167 H 0.05075 0.49424 0.42661 0.0
H2168 H 0.98918 0.51498 0.47091 0.0
H2169 H 0.04241 0.47634 0.51473 0.0
H2170 H 0.04823 0.49473 0.4973 0.0
H2171 H 0.04162 0.47258 0.4876 0.0
C2172 C 0.04085 0.53387 0.45247 0.0
C2173 C 0.049 0.52235 0.43773 0.0
C2174 C 0.02886 0.52666 0.46701 0.0
C2175 C 0.02492 0.50779 0.46727 0.0
C2176 C 0.03277 0.49621 0.45249 0.0
H2177 H 0.95641 0.44301 0.54785 0.0
H2178 H 0.97928 0.45365 0.52328 0.0
C2179 C 0.04476 0.50343 0.43782 0.0
C2180 C 0.01253 0.50042 0.48315 0.0
H2181 H 0.01172 0.47424 0.5264 0.0
C2182 C 0.99406 0.50604 0.48304 0.0
C2183 C 0.01904 0.48879 0.49887 0.0
C2184 C 0.03893 0.48279 0.49985 0.0
C2185 C 0.9818 0.50024 0.49825 0.0
C2186 C 0.98837 0.4889 0.51424 0.0
C2187 C 0.00682 0.48308 0.5142 0.0
C2188 C 0.97609 0.4825 0.53077 0.0
C2189 C 0.96186 0.50604 0.49687 0.0
C2190 C 0.96727 0.49518 0.54366 0.0
C2191 C 0.95418 0.48915 0.55779 0.0
C2192 C 0.94986 0.47032 0.55935 0.0
C2193 C 0.95954 0.45759 0.54721 0.0
C2194 C 0.97255 0.46364 0.53305 0.0
H2195 H 0.95816 0.5107 0.48125 0.0
H2196 H 0.95255 0.49455 0.50124 0.0
H2197 H 0.95939 0.51769 0.5075 0.0
H2198 H 0.97017 0.50978 0.54242 0.0
H2199 H 0.94711 0.49924 0.56712 0.0
H2200 H 0.05724 0.95819 0.54559 0.0
H2201 H 0.0475 0.98036 0.51975 0.0
H2202 H 0.99116 0.97486 0.53978 0.0
H2203 H 0.0008 0.95259 0.56575 0.0
H2204 H 0.99652 0.96837 0.49808 0.0
H2205 H 0.0297 0.03395 0.52205 0.0
H2206 H 0.04484 0.01439 0.52075 0.0
H2207 H 0.02658 0.01476 0.53926 0.0
C2208 C 0.04285 0.96212 0.54494 0.0
C2209 C 0.02976 0.95365 0.55771 0.0
C2210 C 0.03732 0.97478 0.53013 0.0
C2211 C 0.01865 0.97932 0.52797 0.0
C2212 C 0.00565 0.97152 0.54126 0.0
H2213 H 0.94965 0.04203 0.44943 0.0
H2214 H 0.96357 0.02121 0.47409 0.0
C2215 C 0.01116 0.95881 0.55605 0.0
C2216 C 0.01241 0.99075 0.51063 0.0
H2217 H 0.01535 0.03365 0.48954 0.0
C2218 C 0.00061 0.98266 0.49622 0.0
C2219 C 0.01802 0.00927 0.50813 0.0
C2220 C 0.03037 0.0187 0.52343 0.0
C2221 C 0.99406 0.99268 0.47946 0.0
C2222 C -0.00071 0.01132 0.47723 0.0
C2223 C 0.01146 0.01931 0.49132 0.0
C2224 C 0.991 0.02313 0.46137 0.0
C2225 C 0.98157 0.98327 0.46428 0.0
C2226 C 0.00189 0.03119 0.44611 0.0
C2227 C 0.99392 0.04301 0.43173 0.0
C2228 C 0.97496 0.04703 0.43255 0.0
C2229 C 0.96417 0.03882 0.4479 0.0
C2230 C 0.97211 0.027 0.46213 0.0
H2231 H 0.98295 0.96803 0.46497 0.0
H2232 H 0.96704 0.98682 0.4678 0.0
H2233 H 0.98459 0.98791 0.44848 0.0
H2234 H 0.01655 0.0284 0.4454 0.0
H2235 H 0.00259 0.04911 0.42009 0.0
H2236 H 0.57218 0.00275 0.54567 0.0
H2237 H 0.5502 0.99091 0.52061 0.0
H2238 H 0.50637 0.02087 0.55016 0.0
H2239 H 0.52825 0.03272 0.5754 0.0
H2240 H 0.51572 0.97147 0.52347 0.0
H2241 H 0.50854 0.04202 0.49136 0.0
H2242 H 0.52676 0.0358 0.50881 0.0
H2243 H 0.50392 0.04016 0.51822 0.0
C2244 C 0.55777 0.0064 0.5472 0.0
C2245 C 0.55194 0.01879 0.56239 0.0
C2246 C 0.54528 -0.00028 0.53279 0.0
C2247 C 0.52682 0.00537 0.53333 0.0
C2248 C 0.52068 0.01669 0.54929 0.0
H2249 H 0.43199 0.99056 0.45684 0.0
H2250 H 0.45479 0.00042 0.48194 0.0
C2251 C 0.53316 0.0234 0.56369 0.0
C2252 C 0.51428 0.00041 0.51648 0.0
H2253 H 0.48913 0.01896 0.47755 0.0
C2254 C 0.50994 0.9818 0.51336 0.0
C2255 C 0.50693 0.01398 0.50328 0.0
C2256 C 0.51187 0.0341 0.5054 0.0
C2257 C 0.49796 0.97642 0.49765 0.0
C2258 C 0.49047 0.99002 0.48459 0.0
C2259 C 0.49495 0.00861 0.48761 0.0
C2260 C 0.4773 0.9853 0.46824 0.0
C2261 C 0.49301 0.95631 0.49548 0.0
C2262 C 0.48264 0.97411 0.45183 0.0
C2263 C 0.46967 0.96857 0.43732 0.0
C2264 C 0.45119 0.97423 0.43898 0.0
C2265 C 0.44615 0.98618 0.45493 0.0
C2266 C 0.45911 0.9917 0.46939 0.0
H2267 H 0.4968 0.94824 0.50927 0.0
H2268 H 0.47801 0.95464 0.49264 0.0
H2269 H 0.50052 0.95042 0.48226 0.0
H2270 H 0.49674 0.96937 0.45049 0.0
H2271 H 0.474 0.95954 0.42506 0.0
H2272 H 0.57157 0.31056 0.29373 0.0
H2273 H 0.56652 0.28689 0.26779 0.0
H2274 H 0.51931 0.26694 0.30118 0.0
H2275 H 0.52458 0.29037 0.32744 0.0
H2276 H 0.54133 0.23936 0.29074 0.0
H2277 H 0.52929 0.28284 0.22279 0.0
H2278 H 0.5506 0.28863 0.23505 0.0
H2279 H 0.52915 0.2921 0.24835 0.0
C2280 C 0.55992 0.30134 0.29532 0.0
C2281 C 0.54844 0.30229 0.31254 0.0
C2282 C 0.557 0.28786 0.28046 0.0
C2283 C 0.54235 0.27533 0.28236 0.0
C2284 C 0.53065 0.27651 0.29937 0.0
H2285 H 0.52037 0.20045 0.18076 0.0
H2286 H 0.51612 0.22314 0.20804 0.0
C2287 C 0.53368 0.28986 0.31435 0.0
C2288 C 0.54007 0.26023 0.26736 0.0
H2289 H 0.53781 0.25133 0.21633 0.0
C2290 C 0.54029 0.24197 0.27448 0.0
C2291 C 0.53838 0.26363 0.24619 0.0
C2292 C 0.53663 0.28287 0.23767 0.0
C2293 C 0.53967 0.22702 0.26093 0.0
C2294 C 0.53934 0.23045 0.23968 0.0
C2295 C 0.53831 0.24869 0.23262 0.0
C2296 C 0.54085 0.21544 0.22444 0.0
C2297 C 0.53936 0.20774 0.26956 0.0
C2298 C 0.55606 0.20347 0.22471 0.0
C2299 C 0.55839 0.19039 0.20929 0.0
C2300 C 0.54573 0.1893 0.19313 0.0
C2301 C 0.53035 0.20107 0.19304 0.0
C2302 C 0.52792 0.214 0.20859 0.0
H2303 H 0.5333 0.20753 0.28513 0.0
H2304 H 0.53137 0.19822 0.25968 0.0
H2305 H 0.55369 0.20252 0.27074 0.0
H2306 H 0.56651 0.20467 0.23644 0.0
H2307 H 0.57053 0.1817 0.20952 0.0
H2308 H 0.2089 0.58483 0.31407 0.0
H2309 H 0.23296 0.57806 0.28912 0.0
H2310 H 0.20783 0.52543 0.27656 0.0
H2311 H 0.18381 0.53191 0.30189 0.0
H2312 H 0.25721 0.545 0.29046 0.0
H2313 H 0.21529 0.5516 0.21954 0.0
H2314 H 0.20834 0.56202 0.24337 0.0
H2315 H 0.20623 0.53761 0.2399 0.0
C2316 C 0.2085 0.57178 0.30608 0.0
C2317 C 0.19449 0.55886 0.31004 0.0
C2318 C 0.22221 0.56797 0.29179 0.0
C2319 C 0.22209 0.55129 0.28104 0.0
C2320 C 0.208 0.53847 0.28461 0.0
H2321 H 0.29576 0.51957 0.18174 0.0
H2322 H 0.27224 0.51817 0.2085 0.0
C2323 C 0.19427 0.54223 0.299 0.0
C2324 C 0.23706 0.54728 0.26647 0.0
H2325 H 0.24672 0.54465 0.21565 0.0
C2326 C 0.25495 0.54478 0.2741 0.0
C2327 C 0.23394 0.54687 0.24521 0.0
C2328 C 0.21496 0.54975 0.23637 0.0
C2329 C 0.26995 0.54216 0.26093 0.0
C2330 C 0.26697 0.54249 0.2396 0.0
C2331 C 0.24896 0.54442 0.23202 0.0
C2332 C 0.28238 0.54203 0.22482 0.0
C2333 C 0.28881 0.53905 0.26999 0.0
C2334 C 0.29598 0.55579 0.22526 0.0
C2335 C 0.30944 0.55658 0.21007 0.0
C2336 C 0.30938 0.54376 0.194 0.0
C2337 C 0.29605 0.5297 0.19388 0.0
C2338 C 0.28265 0.52886 0.20915 0.0
H2339 H 0.28787 0.53318 0.28562 0.0
H2340 H 0.29717 0.52963 0.26036 0.0
H2341 H 0.29611 0.55245 0.27111 0.0
H2342 H 0.29575 0.56639 0.2369 0.0
H2343 H 0.31932 0.56776 0.21036 0.0
H2344 H 0.92805 0.31681 0.2038 0.0
H2345 H 0.92937 0.29311 0.23037 0.0
H2346 H 0.97089 0.26391 0.19619 0.0
H2347 H 0.96974 0.28764 0.16954 0.0
H2348 H 0.9234 0.25226 0.2177 0.0
H2349 H 0.98859 0.26778 0.25934 0.0
H2350 H 0.97557 0.28557 0.24648 0.0
H2351 H 0.98831 0.26907 0.23185 0.0
C2352 C 0.93779 0.30559 0.20218 0.0
C2353 C 0.94878 0.30404 0.18461 0.0
C2354 C 0.93845 0.29205 0.21729 0.0
C2355 C 0.95027 0.27689 0.21518 0.0
C2356 C 0.96179 0.27563 0.19808 0.0
H2357 H 0.96402 0.18157 0.29551 0.0
H2358 H 0.96794 0.20406 0.26792 0.0
C2359 C 0.96105 0.2891 0.18288 0.0
C2360 C 0.94928 0.26161 0.22994 0.0
H2361 H 0.97136 0.24215 0.27053 0.0
C2362 C 0.93388 0.24998 0.22924 0.0
C2363 C 0.96314 0.25862 0.24467 0.0
C2364 C 0.97987 0.2709 0.24583 0.0
C2365 C 0.93183 0.23546 0.24314 0.0
C2366 C 0.94534 0.23287 0.25845 0.0
C2367 C 0.961 0.24424 0.25881 0.0
C2368 C 0.94293 0.21906 0.27483 0.0
C2369 C 0.91529 0.22298 0.24121 0.0
C2370 C 0.92767 0.22016 0.28789 0.0
C2371 C 0.9253 0.20728 0.30344 0.0
C2372 C 0.93828 0.19316 0.30645 0.0
C2373 C 0.95366 0.19214 0.29342 0.0
C2374 C 0.95599 0.20504 0.27777 0.0
H2375 H 0.90966 0.22309 0.22544 0.0
H2376 H 0.91878 0.20857 0.2454 0.0
H2377 H 0.90427 0.22789 0.25162 0.0
H2378 H 0.91761 0.23108 0.28612 0.0
H2379 H 0.91319 0.20835 0.31304 0.0
H2380 H 0.29233 0.97137 0.32017 0.0
H2381 H 0.26804 0.97174 0.29413 0.0
H2382 H 0.28996 0.92177 0.2681 0.0
H2383 H 0.31401 0.92108 0.29419 0.0
H2384 H 0.27094 0.97013 0.24885 0.0
H2385 H 0.23495 0.91039 0.28387 0.0
H2386 H 0.25167 0.92408 0.29756 0.0
H2387 H 0.25917 0.90714 0.27937 0.0
C2388 C 0.29201 0.96052 0.30883 0.0
C2389 C 0.30501 0.94614 0.30928 0.0
C2390 C 0.2782 0.9608 0.29396 0.0
C2391 C 0.27713 0.94664 0.27946 0.0
C2392 C 0.2905 0.9327 0.27935 0.0
H2393 H 0.20872 0.90982 0.18219 0.0
H2394 H 0.23109 0.91465 0.20949 0.0
C2395 C 0.30432 0.93243 0.29414 0.0
C2396 C 0.26167 0.94596 0.26486 0.0
H2397 H 0.22465 0.91981 0.25111 0.0
C2398 C 0.26068 0.95927 0.24939 0.0
C2399 C 0.24833 0.9318 0.26579 0.0
C2400 C 0.24841 0.9176 0.28263 0.0
C2401 C 0.24707 0.9583 0.2342 0.0
C2402 C 0.23401 0.94383 0.23483 0.0
C2403 C 0.23472 0.93086 0.25068 0.0
C2404 C 0.22019 0.94117 0.21853 0.0
C2405 C 0.24722 0.97229 0.21716 0.0
C2406 C 0.20647 0.95438 0.21481 0.0
C2407 C 0.19371 0.95172 0.19909 0.0
C2408 C 0.19447 0.93577 0.18691 0.0
C2409 C 0.20798 0.9224 0.19105 0.0
C2410 C 0.2207 0.92508 0.20672 0.0
H2411 H 0.26036 0.98014 0.21663 0.0
H2412 H 0.24508 0.96548 0.20217 0.0
H2413 H 0.23581 0.98225 0.21951 0.0
H2414 H 0.20567 0.96675 0.22403 0.0
H2415 H 0.18351 0.9623 0.1962 0.0
H2416 H 0.40487 0.79691 0.80908 0.0
H2417 H 0.40546 0.77284 0.78303 0.0
H2418 H 0.46332 0.78289 0.77296 0.0
H2419 H 0.46285 0.80714 0.79897 0.0
H2420 H 0.4156 0.77503 0.74158 0.0
H2421 H 0.46088 0.72721 0.78503 0.0
H2422 H 0.44958 0.74667 0.7968 0.0
H2423 H 0.4698 0.75008 0.78145 0.0
C2424 C 0.41768 0.7942 0.80113 0.0
C2425 C 0.43383 0.80391 0.8061 0.0
C2426 C 0.41801 0.78036 0.78636 0.0
C2427 C 0.43449 0.77592 0.77636 0.0
C2428 C 0.45055 0.78587 0.78086 0.0
H2429 H 0.45842 0.6941 0.68292 0.0
H2430 H 0.4607 0.71833 0.70881 0.0
C2431 C 0.45025 0.79972 0.79567 0.0
C2432 C 0.43473 0.76086 0.76118 0.0
H2433 H 0.45236 0.71807 0.7517 0.0
C2434 C 0.42363 0.76258 0.74376 0.0
C2435 C 0.44528 0.74467 0.76412 0.0
C2436 C 0.45696 0.74189 0.78293 0.0
C2437 C 0.4228 0.74851 0.72913 0.0
C2438 C 0.43311 0.73221 0.73223 0.0
C2439 C 0.44444 0.73059 0.74947 0.0
C2440 C 0.43207 0.71663 0.71778 0.0
C2441 C 0.41104 0.75129 0.71038 0.0
C2442 C 0.41536 0.7073 0.71481 0.0
C2443 C 0.41403 0.69341 0.70016 0.0
C2444 C 0.42943 0.68857 0.68828 0.0
C2445 C 0.44636 0.69741 0.69194 0.0
C2446 C 0.44767 0.71132 0.70662 0.0
H2447 H 0.40777 0.76607 0.70784 0.0
H2448 H 0.41803 0.74581 0.69657 0.0
H2449 H 0.39785 0.74375 0.71231 0.0
H2450 H 0.40328 0.71096 0.72363 0.0
H2451 H 0.40089 0.68663 0.69792 0.0
H2452 H 0.80715 0.46685 0.68226 0.0
H2453 H 0.78557 0.47248 0.7103 0.0
H2454 H 0.78402 0.41422 0.72324 0.0
H2455 H 0.80606 0.40855 0.69582 0.0
H2456 H 0.75028 0.45914 0.71372 0.0
H2457 H 0.79248 0.43627 0.77937 0.0
H2458 H 0.8023 0.44093 0.75459 0.0
H2459 H 0.7913 0.41916 0.75965 0.0
C2460 C 0.80254 0.45529 0.69139 0.0
C2461 C 0.80834 0.43725 0.68686 0.0
C2462 C 0.7901 0.45852 0.70727 0.0
C2463 C 0.78338 0.4438 0.71897 0.0
C2464 C 0.78931 0.42582 0.71464 0.0
H2465 H 0.68383 0.42974 0.78724 0.0
H2466 H 0.70722 0.43307 0.76057 0.0
C2467 C 0.80175 0.42258 0.69882 0.0
C2468 C 0.76939 0.44698 0.735 0.0
H2469 H 0.75988 0.43819 0.78499 0.0
C2470 C 0.75243 0.4548 0.72939 0.0
C2471 C 0.77235 0.44157 0.75546 0.0
C2472 C 0.79067 0.43419 0.76269 0.0
C2473 C 0.73804 0.45662 0.74354 0.0
C2474 C 0.74062 0.45011 0.76368 0.0
C2475 C 0.75785 0.44301 0.76948 0.0
C2476 C 0.72555 0.44985 0.7789 0.0
C2477 C 0.72025 0.46548 0.73678 0.0
C2478 C 0.72812 0.45809 0.79805 0.0
C2479 C 0.71491 0.456 0.81334 0.0
C2480 C 0.69887 0.44565 0.80972 0.0
C2481 C 0.69597 0.43797 0.79032 0.0
C2482 C 0.70928 0.43993 0.77507 0.0
H2483 H 0.72248 0.47484 0.72359 0.0
H2484 H 0.71047 0.45458 0.73189 0.0
H2485 H 0.7138 0.47344 0.74937 0.0
H2486 H 0.74058 0.46578 0.80133 0.0
H2487 H 0.71738 0.4622 0.82813 0.0
H2488 H 0.06921 0.81922 0.70751 0.0
H2489 H 0.06726 0.79497 0.73345 0.0
H2490 H 0.02877 0.76506 0.69579 0.0
H2491 H 0.03059 0.78925 0.66984 0.0
H2492 H 0.0364 0.77814 0.75489 0.0
H2493 H 0.07333 0.72972 0.70322 0.0
H2494 H 0.07269 0.75426 0.69878 0.0
H2495 H 0.05296 0.7403 0.6929 0.0
C2496 C 0.06003 0.80768 0.70497 0.0
C2497 C 0.05023 0.80598 0.68657 0.0
C2498 C 0.05899 0.79382 0.71974 0.0
C2499 C 0.04814 0.77812 0.71628 0.0
C2500 C 0.03748 0.77693 0.6985 0.0
H2501 H 0.0448 0.67377 0.78292 0.0
H2502 H 0.03852 0.69859 0.75846 0.0
C2503 C 0.03855 0.79073 0.68373 0.0
C2504 C 0.04891 0.76249 0.73068 0.0
H2505 H 0.06408 0.71816 0.73518 0.0
C2506 C 0.04237 0.76499 0.75061 0.0
C2507 C 0.05669 0.74538 0.72493 0.0
C2508 C 0.06447 0.7422 0.70386 0.0
C2509 C 0.04345 0.75076 0.76506 0.0
C2510 C 0.05161 0.73379 0.75944 0.0
C2511 C 0.05779 0.73118 0.73938 0.0
C2512 C 0.05488 0.71893 0.77444 0.0
C2513 C 0.03579 0.75399 0.78616 0.0
C2514 C 0.06637 0.72213 0.79125 0.0
C2515 C 0.06993 0.70807 0.80519 0.0
C2516 C 0.06221 0.69046 0.80249 0.0
C2517 C 0.05082 0.68723 0.78549 0.0
C2518 C 0.04726 0.70135 0.77151 0.0
H2519 H 0.02533 0.76517 0.7862 0.0
H2520 H 0.02942 0.74126 0.79239 0.0
H2521 H 0.04716 0.75818 0.7965 0.0
H2522 H 0.07269 0.73549 0.79354 0.0
H2523 H 0.07853 0.7111 0.81828 0.0
H2524 H 0.71937 0.06125 0.66604 0.0
H2525 H 0.74269 0.05756 0.69259 0.0
H2526 H 0.70036 0.04324 0.73599 0.0
H2527 H 0.67687 0.04695 0.70943 0.0
H2528 H 0.72371 0.06966 0.75028 0.0
H2529 H 0.76382 0.01135 0.71866 0.0
H2530 H 0.7611 0.02987 0.70076 0.0
H2531 H 0.74116 0.01737 0.70943 0.0
C2532 C 0.71506 0.05696 0.68114 0.0
C2533 C 0.69631 0.05428 0.68564 0.0
C2534 C 0.7284 0.05482 0.69628 0.0
C2535 C 0.72328 0.04979 0.71615 0.0
C2536 C 0.70459 0.047 0.72069 0.0
H2537 H 0.80272 0.0255 0.81287 0.0
H2538 H 0.77814 0.02301 0.78737 0.0
C2539 C 0.6912 0.04921 0.70556 0.0
C2540 C 0.73734 0.04876 0.73246 0.0
H2541 H 0.77848 0.02897 0.74507 0.0
C2542 C 0.73558 0.06062 0.74926 0.0
C2543 C 0.75269 0.03679 0.73121 0.0
C2544 C 0.75474 0.02299 0.71415 0.0
C2545 C 0.74912 0.06131 0.76449 0.0
C2546 C 0.76498 0.05011 0.76263 0.0
C2547 C 0.76641 0.03774 0.74626 0.0
C2548 C 0.78034 0.05134 0.77737 0.0
C2549 C 0.74631 0.07404 0.78245 0.0
C2550 C 0.78997 0.06795 0.77977 0.0
C2551 C 0.80389 0.06946 0.79436 0.0
C2552 C 0.80855 0.0543 0.8067 0.0
C2553 C 0.79928 0.03748 0.80377 0.0
C2554 C 0.78532 0.036 0.78917 0.0
H2555 H 0.73153 0.07759 0.78454 0.0
H2556 H 0.75153 0.06774 0.79677 0.0
H2557 H 0.75398 0.08704 0.77976 0.0
H2558 H 0.78654 0.07985 0.77053 0.0
H2559 H 0.8106 0.08266 0.79638 0.0
loop_
_geom_bond_atom_site_label_1
_geom_bond_atom_site_label_2
_geom_bond_distance
_geom_bond_site_symmetry_2
_ccdc_geom_bond_type
Li0 N17 1.990 . S
Li0 O60 1.956 . S
Li0 O61 1.970 . S
Li0 O62 1.961 . S
Li1 N25 1.990 . S
Li1 O60 1.970 . S
Li1 O61 1.956 . S
Li1 O63 1.961 . S
Li2 N47 1.990 . S
Li2 O60 1.961 . S
Li2 O62 1.956 . S
Li2 O63 1.970 . S
Li3 N53 1.990 . S
Li3 O61 1.961 . S
Li3 O62 1.970 . S
Li3 O63 1.956 . S
C4 C6 1.348 . S
C4 C7 1.356 . S
C4 O60 1.325 . S
N5 C8 1.314 . S
N5 C9 1.279 . S
C6 C4 1.348 . S
C6 C8 1.353 . S
C6 H64 0.929 . S
C7 C4 1.356 . S
C7 C9 1.358 . S
C7 H65 0.930 . S
C8 N5 1.314 . S
C8 C6 1.353 . S
C8 H66 0.930 . S
C9 N5 1.279 . S
C9 C7 1.358 . S
C9 H67 0.930 . S
C10 C13 1.348 . S
C10 C14 1.356 . S
C10 O61 1.325 . S
C11 N12 1.279 . S
C11 C14 1.358 . S
C11 H68 0.930 . S
N12 C11 1.279 . S
N12 C15 1.314 . S
C13 C10 1.348 . S
C13 C15 1.353 . S
C13 H69 0.929 . S
C14 C10 1.356 . S
C14 C11 1.358 . S
C14 H70 0.930 . S
C15 N12 1.314 . S
C15 C13 1.353 . S
C15 H71 0.930 . S
C16 N17 1.314 . S
C16 C21 1.353 . S
C16 H22 0.930 . S
N17 Li0 1.990 . S
N17 C16 1.314 . S
N17 C19 1.279 . S
C18 C19 1.358 . S
C18 C20 1.356 . S
C18 H72 0.930 . S
C19 N17 1.279 . S
C19 C18 1.358 . S
C19 H23 0.930 . S
C20 C18 1.356 . S
C20 C21 1.348 . S
C21 C16 1.353 . S
C21 C20 1.348 . S
C21 H73 0.929 . S
H22 C16 0.930 . S
H23 C19 0.930 . S
C24 N25 1.314 . S
C24 C26 1.353 . S
C24 H30 0.930 . S
N25 Li1 1.990 . S
N25 C24 1.314 . S
N25 C28 1.279 . S
C26 C24 1.353 . S
C26 C29 1.348 . S
C26 H74 0.929 . S
C27 C28 1.358 . S
C27 C29 1.356 . S
C27 H75 0.930 . S
C28 N25 1.279 . S
C28 C27 1.358 . S
C28 H31 0.930 . S
C29 C26 1.348 . S
C29 C27 1.356 . S
H30 C24 0.930 . S
H31 C28 0.930 . S
C32 C34 1.348 . S
C32 C35 1.356 . S
C32 O62 1.325 . S
N33 C36 1.314 . S
N33 C37 1.279 . S
C34 C32 1.348 . S
C34 C36 1.353 . S
C34 H76 0.929 . S
C35 C32 1.356 . S
C35 C37 1.358 . S
C35 H77 0.930 . S
C36 N33 1.314 . S
C36 C34 1.353 . S
C36 H78 0.930 . S
C37 N33 1.279 . S
C37 C35 1.358 . S
C37 H79 0.930 . S
C38 C39 1.348 . S
C38 C40 1.356 . S
C38 O63 1.325 . S
C39 C38 1.348 . S
C39 C41 1.353 . S
C39 H80 0.929 . S
C40 C38 1.356 . S
C40 C42 1.358 . S
C40 H81 0.930 . S
C41 C39 1.353 . S
C41 N43 1.314 1_554 S
C41 H82 0.930 1_554 S
C42 C40 1.358 . S
C42 N43 1.279 1_554 S
C42 H83 0.930 1_554 S
N43 C41 1.314 1_556 S
N43 C42 1.279 1_556 S
C44 C46 1.353 . S
C44 N47 1.314 . S
C44 H50 0.930 . S
C45 N47 1.279 . S
C45 C48 1.358 . S
C45 H51 0.930 . S
C46 C44 1.353 . S
C46 C49 1.348 . S
C46 H84 0.929 . S
N47 Li2 1.990 . S
N47 C44 1.314 . S
N47 C45 1.279 . S
C48 C45 1.358 . S
C48 C49 1.356 . S
C48 H85 0.930 . S
C49 C46 1.348 . S
C49 C48 1.356 . S
H50 C44 0.930 . S
H51 C45 0.930 . S
C52 N53 1.314 . S
C52 C54 1.353 . S
C52 H58 0.930 . S
N53 Li3 1.990 . S
N53 C52 1.314 . S
N53 C56 1.279 . S
C54 C52 1.353 . S
C54 C57 1.348 . S
C54 H86 0.929 . S
C55 C56 1.358 . S
C55 C57 1.356 . S
C55 H87 0.930 . S
C56 N53 1.279 . S
C56 C55 1.358 . S
C56 H59 0.930 . S
C57 C54 1.348 . S
C57 C55 1.356 . S
H58 C52 0.930 . S
H59 C56 0.930 . S
O60 Li0 1.956 . S
O60 Li1 1.970 . S
O60 Li2 1.961 . S
O60 C4 1.325 . S
O61 Li0 1.970 . S
O61 Li1 1.956 . S
O61 Li3 1.961 . S
O61 C10 1.325 . S
O62 Li0 1.961 . S
O62 Li2 1.956 . S
O62 Li3 1.970 . S
O62 C32 1.325 . S
O63 Li1 1.961 . S
O63 Li2 1.970 . S
O63 Li3 1.956 . S
O63 C38 1.325 . S
H64 C6 0.929 . S
H65 C7 0.930 . S
H66 C8 0.930 . S
H67 C9 0.930 . S
H68 C11 0.930 . S
H69 C13 0.929 . S
H70 C14 0.930 . S
H71 C15 0.930 . S
H72 C18 0.930 . S
H73 C21 0.929 . S
H74 C26 0.929 . S
H75 C27 0.930 . S
H76 C34 0.929 . S
H77 C35 0.930 . S
H78 C36 0.930 . S
H79 C37 0.930 . S
H80 C39 0.929 . S
H81 C40 0.930 . S
H82 C41 0.930 1_556 S
H83 C42 0.930 1_556 S
H84 C46 0.929 . S
H85 C48 0.930 . S
H86 C54 0.929 . S
H87 C55 0.930 . S
Li88 N105 1.990 . S
Li88 O148 1.956 . S
Li88 O149 1.970 . S
Li88 O150 1.961 . S
Li89 N113 1.990 . S
Li89 O148 1.970 . S
Li89 O149 1.956 . S
Li89 O151 1.961 . S
Li90 N135 1.990 . S
Li90 O148 1.961 . S
Li90 O150 1.956 . S
Li90 O151 1.970 . S
Li91 N141 1.990 . S
Li91 O149 1.961 . S
Li91 O150 1.970 . S
Li91 O151 1.956 . S
C92 C94 1.348 . S
C92 C95 1.356 . S
C92 O148 1.325 . S
N93 C96 1.314 . S
N93 C97 1.279 . S
C94 C92 1.348 . S
C94 C96 1.353 . S
C94 H152 0.929 . S
C95 C92 1.356 . S
C95 C97 1.358 . S
C95 H153 0.930 . S
C96 N93 1.314 . S
C96 C94 1.353 . S
C96 H154 0.930 . S
C97 N93 1.279 . S
C97 C95 1.358 . S
C97 H155 0.930 . S
C98 C101 1.348 . S
C98 C102 1.356 . S
C98 O149 1.325 . S
C99 N100 1.279 . S
C99 C102 1.358 . S
C99 H156 0.930 . S
N100 C99 1.279 . S
N100 C103 1.314 . S
C101 C98 1.348 . S
C101 C103 1.353 . S
C101 H157 0.929 . S
C102 C98 1.356 . S
C102 C99 1.358 . S
C102 H158 0.930 . S
C103 N100 1.314 . S
C103 C101 1.353 . S
C103 H159 0.930 . S
C104 N105 1.314 . S
C104 C109 1.353 . S
C104 H110 0.930 . S
N105 Li88 1.990 . S
N105 C104 1.314 . S
N105 C107 1.279 . S
C106 C107 1.358 . S
C106 C108 1.356 . S
C106 H160 0.930 . S
C107 N105 1.279 . S
C107 C106 1.358 . S
C107 H111 0.930 . S
C108 C106 1.356 . S
C108 C109 1.348 . S
C109 C104 1.353 . S
C109 C108 1.348 . S
C109 H161 0.929 . S
H110 C104 0.930 . S
H111 C107 0.930 . S
C112 N113 1.314 . S
C112 C114 1.353 . S
C112 H118 0.930 . S
N113 Li89 1.990 . S
N113 C112 1.314 . S
N113 C116 1.279 . S
C114 C112 1.353 . S
C114 C117 1.348 . S
C114 H162 0.929 . S
C115 C116 1.358 . S
C115 C117 1.356 . S
C115 H163 0.930 . S
C116 N113 1.279 . S
C116 C115 1.358 . S
C116 H119 0.930 . S
C117 C114 1.348 . S
C117 C115 1.356 . S
H118 C112 0.930 . S
H119 C116 0.930 . S
C120 C122 1.348 . S
C120 C123 1.356 . S
C120 O150 1.325 . S
N121 C124 1.314 . S
N121 C125 1.279 . S
C122 C120 1.348 . S
C122 C124 1.353 . S
C122 H164 0.929 . S
C123 C120 1.356 . S
C123 C125 1.358 . S
C123 H165 0.930 . S
C124 N121 1.314 . S
C124 C122 1.353 . S
C124 H166 0.930 . S
C125 N121 1.279 . S
C125 C123 1.358 . S
C125 H167 0.930 . S
C126 C127 1.348 . S
C126 C128 1.356 . S
C126 O151 1.325 . S
C127 C126 1.348 . S
C127 C129 1.353 . S
C127 H168 0.929 . S
C128 C126 1.356 . S
C128 C130 1.358 . S
C128 H169 0.930 . S
C129 C127 1.353 . S
C129 N131 1.314 1_554 S
C129 H170 0.930 1_554 S
C130 C128 1.358 . S
C130 N131 1.279 1_554 S
C130 H171 0.930 1_554 S
N131 C129 1.314 1_556 S
N131 C130 1.279 1_556 S
C132 C134 1.353 . S
C132 N135 1.314 . S
C132 H138 0.930 . S
C133 N135 1.279 . S
C133 C136 1.358 . S
C133 H139 0.930 . S
C134 C132 1.353 . S
C134 C137 1.348 . S
C134 H172 0.929 . S
N135 Li90 1.990 . S
N135 C132 1.314 . S
N135 C133 1.279 . S
C136 C133 1.358 . S
C136 C137 1.356 . S
C136 H173 0.930 . S
C137 C134 1.348 . S
C137 C136 1.356 . S
H138 C132 0.930 . S
H139 C133 0.930 . S
C140 N141 1.314 . S
C140 C142 1.353 . S
C140 H146 0.930 . S
N141 Li91 1.990 . S
N141 C140 1.314 . S
N141 C144 1.279 . S
C142 C140 1.353 . S
C142 C145 1.348 . S
C142 H174 0.929 . S
C143 C144 1.358 . S
C143 C145 1.356 . S
C143 H175 0.930 . S
C144 N141 1.279 . S
C144 C143 1.358 . S
C144 H147 0.930 . S
C145 C142 1.348 . S
C145 C143 1.356 . S
H146 C140 0.930 . S
H147 C144 0.930 . S
O148 Li88 1.956 . S
O148 Li89 1.970 . S
O148 Li90 1.961 . S
O148 C92 1.325 . S
O149 Li88 1.970 . S
O149 Li89 1.956 . S
O149 Li91 1.961 . S
O149 C98 1.325 . S
O150 Li88 1.961 . S
O150 Li90 1.956 . S
O150 Li91 1.970 . S
O150 C120 1.325 . S
O151 Li89 1.961 . S
O151 Li90 1.970 . S
O151 Li91 1.956 . S
O151 C126 1.325 . S
H152 C94 0.929 . S
H153 C95 0.930 . S
H154 C96 0.930 . S
H155 C97 0.930 . S
H156 C99 0.930 . S
H157 C101 0.929 . S
H158 C102 0.930 . S
H159 C103 0.930 . S
H160 C106 0.930 . S
H161 C109 0.929 . S
H162 C114 0.929 . S
H163 C115 0.930 . S
H164 C122 0.929 . S
H165 C123 0.930 . S
H166 C124 0.930 . S
H167 C125 0.930 . S
H168 C127 0.929 . S
H169 C128 0.930 . S
H170 C129 0.930 1_556 S
H171 C130 0.930 1_556 S
H172 C134 0.929 . S
H173 C136 0.930 . S
H174 C142 0.929 . S
H175 C143 0.930 . S
Li176 N193 1.990 . S
Li176 O236 1.956 . S
Li176 O237 1.970 . S
Li176 O238 1.961 . S
Li177 N201 1.990 . S
Li177 O236 1.970 . S
Li177 O237 1.956 . S
Li177 O239 1.961 . S
Li178 N223 1.990 . S
Li178 O236 1.961 . S
Li178 O238 1.956 . S
Li178 O239 1.970 . S
Li179 N229 1.990 . S
Li179 O237 1.961 . S
Li179 O238 1.970 . S
Li179 O239 1.956 . S
C180 C182 1.348 . S
C180 C183 1.356 . S
C180 O236 1.325 . S
N181 C184 1.314 . S
N181 C185 1.279 . S
C182 C180 1.348 . S
C182 C184 1.353 . S
C182 H240 0.929 . S
C183 C180 1.356 . S
C183 C185 1.358 . S
C183 H241 0.930 . S
C184 N181 1.314 . S
C184 C182 1.353 . S
C184 H242 0.930 . S
C185 N181 1.279 . S
C185 C183 1.358 . S
C185 H243 0.930 . S
C186 C189 1.348 . S
C186 C190 1.356 . S
C186 O237 1.325 . S
C187 N188 1.279 . S
C187 C190 1.358 . S
C187 H244 0.930 . S
N188 C187 1.279 . S
N188 C191 1.314 . S
C189 C186 1.348 . S
C189 C191 1.353 . S
C189 H245 0.929 . S
C190 C186 1.356 . S
C190 C187 1.358 . S
C190 H246 0.930 . S
C191 N188 1.314 . S
C191 C189 1.353 . S
C191 H247 0.930 . S
C192 N193 1.314 . S
C192 C197 1.353 . S
C192 H198 0.930 . S
N193 Li176 1.990 . S
N193 C192 1.314 . S
N193 C195 1.279 . S
C194 C195 1.358 . S
C194 C196 1.356 . S
C194 H248 0.930 . S
C195 N193 1.279 . S
C195 C194 1.358 . S
C195 H199 0.930 . S
C196 C194 1.356 . S
C196 C197 1.348 . S
C197 C192 1.353 . S
C197 C196 1.348 . S
C197 H249 0.929 . S
H198 C192 0.930 . S
H199 C195 0.930 . S
C200 N201 1.314 . S
C200 C202 1.353 . S
C200 H206 0.930 . S
N201 Li177 1.990 . S
N201 C200 1.314 . S
N201 C204 1.279 . S
C202 C200 1.353 . S
C202 C205 1.348 . S
C202 H250 0.929 . S
C203 C204 1.358 . S
C203 C205 1.356 . S
C203 H251 0.930 . S
C204 N201 1.279 . S
C204 C203 1.358 . S
C204 H207 0.930 . S
C205 C202 1.348 . S
C205 C203 1.356 . S
H206 C200 0.930 . S
H207 C204 0.930 . S
C208 C210 1.348 . S
C208 C211 1.356 . S
C208 O238 1.325 . S
N209 C212 1.314 1_556 S
N209 C213 1.279 1_556 S
C210 C208 1.348 . S
C210 C212 1.353 . S
C210 H252 0.929 . S
C211 C208 1.356 . S
C211 C213 1.358 . S
C211 H253 0.930 . S
C212 N209 1.314 1_554 S
C212 C210 1.353 . S
C212 H254 0.930 1_554 S
C213 N209 1.279 1_554 S
C213 C211 1.358 . S
C213 H255 0.930 1_554 S
C214 C215 1.348 . S
C214 C216 1.356 . S
C214 O239 1.325 . S
C215 C214 1.348 . S
C215 C217 1.353 . S
C215 H256 0.929 . S
C216 C214 1.356 . S
C216 C218 1.358 . S
C216 H257 0.930 . S
C217 C215 1.353 . S
C217 N219 1.314 . S
C217 H258 0.930 . S
C218 C216 1.358 . S
C218 N219 1.279 . S
C218 H259 0.930 . S
N219 C217 1.314 . S
N219 C218 1.279 . S
C220 C222 1.353 . S
C220 N223 1.314 . S
C220 H226 0.930 . S
C221 N223 1.279 . S
C221 C224 1.358 . S
C221 H227 0.930 . S
C222 C220 1.353 . S
C222 C225 1.348 . S
C222 H260 0.929 . S
N223 Li178 1.990 . S
N223 C220 1.314 . S
N223 C221 1.279 . S
C224 C221 1.358 . S
C224 C225 1.356 . S
C224 H261 0.930 . S
C225 C222 1.348 . S
C225 C224 1.356 . S
H226 C220 0.930 . S
H227 C221 0.930 . S
C228 N229 1.314 . S
C228 C230 1.353 . S
C228 H234 0.930 . S
N229 Li179 1.990 . S
N229 C228 1.314 . S
N229 C232 1.279 . S
C230 C228 1.353 . S
C230 C233 1.348 . S
C230 H262 0.929 . S
C231 C232 1.358 . S
C231 C233 1.356 . S
C231 H263 0.930 . S
C232 N229 1.279 . S
C232 C231 1.358 . S
C232 H235 0.930 . S
C233 C230 1.348 . S
C233 C231 1.356 . S
H234 C228 0.930 . S
H235 C232 0.930 . S
O236 Li176 1.956 . S
O236 Li177 1.970 . S
O236 Li178 1.961 . S
O236 C180 1.325 . S
O237 Li176 1.970 . S
O237 Li177 1.956 . S
O237 Li179 1.961 . S
O237 C186 1.325 . S
O238 Li176 1.961 . S
O238 Li178 1.956 . S
O238 Li179 1.970 . S
O238 C208 1.325 . S
O239 Li177 1.961 . S
O239 Li178 1.970 . S
O239 Li179 1.956 . S
O239 C214 1.325 . S
H240 C182 0.929 . S
H241 C183 0.930 . S
H242 C184 0.930 . S
H243 C185 0.930 . S
H244 C187 0.930 . S
H245 C189 0.929 . S
H246 C190 0.930 . S
H247 C191 0.930 . S
H248 C194 0.930 . S
H249 C197 0.929 . S
H250 C202 0.929 . S
H251 C203 0.930 . S
H252 C210 0.929 . S
H253 C211 0.930 . S
H254 C212 0.930 1_556 S
H255 C213 0.930 1_556 S
H256 C215 0.929 . S
H257 C216 0.930 . S
H258 C217 0.930 . S
H259 C218 0.930 . S
H260 C222 0.929 . S
H261 C224 0.930 . S
H262 C230 0.929 . S
H263 C231 0.930 . S
Li264 N281 1.990 . S
Li264 O324 1.956 . S
Li264 O325 1.970 . S
Li264 O326 1.961 . S
Li265 N289 1.990 . S
Li265 O324 1.970 . S
Li265 O325 1.956 . S
Li265 O327 1.961 . S
Li266 N311 1.990 . S
Li266 O324 1.961 . S
Li266 O326 1.956 . S
Li266 O327 1.970 . S
Li267 N317 1.990 . S
Li267 O325 1.961 . S
Li267 O326 1.970 . S
Li267 O327 1.956 . S
C268 C270 1.348 . S
C268 C271 1.356 . S
C268 O324 1.325 . S
N269 C272 1.314 . S
N269 C273 1.279 . S
C270 C268 1.348 . S
C270 C272 1.353 . S
C270 H328 0.929 . S
C271 C268 1.356 . S
C271 C273 1.358 . S
C271 H329 0.930 . S
C272 N269 1.314 . S
C272 C270 1.353 . S
C272 H330 0.930 . S
C273 N269 1.279 . S
C273 C271 1.358 . S
C273 H331 0.930 . S
C274 C277 1.348 . S
C274 C278 1.356 . S
C274 O325 1.325 . S
C275 N276 1.279 . S
C275 C278 1.358 . S
C275 H332 0.930 . S
N276 C275 1.279 . S
N276 C279 1.314 . S
C277 C274 1.348 . S
C277 C279 1.353 . S
C277 H333 0.929 . S
C278 C274 1.356 . S
C278 C275 1.358 . S
C278 H334 0.930 . S
C279 N276 1.314 . S
C279 C277 1.353 . S
C279 H335 0.930 . S
C280 N281 1.314 . S
C280 C285 1.353 . S
C280 H286 0.930 . S
N281 Li264 1.990 . S
N281 C280 1.314 . S
N281 C283 1.279 . S
C282 C283 1.358 . S
C282 C284 1.356 . S
C282 H336 0.930 . S
C283 N281 1.279 . S
C283 C282 1.358 . S
C283 H287 0.930 . S
C284 C282 1.356 . S
C284 C285 1.348 . S
C285 C280 1.353 . S
C285 C284 1.348 . S
C285 H337 0.929 . S
H286 C280 0.930 . S
H287 C283 0.930 . S
C288 N289 1.314 . S
C288 C290 1.353 . S
C288 H294 0.930 . S
N289 Li265 1.990 . S
N289 C288 1.314 . S
N289 C292 1.279 . S
C290 C288 1.353 . S
C290 C293 1.348 . S
C290 H338 0.929 . S
C291 C292 1.358 . S
C291 C293 1.356 . S
C291 H339 0.930 . S
C292 N289 1.279 . S
C292 C291 1.358 . S
C292 H295 0.930 . S
C293 C290 1.348 . S
C293 C291 1.356 . S
H294 C288 0.930 . S
H295 C292 0.930 . S
C296 C298 1.348 . S
C296 C299 1.356 . S
C296 O326 1.325 . S
N297 C300 1.314 1_556 S
N297 C301 1.279 1_556 S
C298 C296 1.348 . S
C298 C300 1.353 . S
C298 H340 0.929 . S
C299 C296 1.356 . S
C299 C301 1.358 . S
C299 H341 0.930 . S
C300 N297 1.314 1_554 S
C300 C298 1.353 . S
C300 H342 0.930 1_554 S
C301 N297 1.279 1_554 S
C301 C299 1.358 . S
C301 H343 0.930 1_554 S
C302 C303 1.348 . S
C302 C304 1.356 . S
C302 O327 1.325 . S
C303 C302 1.348 . S
C303 C305 1.353 . S
C303 H344 0.929 . S
C304 C302 1.356 . S
C304 C306 1.358 . S
C304 H345 0.930 . S
C305 C303 1.353 . S
C305 N307 1.314 . S
C305 H346 0.930 . S
C306 C304 1.358 . S
C306 N307 1.279 . S
C306 H347 0.930 . S
N307 C305 1.314 . S
N307 C306 1.279 . S
C308 C310 1.353 . S
C308 N311 1.314 . S
C308 H314 0.930 . S
C309 N311 1.279 . S
C309 C312 1.358 . S
C309 H315 0.930 . S
C310 C308 1.353 . S
C310 C313 1.348 . S
C310 H348 0.929 . S
N311 Li266 1.990 . S
N311 C308 1.314 . S
N311 C309 1.279 . S
C312 C309 1.358 . S
C312 C313 1.356 . S
C312 H349 0.930 . S
C313 C310 1.348 . S
C313 C312 1.356 . S
H314 C308 0.930 . S
H315 C309 0.930 . S
C316 N317 1.314 . S
C316 C318 1.353 . S
C316 H322 0.930 . S
N317 Li267 1.990 . S
N317 C316 1.314 . S
N317 C320 1.279 . S
C318 C316 1.353 . S
C318 C321 1.348 . S
C318 H350 0.929 . S
C319 C320 1.358 . S
C319 C321 1.356 . S
C319 H351 0.930 . S
C320 N317 1.279 . S
C320 C319 1.358 . S
C320 H323 0.930 . S
C321 C318 1.348 . S
C321 C319 1.356 . S
H322 C316 0.930 . S
H323 C320 0.930 . S
O324 Li264 1.956 . S
O324 Li265 1.970 . S
O324 Li266 1.961 . S
O324 C268 1.325 . S
O325 Li264 1.970 . S
O325 Li265 1.956 . S
O325 Li267 1.961 . S
O325 C274 1.325 . S
O326 Li264 1.961 . S
O326 Li266 1.956 . S
O326 Li267 1.970 . S
O326 C296 1.325 . S
O327 Li265 1.961 . S
O327 Li266 1.970 . S
O327 Li267 1.956 . S
O327 C302 1.325 . S
H328 C270 0.929 . S
H329 C271 0.930 . S
H330 C272 0.930 . S
H331 C273 0.930 . S
H332 C275 0.930 . S
H333 C277 0.929 . S
H334 C278 0.930 . S
H335 C279 0.930 . S
H336 C282 0.930 . S
H337 C285 0.929 . S
H338 C290 0.929 . S
H339 C291 0.930 . S
H340 C298 0.929 . S
H341 C299 0.930 . S
H342 C300 0.930 1_556 S
H343 C301 0.930 1_556 S
H344 C303 0.929 . S
H345 C304 0.930 . S
H346 C305 0.930 . S
H347 C306 0.930 . S
H348 C310 0.929 . S
H349 C312 0.930 . S
H350 C318 0.929 . S
H351 C319 0.930 . S
Li352 N369 1.990 . S
Li352 O412 1.956 . S
Li352 O413 1.970 . S
Li352 O414 1.961 . S
Li353 N377 1.990 . S
Li353 O412 1.970 . S
Li353 O413 1.956 . S
Li353 O415 1.961 . S
Li354 N399 1.990 . S
Li354 O412 1.961 . S
Li354 O414 1.956 . S
Li354 O415 1.970 . S
Li355 N405 1.990 . S
Li355 O413 1.961 . S
Li355 O414 1.970 . S
Li355 O415 1.956 . S
C356 C358 1.348 . S
C356 C359 1.356 . S
C356 O412 1.325 . S
N357 C360 1.314 . S
N357 C361 1.279 . S
C358 C356 1.348 . S
C358 C360 1.353 . S
C358 H416 0.929 . S
C359 C356 1.356 . S
C359 C361 1.358 . S
C359 H417 0.930 . S
C360 N357 1.314 . S
C360 C358 1.353 . S
C360 H418 0.930 . S
C361 N357 1.279 . S
C361 C359 1.358 . S
C361 H419 0.930 . S
C362 C365 1.348 . S
C362 C366 1.356 . S
C362 O413 1.325 . S
C363 N364 1.279 . S
C363 C366 1.358 . S
C363 H420 0.930 . S
N364 C363 1.279 . S
N364 C367 1.314 . S
C365 C362 1.348 . S
C365 C367 1.353 . S
C365 H421 0.929 . S
C366 C362 1.356 . S
C366 C363 1.358 . S
C366 H422 0.930 . S
C367 N364 1.314 . S
C367 C365 1.353 . S
C367 H423 0.930 . S
C368 N369 1.314 . S
C368 C373 1.353 . S
C368 H374 0.930 . S
N369 Li352 1.990 . S
N369 C368 1.314 . S
N369 C371 1.279 . S
C370 C371 1.358 . S
C370 C372 1.356 . S
C370 H424 0.930 . S
C371 N369 1.279 . S
C371 C370 1.358 . S
C371 H375 0.930 . S
C372 C370 1.356 . S
C372 C373 1.348 . S
C373 C368 1.353 . S
C373 C372 1.348 . S
C373 H425 0.929 . S
H374 C368 0.930 . S
H375 C371 0.930 . S
C376 N377 1.314 . S
C376 C378 1.353 . S
C376 H382 0.930 . S
N377 Li353 1.990 . S
N377 C376 1.314 . S
N377 C380 1.279 . S
C378 C376 1.353 . S
C378 C381 1.348 . S
C378 H426 0.929 . S
C379 C380 1.358 . S
C379 C381 1.356 . S
C379 H427 0.930 . S
C380 N377 1.279 . S
C380 C379 1.358 . S
C380 H383 0.930 . S
C381 C378 1.348 . S
C381 C379 1.356 . S
H382 C376 0.930 . S
H383 C380 0.930 . S
C384 C386 1.348 . S
C384 C387 1.356 . S
C384 O414 1.325 . S
N385 C388 1.314 . S
N385 C389 1.279 . S
C386 C384 1.348 . S
C386 C388 1.353 . S
C386 H428 0.929 . S
C387 C384 1.356 . S
C387 C389 1.358 . S
C387 H429 0.930 . S
C388 N385 1.314 . S
C388 C386 1.353 . S
C388 H430 0.930 . S
C389 N385 1.279 . S
C389 C387 1.358 . S
C389 H431 0.930 . S
C390 C391 1.348 . S
C390 C392 1.356 . S
C390 O415 1.325 . S
C391 C390 1.348 . S
C391 C393 1.353 . S
C391 H432 0.929 . S
C392 C390 1.356 . S
C392 C394 1.358 . S
C392 H433 0.930 . S
C393 C391 1.353 . S
C393 N395 1.314 . S
C393 H434 0.930 . S
C394 C392 1.358 . S
C394 N395 1.279 . S
C394 H435 0.930 . S
N395 C393 1.314 . S
N395 C394 1.279 . S
C396 C398 1.353 . S
C396 N399 1.314 . S
C396 H402 0.930 . S
C397 N399 1.279 . S
C397 C400 1.358 . S
C397 H403 0.930 . S
C398 C396 1.353 . S
C398 C401 1.348 . S
C398 H436 0.929 . S
N399 Li354 1.990 . S
N399 C396 1.314 . S
N399 C397 1.279 . S
C400 C397 1.358 . S
C400 C401 1.356 . S
C400 H437 0.930 . S
C401 C398 1.348 . S
C401 C400 1.356 . S
H402 C396 0.930 . S
H403 C397 0.930 . S
C404 N405 1.314 . S
C404 C406 1.353 . S
C404 H410 0.930 . S
N405 Li355 1.990 . S
N405 C404 1.314 . S
N405 C408 1.279 . S
C406 C404 1.353 . S
C406 C409 1.348 . S
C406 H438 0.929 . S
C407 C408 1.358 . S
C407 C409 1.356 . S
C407 H439 0.930 . S
C408 N405 1.279 . S
C408 C407 1.358 . S
C408 H411 0.930 . S
C409 C406 1.348 . S
C409 C407 1.356 . S
H410 C404 0.930 . S
H411 C408 0.930 . S
O412 Li352 1.956 . S
O412 Li353 1.970 . S
O412 Li354 1.961 . S
O412 C356 1.325 . S
O413 Li352 1.970 . S
O413 Li353 1.956 . S
O413 Li355 1.961 . S
O413 C362 1.325 . S
O414 Li352 1.961 . S
O414 Li354 1.956 . S
O414 Li355 1.970 . S
O414 C384 1.325 . S
O415 Li353 1.961 . S
O415 Li354 1.970 . S
O415 Li355 1.956 . S
O415 C390 1.325 . S
H416 C358 0.929 . S
H417 C359 0.930 . S
H418 C360 0.930 . S
H419 C361 0.930 . S
H420 C363 0.930 . S
H421 C365 0.929 . S
H422 C366 0.930 . S
H423 C367 0.930 . S
H424 C370 0.930 . S
H425 C373 0.929 . S
H426 C378 0.929 . S
H427 C379 0.930 . S
H428 C386 0.929 . S
H429 C387 0.930 . S
H430 C388 0.930 . S
H431 C389 0.930 . S
H432 C391 0.929 . S
H433 C392 0.930 . S
H434 C393 0.930 . S
H435 C394 0.930 . S
H436 C398 0.929 . S
H437 C400 0.930 . S
H438 C406 0.929 . S
H439 C407 0.930 . S
Li440 N457 1.990 . S
Li440 O500 1.956 . S
Li440 O501 1.970 . S
Li440 O502 1.961 . S
Li441 N465 1.990 . S
Li441 O500 1.970 . S
Li441 O501 1.956 . S
Li441 O503 1.961 . S
Li442 N487 1.990 . S
Li442 O500 1.961 . S
Li442 O502 1.956 . S
Li442 O503 1.970 . S
Li443 N493 1.990 . S
Li443 O501 1.961 . S
Li443 O502 1.970 . S
Li443 O503 1.956 . S
C444 C446 1.348 . S
C444 C447 1.356 . S
C444 O500 1.325 . S
N445 C448 1.314 . S
N445 C449 1.279 . S
C446 C444 1.348 . S
C446 C448 1.353 . S
C446 H504 0.929 . S
C447 C444 1.356 . S
C447 C449 1.358 . S
C447 H505 0.930 . S
C448 N445 1.314 . S
C448 C446 1.353 . S
C448 H506 0.930 . S
C449 N445 1.279 . S
C449 C447 1.358 . S
C449 H507 0.930 . S
C450 C453 1.348 . S
C450 C454 1.356 . S
C450 O501 1.325 . S
C451 N452 1.279 . S
C451 C454 1.358 . S
C451 H508 0.930 . S
N452 C451 1.279 . S
N452 C455 1.314 . S
C453 C450 1.348 . S
C453 C455 1.353 . S
C453 H509 0.929 . S
C454 C450 1.356 . S
C454 C451 1.358 . S
C454 H510 0.930 . S
C455 N452 1.314 . S
C455 C453 1.353 . S
C455 H511 0.930 . S
C456 N457 1.314 . S
C456 C461 1.353 . S
C456 H462 0.930 . S
N457 Li440 1.990 . S
N457 C456 1.314 . S
N457 C459 1.279 . S
C458 C459 1.358 . S
C458 C460 1.356 . S
C458 H512 0.930 . S
C459 N457 1.279 . S
C459 C458 1.358 . S
C459 H463 0.930 . S
C460 C458 1.356 . S
C460 C461 1.348 . S
C461 C456 1.353 . S
C461 C460 1.348 . S
C461 H513 0.929 . S
H462 C456 0.930 . S
H463 C459 0.930 . S
C464 N465 1.314 . S
C464 C466 1.353 . S
C464 H470 0.930 . S
N465 Li441 1.990 . S
N465 C464 1.314 . S
N465 C468 1.279 . S
C466 C464 1.353 . S
C466 C469 1.348 . S
C466 H514 0.929 . S
C467 C468 1.358 . S
C467 C469 1.356 . S
C467 H515 0.930 . S
C468 N465 1.279 . S
C468 C467 1.358 . S
C468 H471 0.930 . S
C469 C466 1.348 . S
C469 C467 1.356 . S
H470 C464 0.930 . S
H471 C468 0.930 . S
C472 C474 1.348 . S
C472 C475 1.356 . S
C472 O502 1.325 . S
N473 C476 1.314 . S
N473 C477 1.279 . S
C474 C472 1.348 . S
C474 C476 1.353 . S
C474 H516 0.929 . S
C475 C472 1.356 . S
C475 C477 1.358 . S
C475 H517 0.930 . S
C476 N473 1.314 . S
C476 C474 1.353 . S
C476 H518 0.930 . S
C477 N473 1.279 . S
C477 C475 1.358 . S
C477 H519 0.930 . S
C478 C479 1.348 . S
C478 C480 1.356 . S
C478 O503 1.325 . S
C479 C478 1.348 . S
C479 C481 1.353 . S
C479 H520 0.929 . S
C480 C478 1.356 . S
C480 C482 1.358 . S
C480 H521 0.930 . S
C481 C479 1.353 . S
C481 N483 1.314 . S
C481 H522 0.930 . S
C482 C480 1.358 . S
C482 N483 1.279 . S
C482 H523 0.930 . S
N483 C481 1.314 . S
N483 C482 1.279 . S
C484 C486 1.353 . S
C484 N487 1.314 . S
C484 H490 0.930 . S
C485 N487 1.279 . S
C485 C488 1.358 . S
C485 H491 0.930 . S
C486 C484 1.353 . S
C486 C489 1.348 . S
C486 H524 0.929 . S
N487 Li442 1.990 . S
N487 C484 1.314 . S
N487 C485 1.279 . S
C488 C485 1.358 . S
C488 C489 1.356 . S
C488 H525 0.930 . S
C489 C486 1.348 . S
C489 C488 1.356 . S
H490 C484 0.930 . S
H491 C485 0.930 . S
C492 N493 1.314 . S
C492 C494 1.353 . S
C492 H498 0.930 . S
N493 Li443 1.990 . S
N493 C492 1.314 . S
N493 C496 1.279 . S
C494 C492 1.353 . S
C494 C497 1.348 . S
C494 H526 0.929 . S
C495 C496 1.358 . S
C495 C497 1.356 . S
C495 H527 0.930 . S
C496 N493 1.279 . S
C496 C495 1.358 . S
C496 H499 0.930 . S
C497 C494 1.348 . S
C497 C495 1.356 . S
H498 C492 0.930 . S
H499 C496 0.930 . S
O500 Li440 1.956 . S
O500 Li441 1.970 . S
O500 Li442 1.961 . S
O500 C444 1.325 . S
O501 Li440 1.970 . S
O501 Li441 1.956 . S
O501 Li443 1.961 . S
O501 C450 1.325 . S
O502 Li440 1.961 . S
O502 Li442 1.956 . S
O502 Li443 1.970 . S
O502 C472 1.325 . S
O503 Li441 1.961 . S
O503 Li442 1.970 . S
O503 Li443 1.956 . S
O503 C478 1.325 . S
H504 C446 0.929 . S
H505 C447 0.930 . S
H506 C448 0.930 . S
H507 C449 0.930 . S
H508 C451 0.930 . S
H509 C453 0.929 . S
H510 C454 0.930 . S
H511 C455 0.930 . S
H512 C458 0.930 . S
H513 C461 0.929 . S
H514 C466 0.929 . S
H515 C467 0.930 . S
H516 C474 0.929 . S
H517 C475 0.930 . S
H518 C476 0.930 . S
H519 C477 0.930 . S
H520 C479 0.929 . S
H521 C480 0.930 . S
H522 C481 0.930 . S
H523 C482 0.930 . S
H524 C486 0.929 . S
H525 C488 0.930 . S
H526 C494 0.929 . S
H527 C495 0.930 . S
Li528 N545 1.990 . S
Li528 O588 1.956 . S
Li528 O589 1.970 . S
Li528 O590 1.961 . S
Li529 N553 1.990 . S
Li529 O588 1.970 . S
Li529 O589 1.956 . S
Li529 O591 1.961 . S
Li530 N575 1.990 . S
Li530 O588 1.961 . S
Li530 O590 1.956 . S
Li530 O591 1.970 . S
Li531 N581 1.990 . S
Li531 O589 1.961 . S
Li531 O590 1.970 . S
Li531 O591 1.956 . S
C532 C534 1.348 . S
C532 C535 1.356 . S
C532 O588 1.325 . S
N533 C536 1.314 . S
N533 C537 1.279 . S
C534 C532 1.348 . S
C534 C536 1.353 . S
C534 H592 0.929 . S
C535 C532 1.356 . S
C535 C537 1.358 . S
C535 H593 0.930 . S
C536 N533 1.314 . S
C536 C534 1.353 . S
C536 H594 0.930 . S
C537 N533 1.279 . S
C537 C535 1.358 . S
C537 H595 0.930 . S
C538 C541 1.348 . S
C538 C542 1.356 . S
C538 O589 1.325 . S
C539 N540 1.279 . S
C539 C542 1.358 . S
C539 H596 0.930 . S
N540 C539 1.279 . S
N540 C543 1.314 . S
C541 C538 1.348 . S
C541 C543 1.353 . S
C541 H597 0.929 . S
C542 C538 1.356 . S
C542 C539 1.358 . S
C542 H598 0.930 . S
C543 N540 1.314 . S
C543 C541 1.353 . S
C543 H599 0.930 . S
C544 N545 1.314 . S
C544 C549 1.353 . S
C544 H550 0.930 . S
N545 Li528 1.990 . S
N545 C544 1.314 . S
N545 C547 1.279 . S
C546 C547 1.358 . S
C546 C548 1.356 . S
C546 H600 0.930 . S
C547 N545 1.279 . S
C547 C546 1.358 . S
C547 H551 0.930 . S
C548 C546 1.356 . S
C548 C549 1.348 . S
C549 C544 1.353 . S
C549 C548 1.348 . S
C549 H601 0.929 . S
H550 C544 0.930 . S
H551 C547 0.930 . S
C552 N553 1.314 . S
C552 C554 1.353 . S
C552 H558 0.930 . S
N553 Li529 1.990 . S
N553 C552 1.314 . S
N553 C556 1.279 . S
C554 C552 1.353 . S
C554 C557 1.348 . S
C554 H602 0.929 . S
C555 C556 1.358 . S
C555 C557 1.356 . S
C555 H603 0.930 . S
C556 N553 1.279 . S
C556 C555 1.358 . S
C556 H559 0.930 . S
C557 C554 1.348 . S
C557 C555 1.356 . S
H558 C552 0.930 . S
H559 C556 0.930 . S
C560 C562 1.348 . S
C560 C563 1.356 . S
C560 O590 1.325 . S
N561 C564 1.314 . S
N561 C565 1.279 . S
C562 C560 1.348 . S
C562 C564 1.353 . S
C562 H604 0.929 . S
C563 C560 1.356 . S
C563 C565 1.358 . S
C563 H605 0.930 . S
C564 N561 1.314 . S
C564 C562 1.353 . S
C564 H606 0.930 . S
C565 N561 1.279 . S
C565 C563 1.358 . S
C565 H607 0.930 . S
C566 C567 1.348 . S
C566 C568 1.356 . S
C566 O591 1.325 . S
C567 C566 1.348 . S
C567 C569 1.353 . S
C567 H608 0.929 . S
C568 C566 1.356 . S
C568 C570 1.358 . S
C568 H609 0.930 . S
C569 C567 1.353 . S
C569 N571 1.314 . S
C569 H610 0.930 . S
C570 C568 1.358 . S
C570 N571 1.279 . S
C570 H611 0.930 . S
N571 C569 1.314 . S
N571 C570 1.279 . S
C572 C574 1.353 . S
C572 N575 1.314 . S
C572 H578 0.930 . S
C573 N575 1.279 . S
C573 C576 1.358 . S
C573 H579 0.930 . S
C574 C572 1.353 . S
C574 C577 1.348 . S
C574 H612 0.929 . S
N575 Li530 1.990 . S
N575 C572 1.314 . S
N575 C573 1.279 . S
C576 C573 1.358 . S
C576 C577 1.356 . S
C576 H613 0.930 . S
C577 C574 1.348 . S
C577 C576 1.356 . S
H578 C572 0.930 . S
H579 C573 0.930 . S
C580 N581 1.314 . S
C580 C582 1.353 . S
C580 H586 0.930 . S
N581 Li531 1.990 . S
N581 C580 1.314 . S
N581 C584 1.279 . S
C582 C580 1.353 . S
C582 C585 1.348 . S
C582 H614 0.929 . S
C583 C584 1.358 . S
C583 C585 1.356 . S
C583 H615 0.930 . S
C584 N581 1.279 . S
C584 C583 1.358 . S
C584 H587 0.930 . S
C585 C582 1.348 . S
C585 C583 1.356 . S
H586 C580 0.930 . S
H587 C584 0.930 . S
O588 Li528 1.956 . S
O588 Li529 1.970 . S
O588 Li530 1.961 . S
O588 C532 1.325 . S
O589 Li528 1.970 . S
O589 Li529 1.956 . S
O589 Li531 1.961 . S
O589 C538 1.325 . S
O590 Li528 1.961 . S
O590 Li530 1.956 . S
O590 Li531 1.970 . S
O590 C560 1.325 . S
O591 Li529 1.961 . S
O591 Li530 1.970 . S
O591 Li531 1.956 . S
O591 C566 1.325 . S
H592 C534 0.929 . S
H593 C535 0.930 . S
H594 C536 0.930 . S
H595 C537 0.930 . S
H596 C539 0.930 . S
H597 C541 0.929 . S
H598 C542 0.930 . S
H599 C543 0.930 . S
H600 C546 0.930 . S
H601 C549 0.929 . S
H602 C554 0.929 . S
H603 C555 0.930 . S
H604 C562 0.929 . S
H605 C563 0.930 . S
H606 C564 0.930 . S
H607 C565 0.930 . S
H608 C567 0.929 . S
H609 C568 0.930 . S
H610 C569 0.930 . S
H611 C570 0.930 . S
H612 C574 0.929 . S
H613 C576 0.930 . S
H614 C582 0.929 . S
H615 C583 0.930 . S
Li616 N633 1.990 . S
Li616 O676 1.956 . S
Li616 O677 1.970 . S
Li616 O678 1.961 . S
Li617 N641 1.990 . S
Li617 O676 1.970 . S
Li617 O677 1.956 . S
Li617 O679 1.961 . S
Li618 N663 1.990 . S
Li618 O676 1.961 . S
Li618 O678 1.956 . S
Li618 O679 1.970 . S
Li619 N669 1.990 . S
Li619 O677 1.961 . S
Li619 O678 1.970 . S
Li619 O679 1.956 . S
C620 C622 1.348 . S
C620 C623 1.356 . S
C620 O676 1.325 . S
N621 C624 1.314 . S
N621 C625 1.279 . S
C622 C620 1.348 . S
C622 C624 1.353 . S
C622 H680 0.929 . S
C623 C620 1.356 . S
C623 C625 1.358 . S
C623 H681 0.930 . S
C624 N621 1.314 . S
C624 C622 1.353 . S
C624 H682 0.930 . S
C625 N621 1.279 . S
C625 C623 1.358 . S
C625 H683 0.930 . S
C626 C629 1.348 . S
C626 C630 1.356 . S
C626 O677 1.325 . S
C627 N628 1.279 . S
C627 C630 1.358 . S
C627 H684 0.930 . S
N628 C627 1.279 . S
N628 C631 1.314 . S
C629 C626 1.348 . S
C629 C631 1.353 . S
C629 H685 0.929 . S
C630 C626 1.356 . S
C630 C627 1.358 . S
C630 H686 0.930 . S
C631 N628 1.314 . S
C631 C629 1.353 . S
C631 H687 0.930 . S
C632 N633 1.314 . S
C632 C637 1.353 . S
C632 H638 0.930 . S
N633 Li616 1.990 . S
N633 C632 1.314 . S
N633 C635 1.279 . S
C634 C635 1.358 . S
C634 C636 1.356 . S
C634 H688 0.930 . S
C635 N633 1.279 . S
C635 C634 1.358 . S
C635 H639 0.930 . S
C636 C634 1.356 . S
C636 C637 1.348 . S
C637 C632 1.353 . S
C637 C636 1.348 . S
C637 H689 0.929 . S
H638 C632 0.930 . S
H639 C635 0.930 . S
C640 N641 1.314 . S
C640 C642 1.353 . S
C640 H646 0.930 . S
N641 Li617 1.990 . S
N641 C640 1.314 . S
N641 C644 1.279 . S
C642 C640 1.353 . S
C642 C645 1.348 . S
C642 H690 0.929 . S
C643 C644 1.358 . S
C643 C645 1.356 . S
C643 H691 0.930 . S
C644 N641 1.279 . S
C644 C643 1.358 . S
C644 H647 0.930 . S
C645 C642 1.348 . S
C645 C643 1.356 . S
H646 C640 0.930 . S
H647 C644 0.930 . S
C648 C650 1.348 . S
C648 C651 1.356 . S
C648 O678 1.325 . S
N649 C652 1.314 . S
N649 C653 1.279 . S
C650 C648 1.348 . S
C650 C652 1.353 . S
C650 H692 0.929 . S
C651 C648 1.356 . S
C651 C653 1.358 . S
C651 H693 0.930 . S
C652 N649 1.314 . S
C652 C650 1.353 . S
C652 H694 0.930 . S
C653 N649 1.279 . S
C653 C651 1.358 . S
C653 H695 0.930 . S
C654 C655 1.348 . S
C654 C656 1.356 . S
C654 O679 1.325 . S
C655 C654 1.348 . S
C655 C657 1.353 . S
C655 H696 0.929 . S
C656 C654 1.356 . S
C656 C658 1.358 . S
C656 H697 0.930 . S
C657 C655 1.353 . S
C657 N659 1.314 . S
C657 H698 0.930 . S
C658 C656 1.358 . S
C658 N659 1.279 . S
C658 H699 0.930 . S
N659 C657 1.314 . S
N659 C658 1.279 . S
C660 C662 1.353 . S
C660 N663 1.314 . S
C660 H666 0.930 . S
C661 N663 1.279 . S
C661 C664 1.358 . S
C661 H667 0.930 . S
C662 C660 1.353 . S
C662 C665 1.348 . S
C662 H700 0.929 . S
N663 Li618 1.990 . S
N663 C660 1.314 . S
N663 C661 1.279 . S
C664 C661 1.358 . S
C664 C665 1.356 . S
C664 H701 0.930 . S
C665 C662 1.348 . S
C665 C664 1.356 . S
H666 C660 0.930 . S
H667 C661 0.930 . S
C668 N669 1.314 . S
C668 C670 1.353 . S
C668 H674 0.930 . S
N669 Li619 1.990 . S
N669 C668 1.314 . S
N669 C672 1.279 . S
C670 C668 1.353 . S
C670 C673 1.348 . S
C670 H702 0.929 . S
C671 C672 1.358 . S
C671 C673 1.356 . S
C671 H703 0.930 . S
C672 N669 1.279 . S
C672 C671 1.358 . S
C672 H675 0.930 . S
C673 C670 1.348 . S
C673 C671 1.356 . S
H674 C668 0.930 . S
H675 C672 0.930 . S
O676 Li616 1.956 . S
O676 Li617 1.970 . S
O676 Li618 1.961 . S
O676 C620 1.325 . S
O677 Li616 1.970 . S
O677 Li617 1.956 . S
O677 Li619 1.961 . S
O677 C626 1.325 . S
O678 Li616 1.961 . S
O678 Li618 1.956 . S
O678 Li619 1.970 . S
O678 C648 1.325 . S
O679 Li617 1.961 . S
O679 Li618 1.970 . S
O679 Li619 1.956 . S
O679 C654 1.325 . S
H680 C622 0.929 . S
H681 C623 0.930 . S
H682 C624 0.930 . S
H683 C625 0.930 . S
H684 C627 0.930 . S
H685 C629 0.929 . S
H686 C630 0.930 . S
H687 C631 0.930 . S
H688 C634 0.930 . S
H689 C637 0.929 . S
H690 C642 0.929 . S
H691 C643 0.930 . S
H692 C650 0.929 . S
H693 C651 0.930 . S
H694 C652 0.930 . S
H695 C653 0.930 . S
H696 C655 0.929 . S
H697 C656 0.930 . S
H698 C657 0.930 . S
H699 C658 0.930 . S
H700 C662 0.929 . S
H701 C664 0.930 . S
H702 C670 0.929 . S
H703 C671 0.930 . S
Li704 N721 1.990 . S
Li704 O764 1.956 . S
Li704 O765 1.970 . S
Li704 O766 1.961 . S
Li705 N729 1.990 . S
Li705 O764 1.970 . S
Li705 O765 1.956 . S
Li705 O767 1.961 . S
Li706 N751 1.990 . S
Li706 O764 1.961 . S
Li706 O766 1.956 . S
Li706 O767 1.970 . S
Li707 N757 1.990 . S
Li707 O765 1.961 . S
Li707 O766 1.970 . S
Li707 O767 1.956 . S
C708 C710 1.348 . S
C708 C711 1.356 . S
C708 O764 1.325 . S
N709 C712 1.314 1_554 S
N709 C713 1.272 1_554 S
C710 C708 1.348 . S
C710 C712 1.353 . S
C710 H768 0.929 . S
C711 C708 1.356 . S
C711 C713 1.376 . S
C711 H769 0.930 . S
C712 N709 1.314 1_556 S
C712 C710 1.353 . S
C712 H770 0.930 . S
C713 N709 1.272 1_556 S
C713 C711 1.376 . S
C713 H771 0.919 1_556 S
C714 C717 1.348 . S
C714 C718 1.356 . S
C714 O765 1.325 . S
C715 N716 1.279 . S
C715 C718 1.358 . S
C715 H772 0.930 . S
N716 C715 1.279 . S
N716 C719 1.314 . S
C717 C714 1.348 . S
C717 C719 1.353 . S
C717 H773 0.929 . S
C718 C714 1.356 . S
C718 C715 1.358 . S
C718 H774 0.930 . S
C719 N716 1.314 . S
C719 C717 1.353 . S
C719 H775 0.930 . S
C720 N721 1.314 . S
C720 C725 1.353 . S
C720 H726 0.930 . S
N721 Li704 1.990 . S
N721 C720 1.314 . S
N721 C723 1.279 . S
C722 C723 1.358 . S
C722 C724 1.356 . S
C722 H776 0.930 . S
C723 N721 1.279 . S
C723 C722 1.358 . S
C723 H727 0.930 . S
C724 C722 1.356 . S
C724 C725 1.348 . S
C725 C720 1.353 . S
C725 C724 1.348 . S
C725 H777 0.929 . S
H726 C720 0.930 . S
H727 C723 0.930 . S
C728 N729 1.314 . S
C728 C730 1.353 . S
C728 H734 0.930 . S
N729 Li705 1.990 . S
N729 C728 1.314 . S
N729 C732 1.279 . S
C730 C728 1.353 . S
C730 C733 1.348 . S
C730 H778 0.929 . S
C731 C732 1.358 . S
C731 C733 1.356 . S
C731 H779 0.930 . S
C732 N729 1.279 . S
C732 C731 1.358 . S
C732 H735 0.930 . S
C733 C730 1.348 . S
C733 C731 1.356 . S
H734 C728 0.930 . S
H735 C732 0.930 . S
C736 C738 1.348 . S
C736 C739 1.356 . S
C736 O766 1.325 . S
N737 C740 1.314 . S
N737 C741 1.279 . S
C738 C736 1.348 . S
C738 C740 1.353 . S
C738 H780 0.929 . S
C739 C736 1.356 . S
C739 C741 1.358 . S
C739 H781 0.930 . S
C740 N737 1.314 . S
C740 C738 1.353 . S
C740 H782 0.930 . S
C741 N737 1.279 . S
C741 C739 1.358 . S
C741 H783 0.930 . S
C742 C743 1.348 . S
C742 C744 1.356 . S
C742 O767 1.325 . S
C743 C742 1.348 . S
C743 C745 1.353 . S
C743 H784 0.929 . S
C744 C742 1.356 . S
C744 C746 1.358 . S
C744 H785 0.930 . S
C745 C743 1.353 . S
C745 N747 1.314 . S
C745 H786 0.930 . S
C746 C744 1.358 . S
C746 N747 1.279 . S
C746 H787 0.930 . S
N747 C745 1.314 . S
N747 C746 1.279 . S
C748 C750 1.353 . S
C748 N751 1.314 . S
C748 H754 0.930 . S
C749 N751 1.279 . S
C749 C752 1.358 . S
C749 H755 0.930 . S
C750 C748 1.353 . S
C750 C753 1.348 . S
C750 H788 0.929 . S
N751 Li706 1.990 . S
N751 C748 1.314 . S
N751 C749 1.279 . S
C752 C749 1.358 . S
C752 C753 1.356 . S
C752 H789 0.930 . S
C753 C750 1.348 . S
C753 C752 1.356 . S
H754 C748 0.930 . S
H755 C749 0.930 . S
C756 N757 1.314 . S
C756 C758 1.353 . S
C756 H762 0.930 . S
N757 Li707 1.990 . S
N757 C756 1.314 . S
N757 C760 1.279 . S
C758 C756 1.353 . S
C758 C761 1.348 . S
C758 H790 0.929 . S
C759 C760 1.358 . S
C759 C761 1.356 . S
C759 H791 0.930 . S
C760 N757 1.279 . S
C760 C759 1.358 . S
C760 H763 0.930 . S
C761 C758 1.348 . S
C761 C759 1.356 . S
H762 C756 0.930 . S
H763 C760 0.930 . S
O764 Li704 1.956 . S
O764 Li705 1.970 . S
O764 Li706 1.961 . S
O764 C708 1.325 . S
O765 Li704 1.970 . S
O765 Li705 1.956 . S
O765 Li707 1.961 . S
O765 C714 1.325 . S
O766 Li704 1.961 . S
O766 Li706 1.956 . S
O766 Li707 1.970 . S
O766 C736 1.325 . S
O767 Li705 1.961 . S
O767 Li706 1.970 . S
O767 Li707 1.956 . S
O767 C742 1.325 . S
H768 C710 0.929 . S
H769 C711 0.930 . S
H770 C712 0.930 . S
H771 C713 0.919 1_554 S
H772 C715 0.930 . S
H773 C717 0.929 . S
H774 C718 0.930 . S
H775 C719 0.930 . S
H776 C722 0.930 . S
H777 C725 0.929 . S
H778 C730 0.929 . S
H779 C731 0.930 . S
H780 C738 0.929 . S
H781 C739 0.930 . S
H782 C740 0.930 . S
H783 C741 0.930 . S
H784 C743 0.929 . S
H785 C744 0.930 . S
H786 C745 0.930 . S
H787 C746 0.930 . S
H788 C750 0.929 . S
H789 C752 0.930 . S
H790 C758 0.929 . S
H791 C759 0.930 . S
Li792 N809 1.990 . S
Li792 O852 1.956 . S
Li792 O853 1.970 . S
Li792 O854 1.961 . S
Li793 N817 1.990 . S
Li793 O852 1.970 . S
Li793 O853 1.956 . S
Li793 O855 1.961 . S
Li794 N839 1.990 . S
Li794 O852 1.961 . S
Li794 O854 1.956 . S
Li794 O855 1.970 . S
Li795 N845 1.990 . S
Li795 O853 1.961 . S
Li795 O854 1.970 . S
Li795 O855 1.956 . S
C796 C798 1.348 . S
C796 C799 1.356 . S
C796 O852 1.325 . S
N797 C800 1.314 . S
N797 C801 1.279 . S
C798 C796 1.348 . S
C798 C800 1.353 . S
C798 H856 0.929 . S
C799 C796 1.356 . S
C799 C801 1.358 . S
C799 H857 0.930 . S
C800 N797 1.314 . S
C800 C798 1.353 . S
C800 H858 0.930 . S
C801 N797 1.279 . S
C801 C799 1.358 . S
C801 H859 0.930 . S
C802 C805 1.348 . S
C802 C806 1.356 . S
C802 O853 1.325 . S
C803 N804 1.272 1_556 S
C803 C806 1.376 . S
C803 H860 0.919 1_556 S
N804 C803 1.272 1_554 S
N804 C807 1.314 1_554 S
C805 C802 1.348 . S
C805 C807 1.353 . S
C805 H861 0.929 . S
C806 C802 1.356 . S
C806 C803 1.376 . S
C806 H862 0.930 . S
C807 N804 1.314 1_556 S
C807 C805 1.353 . S
C807 H863 0.930 . S
C808 N809 1.314 . S
C808 C813 1.353 . S
C808 H814 0.930 . S
N809 Li792 1.990 . S
N809 C808 1.314 . S
N809 C811 1.279 . S
C810 C811 1.358 . S
C810 C812 1.356 . S
C810 H864 0.930 . S
C811 N809 1.279 . S
C811 C810 1.358 . S
C811 H815 0.930 . S
C812 C810 1.356 . S
C812 C813 1.348 . S
C813 C808 1.353 . S
C813 C812 1.348 . S
C813 H865 0.929 . S
H814 C808 0.930 . S
H815 C811 0.930 . S
C816 N817 1.314 . S
C816 C818 1.353 . S
C816 H822 0.930 . S
N817 Li793 1.990 . S
N817 C816 1.314 . S
N817 C820 1.279 . S
C818 C816 1.353 . S
C818 C821 1.348 . S
C818 H866 0.929 . S
C819 C820 1.358 . S
C819 C821 1.356 . S
C819 H867 0.930 . S
C820 N817 1.279 . S
C820 C819 1.358 . S
C820 H823 0.930 . S
C821 C818 1.348 . S
C821 C819 1.356 . S
H822 C816 0.930 . S
H823 C820 0.930 . S
C824 C826 1.348 . S
C824 C827 1.356 . S
C824 O854 1.325 . S
N825 C828 1.314 . S
N825 C829 1.279 . S
C826 C824 1.348 . S
C826 C828 1.353 . S
C826 H868 0.929 . S
C827 C824 1.356 . S
C827 C829 1.358 . S
C827 H869 0.930 . S
C828 N825 1.314 . S
C828 C826 1.353 . S
C828 H870 0.930 . S
C829 N825 1.279 . S
C829 C827 1.358 . S
C829 H871 0.930 . S
C830 C831 1.348 . S
C830 C832 1.356 . S
C830 O855 1.325 . S
C831 C830 1.348 . S
C831 C833 1.353 . S
C831 H872 0.929 . S
C832 C830 1.356 . S
C832 C834 1.358 . S
C832 H873 0.930 . S
C833 C831 1.353 . S
C833 N835 1.314 . S
C833 H874 0.930 . S
C834 C832 1.358 . S
C834 N835 1.279 . S
C834 H875 0.930 . S
N835 C833 1.314 . S
N835 C834 1.279 . S
C836 C838 1.353 . S
C836 N839 1.314 . S
C836 H842 0.930 . S
C837 N839 1.279 . S
C837 C840 1.358 . S
C837 H843 0.930 . S
C838 C836 1.353 . S
C838 C841 1.348 . S
C838 H876 0.929 . S
N839 Li794 1.990 . S
N839 C836 1.314 . S
N839 C837 1.279 . S
C840 C837 1.358 . S
C840 C841 1.356 . S
C840 H877 0.930 . S
C841 C838 1.348 . S
C841 C840 1.356 . S
H842 C836 0.930 . S
H843 C837 0.930 . S
C844 N845 1.314 . S
C844 C846 1.353 . S
C844 H850 0.930 . S
N845 Li795 1.990 . S
N845 C844 1.314 . S
N845 C848 1.279 . S
C846 C844 1.353 . S
C846 C849 1.348 . S
C846 H878 0.929 . S
C847 C848 1.358 . S
C847 C849 1.356 . S
C847 H879 0.930 . S
C848 N845 1.279 . S
C848 C847 1.358 . S
C848 H851 0.930 . S
C849 C846 1.348 . S
C849 C847 1.356 . S
H850 C844 0.930 . S
H851 C848 0.930 . S
O852 Li792 1.956 . S
O852 Li793 1.970 . S
O852 Li794 1.961 . S
O852 C796 1.325 . S
O853 Li792 1.970 . S
O853 Li793 1.956 . S
O853 Li795 1.961 . S
O853 C802 1.325 . S
O854 Li792 1.961 . S
O854 Li794 1.956 . S
O854 Li795 1.970 . S
O854 C824 1.325 . S
O855 Li793 1.961 . S
O855 Li794 1.970 . S
O855 Li795 1.956 . S
O855 C830 1.325 . S
H856 C798 0.929 . S
H857 C799 0.930 . S
H858 C800 0.930 . S
H859 C801 0.930 . S
H860 C803 0.919 1_554 S
H861 C805 0.929 . S
H862 C806 0.930 . S
H863 C807 0.930 . S
H864 C810 0.930 . S
H865 C813 0.929 . S
H866 C818 0.929 . S
H867 C819 0.930 . S
H868 C826 0.929 . S
H869 C827 0.930 . S
H870 C828 0.930 . S
H871 C829 0.930 . S
H872 C831 0.929 . S
H873 C832 0.930 . S
H874 C833 0.930 . S
H875 C834 0.930 . S
H876 C838 0.929 . S
H877 C840 0.930 . S
H878 C846 0.929 . S
H879 C847 0.930 . S
Li880 N897 1.990 . S
Li880 O940 1.956 . S
Li880 O941 1.970 . S
Li880 O942 1.961 . S
Li881 N905 1.990 . S
Li881 O940 1.970 . S
Li881 O941 1.956 . S
Li881 O943 1.961 . S
Li882 N927 1.990 . S
Li882 O940 1.961 . S
Li882 O942 1.956 . S
Li882 O943 1.970 . S
Li883 N933 1.990 . S
Li883 O941 1.961 . S
Li883 O942 1.970 . S
Li883 O943 1.956 . S
C884 C886 1.348 . S
C884 C887 1.356 . S
C884 O940 1.325 . S
N885 C888 1.314 . S
N885 C889 1.279 . S
C886 C884 1.348 . S
C886 C888 1.353 . S
C886 H944 0.929 . S
C887 C884 1.356 . S
C887 C889 1.358 . S
C887 H945 0.930 . S
C888 N885 1.314 . S
C888 C886 1.353 . S
C888 H946 0.930 . S
C889 N885 1.279 . S
C889 C887 1.358 . S
C889 H947 0.930 . S
C890 C893 1.348 . S
C890 C894 1.356 . S
C890 O941 1.325 . S
C891 N892 1.279 . S
C891 C894 1.358 . S
C891 H948 0.930 . S
N892 C891 1.279 . S
N892 C895 1.314 . S
C893 C890 1.348 . S
C893 C895 1.353 . S
C893 H949 0.929 . S
C894 C890 1.356 . S
C894 C891 1.358 . S
C894 H950 0.930 . S
C895 N892 1.314 . S
C895 C893 1.353 . S
C895 H951 0.930 . S
C896 N897 1.314 . S
C896 C901 1.353 . S
C896 H902 0.930 . S
N897 Li880 1.990 . S
N897 C896 1.314 . S
N897 C899 1.279 . S
C898 C899 1.358 . S
C898 C900 1.356 . S
C898 H952 0.930 . S
C899 N897 1.279 . S
C899 C898 1.358 . S
C899 H903 0.930 . S
C900 C898 1.356 . S
C900 C901 1.348 . S
C901 C896 1.353 . S
C901 C900 1.348 . S
C901 H953 0.929 . S
H902 C896 0.930 . S
H903 C899 0.930 . S
C904 N905 1.314 . S
C904 C906 1.353 . S
C904 H910 0.930 . S
N905 Li881 1.990 . S
N905 C904 1.314 . S
N905 C908 1.279 . S
C906 C904 1.353 . S
C906 C909 1.348 . S
C906 H954 0.929 . S
C907 C908 1.358 . S
C907 C909 1.356 . S
C907 H955 0.930 . S
C908 N905 1.279 . S
C908 C907 1.358 . S
C908 H911 0.930 . S
C909 C906 1.348 . S
C909 C907 1.356 . S
H910 C904 0.930 . S
H911 C908 0.930 . S
C912 C914 1.348 . S
C912 C915 1.356 . S
C912 O942 1.325 . S
N913 C916 1.314 . S
N913 C917 1.279 . S
C914 C912 1.348 . S
C914 C916 1.353 . S
C914 H956 0.929 . S
C915 C912 1.356 . S
C915 C917 1.358 . S
C915 H957 0.930 . S
C916 N913 1.314 . S
C916 C914 1.353 . S
C916 H958 0.930 . S
C917 N913 1.279 . S
C917 C915 1.358 . S
C917 H959 0.930 . S
C918 C919 1.348 . S
C918 C920 1.356 . S
C918 O943 1.325 . S
C919 C918 1.348 . S
C919 C921 1.353 . S
C919 H960 0.929 . S
C920 C918 1.356 . S
C920 C922 1.376 . S
C920 H961 0.930 . S
C921 C919 1.353 . S
C921 N923 1.314 1_556 S
C921 H962 0.930 . S
C922 C920 1.376 . S
C922 N923 1.272 1_556 S
C922 H963 0.919 1_556 S
N923 C921 1.314 1_554 S
N923 C922 1.272 1_554 S
C924 C926 1.353 . S
C924 N927 1.314 . S
C924 H930 0.930 . S
C925 N927 1.279 . S
C925 C928 1.358 . S
C925 H931 0.930 . S
C926 C924 1.353 . S
C926 C929 1.348 . S
C926 H964 0.929 . S
N927 Li882 1.990 . S
N927 C924 1.314 . S
N927 C925 1.279 . S
C928 C925 1.358 . S
C928 C929 1.356 . S
C928 H965 0.930 . S
C929 C926 1.348 . S
C929 C928 1.356 . S
H930 C924 0.930 . S
H931 C925 0.930 . S
C932 N933 1.314 . S
C932 C934 1.353 . S
C932 H938 0.930 . S
N933 Li883 1.990 . S
N933 C932 1.314 . S
N933 C936 1.279 . S
C934 C932 1.353 . S
C934 C937 1.348 . S
C934 H966 0.929 . S
C935 C936 1.358 . S
C935 C937 1.356 . S
C935 H967 0.930 . S
C936 N933 1.279 . S
C936 C935 1.358 . S
C936 H939 0.930 . S
C937 C934 1.348 . S
C937 C935 1.356 . S
H938 C932 0.930 . S
H939 C936 0.930 . S
O940 Li880 1.956 . S
O940 Li881 1.970 . S
O940 Li882 1.961 . S
O940 C884 1.325 . S
O941 Li880 1.970 . S
O941 Li881 1.956 . S
O941 Li883 1.961 . S
O941 C890 1.325 . S
O942 Li880 1.961 . S
O942 Li882 1.956 . S
O942 Li883 1.970 . S
O942 C912 1.325 . S
O943 Li881 1.961 . S
O943 Li882 1.970 . S
O943 Li883 1.956 . S
O943 C918 1.325 . S
H944 C886 0.929 . S
H945 C887 0.930 . S
H946 C888 0.930 . S
H947 C889 0.930 . S
H948 C891 0.930 . S
H949 C893 0.929 . S
H950 C894 0.930 . S
H951 C895 0.930 . S
H952 C898 0.930 . S
H953 C901 0.929 . S
H954 C906 0.929 . S
H955 C907 0.930 . S
H956 C914 0.929 . S
H957 C915 0.930 . S
H958 C916 0.930 . S
H959 C917 0.930 . S
H960 C919 0.929 . S
H961 C920 0.930 . S
H962 C921 0.930 . S
H963 C922 0.919 1_554 S
H964 C926 0.929 . S
H965 C928 0.930 . S
H966 C934 0.929 . S
H967 C935 0.930 . S
Li968 N985 1.990 . S
Li968 O1028 1.956 . S
Li968 O1029 1.970 . S
Li968 O1030 1.961 . S
Li969 N993 1.990 . S
Li969 O1028 1.970 . S
Li969 O1029 1.956 . S
Li969 O1031 1.961 . S
Li970 N1015 1.990 . S
Li970 O1028 1.961 . S
Li970 O1030 1.956 . S
Li970 O1031 1.970 . S
Li971 N1021 1.990 . S
Li971 O1029 1.961 . S
Li971 O1030 1.970 . S
Li971 O1031 1.956 . S
C972 C974 1.348 . S
C972 C975 1.356 . S
C972 O1028 1.325 . S
N973 C976 1.314 . S
N973 C977 1.279 . S
C974 C972 1.348 . S
C974 C976 1.353 . S
C974 H1032 0.929 . S
C975 C972 1.356 . S
C975 C977 1.358 . S
C975 H1033 0.930 . S
C976 N973 1.314 . S
C976 C974 1.353 . S
C976 H1034 0.930 . S
C977 N973 1.279 . S
C977 C975 1.358 . S
C977 H1035 0.930 . S
C978 C981 1.348 . S
C978 C982 1.356 . S
C978 O1029 1.325 . S
C979 N980 1.272 1_556 S
C979 C982 1.376 . S
C979 H1036 0.919 1_556 S
N980 C979 1.272 1_554 S
N980 C983 1.314 1_554 S
C981 C978 1.348 . S
C981 C983 1.353 . S
C981 H1037 0.929 . S
C982 C978 1.356 . S
C982 C979 1.376 . S
C982 H1038 0.930 . S
C983 N980 1.314 1_556 S
C983 C981 1.353 . S
C983 H1039 0.930 . S
C984 N985 1.314 . S
C984 C989 1.353 . S
C984 H990 0.930 . S
N985 Li968 1.990 . S
N985 C984 1.314 . S
N985 C987 1.279 . S
C986 C987 1.358 . S
C986 C988 1.356 . S
C986 H1040 0.930 . S
C987 N985 1.279 . S
C987 C986 1.358 . S
C987 H991 0.930 . S
C988 C986 1.356 . S
C988 C989 1.348 . S
C989 C984 1.353 . S
C989 C988 1.348 . S
C989 H1041 0.929 . S
H990 C984 0.930 . S
H991 C987 0.930 . S
C992 N993 1.314 . S
C992 C994 1.353 . S
C992 H998 0.930 . S
N993 Li969 1.990 . S
N993 C992 1.314 . S
N993 C996 1.279 . S
C994 C992 1.353 . S
C994 C997 1.348 . S
C994 H1042 0.929 . S
C995 C996 1.358 . S
C995 C997 1.356 . S
C995 H1043 0.930 . S
C996 N993 1.279 . S
C996 C995 1.358 . S
C996 H999 0.930 . S
C997 C994 1.348 . S
C997 C995 1.356 . S
H998 C992 0.930 . S
H999 C996 0.930 . S
C1000 C1002 1.348 . S
C1000 C1003 1.356 . S
C1000 O1030 1.325 . S
N1001 C1004 1.314 . S
N1001 C1005 1.279 . S
C1002 C1000 1.348 . S
C1002 C1004 1.353 . S
C1002 H1044 0.929 . S
C1003 C1000 1.356 . S
C1003 C1005 1.358 . S
C1003 H1045 0.930 . S
C1004 N1001 1.314 . S
C1004 C1002 1.353 . S
C1004 H1046 0.930 . S
C1005 N1001 1.279 . S
C1005 C1003 1.358 . S
C1005 H1047 0.930 . S
C1006 C1007 1.348 . S
C1006 C1008 1.356 . S
C1006 O1031 1.325 . S
C1007 C1006 1.348 . S
C1007 C1009 1.353 . S
C1007 H1048 0.929 . S
C1008 C1006 1.356 . S
C1008 C1010 1.358 . S
C1008 H1049 0.930 . S
C1009 C1007 1.353 . S
C1009 N1011 1.314 . S
C1009 H1050 0.930 . S
C1010 C1008 1.358 . S
C1010 N1011 1.279 . S
C1010 H1051 0.930 . S
N1011 C1009 1.314 . S
N1011 C1010 1.279 . S
C1012 C1014 1.353 . S
C1012 N1015 1.314 . S
C1012 H1018 0.930 . S
C1013 N1015 1.279 . S
C1013 C1016 1.358 . S
C1013 H1019 0.930 . S
C1014 C1012 1.353 . S
C1014 C1017 1.348 . S
C1014 H1052 0.929 . S
N1015 Li970 1.990 . S
N1015 C1012 1.314 . S
N1015 C1013 1.279 . S
C1016 C1013 1.358 . S
C1016 C1017 1.356 . S
C1016 H1053 0.930 . S
C1017 C1014 1.348 . S
C1017 C1016 1.356 . S
H1018 C1012 0.930 . S
H1019 C1013 0.930 . S
C1020 N1021 1.314 . S
C1020 C1022 1.353 . S
C1020 H1026 0.930 . S
N1021 Li971 1.990 . S
N1021 C1020 1.314 . S
N1021 C1024 1.279 . S
C1022 C1020 1.353 . S
C1022 C1025 1.348 . S
C1022 H1054 0.929 . S
C1023 C1024 1.358 . S
C1023 C1025 1.356 . S
C1023 H1055 0.930 . S
C1024 N1021 1.279 . S
C1024 C1023 1.358 . S
C1024 H1027 0.930 . S
C1025 C1022 1.348 . S
C1025 C1023 1.356 . S
H1026 C1020 0.930 . S
H1027 C1024 0.930 . S
O1028 Li968 1.956 . S
O1028 Li969 1.970 . S
O1028 Li970 1.961 . S
O1028 C972 1.325 . S
O1029 Li968 1.970 . S
O1029 Li969 1.956 . S
O1029 Li971 1.961 . S
O1029 C978 1.325 . S
O1030 Li968 1.961 . S
O1030 Li970 1.956 . S
O1030 Li971 1.970 . S
O1030 C1000 1.325 . S
O1031 Li969 1.961 . S
O1031 Li970 1.970 . S
O1031 Li971 1.956 . S
O1031 C1006 1.325 . S
H1032 C974 0.929 . S
H1033 C975 0.930 . S
H1034 C976 0.930 . S
H1035 C977 0.930 . S
H1036 C979 0.919 1_554 S
H1037 C981 0.929 . S
H1038 C982 0.930 . S
H1039 C983 0.930 . S
H1040 C986 0.930 . S
H1041 C989 0.929 . S
H1042 C994 0.929 . S
H1043 C995 0.930 . S
H1044 C1002 0.929 . S
H1045 C1003 0.930 . S
H1046 C1004 0.930 . S
H1047 C1005 0.930 . S
H1048 C1007 0.929 . S
H1049 C1008 0.930 . S
H1050 C1009 0.930 . S
H1051 C1010 0.930 . S
H1052 C1014 0.929 . S
H1053 C1016 0.930 . S
H1054 C1022 0.929 . S
H1055 C1023 0.930 . S
Li1056 N1073 1.990 . S
Li1056 O1116 1.956 . S
Li1056 O1117 1.970 . S
Li1056 O1118 1.961 . S
Li1057 N1081 1.990 . S
Li1057 O1116 1.970 . S
Li1057 O1117 1.956 . S
Li1057 O1119 1.961 . S
Li1058 N1103 1.990 . S
Li1058 O1116 1.961 . S
Li1058 O1118 1.956 . S
Li1058 O1119 1.970 . S
Li1059 N1109 1.990 . S
Li1059 O1117 1.961 . S
Li1059 O1118 1.970 . S
Li1059 O1119 1.956 . S
C1060 C1062 1.348 . S
C1060 C1063 1.356 . S
C1060 O1116 1.325 . S
N1061 C1064 1.314 . S
N1061 C1065 1.279 . S
C1062 C1060 1.348 . S
C1062 C1064 1.353 . S
C1062 H1120 0.929 . S
C1063 C1060 1.356 . S
C1063 C1065 1.358 . S
C1063 H1121 0.930 . S
C1064 N1061 1.314 . S
C1064 C1062 1.353 . S
C1064 H1122 0.930 . S
C1065 N1061 1.279 . S
C1065 C1063 1.358 . S
C1065 H1123 0.930 . S
C1066 C1069 1.348 . S
C1066 C1070 1.356 . S
C1066 O1117 1.325 . S
C1067 N1068 1.279 . S
C1067 C1070 1.358 . S
C1067 H1124 0.930 . S
N1068 C1067 1.279 . S
N1068 C1071 1.314 . S
C1069 C1066 1.348 . S
C1069 C1071 1.353 . S
C1069 H1125 0.929 . S
C1070 C1066 1.356 . S
C1070 C1067 1.358 . S
C1070 H1126 0.930 . S
C1071 N1068 1.314 . S
C1071 C1069 1.353 . S
C1071 H1127 0.930 . S
C1072 N1073 1.314 . S
C1072 C1077 1.353 . S
C1072 H1078 0.930 . S
N1073 Li1056 1.990 . S
N1073 C1072 1.314 . S
N1073 C1075 1.279 . S
C1074 C1075 1.358 . S
C1074 C1076 1.356 . S
C1074 H1128 0.930 . S
C1075 N1073 1.279 . S
C1075 C1074 1.358 . S
C1075 H1079 0.930 . S
C1076 C1074 1.356 . S
C1076 C1077 1.348 . S
C1077 C1072 1.353 . S
C1077 C1076 1.348 . S
C1077 H1129 0.929 . S
H1078 C1072 0.930 . S
H1079 C1075 0.930 . S
C1080 N1081 1.314 . S
C1080 C1082 1.353 . S
C1080 H1086 0.930 . S
N1081 Li1057 1.990 . S
N1081 C1080 1.314 . S
N1081 C1084 1.279 . S
C1082 C1080 1.353 . S
C1082 C1085 1.348 . S
C1082 H1130 0.929 . S
C1083 C1084 1.358 . S
C1083 C1085 1.356 . S
C1083 H1131 0.930 . S
C1084 N1081 1.279 . S
C1084 C1083 1.358 . S
C1084 H1087 0.930 . S
C1085 C1082 1.348 . S
C1085 C1083 1.356 . S
H1086 C1080 0.930 . S
H1087 C1084 0.930 . S
C1088 C1090 1.348 . S
C1088 C1091 1.356 . S
C1088 O1118 1.325 . S
N1089 C1092 1.314 . S
N1089 C1093 1.279 . S
C1090 C1088 1.348 . S
C1090 C1092 1.353 . S
C1090 H1132 0.929 . S
C1091 C1088 1.356 . S
C1091 C1093 1.358 . S
C1091 H1133 0.930 . S
C1092 N1089 1.314 . S
C1092 C1090 1.353 . S
C1092 H1134 0.930 . S
C1093 N1089 1.279 . S
C1093 C1091 1.358 . S
C1093 H1135 0.930 . S
C1094 C1095 1.348 . S
C1094 C1096 1.356 . S
C1094 O1119 1.325 . S
C1095 C1094 1.348 . S
C1095 C1097 1.353 . S
C1095 H1136 0.929 . S
C1096 C1094 1.356 . S
C1096 C1098 1.358 . S
C1096 H1137 0.930 . S
C1097 C1095 1.353 . S
C1097 N1099 1.314 . S
C1097 H1138 0.930 . S
C1098 C1096 1.358 . S
C1098 N1099 1.279 . S
C1098 H1139 0.930 . S
N1099 C1097 1.314 . S
N1099 C1098 1.279 . S
C1100 C1102 1.353 . S
C1100 N1103 1.314 . S
C1100 H1106 0.930 . S
C1101 N1103 1.279 . S
C1101 C1104 1.358 . S
C1101 H1107 0.930 . S
C1102 C1100 1.353 . S
C1102 C1105 1.348 . S
C1102 H1140 0.929 . S
N1103 Li1058 1.990 . S
N1103 C1100 1.314 . S
N1103 C1101 1.279 . S
C1104 C1101 1.358 . S
C1104 C1105 1.356 . S
C1104 H1141 0.930 . S
C1105 C1102 1.348 . S
C1105 C1104 1.356 . S
H1106 C1100 0.930 . S
H1107 C1101 0.930 . S
C1108 N1109 1.314 . S
C1108 C1110 1.353 . S
C1108 H1114 0.930 . S
N1109 Li1059 1.990 . S
N1109 C1108 1.314 . S
N1109 C1112 1.279 . S
C1110 C1108 1.353 . S
C1110 C1113 1.348 . S
C1110 H1142 0.929 . S
C1111 C1112 1.358 . S
C1111 C1113 1.356 . S
C1111 H1143 0.930 . S
C1112 N1109 1.279 . S
C1112 C1111 1.358 . S
C1112 H1115 0.930 . S
C1113 C1110 1.348 . S
C1113 C1111 1.356 . S
H1114 C1108 0.930 . S
H1115 C1112 0.930 . S
O1116 Li1056 1.956 . S
O1116 Li1057 1.970 . S
O1116 Li1058 1.961 . S
O1116 C1060 1.325 . S
O1117 Li1056 1.970 . S
O1117 Li1057 1.956 . S
O1117 Li1059 1.961 . S
O1117 C1066 1.325 . S
O1118 Li1056 1.961 . S
O1118 Li1058 1.956 . S
O1118 Li1059 1.970 . S
O1118 C1088 1.325 . S
O1119 Li1057 1.961 . S
O1119 Li1058 1.970 . S
O1119 Li1059 1.956 . S
O1119 C1094 1.325 . S
H1120 C1062 0.929 . S
H1121 C1063 0.930 . S
H1122 C1064 0.930 . S
H1123 C1065 0.930 . S
H1124 C1067 0.930 . S
H1125 C1069 0.929 . S
H1126 C1070 0.930 . S
H1127 C1071 0.930 . S
H1128 C1074 0.930 . S
H1129 C1077 0.929 . S
H1130 C1082 0.929 . S
H1131 C1083 0.930 . S
H1132 C1090 0.929 . S
H1133 C1091 0.930 . S
H1134 C1092 0.930 . S
H1135 C1093 0.930 . S
H1136 C1095 0.929 . S
H1137 C1096 0.930 . S
H1138 C1097 0.930 . S
H1139 C1098 0.930 . S
H1140 C1102 0.929 . S
H1141 C1104 0.930 . S
H1142 C1110 0.929 . S
H1143 C1111 0.930 . S
Li1144 N1161 1.990 . S
Li1144 O1204 1.956 . S
Li1144 O1205 1.970 . S
Li1144 O1206 1.961 . S
Li1145 N1169 1.990 . S
Li1145 O1204 1.970 . S
Li1145 O1205 1.956 . S
Li1145 O1207 1.961 . S
Li1146 N1191 1.990 . S
Li1146 O1204 1.961 . S
Li1146 O1206 1.956 . S
Li1146 O1207 1.970 . S
Li1147 N1197 1.990 . S
Li1147 O1205 1.961 . S
Li1147 O1206 1.970 . S
Li1147 O1207 1.956 . S
C1148 C1150 1.348 . S
C1148 C1151 1.356 . S
C1148 O1204 1.325 . S
N1149 C1152 1.314 . S
N1149 C1153 1.279 . S
C1150 C1148 1.348 . S
C1150 C1152 1.353 . S
C1150 H1208 0.929 . S
C1151 C1148 1.356 . S
C1151 C1153 1.358 . S
C1151 H1209 0.930 . S
C1152 N1149 1.314 . S
C1152 C1150 1.353 . S
C1152 H1210 0.930 . S
C1153 N1149 1.279 . S
C1153 C1151 1.358 . S
C1153 H1211 0.930 . S
C1154 C1157 1.348 . S
C1154 C1158 1.356 . S
C1154 O1205 1.325 . S
C1155 N1156 1.279 . S
C1155 C1158 1.358 . S
C1155 H1212 0.930 . S
N1156 C1155 1.279 . S
N1156 C1159 1.314 . S
C1157 C1154 1.348 . S
C1157 C1159 1.353 . S
C1157 H1213 0.929 . S
C1158 C1154 1.356 . S
C1158 C1155 1.358 . S
C1158 H1214 0.930 . S
C1159 N1156 1.314 . S
C1159 C1157 1.353 . S
C1159 H1215 0.930 . S
C1160 N1161 1.314 . S
C1160 C1165 1.353 . S
C1160 H1166 0.930 . S
N1161 Li1144 1.990 . S
N1161 C1160 1.314 . S
N1161 C1163 1.279 . S
C1162 C1163 1.358 . S
C1162 C1164 1.356 . S
C1162 H1216 0.930 . S
C1163 N1161 1.279 . S
C1163 C1162 1.358 . S
C1163 H1167 0.930 . S
C1164 C1162 1.356 . S
C1164 C1165 1.348 . S
C1165 C1160 1.353 . S
C1165 C1164 1.348 . S
C1165 H1217 0.929 . S
H1166 C1160 0.930 . S
H1167 C1163 0.930 . S
C1168 N1169 1.314 . S
C1168 C1170 1.353 . S
C1168 H1174 0.930 . S
N1169 Li1145 1.990 . S
N1169 C1168 1.314 . S
N1169 C1172 1.279 . S
C1170 C1168 1.353 . S
C1170 C1173 1.348 . S
C1170 H1218 0.929 . S
C1171 C1172 1.358 . S
C1171 C1173 1.356 . S
C1171 H1219 0.930 . S
C1172 N1169 1.279 . S
C1172 C1171 1.358 . S
C1172 H1175 0.930 . S
C1173 C1170 1.348 . S
C1173 C1171 1.356 . S
H1174 C1168 0.930 . S
H1175 C1172 0.930 . S
C1176 C1178 1.348 . S
C1176 C1179 1.356 . S
C1176 O1206 1.325 . S
N1177 C1180 1.314 . S
N1177 C1181 1.279 . S
C1178 C1176 1.348 . S
C1178 C1180 1.353 . S
C1178 H1220 0.929 . S
C1179 C1176 1.356 . S
C1179 C1181 1.358 . S
C1179 H1221 0.930 . S
C1180 N1177 1.314 . S
C1180 C1178 1.353 . S
C1180 H1222 0.930 . S
C1181 N1177 1.279 . S
C1181 C1179 1.358 . S
C1181 H1223 0.930 . S
C1182 C1183 1.348 . S
C1182 C1184 1.356 . S
C1182 O1207 1.325 . S
C1183 C1182 1.348 . S
C1183 C1185 1.353 . S
C1183 H1224 0.929 . S
C1184 C1182 1.356 . S
C1184 C1186 1.358 . S
C1184 H1225 0.930 . S
C1185 C1183 1.353 . S
C1185 N1187 1.314 . S
C1185 H1226 0.930 . S
C1186 C1184 1.358 . S
C1186 N1187 1.279 . S
C1186 H1227 0.930 . S
N1187 C1185 1.314 . S
N1187 C1186 1.279 . S
C1188 C1190 1.353 . S
C1188 N1191 1.314 . S
C1188 H1194 0.930 . S
C1189 N1191 1.279 . S
C1189 C1192 1.358 . S
C1189 H1195 0.930 . S
C1190 C1188 1.353 . S
C1190 C1193 1.348 . S
C1190 H1228 0.929 . S
N1191 Li1146 1.990 . S
N1191 C1188 1.314 . S
N1191 C1189 1.279 . S
C1192 C1189 1.358 . S
C1192 C1193 1.356 . S
C1192 H1229 0.930 . S
C1193 C1190 1.348 . S
C1193 C1192 1.356 . S
H1194 C1188 0.930 . S
H1195 C1189 0.930 . S
C1196 N1197 1.314 . S
C1196 C1198 1.353 . S
C1196 H1202 0.930 . S
N1197 Li1147 1.990 . S
N1197 C1196 1.314 . S
N1197 C1200 1.279 . S
C1198 C1196 1.353 . S
C1198 C1201 1.348 . S
C1198 H1230 0.929 . S
C1199 C1200 1.358 . S
C1199 C1201 1.356 . S
C1199 H1231 0.930 . S
C1200 N1197 1.279 . S
C1200 C1199 1.358 . S
C1200 H1203 0.930 . S
C1201 C1198 1.348 . S
C1201 C1199 1.356 . S
H1202 C1196 0.930 . S
H1203 C1200 0.930 . S
O1204 Li1144 1.956 . S
O1204 Li1145 1.970 . S
O1204 Li1146 1.961 . S
O1204 C1148 1.325 . S
O1205 Li1144 1.970 . S
O1205 Li1145 1.956 . S
O1205 Li1147 1.961 . S
O1205 C1154 1.325 . S
O1206 Li1144 1.961 . S
O1206 Li1146 1.956 . S
O1206 Li1147 1.970 . S
O1206 C1176 1.325 . S
O1207 Li1145 1.961 . S
O1207 Li1146 1.970 . S
O1207 Li1147 1.956 . S
O1207 C1182 1.325 . S
H1208 C1150 0.929 . S
H1209 C1151 0.930 . S
H1210 C1152 0.930 . S
H1211 C1153 0.930 . S
H1212 C1155 0.930 . S
H1213 C1157 0.929 . S
H1214 C1158 0.930 . S
H1215 C1159 0.930 . S
H1216 C1162 0.930 . S
H1217 C1165 0.929 . S
H1218 C1170 0.929 . S
H1219 C1171 0.930 . S
H1220 C1178 0.929 . S
H1221 C1179 0.930 . S
H1222 C1180 0.930 . S
H1223 C1181 0.930 . S
H1224 C1183 0.929 . S
H1225 C1184 0.930 . S
H1226 C1185 0.930 . S
H1227 C1186 0.930 . S
H1228 C1190 0.929 . S
H1229 C1192 0.930 . S
H1230 C1198 0.929 . S
H1231 C1199 0.930 . S
Li1232 N1249 1.990 . S
Li1232 O1292 1.956 . S
Li1232 O1293 1.970 . S
Li1232 O1294 1.961 . S
Li1233 N1257 1.990 . S
Li1233 O1292 1.970 . S
Li1233 O1293 1.956 . S
Li1233 O1295 1.961 . S
Li1234 N1279 1.990 . S
Li1234 O1292 1.961 . S
Li1234 O1294 1.956 . S
Li1234 O1295 1.970 . S
Li1235 N1285 1.990 . S
Li1235 O1293 1.961 . S
Li1235 O1294 1.970 . S
Li1235 O1295 1.956 . S
C1236 C1238 1.348 . S
C1236 C1239 1.356 . S
C1236 O1292 1.325 . S
N1237 C1240 1.314 . S
N1237 C1241 1.279 . S
C1238 C1236 1.348 . S
C1238 C1240 1.353 . S
C1238 H1296 0.929 . S
C1239 C1236 1.356 . S
C1239 C1241 1.358 . S
C1239 H1297 0.930 . S
C1240 N1237 1.314 . S
C1240 C1238 1.353 . S
C1240 H1298 0.930 . S
C1241 N1237 1.279 . S
C1241 C1239 1.358 . S
C1241 H1299 0.930 . S
C1242 C1245 1.348 . S
C1242 C1246 1.356 . S
C1242 O1293 1.325 . S
C1243 N1244 1.279 . S
C1243 C1246 1.358 . S
C1243 H1300 0.930 . S
N1244 C1243 1.279 . S
N1244 C1247 1.314 . S
C1245 C1242 1.348 . S
C1245 C1247 1.353 . S
C1245 H1301 0.929 . S
C1246 C1242 1.356 . S
C1246 C1243 1.358 . S
C1246 H1302 0.930 . S
C1247 N1244 1.314 . S
C1247 C1245 1.353 . S
C1247 H1303 0.930 . S
C1248 N1249 1.314 . S
C1248 C1253 1.353 . S
C1248 H1254 0.930 . S
N1249 Li1232 1.990 . S
N1249 C1248 1.314 . S
N1249 C1251 1.279 . S
C1250 C1251 1.358 . S
C1250 C1252 1.356 . S
C1250 H1304 0.930 . S
C1251 N1249 1.279 . S
C1251 C1250 1.358 . S
C1251 H1255 0.930 . S
C1252 C1250 1.356 . S
C1252 C1253 1.348 . S
C1253 C1248 1.353 . S
C1253 C1252 1.348 . S
C1253 H1305 0.929 . S
H1254 C1248 0.930 . S
H1255 C1251 0.930 . S
C1256 N1257 1.314 . S
C1256 C1258 1.353 . S
C1256 H1262 0.930 . S
N1257 Li1233 1.990 . S
N1257 C1256 1.314 . S
N1257 C1260 1.279 . S
C1258 C1256 1.353 . S
C1258 C1261 1.348 . S
C1258 H1306 0.929 . S
C1259 C1260 1.358 . S
C1259 C1261 1.356 . S
C1259 H1307 0.930 . S
C1260 N1257 1.279 . S
C1260 C1259 1.358 . S
C1260 H1263 0.930 . S
C1261 C1258 1.348 . S
C1261 C1259 1.356 . S
H1262 C1256 0.930 . S
H1263 C1260 0.930 . S
C1264 C1266 1.348 . S
C1264 C1267 1.356 . S
C1264 O1294 1.325 . S
N1265 C1268 1.314 . S
N1265 C1269 1.279 . S
C1266 C1264 1.348 . S
C1266 C1268 1.353 . S
C1266 H1308 0.929 . S
C1267 C1264 1.356 . S
C1267 C1269 1.358 . S
C1267 H1309 0.930 . S
C1268 N1265 1.314 . S
C1268 C1266 1.353 . S
C1268 H1310 0.930 . S
C1269 N1265 1.279 . S
C1269 C1267 1.358 . S
C1269 H1311 0.930 . S
C1270 C1271 1.348 . S
C1270 C1272 1.356 . S
C1270 O1295 1.325 . S
C1271 C1270 1.348 . S
C1271 C1273 1.353 . S
C1271 H1312 0.929 . S
C1272 C1270 1.356 . S
C1272 C1274 1.358 . S
C1272 H1313 0.930 . S
C1273 C1271 1.353 . S
C1273 N1275 1.314 . S
C1273 H1314 0.930 . S
C1274 C1272 1.358 . S
C1274 N1275 1.279 . S
C1274 H1315 0.930 . S
N1275 C1273 1.314 . S
N1275 C1274 1.279 . S
C1276 C1278 1.353 . S
C1276 N1279 1.314 . S
C1276 H1282 0.930 . S
C1277 N1279 1.279 . S
C1277 C1280 1.358 . S
C1277 H1283 0.930 . S
C1278 C1276 1.353 . S
C1278 C1281 1.348 . S
C1278 H1316 0.929 . S
N1279 Li1234 1.990 . S
N1279 C1276 1.314 . S
N1279 C1277 1.279 . S
C1280 C1277 1.358 . S
C1280 C1281 1.356 . S
C1280 H1317 0.930 . S
C1281 C1278 1.348 . S
C1281 C1280 1.356 . S
H1282 C1276 0.930 . S
H1283 C1277 0.930 . S
C1284 N1285 1.314 . S
C1284 C1286 1.353 . S
C1284 H1290 0.930 . S
N1285 Li1235 1.990 . S
N1285 C1284 1.314 . S
N1285 C1288 1.279 . S
C1286 C1284 1.353 . S
C1286 C1289 1.348 . S
C1286 H1318 0.929 . S
C1287 C1288 1.358 . S
C1287 C1289 1.356 . S
C1287 H1319 0.930 . S
C1288 N1285 1.279 . S
C1288 C1287 1.358 . S
C1288 H1291 0.930 . S
C1289 C1286 1.348 . S
C1289 C1287 1.356 . S
H1290 C1284 0.930 . S
H1291 C1288 0.930 . S
O1292 Li1232 1.956 . S
O1292 Li1233 1.970 . S
O1292 Li1234 1.961 . S
O1292 C1236 1.325 . S
O1293 Li1232 1.970 . S
O1293 Li1233 1.956 . S
O1293 Li1235 1.961 . S
O1293 C1242 1.325 . S
O1294 Li1232 1.961 . S
O1294 Li1234 1.956 . S
O1294 Li1235 1.970 . S
O1294 C1264 1.325 . S
O1295 Li1233 1.961 . S
O1295 Li1234 1.970 . S
O1295 Li1235 1.956 . S
O1295 C1270 1.325 . S
H1296 C1238 0.929 . S
H1297 C1239 0.930 . S
H1298 C1240 0.930 . S
H1299 C1241 0.930 . S
H1300 C1243 0.930 . S
H1301 C1245 0.929 . S
H1302 C1246 0.930 . S
H1303 C1247 0.930 . S
H1304 C1250 0.930 . S
H1305 C1253 0.929 . S
H1306 C1258 0.929 . S
H1307 C1259 0.930 . S
H1308 C1266 0.929 . S
H1309 C1267 0.930 . S
H1310 C1268 0.930 . S
H1311 C1269 0.930 . S
H1312 C1271 0.929 . S
H1313 C1272 0.930 . S
H1314 C1273 0.930 . S
H1315 C1274 0.930 . S
H1316 C1278 0.929 . S
H1317 C1280 0.930 . S
H1318 C1286 0.929 . S
H1319 C1287 0.930 . S
Li1320 N1337 1.990 . S
Li1320 O1380 1.956 . S
Li1320 O1381 1.970 . S
Li1320 O1382 1.961 . S
Li1321 N1345 1.990 . S
Li1321 O1380 1.970 . S
Li1321 O1381 1.956 . S
Li1321 O1383 1.961 . S
Li1322 N1367 1.990 . S
Li1322 O1380 1.961 . S
Li1322 O1382 1.956 . S
Li1322 O1383 1.970 . S
Li1323 N1373 1.990 . S
Li1323 O1381 1.961 . S
Li1323 O1382 1.970 . S
Li1323 O1383 1.956 . S
C1324 C1326 1.348 . S
C1324 C1327 1.356 . S
C1324 O1380 1.325 . S
N1325 C1328 1.314 . S
N1325 C1329 1.279 . S
C1326 C1324 1.348 . S
C1326 C1328 1.353 . S
C1326 H1384 0.929 . S
C1327 C1324 1.356 . S
C1327 C1329 1.358 . S
C1327 H1385 0.930 . S
C1328 N1325 1.314 . S
C1328 C1326 1.353 . S
C1328 H1386 0.930 . S
C1329 N1325 1.279 . S
C1329 C1327 1.358 . S
C1329 H1387 0.930 . S
C1330 C1333 1.348 . S
C1330 C1334 1.356 . S
C1330 O1381 1.325 . S
C1331 N1332 1.279 . S
C1331 C1334 1.358 . S
C1331 H1388 0.930 . S
N1332 C1331 1.279 . S
N1332 C1335 1.314 . S
C1333 C1330 1.348 . S
C1333 C1335 1.353 . S
C1333 H1389 0.929 . S
C1334 C1330 1.356 . S
C1334 C1331 1.358 . S
C1334 H1390 0.930 . S
C1335 N1332 1.314 . S
C1335 C1333 1.353 . S
C1335 H1391 0.930 . S
C1336 N1337 1.314 . S
C1336 C1341 1.353 . S
C1336 H1342 0.930 . S
N1337 Li1320 1.990 . S
N1337 C1336 1.314 . S
N1337 C1339 1.279 . S
C1338 C1339 1.358 . S
C1338 C1340 1.356 . S
C1338 H1392 0.930 . S
C1339 N1337 1.279 . S
C1339 C1338 1.358 . S
C1339 H1343 0.930 . S
C1340 C1338 1.356 . S
C1340 C1341 1.348 . S
C1341 C1336 1.353 . S
C1341 C1340 1.348 . S
C1341 H1393 0.929 . S
H1342 C1336 0.930 . S
H1343 C1339 0.930 . S
C1344 N1345 1.314 . S
C1344 C1346 1.353 . S
C1344 H1350 0.930 . S
N1345 Li1321 1.990 . S
N1345 C1344 1.314 . S
N1345 C1348 1.279 . S
C1346 C1344 1.353 . S
C1346 C1349 1.348 . S
C1346 H1394 0.929 . S
C1347 C1348 1.358 . S
C1347 C1349 1.356 . S
C1347 H1395 0.930 . S
C1348 N1345 1.279 . S
C1348 C1347 1.358 . S
C1348 H1351 0.930 . S
C1349 C1346 1.348 . S
C1349 C1347 1.356 . S
H1350 C1344 0.930 . S
H1351 C1348 0.930 . S
C1352 C1354 1.348 . S
C1352 C1355 1.356 . S
C1352 O1382 1.325 . S
N1353 C1356 1.314 . S
N1353 C1357 1.279 . S
C1354 C1352 1.348 . S
C1354 C1356 1.353 . S
C1354 H1396 0.929 . S
C1355 C1352 1.356 . S
C1355 C1357 1.358 . S
C1355 H1397 0.930 . S
C1356 N1353 1.314 . S
C1356 C1354 1.353 . S
C1356 H1398 0.930 . S
C1357 N1353 1.279 . S
C1357 C1355 1.358 . S
C1357 H1399 0.930 . S
C1358 C1359 1.348 . S
C1358 C1360 1.356 . S
C1358 O1383 1.325 . S
C1359 C1358 1.348 . S
C1359 C1361 1.353 . S
C1359 H1400 0.929 . S
C1360 C1358 1.356 . S
C1360 C1362 1.358 . S
C1360 H1401 0.930 . S
C1361 C1359 1.353 . S
C1361 N1363 1.314 . S
C1361 H1402 0.930 . S
C1362 C1360 1.358 . S
C1362 N1363 1.279 . S
C1362 H1403 0.930 . S
N1363 C1361 1.314 . S
N1363 C1362 1.279 . S
C1364 C1366 1.353 . S
C1364 N1367 1.314 . S
C1364 H1370 0.930 . S
C1365 N1367 1.279 . S
C1365 C1368 1.358 . S
C1365 H1371 0.930 . S
C1366 C1364 1.353 . S
C1366 C1369 1.348 . S
C1366 H1404 0.929 . S
N1367 Li1322 1.990 . S
N1367 C1364 1.314 . S
N1367 C1365 1.279 . S
C1368 C1365 1.358 . S
C1368 C1369 1.356 . S
C1368 H1405 0.930 . S
C1369 C1366 1.348 . S
C1369 C1368 1.356 . S
H1370 C1364 0.930 . S
H1371 C1365 0.930 . S
C1372 N1373 1.314 . S
C1372 C1374 1.353 . S
C1372 H1378 0.930 . S
N1373 Li1323 1.990 . S
N1373 C1372 1.314 . S
N1373 C1376 1.279 . S
C1374 C1372 1.353 . S
C1374 C1377 1.348 . S
C1374 H1406 0.929 . S
C1375 C1376 1.358 . S
C1375 C1377 1.356 . S
C1375 H1407 0.930 . S
C1376 N1373 1.279 . S
C1376 C1375 1.358 . S
C1376 H1379 0.930 . S
C1377 C1374 1.348 . S
C1377 C1375 1.356 . S
H1378 C1372 0.930 . S
H1379 C1376 0.930 . S
O1380 Li1320 1.956 . S
O1380 Li1321 1.970 . S
O1380 Li1322 1.961 . S
O1380 C1324 1.325 . S
O1381 Li1320 1.970 . S
O1381 Li1321 1.956 . S
O1381 Li1323 1.961 . S
O1381 C1330 1.325 . S
O1382 Li1320 1.961 . S
O1382 Li1322 1.956 . S
O1382 Li1323 1.970 . S
O1382 C1352 1.325 . S
O1383 Li1321 1.961 . S
O1383 Li1322 1.970 . S
O1383 Li1323 1.956 . S
O1383 C1358 1.325 . S
H1384 C1326 0.929 . S
H1385 C1327 0.930 . S
H1386 C1328 0.930 . S
H1387 C1329 0.930 . S
H1388 C1331 0.930 . S
H1389 C1333 0.929 . S
H1390 C1334 0.930 . S
H1391 C1335 0.930 . S
H1392 C1338 0.930 . S
H1393 C1341 0.929 . S
H1394 C1346 0.929 . S
H1395 C1347 0.930 . S
H1396 C1354 0.929 . S
H1397 C1355 0.930 . S
H1398 C1356 0.930 . S
H1399 C1357 0.930 . S
H1400 C1359 0.929 . S
H1401 C1360 0.930 . S
H1402 C1361 0.930 . S
H1403 C1362 0.930 . S
H1404 C1366 0.929 . S
H1405 C1368 0.930 . S
H1406 C1374 0.929 . S
H1407 C1375 0.930 . S
H1408 C1416 0.929 . S
H1409 C1418 0.930 . S
H1410 C1420 0.929 1_556 S
H1411 C1423 0.929 . S
H1412 C1426 0.930 . S
H1413 C1428 0.960 . S
H1414 C1428 0.960 . S
H1415 C1428 0.960 . S
C1416 H1408 0.929 . S
C1416 C1417 1.377 . S
C1416 C1418 1.384 . S
C1417 C1416 1.377 . S
C1417 C1423 1.390 . S
C1418 H1409 0.930 . S
C1418 C1416 1.384 . S
C1418 C1419 1.372 . S
C1419 C1418 1.372 . S
C1419 C1420 1.400 . S
C1419 C1424 1.490 1_554 S
C1420 H1410 0.929 1_554 S
C1420 C1419 1.400 . S
C1420 C1423 1.386 . S
H1421 C1437 0.930 . S
H1422 C1438 0.931 . S
C1423 H1411 0.929 . S
C1423 C1417 1.390 . S
C1423 C1420 1.386 . S
C1424 C1419 1.490 1_556 S
C1424 C1426 1.395 1_556 S
C1424 C1427 1.403 . S
H1425 C1431 0.930 . S
C1426 H1412 0.930 . S
C1426 C1424 1.395 1_554 S
C1426 C1429 1.403 1_554 S
C1427 C1424 1.403 . S
C1427 C1428 1.524 . S
C1427 C1431 1.400 . S
C1428 H1413 0.960 . S
C1428 H1414 0.960 . S
C1428 H1415 0.960 . S
C1428 C1427 1.524 . S
C1429 C1426 1.403 1_556 S
C1429 C1430 1.392 . S
C1429 C1433 1.495 1_556 S
C1430 C1429 1.392 . S
C1430 C1431 1.385 . S
C1430 C1432 1.478 . S
C1431 H1425 0.930 . S
C1431 C1427 1.400 . S
C1431 C1430 1.385 . S
C1432 C1430 1.478 . S
C1432 C1434 1.381 . S
C1432 C1438 1.383 . S
C1433 C1429 1.495 1_554 S
C1433 H1439 0.959 . S
C1433 H1440 0.961 . S
C1433 H1441 0.960 1_554 S
C1434 C1432 1.381 . S
C1434 C1435 1.394 . S
C1434 H1442 0.930 . S
C1435 C1434 1.394 . S
C1435 C1436 1.383 . S
C1435 H1443 0.929 . S
C1436 C1435 1.383 . S
C1436 C1437 1.377 . S
C1437 H1421 0.930 . S
C1437 C1436 1.377 . S
C1437 C1438 1.379 . S
C1438 H1422 0.931 . S
C1438 C1432 1.383 . S
C1438 C1437 1.379 . S
H1439 C1433 0.959 . S
H1440 C1433 0.961 . S
H1441 C1433 0.960 1_556 S
H1442 C1434 0.930 . S
H1443 C1435 0.929 . S
H1444 C1452 0.929 . S
H1445 C1454 0.930 . S
H1446 C1456 0.930 . S
H1447 C1459 0.929 . S
H1448 C1462 0.930 . S
H1449 C1464 0.960 . S
H1450 C1464 0.960 . S
H1451 C1464 0.960 . S
C1452 H1444 0.929 . S
C1452 C1453 1.377 . S
C1452 C1454 1.384 . S
C1453 C1452 1.377 . S
C1453 C1459 1.390 . S
C1454 H1445 0.930 . S
C1454 C1452 1.384 . S
C1454 C1455 1.372 . S
C1455 C1454 1.372 . S
C1455 C1456 1.400 . S
C1455 C1460 1.490 . S
C1456 H1446 0.930 . S
C1456 C1455 1.400 . S
C1456 C1459 1.386 . S
H1457 C1473 0.930 . S
H1458 C1474 0.931 1_556 S
C1459 H1447 0.929 . S
C1459 C1453 1.390 . S
C1459 C1456 1.386 . S
C1460 C1455 1.490 . S
C1460 C1462 1.395 . S
C1460 C1463 1.403 . S
H1461 C1467 0.930 . S
C1462 H1448 0.930 . S
C1462 C1460 1.395 . S
C1462 C1465 1.403 1_556 S
C1463 C1460 1.403 . S
C1463 C1464 1.524 . S
C1463 C1467 1.400 . S
C1464 H1449 0.960 . S
C1464 H1450 0.960 . S
C1464 H1451 0.960 . S
C1464 C1463 1.524 . S
C1465 C1462 1.403 1_554 S
C1465 C1466 1.392 1_554 S
C1465 C1469 1.495 . S
C1466 C1465 1.392 1_556 S
C1466 C1467 1.385 . S
C1466 C1468 1.478 1_556 S
C1467 H1461 0.930 . S
C1467 C1463 1.400 . S
C1467 C1466 1.385 . S
C1468 C1466 1.478 1_554 S
C1468 C1470 1.381 . S
C1468 C1474 1.383 . S
C1469 C1465 1.495 . S
C1469 H1475 0.959 . S
C1469 H1476 0.961 . S
C1469 H1477 0.960 . S
C1470 C1468 1.381 . S
C1470 C1471 1.394 . S
C1470 H1478 0.930 . S
C1471 C1470 1.394 . S
C1471 C1472 1.383 . S
C1471 H1479 0.929 . S
C1472 C1471 1.383 . S
C1472 C1473 1.377 . S
C1473 H1457 0.930 . S
C1473 C1472 1.377 . S
C1473 C1474 1.379 . S
C1474 H1458 0.931 1_554 S
C1474 C1468 1.383 . S
C1474 C1473 1.379 . S
H1475 C1469 0.959 . S
H1476 C1469 0.961 . S
H1477 C1469 0.960 . S
H1478 C1470 0.930 . S
H1479 C1471 0.929 . S
H1480 C1488 0.929 . S
H1481 C1490 0.930 . S
H1482 C1492 0.930 . S
H1483 C1495 0.929 . S
H1484 C1498 0.930 . S
H1485 C1500 0.960 . S
H1486 C1500 0.960 . S
H1487 C1500 0.960 . S
C1488 H1480 0.929 . S
C1488 C1489 1.377 . S
C1488 C1490 1.384 . S
C1489 C1488 1.377 . S
C1489 C1495 1.390 . S
C1490 H1481 0.930 . S
C1490 C1488 1.384 . S
C1490 C1491 1.372 . S
C1491 C1490 1.372 . S
C1491 C1492 1.400 . S
C1491 C1496 1.490 . S
C1492 H1482 0.930 . S
C1492 C1491 1.400 . S
C1492 C1495 1.386 . S
H1493 C1509 0.930 . S
H1494 C1510 0.931 . S
C1495 H1483 0.929 . S
C1495 C1489 1.390 . S
C1495 C1492 1.386 . S
C1496 C1491 1.490 . S
C1496 C1498 1.395 . S
C1496 C1499 1.403 . S
H1497 C1503 0.930 . S
C1498 H1484 0.930 . S
C1498 C1496 1.395 . S
C1498 C1501 1.403 . S
C1499 C1496 1.403 . S
C1499 C1500 1.524 . S
C1499 C1503 1.400 . S
C1500 H1485 0.960 . S
C1500 H1486 0.960 . S
C1500 H1487 0.960 . S
C1500 C1499 1.524 . S
C1501 C1498 1.403 . S
C1501 C1502 1.392 . S
C1501 C1505 1.495 1_556 S
C1502 C1501 1.392 . S
C1502 C1503 1.385 . S
C1502 C1504 1.478 1_556 S
C1503 H1497 0.930 . S
C1503 C1499 1.400 . S
C1503 C1502 1.385 . S
C1504 C1502 1.478 1_554 S
C1504 C1506 1.381 . S
C1504 C1510 1.383 . S
C1505 C1501 1.495 1_554 S
C1505 H1511 0.959 . S
C1505 H1512 0.961 . S
C1505 H1513 0.960 . S
C1506 C1504 1.381 . S
C1506 C1507 1.394 . S
C1506 H1514 0.930 1_554 S
C1507 C1506 1.394 . S
C1507 C1508 1.383 . S
C1507 H1515 0.929 . S
C1508 C1507 1.383 . S
C1508 C1509 1.377 . S
C1509 H1493 0.930 . S
C1509 C1508 1.377 . S
C1509 C1510 1.379 . S
C1510 H1494 0.931 . S
C1510 C1504 1.383 . S
C1510 C1509 1.379 . S
H1511 C1505 0.959 . S
H1512 C1505 0.961 . S
H1513 C1505 0.960 . S
H1514 C1506 0.930 1_556 S
H1515 C1507 0.929 . S
H1516 C1524 0.929 . S
H1517 C1526 0.930 . S
H1518 C1528 0.930 . S
H1519 C1531 0.929 . S
H1520 C1534 0.930 . S
H1521 C1536 0.960 . S
H1522 C1536 0.960 . S
H1523 C1536 0.960 . S
C1524 H1516 0.929 . S
C1524 C1525 1.377 . S
C1524 C1526 1.384 . S
C1525 C1524 1.377 . S
C1525 C1531 1.390 . S
C1526 H1517 0.930 . S
C1526 C1524 1.384 . S
C1526 C1527 1.372 . S
C1527 C1526 1.372 . S
C1527 C1528 1.400 . S
C1527 C1532 1.490 . S
C1528 H1518 0.930 . S
C1528 C1527 1.400 . S
C1528 C1531 1.386 . S
H1529 C1545 0.930 . S
H1530 C1546 0.931 . S
C1531 H1519 0.929 . S
C1531 C1525 1.390 . S
C1531 C1528 1.386 . S
C1532 C1527 1.490 . S
C1532 C1534 1.395 . S
C1532 C1535 1.403 . S
H1533 C1539 0.930 . S
C1534 H1520 0.930 . S
C1534 C1532 1.395 . S
C1534 C1537 1.403 . S
C1535 C1532 1.403 . S
C1535 C1536 1.524 . S
C1535 C1539 1.400 . S
C1536 H1521 0.960 . S
C1536 H1522 0.960 . S
C1536 H1523 0.960 . S
C1536 C1535 1.524 . S
C1537 C1534 1.403 . S
C1537 C1538 1.392 . S
C1537 C1541 1.495 1_556 S
C1538 C1537 1.392 . S
C1538 C1539 1.385 . S
C1538 C1540 1.478 1_556 S
C1539 H1533 0.930 . S
C1539 C1535 1.400 . S
C1539 C1538 1.385 . S
C1540 C1538 1.478 1_554 S
C1540 C1542 1.381 . S
C1540 C1546 1.383 1_554 S
C1541 C1537 1.495 1_554 S
C1541 H1547 0.959 . S
C1541 H1548 0.961 . S
C1541 H1549 0.960 . S
C1542 C1540 1.381 . S
C1542 C1543 1.394 . S
C1542 H1550 0.930 . S
C1543 C1542 1.394 . S
C1543 C1544 1.383 . S
C1543 H1551 0.929 . S
C1544 C1543 1.383 . S
C1544 C1545 1.377 . S
C1545 H1529 0.930 . S
C1545 C1544 1.377 . S
C1545 C1546 1.379 1_554 S
C1546 H1530 0.931 . S
C1546 C1540 1.383 1_556 S
C1546 C1545 1.379 1_556 S
H1547 C1541 0.959 . S
H1548 C1541 0.961 . S
H1549 C1541 0.960 . S
H1550 C1542 0.930 . S
H1551 C1543 0.929 . S
H1552 C1560 0.929 . S
H1553 C1562 0.930 . S
H1554 C1564 0.930 . S
H1555 C1567 0.929 . S
H1556 C1570 0.930 . S
H1557 C1572 0.960 . S
H1558 C1572 0.960 . S
H1559 C1572 0.960 . S
C1560 H1552 0.929 . S
C1560 C1561 1.377 . S
C1560 C1562 1.384 . S
C1561 C1560 1.377 . S
C1561 C1567 1.390 . S
C1562 H1553 0.930 . S
C1562 C1560 1.384 . S
C1562 C1563 1.372 . S
C1563 C1562 1.372 . S
C1563 C1564 1.400 . S
C1563 C1568 1.490 . S
C1564 H1554 0.930 . S
C1564 C1563 1.400 . S
C1564 C1567 1.386 . S
H1565 C1581 0.930 . S
H1566 C1582 0.931 . S
C1567 H1555 0.929 . S
C1567 C1561 1.390 . S
C1567 C1564 1.386 . S
C1568 C1563 1.490 . S
C1568 C1570 1.395 . S
C1568 C1571 1.403 . S
H1569 C1575 0.930 . S
C1570 H1556 0.930 . S
C1570 C1568 1.395 . S
C1570 C1573 1.403 . S
C1571 C1568 1.403 . S
C1571 C1572 1.524 . S
C1571 C1575 1.400 . S
C1572 H1557 0.960 . S
C1572 H1558 0.960 . S
C1572 H1559 0.960 . S
C1572 C1571 1.524 . S
C1573 C1570 1.403 . S
C1573 C1574 1.392 . S
C1573 C1577 1.495 . S
C1574 C1573 1.392 . S
C1574 C1575 1.385 . S
C1574 C1576 1.478 . S
C1575 H1569 0.930 . S
C1575 C1571 1.400 . S
C1575 C1574 1.385 . S
C1576 C1574 1.478 . S
C1576 C1578 1.381 . S
C1576 C1582 1.383 . S
C1577 C1573 1.495 . S
C1577 H1583 0.959 . S
C1577 H1584 0.961 . S
C1577 H1585 0.960 . S
C1578 C1576 1.381 . S
C1578 C1579 1.394 . S
C1578 H1586 0.930 . S
C1579 C1578 1.394 . S
C1579 C1580 1.383 . S
C1579 H1587 0.929 . S
C1580 C1579 1.383 . S
C1580 C1581 1.377 . S
C1581 H1565 0.930 . S
C1581 C1580 1.377 . S
C1581 C1582 1.379 . S
C1582 H1566 0.931 . S
C1582 C1576 1.383 . S
C1582 C1581 1.379 . S
H1583 C1577 0.959 . S
H1584 C1577 0.961 . S
H1585 C1577 0.960 . S
H1586 C1578 0.930 . S
H1587 C1579 0.929 . S
H1588 C1596 0.929 . S
H1589 C1598 0.930 . S
H1590 C1600 0.930 . S
H1591 C1603 0.929 . S
H1592 C1606 0.930 . S
H1593 C1608 0.960 . S
H1594 C1608 0.960 . S
H1595 C1608 0.960 . S
C1596 H1588 0.929 . S
C1596 C1597 1.377 . S
C1596 C1598 1.384 . S
C1597 C1596 1.377 . S
C1597 C1603 1.390 . S
C1598 H1589 0.930 . S
C1598 C1596 1.384 . S
C1598 C1599 1.372 . S
C1599 C1598 1.372 . S
C1599 C1600 1.400 . S
C1599 C1604 1.490 . S
C1600 H1590 0.930 . S
C1600 C1599 1.400 . S
C1600 C1603 1.386 . S
H1601 C1617 0.930 . S
H1602 C1618 0.931 . S
C1603 H1591 0.929 . S
C1603 C1597 1.390 . S
C1603 C1600 1.386 . S
C1604 C1599 1.490 . S
C1604 C1606 1.395 . S
C1604 C1607 1.403 . S
H1605 C1611 0.930 . S
C1606 H1592 0.930 . S
C1606 C1604 1.395 . S
C1606 C1609 1.403 . S
C1607 C1604 1.403 . S
C1607 C1608 1.524 . S
C1607 C1611 1.400 . S
C1608 H1593 0.960 . S
C1608 H1594 0.960 . S
C1608 H1595 0.960 . S
C1608 C1607 1.524 . S
C1609 C1606 1.403 . S
C1609 C1610 1.392 . S
C1609 C1613 1.495 . S
C1610 C1609 1.392 . S
C1610 C1611 1.385 . S
C1610 C1612 1.478 . S
C1611 H1605 0.930 . S
C1611 C1607 1.400 . S
C1611 C1610 1.385 . S
C1612 C1610 1.478 . S
C1612 C1614 1.381 . S
C1612 C1618 1.383 . S
C1613 C1609 1.495 . S
C1613 H1619 0.959 . S
C1613 H1620 0.961 . S
C1613 H1621 0.960 . S
C1614 C1612 1.381 . S
C1614 C1615 1.394 . S
C1614 H1622 0.930 . S
C1615 C1614 1.394 . S
C1615 C1616 1.383 . S
C1615 H1623 0.929 . S
C1616 C1615 1.383 . S
C1616 C1617 1.377 . S
C1617 H1601 0.930 . S
C1617 C1616 1.377 . S
C1617 C1618 1.379 . S
C1618 H1602 0.931 . S
C1618 C1612 1.383 . S
C1618 C1617 1.379 . S
H1619 C1613 0.959 . S
H1620 C1613 0.961 . S
H1621 C1613 0.960 . S
H1622 C1614 0.930 . S
H1623 C1615 0.929 . S
H1624 C1632 0.929 . S
H1625 C1634 0.930 . S
H1626 C1636 0.930 . S
H1627 C1639 0.929 . S
H1628 C1642 0.930 . S
H1629 C1644 0.960 . S
H1630 C1644 0.960 . S
H1631 C1644 0.960 . S
C1632 H1624 0.929 . S
C1632 C1633 1.377 . S
C1632 C1634 1.384 . S
C1633 C1632 1.377 . S
C1633 C1639 1.390 . S
C1634 H1625 0.930 . S
C1634 C1632 1.384 . S
C1634 C1635 1.372 . S
C1635 C1634 1.372 . S
C1635 C1636 1.400 . S
C1635 C1640 1.490 . S
C1636 H1626 0.930 . S
C1636 C1635 1.400 . S
C1636 C1639 1.386 . S
H1637 C1653 0.930 . S
H1638 C1654 0.931 . S
C1639 H1627 0.929 . S
C1639 C1633 1.390 . S
C1639 C1636 1.386 . S
C1640 C1635 1.490 . S
C1640 C1642 1.395 . S
C1640 C1643 1.403 . S
H1641 C1647 0.930 . S
C1642 H1628 0.930 . S
C1642 C1640 1.395 . S
C1642 C1645 1.403 . S
C1643 C1640 1.403 . S
C1643 C1644 1.524 . S
C1643 C1647 1.400 . S
C1644 H1629 0.960 . S
C1644 H1630 0.960 . S
C1644 H1631 0.960 . S
C1644 C1643 1.524 . S
C1645 C1642 1.403 . S
C1645 C1646 1.392 . S
C1645 C1649 1.495 . S
C1646 C1645 1.392 . S
C1646 C1647 1.385 . S
C1646 C1648 1.478 . S
C1647 H1641 0.930 . S
C1647 C1643 1.400 . S
C1647 C1646 1.385 . S
C1648 C1646 1.478 . S
C1648 C1650 1.381 . S
C1648 C1654 1.383 . S
C1649 C1645 1.495 . S
C1649 H1655 0.959 . S
C1649 H1656 0.961 . S
C1649 H1657 0.960 . S
C1650 C1648 1.381 . S
C1650 C1651 1.394 . S
C1650 H1658 0.930 . S
C1651 C1650 1.394 . S
C1651 C1652 1.383 . S
C1651 H1659 0.929 . S
C1652 C1651 1.383 . S
C1652 C1653 1.377 . S
C1653 H1637 0.930 . S
C1653 C1652 1.377 . S
C1653 C1654 1.379 . S
C1654 H1638 0.931 . S
C1654 C1648 1.383 . S
C1654 C1653 1.379 . S
H1655 C1649 0.959 . S
H1656 C1649 0.961 . S
H1657 C1649 0.960 . S
H1658 C1650 0.930 . S
H1659 C1651 0.929 . S
H1660 C1668 0.929 . S
H1661 C1670 0.930 . S
H1662 C1672 0.930 . S
H1663 C1675 0.929 . S
H1664 C1678 0.930 . S
H1665 C1680 0.960 . S
H1666 C1680 0.960 . S
H1667 C1680 0.960 . S
C1668 H1660 0.929 . S
C1668 C1669 1.377 . S
C1668 C1670 1.384 . S
C1669 C1668 1.377 . S
C1669 C1675 1.390 . S
C1670 H1661 0.930 . S
C1670 C1668 1.384 . S
C1670 C1671 1.372 . S
C1671 C1670 1.372 . S
C1671 C1672 1.400 . S
C1671 C1676 1.490 . S
C1672 H1662 0.930 . S
C1672 C1671 1.400 . S
C1672 C1675 1.386 . S
H1673 C1689 0.930 . S
H1674 C1690 0.931 . S
C1675 H1663 0.929 . S
C1675 C1669 1.390 . S
C1675 C1672 1.386 . S
C1676 C1671 1.490 . S
C1676 C1678 1.395 . S
C1676 C1679 1.403 . S
H1677 C1683 0.930 . S
C1678 H1664 0.930 . S
C1678 C1676 1.395 . S
C1678 C1681 1.403 . S
C1679 C1676 1.403 . S
C1679 C1680 1.524 . S
C1679 C1683 1.400 . S
C1680 H1665 0.960 . S
C1680 H1666 0.960 . S
C1680 H1667 0.960 . S
C1680 C1679 1.524 . S
C1681 C1678 1.403 . S
C1681 C1682 1.392 . S
C1681 C1685 1.495 . S
C1682 C1681 1.392 . S
C1682 C1683 1.385 . S
C1682 C1684 1.478 . S
C1683 H1677 0.930 . S
C1683 C1679 1.400 . S
C1683 C1682 1.385 . S
C1684 C1682 1.478 . S
C1684 C1686 1.381 . S
C1684 C1690 1.383 . S
C1685 C1681 1.495 . S
C1685 H1691 0.959 . S
C1685 H1692 0.961 . S
C1685 H1693 0.960 . S
C1686 C1684 1.381 . S
C1686 C1687 1.394 . S
C1686 H1694 0.930 . S
C1687 C1686 1.394 . S
C1687 C1688 1.383 . S
C1687 H1695 0.929 . S
C1688 C1687 1.383 . S
C1688 C1689 1.377 . S
C1689 H1673 0.930 . S
C1689 C1688 1.377 . S
C1689 C1690 1.379 . S
C1690 H1674 0.931 . S
C1690 C1684 1.383 . S
C1690 C1689 1.379 . S
H1691 C1685 0.959 . S
H1692 C1685 0.961 . S
H1693 C1685 0.960 . S
H1694 C1686 0.930 . S
H1695 C1687 0.929 . S
H1696 C1704 0.929 . S
H1697 C1706 0.930 . S
H1698 C1708 0.930 . S
H1699 C1711 0.919 1_554 S
H1700 C1714 0.930 1_556 S
H1701 C1716 0.960 . S
H1702 C1716 0.960 . S
H1703 C1716 0.960 . S
C1704 H1696 0.929 . S
C1704 C1705 1.377 . S
C1704 C1706 1.384 . S
C1705 C1704 1.377 . S
C1705 C1711 1.390 . S
C1706 H1697 0.930 . S
C1706 C1704 1.384 . S
C1706 C1707 1.372 . S
C1707 C1706 1.372 . S
C1707 C1708 1.400 1_556 S
C1707 C1712 1.490 1_556 S
C1708 H1698 0.930 . S
C1708 C1707 1.400 1_554 S
C1708 C1711 1.386 1_554 S
H1709 C1725 0.930 . S
H1710 C1726 0.931 . S
C1711 H1699 0.919 1_556 S
C1711 C1705 1.390 . S
C1711 C1708 1.386 1_556 S
C1712 C1707 1.490 1_554 S
C1712 C1714 1.395 . S
C1712 C1715 1.403 . S
H1713 C1719 0.930 . S
C1714 H1700 0.930 1_554 S
C1714 C1712 1.395 . S
C1714 C1717 1.403 . S
C1715 C1712 1.403 . S
C1715 C1716 1.524 . S
C1715 C1719 1.400 . S
C1716 H1701 0.960 . S
C1716 H1702 0.960 . S
C1716 H1703 0.960 . S
C1716 C1715 1.524 . S
C1717 C1714 1.403 . S
C1717 C1718 1.392 . S
C1717 C1721 1.495 . S
C1718 C1717 1.392 . S
C1718 C1719 1.385 . S
C1718 C1720 1.478 . S
C1719 H1713 0.930 . S
C1719 C1715 1.400 . S
C1719 C1718 1.385 . S
C1720 C1718 1.478 . S
C1720 C1722 1.381 . S
C1720 C1726 1.383 . S
C1721 C1717 1.495 . S
C1721 H1727 0.959 1_554 S
C1721 H1728 0.961 . S
C1721 H1729 0.960 . S
C1722 C1720 1.381 . S
C1722 C1723 1.394 . S
C1722 H1730 0.930 . S
C1723 C1722 1.394 . S
C1723 C1724 1.383 . S
C1723 H1731 0.929 . S
C1724 C1723 1.383 . S
C1724 C1725 1.377 . S
C1725 H1709 0.930 . S
C1725 C1724 1.377 . S
C1725 C1726 1.379 . S
C1726 H1710 0.931 . S
C1726 C1720 1.383 . S
C1726 C1725 1.379 . S
H1727 C1721 0.959 1_556 S
H1728 C1721 0.961 . S
H1729 C1721 0.960 . S
H1730 C1722 0.930 . S
H1731 C1723 0.929 . S
H1732 C1740 0.929 . S
H1733 C1742 0.959 . S
H1734 C1744 0.930 . S
H1735 C1747 0.929 . S
H1736 C1750 0.930 . S
H1737 C1752 0.960 . S
H1738 C1752 0.960 . S
H1739 C1752 0.960 . S
C1740 H1732 0.929 . S
C1740 C1741 1.377 . S
C1740 C1742 1.363 1_556 S
C1741 C1740 1.377 . S
C1741 C1747 1.390 . S
C1742 H1733 0.959 . S
C1742 C1740 1.363 1_554 S
C1742 C1743 1.365 1_554 S
C1743 C1742 1.365 1_556 S
C1743 C1744 1.400 . S
C1743 C1748 1.490 1_556 S
C1744 H1734 0.930 . S
C1744 C1743 1.400 . S
C1744 C1747 1.386 . S
H1745 C1761 0.930 . S
H1746 C1762 0.931 . S
C1747 H1735 0.929 . S
C1747 C1741 1.390 . S
C1747 C1744 1.386 . S
C1748 C1743 1.490 1_554 S
C1748 C1750 1.395 . S
C1748 C1751 1.403 . S
H1749 C1755 0.930 . S
C1750 H1736 0.930 . S
C1750 C1748 1.395 . S
C1750 C1753 1.403 . S
C1751 C1748 1.403 . S
C1751 C1752 1.524 1_554 S
C1751 C1755 1.400 . S
C1752 H1737 0.960 . S
C1752 H1738 0.960 . S
C1752 H1739 0.960 . S
C1752 C1751 1.524 1_556 S
C1753 C1750 1.403 . S
C1753 C1754 1.392 . S
C1753 C1757 1.495 . S
C1754 C1753 1.392 . S
C1754 C1755 1.385 . S
C1754 C1756 1.478 . S
C1755 H1749 0.930 . S
C1755 C1751 1.400 . S
C1755 C1754 1.385 . S
C1756 C1754 1.478 . S
C1756 C1758 1.381 . S
C1756 C1762 1.383 . S
C1757 C1753 1.495 . S
C1757 H1763 0.959 . S
C1757 H1764 0.961 . S
C1757 H1765 0.960 . S
C1758 C1756 1.381 . S
C1758 C1759 1.394 . S
C1758 H1766 0.930 . S
C1759 C1758 1.394 . S
C1759 C1760 1.383 . S
C1759 H1767 0.929 . S
C1760 C1759 1.383 . S
C1760 C1761 1.377 . S
C1761 H1745 0.930 . S
C1761 C1760 1.377 . S
C1761 C1762 1.379 . S
C1762 H1746 0.931 . S
C1762 C1756 1.383 . S
C1762 C1761 1.379 . S
H1763 C1757 0.959 . S
H1764 C1757 0.961 . S
H1765 C1757 0.960 . S
H1766 C1758 0.930 . S
H1767 C1759 0.929 . S
H1768 C1776 0.929 . S
H1769 C1778 0.930 . S
H1770 C1780 0.930 . S
H1771 C1783 0.917 1_554 S
H1772 C1786 0.930 1_556 S
H1773 C1788 0.960 . S
H1774 C1788 0.960 . S
H1775 C1788 0.960 . S
C1776 H1768 0.929 . S
C1776 C1777 1.377 . S
C1776 C1778 1.384 . S
C1777 C1776 1.377 . S
C1777 C1783 1.390 . S
C1778 H1769 0.930 . S
C1778 C1776 1.384 . S
C1778 C1779 1.372 . S
C1779 C1778 1.372 . S
C1779 C1780 1.400 1_556 S
C1779 C1784 1.490 1_556 S
C1780 H1770 0.930 . S
C1780 C1779 1.400 1_554 S
C1780 C1783 1.386 1_554 S
H1781 C1797 0.930 . S
H1782 C1798 0.931 . S
C1783 H1771 0.917 1_556 S
C1783 C1777 1.390 . S
C1783 C1780 1.386 1_556 S
C1784 C1779 1.490 1_554 S
C1784 C1786 1.395 . S
C1784 C1787 1.403 . S
H1785 C1791 0.930 . S
C1786 H1772 0.930 1_554 S
C1786 C1784 1.395 . S
C1786 C1789 1.403 . S
C1787 C1784 1.403 . S
C1787 C1788 1.524 . S
C1787 C1791 1.400 . S
C1788 H1773 0.960 . S
C1788 H1774 0.960 . S
C1788 H1775 0.960 . S
C1788 C1787 1.524 . S
C1789 C1786 1.403 . S
C1789 C1790 1.392 . S
C1789 C1793 1.495 . S
C1790 C1789 1.392 . S
C1790 C1791 1.385 . S
C1790 C1792 1.478 . S
C1791 H1785 0.930 . S
C1791 C1787 1.400 . S
C1791 C1790 1.385 . S
C1792 C1790 1.478 . S
C1792 C1794 1.381 . S
C1792 C1798 1.383 . S
C1793 C1789 1.495 . S
C1793 H1799 0.959 . S
C1793 H1800 0.961 . S
C1793 H1801 0.960 . S
C1794 C1792 1.381 . S
C1794 C1795 1.394 . S
C1794 H1802 0.930 . S
C1795 C1794 1.394 . S
C1795 C1796 1.383 . S
C1795 H1803 0.929 . S
C1796 C1795 1.383 . S
C1796 C1797 1.377 . S
C1797 H1781 0.930 . S
C1797 C1796 1.377 . S
C1797 C1798 1.379 . S
C1798 H1782 0.931 . S
C1798 C1792 1.383 . S
C1798 C1797 1.379 . S
H1799 C1793 0.959 . S
H1800 C1793 0.961 . S
H1801 C1793 0.960 . S
H1802 C1794 0.930 . S
H1803 C1795 0.929 . S
H1804 C1812 0.929 . S
H1805 C1814 0.930 . S
H1806 C1816 0.930 . S
H1807 C1819 0.929 . S
H1808 C1822 0.930 . S
H1809 C1824 0.960 . S
H1810 C1824 0.960 . S
H1811 C1824 0.960 . S
C1812 H1804 0.929 . S
C1812 C1813 1.377 . S
C1812 C1814 1.384 . S
C1813 C1812 1.377 . S
C1813 C1819 1.390 . S
C1814 H1805 0.930 . S
C1814 C1812 1.384 . S
C1814 C1815 1.372 . S
C1815 C1814 1.372 . S
C1815 C1816 1.400 . S
C1815 C1820 1.490 . S
C1816 H1806 0.930 . S
C1816 C1815 1.400 . S
C1816 C1819 1.386 . S
H1817 C1833 0.930 . S
H1818 C1834 0.931 1_554 S
C1819 H1807 0.929 . S
C1819 C1813 1.390 . S
C1819 C1816 1.386 . S
C1820 C1815 1.490 . S
C1820 C1822 1.395 . S
C1820 C1823 1.403 . S
H1821 C1827 0.930 . S
C1822 H1808 0.930 . S
C1822 C1820 1.395 . S
C1822 C1825 1.403 1_554 S
C1823 C1820 1.403 . S
C1823 C1824 1.524 . S
C1823 C1827 1.400 . S
C1824 H1809 0.960 . S
C1824 H1810 0.960 . S
C1824 H1811 0.960 . S
C1824 C1823 1.524 . S
C1825 C1822 1.403 1_556 S
C1825 C1826 1.392 1_556 S
C1825 C1829 1.495 . S
C1826 C1825 1.392 1_554 S
C1826 C1827 1.385 . S
C1826 C1828 1.478 1_554 S
C1827 H1821 0.930 . S
C1827 C1823 1.400 . S
C1827 C1826 1.385 . S
C1828 C1826 1.478 1_556 S
C1828 C1830 1.381 . S
C1828 C1834 1.383 . S
C1829 C1825 1.495 . S
C1829 H1835 0.959 . S
C1829 H1836 0.961 . S
C1829 H1837 0.960 . S
C1830 C1828 1.381 . S
C1830 C1831 1.394 . S
C1830 H1838 0.930 . S
C1831 C1830 1.394 . S
C1831 C1832 1.383 . S
C1831 H1839 0.929 . S
C1832 C1831 1.383 . S
C1832 C1833 1.377 . S
C1833 H1817 0.930 . S
C1833 C1832 1.377 . S
C1833 C1834 1.379 . S
C1834 H1818 0.931 1_556 S
C1834 C1828 1.383 . S
C1834 C1833 1.379 . S
H1835 C1829 0.959 . S
H1836 C1829 0.961 . S
H1837 C1829 0.960 . S
H1838 C1830 0.930 . S
H1839 C1831 0.929 . S
H1840 C1848 0.929 . S
H1841 C1850 0.930 . S
H1842 C1852 0.930 . S
H1843 C1855 0.929 . S
H1844 C1858 0.930 . S
H1845 C1860 0.960 . S
H1846 C1860 0.960 . S
H1847 C1860 0.960 . S
C1848 H1840 0.929 . S
C1848 C1849 1.377 . S
C1848 C1850 1.384 . S
C1849 C1848 1.377 . S
C1849 C1855 1.390 . S
C1850 H1841 0.930 . S
C1850 C1848 1.384 . S
C1850 C1851 1.372 . S
C1851 C1850 1.372 . S
C1851 C1852 1.400 . S
C1851 C1856 1.490 . S
C1852 H1842 0.930 . S
C1852 C1851 1.400 . S
C1852 C1855 1.386 . S
H1853 C1869 0.930 . S
H1854 C1870 0.931 . S
C1855 H1843 0.929 . S
C1855 C1849 1.390 . S
C1855 C1852 1.386 . S
C1856 C1851 1.490 . S
C1856 C1858 1.395 . S
C1856 C1859 1.403 . S
H1857 C1863 0.930 . S
C1858 H1844 0.930 . S
C1858 C1856 1.395 . S
C1858 C1861 1.403 . S
C1859 C1856 1.403 . S
C1859 C1860 1.524 . S
C1859 C1863 1.400 . S
C1860 H1845 0.960 . S
C1860 H1846 0.960 . S
C1860 H1847 0.960 . S
C1860 C1859 1.524 . S
C1861 C1858 1.403 . S
C1861 C1862 1.392 . S
C1861 C1865 1.495 . S
C1862 C1861 1.392 . S
C1862 C1863 1.385 . S
C1862 C1864 1.478 . S
C1863 H1857 0.930 . S
C1863 C1859 1.400 . S
C1863 C1862 1.385 . S
C1864 C1862 1.478 . S
C1864 C1866 1.381 . S
C1864 C1870 1.383 . S
C1865 C1861 1.495 . S
C1865 H1871 0.959 . S
C1865 H1872 0.961 . S
C1865 H1873 0.960 . S
C1866 C1864 1.381 . S
C1866 C1867 1.394 . S
C1866 H1874 0.930 . S
C1867 C1866 1.394 . S
C1867 C1868 1.383 . S
C1867 H1875 0.929 . S
C1868 C1867 1.383 . S
C1868 C1869 1.377 . S
C1869 H1853 0.930 . S
C1869 C1868 1.377 . S
C1869 C1870 1.379 . S
C1870 H1854 0.931 . S
C1870 C1864 1.383 . S
C1870 C1869 1.379 . S
H1871 C1865 0.959 . S
H1872 C1865 0.961 . S
H1873 C1865 0.960 . S
H1874 C1866 0.930 . S
H1875 C1867 0.929 . S
H1876 C1884 0.929 . S
H1877 C1886 0.930 . S
H1878 C1888 0.930 . S
H1879 C1891 0.929 . S
H1880 C1894 0.930 . S
H1881 C1896 0.960 . S
H1882 C1896 0.960 . S
H1883 C1896 0.960 . S
C1884 H1876 0.929 . S
C1884 C1885 1.377 . S
C1884 C1886 1.384 . S
C1885 C1884 1.377 . S
C1885 C1891 1.390 . S
C1886 H1877 0.930 . S
C1886 C1884 1.384 . S
C1886 C1887 1.372 . S
C1887 C1886 1.372 . S
C1887 C1888 1.400 . S
C1887 C1892 1.490 . S
C1888 H1878 0.930 . S
C1888 C1887 1.400 . S
C1888 C1891 1.386 . S
H1889 C1905 0.930 . S
H1890 C1906 0.931 . S
C1891 H1879 0.929 . S
C1891 C1885 1.390 . S
C1891 C1888 1.386 . S
C1892 C1887 1.490 . S
C1892 C1894 1.395 . S
C1892 C1895 1.403 . S
H1893 C1899 0.930 . S
C1894 H1880 0.930 . S
C1894 C1892 1.395 . S
C1894 C1897 1.403 . S
C1895 C1892 1.403 . S
C1895 C1896 1.524 . S
C1895 C1899 1.400 . S
C1896 H1881 0.960 . S
C1896 H1882 0.960 . S
C1896 H1883 0.960 . S
C1896 C1895 1.524 . S
C1897 C1894 1.403 . S
C1897 C1898 1.392 . S
C1897 C1901 1.495 . S
C1898 C1897 1.392 . S
C1898 C1899 1.385 . S
C1898 C1900 1.478 . S
C1899 H1893 0.930 . S
C1899 C1895 1.400 . S
C1899 C1898 1.385 . S
C1900 C1898 1.478 . S
C1900 C1902 1.381 . S
C1900 C1906 1.383 . S
C1901 C1897 1.495 . S
C1901 H1907 0.959 . S
C1901 H1908 0.961 . S
C1901 H1909 0.960 . S
C1902 C1900 1.381 . S
C1902 C1903 1.394 . S
C1902 H1910 0.930 . S
C1903 C1902 1.394 . S
C1903 C1904 1.383 . S
C1903 H1911 0.929 . S
C1904 C1903 1.383 . S
C1904 C1905 1.377 . S
C1905 H1889 0.930 . S
C1905 C1904 1.377 . S
C1905 C1906 1.379 . S
C1906 H1890 0.931 . S
C1906 C1900 1.383 . S
C1906 C1905 1.379 . S
H1907 C1901 0.959 . S
H1908 C1901 0.961 . S
H1909 C1901 0.960 . S
H1910 C1902 0.930 . S
H1911 C1903 0.929 . S
H1912 C1920 0.929 . S
H1913 C1922 0.930 . S
H1914 C1924 0.930 . S
H1915 C1927 0.929 . S
H1916 C1930 0.930 . S
H1917 C1932 0.960 . S
H1918 C1932 0.960 . S
H1919 C1932 0.960 . S
C1920 H1912 0.929 . S
C1920 C1921 1.377 . S
C1920 C1922 1.384 . S
C1921 C1920 1.377 . S
C1921 C1927 1.390 . S
C1922 H1913 0.930 . S
C1922 C1920 1.384 . S
C1922 C1923 1.372 . S
C1923 C1922 1.372 . S
C1923 C1924 1.400 . S
C1923 C1928 1.490 . S
C1924 H1914 0.930 . S
C1924 C1923 1.400 . S
C1924 C1927 1.386 . S
H1925 C1941 0.930 . S
H1926 C1942 0.931 . S
C1927 H1915 0.929 . S
C1927 C1921 1.390 . S
C1927 C1924 1.386 . S
C1928 C1923 1.490 . S
C1928 C1930 1.395 . S
C1928 C1931 1.403 . S
H1929 C1935 0.930 . S
C1930 H1916 0.930 . S
C1930 C1928 1.395 . S
C1930 C1933 1.403 . S
C1931 C1928 1.403 . S
C1931 C1932 1.524 . S
C1931 C1935 1.400 . S
C1932 H1917 0.960 . S
C1932 H1918 0.960 . S
C1932 H1919 0.960 . S
C1932 C1931 1.524 . S
C1933 C1930 1.403 . S
C1933 C1934 1.392 . S
C1933 C1937 1.495 . S
C1934 C1933 1.392 . S
C1934 C1935 1.385 . S
C1934 C1936 1.478 . S
C1935 H1929 0.930 . S
C1935 C1931 1.400 . S
C1935 C1934 1.385 . S
C1936 C1934 1.478 . S
C1936 C1938 1.381 . S
C1936 C1942 1.383 . S
C1937 C1933 1.495 . S
C1937 H1943 0.959 . S
C1937 H1944 0.961 . S
C1937 H1945 0.960 . S
C1938 C1936 1.381 . S
C1938 C1939 1.394 . S
C1938 H1946 0.930 . S
C1939 C1938 1.394 . S
C1939 C1940 1.383 . S
C1939 H1947 0.929 . S
C1940 C1939 1.383 . S
C1940 C1941 1.377 . S
C1941 H1925 0.930 . S
C1941 C1940 1.377 . S
C1941 C1942 1.379 . S
C1942 H1926 0.931 . S
C1942 C1936 1.383 . S
C1942 C1941 1.379 . S
H1943 C1937 0.959 . S
H1944 C1937 0.961 . S
H1945 C1937 0.960 . S
H1946 C1938 0.930 . S
H1947 C1939 0.929 . S
H1948 C1956 0.929 . S
H1949 C1958 0.930 . S
H1950 C1960 0.930 . S
H1951 C1963 0.929 . S
H1952 C1966 0.930 . S
H1953 C1968 0.960 . S
H1954 C1968 0.960 . S
H1955 C1968 0.960 . S
C1956 H1948 0.929 . S
C1956 C1957 1.377 . S
C1956 C1958 1.384 . S
C1957 C1956 1.377 . S
C1957 C1963 1.390 . S
C1958 H1949 0.930 . S
C1958 C1956 1.384 . S
C1958 C1959 1.372 . S
C1959 C1958 1.372 . S
C1959 C1960 1.400 . S
C1959 C1964 1.490 . S
C1960 H1950 0.930 . S
C1960 C1959 1.400 . S
C1960 C1963 1.386 . S
H1961 C1977 0.930 . S
H1962 C1978 0.931 . S
C1963 H1951 0.929 . S
C1963 C1957 1.390 . S
C1963 C1960 1.386 . S
C1964 C1959 1.490 . S
C1964 C1966 1.395 . S
C1964 C1967 1.403 . S
H1965 C1971 0.930 . S
C1966 H1952 0.930 . S
C1966 C1964 1.395 . S
C1966 C1969 1.403 . S
C1967 C1964 1.403 . S
C1967 C1968 1.524 . S
C1967 C1971 1.400 . S
C1968 H1953 0.960 . S
C1968 H1954 0.960 . S
C1968 H1955 0.960 . S
C1968 C1967 1.524 . S
C1969 C1966 1.403 . S
C1969 C1970 1.392 . S
C1969 C1973 1.495 . S
C1970 C1969 1.392 . S
C1970 C1971 1.385 . S
C1970 C1972 1.478 . S
C1971 H1965 0.930 . S
C1971 C1967 1.400 . S
C1971 C1970 1.385 . S
C1972 C1970 1.478 . S
C1972 C1974 1.381 . S
C1972 C1978 1.383 . S
C1973 C1969 1.495 . S
C1973 H1979 0.959 . S
C1973 H1980 0.961 . S
C1973 H1981 0.960 . S
C1974 C1972 1.381 . S
C1974 C1975 1.394 . S
C1974 H1982 0.930 . S
C1975 C1974 1.394 . S
C1975 C1976 1.383 . S
C1975 H1983 0.929 . S
C1976 C1975 1.383 . S
C1976 C1977 1.377 . S
C1977 H1961 0.930 . S
C1977 C1976 1.377 . S
C1977 C1978 1.379 . S
C1978 H1962 0.931 . S
C1978 C1972 1.383 . S
C1978 C1977 1.379 . S
H1979 C1973 0.959 . S
H1980 C1973 0.961 . S
H1981 C1973 0.960 . S
H1982 C1974 0.930 . S
H1983 C1975 0.929 . S
H1984 C1992 0.929 . S
H1985 C1994 0.930 . S
H1986 C1996 0.930 . S
H1987 C1999 0.929 . S
H1988 C2002 0.930 . S
H1989 C2004 0.960 . S
H1990 C2004 0.960 . S
H1991 C2004 0.960 . S
C1992 H1984 0.929 . S
C1992 C1993 1.377 . S
C1992 C1994 1.384 . S
C1993 C1992 1.377 . S
C1993 C1999 1.390 . S
C1994 H1985 0.930 . S
C1994 C1992 1.384 . S
C1994 C1995 1.372 . S
C1995 C1994 1.372 . S
C1995 C1996 1.400 . S
C1995 C2000 1.490 . S
C1996 H1986 0.930 . S
C1996 C1995 1.400 . S
C1996 C1999 1.386 . S
H1997 C2013 0.930 . S
H1998 C2014 0.931 . S
C1999 H1987 0.929 . S
C1999 C1993 1.390 . S
C1999 C1996 1.386 . S
C2000 C1995 1.490 . S
C2000 C2002 1.350 1_565 S
C2000 C2003 1.403 1_556 S
H2001 C2007 0.930 . S
C2002 H1988 0.930 . S
C2002 C2000 1.350 1_545 S
C2002 C2005 1.450 . S
C2003 C2000 1.403 1_554 S
C2003 C2004 1.524 . S
C2003 C2007 1.400 1_565 S
C2004 H1989 0.960 . S
C2004 H1990 0.960 . S
C2004 H1991 0.960 . S
C2004 C2003 1.524 . S
C2005 C2002 1.450 . S
C2005 C2006 1.392 1_556 S
C2005 C2009 1.495 . S
C2006 C2005 1.392 1_554 S
C2006 C2007 1.385 . S
C2006 C2008 1.478 . S
C2007 H2001 0.930 . S
C2007 C2003 1.400 1_545 S
C2007 C2006 1.385 . S
C2008 C2006 1.478 . S
C2008 C2010 1.381 . S
C2008 C2014 1.383 . S
C2009 C2005 1.495 . S
C2009 H2015 0.959 . S
C2009 H2016 0.961 . S
C2009 H2017 0.960 . S
C2010 C2008 1.381 . S
C2010 C2011 1.394 . S
C2010 H2018 0.930 . S
C2011 C2010 1.394 . S
C2011 C2012 1.383 . S
C2011 H2019 0.929 . S
C2012 C2011 1.383 . S
C2012 C2013 1.377 . S
C2013 H1997 0.930 . S
C2013 C2012 1.377 . S
C2013 C2014 1.379 . S
C2014 H1998 0.931 . S
C2014 C2008 1.383 . S
C2014 C2013 1.379 . S
H2015 C2009 0.959 . S
H2016 C2009 0.961 . S
H2017 C2009 0.960 . S
H2018 C2010 0.930 . S
H2019 C2011 0.929 . S
H2020 C2028 0.929 . S
H2021 C2030 0.930 . S
H2022 C2032 0.930 . S
H2023 C2035 0.929 . S
H2024 C2038 0.930 . S
H2025 C2040 0.960 . S
H2026 C2040 0.960 . S
H2027 C2040 0.960 . S
C2028 H2020 0.929 . S
C2028 C2029 1.377 . S
C2028 C2030 1.384 . S
C2029 C2028 1.377 . S
C2029 C2035 1.390 . S
C2030 H2021 0.930 . S
C2030 C2028 1.384 . S
C2030 C2031 1.372 . S
C2031 C2030 1.372 . S
C2031 C2032 1.400 . S
C2031 C2036 1.490 . S
C2032 H2022 0.930 . S
C2032 C2031 1.400 . S
C2032 C2035 1.386 . S
H2033 C2049 0.930 . S
H2034 C2050 0.931 . S
C2035 H2023 0.929 . S
C2035 C2029 1.390 . S
C2035 C2032 1.386 . S
C2036 C2031 1.490 . S
C2036 C2038 1.395 1_554 S
C2036 C2039 1.403 . S
H2037 C2043 0.930 . S
C2038 H2024 0.930 . S
C2038 C2036 1.395 1_556 S
C2038 C2041 1.403 . S
C2039 C2036 1.403 . S
C2039 C2040 1.524 . S
C2039 C2043 1.400 . S
C2040 H2025 0.960 . S
C2040 H2026 0.960 . S
C2040 H2027 0.960 . S
C2040 C2039 1.524 . S
C2041 C2038 1.403 . S
C2041 C2042 1.392 . S
C2041 C2045 1.495 . S
C2042 C2041 1.392 . S
C2042 C2043 1.385 1_556 S
C2042 C2044 1.478 . S
C2043 H2037 0.930 . S
C2043 C2039 1.400 . S
C2043 C2042 1.385 1_554 S
C2044 C2042 1.478 . S
C2044 C2046 1.381 . S
C2044 C2050 1.383 . S
C2045 C2041 1.495 . S
C2045 H2051 0.959 . S
C2045 H2052 0.961 . S
C2045 H2053 0.960 . S
C2046 C2044 1.381 . S
C2046 C2047 1.394 . S
C2046 H2054 0.930 . S
C2047 C2046 1.394 . S
C2047 C2048 1.383 . S
C2047 H2055 0.929 . S
C2048 C2047 1.383 . S
C2048 C2049 1.377 . S
C2049 H2033 0.930 . S
C2049 C2048 1.377 . S
C2049 C2050 1.379 . S
C2050 H2034 0.931 . S
C2050 C2044 1.383 . S
C2050 C2049 1.379 . S
H2051 C2045 0.959 . S
H2052 C2045 0.961 . S
H2053 C2045 0.960 . S
H2054 C2046 0.930 . S
H2055 C2047 0.929 . S
H2056 C2064 0.929 . S
H2057 C2066 0.930 . S
H2058 C2068 0.930 . S
H2059 C2071 0.949 . S
H2060 C2074 0.930 . S
H2061 C2076 0.960 . S
H2062 C2076 0.960 . S
H2063 C2076 0.960 . S
C2064 H2056 0.929 . S
C2064 C2065 1.377 . S
C2064 C2066 1.384 . S
C2065 C2064 1.377 . S
C2065 C2071 1.365 1_455 S
C2066 H2057 0.930 . S
C2066 C2064 1.384 . S
C2066 C2067 1.372 . S
C2067 C2066 1.372 . S
C2067 C2068 1.400 1_455 S
C2067 C2072 1.490 . S
C2068 H2058 0.930 . S
C2068 C2067 1.400 1_655 S
C2068 C2071 1.392 . S
H2069 C2085 0.930 . S
H2070 C2086 0.931 . S
C2071 H2059 0.949 . S
C2071 C2065 1.365 1_655 S
C2071 C2068 1.392 . S
C2072 C2067 1.490 . S
C2072 C2074 1.395 . S
C2072 C2075 1.403 1_455 S
H2073 C2079 0.930 . S
C2074 H2060 0.930 . S
C2074 C2072 1.395 . S
C2074 C2077 1.403 1_556 S
C2075 C2072 1.403 1_655 S
C2075 C2076 1.524 . S
C2075 C2079 1.400 1_556 S
C2076 H2061 0.960 . S
C2076 H2062 0.960 . S
C2076 H2063 0.960 . S
C2076 C2075 1.524 . S
C2077 C2074 1.403 1_554 S
C2077 C2078 1.405 . S
C2077 C2081 1.495 . S
C2078 C2077 1.405 . S
C2078 C2079 1.374 1_455 S
C2078 C2080 1.476 1_455 S
C2079 H2073 0.930 . S
C2079 C2075 1.400 1_554 S
C2079 C2078 1.374 1_655 S
C2080 C2078 1.476 1_655 S
C2080 C2082 1.381 1_655 S
C2080 C2086 1.383 . S
C2081 C2077 1.495 . S
C2081 H2087 0.959 . S
C2081 H2088 0.961 . S
C2081 H2089 0.960 . S
C2082 C2080 1.381 1_455 S
C2082 C2083 1.396 1_455 S
C2082 H2090 0.930 . S
C2083 C2082 1.396 1_655 S
C2083 C2084 1.380 . S
C2083 H2091 0.931 1_655 S
C2084 C2083 1.380 . S
C2084 C2085 1.377 . S
C2085 H2069 0.930 . S
C2085 C2084 1.377 . S
C2085 C2086 1.379 . S
C2086 H2070 0.931 . S
C2086 C2080 1.383 . S
C2086 C2085 1.379 . S
H2087 C2081 0.959 . S
H2088 C2081 0.961 . S
H2089 C2081 0.960 . S
H2090 C2082 0.930 . S
H2091 C2083 0.931 1_455 S
H2092 C2100 0.929 . S
H2093 C2102 0.953 . S
H2094 C2104 0.930 1_545 S
H2095 C2107 0.929 . S
H2096 C2110 0.927 1_554 S
H2097 C2112 0.960 . S
H2098 C2112 0.960 . S
H2099 C2112 0.960 . S
C2100 H2092 0.929 . S
C2100 C2101 1.377 . S
C2100 C2102 1.384 . S
C2101 C2100 1.377 . S
C2101 C2107 1.390 . S
C2102 H2093 0.953 . S
C2102 C2100 1.384 . S
C2102 C2103 1.372 . S
C2103 C2102 1.372 . S
C2103 C2104 1.400 . S
C2103 C2108 1.490 . S
C2104 H2094 0.930 1_565 S
C2104 C2103 1.400 . S
C2104 C2107 1.386 . S
H2105 C2121 0.930 . S
H2106 C2122 0.931 . S
C2107 H2095 0.929 . S
C2107 C2101 1.390 . S
C2107 C2104 1.386 . S
C2108 C2103 1.490 . S
C2108 C2110 1.396 1_554 S
C2108 C2111 1.403 1_565 S
H2109 C2115 0.930 . S
C2110 H2096 0.927 1_556 S
C2110 C2108 1.396 1_556 S
C2110 C2113 1.402 1_455 S
C2111 C2108 1.403 1_545 S
C2111 C2112 1.524 . S
C2111 C2115 1.400 1_454 S
C2112 H2097 0.960 . S
C2112 H2098 0.960 . S
C2112 H2099 0.960 . S
C2112 C2111 1.524 . S
C2113 C2110 1.402 1_655 S
C2113 C2114 1.447 . S
C2113 C2117 1.495 . S
C2114 C2113 1.447 . S
C2114 C2115 1.337 1_565 S
C2114 C2116 1.470 1_565 S
C2115 H2109 0.930 . S
C2115 C2111 1.400 1_656 S
C2115 C2114 1.337 1_545 S
C2116 C2114 1.470 1_545 S
C2116 C2118 1.381 . S
C2116 C2122 1.383 . S
C2117 C2113 1.495 . S
C2117 H2123 0.959 . S
C2117 H2124 0.961 . S
C2117 H2125 0.960 . S
C2118 C2116 1.381 . S
C2118 C2119 1.394 . S
C2118 H2126 0.930 1_545 S
C2119 C2118 1.394 . S
C2119 C2120 1.383 . S
C2119 H2127 0.929 . S
C2120 C2119 1.383 . S
C2120 C2121 1.377 . S
C2121 H2105 0.930 . S
C2121 C2120 1.377 . S
C2121 C2122 1.379 . S
C2122 H2106 0.931 . S
C2122 C2116 1.383 . S
C2122 C2121 1.379 . S
H2123 C2117 0.959 . S
H2124 C2117 0.961 . S
H2125 C2117 0.960 . S
H2126 C2118 0.930 1_565 S
H2127 C2119 0.929 . S
H2128 C2136 0.929 . S
H2129 C2138 0.930 . S
H2130 C2140 0.930 . S
H2131 C2143 0.929 . S
H2132 C2146 0.930 . S
H2133 C2148 0.960 . S
H2134 C2148 0.960 . S
H2135 C2148 0.960 . S
C2136 H2128 0.929 . S
C2136 C2137 1.377 . S
C2136 C2138 1.384 . S
C2137 C2136 1.377 . S
C2137 C2143 1.390 . S
C2138 H2129 0.930 . S
C2138 C2136 1.384 . S
C2138 C2139 1.372 . S
C2139 C2138 1.372 . S
C2139 C2140 1.400 . S
C2139 C2144 1.490 . S
C2140 H2130 0.930 . S
C2140 C2139 1.400 . S
C2140 C2143 1.386 . S
H2141 C2157 0.930 . S
H2142 C2158 0.931 . S
C2143 H2131 0.929 . S
C2143 C2137 1.390 . S
C2143 C2140 1.386 . S
C2144 C2139 1.490 . S
C2144 C2146 1.395 . S
C2144 C2147 1.403 . S
H2145 C2151 0.930 . S
C2146 H2132 0.930 . S
C2146 C2144 1.395 . S
C2146 C2149 1.403 . S
C2147 C2144 1.403 . S
C2147 C2148 1.524 . S
C2147 C2151 1.400 . S
C2148 H2133 0.960 . S
C2148 H2134 0.960 . S
C2148 H2135 0.960 . S
C2148 C2147 1.524 . S
C2149 C2146 1.403 . S
C2149 C2150 1.392 . S
C2149 C2153 1.495 . S
C2150 C2149 1.392 . S
C2150 C2151 1.385 . S
C2150 C2152 1.478 . S
C2151 H2145 0.930 . S
C2151 C2147 1.400 . S
C2151 C2150 1.385 . S
C2152 C2150 1.478 . S
C2152 C2154 1.381 . S
C2152 C2158 1.383 . S
C2153 C2149 1.495 . S
C2153 H2159 0.959 . S
C2153 H2160 0.961 . S
C2153 H2161 0.960 . S
C2154 C2152 1.381 . S
C2154 C2155 1.394 . S
C2154 H2162 0.930 . S
C2155 C2154 1.394 . S
C2155 C2156 1.383 . S
C2155 H2163 0.929 . S
C2156 C2155 1.383 . S
C2156 C2157 1.377 . S
C2157 H2141 0.930 . S
C2157 C2156 1.377 . S
C2157 C2158 1.379 . S
C2158 H2142 0.931 . S
C2158 C2152 1.383 . S
C2158 C2157 1.379 . S
H2159 C2153 0.959 . S
H2160 C2153 0.961 . S
H2161 C2153 0.960 . S
H2162 C2154 0.930 . S
H2163 C2155 0.929 . S
H2164 C2172 0.929 . S
H2165 C2174 0.930 . S
H2166 C2176 0.930 . S
H2167 C2179 0.929 . S
H2168 C2182 0.930 . S
H2169 C2184 0.960 . S
H2170 C2184 0.960 . S
H2171 C2184 0.960 . S
C2172 H2164 0.929 . S
C2172 C2173 1.377 . S
C2172 C2174 1.384 . S
C2173 C2172 1.377 . S
C2173 C2179 1.390 . S
C2174 H2165 0.930 . S
C2174 C2172 1.384 . S
C2174 C2175 1.372 . S
C2175 C2174 1.372 . S
C2175 C2176 1.400 . S
C2175 C2180 1.490 . S
C2176 H2166 0.930 . S
C2176 C2175 1.400 . S
C2176 C2179 1.386 . S
H2177 C2193 0.930 . S
H2178 C2194 0.931 . S
C2179 H2167 0.929 . S
C2179 C2173 1.390 . S
C2179 C2176 1.386 . S
C2180 C2175 1.490 . S
C2180 C2182 1.395 . S
C2180 C2183 1.403 . S
H2181 C2187 0.930 . S
C2182 H2168 0.930 . S
C2182 C2180 1.395 . S
C2182 C2185 1.403 1_455 S
C2183 C2180 1.403 . S
C2183 C2184 1.524 . S
C2183 C2187 1.400 1_455 S
C2184 H2169 0.960 . S
C2184 H2170 0.960 . S
C2184 H2171 0.960 . S
C2184 C2183 1.524 . S
C2185 C2182 1.403 1_655 S
C2185 C2186 1.392 . S
C2185 C2189 1.495 . S
C2186 C2185 1.392 . S
C2186 C2187 1.385 . S
C2186 C2188 1.478 . S
C2187 H2181 0.930 . S
C2187 C2183 1.400 1_655 S
C2187 C2186 1.385 . S
C2188 C2186 1.478 . S
C2188 C2190 1.381 . S
C2188 C2194 1.383 . S
C2189 C2185 1.495 . S
C2189 H2195 0.959 . S
C2189 H2196 0.961 . S
C2189 H2197 0.960 . S
C2190 C2188 1.381 . S
C2190 C2191 1.394 . S
C2190 H2198 0.930 . S
C2191 C2190 1.394 . S
C2191 C2192 1.383 . S
C2191 H2199 0.929 . S
C2192 C2191 1.383 . S
C2192 C2193 1.377 . S
C2193 H2177 0.930 . S
C2193 C2192 1.377 . S
C2193 C2194 1.379 . S
C2194 H2178 0.931 . S
C2194 C2188 1.383 . S
C2194 C2193 1.379 . S
H2195 C2189 0.959 . S
H2196 C2189 0.961 . S
H2197 C2189 0.960 . S
H2198 C2190 0.930 . S
H2199 C2191 0.929 . S
H2200 C2208 0.929 . S
H2201 C2210 0.930 . S
H2202 C2212 0.928 . S
H2203 C2215 0.929 . S
H2204 C2218 0.930 . S
H2205 C2220 0.960 . S
H2206 C2220 0.960 1_565 S
H2207 C2220 0.953 1_565 S
C2208 H2200 0.929 . S
C2208 C2209 1.377 . S
C2208 C2210 1.384 . S
C2209 C2208 1.377 . S
C2209 C2215 1.390 . S
C2210 H2201 0.930 . S
C2210 C2208 1.384 . S
C2210 C2211 1.372 . S
C2211 C2210 1.372 . S
C2211 C2212 1.400 . S
C2211 C2216 1.490 . S
C2212 H2202 0.928 . S
C2212 C2211 1.400 . S
C2212 C2215 1.386 . S
H2213 C2229 0.930 . S
H2214 C2230 0.931 . S
C2215 H2203 0.929 . S
C2215 C2209 1.390 . S
C2215 C2212 1.386 . S
C2216 C2211 1.490 . S
C2216 C2218 1.395 1_455 S
C2216 C2219 1.401 . S
H2217 C2223 0.930 . S
C2218 H2204 0.930 . S
C2218 C2216 1.395 1_655 S
C2218 C2221 1.403 . S
C2219 C2216 1.401 . S
C2219 C2220 1.524 1_565 S
C2219 C2223 1.401 1_565 S
C2220 H2205 0.960 . S
C2220 H2206 0.960 1_545 S
C2220 H2207 0.953 1_545 S
C2220 C2219 1.524 1_545 S
C2221 C2218 1.403 . S
C2221 C2222 1.392 1_565 S
C2221 C2225 1.495 . S
C2222 C2221 1.392 1_545 S
C2222 C2223 1.385 1_655 S
C2222 C2224 1.478 . S
C2223 H2217 0.930 . S
C2223 C2219 1.401 1_545 S
C2223 C2222 1.385 1_455 S
C2224 C2222 1.478 . S
C2224 C2226 1.381 . S
C2224 C2230 1.383 . S
C2225 C2221 1.495 . S
C2225 H2231 0.959 . S
C2225 H2232 0.961 1_565 S
C2225 H2233 0.960 . S
C2226 C2224 1.381 . S
C2226 C2227 1.394 . S
C2226 H2234 0.931 . S
C2227 C2226 1.394 . S
C2227 C2228 1.383 . S
C2227 H2235 0.929 . S
C2228 C2227 1.383 . S
C2228 C2229 1.377 . S
C2229 H2213 0.930 . S
C2229 C2228 1.377 . S
C2229 C2230 1.379 . S
C2230 H2214 0.931 . S
C2230 C2224 1.383 . S
C2230 C2229 1.379 . S
H2231 C2225 0.959 . S
H2232 C2225 0.961 1_545 S
H2233 C2225 0.960 . S
H2234 C2226 0.931 . S
H2235 C2227 0.929 . S
H2236 C2244 0.929 . S
H2237 C2246 0.930 1_565 S
H2238 C2248 0.930 . S
H2239 C2251 0.929 . S
H2240 C2254 0.930 . S
H2241 C2256 0.960 . S
H2242 C2256 0.960 . S
H2243 C2256 0.960 . S
C2244 H2236 0.929 . S
C2244 C2245 1.377 . S
C2244 C2246 1.384 . S
C2245 C2244 1.377 . S
C2245 C2251 1.390 . S
C2246 H2237 0.930 1_545 S
C2246 C2244 1.384 . S
C2246 C2247 1.372 . S
C2247 C2246 1.372 . S
C2247 C2248 1.400 . S
C2247 C2252 1.490 . S
C2248 H2238 0.930 . S
C2248 C2247 1.400 . S
C2248 C2251 1.386 . S
H2249 C2265 0.930 . S
H2250 C2266 0.931 . S
C2251 H2239 0.929 . S
C2251 C2245 1.390 . S
C2251 C2248 1.386 . S
C2252 C2247 1.490 . S
C2252 C2254 1.395 1_545 S
C2252 C2255 1.403 . S
H2253 C2259 0.930 . S
C2254 H2240 0.930 . S
C2254 C2252 1.395 1_565 S
C2254 C2257 1.403 . S
C2255 C2252 1.403 . S
C2255 C2256 1.524 . S
C2255 C2259 1.400 . S
C2256 H2241 0.960 . S
C2256 H2242 0.960 . S
C2256 H2243 0.960 . S
C2256 C2255 1.524 . S
C2257 C2254 1.403 . S
C2257 C2258 1.392 . S
C2257 C2261 1.495 . S
C2258 C2257 1.392 . S
C2258 C2259 1.385 1_565 S
C2258 C2260 1.478 . S
C2259 H2253 0.930 . S
C2259 C2255 1.400 . S
C2259 C2258 1.385 1_545 S
C2260 C2258 1.478 . S
C2260 C2262 1.381 . S
C2260 C2266 1.383 . S
C2261 C2257 1.495 . S
C2261 H2267 0.959 . S
C2261 H2268 0.961 . S
C2261 H2269 0.960 . S
C2262 C2260 1.381 . S
C2262 C2263 1.394 . S
C2262 H2270 0.930 . S
C2263 C2262 1.394 . S
C2263 C2264 1.383 . S
C2263 H2271 0.929 . S
C2264 C2263 1.383 . S
C2264 C2265 1.377 . S
C2265 H2249 0.930 . S
C2265 C2264 1.377 . S
C2265 C2266 1.379 . S
C2266 H2250 0.931 . S
C2266 C2260 1.383 . S
C2266 C2265 1.379 . S
H2267 C2261 0.959 . S
H2268 C2261 0.961 . S
H2269 C2261 0.960 . S
H2270 C2262 0.930 . S
H2271 C2263 0.929 . S
H2272 C2280 0.929 . S
H2273 C2282 0.930 . S
H2274 C2284 0.930 . S
H2275 C2287 0.929 . S
H2276 C2290 0.930 . S
H2277 C2292 0.960 . S
H2278 C2292 0.960 . S
H2279 C2292 0.960 . S
C2280 H2272 0.929 . S
C2280 C2281 1.377 . S
C2280 C2282 1.384 . S
C2281 C2280 1.377 . S
C2281 C2287 1.390 . S
C2282 H2273 0.930 . S
C2282 C2280 1.384 . S
C2282 C2283 1.372 . S
C2283 C2282 1.372 . S
C2283 C2284 1.400 . S
C2283 C2288 1.490 . S
C2284 H2274 0.930 . S
C2284 C2283 1.400 . S
C2284 C2287 1.386 . S
H2285 C2301 0.930 . S
H2286 C2302 0.931 . S
C2287 H2275 0.929 . S
C2287 C2281 1.390 . S
C2287 C2284 1.386 . S
C2288 C2283 1.490 . S
C2288 C2290 1.395 . S
C2288 C2291 1.403 . S
H2289 C2295 0.930 . S
C2290 H2276 0.930 . S
C2290 C2288 1.395 . S
C2290 C2293 1.403 . S
C2291 C2288 1.403 . S
C2291 C2292 1.524 . S
C2291 C2295 1.400 . S
C2292 H2277 0.960 . S
C2292 H2278 0.960 . S
C2292 H2279 0.960 . S
C2292 C2291 1.524 . S
C2293 C2290 1.403 . S
C2293 C2294 1.392 . S
C2293 C2297 1.495 . S
C2294 C2293 1.392 . S
C2294 C2295 1.385 . S
C2294 C2296 1.478 . S
C2295 H2289 0.930 . S
C2295 C2291 1.400 . S
C2295 C2294 1.385 . S
C2296 C2294 1.478 . S
C2296 C2298 1.381 . S
C2296 C2302 1.383 . S
C2297 C2293 1.495 . S
C2297 H2303 0.959 . S
C2297 H2304 0.961 . S
C2297 H2305 0.960 . S
C2298 C2296 1.381 . S
C2298 C2299 1.394 . S
C2298 H2306 0.930 . S
C2299 C2298 1.394 . S
C2299 C2300 1.383 . S
C2299 H2307 0.929 . S
C2300 C2299 1.383 . S
C2300 C2301 1.377 . S
C2301 H2285 0.930 . S
C2301 C2300 1.377 . S
C2301 C2302 1.379 . S
C2302 H2286 0.931 . S
C2302 C2296 1.383 . S
C2302 C2301 1.379 . S
H2303 C2297 0.959 . S
H2304 C2297 0.961 . S
H2305 C2297 0.960 . S
H2306 C2298 0.930 . S
H2307 C2299 0.929 . S
H2308 C2316 0.929 . S
H2309 C2318 0.930 . S
H2310 C2320 0.930 . S
H2311 C2323 0.929 . S
H2312 C2326 0.930 . S
H2313 C2328 0.960 . S
H2314 C2328 0.960 . S
H2315 C2328 0.960 . S
C2316 H2308 0.929 . S
C2316 C2317 1.377 . S
C2316 C2318 1.384 . S
C2317 C2316 1.377 . S
C2317 C2323 1.390 . S
C2318 H2309 0.930 . S
C2318 C2316 1.384 . S
C2318 C2319 1.372 . S
C2319 C2318 1.372 . S
C2319 C2320 1.400 . S
C2319 C2324 1.490 . S
C2320 H2310 0.930 . S
C2320 C2319 1.400 . S
C2320 C2323 1.386 . S
H2321 C2337 0.930 . S
H2322 C2338 0.931 . S
C2323 H2311 0.929 . S
C2323 C2317 1.390 . S
C2323 C2320 1.386 . S
C2324 C2319 1.490 . S
C2324 C2326 1.395 . S
C2324 C2327 1.403 . S
H2325 C2331 0.930 . S
C2326 H2312 0.930 . S
C2326 C2324 1.395 . S
C2326 C2329 1.403 . S
C2327 C2324 1.403 . S
C2327 C2328 1.524 . S
C2327 C2331 1.400 . S
C2328 H2313 0.960 . S
C2328 H2314 0.960 . S
C2328 H2315 0.960 . S
C2328 C2327 1.524 . S
C2329 C2326 1.403 . S
C2329 C2330 1.392 . S
C2329 C2333 1.495 . S
C2330 C2329 1.392 . S
C2330 C2331 1.385 . S
C2330 C2332 1.478 . S
C2331 H2325 0.930 . S
C2331 C2327 1.400 . S
C2331 C2330 1.385 . S
C2332 C2330 1.478 . S
C2332 C2334 1.381 . S
C2332 C2338 1.383 . S
C2333 C2329 1.495 . S
C2333 H2339 0.959 . S
C2333 H2340 0.961 . S
C2333 H2341 0.960 . S
C2334 C2332 1.381 . S
C2334 C2335 1.394 . S
C2334 H2342 0.930 . S
C2335 C2334 1.394 . S
C2335 C2336 1.383 . S
C2335 H2343 0.929 . S
C2336 C2335 1.383 . S
C2336 C2337 1.377 . S
C2337 H2321 0.930 . S
C2337 C2336 1.377 . S
C2337 C2338 1.379 . S
C2338 H2322 0.931 . S
C2338 C2332 1.383 . S
C2338 C2337 1.379 . S
H2339 C2333 0.959 . S
H2340 C2333 0.961 . S
H2341 C2333 0.960 . S
H2342 C2334 0.930 . S
H2343 C2335 0.929 . S
H2344 C2352 0.929 . S
H2345 C2354 0.930 . S
H2346 C2356 0.930 . S
H2347 C2359 0.929 . S
H2348 C2362 0.930 . S
H2349 C2364 0.960 . S
H2350 C2364 0.960 . S
H2351 C2364 0.960 . S
C2352 H2344 0.929 . S
C2352 C2353 1.377 . S
C2352 C2354 1.384 . S
C2353 C2352 1.377 . S
C2353 C2359 1.390 . S
C2354 H2345 0.930 . S
C2354 C2352 1.384 . S
C2354 C2355 1.372 . S
C2355 C2354 1.372 . S
C2355 C2356 1.400 . S
C2355 C2360 1.490 . S
C2356 H2346 0.930 . S
C2356 C2355 1.400 . S
C2356 C2359 1.386 . S
H2357 C2373 0.930 . S
H2358 C2374 0.931 . S
C2359 H2347 0.929 . S
C2359 C2353 1.390 . S
C2359 C2356 1.386 . S
C2360 C2355 1.490 . S
C2360 C2362 1.395 . S
C2360 C2363 1.403 . S
H2361 C2367 0.930 . S
C2362 H2348 0.930 . S
C2362 C2360 1.395 . S
C2362 C2365 1.403 . S
C2363 C2360 1.403 . S
C2363 C2364 1.524 . S
C2363 C2367 1.400 . S
C2364 H2349 0.960 . S
C2364 H2350 0.960 . S
C2364 H2351 0.960 . S
C2364 C2363 1.524 . S
C2365 C2362 1.403 . S
C2365 C2366 1.392 . S
C2365 C2369 1.495 . S
C2366 C2365 1.392 . S
C2366 C2367 1.385 . S
C2366 C2368 1.478 . S
C2367 H2361 0.930 . S
C2367 C2363 1.400 . S
C2367 C2366 1.385 . S
C2368 C2366 1.478 . S
C2368 C2370 1.381 . S
C2368 C2374 1.383 . S
C2369 C2365 1.495 . S
C2369 H2375 0.959 . S
C2369 H2376 0.961 . S
C2369 H2377 0.960 . S
C2370 C2368 1.381 . S
C2370 C2371 1.394 . S
C2370 H2378 0.930 . S
C2371 C2370 1.394 . S
C2371 C2372 1.383 . S
C2371 H2379 0.929 . S
C2372 C2371 1.383 . S
C2372 C2373 1.377 . S
C2373 H2357 0.930 . S
C2373 C2372 1.377 . S
C2373 C2374 1.379 . S
C2374 H2358 0.931 . S
C2374 C2368 1.383 . S
C2374 C2373 1.379 . S
H2375 C2369 0.959 . S
H2376 C2369 0.961 . S
H2377 C2369 0.960 . S
H2378 C2370 0.930 . S
H2379 C2371 0.929 . S
H2380 C2388 0.929 . S
H2381 C2390 0.930 . S
H2382 C2392 0.930 . S
H2383 C2395 0.929 . S
H2384 C2398 0.930 . S
H2385 C2400 0.960 . S
H2386 C2400 0.960 . S
H2387 C2400 0.960 . S
C2388 H2380 0.929 . S
C2388 C2389 1.377 . S
C2388 C2390 1.384 . S
C2389 C2388 1.377 . S
C2389 C2395 1.390 . S
C2390 H2381 0.930 . S
C2390 C2388 1.384 . S
C2390 C2391 1.372 . S
C2391 C2390 1.372 . S
C2391 C2392 1.400 . S
C2391 C2396 1.490 . S
C2392 H2382 0.930 . S
C2392 C2391 1.400 . S
C2392 C2395 1.386 . S
H2393 C2409 0.930 . S
H2394 C2410 0.931 . S
C2395 H2383 0.929 . S
C2395 C2389 1.390 . S
C2395 C2392 1.386 . S
C2396 C2391 1.490 . S
C2396 C2398 1.395 . S
C2396 C2399 1.403 . S
H2397 C2403 0.930 . S
C2398 H2384 0.930 . S
C2398 C2396 1.395 . S
C2398 C2401 1.403 . S
C2399 C2396 1.403 . S
C2399 C2400 1.524 . S
C2399 C2403 1.400 . S
C2400 H2385 0.960 . S
C2400 H2386 0.960 . S
C2400 H2387 0.960 . S
C2400 C2399 1.524 . S
C2401 C2398 1.403 . S
C2401 C2402 1.392 . S
C2401 C2405 1.495 . S
C2402 C2401 1.392 . S
C2402 C2403 1.385 . S
C2402 C2404 1.478 . S
C2403 H2397 0.930 . S
C2403 C2399 1.400 . S
C2403 C2402 1.385 . S
C2404 C2402 1.478 . S
C2404 C2406 1.381 . S
C2404 C2410 1.383 . S
C2405 C2401 1.495 . S
C2405 H2411 0.959 . S
C2405 H2412 0.961 . S
C2405 H2413 0.960 . S
C2406 C2404 1.381 . S
C2406 C2407 1.394 . S
C2406 H2414 0.930 . S
C2407 C2406 1.394 . S
C2407 C2408 1.383 . S
C2407 H2415 0.929 . S
C2408 C2407 1.383 . S
C2408 C2409 1.377 . S
C2409 H2393 0.930 . S
C2409 C2408 1.377 . S
C2409 C2410 1.379 . S
C2410 H2394 0.931 . S
C2410 C2404 1.383 . S
C2410 C2409 1.379 . S
H2411 C2405 0.959 . S
H2412 C2405 0.961 . S
H2413 C2405 0.960 . S
H2414 C2406 0.930 . S
H2415 C2407 0.929 . S
H2416 C2424 0.929 . S
H2417 C2426 0.930 . S
H2418 C2428 0.930 . S
H2419 C2431 0.929 . S
H2420 C2434 0.930 . S
H2421 C2436 0.960 . S
H2422 C2436 0.960 . S
H2423 C2436 0.960 . S
C2424 H2416 0.929 . S
C2424 C2425 1.377 . S
C2424 C2426 1.384 . S
C2425 C2424 1.377 . S
C2425 C2431 1.390 . S
C2426 H2417 0.930 . S
C2426 C2424 1.384 . S
C2426 C2427 1.372 . S
C2427 C2426 1.372 . S
C2427 C2428 1.400 . S
C2427 C2432 1.490 . S
C2428 H2418 0.930 . S
C2428 C2427 1.400 . S
C2428 C2431 1.386 . S
H2429 C2445 0.930 . S
H2430 C2446 0.931 . S
C2431 H2419 0.929 . S
C2431 C2425 1.390 . S
C2431 C2428 1.386 . S
C2432 C2427 1.490 . S
C2432 C2434 1.395 . S
C2432 C2435 1.403 . S
H2433 C2439 0.930 . S
C2434 H2420 0.930 . S
C2434 C2432 1.395 . S
C2434 C2437 1.403 . S
C2435 C2432 1.403 . S
C2435 C2436 1.524 . S
C2435 C2439 1.400 . S
C2436 H2421 0.960 . S
C2436 H2422 0.960 . S
C2436 H2423 0.960 . S
C2436 C2435 1.524 . S
C2437 C2434 1.403 . S
C2437 C2438 1.392 . S
C2437 C2441 1.495 . S
C2438 C2437 1.392 . S
C2438 C2439 1.385 . S
C2438 C2440 1.478 . S
C2439 H2433 0.930 . S
C2439 C2435 1.400 . S
C2439 C2438 1.385 . S
C2440 C2438 1.478 . S
C2440 C2442 1.381 . S
C2440 C2446 1.383 . S
C2441 C2437 1.495 . S
C2441 H2447 0.959 . S
C2441 H2448 0.961 . S
C2441 H2449 0.960 . S
C2442 C2440 1.381 . S
C2442 C2443 1.394 . S
C2442 H2450 0.930 . S
C2443 C2442 1.394 . S
C2443 C2444 1.383 . S
C2443 H2451 0.929 . S
C2444 C2443 1.383 . S
C2444 C2445 1.377 . S
C2445 H2429 0.930 . S
C2445 C2444 1.377 . S
C2445 C2446 1.379 . S
C2446 H2430 0.931 . S
C2446 C2440 1.383 . S
C2446 C2445 1.379 . S
H2447 C2441 0.959 . S
H2448 C2441 0.961 . S
H2449 C2441 0.960 . S
H2450 C2442 0.930 . S
H2451 C2443 0.929 . S
H2452 C2460 0.929 . S
H2453 C2462 0.930 . S
H2454 C2464 0.930 . S
H2455 C2467 0.929 . S
H2456 C2470 0.930 . S
H2457 C2472 0.960 . S
H2458 C2472 0.960 . S
H2459 C2472 0.960 . S
C2460 H2452 0.929 . S
C2460 C2461 1.377 . S
C2460 C2462 1.384 . S
C2461 C2460 1.377 . S
C2461 C2467 1.390 . S
C2462 H2453 0.930 . S
C2462 C2460 1.384 . S
C2462 C2463 1.372 . S
C2463 C2462 1.372 . S
C2463 C2464 1.400 . S
C2463 C2468 1.490 . S
C2464 H2454 0.930 . S
C2464 C2463 1.400 . S
C2464 C2467 1.386 . S
H2465 C2481 0.930 . S
H2466 C2482 0.931 . S
C2467 H2455 0.929 . S
C2467 C2461 1.390 . S
C2467 C2464 1.386 . S
C2468 C2463 1.490 . S
C2468 C2470 1.395 . S
C2468 C2471 1.403 . S
H2469 C2475 0.930 . S
C2470 H2456 0.930 . S
C2470 C2468 1.395 . S
C2470 C2473 1.403 . S
C2471 C2468 1.403 . S
C2471 C2472 1.524 . S
C2471 C2475 1.400 . S
C2472 H2457 0.960 . S
C2472 H2458 0.960 . S
C2472 H2459 0.960 . S
C2472 C2471 1.524 . S
C2473 C2470 1.403 . S
C2473 C2474 1.392 . S
C2473 C2477 1.495 . S
C2474 C2473 1.392 . S
C2474 C2475 1.385 . S
C2474 C2476 1.478 . S
C2475 H2469 0.930 . S
C2475 C2471 1.400 . S
C2475 C2474 1.385 . S
C2476 C2474 1.478 . S
C2476 C2478 1.381 . S
C2476 C2482 1.383 . S
C2477 C2473 1.495 . S
C2477 H2483 0.959 . S
C2477 H2484 0.961 . S
C2477 H2485 0.960 . S
C2478 C2476 1.381 . S
C2478 C2479 1.394 . S
C2478 H2486 0.930 . S
C2479 C2478 1.394 . S
C2479 C2480 1.383 . S
C2479 H2487 0.929 . S
C2480 C2479 1.383 . S
C2480 C2481 1.377 . S
C2481 H2465 0.930 . S
C2481 C2480 1.377 . S
C2481 C2482 1.379 . S
C2482 H2466 0.931 . S
C2482 C2476 1.383 . S
C2482 C2481 1.379 . S
H2483 C2477 0.959 . S
H2484 C2477 0.961 . S
H2485 C2477 0.960 . S
H2486 C2478 0.930 . S
H2487 C2479 0.929 . S
H2488 C2496 0.929 . S
H2489 C2498 0.930 . S
H2490 C2500 0.930 . S
H2491 C2503 0.929 . S
H2492 C2506 0.930 . S
H2493 C2508 0.960 . S
H2494 C2508 0.960 . S
H2495 C2508 0.960 . S
C2496 H2488 0.929 . S
C2496 C2497 1.377 . S
C2496 C2498 1.384 . S
C2497 C2496 1.377 . S
C2497 C2503 1.390 . S
C2498 H2489 0.930 . S
C2498 C2496 1.384 . S
C2498 C2499 1.372 . S
C2499 C2498 1.372 . S
C2499 C2500 1.400 . S
C2499 C2504 1.490 . S
C2500 H2490 0.930 . S
C2500 C2499 1.400 . S
C2500 C2503 1.386 . S
H2501 C2517 0.930 . S
H2502 C2518 0.931 . S
C2503 H2491 0.929 . S
C2503 C2497 1.390 . S
C2503 C2500 1.386 . S
C2504 C2499 1.490 . S
C2504 C2506 1.395 . S
C2504 C2507 1.403 . S
H2505 C2511 0.930 . S
C2506 H2492 0.930 . S
C2506 C2504 1.395 . S
C2506 C2509 1.403 . S
C2507 C2504 1.403 . S
C2507 C2508 1.524 . S
C2507 C2511 1.400 . S
C2508 H2493 0.960 . S
C2508 H2494 0.960 . S
C2508 H2495 0.960 . S
C2508 C2507 1.524 . S
C2509 C2506 1.403 . S
C2509 C2510 1.392 . S
C2509 C2513 1.495 . S
C2510 C2509 1.392 . S
C2510 C2511 1.385 . S
C2510 C2512 1.478 . S
C2511 H2505 0.930 . S
C2511 C2507 1.400 . S
C2511 C2510 1.385 . S
C2512 C2510 1.478 . S
C2512 C2514 1.381 . S
C2512 C2518 1.383 . S
C2513 C2509 1.495 . S
C2513 H2519 0.959 . S
C2513 H2520 0.961 . S
C2513 H2521 0.960 . S
C2514 C2512 1.381 . S
C2514 C2515 1.394 . S
C2514 H2522 0.930 . S
C2515 C2514 1.394 . S
C2515 C2516 1.383 . S
C2515 H2523 0.929 . S
C2516 C2515 1.383 . S
C2516 C2517 1.377 . S
C2517 H2501 0.930 . S
C2517 C2516 1.377 . S
C2517 C2518 1.379 . S
C2518 H2502 0.931 . S
C2518 C2512 1.383 . S
C2518 C2517 1.379 . S
H2519 C2513 0.959 . S
H2520 C2513 0.961 . S
H2521 C2513 0.960 . S
H2522 C2514 0.930 . S
H2523 C2515 0.929 . S
H2524 C2532 0.929 . S
H2525 C2534 0.930 . S
H2526 C2536 0.930 . S
H2527 C2539 0.929 . S
H2528 C2542 0.930 . S
H2529 C2544 0.960 . S
H2530 C2544 0.960 . S
H2531 C2544 0.960 . S
C2532 H2524 0.929 . S
C2532 C2533 1.377 . S
C2532 C2534 1.384 . S
C2533 C2532 1.377 . S
C2533 C2539 1.390 . S
C2534 H2525 0.930 . S
C2534 C2532 1.384 . S
C2534 C2535 1.372 . S
C2535 C2534 1.372 . S
C2535 C2536 1.400 . S
C2535 C2540 1.490 . S
C2536 H2526 0.930 . S
C2536 C2535 1.400 . S
C2536 C2539 1.386 . S
H2537 C2553 0.930 . S
H2538 C2554 0.931 . S
C2539 H2527 0.929 . S
C2539 C2533 1.390 . S
C2539 C2536 1.386 . S
C2540 C2535 1.490 . S
C2540 C2542 1.395 . S
C2540 C2543 1.403 . S
H2541 C2547 0.930 . S
C2542 H2528 0.930 . S
C2542 C2540 1.395 . S
C2542 C2545 1.403 . S
C2543 C2540 1.403 . S
C2543 C2544 1.524 . S
C2543 C2547 1.400 . S
C2544 H2529 0.960 . S
C2544 H2530 0.960 . S
C2544 H2531 0.960 . S
C2544 C2543 1.524 . S
C2545 C2542 1.403 . S
C2545 C2546 1.392 . S
C2545 C2549 1.495 . S
C2546 C2545 1.392 . S
C2546 C2547 1.385 . S
C2546 C2548 1.478 . S
C2547 H2541 0.930 . S
C2547 C2543 1.400 . S
C2547 C2546 1.385 . S
C2548 C2546 1.478 . S
C2548 C2550 1.381 . S
C2548 C2554 1.383 . S
C2549 C2545 1.495 . S
C2549 H2555 0.959 . S
C2549 H2556 0.961 . S
C2549 H2557 0.960 . S
C2550 C2548 1.381 . S
C2550 C2551 1.394 . S
C2550 H2558 0.930 . S
C2551 C2550 1.394 . S
C2551 C2552 1.383 . S
C2551 H2559 0.929 . S
C2552 C2551 1.383 . S
C2552 C2553 1.377 . S
C2553 H2537 0.930 . S
C2553 C2552 1.377 . S
C2553 C2554 1.379 . S
C2554 H2538 0.931 . S
C2554 C2548 1.383 . S
C2554 C2553 1.379 . S
H2555 C2549 0.959 . S
H2556 C2549 0.961 . S
H2557 C2549 0.960 . S
H2558 C2550 0.930 . S
H2559 C2551 0.929 . S
C1417 C57 0.414 . S
C1436 C812 0.297 . S
C1453 C929 0.356 . S
C1472 C145 0.429 . S
C1489 C988 0.368 . S
C1508 C225 0.348 . S
C1525 C733 0.346 . S
C1544 C313 0.468 . S
C1561 C381 0.385 . S
C1580 C1377 0.431 . S
C1597 C1105 0.363 . S
C1616 C469 0.349 . S
C1633 C1164 0.367 . S
C1652 C548 0.336 . S
C1669 C1252 0.342 . S
C1688 C636 0.480 . S
C1705 C753 0.388 . S
C1724 C137 0.359 . S
C1741 C849 0.417 . S
C1760 C233 0.443 . S
C1777 C909 0.389 . S
C1796 C321 0.372 . S
C1813 C49 0.373 . S
C1832 C1025 0.384 . S
C1849 C1085 0.391 . S
C1868 C645 0.311 . S
C1885 C1201 0.392 . S
C1904 C372 0.311 . S
C1921 C460 0.364 . S
C1940 C1289 0.449 . S
C1957 C1340 0.415 . S
C1976 C557 0.449 . S
C1993 C724 1.555 . S
C2012 C29 1.543 . S
C2029 C117 1.564 . S
C2048 C821 1.554 . S
C2065 C937 1.555 . S
C2084 C196 1.583 . S
C2101 C284 1.560 . S
C2120 C997 1.577 . S
C2137 C1113 1.556 . S
C2156 C409 1.579 . S
C2173 C497 1.557 . S
C2192 C1173 1.572 . S
C2209 C1261 1.545 . S
C2228 C577 1.541 . S
C2245 C1369 1.546 . S
C2264 C665 1.529 . S
C2281 C401 2.278 . S
C2300 C20 2.289 . S
C2317 C489 2.277 . S
C2336 C108 2.292 . S
C2353 C205 2.280 . S
C2372 C585 2.271 . S
C2389 C673 2.271 . S
C2408 C293 2.258 . S
C2425 C761 2.271 . S
C2444 C1076 2.247 . S
C2461 C1193 2.279 . S
C2480 C841 2.281 . S
C2497 C1281 2.274 . S
C2516 C900 2.254 . S
C2533 C1349 2.269 . S
C2552 C1017 2.253 . S
