# Generated by pormake.
# Topology lvt, (4)-cn, num edge types: 1
# Building blocks:
#     Node 0, Type 0, BuildingBlock: MUDLON_clean_sbu_0, # of connection points: 4
#     Node 1, Type 0, BuildingBlock: MUDLON_clean_sbu_0, # of connection points: 4
#     Node 2, Type 0, BuildingBlock: MUDLON_clean_sbu_0, # of connection points: 4
#     Node 3, Type 0, BuildingBlock: MUDLON_clean_sbu_0, # of connection points: 4
#     Node 4, Type 0, BuildingBlock: MUDLON_clean_sbu_0, # of connection points: 4
#     Node 5, Type 0, BuildingBlock: MUDLON_clean_sbu_0, # of connection points: 4
#     Node 6, Type 0, BuildingBlock: MUDLON_clean_sbu_0, # of connection points: 4
#     Node 7, Type 0, BuildingBlock: MUDLON_clean_sbu_0, # of connection points: 4
#     Edge 8, Type (0, 0), BuildingBlock: KIFKEQ_clean_linker_1, # of connection points: 2
#     Edge 9, Type (0, 0), BuildingBlock: KIFKEQ_clean_linker_1, # of connection points: 2
#     Edge 10, Type (0, 0), BuildingBlock: KIFKEQ_clean_linker_1, # of connection points: 2
#     Edge 11, Type (0, 0), BuildingBlock: KIFKEQ_clean_linker_1, # of connection points: 2
#     Edge 12, Type (0, 0), BuildingBlock: KIFKEQ_clean_linker_1, # of connection points: 2
#     Edge 13, Type (0, 0), BuildingBlock: KIFKEQ_clean_linker_1, # of connection points: 2
#     Edge 14, Type (0, 0), BuildingBlock: KIFKEQ_clean_linker_1, # of connection points: 2
#     Edge 15, Type (0, 0), BuildingBlock: KIFKEQ_clean_linker_1, # of connection points: 2
#     Edge 16, Type (0, 0), BuildingBlock: KIFKEQ_clean_linker_1, # of connection points: 2
#     Edge 17, Type (0, 0), BuildingBlock: KIFKEQ_clean_linker_1, # of connection points: 2
#     Edge 18, Type (0, 0), BuildingBlock: KIFKEQ_clean_linker_1, # of connection points: 2
#     Edge 19, Type (0, 0), BuildingBlock: KIFKEQ_clean_linker_1, # of connection points: 2
#     Edge 20, Type (0, 0), BuildingBlock: KIFKEQ_clean_linker_1, # of connection points: 2
#     Edge 21, Type (0, 0), BuildingBlock: KIFKEQ_clean_linker_1, # of connection points: 2
#     Edge 22, Type (0, 0), BuildingBlock: KIFKEQ_clean_linker_1, # of connection points: 2
#     Edge 23, Type (0, 0), BuildingBlock: KIFKEQ_clean_linker_1, # of connection points: 2
# Relax obj value: 0.001
# Max RMSD: 0.037
# Mean RMSD: 0.026
data_MOF--net-lvt--node1-MUDLON_clean_sbu_0--edge1-KIFKEQ_clean_linker_1
_symmetry_space_group_name_H-M    P1
_symmetry_Int_Tables_number       1
_symmetry_cell_setting            triclinic
loop_
_symmetry_equiv_pos_as_xyz
'x, y, z'
_cell_length_a     42.43926
_cell_length_b     42.572126
_cell_length_c     9.6685372
_cell_angle_alpha  89.560131
_cell_angle_beta   90.178266
_cell_angle_gamma 90.013045
loop_
_atom_site_label
_atom_site_type_symbol
_atom_site_fract_x
_atom_site_fract_y
_atom_site_fract_z
_atom_type_partial_charge
Mg0 Mg 0.04317 1.02059 0.41627 0.0
C1 C 0.10038 0.04429 0.25111 0.0
O2 O 0.11573 0.02489 0.3334 0.0
C3 C 1.01144 0.95826 0.31021 0.0
O4 O 0.03919 0.94491 0.32429 0.0
C5 C 0.99203 0.06708 0.41393 0.0
O6 O 0.98932 0.05238 0.29549 0.0
O7 O 1.01378 0.05849 0.49734 0.0
O8 O 0.07043 0.04517 0.2572 0.0
O9 O 0.07521 0.99813 0.56782 0.0
C10 C 0.06848 0.97323 0.63573 0.0
O11 O 0.04024 0.96096 0.6224 0.0
O12 O 1.00844 0.9874 0.33548 0.0
Mg13 Mg 0.28467 0.78275 0.02806 0.0
C14 C 0.23543 0.75261 0.84347 0.0
O15 O 0.22001 0.77822 0.87579 0.0
C16 C 0.33772 0.82261 0.09632 0.0
O17 O 0.32549 0.81288 0.21379 0.0
C18 C 0.24703 0.83923 0.98742 0.0
O19 O 0.26988 0.83987 0.89613 0.0
O20 O 0.24661 0.81655 0.07487 0.0
O21 O 0.26438 0.75024 0.87724 0.0
O22 O 0.30762 0.74796 0.1652 0.0
C23 C 0.33188 0.73829 0.10005 0.0
O24 O 0.33733 0.74994 0.97619 0.0
O25 O 0.32507 0.81342 0.98379 0.0
Mg26 Mg 0.55689 0.03256 0.22445 0.0
C27 C 0.51483 0.98136 0.14994 0.0
O28 O 0.52661 0.99193 0.033 0.0
C29 C 0.57828 0.07548 0.46165 0.0
O30 O 0.55014 0.08766 0.44377 0.0
C31 C 0.60307 0.98672 0.13806 0.0
O32 O 0.59467 0.97895 0.26452 0.0
O33 O 0.59091 1.01128 0.08376 0.0
O34 O 0.52383 0.99403 0.26245 0.0
O35 O 0.52705 0.07117 0.15019 0.0
C36 C 0.50185 0.07385 0.22058 0.0
O37 O 0.49655 0.05332 0.31998 0.0
O38 O 0.58579 0.05102 0.39412 0.0
Mg39 Mg 0.2816 0.27625 0.00903 0.0
C40 C 0.22805 0.23263 0.03316 0.0
O41 O 0.22852 0.24761 0.15139 0.0
C42 C 0.30594 0.33372 0.85446 0.0
O43 O 0.28341 0.34706 0.92579 0.0
C44 C 0.22919 0.3189 0.09208 0.0
O45 O 0.21946 0.30838 0.97185 0.0
O46 O 0.25557 0.30924 0.13935 0.0
O47 O 0.24805 0.24025 0.94069 0.0
O48 O 0.31764 0.24807 0.11399 0.0
C49 C 0.3468 0.25242 0.08931 0.0
O50 O 0.35534 0.27706 0.016 0.0
O51 O 0.30793 0.30386 0.8555 0.0
Mg52 Mg 0.78305 0.28527 0.60449 0.0
C53 C 0.81312 0.34357 0.72611 0.0
O54 O 0.79729 0.35636 0.62328 0.0
C55 C 0.75084 0.22459 0.70805 0.0
O56 O 0.7797 0.21356 0.70422 0.0
C57 C 0.83947 0.24474 0.60704 0.0
O58 O 0.8368 0.2545 0.73505 0.0
O59 O 0.81963 0.25472 0.51749 0.0
O60 O 0.80929 0.31442 0.75182 0.0
O61 O 0.75731 0.31678 0.46204 0.0
C62 C 0.73228 0.32834 0.51387 0.0
O63 O 0.72486 0.32035 0.64124 0.0
O64 O 0.74623 0.25371 0.68413 0.0
Mg65 Mg 0.77835 0.77773 0.54033 0.0
C66 C 0.82005 0.82885 0.46023 0.0
O67 O 0.81398 0.83283 0.59204 0.0
C68 C 0.71439 0.74606 0.51049 0.0
O69 O 0.70605 0.77042 0.58425 0.0
C70 C 0.82269 0.72644 0.5371 0.0
O71 O 0.80962 0.72774 0.41376 0.0
O72 O 0.81378 0.74616 0.62752 0.0
O73 O 0.80675 0.80616 0.39754 0.0
O74 O 0.75526 0.81118 0.67881 0.0
C75 C 0.73957 0.83272 0.61728 0.0
O76 O 0.73868 0.83282 0.48138 0.0
O77 O 0.74248 0.74471 0.46466 0.0
Mg78 Mg 0.53372 0.5266 0.95355 0.0
C79 C 0.49649 0.46738 0.90042 0.0
O80 O 0.5136 0.45855 0.00725 0.0
C81 C 0.58919 0.56143 0.82637 0.0
O82 O 0.6035 0.54697 0.92929 0.0
C83 C 0.58447 0.47821 0.00891 0.0
O84 O 0.58083 0.47584 0.87435 0.0
O85 O 0.56765 0.49809 0.07363 0.0
O86 O 0.50054 0.49484 0.8503 0.0
O87 O 0.50514 0.55926 0.07678 0.0
C88 C 0.47547 0.55542 0.08954 0.0
O89 O 0.46258 0.52984 0.03957 0.0
O90 O 0.55987 0.55657 0.80757 0.0
Mg91 Mg 0.0444 0.51934 0.692 0.0
C92 C 1.01285 0.4601 0.79823 0.0
O93 O 0.03099 0.44814 0.70234 0.0
C94 C 0.08919 0.56977 0.67655 0.0
O95 O 0.07725 0.56573 0.55234 0.0
C96 C 0.09376 0.47558 0.60446 0.0
O97 O 0.09913 0.48006 0.73681 0.0
O98 O 0.07062 0.48988 0.54806 0.0
O99 O 1.01599 0.48905 0.82802 0.0
O100 O 1.00878 0.55119 0.60811 0.0
C101 C 0.99376 0.56458 0.70524 0.0
O102 O 1.00125 0.55742 0.83366 0.0
O103 O 0.07966 0.5518 0.77396 0.0
H104 H 0.16408 0.0488 0.20935 0.0
H105 H 0.07623 0.09577 0.11588 0.0
H106 H 0.19311 0.09389 0.11782 0.0
H107 H 0.10534 0.14076 0.02458 0.0
H108 H 0.16993 0.22663 0.14343 0.0
H109 H 0.13773 0.17943 0.15845 0.0
H110 H 0.20545 0.12951 0.91055 0.0
H111 H 0.23775 0.17737 0.89406 0.0
C112 C 0.15094 0.06842 0.16659 0.0
C113 C 0.1178 0.0688 0.17195 0.0
C114 C 0.16761 0.0942 0.1133 0.0
C115 C 0.15152 0.12104 0.06524 0.0
C116 C 0.1184 0.12056 0.06228 0.0
C117 C 0.10173 0.09469 0.11429 0.0
C118 C 0.1776 0.20581 0.08922 0.0
C119 C 0.20634 0.20566 0.01771 0.0
C120 C 0.15906 0.17877 0.09731 0.0
C121 C 0.16906 0.15067 0.03603 0.0
C122 C 0.19721 0.1508 0.95922 0.0
C123 C 0.21555 0.1782 0.94884 0.0
H124 H 0.12661 0.99485 0.71605 0.0
H125 H 0.06625 0.91341 0.74176 0.0
H126 H 0.16853 0.96567 0.83225 0.0
H127 H 0.10854 0.88372 0.85217 0.0
H128 H 0.18694 0.8378 0.09982 0.0
H129 H 0.14283 0.87283 0.04154 0.0
H130 H 0.20411 0.92656 0.77302 0.0
H131 H 0.24768 0.89283 0.83494 0.0
C132 C 0.12224 0.97073 0.7468 0.0
C133 C 0.09311 0.95644 0.71801 0.0
C134 C 0.14639 0.95383 0.81293 0.0
C135 C 0.14233 0.92199 0.8503 0.0
C136 C 0.11267 0.90817 0.82666 0.0
C137 C 0.08837 0.92521 0.76207 0.0
C138 C 0.19101 0.85756 0.03098 0.0
C139 C 0.22086 0.86234 0.97171 0.0
C140 C 0.16565 0.87749 -0.00384 0.0
C141 C 0.16962 0.90263 0.9015 0.0
C142 C 0.19991 0.90796 0.84767 0.0
C143 C 0.22504 0.88827 0.88253 0.0
H144 H 0.47387 0.96323 0.35526 0.0
H145 H 0.50073 0.943 0.93486 0.0
H146 H 0.43151 0.92456 0.33922 0.0
H147 H 0.45939 0.90369 0.92012 0.0
H148 H 0.36094 0.8601 0.88705 0.0
H149 H 0.40414 0.89797 0.90207 0.0
H150 H 0.42025 0.87044 0.32781 0.0
H151 H 0.3766 0.83376 0.3139 0.0
C152 C 0.47101 0.95021 0.26022 0.0
C153 C 0.49059 0.95628 0.14638 0.0
C154 C 0.44678 0.92793 0.25084 0.0
C155 C 0.4418 0.91096 0.12787 0.0
C156 C 0.46195 0.91667 0.01537 0.0
C157 C 0.48589 0.9391 0.02433 0.0
C158 C 0.37387 0.86211 0.98336 0.0
C159 C 0.36522 0.84407 0.09931 0.0
C160 C 0.39873 0.88373 0.99217 0.0
C161 C 0.4157 0.88753 0.11672 0.0
C162 C 0.40738 0.86881 0.23125 0.0
C163 C 0.38242 0.84754 0.22284 0.0
H164 H 0.41073 0.25469 0.05434 0.0
H165 H 0.33596 0.19359 0.19533 0.0
H166 H 0.44866 0.21224 0.0867 0.0
H167 H 0.37362 0.15093 0.22362 0.0
H168 H 0.45231 0.08921 0.38398 0.0
H169 H 0.41631 0.13306 0.36033 0.0
H170 H 0.4644 0.16296 0.98858 0.0
H171 H 0.50146 0.11923 0.01532 0.0
C172 C 0.40239 0.23225 0.09301 0.0
C173 C 0.37027 0.22761 0.12265 0.0
C174 C 0.42412 0.20778 0.11012 0.0
C175 C 0.41428 0.178 0.15691 0.0
C176 C 0.38222 0.17361 0.1891 0.0
C177 C 0.36054 0.19811 0.1727 0.0
C178 C 0.45529 0.10503 0.29675 0.0
C179 C 0.47976 0.10057 0.2011 0.0
C180 C 0.43443 0.1302 0.28286 0.0
C181 C 0.4372 0.15157 0.17213 0.0
C182 C 0.46175 0.1472 0.07619 0.0
C183 C 0.48287 0.12201 0.09076 0.0
H184 H 1.00612 0.89391 0.30544 0.0
H185 H 0.95152 0.97908 0.26161 0.0
H186 H 0.95751 0.86308 0.30569 0.0
H187 H 0.90319 0.94828 0.25981 0.0
H188 H 0.8329 0.88914 0.5223 0.0
H189 H 0.87805 0.92025 0.45133 0.0
H190 H 0.90822 0.84542 0.18311 0.0
H191 H 0.86239 0.81396 0.25537 0.0
C192 C 0.98385 0.90602 0.29264 0.0
C193 C 0.98274 0.93903 0.28594 0.0
C194 C 0.95597 0.8883 0.29202 0.0
C195 C 0.92642 0.90324 0.28461 0.0
C196 C 0.92552 0.93607 0.26812 0.0
C197 C 0.95329 0.95373 0.26891 0.0
C198 C 0.84876 0.87955 0.44583 0.0
C199 C 0.84414 0.84913 0.3945 0.0
C200 C 0.87462 0.89746 0.4045 0.0
C201 C 0.89685 0.88534 0.31162 0.0
C202 C 0.89159 0.85534 0.25542 0.0
C203 C 0.86525 0.83747 0.29562 0.0
H204 H 0.99769 0.11217 0.615 0.0
H205 H 0.93739 0.082 0.28094 0.0
H206 H 0.96276 0.15675 0.65557 0.0
H207 H 0.90191 0.12549 0.32455 0.0
H208 H 0.85638 0.22144 0.35245 0.0
H209 H 0.89466 0.18003 0.30484 0.0
H210 H 0.91334 0.17043 0.74299 0.0
H211 H 0.87643 0.21241 0.78914 0.0
C212 C 0.97682 0.11486 0.55126 0.0
C213 C 0.97038 0.09351 0.44485 0.0
C214 C 0.95666 0.14039 0.57459 0.0
C215 C 0.92936 0.14497 0.49313 0.0
C216 C 0.92293 0.12332 0.38761 0.0
C217 C 0.94321 0.0981 0.36341 0.0
C218 C 0.86888 0.21061 0.43818 0.0
C219 C 0.8633 0.22032 0.57442 0.0
C220 C 0.89071 0.18666 0.41124 0.0
C221 C 0.90722 0.17161 0.52008 0.0
C222 C 0.90169 0.18166 0.656 0.0
C223 C 0.88021 0.20573 0.6826 0.0
H224 H 0.68853 0.23676 0.65463 0.0
H225 H 0.75211 0.1618 0.77047 0.0
H226 H 0.64637 0.19875 0.62319 0.0
H227 H 0.70964 0.12378 0.74349 0.0
H228 H 0.64209 0.06551 0.46736 0.0
H229 H 0.6825 0.10068 0.55517 0.0
H230 H 0.61037 0.16174 0.71727 0.0
H231 H 0.56992 0.12698 0.62516 0.0
C232 C 0.69333 0.21225 0.67684 0.0
C233 C 0.72384 0.20235 0.71368 0.0
C234 C 0.66904 0.19035 0.6593 0.0
C235 C 0.67455 0.15798 0.6792 0.0
C236 C 0.70463 0.14836 0.72421 0.0
C237 C 0.72897 0.17024 0.74079 0.0
C238 C 0.63482 0.08612 0.52392 0.0
C239 C 0.60271 0.09356 0.53763 0.0
C240 C 0.65807 0.10634 0.575 0.0
C241 C 0.64983 0.13441 0.64217 0.0
C242 C 0.61767 0.14077 0.66344 0.0
C243 C 0.59443 0.12066 0.61151 0.0
H244 H 0.62555 0.92979 0.22084 0.0
H245 H 0.63015 0.99642 0.88231 0.0
H246 H 0.65957 0.89421 0.09663 0.0
H247 H 0.66552 0.96105 0.75882 0.0
H248 H 0.69687 0.87463 0.5139 0.0
H249 H 0.66573 0.91289 0.63871 0.0
H250 H 0.71116 0.88457 0.02062 0.0
H251 H 0.7415 0.84528 0.89556 0.0
C252 C 0.63414 0.93706 0.12019 0.0
C253 C 0.625 0.96601 0.06145 0.0
C254 C 0.65397 0.91664 0.04914 0.0
C255 C 0.66556 0.92462 0.91744 0.0
C256 C 0.65676 0.95384 0.85919 0.0
C257 C 0.63661 0.97425 0.93019 0.0
C258 C 0.70031 0.87657 0.62457 0.0
C259 C 0.72158 0.8567 0.69487 0.0
C260 C 0.68256 0.89878 0.69621 0.0
C261 C 0.68577 0.90199 0.84021 0.0
C262 C 0.70756 0.88248 0.91016 0.0
C263 C 0.72512 0.86001 0.83848 0.0
H264 H 0.65266 0.57113 0.81954 0.0
H265 H 0.56531 0.60606 0.64723 0.0
H266 H 0.68114 0.61394 0.70862 0.0
H267 H 0.59404 0.64903 0.53461 0.0
H268 H 0.65197 0.74315 0.57583 0.0
H269 H 0.62072 0.69629 0.62163 0.0
H270 H 0.6983 0.63819 0.49034 0.0
H271 H 0.72983 0.68524 0.44571 0.0
C272 C 0.63955 0.58769 0.75614 0.0
C273 C 0.60662 0.58528 0.74349 0.0
C274 C 0.65598 0.61216 0.69143 0.0
C275 C 0.63992 0.63505 0.61285 0.0
C276 C 0.60711 0.63196 0.59544 0.0
C277 C 0.59065 0.60724 0.65944 0.0
C278 C 0.66218 0.72042 0.55373 0.0
C279 C 0.69356 0.71799 0.50852 0.0
C280 C 0.64415 0.69349 0.57943 0.0
C281 C 0.65709 0.6634 0.56134 0.0
C282 C 0.68778 0.661 0.50733 0.0
C283 C 0.70577 0.688 0.48062 0.0
H284 H 0.74128 0.35448 0.25461 0.0
H285 H 0.67651 0.35322 0.59827 0.0
H286 H 0.70714 0.39204 0.13312 0.0
H287 H 0.64228 0.38979 0.47665 0.0
H288 H 0.60039 0.47776 0.28486 0.0
H289 H 0.63753 0.44302 0.40382 0.0
H290 H 0.65717 0.39642 0.01814 0.0
H291 H 0.62078 0.43164 0.89907 0.0
C292 C 0.71975 0.36206 0.30396 0.0
C293 C 0.71175 0.35079 0.43634 0.0
C294 C 0.70006 0.38353 0.23418 0.0
C295 C 0.67188 0.3942 0.29504 0.0
C296 C 0.66398 0.38273 0.42721 0.0
C297 C 0.68361 0.36144 0.49672 0.0
C298 C 0.61271 0.46019 0.22544 0.0
C299 C 0.60744 0.45751 0.08243 0.0
C300 C 0.63394 0.44009 0.29373 0.0
C301 C 0.65039 0.41667 0.22102 0.0
C302 C 0.64535 0.41433 0.0776 0.0
C303 C 0.62422 0.43447 0.00937 0.0
H304 H 0.8241 0.40661 0.71068 0.0
H305 H 0.86242 0.32074 0.88229 0.0
H306 H 0.87226 0.43427 0.77127 0.0
H307 H 0.9107 0.34866 0.94493 0.0
H308 H 1.00305 0.39706 0.7777 0.0
H309 H 0.95339 0.36912 0.80193 0.0
H310 H 0.90888 0.45403 0.9453 0.0
H311 H 0.95875 0.48224 0.91915 0.0
C312 C 0.84251 0.39377 0.76452 0.0
C313 C 0.83949 0.36135 0.79001 0.0
C314 C 0.87015 0.40974 0.80021 0.0
C315 C 0.89558 0.39367 0.86185 0.0
C316 C 0.89174 0.36167 0.89585 0.0
C317 C 0.86396 0.34571 0.86083 0.0
C318 C 0.98289 0.40965 0.81761 0.0
C319 C 0.98483 0.44199 0.84484 0.0
C320 C 0.95436 0.39353 0.8323 0.0
C321 C 0.92694 0.40937 0.87403 0.0
C322 C 0.92942 0.44122 0.91098 0.0
C323 C 0.95809 0.45734 0.89711 0.0
H324 H 0.83983 0.67773 0.37335 0.0
H325 H 0.86192 0.72143 0.76357 0.0
H326 H 0.8809 0.63904 0.41292 0.0
H327 H 0.90398 0.68305 0.80168 0.0
H328 H 0.95361 0.59004 0.8923 0.0
H329 H 0.91268 0.62895 0.85324 0.0
H330 H 0.93655 0.63239 0.41911 0.0
H331 H 0.97709 0.59248 0.45795 0.0
C332 C 0.85359 0.6792 0.46759 0.0
C333 C 0.84754 0.70272 0.56546 0.0
C334 C 0.8774 0.65708 0.4897 0.0
C335 C 0.89601 0.65791 0.61003 0.0
C336 C 0.8899 0.68141 0.70844 0.0
C337 C 0.86586 0.70352 0.68659 0.0
C338 C 0.95016 0.59903 0.78824 0.0
C339 C 0.96864 0.58808 0.67806 0.0
C340 C 0.92677 0.6216 0.7661 0.0
C341 C 0.92128 0.63404 0.6332 0.0
C342 C 0.93979 0.62307 0.52269 0.0
C343 C 0.96314 0.60027 0.5448 0.0
H344 H 0.48786 0.40538 0.95963 0.0
H345 H 0.44634 0.4827 0.73201 0.0
H346 H 0.44224 0.37301 0.90798 0.0
H347 H 0.4005 0.44996 0.6785 0.0
H348 H 0.30957 0.39774 0.84208 0.0
H349 H 0.35692 0.42946 0.81772 0.0
H350 H 0.41105 0.3459 0.73379 0.0
H351 H 0.36363 0.31397 0.76024 0.0
C352 C 0.46921 0.41533 0.89638 0.0
C353 C 0.47065 0.44674 0.85111 0.0
C354 C 0.44309 0.39662 0.86563 0.0
C355 C 0.41758 0.40885 0.78928 0.0
C356 C 0.41962 0.43989 0.7386 0.0
C357 C 0.44595 0.4586 0.76862 0.0
C358 C 0.3314 0.38613 0.81518 0.0
C359 C 0.33284 0.3532 0.80563 0.0
C360 C 0.3586 0.40441 0.80052 0.0
C361 C 0.38795 0.39021 0.77606 0.0
C362 C 0.38893 0.35752 0.75528 0.0
C363 C 0.36166 0.33923 0.76946 0.0
H364 H 0.31906 0.68551 0.25909 0.0
H365 H 0.39431 0.73568 0.05568 0.0
H366 H 0.35467 0.64067 0.29793 0.0
H367 H 0.42933 0.69148 0.09122 0.0
H368 H 0.49316 0.61316 0.1893 0.0
H369 H 0.45913 0.65789 0.23838 0.0
H370 H 0.37721 0.60129 0.14834 0.0
H371 H 0.41109 0.55646 0.1037 0.0
C372 C 0.34338 0.68729 0.22632 0.0
C373 C 0.35387 0.714 0.1538 0.0
C374 C 0.36371 0.66152 0.24697 0.0
C375 C 0.39494 0.66222 0.19673 0.0
C376 C 0.40573 0.68997 0.13303 0.0
C377 C 0.3855 0.71537 0.11169 0.0
C378 C 0.46787 0.61008 0.18263 0.0
C379 C 0.45497 0.58127 0.14039 0.0
C380 C 0.44829 0.63581 0.21017 0.0
C381 C 0.41531 0.63348 0.19539 0.0
C382 C 0.40239 0.60406 0.16198 0.0
C383 C 0.42194 0.57831 0.13513 0.0
H384 H 0.178 0.75186 0.71789 0.0
H385 H 0.25115 0.69033 0.87261 0.0
H386 H 0.14414 0.70659 0.67695 0.0
H387 H 0.21699 0.64484 0.83206 0.0
H388 H 0.12673 0.58101 0.90503 0.0
H389 H 0.16467 0.62409 0.93509 0.0
H390 H 0.14193 0.65901 0.52658 0.0
H391 H 0.10448 0.61648 0.4963 0.0
C392 C 0.18705 0.7286 0.74098 0.0
C393 C 0.21733 0.72472 0.79776 0.0
C394 C 0.16762 0.70266 0.71774 0.0
C395 C 0.17781 0.67216 0.75227 0.0
C396 C 0.20839 0.6681 0.80584 0.0
C397 C 0.22808 0.6941 0.82728 0.0
C398 C 0.12992 0.59788 0.82185 0.0
C399 C 0.11247 0.59532 0.69861 0.0
C400 C 0.15178 0.62238 0.83858 0.0
C401 C 0.15622 0.64496 0.73314 0.0
C402 C 0.13887 0.64218 0.6101 0.0
C403 C 0.11743 0.61766 0.59284 0.0
H404 H 0.16876 0.33663 0.03552 0.0
H405 H 0.24551 0.3536 0.31962 0.0
H406 H 0.13643 0.37452 0.15704 0.0
H407 H 0.21353 0.39252 0.43881 0.0
H408 H 0.13735 0.43496 0.70974 0.0
H409 H 0.16981 0.39754 0.58687 0.0
H410 H 0.12895 0.42866 0.19927 0.0
H411 H 0.09542 0.46546 0.3239 0.0
C412 C 0.17884 0.34862 0.12359 0.0
C413 C 0.20973 0.34199 0.16806 0.0
C414 C 0.16032 0.37061 0.19278 0.0
C415 C 0.17226 0.38681 0.30786 0.0
C416 C 0.20328 0.38022 0.35201 0.0
C417 C 0.22173 0.35798 0.28334 0.0
C418 C 0.13525 0.43389 0.59819 0.0
C419 C 0.11372 0.45323 0.52667 0.0
C420 C 0.15412 0.41251 0.52739 0.0
C421 C 0.15225 0.41001 0.38268 0.0
C422 C 0.13078 0.42953 0.31088 0.0
C423 C 0.11164 0.45079 0.38213 0.0
loop_
_geom_bond_atom_site_label_1
_geom_bond_atom_site_label_2
_geom_bond_distance
_geom_bond_site_symmetry_2
_ccdc_geom_bond_type
Mg0 O7 2.141 1_455 S
Mg0 O8 2.048 . S
Mg0 O9 2.048 1_545 S
Mg0 O12 2.141 1_445 S
C1 O2 1.313 . S
C1 O8 1.195 . S
O2 C1 1.313 . S
C3 O4 1.245 . S
C3 O12 1.289 . S
O4 C3 1.245 . S
C5 O6 1.245 . S
C5 O7 1.289 . S
O6 C5 1.245 . S
O7 Mg0 2.141 1_655 S
O7 C5 1.289 . S
O8 Mg0 2.048 . S
O8 C1 1.195 . S
O9 Mg0 2.048 1_565 S
O9 C10 1.195 . S
C10 O9 1.195 . S
C10 O11 1.313 . S
O11 C10 1.313 . S
O12 Mg0 2.141 1_665 S
O12 C3 1.289 . S
Mg13 O20 2.141 . S
Mg13 O21 2.048 . S
Mg13 O22 2.048 . S
Mg13 O25 2.141 . S
C14 O15 1.313 . S
C14 O21 1.195 . S
O15 C14 1.313 . S
C16 O17 1.245 1_556 S
C16 O25 1.289 . S
O17 C16 1.245 1_554 S
C18 O19 1.245 . S
C18 O20 1.289 . S
O19 C18 1.245 . S
O20 Mg13 2.141 . S
O20 C18 1.289 . S
O21 Mg13 2.048 . S
O21 C14 1.195 . S
O22 Mg13 2.048 . S
O22 C23 1.195 . S
C23 O22 1.195 . S
C23 O24 1.313 . S
O24 C23 1.313 . S
O25 Mg13 2.141 . S
O25 C16 1.289 . S
Mg26 O33 2.141 . S
Mg26 O34 2.048 . S
Mg26 O35 2.048 1_565 S
Mg26 O38 2.141 1_565 S
C27 O28 1.313 1_554 S
C27 O34 1.195 . S
O28 C27 1.313 1_556 S
C29 O30 1.245 . S
C29 O38 1.289 . S
O30 C29 1.245 . S
C31 O32 1.245 1_554 S
C31 O33 1.289 . S
O32 C31 1.245 1_556 S
O33 Mg26 2.141 . S
O33 C31 1.289 . S
O34 Mg26 2.048 . S
O34 C27 1.195 . S
O35 Mg26 2.048 1_545 S
O35 C36 1.195 . S
C36 O35 1.195 . S
C36 O37 1.313 . S
O37 C36 1.313 . S
O38 Mg26 2.141 1_545 S
O38 C29 1.289 . S
Mg39 O46 2.141 . S
Mg39 O47 2.048 . S
Mg39 O48 2.048 . S
Mg39 O51 2.141 . S
C40 O41 1.313 . S
C40 O47 1.195 . S
O41 C40 1.313 . S
C42 O43 1.245 . S
C42 O51 1.289 . S
O43 C42 1.245 . S
C44 O45 1.245 . S
C44 O46 1.289 . S
O45 C44 1.245 . S
O46 Mg39 2.141 . S
O46 C44 1.289 . S
O47 Mg39 2.048 . S
O47 C40 1.195 . S
O48 Mg39 2.048 . S
O48 C49 1.195 . S
C49 O48 1.195 . S
C49 O50 1.313 . S
O50 C49 1.313 . S
O51 Mg39 2.141 . S
O51 C42 1.289 . S
Mg52 O59 2.141 . S
Mg52 O60 2.048 . S
Mg52 O61 2.048 . S
Mg52 O64 2.141 . S
C53 O54 1.313 . S
C53 O60 1.195 . S
O54 C53 1.313 . S
C55 O56 1.245 . S
C55 O64 1.289 . S
O56 C55 1.245 . S
C57 O58 1.245 . S
C57 O59 1.289 . S
O58 C57 1.245 . S
O59 Mg52 2.141 . S
O59 C57 1.289 . S
O60 Mg52 2.048 . S
O60 C53 1.195 . S
O61 Mg52 2.048 . S
O61 C62 1.195 . S
C62 O61 1.195 . S
C62 O63 1.313 . S
O63 C62 1.313 . S
O64 Mg52 2.141 . S
O64 C55 1.289 . S
Mg65 O72 2.141 . S
Mg65 O73 2.048 . S
Mg65 O74 2.048 . S
Mg65 O77 2.141 . S
C66 O67 1.313 . S
C66 O73 1.195 . S
O67 C66 1.313 . S
C68 O69 1.245 . S
C68 O77 1.289 . S
O69 C68 1.245 . S
C70 O71 1.245 . S
C70 O72 1.289 . S
O71 C70 1.245 . S
O72 Mg65 2.141 . S
O72 C70 1.289 . S
O73 Mg65 2.048 . S
O73 C66 1.195 . S
O74 Mg65 2.048 . S
O74 C75 1.195 . S
C75 O74 1.195 . S
C75 O76 1.313 . S
O76 C75 1.313 . S
O77 Mg65 2.141 . S
O77 C68 1.289 . S
Mg78 O85 2.141 . S
Mg78 O86 2.048 . S
Mg78 O87 2.048 . S
Mg78 O90 2.141 . S
C79 O80 1.313 1_554 S
C79 O86 1.195 . S
O80 C79 1.313 1_556 S
C81 O82 1.245 . S
C81 O90 1.289 1_556 S
O82 C81 1.245 . S
C83 O84 1.245 1_554 S
C83 O85 1.289 . S
O84 C83 1.245 1_556 S
O85 Mg78 2.141 . S
O85 C83 1.289 . S
O86 Mg78 2.048 . S
O86 C79 1.195 . S
O87 Mg78 2.048 . S
O87 C88 1.195 1_554 S
C88 O87 1.195 1_556 S
C88 O89 1.313 . S
O89 C88 1.313 . S
O90 Mg78 2.141 . S
O90 C81 1.289 1_554 S
Mg91 O98 2.141 . S
Mg91 O99 2.048 1_455 S
Mg91 O100 2.048 1_455 S
Mg91 O103 2.141 . S
C92 O93 1.313 . S
C92 O99 1.195 . S
O93 C92 1.313 . S
C94 O95 1.245 . S
C94 O103 1.289 . S
O95 C94 1.245 . S
C96 O97 1.245 . S
C96 O98 1.289 . S
O97 C96 1.245 . S
O98 Mg91 2.141 . S
O98 C96 1.289 . S
O99 Mg91 2.048 1_655 S
O99 C92 1.195 . S
O100 Mg91 2.048 1_655 S
O100 C101 1.195 . S
C101 O100 1.195 . S
C101 O102 1.313 . S
O102 C101 1.313 . S
O103 Mg91 2.141 . S
O103 C94 1.289 . S
H104 C112 0.950 . S
H105 C117 0.950 . S
H106 C114 0.950 . S
H107 C116 0.950 . S
H108 C118 0.950 . S
H109 C120 0.950 . S
H110 C122 0.950 . S
H111 C123 0.950 . S
C112 H104 0.950 . S
C112 C113 1.386 . S
C112 C114 1.391 . S
C113 C112 1.386 . S
C113 C117 1.393 . S
C114 H106 0.950 . S
C114 C112 1.391 . S
C114 C115 1.400 . S
C115 C114 1.400 . S
C115 C116 1.398 . S
C115 C121 1.491 . S
C116 H107 0.950 . S
C116 C115 1.398 . S
C116 C117 1.391 . S
C117 H105 0.950 . S
C117 C113 1.393 . S
C117 C116 1.391 . S
C118 H108 0.950 . S
C118 C119 1.386 . S
C118 C120 1.391 . S
C119 C118 1.386 . S
C119 C123 1.393 . S
C120 H109 0.950 . S
C120 C118 1.391 . S
C120 C121 1.400 . S
C121 C115 1.491 . S
C121 C120 1.400 . S
C121 C122 1.398 . S
C122 H110 0.950 . S
C122 C121 1.398 . S
C122 C123 1.391 . S
C123 H111 0.950 . S
C123 C119 1.393 . S
C123 C122 1.391 . S
H124 C132 0.950 . S
H125 C137 0.950 . S
H126 C134 0.950 . S
H127 C136 0.950 . S
H128 C138 0.950 . S
H129 C140 0.950 . S
H130 C142 0.950 . S
H131 C143 0.950 . S
C132 H124 0.950 . S
C132 C133 1.386 . S
C132 C134 1.391 . S
C133 C132 1.386 . S
C133 C137 1.393 . S
C134 H126 0.950 . S
C134 C132 1.391 . S
C134 C135 1.400 . S
C135 C134 1.400 . S
C135 C136 1.398 . S
C135 C141 1.491 . S
C136 H127 0.950 . S
C136 C135 1.398 . S
C136 C137 1.391 . S
C137 H125 0.950 . S
C137 C133 1.393 . S
C137 C136 1.391 . S
C138 H128 0.950 . S
C138 C139 1.386 . S
C138 C140 1.391 . S
C139 C138 1.386 . S
C139 C143 1.393 . S
C140 H129 0.950 . S
C140 C138 1.391 . S
C140 C141 1.400 . S
C141 C135 1.491 . S
C141 C140 1.400 . S
C141 C142 1.398 . S
C142 H130 0.950 . S
C142 C141 1.398 . S
C142 C143 1.391 . S
C143 H131 0.950 . S
C143 C139 1.393 . S
C143 C142 1.391 . S
H144 C152 0.950 . S
H145 C157 0.950 1_556 S
H146 C154 0.950 . S
H147 C156 0.950 . S
H148 C158 0.950 . S
H149 C160 0.950 . S
H150 C162 0.950 1_554 S
H151 C163 0.950 . S
C152 H144 0.950 . S
C152 C153 1.386 . S
C152 C154 1.391 . S
C153 C152 1.386 . S
C153 C157 1.393 . S
C154 H146 0.950 . S
C154 C152 1.391 . S
C154 C155 1.400 . S
C155 C154 1.400 . S
C155 C156 1.398 1_554 S
C155 C161 1.491 1_554 S
C156 H147 0.950 . S
C156 C155 1.398 1_556 S
C156 C157 1.391 1_556 S
C157 H145 0.950 1_554 S
C157 C153 1.393 . S
C157 C156 1.391 1_554 S
C158 H148 0.950 . S
C158 C159 1.386 . S
C158 C160 1.391 . S
C159 C158 1.386 . S
C159 C163 1.393 . S
C160 H149 0.950 . S
C160 C158 1.391 . S
C160 C161 1.400 . S
C161 C155 1.491 1_556 S
C161 C160 1.400 . S
C161 C162 1.398 . S
C162 H150 0.950 1_556 S
C162 C161 1.398 . S
C162 C163 1.391 . S
C163 H151 0.950 . S
C163 C159 1.393 . S
C163 C162 1.391 . S
H164 C172 0.950 . S
H165 C177 0.950 . S
H166 C174 0.950 . S
H167 C176 0.950 . S
H168 C178 0.950 . S
H169 C180 0.950 . S
H170 C182 0.950 . S
H171 C183 0.950 . S
C172 H164 0.950 . S
C172 C173 1.386 . S
C172 C174 1.391 . S
C173 C172 1.386 . S
C173 C177 1.393 . S
C174 H166 0.950 . S
C174 C172 1.391 . S
C174 C175 1.400 . S
C175 C174 1.400 . S
C175 C176 1.398 . S
C175 C181 1.491 . S
C176 H167 0.950 . S
C176 C175 1.398 . S
C176 C177 1.391 . S
C177 H165 0.950 . S
C177 C173 1.393 . S
C177 C176 1.391 . S
C178 H168 0.950 . S
C178 C179 1.386 . S
C178 C180 1.391 . S
C179 C178 1.386 . S
C179 C183 1.393 . S
C180 H169 0.950 . S
C180 C178 1.391 . S
C180 C181 1.400 . S
C181 C175 1.491 . S
C181 C180 1.400 . S
C181 C182 1.398 . S
C182 H170 0.950 . S
C182 C181 1.398 . S
C182 C183 1.391 . S
C183 H171 0.950 . S
C183 C179 1.393 . S
C183 C182 1.391 . S
H184 C192 0.950 . S
H185 C197 0.950 . S
H186 C194 0.950 . S
H187 C196 0.950 . S
H188 C198 0.950 . S
H189 C200 0.950 . S
H190 C202 0.950 . S
H191 C203 0.950 . S
C192 H184 0.950 . S
C192 C193 1.386 . S
C192 C194 1.391 . S
C193 C192 1.386 . S
C193 C197 1.393 . S
C194 H186 0.950 . S
C194 C192 1.391 . S
C194 C195 1.400 . S
C195 C194 1.400 . S
C195 C196 1.398 . S
C195 C201 1.491 . S
C196 H187 0.950 . S
C196 C195 1.398 . S
C196 C197 1.391 . S
C197 H185 0.950 . S
C197 C193 1.393 . S
C197 C196 1.391 . S
C198 H188 0.950 . S
C198 C199 1.386 . S
C198 C200 1.391 . S
C199 C198 1.386 . S
C199 C203 1.393 . S
C200 H189 0.950 . S
C200 C198 1.391 . S
C200 C201 1.400 . S
C201 C195 1.491 . S
C201 C200 1.400 . S
C201 C202 1.398 . S
C202 H190 0.950 . S
C202 C201 1.398 . S
C202 C203 1.391 . S
C203 H191 0.950 . S
C203 C199 1.393 . S
C203 C202 1.391 . S
H204 C212 0.950 . S
H205 C217 0.950 . S
H206 C214 0.950 . S
H207 C216 0.950 . S
H208 C218 0.950 . S
H209 C220 0.950 . S
H210 C222 0.950 . S
H211 C223 0.950 . S
C212 H204 0.950 . S
C212 C213 1.386 . S
C212 C214 1.391 . S
C213 C212 1.386 . S
C213 C217 1.393 . S
C214 H206 0.950 . S
C214 C212 1.391 . S
C214 C215 1.400 . S
C215 C214 1.400 . S
C215 C216 1.398 . S
C215 C221 1.491 . S
C216 H207 0.950 . S
C216 C215 1.398 . S
C216 C217 1.391 . S
C217 H205 0.950 . S
C217 C213 1.393 . S
C217 C216 1.391 . S
C218 H208 0.950 . S
C218 C219 1.386 . S
C218 C220 1.391 . S
C219 C218 1.386 . S
C219 C223 1.393 . S
C220 H209 0.950 . S
C220 C218 1.391 . S
C220 C221 1.400 . S
C221 C215 1.491 . S
C221 C220 1.400 . S
C221 C222 1.398 . S
C222 H210 0.950 . S
C222 C221 1.398 . S
C222 C223 1.391 . S
C223 H211 0.950 . S
C223 C219 1.393 . S
C223 C222 1.391 . S
H224 C232 0.950 . S
H225 C237 0.950 . S
H226 C234 0.950 . S
H227 C236 0.950 . S
H228 C238 0.950 . S
H229 C240 0.950 . S
H230 C242 0.950 . S
H231 C243 0.950 . S
C232 H224 0.950 . S
C232 C233 1.386 . S
C232 C234 1.391 . S
C233 C232 1.386 . S
C233 C237 1.393 . S
C234 H226 0.950 . S
C234 C232 1.391 . S
C234 C235 1.400 . S
C235 C234 1.400 . S
C235 C236 1.398 . S
C235 C241 1.491 . S
C236 H227 0.950 . S
C236 C235 1.398 . S
C236 C237 1.391 . S
C237 H225 0.950 . S
C237 C233 1.393 . S
C237 C236 1.391 . S
C238 H228 0.950 . S
C238 C239 1.386 . S
C238 C240 1.391 . S
C239 C238 1.386 . S
C239 C243 1.393 . S
C240 H229 0.950 . S
C240 C238 1.391 . S
C240 C241 1.400 . S
C241 C235 1.491 . S
C241 C240 1.400 . S
C241 C242 1.398 . S
C242 H230 0.950 . S
C242 C241 1.398 . S
C242 C243 1.391 . S
C243 H231 0.950 . S
C243 C239 1.393 . S
C243 C242 1.391 . S
H244 C252 0.950 . S
H245 C257 0.950 . S
H246 C254 0.950 . S
H247 C256 0.950 . S
H248 C258 0.950 . S
H249 C260 0.950 . S
H250 C262 0.950 . S
H251 C263 0.950 . S
C252 H244 0.950 . S
C252 C253 1.386 1_556 S
C252 C254 1.391 . S
C253 C252 1.386 1_554 S
C253 C257 1.393 . S
C254 H246 0.950 . S
C254 C252 1.391 . S
C254 C255 1.400 1_556 S
C255 C254 1.400 1_554 S
C255 C256 1.398 . S
C255 C261 1.491 1_554 S
C256 H247 0.950 . S
C256 C255 1.398 . S
C256 C257 1.391 . S
C257 H245 0.950 . S
C257 C253 1.393 . S
C257 C256 1.391 . S
C258 H248 0.950 . S
C258 C259 1.386 1_554 S
C258 C260 1.391 . S
C259 C258 1.386 1_556 S
C259 C263 1.393 . S
C260 H249 0.950 . S
C260 C258 1.391 . S
C260 C261 1.400 1_554 S
C261 C255 1.491 1_556 S
C261 C260 1.400 1_556 S
C261 C262 1.398 . S
C262 H250 0.950 . S
C262 C261 1.398 . S
C262 C263 1.391 . S
C263 H251 0.950 . S
C263 C259 1.393 . S
C263 C262 1.391 . S
H264 C272 0.950 . S
H265 C277 0.950 . S
H266 C274 0.950 . S
H267 C276 0.950 . S
H268 C278 0.950 1_554 S
H269 C280 0.950 1_554 S
H270 C282 0.950 . S
H271 C283 0.950 . S
C272 H264 0.950 . S
C272 C273 1.386 . S
C272 C274 1.391 . S
C273 C272 1.386 . S
C273 C277 1.393 1_556 S
C274 H266 0.950 . S
C274 C272 1.391 . S
C274 C275 1.400 . S
C275 C274 1.400 . S
C275 C276 1.398 1_556 S
C275 C281 1.491 . S
C276 H267 0.950 . S
C276 C275 1.398 1_554 S
C276 C277 1.391 . S
C277 H265 0.950 . S
C277 C273 1.393 1_554 S
C277 C276 1.391 . S
C278 H268 0.950 1_556 S
C278 C279 1.386 . S
C278 C280 1.391 . S
C279 C278 1.386 . S
C279 C283 1.393 . S
C280 H269 0.950 1_556 S
C280 C278 1.391 . S
C280 C281 1.400 . S
C281 C275 1.491 . S
C281 C280 1.400 . S
C281 C282 1.398 . S
C282 H270 0.950 . S
C282 C281 1.398 . S
C282 C283 1.391 . S
C283 H271 0.950 . S
C283 C279 1.393 . S
C283 C282 1.391 . S
H284 C292 0.950 . S
H285 C297 0.950 . S
H286 C294 0.950 . S
H287 C296 0.950 . S
H288 C298 0.950 . S
H289 C300 0.950 . S
H290 C302 0.950 1_556 S
H291 C303 0.950 . S
C292 H284 0.950 . S
C292 C293 1.386 . S
C292 C294 1.391 . S
C293 C292 1.386 . S
C293 C297 1.393 . S
C294 H286 0.950 . S
C294 C292 1.391 . S
C294 C295 1.400 . S
C295 C294 1.400 . S
C295 C296 1.398 . S
C295 C301 1.491 . S
C296 H287 0.950 . S
C296 C295 1.398 . S
C296 C297 1.391 . S
C297 H285 0.950 . S
C297 C293 1.393 . S
C297 C296 1.391 . S
C298 H288 0.950 . S
C298 C299 1.386 . S
C298 C300 1.391 . S
C299 C298 1.386 . S
C299 C303 1.393 1_554 S
C300 H289 0.950 . S
C300 C298 1.391 . S
C300 C301 1.400 . S
C301 C295 1.491 . S
C301 C300 1.400 . S
C301 C302 1.398 . S
C302 H290 0.950 1_554 S
C302 C301 1.398 . S
C302 C303 1.391 1_554 S
C303 H291 0.950 . S
C303 C299 1.393 1_556 S
C303 C302 1.391 1_556 S
H304 C312 0.950 . S
H305 C317 0.950 . S
H306 C314 0.950 . S
H307 C316 0.950 . S
H308 C318 0.950 . S
H309 C320 0.950 . S
H310 C322 0.950 . S
H311 C323 0.950 . S
C312 H304 0.950 . S
C312 C313 1.386 . S
C312 C314 1.391 . S
C313 C312 1.386 . S
C313 C317 1.393 . S
C314 H306 0.950 . S
C314 C312 1.391 . S
C314 C315 1.400 . S
C315 C314 1.400 . S
C315 C316 1.398 . S
C315 C321 1.491 . S
C316 H307 0.950 . S
C316 C315 1.398 . S
C316 C317 1.391 . S
C317 H305 0.950 . S
C317 C313 1.393 . S
C317 C316 1.391 . S
C318 H308 0.950 . S
C318 C319 1.386 . S
C318 C320 1.391 . S
C319 C318 1.386 . S
C319 C323 1.393 . S
C320 H309 0.950 . S
C320 C318 1.391 . S
C320 C321 1.400 . S
C321 C315 1.491 . S
C321 C320 1.400 . S
C321 C322 1.398 . S
C322 H310 0.950 . S
C322 C321 1.398 . S
C322 C323 1.391 . S
C323 H311 0.950 . S
C323 C319 1.393 . S
C323 C322 1.391 . S
H324 C332 0.950 . S
H325 C337 0.950 . S
H326 C334 0.950 . S
H327 C336 0.950 . S
H328 C338 0.950 . S
H329 C340 0.950 . S
H330 C342 0.950 . S
H331 C343 0.950 . S
C332 H324 0.950 . S
C332 C333 1.386 . S
C332 C334 1.391 . S
C333 C332 1.386 . S
C333 C337 1.393 . S
C334 H326 0.950 . S
C334 C332 1.391 . S
C334 C335 1.400 . S
C335 C334 1.400 . S
C335 C336 1.398 . S
C335 C341 1.491 . S
C336 H327 0.950 . S
C336 C335 1.398 . S
C336 C337 1.391 . S
C337 H325 0.950 . S
C337 C333 1.393 . S
C337 C336 1.391 . S
C338 H328 0.950 . S
C338 C339 1.386 . S
C338 C340 1.391 . S
C339 C338 1.386 . S
C339 C343 1.393 . S
C340 H329 0.950 . S
C340 C338 1.391 . S
C340 C341 1.400 . S
C341 C335 1.491 . S
C341 C340 1.400 . S
C341 C342 1.398 . S
C342 H330 0.950 . S
C342 C341 1.398 . S
C342 C343 1.391 . S
C343 H331 0.950 . S
C343 C339 1.393 . S
C343 C342 1.391 . S
H344 C352 0.950 . S
H345 C357 0.950 . S
H346 C354 0.950 . S
H347 C356 0.950 . S
H348 C358 0.950 . S
H349 C360 0.950 . S
H350 C362 0.950 1_556 S
H351 C363 0.950 1_556 S
C352 H344 0.950 . S
C352 C353 1.386 1_556 S
C352 C354 1.391 . S
C353 C352 1.386 1_554 S
C353 C357 1.393 . S
C354 H346 0.950 . S
C354 C352 1.391 . S
C354 C355 1.400 1_556 S
C355 C354 1.400 1_554 S
C355 C356 1.398 . S
C355 C361 1.491 . S
C356 H347 0.950 . S
C356 C355 1.398 . S
C356 C357 1.391 . S
C357 H345 0.950 . S
C357 C353 1.393 . S
C357 C356 1.391 . S
C358 H348 0.950 . S
C358 C359 1.386 . S
C358 C360 1.391 . S
C359 C358 1.386 . S
C359 C363 1.393 . S
C360 H349 0.950 . S
C360 C358 1.391 . S
C360 C361 1.400 . S
C361 C355 1.491 . S
C361 C360 1.400 . S
C361 C362 1.398 . S
C362 H350 0.950 1_554 S
C362 C361 1.398 . S
C362 C363 1.391 . S
C363 H351 0.950 1_554 S
C363 C359 1.393 . S
C363 C362 1.391 . S
H364 C372 0.950 . S
H365 C377 0.950 . S
H366 C374 0.950 . S
H367 C376 0.950 . S
H368 C378 0.950 . S
H369 C380 0.950 . S
H370 C382 0.950 . S
H371 C383 0.950 . S
C372 H364 0.950 . S
C372 C373 1.386 . S
C372 C374 1.391 . S
C373 C372 1.386 . S
C373 C377 1.393 . S
C374 H366 0.950 . S
C374 C372 1.391 . S
C374 C375 1.400 . S
C375 C374 1.400 . S
C375 C376 1.398 . S
C375 C381 1.491 . S
C376 H367 0.950 . S
C376 C375 1.398 . S
C376 C377 1.391 . S
C377 H365 0.950 . S
C377 C373 1.393 . S
C377 C376 1.391 . S
C378 H368 0.950 . S
C378 C379 1.386 . S
C378 C380 1.391 . S
C379 C378 1.386 . S
C379 C383 1.393 . S
C380 H369 0.950 . S
C380 C378 1.391 . S
C380 C381 1.400 . S
C381 C375 1.491 . S
C381 C380 1.400 . S
C381 C382 1.398 . S
C382 H370 0.950 . S
C382 C381 1.398 . S
C382 C383 1.391 . S
C383 H371 0.950 . S
C383 C379 1.393 . S
C383 C382 1.391 . S
H384 C392 0.950 . S
H385 C397 0.950 . S
H386 C394 0.950 . S
H387 C396 0.950 . S
H388 C398 0.950 . S
H389 C400 0.950 . S
H390 C402 0.950 . S
H391 C403 0.950 . S
C392 H384 0.950 . S
C392 C393 1.386 . S
C392 C394 1.391 . S
C393 C392 1.386 . S
C393 C397 1.393 . S
C394 H386 0.950 . S
C394 C392 1.391 . S
C394 C395 1.400 . S
C395 C394 1.400 . S
C395 C396 1.398 . S
C395 C401 1.491 . S
C396 H387 0.950 . S
C396 C395 1.398 . S
C396 C397 1.391 . S
C397 H385 0.950 . S
C397 C393 1.393 . S
C397 C396 1.391 . S
C398 H388 0.950 . S
C398 C399 1.386 . S
C398 C400 1.391 . S
C399 C398 1.386 . S
C399 C403 1.393 . S
C400 H389 0.950 . S
C400 C398 1.391 . S
C400 C401 1.400 . S
C401 C395 1.491 . S
C401 C400 1.400 . S
C401 C402 1.398 . S
C402 H390 0.950 . S
C402 C401 1.398 . S
C402 C403 1.391 . S
C403 H391 0.950 . S
C403 C399 1.393 . S
C403 C402 1.391 . S
H404 C412 0.950 . S
H405 C417 0.950 . S
H406 C414 0.950 . S
H407 C416 0.950 . S
H408 C418 0.950 . S
H409 C420 0.950 . S
H410 C422 0.950 . S
H411 C423 0.950 . S
C412 H404 0.950 . S
C412 C413 1.386 . S
C412 C414 1.391 . S
C413 C412 1.386 . S
C413 C417 1.393 . S
C414 H406 0.950 . S
C414 C412 1.391 . S
C414 C415 1.400 . S
C415 C414 1.400 . S
C415 C416 1.398 . S
C415 C421 1.491 . S
C416 H407 0.950 . S
C416 C415 1.398 . S
C416 C417 1.391 . S
C417 H405 0.950 . S
C417 C413 1.393 . S
C417 C416 1.391 . S
C418 H408 0.950 . S
C418 C419 1.386 . S
C418 C420 1.391 . S
C419 C418 1.386 . S
C419 C423 1.393 . S
C420 H409 0.950 . S
C420 C418 1.391 . S
C420 C421 1.400 . S
C421 C415 1.491 . S
C421 C420 1.400 . S
C421 C422 1.398 . S
C422 H410 0.950 . S
C422 C421 1.398 . S
C422 C423 1.391 . S
C423 H411 0.950 . S
C423 C419 1.393 . S
C423 C422 1.391 . S
C113 C1 1.565 . S
C119 C40 1.564 . S
C133 C10 1.487 . S
C139 C18 1.484 . S
C153 C27 1.470 . S
C159 C16 1.470 . S
C173 C49 1.539 . S
C179 C36 1.536 . S
C193 C3 1.490 . S
C199 C66 1.504 . S
C213 C5 1.452 . S
C219 C57 1.453 . S
C233 C55 1.479 . S
C239 C29 1.475 . S
C253 C31 1.517 . S
C259 C75 1.533 . S
C273 C81 1.428 . S
C279 C68 1.422 . S
C293 C62 1.525 . S
C299 C83 1.521 . S
C313 C53 1.560 . S
C319 C92 1.558 . S
C333 C70 1.455 . S
C339 C101 1.464 . S
C353 C79 1.507 . S
C359 C42 1.493 . S
C373 C23 1.572 . S
C379 C88 1.573 . S
C393 C14 1.534 . S
C399 C94 1.534 . S
C413 C44 1.449 . S
C419 C96 1.461 . S
