# Generated by pormake.
# Topology vcq, (7)-cn, num edge types: 1
# Building blocks:
#     Node 0, Type 0, BuildingBlock: HICVOG_clean_sbu_0, # of connection points: 7
#     Node 1, Type 0, BuildingBlock: HICVOG_clean_sbu_0, # of connection points: 7
#     Node 2, Type 0, BuildingBlock: HICVOG_clean_sbu_0, # of connection points: 7
#     Node 3, Type 0, BuildingBlock: HICVOG_clean_sbu_0, # of connection points: 7
#     Node 4, Type 0, BuildingBlock: HICVOG_clean_sbu_0, # of connection points: 7
#     Node 5, Type 0, BuildingBlock: HICVOG_clean_sbu_0, # of connection points: 7
#     Node 6, Type 0, BuildingBlock: HICVOG_clean_sbu_0, # of connection points: 7
#     Node 7, Type 0, BuildingBlock: HICVOG_clean_sbu_0, # of connection points: 7
#     Node 8, Type 0, BuildingBlock: HICVOG_clean_sbu_0, # of connection points: 7
#     Node 9, Type 0, BuildingBlock: HICVOG_clean_sbu_0, # of connection points: 7
#     Node 10, Type 0, BuildingBlock: HICVOG_clean_sbu_0, # of connection points: 7
#     Node 11, Type 0, BuildingBlock: HICVOG_clean_sbu_0, # of connection points: 7
#     Node 12, Type 0, BuildingBlock: HICVOG_clean_sbu_0, # of connection points: 7
#     Node 13, Type 0, BuildingBlock: HICVOG_clean_sbu_0, # of connection points: 7
#     Node 14, Type 0, BuildingBlock: HICVOG_clean_sbu_0, # of connection points: 7
#     Node 15, Type 0, BuildingBlock: HICVOG_clean_sbu_0, # of connection points: 7
#     Edge 16, Type (0, 0), BuildingBlock: CIFDUS_clean_linker_0, # of connection points: 2
#     Edge 17, Type (0, 0), BuildingBlock: CIFDUS_clean_linker_0, # of connection points: 2
#     Edge 18, Type (0, 0), BuildingBlock: CIFDUS_clean_linker_0, # of connection points: 2
#     Edge 19, Type (0, 0), BuildingBlock: CIFDUS_clean_linker_0, # of connection points: 2
#     Edge 20, Type (0, 0), BuildingBlock: CIFDUS_clean_linker_0, # of connection points: 2
#     Edge 21, Type (0, 0), BuildingBlock: CIFDUS_clean_linker_0, # of connection points: 2
#     Edge 22, Type (0, 0), BuildingBlock: CIFDUS_clean_linker_0, # of connection points: 2
#     Edge 23, Type (0, 0), BuildingBlock: CIFDUS_clean_linker_0, # of connection points: 2
#     Edge 24, Type (0, 0), BuildingBlock: CIFDUS_clean_linker_0, # of connection points: 2
#     Edge 25, Type (0, 0), BuildingBlock: CIFDUS_clean_linker_0, # of connection points: 2
#     Edge 26, Type (0, 0), BuildingBlock: CIFDUS_clean_linker_0, # of connection points: 2
#     Edge 27, Type (0, 0), BuildingBlock: CIFDUS_clean_linker_0, # of connection points: 2
#     Edge 28, Type (0, 0), BuildingBlock: CIFDUS_clean_linker_0, # of connection points: 2
#     Edge 29, Type (0, 0), BuildingBlock: CIFDUS_clean_linker_0, # of connection points: 2
#     Edge 30, Type (0, 0), BuildingBlock: CIFDUS_clean_linker_0, # of connection points: 2
#     Edge 31, Type (0, 0), BuildingBlock: CIFDUS_clean_linker_0, # of connection points: 2
#     Edge 32, Type (0, 0), BuildingBlock: CIFDUS_clean_linker_0, # of connection points: 2
#     Edge 33, Type (0, 0), BuildingBlock: CIFDUS_clean_linker_0, # of connection points: 2
#     Edge 34, Type (0, 0), BuildingBlock: CIFDUS_clean_linker_0, # of connection points: 2
#     Edge 35, Type (0, 0), BuildingBlock: CIFDUS_clean_linker_0, # of connection points: 2
#     Edge 36, Type (0, 0), BuildingBlock: CIFDUS_clean_linker_0, # of connection points: 2
#     Edge 37, Type (0, 0), BuildingBlock: CIFDUS_clean_linker_0, # of connection points: 2
#     Edge 38, Type (0, 0), BuildingBlock: CIFDUS_clean_linker_0, # of connection points: 2
#     Edge 39, Type (0, 0), BuildingBlock: CIFDUS_clean_linker_0, # of connection points: 2
#     Edge 40, Type (0, 0), BuildingBlock: CIFDUS_clean_linker_0, # of connection points: 2
#     Edge 41, Type (0, 0), BuildingBlock: CIFDUS_clean_linker_0, # of connection points: 2
#     Edge 42, Type (0, 0), BuildingBlock: CIFDUS_clean_linker_0, # of connection points: 2
#     Edge 43, Type (0, 0), BuildingBlock: CIFDUS_clean_linker_0, # of connection points: 2
#     Edge 44, Type (0, 0), BuildingBlock: CIFDUS_clean_linker_0, # of connection points: 2
#     Edge 45, Type (0, 0), BuildingBlock: CIFDUS_clean_linker_0, # of connection points: 2
#     Edge 46, Type (0, 0), BuildingBlock: CIFDUS_clean_linker_0, # of connection points: 2
#     Edge 47, Type (0, 0), BuildingBlock: CIFDUS_clean_linker_0, # of connection points: 2
#     Edge 48, Type (0, 0), BuildingBlock: CIFDUS_clean_linker_0, # of connection points: 2
#     Edge 49, Type (0, 0), BuildingBlock: CIFDUS_clean_linker_0, # of connection points: 2
#     Edge 50, Type (0, 0), BuildingBlock: CIFDUS_clean_linker_0, # of connection points: 2
#     Edge 51, Type (0, 0), BuildingBlock: CIFDUS_clean_linker_0, # of connection points: 2
#     Edge 52, Type (0, 0), BuildingBlock: CIFDUS_clean_linker_0, # of connection points: 2
#     Edge 53, Type (0, 0), BuildingBlock: CIFDUS_clean_linker_0, # of connection points: 2
#     Edge 54, Type (0, 0), BuildingBlock: CIFDUS_clean_linker_0, # of connection points: 2
#     Edge 55, Type (0, 0), BuildingBlock: CIFDUS_clean_linker_0, # of connection points: 2
#     Edge 56, Type (0, 0), BuildingBlock: CIFDUS_clean_linker_0, # of connection points: 2
#     Edge 57, Type (0, 0), BuildingBlock: CIFDUS_clean_linker_0, # of connection points: 2
#     Edge 58, Type (0, 0), BuildingBlock: CIFDUS_clean_linker_0, # of connection points: 2
#     Edge 59, Type (0, 0), BuildingBlock: CIFDUS_clean_linker_0, # of connection points: 2
#     Edge 60, Type (0, 0), BuildingBlock: CIFDUS_clean_linker_0, # of connection points: 2
#     Edge 61, Type (0, 0), BuildingBlock: CIFDUS_clean_linker_0, # of connection points: 2
#     Edge 62, Type (0, 0), BuildingBlock: CIFDUS_clean_linker_0, # of connection points: 2
#     Edge 63, Type (0, 0), BuildingBlock: CIFDUS_clean_linker_0, # of connection points: 2
#     Edge 64, Type (0, 0), BuildingBlock: CIFDUS_clean_linker_0, # of connection points: 2
#     Edge 65, Type (0, 0), BuildingBlock: CIFDUS_clean_linker_0, # of connection points: 2
#     Edge 66, Type (0, 0), BuildingBlock: CIFDUS_clean_linker_0, # of connection points: 2
#     Edge 67, Type (0, 0), BuildingBlock: CIFDUS_clean_linker_0, # of connection points: 2
#     Edge 68, Type (0, 0), BuildingBlock: CIFDUS_clean_linker_0, # of connection points: 2
#     Edge 69, Type (0, 0), BuildingBlock: CIFDUS_clean_linker_0, # of connection points: 2
#     Edge 70, Type (0, 0), BuildingBlock: CIFDUS_clean_linker_0, # of connection points: 2
#     Edge 71, Type (0, 0), BuildingBlock: CIFDUS_clean_linker_0, # of connection points: 2
# Relax obj value: 0.285
# Max RMSD: 0.266
# Mean RMSD: 0.266
data_MOF--net-vcq--node1-HICVOG_clean_sbu_0--edge1-CIFDUS_clean_linker_0
_symmetry_space_group_name_H-M    P1
_symmetry_Int_Tables_number       1
_symmetry_cell_setting            triclinic
loop_
_symmetry_equiv_pos_as_xyz
'x, y, z'
_cell_length_a     73.310674
_cell_length_b     30.055255
_cell_length_c     23.789255
_cell_angle_alpha  90.199143
_cell_angle_beta   89.919218
_cell_angle_gamma 89.965908
loop_
_atom_site_label
_atom_site_type_symbol
_atom_site_fract_x
_atom_site_fract_y
_atom_site_fract_z
_atom_type_partial_charge
Zn0 Zn 0.14959 0.38317 0.3426 0.0
C1 C 0.12072 0.32862 0.4751 0.0
N2 N 0.12529 0.36622 0.50118 0.0
C3 C 0.13358 0.39013 0.46102 0.0
N4 N 0.1344 0.36746 0.41115 0.0
N5 N 0.12598 0.32875 0.42087 0.0
C6 C 0.13344 0.20734 0.36618 0.0
O7 O 0.1471 0.23552 0.36321 0.0
O8 O 0.14591 0.44814 0.31803 0.0
Zn9 Zn 0.11441 0.28979 0.36719 0.0
N10 N 0.17533 0.37368 0.3634 0.0
C11 C 0.19633 0.35401 0.43556 0.0
C12 C 0.17853 0.3594 0.41673 0.0
C13 C 0.18949 0.38127 0.32727 0.0
N14 N 0.21038 0.36181 0.39991 0.0
C15 C 0.20763 0.37497 0.3459 0.0
O16 O 0.1248 0.29953 0.29347 0.0
C17 C 0.13454 0.31696 0.25589 0.0
O18 O 0.14518 0.349 0.26788 0.0
H19 H 0.16739 0.3526 0.44499 0.0
H20 H 0.18663 0.39234 0.28496 0.0
C21 C 0.07384 0.28966 0.3791 0.0
C22 C 0.05659 0.30585 0.36236 0.0
C23 C 0.07109 0.35917 0.30414 0.0
C24 C 0.08802 0.34331 0.32068 0.0
N25 N 0.08919 0.30851 0.3569 0.0
N26 N 0.05584 0.34004 0.3251 0.0
H27 H 0.07502 0.26216 0.40812 0.0
C28 C 0.13031 0.46413 0.30599 0.0
O29 O 0.1158 0.43914 0.3131 0.0
O30 O 0.11749 0.22259 0.37578 0.0
H31 H 0.10024 0.3583 0.30397 0.0
H32 H 0.19899 0.34328 0.47813 0.0
H33 H 0.07004 0.38648 0.27481 0.0
Zn34 Zn 0.36858 0.63081 0.81457 0.0
C35 C 0.37787 0.68525 0.95891 0.0
N36 N 0.37 0.64884 0.98028 0.0
C37 C 0.37053 0.61993 0.93705 0.0
N38 N 0.37843 0.63838 0.89074 0.0
N39 N 0.38363 0.67888 0.90591 0.0
C40 C 0.38673 0.79745 0.84397 0.0
O41 O 0.3771 0.77056 0.81208 0.0
O42 O 0.37008 0.56695 0.78819 0.0
Zn43 Zn 0.40257 0.71378 0.87055 0.0
N44 N 0.3434 0.65162 0.81984 0.0
C45 C 0.32405 0.70495 0.8642 0.0
C46 C 0.34136 0.68868 0.85226 0.0
C47 C 0.32862 0.63147 0.79593 0.0
N48 N 0.30935 0.68459 0.84143 0.0
C49 C 0.31104 0.64854 0.80709 0.0
O50 O 0.40422 0.70644 0.78717 0.0
C51 C 0.39506 0.69213 0.74555 0.0
O52 O 0.38118 0.66708 0.75228 0.0
H53 H 0.3531 0.70557 0.86912 0.0
H54 H 0.33048 0.60261 0.76918 0.0
C55 C 0.44201 0.71559 0.88664 0.0
C56 C 0.45842 0.7028 0.91302 0.0
C57 C 0.44167 0.65484 0.97293 0.0
C58 C 0.42563 0.66632 0.94544 0.0
N59 N 0.42593 0.69745 0.90409 0.0
N60 N 0.45763 0.67312 0.95602 0.0
H61 H 0.442 0.73934 0.85254 0.0
C62 C 0.38566 0.55448 0.77036 0.0
O63 O 0.39941 0.58238 0.77357 0.0
O64 O 0.39804 0.78059 0.87861 0.0
H65 H 0.41304 0.65033 0.95718 0.0
H66 H 0.3223 0.73392 0.89079 0.0
H67 H 0.44151 0.6308 1.00667 0.0
Zn68 Zn 0.15343 0.64571 0.70423 0.0
C69 C 0.14907 0.69764 0.56047 0.0
N70 N 0.15621 0.65861 0.54355 0.0
C71 C 0.15221 0.63126 0.58647 0.0
N72 N 0.14362 0.65313 0.62862 0.0
N73 N 0.14056 0.69398 0.6107 0.0
C74 C 0.13786 0.81001 0.66675 0.0
O75 O 0.14641 0.78284 0.70088 0.0
O76 O 0.15504 0.58031 0.72317 0.0
Zn77 Zn 0.1211 0.72901 0.64347 0.0
N78 N 0.17821 0.6692 0.70105 0.0
C79 C 0.19795 0.72421 0.6626 0.0
C80 C 0.18049 0.70809 0.67285 0.0
C81 C 0.19287 0.64649 0.72153 0.0
N82 N 0.21253 0.70133 0.68208 0.0
C83 C 0.21057 0.66299 0.71171 0.0
O84 O 0.11859 0.72225 0.72848 0.0
C85 C 0.12592 0.7046 0.77163 0.0
O86 O 0.13926 0.67759 0.76693 0.0
H87 H 0.16888 0.7262 0.65743 0.0
H88 H 0.1908 0.61567 0.74405 0.0
C89 C 0.08154 0.72548 0.62831 0.0
C90 C 0.0654 0.71297 0.60005 0.0
C91 C 0.08321 0.67463 0.532 0.0
C92 C 0.09904 0.68601 0.56083 0.0
N93 N 0.09805 0.7122 0.60751 0.0
N94 N 0.06684 0.68823 0.55223 0.0
H95 H 0.08103 0.74543 0.66624 0.0
C96 C 0.14655 0.56328 0.76449 0.0
O97 O 0.13641 0.5889 0.79663 0.0
O98 O 0.12614 0.79407 0.63287 0.0
H99 H 0.11204 0.67431 0.54547 0.0
H100 H 0.1999 0.75473 0.63939 0.0
H101 H 0.08389 0.65457 0.49422 0.0
Zn102 Zn 0.36356 0.37199 0.19518 0.0
C103 C 0.3702 0.31241 0.05222 0.0
N104 N 0.36162 0.34854 0.0326 0.0
C105 C 0.3635 0.37862 0.07391 0.0
N106 N 0.37268 0.36124 0.1183 0.0
N107 N 0.37771 0.32036 0.10331 0.0
C108 C 0.37905 0.20888 0.17661 0.0
O109 O 0.36975 0.24026 0.20234 0.0
O110 O 0.36314 0.43788 0.21332 0.0
Zn111 Zn 0.39715 0.28729 0.14081 0.0
N112 N 0.33856 0.34853 0.19593 0.0
C113 C 0.31914 0.29117 0.1612 0.0
C114 C 0.33638 0.30966 0.16729 0.0
C115 C 0.32392 0.36931 0.2202 0.0
N116 N 0.30461 0.31185 0.1848 0.0
C117 C 0.30634 0.35036 0.21457 0.0
O118 O 0.40004 0.30093 0.22325 0.0
C119 C 0.39227 0.31887 0.26548 0.0
O120 O 0.37802 0.3428 0.25977 0.0
H121 H 0.34794 0.2932 0.14862 0.0
H122 H 0.32591 0.40031 0.24261 0.0
C123 C 0.43691 0.28854 0.12482 0.0
C124 C 0.45306 0.29908 0.09531 0.0
C125 C 0.43538 0.33487 0.02529 0.0
C126 C 0.41955 0.32552 0.05524 0.0
N127 N 0.42044 0.30134 0.10349 0.0
N128 N 0.45169 0.32157 0.04596 0.0
H129 H 0.4374 0.27052 0.1641 0.0
C130 C 0.37618 0.45551 0.24076 0.0
O131 O 0.39026 0.43087 0.25472 0.0
O132 O 0.39176 0.22032 0.1429 0.0
H133 H 0.4066 0.33686 0.03928 0.0
H134 H 0.3173 0.2605 0.13798 0.0
H135 H 0.43475 0.35315 0.98624 0.0
Zn136 Zn 0.8647 0.62744 0.68818 0.0
C137 C 0.89227 0.67042 0.54936 0.0
N138 N 0.88566 0.6328 0.52692 0.0
C139 C 0.87821 0.61229 0.57139 0.0
N140 N 0.88005 0.6364 0.61948 0.0
N141 N 0.88909 0.67311 0.60511 0.0
C142 C 0.88431 0.79434 0.66325 0.0
O143 O 0.87126 0.76552 0.67353 0.0
O144 O 0.86351 0.56202 0.70946 0.0
Zn145 Zn 0.90257 0.71206 0.65513 0.0
N146 N 0.84026 0.6484 0.66781 0.0
C147 C 0.82381 0.69734 0.60789 0.0
C148 C 0.84023 0.68115 0.62852 0.0
C149 C 0.82424 0.63178 0.68852 0.0
N150 N 0.80793 0.68068 0.62791 0.0
C151 C 0.80747 0.64844 0.66796 0.0
O152 O 0.89442 0.70386 0.73288 0.0
C153 C 0.88487 0.6877 0.77201 0.0
O154 O 0.8725 0.65919 0.76144 0.0
H155 H 0.85291 0.69449 0.61284 0.0
H156 H 0.82458 0.60567 0.7197 0.0
C157 C 0.94321 0.71279 0.64312 0.0
C158 C 0.96025 0.69313 0.65541 0.0
C159 C 0.94503 0.63123 0.69569 0.0
C160 C 0.92829 0.65061 0.68368 0.0
N161 N 0.92761 0.69109 0.65844 0.0
N162 N 0.96054 0.65294 0.68159 0.0
H163 H 0.94238 0.74507 0.62325 0.0
C164 C 0.8751 0.5464 0.7441 0.0
O165 O 0.88787 0.57281 0.76382 0.0
O166 O 0.89966 0.77951 0.64603 0.0
H167 H 0.91579 0.63395 0.69551 0.0
H168 H 0.82366 0.72311 0.57625 0.0
H169 H 0.94572 0.59928 0.71638 0.0
Zn170 Zn 0.61552 0.29202 0.14145 0.0
C171 C 0.63918 0.38783 0.05744 0.0
N172 N 0.63544 0.36178 0.01283 0.0
C173 C 0.63047 0.32347 0.03732 0.0
N174 N 0.63106 0.32609 0.09372 0.0
N175 N 0.63695 0.36644 0.10687 0.0
C176 C 0.6346 0.45732 0.23342 0.0
O177 O 0.62289 0.4265 0.24845 0.0
O178 O 0.61636 0.22568 0.12769 0.0
Zn179 Zn 0.65076 0.38181 0.17616 0.0
N180 N 0.59125 0.31773 0.14045 0.0
C181 C 0.57503 0.38298 0.1676 0.0
C182 C 0.59138 0.36062 0.15874 0.0
C183 C 0.57524 0.29621 0.12954 0.0
N184 N 0.55909 0.36156 0.1578 0.0
C185 C 0.55862 0.31879 0.13885 0.0
O186 O 0.64409 0.34671 0.24689 0.0
C187 C 0.63245 0.31662 0.25816 0.0
O188 O 0.62288 0.29877 0.22009 0.0
H189 H 0.60419 0.37689 0.16787 0.0
H190 H 0.57543 0.26186 0.11574 0.0
C191 C 0.69027 0.38115 0.19573 0.0
C192 C 0.70862 0.37455 0.17942 0.0
C193 C 0.69859 0.34923 0.09012 0.0
C194 C 0.68056 0.35485 0.10672 0.0
N195 N 0.67661 0.37157 0.15862 0.0
N196 N 0.71212 0.35911 0.12668 0.0
H197 H 0.68687 0.39388 0.23705 0.0
C198 C 0.63075 0.20734 0.14666 0.0
O199 O 0.64409 0.23291 0.16444 0.0
O200 O 0.6476 0.44675 0.20029 0.0
H201 H 0.6699 0.34567 0.07796 0.0
H202 H 0.57498 0.41696 0.18274 0.0
H203 H 0.70182 0.33651 0.04869 0.0
Zn204 Zn 0.8631 0.36435 0.32958 0.0
C205 C 0.86865 0.30438 0.47141 0.0
N206 N 0.85947 0.33944 0.49179 0.0
C207 C 0.8614 0.3702 0.45126 0.0
N208 N 0.87122 0.35406 0.40716 0.0
N209 N 0.8765 0.31349 0.42151 0.0
C210 C 0.88128 0.19865 0.36202 0.0
O211 O 0.87164 0.22536 0.33014 0.0
O212 O 0.86312 0.4299 0.31114 0.0
Zn213 Zn 0.89655 0.28178 0.38695 0.0
N214 N 0.83819 0.34183 0.32804 0.0
C215 C 0.81845 0.28395 0.35881 0.0
C216 C 0.83585 0.30173 0.35328 0.0
C217 C 0.8237 0.36456 0.30651 0.0
N218 N 0.80401 0.30653 0.33776 0.0
C219 C 0.80602 0.34631 0.31127 0.0
O220 O 0.89868 0.28965 0.30329 0.0
C221 C 0.89104 0.30689 0.26062 0.0
O222 O 0.87737 0.3328 0.266 0.0
H223 H 0.8474 0.28384 0.36972 0.0
H224 H 0.8259 0.39651 0.2868 0.0
C225 C 0.93571 0.28402 0.40408 0.0
C226 C 0.95199 0.29912 0.42935 0.0
C227 C 0.93458 0.34712 0.48806 0.0
C228 C 0.91863 0.3332 0.46165 0.0
N229 N 0.91939 0.3011 0.42127 0.0
N230 N 0.95081 0.32999 0.47123 0.0
H231 H 0.93596 0.25926 0.37095 0.0
C232 C 0.87431 0.44653 0.27614 0.0
O233 O 0.88655 0.4207 0.2523 0.0
O234 O 0.89299 0.21552 0.39532 0.0
H235 H 0.90571 0.34752 0.47397 0.0
H236 H 0.81642 0.25232 0.37945 0.0
H237 H 0.9341 0.37194 0.52107 0.0
Zn238 Zn 0.62 0.72104 0.85065 0.0
C239 C 0.64609 0.63383 0.94714 0.0
N240 N 0.64124 0.66283 0.98761 0.0
C241 C 0.63459 0.69718 0.95886 0.0
N242 N 0.63506 0.68964 0.903 0.0
N243 N 0.64282 0.65005 0.89479 0.0
C244 C 0.63837 0.5473 0.80149 0.0
O245 O 0.62407 0.56956 0.81929 0.0
O246 O 0.61979 0.78723 0.86298 0.0
Zn247 Zn 0.65669 0.63229 0.82522 0.0
N248 N 0.59575 0.69555 0.84925 0.0
C249 C 0.5789 0.63621 0.8081 0.0
C250 C 0.59542 0.65685 0.81963 0.0
C251 C 0.58004 0.71461 0.8686 0.0
N252 N 0.56323 0.65537 0.82624 0.0
C253 C 0.56323 0.69402 0.85622 0.0
O254 O 0.6498 0.66428 0.75169 0.0
C255 C 0.63836 0.69392 0.73691 0.0
O256 O 0.62821 0.71332 0.7724 0.0
H257 H 0.60797 0.64302 0.80346 0.0
H258 H 0.58057 0.74591 0.89119 0.0
C259 C 0.6975 0.62894 0.81735 0.0
C260 C 0.71501 0.64237 0.83589 0.0
C261 C 0.70118 0.69239 0.90052 0.0
C262 C 0.68404 0.67968 0.88172 0.0
N263 N 0.68233 0.6475 0.84163 0.0
N264 N 0.71616 0.6735 0.87737 0.0
H265 H 0.69598 0.604 0.78478 0.0
C266 C 0.63408 0.80656 0.84511 0.0
O267 O 0.64795 0.78201 0.82859 0.0
O268 O 0.65394 0.56609 0.80329 0.0
H269 H 0.67216 0.69562 0.89934 0.0
H270 H 0.57848 0.60558 0.78412 0.0
H271 H 0.70259 0.71746 0.93295 0.0
Zn272 Zn 0.6538 0.87761 0.31328 0.0
C273 C 0.64556 0.82048 0.45487 0.0
N274 N 0.65297 0.85778 0.47605 0.0
C275 C 0.65102 0.88705 0.43385 0.0
N276 N 0.64313 0.86798 0.38811 0.0
N277 N 0.63883 0.82675 0.40266 0.0
C278 C 0.63803 0.71295 0.32993 0.0
O279 O 0.6471 0.74377 0.30272 0.0
O280 O 0.65499 0.94317 0.29315 0.0
Zn281 Zn 0.62014 0.79183 0.36404 0.0
N282 N 0.67851 0.85326 0.31836 0.0
C283 C 0.69633 0.79415 0.35611 0.0
C284 C 0.67949 0.81317 0.34456 0.0
C285 C 0.69401 0.87467 0.30146 0.0
N286 N 0.7117 0.81562 0.34026 0.0
C287 C 0.71111 0.85528 0.31301 0.0
O288 O 0.61828 0.80403 0.28091 0.0
C289 C 0.62668 0.8218 0.23986 0.0
O290 O 0.64055 0.84669 0.2477 0.0
H291 H 0.66729 0.79623 0.3574 0.0
H292 H 0.69306 0.90649 0.28049 0.0
C293 C 0.58025 0.78877 0.37959 0.0
C294 C 0.56387 0.80015 0.40761 0.0
C295 C 0.58075 0.84451 0.47168 0.0
C296 C 0.59674 0.83445 0.44287 0.0
N297 N 0.59643 0.8055 0.39877 0.0
N298 N 0.56476 0.82729 0.4534 0.0
H299 H 0.58012 0.76727 0.343 0.0
C300 C 0.64244 0.95986 0.26276 0.0
O301 O 0.62871 0.93461 0.24735 0.0
O302 O 0.62567 0.72506 0.36455 0.0
H303 H 0.60936 0.8495 0.45628 0.0
H304 H 0.6972 0.76254 0.37758 0.0
H305 H 0.58098 0.86659 0.50768 0.0
Zn306 Zn 0.86889 0.11875 0.84231 0.0
C307 C 0.89267 0.18202 0.97609 0.0
N308 N 0.88869 0.14449 1.00326 0.0
C309 C 0.8827 0.11725 0.96241 0.0
N310 N 0.88271 0.13759 0.91131 0.0
N311 N 0.88941 0.17823 0.92044 0.0
C312 C 0.88741 0.29786 0.85749 0.0
O313 O 0.87437 0.27197 0.8383 0.0
O314 O 0.87386 0.05358 0.81761 0.0
Zn315 Zn 0.90318 0.21301 0.86705 0.0
N316 N 0.84277 0.12706 0.85995 0.0
C317 C 0.82079 0.14715 0.92952 0.0
C318 C 0.83881 0.14199 0.9127 0.0
C319 C 0.82911 0.11872 0.82234 0.0
N320 N 0.80726 0.13862 0.89244 0.0
C321 C 0.81072 0.12489 0.83891 0.0
O322 O 0.89515 0.204 0.78843 0.0
C323 C 0.88498 0.18358 0.754 0.0
O324 O 0.87411 0.15313 0.76995 0.0
H325 H 0.84949 0.14976 0.94209 0.0
H326 H 0.83253 0.10734 0.78044 0.0
C327 C 0.94374 0.2136 0.87672 0.0
C328 C 0.96067 0.19266 0.8664 0.0
C329 C 0.94516 0.12732 0.83707 0.0
C330 C 0.92851 0.14798 0.84722 0.0
N331 N 0.92804 0.19069 0.86598 0.0
N332 N 0.96078 0.15012 0.84662 0.0
H333 H 0.94308 0.24768 0.89145 0.0
C334 C 0.88757 0.04347 0.78704 0.0
O335 O 0.89933 0.07473 0.77403 0.0
O336 O 0.90157 0.27987 0.87858 0.0
H337 H 0.91592 0.13055 0.83907 0.0
H338 H 0.81755 0.1584 0.97161 0.0
H339 H 0.94567 0.0935 0.82145 0.0
Zn340 Zn 0.65615 0.13738 0.68391 0.0
C341 C 0.64498 0.19879 0.54289 0.0
N342 N 0.65256 0.16311 0.51844 0.0
C343 C 0.65329 0.13339 0.56044 0.0
N344 N 0.64632 0.1505 0.60898 0.0
N345 N 0.64041 0.1911 0.59673 0.0
C346 C 0.64056 0.30415 0.6611 0.0
O347 O 0.65287 0.27441 0.67491 0.0
O348 O 0.65579 0.07159 0.70039 0.0
Zn349 Zn 0.62144 0.22364 0.63673 0.0
N350 N 0.68148 0.15806 0.68173 0.0
C351 C 0.70202 0.21073 0.642 0.0
C352 C 0.68441 0.19478 0.64974 0.0
C353 C 0.69569 0.13686 0.70736 0.0
N354 N 0.71612 0.18971 0.66721 0.0
C355 C 0.71363 0.15323 0.70008 0.0
O356 O 0.62086 0.2101 0.71779 0.0
C357 C 0.629 0.19176 0.7586 0.0
O358 O 0.64299 0.16718 0.75098 0.0
H359 H 0.67319 0.21144 0.62964 0.0
H360 H 0.69305 0.10744 0.73214 0.0
C361 C 0.58144 0.22475 0.6254 0.0
C362 C 0.56477 0.21098 0.60102 0.0
C363 C 0.58125 0.16483 0.53766 0.0
C364 C 0.59753 0.17715 0.56322 0.0
N365 N 0.59751 0.20798 0.60518 0.0
N366 N 0.56533 0.18181 0.55718 0.0
H367 H 0.58166 0.248 0.66022 0.0
C368 C 0.643 0.05437 0.72917 0.0
O369 O 0.62933 0.07952 0.7457 0.0
O370 O 0.62578 0.29092 0.63835 0.0
H371 H 0.6101 0.16186 0.54968 0.0
H372 H 0.70447 0.2397 0.61622 0.0
H373 H 0.58121 0.14106 0.50341 0.0
Zn374 Zn 0.86406 0.86446 0.20014 0.0
C375 C 0.87747 0.80803 0.06101 0.0
N376 N 0.87088 0.84573 0.0385 0.0
C377 C 0.87058 0.8737 0.08268 0.0
N378 N 0.87662 0.85385 0.12988 0.0
N379 N 0.88175 0.81316 0.11583 0.0
C380 C 0.88546 0.6986 0.1785 0.0
O381 O 0.87499 0.72471 0.20899 0.0
O382 O 0.86192 0.93034 0.2186 0.0
Zn383 Zn 0.9008 0.78227 0.15704 0.0
N384 N 0.83989 0.83871 0.19011 0.0
C385 C 0.82363 0.77695 0.15238 0.0
C386 C 0.83995 0.79712 0.16745 0.0
C387 C 0.82389 0.86062 0.20012 0.0
N388 N 0.80774 0.79889 0.16132 0.0
C389 C 0.80729 0.84013 0.18508 0.0
O390 O 0.90005 0.79227 0.24225 0.0
C391 C 0.88984 0.81043 0.27935 0.0
O392 O 0.87631 0.83472 0.2659 0.0
H393 H 0.85265 0.77999 0.16008 0.0
H394 H 0.8241 0.89374 0.21814 0.0
C395 C 0.94084 0.7854 0.14647 0.0
C396 C 0.95726 0.79886 0.1203 0.0
C397 C 0.94016 0.84222 0.05599 0.0
C398 C 0.92409 0.82978 0.0827 0.0
N399 N 0.92455 0.80075 0.12645 0.0
N400 N 0.95629 0.8266 0.07534 0.0
H401 H 0.94099 0.76297 0.18196 0.0
C402 C 0.87211 0.94732 0.25633 0.0
O403 O 0.88403 0.9219 0.28198 0.0
O404 O 0.89778 0.71608 0.14806 0.0
H405 H 0.91135 0.84332 0.06819 0.0
H406 H 0.82355 0.74412 0.13358 0.0
H407 H 0.93986 0.86467 0.02056 0.0
Zn408 Zn 0.36802 0.1282 0.66602 0.0
C409 C 0.39688 0.19396 0.54632 0.0
N410 N 0.3934 0.15753 0.51559 0.0
C411 C 0.38565 0.12965 0.55248 0.0
N412 N 0.38417 0.14837 0.60436 0.0
N413 N 0.39176 0.18846 0.60058 0.0
C414 C 0.38518 0.30422 0.65761 0.0
O415 O 0.37144 0.27642 0.66262 0.0
O416 O 0.37179 0.06229 0.68687 0.0
Zn417 Zn 0.40241 0.22214 0.66292 0.0
N418 N 0.34285 0.13901 0.64204 0.0
C419 C 0.32184 0.16155 0.57137 0.0
C420 C 0.33965 0.15405 0.58904 0.0
C421 C 0.32884 0.13285 0.67889 0.0
N422 N 0.3079 0.15531 0.60797 0.0
C423 C 0.31081 0.14158 0.66169 0.0
O424 O 0.38986 0.21558 0.73804 0.0
C425 C 0.37803 0.19228 0.76338 0.0
O426 O 0.36957 0.16095 0.73915 0.0
H427 H 0.35078 0.15998 0.56038 0.0
H428 H 0.33181 0.12139 0.72096 0.0
C429 C 0.44297 0.21904 0.65549 0.0
C430 C 0.45996 0.20247 0.67421 0.0
C431 C 0.44444 0.15152 0.73346 0.0
C432 C 0.42776 0.16773 0.71482 0.0
N433 N 0.42724 0.20151 0.677 0.0
N434 N 0.46006 0.16927 0.71297 0.0
H435 H 0.44225 0.24591 0.62539 0.0
C436 C 0.37919 0.04822 0.73192 0.0
O437 O 0.3859 0.07711 0.76792 0.0
O438 O 0.40115 0.28837 0.65093 0.0
H439 H 0.41523 0.15387 0.73109 0.0
H440 H 0.31911 0.17287 0.52909 0.0
H441 H 0.44499 0.12501 0.76406 0.0
Zn442 Zn 0.15628 0.8868 0.18558 0.0
C443 C 0.12781 0.82646 0.05761 0.0
N444 N 0.13225 0.86328 0.02955 0.0
C445 C 0.13988 0.88952 0.06871 0.0
N446 N 0.14039 0.86922 0.11993 0.0
N447 N 0.13235 0.82969 0.11256 0.0
C448 C 0.1368 0.70952 0.17556 0.0
O449 O 0.15091 0.73591 0.18256 0.0
O450 O 0.15209 0.95191 0.21093 0.0
Zn451 Zn 0.12006 0.7945 0.17017 0.0
N452 N 0.18187 0.8761 0.16171 0.0
C453 C 0.20035 0.84463 0.08918 0.0
C454 C 0.18334 0.8528 0.11272 0.0
C455 C 0.19721 0.89008 0.18955 0.0
N456 N 0.21547 0.85898 0.11614 0.0
C457 C 0.21463 0.88125 0.16597 0.0
O458 O 0.13016 0.80486 0.24612 0.0
C459 C 0.14121 0.82468 0.27838 0.0
O460 O 0.15223 0.85396 0.26011 0.0
H461 H 0.17138 0.84049 0.09151 0.0
H462 H 0.19588 0.90807 0.22881 0.0
C463 C 0.07939 0.79543 0.1612 0.0
C464 C 0.06238 0.8134 0.17783 0.0
C465 C 0.07775 0.87095 0.2272 0.0
C466 C 0.09444 0.85317 0.21099 0.0
N467 N 0.09506 0.81565 0.17898 0.0
N468 N 0.06219 0.85064 0.21054 0.0
H469 H 0.08015 0.76539 0.1361 0.0
C470 C 0.13609 0.96836 0.21435 0.0
O471 O 0.12226 0.94446 0.19656 0.0
O472 O 0.1215 0.72688 0.16268 0.0
H473 H 0.10694 0.86857 0.22506 0.0
H474 H 0.20155 0.82662 0.04989 0.0
H475 H 0.07715 0.90053 0.25319 0.0
Zn476 Zn 0.36519 0.87412 0.31945 0.0
C477 C 0.38521 0.82363 0.46348 0.0
N478 N 0.37966 0.86291 0.48435 0.0
C479 C 0.37575 0.88613 0.43759 0.0
N480 N 0.37865 0.86225 0.39034 0.0
N481 N 0.38509 0.8232 0.4069 0.0
C482 C 0.38673 0.7039 0.35646 0.0
O483 O 0.37359 0.72919 0.3368 0.0
O484 O 0.36639 0.93989 0.29628 0.0
Zn485 Zn 0.40167 0.78861 0.36259 0.0
N486 N 0.33993 0.85483 0.33387 0.0
C487 C 0.32264 0.80057 0.38354 0.0
C488 C 0.33931 0.81782 0.36655 0.0
C489 C 0.32418 0.87462 0.31565 0.0
N490 N 0.30706 0.82036 0.36625 0.0
C491 C 0.30711 0.8568 0.33242 0.0
O492 O 0.39558 0.79391 0.2827 0.0
C493 C 0.38663 0.81048 0.24246 0.0
O494 O 0.37439 0.83983 0.25079 0.0
H495 H 0.35173 0.80172 0.37965 0.0
H496 H 0.32492 0.90385 0.28933 0.0
C497 C 0.44182 0.79274 0.37735 0.0
C498 C 0.45849 0.81544 0.36982 0.0
C499 C 0.44222 0.88048 0.34388 0.0
C500 C 0.42582 0.85797 0.35075 0.0
N501 N 0.42586 0.81464 0.3669 0.0
N502 N 0.45811 0.8587 0.35317 0.0
H503 H 0.44158 0.75801 0.38922 0.0
C504 C 0.37994 0.95154 0.26598 0.0
O505 O 0.39249 0.92171 0.25408 0.0
O506 O 0.40082 0.72254 0.37708 0.0
H507 H 0.41308 0.87448 0.34151 0.0
H508 H 0.32206 0.77144 0.41006 0.0
H509 H 0.44236 0.91484 0.33048 0.0
Zn510 Zn 0.12207 0.22438 0.87064 0.0
C511 C 0.15273 0.13222 0.94387 0.0
N512 N 0.15255 0.16011 0.98815 0.0
C513 C 0.14571 0.19777 0.96619 0.0
N514 N 0.14111 0.19271 0.91159 0.0
N515 N 0.14638 0.15225 0.89703 0.0
C516 C 0.14951 0.06042 0.76988 0.0
O517 O 0.1375 0.08602 0.74495 0.0
O518 O 0.12546 0.29022 0.88117 0.0
Zn519 Zn 0.15809 0.14259 0.82532 0.0
N520 N 0.09838 0.20635 0.90169 0.0
C521 C 0.08277 0.16502 0.97224 0.0
C522 C 0.09882 0.17691 0.94499 0.0
C523 C 0.08213 0.2223 0.88219 0.0
N524 N 0.06668 0.1814 0.95359 0.0
C525 C 0.06575 0.20934 0.90883 0.0
O526 O 0.1453 0.17199 0.76051 0.0
C527 C 0.13186 0.19661 0.74739 0.0
O528 O 0.12201 0.21534 0.7849 0.0
H529 H 0.11152 0.16265 0.9587 0.0
H530 H 0.08197 0.24474 0.84671 0.0
C531 C 0.19688 0.14898 0.80312 0.0
C532 C 0.21438 0.16791 0.80897 0.0
C533 C 0.20196 0.22288 0.86991 0.0
C534 C 0.18468 0.20458 0.86312 0.0
N535 N 0.18246 0.16768 0.83061 0.0
N536 N 0.21633 0.20425 0.84275 0.0
H537 H 0.19471 0.11968 0.77747 0.0
C538 C 0.13791 0.3081 0.85167 0.0
O539 O 0.14843 0.28248 0.82061 0.0
O540 O 0.15995 0.07707 0.80708 0.0
H541 H 0.17316 0.21984 0.88372 0.0
H542 H 0.08305 0.14234 1.00744 0.0
H543 H 0.20392 0.25197 0.89612 0.0
H544 H 0.11904 0.20207 0.04185 0.0
H545 H 0.16454 0.27541 0.97579 0.0
H546 H 0.16468 0.32319 0.05992 0.0
H547 H 0.15458 0.33534 0.15938 0.0
H548 H 0.10883 0.25876 0.2212 0.0
H549 H 0.10595 0.22178 0.13169 0.0
C550 C 0.12833 0.23004 0.04438 0.0
C551 C 0.14144 0.23601 1.00238 0.0
C552 C 0.12864 0.25607 0.09319 0.0
C553 C 0.154 0.27108 1.00727 0.0
C554 C 0.15427 0.29782 0.0558 0.0
C555 C 0.14387 0.31102 0.15288 0.0
C556 C 0.13233 0.29922 0.19788 0.0
C557 C 0.14213 0.28927 0.10033 0.0
C558 C 0.1183 0.268 0.18824 0.0
C559 C 0.11648 0.24678 0.13671 0.0
H560 H 0.40992 0.82342 0.54661 0.0
H561 H 0.36974 0.74148 0.46498 0.0
H562 H 0.37051 0.68901 0.54378 0.0
H563 H 0.37912 0.67373 0.64293 0.0
H564 H 0.42004 0.75644 0.72184 0.0
H565 H 0.4226 0.80064 0.63725 0.0
C566 C 0.40184 0.79318 0.54532 0.0
C567 C 0.3899 0.78599 0.50024 0.0
C568 C 0.40221 0.76369 0.59095 0.0
C569 C 0.3793 0.74712 0.49895 0.0
C570 C 0.37955 0.71751 0.54441 0.0
C571 C 0.38888 0.70078 0.6412 0.0
C572 C 0.39904 0.71205 0.68953 0.0
C573 C 0.39041 0.72647 0.59179 0.0
C574 C 0.4118 0.74702 0.68595 0.0
C575 C 0.4133 0.77261 0.63743 0.0
H576 H 0.10153 0.8186 0.98007 0.0
H577 H 0.14513 0.74607 0.05866 0.0
H578 H 0.14707 0.69641 0.97693 0.0
H579 H 0.14064 0.68446 0.87537 0.0
H580 H 0.0978 0.76083 0.79674 0.0
H581 H 0.09135 0.79782 0.88559 0.0
C582 C 0.11083 0.79048 0.98042 0.0
C583 C 0.12303 0.78577 0.02564 0.0
C584 C 0.11248 0.7637 0.93204 0.0
C585 C 0.13526 0.74977 0.02516 0.0
C586 C 0.13667 0.72203 0.97764 0.0
C587 C 0.12963 0.7085 0.87787 0.0
C588 C 0.12003 0.72037 0.8286 0.0
C589 C 0.12604 0.73033 0.92953 0.0
C590 C 0.10568 0.75136 0.83327 0.0
C591 C 0.10192 0.77262 0.8843 0.0
H592 H 0.42311 0.21451 0.47192 0.0
H593 H 0.37421 0.26542 0.54869 0.0
H594 H 0.36951 0.31547 0.46925 0.0
H595 H 0.3757 0.33176 0.36871 0.0
H596 H 0.42409 0.27684 0.29126 0.0
H597 H 0.43252 0.24178 0.37934 0.0
C598 C 0.41198 0.23833 0.47256 0.0
C599 C 0.39924 0.23679 0.51675 0.0
C600 C 0.40885 0.26517 0.42515 0.0
C601 C 0.38459 0.267 0.51638 0.0
C602 C 0.38163 0.2948 0.46997 0.0
C603 C 0.38832 0.31308 0.37144 0.0
C604 C 0.39896 0.30622 0.3226 0.0
C605 C 0.39309 0.29225 0.42263 0.0
C606 C 0.41537 0.2821 0.32748 0.0
C607 C 0.42027 0.26197 0.37807 0.0
H608 H 0.86606 0.67014 0.87061 0.0
H609 H 0.91196 0.74346 0.804 0.0
H610 H 0.91615 0.78049 0.8933 0.0
H611 H 0.9039 0.80163 0.98431 0.0
H612 H 0.85826 0.73101 0.05417 0.0
H613 H 0.8571 0.68276 0.97065 0.0
C614 C 0.87713 0.69368 0.876 0.0
C615 C 0.88831 0.70468 0.82982 0.0
C616 C 0.87959 0.71536 0.92825 0.0
C617 C 0.9028 0.73484 0.83802 0.0
C618 C 0.90533 0.7561 0.88936 0.0
C619 C 0.89434 0.77416 0.98259 0.0
C620 C 0.88143 0.76919 0.02548 0.0
C621 C 0.89345 0.74781 0.93403 0.0
C622 C 0.86861 0.73461 0.02196 0.0
C623 C 0.86776 0.70761 0.97377 0.0
H624 H 0.6173 0.20385 0.47136 0.0
H625 H 0.66324 0.27698 0.53511 0.0
H626 H 0.66258 0.32545 0.45218 0.0
H627 H 0.65214 0.33669 0.35369 0.0
H628 H 0.60597 0.26064 0.29368 0.0
H629 H 0.60319 0.2245 0.38377 0.0
C630 C 0.62639 0.23215 0.46908 0.0
C631 C 0.63996 0.23771 0.50965 0.0
C632 C 0.62622 0.25855 0.42097 0.0
C633 C 0.65238 0.27299 0.50466 0.0
C634 C 0.65218 0.30011 0.45684 0.0
C635 C 0.64131 0.31279 0.36075 0.0
C636 C 0.6297 0.30046 0.31623 0.0
C637 C 0.63972 0.2916 0.41328 0.0
C638 C 0.61549 0.27 0.32645 0.0
C639 C 0.61376 0.24933 0.37819 0.0
H640 H 0.87561 0.32344 0.15654 0.0
H641 H 0.92067 0.25572 0.23613 0.0
H642 H 0.928 0.21845 0.14834 0.0
H643 H 0.91829 0.19434 0.05476 0.0
H644 H 0.87314 0.25924 0.97393 0.0
H645 H 0.86964 0.30929 0.05491 0.0
C646 C 0.88727 0.3013 0.15439 0.0
C647 C 0.89723 0.29173 0.20375 0.0
C648 C 0.89147 0.27937 0.1032 0.0
C649 C 0.91245 0.26325 0.19956 0.0
C650 C 0.91674 0.24182 0.14913 0.0
C651 C 0.90827 0.22093 0.05379 0.0
C652 C 0.89609 0.22331 0.00834 0.0
C653 C 0.9059 0.24819 0.10141 0.0
C654 C 0.88294 0.25733 1.00789 0.0
C655 C 0.88069 0.28532 0.05486 0.0
H656 H 0.61698 0.78899 0.51439 0.0
H657 H 0.67333 0.76405 0.47543 0.0
H658 H 0.67593 0.71572 0.5578 0.0
H659 H 0.66345 0.69274 0.65052 0.0
H660 H 0.60722 0.72284 0.68924 0.0
H661 H 0.60319 0.75629 0.59735 0.0
C662 C 0.62953 0.77129 0.52209 0.0
C663 C 0.64481 0.77943 0.48833 0.0
C664 C 0.63108 0.74534 0.57075 0.0
C665 C 0.66126 0.75746 0.50039 0.0
C666 C 0.66282 0.73039 0.54798 0.0
C667 C 0.65025 0.7057 0.63817 0.0
C668 C 0.63581 0.70624 0.67719 0.0
C669 C 0.64804 0.72592 0.58511 0.0
C670 C 0.61871 0.72297 0.66052 0.0
C671 C 0.61633 0.74201 0.60782 0.0
H672 H 0.64365 0.84119 0.13918 0.0
H673 H 0.59828 0.76836 0.20951 0.0
H674 H 0.59374 0.73019 0.12053 0.0
H675 H 0.60645 0.70645 0.02989 0.0
H676 H 0.65204 0.77669 0.95906 0.0
H677 H 0.65227 0.82778 0.03957 0.0
C678 C 0.63248 0.81781 0.13469 0.0
C679 C 0.62167 0.807 0.18188 0.0
C680 C 0.62995 0.79537 0.08295 0.0
C681 C 0.60711 0.77692 0.17465 0.0
C682 C 0.60445 0.75493 0.12355 0.0
C683 C 0.61578 0.73447 0.03077 0.0
C684 C 0.62905 0.7382 0.98841 0.0
C685 C 0.61628 0.76238 0.07831 0.0
C686 C 0.6414 0.77386 0.99051 0.0
C687 C 0.64178 0.80246 0.03726 0.0
H688 H 0.85879 0.17655 0.67214 0.0
H689 H 0.91411 0.21983 0.70147 0.0
H690 H 0.91543 0.25239 0.60812 0.0
H691 H 0.89921 0.27979 0.52601 0.0
H692 H 0.84328 0.24321 0.4985 0.0
H693 H 0.84391 0.19569 0.58196 0.0
C694 C 0.87122 0.19228 0.65752 0.0
C695 C 0.88618 0.19655 0.69413 0.0
C696 C 0.87178 0.2121 0.60392 0.0
C697 C 0.90225 0.21693 0.67457 0.0
C698 C 0.90307 0.23545 0.62105 0.0
C699 C 0.88749 0.25985 0.53665 0.0
C700 C 0.87136 0.26438 0.50579 0.0
C701 C 0.8877 0.23477 0.58627 0.0
C702 C 0.85597 0.23947 0.52132 0.0
C703 C 0.85625 0.21287 0.56949 0.0
H704 H 0.64663 0.17878 0.85959 0.0
H705 H 0.59818 0.23689 0.78696 0.0
H706 H 0.59224 0.27738 0.87335 0.0
H707 H 0.60413 0.30795 0.9616 0.0
H708 H 0.65187 0.25012 0.03674 0.0
H709 H 0.6545 0.19723 0.95842 0.0
C710 C 0.6345 0.19929 0.86321 0.0
C711 C 0.62327 0.20584 0.81596 0.0
C712 C 0.63107 0.22291 0.9135 0.0
C713 C 0.60742 0.23204 0.82193 0.0
C714 C 0.60394 0.25535 0.87147 0.0
C715 C 0.6146 0.2824 0.96185 0.0
C716 C 0.62775 0.28261 1.00442 0.0
C717 C 0.61616 0.25279 0.91638 0.0
C718 C 0.64144 0.24994 1.00448 0.0
C719 C 0.6431 0.22018 0.95929 0.0
H720 H 0.91502 0.7542 0.32569 0.0
H721 H 0.87038 0.84152 0.3696 0.0
H722 H 0.8704 0.81272 0.46516 0.0
H723 H 0.87904 0.75263 0.53024 0.0
H724 H 0.92214 0.66236 0.48397 0.0
H725 H 0.92727 0.70326 0.39676 0.0
C726 C 0.90554 0.76767 0.3564 0.0
C727 C 0.89243 0.79924 0.33976 0.0
C728 C 0.90539 0.75039 0.41133 0.0
C729 C 0.88043 0.81662 0.38063 0.0
C730 C 0.88042 0.80018 0.43553 0.0
C731 C 0.89014 0.74346 0.50228 0.0
C732 C 0.90033 0.70494 0.51346 0.0
C733 C 0.8923 0.76571 0.45068 0.0
C734 C 0.91433 0.69238 0.47636 0.0
C735 C 0.91705 0.71532 0.42606 0.0
H736 H 0.34589 0.28156 0.9785 0.0
H737 H 0.39948 0.2532 0.04249 0.0
H738 H 0.40685 0.21172 0.95696 0.0
H739 H 0.39937 0.1947 0.85678 0.0
H740 H 0.34462 0.21758 0.79768 0.0
H741 H 0.33621 0.24986 0.88865 0.0
C742 C 0.35906 0.26536 0.97442 0.0
C743 C 0.3726 0.27307 0.01516 0.0
C744 C 0.363 0.2412 0.92547 0.0
C745 C 0.38923 0.25025 0.0105 0.0
C746 C 0.39341 0.2263 0.96144 0.0
C747 C 0.38555 0.20614 0.86448 0.0
C748 C 0.37268 0.2049 0.82075 0.0
C749 C 0.38071 0.22374 0.91734 0.0
C750 C 0.35472 0.21878 0.8309 0.0
C751 C 0.34993 0.23718 0.88276 0.0
H752 H 0.1214 0.74565 0.51347 0.0
H753 H 0.17984 0.73632 0.5239 0.0
H754 H 0.18301 0.78254 0.44007 0.0
H755 H 0.169 0.81262 0.35358 0.0
H756 H 0.11042 0.81279 0.33839 0.0
H757 H 0.10737 0.7831 0.43321 0.0
C758 C 0.13477 0.75471 0.49836 0.0
C759 C 0.15033 0.73742 0.52454 0.0
C760 C 0.13644 0.77882 0.44801 0.0
C761 C 0.16765 0.74955 0.50436 0.0
C762 C 0.16947 0.77549 0.45601 0.0
C763 C 0.15561 0.80711 0.37174 0.0
C764 C 0.13998 0.81433 0.33898 0.0
C765 C 0.15395 0.78833 0.42576 0.0
C766 C 0.12267 0.80685 0.3627 0.0
C767 C 0.1209 0.78994 0.41696 0.0
H768 H 0.40365 0.68937 0.03702 0.0
H769 H 0.35977 0.76396 0.96327 0.0
H770 H 0.35968 0.81489 0.04434 0.0
H771 H 0.36882 0.82884 0.14341 0.0
H772 H 0.41321 0.7521 0.21342 0.0
H773 H 0.41675 0.71223 0.1257 0.0
C774 C 0.39481 0.71825 0.03708 0.0
C775 C 0.38203 0.72373 0.9942 0.0
C776 C 0.39465 0.74636 0.08384 0.0
C777 C 0.36997 0.75995 0.99578 0.0
C778 C 0.36977 0.78858 0.04238 0.0
C779 C 0.37946 0.80399 0.13903 0.0
C780 C 0.3903 0.7926 0.18561 0.0
C781 C 0.3815 0.78071 0.08797 0.0
C782 C 0.4043 0.76088 0.1789 0.0
C783 C 0.40644 0.738 0.12859 0.0
H784 H 0.13889 0.25234 0.49417 0.0
H785 H 0.08962 0.32312 0.53543 0.0
H786 H 0.0874 0.28339 0.62462 0.0
H787 H 0.1033 0.24147 0.69889 0.0
H788 H 0.15351 0.17319 0.65848 0.0
H789 H 0.15155 0.19878 0.56177 0.0
C790 C 0.12713 0.25708 0.5213 0.0
C791 C 0.11437 0.29034 0.50822 0.0
C792 C 0.12656 0.23592 0.57405 0.0
C793 C 0.09945 0.29715 0.54436 0.0
C794 C 0.09841 0.27512 0.59597 0.0
C795 C 0.11365 0.23151 0.66874 0.0
C796 C 0.12876 0.20634 0.6867 0.0
C797 C 0.11252 0.24657 0.61275 0.0
C798 C 0.14184 0.19315 0.64648 0.0
C799 C 0.14075 0.20772 0.59085 0.0
H800 H 0.02672 0.2848 0.30255 0.0
H801 H 0.04709 0.29153 0.47217 0.0
H802 H 0.01593 0.28418 0.50869 0.0
H803 H 0.98273 0.28798 0.49134 0.0
H804 H 0.96272 0.28237 0.32088 0.0
H805 H 0.99386 0.27636 0.28576 0.0
C806 C 0.02435 0.28338 0.34755 0.0
C807 C 0.0391 0.2889 0.38469 0.0
C808 C 1.00644 0.2799 0.368 0.0
C809 C 0.03595 0.28693 0.44284 0.0
C810 C 0.01812 0.28326 0.46364 0.0
C811 C 0.98519 0.28449 0.44657 0.0
C812 C 0.97037 0.28588 0.40887 0.0
C813 C 1.00321 0.28158 0.42652 0.0
C814 C 0.97376 0.28096 0.351 0.0
C815 C 0.99163 0.27795 0.33077 0.0
H816 H 0.53385 0.70832 0.79127 0.0
H817 H 0.55271 0.71793 0.96231 0.0
H818 H 0.52124 0.72832 0.99501 0.0
H819 H 0.48826 0.72204 0.97558 0.0
H820 H 0.46966 0.71213 0.804 0.0
H821 H 0.50112 0.71555 0.77062 0.0
C822 C 0.53106 0.71397 0.83554 0.0
C823 C 0.54545 0.71211 0.87448 0.0
C824 C 0.51299 0.71946 0.85384 0.0
C825 C 0.54181 0.71956 0.93166 0.0
C826 C 0.52382 0.72505 0.95032 0.0
C827 C 0.4911 0.7218 0.93081 0.0
C828 C 0.47665 0.71652 0.89238 0.0
C829 C 0.50927 0.7232 0.91195 0.0
C830 C 0.48047 0.71656 0.83448 0.0
C831 C 0.4985 0.71803 0.81537 0.0
H832 H 0.98973 0.70249 0.72183 0.0
H833 H 0.97065 0.72628 0.55336 0.0
H834 H 1.00202 0.74038 0.52231 0.0
H835 H 0.0351 0.73432 0.54066 0.0
H836 H 0.05395 0.71053 0.70963 0.0
H837 H 0.02247 0.70888 0.74322 0.0
C838 C 0.99243 0.71197 0.67865 0.0
C839 C 0.97797 0.71317 0.63981 0.0
C840 C 0.01047 0.71956 0.66118 0.0
C841 C 0.98155 0.72556 0.58405 0.0
C842 C 0.99951 0.73313 0.56623 0.0
C843 C 0.0323 0.7298 0.58506 0.0
C844 C 0.04687 0.72229 0.6225 0.0
C845 C 0.01412 0.72851 0.60401 0.0
C846 C 0.04306 0.71679 0.67997 0.0
C847 C 0.02502 0.7154 0.69913 0.0
H848 H 0.48257 0.27002 0.03736 0.0
H849 H 0.46518 0.31072 0.20299 0.0
H850 H 0.49697 0.31462 0.2336 0.0
H851 H 0.52958 0.31804 0.20852 0.0
H852 H 0.5471 0.27655 0.0435 0.0
H853 H 0.51542 0.2607 0.01742 0.0
C854 C 0.48576 0.27861 0.08057 0.0
C855 C 0.47156 0.29032 0.11776 0.0
C856 C 0.50408 0.2811 0.09769 0.0
C857 C 0.47583 0.30118 0.17369 0.0
C858 C 0.49403 0.30388 0.19103 0.0
C859 C 0.52646 0.30438 0.16736 0.0
C860 C 0.54056 0.29867 0.1278 0.0
C861 C 0.50824 0.2956 0.15275 0.0
C862 C 0.53646 0.28087 0.0747 0.0
C863 C 0.51834 0.27223 0.05968 0.0
H864 H 0.48687 0.81097 0.29777 0.0
H865 H 0.47055 0.77628 0.46601 0.0
H866 H 0.50242 0.76146 0.49086 0.0
H867 H 0.5351 0.77102 0.46858 0.0
H868 H 0.55132 0.80474 0.29977 0.0
H869 H 0.51934 0.80622 0.27066 0.0
C870 C 0.4903 0.79882 0.33934 0.0
C871 C 0.47649 0.79486 0.38017 0.0
C872 C 0.50862 0.79059 0.35321 0.0
C873 C 0.48097 0.77918 0.43389 0.0
C874 C 0.4992 0.77114 0.44817 0.0
C875 C 0.53162 0.77731 0.42501 0.0
C876 C 0.54553 0.78799 0.38643 0.0
C877 C 0.51318 0.77851 0.40879 0.0
C878 C 0.5409 0.79601 0.33011 0.0
C879 C 0.52258 0.79738 0.31363 0.0
H880 H 0.98925 0.19959 0.79548 0.0
H881 H 0.97212 0.23066 0.96441 0.0
H882 H 1.00383 0.24549 0.99109 0.0
H883 H 0.03662 0.2366 0.96982 0.0
H884 H 0.05365 0.20633 0.80043 0.0
H885 H 0.0218 0.20514 0.76992 0.0
C886 C 0.99245 0.211 0.83764 0.0
C887 C 0.97846 0.21388 0.87808 0.0
C888 C 0.01069 0.21911 0.8526 0.0
C889 C 0.98267 0.22862 0.93256 0.0
C890 C 1.00081 0.23662 0.94789 0.0
C891 C 0.03334 0.2311 0.92589 0.0
C892 C 0.04743 0.2213 0.88747 0.0
C893 C 0.01498 0.23011 0.90884 0.0
C894 C 0.04307 0.21433 0.83066 0.0
C895 C 0.02483 0.21316 0.81336 0.0
H896 H 0.49079 0.21695 0.73375 0.0
H897 H 0.4694 0.22108 0.56511 0.0
H898 H 0.50032 0.23008 0.52777 0.0
H899 H 0.5336 0.22594 0.54262 0.0
H900 H 0.55484 0.22144 0.71158 0.0
H901 H 0.52386 0.22428 0.74925 0.0
C902 C 0.49287 0.2208 0.68888 0.0
C903 C 0.47782 0.21806 0.65223 0.0
C904 C 0.51069 0.22557 0.66777 0.0
C905 C 0.4807 0.22342 0.59425 0.0
C906 C 0.49841 0.22813 0.57288 0.0
C907 C 0.53146 0.22659 0.58774 0.0
C908 C 0.54657 0.22329 0.62415 0.0
C909 C 0.51355 0.22768 0.60914 0.0
C910 C 0.54356 0.22444 0.68251 0.0
C911 C 0.52579 0.22556 0.70411 0.0
H912 H 0.9875 0.77968 0.05922 0.0
H913 H 0.96846 0.79413 0.22997 0.0
H914 H 0.99993 0.79337 0.26373 0.0
H915 H 0.03272 0.80064 0.24304 0.0
H916 H 0.0519 0.78657 0.07255 0.0
H917 H 0.02056 0.77442 0.04031 0.0
C918 C 0.99025 0.78157 0.10396 0.0
C919 C 0.97564 0.78724 0.14198 0.0
C920 C 1.00841 0.78164 0.12298 0.0
C921 C 0.97938 0.78935 0.19983 0.0
C922 C 0.99741 0.78939 0.21911 0.0
C923 C 0.03005 0.79377 0.19901 0.0
C924 C 0.04456 0.79478 0.16013 0.0
C925 C 0.01201 0.7873 0.18086 0.0
C926 C 0.041 0.78562 0.10329 0.0
C927 C 0.02305 0.77913 0.08483 0.0
H928 H 0.27193 0.34865 0.17359 0.0
H929 H 0.30315 0.39261 0.31702 0.0
H930 H 0.27493 0.4093 0.36778 0.0
H931 H 0.24155 0.40214 0.37562 0.0
H932 H 0.21046 0.35613 0.23286 0.0
H933 H 0.23842 0.35014 0.1775 0.0
C934 C 0.27257 0.3626 0.21566 0.0
C935 C 0.28968 0.3691 0.24151 0.0
C936 C 0.25628 0.37143 0.2449 0.0
C937 C 0.29025 0.38763 0.2958 0.0
C938 C 0.27408 0.39676 0.3251 0.0
C939 C 0.24084 0.39148 0.33207 0.0
C940 C 0.22386 0.37943 0.30866 0.0
C941 C 0.25704 0.38742 0.3007 0.0
C942 C 0.22321 0.3661 0.25199 0.0
C943 C 0.23927 0.36222 0.2204 0.0
H944 H 0.24212 0.64559 0.65718 0.0
H945 H 0.21624 0.63573 0.81943 0.0
H946 H 0.24582 0.6215 0.86335 0.0
H947 H 0.27932 0.62674 0.85721 0.0
H948 H 0.30524 0.63649 0.69507 0.0
H949 H 0.27539 0.63473 0.64905 0.0
C950 C 0.24295 0.63894 0.7019 0.0
C951 C 0.22713 0.6421 0.73521 0.0
C952 C 0.26001 0.63115 0.72679 0.0
C953 C 0.22824 0.63324 0.79299 0.0
C954 C 0.24518 0.62552 0.81814 0.0
C955 C 0.2784 0.62677 0.81168 0.0
C956 C 0.29436 0.63195 0.77946 0.0
C957 C 0.26121 0.62648 0.78576 0.0
C958 C 0.29313 0.63208 0.7206 0.0
C959 C 0.27605 0.63167 0.69439 0.0
H960 H 0.72389 0.63381 0.72462 0.0
H961 H 0.74553 0.61818 0.89171 0.0
H962 H 0.7764 0.61206 0.8539 0.0
H963 H 0.79762 0.6235 0.77504 0.0
H964 H 0.77605 0.64259 0.60823 0.0
H965 H 0.74504 0.63462 0.64391 0.0
C966 C 0.7353 0.62745 0.75246 0.0
C967 C 0.73241 0.62642 0.81088 0.0
C968 C 0.75318 0.62548 0.7305 0.0
C969 C 0.7474 0.6191 0.84654 0.0
C970 C 0.7651 0.61589 0.82497 0.0
C971 C 0.7862 0.62454 0.74618 0.0
C972 C 0.78925 0.63399 0.68902 0.0
C973 C 0.76825 0.62088 0.76722 0.0
C974 C 0.77414 0.63586 0.65256 0.0
C975 C 0.75635 0.63133 0.67292 0.0
H976 H 0.74222 0.40473 0.15279 0.0
H977 H 0.71043 0.35574 0.29221 0.0
H978 H 0.73812 0.34873 0.34858 0.0
H979 H 0.77164 0.34553 0.3527 0.0
H980 H 0.80343 0.39228 0.212 0.0
H981 H 0.77548 0.41176 0.16205 0.0
C982 C 0.74132 0.39342 0.19597 0.0
C983 C 0.7243 0.38047 0.21808 0.0
C984 C 0.75733 0.38861 0.22769 0.0
C985 C 0.72329 0.36629 0.27422 0.0
C986 C 0.73917 0.3618 0.30629 0.0
C987 C 0.77245 0.36079 0.31152 0.0
C988 C 0.78961 0.36709 0.28599 0.0
C989 C 0.75631 0.3712 0.28264 0.0
C990 C 0.79046 0.38735 0.2329 0.0
C991 C 0.77445 0.3981 0.20404 0.0
H992 H 0.79453 0.87553 0.28296 0.0
H993 H 0.77934 0.84714 0.1117 0.0
H994 H 0.74727 0.86033 0.13431 0.0
H995 H 0.72334 0.86449 0.20669 0.0
H996 H 0.7384 0.88458 0.37968 0.0
H997 H 0.77052 0.89132 0.35289 0.0
C998 C 0.78424 0.87394 0.25029 0.0
C999 C 0.78922 0.86038 0.19581 0.0
C1000 C 0.7657 0.87961 0.26426 0.0
C1001 C 0.77576 0.8575 0.15397 0.0
C1002 C 0.75741 0.8648 0.16695 0.0
C1003 C 0.73361 0.87233 0.23798 0.0
C1004 C 0.72861 0.87459 0.29486 0.0
C1005 C 0.75214 0.87371 0.22251 0.0
C1006 C 0.74202 0.88335 0.33551 0.0
C1007 C 0.76039 0.88668 0.32025 0.0
H1008 H 0.74839 0.15185 0.66132 0.0
H1009 H 0.71561 0.11269 0.80369 0.0
H1010 H 0.74318 0.09433 0.8561 0.0
H1011 H 0.77647 0.09904 0.8659 0.0
H1012 H 0.80924 0.14159 0.72509 0.0
H1013 H 0.78184 0.14823 0.66752 0.0
C1014 C 0.74725 0.13866 0.70356 0.0
C1015 C 0.72988 0.13397 0.72851 0.0
C1016 C 0.76319 0.12903 0.73392 0.0
C1017 C 0.72868 0.11631 0.78303 0.0
C1018 C 0.7445 0.10619 0.81331 0.0
C1019 C 0.77767 0.10907 0.82229 0.0
C1020 C 0.79495 0.12002 0.8001 0.0
C1021 C 0.7618 0.11383 0.78981 0.0
C1022 C 0.79624 0.13248 0.74333 0.0
C1023 C 0.7805 0.13677 0.71048 0.0
H1024 H 0.27614 0.11894 0.63545 0.0
H1025 H 0.30981 0.16015 0.77498 0.0
H1026 H 0.28283 0.16697 0.83442 0.0
H1027 H 0.24948 0.16927 0.84375 0.0
H1028 H 0.21574 0.13054 0.70326 0.0
H1029 H 0.24292 0.11424 0.64764 0.0
C1030 C 0.2776 0.12884 0.67911 0.0
C1031 C 0.295 0.139 0.70057 0.0
C1032 C 0.26198 0.13342 0.71287 0.0
C1033 C 0.29667 0.15147 0.75737 0.0
C1034 C 0.2812 0.15584 0.79133 0.0
C1035 C 0.24807 0.15671 0.80116 0.0
C1036 C 0.23057 0.15125 0.77782 0.0
C1037 C 0.26376 0.14806 0.76906 0.0
C1038 C 0.22898 0.13456 0.72274 0.0
C1039 C 0.24455 0.12563 0.69062 0.0
H1040 H 0.29758 0.89157 0.22953 0.0
H1041 H 0.27572 0.85914 0.39272 0.0
H1042 H 0.24478 0.87037 0.35824 0.0
H1043 H 0.22372 0.87812 0.27812 0.0
H1044 H 0.2456 0.90854 0.11438 0.0
H1045 H 0.27642 0.9102 0.1527 0.0
C1046 C 0.2861 0.88835 0.25801 0.0
C1047 C 0.28906 0.87418 0.31359 0.0
C1048 C 0.26817 0.89395 0.23754 0.0
C1049 C 0.27389 0.86959 0.34955 0.0
C1050 C 0.25612 0.87591 0.32984 0.0
C1051 C 0.23515 0.88656 0.25123 0.0
C1052 C 0.23228 0.89293 0.19333 0.0
C1053 C 0.25303 0.88644 0.27334 0.0
C1054 C 0.24739 0.90315 0.15905 0.0
C1055 C 0.26508 0.90395 0.18088 0.0
H1056 H 0.12311 0.43886 0.54921 0.0
H1057 H 0.16043 0.44263 0.40917 0.0
H1058 H 0.17075 0.51646 0.43881 0.0
H1059 H 0.16822 0.58102 0.50419 0.0
H1060 H 0.13082 0.57343 0.64438 0.0
H1061 H 0.12251 0.49827 0.61725 0.0
C1062 C 0.13363 0.45532 0.52484 0.0
C1063 C 0.14053 0.43532 0.47544 0.0
C1064 C 0.13991 0.49662 0.54356 0.0
C1065 C 0.15419 0.45765 0.44541 0.0
C1066 C 0.16036 0.49965 0.46324 0.0
C1067 C 0.15853 0.5625 0.52945 0.0
C1068 C 0.15042 0.58274 0.57702 0.0
C1069 C 0.15319 0.51959 0.51217 0.0
C1070 C 0.13776 0.55846 0.60885 0.0
C1071 C 0.13269 0.51569 0.59262 0.0
H1072 H 0.35017 0.58219 0.01938 0.0
H1073 H 0.38744 0.54975 0.8851 0.0
H1074 H 0.38852 0.47257 0.9168 0.0
H1075 H 0.38074 0.41579 0.98687 0.0
H1076 H 0.3442 0.44751 0.1232 0.0
H1077 H 0.34179 0.52443 0.08884 0.0
C1078 C 0.35824 0.55799 0.9963 0.0
C1079 C 0.3682 0.57156 0.94828 0.0
C1080 C 0.35956 0.51417 0.01689 0.0
C1081 C 0.37887 0.53992 0.91987 0.0
C1082 C 0.37988 0.496 0.93912 0.0
C1083 C 0.37233 0.43969 0.00935 0.0
C1084 C 0.36312 0.42646 0.05869 0.0
C1085 C 0.37059 0.48308 0.98819 0.0
C1086 C 0.35206 0.45742 0.08679 0.0
C1087 C 0.3504 0.50107 0.06633 0.0
H1088 H 0.85621 0.57831 0.491 0.0
H1089 H 0.88868 0.54217 0.63438 0.0
H1090 H 0.88508 0.46342 0.6112 0.0
H1091 H 0.87614 0.40597 0.54357 0.0
H1092 H 0.84437 0.44044 0.39794 0.0
H1093 H 0.84485 0.51918 0.42681 0.0
C1094 C 0.86194 0.55295 0.51812 0.0
C1095 C 0.87189 0.56584 0.56624 0.0
C1096 C 0.86067 0.50783 0.5024 0.0
C1097 C 0.87991 0.53296 0.59968 0.0
C1098 C 0.87832 0.488 0.58529 0.0
C1099 C 0.8692 0.43069 0.51822 0.0
C1100 C 0.86083 0.41783 0.4674 0.0
C1101 C 0.86921 0.47526 0.53589 0.0
C1102 C 0.85173 0.44998 0.43543 0.0
C1103 C 0.85173 0.49475 0.45262 0.0
H1104 H 0.63274 0.59259 0.03651 0.0
H1105 H 0.66856 0.57114 0.89533 0.0
H1106 H 0.67067 0.49164 0.91943 0.0
H1107 H 0.66025 0.42799 0.97856 0.0
H1108 H 0.62436 0.45344 0.11865 0.0
H1109 H 0.6253 0.53292 0.09957 0.0
C1110 C 0.64127 0.57088 0.01111 0.0
C1111 C 0.64975 0.58709 0.96224 0.0
C1112 C 0.64277 0.52637 0.02637 0.0
C1113 C 0.6609 0.55859 0.93063 0.0
C1114 C 0.6624 0.51351 0.94531 0.0
C1115 C 0.65305 0.45131 1.00551 0.0
C1116 C 0.64283 0.43547 0.05146 0.0
C1117 C 0.65303 0.49689 0.99252 0.0
C1118 C 0.63314 0.46538 0.08534 0.0
C1119 C 0.63332 0.51061 0.0735 0.0
H1120 H 0.67022 0.92906 0.51654 0.0
H1121 H 0.63306 0.95378 0.37969 0.0
H1122 H 0.6309 0.03181 0.40737 0.0
H1123 H 0.63759 0.09146 0.47426 0.0
H1124 H 0.67456 0.0689 0.61177 0.0
H1125 H 0.67803 0.99074 0.58218 0.0
C1126 C 0.66191 0.95175 0.49217 0.0
C1127 C 0.65227 0.93573 0.44471 0.0
C1128 C 0.66011 0.99637 0.51 0.0
C1129 C 0.6413 0.96543 0.41445 0.0
C1130 C 0.63972 0.00991 0.43117 0.0
C1131 C 0.64642 0.06943 0.49793 0.0
C1132 C 0.65529 0.08545 0.54653 0.0
C1133 C 0.64877 0.02543 0.4794 0.0
C1134 C 0.66685 0.05674 0.57618 0.0
C1135 C 0.66911 0.01238 0.55839 0.0
H1136 H 0.85435 0.92015 0.99852 0.0
H1137 H 0.88843 0.93523 0.14515 0.0
H1138 H 0.89412 0.01246 0.12124 0.0
H1139 H 0.89259 0.07216 0.05373 0.0
H1140 H 0.8586 0.06011 0.90697 0.0
H1141 H 0.85047 0.98429 0.93401 0.0
C1142 C 0.86267 0.94078 0.02583 0.0
C1143 C 0.87053 0.9223 0.07448 0.0
C1144 C 0.86658 0.98486 0.01037 0.0
C1145 C 0.88155 0.94905 0.10896 0.0
C1146 C 0.88517 0.99299 0.09456 0.0
C1147 C 0.88328 0.0533 0.02745 0.0
C1148 C 0.87684 0.07141 0.97668 0.0
C1149 C 0.87822 0.01067 0.04457 0.0
C1150 C 0.86464 0.04636 0.94412 0.0
C1151 C 0.85967 1.00324 0.96046 0.0
H1152 H 0.39682 0.08454 0.46108 0.0
H1153 H 0.35866 0.07571 0.59804 0.0
H1154 H 0.35024 1.0011 0.56959 0.0
H1155 H 0.35607 0.93523 0.51039 0.0
H1156 H 0.39449 0.94431 0.37386 0.0
H1157 H 0.39959 0.0228 0.39474 0.0
C1158 C 0.38654 0.06656 0.48469 0.0
C1159 C 0.37911 0.08521 0.53406 0.0
C1160 C 0.38145 0.02394 0.46674 0.0
C1161 C 0.36554 0.06158 0.56273 0.0
C1162 C 0.36041 0.01898 0.54547 0.0
C1163 C 0.36505 0.955 0.48416 0.0
C1164 C 0.37444 0.93471 0.43952 0.0
C1165 C 0.36863 0.99942 0.49835 0.0
C1166 C 0.38643 0.95996 0.40656 0.0
C1167 C 0.38972 0.0045 0.4195 0.0
H1168 H 0.12961 0.93474 0.97751 0.0
H1169 H 0.16588 0.94503 0.11919 0.0
H1170 H 0.17421 0.02055 0.09067 0.0
H1171 H 0.16971 0.08518 0.02666 0.0
H1172 H 0.13405 0.07065 0.88357 0.0
H1173 H 0.12797 0.9939 0.90918 0.0
C1174 C 0.13948 0.95307 1.0024 0.0
C1175 C 0.14638 0.93472 0.0526 0.0
C1176 C 0.14473 0.99535 0.98412 0.0
C1177 C 0.15938 0.95911 0.08295 0.0
C1178 C 0.16447 1.00202 0.06565 0.0
C1179 C 0.16097 0.06476 1.0004 0.0
C1180 C 0.15269 0.08344 0.95238 0.0
C1181 C 0.15699 0.02075 0.01664 0.0
C1182 C 0.14118 0.05682 0.91929 0.0
C1183 C 0.13736 0.01312 0.93469 0.0
H1184 H 0.10833 0.14985 0.32165 0.0
H1185 H 0.16526 0.16054 0.36508 0.0
H1186 H 0.17127 0.08815 0.32178 0.0
H1187 H 0.16066 0.02282 0.26788 0.0
H1188 H 0.10379 0.01313 0.2227 0.0
H1189 H 0.0976 0.08383 0.26956 0.0
C1190 C 0.12199 0.13598 0.32257 0.0
C1191 C 0.13629 0.16059 0.34708 0.0
C1192 C 0.12546 0.09463 0.29631 0.0
C1193 C 0.15397 0.14234 0.3468 0.0
C1194 C 0.15745 0.10097 0.32171 0.0
C1195 C 0.14692 0.03621 0.26812 0.0
C1196 C 0.13276 0.0125 0.24142 0.0
C1197 C 0.14337 0.07707 0.29552 0.0
C1198 C 0.11502 0.03047 0.24262 0.0
C1199 C 0.11142 0.07097 0.26967 0.0
H1200 H 0.39341 0.00714 0.82461 0.0
H1201 H 0.36523 0.98012 0.6689 0.0
H1202 H 0.3645 0.90101 0.69119 0.0
H1203 H 0.37184 0.8394 0.75431 0.0
H1204 H 0.40073 0.86503 0.90896 0.0
H1205 H 0.40104 0.94481 0.88785 0.0
C1206 C 0.38713 0.98398 0.79546 0.0
C1207 C 0.37937 0.99982 0.74507 0.0
C1208 C 0.38677 0.93827 0.80853 0.0
C1209 C 0.37132 0.96911 0.7079 0.0
C1210 C 0.37085 0.92376 0.72069 0.0
C1211 C 0.37808 0.86238 0.7838 0.0
C1212 C 0.38614 0.84617 0.83346 0.0
C1213 C 0.37847 0.90799 0.77091 0.0
C1214 C 0.39438 0.87655 0.87058 0.0
C1215 C 0.3946 0.92217 0.85843 0.0
H1216 H 0.13277 0.01867 0.68306 0.0
H1217 H 0.16835 0.99497 0.82434 0.0
H1218 H 0.1689 0.91556 0.802 0.0
H1219 H 0.15818 0.85282 0.7451 0.0
H1220 H 0.12206 0.87626 0.60502 0.0
H1221 H 0.12303 0.95622 0.62382 0.0
C1222 C 0.14069 0.99618 0.70893 0.0
C1223 C 0.15045 0.01266 0.75543 0.0
C1224 C 0.1409 0.95066 0.69597 0.0
C1225 C 0.16075 0.98313 0.78826 0.0
C1226 C 0.16105 0.93774 0.77556 0.0
C1227 C 0.15065 0.87539 0.71825 0.0
C1228 C 0.13998 0.85857 0.67387 0.0
C1229 C 0.15105 0.92113 0.72982 0.0
C1230 C 0.13033 0.88833 0.63953 0.0
C1231 C 0.13083 0.93402 0.65038 0.0
H1232 H 0.40092 0.13657 0.15625 0.0
H1233 H 0.35005 0.17509 0.23382 0.0
H1234 H 0.3457 0.09955 0.26838 0.0
H1235 H 0.35675 0.02256 0.27954 0.0
H1236 H 0.40784 0.98447 0.20283 0.0
H1237 H 0.41164 0.05926 0.16568 0.0
C1238 C 0.38878 0.12831 0.18013 0.0
C1239 C 0.37586 0.16162 0.19226 0.0
C1240 C 0.38644 0.08472 0.20072 0.0
C1241 C 0.36028 0.15026 0.2238 0.0
C1242 C 0.35777 0.10698 0.24381 0.0
C1243 C 0.3687 0.0306 0.25466 0.0
C1244 C 0.38196 0.99769 0.24421 0.0
C1245 C 0.37085 0.07398 0.23312 0.0
C1246 C 0.39737 0.00892 0.21178 0.0
C1247 C 0.39958 0.05182 0.19029 0.0
H1248 H 0.91019 0.86031 0.67269 0.0
H1249 H 0.85286 0.83425 0.69766 0.0
H1250 H 0.84887 0.90752 0.73996 0.0
H1251 H 0.86168 0.97879 0.77284 0.0
H1252 H 0.91874 0.00616 0.74566 0.0
H1253 H 0.92277 0.93306 0.70216 0.0
C1254 C 0.89678 0.87088 0.68664 0.0
C1255 C 0.88188 0.84148 0.68181 0.0
C1256 C 0.89453 0.91334 0.71147 0.0
C1257 C 0.86463 0.85591 0.70066 0.0
C1258 C 0.86231 0.89789 0.72523 0.0
C1259 C 0.87501 0.96865 0.75771 0.0
C1260 C 0.8899 0.99795 0.76301 0.0
C1261 C 0.87719 0.92672 0.7316 0.0
C1262 C 0.90703 0.98436 0.74233 0.0
C1263 C 0.90935 0.9425 0.71725 0.0
H1264 H 0.65573 0.16284 0.20895 0.0
H1265 H 0.60687 0.14305 0.11095 0.0
H1266 H 0.60639 0.06453 0.13777 0.0
H1267 H 0.61916 1.00245 0.19205 0.0
H1268 H 0.66754 0.02313 0.29209 0.0
H1269 H 0.6688 0.10063 0.26166 0.0
C1270 C 0.64507 0.14132 0.19285 0.0
C1271 C 0.63136 0.15886 0.15785 0.0
C1272 C 0.64469 0.09651 0.20931 0.0
C1273 C 0.61759 0.13045 0.13786 0.0
C1274 C 0.61727 0.08559 0.15337 0.0
C1275 C 0.63 0.02385 0.20724 0.0
C1276 C 0.64323 0.00692 0.24441 0.0
C1277 C 0.63062 0.06842 0.18967 0.0
C1278 C 0.65719 0.0352 0.26346 0.0
C1279 C 0.65793 0.07953 0.24603 0.0
H1280 H 0.88914 0.99017 0.34209 0.0
H1281 H 0.85258 0.01219 0.20279 0.0
H1282 H 0.85141 0.09152 0.22554 0.0
H1283 H 0.86155 0.15473 0.28292 0.0
H1284 H 0.8986 0.133 0.42109 0.0
H1285 H 0.89863 0.05314 0.40109 0.0
C1286 C 0.88088 0.01225 0.3167 0.0
C1287 C 0.87098 0.99522 0.27071 0.0
C1288 C 0.88031 0.0578 0.32993 0.0
C1289 C 0.86029 0.02435 0.23848 0.0
C1290 C 0.85963 0.06973 0.25144 0.0
C1291 C 0.86952 0.13256 0.30907 0.0
C1292 C 0.8801 0.1499 0.35343 0.0
C1293 C 0.86967 0.08683 0.29686 0.0
C1294 C 0.89037 0.12059 0.38668 0.0
C1295 C 0.89042 0.07493 0.37516 0.0
H1296 H 0.65844 0.85248 0.78236 0.0
H1297 H 0.6094 0.86901 0.88092 0.0
H1298 H 0.60787 0.94736 0.85368 0.0
H1299 H 0.61988 0.01024 0.79911 0.0
H1300 H 0.66851 0.99255 0.69877 0.0
H1301 H 0.67064 0.91526 0.72912 0.0
C1302 C 0.64751 0.87327 0.79847 0.0
C1303 C 0.63407 0.85492 0.83374 0.0
C1304 C 0.64652 0.9179 0.78175 0.0
C1305 C 0.61993 0.88232 0.85376 0.0
C1306 C 0.61901 0.92705 0.83801 0.0
C1307 C 0.63093 0.98949 0.78377 0.0
C1308 C 0.64399 0.0072 0.74659 0.0
C1309 C 0.6321 0.94503 0.80143 0.0
C1310 C 0.65826 0.97982 0.72734 0.0
C1311 C 0.65952 0.93562 0.74478 0.0
H1312 H 0.6155 0.64182 0.34948 0.0
H1313 H 0.66669 0.67791 0.27239 0.0
H1314 H 0.67011 0.60274 0.23517 0.0
H1315 H 0.65816 0.52712 0.2213 0.0
H1316 H 0.60693 0.4907 0.2979 0.0
H1317 H 0.60394 0.56522 0.33781 0.0
C1318 C 0.62752 0.63304 0.32525 0.0
C1319 C 0.6408 0.66559 0.31388 0.0
C1320 C 0.62933 0.58965 0.30311 0.0
C1321 C 0.65621 0.65364 0.28181 0.0
C1322 C 0.65818 0.61061 0.26025 0.0
C1323 C 0.64633 0.53547 0.24667 0.0
C1324 C 0.63279 0.50322 0.25633 0.0
C1325 C 0.64472 0.57846 0.26994 0.0
C1326 C 0.61759 0.51474 0.28958 0.0
C1327 C 0.61586 0.55743 0.31263 0.0
H1328 H 0.89749 0.50437 0.81829 0.0
H1329 H 0.85152 0.48163 0.70862 0.0
H1330 H 0.8507 0.40359 0.73681 0.0
H1331 H 0.8634 0.34155 0.7907 0.0
H1332 H 0.90998 0.36323 0.89813 0.0
H1333 H 0.91004 0.44219 0.87313 0.0
C1334 C 0.88725 0.48241 0.80057 0.0
C1335 C 0.87455 0.49899 0.76138 0.0
C1336 C 0.88691 0.43745 0.81678 0.0
C1337 C 0.86142 0.46992 0.73891 0.0
C1338 C 0.86094 0.42524 0.75504 0.0
C1339 C 0.87348 0.36355 0.80921 0.0
C1340 C 0.88665 0.34642 0.84647 0.0
C1341 C 0.87364 0.40864 0.79382 0.0
C1342 C 0.89968 0.37548 0.86946 0.0
C1343 C 0.89975 0.42061 0.85502 0.0
H1344 H 0.61425 0.364 0.69135 0.0
H1345 H 0.67251 0.34846 0.67624 0.0
H1346 H 0.67716 0.42201 0.71811 0.0
H1347 H 0.66472 0.49001 0.76237 0.0
H1348 H 0.60642 0.50361 0.78144 0.0
H1349 H 0.60183 0.43187 0.7356 0.0
C1350 C 0.62794 0.37707 0.69635 0.0
C1351 C 0.643 0.35094 0.68005 0.0
C1352 C 0.63055 0.41895 0.72211 0.0
C1353 C 0.66068 0.36798 0.68809 0.0
C1354 C 0.66336 0.40999 0.71232 0.0
C1355 C 0.65101 0.47727 0.75659 0.0
C1356 C 0.63597 0.50243 0.77555 0.0
C1357 C 0.64841 0.4356 0.73022 0.0
C1358 C 0.61831 0.48514 0.76762 0.0
C1359 C 0.61562 0.44405 0.74109 0.0
H1360 H 0.89467 0.49066 0.19863 0.0
H1361 H 0.85195 0.50994 0.32147 0.0
H1362 H 0.85101 0.58916 0.2997 0.0
H1363 H 0.86292 0.65316 0.24806 0.0
H1364 H 0.90575 0.6344 0.12546 0.0
H1365 H 0.90582 0.55449 0.14431 0.0
C1366 C 0.88513 0.51215 0.22063 0.0
C1367 C 0.87351 0.49441 0.26203 0.0
C1368 C 0.88461 0.55768 0.20772 0.0
C1369 C 0.86114 0.52272 0.28977 0.0
C1370 C 0.86056 0.56804 0.27723 0.0
C1371 C 0.87218 0.63162 0.22504 0.0
C1372 C 0.88437 0.6498 0.18556 0.0
C1373 C 0.8723 0.58589 0.23656 0.0
C1374 C 0.89625 0.62131 0.15614 0.0
C1375 C 0.89634 0.57563 0.16703 0.0
H1376 H 0.35979 0.49392 0.74005 0.0
H1377 H 0.41804 0.51396 0.74683 0.0
H1378 H 0.42308 0.43975 0.70804 0.0
H1379 H 0.41104 0.36785 0.6758 0.0
H1380 H 0.35278 0.34775 0.66902 0.0
H1381 H 0.34771 0.42336 0.70314 0.0
C1382 C 0.37358 0.48203 0.73306 0.0
C1383 C 0.38849 0.50936 0.74673 0.0
C1384 C 0.37641 0.43934 0.7103 0.0
C1385 C 0.40629 0.4936 0.73685 0.0
C1386 C 0.40921 0.45114 0.71456 0.0
C1387 C 0.39723 0.38021 0.68096 0.0
C1388 C 0.38233 0.35204 0.67006 0.0
C1389 C 0.39438 0.4236 0.70142 0.0
C1390 C 0.36453 0.36862 0.67722 0.0
C1391 C 0.36159 0.41184 0.69702 0.0
H1392 H 0.10929 0.65149 0.20218 0.0
H1393 H 0.16786 0.66102 0.18877 0.0
H1394 H 0.1711 0.58663 0.22823 0.0
H1395 H 0.15748 0.51976 0.27039 0.0
H1396 H 0.09892 0.51016 0.2846 0.0
H1397 H 0.09559 0.58338 0.24171 0.0
C1398 C 0.12275 0.63702 0.20705 0.0
C1399 C 0.1383 0.66196 0.1923 0.0
C1400 C 0.12457 0.59427 0.23081 0.0
C1401 C 0.15563 0.64272 0.19965 0.0
C1402 C 0.15753 0.60016 0.22252 0.0
C1403 C 0.14398 0.53368 0.26425 0.0
C1404 C 0.1285 0.50936 0.2811 0.0
C1405 C 0.14212 0.57586 0.23909 0.0
C1406 C 0.11112 0.528 0.27229 0.0
C1407 C 0.10917 0.56994 0.24756 0.0
H1408 H 0.36185 0.65825 0.29483 0.0
H1409 H 0.41098 0.64054 0.39208 0.0
H1410 H 0.41193 0.56196 0.36501 0.0
H1411 H 0.3995 0.49924 0.31061 0.0
H1412 H 0.3507 0.51781 0.21195 0.0
H1413 H 0.34905 0.59539 0.24243 0.0
C1414 C 0.37269 0.63718 0.3107 0.0
C1415 C 0.38634 0.65533 0.34551 0.0
C1416 C 0.37332 0.59233 0.29417 0.0
C1417 C 0.4003 0.62747 0.36531 0.0
C1418 C 0.40089 0.58257 0.34964 0.0
C1419 C 0.3885 0.52023 0.29569 0.0
C1420 C 0.37527 0.50269 0.25886 0.0
C1421 C 0.38762 0.56482 0.31344 0.0
C1422 C 0.36106 0.53037 0.24026 0.0
C1423 C 0.3601 0.57475 0.25773 0.0
H1424 H 0.15688 0.35505 0.77399 0.0
H1425 H 0.12132 0.37106 0.91744 0.0
H1426 H 0.12133 0.45168 0.90402 0.0
H1427 H 0.1304 0.51714 0.8492 0.0
H1428 H 0.16516 0.50054 0.70389 0.0
H1429 H 0.16644 0.4205 0.7204 0.0
C1430 C 0.14927 0.37616 0.80272 0.0
C1431 C 0.1391 0.35705 0.84666 0.0
C1432 C 0.14908 0.42233 0.79416 0.0
C1433 C 0.12923 0.38491 0.88322 0.0
C1434 C 0.1292 0.431 0.8755 0.0
C1435 C 0.13832 0.49608 0.82122 0.0
C1436 C 0.14767 0.51488 0.77539 0.0
C1437 C 0.13889 0.45 0.83069 0.0
C1438 C 0.15785 0.48702 0.73956 0.0
C1439 C 0.15859 0.44121 0.74894 0.0
loop_
_geom_bond_atom_site_label_1
_geom_bond_atom_site_label_2
_geom_bond_distance
_geom_bond_site_symmetry_2
_ccdc_geom_bond_type
Zn0 N4 2.020 . S
Zn0 O8 2.019 . S
Zn0 N10 2.119 . S
Zn0 O18 1.975 . S
C1 N2 1.334 . S
C1 N5 1.336 . S
N2 C1 1.334 . S
N2 C3 1.334 . S
C3 N2 1.334 . S
C3 N4 1.336 . S
N4 Zn0 2.020 . S
N4 C3 1.336 . S
N4 N5 1.354 . S
N5 C1 1.336 . S
N5 N4 1.354 . S
N5 Zn9 2.020 . S
C6 O7 1.244 . S
C6 O30 1.257 . S
O7 C6 1.244 . S
O8 Zn0 2.019 . S
O8 C28 1.257 . S
Zn9 N5 2.020 . S
Zn9 O16 1.975 . S
Zn9 N25 2.119 . S
Zn9 O30 2.019 . S
N10 Zn0 2.119 . S
N10 C12 1.334 . S
N10 C13 1.328 . S
C11 C12 1.391 . S
C11 N14 1.329 . S
C11 H32 0.930 . S
C12 N10 1.334 . S
C12 C11 1.391 . S
C12 H19 0.930 . S
C13 N10 1.328 . S
C13 C15 1.392 . S
C13 H20 0.930 . S
N14 C11 1.329 . S
N14 C15 1.331 . S
C15 C13 1.392 . S
C15 N14 1.331 . S
O16 Zn9 1.975 . S
O16 C17 1.252 . S
C17 O16 1.252 . S
C17 O18 1.252 . S
O18 Zn0 1.975 . S
O18 C17 1.252 . S
H19 C12 0.930 . S
H20 C13 0.930 . S
C21 C22 1.392 . S
C21 N25 1.328 . S
C21 H27 0.930 . S
C22 C21 1.392 . S
C22 N26 1.331 . S
C23 C24 1.391 . S
C23 N26 1.329 . S
C23 H33 0.930 . S
C24 C23 1.391 . S
C24 N25 1.334 . S
C24 H31 0.930 . S
N25 Zn9 2.119 . S
N25 C21 1.328 . S
N25 C24 1.334 . S
N26 C22 1.331 . S
N26 C23 1.329 . S
H27 C21 0.930 . S
C28 O8 1.257 . S
C28 O29 1.244 . S
O29 C28 1.244 . S
O30 C6 1.257 . S
O30 Zn9 2.019 . S
H31 C24 0.930 . S
H32 C11 0.930 . S
H33 C23 0.930 . S
Zn34 N38 2.020 . S
Zn34 O42 2.019 . S
Zn34 N44 2.119 . S
Zn34 O52 1.975 . S
C35 N36 1.334 . S
C35 N39 1.336 . S
N36 C35 1.334 . S
N36 C37 1.334 . S
C37 N36 1.334 . S
C37 N38 1.336 . S
N38 Zn34 2.020 . S
N38 C37 1.336 . S
N38 N39 1.354 . S
N39 C35 1.336 . S
N39 N38 1.354 . S
N39 Zn43 2.020 . S
C40 O41 1.244 . S
C40 O64 1.257 . S
O41 C40 1.244 . S
O42 Zn34 2.019 . S
O42 C62 1.257 . S
Zn43 N39 2.020 . S
Zn43 O50 1.975 . S
Zn43 N59 2.119 . S
Zn43 O64 2.019 . S
N44 Zn34 2.119 . S
N44 C46 1.334 . S
N44 C47 1.328 . S
C45 C46 1.391 . S
C45 N48 1.329 . S
C45 H66 0.930 . S
C46 N44 1.334 . S
C46 C45 1.391 . S
C46 H53 0.930 . S
C47 N44 1.328 . S
C47 C49 1.392 . S
C47 H54 0.930 . S
N48 C45 1.329 . S
N48 C49 1.331 . S
C49 C47 1.392 . S
C49 N48 1.331 . S
O50 Zn43 1.975 . S
O50 C51 1.252 . S
C51 O50 1.252 . S
C51 O52 1.252 . S
O52 Zn34 1.975 . S
O52 C51 1.252 . S
H53 C46 0.930 . S
H54 C47 0.930 . S
C55 C56 1.392 . S
C55 N59 1.328 . S
C55 H61 0.930 . S
C56 C55 1.392 . S
C56 N60 1.331 . S
C57 C58 1.391 . S
C57 N60 1.329 . S
C57 H67 0.930 . S
C58 C57 1.391 . S
C58 N59 1.334 . S
C58 H65 0.930 . S
N59 Zn43 2.119 . S
N59 C55 1.328 . S
N59 C58 1.334 . S
N60 C56 1.331 . S
N60 C57 1.329 . S
H61 C55 0.930 . S
C62 O42 1.257 . S
C62 O63 1.244 . S
O63 C62 1.244 . S
O64 C40 1.257 . S
O64 Zn43 2.019 . S
H65 C58 0.930 . S
H66 C45 0.930 . S
H67 C57 0.930 . S
Zn68 N72 2.020 . S
Zn68 O76 2.019 . S
Zn68 N78 2.119 . S
Zn68 O86 1.975 . S
C69 N70 1.334 . S
C69 N73 1.336 . S
N70 C69 1.334 . S
N70 C71 1.334 . S
C71 N70 1.334 . S
C71 N72 1.336 . S
N72 Zn68 2.020 . S
N72 C71 1.336 . S
N72 N73 1.354 . S
N73 C69 1.336 . S
N73 N72 1.354 . S
N73 Zn77 2.020 . S
C74 O75 1.244 . S
C74 O98 1.257 . S
O75 C74 1.244 . S
O76 Zn68 2.019 . S
O76 C96 1.257 . S
Zn77 N73 2.020 . S
Zn77 O84 1.975 . S
Zn77 N93 2.119 . S
Zn77 O98 2.019 . S
N78 Zn68 2.119 . S
N78 C80 1.334 . S
N78 C81 1.328 . S
C79 C80 1.391 . S
C79 N82 1.329 . S
C79 H100 0.930 . S
C80 N78 1.334 . S
C80 C79 1.391 . S
C80 H87 0.930 . S
C81 N78 1.328 . S
C81 C83 1.392 . S
C81 H88 0.930 . S
N82 C79 1.329 . S
N82 C83 1.331 . S
C83 C81 1.392 . S
C83 N82 1.331 . S
O84 Zn77 1.975 . S
O84 C85 1.252 . S
C85 O84 1.252 . S
C85 O86 1.252 . S
O86 Zn68 1.975 . S
O86 C85 1.252 . S
H87 C80 0.930 . S
H88 C81 0.930 . S
C89 C90 1.392 . S
C89 N93 1.328 . S
C89 H95 0.930 . S
C90 C89 1.392 . S
C90 N94 1.331 . S
C91 C92 1.391 . S
C91 N94 1.329 . S
C91 H101 0.930 . S
C92 C91 1.391 . S
C92 N93 1.334 . S
C92 H99 0.930 . S
N93 Zn77 2.119 . S
N93 C89 1.328 . S
N93 C92 1.334 . S
N94 C90 1.331 . S
N94 C91 1.329 . S
H95 C89 0.930 . S
C96 O76 1.257 . S
C96 O97 1.244 . S
O97 C96 1.244 . S
O98 C74 1.257 . S
O98 Zn77 2.019 . S
H99 C92 0.930 . S
H100 C79 0.930 . S
H101 C91 0.930 . S
Zn102 N106 2.020 . S
Zn102 O110 2.019 . S
Zn102 N112 2.119 . S
Zn102 O120 1.975 . S
C103 N104 1.334 . S
C103 N107 1.336 . S
N104 C103 1.334 . S
N104 C105 1.334 . S
C105 N104 1.334 . S
C105 N106 1.336 . S
N106 Zn102 2.020 . S
N106 C105 1.336 . S
N106 N107 1.354 . S
N107 C103 1.336 . S
N107 N106 1.354 . S
N107 Zn111 2.020 . S
C108 O109 1.244 . S
C108 O132 1.257 . S
O109 C108 1.244 . S
O110 Zn102 2.019 . S
O110 C130 1.257 . S
Zn111 N107 2.020 . S
Zn111 O118 1.975 . S
Zn111 N127 2.119 . S
Zn111 O132 2.019 . S
N112 Zn102 2.119 . S
N112 C114 1.334 . S
N112 C115 1.328 . S
C113 C114 1.391 . S
C113 N116 1.329 . S
C113 H134 0.930 . S
C114 N112 1.334 . S
C114 C113 1.391 . S
C114 H121 0.930 . S
C115 N112 1.328 . S
C115 C117 1.392 . S
C115 H122 0.930 . S
N116 C113 1.329 . S
N116 C117 1.331 . S
C117 C115 1.392 . S
C117 N116 1.331 . S
O118 Zn111 1.975 . S
O118 C119 1.252 . S
C119 O118 1.252 . S
C119 O120 1.252 . S
O120 Zn102 1.975 . S
O120 C119 1.252 . S
H121 C114 0.930 . S
H122 C115 0.930 . S
C123 C124 1.392 . S
C123 N127 1.328 . S
C123 H129 0.930 . S
C124 C123 1.392 . S
C124 N128 1.331 . S
C125 C126 1.391 . S
C125 N128 1.329 . S
C125 H135 0.930 . S
C126 C125 1.391 . S
C126 N127 1.334 . S
C126 H133 0.930 . S
N127 Zn111 2.119 . S
N127 C123 1.328 . S
N127 C126 1.334 . S
N128 C124 1.331 . S
N128 C125 1.329 . S
H129 C123 0.930 . S
C130 O110 1.257 . S
C130 O131 1.244 . S
O131 C130 1.244 . S
O132 C108 1.257 . S
O132 Zn111 2.019 . S
H133 C126 0.930 . S
H134 C113 0.930 . S
H135 C125 0.930 . S
Zn136 N140 2.020 . S
Zn136 O144 2.019 . S
Zn136 N146 2.119 . S
Zn136 O154 1.975 . S
C137 N138 1.334 . S
C137 N141 1.336 . S
N138 C137 1.334 . S
N138 C139 1.334 . S
C139 N138 1.334 . S
C139 N140 1.336 . S
N140 Zn136 2.020 . S
N140 C139 1.336 . S
N140 N141 1.354 . S
N141 C137 1.336 . S
N141 N140 1.354 . S
N141 Zn145 2.020 . S
C142 O143 1.244 . S
C142 O166 1.257 . S
O143 C142 1.244 . S
O144 Zn136 2.019 . S
O144 C164 1.257 . S
Zn145 N141 2.020 . S
Zn145 O152 1.975 . S
Zn145 N161 2.119 . S
Zn145 O166 2.019 . S
N146 Zn136 2.119 . S
N146 C148 1.334 . S
N146 C149 1.328 . S
C147 C148 1.391 . S
C147 N150 1.329 . S
C147 H168 0.930 . S
C148 N146 1.334 . S
C148 C147 1.391 . S
C148 H155 0.930 . S
C149 N146 1.328 . S
C149 C151 1.392 . S
C149 H156 0.930 . S
N150 C147 1.329 . S
N150 C151 1.331 . S
C151 C149 1.392 . S
C151 N150 1.331 . S
O152 Zn145 1.975 . S
O152 C153 1.252 . S
C153 O152 1.252 . S
C153 O154 1.252 . S
O154 Zn136 1.975 . S
O154 C153 1.252 . S
H155 C148 0.930 . S
H156 C149 0.930 . S
C157 C158 1.392 . S
C157 N161 1.328 . S
C157 H163 0.930 . S
C158 C157 1.392 . S
C158 N162 1.331 . S
C159 C160 1.391 . S
C159 N162 1.329 . S
C159 H169 0.930 . S
C160 C159 1.391 . S
C160 N161 1.334 . S
C160 H167 0.930 . S
N161 Zn145 2.119 . S
N161 C157 1.328 . S
N161 C160 1.334 . S
N162 C158 1.331 . S
N162 C159 1.329 . S
H163 C157 0.930 . S
C164 O144 1.257 . S
C164 O165 1.244 . S
O165 C164 1.244 . S
O166 C142 1.257 . S
O166 Zn145 2.019 . S
H167 C160 0.930 . S
H168 C147 0.930 . S
H169 C159 0.930 . S
Zn170 N174 2.020 . S
Zn170 O178 2.019 . S
Zn170 N180 2.119 . S
Zn170 O188 1.975 . S
C171 N172 1.334 . S
C171 N175 1.336 . S
N172 C171 1.334 . S
N172 C173 1.334 . S
C173 N172 1.334 . S
C173 N174 1.336 . S
N174 Zn170 2.020 . S
N174 C173 1.336 . S
N174 N175 1.354 . S
N175 C171 1.336 . S
N175 N174 1.354 . S
N175 Zn179 2.020 . S
C176 O177 1.244 . S
C176 O200 1.257 . S
O177 C176 1.244 . S
O178 Zn170 2.019 . S
O178 C198 1.257 . S
Zn179 N175 2.020 . S
Zn179 O186 1.975 . S
Zn179 N195 2.119 . S
Zn179 O200 2.019 . S
N180 Zn170 2.119 . S
N180 C182 1.334 . S
N180 C183 1.328 . S
C181 C182 1.391 . S
C181 N184 1.329 . S
C181 H202 0.930 . S
C182 N180 1.334 . S
C182 C181 1.391 . S
C182 H189 0.930 . S
C183 N180 1.328 . S
C183 C185 1.392 . S
C183 H190 0.930 . S
N184 C181 1.329 . S
N184 C185 1.331 . S
C185 C183 1.392 . S
C185 N184 1.331 . S
O186 Zn179 1.975 . S
O186 C187 1.252 . S
C187 O186 1.252 . S
C187 O188 1.252 . S
O188 Zn170 1.975 . S
O188 C187 1.252 . S
H189 C182 0.930 . S
H190 C183 0.930 . S
C191 C192 1.392 . S
C191 N195 1.328 . S
C191 H197 0.930 . S
C192 C191 1.392 . S
C192 N196 1.331 . S
C193 C194 1.391 . S
C193 N196 1.329 . S
C193 H203 0.930 . S
C194 C193 1.391 . S
C194 N195 1.334 . S
C194 H201 0.930 . S
N195 Zn179 2.119 . S
N195 C191 1.328 . S
N195 C194 1.334 . S
N196 C192 1.331 . S
N196 C193 1.329 . S
H197 C191 0.930 . S
C198 O178 1.257 . S
C198 O199 1.244 . S
O199 C198 1.244 . S
O200 C176 1.257 . S
O200 Zn179 2.019 . S
H201 C194 0.930 . S
H202 C181 0.930 . S
H203 C193 0.930 . S
Zn204 N208 2.020 . S
Zn204 O212 2.019 . S
Zn204 N214 2.119 . S
Zn204 O222 1.975 . S
C205 N206 1.334 . S
C205 N209 1.336 . S
N206 C205 1.334 . S
N206 C207 1.334 . S
C207 N206 1.334 . S
C207 N208 1.336 . S
N208 Zn204 2.020 . S
N208 C207 1.336 . S
N208 N209 1.354 . S
N209 C205 1.336 . S
N209 N208 1.354 . S
N209 Zn213 2.020 . S
C210 O211 1.244 . S
C210 O234 1.257 . S
O211 C210 1.244 . S
O212 Zn204 2.019 . S
O212 C232 1.257 . S
Zn213 N209 2.020 . S
Zn213 O220 1.975 . S
Zn213 N229 2.119 . S
Zn213 O234 2.019 . S
N214 Zn204 2.119 . S
N214 C216 1.334 . S
N214 C217 1.328 . S
C215 C216 1.391 . S
C215 N218 1.329 . S
C215 H236 0.930 . S
C216 N214 1.334 . S
C216 C215 1.391 . S
C216 H223 0.930 . S
C217 N214 1.328 . S
C217 C219 1.392 . S
C217 H224 0.930 . S
N218 C215 1.329 . S
N218 C219 1.331 . S
C219 C217 1.392 . S
C219 N218 1.331 . S
O220 Zn213 1.975 . S
O220 C221 1.252 . S
C221 O220 1.252 . S
C221 O222 1.252 . S
O222 Zn204 1.975 . S
O222 C221 1.252 . S
H223 C216 0.930 . S
H224 C217 0.930 . S
C225 C226 1.392 . S
C225 N229 1.328 . S
C225 H231 0.930 . S
C226 C225 1.392 . S
C226 N230 1.331 . S
C227 C228 1.391 . S
C227 N230 1.329 . S
C227 H237 0.930 . S
C228 C227 1.391 . S
C228 N229 1.334 . S
C228 H235 0.930 . S
N229 Zn213 2.119 . S
N229 C225 1.328 . S
N229 C228 1.334 . S
N230 C226 1.331 . S
N230 C227 1.329 . S
H231 C225 0.930 . S
C232 O212 1.257 . S
C232 O233 1.244 . S
O233 C232 1.244 . S
O234 C210 1.257 . S
O234 Zn213 2.019 . S
H235 C228 0.930 . S
H236 C215 0.930 . S
H237 C227 0.930 . S
Zn238 N242 2.020 . S
Zn238 O246 2.019 . S
Zn238 N248 2.119 . S
Zn238 O256 1.975 . S
C239 N240 1.334 . S
C239 N243 1.336 . S
N240 C239 1.334 . S
N240 C241 1.334 . S
C241 N240 1.334 . S
C241 N242 1.336 . S
N242 Zn238 2.020 . S
N242 C241 1.336 . S
N242 N243 1.354 . S
N243 C239 1.336 . S
N243 N242 1.354 . S
N243 Zn247 2.020 . S
C244 O245 1.244 . S
C244 O268 1.257 . S
O245 C244 1.244 . S
O246 Zn238 2.019 . S
O246 C266 1.257 . S
Zn247 N243 2.020 . S
Zn247 O254 1.975 . S
Zn247 N263 2.119 . S
Zn247 O268 2.019 . S
N248 Zn238 2.119 . S
N248 C250 1.334 . S
N248 C251 1.328 . S
C249 C250 1.391 . S
C249 N252 1.329 . S
C249 H270 0.930 . S
C250 N248 1.334 . S
C250 C249 1.391 . S
C250 H257 0.930 . S
C251 N248 1.328 . S
C251 C253 1.392 . S
C251 H258 0.930 . S
N252 C249 1.329 . S
N252 C253 1.331 . S
C253 C251 1.392 . S
C253 N252 1.331 . S
O254 Zn247 1.975 . S
O254 C255 1.252 . S
C255 O254 1.252 . S
C255 O256 1.252 . S
O256 Zn238 1.975 . S
O256 C255 1.252 . S
H257 C250 0.930 . S
H258 C251 0.930 . S
C259 C260 1.392 . S
C259 N263 1.328 . S
C259 H265 0.930 . S
C260 C259 1.392 . S
C260 N264 1.331 . S
C261 C262 1.391 . S
C261 N264 1.329 . S
C261 H271 0.930 . S
C262 C261 1.391 . S
C262 N263 1.334 . S
C262 H269 0.930 . S
N263 Zn247 2.119 . S
N263 C259 1.328 . S
N263 C262 1.334 . S
N264 C260 1.331 . S
N264 C261 1.329 . S
H265 C259 0.930 . S
C266 O246 1.257 . S
C266 O267 1.244 . S
O267 C266 1.244 . S
O268 C244 1.257 . S
O268 Zn247 2.019 . S
H269 C262 0.930 . S
H270 C249 0.930 . S
H271 C261 0.930 . S
Zn272 N276 2.020 . S
Zn272 O280 2.019 . S
Zn272 N282 2.119 . S
Zn272 O290 1.975 . S
C273 N274 1.334 . S
C273 N277 1.336 . S
N274 C273 1.334 . S
N274 C275 1.334 . S
C275 N274 1.334 . S
C275 N276 1.336 . S
N276 Zn272 2.020 . S
N276 C275 1.336 . S
N276 N277 1.354 . S
N277 C273 1.336 . S
N277 N276 1.354 . S
N277 Zn281 2.020 . S
C278 O279 1.244 . S
C278 O302 1.257 . S
O279 C278 1.244 . S
O280 Zn272 2.019 . S
O280 C300 1.257 . S
Zn281 N277 2.020 . S
Zn281 O288 1.975 . S
Zn281 N297 2.119 . S
Zn281 O302 2.019 . S
N282 Zn272 2.119 . S
N282 C284 1.334 . S
N282 C285 1.328 . S
C283 C284 1.391 . S
C283 N286 1.329 . S
C283 H304 0.930 . S
C284 N282 1.334 . S
C284 C283 1.391 . S
C284 H291 0.930 . S
C285 N282 1.328 . S
C285 C287 1.392 . S
C285 H292 0.930 . S
N286 C283 1.329 . S
N286 C287 1.331 . S
C287 C285 1.392 . S
C287 N286 1.331 . S
O288 Zn281 1.975 . S
O288 C289 1.252 . S
C289 O288 1.252 . S
C289 O290 1.252 . S
O290 Zn272 1.975 . S
O290 C289 1.252 . S
H291 C284 0.930 . S
H292 C285 0.930 . S
C293 C294 1.392 . S
C293 N297 1.328 . S
C293 H299 0.930 . S
C294 C293 1.392 . S
C294 N298 1.331 . S
C295 C296 1.391 . S
C295 N298 1.329 . S
C295 H305 0.930 . S
C296 C295 1.391 . S
C296 N297 1.334 . S
C296 H303 0.930 . S
N297 Zn281 2.119 . S
N297 C293 1.328 . S
N297 C296 1.334 . S
N298 C294 1.331 . S
N298 C295 1.329 . S
H299 C293 0.930 . S
C300 O280 1.257 . S
C300 O301 1.244 . S
O301 C300 1.244 . S
O302 C278 1.257 . S
O302 Zn281 2.019 . S
H303 C296 0.930 . S
H304 C283 0.930 . S
H305 C295 0.930 . S
Zn306 N310 2.020 . S
Zn306 O314 2.019 . S
Zn306 N316 2.119 . S
Zn306 O324 1.975 . S
C307 N308 1.334 . S
C307 N311 1.336 . S
N308 C307 1.334 . S
N308 C309 1.334 . S
C309 N308 1.334 . S
C309 N310 1.336 . S
N310 Zn306 2.020 . S
N310 C309 1.336 . S
N310 N311 1.354 . S
N311 C307 1.336 . S
N311 N310 1.354 . S
N311 Zn315 2.020 . S
C312 O313 1.244 . S
C312 O336 1.257 . S
O313 C312 1.244 . S
O314 Zn306 2.019 . S
O314 C334 1.257 . S
Zn315 N311 2.020 . S
Zn315 O322 1.975 . S
Zn315 N331 2.119 . S
Zn315 O336 2.019 . S
N316 Zn306 2.119 . S
N316 C318 1.334 . S
N316 C319 1.328 . S
C317 C318 1.391 . S
C317 N320 1.329 . S
C317 H338 0.930 . S
C318 N316 1.334 . S
C318 C317 1.391 . S
C318 H325 0.930 . S
C319 N316 1.328 . S
C319 C321 1.392 . S
C319 H326 0.930 . S
N320 C317 1.329 . S
N320 C321 1.331 . S
C321 C319 1.392 . S
C321 N320 1.331 . S
O322 Zn315 1.975 . S
O322 C323 1.252 . S
C323 O322 1.252 . S
C323 O324 1.252 . S
O324 Zn306 1.975 . S
O324 C323 1.252 . S
H325 C318 0.930 . S
H326 C319 0.930 . S
C327 C328 1.392 . S
C327 N331 1.328 . S
C327 H333 0.930 . S
C328 C327 1.392 . S
C328 N332 1.331 . S
C329 C330 1.391 . S
C329 N332 1.329 . S
C329 H339 0.930 . S
C330 C329 1.391 . S
C330 N331 1.334 . S
C330 H337 0.930 . S
N331 Zn315 2.119 . S
N331 C327 1.328 . S
N331 C330 1.334 . S
N332 C328 1.331 . S
N332 C329 1.329 . S
H333 C327 0.930 . S
C334 O314 1.257 . S
C334 O335 1.244 . S
O335 C334 1.244 . S
O336 C312 1.257 . S
O336 Zn315 2.019 . S
H337 C330 0.930 . S
H338 C317 0.930 . S
H339 C329 0.930 . S
Zn340 N344 2.020 . S
Zn340 O348 2.019 . S
Zn340 N350 2.119 . S
Zn340 O358 1.975 . S
C341 N342 1.334 . S
C341 N345 1.336 . S
N342 C341 1.334 . S
N342 C343 1.334 . S
C343 N342 1.334 . S
C343 N344 1.336 . S
N344 Zn340 2.020 . S
N344 C343 1.336 . S
N344 N345 1.354 . S
N345 C341 1.336 . S
N345 N344 1.354 . S
N345 Zn349 2.020 . S
C346 O347 1.244 . S
C346 O370 1.257 . S
O347 C346 1.244 . S
O348 Zn340 2.019 . S
O348 C368 1.257 . S
Zn349 N345 2.020 . S
Zn349 O356 1.975 . S
Zn349 N365 2.119 . S
Zn349 O370 2.019 . S
N350 Zn340 2.119 . S
N350 C352 1.334 . S
N350 C353 1.328 . S
C351 C352 1.391 . S
C351 N354 1.329 . S
C351 H372 0.930 . S
C352 N350 1.334 . S
C352 C351 1.391 . S
C352 H359 0.930 . S
C353 N350 1.328 . S
C353 C355 1.392 . S
C353 H360 0.930 . S
N354 C351 1.329 . S
N354 C355 1.331 . S
C355 C353 1.392 . S
C355 N354 1.331 . S
O356 Zn349 1.975 . S
O356 C357 1.252 . S
C357 O356 1.252 . S
C357 O358 1.252 . S
O358 Zn340 1.975 . S
O358 C357 1.252 . S
H359 C352 0.930 . S
H360 C353 0.930 . S
C361 C362 1.392 . S
C361 N365 1.328 . S
C361 H367 0.930 . S
C362 C361 1.392 . S
C362 N366 1.331 . S
C363 C364 1.391 . S
C363 N366 1.329 . S
C363 H373 0.930 . S
C364 C363 1.391 . S
C364 N365 1.334 . S
C364 H371 0.930 . S
N365 Zn349 2.119 . S
N365 C361 1.328 . S
N365 C364 1.334 . S
N366 C362 1.331 . S
N366 C363 1.329 . S
H367 C361 0.930 . S
C368 O348 1.257 . S
C368 O369 1.244 . S
O369 C368 1.244 . S
O370 C346 1.257 . S
O370 Zn349 2.019 . S
H371 C364 0.930 . S
H372 C351 0.930 . S
H373 C363 0.930 . S
Zn374 N378 2.020 . S
Zn374 O382 2.019 . S
Zn374 N384 2.119 . S
Zn374 O392 1.975 . S
C375 N376 1.334 . S
C375 N379 1.336 . S
N376 C375 1.334 . S
N376 C377 1.334 . S
C377 N376 1.334 . S
C377 N378 1.336 . S
N378 Zn374 2.020 . S
N378 C377 1.336 . S
N378 N379 1.354 . S
N379 C375 1.336 . S
N379 N378 1.354 . S
N379 Zn383 2.020 . S
C380 O381 1.244 . S
C380 O404 1.257 . S
O381 C380 1.244 . S
O382 Zn374 2.019 . S
O382 C402 1.257 . S
Zn383 N379 2.020 . S
Zn383 O390 1.975 . S
Zn383 N399 2.119 . S
Zn383 O404 2.019 . S
N384 Zn374 2.119 . S
N384 C386 1.334 . S
N384 C387 1.328 . S
C385 C386 1.391 . S
C385 N388 1.329 . S
C385 H406 0.930 . S
C386 N384 1.334 . S
C386 C385 1.391 . S
C386 H393 0.930 . S
C387 N384 1.328 . S
C387 C389 1.392 . S
C387 H394 0.930 . S
N388 C385 1.329 . S
N388 C389 1.331 . S
C389 C387 1.392 . S
C389 N388 1.331 . S
O390 Zn383 1.975 . S
O390 C391 1.252 . S
C391 O390 1.252 . S
C391 O392 1.252 . S
O392 Zn374 1.975 . S
O392 C391 1.252 . S
H393 C386 0.930 . S
H394 C387 0.930 . S
C395 C396 1.392 . S
C395 N399 1.328 . S
C395 H401 0.930 . S
C396 C395 1.392 . S
C396 N400 1.331 . S
C397 C398 1.391 . S
C397 N400 1.329 . S
C397 H407 0.930 . S
C398 C397 1.391 . S
C398 N399 1.334 . S
C398 H405 0.930 . S
N399 Zn383 2.119 . S
N399 C395 1.328 . S
N399 C398 1.334 . S
N400 C396 1.331 . S
N400 C397 1.329 . S
H401 C395 0.930 . S
C402 O382 1.257 . S
C402 O403 1.244 . S
O403 C402 1.244 . S
O404 C380 1.257 . S
O404 Zn383 2.019 . S
H405 C398 0.930 . S
H406 C385 0.930 . S
H407 C397 0.930 . S
Zn408 N412 2.020 . S
Zn408 O416 2.019 . S
Zn408 N418 2.119 . S
Zn408 O426 1.975 . S
C409 N410 1.334 . S
C409 N413 1.336 . S
N410 C409 1.334 . S
N410 C411 1.334 . S
C411 N410 1.334 . S
C411 N412 1.336 . S
N412 Zn408 2.020 . S
N412 C411 1.336 . S
N412 N413 1.354 . S
N413 C409 1.336 . S
N413 N412 1.354 . S
N413 Zn417 2.020 . S
C414 O415 1.244 . S
C414 O438 1.257 . S
O415 C414 1.244 . S
O416 Zn408 2.019 . S
O416 C436 1.257 . S
Zn417 N413 2.020 . S
Zn417 O424 1.975 . S
Zn417 N433 2.119 . S
Zn417 O438 2.019 . S
N418 Zn408 2.119 . S
N418 C420 1.334 . S
N418 C421 1.328 . S
C419 C420 1.391 . S
C419 N422 1.329 . S
C419 H440 0.930 . S
C420 N418 1.334 . S
C420 C419 1.391 . S
C420 H427 0.930 . S
C421 N418 1.328 . S
C421 C423 1.392 . S
C421 H428 0.930 . S
N422 C419 1.329 . S
N422 C423 1.331 . S
C423 C421 1.392 . S
C423 N422 1.331 . S
O424 Zn417 1.975 . S
O424 C425 1.252 . S
C425 O424 1.252 . S
C425 O426 1.252 . S
O426 Zn408 1.975 . S
O426 C425 1.252 . S
H427 C420 0.930 . S
H428 C421 0.930 . S
C429 C430 1.392 . S
C429 N433 1.328 . S
C429 H435 0.930 . S
C430 C429 1.392 . S
C430 N434 1.331 . S
C431 C432 1.391 . S
C431 N434 1.329 . S
C431 H441 0.930 . S
C432 C431 1.391 . S
C432 N433 1.334 . S
C432 H439 0.930 . S
N433 Zn417 2.119 . S
N433 C429 1.328 . S
N433 C432 1.334 . S
N434 C430 1.331 . S
N434 C431 1.329 . S
H435 C429 0.930 . S
C436 O416 1.257 . S
C436 O437 1.244 . S
O437 C436 1.244 . S
O438 C414 1.257 . S
O438 Zn417 2.019 . S
H439 C432 0.930 . S
H440 C419 0.930 . S
H441 C431 0.930 . S
Zn442 N446 2.020 . S
Zn442 O450 2.019 . S
Zn442 N452 2.119 . S
Zn442 O460 1.975 . S
C443 N444 1.334 . S
C443 N447 1.336 . S
N444 C443 1.334 . S
N444 C445 1.334 . S
C445 N444 1.334 . S
C445 N446 1.336 . S
N446 Zn442 2.020 . S
N446 C445 1.336 . S
N446 N447 1.354 . S
N447 C443 1.336 . S
N447 N446 1.354 . S
N447 Zn451 2.020 . S
C448 O449 1.244 . S
C448 O472 1.257 . S
O449 C448 1.244 . S
O450 Zn442 2.019 . S
O450 C470 1.257 . S
Zn451 N447 2.020 . S
Zn451 O458 1.975 . S
Zn451 N467 2.119 . S
Zn451 O472 2.019 . S
N452 Zn442 2.119 . S
N452 C454 1.334 . S
N452 C455 1.328 . S
C453 C454 1.391 . S
C453 N456 1.329 . S
C453 H474 0.930 . S
C454 N452 1.334 . S
C454 C453 1.391 . S
C454 H461 0.930 . S
C455 N452 1.328 . S
C455 C457 1.392 . S
C455 H462 0.930 . S
N456 C453 1.329 . S
N456 C457 1.331 . S
C457 C455 1.392 . S
C457 N456 1.331 . S
O458 Zn451 1.975 . S
O458 C459 1.252 . S
C459 O458 1.252 . S
C459 O460 1.252 . S
O460 Zn442 1.975 . S
O460 C459 1.252 . S
H461 C454 0.930 . S
H462 C455 0.930 . S
C463 C464 1.392 . S
C463 N467 1.328 . S
C463 H469 0.930 . S
C464 C463 1.392 . S
C464 N468 1.331 . S
C465 C466 1.391 . S
C465 N468 1.329 . S
C465 H475 0.930 . S
C466 C465 1.391 . S
C466 N467 1.334 . S
C466 H473 0.930 . S
N467 Zn451 2.119 . S
N467 C463 1.328 . S
N467 C466 1.334 . S
N468 C464 1.331 . S
N468 C465 1.329 . S
H469 C463 0.930 . S
C470 O450 1.257 . S
C470 O471 1.244 . S
O471 C470 1.244 . S
O472 C448 1.257 . S
O472 Zn451 2.019 . S
H473 C466 0.930 . S
H474 C453 0.930 . S
H475 C465 0.930 . S
Zn476 N480 2.020 . S
Zn476 O484 2.019 . S
Zn476 N486 2.119 . S
Zn476 O494 1.975 . S
C477 N478 1.334 . S
C477 N481 1.336 . S
N478 C477 1.334 . S
N478 C479 1.334 . S
C479 N478 1.334 . S
C479 N480 1.336 . S
N480 Zn476 2.020 . S
N480 C479 1.336 . S
N480 N481 1.354 . S
N481 C477 1.336 . S
N481 N480 1.354 . S
N481 Zn485 2.020 . S
C482 O483 1.244 . S
C482 O506 1.257 . S
O483 C482 1.244 . S
O484 Zn476 2.019 . S
O484 C504 1.257 . S
Zn485 N481 2.020 . S
Zn485 O492 1.975 . S
Zn485 N501 2.119 . S
Zn485 O506 2.019 . S
N486 Zn476 2.119 . S
N486 C488 1.334 . S
N486 C489 1.328 . S
C487 C488 1.391 . S
C487 N490 1.329 . S
C487 H508 0.930 . S
C488 N486 1.334 . S
C488 C487 1.391 . S
C488 H495 0.930 . S
C489 N486 1.328 . S
C489 C491 1.392 . S
C489 H496 0.930 . S
N490 C487 1.329 . S
N490 C491 1.331 . S
C491 C489 1.392 . S
C491 N490 1.331 . S
O492 Zn485 1.975 . S
O492 C493 1.252 . S
C493 O492 1.252 . S
C493 O494 1.252 . S
O494 Zn476 1.975 . S
O494 C493 1.252 . S
H495 C488 0.930 . S
H496 C489 0.930 . S
C497 C498 1.392 . S
C497 N501 1.328 . S
C497 H503 0.930 . S
C498 C497 1.392 . S
C498 N502 1.331 . S
C499 C500 1.391 . S
C499 N502 1.329 . S
C499 H509 0.930 . S
C500 C499 1.391 . S
C500 N501 1.334 . S
C500 H507 0.930 . S
N501 Zn485 2.119 . S
N501 C497 1.328 . S
N501 C500 1.334 . S
N502 C498 1.331 . S
N502 C499 1.329 . S
H503 C497 0.930 . S
C504 O484 1.257 . S
C504 O505 1.244 . S
O505 C504 1.244 . S
O506 C482 1.257 . S
O506 Zn485 2.019 . S
H507 C500 0.930 . S
H508 C487 0.930 . S
H509 C499 0.930 . S
Zn510 N514 2.020 . S
Zn510 O518 2.019 . S
Zn510 N520 2.119 . S
Zn510 O528 1.975 . S
C511 N512 1.334 . S
C511 N515 1.336 . S
N512 C511 1.334 . S
N512 C513 1.334 . S
C513 N512 1.334 . S
C513 N514 1.336 . S
N514 Zn510 2.020 . S
N514 C513 1.336 . S
N514 N515 1.354 . S
N515 C511 1.336 . S
N515 N514 1.354 . S
N515 Zn519 2.020 . S
C516 O517 1.244 . S
C516 O540 1.257 . S
O517 C516 1.244 . S
O518 Zn510 2.019 . S
O518 C538 1.257 . S
Zn519 N515 2.020 . S
Zn519 O526 1.975 . S
Zn519 N535 2.119 . S
Zn519 O540 2.019 . S
N520 Zn510 2.119 . S
N520 C522 1.334 . S
N520 C523 1.328 . S
C521 C522 1.391 . S
C521 N524 1.329 . S
C521 H542 0.930 . S
C522 N520 1.334 . S
C522 C521 1.391 . S
C522 H529 0.930 . S
C523 N520 1.328 . S
C523 C525 1.392 . S
C523 H530 0.930 . S
N524 C521 1.329 . S
N524 C525 1.331 . S
C525 C523 1.392 . S
C525 N524 1.331 . S
O526 Zn519 1.975 . S
O526 C527 1.252 . S
C527 O526 1.252 . S
C527 O528 1.252 . S
O528 Zn510 1.975 . S
O528 C527 1.252 . S
H529 C522 0.930 . S
H530 C523 0.930 . S
C531 C532 1.392 . S
C531 N535 1.328 . S
C531 H537 0.930 . S
C532 C531 1.392 . S
C532 N536 1.331 . S
C533 C534 1.391 . S
C533 N536 1.329 . S
C533 H543 0.930 . S
C534 C533 1.391 . S
C534 N535 1.334 . S
C534 H541 0.930 . S
N535 Zn519 2.119 . S
N535 C531 1.328 . S
N535 C534 1.334 . S
N536 C532 1.331 . S
N536 C533 1.329 . S
H537 C531 0.930 . S
C538 O518 1.257 . S
C538 O539 1.244 . S
O539 C538 1.244 . S
O540 C516 1.257 . S
O540 Zn519 2.019 . S
H541 C534 0.930 . S
H542 C521 0.930 . S
H543 C533 0.930 . S
H544 C550 0.930 . S
H545 C553 0.930 . S
H546 C554 0.931 . S
H547 C555 0.930 . S
H548 C558 0.930 . S
H549 C559 0.930 . S
C550 H544 0.930 . S
C550 C551 1.355 1_554 S
C550 C552 1.415 . S
C551 C550 1.355 1_556 S
C551 C553 1.419 . S
C552 C550 1.415 . S
C552 C557 1.425 . S
C552 C559 1.409 . S
C553 H545 0.930 . S
C553 C551 1.419 . S
C553 C554 1.362 1_556 S
C554 H546 0.931 . S
C554 C553 1.362 1_554 S
C554 C557 1.409 . S
C555 H547 0.930 . S
C555 C556 1.355 . S
C555 C557 1.415 . S
C556 C555 1.355 . S
C556 C558 1.419 . S
C557 C552 1.425 . S
C557 C554 1.409 . S
C557 C555 1.415 . S
C558 H548 0.930 . S
C558 C556 1.419 . S
C558 C559 1.362 . S
C559 H549 0.930 . S
C559 C552 1.409 . S
C559 C558 1.362 . S
H560 C566 0.930 . S
H561 C569 0.930 . S
H562 C570 0.930 . S
H563 C571 0.930 . S
H564 C574 0.930 . S
H565 C575 0.930 . S
C566 H560 0.930 . S
C566 C567 1.355 . S
C566 C568 1.415 . S
C567 C566 1.355 . S
C567 C569 1.419 . S
C568 C566 1.415 . S
C568 C573 1.425 . S
C568 C575 1.409 . S
C569 H561 0.930 . S
C569 C567 1.419 . S
C569 C570 1.362 . S
C570 H562 0.930 . S
C570 C569 1.362 . S
C570 C573 1.409 . S
C571 H563 0.930 . S
C571 C572 1.355 . S
C571 C573 1.415 . S
C572 C571 1.355 . S
C572 C574 1.419 . S
C573 C568 1.425 . S
C573 C570 1.409 . S
C573 C571 1.415 . S
C574 H564 0.930 . S
C574 C572 1.419 . S
C574 C575 1.362 . S
C575 H565 0.930 . S
C575 C568 1.409 . S
C575 C574 1.362 . S
H576 C582 0.930 . S
H577 C585 0.930 . S
H578 C586 0.930 . S
H579 C587 0.930 . S
H580 C590 0.930 . S
H581 C591 0.930 . S
C582 H576 0.930 . S
C582 C583 1.355 1_556 S
C582 C584 1.415 . S
C583 C582 1.355 1_554 S
C583 C585 1.419 . S
C584 C582 1.415 . S
C584 C589 1.425 . S
C584 C591 1.409 . S
C585 H577 0.930 . S
C585 C583 1.419 . S
C585 C586 1.362 1_554 S
C586 H578 0.930 . S
C586 C585 1.362 1_556 S
C586 C589 1.409 . S
C587 H579 0.930 . S
C587 C588 1.355 . S
C587 C589 1.415 . S
C588 C587 1.355 . S
C588 C590 1.419 . S
C589 C584 1.425 . S
C589 C586 1.409 . S
C589 C587 1.415 . S
C590 H580 0.930 . S
C590 C588 1.419 . S
C590 C591 1.362 . S
C591 H581 0.930 . S
C591 C584 1.409 . S
C591 C590 1.362 . S
H592 C598 0.930 . S
H593 C601 0.930 . S
H594 C602 0.930 . S
H595 C603 0.930 . S
H596 C606 0.930 . S
H597 C607 0.930 . S
C598 H592 0.930 . S
C598 C599 1.355 . S
C598 C600 1.415 . S
C599 C598 1.355 . S
C599 C601 1.419 . S
C600 C598 1.415 . S
C600 C605 1.425 . S
C600 C607 1.409 . S
C601 H593 0.930 . S
C601 C599 1.419 . S
C601 C602 1.362 . S
C602 H594 0.930 . S
C602 C601 1.362 . S
C602 C605 1.409 . S
C603 H595 0.930 . S
C603 C604 1.355 . S
C603 C605 1.415 . S
C604 C603 1.355 . S
C604 C606 1.419 . S
C605 C600 1.425 . S
C605 C602 1.409 . S
C605 C603 1.415 . S
C606 H596 0.930 . S
C606 C604 1.419 . S
C606 C607 1.362 . S
C607 H597 0.930 . S
C607 C600 1.409 . S
C607 C606 1.362 . S
H608 C614 0.930 . S
H609 C617 0.930 . S
H610 C618 0.930 . S
H611 C619 0.937 . S
H612 C622 0.930 . S
H613 C623 0.930 . S
C614 H608 0.930 . S
C614 C615 1.355 . S
C614 C616 1.415 . S
C615 C614 1.355 . S
C615 C617 1.419 . S
C616 C614 1.415 . S
C616 C621 1.425 . S
C616 C623 1.409 . S
C617 H609 0.930 . S
C617 C615 1.419 . S
C617 C618 1.362 . S
C618 H610 0.930 . S
C618 C617 1.362 . S
C618 C621 1.409 . S
C619 H611 0.937 . S
C619 C620 1.366 . S
C619 C621 1.396 1_554 S
C620 C619 1.366 . S
C620 C622 1.419 . S
C621 C616 1.425 . S
C621 C618 1.409 . S
C621 C619 1.396 1_556 S
C622 H612 0.930 . S
C622 C620 1.419 . S
C622 C623 1.362 1_554 S
C623 H613 0.930 . S
C623 C616 1.409 . S
C623 C622 1.362 1_556 S
H624 C630 0.930 . S
H625 C633 0.930 . S
H626 C634 0.930 . S
H627 C635 0.930 . S
H628 C638 0.930 . S
H629 C639 0.930 . S
C630 H624 0.930 . S
C630 C631 1.355 . S
C630 C632 1.415 . S
C631 C630 1.355 . S
C631 C633 1.419 . S
C632 C630 1.415 . S
C632 C637 1.425 . S
C632 C639 1.409 . S
C633 H625 0.930 . S
C633 C631 1.419 . S
C633 C634 1.362 . S
C634 H626 0.930 . S
C634 C633 1.362 . S
C634 C637 1.409 . S
C635 H627 0.930 . S
C635 C636 1.355 . S
C635 C637 1.415 . S
C636 C635 1.355 . S
C636 C638 1.419 . S
C637 C632 1.425 . S
C637 C634 1.409 . S
C637 C635 1.415 . S
C638 H628 0.930 . S
C638 C636 1.419 . S
C638 C639 1.362 . S
C639 H629 0.930 . S
C639 C632 1.409 . S
C639 C638 1.362 . S
H640 C646 0.930 . S
H641 C649 0.930 . S
H642 C650 0.930 . S
H643 C651 0.930 1_556 S
H644 C654 0.930 . S
H645 C655 0.930 . S
C646 H640 0.930 . S
C646 C647 1.355 . S
C646 C648 1.415 . S
C647 C646 1.355 . S
C647 C649 1.419 . S
C648 C646 1.415 . S
C648 C653 1.425 . S
C648 C655 1.409 . S
C649 H641 0.930 . S
C649 C647 1.419 . S
C649 C650 1.362 . S
C650 H642 0.930 . S
C650 C649 1.362 . S
C650 C653 1.409 . S
C651 H643 0.930 1_554 S
C651 C652 1.355 1_554 S
C651 C653 1.415 . S
C652 C651 1.355 1_556 S
C652 C654 1.419 . S
C653 C648 1.425 . S
C653 C650 1.409 . S
C653 C651 1.415 . S
C654 H644 0.930 . S
C654 C652 1.419 . S
C654 C655 1.362 1_556 S
C655 H645 0.930 . S
C655 C648 1.409 . S
C655 C654 1.362 1_554 S
H656 C662 0.930 . S
H657 C665 0.930 . S
H658 C666 0.930 . S
H659 C667 0.930 . S
H660 C670 0.930 . S
H661 C671 0.930 . S
C662 H656 0.930 . S
C662 C663 1.355 . S
C662 C664 1.415 . S
C663 C662 1.355 . S
C663 C665 1.419 . S
C664 C662 1.415 . S
C664 C669 1.425 . S
C664 C671 1.409 . S
C665 H657 0.930 . S
C665 C663 1.419 . S
C665 C666 1.362 . S
C666 H658 0.930 . S
C666 C665 1.362 . S
C666 C669 1.409 . S
C667 H659 0.930 . S
C667 C668 1.355 . S
C667 C669 1.415 . S
C668 C667 1.355 . S
C668 C670 1.419 . S
C669 C664 1.425 . S
C669 C666 1.409 . S
C669 C667 1.415 . S
C670 H660 0.930 . S
C670 C668 1.419 . S
C670 C671 1.362 . S
C671 H661 0.930 . S
C671 C664 1.409 . S
C671 C670 1.362 . S
H672 C678 0.930 . S
H673 C681 0.930 . S
H674 C682 0.930 . S
H675 C683 0.930 . S
H676 C686 0.930 1_556 S
H677 C687 0.930 . S
C678 H672 0.930 . S
C678 C679 1.355 . S
C678 C680 1.415 . S
C679 C678 1.355 . S
C679 C681 1.419 . S
C680 C678 1.415 . S
C680 C685 1.425 . S
C680 C687 1.409 . S
C681 H673 0.930 . S
C681 C679 1.419 . S
C681 C682 1.362 . S
C682 H674 0.930 . S
C682 C681 1.362 . S
C682 C685 1.409 . S
C683 H675 0.930 . S
C683 C684 1.355 . S
C683 C685 1.415 1_556 S
C684 C683 1.355 . S
C684 C686 1.419 1_556 S
C685 C680 1.425 . S
C685 C682 1.409 . S
C685 C683 1.415 1_554 S
C686 H676 0.930 1_554 S
C686 C684 1.419 1_554 S
C686 C687 1.362 . S
C687 H677 0.930 . S
C687 C680 1.409 . S
C687 C686 1.362 . S
H688 C694 0.930 . S
H689 C697 0.930 . S
H690 C698 0.930 . S
H691 C699 0.930 . S
H692 C702 0.930 . S
H693 C703 0.930 . S
C694 H688 0.930 . S
C694 C695 1.355 . S
C694 C696 1.415 . S
C695 C694 1.355 . S
C695 C697 1.419 . S
C696 C694 1.415 . S
C696 C701 1.425 . S
C696 C703 1.409 . S
C697 H689 0.930 . S
C697 C695 1.419 . S
C697 C698 1.362 . S
C698 H690 0.930 . S
C698 C697 1.362 . S
C698 C701 1.409 . S
C699 H691 0.930 . S
C699 C700 1.355 . S
C699 C701 1.415 . S
C700 C699 1.355 . S
C700 C702 1.419 . S
C701 C696 1.425 . S
C701 C698 1.409 . S
C701 C699 1.415 . S
C702 H692 0.930 . S
C702 C700 1.419 . S
C702 C703 1.362 . S
C703 H693 0.930 . S
C703 C696 1.409 . S
C703 C702 1.362 . S
H704 C710 0.930 . S
H705 C713 0.930 . S
H706 C714 0.930 . S
H707 C715 0.936 . S
H708 C718 0.930 . S
H709 C719 0.930 . S
C710 H704 0.930 . S
C710 C711 1.355 . S
C710 C712 1.415 . S
C711 C710 1.355 . S
C711 C713 1.419 . S
C712 C710 1.415 . S
C712 C717 1.425 . S
C712 C719 1.409 . S
C713 H705 0.930 . S
C713 C711 1.419 . S
C713 C714 1.362 . S
C714 H706 0.930 . S
C714 C713 1.362 . S
C714 C717 1.409 . S
C715 H707 0.936 . S
C715 C716 1.363 . S
C715 C717 1.400 1_554 S
C716 C715 1.363 . S
C716 C718 1.419 . S
C717 C712 1.425 . S
C717 C714 1.409 . S
C717 C715 1.400 1_556 S
C718 H708 0.930 . S
C718 C716 1.419 . S
C718 C719 1.362 1_554 S
C719 H709 0.930 . S
C719 C712 1.409 . S
C719 C718 1.362 1_556 S
H720 C726 0.930 . S
H721 C729 0.930 . S
H722 C730 0.930 . S
H723 C731 0.930 . S
H724 C734 0.930 . S
H725 C735 0.930 . S
C726 H720 0.930 . S
C726 C727 1.355 . S
C726 C728 1.415 . S
C727 C726 1.355 . S
C727 C729 1.419 . S
C728 C726 1.415 . S
C728 C733 1.425 . S
C728 C735 1.409 . S
C729 H721 0.930 . S
C729 C727 1.419 . S
C729 C730 1.362 . S
C730 H722 0.930 . S
C730 C729 1.362 . S
C730 C733 1.409 . S
C731 H723 0.930 . S
C731 C732 1.355 . S
C731 C733 1.415 . S
C732 C731 1.355 . S
C732 C734 1.419 . S
C733 C728 1.425 . S
C733 C730 1.409 . S
C733 C731 1.415 . S
C734 H724 0.930 . S
C734 C732 1.419 . S
C734 C735 1.362 . S
C735 H725 0.930 . S
C735 C728 1.409 . S
C735 C734 1.362 . S
H736 C742 0.934 . S
H737 C745 0.930 . S
H738 C746 0.930 . S
H739 C747 0.930 . S
H740 C750 0.930 . S
H741 C751 0.930 . S
C742 H736 0.934 . S
C742 C743 1.362 . S
C742 C744 1.403 1_554 S
C743 C742 1.362 . S
C743 C745 1.419 . S
C744 C742 1.403 1_556 S
C744 C749 1.425 . S
C744 C751 1.409 . S
C745 H737 0.930 . S
C745 C743 1.419 . S
C745 C746 1.362 1_554 S
C746 H738 0.930 . S
C746 C745 1.362 1_556 S
C746 C749 1.409 . S
C747 H739 0.930 . S
C747 C748 1.355 . S
C747 C749 1.415 . S
C748 C747 1.355 . S
C748 C750 1.419 . S
C749 C744 1.425 . S
C749 C746 1.409 . S
C749 C747 1.415 . S
C750 H740 0.930 . S
C750 C748 1.419 . S
C750 C751 1.362 . S
C751 H741 0.930 . S
C751 C744 1.409 . S
C751 C750 1.362 . S
H752 C758 0.930 . S
H753 C761 0.930 . S
H754 C762 0.930 . S
H755 C763 0.930 . S
H756 C766 0.930 . S
H757 C767 0.930 . S
C758 H752 0.930 . S
C758 C759 1.355 . S
C758 C760 1.415 . S
C759 C758 1.355 . S
C759 C761 1.419 . S
C760 C758 1.415 . S
C760 C765 1.425 . S
C760 C767 1.409 . S
C761 H753 0.930 . S
C761 C759 1.419 . S
C761 C762 1.362 . S
C762 H754 0.930 . S
C762 C761 1.362 . S
C762 C765 1.409 . S
C763 H755 0.930 . S
C763 C764 1.355 . S
C763 C765 1.415 . S
C764 C763 1.355 . S
C764 C766 1.419 . S
C765 C760 1.425 . S
C765 C762 1.409 . S
C765 C763 1.415 . S
C766 H756 0.930 . S
C766 C764 1.419 . S
C766 C767 1.362 . S
C767 H757 0.930 . S
C767 C760 1.409 . S
C767 C766 1.362 . S
H768 C774 0.930 . S
H769 C777 0.930 . S
H770 C778 0.930 . S
H771 C779 0.930 . S
H772 C782 0.930 . S
H773 C783 0.930 . S
C774 H768 0.930 . S
C774 C775 1.355 . S
C774 C776 1.415 1_556 S
C775 C774 1.355 . S
C775 C777 1.419 . S
C776 C774 1.415 1_554 S
C776 C781 1.425 . S
C776 C783 1.409 . S
C777 H769 0.930 . S
C777 C775 1.419 . S
C777 C778 1.362 1_556 S
C778 H770 0.930 . S
C778 C777 1.362 1_554 S
C778 C781 1.409 . S
C779 H771 0.930 . S
C779 C780 1.355 . S
C779 C781 1.415 . S
C780 C779 1.355 . S
C780 C782 1.419 . S
C781 C776 1.425 . S
C781 C778 1.409 . S
C781 C779 1.415 . S
C782 H772 0.930 . S
C782 C780 1.419 . S
C782 C783 1.362 . S
C783 H773 0.930 . S
C783 C776 1.409 . S
C783 C782 1.362 . S
H784 C790 0.930 . S
H785 C793 0.930 . S
H786 C794 0.930 . S
H787 C795 0.930 . S
H788 C798 0.930 . S
H789 C799 0.930 . S
C790 H784 0.930 . S
C790 C791 1.355 . S
C790 C792 1.415 . S
C791 C790 1.355 . S
C791 C793 1.419 . S
C792 C790 1.415 . S
C792 C797 1.425 . S
C792 C799 1.409 . S
C793 H785 0.930 . S
C793 C791 1.419 . S
C793 C794 1.362 . S
C794 H786 0.930 . S
C794 C793 1.362 . S
C794 C797 1.409 . S
C795 H787 0.930 . S
C795 C796 1.355 . S
C795 C797 1.415 . S
C796 C795 1.355 . S
C796 C798 1.419 . S
C797 C792 1.425 . S
C797 C794 1.409 . S
C797 C795 1.415 . S
C798 H788 0.930 . S
C798 C796 1.419 . S
C798 C799 1.362 . S
C799 H789 0.930 . S
C799 C792 1.409 . S
C799 C798 1.362 . S
H800 C806 0.930 . S
H801 C809 0.930 . S
H802 C810 0.930 . S
H803 C811 0.930 . S
H804 C814 0.930 . S
H805 C815 0.930 . S
C806 H800 0.930 . S
C806 C807 1.355 . S
C806 C808 1.415 . S
C807 C806 1.355 . S
C807 C809 1.419 . S
C808 C806 1.415 . S
C808 C813 1.425 1_455 S
C808 C815 1.409 1_455 S
C809 H801 0.930 . S
C809 C807 1.419 . S
C809 C810 1.362 . S
C810 H802 0.930 . S
C810 C809 1.362 . S
C810 C813 1.409 1_455 S
C811 H803 0.930 . S
C811 C812 1.355 . S
C811 C813 1.415 . S
C812 C811 1.355 . S
C812 C814 1.419 . S
C813 C808 1.425 1_655 S
C813 C810 1.409 1_655 S
C813 C811 1.415 . S
C814 H804 0.930 . S
C814 C812 1.419 . S
C814 C815 1.362 . S
C815 H805 0.930 . S
C815 C808 1.409 1_655 S
C815 C814 1.362 . S
H816 C822 0.930 . S
H817 C825 0.930 . S
H818 C826 0.930 . S
H819 C827 0.930 . S
H820 C830 0.930 . S
H821 C831 0.930 . S
C822 H816 0.930 . S
C822 C823 1.355 . S
C822 C824 1.415 . S
C823 C822 1.355 . S
C823 C825 1.419 . S
C824 C822 1.415 . S
C824 C829 1.425 . S
C824 C831 1.409 . S
C825 H817 0.930 . S
C825 C823 1.419 . S
C825 C826 1.362 . S
C826 H818 0.930 . S
C826 C825 1.362 . S
C826 C829 1.409 . S
C827 H819 0.930 . S
C827 C828 1.355 . S
C827 C829 1.415 . S
C828 C827 1.355 . S
C828 C830 1.419 . S
C829 C824 1.425 . S
C829 C826 1.409 . S
C829 C827 1.415 . S
C830 H820 0.930 . S
C830 C828 1.419 . S
C830 C831 1.362 . S
C831 H821 0.930 . S
C831 C824 1.409 . S
C831 C830 1.362 . S
H832 C838 0.930 . S
H833 C841 0.930 . S
H834 C842 0.930 . S
H835 C843 0.930 . S
H836 C846 0.930 . S
H837 C847 0.930 . S
C838 H832 0.930 . S
C838 C839 1.355 . S
C838 C840 1.415 . S
C839 C838 1.355 . S
C839 C841 1.419 . S
C840 C838 1.415 . S
C840 C845 1.425 1_655 S
C840 C847 1.409 1_655 S
C841 H833 0.930 . S
C841 C839 1.419 . S
C841 C842 1.362 . S
C842 H834 0.930 . S
C842 C841 1.362 . S
C842 C845 1.409 1_655 S
C843 H835 0.930 . S
C843 C844 1.355 . S
C843 C845 1.415 . S
C844 C843 1.355 . S
C844 C846 1.419 . S
C845 C840 1.425 1_455 S
C845 C842 1.409 1_455 S
C845 C843 1.415 . S
C846 H836 0.930 . S
C846 C844 1.419 . S
C846 C847 1.362 . S
C847 H837 0.930 . S
C847 C840 1.409 1_455 S
C847 C846 1.362 . S
H848 C854 0.930 . S
H849 C857 0.930 . S
H850 C858 0.930 . S
H851 C859 0.930 . S
H852 C862 0.930 . S
H853 C863 0.930 . S
C854 H848 0.930 . S
C854 C855 1.355 . S
C854 C856 1.415 . S
C855 C854 1.355 . S
C855 C857 1.419 . S
C856 C854 1.415 . S
C856 C861 1.425 . S
C856 C863 1.409 . S
C857 H849 0.930 . S
C857 C855 1.419 . S
C857 C858 1.362 . S
C858 H850 0.930 . S
C858 C857 1.362 . S
C858 C861 1.409 . S
C859 H851 0.930 . S
C859 C860 1.355 . S
C859 C861 1.415 . S
C860 C859 1.355 . S
C860 C862 1.419 . S
C861 C856 1.425 . S
C861 C858 1.409 . S
C861 C859 1.415 . S
C862 H852 0.930 . S
C862 C860 1.419 . S
C862 C863 1.362 . S
C863 H853 0.930 . S
C863 C856 1.409 . S
C863 C862 1.362 . S
H864 C870 0.930 . S
H865 C873 0.930 . S
H866 C874 0.930 . S
H867 C875 0.930 . S
H868 C878 0.930 . S
H869 C879 0.930 . S
C870 H864 0.930 . S
C870 C871 1.355 . S
C870 C872 1.415 . S
C871 C870 1.355 . S
C871 C873 1.419 . S
C872 C870 1.415 . S
C872 C877 1.425 . S
C872 C879 1.409 . S
C873 H865 0.930 . S
C873 C871 1.419 . S
C873 C874 1.362 . S
C874 H866 0.930 . S
C874 C873 1.362 . S
C874 C877 1.409 . S
C875 H867 0.930 . S
C875 C876 1.355 . S
C875 C877 1.415 . S
C876 C875 1.355 . S
C876 C878 1.419 . S
C877 C872 1.425 . S
C877 C874 1.409 . S
C877 C875 1.415 . S
C878 H868 0.930 . S
C878 C876 1.419 . S
C878 C879 1.362 . S
C879 H869 0.930 . S
C879 C872 1.409 . S
C879 C878 1.362 . S
H880 C886 0.930 . S
H881 C889 0.930 . S
H882 C890 0.930 . S
H883 C891 0.930 . S
H884 C894 0.930 . S
H885 C895 0.930 . S
C886 H880 0.930 . S
C886 C887 1.355 . S
C886 C888 1.415 . S
C887 C886 1.355 . S
C887 C889 1.419 . S
C888 C886 1.415 . S
C888 C893 1.425 1_655 S
C888 C895 1.409 1_655 S
C889 H881 0.930 . S
C889 C887 1.419 . S
C889 C890 1.362 . S
C890 H882 0.930 . S
C890 C889 1.362 . S
C890 C893 1.409 1_655 S
C891 H883 0.930 . S
C891 C892 1.355 . S
C891 C893 1.415 . S
C892 C891 1.355 . S
C892 C894 1.419 . S
C893 C888 1.425 1_455 S
C893 C890 1.409 1_455 S
C893 C891 1.415 . S
C894 H884 0.930 . S
C894 C892 1.419 . S
C894 C895 1.362 . S
C895 H885 0.930 . S
C895 C888 1.409 1_455 S
C895 C894 1.362 . S
H896 C902 0.930 . S
H897 C905 0.930 . S
H898 C906 0.930 . S
H899 C907 0.930 . S
H900 C910 0.930 . S
H901 C911 0.930 . S
C902 H896 0.930 . S
C902 C903 1.355 . S
C902 C904 1.415 . S
C903 C902 1.355 . S
C903 C905 1.419 . S
C904 C902 1.415 . S
C904 C909 1.425 . S
C904 C911 1.409 . S
C905 H897 0.930 . S
C905 C903 1.419 . S
C905 C906 1.362 . S
C906 H898 0.930 . S
C906 C905 1.362 . S
C906 C909 1.409 . S
C907 H899 0.930 . S
C907 C908 1.355 . S
C907 C909 1.415 . S
C908 C907 1.355 . S
C908 C910 1.419 . S
C909 C904 1.425 . S
C909 C906 1.409 . S
C909 C907 1.415 . S
C910 H900 0.930 . S
C910 C908 1.419 . S
C910 C911 1.362 . S
C911 H901 0.930 . S
C911 C904 1.409 . S
C911 C910 1.362 . S
H912 C918 0.930 . S
H913 C921 0.930 . S
H914 C922 0.930 . S
H915 C923 0.930 . S
H916 C926 0.930 . S
H917 C927 0.930 . S
C918 H912 0.930 . S
C918 C919 1.355 . S
C918 C920 1.415 . S
C919 C918 1.355 . S
C919 C921 1.419 . S
C920 C918 1.415 . S
C920 C925 1.425 1_655 S
C920 C927 1.409 1_655 S
C921 H913 0.930 . S
C921 C919 1.419 . S
C921 C922 1.362 . S
C922 H914 0.930 . S
C922 C921 1.362 . S
C922 C925 1.409 1_655 S
C923 H915 0.930 . S
C923 C924 1.355 . S
C923 C925 1.415 . S
C924 C923 1.355 . S
C924 C926 1.419 . S
C925 C920 1.425 1_455 S
C925 C922 1.409 1_455 S
C925 C923 1.415 . S
C926 H916 0.930 . S
C926 C924 1.419 . S
C926 C927 1.362 . S
C927 H917 0.930 . S
C927 C920 1.409 1_455 S
C927 C926 1.362 . S
H928 C934 0.930 . S
H929 C937 0.930 . S
H930 C938 0.930 . S
H931 C939 0.930 . S
H932 C942 0.930 . S
H933 C943 0.930 . S
C934 H928 0.930 . S
C934 C935 1.355 . S
C934 C936 1.415 . S
C935 C934 1.355 . S
C935 C937 1.419 . S
C936 C934 1.415 . S
C936 C941 1.425 . S
C936 C943 1.409 . S
C937 H929 0.930 . S
C937 C935 1.419 . S
C937 C938 1.362 . S
C938 H930 0.930 . S
C938 C937 1.362 . S
C938 C941 1.409 . S
C939 H931 0.930 . S
C939 C940 1.355 . S
C939 C941 1.415 . S
C940 C939 1.355 . S
C940 C942 1.419 . S
C941 C936 1.425 . S
C941 C938 1.409 . S
C941 C939 1.415 . S
C942 H932 0.930 . S
C942 C940 1.419 . S
C942 C943 1.362 . S
C943 H933 0.930 . S
C943 C936 1.409 . S
C943 C942 1.362 . S
H944 C950 0.930 . S
H945 C953 0.930 . S
H946 C954 0.930 . S
H947 C955 0.930 . S
H948 C958 0.930 . S
H949 C959 0.930 . S
C950 H944 0.930 . S
C950 C951 1.355 . S
C950 C952 1.415 . S
C951 C950 1.355 . S
C951 C953 1.419 . S
C952 C950 1.415 . S
C952 C957 1.425 . S
C952 C959 1.409 . S
C953 H945 0.930 . S
C953 C951 1.419 . S
C953 C954 1.362 . S
C954 H946 0.930 . S
C954 C953 1.362 . S
C954 C957 1.409 . S
C955 H947 0.930 . S
C955 C956 1.355 . S
C955 C957 1.415 . S
C956 C955 1.355 . S
C956 C958 1.419 . S
C957 C952 1.425 . S
C957 C954 1.409 . S
C957 C955 1.415 . S
C958 H948 0.930 . S
C958 C956 1.419 . S
C958 C959 1.362 . S
C959 H949 0.930 . S
C959 C952 1.409 . S
C959 C958 1.362 . S
H960 C966 0.930 . S
H961 C969 0.930 . S
H962 C970 0.930 . S
H963 C971 0.930 . S
H964 C974 0.930 . S
H965 C975 0.930 . S
C966 H960 0.930 . S
C966 C967 1.355 . S
C966 C968 1.415 . S
C967 C966 1.355 . S
C967 C969 1.419 . S
C968 C966 1.415 . S
C968 C973 1.425 . S
C968 C975 1.409 . S
C969 H961 0.930 . S
C969 C967 1.419 . S
C969 C970 1.362 . S
C970 H962 0.930 . S
C970 C969 1.362 . S
C970 C973 1.409 . S
C971 H963 0.930 . S
C971 C972 1.355 . S
C971 C973 1.415 . S
C972 C971 1.355 . S
C972 C974 1.419 . S
C973 C968 1.425 . S
C973 C970 1.409 . S
C973 C971 1.415 . S
C974 H964 0.930 . S
C974 C972 1.419 . S
C974 C975 1.362 . S
C975 H965 0.930 . S
C975 C968 1.409 . S
C975 C974 1.362 . S
H976 C982 0.930 . S
H977 C985 0.930 . S
H978 C986 0.930 . S
H979 C987 0.930 . S
H980 C990 0.930 . S
H981 C991 0.930 . S
C982 H976 0.930 . S
C982 C983 1.355 . S
C982 C984 1.415 . S
C983 C982 1.355 . S
C983 C985 1.419 . S
C984 C982 1.415 . S
C984 C989 1.425 . S
C984 C991 1.409 . S
C985 H977 0.930 . S
C985 C983 1.419 . S
C985 C986 1.362 . S
C986 H978 0.930 . S
C986 C985 1.362 . S
C986 C989 1.409 . S
C987 H979 0.930 . S
C987 C988 1.355 . S
C987 C989 1.415 . S
C988 C987 1.355 . S
C988 C990 1.419 . S
C989 C984 1.425 . S
C989 C986 1.409 . S
C989 C987 1.415 . S
C990 H980 0.930 . S
C990 C988 1.419 . S
C990 C991 1.362 . S
C991 H981 0.930 . S
C991 C984 1.409 . S
C991 C990 1.362 . S
H992 C998 0.930 . S
H993 C1001 0.930 . S
H994 C1002 0.930 . S
H995 C1003 0.930 . S
H996 C1006 0.930 . S
H997 C1007 0.930 . S
C998 H992 0.930 . S
C998 C999 1.355 . S
C998 C1000 1.415 . S
C999 C998 1.355 . S
C999 C1001 1.419 . S
C1000 C998 1.415 . S
C1000 C1005 1.425 . S
C1000 C1007 1.409 . S
C1001 H993 0.930 . S
C1001 C999 1.419 . S
C1001 C1002 1.362 . S
C1002 H994 0.930 . S
C1002 C1001 1.362 . S
C1002 C1005 1.409 . S
C1003 H995 0.930 . S
C1003 C1004 1.355 . S
C1003 C1005 1.415 . S
C1004 C1003 1.355 . S
C1004 C1006 1.419 . S
C1005 C1000 1.425 . S
C1005 C1002 1.409 . S
C1005 C1003 1.415 . S
C1006 H996 0.930 . S
C1006 C1004 1.419 . S
C1006 C1007 1.362 . S
C1007 H997 0.930 . S
C1007 C1000 1.409 . S
C1007 C1006 1.362 . S
H1008 C1014 0.930 . S
H1009 C1017 0.930 . S
H1010 C1018 0.930 . S
H1011 C1019 0.930 . S
H1012 C1022 0.930 . S
H1013 C1023 0.930 . S
C1014 H1008 0.930 . S
C1014 C1015 1.355 . S
C1014 C1016 1.415 . S
C1015 C1014 1.355 . S
C1015 C1017 1.419 . S
C1016 C1014 1.415 . S
C1016 C1021 1.425 . S
C1016 C1023 1.409 . S
C1017 H1009 0.930 . S
C1017 C1015 1.419 . S
C1017 C1018 1.362 . S
C1018 H1010 0.930 . S
C1018 C1017 1.362 . S
C1018 C1021 1.409 . S
C1019 H1011 0.930 . S
C1019 C1020 1.355 . S
C1019 C1021 1.415 . S
C1020 C1019 1.355 . S
C1020 C1022 1.419 . S
C1021 C1016 1.425 . S
C1021 C1018 1.409 . S
C1021 C1019 1.415 . S
C1022 H1012 0.930 . S
C1022 C1020 1.419 . S
C1022 C1023 1.362 . S
C1023 H1013 0.930 . S
C1023 C1016 1.409 . S
C1023 C1022 1.362 . S
H1024 C1030 0.930 . S
H1025 C1033 0.930 . S
H1026 C1034 0.930 . S
H1027 C1035 0.930 . S
H1028 C1038 0.930 . S
H1029 C1039 0.930 . S
C1030 H1024 0.930 . S
C1030 C1031 1.355 . S
C1030 C1032 1.415 . S
C1031 C1030 1.355 . S
C1031 C1033 1.419 . S
C1032 C1030 1.415 . S
C1032 C1037 1.425 . S
C1032 C1039 1.409 . S
C1033 H1025 0.930 . S
C1033 C1031 1.419 . S
C1033 C1034 1.362 . S
C1034 H1026 0.930 . S
C1034 C1033 1.362 . S
C1034 C1037 1.409 . S
C1035 H1027 0.930 . S
C1035 C1036 1.355 . S
C1035 C1037 1.415 . S
C1036 C1035 1.355 . S
C1036 C1038 1.419 . S
C1037 C1032 1.425 . S
C1037 C1034 1.409 . S
C1037 C1035 1.415 . S
C1038 H1028 0.930 . S
C1038 C1036 1.419 . S
C1038 C1039 1.362 . S
C1039 H1029 0.930 . S
C1039 C1032 1.409 . S
C1039 C1038 1.362 . S
H1040 C1046 0.930 . S
H1041 C1049 0.930 . S
H1042 C1050 0.930 . S
H1043 C1051 0.930 . S
H1044 C1054 0.930 . S
H1045 C1055 0.930 . S
C1046 H1040 0.930 . S
C1046 C1047 1.355 . S
C1046 C1048 1.415 . S
C1047 C1046 1.355 . S
C1047 C1049 1.419 . S
C1048 C1046 1.415 . S
C1048 C1053 1.425 . S
C1048 C1055 1.409 . S
C1049 H1041 0.930 . S
C1049 C1047 1.419 . S
C1049 C1050 1.362 . S
C1050 H1042 0.930 . S
C1050 C1049 1.362 . S
C1050 C1053 1.409 . S
C1051 H1043 0.930 . S
C1051 C1052 1.355 . S
C1051 C1053 1.415 . S
C1052 C1051 1.355 . S
C1052 C1054 1.419 . S
C1053 C1048 1.425 . S
C1053 C1050 1.409 . S
C1053 C1051 1.415 . S
C1054 H1044 0.930 . S
C1054 C1052 1.419 . S
C1054 C1055 1.362 . S
C1055 H1045 0.930 . S
C1055 C1048 1.409 . S
C1055 C1054 1.362 . S
H1056 C1062 0.930 . S
H1057 C1065 0.930 . S
H1058 C1066 0.930 . S
H1059 C1067 0.930 . S
H1060 C1070 0.930 . S
H1061 C1071 0.930 . S
C1062 H1056 0.930 . S
C1062 C1063 1.355 . S
C1062 C1064 1.415 . S
C1063 C1062 1.355 . S
C1063 C1065 1.419 . S
C1064 C1062 1.415 . S
C1064 C1069 1.425 . S
C1064 C1071 1.409 . S
C1065 H1057 0.930 . S
C1065 C1063 1.419 . S
C1065 C1066 1.362 . S
C1066 H1058 0.930 . S
C1066 C1065 1.362 . S
C1066 C1069 1.409 . S
C1067 H1059 0.930 . S
C1067 C1068 1.355 . S
C1067 C1069 1.415 . S
C1068 C1067 1.355 . S
C1068 C1070 1.419 . S
C1069 C1064 1.425 . S
C1069 C1066 1.409 . S
C1069 C1067 1.415 . S
C1070 H1060 0.930 . S
C1070 C1068 1.419 . S
C1070 C1071 1.362 . S
C1071 H1061 0.930 . S
C1071 C1064 1.409 . S
C1071 C1070 1.362 . S
H1072 C1078 0.930 . S
H1073 C1081 0.930 . S
H1074 C1082 0.930 . S
H1075 C1083 0.930 . S
H1076 C1086 0.930 . S
H1077 C1087 0.930 . S
C1078 H1072 0.930 . S
C1078 C1079 1.355 . S
C1078 C1080 1.415 . S
C1079 C1078 1.355 . S
C1079 C1081 1.419 . S
C1080 C1078 1.415 . S
C1080 C1085 1.425 1_556 S
C1080 C1087 1.409 . S
C1081 H1073 0.930 . S
C1081 C1079 1.419 . S
C1081 C1082 1.362 1_556 S
C1082 H1074 0.930 . S
C1082 C1081 1.362 1_554 S
C1082 C1085 1.409 . S
C1083 H1075 0.930 . S
C1083 C1084 1.355 . S
C1083 C1085 1.415 . S
C1084 C1083 1.355 . S
C1084 C1086 1.419 . S
C1085 C1080 1.425 1_554 S
C1085 C1082 1.409 . S
C1085 C1083 1.415 . S
C1086 H1076 0.930 . S
C1086 C1084 1.419 . S
C1086 C1087 1.362 1_554 S
C1087 H1077 0.930 . S
C1087 C1080 1.409 . S
C1087 C1086 1.362 1_556 S
H1088 C1094 0.930 . S
H1089 C1097 0.930 . S
H1090 C1098 0.930 . S
H1091 C1099 0.930 . S
H1092 C1102 0.930 . S
H1093 C1103 0.930 . S
C1094 H1088 0.930 . S
C1094 C1095 1.355 . S
C1094 C1096 1.415 . S
C1095 C1094 1.355 . S
C1095 C1097 1.419 . S
C1096 C1094 1.415 . S
C1096 C1101 1.425 . S
C1096 C1103 1.409 . S
C1097 H1089 0.930 . S
C1097 C1095 1.419 . S
C1097 C1098 1.362 . S
C1098 H1090 0.930 . S
C1098 C1097 1.362 . S
C1098 C1101 1.409 . S
C1099 H1091 0.930 . S
C1099 C1100 1.355 . S
C1099 C1101 1.415 . S
C1100 C1099 1.355 . S
C1100 C1102 1.419 . S
C1101 C1096 1.425 . S
C1101 C1098 1.409 . S
C1101 C1099 1.415 . S
C1102 H1092 0.930 . S
C1102 C1100 1.419 . S
C1102 C1103 1.362 . S
C1103 H1093 0.930 . S
C1103 C1096 1.409 . S
C1103 C1102 1.362 . S
H1104 C1110 0.930 . S
H1105 C1113 0.930 . S
H1106 C1114 0.930 . S
H1107 C1115 0.930 . S
H1108 C1118 0.930 . S
H1109 C1119 0.930 . S
C1110 H1104 0.930 . S
C1110 C1111 1.355 . S
C1110 C1112 1.419 . S
C1111 C1110 1.355 . S
C1111 C1113 1.419 . S
C1112 C1110 1.419 . S
C1112 C1117 1.425 1_556 S
C1112 C1119 1.405 1_556 S
C1113 H1105 0.930 . S
C1113 C1111 1.419 . S
C1113 C1114 1.362 . S
C1114 H1106 0.930 . S
C1114 C1113 1.362 . S
C1114 C1117 1.405 1_556 S
C1115 H1107 0.930 . S
C1115 C1116 1.355 . S
C1115 C1117 1.419 . S
C1116 C1115 1.355 . S
C1116 C1118 1.419 . S
C1117 C1112 1.425 1_554 S
C1117 C1114 1.405 1_554 S
C1117 C1115 1.419 . S
C1118 H1108 0.930 . S
C1118 C1116 1.419 . S
C1118 C1119 1.362 . S
C1119 H1109 0.930 . S
C1119 C1112 1.405 1_554 S
C1119 C1118 1.362 . S
H1120 C1126 0.930 . S
H1121 C1129 0.930 . S
H1122 C1130 0.930 . S
H1123 C1131 0.930 . S
H1124 C1134 0.930 . S
H1125 C1135 0.930 . S
C1126 H1120 0.930 . S
C1126 C1127 1.355 . S
C1126 C1128 1.415 1_565 S
C1127 C1126 1.355 . S
C1127 C1129 1.419 . S
C1128 C1126 1.415 1_545 S
C1128 C1133 1.425 1_545 S
C1128 C1135 1.409 . S
C1129 H1121 0.930 . S
C1129 C1127 1.419 . S
C1129 C1130 1.362 . S
C1130 H1122 0.930 . S
C1130 C1129 1.362 . S
C1130 C1133 1.409 . S
C1131 H1123 0.930 . S
C1131 C1132 1.355 . S
C1131 C1133 1.415 1_545 S
C1132 C1131 1.355 . S
C1132 C1134 1.419 . S
C1133 C1128 1.425 1_565 S
C1133 C1130 1.409 . S
C1133 C1131 1.415 1_565 S
C1134 H1124 0.930 . S
C1134 C1132 1.419 . S
C1134 C1135 1.362 . S
C1135 H1125 0.930 . S
C1135 C1128 1.409 . S
C1135 C1134 1.362 . S
H1136 C1142 0.930 . S
H1137 C1145 0.930 . S
H1138 C1146 0.930 . S
H1139 C1147 0.930 . S
H1140 C1150 0.930 . S
H1141 C1151 0.930 . S
C1142 H1136 0.930 . S
C1142 C1143 1.355 . S
C1142 C1144 1.415 1_565 S
C1143 C1142 1.355 . S
C1143 C1145 1.419 . S
C1144 C1142 1.415 1_545 S
C1144 C1149 1.425 1_544 S
C1144 C1151 1.409 . S
C1145 H1137 0.930 . S
C1145 C1143 1.419 . S
C1145 C1146 1.362 1_554 S
C1146 H1138 0.930 . S
C1146 C1145 1.362 1_556 S
C1146 C1149 1.409 . S
C1147 H1139 0.930 . S
C1147 C1148 1.355 . S
C1147 C1149 1.415 1_545 S
C1148 C1147 1.355 . S
C1148 C1150 1.419 . S
C1149 C1144 1.425 1_566 S
C1149 C1146 1.409 . S
C1149 C1147 1.415 1_565 S
C1150 H1140 0.930 . S
C1150 C1148 1.419 . S
C1150 C1151 1.362 1_556 S
C1151 H1141 0.930 . S
C1151 C1144 1.409 . S
C1151 C1150 1.362 1_554 S
H1152 C1158 0.930 . S
H1153 C1161 0.930 . S
H1154 C1162 0.930 . S
H1155 C1163 0.930 . S
H1156 C1166 0.930 . S
H1157 C1167 0.930 . S
C1158 H1152 0.930 . S
C1158 C1159 1.355 . S
C1158 C1160 1.415 . S
C1159 C1158 1.355 . S
C1159 C1161 1.419 . S
C1160 C1158 1.415 . S
C1160 C1165 1.425 1_545 S
C1160 C1167 1.409 . S
C1161 H1153 0.930 . S
C1161 C1159 1.419 . S
C1161 C1162 1.362 1_545 S
C1162 H1154 0.930 . S
C1162 C1161 1.362 1_565 S
C1162 C1165 1.409 . S
C1163 H1155 0.930 . S
C1163 C1164 1.355 . S
C1163 C1165 1.415 . S
C1164 C1163 1.355 . S
C1164 C1166 1.419 . S
C1165 C1160 1.425 1_565 S
C1165 C1162 1.409 . S
C1165 C1163 1.415 . S
C1166 H1156 0.930 . S
C1166 C1164 1.419 . S
C1166 C1167 1.362 1_565 S
C1167 H1157 0.930 . S
C1167 C1160 1.409 . S
C1167 C1166 1.362 1_545 S
H1168 C1174 0.930 . S
H1169 C1177 0.930 . S
H1170 C1178 0.930 1_556 S
H1171 C1179 0.930 . S
H1172 C1182 0.930 . S
H1173 C1183 0.930 1_554 S
C1174 H1168 0.930 . S
C1174 C1175 1.355 . S
C1174 C1176 1.415 . S
C1175 C1174 1.355 . S
C1175 C1177 1.419 . S
C1176 C1174 1.415 . S
C1176 C1181 1.425 1_564 S
C1176 C1183 1.409 1_564 S
C1177 H1169 0.930 . S
C1177 C1175 1.419 . S
C1177 C1178 1.362 . S
C1178 H1170 0.930 1_554 S
C1178 C1177 1.362 . S
C1178 C1181 1.409 1_564 S
C1179 H1171 0.930 . S
C1179 C1180 1.355 . S
C1179 C1181 1.415 . S
C1180 C1179 1.355 . S
C1180 C1182 1.419 . S
C1181 C1176 1.425 1_546 S
C1181 C1178 1.409 1_546 S
C1181 C1179 1.415 . S
C1182 H1172 0.930 . S
C1182 C1180 1.419 . S
C1182 C1183 1.362 . S
C1183 H1173 0.930 1_556 S
C1183 C1176 1.409 1_546 S
C1183 C1182 1.362 . S
H1184 C1190 0.930 . S
H1185 C1193 0.930 . S
H1186 C1194 0.930 . S
H1187 C1195 0.930 . S
H1188 C1198 0.930 1_565 S
H1189 C1199 0.930 . S
C1190 H1184 0.930 . S
C1190 C1191 1.355 . S
C1190 C1192 1.415 . S
C1191 C1190 1.355 . S
C1191 C1193 1.419 . S
C1192 C1190 1.415 . S
C1192 C1197 1.425 . S
C1192 C1199 1.409 . S
C1193 H1185 0.930 . S
C1193 C1191 1.419 . S
C1193 C1194 1.362 . S
C1194 H1186 0.930 . S
C1194 C1193 1.362 . S
C1194 C1197 1.409 . S
C1195 H1187 0.930 . S
C1195 C1196 1.355 . S
C1195 C1197 1.415 . S
C1196 C1195 1.355 . S
C1196 C1198 1.419 . S
C1197 C1192 1.425 . S
C1197 C1194 1.409 . S
C1197 C1195 1.415 . S
C1198 H1188 0.930 1_545 S
C1198 C1196 1.419 . S
C1198 C1199 1.362 . S
C1199 H1189 0.930 . S
C1199 C1192 1.409 . S
C1199 C1198 1.362 . S
H1200 C1206 0.930 . S
H1201 C1209 0.930 1_545 S
H1202 C1210 0.930 . S
H1203 C1211 0.930 . S
H1204 C1214 0.930 . S
H1205 C1215 0.930 . S
C1206 H1200 0.930 . S
C1206 C1207 1.355 . S
C1206 C1208 1.415 . S
C1207 C1206 1.355 . S
C1207 C1209 1.419 . S
C1208 C1206 1.415 . S
C1208 C1213 1.425 . S
C1208 C1215 1.409 . S
C1209 H1201 0.930 1_565 S
C1209 C1207 1.419 . S
C1209 C1210 1.362 . S
C1210 H1202 0.930 . S
C1210 C1209 1.362 . S
C1210 C1213 1.409 . S
C1211 H1203 0.930 . S
C1211 C1212 1.355 . S
C1211 C1213 1.415 . S
C1212 C1211 1.355 . S
C1212 C1214 1.419 . S
C1213 C1208 1.425 . S
C1213 C1210 1.409 . S
C1213 C1211 1.415 . S
C1214 H1204 0.930 . S
C1214 C1212 1.419 . S
C1214 C1215 1.362 . S
C1215 H1205 0.930 . S
C1215 C1208 1.409 . S
C1215 C1214 1.362 . S
H1216 C1222 0.930 . S
H1217 C1225 0.930 1_545 S
H1218 C1226 0.930 . S
H1219 C1227 0.930 . S
H1220 C1230 0.930 . S
H1221 C1231 0.930 . S
C1222 H1216 0.930 . S
C1222 C1223 1.355 . S
C1222 C1224 1.415 . S
C1223 C1222 1.355 . S
C1223 C1225 1.419 . S
C1224 C1222 1.415 . S
C1224 C1229 1.425 . S
C1224 C1231 1.409 . S
C1225 H1217 0.930 1_565 S
C1225 C1223 1.419 . S
C1225 C1226 1.362 . S
C1226 H1218 0.930 . S
C1226 C1225 1.362 . S
C1226 C1229 1.409 . S
C1227 H1219 0.930 . S
C1227 C1228 1.355 . S
C1227 C1229 1.415 . S
C1228 C1227 1.355 . S
C1228 C1230 1.419 . S
C1229 C1224 1.425 . S
C1229 C1226 1.409 . S
C1229 C1227 1.415 . S
C1230 H1220 0.930 . S
C1230 C1228 1.419 . S
C1230 C1231 1.362 . S
C1231 H1221 0.930 . S
C1231 C1224 1.409 . S
C1231 C1230 1.362 . S
H1232 C1238 0.930 . S
H1233 C1241 0.930 . S
H1234 C1242 0.930 . S
H1235 C1243 0.930 . S
H1236 C1246 0.929 . S
H1237 C1247 0.930 . S
C1238 H1232 0.930 . S
C1238 C1239 1.355 . S
C1238 C1240 1.415 . S
C1239 C1238 1.355 . S
C1239 C1241 1.419 . S
C1240 C1238 1.415 . S
C1240 C1245 1.425 . S
C1240 C1247 1.409 . S
C1241 H1233 0.930 . S
C1241 C1239 1.419 . S
C1241 C1242 1.362 . S
C1242 H1234 0.930 . S
C1242 C1241 1.362 . S
C1242 C1245 1.409 . S
C1243 H1235 0.930 . S
C1243 C1244 1.345 1_545 S
C1243 C1245 1.415 . S
C1244 C1243 1.345 1_565 S
C1244 C1246 1.419 . S
C1245 C1240 1.425 . S
C1245 C1242 1.409 . S
C1245 C1243 1.415 . S
C1246 H1236 0.929 . S
C1246 C1244 1.419 . S
C1246 C1247 1.363 1_565 S
C1247 H1237 0.930 . S
C1247 C1240 1.409 . S
C1247 C1246 1.363 1_545 S
H1248 C1254 0.930 . S
H1249 C1257 0.930 . S
H1250 C1258 0.930 . S
H1251 C1259 0.930 . S
H1252 C1262 0.933 . S
H1253 C1263 0.930 . S
C1254 H1248 0.930 . S
C1254 C1255 1.355 . S
C1254 C1256 1.415 . S
C1255 C1254 1.355 . S
C1255 C1257 1.419 . S
C1256 C1254 1.415 . S
C1256 C1261 1.425 . S
C1256 C1263 1.409 . S
C1257 H1249 0.930 . S
C1257 C1255 1.419 . S
C1257 C1258 1.362 . S
C1258 H1250 0.930 . S
C1258 C1257 1.362 . S
C1258 C1261 1.409 . S
C1259 H1251 0.930 . S
C1259 C1260 1.357 1_565 S
C1259 C1261 1.415 . S
C1260 C1259 1.357 1_545 S
C1260 C1262 1.419 . S
C1261 C1256 1.425 . S
C1261 C1258 1.409 . S
C1261 C1259 1.415 . S
C1262 H1252 0.933 . S
C1262 C1260 1.419 . S
C1262 C1263 1.359 1_545 S
C1263 H1253 0.930 . S
C1263 C1256 1.409 . S
C1263 C1262 1.359 1_565 S
H1264 C1270 0.930 . S
H1265 C1273 0.930 . S
H1266 C1274 0.930 . S
H1267 C1275 0.930 . S
H1268 C1278 0.930 . S
H1269 C1279 0.930 . S
C1270 H1264 0.930 . S
C1270 C1271 1.355 . S
C1270 C1272 1.415 . S
C1271 C1270 1.355 . S
C1271 C1273 1.419 . S
C1272 C1270 1.415 . S
C1272 C1277 1.425 . S
C1272 C1279 1.409 . S
C1273 H1265 0.930 . S
C1273 C1271 1.419 . S
C1273 C1274 1.362 . S
C1274 H1266 0.930 . S
C1274 C1273 1.362 . S
C1274 C1277 1.409 . S
C1275 H1267 0.930 . S
C1275 C1276 1.355 . S
C1275 C1277 1.415 . S
C1276 C1275 1.355 . S
C1276 C1278 1.419 . S
C1277 C1272 1.425 . S
C1277 C1274 1.409 . S
C1277 C1275 1.415 . S
C1278 H1268 0.930 . S
C1278 C1276 1.419 . S
C1278 C1279 1.362 . S
C1279 H1269 0.930 . S
C1279 C1272 1.409 . S
C1279 C1278 1.362 . S
H1280 C1286 0.930 . S
H1281 C1289 0.935 . S
H1282 C1290 0.930 . S
H1283 C1291 0.930 . S
H1284 C1294 0.930 . S
H1285 C1295 0.930 . S
C1286 H1280 0.930 . S
C1286 C1287 1.367 . S
C1286 C1288 1.415 . S
C1287 C1286 1.367 . S
C1287 C1289 1.427 . S
C1288 C1286 1.415 . S
C1288 C1293 1.425 . S
C1288 C1295 1.409 . S
C1289 H1281 0.935 . S
C1289 C1287 1.427 . S
C1289 C1290 1.362 . S
C1290 H1282 0.930 . S
C1290 C1289 1.362 . S
C1290 C1293 1.409 . S
C1291 H1283 0.930 . S
C1291 C1292 1.355 . S
C1291 C1293 1.415 . S
C1292 C1291 1.355 . S
C1292 C1294 1.419 . S
C1293 C1288 1.425 . S
C1293 C1290 1.409 . S
C1293 C1291 1.415 . S
C1294 H1284 0.930 . S
C1294 C1292 1.419 . S
C1294 C1295 1.362 . S
C1295 H1285 0.930 . S
C1295 C1288 1.409 . S
C1295 C1294 1.362 . S
H1296 C1302 0.930 . S
H1297 C1305 0.930 . S
H1298 C1306 0.930 . S
H1299 C1307 0.930 . S
H1300 C1310 0.930 . S
H1301 C1311 0.930 . S
C1302 H1296 0.930 . S
C1302 C1303 1.355 . S
C1302 C1304 1.415 . S
C1303 C1302 1.355 . S
C1303 C1305 1.419 . S
C1304 C1302 1.415 . S
C1304 C1309 1.425 . S
C1304 C1311 1.409 . S
C1305 H1297 0.930 . S
C1305 C1303 1.419 . S
C1305 C1306 1.362 . S
C1306 H1298 0.930 . S
C1306 C1305 1.362 . S
C1306 C1309 1.409 . S
C1307 H1299 0.930 . S
C1307 C1308 1.355 . S
C1307 C1309 1.415 . S
C1308 C1307 1.355 . S
C1308 C1310 1.419 . S
C1309 C1304 1.425 . S
C1309 C1306 1.409 . S
C1309 C1307 1.415 . S
C1310 H1300 0.930 . S
C1310 C1308 1.419 . S
C1310 C1311 1.362 . S
C1311 H1301 0.930 . S
C1311 C1304 1.409 . S
C1311 C1310 1.362 . S
H1312 C1318 0.930 . S
H1313 C1321 0.930 . S
H1314 C1322 0.930 . S
H1315 C1323 0.930 . S
H1316 C1326 0.930 . S
H1317 C1327 0.930 . S
C1318 H1312 0.930 . S
C1318 C1319 1.355 . S
C1318 C1320 1.415 . S
C1319 C1318 1.355 . S
C1319 C1321 1.419 . S
C1320 C1318 1.415 . S
C1320 C1325 1.425 . S
C1320 C1327 1.409 . S
C1321 H1313 0.930 . S
C1321 C1319 1.419 . S
C1321 C1322 1.362 . S
C1322 H1314 0.930 . S
C1322 C1321 1.362 . S
C1322 C1325 1.409 . S
C1323 H1315 0.930 . S
C1323 C1324 1.355 . S
C1323 C1325 1.415 . S
C1324 C1323 1.355 . S
C1324 C1326 1.419 . S
C1325 C1320 1.425 . S
C1325 C1322 1.409 . S
C1325 C1323 1.415 . S
C1326 H1316 0.930 . S
C1326 C1324 1.419 . S
C1326 C1327 1.362 . S
C1327 H1317 0.930 . S
C1327 C1320 1.409 . S
C1327 C1326 1.362 . S
H1328 C1334 0.930 . S
H1329 C1337 0.930 . S
H1330 C1338 0.930 . S
H1331 C1339 0.930 . S
H1332 C1342 0.930 . S
H1333 C1343 0.930 . S
C1334 H1328 0.930 . S
C1334 C1335 1.355 . S
C1334 C1336 1.415 . S
C1335 C1334 1.355 . S
C1335 C1337 1.419 . S
C1336 C1334 1.415 . S
C1336 C1341 1.425 . S
C1336 C1343 1.409 . S
C1337 H1329 0.930 . S
C1337 C1335 1.419 . S
C1337 C1338 1.362 . S
C1338 H1330 0.930 . S
C1338 C1337 1.362 . S
C1338 C1341 1.409 . S
C1339 H1331 0.930 . S
C1339 C1340 1.355 . S
C1339 C1341 1.415 . S
C1340 C1339 1.355 . S
C1340 C1342 1.419 . S
C1341 C1336 1.425 . S
C1341 C1338 1.409 . S
C1341 C1339 1.415 . S
C1342 H1332 0.930 . S
C1342 C1340 1.419 . S
C1342 C1343 1.362 . S
C1343 H1333 0.930 . S
C1343 C1336 1.409 . S
C1343 C1342 1.362 . S
H1344 C1350 0.930 . S
H1345 C1353 0.930 . S
H1346 C1354 0.930 . S
H1347 C1355 0.930 . S
H1348 C1358 0.930 . S
H1349 C1359 0.930 . S
C1350 H1344 0.930 . S
C1350 C1351 1.355 . S
C1350 C1352 1.415 . S
C1351 C1350 1.355 . S
C1351 C1353 1.419 . S
C1352 C1350 1.415 . S
C1352 C1357 1.425 . S
C1352 C1359 1.409 . S
C1353 H1345 0.930 . S
C1353 C1351 1.419 . S
C1353 C1354 1.362 . S
C1354 H1346 0.930 . S
C1354 C1353 1.362 . S
C1354 C1357 1.409 . S
C1355 H1347 0.930 . S
C1355 C1356 1.355 . S
C1355 C1357 1.415 . S
C1356 C1355 1.355 . S
C1356 C1358 1.419 . S
C1357 C1352 1.425 . S
C1357 C1354 1.409 . S
C1357 C1355 1.415 . S
C1358 H1348 0.930 . S
C1358 C1356 1.419 . S
C1358 C1359 1.362 . S
C1359 H1349 0.930 . S
C1359 C1352 1.409 . S
C1359 C1358 1.362 . S
H1360 C1366 0.930 . S
H1361 C1369 0.930 . S
H1362 C1370 0.930 . S
H1363 C1371 0.930 . S
H1364 C1374 0.930 . S
H1365 C1375 0.930 . S
C1366 H1360 0.930 . S
C1366 C1367 1.355 . S
C1366 C1368 1.415 . S
C1367 C1366 1.355 . S
C1367 C1369 1.419 . S
C1368 C1366 1.415 . S
C1368 C1373 1.425 . S
C1368 C1375 1.409 . S
C1369 H1361 0.930 . S
C1369 C1367 1.419 . S
C1369 C1370 1.362 . S
C1370 H1362 0.930 . S
C1370 C1369 1.362 . S
C1370 C1373 1.409 . S
C1371 H1363 0.930 . S
C1371 C1372 1.355 . S
C1371 C1373 1.415 . S
C1372 C1371 1.355 . S
C1372 C1374 1.419 . S
C1373 C1368 1.425 . S
C1373 C1370 1.409 . S
C1373 C1371 1.415 . S
C1374 H1364 0.930 . S
C1374 C1372 1.419 . S
C1374 C1375 1.362 . S
C1375 H1365 0.930 . S
C1375 C1368 1.409 . S
C1375 C1374 1.362 . S
H1376 C1382 0.930 . S
H1377 C1385 0.930 . S
H1378 C1386 0.930 . S
H1379 C1387 0.930 . S
H1380 C1390 0.930 . S
H1381 C1391 0.930 . S
C1382 H1376 0.930 . S
C1382 C1383 1.355 . S
C1382 C1384 1.415 . S
C1383 C1382 1.355 . S
C1383 C1385 1.419 . S
C1384 C1382 1.415 . S
C1384 C1389 1.425 . S
C1384 C1391 1.409 . S
C1385 H1377 0.930 . S
C1385 C1383 1.419 . S
C1385 C1386 1.362 . S
C1386 H1378 0.930 . S
C1386 C1385 1.362 . S
C1386 C1389 1.409 . S
C1387 H1379 0.930 . S
C1387 C1388 1.355 . S
C1387 C1389 1.415 . S
C1388 C1387 1.355 . S
C1388 C1390 1.419 . S
C1389 C1384 1.425 . S
C1389 C1386 1.409 . S
C1389 C1387 1.415 . S
C1390 H1380 0.930 . S
C1390 C1388 1.419 . S
C1390 C1391 1.362 . S
C1391 H1381 0.930 . S
C1391 C1384 1.409 . S
C1391 C1390 1.362 . S
H1392 C1398 0.930 . S
H1393 C1401 0.930 . S
H1394 C1402 0.930 . S
H1395 C1403 0.930 . S
H1396 C1406 0.930 . S
H1397 C1407 0.930 . S
C1398 H1392 0.930 . S
C1398 C1399 1.355 . S
C1398 C1400 1.415 . S
C1399 C1398 1.355 . S
C1399 C1401 1.419 . S
C1400 C1398 1.415 . S
C1400 C1405 1.425 . S
C1400 C1407 1.409 . S
C1401 H1393 0.930 . S
C1401 C1399 1.419 . S
C1401 C1402 1.362 . S
C1402 H1394 0.930 . S
C1402 C1401 1.362 . S
C1402 C1405 1.409 . S
C1403 H1395 0.930 . S
C1403 C1404 1.355 . S
C1403 C1405 1.415 . S
C1404 C1403 1.355 . S
C1404 C1406 1.419 . S
C1405 C1400 1.425 . S
C1405 C1402 1.409 . S
C1405 C1403 1.415 . S
C1406 H1396 0.930 . S
C1406 C1404 1.419 . S
C1406 C1407 1.362 . S
C1407 H1397 0.930 . S
C1407 C1400 1.409 . S
C1407 C1406 1.362 . S
H1408 C1414 0.930 . S
H1409 C1417 0.930 . S
H1410 C1418 0.930 . S
H1411 C1419 0.930 . S
H1412 C1422 0.930 . S
H1413 C1423 0.930 . S
C1414 H1408 0.930 . S
C1414 C1415 1.355 . S
C1414 C1416 1.415 . S
C1415 C1414 1.355 . S
C1415 C1417 1.419 . S
C1416 C1414 1.415 . S
C1416 C1421 1.425 . S
C1416 C1423 1.409 . S
C1417 H1409 0.930 . S
C1417 C1415 1.419 . S
C1417 C1418 1.362 . S
C1418 H1410 0.930 . S
C1418 C1417 1.362 . S
C1418 C1421 1.409 . S
C1419 H1411 0.930 . S
C1419 C1420 1.355 . S
C1419 C1421 1.415 . S
C1420 C1419 1.355 . S
C1420 C1422 1.419 . S
C1421 C1416 1.425 . S
C1421 C1418 1.409 . S
C1421 C1419 1.415 . S
C1422 H1412 0.930 . S
C1422 C1420 1.419 . S
C1422 C1423 1.362 . S
C1423 H1413 0.930 . S
C1423 C1416 1.409 . S
C1423 C1422 1.362 . S
H1424 C1430 0.930 . S
H1425 C1433 0.930 . S
H1426 C1434 0.930 . S
H1427 C1435 0.930 . S
H1428 C1438 0.930 . S
H1429 C1439 0.930 . S
C1430 H1424 0.930 . S
C1430 C1431 1.355 . S
C1430 C1432 1.415 . S
C1431 C1430 1.355 . S
C1431 C1433 1.419 . S
C1432 C1430 1.415 . S
C1432 C1437 1.425 . S
C1432 C1439 1.409 . S
C1433 H1425 0.930 . S
C1433 C1431 1.419 . S
C1433 C1434 1.362 . S
C1434 H1426 0.930 . S
C1434 C1433 1.362 . S
C1434 C1437 1.409 . S
C1435 H1427 0.930 . S
C1435 C1436 1.355 . S
C1435 C1437 1.415 . S
C1436 C1435 1.355 . S
C1436 C1438 1.419 . S
C1437 C1432 1.425 . S
C1437 C1434 1.409 . S
C1437 C1435 1.415 . S
C1438 H1428 0.930 . S
C1438 C1436 1.419 . S
C1438 C1439 1.362 . S
C1439 H1429 0.930 . S
C1439 C1432 1.409 . S
C1439 C1438 1.362 . S
C551 C513 1.546 . S
C556 C17 1.614 . S
C567 C477 1.556 . S
C572 C51 1.614 . S
C583 C443 1.532 . S
C588 C85 1.617 . S
C599 C409 1.541 . S
C604 C119 1.615 . S
C615 C153 1.630 . S
C620 C375 1.501 . S
C631 C341 1.492 . S
C636 C187 1.651 . S
C647 C221 1.625 . S
C652 C307 1.510 . S
C663 C273 1.499 . S
C668 C255 1.631 . S
C679 C289 1.654 . S
C684 C241 1.495 . S
C695 C323 1.614 . S
C700 C205 1.557 . S
C711 C357 1.646 . S
C716 C173 1.489 . S
C727 C391 1.648 . S
C732 C137 1.558 . S
C743 C103 1.581 . S
C748 C425 1.630 . S
C759 C69 1.510 . S
C764 C459 1.625 . S
C775 C35 1.489 . S
C780 C493 1.647 . S
C791 C1 1.579 . S
C796 C527 1.634 . S
C807 C22 1.616 . S
C812 C226 1.690 . S
C823 C253 1.624 . S
C828 C56 1.681 . S
C839 C158 1.626 . S
C844 C90 1.679 . S
C855 C124 1.622 . S
C860 C185 1.683 . S
C871 C498 1.625 . S
C876 C294 1.681 . S
C887 C328 1.676 . S
C892 C525 1.629 . S
C903 C430 1.617 . S
C908 C362 1.688 . S
C919 C396 1.693 . S
C924 C464 1.612 . S
C935 C117 1.632 . S
C940 C15 1.556 . S
C951 C83 1.638 . S
C956 C49 1.557 . S
C967 C260 1.600 . S
C972 C151 1.581 . S
C983 C192 1.557 . S
C988 C219 1.638 . S
C999 C389 1.619 . S
C1004 C287 1.565 . S
C1015 C355 1.593 . S
C1020 C321 1.616 . S
C1031 C423 1.612 . S
C1036 C532 1.597 . S
C1047 C491 1.589 . S
C1052 C457 1.593 . S
C1063 C3 1.910 . S
C1068 C71 1.916 . S
C1079 C37 1.864 . S
C1084 C105 1.888 . S
C1095 C139 1.862 . S
C1100 C207 1.891 . S
C1111 C239 1.917 . S
C1116 C171 1.865 . S
C1127 C275 1.872 . S
C1132 C343 1.875 . S
C1143 C377 1.865 . S
C1148 C309 1.885 . S
C1159 C411 1.924 . S
C1164 C479 1.895 . S
C1175 C445 1.909 . S
C1180 C511 1.861 . S
C1191 C6 1.153 . S
C1196 C470 1.149 1_545 S
C1207 C436 1.178 1_565 S
C1212 C40 1.143 . S
C1223 C516 1.178 1_565 S
C1228 C74 1.144 . S
C1239 C108 1.102 . S
C1244 C504 1.161 . S
C1255 C142 1.114 . S
C1260 C334 1.160 . S
C1271 C198 1.171 . S
C1276 C300 1.182 1_545 S
C1287 C402 1.154 1_545 S
C1292 C210 1.133 . S
C1303 C266 1.179 . S
C1308 C368 1.179 1_565 S
C1319 C278 1.167 . S
C1324 C176 1.157 . S
C1335 C164 1.181 . S
C1340 C312 1.153 . S
C1351 C346 1.155 . S
C1356 C244 1.151 . S
C1367 C232 1.175 . S
C1372 C380 1.137 . S
C1383 C62 1.139 . S
C1388 C414 1.119 . S
C1399 C448 1.105 . S
C1404 C28 1.142 . S
C1415 C482 1.176 . S
C1420 C130 1.181 . S
C1431 C538 1.169 . S
C1436 C96 1.182 . S
