# Generated by pormake.
# Topology acs-h, (5)-cn, num edge types: 1
# Building blocks:
#     Node 0, Type 0, BuildingBlock: BEQFEK_clean_sbu_0, # of connection points: 5
#     Node 1, Type 0, BuildingBlock: BEQFEK_clean_sbu_0, # of connection points: 5
#     Node 2, Type 0, BuildingBlock: BEQFEK_clean_sbu_0, # of connection points: 5
#     Node 3, Type 0, BuildingBlock: BEQFEK_clean_sbu_0, # of connection points: 5
#     Node 4, Type 0, BuildingBlock: BEQFEK_clean_sbu_0, # of connection points: 5
#     Node 5, Type 0, BuildingBlock: BEQFEK_clean_sbu_0, # of connection points: 5
#     Node 6, Type 0, BuildingBlock: BEQFEK_clean_sbu_0, # of connection points: 5
#     Node 7, Type 0, BuildingBlock: BEQFEK_clean_sbu_0, # of connection points: 5
#     Node 8, Type 0, BuildingBlock: BEQFEK_clean_sbu_0, # of connection points: 5
#     Node 9, Type 0, BuildingBlock: BEQFEK_clean_sbu_0, # of connection points: 5
#     Node 10, Type 0, BuildingBlock: BEQFEK_clean_sbu_0, # of connection points: 5
#     Node 11, Type 0, BuildingBlock: BEQFEK_clean_sbu_0, # of connection points: 5
#     Edge 12, Type (0, 0), BuildingBlock: OJICUG_clean_linker_0, # of connection points: 2
#     Edge 13, Type (0, 0), BuildingBlock: OJICUG_clean_linker_0, # of connection points: 2
#     Edge 14, Type (0, 0), BuildingBlock: OJICUG_clean_linker_0, # of connection points: 2
#     Edge 15, Type (0, 0), BuildingBlock: OJICUG_clean_linker_0, # of connection points: 2
#     Edge 16, Type (0, 0), BuildingBlock: OJICUG_clean_linker_0, # of connection points: 2
#     Edge 17, Type (0, 0), BuildingBlock: OJICUG_clean_linker_0, # of connection points: 2
#     Edge 18, Type (0, 0), BuildingBlock: OJICUG_clean_linker_0, # of connection points: 2
#     Edge 19, Type (0, 0), BuildingBlock: OJICUG_clean_linker_0, # of connection points: 2
#     Edge 20, Type (0, 0), BuildingBlock: OJICUG_clean_linker_0, # of connection points: 2
#     Edge 21, Type (0, 0), BuildingBlock: OJICUG_clean_linker_0, # of connection points: 2
#     Edge 22, Type (0, 0), BuildingBlock: OJICUG_clean_linker_0, # of connection points: 2
#     Edge 23, Type (0, 0), BuildingBlock: OJICUG_clean_linker_0, # of connection points: 2
#     Edge 24, Type (0, 0), BuildingBlock: OJICUG_clean_linker_0, # of connection points: 2
#     Edge 25, Type (0, 0), BuildingBlock: OJICUG_clean_linker_0, # of connection points: 2
#     Edge 26, Type (0, 0), BuildingBlock: OJICUG_clean_linker_0, # of connection points: 2
#     Edge 27, Type (0, 0), BuildingBlock: OJICUG_clean_linker_0, # of connection points: 2
#     Edge 28, Type (0, 0), BuildingBlock: OJICUG_clean_linker_0, # of connection points: 2
#     Edge 29, Type (0, 0), BuildingBlock: OJICUG_clean_linker_0, # of connection points: 2
#     Edge 30, Type (0, 0), BuildingBlock: OJICUG_clean_linker_0, # of connection points: 2
#     Edge 31, Type (0, 0), BuildingBlock: OJICUG_clean_linker_0, # of connection points: 2
#     Edge 32, Type (0, 0), BuildingBlock: OJICUG_clean_linker_0, # of connection points: 2
#     Edge 33, Type (0, 0), BuildingBlock: OJICUG_clean_linker_0, # of connection points: 2
#     Edge 34, Type (0, 0), BuildingBlock: OJICUG_clean_linker_0, # of connection points: 2
#     Edge 35, Type (0, 0), BuildingBlock: OJICUG_clean_linker_0, # of connection points: 2
#     Edge 36, Type (0, 0), BuildingBlock: OJICUG_clean_linker_0, # of connection points: 2
#     Edge 37, Type (0, 0), BuildingBlock: OJICUG_clean_linker_0, # of connection points: 2
#     Edge 38, Type (0, 0), BuildingBlock: OJICUG_clean_linker_0, # of connection points: 2
#     Edge 39, Type (0, 0), BuildingBlock: OJICUG_clean_linker_0, # of connection points: 2
#     Edge 40, Type (0, 0), BuildingBlock: OJICUG_clean_linker_0, # of connection points: 2
#     Edge 41, Type (0, 0), BuildingBlock: OJICUG_clean_linker_0, # of connection points: 2
# Relax obj value: 1.265
# Max RMSD: 0.207
# Mean RMSD: 0.207
data_MOF--net-acs-h--node1-BEQFEK_clean_sbu_0--edge1-OJICUG_clean_linker_0
_symmetry_space_group_name_H-M    P1
_symmetry_Int_Tables_number       1
_symmetry_cell_setting            triclinic
loop_
_symmetry_equiv_pos_as_xyz
'x, y, z'
_cell_length_a     31.724626
_cell_length_b     31.85822
_cell_length_c     28.63178
_cell_angle_alpha  89.820525
_cell_angle_beta   90.193956
_cell_angle_gamma 119.95712
loop_
_atom_site_label
_atom_site_type_symbol
_atom_site_fract_x
_atom_site_fract_y
_atom_site_fract_z
_atom_type_partial_charge
Co0 Co 0.45119 0.05057 0.10083 0.0
Co1 Co 0.45554 0.12712 0.0306 0.0
C2 C 0.54513 0.12602 0.06018 0.0
O3 O 0.52162 0.08596 0.08216 0.0
O4 O 0.524 0.14732 0.04241 0.0
C5 C 0.46028 0.9791 0.15226 0.0
O6 O 0.49067 0.98361 0.11903 0.0
C7 C 0.48822 0.22583 0.00586 0.0
C8 C 0.43121 0.22286 0.95928 0.0
C9 C 0.47373 0.25438 0.98256 0.0
N10 N 0.45607 0.1792 -0.00298 0.0
N11 N 0.42232 0.17749 0.9685 0.0
C12 C 0.52857 0.24268 0.04099 0.0
H13 H 0.56002 0.24248 0.02444 0.0
H14 H 0.51669 0.21796 0.07155 0.0
H15 H 0.54062 0.27999 0.05327 0.0
C16 C 0.42199 0.10486 0.1651 0.0
N17 N 0.4311 0.09384 0.12218 0.0
N18 N 0.42578 0.12104 0.09082 0.0
C19 C 0.41214 0.14982 0.11302 0.0
C20 C 0.40988 0.14114 0.16092 0.0
C21 C 0.43008 0.08469 0.20934 0.0
H22 H 0.39698 0.04958 0.21719 0.0
H23 H 0.46095 0.07796 0.20505 0.0
H24 H 0.43757 0.1096 0.23919 0.0
O25 O 0.41101 0.01613 0.04736 0.0
O26 O 0.43908 0.06847 -0.00923 0.0
H27 H 0.38562 0.17212 0.0544 0.0
H28 H 0.37609 0.1919 0.11039 0.0
C29 C 0.40172 0.1856 0.08933 0.0
H30 H 0.4359 0.22069 0.08554 0.0
H31 H 0.39186 0.14547 0.95749 0.0
O32 O 0.43892 0.00364 0.14987 0.0
C33 C 0.43106 0.02807 0.00769 0.0
Co34 Co 0.94786 0.4071 0.09634 0.0
Co35 Co 0.8684 0.33076 0.03038 0.0
C36 C 0.8729 0.42356 0.04416 0.0
O37 O 0.91183 0.43954 0.0687 0.0
O38 O 0.84891 0.37952 0.03097 0.0
C39 C 0.02415 0.49195 0.14376 0.0
O40 O 0.02157 0.5189 0.11035 0.0
C41 C 0.77534 0.26367 -0.01022 0.0
C42 C 0.77309 0.19451 0.00286 0.0
C43 C 0.74325 0.2142 -0.00469 0.0
N44 N 0.82077 0.27299 -0.00121 0.0
N45 N 0.81953 0.23116 0.00389 0.0
C46 C 0.76347 0.3019 0.97584 0.0
H47 H 0.79212 0.32794 0.95195 0.0
H48 H 0.7628 0.32204 0.00705 0.0
H49 H 0.72766 0.28569 0.95792 0.0
C50 C 0.8964 0.33032 0.16768 0.0
N51 N 0.90412 0.34711 0.12332 0.0
N52 N 0.87027 0.31486 0.09582 0.0
C53 C 0.83785 0.27784 0.12287 0.0
C54 C 0.85403 0.28538 0.16888 0.0
C55 C 0.92878 0.35742 0.20789 0.0
H56 H 0.9673 0.37171 0.19784 0.0
H57 H 0.92401 0.38873 0.21652 0.0
H58 H 0.92067 0.33396 0.23914 0.0
O59 O 0.98157 0.39367 0.04782 0.0
O60 O 0.92945 0.36922 -0.0087 0.0
H61 H 0.78567 0.20928 0.09485 0.0
H62 H 0.76138 0.23165 0.13816 0.0
C63 C 0.78696 0.24242 0.10832 0.0
H64 H 0.77458 0.25903 0.08175 0.0
H65 H 0.84933 0.22791 0.01433 0.0
O66 O 0.99591 0.44649 0.14306 0.0
C67 C 0.97078 0.4008 0.00726 0.0
Co68 Co 0.60098 0.53626 0.09815 0.0
Co69 Co 0.67699 0.54615 0.02367 0.0
C70 C 0.58417 0.45234 0.03906 0.0
O71 O 0.56777 0.47045 0.06873 0.0
O72 O 0.62669 0.4772 0.022 0.0
C73 C 0.51685 0.52031 0.14671 0.0
O74 O 0.4938 0.49174 0.11139 0.0
C75 C 0.74573 0.51847 -0.00342 0.0
C76 C 0.80465 0.58279 0.96149 0.0
C77 C 0.7922 0.53751 0.97911 0.0
N78 N 0.73097 0.55084 -0.00991 0.0
N79 N 0.76585 0.58891 0.96809 0.0
C80 C 0.71937 0.47399 0.02649 0.0
H81 H 0.69027 0.44458 0.00546 0.0
H82 H 0.70234 0.48136 0.05674 0.0
H83 H 0.74394 0.46122 0.03972 0.0
C84 C 0.68179 0.55409 0.16295 0.0
N85 N 0.66304 0.55186 0.12005 0.0
N86 N 0.69706 0.56344 0.08836 0.0
C87 C 0.73904 0.57444 0.11071 0.0
C88 C 0.7307 0.568 0.15845 0.0
C89 C 0.65237 0.53963 0.20684 0.0
H90 H 0.65149 0.57159 0.22095 0.0
H91 H 0.61442 0.51096 0.19933 0.0
H92 H 0.66856 0.52662 0.23364 0.0
O93 O 0.61167 0.58626 0.05278 0.0
O94 O 0.63919 0.57251 -0.01066 0.0
H95 H 0.78989 0.61278 0.05577 0.0
H96 H 0.81727 0.61559 0.11177 0.0
C97 C 0.7872 0.59198 0.08771 0.0
H98 H 0.7916 0.56056 0.07904 0.0
H99 H 0.76481 0.62054 0.96102 0.0
O100 O 0.56288 0.5415 0.14832 0.0
C101 C 0.60463 0.57411 0.0103 0.0
Co102 Co 0.95091 0.5366 0.37786 0.0
Co103 Co 0.86999 0.53128 0.4446 0.0
C104 C 0.88157 0.44581 0.43236 0.0
O105 O 0.91895 0.46866 0.40605 0.0
O106 O 0.85699 0.46505 0.44617 0.0
C107 C 0.02716 0.52961 0.32855 0.0
O108 O 0.02452 0.49908 0.36088 0.0
C109 C 0.77348 0.49769 0.48106 0.0
C110 C 0.7679 0.56346 0.47356 0.0
C111 C 0.73978 0.51336 0.47641 0.0
N112 N 0.81851 0.53576 0.47566 0.0
N113 N 0.81509 0.5754 0.47403 0.0
C114 C 0.76332 0.44714 0.48972 0.0
H115 H 0.79025 0.4482 0.51513 0.0
H116 H 0.76705 0.43104 0.45682 0.0
H117 H 0.72618 0.42408 0.50402 0.0
C118 C 0.89595 0.55847 0.3066 0.0
N119 N 0.90423 0.54953 0.35091 0.0
N120 N 0.87031 0.5476 0.3786 0.0
C121 C 0.83757 0.55215 0.35168 0.0
C122 C 0.85333 0.56086 0.30563 0.0
C123 C 0.92859 0.56481 0.26636 0.0
H124 H 0.96677 0.59095 0.27607 0.0
H125 H 0.9263 0.52962 0.25854 0.0
H126 H 0.9188 0.57832 0.23476 0.0
O127 O 0.98272 0.58488 0.42607 0.0
O128 O 0.93207 0.56119 0.48344 0.0
H129 H 0.78671 0.56868 0.38276 0.0
H130 H 0.76133 0.52521 0.33654 0.0
C131 C 0.78698 0.53738 0.36649 0.0
H132 H 0.77399 0.50652 0.39074 0.0
H133 H 0.84429 0.60987 0.46693 0.0
O134 O 0.99933 0.5474 0.33072 0.0
C135 C 0.97252 0.56846 0.46717 0.0
Co136 Co 0.44745 0.38943 0.37325 0.0
Co137 Co 0.46218 0.32183 0.43828 0.0
C138 C 0.54633 0.40284 0.4006 0.0
O139 O 0.51979 0.42009 0.38633 0.0
O140 O 0.5278 0.35927 0.41457 0.0
C141 C 0.45249 0.47008 0.32511 0.0
O142 O 0.47708 0.49506 0.36175 0.0
C143 C 0.49383 0.26279 0.48789 0.0
C144 C 0.42407 0.19521 0.49808 0.0
C145 C 0.47404 0.21412 0.49902 0.0
N146 N 0.45735 0.27156 0.4787 0.0
N147 N 0.41572 0.23159 0.48719 0.0
C148 C 0.54616 0.29784 0.47724 0.0
H149 H 0.55464 0.33523 0.48558 0.0
H150 H 0.5531 0.29546 0.43964 0.0
H151 H 0.57096 0.29001 0.49792 0.0
C152 C 0.40533 0.30293 0.31223 0.0
N153 N 0.41935 0.32381 0.35467 0.0
N154 N 0.4244 0.29424 0.38308 0.0
C155 C 0.41555 0.25411 0.35899 0.0
C156 C 0.4027 0.25793 0.31319 0.0
C157 C 0.39965 0.32798 0.2704 0.0
H158 H 0.37774 0.34502 0.27989 0.0
H159 H 0.43603 0.3571 0.25894 0.0
H160 H 0.38151 0.30231 0.24117 0.0
O161 O 0.41875 0.39776 0.42973 0.0
O162 O 0.46031 0.37555 0.47428 0.0
H163 H 0.40205 0.19196 0.39896 0.0
H164 H 0.43617 0.19943 0.34656 0.0
C165 C 0.43068 0.21898 0.37573 0.0
H166 H 0.4652 0.23842 0.39551 0.0
H167 H 0.38162 0.22758 0.48005 0.0
O168 O 0.43676 0.4249 0.32393 0.0
C169 C 0.44451 0.40458 0.46588 0.0
Co170 Co 0.60669 0.06428 0.38147 0.0
Co171 Co 0.68309 0.13208 0.45504 0.0
C172 C 0.59072 0.13327 0.43928 0.0
O173 O 0.57452 0.09807 0.41042 0.0
O174 O 0.63348 0.15195 0.45629 0.0
C175 C 0.52153 0.99756 0.33287 0.0
O176 O 0.49886 0.00654 0.36622 0.0
C177 C 0.75382 0.22742 0.48392 0.0
C178 C 0.81324 0.21909 0.51451 0.0
C179 C 0.80133 0.25325 0.49955 0.0
N180 N 0.73816 0.18 0.48872 0.0
N181 N 0.77331 0.17507 0.50829 0.0
C182 C 0.72683 0.24715 0.45699 0.0
H183 H 0.69634 0.24377 0.47864 0.0
H184 H 0.71132 0.22578 0.42464 0.0
H185 H 0.75043 0.28579 0.44743 0.0
C186 C 0.68576 0.12489 0.31545 0.0
N187 N 0.66791 0.10985 0.35876 0.0
N188 N 0.70223 0.13359 0.38997 0.0
C189 C 0.74361 0.16409 0.36678 0.0
C190 C 0.73446 0.16031 0.31907 0.0
C191 C 0.65551 0.10827 0.27199 0.0
H192 H 0.65433 0.07485 0.2592 0.0
H193 H 0.61771 0.09953 0.27964 0.0
H194 H 0.6711 0.13624 0.24415 0.0
O195 O 0.61899 0.02671 0.42727 0.0
O196 O 0.64428 0.06882 0.4903 0.0
H197 H 0.79635 0.17886 0.42052 0.0
H198 H 0.82191 0.20441 0.36444 0.0
C199 C 0.7918 0.19636 0.38902 0.0
H200 H 0.79406 0.2311 0.39828 0.0
H201 H 0.77165 0.14184 0.51346 0.0
O202 O 0.56761 0.01979 0.33247 0.0
C203 C 0.61061 0.03227 0.46915 0.0
Co204 Co 0.53941 0.93801 0.88307 0.0
Co205 Co 0.54281 0.86792 0.95772 0.0
C206 C 0.45206 0.87234 0.94016 0.0
O207 O 0.47268 0.90696 0.91074 0.0
O208 O 0.47431 0.85214 0.95801 0.0
C209 C 0.52645 0.0075 0.83249 0.0
O210 O 0.4946 1.0004 0.86514 0.0
C211 C 0.51227 0.77066 0.98361 0.0
C212 C 0.57611 0.77442 0.01886 0.0
C213 C 0.53081 0.7424 0.00036 0.0
N214 N 0.54508 0.81733 -0.00871 0.0
N215 N 0.58274 0.8195 0.01355 0.0
C216 C 0.46848 0.75437 0.95276 0.0
H217 H 0.43889 0.75438 0.97329 0.0
H218 H 0.47727 0.77981 0.92308 0.0
H219 H 0.45515 0.71748 0.93864 0.0
C220 C 0.55769 0.87626 0.81844 0.0
N221 N 0.5531 0.89068 0.86144 0.0
N222 N 0.5618 0.86609 0.89329 0.0
C223 C 0.5732 0.83564 0.87095 0.0
C224 C 0.57017 0.84037 0.82299 0.0
C225 C 0.5473 0.89456 0.77419 0.0
H226 H 0.58094 0.92754 0.76271 0.0
H227 H 0.51883 0.90447 0.78024 0.0
H228 H 0.53542 0.86703 0.74606 0.0
O229 O 0.58881 0.9737 0.93006 0.0
O230 O 0.57071 0.93125 -0.0069 0.0
H231 H 0.60872 0.8204 0.92689 0.0
H232 H 0.61284 0.79703 0.87097 0.0
C233 C 0.58877 0.80352 0.89425 0.0
H234 H 0.55633 0.76796 0.90183 0.0
H235 H 0.61466 0.8517 0.02128 0.0
O236 O 0.54837 0.98342 0.83343 0.0
C237 C 0.57443 0.96813 0.97185 0.0
Co238 Co 0.06443 0.61559 0.8763 0.0
Co239 Co 0.14108 0.68726 0.9446 0.0
C240 C 0.14829 0.60491 0.91515 0.0
O241 O 0.10638 0.58687 0.89577 0.0
O242 O 0.17069 0.64841 0.92991 0.0
C243 C 0.99237 0.53208 0.82868 0.0
O244 O 0.99464 0.50802 0.86497 0.0
C245 C 0.22834 0.75149 -0.00305 0.0
C246 C 0.22515 0.81896 -0.00416 0.0
C247 C 0.25673 0.80127 0.00296 0.0
N248 N 0.18331 0.74086 0.98405 0.0
N249 N 0.18088 0.78103 0.98607 0.0
C250 C 0.2463 0.71618 -0.00596 0.0
H251 H 0.21646 0.67927 0.00265 0.0
H252 H 0.25986 0.71694 0.9582 0.0
H253 H 0.27634 0.72523 0.01897 0.0
C254 C 0.11119 0.6994 0.8121 0.0
N255 N 0.1026 0.67997 0.85536 0.0
N256 N 0.13506 0.71109 0.88454 0.0
C257 C 0.16697 0.75079 0.86005 0.0
C258 C 0.15267 0.74513 0.81331 0.0
C259 C 0.08231 0.6728 0.76991 0.0
H260 H 0.04292 0.65505 0.77796 0.0
H261 H 0.09088 0.64409 0.76062 0.0
H262 H 0.09032 0.69756 0.73972 0.0
O263 O 0.02488 0.612 0.9291 0.0
O264 O 0.08341 0.63481 0.98 0.0
H265 H 0.21261 0.8165 0.89654 0.0
H266 H 0.24287 0.80485 0.84968 0.0
C267 C 0.21593 0.78773 0.87816 0.0
H268 H 0.22978 0.7705 0.90266 0.0
H269 H 0.15095 0.78364 0.97481 0.0
O270 O 0.0198 0.57763 0.827 0.0
C271 C 0.04014 0.60451 0.96729 0.0
Co272 Co 0.41588 0.46324 0.87559 0.0
Co273 Co 0.33541 0.45538 0.94382 0.0
C274 C 0.43183 0.54825 0.92972 0.0
O275 O 0.45079 0.53083 0.90216 0.0
O276 O 0.38847 0.52246 0.94414 0.0
C277 C 0.49788 0.4683 0.82645 0.0
O278 O 0.52576 0.49737 0.85959 0.0
C279 C 0.2744 0.49569 0.9538 0.0
C280 C 0.21411 0.44677 3e-05 0.0
C281 C 0.2311 0.48799 0.97248 0.0
N282 N 0.28326 0.46112 0.96951 0.0
N283 N 0.24733 0.43201 -0.00244 0.0
C284 C 0.30327 0.53142 0.91607 0.0
H285 H 0.33115 0.56575 0.93237 0.0
H286 H 0.32196 0.51763 0.89363 0.0
H287 H 0.27953 0.53935 0.89357 0.0
C288 C 0.33871 0.44585 0.80601 0.0
N289 N 0.35532 0.44848 0.84994 0.0
N290 N 0.31913 0.43458 0.87955 0.0
C291 C 0.27779 0.42096 0.85492 0.0
C292 C 0.28881 0.42841 0.80758 0.0
C293 C 0.37037 0.45982 0.76362 0.0
H294 H 0.38064 0.43179 0.75707 0.0
H295 H 0.40443 0.49457 0.77005 0.0
H296 H 0.35147 0.46294 0.73225 0.0
O297 O 0.39845 0.41415 0.92421 0.0
O298 O 0.36901 0.42937 0.98533 0.0
H299 H 0.227 0.39056 0.91173 0.0
H300 H 0.19978 0.37659 0.85447 0.0
C301 C 0.22905 0.4051 0.87612 0.0
H302 H 0.22258 0.43622 0.87732 0.0
H303 H 0.24435 0.40103 0.01325 0.0
O304 O 0.4524 0.45195 0.82786 0.0
C305 C 0.40446 0.42772 0.96632 0.0
Co306 Co 0.06614 0.46524 0.601 0.0
Co307 Co 0.13454 0.45642 0.52905 0.0
C308 C 0.13516 0.55 0.54384 0.0
O309 O 0.0993 0.53148 0.57213 0.0
O310 O 0.1536 0.52541 0.52813 0.0
C311 C 0.99546 0.47826 0.64943 0.0
O312 O 0.99893 0.50596 0.61394 0.0
C313 C 0.23216 0.48547 0.5053 0.0
C314 C 0.2287 0.42379 0.46695 0.0
C315 C 0.26057 0.46819 0.48681 0.0
N316 N 0.18531 0.45301 0.49717 0.0
N317 N 0.18326 0.41643 0.47347 0.0
C318 C 0.24912 0.52861 0.5367 0.0
H319 H 0.25105 0.55913 0.51627 0.0
H320 H 0.22322 0.5202 0.56588 0.0
H321 H 0.28573 0.54035 0.55145 0.0
C322 C 0.12644 0.44617 0.66784 0.0
N323 N 0.11181 0.44946 0.62438 0.0
N324 N 0.13453 0.43731 0.59362 0.0
C325 C 0.16346 0.42442 0.6172 0.0
C326 C 0.15971 0.43006 0.66478 0.0
C327 C 0.10985 0.45973 0.71115 0.0
H328 H 0.07223 0.43078 0.71936 0.0
H329 H 0.10897 0.49371 0.70507 0.0
H330 H 0.13379 0.46418 0.74133 0.0
O331 O 0.02839 0.41567 0.55492 0.0
O332 O 0.07181 0.43193 0.49248 0.0
H333 H 0.18097 0.39027 0.562 0.0
H334 H 0.20186 0.38468 0.61911 0.0
C335 C 0.19647 0.40923 0.59537 0.0
H336 H 0.23261 0.4416 0.58933 0.0
H337 H 0.15098 0.3851 0.46455 0.0
O338 O 0.02191 0.45887 0.65056 0.0
C339 C 0.03449 0.42862 0.51261 0.0
Co340 Co 0.5484 0.60022 0.5995 0.0
Co341 Co 0.54612 0.67693 0.53369 0.0
C342 C 0.45713 0.58434 0.54748 0.0
O343 O 0.47999 0.56832 0.57205 0.0
O344 O 0.47751 0.62831 0.53385 0.0
C345 C 0.53618 0.5138 0.64422 0.0
O346 O 0.50473 0.48952 0.61106 0.0
C347 C 0.5215 0.74424 0.49178 0.0
C348 C 0.58795 0.81336 0.50673 0.0
C349 C 0.53865 0.7936 0.49752 0.0
N350 N 0.55735 0.73501 0.50223 0.0
N351 N 0.59777 0.77683 0.50844 0.0
C352 C 0.47185 0.70594 0.47658 0.0
H353 H 0.47515 0.67976 0.45359 0.0
H354 H 0.44989 0.68583 0.50736 0.0
H355 H 0.45292 0.72212 0.45741 0.0
C356 C 0.57196 0.6757 0.67152 0.0
N357 N 0.5644 0.65975 0.62694 0.0
N358 N 0.56322 0.69223 0.59941 0.0
C359 C 0.5667 0.7286 0.62657 0.0
C360 C 0.57404 0.72036 0.67282 0.0
C361 C 0.57558 0.64774 0.71192 0.0
H362 H 0.59913 0.63256 0.70241 0.0
H363 H 0.53884 0.61701 0.72005 0.0
H364 H 0.59081 0.67089 0.74331 0.0
O365 O 0.59579 0.61432 0.55111 0.0
O366 O 0.56882 0.63904 0.49439 0.0
H367 H 0.58323 0.79744 0.59907 0.0
H368 H 0.53502 0.77362 0.64098 0.0
C369 C 0.55112 0.76379 0.61159 0.0
H370 H 0.52308 0.74745 0.58412 0.0
H371 H 0.63048 0.78006 0.52004 0.0
O372 O 0.5565 0.55959 0.64503 0.0
C373 C 0.57784 0.60712 0.51061 0.0
Co374 Co 0.40762 0.95519 0.59918 0.0
Co375 Co 0.33452 0.87701 0.53023 0.0
C376 C 0.42647 0.88002 0.55935 0.0
O377 O 0.44285 0.92015 0.58099 0.0
O378 O 0.38393 0.85827 0.54172 0.0
C379 C 0.48874 0.0266 0.65012 0.0
O380 O 0.51444 0.02096 0.61747 0.0
C381 C 0.26853 0.7775 0.50764 0.0
C382 C 0.21286 0.77905 0.46239 0.0
C383 C 0.22476 0.74821 0.4857 0.0
N384 N 0.2825 0.82388 0.49804 0.0
N385 N 0.24948 0.82471 0.47028 0.0
C386 C 0.29315 0.7617 0.54254 0.0
H387 H 0.32421 0.76142 0.52524 0.0
H388 H 0.30703 0.78728 0.57233 0.0
H389 H 0.2682 0.72476 0.55609 0.0
C390 C 0.32517 0.90045 0.66477 0.0
N391 N 0.34464 0.91145 0.62152 0.0
N392 N 0.31172 0.88366 0.5907 0.0
C393 C 0.26974 0.85459 0.61362 0.0
C394 C 0.27688 0.8636 0.66136 0.0
C395 C 0.35403 0.92128 0.70855 0.0
H396 H 0.35622 0.9565 0.71588 0.0
H397 H 0.39162 0.92803 0.70388 0.0
H398 H 0.33693 0.89682 0.73885 0.0
O399 O 0.40017 0.98796 0.54513 0.0
O400 O 0.37492 0.93529 0.48909 0.0
H401 H 0.21979 0.83126 0.55589 0.0
H402 H 0.1915 0.8118 0.61241 0.0
C403 C 0.22319 0.81823 0.59082 0.0
H404 H 0.22248 0.78328 0.58727 0.0
H405 H 0.25045 0.85637 0.459 0.0
O406 O 0.44274 0.00303 0.64736 0.0
C407 C 0.40799 0.97552 0.50564 0.0
C408 C 0.44952 0.96591 0.28065 0.0
C409 C 0.49551 0.9719 0.29047 0.0
H410 H 0.4007 0.96154 0.22698 0.0
C411 C 0.52068 0.96267 0.25539 0.0
H412 H 0.42868 0.97142 0.30738 0.0
C413 C 0.5046 0.95685 0.20934 0.0
C414 C 0.46355 0.96066 0.19835 0.0
H415 H 0.55552 0.96539 0.26254 0.0
H416 H 0.52775 0.95581 0.18217 0.0
C417 C 0.43347 0.96015 0.23457 0.0
C418 C 0.05294 0.55739 0.20274 0.0
C419 C 0.04836 0.51336 0.18823 0.0
H420 H 0.05135 0.59817 0.26103 0.0
C421 C 0.05463 0.48394 0.22102 0.0
H422 H 0.04932 0.58125 0.17806 0.0
C423 C 0.05543 0.49338 0.26857 0.0
C424 C 0.05 0.5323 0.28328 0.0
H425 H 0.05276 0.45045 0.21034 0.0
H426 H 0.05375 0.46677 0.29329 0.0
C427 C 0.05386 0.5669 0.2503 0.0
C428 C 0.44396 0.47926 0.19733 0.0
C429 C 0.49054 0.51876 0.18925 0.0
H430 H 0.39391 0.43304 0.24913 0.0
C431 C 0.51574 0.55097 0.2259 0.0
H432 H 0.42319 0.45455 0.16944 0.0
C433 C 0.49874 0.5389 0.27148 0.0
C434 C 0.45684 0.49432 0.28039 0.0
H435 H 0.55115 0.58261 0.22014 0.0
H436 H 0.5218 0.56112 0.29975 0.0
C437 C 0.42713 0.46702 0.24295 0.0
C438 C 0.56263 0.04033 0.75492 0.0
C439 C 0.52817 0.03321 0.78932 0.0
H440 H 0.57773 0.04578 0.68193 0.0
C441 C 0.48979 0.04137 0.77822 0.0
H442 H 0.59356 0.03585 0.76301 0.0
C443 C 0.48085 0.04729 0.73172 0.0
C444 C 0.51015 0.04483 0.69632 0.0
H445 H 0.46345 0.03746 0.80435 0.0
H446 H 0.44769 0.0476 0.72322 0.0
C447 C 0.55376 0.04637 0.70845 0.0
C448 C 0.96785 0.44875 0.72983 0.0
C449 C 0.97243 0.48008 0.69305 0.0
H450 H 0.96938 0.44064 0.80374 0.0
C451 C 0.96618 0.51985 0.70198 0.0
H452 H 0.97105 0.41694 0.72351 0.0
C453 C 0.96519 0.53338 0.74794 0.0
C454 C 0.97029 0.50705 0.78486 0.0
H455 H 0.96833 0.54392 0.67411 0.0
H456 H 0.96646 0.5675 0.75436 0.0
C457 C 0.96664 0.46217 0.77579 0.0
C458 C 0.49721 0.44542 0.70005 0.0
C459 C 0.53779 0.48957 0.68726 0.0
H460 H 0.45297 0.40281 0.7568 0.0
C461 C 0.57362 0.51643 0.7209 0.0
H462 H 0.46966 0.42336 0.67461 0.0
C463 C 0.56402 0.5048 0.76802 0.0
C464 C 0.51857 0.46632 0.78133 0.0
H465 H 0.60613 0.54988 0.71147 0.0
H466 H 0.58914 0.52973 0.79369 0.0
C467 C 0.48763 0.43376 0.74718 0.0
C468 C 0.46305 0.97044 0.01891 0.0
C469 C 0.46595 0.01095 -0.00413 0.0
H470 H 0.49586 0.92678 0.0321 0.0
C471 C 0.50567 0.03775 0.96591 0.0
H472 H 0.4329 0.94865 0.04203 0.0
C473 C 0.54128 0.02445 0.95937 0.0
C474 C 0.53878 0.98443 0.98302 0.0
H475 H 0.50978 0.06952 0.94791 0.0
H476 H 0.57108 0.04576 0.93572 0.0
C477 C 0.49949 0.95807 0.01352 0.0
C478 C 0.03454 0.48895 0.01167 0.0
C479 C 0.98955 0.45262 -0.00595 0.0
H480 H 0.08524 0.56476 0.01849 0.0
C481 C 0.96048 0.46711 0.9693 0.0
H482 H 0.05794 0.47929 0.03093 0.0
C483 C 0.97513 0.51637 0.96403 0.0
C484 C 0.02029 0.55274 0.98141 0.0
H485 H 0.92557 0.4404 0.95517 0.0
H486 H 0.95163 0.52598 0.9449 0.0
C487 C 0.04976 0.53817 0.00536 0.0
C488 C 0.46585 0.50246 0.01085 0.0
C489 C 0.45541 0.46401 0.9802 0.0
H490 H 0.52081 0.56838 0.04245 0.0
C491 C 0.49471 0.46308 0.95849 0.0
H492 H 0.43672 0.50483 0.02797 0.0
C493 C 0.54284 0.49997 0.96608 0.0
C494 C 0.55338 0.53838 -0.00326 0.0
H495 H 0.48817 0.43386 0.93495 0.0
H496 H 0.57186 0.49746 0.9489 0.0
C497 C 0.51412 0.53934 0.01862 0.0
C498 C 0.0447 0.50207 0.46826 0.0
C499 C 0.01741 0.46296 0.49861 0.0
H500 H 0.05338 0.56697 0.43654 0.0
C501 C 0.97613 0.46 0.52008 0.0
H502 H 0.07713 0.50619 0.45156 0.0
C503 C 0.96288 0.4954 0.51206 0.0
C504 C 0.98988 0.53429 0.48135 0.0
H505 H 0.95428 0.4305 0.5438 0.0
H506 H 0.93061 0.49141 0.529 0.0
C507 C 0.03138 0.5374 0.46013 0.0
C508 C 0.51753 0.46956 0.50866 0.0
C509 C 0.47467 0.45561 0.48281 0.0
H510 H 0.58391 0.52777 0.53629 0.0
C511 C 0.46649 0.49243 0.46563 0.0
H512 H 0.5258 0.44264 0.52204 0.0
C513 C 0.50116 0.54154 0.47194 0.0
C514 C 0.54402 0.55539 0.49772 0.0
H515 H 0.43399 0.48338 0.44566 0.0
H516 H 0.49364 0.56861 0.45757 0.0
C517 C 0.55152 0.51861 0.51607 0.0
C518 C 0.52075 0.97646 0.45775 0.0
C519 C 0.55885 0.01659 0.48073 0.0
H520 H 0.44386 0.93202 0.447 0.0
C521 C 0.54667 0.04379 0.51074 0.0
H522 H 0.52866 0.95462 0.43437 0.0
C523 C 0.49803 0.03203 0.51642 0.0
C524 C 0.45985 0.99144 0.49403 0.0
H525 H 0.5748 0.07523 0.52873 0.0
H526 H 0.49027 0.05443 0.53916 0.0
C527 C 0.47199 0.96382 0.46455 0.0
C528 C 0.37245 0.17718 0.27363 0.0
C529 C 0.40142 0.228 0.27257 0.0
H530 H 0.35225 0.10978 0.23911 0.0
C531 C 0.43217 0.24981 0.23407 0.0
H532 H 0.34869 0.15937 0.30304 0.0
C533 C 0.43415 0.22158 0.19767 0.0
C534 C 0.40564 0.17077 0.19891 0.0
H535 H 0.45602 0.28869 0.23276 0.0
H536 H 0.45928 0.23955 0.16923 0.0
C537 C 0.37462 0.14884 0.23722 0.0
C538 C 0.79003 0.24311 0.28613 0.0
C539 C 0.76727 0.19243 0.28173 0.0
H540 H 0.83476 0.31236 0.25379 0.0
C541 C 0.77555 0.17285 0.24136 0.0
H542 H 0.78375 0.25915 0.31672 0.0
C543 C 0.80562 0.20333 0.20585 0.0
C544 C 0.8274 0.25403 0.20956 0.0
H545 H 0.7587 0.13396 0.23727 0.0
H546 H 0.81112 0.18717 0.17492 0.0
C547 C 0.81957 0.27361 0.2503 0.0
C548 C 0.8178 0.53939 0.22423 0.0
C549 C 0.82651 0.56651 0.26534 0.0
H550 H 0.78047 0.51858 0.15832 0.0
C551 C 0.80494 0.59568 0.27005 0.0
H552 H 0.83289 0.51575 0.21991 0.0
C553 C 0.7739 0.59625 0.23544 0.0
C554 C 0.76456 0.56852 0.19482 0.0
H555 H 0.81112 0.61716 0.30124 0.0
H556 H 0.75707 0.61828 0.24046 0.0
C557 C 0.78742 0.54068 0.18919 0.0
C558 C 0.54616 0.75873 0.7892 0.0
C559 C 0.57344 0.80957 0.78585 0.0
H560 H 0.52429 0.69056 0.75598 0.0
C561 C 0.60307 0.83054 0.74664 0.0
H562 H 0.52254 0.7416 0.81885 0.0
C563 C 0.60487 0.8013 0.71115 0.0
C564 C 0.57651 0.75045 0.71372 0.0
H565 H 0.62474 0.86957 0.74338 0.0
H566 H 0.62778 0.81853 0.68109 0.0
C567 C 0.54745 0.72946 0.75339 0.0
C568 C 0.2029 0.82617 0.77386 0.0
C569 C 0.18218 0.77546 0.77312 0.0
H570 H 0.2492 0.89392 0.73913 0.0
C571 C 0.19263 0.75425 0.73522 0.0
H572 H 0.19576 0.84355 0.80278 0.0
C573 C 0.22287 0.78292 0.69893 0.0
C574 C 0.24377 0.83358 0.69972 0.0
H575 H 0.17859 0.71553 0.73421 0.0
H576 H 0.23098 0.76545 0.67077 0.0
C577 C 0.23354 0.85496 0.73761 0.0
C578 C 0.18232 0.38568 0.72319 0.0
C579 C 0.19209 0.42935 0.70188 0.0
H580 H 0.20575 0.35109 0.77333 0.0
C581 C 0.23446 0.47232 0.71436 0.0
H582 H 0.1501 0.35207 0.71363 0.0
C583 C 0.26644 0.47172 0.74791 0.0
C584 C 0.25652 0.42814 0.76968 0.0
H585 H 0.24288 0.50633 0.69797 0.0
H586 H 0.29859 0.50543 0.75742 0.0
C587 C 0.21415 0.38513 0.75706 0.0
C588 C 0.54263 0.33684 0.97066 0.0
C589 C 0.49601 0.30691 0.98862 0.0
H590 H 0.60684 0.40608 0.97232 0.0
C591 C 0.47672 0.32557 0.02121 0.0
H592 H 0.55842 0.32265 0.94625 0.0
C593 C 0.50486 0.37325 0.03727 0.0
C594 C 0.55271 0.40263 0.02105 0.0
H595 H 0.44116 0.30242 0.03631 0.0
H596 H 0.48974 0.38649 0.06337 0.0
C597 C 0.57058 0.38431 0.98641 0.0
C598 C 0.66282 0.1401 0.01392 0.0
C599 C 0.692 0.19094 0.01211 0.0
H600 H 0.59406 0.07924 0.034 0.0
C601 C 0.67391 0.21892 0.03265 0.0
H602 H 0.67613 0.11719 0.00032 0.0
C603 C 0.62695 0.19733 0.0504 0.0
C604 C 0.59724 0.14698 0.05012 0.0
H605 H 0.69577 0.25756 0.03648 0.0
H606 H 0.61374 0.22017 0.0644 0.0
C607 C 0.61606 0.1183 0.03346 0.0
C608 C 0.82784 0.44311 0.98475 0.0
C609 C 0.85803 0.45731 0.02453 0.0
H610 H 0.78473 0.4588 0.93812 0.0
C611 C 0.87409 0.50354 0.04341 0.0
H612 H 0.81627 0.40872 0.96799 0.0
C613 C 0.85671 0.53301 0.02513 0.0
C614 C 0.82361 0.51663 0.9876 0.0
H615 H 0.8982 0.51595 0.07338 0.0
H616 H 0.86645 0.56694 0.04225 0.0
C617 C 0.81071 0.47231 0.96665 0.0
C618 C 0.67576 0.44253 0.43045 0.0
C619 C 0.68998 0.48541 0.45591 0.0
H620 H 0.6194 0.38311 0.39264 0.0
C621 C 0.65848 0.50459 0.45607 0.0
H622 H 0.69966 0.4281 0.42535 0.0
C623 C 0.61309 0.48002 0.43372 0.0
C624 C 0.59795 0.4353 0.41182 0.0
H625 H 0.66876 0.5384 0.47372 0.0
H626 H 0.5889 0.49472 0.43559 0.0
C627 C 0.63007 0.41734 0.40968 0.0
C628 C 0.57099 0.17928 0.49738 0.0
C629 C 0.55811 0.15022 0.45705 0.0
H630 H 0.55278 0.22039 0.54391 0.0
C631 C 0.51347 0.13667 0.43509 0.0
H632 H 0.60445 0.18923 0.51601 0.0
C633 C 0.48403 0.15464 0.45123 0.0
C634 C 0.49857 0.1861 0.48976 0.0
H635 H 0.50209 0.11359 0.40453 0.0
H636 H 0.45124 0.14609 0.432 0.0
C637 C 0.54128 0.19675 0.51375 0.0
C638 C 0.88122 0.36628 0.43157 0.0
C639 C 0.86894 0.39831 0.45298 0.0
H640 H 0.87039 0.29407 0.43129 0.0
C641 C 0.84338 0.38466 0.49555 0.0
H642 H 0.90187 0.37624 0.39939 0.0
C643 C 0.82589 0.3384 0.51373 0.0
C644 C 0.83419 0.30495 0.49016 0.0
H645 H 0.83542 0.40926 0.51432 0.0
H646 H 0.80295 0.32767 0.54447 0.0
C647 C 0.86378 0.31965 0.4501 0.0
C648 C 0.43877 0.61187 0.98462 0.0
C649 C 0.46054 0.59733 0.9502 0.0
H650 H 0.44497 0.66894 0.02838 0.0
C651 C 0.50908 0.6294 0.93754 0.0
H652 H 0.4018 0.58803 -0.00384 0.0
C653 C 0.53411 0.67603 0.95703 0.0
C654 C 0.51087 0.69084 -0.01063 0.0
H655 H 0.52713 0.61902 0.91183 0.0
H656 H 0.57048 0.70133 0.94491 0.0
C657 C 0.46364 0.65799 0.00388 0.0
C658 C 0.32584 0.85622 0.95157 0.0
C659 C 0.30938 0.82864 -0.00716 0.0
H660 H 0.38379 0.89116 0.90197 0.0
C661 C 0.34171 0.81993 0.0188 0.0
H662 H 0.30166 0.86366 0.93092 0.0
C663 C 0.38804 0.83427 0.00155 0.0
C664 C 0.40336 0.8587 0.95848 0.0
H665 H 0.33032 0.79992 0.05133 0.0
H666 H 0.41163 0.82561 0.02176 0.0
C667 C 0.37256 0.87132 0.93461 0.0
C668 C 0.21712 0.59532 0.94362 0.0
C669 C 0.16893 0.5737 0.92743 0.0
H670 H 0.27312 0.58516 0.9733 0.0
C671 C 0.13984 0.52284 0.92879 0.0
H672 H 0.24062 0.63421 0.94316 0.0
C673 C 0.15905 0.49441 0.94566 0.0
C674 C 0.20744 0.51657 0.96133 0.0
H675 H 0.10223 0.50513 0.91747 0.0
H676 H 0.13663 0.45531 0.94531 0.0
C677 C 0.23583 0.5672 0.96098 0.0
C678 C 0.37866 0.50402 0.54781 0.0
C679 C 0.40788 0.55066 0.52909 0.0
H680 H 0.30794 0.43987 0.54779 0.0
C681 C 0.3902 0.56518 0.49081 0.0
H682 H 0.39155 0.49144 0.57673 0.0
C683 C 0.34337 0.53556 0.47383 0.0
C684 C 0.31317 0.49052 0.49443 0.0
H685 H 0.41207 0.60005 0.47436 0.0
H686 H 0.32968 0.54909 0.44638 0.0
C687 C 0.33133 0.47419 0.53073 0.0
C688 C 0.43725 0.80908 0.54944 0.0
C689 C 0.4579 0.85939 0.54976 0.0
H690 H 0.44629 0.74927 0.53585 0.0
C691 C 0.50604 0.8885 0.53459 0.0
H692 H 0.40079 0.7859 0.56255 0.0
C693 C 0.53166 0.86719 0.51573 0.0
C694 C 0.51001 0.8164 0.51327 0.0
H695 H 0.52317 0.92754 0.53584 0.0
H696 H 0.5684 0.89043 0.50327 0.0
C697 C 0.46321 0.78794 0.53242 0.0
C698 C 0.15551 0.67691 0.52398 0.0
C699 C 0.19484 0.6957 0.4928 0.0
H700 H 0.10573 0.61579 0.56528 0.0
C701 C 0.21234 0.66592 0.47662 0.0
H702 H 0.14234 0.69992 0.53766 0.0
C703 C 0.19216 0.61846 0.49265 0.0
C704 C 0.15438 0.59991 0.52581 0.0
H705 H 0.24326 0.68016 0.45323 0.0
H706 H 0.20722 0.5968 0.47982 0.0
C707 C 0.13527 0.6292 0.54035 0.0
loop_
_geom_bond_atom_site_label_1
_geom_bond_atom_site_label_2
_geom_bond_distance
_geom_bond_site_symmetry_2
_ccdc_geom_bond_type
Co0 O3 1.970 . S
Co0 N17 1.989 . S
Co0 O25 1.967 . S
Co0 O32 1.920 . S
Co1 O4 1.966 . S
Co1 N10 2.022 1_554 S
Co1 N18 1.993 . S
Co1 O26 1.941 1_554 S
C2 O3 1.258 . S
C2 O4 1.263 . S
O3 Co0 1.970 . S
O3 C2 1.258 . S
O4 Co1 1.966 . S
O4 C2 1.263 . S
C5 O6 1.235 . S
C5 O32 1.289 . S
O6 C5 1.235 . S
C7 C9 1.400 . S
C7 N10 1.351 . S
C7 C12 1.501 . S
C8 C9 1.387 . S
C8 N11 1.341 . S
C9 C7 1.400 . S
C9 C8 1.387 . S
N10 Co1 2.022 1_556 S
N10 C7 1.351 . S
N10 N11 1.365 . S
N11 C8 1.341 . S
N11 N10 1.365 . S
N11 H31 0.862 . S
C12 C7 1.501 . S
C12 H13 0.961 . S
C12 H14 0.961 . S
C12 H15 0.960 . S
H13 C12 0.961 . S
H14 C12 0.961 . S
H15 C12 0.960 . S
C16 N17 1.342 . S
C16 C20 1.401 . S
C16 C21 1.499 . S
N17 Co0 1.989 . S
N17 C16 1.342 . S
N17 N18 1.388 . S
N18 Co1 1.993 . S
N18 N17 1.388 . S
N18 C19 1.346 . S
C19 N18 1.346 . S
C19 C20 1.396 . S
C19 C29 1.510 . S
C20 C16 1.401 . S
C20 C19 1.396 . S
C21 C16 1.499 . S
C21 H22 0.959 . S
C21 H23 0.960 . S
C21 H24 0.961 . S
H22 C21 0.959 . S
H23 C21 0.960 . S
H24 C21 0.961 . S
O25 Co0 1.967 . S
O25 C33 1.258 . S
O26 Co1 1.941 1_556 S
O26 C33 1.266 1_556 S
H27 C29 0.959 . S
H28 C29 0.961 . S
C29 C19 1.510 . S
C29 H27 0.959 . S
C29 H28 0.961 . S
C29 H30 0.960 . S
H30 C29 0.960 . S
H31 N11 0.862 . S
O32 Co0 1.920 . S
O32 C5 1.289 . S
C33 O25 1.258 . S
C33 O26 1.266 1_554 S
Co34 O37 1.970 . S
Co34 N51 1.989 . S
Co34 O59 1.967 . S
Co34 O66 1.920 . S
Co35 O38 1.966 . S
Co35 N44 2.022 1_554 S
Co35 N52 1.993 . S
Co35 O60 1.941 1_554 S
C36 O37 1.258 . S
C36 O38 1.263 . S
O37 Co34 1.970 . S
O37 C36 1.258 . S
O38 Co35 1.966 . S
O38 C36 1.263 . S
C39 O40 1.235 . S
C39 O66 1.289 . S
O40 C39 1.235 . S
C41 C43 1.400 . S
C41 N44 1.351 . S
C41 C46 1.501 . S
C42 C43 1.387 . S
C42 N45 1.341 . S
C43 C41 1.400 . S
C43 C42 1.387 . S
N44 Co35 2.022 1_556 S
N44 C41 1.351 . S
N44 N45 1.365 . S
N45 C42 1.341 . S
N45 N44 1.365 . S
N45 H65 0.862 . S
C46 C41 1.501 . S
C46 H47 0.961 . S
C46 H48 0.961 . S
C46 H49 0.960 . S
H47 C46 0.961 . S
H48 C46 0.961 . S
H49 C46 0.960 . S
C50 N51 1.342 . S
C50 C54 1.401 . S
C50 C55 1.499 . S
N51 Co34 1.989 . S
N51 C50 1.342 . S
N51 N52 1.388 . S
N52 Co35 1.993 . S
N52 N51 1.388 . S
N52 C53 1.346 . S
C53 N52 1.346 . S
C53 C54 1.396 . S
C53 C63 1.510 . S
C54 C50 1.401 . S
C54 C53 1.396 . S
C55 C50 1.499 . S
C55 H56 0.959 . S
C55 H57 0.960 . S
C55 H58 0.961 . S
H56 C55 0.959 . S
H57 C55 0.960 . S
H58 C55 0.961 . S
O59 Co34 1.967 . S
O59 C67 1.258 . S
O60 Co35 1.941 1_556 S
O60 C67 1.266 1_556 S
H61 C63 0.959 . S
H62 C63 0.961 . S
C63 C53 1.510 . S
C63 H61 0.959 . S
C63 H62 0.961 . S
C63 H64 0.960 . S
H64 C63 0.960 . S
H65 N45 0.862 . S
O66 Co34 1.920 . S
O66 C39 1.289 . S
C67 O59 1.258 . S
C67 O60 1.266 1_554 S
Co68 O71 1.970 . S
Co68 N85 1.989 . S
Co68 O93 1.967 . S
Co68 O100 1.920 . S
Co69 O72 1.966 . S
Co69 N78 2.022 1_554 S
Co69 N86 1.993 . S
Co69 O94 1.941 1_554 S
C70 O71 1.258 . S
C70 O72 1.263 . S
O71 Co68 1.970 . S
O71 C70 1.258 . S
O72 Co69 1.966 . S
O72 C70 1.263 . S
C73 O74 1.235 . S
C73 O100 1.289 . S
O74 C73 1.235 . S
C75 C77 1.400 . S
C75 N78 1.351 . S
C75 C80 1.501 . S
C76 C77 1.387 . S
C76 N79 1.341 . S
C77 C75 1.400 . S
C77 C76 1.387 . S
N78 Co69 2.022 1_556 S
N78 C75 1.351 . S
N78 N79 1.365 . S
N79 C76 1.341 . S
N79 N78 1.365 . S
N79 H99 0.862 . S
C80 C75 1.501 . S
C80 H81 0.961 . S
C80 H82 0.961 . S
C80 H83 0.960 . S
H81 C80 0.961 . S
H82 C80 0.961 . S
H83 C80 0.960 . S
C84 N85 1.342 . S
C84 C88 1.401 . S
C84 C89 1.499 . S
N85 Co68 1.989 . S
N85 C84 1.342 . S
N85 N86 1.388 . S
N86 Co69 1.993 . S
N86 N85 1.388 . S
N86 C87 1.346 . S
C87 N86 1.346 . S
C87 C88 1.396 . S
C87 C97 1.510 . S
C88 C84 1.401 . S
C88 C87 1.396 . S
C89 C84 1.499 . S
C89 H90 0.959 . S
C89 H91 0.960 . S
C89 H92 0.961 . S
H90 C89 0.959 . S
H91 C89 0.960 . S
H92 C89 0.961 . S
O93 Co68 1.967 . S
O93 C101 1.258 . S
O94 Co69 1.941 1_556 S
O94 C101 1.266 1_556 S
H95 C97 0.959 . S
H96 C97 0.961 . S
C97 C87 1.510 . S
C97 H95 0.959 . S
C97 H96 0.961 . S
C97 H98 0.960 . S
H98 C97 0.960 . S
H99 N79 0.862 . S
O100 Co68 1.920 . S
O100 C73 1.289 . S
C101 O93 1.258 . S
C101 O94 1.266 1_554 S
Co102 O105 1.970 . S
Co102 N119 1.989 . S
Co102 O127 1.967 . S
Co102 O134 1.920 . S
Co103 O106 1.966 . S
Co103 N112 2.022 . S
Co103 N120 1.993 . S
Co103 O128 1.941 . S
C104 O105 1.258 . S
C104 O106 1.263 . S
O105 Co102 1.970 . S
O105 C104 1.258 . S
O106 Co103 1.966 . S
O106 C104 1.263 . S
C107 O108 1.235 . S
C107 O134 1.289 . S
O108 C107 1.235 . S
C109 C111 1.400 . S
C109 N112 1.351 . S
C109 C114 1.501 . S
C110 C111 1.387 . S
C110 N113 1.341 . S
C111 C109 1.400 . S
C111 C110 1.387 . S
N112 Co103 2.022 . S
N112 C109 1.351 . S
N112 N113 1.365 . S
N113 C110 1.341 . S
N113 N112 1.365 . S
N113 H133 0.862 . S
C114 C109 1.501 . S
C114 H115 0.961 . S
C114 H116 0.961 . S
C114 H117 0.960 . S
H115 C114 0.961 . S
H116 C114 0.961 . S
H117 C114 0.960 . S
C118 N119 1.342 . S
C118 C122 1.401 . S
C118 C123 1.499 . S
N119 Co102 1.989 . S
N119 C118 1.342 . S
N119 N120 1.388 . S
N120 Co103 1.993 . S
N120 N119 1.388 . S
N120 C121 1.346 . S
C121 N120 1.346 . S
C121 C122 1.396 . S
C121 C131 1.510 . S
C122 C118 1.401 . S
C122 C121 1.396 . S
C123 C118 1.499 . S
C123 H124 0.959 . S
C123 H125 0.960 . S
C123 H126 0.961 . S
H124 C123 0.959 . S
H125 C123 0.960 . S
H126 C123 0.961 . S
O127 Co102 1.967 . S
O127 C135 1.258 . S
O128 Co103 1.941 . S
O128 C135 1.266 . S
H129 C131 0.959 . S
H130 C131 0.961 . S
C131 C121 1.510 . S
C131 H129 0.959 . S
C131 H130 0.961 . S
C131 H132 0.960 . S
H132 C131 0.960 . S
H133 N113 0.862 . S
O134 Co102 1.920 . S
O134 C107 1.289 . S
C135 O127 1.258 . S
C135 O128 1.266 . S
Co136 O139 1.970 . S
Co136 N153 1.989 . S
Co136 O161 1.967 . S
Co136 O168 1.920 . S
Co137 O140 1.966 . S
Co137 N146 2.022 . S
Co137 N154 1.993 . S
Co137 O162 1.941 . S
C138 O139 1.258 . S
C138 O140 1.263 . S
O139 Co136 1.970 . S
O139 C138 1.258 . S
O140 Co137 1.966 . S
O140 C138 1.263 . S
C141 O142 1.235 . S
C141 O168 1.289 . S
O142 C141 1.235 . S
C143 C145 1.400 . S
C143 N146 1.351 . S
C143 C148 1.501 . S
C144 C145 1.387 . S
C144 N147 1.341 . S
C145 C143 1.400 . S
C145 C144 1.387 . S
N146 Co137 2.022 . S
N146 C143 1.351 . S
N146 N147 1.365 . S
N147 C144 1.341 . S
N147 N146 1.365 . S
N147 H167 0.862 . S
C148 C143 1.501 . S
C148 H149 0.961 . S
C148 H150 0.961 . S
C148 H151 0.960 . S
H149 C148 0.961 . S
H150 C148 0.961 . S
H151 C148 0.960 . S
C152 N153 1.342 . S
C152 C156 1.401 . S
C152 C157 1.499 . S
N153 Co136 1.989 . S
N153 C152 1.342 . S
N153 N154 1.388 . S
N154 Co137 1.993 . S
N154 N153 1.388 . S
N154 C155 1.346 . S
C155 N154 1.346 . S
C155 C156 1.396 . S
C155 C165 1.510 . S
C156 C152 1.401 . S
C156 C155 1.396 . S
C157 C152 1.499 . S
C157 H158 0.959 . S
C157 H159 0.960 . S
C157 H160 0.961 . S
H158 C157 0.959 . S
H159 C157 0.960 . S
H160 C157 0.961 . S
O161 Co136 1.967 . S
O161 C169 1.258 . S
O162 Co137 1.941 . S
O162 C169 1.266 . S
H163 C165 0.959 . S
H164 C165 0.961 . S
C165 C155 1.510 . S
C165 H163 0.959 . S
C165 H164 0.961 . S
C165 H166 0.960 . S
H166 C165 0.960 . S
H167 N147 0.862 . S
O168 Co136 1.920 . S
O168 C141 1.289 . S
C169 O161 1.258 . S
C169 O162 1.266 . S
Co170 O173 1.970 . S
Co170 N187 1.989 . S
Co170 O195 1.967 . S
Co170 O202 1.920 . S
Co171 O174 1.966 . S
Co171 N180 2.022 . S
Co171 N188 1.993 . S
Co171 O196 1.941 . S
C172 O173 1.258 . S
C172 O174 1.263 . S
O173 Co170 1.970 . S
O173 C172 1.258 . S
O174 Co171 1.966 . S
O174 C172 1.263 . S
C175 O176 1.235 . S
C175 O202 1.289 . S
O176 C175 1.235 . S
C177 C179 1.400 . S
C177 N180 1.351 . S
C177 C182 1.501 . S
C178 C179 1.387 . S
C178 N181 1.341 . S
C179 C177 1.400 . S
C179 C178 1.387 . S
N180 Co171 2.022 . S
N180 C177 1.351 . S
N180 N181 1.365 . S
N181 C178 1.341 . S
N181 N180 1.365 . S
N181 H201 0.862 . S
C182 C177 1.501 . S
C182 H183 0.961 . S
C182 H184 0.961 . S
C182 H185 0.960 . S
H183 C182 0.961 . S
H184 C182 0.961 . S
H185 C182 0.960 . S
C186 N187 1.342 . S
C186 C190 1.401 . S
C186 C191 1.499 . S
N187 Co170 1.989 . S
N187 C186 1.342 . S
N187 N188 1.388 . S
N188 Co171 1.993 . S
N188 N187 1.388 . S
N188 C189 1.346 . S
C189 N188 1.346 . S
C189 C190 1.396 . S
C189 C199 1.510 . S
C190 C186 1.401 . S
C190 C189 1.396 . S
C191 C186 1.499 . S
C191 H192 0.959 . S
C191 H193 0.960 . S
C191 H194 0.961 . S
H192 C191 0.959 . S
H193 C191 0.960 . S
H194 C191 0.961 . S
O195 Co170 1.967 . S
O195 C203 1.258 . S
O196 Co171 1.941 . S
O196 C203 1.266 . S
H197 C199 0.959 . S
H198 C199 0.961 . S
C199 C189 1.510 . S
C199 H197 0.959 . S
C199 H198 0.961 . S
C199 H200 0.960 . S
H200 C199 0.960 . S
H201 N181 0.862 . S
O202 Co170 1.920 . S
O202 C175 1.289 . S
C203 O195 1.258 . S
C203 O196 1.266 . S
Co204 O207 1.970 . S
Co204 N221 1.989 . S
Co204 O229 1.967 . S
Co204 O236 1.920 . S
Co205 O208 1.966 . S
Co205 N214 2.022 1_556 S
Co205 N222 1.993 . S
Co205 O230 1.941 1_556 S
C206 O207 1.258 . S
C206 O208 1.263 . S
O207 Co204 1.970 . S
O207 C206 1.258 . S
O208 Co205 1.966 . S
O208 C206 1.263 . S
C209 O210 1.235 . S
C209 O236 1.289 . S
O210 C209 1.235 . S
C211 C213 1.400 . S
C211 N214 1.351 . S
C211 C216 1.501 . S
C212 C213 1.387 . S
C212 N215 1.341 . S
C213 C211 1.400 . S
C213 C212 1.387 . S
N214 Co205 2.022 1_554 S
N214 C211 1.351 . S
N214 N215 1.365 . S
N215 C212 1.341 . S
N215 N214 1.365 . S
N215 H235 0.862 . S
C216 C211 1.501 . S
C216 H217 0.961 . S
C216 H218 0.961 . S
C216 H219 0.960 . S
H217 C216 0.961 . S
H218 C216 0.961 . S
H219 C216 0.960 . S
C220 N221 1.342 . S
C220 C224 1.401 . S
C220 C225 1.499 . S
N221 Co204 1.989 . S
N221 C220 1.342 . S
N221 N222 1.388 . S
N222 Co205 1.993 . S
N222 N221 1.388 . S
N222 C223 1.346 . S
C223 N222 1.346 . S
C223 C224 1.396 . S
C223 C233 1.510 . S
C224 C220 1.401 . S
C224 C223 1.396 . S
C225 C220 1.499 . S
C225 H226 0.959 . S
C225 H227 0.960 . S
C225 H228 0.961 . S
H226 C225 0.959 . S
H227 C225 0.960 . S
H228 C225 0.961 . S
O229 Co204 1.967 . S
O229 C237 1.258 . S
O230 Co205 1.941 1_554 S
O230 C237 1.266 1_554 S
H231 C233 0.959 . S
H232 C233 0.961 . S
C233 C223 1.510 . S
C233 H231 0.959 . S
C233 H232 0.961 . S
C233 H234 0.960 . S
H234 C233 0.960 . S
H235 N215 0.862 . S
O236 Co204 1.920 . S
O236 C209 1.289 . S
C237 O229 1.258 . S
C237 O230 1.266 1_556 S
Co238 O241 1.970 . S
Co238 N255 1.989 . S
Co238 O263 1.967 . S
Co238 O270 1.920 . S
Co239 O242 1.966 . S
Co239 N248 2.022 1_556 S
Co239 N256 1.993 . S
Co239 O264 1.941 1_556 S
C240 O241 1.258 . S
C240 O242 1.263 . S
O241 Co238 1.970 . S
O241 C240 1.258 . S
O242 Co239 1.966 . S
O242 C240 1.263 . S
C243 O244 1.235 . S
C243 O270 1.289 . S
O244 C243 1.235 . S
C245 C247 1.400 . S
C245 N248 1.351 . S
C245 C250 1.501 . S
C246 C247 1.387 . S
C246 N249 1.341 . S
C247 C245 1.400 . S
C247 C246 1.387 . S
N248 Co239 2.022 1_554 S
N248 C245 1.351 . S
N248 N249 1.365 . S
N249 C246 1.341 . S
N249 N248 1.365 . S
N249 H269 0.862 . S
C250 C245 1.501 . S
C250 H251 0.961 . S
C250 H252 0.961 . S
C250 H253 0.960 . S
H251 C250 0.961 . S
H252 C250 0.961 . S
H253 C250 0.960 . S
C254 N255 1.342 . S
C254 C258 1.401 . S
C254 C259 1.499 . S
N255 Co238 1.989 . S
N255 C254 1.342 . S
N255 N256 1.388 . S
N256 Co239 1.993 . S
N256 N255 1.388 . S
N256 C257 1.346 . S
C257 N256 1.346 . S
C257 C258 1.396 . S
C257 C267 1.510 . S
C258 C254 1.401 . S
C258 C257 1.396 . S
C259 C254 1.499 . S
C259 H260 0.959 . S
C259 H261 0.960 . S
C259 H262 0.961 . S
H260 C259 0.959 . S
H261 C259 0.960 . S
H262 C259 0.961 . S
O263 Co238 1.967 . S
O263 C271 1.258 . S
O264 Co239 1.941 1_554 S
O264 C271 1.266 1_554 S
H265 C267 0.959 . S
H266 C267 0.961 . S
C267 C257 1.510 . S
C267 H265 0.959 . S
C267 H266 0.961 . S
C267 H268 0.960 . S
H268 C267 0.960 . S
H269 N249 0.862 . S
O270 Co238 1.920 . S
O270 C243 1.289 . S
C271 O263 1.258 . S
C271 O264 1.266 1_556 S
Co272 O275 1.970 . S
Co272 N289 1.989 . S
Co272 O297 1.967 . S
Co272 O304 1.920 . S
Co273 O276 1.966 . S
Co273 N282 2.022 1_556 S
Co273 N290 1.993 . S
Co273 O298 1.941 1_556 S
C274 O275 1.258 . S
C274 O276 1.263 . S
O275 Co272 1.970 . S
O275 C274 1.258 . S
O276 Co273 1.966 . S
O276 C274 1.263 . S
C277 O278 1.235 . S
C277 O304 1.289 . S
O278 C277 1.235 . S
C279 C281 1.400 . S
C279 N282 1.351 . S
C279 C284 1.501 . S
C280 C281 1.387 . S
C280 N283 1.341 . S
C281 C279 1.400 . S
C281 C280 1.387 . S
N282 Co273 2.022 1_554 S
N282 C279 1.351 . S
N282 N283 1.365 . S
N283 C280 1.341 . S
N283 N282 1.365 . S
N283 H303 0.862 . S
C284 C279 1.501 . S
C284 H285 0.961 . S
C284 H286 0.961 . S
C284 H287 0.960 . S
H285 C284 0.961 . S
H286 C284 0.961 . S
H287 C284 0.960 . S
C288 N289 1.342 . S
C288 C292 1.401 . S
C288 C293 1.499 . S
N289 Co272 1.989 . S
N289 C288 1.342 . S
N289 N290 1.388 . S
N290 Co273 1.993 . S
N290 N289 1.388 . S
N290 C291 1.346 . S
C291 N290 1.346 . S
C291 C292 1.396 . S
C291 C301 1.510 . S
C292 C288 1.401 . S
C292 C291 1.396 . S
C293 C288 1.499 . S
C293 H294 0.959 . S
C293 H295 0.960 . S
C293 H296 0.961 . S
H294 C293 0.959 . S
H295 C293 0.960 . S
H296 C293 0.961 . S
O297 Co272 1.967 . S
O297 C305 1.258 . S
O298 Co273 1.941 1_554 S
O298 C305 1.266 1_554 S
H299 C301 0.959 . S
H300 C301 0.961 . S
C301 C291 1.510 . S
C301 H299 0.959 . S
C301 H300 0.961 . S
C301 H302 0.960 . S
H302 C301 0.960 . S
H303 N283 0.862 . S
O304 Co272 1.920 . S
O304 C277 1.289 . S
C305 O297 1.258 . S
C305 O298 1.266 1_556 S
Co306 O309 1.970 . S
Co306 N323 1.989 . S
Co306 O331 1.967 . S
Co306 O338 1.920 . S
Co307 O310 1.966 . S
Co307 N316 2.022 . S
Co307 N324 1.993 . S
Co307 O332 1.941 . S
C308 O309 1.258 . S
C308 O310 1.263 . S
O309 Co306 1.970 . S
O309 C308 1.258 . S
O310 Co307 1.966 . S
O310 C308 1.263 . S
C311 O312 1.235 . S
C311 O338 1.289 . S
O312 C311 1.235 . S
C313 C315 1.400 . S
C313 N316 1.351 . S
C313 C318 1.501 . S
C314 C315 1.387 . S
C314 N317 1.341 . S
C315 C313 1.400 . S
C315 C314 1.387 . S
N316 Co307 2.022 . S
N316 C313 1.351 . S
N316 N317 1.365 . S
N317 C314 1.341 . S
N317 N316 1.365 . S
N317 H337 0.862 . S
C318 C313 1.501 . S
C318 H319 0.961 . S
C318 H320 0.961 . S
C318 H321 0.960 . S
H319 C318 0.961 . S
H320 C318 0.961 . S
H321 C318 0.960 . S
C322 N323 1.342 . S
C322 C326 1.401 . S
C322 C327 1.499 . S
N323 Co306 1.989 . S
N323 C322 1.342 . S
N323 N324 1.388 . S
N324 Co307 1.993 . S
N324 N323 1.388 . S
N324 C325 1.346 . S
C325 N324 1.346 . S
C325 C326 1.396 . S
C325 C335 1.510 . S
C326 C322 1.401 . S
C326 C325 1.396 . S
C327 C322 1.499 . S
C327 H328 0.959 . S
C327 H329 0.960 . S
C327 H330 0.961 . S
H328 C327 0.959 . S
H329 C327 0.960 . S
H330 C327 0.961 . S
O331 Co306 1.967 . S
O331 C339 1.258 . S
O332 Co307 1.941 . S
O332 C339 1.266 . S
H333 C335 0.959 . S
H334 C335 0.961 . S
C335 C325 1.510 . S
C335 H333 0.959 . S
C335 H334 0.961 . S
C335 H336 0.960 . S
H336 C335 0.960 . S
H337 N317 0.862 . S
O338 Co306 1.920 . S
O338 C311 1.289 . S
C339 O331 1.258 . S
C339 O332 1.266 . S
Co340 O343 1.970 . S
Co340 N357 1.989 . S
Co340 O365 1.967 . S
Co340 O372 1.920 . S
Co341 O344 1.966 . S
Co341 N350 2.022 . S
Co341 N358 1.993 . S
Co341 O366 1.941 . S
C342 O343 1.258 . S
C342 O344 1.263 . S
O343 Co340 1.970 . S
O343 C342 1.258 . S
O344 Co341 1.966 . S
O344 C342 1.263 . S
C345 O346 1.235 . S
C345 O372 1.289 . S
O346 C345 1.235 . S
C347 C349 1.400 . S
C347 N350 1.351 . S
C347 C352 1.501 . S
C348 C349 1.387 . S
C348 N351 1.341 . S
C349 C347 1.400 . S
C349 C348 1.387 . S
N350 Co341 2.022 . S
N350 C347 1.351 . S
N350 N351 1.365 . S
N351 C348 1.341 . S
N351 N350 1.365 . S
N351 H371 0.862 . S
C352 C347 1.501 . S
C352 H353 0.961 . S
C352 H354 0.961 . S
C352 H355 0.960 . S
H353 C352 0.961 . S
H354 C352 0.961 . S
H355 C352 0.960 . S
C356 N357 1.342 . S
C356 C360 1.401 . S
C356 C361 1.499 . S
N357 Co340 1.989 . S
N357 C356 1.342 . S
N357 N358 1.388 . S
N358 Co341 1.993 . S
N358 N357 1.388 . S
N358 C359 1.346 . S
C359 N358 1.346 . S
C359 C360 1.396 . S
C359 C369 1.510 . S
C360 C356 1.401 . S
C360 C359 1.396 . S
C361 C356 1.499 . S
C361 H362 0.959 . S
C361 H363 0.960 . S
C361 H364 0.961 . S
H362 C361 0.959 . S
H363 C361 0.960 . S
H364 C361 0.961 . S
O365 Co340 1.967 . S
O365 C373 1.258 . S
O366 Co341 1.941 . S
O366 C373 1.266 . S
H367 C369 0.959 . S
H368 C369 0.961 . S
C369 C359 1.510 . S
C369 H367 0.959 . S
C369 H368 0.961 . S
C369 H370 0.960 . S
H370 C369 0.960 . S
H371 N351 0.862 . S
O372 Co340 1.920 . S
O372 C345 1.289 . S
C373 O365 1.258 . S
C373 O366 1.266 . S
Co374 O377 1.970 . S
Co374 N391 1.989 . S
Co374 O399 1.967 . S
Co374 O406 1.920 . S
Co375 O378 1.966 . S
Co375 N384 2.022 . S
Co375 N392 1.993 . S
Co375 O400 1.941 . S
C376 O377 1.258 . S
C376 O378 1.263 . S
O377 Co374 1.970 . S
O377 C376 1.258 . S
O378 Co375 1.966 . S
O378 C376 1.263 . S
C379 O380 1.235 . S
C379 O406 1.289 . S
O380 C379 1.235 . S
C381 C383 1.400 . S
C381 N384 1.351 . S
C381 C386 1.501 . S
C382 C383 1.387 . S
C382 N385 1.341 . S
C383 C381 1.400 . S
C383 C382 1.387 . S
N384 Co375 2.022 . S
N384 C381 1.351 . S
N384 N385 1.365 . S
N385 C382 1.341 . S
N385 N384 1.365 . S
N385 H405 0.862 . S
C386 C381 1.501 . S
C386 H387 0.961 . S
C386 H388 0.961 . S
C386 H389 0.960 . S
H387 C386 0.961 . S
H388 C386 0.961 . S
H389 C386 0.960 . S
C390 N391 1.342 . S
C390 C394 1.401 . S
C390 C395 1.499 . S
N391 Co374 1.989 . S
N391 C390 1.342 . S
N391 N392 1.388 . S
N392 Co375 1.993 . S
N392 N391 1.388 . S
N392 C393 1.346 . S
C393 N392 1.346 . S
C393 C394 1.396 . S
C393 C403 1.510 . S
C394 C390 1.401 . S
C394 C393 1.396 . S
C395 C390 1.499 . S
C395 H396 0.959 . S
C395 H397 0.960 . S
C395 H398 0.961 . S
H396 C395 0.959 . S
H397 C395 0.960 . S
H398 C395 0.961 . S
O399 Co374 1.967 . S
O399 C407 1.258 . S
O400 Co375 1.941 . S
O400 C407 1.266 . S
H401 C403 0.959 . S
H402 C403 0.961 . S
C403 C393 1.510 . S
C403 H401 0.959 . S
C403 H402 0.961 . S
C403 H404 0.960 . S
H404 C403 0.960 . S
H405 N385 0.862 . S
O406 Co374 1.920 . S
O406 C379 1.289 . S
C407 O399 1.258 . S
C407 O400 1.266 . S
C408 C409 1.387 . S
C408 H412 0.950 . S
C408 C417 1.390 . S
C409 C408 1.387 . S
C409 C411 1.387 1_545 S
H410 C417 0.950 . S
C411 C409 1.387 1_565 S
C411 C413 1.390 . S
C411 H415 0.950 . S
H412 C408 0.950 . S
C413 C411 1.390 . S
C413 C414 1.387 1_565 S
C413 H416 0.950 . S
C414 C413 1.387 1_545 S
C414 C417 1.387 . S
H415 C411 0.950 . S
H416 C413 0.950 . S
C417 C408 1.390 . S
C417 H410 0.950 . S
C417 C414 1.387 . S
C418 C419 1.387 . S
C418 H422 0.950 . S
C418 C427 1.390 . S
C419 C418 1.387 . S
C419 C421 1.387 1_655 S
H420 C427 0.950 . S
C421 C419 1.387 1_455 S
C421 C423 1.390 . S
C421 H425 0.950 . S
H422 C418 0.950 . S
C423 C421 1.390 . S
C423 C424 1.387 1_455 S
C423 H426 0.950 . S
C424 C423 1.387 1_655 S
C424 C427 1.387 . S
H425 C421 0.950 . S
H426 C423 0.950 . S
C427 C418 1.390 . S
C427 H420 0.950 . S
C427 C424 1.387 . S
C428 C429 1.387 . S
C428 H432 0.950 . S
C428 C437 1.390 . S
C429 C428 1.387 . S
C429 C431 1.387 . S
H430 C437 0.950 . S
C431 C429 1.387 . S
C431 C433 1.390 . S
C431 H435 0.950 . S
H432 C428 0.950 . S
C433 C431 1.390 . S
C433 C434 1.387 . S
C433 H436 0.950 . S
C434 C433 1.387 . S
C434 C437 1.387 . S
H435 C431 0.950 . S
H436 C433 0.950 . S
C437 C428 1.390 . S
C437 H430 0.950 . S
C437 C434 1.387 . S
C438 C439 1.387 . S
C438 H442 0.950 . S
C438 C447 1.390 . S
C439 C438 1.387 . S
C439 C441 1.387 1_565 S
H440 C447 0.950 . S
C441 C439 1.387 1_545 S
C441 C443 1.390 . S
C441 H445 0.950 . S
H442 C438 0.950 . S
C443 C441 1.390 . S
C443 C444 1.387 1_545 S
C443 H446 0.950 . S
C444 C443 1.387 1_565 S
C444 C447 1.387 . S
H445 C441 0.950 . S
H446 C443 0.950 . S
C447 C438 1.390 . S
C447 H440 0.950 . S
C447 C444 1.387 . S
C448 C449 1.387 . S
C448 H452 0.950 . S
C448 C457 1.390 . S
C449 C448 1.387 . S
C449 C451 1.387 1_455 S
H450 C457 0.950 . S
C451 C449 1.387 1_655 S
C451 C453 1.390 . S
C451 H455 0.950 . S
H452 C448 0.950 . S
C453 C451 1.390 . S
C453 C454 1.387 1_655 S
C453 H456 0.950 . S
C454 C453 1.387 1_455 S
C454 C457 1.387 . S
H455 C451 0.950 . S
H456 C453 0.950 . S
C457 C448 1.390 . S
C457 H450 0.950 . S
C457 C454 1.387 . S
C458 C459 1.387 . S
C458 H462 0.950 . S
C458 C467 1.390 . S
C459 C458 1.387 . S
C459 C461 1.387 . S
H460 C467 0.950 . S
C461 C459 1.387 . S
C461 C463 1.390 . S
C461 H465 0.950 . S
H462 C458 0.950 . S
C463 C461 1.390 . S
C463 C464 1.387 . S
C463 H466 0.950 . S
C464 C463 1.387 . S
C464 C467 1.387 . S
H465 C461 0.950 . S
H466 C463 0.950 . S
C467 C458 1.390 . S
C467 H460 0.950 . S
C467 C464 1.387 . S
C468 C469 1.387 1_554 S
C468 H472 0.950 . S
C468 C477 1.390 . S
C469 C468 1.387 1_556 S
C469 C471 1.387 1_545 S
H470 C477 0.950 . S
C471 C469 1.387 1_565 S
C471 C473 1.390 . S
C471 H475 0.950 . S
H472 C468 0.950 . S
C473 C471 1.390 . S
C473 C474 1.387 1_556 S
C473 H476 0.950 . S
C474 C473 1.387 1_554 S
C474 C477 1.387 1_565 S
H475 C471 0.950 . S
H476 C473 0.950 . S
C477 C468 1.390 . S
C477 H470 0.950 . S
C477 C474 1.387 1_545 S
C478 C479 1.387 1_554 S
C478 H482 0.950 . S
C478 C487 1.390 1_655 S
C479 C478 1.387 1_556 S
C479 C481 1.387 . S
H480 C487 0.950 . S
C481 C479 1.387 . S
C481 C483 1.390 1_655 S
C481 H485 0.950 . S
H482 C478 0.950 . S
C483 C481 1.390 1_455 S
C483 C484 1.387 1_556 S
C483 H486 0.950 . S
C484 C483 1.387 1_554 S
C484 C487 1.387 . S
H485 C481 0.950 . S
H486 C483 0.950 . S
C487 C478 1.390 1_455 S
C487 H480 0.950 . S
C487 C484 1.387 . S
C488 C489 1.387 . S
C488 H492 0.950 . S
C488 C497 1.390 . S
C489 C488 1.387 . S
C489 C491 1.387 1_554 S
H490 C497 0.950 . S
C491 C489 1.387 1_556 S
C491 C493 1.390 . S
C491 H495 0.950 . S
H492 C488 0.950 . S
C493 C491 1.390 . S
C493 C494 1.387 . S
C493 H496 0.950 . S
C494 C493 1.387 . S
C494 C497 1.387 1_556 S
H495 C491 0.950 . S
H496 C493 0.950 . S
C497 C488 1.390 . S
C497 H490 0.950 . S
C497 C494 1.387 1_554 S
C498 C499 1.387 . S
C498 H502 0.950 . S
C498 C507 1.390 . S
C499 C498 1.387 . S
C499 C501 1.387 1_455 S
H500 C507 0.950 . S
C501 C499 1.387 1_655 S
C501 C503 1.390 . S
C501 H505 0.950 . S
H502 C498 0.950 . S
C503 C501 1.390 . S
C503 C504 1.387 . S
C503 H506 0.950 . S
C504 C503 1.387 . S
C504 C507 1.387 1_655 S
H505 C501 0.950 . S
H506 C503 0.950 . S
C507 C498 1.390 . S
C507 H500 0.950 . S
C507 C504 1.387 1_455 S
C508 C509 1.387 . S
C508 H512 0.950 . S
C508 C517 1.390 . S
C509 C508 1.387 . S
C509 C511 1.387 . S
H510 C517 0.950 . S
C511 C509 1.387 . S
C511 C513 1.390 . S
C511 H515 0.950 . S
H512 C508 0.950 . S
C513 C511 1.390 . S
C513 C514 1.387 . S
C513 H516 0.950 . S
C514 C513 1.387 . S
C514 C517 1.387 . S
H515 C511 0.950 . S
H516 C513 0.950 . S
C517 C508 1.390 . S
C517 H510 0.950 . S
C517 C514 1.387 . S
C518 C519 1.387 . S
C518 H522 0.950 . S
C518 C527 1.390 . S
C519 C518 1.387 . S
C519 C521 1.387 1_545 S
H520 C527 0.950 . S
C521 C519 1.387 1_565 S
C521 C523 1.390 . S
C521 H525 0.950 . S
H522 C518 0.950 . S
C523 C521 1.390 . S
C523 C524 1.387 . S
C523 H526 0.950 . S
C524 C523 1.387 . S
C524 C527 1.387 1_565 S
H525 C521 0.950 . S
H526 C523 0.950 . S
C527 C518 1.390 . S
C527 H520 0.950 . S
C527 C524 1.387 1_545 S
C528 C529 1.387 . S
C528 H532 0.950 . S
C528 C537 1.390 . S
C529 C528 1.387 . S
C529 C531 1.387 . S
H530 C537 0.950 . S
C531 C529 1.387 . S
C531 C533 1.390 . S
C531 H535 0.950 . S
H532 C528 0.950 . S
C533 C531 1.390 . S
C533 C534 1.387 . S
C533 H536 0.950 . S
C534 C533 1.387 . S
C534 C537 1.387 . S
H535 C531 0.950 . S
H536 C533 0.950 . S
C537 C528 1.390 . S
C537 H530 0.950 . S
C537 C534 1.387 . S
C538 C539 1.387 . S
C538 H542 0.950 . S
C538 C547 1.390 . S
C539 C538 1.387 . S
C539 C541 1.387 . S
H540 C547 0.950 . S
C541 C539 1.387 . S
C541 C543 1.390 . S
C541 H545 0.950 . S
H542 C538 0.950 . S
C543 C541 1.390 . S
C543 C544 1.387 . S
C543 H546 0.950 . S
C544 C543 1.387 . S
C544 C547 1.387 . S
H545 C541 0.950 . S
H546 C543 0.950 . S
C547 C538 1.390 . S
C547 H540 0.950 . S
C547 C544 1.387 . S
C548 C549 1.387 . S
C548 H552 0.950 . S
C548 C557 1.390 . S
C549 C548 1.387 . S
C549 C551 1.387 . S
H550 C557 0.950 . S
C551 C549 1.387 . S
C551 C553 1.390 . S
C551 H555 0.950 . S
H552 C548 0.950 . S
C553 C551 1.390 . S
C553 C554 1.387 . S
C553 H556 0.950 . S
C554 C553 1.387 . S
C554 C557 1.387 . S
H555 C551 0.950 . S
H556 C553 0.950 . S
C557 C548 1.390 . S
C557 H550 0.950 . S
C557 C554 1.387 . S
C558 C559 1.387 . S
C558 H562 0.950 . S
C558 C567 1.390 . S
C559 C558 1.387 . S
C559 C561 1.387 . S
H560 C567 0.950 . S
C561 C559 1.387 . S
C561 C563 1.390 . S
C561 H565 0.950 . S
H562 C558 0.950 . S
C563 C561 1.390 . S
C563 C564 1.387 . S
C563 H566 0.950 . S
C564 C563 1.387 . S
C564 C567 1.387 . S
H565 C561 0.950 . S
H566 C563 0.950 . S
C567 C558 1.390 . S
C567 H560 0.950 . S
C567 C564 1.387 . S
C568 C569 1.387 . S
C568 H572 0.950 . S
C568 C577 1.390 . S
C569 C568 1.387 . S
C569 C571 1.387 . S
H570 C577 0.950 . S
C571 C569 1.387 . S
C571 C573 1.390 . S
C571 H575 0.950 . S
H572 C568 0.950 . S
C573 C571 1.390 . S
C573 C574 1.387 . S
C573 H576 0.950 . S
C574 C573 1.387 . S
C574 C577 1.387 . S
H575 C571 0.950 . S
H576 C573 0.950 . S
C577 C568 1.390 . S
C577 H570 0.950 . S
C577 C574 1.387 . S
C578 C579 1.387 . S
C578 H582 0.950 . S
C578 C587 1.390 . S
C579 C578 1.387 . S
C579 C581 1.387 . S
H580 C587 0.950 . S
C581 C579 1.387 . S
C581 C583 1.390 . S
C581 H585 0.950 . S
H582 C578 0.950 . S
C583 C581 1.390 . S
C583 C584 1.387 . S
C583 H586 0.950 . S
C584 C583 1.387 . S
C584 C587 1.387 . S
H585 C581 0.950 . S
H586 C583 0.950 . S
C587 C578 1.390 . S
C587 H580 0.950 . S
C587 C584 1.387 . S
C588 C589 1.387 . S
C588 H592 0.950 . S
C588 C597 1.390 . S
C589 C588 1.387 . S
C589 C591 1.387 1_556 S
H590 C597 0.950 . S
C591 C589 1.387 1_554 S
C591 C593 1.390 . S
C591 H595 0.950 . S
H592 C588 0.950 . S
C593 C591 1.390 . S
C593 C594 1.387 . S
C593 H596 0.950 . S
C594 C593 1.387 . S
C594 C597 1.387 1_554 S
H595 C591 0.950 . S
H596 C593 0.950 . S
C597 C588 1.390 . S
C597 H590 0.950 . S
C597 C594 1.387 1_556 S
C598 C599 1.387 . S
C598 H602 0.950 . S
C598 C607 1.390 . S
C599 C598 1.387 . S
C599 C601 1.387 . S
H600 C607 0.950 1_554 S
C601 C599 1.387 . S
C601 C603 1.390 1_556 S
C601 H605 0.950 . S
H602 C598 0.950 . S
C603 C601 1.390 1_554 S
C603 C604 1.387 . S
C603 H606 0.950 . S
C604 C603 1.387 . S
C604 C607 1.387 1_554 S
H605 C601 0.950 . S
H606 C603 0.950 . S
C607 C598 1.390 . S
C607 H600 0.950 1_556 S
C607 C604 1.387 1_556 S
C608 C609 1.387 1_556 S
C608 H612 0.950 . S
C608 C617 1.390 . S
C609 C608 1.387 1_554 S
C609 C611 1.387 . S
H610 C617 0.950 . S
C611 C609 1.387 . S
C611 C613 1.390 . S
C611 H615 0.950 . S
H612 C608 0.950 . S
C613 C611 1.390 . S
C613 C614 1.387 1_554 S
C613 H616 0.950 . S
C614 C613 1.387 1_556 S
C614 C617 1.387 . S
H615 C611 0.950 . S
H616 C613 0.950 . S
C617 C608 1.390 . S
C617 H610 0.950 . S
C617 C614 1.387 . S
C618 C619 1.387 . S
C618 H622 0.950 . S
C618 C627 1.390 . S
C619 C618 1.387 . S
C619 C621 1.387 . S
H620 C627 0.950 . S
C621 C619 1.387 . S
C621 C623 1.390 . S
C621 H625 0.950 . S
H622 C618 0.950 . S
C623 C621 1.390 . S
C623 C624 1.387 . S
C623 H626 0.950 . S
C624 C623 1.387 . S
C624 C627 1.387 . S
H625 C621 0.950 . S
H626 C623 0.950 . S
C627 C618 1.390 . S
C627 H620 0.950 . S
C627 C624 1.387 . S
C628 C629 1.387 . S
C628 H632 0.950 . S
C628 C637 1.390 . S
C629 C628 1.387 . S
C629 C631 1.387 . S
H630 C637 0.950 . S
C631 C629 1.387 . S
C631 C633 1.390 . S
C631 H635 0.950 . S
H632 C628 0.950 . S
C633 C631 1.390 . S
C633 C634 1.387 . S
C633 H636 0.950 . S
C634 C633 1.387 . S
C634 C637 1.387 . S
H635 C631 0.950 . S
H636 C633 0.950 . S
C637 C628 1.390 . S
C637 H630 0.950 . S
C637 C634 1.387 . S
C638 C639 1.387 . S
C638 H642 0.950 . S
C638 C647 1.390 . S
C639 C638 1.387 . S
C639 C641 1.387 . S
H640 C647 0.950 . S
C641 C639 1.387 . S
C641 C643 1.390 . S
C641 H645 0.950 . S
H642 C638 0.950 . S
C643 C641 1.390 . S
C643 C644 1.387 . S
C643 H646 0.950 . S
C644 C643 1.387 . S
C644 C647 1.387 . S
H645 C641 0.950 . S
H646 C643 0.950 . S
C647 C638 1.390 . S
C647 H640 0.950 . S
C647 C644 1.387 . S
C648 C649 1.387 1_554 S
C648 H652 0.950 . S
C648 C657 1.390 . S
C649 C648 1.387 1_556 S
C649 C651 1.387 . S
H650 C657 0.950 . S
C651 C649 1.387 . S
C651 C653 1.390 . S
C651 H655 0.950 . S
H652 C648 0.950 . S
C653 C651 1.390 . S
C653 C654 1.387 1_556 S
C653 H656 0.950 . S
C654 C653 1.387 1_554 S
C654 C657 1.387 . S
H655 C651 0.950 . S
H656 C653 0.950 . S
C657 C648 1.390 . S
C657 H650 0.950 . S
C657 C654 1.387 . S
C658 C659 1.387 . S
C658 H662 0.950 . S
C658 C667 1.390 . S
C659 C658 1.387 . S
C659 C661 1.387 . S
H660 C667 0.947 1_556 S
C661 C659 1.387 . S
C661 C663 1.390 1_554 S
C661 H665 0.950 . S
H662 C658 0.950 . S
C663 C661 1.390 1_556 S
C663 C664 1.387 . S
C663 H666 0.950 . S
C664 C663 1.387 . S
C664 C667 1.387 1_556 S
H665 C661 0.950 . S
H666 C663 0.950 . S
C667 C658 1.390 . S
C667 H660 0.947 1_554 S
C667 C664 1.387 1_554 S
C668 C669 1.387 1_554 S
C668 H672 0.950 . S
C668 C677 1.390 . S
C669 C668 1.387 1_556 S
C669 C671 1.387 . S
H670 C677 0.950 . S
C671 C669 1.387 . S
C671 C673 1.390 . S
C671 H675 0.950 . S
H672 C668 0.950 . S
C673 C671 1.390 . S
C673 C674 1.387 1_556 S
C673 H676 0.950 . S
C674 C673 1.387 1_554 S
C674 C677 1.387 . S
H675 C671 0.950 . S
H676 C673 0.950 . S
C677 C668 1.390 . S
C677 H670 0.950 . S
C677 C674 1.387 . S
C678 C679 1.387 . S
C678 H682 0.950 . S
C678 C687 1.390 . S
C679 C678 1.387 . S
C679 C681 1.387 . S
H680 C687 0.950 . S
C681 C679 1.387 . S
C681 C683 1.390 . S
C681 H685 0.950 . S
H682 C678 0.950 . S
C683 C681 1.390 . S
C683 C684 1.387 . S
C683 H686 0.950 . S
C684 C683 1.387 . S
C684 C687 1.387 . S
H685 C681 0.950 . S
H686 C683 0.950 . S
C687 C678 1.390 . S
C687 H680 0.950 . S
C687 C684 1.387 . S
C688 C689 1.387 . S
C688 H692 0.950 . S
C688 C697 1.390 . S
C689 C688 1.387 . S
C689 C691 1.387 . S
H690 C697 0.950 . S
C691 C689 1.387 . S
C691 C693 1.390 . S
C691 H695 0.950 . S
H692 C688 0.950 . S
C693 C691 1.390 . S
C693 C694 1.387 . S
C693 H696 0.950 . S
C694 C693 1.387 . S
C694 C697 1.387 . S
H695 C691 0.950 . S
H696 C693 0.950 . S
C697 C688 1.390 . S
C697 H690 0.950 . S
C697 C694 1.387 . S
C698 C699 1.387 . S
C698 H702 0.950 . S
C698 C707 1.390 . S
C699 C698 1.387 . S
C699 C701 1.387 . S
H700 C707 0.950 . S
C701 C699 1.387 . S
C701 C703 1.390 . S
C701 H705 0.950 . S
H702 C698 0.950 . S
C703 C701 1.390 . S
C703 C704 1.387 . S
C703 H706 0.950 . S
C704 C703 1.387 . S
C704 C707 1.387 . S
H705 C701 0.950 . S
H706 C703 0.950 . S
C707 C698 1.390 . S
C707 H700 0.950 . S
C707 C704 1.387 . S
C409 C175 0.997 . S
C414 C5 0.997 . S
C419 C39 0.998 . S
C424 C107 0.996 . S
C429 C73 1.000 . S
C434 C141 0.995 . S
C439 C209 0.998 . S
C444 C379 0.998 . S
C449 C311 0.999 . S
C454 C243 0.996 . S
C459 C345 0.994 . S
C464 C277 1.001 . S
C469 C33 2.250 1_556 S
C474 C237 2.250 1_554 S
C479 C67 2.248 1_556 S
C484 C271 2.248 1_554 S
C489 C305 2.249 1_554 S
C494 C101 2.249 1_556 S
C499 C339 2.249 . S
C504 C135 2.249 . S
C509 C169 2.252 . S
C514 C373 2.252 . S
C519 C203 2.249 . S
C524 C407 2.249 . S
C529 C156 1.942 . S
C534 C20 1.944 . S
C539 C190 1.942 . S
C544 C54 1.943 . S
C549 C122 1.942 . S
C554 C88 1.942 . S
C559 C224 1.944 . S
C564 C360 1.941 . S
C569 C258 1.944 . S
C574 C394 1.941 . S
C579 C326 1.942 . S
C584 C292 1.942 . S
C589 C9 1.993 . S
C594 C70 2.144 . S
C599 C43 1.995 . S
C604 C2 2.145 . S
C609 C36 2.144 . S
C614 C77 1.992 . S
C619 C111 1.993 . S
C624 C138 2.145 . S
C629 C172 2.145 . S
C634 C145 1.993 . S
C639 C104 2.145 . S
C644 C179 1.995 . S
C649 C274 2.145 . S
C654 C213 1.995 . S
C659 C247 1.993 . S
C664 C206 2.145 . S
C669 C240 2.145 . S
C674 C281 1.994 . S
C679 C342 2.144 . S
C684 C315 1.993 . S
C689 C376 2.145 . S
C694 C349 1.995 . S
C699 C383 1.993 . S
C704 C308 2.144 . S
