# Generated by pormake.
# Topology mdf, (4)-cn, num edge types: 1
# Building blocks:
#     Node 0, Type 0, BuildingBlock: KUFVIS_clean_sbu_0, # of connection points: 4
#     Node 1, Type 0, BuildingBlock: KUFVIS_clean_sbu_0, # of connection points: 4
#     Node 2, Type 0, BuildingBlock: KUFVIS_clean_sbu_0, # of connection points: 4
#     Node 3, Type 0, BuildingBlock: KUFVIS_clean_sbu_0, # of connection points: 4
#     Node 4, Type 0, BuildingBlock: KUFVIS_clean_sbu_0, # of connection points: 4
#     Node 5, Type 0, BuildingBlock: KUFVIS_clean_sbu_0, # of connection points: 4
#     Node 6, Type 0, BuildingBlock: KUFVIS_clean_sbu_0, # of connection points: 4
#     Node 7, Type 0, BuildingBlock: KUFVIS_clean_sbu_0, # of connection points: 4
#     Edge 8, Type (0, 0), BuildingBlock: KIFKEQ_clean_linker_1, # of connection points: 2
#     Edge 9, Type (0, 0), BuildingBlock: KIFKEQ_clean_linker_1, # of connection points: 2
#     Edge 10, Type (0, 0), BuildingBlock: KIFKEQ_clean_linker_1, # of connection points: 2
#     Edge 11, Type (0, 0), BuildingBlock: KIFKEQ_clean_linker_1, # of connection points: 2
#     Edge 12, Type (0, 0), BuildingBlock: KIFKEQ_clean_linker_1, # of connection points: 2
#     Edge 13, Type (0, 0), BuildingBlock: KIFKEQ_clean_linker_1, # of connection points: 2
#     Edge 14, Type (0, 0), BuildingBlock: KIFKEQ_clean_linker_1, # of connection points: 2
#     Edge 15, Type (0, 0), BuildingBlock: KIFKEQ_clean_linker_1, # of connection points: 2
#     Edge 16, Type (0, 0), BuildingBlock: KIFKEQ_clean_linker_1, # of connection points: 2
#     Edge 17, Type (0, 0), BuildingBlock: KIFKEQ_clean_linker_1, # of connection points: 2
#     Edge 18, Type (0, 0), BuildingBlock: KIFKEQ_clean_linker_1, # of connection points: 2
#     Edge 19, Type (0, 0), BuildingBlock: KIFKEQ_clean_linker_1, # of connection points: 2
#     Edge 20, Type (0, 0), BuildingBlock: KIFKEQ_clean_linker_1, # of connection points: 2
#     Edge 21, Type (0, 0), BuildingBlock: KIFKEQ_clean_linker_1, # of connection points: 2
#     Edge 22, Type (0, 0), BuildingBlock: KIFKEQ_clean_linker_1, # of connection points: 2
#     Edge 23, Type (0, 0), BuildingBlock: KIFKEQ_clean_linker_1, # of connection points: 2
# Relax obj value: 0.028
# Max RMSD: 0.051
# Mean RMSD: 0.051
data_MOF--net-mdf--node1-KUFVIS_clean_sbu_0--edge1-KIFKEQ_clean_linker_1
_symmetry_space_group_name_H-M    P1
_symmetry_Int_Tables_number       1
_symmetry_cell_setting            triclinic
loop_
_symmetry_equiv_pos_as_xyz
'x, y, z'
_cell_length_a     37.942298
_cell_length_b     37.939619
_cell_length_c     12.341927
_cell_angle_alpha  89.944565
_cell_angle_beta   90.007452
_cell_angle_gamma 92.399827
loop_
_atom_site_label
_atom_site_type_symbol
_atom_site_fract_x
_atom_site_fract_y
_atom_site_fract_z
_atom_type_partial_charge
Mn0 Mn 0.24677 0.53056 0.42438 0.0
Mn1 Mn 0.25885 0.48942 0.18468 0.0
C2 C 0.21196 0.48111 0.37791 0.0
C3 C 0.22049 0.57428 0.52806 0.0
C4 C 0.3075 0.48188 0.37846 0.0
O5 O 0.27612 0.56717 0.33625 0.0
O6 O 0.27655 0.53886 0.17585 0.0
C7 C 0.20953 0.52947 0.05072 0.0
N8 N 0.22042 0.49811 0.08951 0.0
C9 C 0.17636 0.46577 0.98526 0.0
C10 C 0.1648 0.4977 0.94365 0.0
C11 C 0.18136 0.5297 0.97691 0.0
C12 C 0.20431 0.46723 0.05942 0.0
H13 H 0.22226 0.55411 0.07584 0.0
C14 C 0.28311 0.56601 0.23486 0.0
O15 O 0.24964 0.56039 0.55794 0.0
O16 O 0.20716 0.56351 0.43646 0.0
N17 N 0.24255 0.44105 0.17992 0.0
C18 C 0.25715 0.41256 0.22676 0.0
C19 C 0.24412 0.37848 0.20032 0.0
C20 C 0.21665 0.37399 0.12475 0.0
C21 C 0.20218 0.40367 0.07696 0.0
C22 C 0.21638 0.43697 0.10602 0.0
H23 H 0.27876 0.41574 0.28323 0.0
O24 O 0.2147 0.49085 0.47841 0.0
O25 O 0.22898 0.50079 0.30804 0.0
O26 O 0.28981 0.50006 0.44459 0.0
O27 O 0.29931 0.47804 0.2785 0.0
C28 C 0.17445 0.40151 1.00092 0.0
C29 C 0.16131 0.43255 0.95597 0.0
H30 H 0.14321 0.49797 0.88625 0.0
H31 H 0.17256 0.55447 0.9453 0.0
H32 H 0.25548 0.35569 0.23727 0.0
H33 H 0.20706 0.34761 0.10361 0.0
H34 H 0.16295 0.37613 0.97669 0.0
H35 H 0.13977 0.43055 0.89842 0.0
Mn36 Mn 0.48317 0.75901 0.62652 0.0
Mn37 Mn 0.52908 0.74969 0.85946 0.0
C38 C 0.53293 0.79472 0.66207 0.0
C39 C 0.4381 0.78473 0.52667 0.0
C40 C 0.5346 0.69978 0.66826 0.0
O41 O 0.44815 0.73077 0.72277 0.0
O42 O 0.48074 0.7292 0.87512 0.0
C43 C 0.48812 0.79694 0.99762 0.0
N44 N 0.51953 0.78783 0.95466 0.0
C45 C 0.55077 0.83418 0.05259 0.0
C46 C 0.51877 0.84402 0.09813 0.0
C47 C 0.48729 0.82539 0.07018 0.0
C48 C 0.54988 0.80588 0.97983 0.0
H49 H 0.46389 0.78257 0.97684 0.0
C50 C 0.45221 0.72259 0.8225 0.0
O51 O 0.45118 0.75511 0.49751 0.0
O52 O 0.45024 0.79865 0.61582 0.0
N53 N 0.57658 0.76863 0.85773 0.0
C54 C 0.60525 0.75545 0.80784 0.0
C55 C 0.63896 0.7704 0.82961 0.0
C56 C 0.64292 0.79839 0.9035 0.0
C57 C 0.61307 0.8115 0.95406 0.0
C58 C 0.58018 0.79533 0.92987 0.0
H59 H 0.60249 0.73352 0.75245 0.0
O60 O 0.5218 0.79043 0.56339 0.0
O61 O 0.51464 0.77834 0.73662 0.0
O62 O 0.51329 0.71543 0.60596 0.0
O63 O 0.54137 0.70994 0.76507 0.0
C64 C 0.61468 0.83971 0.02837 0.0
C65 C 0.58352 0.85127 0.07676 0.0
H66 H 0.51807 0.86581 0.15464 0.0
H67 H 0.46249 0.83281 0.10497 0.0
H68 H 0.66188 0.76014 0.7904 0.0
H69 H 0.66906 0.80938 0.92132 0.0
H70 H 0.63974 0.85278 0.04869 0.0
H71 H 0.58508 0.87316 0.13307 0.0
Mn72 Mn 0.2652 0.97717 0.92884 0.0
Mn73 Mn 0.256 0.01858 0.68789 0.0
C74 C 0.30019 0.02697 0.88632 0.0
C75 C 0.29115 0.93372 0.03496 0.0
C76 C 0.20489 0.02593 0.87605 0.0
O77 O 0.23736 0.94036 0.83766 0.0
O78 O 0.23809 0.96922 0.67794 0.0
C79 C 0.30664 0.97802 0.56058 0.0
N80 N 0.29536 0.00952 0.5969 0.0
C81 C 0.34031 0.04151 0.49504 0.0
C82 C 0.35225 0.00943 0.45584 0.0
C83 C 0.33545 0.97754 0.48922 0.0
C84 C 0.31177 0.04029 0.56699 0.0
H85 H 0.29375 0.95347 0.58586 0.0
C86 C 0.23121 0.94185 0.73583 0.0
O87 O 0.26145 0.94705 0.06223 0.0
O88 O 0.30514 0.94486 0.94467 0.0
N89 N 0.27261 0.06686 0.68352 0.0
C90 C 0.25766 0.0955 0.72807 0.0
C91 C 0.27073 0.1295 0.70073 0.0
C92 C 0.29865 0.13374 0.62667 0.0
C93 C 0.31365 0.10391 0.58173 0.0
C94 C 0.29933 0.07069 0.61143 0.0
H95 H 0.23574 0.0925 0.78341 0.0
O96 O 0.29615 0.01721 0.98647 0.0
O97 O 0.28425 0.0072 0.81462 0.0
O98 O 0.2213 0.00701 0.9437 0.0
O99 O 0.21485 0.03039 0.77776 0.0
C100 C 0.34195 0.10582 0.5077 0.0
C101 C 0.35554 0.07463 0.46537 0.0
H102 H 0.37432 0.00897 0.40023 0.0
H103 H 0.34455 0.95266 0.45955 0.0
H104 H 0.25903 0.1524 0.73568 0.0
H105 H 0.30818 0.16006 0.60448 0.0
H106 H 0.35357 0.13113 0.48306 0.0
H107 H 0.37753 0.07644 0.40941 0.0
Mn108 Mn 0.03111 0.75274 0.11539 0.0
Mn109 Mn 0.98536 0.76343 0.34795 0.0
C110 C 0.98178 0.71682 0.1546 0.0
C111 C 0.0759 0.72658 0.01593 0.0
C112 C 0.97899 0.81164 0.15287 0.0
O113 O 0.06621 0.78187 0.20902 0.0
O114 O 0.03333 0.78486 0.36043 0.0
C115 C 0.02752 0.71851 0.49043 0.0
N116 N 0.99584 0.72655 0.44699 0.0
C117 C 0.96555 0.68122 0.55195 0.0
C118 C 0.99784 0.67249 0.59803 0.0
C119 C 0.02898 0.69113 0.56678 0.0
C120 C 0.96581 0.70847 0.47534 0.0
H121 H 0.05148 0.73295 0.46726 0.0
C122 C 0.06187 0.79118 0.30762 0.0
O123 O 0.06262 0.75596 0.98527 0.0
O124 O 0.06424 0.71325 0.10655 0.0
N125 N 0.93817 0.74367 0.34919 0.0
C126 C 0.90917 0.75569 0.29808 0.0
C127 C 0.87574 0.74049 0.32234 0.0
C128 C 0.8724 0.71353 0.40007 0.0
C129 C 0.90259 0.70162 0.45188 0.0
C130 C 0.93519 0.71791 0.42481 0.0
H131 H 0.91146 0.77688 0.23979 0.0
O132 O 0.99254 0.72063 0.05537 0.0
O133 O 1.00006 0.73388 0.22767 0.0
O134 O 1.00067 0.79599 0.09198 0.0
O135 O 0.97217 0.80192 0.25005 0.0
C136 C 0.9016 0.67452 0.5302 0.0
C137 C 0.93309 0.66409 0.57936 0.0
H138 H 0.99903 0.65156 0.65751 0.0
H139 H 0.05401 0.68457 0.60202 0.0
H140 H 0.85255 0.74982 0.28213 0.0
H141 H 0.84645 0.70239 0.41979 0.0
H142 H 0.87679 0.66146 0.5531 0.0
H143 H 0.93201 0.64304 0.63878 0.0
Mn144 Mn 0.74894 0.03314 0.90065 0.0
Mn145 Mn 0.75787 0.99145 0.6605 0.0
C146 C 0.71386 0.98341 0.8599 0.0
C147 C 0.7231 0.07668 1.0059 0.0
C148 C 0.80921 0.98452 0.84845 0.0
O149 O 0.77708 0.06949 0.80889 0.0
O150 O 0.77557 0.04103 0.64833 0.0
C151 C 0.70625 0.03132 0.5346 0.0
N152 N 0.71815 0.99999 0.5703 0.0
C153 C 0.67271 0.9675 0.47202 0.0
C154 C 0.66032 0.9994 0.43271 0.0
C155 C 0.67704 0.03146 0.4647 0.0
C156 C 0.70176 0.96905 0.54206 0.0
H157 H 0.71883 0.05599 0.55975 0.0
C158 C 0.78296 0.06812 0.70694 0.0
O159 O 0.75283 0.06344 0.03333 0.0
O160 O 0.70913 0.06556 0.91562 0.0
N161 N 0.74145 0.94308 0.6583 0.0
C162 C 0.75641 0.91466 0.70442 0.0
C163 C 0.74304 0.88054 0.67999 0.0
C164 C 0.71476 0.87593 0.60738 0.0
C165 C 0.69978 0.90553 0.56073 0.0
C166 C 0.71444 0.93887 0.58737 0.0
H167 H 0.7785 0.91793 0.75902 0.0
O168 O 0.71798 0.99344 0.9597 0.0
O169 O 0.72977 1.00295 0.78737 0.0
O170 O 0.7926 1.00324 0.91591 0.0
O171 O 0.7994 0.98006 0.74997 0.0
C172 C 0.67103 0.90326 0.48837 0.0
C173 C 0.65728 0.93423 0.44492 0.0
H174 H 0.63786 0.99959 0.37855 0.0
H175 H 0.66747 0.05622 0.43544 0.0
H176 H 0.75472 0.85783 0.71631 0.0
H177 H 0.70489 0.84952 0.58777 0.0
H178 H 0.65913 0.87784 0.46614 0.0
H179 H 0.63489 0.93217 0.39051 0.0
Mn180 Mn 0.98332 0.26072 0.09286 0.0
Mn181 Mn 0.02285 0.25187 0.33661 0.0
C182 C 0.03245 0.29618 0.13852 0.0
C183 C 0.94028 0.28645 0.9848 0.0
C184 C 0.03155 0.20052 0.14951 0.0
O185 O 0.94631 0.23228 0.18154 0.0
O186 O 0.97317 0.23423 0.34478 0.0
C187 C 0.98197 0.30358 0.45861 0.0
N188 N 0.01358 0.29157 0.42596 0.0
C189 C 0.04525 0.33672 0.52769 0.0
C190 C 0.01304 0.34914 0.56421 0.0
C191 C 0.98125 0.33263 0.52888 0.0
C192 C 0.04427 0.30781 0.4572 0.0
H193 H 0.95752 0.29123 0.43064 0.0
C194 C 0.94668 0.22667 0.28378 0.0
O195 O 0.95404 0.25694 0.95772 0.0
O196 O 0.95074 0.30033 0.07586 0.0
N197 N 0.07118 0.26834 0.34257 0.0
C198 C 0.09996 0.25361 0.29807 0.0
C199 C 0.13386 0.26705 0.32498 0.0
C200 C 0.13788 0.29516 0.39845 0.0
C201 C 0.10792 0.30985 0.44357 0.0
C202 C 0.07481 0.2952 0.41421 0.0
H203 H 0.09714 0.23168 0.24278 0.0
O204 O 0.02342 0.29216 0.03777 0.0
O205 O 0.01235 0.27991 0.20877 0.0
O206 O 0.01359 0.21718 0.07996 0.0
O207 O 0.03496 0.21033 0.24834 0.0
C208 C 0.10958 0.33836 0.5168 0.0
C209 C 0.07827 0.35202 0.55793 0.0
H210 H 0.01239 0.37149 0.61861 0.0
H211 H 0.95626 0.34226 0.55581 0.0
H212 H 0.15686 0.2556 0.28982 0.0
H213 H 0.16411 0.30518 0.41969 0.0
H214 H 0.1348 0.35017 0.54143 0.0
H215 H 0.07989 0.37428 0.61286 0.0
Mn216 Mn 0.76539 0.47888 0.39464 0.0
Mn217 Mn 0.75441 0.52426 0.16138 0.0
C218 C 0.80052 0.52885 0.35644 0.0
C219 C 0.79171 0.43401 0.49378 0.0
C220 C 0.70544 0.52957 0.35511 0.0
O221 O 0.73684 0.44353 0.30057 0.0
O222 O 0.73468 0.47564 0.14738 0.0
C223 C 0.80151 0.48394 0.02085 0.0
N224 N 0.7921 0.51523 0.06392 0.0
C225 C 0.83654 0.54725 0.96015 0.0
C226 C 0.84668 0.51539 0.91445 0.0
C227 C 0.82917 0.48357 0.94532 0.0
C228 C 0.80911 0.5459 0.03605 0.0
H229 H 0.78792 0.45947 0.04367 0.0
C230 C 0.72851 0.44719 0.20083 0.0
O231 O 0.76221 0.44708 0.52412 0.0
O232 O 0.80525 0.44614 0.40399 0.0
N233 N 0.77255 0.57204 0.16139 0.0
C234 C 0.75933 0.60048 0.21235 0.0
C235 C 0.77324 0.63443 0.18829 0.0
C236 C 0.80017 0.63887 0.11092 0.0
C237 C 0.81341 0.60923 0.0595 0.0
C238 C 0.79836 0.57606 0.08635 0.0
H239 H 0.73812 0.59735 0.27025 0.0
O240 O 0.79688 0.51781 0.45548 0.0
O241 O 0.78392 0.51034 0.28294 0.0
O242 O 0.72174 0.50872 0.41724 0.0
O243 O 0.71494 0.53607 0.25752 0.0
C244 C 0.84063 0.61131 0.98173 0.0
C245 C 0.85245 0.58031 0.93299 0.0
H246 H 0.86782 0.51504 0.85554 0.0
H247 H 0.83682 0.45887 0.91038 0.0
H248 H 0.76292 0.65718 0.22827 0.0
H249 H 0.81026 0.6652 0.09119 0.0
H250 H 0.85274 0.63659 0.95896 0.0
H251 H 0.8736 0.58224 0.87407 0.0
Mn252 Mn 0.52994 0.24679 0.60676 0.0
Mn253 Mn 0.48813 0.25822 0.8458 0.0
C254 C 0.48079 0.21151 0.65232 0.0
C255 C 0.57385 0.22092 0.50307 0.0
C256 C 0.48057 0.30706 0.65246 0.0
O257 O 0.56629 0.27598 0.69587 0.0
O258 O 0.53728 0.27671 0.85507 0.0
C259 C 0.52885 0.20978 0.98092 0.0
N260 N 0.49735 0.21996 0.94116 0.0
C261 C 0.46562 0.17526 0.04477 0.0
C262 C 0.4977 0.16436 0.08717 0.0
C263 C 0.52946 0.18162 0.05475 0.0
C264 C 0.46671 0.20323 0.97062 0.0
H265 H 0.5533 0.22308 0.95664 0.0
C266 C 0.56466 0.28322 0.797 0.0
O267 O 0.55991 0.25009 0.47359 0.0
O268 O 0.56305 0.20735 0.59439 0.0
N269 N 0.44003 0.24104 0.84983 0.0
C270 C 0.41135 0.25502 0.80224 0.0
C271 C 0.37745 0.24121 0.82765 0.0
C272 C 0.37333 0.2136 0.903 0.0
C273 C 0.4032 0.1998 0.95168 0.0
C274 C 0.4363 0.21473 0.92347 0.0
H275 H 0.41426 0.27671 0.74585 0.0
O276 O 0.49051 0.21464 0.55185 0.0
O277 O 0.5002 0.2286 0.7226 0.0
O278 O 0.49929 0.28978 0.58676 0.0
O279 O 0.47625 0.29849 0.75195 0.0
C280 C 0.40142 0.17204 0.02772 0.0
C281 C 0.43262 0.15954 0.07337 0.0
H282 H 0.49825 0.14279 0.14461 0.0
H283 H 0.55433 0.17336 0.08707 0.0
H284 H 0.35452 0.25205 0.79002 0.0
H285 H 0.34709 0.20335 0.92321 0.0
H286 H 0.37619 0.16003 0.05149 0.0
H287 H 0.43091 0.13797 0.13093 0.0
H288 H 0.45529 0.69499 0.02564 0.0
H289 H 0.3827 0.71058 0.76125 0.0
H290 H 0.40914 0.66491 0.12823 0.0
H291 H 0.33559 0.68093 0.867 0.0
H292 H 0.28523 0.57853 0.01826 0.0
H293 H 0.32124 0.6221 0.92198 0.0
H294 H 0.35544 0.66817 0.22659 0.0
H295 H 0.31996 0.6231 0.32436 0.0
C296 C 0.4293 0.69238 0.98948 0.0
C297 C 0.4229 0.70491 0.8841 0.0
C298 C 0.40258 0.67544 0.04952 0.0
C299 C 0.3685 0.6706 1.00654 0.0
C300 C 0.36168 0.68392 0.90221 0.0
C301 C 0.38866 0.70084 0.84143 0.0
C302 C 0.30014 0.59809 0.06532 0.0
C303 C 0.30044 0.59673 0.17939 0.0
C304 C 0.32052 0.62348 1.00958 0.0
C305 C 0.3417 0.6484 0.06623 0.0
C306 C 0.33997 0.64881 0.18045 0.0
C307 C 0.3195 0.62318 0.23661 0.0
H308 H 0.41645 0.76804 0.32036 0.0
H309 H 0.40233 0.84377 0.57605 0.0
H310 H 0.3784 0.80144 0.202 0.0
H311 H 0.3645 0.87725 0.45766 0.0
H312 H 0.27471 0.91436 0.24387 0.0
H313 H 0.30726 0.87599 0.36383 0.0
H314 H 0.38187 0.85835 0.10724 0.0
H315 H 0.34929 0.89648 0.9875 0.0
C316 C 0.40494 0.79161 0.35177 0.0
C317 C 0.41249 0.80321 0.45778 0.0
C318 C 0.38331 0.81091 0.2836 0.0
C319 C 0.36843 0.84216 0.32 0.0
C320 C 0.37517 0.85316 0.42715 0.0
C321 C 0.39703 0.83402 0.49497 0.0
C322 C 0.29785 0.90201 0.21274 0.0
C323 C 0.30936 0.90851 0.10595 0.0
C324 C 0.31666 0.88018 0.28178 0.0
C325 C 0.34724 0.86402 0.24537 0.0
C326 C 0.35823 0.86995 0.13774 0.0
C327 C 0.33963 0.892 0.06915 0.0
H328 H 0.13267 0.79846 0.25531 0.0
H329 H 0.05675 0.82473 0.5007 0.0
H330 H 0.17974 0.82673 0.36519 0.0
H331 H 0.10294 0.85295 0.60754 0.0
H332 H 0.19014 0.88692 0.82039 0.0
H333 H 0.15407 0.84366 0.71748 0.0
H334 H 0.19759 0.88596 0.41854 0.0
H335 H 0.23401 0.92797 0.52034 0.0
C336 C 0.12599 0.81032 0.33199 0.0
C337 C 0.09092 0.80936 0.36872 0.0
C338 C 0.1529 0.82633 0.39521 0.0
C339 C 0.14517 0.84165 0.49605 0.0
C340 C 0.11011 0.84056 0.5321 0.0
C341 C 0.08345 0.82468 0.4696 0.0
C342 C 0.19258 0.8863 0.73298 0.0
C343 C 0.21425 0.91139 0.67856 0.0
C344 C 0.1718 0.86173 0.67387 0.0
C345 C 0.17243 0.86186 0.55956 0.0
C346 C 0.19641 0.885 0.50618 0.0
C347 C 0.21705 0.90943 0.56492 0.0
H348 H 0.09628 0.74179 0.80733 0.0
H349 H 0.11174 0.66777 0.06733 0.0
H350 H 0.13345 0.70744 0.68918 0.0
H351 H 0.14862 0.6333 0.94918 0.0
H352 H 0.23716 0.59455 0.73556 0.0
H353 H 0.20508 0.63368 0.85371 0.0
H354 H 0.12995 0.6502 0.59755 0.0
H355 H 0.16219 0.61134 0.47926 0.0
C356 C 0.1079 0.7184 0.8397 0.0
C357 C 0.10103 0.70757 0.94694 0.0
C358 C 0.12901 0.69853 0.77164 0.0
C359 C 0.14401 0.66748 0.80936 0.0
C360 C 0.13787 0.65724 0.91759 0.0
C361 C 0.11657 0.67695 0.98532 0.0
C362 C 0.21399 0.60679 0.70408 0.0
C363 C 0.20228 0.59979 0.5978 0.0
C364 C 0.19544 0.62906 0.77213 0.0
C365 C 0.16485 0.64513 0.73539 0.0
C366 C 0.15361 0.63867 0.62827 0.0
C367 C 0.17201 0.61621 0.56052 0.0
H368 H 0.8352 0.1135 0.78235 0.0
H369 H 0.76975 0.09073 0.50299 0.0
H370 H 0.87026 0.15633 0.67608 0.0
H371 H 0.80309 0.13484 0.39842 0.0
H372 H 0.90204 0.1737 0.20833 0.0
H373 H 0.85777 0.13989 0.31312 0.0
H374 H 0.87621 0.20995 0.58567 0.0
H375 H 0.9217 0.24194 0.48324 0.0
C376 C 0.82767 0.1185 0.69925 0.0
C377 C 0.80002 0.09862 0.65075 0.0
C378 C 0.84765 0.14314 0.63799 0.0
C379 C 0.83986 0.14886 0.52763 0.0
C380 C 0.81058 0.13054 0.4819 0.0
C381 C 0.79118 0.10546 0.54233 0.0
C382 C 0.89608 0.1821 0.28993 0.0
C383 C 0.91548 0.21018 0.33787 0.0
C384 C 0.87062 0.16285 0.35028 0.0
C385 C 0.86363 0.17182 0.45899 0.0
C386 C 0.88149 0.20154 0.50366 0.0
C387 C 0.90737 0.22018 0.44434 0.0
H388 H 0.90232 0.34401 0.03222 0.0
H389 H 0.92214 0.27058 0.77435 0.0
H390 H 0.86453 0.37668 0.91205 0.0
H391 H 0.88401 0.30324 0.65379 0.0
H392 H 0.8512 0.39891 0.44386 0.0
H393 H 0.88469 0.36077 0.56139 0.0
H394 H 0.80817 0.37303 0.81618 0.0
H395 H 0.77483 0.41139 0.6989 0.0
C396 C 0.89834 0.33461 0.9501 0.0
C397 C 0.91528 0.30464 0.91308 0.0
C398 C 0.87647 0.35327 0.88123 0.0
C399 C 0.87111 0.34264 0.77307 0.0
C400 C 0.88774 0.31237 0.7363 0.0
C401 C 0.90942 0.29349 0.80564 0.0
C402 C 0.84132 0.3932 0.52458 0.0
C403 C 0.81034 0.40831 0.56192 0.0
C404 C 0.86046 0.37116 0.59188 0.0
C405 C 0.84926 0.36388 0.69859 0.0
C406 C 0.81782 0.37838 0.73499 0.0
C407 C 0.79855 0.40021 0.66742 0.0
H408 H 0.70916 0.38022 0.27344 0.0
H409 H 0.70837 0.44702 0.98916 0.0
H410 H 0.67724 0.33364 0.17178 0.0
H411 H 0.67582 0.40166 0.89069 0.0
H412 H 0.62611 0.31264 0.70942 0.0
H413 H 0.6731 0.3456 0.80637 0.0
H414 H 0.61857 0.3253 0.1091 0.0
H415 H 0.57306 0.29164 0.01436 0.0
C416 C 0.70231 0.38498 0.18965 0.0
C417 C 0.71084 0.41763 0.14051 0.0
C418 C 0.68401 0.35834 0.1313 0.0
C419 C 0.67377 0.36393 0.02296 0.0
C420 C 0.68367 0.39605 0.97308 0.0
C421 C 0.702 0.42241 0.03073 0.0
C422 C 0.62456 0.3148 0.79677 0.0
C423 C 0.59538 0.3002 0.85345 0.0
C424 C 0.65137 0.33376 0.85242 0.0
C425 C 0.64942 0.33852 0.96561 0.0
C426 C 0.62128 0.32203 0.02239 0.0
C427 C 0.59475 0.30307 0.96725 0.0
H428 H 0.66423 0.1129 0.95949 0.0
H429 H 0.73955 0.09597 0.21474 0.0
H430 H 0.6308 0.14969 0.08052 0.0
H431 H 0.70617 0.13309 0.33598 0.0
H432 H 0.61078 0.16237 0.55037 0.0
H433 H 0.64914 0.1301 0.43049 0.0
H434 H 0.63271 0.20604 0.1764 0.0
H435 H 0.59411 0.23814 0.29604 0.0
C436 C 0.6739 0.11735 0.04113 0.0
C437 C 0.7046 0.10147 0.07729 0.0
C438 C 0.65479 0.13862 0.11049 0.0
C439 C 0.66572 0.14439 0.2182 0.0
C440 C 0.69678 0.12895 0.2539 0.0
C441 C 0.71608 0.10788 0.18412 0.0
C442 C 0.61559 0.17237 0.46925 0.0
C443 C 0.59931 0.20283 0.43288 0.0
C444 C 0.63776 0.15395 0.40061 0.0
C445 C 0.64402 0.16538 0.29355 0.0
C446 C 0.62821 0.19625 0.2579 0.0
C447 C 0.60624 0.2148 0.3268 0.0
H448 H 0.36402 0.45803 0.26617 0.0
H449 H 0.31804 0.45919 0.58587 0.0
H450 H 0.4098 0.42028 0.3316 0.0
H451 H 0.36233 0.4198 0.65034 0.0
H452 H 0.45653 0.36328 0.76538 0.0
H453 H 0.41932 0.4095 0.70003 0.0
H454 H 0.41964 0.36301 0.3801 0.0
H455 H 0.45855 0.31825 0.44463 0.0
C456 C 0.36374 0.45025 0.35066 0.0
C457 C 0.33736 0.46173 0.42075 0.0
C458 C 0.38985 0.42822 0.38821 0.0
C459 C 0.38992 0.41636 0.4965 0.0
C460 C 0.36387 0.42862 0.56701 0.0
C461 C 0.3382 0.45122 0.5299 0.0
C462 C 0.44902 0.36329 0.68069 0.0
C463 C 0.46058 0.33705 0.61029 0.0
C464 C 0.42731 0.38967 0.64316 0.0
C465 C 0.41583 0.39014 0.53453 0.0
C466 C 0.42817 0.36422 0.46372 0.0
C467 C 0.45048 0.33828 0.50085 0.0
H468 H 0.65521 0.99123 0.73985 0.0
H469 H 0.71237 0.91445 0.91913 0.0
H470 H 0.6104 0.94539 0.6906 0.0
H471 H 0.66876 0.86834 0.86444 0.0
H472 H 0.60108 0.80045 0.59407 0.0
H473 H 0.64554 0.84615 0.6462 0.0
H474 H 0.56753 0.89884 0.83309 0.0
H475 H 0.52353 0.85203 0.78616 0.0
C476 C 0.65814 0.96445 0.76804 0.0
C477 C 0.68726 0.9559 0.83146 0.0
C478 C 0.63263 0.93842 0.74016 0.0
C479 C 0.63635 0.90347 0.7739 0.0
C480 C 0.66535 0.89509 0.83812 0.0
C481 C 0.69022 0.92134 0.86909 0.0
C482 C 0.59362 0.82185 0.64623 0.0
C483 C 0.55939 0.82263 0.68819 0.0
C484 C 0.61892 0.8479 0.67575 0.0
C485 C 0.60977 0.8759 0.74297 0.0
C486 C 0.57507 0.87745 0.78101 0.0
C487 C 0.55008 0.85079 0.75448 0.0
H488 H 0.08097 0.16465 0.26269 0.0
H489 H 0.02843 0.16669 0.95225 0.0
H490 H 0.11895 0.11952 0.19664 0.0
H491 H 0.06549 0.12021 0.88743 0.0
H492 H 0.16824 0.07486 0.76377 0.0
H493 H 0.12363 0.11306 0.83107 0.0
H494 H 0.12637 0.061 0.14241 0.0
H495 H 0.17242 0.02358 0.07602 0.0
C496 C 0.07701 0.15506 0.18078 0.0
C497 C 0.05173 0.16978 0.11263 0.0
C498 C 0.09877 0.12882 0.14293 0.0
C499 C 0.0957 0.11612 0.03605 0.0
C500 C 0.06932 0.12975 0.96941 0.0
C501 C 0.04778 0.15631 1.00694 0.0
C502 C 0.15922 0.07121 0.84643 0.0
C503 C 0.17437 0.04616 0.91452 0.0
C504 C 0.13326 0.09312 0.88504 0.0
C505 C 0.12124 0.09048 0.99275 0.0
C506 C 0.13534 0.06442 0.05966 0.0
C507 C 0.16164 0.04267 0.02125 0.0
H508 H 0.99086 0.66126 0.28727 0.0
H509 H 0.91419 0.70956 0.08312 0.0
H510 H 0.94687 0.61467 0.33718 0.0
H511 H 0.8699 0.6641 0.1376 0.0
H512 H 0.85665 0.52206 0.22461 0.0
H513 H 0.90165 0.56779 0.17564 0.0
H514 H 0.8492 0.64242 0.37577 0.0
H515 H 0.80525 0.59642 0.429 0.0
C516 C 0.9645 0.66186 0.25369 0.0
C517 C 0.95542 0.68904 0.18302 0.0
C518 C 0.93954 0.63534 0.28196 0.0
C519 C 0.90515 0.63602 0.24091 0.0
C520 C 0.89626 0.66301 0.16944 0.0
C521 C 0.92149 0.68895 0.13859 0.0
C522 C 0.85504 0.54828 0.25849 0.0
C523 C 0.82741 0.55622 0.32884 0.0
C524 C 0.88066 0.57423 0.23079 0.0
C525 C 0.87865 0.60846 0.27219 0.0
C526 C 0.85127 0.6162 0.34355 0.0
C527 C 0.82621 0.59001 0.37372 0.0
H528 H 0.35861 0.01742 0.76757 0.0
H529 H 0.30246 0.09661 0.93913 0.0
H530 H 0.40335 0.06235 0.71136 0.0
H531 H 0.34594 0.14191 0.87693 0.0
H532 H 0.49177 0.1546 0.77683 0.0
H533 H 0.448 0.10901 0.83525 0.0
H534 H 0.36714 0.16274 0.66331 0.0
H535 H 0.41127 0.20695 0.59884 0.0
C536 C 0.35597 0.04452 0.79295 0.0
C537 C 0.32713 0.05397 0.85614 0.0
C538 C 0.38144 0.07006 0.76105 0.0
C539 C 0.37796 0.10545 0.79023 0.0
C540 C 0.34925 0.11477 0.85438 0.0
C541 C 0.32445 0.089 0.88963 0.0
C542 C 0.46462 0.15626 0.75071 0.0
C543 C 0.45446 0.18425 0.68491 0.0
C544 C 0.43975 0.13032 0.78389 0.0
C545 C 0.40431 0.13249 0.75338 0.0
C546 C 0.3943 0.16041 0.68693 0.0
C547 C 0.41942 0.18565 0.65042 0.0
H548 H 0.84582 0.93451 0.74007 0.0
H549 H 0.84164 0.98855 0.04758 0.0
H550 H 0.88989 0.89623 0.81239 0.0
H551 H 0.88682 0.9511 0.11867 0.0
H552 H 0.92716 0.84772 0.25265 0.0
H553 H 0.89047 0.89221 0.17686 0.0
H554 H 0.94825 0.88857 0.87568 0.0
H555 H 0.98451 0.84277 0.95086 0.0
C556 C 0.85472 0.93874 0.82259 0.0
C557 C 0.83968 0.96449 0.8882 0.0
C558 C 0.8803 0.9168 0.86403 0.0
C559 C 0.89183 0.92014 0.97205 0.0
C560 C 0.87807 0.94709 0.03591 0.0
C561 C 0.85227 0.96884 0.99477 0.0
C562 C 0.93241 0.85648 0.17045 0.0
C563 C 0.95889 0.84133 0.10797 0.0
C564 C 0.91138 0.88237 0.12702 0.0
C565 C 0.91623 0.89424 0.01983 0.0
C566 C 0.94334 0.87981 0.95802 0.0
C567 C 0.96435 0.85366 1.00143 0.0
H568 H 0.02103 0.35432 0.25663 0.0
H569 H 0.10243 0.29981 0.0899 0.0
H570 H 0.0647 0.39999 0.31467 0.0
H571 H 0.14645 0.34429 0.15369 0.0
H572 H 0.15482 0.49055 0.25298 0.0
H573 H 0.1105 0.44561 0.19396 0.0
H574 H 0.16628 0.36616 0.36604 0.0
H575 H 0.20926 0.41147 0.43095 0.0
C576 C 0.04835 0.35221 0.23283 0.0
C577 C 0.05878 0.32356 0.1705 0.0
C578 C 0.07318 0.37822 0.26574 0.0
C579 C 0.10883 0.37552 0.23835 0.0
C580 C 0.11912 0.34699 0.17505 0.0
C581 C 0.09407 0.32161 0.13888 0.0
C582 C 0.15721 0.46346 0.279 0.0
C583 C 0.18544 0.45406 0.34492 0.0
C584 C 0.13199 0.43792 0.2455 0.0
C585 C 0.1351 0.40255 0.27582 0.0
C586 C 0.16324 0.39327 0.34247 0.0
C587 C 0.18777 0.41905 0.37925 0.0
H588 H 0.52889 0.66791 0.46793 0.0
H589 H 0.58636 0.66378 0.76972 0.0
H590 H 0.56562 0.62258 0.39323 0.0
H591 H 0.62366 0.61969 0.69413 0.0
H592 H 0.67499 0.5246 0.55782 0.0
H593 H 0.6296 0.56111 0.63337 0.0
H594 H 0.62392 0.6173 0.32959 0.0
H595 H 0.66807 0.58023 0.25331 0.0
C596 C 0.54918 0.65727 0.51868 0.0
C597 C 0.55462 0.66982 0.62487 0.0
C598 C 0.57049 0.63139 0.4755 0.0
C599 C 0.59797 0.61747 0.53706 0.0
C600 C 0.60259 0.62925 0.64436 0.0
C601 C 0.5812 0.6549 0.68766 0.0
C602 C 0.66372 0.54442 0.50667 0.0
C603 C 0.67549 0.54941 0.39941 0.0
C604 C 0.6378 0.56561 0.55031 0.0
C605 C 0.62306 0.59249 0.48811 0.0
C606 C 0.63411 0.59667 0.37989 0.0
C607 C 0.65978 0.57541 0.33618 0.0
loop_
_geom_bond_atom_site_label_1
_geom_bond_atom_site_label_2
_geom_bond_distance
_geom_bond_site_symmetry_2
_ccdc_geom_bond_type
Mn0 O5 2.095 . S
Mn0 O15 2.162 . S
Mn0 O16 2.297 . S
Mn0 O24 2.385 . S
Mn0 O25 2.209 . S
Mn0 O26 2.094 . S
Mn1 O6 2.121 . S
Mn1 N8 2.257 . S
Mn1 N17 2.282 . S
Mn1 O25 2.215 . S
Mn1 O27 2.117 . S
C2 O24 1.234 . S
C2 O25 1.283 . S
C3 O15 1.281 . S
C3 O16 1.236 . S
C4 O26 1.240 . S
C4 O27 1.264 . S
O5 Mn0 2.095 . S
O5 C14 1.250 . S
O6 Mn1 2.121 . S
O6 C14 1.258 . S
C7 N8 1.326 1_556 S
C7 C11 1.460 . S
C7 H13 0.929 . S
N8 Mn1 2.257 . S
N8 C7 1.326 1_554 S
N8 C12 1.362 . S
C9 C10 1.258 . S
C9 C12 1.431 1_556 S
C9 C29 1.449 . S
C10 C9 1.258 . S
C10 C11 1.477 . S
C10 H30 0.931 . S
C11 C7 1.460 . S
C11 C10 1.477 . S
C11 H31 0.930 . S
C12 N8 1.362 . S
C12 C9 1.431 1_554 S
C12 C22 1.476 . S
H13 C7 0.929 . S
C14 O5 1.250 . S
C14 O6 1.258 . S
O15 Mn0 2.162 . S
O15 C3 1.281 . S
O16 Mn0 2.297 . S
O16 C3 1.236 . S
N17 Mn1 2.282 . S
N17 C18 1.328 . S
N17 C22 1.318 . S
C18 N17 1.328 . S
C18 C19 1.457 . S
C18 H23 0.929 . S
C19 C18 1.457 . S
C19 C20 1.291 . S
C19 H32 0.931 . S
C20 C19 1.291 . S
C20 C21 1.373 . S
C20 H33 0.929 . S
C21 C20 1.373 . S
C21 C22 1.396 . S
C21 C28 1.403 1_554 S
C22 C12 1.476 . S
C22 N17 1.318 . S
C22 C21 1.396 . S
H23 C18 0.929 . S
O24 Mn0 2.385 . S
O24 C2 1.234 . S
O25 Mn0 2.209 . S
O25 Mn1 2.215 . S
O25 C2 1.283 . S
O26 Mn0 2.094 . S
O26 C4 1.240 . S
O27 Mn1 2.117 . S
O27 C4 1.264 . S
C28 C21 1.403 1_556 S
C28 C29 1.399 . S
C28 H34 0.929 . S
C29 C9 1.449 . S
C29 C28 1.399 . S
C29 H35 0.930 . S
H30 C10 0.931 . S
H31 C11 0.930 . S
H32 C19 0.931 . S
H33 C20 0.929 . S
H34 C28 0.929 . S
H35 C29 0.930 . S
Mn36 O41 2.095 . S
Mn36 O51 2.162 . S
Mn36 O52 2.297 . S
Mn36 O60 2.385 . S
Mn36 O61 2.209 . S
Mn36 O62 2.094 . S
Mn37 O42 2.121 . S
Mn37 N44 2.257 . S
Mn37 N53 2.282 . S
Mn37 O61 2.215 . S
Mn37 O63 2.117 . S
C38 O60 1.234 . S
C38 O61 1.283 . S
C39 O51 1.281 . S
C39 O52 1.236 . S
C40 O62 1.240 . S
C40 O63 1.264 . S
O41 Mn36 2.095 . S
O41 C50 1.250 . S
O42 Mn37 2.121 . S
O42 C50 1.258 . S
C43 N44 1.326 1_554 S
C43 C47 1.460 . S
C43 H49 0.929 . S
N44 Mn37 2.257 . S
N44 C43 1.326 1_556 S
N44 C48 1.362 . S
C45 C46 1.258 . S
C45 C48 1.431 1_554 S
C45 C65 1.449 . S
C46 C45 1.258 . S
C46 C47 1.477 . S
C46 H66 0.931 . S
C47 C43 1.460 . S
C47 C46 1.477 . S
C47 H67 0.930 . S
C48 N44 1.362 . S
C48 C45 1.431 1_556 S
C48 C58 1.476 . S
H49 C43 0.929 . S
C50 O41 1.250 . S
C50 O42 1.258 . S
O51 Mn36 2.162 . S
O51 C39 1.281 . S
O52 Mn36 2.297 . S
O52 C39 1.236 . S
N53 Mn37 2.282 . S
N53 C54 1.328 . S
N53 C58 1.318 . S
C54 N53 1.328 . S
C54 C55 1.457 . S
C54 H59 0.929 . S
C55 C54 1.457 . S
C55 C56 1.291 . S
C55 H68 0.931 . S
C56 C55 1.291 . S
C56 C57 1.373 . S
C56 H69 0.929 . S
C57 C56 1.373 . S
C57 C58 1.396 . S
C57 C64 1.403 1_556 S
C58 C48 1.476 . S
C58 N53 1.318 . S
C58 C57 1.396 . S
H59 C54 0.929 . S
O60 Mn36 2.385 . S
O60 C38 1.234 . S
O61 Mn36 2.209 . S
O61 Mn37 2.215 . S
O61 C38 1.283 . S
O62 Mn36 2.094 . S
O62 C40 1.240 . S
O63 Mn37 2.117 . S
O63 C40 1.264 . S
C64 C57 1.403 1_554 S
C64 C65 1.399 . S
C64 H70 0.929 . S
C65 C45 1.449 . S
C65 C64 1.399 . S
C65 H71 0.930 . S
H66 C46 0.931 . S
H67 C47 0.930 . S
H68 C55 0.931 . S
H69 C56 0.929 . S
H70 C64 0.929 . S
H71 C65 0.930 . S
Mn72 O77 2.095 . S
Mn72 O87 2.162 1_556 S
Mn72 O88 2.297 . S
Mn72 O96 2.385 1_565 S
Mn72 O97 2.209 . S
Mn72 O98 2.094 1_565 S
Mn73 O78 2.121 1_545 S
Mn73 N80 2.257 . S
Mn73 N89 2.282 . S
Mn73 O97 2.215 1_545 S
Mn73 O99 2.117 . S
C74 O96 1.234 . S
C74 O97 1.283 1_545 S
C75 O87 1.281 . S
C75 O88 1.236 1_554 S
C76 O98 1.240 . S
C76 O99 1.264 . S
O77 Mn72 2.095 . S
O77 C86 1.250 . S
O78 Mn73 2.121 1_565 S
O78 C86 1.258 . S
C79 N80 1.326 1_565 S
C79 C83 1.460 1_565 S
C79 H85 0.929 . S
N80 Mn73 2.257 . S
N80 C79 1.326 1_545 S
N80 C84 1.362 . S
C81 C82 1.258 . S
C81 C84 1.431 . S
C81 C101 1.449 . S
C82 C81 1.258 . S
C82 C83 1.477 . S
C82 H102 0.931 . S
C83 C79 1.460 1_545 S
C83 C82 1.477 . S
C83 H103 0.930 1_545 S
C84 N80 1.362 . S
C84 C81 1.431 . S
C84 C94 1.476 . S
H85 C79 0.929 . S
C86 O77 1.250 . S
C86 O78 1.258 . S
O87 Mn72 2.162 1_554 S
O87 C75 1.281 . S
O88 Mn72 2.297 . S
O88 C75 1.236 1_556 S
N89 Mn73 2.282 . S
N89 C90 1.328 . S
N89 C94 1.318 . S
C90 N89 1.328 . S
C90 C91 1.457 . S
C90 H95 0.929 . S
C91 C90 1.457 . S
C91 C92 1.291 . S
C91 H104 0.931 . S
C92 C91 1.291 . S
C92 C93 1.373 . S
C92 H105 0.929 . S
C93 C92 1.373 . S
C93 C94 1.396 . S
C93 C100 1.403 . S
C94 C84 1.476 . S
C94 N89 1.318 . S
C94 C93 1.396 . S
H95 C90 0.929 . S
O96 Mn72 2.385 1_545 S
O96 C74 1.234 . S
O97 Mn72 2.209 . S
O97 Mn73 2.215 1_565 S
O97 C74 1.283 1_565 S
O98 Mn72 2.094 1_545 S
O98 C76 1.240 . S
O99 Mn73 2.117 . S
O99 C76 1.264 . S
C100 C93 1.403 . S
C100 C101 1.399 . S
C100 H106 0.929 . S
C101 C81 1.449 . S
C101 C100 1.399 . S
C101 H107 0.930 . S
H102 C82 0.931 . S
H103 C83 0.930 1_565 S
H104 C91 0.931 . S
H105 C92 0.929 . S
H106 C100 0.929 . S
H107 C101 0.930 . S
Mn108 O113 2.095 . S
Mn108 O123 2.162 1_554 S
Mn108 O124 2.297 . S
Mn108 O132 2.385 1_455 S
Mn108 O133 2.209 . S
Mn108 O134 2.094 1_455 S
Mn109 O114 2.121 1_655 S
Mn109 N116 2.257 . S
Mn109 N125 2.282 . S
Mn109 O133 2.215 1_655 S
Mn109 O135 2.117 . S
C110 O132 1.234 . S
C110 O133 1.283 1_655 S
C111 O123 1.281 . S
C111 O124 1.236 1_556 S
C112 O134 1.240 . S
C112 O135 1.264 . S
O113 Mn108 2.095 . S
O113 C122 1.250 . S
O114 Mn109 2.121 1_455 S
O114 C122 1.258 . S
C115 N116 1.326 1_455 S
C115 C119 1.460 1_455 S
C115 H121 0.929 . S
N116 Mn109 2.257 . S
N116 C115 1.326 1_655 S
N116 C120 1.362 . S
C117 C118 1.258 . S
C117 C120 1.431 . S
C117 C137 1.449 . S
C118 C117 1.258 . S
C118 C119 1.477 . S
C118 H138 0.931 . S
C119 C115 1.460 1_655 S
C119 C118 1.477 . S
C119 H139 0.930 1_655 S
C120 N116 1.362 . S
C120 C117 1.431 . S
C120 C130 1.476 . S
H121 C115 0.929 . S
C122 O113 1.250 . S
C122 O114 1.258 . S
O123 Mn108 2.162 1_556 S
O123 C111 1.281 . S
O124 Mn108 2.297 . S
O124 C111 1.236 1_554 S
N125 Mn109 2.282 . S
N125 C126 1.328 . S
N125 C130 1.318 . S
C126 N125 1.328 . S
C126 C127 1.457 . S
C126 H131 0.929 . S
C127 C126 1.457 . S
C127 C128 1.291 . S
C127 H140 0.931 . S
C128 C127 1.291 . S
C128 C129 1.373 . S
C128 H141 0.929 . S
C129 C128 1.373 . S
C129 C130 1.396 . S
C129 C136 1.403 . S
C130 C120 1.476 . S
C130 N125 1.318 . S
C130 C129 1.396 . S
H131 C126 0.929 . S
O132 Mn108 2.385 1_655 S
O132 C110 1.234 . S
O133 Mn108 2.209 . S
O133 Mn109 2.215 1_455 S
O133 C110 1.283 1_455 S
O134 Mn108 2.094 1_655 S
O134 C112 1.240 . S
O135 Mn109 2.117 . S
O135 C112 1.264 . S
C136 C129 1.403 . S
C136 C137 1.399 . S
C136 H142 0.929 . S
C137 C117 1.449 . S
C137 C136 1.399 . S
C137 H143 0.930 . S
H138 C118 0.931 . S
H139 C119 0.930 1_455 S
H140 C127 0.931 . S
H141 C128 0.929 . S
H142 C136 0.929 . S
H143 C137 0.930 . S
Mn144 O149 2.095 . S
Mn144 O159 2.162 1_556 S
Mn144 O160 2.297 . S
Mn144 O168 2.385 1_545 S
Mn144 O169 2.209 . S
Mn144 O170 2.094 1_545 S
Mn145 O150 2.121 1_565 S
Mn145 N152 2.257 . S
Mn145 N161 2.282 . S
Mn145 O169 2.215 1_565 S
Mn145 O171 2.117 . S
C146 O168 1.234 . S
C146 O169 1.283 1_565 S
C147 O159 1.281 . S
C147 O160 1.236 1_554 S
C148 O170 1.240 . S
C148 O171 1.264 . S
O149 Mn144 2.095 . S
O149 C158 1.250 . S
O150 Mn145 2.121 1_545 S
O150 C158 1.258 . S
C151 N152 1.326 1_545 S
C151 C155 1.460 1_545 S
C151 H157 0.929 . S
N152 Mn145 2.257 . S
N152 C151 1.326 1_565 S
N152 C156 1.362 . S
C153 C154 1.258 . S
C153 C156 1.431 . S
C153 C173 1.449 . S
C154 C153 1.258 . S
C154 C155 1.477 . S
C154 H174 0.931 . S
C155 C151 1.460 1_565 S
C155 C154 1.477 . S
C155 H175 0.930 1_565 S
C156 N152 1.362 . S
C156 C153 1.431 . S
C156 C166 1.476 . S
H157 C151 0.929 . S
C158 O149 1.250 . S
C158 O150 1.258 . S
O159 Mn144 2.162 1_554 S
O159 C147 1.281 . S
O160 Mn144 2.297 . S
O160 C147 1.236 1_556 S
N161 Mn145 2.282 . S
N161 C162 1.328 . S
N161 C166 1.318 . S
C162 N161 1.328 . S
C162 C163 1.457 . S
C162 H167 0.929 . S
C163 C162 1.457 . S
C163 C164 1.291 . S
C163 H176 0.931 . S
C164 C163 1.291 . S
C164 C165 1.373 . S
C164 H177 0.929 . S
C165 C164 1.373 . S
C165 C166 1.396 . S
C165 C172 1.403 . S
C166 C156 1.476 . S
C166 N161 1.318 . S
C166 C165 1.396 . S
H167 C162 0.929 . S
O168 Mn144 2.385 1_565 S
O168 C146 1.234 . S
O169 Mn144 2.209 . S
O169 Mn145 2.215 1_545 S
O169 C146 1.283 1_545 S
O170 Mn144 2.094 1_565 S
O170 C148 1.240 . S
O171 Mn145 2.117 . S
O171 C148 1.264 . S
C172 C165 1.403 . S
C172 C173 1.399 . S
C172 H178 0.929 . S
C173 C153 1.449 . S
C173 C172 1.399 . S
C173 H179 0.930 . S
H174 C154 0.931 . S
H175 C155 0.930 1_545 S
H176 C163 0.931 . S
H177 C164 0.929 . S
H178 C172 0.929 . S
H179 C173 0.930 . S
Mn180 O185 2.095 . S
Mn180 O195 2.162 1_554 S
Mn180 O196 2.297 . S
Mn180 O204 2.385 1_655 S
Mn180 O205 2.209 . S
Mn180 O206 2.094 1_655 S
Mn181 O186 2.121 1_455 S
Mn181 N188 2.257 . S
Mn181 N197 2.282 . S
Mn181 O205 2.215 1_455 S
Mn181 O207 2.117 . S
C182 O204 1.234 . S
C182 O205 1.283 1_455 S
C183 O195 1.281 . S
C183 O196 1.236 1_556 S
C184 O206 1.240 . S
C184 O207 1.264 . S
O185 Mn180 2.095 . S
O185 C194 1.250 . S
O186 Mn181 2.121 1_655 S
O186 C194 1.258 . S
C187 N188 1.326 1_655 S
C187 C191 1.460 1_655 S
C187 H193 0.929 . S
N188 Mn181 2.257 . S
N188 C187 1.326 1_455 S
N188 C192 1.362 . S
C189 C190 1.258 . S
C189 C192 1.431 . S
C189 C209 1.449 . S
C190 C189 1.258 . S
C190 C191 1.477 . S
C190 H210 0.931 . S
C191 C187 1.460 1_455 S
C191 C190 1.477 . S
C191 H211 0.930 1_455 S
C192 N188 1.362 . S
C192 C189 1.431 . S
C192 C202 1.476 . S
H193 C187 0.929 . S
C194 O185 1.250 . S
C194 O186 1.258 . S
O195 Mn180 2.162 1_556 S
O195 C183 1.281 . S
O196 Mn180 2.297 . S
O196 C183 1.236 1_554 S
N197 Mn181 2.282 . S
N197 C198 1.328 . S
N197 C202 1.318 . S
C198 N197 1.328 . S
C198 C199 1.457 . S
C198 H203 0.929 . S
C199 C198 1.457 . S
C199 C200 1.291 . S
C199 H212 0.931 . S
C200 C199 1.291 . S
C200 C201 1.373 . S
C200 H213 0.929 . S
C201 C200 1.373 . S
C201 C202 1.396 . S
C201 C208 1.403 . S
C202 C192 1.476 . S
C202 N197 1.318 . S
C202 C201 1.396 . S
H203 C198 0.929 . S
O204 Mn180 2.385 1_455 S
O204 C182 1.234 . S
O205 Mn180 2.209 . S
O205 Mn181 2.215 1_655 S
O205 C182 1.283 1_655 S
O206 Mn180 2.094 1_455 S
O206 C184 1.240 . S
O207 Mn181 2.117 . S
O207 C184 1.264 . S
C208 C201 1.403 . S
C208 C209 1.399 . S
C208 H214 0.929 . S
C209 C189 1.449 . S
C209 C208 1.399 . S
C209 H215 0.930 . S
H210 C190 0.931 . S
H211 C191 0.930 1_655 S
H212 C199 0.931 . S
H213 C200 0.929 . S
H214 C208 0.929 . S
H215 C209 0.930 . S
Mn216 O221 2.095 . S
Mn216 O231 2.162 . S
Mn216 O232 2.297 . S
Mn216 O240 2.385 . S
Mn216 O241 2.209 . S
Mn216 O242 2.094 . S
Mn217 O222 2.121 . S
Mn217 N224 2.257 . S
Mn217 N233 2.282 . S
Mn217 O241 2.215 . S
Mn217 O243 2.117 . S
C218 O240 1.234 . S
C218 O241 1.283 . S
C219 O231 1.281 . S
C219 O232 1.236 . S
C220 O242 1.240 . S
C220 O243 1.264 . S
O221 Mn216 2.095 . S
O221 C230 1.250 . S
O222 Mn217 2.121 . S
O222 C230 1.258 . S
C223 N224 1.326 1_556 S
C223 C227 1.460 . S
C223 H229 0.929 . S
N224 Mn217 2.257 . S
N224 C223 1.326 1_554 S
N224 C228 1.362 . S
C225 C226 1.258 . S
C225 C228 1.431 1_556 S
C225 C245 1.449 . S
C226 C225 1.258 . S
C226 C227 1.477 . S
C226 H246 0.931 . S
C227 C223 1.460 . S
C227 C226 1.477 . S
C227 H247 0.930 . S
C228 N224 1.362 . S
C228 C225 1.431 1_554 S
C228 C238 1.476 . S
H229 C223 0.929 . S
C230 O221 1.250 . S
C230 O222 1.258 . S
O231 Mn216 2.162 . S
O231 C219 1.281 . S
O232 Mn216 2.297 . S
O232 C219 1.236 . S
N233 Mn217 2.282 . S
N233 C234 1.328 . S
N233 C238 1.318 . S
C234 N233 1.328 . S
C234 C235 1.457 . S
C234 H239 0.929 . S
C235 C234 1.457 . S
C235 C236 1.291 . S
C235 H248 0.931 . S
C236 C235 1.291 . S
C236 C237 1.373 . S
C236 H249 0.929 . S
C237 C236 1.373 . S
C237 C238 1.396 . S
C237 C244 1.403 1_554 S
C238 C228 1.476 . S
C238 N233 1.318 . S
C238 C237 1.396 . S
H239 C234 0.929 . S
O240 Mn216 2.385 . S
O240 C218 1.234 . S
O241 Mn216 2.209 . S
O241 Mn217 2.215 . S
O241 C218 1.283 . S
O242 Mn216 2.094 . S
O242 C220 1.240 . S
O243 Mn217 2.117 . S
O243 C220 1.264 . S
C244 C237 1.403 1_556 S
C244 C245 1.399 . S
C244 H250 0.929 . S
C245 C225 1.449 . S
C245 C244 1.399 . S
C245 H251 0.930 . S
H246 C226 0.931 . S
H247 C227 0.930 . S
H248 C235 0.931 . S
H249 C236 0.929 . S
H250 C244 0.929 . S
H251 C245 0.930 . S
Mn252 O257 2.095 . S
Mn252 O267 2.162 . S
Mn252 O268 2.297 . S
Mn252 O276 2.385 . S
Mn252 O277 2.209 . S
Mn252 O278 2.094 . S
Mn253 O258 2.121 . S
Mn253 N260 2.257 . S
Mn253 N269 2.282 . S
Mn253 O277 2.215 . S
Mn253 O279 2.117 . S
C254 O276 1.234 . S
C254 O277 1.283 . S
C255 O267 1.281 . S
C255 O268 1.236 . S
C256 O278 1.240 . S
C256 O279 1.264 . S
O257 Mn252 2.095 . S
O257 C266 1.250 . S
O258 Mn253 2.121 . S
O258 C266 1.258 . S
C259 N260 1.326 1_554 S
C259 C263 1.460 . S
C259 H265 0.929 . S
N260 Mn253 2.257 . S
N260 C259 1.326 1_556 S
N260 C264 1.362 . S
C261 C262 1.258 . S
C261 C264 1.431 1_554 S
C261 C281 1.449 . S
C262 C261 1.258 . S
C262 C263 1.477 . S
C262 H282 0.931 . S
C263 C259 1.460 . S
C263 C262 1.477 . S
C263 H283 0.930 . S
C264 N260 1.362 . S
C264 C261 1.431 1_556 S
C264 C274 1.476 . S
H265 C259 0.929 . S
C266 O257 1.250 . S
C266 O258 1.258 . S
O267 Mn252 2.162 . S
O267 C255 1.281 . S
O268 Mn252 2.297 . S
O268 C255 1.236 . S
N269 Mn253 2.282 . S
N269 C270 1.328 . S
N269 C274 1.318 . S
C270 N269 1.328 . S
C270 C271 1.457 . S
C270 H275 0.929 . S
C271 C270 1.457 . S
C271 C272 1.291 . S
C271 H284 0.931 . S
C272 C271 1.291 . S
C272 C273 1.373 . S
C272 H285 0.929 . S
C273 C272 1.373 . S
C273 C274 1.396 . S
C273 C280 1.403 1_556 S
C274 C264 1.476 . S
C274 N269 1.318 . S
C274 C273 1.396 . S
H275 C270 0.929 . S
O276 Mn252 2.385 . S
O276 C254 1.234 . S
O277 Mn252 2.209 . S
O277 Mn253 2.215 . S
O277 C254 1.283 . S
O278 Mn252 2.094 . S
O278 C256 1.240 . S
O279 Mn253 2.117 . S
O279 C256 1.264 . S
C280 C273 1.403 1_554 S
C280 C281 1.399 . S
C280 H286 0.929 . S
C281 C261 1.449 . S
C281 C280 1.399 . S
C281 H287 0.930 . S
H282 C262 0.931 . S
H283 C263 0.930 . S
H284 C271 0.931 . S
H285 C272 0.929 . S
H286 C280 0.929 . S
H287 C281 0.930 . S
H288 C296 0.950 . S
H289 C301 0.950 . S
H290 C298 0.950 1_554 S
H291 C300 0.950 . S
H292 C302 0.950 . S
H293 C304 0.950 1_556 S
H294 C306 0.950 . S
H295 C307 0.950 . S
C296 H288 0.950 . S
C296 C297 1.386 . S
C296 C298 1.391 . S
C297 C296 1.386 . S
C297 C301 1.393 . S
C298 H290 0.950 1_556 S
C298 C296 1.391 . S
C298 C299 1.400 . S
C299 C298 1.400 . S
C299 C300 1.398 . S
C299 C305 1.491 1_556 S
C300 H291 0.950 . S
C300 C299 1.398 . S
C300 C301 1.391 . S
C301 H289 0.950 . S
C301 C297 1.393 . S
C301 C300 1.391 . S
C302 H292 0.950 . S
C302 C303 1.386 . S
C302 C304 1.391 . S
C303 C302 1.386 . S
C303 C307 1.393 . S
C304 H293 0.950 1_554 S
C304 C302 1.391 . S
C304 C305 1.400 . S
C305 C299 1.491 1_554 S
C305 C304 1.400 . S
C305 C306 1.398 . S
C306 H294 0.950 . S
C306 C305 1.398 . S
C306 C307 1.391 . S
C307 H295 0.950 . S
C307 C303 1.393 . S
C307 C306 1.391 . S
H308 C316 0.950 . S
H309 C321 0.950 . S
H310 C318 0.950 . S
H311 C320 0.950 . S
H312 C322 0.950 . S
H313 C324 0.950 . S
H314 C326 0.950 . S
H315 C327 0.950 1_556 S
C316 H308 0.950 . S
C316 C317 1.386 . S
C316 C318 1.391 . S
C317 C316 1.386 . S
C317 C321 1.393 . S
C318 H310 0.950 . S
C318 C316 1.391 . S
C318 C319 1.400 . S
C319 C318 1.400 . S
C319 C320 1.398 . S
C319 C325 1.491 . S
C320 H311 0.950 . S
C320 C319 1.398 . S
C320 C321 1.391 . S
C321 H309 0.950 . S
C321 C317 1.393 . S
C321 C320 1.391 . S
C322 H312 0.950 . S
C322 C323 1.386 . S
C322 C324 1.391 . S
C323 C322 1.386 . S
C323 C327 1.393 . S
C324 H313 0.950 . S
C324 C322 1.391 . S
C324 C325 1.400 . S
C325 C319 1.491 . S
C325 C324 1.400 . S
C325 C326 1.398 . S
C326 H314 0.950 . S
C326 C325 1.398 . S
C326 C327 1.391 . S
C327 H315 0.950 1_554 S
C327 C323 1.393 . S
C327 C326 1.391 . S
H328 C336 0.950 . S
H329 C341 0.950 . S
H330 C338 0.950 . S
H331 C340 0.950 . S
H332 C342 0.950 . S
H333 C344 0.950 . S
H334 C346 0.950 . S
H335 C347 0.950 . S
C336 H328 0.950 . S
C336 C337 1.386 . S
C336 C338 1.391 . S
C337 C336 1.386 . S
C337 C341 1.393 . S
C338 H330 0.950 . S
C338 C336 1.391 . S
C338 C339 1.400 . S
C339 C338 1.400 . S
C339 C340 1.398 . S
C339 C345 1.491 . S
C340 H331 0.950 . S
C340 C339 1.398 . S
C340 C341 1.391 . S
C341 H329 0.950 . S
C341 C337 1.393 . S
C341 C340 1.391 . S
C342 H332 0.950 . S
C342 C343 1.386 . S
C342 C344 1.391 . S
C343 C342 1.386 . S
C343 C347 1.393 . S
C344 H333 0.950 . S
C344 C342 1.391 . S
C344 C345 1.400 . S
C345 C339 1.491 . S
C345 C344 1.400 . S
C345 C346 1.398 . S
C346 H334 0.950 . S
C346 C345 1.398 . S
C346 C347 1.391 . S
C347 H335 0.950 . S
C347 C343 1.393 . S
C347 C346 1.391 . S
H348 C356 0.950 . S
H349 C361 0.950 1_554 S
H350 C358 0.950 . S
H351 C360 0.950 . S
H352 C362 0.950 . S
H353 C364 0.950 . S
H354 C366 0.950 . S
H355 C367 0.950 . S
C356 H348 0.950 . S
C356 C357 1.386 . S
C356 C358 1.391 . S
C357 C356 1.386 . S
C357 C361 1.393 . S
C358 H350 0.950 . S
C358 C356 1.391 . S
C358 C359 1.400 . S
C359 C358 1.400 . S
C359 C360 1.398 . S
C359 C365 1.491 . S
C360 H351 0.950 . S
C360 C359 1.398 . S
C360 C361 1.391 . S
C361 H349 0.950 1_556 S
C361 C357 1.393 . S
C361 C360 1.391 . S
C362 H352 0.950 . S
C362 C363 1.386 . S
C362 C364 1.391 . S
C363 C362 1.386 . S
C363 C367 1.393 . S
C364 H353 0.950 . S
C364 C362 1.391 . S
C364 C365 1.400 . S
C365 C359 1.491 . S
C365 C364 1.400 . S
C365 C366 1.398 . S
C366 H354 0.950 . S
C366 C365 1.398 . S
C366 C367 1.391 . S
C367 H355 0.950 . S
C367 C363 1.393 . S
C367 C366 1.391 . S
H368 C376 0.950 . S
H369 C381 0.950 . S
H370 C378 0.950 . S
H371 C380 0.950 . S
H372 C382 0.950 . S
H373 C384 0.950 . S
H374 C386 0.950 . S
H375 C387 0.950 . S
C376 H368 0.950 . S
C376 C377 1.386 . S
C376 C378 1.391 . S
C377 C376 1.386 . S
C377 C381 1.393 . S
C378 H370 0.950 . S
C378 C376 1.391 . S
C378 C379 1.400 . S
C379 C378 1.400 . S
C379 C380 1.398 . S
C379 C385 1.491 . S
C380 H371 0.950 . S
C380 C379 1.398 . S
C380 C381 1.391 . S
C381 H369 0.950 . S
C381 C377 1.393 . S
C381 C380 1.391 . S
C382 H372 0.950 . S
C382 C383 1.386 . S
C382 C384 1.391 . S
C383 C382 1.386 . S
C383 C387 1.393 . S
C384 H373 0.950 . S
C384 C382 1.391 . S
C384 C385 1.400 . S
C385 C379 1.491 . S
C385 C384 1.400 . S
C385 C386 1.398 . S
C386 H374 0.950 . S
C386 C385 1.398 . S
C386 C387 1.391 . S
C387 H375 0.950 . S
C387 C383 1.393 . S
C387 C386 1.391 . S
H388 C396 0.950 1_554 S
H389 C401 0.950 . S
H390 C398 0.950 . S
H391 C400 0.950 . S
H392 C402 0.950 . S
H393 C404 0.950 . S
H394 C406 0.950 . S
H395 C407 0.950 . S
C396 H388 0.950 1_556 S
C396 C397 1.386 . S
C396 C398 1.391 . S
C397 C396 1.386 . S
C397 C401 1.393 . S
C398 H390 0.950 . S
C398 C396 1.391 . S
C398 C399 1.400 . S
C399 C398 1.400 . S
C399 C400 1.398 . S
C399 C405 1.491 . S
C400 H391 0.950 . S
C400 C399 1.398 . S
C400 C401 1.391 . S
C401 H389 0.950 . S
C401 C397 1.393 . S
C401 C400 1.391 . S
C402 H392 0.950 . S
C402 C403 1.386 . S
C402 C404 1.391 . S
C403 C402 1.386 . S
C403 C407 1.393 . S
C404 H393 0.950 . S
C404 C402 1.391 . S
C404 C405 1.400 . S
C405 C399 1.491 . S
C405 C404 1.400 . S
C405 C406 1.398 . S
C406 H394 0.950 . S
C406 C405 1.398 . S
C406 C407 1.391 . S
C407 H395 0.950 . S
C407 C403 1.393 . S
C407 C406 1.391 . S
H408 C416 0.950 . S
H409 C421 0.950 . S
H410 C418 0.950 . S
H411 C420 0.950 1_556 S
H412 C422 0.950 . S
H413 C424 0.950 . S
H414 C426 0.950 1_554 S
H415 C427 0.950 . S
C416 H408 0.950 . S
C416 C417 1.386 . S
C416 C418 1.391 . S
C417 C416 1.386 . S
C417 C421 1.393 . S
C418 H410 0.950 . S
C418 C416 1.391 . S
C418 C419 1.400 . S
C419 C418 1.400 . S
C419 C420 1.398 . S
C419 C425 1.491 1_554 S
C420 H411 0.950 1_554 S
C420 C419 1.398 . S
C420 C421 1.391 . S
C421 H409 0.950 . S
C421 C417 1.393 . S
C421 C420 1.391 . S
C422 H412 0.950 . S
C422 C423 1.386 . S
C422 C424 1.391 . S
C423 C422 1.386 . S
C423 C427 1.393 . S
C424 H413 0.950 . S
C424 C422 1.391 . S
C424 C425 1.400 . S
C425 C419 1.491 1_556 S
C425 C424 1.400 . S
C425 C426 1.398 . S
C426 H414 0.950 1_556 S
C426 C425 1.398 . S
C426 C427 1.391 . S
C427 H415 0.950 . S
C427 C423 1.393 . S
C427 C426 1.391 . S
H428 C436 0.950 1_556 S
H429 C441 0.950 . S
H430 C438 0.950 . S
H431 C440 0.950 . S
H432 C442 0.950 . S
H433 C444 0.950 . S
H434 C446 0.950 . S
H435 C447 0.950 . S
C436 H428 0.950 1_554 S
C436 C437 1.386 . S
C436 C438 1.391 . S
C437 C436 1.386 . S
C437 C441 1.393 . S
C438 H430 0.950 . S
C438 C436 1.391 . S
C438 C439 1.400 . S
C439 C438 1.400 . S
C439 C440 1.398 . S
C439 C445 1.491 . S
C440 H431 0.950 . S
C440 C439 1.398 . S
C440 C441 1.391 . S
C441 H429 0.950 . S
C441 C437 1.393 . S
C441 C440 1.391 . S
C442 H432 0.950 . S
C442 C443 1.386 . S
C442 C444 1.391 . S
C443 C442 1.386 . S
C443 C447 1.393 . S
C444 H433 0.950 . S
C444 C442 1.391 . S
C444 C445 1.400 . S
C445 C439 1.491 . S
C445 C444 1.400 . S
C445 C446 1.398 . S
C446 H434 0.950 . S
C446 C445 1.398 . S
C446 C447 1.391 . S
C447 H435 0.950 . S
C447 C443 1.393 . S
C447 C446 1.391 . S
H448 C456 0.950 . S
H449 C461 0.950 . S
H450 C458 0.950 . S
H451 C460 0.950 . S
H452 C462 0.950 . S
H453 C464 0.950 . S
H454 C466 0.950 . S
H455 C467 0.950 . S
C456 H448 0.950 . S
C456 C457 1.386 . S
C456 C458 1.391 . S
C457 C456 1.386 . S
C457 C461 1.393 . S
C458 H450 0.950 . S
C458 C456 1.391 . S
C458 C459 1.400 . S
C459 C458 1.400 . S
C459 C460 1.398 . S
C459 C465 1.491 . S
C460 H451 0.950 . S
C460 C459 1.398 . S
C460 C461 1.391 . S
C461 H449 0.950 . S
C461 C457 1.393 . S
C461 C460 1.391 . S
C462 H452 0.950 . S
C462 C463 1.386 . S
C462 C464 1.391 . S
C463 C462 1.386 . S
C463 C467 1.393 . S
C464 H453 0.950 . S
C464 C462 1.391 . S
C464 C465 1.400 . S
C465 C459 1.491 . S
C465 C464 1.400 . S
C465 C466 1.398 . S
C466 H454 0.950 . S
C466 C465 1.398 . S
C466 C467 1.391 . S
C467 H455 0.950 . S
C467 C463 1.393 . S
C467 C466 1.391 . S
H468 C476 0.950 . S
H469 C481 0.950 . S
H470 C478 0.950 . S
H471 C480 0.950 . S
H472 C482 0.950 . S
H473 C484 0.950 . S
H474 C486 0.950 . S
H475 C487 0.950 . S
C476 H468 0.950 . S
C476 C477 1.386 . S
C476 C478 1.391 . S
C477 C476 1.386 . S
C477 C481 1.393 . S
C478 H470 0.950 . S
C478 C476 1.391 . S
C478 C479 1.400 . S
C479 C478 1.400 . S
C479 C480 1.398 . S
C479 C485 1.491 . S
C480 H471 0.950 . S
C480 C479 1.398 . S
C480 C481 1.391 . S
C481 H469 0.950 . S
C481 C477 1.393 . S
C481 C480 1.391 . S
C482 H472 0.950 . S
C482 C483 1.386 . S
C482 C484 1.391 . S
C483 C482 1.386 . S
C483 C487 1.393 . S
C484 H473 0.950 . S
C484 C482 1.391 . S
C484 C485 1.400 . S
C485 C479 1.491 . S
C485 C484 1.400 . S
C485 C486 1.398 . S
C486 H474 0.950 . S
C486 C485 1.398 . S
C486 C487 1.391 . S
C487 H475 0.950 . S
C487 C483 1.393 . S
C487 C486 1.391 . S
H488 C496 0.950 . S
H489 C501 0.950 1_556 S
H490 C498 0.950 . S
H491 C500 0.950 . S
H492 C502 0.950 . S
H493 C504 0.950 . S
H494 C506 0.950 . S
H495 C507 0.950 1_554 S
C496 H488 0.950 . S
C496 C497 1.386 . S
C496 C498 1.391 . S
C497 C496 1.386 . S
C497 C501 1.393 . S
C498 H490 0.950 . S
C498 C496 1.391 . S
C498 C499 1.400 . S
C499 C498 1.400 . S
C499 C500 1.398 1_554 S
C499 C505 1.491 1_554 S
C500 H491 0.950 . S
C500 C499 1.398 1_556 S
C500 C501 1.391 1_556 S
C501 H489 0.950 1_554 S
C501 C497 1.393 . S
C501 C500 1.391 1_554 S
C502 H492 0.950 . S
C502 C503 1.386 . S
C502 C504 1.391 . S
C503 C502 1.386 . S
C503 C507 1.393 . S
C504 H493 0.950 . S
C504 C502 1.391 . S
C504 C505 1.400 . S
C505 C499 1.491 1_556 S
C505 C504 1.400 . S
C505 C506 1.398 1_556 S
C506 H494 0.950 . S
C506 C505 1.398 1_554 S
C506 C507 1.391 1_554 S
C507 H495 0.950 1_556 S
C507 C503 1.393 . S
C507 C506 1.391 1_556 S
H508 C516 0.950 . S
H509 C521 0.950 . S
H510 C518 0.950 . S
H511 C520 0.950 . S
H512 C522 0.950 . S
H513 C524 0.950 . S
H514 C526 0.950 . S
H515 C527 0.950 . S
C516 H508 0.950 . S
C516 C517 1.386 . S
C516 C518 1.391 . S
C517 C516 1.386 . S
C517 C521 1.393 . S
C518 H510 0.950 . S
C518 C516 1.391 . S
C518 C519 1.400 . S
C519 C518 1.400 . S
C519 C520 1.398 . S
C519 C525 1.491 . S
C520 H511 0.950 . S
C520 C519 1.398 . S
C520 C521 1.391 . S
C521 H509 0.950 . S
C521 C517 1.393 . S
C521 C520 1.391 . S
C522 H512 0.950 . S
C522 C523 1.386 . S
C522 C524 1.391 . S
C523 C522 1.386 . S
C523 C527 1.393 . S
C524 H513 0.950 . S
C524 C522 1.391 . S
C524 C525 1.400 . S
C525 C519 1.491 . S
C525 C524 1.400 . S
C525 C526 1.398 . S
C526 H514 0.950 . S
C526 C525 1.398 . S
C526 C527 1.391 . S
C527 H515 0.950 . S
C527 C523 1.393 . S
C527 C526 1.391 . S
H528 C536 0.950 . S
H529 C541 0.950 . S
H530 C538 0.950 . S
H531 C540 0.950 . S
H532 C542 0.950 . S
H533 C544 0.950 . S
H534 C546 0.950 . S
H535 C547 0.950 . S
C536 H528 0.950 . S
C536 C537 1.386 . S
C536 C538 1.391 . S
C537 C536 1.386 . S
C537 C541 1.393 . S
C538 H530 0.950 . S
C538 C536 1.391 . S
C538 C539 1.400 . S
C539 C538 1.400 . S
C539 C540 1.398 . S
C539 C545 1.491 . S
C540 H531 0.950 . S
C540 C539 1.398 . S
C540 C541 1.391 . S
C541 H529 0.950 . S
C541 C537 1.393 . S
C541 C540 1.391 . S
C542 H532 0.950 . S
C542 C543 1.386 . S
C542 C544 1.391 . S
C543 C542 1.386 . S
C543 C547 1.393 . S
C544 H533 0.950 . S
C544 C542 1.391 . S
C544 C545 1.400 . S
C545 C539 1.491 . S
C545 C544 1.400 . S
C545 C546 1.398 . S
C546 H534 0.950 . S
C546 C545 1.398 . S
C546 C547 1.391 . S
C547 H535 0.950 . S
C547 C543 1.393 . S
C547 C546 1.391 . S
H548 C556 0.950 . S
H549 C561 0.950 . S
H550 C558 0.950 . S
H551 C560 0.950 . S
H552 C562 0.950 . S
H553 C564 0.950 . S
H554 C566 0.950 . S
H555 C567 0.950 . S
C556 H548 0.950 . S
C556 C557 1.386 . S
C556 C558 1.391 . S
C557 C556 1.386 . S
C557 C561 1.393 . S
C558 H550 0.950 . S
C558 C556 1.391 . S
C558 C559 1.400 . S
C559 C558 1.400 . S
C559 C560 1.398 1_556 S
C559 C565 1.491 1_556 S
C560 H551 0.950 . S
C560 C559 1.398 1_554 S
C560 C561 1.391 1_554 S
C561 H549 0.950 . S
C561 C557 1.393 . S
C561 C560 1.391 1_556 S
C562 H552 0.950 . S
C562 C563 1.386 . S
C562 C564 1.391 . S
C563 C562 1.386 . S
C563 C567 1.393 . S
C564 H553 0.950 . S
C564 C562 1.391 . S
C564 C565 1.400 . S
C565 C559 1.491 1_554 S
C565 C564 1.400 . S
C565 C566 1.398 1_554 S
C566 H554 0.950 . S
C566 C565 1.398 1_556 S
C566 C567 1.391 1_556 S
C567 H555 0.950 . S
C567 C563 1.393 . S
C567 C566 1.391 1_554 S
H568 C576 0.950 . S
H569 C581 0.950 . S
H570 C578 0.950 . S
H571 C580 0.950 . S
H572 C582 0.950 . S
H573 C584 0.950 . S
H574 C586 0.950 . S
H575 C587 0.950 . S
C576 H568 0.950 . S
C576 C577 1.386 . S
C576 C578 1.391 . S
C577 C576 1.386 . S
C577 C581 1.393 . S
C578 H570 0.950 . S
C578 C576 1.391 . S
C578 C579 1.400 . S
C579 C578 1.400 . S
C579 C580 1.398 . S
C579 C585 1.491 . S
C580 H571 0.950 . S
C580 C579 1.398 . S
C580 C581 1.391 . S
C581 H569 0.950 . S
C581 C577 1.393 . S
C581 C580 1.391 . S
C582 H572 0.950 . S
C582 C583 1.386 . S
C582 C584 1.391 . S
C583 C582 1.386 . S
C583 C587 1.393 . S
C584 H573 0.950 . S
C584 C582 1.391 . S
C584 C585 1.400 . S
C585 C579 1.491 . S
C585 C584 1.400 . S
C585 C586 1.398 . S
C586 H574 0.950 . S
C586 C585 1.398 . S
C586 C587 1.391 . S
C587 H575 0.950 . S
C587 C583 1.393 . S
C587 C586 1.391 . S
H588 C596 0.950 . S
H589 C601 0.950 . S
H590 C598 0.950 . S
H591 C600 0.950 . S
H592 C602 0.950 . S
H593 C604 0.950 . S
H594 C606 0.950 . S
H595 C607 0.950 . S
C596 H588 0.950 . S
C596 C597 1.386 . S
C596 C598 1.391 . S
C597 C596 1.386 . S
C597 C601 1.393 . S
C598 H590 0.950 . S
C598 C596 1.391 . S
C598 C599 1.400 . S
C599 C598 1.400 . S
C599 C600 1.398 . S
C599 C605 1.491 . S
C600 H591 0.950 . S
C600 C599 1.398 . S
C600 C601 1.391 . S
C601 H589 0.950 . S
C601 C597 1.393 . S
C601 C600 1.391 . S
C602 H592 0.950 . S
C602 C603 1.386 . S
C602 C604 1.391 . S
C603 C602 1.386 . S
C603 C607 1.393 . S
C604 H593 0.950 . S
C604 C602 1.391 . S
C604 C605 1.400 . S
C605 C599 1.491 . S
C605 C604 1.400 . S
C605 C606 1.398 . S
C606 H594 0.950 . S
C606 C605 1.398 . S
C606 C607 1.391 . S
C607 H595 0.950 . S
C607 C603 1.393 . S
C607 C606 1.391 . S
C297 C50 1.353 . S
C303 C14 1.333 . S
C317 C39 1.434 . S
C323 C75 1.434 . S
C337 C122 1.353 . S
C343 C86 1.357 . S
C357 C111 1.433 . S
C363 C3 1.433 . S
C377 C158 1.334 . S
C383 C194 1.360 . S
C397 C183 1.434 . S
C403 C219 1.434 . S
C417 C230 1.338 . S
C423 C266 1.362 . S
C437 C147 1.433 . S
C443 C255 1.434 . S
C457 C4 1.456 . S
C463 C256 1.453 . S
C477 C146 1.434 . S
C483 C38 1.437 . S
C497 C184 1.444 . S
C503 C76 1.440 . S
C517 C110 1.419 . S
C523 C218 1.423 . S
C537 C74 1.420 . S
C543 C254 1.424 . S
C557 C148 1.455 . S
C563 C112 1.455 . S
C577 C182 1.426 . S
C583 C2 1.433 . S
C597 C40 1.452 . S
C603 C220 1.456 . S
