# Generated by pormake.
# Topology umq, (4)-cn, num edge types: 1
# Building blocks:
#     Node 0, Type 0, BuildingBlock: KUFVIS_clean_sbu_0, # of connection points: 4
#     Node 1, Type 0, BuildingBlock: KUFVIS_clean_sbu_0, # of connection points: 4
#     Node 2, Type 0, BuildingBlock: KUFVIS_clean_sbu_0, # of connection points: 4
#     Node 3, Type 0, BuildingBlock: KUFVIS_clean_sbu_0, # of connection points: 4
#     Node 4, Type 0, BuildingBlock: KUFVIS_clean_sbu_0, # of connection points: 4
#     Node 5, Type 0, BuildingBlock: KUFVIS_clean_sbu_0, # of connection points: 4
#     Node 6, Type 0, BuildingBlock: KUFVIS_clean_sbu_0, # of connection points: 4
#     Node 7, Type 0, BuildingBlock: KUFVIS_clean_sbu_0, # of connection points: 4
#     Node 8, Type 0, BuildingBlock: KUFVIS_clean_sbu_0, # of connection points: 4
#     Node 9, Type 0, BuildingBlock: KUFVIS_clean_sbu_0, # of connection points: 4
#     Node 10, Type 0, BuildingBlock: KUFVIS_clean_sbu_0, # of connection points: 4
#     Node 11, Type 0, BuildingBlock: KUFVIS_clean_sbu_0, # of connection points: 4
#     Node 12, Type 0, BuildingBlock: KUFVIS_clean_sbu_0, # of connection points: 4
#     Node 13, Type 0, BuildingBlock: KUFVIS_clean_sbu_0, # of connection points: 4
#     Node 14, Type 0, BuildingBlock: KUFVIS_clean_sbu_0, # of connection points: 4
#     Node 15, Type 0, BuildingBlock: KUFVIS_clean_sbu_0, # of connection points: 4
#     Node 16, Type 0, BuildingBlock: KUFVIS_clean_sbu_0, # of connection points: 4
#     Node 17, Type 0, BuildingBlock: KUFVIS_clean_sbu_0, # of connection points: 4
#     Node 18, Type 0, BuildingBlock: KUFVIS_clean_sbu_0, # of connection points: 4
#     Node 19, Type 0, BuildingBlock: KUFVIS_clean_sbu_0, # of connection points: 4
#     Node 20, Type 0, BuildingBlock: KUFVIS_clean_sbu_0, # of connection points: 4
#     Node 21, Type 0, BuildingBlock: KUFVIS_clean_sbu_0, # of connection points: 4
#     Node 22, Type 0, BuildingBlock: KUFVIS_clean_sbu_0, # of connection points: 4
#     Node 23, Type 0, BuildingBlock: KUFVIS_clean_sbu_0, # of connection points: 4
#     Node 24, Type 0, BuildingBlock: KUFVIS_clean_sbu_0, # of connection points: 4
#     Node 25, Type 0, BuildingBlock: KUFVIS_clean_sbu_0, # of connection points: 4
#     Node 26, Type 0, BuildingBlock: KUFVIS_clean_sbu_0, # of connection points: 4
#     Node 27, Type 0, BuildingBlock: KUFVIS_clean_sbu_0, # of connection points: 4
#     Node 28, Type 0, BuildingBlock: KUFVIS_clean_sbu_0, # of connection points: 4
#     Node 29, Type 0, BuildingBlock: KUFVIS_clean_sbu_0, # of connection points: 4
#     Node 30, Type 0, BuildingBlock: KUFVIS_clean_sbu_0, # of connection points: 4
#     Node 31, Type 0, BuildingBlock: KUFVIS_clean_sbu_0, # of connection points: 4
#     Edge 32, Type (0, 0), BuildingBlock: XIVTED_clean_linker_0, # of connection points: 2
#     Edge 33, Type (0, 0), BuildingBlock: XIVTED_clean_linker_0, # of connection points: 2
#     Edge 34, Type (0, 0), BuildingBlock: XIVTED_clean_linker_0, # of connection points: 2
#     Edge 35, Type (0, 0), BuildingBlock: XIVTED_clean_linker_0, # of connection points: 2
#     Edge 36, Type (0, 0), BuildingBlock: XIVTED_clean_linker_0, # of connection points: 2
#     Edge 37, Type (0, 0), BuildingBlock: XIVTED_clean_linker_0, # of connection points: 2
#     Edge 38, Type (0, 0), BuildingBlock: XIVTED_clean_linker_0, # of connection points: 2
#     Edge 39, Type (0, 0), BuildingBlock: XIVTED_clean_linker_0, # of connection points: 2
#     Edge 40, Type (0, 0), BuildingBlock: XIVTED_clean_linker_0, # of connection points: 2
#     Edge 41, Type (0, 0), BuildingBlock: XIVTED_clean_linker_0, # of connection points: 2
#     Edge 42, Type (0, 0), BuildingBlock: XIVTED_clean_linker_0, # of connection points: 2
#     Edge 43, Type (0, 0), BuildingBlock: XIVTED_clean_linker_0, # of connection points: 2
#     Edge 44, Type (0, 0), BuildingBlock: XIVTED_clean_linker_0, # of connection points: 2
#     Edge 45, Type (0, 0), BuildingBlock: XIVTED_clean_linker_0, # of connection points: 2
#     Edge 46, Type (0, 0), BuildingBlock: XIVTED_clean_linker_0, # of connection points: 2
#     Edge 47, Type (0, 0), BuildingBlock: XIVTED_clean_linker_0, # of connection points: 2
#     Edge 48, Type (0, 0), BuildingBlock: XIVTED_clean_linker_0, # of connection points: 2
#     Edge 49, Type (0, 0), BuildingBlock: XIVTED_clean_linker_0, # of connection points: 2
#     Edge 50, Type (0, 0), BuildingBlock: XIVTED_clean_linker_0, # of connection points: 2
#     Edge 51, Type (0, 0), BuildingBlock: XIVTED_clean_linker_0, # of connection points: 2
#     Edge 52, Type (0, 0), BuildingBlock: XIVTED_clean_linker_0, # of connection points: 2
#     Edge 53, Type (0, 0), BuildingBlock: XIVTED_clean_linker_0, # of connection points: 2
#     Edge 54, Type (0, 0), BuildingBlock: XIVTED_clean_linker_0, # of connection points: 2
#     Edge 55, Type (0, 0), BuildingBlock: XIVTED_clean_linker_0, # of connection points: 2
#     Edge 56, Type (0, 0), BuildingBlock: XIVTED_clean_linker_0, # of connection points: 2
#     Edge 57, Type (0, 0), BuildingBlock: XIVTED_clean_linker_0, # of connection points: 2
#     Edge 58, Type (0, 0), BuildingBlock: XIVTED_clean_linker_0, # of connection points: 2
#     Edge 59, Type (0, 0), BuildingBlock: XIVTED_clean_linker_0, # of connection points: 2
#     Edge 60, Type (0, 0), BuildingBlock: XIVTED_clean_linker_0, # of connection points: 2
#     Edge 61, Type (0, 0), BuildingBlock: XIVTED_clean_linker_0, # of connection points: 2
#     Edge 62, Type (0, 0), BuildingBlock: XIVTED_clean_linker_0, # of connection points: 2
#     Edge 63, Type (0, 0), BuildingBlock: XIVTED_clean_linker_0, # of connection points: 2
#     Edge 64, Type (0, 0), BuildingBlock: XIVTED_clean_linker_0, # of connection points: 2
#     Edge 65, Type (0, 0), BuildingBlock: XIVTED_clean_linker_0, # of connection points: 2
#     Edge 66, Type (0, 0), BuildingBlock: XIVTED_clean_linker_0, # of connection points: 2
#     Edge 67, Type (0, 0), BuildingBlock: XIVTED_clean_linker_0, # of connection points: 2
#     Edge 68, Type (0, 0), BuildingBlock: XIVTED_clean_linker_0, # of connection points: 2
#     Edge 69, Type (0, 0), BuildingBlock: XIVTED_clean_linker_0, # of connection points: 2
#     Edge 70, Type (0, 0), BuildingBlock: XIVTED_clean_linker_0, # of connection points: 2
#     Edge 71, Type (0, 0), BuildingBlock: XIVTED_clean_linker_0, # of connection points: 2
#     Edge 72, Type (0, 0), BuildingBlock: XIVTED_clean_linker_0, # of connection points: 2
#     Edge 73, Type (0, 0), BuildingBlock: XIVTED_clean_linker_0, # of connection points: 2
#     Edge 74, Type (0, 0), BuildingBlock: XIVTED_clean_linker_0, # of connection points: 2
#     Edge 75, Type (0, 0), BuildingBlock: XIVTED_clean_linker_0, # of connection points: 2
#     Edge 76, Type (0, 0), BuildingBlock: XIVTED_clean_linker_0, # of connection points: 2
#     Edge 77, Type (0, 0), BuildingBlock: XIVTED_clean_linker_0, # of connection points: 2
#     Edge 78, Type (0, 0), BuildingBlock: XIVTED_clean_linker_0, # of connection points: 2
#     Edge 79, Type (0, 0), BuildingBlock: XIVTED_clean_linker_0, # of connection points: 2
#     Edge 80, Type (0, 0), BuildingBlock: XIVTED_clean_linker_0, # of connection points: 2
#     Edge 81, Type (0, 0), BuildingBlock: XIVTED_clean_linker_0, # of connection points: 2
#     Edge 82, Type (0, 0), BuildingBlock: XIVTED_clean_linker_0, # of connection points: 2
#     Edge 83, Type (0, 0), BuildingBlock: XIVTED_clean_linker_0, # of connection points: 2
#     Edge 84, Type (0, 0), BuildingBlock: XIVTED_clean_linker_0, # of connection points: 2
#     Edge 85, Type (0, 0), BuildingBlock: XIVTED_clean_linker_0, # of connection points: 2
#     Edge 86, Type (0, 0), BuildingBlock: XIVTED_clean_linker_0, # of connection points: 2
#     Edge 87, Type (0, 0), BuildingBlock: XIVTED_clean_linker_0, # of connection points: 2
#     Edge 88, Type (0, 0), BuildingBlock: XIVTED_clean_linker_0, # of connection points: 2
#     Edge 89, Type (0, 0), BuildingBlock: XIVTED_clean_linker_0, # of connection points: 2
#     Edge 90, Type (0, 0), BuildingBlock: XIVTED_clean_linker_0, # of connection points: 2
#     Edge 91, Type (0, 0), BuildingBlock: XIVTED_clean_linker_0, # of connection points: 2
#     Edge 92, Type (0, 0), BuildingBlock: XIVTED_clean_linker_0, # of connection points: 2
#     Edge 93, Type (0, 0), BuildingBlock: XIVTED_clean_linker_0, # of connection points: 2
#     Edge 94, Type (0, 0), BuildingBlock: XIVTED_clean_linker_0, # of connection points: 2
#     Edge 95, Type (0, 0), BuildingBlock: XIVTED_clean_linker_0, # of connection points: 2
# Relax obj value: 0.076
# Max RMSD: 0.055
# Mean RMSD: 0.055
data_MOF--net-umq--node1-KUFVIS_clean_sbu_0--edge1-XIVTED_clean_linker_0
_symmetry_space_group_name_H-M    P1
_symmetry_Int_Tables_number       1
_symmetry_cell_setting            triclinic
loop_
_symmetry_equiv_pos_as_xyz
'x, y, z'
_cell_length_a     66.49501
_cell_length_b     66.492185
_cell_length_c     43.816495
_cell_angle_alpha  90.011278
_cell_angle_beta   90.022173
_cell_angle_gamma 89.990943
loop_
_atom_site_label
_atom_site_type_symbol
_atom_site_fract_x
_atom_site_fract_y
_atom_site_fract_z
_atom_type_partial_charge
Mn0 Mn 0.2408 0.10231 0.17958 0.0
Mn1 Mn 0.21493 0.13647 0.13809 0.0
C2 C 0.22087 0.12598 0.2042 0.0
C3 C 0.24257 0.07006 0.20087 0.0
C4 C 0.25998 0.13913 0.15007 0.0
O5 O 0.24224 0.09118 0.13602 0.0
O6 O 0.2206 0.11239 0.11284 0.0
C7 C 0.17706 0.1136 0.13046 0.0
N8 N 0.18682 0.13059 0.13949 0.0
C9 C 0.15568 0.14635 0.15401 0.0
C10 C 0.14527 0.1291 0.14454 0.0
C11 C 0.15603 0.11262 0.13285 0.0
C12 C 0.17665 0.14641 0.15119 0.0
H13 H 0.1853 0.10089 0.12161 0.0
C14 C 0.23187 0.09679 0.11301 0.0
O15 O 0.25871 0.08036 0.19501 0.0
O16 O 0.22554 0.07833 0.19376 0.0
N17 N 0.20814 0.16075 0.15922 0.0
C18 C 0.22045 0.17618 0.16765 0.0
C19 C 0.21206 0.19386 0.17968 0.0
C20 C 0.1911 0.19563 0.18255 0.0
C21 C 0.17871 0.17969 0.17333 0.0
C22 C 0.18793 0.16252 0.16119 0.0
H23 H 0.23656 0.17505 0.16516 0.0
O24 O 0.23469 0.11633 0.21909 0.0
O25 O 0.2187 0.12105 0.17571 0.0
O26 O 0.26122 0.12421 0.16834 0.0
O27 O 0.24373 0.14406 0.13629 0.0
C28 C 0.1576 0.1801 0.17591 0.0
C29 C 0.1461 0.1634 0.16644 0.0
H30 H 0.12904 0.12829 0.14634 0.0
H31 H 0.14811 0.0992 0.12569 0.0
H32 H 0.22172 0.20613 0.18667 0.0
H33 H 0.18468 0.20928 0.19188 0.0
H34 H 0.15007 0.19311 0.18546 0.0
H35 H 0.12989 0.16379 0.16888 0.0
Mn36 Mn 0.90363 0.24068 0.18062 0.0
Mn37 Mn 0.86917 0.21506 0.13937 0.0
C38 C 0.88027 0.22047 0.20531 0.0
C39 C 0.9361 0.24209 0.20127 0.0
C40 C 0.86656 0.26004 0.15217 0.0
O41 O 0.9143 0.24255 0.13682 0.0
O42 O 0.89301 0.22093 0.11376 0.0
C43 C 0.89202 0.17727 0.13077 0.0
N44 N 0.8751 0.18695 0.1403 0.0
C45 C 0.85963 0.15572 0.15509 0.0
C46 C 0.8768 0.14539 0.14509 0.0
C47 C 0.8931 0.15623 0.13302 0.0
C48 C 0.85946 0.1767 0.15238 0.0
H49 H 0.9046 0.18557 0.12166 0.0
C50 C 0.90854 0.2323 0.11376 0.0
O51 O 0.92581 0.25836 0.19606 0.0
O52 O 0.9277 0.2252 0.19382 0.0
N53 N 0.8451 0.20812 0.16091 0.0
C54 C 0.82969 0.22035 0.1697 0.0
C55 C 0.8122 0.21187 0.18222 0.0
C56 C 0.81059 0.1909 0.1852 0.0
C57 C 0.82646 0.17859 0.17544 0.0
C58 C 0.84344 0.18789 0.16287 0.0
H59 H 0.8307 0.23647 0.16718 0.0
O60 O 0.89003 0.23415 0.22032 0.0
O61 O 0.88491 0.21862 0.17668 0.0
O62 O 0.88159 0.26118 0.17028 0.0
O63 O 0.86158 0.24387 0.13817 0.0
C64 C 0.82616 0.15747 0.17795 0.0
C65 C 0.84279 0.14605 0.16795 0.0
H66 H 0.8777 0.12916 0.1468 0.0
H67 H 0.90646 0.14838 0.12547 0.0
H68 H 0.79998 0.22147 0.18957 0.0
H69 H 0.79715 0.18442 0.19511 0.0
H70 H 0.81331 0.14987 0.18783 0.0
H71 H 0.84249 0.12984 0.17033 0.0
Mn72 Mn 0.76445 0.90359 0.18013 0.0
Mn73 Mn 0.78955 0.86883 0.13872 0.0
C74 C 0.78419 0.87975 0.20475 0.0
C75 C 0.76334 0.93598 0.2011 0.0
C76 C 0.74453 0.86696 0.15123 0.0
O77 O 0.76291 0.9145 0.13643 0.0
O78 O 0.78416 0.89288 0.11331 0.0
C79 C 0.82776 0.89101 0.13049 0.0
N80 N 0.81776 0.87422 0.13977 0.0
C81 C 0.8487 0.85796 0.15403 0.0
C82 C 0.85936 0.87499 0.1443 0.0
C83 C 0.84883 0.89162 0.13262 0.0
C84 C 0.82771 0.85827 0.15148 0.0
H85 H 0.8197 0.90384 0.12166 0.0
C86 C 0.7731 0.90863 0.11338 0.0
O87 O 0.747 0.92591 0.19557 0.0
O88 O 0.78018 0.9274 0.19381 0.0
N89 N 0.79602 0.84453 0.16002 0.0
C90 C 0.78349 0.82936 0.16873 0.0
C91 C 0.79164 0.81156 0.18077 0.0
C92 C 0.81258 0.80943 0.18337 0.0
C93 C 0.82519 0.82512 0.1739 0.0
C94 C 0.81621 0.84241 0.16176 0.0
H95 H 0.76739 0.83076 0.16643 0.0
O96 O 0.77062 0.88968 0.21973 0.0
O97 O 0.78624 0.88449 0.17619 0.0
O98 O 0.74363 0.88196 0.16942 0.0
O99 O 0.76062 0.86173 0.13729 0.0
C100 C 0.84631 0.82433 0.17621 0.0
C101 C 0.85805 0.8408 0.16647 0.0
H102 H 0.8756 0.87552 0.14589 0.0
H103 H 0.85693 0.90488 0.12527 0.0
H104 H 0.7818 0.79949 0.18795 0.0
H105 H 0.81881 0.79568 0.19268 0.0
H106 H 0.85367 0.81122 0.18575 0.0
H107 H 0.87426 0.84012 0.1687 0.0
Mn108 Mn 0.10201 0.76502 0.18068 0.0
Mn109 Mn 0.137 0.79012 0.13984 0.0
C110 C 0.12498 0.78568 0.20544 0.0
C111 C 0.06935 0.76369 0.20057 0.0
C112 C 0.13928 0.74526 0.15366 0.0
O113 O 0.09184 0.76275 0.13662 0.0
O114 O 0.11346 0.78409 0.11362 0.0
C115 C 0.11462 0.82798 0.12934 0.0
N116 N 0.1313 0.81828 0.13975 0.0
C117 C 0.14693 0.84958 0.15383 0.0
C118 C 0.13002 0.85992 0.14291 0.0
C119 C 0.11376 0.84906 0.13074 0.0
C120 C 0.14691 0.82856 0.1519 0.0
H121 H 0.10207 0.81967 0.12015 0.0
C122 C 0.09788 0.77277 0.11349 0.0
O123 O 0.07975 0.74743 0.19596 0.0
O124 O 0.07775 0.78056 0.19293 0.0
N125 N 0.16073 0.79713 0.16222 0.0
C126 C 0.17566 0.78486 0.17264 0.0
C127 C 0.19291 0.79335 0.18591 0.0
C128 C 0.19479 0.81434 0.18796 0.0
C129 C 0.1794 0.82668 0.17663 0.0
C130 C 0.16261 0.81737 0.16347 0.0
H131 H 0.17443 0.76872 0.17087 0.0
O132 O 0.11519 0.77208 0.22057 0.0
O133 O 0.12067 0.78709 0.17664 0.0
O134 O 0.1241 0.74438 0.17147 0.0
O135 O 0.14448 0.76127 0.13949 0.0
C136 C 0.17994 0.84784 0.17823 0.0
C137 C 0.16367 0.85927 0.16699 0.0
H138 H 0.12928 0.87618 0.14399 0.0
H139 H 0.10058 0.85693 0.12249 0.0
H140 H 0.20475 0.78373 0.19451 0.0
H141 H 0.20806 0.82083 0.19839 0.0
H142 H 0.19267 0.85545 0.18848 0.0
H143 H 0.16413 0.87552 0.16878 0.0
Mn144 Mn 0.24084 0.90407 0.32965 0.0
Mn145 Mn 0.21575 0.86954 0.37145 0.0
C146 C 0.22002 0.88094 0.30556 0.0
C147 C 0.2422 0.93655 0.30907 0.0
C148 C 0.26052 0.86688 0.35721 0.0
O149 O 0.24331 0.91467 0.37343 0.0
O150 O 0.22211 0.89325 0.39717 0.0
C151 C 0.17812 0.89228 0.38211 0.0
N152 N 0.18763 0.87547 0.37178 0.0
C153 C 0.15614 0.86002 0.35825 0.0
C154 C 0.14599 0.87709 0.36905 0.0
C155 C 0.15704 0.89332 0.3809 0.0
C156 C 0.17717 0.85988 0.35997 0.0
H157 H 0.18658 0.9048 0.3911 0.0
C158 C 0.23344 0.90881 0.3968 0.0
O159 O 0.25845 0.92614 0.31375 0.0
O160 O 0.22534 0.92826 0.317 0.0
N161 N 0.20842 0.84569 0.34963 0.0
C162 C 0.22051 0.83056 0.33941 0.0
C163 C 0.21182 0.81328 0.32652 0.0
C164 C 0.1908 0.8116 0.32465 0.0
C165 C 0.17866 0.82719 0.3358 0.0
C166 C 0.18817 0.84399 0.34858 0.0
H167 H 0.23667 0.83164 0.34102 0.0
O168 O 0.23361 0.89054 0.29013 0.0
O169 O 0.21871 0.88553 0.33428 0.0
O170 O 0.26143 0.88196 0.33921 0.0
O171 O 0.24453 0.86185 0.37157 0.0
C172 C 0.15749 0.82683 0.33438 0.0
C173 C 0.14624 0.84328 0.34545 0.0
H174 H 0.12973 0.87796 0.36812 0.0
H175 H 0.14933 0.9066 0.38908 0.0
H176 H 0.22129 0.80128 0.31806 0.0
H177 H 0.18415 0.79831 0.31451 0.0
H178 H 0.14972 0.8141 0.32441 0.0
H179 H 0.12999 0.84296 0.34383 0.0
Mn180 Mn 0.10197 0.24067 0.33066 0.0
Mn181 Mn 0.13622 0.21468 0.3718 0.0
C182 C 0.12553 0.22076 0.30578 0.0
C183 C 0.06964 0.24249 0.30959 0.0
C184 C 0.13889 0.25975 0.36002 0.0
O185 O 0.09101 0.24208 0.37433 0.0
O186 O 0.11223 0.22033 0.39721 0.0
C187 C 0.11332 0.17683 0.37934 0.0
N188 N 0.13031 0.18658 0.3703 0.0
C189 C 0.14604 0.15544 0.35566 0.0
C190 C 0.12879 0.14503 0.36514 0.0
C191 C 0.11233 0.15579 0.37689 0.0
C192 C 0.14611 0.17641 0.35852 0.0
H193 H 0.10062 0.18506 0.38823 0.0
C194 C 0.09667 0.23166 0.39725 0.0
O195 O 0.07997 0.25862 0.31545 0.0
O196 O 0.07791 0.22545 0.31661 0.0
N197 N 0.16044 0.20791 0.35054 0.0
C198 C 0.17587 0.22022 0.34214 0.0
C199 C 0.19355 0.21182 0.33007 0.0
C200 C 0.1953 0.19086 0.32716 0.0
C201 C 0.17936 0.17848 0.33635 0.0
C202 C 0.1622 0.18769 0.34852 0.0
H203 H 0.17476 0.23632 0.34468 0.0
O204 O 0.11583 0.2346 0.29102 0.0
O205 O 0.1207 0.21854 0.33429 0.0
O206 O 0.12393 0.26104 0.34182 0.0
O207 O 0.14384 0.24346 0.3737 0.0
C208 C 0.17976 0.15736 0.33372 0.0
C209 C 0.16306 0.14586 0.34318 0.0
H210 H 0.12797 0.12881 0.3633 0.0
H211 H 0.09892 0.14788 0.38405 0.0
H212 H 0.20581 0.22148 0.32312 0.0
H213 H 0.20894 0.18445 0.31782 0.0
H214 H 0.19276 0.14983 0.32414 0.0
H215 H 0.16345 0.12966 0.34071 0.0
Mn216 Mn 0.76479 0.10187 0.33032 0.0
Mn217 Mn 0.79069 0.13599 0.37179 0.0
C218 C 0.78529 0.1251 0.30582 0.0
C219 C 0.76292 0.06949 0.30945 0.0
C220 C 0.74576 0.13905 0.35893 0.0
O221 O 0.7628 0.0911 0.37407 0.0
O222 O 0.78461 0.11214 0.39726 0.0
C223 C 0.82829 0.1128 0.38033 0.0
N224 N 0.81876 0.12983 0.37093 0.0
C225 C 0.85014 0.14523 0.35677 0.0
C226 C 0.86032 0.12794 0.36663 0.0
C227 C 0.84933 0.11162 0.37832 0.0
C228 C 0.82915 0.14549 0.35918 0.0
H229 H 0.81987 0.10021 0.38918 0.0
C230 C 0.7731 0.09672 0.39717 0.0
O231 O 0.74682 0.07999 0.31477 0.0
O232 O 0.77995 0.07763 0.31691 0.0
N233 N 0.79785 0.16004 0.35038 0.0
C234 C 0.78573 0.17552 0.3415 0.0
C235 C 0.79438 0.19305 0.32937 0.0
C236 C 0.81537 0.19463 0.32691 0.0
C237 C 0.82755 0.17864 0.33657 0.0
C238 C 0.81809 0.16161 0.34873 0.0
H239 H 0.7696 0.17456 0.34372 0.0
O240 O 0.77151 0.11555 0.29071 0.0
O241 O 0.78705 0.12034 0.33441 0.0
O242 O 0.74451 0.12408 0.34074 0.0
O243 O 0.76195 0.14385 0.373 0.0
C244 C 0.84869 0.17888 0.33444 0.0
C245 C 0.85997 0.16213 0.34434 0.0
H246 H 0.87656 0.12697 0.36513 0.0
H247 H 0.85707 0.09817 0.38576 0.0
H248 H 0.78488 0.20536 0.32206 0.0
H249 H 0.82198 0.20818 0.31759 0.0
H250 H 0.8564 0.19177 0.32489 0.0
H251 H 0.8762 0.16237 0.34221 0.0
Mn252 Mn 0.90341 0.76456 0.32947 0.0
Mn253 Mn 0.86913 0.79004 0.37132 0.0
C254 C 0.87957 0.78444 0.30514 0.0
C255 C 0.93562 0.763 0.30804 0.0
C256 C 0.8667 0.74504 0.35885 0.0
O257 O 0.91465 0.76303 0.37297 0.0
O258 O 0.89326 0.78433 0.39646 0.0
C259 C 0.89188 0.82795 0.37934 0.0
N260 N 0.87491 0.81818 0.37024 0.0
C261 C 0.85903 0.84934 0.35611 0.0
C262 C 0.87625 0.85976 0.36565 0.0
C263 C 0.89278 0.849 0.37718 0.0
C264 C 0.85905 0.82835 0.35867 0.0
H265 H 0.90463 0.81971 0.38805 0.0
C266 C 0.90896 0.77321 0.39611 0.0
O267 O 0.92539 0.7468 0.31383 0.0
O268 O 0.92729 0.77998 0.31529 0.0
N269 N 0.84481 0.79685 0.35034 0.0
C270 C 0.82939 0.78453 0.34187 0.0
C271 C 0.81164 0.79293 0.33005 0.0
C272 C 0.80981 0.8139 0.32742 0.0
C273 C 0.82574 0.82629 0.33666 0.0
C274 C 0.84297 0.81707 0.34859 0.0
H275 H 0.83057 0.76842 0.34419 0.0
O276 O 0.88927 0.77073 0.29009 0.0
O277 O 0.88454 0.78654 0.33362 0.0
O278 O 0.88166 0.74397 0.34063 0.0
O279 O 0.86165 0.7612 0.37277 0.0
C280 C 0.82525 0.84742 0.33432 0.0
C281 C 0.84193 0.85893 0.34385 0.0
H282 H 0.877 0.876 0.36404 0.0
H283 H 0.90618 0.85692 0.3844 0.0
H284 H 0.79939 0.78327 0.32305 0.0
H285 H 0.79611 0.82032 0.31826 0.0
H286 H 0.81219 0.85495 0.32492 0.0
H287 H 0.84147 0.87514 0.3416 0.0
Mn288 Mn 0.7646 0.90299 0.83046 0.0
Mn289 Mn 0.79058 0.86896 0.87203 0.0
C290 C 0.7846 0.87937 0.8059 0.0
C291 C 0.76278 0.93523 0.80913 0.0
C292 C 0.74554 0.86614 0.86002 0.0
O293 O 0.7631 0.91415 0.87399 0.0
O294 O 0.78481 0.89304 0.89723 0.0
C295 C 0.82836 0.89196 0.87966 0.0
N296 N 0.81866 0.87494 0.87063 0.0
C297 C 0.84986 0.85929 0.85612 0.0
C298 C 0.86021 0.87658 0.86558 0.0
C299 C 0.84939 0.89302 0.87727 0.0
C300 C 0.82889 0.85915 0.85894 0.0
H301 H 0.82008 0.90465 0.8885 0.0
C302 C 0.77348 0.9086 0.89702 0.0
O303 O 0.74665 0.9249 0.81497 0.0
O304 O 0.77982 0.92699 0.81629 0.0
N305 N 0.79745 0.84469 0.85095 0.0
C306 C 0.7852 0.82921 0.84254 0.0
C307 C 0.79366 0.81155 0.83051 0.0
C308 C 0.81462 0.80987 0.82763 0.0
C309 C 0.82695 0.82586 0.83683 0.0
C310 C 0.81767 0.843 0.84896 0.0
H311 H 0.76909 0.83028 0.84503 0.0
O312 O 0.77076 0.88897 0.79098 0.0
O313 O 0.78675 0.88433 0.83438 0.0
O314 O 0.74424 0.88105 0.84172 0.0
O315 O 0.7618 0.86128 0.87382 0.0
C316 C 0.84807 0.82552 0.83423 0.0
C317 C 0.8595 0.84228 0.8437 0.0
H318 H 0.87643 0.87745 0.86378 0.0
H319 H 0.85725 0.90647 0.88442 0.0
H320 H 0.78404 0.79925 0.82354 0.0
H321 H 0.82109 0.79625 0.81829 0.0
H322 H 0.85564 0.81254 0.82469 0.0
H323 H 0.87571 0.84194 0.84125 0.0
Mn324 Mn 0.10193 0.7646 0.82965 0.0
Mn325 Mn 0.13613 0.79039 0.87114 0.0
C326 C 0.12485 0.7855 0.80528 0.0
C327 C 0.0695 0.76272 0.80894 0.0
C328 C 0.13927 0.74554 0.8577 0.0
O329 O 0.09132 0.76236 0.87345 0.0
O330 O 0.11244 0.78404 0.89685 0.0
C331 C 0.11306 0.82791 0.88099 0.0
N332 N 0.12997 0.81846 0.87094 0.0
C333 C 0.14522 0.84997 0.85704 0.0
C334 C 0.12805 0.86007 0.86755 0.0
C335 C 0.11187 0.84898 0.87945 0.0
C336 C 0.14552 0.82896 0.85908 0.0
H337 H 0.10058 0.81942 0.89001 0.0
C338 C 0.09702 0.77252 0.89665 0.0
O339 O 0.08008 0.74663 0.81397 0.0
O340 O 0.07757 0.77973 0.81663 0.0
N341 N 0.15996 0.79774 0.8493 0.0
C342 C 0.1752 0.78569 0.83933 0.0
C343 C 0.19244 0.79442 0.82642 0.0
C344 C 0.19398 0.81544 0.82426 0.0
C345 C 0.17828 0.82755 0.83514 0.0
C346 C 0.16151 0.818 0.84796 0.0
H347 H 0.17423 0.76954 0.84118 0.0
O348 O 0.11542 0.77169 0.79004 0.0
O349 O 0.12022 0.78698 0.83396 0.0
O350 O 0.12425 0.74434 0.8396 0.0
O351 O 0.14408 0.76168 0.87184 0.0
C352 C 0.17848 0.84871 0.83341 0.0
C353 C 0.16192 0.85991 0.84421 0.0
H354 H 0.12706 0.87631 0.86636 0.0
H355 H 0.09851 0.85665 0.88741 0.0
H356 H 0.20453 0.78498 0.81817 0.0
H357 H 0.20724 0.82212 0.8141 0.0
H358 H 0.19118 0.8565 0.82341 0.0
H359 H 0.16213 0.87615 0.84233 0.0
Mn360 Mn 0.24059 0.10195 0.82987 0.0
Mn361 Mn 0.21538 0.13671 0.87116 0.0
C362 C 0.22091 0.1258 0.80514 0.0
C363 C 0.24179 0.06957 0.8089 0.0
C364 C 0.26044 0.13857 0.85891 0.0
O365 O 0.24202 0.09104 0.87358 0.0
O366 O 0.22071 0.11265 0.89659 0.0
C367 C 0.17715 0.11453 0.87915 0.0
N368 N 0.18717 0.13131 0.86994 0.0
C369 C 0.15628 0.14759 0.85552 0.0
C370 C 0.14559 0.13056 0.86518 0.0
C371 C 0.15609 0.11392 0.87691 0.0
C372 C 0.17726 0.14727 0.85818 0.0
H373 H 0.18519 0.10169 0.88802 0.0
C374 C 0.23178 0.09691 0.89658 0.0
O375 O 0.25811 0.07966 0.81454 0.0
O376 O 0.22491 0.07813 0.81608 0.0
N377 N 0.20897 0.16101 0.84983 0.0
C378 C 0.22153 0.17618 0.84121 0.0
C379 C 0.21342 0.19399 0.82915 0.0
C380 C 0.19248 0.19613 0.82644 0.0
C381 C 0.17984 0.18044 0.83582 0.0
C382 C 0.18878 0.16313 0.84798 0.0
H383 H 0.23762 0.17477 0.84359 0.0
O384 O 0.23452 0.11587 0.79024 0.0
O385 O 0.21879 0.12105 0.83369 0.0
O386 O 0.26138 0.12358 0.84071 0.0
O387 O 0.24431 0.1438 0.87276 0.0
C388 C 0.15873 0.18123 0.83339 0.0
C389 C 0.14696 0.16476 0.84305 0.0
H390 H 0.12935 0.13004 0.8635 0.0
H391 H 0.14796 0.10067 0.88421 0.0
H392 H 0.22327 0.20606 0.82204 0.0
H393 H 0.18628 0.20988 0.81712 0.0
H394 H 0.1514 0.19435 0.82383 0.0
H395 H 0.13076 0.16545 0.84073 0.0
Mn396 Mn 0.90376 0.24027 0.83017 0.0
Mn397 Mn 0.86935 0.21501 0.87193 0.0
C398 C 0.88066 0.21945 0.80603 0.0
C399 C 0.93622 0.24171 0.80958 0.0
C400 C 0.8666 0.25981 0.85794 0.0
O401 O 0.91439 0.24266 0.87394 0.0
O402 O 0.89312 0.22126 0.89758 0.0
C403 C 0.89208 0.17733 0.88223 0.0
N404 N 0.87526 0.18688 0.87204 0.0
C405 C 0.85977 0.15545 0.85836 0.0
C406 C 0.87684 0.14525 0.86903 0.0
C407 C 0.8931 0.15625 0.88089 0.0
C408 C 0.85964 0.17647 0.86022 0.0
H409 H 0.90463 0.18575 0.89122 0.0
C410 C 0.90863 0.23265 0.89725 0.0
O411 O 0.92578 0.25794 0.81432 0.0
O412 O 0.92796 0.22483 0.81744 0.0
N413 N 0.84546 0.20777 0.85013 0.0
C414 C 0.83034 0.2199 0.83999 0.0
C415 C 0.81305 0.21126 0.82706 0.0
C416 C 0.81134 0.19025 0.82506 0.0
C417 C 0.82693 0.17806 0.83613 0.0
C418 C 0.84375 0.18752 0.84895 0.0
H419 H 0.83144 0.23605 0.8417 0.0
O420 O 0.89022 0.23308 0.79063 0.0
O421 O 0.88528 0.21809 0.83472 0.0
O422 O 0.88162 0.26079 0.83981 0.0
O423 O 0.86167 0.24379 0.8723 0.0
C424 C 0.82655 0.15689 0.83456 0.0
C425 C 0.843 0.1456 0.84554 0.0
H426 H 0.87769 0.12899 0.86798 0.0
H427 H 0.90639 0.1485 0.88896 0.0
H428 H 0.80106 0.22077 0.81867 0.0
H429 H 0.79805 0.18364 0.81488 0.0
H430 H 0.81381 0.14917 0.82457 0.0
H431 H 0.84266 0.12935 0.8438 0.0
Mn432 Mn 0.7649 0.10136 0.68094 0.0
Mn433 Mn 0.79038 0.13592 0.6398 0.0
C434 C 0.7856 0.12435 0.70556 0.0
C435 C 0.76339 0.06881 0.7012 0.0
C436 C 0.7455 0.13861 0.65325 0.0
O437 O 0.76271 0.09094 0.63701 0.0
O438 O 0.78431 0.11224 0.61387 0.0
C439 C 0.82815 0.11328 0.62988 0.0
N440 N 0.81851 0.13005 0.64005 0.0
C441 C 0.84984 0.14556 0.65428 0.0
C442 C 0.86013 0.12854 0.64364 0.0
C443 C 0.84922 0.11229 0.63152 0.0
C444 C 0.82883 0.14566 0.65212 0.0
H445 H 0.81981 0.10075 0.6207 0.0
C446 C 0.77287 0.09676 0.6139 0.0
O447 O 0.74717 0.07925 0.69639 0.0
O448 O 0.78029 0.07711 0.69357 0.0
N449 N 0.79745 0.15975 0.6619 0.0
C450 C 0.78523 0.17481 0.672 0.0
C451 C 0.79377 0.19208 0.68517 0.0
C452 C 0.81476 0.19382 0.68744 0.0
C453 C 0.82705 0.17829 0.67643 0.0
C454 C 0.81769 0.16149 0.66337 0.0
H455 H 0.76909 0.17368 0.67007 0.0
O456 O 0.7719 0.11472 0.7207 0.0
O457 O 0.7871 0.11986 0.67683 0.0
O458 O 0.74443 0.12356 0.67129 0.0
O459 O 0.76159 0.14356 0.63909 0.0
C460 C 0.8482 0.1787 0.67828 0.0
C461 C 0.85958 0.16231 0.66735 0.0
H462 H 0.87638 0.12771 0.64491 0.0
H463 H 0.85705 0.09904 0.62347 0.0
H464 H 0.78418 0.20402 0.69352 0.0
H465 H 0.82128 0.2071 0.6978 0.0
H466 H 0.85585 0.19143 0.68846 0.0
H467 H 0.87582 0.16266 0.66931 0.0
Mn468 Mn 0.90379 0.76517 0.67913 0.0
Mn469 Mn 0.86929 0.79084 0.63803 0.0
C470 C 0.88011 0.78492 0.70403 0.0
C471 C 0.93617 0.76375 0.70009 0.0
C472 C 0.867 0.74575 0.64993 0.0
O473 O 0.91468 0.76376 0.63542 0.0
O474 O 0.8933 0.78537 0.61256 0.0
C475 C 0.89184 0.82888 0.63034 0.0
N476 N 0.87496 0.81899 0.63947 0.0
C477 C 0.859 0.84999 0.65417 0.0
C478 C 0.87613 0.86054 0.6446 0.0
C479 C 0.89266 0.84992 0.63277 0.0
C480 C 0.8591 0.82902 0.65132 0.0
H481 H 0.90459 0.82075 0.62139 0.0
C482 C 0.90892 0.77413 0.61249 0.0
O483 O 0.92601 0.74748 0.69438 0.0
O484 O 0.9277 0.78067 0.69297 0.0
N485 N 0.84504 0.79741 0.65938 0.0
C486 C 0.82974 0.78497 0.66789 0.0
C487 C 0.81203 0.79322 0.68005 0.0
C488 C 0.81011 0.81416 0.68297 0.0
C489 C 0.82592 0.82668 0.67368 0.0
C490 C 0.84312 0.81761 0.66141 0.0
H491 H 0.83099 0.76888 0.66535 0.0
O492 O 0.88995 0.77119 0.71881 0.0
O493 O 0.88487 0.78713 0.67549 0.0
O494 O 0.88197 0.74459 0.66814 0.0
O495 O 0.86193 0.76199 0.63621 0.0
C496 C 0.82534 0.84779 0.6763 0.0
C497 C 0.84192 0.85943 0.66674 0.0
H498 H 0.87682 0.87677 0.64643 0.0
H499 H 0.90599 0.85795 0.62554 0.0
H500 H 0.79987 0.78346 0.68709 0.0
H501 H 0.79644 0.82046 0.69239 0.0
H502 H 0.81231 0.85521 0.68596 0.0
H503 H 0.8414 0.87563 0.66921 0.0
Mn504 Mn 0.24082 0.90344 0.68052 0.0
Mn505 Mn 0.21501 0.8691 0.63933 0.0
C506 C 0.2199 0.88063 0.7051 0.0
C507 C 0.2427 0.93596 0.70088 0.0
C508 C 0.25986 0.86598 0.65284 0.0
O509 O 0.24312 0.91383 0.6366 0.0
O510 O 0.22135 0.89271 0.61344 0.0
C511 C 0.1775 0.89219 0.62943 0.0
N512 N 0.18695 0.87528 0.63951 0.0
C513 C 0.15543 0.86006 0.65348 0.0
C514 C 0.14534 0.87722 0.6429 0.0
C515 C 0.15644 0.89339 0.63097 0.0
C516 C 0.17644 0.85976 0.65144 0.0
H517 H 0.186 0.90467 0.62041 0.0
C518 C 0.23293 0.90809 0.61345 0.0
O519 O 0.25879 0.92535 0.696 0.0
O520 O 0.22569 0.92786 0.69323 0.0
N521 N 0.20766 0.84534 0.66134 0.0
C522 C 0.21971 0.83012 0.6714 0.0
C523 C 0.21097 0.81291 0.68438 0.0
C524 C 0.18996 0.81137 0.68652 0.0
C525 C 0.17785 0.82705 0.67555 0.0
C526 C 0.18741 0.84379 0.66266 0.0
H527 H 0.23586 0.83109 0.66956 0.0
O528 O 0.2337 0.89013 0.72026 0.0
O529 O 0.21844 0.88514 0.67638 0.0
O530 O 0.26107 0.88105 0.67085 0.0
O531 O 0.24372 0.86115 0.63869 0.0
C532 C 0.15669 0.82685 0.67726 0.0
C533 C 0.1455 0.84339 0.66638 0.0
H534 H 0.1291 0.87822 0.64408 0.0
H535 H 0.14877 0.90675 0.62298 0.0
H536 H 0.22042 0.80084 0.69271 0.0
H537 H 0.18328 0.79813 0.69674 0.0
H538 H 0.1489 0.81417 0.68732 0.0
H539 H 0.12926 0.84319 0.66824 0.0
Mn540 Mn 0.10199 0.24121 0.68023 0.0
Mn541 Mn 0.13636 0.21588 0.63837 0.0
C542 C 0.12586 0.22136 0.70455 0.0
C543 C 0.06976 0.24268 0.7016 0.0
C544 C 0.13858 0.26089 0.65086 0.0
O545 O 0.09079 0.24274 0.63671 0.0
O546 O 0.11219 0.22144 0.61324 0.0
C547 C 0.11387 0.17782 0.63033 0.0
N548 N 0.13076 0.1877 0.63947 0.0
C549 C 0.14685 0.15665 0.65363 0.0
C550 C 0.1297 0.14612 0.64406 0.0
C551 C 0.11311 0.15676 0.63249 0.0
C552 C 0.14669 0.17764 0.65106 0.0
H553 H 0.10107 0.18597 0.62157 0.0
C554 C 0.09648 0.23254 0.61358 0.0
O555 O 0.07995 0.25891 0.69585 0.0
O556 O 0.07813 0.22572 0.69434 0.0
N557 N 0.16072 0.20923 0.6594 0.0
C558 C 0.17603 0.22166 0.66792 0.0
C559 C 0.19382 0.21338 0.67981 0.0
C560 C 0.19579 0.19243 0.68245 0.0
C561 C 0.17996 0.17993 0.67316 0.0
C562 C 0.16268 0.18903 0.66116 0.0
H563 H 0.17475 0.23776 0.6656 0.0
O564 O 0.11612 0.23502 0.71963 0.0
O565 O 0.12092 0.21929 0.67606 0.0
O566 O 0.12367 0.26187 0.66917 0.0
O567 O 0.14367 0.24476 0.63687 0.0
C568 C 0.18059 0.1588 0.67551 0.0
C569 C 0.16399 0.14718 0.66594 0.0
H570 H 0.12905 0.12987 0.64568 0.0
H571 H 0.09977 0.14875 0.62525 0.0
H572 H 0.20599 0.22313 0.68685 0.0
H573 H 0.20952 0.18611 0.69166 0.0
H574 H 0.19368 0.15136 0.68494 0.0
H575 H 0.16456 0.13097 0.66819 0.0
Mn576 Mn 0.74144 0.60234 0.67952 0.0
Mn577 Mn 0.71599 0.63663 0.63773 0.0
C578 C 0.72104 0.62581 0.70374 0.0
C579 C 0.74308 0.57002 0.70061 0.0
C580 C 0.76091 0.63925 0.65084 0.0
O581 O 0.74339 0.5914 0.63585 0.0
O582 O 0.72194 0.61267 0.61238 0.0
C583 C 0.6782 0.61381 0.62892 0.0
N584 N 0.68787 0.63076 0.63837 0.0
C585 C 0.65659 0.64647 0.65229 0.0
C586 C 0.64627 0.62927 0.64237 0.0
C587 C 0.65714 0.61284 0.63078 0.0
C588 C 0.67759 0.64652 0.65003 0.0
H589 H 0.68653 0.60113 0.62017 0.0
C590 C 0.73323 0.59709 0.61265 0.0
O591 O 0.75925 0.5804 0.69525 0.0
O592 O 0.7261 0.57824 0.69308 0.0
N593 N 0.709 0.66077 0.65906 0.0
C594 C 0.72123 0.6761 0.66812 0.0
C595 C 0.71272 0.6937 0.68026 0.0
C596 C 0.69173 0.69548 0.68256 0.0
C597 C 0.67943 0.67964 0.67272 0.0
C598 C 0.68876 0.66254 0.66057 0.0
H599 H 0.73736 0.67497 0.66604 0.0
O600 O 0.73472 0.61621 0.719 0.0
O601 O 0.71933 0.62098 0.67517 0.0
O602 O 0.76193 0.62429 0.66907 0.0
O603 O 0.74482 0.64423 0.63669 0.0
C604 C 0.65829 0.68008 0.6747 0.0
C605 C 0.64688 0.66345 0.66468 0.0
H606 H 0.63003 0.62847 0.64375 0.0
H607 H 0.6493 0.59945 0.62329 0.0
H608 H 0.72231 0.7059 0.68771 0.0
H609 H 0.68523 0.70908 0.69192 0.0
H610 H 0.65067 0.69304 0.68423 0.0
H611 H 0.63065 0.66386 0.66669 0.0
Mn612 Mn 0.40358 0.73984 0.68081 0.0
Mn613 Mn 0.36867 0.71462 0.63987 0.0
C614 C 0.38061 0.71913 0.70549 0.0
C615 C 0.43619 0.74127 0.70091 0.0
C616 C 0.36624 0.75947 0.65368 0.0
O617 O 0.41381 0.74208 0.63678 0.0
O618 O 0.39223 0.7207 0.61374 0.0
C619 C 0.39118 0.67682 0.6295 0.0
N620 N 0.37445 0.68647 0.63981 0.0
C621 C 0.35887 0.65514 0.65376 0.0
C622 C 0.37583 0.64483 0.64294 0.0
C623 C 0.3921 0.65574 0.6309 0.0
C624 C 0.35885 0.67615 0.65185 0.0
H625 H 0.40374 0.68516 0.62043 0.0
C626 C 0.4078 0.73203 0.61365 0.0
O627 O 0.42576 0.7575 0.69619 0.0
O628 O 0.42786 0.72438 0.69322 0.0
N629 N 0.34493 0.70755 0.66213 0.0
C630 C 0.32995 0.71978 0.67247 0.0
C631 C 0.31268 0.71125 0.68561 0.0
C632 C 0.31085 0.69025 0.68762 0.0
C633 C 0.3263 0.67796 0.67637 0.0
C634 C 0.3431 0.68731 0.66334 0.0
H635 H 0.33114 0.73592 0.67074 0.0
O636 O 0.39034 0.73277 0.72065 0.0
O637 O 0.38497 0.71771 0.67672 0.0
O638 O 0.38143 0.76041 0.67149 0.0
O639 O 0.36111 0.74345 0.6395 0.0
C640 C 0.3258 0.65679 0.67794 0.0
C641 C 0.34212 0.6454 0.66679 0.0
H642 H 0.37661 0.62858 0.64402 0.0
H643 H 0.40531 0.64791 0.62274 0.0
H644 H 0.3008 0.72084 0.69416 0.0
H645 H 0.29757 0.68373 0.69796 0.0
H646 H 0.31307 0.64915 0.6881 0.0
H647 H 0.3417 0.62915 0.66856 0.0
Mn648 Mn 0.26492 0.40315 0.67967 0.0
Mn649 Mn 0.29027 0.36905 0.63736 0.0
C650 C 0.28483 0.37922 0.7037 0.0
C651 C 0.26364 0.43533 0.70132 0.0
C652 C 0.24528 0.36666 0.64994 0.0
O653 O 0.26322 0.41449 0.63628 0.0
O654 O 0.2846 0.39331 0.6125 0.0
C655 C 0.32824 0.39167 0.62942 0.0
N656 N 0.31842 0.37473 0.63846 0.0
C657 C 0.34953 0.35871 0.65252 0.0
C658 C 0.36001 0.37592 0.64306 0.0
C659 C 0.3493 0.3925 0.63159 0.0
C660 C 0.32855 0.3588 0.64993 0.0
H661 H 0.32005 0.40446 0.62073 0.0
C662 C 0.27338 0.40895 0.61304 0.0
O663 O 0.24734 0.42521 0.69566 0.0
O664 O 0.28052 0.42692 0.69381 0.0
N665 N 0.29701 0.34462 0.6581 0.0
C666 C 0.28464 0.32923 0.66648 0.0
C667 C 0.29298 0.31145 0.67829 0.0
C668 C 0.31394 0.30956 0.68099 0.0
C669 C 0.32638 0.32546 0.6718 0.0
C670 C 0.31722 0.34273 0.65989 0.0
H671 H 0.26853 0.33046 0.66413 0.0
O672 O 0.2712 0.38891 0.71892 0.0
O673 O 0.28684 0.38427 0.67524 0.0
O674 O 0.24425 0.38146 0.66849 0.0
O675 O 0.26141 0.36171 0.63586 0.0
C676 C 0.3475 0.32491 0.67418 0.0
C677 C 0.35906 0.34157 0.66473 0.0
H678 H 0.37625 0.37662 0.6447 0.0
H679 H 0.35727 0.40589 0.62443 0.0
H680 H 0.28328 0.29922 0.68524 0.0
H681 H 0.32031 0.29585 0.69018 0.0
H682 H 0.355 0.31182 0.68355 0.0
H683 H 0.37528 0.34106 0.667 0.0
Mn684 Mn 0.60173 0.26464 0.68155 0.0
Mn685 Mn 0.63639 0.28965 0.63989 0.0
C686 C 0.62481 0.28549 0.70571 0.0
C687 C 0.56922 0.2633 0.70199 0.0
C688 C 0.63896 0.24489 0.65428 0.0
O689 O 0.59123 0.26215 0.63771 0.0
O690 O 0.61274 0.2833 0.61405 0.0
C691 C 0.61375 0.32731 0.62896 0.0
N692 N 0.63051 0.31778 0.63943 0.0
C693 C 0.64599 0.34926 0.65292 0.0
C694 C 0.62898 0.35943 0.64198 0.0
C695 C 0.61275 0.34839 0.63008 0.0
C696 C 0.6461 0.32823 0.65129 0.0
H697 H 0.60124 0.31886 0.61993 0.0
C698 C 0.59716 0.27199 0.61434 0.0
O699 O 0.57965 0.24705 0.69738 0.0
O700 O 0.57751 0.28015 0.69405 0.0
N701 N 0.6602 0.29696 0.66184 0.0
C702 C 0.67528 0.28486 0.67221 0.0
C703 C 0.69254 0.29354 0.68516 0.0
C704 C 0.69427 0.31456 0.68695 0.0
C705 C 0.67873 0.32672 0.67566 0.0
C706 C 0.66193 0.31722 0.66282 0.0
H707 H 0.67416 0.2687 0.67066 0.0
O708 O 0.61517 0.27192 0.72113 0.0
O709 O 0.62029 0.28677 0.67697 0.0
O710 O 0.62384 0.24403 0.6722 0.0
O711 O 0.64405 0.26086 0.6399 0.0
C712 C 0.67912 0.34789 0.67699 0.0
C713 C 0.66273 0.35915 0.66577 0.0
H714 H 0.62814 0.37569 0.64284 0.0
H715 H 0.59951 0.35612 0.62179 0.0
H716 H 0.7045 0.28405 0.69373 0.0
H717 H 0.70754 0.3212 0.69714 0.0
H718 H 0.69185 0.35565 0.687 0.0
H719 H 0.66308 0.3754 0.66733 0.0
Mn720 Mn 0.74098 0.40395 0.82909 0.0
Mn721 Mn 0.7159 0.36936 0.87078 0.0
C722 C 0.72013 0.38088 0.80493 0.0
C723 C 0.74236 0.43645 0.80863 0.0
C724 C 0.76066 0.36671 0.85647 0.0
O725 O 0.74347 0.41447 0.87292 0.0
O726 O 0.72226 0.39303 0.89658 0.0
C727 C 0.67827 0.39207 0.88156 0.0
N728 N 0.68778 0.37528 0.87116 0.0
C729 C 0.65628 0.35983 0.85764 0.0
C730 C 0.64613 0.37688 0.86851 0.0
C731 C 0.65719 0.3931 0.88039 0.0
C732 C 0.67731 0.3597 0.85932 0.0
H733 H 0.68672 0.40458 0.89057 0.0
C734 C 0.7336 0.40858 0.89627 0.0
O735 O 0.7586 0.42602 0.81326 0.0
O736 O 0.7255 0.42818 0.81654 0.0
N737 N 0.70856 0.34554 0.84887 0.0
C738 C 0.72065 0.33043 0.83858 0.0
C739 C 0.71196 0.31316 0.82566 0.0
C740 C 0.69094 0.31147 0.82383 0.0
C741 C 0.6788 0.32704 0.83505 0.0
C742 C 0.68831 0.34383 0.84786 0.0
H743 H 0.73681 0.33152 0.84017 0.0
O744 O 0.73371 0.39049 0.78952 0.0
O745 O 0.71883 0.38542 0.83367 0.0
O746 O 0.76156 0.38181 0.83851 0.0
O747 O 0.74468 0.36167 0.87084 0.0
C748 C 0.65763 0.32667 0.83367 0.0
C749 C 0.64638 0.3431 0.84482 0.0
H750 H 0.62988 0.37774 0.86762 0.0
H751 H 0.64947 0.40637 0.88863 0.0
H752 H 0.72143 0.30118 0.81715 0.0
H753 H 0.68429 0.29819 0.81367 0.0
H754 H 0.64986 0.31395 0.82369 0.0
H755 H 0.63013 0.34277 0.84322 0.0
Mn756 Mn 0.60217 0.74053 0.82984 0.0
Mn757 Mn 0.63682 0.71473 0.8705 0.0
C758 C 0.62561 0.72062 0.80472 0.0
C759 C 0.56974 0.7422 0.80912 0.0
C760 C 0.63925 0.75979 0.85852 0.0
O761 O 0.59146 0.74193 0.87366 0.0
O762 O 0.61303 0.72042 0.89634 0.0
C763 C 0.614 0.67689 0.87859 0.0
N764 N 0.63091 0.68662 0.86918 0.0
C765 C 0.64637 0.65549 0.85389 0.0
C766 C 0.62921 0.6451 0.86377 0.0
C767 C 0.61292 0.65586 0.87604 0.0
C768 C 0.64653 0.67645 0.8569 0.0
H769 H 0.60141 0.68513 0.88782 0.0
C770 C 0.59738 0.73163 0.89657 0.0
O771 O 0.58003 0.75838 0.81483 0.0
O772 O 0.5781 0.7252 0.81613 0.0
N773 N 0.66085 0.70793 0.84873 0.0
C774 C 0.67623 0.72022 0.84003 0.0
C775 C 0.69371 0.71181 0.82733 0.0
C776 C 0.69533 0.69086 0.82408 0.0
C777 C 0.67949 0.67849 0.83374 0.0
C778 C 0.66253 0.68771 0.84651 0.0
H779 H 0.6752 0.73632 0.84275 0.0
O780 O 0.61583 0.73443 0.79002 0.0
O781 O 0.62097 0.71849 0.83331 0.0
O782 O 0.6241 0.761 0.84067 0.0
O783 O 0.64443 0.74354 0.8721 0.0
C784 C 0.6798 0.65738 0.83094 0.0
C785 C 0.6632 0.6459 0.84083 0.0
H786 H 0.62833 0.62888 0.86183 0.0
H787 H 0.59957 0.64796 0.8835 0.0
H788 H 0.7059 0.72147 0.82006 0.0
H789 H 0.70876 0.68445 0.81404 0.0
H790 H 0.69264 0.64985 0.82089 0.0
H791 H 0.6635 0.6297 0.83821 0.0
Mn792 Mn 0.26462 0.60124 0.83023 0.0
Mn793 Mn 0.29012 0.63585 0.87133 0.0
C794 C 0.28547 0.6241 0.80564 0.0
C795 C 0.26284 0.56869 0.80999 0.0
C796 C 0.24529 0.63868 0.85752 0.0
O797 O 0.26232 0.59091 0.87419 0.0
O798 O 0.28384 0.61228 0.89735 0.0
C799 C 0.32772 0.61299 0.88158 0.0
N800 N 0.31821 0.62982 0.87137 0.0
C801 C 0.34968 0.64517 0.85749 0.0
C802 C 0.35984 0.62809 0.86823 0.0
C803 C 0.34879 0.61189 0.88018 0.0
C804 C 0.32867 0.64537 0.8594 0.0
H805 H 0.31927 0.60048 0.89059 0.0
C806 C 0.27241 0.59679 0.89736 0.0
O807 O 0.24672 0.57927 0.81481 0.0
O808 O 0.27983 0.57683 0.81763 0.0
N809 N 0.2974 0.65959 0.8492 0.0
C810 C 0.2853 0.67471 0.83897 0.0
C811 C 0.29398 0.69194 0.82594 0.0
C812 C 0.315 0.69359 0.82393 0.0
C813 C 0.32715 0.678 0.83508 0.0
C814 C 0.31765 0.66125 0.848 0.0
H815 H 0.26915 0.67366 0.8407 0.0
O816 O 0.27175 0.61451 0.79046 0.0
O817 O 0.28689 0.61966 0.83439 0.0
O818 O 0.24424 0.62352 0.83969 0.0
O819 O 0.26136 0.64368 0.87173 0.0
C820 C 0.34832 0.67832 0.8335 0.0
C821 C 0.35957 0.66186 0.84455 0.0
H822 H 0.37609 0.62717 0.86715 0.0
H823 H 0.35651 0.59858 0.88828 0.0
H824 H 0.2845 0.70394 0.81748 0.0
H825 H 0.32163 0.70684 0.81369 0.0
H826 H 0.35607 0.69101 0.82342 0.0
H827 H 0.37581 0.66214 0.84279 0.0
Mn828 Mn 0.40325 0.26432 0.83069 0.0
Mn829 Mn 0.36861 0.29018 0.87123 0.0
C830 C 0.37967 0.28399 0.8054 0.0
C831 C 0.43566 0.26267 0.80998 0.0
C832 C 0.3664 0.24504 0.85983 0.0
O833 O 0.414 0.26315 0.87451 0.0
O834 O 0.39255 0.28487 0.89696 0.0
C835 C 0.39106 0.3283 0.8787 0.0
N836 N 0.37423 0.31833 0.86953 0.0
C837 C 0.35823 0.34923 0.85443 0.0
C838 C 0.37531 0.35987 0.86403 0.0
C839 C 0.39183 0.34934 0.87608 0.0
C840 C 0.35838 0.32827 0.85748 0.0
H841 H 0.4038 0.32024 0.88783 0.0
C842 C 0.40817 0.27364 0.89728 0.0
O843 O 0.42543 0.24649 0.81586 0.0
O844 O 0.42724 0.27968 0.8168 0.0
N845 N 0.34443 0.29659 0.84958 0.0
C846 C 0.32921 0.28407 0.84101 0.0
C847 C 0.31151 0.29222 0.82862 0.0
C848 C 0.30953 0.31315 0.82554 0.0
C849 C 0.32528 0.32575 0.83486 0.0
C850 C 0.34246 0.31678 0.84735 0.0
H851 H 0.33049 0.26799 0.84368 0.0
O852 O 0.38952 0.27016 0.79084 0.0
O853 O 0.38435 0.28632 0.83395 0.0
O854 O 0.38141 0.24381 0.84172 0.0
O855 O 0.36128 0.26132 0.87335 0.0
C856 C 0.32465 0.34685 0.83205 0.0
C857 C 0.34117 0.35857 0.84164 0.0
H858 H 0.37597 0.37609 0.86205 0.0
H859 H 0.40512 0.35743 0.88334 0.0
H860 H 0.2994 0.2824 0.82155 0.0
H861 H 0.29586 0.31938 0.81597 0.0
H862 H 0.31162 0.3542 0.82222 0.0
H863 H 0.34062 0.37476 0.83901 0.0
Mn864 Mn 0.26454 0.40304 0.33021 0.0
Mn865 Mn 0.29007 0.36887 0.37214 0.0
C866 C 0.28496 0.37955 0.30607 0.0
C867 C 0.26283 0.43534 0.30909 0.0
C868 C 0.24515 0.36614 0.35906 0.0
O869 O 0.26259 0.41405 0.37383 0.0
O870 O 0.28409 0.39287 0.39737 0.0
C871 C 0.32782 0.39177 0.38079 0.0
N872 N 0.31818 0.37479 0.37144 0.0
C873 C 0.34949 0.35909 0.35763 0.0
C874 C 0.35978 0.37633 0.36746 0.0
C875 C 0.34888 0.39278 0.37894 0.0
C876 C 0.32849 0.35901 0.35989 0.0
H877 H 0.31947 0.40447 0.38946 0.0
C878 C 0.27277 0.40843 0.39704 0.0
O879 O 0.24669 0.42493 0.31445 0.0
O880 O 0.27984 0.42715 0.31658 0.0
N881 N 0.2971 0.34469 0.35093 0.0
C882 C 0.28489 0.32931 0.34198 0.0
C883 C 0.29343 0.31169 0.32996 0.0
C884 C 0.31442 0.30993 0.32767 0.0
C885 C 0.3267 0.32583 0.33741 0.0
C886 C 0.31734 0.34295 0.34944 0.0
H887 H 0.26876 0.33042 0.34405 0.0
O888 O 0.27126 0.38911 0.29078 0.0
O889 O 0.28668 0.38443 0.33462 0.0
O890 O 0.2441 0.38107 0.34078 0.0
O891 O 0.26125 0.36121 0.37323 0.0
C892 C 0.34784 0.32541 0.33545 0.0
C893 C 0.35923 0.34208 0.34536 0.0
H894 H 0.37602 0.37716 0.36607 0.0
H895 H 0.35669 0.40619 0.38635 0.0
H896 H 0.28386 0.29945 0.32259 0.0
H897 H 0.32095 0.29632 0.31841 0.0
H898 H 0.35549 0.31243 0.326 0.0
H899 H 0.37546 0.3417 0.34336 0.0
Mn900 Mn 0.6021 0.26511 0.33032 0.0
Mn901 Mn 0.63684 0.29048 0.37135 0.0
C902 C 0.625 0.28591 0.30569 0.0
C903 C 0.56951 0.26358 0.31016 0.0
C904 C 0.63951 0.24565 0.35751 0.0
O905 O 0.59184 0.26278 0.37431 0.0
O906 O 0.61332 0.28421 0.39746 0.0
C907 C 0.61407 0.32812 0.3818 0.0
N908 N 0.63086 0.31859 0.37147 0.0
C909 C 0.6462 0.35004 0.3575 0.0
C910 C 0.62916 0.36022 0.36834 0.0
C911 C 0.61299 0.34919 0.3804 0.0
C912 C 0.64638 0.32903 0.35941 0.0
H913 H 0.60158 0.31967 0.3909 0.0
C914 C 0.59781 0.2728 0.3975 0.0
O915 O 0.57999 0.24738 0.31486 0.0
O916 O 0.57778 0.28049 0.31788 0.0
N917 N 0.66055 0.29774 0.34914 0.0
C918 C 0.67563 0.28563 0.33884 0.0
C919 C 0.69284 0.29429 0.32571 0.0
C920 C 0.6945 0.31531 0.32367 0.0
C921 C 0.67895 0.32748 0.3349 0.0
C922 C 0.66222 0.31799 0.34793 0.0
H923 H 0.67457 0.26948 0.34059 0.0
O924 O 0.61533 0.27223 0.29051 0.0
O925 O 0.62061 0.28732 0.33445 0.0
O926 O 0.62433 0.24463 0.33971 0.0
O927 O 0.64459 0.26171 0.37167 0.0
C928 C 0.67928 0.34864 0.33331 0.0
C929 C 0.66287 0.35991 0.34446 0.0
H930 H 0.62826 0.37647 0.36727 0.0
H931 H 0.59972 0.35692 0.38859 0.0
H932 H 0.7048 0.28479 0.31719 0.0
H933 H 0.70773 0.32193 0.31334 0.0
H934 H 0.69195 0.35638 0.32315 0.0
H935 H 0.66316 0.37616 0.34268 0.0
Mn936 Mn 0.74079 0.60235 0.32978 0.0
Mn937 Mn 0.71497 0.63624 0.37188 0.0
C938 C 0.72065 0.62603 0.30558 0.0
C939 C 0.74257 0.57017 0.30821 0.0
C940 C 0.75994 0.63917 0.3594 0.0
O941 O 0.74254 0.59107 0.37321 0.0
O942 O 0.72098 0.61213 0.39687 0.0
C943 C 0.67733 0.61306 0.37985 0.0
N944 N 0.6869 0.63015 0.37079 0.0
C945 C 0.65556 0.6457 0.35675 0.0
C946 C 0.64534 0.62834 0.36624 0.0
C947 C 0.65629 0.61192 0.37771 0.0
C948 C 0.67654 0.64592 0.35931 0.0
H949 H 0.68572 0.6004 0.38854 0.0
C950 C 0.73233 0.59659 0.39643 0.0
O951 O 0.7587 0.58051 0.31397 0.0
O952 O 0.72554 0.57836 0.31557 0.0
N953 N 0.70787 0.66054 0.35105 0.0
C954 C 0.72001 0.67611 0.34267 0.0
C955 C 0.7114 0.69377 0.33088 0.0
C956 C 0.69041 0.69536 0.32823 0.0
C957 C 0.67821 0.67928 0.33742 0.0
C958 C 0.68763 0.66214 0.34931 0.0
H959 H 0.73613 0.67512 0.34499 0.0
O960 O 0.73443 0.61648 0.29047 0.0
O961 O 0.71863 0.62099 0.33405 0.0
O962 O 0.76117 0.6243 0.34102 0.0
O963 O 0.74373 0.64402 0.37334 0.0
C964 C 0.65708 0.67953 0.33507 0.0
C965 C 0.64577 0.6627 0.34455 0.0
H966 H 0.62911 0.62741 0.36463 0.0
H967 H 0.64853 0.59843 0.38489 0.0
H968 H 0.72092 0.70614 0.32392 0.0
H969 H 0.68383 0.70898 0.31907 0.0
H970 H 0.64939 0.6925 0.32572 0.0
H971 H 0.62955 0.66297 0.3423 0.0
Mn972 Mn 0.40352 0.74069 0.3299 0.0
Mn973 Mn 0.36898 0.71512 0.37103 0.0
C974 C 0.3801 0.72057 0.30512 0.0
C975 C 0.43597 0.74208 0.30926 0.0
C976 C 0.36651 0.76012 0.35838 0.0
O977 O 0.41422 0.74244 0.3737 0.0
O978 O 0.39284 0.7209 0.39672 0.0
C979 C 0.39169 0.67725 0.37966 0.0
N980 N 0.37483 0.68699 0.37004 0.0
C981 C 0.3593 0.65583 0.35505 0.0
C982 C 0.37642 0.64544 0.36512 0.0
C983 C 0.39271 0.65621 0.37735 0.0
C984 C 0.35918 0.6768 0.35784 0.0
H985 H 0.40427 0.6855 0.38891 0.0
C986 C 0.40841 0.73221 0.39673 0.0
O987 O 0.42572 0.75835 0.31456 0.0
O988 O 0.42755 0.72518 0.31661 0.0
N989 N 0.34491 0.70827 0.34937 0.0
C990 C 0.32956 0.72056 0.34051 0.0
C991 C 0.31208 0.71214 0.32784 0.0
C992 C 0.31042 0.69118 0.32477 0.0
C993 C 0.32623 0.67882 0.33459 0.0
C994 C 0.34321 0.68805 0.34732 0.0
H995 H 0.33062 0.73667 0.34309 0.0
O996 O 0.38988 0.73427 0.29018 0.0
O997 O 0.38475 0.71866 0.33374 0.0
O998 O 0.38155 0.76123 0.34031 0.0
O999 O 0.36146 0.74395 0.3723 0.0
C1000 C 0.32588 0.6577 0.33199 0.0
C1001 C 0.34246 0.64622 0.34205 0.0
H1002 H 0.37727 0.62921 0.36336 0.0
H1003 H 0.40603 0.64831 0.38497 0.0
H1004 H 0.29991 0.72179 0.32044 0.0
H1005 H 0.29699 0.68476 0.31474 0.0
H1006 H 0.31304 0.65015 0.32199 0.0
H1007 H 0.34212 0.63001 0.33959 0.0
Mn1008 Mn 0.26468 0.60153 0.18075 0.0
Mn1009 Mn 0.29003 0.63562 0.13852 0.0
C1010 C 0.28518 0.62501 0.2047 0.0
C1011 C 0.26332 0.56918 0.20179 0.0
C1012 C 0.24516 0.6384 0.15202 0.0
O1013 O 0.26245 0.59056 0.13715 0.0
O1014 O 0.28398 0.61159 0.11337 0.0
C1015 C 0.32777 0.61277 0.12953 0.0
N1016 N 0.31815 0.62972 0.13904 0.0
C1017 C 0.34948 0.6454 0.1528 0.0
C1018 C 0.35975 0.62818 0.14286 0.0
C1019 C 0.34884 0.61176 0.13131 0.0
C1020 C 0.32847 0.64548 0.15062 0.0
H1021 H 0.31942 0.6001 0.12076 0.0
C1022 C 0.27256 0.59611 0.11385 0.0
O1023 O 0.24706 0.5795 0.19677 0.0
O1024 O 0.28019 0.5775 0.19402 0.0
N1025 N 0.29711 0.65982 0.15963 0.0
C1026 C 0.28492 0.67521 0.1686 0.0
C1027 C 0.29348 0.69282 0.18062 0.0
C1028 C 0.31447 0.69456 0.1829 0.0
C1029 C 0.32672 0.67865 0.17313 0.0
C1030 C 0.31734 0.66154 0.1611 0.0
H1031 H 0.26878 0.67412 0.16654 0.0
O1032 O 0.27159 0.61541 0.22012 0.0
O1033 O 0.28676 0.62014 0.17612 0.0
O1034 O 0.24414 0.62354 0.17046 0.0
O1035 O 0.26121 0.64321 0.13764 0.0
C1036 C 0.34787 0.67906 0.17506 0.0
C1037 C 0.35924 0.66239 0.16508 0.0
H1038 H 0.376 0.62735 0.14418 0.0
H1039 H 0.35665 0.59837 0.12378 0.0
H1040 H 0.28392 0.70506 0.188 0.0
H1041 H 0.32102 0.70816 0.19216 0.0
H1042 H 0.35553 0.69202 0.18451 0.0
H1043 H 0.37547 0.66276 0.16704 0.0
Mn1044 Mn 0.40368 0.26429 0.18076 0.0
Mn1045 Mn 0.36918 0.29014 0.13984 0.0
C1046 C 0.38017 0.28423 0.2057 0.0
C1047 C 0.43604 0.2626 0.20173 0.0
C1048 C 0.36667 0.24507 0.15177 0.0
O1049 O 0.41455 0.26292 0.13704 0.0
O1050 O 0.39306 0.28445 0.11418 0.0
C1051 C 0.39201 0.32799 0.13189 0.0
N1052 N 0.37509 0.31825 0.14122 0.0
C1053 C 0.35959 0.34937 0.15644 0.0
C1054 C 0.37676 0.35977 0.14666 0.0
C1055 C 0.39308 0.34902 0.13446 0.0
C1056 C 0.35943 0.32841 0.15341 0.0
H1057 H 0.40461 0.31976 0.1227 0.0
C1058 C 0.40872 0.27325 0.11411 0.0
O1059 O 0.42576 0.24643 0.19593 0.0
O1060 O 0.4277 0.27961 0.19467 0.0
N1061 N 0.34509 0.29693 0.16145 0.0
C1062 C 0.3297 0.28464 0.17008 0.0
C1063 C 0.31219 0.29303 0.18271 0.0
C1064 C 0.31056 0.31398 0.18596 0.0
C1065 C 0.32641 0.32636 0.17639 0.0
C1066 C 0.34341 0.31715 0.16369 0.0
H1067 H 0.33074 0.26854 0.16737 0.0
O1068 O 0.38988 0.2704 0.22048 0.0
O1069 O 0.38491 0.28636 0.17715 0.0
O1070 O 0.38176 0.24385 0.16975 0.0
O1071 O 0.36157 0.26133 0.13816 0.0
C1072 C 0.3261 0.34747 0.1792 0.0
C1073 C 0.34272 0.35896 0.16941 0.0
H1074 H 0.37764 0.37599 0.14861 0.0
H1075 H 0.40644 0.35692 0.12707 0.0
H1076 H 0.29999 0.28338 0.18993 0.0
H1077 H 0.29711 0.32039 0.19595 0.0
H1078 H 0.31324 0.355 0.18919 0.0
H1079 H 0.34241 0.37515 0.17205 0.0
Mn1080 Mn 0.74063 0.40388 0.1803 0.0
Mn1081 Mn 0.71541 0.36902 0.13931 0.0
C1082 C 0.71987 0.38097 0.20495 0.0
C1083 C 0.74205 0.43653 0.20028 0.0
C1084 C 0.76024 0.36651 0.15327 0.0
O1085 O 0.74299 0.41408 0.13627 0.0
O1086 O 0.72159 0.39255 0.11316 0.0
C1087 C 0.67769 0.39164 0.12874 0.0
N1088 N 0.68727 0.37489 0.13914 0.0
C1089 C 0.65587 0.35944 0.15308 0.0
C1090 C 0.64564 0.37642 0.14217 0.0
C1091 C 0.65661 0.39263 0.13009 0.0
C1092 C 0.67689 0.35934 0.15121 0.0
H1093 H 0.68609 0.40415 0.11962 0.0
C1094 C 0.73298 0.40807 0.11309 0.0
O1095 O 0.75828 0.42608 0.19569 0.0
O1096 O 0.72517 0.42819 0.19256 0.0
N1097 N 0.70822 0.34531 0.16158 0.0
C1098 C 0.72039 0.33029 0.17195 0.0
C1099 C 0.71179 0.31306 0.18511 0.0
C1100 C 0.69078 0.31132 0.18711 0.0
C1101 C 0.67856 0.3268 0.17581 0.0
C1102 C 0.68798 0.34356 0.16276 0.0
H1103 H 0.73654 0.33141 0.17023 0.0
O1104 O 0.7335 0.3907 0.22013 0.0
O1105 O 0.71849 0.38531 0.17617 0.0
O1106 O 0.76119 0.3817 0.17107 0.0
O1107 O 0.74421 0.36139 0.13906 0.0
C1108 C 0.65739 0.32638 0.17736 0.0
C1109 C 0.64606 0.34274 0.16614 0.0
H1110 H 0.62939 0.37725 0.14321 0.0
H1111 H 0.64883 0.40586 0.12185 0.0
H1112 H 0.72133 0.30114 0.19369 0.0
H1113 H 0.68421 0.29807 0.19746 0.0
H1114 H 0.64969 0.31369 0.18753 0.0
H1115 H 0.62982 0.34238 0.16788 0.0
Mn1116 Mn 0.60175 0.74115 0.1799 0.0
Mn1117 Mn 0.63611 0.71541 0.13862 0.0
C1118 C 0.62544 0.72131 0.20467 0.0
C1119 C 0.56945 0.7428 0.20101 0.0
C1120 C 0.6385 0.76049 0.1505 0.0
O1121 O 0.59073 0.74253 0.13624 0.0
O1122 O 0.61205 0.7209 0.11326 0.0
C1123 C 0.61352 0.67738 0.13094 0.0
N1124 N 0.63042 0.68726 0.14006 0.0
C1125 C 0.64638 0.65624 0.15467 0.0
C1126 C 0.62922 0.6457 0.14512 0.0
C1127 C 0.61269 0.65634 0.13333 0.0
C1128 C 0.64629 0.67721 0.15184 0.0
H1129 H 0.60077 0.68553 0.122 0.0
C1130 C 0.59642 0.73214 0.1133 0.0
O1131 O 0.5797 0.75898 0.19518 0.0
O1132 O 0.57779 0.7258 0.19395 0.0
N1133 N 0.66039 0.70881 0.1599 0.0
C1134 C 0.6757 0.72123 0.16842 0.0
C1135 C 0.69342 0.71297 0.18055 0.0
C1136 C 0.69534 0.69202 0.18342 0.0
C1137 C 0.6795 0.67952 0.17413 0.0
C1138 C 0.66229 0.6886 0.16191 0.0
H1139 H 0.67446 0.73733 0.16592 0.0
O1140 O 0.6157 0.7351 0.21949 0.0
O1141 O 0.62059 0.71912 0.17616 0.0
O1142 O 0.62358 0.76166 0.16878 0.0
O1143 O 0.64352 0.74425 0.13676 0.0
C1144 C 0.68007 0.6584 0.17673 0.0
C1145 C 0.66346 0.64678 0.16718 0.0
H1146 H 0.62852 0.62947 0.14693 0.0
H1147 H 0.59934 0.64833 0.12611 0.0
H1148 H 0.7056 0.72272 0.18759 0.0
H1149 H 0.70901 0.6857 0.19281 0.0
H1150 H 0.69311 0.65097 0.18634 0.0
H1151 H 0.66397 0.63058 0.16963 0.0
H1152 H 0.36816 0.20879 0.18216 0.0
H1153 H 0.2645 0.17039 0.10994 0.0
H1154 H 0.33476 0.24062 0.11275 0.0
H1155 H 0.29599 0.13848 0.18127 0.0
H1156 H 0.29213 0.1943 0.10722 0.0
H1157 H 0.34397 0.18114 0.17873 0.0
C1158 C 0.35591 0.20991 0.16596 0.0
C1159 C 0.35348 0.22721 0.14788 0.0
C1160 C 0.29311 0.182 0.12333 0.0
C1161 C 0.32566 0.19558 0.14397 0.0
C1162 C 0.2773 0.16826 0.12489 0.0
C1163 C 0.27777 0.1524 0.14605 0.0
C1164 C 0.30959 0.18002 0.14316 0.0
C1165 C 0.2949 0.15047 0.16466 0.0
C1166 C 0.34206 0.19411 0.16408 0.0
C1167 C 0.33725 0.22772 0.12733 0.0
N1168 N 0.31003 0.16422 0.16296 0.0
N1169 N 0.32395 0.21224 0.1261 0.0
H1170 H 0.83583 0.26508 0.1113 0.0
H1171 H 0.79587 0.36758 0.1855 0.0
H1172 H 0.86662 0.29553 0.18479 0.0
H1173 H 0.76542 0.335 0.11381 0.0
H1174 H 0.82366 0.34344 0.18257 0.0
H1175 H 0.81184 0.29264 0.10883 0.0
C1176 C 0.83768 0.27764 0.12681 0.0
C1177 C 0.85326 0.27783 0.14847 0.0
C1178 C 0.81095 0.34171 0.16733 0.0
C1179 C 0.82553 0.30958 0.14586 0.0
C1180 C 0.79508 0.35552 0.16893 0.0
C1181 C 0.77814 0.3533 0.15003 0.0
C1182 C 0.8099 0.32558 0.14666 0.0
C1183 C 0.77803 0.33732 0.12903 0.0
C1184 C 0.8239 0.29341 0.12538 0.0
C1185 C 0.85486 0.29466 0.16776 0.0
N1186 N 0.79356 0.32407 0.12806 0.0
N1187 N 0.84106 0.30977 0.16619 0.0
H1188 H 0.66918 0.7654 0.10949 0.0
H1189 H 0.7087 0.86826 0.18286 0.0
H1190 H 0.63816 0.79626 0.18234 0.0
H1191 H 0.73928 0.8357 0.11129 0.0
H1192 H 0.68089 0.84421 0.17969 0.0
H1193 H 0.69298 0.79311 0.10652 0.0
C1194 C 0.66723 0.77808 0.12474 0.0
C1195 C 0.65165 0.77834 0.14638 0.0
C1196 C 0.69362 0.84247 0.16451 0.0
C1197 C 0.67916 0.81025 0.14321 0.0
C1198 C 0.7095 0.85624 0.16623 0.0
C1199 C 0.7265 0.85397 0.14748 0.0
C1200 C 0.69472 0.82632 0.14388 0.0
C1201 C 0.72662 0.83804 0.12641 0.0
C1202 C 0.68089 0.79394 0.12303 0.0
C1203 C 0.64992 0.79533 0.16534 0.0
N1204 N 0.71109 0.8248 0.12534 0.0
N1205 N 0.66362 0.81051 0.1635 0.0
H1206 H 0.2399 0.66883 0.11072 0.0
H1207 H 0.13811 0.70968 0.18598 0.0
H1208 H 0.20993 0.63871 0.18525 0.0
H1209 H 0.17062 0.73984 0.11398 0.0
H1210 H 0.16205 0.68173 0.18291 0.0
H1211 H 0.21244 0.69293 0.10838 0.0
C1212 C 0.22747 0.66714 0.12648 0.0
C1213 C 0.22738 0.65173 0.1484 0.0
C1214 C 0.16381 0.69441 0.16764 0.0
C1215 C 0.19575 0.67959 0.14594 0.0
C1216 C 0.15011 0.71037 0.16931 0.0
C1217 C 0.15238 0.72728 0.15036 0.0
C1218 C 0.17986 0.69533 0.14684 0.0
C1219 C 0.16828 0.72726 0.12925 0.0
C1220 C 0.21175 0.68099 0.12514 0.0
C1221 C 0.2107 0.65034 0.16802 0.0
N1222 N 0.18141 0.71164 0.1282 0.0
N1223 N 0.19565 0.6642 0.16651 0.0
H1224 H 0.29609 0.86777 0.32483 0.0
H1225 H 0.33579 0.76525 0.39922 0.0
H1226 H 0.26574 0.83553 0.39694 0.0
H1227 H 0.36671 0.79562 0.32583 0.0
H1228 H 0.3119 0.7929 0.40171 0.0
H1229 H 0.32382 0.84357 0.32782 0.0
C1230 C 0.29531 0.85577 0.34151 0.0
C1231 C 0.27841 0.85366 0.36051 0.0
C1232 C 0.32398 0.79364 0.38518 0.0
C1233 C 0.31009 0.82586 0.36392 0.0
C1234 C 0.33769 0.77781 0.38374 0.0
C1235 C 0.35327 0.77796 0.36211 0.0
C1236 C 0.32567 0.80981 0.36473 0.0
C1237 C 0.35494 0.79479 0.34285 0.0
C1238 C 0.31115 0.84193 0.34313 0.0
C1239 C 0.27832 0.83776 0.38163 0.0
N1240 N 0.3412 0.80995 0.34443 0.0
N1241 N 0.29381 0.82447 0.38262 0.0
H1242 H 0.2091 0.36754 0.32803 0.0
H1243 H 0.16999 0.26426 0.40046 0.0
H1244 H 0.2404 0.33435 0.39822 0.0
H1245 H 0.13848 0.29569 0.32865 0.0
H1246 H 0.19399 0.29181 0.40329 0.0
H1247 H 0.18136 0.34344 0.33124 0.0
C1248 C 0.21009 0.35535 0.34435 0.0
C1249 C 0.22726 0.35296 0.36273 0.0
C1250 C 0.18175 0.29279 0.38705 0.0
C1251 C 0.19553 0.32524 0.36638 0.0
C1252 C 0.16797 0.27703 0.38542 0.0
C1253 C 0.15219 0.2775 0.3641 0.0
C1254 C 0.17992 0.30923 0.36712 0.0
C1255 C 0.1504 0.29459 0.34539 0.0
C1256 C 0.19424 0.34156 0.3461 0.0
C1257 C 0.2276 0.33681 0.38342 0.0
N1258 N 0.16419 0.30968 0.34716 0.0
N1259 N 0.21208 0.32356 0.38452 0.0
H1260 H 0.74111 0.17016 0.39928 0.0
H1261 H 0.63827 0.20982 0.32579 0.0
H1262 H 0.7101 0.13893 0.32675 0.0
H1263 H 0.67127 0.24072 0.39661 0.0
H1264 H 0.66239 0.18205 0.32883 0.0
H1265 H 0.71366 0.19428 0.40169 0.0
C1266 C 0.72846 0.16824 0.38398 0.0
C1267 C 0.72807 0.15249 0.36261 0.0
C1268 C 0.66423 0.19485 0.34385 0.0
C1269 C 0.69645 0.18036 0.36514 0.0
C1270 C 0.65042 0.21071 0.34219 0.0
C1271 C 0.65276 0.22777 0.36082 0.0
C1272 C 0.68048 0.19602 0.3643 0.0
C1273 C 0.66886 0.22801 0.3816 0.0
C1274 C 0.71275 0.18209 0.38536 0.0
C1275 C 0.71112 0.15082 0.34356 0.0
N1276 N 0.6821 0.21248 0.38263 0.0
N1277 N 0.69607 0.16468 0.3451 0.0
H1278 H 0.76452 0.67026 0.39984 0.0
H1279 H 0.86806 0.70899 0.32782 0.0
H1280 H 0.79588 0.6387 0.32801 0.0
H1281 H 0.835 0.74029 0.39815 0.0
H1282 H 0.84384 0.68135 0.33089 0.0
H1283 H 0.79218 0.69412 0.40283 0.0
C1284 C 0.77729 0.66821 0.38483 0.0
C1285 C 0.77772 0.65245 0.36346 0.0
C1286 C 0.84202 0.6942 0.34582 0.0
C1287 C 0.80958 0.68001 0.36668 0.0
C1288 C 0.85588 0.70999 0.34416 0.0
C1289 C 0.85355 0.72714 0.36259 0.0
C1290 C 0.82569 0.69553 0.36608 0.0
C1291 C 0.83741 0.7275 0.38329 0.0
C1292 C 0.79313 0.6819 0.38655 0.0
C1293 C 0.79482 0.65061 0.34479 0.0
N1294 N 0.82409 0.71204 0.38431 0.0
N1295 N 0.80998 0.66432 0.34665 0.0
H1296 H 0.74113 0.83492 0.90025 0.0
H1297 H 0.6376 0.79606 0.82815 0.0
H1298 H 0.70953 0.86661 0.82878 0.0
H1299 H 0.67123 0.76432 0.89739 0.0
H1300 H 0.66168 0.82381 0.83152 0.0
H1301 H 0.7136 0.81089 0.903 0.0
C1302 C 0.72833 0.83697 0.88527 0.0
C1303 C 0.7278 0.85281 0.86407 0.0
C1304 C 0.66366 0.81084 0.84614 0.0
C1305 C 0.6961 0.82505 0.86699 0.0
C1306 C 0.64988 0.79498 0.8443 0.0
C1307 C 0.65241 0.77769 0.86235 0.0
C1308 C 0.6801 0.80943 0.8662 0.0
C1309 C 0.66867 0.77722 0.88283 0.0
C1310 C 0.71258 0.82317 0.88685 0.0
C1311 C 0.71067 0.85465 0.84543 0.0
N1312 N 0.68191 0.79276 0.88404 0.0
N1313 N 0.69559 0.84084 0.84715 0.0
H1314 H 0.17031 0.74083 0.89812 0.0
H1315 H 0.20956 0.63756 0.82558 0.0
H1316 H 0.13914 0.70988 0.82547 0.0
H1317 H 0.24043 0.67054 0.89644 0.0
H1318 H 0.18195 0.66189 0.8282 0.0
H1319 H 0.19427 0.71327 0.90081 0.0
C1320 C 0.16837 0.72817 0.88283 0.0
C1321 C 0.15268 0.72783 0.86136 0.0
C1322 C 0.19471 0.66367 0.84332 0.0
C1323 C 0.18038 0.69606 0.86424 0.0
C1324 C 0.21048 0.64975 0.84191 0.0
C1325 C 0.22748 0.65202 0.86067 0.0
C1326 C 0.19592 0.67998 0.86366 0.0
C1327 C 0.22776 0.66818 0.88135 0.0
C1328 C 0.18213 0.71239 0.88439 0.0
C1329 C 0.15099 0.71087 0.84234 0.0
N1330 N 0.21232 0.68154 0.88214 0.0
N1331 N 0.16476 0.69574 0.84406 0.0
H1332 H 0.33564 0.2402 0.9007 0.0
H1333 H 0.29636 0.13719 0.82755 0.0
H1334 H 0.36689 0.20917 0.82824 0.0
H1335 H 0.26558 0.16987 0.89881 0.0
H1336 H 0.32417 0.16123 0.83085 0.0
H1337 H 0.31186 0.21247 0.9037 0.0
C1338 C 0.33764 0.22748 0.88555 0.0
C1339 C 0.35327 0.22717 0.86399 0.0
C1340 C 0.3114 0.163 0.84594 0.0
C1341 C 0.3258 0.19525 0.8672 0.0
C1342 C 0.29551 0.14924 0.84414 0.0
C1343 C 0.27845 0.15154 0.86276 0.0
C1344 C 0.31024 0.17918 0.8665 0.0
C1345 C 0.27828 0.1675 0.88379 0.0
C1346 C 0.32399 0.21161 0.88728 0.0
C1347 C 0.35508 0.21014 0.84517 0.0
N1348 N 0.29382 0.18073 0.88492 0.0
N1349 N 0.34139 0.19495 0.84701 0.0
H1350 H 0.83602 0.26522 0.89889 0.0
H1351 H 0.79608 0.3674 0.82369 0.0
H1352 H 0.86656 0.29503 0.82461 0.0
H1353 H 0.76599 0.33548 0.89637 0.0
H1354 H 0.82376 0.34314 0.82656 0.0
H1355 H 0.81215 0.29288 0.90118 0.0
C1356 C 0.83783 0.27765 0.88315 0.0
C1357 C 0.85331 0.27764 0.86135 0.0
C1358 C 0.81116 0.34158 0.84202 0.0
C1359 C 0.82572 0.30952 0.86376 0.0
C1360 C 0.79535 0.35546 0.84047 0.0
C1361 C 0.77854 0.35346 0.85967 0.0
C1362 C 0.81017 0.3256 0.86294 0.0
C1363 C 0.7785 0.33763 0.88091 0.0
C1364 C 0.82413 0.29349 0.88448 0.0
C1365 C 0.85487 0.29432 0.84176 0.0
N1366 N 0.79397 0.32431 0.88183 0.0
N1367 N 0.84115 0.3095 0.84326 0.0
H1368 H 0.63808 0.20945 0.68699 0.0
H1369 H 0.74028 0.16922 0.61229 0.0
H1370 H 0.67027 0.2395 0.61456 0.0
H1371 H 0.7102 0.13871 0.68634 0.0
H1372 H 0.71271 0.19318 0.60987 0.0
H1373 H 0.66224 0.18168 0.6842 0.0
C1374 C 0.65006 0.21015 0.67029 0.0
C1375 C 0.65217 0.22698 0.65113 0.0
C1376 C 0.71201 0.18119 0.62655 0.0
C1377 C 0.67992 0.19524 0.64794 0.0
C1378 C 0.7278 0.16743 0.62794 0.0
C1379 C 0.72771 0.15194 0.64972 0.0
C1380 C 0.69594 0.17963 0.64718 0.0
C1381 C 0.71098 0.15041 0.66921 0.0
C1382 C 0.66388 0.19429 0.66878 0.0
C1383 C 0.66805 0.22698 0.62998 0.0
N1384 N 0.69585 0.16419 0.66765 0.0
N1385 N 0.68131 0.21147 0.6291 0.0
H1386 H 0.79683 0.63795 0.68224 0.0
H1387 H 0.83625 0.74087 0.60901 0.0
H1388 H 0.76584 0.67085 0.61142 0.0
H1389 H 0.86733 0.71 0.68181 0.0
H1390 H 0.81235 0.71325 0.60619 0.0
H1391 H 0.82459 0.66204 0.67907 0.0
C1392 C 0.79592 0.65007 0.66579 0.0
C1393 C 0.77882 0.6524 0.64723 0.0
C1394 C 0.82447 0.7124 0.62266 0.0
C1395 C 0.81058 0.68009 0.64361 0.0
C1396 C 0.83819 0.72821 0.62428 0.0
C1397 C 0.85381 0.72791 0.64587 0.0
C1398 C 0.82619 0.6961 0.64287 0.0
C1399 C 0.85553 0.71095 0.66485 0.0
C1400 C 0.81178 0.66386 0.66406 0.0
C1401 C 0.77858 0.66846 0.62638 0.0
N1402 N 0.84178 0.69581 0.66309 0.0
N1403 N 0.79411 0.6817 0.62529 0.0
H1404 H 0.26467 0.83502 0.61232 0.0
H1405 H 0.36738 0.79511 0.68591 0.0
H1406 H 0.29537 0.86593 0.68547 0.0
H1407 H 0.33464 0.76465 0.61438 0.0
H1408 H 0.34321 0.82286 0.68317 0.0
H1409 H 0.29216 0.81097 0.60983 0.0
C1410 C 0.27726 0.83688 0.62776 0.0
C1411 C 0.27756 0.85252 0.64931 0.0
C1412 C 0.34144 0.81016 0.66793 0.0
C1413 C 0.30924 0.82472 0.64667 0.0
C1414 C 0.35528 0.79432 0.66941 0.0
C1415 C 0.35303 0.77738 0.6505 0.0
C1416 C 0.32525 0.8091 0.64737 0.0
C1417 C 0.33699 0.77726 0.62961 0.0
C1418 C 0.293 0.82307 0.62632 0.0
C1419 C 0.29443 0.85412 0.66853 0.0
N1420 N 0.32372 0.79277 0.62875 0.0
N1421 N 0.30951 0.84029 0.66693 0.0
H1422 H 0.13735 0.29677 0.68232 0.0
H1423 H 0.24013 0.33615 0.60868 0.0
H1424 H 0.1699 0.26596 0.61097 0.0
H1425 H 0.20963 0.36697 0.68207 0.0
H1426 H 0.21238 0.3124 0.60574 0.0
H1427 H 0.16145 0.32452 0.67909 0.0
C1428 C 0.14939 0.2959 0.66572 0.0
C1429 C 0.15163 0.27885 0.64705 0.0
C1430 C 0.21164 0.32443 0.62236 0.0
C1431 C 0.17934 0.31058 0.64338 0.0
C1432 C 0.22752 0.33807 0.62405 0.0
C1433 C 0.22737 0.35357 0.64585 0.0
C1434 C 0.19541 0.32613 0.6427 0.0
C1435 C 0.21047 0.35526 0.66496 0.0
C1436 C 0.16318 0.31175 0.66397 0.0
C1437 C 0.16758 0.27866 0.62602 0.0
N1438 N 0.19526 0.3416 0.66312 0.0
N1439 N 0.18084 0.29417 0.62492 0.0
H1440 H 0.20119 0.0814 0.0799 0.0
H1441 H 0.26574 0.08578 0.92777 0.0
H1442 H 0.26557 0.08847 0.07949 0.0
H1443 H 0.20104 0.08471 0.93251 0.0
H1444 H 0.2672 0.07708 0.98234 0.0
H1445 H 0.20223 0.07233 0.02603 0.0
C1446 C 0.21563 0.08048 0.06855 0.0
C1447 C 0.2333 0.08575 0.08397 0.0
C1448 C 0.2527 0.07819 0.9712 0.0
C1449 C 0.23461 0.07623 0.02189 0.0
C1450 C 0.25188 0.08297 0.94005 0.0
C1451 C 0.23324 0.08608 0.92584 0.0
C1452 C 0.23473 0.07647 0.98795 0.0
C1453 C 0.21571 0.0826 0.94274 0.0
C1454 C 0.21624 0.07542 0.03772 0.0
C1455 C 0.25164 0.08439 0.06829 0.0
N1456 N 0.21688 0.07822 0.97291 0.0
N1457 N 0.25179 0.08021 0.03783 0.0
H1458 H 0.9254 0.2026 0.93009 0.0
H1459 H 0.91874 0.26661 0.08279 0.0
H1460 H 0.91534 0.26658 0.93107 0.0
H1461 H 0.92135 0.20196 0.0775 0.0
H1462 H 0.92734 0.26845 0.02821 0.0
H1463 H 0.93436 0.20386 0.98401 0.0
C1464 C 0.92564 0.21702 0.94158 0.0
C1465 C 0.91956 0.23449 0.92632 0.0
C1466 C 0.92658 0.25389 0.03923 0.0
C1467 C 0.92899 0.23601 0.9884 0.0
C1468 C 0.92186 0.25286 0.07038 0.0
C1469 C 0.91922 0.2341 0.08444 0.0
C1470 C 0.92874 0.23602 0.02234 0.0
C1471 C 0.92309 0.21671 0.06739 0.0
C1472 C 0.93064 0.21775 0.97243 0.0
C1473 C 0.92005 0.25281 0.94216 0.0
N1474 N 0.92742 0.21808 0.03722 0.0
N1475 N 0.92423 0.25306 0.97262 0.0
H1476 H 0.80405 0.92402 0.93033 0.0
H1477 H 0.73913 0.91944 0.08198 0.0
H1478 H 0.73968 0.91691 0.93031 0.0
H1479 H 0.80383 0.92118 0.07772 0.0
H1480 H 0.73775 0.92811 0.02741 0.0
H1481 H 0.80285 0.93316 0.98416 0.0
C1482 C 0.78958 0.92495 0.94157 0.0
C1483 C 0.77196 0.91964 0.92605 0.0
C1484 C 0.75223 0.92716 0.03865 0.0
C1485 C 0.77046 0.92924 0.98808 0.0
C1486 C 0.753 0.92239 0.06981 0.0
C1487 C 0.77163 0.91948 0.08415 0.0
C1488 C 0.77024 0.92905 0.02203 0.0
C1489 C 0.78917 0.92314 0.06738 0.0
C1490 C 0.78887 0.93005 0.97238 0.0
C1491 C 0.75358 0.92101 0.94159 0.0
N1492 N 0.78805 0.9275 0.0372 0.0
N1493 N 0.75332 0.92523 0.97204 0.0
H1494 H 0.08041 0.80252 0.92977 0.0
H1495 H 0.08793 0.73842 0.08233 0.0
H1496 H 0.09052 0.73855 0.93043 0.0
H1497 H 0.08506 0.80306 0.07718 0.0
H1498 H 0.07924 0.73658 0.02777 0.0
H1499 H 0.0718 0.8012 0.98381 0.0
C1500 C 0.08025 0.78808 0.94122 0.0
C1501 C 0.08623 0.77064 0.92582 0.0
C1502 C 0.07998 0.75113 0.03881 0.0
C1503 C 0.07723 0.76905 0.98804 0.0
C1504 C 0.08476 0.75217 0.06995 0.0
C1505 C 0.08733 0.77093 0.08405 0.0
C1506 C 0.07768 0.76901 0.02198 0.0
C1507 C 0.08338 0.78831 0.06704 0.0
C1508 C 0.07546 0.78732 0.97213 0.0
C1509 C 0.08586 0.7523 0.94162 0.0
N1510 N 0.07897 0.78694 0.03689 0.0
N1511 N 0.0819 0.75202 0.97214 0.0
H1512 H 0.20357 0.92581 0.42973 0.0
H1513 H 0.26741 0.91772 0.58247 0.0
H1514 H 0.26742 0.91499 0.43068 0.0
H1515 H 0.20282 0.92139 0.57715 0.0
H1516 H 0.2694 0.92641 0.52794 0.0
H1517 H 0.20491 0.93452 0.48375 0.0
C1518 C 0.21799 0.92584 0.44123 0.0
C1519 C 0.23539 0.91964 0.42593 0.0
C1520 C 0.25483 0.92586 0.53894 0.0
C1521 C 0.237 0.92875 0.48812 0.0
C1522 C 0.25372 0.92107 0.57007 0.0
C1523 C 0.23491 0.91872 0.5841 0.0
C1524 C 0.237 0.92836 0.52206 0.0
C1525 C 0.21759 0.9229 0.56705 0.0
C1526 C 0.21877 0.93069 0.47214 0.0
C1527 C 0.25371 0.91983 0.4418 0.0
N1528 N 0.21904 0.92729 0.53691 0.0
N1529 N 0.25399 0.92386 0.4723 0.0
H1530 H 0.08069 0.20187 0.5809 0.0
H1531 H 0.08551 0.26576 0.42809 0.0
H1532 H 0.08843 0.26617 0.57977 0.0
H1533 H 0.08453 0.20107 0.43356 0.0
H1534 H 0.07674 0.26747 0.4826 0.0
H1535 H 0.07164 0.20274 0.52701 0.0
C1536 C 0.07991 0.21627 0.56939 0.0
C1537 C 0.08537 0.23395 0.58461 0.0
C1538 C 0.07789 0.25292 0.47163 0.0
C1539 C 0.07587 0.23506 0.52252 0.0
C1540 C 0.08271 0.25195 0.44051 0.0
C1541 C 0.08587 0.23324 0.42653 0.0
C1542 C 0.07616 0.23502 0.48858 0.0
C1543 C 0.08239 0.21579 0.44362 0.0
C1544 C 0.07486 0.21678 0.53855 0.0
C1545 C 0.0842 0.25223 0.56873 0.0
N1546 N 0.07796 0.2171 0.47376 0.0
N1547 N 0.08002 0.25228 0.53827 0.0
H1548 H 0.80311 0.0807 0.58066 0.0
H1549 H 0.73876 0.08697 0.4284 0.0
H1550 H 0.73897 0.08962 0.58017 0.0
H1551 H 0.80337 0.0834 0.43312 0.0
H1552 H 0.73701 0.07851 0.48303 0.0
H1553 H 0.80184 0.07172 0.52676 0.0
C1554 C 0.78866 0.08022 0.56927 0.0
C1555 C 0.77114 0.08596 0.58469 0.0
C1556 C 0.75153 0.07902 0.47188 0.0
C1557 C 0.76957 0.07653 0.52259 0.0
C1558 C 0.75251 0.08366 0.44069 0.0
C1559 C 0.77125 0.08599 0.42645 0.0
C1560 C 0.76944 0.07667 0.48864 0.0
C1561 C 0.78864 0.08188 0.44337 0.0
C1562 C 0.78791 0.07521 0.53843 0.0
C1563 C 0.75278 0.08517 0.56897 0.0
N1564 N 0.78733 0.07766 0.47359 0.0
N1565 N 0.75251 0.081 0.53851 0.0
H1566 H 0.92017 0.74006 0.58169 0.0
H1567 H 0.92484 0.80386 0.42873 0.0
H1568 H 0.92087 0.80474 0.57607 0.0
H1569 H 0.91693 0.73959 0.42998 0.0
H1570 H 0.93391 0.80301 0.48262 0.0
H1571 H 0.92888 0.73834 0.52714 0.0
C1572 C 0.92289 0.75386 0.56922 0.0
C1573 C 0.91968 0.77257 0.58318 0.0
C1574 C 0.93064 0.78897 0.4711 0.0
C1575 C 0.92932 0.77078 0.52111 0.0
C1576 C 0.92559 0.78948 0.44026 0.0
C1577 C 0.92008 0.77179 0.42508 0.0
C1578 C 0.9296 0.77071 0.48716 0.0
C1579 C 0.9212 0.75353 0.44099 0.0
C1580 C 0.92768 0.75289 0.53809 0.0
C1581 C 0.92306 0.79002 0.56604 0.0
N1582 N 0.9254 0.75348 0.47145 0.0
N1583 N 0.92747 0.7887 0.53589 0.0
H1584 H 0.76739 0.58717 0.5811 0.0
H1585 H 0.70214 0.58066 0.42994 0.0
H1586 H 0.70277 0.58346 0.57735 0.0
H1587 H 0.76637 0.58888 0.42945 0.0
H1588 H 0.70369 0.57166 0.48381 0.0
H1589 H 0.76882 0.57835 0.52657 0.0
C1590 C 0.75358 0.58376 0.56905 0.0
C1591 C 0.73492 0.58616 0.58351 0.0
C1592 C 0.71757 0.57498 0.47192 0.0
C1593 C 0.73636 0.57643 0.52145 0.0
C1594 C 0.71666 0.57999 0.44109 0.0
C1595 C 0.73413 0.58556 0.42542 0.0
C1596 C 0.73602 0.57615 0.4875 0.0
C1597 C 0.75259 0.58456 0.44085 0.0
C1598 C 0.75437 0.57891 0.53792 0.0
C1599 C 0.71743 0.58191 0.56691 0.0
N1600 N 0.75302 0.58042 0.47131 0.0
N1601 N 0.71857 0.5775 0.53674 0.0
H1602 H 0.42403 0.70179 0.43012 0.0
H1603 H 0.41775 0.76628 0.58228 0.0
H1604 H 0.41589 0.76605 0.43037 0.0
H1605 H 0.42072 0.70164 0.57762 0.0
H1606 H 0.42638 0.76794 0.52769 0.0
H1607 H 0.43274 0.70301 0.48413 0.0
C1608 C 0.42464 0.71625 0.44148 0.0
C1609 C 0.41919 0.73383 0.42596 0.0
C1610 C 0.42568 0.75343 0.53884 0.0
C1611 C 0.42829 0.73533 0.48818 0.0
C1612 C 0.42093 0.7525 0.57 0.0
C1613 C 0.4184 0.73379 0.58424 0.0
C1614 C 0.42794 0.73549 0.52213 0.0
C1615 C 0.42237 0.71635 0.56736 0.0
C1616 C 0.42949 0.71697 0.47238 0.0
C1617 C 0.42013 0.75219 0.44165 0.0
N1618 N 0.42671 0.71762 0.53718 0.0
N1619 N 0.42412 0.75244 0.47217 0.0
H1620 H 0.23861 0.41853 0.42844 0.0
H1621 H 0.3037 0.42481 0.5797 0.0
H1622 H 0.30324 0.42204 0.43235 0.0
H1623 H 0.23942 0.41691 0.58 0.0
H1624 H 0.30225 0.4339 0.52586 0.0
H1625 H 0.23714 0.42746 0.48292 0.0
C1626 C 0.25242 0.42192 0.44052 0.0
C1627 C 0.27108 0.41942 0.42612 0.0
C1628 C 0.28834 0.43064 0.53771 0.0
C1629 C 0.2696 0.42928 0.48813 0.0
C1630 C 0.28919 0.42557 0.56852 0.0
C1631 C 0.27167 0.42006 0.58412 0.0
C1632 C 0.2699 0.42957 0.52208 0.0
C1633 C 0.25324 0.42118 0.56866 0.0
C1634 C 0.2516 0.42684 0.47162 0.0
C1635 C 0.28857 0.42366 0.44275 0.0
N1636 N 0.25286 0.42536 0.5382 0.0
N1637 N 0.28741 0.42813 0.47289 0.0
H1638 H 0.58016 0.3019 0.58149 0.0
H1639 H 0.58809 0.23831 0.4284 0.0
H1640 H 0.59109 0.23807 0.58028 0.0
H1641 H 0.58483 0.30291 0.43403 0.0
H1642 H 0.5795 0.23626 0.48298 0.0
H1643 H 0.57153 0.30066 0.52744 0.0
C1644 C 0.58017 0.2875 0.56992 0.0
C1645 C 0.58637 0.27008 0.58517 0.0
C1646 C 0.58012 0.25085 0.47203 0.0
C1647 C 0.57735 0.26859 0.52294 0.0
C1648 C 0.58485 0.252 0.44089 0.0
C1649 C 0.58728 0.27082 0.42692 0.0
C1650 C 0.57775 0.26866 0.489 0.0
C1651 C 0.58324 0.28813 0.44407 0.0
C1652 C 0.57537 0.28679 0.539 0.0
C1653 C 0.58625 0.2518 0.56921 0.0
N1654 N 0.5789 0.28664 0.47422 0.0
N1655 N 0.58225 0.25157 0.53869 0.0
H1656 H 0.70369 0.42555 0.92915 0.0
H1657 H 0.76743 0.41778 0.08211 0.0
H1658 H 0.76754 0.41475 0.93025 0.0
H1659 H 0.70283 0.42105 0.07661 0.0
H1660 H 0.76943 0.42636 0.02752 0.0
H1661 H 0.70497 0.43424 0.98318 0.0
C1662 C 0.7181 0.42558 0.94069 0.0
C1663 C 0.73551 0.41939 0.92542 0.0
C1664 C 0.75486 0.42574 0.0385 0.0
C1665 C 0.73706 0.42848 0.98762 0.0
C1666 C 0.75374 0.42102 0.06965 0.0
C1667 C 0.73493 0.4186 0.08365 0.0
C1668 C 0.73702 0.42811 0.02156 0.0
C1669 C 0.71761 0.42263 0.06654 0.0
C1670 C 0.71884 0.43041 0.9716 0.0
C1671 C 0.75382 0.41957 0.94133 0.0
N1672 N 0.71906 0.42696 0.03638 0.0
N1673 N 0.75407 0.4236 0.97184 0.0
H1674 H 0.58108 0.70142 0.08023 0.0
H1675 H 0.58605 0.76561 0.92761 0.0
H1676 H 0.58835 0.76578 0.0795 0.0
H1677 H 0.58561 0.70091 0.9329 0.0
H1678 H 0.57721 0.76717 0.98212 0.0
H1679 H 0.57238 0.70233 0.02621 0.0
C1680 C 0.58026 0.71583 0.06878 0.0
C1681 C 0.58549 0.73353 0.08416 0.0
C1682 C 0.5785 0.75265 0.97111 0.0
C1683 C 0.5764 0.73469 0.02192 0.0
C1684 C 0.58338 0.75177 0.93999 0.0
C1685 C 0.58669 0.7331 0.92595 0.0
C1686 C 0.57687 0.73471 0.98798 0.0
C1687 C 0.58335 0.7156 0.94299 0.0
C1688 C 0.57543 0.71637 0.03786 0.0
C1689 C 0.58429 0.75183 0.06833 0.0
N1690 N 0.57885 0.71683 0.97312 0.0
N1691 N 0.58031 0.75191 0.03781 0.0
H1692 H 0.30255 0.5795 0.0807 0.0
H1693 H 0.23807 0.58705 0.92864 0.0
H1694 H 0.23852 0.58922 0.08042 0.0
H1695 H 0.30268 0.58351 0.93333 0.0
H1696 H 0.23633 0.57826 0.98316 0.0
H1697 H 0.3011 0.57072 0.02673 0.0
C1698 C 0.28807 0.5792 0.06936 0.0
C1699 C 0.27065 0.58513 0.08484 0.0
C1700 C 0.25085 0.57887 0.97202 0.0
C1701 C 0.2689 0.57597 0.02267 0.0
C1702 C 0.25182 0.58371 0.9409 0.0
C1703 C 0.27056 0.58613 0.9267 0.0
C1704 C 0.26876 0.57639 0.98873 0.0
C1705 C 0.28796 0.58196 0.94356 0.0
C1706 C 0.28723 0.57432 0.03847 0.0
C1707 C 0.25226 0.5846 0.06917 0.0
N1708 N 0.28665 0.57752 0.9737 0.0
N1709 N 0.25191 0.58057 0.03867 0.0
H1710 H 0.41968 0.23975 0.92838 0.0
H1711 H 0.42384 0.30404 0.08101 0.0
H1712 H 0.41974 0.30446 0.93361 0.0
H1713 H 0.41693 0.23964 0.08026 0.0
H1714 H 0.43265 0.30316 0.02705 0.0
H1715 H 0.42837 0.23828 0.98296 0.0
C1716 C 0.42225 0.25362 0.94077 0.0
C1717 C 0.41886 0.27226 0.92669 0.0
C1718 C 0.42965 0.28911 0.03868 0.0
C1719 C 0.42849 0.27074 0.9888 0.0
C1720 C 0.42474 0.28963 0.06956 0.0
C1721 C 0.41959 0.27191 0.08492 0.0
C1722 C 0.42883 0.27078 0.02275 0.0
C1723 C 0.42092 0.25362 0.06911 0.0
C1724 C 0.42703 0.25279 0.97193 0.0
C1725 C 0.42206 0.28979 0.94373 0.0
N1726 N 0.42497 0.25354 0.03861 0.0
N1727 N 0.42646 0.2886 0.9739 0.0
H1728 H 0.27582 0.04831 0.21856 0.0
H1729 H 0.21021 0.96052 0.29496 0.0
H1730 H 0.21095 0.04647 0.21816 0.0
H1731 H 0.27494 0.95818 0.28896 0.0
H1732 H 0.21061 0.99276 0.26853 0.0
H1733 H 0.27623 0.01593 0.24542 0.0
C1734 C 0.26167 0.04108 0.22401 0.0
C1735 C 0.24332 0.05013 0.21606 0.0
C1736 C 0.22476 0.98526 0.27298 0.0
C1737 C 0.24368 0.01317 0.24696 0.0
C1738 C 0.22455 0.96683 0.28819 0.0
C1739 C 0.24257 0.95659 0.2942 0.0
C1740 C 0.24314 0.99366 0.26365 0.0
C1741 C 0.26068 0.96554 0.28481 0.0
C1742 C 0.26192 0.02261 0.23937 0.0
C1743 C 0.22546 0.04008 0.22376 0.0
N1744 N 0.26051 0.98356 0.26998 0.0
N1745 N 0.2261 0.02222 0.2388 0.0
H1746 H 0.95988 0.2101 0.21607 0.0
H1747 H 0.04797 0.27576 0.29173 0.0
H1748 H 0.95791 0.2749 0.22085 0.0
H1749 H 0.0459 0.2109 0.29262 0.0
H1750 H 0.01557 0.27619 0.26488 0.0
H1751 H 0.99208 0.21053 0.24258 0.0
C1752 C 0.96626 0.22446 0.22259 0.0
C1753 C 0.95613 0.2425 0.2162 0.0
C1754 C 0.0222 0.26188 0.27103 0.0
C1755 C 0.99318 0.2431 0.24686 0.0
C1756 C 0.04068 0.26162 0.2864 0.0
C1757 C 0.04968 0.24326 0.29447 0.0
C1758 C 0.01269 0.24364 0.26358 0.0
C1759 C 0.03956 0.22542 0.28691 0.0
C1760 C 0.98467 0.22469 0.23785 0.0
C1761 C 0.96519 0.26063 0.22529 0.0
N1762 N 0.02169 0.22606 0.27188 0.0
N1763 N 0.98319 0.26047 0.24018 0.0
H1764 H 0.7297 0.04808 0.29071 0.0
H1765 H 0.79545 0.95935 0.21693 0.0
H1766 H 0.79452 0.04545 0.2935 0.0
H1767 H 0.73059 0.9581 0.21989 0.0
H1768 H 0.79504 0.99155 0.24353 0.0
H1769 H 0.72933 0.01566 0.26392 0.0
C1770 C 0.74384 0.04067 0.28581 0.0
C1771 C 0.76217 0.04952 0.29439 0.0
C1772 C 0.78086 0.98429 0.23837 0.0
C1773 C 0.76186 0.01251 0.26357 0.0
C1774 C 0.78108 0.96588 0.22307 0.0
C1775 C 0.76302 0.95597 0.21614 0.0
C1776 C 0.76244 0.99299 0.24687 0.0
C1777 C 0.74488 0.96521 0.22476 0.0
C1778 C 0.74362 0.02218 0.27048 0.0
C1779 C 0.78002 0.03923 0.28738 0.0
N1780 N 0.74504 0.98319 0.23968 0.0
N1781 N 0.77941 0.02136 0.27236 0.0
H1782 H 0.04531 0.79568 0.21451 0.0
H1783 H 0.95744 0.72985 0.29026 0.0
H1784 H 0.0476 0.73093 0.22021 0.0
H1785 H 0.9591 0.79473 0.29078 0.0
H1786 H 0.98982 0.72955 0.26345 0.0
H1787 H 0.01297 0.79524 0.24067 0.0
C1788 C 0.03897 0.78133 0.22114 0.0
C1789 C 0.04923 0.76331 0.21515 0.0
C1790 C 0.98311 0.74383 0.2695 0.0
C1791 C 0.01205 0.76269 0.24538 0.0
C1792 C 0.96463 0.74402 0.28484 0.0
C1793 C 0.95553 0.76235 0.29282 0.0
C1794 C 0.99251 0.76211 0.26197 0.0
C1795 C 0.96553 0.78024 0.28515 0.0
C1796 C 0.02048 0.78109 0.2362 0.0
C1797 C 0.04022 0.74519 0.22436 0.0
N1798 N 0.9834 0.77966 0.27014 0.0
N1799 N 0.02216 0.74533 0.23904 0.0
H1800 H 0.72953 0.95692 0.79125 0.0
H1801 H 0.7953 0.04476 0.71532 0.0
H1802 H 0.79439 0.95885 0.792 0.0
H1803 H 0.73056 0.04716 0.72099 0.0
H1804 H 0.79481 0.01249 0.74163 0.0
H1805 H 0.72914 0.98931 0.76438 0.0
C1806 C 0.74368 0.96417 0.78588 0.0
C1807 C 0.76202 0.95514 0.79392 0.0
C1808 C 0.78067 0.02001 0.73713 0.0
C1809 C 0.76169 0.9921 0.76301 0.0
C1810 C 0.78094 0.03846 0.72199 0.0
C1811 C 0.76293 0.04873 0.71593 0.0
C1812 C 0.76226 0.01162 0.74635 0.0
C1813 C 0.7448 0.03978 0.72518 0.0
C1814 C 0.74344 0.98264 0.7705 0.0
C1815 C 0.77989 0.96521 0.78631 0.0
N1816 N 0.74492 0.02174 0.73996 0.0
N1817 N 0.77926 0.98307 0.77127 0.0
H1818 H 0.95964 0.79569 0.71624 0.0
H1819 H 0.0482 0.72955 0.78965 0.0
H1820 H 0.95816 0.73083 0.71869 0.0
H1821 H 0.04536 0.79434 0.79352 0.0
H1822 H 0.01581 0.72929 0.76273 0.0
H1823 H 0.99176 0.79509 0.74299 0.0
C1824 C 0.96611 0.78128 0.7223 0.0
C1825 C 0.95614 0.76328 0.71519 0.0
C1826 C 0.02227 0.74354 0.76956 0.0
C1827 C 0.9931 0.76247 0.7461 0.0
C1828 C 0.04074 0.7437 0.78497 0.0
C1829 C 0.04953 0.76199 0.79388 0.0
C1830 C 0.01257 0.76181 0.7629 0.0
C1831 C 0.03919 0.77987 0.78714 0.0
C1832 C 0.98447 0.78095 0.73769 0.0
C1833 C 0.96531 0.74508 0.7237 0.0
N1834 N 0.02135 0.77932 0.77203 0.0
N1835 N 0.98327 0.74513 0.73872 0.0
H1836 H 0.27585 0.9573 0.72011 0.0
H1837 H 0.20976 0.04623 0.7926 0.0
H1838 H 0.21108 0.96019 0.71595 0.0
H1839 H 0.27463 0.04744 0.79054 0.0
H1840 H 0.2103 0.01403 0.766 0.0
H1841 H 0.2761 0.98977 0.74678 0.0
C1842 C 0.2617 0.96478 0.72467 0.0
C1843 C 0.24341 0.95599 0.71576 0.0
C1844 C 0.22445 0.02128 0.77135 0.0
C1845 C 0.24358 0.99305 0.74644 0.0
C1846 C 0.22415 0.03969 0.78666 0.0
C1847 C 0.24218 0.04959 0.79384 0.0
C1848 C 0.24292 0.01257 0.76311 0.0
C1849 C 0.26037 0.04034 0.78547 0.0
C1850 C 0.26185 0.9833 0.73993 0.0
C1851 C 0.22554 0.96636 0.72234 0.0
N1852 N 0.26028 0.02235 0.77054 0.0
N1853 N 0.22608 0.98426 0.73731 0.0
H1854 H 0.96025 0.20978 0.79535 0.0
H1855 H 0.04787 0.27579 0.71935 0.0
H1856 H 0.95779 0.27452 0.78963 0.0
H1857 H 0.04632 0.21091 0.71879 0.0
H1858 H 0.01548 0.27603 0.74614 0.0
H1859 H 0.9925 0.21029 0.76897 0.0
C1860 C 0.96653 0.22415 0.78865 0.0
C1861 C 0.95625 0.24214 0.79473 0.0
C1862 C 0.02222 0.26175 0.74008 0.0
C1863 C 0.99334 0.24284 0.76425 0.0
C1864 C 0.0407 0.2616 0.72475 0.0
C1865 C 0.04984 0.24329 0.71678 0.0
C1866 C 0.01286 0.24346 0.74761 0.0
C1867 C 0.03987 0.22538 0.72442 0.0
C1868 C 0.98497 0.22442 0.77347 0.0
C1869 C 0.96518 0.26029 0.78543 0.0
N1870 N 0.02199 0.22593 0.73943 0.0
N1871 N 0.9832 0.26018 0.77063 0.0
H1872 H 0.77624 0.54835 0.71882 0.0
H1873 H 0.71039 0.46041 0.7943 0.0
H1874 H 0.71139 0.54631 0.71724 0.0
H1875 H 0.77514 0.45812 0.78881 0.0
H1876 H 0.71086 0.49266 0.76788 0.0
H1877 H 0.77655 0.51596 0.74563 0.0
C1878 C 0.76208 0.54107 0.72399 0.0
C1879 C 0.74376 0.55007 0.71573 0.0
C1880 C 0.725 0.48517 0.77244 0.0
C1881 C 0.744 0.51309 0.74659 0.0
C1882 C 0.72475 0.46673 0.78765 0.0
C1883 C 0.74276 0.4565 0.79379 0.0
C1884 C 0.74341 0.49358 0.76327 0.0
C1885 C 0.76089 0.46547 0.78455 0.0
C1886 C 0.76227 0.52259 0.73933 0.0
C1887 C 0.72587 0.53996 0.72309 0.0
N1888 N 0.76076 0.4835 0.76973 0.0
N1889 N 0.72645 0.52209 0.73813 0.0
H1890 H 0.54788 0.77536 0.79134 0.0
H1891 H 0.46024 0.70935 0.71517 0.0
H1892 H 0.54616 0.71048 0.79216 0.0
H1893 H 0.45781 0.7741 0.72071 0.0
H1894 H 0.49247 0.70988 0.74167 0.0
H1895 H 0.5155 0.77562 0.76444 0.0
C1896 C 0.54067 0.76118 0.78599 0.0
C1897 C 0.54976 0.74287 0.79405 0.0
C1898 C 0.48495 0.72401 0.73709 0.0
C1899 C 0.5128 0.74306 0.76309 0.0
C1900 C 0.46652 0.72372 0.72184 0.0
C1901 C 0.45626 0.74171 0.71569 0.0
C1902 C 0.49331 0.74244 0.74633 0.0
C1903 C 0.4652 0.75986 0.72497 0.0
C1904 C 0.5222 0.76135 0.77059 0.0
C1905 C 0.53974 0.72497 0.78646 0.0
N1906 N 0.4832 0.75977 0.73984 0.0
N1907 N 0.52188 0.72553 0.77138 0.0
H1908 H 0.29567 0.45862 0.71769 0.0
H1909 H 0.22968 0.54731 0.79096 0.0
H1910 H 0.23081 0.4573 0.72022 0.0
H1911 H 0.29447 0.54448 0.79481 0.0
H1912 H 0.2294 0.51486 0.76428 0.0
H1913 H 0.29516 0.49071 0.74457 0.0
C1914 C 0.28128 0.46511 0.72381 0.0
C1915 C 0.26325 0.45522 0.71666 0.0
C1916 C 0.24366 0.52133 0.77106 0.0
C1917 C 0.26255 0.49212 0.7477 0.0
C1918 C 0.24383 0.53984 0.78634 0.0
C1919 C 0.26213 0.54865 0.79516 0.0
C1920 C 0.26192 0.5116 0.76445 0.0
C1921 C 0.28 0.53829 0.7885 0.0
C1922 C 0.28101 0.48346 0.73927 0.0
C1923 C 0.24508 0.4644 0.72525 0.0
N1924 N 0.27944 0.5204 0.77351 0.0
N1925 N 0.24519 0.48233 0.74032 0.0
H1926 H 0.45761 0.22949 0.79265 0.0
H1927 H 0.54519 0.29527 0.71604 0.0
H1928 H 0.45917 0.29437 0.79271 0.0
H1929 H 0.54766 0.23054 0.72215 0.0
H1930 H 0.51297 0.29483 0.74251 0.0
H1931 H 0.49002 0.22915 0.76588 0.0
C1932 C 0.46479 0.24365 0.78716 0.0
C1933 C 0.45565 0.26198 0.79497 0.0
C1934 C 0.5205 0.28068 0.73807 0.0
C1935 C 0.49264 0.26171 0.76415 0.0
C1936 C 0.53892 0.28092 0.72284 0.0
C1937 C 0.54918 0.26291 0.71685 0.0
C1938 C 0.51214 0.26229 0.74745 0.0
C1939 C 0.54027 0.24479 0.72628 0.0
C1940 C 0.48327 0.24345 0.77184 0.0
C1941 C 0.46563 0.27987 0.7872 0.0
N1942 N 0.52226 0.24494 0.74114 0.0
N1943 N 0.4835 0.27927 0.7722 0.0
H1944 H 0.29534 0.54545 0.21666 0.0
H1945 H 0.22962 0.45694 0.29087 0.0
H1946 H 0.23054 0.54734 0.22127 0.0
H1947 H 0.29447 0.45921 0.29274 0.0
H1948 H 0.22925 0.48945 0.26436 0.0
H1949 H 0.29492 0.51316 0.24293 0.0
C1950 C 0.28098 0.53904 0.22311 0.0
C1951 C 0.26294 0.54916 0.21673 0.0
C1952 C 0.24354 0.48284 0.27065 0.0
C1953 C 0.26235 0.51202 0.24708 0.0
C1954 C 0.24377 0.46429 0.28582 0.0
C1955 C 0.26211 0.45533 0.29407 0.0
C1956 C 0.26179 0.49244 0.26357 0.0
C1957 C 0.27997 0.46553 0.28688 0.0
C1958 C 0.28076 0.52058 0.23822 0.0
C1959 C 0.24481 0.54007 0.22571 0.0
N1960 N 0.27935 0.48346 0.27202 0.0
N1961 N 0.24497 0.52202 0.24044 0.0
H1962 H 0.54538 0.29545 0.29602 0.0
H1963 H 0.45788 0.22943 0.21951 0.0
H1964 H 0.54798 0.23072 0.29019 0.0
H1965 H 0.45957 0.2943 0.21885 0.0
H1966 H 0.49025 0.22915 0.24647 0.0
H1967 H 0.51317 0.29489 0.2695 0.0
C1968 C 0.53913 0.28107 0.28928 0.0
C1969 C 0.54944 0.2631 0.29536 0.0
C1970 C 0.48354 0.24343 0.24034 0.0
C1971 C 0.5124 0.26234 0.26469 0.0
C1972 C 0.46508 0.2436 0.22491 0.0
C1973 C 0.45599 0.26192 0.21687 0.0
C1974 C 0.49292 0.26171 0.24791 0.0
C1975 C 0.46599 0.27981 0.22453 0.0
C1976 C 0.52072 0.28077 0.27401 0.0
C1977 C 0.54056 0.24494 0.286 0.0
N1978 N 0.48383 0.27925 0.23964 0.0
N1979 N 0.52255 0.24502 0.27111 0.0
H1980 H 0.7758 0.54852 0.2902 0.0
H1981 H 0.71009 0.4606 0.21419 0.0
H1982 H 0.71094 0.54656 0.291 0.0
H1983 H 0.77483 0.45824 0.2201 0.0
H1984 H 0.71053 0.49291 0.24044 0.0
H1985 H 0.77618 0.51614 0.26328 0.0
C1986 C 0.76165 0.54126 0.28482 0.0
C1987 C 0.74331 0.55028 0.29291 0.0
C1988 C 0.72468 0.48539 0.236 0.0
C1989 C 0.74363 0.51332 0.26193 0.0
C1990 C 0.72444 0.46692 0.22089 0.0
C1991 C 0.74245 0.45665 0.21492 0.0
C1992 C 0.74307 0.4938 0.24527 0.0
C1993 C 0.76058 0.46563 0.22422 0.0
C1994 C 0.76188 0.5228 0.26942 0.0
C1995 C 0.72544 0.5402 0.28529 0.0
N1996 N 0.76043 0.48368 0.23896 0.0
N1997 N 0.72607 0.52235 0.27022 0.0
H1998 H 0.45972 0.7101 0.29428 0.0
H1999 H 0.5477 0.77599 0.21895 0.0
H2000 H 0.45778 0.7749 0.2899 0.0
H2001 H 0.54582 0.71112 0.21792 0.0
H2002 H 0.51532 0.77631 0.24579 0.0
H2003 H 0.49193 0.71058 0.26779 0.0
C2004 C 0.46611 0.72447 0.28786 0.0
C2005 C 0.45599 0.7425 0.29435 0.0
C2006 C 0.52199 0.76202 0.23961 0.0
C2007 C 0.49303 0.74316 0.26372 0.0
C2008 C 0.54046 0.76183 0.22425 0.0
C2009 C 0.54951 0.7435 0.21614 0.0
C2010 C 0.51253 0.74375 0.24702 0.0
C2011 C 0.53944 0.72561 0.22366 0.0
C2012 C 0.48452 0.72473 0.27261 0.0
C2013 C 0.46505 0.76065 0.28538 0.0
N2014 N 0.52158 0.7262 0.23869 0.0
N2015 N 0.48305 0.76052 0.2705 0.0
H2016 H 0.23104 0.15978 0.23538 0.0
H2017 H 0.15922 0.23117 0.27454 0.0
H2018 H 0.18033 0.12288 0.21088 0.0
H2019 H 0.12263 0.18021 0.29886 0.0
H2020 H 0.18328 0.20836 0.24994 0.0
H2021 H 0.20805 0.18374 0.25983 0.0
C2022 C 0.21502 0.15681 0.23521 0.0
C2023 C 0.20735 0.13993 0.22014 0.0
C2024 C 0.17008 0.20213 0.26083 0.0
C2025 C 0.18109 0.16686 0.24825 0.0
C2026 C 0.15634 0.21513 0.27464 0.0
C2027 C 0.13952 0.20734 0.28971 0.0
C2028 C 0.16657 0.18128 0.26144 0.0
C2029 C 0.13592 0.1866 0.28838 0.0
C2030 C 0.20192 0.17049 0.24894 0.0
C2031 C 0.18662 0.13622 0.22137 0.0
N2032 N 0.14939 0.17421 0.27451 0.0
N2033 N 0.17414 0.14963 0.23517 0.0
H2034 H 0.84602 0.22944 0.23631 0.0
H2035 H 0.82558 0.1199 0.30009 0.0
H2036 H 0.88476 0.18011 0.21176 0.0
H2037 H 0.77717 0.1595 0.27446 0.0
H2038 H 0.84959 0.14286 0.27538 0.0
H2039 H 0.82266 0.20544 0.2601 0.0
C2040 C 0.84961 0.21354 0.23621 0.0
C2041 C 0.86681 0.2065 0.22126 0.0
C2042 C 0.8337 0.14646 0.27511 0.0
C2043 C 0.84084 0.17928 0.24922 0.0
C2044 C 0.82008 0.13348 0.28925 0.0
C2045 C 0.79958 0.13829 0.28997 0.0
C2046 C 0.8267 0.16445 0.26217 0.0
C2047 C 0.79298 0.15563 0.27488 0.0
C2048 C 0.83635 0.19991 0.2497 0.0
C2049 C 0.87124 0.18591 0.22233 0.0
N2050 N 0.80657 0.16836 0.26209 0.0
N2051 N 0.85829 0.17294 0.23608 0.0
H2052 H 0.84569 0.77423 0.27416 0.0
H2053 H 0.77394 0.84613 0.23635 0.0
H2054 H 0.88249 0.82501 0.2987 0.0
H2055 H 0.82478 0.88253 0.21084 0.0
H2056 H 0.79691 0.82203 0.26059 0.0
H2057 H 0.82155 0.79721 0.25007 0.0
C2058 C 0.8486 0.79026 0.27439 0.0
C2059 C 0.86552 0.79795 0.28937 0.0
C2060 C 0.80307 0.83522 0.24956 0.0
C2061 C 0.83841 0.82419 0.26161 0.0
C2062 C 0.78998 0.84897 0.23594 0.0
C2063 C 0.79768 0.86575 0.22066 0.0
C2064 C 0.82391 0.83869 0.24856 0.0
C2065 C 0.81845 0.86928 0.22154 0.0
C2066 C 0.83483 0.80336 0.26086 0.0
C2067 C 0.86915 0.8187 0.28825 0.0
N2068 N 0.83092 0.85582 0.23526 0.0
N2069 N 0.85565 0.83117 0.2746 0.0
H2070 H 0.17973 0.88676 0.30275 0.0
H2071 H 0.11915 0.82596 0.20832 0.0
H2072 H 0.22676 0.84711 0.27197 0.0
H2073 H 0.15851 0.77886 0.23972 0.0
H2074 H 0.14107 0.85094 0.23271 0.0
H2075 H 0.15471 0.86469 0.27872 0.0
C2076 C 0.18471 0.87339 0.29079 0.0
C2077 C 0.20514 0.8683 0.28992 0.0
C2078 C 0.14478 0.83514 0.23461 0.0
C2079 C 0.17688 0.84324 0.26232 0.0
C2080 C 0.13241 0.82095 0.22052 0.0
C2081 C 0.13748 0.80052 0.22144 0.0
C2082 C 0.16237 0.82874 0.24945 0.0
C2083 C 0.15443 0.79459 0.2381 0.0
C2084 C 0.17051 0.86094 0.2769 0.0
C2085 C 0.21104 0.85122 0.27355 0.0
N2086 N 0.16658 0.80871 0.25094 0.0
N2087 N 0.19691 0.839 0.2609 0.0
H2088 H 0.84655 0.77438 0.73547 0.0
H2089 H 0.77451 0.84551 0.7748 0.0
H2090 H 0.88283 0.82549 0.71081 0.0
H2091 H 0.82513 0.88258 0.79917 0.0
H2092 H 0.79755 0.82162 0.7503 0.0
H2093 H 0.82245 0.7971 0.76019 0.0
C2094 C 0.84935 0.79043 0.73532 0.0
C2095 C 0.86609 0.79828 0.72013 0.0
C2096 C 0.80365 0.8349 0.76118 0.0
C2097 C 0.839 0.82424 0.74853 0.0
C2098 C 0.79052 0.84853 0.77494 0.0
C2099 C 0.79815 0.86545 0.78997 0.0
C2100 C 0.82446 0.8386 0.7618 0.0
C2101 C 0.81887 0.86922 0.7887 0.0
C2102 C 0.8356 0.80338 0.7492 0.0
C2103 C 0.8696 0.81905 0.7214 0.0
N2104 N 0.83138 0.85585 0.77486 0.0
N2105 N 0.85611 0.83139 0.73533 0.0
H2106 H 0.17967 0.88668 0.70845 0.0
H2107 H 0.11874 0.82573 0.80191 0.0
H2108 H 0.22667 0.84684 0.73875 0.0
H2109 H 0.15873 0.77879 0.77183 0.0
H2110 H 0.1407 0.85076 0.77779 0.0
H2111 H 0.15467 0.86472 0.73266 0.0
C2112 C 0.18465 0.8733 0.72037 0.0
C2113 C 0.20505 0.86811 0.72101 0.0
C2114 C 0.14455 0.83498 0.7761 0.0
C2115 C 0.17682 0.84318 0.74887 0.0
C2116 C 0.13216 0.82077 0.79006 0.0
C2117 C 0.13739 0.80037 0.78945 0.0
C2118 C 0.16232 0.82865 0.76169 0.0
C2119 C 0.15453 0.79449 0.77321 0.0
C2120 C 0.17046 0.86091 0.73438 0.0
C2121 C 0.21096 0.85101 0.73734 0.0
N2122 N 0.16667 0.80864 0.76048 0.0
N2123 N 0.19684 0.83886 0.75012 0.0
H2124 H 0.15973 0.23148 0.73566 0.0
H2125 H 0.2313 0.15941 0.77362 0.0
H2126 H 0.1229 0.18079 0.71082 0.0
H2127 H 0.18033 0.12309 0.7988 0.0
H2128 H 0.20842 0.18355 0.74927 0.0
H2129 H 0.18381 0.20842 0.75974 0.0
C2130 C 0.15679 0.21545 0.73536 0.0
C2131 C 0.13988 0.20781 0.72031 0.0
C2132 C 0.20222 0.17037 0.76026 0.0
C2133 C 0.16692 0.18149 0.74806 0.0
C2134 C 0.21525 0.1566 0.77393 0.0
C2135 C 0.20748 0.13983 0.78916 0.0
C2136 C 0.18136 0.16695 0.76114 0.0
C2137 C 0.18671 0.13633 0.78815 0.0
C2138 C 0.17053 0.20231 0.74889 0.0
C2139 C 0.13623 0.18707 0.72133 0.0
N2140 N 0.17429 0.14982 0.77439 0.0
N2141 N 0.14969 0.17455 0.73498 0.0
H2142 H 0.88653 0.17917 0.80311 0.0
H2143 H 0.82585 0.11841 0.70891 0.0
H2144 H 0.84682 0.22619 0.77243 0.0
H2145 H 0.77873 0.15807 0.73935 0.0
H2146 H 0.85078 0.14036 0.73336 0.0
H2147 H 0.86451 0.15415 0.77901 0.0
C2148 C 0.87316 0.18415 0.79115 0.0
C2149 C 0.86804 0.20457 0.79034 0.0
C2150 C 0.83498 0.14414 0.73505 0.0
C2151 C 0.84304 0.17632 0.76261 0.0
C2152 C 0.82083 0.13175 0.72091 0.0
C2153 C 0.80042 0.13689 0.72153 0.0
C2154 C 0.82857 0.16181 0.74965 0.0
C2155 C 0.79445 0.15394 0.73795 0.0
C2156 C 0.86073 0.16995 0.77721 0.0
C2157 C 0.85095 0.21047 0.77397 0.0
N2158 N 0.80854 0.16609 0.75086 0.0
N2159 N 0.83877 0.19634 0.76124 0.0
H2160 H 0.68073 0.6206 0.70892 0.0
H2161 H 0.65974 0.72988 0.77357 0.0
H2162 H 0.72894 0.6602 0.73532 0.0
H2163 H 0.62124 0.68029 0.79767 0.0
H2164 H 0.68316 0.70608 0.74938 0.0
H2165 H 0.65656 0.64348 0.73344 0.0
C2166 C 0.68614 0.63417 0.71988 0.0
C2167 C 0.70665 0.63898 0.71945 0.0
C2168 C 0.6695 0.70046 0.75977 0.0
C2169 C 0.67934 0.66507 0.74703 0.0
C2170 C 0.65621 0.71398 0.77348 0.0
C2171 C 0.63907 0.7068 0.78844 0.0
C2172 C 0.66511 0.67981 0.76005 0.0
C2173 C 0.63472 0.6862 0.78711 0.0
C2174 C 0.67243 0.64711 0.73391 0.0
C2175 C 0.71314 0.65632 0.73468 0.0
N2176 N 0.6477 0.67334 0.77317 0.0
N2177 N 0.69946 0.66901 0.74737 0.0
H2178 H 0.32572 0.6181 0.80254 0.0
H2179 H 0.38648 0.67886 0.70842 0.0
H2180 H 0.27874 0.65783 0.7718 0.0
H2181 H 0.34701 0.72593 0.73958 0.0
H2182 H 0.3645 0.65386 0.73262 0.0
H2183 H 0.35075 0.64006 0.77838 0.0
C2184 C 0.32075 0.63145 0.79054 0.0
C2185 C 0.30034 0.6366 0.78974 0.0
C2186 C 0.36078 0.66966 0.73451 0.0
C2187 C 0.32861 0.66155 0.762 0.0
C2188 C 0.37318 0.68386 0.72053 0.0
C2189 C 0.3681 0.70429 0.72143 0.0
C2190 C 0.34314 0.67605 0.74921 0.0
C2191 C 0.3511 0.71021 0.73798 0.0
C2192 C 0.33496 0.64384 0.77657 0.0
C2193 C 0.29445 0.65367 0.77333 0.0
N2194 N 0.33892 0.69608 0.75071 0.0
N2195 N 0.30859 0.66584 0.76061 0.0
H2196 H 0.3462 0.27359 0.7735 0.0
H2197 H 0.27459 0.34526 0.73437 0.0
H2198 H 0.38265 0.32452 0.79852 0.0
H2199 H 0.32541 0.38204 0.71009 0.0
H2200 H 0.29752 0.32109 0.75847 0.0
H2201 H 0.32233 0.29643 0.74848 0.0
C2202 C 0.34909 0.28962 0.77366 0.0
C2203 C 0.36581 0.2974 0.78904 0.0
C2204 C 0.30369 0.33436 0.74771 0.0
C2205 C 0.33898 0.32348 0.76033 0.0
C2206 C 0.29062 0.34816 0.73417 0.0
C2207 C 0.29833 0.36508 0.71928 0.0
C2208 C 0.32452 0.33793 0.74706 0.0
C2209 C 0.31908 0.36869 0.72046 0.0
C2210 C 0.33547 0.30264 0.75961 0.0
C2211 C 0.36943 0.31814 0.78779 0.0
N2212 N 0.33153 0.35518 0.73412 0.0
N2213 N 0.35607 0.33054 0.77371 0.0
H2214 H 0.61899 0.32579 0.7083 0.0
H2215 H 0.67983 0.38671 0.80221 0.0
H2216 H 0.65854 0.2788 0.73958 0.0
H2217 H 0.72683 0.34711 0.77119 0.0
H2218 H 0.65479 0.36466 0.7782 0.0
H2219 H 0.64102 0.35085 0.7323 0.0
C2220 C 0.63232 0.32083 0.72038 0.0
C2221 C 0.6374 0.3004 0.72138 0.0
C2222 C 0.67058 0.36092 0.77632 0.0
C2223 C 0.66241 0.32871 0.74895 0.0
C2224 C 0.6848 0.37336 0.79019 0.0
C2225 C 0.70523 0.36827 0.78926 0.0
C2226 C 0.67694 0.34324 0.76169 0.0
C2227 C 0.71111 0.35121 0.77282 0.0
C2228 C 0.64475 0.33506 0.73425 0.0
C2229 C 0.65444 0.29452 0.73789 0.0
N2230 N 0.69696 0.339 0.76019 0.0
N2231 N 0.66664 0.30868 0.75052 0.0
H2232 H 0.34595 0.27514 0.23674 0.0
H2233 H 0.32528 0.38467 0.30079 0.0
H2234 H 0.38469 0.32455 0.21266 0.0
H2235 H 0.27697 0.34509 0.27472 0.0
H2236 H 0.34939 0.36165 0.27642 0.0
H2237 H 0.32258 0.29907 0.26077 0.0
C2238 C 0.34954 0.29104 0.2368 0.0
C2239 C 0.36673 0.29812 0.22189 0.0
C2240 C 0.33351 0.35806 0.27598 0.0
C2241 C 0.34075 0.32526 0.25008 0.0
C2242 C 0.31983 0.37108 0.28993 0.0
C2243 C 0.29932 0.36631 0.29042 0.0
C2244 C 0.32655 0.34007 0.263 0.0
C2245 C 0.29278 0.34894 0.27532 0.0
C2246 C 0.33628 0.30462 0.25042 0.0
C2247 C 0.37117 0.31871 0.22318 0.0
N2248 N 0.30643 0.33618 0.2627 0.0
N2249 N 0.35821 0.33164 0.23702 0.0
H2250 H 0.61905 0.32617 0.30261 0.0
H2251 H 0.67959 0.38679 0.2079 0.0
H2252 H 0.65865 0.27913 0.27171 0.0
H2253 H 0.72672 0.34737 0.23904 0.0
H2254 H 0.65463 0.36483 0.23225 0.0
H2255 H 0.64097 0.35117 0.27825 0.0
C2256 C 0.63237 0.32118 0.29054 0.0
C2257 C 0.6375 0.30076 0.28975 0.0
C2258 C 0.67044 0.36111 0.2341 0.0
C2259 C 0.66238 0.32899 0.26178 0.0
C2260 C 0.68461 0.37351 0.22002 0.0
C2261 C 0.70504 0.36844 0.22089 0.0
C2262 C 0.67686 0.3435 0.24885 0.0
C2263 C 0.71099 0.35146 0.23746 0.0
C2264 C 0.64473 0.33537 0.27646 0.0
C2265 C 0.65452 0.29485 0.27324 0.0
N2266 N 0.69689 0.33929 0.25028 0.0
N2267 N 0.66665 0.30897 0.26041 0.0
H2268 H 0.73081 0.65997 0.2748 0.0
H2269 H 0.65909 0.7316 0.23618 0.0
H2270 H 0.68007 0.62306 0.29905 0.0
H2271 H 0.62251 0.68075 0.21125 0.0
H2272 H 0.68307 0.70868 0.26077 0.0
H2273 H 0.70784 0.68407 0.25063 0.0
C2274 C 0.71479 0.65703 0.27498 0.0
C2275 C 0.70711 0.6401 0.2899 0.0
C2276 C 0.66988 0.70251 0.24975 0.0
C2277 C 0.68086 0.66718 0.26207 0.0
C2278 C 0.65619 0.71556 0.23594 0.0
C2279 C 0.63939 0.70784 0.22072 0.0
C2280 C 0.66637 0.68166 0.24895 0.0
C2281 C 0.63578 0.68709 0.22187 0.0
C2282 C 0.70169 0.67078 0.26141 0.0
C2283 C 0.68637 0.63643 0.28868 0.0
N2284 N 0.64921 0.67464 0.23572 0.0
N2285 N 0.67389 0.64992 0.27501 0.0
H2286 H 0.32553 0.62003 0.20991 0.0
H2287 H 0.34594 0.72957 0.27386 0.0
H2288 H 0.27709 0.65948 0.23592 0.0
H2289 H 0.38458 0.68021 0.29865 0.0
H2290 H 0.32265 0.70559 0.24979 0.0
H2291 H 0.34956 0.64309 0.2344 0.0
C2292 C 0.32004 0.63361 0.22076 0.0
C2293 C 0.29951 0.63833 0.22023 0.0
C2294 C 0.33631 0.70006 0.26032 0.0
C2295 C 0.32665 0.6646 0.24779 0.0
C2296 C 0.34952 0.71367 0.27396 0.0
C2297 C 0.36667 0.70662 0.28906 0.0
C2298 C 0.34079 0.67942 0.26081 0.0
C2299 C 0.37109 0.68603 0.28798 0.0
C2300 C 0.33367 0.64664 0.23478 0.0
C2301 C 0.29292 0.65567 0.23534 0.0
N2302 N 0.35819 0.67307 0.2741 0.0
N2303 N 0.30652 0.66845 0.24803 0.0
loop_
_geom_bond_atom_site_label_1
_geom_bond_atom_site_label_2
_geom_bond_distance
_geom_bond_site_symmetry_2
_ccdc_geom_bond_type
Mn0 O5 2.095 . S
Mn0 O15 2.162 . S
Mn0 O16 2.297 . S
Mn0 O24 2.385 . S
Mn0 O25 2.209 . S
Mn0 O26 2.094 . S
Mn1 O6 2.121 . S
Mn1 N8 2.257 . S
Mn1 N17 2.282 . S
Mn1 O25 2.215 . S
Mn1 O27 2.117 . S
C2 O24 1.234 . S
C2 O25 1.283 . S
C3 O15 1.281 . S
C3 O16 1.236 . S
C4 O26 1.240 . S
C4 O27 1.264 . S
O5 Mn0 2.095 . S
O5 C14 1.250 . S
O6 Mn1 2.121 . S
O6 C14 1.258 . S
C7 N8 1.326 . S
C7 C11 1.460 . S
C7 H13 0.929 . S
N8 Mn1 2.257 . S
N8 C7 1.326 . S
N8 C12 1.362 . S
C9 C10 1.258 . S
C9 C12 1.431 . S
C9 C29 1.449 . S
C10 C9 1.258 . S
C10 C11 1.477 . S
C10 H30 0.931 . S
C11 C7 1.460 . S
C11 C10 1.477 . S
C11 H31 0.930 . S
C12 N8 1.362 . S
C12 C9 1.431 . S
C12 C22 1.476 . S
H13 C7 0.929 . S
C14 O5 1.250 . S
C14 O6 1.258 . S
O15 Mn0 2.162 . S
O15 C3 1.281 . S
O16 Mn0 2.297 . S
O16 C3 1.236 . S
N17 Mn1 2.282 . S
N17 C18 1.328 . S
N17 C22 1.318 . S
C18 N17 1.328 . S
C18 C19 1.457 . S
C18 H23 0.929 . S
C19 C18 1.457 . S
C19 C20 1.291 . S
C19 H32 0.931 . S
C20 C19 1.291 . S
C20 C21 1.373 . S
C20 H33 0.929 . S
C21 C20 1.373 . S
C21 C22 1.396 . S
C21 C28 1.403 . S
C22 C12 1.476 . S
C22 N17 1.318 . S
C22 C21 1.396 . S
H23 C18 0.929 . S
O24 Mn0 2.385 . S
O24 C2 1.234 . S
O25 Mn0 2.209 . S
O25 Mn1 2.215 . S
O25 C2 1.283 . S
O26 Mn0 2.094 . S
O26 C4 1.240 . S
O27 Mn1 2.117 . S
O27 C4 1.264 . S
C28 C21 1.403 . S
C28 C29 1.399 . S
C28 H34 0.929 . S
C29 C9 1.449 . S
C29 C28 1.399 . S
C29 H35 0.930 . S
H30 C10 0.931 . S
H31 C11 0.930 . S
H32 C19 0.931 . S
H33 C20 0.929 . S
H34 C28 0.929 . S
H35 C29 0.930 . S
Mn36 O41 2.095 . S
Mn36 O51 2.162 . S
Mn36 O52 2.297 . S
Mn36 O60 2.385 . S
Mn36 O61 2.209 . S
Mn36 O62 2.094 . S
Mn37 O42 2.121 . S
Mn37 N44 2.257 . S
Mn37 N53 2.282 . S
Mn37 O61 2.215 . S
Mn37 O63 2.117 . S
C38 O60 1.234 . S
C38 O61 1.283 . S
C39 O51 1.281 . S
C39 O52 1.236 . S
C40 O62 1.240 . S
C40 O63 1.264 . S
O41 Mn36 2.095 . S
O41 C50 1.250 . S
O42 Mn37 2.121 . S
O42 C50 1.258 . S
C43 N44 1.326 . S
C43 C47 1.460 . S
C43 H49 0.929 . S
N44 Mn37 2.257 . S
N44 C43 1.326 . S
N44 C48 1.362 . S
C45 C46 1.258 . S
C45 C48 1.431 . S
C45 C65 1.449 . S
C46 C45 1.258 . S
C46 C47 1.477 . S
C46 H66 0.931 . S
C47 C43 1.460 . S
C47 C46 1.477 . S
C47 H67 0.930 . S
C48 N44 1.362 . S
C48 C45 1.431 . S
C48 C58 1.476 . S
H49 C43 0.929 . S
C50 O41 1.250 . S
C50 O42 1.258 . S
O51 Mn36 2.162 . S
O51 C39 1.281 . S
O52 Mn36 2.297 . S
O52 C39 1.236 . S
N53 Mn37 2.282 . S
N53 C54 1.328 . S
N53 C58 1.318 . S
C54 N53 1.328 . S
C54 C55 1.457 . S
C54 H59 0.929 . S
C55 C54 1.457 . S
C55 C56 1.291 . S
C55 H68 0.931 . S
C56 C55 1.291 . S
C56 C57 1.373 . S
C56 H69 0.929 . S
C57 C56 1.373 . S
C57 C58 1.396 . S
C57 C64 1.403 . S
C58 C48 1.476 . S
C58 N53 1.318 . S
C58 C57 1.396 . S
H59 C54 0.929 . S
O60 Mn36 2.385 . S
O60 C38 1.234 . S
O61 Mn36 2.209 . S
O61 Mn37 2.215 . S
O61 C38 1.283 . S
O62 Mn36 2.094 . S
O62 C40 1.240 . S
O63 Mn37 2.117 . S
O63 C40 1.264 . S
C64 C57 1.403 . S
C64 C65 1.399 . S
C64 H70 0.929 . S
C65 C45 1.449 . S
C65 C64 1.399 . S
C65 H71 0.930 . S
H66 C46 0.931 . S
H67 C47 0.930 . S
H68 C55 0.931 . S
H69 C56 0.929 . S
H70 C64 0.929 . S
H71 C65 0.930 . S
Mn72 O77 2.095 . S
Mn72 O87 2.162 . S
Mn72 O88 2.297 . S
Mn72 O96 2.385 . S
Mn72 O97 2.209 . S
Mn72 O98 2.094 . S
Mn73 O78 2.121 . S
Mn73 N80 2.257 . S
Mn73 N89 2.282 . S
Mn73 O97 2.215 . S
Mn73 O99 2.117 . S
C74 O96 1.234 . S
C74 O97 1.283 . S
C75 O87 1.281 . S
C75 O88 1.236 . S
C76 O98 1.240 . S
C76 O99 1.264 . S
O77 Mn72 2.095 . S
O77 C86 1.250 . S
O78 Mn73 2.121 . S
O78 C86 1.258 . S
C79 N80 1.326 . S
C79 C83 1.460 . S
C79 H85 0.929 . S
N80 Mn73 2.257 . S
N80 C79 1.326 . S
N80 C84 1.362 . S
C81 C82 1.258 . S
C81 C84 1.431 . S
C81 C101 1.449 . S
C82 C81 1.258 . S
C82 C83 1.477 . S
C82 H102 0.931 . S
C83 C79 1.460 . S
C83 C82 1.477 . S
C83 H103 0.930 . S
C84 N80 1.362 . S
C84 C81 1.431 . S
C84 C94 1.476 . S
H85 C79 0.929 . S
C86 O77 1.250 . S
C86 O78 1.258 . S
O87 Mn72 2.162 . S
O87 C75 1.281 . S
O88 Mn72 2.297 . S
O88 C75 1.236 . S
N89 Mn73 2.282 . S
N89 C90 1.328 . S
N89 C94 1.318 . S
C90 N89 1.328 . S
C90 C91 1.457 . S
C90 H95 0.929 . S
C91 C90 1.457 . S
C91 C92 1.291 . S
C91 H104 0.931 . S
C92 C91 1.291 . S
C92 C93 1.373 . S
C92 H105 0.929 . S
C93 C92 1.373 . S
C93 C94 1.396 . S
C93 C100 1.403 . S
C94 C84 1.476 . S
C94 N89 1.318 . S
C94 C93 1.396 . S
H95 C90 0.929 . S
O96 Mn72 2.385 . S
O96 C74 1.234 . S
O97 Mn72 2.209 . S
O97 Mn73 2.215 . S
O97 C74 1.283 . S
O98 Mn72 2.094 . S
O98 C76 1.240 . S
O99 Mn73 2.117 . S
O99 C76 1.264 . S
C100 C93 1.403 . S
C100 C101 1.399 . S
C100 H106 0.929 . S
C101 C81 1.449 . S
C101 C100 1.399 . S
C101 H107 0.930 . S
H102 C82 0.931 . S
H103 C83 0.930 . S
H104 C91 0.931 . S
H105 C92 0.929 . S
H106 C100 0.929 . S
H107 C101 0.930 . S
Mn108 O113 2.095 . S
Mn108 O123 2.162 . S
Mn108 O124 2.297 . S
Mn108 O132 2.385 . S
Mn108 O133 2.209 . S
Mn108 O134 2.094 . S
Mn109 O114 2.121 . S
Mn109 N116 2.257 . S
Mn109 N125 2.282 . S
Mn109 O133 2.215 . S
Mn109 O135 2.117 . S
C110 O132 1.234 . S
C110 O133 1.283 . S
C111 O123 1.281 . S
C111 O124 1.236 . S
C112 O134 1.240 . S
C112 O135 1.264 . S
O113 Mn108 2.095 . S
O113 C122 1.250 . S
O114 Mn109 2.121 . S
O114 C122 1.258 . S
C115 N116 1.326 . S
C115 C119 1.460 . S
C115 H121 0.929 . S
N116 Mn109 2.257 . S
N116 C115 1.326 . S
N116 C120 1.362 . S
C117 C118 1.258 . S
C117 C120 1.431 . S
C117 C137 1.449 . S
C118 C117 1.258 . S
C118 C119 1.477 . S
C118 H138 0.931 . S
C119 C115 1.460 . S
C119 C118 1.477 . S
C119 H139 0.930 . S
C120 N116 1.362 . S
C120 C117 1.431 . S
C120 C130 1.476 . S
H121 C115 0.929 . S
C122 O113 1.250 . S
C122 O114 1.258 . S
O123 Mn108 2.162 . S
O123 C111 1.281 . S
O124 Mn108 2.297 . S
O124 C111 1.236 . S
N125 Mn109 2.282 . S
N125 C126 1.328 . S
N125 C130 1.318 . S
C126 N125 1.328 . S
C126 C127 1.457 . S
C126 H131 0.929 . S
C127 C126 1.457 . S
C127 C128 1.291 . S
C127 H140 0.931 . S
C128 C127 1.291 . S
C128 C129 1.373 . S
C128 H141 0.929 . S
C129 C128 1.373 . S
C129 C130 1.396 . S
C129 C136 1.403 . S
C130 C120 1.476 . S
C130 N125 1.318 . S
C130 C129 1.396 . S
H131 C126 0.929 . S
O132 Mn108 2.385 . S
O132 C110 1.234 . S
O133 Mn108 2.209 . S
O133 Mn109 2.215 . S
O133 C110 1.283 . S
O134 Mn108 2.094 . S
O134 C112 1.240 . S
O135 Mn109 2.117 . S
O135 C112 1.264 . S
C136 C129 1.403 . S
C136 C137 1.399 . S
C136 H142 0.929 . S
C137 C117 1.449 . S
C137 C136 1.399 . S
C137 H143 0.930 . S
H138 C118 0.931 . S
H139 C119 0.930 . S
H140 C127 0.931 . S
H141 C128 0.929 . S
H142 C136 0.929 . S
H143 C137 0.930 . S
Mn144 O149 2.095 . S
Mn144 O159 2.162 . S
Mn144 O160 2.297 . S
Mn144 O168 2.385 . S
Mn144 O169 2.209 . S
Mn144 O170 2.094 . S
Mn145 O150 2.121 . S
Mn145 N152 2.257 . S
Mn145 N161 2.282 . S
Mn145 O169 2.215 . S
Mn145 O171 2.117 . S
C146 O168 1.234 . S
C146 O169 1.283 . S
C147 O159 1.281 . S
C147 O160 1.236 . S
C148 O170 1.240 . S
C148 O171 1.264 . S
O149 Mn144 2.095 . S
O149 C158 1.250 . S
O150 Mn145 2.121 . S
O150 C158 1.258 . S
C151 N152 1.326 . S
C151 C155 1.460 . S
C151 H157 0.929 . S
N152 Mn145 2.257 . S
N152 C151 1.326 . S
N152 C156 1.362 . S
C153 C154 1.258 . S
C153 C156 1.431 . S
C153 C173 1.449 . S
C154 C153 1.258 . S
C154 C155 1.477 . S
C154 H174 0.931 . S
C155 C151 1.460 . S
C155 C154 1.477 . S
C155 H175 0.930 . S
C156 N152 1.362 . S
C156 C153 1.431 . S
C156 C166 1.476 . S
H157 C151 0.929 . S
C158 O149 1.250 . S
C158 O150 1.258 . S
O159 Mn144 2.162 . S
O159 C147 1.281 . S
O160 Mn144 2.297 . S
O160 C147 1.236 . S
N161 Mn145 2.282 . S
N161 C162 1.328 . S
N161 C166 1.318 . S
C162 N161 1.328 . S
C162 C163 1.457 . S
C162 H167 0.929 . S
C163 C162 1.457 . S
C163 C164 1.291 . S
C163 H176 0.931 . S
C164 C163 1.291 . S
C164 C165 1.373 . S
C164 H177 0.929 . S
C165 C164 1.373 . S
C165 C166 1.396 . S
C165 C172 1.403 . S
C166 C156 1.476 . S
C166 N161 1.318 . S
C166 C165 1.396 . S
H167 C162 0.929 . S
O168 Mn144 2.385 . S
O168 C146 1.234 . S
O169 Mn144 2.209 . S
O169 Mn145 2.215 . S
O169 C146 1.283 . S
O170 Mn144 2.094 . S
O170 C148 1.240 . S
O171 Mn145 2.117 . S
O171 C148 1.264 . S
C172 C165 1.403 . S
C172 C173 1.399 . S
C172 H178 0.929 . S
C173 C153 1.449 . S
C173 C172 1.399 . S
C173 H179 0.930 . S
H174 C154 0.931 . S
H175 C155 0.930 . S
H176 C163 0.931 . S
H177 C164 0.929 . S
H178 C172 0.929 . S
H179 C173 0.930 . S
Mn180 O185 2.095 . S
Mn180 O195 2.162 . S
Mn180 O196 2.297 . S
Mn180 O204 2.385 . S
Mn180 O205 2.209 . S
Mn180 O206 2.094 . S
Mn181 O186 2.121 . S
Mn181 N188 2.257 . S
Mn181 N197 2.282 . S
Mn181 O205 2.215 . S
Mn181 O207 2.117 . S
C182 O204 1.234 . S
C182 O205 1.283 . S
C183 O195 1.281 . S
C183 O196 1.236 . S
C184 O206 1.240 . S
C184 O207 1.264 . S
O185 Mn180 2.095 . S
O185 C194 1.250 . S
O186 Mn181 2.121 . S
O186 C194 1.258 . S
C187 N188 1.326 . S
C187 C191 1.460 . S
C187 H193 0.929 . S
N188 Mn181 2.257 . S
N188 C187 1.326 . S
N188 C192 1.362 . S
C189 C190 1.258 . S
C189 C192 1.431 . S
C189 C209 1.449 . S
C190 C189 1.258 . S
C190 C191 1.477 . S
C190 H210 0.931 . S
C191 C187 1.460 . S
C191 C190 1.477 . S
C191 H211 0.930 . S
C192 N188 1.362 . S
C192 C189 1.431 . S
C192 C202 1.476 . S
H193 C187 0.929 . S
C194 O185 1.250 . S
C194 O186 1.258 . S
O195 Mn180 2.162 . S
O195 C183 1.281 . S
O196 Mn180 2.297 . S
O196 C183 1.236 . S
N197 Mn181 2.282 . S
N197 C198 1.328 . S
N197 C202 1.318 . S
C198 N197 1.328 . S
C198 C199 1.457 . S
C198 H203 0.929 . S
C199 C198 1.457 . S
C199 C200 1.291 . S
C199 H212 0.931 . S
C200 C199 1.291 . S
C200 C201 1.373 . S
C200 H213 0.929 . S
C201 C200 1.373 . S
C201 C202 1.396 . S
C201 C208 1.403 . S
C202 C192 1.476 . S
C202 N197 1.318 . S
C202 C201 1.396 . S
H203 C198 0.929 . S
O204 Mn180 2.385 . S
O204 C182 1.234 . S
O205 Mn180 2.209 . S
O205 Mn181 2.215 . S
O205 C182 1.283 . S
O206 Mn180 2.094 . S
O206 C184 1.240 . S
O207 Mn181 2.117 . S
O207 C184 1.264 . S
C208 C201 1.403 . S
C208 C209 1.399 . S
C208 H214 0.929 . S
C209 C189 1.449 . S
C209 C208 1.399 . S
C209 H215 0.930 . S
H210 C190 0.931 . S
H211 C191 0.930 . S
H212 C199 0.931 . S
H213 C200 0.929 . S
H214 C208 0.929 . S
H215 C209 0.930 . S
Mn216 O221 2.095 . S
Mn216 O231 2.162 . S
Mn216 O232 2.297 . S
Mn216 O240 2.385 . S
Mn216 O241 2.209 . S
Mn216 O242 2.094 . S
Mn217 O222 2.121 . S
Mn217 N224 2.257 . S
Mn217 N233 2.282 . S
Mn217 O241 2.215 . S
Mn217 O243 2.117 . S
C218 O240 1.234 . S
C218 O241 1.283 . S
C219 O231 1.281 . S
C219 O232 1.236 . S
C220 O242 1.240 . S
C220 O243 1.264 . S
O221 Mn216 2.095 . S
O221 C230 1.250 . S
O222 Mn217 2.121 . S
O222 C230 1.258 . S
C223 N224 1.326 . S
C223 C227 1.460 . S
C223 H229 0.929 . S
N224 Mn217 2.257 . S
N224 C223 1.326 . S
N224 C228 1.362 . S
C225 C226 1.258 . S
C225 C228 1.431 . S
C225 C245 1.449 . S
C226 C225 1.258 . S
C226 C227 1.477 . S
C226 H246 0.931 . S
C227 C223 1.460 . S
C227 C226 1.477 . S
C227 H247 0.930 . S
C228 N224 1.362 . S
C228 C225 1.431 . S
C228 C238 1.476 . S
H229 C223 0.929 . S
C230 O221 1.250 . S
C230 O222 1.258 . S
O231 Mn216 2.162 . S
O231 C219 1.281 . S
O232 Mn216 2.297 . S
O232 C219 1.236 . S
N233 Mn217 2.282 . S
N233 C234 1.328 . S
N233 C238 1.318 . S
C234 N233 1.328 . S
C234 C235 1.457 . S
C234 H239 0.929 . S
C235 C234 1.457 . S
C235 C236 1.291 . S
C235 H248 0.931 . S
C236 C235 1.291 . S
C236 C237 1.373 . S
C236 H249 0.929 . S
C237 C236 1.373 . S
C237 C238 1.396 . S
C237 C244 1.403 . S
C238 C228 1.476 . S
C238 N233 1.318 . S
C238 C237 1.396 . S
H239 C234 0.929 . S
O240 Mn216 2.385 . S
O240 C218 1.234 . S
O241 Mn216 2.209 . S
O241 Mn217 2.215 . S
O241 C218 1.283 . S
O242 Mn216 2.094 . S
O242 C220 1.240 . S
O243 Mn217 2.117 . S
O243 C220 1.264 . S
C244 C237 1.403 . S
C244 C245 1.399 . S
C244 H250 0.929 . S
C245 C225 1.449 . S
C245 C244 1.399 . S
C245 H251 0.930 . S
H246 C226 0.931 . S
H247 C227 0.930 . S
H248 C235 0.931 . S
H249 C236 0.929 . S
H250 C244 0.929 . S
H251 C245 0.930 . S
Mn252 O257 2.095 . S
Mn252 O267 2.162 . S
Mn252 O268 2.297 . S
Mn252 O276 2.385 . S
Mn252 O277 2.209 . S
Mn252 O278 2.094 . S
Mn253 O258 2.121 . S
Mn253 N260 2.257 . S
Mn253 N269 2.282 . S
Mn253 O277 2.215 . S
Mn253 O279 2.117 . S
C254 O276 1.234 . S
C254 O277 1.283 . S
C255 O267 1.281 . S
C255 O268 1.236 . S
C256 O278 1.240 . S
C256 O279 1.264 . S
O257 Mn252 2.095 . S
O257 C266 1.250 . S
O258 Mn253 2.121 . S
O258 C266 1.258 . S
C259 N260 1.326 . S
C259 C263 1.460 . S
C259 H265 0.929 . S
N260 Mn253 2.257 . S
N260 C259 1.326 . S
N260 C264 1.362 . S
C261 C262 1.258 . S
C261 C264 1.431 . S
C261 C281 1.449 . S
C262 C261 1.258 . S
C262 C263 1.477 . S
C262 H282 0.931 . S
C263 C259 1.460 . S
C263 C262 1.477 . S
C263 H283 0.930 . S
C264 N260 1.362 . S
C264 C261 1.431 . S
C264 C274 1.476 . S
H265 C259 0.929 . S
C266 O257 1.250 . S
C266 O258 1.258 . S
O267 Mn252 2.162 . S
O267 C255 1.281 . S
O268 Mn252 2.297 . S
O268 C255 1.236 . S
N269 Mn253 2.282 . S
N269 C270 1.328 . S
N269 C274 1.318 . S
C270 N269 1.328 . S
C270 C271 1.457 . S
C270 H275 0.929 . S
C271 C270 1.457 . S
C271 C272 1.291 . S
C271 H284 0.931 . S
C272 C271 1.291 . S
C272 C273 1.373 . S
C272 H285 0.929 . S
C273 C272 1.373 . S
C273 C274 1.396 . S
C273 C280 1.403 . S
C274 C264 1.476 . S
C274 N269 1.318 . S
C274 C273 1.396 . S
H275 C270 0.929 . S
O276 Mn252 2.385 . S
O276 C254 1.234 . S
O277 Mn252 2.209 . S
O277 Mn253 2.215 . S
O277 C254 1.283 . S
O278 Mn252 2.094 . S
O278 C256 1.240 . S
O279 Mn253 2.117 . S
O279 C256 1.264 . S
C280 C273 1.403 . S
C280 C281 1.399 . S
C280 H286 0.929 . S
C281 C261 1.449 . S
C281 C280 1.399 . S
C281 H287 0.930 . S
H282 C262 0.931 . S
H283 C263 0.930 . S
H284 C271 0.931 . S
H285 C272 0.929 . S
H286 C280 0.929 . S
H287 C281 0.930 . S
Mn288 O293 2.095 . S
Mn288 O303 2.162 . S
Mn288 O304 2.297 . S
Mn288 O312 2.385 . S
Mn288 O313 2.209 . S
Mn288 O314 2.094 . S
Mn289 O294 2.121 . S
Mn289 N296 2.257 . S
Mn289 N305 2.282 . S
Mn289 O313 2.215 . S
Mn289 O315 2.117 . S
C290 O312 1.234 . S
C290 O313 1.283 . S
C291 O303 1.281 . S
C291 O304 1.236 . S
C292 O314 1.240 . S
C292 O315 1.264 . S
O293 Mn288 2.095 . S
O293 C302 1.250 . S
O294 Mn289 2.121 . S
O294 C302 1.258 . S
C295 N296 1.326 . S
C295 C299 1.460 . S
C295 H301 0.929 . S
N296 Mn289 2.257 . S
N296 C295 1.326 . S
N296 C300 1.362 . S
C297 C298 1.258 . S
C297 C300 1.431 . S
C297 C317 1.449 . S
C298 C297 1.258 . S
C298 C299 1.477 . S
C298 H318 0.931 . S
C299 C295 1.460 . S
C299 C298 1.477 . S
C299 H319 0.930 . S
C300 N296 1.362 . S
C300 C297 1.431 . S
C300 C310 1.476 . S
H301 C295 0.929 . S
C302 O293 1.250 . S
C302 O294 1.258 . S
O303 Mn288 2.162 . S
O303 C291 1.281 . S
O304 Mn288 2.297 . S
O304 C291 1.236 . S
N305 Mn289 2.282 . S
N305 C306 1.328 . S
N305 C310 1.318 . S
C306 N305 1.328 . S
C306 C307 1.457 . S
C306 H311 0.929 . S
C307 C306 1.457 . S
C307 C308 1.291 . S
C307 H320 0.931 . S
C308 C307 1.291 . S
C308 C309 1.373 . S
C308 H321 0.929 . S
C309 C308 1.373 . S
C309 C310 1.396 . S
C309 C316 1.403 . S
C310 C300 1.476 . S
C310 N305 1.318 . S
C310 C309 1.396 . S
H311 C306 0.929 . S
O312 Mn288 2.385 . S
O312 C290 1.234 . S
O313 Mn288 2.209 . S
O313 Mn289 2.215 . S
O313 C290 1.283 . S
O314 Mn288 2.094 . S
O314 C292 1.240 . S
O315 Mn289 2.117 . S
O315 C292 1.264 . S
C316 C309 1.403 . S
C316 C317 1.399 . S
C316 H322 0.929 . S
C317 C297 1.449 . S
C317 C316 1.399 . S
C317 H323 0.930 . S
H318 C298 0.931 . S
H319 C299 0.930 . S
H320 C307 0.931 . S
H321 C308 0.929 . S
H322 C316 0.929 . S
H323 C317 0.930 . S
Mn324 O329 2.095 . S
Mn324 O339 2.162 . S
Mn324 O340 2.297 . S
Mn324 O348 2.385 . S
Mn324 O349 2.209 . S
Mn324 O350 2.094 . S
Mn325 O330 2.121 . S
Mn325 N332 2.257 . S
Mn325 N341 2.282 . S
Mn325 O349 2.215 . S
Mn325 O351 2.117 . S
C326 O348 1.234 . S
C326 O349 1.283 . S
C327 O339 1.281 . S
C327 O340 1.236 . S
C328 O350 1.240 . S
C328 O351 1.264 . S
O329 Mn324 2.095 . S
O329 C338 1.250 . S
O330 Mn325 2.121 . S
O330 C338 1.258 . S
C331 N332 1.326 . S
C331 C335 1.460 . S
C331 H337 0.929 . S
N332 Mn325 2.257 . S
N332 C331 1.326 . S
N332 C336 1.362 . S
C333 C334 1.258 . S
C333 C336 1.431 . S
C333 C353 1.449 . S
C334 C333 1.258 . S
C334 C335 1.477 . S
C334 H354 0.931 . S
C335 C331 1.460 . S
C335 C334 1.477 . S
C335 H355 0.930 . S
C336 N332 1.362 . S
C336 C333 1.431 . S
C336 C346 1.476 . S
H337 C331 0.929 . S
C338 O329 1.250 . S
C338 O330 1.258 . S
O339 Mn324 2.162 . S
O339 C327 1.281 . S
O340 Mn324 2.297 . S
O340 C327 1.236 . S
N341 Mn325 2.282 . S
N341 C342 1.328 . S
N341 C346 1.318 . S
C342 N341 1.328 . S
C342 C343 1.457 . S
C342 H347 0.929 . S
C343 C342 1.457 . S
C343 C344 1.291 . S
C343 H356 0.931 . S
C344 C343 1.291 . S
C344 C345 1.373 . S
C344 H357 0.929 . S
C345 C344 1.373 . S
C345 C346 1.396 . S
C345 C352 1.403 . S
C346 C336 1.476 . S
C346 N341 1.318 . S
C346 C345 1.396 . S
H347 C342 0.929 . S
O348 Mn324 2.385 . S
O348 C326 1.234 . S
O349 Mn324 2.209 . S
O349 Mn325 2.215 . S
O349 C326 1.283 . S
O350 Mn324 2.094 . S
O350 C328 1.240 . S
O351 Mn325 2.117 . S
O351 C328 1.264 . S
C352 C345 1.403 . S
C352 C353 1.399 . S
C352 H358 0.929 . S
C353 C333 1.449 . S
C353 C352 1.399 . S
C353 H359 0.930 . S
H354 C334 0.931 . S
H355 C335 0.930 . S
H356 C343 0.931 . S
H357 C344 0.929 . S
H358 C352 0.929 . S
H359 C353 0.930 . S
Mn360 O365 2.095 . S
Mn360 O375 2.162 . S
Mn360 O376 2.297 . S
Mn360 O384 2.385 . S
Mn360 O385 2.209 . S
Mn360 O386 2.094 . S
Mn361 O366 2.121 . S
Mn361 N368 2.257 . S
Mn361 N377 2.282 . S
Mn361 O385 2.215 . S
Mn361 O387 2.117 . S
C362 O384 1.234 . S
C362 O385 1.283 . S
C363 O375 1.281 . S
C363 O376 1.236 . S
C364 O386 1.240 . S
C364 O387 1.264 . S
O365 Mn360 2.095 . S
O365 C374 1.250 . S
O366 Mn361 2.121 . S
O366 C374 1.258 . S
C367 N368 1.326 . S
C367 C371 1.460 . S
C367 H373 0.929 . S
N368 Mn361 2.257 . S
N368 C367 1.326 . S
N368 C372 1.362 . S
C369 C370 1.258 . S
C369 C372 1.431 . S
C369 C389 1.449 . S
C370 C369 1.258 . S
C370 C371 1.477 . S
C370 H390 0.931 . S
C371 C367 1.460 . S
C371 C370 1.477 . S
C371 H391 0.930 . S
C372 N368 1.362 . S
C372 C369 1.431 . S
C372 C382 1.476 . S
H373 C367 0.929 . S
C374 O365 1.250 . S
C374 O366 1.258 . S
O375 Mn360 2.162 . S
O375 C363 1.281 . S
O376 Mn360 2.297 . S
O376 C363 1.236 . S
N377 Mn361 2.282 . S
N377 C378 1.328 . S
N377 C382 1.318 . S
C378 N377 1.328 . S
C378 C379 1.457 . S
C378 H383 0.929 . S
C379 C378 1.457 . S
C379 C380 1.291 . S
C379 H392 0.931 . S
C380 C379 1.291 . S
C380 C381 1.373 . S
C380 H393 0.929 . S
C381 C380 1.373 . S
C381 C382 1.396 . S
C381 C388 1.403 . S
C382 C372 1.476 . S
C382 N377 1.318 . S
C382 C381 1.396 . S
H383 C378 0.929 . S
O384 Mn360 2.385 . S
O384 C362 1.234 . S
O385 Mn360 2.209 . S
O385 Mn361 2.215 . S
O385 C362 1.283 . S
O386 Mn360 2.094 . S
O386 C364 1.240 . S
O387 Mn361 2.117 . S
O387 C364 1.264 . S
C388 C381 1.403 . S
C388 C389 1.399 . S
C388 H394 0.929 . S
C389 C369 1.449 . S
C389 C388 1.399 . S
C389 H395 0.930 . S
H390 C370 0.931 . S
H391 C371 0.930 . S
H392 C379 0.931 . S
H393 C380 0.929 . S
H394 C388 0.929 . S
H395 C389 0.930 . S
Mn396 O401 2.095 . S
Mn396 O411 2.162 . S
Mn396 O412 2.297 . S
Mn396 O420 2.385 . S
Mn396 O421 2.209 . S
Mn396 O422 2.094 . S
Mn397 O402 2.121 . S
Mn397 N404 2.257 . S
Mn397 N413 2.282 . S
Mn397 O421 2.215 . S
Mn397 O423 2.117 . S
C398 O420 1.234 . S
C398 O421 1.283 . S
C399 O411 1.281 . S
C399 O412 1.236 . S
C400 O422 1.240 . S
C400 O423 1.264 . S
O401 Mn396 2.095 . S
O401 C410 1.250 . S
O402 Mn397 2.121 . S
O402 C410 1.258 . S
C403 N404 1.326 . S
C403 C407 1.460 . S
C403 H409 0.929 . S
N404 Mn397 2.257 . S
N404 C403 1.326 . S
N404 C408 1.362 . S
C405 C406 1.258 . S
C405 C408 1.431 . S
C405 C425 1.449 . S
C406 C405 1.258 . S
C406 C407 1.477 . S
C406 H426 0.931 . S
C407 C403 1.460 . S
C407 C406 1.477 . S
C407 H427 0.930 . S
C408 N404 1.362 . S
C408 C405 1.431 . S
C408 C418 1.476 . S
H409 C403 0.929 . S
C410 O401 1.250 . S
C410 O402 1.258 . S
O411 Mn396 2.162 . S
O411 C399 1.281 . S
O412 Mn396 2.297 . S
O412 C399 1.236 . S
N413 Mn397 2.282 . S
N413 C414 1.328 . S
N413 C418 1.318 . S
C414 N413 1.328 . S
C414 C415 1.457 . S
C414 H419 0.929 . S
C415 C414 1.457 . S
C415 C416 1.291 . S
C415 H428 0.931 . S
C416 C415 1.291 . S
C416 C417 1.373 . S
C416 H429 0.929 . S
C417 C416 1.373 . S
C417 C418 1.396 . S
C417 C424 1.403 . S
C418 C408 1.476 . S
C418 N413 1.318 . S
C418 C417 1.396 . S
H419 C414 0.929 . S
O420 Mn396 2.385 . S
O420 C398 1.234 . S
O421 Mn396 2.209 . S
O421 Mn397 2.215 . S
O421 C398 1.283 . S
O422 Mn396 2.094 . S
O422 C400 1.240 . S
O423 Mn397 2.117 . S
O423 C400 1.264 . S
C424 C417 1.403 . S
C424 C425 1.399 . S
C424 H430 0.929 . S
C425 C405 1.449 . S
C425 C424 1.399 . S
C425 H431 0.930 . S
H426 C406 0.931 . S
H427 C407 0.930 . S
H428 C415 0.931 . S
H429 C416 0.929 . S
H430 C424 0.929 . S
H431 C425 0.930 . S
Mn432 O437 2.095 . S
Mn432 O447 2.162 . S
Mn432 O448 2.297 . S
Mn432 O456 2.385 . S
Mn432 O457 2.209 . S
Mn432 O458 2.094 . S
Mn433 O438 2.121 . S
Mn433 N440 2.257 . S
Mn433 N449 2.282 . S
Mn433 O457 2.215 . S
Mn433 O459 2.117 . S
C434 O456 1.234 . S
C434 O457 1.283 . S
C435 O447 1.281 . S
C435 O448 1.236 . S
C436 O458 1.240 . S
C436 O459 1.264 . S
O437 Mn432 2.095 . S
O437 C446 1.250 . S
O438 Mn433 2.121 . S
O438 C446 1.258 . S
C439 N440 1.326 . S
C439 C443 1.460 . S
C439 H445 0.929 . S
N440 Mn433 2.257 . S
N440 C439 1.326 . S
N440 C444 1.362 . S
C441 C442 1.258 . S
C441 C444 1.431 . S
C441 C461 1.449 . S
C442 C441 1.258 . S
C442 C443 1.477 . S
C442 H462 0.931 . S
C443 C439 1.460 . S
C443 C442 1.477 . S
C443 H463 0.930 . S
C444 N440 1.362 . S
C444 C441 1.431 . S
C444 C454 1.476 . S
H445 C439 0.929 . S
C446 O437 1.250 . S
C446 O438 1.258 . S
O447 Mn432 2.162 . S
O447 C435 1.281 . S
O448 Mn432 2.297 . S
O448 C435 1.236 . S
N449 Mn433 2.282 . S
N449 C450 1.328 . S
N449 C454 1.318 . S
C450 N449 1.328 . S
C450 C451 1.457 . S
C450 H455 0.929 . S
C451 C450 1.457 . S
C451 C452 1.291 . S
C451 H464 0.931 . S
C452 C451 1.291 . S
C452 C453 1.373 . S
C452 H465 0.929 . S
C453 C452 1.373 . S
C453 C454 1.396 . S
C453 C460 1.403 . S
C454 C444 1.476 . S
C454 N449 1.318 . S
C454 C453 1.396 . S
H455 C450 0.929 . S
O456 Mn432 2.385 . S
O456 C434 1.234 . S
O457 Mn432 2.209 . S
O457 Mn433 2.215 . S
O457 C434 1.283 . S
O458 Mn432 2.094 . S
O458 C436 1.240 . S
O459 Mn433 2.117 . S
O459 C436 1.264 . S
C460 C453 1.403 . S
C460 C461 1.399 . S
C460 H466 0.929 . S
C461 C441 1.449 . S
C461 C460 1.399 . S
C461 H467 0.930 . S
H462 C442 0.931 . S
H463 C443 0.930 . S
H464 C451 0.931 . S
H465 C452 0.929 . S
H466 C460 0.929 . S
H467 C461 0.930 . S
Mn468 O473 2.095 . S
Mn468 O483 2.162 . S
Mn468 O484 2.297 . S
Mn468 O492 2.385 . S
Mn468 O493 2.209 . S
Mn468 O494 2.094 . S
Mn469 O474 2.121 . S
Mn469 N476 2.257 . S
Mn469 N485 2.282 . S
Mn469 O493 2.215 . S
Mn469 O495 2.117 . S
C470 O492 1.234 . S
C470 O493 1.283 . S
C471 O483 1.281 . S
C471 O484 1.236 . S
C472 O494 1.240 . S
C472 O495 1.264 . S
O473 Mn468 2.095 . S
O473 C482 1.250 . S
O474 Mn469 2.121 . S
O474 C482 1.258 . S
C475 N476 1.326 . S
C475 C479 1.460 . S
C475 H481 0.929 . S
N476 Mn469 2.257 . S
N476 C475 1.326 . S
N476 C480 1.362 . S
C477 C478 1.258 . S
C477 C480 1.431 . S
C477 C497 1.449 . S
C478 C477 1.258 . S
C478 C479 1.477 . S
C478 H498 0.931 . S
C479 C475 1.460 . S
C479 C478 1.477 . S
C479 H499 0.930 . S
C480 N476 1.362 . S
C480 C477 1.431 . S
C480 C490 1.476 . S
H481 C475 0.929 . S
C482 O473 1.250 . S
C482 O474 1.258 . S
O483 Mn468 2.162 . S
O483 C471 1.281 . S
O484 Mn468 2.297 . S
O484 C471 1.236 . S
N485 Mn469 2.282 . S
N485 C486 1.328 . S
N485 C490 1.318 . S
C486 N485 1.328 . S
C486 C487 1.457 . S
C486 H491 0.929 . S
C487 C486 1.457 . S
C487 C488 1.291 . S
C487 H500 0.931 . S
C488 C487 1.291 . S
C488 C489 1.373 . S
C488 H501 0.929 . S
C489 C488 1.373 . S
C489 C490 1.396 . S
C489 C496 1.403 . S
C490 C480 1.476 . S
C490 N485 1.318 . S
C490 C489 1.396 . S
H491 C486 0.929 . S
O492 Mn468 2.385 . S
O492 C470 1.234 . S
O493 Mn468 2.209 . S
O493 Mn469 2.215 . S
O493 C470 1.283 . S
O494 Mn468 2.094 . S
O494 C472 1.240 . S
O495 Mn469 2.117 . S
O495 C472 1.264 . S
C496 C489 1.403 . S
C496 C497 1.399 . S
C496 H502 0.929 . S
C497 C477 1.449 . S
C497 C496 1.399 . S
C497 H503 0.930 . S
H498 C478 0.931 . S
H499 C479 0.930 . S
H500 C487 0.931 . S
H501 C488 0.929 . S
H502 C496 0.929 . S
H503 C497 0.930 . S
Mn504 O509 2.095 . S
Mn504 O519 2.162 . S
Mn504 O520 2.297 . S
Mn504 O528 2.385 . S
Mn504 O529 2.209 . S
Mn504 O530 2.094 . S
Mn505 O510 2.121 . S
Mn505 N512 2.257 . S
Mn505 N521 2.282 . S
Mn505 O529 2.215 . S
Mn505 O531 2.117 . S
C506 O528 1.234 . S
C506 O529 1.283 . S
C507 O519 1.281 . S
C507 O520 1.236 . S
C508 O530 1.240 . S
C508 O531 1.264 . S
O509 Mn504 2.095 . S
O509 C518 1.250 . S
O510 Mn505 2.121 . S
O510 C518 1.258 . S
C511 N512 1.326 . S
C511 C515 1.460 . S
C511 H517 0.929 . S
N512 Mn505 2.257 . S
N512 C511 1.326 . S
N512 C516 1.362 . S
C513 C514 1.258 . S
C513 C516 1.431 . S
C513 C533 1.449 . S
C514 C513 1.258 . S
C514 C515 1.477 . S
C514 H534 0.931 . S
C515 C511 1.460 . S
C515 C514 1.477 . S
C515 H535 0.930 . S
C516 N512 1.362 . S
C516 C513 1.431 . S
C516 C526 1.476 . S
H517 C511 0.929 . S
C518 O509 1.250 . S
C518 O510 1.258 . S
O519 Mn504 2.162 . S
O519 C507 1.281 . S
O520 Mn504 2.297 . S
O520 C507 1.236 . S
N521 Mn505 2.282 . S
N521 C522 1.328 . S
N521 C526 1.318 . S
C522 N521 1.328 . S
C522 C523 1.457 . S
C522 H527 0.929 . S
C523 C522 1.457 . S
C523 C524 1.291 . S
C523 H536 0.931 . S
C524 C523 1.291 . S
C524 C525 1.373 . S
C524 H537 0.929 . S
C525 C524 1.373 . S
C525 C526 1.396 . S
C525 C532 1.403 . S
C526 C516 1.476 . S
C526 N521 1.318 . S
C526 C525 1.396 . S
H527 C522 0.929 . S
O528 Mn504 2.385 . S
O528 C506 1.234 . S
O529 Mn504 2.209 . S
O529 Mn505 2.215 . S
O529 C506 1.283 . S
O530 Mn504 2.094 . S
O530 C508 1.240 . S
O531 Mn505 2.117 . S
O531 C508 1.264 . S
C532 C525 1.403 . S
C532 C533 1.399 . S
C532 H538 0.929 . S
C533 C513 1.449 . S
C533 C532 1.399 . S
C533 H539 0.930 . S
H534 C514 0.931 . S
H535 C515 0.930 . S
H536 C523 0.931 . S
H537 C524 0.929 . S
H538 C532 0.929 . S
H539 C533 0.930 . S
Mn540 O545 2.095 . S
Mn540 O555 2.162 . S
Mn540 O556 2.297 . S
Mn540 O564 2.385 . S
Mn540 O565 2.209 . S
Mn540 O566 2.094 . S
Mn541 O546 2.121 . S
Mn541 N548 2.257 . S
Mn541 N557 2.282 . S
Mn541 O565 2.215 . S
Mn541 O567 2.117 . S
C542 O564 1.234 . S
C542 O565 1.283 . S
C543 O555 1.281 . S
C543 O556 1.236 . S
C544 O566 1.240 . S
C544 O567 1.264 . S
O545 Mn540 2.095 . S
O545 C554 1.250 . S
O546 Mn541 2.121 . S
O546 C554 1.258 . S
C547 N548 1.326 . S
C547 C551 1.460 . S
C547 H553 0.929 . S
N548 Mn541 2.257 . S
N548 C547 1.326 . S
N548 C552 1.362 . S
C549 C550 1.258 . S
C549 C552 1.431 . S
C549 C569 1.449 . S
C550 C549 1.258 . S
C550 C551 1.477 . S
C550 H570 0.931 . S
C551 C547 1.460 . S
C551 C550 1.477 . S
C551 H571 0.930 . S
C552 N548 1.362 . S
C552 C549 1.431 . S
C552 C562 1.476 . S
H553 C547 0.929 . S
C554 O545 1.250 . S
C554 O546 1.258 . S
O555 Mn540 2.162 . S
O555 C543 1.281 . S
O556 Mn540 2.297 . S
O556 C543 1.236 . S
N557 Mn541 2.282 . S
N557 C558 1.328 . S
N557 C562 1.318 . S
C558 N557 1.328 . S
C558 C559 1.457 . S
C558 H563 0.929 . S
C559 C558 1.457 . S
C559 C560 1.291 . S
C559 H572 0.931 . S
C560 C559 1.291 . S
C560 C561 1.373 . S
C560 H573 0.929 . S
C561 C560 1.373 . S
C561 C562 1.396 . S
C561 C568 1.403 . S
C562 C552 1.476 . S
C562 N557 1.318 . S
C562 C561 1.396 . S
H563 C558 0.929 . S
O564 Mn540 2.385 . S
O564 C542 1.234 . S
O565 Mn540 2.209 . S
O565 Mn541 2.215 . S
O565 C542 1.283 . S
O566 Mn540 2.094 . S
O566 C544 1.240 . S
O567 Mn541 2.117 . S
O567 C544 1.264 . S
C568 C561 1.403 . S
C568 C569 1.399 . S
C568 H574 0.929 . S
C569 C549 1.449 . S
C569 C568 1.399 . S
C569 H575 0.930 . S
H570 C550 0.931 . S
H571 C551 0.930 . S
H572 C559 0.931 . S
H573 C560 0.929 . S
H574 C568 0.929 . S
H575 C569 0.930 . S
Mn576 O581 2.095 . S
Mn576 O591 2.162 . S
Mn576 O592 2.297 . S
Mn576 O600 2.385 . S
Mn576 O601 2.209 . S
Mn576 O602 2.094 . S
Mn577 O582 2.121 . S
Mn577 N584 2.257 . S
Mn577 N593 2.282 . S
Mn577 O601 2.215 . S
Mn577 O603 2.117 . S
C578 O600 1.234 . S
C578 O601 1.283 . S
C579 O591 1.281 . S
C579 O592 1.236 . S
C580 O602 1.240 . S
C580 O603 1.264 . S
O581 Mn576 2.095 . S
O581 C590 1.250 . S
O582 Mn577 2.121 . S
O582 C590 1.258 . S
C583 N584 1.326 . S
C583 C587 1.460 . S
C583 H589 0.929 . S
N584 Mn577 2.257 . S
N584 C583 1.326 . S
N584 C588 1.362 . S
C585 C586 1.258 . S
C585 C588 1.431 . S
C585 C605 1.449 . S
C586 C585 1.258 . S
C586 C587 1.477 . S
C586 H606 0.931 . S
C587 C583 1.460 . S
C587 C586 1.477 . S
C587 H607 0.930 . S
C588 N584 1.362 . S
C588 C585 1.431 . S
C588 C598 1.476 . S
H589 C583 0.929 . S
C590 O581 1.250 . S
C590 O582 1.258 . S
O591 Mn576 2.162 . S
O591 C579 1.281 . S
O592 Mn576 2.297 . S
O592 C579 1.236 . S
N593 Mn577 2.282 . S
N593 C594 1.328 . S
N593 C598 1.318 . S
C594 N593 1.328 . S
C594 C595 1.457 . S
C594 H599 0.929 . S
C595 C594 1.457 . S
C595 C596 1.291 . S
C595 H608 0.931 . S
C596 C595 1.291 . S
C596 C597 1.373 . S
C596 H609 0.929 . S
C597 C596 1.373 . S
C597 C598 1.396 . S
C597 C604 1.403 . S
C598 C588 1.476 . S
C598 N593 1.318 . S
C598 C597 1.396 . S
H599 C594 0.929 . S
O600 Mn576 2.385 . S
O600 C578 1.234 . S
O601 Mn576 2.209 . S
O601 Mn577 2.215 . S
O601 C578 1.283 . S
O602 Mn576 2.094 . S
O602 C580 1.240 . S
O603 Mn577 2.117 . S
O603 C580 1.264 . S
C604 C597 1.403 . S
C604 C605 1.399 . S
C604 H610 0.929 . S
C605 C585 1.449 . S
C605 C604 1.399 . S
C605 H611 0.930 . S
H606 C586 0.931 . S
H607 C587 0.930 . S
H608 C595 0.931 . S
H609 C596 0.929 . S
H610 C604 0.929 . S
H611 C605 0.930 . S
Mn612 O617 2.095 . S
Mn612 O627 2.162 . S
Mn612 O628 2.297 . S
Mn612 O636 2.385 . S
Mn612 O637 2.209 . S
Mn612 O638 2.094 . S
Mn613 O618 2.121 . S
Mn613 N620 2.257 . S
Mn613 N629 2.282 . S
Mn613 O637 2.215 . S
Mn613 O639 2.117 . S
C614 O636 1.234 . S
C614 O637 1.283 . S
C615 O627 1.281 . S
C615 O628 1.236 . S
C616 O638 1.240 . S
C616 O639 1.264 . S
O617 Mn612 2.095 . S
O617 C626 1.250 . S
O618 Mn613 2.121 . S
O618 C626 1.258 . S
C619 N620 1.326 . S
C619 C623 1.460 . S
C619 H625 0.929 . S
N620 Mn613 2.257 . S
N620 C619 1.326 . S
N620 C624 1.362 . S
C621 C622 1.258 . S
C621 C624 1.431 . S
C621 C641 1.449 . S
C622 C621 1.258 . S
C622 C623 1.477 . S
C622 H642 0.931 . S
C623 C619 1.460 . S
C623 C622 1.477 . S
C623 H643 0.930 . S
C624 N620 1.362 . S
C624 C621 1.431 . S
C624 C634 1.476 . S
H625 C619 0.929 . S
C626 O617 1.250 . S
C626 O618 1.258 . S
O627 Mn612 2.162 . S
O627 C615 1.281 . S
O628 Mn612 2.297 . S
O628 C615 1.236 . S
N629 Mn613 2.282 . S
N629 C630 1.328 . S
N629 C634 1.318 . S
C630 N629 1.328 . S
C630 C631 1.457 . S
C630 H635 0.929 . S
C631 C630 1.457 . S
C631 C632 1.291 . S
C631 H644 0.931 . S
C632 C631 1.291 . S
C632 C633 1.373 . S
C632 H645 0.929 . S
C633 C632 1.373 . S
C633 C634 1.396 . S
C633 C640 1.403 . S
C634 C624 1.476 . S
C634 N629 1.318 . S
C634 C633 1.396 . S
H635 C630 0.929 . S
O636 Mn612 2.385 . S
O636 C614 1.234 . S
O637 Mn612 2.209 . S
O637 Mn613 2.215 . S
O637 C614 1.283 . S
O638 Mn612 2.094 . S
O638 C616 1.240 . S
O639 Mn613 2.117 . S
O639 C616 1.264 . S
C640 C633 1.403 . S
C640 C641 1.399 . S
C640 H646 0.929 . S
C641 C621 1.449 . S
C641 C640 1.399 . S
C641 H647 0.930 . S
H642 C622 0.931 . S
H643 C623 0.930 . S
H644 C631 0.931 . S
H645 C632 0.929 . S
H646 C640 0.929 . S
H647 C641 0.930 . S
Mn648 O653 2.095 . S
Mn648 O663 2.162 . S
Mn648 O664 2.297 . S
Mn648 O672 2.385 . S
Mn648 O673 2.209 . S
Mn648 O674 2.094 . S
Mn649 O654 2.121 . S
Mn649 N656 2.257 . S
Mn649 N665 2.282 . S
Mn649 O673 2.215 . S
Mn649 O675 2.117 . S
C650 O672 1.234 . S
C650 O673 1.283 . S
C651 O663 1.281 . S
C651 O664 1.236 . S
C652 O674 1.240 . S
C652 O675 1.264 . S
O653 Mn648 2.095 . S
O653 C662 1.250 . S
O654 Mn649 2.121 . S
O654 C662 1.258 . S
C655 N656 1.326 . S
C655 C659 1.460 . S
C655 H661 0.929 . S
N656 Mn649 2.257 . S
N656 C655 1.326 . S
N656 C660 1.362 . S
C657 C658 1.258 . S
C657 C660 1.431 . S
C657 C677 1.449 . S
C658 C657 1.258 . S
C658 C659 1.477 . S
C658 H678 0.931 . S
C659 C655 1.460 . S
C659 C658 1.477 . S
C659 H679 0.930 . S
C660 N656 1.362 . S
C660 C657 1.431 . S
C660 C670 1.476 . S
H661 C655 0.929 . S
C662 O653 1.250 . S
C662 O654 1.258 . S
O663 Mn648 2.162 . S
O663 C651 1.281 . S
O664 Mn648 2.297 . S
O664 C651 1.236 . S
N665 Mn649 2.282 . S
N665 C666 1.328 . S
N665 C670 1.318 . S
C666 N665 1.328 . S
C666 C667 1.457 . S
C666 H671 0.929 . S
C667 C666 1.457 . S
C667 C668 1.291 . S
C667 H680 0.931 . S
C668 C667 1.291 . S
C668 C669 1.373 . S
C668 H681 0.929 . S
C669 C668 1.373 . S
C669 C670 1.396 . S
C669 C676 1.403 . S
C670 C660 1.476 . S
C670 N665 1.318 . S
C670 C669 1.396 . S
H671 C666 0.929 . S
O672 Mn648 2.385 . S
O672 C650 1.234 . S
O673 Mn648 2.209 . S
O673 Mn649 2.215 . S
O673 C650 1.283 . S
O674 Mn648 2.094 . S
O674 C652 1.240 . S
O675 Mn649 2.117 . S
O675 C652 1.264 . S
C676 C669 1.403 . S
C676 C677 1.399 . S
C676 H682 0.929 . S
C677 C657 1.449 . S
C677 C676 1.399 . S
C677 H683 0.930 . S
H678 C658 0.931 . S
H679 C659 0.930 . S
H680 C667 0.931 . S
H681 C668 0.929 . S
H682 C676 0.929 . S
H683 C677 0.930 . S
Mn684 O689 2.095 . S
Mn684 O699 2.162 . S
Mn684 O700 2.297 . S
Mn684 O708 2.385 . S
Mn684 O709 2.209 . S
Mn684 O710 2.094 . S
Mn685 O690 2.121 . S
Mn685 N692 2.257 . S
Mn685 N701 2.282 . S
Mn685 O709 2.215 . S
Mn685 O711 2.117 . S
C686 O708 1.234 . S
C686 O709 1.283 . S
C687 O699 1.281 . S
C687 O700 1.236 . S
C688 O710 1.240 . S
C688 O711 1.264 . S
O689 Mn684 2.095 . S
O689 C698 1.250 . S
O690 Mn685 2.121 . S
O690 C698 1.258 . S
C691 N692 1.326 . S
C691 C695 1.460 . S
C691 H697 0.929 . S
N692 Mn685 2.257 . S
N692 C691 1.326 . S
N692 C696 1.362 . S
C693 C694 1.258 . S
C693 C696 1.431 . S
C693 C713 1.449 . S
C694 C693 1.258 . S
C694 C695 1.477 . S
C694 H714 0.931 . S
C695 C691 1.460 . S
C695 C694 1.477 . S
C695 H715 0.930 . S
C696 N692 1.362 . S
C696 C693 1.431 . S
C696 C706 1.476 . S
H697 C691 0.929 . S
C698 O689 1.250 . S
C698 O690 1.258 . S
O699 Mn684 2.162 . S
O699 C687 1.281 . S
O700 Mn684 2.297 . S
O700 C687 1.236 . S
N701 Mn685 2.282 . S
N701 C702 1.328 . S
N701 C706 1.318 . S
C702 N701 1.328 . S
C702 C703 1.457 . S
C702 H707 0.929 . S
C703 C702 1.457 . S
C703 C704 1.291 . S
C703 H716 0.931 . S
C704 C703 1.291 . S
C704 C705 1.373 . S
C704 H717 0.929 . S
C705 C704 1.373 . S
C705 C706 1.396 . S
C705 C712 1.403 . S
C706 C696 1.476 . S
C706 N701 1.318 . S
C706 C705 1.396 . S
H707 C702 0.929 . S
O708 Mn684 2.385 . S
O708 C686 1.234 . S
O709 Mn684 2.209 . S
O709 Mn685 2.215 . S
O709 C686 1.283 . S
O710 Mn684 2.094 . S
O710 C688 1.240 . S
O711 Mn685 2.117 . S
O711 C688 1.264 . S
C712 C705 1.403 . S
C712 C713 1.399 . S
C712 H718 0.929 . S
C713 C693 1.449 . S
C713 C712 1.399 . S
C713 H719 0.930 . S
H714 C694 0.931 . S
H715 C695 0.930 . S
H716 C703 0.931 . S
H717 C704 0.929 . S
H718 C712 0.929 . S
H719 C713 0.930 . S
Mn720 O725 2.095 . S
Mn720 O735 2.162 . S
Mn720 O736 2.297 . S
Mn720 O744 2.385 . S
Mn720 O745 2.209 . S
Mn720 O746 2.094 . S
Mn721 O726 2.121 . S
Mn721 N728 2.257 . S
Mn721 N737 2.282 . S
Mn721 O745 2.215 . S
Mn721 O747 2.117 . S
C722 O744 1.234 . S
C722 O745 1.283 . S
C723 O735 1.281 . S
C723 O736 1.236 . S
C724 O746 1.240 . S
C724 O747 1.264 . S
O725 Mn720 2.095 . S
O725 C734 1.250 . S
O726 Mn721 2.121 . S
O726 C734 1.258 . S
C727 N728 1.326 . S
C727 C731 1.460 . S
C727 H733 0.929 . S
N728 Mn721 2.257 . S
N728 C727 1.326 . S
N728 C732 1.362 . S
C729 C730 1.258 . S
C729 C732 1.431 . S
C729 C749 1.449 . S
C730 C729 1.258 . S
C730 C731 1.477 . S
C730 H750 0.931 . S
C731 C727 1.460 . S
C731 C730 1.477 . S
C731 H751 0.930 . S
C732 N728 1.362 . S
C732 C729 1.431 . S
C732 C742 1.476 . S
H733 C727 0.929 . S
C734 O725 1.250 . S
C734 O726 1.258 . S
O735 Mn720 2.162 . S
O735 C723 1.281 . S
O736 Mn720 2.297 . S
O736 C723 1.236 . S
N737 Mn721 2.282 . S
N737 C738 1.328 . S
N737 C742 1.318 . S
C738 N737 1.328 . S
C738 C739 1.457 . S
C738 H743 0.929 . S
C739 C738 1.457 . S
C739 C740 1.291 . S
C739 H752 0.931 . S
C740 C739 1.291 . S
C740 C741 1.373 . S
C740 H753 0.929 . S
C741 C740 1.373 . S
C741 C742 1.396 . S
C741 C748 1.403 . S
C742 C732 1.476 . S
C742 N737 1.318 . S
C742 C741 1.396 . S
H743 C738 0.929 . S
O744 Mn720 2.385 . S
O744 C722 1.234 . S
O745 Mn720 2.209 . S
O745 Mn721 2.215 . S
O745 C722 1.283 . S
O746 Mn720 2.094 . S
O746 C724 1.240 . S
O747 Mn721 2.117 . S
O747 C724 1.264 . S
C748 C741 1.403 . S
C748 C749 1.399 . S
C748 H754 0.929 . S
C749 C729 1.449 . S
C749 C748 1.399 . S
C749 H755 0.930 . S
H750 C730 0.931 . S
H751 C731 0.930 . S
H752 C739 0.931 . S
H753 C740 0.929 . S
H754 C748 0.929 . S
H755 C749 0.930 . S
Mn756 O761 2.095 . S
Mn756 O771 2.162 . S
Mn756 O772 2.297 . S
Mn756 O780 2.385 . S
Mn756 O781 2.209 . S
Mn756 O782 2.094 . S
Mn757 O762 2.121 . S
Mn757 N764 2.257 . S
Mn757 N773 2.282 . S
Mn757 O781 2.215 . S
Mn757 O783 2.117 . S
C758 O780 1.234 . S
C758 O781 1.283 . S
C759 O771 1.281 . S
C759 O772 1.236 . S
C760 O782 1.240 . S
C760 O783 1.264 . S
O761 Mn756 2.095 . S
O761 C770 1.250 . S
O762 Mn757 2.121 . S
O762 C770 1.258 . S
C763 N764 1.326 . S
C763 C767 1.460 . S
C763 H769 0.929 . S
N764 Mn757 2.257 . S
N764 C763 1.326 . S
N764 C768 1.362 . S
C765 C766 1.258 . S
C765 C768 1.431 . S
C765 C785 1.449 . S
C766 C765 1.258 . S
C766 C767 1.477 . S
C766 H786 0.931 . S
C767 C763 1.460 . S
C767 C766 1.477 . S
C767 H787 0.930 . S
C768 N764 1.362 . S
C768 C765 1.431 . S
C768 C778 1.476 . S
H769 C763 0.929 . S
C770 O761 1.250 . S
C770 O762 1.258 . S
O771 Mn756 2.162 . S
O771 C759 1.281 . S
O772 Mn756 2.297 . S
O772 C759 1.236 . S
N773 Mn757 2.282 . S
N773 C774 1.328 . S
N773 C778 1.318 . S
C774 N773 1.328 . S
C774 C775 1.457 . S
C774 H779 0.929 . S
C775 C774 1.457 . S
C775 C776 1.291 . S
C775 H788 0.931 . S
C776 C775 1.291 . S
C776 C777 1.373 . S
C776 H789 0.929 . S
C777 C776 1.373 . S
C777 C778 1.396 . S
C777 C784 1.403 . S
C778 C768 1.476 . S
C778 N773 1.318 . S
C778 C777 1.396 . S
H779 C774 0.929 . S
O780 Mn756 2.385 . S
O780 C758 1.234 . S
O781 Mn756 2.209 . S
O781 Mn757 2.215 . S
O781 C758 1.283 . S
O782 Mn756 2.094 . S
O782 C760 1.240 . S
O783 Mn757 2.117 . S
O783 C760 1.264 . S
C784 C777 1.403 . S
C784 C785 1.399 . S
C784 H790 0.929 . S
C785 C765 1.449 . S
C785 C784 1.399 . S
C785 H791 0.930 . S
H786 C766 0.931 . S
H787 C767 0.930 . S
H788 C775 0.931 . S
H789 C776 0.929 . S
H790 C784 0.929 . S
H791 C785 0.930 . S
Mn792 O797 2.095 . S
Mn792 O807 2.162 . S
Mn792 O808 2.297 . S
Mn792 O816 2.385 . S
Mn792 O817 2.209 . S
Mn792 O818 2.094 . S
Mn793 O798 2.121 . S
Mn793 N800 2.257 . S
Mn793 N809 2.282 . S
Mn793 O817 2.215 . S
Mn793 O819 2.117 . S
C794 O816 1.234 . S
C794 O817 1.283 . S
C795 O807 1.281 . S
C795 O808 1.236 . S
C796 O818 1.240 . S
C796 O819 1.264 . S
O797 Mn792 2.095 . S
O797 C806 1.250 . S
O798 Mn793 2.121 . S
O798 C806 1.258 . S
C799 N800 1.326 . S
C799 C803 1.460 . S
C799 H805 0.929 . S
N800 Mn793 2.257 . S
N800 C799 1.326 . S
N800 C804 1.362 . S
C801 C802 1.258 . S
C801 C804 1.431 . S
C801 C821 1.449 . S
C802 C801 1.258 . S
C802 C803 1.477 . S
C802 H822 0.931 . S
C803 C799 1.460 . S
C803 C802 1.477 . S
C803 H823 0.930 . S
C804 N800 1.362 . S
C804 C801 1.431 . S
C804 C814 1.476 . S
H805 C799 0.929 . S
C806 O797 1.250 . S
C806 O798 1.258 . S
O807 Mn792 2.162 . S
O807 C795 1.281 . S
O808 Mn792 2.297 . S
O808 C795 1.236 . S
N809 Mn793 2.282 . S
N809 C810 1.328 . S
N809 C814 1.318 . S
C810 N809 1.328 . S
C810 C811 1.457 . S
C810 H815 0.929 . S
C811 C810 1.457 . S
C811 C812 1.291 . S
C811 H824 0.931 . S
C812 C811 1.291 . S
C812 C813 1.373 . S
C812 H825 0.929 . S
C813 C812 1.373 . S
C813 C814 1.396 . S
C813 C820 1.403 . S
C814 C804 1.476 . S
C814 N809 1.318 . S
C814 C813 1.396 . S
H815 C810 0.929 . S
O816 Mn792 2.385 . S
O816 C794 1.234 . S
O817 Mn792 2.209 . S
O817 Mn793 2.215 . S
O817 C794 1.283 . S
O818 Mn792 2.094 . S
O818 C796 1.240 . S
O819 Mn793 2.117 . S
O819 C796 1.264 . S
C820 C813 1.403 . S
C820 C821 1.399 . S
C820 H826 0.929 . S
C821 C801 1.449 . S
C821 C820 1.399 . S
C821 H827 0.930 . S
H822 C802 0.931 . S
H823 C803 0.930 . S
H824 C811 0.931 . S
H825 C812 0.929 . S
H826 C820 0.929 . S
H827 C821 0.930 . S
Mn828 O833 2.095 . S
Mn828 O843 2.162 . S
Mn828 O844 2.297 . S
Mn828 O852 2.385 . S
Mn828 O853 2.209 . S
Mn828 O854 2.094 . S
Mn829 O834 2.121 . S
Mn829 N836 2.257 . S
Mn829 N845 2.282 . S
Mn829 O853 2.215 . S
Mn829 O855 2.117 . S
C830 O852 1.234 . S
C830 O853 1.283 . S
C831 O843 1.281 . S
C831 O844 1.236 . S
C832 O854 1.240 . S
C832 O855 1.264 . S
O833 Mn828 2.095 . S
O833 C842 1.250 . S
O834 Mn829 2.121 . S
O834 C842 1.258 . S
C835 N836 1.326 . S
C835 C839 1.460 . S
C835 H841 0.929 . S
N836 Mn829 2.257 . S
N836 C835 1.326 . S
N836 C840 1.362 . S
C837 C838 1.258 . S
C837 C840 1.431 . S
C837 C857 1.449 . S
C838 C837 1.258 . S
C838 C839 1.477 . S
C838 H858 0.931 . S
C839 C835 1.460 . S
C839 C838 1.477 . S
C839 H859 0.930 . S
C840 N836 1.362 . S
C840 C837 1.431 . S
C840 C850 1.476 . S
H841 C835 0.929 . S
C842 O833 1.250 . S
C842 O834 1.258 . S
O843 Mn828 2.162 . S
O843 C831 1.281 . S
O844 Mn828 2.297 . S
O844 C831 1.236 . S
N845 Mn829 2.282 . S
N845 C846 1.328 . S
N845 C850 1.318 . S
C846 N845 1.328 . S
C846 C847 1.457 . S
C846 H851 0.929 . S
C847 C846 1.457 . S
C847 C848 1.291 . S
C847 H860 0.931 . S
C848 C847 1.291 . S
C848 C849 1.373 . S
C848 H861 0.929 . S
C849 C848 1.373 . S
C849 C850 1.396 . S
C849 C856 1.403 . S
C850 C840 1.476 . S
C850 N845 1.318 . S
C850 C849 1.396 . S
H851 C846 0.929 . S
O852 Mn828 2.385 . S
O852 C830 1.234 . S
O853 Mn828 2.209 . S
O853 Mn829 2.215 . S
O853 C830 1.283 . S
O854 Mn828 2.094 . S
O854 C832 1.240 . S
O855 Mn829 2.117 . S
O855 C832 1.264 . S
C856 C849 1.403 . S
C856 C857 1.399 . S
C856 H862 0.929 . S
C857 C837 1.449 . S
C857 C856 1.399 . S
C857 H863 0.930 . S
H858 C838 0.931 . S
H859 C839 0.930 . S
H860 C847 0.931 . S
H861 C848 0.929 . S
H862 C856 0.929 . S
H863 C857 0.930 . S
Mn864 O869 2.095 . S
Mn864 O879 2.162 . S
Mn864 O880 2.297 . S
Mn864 O888 2.385 . S
Mn864 O889 2.209 . S
Mn864 O890 2.094 . S
Mn865 O870 2.121 . S
Mn865 N872 2.257 . S
Mn865 N881 2.282 . S
Mn865 O889 2.215 . S
Mn865 O891 2.117 . S
C866 O888 1.234 . S
C866 O889 1.283 . S
C867 O879 1.281 . S
C867 O880 1.236 . S
C868 O890 1.240 . S
C868 O891 1.264 . S
O869 Mn864 2.095 . S
O869 C878 1.250 . S
O870 Mn865 2.121 . S
O870 C878 1.258 . S
C871 N872 1.326 . S
C871 C875 1.460 . S
C871 H877 0.929 . S
N872 Mn865 2.257 . S
N872 C871 1.326 . S
N872 C876 1.362 . S
C873 C874 1.258 . S
C873 C876 1.431 . S
C873 C893 1.449 . S
C874 C873 1.258 . S
C874 C875 1.477 . S
C874 H894 0.931 . S
C875 C871 1.460 . S
C875 C874 1.477 . S
C875 H895 0.930 . S
C876 N872 1.362 . S
C876 C873 1.431 . S
C876 C886 1.476 . S
H877 C871 0.929 . S
C878 O869 1.250 . S
C878 O870 1.258 . S
O879 Mn864 2.162 . S
O879 C867 1.281 . S
O880 Mn864 2.297 . S
O880 C867 1.236 . S
N881 Mn865 2.282 . S
N881 C882 1.328 . S
N881 C886 1.318 . S
C882 N881 1.328 . S
C882 C883 1.457 . S
C882 H887 0.929 . S
C883 C882 1.457 . S
C883 C884 1.291 . S
C883 H896 0.931 . S
C884 C883 1.291 . S
C884 C885 1.373 . S
C884 H897 0.929 . S
C885 C884 1.373 . S
C885 C886 1.396 . S
C885 C892 1.403 . S
C886 C876 1.476 . S
C886 N881 1.318 . S
C886 C885 1.396 . S
H887 C882 0.929 . S
O888 Mn864 2.385 . S
O888 C866 1.234 . S
O889 Mn864 2.209 . S
O889 Mn865 2.215 . S
O889 C866 1.283 . S
O890 Mn864 2.094 . S
O890 C868 1.240 . S
O891 Mn865 2.117 . S
O891 C868 1.264 . S
C892 C885 1.403 . S
C892 C893 1.399 . S
C892 H898 0.929 . S
C893 C873 1.449 . S
C893 C892 1.399 . S
C893 H899 0.930 . S
H894 C874 0.931 . S
H895 C875 0.930 . S
H896 C883 0.931 . S
H897 C884 0.929 . S
H898 C892 0.929 . S
H899 C893 0.930 . S
Mn900 O905 2.095 . S
Mn900 O915 2.162 . S
Mn900 O916 2.297 . S
Mn900 O924 2.385 . S
Mn900 O925 2.209 . S
Mn900 O926 2.094 . S
Mn901 O906 2.121 . S
Mn901 N908 2.257 . S
Mn901 N917 2.282 . S
Mn901 O925 2.215 . S
Mn901 O927 2.117 . S
C902 O924 1.234 . S
C902 O925 1.283 . S
C903 O915 1.281 . S
C903 O916 1.236 . S
C904 O926 1.240 . S
C904 O927 1.264 . S
O905 Mn900 2.095 . S
O905 C914 1.250 . S
O906 Mn901 2.121 . S
O906 C914 1.258 . S
C907 N908 1.326 . S
C907 C911 1.460 . S
C907 H913 0.929 . S
N908 Mn901 2.257 . S
N908 C907 1.326 . S
N908 C912 1.362 . S
C909 C910 1.258 . S
C909 C912 1.431 . S
C909 C929 1.449 . S
C910 C909 1.258 . S
C910 C911 1.477 . S
C910 H930 0.931 . S
C911 C907 1.460 . S
C911 C910 1.477 . S
C911 H931 0.930 . S
C912 N908 1.362 . S
C912 C909 1.431 . S
C912 C922 1.476 . S
H913 C907 0.929 . S
C914 O905 1.250 . S
C914 O906 1.258 . S
O915 Mn900 2.162 . S
O915 C903 1.281 . S
O916 Mn900 2.297 . S
O916 C903 1.236 . S
N917 Mn901 2.282 . S
N917 C918 1.328 . S
N917 C922 1.318 . S
C918 N917 1.328 . S
C918 C919 1.457 . S
C918 H923 0.929 . S
C919 C918 1.457 . S
C919 C920 1.291 . S
C919 H932 0.931 . S
C920 C919 1.291 . S
C920 C921 1.373 . S
C920 H933 0.929 . S
C921 C920 1.373 . S
C921 C922 1.396 . S
C921 C928 1.403 . S
C922 C912 1.476 . S
C922 N917 1.318 . S
C922 C921 1.396 . S
H923 C918 0.929 . S
O924 Mn900 2.385 . S
O924 C902 1.234 . S
O925 Mn900 2.209 . S
O925 Mn901 2.215 . S
O925 C902 1.283 . S
O926 Mn900 2.094 . S
O926 C904 1.240 . S
O927 Mn901 2.117 . S
O927 C904 1.264 . S
C928 C921 1.403 . S
C928 C929 1.399 . S
C928 H934 0.929 . S
C929 C909 1.449 . S
C929 C928 1.399 . S
C929 H935 0.930 . S
H930 C910 0.931 . S
H931 C911 0.930 . S
H932 C919 0.931 . S
H933 C920 0.929 . S
H934 C928 0.929 . S
H935 C929 0.930 . S
Mn936 O941 2.095 . S
Mn936 O951 2.162 . S
Mn936 O952 2.297 . S
Mn936 O960 2.385 . S
Mn936 O961 2.209 . S
Mn936 O962 2.094 . S
Mn937 O942 2.121 . S
Mn937 N944 2.257 . S
Mn937 N953 2.282 . S
Mn937 O961 2.215 . S
Mn937 O963 2.117 . S
C938 O960 1.234 . S
C938 O961 1.283 . S
C939 O951 1.281 . S
C939 O952 1.236 . S
C940 O962 1.240 . S
C940 O963 1.264 . S
O941 Mn936 2.095 . S
O941 C950 1.250 . S
O942 Mn937 2.121 . S
O942 C950 1.258 . S
C943 N944 1.326 . S
C943 C947 1.460 . S
C943 H949 0.929 . S
N944 Mn937 2.257 . S
N944 C943 1.326 . S
N944 C948 1.362 . S
C945 C946 1.258 . S
C945 C948 1.431 . S
C945 C965 1.449 . S
C946 C945 1.258 . S
C946 C947 1.477 . S
C946 H966 0.931 . S
C947 C943 1.460 . S
C947 C946 1.477 . S
C947 H967 0.930 . S
C948 N944 1.362 . S
C948 C945 1.431 . S
C948 C958 1.476 . S
H949 C943 0.929 . S
C950 O941 1.250 . S
C950 O942 1.258 . S
O951 Mn936 2.162 . S
O951 C939 1.281 . S
O952 Mn936 2.297 . S
O952 C939 1.236 . S
N953 Mn937 2.282 . S
N953 C954 1.328 . S
N953 C958 1.318 . S
C954 N953 1.328 . S
C954 C955 1.457 . S
C954 H959 0.929 . S
C955 C954 1.457 . S
C955 C956 1.291 . S
C955 H968 0.931 . S
C956 C955 1.291 . S
C956 C957 1.373 . S
C956 H969 0.929 . S
C957 C956 1.373 . S
C957 C958 1.396 . S
C957 C964 1.403 . S
C958 C948 1.476 . S
C958 N953 1.318 . S
C958 C957 1.396 . S
H959 C954 0.929 . S
O960 Mn936 2.385 . S
O960 C938 1.234 . S
O961 Mn936 2.209 . S
O961 Mn937 2.215 . S
O961 C938 1.283 . S
O962 Mn936 2.094 . S
O962 C940 1.240 . S
O963 Mn937 2.117 . S
O963 C940 1.264 . S
C964 C957 1.403 . S
C964 C965 1.399 . S
C964 H970 0.929 . S
C965 C945 1.449 . S
C965 C964 1.399 . S
C965 H971 0.930 . S
H966 C946 0.931 . S
H967 C947 0.930 . S
H968 C955 0.931 . S
H969 C956 0.929 . S
H970 C964 0.929 . S
H971 C965 0.930 . S
Mn972 O977 2.095 . S
Mn972 O987 2.162 . S
Mn972 O988 2.297 . S
Mn972 O996 2.385 . S
Mn972 O997 2.209 . S
Mn972 O998 2.094 . S
Mn973 O978 2.121 . S
Mn973 N980 2.257 . S
Mn973 N989 2.282 . S
Mn973 O997 2.215 . S
Mn973 O999 2.117 . S
C974 O996 1.234 . S
C974 O997 1.283 . S
C975 O987 1.281 . S
C975 O988 1.236 . S
C976 O998 1.240 . S
C976 O999 1.264 . S
O977 Mn972 2.095 . S
O977 C986 1.250 . S
O978 Mn973 2.121 . S
O978 C986 1.258 . S
C979 N980 1.326 . S
C979 C983 1.460 . S
C979 H985 0.929 . S
N980 Mn973 2.257 . S
N980 C979 1.326 . S
N980 C984 1.362 . S
C981 C982 1.258 . S
C981 C984 1.431 . S
C981 C1001 1.449 . S
C982 C981 1.258 . S
C982 C983 1.477 . S
C982 H1002 0.931 . S
C983 C979 1.460 . S
C983 C982 1.477 . S
C983 H1003 0.930 . S
C984 N980 1.362 . S
C984 C981 1.431 . S
C984 C994 1.476 . S
H985 C979 0.929 . S
C986 O977 1.250 . S
C986 O978 1.258 . S
O987 Mn972 2.162 . S
O987 C975 1.281 . S
O988 Mn972 2.297 . S
O988 C975 1.236 . S
N989 Mn973 2.282 . S
N989 C990 1.328 . S
N989 C994 1.318 . S
C990 N989 1.328 . S
C990 C991 1.457 . S
C990 H995 0.929 . S
C991 C990 1.457 . S
C991 C992 1.291 . S
C991 H1004 0.931 . S
C992 C991 1.291 . S
C992 C993 1.373 . S
C992 H1005 0.929 . S
C993 C992 1.373 . S
C993 C994 1.396 . S
C993 C1000 1.403 . S
C994 C984 1.476 . S
C994 N989 1.318 . S
C994 C993 1.396 . S
H995 C990 0.929 . S
O996 Mn972 2.385 . S
O996 C974 1.234 . S
O997 Mn972 2.209 . S
O997 Mn973 2.215 . S
O997 C974 1.283 . S
O998 Mn972 2.094 . S
O998 C976 1.240 . S
O999 Mn973 2.117 . S
O999 C976 1.264 . S
C1000 C993 1.403 . S
C1000 C1001 1.399 . S
C1000 H1006 0.929 . S
C1001 C981 1.449 . S
C1001 C1000 1.399 . S
C1001 H1007 0.930 . S
H1002 C982 0.931 . S
H1003 C983 0.930 . S
H1004 C991 0.931 . S
H1005 C992 0.929 . S
H1006 C1000 0.929 . S
H1007 C1001 0.930 . S
Mn1008 O1013 2.095 . S
Mn1008 O1023 2.162 . S
Mn1008 O1024 2.297 . S
Mn1008 O1032 2.385 . S
Mn1008 O1033 2.209 . S
Mn1008 O1034 2.094 . S
Mn1009 O1014 2.121 . S
Mn1009 N1016 2.257 . S
Mn1009 N1025 2.282 . S
Mn1009 O1033 2.215 . S
Mn1009 O1035 2.117 . S
C1010 O1032 1.234 . S
C1010 O1033 1.283 . S
C1011 O1023 1.281 . S
C1011 O1024 1.236 . S
C1012 O1034 1.240 . S
C1012 O1035 1.264 . S
O1013 Mn1008 2.095 . S
O1013 C1022 1.250 . S
O1014 Mn1009 2.121 . S
O1014 C1022 1.258 . S
C1015 N1016 1.326 . S
C1015 C1019 1.460 . S
C1015 H1021 0.929 . S
N1016 Mn1009 2.257 . S
N1016 C1015 1.326 . S
N1016 C1020 1.362 . S
C1017 C1018 1.258 . S
C1017 C1020 1.431 . S
C1017 C1037 1.449 . S
C1018 C1017 1.258 . S
C1018 C1019 1.477 . S
C1018 H1038 0.931 . S
C1019 C1015 1.460 . S
C1019 C1018 1.477 . S
C1019 H1039 0.930 . S
C1020 N1016 1.362 . S
C1020 C1017 1.431 . S
C1020 C1030 1.476 . S
H1021 C1015 0.929 . S
C1022 O1013 1.250 . S
C1022 O1014 1.258 . S
O1023 Mn1008 2.162 . S
O1023 C1011 1.281 . S
O1024 Mn1008 2.297 . S
O1024 C1011 1.236 . S
N1025 Mn1009 2.282 . S
N1025 C1026 1.328 . S
N1025 C1030 1.318 . S
C1026 N1025 1.328 . S
C1026 C1027 1.457 . S
C1026 H1031 0.929 . S
C1027 C1026 1.457 . S
C1027 C1028 1.291 . S
C1027 H1040 0.931 . S
C1028 C1027 1.291 . S
C1028 C1029 1.373 . S
C1028 H1041 0.929 . S
C1029 C1028 1.373 . S
C1029 C1030 1.396 . S
C1029 C1036 1.403 . S
C1030 C1020 1.476 . S
C1030 N1025 1.318 . S
C1030 C1029 1.396 . S
H1031 C1026 0.929 . S
O1032 Mn1008 2.385 . S
O1032 C1010 1.234 . S
O1033 Mn1008 2.209 . S
O1033 Mn1009 2.215 . S
O1033 C1010 1.283 . S
O1034 Mn1008 2.094 . S
O1034 C1012 1.240 . S
O1035 Mn1009 2.117 . S
O1035 C1012 1.264 . S
C1036 C1029 1.403 . S
C1036 C1037 1.399 . S
C1036 H1042 0.929 . S
C1037 C1017 1.449 . S
C1037 C1036 1.399 . S
C1037 H1043 0.930 . S
H1038 C1018 0.931 . S
H1039 C1019 0.930 . S
H1040 C1027 0.931 . S
H1041 C1028 0.929 . S
H1042 C1036 0.929 . S
H1043 C1037 0.930 . S
Mn1044 O1049 2.095 . S
Mn1044 O1059 2.162 . S
Mn1044 O1060 2.297 . S
Mn1044 O1068 2.385 . S
Mn1044 O1069 2.209 . S
Mn1044 O1070 2.094 . S
Mn1045 O1050 2.121 . S
Mn1045 N1052 2.257 . S
Mn1045 N1061 2.282 . S
Mn1045 O1069 2.215 . S
Mn1045 O1071 2.117 . S
C1046 O1068 1.234 . S
C1046 O1069 1.283 . S
C1047 O1059 1.281 . S
C1047 O1060 1.236 . S
C1048 O1070 1.240 . S
C1048 O1071 1.264 . S
O1049 Mn1044 2.095 . S
O1049 C1058 1.250 . S
O1050 Mn1045 2.121 . S
O1050 C1058 1.258 . S
C1051 N1052 1.326 . S
C1051 C1055 1.460 . S
C1051 H1057 0.929 . S
N1052 Mn1045 2.257 . S
N1052 C1051 1.326 . S
N1052 C1056 1.362 . S
C1053 C1054 1.258 . S
C1053 C1056 1.431 . S
C1053 C1073 1.449 . S
C1054 C1053 1.258 . S
C1054 C1055 1.477 . S
C1054 H1074 0.931 . S
C1055 C1051 1.460 . S
C1055 C1054 1.477 . S
C1055 H1075 0.930 . S
C1056 N1052 1.362 . S
C1056 C1053 1.431 . S
C1056 C1066 1.476 . S
H1057 C1051 0.929 . S
C1058 O1049 1.250 . S
C1058 O1050 1.258 . S
O1059 Mn1044 2.162 . S
O1059 C1047 1.281 . S
O1060 Mn1044 2.297 . S
O1060 C1047 1.236 . S
N1061 Mn1045 2.282 . S
N1061 C1062 1.328 . S
N1061 C1066 1.318 . S
C1062 N1061 1.328 . S
C1062 C1063 1.457 . S
C1062 H1067 0.929 . S
C1063 C1062 1.457 . S
C1063 C1064 1.291 . S
C1063 H1076 0.931 . S
C1064 C1063 1.291 . S
C1064 C1065 1.373 . S
C1064 H1077 0.929 . S
C1065 C1064 1.373 . S
C1065 C1066 1.396 . S
C1065 C1072 1.403 . S
C1066 C1056 1.476 . S
C1066 N1061 1.318 . S
C1066 C1065 1.396 . S
H1067 C1062 0.929 . S
O1068 Mn1044 2.385 . S
O1068 C1046 1.234 . S
O1069 Mn1044 2.209 . S
O1069 Mn1045 2.215 . S
O1069 C1046 1.283 . S
O1070 Mn1044 2.094 . S
O1070 C1048 1.240 . S
O1071 Mn1045 2.117 . S
O1071 C1048 1.264 . S
C1072 C1065 1.403 . S
C1072 C1073 1.399 . S
C1072 H1078 0.929 . S
C1073 C1053 1.449 . S
C1073 C1072 1.399 . S
C1073 H1079 0.930 . S
H1074 C1054 0.931 . S
H1075 C1055 0.930 . S
H1076 C1063 0.931 . S
H1077 C1064 0.929 . S
H1078 C1072 0.929 . S
H1079 C1073 0.930 . S
Mn1080 O1085 2.095 . S
Mn1080 O1095 2.162 . S
Mn1080 O1096 2.297 . S
Mn1080 O1104 2.385 . S
Mn1080 O1105 2.209 . S
Mn1080 O1106 2.094 . S
Mn1081 O1086 2.121 . S
Mn1081 N1088 2.257 . S
Mn1081 N1097 2.282 . S
Mn1081 O1105 2.215 . S
Mn1081 O1107 2.117 . S
C1082 O1104 1.234 . S
C1082 O1105 1.283 . S
C1083 O1095 1.281 . S
C1083 O1096 1.236 . S
C1084 O1106 1.240 . S
C1084 O1107 1.264 . S
O1085 Mn1080 2.095 . S
O1085 C1094 1.250 . S
O1086 Mn1081 2.121 . S
O1086 C1094 1.258 . S
C1087 N1088 1.326 . S
C1087 C1091 1.460 . S
C1087 H1093 0.929 . S
N1088 Mn1081 2.257 . S
N1088 C1087 1.326 . S
N1088 C1092 1.362 . S
C1089 C1090 1.258 . S
C1089 C1092 1.431 . S
C1089 C1109 1.449 . S
C1090 C1089 1.258 . S
C1090 C1091 1.477 . S
C1090 H1110 0.931 . S
C1091 C1087 1.460 . S
C1091 C1090 1.477 . S
C1091 H1111 0.930 . S
C1092 N1088 1.362 . S
C1092 C1089 1.431 . S
C1092 C1102 1.476 . S
H1093 C1087 0.929 . S
C1094 O1085 1.250 . S
C1094 O1086 1.258 . S
O1095 Mn1080 2.162 . S
O1095 C1083 1.281 . S
O1096 Mn1080 2.297 . S
O1096 C1083 1.236 . S
N1097 Mn1081 2.282 . S
N1097 C1098 1.328 . S
N1097 C1102 1.318 . S
C1098 N1097 1.328 . S
C1098 C1099 1.457 . S
C1098 H1103 0.929 . S
C1099 C1098 1.457 . S
C1099 C1100 1.291 . S
C1099 H1112 0.931 . S
C1100 C1099 1.291 . S
C1100 C1101 1.373 . S
C1100 H1113 0.929 . S
C1101 C1100 1.373 . S
C1101 C1102 1.396 . S
C1101 C1108 1.403 . S
C1102 C1092 1.476 . S
C1102 N1097 1.318 . S
C1102 C1101 1.396 . S
H1103 C1098 0.929 . S
O1104 Mn1080 2.385 . S
O1104 C1082 1.234 . S
O1105 Mn1080 2.209 . S
O1105 Mn1081 2.215 . S
O1105 C1082 1.283 . S
O1106 Mn1080 2.094 . S
O1106 C1084 1.240 . S
O1107 Mn1081 2.117 . S
O1107 C1084 1.264 . S
C1108 C1101 1.403 . S
C1108 C1109 1.399 . S
C1108 H1114 0.929 . S
C1109 C1089 1.449 . S
C1109 C1108 1.399 . S
C1109 H1115 0.930 . S
H1110 C1090 0.931 . S
H1111 C1091 0.930 . S
H1112 C1099 0.931 . S
H1113 C1100 0.929 . S
H1114 C1108 0.929 . S
H1115 C1109 0.930 . S
Mn1116 O1121 2.095 . S
Mn1116 O1131 2.162 . S
Mn1116 O1132 2.297 . S
Mn1116 O1140 2.385 . S
Mn1116 O1141 2.209 . S
Mn1116 O1142 2.094 . S
Mn1117 O1122 2.121 . S
Mn1117 N1124 2.257 . S
Mn1117 N1133 2.282 . S
Mn1117 O1141 2.215 . S
Mn1117 O1143 2.117 . S
C1118 O1140 1.234 . S
C1118 O1141 1.283 . S
C1119 O1131 1.281 . S
C1119 O1132 1.236 . S
C1120 O1142 1.240 . S
C1120 O1143 1.264 . S
O1121 Mn1116 2.095 . S
O1121 C1130 1.250 . S
O1122 Mn1117 2.121 . S
O1122 C1130 1.258 . S
C1123 N1124 1.326 . S
C1123 C1127 1.460 . S
C1123 H1129 0.929 . S
N1124 Mn1117 2.257 . S
N1124 C1123 1.326 . S
N1124 C1128 1.362 . S
C1125 C1126 1.258 . S
C1125 C1128 1.431 . S
C1125 C1145 1.449 . S
C1126 C1125 1.258 . S
C1126 C1127 1.477 . S
C1126 H1146 0.931 . S
C1127 C1123 1.460 . S
C1127 C1126 1.477 . S
C1127 H1147 0.930 . S
C1128 N1124 1.362 . S
C1128 C1125 1.431 . S
C1128 C1138 1.476 . S
H1129 C1123 0.929 . S
C1130 O1121 1.250 . S
C1130 O1122 1.258 . S
O1131 Mn1116 2.162 . S
O1131 C1119 1.281 . S
O1132 Mn1116 2.297 . S
O1132 C1119 1.236 . S
N1133 Mn1117 2.282 . S
N1133 C1134 1.328 . S
N1133 C1138 1.318 . S
C1134 N1133 1.328 . S
C1134 C1135 1.457 . S
C1134 H1139 0.929 . S
C1135 C1134 1.457 . S
C1135 C1136 1.291 . S
C1135 H1148 0.931 . S
C1136 C1135 1.291 . S
C1136 C1137 1.373 . S
C1136 H1149 0.929 . S
C1137 C1136 1.373 . S
C1137 C1138 1.396 . S
C1137 C1144 1.403 . S
C1138 C1128 1.476 . S
C1138 N1133 1.318 . S
C1138 C1137 1.396 . S
H1139 C1134 0.929 . S
O1140 Mn1116 2.385 . S
O1140 C1118 1.234 . S
O1141 Mn1116 2.209 . S
O1141 Mn1117 2.215 . S
O1141 C1118 1.283 . S
O1142 Mn1116 2.094 . S
O1142 C1120 1.240 . S
O1143 Mn1117 2.117 . S
O1143 C1120 1.264 . S
C1144 C1137 1.403 . S
C1144 C1145 1.399 . S
C1144 H1150 0.929 . S
C1145 C1125 1.449 . S
C1145 C1144 1.399 . S
C1145 H1151 0.930 . S
H1146 C1126 0.931 . S
H1147 C1127 0.930 . S
H1148 C1135 0.931 . S
H1149 C1136 0.929 . S
H1150 C1144 0.929 . S
H1151 C1145 0.930 . S
H1152 C1158 0.930 . S
H1153 C1162 0.930 . S
H1154 C1167 0.929 . S
H1155 C1165 0.929 . S
H1156 C1160 0.929 . S
H1157 C1166 0.929 . S
C1158 H1152 0.930 . S
C1158 C1159 1.367 . S
C1158 C1166 1.378 . S
C1159 C1158 1.367 . S
C1159 C1167 1.433 . S
C1160 H1156 0.929 . S
C1160 C1162 1.378 . S
C1160 C1164 1.350 . S
C1161 C1164 1.463 . S
C1161 C1166 1.350 . S
C1161 N1169 1.427 . S
C1162 H1153 0.930 . S
C1162 C1160 1.378 . S
C1162 C1163 1.367 . S
C1163 C1162 1.367 . S
C1163 C1165 1.433 . S
C1164 C1160 1.350 . S
C1164 C1161 1.463 . S
C1164 N1168 1.427 . S
C1165 H1155 0.929 . S
C1165 C1163 1.433 . S
C1165 N1168 1.384 . S
C1166 H1157 0.929 . S
C1166 C1158 1.378 . S
C1166 C1161 1.350 . S
C1167 H1154 0.929 . S
C1167 C1159 1.433 . S
C1167 N1169 1.384 . S
N1168 C1164 1.427 . S
N1168 C1165 1.384 . S
N1169 C1161 1.427 . S
N1169 C1167 1.384 . S
H1170 C1176 0.930 . S
H1171 C1180 0.930 . S
H1172 C1185 0.929 . S
H1173 C1183 0.929 . S
H1174 C1178 0.929 . S
H1175 C1184 0.929 . S
C1176 H1170 0.930 . S
C1176 C1177 1.367 . S
C1176 C1184 1.378 . S
C1177 C1176 1.367 . S
C1177 C1185 1.433 . S
C1178 H1174 0.929 . S
C1178 C1180 1.378 . S
C1178 C1182 1.350 . S
C1179 C1182 1.463 . S
C1179 C1184 1.350 . S
C1179 N1187 1.427 . S
C1180 H1171 0.930 . S
C1180 C1178 1.378 . S
C1180 C1181 1.367 . S
C1181 C1180 1.367 . S
C1181 C1183 1.433 . S
C1182 C1178 1.350 . S
C1182 C1179 1.463 . S
C1182 N1186 1.427 . S
C1183 H1173 0.929 . S
C1183 C1181 1.433 . S
C1183 N1186 1.384 . S
C1184 H1175 0.929 . S
C1184 C1176 1.378 . S
C1184 C1179 1.350 . S
C1185 H1172 0.929 . S
C1185 C1177 1.433 . S
C1185 N1187 1.384 . S
N1186 C1182 1.427 . S
N1186 C1183 1.384 . S
N1187 C1179 1.427 . S
N1187 C1185 1.384 . S
H1188 C1194 0.930 . S
H1189 C1198 0.930 . S
H1190 C1203 0.929 . S
H1191 C1201 0.929 . S
H1192 C1196 0.929 . S
H1193 C1202 0.929 . S
C1194 H1188 0.930 . S
C1194 C1195 1.367 . S
C1194 C1202 1.378 . S
C1195 C1194 1.367 . S
C1195 C1203 1.433 . S
C1196 H1192 0.929 . S
C1196 C1198 1.378 . S
C1196 C1200 1.350 . S
C1197 C1200 1.463 . S
C1197 C1202 1.350 . S
C1197 N1205 1.427 . S
C1198 H1189 0.930 . S
C1198 C1196 1.378 . S
C1198 C1199 1.367 . S
C1199 C1198 1.367 . S
C1199 C1201 1.433 . S
C1200 C1196 1.350 . S
C1200 C1197 1.463 . S
C1200 N1204 1.427 . S
C1201 H1191 0.929 . S
C1201 C1199 1.433 . S
C1201 N1204 1.384 . S
C1202 H1193 0.929 . S
C1202 C1194 1.378 . S
C1202 C1197 1.350 . S
C1203 H1190 0.929 . S
C1203 C1195 1.433 . S
C1203 N1205 1.384 . S
N1204 C1200 1.427 . S
N1204 C1201 1.384 . S
N1205 C1197 1.427 . S
N1205 C1203 1.384 . S
H1206 C1212 0.930 . S
H1207 C1216 0.930 . S
H1208 C1221 0.929 . S
H1209 C1219 0.929 . S
H1210 C1214 0.929 . S
H1211 C1220 0.929 . S
C1212 H1206 0.930 . S
C1212 C1213 1.367 . S
C1212 C1220 1.378 . S
C1213 C1212 1.367 . S
C1213 C1221 1.433 . S
C1214 H1210 0.929 . S
C1214 C1216 1.378 . S
C1214 C1218 1.350 . S
C1215 C1218 1.463 . S
C1215 C1220 1.350 . S
C1215 N1223 1.427 . S
C1216 H1207 0.930 . S
C1216 C1214 1.378 . S
C1216 C1217 1.367 . S
C1217 C1216 1.367 . S
C1217 C1219 1.433 . S
C1218 C1214 1.350 . S
C1218 C1215 1.463 . S
C1218 N1222 1.427 . S
C1219 H1209 0.929 . S
C1219 C1217 1.433 . S
C1219 N1222 1.384 . S
C1220 H1211 0.929 . S
C1220 C1212 1.378 . S
C1220 C1215 1.350 . S
C1221 H1208 0.929 . S
C1221 C1213 1.433 . S
C1221 N1223 1.384 . S
N1222 C1218 1.427 . S
N1222 C1219 1.384 . S
N1223 C1215 1.427 . S
N1223 C1221 1.384 . S
H1224 C1230 0.930 . S
H1225 C1234 0.930 . S
H1226 C1239 0.929 . S
H1227 C1237 0.929 . S
H1228 C1232 0.929 . S
H1229 C1238 0.929 . S
C1230 H1224 0.930 . S
C1230 C1231 1.367 . S
C1230 C1238 1.378 . S
C1231 C1230 1.367 . S
C1231 C1239 1.433 . S
C1232 H1228 0.929 . S
C1232 C1234 1.378 . S
C1232 C1236 1.350 . S
C1233 C1236 1.463 . S
C1233 C1238 1.350 . S
C1233 N1241 1.427 . S
C1234 H1225 0.930 . S
C1234 C1232 1.378 . S
C1234 C1235 1.367 . S
C1235 C1234 1.367 . S
C1235 C1237 1.433 . S
C1236 C1232 1.350 . S
C1236 C1233 1.463 . S
C1236 N1240 1.427 . S
C1237 H1227 0.929 . S
C1237 C1235 1.433 . S
C1237 N1240 1.384 . S
C1238 H1229 0.929 . S
C1238 C1230 1.378 . S
C1238 C1233 1.350 . S
C1239 H1226 0.929 . S
C1239 C1231 1.433 . S
C1239 N1241 1.384 . S
N1240 C1236 1.427 . S
N1240 C1237 1.384 . S
N1241 C1233 1.427 . S
N1241 C1239 1.384 . S
H1242 C1248 0.930 . S
H1243 C1252 0.930 . S
H1244 C1257 0.929 . S
H1245 C1255 0.929 . S
H1246 C1250 0.929 . S
H1247 C1256 0.929 . S
C1248 H1242 0.930 . S
C1248 C1249 1.367 . S
C1248 C1256 1.378 . S
C1249 C1248 1.367 . S
C1249 C1257 1.433 . S
C1250 H1246 0.929 . S
C1250 C1252 1.378 . S
C1250 C1254 1.350 . S
C1251 C1254 1.463 . S
C1251 C1256 1.350 . S
C1251 N1259 1.427 . S
C1252 H1243 0.930 . S
C1252 C1250 1.378 . S
C1252 C1253 1.367 . S
C1253 C1252 1.367 . S
C1253 C1255 1.433 . S
C1254 C1250 1.350 . S
C1254 C1251 1.463 . S
C1254 N1258 1.427 . S
C1255 H1245 0.929 . S
C1255 C1253 1.433 . S
C1255 N1258 1.384 . S
C1256 H1247 0.929 . S
C1256 C1248 1.378 . S
C1256 C1251 1.350 . S
C1257 H1244 0.929 . S
C1257 C1249 1.433 . S
C1257 N1259 1.384 . S
N1258 C1254 1.427 . S
N1258 C1255 1.384 . S
N1259 C1251 1.427 . S
N1259 C1257 1.384 . S
H1260 C1266 0.930 . S
H1261 C1270 0.930 . S
H1262 C1275 0.929 . S
H1263 C1273 0.929 . S
H1264 C1268 0.929 . S
H1265 C1274 0.929 . S
C1266 H1260 0.930 . S
C1266 C1267 1.367 . S
C1266 C1274 1.378 . S
C1267 C1266 1.367 . S
C1267 C1275 1.433 . S
C1268 H1264 0.929 . S
C1268 C1270 1.378 . S
C1268 C1272 1.350 . S
C1269 C1272 1.463 . S
C1269 C1274 1.350 . S
C1269 N1277 1.427 . S
C1270 H1261 0.930 . S
C1270 C1268 1.378 . S
C1270 C1271 1.367 . S
C1271 C1270 1.367 . S
C1271 C1273 1.433 . S
C1272 C1268 1.350 . S
C1272 C1269 1.463 . S
C1272 N1276 1.427 . S
C1273 H1263 0.929 . S
C1273 C1271 1.433 . S
C1273 N1276 1.384 . S
C1274 H1265 0.929 . S
C1274 C1266 1.378 . S
C1274 C1269 1.350 . S
C1275 H1262 0.929 . S
C1275 C1267 1.433 . S
C1275 N1277 1.384 . S
N1276 C1272 1.427 . S
N1276 C1273 1.384 . S
N1277 C1269 1.427 . S
N1277 C1275 1.384 . S
H1278 C1284 0.930 . S
H1279 C1288 0.930 . S
H1280 C1293 0.929 . S
H1281 C1291 0.929 . S
H1282 C1286 0.929 . S
H1283 C1292 0.929 . S
C1284 H1278 0.930 . S
C1284 C1285 1.367 . S
C1284 C1292 1.378 . S
C1285 C1284 1.367 . S
C1285 C1293 1.433 . S
C1286 H1282 0.929 . S
C1286 C1288 1.378 . S
C1286 C1290 1.350 . S
C1287 C1290 1.463 . S
C1287 C1292 1.350 . S
C1287 N1295 1.427 . S
C1288 H1279 0.930 . S
C1288 C1286 1.378 . S
C1288 C1289 1.367 . S
C1289 C1288 1.367 . S
C1289 C1291 1.433 . S
C1290 C1286 1.350 . S
C1290 C1287 1.463 . S
C1290 N1294 1.427 . S
C1291 H1281 0.929 . S
C1291 C1289 1.433 . S
C1291 N1294 1.384 . S
C1292 H1283 0.929 . S
C1292 C1284 1.378 . S
C1292 C1287 1.350 . S
C1293 H1280 0.929 . S
C1293 C1285 1.433 . S
C1293 N1295 1.384 . S
N1294 C1290 1.427 . S
N1294 C1291 1.384 . S
N1295 C1287 1.427 . S
N1295 C1293 1.384 . S
H1296 C1302 0.930 . S
H1297 C1306 0.930 . S
H1298 C1311 0.929 . S
H1299 C1309 0.929 . S
H1300 C1304 0.929 . S
H1301 C1310 0.929 . S
C1302 H1296 0.930 . S
C1302 C1303 1.367 . S
C1302 C1310 1.378 . S
C1303 C1302 1.367 . S
C1303 C1311 1.433 . S
C1304 H1300 0.929 . S
C1304 C1306 1.378 . S
C1304 C1308 1.350 . S
C1305 C1308 1.463 . S
C1305 C1310 1.350 . S
C1305 N1313 1.427 . S
C1306 H1297 0.930 . S
C1306 C1304 1.378 . S
C1306 C1307 1.367 . S
C1307 C1306 1.367 . S
C1307 C1309 1.433 . S
C1308 C1304 1.350 . S
C1308 C1305 1.463 . S
C1308 N1312 1.427 . S
C1309 H1299 0.929 . S
C1309 C1307 1.433 . S
C1309 N1312 1.384 . S
C1310 H1301 0.929 . S
C1310 C1302 1.378 . S
C1310 C1305 1.350 . S
C1311 H1298 0.929 . S
C1311 C1303 1.433 . S
C1311 N1313 1.384 . S
N1312 C1308 1.427 . S
N1312 C1309 1.384 . S
N1313 C1305 1.427 . S
N1313 C1311 1.384 . S
H1314 C1320 0.930 . S
H1315 C1324 0.930 . S
H1316 C1329 0.929 . S
H1317 C1327 0.929 . S
H1318 C1322 0.929 . S
H1319 C1328 0.929 . S
C1320 H1314 0.930 . S
C1320 C1321 1.367 . S
C1320 C1328 1.378 . S
C1321 C1320 1.367 . S
C1321 C1329 1.433 . S
C1322 H1318 0.929 . S
C1322 C1324 1.378 . S
C1322 C1326 1.350 . S
C1323 C1326 1.463 . S
C1323 C1328 1.350 . S
C1323 N1331 1.427 . S
C1324 H1315 0.930 . S
C1324 C1322 1.378 . S
C1324 C1325 1.367 . S
C1325 C1324 1.367 . S
C1325 C1327 1.433 . S
C1326 C1322 1.350 . S
C1326 C1323 1.463 . S
C1326 N1330 1.427 . S
C1327 H1317 0.929 . S
C1327 C1325 1.433 . S
C1327 N1330 1.384 . S
C1328 H1319 0.929 . S
C1328 C1320 1.378 . S
C1328 C1323 1.350 . S
C1329 H1316 0.929 . S
C1329 C1321 1.433 . S
C1329 N1331 1.384 . S
N1330 C1326 1.427 . S
N1330 C1327 1.384 . S
N1331 C1323 1.427 . S
N1331 C1329 1.384 . S
H1332 C1338 0.930 . S
H1333 C1342 0.930 . S
H1334 C1347 0.929 . S
H1335 C1345 0.929 . S
H1336 C1340 0.929 . S
H1337 C1346 0.929 . S
C1338 H1332 0.930 . S
C1338 C1339 1.367 . S
C1338 C1346 1.378 . S
C1339 C1338 1.367 . S
C1339 C1347 1.433 . S
C1340 H1336 0.929 . S
C1340 C1342 1.378 . S
C1340 C1344 1.350 . S
C1341 C1344 1.463 . S
C1341 C1346 1.350 . S
C1341 N1349 1.427 . S
C1342 H1333 0.930 . S
C1342 C1340 1.378 . S
C1342 C1343 1.367 . S
C1343 C1342 1.367 . S
C1343 C1345 1.433 . S
C1344 C1340 1.350 . S
C1344 C1341 1.463 . S
C1344 N1348 1.427 . S
C1345 H1335 0.929 . S
C1345 C1343 1.433 . S
C1345 N1348 1.384 . S
C1346 H1337 0.929 . S
C1346 C1338 1.378 . S
C1346 C1341 1.350 . S
C1347 H1334 0.929 . S
C1347 C1339 1.433 . S
C1347 N1349 1.384 . S
N1348 C1344 1.427 . S
N1348 C1345 1.384 . S
N1349 C1341 1.427 . S
N1349 C1347 1.384 . S
H1350 C1356 0.930 . S
H1351 C1360 0.930 . S
H1352 C1365 0.929 . S
H1353 C1363 0.929 . S
H1354 C1358 0.929 . S
H1355 C1364 0.929 . S
C1356 H1350 0.930 . S
C1356 C1357 1.367 . S
C1356 C1364 1.378 . S
C1357 C1356 1.367 . S
C1357 C1365 1.433 . S
C1358 H1354 0.929 . S
C1358 C1360 1.378 . S
C1358 C1362 1.350 . S
C1359 C1362 1.463 . S
C1359 C1364 1.350 . S
C1359 N1367 1.427 . S
C1360 H1351 0.930 . S
C1360 C1358 1.378 . S
C1360 C1361 1.367 . S
C1361 C1360 1.367 . S
C1361 C1363 1.433 . S
C1362 C1358 1.350 . S
C1362 C1359 1.463 . S
C1362 N1366 1.427 . S
C1363 H1353 0.929 . S
C1363 C1361 1.433 . S
C1363 N1366 1.384 . S
C1364 H1355 0.929 . S
C1364 C1356 1.378 . S
C1364 C1359 1.350 . S
C1365 H1352 0.929 . S
C1365 C1357 1.433 . S
C1365 N1367 1.384 . S
N1366 C1362 1.427 . S
N1366 C1363 1.384 . S
N1367 C1359 1.427 . S
N1367 C1365 1.384 . S
H1368 C1374 0.930 . S
H1369 C1378 0.930 . S
H1370 C1383 0.929 . S
H1371 C1381 0.929 . S
H1372 C1376 0.929 . S
H1373 C1382 0.929 . S
C1374 H1368 0.930 . S
C1374 C1375 1.367 . S
C1374 C1382 1.378 . S
C1375 C1374 1.367 . S
C1375 C1383 1.433 . S
C1376 H1372 0.929 . S
C1376 C1378 1.378 . S
C1376 C1380 1.350 . S
C1377 C1380 1.463 . S
C1377 C1382 1.350 . S
C1377 N1385 1.427 . S
C1378 H1369 0.930 . S
C1378 C1376 1.378 . S
C1378 C1379 1.367 . S
C1379 C1378 1.367 . S
C1379 C1381 1.433 . S
C1380 C1376 1.350 . S
C1380 C1377 1.463 . S
C1380 N1384 1.427 . S
C1381 H1371 0.929 . S
C1381 C1379 1.433 . S
C1381 N1384 1.384 . S
C1382 H1373 0.929 . S
C1382 C1374 1.378 . S
C1382 C1377 1.350 . S
C1383 H1370 0.929 . S
C1383 C1375 1.433 . S
C1383 N1385 1.384 . S
N1384 C1380 1.427 . S
N1384 C1381 1.384 . S
N1385 C1377 1.427 . S
N1385 C1383 1.384 . S
H1386 C1392 0.930 . S
H1387 C1396 0.930 . S
H1388 C1401 0.929 . S
H1389 C1399 0.929 . S
H1390 C1394 0.929 . S
H1391 C1400 0.929 . S
C1392 H1386 0.930 . S
C1392 C1393 1.367 . S
C1392 C1400 1.378 . S
C1393 C1392 1.367 . S
C1393 C1401 1.433 . S
C1394 H1390 0.929 . S
C1394 C1396 1.378 . S
C1394 C1398 1.350 . S
C1395 C1398 1.463 . S
C1395 C1400 1.350 . S
C1395 N1403 1.427 . S
C1396 H1387 0.930 . S
C1396 C1394 1.378 . S
C1396 C1397 1.367 . S
C1397 C1396 1.367 . S
C1397 C1399 1.433 . S
C1398 C1394 1.350 . S
C1398 C1395 1.463 . S
C1398 N1402 1.427 . S
C1399 H1389 0.929 . S
C1399 C1397 1.433 . S
C1399 N1402 1.384 . S
C1400 H1391 0.929 . S
C1400 C1392 1.378 . S
C1400 C1395 1.350 . S
C1401 H1388 0.929 . S
C1401 C1393 1.433 . S
C1401 N1403 1.384 . S
N1402 C1398 1.427 . S
N1402 C1399 1.384 . S
N1403 C1395 1.427 . S
N1403 C1401 1.384 . S
H1404 C1410 0.930 . S
H1405 C1414 0.930 . S
H1406 C1419 0.929 . S
H1407 C1417 0.929 . S
H1408 C1412 0.929 . S
H1409 C1418 0.929 . S
C1410 H1404 0.930 . S
C1410 C1411 1.367 . S
C1410 C1418 1.378 . S
C1411 C1410 1.367 . S
C1411 C1419 1.433 . S
C1412 H1408 0.929 . S
C1412 C1414 1.378 . S
C1412 C1416 1.350 . S
C1413 C1416 1.463 . S
C1413 C1418 1.350 . S
C1413 N1421 1.427 . S
C1414 H1405 0.930 . S
C1414 C1412 1.378 . S
C1414 C1415 1.367 . S
C1415 C1414 1.367 . S
C1415 C1417 1.433 . S
C1416 C1412 1.350 . S
C1416 C1413 1.463 . S
C1416 N1420 1.427 . S
C1417 H1407 0.929 . S
C1417 C1415 1.433 . S
C1417 N1420 1.384 . S
C1418 H1409 0.929 . S
C1418 C1410 1.378 . S
C1418 C1413 1.350 . S
C1419 H1406 0.929 . S
C1419 C1411 1.433 . S
C1419 N1421 1.384 . S
N1420 C1416 1.427 . S
N1420 C1417 1.384 . S
N1421 C1413 1.427 . S
N1421 C1419 1.384 . S
H1422 C1428 0.930 . S
H1423 C1432 0.930 . S
H1424 C1437 0.929 . S
H1425 C1435 0.929 . S
H1426 C1430 0.929 . S
H1427 C1436 0.929 . S
C1428 H1422 0.930 . S
C1428 C1429 1.367 . S
C1428 C1436 1.378 . S
C1429 C1428 1.367 . S
C1429 C1437 1.433 . S
C1430 H1426 0.929 . S
C1430 C1432 1.378 . S
C1430 C1434 1.350 . S
C1431 C1434 1.463 . S
C1431 C1436 1.350 . S
C1431 N1439 1.427 . S
C1432 H1423 0.930 . S
C1432 C1430 1.378 . S
C1432 C1433 1.367 . S
C1433 C1432 1.367 . S
C1433 C1435 1.433 . S
C1434 C1430 1.350 . S
C1434 C1431 1.463 . S
C1434 N1438 1.427 . S
C1435 H1425 0.929 . S
C1435 C1433 1.433 . S
C1435 N1438 1.384 . S
C1436 H1427 0.929 . S
C1436 C1428 1.378 . S
C1436 C1431 1.350 . S
C1437 H1424 0.929 . S
C1437 C1429 1.433 . S
C1437 N1439 1.384 . S
N1438 C1434 1.427 . S
N1438 C1435 1.384 . S
N1439 C1431 1.427 . S
N1439 C1437 1.384 . S
H1440 C1446 0.930 . S
H1441 C1450 0.930 . S
H1442 C1455 0.929 . S
H1443 C1453 0.929 . S
H1444 C1448 0.929 . S
H1445 C1454 0.929 . S
C1446 H1440 0.930 . S
C1446 C1447 1.367 . S
C1446 C1454 1.378 . S
C1447 C1446 1.367 . S
C1447 C1455 1.433 . S
C1448 H1444 0.929 . S
C1448 C1450 1.378 . S
C1448 C1452 1.350 . S
C1449 C1452 1.463 1_554 S
C1449 C1454 1.350 . S
C1449 N1457 1.427 . S
C1450 H1441 0.930 . S
C1450 C1448 1.378 . S
C1450 C1451 1.367 . S
C1451 C1450 1.367 . S
C1451 C1453 1.433 . S
C1452 C1448 1.350 . S
C1452 C1449 1.463 1_556 S
C1452 N1456 1.427 . S
C1453 H1443 0.929 . S
C1453 C1451 1.433 . S
C1453 N1456 1.384 . S
C1454 H1445 0.929 . S
C1454 C1446 1.378 . S
C1454 C1449 1.350 . S
C1455 H1442 0.929 . S
C1455 C1447 1.433 . S
C1455 N1457 1.384 . S
N1456 C1452 1.427 . S
N1456 C1453 1.384 . S
N1457 C1449 1.427 . S
N1457 C1455 1.384 . S
H1458 C1464 0.930 . S
H1459 C1468 0.930 . S
H1460 C1473 0.929 . S
H1461 C1471 0.929 . S
H1462 C1466 0.929 . S
H1463 C1472 0.929 . S
C1464 H1458 0.930 . S
C1464 C1465 1.367 . S
C1464 C1472 1.378 . S
C1465 C1464 1.367 . S
C1465 C1473 1.433 . S
C1466 H1462 0.929 . S
C1466 C1468 1.378 . S
C1466 C1470 1.350 . S
C1467 C1470 1.463 1_556 S
C1467 C1472 1.350 . S
C1467 N1475 1.427 . S
C1468 H1459 0.930 . S
C1468 C1466 1.378 . S
C1468 C1469 1.367 . S
C1469 C1468 1.367 . S
C1469 C1471 1.433 . S
C1470 C1466 1.350 . S
C1470 C1467 1.463 1_554 S
C1470 N1474 1.427 . S
C1471 H1461 0.929 . S
C1471 C1469 1.433 . S
C1471 N1474 1.384 . S
C1472 H1463 0.929 . S
C1472 C1464 1.378 . S
C1472 C1467 1.350 . S
C1473 H1460 0.929 . S
C1473 C1465 1.433 . S
C1473 N1475 1.384 . S
N1474 C1470 1.427 . S
N1474 C1471 1.384 . S
N1475 C1467 1.427 . S
N1475 C1473 1.384 . S
H1476 C1482 0.930 . S
H1477 C1486 0.930 . S
H1478 C1491 0.929 . S
H1479 C1489 0.929 . S
H1480 C1484 0.929 . S
H1481 C1490 0.929 . S
C1482 H1476 0.930 . S
C1482 C1483 1.367 . S
C1482 C1490 1.378 . S
C1483 C1482 1.367 . S
C1483 C1491 1.433 . S
C1484 H1480 0.929 . S
C1484 C1486 1.378 . S
C1484 C1488 1.350 . S
C1485 C1488 1.463 1_556 S
C1485 C1490 1.350 . S
C1485 N1493 1.427 . S
C1486 H1477 0.930 . S
C1486 C1484 1.378 . S
C1486 C1487 1.367 . S
C1487 C1486 1.367 . S
C1487 C1489 1.433 . S
C1488 C1484 1.350 . S
C1488 C1485 1.463 1_554 S
C1488 N1492 1.427 . S
C1489 H1479 0.929 . S
C1489 C1487 1.433 . S
C1489 N1492 1.384 . S
C1490 H1481 0.929 . S
C1490 C1482 1.378 . S
C1490 C1485 1.350 . S
C1491 H1478 0.929 . S
C1491 C1483 1.433 . S
C1491 N1493 1.384 . S
N1492 C1488 1.427 . S
N1492 C1489 1.384 . S
N1493 C1485 1.427 . S
N1493 C1491 1.384 . S
H1494 C1500 0.930 . S
H1495 C1504 0.930 . S
H1496 C1509 0.929 . S
H1497 C1507 0.929 . S
H1498 C1502 0.929 . S
H1499 C1508 0.929 . S
C1500 H1494 0.930 . S
C1500 C1501 1.367 . S
C1500 C1508 1.378 . S
C1501 C1500 1.367 . S
C1501 C1509 1.433 . S
C1502 H1498 0.929 . S
C1502 C1504 1.378 . S
C1502 C1506 1.350 . S
C1503 C1506 1.463 1_556 S
C1503 C1508 1.350 . S
C1503 N1511 1.427 . S
C1504 H1495 0.930 . S
C1504 C1502 1.378 . S
C1504 C1505 1.367 . S
C1505 C1504 1.367 . S
C1505 C1507 1.433 . S
C1506 C1502 1.350 . S
C1506 C1503 1.463 1_554 S
C1506 N1510 1.427 . S
C1507 H1497 0.929 . S
C1507 C1505 1.433 . S
C1507 N1510 1.384 . S
C1508 H1499 0.929 . S
C1508 C1500 1.378 . S
C1508 C1503 1.350 . S
C1509 H1496 0.929 . S
C1509 C1501 1.433 . S
C1509 N1511 1.384 . S
N1510 C1506 1.427 . S
N1510 C1507 1.384 . S
N1511 C1503 1.427 . S
N1511 C1509 1.384 . S
H1512 C1518 0.930 . S
H1513 C1522 0.930 . S
H1514 C1527 0.929 . S
H1515 C1525 0.929 . S
H1516 C1520 0.929 . S
H1517 C1526 0.929 . S
C1518 H1512 0.930 . S
C1518 C1519 1.367 . S
C1518 C1526 1.378 . S
C1519 C1518 1.367 . S
C1519 C1527 1.433 . S
C1520 H1516 0.929 . S
C1520 C1522 1.378 . S
C1520 C1524 1.350 . S
C1521 C1524 1.463 . S
C1521 C1526 1.350 . S
C1521 N1529 1.427 . S
C1522 H1513 0.930 . S
C1522 C1520 1.378 . S
C1522 C1523 1.367 . S
C1523 C1522 1.367 . S
C1523 C1525 1.433 . S
C1524 C1520 1.350 . S
C1524 C1521 1.463 . S
C1524 N1528 1.427 . S
C1525 H1515 0.929 . S
C1525 C1523 1.433 . S
C1525 N1528 1.384 . S
C1526 H1517 0.929 . S
C1526 C1518 1.378 . S
C1526 C1521 1.350 . S
C1527 H1514 0.929 . S
C1527 C1519 1.433 . S
C1527 N1529 1.384 . S
N1528 C1524 1.427 . S
N1528 C1525 1.384 . S
N1529 C1521 1.427 . S
N1529 C1527 1.384 . S
H1530 C1536 0.930 . S
H1531 C1540 0.930 . S
H1532 C1545 0.929 . S
H1533 C1543 0.929 . S
H1534 C1538 0.929 . S
H1535 C1544 0.929 . S
C1536 H1530 0.930 . S
C1536 C1537 1.367 . S
C1536 C1544 1.378 . S
C1537 C1536 1.367 . S
C1537 C1545 1.433 . S
C1538 H1534 0.929 . S
C1538 C1540 1.378 . S
C1538 C1542 1.350 . S
C1539 C1542 1.463 . S
C1539 C1544 1.350 . S
C1539 N1547 1.427 . S
C1540 H1531 0.930 . S
C1540 C1538 1.378 . S
C1540 C1541 1.367 . S
C1541 C1540 1.367 . S
C1541 C1543 1.433 . S
C1542 C1538 1.350 . S
C1542 C1539 1.463 . S
C1542 N1546 1.427 . S
C1543 H1533 0.929 . S
C1543 C1541 1.433 . S
C1543 N1546 1.384 . S
C1544 H1535 0.929 . S
C1544 C1536 1.378 . S
C1544 C1539 1.350 . S
C1545 H1532 0.929 . S
C1545 C1537 1.433 . S
C1545 N1547 1.384 . S
N1546 C1542 1.427 . S
N1546 C1543 1.384 . S
N1547 C1539 1.427 . S
N1547 C1545 1.384 . S
H1548 C1554 0.930 . S
H1549 C1558 0.930 . S
H1550 C1563 0.929 . S
H1551 C1561 0.929 . S
H1552 C1556 0.929 . S
H1553 C1562 0.929 . S
C1554 H1548 0.930 . S
C1554 C1555 1.367 . S
C1554 C1562 1.378 . S
C1555 C1554 1.367 . S
C1555 C1563 1.433 . S
C1556 H1552 0.929 . S
C1556 C1558 1.378 . S
C1556 C1560 1.350 . S
C1557 C1560 1.463 . S
C1557 C1562 1.350 . S
C1557 N1565 1.427 . S
C1558 H1549 0.930 . S
C1558 C1556 1.378 . S
C1558 C1559 1.367 . S
C1559 C1558 1.367 . S
C1559 C1561 1.433 . S
C1560 C1556 1.350 . S
C1560 C1557 1.463 . S
C1560 N1564 1.427 . S
C1561 H1551 0.929 . S
C1561 C1559 1.433 . S
C1561 N1564 1.384 . S
C1562 H1553 0.929 . S
C1562 C1554 1.378 . S
C1562 C1557 1.350 . S
C1563 H1550 0.929 . S
C1563 C1555 1.433 . S
C1563 N1565 1.384 . S
N1564 C1560 1.427 . S
N1564 C1561 1.384 . S
N1565 C1557 1.427 . S
N1565 C1563 1.384 . S
H1566 C1572 0.930 . S
H1567 C1576 0.930 . S
H1568 C1581 0.929 . S
H1569 C1579 0.929 . S
H1570 C1574 0.929 . S
H1571 C1580 0.929 . S
C1572 H1566 0.930 . S
C1572 C1573 1.367 . S
C1572 C1580 1.378 . S
C1573 C1572 1.367 . S
C1573 C1581 1.433 . S
C1574 H1570 0.929 . S
C1574 C1576 1.378 . S
C1574 C1578 1.350 . S
C1575 C1578 1.463 . S
C1575 C1580 1.350 . S
C1575 N1583 1.427 . S
C1576 H1567 0.930 . S
C1576 C1574 1.378 . S
C1576 C1577 1.367 . S
C1577 C1576 1.367 . S
C1577 C1579 1.433 . S
C1578 C1574 1.350 . S
C1578 C1575 1.463 . S
C1578 N1582 1.427 . S
C1579 H1569 0.929 . S
C1579 C1577 1.433 . S
C1579 N1582 1.384 . S
C1580 H1571 0.929 . S
C1580 C1572 1.378 . S
C1580 C1575 1.350 . S
C1581 H1568 0.929 . S
C1581 C1573 1.433 . S
C1581 N1583 1.384 . S
N1582 C1578 1.427 . S
N1582 C1579 1.384 . S
N1583 C1575 1.427 . S
N1583 C1581 1.384 . S
H1584 C1590 0.930 . S
H1585 C1594 0.930 . S
H1586 C1599 0.929 . S
H1587 C1597 0.929 . S
H1588 C1592 0.929 . S
H1589 C1598 0.929 . S
C1590 H1584 0.930 . S
C1590 C1591 1.367 . S
C1590 C1598 1.378 . S
C1591 C1590 1.367 . S
C1591 C1599 1.433 . S
C1592 H1588 0.929 . S
C1592 C1594 1.378 . S
C1592 C1596 1.350 . S
C1593 C1596 1.463 . S
C1593 C1598 1.350 . S
C1593 N1601 1.427 . S
C1594 H1585 0.930 . S
C1594 C1592 1.378 . S
C1594 C1595 1.367 . S
C1595 C1594 1.367 . S
C1595 C1597 1.433 . S
C1596 C1592 1.350 . S
C1596 C1593 1.463 . S
C1596 N1600 1.427 . S
C1597 H1587 0.929 . S
C1597 C1595 1.433 . S
C1597 N1600 1.384 . S
C1598 H1589 0.929 . S
C1598 C1590 1.378 . S
C1598 C1593 1.350 . S
C1599 H1586 0.929 . S
C1599 C1591 1.433 . S
C1599 N1601 1.384 . S
N1600 C1596 1.427 . S
N1600 C1597 1.384 . S
N1601 C1593 1.427 . S
N1601 C1599 1.384 . S
H1602 C1608 0.930 . S
H1603 C1612 0.930 . S
H1604 C1617 0.929 . S
H1605 C1615 0.929 . S
H1606 C1610 0.929 . S
H1607 C1616 0.929 . S
C1608 H1602 0.930 . S
C1608 C1609 1.367 . S
C1608 C1616 1.378 . S
C1609 C1608 1.367 . S
C1609 C1617 1.433 . S
C1610 H1606 0.929 . S
C1610 C1612 1.378 . S
C1610 C1614 1.350 . S
C1611 C1614 1.463 . S
C1611 C1616 1.350 . S
C1611 N1619 1.427 . S
C1612 H1603 0.930 . S
C1612 C1610 1.378 . S
C1612 C1613 1.367 . S
C1613 C1612 1.367 . S
C1613 C1615 1.433 . S
C1614 C1610 1.350 . S
C1614 C1611 1.463 . S
C1614 N1618 1.427 . S
C1615 H1605 0.929 . S
C1615 C1613 1.433 . S
C1615 N1618 1.384 . S
C1616 H1607 0.929 . S
C1616 C1608 1.378 . S
C1616 C1611 1.350 . S
C1617 H1604 0.929 . S
C1617 C1609 1.433 . S
C1617 N1619 1.384 . S
N1618 C1614 1.427 . S
N1618 C1615 1.384 . S
N1619 C1611 1.427 . S
N1619 C1617 1.384 . S
H1620 C1626 0.930 . S
H1621 C1630 0.930 . S
H1622 C1635 0.929 . S
H1623 C1633 0.929 . S
H1624 C1628 0.929 . S
H1625 C1634 0.929 . S
C1626 H1620 0.930 . S
C1626 C1627 1.367 . S
C1626 C1634 1.378 . S
C1627 C1626 1.367 . S
C1627 C1635 1.433 . S
C1628 H1624 0.929 . S
C1628 C1630 1.378 . S
C1628 C1632 1.350 . S
C1629 C1632 1.463 . S
C1629 C1634 1.350 . S
C1629 N1637 1.427 . S
C1630 H1621 0.930 . S
C1630 C1628 1.378 . S
C1630 C1631 1.367 . S
C1631 C1630 1.367 . S
C1631 C1633 1.433 . S
C1632 C1628 1.350 . S
C1632 C1629 1.463 . S
C1632 N1636 1.427 . S
C1633 H1623 0.929 . S
C1633 C1631 1.433 . S
C1633 N1636 1.384 . S
C1634 H1625 0.929 . S
C1634 C1626 1.378 . S
C1634 C1629 1.350 . S
C1635 H1622 0.929 . S
C1635 C1627 1.433 . S
C1635 N1637 1.384 . S
N1636 C1632 1.427 . S
N1636 C1633 1.384 . S
N1637 C1629 1.427 . S
N1637 C1635 1.384 . S
H1638 C1644 0.930 . S
H1639 C1648 0.930 . S
H1640 C1653 0.929 . S
H1641 C1651 0.929 . S
H1642 C1646 0.929 . S
H1643 C1652 0.929 . S
C1644 H1638 0.930 . S
C1644 C1645 1.367 . S
C1644 C1652 1.378 . S
C1645 C1644 1.367 . S
C1645 C1653 1.433 . S
C1646 H1642 0.929 . S
C1646 C1648 1.378 . S
C1646 C1650 1.350 . S
C1647 C1650 1.463 . S
C1647 C1652 1.350 . S
C1647 N1655 1.427 . S
C1648 H1639 0.930 . S
C1648 C1646 1.378 . S
C1648 C1649 1.367 . S
C1649 C1648 1.367 . S
C1649 C1651 1.433 . S
C1650 C1646 1.350 . S
C1650 C1647 1.463 . S
C1650 N1654 1.427 . S
C1651 H1641 0.929 . S
C1651 C1649 1.433 . S
C1651 N1654 1.384 . S
C1652 H1643 0.929 . S
C1652 C1644 1.378 . S
C1652 C1647 1.350 . S
C1653 H1640 0.929 . S
C1653 C1645 1.433 . S
C1653 N1655 1.384 . S
N1654 C1650 1.427 . S
N1654 C1651 1.384 . S
N1655 C1647 1.427 . S
N1655 C1653 1.384 . S
H1656 C1662 0.930 . S
H1657 C1666 0.930 . S
H1658 C1671 0.929 . S
H1659 C1669 0.929 . S
H1660 C1664 0.929 . S
H1661 C1670 0.929 . S
C1662 H1656 0.930 . S
C1662 C1663 1.367 . S
C1662 C1670 1.378 . S
C1663 C1662 1.367 . S
C1663 C1671 1.433 . S
C1664 H1660 0.929 . S
C1664 C1666 1.378 . S
C1664 C1668 1.350 . S
C1665 C1668 1.463 1_556 S
C1665 C1670 1.350 . S
C1665 N1673 1.427 . S
C1666 H1657 0.930 . S
C1666 C1664 1.378 . S
C1666 C1667 1.367 . S
C1667 C1666 1.367 . S
C1667 C1669 1.433 . S
C1668 C1664 1.350 . S
C1668 C1665 1.463 1_554 S
C1668 N1672 1.427 . S
C1669 H1659 0.929 . S
C1669 C1667 1.433 . S
C1669 N1672 1.384 . S
C1670 H1661 0.929 . S
C1670 C1662 1.378 . S
C1670 C1665 1.350 . S
C1671 H1658 0.929 . S
C1671 C1663 1.433 . S
C1671 N1673 1.384 . S
N1672 C1668 1.427 . S
N1672 C1669 1.384 . S
N1673 C1665 1.427 . S
N1673 C1671 1.384 . S
H1674 C1680 0.930 . S
H1675 C1684 0.930 . S
H1676 C1689 0.929 . S
H1677 C1687 0.929 . S
H1678 C1682 0.929 . S
H1679 C1688 0.929 . S
C1680 H1674 0.930 . S
C1680 C1681 1.367 . S
C1680 C1688 1.378 . S
C1681 C1680 1.367 . S
C1681 C1689 1.433 . S
C1682 H1678 0.929 . S
C1682 C1684 1.378 . S
C1682 C1686 1.350 . S
C1683 C1686 1.463 1_554 S
C1683 C1688 1.350 . S
C1683 N1691 1.427 . S
C1684 H1675 0.930 . S
C1684 C1682 1.378 . S
C1684 C1685 1.367 . S
C1685 C1684 1.367 . S
C1685 C1687 1.433 . S
C1686 C1682 1.350 . S
C1686 C1683 1.463 1_556 S
C1686 N1690 1.427 . S
C1687 H1677 0.929 . S
C1687 C1685 1.433 . S
C1687 N1690 1.384 . S
C1688 H1679 0.929 . S
C1688 C1680 1.378 . S
C1688 C1683 1.350 . S
C1689 H1676 0.929 . S
C1689 C1681 1.433 . S
C1689 N1691 1.384 . S
N1690 C1686 1.427 . S
N1690 C1687 1.384 . S
N1691 C1683 1.427 . S
N1691 C1689 1.384 . S
H1692 C1698 0.930 . S
H1693 C1702 0.930 . S
H1694 C1707 0.929 . S
H1695 C1705 0.929 . S
H1696 C1700 0.929 . S
H1697 C1706 0.929 . S
C1698 H1692 0.930 . S
C1698 C1699 1.367 . S
C1698 C1706 1.378 . S
C1699 C1698 1.367 . S
C1699 C1707 1.433 . S
C1700 H1696 0.929 . S
C1700 C1702 1.378 . S
C1700 C1704 1.350 . S
C1701 C1704 1.463 1_554 S
C1701 C1706 1.350 . S
C1701 N1709 1.427 . S
C1702 H1693 0.930 . S
C1702 C1700 1.378 . S
C1702 C1703 1.367 . S
C1703 C1702 1.367 . S
C1703 C1705 1.433 . S
C1704 C1700 1.350 . S
C1704 C1701 1.463 1_556 S
C1704 N1708 1.427 . S
C1705 H1695 0.929 . S
C1705 C1703 1.433 . S
C1705 N1708 1.384 . S
C1706 H1697 0.929 . S
C1706 C1698 1.378 . S
C1706 C1701 1.350 . S
C1707 H1694 0.929 . S
C1707 C1699 1.433 . S
C1707 N1709 1.384 . S
N1708 C1704 1.427 . S
N1708 C1705 1.384 . S
N1709 C1701 1.427 . S
N1709 C1707 1.384 . S
H1710 C1716 0.930 . S
H1711 C1720 0.930 . S
H1712 C1725 0.929 . S
H1713 C1723 0.929 . S
H1714 C1718 0.929 . S
H1715 C1724 0.929 . S
C1716 H1710 0.930 . S
C1716 C1717 1.367 . S
C1716 C1724 1.378 . S
C1717 C1716 1.367 . S
C1717 C1725 1.433 . S
C1718 H1714 0.929 . S
C1718 C1720 1.378 . S
C1718 C1722 1.350 . S
C1719 C1722 1.463 1_556 S
C1719 C1724 1.350 . S
C1719 N1727 1.427 . S
C1720 H1711 0.930 . S
C1720 C1718 1.378 . S
C1720 C1721 1.367 . S
C1721 C1720 1.367 . S
C1721 C1723 1.433 . S
C1722 C1718 1.350 . S
C1722 C1719 1.463 1_554 S
C1722 N1726 1.427 . S
C1723 H1713 0.929 . S
C1723 C1721 1.433 . S
C1723 N1726 1.384 . S
C1724 H1715 0.929 . S
C1724 C1716 1.378 . S
C1724 C1719 1.350 . S
C1725 H1712 0.929 . S
C1725 C1717 1.433 . S
C1725 N1727 1.384 . S
N1726 C1722 1.427 . S
N1726 C1723 1.384 . S
N1727 C1719 1.427 . S
N1727 C1725 1.384 . S
H1728 C1734 0.930 . S
H1729 C1738 0.930 . S
H1730 C1743 0.929 . S
H1731 C1741 0.929 . S
H1732 C1736 0.927 1_545 S
H1733 C1742 0.927 1_565 S
C1734 H1728 0.930 . S
C1734 C1735 1.367 . S
C1734 C1742 1.378 . S
C1735 C1734 1.367 . S
C1735 C1743 1.433 . S
C1736 H1732 0.927 1_565 S
C1736 C1738 1.378 . S
C1736 C1740 1.350 . S
C1737 C1740 1.463 1_545 S
C1737 C1742 1.350 . S
C1737 N1745 1.427 . S
C1738 H1729 0.930 . S
C1738 C1736 1.378 . S
C1738 C1739 1.367 . S
C1739 C1738 1.367 . S
C1739 C1741 1.433 . S
C1740 C1736 1.350 . S
C1740 C1737 1.463 1_565 S
C1740 N1744 1.427 . S
C1741 H1731 0.929 . S
C1741 C1739 1.433 . S
C1741 N1744 1.384 . S
C1742 H1733 0.927 1_545 S
C1742 C1734 1.378 . S
C1742 C1737 1.350 . S
C1743 H1730 0.929 . S
C1743 C1735 1.433 . S
C1743 N1745 1.384 . S
N1744 C1740 1.427 . S
N1744 C1741 1.384 . S
N1745 C1737 1.427 . S
N1745 C1743 1.384 . S
H1746 C1752 0.930 . S
H1747 C1756 0.930 . S
H1748 C1761 0.929 . S
H1749 C1759 0.929 . S
H1750 C1754 0.929 . S
H1751 C1760 0.929 . S
C1752 H1746 0.930 . S
C1752 C1753 1.367 . S
C1752 C1760 1.378 . S
C1753 C1752 1.367 . S
C1753 C1761 1.433 . S
C1754 H1750 0.929 . S
C1754 C1756 1.378 . S
C1754 C1758 1.350 . S
C1755 C1758 1.463 1_655 S
C1755 C1760 1.350 . S
C1755 N1763 1.427 . S
C1756 H1747 0.930 . S
C1756 C1754 1.378 . S
C1756 C1757 1.367 . S
C1757 C1756 1.367 . S
C1757 C1759 1.433 . S
C1758 C1754 1.350 . S
C1758 C1755 1.463 1_455 S
C1758 N1762 1.427 . S
C1759 H1749 0.929 . S
C1759 C1757 1.433 . S
C1759 N1762 1.384 . S
C1760 H1751 0.929 . S
C1760 C1752 1.378 . S
C1760 C1755 1.350 . S
C1761 H1748 0.929 . S
C1761 C1753 1.433 . S
C1761 N1763 1.384 . S
N1762 C1758 1.427 . S
N1762 C1759 1.384 . S
N1763 C1755 1.427 . S
N1763 C1761 1.384 . S
H1764 C1770 0.930 . S
H1765 C1774 0.930 . S
H1766 C1779 0.929 . S
H1767 C1777 0.929 . S
H1768 C1772 0.929 . S
H1769 C1778 0.929 . S
C1770 H1764 0.930 . S
C1770 C1771 1.367 . S
C1770 C1778 1.378 . S
C1771 C1770 1.367 . S
C1771 C1779 1.433 . S
C1772 H1768 0.929 . S
C1772 C1774 1.378 . S
C1772 C1776 1.350 . S
C1773 C1776 1.463 1_545 S
C1773 C1778 1.350 . S
C1773 N1781 1.427 . S
C1774 H1765 0.930 . S
C1774 C1772 1.378 . S
C1774 C1775 1.367 . S
C1775 C1774 1.367 . S
C1775 C1777 1.433 . S
C1776 C1772 1.350 . S
C1776 C1773 1.463 1_565 S
C1776 N1780 1.427 . S
C1777 H1767 0.929 . S
C1777 C1775 1.433 . S
C1777 N1780 1.384 . S
C1778 H1769 0.929 . S
C1778 C1770 1.378 . S
C1778 C1773 1.350 . S
C1779 H1766 0.929 . S
C1779 C1771 1.433 . S
C1779 N1781 1.384 . S
N1780 C1776 1.427 . S
N1780 C1777 1.384 . S
N1781 C1773 1.427 . S
N1781 C1779 1.384 . S
H1782 C1788 0.930 . S
H1783 C1792 0.930 . S
H1784 C1797 0.929 . S
H1785 C1795 0.929 . S
H1786 C1790 0.929 . S
H1787 C1796 0.929 . S
C1788 H1782 0.930 . S
C1788 C1789 1.367 . S
C1788 C1796 1.378 . S
C1789 C1788 1.367 . S
C1789 C1797 1.433 . S
C1790 H1786 0.929 . S
C1790 C1792 1.378 . S
C1790 C1794 1.350 . S
C1791 C1794 1.463 1_455 S
C1791 C1796 1.350 . S
C1791 N1799 1.427 . S
C1792 H1783 0.930 . S
C1792 C1790 1.378 . S
C1792 C1793 1.367 . S
C1793 C1792 1.367 . S
C1793 C1795 1.433 . S
C1794 C1790 1.350 . S
C1794 C1791 1.463 1_655 S
C1794 N1798 1.427 . S
C1795 H1785 0.929 . S
C1795 C1793 1.433 . S
C1795 N1798 1.384 . S
C1796 H1787 0.929 . S
C1796 C1788 1.378 . S
C1796 C1791 1.350 . S
C1797 H1784 0.929 . S
C1797 C1789 1.433 . S
C1797 N1799 1.384 . S
N1798 C1794 1.427 . S
N1798 C1795 1.384 . S
N1799 C1791 1.427 . S
N1799 C1797 1.384 . S
H1800 C1806 0.930 . S
H1801 C1810 0.930 . S
H1802 C1815 0.929 . S
H1803 C1813 0.929 . S
H1804 C1808 0.929 . S
H1805 C1814 0.929 . S
C1806 H1800 0.930 . S
C1806 C1807 1.367 . S
C1806 C1814 1.378 . S
C1807 C1806 1.367 . S
C1807 C1815 1.433 . S
C1808 H1804 0.929 . S
C1808 C1810 1.378 . S
C1808 C1812 1.350 . S
C1809 C1812 1.463 1_565 S
C1809 C1814 1.350 . S
C1809 N1817 1.427 . S
C1810 H1801 0.930 . S
C1810 C1808 1.378 . S
C1810 C1811 1.367 . S
C1811 C1810 1.367 . S
C1811 C1813 1.433 . S
C1812 C1808 1.350 . S
C1812 C1809 1.463 1_545 S
C1812 N1816 1.427 . S
C1813 H1803 0.929 . S
C1813 C1811 1.433 . S
C1813 N1816 1.384 . S
C1814 H1805 0.929 . S
C1814 C1806 1.378 . S
C1814 C1809 1.350 . S
C1815 H1802 0.929 . S
C1815 C1807 1.433 . S
C1815 N1817 1.384 . S
N1816 C1812 1.427 . S
N1816 C1813 1.384 . S
N1817 C1809 1.427 . S
N1817 C1815 1.384 . S
H1818 C1824 0.930 . S
H1819 C1828 0.930 . S
H1820 C1833 0.929 . S
H1821 C1831 0.929 . S
H1822 C1826 0.929 . S
H1823 C1832 0.929 . S
C1824 H1818 0.930 . S
C1824 C1825 1.367 . S
C1824 C1832 1.378 . S
C1825 C1824 1.367 . S
C1825 C1833 1.433 . S
C1826 H1822 0.929 . S
C1826 C1828 1.378 . S
C1826 C1830 1.350 . S
C1827 C1830 1.463 1_655 S
C1827 C1832 1.350 . S
C1827 N1835 1.427 . S
C1828 H1819 0.930 . S
C1828 C1826 1.378 . S
C1828 C1829 1.367 . S
C1829 C1828 1.367 . S
C1829 C1831 1.433 . S
C1830 C1826 1.350 . S
C1830 C1827 1.463 1_455 S
C1830 N1834 1.427 . S
C1831 H1821 0.929 . S
C1831 C1829 1.433 . S
C1831 N1834 1.384 . S
C1832 H1823 0.929 . S
C1832 C1824 1.378 . S
C1832 C1827 1.350 . S
C1833 H1820 0.929 . S
C1833 C1825 1.433 . S
C1833 N1835 1.384 . S
N1834 C1830 1.427 . S
N1834 C1831 1.384 . S
N1835 C1827 1.427 . S
N1835 C1833 1.384 . S
H1836 C1842 0.930 . S
H1837 C1846 0.930 . S
H1838 C1851 0.929 . S
H1839 C1849 0.929 . S
H1840 C1844 0.929 . S
H1841 C1850 0.929 . S
C1842 H1836 0.930 . S
C1842 C1843 1.367 . S
C1842 C1850 1.378 . S
C1843 C1842 1.367 . S
C1843 C1851 1.433 . S
C1844 H1840 0.929 . S
C1844 C1846 1.378 . S
C1844 C1848 1.350 . S
C1845 C1848 1.463 1_565 S
C1845 C1850 1.350 . S
C1845 N1853 1.427 . S
C1846 H1837 0.930 . S
C1846 C1844 1.378 . S
C1846 C1847 1.367 . S
C1847 C1846 1.367 . S
C1847 C1849 1.433 . S
C1848 C1844 1.350 . S
C1848 C1845 1.463 1_545 S
C1848 N1852 1.427 . S
C1849 H1839 0.929 . S
C1849 C1847 1.433 . S
C1849 N1852 1.384 . S
C1850 H1841 0.929 . S
C1850 C1842 1.378 . S
C1850 C1845 1.350 . S
C1851 H1838 0.929 . S
C1851 C1843 1.433 . S
C1851 N1853 1.384 . S
N1852 C1848 1.427 . S
N1852 C1849 1.384 . S
N1853 C1845 1.427 . S
N1853 C1851 1.384 . S
H1854 C1860 0.930 . S
H1855 C1864 0.930 . S
H1856 C1869 0.929 . S
H1857 C1867 0.929 . S
H1858 C1862 0.929 1_655 S
H1859 C1868 0.929 1_455 S
C1860 H1854 0.930 . S
C1860 C1861 1.367 . S
C1860 C1868 1.378 . S
C1861 C1860 1.367 . S
C1861 C1869 1.433 . S
C1862 H1858 0.929 1_455 S
C1862 C1864 1.378 . S
C1862 C1866 1.350 . S
C1863 C1866 1.463 1_655 S
C1863 C1868 1.350 . S
C1863 N1871 1.427 . S
C1864 H1855 0.930 . S
C1864 C1862 1.378 . S
C1864 C1865 1.367 . S
C1865 C1864 1.367 . S
C1865 C1867 1.433 . S
C1866 C1862 1.350 . S
C1866 C1863 1.463 1_455 S
C1866 N1870 1.427 . S
C1867 H1857 0.929 . S
C1867 C1865 1.433 . S
C1867 N1870 1.384 . S
C1868 H1859 0.929 1_655 S
C1868 C1860 1.378 . S
C1868 C1863 1.350 . S
C1869 H1856 0.929 . S
C1869 C1861 1.433 . S
C1869 N1871 1.384 . S
N1870 C1866 1.427 . S
N1870 C1867 1.384 . S
N1871 C1863 1.427 . S
N1871 C1869 1.384 . S
H1872 C1878 0.930 . S
H1873 C1882 0.930 . S
H1874 C1887 0.929 . S
H1875 C1885 0.929 . S
H1876 C1880 0.929 . S
H1877 C1886 0.929 . S
C1878 H1872 0.930 . S
C1878 C1879 1.367 . S
C1878 C1886 1.378 . S
C1879 C1878 1.367 . S
C1879 C1887 1.433 . S
C1880 H1876 0.929 . S
C1880 C1882 1.378 . S
C1880 C1884 1.350 . S
C1881 C1884 1.463 . S
C1881 C1886 1.350 . S
C1881 N1889 1.427 . S
C1882 H1873 0.930 . S
C1882 C1880 1.378 . S
C1882 C1883 1.367 . S
C1883 C1882 1.367 . S
C1883 C1885 1.433 . S
C1884 C1880 1.350 . S
C1884 C1881 1.463 . S
C1884 N1888 1.427 . S
C1885 H1875 0.929 . S
C1885 C1883 1.433 . S
C1885 N1888 1.384 . S
C1886 H1877 0.929 . S
C1886 C1878 1.378 . S
C1886 C1881 1.350 . S
C1887 H1874 0.929 . S
C1887 C1879 1.433 . S
C1887 N1889 1.384 . S
N1888 C1884 1.427 . S
N1888 C1885 1.384 . S
N1889 C1881 1.427 . S
N1889 C1887 1.384 . S
H1890 C1896 0.930 . S
H1891 C1900 0.930 . S
H1892 C1905 0.929 . S
H1893 C1903 0.929 . S
H1894 C1898 0.929 . S
H1895 C1904 0.929 . S
C1896 H1890 0.930 . S
C1896 C1897 1.367 . S
C1896 C1904 1.378 . S
C1897 C1896 1.367 . S
C1897 C1905 1.433 . S
C1898 H1894 0.929 . S
C1898 C1900 1.378 . S
C1898 C1902 1.350 . S
C1899 C1902 1.463 . S
C1899 C1904 1.350 . S
C1899 N1907 1.427 . S
C1900 H1891 0.930 . S
C1900 C1898 1.378 . S
C1900 C1901 1.367 . S
C1901 C1900 1.367 . S
C1901 C1903 1.433 . S
C1902 C1898 1.350 . S
C1902 C1899 1.463 . S
C1902 N1906 1.427 . S
C1903 H1893 0.929 . S
C1903 C1901 1.433 . S
C1903 N1906 1.384 . S
C1904 H1895 0.929 . S
C1904 C1896 1.378 . S
C1904 C1899 1.350 . S
C1905 H1892 0.929 . S
C1905 C1897 1.433 . S
C1905 N1907 1.384 . S
N1906 C1902 1.427 . S
N1906 C1903 1.384 . S
N1907 C1899 1.427 . S
N1907 C1905 1.384 . S
H1908 C1914 0.930 . S
H1909 C1918 0.930 . S
H1910 C1923 0.929 . S
H1911 C1921 0.929 . S
H1912 C1916 0.929 . S
H1913 C1922 0.929 . S
C1914 H1908 0.930 . S
C1914 C1915 1.367 . S
C1914 C1922 1.378 . S
C1915 C1914 1.367 . S
C1915 C1923 1.433 . S
C1916 H1912 0.929 . S
C1916 C1918 1.378 . S
C1916 C1920 1.350 . S
C1917 C1920 1.463 . S
C1917 C1922 1.350 . S
C1917 N1925 1.427 . S
C1918 H1909 0.930 . S
C1918 C1916 1.378 . S
C1918 C1919 1.367 . S
C1919 C1918 1.367 . S
C1919 C1921 1.433 . S
C1920 C1916 1.350 . S
C1920 C1917 1.463 . S
C1920 N1924 1.427 . S
C1921 H1911 0.929 . S
C1921 C1919 1.433 . S
C1921 N1924 1.384 . S
C1922 H1913 0.929 . S
C1922 C1914 1.378 . S
C1922 C1917 1.350 . S
C1923 H1910 0.929 . S
C1923 C1915 1.433 . S
C1923 N1925 1.384 . S
N1924 C1920 1.427 . S
N1924 C1921 1.384 . S
N1925 C1917 1.427 . S
N1925 C1923 1.384 . S
H1926 C1932 0.930 . S
H1927 C1936 0.930 . S
H1928 C1941 0.929 . S
H1929 C1939 0.929 . S
H1930 C1934 0.929 . S
H1931 C1940 0.929 . S
C1932 H1926 0.930 . S
C1932 C1933 1.367 . S
C1932 C1940 1.378 . S
C1933 C1932 1.367 . S
C1933 C1941 1.433 . S
C1934 H1930 0.929 . S
C1934 C1936 1.378 . S
C1934 C1938 1.350 . S
C1935 C1938 1.463 . S
C1935 C1940 1.350 . S
C1935 N1943 1.427 . S
C1936 H1927 0.930 . S
C1936 C1934 1.378 . S
C1936 C1937 1.367 . S
C1937 C1936 1.367 . S
C1937 C1939 1.433 . S
C1938 C1934 1.350 . S
C1938 C1935 1.463 . S
C1938 N1942 1.427 . S
C1939 H1929 0.929 . S
C1939 C1937 1.433 . S
C1939 N1942 1.384 . S
C1940 H1931 0.929 . S
C1940 C1932 1.378 . S
C1940 C1935 1.350 . S
C1941 H1928 0.929 . S
C1941 C1933 1.433 . S
C1941 N1943 1.384 . S
N1942 C1938 1.427 . S
N1942 C1939 1.384 . S
N1943 C1935 1.427 . S
N1943 C1941 1.384 . S
H1944 C1950 0.930 . S
H1945 C1954 0.930 . S
H1946 C1959 0.929 . S
H1947 C1957 0.929 . S
H1948 C1952 0.929 . S
H1949 C1958 0.929 . S
C1950 H1944 0.930 . S
C1950 C1951 1.367 . S
C1950 C1958 1.378 . S
C1951 C1950 1.367 . S
C1951 C1959 1.433 . S
C1952 H1948 0.929 . S
C1952 C1954 1.378 . S
C1952 C1956 1.350 . S
C1953 C1956 1.463 . S
C1953 C1958 1.350 . S
C1953 N1961 1.427 . S
C1954 H1945 0.930 . S
C1954 C1952 1.378 . S
C1954 C1955 1.367 . S
C1955 C1954 1.367 . S
C1955 C1957 1.433 . S
C1956 C1952 1.350 . S
C1956 C1953 1.463 . S
C1956 N1960 1.427 . S
C1957 H1947 0.929 . S
C1957 C1955 1.433 . S
C1957 N1960 1.384 . S
C1958 H1949 0.929 . S
C1958 C1950 1.378 . S
C1958 C1953 1.350 . S
C1959 H1946 0.929 . S
C1959 C1951 1.433 . S
C1959 N1961 1.384 . S
N1960 C1956 1.427 . S
N1960 C1957 1.384 . S
N1961 C1953 1.427 . S
N1961 C1959 1.384 . S
H1962 C1968 0.930 . S
H1963 C1972 0.930 . S
H1964 C1977 0.929 . S
H1965 C1975 0.929 . S
H1966 C1970 0.929 . S
H1967 C1976 0.929 . S
C1968 H1962 0.930 . S
C1968 C1969 1.367 . S
C1968 C1976 1.378 . S
C1969 C1968 1.367 . S
C1969 C1977 1.433 . S
C1970 H1966 0.929 . S
C1970 C1972 1.378 . S
C1970 C1974 1.350 . S
C1971 C1974 1.463 . S
C1971 C1976 1.350 . S
C1971 N1979 1.427 . S
C1972 H1963 0.930 . S
C1972 C1970 1.378 . S
C1972 C1973 1.367 . S
C1973 C1972 1.367 . S
C1973 C1975 1.433 . S
C1974 C1970 1.350 . S
C1974 C1971 1.463 . S
C1974 N1978 1.427 . S
C1975 H1965 0.929 . S
C1975 C1973 1.433 . S
C1975 N1978 1.384 . S
C1976 H1967 0.929 . S
C1976 C1968 1.378 . S
C1976 C1971 1.350 . S
C1977 H1964 0.929 . S
C1977 C1969 1.433 . S
C1977 N1979 1.384 . S
N1978 C1974 1.427 . S
N1978 C1975 1.384 . S
N1979 C1971 1.427 . S
N1979 C1977 1.384 . S
H1980 C1986 0.930 . S
H1981 C1990 0.930 . S
H1982 C1995 0.929 . S
H1983 C1993 0.929 . S
H1984 C1988 0.929 . S
H1985 C1994 0.929 . S
C1986 H1980 0.930 . S
C1986 C1987 1.367 . S
C1986 C1994 1.378 . S
C1987 C1986 1.367 . S
C1987 C1995 1.433 . S
C1988 H1984 0.929 . S
C1988 C1990 1.378 . S
C1988 C1992 1.350 . S
C1989 C1992 1.463 . S
C1989 C1994 1.350 . S
C1989 N1997 1.427 . S
C1990 H1981 0.930 . S
C1990 C1988 1.378 . S
C1990 C1991 1.367 . S
C1991 C1990 1.367 . S
C1991 C1993 1.433 . S
C1992 C1988 1.350 . S
C1992 C1989 1.463 . S
C1992 N1996 1.427 . S
C1993 H1983 0.929 . S
C1993 C1991 1.433 . S
C1993 N1996 1.384 . S
C1994 H1985 0.929 . S
C1994 C1986 1.378 . S
C1994 C1989 1.350 . S
C1995 H1982 0.929 . S
C1995 C1987 1.433 . S
C1995 N1997 1.384 . S
N1996 C1992 1.427 . S
N1996 C1993 1.384 . S
N1997 C1989 1.427 . S
N1997 C1995 1.384 . S
H1998 C2004 0.930 . S
H1999 C2008 0.930 . S
H2000 C2013 0.929 . S
H2001 C2011 0.929 . S
H2002 C2006 0.929 . S
H2003 C2012 0.929 . S
C2004 H1998 0.930 . S
C2004 C2005 1.367 . S
C2004 C2012 1.378 . S
C2005 C2004 1.367 . S
C2005 C2013 1.433 . S
C2006 H2002 0.929 . S
C2006 C2008 1.378 . S
C2006 C2010 1.350 . S
C2007 C2010 1.463 . S
C2007 C2012 1.350 . S
C2007 N2015 1.427 . S
C2008 H1999 0.930 . S
C2008 C2006 1.378 . S
C2008 C2009 1.367 . S
C2009 C2008 1.367 . S
C2009 C2011 1.433 . S
C2010 C2006 1.350 . S
C2010 C2007 1.463 . S
C2010 N2014 1.427 . S
C2011 H2001 0.929 . S
C2011 C2009 1.433 . S
C2011 N2014 1.384 . S
C2012 H2003 0.929 . S
C2012 C2004 1.378 . S
C2012 C2007 1.350 . S
C2013 H2000 0.929 . S
C2013 C2005 1.433 . S
C2013 N2015 1.384 . S
N2014 C2010 1.427 . S
N2014 C2011 1.384 . S
N2015 C2007 1.427 . S
N2015 C2013 1.384 . S
H2016 C2022 0.930 . S
H2017 C2026 0.930 . S
H2018 C2031 0.929 . S
H2019 C2029 0.929 . S
H2020 C2024 0.929 . S
H2021 C2030 0.929 . S
C2022 H2016 0.930 . S
C2022 C2023 1.367 . S
C2022 C2030 1.378 . S
C2023 C2022 1.367 . S
C2023 C2031 1.433 . S
C2024 H2020 0.929 . S
C2024 C2026 1.378 . S
C2024 C2028 1.350 . S
C2025 C2028 1.463 . S
C2025 C2030 1.350 . S
C2025 N2033 1.427 . S
C2026 H2017 0.930 . S
C2026 C2024 1.378 . S
C2026 C2027 1.367 . S
C2027 C2026 1.367 . S
C2027 C2029 1.433 . S
C2028 C2024 1.350 . S
C2028 C2025 1.463 . S
C2028 N2032 1.427 . S
C2029 H2019 0.929 . S
C2029 C2027 1.433 . S
C2029 N2032 1.384 . S
C2030 H2021 0.929 . S
C2030 C2022 1.378 . S
C2030 C2025 1.350 . S
C2031 H2018 0.929 . S
C2031 C2023 1.433 . S
C2031 N2033 1.384 . S
N2032 C2028 1.427 . S
N2032 C2029 1.384 . S
N2033 C2025 1.427 . S
N2033 C2031 1.384 . S
H2034 C2040 0.930 . S
H2035 C2044 0.930 . S
H2036 C2049 0.929 . S
H2037 C2047 0.929 . S
H2038 C2042 0.929 . S
H2039 C2048 0.929 . S
C2040 H2034 0.930 . S
C2040 C2041 1.367 . S
C2040 C2048 1.378 . S
C2041 C2040 1.367 . S
C2041 C2049 1.433 . S
C2042 H2038 0.929 . S
C2042 C2044 1.378 . S
C2042 C2046 1.350 . S
C2043 C2046 1.463 . S
C2043 C2048 1.350 . S
C2043 N2051 1.427 . S
C2044 H2035 0.930 . S
C2044 C2042 1.378 . S
C2044 C2045 1.367 . S
C2045 C2044 1.367 . S
C2045 C2047 1.433 . S
C2046 C2042 1.350 . S
C2046 C2043 1.463 . S
C2046 N2050 1.427 . S
C2047 H2037 0.929 . S
C2047 C2045 1.433 . S
C2047 N2050 1.384 . S
C2048 H2039 0.929 . S
C2048 C2040 1.378 . S
C2048 C2043 1.350 . S
C2049 H2036 0.929 . S
C2049 C2041 1.433 . S
C2049 N2051 1.384 . S
N2050 C2046 1.427 . S
N2050 C2047 1.384 . S
N2051 C2043 1.427 . S
N2051 C2049 1.384 . S
H2052 C2058 0.930 . S
H2053 C2062 0.930 . S
H2054 C2067 0.929 . S
H2055 C2065 0.929 . S
H2056 C2060 0.929 . S
H2057 C2066 0.929 . S
C2058 H2052 0.930 . S
C2058 C2059 1.367 . S
C2058 C2066 1.378 . S
C2059 C2058 1.367 . S
C2059 C2067 1.433 . S
C2060 H2056 0.929 . S
C2060 C2062 1.378 . S
C2060 C2064 1.350 . S
C2061 C2064 1.463 . S
C2061 C2066 1.350 . S
C2061 N2069 1.427 . S
C2062 H2053 0.930 . S
C2062 C2060 1.378 . S
C2062 C2063 1.367 . S
C2063 C2062 1.367 . S
C2063 C2065 1.433 . S
C2064 C2060 1.350 . S
C2064 C2061 1.463 . S
C2064 N2068 1.427 . S
C2065 H2055 0.929 . S
C2065 C2063 1.433 . S
C2065 N2068 1.384 . S
C2066 H2057 0.929 . S
C2066 C2058 1.378 . S
C2066 C2061 1.350 . S
C2067 H2054 0.929 . S
C2067 C2059 1.433 . S
C2067 N2069 1.384 . S
N2068 C2064 1.427 . S
N2068 C2065 1.384 . S
N2069 C2061 1.427 . S
N2069 C2067 1.384 . S
H2070 C2076 0.930 . S
H2071 C2080 0.930 . S
H2072 C2085 0.929 . S
H2073 C2083 0.929 . S
H2074 C2078 0.929 . S
H2075 C2084 0.929 . S
C2076 H2070 0.930 . S
C2076 C2077 1.367 . S
C2076 C2084 1.378 . S
C2077 C2076 1.367 . S
C2077 C2085 1.433 . S
C2078 H2074 0.929 . S
C2078 C2080 1.378 . S
C2078 C2082 1.350 . S
C2079 C2082 1.463 . S
C2079 C2084 1.350 . S
C2079 N2087 1.427 . S
C2080 H2071 0.930 . S
C2080 C2078 1.378 . S
C2080 C2081 1.367 . S
C2081 C2080 1.367 . S
C2081 C2083 1.433 . S
C2082 C2078 1.350 . S
C2082 C2079 1.463 . S
C2082 N2086 1.427 . S
C2083 H2073 0.929 . S
C2083 C2081 1.433 . S
C2083 N2086 1.384 . S
C2084 H2075 0.929 . S
C2084 C2076 1.378 . S
C2084 C2079 1.350 . S
C2085 H2072 0.929 . S
C2085 C2077 1.433 . S
C2085 N2087 1.384 . S
N2086 C2082 1.427 . S
N2086 C2083 1.384 . S
N2087 C2079 1.427 . S
N2087 C2085 1.384 . S
H2088 C2094 0.930 . S
H2089 C2098 0.930 . S
H2090 C2103 0.929 . S
H2091 C2101 0.929 . S
H2092 C2096 0.929 . S
H2093 C2102 0.929 . S
C2094 H2088 0.930 . S
C2094 C2095 1.367 . S
C2094 C2102 1.378 . S
C2095 C2094 1.367 . S
C2095 C2103 1.433 . S
C2096 H2092 0.929 . S
C2096 C2098 1.378 . S
C2096 C2100 1.350 . S
C2097 C2100 1.463 . S
C2097 C2102 1.350 . S
C2097 N2105 1.427 . S
C2098 H2089 0.930 . S
C2098 C2096 1.378 . S
C2098 C2099 1.367 . S
C2099 C2098 1.367 . S
C2099 C2101 1.433 . S
C2100 C2096 1.350 . S
C2100 C2097 1.463 . S
C2100 N2104 1.427 . S
C2101 H2091 0.929 . S
C2101 C2099 1.433 . S
C2101 N2104 1.384 . S
C2102 H2093 0.929 . S
C2102 C2094 1.378 . S
C2102 C2097 1.350 . S
C2103 H2090 0.929 . S
C2103 C2095 1.433 . S
C2103 N2105 1.384 . S
N2104 C2100 1.427 . S
N2104 C2101 1.384 . S
N2105 C2097 1.427 . S
N2105 C2103 1.384 . S
H2106 C2112 0.930 . S
H2107 C2116 0.930 . S
H2108 C2121 0.929 . S
H2109 C2119 0.929 . S
H2110 C2114 0.929 . S
H2111 C2120 0.929 . S
C2112 H2106 0.930 . S
C2112 C2113 1.367 . S
C2112 C2120 1.378 . S
C2113 C2112 1.367 . S
C2113 C2121 1.433 . S
C2114 H2110 0.929 . S
C2114 C2116 1.378 . S
C2114 C2118 1.350 . S
C2115 C2118 1.463 . S
C2115 C2120 1.350 . S
C2115 N2123 1.427 . S
C2116 H2107 0.930 . S
C2116 C2114 1.378 . S
C2116 C2117 1.367 . S
C2117 C2116 1.367 . S
C2117 C2119 1.433 . S
C2118 C2114 1.350 . S
C2118 C2115 1.463 . S
C2118 N2122 1.427 . S
C2119 H2109 0.929 . S
C2119 C2117 1.433 . S
C2119 N2122 1.384 . S
C2120 H2111 0.929 . S
C2120 C2112 1.378 . S
C2120 C2115 1.350 . S
C2121 H2108 0.929 . S
C2121 C2113 1.433 . S
C2121 N2123 1.384 . S
N2122 C2118 1.427 . S
N2122 C2119 1.384 . S
N2123 C2115 1.427 . S
N2123 C2121 1.384 . S
H2124 C2130 0.930 . S
H2125 C2134 0.930 . S
H2126 C2139 0.929 . S
H2127 C2137 0.929 . S
H2128 C2132 0.929 . S
H2129 C2138 0.929 . S
C2130 H2124 0.930 . S
C2130 C2131 1.367 . S
C2130 C2138 1.378 . S
C2131 C2130 1.367 . S
C2131 C2139 1.433 . S
C2132 H2128 0.929 . S
C2132 C2134 1.378 . S
C2132 C2136 1.350 . S
C2133 C2136 1.463 . S
C2133 C2138 1.350 . S
C2133 N2141 1.427 . S
C2134 H2125 0.930 . S
C2134 C2132 1.378 . S
C2134 C2135 1.367 . S
C2135 C2134 1.367 . S
C2135 C2137 1.433 . S
C2136 C2132 1.350 . S
C2136 C2133 1.463 . S
C2136 N2140 1.427 . S
C2137 H2127 0.929 . S
C2137 C2135 1.433 . S
C2137 N2140 1.384 . S
C2138 H2129 0.929 . S
C2138 C2130 1.378 . S
C2138 C2133 1.350 . S
C2139 H2126 0.929 . S
C2139 C2131 1.433 . S
C2139 N2141 1.384 . S
N2140 C2136 1.427 . S
N2140 C2137 1.384 . S
N2141 C2133 1.427 . S
N2141 C2139 1.384 . S
H2142 C2148 0.930 . S
H2143 C2152 0.930 . S
H2144 C2157 0.929 . S
H2145 C2155 0.929 . S
H2146 C2150 0.929 . S
H2147 C2156 0.929 . S
C2148 H2142 0.930 . S
C2148 C2149 1.367 . S
C2148 C2156 1.378 . S
C2149 C2148 1.367 . S
C2149 C2157 1.433 . S
C2150 H2146 0.929 . S
C2150 C2152 1.378 . S
C2150 C2154 1.350 . S
C2151 C2154 1.463 . S
C2151 C2156 1.350 . S
C2151 N2159 1.427 . S
C2152 H2143 0.930 . S
C2152 C2150 1.378 . S
C2152 C2153 1.367 . S
C2153 C2152 1.367 . S
C2153 C2155 1.433 . S
C2154 C2150 1.350 . S
C2154 C2151 1.463 . S
C2154 N2158 1.427 . S
C2155 H2145 0.929 . S
C2155 C2153 1.433 . S
C2155 N2158 1.384 . S
C2156 H2147 0.929 . S
C2156 C2148 1.378 . S
C2156 C2151 1.350 . S
C2157 H2144 0.929 . S
C2157 C2149 1.433 . S
C2157 N2159 1.384 . S
N2158 C2154 1.427 . S
N2158 C2155 1.384 . S
N2159 C2151 1.427 . S
N2159 C2157 1.384 . S
H2160 C2166 0.930 . S
H2161 C2170 0.930 . S
H2162 C2175 0.929 . S
H2163 C2173 0.929 . S
H2164 C2168 0.929 . S
H2165 C2174 0.929 . S
C2166 H2160 0.930 . S
C2166 C2167 1.367 . S
C2166 C2174 1.378 . S
C2167 C2166 1.367 . S
C2167 C2175 1.433 . S
C2168 H2164 0.929 . S
C2168 C2170 1.378 . S
C2168 C2172 1.350 . S
C2169 C2172 1.463 . S
C2169 C2174 1.350 . S
C2169 N2177 1.427 . S
C2170 H2161 0.930 . S
C2170 C2168 1.378 . S
C2170 C2171 1.367 . S
C2171 C2170 1.367 . S
C2171 C2173 1.433 . S
C2172 C2168 1.350 . S
C2172 C2169 1.463 . S
C2172 N2176 1.427 . S
C2173 H2163 0.929 . S
C2173 C2171 1.433 . S
C2173 N2176 1.384 . S
C2174 H2165 0.929 . S
C2174 C2166 1.378 . S
C2174 C2169 1.350 . S
C2175 H2162 0.929 . S
C2175 C2167 1.433 . S
C2175 N2177 1.384 . S
N2176 C2172 1.427 . S
N2176 C2173 1.384 . S
N2177 C2169 1.427 . S
N2177 C2175 1.384 . S
H2178 C2184 0.930 . S
H2179 C2188 0.930 . S
H2180 C2193 0.929 . S
H2181 C2191 0.929 . S
H2182 C2186 0.929 . S
H2183 C2192 0.929 . S
C2184 H2178 0.930 . S
C2184 C2185 1.367 . S
C2184 C2192 1.378 . S
C2185 C2184 1.367 . S
C2185 C2193 1.433 . S
C2186 H2182 0.929 . S
C2186 C2188 1.378 . S
C2186 C2190 1.350 . S
C2187 C2190 1.463 . S
C2187 C2192 1.350 . S
C2187 N2195 1.427 . S
C2188 H2179 0.930 . S
C2188 C2186 1.378 . S
C2188 C2189 1.367 . S
C2189 C2188 1.367 . S
C2189 C2191 1.433 . S
C2190 C2186 1.350 . S
C2190 C2187 1.463 . S
C2190 N2194 1.427 . S
C2191 H2181 0.929 . S
C2191 C2189 1.433 . S
C2191 N2194 1.384 . S
C2192 H2183 0.929 . S
C2192 C2184 1.378 . S
C2192 C2187 1.350 . S
C2193 H2180 0.929 . S
C2193 C2185 1.433 . S
C2193 N2195 1.384 . S
N2194 C2190 1.427 . S
N2194 C2191 1.384 . S
N2195 C2187 1.427 . S
N2195 C2193 1.384 . S
H2196 C2202 0.930 . S
H2197 C2206 0.930 . S
H2198 C2211 0.929 . S
H2199 C2209 0.929 . S
H2200 C2204 0.929 . S
H2201 C2210 0.929 . S
C2202 H2196 0.930 . S
C2202 C2203 1.367 . S
C2202 C2210 1.378 . S
C2203 C2202 1.367 . S
C2203 C2211 1.433 . S
C2204 H2200 0.929 . S
C2204 C2206 1.378 . S
C2204 C2208 1.350 . S
C2205 C2208 1.463 . S
C2205 C2210 1.350 . S
C2205 N2213 1.427 . S
C2206 H2197 0.930 . S
C2206 C2204 1.378 . S
C2206 C2207 1.367 . S
C2207 C2206 1.367 . S
C2207 C2209 1.433 . S
C2208 C2204 1.350 . S
C2208 C2205 1.463 . S
C2208 N2212 1.427 . S
C2209 H2199 0.929 . S
C2209 C2207 1.433 . S
C2209 N2212 1.384 . S
C2210 H2201 0.929 . S
C2210 C2202 1.378 . S
C2210 C2205 1.350 . S
C2211 H2198 0.929 . S
C2211 C2203 1.433 . S
C2211 N2213 1.384 . S
N2212 C2208 1.427 . S
N2212 C2209 1.384 . S
N2213 C2205 1.427 . S
N2213 C2211 1.384 . S
H2214 C2220 0.930 . S
H2215 C2224 0.930 . S
H2216 C2229 0.929 . S
H2217 C2227 0.929 . S
H2218 C2222 0.929 . S
H2219 C2228 0.929 . S
C2220 H2214 0.930 . S
C2220 C2221 1.367 . S
C2220 C2228 1.378 . S
C2221 C2220 1.367 . S
C2221 C2229 1.433 . S
C2222 H2218 0.929 . S
C2222 C2224 1.378 . S
C2222 C2226 1.350 . S
C2223 C2226 1.463 . S
C2223 C2228 1.350 . S
C2223 N2231 1.427 . S
C2224 H2215 0.930 . S
C2224 C2222 1.378 . S
C2224 C2225 1.367 . S
C2225 C2224 1.367 . S
C2225 C2227 1.433 . S
C2226 C2222 1.350 . S
C2226 C2223 1.463 . S
C2226 N2230 1.427 . S
C2227 H2217 0.929 . S
C2227 C2225 1.433 . S
C2227 N2230 1.384 . S
C2228 H2219 0.929 . S
C2228 C2220 1.378 . S
C2228 C2223 1.350 . S
C2229 H2216 0.929 . S
C2229 C2221 1.433 . S
C2229 N2231 1.384 . S
N2230 C2226 1.427 . S
N2230 C2227 1.384 . S
N2231 C2223 1.427 . S
N2231 C2229 1.384 . S
H2232 C2238 0.930 . S
H2233 C2242 0.930 . S
H2234 C2247 0.929 . S
H2235 C2245 0.929 . S
H2236 C2240 0.929 . S
H2237 C2246 0.929 . S
C2238 H2232 0.930 . S
C2238 C2239 1.367 . S
C2238 C2246 1.378 . S
C2239 C2238 1.367 . S
C2239 C2247 1.433 . S
C2240 H2236 0.929 . S
C2240 C2242 1.378 . S
C2240 C2244 1.350 . S
C2241 C2244 1.463 . S
C2241 C2246 1.350 . S
C2241 N2249 1.427 . S
C2242 H2233 0.930 . S
C2242 C2240 1.378 . S
C2242 C2243 1.367 . S
C2243 C2242 1.367 . S
C2243 C2245 1.433 . S
C2244 C2240 1.350 . S
C2244 C2241 1.463 . S
C2244 N2248 1.427 . S
C2245 H2235 0.929 . S
C2245 C2243 1.433 . S
C2245 N2248 1.384 . S
C2246 H2237 0.929 . S
C2246 C2238 1.378 . S
C2246 C2241 1.350 . S
C2247 H2234 0.929 . S
C2247 C2239 1.433 . S
C2247 N2249 1.384 . S
N2248 C2244 1.427 . S
N2248 C2245 1.384 . S
N2249 C2241 1.427 . S
N2249 C2247 1.384 . S
H2250 C2256 0.930 . S
H2251 C2260 0.930 . S
H2252 C2265 0.929 . S
H2253 C2263 0.929 . S
H2254 C2258 0.929 . S
H2255 C2264 0.929 . S
C2256 H2250 0.930 . S
C2256 C2257 1.367 . S
C2256 C2264 1.378 . S
C2257 C2256 1.367 . S
C2257 C2265 1.433 . S
C2258 H2254 0.929 . S
C2258 C2260 1.378 . S
C2258 C2262 1.350 . S
C2259 C2262 1.463 . S
C2259 C2264 1.350 . S
C2259 N2267 1.427 . S
C2260 H2251 0.930 . S
C2260 C2258 1.378 . S
C2260 C2261 1.367 . S
C2261 C2260 1.367 . S
C2261 C2263 1.433 . S
C2262 C2258 1.350 . S
C2262 C2259 1.463 . S
C2262 N2266 1.427 . S
C2263 H2253 0.929 . S
C2263 C2261 1.433 . S
C2263 N2266 1.384 . S
C2264 H2255 0.929 . S
C2264 C2256 1.378 . S
C2264 C2259 1.350 . S
C2265 H2252 0.929 . S
C2265 C2257 1.433 . S
C2265 N2267 1.384 . S
N2266 C2262 1.427 . S
N2266 C2263 1.384 . S
N2267 C2259 1.427 . S
N2267 C2265 1.384 . S
H2268 C2274 0.930 . S
H2269 C2278 0.930 . S
H2270 C2283 0.929 . S
H2271 C2281 0.929 . S
H2272 C2276 0.929 . S
H2273 C2282 0.929 . S
C2274 H2268 0.930 . S
C2274 C2275 1.367 . S
C2274 C2282 1.378 . S
C2275 C2274 1.367 . S
C2275 C2283 1.433 . S
C2276 H2272 0.929 . S
C2276 C2278 1.378 . S
C2276 C2280 1.350 . S
C2277 C2280 1.463 . S
C2277 C2282 1.350 . S
C2277 N2285 1.427 . S
C2278 H2269 0.930 . S
C2278 C2276 1.378 . S
C2278 C2279 1.367 . S
C2279 C2278 1.367 . S
C2279 C2281 1.433 . S
C2280 C2276 1.350 . S
C2280 C2277 1.463 . S
C2280 N2284 1.427 . S
C2281 H2271 0.929 . S
C2281 C2279 1.433 . S
C2281 N2284 1.384 . S
C2282 H2273 0.929 . S
C2282 C2274 1.378 . S
C2282 C2277 1.350 . S
C2283 H2270 0.929 . S
C2283 C2275 1.433 . S
C2283 N2285 1.384 . S
N2284 C2280 1.427 . S
N2284 C2281 1.384 . S
N2285 C2277 1.427 . S
N2285 C2283 1.384 . S
H2286 C2292 0.930 . S
H2287 C2296 0.930 . S
H2288 C2301 0.929 . S
H2289 C2299 0.929 . S
H2290 C2294 0.929 . S
H2291 C2300 0.929 . S
C2292 H2286 0.930 . S
C2292 C2293 1.367 . S
C2292 C2300 1.378 . S
C2293 C2292 1.367 . S
C2293 C2301 1.433 . S
C2294 H2290 0.929 . S
C2294 C2296 1.378 . S
C2294 C2298 1.350 . S
C2295 C2298 1.463 . S
C2295 C2300 1.350 . S
C2295 N2303 1.427 . S
C2296 H2287 0.930 . S
C2296 C2294 1.378 . S
C2296 C2297 1.367 . S
C2297 C2296 1.367 . S
C2297 C2299 1.433 . S
C2298 C2294 1.350 . S
C2298 C2295 1.463 . S
C2298 N2302 1.427 . S
C2299 H2289 0.929 . S
C2299 C2297 1.433 . S
C2299 N2302 1.384 . S
C2300 H2291 0.929 . S
C2300 C2292 1.378 . S
C2300 C2295 1.350 . S
C2301 H2288 0.929 . S
C2301 C2293 1.433 . S
C2301 N2303 1.384 . S
N2302 C2298 1.427 . S
N2302 C2299 1.384 . S
N2303 C2295 1.427 . S
N2303 C2301 1.384 . S
C1159 C1048 1.528 . S
C1163 C4 1.521 . S
C1177 C40 1.523 . S
C1181 C1084 1.526 . S
C1195 C1120 1.525 . S
C1199 C76 1.524 . S
C1213 C1012 1.523 . S
C1217 C112 1.526 . S
C1231 C148 1.528 . S
C1235 C976 1.521 . S
C1249 C868 1.523 . S
C1253 C184 1.526 . S
C1267 C220 1.521 . S
C1271 C904 1.528 . S
C1285 C940 1.521 . S
C1289 C256 1.528 . S
C1303 C292 1.521 . S
C1307 C760 1.528 . S
C1321 C328 1.524 . S
C1325 C796 1.525 . S
C1339 C832 1.522 . S
C1343 C364 1.527 . S
C1357 C400 1.525 . S
C1361 C724 1.524 . S
C1375 C688 1.526 . S
C1379 C436 1.523 . S
C1393 C580 1.526 . S
C1397 C472 1.523 . S
C1411 C508 1.525 . S
C1415 C616 1.524 . S
C1429 C544 1.528 . S
C1433 C652 1.521 . S
C1447 C14 1.311 . S
C1451 C374 1.299 . S
C1465 C410 1.314 . S
C1469 C50 1.297 . S
C1483 C302 1.315 . S
C1487 C86 1.295 . S
C1501 C338 1.309 . S
C1505 C122 1.301 . S
C1519 C158 1.313 . S
C1523 C518 1.297 . S
C1537 C554 1.312 . S
C1541 C194 1.298 . S
C1555 C446 1.297 . S
C1559 C230 1.313 . S
C1573 C482 1.298 . S
C1577 C266 1.312 . S
C1591 C590 1.296 . S
C1595 C950 1.314 . S
C1609 C986 1.298 . S
C1613 C626 1.312 . S
C1627 C878 1.295 . S
C1631 C662 1.315 . S
C1645 C698 1.310 . S
C1649 C914 1.300 . S
C1663 C734 1.313 . S
C1667 C1094 1.297 . S
C1681 C1130 1.312 . S
C1685 C770 1.299 . S
C1699 C1022 1.297 . S
C1703 C806 1.313 . S
C1717 C842 1.311 . S
C1721 C1058 1.299 . S
C1735 C3 1.434 . S
C1739 C147 1.436 . S
C1753 C39 1.433 . S
C1757 C183 1.432 . S
C1771 C219 1.432 . S
C1775 C75 1.436 . S
C1789 C111 1.436 . S
C1793 C255 1.432 . S
C1807 C291 1.432 . S
C1811 C435 1.434 . S
C1825 C471 1.436 . S
C1829 C327 1.433 . S
C1843 C507 1.432 . S
C1847 C363 1.434 . S
C1861 C399 1.436 . S
C1865 C543 1.434 . S
C1879 C579 1.434 . S
C1883 C723 1.436 . S
C1897 C759 1.432 . S
C1901 C615 1.433 . S
C1915 C651 1.436 . S
C1919 C795 1.433 . S
C1933 C831 1.436 . S
C1937 C687 1.436 . S
C1951 C1011 1.436 . S
C1955 C867 1.433 . S
C1969 C903 1.435 . S
C1973 C1047 1.432 . S
C1987 C939 1.432 . S
C1991 C1083 1.432 . S
C2005 C975 1.436 . S
C2009 C1119 1.433 . S
C2023 C2 1.357 . S
C2027 C182 1.362 . S
C2041 C38 1.357 . S
C2045 C218 1.364 . S
C2059 C254 1.360 . S
C2063 C74 1.358 . S
C2077 C146 1.363 . S
C2081 C110 1.364 . S
C2095 C470 1.360 . S
C2099 C290 1.358 . S
C2113 C506 1.365 . S
C2117 C326 1.362 . S
C2131 C542 1.360 . S
C2135 C362 1.358 . S
C2149 C398 1.363 . S
C2153 C434 1.365 . S
C2167 C578 1.366 . S
C2171 C758 1.360 . S
C2185 C794 1.360 . S
C2189 C614 1.366 . S
C2203 C830 1.362 . S
C2207 C650 1.357 . S
C2221 C686 1.365 . S
C2225 C722 1.362 . S
C2239 C1046 1.357 . S
C2243 C866 1.365 . S
C2257 C902 1.360 . S
C2261 C1082 1.366 . S
C2275 C938 1.360 . S
C2279 C1118 1.358 . S
C2293 C1010 1.366 . S
C2297 C974 1.359 . S
