# Generated by pormake.
# Topology gsi, (4)-cn, num edge types: 1
# Building blocks:
#     Node 0, Type 0, BuildingBlock: ICAMEG_clean_sbu_1, # of connection points: 4
#     Node 1, Type 0, BuildingBlock: ICAMEG_clean_sbu_1, # of connection points: 4
#     Node 2, Type 0, BuildingBlock: ICAMEG_clean_sbu_1, # of connection points: 4
#     Node 3, Type 0, BuildingBlock: ICAMEG_clean_sbu_1, # of connection points: 4
#     Node 4, Type 0, BuildingBlock: ICAMEG_clean_sbu_1, # of connection points: 4
#     Node 5, Type 0, BuildingBlock: ICAMEG_clean_sbu_1, # of connection points: 4
#     Node 6, Type 0, BuildingBlock: ICAMEG_clean_sbu_1, # of connection points: 4
#     Node 7, Type 0, BuildingBlock: ICAMEG_clean_sbu_1, # of connection points: 4
#     Node 8, Type 0, BuildingBlock: ICAMEG_clean_sbu_1, # of connection points: 4
#     Node 9, Type 0, BuildingBlock: ICAMEG_clean_sbu_1, # of connection points: 4
#     Node 10, Type 0, BuildingBlock: ICAMEG_clean_sbu_1, # of connection points: 4
#     Node 11, Type 0, BuildingBlock: ICAMEG_clean_sbu_1, # of connection points: 4
#     Node 12, Type 0, BuildingBlock: ICAMEG_clean_sbu_1, # of connection points: 4
#     Node 13, Type 0, BuildingBlock: ICAMEG_clean_sbu_1, # of connection points: 4
#     Node 14, Type 0, BuildingBlock: ICAMEG_clean_sbu_1, # of connection points: 4
#     Node 15, Type 0, BuildingBlock: ICAMEG_clean_sbu_1, # of connection points: 4
#     Edge 16, Type (0, 0), BuildingBlock: KIFKEQ_clean_linker_1, # of connection points: 2
#     Edge 17, Type (0, 0), BuildingBlock: KIFKEQ_clean_linker_1, # of connection points: 2
#     Edge 18, Type (0, 0), BuildingBlock: KIFKEQ_clean_linker_1, # of connection points: 2
#     Edge 19, Type (0, 0), BuildingBlock: KIFKEQ_clean_linker_1, # of connection points: 2
#     Edge 20, Type (0, 0), BuildingBlock: KIFKEQ_clean_linker_1, # of connection points: 2
#     Edge 21, Type (0, 0), BuildingBlock: KIFKEQ_clean_linker_1, # of connection points: 2
#     Edge 22, Type (0, 0), BuildingBlock: KIFKEQ_clean_linker_1, # of connection points: 2
#     Edge 23, Type (0, 0), BuildingBlock: KIFKEQ_clean_linker_1, # of connection points: 2
#     Edge 24, Type (0, 0), BuildingBlock: KIFKEQ_clean_linker_1, # of connection points: 2
#     Edge 25, Type (0, 0), BuildingBlock: KIFKEQ_clean_linker_1, # of connection points: 2
#     Edge 26, Type (0, 0), BuildingBlock: KIFKEQ_clean_linker_1, # of connection points: 2
#     Edge 27, Type (0, 0), BuildingBlock: KIFKEQ_clean_linker_1, # of connection points: 2
#     Edge 28, Type (0, 0), BuildingBlock: KIFKEQ_clean_linker_1, # of connection points: 2
#     Edge 29, Type (0, 0), BuildingBlock: KIFKEQ_clean_linker_1, # of connection points: 2
#     Edge 30, Type (0, 0), BuildingBlock: KIFKEQ_clean_linker_1, # of connection points: 2
#     Edge 31, Type (0, 0), BuildingBlock: KIFKEQ_clean_linker_1, # of connection points: 2
#     Edge 32, Type (0, 0), BuildingBlock: KIFKEQ_clean_linker_1, # of connection points: 2
#     Edge 33, Type (0, 0), BuildingBlock: KIFKEQ_clean_linker_1, # of connection points: 2
#     Edge 34, Type (0, 0), BuildingBlock: KIFKEQ_clean_linker_1, # of connection points: 2
#     Edge 35, Type (0, 0), BuildingBlock: KIFKEQ_clean_linker_1, # of connection points: 2
#     Edge 36, Type (0, 0), BuildingBlock: KIFKEQ_clean_linker_1, # of connection points: 2
#     Edge 37, Type (0, 0), BuildingBlock: KIFKEQ_clean_linker_1, # of connection points: 2
#     Edge 38, Type (0, 0), BuildingBlock: KIFKEQ_clean_linker_1, # of connection points: 2
#     Edge 39, Type (0, 0), BuildingBlock: KIFKEQ_clean_linker_1, # of connection points: 2
#     Edge 40, Type (0, 0), BuildingBlock: KIFKEQ_clean_linker_1, # of connection points: 2
#     Edge 41, Type (0, 0), BuildingBlock: KIFKEQ_clean_linker_1, # of connection points: 2
#     Edge 42, Type (0, 0), BuildingBlock: KIFKEQ_clean_linker_1, # of connection points: 2
#     Edge 43, Type (0, 0), BuildingBlock: KIFKEQ_clean_linker_1, # of connection points: 2
#     Edge 44, Type (0, 0), BuildingBlock: KIFKEQ_clean_linker_1, # of connection points: 2
#     Edge 45, Type (0, 0), BuildingBlock: KIFKEQ_clean_linker_1, # of connection points: 2
#     Edge 46, Type (0, 0), BuildingBlock: KIFKEQ_clean_linker_1, # of connection points: 2
#     Edge 47, Type (0, 0), BuildingBlock: KIFKEQ_clean_linker_1, # of connection points: 2
# Relax obj value: 0.183
# Max RMSD: 0.231
# Mean RMSD: 0.183
data_MOF--net-gsi--node1-ICAMEG_clean_sbu_1--edge1-KIFKEQ_clean_linker_1
_symmetry_space_group_name_H-M    P1
_symmetry_Int_Tables_number       1
_symmetry_cell_setting            triclinic
loop_
_symmetry_equiv_pos_as_xyz
'x, y, z'
_cell_length_a     36.960859
_cell_length_b     48.201724
_cell_length_c     48.334084
_cell_angle_alpha  90.077841
_cell_angle_beta   89.976996
_cell_angle_gamma 99.518634
loop_
_atom_site_label
_atom_site_type_symbol
_atom_site_fract_x
_atom_site_fract_y
_atom_site_fract_z
_atom_type_partial_charge
Co0 Co 0.13516 0.16677 0.18304 0.0
Co1 Co 0.18579 0.20177 0.13086 0.0
O2 O 0.16538 0.16647 0.14958 0.0
C3 C 0.18611 0.12708 0.19882 0.0
O4 O 0.21374 0.14467 0.18853 0.0
C5 C 0.17133 0.15798 0.0848 0.0
O6 O 0.15849 0.13768 0.102 0.0
O7 O 0.13525 0.21104 0.12694 0.0
O8 O 0.11478 0.20059 0.16988 0.0
H9 H 0.19822 0.30577 0.11405 0.0
H10 H 0.12956 0.11383 0.15101 0.0
O11 O 0.15369 0.13275 0.19769 0.0
H12 H 1.0047 0.13735 0.15102 0.0
H13 H 0.0522 0.12253 0.25926 0.0
H14 H 0.11919 0.21132 0.22136 0.0
H15 H 0.05508 0.16765 0.17531 0.0
H16 H 0.0888 0.12252 0.2166 0.0
O17 O 0.18081 0.18318 0.09336 0.0
H18 H 0.17484 0.26095 0.13746 0.0
H19 H 0.2377 0.2177 0.08381 0.0
H20 H 0.08269 0.21231 0.26395 0.0
H21 H 0.07986 0.08277 0.12667 0.0
H22 H 0.04886 0.16767 0.28319 0.0
H23 H 0.01691 0.09452 0.12653 0.0
O24 O 0.17608 0.19175 0.20166 0.0
H25 H 0.28119 0.13792 0.13016 0.0
H26 H 0.25841 0.23433 0.14708 0.0
H27 H 0.32065 0.22355 0.15327 0.0
H28 H 0.33252 0.17506 0.1446 0.0
H29 H 0.2194 0.14946 0.1248 0.0
H30 H 0.26139 0.26199 0.05964 0.0
H31 H 0.2418 0.30647 0.07483 0.0
O32 O 0.19287 0.22232 0.16729 0.0
C33 C 0.11261 0.21259 0.14658 0.0
C34 C 0.20703 0.28654 0.10729 0.0
C35 C 0.24244 0.26196 0.07673 0.0
N36 N 0.20504 0.23675 0.11216 0.0
C37 C 0.19396 0.2611 0.12052 0.0
C38 C 0.22881 0.23692 0.09043 0.0
C39 C 0.23146 0.28691 0.08527 0.0
C40 C 0.10221 0.11901 0.15112 0.0
N41 N 0.09529 0.14256 0.16449 0.0
C42 C 0.07419 0.10137 0.13727 0.0
C43 C 0.03889 0.10799 0.13718 0.0
C44 C 0.03202 0.13203 0.1509 0.0
C45 C 0.06072 0.14917 0.16452 0.0
C46 C 0.06677 0.14212 0.25107 0.0
C47 C 0.10441 0.19182 0.22951 0.0
C48 C 0.08762 0.14224 0.22694 0.0
N49 N 0.10595 0.16692 0.21639 0.0
C50 C 0.08385 0.19251 0.25368 0.0
C51 C 0.0649 0.16746 0.26447 0.0
C52 C 0.19326 0.21516 0.19273 0.0
C53 C 0.27648 0.15921 0.13372 0.0
C54 C 0.26317 0.21318 0.14326 0.0
C55 C 0.29859 0.20721 0.14678 0.0
C56 C 0.30523 0.18002 0.1419 0.0
N57 N 0.23507 0.19276 0.1349 0.0
C58 C 0.24142 0.16598 0.13041 0.0
Co59 Co 0.86306 0.35638 0.18148 0.0
Co60 Co 0.81873 0.31983 0.12694 0.0
O61 O 0.83461 0.35552 0.14685 0.0
C62 C 0.81334 0.40028 0.18969 0.0
O63 O 0.79526 0.39282 0.16683 0.0
C64 C 0.83223 0.36451 0.08167 0.0
O65 O 0.84197 0.38503 0.0994 0.0
O66 O 0.8708 0.31361 0.12474 0.0
O67 O 0.88825 0.32494 0.16817 0.0
H68 H 0.81772 0.21704 0.1087 0.0
H69 H 0.86551 0.40931 0.14935 0.0
O70 O 0.83966 0.38796 0.19729 0.0
H71 H 0.99396 0.39446 0.15588 0.0
H72 H 0.9373 0.4023 0.26159 0.0
H73 H 0.88153 0.31225 0.21915 0.0
H74 H 0.94441 0.361 0.17746 0.0
H75 H 0.90297 0.40159 0.21779 0.0
O76 O 0.82448 0.33906 0.0898 0.0
H77 H 0.83531 0.26208 0.13333 0.0
H78 H 0.77097 0.30199 0.07795 0.0
H79 H 0.91589 0.31201 0.26284 0.0
H80 H 0.91421 0.44344 0.12776 0.0
H81 H 0.94408 0.35728 0.28435 0.0
H82 H 0.97903 0.43612 0.13089 0.0
O83 O 0.82329 0.32876 0.19815 0.0
H84 H 0.71541 0.37632 0.12098 0.0
H85 H 0.74794 0.28337 0.14093 0.0
H86 H 0.68357 0.28999 0.1447 0.0
H87 H 0.6668 0.33673 0.13452 0.0
H88 H 0.77934 0.36889 0.11807 0.0
H89 H 0.75305 0.25746 0.05256 0.0
H90 H 0.77631 0.21453 0.06799 0.0
O91 O 0.81127 0.29847 0.16286 0.0
C92 C 0.89273 0.31322 0.14503 0.0
C93 C 0.80732 0.23558 0.10182 0.0
C94 C 0.77107 0.25827 0.07029 0.0
N95 N 0.80403 0.28462 0.10723 0.0
C96 C 0.81711 0.26113 0.11574 0.0
C97 C 0.78144 0.28346 0.08471 0.0
C98 C 0.78412 0.23419 0.07897 0.0
C99 C 0.89358 0.40607 0.15108 0.0
N100 N 0.90198 0.38326 0.16488 0.0
C101 C 0.92109 0.42543 0.13869 0.0
C102 C 0.95744 0.42129 0.14041 0.0
C103 C 0.96583 0.39792 0.15441 0.0
C104 C 0.9376 0.379 0.16654 0.0
C105 C 0.92521 0.38244 0.25238 0.0
C106 C 0.8939 0.33203 0.22828 0.0
C107 C 0.90567 0.3819 0.22761 0.0
N108 N 0.8905 0.35688 0.21578 0.0
C109 C 0.91324 0.33177 0.25307 0.0
C110 C 0.92902 0.35717 0.26514 0.0
C111 C 0.80884 0.30493 0.18836 0.0
C112 C 0.72231 0.3558 0.12537 0.0
C113 C 0.7411 0.30384 0.13673 0.0
C114 C 0.70447 0.30742 0.13876 0.0
C115 C 0.69507 0.33362 0.13302 0.0
N116 N 0.7678 0.32566 0.12913 0.0
C117 C 0.75866 0.35141 0.12356 0.0
Co118 Co 0.15047 0.8908 0.3135 0.0
Co119 Co 0.20107 0.84675 0.34615 0.0
O120 O 0.19095 0.88477 0.33802 0.0
C121 C 0.18744 0.93371 0.27434 0.0
O122 O 0.17859 0.91486 0.2548 0.0
C123 C 0.21922 0.87971 0.39988 0.0
O124 O 0.21017 0.90289 0.38982 0.0
O125 O 0.14978 0.83499 0.35903 0.0
O126 O 0.11898 0.8552 0.32688 0.0
H127 H 0.17401 0.74103 0.34367 0.0
H128 H 0.18271 0.93713 0.35077 0.0
O129 O 0.18058 0.92704 0.29965 0.0
H130 H 0.05232 0.91497 0.37733 0.0
H131 H 0.06504 0.94803 0.26747 0.0
H132 H 0.10037 0.85412 0.27588 0.0
H133 H 0.07663 0.88912 0.33946 0.0
H134 H 0.11525 0.9404 0.29866 0.0
O135 O 0.21644 0.85745 0.38521 0.0
H136 H 0.16277 0.78896 0.3335 0.0
H137 H 0.26001 0.82376 0.37652 0.0
H138 H 0.04984 0.86078 0.24456 0.0
H139 H 0.15946 0.96379 0.38857 0.0
H140 H 0.0319 0.90802 0.24019 0.0
H141 H 0.09383 0.9527 0.40212 0.0
O142 O 0.17072 0.86925 0.28359 0.0
H143 H 0.32196 0.91204 0.33667 0.0
H144 H 0.25016 0.82094 0.30863 0.0
H145 H 0.31279 0.83502 0.29059 0.0
H146 H 0.3493 0.88079 0.30475 0.0
H147 H 0.25909 0.89738 0.35383 0.0
H148 H 0.27209 0.77617 0.38735 0.0
H149 H 0.22901 0.73438 0.37078 0.0
O150 O 0.18628 0.83358 0.30801 0.0
C151 C 0.12027 0.83728 0.34619 0.0
C152 C 0.19302 0.75907 0.35097 0.0
C153 C 0.24802 0.77879 0.37552 0.0
N154 N 0.2107 0.80919 0.35435 0.0
C155 C 0.18683 0.78629 0.34524 0.0
C156 C 0.24094 0.8057 0.36941 0.0
C157 C 0.22386 0.75535 0.3662 0.0
C158 C 0.15409 0.93227 0.35647 0.0
N159 N 0.13112 0.91151 0.34298 0.0
C160 C 0.14109 0.9474 0.37793 0.0
C161 C 0.10428 0.94114 0.38554 0.0
C162 C 0.08099 0.91995 0.37167 0.0
C163 C 0.09497 0.90526 0.35033 0.0
C164 C 0.07258 0.92734 0.26921 0.0
C165 C 0.09266 0.87472 0.27414 0.0
C166 C 0.10101 0.92289 0.28681 0.0
N167 N 0.11071 0.89681 0.28912 0.0
C168 C 0.06405 0.87837 0.25636 0.0
C169 C 0.054 0.90489 0.25391 0.0
C170 C 0.17981 0.84498 0.28525 0.0
C171 C 0.30646 0.89192 0.33057 0.0
C172 C 0.26581 0.84088 0.315 0.0
C173 C 0.30131 0.84873 0.30467 0.0
C174 C 0.32177 0.87441 0.31261 0.0
N175 N 0.25107 0.85801 0.3329 0.0
C176 C 0.27084 0.88338 0.34044 0.0
Co177 Co 0.87326 0.63193 0.30871 0.0
Co178 Co 0.81758 0.67217 0.34215 0.0
O179 O 0.83187 0.63526 0.33374 0.0
C180 C 0.81605 0.58032 0.29486 0.0
O181 O 0.79206 0.58692 0.31268 0.0
C182 C 0.8045 0.63939 0.39647 0.0
O183 O 0.81555 0.6169 0.38645 0.0
O184 O 0.86826 0.68732 0.35452 0.0
O185 O 0.90167 0.66817 0.32332 0.0
H186 H 0.83332 0.77778 0.33954 0.0
H187 H 0.84503 0.58488 0.34704 0.0
O188 O 0.84745 0.5956 0.29218 0.0
H189 H 0.97629 0.61102 0.36929 0.0
H190 H 0.96311 0.58153 0.25875 0.0
H191 H 0.92125 0.67245 0.27313 0.0
H192 H 0.94837 0.63576 0.33251 0.0
H193 H 0.91202 0.58522 0.29064 0.0
O194 O 0.8043 0.66112 0.3815 0.0
H195 H 0.84979 0.73135 0.32925 0.0
H196 H 0.75595 0.69111 0.37305 0.0
H197 H 0.97271 0.66975 0.24129 0.0
H198 H 0.87184 0.55929 0.38367 0.0
H199 H 0.99395 0.62403 0.23392 0.0
H200 H 0.93798 0.57234 0.39511 0.0
O201 O 0.85074 0.65223 0.27914 0.0
H202 H 0.70132 0.60103 0.33611 0.0
H203 H 0.76477 0.69355 0.30444 0.0
H204 H 0.70252 0.6756 0.28746 0.0
H205 H 0.67021 0.62906 0.30342 0.0
H206 H 0.76374 0.61953 0.35216 0.0
H207 H 0.73867 0.73715 0.384 0.0
H208 H 0.7774 0.7809 0.36711 0.0
O209 O 0.8302 0.68581 0.30381 0.0
C210 C 0.89849 0.6861 0.34227 0.0
C211 C 0.81618 0.75886 0.34697 0.0
C212 C 0.7631 0.73606 0.37196 0.0
N213 N 0.80382 0.70849 0.35045 0.0
C214 C 0.82533 0.73249 0.34117 0.0
C215 C 0.7731 0.71005 0.36576 0.0
C216 C 0.78483 0.7606 0.36246 0.0
C217 C 0.87382 0.59055 0.3516 0.0
N218 N 0.89503 0.61176 0.33743 0.0
C219 C 0.88887 0.57604 0.37251 0.0
C220 C 0.92595 0.5834 0.37896 0.0
C221 C 0.94744 0.60511 0.36451 0.0
C222 C 0.93141 0.61915 0.34375 0.0
C223 C 0.95415 0.60158 0.26182 0.0
C224 C 0.93049 0.65252 0.27017 0.0
C225 C 0.92516 0.60379 0.2798 0.0
N226 N 0.91382 0.62909 0.2839 0.0
C227 C 0.95957 0.6511 0.25205 0.0
C228 C 0.97145 0.62543 0.24791 0.0
C229 C 0.83836 0.67525 0.28098 0.0
C230 C 0.71501 0.62142 0.32914 0.0
C231 C 0.75105 0.67324 0.31147 0.0
C232 C 0.71571 0.66321 0.3018 0.0
C233 C 0.6976 0.63712 0.31076 0.0
N234 N 0.76795 0.65779 0.32966 0.0
C235 C 0.75039 0.63212 0.33836 0.0
Co236 Co 0.37683 0.85121 0.68224 0.0
Co237 Co 0.32637 0.81667 0.62959 0.0
O238 O 0.34656 0.85176 0.64885 0.0
C239 C 0.32535 0.89023 0.69887 0.0
O240 O 0.29784 0.87263 0.68841 0.0
C241 C 0.34083 0.86095 0.58407 0.0
O242 O 0.35324 0.8812 0.60149 0.0
O243 O 0.37694 0.80747 0.62555 0.0
O244 O 0.39758 0.81781 0.66849 0.0
H245 H 0.3143 0.71289 0.61136 0.0
H246 H 0.38171 0.90454 0.65108 0.0
O247 O 0.35788 0.88481 0.69751 0.0
H248 H 0.50706 0.88196 0.65026 0.0
H249 H 0.45958 0.895 0.75886 0.0
H250 H 0.39346 0.80636 0.71982 0.0
H251 H 0.45701 0.85101 0.6742 0.0
H252 H 0.42279 0.89529 0.71634 0.0
O253 O 0.33152 0.83567 0.59236 0.0
H254 H 0.33742 0.75745 0.6354 0.0
H255 H 0.27477 0.80122 0.58224 0.0
H256 H 0.43016 0.80509 0.76224 0.0
H257 H 0.43105 0.93625 0.62709 0.0
H258 H 0.46355 0.84964 0.78205 0.0
H259 H 0.49425 0.92498 0.62654 0.0
O260 O 0.33624 0.82566 0.70062 0.0
H261 H 0.23085 0.88043 0.62993 0.0
H262 H 0.25367 0.78379 0.64508 0.0
H263 H 0.19136 0.79441 0.65142 0.0
H264 H 0.17948 0.84302 0.64363 0.0
H265 H 0.2927 0.86903 0.62442 0.0
H266 H 0.25135 0.75719 0.55744 0.0
H267 H 0.27096 0.71258 0.57206 0.0
O268 O 0.31923 0.79571 0.6657 0.0
C269 C 0.39961 0.80584 0.64512 0.0
C270 C 0.30547 0.73218 0.60485 0.0
C271 C 0.27019 0.75705 0.57455 0.0
N272 N 0.30731 0.7819 0.61038 0.0
C273 C 0.31839 0.75747 0.61843 0.0
C274 C 0.28367 0.78194 0.58862 0.0
C275 C 0.28119 0.73202 0.58278 0.0
C276 C 0.40917 0.89957 0.65101 0.0
N277 N 0.41641 0.87593 0.66396 0.0
C278 C 0.43698 0.91757 0.63736 0.0
C279 C 0.47243 0.91122 0.63703 0.0
C280 C 0.47962 0.88708 0.65032 0.0
C281 C 0.45112 0.86957 0.66375 0.0
C282 C 0.4452 0.87544 0.75041 0.0
C283 C 0.40805 0.82582 0.72822 0.0
C284 C 0.42425 0.87547 0.72637 0.0
N285 N 0.40615 0.85084 0.7155 0.0
C286 C 0.42873 0.82498 0.75229 0.0
C287 C 0.44743 0.84998 0.7634 0.0
C288 C 0.31919 0.80235 0.69131 0.0
C289 C 0.23558 0.85909 0.6331 0.0
C290 C 0.2489 0.80499 0.64166 0.0
C291 C 0.21345 0.81088 0.64526 0.0
C292 C 0.2068 0.83813 0.64088 0.0
N293 N 0.27704 0.82557 0.63372 0.0
C294 C 0.27067 0.8524 0.6297 0.0
Co295 Co 0.90535 0.88218 0.84408 0.0
Co296 Co 0.82167 0.88478 0.87458 0.0
O297 O 0.87316 0.87846 0.87683 0.0
C298 C 0.92512 0.83165 0.87501 0.0
O299 O 0.89945 0.83209 0.89366 0.0
C300 C 0.85023 0.90903 0.92995 0.0
O301 O 0.88425 0.90929 0.92213 0.0
O302 O 0.83798 0.92304 0.8587 0.0
O303 O 0.88234 0.91439 0.82993 0.0
H304 H 0.71362 0.91534 0.82752 0.0
H305 H 0.93989 0.88322 0.89976 0.0
O306 O 0.93023 0.85002 0.85586 0.0
H307 H 0.99348 0.973 0.85619 0.0
H308 H 0.02384 0.88407 0.79193 0.0
H309 H 0.89241 0.89047 0.78444 0.0
H310 H 0.94837 0.93872 0.83112 0.0
H311 H 0.98468 0.88046 0.83351 0.0
O312 O 0.82383 0.90119 0.91321 0.0
H313 H 0.77729 0.90651 0.83105 0.0
H314 H 0.75791 0.8774 0.91352 0.0
H315 H 0.93067 0.89445 0.74234 0.0
H316 H 0.98544 0.91659 0.92539 0.0
H317 H 0.99689 0.89124 0.74594 0.0
H318 H 0.01248 0.96198 0.90367 0.0
O319 O 0.86892 0.85441 0.82421 0.0
H320 H 0.82499 0.80554 0.9418 0.0
H321 H 0.76412 0.83618 0.85922 0.0
H322 H 0.74395 0.78856 0.87773 0.0
H323 H 0.77433 0.77296 0.91941 0.0
H324 H 0.84473 0.85278 0.92235 0.0
H325 H 0.69414 0.88613 0.91093 0.0
H326 H 0.67156 0.90513 0.86765 0.0
O327 O 0.81607 0.86801 0.83634 0.0
C328 C 0.85981 0.92994 0.83846 0.0
C329 C 0.72311 0.90699 0.84646 0.0
C330 C 0.71219 0.89063 0.89329 0.0
N331 N 0.77129 0.8913 0.8724 0.0
C332 C 0.75912 0.90189 0.84857 0.0
C333 C 0.74838 0.88581 0.89465 0.0
C334 C 0.69953 0.90128 0.869 0.0
C335 C 0.95176 0.90269 0.88999 0.0
N336 N 0.94133 0.90891 0.86393 0.0
C337 C 0.97745 0.92163 0.90469 0.0
C338 C 0.99255 0.9471 0.89252 0.0
C339 C 0.98185 0.95332 0.86591 0.0
C340 C 0.95608 0.93388 0.85187 0.0
C341 C 0.99504 0.88557 0.7901 0.0
C342 C 0.92126 0.88925 0.78619 0.0
C343 C 0.97271 0.88349 0.81357 0.0
N344 N 0.93634 0.88551 0.81143 0.0
C345 C 0.94276 0.89143 0.76227 0.0
C346 C 0.97991 0.8896 0.7643 0.0
C347 C 0.83443 0.85319 0.82172 0.0
C348 C 0.81145 0.81211 0.92369 0.0
C349 C 0.77772 0.82955 0.87724 0.0
C350 C 0.76604 0.80255 0.88769 0.0
C351 C 0.78307 0.79383 0.91109 0.0
N352 N 0.80556 0.84742 0.88973 0.0
C353 C 0.82239 0.83895 0.91265 0.0
Co354 Co 0.105 0.63118 0.84184 0.0
Co355 Co 0.18633 0.62886 0.87615 0.0
O356 O 0.13461 0.63425 0.8758 0.0
C357 C 0.09142 0.68582 0.8656 0.0
O358 O 0.12645 0.6923 0.87155 0.0
C359 C 0.15333 0.60424 0.93007 0.0
O360 O 0.12028 0.6068 0.92181 0.0
O361 O 0.17296 0.59144 0.85739 0.0
O362 O 0.12951 0.59992 0.8277 0.0
H363 H 0.30035 0.6034 0.83335 0.0
H364 H 0.06563 0.62968 0.89535 0.0
O365 O 0.07886 0.66223 0.8545 0.0
H366 H 0.01868 0.53901 0.85036 0.0
H367 H 0.9893 0.62954 0.78636 0.0
H368 H 0.12149 0.6249 0.78238 0.0
H369 H 0.06485 0.574 0.82714 0.0
H370 H 0.02616 0.63225 0.82909 0.0
O371 O 0.18066 0.6101 0.91374 0.0
H372 H 0.23605 0.61114 0.83397 0.0
H373 H 0.2457 0.63409 0.91888 0.0
H374 H 0.08559 0.6219 0.73916 0.0
H375 H 0.01896 0.59546 0.91917 0.0
H376 H 0.019 0.62422 0.74099 0.0
H377 H 0.99531 0.54967 0.89671 0.0
O378 O 0.14248 0.65936 0.82336 0.0
H379 H 0.17026 0.70519 0.94435 0.0
H380 H 0.24624 0.6779 0.86848 0.0
H381 H 0.26291 0.72451 0.8901 0.0
H382 H 0.22495 0.7384 0.92851 0.0
H383 H 0.15413 0.65916 0.92176 0.0
H384 H 0.30996 0.62632 0.91922 0.0
H385 H 0.33777 0.611 0.87621 0.0
O386 O 0.19524 0.64825 0.83936 0.0
C387 C 0.15243 0.5848 0.83631 0.0
C388 C 0.28858 0.61015 0.85221 0.0
C389 C 0.29395 0.62296 0.90041 0.0
N390 N 0.23716 0.62321 0.87637 0.0
C391 C 0.25221 0.61464 0.85266 0.0
C392 C 0.25748 0.62723 0.90011 0.0
C393 C 0.30954 0.61438 0.87627 0.0
C394 C 0.05533 0.60986 0.88538 0.0
N395 N 0.06827 0.60376 0.86 0.0
C396 C 0.02897 0.59054 0.899 0.0
C397 C 0.01574 0.56484 0.8864 0.0
C398 C 0.0289 0.55882 0.86043 0.0
C399 C 0.05528 0.57865 0.84746 0.0
C400 C 0.01828 0.62845 0.7853 0.0
C401 C 0.09248 0.62577 0.78336 0.0
C402 C 0.03931 0.63002 0.80942 0.0
N403 N 0.0759 0.62854 0.80825 0.0
C404 C 0.07231 0.62412 0.75881 0.0
C405 C 0.03496 0.62546 0.75985 0.0
C406 C 0.17733 0.66164 0.82288 0.0
C407 C 0.18721 0.6993 0.92779 0.0
C408 C 0.22944 0.68374 0.88505 0.0
C409 C 0.2391 0.71018 0.8973 0.0
C410 C 0.21782 0.71795 0.91885 0.0
N411 N 0.19953 0.66539 0.89405 0.0
C412 C 0.17839 0.67303 0.91504 0.0
Co413 Co 0.82861 0.17084 0.64195 0.0
Co414 Co 0.81673 0.15454 0.71031 0.0
O415 O 0.81643 0.14291 0.67132 0.0
C416 C 0.75942 0.13987 0.61574 0.0
O417 O 0.74012 0.145 0.63742 0.0
C418 C 0.85834 0.11392 0.73693 0.0
O419 O 0.88223 0.13567 0.74503 0.0
O420 O 0.8692 0.1732 0.70677 0.0
O421 O 0.86432 0.19516 0.66652 0.0
H422 H 0.8454 0.22224 0.78957 0.0
H423 H 0.83363 0.11122 0.63084 0.0
O424 O 0.79414 0.14741 0.61558 0.0
H425 H 0.95772 0.16361 0.61302 0.0
H426 H 0.85723 0.20327 0.54411 0.0
H427 H 0.8384 0.23315 0.63991 0.0
H428 H 0.90774 0.18852 0.62754 0.0
H429 H 0.84338 0.16817 0.5813 0.0
O430 O 0.83172 0.11759 0.72125 0.0
H431 H 0.84419 0.20731 0.74072 0.0
H432 H 0.79026 0.12565 0.76307 0.0
H433 H 0.85259 0.26897 0.60342 0.0
H434 H 0.88277 0.08546 0.61606 0.0
H435 H 0.86209 0.25411 0.5551 0.0
H436 H 0.94534 0.1117 0.60709 0.0
O437 O 0.78874 0.19095 0.65493 0.0
H438 H 0.70971 0.07694 0.6954 0.0
H439 H 0.74876 0.1725 0.73264 0.0
H440 H 0.68353 0.15096 0.7349 0.0
H441 H 0.66364 0.1028 0.71629 0.0
H442 H 0.77465 0.0994 0.69327 0.0
H443 H 0.79102 0.13969 0.81217 0.0
H444 H 0.81868 0.18832 0.82569 0.0
O445 O 0.80079 0.19116 0.70046 0.0
C446 C 0.88117 0.19222 0.6891 0.0
C447 C 0.83327 0.201 0.78393 0.0
C448 C 0.80275 0.15467 0.79662 0.0
N449 N 0.8172 0.16564 0.74901 0.0
C450 C 0.8325 0.19241 0.7563 0.0
C451 C 0.80245 0.14683 0.76878 0.0
C452 C 0.81827 0.18195 0.80419 0.0
C453 C 0.86076 0.12277 0.62681 0.0
N454 N 0.86776 0.15133 0.62992 0.0
C455 C 0.88848 0.10808 0.61852 0.0
C456 C 0.9236 0.12282 0.61351 0.0
C457 C 0.93056 0.15193 0.61685 0.0
C458 C 0.90216 0.16592 0.62516 0.0
C459 C 0.85314 0.21001 0.56508 0.0
C460 C 0.8426 0.22649 0.61896 0.0
C461 C 0.84514 0.19022 0.58621 0.0
N462 N 0.84012 0.19857 0.61279 0.0
C463 C 0.85059 0.24688 0.59837 0.0
C464 C 0.85589 0.23853 0.57126 0.0
C465 C 0.78591 0.20045 0.67932 0.0
C466 C 0.71807 0.0979 0.70367 0.0
C467 C 0.74034 0.15156 0.7244 0.0
C468 C 0.70336 0.13946 0.7258 0.0
C469 C 0.69222 0.11243 0.71536 0.0
N470 N 0.76558 0.13713 0.71301 0.0
C471 C 0.75482 0.11068 0.70262 0.0
Co472 Co 0.18395 0.34238 0.64955 0.0
Co473 Co 0.19155 0.35196 0.71964 0.0
O474 O 0.19732 0.36723 0.68158 0.0
C475 C 0.25005 0.38409 0.62844 0.0
O476 O 0.2533 0.3995 0.65099 0.0
C477 C 0.16421 0.40739 0.72439 0.0
O478 O 0.14868 0.40349 0.69996 0.0
O479 O 0.13809 0.33865 0.71314 0.0
O480 O 0.14231 0.3203 0.6709 0.0
H481 H 0.14656 0.27889 0.79138 0.0
H482 H 0.18816 0.40467 0.6441 0.0
O483 O 0.22503 0.36261 0.6261 0.0
H484 H 0.06395 0.36369 0.61298 0.0
H485 H 0.16249 0.31822 0.54873 0.0
H486 H 0.16245 0.28064 0.64357 0.0
H487 H 0.10708 0.33315 0.62856 0.0
H488 H 0.17822 0.35014 0.58841 0.0
O489 O 0.18151 0.38899 0.73443 0.0
H490 H 0.15461 0.2982 0.74418 0.0
H491 H 0.21573 0.37412 0.77558 0.0
H492 H 0.14617 0.24802 0.60451 0.0
H493 H 0.14626 0.43594 0.62823 0.0
H494 H 0.14613 0.26677 0.55667 0.0
H495 H 0.0835 0.41553 0.61255 0.0
O496 O 0.21812 0.31735 0.66261 0.0
H497 H 0.30879 0.42149 0.71589 0.0
H498 H 0.25263 0.32523 0.74249 0.0
H499 H 0.31906 0.34055 0.74901 0.0
H500 H 0.34757 0.38903 0.73575 0.0
H501 H 0.24247 0.40519 0.70944 0.0
H502 H 0.20806 0.35569 0.82314 0.0
H503 H 0.1734 0.30769 0.83128 0.0
O504 O 0.20206 0.31437 0.70725 0.0
C505 C 0.1248 0.32249 0.69337 0.0
C506 C 0.16176 0.29982 0.7881 0.0
C507 C 0.19624 0.34293 0.80592 0.0
N508 N 0.1857 0.33725 0.75706 0.0
C509 C 0.16646 0.31087 0.76139 0.0
C510 C 0.20038 0.35329 0.77894 0.0
C511 C 0.17681 0.31599 0.81048 0.0
C512 C 0.16136 0.39548 0.63682 0.0
N513 N 0.1506 0.36697 0.63677 0.0
C514 C 0.13751 0.41337 0.62807 0.0
C515 C 0.10228 0.40192 0.61935 0.0
C516 C 0.0913 0.37286 0.6196 0.0
C517 C 0.11589 0.35565 0.62851 0.0
C518 C 0.16236 0.3098 0.56948 0.0
C519 C 0.16231 0.28899 0.62284 0.0
C520 C 0.17135 0.32776 0.59203 0.0
N521 N 0.17103 0.31728 0.61833 0.0
C522 C 0.15315 0.2704 0.60079 0.0
C523 C 0.15317 0.28093 0.57395 0.0
C524 C 0.21752 0.3056 0.68617 0.0
C525 C 0.29668 0.40033 0.7218 0.0
C526 C 0.26482 0.34632 0.73652 0.0
C527 C 0.30246 0.3549 0.74035 0.0
C528 C 0.31843 0.3821 0.73292 0.0
N529 N 0.24365 0.36433 0.72561 0.0
C530 C 0.25913 0.39102 0.71826 0.0
Co531 Co 0.59769 0.12988 0.33801 0.0
Co532 Co 0.68036 0.12868 0.37062 0.0
O533 O 0.62848 0.13334 0.37136 0.0
C534 C 0.58459 0.18495 0.36062 0.0
O535 O 0.62023 0.19246 0.36324 0.0
C536 C 0.65078 0.10495 0.4261 0.0
O537 O 0.61731 0.10844 0.41986 0.0
O538 O 0.66705 0.09112 0.35212 0.0
O539 O 0.62239 0.09896 0.3232 0.0
H540 H 0.79357 0.1043 0.32553 0.0
H541 H 0.56074 0.12784 0.39253 0.0
O542 O 0.5714 0.16054 0.3516 0.0
H543 H 0.51339 0.03695 0.34808 0.0
H544 H 0.47962 0.12699 0.28525 0.0
H545 H 0.61192 0.12358 0.27817 0.0
H546 H 0.55789 0.07246 0.3239 0.0
H547 H 0.51823 0.13018 0.3271 0.0
O548 O 0.6765 0.11005 0.40825 0.0
H549 H 0.72905 0.1114 0.32742 0.0
H550 H 0.74128 0.13472 0.41213 0.0
H551 H 0.57426 0.12009 0.2358 0.0
H552 H 0.51585 0.09307 0.41736 0.0
H553 H 0.5076 0.1218 0.23919 0.0
H554 H 0.49198 0.04719 0.39515 0.0
O555 O 0.63405 0.15836 0.31867 0.0
H556 H 0.66431 0.20591 0.4379 0.0
H557 H 0.73973 0.17789 0.36206 0.0
H558 H 0.7562 0.22486 0.3829 0.0
H559 H 0.71852 0.23914 0.42129 0.0
H560 H 0.64843 0.15948 0.41616 0.0
H561 H 0.80578 0.12757 0.4112 0.0
H562 H 0.8324 0.1124 0.36763 0.0
O563 O 0.68756 0.14786 0.33372 0.0
C564 C 0.646 0.08422 0.33136 0.0
C565 C 0.78231 0.111 0.34461 0.0
C566 C 0.78915 0.12401 0.39271 0.0
N567 N 0.73142 0.12363 0.36979 0.0
C568 C 0.74582 0.11512 0.34579 0.0
C569 C 0.75254 0.12791 0.39313 0.0
C570 C 0.80408 0.11551 0.36825 0.0
C571 C 0.55037 0.10797 0.3827 0.0
N572 N 0.5622 0.10211 0.3569 0.0
C573 C 0.52501 0.08834 0.39687 0.0
C574 C 0.51165 0.06259 0.38441 0.0
C575 C 0.5237 0.05682 0.35803 0.0
C576 C 0.54911 0.07694 0.3445 0.0
C577 C 0.50862 0.12617 0.2835 0.0
C578 C 0.58289 0.12418 0.27983 0.0
C579 C 0.53064 0.12803 0.30713 0.0
N580 N 0.56725 0.12688 0.3051 0.0
C581 C 0.56173 0.12226 0.25576 0.0
C582 C 0.52434 0.12325 0.25767 0.0
C583 C 0.66892 0.16097 0.31756 0.0
C584 C 0.68117 0.19985 0.42137 0.0
C585 C 0.72311 0.18384 0.37869 0.0
C586 C 0.73264 0.21052 0.39046 0.0
C587 C 0.71151 0.21851 0.41199 0.0
N588 N 0.69352 0.16544 0.38815 0.0
C589 C 0.67249 0.17334 0.40909 0.0
Co590 Co 0.64275 0.65854 0.68018 0.0
Co591 Co 0.69196 0.69704 0.63004 0.0
O592 O 0.67437 0.6605 0.64741 0.0
C593 C 0.6948 0.62035 0.6994 0.0
O594 O 0.72314 0.64031 0.69551 0.0
C595 C 0.68525 0.6542 0.58301 0.0
O596 O 0.67344 0.6331 0.59958 0.0
O597 O 0.64006 0.70266 0.6246 0.0
O598 O 0.62067 0.69188 0.66769 0.0
H599 H 0.69307 0.80033 0.61497 0.0
H600 H 0.64114 0.60724 0.64612 0.0
O601 O 0.66251 0.62462 0.69371 0.0
H602 H 0.51405 0.62616 0.64556 0.0
H603 H 0.55911 0.60921 0.7536 0.0
H604 H 0.62282 0.70079 0.71956 0.0
H605 H 0.56227 0.65691 0.67155 0.0
H606 H 0.59745 0.61193 0.71163 0.0
O607 O 0.69172 0.67939 0.59212 0.0
H608 H 0.67318 0.75417 0.63686 0.0
H609 H 0.74584 0.71755 0.58545 0.0
H610 H 0.58447 0.69906 0.76147 0.0
H611 H 0.59367 0.57577 0.62003 0.0
H612 H 0.55229 0.65302 0.77876 0.0
H613 H 0.5296 0.5852 0.6196 0.0
O614 O 0.68209 0.68412 0.70009 0.0
H615 H 0.79614 0.64133 0.63277 0.0
H616 H 0.75969 0.73361 0.65031 0.0
H617 H 0.82337 0.72727 0.6592 0.0
H618 H 0.84209 0.68091 0.65028 0.0
H619 H 0.7328 0.64843 0.62452 0.0
H620 H 0.76619 0.76327 0.56281 0.0
H621 H 0.73989 0.8051 0.57764 0.0
O622 O 0.69394 0.71673 0.66693 0.0
C623 C 0.61723 0.7034 0.64428 0.0
C624 C 0.7048 0.78227 0.60837 0.0
C625 C 0.7458 0.76146 0.57907 0.0
N626 N 0.70845 0.73319 0.61258 0.0
C627 C 0.6937 0.75608 0.62074 0.0
C628 C 0.73405 0.7356 0.5919 0.0
C629 C 0.73104 0.78493 0.58741 0.0
C630 C 0.61331 0.61143 0.64607 0.0
N631 N 0.60457 0.63395 0.66025 0.0
C632 C 0.58655 0.59356 0.63125 0.0
C633 C 0.55061 0.59887 0.631 0.0
C634 C 0.54188 0.62186 0.64554 0.0
C635 C 0.56935 0.63927 0.66013 0.0
C636 C 0.57298 0.62941 0.74626 0.0
C637 C 0.6088 0.68068 0.72688 0.0
C638 C 0.59483 0.63107 0.72255 0.0
N639 N 0.61227 0.65651 0.71307 0.0
C640 C 0.58717 0.67983 0.75066 0.0
C641 C 0.56914 0.65399 0.76036 0.0
C642 C 0.69606 0.70875 0.69198 0.0
C643 C 0.78845 0.66174 0.63641 0.0
C644 C 0.76756 0.71339 0.64612 0.0
C645 C 0.80371 0.70993 0.65129 0.0
C646 C 0.81419 0.68392 0.6463 0.0
N647 N 0.74249 0.69166 0.63599 0.0
C648 C 0.75253 0.66599 0.63148 0.0
Co649 Co 0.64194 0.38211 0.80872 0.0
Co650 Co 0.69855 0.34231 0.84164 0.0
O651 O 0.6842 0.37911 0.83291 0.0
C652 C 0.6988 0.43332 0.79241 0.0
O653 O 0.72428 0.42684 0.80894 0.0
C654 C 0.71302 0.3761 0.89534 0.0
O655 O 0.701 0.39817 0.88533 0.0
O656 O 0.64817 0.32738 0.855 0.0
O657 O 0.61386 0.34636 0.82441 0.0
H658 H 0.68265 0.23666 0.84051 0.0
H659 H 0.67229 0.43 0.84543 0.0
O660 O 0.66723 0.41801 0.79124 0.0
H661 H 0.54208 0.4052 0.87144 0.0
H662 H 0.55058 0.43205 0.76017 0.0
H663 H 0.59212 0.34107 0.77477 0.0
H664 H 0.56798 0.37932 0.83439 0.0
H665 H 0.60288 0.42872 0.79094 0.0
O666 O 0.71312 0.35417 0.88058 0.0
H667 H 0.66593 0.28292 0.82993 0.0
H668 H 0.76103 0.32389 0.87182 0.0
H669 H 0.53943 0.34342 0.74408 0.0
H670 H 0.64749 0.45675 0.88226 0.0
H671 H 0.51835 0.38917 0.7366 0.0
H672 H 0.58191 0.44436 0.8956 0.0
O673 O 0.66287 0.36085 0.77894 0.0
H674 H 0.81461 0.41324 0.83299 0.0
H675 H 0.75018 0.32019 0.80334 0.0
H676 H 0.81198 0.33778 0.78527 0.0
H677 H 0.84478 0.38457 0.8002 0.0
H678 H 0.75261 0.39508 0.85017 0.0
H679 H 0.77857 0.27804 0.88305 0.0
H680 H 0.73934 0.234 0.86726 0.0
O681 O 0.68467 0.32797 0.80372 0.0
C682 C 0.61755 0.3286 0.84333 0.0
C683 C 0.70001 0.2557 0.84747 0.0
C684 C 0.75381 0.27892 0.87137 0.0
N685 N 0.71249 0.30613 0.85017 0.0
C686 C 0.69072 0.28198 0.84149 0.0
C687 C 0.74365 0.30483 0.86503 0.0
C688 C 0.7318 0.25422 0.8625 0.0
C689 C 0.64371 0.42461 0.85083 0.0
N690 N 0.62168 0.40311 0.83762 0.0
C691 C 0.62982 0.43978 0.87185 0.0
C692 C 0.59305 0.43279 0.87936 0.0
C693 C 0.57071 0.41081 0.86584 0.0
C694 C 0.58559 0.39611 0.84495 0.0
C695 C 0.55947 0.41199 0.7633 0.0
C696 C 0.58297 0.36103 0.77177 0.0
C697 C 0.58914 0.40997 0.78064 0.0
N698 N 0.60041 0.38467 0.78481 0.0
C699 C 0.55318 0.36224 0.7543 0.0
C700 C 0.54139 0.38792 0.75009 0.0
C701 C 0.67521 0.3378 0.78093 0.0
C702 C 0.80071 0.39273 0.82647 0.0
C703 C 0.76413 0.34062 0.80993 0.0
C704 C 0.79921 0.35043 0.79964 0.0
C705 C 0.8176 0.37667 0.80803 0.0
N706 N 0.74777 0.3564 0.82818 0.0
C707 C 0.76559 0.38222 0.83633 0.0
Co708 Co 0.36268 0.12586 0.81475 0.0
Co709 Co 0.31352 0.17077 0.84752 0.0
O710 O 0.32266 0.13244 0.83947 0.0
C711 C 0.32468 0.08297 0.77594 0.0
O712 O 0.33355 0.10169 0.75634 0.0
C713 C 0.29434 0.13805 0.90117 0.0
O714 O 0.30278 0.11465 0.89109 0.0
O715 O 0.3649 0.18172 0.86046 0.0
O716 O 0.39485 0.16137 0.82781 0.0
H717 H 0.34346 0.27639 0.84526 0.0
H718 H 0.33035 0.08006 0.85245 0.0
O719 O 0.33196 0.08969 0.80121 0.0
H720 H 0.4612 0.10126 0.87786 0.0
H721 H 0.44655 0.06752 0.76821 0.0
H722 H 0.41261 0.16191 0.77661 0.0
H723 H 0.4368 0.12707 0.84009 0.0
H724 H 0.39699 0.07579 0.79979 0.0
O725 O 0.2978 0.16034 0.88657 0.0
H726 H 0.35336 0.22811 0.83505 0.0
H727 H 0.25532 0.19484 0.87779 0.0
H728 H 0.4625 0.15461 0.7449 0.0
H729 H 0.35368 0.05345 0.89016 0.0
H730 H 0.47973 0.10713 0.74053 0.0
H731 H 0.41954 0.06406 0.90314 0.0
O732 O 0.34219 0.14729 0.78498 0.0
H733 H 0.19141 0.10709 0.83773 0.0
H734 H 0.26532 0.19742 0.81006 0.0
H735 H 0.20263 0.18423 0.79189 0.0
H736 H 0.16505 0.13885 0.80586 0.0
H737 H 0.25437 0.12085 0.85501 0.0
H738 H 0.24456 0.24279 0.88865 0.0
H739 H 0.28873 0.28399 0.87224 0.0
O740 O 0.32868 0.18372 0.80935 0.0
C741 C 0.39416 0.17917 0.84738 0.0
C742 C 0.32398 0.25861 0.85248 0.0
C743 C 0.26851 0.23975 0.87687 0.0
N744 N 0.30493 0.20862 0.85574 0.0
C745 C 0.3294 0.2312 0.84672 0.0
C746 C 0.27484 0.21264 0.87074 0.0
C747 C 0.29329 0.26286 0.86765 0.0
C748 C 0.35907 0.08471 0.85791 0.0
N749 N 0.38212 0.10518 0.84414 0.0
C750 C 0.37211 0.06962 0.87931 0.0
C751 C 0.40906 0.0756 0.8866 0.0
C752 C 0.43243 0.09649 0.87246 0.0
C753 C 0.4184 0.11116 0.85118 0.0
C754 C 0.43932 0.08832 0.76995 0.0
C755 C 0.42002 0.14121 0.77488 0.0
C756 C 0.41126 0.09312 0.78777 0.0
N757 N 0.40196 0.11934 0.79008 0.0
C758 C 0.44827 0.13719 0.75687 0.0
C759 C 0.45792 0.11055 0.75442 0.0
C760 C 0.33376 0.17177 0.78654 0.0
C761 C 0.20738 0.12705 0.83171 0.0
C762 C 0.24921 0.17765 0.81635 0.0
C763 C 0.21367 0.1703 0.80595 0.0
C764 C 0.19262 0.14484 0.81378 0.0
N765 N 0.26342 0.16024 0.83421 0.0
C766 C 0.24306 0.13508 0.84165 0.0
Co767 Co 0.40246 0.38577 0.34996 0.0
Co768 Co 0.31891 0.38255 0.38388 0.0
O769 O 0.3716 0.37991 0.38332 0.0
C770 C 0.41454 0.3287 0.36777 0.0
O771 O 0.37894 0.32144 0.37093 0.0
C772 C 0.34999 0.41013 0.43736 0.0
O773 O 0.38373 0.40979 0.42917 0.0
O774 O 0.32839 0.42 0.36482 0.0
O775 O 0.37861 0.41839 0.33882 0.0
H776 H 0.20054 0.39992 0.34155 0.0
H777 H 0.43858 0.38248 0.40431 0.0
O778 O 0.42795 0.35359 0.36024 0.0
H779 H 0.49007 0.47586 0.36703 0.0
H780 H 0.5201 0.39153 0.29595 0.0
H781 H 0.38852 0.39817 0.2913 0.0
H782 H 0.44469 0.44323 0.34027 0.0
H783 H 0.48163 0.38507 0.33789 0.0
O784 O 0.32306 0.40172 0.42126 0.0
H785 H 0.26628 0.39623 0.34181 0.0
H786 H 0.25999 0.37439 0.427 0.0
H787 H 0.42608 0.40503 0.24888 0.0
H788 H 0.48447 0.41418 0.43157 0.0
H789 H 0.49237 0.4017 0.25106 0.0
H790 H 0.51035 0.46133 0.41302 0.0
O791 O 0.36586 0.35939 0.32814 0.0
H792 H 0.34349 0.30902 0.45225 0.0
H793 H 0.26375 0.33048 0.37625 0.0
H794 H 0.25216 0.28366 0.39793 0.0
H795 H 0.29207 0.27269 0.43635 0.0
H796 H 0.35445 0.35534 0.42973 0.0
H797 H 0.19428 0.3781 0.4277 0.0
H798 H 0.16407 0.39084 0.38473 0.0
O799 O 0.31165 0.36294 0.34744 0.0
C800 C 0.35181 0.4302 0.34649 0.0
C801 C 0.21338 0.39434 0.3604 0.0
C802 C 0.20988 0.38214 0.40876 0.0
N803 N 0.26701 0.3851 0.38436 0.0
C804 C 0.2506 0.39219 0.36067 0.0
C805 C 0.24716 0.38019 0.40826 0.0
C806 C 0.19294 0.38926 0.38464 0.0
C807 C 0.44986 0.40291 0.39605 0.0
N808 N 0.43854 0.41119 0.37093 0.0
C809 C 0.47577 0.4208 0.4116 0.0
C810 C 0.49025 0.44726 0.4012 0.0
C811 C 0.47882 0.45545 0.37543 0.0
C812 C 0.45285 0.437 0.36048 0.0
C813 C 0.49126 0.39307 0.29474 0.0
C814 C 0.4174 0.39687 0.29243 0.0
C815 C 0.46931 0.38935 0.31841 0.0
N816 N 0.4329 0.39141 0.31707 0.0
C817 C 0.4385 0.40069 0.26834 0.0
C818 C 0.47569 0.39879 0.26956 0.0
C819 C 0.33092 0.35369 0.32879 0.0
C820 C 0.32572 0.31361 0.43567 0.0
C821 C 0.2813 0.32594 0.3929 0.0
C822 C 0.27455 0.29936 0.40514 0.0
C823 C 0.29693 0.29322 0.4267 0.0
N824 N 0.3094 0.34598 0.40194 0.0
C825 C 0.33163 0.33997 0.42294 0.0
Co826 Co 0.32038 0.66704 0.1514 0.0
Co827 Co 0.31968 0.65799 0.22163 0.0
O828 O 0.31095 0.6425 0.18395 0.0
C829 C 0.25072 0.64995 0.11998 0.0
O830 O 0.24211 0.67458 0.12608 0.0
C831 C 0.33663 0.5982 0.22468 0.0
O832 O 0.33146 0.59436 0.198 0.0
O833 O 0.37175 0.67288 0.21184 0.0
O834 O 0.36189 0.69172 0.17076 0.0
H835 H 0.36812 0.73314 0.29067 0.0
H836 H 0.31735 0.60579 0.14334 0.0
O837 O 0.27959 0.64261 0.13027 0.0
H838 H 0.4413 0.64907 0.11314 0.0
H839 H 0.33622 0.68914 0.04972 0.0
H840 H 0.33398 0.72888 0.14363 0.0
H841 H 0.39732 0.67854 0.12985 0.0
H842 H 0.3261 0.65803 0.09039 0.0
O843 O 0.33429 0.62189 0.23577 0.0
H844 H 0.35566 0.71309 0.24404 0.0
H845 H 0.30392 0.63571 0.27885 0.0
H846 H 0.34458 0.76081 0.10359 0.0
H847 H 0.36035 0.57552 0.12645 0.0
H848 H 0.34567 0.74097 0.05619 0.0
H849 H 0.42287 0.59715 0.11126 0.0
O850 O 0.28559 0.69077 0.16628 0.0
H851 H 0.2028 0.58718 0.22253 0.0
H852 H 0.26107 0.68253 0.25044 0.0
H853 H 0.19609 0.66613 0.26169 0.0
H854 H 0.16653 0.61805 0.24789 0.0
H855 H 0.26744 0.60451 0.21136 0.0
H856 H 0.31616 0.65487 0.32585 0.0
H857 H 0.34831 0.70397 0.332 0.0
O858 O 0.30528 0.69465 0.21011 0.0
C859 C 0.38193 0.68989 0.19201 0.0
C860 C 0.35401 0.71173 0.28826 0.0
C861 C 0.3249 0.6678 0.308 0.0
N862 N 0.32892 0.67329 0.25866 0.0
C863 C 0.3468 0.70027 0.26189 0.0
C864 C 0.31816 0.65703 0.28132 0.0
C865 C 0.34292 0.69535 0.31144 0.0
C866 C 0.34445 0.61536 0.13665 0.0
N867 N 0.3548 0.64389 0.13767 0.0
C868 C 0.36871 0.59811 0.12716 0.0
C869 C 0.40379 0.61026 0.11867 0.0
C870 C 0.41416 0.63938 0.11975 0.0
C871 C 0.38918 0.65596 0.12938 0.0
C872 C 0.33571 0.69805 0.07025 0.0
C873 C 0.3344 0.72006 0.12309 0.0
C874 C 0.32981 0.68051 0.09335 0.0
N875 N 0.32917 0.69157 0.11937 0.0
C876 C 0.34043 0.73826 0.10049 0.0
C877 C 0.34103 0.72712 0.0739 0.0
C878 C 0.28772 0.7028 0.18981 0.0
C879 C 0.21547 0.60807 0.22892 0.0
C880 C 0.24855 0.66152 0.24443 0.0
C881 C 0.21167 0.65237 0.25084 0.0
C882 C 0.19511 0.62541 0.24309 0.0
N883 N 0.26858 0.64425 0.23086 0.0
C884 C 0.2523 0.61794 0.22284 0.0
Co885 Co 0.68359 0.84293 0.14319 0.0
Co886 Co 0.69089 0.85357 0.21311 0.0
O887 O 0.69647 0.86841 0.17486 0.0
C888 C 0.74893 0.885 0.1213 0.0
O889 O 0.75196 0.90093 0.14349 0.0
C890 C 0.66236 0.90867 0.2176 0.0
O891 O 0.64658 0.90453 0.19328 0.0
O892 O 0.63753 0.83978 0.20661 0.0
O893 O 0.64238 0.82069 0.16481 0.0
H894 H 0.6465 0.78114 0.28558 0.0
H895 H 0.68635 0.90497 0.1368 0.0
O896 O 0.72428 0.86324 0.11943 0.0
H897 H 0.56262 0.86195 0.10635 0.0
H898 H 0.66234 0.81698 0.04274 0.0
H899 H 0.6636 0.78099 0.13813 0.0
H900 H 0.60664 0.83232 0.12238 0.0
H901 H 0.67744 0.84963 0.08194 0.0
O902 O 0.68029 0.8906 0.22752 0.0
H903 H 0.65445 0.79993 0.23818 0.0
H904 H 0.71488 0.87645 0.26885 0.0
H905 H 0.64798 0.74764 0.09956 0.0
H906 H 0.64353 0.93532 0.12051 0.0
H907 H 0.64729 0.76558 0.05145 0.0
H908 H 0.58102 0.91388 0.10515 0.0
O909 O 0.71849 0.81869 0.15667 0.0
H910 H 0.80731 0.9239 0.20867 0.0
H911 H 0.75244 0.82773 0.23648 0.0
H912 H 0.81876 0.84368 0.24295 0.0
H913 H 0.84662 0.89213 0.22908 0.0
H914 H 0.74112 0.90697 0.20229 0.0
H915 H 0.7073 0.85854 0.3166 0.0
H916 H 0.67303 0.81051 0.32521 0.0
O917 O 0.702 0.81598 0.20121 0.0
C918 C 0.6246 0.82316 0.18709 0.0
C919 C 0.66153 0.80209 0.28209 0.0
C920 C 0.69561 0.84554 0.2995 0.0
N921 N 0.68517 0.83926 0.25068 0.0
C922 C 0.66617 0.81285 0.25527 0.0
C923 C 0.6997 0.8556 0.27241 0.0
C924 C 0.6764 0.81858 0.30432 0.0
C925 C 0.65966 0.89534 0.12967 0.0
N926 N 0.64954 0.86678 0.13001 0.0
C927 C 0.63529 0.91271 0.12067 0.0
C928 C 0.6002 0.90067 0.11213 0.0
C929 C 0.58987 0.87156 0.11281 0.0
C930 C 0.61496 0.85487 0.12195 0.0
C931 C 0.6625 0.8089 0.06362 0.0
C932 C 0.66318 0.78899 0.11728 0.0
C933 C 0.67113 0.82728 0.0859 0.0
N934 N 0.67117 0.81725 0.11235 0.0
C935 C 0.65439 0.76999 0.09551 0.0
C936 C 0.65404 0.78007 0.06852 0.0
C937 C 0.71799 0.80725 0.18038 0.0
C938 C 0.79549 0.90277 0.21485 0.0
C939 C 0.76435 0.84879 0.23025 0.0
C940 C 0.80193 0.85774 0.23405 0.0
C941 C 0.81753 0.88492 0.22627 0.0
N942 N 0.7429 0.86644 0.21904 0.0
C943 C 0.75801 0.8931 0.21135 0.0
H944 H 0.23921 0.26445 0.18107 0.0
H945 H 0.19385 0.21222 0.24949 0.0
H946 H 0.27379 0.29746 0.21341 0.0
H947 H 0.22793 0.24588 0.28182 0.0
H948 H 0.25771 0.33189 0.32705 0.0
H949 H 0.22571 0.29791 0.29456 0.0
H950 H 0.32647 0.29758 0.2496 0.0
H951 H 0.35923 0.33131 0.28266 0.0
C952 C 0.23672 0.25983 0.20296 0.0
C953 C 0.21393 0.23541 0.21259 0.0
C954 C 0.25664 0.27881 0.22147 0.0
C955 C 0.25366 0.27417 0.25008 0.0
C956 C 0.23066 0.24998 0.25983 0.0
C957 C 0.21122 0.23069 0.24129 0.0
C958 C 0.27333 0.32457 0.31042 0.0
C959 C 0.3113 0.33422 0.30775 0.0
C960 C 0.25487 0.30499 0.29183 0.0
C961 C 0.27365 0.29493 0.26974 0.0
C962 C 0.31135 0.30502 0.2665 0.0
C963 C 0.33007 0.3243 0.28544 0.0
H964 H 0.80572 0.30613 0.24516 0.0
H965 H 0.76676 0.25449 0.17455 0.0
H966 H 0.77163 0.27071 0.27588 0.0
H967 H 0.7316 0.22007 0.20527 0.0
H968 H 0.64105 0.18901 0.2751 0.0
H969 H 0.67505 0.22374 0.24358 0.0
H970 H 0.77647 0.21365 0.28329 0.0
H971 H 0.74324 0.17817 0.31388 0.0
C972 C 0.78971 0.28746 0.23613 0.0
C973 C 0.78864 0.28346 0.20727 0.0
C974 C 0.77026 0.26723 0.25373 0.0
C975 C 0.74877 0.24293 0.24281 0.0
C976 C 0.7476 0.23886 0.2141 0.0
C977 C 0.76773 0.25868 0.19655 0.0
C978 C 0.67061 0.19404 0.27704 0.0
C979 C 0.68926 0.18098 0.29736 0.0
C980 C 0.68999 0.2139 0.25901 0.0
C981 C 0.72822 0.22151 0.26136 0.0
C982 C 0.74692 0.20837 0.28139 0.0
C983 C 0.72775 0.18806 0.29892 0.0
H984 H 0.31625 0.74995 0.21768 0.0
H985 H 0.22015 0.71177 0.1724 0.0
H986 H 0.28517 0.78871 0.23125 0.0
H987 H 0.18839 0.75048 0.18673 0.0
H988 H 0.14746 0.7924 0.27171 0.0
H989 H 0.17119 0.76106 0.23905 0.0
H990 H 0.2532 0.83 0.2119 0.0
H991 H 0.22862 0.86157 0.24419 0.0
C992 C 0.28866 0.75019 0.21021 0.0
C993 C 0.27047 0.72792 0.19411 0.0
C994 C 0.27099 0.77247 0.21777 0.0
C995 C 0.23447 0.77263 0.20989 0.0
C996 C 0.21666 0.75089 0.19287 0.0
C997 C 0.23476 0.72885 0.18469 0.0
C998 C 0.16936 0.80109 0.25774 0.0
C999 C 0.18605 0.82933 0.26012 0.0
C1000 C 0.18295 0.7832 0.23908 0.0
C1001 C 0.21407 0.79313 0.22304 0.0
C1002 C 0.22907 0.82191 0.22397 0.0
C1003 C 0.2149 0.83998 0.24224 0.0
H1004 H 0.86375 0.7294 0.26796 0.0
H1005 H 0.79205 0.65519 0.23934 0.0
H1006 H 0.83716 0.75792 0.23415 0.0
H1007 H 0.76447 0.6839 0.20593 0.0
H1008 H 0.78695 0.80126 0.16408 0.0
H1009 H 0.82204 0.7653 0.18034 0.0
H1010 H 0.72611 0.72317 0.22329 0.0
H1011 H 0.69165 0.75938 0.20785 0.0
C1012 C 0.8433 0.7191 0.25361 0.0
C1013 C 0.83016 0.69017 0.25588 0.0
C1014 C 0.8281 0.73536 0.23429 0.0
C1015 C 0.79881 0.72306 0.21747 0.0
C1016 C 0.7872 0.69379 0.21857 0.0
C1017 C 0.80308 0.67738 0.23749 0.0
C1018 C 0.77323 0.7838 0.17628 0.0
C1019 C 0.73672 0.78294 0.18475 0.0
C1020 C 0.79325 0.76336 0.18563 0.0
C1021 C 0.77665 0.74143 0.20289 0.0
C1022 C 0.73939 0.7396 0.20967 0.0
C1023 C 0.71975 0.76035 0.20096 0.0
H1024 H 0.27222 0.75391 0.67868 0.0
H1025 H 0.32053 0.80317 0.74822 0.0
H1026 H 0.23745 0.72036 0.71031 0.0
H1027 H 0.28642 0.76869 0.77988 0.0
H1028 H 0.25187 0.67871 0.82015 0.0
H1029 H 0.28596 0.71347 0.78918 0.0
H1030 H 0.18532 0.72343 0.74816 0.0
H1031 H 0.15066 0.68936 0.77978 0.0
C1032 C 0.27537 0.75775 0.70067 0.0
C1033 C 0.29885 0.7816 0.71083 0.0
C1034 C 0.25541 0.73843 0.71876 0.0
C1035 C 0.25913 0.74205 0.74746 0.0
C1036 C 0.28311 0.76547 0.75778 0.0
C1037 C 0.30252 0.78521 0.73965 0.0
C1038 C 0.23679 0.68842 0.80477 0.0
C1039 C 0.19833 0.68143 0.80281 0.0
C1040 C 0.25642 0.70836 0.78706 0.0
C1041 C 0.23821 0.72124 0.76649 0.0
C1042 C 0.19997 0.71379 0.76392 0.0
C1043 C 0.18018 0.69429 0.78204 0.0
H1044 H 0.72812 0.69909 0.74151 0.0
H1045 H 0.70575 0.76583 0.68781 0.0
H1046 H 0.7617 0.73426 0.77298 0.0
H1047 H 0.73867 0.80068 0.71934 0.0
H1048 H 0.76582 0.85273 0.80015 0.0
H1049 H 0.73123 0.81738 0.76971 0.0
H1050 H 0.82197 0.77141 0.76883 0.0
H1051 H 0.85693 0.80691 0.79895 0.0
C1052 C 0.73003 0.72121 0.73658 0.0
C1053 C 0.71432 0.72966 0.71217 0.0
C1054 C 0.74943 0.74129 0.75447 0.0
C1055 C 0.7528 0.77017 0.74854 0.0
C1056 C 0.73633 0.77859 0.72449 0.0
C1057 C 0.71761 0.75858 0.70641 0.0
C1058 C 0.77854 0.83522 0.79331 0.0
C1059 C 0.81426 0.83277 0.80184 0.0
C1060 C 0.75871 0.81498 0.7759 0.0
C1061 C 0.77386 0.79159 0.76706 0.0
C1062 C 0.80951 0.7891 0.77556 0.0
C1063 C 0.82963 0.80958 0.79257 0.0
H1064 H 0.64814 0.28326 0.771 0.0
H1065 H 0.71795 0.35542 0.73645 0.0
H1066 H 0.67121 0.25278 0.73716 0.0
H1067 H 0.7419 0.32476 0.70281 0.0
H1068 H 0.71451 0.20419 0.66815 0.0
H1069 H 0.68095 0.24105 0.68476 0.0
H1070 H 0.78177 0.28722 0.71782 0.0
H1071 H 0.81473 0.25024 0.70193 0.0
C1072 C 0.66739 0.29267 0.75538 0.0
C1073 C 0.68108 0.32161 0.75602 0.0
C1074 C 0.68057 0.27526 0.73602 0.0
C1075 C 0.70838 0.28641 0.71741 0.0
C1076 C 0.72036 0.31569 0.71689 0.0
C1077 C 0.70652 0.33323 0.73594 0.0
C1078 C 0.72946 0.22268 0.67824 0.0
C1079 C 0.76705 0.22462 0.68377 0.0
C1080 C 0.71036 0.24365 0.68779 0.0
C1081 C 0.72884 0.26705 0.70241 0.0
C1082 C 0.76693 0.26969 0.70624 0.0
C1083 C 0.78575 0.24851 0.69729 0.0
H1084 H 0.28616 0.29896 0.66972 0.0
H1085 H 0.19004 0.25751 0.71282 0.0
H1086 H 0.32037 0.26232 0.68562 0.0
H1087 H 0.22362 0.22064 0.72791 0.0
H1088 H 0.28813 0.15205 0.74432 0.0
H1089 H 0.26162 0.18106 0.71059 0.0
H1090 H 0.33474 0.25458 0.73944 0.0
H1091 H 0.36025 0.22582 0.77355 0.0
C1092 C 0.27205 0.28144 0.68167 0.0
C1093 C 0.2356 0.2809 0.6901 0.0
C1094 C 0.29157 0.26061 0.6908 0.0
C1095 C 0.2745 0.23862 0.70781 0.0
C1096 C 0.23725 0.2371 0.71447 0.0
C1097 C 0.21811 0.25823 0.70598 0.0
C1098 C 0.29949 0.17419 0.74256 0.0
C1099 C 0.32626 0.18679 0.7613 0.0
C1100 C 0.28423 0.19077 0.72345 0.0
C1101 C 0.29623 0.22 0.72245 0.0
C1102 C 0.32536 0.23206 0.73952 0.0
C1103 C 0.33992 0.21565 0.75904 0.0
H1104 H 0.21416 0.9549 0.22463 0.0
H1105 H 0.18204 0.98044 0.30546 0.0
H1106 H 0.21932 1.00335 0.2084 0.0
H1107 H 0.1871 0.0289 0.28912 0.0
H1108 H 0.14025 0.0945 0.23434 0.0
H1109 H 0.14764 0.04974 0.25489 0.0
H1110 H 0.25227 0.05392 0.21404 0.0
H1111 H 0.24501 0.09921 0.19342 0.0
C1112 C 0.20896 0.97095 0.23911 0.0
C1113 C 0.19748 0.96373 0.2663 0.0
C1114 C 0.21205 0.99875 0.22981 0.0
C1115 C 0.20326 0.01991 0.24738 0.0
C1116 C 0.19368 0.01299 0.27501 0.0
C1117 C 0.19107 0.98525 0.28443 0.0
C1118 C 0.16499 0.08604 0.22981 0.0
C1119 C 0.19198 0.10041 0.21211 0.0
C1120 C 0.16936 0.06046 0.24182 0.0
C1121 C 0.20062 0.04832 0.23622 0.0
C1122 C 0.22785 0.06274 0.21871 0.0
C1123 C 0.22374 0.08868 0.20698 0.0
H1124 H 0.78399 0.44536 0.1709 0.0
H1125 H 0.82751 0.41185 0.24426 0.0
H1126 H 0.77903 0.4888 0.19609 0.0
H1127 H 0.82152 0.4549 0.26952 0.0
H1128 H 0.77424 0.53002 0.30965 0.0
H1129 H 0.76803 0.48517 0.28431 0.0
H1130 H 0.83427 0.52648 0.21808 0.0
H1131 H 0.84147 0.57086 0.2436 0.0
C1132 C 0.79177 0.44702 0.19251 0.0
C1133 C 0.80624 0.42521 0.20556 0.0
C1134 C 0.78903 0.47189 0.20688 0.0
C1135 C 0.79979 0.47512 0.23475 0.0
C1136 C 0.81272 0.45284 0.24813 0.0
C1137 C 0.8163 0.42829 0.23362 0.0
C1138 C 0.787 0.52954 0.28952 0.0
C1139 C 0.80836 0.55391 0.27861 0.0
C1140 C 0.78359 0.50391 0.27511 0.0
C1141 C 0.80059 0.50244 0.24922 0.0
C1142 C 0.82063 0.52707 0.23787 0.0
C1143 C 0.82484 0.55242 0.25253 0.0
H1144 H 0.25567 0.09396 0.93049 0.0
H1145 H 0.29325 0.18356 0.93408 0.0
H1146 H 0.22158 0.09655 0.97358 0.0
H1147 H 0.2611 0.18608 0.97748 0.0
H1148 H 0.17509 0.19183 0.03969 0.0
H1149 H 0.20269 0.18493 0.99509 0.0
H1150 H 0.22363 0.1035 0.02192 0.0
H1151 H 0.19394 0.10996 0.0661 0.0
C1152 C 0.25718 0.11411 0.94075 0.0
C1153 C 0.27699 0.13857 0.9288 0.0
C1154 C 0.23764 0.11564 0.96549 0.0
C1155 C 0.23788 0.14163 0.97898 0.0
C1156 C 0.25904 0.16581 0.9674 0.0
C1157 C 0.27795 0.16434 0.94259 0.0
C1158 C 0.18489 0.1722 0.0358 0.0
C1159 C 0.18233 0.15145 0.05637 0.0
C1160 C 0.20126 0.16835 0.01034 0.0
C1161 C 0.21642 0.14392 1.00494 0.0
C1162 C 0.21223 0.12254 0.02512 0.0
C1163 C 0.19513 0.1262 0.0505 0.0
H1164 H 0.80374 0.40992 0.06272 0.0
H1165 H 0.83609 0.33214 0.03614 0.0
H1166 H 0.77508 0.41448 0.01775 0.0
H1167 H 0.80954 0.3373 0.99082 0.0
H1168 H 0.72009 0.33149 0.92785 0.0
H1169 H 0.75141 0.33131 0.97184 0.0
H1170 H 0.77804 0.42209 0.96948 0.0
H1171 H 0.7447 0.42217 0.9257 0.0
C1172 C 0.80576 0.39428 0.04692 0.0
C1173 C 0.82204 0.37062 0.05295 0.0
C1174 C 0.78925 0.39683 0.0211 0.0
C1175 C 0.78913 0.37595 1.00063 0.0
C1176 C 0.8078 0.35335 1.00623 0.0
C1177 C 0.82358 0.35054 0.03213 0.0
C1178 C 0.7324 0.35146 0.93678 0.0
C1179 C 0.72996 0.37684 0.92322 0.0
C1180 C 0.75085 0.35138 0.96196 0.0
C1181 C 0.76817 0.37666 0.97417 0.0
C1182 C 0.765 0.40218 0.96089 0.0
C1183 C 0.74589 0.40227 0.93576 0.0
H1184 H 0.31716 0.90859 0.56558 0.0
H1185 H 0.3389 0.82759 0.53865 0.0
H1186 H 0.28783 0.91484 0.52122 0.0
H1187 H 0.31166 0.8343 0.49391 0.0
H1188 H 0.22125 0.83431 0.4326 0.0
H1189 H 0.25314 0.83219 0.47614 0.0
H1190 H 0.29032 0.92205 0.47284 0.0
H1191 H 0.25649 0.92421 0.42958 0.0
C1192 C 0.31669 0.89253 0.54983 0.0
C1193 C 0.33018 0.86755 0.5556 0.0
C1194 C 0.29981 0.89606 0.52436 0.0
C1195 C 0.29651 0.87482 0.50399 0.0
C1196 C 0.3124 0.85073 0.50929 0.0
C1197 C 0.32855 0.847 0.53484 0.0
C1198 C 0.23598 0.85368 0.44126 0.0
C1199 C 0.23638 0.87942 0.42759 0.0
C1200 C 0.25475 0.85245 0.46616 0.0
C1201 C 0.27519 0.87685 0.47794 0.0
C1202 C 0.27483 0.9028 0.46458 0.0
C1203 C 0.25544 0.90408 0.43974 0.0
H1204 H 0.68864 0.68926 0.53875 0.0
H1205 H 0.71068 0.60767 0.56328 0.0
H1206 H 0.71592 0.68377 0.49376 0.0
H1207 H 0.7402 0.60269 0.51874 0.0
H1208 H 0.76957 0.59448 0.42667 0.0
H1209 H 0.73735 0.5961 0.47073 0.0
H1210 H 0.77296 0.68617 0.47412 0.0
H1211 H 0.80297 0.68453 0.42969 0.0
C1212 C 0.69925 0.67005 0.53442 0.0
C1213 C 0.69749 0.64891 0.55455 0.0
C1214 C 0.71542 0.66701 0.5087 0.0
C1215 C 0.73125 0.64303 0.50257 0.0
C1216 C 0.72822 0.62138 0.52244 0.0
C1217 C 0.71127 0.62421 0.54805 0.0
C1218 C 0.77062 0.61453 0.43704 0.0
C1219 C 0.78862 0.63938 0.42465 0.0
C1220 C 0.75217 0.61551 0.46235 0.0
C1221 C 0.75181 0.64135 0.47603 0.0
C1222 C 0.77131 0.66596 0.46398 0.0
C1223 C 0.78903 0.66502 0.43857 0.0
H1224 H 0.93388 0.30485 0.09902 0.0
H1225 H 0.92223 0.28604 0.18611 0.0
H1226 H 0.98868 0.2823 0.0974 0.0
H1227 H 0.97488 0.26225 0.18437 0.0
H1228 H 0.08902 0.24607 0.18516 0.0
H1229 H 0.03741 0.27112 0.18271 0.0
H1230 H 0.0156 0.24132 0.09892 0.0
H1231 H 0.06939 0.21763 0.10106 0.0
C1232 C 0.94273 0.29553 0.1177 0.0
C1233 C 0.92401 0.29755 0.14276 0.0
C1234 C 0.9741 0.28251 0.11681 0.0
C1235 C 0.98704 0.2708 0.14089 0.0
C1236 C 0.96701 0.27186 0.16557 0.0
C1237 C 0.93638 0.28531 0.16655 0.0
C1238 C 0.07343 0.24513 0.16609 0.0
C1239 C 0.08312 0.22979 0.14336 0.0
C1240 C 0.0434 0.25925 0.16474 0.0
C1241 C 0.0213 0.25779 0.14085 0.0
C1242 C 0.03182 0.24313 0.11767 0.0
C1243 C 0.06263 0.22948 0.11885 0.0
H1244 H 0.90059 0.73694 0.36862 0.0
H1245 H 0.97033 0.68459 0.32966 0.0
H1246 H 0.95363 0.77439 0.37411 0.0
H1247 H 0.02311 0.72155 0.33612 0.0
H1248 H 0.11456 0.78703 0.37389 0.0
H1249 H 0.06059 0.75024 0.37732 0.0
H1250 H 0.9957 0.80366 0.33515 0.0
H1251 H 0.04965 0.84012 0.33078 0.0
C1252 C 0.92722 0.73315 0.36171 0.0
C1253 C 0.93107 0.70766 0.34867 0.0
C1254 C 0.95752 0.75463 0.36482 0.0
C1255 C 0.99242 0.75078 0.35563 0.0
C1256 C 0.99658 0.72495 0.34367 0.0
C1257 C 0.96624 0.70378 0.33995 0.0
C1258 C 0.08874 0.79114 0.36562 0.0
C1259 C 0.08662 0.81655 0.35188 0.0
C1260 C 0.05788 0.77003 0.36758 0.0
C1261 C 0.02405 0.77415 0.35649 0.0
C1262 C 0.0214 0.80005 0.34407 0.0
C1263 C 0.05239 0.8209 0.34154 0.0
H1264 H 0.5907 0.73393 0.68405 0.0
H1265 H 0.57549 0.71021 0.59824 0.0
H1266 H 0.53862 0.75838 0.68186 0.0
H1267 H 0.52129 0.73357 0.59623 0.0
H1268 H 0.44156 0.79954 0.59907 0.0
H1269 H 0.49522 0.77562 0.59674 0.0
H1270 H 0.47564 0.74822 0.68139 0.0
H1271 H 0.42409 0.77328 0.68396 0.0
C1272 C 0.57593 0.73381 0.66467 0.0
C1273 C 0.58699 0.71993 0.64139 0.0
C1274 C 0.54568 0.74763 0.66344 0.0
C1275 C 0.52478 0.74743 0.63906 0.0
C1276 C 0.53659 0.73427 0.61538 0.0
C1277 C 0.5676 0.72083 0.61649 0.0
C1278 C 0.44878 0.78817 0.61701 0.0
C1279 C 0.42897 0.78855 0.6418 0.0
C1280 C 0.47949 0.77441 0.61572 0.0
C1281 C 0.49058 0.76042 0.63908 0.0
C1282 C 0.46913 0.75959 0.66326 0.0
C1283 C 0.43918 0.77374 0.6647 0.0
H1284 H 0.91607 0.09494 0.76176 0.0
H1285 H 0.8014 0.06988 0.74193 0.0
H1286 H 0.91568 0.05049 0.78619 0.0
H1287 H 0.80098 0.02557 0.76675 0.0
H1288 H 0.80982 0.9664 0.84324 0.0
H1289 H 0.809 0.0102 0.81764 0.0
H1290 H 0.90702 0.99815 0.77397 0.0
H1291 H 0.90757 0.95441 0.79876 0.0
C1292 C 0.89086 0.07987 0.76244 0.0
C1293 C 0.85887 0.08593 0.74971 0.0
C1294 C 0.89063 0.05441 0.77644 0.0
C1295 C 0.85824 0.03457 0.77853 0.0
C1296 C 0.82626 0.04053 0.76571 0.0
C1297 C 0.82664 0.0658 0.75125 0.0
C1298 C 0.83124 0.97311 0.82823 0.0
C1299 C 0.85901 0.95688 0.82344 0.0
C1300 C 0.83063 0.99812 0.81346 0.0
C1301 C 0.85808 0.00771 0.79388 0.0
C1302 C 0.88576 0.99154 0.78914 0.0
C1303 C 0.88602 0.96639 0.80347 0.0
H1304 H 0.2022 0.54821 0.84216 0.0
H1305 H 0.10866 0.56206 0.79363 0.0
H1306 H 0.20626 0.50619 0.81474 0.0
H1307 H 0.11157 0.51978 0.76742 0.0
H1308 H 0.14428 0.45688 0.70661 0.0
H1309 H 0.14352 0.49981 0.73322 0.0
H1310 H 0.17869 0.45943 0.80594 0.0
H1311 H 0.18086 0.4171 0.77903 0.0
C1312 C 0.18226 0.54219 0.82591 0.0
C1313 C 0.15498 0.55861 0.82038 0.0
C1314 C 0.18445 0.51795 0.8102 0.0
C1315 C 0.15925 0.50935 0.78866 0.0
C1316 C 0.13195 0.52579 0.78335 0.0
C1317 C 0.13002 0.55005 0.79877 0.0
C1318 C 0.15181 0.45718 0.72828 0.0
C1319 C 0.16258 0.43347 0.74061 0.0
C1320 C 0.15124 0.48182 0.74367 0.0
C1321 C 0.16097 0.48332 0.77195 0.0
C1322 C 0.17164 0.45946 0.7842 0.0
C1323 C 0.1726 0.43499 0.76875 0.0
H1324 H 0.78053 0.85032 0.08843 0.0
H1325 H 0.76731 0.93711 0.09764 0.0
H1326 H 0.81068 0.8612 0.04375 0.0
H1327 H 0.79637 0.94781 0.05214 0.0
H1328 H 0.78883 0.92518 0.952 0.0
H1329 H 0.77034 0.92393 1.00075 0.0
H1330 H 0.87199 0.89728 0.02359 0.0
H1331 H 0.89117 0.8994 0.97498 0.0
C1332 C 0.78471 0.87185 0.08107 0.0
C1333 C 0.77194 0.89294 0.09657 0.0
C1334 C 0.80194 0.87805 0.05554 0.0
C1335 C 0.80586 0.90533 0.04456 0.0
C1336 C 0.79378 0.92664 0.06026 0.0
C1337 C 0.77743 0.92058 0.08629 0.0
C1338 C 0.80764 0.91976 0.9675 0.0
C1339 C 0.84151 0.91247 0.95963 0.0
C1340 C 0.79709 0.91913 0.99538 0.0
C1341 C 0.81978 0.91055 0.01588 0.0
C1342 C 0.8541 0.90409 0.00817 0.0
C1343 C 0.86508 0.90541 0.98036 0.0
H1344 H 0.12339 0.63081 0.97144 0.0
H1345 H 0.20189 0.57578 0.95599 0.0
H1346 H 0.14367 0.63666 0.01885 0.0
H1347 H 0.22008 0.57891 1.00446 0.0
H1348 H 0.27993 0.61928 0.0807 0.0
H1349 H 0.25335 0.60395 0.03649 0.0
H1350 H 0.14994 0.62661 0.06277 0.0
H1351 H 0.1786 0.64512 0.10562 0.0
C1352 C 0.14409 0.61901 0.97862 0.0
C1353 C 0.16095 0.60276 0.96005 0.0
C1354 C 0.15581 0.62219 1.00613 0.0
C1355 C 0.18404 0.60845 0.01627 0.0
C1356 C 0.19921 0.5907 0.99779 0.0
C1357 C 0.18838 0.58842 0.96994 0.0
C1358 C 0.25146 0.62085 0.07702 0.0
C1359 C 0.23164 0.63402 0.09642 0.0
C1360 C 0.23581 0.61173 0.05151 0.0
C1361 C 0.19928 0.61447 0.04505 0.0
C1362 C 0.17854 0.6252 0.06587 0.0
C1363 C 0.19474 0.63541 0.09088 0.0
H1364 H 0.61666 0.1205 0.47248 0.0
H1365 H 0.70933 0.08328 0.44601 0.0
H1366 H 0.64077 0.12441 0.51945 0.0
H1367 H 0.73247 0.08548 0.49324 0.0
H1368 H 0.79157 0.13236 0.56608 0.0
H1369 H 0.76251 0.11935 0.52224 0.0
H1370 H 0.65621 0.10667 0.56199 0.0
H1371 H 0.68569 0.12145 0.6061 0.0
C1372 C 0.64159 0.11227 0.4769 0.0
C1373 C 0.6612 0.10174 0.45545 0.0
C1374 C 0.65549 0.11446 0.50396 0.0
C1375 C 0.68909 0.10575 0.51037 0.0
C1376 C 0.70718 0.0933 0.48916 0.0
C1377 C 0.69368 0.09167 0.46204 0.0
C1378 C 0.76199 0.12667 0.56568 0.0
C1379 C 0.74105 0.12828 0.58976 0.0
C1380 C 0.74517 0.11882 0.54034 0.0
C1381 C 0.70675 0.11181 0.5382 0.0
C1382 C 0.68579 0.11234 0.56255 0.0
C1383 C 0.70271 0.1206 0.58798 0.0
H1384 H 0.26914 0.43672 0.60608 0.0
H1385 H 0.28111 0.34993 0.5946 0.0
H1386 H 0.29826 0.44837 0.56076 0.0
H1387 H 0.31134 0.36173 0.55012 0.0
H1388 H 0.39174 0.4006 0.48193 0.0
H1389 H 0.37314 0.39818 0.53065 0.0
H1390 H 0.27155 0.42553 0.50888 0.0
H1391 H 0.28947 0.4271 0.46 0.0
C1392 C 0.27901 0.42037 0.59427 0.0
C1393 C 0.27314 0.39247 0.60386 0.0
C1394 C 0.29541 0.42698 0.56835 0.0
C1395 C 0.30716 0.40594 0.55208 0.0
C1396 C 0.30287 0.37837 0.56237 0.0
C1397 C 0.28558 0.37164 0.58778 0.0
C1398 C 0.36585 0.40679 0.48758 0.0
C1399 C 0.34208 0.41407 0.46709 0.0
C1400 C 0.35518 0.40528 0.51544 0.0
C1401 C 0.321 0.41176 0.52347 0.0
C1402 C 0.29821 0.42071 0.50325 0.0
C1403 C 0.30845 0.42155 0.47531 0.0
H1404 H 0.1005 0.73229 0.89964 0.0
H1405 H 0.02551 0.68621 0.84072 0.0
H1406 H 0.05918 0.76716 0.90442 0.0
H1407 H 0.98519 0.72119 0.84511 0.0
H1408 H 0.96196 0.81338 0.83188 0.0
H1409 H 1.00165 0.77769 0.83202 0.0
H1410 H 0.98344 0.76521 0.91958 0.0
H1411 H 0.94254 0.8007 0.91947 0.0
C1412 C 0.07525 0.72955 0.88783 0.0
C1413 C 0.06634 0.70652 0.86977 0.0
C1414 C 0.0516 0.74937 0.8907 0.0
C1415 C 0.01912 0.74676 0.8751 0.0
C1416 C 0.01009 0.72364 0.85733 0.0
C1417 C 0.03321 0.70361 0.85489 0.0
C1418 C 0.96631 0.80307 0.85122 0.0
C1419 C 0.949 0.8098 0.87567 0.0
C1420 C 0.989 0.78263 0.85124 0.0
C1421 C 0.99558 0.76883 0.8758 0.0
C1422 C 0.97884 0.77572 0.90042 0.0
C1423 C 0.95534 0.79583 0.9003 0.0
H1424 H 0.07944 0.31305 0.73948 0.0
H1425 H 0.08779 0.28913 0.65372 0.0
H1426 H 0.01965 0.28168 0.74251 0.0
H1427 H 0.02925 0.25862 0.65689 0.0
H1428 H 0.90743 0.23866 0.65883 0.0
H1429 H 0.96475 0.27049 0.66378 0.0
H1430 H 0.99112 0.22539 0.73605 0.0
H1431 H 0.93253 0.19279 0.73127 0.0
C1432 C 0.06863 0.30133 0.72133 0.0
C1433 C 0.08836 0.3041 0.69624 0.0
C1434 C 0.03462 0.28322 0.72316 0.0
C1435 C 0.01969 0.26791 0.69986 0.0
C1436 C 0.03976 0.27041 0.6751 0.0
C1437 C 0.07348 0.28809 0.67333 0.0
C1438 C 0.92505 0.23531 0.67597 0.0
C1439 C 0.91541 0.21265 0.69436 0.0
C1440 C 0.95803 0.25374 0.67879 0.0
C1441 C 0.98263 0.25026 0.70007 0.0
C1442 C 0.97257 0.22856 0.71945 0.0
C1443 C 0.93918 0.20984 0.7166 0.0
H1444 H 0.51064 0.17778 0.35155 0.0
H1445 H 0.60124 0.23845 0.38186 0.0
H1446 H 0.46995 0.21218 0.35649 0.0
H1447 H 0.56008 0.27276 0.38773 0.0
H1448 H 0.48832 0.3362 0.35814 0.0
H1449 H 0.52873 0.3014 0.35965 0.0
H1450 H 0.43846 0.23872 0.38699 0.0
H1451 H 0.3975 0.27358 0.38456 0.0
C1452 C 0.52184 0.19836 0.35966 0.0
C1453 C 0.55938 0.20538 0.36607 0.0
C1454 C 0.49832 0.2181 0.3627 0.0
C1455 C 0.51159 0.24541 0.37242 0.0
C1456 C 0.54894 0.25213 0.37972 0.0
C1457 C 0.57256 0.23239 0.37651 0.0
C1458 C 0.477 0.31506 0.36466 0.0
C1459 C 0.43948 0.30769 0.37102 0.0
C1460 C 0.50037 0.29506 0.36574 0.0
C1461 C 0.48701 0.26711 0.37339 0.0
C1462 C 0.44966 0.25991 0.38056 0.0
C1463 C 0.42617 0.27995 0.37933 0.0
H1464 H 0.75837 0.60184 0.71607 0.0
H1465 H 0.64094 0.57605 0.7105 0.0
H1466 H 0.7638 0.55619 0.73673 0.0
H1467 H 0.64618 0.53153 0.73161 0.0
H1468 H 0.66307 0.44432 0.74576 0.0
H1469 H 0.66635 0.48871 0.72156 0.0
H1470 H 0.74982 0.52752 0.77848 0.0
H1471 H 0.74742 0.48229 0.80228 0.0
C1472 C 0.73377 0.58652 0.71921 0.0
C1473 C 0.69925 0.59269 0.71147 0.0
C1474 C 0.73685 0.56043 0.73121 0.0
C1475 C 0.70548 0.53994 0.73564 0.0
C1476 C 0.6711 0.54636 0.72798 0.0
C1477 C 0.66806 0.57217 0.716 0.0
C1478 C 0.68247 0.46221 0.75299 0.0
C1479 C 0.70469 0.45982 0.77616 0.0
C1480 C 0.68419 0.4878 0.73919 0.0
C1481 C 0.70775 0.512 0.74838 0.0
C1482 C 0.73138 0.50935 0.77077 0.0
C1483 C 0.72997 0.48345 0.78446 0.0
H1484 H 0.29699 0.06188 0.72645 0.0
H1485 H 0.32995 0.03619 0.80691 0.0
H1486 H 0.29139 0.01343 0.71003 0.0
H1487 H 0.3244 0.98771 0.79039 0.0
H1488 H 0.37103 0.92247 0.7348 0.0
H1489 H 0.36349 0.96697 0.75592 0.0
H1490 H 0.25872 0.96291 0.71533 0.0
H1491 H 0.26617 0.91788 0.69411 0.0
C1492 C 0.30225 0.04579 0.74082 0.0
C1493 C 0.31416 0.05296 0.76794 0.0
C1494 C 0.29891 0.01799 0.73142 0.0
C1495 C 0.30782 0.99678 0.74881 0.0
C1496 C 0.31772 1.00366 0.77641 0.0
C1497 C 0.32061 0.03141 0.78593 0.0
C1498 C 0.34622 0.93089 0.73045 0.0
C1499 C 0.31927 0.91665 0.71262 0.0
C1500 C 0.34176 0.95632 0.7428 0.0
C1501 C 0.31043 0.96844 0.73743 0.0
C1502 C 0.28319 0.95411 0.71984 0.0
C1503 C 0.2874 0.92831 0.70776 0.0
H1504 H 0.40123 0.22887 0.87628 0.0
H1505 H 0.46436 0.17593 0.83098 0.0
H1506 H 0.45581 0.26502 0.88011 0.0
H1507 H 0.51894 0.21178 0.83571 0.0
H1508 H 0.61568 0.27736 0.86883 0.0
H1509 H 0.56241 0.24009 0.8745 0.0
H1510 H 0.49257 0.29422 0.83935 0.0
H1511 H 0.54547 0.33093 0.8327 0.0
C1512 C 0.42679 0.22464 0.86761 0.0
C1513 C 0.42822 0.19948 0.85315 0.0
C1514 C 0.45801 0.24539 0.86982 0.0
C1515 C 0.49154 0.24115 0.85822 0.0
C1516 C 0.49351 0.21547 0.84506 0.0
C1517 C 0.46215 0.19498 0.8423 0.0
C1518 C 0.58893 0.28146 0.86262 0.0
C1519 C 0.58499 0.30724 0.85028 0.0
C1520 C 0.55849 0.26009 0.86582 0.0
C1521 C 0.52341 0.26435 0.85743 0.0
C1522 C 0.51923 0.29048 0.84627 0.0
C1523 C 0.54966 0.31153 0.84245 0.0
H1524 H 0.31707 0.54193 0.2135 0.0
H1525 H 0.36321 0.59966 0.27758 0.0
H1526 H 0.31864 0.50236 0.24497 0.0
H1527 H 0.36541 0.56002 0.30876 0.0
H1528 H 0.40412 0.47621 0.33844 0.0
H1529 H 0.4003 0.51721 0.30956 0.0
H1530 H 0.28674 0.48454 0.29213 0.0
H1531 H 0.29052 0.44356 0.32153 0.0
C1532 C 0.32793 0.54618 0.23417 0.0
C1533 C 0.34021 0.57399 0.24295 0.0
C1534 C 0.32846 0.52353 0.25227 0.0
C1535 C 0.34195 0.52811 0.27938 0.0
C1536 C 0.3549 0.55584 0.28798 0.0
C1537 C 0.35368 0.57852 0.27009 0.0
C1538 C 0.37826 0.47792 0.32869 0.0
C1539 C 0.34764 0.45668 0.33223 0.0
C1540 C 0.37603 0.50144 0.31222 0.0
C1541 C 0.34332 0.50399 0.2984 0.0
C1542 C 0.3124 0.48302 0.30237 0.0
C1543 C 0.31443 0.45973 0.31939 0.0
H1544 H 0.69764 0.04903 0.33587 0.0
H1545 H 0.60132 0.06058 0.28951 0.0
H1546 H 0.70266 0.00755 0.30795 0.0
H1547 H 0.60531 0.01878 0.26271 0.0
H1548 H 0.63958 0.95744 0.20055 0.0
H1549 H 0.63741 0.99993 0.2276 0.0
H1550 H 0.67663 0.96041 0.29933 0.0
H1551 H 0.68009 0.91859 0.27203 0.0
C1552 C 0.6773 0.04261 0.31999 0.0
C1553 C 0.64897 0.05823 0.31521 0.0
C1554 C 0.68005 0.01867 0.30398 0.0
C1555 C 0.6544 0.00958 0.28287 0.0
C1556 C 0.62604 0.02521 0.27829 0.0
C1557 C 0.6235 0.04918 0.29404 0.0
C1558 C 0.64771 0.95785 0.22209 0.0
C1559 C 0.66001 0.93453 0.23402 0.0
C1560 C 0.64633 0.98222 0.23774 0.0
C1561 C 0.6568 0.98384 0.26586 0.0
C1562 C 0.66897 0.96037 0.27771 0.0
C1563 C 0.6707 0.93618 0.26202 0.0
H1564 H 0.57803 0.81551 0.23258 0.0
H1565 H 0.58956 0.78717 0.14858 0.0
H1566 H 0.5191 0.78332 0.23617 0.0
H1567 H 0.5321 0.75548 0.15239 0.0
H1568 H 0.41084 0.72839 0.15344 0.0
H1569 H 0.4678 0.76115 0.15499 0.0
H1570 H 0.49133 0.73038 0.23573 0.0
H1571 H 0.43307 0.69728 0.2345 0.0
C1572 C 0.56809 0.80261 0.21492 0.0
C1573 C 0.58851 0.80436 0.19018 0.0
C1574 C 0.53453 0.78402 0.21707 0.0
C1575 C 0.52071 0.76704 0.19445 0.0
C1576 C 0.54148 0.7686 0.17003 0.0
C1577 C 0.5747 0.7869 0.16791 0.0
C1578 C 0.42791 0.72836 0.17164 0.0
C1579 C 0.41735 0.70974 0.19371 0.0
C1580 C 0.46077 0.74725 0.17247 0.0
C1581 C 0.48438 0.74821 0.19533 0.0
C1582 C 0.47366 0.73019 0.21784 0.0
C1583 C 0.44047 0.71107 0.21701 0.0
loop_
_geom_bond_atom_site_label_1
_geom_bond_atom_site_label_2
_geom_bond_distance
_geom_bond_site_symmetry_2
_ccdc_geom_bond_type
Co0 O2 2.143 . S
Co0 O8 2.074 . S
Co0 O11 2.093 . S
Co0 O24 2.097 . S
Co0 N41 2.151 . S
Co0 N49 2.214 . S
Co1 O2 2.160 . S
Co1 O7 2.058 . S
Co1 O17 2.057 . S
Co1 O32 2.037 . S
Co1 N36 2.145 . S
Co1 N57 2.257 . S
O2 Co0 2.143 . S
O2 Co1 2.160 . S
C3 O4 1.278 . S
C3 O11 1.224 . S
O4 C3 1.278 . S
C5 O6 1.245 . S
C5 O17 1.232 . S
O6 C5 1.245 . S
O7 Co1 2.058 . S
O7 C33 1.269 . S
O8 Co0 2.074 . S
O8 C33 1.257 . S
H9 C34 0.930 . S
H10 C40 0.930 . S
O11 Co0 2.093 . S
O11 C3 1.224 . S
H12 C44 0.929 . S
H13 C46 0.930 . S
H14 C47 0.930 . S
H15 C45 0.929 . S
H16 C48 0.928 . S
O17 Co1 2.057 . S
O17 C5 1.232 . S
H18 C37 0.929 . S
H19 C38 0.929 . S
H20 C50 0.931 . S
H21 C42 0.929 . S
H22 C51 0.930 . S
H23 C43 0.931 . S
O24 Co0 2.097 . S
O24 C52 1.214 . S
H25 C53 0.929 . S
H26 C54 0.929 . S
H27 C55 0.930 . S
H28 C56 0.929 . S
H29 C58 0.930 . S
H30 C35 0.930 . S
H31 C39 0.930 . S
O32 Co1 2.037 . S
O32 C52 1.234 . S
C33 O7 1.269 . S
C33 O8 1.257 . S
C34 H9 0.930 . S
C34 C37 1.388 . S
C34 C39 1.418 . S
C35 H30 0.930 . S
C35 C38 1.404 . S
C35 C39 1.353 . S
N36 Co1 2.145 . S
N36 C37 1.397 . S
N36 C38 1.334 . S
C37 H18 0.929 . S
C37 C34 1.388 . S
C37 N36 1.397 . S
C38 H19 0.929 . S
C38 C35 1.404 . S
C38 N36 1.334 . S
C39 H31 0.930 . S
C39 C34 1.418 . S
C39 C35 1.353 . S
C40 H10 0.930 . S
C40 N41 1.330 . S
C40 C42 1.446 . S
N41 Co0 2.151 . S
N41 C40 1.330 . S
N41 C45 1.418 . S
C42 H21 0.929 . S
C42 C40 1.446 . S
C42 C43 1.332 . S
C43 H23 0.931 . S
C43 C42 1.332 . S
C43 C44 1.267 . S
C44 H12 0.929 . S
C44 C43 1.267 . S
C44 C45 1.251 . S
C45 H15 0.929 . S
C45 N41 1.418 . S
C45 C44 1.251 . S
C46 H13 0.930 . S
C46 C48 1.406 . S
C46 C51 1.261 . S
C47 H14 0.930 . S
C47 N49 1.325 . S
C47 C50 1.357 . S
C48 H16 0.928 . S
C48 C46 1.406 . S
C48 N49 1.261 . S
N49 Co0 2.214 . S
N49 C47 1.325 . S
N49 C48 1.261 . S
C50 H20 0.931 . S
C50 C47 1.357 . S
C50 C51 1.312 . S
C51 H22 0.930 . S
C51 C46 1.261 . S
C51 C50 1.312 . S
C52 O24 1.214 . S
C52 O32 1.234 . S
C53 H25 0.929 . S
C53 C56 1.391 . S
C53 C58 1.391 . S
C54 H26 0.929 . S
C54 C55 1.390 . S
C54 N57 1.391 . S
C55 H27 0.930 . S
C55 C54 1.390 . S
C55 C56 1.392 . S
C56 H28 0.929 . S
C56 C53 1.391 . S
C56 C55 1.392 . S
N57 Co1 2.257 . S
N57 C54 1.391 . S
N57 C58 1.388 . S
C58 H29 0.930 . S
C58 C53 1.391 . S
C58 N57 1.388 . S
Co59 O61 2.143 . S
Co59 O67 2.074 . S
Co59 O70 2.093 . S
Co59 O83 2.097 . S
Co59 N100 2.151 . S
Co59 N108 2.214 . S
Co60 O61 2.160 . S
Co60 O66 2.058 . S
Co60 O76 2.057 . S
Co60 O91 2.037 . S
Co60 N95 2.145 . S
Co60 N116 2.257 . S
O61 Co59 2.143 . S
O61 Co60 2.160 . S
C62 O63 1.278 . S
C62 O70 1.224 . S
O63 C62 1.278 . S
C64 O65 1.245 . S
C64 O76 1.232 . S
O65 C64 1.245 . S
O66 Co60 2.058 . S
O66 C92 1.269 . S
O67 Co59 2.074 . S
O67 C92 1.257 . S
H68 C93 0.930 . S
H69 C99 0.930 . S
O70 Co59 2.093 . S
O70 C62 1.224 . S
H71 C103 0.929 . S
H72 C105 0.930 . S
H73 C106 0.930 . S
H74 C104 0.929 . S
H75 C107 0.928 . S
O76 Co60 2.057 . S
O76 C64 1.232 . S
H77 C96 0.929 . S
H78 C97 0.929 . S
H79 C109 0.931 . S
H80 C101 0.929 . S
H81 C110 0.930 . S
H82 C102 0.931 . S
O83 Co59 2.097 . S
O83 C111 1.214 . S
H84 C112 0.929 . S
H85 C113 0.929 . S
H86 C114 0.930 . S
H87 C115 0.929 . S
H88 C117 0.930 . S
H89 C94 0.930 . S
H90 C98 0.930 . S
O91 Co60 2.037 . S
O91 C111 1.234 . S
C92 O66 1.269 . S
C92 O67 1.257 . S
C93 H68 0.930 . S
C93 C96 1.388 . S
C93 C98 1.418 . S
C94 H89 0.930 . S
C94 C97 1.404 . S
C94 C98 1.353 . S
N95 Co60 2.145 . S
N95 C96 1.397 . S
N95 C97 1.334 . S
C96 H77 0.929 . S
C96 C93 1.388 . S
C96 N95 1.397 . S
C97 H78 0.929 . S
C97 C94 1.404 . S
C97 N95 1.334 . S
C98 H90 0.930 . S
C98 C93 1.418 . S
C98 C94 1.353 . S
C99 H69 0.930 . S
C99 N100 1.330 . S
C99 C101 1.446 . S
N100 Co59 2.151 . S
N100 C99 1.330 . S
N100 C104 1.418 . S
C101 H80 0.929 . S
C101 C99 1.446 . S
C101 C102 1.332 . S
C102 H82 0.931 . S
C102 C101 1.332 . S
C102 C103 1.267 . S
C103 H71 0.929 . S
C103 C102 1.267 . S
C103 C104 1.251 . S
C104 H74 0.929 . S
C104 N100 1.418 . S
C104 C103 1.251 . S
C105 H72 0.930 . S
C105 C107 1.406 . S
C105 C110 1.261 . S
C106 H73 0.930 . S
C106 N108 1.325 . S
C106 C109 1.357 . S
C107 H75 0.928 . S
C107 C105 1.406 . S
C107 N108 1.261 . S
N108 Co59 2.214 . S
N108 C106 1.325 . S
N108 C107 1.261 . S
C109 H79 0.931 . S
C109 C106 1.357 . S
C109 C110 1.312 . S
C110 H81 0.930 . S
C110 C105 1.261 . S
C110 C109 1.312 . S
C111 O83 1.214 . S
C111 O91 1.234 . S
C112 H84 0.929 . S
C112 C115 1.391 . S
C112 C117 1.391 . S
C113 H85 0.929 . S
C113 C114 1.390 . S
C113 N116 1.391 . S
C114 H86 0.930 . S
C114 C113 1.390 . S
C114 C115 1.392 . S
C115 H87 0.929 . S
C115 C112 1.391 . S
C115 C114 1.392 . S
N116 Co60 2.257 . S
N116 C113 1.391 . S
N116 C117 1.388 . S
C117 H88 0.930 . S
C117 C112 1.391 . S
C117 N116 1.388 . S
Co118 O120 2.143 . S
Co118 O126 2.074 . S
Co118 O129 2.093 . S
Co118 O142 2.097 . S
Co118 N159 2.151 . S
Co118 N167 2.214 . S
Co119 O120 2.160 . S
Co119 O125 2.058 . S
Co119 O135 2.057 . S
Co119 O150 2.037 . S
Co119 N154 2.145 . S
Co119 N175 2.257 . S
O120 Co118 2.143 . S
O120 Co119 2.160 . S
C121 O122 1.278 . S
C121 O129 1.224 . S
O122 C121 1.278 . S
C123 O124 1.245 . S
C123 O135 1.232 . S
O124 C123 1.245 . S
O125 Co119 2.058 . S
O125 C151 1.269 . S
O126 Co118 2.074 . S
O126 C151 1.257 . S
H127 C152 0.930 . S
H128 C158 0.930 . S
O129 Co118 2.093 . S
O129 C121 1.224 . S
H130 C162 0.929 . S
H131 C164 0.930 . S
H132 C165 0.930 . S
H133 C163 0.929 . S
H134 C166 0.928 . S
O135 Co119 2.057 . S
O135 C123 1.232 . S
H136 C155 0.929 . S
H137 C156 0.929 . S
H138 C168 0.931 . S
H139 C160 0.929 . S
H140 C169 0.930 . S
H141 C161 0.931 . S
O142 Co118 2.097 . S
O142 C170 1.214 . S
H143 C171 0.929 . S
H144 C172 0.929 . S
H145 C173 0.930 . S
H146 C174 0.929 . S
H147 C176 0.930 . S
H148 C153 0.930 . S
H149 C157 0.930 . S
O150 Co119 2.037 . S
O150 C170 1.234 . S
C151 O125 1.269 . S
C151 O126 1.257 . S
C152 H127 0.930 . S
C152 C155 1.388 . S
C152 C157 1.418 . S
C153 H148 0.930 . S
C153 C156 1.404 . S
C153 C157 1.353 . S
N154 Co119 2.145 . S
N154 C155 1.397 . S
N154 C156 1.334 . S
C155 H136 0.929 . S
C155 C152 1.388 . S
C155 N154 1.397 . S
C156 H137 0.929 . S
C156 C153 1.404 . S
C156 N154 1.334 . S
C157 H149 0.930 . S
C157 C152 1.418 . S
C157 C153 1.353 . S
C158 H128 0.930 . S
C158 N159 1.330 . S
C158 C160 1.446 . S
N159 Co118 2.151 . S
N159 C158 1.330 . S
N159 C163 1.418 . S
C160 H139 0.929 . S
C160 C158 1.446 . S
C160 C161 1.332 . S
C161 H141 0.931 . S
C161 C160 1.332 . S
C161 C162 1.267 . S
C162 H130 0.929 . S
C162 C161 1.267 . S
C162 C163 1.251 . S
C163 H133 0.929 . S
C163 N159 1.418 . S
C163 C162 1.251 . S
C164 H131 0.930 . S
C164 C166 1.406 . S
C164 C169 1.261 . S
C165 H132 0.930 . S
C165 N167 1.325 . S
C165 C168 1.357 . S
C166 H134 0.928 . S
C166 C164 1.406 . S
C166 N167 1.261 . S
N167 Co118 2.214 . S
N167 C165 1.325 . S
N167 C166 1.261 . S
C168 H138 0.931 . S
C168 C165 1.357 . S
C168 C169 1.312 . S
C169 H140 0.930 . S
C169 C164 1.261 . S
C169 C168 1.312 . S
C170 O142 1.214 . S
C170 O150 1.234 . S
C171 H143 0.929 . S
C171 C174 1.391 . S
C171 C176 1.391 . S
C172 H144 0.929 . S
C172 C173 1.390 . S
C172 N175 1.391 . S
C173 H145 0.930 . S
C173 C172 1.390 . S
C173 C174 1.392 . S
C174 H146 0.929 . S
C174 C171 1.391 . S
C174 C173 1.392 . S
N175 Co119 2.257 . S
N175 C172 1.391 . S
N175 C176 1.388 . S
C176 H147 0.930 . S
C176 C171 1.391 . S
C176 N175 1.388 . S
Co177 O179 2.143 . S
Co177 O185 2.074 . S
Co177 O188 2.093 . S
Co177 O201 2.097 . S
Co177 N218 2.151 . S
Co177 N226 2.214 . S
Co178 O179 2.160 . S
Co178 O184 2.058 . S
Co178 O194 2.057 . S
Co178 O209 2.037 . S
Co178 N213 2.145 . S
Co178 N234 2.257 . S
O179 Co177 2.143 . S
O179 Co178 2.160 . S
C180 O181 1.278 . S
C180 O188 1.224 . S
O181 C180 1.278 . S
C182 O183 1.245 . S
C182 O194 1.232 . S
O183 C182 1.245 . S
O184 Co178 2.058 . S
O184 C210 1.269 . S
O185 Co177 2.074 . S
O185 C210 1.257 . S
H186 C211 0.930 . S
H187 C217 0.930 . S
O188 Co177 2.093 . S
O188 C180 1.224 . S
H189 C221 0.929 . S
H190 C223 0.930 . S
H191 C224 0.930 . S
H192 C222 0.929 . S
H193 C225 0.928 . S
O194 Co178 2.057 . S
O194 C182 1.232 . S
H195 C214 0.929 . S
H196 C215 0.929 . S
H197 C227 0.931 . S
H198 C219 0.929 . S
H199 C228 0.930 . S
H200 C220 0.931 . S
O201 Co177 2.097 . S
O201 C229 1.214 . S
H202 C230 0.929 . S
H203 C231 0.929 . S
H204 C232 0.930 . S
H205 C233 0.929 . S
H206 C235 0.930 . S
H207 C212 0.930 . S
H208 C216 0.930 . S
O209 Co178 2.037 . S
O209 C229 1.234 . S
C210 O184 1.269 . S
C210 O185 1.257 . S
C211 H186 0.930 . S
C211 C214 1.388 . S
C211 C216 1.418 . S
C212 H207 0.930 . S
C212 C215 1.404 . S
C212 C216 1.353 . S
N213 Co178 2.145 . S
N213 C214 1.397 . S
N213 C215 1.334 . S
C214 H195 0.929 . S
C214 C211 1.388 . S
C214 N213 1.397 . S
C215 H196 0.929 . S
C215 C212 1.404 . S
C215 N213 1.334 . S
C216 H208 0.930 . S
C216 C211 1.418 . S
C216 C212 1.353 . S
C217 H187 0.930 . S
C217 N218 1.330 . S
C217 C219 1.446 . S
N218 Co177 2.151 . S
N218 C217 1.330 . S
N218 C222 1.418 . S
C219 H198 0.929 . S
C219 C217 1.446 . S
C219 C220 1.332 . S
C220 H200 0.931 . S
C220 C219 1.332 . S
C220 C221 1.267 . S
C221 H189 0.929 . S
C221 C220 1.267 . S
C221 C222 1.251 . S
C222 H192 0.929 . S
C222 N218 1.418 . S
C222 C221 1.251 . S
C223 H190 0.930 . S
C223 C225 1.406 . S
C223 C228 1.261 . S
C224 H191 0.930 . S
C224 N226 1.325 . S
C224 C227 1.357 . S
C225 H193 0.928 . S
C225 C223 1.406 . S
C225 N226 1.261 . S
N226 Co177 2.214 . S
N226 C224 1.325 . S
N226 C225 1.261 . S
C227 H197 0.931 . S
C227 C224 1.357 . S
C227 C228 1.312 . S
C228 H199 0.930 . S
C228 C223 1.261 . S
C228 C227 1.312 . S
C229 O201 1.214 . S
C229 O209 1.234 . S
C230 H202 0.929 . S
C230 C233 1.391 . S
C230 C235 1.391 . S
C231 H203 0.929 . S
C231 C232 1.390 . S
C231 N234 1.391 . S
C232 H204 0.930 . S
C232 C231 1.390 . S
C232 C233 1.392 . S
C233 H205 0.929 . S
C233 C230 1.391 . S
C233 C232 1.392 . S
N234 Co178 2.257 . S
N234 C231 1.391 . S
N234 C235 1.388 . S
C235 H206 0.930 . S
C235 C230 1.391 . S
C235 N234 1.388 . S
Co236 O238 2.143 . S
Co236 O244 2.074 . S
Co236 O247 2.093 . S
Co236 O260 2.097 . S
Co236 N277 2.151 . S
Co236 N285 2.214 . S
Co237 O238 2.160 . S
Co237 O243 2.058 . S
Co237 O253 2.057 . S
Co237 O268 2.037 . S
Co237 N272 2.145 . S
Co237 N293 2.257 . S
O238 Co236 2.143 . S
O238 Co237 2.160 . S
C239 O240 1.278 . S
C239 O247 1.224 . S
O240 C239 1.278 . S
C241 O242 1.245 . S
C241 O253 1.232 . S
O242 C241 1.245 . S
O243 Co237 2.058 . S
O243 C269 1.269 . S
O244 Co236 2.074 . S
O244 C269 1.257 . S
H245 C270 0.930 . S
H246 C276 0.930 . S
O247 Co236 2.093 . S
O247 C239 1.224 . S
H248 C280 0.929 . S
H249 C282 0.930 . S
H250 C283 0.930 . S
H251 C281 0.929 . S
H252 C284 0.928 . S
O253 Co237 2.057 . S
O253 C241 1.232 . S
H254 C273 0.929 . S
H255 C274 0.929 . S
H256 C286 0.931 . S
H257 C278 0.929 . S
H258 C287 0.930 . S
H259 C279 0.931 . S
O260 Co236 2.097 . S
O260 C288 1.214 . S
H261 C289 0.929 . S
H262 C290 0.929 . S
H263 C291 0.930 . S
H264 C292 0.929 . S
H265 C294 0.930 . S
H266 C271 0.930 . S
H267 C275 0.930 . S
O268 Co237 2.037 . S
O268 C288 1.234 . S
C269 O243 1.269 . S
C269 O244 1.257 . S
C270 H245 0.930 . S
C270 C273 1.388 . S
C270 C275 1.418 . S
C271 H266 0.930 . S
C271 C274 1.404 . S
C271 C275 1.353 . S
N272 Co237 2.145 . S
N272 C273 1.397 . S
N272 C274 1.334 . S
C273 H254 0.929 . S
C273 C270 1.388 . S
C273 N272 1.397 . S
C274 H255 0.929 . S
C274 C271 1.404 . S
C274 N272 1.334 . S
C275 H267 0.930 . S
C275 C270 1.418 . S
C275 C271 1.353 . S
C276 H246 0.930 . S
C276 N277 1.330 . S
C276 C278 1.446 . S
N277 Co236 2.151 . S
N277 C276 1.330 . S
N277 C281 1.418 . S
C278 H257 0.929 . S
C278 C276 1.446 . S
C278 C279 1.332 . S
C279 H259 0.931 . S
C279 C278 1.332 . S
C279 C280 1.267 . S
C280 H248 0.929 . S
C280 C279 1.267 . S
C280 C281 1.251 . S
C281 H251 0.929 . S
C281 N277 1.418 . S
C281 C280 1.251 . S
C282 H249 0.930 . S
C282 C284 1.406 . S
C282 C287 1.261 . S
C283 H250 0.930 . S
C283 N285 1.325 . S
C283 C286 1.357 . S
C284 H252 0.928 . S
C284 C282 1.406 . S
C284 N285 1.261 . S
N285 Co236 2.214 . S
N285 C283 1.325 . S
N285 C284 1.261 . S
C286 H256 0.931 . S
C286 C283 1.357 . S
C286 C287 1.312 . S
C287 H258 0.930 . S
C287 C282 1.261 . S
C287 C286 1.312 . S
C288 O260 1.214 . S
C288 O268 1.234 . S
C289 H261 0.929 . S
C289 C292 1.391 . S
C289 C294 1.391 . S
C290 H262 0.929 . S
C290 C291 1.390 . S
C290 N293 1.391 . S
C291 H263 0.930 . S
C291 C290 1.390 . S
C291 C292 1.392 . S
C292 H264 0.929 . S
C292 C289 1.391 . S
C292 C291 1.392 . S
N293 Co237 2.257 . S
N293 C290 1.391 . S
N293 C294 1.388 . S
C294 H265 0.930 . S
C294 C289 1.391 . S
C294 N293 1.388 . S
Co295 O297 2.143 . S
Co295 O303 2.074 . S
Co295 O306 2.093 . S
Co295 O319 2.097 . S
Co295 N336 2.151 . S
Co295 N344 2.214 . S
Co296 O297 2.160 . S
Co296 O302 2.058 . S
Co296 O312 2.057 . S
Co296 O327 2.037 . S
Co296 N331 2.145 . S
Co296 N352 2.257 . S
O297 Co295 2.143 . S
O297 Co296 2.160 . S
C298 O299 1.278 . S
C298 O306 1.224 . S
O299 C298 1.278 . S
C300 O301 1.245 . S
C300 O312 1.232 . S
O301 C300 1.245 . S
O302 Co296 2.058 . S
O302 C328 1.269 . S
O303 Co295 2.074 . S
O303 C328 1.257 . S
H304 C329 0.930 . S
H305 C335 0.930 . S
O306 Co295 2.093 . S
O306 C298 1.224 . S
H307 C339 0.929 . S
H308 C341 0.930 1_455 S
H309 C342 0.930 . S
H310 C340 0.929 . S
H311 C343 0.928 . S
O312 Co296 2.057 . S
O312 C300 1.232 . S
H313 C332 0.929 . S
H314 C333 0.929 . S
H315 C345 0.931 . S
H316 C337 0.915 1_455 S
H317 C346 0.930 . S
H318 C338 0.931 . S
O319 Co295 2.097 . S
O319 C347 1.214 . S
H320 C348 0.929 . S
H321 C349 0.929 . S
H322 C350 0.930 . S
H323 C351 0.929 . S
H324 C353 0.930 . S
H325 C330 0.930 . S
H326 C334 0.930 . S
O327 Co296 2.037 . S
O327 C347 1.234 . S
C328 O302 1.269 . S
C328 O303 1.257 . S
C329 H304 0.930 . S
C329 C332 1.388 . S
C329 C334 1.418 . S
C330 H325 0.930 . S
C330 C333 1.404 . S
C330 C334 1.353 . S
N331 Co296 2.145 . S
N331 C332 1.397 . S
N331 C333 1.334 . S
C332 H313 0.929 . S
C332 C329 1.388 . S
C332 N331 1.397 . S
C333 H314 0.929 . S
C333 C330 1.404 . S
C333 N331 1.334 . S
C334 H326 0.930 . S
C334 C329 1.418 . S
C334 C330 1.353 . S
C335 H305 0.930 . S
C335 N336 1.330 . S
C335 C337 1.466 . S
N336 Co295 2.151 . S
N336 C335 1.330 . S
N336 C340 1.418 . S
C337 H316 0.915 1_655 S
C337 C335 1.466 . S
C337 C338 1.328 1_655 S
C338 H318 0.931 . S
C338 C337 1.328 1_455 S
C338 C339 1.267 1_455 S
C339 H307 0.929 . S
C339 C338 1.267 1_655 S
C339 C340 1.251 . S
C340 H310 0.929 . S
C340 N336 1.418 . S
C340 C339 1.251 . S
C341 H308 0.930 1_655 S
C341 C343 1.406 . S
C341 C346 1.261 . S
C342 H309 0.930 . S
C342 N344 1.325 . S
C342 C345 1.357 . S
C343 H311 0.928 . S
C343 C341 1.406 . S
C343 N344 1.261 . S
N344 Co295 2.214 . S
N344 C342 1.325 . S
N344 C343 1.261 . S
C345 H315 0.931 . S
C345 C342 1.357 . S
C345 C346 1.312 . S
C346 H317 0.930 . S
C346 C341 1.261 . S
C346 C345 1.312 . S
C347 O319 1.214 . S
C347 O327 1.234 . S
C348 H320 0.929 . S
C348 C351 1.391 . S
C348 C353 1.391 . S
C349 H321 0.929 . S
C349 C350 1.390 . S
C349 N352 1.391 . S
C350 H322 0.930 . S
C350 C349 1.390 . S
C350 C351 1.392 . S
C351 H323 0.929 . S
C351 C348 1.391 . S
C351 C350 1.392 . S
N352 Co296 2.257 . S
N352 C349 1.391 . S
N352 C353 1.388 . S
C353 H324 0.930 . S
C353 C348 1.391 . S
C353 N352 1.388 . S
Co354 O356 2.143 . S
Co354 O362 2.074 . S
Co354 O365 2.093 . S
Co354 O378 2.097 . S
Co354 N395 2.151 . S
Co354 N403 2.214 . S
Co355 O356 2.160 . S
Co355 O361 2.058 . S
Co355 O371 2.057 . S
Co355 O386 2.037 . S
Co355 N390 2.145 . S
Co355 N411 2.257 . S
O356 Co354 2.143 . S
O356 Co355 2.160 . S
C357 O358 1.278 . S
C357 O365 1.224 . S
O358 C357 1.278 . S
C359 O360 1.245 . S
C359 O371 1.232 . S
O360 C359 1.245 . S
O361 Co355 2.058 . S
O361 C387 1.269 . S
O362 Co354 2.074 . S
O362 C387 1.257 . S
H363 C388 0.930 . S
H364 C394 0.930 . S
O365 Co354 2.093 . S
O365 C357 1.224 . S
H366 C398 0.929 . S
H367 C400 0.930 1_655 S
H368 C401 0.930 . S
H369 C399 0.929 . S
H370 C402 0.928 . S
O371 Co355 2.057 . S
O371 C359 1.232 . S
H372 C391 0.929 . S
H373 C392 0.929 . S
H374 C404 0.931 . S
H375 C396 0.915 1_655 S
H376 C405 0.930 . S
H377 C397 0.931 . S
O378 Co354 2.097 . S
O378 C406 1.214 . S
H379 C407 0.929 . S
H380 C408 0.929 . S
H381 C409 0.930 . S
H382 C410 0.929 . S
H383 C412 0.930 . S
H384 C389 0.930 . S
H385 C393 0.930 . S
O386 Co355 2.037 . S
O386 C406 1.234 . S
C387 O361 1.269 . S
C387 O362 1.257 . S
C388 H363 0.930 . S
C388 C391 1.388 . S
C388 C393 1.418 . S
C389 H384 0.930 . S
C389 C392 1.404 . S
C389 C393 1.353 . S
N390 Co355 2.145 . S
N390 C391 1.397 . S
N390 C392 1.334 . S
C391 H372 0.929 . S
C391 C388 1.388 . S
C391 N390 1.397 . S
C392 H373 0.929 . S
C392 C389 1.404 . S
C392 N390 1.334 . S
C393 H385 0.930 . S
C393 C388 1.418 . S
C393 C389 1.353 . S
C394 H364 0.930 . S
C394 N395 1.330 . S
C394 C396 1.466 . S
N395 Co354 2.151 . S
N395 C394 1.330 . S
N395 C399 1.418 . S
C396 H375 0.915 1_455 S
C396 C394 1.466 . S
C396 C397 1.328 1_455 S
C397 H377 0.931 . S
C397 C396 1.328 1_655 S
C397 C398 1.267 1_655 S
C398 H366 0.929 . S
C398 C397 1.267 1_455 S
C398 C399 1.251 . S
C399 H369 0.929 . S
C399 N395 1.418 . S
C399 C398 1.251 . S
C400 H367 0.930 1_455 S
C400 C402 1.406 . S
C400 C405 1.261 . S
C401 H368 0.930 . S
C401 N403 1.325 . S
C401 C404 1.357 . S
C402 H370 0.928 . S
C402 C400 1.406 . S
C402 N403 1.261 . S
N403 Co354 2.214 . S
N403 C401 1.325 . S
N403 C402 1.261 . S
C404 H374 0.931 . S
C404 C401 1.357 . S
C404 C405 1.312 . S
C405 H376 0.930 . S
C405 C400 1.261 . S
C405 C404 1.312 . S
C406 O378 1.214 . S
C406 O386 1.234 . S
C407 H379 0.929 . S
C407 C410 1.391 . S
C407 C412 1.391 . S
C408 H380 0.929 . S
C408 C409 1.390 . S
C408 N411 1.391 . S
C409 H381 0.930 . S
C409 C408 1.390 . S
C409 C410 1.392 . S
C410 H382 0.929 . S
C410 C407 1.391 . S
C410 C409 1.392 . S
N411 Co355 2.257 . S
N411 C408 1.391 . S
N411 C412 1.388 . S
C412 H383 0.930 . S
C412 C407 1.391 . S
C412 N411 1.388 . S
Co413 O415 2.143 . S
Co413 O421 2.074 . S
Co413 O424 2.093 . S
Co413 O437 2.097 . S
Co413 N454 2.151 . S
Co413 N462 2.214 . S
Co414 O415 2.160 . S
Co414 O420 2.058 . S
Co414 O430 2.057 . S
Co414 O445 2.037 . S
Co414 N449 2.145 . S
Co414 N470 2.257 . S
O415 Co413 2.143 . S
O415 Co414 2.160 . S
C416 O417 1.278 . S
C416 O424 1.224 . S
O417 C416 1.278 . S
C418 O419 1.245 . S
C418 O430 1.232 . S
O419 C418 1.245 . S
O420 Co414 2.058 . S
O420 C446 1.269 . S
O421 Co413 2.074 . S
O421 C446 1.257 . S
H422 C447 0.930 . S
H423 C453 0.930 . S
O424 Co413 2.093 . S
O424 C416 1.224 . S
H425 C457 0.929 . S
H426 C459 0.930 . S
H427 C460 0.930 . S
H428 C458 0.929 . S
H429 C461 0.928 . S
O430 Co414 2.057 . S
O430 C418 1.232 . S
H431 C450 0.929 . S
H432 C451 0.929 . S
H433 C463 0.931 . S
H434 C455 0.929 . S
H435 C464 0.930 . S
H436 C456 0.931 . S
O437 Co413 2.097 . S
O437 C465 1.214 . S
H438 C466 0.929 . S
H439 C467 0.929 . S
H440 C468 0.930 . S
H441 C469 0.929 . S
H442 C471 0.930 . S
H443 C448 0.930 . S
H444 C452 0.930 . S
O445 Co414 2.037 . S
O445 C465 1.234 . S
C446 O420 1.269 . S
C446 O421 1.257 . S
C447 H422 0.930 . S
C447 C450 1.388 . S
C447 C452 1.418 . S
C448 H443 0.930 . S
C448 C451 1.404 . S
C448 C452 1.353 . S
N449 Co414 2.145 . S
N449 C450 1.397 . S
N449 C451 1.334 . S
C450 H431 0.929 . S
C450 C447 1.388 . S
C450 N449 1.397 . S
C451 H432 0.929 . S
C451 C448 1.404 . S
C451 N449 1.334 . S
C452 H444 0.930 . S
C452 C447 1.418 . S
C452 C448 1.353 . S
C453 H423 0.930 . S
C453 N454 1.330 . S
C453 C455 1.446 . S
N454 Co413 2.151 . S
N454 C453 1.330 . S
N454 C458 1.418 . S
C455 H434 0.929 . S
C455 C453 1.446 . S
C455 C456 1.332 . S
C456 H436 0.931 . S
C456 C455 1.332 . S
C456 C457 1.267 . S
C457 H425 0.929 . S
C457 C456 1.267 . S
C457 C458 1.251 . S
C458 H428 0.929 . S
C458 N454 1.418 . S
C458 C457 1.251 . S
C459 H426 0.930 . S
C459 C461 1.406 . S
C459 C464 1.261 . S
C460 H427 0.930 . S
C460 N462 1.325 . S
C460 C463 1.357 . S
C461 H429 0.928 . S
C461 C459 1.406 . S
C461 N462 1.261 . S
N462 Co413 2.214 . S
N462 C460 1.325 . S
N462 C461 1.261 . S
C463 H433 0.931 . S
C463 C460 1.357 . S
C463 C464 1.312 . S
C464 H435 0.930 . S
C464 C459 1.261 . S
C464 C463 1.312 . S
C465 O437 1.214 . S
C465 O445 1.234 . S
C466 H438 0.929 . S
C466 C469 1.391 . S
C466 C471 1.391 . S
C467 H439 0.929 . S
C467 C468 1.390 . S
C467 N470 1.391 . S
C468 H440 0.930 . S
C468 C467 1.390 . S
C468 C469 1.392 . S
C469 H441 0.929 . S
C469 C466 1.391 . S
C469 C468 1.392 . S
N470 Co414 2.257 . S
N470 C467 1.391 . S
N470 C471 1.388 . S
C471 H442 0.930 . S
C471 C466 1.391 . S
C471 N470 1.388 . S
Co472 O474 2.143 . S
Co472 O480 2.074 . S
Co472 O483 2.093 . S
Co472 O496 2.097 . S
Co472 N513 2.151 . S
Co472 N521 2.214 . S
Co473 O474 2.160 . S
Co473 O479 2.058 . S
Co473 O489 2.057 . S
Co473 O504 2.037 . S
Co473 N508 2.145 . S
Co473 N529 2.257 . S
O474 Co472 2.143 . S
O474 Co473 2.160 . S
C475 O476 1.278 . S
C475 O483 1.224 . S
O476 C475 1.278 . S
C477 O478 1.245 . S
C477 O489 1.232 . S
O478 C477 1.245 . S
O479 Co473 2.058 . S
O479 C505 1.269 . S
O480 Co472 2.074 . S
O480 C505 1.257 . S
H481 C506 0.930 . S
H482 C512 0.930 . S
O483 Co472 2.093 . S
O483 C475 1.224 . S
H484 C516 0.929 . S
H485 C518 0.930 . S
H486 C519 0.930 . S
H487 C517 0.929 . S
H488 C520 0.928 . S
O489 Co473 2.057 . S
O489 C477 1.232 . S
H490 C509 0.929 . S
H491 C510 0.929 . S
H492 C522 0.931 . S
H493 C514 0.929 . S
H494 C523 0.930 . S
H495 C515 0.931 . S
O496 Co472 2.097 . S
O496 C524 1.214 . S
H497 C525 0.929 . S
H498 C526 0.929 . S
H499 C527 0.930 . S
H500 C528 0.929 . S
H501 C530 0.930 . S
H502 C507 0.930 . S
H503 C511 0.930 . S
O504 Co473 2.037 . S
O504 C524 1.234 . S
C505 O479 1.269 . S
C505 O480 1.257 . S
C506 H481 0.930 . S
C506 C509 1.388 . S
C506 C511 1.418 . S
C507 H502 0.930 . S
C507 C510 1.404 . S
C507 C511 1.353 . S
N508 Co473 2.145 . S
N508 C509 1.397 . S
N508 C510 1.334 . S
C509 H490 0.929 . S
C509 C506 1.388 . S
C509 N508 1.397 . S
C510 H491 0.929 . S
C510 C507 1.404 . S
C510 N508 1.334 . S
C511 H503 0.930 . S
C511 C506 1.418 . S
C511 C507 1.353 . S
C512 H482 0.930 . S
C512 N513 1.330 . S
C512 C514 1.446 . S
N513 Co472 2.151 . S
N513 C512 1.330 . S
N513 C517 1.418 . S
C514 H493 0.929 . S
C514 C512 1.446 . S
C514 C515 1.332 . S
C515 H495 0.931 . S
C515 C514 1.332 . S
C515 C516 1.267 . S
C516 H484 0.929 . S
C516 C515 1.267 . S
C516 C517 1.251 . S
C517 H487 0.929 . S
C517 N513 1.418 . S
C517 C516 1.251 . S
C518 H485 0.930 . S
C518 C520 1.406 . S
C518 C523 1.261 . S
C519 H486 0.930 . S
C519 N521 1.325 . S
C519 C522 1.357 . S
C520 H488 0.928 . S
C520 C518 1.406 . S
C520 N521 1.261 . S
N521 Co472 2.214 . S
N521 C519 1.325 . S
N521 C520 1.261 . S
C522 H492 0.931 . S
C522 C519 1.357 . S
C522 C523 1.312 . S
C523 H494 0.930 . S
C523 C518 1.261 . S
C523 C522 1.312 . S
C524 O496 1.214 . S
C524 O504 1.234 . S
C525 H497 0.929 . S
C525 C528 1.391 . S
C525 C530 1.391 . S
C526 H498 0.929 . S
C526 C527 1.390 . S
C526 N529 1.391 . S
C527 H499 0.930 . S
C527 C526 1.390 . S
C527 C528 1.392 . S
C528 H500 0.929 . S
C528 C525 1.391 . S
C528 C527 1.392 . S
N529 Co473 2.257 . S
N529 C526 1.391 . S
N529 C530 1.388 . S
C530 H501 0.930 . S
C530 C525 1.391 . S
C530 N529 1.388 . S
Co531 O533 2.143 . S
Co531 O539 2.074 . S
Co531 O542 2.093 . S
Co531 O555 2.097 . S
Co531 N572 2.151 . S
Co531 N580 2.214 . S
Co532 O533 2.160 . S
Co532 O538 2.058 . S
Co532 O548 2.057 . S
Co532 O563 2.037 . S
Co532 N567 2.145 . S
Co532 N588 2.257 . S
O533 Co531 2.143 . S
O533 Co532 2.160 . S
C534 O535 1.278 . S
C534 O542 1.224 . S
O535 C534 1.278 . S
C536 O537 1.245 . S
C536 O548 1.232 . S
O537 C536 1.245 . S
O538 Co532 2.058 . S
O538 C564 1.269 . S
O539 Co531 2.074 . S
O539 C564 1.257 . S
H540 C565 0.930 . S
H541 C571 0.930 . S
O542 Co531 2.093 . S
O542 C534 1.224 . S
H543 C575 0.929 . S
H544 C577 0.930 . S
H545 C578 0.930 . S
H546 C576 0.929 . S
H547 C579 0.928 . S
O548 Co532 2.057 . S
O548 C536 1.232 . S
H549 C568 0.929 . S
H550 C569 0.929 . S
H551 C581 0.931 . S
H552 C573 0.929 . S
H553 C582 0.930 . S
H554 C574 0.931 . S
O555 Co531 2.097 . S
O555 C583 1.214 . S
H556 C584 0.929 . S
H557 C585 0.929 . S
H558 C586 0.930 . S
H559 C587 0.929 . S
H560 C589 0.930 . S
H561 C566 0.930 . S
H562 C570 0.930 . S
O563 Co532 2.037 . S
O563 C583 1.234 . S
C564 O538 1.269 . S
C564 O539 1.257 . S
C565 H540 0.930 . S
C565 C568 1.388 . S
C565 C570 1.418 . S
C566 H561 0.930 . S
C566 C569 1.404 . S
C566 C570 1.353 . S
N567 Co532 2.145 . S
N567 C568 1.397 . S
N567 C569 1.334 . S
C568 H549 0.929 . S
C568 C565 1.388 . S
C568 N567 1.397 . S
C569 H550 0.929 . S
C569 C566 1.404 . S
C569 N567 1.334 . S
C570 H562 0.930 . S
C570 C565 1.418 . S
C570 C566 1.353 . S
C571 H541 0.930 . S
C571 N572 1.330 . S
C571 C573 1.446 . S
N572 Co531 2.151 . S
N572 C571 1.330 . S
N572 C576 1.418 . S
C573 H552 0.929 . S
C573 C571 1.446 . S
C573 C574 1.332 . S
C574 H554 0.931 . S
C574 C573 1.332 . S
C574 C575 1.267 . S
C575 H543 0.929 . S
C575 C574 1.267 . S
C575 C576 1.251 . S
C576 H546 0.929 . S
C576 N572 1.418 . S
C576 C575 1.251 . S
C577 H544 0.930 . S
C577 C579 1.406 . S
C577 C582 1.261 . S
C578 H545 0.930 . S
C578 N580 1.325 . S
C578 C581 1.357 . S
C579 H547 0.928 . S
C579 C577 1.406 . S
C579 N580 1.261 . S
N580 Co531 2.214 . S
N580 C578 1.325 . S
N580 C579 1.261 . S
C581 H551 0.931 . S
C581 C578 1.357 . S
C581 C582 1.312 . S
C582 H553 0.930 . S
C582 C577 1.261 . S
C582 C581 1.312 . S
C583 O555 1.214 . S
C583 O563 1.234 . S
C584 H556 0.929 . S
C584 C587 1.391 . S
C584 C589 1.391 . S
C585 H557 0.929 . S
C585 C586 1.390 . S
C585 N588 1.391 . S
C586 H558 0.930 . S
C586 C585 1.390 . S
C586 C587 1.392 . S
C587 H559 0.929 . S
C587 C584 1.391 . S
C587 C586 1.392 . S
N588 Co532 2.257 . S
N588 C585 1.391 . S
N588 C589 1.388 . S
C589 H560 0.930 . S
C589 C584 1.391 . S
C589 N588 1.388 . S
Co590 O592 2.143 . S
Co590 O598 2.074 . S
Co590 O601 2.093 . S
Co590 O614 2.097 . S
Co590 N631 2.151 . S
Co590 N639 2.214 . S
Co591 O592 2.160 . S
Co591 O597 2.058 . S
Co591 O607 2.057 . S
Co591 O622 2.037 . S
Co591 N626 2.145 . S
Co591 N647 2.257 . S
O592 Co590 2.143 . S
O592 Co591 2.160 . S
C593 O594 1.278 . S
C593 O601 1.224 . S
O594 C593 1.278 . S
C595 O596 1.245 . S
C595 O607 1.232 . S
O596 C595 1.245 . S
O597 Co591 2.058 . S
O597 C623 1.269 . S
O598 Co590 2.074 . S
O598 C623 1.257 . S
H599 C624 0.930 . S
H600 C630 0.930 . S
O601 Co590 2.093 . S
O601 C593 1.224 . S
H602 C634 0.929 . S
H603 C636 0.930 . S
H604 C637 0.930 . S
H605 C635 0.929 . S
H606 C638 0.928 . S
O607 Co591 2.057 . S
O607 C595 1.232 . S
H608 C627 0.929 . S
H609 C628 0.929 . S
H610 C640 0.931 . S
H611 C632 0.929 . S
H612 C641 0.930 . S
H613 C633 0.931 . S
O614 Co590 2.097 . S
O614 C642 1.214 . S
H615 C643 0.929 . S
H616 C644 0.929 . S
H617 C645 0.930 . S
H618 C646 0.929 . S
H619 C648 0.930 . S
H620 C625 0.930 . S
H621 C629 0.930 . S
O622 Co591 2.037 . S
O622 C642 1.234 . S
C623 O597 1.269 . S
C623 O598 1.257 . S
C624 H599 0.930 . S
C624 C627 1.388 . S
C624 C629 1.418 . S
C625 H620 0.930 . S
C625 C628 1.404 . S
C625 C629 1.353 . S
N626 Co591 2.145 . S
N626 C627 1.397 . S
N626 C628 1.334 . S
C627 H608 0.929 . S
C627 C624 1.388 . S
C627 N626 1.397 . S
C628 H609 0.929 . S
C628 C625 1.404 . S
C628 N626 1.334 . S
C629 H621 0.930 . S
C629 C624 1.418 . S
C629 C625 1.353 . S
C630 H600 0.930 . S
C630 N631 1.330 . S
C630 C632 1.446 . S
N631 Co590 2.151 . S
N631 C630 1.330 . S
N631 C635 1.418 . S
C632 H611 0.929 . S
C632 C630 1.446 . S
C632 C633 1.332 . S
C633 H613 0.931 . S
C633 C632 1.332 . S
C633 C634 1.267 . S
C634 H602 0.929 . S
C634 C633 1.267 . S
C634 C635 1.251 . S
C635 H605 0.929 . S
C635 N631 1.418 . S
C635 C634 1.251 . S
C636 H603 0.930 . S
C636 C638 1.406 . S
C636 C641 1.261 . S
C637 H604 0.930 . S
C637 N639 1.325 . S
C637 C640 1.357 . S
C638 H606 0.928 . S
C638 C636 1.406 . S
C638 N639 1.261 . S
N639 Co590 2.214 . S
N639 C637 1.325 . S
N639 C638 1.261 . S
C640 H610 0.931 . S
C640 C637 1.357 . S
C640 C641 1.312 . S
C641 H612 0.930 . S
C641 C636 1.261 . S
C641 C640 1.312 . S
C642 O614 1.214 . S
C642 O622 1.234 . S
C643 H615 0.929 . S
C643 C646 1.391 . S
C643 C648 1.391 . S
C644 H616 0.929 . S
C644 C645 1.390 . S
C644 N647 1.391 . S
C645 H617 0.930 . S
C645 C644 1.390 . S
C645 C646 1.392 . S
C646 H618 0.929 . S
C646 C643 1.391 . S
C646 C645 1.392 . S
N647 Co591 2.257 . S
N647 C644 1.391 . S
N647 C648 1.388 . S
C648 H619 0.930 . S
C648 C643 1.391 . S
C648 N647 1.388 . S
Co649 O651 2.143 . S
Co649 O657 2.074 . S
Co649 O660 2.093 . S
Co649 O673 2.097 . S
Co649 N690 2.151 . S
Co649 N698 2.214 . S
Co650 O651 2.160 . S
Co650 O656 2.058 . S
Co650 O666 2.057 . S
Co650 O681 2.037 . S
Co650 N685 2.145 . S
Co650 N706 2.257 . S
O651 Co649 2.143 . S
O651 Co650 2.160 . S
C652 O653 1.278 . S
C652 O660 1.224 . S
O653 C652 1.278 . S
C654 O655 1.245 . S
C654 O666 1.232 . S
O655 C654 1.245 . S
O656 Co650 2.058 . S
O656 C682 1.269 . S
O657 Co649 2.074 . S
O657 C682 1.257 . S
H658 C683 0.930 . S
H659 C689 0.930 . S
O660 Co649 2.093 . S
O660 C652 1.224 . S
H661 C693 0.929 . S
H662 C695 0.930 . S
H663 C696 0.930 . S
H664 C694 0.929 . S
H665 C697 0.928 . S
O666 Co650 2.057 . S
O666 C654 1.232 . S
H667 C686 0.929 . S
H668 C687 0.929 . S
H669 C699 0.931 . S
H670 C691 0.929 . S
H671 C700 0.930 . S
H672 C692 0.931 . S
O673 Co649 2.097 . S
O673 C701 1.214 . S
H674 C702 0.929 . S
H675 C703 0.929 . S
H676 C704 0.930 . S
H677 C705 0.929 . S
H678 C707 0.930 . S
H679 C684 0.930 . S
H680 C688 0.930 . S
O681 Co650 2.037 . S
O681 C701 1.234 . S
C682 O656 1.269 . S
C682 O657 1.257 . S
C683 H658 0.930 . S
C683 C686 1.388 . S
C683 C688 1.418 . S
C684 H679 0.930 . S
C684 C687 1.404 . S
C684 C688 1.353 . S
N685 Co650 2.145 . S
N685 C686 1.397 . S
N685 C687 1.334 . S
C686 H667 0.929 . S
C686 C683 1.388 . S
C686 N685 1.397 . S
C687 H668 0.929 . S
C687 C684 1.404 . S
C687 N685 1.334 . S
C688 H680 0.930 . S
C688 C683 1.418 . S
C688 C684 1.353 . S
C689 H659 0.930 . S
C689 N690 1.330 . S
C689 C691 1.446 . S
N690 Co649 2.151 . S
N690 C689 1.330 . S
N690 C694 1.418 . S
C691 H670 0.929 . S
C691 C689 1.446 . S
C691 C692 1.332 . S
C692 H672 0.931 . S
C692 C691 1.332 . S
C692 C693 1.267 . S
C693 H661 0.929 . S
C693 C692 1.267 . S
C693 C694 1.251 . S
C694 H664 0.929 . S
C694 N690 1.418 . S
C694 C693 1.251 . S
C695 H662 0.930 . S
C695 C697 1.406 . S
C695 C700 1.261 . S
C696 H663 0.930 . S
C696 N698 1.325 . S
C696 C699 1.357 . S
C697 H665 0.928 . S
C697 C695 1.406 . S
C697 N698 1.261 . S
N698 Co649 2.214 . S
N698 C696 1.325 . S
N698 C697 1.261 . S
C699 H669 0.931 . S
C699 C696 1.357 . S
C699 C700 1.312 . S
C700 H671 0.930 . S
C700 C695 1.261 . S
C700 C699 1.312 . S
C701 O673 1.214 . S
C701 O681 1.234 . S
C702 H674 0.929 . S
C702 C705 1.391 . S
C702 C707 1.391 . S
C703 H675 0.929 . S
C703 C704 1.390 . S
C703 N706 1.391 . S
C704 H676 0.930 . S
C704 C703 1.390 . S
C704 C705 1.392 . S
C705 H677 0.929 . S
C705 C702 1.391 . S
C705 C704 1.392 . S
N706 Co650 2.257 . S
N706 C703 1.391 . S
N706 C707 1.388 . S
C707 H678 0.930 . S
C707 C702 1.391 . S
C707 N706 1.388 . S
Co708 O710 2.143 . S
Co708 O716 2.074 . S
Co708 O719 2.093 . S
Co708 O732 2.097 . S
Co708 N749 2.151 . S
Co708 N757 2.214 . S
Co709 O710 2.160 . S
Co709 O715 2.058 . S
Co709 O725 2.057 . S
Co709 O740 2.037 . S
Co709 N744 2.145 . S
Co709 N765 2.257 . S
O710 Co708 2.143 . S
O710 Co709 2.160 . S
C711 O712 1.278 . S
C711 O719 1.224 . S
O712 C711 1.278 . S
C713 O714 1.245 . S
C713 O725 1.232 . S
O714 C713 1.245 . S
O715 Co709 2.058 . S
O715 C741 1.269 . S
O716 Co708 2.074 . S
O716 C741 1.257 . S
H717 C742 0.930 . S
H718 C748 0.930 . S
O719 Co708 2.093 . S
O719 C711 1.224 . S
H720 C752 0.929 . S
H721 C754 0.930 . S
H722 C755 0.930 . S
H723 C753 0.929 . S
H724 C756 0.928 . S
O725 Co709 2.057 . S
O725 C713 1.232 . S
H726 C745 0.929 . S
H727 C746 0.929 . S
H728 C758 0.931 . S
H729 C750 0.929 . S
H730 C759 0.930 . S
H731 C751 0.931 . S
O732 Co708 2.097 . S
O732 C760 1.214 . S
H733 C761 0.929 . S
H734 C762 0.929 . S
H735 C763 0.930 . S
H736 C764 0.929 . S
H737 C766 0.930 . S
H738 C743 0.930 . S
H739 C747 0.930 . S
O740 Co709 2.037 . S
O740 C760 1.234 . S
C741 O715 1.269 . S
C741 O716 1.257 . S
C742 H717 0.930 . S
C742 C745 1.388 . S
C742 C747 1.418 . S
C743 H738 0.930 . S
C743 C746 1.404 . S
C743 C747 1.353 . S
N744 Co709 2.145 . S
N744 C745 1.397 . S
N744 C746 1.334 . S
C745 H726 0.929 . S
C745 C742 1.388 . S
C745 N744 1.397 . S
C746 H727 0.929 . S
C746 C743 1.404 . S
C746 N744 1.334 . S
C747 H739 0.930 . S
C747 C742 1.418 . S
C747 C743 1.353 . S
C748 H718 0.930 . S
C748 N749 1.330 . S
C748 C750 1.446 . S
N749 Co708 2.151 . S
N749 C748 1.330 . S
N749 C753 1.418 . S
C750 H729 0.929 . S
C750 C748 1.446 . S
C750 C751 1.332 . S
C751 H731 0.931 . S
C751 C750 1.332 . S
C751 C752 1.267 . S
C752 H720 0.929 . S
C752 C751 1.267 . S
C752 C753 1.251 . S
C753 H723 0.929 . S
C753 N749 1.418 . S
C753 C752 1.251 . S
C754 H721 0.930 . S
C754 C756 1.406 . S
C754 C759 1.261 . S
C755 H722 0.930 . S
C755 N757 1.325 . S
C755 C758 1.357 . S
C756 H724 0.928 . S
C756 C754 1.406 . S
C756 N757 1.261 . S
N757 Co708 2.214 . S
N757 C755 1.325 . S
N757 C756 1.261 . S
C758 H728 0.931 . S
C758 C755 1.357 . S
C758 C759 1.312 . S
C759 H730 0.930 . S
C759 C754 1.261 . S
C759 C758 1.312 . S
C760 O732 1.214 . S
C760 O740 1.234 . S
C761 H733 0.929 . S
C761 C764 1.391 . S
C761 C766 1.391 . S
C762 H734 0.929 . S
C762 C763 1.390 . S
C762 N765 1.391 . S
C763 H735 0.930 . S
C763 C762 1.390 . S
C763 C764 1.392 . S
C764 H736 0.929 . S
C764 C761 1.391 . S
C764 C763 1.392 . S
N765 Co709 2.257 . S
N765 C762 1.391 . S
N765 C766 1.388 . S
C766 H737 0.930 . S
C766 C761 1.391 . S
C766 N765 1.388 . S
Co767 O769 2.143 . S
Co767 O775 2.074 . S
Co767 O778 2.093 . S
Co767 O791 2.097 . S
Co767 N808 2.151 . S
Co767 N816 2.214 . S
Co768 O769 2.160 . S
Co768 O774 2.058 . S
Co768 O784 2.057 . S
Co768 O799 2.037 . S
Co768 N803 2.145 . S
Co768 N824 2.257 . S
O769 Co767 2.143 . S
O769 Co768 2.160 . S
C770 O771 1.278 . S
C770 O778 1.224 . S
O771 C770 1.278 . S
C772 O773 1.245 . S
C772 O784 1.232 . S
O773 C772 1.245 . S
O774 Co768 2.058 . S
O774 C800 1.269 . S
O775 Co767 2.074 . S
O775 C800 1.257 . S
H776 C801 0.930 . S
H777 C807 0.930 . S
O778 Co767 2.093 . S
O778 C770 1.224 . S
H779 C811 0.929 . S
H780 C813 0.930 . S
H781 C814 0.930 . S
H782 C812 0.929 . S
H783 C815 0.928 . S
O784 Co768 2.057 . S
O784 C772 1.232 . S
H785 C804 0.929 . S
H786 C805 0.929 . S
H787 C817 0.931 . S
H788 C809 0.929 . S
H789 C818 0.930 . S
H790 C810 0.931 . S
O791 Co767 2.097 . S
O791 C819 1.214 . S
H792 C820 0.929 . S
H793 C821 0.929 . S
H794 C822 0.930 . S
H795 C823 0.929 . S
H796 C825 0.930 . S
H797 C802 0.930 . S
H798 C806 0.930 . S
O799 Co768 2.037 . S
O799 C819 1.234 . S
C800 O774 1.269 . S
C800 O775 1.257 . S
C801 H776 0.930 . S
C801 C804 1.388 . S
C801 C806 1.418 . S
C802 H797 0.930 . S
C802 C805 1.404 . S
C802 C806 1.353 . S
N803 Co768 2.145 . S
N803 C804 1.397 . S
N803 C805 1.334 . S
C804 H785 0.929 . S
C804 C801 1.388 . S
C804 N803 1.397 . S
C805 H786 0.929 . S
C805 C802 1.404 . S
C805 N803 1.334 . S
C806 H798 0.930 . S
C806 C801 1.418 . S
C806 C802 1.353 . S
C807 H777 0.930 . S
C807 N808 1.330 . S
C807 C809 1.446 . S
N808 Co767 2.151 . S
N808 C807 1.330 . S
N808 C812 1.418 . S
C809 H788 0.929 . S
C809 C807 1.446 . S
C809 C810 1.332 . S
C810 H790 0.931 . S
C810 C809 1.332 . S
C810 C811 1.267 . S
C811 H779 0.929 . S
C811 C810 1.267 . S
C811 C812 1.251 . S
C812 H782 0.929 . S
C812 N808 1.418 . S
C812 C811 1.251 . S
C813 H780 0.930 . S
C813 C815 1.406 . S
C813 C818 1.261 . S
C814 H781 0.930 . S
C814 N816 1.325 . S
C814 C817 1.357 . S
C815 H783 0.928 . S
C815 C813 1.406 . S
C815 N816 1.261 . S
N816 Co767 2.214 . S
N816 C814 1.325 . S
N816 C815 1.261 . S
C817 H787 0.931 . S
C817 C814 1.357 . S
C817 C818 1.312 . S
C818 H789 0.930 . S
C818 C813 1.261 . S
C818 C817 1.312 . S
C819 O791 1.214 . S
C819 O799 1.234 . S
C820 H792 0.929 . S
C820 C823 1.391 . S
C820 C825 1.391 . S
C821 H793 0.929 . S
C821 C822 1.390 . S
C821 N824 1.391 . S
C822 H794 0.930 . S
C822 C821 1.390 . S
C822 C823 1.392 . S
C823 H795 0.929 . S
C823 C820 1.391 . S
C823 C822 1.392 . S
N824 Co768 2.257 . S
N824 C821 1.391 . S
N824 C825 1.388 . S
C825 H796 0.930 . S
C825 C820 1.391 . S
C825 N824 1.388 . S
Co826 O828 2.143 . S
Co826 O834 2.074 . S
Co826 O837 2.093 . S
Co826 O850 2.097 . S
Co826 N867 2.151 . S
Co826 N875 2.214 . S
Co827 O828 2.160 . S
Co827 O833 2.058 . S
Co827 O843 2.057 . S
Co827 O858 2.037 . S
Co827 N862 2.145 . S
Co827 N883 2.257 . S
O828 Co826 2.143 . S
O828 Co827 2.160 . S
C829 O830 1.278 . S
C829 O837 1.224 . S
O830 C829 1.278 . S
C831 O832 1.245 . S
C831 O843 1.232 . S
O832 C831 1.245 . S
O833 Co827 2.058 . S
O833 C859 1.269 . S
O834 Co826 2.074 . S
O834 C859 1.257 . S
H835 C860 0.930 . S
H836 C866 0.930 . S
O837 Co826 2.093 . S
O837 C829 1.224 . S
H838 C870 0.929 . S
H839 C872 0.930 . S
H840 C873 0.930 . S
H841 C871 0.929 . S
H842 C874 0.928 . S
O843 Co827 2.057 . S
O843 C831 1.232 . S
H844 C863 0.929 . S
H845 C864 0.929 . S
H846 C876 0.931 . S
H847 C868 0.929 . S
H848 C877 0.930 . S
H849 C869 0.931 . S
O850 Co826 2.097 . S
O850 C878 1.214 . S
H851 C879 0.929 . S
H852 C880 0.929 . S
H853 C881 0.930 . S
H854 C882 0.929 . S
H855 C884 0.930 . S
H856 C861 0.930 . S
H857 C865 0.930 . S
O858 Co827 2.037 . S
O858 C878 1.234 . S
C859 O833 1.269 . S
C859 O834 1.257 . S
C860 H835 0.930 . S
C860 C863 1.388 . S
C860 C865 1.418 . S
C861 H856 0.930 . S
C861 C864 1.404 . S
C861 C865 1.353 . S
N862 Co827 2.145 . S
N862 C863 1.397 . S
N862 C864 1.334 . S
C863 H844 0.929 . S
C863 C860 1.388 . S
C863 N862 1.397 . S
C864 H845 0.929 . S
C864 C861 1.404 . S
C864 N862 1.334 . S
C865 H857 0.930 . S
C865 C860 1.418 . S
C865 C861 1.353 . S
C866 H836 0.930 . S
C866 N867 1.330 . S
C866 C868 1.446 . S
N867 Co826 2.151 . S
N867 C866 1.330 . S
N867 C871 1.418 . S
C868 H847 0.929 . S
C868 C866 1.446 . S
C868 C869 1.332 . S
C869 H849 0.931 . S
C869 C868 1.332 . S
C869 C870 1.267 . S
C870 H838 0.929 . S
C870 C869 1.267 . S
C870 C871 1.251 . S
C871 H841 0.929 . S
C871 N867 1.418 . S
C871 C870 1.251 . S
C872 H839 0.930 . S
C872 C874 1.406 . S
C872 C877 1.261 . S
C873 H840 0.930 . S
C873 N875 1.325 . S
C873 C876 1.357 . S
C874 H842 0.928 . S
C874 C872 1.406 . S
C874 N875 1.261 . S
N875 Co826 2.214 . S
N875 C873 1.325 . S
N875 C874 1.261 . S
C876 H846 0.931 . S
C876 C873 1.357 . S
C876 C877 1.312 . S
C877 H848 0.930 . S
C877 C872 1.261 . S
C877 C876 1.312 . S
C878 O850 1.214 . S
C878 O858 1.234 . S
C879 H851 0.929 . S
C879 C882 1.391 . S
C879 C884 1.391 . S
C880 H852 0.929 . S
C880 C881 1.390 . S
C880 N883 1.391 . S
C881 H853 0.930 . S
C881 C880 1.390 . S
C881 C882 1.392 . S
C882 H854 0.929 . S
C882 C879 1.391 . S
C882 C881 1.392 . S
N883 Co827 2.257 . S
N883 C880 1.391 . S
N883 C884 1.388 . S
C884 H855 0.930 . S
C884 C879 1.391 . S
C884 N883 1.388 . S
Co885 O887 2.143 . S
Co885 O893 2.074 . S
Co885 O896 2.093 . S
Co885 O909 2.097 . S
Co885 N926 2.151 . S
Co885 N934 2.214 . S
Co886 O887 2.160 . S
Co886 O892 2.058 . S
Co886 O902 2.057 . S
Co886 O917 2.037 . S
Co886 N921 2.145 . S
Co886 N942 2.257 . S
O887 Co885 2.143 . S
O887 Co886 2.160 . S
C888 O889 1.278 . S
C888 O896 1.224 . S
O889 C888 1.278 . S
C890 O891 1.245 . S
C890 O902 1.232 . S
O891 C890 1.245 . S
O892 Co886 2.058 . S
O892 C918 1.269 . S
O893 Co885 2.074 . S
O893 C918 1.257 . S
H894 C919 0.930 . S
H895 C925 0.930 . S
O896 Co885 2.093 . S
O896 C888 1.224 . S
H897 C929 0.929 . S
H898 C931 0.930 . S
H899 C932 0.930 . S
H900 C930 0.929 . S
H901 C933 0.928 . S
O902 Co886 2.057 . S
O902 C890 1.232 . S
H903 C922 0.929 . S
H904 C923 0.929 . S
H905 C935 0.931 . S
H906 C927 0.929 . S
H907 C936 0.930 . S
H908 C928 0.931 . S
O909 Co885 2.097 . S
O909 C937 1.214 . S
H910 C938 0.929 . S
H911 C939 0.929 . S
H912 C940 0.930 . S
H913 C941 0.929 . S
H914 C943 0.930 . S
H915 C920 0.930 . S
H916 C924 0.930 . S
O917 Co886 2.037 . S
O917 C937 1.234 . S
C918 O892 1.269 . S
C918 O893 1.257 . S
C919 H894 0.930 . S
C919 C922 1.388 . S
C919 C924 1.418 . S
C920 H915 0.930 . S
C920 C923 1.404 . S
C920 C924 1.353 . S
N921 Co886 2.145 . S
N921 C922 1.397 . S
N921 C923 1.334 . S
C922 H903 0.929 . S
C922 C919 1.388 . S
C922 N921 1.397 . S
C923 H904 0.929 . S
C923 C920 1.404 . S
C923 N921 1.334 . S
C924 H916 0.930 . S
C924 C919 1.418 . S
C924 C920 1.353 . S
C925 H895 0.930 . S
C925 N926 1.330 . S
C925 C927 1.446 . S
N926 Co885 2.151 . S
N926 C925 1.330 . S
N926 C930 1.418 . S
C927 H906 0.929 . S
C927 C925 1.446 . S
C927 C928 1.332 . S
C928 H908 0.931 . S
C928 C927 1.332 . S
C928 C929 1.267 . S
C929 H897 0.929 . S
C929 C928 1.267 . S
C929 C930 1.251 . S
C930 H900 0.929 . S
C930 N926 1.418 . S
C930 C929 1.251 . S
C931 H898 0.930 . S
C931 C933 1.406 . S
C931 C936 1.261 . S
C932 H899 0.930 . S
C932 N934 1.325 . S
C932 C935 1.357 . S
C933 H901 0.928 . S
C933 C931 1.406 . S
C933 N934 1.261 . S
N934 Co885 2.214 . S
N934 C932 1.325 . S
N934 C933 1.261 . S
C935 H905 0.931 . S
C935 C932 1.357 . S
C935 C936 1.312 . S
C936 H907 0.930 . S
C936 C931 1.261 . S
C936 C935 1.312 . S
C937 O909 1.214 . S
C937 O917 1.234 . S
C938 H910 0.929 . S
C938 C941 1.391 . S
C938 C943 1.391 . S
C939 H911 0.929 . S
C939 C940 1.390 . S
C939 N942 1.391 . S
C940 H912 0.930 . S
C940 C939 1.390 . S
C940 C941 1.392 . S
C941 H913 0.929 . S
C941 C938 1.391 . S
C941 C940 1.392 . S
N942 Co886 2.257 . S
N942 C939 1.391 . S
N942 C943 1.388 . S
C943 H914 0.930 . S
C943 C938 1.391 . S
C943 N942 1.388 . S
H944 C952 0.950 . S
H945 C957 0.950 . S
H946 C954 0.950 . S
H947 C956 0.950 . S
H948 C958 0.950 . S
H949 C960 0.950 . S
H950 C962 0.950 . S
H951 C963 0.950 . S
C952 H944 0.950 . S
C952 C953 1.386 . S
C952 C954 1.391 . S
C953 C952 1.386 . S
C953 C957 1.393 . S
C954 H946 0.950 . S
C954 C952 1.391 . S
C954 C955 1.400 . S
C955 C954 1.400 . S
C955 C956 1.398 . S
C955 C961 1.491 . S
C956 H947 0.950 . S
C956 C955 1.398 . S
C956 C957 1.391 . S
C957 H945 0.950 . S
C957 C953 1.393 . S
C957 C956 1.391 . S
C958 H948 0.950 . S
C958 C959 1.386 . S
C958 C960 1.391 . S
C959 C958 1.386 . S
C959 C963 1.393 . S
C960 H949 0.950 . S
C960 C958 1.391 . S
C960 C961 1.400 . S
C961 C955 1.491 . S
C961 C960 1.400 . S
C961 C962 1.398 . S
C962 H950 0.950 . S
C962 C961 1.398 . S
C962 C963 1.391 . S
C963 H951 0.950 . S
C963 C959 1.393 . S
C963 C962 1.391 . S
H964 C972 0.950 . S
H965 C977 0.950 . S
H966 C974 0.950 . S
H967 C976 0.950 . S
H968 C978 0.950 . S
H969 C980 0.950 . S
H970 C982 0.950 . S
H971 C983 0.950 . S
C972 H964 0.950 . S
C972 C973 1.386 . S
C972 C974 1.391 . S
C973 C972 1.386 . S
C973 C977 1.393 . S
C974 H966 0.950 . S
C974 C972 1.391 . S
C974 C975 1.400 . S
C975 C974 1.400 . S
C975 C976 1.398 . S
C975 C981 1.491 . S
C976 H967 0.950 . S
C976 C975 1.398 . S
C976 C977 1.391 . S
C977 H965 0.950 . S
C977 C973 1.393 . S
C977 C976 1.391 . S
C978 H968 0.950 . S
C978 C979 1.386 . S
C978 C980 1.391 . S
C979 C978 1.386 . S
C979 C983 1.393 . S
C980 H969 0.950 . S
C980 C978 1.391 . S
C980 C981 1.400 . S
C981 C975 1.491 . S
C981 C980 1.400 . S
C981 C982 1.398 . S
C982 H970 0.950 . S
C982 C981 1.398 . S
C982 C983 1.391 . S
C983 H971 0.950 . S
C983 C979 1.393 . S
C983 C982 1.391 . S
H984 C992 0.950 . S
H985 C997 0.950 . S
H986 C994 0.950 . S
H987 C996 0.950 . S
H988 C998 0.950 . S
H989 C1000 0.950 . S
H990 C1002 0.950 . S
H991 C1003 0.950 . S
C992 H984 0.950 . S
C992 C993 1.386 . S
C992 C994 1.391 . S
C993 C992 1.386 . S
C993 C997 1.393 . S
C994 H986 0.950 . S
C994 C992 1.391 . S
C994 C995 1.400 . S
C995 C994 1.400 . S
C995 C996 1.398 . S
C995 C1001 1.491 . S
C996 H987 0.950 . S
C996 C995 1.398 . S
C996 C997 1.391 . S
C997 H985 0.950 . S
C997 C993 1.393 . S
C997 C996 1.391 . S
C998 H988 0.950 . S
C998 C999 1.386 . S
C998 C1000 1.391 . S
C999 C998 1.386 . S
C999 C1003 1.393 . S
C1000 H989 0.950 . S
C1000 C998 1.391 . S
C1000 C1001 1.400 . S
C1001 C995 1.491 . S
C1001 C1000 1.400 . S
C1001 C1002 1.398 . S
C1002 H990 0.950 . S
C1002 C1001 1.398 . S
C1002 C1003 1.391 . S
C1003 H991 0.950 . S
C1003 C999 1.393 . S
C1003 C1002 1.391 . S
H1004 C1012 0.950 . S
H1005 C1017 0.950 . S
H1006 C1014 0.950 . S
H1007 C1016 0.950 . S
H1008 C1018 0.950 . S
H1009 C1020 0.950 . S
H1010 C1022 0.950 . S
H1011 C1023 0.950 . S
C1012 H1004 0.950 . S
C1012 C1013 1.386 . S
C1012 C1014 1.391 . S
C1013 C1012 1.386 . S
C1013 C1017 1.393 . S
C1014 H1006 0.950 . S
C1014 C1012 1.391 . S
C1014 C1015 1.400 . S
C1015 C1014 1.400 . S
C1015 C1016 1.398 . S
C1015 C1021 1.491 . S
C1016 H1007 0.950 . S
C1016 C1015 1.398 . S
C1016 C1017 1.391 . S
C1017 H1005 0.950 . S
C1017 C1013 1.393 . S
C1017 C1016 1.391 . S
C1018 H1008 0.950 . S
C1018 C1019 1.386 . S
C1018 C1020 1.391 . S
C1019 C1018 1.386 . S
C1019 C1023 1.393 . S
C1020 H1009 0.950 . S
C1020 C1018 1.391 . S
C1020 C1021 1.400 . S
C1021 C1015 1.491 . S
C1021 C1020 1.400 . S
C1021 C1022 1.398 . S
C1022 H1010 0.950 . S
C1022 C1021 1.398 . S
C1022 C1023 1.391 . S
C1023 H1011 0.950 . S
C1023 C1019 1.393 . S
C1023 C1022 1.391 . S
H1024 C1032 0.950 . S
H1025 C1037 0.950 . S
H1026 C1034 0.950 . S
H1027 C1036 0.950 . S
H1028 C1038 0.950 . S
H1029 C1040 0.950 . S
H1030 C1042 0.950 . S
H1031 C1043 0.950 . S
C1032 H1024 0.950 . S
C1032 C1033 1.386 . S
C1032 C1034 1.391 . S
C1033 C1032 1.386 . S
C1033 C1037 1.393 . S
C1034 H1026 0.950 . S
C1034 C1032 1.391 . S
C1034 C1035 1.400 . S
C1035 C1034 1.400 . S
C1035 C1036 1.398 . S
C1035 C1041 1.491 . S
C1036 H1027 0.950 . S
C1036 C1035 1.398 . S
C1036 C1037 1.391 . S
C1037 H1025 0.950 . S
C1037 C1033 1.393 . S
C1037 C1036 1.391 . S
C1038 H1028 0.950 . S
C1038 C1039 1.386 . S
C1038 C1040 1.391 . S
C1039 C1038 1.386 . S
C1039 C1043 1.393 . S
C1040 H1029 0.950 . S
C1040 C1038 1.391 . S
C1040 C1041 1.400 . S
C1041 C1035 1.491 . S
C1041 C1040 1.400 . S
C1041 C1042 1.398 . S
C1042 H1030 0.950 . S
C1042 C1041 1.398 . S
C1042 C1043 1.391 . S
C1043 H1031 0.950 . S
C1043 C1039 1.393 . S
C1043 C1042 1.391 . S
H1044 C1052 0.950 . S
H1045 C1057 0.950 . S
H1046 C1054 0.950 . S
H1047 C1056 0.950 . S
H1048 C1058 0.950 . S
H1049 C1060 0.950 . S
H1050 C1062 0.950 . S
H1051 C1063 0.950 . S
C1052 H1044 0.950 . S
C1052 C1053 1.386 . S
C1052 C1054 1.391 . S
C1053 C1052 1.386 . S
C1053 C1057 1.393 . S
C1054 H1046 0.950 . S
C1054 C1052 1.391 . S
C1054 C1055 1.400 . S
C1055 C1054 1.400 . S
C1055 C1056 1.398 . S
C1055 C1061 1.491 . S
C1056 H1047 0.950 . S
C1056 C1055 1.398 . S
C1056 C1057 1.391 . S
C1057 H1045 0.950 . S
C1057 C1053 1.393 . S
C1057 C1056 1.391 . S
C1058 H1048 0.950 . S
C1058 C1059 1.386 . S
C1058 C1060 1.391 . S
C1059 C1058 1.386 . S
C1059 C1063 1.393 . S
C1060 H1049 0.950 . S
C1060 C1058 1.391 . S
C1060 C1061 1.400 . S
C1061 C1055 1.491 . S
C1061 C1060 1.400 . S
C1061 C1062 1.398 . S
C1062 H1050 0.950 . S
C1062 C1061 1.398 . S
C1062 C1063 1.391 . S
C1063 H1051 0.950 . S
C1063 C1059 1.393 . S
C1063 C1062 1.391 . S
H1064 C1072 0.950 . S
H1065 C1077 0.950 . S
H1066 C1074 0.950 . S
H1067 C1076 0.950 . S
H1068 C1078 0.950 . S
H1069 C1080 0.950 . S
H1070 C1082 0.950 . S
H1071 C1083 0.950 . S
C1072 H1064 0.950 . S
C1072 C1073 1.386 . S
C1072 C1074 1.391 . S
C1073 C1072 1.386 . S
C1073 C1077 1.393 . S
C1074 H1066 0.950 . S
C1074 C1072 1.391 . S
C1074 C1075 1.400 . S
C1075 C1074 1.400 . S
C1075 C1076 1.398 . S
C1075 C1081 1.491 . S
C1076 H1067 0.950 . S
C1076 C1075 1.398 . S
C1076 C1077 1.391 . S
C1077 H1065 0.950 . S
C1077 C1073 1.393 . S
C1077 C1076 1.391 . S
C1078 H1068 0.950 . S
C1078 C1079 1.386 . S
C1078 C1080 1.391 . S
C1079 C1078 1.386 . S
C1079 C1083 1.393 . S
C1080 H1069 0.950 . S
C1080 C1078 1.391 . S
C1080 C1081 1.400 . S
C1081 C1075 1.491 . S
C1081 C1080 1.400 . S
C1081 C1082 1.398 . S
C1082 H1070 0.950 . S
C1082 C1081 1.398 . S
C1082 C1083 1.391 . S
C1083 H1071 0.950 . S
C1083 C1079 1.393 . S
C1083 C1082 1.391 . S
H1084 C1092 0.950 . S
H1085 C1097 0.950 . S
H1086 C1094 0.950 . S
H1087 C1096 0.950 . S
H1088 C1098 0.950 . S
H1089 C1100 0.950 . S
H1090 C1102 0.950 . S
H1091 C1103 0.950 . S
C1092 H1084 0.950 . S
C1092 C1093 1.386 . S
C1092 C1094 1.391 . S
C1093 C1092 1.386 . S
C1093 C1097 1.393 . S
C1094 H1086 0.950 . S
C1094 C1092 1.391 . S
C1094 C1095 1.400 . S
C1095 C1094 1.400 . S
C1095 C1096 1.398 . S
C1095 C1101 1.491 . S
C1096 H1087 0.950 . S
C1096 C1095 1.398 . S
C1096 C1097 1.391 . S
C1097 H1085 0.950 . S
C1097 C1093 1.393 . S
C1097 C1096 1.391 . S
C1098 H1088 0.950 . S
C1098 C1099 1.386 . S
C1098 C1100 1.391 . S
C1099 C1098 1.386 . S
C1099 C1103 1.393 . S
C1100 H1089 0.950 . S
C1100 C1098 1.391 . S
C1100 C1101 1.400 . S
C1101 C1095 1.491 . S
C1101 C1100 1.400 . S
C1101 C1102 1.398 . S
C1102 H1090 0.950 . S
C1102 C1101 1.398 . S
C1102 C1103 1.391 . S
C1103 H1091 0.950 . S
C1103 C1099 1.393 . S
C1103 C1102 1.391 . S
H1104 C1112 0.950 . S
H1105 C1117 0.950 . S
H1106 C1114 0.950 . S
H1107 C1116 0.950 1_545 S
H1108 C1118 0.950 . S
H1109 C1120 0.950 . S
H1110 C1122 0.950 . S
H1111 C1123 0.950 . S
C1112 H1104 0.950 . S
C1112 C1113 1.386 . S
C1112 C1114 1.391 . S
C1113 C1112 1.386 . S
C1113 C1117 1.393 . S
C1114 H1106 0.950 . S
C1114 C1112 1.391 . S
C1114 C1115 1.389 1_565 S
C1115 C1114 1.389 1_545 S
C1115 C1116 1.398 1_545 S
C1115 C1121 1.502 . S
C1116 H1107 0.950 1_565 S
C1116 C1115 1.398 1_565 S
C1116 C1117 1.391 . S
C1117 H1105 0.950 . S
C1117 C1113 1.393 . S
C1117 C1116 1.391 . S
C1118 H1108 0.950 . S
C1118 C1119 1.386 . S
C1118 C1120 1.391 . S
C1119 C1118 1.386 . S
C1119 C1123 1.393 . S
C1120 H1109 0.950 . S
C1120 C1118 1.391 . S
C1120 C1121 1.400 . S
C1121 C1115 1.502 . S
C1121 C1120 1.400 . S
C1121 C1122 1.398 . S
C1122 H1110 0.950 . S
C1122 C1121 1.398 . S
C1122 C1123 1.391 . S
C1123 H1111 0.950 . S
C1123 C1119 1.393 . S
C1123 C1122 1.391 . S
H1124 C1132 0.950 . S
H1125 C1137 0.950 . S
H1126 C1134 0.950 . S
H1127 C1136 0.950 . S
H1128 C1138 0.950 . S
H1129 C1140 0.950 . S
H1130 C1142 0.950 . S
H1131 C1143 0.950 . S
C1132 H1124 0.950 . S
C1132 C1133 1.386 . S
C1132 C1134 1.391 . S
C1133 C1132 1.386 . S
C1133 C1137 1.393 . S
C1134 H1126 0.950 . S
C1134 C1132 1.391 . S
C1134 C1135 1.400 . S
C1135 C1134 1.400 . S
C1135 C1136 1.398 . S
C1135 C1141 1.491 . S
C1136 H1127 0.950 . S
C1136 C1135 1.398 . S
C1136 C1137 1.391 . S
C1137 H1125 0.950 . S
C1137 C1133 1.393 . S
C1137 C1136 1.391 . S
C1138 H1128 0.950 . S
C1138 C1139 1.386 . S
C1138 C1140 1.391 . S
C1139 C1138 1.386 . S
C1139 C1143 1.393 . S
C1140 H1129 0.950 . S
C1140 C1138 1.391 . S
C1140 C1141 1.400 . S
C1141 C1135 1.491 . S
C1141 C1140 1.400 . S
C1141 C1142 1.398 . S
C1142 H1130 0.950 . S
C1142 C1141 1.398 . S
C1142 C1143 1.391 . S
C1143 H1131 0.950 . S
C1143 C1139 1.393 . S
C1143 C1142 1.391 . S
H1144 C1152 0.950 . S
H1145 C1157 0.950 . S
H1146 C1154 0.950 . S
H1147 C1156 0.950 . S
H1148 C1158 0.950 . S
H1149 C1160 0.951 . S
H1150 C1162 0.950 . S
H1151 C1163 0.950 . S
C1152 H1144 0.950 . S
C1152 C1153 1.386 . S
C1152 C1154 1.391 . S
C1153 C1152 1.386 . S
C1153 C1157 1.393 . S
C1154 H1146 0.950 . S
C1154 C1152 1.391 . S
C1154 C1155 1.400 . S
C1155 C1154 1.400 . S
C1155 C1156 1.398 . S
C1155 C1161 1.491 . S
C1156 H1147 0.950 . S
C1156 C1155 1.398 . S
C1156 C1157 1.391 . S
C1157 H1145 0.950 . S
C1157 C1153 1.393 . S
C1157 C1156 1.391 . S
C1158 H1148 0.950 . S
C1158 C1159 1.386 . S
C1158 C1160 1.389 1_554 S
C1159 C1158 1.386 . S
C1159 C1163 1.393 . S
C1160 H1149 0.951 . S
C1160 C1158 1.389 1_556 S
C1160 C1161 1.401 . S
C1161 C1155 1.491 . S
C1161 C1160 1.401 . S
C1161 C1162 1.398 1_556 S
C1162 H1150 0.950 . S
C1162 C1161 1.398 1_554 S
C1162 C1163 1.391 . S
C1163 H1151 0.950 . S
C1163 C1159 1.393 . S
C1163 C1162 1.391 . S
H1164 C1172 0.950 . S
H1165 C1177 0.950 . S
H1166 C1174 0.950 . S
H1167 C1176 0.950 1_556 S
H1168 C1178 0.950 . S
H1169 C1180 0.950 . S
H1170 C1182 0.950 . S
H1171 C1183 0.950 . S
C1172 H1164 0.950 . S
C1172 C1173 1.386 . S
C1172 C1174 1.391 . S
C1173 C1172 1.386 . S
C1173 C1177 1.393 . S
C1174 H1166 0.950 . S
C1174 C1172 1.391 . S
C1174 C1175 1.400 1_554 S
C1175 C1174 1.400 1_556 S
C1175 C1176 1.398 1_556 S
C1175 C1181 1.491 . S
C1176 H1167 0.950 1_554 S
C1176 C1175 1.398 1_554 S
C1176 C1177 1.391 . S
C1177 H1165 0.950 . S
C1177 C1173 1.393 . S
C1177 C1176 1.391 . S
C1178 H1168 0.950 . S
C1178 C1179 1.386 . S
C1178 C1180 1.391 . S
C1179 C1178 1.386 . S
C1179 C1183 1.393 . S
C1180 H1169 0.950 . S
C1180 C1178 1.391 . S
C1180 C1181 1.400 . S
C1181 C1175 1.491 . S
C1181 C1180 1.400 . S
C1181 C1182 1.398 . S
C1182 H1170 0.950 . S
C1182 C1181 1.398 . S
C1182 C1183 1.391 . S
C1183 H1171 0.950 . S
C1183 C1179 1.393 . S
C1183 C1182 1.391 . S
H1184 C1192 0.950 . S
H1185 C1197 0.950 . S
H1186 C1194 0.950 . S
H1187 C1196 0.950 . S
H1188 C1198 0.950 . S
H1189 C1200 0.950 . S
H1190 C1202 0.950 . S
H1191 C1203 0.950 . S
C1192 H1184 0.950 . S
C1192 C1193 1.386 . S
C1192 C1194 1.391 . S
C1193 C1192 1.386 . S
C1193 C1197 1.393 . S
C1194 H1186 0.950 . S
C1194 C1192 1.391 . S
C1194 C1195 1.400 . S
C1195 C1194 1.400 . S
C1195 C1196 1.398 . S
C1195 C1201 1.491 . S
C1196 H1187 0.950 . S
C1196 C1195 1.398 . S
C1196 C1197 1.391 . S
C1197 H1185 0.950 . S
C1197 C1193 1.393 . S
C1197 C1196 1.391 . S
C1198 H1188 0.950 . S
C1198 C1199 1.386 . S
C1198 C1200 1.391 . S
C1199 C1198 1.386 . S
C1199 C1203 1.393 . S
C1200 H1189 0.950 . S
C1200 C1198 1.391 . S
C1200 C1201 1.400 . S
C1201 C1195 1.491 . S
C1201 C1200 1.400 . S
C1201 C1202 1.398 . S
C1202 H1190 0.950 . S
C1202 C1201 1.398 . S
C1202 C1203 1.391 . S
C1203 H1191 0.950 . S
C1203 C1199 1.393 . S
C1203 C1202 1.391 . S
H1204 C1212 0.950 . S
H1205 C1217 0.950 . S
H1206 C1214 0.950 . S
H1207 C1216 0.950 . S
H1208 C1218 0.950 . S
H1209 C1220 0.950 . S
H1210 C1222 0.950 . S
H1211 C1223 0.950 . S
C1212 H1204 0.950 . S
C1212 C1213 1.386 . S
C1212 C1214 1.391 . S
C1213 C1212 1.386 . S
C1213 C1217 1.393 . S
C1214 H1206 0.950 . S
C1214 C1212 1.391 . S
C1214 C1215 1.400 . S
C1215 C1214 1.400 . S
C1215 C1216 1.398 . S
C1215 C1221 1.491 . S
C1216 H1207 0.950 . S
C1216 C1215 1.398 . S
C1216 C1217 1.391 . S
C1217 H1205 0.950 . S
C1217 C1213 1.393 . S
C1217 C1216 1.391 . S
C1218 H1208 0.950 . S
C1218 C1219 1.386 . S
C1218 C1220 1.391 . S
C1219 C1218 1.386 . S
C1219 C1223 1.393 . S
C1220 H1209 0.950 . S
C1220 C1218 1.391 . S
C1220 C1221 1.400 . S
C1221 C1215 1.491 . S
C1221 C1220 1.400 . S
C1221 C1222 1.398 . S
C1222 H1210 0.950 . S
C1222 C1221 1.398 . S
C1222 C1223 1.391 . S
C1223 H1211 0.950 . S
C1223 C1219 1.393 . S
C1223 C1222 1.391 . S
H1224 C1232 0.950 . S
H1225 C1237 0.950 . S
H1226 C1234 0.950 . S
H1227 C1236 0.950 1_455 S
H1228 C1238 0.950 . S
H1229 C1240 0.950 . S
H1230 C1242 0.950 1_655 S
H1231 C1243 0.950 . S
C1232 H1224 0.950 . S
C1232 C1233 1.386 . S
C1232 C1234 1.391 . S
C1233 C1232 1.386 . S
C1233 C1237 1.393 . S
C1234 H1226 0.950 . S
C1234 C1232 1.391 . S
C1234 C1235 1.400 . S
C1235 C1234 1.400 . S
C1235 C1236 1.398 . S
C1235 C1241 1.491 1_655 S
C1236 H1227 0.950 1_655 S
C1236 C1235 1.398 . S
C1236 C1237 1.391 . S
C1237 H1225 0.950 . S
C1237 C1233 1.393 . S
C1237 C1236 1.391 . S
C1238 H1228 0.950 . S
C1238 C1239 1.386 . S
C1238 C1240 1.391 . S
C1239 C1238 1.386 . S
C1239 C1243 1.393 . S
C1240 H1229 0.950 . S
C1240 C1238 1.391 . S
C1240 C1241 1.400 . S
C1241 C1235 1.491 1_455 S
C1241 C1240 1.400 . S
C1241 C1242 1.398 . S
C1242 H1230 0.950 1_455 S
C1242 C1241 1.398 . S
C1242 C1243 1.391 . S
C1243 H1231 0.950 . S
C1243 C1239 1.393 . S
C1243 C1242 1.391 . S
H1244 C1252 0.950 . S
H1245 C1257 0.950 . S
H1246 C1254 0.950 . S
H1247 C1256 0.940 1_455 S
H1248 C1258 0.950 . S
H1249 C1260 0.950 . S
H1250 C1262 0.940 1_655 S
H1251 C1263 0.950 . S
C1252 H1244 0.950 . S
C1252 C1253 1.386 . S
C1252 C1254 1.391 . S
C1253 C1252 1.386 . S
C1253 C1257 1.393 . S
C1254 H1246 0.950 . S
C1254 C1252 1.391 . S
C1254 C1255 1.400 . S
C1255 C1254 1.400 . S
C1255 C1256 1.398 . S
C1255 C1261 1.491 1_655 S
C1256 H1247 0.940 1_655 S
C1256 C1255 1.398 . S
C1256 C1257 1.391 . S
C1257 H1245 0.950 . S
C1257 C1253 1.393 . S
C1257 C1256 1.391 . S
C1258 H1248 0.950 . S
C1258 C1259 1.386 . S
C1258 C1260 1.391 . S
C1259 C1258 1.386 . S
C1259 C1263 1.393 . S
C1260 H1249 0.950 . S
C1260 C1258 1.391 . S
C1260 C1261 1.400 . S
C1261 C1255 1.491 1_455 S
C1261 C1260 1.400 . S
C1261 C1262 1.398 . S
C1262 H1250 0.940 1_455 S
C1262 C1261 1.398 . S
C1262 C1263 1.391 . S
C1263 H1251 0.950 . S
C1263 C1259 1.393 . S
C1263 C1262 1.391 . S
H1264 C1272 0.950 . S
H1265 C1277 0.950 . S
H1266 C1274 0.950 . S
H1267 C1276 0.950 . S
H1268 C1278 0.950 . S
H1269 C1280 0.950 . S
H1270 C1282 0.950 . S
H1271 C1283 0.950 . S
C1272 H1264 0.950 . S
C1272 C1273 1.386 . S
C1272 C1274 1.391 . S
C1273 C1272 1.386 . S
C1273 C1277 1.393 . S
C1274 H1266 0.950 . S
C1274 C1272 1.391 . S
C1274 C1275 1.400 . S
C1275 C1274 1.400 . S
C1275 C1276 1.398 . S
C1275 C1281 1.491 . S
C1276 H1267 0.950 . S
C1276 C1275 1.398 . S
C1276 C1277 1.391 . S
C1277 H1265 0.950 . S
C1277 C1273 1.393 . S
C1277 C1276 1.391 . S
C1278 H1268 0.950 . S
C1278 C1279 1.386 . S
C1278 C1280 1.391 . S
C1279 C1278 1.386 . S
C1279 C1283 1.393 . S
C1280 H1269 0.950 . S
C1280 C1278 1.391 . S
C1280 C1281 1.400 . S
C1281 C1275 1.491 . S
C1281 C1280 1.400 . S
C1281 C1282 1.398 . S
C1282 H1270 0.950 . S
C1282 C1281 1.398 . S
C1282 C1283 1.391 . S
C1283 H1271 0.950 . S
C1283 C1279 1.393 . S
C1283 C1282 1.391 . S
H1284 C1292 0.950 . S
H1285 C1297 0.950 . S
H1286 C1294 0.950 1_565 S
H1287 C1296 0.950 . S
H1288 C1298 0.950 . S
H1289 C1300 0.950 . S
H1290 C1302 0.950 . S
H1291 C1303 0.950 . S
C1292 H1284 0.950 . S
C1292 C1293 1.386 . S
C1292 C1294 1.391 . S
C1293 C1292 1.386 . S
C1293 C1297 1.393 . S
C1294 H1286 0.950 1_545 S
C1294 C1292 1.391 . S
C1294 C1295 1.400 . S
C1295 C1294 1.400 . S
C1295 C1296 1.398 . S
C1295 C1301 1.491 1_545 S
C1296 H1287 0.950 . S
C1296 C1295 1.398 . S
C1296 C1297 1.391 . S
C1297 H1285 0.950 . S
C1297 C1293 1.393 . S
C1297 C1296 1.391 . S
C1298 H1288 0.950 . S
C1298 C1299 1.386 . S
C1298 C1300 1.391 . S
C1299 C1298 1.386 . S
C1299 C1303 1.393 . S
C1300 H1289 0.950 . S
C1300 C1298 1.391 . S
C1300 C1301 1.400 . S
C1301 C1295 1.491 1_565 S
C1301 C1300 1.400 . S
C1301 C1302 1.398 . S
C1302 H1290 0.950 . S
C1302 C1301 1.398 . S
C1302 C1303 1.391 . S
C1303 H1291 0.950 . S
C1303 C1299 1.393 . S
C1303 C1302 1.391 . S
H1304 C1312 0.950 . S
H1305 C1317 0.950 . S
H1306 C1314 0.950 . S
H1307 C1316 0.950 . S
H1308 C1318 0.950 . S
H1309 C1320 0.950 . S
H1310 C1322 0.950 . S
H1311 C1323 0.950 . S
C1312 H1304 0.950 . S
C1312 C1313 1.386 . S
C1312 C1314 1.391 . S
C1313 C1312 1.386 . S
C1313 C1317 1.393 . S
C1314 H1306 0.950 . S
C1314 C1312 1.391 . S
C1314 C1315 1.400 . S
C1315 C1314 1.400 . S
C1315 C1316 1.398 . S
C1315 C1321 1.491 . S
C1316 H1307 0.950 . S
C1316 C1315 1.398 . S
C1316 C1317 1.391 . S
C1317 H1305 0.950 . S
C1317 C1313 1.393 . S
C1317 C1316 1.391 . S
C1318 H1308 0.950 . S
C1318 C1319 1.386 . S
C1318 C1320 1.391 . S
C1319 C1318 1.386 . S
C1319 C1323 1.393 . S
C1320 H1309 0.950 . S
C1320 C1318 1.391 . S
C1320 C1321 1.400 . S
C1321 C1315 1.491 . S
C1321 C1320 1.400 . S
C1321 C1322 1.398 . S
C1322 H1310 0.950 . S
C1322 C1321 1.398 . S
C1322 C1323 1.391 . S
C1323 H1311 0.950 . S
C1323 C1319 1.393 . S
C1323 C1322 1.391 . S
H1324 C1332 0.950 . S
H1325 C1337 0.950 . S
H1326 C1334 0.950 . S
H1327 C1336 0.950 . S
H1328 C1338 0.950 . S
H1329 C1340 0.950 . S
H1330 C1342 0.958 . S
H1331 C1343 0.950 . S
C1332 H1324 0.950 . S
C1332 C1333 1.386 . S
C1332 C1334 1.391 . S
C1333 C1332 1.386 . S
C1333 C1337 1.393 . S
C1334 H1326 0.950 . S
C1334 C1332 1.391 . S
C1334 C1335 1.400 . S
C1335 C1334 1.400 . S
C1335 C1336 1.398 . S
C1335 C1341 1.491 . S
C1336 H1327 0.950 . S
C1336 C1335 1.398 . S
C1336 C1337 1.391 . S
C1337 H1325 0.950 . S
C1337 C1333 1.393 . S
C1337 C1336 1.391 . S
C1338 H1328 0.950 . S
C1338 C1339 1.386 . S
C1338 C1340 1.391 . S
C1339 C1338 1.386 . S
C1339 C1343 1.393 . S
C1340 H1329 0.950 . S
C1340 C1338 1.391 . S
C1340 C1341 1.400 1_556 S
C1341 C1335 1.491 . S
C1341 C1340 1.400 1_554 S
C1341 C1342 1.402 . S
C1342 H1330 0.958 . S
C1342 C1341 1.402 . S
C1342 C1343 1.379 1_554 S
C1343 H1331 0.950 . S
C1343 C1339 1.393 . S
C1343 C1342 1.379 1_556 S
H1344 C1352 0.950 . S
H1345 C1357 0.950 . S
H1346 C1354 0.950 . S
H1347 C1356 0.950 . S
H1348 C1358 0.950 . S
H1349 C1360 0.950 . S
H1350 C1362 0.950 . S
H1351 C1363 0.950 . S
C1352 H1344 0.950 . S
C1352 C1353 1.386 . S
C1352 C1354 1.391 1_556 S
C1353 C1352 1.386 . S
C1353 C1357 1.393 . S
C1354 H1346 0.950 . S
C1354 C1352 1.391 1_554 S
C1354 C1355 1.400 . S
C1355 C1354 1.400 . S
C1355 C1356 1.398 1_554 S
C1355 C1361 1.491 . S
C1356 H1347 0.950 . S
C1356 C1355 1.398 1_556 S
C1356 C1357 1.391 . S
C1357 H1345 0.950 . S
C1357 C1353 1.393 . S
C1357 C1356 1.391 . S
C1358 H1348 0.950 . S
C1358 C1359 1.386 . S
C1358 C1360 1.391 . S
C1359 C1358 1.386 . S
C1359 C1363 1.393 . S
C1360 H1349 0.950 . S
C1360 C1358 1.391 . S
C1360 C1361 1.400 . S
C1361 C1355 1.491 . S
C1361 C1360 1.400 . S
C1361 C1362 1.398 . S
C1362 H1350 0.950 . S
C1362 C1361 1.398 . S
C1362 C1363 1.391 . S
C1363 H1351 0.950 . S
C1363 C1359 1.393 . S
C1363 C1362 1.391 . S
H1364 C1372 0.950 . S
H1365 C1377 0.950 . S
H1366 C1374 0.950 . S
H1367 C1376 0.950 . S
H1368 C1378 0.950 . S
H1369 C1380 0.950 . S
H1370 C1382 0.950 . S
H1371 C1383 0.950 . S
C1372 H1364 0.950 . S
C1372 C1373 1.386 . S
C1372 C1374 1.391 . S
C1373 C1372 1.386 . S
C1373 C1377 1.393 . S
C1374 H1366 0.950 . S
C1374 C1372 1.391 . S
C1374 C1375 1.400 . S
C1375 C1374 1.400 . S
C1375 C1376 1.398 . S
C1375 C1381 1.491 . S
C1376 H1367 0.950 . S
C1376 C1375 1.398 . S
C1376 C1377 1.391 . S
C1377 H1365 0.950 . S
C1377 C1373 1.393 . S
C1377 C1376 1.391 . S
C1378 H1368 0.950 . S
C1378 C1379 1.386 . S
C1378 C1380 1.391 . S
C1379 C1378 1.386 . S
C1379 C1383 1.393 . S
C1380 H1369 0.950 . S
C1380 C1378 1.391 . S
C1380 C1381 1.400 . S
C1381 C1375 1.491 . S
C1381 C1380 1.400 . S
C1381 C1382 1.398 . S
C1382 H1370 0.950 . S
C1382 C1381 1.398 . S
C1382 C1383 1.391 . S
C1383 H1371 0.950 . S
C1383 C1379 1.393 . S
C1383 C1382 1.391 . S
H1384 C1392 0.950 . S
H1385 C1397 0.950 . S
H1386 C1394 0.950 . S
H1387 C1396 0.950 . S
H1388 C1398 0.950 . S
H1389 C1400 0.950 . S
H1390 C1402 0.950 . S
H1391 C1403 0.950 . S
C1392 H1384 0.950 . S
C1392 C1393 1.386 . S
C1392 C1394 1.391 . S
C1393 C1392 1.386 . S
C1393 C1397 1.393 . S
C1394 H1386 0.950 . S
C1394 C1392 1.391 . S
C1394 C1395 1.400 . S
C1395 C1394 1.400 . S
C1395 C1396 1.398 . S
C1395 C1401 1.491 . S
C1396 H1387 0.950 . S
C1396 C1395 1.398 . S
C1396 C1397 1.391 . S
C1397 H1385 0.950 . S
C1397 C1393 1.393 . S
C1397 C1396 1.391 . S
C1398 H1388 0.950 . S
C1398 C1399 1.386 . S
C1398 C1400 1.391 . S
C1399 C1398 1.386 . S
C1399 C1403 1.393 . S
C1400 H1389 0.950 . S
C1400 C1398 1.391 . S
C1400 C1401 1.400 . S
C1401 C1395 1.491 . S
C1401 C1400 1.400 . S
C1401 C1402 1.398 . S
C1402 H1390 0.950 . S
C1402 C1401 1.398 . S
C1402 C1403 1.391 . S
C1403 H1391 0.950 . S
C1403 C1399 1.393 . S
C1403 C1402 1.391 . S
H1404 C1412 0.950 . S
H1405 C1417 0.950 . S
H1406 C1414 0.950 . S
H1407 C1416 0.950 1_655 S
H1408 C1418 0.950 . S
H1409 C1420 0.950 . S
H1410 C1422 0.950 1_455 S
H1411 C1423 0.950 . S
C1412 H1404 0.950 . S
C1412 C1413 1.386 . S
C1412 C1414 1.391 . S
C1413 C1412 1.386 . S
C1413 C1417 1.393 . S
C1414 H1406 0.950 . S
C1414 C1412 1.391 . S
C1414 C1415 1.400 . S
C1415 C1414 1.400 . S
C1415 C1416 1.398 . S
C1415 C1421 1.491 1_455 S
C1416 H1407 0.950 1_455 S
C1416 C1415 1.398 . S
C1416 C1417 1.391 . S
C1417 H1405 0.950 . S
C1417 C1413 1.393 . S
C1417 C1416 1.391 . S
C1418 H1408 0.950 . S
C1418 C1419 1.386 . S
C1418 C1420 1.391 . S
C1419 C1418 1.386 . S
C1419 C1423 1.393 . S
C1420 H1409 0.950 . S
C1420 C1418 1.391 . S
C1420 C1421 1.400 . S
C1421 C1415 1.491 1_655 S
C1421 C1420 1.400 . S
C1421 C1422 1.398 . S
C1422 H1410 0.950 1_655 S
C1422 C1421 1.398 . S
C1422 C1423 1.391 . S
C1423 H1411 0.950 . S
C1423 C1419 1.393 . S
C1423 C1422 1.391 . S
H1424 C1432 0.950 . S
H1425 C1437 0.950 . S
H1426 C1434 0.950 . S
H1427 C1436 0.950 . S
H1428 C1438 0.950 . S
H1429 C1440 0.950 . S
H1430 C1442 0.950 . S
H1431 C1443 0.950 . S
C1432 H1424 0.950 . S
C1432 C1433 1.386 . S
C1432 C1434 1.391 . S
C1433 C1432 1.386 . S
C1433 C1437 1.393 . S
C1434 H1426 0.950 . S
C1434 C1432 1.391 . S
C1434 C1435 1.400 . S
C1435 C1434 1.400 . S
C1435 C1436 1.398 . S
C1435 C1441 1.491 1_455 S
C1436 H1427 0.950 . S
C1436 C1435 1.398 . S
C1436 C1437 1.391 . S
C1437 H1425 0.950 . S
C1437 C1433 1.393 . S
C1437 C1436 1.391 . S
C1438 H1428 0.950 . S
C1438 C1439 1.386 . S
C1438 C1440 1.391 . S
C1439 C1438 1.386 . S
C1439 C1443 1.393 . S
C1440 H1429 0.950 . S
C1440 C1438 1.391 . S
C1440 C1441 1.400 . S
C1441 C1435 1.491 1_655 S
C1441 C1440 1.400 . S
C1441 C1442 1.398 . S
C1442 H1430 0.950 . S
C1442 C1441 1.398 . S
C1442 C1443 1.391 . S
C1443 H1431 0.950 . S
C1443 C1439 1.393 . S
C1443 C1442 1.391 . S
H1444 C1452 0.950 . S
H1445 C1457 0.950 . S
H1446 C1454 0.950 . S
H1447 C1456 0.950 . S
H1448 C1458 0.950 . S
H1449 C1460 0.950 . S
H1450 C1462 0.950 . S
H1451 C1463 0.950 . S
C1452 H1444 0.950 . S
C1452 C1453 1.386 . S
C1452 C1454 1.391 . S
C1453 C1452 1.386 . S
C1453 C1457 1.393 . S
C1454 H1446 0.950 . S
C1454 C1452 1.391 . S
C1454 C1455 1.400 . S
C1455 C1454 1.400 . S
C1455 C1456 1.398 . S
C1455 C1461 1.491 . S
C1456 H1447 0.950 . S
C1456 C1455 1.398 . S
C1456 C1457 1.391 . S
C1457 H1445 0.950 . S
C1457 C1453 1.393 . S
C1457 C1456 1.391 . S
C1458 H1448 0.950 . S
C1458 C1459 1.386 . S
C1458 C1460 1.391 . S
C1459 C1458 1.386 . S
C1459 C1463 1.393 . S
C1460 H1449 0.950 . S
C1460 C1458 1.391 . S
C1460 C1461 1.400 . S
C1461 C1455 1.491 . S
C1461 C1460 1.400 . S
C1461 C1462 1.398 . S
C1462 H1450 0.950 . S
C1462 C1461 1.398 . S
C1462 C1463 1.391 . S
C1463 H1451 0.950 . S
C1463 C1459 1.393 . S
C1463 C1462 1.391 . S
H1464 C1472 0.950 . S
H1465 C1477 0.950 . S
H1466 C1474 0.950 . S
H1467 C1476 0.950 . S
H1468 C1478 0.950 . S
H1469 C1480 0.950 . S
H1470 C1482 0.950 . S
H1471 C1483 0.950 . S
C1472 H1464 0.950 . S
C1472 C1473 1.386 . S
C1472 C1474 1.391 . S
C1473 C1472 1.386 . S
C1473 C1477 1.393 . S
C1474 H1466 0.950 . S
C1474 C1472 1.391 . S
C1474 C1475 1.400 . S
C1475 C1474 1.400 . S
C1475 C1476 1.398 . S
C1475 C1481 1.491 . S
C1476 H1467 0.950 . S
C1476 C1475 1.398 . S
C1476 C1477 1.391 . S
C1477 H1465 0.950 . S
C1477 C1473 1.393 . S
C1477 C1476 1.391 . S
C1478 H1468 0.950 . S
C1478 C1479 1.386 . S
C1478 C1480 1.391 . S
C1479 C1478 1.386 . S
C1479 C1483 1.393 . S
C1480 H1469 0.950 . S
C1480 C1478 1.391 . S
C1480 C1481 1.400 . S
C1481 C1475 1.491 . S
C1481 C1480 1.400 . S
C1481 C1482 1.398 . S
C1482 H1470 0.950 . S
C1482 C1481 1.398 . S
C1482 C1483 1.391 . S
C1483 H1471 0.950 . S
C1483 C1479 1.393 . S
C1483 C1482 1.391 . S
H1484 C1492 0.950 . S
H1485 C1497 0.950 . S
H1486 C1494 0.950 1_565 S
H1487 C1496 0.950 . S
H1488 C1498 0.950 . S
H1489 C1500 0.950 . S
H1490 C1502 0.950 . S
H1491 C1503 0.950 . S
C1492 H1484 0.950 . S
C1492 C1493 1.386 . S
C1492 C1494 1.391 . S
C1493 C1492 1.386 . S
C1493 C1497 1.393 . S
C1494 H1486 0.950 1_545 S
C1494 C1492 1.391 . S
C1494 C1495 1.397 1_545 S
C1495 C1494 1.397 1_565 S
C1495 C1496 1.392 1_565 S
C1495 C1501 1.500 . S
C1496 H1487 0.950 . S
C1496 C1495 1.392 1_545 S
C1496 C1497 1.391 . S
C1497 H1485 0.950 . S
C1497 C1493 1.393 . S
C1497 C1496 1.391 . S
C1498 H1488 0.950 . S
C1498 C1499 1.386 . S
C1498 C1500 1.391 . S
C1499 C1498 1.386 . S
C1499 C1503 1.393 . S
C1500 H1489 0.950 . S
C1500 C1498 1.391 . S
C1500 C1501 1.400 . S
C1501 C1495 1.500 . S
C1501 C1500 1.400 . S
C1501 C1502 1.398 . S
C1502 H1490 0.950 . S
C1502 C1501 1.398 . S
C1502 C1503 1.391 . S
C1503 H1491 0.950 . S
C1503 C1499 1.393 . S
C1503 C1502 1.391 . S
H1504 C1512 0.950 . S
H1505 C1517 0.950 . S
H1506 C1514 0.950 . S
H1507 C1516 0.950 . S
H1508 C1518 0.950 . S
H1509 C1520 0.950 . S
H1510 C1522 0.950 . S
H1511 C1523 0.950 . S
C1512 H1504 0.950 . S
C1512 C1513 1.386 . S
C1512 C1514 1.391 . S
C1513 C1512 1.386 . S
C1513 C1517 1.393 . S
C1514 H1506 0.950 . S
C1514 C1512 1.391 . S
C1514 C1515 1.400 . S
C1515 C1514 1.400 . S
C1515 C1516 1.398 . S
C1515 C1521 1.491 . S
C1516 H1507 0.950 . S
C1516 C1515 1.398 . S
C1516 C1517 1.391 . S
C1517 H1505 0.950 . S
C1517 C1513 1.393 . S
C1517 C1516 1.391 . S
C1518 H1508 0.950 . S
C1518 C1519 1.386 . S
C1518 C1520 1.391 . S
C1519 C1518 1.386 . S
C1519 C1523 1.393 . S
C1520 H1509 0.950 . S
C1520 C1518 1.391 . S
C1520 C1521 1.400 . S
C1521 C1515 1.491 . S
C1521 C1520 1.400 . S
C1521 C1522 1.398 . S
C1522 H1510 0.950 . S
C1522 C1521 1.398 . S
C1522 C1523 1.391 . S
C1523 H1511 0.950 . S
C1523 C1519 1.393 . S
C1523 C1522 1.391 . S
H1524 C1532 0.950 . S
H1525 C1537 0.950 . S
H1526 C1534 0.950 . S
H1527 C1536 0.950 . S
H1528 C1538 0.950 . S
H1529 C1540 0.950 . S
H1530 C1542 0.950 . S
H1531 C1543 0.950 . S
C1532 H1524 0.950 . S
C1532 C1533 1.386 . S
C1532 C1534 1.391 . S
C1533 C1532 1.386 . S
C1533 C1537 1.393 . S
C1534 H1526 0.950 . S
C1534 C1532 1.391 . S
C1534 C1535 1.400 . S
C1535 C1534 1.400 . S
C1535 C1536 1.398 . S
C1535 C1541 1.491 . S
C1536 H1527 0.950 . S
C1536 C1535 1.398 . S
C1536 C1537 1.391 . S
C1537 H1525 0.950 . S
C1537 C1533 1.393 . S
C1537 C1536 1.391 . S
C1538 H1528 0.950 . S
C1538 C1539 1.386 . S
C1538 C1540 1.391 . S
C1539 C1538 1.386 . S
C1539 C1543 1.393 . S
C1540 H1529 0.950 . S
C1540 C1538 1.391 . S
C1540 C1541 1.400 . S
C1541 C1535 1.491 . S
C1541 C1540 1.400 . S
C1541 C1542 1.398 . S
C1542 H1530 0.950 . S
C1542 C1541 1.398 . S
C1542 C1543 1.391 . S
C1543 H1531 0.950 . S
C1543 C1539 1.393 . S
C1543 C1542 1.391 . S
H1544 C1552 0.950 . S
H1545 C1557 0.950 . S
H1546 C1554 0.950 1_565 S
H1547 C1556 0.950 . S
H1548 C1558 0.950 . S
H1549 C1560 0.950 1_545 S
H1550 C1562 0.950 . S
H1551 C1563 0.950 . S
C1552 H1544 0.950 . S
C1552 C1553 1.386 . S
C1552 C1554 1.391 . S
C1553 C1552 1.386 . S
C1553 C1557 1.393 . S
C1554 H1546 0.950 1_545 S
C1554 C1552 1.391 . S
C1554 C1555 1.400 . S
C1555 C1554 1.400 . S
C1555 C1556 1.398 . S
C1555 C1561 1.491 1_545 S
C1556 H1547 0.950 . S
C1556 C1555 1.398 . S
C1556 C1557 1.391 . S
C1557 H1545 0.950 . S
C1557 C1553 1.393 . S
C1557 C1556 1.391 . S
C1558 H1548 0.950 . S
C1558 C1559 1.386 . S
C1558 C1560 1.391 . S
C1559 C1558 1.386 . S
C1559 C1563 1.393 . S
C1560 H1549 0.950 1_565 S
C1560 C1558 1.391 . S
C1560 C1561 1.400 . S
C1561 C1555 1.491 1_565 S
C1561 C1560 1.400 . S
C1561 C1562 1.398 . S
C1562 H1550 0.950 . S
C1562 C1561 1.398 . S
C1562 C1563 1.391 . S
C1563 H1551 0.950 . S
C1563 C1559 1.393 . S
C1563 C1562 1.391 . S
H1564 C1572 0.950 . S
H1565 C1577 0.950 . S
H1566 C1574 0.950 . S
H1567 C1576 0.950 . S
H1568 C1578 0.950 . S
H1569 C1580 0.950 . S
H1570 C1582 0.950 . S
H1571 C1583 0.950 . S
C1572 H1564 0.950 . S
C1572 C1573 1.386 . S
C1572 C1574 1.391 . S
C1573 C1572 1.386 . S
C1573 C1577 1.393 . S
C1574 H1566 0.950 . S
C1574 C1572 1.391 . S
C1574 C1575 1.400 . S
C1575 C1574 1.400 . S
C1575 C1576 1.398 . S
C1575 C1581 1.491 . S
C1576 H1567 0.950 . S
C1576 C1575 1.398 . S
C1576 C1577 1.391 . S
C1577 H1565 0.950 . S
C1577 C1573 1.393 . S
C1577 C1576 1.391 . S
C1578 H1568 0.950 . S
C1578 C1579 1.386 . S
C1578 C1580 1.391 . S
C1579 C1578 1.386 . S
C1579 C1583 1.393 . S
C1580 H1569 0.950 . S
C1580 C1578 1.391 . S
C1580 C1581 1.400 . S
C1581 C1575 1.491 . S
C1581 C1580 1.400 . S
C1581 C1582 1.398 . S
C1582 H1570 0.950 . S
C1582 C1581 1.398 . S
C1582 C1583 1.391 . S
C1583 H1571 0.950 . S
C1583 C1579 1.393 . S
C1583 C1582 1.391 . S
C953 C52 1.540 . S
C959 C819 1.513 . S
C973 C111 1.539 . S
C979 C583 1.526 . S
C993 C878 1.017 . S
C999 C170 0.993 . S
C1013 C229 1.001 . S
C1019 C937 1.015 . S
C1033 C288 1.541 . S
C1039 C406 1.514 . S
C1053 C642 1.536 . S
C1059 C347 1.519 . S
C1073 C701 0.999 . S
C1079 C465 1.016 . S
C1093 C524 1.011 . S
C1099 C760 1.015 . S
C1113 C121 1.479 . S
C1119 C3 1.493 . S
C1133 C62 1.496 . S
C1139 C180 1.481 . S
C1153 C713 1.547 . S
C1159 C5 1.589 . S
C1173 C64 1.589 . S
C1179 C654 1.555 . S
C1193 C241 1.588 . S
C1199 C123 1.557 . S
C1213 C595 1.579 . S
C1219 C182 1.542 . S
C1233 C92 2.199 . S
C1239 C33 2.196 . S
C1253 C210 1.589 . S
C1259 C151 1.585 . S
C1273 C623 2.201 . S
C1279 C269 2.197 . S
C1293 C418 1.835 . S
C1299 C328 1.853 . S
C1313 C387 1.857 . S
C1319 C477 1.840 . S
C1333 C888 1.631 . S
C1339 C300 1.673 . S
C1353 C359 1.673 . S
C1359 C829 1.632 . S
C1373 C536 1.673 . S
C1379 C416 1.631 . S
C1393 C475 1.646 . S
C1399 C772 1.667 . S
C1413 C357 1.124 . S
C1419 C298 1.138 . S
C1433 C505 1.873 . S
C1439 C446 1.869 . S
C1453 C534 1.150 . S
C1459 C770 1.129 . S
C1473 C593 1.492 . S
C1479 C652 1.487 . S
C1493 C711 1.479 . S
C1499 C239 1.487 . S
C1513 C741 1.590 . S
C1519 C682 1.585 . S
C1533 C831 1.845 . S
C1539 C800 1.860 . S
C1553 C564 1.854 . S
C1559 C890 1.837 . S
C1573 C918 1.872 . S
C1579 C859 1.871 . S
