# Generated by pormake.
# Topology mok, (4)-cn, num edge types: 1
# Building blocks:
#     Node 0, Type 0, BuildingBlock: AZAVOO_clean_sbu_0, # of connection points: 4
#     Node 1, Type 0, BuildingBlock: AZAVOO_clean_sbu_0, # of connection points: 4
#     Node 2, Type 0, BuildingBlock: AZAVOO_clean_sbu_0, # of connection points: 4
#     Node 3, Type 0, BuildingBlock: AZAVOO_clean_sbu_0, # of connection points: 4
#     Node 4, Type 0, BuildingBlock: AZAVOO_clean_sbu_0, # of connection points: 4
#     Node 5, Type 0, BuildingBlock: AZAVOO_clean_sbu_0, # of connection points: 4
#     Node 6, Type 0, BuildingBlock: AZAVOO_clean_sbu_0, # of connection points: 4
#     Node 7, Type 0, BuildingBlock: AZAVOO_clean_sbu_0, # of connection points: 4
#     Edge 8, Type (0, 0), BuildingBlock: FUNLAD_clean_linker_0, # of connection points: 2
#     Edge 9, Type (0, 0), BuildingBlock: FUNLAD_clean_linker_0, # of connection points: 2
#     Edge 10, Type (0, 0), BuildingBlock: FUNLAD_clean_linker_0, # of connection points: 2
#     Edge 11, Type (0, 0), BuildingBlock: FUNLAD_clean_linker_0, # of connection points: 2
#     Edge 12, Type (0, 0), BuildingBlock: FUNLAD_clean_linker_0, # of connection points: 2
#     Edge 13, Type (0, 0), BuildingBlock: FUNLAD_clean_linker_0, # of connection points: 2
#     Edge 14, Type (0, 0), BuildingBlock: FUNLAD_clean_linker_0, # of connection points: 2
#     Edge 15, Type (0, 0), BuildingBlock: FUNLAD_clean_linker_0, # of connection points: 2
#     Edge 16, Type (0, 0), BuildingBlock: FUNLAD_clean_linker_0, # of connection points: 2
#     Edge 17, Type (0, 0), BuildingBlock: FUNLAD_clean_linker_0, # of connection points: 2
#     Edge 18, Type (0, 0), BuildingBlock: FUNLAD_clean_linker_0, # of connection points: 2
#     Edge 19, Type (0, 0), BuildingBlock: FUNLAD_clean_linker_0, # of connection points: 2
#     Edge 20, Type (0, 0), BuildingBlock: FUNLAD_clean_linker_0, # of connection points: 2
#     Edge 21, Type (0, 0), BuildingBlock: FUNLAD_clean_linker_0, # of connection points: 2
#     Edge 22, Type (0, 0), BuildingBlock: FUNLAD_clean_linker_0, # of connection points: 2
#     Edge 23, Type (0, 0), BuildingBlock: FUNLAD_clean_linker_0, # of connection points: 2
# Relax obj value: 0.033
# Max RMSD: 0.042
# Mean RMSD: 0.042
data_MOF--net-mok--node1-AZAVOO_clean_sbu_0--edge1-FUNLAD_clean_linker_0
_symmetry_space_group_name_H-M    P1
_symmetry_Int_Tables_number       1
_symmetry_cell_setting            triclinic
loop_
_symmetry_equiv_pos_as_xyz
'x, y, z'
_cell_length_a     50.480613
_cell_length_b     24.836314
_cell_length_c     31.228597
_cell_angle_alpha  90.142963
_cell_angle_beta   90.004439
_cell_angle_gamma 90.191813
loop_
_atom_site_label
_atom_site_type_symbol
_atom_site_fract_x
_atom_site_fract_y
_atom_site_fract_z
_atom_type_partial_charge
Mg0 Mg 0.56792 0.3333 -0.0055 0.0
O1 O 0.61146 0.30592 -0.00448 0.0
O2 O 0.61907 0.26774 0.0591 0.0
Mg3 Mg 0.58118 0.27244 0.09876 0.0
C4 C 0.6268 0.28219 0.02193 0.0
C5 C 0.58784 0.37722 0.90808 0.0
O6 O 0.60537 0.3976 0.93472 0.0
O7 O 0.55377 0.24667 0.98673 0.0
O8 O 0.56143 0.21275 0.05185 0.0
O9 O 0.57977 0.41256 0.02108 0.0
O10 O 0.5685 0.34258 0.06082 0.0
C11 C 0.55295 0.2079 0.01346 0.0
C12 C 0.57717 0.39142 0.05869 0.0
O13 O 0.56991 0.3462 0.92259 0.0
Mg14 Mg 0.42543 0.64633 0.00686 0.0
O15 O 0.38298 0.68 0.01196 0.0
O16 O 0.37932 0.71836 0.07649 0.0
Mg17 Mg 0.41866 0.71078 0.11171 0.0
C18 C 0.36951 0.70526 0.04023 0.0
C19 C 0.40091 0.60225 0.92305 0.0
O20 O 0.38319 0.58652 0.95123 0.0
O21 O 0.44192 0.73081 -0.00379 0.0
O22 O 0.43765 0.76686 0.06161 0.0
O23 O 0.41225 0.56941 0.03624 0.0
O24 O 0.4275 0.63889 0.07319 0.0
C25 C 0.44472 0.77 0.02238 0.0
C26 C 0.41728 0.59125 0.07303 0.0
O27 O 0.42032 0.63097 0.93554 0.0
Mg28 Mg 0.58204 0.67077 0.47671 0.0
O29 O 0.62488 0.70271 0.47488 0.0
O30 O 0.62986 0.7477 0.41342 0.0
Mg31 Mg 0.59101 0.74387 0.37626 0.0
C32 C 0.63891 0.73067 0.44906 0.0
C33 C 0.57834 0.60101 0.55487 0.0
O34 O 0.56804 0.57235 0.52358 0.0
O35 O 0.56701 0.75494 0.49223 0.0
O36 O 0.57261 0.79644 0.42932 0.0
O37 O 0.59468 0.59633 0.44354 0.0
O38 O 0.58062 0.66903 0.40992 0.0
C39 C 0.56531 0.79659 0.46852 0.0
C40 C 0.59025 0.62105 0.40786 0.0
O41 O 0.58635 0.64852 0.5469 0.0
Mg42 Mg 0.4208 0.31872 0.49385 0.0
O43 O 0.37756 0.28866 0.48968 0.0
O44 O 0.37334 0.24766 0.42618 0.0
Mg45 Mg 0.41261 0.25113 0.3905 0.0
C46 C 0.36375 0.26287 0.46204 0.0
C47 C 0.43521 0.36535 0.58003 0.0
O48 O 0.45576 0.3758 0.55555 0.0
O49 O 0.43491 0.23319 0.50682 0.0
O50 O 0.42975 0.19535 0.44221 0.0
O51 O 0.40945 0.39547 0.46281 0.0
O52 O 0.42298 0.32351 0.42738 0.0
C53 C 0.43654 0.19281 0.48158 0.0
C54 C 0.41387 0.37192 0.4265 0.0
O55 O 0.41619 0.33792 0.56451 0.0
Mg56 Mg 0.07381 0.83748 -0.00166 0.0
O57 O 0.11659 0.81011 0.0127 0.0
O58 O 0.11525 0.7741 0.07823 0.0
Mg59 Mg 0.07337 0.77836 0.10535 0.0
C60 C 0.12793 0.78722 0.04442 0.0
C61 C 0.06193 0.86464 0.90777 0.0
O62 O 0.03905 0.86191 0.92773 0.0
O63 O 0.06124 0.75045 0.98601 0.0
O64 O 0.05921 0.71971 0.05311 0.0
O65 O 0.08182 0.91736 0.02857 0.0
O66 O 0.06614 0.84675 0.06319 0.0
C67 C 0.05609 0.71309 0.01281 0.0
C68 C 0.07447 0.89576 0.06433 0.0
O69 O 0.08277 0.85229 0.92829 0.0
Mg70 Mg 0.92695 0.16832 -0.00312 0.0
O71 O 0.88204 0.18568 -0.00178 0.0
O72 O 0.87362 0.22904 0.05963 0.0
Mg73 Mg 0.91188 0.2376 0.09766 0.0
C74 C 0.86604 0.20902 0.02398 0.0
C75 C 0.94416 0.11879 0.91176 0.0
O76 O 0.96418 0.1082 0.93726 0.0
O77 O 0.93589 0.25675 0.98187 0.0
O78 O 0.92689 0.29444 0.04538 0.0
O79 O 0.92002 0.09055 0.03084 0.0
O80 O 0.92806 0.16792 0.06341 0.0
C81 C 0.93443 0.29786 0.00643 0.0
C82 C 0.9222 0.11758 0.06618 0.0
O83 O 0.92478 0.14568 0.92641 0.0
Mg84 Mg 0.0639 0.16538 0.48919 0.0
O85 O 0.10834 0.1832 0.47743 0.0
O86 O 0.11081 0.22002 0.41221 0.0
Mg87 Mg 0.06954 0.22949 0.38436 0.0
C88 C 0.12176 0.20308 0.44646 0.0
C89 C 0.0501 0.13947 0.58083 0.0
O90 O 0.02716 0.14915 0.56255 0.0
O91 O 0.0568 0.25374 0.50363 0.0
O92 O 0.0604 0.29003 0.43841 0.0
O93 O 0.06826 0.08605 0.45767 0.0
O94 O 0.05734 0.16063 0.42349 0.0
C95 C 0.05651 0.29435 0.47872 0.0
C96 C 0.06362 0.11038 0.42185 0.0
O97 O 0.07111 0.14602 0.55905 0.0
Mg98 Mg 0.93553 0.83494 0.48048 0.0
O99 O 0.89211 0.80544 0.47989 0.0
O100 O 0.88684 0.75504 0.42093 0.0
Mg101 Mg 0.92576 0.75261 0.38425 0.0
C102 C 0.87785 0.77593 0.45536 0.0
C103 C 0.91395 0.89608 0.56022 0.0
O104 O 0.89658 0.91127 0.53137 0.0
O105 O 0.94914 0.75149 0.50087 0.0
O106 O 0.94262 0.70428 0.44058 0.0
O107 O 0.92412 0.90671 0.4425 0.0
O108 O 0.93696 0.82951 0.41406 0.0
C109 C 0.94986 0.70749 0.47972 0.0
C110 C 0.92792 0.87745 0.40869 0.0
O111 O 0.93188 0.86283 0.54962 0.0
C112 C 0.8225 0.2557 0.02904 0.0
C113 C 0.83767 0.21297 0.01279 0.0
C114 C 0.79533 0.25821 0.02115 0.0
C115 C 0.78264 0.21758 -0.00272 0.0
C116 C 0.7978 0.17506 0.98069 0.0
C117 C 0.82519 0.17318 0.98779 0.0
C118 C 0.75337 0.2164 -0.00683 0.0
C119 C 0.73884 0.26157 0.99007 0.0
C120 C 0.70957 0.26193 -0.00584 0.0
C121 C 0.69488 0.302 0.97335 0.0
C122 C 0.66766 0.3071 0.98077 0.0
C123 C 0.65481 0.27311 0.01014 0.0
H124 H 0.7073 0.19604 0.03961 0.0
C125 C 0.66942 0.23234 0.03034 0.0
C126 C 0.69647 0.22656 0.02224 0.0
H127 H 0.66004 0.2055 0.05309 0.0
H128 H 0.83159 0.28699 0.04836 0.0
H129 H 0.78413 0.29083 0.03531 0.0
H130 H 0.7884 0.14298 0.96262 0.0
H131 H 0.8364 0.13961 0.97512 0.0
H132 H 0.74358 0.17737 -0.00636 0.0
H133 H 0.74874 0.30005 0.98539 0.0
H134 H 0.70459 0.33008 0.95193 0.0
H135 H 0.65695 0.33909 0.96492 0.0
C136 C 0.17223 0.78973 0.00691 0.0
C137 C 0.15684 0.77642 0.04298 0.0
C138 C 0.19967 0.78097 0.0069 0.0
C139 C 0.2122 0.75866 0.04302 0.0
C140 C 0.19674 0.7451 0.07873 0.0
C141 C 0.16947 0.75359 0.07869 0.0
C142 C 0.24135 0.75142 0.04623 0.0
C143 C 0.25802 0.74815 0.01261 0.0
C144 C 0.28697 0.74001 0.0186 0.0
C145 C 0.30146 0.71074 0.98807 0.0
C146 C 0.32841 0.70002 -0.00549 0.0
C147 C 0.34142 0.71885 0.03152 0.0
H148 H 0.2901 0.7854 0.07799 0.0
C149 C 0.3271 0.7501 0.06108 0.0
C150 C 0.3003 0.76078 0.05462 0.0
H151 H 0.33652 0.76615 0.08956 0.0
H152 H 0.16317 0.80757 0.97892 0.0
H153 H 0.21097 0.79305 0.97909 0.0
H154 H 0.20582 0.72809 0.10706 0.0
H155 H 0.15837 0.74279 0.1071 0.0
H156 H 0.24928 0.74617 0.0783 0.0
H157 H 0.25028 0.74802 0.98019 0.0
H158 H 0.29175 0.69491 0.95974 0.0
H159 H 0.33887 0.67619 0.9709 0.0
C160 C 0.83521 0.80212 0.49105 0.0
C161 C 0.84995 0.76509 0.46677 0.0
C162 C 0.80822 0.79312 0.49868 0.0
C163 C 0.79571 0.74646 0.48275 0.0
C164 C 0.81079 0.70833 0.46045 0.0
C165 C 0.83754 0.71781 0.45205 0.0
C166 C 0.76683 0.7371 0.48718 0.0
C167 C 0.7491 0.77714 0.48347 0.0
C168 C 0.72038 0.76654 0.47796 0.0
C169 C 0.70593 0.79932 0.44999 0.0
C170 C 0.67944 0.78782 0.44093 0.0
C171 C 0.66663 0.74393 0.46044 0.0
H172 H 0.71793 0.69822 0.52102 0.0
C173 C 0.68073 0.71253 0.49004 0.0
C174 C 0.70744 0.72352 0.49854 0.0
H175 H 0.67135 0.67867 0.5058 0.0
H176 H 0.84433 0.83874 0.50299 0.0
H177 H 0.79715 0.82273 0.51678 0.0
H178 H 0.80164 0.67192 0.44812 0.0
H179 H 0.84848 0.68819 0.43375 0.0
H180 H 0.75996 0.69558 0.48746 0.0
H181 H 0.75608 0.8181 0.47851 0.0
H182 H 0.71541 0.8329 0.43397 0.0
H183 H 0.66902 0.81323 0.41841 0.0
C184 C 0.16447 0.19654 0.48814 0.0
C185 C 0.15103 0.20636 0.44946 0.0
C186 C 0.19218 0.20011 0.49007 0.0
C187 C 0.20689 0.21334 0.45323 0.0
C188 C 0.19341 0.22259 0.41472 0.0
C189 C 0.1659 0.21949 0.41286 0.0
C190 C 0.23626 0.21603 0.45256 0.0
C191 C 0.25163 0.22566 0.48704 0.0
C192 C 0.28086 0.23143 0.48302 0.0
C193 C 0.29462 0.26694 0.51019 0.0
C194 C 0.32176 0.27645 0.50427 0.0
C195 C 0.33558 0.25039 0.47109 0.0
H196 H 0.28542 0.17362 0.43118 0.0
C197 C 0.32201 0.21279 0.44543 0.0
C198 C 0.29507 0.2031 0.45152 0.0
H199 H 0.33215 0.19098 0.42025 0.0
H200 H 0.1536 0.18615 0.51688 0.0
H201 H 0.20194 0.1915 0.52012 0.0
H202 H 0.20422 0.23248 0.38578 0.0
H203 H 0.15633 0.22701 0.38241 0.0
H204 H 0.24552 0.21336 0.42122 0.0
H205 H 0.24262 0.23378 0.51794 0.0
H206 H 0.2842 0.2887 0.5351 0.0
H207 H 0.3317 0.30529 0.52485 0.0
C208 C 0.57906 0.40111 0.13845 0.0
C209 C 0.58394 0.4225 0.09762 0.0
C210 C 0.58368 0.43207 0.17512 0.0
C211 C 0.59348 0.48508 0.17173 0.0
C212 C 0.59863 0.50611 0.1309 0.0
C213 C 0.59403 0.47513 0.09424 0.0
C214 C 0.59657 0.5208 0.20967 0.0
C215 C 0.59996 0.50206 0.24972 0.0
C216 C 0.59998 0.53661 0.28867 0.0
C217 C 0.60956 0.51478 0.32705 0.0
C218 C 0.60734 0.5432 0.36548 0.0
C219 C 0.59538 0.59418 0.36644 0.0
H220 H 0.58049 0.60648 0.26092 0.0
C221 C 0.5866 0.61703 0.32792 0.0
C222 C 0.58874 0.58849 0.28942 0.0
H223 H 0.57709 0.65606 0.32769 0.0
H224 H 0.57096 0.36097 0.14212 0.0
H225 H 0.57858 0.41485 0.20582 0.0
H226 H 0.60595 0.54692 0.12731 0.0
H227 H 0.59793 0.49288 0.06321 0.0
H228 H 0.59621 0.56388 0.20401 0.0
H229 H 0.6028 0.45919 0.25455 0.0
H230 H 0.61822 0.47491 0.32754 0.0
H231 H 0.61435 0.52447 0.39463 0.0
C232 C 0.41906 0.58461 0.15292 0.0
C233 C 0.41149 0.56246 0.11334 0.0
C234 C 0.41537 0.55568 0.19076 0.0
C235 C 0.40384 0.50397 0.18985 0.0
C236 C 0.39596 0.48222 0.15032 0.0
C237 C 0.39963 0.51119 0.11246 0.0
C238 C 0.40173 0.47006 0.22885 0.0
C239 C 0.4013 0.49044 0.26886 0.0
C240 C 0.40238 0.45687 0.30815 0.0
C241 C 0.39456 0.47985 0.34724 0.0
C242 C 0.39755 0.45161 0.38555 0.0
C243 C 0.40861 0.39977 0.38562 0.0
H244 H 0.42001 0.38577 0.279 0.0
C245 C 0.41597 0.37622 0.34647 0.0
C246 C 0.41298 0.40447 0.30814 0.0
H247 H 0.42483 0.33661 0.34548 0.0
H248 H 0.42859 0.62367 0.15465 0.0
H249 H 0.42255 0.57331 0.22028 0.0
H250 H 0.38725 0.44233 0.14861 0.0
H251 H 0.39364 0.49291 0.08245 0.0
H252 H 0.40037 0.42683 0.22411 0.0
H253 H 0.40006 0.53372 0.27337 0.0
H254 H 0.38652 0.52023 0.34828 0.0
H255 H 0.39171 0.47093 0.41519 0.0
C256 C 0.42198 0.58798 0.85134 0.0
C257 C 0.40034 0.58025 0.87899 0.0
C258 C 0.42295 0.56165 0.81179 0.0
C259 C 0.40227 0.52699 0.79909 0.0
C260 C 0.37998 0.52176 0.8256 0.0
C261 C 0.37908 0.5478 0.8653 0.0
C262 C 0.40339 0.49564 0.7586 0.0
C263 C 0.42634 0.47806 0.74163 0.0
C264 C 0.42816 0.4465 0.70126 0.0
C265 C 0.45215 0.44718 0.67861 0.0
C266 C 0.45462 0.41966 0.6398 0.0
C267 C 0.43318 0.39026 0.62296 0.0
H268 H 0.38841 0.41224 0.7024 0.0
C269 C 0.40945 0.38771 0.6464 0.0
C270 C 0.40694 0.4155 0.6852 0.0
H271 H 0.39263 0.36505 0.63443 0.0
H272 H 0.43856 0.61318 0.8607 0.0
H273 H 0.43997 0.56842 0.79142 0.0
H274 H 0.3636 0.496 0.81624 0.0
H275 H 0.36201 0.54138 0.88569 0.0
H276 H 0.38468 0.48555 0.74344 0.0
H277 H 0.4449 0.48801 0.75744 0.0
H278 H 0.46893 0.4701 0.69049 0.0
H279 H 0.47325 0.4222 0.6227 0.0
C280 C 0.60703 0.42962 0.84714 0.0
C281 C 0.58734 0.39479 0.8629 0.0
C282 C 0.60539 0.45008 0.80561 0.0
C283 C 0.58384 0.43649 0.77904 0.0
C284 C 0.56477 0.39995 0.79424 0.0
C285 C 0.56644 0.37939 0.83574 0.0
C286 C 0.58062 0.45903 0.73533 0.0
C287 C 0.59162 0.50594 0.72265 0.0
C288 C 0.58778 0.52945 0.67931 0.0
C289 C 0.5934 0.58435 0.67305 0.0
C290 C 0.59026 0.60795 0.63275 0.0
C291 C 0.58142 0.57701 0.59784 0.0
H292 H 0.57566 0.45565 0.64678 0.0
C293 C 0.576 0.52205 0.60397 0.0
C294 C 0.57932 0.49841 0.64407 0.0
H295 H 0.5695 0.49687 0.57759 0.0
H296 H 0.62358 0.4417 0.86707 0.0
H297 H 0.62109 0.47634 0.7946 0.0
H298 H 0.54817 0.38816 0.77427 0.0
H299 H 0.55101 0.3524 0.84681 0.0
H300 H 0.56733 0.4375 0.71398 0.0
H301 H 0.60294 0.52975 0.74542 0.0
H302 H 0.60018 0.60917 0.69948 0.0
H303 H 0.59472 0.65036 0.629 0.0
C304 C 0.06498 0.90355 0.14252 0.0
C305 C 0.07588 0.92577 0.10514 0.0
C306 C 0.06518 0.9325 0.18084 0.0
C307 C 0.07651 0.9843 0.18274 0.0
C308 C 0.08731 0.0066 0.14531 0.0
C309 C 0.08708 0.97758 0.10688 0.0
C310 C 0.0761 0.01701 0.2226 0.0
C311 C 0.07472 0.99496 0.26191 0.0
C312 C 0.07274 0.02675 0.30208 0.0
C313 C 0.0795 0.00184 0.34083 0.0
C314 C 0.07674 0.0292 0.37964 0.0
C315 C 0.06699 0.08208 0.38058 0.0
H316 H 0.05663 0.09983 0.27404 0.0
C317 C 0.06015 0.10713 0.34187 0.0
C318 C 0.06291 0.07974 0.30299 0.0
H319 H 0.0522 0.14755 0.34158 0.0
H320 H 0.05571 0.86418 0.14209 0.0
H321 H 0.05572 0.91459 0.20845 0.0
H322 H 0.09589 0.04665 0.14577 0.0
H323 H 0.09548 0.99594 0.07852 0.0
H324 H 0.07771 0.06038 0.21924 0.0
H325 H 0.07575 0.95151 0.26522 0.0
H326 H 0.08687 0.96091 0.34113 0.0
H327 H 0.08214 0.0087 0.40893 0.0
C328 C 0.90845 0.94733 0.36065 0.0
C329 C 0.92166 0.89806 0.36555 0.0
C330 C 0.9041 0.96866 0.31992 0.0
C331 C 0.91325 0.94142 0.2832 0.0
C332 C 0.92541 0.89107 0.28811 0.0
C333 C 0.92964 0.86962 0.32884 0.0
C334 C 0.91117 0.9647 0.23951 0.0
C335 C 0.90984 0.01811 0.23228 0.0
C336 C 0.91145 0.04272 0.18903 0.0
C337 C 0.91963 0.09662 0.18595 0.0
C338 C 0.92276 0.12102 0.1461 0.0
C339 C 0.91756 0.09218 0.10827 0.0
H340 H 0.89832 0.97312 0.1521 0.0
C341 C 0.90864 0.03867 0.11119 0.0
C342 C 0.90549 0.01417 0.15117 0.0
H343 H 0.90422 0.01557 0.08258 0.0
H344 H 0.90168 0.96977 0.38833 0.0
H345 H 0.89367 0.00649 0.31753 0.0
H346 H 0.93241 0.86893 0.26041 0.0
H347 H 0.93982 0.83147 0.33154 0.0
H348 H 0.91339 0.93718 0.21272 0.0
H349 H 0.90999 0.0457 0.25928 0.0
H350 H 0.92421 0.11971 0.21451 0.0
H351 H 0.92978 0.16222 0.14504 0.0
C352 C 0.93533 0.91211 0.63154 0.0
C353 C 0.91415 0.92117 0.60325 0.0
C354 C 0.93651 0.93879 0.67094 0.0
C355 C 0.91649 0.97517 0.68289 0.0
C356 C 0.89489 0.98272 0.65528 0.0
C357 C 0.8938 0.95633 0.61573 0.0
C358 C 0.91716 0.00482 0.72422 0.0
C359 C 0.93984 0.01821 0.74448 0.0
C360 C 0.94073 0.04671 0.78638 0.0
C361 C 0.96346 0.04146 0.81191 0.0
C362 C 0.96477 0.06569 0.85228 0.0
C363 C 0.94343 0.09624 0.86786 0.0
H364 H 0.90227 0.0858 0.78209 0.0
C365 C 0.92107 0.10325 0.84169 0.0
C366 C 0.91973 0.0789 0.80134 0.0
H367 H 0.90442 0.12705 0.85256 0.0
H368 H 0.95124 0.88494 0.62305 0.0
H369 H 0.95299 0.93034 0.69201 0.0
H370 H 0.87904 0.00994 0.66397 0.0
H371 H 0.87713 0.96395 0.59479 0.0
H372 H 0.89822 0.01644 0.73774 0.0
H373 H 0.9587 0.00668 0.73053 0.0
H374 H 0.98007 0.01754 0.801 0.0
H375 H 0.98239 0.05978 0.87148 0.0
C376 C 0.0402 0.90662 0.84441 0.0
C377 C 0.06347 0.8894 0.86485 0.0
C378 C 0.0415 0.93606 0.8065 0.0
C379 C 0.06615 0.94916 0.78826 0.0
C380 C 0.08933 0.92937 0.80732 0.0
C381 C 0.08805 0.89999 0.84543 0.0
C382 C 0.06824 0.98311 0.74937 0.0
C383 C 0.05043 0.02164 0.73996 0.0
C384 C 0.05149 0.05492 0.7006 0.0
C385 C 0.02782 0.07705 0.6851 0.0
C386 C 0.02755 0.10615 0.64693 0.0
C387 C 0.05103 0.11423 0.62363 0.0
H388 H 0.09403 0.05043 0.69004 0.0
C389 C 0.07496 0.09438 0.64018 0.0
C390 C 0.07522 0.06504 0.67832 0.0
H391 H 0.09344 0.10034 0.62316 0.0
H392 H 0.02091 0.8985 0.85819 0.0
H393 H 0.02313 0.94854 0.79172 0.0
H394 H 0.10854 0.93814 0.79346 0.0
H395 H 0.10633 0.88699 0.86026 0.0
H396 H 0.08519 0.97654 0.72865 0.0
H397 H 0.03371 0.02818 0.76121 0.0
H398 H 0.00932 0.07049 0.70194 0.0
H399 H 0.00879 0.1212 0.63522 0.0
C400 C 0.45079 0.86954 0.02654 0.0
C401 C 0.45776 0.82004 0.00794 0.0
C402 C 0.46489 0.9163 0.01657 0.0
C403 C 0.48658 0.91428 0.98837 0.0
C404 C 0.49326 0.865 0.96917 0.0
C405 C 0.47868 0.81837 0.97831 0.0
C406 C 0.50406 0.96177 0.98265 0.0
C407 C 0.49464 0.01235 0.98175 0.0
C408 C 0.51203 0.06035 0.98508 0.0
C409 C 0.50463 0.10837 0.96481 0.0
C410 C 0.5189 0.15592 0.97207 0.0
C411 C 0.5403 0.15654 0.00087 0.0
H412 H 0.54008 0.02437 0.02917 0.0
C413 C 0.54806 0.10821 0.02039 0.0
C414 C 0.53422 0.06047 0.01231 0.0
H415 H 0.56448 0.10757 0.04274 0.0
H416 H 0.43476 0.8719 0.04953 0.0
H417 H 0.45962 0.95343 0.03265 0.0
H418 H 0.51008 0.86241 0.94772 0.0
H419 H 0.4846 0.78059 0.96384 0.0
H420 H 0.52527 0.9549 0.98045 0.0
H421 H 0.4734 0.01895 0.97986 0.0
H422 H 0.48743 0.10933 0.94407 0.0
H423 H 0.51236 0.19271 0.95686 0.0
C424 C 0.56217 0.89672 0.4699 0.0
C425 C 0.55403 0.84669 0.48623 0.0
C426 C 0.55002 0.94411 0.48358 0.0
C427 C 0.52901 0.94232 0.5129 0.0
C428 C 0.52151 0.89254 0.53063 0.0
C429 C 0.53413 0.84509 0.51767 0.0
C430 C 0.51426 0.99256 0.52178 0.0
C431 C 0.48763 0.99339 0.52349 0.0
C432 C 0.47264 0.04411 0.51835 0.0
C433 C 0.4507 0.04431 0.49084 0.0
C434 C 0.43846 0.09266 0.47996 0.0
C435 C 0.44746 0.14157 0.49741 0.0
H436 H 0.49756 0.09345 0.55936 0.0
C437 C 0.46821 0.14105 0.52737 0.0
C438 C 0.48093 0.09269 0.53746 0.0
H439 H 0.47546 0.17826 0.54134 0.0
H440 H 0.57768 0.89916 0.446 0.0
H441 H 0.55622 0.98203 0.46965 0.0
H442 H 0.50564 0.89018 0.55389 0.0
H443 H 0.52757 0.80703 0.5309 0.0
H444 H 0.5251 0.03035 0.51943 0.0
H445 H 0.47665 0.95578 0.52093 0.0
H446 H 0.44389 0.00733 0.47592 0.0
H447 H 0.4223 0.09192 0.45712 0.0
C448 C 0.03608 0.62314 0.02778 0.0
C449 C 0.04456 0.66147 -0.00234 0.0
C450 C 0.02292 0.57665 0.01468 0.0
C451 C 0.01793 0.56703 0.9711 0.0
C452 C 0.02759 0.60352 0.9406 0.0
C453 C 0.04061 0.65076 0.95378 0.0
C454 C 0.00232 0.51904 0.95811 0.0
C455 C 0.9803 0.50575 0.98007 0.0
C456 C 0.96603 0.45344 0.97754 0.0
C457 C 0.94292 0.44795 0.00214 0.0
C458 C 0.93166 0.3975 0.00907 0.0
C459 C 0.94308 0.35124 -0.00887 0.0
H460 H 0.9942 0.40989 0.93773 0.0
C461 C 0.96481 0.35684 0.96338 0.0
C462 C 0.97638 0.40759 0.95683 0.0
H463 H 0.974 0.32167 0.94925 0.0
H464 H 0.03899 0.6295 0.06179 0.0
H465 H 0.01638 0.54832 0.03884 0.0
H466 H 0.02426 0.59643 0.90678 0.0
H467 H 0.04709 0.67924 0.92973 0.0
H468 H 0.00929 0.49481 0.93149 0.0
H469 H 0.97319 0.53411 0.00406 0.0
H470 H 0.93437 0.48247 0.01827 0.0
H471 H 0.9147 0.3944 0.0302 0.0
C472 C 0.05955 0.3945 0.47536 0.0
C473 C 0.05042 0.34808 0.49638 0.0
C474 C 0.0515 0.44542 0.48897 0.0
C475 C 0.03365 0.45084 0.52309 0.0
C476 C 0.02559 0.40467 0.54565 0.0
C477 C 0.03412 0.35366 0.53259 0.0
C478 C 0.0219 0.5044 0.53128 0.0
C479 C 0.99576 0.51014 0.53818 0.0
C480 C 0.98225 0.56177 0.5297 0.0
C481 C 0.95887 0.56075 0.50549 0.0
C482 C 0.94791 0.60851 0.49038 0.0
C483 C 0.95967 0.65824 0.50037 0.0
H484 H 0.01122 0.61342 0.56072 0.0
C485 C 0.98193 0.65969 0.52734 0.0
C486 C 0.99336 0.61165 0.54154 0.0
H487 H 0.99127 0.69767 0.53552 0.0
H488 H 0.07243 0.39141 0.44772 0.0
H489 H 0.05808 0.48047 0.47124 0.0
H490 H 0.01217 0.40786 0.57259 0.0
H491 H 0.02692 0.31853 0.54954 0.0
H492 H 0.03374 0.53958 0.52315 0.0
H493 H 0.98338 0.47448 0.54149 0.0
H494 H 0.94993 0.52278 0.49611 0.0
H495 H 0.93056 0.60649 0.46998 0.0
loop_
_geom_bond_atom_site_label_1
_geom_bond_atom_site_label_2
_geom_bond_distance
_geom_bond_site_symmetry_2
_ccdc_geom_bond_type
Mg0 O1 2.025 1_554 S
Mg0 O7 1.986 1_554 S
Mg0 O9 2.114 . S
Mg0 O10 2.251 . S
Mg0 O13 2.010 1_554 S
O1 Mg0 2.025 1_556 S
O1 C4 1.241 1_556 S
O2 Mg3 2.028 . S
O2 C4 1.248 . S
Mg3 O2 2.028 . S
Mg3 O8 2.032 . S
Mg3 O10 2.079 . S
C4 O1 1.241 1_554 S
C4 O2 1.248 . S
C5 O6 1.264 . S
C5 O13 1.249 . S
O6 C5 1.264 . S
O7 Mg0 1.986 1_556 S
O7 C11 1.246 1_556 S
O8 Mg3 2.032 . S
O8 C11 1.259 . S
O9 Mg0 2.114 . S
O9 C12 1.252 . S
O10 Mg0 2.251 . S
O10 Mg3 2.079 . S
O10 C12 1.273 . S
C11 O7 1.246 1_554 S
C11 O8 1.259 . S
C12 O9 1.252 . S
C12 O10 1.273 . S
O13 Mg0 2.010 1_556 S
O13 C5 1.249 . S
Mg14 O15 2.025 1_554 S
Mg14 O21 1.986 1_554 S
Mg14 O23 2.114 . S
Mg14 O24 2.251 . S
Mg14 O27 2.010 1_554 S
O15 Mg14 2.025 1_556 S
O15 C18 1.241 1_556 S
O16 Mg17 2.028 . S
O16 C18 1.248 . S
Mg17 O16 2.028 . S
Mg17 O22 2.032 . S
Mg17 O24 2.079 . S
C18 O15 1.241 1_554 S
C18 O16 1.248 . S
C19 O20 1.264 . S
C19 O27 1.249 . S
O20 C19 1.264 . S
O21 Mg14 1.986 1_556 S
O21 C25 1.246 1_556 S
O22 Mg17 2.032 . S
O22 C25 1.259 . S
O23 Mg14 2.114 . S
O23 C26 1.252 . S
O24 Mg14 2.251 . S
O24 Mg17 2.079 . S
O24 C26 1.273 . S
C25 O21 1.246 1_554 S
C25 O22 1.259 . S
C26 O23 1.252 . S
C26 O24 1.273 . S
O27 Mg14 2.010 1_556 S
O27 C19 1.249 . S
Mg28 O29 2.028 . S
Mg28 O35 1.986 . S
Mg28 O37 2.114 . S
Mg28 O38 2.251 . S
Mg28 O41 2.010 . S
O29 Mg28 2.028 . S
O29 C32 1.250 . S
O30 Mg31 2.028 . S
O30 C32 1.248 . S
Mg31 O30 2.028 . S
Mg31 O36 2.032 . S
Mg31 O38 2.079 . S
C32 O29 1.250 . S
C32 O30 1.248 . S
C33 O34 1.264 . S
C33 O41 1.249 . S
O34 C33 1.264 . S
O35 Mg28 1.986 . S
O35 C39 1.246 . S
O36 Mg31 2.032 . S
O36 C39 1.259 . S
O37 Mg28 2.114 . S
O37 C40 1.252 . S
O38 Mg28 2.251 . S
O38 Mg31 2.079 . S
O38 C40 1.273 . S
C39 O35 1.246 . S
C39 O36 1.259 . S
C40 O37 1.252 . S
C40 O38 1.273 . S
O41 Mg28 2.010 . S
O41 C33 1.249 . S
Mg42 O43 2.028 . S
Mg42 O49 1.986 . S
Mg42 O51 2.114 . S
Mg42 O52 2.251 . S
Mg42 O55 2.010 . S
O43 Mg42 2.028 . S
O43 C46 1.250 . S
O44 Mg45 2.028 . S
O44 C46 1.248 . S
Mg45 O44 2.028 . S
Mg45 O50 2.032 . S
Mg45 O52 2.079 . S
C46 O43 1.250 . S
C46 O44 1.248 . S
C47 O48 1.264 . S
C47 O55 1.249 . S
O48 C47 1.264 . S
O49 Mg42 1.986 . S
O49 C53 1.246 . S
O50 Mg45 2.032 . S
O50 C53 1.259 . S
O51 Mg42 2.114 . S
O51 C54 1.252 . S
O52 Mg42 2.251 . S
O52 Mg45 2.079 . S
O52 C54 1.273 . S
C53 O49 1.246 . S
C53 O50 1.259 . S
C54 O51 1.252 . S
C54 O52 1.273 . S
O55 Mg42 2.010 . S
O55 C47 1.249 . S
Mg56 O57 2.025 1_554 S
Mg56 O63 1.986 1_554 S
Mg56 O65 2.114 . S
Mg56 O66 2.251 . S
Mg56 O69 2.010 1_554 S
O57 Mg56 2.025 1_556 S
O57 C60 1.241 1_556 S
O58 Mg59 2.028 . S
O58 C60 1.248 . S
Mg59 O58 2.028 . S
Mg59 O64 2.032 . S
Mg59 O66 2.079 . S
C60 O57 1.241 1_554 S
C60 O58 1.248 . S
C61 O62 1.264 . S
C61 O69 1.249 . S
O62 C61 1.264 . S
O63 Mg56 1.986 1_556 S
O63 C67 1.246 1_556 S
O64 Mg59 2.032 . S
O64 C67 1.259 . S
O65 Mg56 2.114 . S
O65 C68 1.252 . S
O66 Mg56 2.251 . S
O66 Mg59 2.079 . S
O66 C68 1.273 . S
C67 O63 1.246 1_554 S
C67 O64 1.259 . S
C68 O65 1.252 . S
C68 O66 1.273 . S
O69 Mg56 2.010 1_556 S
O69 C61 1.249 . S
Mg70 O71 2.025 1_554 S
Mg70 O77 1.986 1_554 S
Mg70 O79 2.114 . S
Mg70 O80 2.251 . S
Mg70 O83 2.010 1_554 S
O71 Mg70 2.025 1_556 S
O71 C74 1.241 1_556 S
O72 Mg73 2.028 . S
O72 C74 1.248 . S
Mg73 O72 2.028 . S
Mg73 O78 2.032 . S
Mg73 O80 2.079 . S
C74 O71 1.241 1_554 S
C74 O72 1.248 . S
C75 O76 1.264 . S
C75 O83 1.249 . S
O76 C75 1.264 . S
O77 Mg70 1.986 1_556 S
O77 C81 1.246 1_556 S
O78 Mg73 2.032 . S
O78 C81 1.259 . S
O79 Mg70 2.114 . S
O79 C82 1.252 . S
O80 Mg70 2.251 . S
O80 Mg73 2.079 . S
O80 C82 1.273 . S
C81 O77 1.246 1_554 S
C81 O78 1.259 . S
C82 O79 1.252 . S
C82 O80 1.273 . S
O83 Mg70 2.010 1_556 S
O83 C75 1.249 . S
Mg84 O85 2.028 . S
Mg84 O91 1.986 . S
Mg84 O93 2.114 . S
Mg84 O94 2.251 . S
Mg84 O97 2.010 . S
O85 Mg84 2.028 . S
O85 C88 1.250 . S
O86 Mg87 2.028 . S
O86 C88 1.248 . S
Mg87 O86 2.028 . S
Mg87 O92 2.032 . S
Mg87 O94 2.079 . S
C88 O85 1.250 . S
C88 O86 1.248 . S
C89 O90 1.264 . S
C89 O97 1.249 . S
O90 C89 1.264 . S
O91 Mg84 1.986 . S
O91 C95 1.246 . S
O92 Mg87 2.032 . S
O92 C95 1.259 . S
O93 Mg84 2.114 . S
O93 C96 1.252 . S
O94 Mg84 2.251 . S
O94 Mg87 2.079 . S
O94 C96 1.273 . S
C95 O91 1.246 . S
C95 O92 1.259 . S
C96 O93 1.252 . S
C96 O94 1.273 . S
O97 Mg84 2.010 . S
O97 C89 1.249 . S
Mg98 O99 2.028 . S
Mg98 O105 1.986 . S
Mg98 O107 2.114 . S
Mg98 O108 2.251 . S
Mg98 O111 2.010 . S
O99 Mg98 2.028 . S
O99 C102 1.250 . S
O100 Mg101 2.028 . S
O100 C102 1.248 . S
Mg101 O100 2.028 . S
Mg101 O106 2.032 . S
Mg101 O108 2.079 . S
C102 O99 1.250 . S
C102 O100 1.248 . S
C103 O104 1.264 . S
C103 O111 1.249 . S
O104 C103 1.264 . S
O105 Mg98 1.986 . S
O105 C109 1.246 . S
O106 Mg101 2.032 . S
O106 C109 1.259 . S
O107 Mg98 2.114 . S
O107 C110 1.252 . S
O108 Mg98 2.251 . S
O108 Mg101 2.079 . S
O108 C110 1.273 . S
C109 O105 1.246 . S
C109 O106 1.259 . S
C110 O107 1.252 . S
C110 O108 1.273 . S
O111 Mg98 2.010 . S
O111 C103 1.249 . S
C112 C113 1.386 . S
C112 C114 1.382 1_554 S
C112 H128 0.949 1_554 S
C113 C112 1.386 . S
C113 C117 1.383 . S
C114 C112 1.382 1_556 S
C114 C115 1.400 1_556 S
C114 H129 0.954 . S
C115 C114 1.400 1_554 S
C115 C116 1.375 . S
C115 C118 1.482 . S
C116 C115 1.375 . S
C116 C117 1.367 . S
C116 H130 0.951 . S
C117 C113 1.383 . S
C117 C116 1.367 . S
C117 H131 0.950 . S
C118 C115 1.482 . S
C118 C119 1.292 1_554 S
C118 H132 0.954 . S
C119 C118 1.292 1_556 S
C119 C120 1.479 . S
C119 H133 0.950 . S
C120 C119 1.479 . S
C120 C121 1.375 . S
C120 C126 1.404 . S
C121 C120 1.375 . S
C121 C122 1.369 . S
C121 H134 0.950 . S
C122 C121 1.369 . S
C122 C123 1.392 1_556 S
C122 H135 0.951 . S
C123 C122 1.392 1_554 S
C123 C125 1.384 . S
H124 C126 0.949 . S
C125 C123 1.384 . S
C125 C126 1.385 1_554 S
C125 H127 0.950 . S
C126 C120 1.404 . S
C126 H124 0.949 . S
C126 C125 1.385 1_556 S
H127 C125 0.950 . S
H128 C112 0.949 1_556 S
H129 C114 0.954 . S
H130 C116 0.951 . S
H131 C117 0.950 . S
H132 C118 0.954 . S
H133 C119 0.950 . S
H134 C121 0.950 . S
H135 C122 0.951 . S
C136 C137 1.386 1_556 S
C136 C138 1.383 . S
C136 H152 0.951 . S
C137 C136 1.386 1_554 S
C137 C141 1.383 . S
C138 C136 1.383 . S
C138 C139 1.402 1_556 S
C138 H153 0.951 . S
C139 C138 1.402 1_554 S
C139 C140 1.375 . S
C139 C142 1.481 . S
C140 C139 1.375 . S
C140 C141 1.367 . S
C140 H154 0.951 . S
C141 C137 1.383 . S
C141 C140 1.367 . S
C141 H155 0.950 . S
C142 C139 1.481 . S
C142 C143 1.297 1_554 S
C142 H156 0.950 . S
C143 C142 1.297 1_556 S
C143 C144 1.479 . S
C143 H157 0.950 . S
C144 C143 1.479 . S
C144 C145 1.375 . S
C144 C150 1.404 1_556 S
C145 C144 1.375 . S
C145 C146 1.369 . S
C145 H158 0.950 . S
C146 C145 1.369 . S
C146 C147 1.392 1_556 S
C146 H159 0.951 . S
C147 C146 1.392 1_554 S
C147 C149 1.384 . S
H148 C150 0.949 . S
C149 C147 1.384 . S
C149 C150 1.385 . S
C149 H151 0.950 . S
C150 C144 1.404 1_554 S
C150 H148 0.949 . S
C150 C149 1.385 . S
H151 C149 0.950 . S
H152 C136 0.951 . S
H153 C138 0.951 . S
H154 C140 0.951 . S
H155 C141 0.950 . S
H156 C142 0.950 . S
H157 C143 0.950 . S
H158 C145 0.950 . S
H159 C146 0.951 . S
C160 C161 1.386 . S
C160 C162 1.383 . S
C160 H176 0.951 . S
C161 C160 1.386 . S
C161 C165 1.383 . S
C162 C160 1.383 . S
C162 C163 1.402 . S
C162 H177 0.951 . S
C163 C162 1.402 . S
C163 C164 1.375 . S
C163 C166 1.481 . S
C164 C163 1.375 . S
C164 C165 1.367 . S
C164 H178 0.951 . S
C165 C161 1.383 . S
C165 C164 1.367 . S
C165 H179 0.950 . S
C166 C163 1.481 . S
C166 C167 1.297 . S
C166 H180 0.950 . S
C167 C166 1.297 . S
C167 C168 1.479 . S
C167 H181 0.950 . S
C168 C167 1.479 . S
C168 C169 1.375 . S
C168 C174 1.404 . S
C169 C168 1.375 . S
C169 C170 1.369 . S
C169 H182 0.950 . S
C170 C169 1.369 . S
C170 C171 1.392 . S
C170 H183 0.951 . S
C171 C170 1.392 . S
C171 C173 1.384 . S
H172 C174 0.949 . S
C173 C171 1.384 . S
C173 C174 1.385 . S
C173 H175 0.950 . S
C174 C168 1.404 . S
C174 H172 0.949 . S
C174 C173 1.385 . S
H175 C173 0.950 . S
H176 C160 0.951 . S
H177 C162 0.951 . S
H178 C164 0.951 . S
H179 C165 0.950 . S
H180 C166 0.950 . S
H181 C167 0.950 . S
H182 C169 0.950 . S
H183 C170 0.951 . S
C184 C185 1.386 . S
C184 C186 1.383 . S
C184 H200 0.951 . S
C185 C184 1.386 . S
C185 C189 1.383 . S
C186 C184 1.383 . S
C186 C187 1.402 . S
C186 H201 0.951 . S
C187 C186 1.402 . S
C187 C188 1.375 . S
C187 C190 1.481 . S
C188 C187 1.375 . S
C188 C189 1.367 . S
C188 H202 0.951 . S
C189 C185 1.383 . S
C189 C188 1.367 . S
C189 H203 0.950 . S
C190 C187 1.481 . S
C190 C191 1.297 . S
C190 H204 0.950 . S
C191 C190 1.297 . S
C191 C192 1.479 . S
C191 H205 0.950 . S
C192 C191 1.479 . S
C192 C193 1.375 . S
C192 C198 1.404 . S
C193 C192 1.375 . S
C193 C194 1.369 . S
C193 H206 0.950 . S
C194 C193 1.369 . S
C194 C195 1.392 . S
C194 H207 0.951 . S
C195 C194 1.392 . S
C195 C197 1.384 . S
H196 C198 0.949 . S
C197 C195 1.384 . S
C197 C198 1.385 . S
C197 H199 0.950 . S
C198 C192 1.404 . S
C198 H196 0.949 . S
C198 C197 1.385 . S
H199 C197 0.950 . S
H200 C184 0.951 . S
H201 C186 0.951 . S
H202 C188 0.951 . S
H203 C189 0.950 . S
H204 C190 0.950 . S
H205 C191 0.950 . S
H206 C193 0.950 . S
H207 C194 0.951 . S
C208 C209 1.386 . S
C208 C210 1.383 . S
C208 H224 0.951 . S
C209 C208 1.386 . S
C209 C213 1.383 . S
C210 C208 1.383 . S
C210 C211 1.402 . S
C210 H225 0.951 . S
C211 C210 1.402 . S
C211 C212 1.375 . S
C211 C214 1.481 . S
C212 C211 1.375 . S
C212 C213 1.367 . S
C212 H226 0.951 . S
C213 C209 1.383 . S
C213 C212 1.367 . S
C213 H227 0.950 . S
C214 C211 1.481 . S
C214 C215 1.297 . S
C214 H228 0.950 . S
C215 C214 1.297 . S
C215 C216 1.479 . S
C215 H229 0.950 . S
C216 C215 1.479 . S
C216 C217 1.375 . S
C216 C222 1.404 . S
C217 C216 1.375 . S
C217 C218 1.369 . S
C217 H230 0.950 . S
C218 C217 1.369 . S
C218 C219 1.392 . S
C218 H231 0.951 . S
C219 C218 1.392 . S
C219 C221 1.384 . S
H220 C222 0.949 . S
C221 C219 1.384 . S
C221 C222 1.385 . S
C221 H223 0.950 . S
C222 C216 1.404 . S
C222 H220 0.949 . S
C222 C221 1.385 . S
H223 C221 0.950 . S
H224 C208 0.951 . S
H225 C210 0.951 . S
H226 C212 0.951 . S
H227 C213 0.950 . S
H228 C214 0.950 . S
H229 C215 0.950 . S
H230 C217 0.950 . S
H231 C218 0.951 . S
C232 C233 1.386 . S
C232 C234 1.383 . S
C232 H248 0.951 . S
C233 C232 1.386 . S
C233 C237 1.383 . S
C234 C232 1.383 . S
C234 C235 1.402 . S
C234 H249 0.951 . S
C235 C234 1.402 . S
C235 C236 1.375 . S
C235 C238 1.481 . S
C236 C235 1.375 . S
C236 C237 1.367 . S
C236 H250 0.951 . S
C237 C233 1.383 . S
C237 C236 1.367 . S
C237 H251 0.950 . S
C238 C235 1.481 . S
C238 C239 1.297 . S
C238 H252 0.950 . S
C239 C238 1.297 . S
C239 C240 1.479 . S
C239 H253 0.950 . S
C240 C239 1.479 . S
C240 C241 1.375 . S
C240 C246 1.404 . S
C241 C240 1.375 . S
C241 C242 1.369 . S
C241 H254 0.950 . S
C242 C241 1.369 . S
C242 C243 1.392 . S
C242 H255 0.951 . S
C243 C242 1.392 . S
C243 C245 1.384 . S
H244 C246 0.949 . S
C245 C243 1.384 . S
C245 C246 1.385 . S
C245 H247 0.950 . S
C246 C240 1.404 . S
C246 H244 0.949 . S
C246 C245 1.385 . S
H247 C245 0.950 . S
H248 C232 0.951 . S
H249 C234 0.951 . S
H250 C236 0.951 . S
H251 C237 0.950 . S
H252 C238 0.950 . S
H253 C239 0.950 . S
H254 C241 0.950 . S
H255 C242 0.951 . S
C256 C257 1.386 . S
C256 C258 1.383 . S
C256 H272 0.951 . S
C257 C256 1.386 . S
C257 C261 1.383 . S
C258 C256 1.383 . S
C258 C259 1.402 . S
C258 H273 0.951 . S
C259 C258 1.402 . S
C259 C260 1.375 . S
C259 C262 1.481 . S
C260 C259 1.375 . S
C260 C261 1.367 . S
C260 H274 0.951 . S
C261 C257 1.383 . S
C261 C260 1.367 . S
C261 H275 0.950 . S
C262 C259 1.481 . S
C262 C263 1.297 . S
C262 H276 0.950 . S
C263 C262 1.297 . S
C263 C264 1.479 . S
C263 H277 0.950 . S
C264 C263 1.479 . S
C264 C265 1.375 . S
C264 C270 1.404 . S
C265 C264 1.375 . S
C265 C266 1.369 . S
C265 H278 0.950 . S
C266 C265 1.369 . S
C266 C267 1.392 . S
C266 H279 0.951 . S
C267 C266 1.392 . S
C267 C269 1.384 . S
H268 C270 0.949 . S
C269 C267 1.384 . S
C269 C270 1.385 . S
C269 H271 0.950 . S
C270 C264 1.404 . S
C270 H268 0.949 . S
C270 C269 1.385 . S
H271 C269 0.950 . S
H272 C256 0.951 . S
H273 C258 0.951 . S
H274 C260 0.951 . S
H275 C261 0.950 . S
H276 C262 0.950 . S
H277 C263 0.950 . S
H278 C265 0.950 . S
H279 C266 0.951 . S
C280 C281 1.386 . S
C280 C282 1.383 . S
C280 H296 0.951 . S
C281 C280 1.386 . S
C281 C285 1.383 . S
C282 C280 1.383 . S
C282 C283 1.402 . S
C282 H297 0.951 . S
C283 C282 1.402 . S
C283 C284 1.375 . S
C283 C286 1.481 . S
C284 C283 1.375 . S
C284 C285 1.367 . S
C284 H298 0.951 . S
C285 C281 1.383 . S
C285 C284 1.367 . S
C285 H299 0.950 . S
C286 C283 1.481 . S
C286 C287 1.297 . S
C286 H300 0.950 . S
C287 C286 1.297 . S
C287 C288 1.479 . S
C287 H301 0.950 . S
C288 C287 1.479 . S
C288 C289 1.375 . S
C288 C294 1.404 . S
C289 C288 1.375 . S
C289 C290 1.369 . S
C289 H302 0.950 . S
C290 C289 1.369 . S
C290 C291 1.392 . S
C290 H303 0.951 . S
C291 C290 1.392 . S
C291 C293 1.384 . S
H292 C294 0.949 . S
C293 C291 1.384 . S
C293 C294 1.385 . S
C293 H295 0.950 . S
C294 C288 1.404 . S
C294 H292 0.949 . S
C294 C293 1.385 . S
H295 C293 0.950 . S
H296 C280 0.951 . S
H297 C282 0.951 . S
H298 C284 0.951 . S
H299 C285 0.950 . S
H300 C286 0.950 . S
H301 C287 0.950 . S
H302 C289 0.950 . S
H303 C290 0.951 . S
C304 C305 1.386 . S
C304 C306 1.383 . S
C304 H320 0.951 . S
C305 C304 1.386 . S
C305 C309 1.383 . S
C306 C304 1.383 . S
C306 C307 1.402 . S
C306 H321 0.951 . S
C307 C306 1.402 . S
C307 C308 1.375 . S
C307 C310 1.481 1_565 S
C308 C307 1.375 . S
C308 C309 1.367 . S
C308 H322 0.951 1_565 S
C309 C305 1.383 . S
C309 C308 1.367 . S
C309 H323 0.950 . S
C310 C307 1.481 1_545 S
C310 C311 1.297 . S
C310 H324 0.950 . S
C311 C310 1.297 . S
C311 C312 1.479 . S
C311 H325 0.950 1_545 S
C312 C311 1.479 . S
C312 C313 1.375 . S
C312 C318 1.404 . S
C313 C312 1.375 . S
C313 C314 1.369 . S
C313 H326 0.950 . S
C314 C313 1.369 . S
C314 C315 1.392 . S
C314 H327 0.951 . S
C315 C314 1.392 . S
C315 C317 1.384 . S
H316 C318 0.949 . S
C317 C315 1.384 . S
C317 C318 1.385 . S
C317 H319 0.950 . S
C318 C312 1.404 . S
C318 H316 0.949 . S
C318 C317 1.385 . S
H319 C317 0.950 . S
H320 C304 0.951 . S
H321 C306 0.951 . S
H322 C308 0.951 1_545 S
H323 C309 0.950 . S
H324 C310 0.950 . S
H325 C311 0.950 1_565 S
H326 C313 0.950 . S
H327 C314 0.951 . S
C328 C329 1.386 . S
C328 C330 1.383 . S
C328 H344 0.951 . S
C329 C328 1.386 . S
C329 C333 1.383 . S
C330 C328 1.383 . S
C330 C331 1.402 . S
C330 H345 0.951 . S
C331 C330 1.402 . S
C331 C332 1.375 . S
C331 C334 1.481 . S
C332 C331 1.375 . S
C332 C333 1.367 . S
C332 H346 0.951 . S
C333 C329 1.383 . S
C333 C332 1.367 . S
C333 H347 0.950 . S
C334 C331 1.481 . S
C334 C335 1.297 1_565 S
C334 H348 0.950 . S
C335 C334 1.297 1_545 S
C335 C336 1.479 . S
C335 H349 0.950 . S
C336 C335 1.479 . S
C336 C337 1.375 . S
C336 C342 1.404 . S
C337 C336 1.375 . S
C337 C338 1.369 . S
C337 H350 0.950 . S
C338 C337 1.369 . S
C338 C339 1.392 . S
C338 H351 0.951 . S
C339 C338 1.392 . S
C339 C341 1.384 . S
H340 C342 0.949 . S
C341 C339 1.384 . S
C341 C342 1.385 . S
C341 H343 0.950 . S
C342 C336 1.404 . S
C342 H340 0.949 . S
C342 C341 1.385 . S
H343 C341 0.950 . S
H344 C328 0.951 . S
H345 C330 0.951 . S
H346 C332 0.951 . S
H347 C333 0.950 . S
H348 C334 0.950 . S
H349 C335 0.950 . S
H350 C337 0.950 . S
H351 C338 0.951 . S
C352 C353 1.386 . S
C352 C354 1.383 . S
C352 H368 0.951 . S
C353 C352 1.386 . S
C353 C357 1.383 . S
C354 C352 1.383 . S
C354 C355 1.402 . S
C354 H369 0.951 . S
C355 C354 1.402 . S
C355 C356 1.375 . S
C355 C358 1.481 1_565 S
C356 C355 1.375 . S
C356 C357 1.367 . S
C356 H370 0.951 1_565 S
C357 C353 1.383 . S
C357 C356 1.367 . S
C357 H371 0.950 . S
C358 C355 1.481 1_545 S
C358 C359 1.297 . S
C358 H372 0.950 . S
C359 C358 1.297 . S
C359 C360 1.479 . S
C359 H373 0.950 1_545 S
C360 C359 1.479 . S
C360 C361 1.375 . S
C360 C366 1.404 . S
C361 C360 1.375 . S
C361 C362 1.369 . S
C361 H374 0.950 . S
C362 C361 1.369 . S
C362 C363 1.392 . S
C362 H375 0.951 . S
C363 C362 1.392 . S
C363 C365 1.384 . S
H364 C366 0.949 . S
C365 C363 1.384 . S
C365 C366 1.385 . S
C365 H367 0.950 . S
C366 C360 1.404 . S
C366 H364 0.949 . S
C366 C365 1.385 . S
H367 C365 0.950 . S
H368 C352 0.951 . S
H369 C354 0.951 . S
H370 C356 0.951 1_545 S
H371 C357 0.950 . S
H372 C358 0.950 . S
H373 C359 0.950 1_565 S
H374 C361 0.950 . S
H375 C362 0.951 . S
C376 C377 1.386 . S
C376 C378 1.383 . S
C376 H392 0.951 . S
C377 C376 1.386 . S
C377 C381 1.383 . S
C378 C376 1.383 . S
C378 C379 1.402 . S
C378 H393 0.951 . S
C379 C378 1.402 . S
C379 C380 1.375 . S
C379 C382 1.481 1_565 S
C380 C379 1.375 . S
C380 C381 1.367 . S
C380 H394 0.951 . S
C381 C377 1.383 . S
C381 C380 1.367 . S
C381 H395 0.950 . S
C382 C379 1.481 1_545 S
C382 C383 1.297 . S
C382 H396 0.950 . S
C383 C382 1.297 . S
C383 C384 1.479 . S
C383 H397 0.950 . S
C384 C383 1.479 . S
C384 C385 1.375 . S
C384 C390 1.404 . S
C385 C384 1.375 . S
C385 C386 1.369 . S
C385 H398 0.950 . S
C386 C385 1.369 . S
C386 C387 1.392 . S
C386 H399 0.951 . S
C387 C386 1.392 . S
C387 C389 1.384 . S
H388 C390 0.949 . S
C389 C387 1.384 . S
C389 C390 1.385 . S
C389 H391 0.950 . S
C390 C384 1.404 . S
C390 H388 0.949 . S
C390 C389 1.385 . S
H391 C389 0.950 . S
H392 C376 0.951 . S
H393 C378 0.951 . S
H394 C380 0.951 . S
H395 C381 0.950 . S
H396 C382 0.950 . S
H397 C383 0.950 . S
H398 C385 0.950 . S
H399 C386 0.951 . S
C400 C401 1.386 . S
C400 C402 1.383 . S
C400 H416 0.951 . S
C401 C400 1.386 . S
C401 C405 1.383 . S
C402 C400 1.383 . S
C402 C403 1.402 . S
C402 H417 0.951 . S
C403 C402 1.402 . S
C403 C404 1.375 . S
C403 C406 1.481 . S
C404 C403 1.375 . S
C404 C405 1.367 . S
C404 H418 0.951 . S
C405 C401 1.383 . S
C405 C404 1.367 . S
C405 H419 0.950 . S
C406 C403 1.481 . S
C406 C407 1.297 1_565 S
C406 H420 0.950 . S
C407 C406 1.297 1_545 S
C407 C408 1.479 . S
C407 H421 0.950 . S
C408 C407 1.479 . S
C408 C409 1.375 . S
C408 C414 1.404 . S
C409 C408 1.375 . S
C409 C410 1.369 . S
C409 H422 0.950 . S
C410 C409 1.369 . S
C410 C411 1.392 . S
C410 H423 0.951 . S
C411 C410 1.392 . S
C411 C413 1.384 . S
H412 C414 0.949 . S
C413 C411 1.384 . S
C413 C414 1.385 . S
C413 H415 0.950 . S
C414 C408 1.404 . S
C414 H412 0.949 . S
C414 C413 1.385 . S
H415 C413 0.950 . S
H416 C400 0.951 . S
H417 C402 0.951 . S
H418 C404 0.951 . S
H419 C405 0.950 . S
H420 C406 0.950 . S
H421 C407 0.950 . S
H422 C409 0.950 . S
H423 C410 0.951 . S
C424 C425 1.386 . S
C424 C426 1.383 . S
C424 H440 0.951 . S
C425 C424 1.386 . S
C425 C429 1.383 . S
C426 C424 1.383 . S
C426 C427 1.402 . S
C426 H441 0.951 . S
C427 C426 1.402 . S
C427 C428 1.375 . S
C427 C430 1.481 . S
C428 C427 1.375 . S
C428 C429 1.367 . S
C428 H442 0.951 . S
C429 C425 1.383 . S
C429 C428 1.367 . S
C429 H443 0.950 . S
C430 C427 1.481 . S
C430 C431 1.297 1_565 S
C430 H444 0.950 . S
C431 C430 1.297 1_545 S
C431 C432 1.479 . S
C431 H445 0.950 1_545 S
C432 C431 1.479 . S
C432 C433 1.375 . S
C432 C438 1.404 . S
C433 C432 1.375 . S
C433 C434 1.369 . S
C433 H446 0.950 . S
C434 C433 1.369 . S
C434 C435 1.392 . S
C434 H447 0.951 . S
C435 C434 1.392 . S
C435 C437 1.384 . S
H436 C438 0.949 . S
C437 C435 1.384 . S
C437 C438 1.385 . S
C437 H439 0.950 . S
C438 C432 1.404 . S
C438 H436 0.949 . S
C438 C437 1.385 . S
H439 C437 0.950 . S
H440 C424 0.951 . S
H441 C426 0.951 . S
H442 C428 0.951 . S
H443 C429 0.950 . S
H444 C430 0.950 . S
H445 C431 0.950 1_565 S
H446 C433 0.950 . S
H447 C434 0.951 . S
C448 C449 1.386 . S
C448 C450 1.383 . S
C448 H464 0.951 . S
C449 C448 1.386 . S
C449 C453 1.383 1_554 S
C450 C448 1.383 . S
C450 C451 1.402 1_554 S
C450 H465 0.951 1_455 S
C451 C450 1.402 1_556 S
C451 C452 1.375 . S
C451 C454 1.481 . S
C452 C451 1.375 . S
C452 C453 1.367 . S
C452 H466 0.951 . S
C453 C449 1.383 1_556 S
C453 C452 1.367 . S
C453 H467 0.950 . S
C454 C451 1.481 . S
C454 C455 1.297 1_456 S
C454 H468 0.950 . S
C455 C454 1.297 1_654 S
C455 C456 1.479 . S
C455 H469 0.950 . S
C456 C455 1.479 . S
C456 C457 1.375 . S
C456 C462 1.404 1_554 S
C457 C456 1.375 . S
C457 C458 1.369 . S
C457 H470 0.950 . S
C458 C457 1.369 . S
C458 C459 1.392 . S
C458 H471 0.951 . S
C459 C458 1.392 . S
C459 C461 1.384 1_554 S
H460 C462 0.949 . S
C461 C459 1.384 1_556 S
C461 C462 1.385 . S
C461 H463 0.950 . S
C462 C456 1.404 1_556 S
C462 H460 0.949 . S
C462 C461 1.385 . S
H463 C461 0.950 . S
H464 C448 0.951 . S
H465 C450 0.951 1_655 S
H466 C452 0.951 . S
H467 C453 0.950 . S
H468 C454 0.950 . S
H469 C455 0.950 . S
H470 C457 0.950 . S
H471 C458 0.951 . S
C472 C473 1.386 . S
C472 C474 1.383 . S
C472 H488 0.951 . S
C473 C472 1.386 . S
C473 C477 1.383 . S
C474 C472 1.383 . S
C474 C475 1.402 . S
C474 H489 0.951 . S
C475 C474 1.402 . S
C475 C476 1.375 . S
C475 C478 1.481 1_455 S
C476 C475 1.375 . S
C476 C477 1.367 . S
C476 H490 0.951 1_455 S
C477 C473 1.383 . S
C477 C476 1.367 . S
C477 H491 0.950 . S
C478 C475 1.481 1_655 S
C478 C479 1.297 . S
C478 H492 0.950 . S
C479 C478 1.297 . S
C479 C480 1.479 . S
C479 H493 0.950 . S
C480 C479 1.479 . S
C480 C481 1.375 . S
C480 C486 1.404 . S
C481 C480 1.375 . S
C481 C482 1.369 . S
C481 H494 0.950 . S
C482 C481 1.369 . S
C482 C483 1.392 . S
C482 H495 0.951 . S
C483 C482 1.392 . S
C483 C485 1.384 . S
H484 C486 0.949 . S
C485 C483 1.384 . S
C485 C486 1.385 . S
C485 H487 0.950 . S
C486 C480 1.404 . S
C486 H484 0.949 . S
C486 C485 1.385 . S
H487 C485 0.950 . S
H488 C472 0.951 . S
H489 C474 0.951 . S
H490 C476 0.951 1_655 S
H491 C477 0.950 . S
H492 C478 0.950 . S
H493 C479 0.950 . S
H494 C481 0.950 . S
H495 C482 0.951 . S
C113 C74 1.496 . S
C123 C4 1.506 . S
C137 C60 1.488 . S
C147 C18 1.498 . S
C161 C102 1.469 . S
C171 C32 1.444 . S
C185 C88 1.485 . S
C195 C46 1.494 . S
C209 C12 1.384 . S
C219 C40 1.369 . S
C233 C26 1.379 . S
C243 C54 1.362 . S
C257 C19 1.224 . S
C267 C47 1.171 . S
C281 C5 1.231 . S
C291 C33 1.272 . S
C305 C68 1.381 . S
C315 C96 1.364 . S
C329 C110 1.386 . S
C339 C82 1.377 . S
C353 C103 1.227 . S
C363 C75 1.174 . S
C377 C61 1.247 . S
C387 C89 1.207 . S
C401 C25 1.508 . S
C411 C11 1.469 . S
C425 C39 1.524 . S
C435 C53 1.470 . S
C449 C67 1.514 . S
C459 C81 1.495 . S
C473 C95 1.523 . S
C483 C109 1.460 . S
