# Generated by pormake.
# Topology smm, (6)-cn, num edge types: 1
# Building blocks:
#     Node 0, Type 0, BuildingBlock: BETDAH_clean_sbu_0, # of connection points: 6
#     Node 1, Type 0, BuildingBlock: BETDAH_clean_sbu_0, # of connection points: 6
#     Node 2, Type 0, BuildingBlock: BETDAH_clean_sbu_0, # of connection points: 6
#     Node 3, Type 0, BuildingBlock: BETDAH_clean_sbu_0, # of connection points: 6
#     Node 4, Type 0, BuildingBlock: BETDAH_clean_sbu_0, # of connection points: 6
#     Node 5, Type 0, BuildingBlock: BETDAH_clean_sbu_0, # of connection points: 6
#     Node 6, Type 0, BuildingBlock: BETDAH_clean_sbu_0, # of connection points: 6
#     Node 7, Type 0, BuildingBlock: BETDAH_clean_sbu_0, # of connection points: 6
#     Node 8, Type 0, BuildingBlock: BETDAH_clean_sbu_0, # of connection points: 6
#     Edge 9, Type (0, 0), BuildingBlock: KIFKEQ_clean_linker_1, # of connection points: 2
#     Edge 10, Type (0, 0), BuildingBlock: KIFKEQ_clean_linker_1, # of connection points: 2
#     Edge 11, Type (0, 0), BuildingBlock: KIFKEQ_clean_linker_1, # of connection points: 2
#     Edge 12, Type (0, 0), BuildingBlock: KIFKEQ_clean_linker_1, # of connection points: 2
#     Edge 13, Type (0, 0), BuildingBlock: KIFKEQ_clean_linker_1, # of connection points: 2
#     Edge 14, Type (0, 0), BuildingBlock: KIFKEQ_clean_linker_1, # of connection points: 2
#     Edge 15, Type (0, 0), BuildingBlock: KIFKEQ_clean_linker_1, # of connection points: 2
#     Edge 16, Type (0, 0), BuildingBlock: KIFKEQ_clean_linker_1, # of connection points: 2
#     Edge 17, Type (0, 0), BuildingBlock: KIFKEQ_clean_linker_1, # of connection points: 2
#     Edge 18, Type (0, 0), BuildingBlock: KIFKEQ_clean_linker_1, # of connection points: 2
#     Edge 19, Type (0, 0), BuildingBlock: KIFKEQ_clean_linker_1, # of connection points: 2
#     Edge 20, Type (0, 0), BuildingBlock: KIFKEQ_clean_linker_1, # of connection points: 2
#     Edge 21, Type (0, 0), BuildingBlock: KIFKEQ_clean_linker_1, # of connection points: 2
#     Edge 22, Type (0, 0), BuildingBlock: KIFKEQ_clean_linker_1, # of connection points: 2
#     Edge 23, Type (0, 0), BuildingBlock: KIFKEQ_clean_linker_1, # of connection points: 2
#     Edge 24, Type (0, 0), BuildingBlock: KIFKEQ_clean_linker_1, # of connection points: 2
#     Edge 25, Type (0, 0), BuildingBlock: KIFKEQ_clean_linker_1, # of connection points: 2
#     Edge 26, Type (0, 0), BuildingBlock: KIFKEQ_clean_linker_1, # of connection points: 2
#     Edge 27, Type (0, 0), BuildingBlock: KIFKEQ_clean_linker_1, # of connection points: 2
#     Edge 28, Type (0, 0), BuildingBlock: KIFKEQ_clean_linker_1, # of connection points: 2
#     Edge 29, Type (0, 0), BuildingBlock: KIFKEQ_clean_linker_1, # of connection points: 2
#     Edge 30, Type (0, 0), BuildingBlock: KIFKEQ_clean_linker_1, # of connection points: 2
#     Edge 31, Type (0, 0), BuildingBlock: KIFKEQ_clean_linker_1, # of connection points: 2
#     Edge 32, Type (0, 0), BuildingBlock: KIFKEQ_clean_linker_1, # of connection points: 2
#     Edge 33, Type (0, 0), BuildingBlock: KIFKEQ_clean_linker_1, # of connection points: 2
#     Edge 34, Type (0, 0), BuildingBlock: KIFKEQ_clean_linker_1, # of connection points: 2
#     Edge 35, Type (0, 0), BuildingBlock: KIFKEQ_clean_linker_1, # of connection points: 2
# Relax obj value: 0.048
# Max RMSD: 0.126
# Mean RMSD: 0.126
data_MOF--net-smm--node1-BETDAH_clean_sbu_0--edge1-KIFKEQ_clean_linker_1
_symmetry_space_group_name_H-M    P1
_symmetry_Int_Tables_number       1
_symmetry_cell_setting            triclinic
loop_
_symmetry_equiv_pos_as_xyz
'x, y, z'
_cell_length_a     71.166583
_cell_length_b     71.152689
_cell_length_c     14.471212
_cell_angle_alpha  89.962534
_cell_angle_beta   89.992993
_cell_angle_gamma 119.9352
loop_
_atom_site_label
_atom_site_type_symbol
_atom_site_fract_x
_atom_site_fract_y
_atom_site_fract_z
_atom_type_partial_charge
Ho0 Ho 0.06619 0.22546 -0.014 0.0
Ho1 Ho 1.02498 0.18233 0.03544 0.0
C2 C 1.02087 0.225 0.0303 0.0
C3 C 0.09428 0.26026 0.9005 0.0
C4 C 0.10009 0.28288 0.8798 0.0
C5 C 0.1069 0.29085 0.79008 0.0
C6 C 0.11452 0.31269 0.76947 0.0
C7 C 0.11556 0.32713 0.83836 0.0
C8 C 0.10812 0.31894 0.92783 0.0
C9 C 0.10043 0.29702 0.94836 0.0
C10 C 0.06034 0.21612 0.16788 0.0
C11 C 0.07136 0.18367 0.01088 0.0
C12 C 0.99559 0.14573 0.10481 0.0
C13 C 0.98751 0.12238 0.09255 0.0
C14 C 0.97144 0.10757 0.15225 0.0
C15 C 0.96269 0.08526 0.1396 0.0
C16 C 0.96981 0.07727 0.06664 0.0
C17 C 0.98626 0.09226 0.00776 0.0
C18 C 0.99503 0.11464 0.02057 0.0
C19 C 1.0321 0.19183 0.85351 0.0
O20 O 0.0399 0.23486 -0.01278 0.0
O21 O 1.01329 0.20558 0.06802 0.0
O22 O 0.09672 0.25559 -0.01438 0.0
O23 O 0.07681 0.24486 0.86104 0.0
O24 O 0.0793 0.22735 0.12964 0.0
O25 O 0.04572 0.21245 0.10994 0.0
O26 O 0.05142 0.17354 0.04521 0.0
O27 O 0.07978 0.20312 0.9725 0.0
O28 O 0.99207 0.15553 0.0362 0.0
O29 O 1.01504 0.15726 0.13976 0.0
O30 O 1.01296 0.18169 0.89012 0.0
O31 O 0.04604 0.19488 0.91349 0.0
H32 H 0.10688 0.28027 0.73622 0.0
H33 H 0.12034 0.31841 0.70022 0.0
H34 H 0.1084 0.32952 0.98225 0.0
H35 H 0.09516 0.29126 0.01811 0.0
H36 H 0.9655 0.11326 0.20839 0.0
H37 H 0.95037 0.07426 0.18732 0.0
H38 H 0.99202 0.08671 0.95049 0.0
H39 H 1.00743 0.12587 0.97366 0.0
Ho40 Ho 0.85889 0.86683 0.97798 0.0
Ho41 Ho 0.90234 0.8694 0.02727 0.0
C42 C 0.86003 0.82238 0.02362 0.0
C43 C 0.82387 0.8596 0.89282 0.0
C44 C 0.80128 0.84262 0.87349 0.0
C45 C 0.79294 0.84137 0.7845 0.0
C46 C 0.7711 0.82693 0.76528 0.0
C47 C 0.75703 0.8134 0.83487 0.0
C48 C 0.7656 0.81424 0.92358 0.0
C49 C 0.78752 0.82869 0.94272 0.0
C50 C 0.86826 0.87051 0.15985 0.0
C51 C 0.90021 0.91403 0.00233 0.0
C52 C 0.9392 0.87726 0.09595 0.0
C53 C 0.96249 0.89286 0.08358 0.0
C54 C 0.97677 0.89661 0.15701 0.0
C55 C 0.99908 0.91054 0.14602 0.0
C56 C 1.0076 0.92101 0.06107 0.0
C57 C 0.99315 0.91742 -0.01221 0.0
C58 C 0.97079 0.90352 -0.00097 0.0
C59 C 0.89275 0.86682 0.84538 0.0
O60 O 0.85002 0.83131 0.97974 0.0
O61 O 0.87943 0.83447 0.06117 0.0
O62 O 0.82863 0.86704 0.97739 0.0
O63 O 0.83929 0.85748 0.8536 0.0
O64 O 0.85677 0.87795 0.1216 0.0
O65 O 0.87216 0.85971 0.10197 0.0
O66 O 0.91057 0.90446 0.03705 0.0
O67 O 0.88083 0.90278 0.96366 0.0
O68 O 0.92948 0.86379 0.02778 0.0
O69 O 0.92739 0.88482 0.13151 0.0
O70 O 0.9031 0.85802 0.88206 0.0
O71 O 0.88953 0.87762 0.90527 0.0
H72 H 0.80323 0.85203 0.73017 0.0
H73 H 0.76508 0.82697 0.6966 0.0
H74 H 0.75531 0.80385 0.97849 0.0
H75 H 0.79358 0.82926 0.01192 0.0
H76 H 0.97069 0.88849 0.22271 0.0
H77 H 1.0097 0.91271 0.20356 0.0
H78 H 0.99912 0.92542 0.92186 0.0
H79 H 0.96002 0.90093 0.94152 0.0
Ho80 Ho 0.21808 1.01826 -0.01668 0.0
Ho81 Ho 0.21595 0.05937 0.03185 0.0
C82 C 0.26278 0.06363 0.0287 0.0
C83 C 0.22529 0.99011 0.90115 0.0
C84 C 0.24173 0.98328 0.88968 0.0
C85 C 0.26142 0.9962 0.84286 0.0
C86 C 0.27557 0.98826 0.82481 0.0
C87 C 0.27036 0.96728 0.85327 0.0
C88 C 0.25084 0.95461 0.90161 0.0
C89 C 0.23672 0.9625 0.91928 0.0
C90 C 0.21452 1.02412 0.16514 0.0
C91 C 0.1711 1.01306 0.00555 0.0
C92 C 0.20816 0.08848 0.10004 0.0
C93 C 0.19237 0.09597 0.08798 0.0
C94 C 0.18852 0.10642 0.16148 0.0
C95 C 0.17436 0.11456 0.15076 0.0
C96 C 0.16378 0.11246 0.06601 0.0
C97 C 0.16748 0.1017 -0.00731 0.0
C98 C 0.1816 0.09346 0.00367 0.0
C99 C 0.21866 0.05233 0.85018 0.0
O100 O 0.25372 0.0446 -0.01433 0.0
O101 O 0.25082 0.07118 0.0656 0.0
O102 O 0.21589 0.9868 0.98199 0.0
O103 O 0.22912 1.00842 0.86317 0.0
O104 O 0.20699 1.00518 0.12719 0.0
O105 O 0.22539 0.03872 0.10707 0.0
O106 O 0.18082 0.03284 0.04142 0.0
O107 O 0.18225 1.00487 0.96625 0.0
O108 O 0.22144 0.09208 0.03116 0.0
O109 O 0.20084 0.06925 0.13668 0.0
O110 O 0.2276 0.07145 0.88684 0.0
O111 O 0.20766 0.03834 0.90988 0.0
H112 H 0.26575 1.01227 0.8187 0.0
H113 H 0.29055 0.99853 0.78822 0.0
H114 H 0.2461 0.93827 0.92331 0.0
H115 H 0.22152 0.95206 0.95424 0.0
H116 H 0.19671 0.10855 0.22701 0.0
H117 H 0.17211 0.12296 0.20831 0.0
H118 H 0.1594 0.09956 0.92692 0.0
H119 H 0.18425 0.08532 0.94614 0.0
Ho120 Ho 0.73356 0.55912 0.31332 0.0
Ho121 Ho 0.69272 0.51572 0.36224 0.0
C122 C 0.68803 0.55809 0.35924 0.0
C123 C 0.76153 0.59449 0.23088 0.0
C124 C 0.76837 0.61776 0.21965 0.0
C125 C 0.75543 0.6246 0.17334 0.0
C126 C 0.76339 0.64668 0.15528 0.0
C127 C 0.78442 0.66238 0.18323 0.0
C128 C 0.7971 0.65546 0.2311 0.0
C129 C 0.78919 0.63345 0.24879 0.0
C130 C 0.7278 0.54968 0.49523 0.0
C131 C 0.73925 0.51762 0.33551 0.0
C132 C 0.66376 0.47881 0.43061 0.0
C133 C 0.65619 0.45554 0.41797 0.0
C134 C 0.64552 0.44115 0.49094 0.0
C135 C 0.63726 0.41886 0.47961 0.0
C136 C 0.63947 0.41049 0.39477 0.0
C137 C 0.65046 0.42505 0.32196 0.0
C138 C 0.6588 0.44739 0.33355 0.0
C139 C 0.69968 0.52547 0.18044 0.0
O140 O 0.70701 0.56816 0.31582 0.0
O141 O 0.68068 0.53863 0.39632 0.0
O142 O 0.76498 0.58836 0.31138 0.0
O143 O 0.74316 0.58007 0.1934 0.0
O144 O 0.7467 0.56124 0.45714 0.0
O145 O 0.71316 0.54583 0.43727 0.0
O146 O 0.71953 0.50744 0.37198 0.0
O147 O 0.74716 0.53686 0.29567 0.0
O148 O 0.66003 0.48857 0.36243 0.0
O149 O 0.68308 0.49061 0.46641 0.0
O150 O 0.68057 0.51514 0.21723 0.0
O151 O 0.71371 0.52859 0.24008 0.0
H152 H 0.73933 0.61291 0.14953 0.0
H153 H 0.75311 0.65145 0.11907 0.0
H154 H 0.81348 0.667 0.25239 0.0
H155 H 0.79964 0.62864 0.28333 0.0
H156 H 0.6433 0.44712 0.55653 0.0
H157 H 0.62869 0.40814 0.53677 0.0
H158 H 0.65269 0.41919 0.25614 0.0
H159 H 0.6671 0.45826 0.27641 0.0
Ho160 Ho 0.52588 0.20029 0.31488 0.0
Ho161 Ho 0.56886 0.20187 0.36279 0.0
C162 C 0.5261 0.15532 0.36066 0.0
C163 C 0.49059 0.19334 0.23312 0.0
C164 C 0.46737 0.1769 0.22153 0.0
C165 C 0.46065 0.15707 0.17607 0.0
C166 C 0.43859 0.14287 0.15815 0.0
C167 C 0.42281 0.14817 0.18547 0.0
C168 C 0.42962 0.16784 0.23241 0.0
C169 C 0.45159 0.18202 0.24992 0.0
C170 C 0.53543 0.20389 0.49646 0.0
C171 C 0.56784 0.24702 0.33692 0.0
C172 C 0.60592 0.20939 0.42756 0.0
C173 C 0.62932 0.22488 0.41318 0.0
C174 C 0.6385 0.2472 0.431 0.0
C175 C 0.66083 0.26126 0.4198 0.0
C176 C 0.67443 0.25335 0.39018 0.0
C177 C 0.66514 0.23105 0.37185 0.0
C178 C 0.64289 0.217 0.38356 0.0
C179 C 0.55893 0.19919 0.18132 0.0
O180 O 0.51632 0.16457 0.31747 0.0
O181 O 0.54562 0.16709 0.39753 0.0
O182 O 0.49665 0.20256 0.31424 0.0
O183 O 0.50507 0.18959 0.19463 0.0
O184 O 0.52419 0.21163 0.45843 0.0
O185 O 0.53895 0.19282 0.43866 0.0
O186 O 0.57774 0.23711 0.37278 0.0
O187 O 0.54852 0.23605 0.29757 0.0
O188 O 0.59581 0.19587 0.36 0.0
O189 O 0.59414 0.21669 0.46598 0.0
O190 O 0.56883 0.18993 0.21799 0.0
O191 O 0.55623 0.21039 0.24092 0.0
H192 H 0.4724 0.15266 0.15293 0.0
H193 H 0.43391 0.12777 0.12265 0.0
H194 H 0.41801 0.17265 0.25319 0.0
H195 H 0.45632 0.19732 0.28386 0.0
H196 H 0.6285 0.25381 0.45398 0.0
H197 H 0.66743 0.27837 0.43374 0.0
H198 H 0.67516 0.22434 0.35027 0.0
H199 H 0.63629 0.19986 0.37018 0.0
Ho200 Ho 0.88497 0.35171 0.32112 0.0
Ho201 Ho 0.88307 0.393 0.36984 0.0
C202 C 0.92975 0.39687 0.36508 0.0
C203 C 0.89111 0.32316 0.23631 0.0
C204 C 0.90755 0.31723 0.21034 0.0
C205 C 0.90555 0.30729 0.12452 0.0
C206 C 0.9193 0.29932 0.10058 0.0
C207 C 0.9354 0.30108 0.16213 0.0
C208 C 0.93796 0.31186 0.24687 0.0
C209 C 0.92412 0.31984 0.2709 0.0
C210 C 0.88122 0.35758 0.50269 0.0
C211 C 0.83803 0.34662 0.34593 0.0
C212 C 0.87593 0.4225 0.43871 0.0
C213 C 0.8607 0.43062 0.42598 0.0
C214 C 0.86211 0.44693 0.48455 0.0
C215 C 0.84852 0.45566 0.47151 0.0
C216 C 0.83323 0.44828 0.3993 0.0
C217 C 0.83163 0.43159 0.34152 0.0
C218 C 0.84527 0.42286 0.35471 0.0
C219 C 0.88555 0.38585 0.18813 0.0
O220 O 0.92057 0.37797 0.32112 0.0
O221 O 0.91791 0.40444 0.40315 0.0
O222 O 0.88574 0.32174 0.32362 0.0
O223 O 0.89209 0.34 0.19505 0.0
O224 O 0.87339 0.3386 0.46451 0.0
O225 O 0.8923 0.37218 0.44487 0.0
O226 O 0.84778 0.3667 0.37873 0.0
O227 O 0.84906 0.33803 0.30913 0.0
O228 O 0.88927 0.42598 0.37025 0.0
O229 O 0.86798 0.40305 0.47386 0.0
O230 O 0.89455 0.40501 0.22457 0.0
O231 O 0.87462 0.37192 0.24816 0.0
H232 H 0.89293 0.30517 0.07665 0.0
H233 H 0.91711 0.2915 0.03413 0.0
H234 H 0.95013 0.31342 0.29604 0.0
H235 H 0.92601 0.32751 0.33753 0.0
H236 H 0.87387 0.45307 0.54013 0.0
H237 H 0.84996 0.46817 0.5184 0.0
H238 H 0.82018 0.42563 0.28483 0.0
H239 H 0.84398 0.41026 0.30868 0.0
Ho240 Ho 0.40022 0.89251 0.6473 0.0
Ho241 Ho 0.35931 0.84916 0.6959 0.0
C242 C 0.35482 0.89162 0.69391 0.0
C243 C 0.42807 0.92754 0.56249 0.0
C244 C 0.43361 0.95012 0.54286 0.0
C245 C 0.44067 0.95843 0.45377 0.0
C246 C 0.44799 0.98026 0.43424 0.0
C247 C 0.44848 0.99434 0.50361 0.0
C248 C 0.44079 0.9858 0.59241 0.0
C249 C 0.4334 0.96389 0.61186 0.0
C250 C 0.39457 0.88289 0.8289 0.0
C251 C 0.4059 0.85101 0.67133 0.0
C252 C 0.33004 0.81203 0.76116 0.0
C253 C 0.3217 0.78857 0.74542 0.0
C254 C 0.33388 0.7786 0.76857 0.0
C255 C 0.32507 0.75618 0.75746 0.0
C256 C 0.30388 0.7432 0.72308 0.0
C257 C 0.29191 0.75333 0.69876 0.0
C258 C 0.30067 0.77567 0.71023 0.0
C259 C 0.36641 0.85898 0.51418 0.0
O260 O 0.37367 0.90155 0.64948 0.0
O261 O 0.34754 0.87222 0.73152 0.0
O262 O 0.43062 0.92277 0.6473 0.0
O263 O 0.41065 0.91211 0.52288 0.0
O264 O 0.41348 0.89434 0.79057 0.0
O265 O 0.37987 0.87917 0.77134 0.0
O266 O 0.38601 0.84074 0.70617 0.0
O267 O 0.41407 0.87041 0.63266 0.0
O268 O 0.3263 0.82244 0.69582 0.0
O269 O 0.34938 0.82352 0.79735 0.0
O270 O 0.34729 0.84878 0.55078 0.0
O271 O 0.38036 0.862 0.57404 0.0
H272 H 0.44107 0.94812 0.3996 0.0
H273 H 0.45403 0.98626 0.36549 0.0
H274 H 0.44066 0.99611 0.64716 0.0
H275 H 0.42793 0.95786 0.68113 0.0
H276 H 0.35011 0.78803 0.7964 0.0
H277 H 0.3347 0.74895 0.77792 0.0
H278 H 0.27572 0.74399 0.67059 0.0
H279 H 0.29086 0.78286 0.69215 0.0
Ho280 Ho 0.19296 0.5327 0.6484 0.0
Ho281 Ho 0.23617 0.5349 0.69791 0.0
C282 C 0.19375 0.48794 0.6909 0.0
C283 C 0.15761 0.5257 0.56686 0.0
C284 C 0.13492 0.50887 0.54808 0.0
C285 C 0.12672 0.50726 0.45851 0.0
C286 C 0.10487 0.49293 0.43924 0.0
C287 C 0.09062 0.47986 0.50933 0.0
C288 C 0.09901 0.48108 0.59875 0.0
C289 C 0.12096 0.49543 0.61796 0.0
C290 C 0.20261 0.53625 0.82984 0.0
C291 C 0.23442 0.57971 0.67195 0.0
C292 C 0.27258 0.5424 0.77034 0.0
C293 C 0.29589 0.55796 0.75966 0.0
C294 C 0.31065 0.55682 0.82016 0.0
C295 C 0.33295 0.57057 0.80858 0.0
C296 C 0.341 0.58576 0.73593 0.0
C297 C 0.32606 0.58715 0.67637 0.0
C298 C 0.30369 0.57334 0.6881 0.0
C299 C 0.22735 0.53293 0.51531 0.0
O300 O 0.18383 0.49713 0.64848 0.0
O301 O 0.2132 0.49977 0.72825 0.0
O302 O 0.16273 0.533 0.65148 0.0
O303 O 0.17278 0.52348 0.52595 0.0
O304 O 0.19215 0.54484 0.79172 0.0
O305 O 0.20585 0.52503 0.7719 0.0
O306 O 0.24459 0.57005 0.7077 0.0
O307 O 0.21514 0.56854 0.63245 0.0
O308 O 0.26325 0.5292 0.70099 0.0
O309 O 0.26062 0.54995 0.80452 0.0
O310 O 0.23812 0.52462 0.55228 0.0
O311 O 0.22358 0.54332 0.57542 0.0
H312 H 0.13716 0.51755 0.40364 0.0
H313 H 0.09899 0.49269 0.36998 0.0
H314 H 0.08858 0.47105 0.65412 0.0
H315 H 0.12689 0.49628 0.68764 0.0
H316 H 0.30491 0.54509 0.87597 0.0
H317 H 0.34391 0.5693 0.85677 0.0
H318 H 0.33166 0.59852 0.61932 0.0
H319 H 0.2925 0.57442 0.64057 0.0
Ho320 Ho 0.55117 0.6844 0.65064 0.0
Ho321 Ho 0.54911 0.72553 0.69962 0.0
C322 C 0.59592 0.72968 0.69524 0.0
C323 C 0.55823 0.65619 0.56826 0.0
C324 C 0.57465 0.64935 0.5564 0.0
C325 C 0.59446 0.66241 0.51064 0.0
C326 C 0.60861 0.65449 0.49227 0.0
C327 C 0.60329 0.63339 0.51941 0.0
C328 C 0.58365 0.62058 0.56669 0.0
C329 C 0.56952 0.62844 0.58466 0.0
C330 C 0.54772 0.69028 0.83261 0.0
C331 C 0.50423 0.67927 0.67317 0.0
C332 C 0.54183 0.7549 0.76897 0.0
C333 C 0.52655 0.763 0.75733 0.0
C334 C 0.52784 0.77901 0.81743 0.0
C335 C 0.51427 0.78779 0.80543 0.0
C336 C 0.49911 0.78075 0.73277 0.0
C337 C 0.4976 0.76433 0.67351 0.0
C338 C 0.51123 0.75554 0.68565 0.0
C339 C 0.5517 0.71852 0.51775 0.0
O340 O 0.58678 0.71068 0.65208 0.0
O341 O 0.58404 0.73725 0.73274 0.0
O342 O 0.54894 0.65292 0.64932 0.0
O343 O 0.56203 0.67448 0.53023 0.0
O344 O 0.54013 0.67134 0.7946 0.0
O345 O 0.55858 0.70487 0.77449 0.0
O346 O 0.51392 0.69902 0.70936 0.0
O347 O 0.5154 0.67115 0.63351 0.0
O348 O 0.55505 0.75842 0.69999 0.0
O349 O 0.534 0.73546 0.80406 0.0
O350 O 0.56062 0.73764 0.55445 0.0
O351 O 0.54075 0.70453 0.57751 0.0
H352 H 0.59888 0.67858 0.48757 0.0
H353 H 0.62369 0.66487 0.45653 0.0
H354 H 0.57882 0.60415 0.58735 0.0
H355 H 0.55424 0.61791 0.61881 0.0
H356 H 0.53952 0.7849 0.87335 0.0
H357 H 0.51563 0.80008 0.85342 0.0
H358 H 0.48625 0.75863 0.61646 0.0
H359 H 0.51003 0.74317 0.63846 0.0
H360 H 0.14299 0.36148 0.94714 0.0
H361 H 0.11078 0.34639 0.68221 0.0
H362 H 0.16091 0.39998 0.91012 0.0
H363 H 0.12938 0.38493 0.6437 0.0
H364 H 0.15167 0.45815 0.64495 0.0
H365 H 0.13183 0.41945 0.68144 0.0
H366 H 0.18932 0.4251 0.80878 0.0
H367 H 0.20897 0.46366 0.77403 0.0
C368 C 0.13956 0.36636 0.88128 0.0
C369 C 0.12544 0.35076 0.81768 0.0
C370 C 0.15009 0.38847 0.85947 0.0
C371 C 0.14679 0.39561 0.77345 0.0
C372 C 0.13224 0.38006 0.71072 0.0
C373 C 0.12173 0.35792 0.73249 0.0
C374 C 0.16011 0.45111 0.68026 0.0
C375 C 0.18193 0.46411 0.70676 0.0
C376 C 0.14874 0.42889 0.70102 0.0
C377 C 0.15889 0.41914 0.74887 0.0
C378 C 0.18082 0.43209 0.77359 0.0
C379 C 0.19217 0.45424 0.75291 0.0
H380 H 0.72287 0.80587 0.94661 0.0
H381 H 0.73749 0.78935 0.67927 0.0
H382 H 0.68428 0.78489 0.91209 0.0
H383 H 0.69885 0.76901 0.64328 0.0
H384 H 0.62589 0.71771 0.64687 0.0
H385 H 0.66465 0.73673 0.68186 0.0
H386 H 0.65864 0.78796 0.81346 0.0
H387 H 0.62003 0.76888 0.78028 0.0
C388 C 0.71787 0.7976 0.88075 0.0
C389 C 0.73337 0.79938 0.81573 0.0
C390 C 0.69571 0.78579 0.86039 0.0
C391 C 0.68839 0.77541 0.77444 0.0
C392 C 0.70385 0.7767 0.71029 0.0
C393 C 0.72604 0.78855 0.73062 0.0
C394 C 0.63286 0.73308 0.68295 0.0
C395 C 0.61975 0.74168 0.71104 0.0
C396 C 0.65512 0.74402 0.7028 0.0
C397 C 0.6648 0.76381 0.75128 0.0
C398 C 0.65171 0.77255 0.77776 0.0
C399 C 0.62953 0.76165 0.75799 0.0
H400 H 0.292 0.97103 0.69082 0.0
H401 H 0.2811 0.94275 0.96351 0.0
H402 H 0.313 0.9536 0.64973 0.0
H403 H 0.302 0.92538 0.92252 0.0
H404 H 0.31648 0.87662 0.78609 0.0
H405 H 0.29738 0.89596 0.82313 0.0
H406 H 0.34655 0.95266 0.68098 0.0
H407 H 0.36568 0.93312 0.64246 0.0
C408 C 0.29434 0.96137 0.74249 0.0
C409 C 0.28467 0.95816 0.83029 0.0
C410 C 0.30636 0.95135 0.71884 0.0
C411 C 0.30899 0.93786 0.78239 0.0
C412 C 0.2999 0.93524 0.87108 0.0
C413 C 0.28792 0.94524 0.89468 0.0
C414 C 0.32326 0.89318 0.76222 0.0
C415 C 0.34271 0.9033 0.71146 0.0
C416 C 0.31235 0.90435 0.78418 0.0
C417 C 0.32053 0.92597 0.75604 0.0
C418 C 0.33973 0.936 0.70343 0.0
C419 C 0.35073 0.9248 0.68154 0.0
H420 H 0.38764 0.13771 0.29554 0.0
H421 H 0.40491 0.12604 0.0241 0.0
H422 H 0.34939 0.11672 0.25499 0.0
H423 H 0.3665 0.10495 -0.01659 0.0
H424 H 0.29324 0.05242 0.97818 0.0
H425 H 0.33193 0.07152 0.016 0.0
H426 H 0.32472 0.12131 0.15449 0.0
H427 H 0.28631 0.10226 0.11821 0.0
C428 C 0.38328 0.13069 0.22707 0.0
C429 C 0.39941 0.13376 0.16287 0.0
C430 C 0.36132 0.11867 0.20373 0.0
C431 C 0.35483 0.10935 0.11547 0.0
C432 C 0.3709 0.11177 0.05218 0.0
C433 C 0.39293 0.12384 0.07559 0.0
C434 C 0.29995 0.06749 0.01633 0.0
C435 C 0.28657 0.07569 0.04554 0.0
C436 C 0.32215 0.07847 0.0378 0.0
C437 C 0.33142 0.09784 0.08926 0.0
C438 C 0.31808 0.10621 0.11651 0.0
C439 C 0.29601 0.09532 0.09498 0.0
H440 H 0.9791 0.31709 0.18926 0.0
H441 H 0.92142 0.26133 0.08428 0.0
H442 H 1.00012 0.29923 0.15447 0.0
H443 H 0.94241 0.24385 0.04752 0.0
H444 H 0.98024 0.20873 0.10227 0.0
H445 H 0.96042 0.2277 0.13257 0.0
H446 H 1.01363 0.2867 0.02213 0.0
H447 H 1.03375 0.2677 -0.00758 0.0
C448 C 0.97092 0.30107 0.15866 0.0
C449 C 0.94857 0.29068 0.13945 0.0
C450 C 0.983 0.29093 0.13787 0.0
C451 C 0.97295 0.27008 0.0983 0.0
C452 C 0.95064 0.2598 0.07877 0.0
C453 C 0.93864 0.26995 0.09899 0.0
C454 C 0.98777 0.22573 0.08403 0.0
C455 C 1.00862 0.23664 0.04469 0.0
C456 C 0.97631 0.2366 0.10107 0.0
C457 C 0.98539 0.25872 0.0796 0.0
C458 C 1.00625 0.2697 0.0402 0.0
C459 C 1.0177 0.25876 0.02253 0.0
H460 H 0.87518 0.79896 0.11438 0.0
H461 H 0.81851 0.79183 0.97281 0.0
H462 H 0.85588 0.76054 0.15137 0.0
H463 H 0.79902 0.75318 0.01129 0.0
H464 H 0.78052 0.68028 0.02102 0.0
H465 H 0.79798 0.71866 0.97964 0.0
H466 H 0.82658 0.73584 0.2516 0.0
H467 H 0.80916 0.6976 0.2929 0.0
C468 C 0.85859 0.78922 0.09093 0.0
C469 C 0.84841 0.7986 0.0408 0.0
C470 C 0.84745 0.76715 0.11286 0.0
C471 C 0.82579 0.75376 0.08533 0.0
C472 C 0.81571 0.76299 0.03326 0.0
C473 C 0.82688 0.78517 0.01139 0.0
C474 C 0.79027 0.69226 0.07246 0.0
C475 C 0.79356 0.68579 0.16011 0.0
C476 C 0.80031 0.71428 0.04863 0.0
C477 C 0.81391 0.73037 0.11185 0.0
C478 C 0.81663 0.72389 0.20041 0.0
C479 C 0.8066 0.70194 0.22418 0.0
H480 H 0.05637 0.47318 0.6186 0.0
H481 H 0.07121 0.45513 0.35516 0.0
H482 H 1.01783 0.45236 0.58294 0.0
H483 H 1.03264 0.43498 0.31789 0.0
H484 H 0.95949 0.38433 0.32056 0.0
H485 H 0.99818 0.40316 0.35682 0.0
H486 H 0.99258 0.45529 0.48155 0.0
H487 H 0.95403 0.4364 0.44713 0.0
C488 C 0.05143 0.46462 0.55338 0.0
C489 C 0.06697 0.46592 0.48975 0.0
C490 C 1.0293 0.4529 0.53233 0.0
C491 C 1.02207 0.44215 0.44703 0.0
C492 C 0.03757 0.44296 0.38437 0.0
C493 C 0.05973 0.45471 0.40541 0.0
C494 C 0.96654 0.39986 0.3553 0.0
C495 C 0.95356 0.40878 0.38118 0.0
C496 C 0.98876 0.41069 0.37593 0.0
C497 C 0.99852 0.43068 0.42295 0.0
C498 C 0.98558 0.43973 0.44709 0.0
C499 C 0.96343 0.42894 0.4266 0.0
H500 H 0.62526 0.63761 0.35746 0.0
H501 H 0.61375 0.60852 0.62865 0.0
H502 H 0.64629 0.62025 0.31586 0.0
H503 H 0.6347 0.59123 0.5872 0.0
H504 H 0.64943 0.54285 0.44952 0.0
H505 H 0.63024 0.56209 0.48655 0.0
H506 H 0.67973 0.61913 0.34745 0.0
H507 H 0.69896 0.59968 0.30885 0.0
C508 C 0.62748 0.62778 0.4087 0.0
C509 C 0.61763 0.62432 0.4962 0.0
C510 C 0.63952 0.6178 0.38476 0.0
C511 C 0.64198 0.60411 0.44773 0.0
C512 C 0.63272 0.60125 0.53617 0.0
C513 C 0.62072 0.6112 0.56004 0.0
C514 C 0.65626 0.55946 0.4263 0.0
C515 C 0.67584 0.5697 0.37646 0.0
C516 C 0.6453 0.57058 0.44826 0.0
C517 C 0.65355 0.59227 0.42106 0.0
C518 C 0.67287 0.60241 0.36921 0.0
C519 C 0.68392 0.59127 0.34729 0.0
H520 H 0.54105 0.13107 0.44593 0.0
H521 H 0.48408 0.12554 0.31347 0.0
H522 H 0.52138 0.09249 0.48008 0.0
H523 H 0.4642 0.0868 0.3494 0.0
H524 H 0.44385 1.01381 0.34783 0.0
H525 H 0.46214 0.05244 0.31118 0.0
H526 H 0.4927 0.06711 0.57967 0.0
H527 H 0.4751 0.02853 0.61486 0.0
C528 C 0.5243 0.12165 0.42406 0.0
C529 C 0.51417 0.13151 0.37709 0.0
C530 C 0.51295 0.09949 0.44439 0.0
C531 C 0.49111 0.08651 0.41845 0.0
C532 C 0.48104 0.09626 0.36996 0.0
C533 C 0.49243 0.1185 0.34956 0.0
C534 C 0.45451 0.02528 0.39898 0.0
C535 C 0.45806 1.01799 0.48417 0.0
C536 C 0.46484 0.04746 0.37828 0.0
C537 C 0.47905 0.06294 0.44212 0.0
C538 C 0.48214 0.05566 0.52821 0.0
C539 C 0.4718 0.03351 0.54894 0.0
H540 H 0.13393 0.11157 0.18826 0.0
H541 H 0.16094 0.13479 0.91703 0.0
H542 H 0.11159 0.12849 0.17224 0.0
H543 H 0.13805 0.15113 0.8997 0.0
H544 H 0.11312 0.19898 0.95098 0.0
H545 H 0.13479 0.18121 0.96163 0.0
H546 H 0.08074 0.12536 0.08779 0.0
H547 H 0.05918 0.14321 0.0787 0.0
C548 C 0.13507 0.12025 0.12507 0.0
C549 C 0.14931 0.12187 0.05409 0.0
C550 C 0.12207 0.12976 0.11545 0.0
C551 C 0.12299 0.14121 0.03466 0.0
C552 C 0.13708 0.14264 0.96325 0.0
C553 C 0.15003 0.13305 0.97275 0.0
C554 C 0.1058 0.18289 0.98076 0.0
C555 C 0.08439 0.17261 0.01428 0.0
C556 C 0.11822 0.17263 -0.01361 0.0
C557 C 0.10955 0.15185 0.02578 0.0
C558 C 0.08806 0.14148 0.05829 0.0
C559 C 0.07564 0.15171 0.05259 0.0
H560 H 0.88458 0.93994 0.93875 0.0
H561 H 0.94004 0.94274 0.07419 0.0
H562 H 0.9017 0.9793 0.94852 0.0
H563 H 0.95692 0.98202 0.08555 0.0
H564 H 0.98993 0.0543 0.01757 0.0
H565 H 0.97346 1.01519 -0.0044 0.0
H566 H 0.91071 1.00705 0.06346 0.0
H567 H 0.92699 0.04611 0.08176 0.0
C568 C 0.90041 0.94891 0.97062 0.0
C569 C 0.91087 0.93808 0.00585 0.0
C570 C 0.91019 0.97151 0.9767 0.0
C571 C 0.93069 0.98389 0.01815 0.0
C572 C 0.94126 0.97308 0.0522 0.0
C573 C 0.93148 0.95048 0.04618 0.0
C574 C 0.97258 0.04419 0.02671 0.0
C575 C 0.95983 0.05341 0.05182 0.0
C576 C 0.96316 1.02172 0.0151 0.0
C577 C 0.94073 1.0079 0.02796 0.0
C578 C 0.92798 1.01717 0.052 0.0
C579 C 0.93738 0.03959 0.06371 0.0
H580 H 1.03264 0.92365 0.91191 0.0
H581 H 1.03669 0.95068 0.18318 0.0
H582 H 0.07186 0.94637 0.89424 0.0
H583 H 0.0759 0.97281 0.16689 0.0
H584 H 0.1428 0.02513 0.07368 0.0
H585 H 0.10346 1.0036 0.08267 0.0
H586 H 0.10531 0.9497 0.95494 0.0
H587 H 0.14474 0.9714 0.94429 0.0
C588 C 0.04187 0.93452 0.96758 0.0
C589 C 1.03147 0.93531 0.049 0.0
C590 C 0.0644 0.94737 0.95789 0.0
C591 C 0.0771 0.96141 0.02919 0.0
C592 C 0.06665 0.96236 0.11013 0.0
C593 C 0.04416 0.94948 0.11992 0.0
C594 C 0.13487 1.00872 0.04716 0.0
C595 C 0.14703 1.00002 0.00844 0.0
C596 C 0.11226 0.99631 0.05283 0.0
C597 C 0.10116 0.97485 0.01998 0.0
C598 C 0.11328 0.96624 0.98004 0.0
C599 C 0.13593 0.97866 0.97438 0.0
H600 H 0.78047 0.53301 0.26889 0.0
H601 H 0.72843 0.47796 0.40904 0.0
H602 H 0.80277 0.51591 0.27821 0.0
H603 H 0.7509 0.46112 0.41995 0.0
H604 H 0.79005 0.42795 0.35242 0.0
H605 H 0.76729 0.44431 0.33016 0.0
H606 H 0.82194 0.50733 0.39292 0.0
H607 H 0.84483 0.49115 0.4115 0.0
C608 C 0.77375 0.51726 0.30165 0.0
C609 C 0.75264 0.50693 0.3384 0.0
C610 C 0.78661 0.5075 0.30749 0.0
C611 C 0.7787 0.48715 0.35018 0.0
C612 C 0.75746 0.47667 0.38563 0.0
C613 C 0.74461 0.48643 0.37987 0.0
C614 C 0.79727 0.44533 0.36036 0.0
C615 C 0.81928 0.45819 0.38415 0.0
C616 C 0.78416 0.45469 0.34858 0.0
C617 C 0.79273 0.47716 0.35996 0.0
C618 C 0.81481 0.49002 0.38262 0.0
C619 C 0.82789 0.48068 0.3945 0.0
H620 H 0.61746 0.38569 0.24467 0.0
H621 H 0.63985 0.3812 0.51677 0.0
H622 H 0.60102 0.34649 0.22633 0.0
H623 H 0.62281 0.342 0.49977 0.0
H624 H 0.60813 0.27505 0.40617 0.0
H625 H 0.62608 0.31441 0.41562 0.0
H626 H 0.57074 0.31309 0.28624 0.0
H627 H 0.55288 0.27367 0.27512 0.0
C628 C 0.61899 0.37637 0.30038 0.0
C629 C 0.62998 0.38663 0.38224 0.0
C630 C 0.60934 0.35385 0.29029 0.0
C631 C 0.61052 0.34103 0.36163 0.0
C632 C 0.62175 0.35135 0.44299 0.0
C633 C 0.63133 0.37383 0.45317 0.0
C634 C 0.59977 0.2831 0.37936 0.0
C635 C 0.57899 0.2711 0.34004 0.0
C636 C 0.61005 0.30572 0.38529 0.0
C637 C 0.59985 0.31697 0.35211 0.0
C638 C 0.5792 0.305 0.31158 0.0
C639 C 0.56889 0.28235 0.30566 0.0
H640 H 0.70198 0.28592 0.50645 0.0
H641 H 0.70087 0.2541 0.25093 0.0
H642 H 0.74123 0.30879 0.49364 0.0
H643 H 0.74006 0.27712 0.23727 0.0
H644 H 0.81209 0.304 0.29764 0.0
H645 H 0.77276 0.28226 0.30673 0.0
H646 H 0.76992 0.33788 0.40835 0.0
H647 H 0.80933 0.35951 0.40155 0.0
C648 C 0.71008 0.28401 0.44684 0.0
C649 C 0.69826 0.2681 0.37995 0.0
C650 C 0.73262 0.29715 0.43939 0.0
C651 C 0.74393 0.29479 0.36459 0.0
C652 C 0.73201 0.27914 0.2968 0.0
C653 C 0.70951 0.26595 0.30449 0.0
C654 C 0.80311 0.31165 0.32175 0.0
C655 C 0.81396 0.33353 0.34901 0.0
C656 C 0.78048 0.29918 0.32645 0.0
C657 C 0.76806 0.30826 0.35821 0.0
C658 C 0.77892 0.33022 0.38481 0.0
C659 C 0.80157 0.34268 0.38039 0.0
H660 H 0.45601 0.76075 0.68474 0.0
H661 H 0.51084 0.82359 0.74825 0.0
H662 H 0.43343 0.77736 0.66373 0.0
H663 H 0.48814 0.84 0.73087 0.0
H664 H 0.4473 0.86642 0.60699 0.0
H665 H 0.46939 0.84911 0.61622 0.0
H666 H 0.41697 0.79404 0.75425 0.0
H667 H 0.3947 0.81112 0.74345 0.0
C668 C 0.46328 0.77811 0.69395 0.0
C669 C 0.48525 0.79079 0.71856 0.0
C670 C 0.45026 0.7876 0.68288 0.0
C671 C 0.45892 0.81004 0.69578 0.0
C672 C 0.48095 0.82273 0.71939 0.0
C673 C 0.49393 0.81325 0.73056 0.0
C674 C 0.44042 0.85058 0.63899 0.0
C675 C 0.4192 0.84023 0.67466 0.0
C676 C 0.45316 0.84069 0.64475 0.0
C677 C 0.44503 0.82019 0.68633 0.0
C678 C 0.4237 0.80971 0.72082 0.0
C679 C 0.41096 0.8196 0.71512 0.0
H680 H 0.27503 0.60854 0.73678 0.0
H681 H 0.21811 0.60549 0.61512 0.0
H682 H 0.29201 0.64789 0.74762 0.0
H683 H 0.23525 0.64484 0.6249 0.0
H684 H 0.26202 0.7117 0.75993 0.0
H685 H 0.24574 0.6726 0.7442 0.0
H686 H 0.30713 0.68086 0.65213 0.0
H687 H 0.32345 0.72013 0.6668 0.0
C688 C 0.26616 0.61623 0.71185 0.0
C689 C 0.24513 0.60376 0.67534 0.0
C690 C 0.27598 0.63884 0.71761 0.0
C691 C 0.26498 0.64955 0.68744 0.0
C692 C 0.24406 0.6371 0.64999 0.0
C693 C 0.23428 0.61452 0.64386 0.0
C694 C 0.27204 0.70527 0.73518 0.0
C695 C 0.29407 0.71919 0.71418 0.0
C696 C 0.26267 0.68279 0.72626 0.0
C697 C 0.27508 0.67355 0.69652 0.0
C698 C 0.29715 0.68741 0.67618 0.0
C699 C 0.30652 0.70995 0.68474 0.0
H700 H 0.47555 0.69055 0.74485 0.0
H701 H 0.47827 0.63794 0.6085 0.0
H702 H 0.43624 0.66826 0.75604 0.0
H703 H 0.43894 0.61584 0.61813 0.0
H704 H 0.3723 0.57427 0.75183 0.0
H705 H 0.41133 0.59711 0.73387 0.0
H706 H 0.40297 0.65162 0.66609 0.0
H707 H 0.36385 0.6289 0.6876 0.0
C708 C 0.46778 0.67429 0.71661 0.0
C709 C 0.48017 0.66604 0.67615 0.0
C710 C 0.44518 0.66154 0.72254 0.0
C711 C 0.43436 0.64019 0.68831 0.0
C712 C 0.44673 0.63208 0.64652 0.0
C713 C 0.46932 0.64483 0.64049 0.0
C714 C 0.37875 0.59118 0.7339 0.0
C715 C 0.36487 0.59974 0.72181 0.0
C716 C 0.40117 0.60423 0.72239 0.0
C717 C 0.41037 0.62624 0.69836 0.0
C718 C 0.39648 0.6348 0.68552 0.0
C719 C 0.37401 0.62171 0.69689 0.0
H720 H 0.06884 0.20022 0.76163 0.0
H721 H 1.00548 0.19294 0.72164 0.0
H722 H 0.07568 0.20546 0.59616 0.0
H723 H 1.01266 0.19956 0.55671 0.0
H724 H 1.02195 0.19058 0.25488 0.0
H725 H 1.0154 0.1844 0.42004 0.0
H726 H 0.08347 0.22869 0.47234 0.0
H727 H 0.09006 0.2335 0.30654 0.0
C728 C 0.05648 0.20003 0.71723 0.0
C729 C 1.03659 0.19606 0.75398 0.0
C730 C 0.06044 0.2032 0.62229 0.0
C731 C 0.04474 0.20291 0.5621 0.0
C732 C 1.02498 0.19939 0.59996 0.0
C733 C 1.02088 0.19578 0.69468 0.0
C734 C 1.03551 0.19876 0.30188 0.0
C735 C 0.05652 0.21237 0.26807 0.0
C736 C 1.03175 0.19547 0.39685 0.0
C737 C 0.04886 0.20612 0.46051 0.0
C738 C 0.06991 0.21985 0.42601 0.0
C739 C 0.07371 0.22276 0.33085 0.0
H740 H 0.88381 0.89481 0.75353 0.0
H741 H 0.89213 0.83933 0.7135 0.0
H742 H 0.8785 0.89634 0.58812 0.0
H743 H 0.88544 0.83981 0.5486 0.0
H744 H 0.89424 0.85815 0.24675 0.0
H745 H 0.90044 0.85782 0.41187 0.0
H746 H 0.85535 0.8807 0.4644 0.0
H747 H 0.8505 0.88245 0.29861 0.0
C748 C 0.88421 0.88276 0.70914 0.0
C749 C 0.88849 0.86702 0.74587 0.0
C750 C 0.881 0.8835 0.61422 0.0
C751 C 0.88156 0.86823 0.55403 0.0
C752 C 0.8854 0.85219 0.59186 0.0
C753 C 0.88905 0.85174 0.68656 0.0
C754 C 0.88588 0.86334 0.29378 0.0
C755 C 0.87203 0.87048 0.26004 0.0
C756 C 0.88919 0.8629 0.38874 0.0
C757 C 0.87832 0.86911 0.45245 0.0
C758 C 0.86436 0.87617 0.41802 0.0
C759 C 0.86142 0.87704 0.32287 0.0
H760 H 0.19039 1.01563 0.75846 0.0
H761 H 0.24638 0.079 0.71841 0.0
H762 H 0.18879 1.00882 0.59307 0.0
H763 H 0.24583 0.07184 0.55345 0.0
H764 H 0.2273 0.06252 0.25177 0.0
H765 H 0.2278 0.0691 0.41692 0.0
H766 H 0.20434 1.00106 0.46963 0.0
H767 H 0.20243 0.99443 0.3039 0.0
C768 C 0.20254 0.02799 0.71406 0.0
C769 C 0.21844 0.04788 0.75074 0.0
C770 C 0.20176 1.02405 0.61917 0.0
C771 C 0.21715 0.03977 0.55901 0.0
C772 C 0.23336 0.05952 0.59676 0.0
C773 C 0.23384 0.0636 0.69146 0.0
C774 C 0.22202 0.04898 0.29886 0.0
C775 C 0.21467 0.02796 0.26524 0.0
C776 C 0.22256 0.05275 0.3938 0.0
C777 C 0.21622 0.03565 0.45751 0.0
C778 C 0.20897 1.0146 0.4232 0.0
C779 C 0.208 1.01078 0.32811 0.0
H780 H 0.68951 0.5237 0.58201 0.0
H781 H 0.75743 0.56758 0.63389 0.0
H782 H 0.68296 0.51758 0.7472 0.0
H783 H 0.7508 0.56281 0.79965 0.0
H784 H 0.73654 0.53433 0.08867 0.0
H785 H 0.74333 0.53957 0.92325 0.0
H786 H 0.67993 0.53274 0.88362 0.0
H787 H 0.67279 0.52612 0.04863 0.0
C788 C 0.70303 0.5321 0.62906 0.0
C789 C 0.72399 0.54597 0.59536 0.0
C790 C 0.69926 0.52884 0.72402 0.0
C791 C 0.7163 0.53977 0.78767 0.0
C792 C 0.7373 0.55375 0.75327 0.0
C793 C 0.74112 0.55664 0.65816 0.0
C794 C 0.72409 0.53394 0.04427 0.0
C795 C 0.7041 0.52971 0.08096 0.0
C796 C 0.72801 0.53711 0.94936 0.0
C797 C 0.71219 0.53656 0.88918 0.0
C798 C 0.69234 0.53278 0.92695 0.0
C799 C 0.68827 0.52917 0.02167 0.0
H800 H 0.56084 0.19086 0.58334 0.0
H801 H 0.51794 0.21619 0.63481 0.0
H802 H 0.56675 0.1902 0.74862 0.0
H803 H 0.52251 0.21415 0.8006 0.0
H804 H 0.55098 0.22784 0.08954 0.0
H805 H 0.54592 0.22959 0.92409 0.0
H806 H 0.55103 0.172 0.88476 0.0
H807 H 0.55748 0.17126 0.0498 0.0
C808 C 0.55261 0.1962 0.63033 0.0
C809 C 0.53907 0.20371 0.59653 0.0
C810 C 0.55575 0.19558 0.72529 0.0
C811 C 0.54503 0.20201 0.78878 0.0
C812 C 0.53139 0.20945 0.7543 0.0
C813 C 0.52862 0.21049 0.65919 0.0
C814 C 0.55103 0.21559 0.0452 0.0
C815 C 0.55473 0.19948 0.08194 0.0
C816 C 0.54796 0.21647 0.9503 0.0
C817 C 0.54809 0.20096 0.89025 0.0
C818 C 0.55133 0.18454 0.92806 0.0
C819 C 0.55484 0.18396 0.02277 0.0
H820 H 0.89427 0.39601 0.58951 0.0
H821 H 0.86863 0.32779 0.64143 0.0
H822 H 0.89472 0.40258 0.75464 0.0
H823 H 0.87049 0.33439 0.8072 0.0
H824 H 0.85696 0.34924 0.0965 0.0
H825 H 0.85523 0.34239 0.93106 0.0
H826 H 0.91262 0.40512 0.89114 0.0
H827 H 0.91332 0.41233 0.05607 0.0
C828 C 0.88881 0.38243 0.63656 0.0
C829 C 0.88127 0.36139 0.60284 0.0
C830 C 0.88932 0.3862 0.73151 0.0
C831 C 0.88276 0.36906 0.79522 0.0
C832 C 0.87529 0.34798 0.76081 0.0
C833 C 0.87435 0.34417 0.66567 0.0
C834 C 0.86916 0.36153 0.05201 0.0
C835 C 0.88521 0.38135 0.08863 0.0
C836 C 0.8683 0.35757 0.95708 0.0
C837 C 0.88376 0.37319 0.89678 0.0
C838 C 0.9001 0.39287 0.93449 0.0
C839 C 0.90067 0.39698 0.02921 0.0
H840 H 0.33964 0.85966 0.38195 0.0
H841 H 0.4033 0.86772 0.42282 0.0
H842 H 0.34683 0.86615 0.21693 0.0
H843 H 0.41016 0.87286 0.25736 0.0
H844 H 0.42425 0.90081 0.96741 0.0
H845 H 0.41766 0.89607 0.13325 0.0
H846 H 0.34985 0.85072 0.08109 0.0
H847 H 0.35637 0.85675 0.91583 0.0
C848 C 0.35512 0.86265 0.35518 0.0
C849 C 0.3709 0.86318 0.41471 0.0
C850 C 0.35922 0.86618 0.26045 0.0
C851 C 0.37906 0.86989 0.22291 0.0
C852 C 0.39485 0.87044 0.28331 0.0
C853 C 0.39088 0.86734 0.37823 0.0
C854 C 0.40797 0.88984 -0.00824 0.0
C855 C 0.39082 0.87912 0.92904 0.0
C856 C 0.40416 0.88698 0.08691 0.0
C857 C 0.38318 0.87299 0.12139 0.0
C858 C 0.36613 0.86199 0.05781 0.0
C859 C 0.36988 0.86521 0.96284 0.0
H860 H 0.20647 0.5661 0.95736 0.0
H861 H 0.20814 0.50668 0.92622 0.0
H862 H 0.2137 0.56637 0.12229 0.0
H863 H 0.21369 0.50583 0.09134 0.0
H864 H 0.24209 0.51796 0.37649 0.0
H865 H 0.23754 0.52012 0.21112 0.0
H866 H 0.1996 0.55127 0.26337 0.0
H867 H 0.20604 0.55083 0.42814 0.0
C868 C 0.20817 0.55298 -0.01365 0.0
C869 C 0.20681 0.53642 0.9295 0.0
C870 C 0.21213 0.55298 0.08106 0.0
C871 C 0.21427 0.53608 0.12128 0.0
C872 C 0.2127 0.51943 0.06348 0.0
C873 C 0.20931 0.51976 0.96863 0.0
C874 C 0.23286 0.52533 0.35231 0.0
C875 C 0.22413 0.53392 0.41512 0.0
C876 C 0.23003 0.52641 0.25729 0.0
C877 C 0.21795 0.53566 0.22278 0.0
C878 C 0.20926 0.54429 0.28638 0.0
C879 C 0.2126 0.54371 0.38129 0.0
H880 H 0.52348 0.6818 0.42597 0.0
H881 H 0.5794 0.74521 0.38595 0.0
H882 H 0.52191 0.67498 0.26059 0.0
H883 H 0.57888 0.73805 0.22102 0.0
H884 H 0.56049 0.72868 0.91919 0.0
H885 H 0.56093 0.73527 0.08431 0.0
H886 H 0.53747 0.66723 0.13718 0.0
H887 H 0.53561 0.6606 0.97147 0.0
C888 C 0.53562 0.69417 0.38159 0.0
C889 C 0.55148 0.71407 0.41828 0.0
C890 C 0.53486 0.69023 0.28669 0.0
C891 C 0.55025 0.70595 0.22653 0.0
C892 C 0.56642 0.72572 0.26431 0.0
C893 C 0.56688 0.7298 0.359 0.0
C894 C 0.5552 0.71514 0.96631 0.0
C895 C 0.54786 0.69412 0.93272 0.0
C896 C 0.55571 0.71892 0.06125 0.0
C897 C 0.54935 0.70183 0.12501 0.0
C898 C 0.54211 0.68078 0.09073 0.0
C899 C 0.54117 0.67695 -0.00437 0.0
loop_
_geom_bond_atom_site_label_1
_geom_bond_atom_site_label_2
_geom_bond_distance
_geom_bond_site_symmetry_2
_ccdc_geom_bond_type
Ho0 C3 2.811 1_554 S
Ho0 O20 2.322 . S
Ho0 O22 2.378 . S
Ho0 O23 2.524 1_554 S
Ho0 O24 2.381 . S
Ho0 O25 2.669 . S
Ho0 O27 2.346 . S
Ho0 O31 2.305 1_554 S
Ho1 C12 2.809 1_556 S
Ho1 O21 2.345 1_556 S
Ho1 O25 2.296 1_656 S
Ho1 O26 2.324 1_655 S
Ho1 O28 2.381 . S
Ho1 O29 2.517 1_556 S
Ho1 O30 2.393 . S
Ho1 O31 2.676 1_655 S
C2 O20 1.259 1_655 S
C2 O21 1.268 . S
C3 Ho0 2.811 1_556 S
C3 C4 1.488 . S
C3 O22 1.215 1_556 S
C3 O23 1.289 . S
C4 C3 1.488 . S
C4 C5 1.348 . S
C4 C9 1.413 1_556 S
C5 C4 1.348 . S
C5 C6 1.442 . S
C5 H32 0.930 . S
C6 C5 1.442 . S
C6 C7 1.381 . S
C6 H33 0.931 . S
C7 C6 1.381 . S
C7 C8 1.321 1_556 S
C8 C7 1.321 1_554 S
C8 C9 1.403 . S
C8 H34 0.934 . S
C9 C4 1.413 1_554 S
C9 C8 1.403 . S
C9 H35 0.930 . S
C10 O24 1.275 . S
C10 O25 1.256 . S
C11 O26 1.259 . S
C11 O27 1.268 1_556 S
C12 Ho1 2.809 1_554 S
C12 C13 1.488 . S
C12 O28 1.215 1_554 S
C12 O29 1.289 . S
C13 C12 1.488 . S
C13 C14 1.348 . S
C13 C18 1.413 1_554 S
C14 C13 1.348 . S
C14 C15 1.442 . S
C14 H36 0.930 . S
C15 C14 1.442 . S
C15 C16 1.381 . S
C15 H37 0.931 . S
C16 C15 1.381 . S
C16 C17 1.321 1_554 S
C17 C16 1.321 1_556 S
C17 C18 1.403 . S
C17 H38 0.934 . S
C18 C13 1.413 1_556 S
C18 C17 1.403 . S
C18 H39 0.930 . S
C19 O30 1.275 1_455 S
C19 O31 1.256 . S
O20 Ho0 2.322 . S
O20 C2 1.259 1_455 S
O21 Ho1 2.345 1_554 S
O21 C2 1.268 . S
O22 Ho0 2.378 . S
O22 C3 1.215 1_554 S
O23 Ho0 2.524 1_556 S
O23 C3 1.289 . S
O24 Ho0 2.381 . S
O24 C10 1.275 . S
O25 Ho0 2.669 . S
O25 Ho1 2.296 1_454 S
O25 C10 1.256 . S
O26 Ho1 2.324 1_455 S
O26 C11 1.259 . S
O27 Ho0 2.346 . S
O27 C11 1.268 1_554 S
O28 Ho1 2.381 . S
O28 C12 1.215 1_556 S
O29 Ho1 2.517 1_554 S
O29 C12 1.289 . S
O30 Ho1 2.393 . S
O30 C19 1.275 1_655 S
O31 Ho0 2.305 1_556 S
O31 Ho1 2.676 1_455 S
O31 C19 1.256 . S
H32 C5 0.930 . S
H33 C6 0.931 . S
H34 C8 0.934 . S
H35 C9 0.930 . S
H36 C14 0.930 . S
H37 C15 0.931 . S
H38 C17 0.934 . S
H39 C18 0.930 . S
Ho40 C43 2.811 1_554 S
Ho40 O60 2.322 . S
Ho40 O62 2.378 . S
Ho40 O63 2.524 1_554 S
Ho40 O64 2.381 . S
Ho40 O65 2.669 . S
Ho40 O67 2.346 . S
Ho40 O71 2.305 1_554 S
Ho41 C52 2.811 1_556 S
Ho41 O61 2.346 1_556 S
Ho41 O65 2.305 1_556 S
Ho41 O66 2.322 . S
Ho41 O68 2.378 . S
Ho41 O69 2.524 1_556 S
Ho41 O70 2.381 . S
Ho41 O71 2.669 . S
C42 O60 1.259 . S
C42 O61 1.268 . S
C43 Ho40 2.811 1_556 S
C43 C44 1.488 . S
C43 O62 1.215 1_556 S
C43 O63 1.289 . S
C44 C43 1.488 . S
C44 C45 1.348 . S
C44 C49 1.413 1_556 S
C45 C44 1.348 . S
C45 C46 1.442 . S
C45 H72 0.930 . S
C46 C45 1.442 . S
C46 C47 1.381 . S
C46 H73 0.931 . S
C47 C46 1.381 . S
C47 C48 1.321 1_556 S
C48 C47 1.321 1_554 S
C48 C49 1.403 . S
C48 H74 0.934 . S
C49 C44 1.413 1_554 S
C49 C48 1.403 . S
C49 H75 0.930 . S
C50 O64 1.275 . S
C50 O65 1.256 . S
C51 O66 1.259 . S
C51 O67 1.268 1_556 S
C52 Ho41 2.811 1_554 S
C52 C53 1.488 . S
C52 O68 1.215 1_554 S
C52 O69 1.289 . S
C53 C52 1.488 . S
C53 C54 1.348 . S
C53 C58 1.413 1_554 S
C54 C53 1.348 . S
C54 C55 1.442 . S
C54 H76 0.930 . S
C55 C54 1.442 . S
C55 C56 1.381 . S
C55 H77 0.931 . S
C56 C55 1.381 . S
C56 C57 1.321 1_554 S
C57 C56 1.321 1_556 S
C57 C58 1.403 . S
C57 H78 0.934 . S
C58 C53 1.413 1_556 S
C58 C57 1.403 . S
C58 H79 0.930 . S
C59 O70 1.275 . S
C59 O71 1.256 . S
O60 Ho40 2.322 . S
O60 C42 1.259 . S
O61 Ho41 2.346 1_554 S
O61 C42 1.268 . S
O62 Ho40 2.378 . S
O62 C43 1.215 1_554 S
O63 Ho40 2.524 1_556 S
O63 C43 1.289 . S
O64 Ho40 2.381 . S
O64 C50 1.275 . S
O65 Ho40 2.669 . S
O65 Ho41 2.305 1_554 S
O65 C50 1.256 . S
O66 Ho41 2.322 . S
O66 C51 1.259 . S
O67 Ho40 2.346 . S
O67 C51 1.268 1_554 S
O68 Ho41 2.378 . S
O68 C52 1.215 1_556 S
O69 Ho41 2.524 1_554 S
O69 C52 1.289 . S
O70 Ho41 2.381 . S
O70 C59 1.275 . S
O71 Ho40 2.305 1_556 S
O71 Ho41 2.669 . S
O71 C59 1.256 . S
H72 C45 0.930 . S
H73 C46 0.931 . S
H74 C48 0.934 . S
H75 C49 0.930 . S
H76 C54 0.930 . S
H77 C55 0.931 . S
H78 C57 0.934 . S
H79 C58 0.930 . S
Ho80 C83 2.811 1_554 S
Ho80 O100 2.322 1_565 S
Ho80 O102 2.378 . S
Ho80 O103 2.524 1_554 S
Ho80 O104 2.381 . S
Ho80 O105 2.669 1_565 S
Ho80 O107 2.346 . S
Ho80 O111 2.305 1_564 S
Ho81 C92 2.811 1_556 S
Ho81 O101 2.346 1_556 S
Ho81 O105 2.305 1_556 S
Ho81 O106 2.322 . S
Ho81 O108 2.378 . S
Ho81 O109 2.524 1_556 S
Ho81 O110 2.381 . S
Ho81 O111 2.669 . S
C82 O100 1.259 . S
C82 O101 1.268 . S
C83 Ho80 2.811 1_556 S
C83 C84 1.488 . S
C83 O102 1.215 1_556 S
C83 O103 1.289 . S
C84 C83 1.488 . S
C84 C85 1.348 . S
C84 C89 1.413 1_556 S
C85 C84 1.348 . S
C85 C86 1.442 . S
C85 H112 0.930 . S
C86 C85 1.442 . S
C86 C87 1.381 . S
C86 H113 0.931 . S
C87 C86 1.381 . S
C87 C88 1.321 1_556 S
C88 C87 1.321 1_554 S
C88 C89 1.403 . S
C88 H114 0.934 . S
C89 C84 1.413 1_554 S
C89 C88 1.403 . S
C89 H115 0.930 . S
C90 O104 1.275 1_545 S
C90 O105 1.256 . S
C91 O106 1.259 1_565 S
C91 O107 1.268 1_556 S
C92 Ho81 2.811 1_554 S
C92 C93 1.488 . S
C92 O108 1.215 1_554 S
C92 O109 1.289 . S
C93 C92 1.488 . S
C93 C94 1.348 . S
C93 C98 1.413 1_554 S
C94 C93 1.348 . S
C94 C95 1.442 . S
C94 H116 0.930 . S
C95 C94 1.442 . S
C95 C96 1.381 . S
C95 H117 0.931 . S
C96 C95 1.381 . S
C96 C97 1.321 1_554 S
C97 C96 1.321 1_556 S
C97 C98 1.403 . S
C97 H118 0.934 . S
C98 C93 1.413 1_556 S
C98 C97 1.403 . S
C98 H119 0.930 . S
C99 O110 1.275 . S
C99 O111 1.256 . S
O100 Ho80 2.322 1_545 S
O100 C82 1.259 . S
O101 Ho81 2.346 1_554 S
O101 C82 1.268 . S
O102 Ho80 2.378 . S
O102 C83 1.215 1_554 S
O103 Ho80 2.524 1_556 S
O103 C83 1.289 . S
O104 Ho80 2.381 . S
O104 C90 1.275 1_565 S
O105 Ho80 2.669 1_545 S
O105 Ho81 2.305 1_554 S
O105 C90 1.256 . S
O106 Ho81 2.322 . S
O106 C91 1.259 1_545 S
O107 Ho80 2.346 . S
O107 C91 1.268 1_554 S
O108 Ho81 2.378 . S
O108 C92 1.215 1_556 S
O109 Ho81 2.524 1_554 S
O109 C92 1.289 . S
O110 Ho81 2.381 . S
O110 C99 1.275 . S
O111 Ho80 2.305 1_546 S
O111 Ho81 2.669 . S
O111 C99 1.256 . S
H112 C85 0.930 . S
H113 C86 0.931 . S
H114 C88 0.934 . S
H115 C89 0.930 . S
H116 C94 0.930 . S
H117 C95 0.931 . S
H118 C97 0.934 . S
H119 C98 0.930 . S
Ho120 C123 2.811 . S
Ho120 O140 2.322 . S
Ho120 O142 2.378 . S
Ho120 O143 2.524 . S
Ho120 O144 2.381 . S
Ho120 O145 2.669 . S
Ho120 O147 2.346 . S
Ho120 O151 2.305 . S
Ho121 C132 2.811 . S
Ho121 O141 2.346 . S
Ho121 O145 2.305 . S
Ho121 O146 2.322 . S
Ho121 O148 2.378 . S
Ho121 O149 2.524 . S
Ho121 O150 2.381 . S
Ho121 O151 2.669 . S
C122 O140 1.259 . S
C122 O141 1.268 . S
C123 Ho120 2.811 . S
C123 C124 1.488 . S
C123 O142 1.215 . S
C123 O143 1.289 . S
C124 C123 1.488 . S
C124 C125 1.348 . S
C124 C129 1.413 . S
C125 C124 1.348 . S
C125 C126 1.442 . S
C125 H152 0.930 . S
C126 C125 1.442 . S
C126 C127 1.381 . S
C126 H153 0.931 . S
C127 C126 1.381 . S
C127 C128 1.321 . S
C128 C127 1.321 . S
C128 C129 1.403 . S
C128 H154 0.934 . S
C129 C124 1.413 . S
C129 C128 1.403 . S
C129 H155 0.930 . S
C130 O144 1.275 . S
C130 O145 1.256 . S
C131 O146 1.259 . S
C131 O147 1.268 . S
C132 Ho121 2.811 . S
C132 C133 1.488 . S
C132 O148 1.215 . S
C132 O149 1.289 . S
C133 C132 1.488 . S
C133 C134 1.348 . S
C133 C138 1.413 . S
C134 C133 1.348 . S
C134 C135 1.442 . S
C134 H156 0.930 . S
C135 C134 1.442 . S
C135 C136 1.381 . S
C135 H157 0.931 . S
C136 C135 1.381 . S
C136 C137 1.321 . S
C137 C136 1.321 . S
C137 C138 1.403 . S
C137 H158 0.934 . S
C138 C133 1.413 . S
C138 C137 1.403 . S
C138 H159 0.930 . S
C139 O150 1.275 . S
C139 O151 1.256 . S
O140 Ho120 2.322 . S
O140 C122 1.259 . S
O141 Ho121 2.346 . S
O141 C122 1.268 . S
O142 Ho120 2.378 . S
O142 C123 1.215 . S
O143 Ho120 2.524 . S
O143 C123 1.289 . S
O144 Ho120 2.381 . S
O144 C130 1.275 . S
O145 Ho120 2.669 . S
O145 Ho121 2.305 . S
O145 C130 1.256 . S
O146 Ho121 2.322 . S
O146 C131 1.259 . S
O147 Ho120 2.346 . S
O147 C131 1.268 . S
O148 Ho121 2.378 . S
O148 C132 1.215 . S
O149 Ho121 2.524 . S
O149 C132 1.289 . S
O150 Ho121 2.381 . S
O150 C139 1.275 . S
O151 Ho120 2.305 . S
O151 Ho121 2.669 . S
O151 C139 1.256 . S
H152 C125 0.930 . S
H153 C126 0.931 . S
H154 C128 0.934 . S
H155 C129 0.930 . S
H156 C134 0.930 . S
H157 C135 0.931 . S
H158 C137 0.934 . S
H159 C138 0.930 . S
Ho160 C163 2.811 . S
Ho160 O180 2.322 . S
Ho160 O182 2.378 . S
Ho160 O183 2.524 . S
Ho160 O184 2.381 . S
Ho160 O185 2.669 . S
Ho160 O187 2.346 . S
Ho160 O191 2.305 . S
Ho161 C172 2.811 . S
Ho161 O181 2.346 . S
Ho161 O185 2.305 . S
Ho161 O186 2.322 . S
Ho161 O188 2.378 . S
Ho161 O189 2.524 . S
Ho161 O190 2.381 . S
Ho161 O191 2.669 . S
C162 O180 1.259 . S
C162 O181 1.268 . S
C163 Ho160 2.811 . S
C163 C164 1.488 . S
C163 O182 1.215 . S
C163 O183 1.289 . S
C164 C163 1.488 . S
C164 C165 1.348 . S
C164 C169 1.413 . S
C165 C164 1.348 . S
C165 C166 1.442 . S
C165 H192 0.930 . S
C166 C165 1.442 . S
C166 C167 1.381 . S
C166 H193 0.931 . S
C167 C166 1.381 . S
C167 C168 1.321 . S
C168 C167 1.321 . S
C168 C169 1.403 . S
C168 H194 0.934 . S
C169 C164 1.413 . S
C169 C168 1.403 . S
C169 H195 0.930 . S
C170 O184 1.275 . S
C170 O185 1.256 . S
C171 O186 1.259 . S
C171 O187 1.268 . S
C172 Ho161 2.811 . S
C172 C173 1.488 . S
C172 O188 1.215 . S
C172 O189 1.289 . S
C173 C172 1.488 . S
C173 C174 1.348 . S
C173 C178 1.413 . S
C174 C173 1.348 . S
C174 C175 1.442 . S
C174 H196 0.930 . S
C175 C174 1.442 . S
C175 C176 1.381 . S
C175 H197 0.931 . S
C176 C175 1.381 . S
C176 C177 1.321 . S
C177 C176 1.321 . S
C177 C178 1.403 . S
C177 H198 0.934 . S
C178 C173 1.413 . S
C178 C177 1.403 . S
C178 H199 0.930 . S
C179 O190 1.275 . S
C179 O191 1.256 . S
O180 Ho160 2.322 . S
O180 C162 1.259 . S
O181 Ho161 2.346 . S
O181 C162 1.268 . S
O182 Ho160 2.378 . S
O182 C163 1.215 . S
O183 Ho160 2.524 . S
O183 C163 1.289 . S
O184 Ho160 2.381 . S
O184 C170 1.275 . S
O185 Ho160 2.669 . S
O185 Ho161 2.305 . S
O185 C170 1.256 . S
O186 Ho161 2.322 . S
O186 C171 1.259 . S
O187 Ho160 2.346 . S
O187 C171 1.268 . S
O188 Ho161 2.378 . S
O188 C172 1.215 . S
O189 Ho161 2.524 . S
O189 C172 1.289 . S
O190 Ho161 2.381 . S
O190 C179 1.275 . S
O191 Ho160 2.305 . S
O191 Ho161 2.669 . S
O191 C179 1.256 . S
H192 C165 0.930 . S
H193 C166 0.931 . S
H194 C168 0.934 . S
H195 C169 0.930 . S
H196 C174 0.930 . S
H197 C175 0.931 . S
H198 C177 0.934 . S
H199 C178 0.930 . S
Ho200 C203 2.811 . S
Ho200 O220 2.322 . S
Ho200 O222 2.378 . S
Ho200 O223 2.524 . S
Ho200 O224 2.381 . S
Ho200 O225 2.669 . S
Ho200 O227 2.346 . S
Ho200 O231 2.305 . S
Ho201 C212 2.811 . S
Ho201 O221 2.346 . S
Ho201 O225 2.305 . S
Ho201 O226 2.322 . S
Ho201 O228 2.378 . S
Ho201 O229 2.524 . S
Ho201 O230 2.381 . S
Ho201 O231 2.669 . S
C202 O220 1.259 . S
C202 O221 1.268 . S
C203 Ho200 2.811 . S
C203 C204 1.488 . S
C203 O222 1.215 . S
C203 O223 1.289 . S
C204 C203 1.488 . S
C204 C205 1.348 . S
C204 C209 1.413 . S
C205 C204 1.348 . S
C205 C206 1.442 . S
C205 H232 0.930 . S
C206 C205 1.442 . S
C206 C207 1.381 . S
C206 H233 0.931 . S
C207 C206 1.381 . S
C207 C208 1.321 . S
C208 C207 1.321 . S
C208 C209 1.403 . S
C208 H234 0.934 . S
C209 C204 1.413 . S
C209 C208 1.403 . S
C209 H235 0.930 . S
C210 O224 1.275 . S
C210 O225 1.256 . S
C211 O226 1.259 . S
C211 O227 1.268 . S
C212 Ho201 2.811 . S
C212 C213 1.488 . S
C212 O228 1.215 . S
C212 O229 1.289 . S
C213 C212 1.488 . S
C213 C214 1.348 . S
C213 C218 1.413 . S
C214 C213 1.348 . S
C214 C215 1.442 . S
C214 H236 0.930 . S
C215 C214 1.442 . S
C215 C216 1.381 . S
C215 H237 0.931 . S
C216 C215 1.381 . S
C216 C217 1.321 . S
C217 C216 1.321 . S
C217 C218 1.403 . S
C217 H238 0.934 . S
C218 C213 1.413 . S
C218 C217 1.403 . S
C218 H239 0.930 . S
C219 O230 1.275 . S
C219 O231 1.256 . S
O220 Ho200 2.322 . S
O220 C202 1.259 . S
O221 Ho201 2.346 . S
O221 C202 1.268 . S
O222 Ho200 2.378 . S
O222 C203 1.215 . S
O223 Ho200 2.524 . S
O223 C203 1.289 . S
O224 Ho200 2.381 . S
O224 C210 1.275 . S
O225 Ho200 2.669 . S
O225 Ho201 2.305 . S
O225 C210 1.256 . S
O226 Ho201 2.322 . S
O226 C211 1.259 . S
O227 Ho200 2.346 . S
O227 C211 1.268 . S
O228 Ho201 2.378 . S
O228 C212 1.215 . S
O229 Ho201 2.524 . S
O229 C212 1.289 . S
O230 Ho201 2.381 . S
O230 C219 1.275 . S
O231 Ho200 2.305 . S
O231 Ho201 2.669 . S
O231 C219 1.256 . S
H232 C205 0.930 . S
H233 C206 0.931 . S
H234 C208 0.934 . S
H235 C209 0.930 . S
H236 C214 0.930 . S
H237 C215 0.931 . S
H238 C217 0.934 . S
H239 C218 0.930 . S
Ho240 C243 2.811 . S
Ho240 O260 2.322 . S
Ho240 O262 2.378 . S
Ho240 O263 2.524 . S
Ho240 O264 2.381 . S
Ho240 O265 2.669 . S
Ho240 O267 2.346 . S
Ho240 O271 2.305 . S
Ho241 C252 2.811 . S
Ho241 O261 2.346 . S
Ho241 O265 2.305 . S
Ho241 O266 2.322 . S
Ho241 O268 2.378 . S
Ho241 O269 2.524 . S
Ho241 O270 2.381 . S
Ho241 O271 2.669 . S
C242 O260 1.259 . S
C242 O261 1.268 . S
C243 Ho240 2.811 . S
C243 C244 1.488 . S
C243 O262 1.215 . S
C243 O263 1.289 . S
C244 C243 1.488 . S
C244 C245 1.348 . S
C244 C249 1.413 . S
C245 C244 1.348 . S
C245 C246 1.442 . S
C245 H272 0.930 . S
C246 C245 1.442 . S
C246 C247 1.381 . S
C246 H273 0.931 . S
C247 C246 1.381 . S
C247 C248 1.321 . S
C248 C247 1.321 . S
C248 C249 1.403 . S
C248 H274 0.934 . S
C249 C244 1.413 . S
C249 C248 1.403 . S
C249 H275 0.930 . S
C250 O264 1.275 . S
C250 O265 1.256 . S
C251 O266 1.259 . S
C251 O267 1.268 . S
C252 Ho241 2.811 . S
C252 C253 1.488 . S
C252 O268 1.215 . S
C252 O269 1.289 . S
C253 C252 1.488 . S
C253 C254 1.348 . S
C253 C258 1.413 . S
C254 C253 1.348 . S
C254 C255 1.442 . S
C254 H276 0.930 . S
C255 C254 1.442 . S
C255 C256 1.381 . S
C255 H277 0.931 . S
C256 C255 1.381 . S
C256 C257 1.321 . S
C257 C256 1.321 . S
C257 C258 1.403 . S
C257 H278 0.934 . S
C258 C253 1.413 . S
C258 C257 1.403 . S
C258 H279 0.930 . S
C259 O270 1.275 . S
C259 O271 1.256 . S
O260 Ho240 2.322 . S
O260 C242 1.259 . S
O261 Ho241 2.346 . S
O261 C242 1.268 . S
O262 Ho240 2.378 . S
O262 C243 1.215 . S
O263 Ho240 2.524 . S
O263 C243 1.289 . S
O264 Ho240 2.381 . S
O264 C250 1.275 . S
O265 Ho240 2.669 . S
O265 Ho241 2.305 . S
O265 C250 1.256 . S
O266 Ho241 2.322 . S
O266 C251 1.259 . S
O267 Ho240 2.346 . S
O267 C251 1.268 . S
O268 Ho241 2.378 . S
O268 C252 1.215 . S
O269 Ho241 2.524 . S
O269 C252 1.289 . S
O270 Ho241 2.381 . S
O270 C259 1.275 . S
O271 Ho240 2.305 . S
O271 Ho241 2.669 . S
O271 C259 1.256 . S
H272 C245 0.930 . S
H273 C246 0.931 . S
H274 C248 0.934 . S
H275 C249 0.930 . S
H276 C254 0.930 . S
H277 C255 0.931 . S
H278 C257 0.934 . S
H279 C258 0.930 . S
Ho280 C283 2.811 . S
Ho280 O300 2.322 . S
Ho280 O302 2.378 . S
Ho280 O303 2.524 . S
Ho280 O304 2.381 . S
Ho280 O305 2.669 . S
Ho280 O307 2.346 . S
Ho280 O311 2.305 . S
Ho281 C292 2.811 . S
Ho281 O301 2.346 . S
Ho281 O305 2.305 . S
Ho281 O306 2.322 . S
Ho281 O308 2.378 . S
Ho281 O309 2.524 . S
Ho281 O310 2.381 . S
Ho281 O311 2.669 . S
C282 O300 1.259 . S
C282 O301 1.268 . S
C283 Ho280 2.811 . S
C283 C284 1.488 . S
C283 O302 1.215 . S
C283 O303 1.289 . S
C284 C283 1.488 . S
C284 C285 1.348 . S
C284 C289 1.413 . S
C285 C284 1.348 . S
C285 C286 1.442 . S
C285 H312 0.930 . S
C286 C285 1.442 . S
C286 C287 1.381 . S
C286 H313 0.931 . S
C287 C286 1.381 . S
C287 C288 1.321 . S
C288 C287 1.321 . S
C288 C289 1.403 . S
C288 H314 0.934 . S
C289 C284 1.413 . S
C289 C288 1.403 . S
C289 H315 0.930 . S
C290 O304 1.275 . S
C290 O305 1.256 . S
C291 O306 1.259 . S
C291 O307 1.268 . S
C292 Ho281 2.811 . S
C292 C293 1.488 . S
C292 O308 1.215 . S
C292 O309 1.289 . S
C293 C292 1.488 . S
C293 C294 1.348 . S
C293 C298 1.413 . S
C294 C293 1.348 . S
C294 C295 1.442 . S
C294 H316 0.930 . S
C295 C294 1.442 . S
C295 C296 1.381 . S
C295 H317 0.931 . S
C296 C295 1.381 . S
C296 C297 1.321 . S
C297 C296 1.321 . S
C297 C298 1.403 . S
C297 H318 0.934 . S
C298 C293 1.413 . S
C298 C297 1.403 . S
C298 H319 0.930 . S
C299 O310 1.275 . S
C299 O311 1.256 . S
O300 Ho280 2.322 . S
O300 C282 1.259 . S
O301 Ho281 2.346 . S
O301 C282 1.268 . S
O302 Ho280 2.378 . S
O302 C283 1.215 . S
O303 Ho280 2.524 . S
O303 C283 1.289 . S
O304 Ho280 2.381 . S
O304 C290 1.275 . S
O305 Ho280 2.669 . S
O305 Ho281 2.305 . S
O305 C290 1.256 . S
O306 Ho281 2.322 . S
O306 C291 1.259 . S
O307 Ho280 2.346 . S
O307 C291 1.268 . S
O308 Ho281 2.378 . S
O308 C292 1.215 . S
O309 Ho281 2.524 . S
O309 C292 1.289 . S
O310 Ho281 2.381 . S
O310 C299 1.275 . S
O311 Ho280 2.305 . S
O311 Ho281 2.669 . S
O311 C299 1.256 . S
H312 C285 0.930 . S
H313 C286 0.931 . S
H314 C288 0.934 . S
H315 C289 0.930 . S
H316 C294 0.930 . S
H317 C295 0.931 . S
H318 C297 0.934 . S
H319 C298 0.930 . S
Ho320 C323 2.811 . S
Ho320 O340 2.322 . S
Ho320 O342 2.378 . S
Ho320 O343 2.524 . S
Ho320 O344 2.381 . S
Ho320 O345 2.669 . S
Ho320 O347 2.346 . S
Ho320 O351 2.305 . S
Ho321 C332 2.811 . S
Ho321 O341 2.346 . S
Ho321 O345 2.305 . S
Ho321 O346 2.322 . S
Ho321 O348 2.378 . S
Ho321 O349 2.524 . S
Ho321 O350 2.381 . S
Ho321 O351 2.669 . S
C322 O340 1.259 . S
C322 O341 1.268 . S
C323 Ho320 2.811 . S
C323 C324 1.488 . S
C323 O342 1.215 . S
C323 O343 1.289 . S
C324 C323 1.488 . S
C324 C325 1.348 . S
C324 C329 1.413 . S
C325 C324 1.348 . S
C325 C326 1.442 . S
C325 H352 0.930 . S
C326 C325 1.442 . S
C326 C327 1.381 . S
C326 H353 0.931 . S
C327 C326 1.381 . S
C327 C328 1.321 . S
C328 C327 1.321 . S
C328 C329 1.403 . S
C328 H354 0.934 . S
C329 C324 1.413 . S
C329 C328 1.403 . S
C329 H355 0.930 . S
C330 O344 1.275 . S
C330 O345 1.256 . S
C331 O346 1.259 . S
C331 O347 1.268 . S
C332 Ho321 2.811 . S
C332 C333 1.488 . S
C332 O348 1.215 . S
C332 O349 1.289 . S
C333 C332 1.488 . S
C333 C334 1.348 . S
C333 C338 1.413 . S
C334 C333 1.348 . S
C334 C335 1.442 . S
C334 H356 0.930 . S
C335 C334 1.442 . S
C335 C336 1.381 . S
C335 H357 0.931 . S
C336 C335 1.381 . S
C336 C337 1.321 . S
C337 C336 1.321 . S
C337 C338 1.403 . S
C337 H358 0.934 . S
C338 C333 1.413 . S
C338 C337 1.403 . S
C338 H359 0.930 . S
C339 O350 1.275 . S
C339 O351 1.256 . S
O340 Ho320 2.322 . S
O340 C322 1.259 . S
O341 Ho321 2.346 . S
O341 C322 1.268 . S
O342 Ho320 2.378 . S
O342 C323 1.215 . S
O343 Ho320 2.524 . S
O343 C323 1.289 . S
O344 Ho320 2.381 . S
O344 C330 1.275 . S
O345 Ho320 2.669 . S
O345 Ho321 2.305 . S
O345 C330 1.256 . S
O346 Ho321 2.322 . S
O346 C331 1.259 . S
O347 Ho320 2.346 . S
O347 C331 1.268 . S
O348 Ho321 2.378 . S
O348 C332 1.215 . S
O349 Ho321 2.524 . S
O349 C332 1.289 . S
O350 Ho321 2.381 . S
O350 C339 1.275 . S
O351 Ho320 2.305 . S
O351 Ho321 2.669 . S
O351 C339 1.256 . S
H352 C325 0.930 . S
H353 C326 0.931 . S
H354 C328 0.934 . S
H355 C329 0.930 . S
H356 C334 0.930 . S
H357 C335 0.931 . S
H358 C337 0.934 . S
H359 C338 0.930 . S
H360 C368 0.950 1_554 S
H361 C373 0.950 . S
H362 C370 0.950 . S
H363 C372 0.950 . S
H364 C374 0.950 . S
H365 C376 0.950 . S
H366 C378 0.950 . S
H367 C379 0.950 . S
C368 H360 0.950 1_556 S
C368 C369 1.386 . S
C368 C370 1.391 . S
C369 C368 1.386 . S
C369 C373 1.393 . S
C370 H362 0.950 . S
C370 C368 1.391 . S
C370 C371 1.400 . S
C371 C370 1.400 . S
C371 C372 1.398 . S
C371 C377 1.491 . S
C372 H363 0.950 . S
C372 C371 1.398 . S
C372 C373 1.391 . S
C373 H361 0.950 . S
C373 C369 1.393 . S
C373 C372 1.391 . S
C374 H364 0.950 . S
C374 C375 1.386 . S
C374 C376 1.391 . S
C375 C374 1.386 . S
C375 C379 1.393 . S
C376 H365 0.950 . S
C376 C374 1.391 . S
C376 C377 1.400 . S
C377 C371 1.491 . S
C377 C376 1.400 . S
C377 C378 1.398 . S
C378 H366 0.950 . S
C378 C377 1.398 . S
C378 C379 1.391 . S
C379 H367 0.950 . S
C379 C375 1.393 . S
C379 C378 1.391 . S
H380 C388 0.950 . S
H381 C393 0.950 . S
H382 C390 0.950 . S
H383 C392 0.950 . S
H384 C394 0.950 . S
H385 C396 0.950 . S
H386 C398 0.950 . S
H387 C399 0.950 . S
C388 H380 0.950 . S
C388 C389 1.386 . S
C388 C390 1.391 . S
C389 C388 1.386 . S
C389 C393 1.393 . S
C390 H382 0.950 . S
C390 C388 1.391 . S
C390 C391 1.400 . S
C391 C390 1.400 . S
C391 C392 1.398 . S
C391 C397 1.491 . S
C392 H383 0.950 . S
C392 C391 1.398 . S
C392 C393 1.391 . S
C393 H381 0.950 . S
C393 C389 1.393 . S
C393 C392 1.391 . S
C394 H384 0.950 . S
C394 C395 1.386 . S
C394 C396 1.391 . S
C395 C394 1.386 . S
C395 C399 1.393 . S
C396 H385 0.950 . S
C396 C394 1.391 . S
C396 C397 1.400 . S
C397 C391 1.491 . S
C397 C396 1.400 . S
C397 C398 1.398 . S
C398 H386 0.950 . S
C398 C397 1.398 . S
C398 C399 1.391 . S
C399 H387 0.950 . S
C399 C395 1.393 . S
C399 C398 1.391 . S
H400 C408 0.950 . S
H401 C413 0.950 1_554 S
H402 C410 0.950 . S
H403 C412 0.950 . S
H404 C414 0.950 . S
H405 C416 0.950 . S
H406 C418 0.950 . S
H407 C419 0.950 . S
C408 H400 0.950 . S
C408 C409 1.386 . S
C408 C410 1.391 . S
C409 C408 1.386 . S
C409 C413 1.393 . S
C410 H402 0.950 . S
C410 C408 1.391 . S
C410 C411 1.400 . S
C411 C410 1.400 . S
C411 C412 1.398 . S
C411 C417 1.491 . S
C412 H403 0.950 . S
C412 C411 1.398 . S
C412 C413 1.391 . S
C413 H401 0.950 1_556 S
C413 C409 1.393 . S
C413 C412 1.391 . S
C414 H404 0.950 . S
C414 C415 1.386 . S
C414 C416 1.391 . S
C415 C414 1.386 . S
C415 C419 1.393 . S
C416 H405 0.950 . S
C416 C414 1.391 . S
C416 C417 1.400 . S
C417 C411 1.491 . S
C417 C416 1.400 . S
C417 C418 1.398 . S
C418 H406 0.950 . S
C418 C417 1.398 . S
C418 C419 1.391 . S
C419 H407 0.950 . S
C419 C415 1.393 . S
C419 C418 1.391 . S
H420 C428 0.950 . S
H421 C433 0.950 . S
H422 C430 0.950 . S
H423 C432 0.950 . S
H424 C434 0.950 . S
H425 C436 0.950 1_556 S
H426 C438 0.950 . S
H427 C439 0.950 . S
C428 H420 0.950 . S
C428 C429 1.386 . S
C428 C430 1.391 . S
C429 C428 1.386 . S
C429 C433 1.393 . S
C430 H422 0.950 . S
C430 C428 1.391 . S
C430 C431 1.400 . S
C431 C430 1.400 . S
C431 C432 1.398 . S
C431 C437 1.491 . S
C432 H423 0.950 . S
C432 C431 1.398 . S
C432 C433 1.391 . S
C433 H421 0.950 . S
C433 C429 1.393 . S
C433 C432 1.391 . S
C434 H424 0.950 . S
C434 C435 1.386 1_556 S
C434 C436 1.391 1_556 S
C435 C434 1.386 1_554 S
C435 C439 1.393 . S
C436 H425 0.950 1_554 S
C436 C434 1.391 1_554 S
C436 C437 1.400 . S
C437 C431 1.491 . S
C437 C436 1.400 . S
C437 C438 1.398 . S
C438 H426 0.950 . S
C438 C437 1.398 . S
C438 C439 1.391 . S
C439 H427 0.950 . S
C439 C435 1.393 . S
C439 C438 1.391 . S
H440 C448 0.950 . S
H441 C453 0.950 . S
H442 C450 0.950 . S
H443 C452 0.950 . S
H444 C454 0.950 1_556 S
H445 C456 0.950 . S
H446 C458 0.950 . S
H447 C459 0.950 1_455 S
C448 H440 0.950 . S
C448 C449 1.386 . S
C448 C450 1.391 . S
C449 C448 1.386 . S
C449 C453 1.393 . S
C450 H442 0.950 . S
C450 C448 1.391 . S
C450 C451 1.400 . S
C451 C450 1.400 . S
C451 C452 1.398 . S
C451 C457 1.491 . S
C452 H443 0.950 . S
C452 C451 1.398 . S
C452 C453 1.391 . S
C453 H441 0.950 . S
C453 C449 1.393 . S
C453 C452 1.391 . S
C454 H444 0.950 1_554 S
C454 C455 1.386 . S
C454 C456 1.391 . S
C455 C454 1.386 . S
C455 C459 1.393 . S
C456 H445 0.950 . S
C456 C454 1.391 . S
C456 C457 1.400 . S
C457 C451 1.491 . S
C457 C456 1.400 . S
C457 C458 1.398 . S
C458 H446 0.950 . S
C458 C457 1.398 . S
C458 C459 1.391 . S
C459 H447 0.950 1_655 S
C459 C455 1.393 . S
C459 C458 1.391 . S
H460 C468 0.950 . S
H461 C473 0.950 . S
H462 C470 0.950 . S
H463 C472 0.950 1_556 S
H464 C474 0.950 . S
H465 C476 0.950 . S
H466 C478 0.950 . S
H467 C479 0.950 . S
C468 H460 0.950 . S
C468 C469 1.386 . S
C468 C470 1.391 . S
C469 C468 1.386 . S
C469 C473 1.393 1_554 S
C470 H462 0.950 . S
C470 C468 1.391 . S
C470 C471 1.400 . S
C471 C470 1.400 . S
C471 C472 1.398 . S
C471 C477 1.491 . S
C472 H463 0.950 1_554 S
C472 C471 1.398 . S
C472 C473 1.391 1_554 S
C473 H461 0.950 . S
C473 C469 1.393 1_556 S
C473 C472 1.391 1_556 S
C474 H464 0.950 . S
C474 C475 1.386 . S
C474 C476 1.391 . S
C475 C474 1.386 . S
C475 C479 1.393 . S
C476 H465 0.950 . S
C476 C474 1.391 . S
C476 C477 1.400 . S
C477 C471 1.491 . S
C477 C476 1.400 . S
C477 C478 1.398 . S
C478 H466 0.950 . S
C478 C477 1.398 . S
C478 C479 1.391 . S
C479 H467 0.950 . S
C479 C475 1.393 . S
C479 C478 1.391 . S
H480 C488 0.950 . S
H481 C493 0.950 . S
H482 C490 0.950 . S
H483 C492 0.950 . S
H484 C494 0.950 . S
H485 C496 0.950 . S
H486 C498 0.950 . S
H487 C499 0.950 . S
C488 H480 0.950 . S
C488 C489 1.386 . S
C488 C490 1.391 1_455 S
C489 C488 1.386 . S
C489 C493 1.393 . S
C490 H482 0.950 . S
C490 C488 1.391 1_655 S
C490 C491 1.400 . S
C491 C490 1.400 . S
C491 C492 1.398 . S
C491 C497 1.491 . S
C492 H483 0.950 . S
C492 C491 1.398 . S
C492 C493 1.391 1_655 S
C493 H481 0.950 . S
C493 C489 1.393 . S
C493 C492 1.391 1_455 S
C494 H484 0.950 . S
C494 C495 1.386 . S
C494 C496 1.391 . S
C495 C494 1.386 . S
C495 C499 1.393 . S
C496 H485 0.950 . S
C496 C494 1.391 . S
C496 C497 1.400 . S
C497 C491 1.491 . S
C497 C496 1.400 . S
C497 C498 1.398 . S
C498 H486 0.950 . S
C498 C497 1.398 . S
C498 C499 1.391 . S
C499 H487 0.950 . S
C499 C495 1.393 . S
C499 C498 1.391 . S
H500 C508 0.950 . S
H501 C513 0.950 . S
H502 C510 0.950 . S
H503 C512 0.950 . S
H504 C514 0.950 . S
H505 C516 0.950 . S
H506 C518 0.950 . S
H507 C519 0.950 . S
C508 H500 0.950 . S
C508 C509 1.386 . S
C508 C510 1.391 . S
C509 C508 1.386 . S
C509 C513 1.393 . S
C510 H502 0.950 . S
C510 C508 1.391 . S
C510 C511 1.400 . S
C511 C510 1.400 . S
C511 C512 1.398 . S
C511 C517 1.491 . S
C512 H503 0.950 . S
C512 C511 1.398 . S
C512 C513 1.391 . S
C513 H501 0.950 . S
C513 C509 1.393 . S
C513 C512 1.391 . S
C514 H504 0.950 . S
C514 C515 1.386 . S
C514 C516 1.391 . S
C515 C514 1.386 . S
C515 C519 1.393 . S
C516 H505 0.950 . S
C516 C514 1.391 . S
C516 C517 1.400 . S
C517 C511 1.491 . S
C517 C516 1.400 . S
C517 C518 1.398 . S
C518 H506 0.950 . S
C518 C517 1.398 . S
C518 C519 1.391 . S
C519 H507 0.950 . S
C519 C515 1.393 . S
C519 C518 1.391 . S
H520 C528 0.950 . S
H521 C533 0.950 . S
H522 C530 0.950 . S
H523 C532 0.950 . S
H524 C534 0.950 . S
H525 C536 0.950 . S
H526 C538 0.950 . S
H527 C539 0.950 . S
C528 H520 0.950 . S
C528 C529 1.386 . S
C528 C530 1.391 . S
C529 C528 1.386 . S
C529 C533 1.393 . S
C530 H522 0.950 . S
C530 C528 1.391 . S
C530 C531 1.400 . S
C531 C530 1.400 . S
C531 C532 1.398 . S
C531 C537 1.491 . S
C532 H523 0.950 . S
C532 C531 1.398 . S
C532 C533 1.391 . S
C533 H521 0.950 . S
C533 C529 1.393 . S
C533 C532 1.391 . S
C534 H524 0.950 . S
C534 C535 1.386 . S
C534 C536 1.391 . S
C535 C534 1.386 . S
C535 C539 1.393 . S
C536 H525 0.950 . S
C536 C534 1.391 . S
C536 C537 1.400 . S
C537 C531 1.491 . S
C537 C536 1.400 . S
C537 C538 1.398 . S
C538 H526 0.950 . S
C538 C537 1.398 . S
C538 C539 1.391 . S
C539 H527 0.950 . S
C539 C535 1.393 . S
C539 C538 1.391 . S
H540 C548 0.950 . S
H541 C553 0.950 1_556 S
H542 C550 0.950 . S
H543 C552 0.950 1_556 S
H544 C554 0.950 . S
H545 C556 0.950 . S
H546 C558 0.950 . S
H547 C559 0.950 . S
C548 H540 0.950 . S
C548 C549 1.386 . S
C548 C550 1.391 . S
C549 C548 1.386 . S
C549 C553 1.393 . S
C550 H542 0.950 . S
C550 C548 1.391 . S
C550 C551 1.400 . S
C551 C550 1.400 . S
C551 C552 1.398 . S
C551 C557 1.491 . S
C552 H543 0.950 1_554 S
C552 C551 1.398 . S
C552 C553 1.391 . S
C553 H541 0.950 1_554 S
C553 C549 1.393 . S
C553 C552 1.391 . S
C554 H544 0.950 . S
C554 C555 1.386 1_556 S
C554 C556 1.391 . S
C555 C554 1.386 1_554 S
C555 C559 1.393 . S
C556 H545 0.950 . S
C556 C554 1.391 . S
C556 C557 1.400 1_556 S
C557 C551 1.491 . S
C557 C556 1.400 1_554 S
C557 C558 1.398 . S
C558 H546 0.950 . S
C558 C557 1.398 . S
C558 C559 1.391 . S
C559 H547 0.950 . S
C559 C555 1.393 . S
C559 C558 1.391 . S
H560 C568 0.950 . S
H561 C573 0.950 . S
H562 C570 0.950 . S
H563 C572 0.950 . S
H564 C574 0.950 . S
H565 C576 0.950 . S
H566 C578 0.950 . S
H567 C579 0.950 . S
C568 H560 0.950 . S
C568 C569 1.386 . S
C568 C570 1.391 . S
C569 C568 1.386 . S
C569 C573 1.393 1_554 S
C570 H562 0.950 . S
C570 C568 1.391 . S
C570 C571 1.400 . S
C571 C570 1.400 . S
C571 C572 1.398 1_554 S
C571 C577 1.491 . S
C572 H563 0.950 . S
C572 C571 1.398 1_556 S
C572 C573 1.391 . S
C573 H561 0.950 . S
C573 C569 1.393 1_556 S
C573 C572 1.391 . S
C574 H564 0.950 . S
C574 C575 1.386 1_556 S
C574 C576 1.391 1_545 S
C575 C574 1.386 1_554 S
C575 C579 1.393 . S
C576 H565 0.950 . S
C576 C574 1.391 1_565 S
C576 C577 1.400 1_556 S
C577 C571 1.491 . S
C577 C576 1.400 1_554 S
C577 C578 1.398 . S
C578 H566 0.950 . S
C578 C577 1.398 . S
C578 C579 1.391 1_565 S
C579 H567 0.950 . S
C579 C575 1.393 . S
C579 C578 1.391 1_545 S
H580 C588 0.950 1_556 S
H581 C593 0.950 . S
H582 C590 0.950 1_556 S
H583 C592 0.950 . S
H584 C594 0.950 1_545 S
H585 C596 0.950 . S
H586 C598 0.950 . S
H587 C599 0.950 . S
C588 H580 0.950 1_554 S
C588 C589 1.386 . S
C588 C590 1.391 . S
C589 C588 1.386 . S
C589 C593 1.393 . S
C590 H582 0.950 1_554 S
C590 C588 1.391 . S
C590 C591 1.400 . S
C591 C590 1.400 . S
C591 C592 1.398 . S
C591 C597 1.491 . S
C592 H583 0.950 . S
C592 C591 1.398 . S
C592 C593 1.391 . S
C593 H581 0.950 . S
C593 C589 1.393 . S
C593 C592 1.391 . S
C594 H584 0.950 1_565 S
C594 C595 1.386 . S
C594 C596 1.391 . S
C595 C594 1.386 . S
C595 C599 1.393 1_554 S
C596 H585 0.950 . S
C596 C594 1.391 . S
C596 C597 1.400 . S
C597 C591 1.491 . S
C597 C596 1.400 . S
C597 C598 1.398 1_554 S
C598 H586 0.950 . S
C598 C597 1.398 1_556 S
C598 C599 1.391 . S
C599 H587 0.950 . S
C599 C595 1.393 1_556 S
C599 C598 1.391 . S
H600 C608 0.950 . S
H601 C613 0.950 . S
H602 C610 0.950 . S
H603 C612 0.950 . S
H604 C614 0.950 . S
H605 C616 0.950 . S
H606 C618 0.950 . S
H607 C619 0.950 . S
C608 H600 0.950 . S
C608 C609 1.386 . S
C608 C610 1.391 . S
C609 C608 1.386 . S
C609 C613 1.393 . S
C610 H602 0.950 . S
C610 C608 1.391 . S
C610 C611 1.400 . S
C611 C610 1.400 . S
C611 C612 1.398 . S
C611 C617 1.491 . S
C612 H603 0.950 . S
C612 C611 1.398 . S
C612 C613 1.391 . S
C613 H601 0.950 . S
C613 C609 1.393 . S
C613 C612 1.391 . S
C614 H604 0.950 . S
C614 C615 1.386 . S
C614 C616 1.391 . S
C615 C614 1.386 . S
C615 C619 1.393 . S
C616 H605 0.950 . S
C616 C614 1.391 . S
C616 C617 1.400 . S
C617 C611 1.491 . S
C617 C616 1.400 . S
C617 C618 1.398 . S
C618 H606 0.950 . S
C618 C617 1.398 . S
C618 C619 1.391 . S
C619 H607 0.950 . S
C619 C615 1.393 . S
C619 C618 1.391 . S
H620 C628 0.950 . S
H621 C633 0.950 . S
H622 C630 0.950 . S
H623 C632 0.950 . S
H624 C634 0.950 . S
H625 C636 0.950 . S
H626 C638 0.950 . S
H627 C639 0.950 . S
C628 H620 0.950 . S
C628 C629 1.386 . S
C628 C630 1.391 . S
C629 C628 1.386 . S
C629 C633 1.393 . S
C630 H622 0.950 . S
C630 C628 1.391 . S
C630 C631 1.400 . S
C631 C630 1.400 . S
C631 C632 1.398 . S
C631 C637 1.491 . S
C632 H623 0.950 . S
C632 C631 1.398 . S
C632 C633 1.391 . S
C633 H621 0.950 . S
C633 C629 1.393 . S
C633 C632 1.391 . S
C634 H624 0.950 . S
C634 C635 1.386 . S
C634 C636 1.391 . S
C635 C634 1.386 . S
C635 C639 1.393 . S
C636 H625 0.950 . S
C636 C634 1.391 . S
C636 C637 1.400 . S
C637 C631 1.491 . S
C637 C636 1.400 . S
C637 C638 1.398 . S
C638 H626 0.950 . S
C638 C637 1.398 . S
C638 C639 1.391 . S
C639 H627 0.950 . S
C639 C635 1.393 . S
C639 C638 1.391 . S
H640 C648 0.950 . S
H641 C653 0.950 . S
H642 C650 0.950 . S
H643 C652 0.950 . S
H644 C654 0.950 . S
H645 C656 0.950 . S
H646 C658 0.950 . S
H647 C659 0.950 . S
C648 H640 0.950 . S
C648 C649 1.386 . S
C648 C650 1.391 . S
C649 C648 1.386 . S
C649 C653 1.393 . S
C650 H642 0.950 . S
C650 C648 1.391 . S
C650 C651 1.400 . S
C651 C650 1.400 . S
C651 C652 1.398 . S
C651 C657 1.491 . S
C652 H643 0.950 . S
C652 C651 1.398 . S
C652 C653 1.391 . S
C653 H641 0.950 . S
C653 C649 1.393 . S
C653 C652 1.391 . S
C654 H644 0.950 . S
C654 C655 1.386 . S
C654 C656 1.391 . S
C655 C654 1.386 . S
C655 C659 1.393 . S
C656 H645 0.950 . S
C656 C654 1.391 . S
C656 C657 1.400 . S
C657 C651 1.491 . S
C657 C656 1.400 . S
C657 C658 1.398 . S
C658 H646 0.950 . S
C658 C657 1.398 . S
C658 C659 1.391 . S
C659 H647 0.950 . S
C659 C655 1.393 . S
C659 C658 1.391 . S
H660 C668 0.950 . S
H661 C673 0.950 . S
H662 C670 0.950 . S
H663 C672 0.950 . S
H664 C674 0.950 . S
H665 C676 0.950 . S
H666 C678 0.950 . S
H667 C679 0.950 . S
C668 H660 0.950 . S
C668 C669 1.386 . S
C668 C670 1.391 . S
C669 C668 1.386 . S
C669 C673 1.393 . S
C670 H662 0.950 . S
C670 C668 1.391 . S
C670 C671 1.400 . S
C671 C670 1.400 . S
C671 C672 1.398 . S
C671 C677 1.491 . S
C672 H663 0.950 . S
C672 C671 1.398 . S
C672 C673 1.391 . S
C673 H661 0.950 . S
C673 C669 1.393 . S
C673 C672 1.391 . S
C674 H664 0.950 . S
C674 C675 1.386 . S
C674 C676 1.391 . S
C675 C674 1.386 . S
C675 C679 1.393 . S
C676 H665 0.950 . S
C676 C674 1.391 . S
C676 C677 1.400 . S
C677 C671 1.491 . S
C677 C676 1.400 . S
C677 C678 1.398 . S
C678 H666 0.950 . S
C678 C677 1.398 . S
C678 C679 1.391 . S
C679 H667 0.950 . S
C679 C675 1.393 . S
C679 C678 1.391 . S
H680 C688 0.950 . S
H681 C693 0.950 . S
H682 C690 0.950 . S
H683 C692 0.950 . S
H684 C694 0.950 . S
H685 C696 0.950 . S
H686 C698 0.950 . S
H687 C699 0.950 . S
C688 H680 0.950 . S
C688 C689 1.386 . S
C688 C690 1.391 . S
C689 C688 1.386 . S
C689 C693 1.393 . S
C690 H682 0.950 . S
C690 C688 1.391 . S
C690 C691 1.400 . S
C691 C690 1.400 . S
C691 C692 1.398 . S
C691 C697 1.491 . S
C692 H683 0.950 . S
C692 C691 1.398 . S
C692 C693 1.391 . S
C693 H681 0.950 . S
C693 C689 1.393 . S
C693 C692 1.391 . S
C694 H684 0.950 . S
C694 C695 1.386 . S
C694 C696 1.391 . S
C695 C694 1.386 . S
C695 C699 1.393 . S
C696 H685 0.950 . S
C696 C694 1.391 . S
C696 C697 1.400 . S
C697 C691 1.491 . S
C697 C696 1.400 . S
C697 C698 1.398 . S
C698 H686 0.950 . S
C698 C697 1.398 . S
C698 C699 1.391 . S
C699 H687 0.950 . S
C699 C695 1.393 . S
C699 C698 1.391 . S
H700 C708 0.950 . S
H701 C713 0.950 . S
H702 C710 0.950 . S
H703 C712 0.950 . S
H704 C714 0.950 . S
H705 C716 0.950 . S
H706 C718 0.950 . S
H707 C719 0.950 . S
C708 H700 0.950 . S
C708 C709 1.386 . S
C708 C710 1.391 . S
C709 C708 1.386 . S
C709 C713 1.393 . S
C710 H702 0.950 . S
C710 C708 1.391 . S
C710 C711 1.400 . S
C711 C710 1.400 . S
C711 C712 1.398 . S
C711 C717 1.491 . S
C712 H703 0.950 . S
C712 C711 1.398 . S
C712 C713 1.391 . S
C713 H701 0.950 . S
C713 C709 1.393 . S
C713 C712 1.391 . S
C714 H704 0.950 . S
C714 C715 1.386 . S
C714 C716 1.391 . S
C715 C714 1.386 . S
C715 C719 1.393 . S
C716 H705 0.950 . S
C716 C714 1.391 . S
C716 C717 1.400 . S
C717 C711 1.491 . S
C717 C716 1.400 . S
C717 C718 1.398 . S
C718 H706 0.950 . S
C718 C717 1.398 . S
C718 C719 1.391 . S
C719 H707 0.950 . S
C719 C715 1.393 . S
C719 C718 1.391 . S
H720 C728 0.950 . S
H721 C733 0.950 . S
H722 C730 0.950 . S
H723 C732 0.950 . S
H724 C734 0.950 . S
H725 C736 0.950 . S
H726 C738 0.950 . S
H727 C739 0.950 . S
C728 H720 0.950 . S
C728 C729 1.386 . S
C728 C730 1.391 . S
C729 C728 1.386 . S
C729 C733 1.393 . S
C730 H722 0.950 . S
C730 C728 1.391 . S
C730 C731 1.400 . S
C731 C730 1.400 . S
C731 C732 1.398 . S
C731 C737 1.491 . S
C732 H723 0.950 . S
C732 C731 1.398 . S
C732 C733 1.391 . S
C733 H721 0.950 . S
C733 C729 1.393 . S
C733 C732 1.391 . S
C734 H724 0.950 . S
C734 C735 1.386 . S
C734 C736 1.391 . S
C735 C734 1.386 . S
C735 C739 1.393 . S
C736 H725 0.950 . S
C736 C734 1.391 . S
C736 C737 1.400 . S
C737 C731 1.491 . S
C737 C736 1.400 . S
C737 C738 1.398 . S
C738 H726 0.950 . S
C738 C737 1.398 . S
C738 C739 1.391 . S
C739 H727 0.950 . S
C739 C735 1.393 . S
C739 C738 1.391 . S
H740 C748 0.950 . S
H741 C753 0.950 . S
H742 C750 0.950 . S
H743 C752 0.950 . S
H744 C754 0.950 . S
H745 C756 0.950 . S
H746 C758 0.950 . S
H747 C759 0.950 . S
C748 H740 0.950 . S
C748 C749 1.386 . S
C748 C750 1.391 . S
C749 C748 1.386 . S
C749 C753 1.393 . S
C750 H742 0.950 . S
C750 C748 1.391 . S
C750 C751 1.400 . S
C751 C750 1.400 . S
C751 C752 1.398 . S
C751 C757 1.491 . S
C752 H743 0.950 . S
C752 C751 1.398 . S
C752 C753 1.391 . S
C753 H741 0.950 . S
C753 C749 1.393 . S
C753 C752 1.391 . S
C754 H744 0.950 . S
C754 C755 1.386 . S
C754 C756 1.391 . S
C755 C754 1.386 . S
C755 C759 1.393 . S
C756 H745 0.950 . S
C756 C754 1.391 . S
C756 C757 1.400 . S
C757 C751 1.491 . S
C757 C756 1.400 . S
C757 C758 1.398 . S
C758 H746 0.950 . S
C758 C757 1.398 . S
C758 C759 1.391 . S
C759 H747 0.950 . S
C759 C755 1.393 . S
C759 C758 1.391 . S
H760 C768 0.950 . S
H761 C773 0.989 . S
H762 C770 0.950 . S
H763 C772 0.946 1_565 S
H764 C774 0.915 1_565 S
H765 C776 0.950 1_565 S
H766 C778 0.950 . S
H767 C779 0.950 . S
C768 H760 0.950 . S
C768 C769 1.386 . S
C768 C770 1.391 . S
C769 C768 1.386 . S
C769 C773 1.393 . S
C770 H762 0.950 . S
C770 C768 1.391 . S
C770 C771 1.400 . S
C771 C770 1.400 . S
C771 C772 1.398 . S
C771 C777 1.491 . S
C772 H763 0.946 1_545 S
C772 C771 1.398 . S
C772 C773 1.391 . S
C773 H761 0.989 . S
C773 C769 1.393 . S
C773 C772 1.391 . S
C774 H764 0.915 1_545 S
C774 C775 1.420 . S
C774 C776 1.393 . S
C775 C774 1.420 . S
C775 C779 1.393 . S
C776 H765 0.950 1_545 S
C776 C774 1.393 . S
C776 C777 1.400 . S
C777 C771 1.491 . S
C777 C776 1.400 . S
C777 C778 1.398 . S
C778 H766 0.950 . S
C778 C777 1.398 . S
C778 C779 1.391 . S
C779 H767 0.950 . S
C779 C775 1.393 . S
C779 C778 1.391 . S
H780 C788 0.950 . S
H781 C793 0.950 . S
H782 C790 0.950 . S
H783 C792 0.950 . S
H784 C794 0.950 . S
H785 C796 0.950 . S
H786 C798 0.950 . S
H787 C799 0.950 . S
C788 H780 0.950 . S
C788 C789 1.386 . S
C788 C790 1.391 . S
C789 C788 1.386 . S
C789 C793 1.393 . S
C790 H782 0.950 . S
C790 C788 1.391 . S
C790 C791 1.400 . S
C791 C790 1.400 . S
C791 C792 1.398 . S
C791 C797 1.491 . S
C792 H783 0.950 . S
C792 C791 1.398 . S
C792 C793 1.391 . S
C793 H781 0.950 . S
C793 C789 1.393 . S
C793 C792 1.391 . S
C794 H784 0.950 . S
C794 C795 1.386 . S
C794 C796 1.391 1_554 S
C795 C794 1.386 . S
C795 C799 1.393 . S
C796 H785 0.950 . S
C796 C794 1.391 1_556 S
C796 C797 1.400 . S
C797 C791 1.491 . S
C797 C796 1.400 . S
C797 C798 1.398 . S
C798 H786 0.950 . S
C798 C797 1.398 . S
C798 C799 1.391 1_556 S
C799 H787 0.950 . S
C799 C795 1.393 . S
C799 C798 1.391 1_554 S
H800 C808 0.950 . S
H801 C813 0.950 . S
H802 C810 0.950 . S
H803 C812 0.950 . S
H804 C814 0.950 . S
H805 C816 0.950 . S
H806 C818 0.950 . S
H807 C819 0.950 . S
C808 H800 0.950 . S
C808 C809 1.386 . S
C808 C810 1.391 . S
C809 C808 1.386 . S
C809 C813 1.393 . S
C810 H802 0.950 . S
C810 C808 1.391 . S
C810 C811 1.400 . S
C811 C810 1.400 . S
C811 C812 1.398 . S
C811 C817 1.491 . S
C812 H803 0.950 . S
C812 C811 1.398 . S
C812 C813 1.391 . S
C813 H801 0.950 . S
C813 C809 1.393 . S
C813 C812 1.391 . S
C814 H804 0.950 . S
C814 C815 1.386 . S
C814 C816 1.391 1_554 S
C815 C814 1.386 . S
C815 C819 1.393 . S
C816 H805 0.950 . S
C816 C814 1.391 1_556 S
C816 C817 1.400 . S
C817 C811 1.491 . S
C817 C816 1.400 . S
C817 C818 1.398 . S
C818 H806 0.950 . S
C818 C817 1.398 . S
C818 C819 1.391 1_556 S
C819 H807 0.950 . S
C819 C815 1.393 . S
C819 C818 1.391 1_554 S
H820 C828 0.950 . S
H821 C833 0.950 . S
H822 C830 0.950 . S
H823 C832 0.950 . S
H824 C834 0.950 . S
H825 C836 0.950 . S
H826 C838 0.950 . S
H827 C839 0.950 . S
C828 H820 0.950 . S
C828 C829 1.386 . S
C828 C830 1.391 . S
C829 C828 1.386 . S
C829 C833 1.393 . S
C830 H822 0.950 . S
C830 C828 1.391 . S
C830 C831 1.400 . S
C831 C830 1.400 . S
C831 C832 1.398 . S
C831 C837 1.491 . S
C832 H823 0.950 . S
C832 C831 1.398 . S
C832 C833 1.391 . S
C833 H821 0.950 . S
C833 C829 1.393 . S
C833 C832 1.391 . S
C834 H824 0.950 . S
C834 C835 1.386 . S
C834 C836 1.391 1_554 S
C835 C834 1.386 . S
C835 C839 1.393 . S
C836 H825 0.950 . S
C836 C834 1.391 1_556 S
C836 C837 1.400 . S
C837 C831 1.491 . S
C837 C836 1.400 . S
C837 C838 1.398 . S
C838 H826 0.950 . S
C838 C837 1.398 . S
C838 C839 1.391 1_556 S
C839 H827 0.950 . S
C839 C835 1.393 . S
C839 C838 1.391 1_554 S
H840 C848 0.950 . S
H841 C853 0.950 . S
H842 C850 0.950 . S
H843 C852 0.950 . S
H844 C854 0.950 . S
H845 C856 0.950 . S
H846 C858 0.950 . S
H847 C859 0.950 . S
C848 H840 0.950 . S
C848 C849 1.386 . S
C848 C850 1.391 . S
C849 C848 1.386 . S
C849 C853 1.393 . S
C850 H842 0.950 . S
C850 C848 1.391 . S
C850 C851 1.400 . S
C851 C850 1.400 . S
C851 C852 1.398 . S
C851 C857 1.491 . S
C852 H843 0.950 . S
C852 C851 1.398 . S
C852 C853 1.391 . S
C853 H841 0.950 . S
C853 C849 1.393 . S
C853 C852 1.391 . S
C854 H844 0.950 . S
C854 C855 1.386 . S
C854 C856 1.391 1_556 S
C855 C854 1.386 . S
C855 C859 1.393 . S
C856 H845 0.950 . S
C856 C854 1.391 1_554 S
C856 C857 1.400 . S
C857 C851 1.491 . S
C857 C856 1.400 . S
C857 C858 1.398 . S
C858 H846 0.950 . S
C858 C857 1.398 . S
C858 C859 1.391 1_554 S
C859 H847 0.950 . S
C859 C855 1.393 . S
C859 C858 1.391 1_556 S
H860 C868 0.950 . S
H861 C873 0.950 . S
H862 C870 0.950 . S
H863 C872 0.950 . S
H864 C874 0.950 . S
H865 C876 0.950 . S
H866 C878 0.950 . S
H867 C879 0.950 . S
C868 H860 0.950 . S
C868 C869 1.386 . S
C868 C870 1.391 1_556 S
C869 C868 1.386 . S
C869 C873 1.393 . S
C870 H862 0.950 . S
C870 C868 1.391 1_554 S
C870 C871 1.400 . S
C871 C870 1.400 . S
C871 C872 1.398 . S
C871 C877 1.491 . S
C872 H863 0.950 . S
C872 C871 1.398 . S
C872 C873 1.391 1_554 S
C873 H861 0.950 . S
C873 C869 1.393 . S
C873 C872 1.391 1_556 S
C874 H864 0.950 . S
C874 C875 1.386 . S
C874 C876 1.391 . S
C875 C874 1.386 . S
C875 C879 1.393 . S
C876 H865 0.950 . S
C876 C874 1.391 . S
C876 C877 1.400 . S
C877 C871 1.491 . S
C877 C876 1.400 . S
C877 C878 1.398 . S
C878 H866 0.950 . S
C878 C877 1.398 . S
C878 C879 1.391 . S
C879 H867 0.950 . S
C879 C875 1.393 . S
C879 C878 1.391 . S
H880 C888 0.950 . S
H881 C893 0.950 . S
H882 C890 0.950 . S
H883 C892 0.950 . S
H884 C894 0.950 . S
H885 C896 0.950 . S
H886 C898 0.950 . S
H887 C899 0.950 . S
C888 H880 0.950 . S
C888 C889 1.386 . S
C888 C890 1.391 . S
C889 C888 1.386 . S
C889 C893 1.393 . S
C890 H882 0.950 . S
C890 C888 1.391 . S
C890 C891 1.400 . S
C891 C890 1.400 . S
C891 C892 1.398 . S
C891 C897 1.491 . S
C892 H883 0.950 . S
C892 C891 1.398 . S
C892 C893 1.391 . S
C893 H881 0.950 . S
C893 C889 1.393 . S
C893 C892 1.391 . S
C894 H884 0.950 . S
C894 C895 1.386 . S
C894 C896 1.391 1_556 S
C895 C894 1.386 . S
C895 C899 1.393 . S
C896 H885 0.950 . S
C896 C894 1.391 1_554 S
C896 C897 1.400 . S
C897 C891 1.491 . S
C897 C896 1.400 . S
C897 C898 1.398 . S
C898 H886 0.950 . S
C898 C897 1.398 . S
C898 C899 1.391 1_554 S
C899 H887 0.950 . S
C899 C895 1.393 . S
C899 C898 1.391 1_556 S
C369 C7 1.923 . S
C375 C282 1.860 . S
C389 C47 1.923 . S
C395 C322 1.856 . S
C409 C87 1.935 . S
C415 C242 1.871 . S
C429 C167 1.925 . S
C435 C82 1.865 . S
C449 C207 1.932 . S
C455 C2 1.877 . S
C469 C42 1.869 . S
C475 C127 1.926 . S
C489 C287 1.923 . S
C495 C202 1.857 . S
C509 C327 1.934 . S
C515 C122 1.869 . S
C529 C162 1.859 . S
C535 C247 1.923 1_545 S
C549 C96 1.700 . S
C555 C11 1.705 1_554 S
C569 C51 1.709 1_554 S
C575 C16 1.694 . S
C589 C56 1.697 1_455 S
C595 C91 1.706 1_554 S
C609 C131 1.709 . S
C615 C216 1.695 . S
C629 C136 1.697 . S
C635 C171 1.707 . S
C649 C176 1.696 . S
C655 C211 1.707 . S
C669 C336 1.704 . S
C675 C251 1.702 . S
C689 C291 1.702 . S
C695 C256 1.704 . S
C709 C331 1.702 . S
C715 C296 1.704 . S
C729 C19 0.956 . S
C735 C10 0.956 . S
C749 C59 0.959 . S
C755 C50 0.959 . S
C769 C99 0.965 . S
C775 C90 0.965 . S
C789 C130 0.983 . S
C795 C139 0.983 . S
C809 C170 0.972 . S
C815 C179 0.972 . S
C829 C210 0.982 . S
C835 C219 0.982 . S
C849 C259 0.975 . S
C855 C250 0.975 . S
C869 C290 0.966 . S
C875 C299 0.966 . S
C889 C339 0.966 . S
C895 C330 0.966 . S
