# Generated by pormake.
# Topology wje, (4)-cn, num edge types: 1
# Building blocks:
#     Node 0, Type 0, BuildingBlock: QUQFOY_clean_sbu_1, # of connection points: 4
#     Node 1, Type 0, BuildingBlock: QUQFOY_clean_sbu_1, # of connection points: 4
#     Node 2, Type 0, BuildingBlock: QUQFOY_clean_sbu_1, # of connection points: 4
#     Node 3, Type 0, BuildingBlock: QUQFOY_clean_sbu_1, # of connection points: 4
#     Node 4, Type 0, BuildingBlock: QUQFOY_clean_sbu_1, # of connection points: 4
#     Node 5, Type 0, BuildingBlock: QUQFOY_clean_sbu_1, # of connection points: 4
#     Node 6, Type 0, BuildingBlock: QUQFOY_clean_sbu_1, # of connection points: 4
#     Node 7, Type 0, BuildingBlock: QUQFOY_clean_sbu_1, # of connection points: 4
#     Node 8, Type 0, BuildingBlock: QUQFOY_clean_sbu_1, # of connection points: 4
#     Node 9, Type 0, BuildingBlock: QUQFOY_clean_sbu_1, # of connection points: 4
#     Node 10, Type 0, BuildingBlock: QUQFOY_clean_sbu_1, # of connection points: 4
#     Node 11, Type 0, BuildingBlock: QUQFOY_clean_sbu_1, # of connection points: 4
#     Edge 12, Type (0, 0), BuildingBlock: EYOCIG_clean_linker_4, # of connection points: 2
#     Edge 13, Type (0, 0), BuildingBlock: EYOCIG_clean_linker_4, # of connection points: 2
#     Edge 14, Type (0, 0), BuildingBlock: EYOCIG_clean_linker_4, # of connection points: 2
#     Edge 15, Type (0, 0), BuildingBlock: EYOCIG_clean_linker_4, # of connection points: 2
#     Edge 16, Type (0, 0), BuildingBlock: EYOCIG_clean_linker_4, # of connection points: 2
#     Edge 17, Type (0, 0), BuildingBlock: EYOCIG_clean_linker_4, # of connection points: 2
#     Edge 18, Type (0, 0), BuildingBlock: EYOCIG_clean_linker_4, # of connection points: 2
#     Edge 19, Type (0, 0), BuildingBlock: EYOCIG_clean_linker_4, # of connection points: 2
#     Edge 20, Type (0, 0), BuildingBlock: EYOCIG_clean_linker_4, # of connection points: 2
#     Edge 21, Type (0, 0), BuildingBlock: EYOCIG_clean_linker_4, # of connection points: 2
#     Edge 22, Type (0, 0), BuildingBlock: EYOCIG_clean_linker_4, # of connection points: 2
#     Edge 23, Type (0, 0), BuildingBlock: EYOCIG_clean_linker_4, # of connection points: 2
#     Edge 24, Type (0, 0), BuildingBlock: EYOCIG_clean_linker_4, # of connection points: 2
#     Edge 25, Type (0, 0), BuildingBlock: EYOCIG_clean_linker_4, # of connection points: 2
#     Edge 26, Type (0, 0), BuildingBlock: EYOCIG_clean_linker_4, # of connection points: 2
#     Edge 27, Type (0, 0), BuildingBlock: EYOCIG_clean_linker_4, # of connection points: 2
#     Edge 28, Type (0, 0), BuildingBlock: EYOCIG_clean_linker_4, # of connection points: 2
#     Edge 29, Type (0, 0), BuildingBlock: EYOCIG_clean_linker_4, # of connection points: 2
#     Edge 30, Type (0, 0), BuildingBlock: EYOCIG_clean_linker_4, # of connection points: 2
#     Edge 31, Type (0, 0), BuildingBlock: EYOCIG_clean_linker_4, # of connection points: 2
#     Edge 32, Type (0, 0), BuildingBlock: EYOCIG_clean_linker_4, # of connection points: 2
#     Edge 33, Type (0, 0), BuildingBlock: EYOCIG_clean_linker_4, # of connection points: 2
#     Edge 34, Type (0, 0), BuildingBlock: EYOCIG_clean_linker_4, # of connection points: 2
#     Edge 35, Type (0, 0), BuildingBlock: EYOCIG_clean_linker_4, # of connection points: 2
# Relax obj value: 0.091
# Max RMSD: 0.082
# Mean RMSD: 0.082
data_MOF--net-wje--node1-QUQFOY_clean_sbu_1--edge1-EYOCIG_clean_linker_4
_symmetry_space_group_name_H-M    P1
_symmetry_Int_Tables_number       1
_symmetry_cell_setting            triclinic
loop_
_symmetry_equiv_pos_as_xyz
'x, y, z'
_cell_length_a     33.800343
_cell_length_b     33.820452
_cell_length_c     31.604847
_cell_angle_alpha  89.98789
_cell_angle_beta   90.010325
_cell_angle_gamma 120.04856
loop_
_atom_site_label
_atom_site_type_symbol
_atom_site_fract_x
_atom_site_fract_y
_atom_site_fract_z
_atom_type_partial_charge
O0 O 0.24083 0.99635 0.32171 0.0
Cd1 Cd 0.29767 0.05864 0.32281 0.0
Cd2 Cd 0.334 0.99942 0.33158 0.0
O3 O 0.27306 0.95619 0.30172 0.0
O4 O 0.2803 0.10176 0.29544 0.0
O5 O 0.32849 0.08302 0.2666 0.0
C6 C 0.30504 0.10357 0.26353 0.0
C7 C 0.40379 1.00021 0.3256 0.0
C8 C 0.23775 0.95906 0.31035 0.0
C9 C 0.31699 0.04105 0.40832 0.0
O10 O 0.32031 0.00892 0.39154 0.0
O11 O 0.31752 0.07289 0.3861 0.0
O12 O 0.36779 0.9648 0.33982 0.0
O13 O 0.39981 0.03409 0.31218 0.0
O14 O 0.24811 0.23924 0.65483 0.0
Cd15 Cd 0.24279 0.29613 0.65567 0.0
Cd16 Cd 0.33795 0.33208 0.6646 0.0
O17 O 0.32028 0.27165 0.63401 0.0
O18 O 0.18272 0.27893 0.62763 0.0
O19 O 0.2502 0.32693 0.59939 0.0
C20 C 0.20619 0.30357 0.59587 0.0
C21 C 0.40749 0.40124 0.65901 0.0
C22 C 0.28216 0.23627 0.64265 0.0
C23 C 0.27924 0.31627 0.74109 0.0
O24 O 0.31438 0.31863 0.72452 0.0
O25 O 0.24817 0.31694 0.71859 0.0
O26 O 0.40626 0.36505 0.67343 0.0
O27 O 0.36996 0.39781 0.64523 0.0
O28 O 0.01255 0.247 0.98712 0.0
Cd29 Cd 0.94992 0.24078 0.98897 0.0
Cd30 Cd 0.00892 0.33652 0.99821 0.0
O31 O 0.05171 0.31938 0.96686 0.0
O32 O 0.90691 0.18038 0.96144 0.0
O33 O 0.92489 0.24744 0.9333 0.0
C34 C 0.90458 0.20346 0.92992 0.0
C35 C 0.00878 0.40584 0.99302 0.0
C36 C 0.04943 0.28142 0.97514 0.0
C37 C 0.96736 0.27693 0.0746 0.0
O38 O 0.99957 0.31253 0.05799 0.0
O39 O 0.93552 0.24576 0.05226 0.0
O40 O 0.04402 0.40486 0.00707 0.0
O41 O 0.97461 0.36819 0.97954 0.0
O42 O 0.76889 0.00978 0.3223 0.0
Cd43 Cd 0.71183 0.94759 0.32263 0.0
Cd44 Cd 0.67614 0.00754 0.33158 0.0
O45 O 0.73731 0.05047 0.30202 0.0
O46 O 0.72928 0.90454 0.29531 0.0
O47 O 0.68163 0.92383 0.26612 0.0
C48 C 0.70491 0.9031 0.26321 0.0
C49 C 0.60703 0.00803 0.32557 0.0
C50 C 0.77236 0.04723 0.31087 0.0
C51 C 0.69116 0.96397 0.40801 0.0
O52 O 0.68891 0.9968 0.39147 0.0
O53 O 0.69058 0.93229 0.3855 0.0
O54 O 0.64318 0.04289 0.3403 0.0
O55 O 0.61053 0.97404 0.31166 0.0
O56 O 0.76123 0.76752 0.65499 0.0
Cd57 Cd 0.76732 0.71108 0.65564 0.0
Cd58 Cd 0.67194 0.6741 0.66519 0.0
O59 O 0.68888 0.73437 0.6346 0.0
O60 O 0.82746 0.72863 0.6275 0.0
O61 O 0.76006 0.68017 0.59944 0.0
C62 C 0.80405 0.70371 0.59584 0.0
C63 C 0.60296 0.60433 0.65957 0.0
C64 C 0.72675 0.77001 0.64336 0.0
C65 C 0.73144 0.69142 0.74133 0.0
O66 O 0.69583 0.68823 0.72497 0.0
O67 O 0.76248 0.69085 0.71869 0.0
O68 O 0.60357 0.64026 0.67388 0.0
O69 O 0.64079 0.60831 0.64602 0.0
O70 O 0.99801 0.76036 0.98905 0.0
Cd71 Cd 0.06026 0.76569 0.98964 0.0
Cd72 Cd 1.00076 0.6703 0.99761 0.0
O73 O 0.95791 0.6884 0.96775 0.0
O74 O 0.10353 0.82622 0.96241 0.0
O75 O 0.08413 0.75925 0.93322 0.0
C76 C 0.10496 0.80329 0.93033 0.0
C77 C 1.00103 0.60113 0.99189 0.0
C78 C 0.96075 0.72638 0.97712 0.0
C79 C 0.04291 0.72785 0.07466 0.0
O80 O 0.01023 0.69298 0.05765 0.0
O81 O 0.07496 0.75918 0.05259 0.0
O82 O 0.96565 0.60191 1.00585 0.0
O83 O 0.03511 0.63887 0.97843 0.0
O84 O 0.01187 0.76704 0.35322 0.0
Cd85 Cd 0.9495 0.71016 0.35213 0.0
Cd86 Cd 0.00872 0.67409 0.34404 0.0
O87 O 0.05175 0.73485 0.37421 0.0
O88 O 0.90637 0.72757 0.3793 0.0
O89 O 0.92524 0.67956 0.40837 0.0
C90 C 0.90465 0.70298 0.4113 0.0
C91 C 0.00796 0.6044 0.3499 0.0
C92 C 0.04897 0.77015 0.36541 0.0
C93 C 0.9665 0.68964 0.26704 0.0
O94 O 0.99918 0.6874 0.28397 0.0
O95 O 0.93461 0.68907 0.2892 0.0
O96 O 0.04341 0.64042 0.33577 0.0
O97 O 0.97406 0.60832 0.36338 0.0
O98 O 0.24776 0.01013 0.68583 0.0
Cd99 Cd 0.24256 0.94801 0.6857 0.0
Cd100 Cd 0.33762 0.00694 0.67647 0.0
O101 O 0.32014 0.0504 0.706 0.0
O102 O 0.18244 0.90517 0.71376 0.0
O103 O 0.24985 0.92495 0.74224 0.0
C104 C 0.20584 0.90418 0.74566 0.0
C105 C 0.40656 0.00625 0.68291 0.0
C106 C 0.28198 0.04748 0.69717 0.0
C107 C 0.27876 0.96406 0.60013 0.0
O108 O 0.3142 0.99669 0.61653 0.0
O109 O 0.24771 0.93245 0.62277 0.0
O110 O 0.40604 0.04147 0.66817 0.0
O111 O 0.36865 0.9725 0.69652 0.0
O112 O 0.24043 0.2466 0.0197 0.0
Cd113 Cd 0.2972 0.24105 0.01898 0.0
Cd114 Cd 0.33365 0.33654 0.01073 0.0
O115 O 0.27289 0.31862 0.04087 0.0
O116 O 0.28012 0.1809 0.04693 0.0
O117 O 0.32799 0.24828 0.07531 0.0
C118 C 0.30474 0.20428 0.07875 0.0
C119 C 0.40289 0.40603 0.01677 0.0
C120 C 0.23751 0.28074 0.03159 0.0
C121 C 0.31725 0.27846 0.9337 0.0
O122 O 0.3202 0.31367 0.95066 0.0
O123 O 0.3177 0.24703 0.95581 0.0
O124 O 0.36668 0.40493 1.00253 0.0
O125 O 0.39945 0.36838 0.03014 0.0
O126 O 0.99802 0.23931 0.35367 0.0
Cd127 Cd 0.06038 0.29603 0.35223 0.0
Cd128 Cd 1.00091 0.33227 0.34315 0.0
O129 O 0.95805 0.27173 0.37373 0.0
O130 O 0.10331 0.27846 0.37948 0.0
O131 O 0.08507 0.32709 0.40817 0.0
C132 C 0.1054 0.30344 0.41126 0.0
C133 C 1.00053 0.40147 0.34892 0.0
C134 C 0.96089 0.23636 0.3655 0.0
C135 C 0.04341 0.31536 0.26674 0.0
O136 O 0.01103 0.31848 0.2833 0.0
O137 O 0.07516 0.31597 0.28915 0.0
O138 O 0.96559 0.36529 0.33435 0.0
O139 O 0.03465 0.39804 0.36263 0.0
O140 O 0.76113 0.9953 0.68733 0.0
Cd141 Cd 0.7669 0.05771 0.68581 0.0
Cd142 Cd 0.67147 0.99884 0.67781 0.0
O143 O 0.68911 0.9562 0.70869 0.0
O144 O 0.82699 0.10098 0.71374 0.0
O145 O 0.75949 0.08177 0.74173 0.0
C146 C 0.8035 0.10251 0.74531 0.0
C147 C 0.60205 0.99871 0.68367 0.0
C148 C 0.72693 0.95846 0.69971 0.0
C149 C 0.72953 0.03994 0.60058 0.0
O150 O 0.6943 0.00777 0.61769 0.0
O151 O 0.76106 0.07192 0.62255 0.0
O152 O 0.60303 0.96349 0.66965 0.0
O153 O 0.63978 0.033 0.69687 0.0
O154 O 0.76921 0.75977 0.02044 0.0
Cd155 Cd 0.71265 0.76561 0.01901 0.0
Cd156 Cd 0.67582 0.6705 0.01025 0.0
O157 O 0.73604 0.68756 0.04115 0.0
O158 O 0.73009 0.82577 0.04692 0.0
O159 O 0.68146 0.75847 0.07504 0.0
C160 C 0.70511 0.80244 0.07858 0.0
C161 C 0.60591 0.60167 0.0162 0.0
C162 C 0.77172 0.72549 0.03265 0.0
C163 C 0.69347 0.72933 0.93352 0.0
O164 O 0.69009 0.69382 0.95025 0.0
O165 O 0.69291 0.76056 0.9558 0.0
O166 O 0.64184 0.60211 1.00204 0.0
O167 O 0.60997 0.63962 0.02942 0.0
C168 C 0.30406 0.14356 0.19109 0.0
C169 C 0.30419 0.12547 0.22429 0.0
C170 C 0.304 0.16404 0.15159 0.0
C171 C 0.30407 0.18199 0.11824 0.0
C172 C 0.16602 0.30264 0.52302 0.0
C173 C 0.18398 0.30281 0.55637 0.0
C174 C 0.1455 0.30258 0.48356 0.0
C175 C 0.12735 0.30264 0.45042 0.0
C176 C 0.84359 0.14233 0.81807 0.0
C177 C 0.82567 0.12428 0.78478 0.0
C178 C 0.86414 0.16284 0.85755 0.0
C179 C 0.88246 0.18094 0.8907 0.0
C180 C 0.70604 0.84272 0.15135 0.0
C181 C 0.70588 0.82473 0.11804 0.0
C182 C 0.70605 0.86322 0.19082 0.0
C183 C 0.70587 0.88125 0.22401 0.0
C184 C 0.86468 0.70416 0.48362 0.0
C185 C 0.88276 0.70394 0.45047 0.0
C186 C 0.84422 0.70432 0.52307 0.0
C187 C 0.82628 0.70431 0.55638 0.0
C188 C 0.1655 0.86491 0.81849 0.0
C189 C 0.18352 0.8827 0.78515 0.0
C190 C 0.14495 0.84438 0.85796 0.0
C191 C 0.12687 0.82613 0.89114 0.0
C192 C 0.48422 0.00385 0.3268 0.0
C193 C 0.44764 1.00239 0.32617 0.0
C194 C 0.52707 0.00538 0.3268 0.0
C195 C 0.56348 0.00649 0.3262 0.0
C196 C 0.52609 0.524 0.66056 0.0
C197 C 0.56123 0.56055 0.66004 0.0
C198 C 0.4848 0.48115 0.66044 0.0
C199 C 0.44951 0.44475 0.65976 0.0
C200 C 1.00435 0.52425 0.99381 0.0
C201 C 1.00298 0.55938 0.99288 0.0
C202 C 0.00595 0.483 0.99412 0.0
C203 C 0.00719 0.44779 0.9936 0.0
C204 C 1.00434 0.52404 0.34832 0.0
C205 C 0.00577 0.56057 0.34913 0.0
C206 C 1.00291 0.48126 0.34809 0.0
C207 C 1.00192 0.44493 0.34851 0.0
C208 C 0.52473 1.00129 0.68253 0.0
C209 C 0.56005 1.00023 0.6831 0.0
C210 C 0.4834 1.00276 0.68239 0.0
C211 C 0.44825 0.00414 0.68272 0.0
C212 C 0.48279 0.4834 0.01562 0.0
C213 C 0.44643 0.44804 0.01621 0.0
C214 C 0.52556 0.5248 0.01549 0.0
C215 C 0.56208 0.55998 0.01591 0.0
C216 C 0.12197 0.84767 0.34662 0.0
C217 C 0.08957 0.81162 0.35577 0.0
C218 C 0.16068 0.88641 0.331 0.0
C219 C 0.1965 0.91869 0.32106 0.0
C220 C 0.27773 0.15882 0.66107 0.0
C221 C 0.28131 0.19484 0.6521 0.0
C222 C 0.27769 0.12009 0.67653 0.0
C223 C 0.28113 0.0878 0.68645 0.0
C224 C 0.16118 0.27748 0.01031 0.0
C225 C 0.19668 0.28052 0.02058 0.0
C226 C 0.12275 0.27776 0.99433 0.0
C227 C 0.09029 0.28119 0.98494 0.0
C228 C 0.88809 0.15867 0.34693 0.0
C229 C 0.92037 0.19482 0.35598 0.0
C230 C 0.84952 0.11976 0.33144 0.0
C231 C 0.81373 0.08741 0.3216 0.0
C232 C 0.72995 0.8464 0.66406 0.0
C233 C 0.7268 0.81081 0.65402 0.0
C234 C 0.73006 0.88502 0.68001 0.0
C235 C 0.72697 0.91759 0.68961 0.0
C236 C 0.84905 0.72965 0.01408 0.0
C237 C 0.81299 0.72593 0.02323 0.0
C238 C 0.8879 0.73009 0.99829 0.0
C239 C 0.9203 0.72693 0.9881 0.0
C240 C 0.29136 0.01556 0.48565 0.0
C241 C 0.30327 0.03411 0.45173 0.0
C242 C 0.27786 0.98837 0.52256 0.0
C243 C 0.27152 0.9702 0.55664 0.0
C244 C 0.29266 0.27899 0.85608 0.0
C245 C 0.30416 0.27211 0.89011 0.0
C246 C 0.27918 0.29248 0.81903 0.0
C247 C 0.2725 0.30374 0.7848 0.0
C248 C 0.01889 0.28985 0.18922 0.0
C249 C 0.03694 0.30174 0.22334 0.0
C250 C 0.99207 0.27629 0.15211 0.0
C251 C 0.97394 0.26992 0.11802 0.0
C252 C 0.71503 0.98776 0.48591 0.0
C253 C 0.70371 0.96978 0.45171 0.0
C254 C 0.72867 0.01475 0.52294 0.0
C255 C 0.73569 0.03313 0.55698 0.0
C256 C 0.71908 0.73001 0.85606 0.0
C257 C 0.70719 0.73631 0.89012 0.0
C258 C 0.73252 0.71666 0.81893 0.0
C259 C 0.73875 0.70491 0.78478 0.0
C260 C 0.99088 0.71314 0.18922 0.0
C261 C 0.97263 0.70198 0.22331 0.0
C262 C 0.01815 0.72679 0.15237 0.0
C263 C 0.03658 0.73397 0.11836 0.0
loop_
_geom_bond_atom_site_label_1
_geom_bond_atom_site_label_2
_geom_bond_distance
_geom_bond_site_symmetry_2
_ccdc_geom_bond_type
O0 Cd1 2.223 1_565 S
O0 C8 1.315 . S
Cd1 O0 2.223 1_545 S
Cd1 O4 2.297 . S
Cd1 O5 2.439 . S
Cd1 O11 2.240 . S
Cd2 O3 2.240 . S
Cd2 O10 2.223 . S
Cd2 O12 2.297 . S
Cd2 O13 2.439 1_565 S
O3 Cd2 2.240 . S
O3 C8 1.279 . S
O4 Cd1 2.297 . S
O4 C6 1.247 . S
O5 Cd1 2.439 . S
O5 C6 1.208 . S
C6 O4 1.247 . S
C6 O5 1.208 . S
C7 O12 1.247 1_545 S
C7 O13 1.208 . S
C8 O0 1.315 . S
C8 O3 1.279 . S
C9 O10 1.315 1_545 S
C9 O11 1.279 . S
O10 Cd2 2.223 . S
O10 C9 1.315 1_565 S
O11 Cd1 2.240 . S
O11 C9 1.279 . S
O12 Cd2 2.297 . S
O12 C7 1.247 1_565 S
O13 Cd2 2.439 1_545 S
O13 C7 1.208 . S
O14 Cd15 2.223 . S
O14 C22 1.315 . S
Cd15 O14 2.223 . S
Cd15 O18 2.297 . S
Cd15 O19 2.439 . S
Cd15 O25 2.240 . S
Cd16 O17 2.240 . S
Cd16 O24 2.223 . S
Cd16 O26 2.297 . S
Cd16 O27 2.439 . S
O17 Cd16 2.240 . S
O17 C22 1.279 . S
O18 Cd15 2.297 . S
O18 C20 1.247 . S
O19 Cd15 2.439 . S
O19 C20 1.208 . S
C20 O18 1.247 . S
C20 O19 1.208 . S
C21 O26 1.247 . S
C21 O27 1.208 . S
C22 O14 1.315 . S
C22 O17 1.279 . S
C23 O24 1.315 . S
C23 O25 1.279 . S
O24 Cd16 2.223 . S
O24 C23 1.315 . S
O25 Cd15 2.240 . S
O25 C23 1.279 . S
O26 Cd16 2.297 . S
O26 C21 1.247 . S
O27 Cd16 2.439 . S
O27 C21 1.208 . S
O28 Cd29 2.221 1_454 S
O28 C36 1.315 1_554 S
Cd29 O28 2.221 1_656 S
Cd29 O32 2.314 . S
Cd29 O33 2.457 . S
Cd29 O39 2.227 1_556 S
Cd30 O31 2.239 1_554 S
Cd30 O38 2.227 . S
Cd30 O40 2.298 . S
Cd30 O41 2.438 1_454 S
O31 Cd30 2.239 1_556 S
O31 C36 1.279 . S
O32 Cd29 2.314 . S
O32 C34 1.247 . S
O33 Cd29 2.457 . S
O33 C34 1.208 . S
C34 O32 1.247 . S
C34 O33 1.208 . S
C35 O40 1.247 1_656 S
C35 O41 1.208 . S
C36 O28 1.315 1_556 S
C36 O31 1.279 . S
C37 O38 1.315 1_655 S
C37 O39 1.279 . S
O38 Cd30 2.227 . S
O38 C37 1.315 1_455 S
O39 Cd29 2.227 1_554 S
O39 C37 1.279 . S
O40 Cd30 2.298 . S
O40 C35 1.247 1_454 S
O41 Cd30 2.438 1_656 S
O41 C35 1.208 . S
O42 Cd43 2.223 1_545 S
O42 C50 1.315 . S
Cd43 O42 2.223 1_565 S
Cd43 O46 2.297 . S
Cd43 O47 2.439 . S
Cd43 O53 2.240 . S
Cd44 O45 2.240 . S
Cd44 O52 2.223 . S
Cd44 O54 2.297 . S
Cd44 O55 2.439 1_545 S
O45 Cd44 2.240 . S
O45 C50 1.279 . S
O46 Cd43 2.297 . S
O46 C48 1.247 . S
O47 Cd43 2.439 . S
O47 C48 1.208 . S
C48 O46 1.247 . S
C48 O47 1.208 . S
C49 O54 1.247 1_565 S
C49 O55 1.208 . S
C50 O42 1.315 . S
C50 O45 1.279 . S
C51 O52 1.315 1_565 S
C51 O53 1.279 . S
O52 Cd44 2.223 . S
O52 C51 1.315 1_545 S
O53 Cd43 2.240 . S
O53 C51 1.279 . S
O54 Cd44 2.297 . S
O54 C49 1.247 1_545 S
O55 Cd44 2.439 1_565 S
O55 C49 1.208 . S
O56 Cd57 2.223 . S
O56 C64 1.315 . S
Cd57 O56 2.223 . S
Cd57 O60 2.297 . S
Cd57 O61 2.439 . S
Cd57 O67 2.240 . S
Cd58 O59 2.240 . S
Cd58 O66 2.223 . S
Cd58 O68 2.297 . S
Cd58 O69 2.439 . S
O59 Cd58 2.240 . S
O59 C64 1.279 . S
O60 Cd57 2.297 . S
O60 C62 1.247 . S
O61 Cd57 2.439 . S
O61 C62 1.208 . S
C62 O60 1.247 . S
C62 O61 1.208 . S
C63 O68 1.247 . S
C63 O69 1.208 . S
C64 O56 1.315 . S
C64 O59 1.279 . S
C65 O66 1.315 . S
C65 O67 1.279 . S
O66 Cd58 2.223 . S
O66 C65 1.315 . S
O67 Cd57 2.240 . S
O67 C65 1.279 . S
O68 Cd58 2.297 . S
O68 C63 1.247 . S
O69 Cd58 2.439 . S
O69 C63 1.208 . S
O70 Cd71 2.221 1_654 S
O70 C78 1.315 1_554 S
Cd71 O70 2.221 1_456 S
Cd71 O74 2.314 . S
Cd71 O75 2.457 . S
Cd71 O81 2.227 1_556 S
Cd72 O73 2.239 1_554 S
Cd72 O80 2.227 . S
Cd72 O82 2.298 . S
Cd72 O83 2.438 1_654 S
O73 Cd72 2.239 1_556 S
O73 C78 1.279 . S
O74 Cd71 2.314 . S
O74 C76 1.247 . S
O75 Cd71 2.457 . S
O75 C76 1.208 . S
C76 O74 1.247 . S
C76 O75 1.208 . S
C77 O82 1.247 1_456 S
C77 O83 1.208 . S
C78 O70 1.315 1_556 S
C78 O73 1.279 . S
C79 O80 1.315 1_455 S
C79 O81 1.279 . S
O80 Cd72 2.227 . S
O80 C79 1.315 1_655 S
O81 Cd71 2.227 1_554 S
O81 C79 1.279 . S
O82 Cd72 2.298 . S
O82 C77 1.247 1_654 S
O83 Cd72 2.438 1_456 S
O83 C77 1.208 . S
O84 Cd85 2.223 1_455 S
O84 C92 1.315 . S
Cd85 O84 2.223 1_655 S
Cd85 O88 2.297 . S
Cd85 O89 2.439 . S
Cd85 O95 2.240 . S
Cd86 O87 2.240 . S
Cd86 O94 2.223 . S
Cd86 O96 2.297 . S
Cd86 O97 2.439 1_455 S
O87 Cd86 2.240 . S
O87 C92 1.279 . S
O88 Cd85 2.297 . S
O88 C90 1.247 . S
O89 Cd85 2.439 . S
O89 C90 1.208 . S
C90 O88 1.247 . S
C90 O89 1.208 . S
C91 O96 1.247 1_655 S
C91 O97 1.208 . S
C92 O84 1.315 . S
C92 O87 1.279 . S
C93 O94 1.315 1_655 S
C93 O95 1.279 . S
O94 Cd86 2.223 . S
O94 C93 1.315 1_455 S
O95 Cd85 2.240 . S
O95 C93 1.279 . S
O96 Cd86 2.297 . S
O96 C91 1.247 1_455 S
O97 Cd86 2.439 1_655 S
O97 C91 1.208 . S
O98 Cd99 2.223 1_545 S
O98 C106 1.315 . S
Cd99 O98 2.223 1_565 S
Cd99 O102 2.297 . S
Cd99 O103 2.439 . S
Cd99 O109 2.240 . S
Cd100 O101 2.240 . S
Cd100 O108 2.223 . S
Cd100 O110 2.297 . S
Cd100 O111 2.439 1_545 S
O101 Cd100 2.240 . S
O101 C106 1.279 . S
O102 Cd99 2.297 . S
O102 C104 1.247 . S
O103 Cd99 2.439 . S
O103 C104 1.208 . S
C104 O102 1.247 . S
C104 O103 1.208 . S
C105 O110 1.247 1_565 S
C105 O111 1.208 . S
C106 O98 1.315 . S
C106 O101 1.279 . S
C107 O108 1.315 1_565 S
C107 O109 1.279 . S
O108 Cd100 2.223 . S
O108 C107 1.315 1_545 S
O109 Cd99 2.240 . S
O109 C107 1.279 . S
O110 Cd100 2.297 . S
O110 C105 1.247 1_545 S
O111 Cd100 2.439 1_565 S
O111 C105 1.208 . S
O112 Cd113 2.223 . S
O112 C120 1.315 1_556 S
Cd113 O112 2.223 . S
Cd113 O116 2.297 1_556 S
Cd113 O117 2.439 1_556 S
Cd113 O123 2.240 . S
Cd114 O115 2.240 1_556 S
Cd114 O122 2.223 . S
Cd114 O124 2.297 . S
Cd114 O125 2.439 1_556 S
O115 Cd114 2.240 1_554 S
O115 C120 1.279 . S
O116 Cd113 2.297 1_554 S
O116 C118 1.247 . S
O117 Cd113 2.439 1_554 S
O117 C118 1.208 . S
C118 O116 1.247 . S
C118 O117 1.208 . S
C119 O124 1.247 . S
C119 O125 1.208 1_556 S
C120 O112 1.315 1_554 S
C120 O115 1.279 . S
C121 O122 1.315 . S
C121 O123 1.279 . S
O122 Cd114 2.223 . S
O122 C121 1.315 . S
O123 Cd113 2.240 . S
O123 C121 1.279 . S
O124 Cd114 2.297 . S
O124 C119 1.247 . S
O125 Cd114 2.439 1_554 S
O125 C119 1.208 1_554 S
O126 Cd127 2.223 1_655 S
O126 C134 1.315 . S
Cd127 O126 2.223 1_455 S
Cd127 O130 2.297 . S
Cd127 O131 2.439 . S
Cd127 O137 2.240 . S
Cd128 O129 2.240 . S
Cd128 O136 2.223 . S
Cd128 O138 2.297 . S
Cd128 O139 2.439 1_655 S
O129 Cd128 2.240 . S
O129 C134 1.279 . S
O130 Cd127 2.297 . S
O130 C132 1.247 . S
O131 Cd127 2.439 . S
O131 C132 1.208 . S
C132 O130 1.247 . S
C132 O131 1.208 . S
C133 O138 1.247 1_455 S
C133 O139 1.208 . S
C134 O126 1.315 . S
C134 O129 1.279 . S
C135 O136 1.315 1_455 S
C135 O137 1.279 . S
O136 Cd128 2.223 . S
O136 C135 1.315 1_655 S
O137 Cd127 2.240 . S
O137 C135 1.279 . S
O138 Cd128 2.297 . S
O138 C133 1.247 1_655 S
O139 Cd128 2.439 1_455 S
O139 C133 1.208 . S
O140 Cd141 2.223 1_565 S
O140 C148 1.315 . S
Cd141 O140 2.223 1_545 S
Cd141 O144 2.297 . S
Cd141 O145 2.439 . S
Cd141 O151 2.240 . S
Cd142 O143 2.240 . S
Cd142 O150 2.223 . S
Cd142 O152 2.297 . S
Cd142 O153 2.439 1_565 S
O143 Cd142 2.240 . S
O143 C148 1.279 . S
O144 Cd141 2.297 . S
O144 C146 1.247 . S
O145 Cd141 2.439 . S
O145 C146 1.208 . S
C146 O144 1.247 . S
C146 O145 1.208 . S
C147 O152 1.247 1_545 S
C147 O153 1.208 . S
C148 O140 1.315 . S
C148 O143 1.279 . S
C149 O150 1.315 1_545 S
C149 O151 1.279 . S
O150 Cd142 2.223 . S
O150 C149 1.315 1_565 S
O151 Cd141 2.240 . S
O151 C149 1.279 . S
O152 Cd142 2.297 . S
O152 C147 1.247 1_565 S
O153 Cd142 2.439 1_545 S
O153 C147 1.208 . S
O154 Cd155 2.223 . S
O154 C162 1.315 1_556 S
Cd155 O154 2.223 . S
Cd155 O158 2.297 1_556 S
Cd155 O159 2.439 1_556 S
Cd155 O165 2.240 . S
Cd156 O157 2.240 1_556 S
Cd156 O164 2.223 . S
Cd156 O166 2.297 . S
Cd156 O167 2.439 1_556 S
O157 Cd156 2.240 1_554 S
O157 C162 1.279 . S
O158 Cd155 2.297 1_554 S
O158 C160 1.247 . S
O159 Cd155 2.439 1_554 S
O159 C160 1.208 . S
C160 O158 1.247 . S
C160 O159 1.208 . S
C161 O166 1.247 . S
C161 O167 1.208 1_556 S
C162 O154 1.315 1_554 S
C162 O157 1.279 . S
C163 O164 1.315 . S
C163 O165 1.279 . S
O164 Cd156 2.223 . S
O164 C163 1.315 . S
O165 Cd155 2.240 . S
O165 C163 1.279 . S
O166 Cd156 2.297 . S
O166 C161 1.247 . S
O167 Cd156 2.439 1_554 S
O167 C161 1.208 1_554 S
C168 C169 1.170 . S
C168 C170 1.380 . S
C169 C168 1.170 . S
C170 C168 1.380 . S
C170 C171 1.170 . S
C171 C170 1.170 . S
C172 C173 1.170 . S
C172 C174 1.380 . S
C173 C172 1.170 . S
C174 C172 1.380 . S
C174 C175 1.170 . S
C175 C174 1.170 . S
C176 C177 1.170 . S
C176 C178 1.380 . S
C177 C176 1.170 . S
C178 C176 1.380 . S
C178 C179 1.170 . S
C179 C178 1.170 . S
C180 C181 1.170 . S
C180 C182 1.380 . S
C181 C180 1.170 . S
C182 C180 1.380 . S
C182 C183 1.170 . S
C183 C182 1.170 . S
C184 C185 1.170 . S
C184 C186 1.380 . S
C185 C184 1.170 . S
C186 C184 1.380 . S
C186 C187 1.170 . S
C187 C186 1.170 . S
C188 C189 1.170 . S
C188 C190 1.380 . S
C189 C188 1.170 . S
C190 C188 1.380 . S
C190 C191 1.170 . S
C191 C190 1.170 . S
C192 C193 1.170 . S
C192 C194 1.380 1_545 S
C193 C192 1.170 . S
C194 C192 1.380 1_565 S
C194 C195 1.170 . S
C195 C194 1.170 . S
C196 C197 1.170 . S
C196 C198 1.380 . S
C197 C196 1.170 . S
C198 C196 1.380 . S
C198 C199 1.170 . S
C199 C198 1.170 . S
C200 C201 1.170 . S
C200 C202 1.380 1_455 S
C201 C200 1.170 . S
C202 C200 1.380 1_655 S
C202 C203 1.170 . S
C203 C202 1.170 . S
C204 C205 1.170 . S
C204 C206 1.380 1_655 S
C205 C204 1.170 . S
C206 C204 1.380 1_455 S
C206 C207 1.170 . S
C207 C206 1.170 . S
C208 C209 1.170 . S
C208 C210 1.380 1_545 S
C209 C208 1.170 . S
C210 C208 1.380 1_565 S
C210 C211 1.170 . S
C211 C210 1.170 . S
C212 C213 1.170 . S
C212 C214 1.380 . S
C213 C212 1.170 . S
C214 C212 1.380 . S
C214 C215 1.170 1_554 S
C215 C214 1.170 1_556 S
C216 C217 1.170 . S
C216 C218 1.380 . S
C217 C216 1.170 . S
C218 C216 1.380 . S
C218 C219 1.170 . S
C219 C218 1.170 . S
C220 C221 1.170 . S
C220 C222 1.380 . S
C221 C220 1.170 . S
C222 C220 1.380 . S
C222 C223 1.170 . S
C223 C222 1.170 . S
C224 C225 1.173 . S
C224 C226 1.380 . S
C225 C224 1.173 . S
C226 C224 1.380 . S
C226 C227 1.170 . S
C227 C226 1.170 . S
C228 C229 1.170 . S
C228 C230 1.380 . S
C229 C228 1.170 . S
C230 C228 1.380 . S
C230 C231 1.170 . S
C231 C230 1.170 . S
C232 C233 1.170 . S
C232 C234 1.380 . S
C233 C232 1.170 . S
C234 C232 1.380 . S
C234 C235 1.170 . S
C235 C234 1.170 . S
C236 C237 1.170 . S
C236 C238 1.378 1_554 S
C237 C236 1.170 . S
C238 C236 1.378 1_556 S
C238 C239 1.174 . S
C239 C238 1.174 . S
C240 C241 1.170 . S
C240 C242 1.380 1_545 S
C241 C240 1.170 . S
C242 C240 1.380 1_565 S
C242 C243 1.170 . S
C243 C242 1.170 . S
C244 C245 1.170 . S
C244 C246 1.380 . S
C245 C244 1.170 . S
C246 C244 1.380 . S
C246 C247 1.170 . S
C247 C246 1.170 . S
C248 C249 1.170 . S
C248 C250 1.380 1_455 S
C249 C248 1.170 . S
C250 C248 1.380 1_655 S
C250 C251 1.170 . S
C251 C250 1.170 . S
C252 C253 1.170 . S
C252 C254 1.376 1_565 S
C253 C252 1.170 . S
C254 C252 1.376 1_545 S
C254 C255 1.176 . S
C255 C254 1.176 . S
C256 C257 1.170 . S
C256 C258 1.380 . S
C257 C256 1.170 . S
C258 C256 1.380 . S
C258 C259 1.170 . S
C259 C258 1.170 . S
C260 C261 1.170 . S
C260 C262 1.380 1_655 S
C261 C260 1.170 . S
C262 C260 1.380 1_455 S
C262 C263 1.170 . S
C263 C262 1.170 . S
C169 C6 1.611 . S
C171 C118 1.624 . S
C173 C20 1.627 . S
C175 C132 1.612 . S
C177 C146 1.631 . S
C179 C34 1.620 . S
C181 C160 1.624 . S
C183 C48 1.611 . S
C185 C90 1.612 . S
C187 C62 1.626 . S
C189 C104 1.624 . S
C191 C76 1.611 . S
C193 C7 1.672 . S
C195 C49 1.642 . S
C197 C63 1.672 . S
C199 C21 1.642 . S
C201 C77 1.658 . S
C203 C35 1.649 . S
C205 C91 1.677 . S
C207 C133 1.641 . S
C209 C147 1.647 . S
C211 C105 1.685 . S
C213 C119 1.645 1_554 S
C215 C161 1.685 . S
C217 C92 1.346 . S
C219 C8 1.338 . S
C221 C22 1.347 . S
C223 C106 1.338 . S
C225 C120 1.340 1_556 S
C227 C36 1.350 . S
C229 C134 1.346 . S
C231 C50 1.338 . S
C233 C64 1.345 . S
C235 C148 1.350 . S
C237 C162 1.348 . S
C239 C78 1.339 . S
C241 C9 1.147 . S
C243 C107 1.179 . S
C245 C121 1.133 . S
C247 C23 1.176 . S
C249 C135 1.171 . S
C251 C37 1.162 . S
C253 C51 1.172 . S
C255 C149 1.132 . S
C257 C163 1.159 . S
C259 C65 1.173 . S
C261 C93 1.157 . S
C263 C79 1.137 . S
