# Generated by pormake.
# Topology afw, (4)-cn, num edge types: 1
# Building blocks:
#     Node 0, Type 0, BuildingBlock: NAHDIM_clean_sbu_0, # of connection points: 4
#     Node 1, Type 0, BuildingBlock: NAHDIM_clean_sbu_0, # of connection points: 4
#     Node 2, Type 0, BuildingBlock: NAHDIM_clean_sbu_0, # of connection points: 4
#     Node 3, Type 0, BuildingBlock: NAHDIM_clean_sbu_0, # of connection points: 4
#     Node 4, Type 0, BuildingBlock: NAHDIM_clean_sbu_0, # of connection points: 4
#     Node 5, Type 0, BuildingBlock: NAHDIM_clean_sbu_0, # of connection points: 4
#     Node 6, Type 0, BuildingBlock: NAHDIM_clean_sbu_0, # of connection points: 4
#     Node 7, Type 0, BuildingBlock: NAHDIM_clean_sbu_0, # of connection points: 4
#     Node 8, Type 0, BuildingBlock: NAHDIM_clean_sbu_0, # of connection points: 4
#     Edge 9, Type (0, 0), BuildingBlock: FUNLAD_clean_linker_0, # of connection points: 2
#     Edge 10, Type (0, 0), BuildingBlock: FUNLAD_clean_linker_0, # of connection points: 2
#     Edge 11, Type (0, 0), BuildingBlock: FUNLAD_clean_linker_0, # of connection points: 2
#     Edge 12, Type (0, 0), BuildingBlock: FUNLAD_clean_linker_0, # of connection points: 2
#     Edge 13, Type (0, 0), BuildingBlock: FUNLAD_clean_linker_0, # of connection points: 2
#     Edge 14, Type (0, 0), BuildingBlock: FUNLAD_clean_linker_0, # of connection points: 2
#     Edge 15, Type (0, 0), BuildingBlock: FUNLAD_clean_linker_0, # of connection points: 2
#     Edge 16, Type (0, 0), BuildingBlock: FUNLAD_clean_linker_0, # of connection points: 2
#     Edge 17, Type (0, 0), BuildingBlock: FUNLAD_clean_linker_0, # of connection points: 2
#     Edge 18, Type (0, 0), BuildingBlock: FUNLAD_clean_linker_0, # of connection points: 2
#     Edge 19, Type (0, 0), BuildingBlock: FUNLAD_clean_linker_0, # of connection points: 2
#     Edge 20, Type (0, 0), BuildingBlock: FUNLAD_clean_linker_0, # of connection points: 2
#     Edge 21, Type (0, 0), BuildingBlock: FUNLAD_clean_linker_0, # of connection points: 2
#     Edge 22, Type (0, 0), BuildingBlock: FUNLAD_clean_linker_0, # of connection points: 2
#     Edge 23, Type (0, 0), BuildingBlock: FUNLAD_clean_linker_0, # of connection points: 2
#     Edge 24, Type (0, 0), BuildingBlock: FUNLAD_clean_linker_0, # of connection points: 2
#     Edge 25, Type (0, 0), BuildingBlock: FUNLAD_clean_linker_0, # of connection points: 2
#     Edge 26, Type (0, 0), BuildingBlock: FUNLAD_clean_linker_0, # of connection points: 2
# Relax obj value: 0.264
# Max RMSD: 0.262
# Mean RMSD: 0.245
data_MOF--net-afw--node1-NAHDIM_clean_sbu_0--edge1-FUNLAD_clean_linker_0
_symmetry_space_group_name_H-M    P1
_symmetry_Int_Tables_number       1
_symmetry_cell_setting            triclinic
loop_
_symmetry_equiv_pos_as_xyz
'x, y, z'
_cell_length_a     45.784877
_cell_length_b     47.463718
_cell_length_c     40.698969
_cell_angle_alpha  92.082226
_cell_angle_beta   90.952479
_cell_angle_gamma 119.33255
loop_
_atom_site_label
_atom_site_type_symbol
_atom_site_fract_x
_atom_site_fract_y
_atom_site_fract_z
_atom_type_partial_charge
C0 C 0.08511 0.30421 0.9845 0.0
O1 O 0.10475 0.31764 0.01091 0.0
O2 O 0.10131 0.23782 0.02065 0.0
Zn3 Zn 0.06225 0.2462 0.02023 0.0
O4 O 0.05958 0.26602 0.06357 0.0
C5 C 0.01117 0.18463 0.98939 0.0
O6 O 0.0297 0.19396 0.96346 0.0
O7 O 0.06469 0.27398 0.98318 0.0
C8 C 0.0562 0.24965 0.08866 0.0
O9 O 0.05752 0.22267 0.08509 0.0
C10 C 0.11492 0.23638 -0.00586 0.0
O11 O 0.1045 0.24236 0.96634 0.0
O12 O 0.02008 0.2032 0.01519 0.0
C13 C 0.75505 0.79578 0.04872 0.0
O14 O 0.73051 0.79541 0.03117 0.0
O15 O 0.83982 0.83612 0.98201 0.0
Zn16 Zn 0.79745 0.8346 -0.00296 0.0
O17 O 0.76046 0.8115 0.9627 0.0
C18 C 0.82822 0.89825 0.02683 0.0
O19 O 0.83973 0.88494 0.04737 0.0
O20 O 0.78489 0.8116 0.03923 0.0
C21 C 0.74918 0.78167 0.9551 0.0
O22 O 0.76222 0.76602 0.96991 0.0
C23 C 0.85002 0.81725 -0.00798 0.0
O24 O 0.83141 0.79436 0.01168 0.0
O25 O 0.80785 0.88073 0.00355 0.0
C26 C 0.24512 0.95455 0.95825 0.0
O27 O 0.2308 0.93579 0.9827 0.0
O28 O 0.16508 0.94789 0.98362 0.0
Zn29 Zn 0.21183 0.98602 0.98579 0.0
O30 O 0.23444 0.99367 0.03041 0.0
C31 C 0.22953 0.05395 0.9841 0.0
O32 O 0.25614 0.05922 0.00181 0.0
O33 O 0.24011 0.97822 0.95384 0.0
C34 C 0.22675 0.00505 0.05545 0.0
O35 O 0.20153 0.01082 0.05301 0.0
C36 C 0.15101 0.92931 0.00691 0.0
O37 O 0.16785 0.93384 0.03485 0.0
O38 O 0.20833 0.02517 0.97427 0.0
C39 C 0.72866 0.61334 0.26955 0.0
O40 O 0.74762 0.62152 0.29662 0.0
O41 O 0.73429 0.53544 0.2901 0.0
Zn42 Zn 0.70159 0.55165 0.29696 0.0
O43 O 0.70869 0.57197 0.3425 0.0
C44 C 0.64645 0.48864 0.27598 0.0
O45 O 0.66778 0.48888 0.25464 0.0
O46 O 0.7066 0.58388 0.26377 0.0
C47 C 0.70382 0.5543 0.36678 0.0
O48 O 0.69558 0.52381 0.3612 0.0
C49 C 0.76292 0.5485 0.30486 0.0
O50 O 0.77247 0.57462 0.32407 0.0
O51 O 0.65505 0.51342 0.29509 0.0
C52 C 0.39534 0.11917 0.41327 0.0
O53 O 0.37427 0.10696 0.38768 0.0
O54 O 0.48623 0.16472 0.36178 0.0
Zn55 Zn 0.44072 0.1609 0.36562 0.0
O56 O 0.40869 0.13141 0.3297 0.0
C57 C 0.4668 0.22864 0.38054 0.0
O58 O 0.48068 0.22247 0.40579 0.0
O59 O 0.4242 0.14335 0.40981 0.0
C60 C 0.41578 0.13595 0.29966 0.0
O61 O 0.44513 0.15975 0.29216 0.0
C62 C 0.49266 0.14336 0.34975 0.0
O63 O 0.46805 0.1157 0.33751 0.0
O64 O 0.44696 0.20542 0.36087 0.0
C65 C 0.89419 0.28991 0.40188 0.0
O66 O 0.89754 0.26885 0.38276 0.0
O67 O 0.84442 0.32413 0.3323 0.0
Zn68 Zn 0.85225 0.28839 0.34737 0.0
O69 O 0.88151 0.28194 0.31519 0.0
C70 C 0.78924 0.23697 0.32259 0.0
O71 O 0.8024 0.24919 0.29459 0.0
O72 O 0.87536 0.30087 0.39215 0.0
C73 C 0.91051 0.30581 0.31141 0.0
O74 O 0.91987 0.33301 0.32867 0.0
C75 C 0.86016 0.35308 0.34433 0.0
O76 O 0.88337 0.36087 0.36769 0.0
O77 O 0.80689 0.24887 0.3491 0.0
C78 C 0.40211 0.94792 0.62683 0.0
O79 O 0.42513 0.95717 0.65067 0.0
O80 O 0.41988 0.88145 0.65079 0.0
Zn81 Zn 0.38071 0.88886 0.65716 0.0
O82 O 0.38255 0.90891 0.70179 0.0
C83 C 0.33104 0.82685 0.62796 0.0
O84 O 0.34981 0.83689 0.60224 0.0
O85 O 0.37962 0.91833 0.62371 0.0
C86 C 0.3749 0.89223 0.72712 0.0
O87 O 0.36782 0.86185 0.72415 0.0
C88 C 0.44608 0.89322 0.66953 0.0
O89 O 0.44931 0.91284 0.69465 0.0
O90 O 0.33889 0.84551 0.65362 0.0
C91 C 0.11214 0.42912 0.71978 0.0
O92 O 0.10169 0.40979 0.69315 0.0
O93 O 0.19255 0.47212 0.66672 0.0
Zn94 Zn 0.15021 0.4744 0.67236 0.0
O95 O 0.11522 0.44697 0.63729 0.0
C96 C 0.16885 0.53147 0.63905 0.0
O97 O 0.1657 0.51128 0.61452 0.0
O98 O 0.13306 0.45892 0.71719 0.0
C99 C 0.08896 0.44956 0.63461 0.0
O100 O 0.08559 0.46993 0.65481 0.0
C101 C 0.20094 0.46424 0.63977 0.0
O102 O 0.18034 0.45532 0.61384 0.0
O103 O 0.16246 0.52104 0.66786 0.0
C104 C 0.60859 0.64138 0.60564 0.0
O105 O 0.61024 0.63144 0.63497 0.0
O106 O 0.51512 0.61988 0.63204 0.0
Zn107 Zn 0.56182 0.65783 0.6356 0.0
O108 O 0.58304 0.66131 0.68018 0.0
C109 C 0.57671 0.72508 0.64346 0.0
O110 O 0.60055 0.72849 0.66433 0.0
O111 O 0.58953 0.65331 0.60045 0.0
C112 C 0.56968 0.66446 0.70614 0.0
O113 O 0.54125 0.66489 0.70361 0.0
C114 C 0.50507 0.59433 0.64784 0.0
O115 O 0.52628 0.59136 0.66759 0.0
O116 O 0.55815 0.69773 0.62864 0.0
C117 C 0.24125 0.11098 -0.00503 0.0
C118 C 0.22252 0.08066 0.97811 0.0
C119 C 0.23248 0.13516 -0.00845 0.0
C120 C 0.20481 0.12944 0.97112 0.0
C121 C 0.18722 0.09974 0.95306 0.0
C122 C 0.19579 0.07552 0.95667 0.0
C123 C 0.19281 0.15326 0.96864 0.0
C124 C 0.19638 0.1744 -0.0065 0.0
C125 C 0.17883 0.19371 -0.00683 0.0
C126 C 0.16906 0.20151 0.02311 0.0
C127 C 0.14928 0.21646 0.02357 0.0
C128 C 0.13918 0.22425 -0.00595 0.0
H129 H 0.1785 0.19866 0.9403 0.0
C130 C 0.15071 0.21828 0.96422 0.0
C131 C 0.17038 0.20321 0.96376 0.0
H132 H 0.14377 0.22438 0.94106 0.0
H133 H 0.26216 0.1158 0.01147 0.0
H134 H 0.24727 0.15813 0.00507 0.0
H135 H 0.16603 0.09481 0.93689 0.0
H136 H 0.18104 0.05255 0.94308 0.0
H137 H 0.17719 0.15062 0.94709 0.0
H138 H 0.2092 0.17484 0.01636 0.0
H139 H 0.17556 0.19482 0.04615 0.0
H140 H 0.1411 0.22101 0.04702 0.0
C141 C 0.86539 0.95326 0.05338 0.0
C142 C 0.84232 0.93378 0.02802 0.0
C143 C 0.88186 0.98695 0.05241 0.0
C144 C 0.87597 0.00186 0.02591 0.0
C145 C 0.85151 0.98246 0.00145 0.0
C146 C 0.83487 0.94875 0.00251 0.0
C147 C 0.89664 0.0375 0.02415 0.0
C148 C 0.90458 0.05245 -0.00453 0.0
C149 C 0.9297 0.08723 -0.00657 0.0
C150 C 0.94789 0.09755 0.96473 0.0
C151 C 0.97377 0.12945 0.96295 0.0
C152 C 0.9818 0.15176 -0.01017 0.0
H153 H 0.9223 0.10334 0.04172 0.0
C154 C 0.96244 0.14187 0.01791 0.0
C155 C 0.93659 0.11001 0.01967 0.0
H156 H 0.96762 0.15858 0.03888 0.0
H157 H 0.87147 0.94251 0.07354 0.0
H158 H 0.90026 0.00134 0.07181 0.0
H159 H 0.84541 0.99314 0.98127 0.0
H160 H 0.81693 0.93443 0.98277 0.0
H161 H 0.90861 0.05122 0.047 0.0
H162 H 0.89516 0.03817 0.97242 0.0
H163 H 0.94283 0.0806 0.944 0.0
H164 H 0.98802 0.13635 0.94086 0.0
C165 C 0.89758 0.80566 -0.00086 0.0
C166 C 0.88419 0.82354 0.98468 0.0
C167 C 0.93113 0.81409 -0.00484 0.0
C168 C 0.95199 0.84071 0.97672 0.0
C169 C 0.93801 0.85733 0.96079 0.0
C170 C 0.90456 0.84896 0.9648 0.0
C171 C 0.98858 0.85287 0.97441 0.0
C172 C 0.0072 0.84814 -0.00272 0.0
C173 C 0.04451 0.86567 -0.00181 0.0
C174 C 0.06189 0.87082 0.02854 0.0
C175 C 0.09674 0.89042 0.03122 0.0
C176 C 0.11491 0.90523 0.00352 0.0
H177 H 0.05084 0.87416 0.94593 0.0
C178 C 0.09779 0.89843 0.97277 0.0
C179 C 0.06302 0.87868 0.97005 0.0
H180 H 0.11117 0.90895 0.95081 0.0
H181 H 0.88242 0.78566 0.01427 0.0
H182 H 0.94058 0.79989 0.00685 0.0
H183 H 0.95334 0.87768 0.94611 0.0
H184 H 0.89497 0.86306 0.95305 0.0
H185 H 0.00098 0.86936 0.95509 0.0
H186 H 0.99516 0.83391 0.0182 0.0
H187 H 0.04836 0.86075 0.05055 0.0
H188 H 0.10921 0.89495 0.05523 0.0
C189 C 0.8671 0.4089 0.34739 0.0
C190 C 0.85108 0.37722 0.33321 0.0
C191 C 0.85701 0.43106 0.33826 0.0
C192 C 0.83075 0.42199 0.31457 0.0
C193 C 0.81524 0.39049 0.30005 0.0
C194 C 0.82533 0.3684 0.30913 0.0
C195 C 0.81691 0.44347 0.30619 0.0
C196 C 0.83338 0.47587 0.31174 0.0
C197 C 0.81717 0.49602 0.30673 0.0
C198 C 0.82857 0.52484 0.32605 0.0
C199 C 0.81177 0.54269 0.32455 0.0
C200 C 0.78329 0.53211 0.30352 0.0
H201 H 0.78131 0.46535 0.26774 0.0
C202 C 0.77312 0.50435 0.28272 0.0
C203 C 0.78997 0.48659 0.28414 0.0
H204 H 0.75163 0.49587 0.2658 0.0
H205 H 0.88694 0.41642 0.36611 0.0
H206 H 0.86911 0.45475 0.35077 0.0
H207 H 0.79484 0.38275 0.28189 0.0
H208 H 0.81246 0.34419 0.29767 0.0
H209 H 0.7914 0.43154 0.29593 0.0
H210 H 0.85877 0.48799 0.32228 0.0
H211 H 0.84975 0.53292 0.34331 0.0
H212 H 0.82042 0.56413 0.34072 0.0
C213 C 0.50125 0.28834 0.39311 0.0
C214 C 0.47834 0.26246 0.37208 0.0
C215 C 0.51593 0.32008 0.38301 0.0
C216 C 0.50836 0.32657 0.35157 0.0
C217 C 0.4838 0.30093 0.33135 0.0
C218 C 0.46894 0.2692 0.34153 0.0
C219 C 0.52788 0.35996 0.34018 0.0
C220 C 0.53523 0.36625 0.3084 0.0
C221 C 0.56068 0.3986 0.29796 0.0
C222 C 0.57953 0.40038 0.27047 0.0
C223 C 0.60655 0.42992 0.26233 0.0
C224 C 0.61502 0.45836 0.28137 0.0
H225 H 0.55298 0.42711 0.33628 0.0
C226 C 0.59467 0.45693 0.30749 0.0
C227 C 0.56775 0.42737 0.31569 0.0
H228 H 0.60021 0.47847 0.32239 0.0
H229 H 0.50878 0.28402 0.41693 0.0
H230 H 0.53444 0.33945 0.39925 0.0
H231 H 0.47645 0.30518 0.30743 0.0
H232 H 0.45104 0.24984 0.32487 0.0
H233 H 0.54007 0.37937 0.35904 0.0
H234 H 0.52567 0.34636 0.28995 0.0
H235 H 0.57434 0.37863 0.25613 0.0
H236 H 0.62151 0.43021 0.24187 0.0
C237 C 0.53657 0.12892 0.33323 0.0
C238 C 0.52773 0.14979 0.35026 0.0
C239 C 0.56999 0.13562 0.33362 0.0
C240 C 0.5951 0.16329 0.35119 0.0
C241 C 0.58601 0.18362 0.36873 0.0
C242 C 0.55283 0.17713 0.3681 0.0
C243 C 0.63101 0.17207 0.352 0.0
C244 C 0.64549 0.16391 0.32767 0.0
C245 C 0.68247 0.17817 0.32674 0.0
C246 C 0.69771 0.18516 0.29626 0.0
C247 C 0.73262 0.2029 0.29477 0.0
C248 C 0.75295 0.21368 0.3238 0.0
H249 H 0.69196 0.18071 0.37954 0.0
C250 C 0.73776 0.20443 0.3542 0.0
C251 C 0.70287 0.1868 0.35567 0.0
H252 H 0.7527 0.21189 0.37701 0.0
H253 H 0.51776 0.10753 0.31946 0.0
H254 H 0.57592 0.11896 0.32046 0.0
H255 H 0.60479 0.20498 0.38262 0.0
H256 H 0.54689 0.19359 0.38172 0.0
H257 H 0.64676 0.18878 0.37194 0.0
H258 H 0.63055 0.14985 0.30602 0.0
H259 H 0.68257 0.17839 0.27359 0.0
H260 H 0.74354 0.2093 0.27092 0.0
C261 C 0.46691 0.8609 0.63796 0.0
C262 C 0.4709 0.88215 0.66477 0.0
C263 C 0.48801 0.84755 0.63506 0.0
C264 C 0.51389 0.85535 0.65884 0.0
C265 C 0.51851 0.87739 0.68508 0.0
C266 C 0.49736 0.89079 0.68796 0.0
C267 C 0.53399 0.83844 0.65897 0.0
C268 C 0.53722 0.82275 0.63221 0.0
C269 C 0.55069 0.80003 0.63394 0.0
C270 C 0.53808 0.77355 0.61103 0.0
C271 C 0.5472 0.74963 0.61366 0.0
C272 C 0.5696 0.75194 0.639 0.0
H273 H 0.58539 0.8238 0.6759 0.0
C274 C 0.58373 0.77936 0.66087 0.0
C275 C 0.57432 0.80318 0.65843 0.0
H276 H 0.60132 0.78199 0.68047 0.0
H277 H 0.44672 0.85365 0.61968 0.0
H278 H 0.4827 0.83 0.61496 0.0
H279 H 0.53804 0.88365 0.70389 0.0
H280 H 0.50111 0.90708 0.70894 0.0
H281 H 0.54459 0.83727 0.6826 0.0
H282 H 0.52683 0.82401 0.60852 0.0
H283 H 0.52008 0.77069 0.59175 0.0
H284 H 0.53616 0.729 0.59617 0.0
C285 C 0.29497 0.77187 0.60062 0.0
C286 C 0.30337 0.79305 0.62852 0.0
C287 C 0.27119 0.73914 0.60219 0.0
C288 C 0.25553 0.72683 0.63189 0.0
C289 C 0.26268 0.74841 0.65922 0.0
C290 C 0.28637 0.78113 0.65762 0.0
C291 C 0.23259 0.69172 0.63587 0.0
C292 C 0.23296 0.66819 0.61662 0.0
C293 C 0.21332 0.63315 0.62277 0.0
C294 C 0.20721 0.61067 0.59657 0.0
C295 C 0.19175 0.57761 0.60172 0.0
C296 C 0.18233 0.56623 0.63335 0.0
H297 H 0.20814 0.63823 0.67541 0.0
C298 C 0.18772 0.58859 0.65952 0.0
C299 C 0.20311 0.62173 0.65434 0.0
H300 H 0.1809 0.5806 0.68421 0.0
H301 H 0.30723 0.7804 0.57767 0.0
H302 H 0.26546 0.72373 0.58009 0.0
H303 H 0.25074 0.73975 0.68229 0.0
H304 H 0.29203 0.79684 0.67953 0.0
H305 H 0.21635 0.68522 0.65665 0.0
H306 H 0.24907 0.67452 0.59578 0.0
H307 H 0.21496 0.61876 0.57206 0.0
H308 H 0.18798 0.56107 0.58098 0.0
C309 C 0.2573 0.4791 0.66462 0.0
C310 C 0.23528 0.46911 0.63684 0.0
C311 C 0.29097 0.48785 0.66143 0.0
C312 C 0.30339 0.48661 0.6303 0.0
C313 C 0.28102 0.47532 0.60275 0.0
C314 C 0.24728 0.46649 0.60597 0.0
C315 C 0.33988 0.50055 0.62514 0.0
C316 C 0.36267 0.50584 0.64938 0.0
C317 C 0.39942 0.52612 0.64581 0.0
C318 C 0.4215 0.52304 0.66787 0.0
C319 C 0.45604 0.54441 0.66778 0.0
C320 C 0.46912 0.56958 0.64587 0.0
H321 H 0.39662 0.55467 0.60646 0.0
C322 C 0.44713 0.57212 0.62323 0.0
C323 C 0.41271 0.55074 0.62322 0.0
H324 H 0.45637 0.59127 0.60604 0.0
H325 H 0.24888 0.4814 0.68878 0.0
H326 H 0.30734 0.49714 0.68323 0.0
H327 H 0.28991 0.47431 0.57846 0.0
H328 H 0.23098 0.45888 0.58406 0.0
H329 H 0.34826 0.50779 0.6005 0.0
H330 H 0.35433 0.49584 0.67319 0.0
H331 H 0.41193 0.50452 0.68575 0.0
H332 H 0.47231 0.54183 0.68559 0.0
C333 C 0.06736 0.30886 0.92741 0.0
C334 C 0.08758 0.32367 0.95602 0.0
C335 C 0.07061 0.32675 0.89989 0.0
C336 C 0.09403 0.36004 0.90041 0.0
C337 C 0.11406 0.37485 0.92911 0.0
C338 C 0.11081 0.35692 0.95668 0.0
C339 C 0.10001 0.37942 0.87085 0.0
C340 C 0.07737 0.37103 0.84563 0.0
C341 C 0.08516 0.38765 0.81415 0.0
C342 C 0.06791 0.36969 0.78528 0.0
C343 C 0.07617 0.38343 0.75473 0.0
C344 C 0.10159 0.41566 0.75242 0.0
H345 H 0.12272 0.43531 0.83387 0.0
C346 C 0.11776 0.43422 0.78145 0.0
C347 C 0.10967 0.42036 0.81205 0.0
H348 H 0.13724 0.45923 0.7805 0.0
H349 H 0.0494 0.28322 0.92597 0.0
H350 H 0.05545 0.31399 0.87802 0.0
H351 H 0.13254 0.40035 0.93012 0.0
H352 H 0.12683 0.36907 0.97831 0.0
H353 H 0.12451 0.40073 0.86956 0.0
H354 H 0.05283 0.3498 0.84691 0.0
H355 H 0.04868 0.34456 0.78622 0.0
H356 H 0.06298 0.36856 0.73286 0.0
C357 C 0.71132 0.7328 0.91894 0.0
C358 C 0.72209 0.76503 0.92951 0.0
C359 C 0.68658 0.71755 0.89385 0.0
C360 C 0.67219 0.73434 0.87879 0.0
C361 C 0.68215 0.76614 0.89017 0.0
C362 C 0.70695 0.78141 0.91512 0.0
C363 C 0.64714 0.71982 0.85092 0.0
C364 C 0.64595 0.697 0.82942 0.0
C365 C 0.62435 0.6862 0.79889 0.0
C366 C 0.63525 0.67617 0.7711 0.0
C367 C 0.61709 0.6684 0.74114 0.0
C368 C 0.58735 0.67011 0.73846 0.0
H369 H 0.58404 0.69307 0.81784 0.0
C370 C 0.57552 0.67858 0.76667 0.0
C371 C 0.59381 0.68653 0.79663 0.0
H372 H 0.55249 0.67975 0.7655 0.0
H373 H 0.72221 0.71939 0.92981 0.0
H374 H 0.67877 0.69266 0.88648 0.0
H375 H 0.67126 0.77951 0.87921 0.0
H376 H 0.71444 0.80617 0.92289 0.0
H377 H 0.6315 0.73068 0.84618 0.0
H378 H 0.66385 0.6884 0.8323 0.0
H379 H 0.65849 0.67536 0.77228 0.0
H380 H 0.62671 0.66163 0.71993 0.0
C381 C 0.35475 0.88558 0.7846 0.0
C382 C 0.36928 0.90556 0.75824 0.0
C383 C 0.34488 0.89689 0.81208 0.0
C384 C 0.34967 0.92859 0.81382 0.0
C385 C 0.36568 0.94895 0.78813 0.0
C386 C 0.37549 0.93765 0.7607 0.0
C387 C 0.33528 0.94024 0.83992 0.0
C388 C 0.32599 0.92678 0.86921 0.0
C389 C 0.3071 0.9356 0.89298 0.0
C390 C 0.2884 0.91333 0.91639 0.0
C391 C 0.2685 0.91957 0.93782 0.0
C392 C 0.2669 0.9483 0.93629 0.0
H393 H 0.32148 0.98349 0.87578 0.0
C394 C 0.2864 0.97109 0.91363 0.0
C395 C 0.3065 0.96498 0.89239 0.0
H396 H 0.28621 0.99376 0.9123 0.0
H397 H 0.34955 0.86071 0.78341 0.0
H398 H 0.33201 0.88007 0.83087 0.0
H399 H 0.36966 0.97344 0.78877 0.0
H400 H 0.3868 0.95374 0.74087 0.0
H401 H 0.33087 0.95989 0.83367 0.0
H402 H 0.33052 0.90718 0.87543 0.0
H403 H 0.28858 0.89065 0.91764 0.0
H404 H 0.25396 0.90163 0.95521 0.0
C405 C 0.39846 0.11987 0.24027 0.0
C406 C 0.39046 0.11587 0.27355 0.0
C407 C 0.37404 0.10207 0.21556 0.0
C408 C 0.34108 0.07979 0.22366 0.0
C409 C 0.33315 0.07572 0.25691 0.0
C410 C 0.35762 0.09337 0.28163 0.0
C411 C 0.31403 0.06203 0.19804 0.0
C412 C 0.31996 0.05453 0.16759 0.0
C413 C 0.29373 0.0392 0.14081 0.0
C414 C 0.29933 0.02308 0.1142 0.0
C415 C 0.27688 0.0109 0.08704 0.0
C416 C 0.24843 0.0149 0.08573 0.0
H417 H 0.25994 0.05545 0.15957 0.0
C418 C 0.2423 0.03033 0.1127 0.0
C419 C 0.26476 0.04245 0.13996 0.0
H420 H 0.22071 0.03395 0.11237 0.0
H421 H 0.42347 0.13715 0.23324 0.0
H422 H 0.38088 0.10662 0.1902 0.0
H423 H 0.3079 0.05894 0.26379 0.0
H424 H 0.35059 0.0898 0.30705 0.0
H425 H 0.28848 0.05437 0.20487 0.0
H426 H 0.34507 0.0594 0.16196 0.0
H427 H 0.32151 0.02038 0.11414 0.0
H428 H 0.28237 -0.00088 0.06668 0.0
C429 C 0.04034 0.28468 0.12281 0.0
C430 C 0.04591 0.2581 0.12008 0.0
C431 C 0.02629 0.29008 0.1509 0.0
C432 C 0.01773 0.26909 0.17702 0.0
C433 C 0.02452 0.2433 0.17475 0.0
C434 C 0.03858 0.23792 0.14667 0.0
C435 C -0.00111 0.2714 0.2054 0.0
C436 C -0.00207 0.29844 0.21469 0.0
C437 C 0.97595 0.29926 0.24066 0.0
C438 C 0.98484 0.32875 0.2577 0.0
C439 C 0.96383 0.33076 0.28106 0.0
C440 C 0.93322 0.30335 0.28752 0.0
H441 H 0.93708 0.24884 0.23385 0.0
C442 C 0.92427 0.27382 0.27045 0.0
C443 C 0.94536 0.27177 0.24723 0.0
H444 H 0.90076 0.25231 0.27473 0.0
H445 H 0.04558 0.30062 0.1027 0.0
H446 H 0.02077 0.30978 0.1512 0.0
H447 H 0.01809 0.22669 0.19441 0.0
H448 H 0.04258 0.21723 0.14539 0.0
H449 H 0.98519 0.24977 0.21909 0.0
H450 H 0.01406 0.321 0.20334 0.0
H451 H 0.00806 0.35034 0.25285 0.0
H452 H 0.97142 0.35392 0.2937 0.0
C453 C 0.7129 0.62962 0.21713 0.0
C454 C 0.73294 0.63816 0.24625 0.0
C455 C 0.71732 0.65309 0.19497 0.0
C456 C 0.74176 0.6857 0.20161 0.0
C457 C 0.76176 0.69413 0.2307 0.0
C458 C 0.75734 0.67069 0.25284 0.0
C459 C 0.74866 0.71117 0.17798 0.0
C460 C 0.72639 0.70885 0.15449 0.0
C461 C 0.73456 0.7332 0.1292 0.0
C462 C 0.70831 0.73467 0.11244 0.0
C463 C 0.71492 0.75569 0.08691 0.0
C464 C 0.74797 0.77551 0.07746 0.0
H465 H 0.78863 0.75239 0.13139 0.0
C466 C 0.77428 0.7744 0.09454 0.0
C467 C 0.76769 0.75341 0.11997 0.0
H468 H 0.80004 0.78915 0.08773 0.0
H469 H 0.69402 0.60472 0.21123 0.0
H470 H 0.7021 0.64532 0.17237 0.0
H471 H 0.78099 0.71898 0.23629 0.0
H472 H 0.77324 0.6781 0.27502 0.0
H473 H 0.77296 0.73292 0.18064 0.0
H474 H 0.70099 0.68862 0.15379 0.0
H475 H 0.68254 0.71921 0.11884 0.0
H476 H 0.69407 0.75588 0.07416 0.0
C477 C 0.06543 0.40716 0.58846 0.0
C478 C 0.06277 0.43024 0.6089 0.0
C479 C 0.04098 0.38933 0.56376 0.0
C480 C 0.01325 0.39417 0.55907 0.0
C481 C 0.01072 0.41732 0.57944 0.0
C482 C 0.03507 0.43503 0.60423 0.0
C483 C 0.98758 0.377 0.5321 0.0
C484 C 0.98031 0.34786 0.51851 0.0
C485 C 0.95627 0.3318 0.48999 0.0
C486 C 0.95936 0.30868 0.47007 0.0
C487 C 0.93864 0.29441 0.44188 0.0
C488 C 0.91424 0.30286 0.4331 0.0
H489 H 0.92653 0.35577 0.4973 0.0
C490 C 0.91017 0.32496 0.45375 0.0
C491 C 0.9308 0.33915 0.48198 0.0
H492 H 0.89126 0.33164 0.44794 0.0
H493 H 0.0866 0.40305 0.59129 0.0
H494 H 0.04448 0.37251 0.54793 0.0
H495 H 0.9898 0.42175 0.57615 0.0
H496 H 0.03233 0.45271 0.61947 0.0
H497 H 0.97456 0.38929 0.52316 0.0
H498 H 0.99338 0.33567 0.52765 0.0
H499 H 0.97847 0.30225 0.47584 0.0
H500 H 0.94231 0.27732 0.42659 0.0
C501 C 0.71345 0.59975 0.4065 0.0
C502 C 0.7037 0.56693 0.40045 0.0
C503 C 0.70941 0.61092 0.43737 0.0
C504 C 0.69511 0.58935 0.46269 0.0
C505 C 0.68756 0.55707 0.45727 0.0
C506 C 0.69174 0.54592 0.42643 0.0
C507 C 0.68588 0.59907 0.49423 0.0
C508 C 0.67755 0.62263 0.49654 0.0
C509 C 0.66204 0.62876 0.52571 0.0
C510 C 0.64275 0.64401 0.5212 0.0
C511 C 0.62577 0.64846 0.54724 0.0
C512 C 0.6279 0.63794 0.57856 0.0
H513 H 0.68068 0.60836 0.56215 0.0
C514 C 0.64817 0.62371 0.58348 0.0
C515 C 0.66518 0.61924 0.55735 0.0
H516 H 0.65068 0.61574 0.60744 0.0
H517 H 0.72341 0.6167 0.38715 0.0
H518 H 0.71695 0.6363 0.44101 0.0
H519 H 0.67695 0.54005 0.47648 0.0
H520 H 0.68433 0.52055 0.42265 0.0
H521 H 0.68197 0.5838 0.51477 0.0
H522 H 0.67869 0.63584 0.47493 0.0
H523 H 0.64009 0.65184 0.49719 0.0
H524 H 0.61061 0.65977 0.54265 0.0
C525 C 0.37568 0.96274 0.58107 0.0
C526 C 0.40197 0.9718 0.6046 0.0
C527 C 0.37555 0.98545 0.56024 0.0
C528 C 0.40174 0.01776 0.56258 0.0
C529 C 0.42807 0.02668 0.58593 0.0
C530 C 0.42812 0.00404 0.60686 0.0
C531 C 0.40372 0.04224 0.53971 0.0
C532 C 0.37684 0.04071 0.5239 0.0
C533 C 0.37986 0.06329 0.49816 0.0
C534 C 0.35511 0.05235 0.47273 0.0
C535 C 0.35919 0.07128 0.44585 0.0
C536 C 0.38806 0.10166 0.44403 0.0
H537 H 0.4263 0.10467 0.51741 0.0
C538 C 0.41156 0.11365 0.47069 0.0
C539 C 0.40746 0.09474 0.49755 0.0
H540 H 0.43378 0.13722 0.47033 0.0
H541 H 0.35525 0.93805 0.57861 0.0
H542 H 0.35536 0.9773 0.54185 0.0
H543 H 0.44874 0.05129 0.58799 0.0
H544 H 0.4488 0.0118 0.62466 0.0
H545 H 0.42864 0.06185 0.53535 0.0
H546 H 0.35191 0.02103 0.52814 0.0
H547 H 0.33333 0.02844 0.47286 0.0
H548 H 0.34043 0.06145 0.42587 0.0
loop_
_geom_bond_atom_site_label_1
_geom_bond_atom_site_label_2
_geom_bond_distance
_geom_bond_site_symmetry_2
_ccdc_geom_bond_type
C0 O1 1.160 . S
C0 O7 1.185 . S
O1 C0 1.160 . S
O2 Zn3 1.899 . S
O2 C10 1.284 . S
Zn3 O2 1.899 . S
Zn3 O4 2.032 . S
Zn3 O7 2.086 1_554 S
Zn3 O12 1.977 1_454 S
O4 Zn3 2.032 . S
O4 C8 1.278 . S
C5 O6 1.203 . S
C5 O12 1.267 1_554 S
O6 C5 1.203 . S
O7 C0 1.185 . S
O7 Zn3 2.086 1_556 S
C8 O4 1.278 . S
C8 O9 1.211 1_455 S
O9 C8 1.211 1_655 S
C10 O2 1.284 . S
C10 O11 1.273 . S
O11 C10 1.273 . S
O12 Zn3 1.977 1_656 S
O12 C5 1.267 1_556 S
C13 O14 1.160 . S
C13 O20 1.185 . S
O14 C13 1.160 . S
O15 Zn16 1.899 . S
O15 C23 1.284 1_554 S
Zn16 O15 1.899 . S
Zn16 O17 2.032 1_554 S
Zn16 O20 2.086 . S
Zn16 O25 1.977 . S
O17 Zn16 2.032 1_556 S
O17 C21 1.278 . S
C18 O19 1.203 . S
C18 O25 1.267 . S
O19 C18 1.203 . S
O20 C13 1.185 . S
O20 Zn16 2.086 . S
C21 O17 1.278 . S
C21 O22 1.211 . S
O22 C21 1.211 . S
C23 O15 1.284 1_556 S
C23 O24 1.273 . S
O24 C23 1.273 . S
O25 Zn16 1.977 . S
O25 C18 1.267 . S
C26 O27 1.160 . S
C26 O33 1.185 1_565 S
O27 C26 1.160 . S
O28 Zn29 1.900 1_565 S
O28 C36 1.284 1_556 S
Zn29 O28 1.900 1_545 S
Zn29 O30 2.021 1_556 S
Zn29 O33 2.099 . S
Zn29 O38 1.980 . S
O30 Zn29 2.021 1_554 S
O30 C34 1.278 . S
C31 O32 1.203 . S
C31 O38 1.267 1_554 S
O32 C31 1.203 . S
O33 C26 1.185 1_545 S
O33 Zn29 2.099 . S
C34 O30 1.278 . S
C34 O35 1.211 . S
O35 C34 1.211 . S
C36 O28 1.284 1_554 S
C36 O37 1.273 . S
O37 C36 1.273 . S
O38 Zn29 1.980 . S
O38 C31 1.267 1_556 S
C39 O40 1.160 . S
C39 O46 1.185 . S
O40 C39 1.160 . S
O41 Zn42 1.899 . S
O41 C49 1.284 . S
Zn42 O41 1.899 . S
Zn42 O43 2.032 . S
Zn42 O46 2.086 . S
Zn42 O51 1.977 . S
O43 Zn42 2.032 . S
O43 C47 1.278 . S
C44 O45 1.203 . S
C44 O51 1.267 . S
O45 C44 1.203 . S
O46 C39 1.185 . S
O46 Zn42 2.086 . S
C47 O43 1.278 . S
C47 O48 1.211 . S
O48 C47 1.211 . S
C49 O41 1.284 . S
C49 O50 1.273 . S
O50 C49 1.273 . S
O51 Zn42 1.977 . S
O51 C44 1.267 . S
C52 O53 1.160 . S
C52 O59 1.185 . S
O53 C52 1.160 . S
O54 Zn55 1.899 . S
O54 C62 1.284 . S
Zn55 O54 1.899 . S
Zn55 O56 2.032 . S
Zn55 O59 2.086 . S
Zn55 O64 1.977 . S
O56 Zn55 2.032 . S
O56 C60 1.278 . S
C57 O58 1.203 . S
C57 O64 1.267 . S
O58 C57 1.203 . S
O59 C52 1.185 . S
O59 Zn55 2.086 . S
C60 O56 1.278 . S
C60 O61 1.211 . S
O61 C60 1.211 . S
C62 O54 1.284 . S
C62 O63 1.273 . S
O63 C62 1.273 . S
O64 Zn55 1.977 . S
O64 C57 1.267 . S
C65 O66 1.160 . S
C65 O72 1.185 . S
O66 C65 1.160 . S
O67 Zn68 1.899 . S
O67 C75 1.284 . S
Zn68 O67 1.899 . S
Zn68 O69 2.032 . S
Zn68 O72 2.086 . S
Zn68 O77 1.977 . S
O69 Zn68 2.032 . S
O69 C73 1.278 . S
C70 O71 1.203 . S
C70 O77 1.267 . S
O71 C70 1.203 . S
O72 C65 1.185 . S
O72 Zn68 2.086 . S
C73 O69 1.278 . S
C73 O74 1.211 . S
O74 C73 1.211 . S
C75 O67 1.284 . S
C75 O76 1.273 . S
O76 C75 1.273 . S
O77 Zn68 1.977 . S
O77 C70 1.267 . S
C78 O79 1.160 . S
C78 O85 1.185 . S
O79 C78 1.160 . S
O80 Zn81 1.899 . S
O80 C88 1.284 . S
Zn81 O80 1.899 . S
Zn81 O82 2.032 . S
Zn81 O85 2.086 . S
Zn81 O90 1.977 . S
O82 Zn81 2.032 . S
O82 C86 1.278 . S
C83 O84 1.203 . S
C83 O90 1.267 . S
O84 C83 1.203 . S
O85 C78 1.185 . S
O85 Zn81 2.086 . S
C86 O82 1.278 . S
C86 O87 1.211 . S
O87 C86 1.211 . S
C88 O80 1.284 . S
C88 O89 1.273 . S
O89 C88 1.273 . S
O90 Zn81 1.977 . S
O90 C83 1.267 . S
C91 O92 1.160 . S
C91 O98 1.185 . S
O92 C91 1.160 . S
O93 Zn94 1.899 . S
O93 C101 1.284 . S
Zn94 O93 1.899 . S
Zn94 O95 2.032 . S
Zn94 O98 2.086 . S
Zn94 O103 1.977 . S
O95 Zn94 2.032 . S
O95 C99 1.278 . S
C96 O97 1.203 . S
C96 O103 1.267 . S
O97 C96 1.203 . S
O98 C91 1.185 . S
O98 Zn94 2.086 . S
C99 O95 1.278 . S
C99 O100 1.211 . S
O100 C99 1.211 . S
C101 O93 1.284 . S
C101 O102 1.273 . S
O102 C101 1.273 . S
O103 Zn94 1.977 . S
O103 C96 1.267 . S
C104 O105 1.160 . S
C104 O111 1.185 . S
O105 C104 1.160 . S
O106 Zn107 1.899 . S
O106 C114 1.284 . S
Zn107 O106 1.899 . S
Zn107 O108 2.032 . S
Zn107 O111 2.086 . S
Zn107 O116 1.977 . S
O108 Zn107 2.032 . S
O108 C112 1.278 . S
C109 O110 1.203 . S
C109 O116 1.267 . S
O110 C109 1.203 . S
O111 C104 1.185 . S
O111 Zn107 2.086 . S
C112 O108 1.278 . S
C112 O113 1.211 . S
O113 C112 1.211 . S
C114 O106 1.284 . S
C114 O115 1.273 . S
O115 C114 1.273 . S
O116 Zn107 1.977 . S
O116 C109 1.267 . S
C117 C118 1.386 . S
C117 C119 1.383 . S
C117 H133 0.951 . S
C118 C117 1.386 . S
C118 C122 1.383 1_554 S
C119 C117 1.383 . S
C119 C120 1.402 . S
C119 H134 0.951 . S
C120 C119 1.402 . S
C120 C121 1.375 . S
C120 C123 1.481 . S
C121 C120 1.375 . S
C121 C122 1.367 1_554 S
C121 H135 0.948 1_554 S
C122 C118 1.383 1_556 S
C122 C121 1.367 1_556 S
C122 H136 0.950 . S
C123 C120 1.481 . S
C123 C124 1.297 . S
C123 H137 0.950 . S
C124 C123 1.297 . S
C124 C125 1.479 . S
C124 H138 0.950 . S
C125 C124 1.479 . S
C125 C126 1.375 . S
C125 C131 1.404 . S
C126 C125 1.375 . S
C126 C127 1.369 . S
C126 H139 0.950 . S
C127 C126 1.369 . S
C127 C128 1.392 . S
C127 H140 0.951 . S
C128 C127 1.392 . S
C128 C130 1.384 . S
H129 C131 0.949 . S
C130 C128 1.384 . S
C130 C131 1.385 . S
C130 H132 0.950 . S
C131 C125 1.404 . S
C131 H129 0.949 . S
C131 C130 1.385 . S
H132 C130 0.950 . S
H133 C117 0.951 . S
H134 C119 0.951 . S
H135 C121 0.948 1_556 S
H136 C122 0.950 . S
H137 C123 0.950 . S
H138 C124 0.950 . S
H139 C126 0.950 . S
H140 C127 0.951 . S
C141 C142 1.386 . S
C141 C143 1.383 . S
C141 H157 0.951 . S
C142 C141 1.386 . S
C142 C146 1.383 . S
C143 C141 1.383 . S
C143 C144 1.402 . S
C143 H158 0.951 . S
C144 C143 1.402 . S
C144 C145 1.375 . S
C144 C147 1.448 1_565 S
C145 C144 1.375 . S
C145 C146 1.367 . S
C145 H159 0.951 . S
C146 C142 1.383 . S
C146 C145 1.367 . S
C146 H160 0.950 . S
C147 C144 1.448 1_545 S
C147 C148 1.301 1_554 S
C147 H161 0.976 . S
C148 C147 1.301 1_556 S
C148 C149 1.483 . S
C148 H162 0.952 . S
C149 C148 1.483 . S
C149 C150 1.376 . S
C149 C155 1.404 . S
C150 C149 1.376 . S
C150 C151 1.369 1_556 S
C150 H163 0.950 1_556 S
C151 C150 1.369 1_554 S
C151 C152 1.392 1_554 S
C151 H164 0.951 . S
C152 C151 1.392 1_556 S
C152 C154 1.384 . S
H153 C155 0.949 . S
C154 C152 1.384 . S
C154 C155 1.385 . S
C154 H156 0.950 . S
C155 C149 1.404 . S
C155 H153 0.949 . S
C155 C154 1.385 . S
H156 C154 0.950 . S
H157 C141 0.951 . S
H158 C143 0.951 . S
H159 C145 0.951 . S
H160 C146 0.950 . S
H161 C147 0.976 . S
H162 C148 0.952 . S
H163 C150 0.950 1_554 S
H164 C151 0.951 . S
C165 C166 1.386 1_554 S
C165 C167 1.383 . S
C165 H181 0.951 . S
C166 C165 1.386 1_556 S
C166 C170 1.383 . S
C167 C165 1.383 . S
C167 C168 1.402 1_554 S
C167 H182 0.951 . S
C168 C167 1.402 1_556 S
C168 C169 1.375 . S
C168 C171 1.481 1_655 S
C169 C168 1.375 . S
C169 C170 1.367 . S
C169 H183 0.951 . S
C170 C166 1.383 . S
C170 C169 1.367 . S
C170 H184 0.950 . S
C171 C168 1.481 1_455 S
C171 C172 1.296 1_556 S
C171 H185 0.950 . S
C172 C171 1.296 1_554 S
C172 C173 1.480 . S
C172 H186 0.951 . S
C173 C172 1.480 . S
C173 C174 1.375 . S
C173 C179 1.404 1_554 S
C174 C173 1.375 . S
C174 C175 1.369 . S
C174 H187 0.950 . S
C175 C174 1.369 . S
C175 C176 1.392 . S
C175 H188 0.951 . S
C176 C175 1.392 . S
C176 C178 1.384 . S
H177 C179 0.949 . S
C178 C176 1.384 . S
C178 C179 1.385 1_554 S
C178 H180 0.950 1_554 S
C179 C173 1.404 1_556 S
C179 H177 0.949 . S
C179 C178 1.385 1_556 S
H180 C178 0.950 1_556 S
H181 C165 0.951 . S
H182 C167 0.951 . S
H183 C169 0.951 . S
H184 C170 0.950 . S
H185 C171 0.950 . S
H186 C172 0.951 . S
H187 C174 0.950 . S
H188 C175 0.951 . S
C189 C190 1.386 . S
C189 C191 1.383 . S
C189 H205 0.951 . S
C190 C189 1.386 . S
C190 C194 1.383 . S
C191 C189 1.383 . S
C191 C192 1.402 . S
C191 H206 0.951 . S
C192 C191 1.402 . S
C192 C193 1.375 . S
C192 C195 1.481 . S
C193 C192 1.375 . S
C193 C194 1.367 . S
C193 H207 0.951 . S
C194 C190 1.383 . S
C194 C193 1.367 . S
C194 H208 0.950 . S
C195 C192 1.481 . S
C195 C196 1.297 . S
C195 H209 0.950 . S
C196 C195 1.297 . S
C196 C197 1.479 . S
C196 H210 0.950 . S
C197 C196 1.479 . S
C197 C198 1.375 . S
C197 C203 1.404 . S
C198 C197 1.375 . S
C198 C199 1.369 . S
C198 H211 0.950 . S
C199 C198 1.369 . S
C199 C200 1.392 . S
C199 H212 0.951 . S
C200 C199 1.392 . S
C200 C202 1.384 . S
H201 C203 0.949 . S
C202 C200 1.384 . S
C202 C203 1.385 . S
C202 H204 0.950 . S
C203 C197 1.404 . S
C203 H201 0.949 . S
C203 C202 1.385 . S
H204 C202 0.950 . S
H205 C189 0.951 . S
H206 C191 0.951 . S
H207 C193 0.951 . S
H208 C194 0.950 . S
H209 C195 0.950 . S
H210 C196 0.950 . S
H211 C198 0.950 . S
H212 C199 0.951 . S
C213 C214 1.386 . S
C213 C215 1.383 . S
C213 H229 0.951 . S
C214 C213 1.386 . S
C214 C218 1.383 . S
C215 C213 1.383 . S
C215 C216 1.402 . S
C215 H230 0.951 . S
C216 C215 1.402 . S
C216 C217 1.375 . S
C216 C219 1.481 . S
C217 C216 1.375 . S
C217 C218 1.367 . S
C217 H231 0.951 . S
C218 C214 1.383 . S
C218 C217 1.367 . S
C218 H232 0.950 . S
C219 C216 1.481 . S
C219 C220 1.297 . S
C219 H233 0.950 . S
C220 C219 1.297 . S
C220 C221 1.479 . S
C220 H234 0.950 . S
C221 C220 1.479 . S
C221 C222 1.375 . S
C221 C227 1.404 . S
C222 C221 1.375 . S
C222 C223 1.369 . S
C222 H235 0.950 . S
C223 C222 1.369 . S
C223 C224 1.392 . S
C223 H236 0.951 . S
C224 C223 1.392 . S
C224 C226 1.384 . S
H225 C227 0.949 . S
C226 C224 1.384 . S
C226 C227 1.385 . S
C226 H228 0.950 . S
C227 C221 1.404 . S
C227 H225 0.949 . S
C227 C226 1.385 . S
H228 C226 0.950 . S
H229 C213 0.951 . S
H230 C215 0.951 . S
H231 C217 0.951 . S
H232 C218 0.950 . S
H233 C219 0.950 . S
H234 C220 0.950 . S
H235 C222 0.950 . S
H236 C223 0.951 . S
C237 C238 1.386 . S
C237 C239 1.383 . S
C237 H253 0.951 . S
C238 C237 1.386 . S
C238 C242 1.383 . S
C239 C237 1.383 . S
C239 C240 1.402 . S
C239 H254 0.951 . S
C240 C239 1.402 . S
C240 C241 1.375 . S
C240 C243 1.481 . S
C241 C240 1.375 . S
C241 C242 1.367 . S
C241 H255 0.951 . S
C242 C238 1.383 . S
C242 C241 1.367 . S
C242 H256 0.950 . S
C243 C240 1.481 . S
C243 C244 1.297 . S
C243 H257 0.950 . S
C244 C243 1.297 . S
C244 C245 1.479 . S
C244 H258 0.950 . S
C245 C244 1.479 . S
C245 C246 1.375 . S
C245 C251 1.404 . S
C246 C245 1.375 . S
C246 C247 1.369 . S
C246 H259 0.950 . S
C247 C246 1.369 . S
C247 C248 1.392 . S
C247 H260 0.951 . S
C248 C247 1.392 . S
C248 C250 1.384 . S
H249 C251 0.949 . S
C250 C248 1.384 . S
C250 C251 1.385 . S
C250 H252 0.950 . S
C251 C245 1.404 . S
C251 H249 0.949 . S
C251 C250 1.385 . S
H252 C250 0.950 . S
H253 C237 0.951 . S
H254 C239 0.951 . S
H255 C241 0.951 . S
H256 C242 0.950 . S
H257 C243 0.950 . S
H258 C244 0.950 . S
H259 C246 0.950 . S
H260 C247 0.951 . S
C261 C262 1.386 . S
C261 C263 1.383 . S
C261 H277 0.951 . S
C262 C261 1.386 . S
C262 C266 1.383 . S
C263 C261 1.383 . S
C263 C264 1.402 . S
C263 H278 0.951 . S
C264 C263 1.402 . S
C264 C265 1.375 . S
C264 C267 1.481 . S
C265 C264 1.375 . S
C265 C266 1.367 . S
C265 H279 0.951 . S
C266 C262 1.383 . S
C266 C265 1.367 . S
C266 H280 0.950 . S
C267 C264 1.481 . S
C267 C268 1.297 . S
C267 H281 0.950 . S
C268 C267 1.297 . S
C268 C269 1.479 . S
C268 H282 0.950 . S
C269 C268 1.479 . S
C269 C270 1.375 . S
C269 C275 1.404 . S
C270 C269 1.375 . S
C270 C271 1.369 . S
C270 H283 0.950 . S
C271 C270 1.369 . S
C271 C272 1.392 . S
C271 H284 0.951 . S
C272 C271 1.392 . S
C272 C274 1.384 . S
H273 C275 0.949 . S
C274 C272 1.384 . S
C274 C275 1.385 . S
C274 H276 0.950 . S
C275 C269 1.404 . S
C275 H273 0.949 . S
C275 C274 1.385 . S
H276 C274 0.950 . S
H277 C261 0.951 . S
H278 C263 0.951 . S
H279 C265 0.951 . S
H280 C266 0.950 . S
H281 C267 0.950 . S
H282 C268 0.950 . S
H283 C270 0.950 . S
H284 C271 0.951 . S
C285 C286 1.386 . S
C285 C287 1.383 . S
C285 H301 0.951 . S
C286 C285 1.386 . S
C286 C290 1.383 . S
C287 C285 1.383 . S
C287 C288 1.402 . S
C287 H302 0.951 . S
C288 C287 1.402 . S
C288 C289 1.375 . S
C288 C291 1.481 . S
C289 C288 1.375 . S
C289 C290 1.367 . S
C289 H303 0.951 . S
C290 C286 1.383 . S
C290 C289 1.367 . S
C290 H304 0.950 . S
C291 C288 1.481 . S
C291 C292 1.297 . S
C291 H305 0.950 . S
C292 C291 1.297 . S
C292 C293 1.479 . S
C292 H306 0.950 . S
C293 C292 1.479 . S
C293 C294 1.375 . S
C293 C299 1.404 . S
C294 C293 1.375 . S
C294 C295 1.369 . S
C294 H307 0.950 . S
C295 C294 1.369 . S
C295 C296 1.392 . S
C295 H308 0.951 . S
C296 C295 1.392 . S
C296 C298 1.384 . S
H297 C299 0.949 . S
C298 C296 1.384 . S
C298 C299 1.385 . S
C298 H300 0.950 . S
C299 C293 1.404 . S
C299 H297 0.949 . S
C299 C298 1.385 . S
H300 C298 0.950 . S
H301 C285 0.951 . S
H302 C287 0.951 . S
H303 C289 0.951 . S
H304 C290 0.950 . S
H305 C291 0.950 . S
H306 C292 0.950 . S
H307 C294 0.950 . S
H308 C295 0.951 . S
C309 C310 1.386 . S
C309 C311 1.383 . S
C309 H325 0.951 . S
C310 C309 1.386 . S
C310 C314 1.383 . S
C311 C309 1.383 . S
C311 C312 1.402 . S
C311 H326 0.951 . S
C312 C311 1.402 . S
C312 C313 1.375 . S
C312 C315 1.481 . S
C313 C312 1.375 . S
C313 C314 1.367 . S
C313 H327 0.951 . S
C314 C310 1.383 . S
C314 C313 1.367 . S
C314 H328 0.950 . S
C315 C312 1.481 . S
C315 C316 1.297 . S
C315 H329 0.950 . S
C316 C315 1.297 . S
C316 C317 1.479 . S
C316 H330 0.950 . S
C317 C316 1.479 . S
C317 C318 1.375 . S
C317 C323 1.404 . S
C318 C317 1.375 . S
C318 C319 1.369 . S
C318 H331 0.950 . S
C319 C318 1.369 . S
C319 C320 1.392 . S
C319 H332 0.951 . S
C320 C319 1.392 . S
C320 C322 1.384 . S
H321 C323 0.949 . S
C322 C320 1.384 . S
C322 C323 1.385 . S
C322 H324 0.950 . S
C323 C317 1.404 . S
C323 H321 0.949 . S
C323 C322 1.385 . S
H324 C322 0.950 . S
H325 C309 0.951 . S
H326 C311 0.951 . S
H327 C313 0.951 . S
H328 C314 0.950 . S
H329 C315 0.950 . S
H330 C316 0.950 . S
H331 C318 0.950 . S
H332 C319 0.951 . S
C333 C334 1.386 . S
C333 C335 1.383 . S
C333 H349 0.951 . S
C334 C333 1.386 . S
C334 C338 1.383 . S
C335 C333 1.383 . S
C335 C336 1.402 . S
C335 H350 0.951 . S
C336 C335 1.402 . S
C336 C337 1.375 . S
C336 C339 1.481 . S
C337 C336 1.375 . S
C337 C338 1.367 . S
C337 H351 0.951 . S
C338 C334 1.383 . S
C338 C337 1.367 . S
C338 H352 0.950 . S
C339 C336 1.481 . S
C339 C340 1.297 . S
C339 H353 0.950 . S
C340 C339 1.297 . S
C340 C341 1.479 . S
C340 H354 0.950 . S
C341 C340 1.479 . S
C341 C342 1.375 . S
C341 C347 1.404 . S
C342 C341 1.375 . S
C342 C343 1.369 . S
C342 H355 0.950 . S
C343 C342 1.369 . S
C343 C344 1.392 . S
C343 H356 0.951 . S
C344 C343 1.392 . S
C344 C346 1.384 . S
H345 C347 0.949 . S
C346 C344 1.384 . S
C346 C347 1.385 . S
C346 H348 0.950 . S
C347 C341 1.404 . S
C347 H345 0.949 . S
C347 C346 1.385 . S
H348 C346 0.950 . S
H349 C333 0.951 . S
H350 C335 0.951 . S
H351 C337 0.951 . S
H352 C338 0.950 . S
H353 C339 0.950 . S
H354 C340 0.950 . S
H355 C342 0.950 . S
H356 C343 0.951 . S
C357 C358 1.386 . S
C357 C359 1.383 . S
C357 H373 0.951 . S
C358 C357 1.386 . S
C358 C362 1.383 . S
C359 C357 1.383 . S
C359 C360 1.402 . S
C359 H374 0.951 . S
C360 C359 1.402 . S
C360 C361 1.375 . S
C360 C363 1.481 . S
C361 C360 1.375 . S
C361 C362 1.367 . S
C361 H375 0.951 . S
C362 C358 1.383 . S
C362 C361 1.367 . S
C362 H376 0.950 . S
C363 C360 1.481 . S
C363 C364 1.297 . S
C363 H377 0.950 . S
C364 C363 1.297 . S
C364 C365 1.479 . S
C364 H378 0.950 . S
C365 C364 1.479 . S
C365 C366 1.375 . S
C365 C371 1.404 . S
C366 C365 1.375 . S
C366 C367 1.369 . S
C366 H379 0.950 . S
C367 C366 1.369 . S
C367 C368 1.392 . S
C367 H380 0.951 . S
C368 C367 1.392 . S
C368 C370 1.384 . S
H369 C371 0.949 . S
C370 C368 1.384 . S
C370 C371 1.385 . S
C370 H372 0.950 . S
C371 C365 1.404 . S
C371 H369 0.949 . S
C371 C370 1.385 . S
H372 C370 0.950 . S
H373 C357 0.951 . S
H374 C359 0.951 . S
H375 C361 0.951 . S
H376 C362 0.950 . S
H377 C363 0.950 . S
H378 C364 0.950 . S
H379 C366 0.950 . S
H380 C367 0.951 . S
C381 C382 1.386 . S
C381 C383 1.383 . S
C381 H397 0.951 . S
C382 C381 1.386 . S
C382 C386 1.383 . S
C383 C381 1.383 . S
C383 C384 1.402 . S
C383 H398 0.951 . S
C384 C383 1.402 . S
C384 C385 1.375 . S
C384 C387 1.481 . S
C385 C384 1.375 . S
C385 C386 1.367 . S
C385 H399 0.951 . S
C386 C382 1.383 . S
C386 C385 1.367 . S
C386 H400 0.950 . S
C387 C384 1.481 . S
C387 C388 1.297 . S
C387 H401 0.950 . S
C388 C387 1.297 . S
C388 C389 1.479 . S
C388 H402 0.950 . S
C389 C388 1.479 . S
C389 C390 1.375 . S
C389 C395 1.404 . S
C390 C389 1.375 . S
C390 C391 1.369 . S
C390 H403 0.950 . S
C391 C390 1.369 . S
C391 C392 1.392 . S
C391 H404 0.951 . S
C392 C391 1.392 . S
C392 C394 1.384 1_565 S
H393 C395 0.949 1_545 S
C394 C392 1.384 1_545 S
C394 C395 1.385 1_545 S
C394 H396 0.950 . S
C395 C389 1.404 . S
C395 H393 0.949 1_565 S
C395 C394 1.385 1_565 S
H396 C394 0.950 . S
H397 C381 0.951 . S
H398 C383 0.951 . S
H399 C385 0.951 . S
H400 C386 0.950 . S
H401 C387 0.950 . S
H402 C388 0.950 . S
H403 C390 0.950 . S
H404 C391 0.951 . S
C405 C406 1.386 . S
C405 C407 1.383 . S
C405 H421 0.951 . S
C406 C405 1.386 . S
C406 C410 1.383 . S
C407 C405 1.383 . S
C407 C408 1.402 . S
C407 H422 0.951 . S
C408 C407 1.402 . S
C408 C409 1.375 . S
C408 C411 1.481 . S
C409 C408 1.375 . S
C409 C410 1.367 . S
C409 H423 0.951 . S
C410 C406 1.383 . S
C410 C409 1.367 . S
C410 H424 0.950 . S
C411 C408 1.481 . S
C411 C412 1.297 . S
C411 H425 0.950 . S
C412 C411 1.297 . S
C412 C413 1.479 . S
C412 H426 0.950 . S
C413 C412 1.479 . S
C413 C414 1.375 . S
C413 C419 1.404 . S
C414 C413 1.375 . S
C414 C415 1.369 . S
C414 H427 0.950 . S
C415 C414 1.369 . S
C415 C416 1.392 . S
C415 H428 0.951 . S
C416 C415 1.392 . S
C416 C418 1.384 . S
H417 C419 0.949 . S
C418 C416 1.384 . S
C418 C419 1.385 . S
C418 H420 0.946 1_545 S
C419 C413 1.404 . S
C419 H417 0.949 . S
C419 C418 1.385 . S
H420 C418 0.946 1_565 S
H421 C405 0.951 . S
H422 C407 0.951 . S
H423 C409 0.951 . S
H424 C410 0.950 . S
H425 C411 0.950 . S
H426 C412 0.950 . S
H427 C414 0.950 . S
H428 C415 0.951 . S
C429 C430 1.393 . S
C429 C431 1.383 . S
C429 H445 0.951 1_655 S
C430 C429 1.393 . S
C430 C434 1.384 . S
C431 C429 1.383 . S
C431 C432 1.402 . S
C431 H446 0.951 . S
C432 C431 1.402 . S
C432 C433 1.375 . S
C432 C435 1.481 . S
C433 C432 1.375 . S
C433 C434 1.367 . S
C433 H447 0.951 . S
C434 C430 1.384 . S
C434 C433 1.367 . S
C434 H448 0.950 . S
C435 C432 1.481 . S
C435 C436 1.297 . S
C435 H449 0.950 . S
C436 C435 1.297 . S
C436 C437 1.479 . S
C436 H450 0.950 . S
C437 C436 1.479 . S
C437 C438 1.375 . S
C437 C443 1.404 . S
C438 C437 1.375 . S
C438 C439 1.369 . S
C438 H451 0.950 . S
C439 C438 1.369 . S
C439 C440 1.392 . S
C439 H452 0.951 . S
C440 C439 1.392 . S
C440 C442 1.384 . S
H441 C443 0.949 . S
C442 C440 1.384 . S
C442 C443 1.385 . S
C442 H444 0.950 . S
C443 C437 1.404 . S
C443 H441 0.949 . S
C443 C442 1.385 . S
H444 C442 0.950 . S
H445 C429 0.951 1_455 S
H446 C431 0.951 . S
H447 C433 0.951 . S
H448 C434 0.950 . S
H449 C435 0.950 . S
H450 C436 0.950 . S
H451 C438 0.950 . S
H452 C439 0.951 . S
C453 C454 1.386 . S
C453 C455 1.383 . S
C453 H469 0.951 . S
C454 C453 1.386 . S
C454 C458 1.383 . S
C455 C453 1.383 . S
C455 C456 1.402 . S
C455 H470 0.951 . S
C456 C455 1.402 . S
C456 C457 1.375 . S
C456 C459 1.481 . S
C457 C456 1.375 . S
C457 C458 1.367 . S
C457 H471 0.951 . S
C458 C454 1.383 . S
C458 C457 1.367 . S
C458 H472 0.950 . S
C459 C456 1.481 . S
C459 C460 1.297 . S
C459 H473 0.950 . S
C460 C459 1.297 . S
C460 C461 1.479 . S
C460 H474 0.950 . S
C461 C460 1.479 . S
C461 C462 1.375 . S
C461 C467 1.404 . S
C462 C461 1.375 . S
C462 C463 1.369 . S
C462 H475 0.950 . S
C463 C462 1.369 . S
C463 C464 1.392 . S
C463 H476 0.951 . S
C464 C463 1.392 . S
C464 C466 1.384 . S
H465 C467 0.949 . S
C466 C464 1.384 . S
C466 C467 1.385 . S
C466 H468 0.950 . S
C467 C461 1.404 . S
C467 H465 0.949 . S
C467 C466 1.385 . S
H468 C466 0.950 . S
H469 C453 0.951 . S
H470 C455 0.951 . S
H471 C457 0.951 . S
H472 C458 0.950 . S
H473 C459 0.950 . S
H474 C460 0.950 . S
H475 C462 0.950 . S
H476 C463 0.951 . S
C477 C478 1.386 . S
C477 C479 1.383 . S
C477 H493 0.951 . S
C478 C477 1.386 . S
C478 C482 1.383 . S
C479 C477 1.383 . S
C479 C480 1.402 . S
C479 H494 0.951 . S
C480 C479 1.402 . S
C480 C481 1.375 . S
C480 C483 1.481 . S
C481 C480 1.375 . S
C481 C482 1.367 . S
C481 H495 0.951 . S
C482 C478 1.383 . S
C482 C481 1.367 . S
C482 H496 0.950 . S
C483 C480 1.481 . S
C483 C484 1.297 . S
C483 H497 0.950 . S
C484 C483 1.297 . S
C484 C485 1.479 1_455 S
C484 H498 0.950 . S
C485 C484 1.479 1_655 S
C485 C486 1.375 1_655 S
C485 C491 1.404 . S
C486 C485 1.375 1_455 S
C486 C487 1.369 1_455 S
C486 H499 0.950 . S
C487 C486 1.369 1_655 S
C487 C488 1.392 . S
C487 H500 0.951 . S
C488 C487 1.392 . S
C488 C490 1.384 . S
H489 C491 0.949 . S
C490 C488 1.384 . S
C490 C491 1.385 . S
C490 H492 0.950 . S
C491 C485 1.404 . S
C491 H489 0.949 . S
C491 C490 1.385 . S
H492 C490 0.950 . S
H493 C477 0.951 . S
H494 C479 0.951 . S
H495 C481 0.951 . S
H496 C482 0.950 . S
H497 C483 0.950 . S
H498 C484 0.950 . S
H499 C486 0.950 . S
H500 C487 0.951 . S
C501 C502 1.386 . S
C501 C503 1.383 . S
C501 H517 0.951 . S
C502 C501 1.386 . S
C502 C506 1.383 . S
C503 C501 1.383 . S
C503 C504 1.402 . S
C503 H518 0.951 . S
C504 C503 1.402 . S
C504 C505 1.375 . S
C504 C507 1.481 . S
C505 C504 1.375 . S
C505 C506 1.367 . S
C505 H519 0.951 . S
C506 C502 1.383 . S
C506 C505 1.367 . S
C506 H520 0.950 . S
C507 C504 1.481 . S
C507 C508 1.297 . S
C507 H521 0.950 . S
C508 C507 1.297 . S
C508 C509 1.479 . S
C508 H522 0.950 . S
C509 C508 1.479 . S
C509 C510 1.375 . S
C509 C515 1.404 . S
C510 C509 1.375 . S
C510 C511 1.369 . S
C510 H523 0.950 . S
C511 C510 1.369 . S
C511 C512 1.392 . S
C511 H524 0.951 . S
C512 C511 1.392 . S
C512 C514 1.384 . S
H513 C515 0.949 . S
C514 C512 1.384 . S
C514 C515 1.385 . S
C514 H516 0.950 . S
C515 C509 1.404 . S
C515 H513 0.949 . S
C515 C514 1.385 . S
H516 C514 0.950 . S
H517 C501 0.951 . S
H518 C503 0.951 . S
H519 C505 0.951 . S
H520 C506 0.950 . S
H521 C507 0.950 . S
H522 C508 0.950 . S
H523 C510 0.950 . S
H524 C511 0.951 . S
C525 C526 1.386 . S
C525 C527 1.383 . S
C525 H541 0.951 . S
C526 C525 1.386 . S
C526 C530 1.383 . S
C527 C525 1.383 . S
C527 C528 1.402 . S
C527 H542 0.951 . S
C528 C527 1.402 . S
C528 C529 1.375 . S
C528 C531 1.481 1_565 S
C529 C528 1.375 . S
C529 C530 1.367 . S
C529 H543 0.951 1_565 S
C530 C526 1.383 . S
C530 C529 1.367 . S
C530 H544 0.950 . S
C531 C528 1.481 1_545 S
C531 C532 1.297 . S
C531 H545 0.950 . S
C532 C531 1.297 . S
C532 C533 1.479 . S
C532 H546 0.950 1_545 S
C533 C532 1.479 . S
C533 C534 1.375 . S
C533 C539 1.404 . S
C534 C533 1.375 . S
C534 C535 1.369 . S
C534 H547 0.950 . S
C535 C534 1.369 . S
C535 C536 1.392 . S
C535 H548 0.951 . S
C536 C535 1.392 . S
C536 C538 1.384 . S
H537 C539 0.949 . S
C538 C536 1.384 . S
C538 C539 1.385 . S
C538 H540 0.950 . S
C539 C533 1.404 . S
C539 H537 0.949 . S
C539 C538 1.385 . S
H540 C538 0.950 . S
H541 C525 0.951 . S
H542 C527 0.951 . S
H543 C529 0.951 1_545 S
H544 C530 0.950 . S
H545 C531 0.950 . S
H546 C532 0.950 1_565 S
H547 C534 0.950 . S
H548 C535 0.951 . S
C118 C31 0.896 . S
C128 C10 0.903 . S
C142 C18 0.887 . S
C152 C5 0.923 1_556 S
C166 C23 0.873 . S
C176 C36 0.901 . S
C190 C75 0.849 . S
C200 C49 0.870 . S
C214 C57 0.802 . S
C224 C44 0.817 . S
C238 C62 0.875 . S
C248 C70 0.761 . S
C262 C88 0.897 . S
C272 C109 0.955 . S
C286 C83 0.740 . S
C296 C96 0.733 . S
C310 C101 0.879 . S
C320 C114 0.911 . S
C334 C0 1.295 . S
C344 C91 1.300 . S
C358 C21 1.279 . S
C368 C112 1.308 . S
C382 C86 1.242 . S
C392 C26 1.232 . S
C406 C60 1.241 . S
C416 C34 1.264 . S
C430 C8 1.214 1_655 S
C440 C73 1.211 . S
C454 C39 1.249 . S
C464 C13 1.282 . S
C478 C99 1.236 . S
C488 C65 1.268 . S
C502 C47 1.241 . S
C512 C104 1.221 . S
C526 C78 1.283 . S
C536 C52 1.316 . S
