# Generated by pormake.
# Topology wmi, (6)-cn, num edge types: 1
# Building blocks:
#     Node 0, Type 0, BuildingBlock: MAKGUD_clean_sbu_1, # of connection points: 6
#     Node 1, Type 0, BuildingBlock: MAKGUD_clean_sbu_1, # of connection points: 6
#     Node 2, Type 0, BuildingBlock: MAKGUD_clean_sbu_1, # of connection points: 6
#     Node 3, Type 0, BuildingBlock: MAKGUD_clean_sbu_1, # of connection points: 6
#     Node 4, Type 0, BuildingBlock: MAKGUD_clean_sbu_1, # of connection points: 6
#     Node 5, Type 0, BuildingBlock: MAKGUD_clean_sbu_1, # of connection points: 6
#     Node 6, Type 0, BuildingBlock: MAKGUD_clean_sbu_1, # of connection points: 6
#     Node 7, Type 0, BuildingBlock: MAKGUD_clean_sbu_1, # of connection points: 6
#     Node 8, Type 0, BuildingBlock: MAKGUD_clean_sbu_1, # of connection points: 6
#     Node 9, Type 0, BuildingBlock: MAKGUD_clean_sbu_1, # of connection points: 6
#     Node 10, Type 0, BuildingBlock: MAKGUD_clean_sbu_1, # of connection points: 6
#     Node 11, Type 0, BuildingBlock: MAKGUD_clean_sbu_1, # of connection points: 6
#     Node 12, Type 0, BuildingBlock: MAKGUD_clean_sbu_1, # of connection points: 6
#     Node 13, Type 0, BuildingBlock: MAKGUD_clean_sbu_1, # of connection points: 6
#     Node 14, Type 0, BuildingBlock: MAKGUD_clean_sbu_1, # of connection points: 6
#     Node 15, Type 0, BuildingBlock: MAKGUD_clean_sbu_1, # of connection points: 6
#     Node 16, Type 0, BuildingBlock: MAKGUD_clean_sbu_1, # of connection points: 6
#     Node 17, Type 0, BuildingBlock: MAKGUD_clean_sbu_1, # of connection points: 6
#     Edge 18, Type (0, 0), BuildingBlock: XIVTED_clean_linker_0, # of connection points: 2
#     Edge 19, Type (0, 0), BuildingBlock: XIVTED_clean_linker_0, # of connection points: 2
#     Edge 20, Type (0, 0), BuildingBlock: XIVTED_clean_linker_0, # of connection points: 2
#     Edge 21, Type (0, 0), BuildingBlock: XIVTED_clean_linker_0, # of connection points: 2
#     Edge 22, Type (0, 0), BuildingBlock: XIVTED_clean_linker_0, # of connection points: 2
#     Edge 23, Type (0, 0), BuildingBlock: XIVTED_clean_linker_0, # of connection points: 2
#     Edge 24, Type (0, 0), BuildingBlock: XIVTED_clean_linker_0, # of connection points: 2
#     Edge 25, Type (0, 0), BuildingBlock: XIVTED_clean_linker_0, # of connection points: 2
#     Edge 26, Type (0, 0), BuildingBlock: XIVTED_clean_linker_0, # of connection points: 2
#     Edge 27, Type (0, 0), BuildingBlock: XIVTED_clean_linker_0, # of connection points: 2
#     Edge 28, Type (0, 0), BuildingBlock: XIVTED_clean_linker_0, # of connection points: 2
#     Edge 29, Type (0, 0), BuildingBlock: XIVTED_clean_linker_0, # of connection points: 2
#     Edge 30, Type (0, 0), BuildingBlock: XIVTED_clean_linker_0, # of connection points: 2
#     Edge 31, Type (0, 0), BuildingBlock: XIVTED_clean_linker_0, # of connection points: 2
#     Edge 32, Type (0, 0), BuildingBlock: XIVTED_clean_linker_0, # of connection points: 2
#     Edge 33, Type (0, 0), BuildingBlock: XIVTED_clean_linker_0, # of connection points: 2
#     Edge 34, Type (0, 0), BuildingBlock: XIVTED_clean_linker_0, # of connection points: 2
#     Edge 35, Type (0, 0), BuildingBlock: XIVTED_clean_linker_0, # of connection points: 2
#     Edge 36, Type (0, 0), BuildingBlock: XIVTED_clean_linker_0, # of connection points: 2
#     Edge 37, Type (0, 0), BuildingBlock: XIVTED_clean_linker_0, # of connection points: 2
#     Edge 38, Type (0, 0), BuildingBlock: XIVTED_clean_linker_0, # of connection points: 2
#     Edge 39, Type (0, 0), BuildingBlock: XIVTED_clean_linker_0, # of connection points: 2
#     Edge 40, Type (0, 0), BuildingBlock: XIVTED_clean_linker_0, # of connection points: 2
#     Edge 41, Type (0, 0), BuildingBlock: XIVTED_clean_linker_0, # of connection points: 2
#     Edge 42, Type (0, 0), BuildingBlock: XIVTED_clean_linker_0, # of connection points: 2
#     Edge 43, Type (0, 0), BuildingBlock: XIVTED_clean_linker_0, # of connection points: 2
#     Edge 44, Type (0, 0), BuildingBlock: XIVTED_clean_linker_0, # of connection points: 2
#     Edge 45, Type (0, 0), BuildingBlock: XIVTED_clean_linker_0, # of connection points: 2
#     Edge 46, Type (0, 0), BuildingBlock: XIVTED_clean_linker_0, # of connection points: 2
#     Edge 47, Type (0, 0), BuildingBlock: XIVTED_clean_linker_0, # of connection points: 2
#     Edge 48, Type (0, 0), BuildingBlock: XIVTED_clean_linker_0, # of connection points: 2
#     Edge 49, Type (0, 0), BuildingBlock: XIVTED_clean_linker_0, # of connection points: 2
#     Edge 50, Type (0, 0), BuildingBlock: XIVTED_clean_linker_0, # of connection points: 2
#     Edge 51, Type (0, 0), BuildingBlock: XIVTED_clean_linker_0, # of connection points: 2
#     Edge 52, Type (0, 0), BuildingBlock: XIVTED_clean_linker_0, # of connection points: 2
#     Edge 53, Type (0, 0), BuildingBlock: XIVTED_clean_linker_0, # of connection points: 2
#     Edge 54, Type (0, 0), BuildingBlock: XIVTED_clean_linker_0, # of connection points: 2
#     Edge 55, Type (0, 0), BuildingBlock: XIVTED_clean_linker_0, # of connection points: 2
#     Edge 56, Type (0, 0), BuildingBlock: XIVTED_clean_linker_0, # of connection points: 2
#     Edge 57, Type (0, 0), BuildingBlock: XIVTED_clean_linker_0, # of connection points: 2
#     Edge 58, Type (0, 0), BuildingBlock: XIVTED_clean_linker_0, # of connection points: 2
#     Edge 59, Type (0, 0), BuildingBlock: XIVTED_clean_linker_0, # of connection points: 2
#     Edge 60, Type (0, 0), BuildingBlock: XIVTED_clean_linker_0, # of connection points: 2
#     Edge 61, Type (0, 0), BuildingBlock: XIVTED_clean_linker_0, # of connection points: 2
#     Edge 62, Type (0, 0), BuildingBlock: XIVTED_clean_linker_0, # of connection points: 2
#     Edge 63, Type (0, 0), BuildingBlock: XIVTED_clean_linker_0, # of connection points: 2
#     Edge 64, Type (0, 0), BuildingBlock: XIVTED_clean_linker_0, # of connection points: 2
#     Edge 65, Type (0, 0), BuildingBlock: XIVTED_clean_linker_0, # of connection points: 2
#     Edge 66, Type (0, 0), BuildingBlock: XIVTED_clean_linker_0, # of connection points: 2
#     Edge 67, Type (0, 0), BuildingBlock: XIVTED_clean_linker_0, # of connection points: 2
#     Edge 68, Type (0, 0), BuildingBlock: XIVTED_clean_linker_0, # of connection points: 2
#     Edge 69, Type (0, 0), BuildingBlock: XIVTED_clean_linker_0, # of connection points: 2
#     Edge 70, Type (0, 0), BuildingBlock: XIVTED_clean_linker_0, # of connection points: 2
#     Edge 71, Type (0, 0), BuildingBlock: XIVTED_clean_linker_0, # of connection points: 2
# Relax obj value: 0.140
# Max RMSD: 0.269
# Mean RMSD: 0.269
data_MOF--net-wmi--node1-MAKGUD_clean_sbu_1--edge1-XIVTED_clean_linker_0
_symmetry_space_group_name_H-M    P1
_symmetry_Int_Tables_number       1
_symmetry_cell_setting            triclinic
loop_
_symmetry_equiv_pos_as_xyz
'x, y, z'
_cell_length_a     36.704749
_cell_length_b     36.756194
_cell_length_c     77.9259
_cell_angle_alpha  90.047131
_cell_angle_beta   90.017967
_cell_angle_gamma 119.65218
loop_
_atom_site_label
_atom_site_type_symbol
_atom_site_fract_x
_atom_site_fract_y
_atom_site_fract_z
_atom_type_partial_charge
O0 O 0.61304 0.16309 0.09858 0.0
Tb1 Tb 0.58476 0.09744 0.09057 0.0
C2 C 0.54862 0.04086 0.05467 0.0
O3 O 0.50202 1.01166 0.10203 0.0
Tb4 Tb 0.51963 0.97508 0.08597 0.0
C5 C 0.45416 0.89736 0.08513 0.0
O6 O 0.56137 0.06214 0.11438 0.0
O7 O 0.57033 0.96677 0.09616 0.0
C8 C 0.56108 0.93845 0.10825 0.0
O9 O 0.52557 0.92498 0.11657 0.0
O10 O 0.56881 0.0758 0.06385 0.0
O11 O 0.52904 1.00227 0.06071 0.0
O12 O 0.6509 0.11694 0.0881 0.0
C13 C 0.52351 1.02993 0.11582 0.0
C14 C 0.58249 0.16909 0.09385 0.0
O15 O 0.45636 0.92812 0.09408 0.0
O16 O 0.48848 0.91057 0.07638 0.0
C17 C 0.67118 0.14009 0.07478 0.0
O18 O 0.64977 0.147 0.06298 0.0
O19 O 0.55267 0.13437 0.08734 0.0
O20 O 0.98322 0.38917 0.0919 0.0
Tb21 Tb 1.02546 0.45102 0.08118 0.0
C22 C 0.10089 0.50054 0.05688 0.0
O23 O 0.11315 0.47251 0.09427 0.0
Tb24 Tb 0.17168 0.51867 0.08274 0.0
C25 C 0.22624 0.49275 0.07565 0.0
O26 O 1.05489 0.46547 0.10653 0.0
O27 O 0.20446 0.5806 0.09421 0.0
C28 C 0.2432 0.59485 0.09951 0.0
O29 O 0.25791 0.56879 0.10032 0.0
O30 O 0.08081 0.46608 0.06592 0.0
O31 O 0.14112 0.52571 0.05994 0.0
O32 O 1.00089 0.49394 0.08044 0.0
C33 C 0.09514 0.47789 0.10781 0.0
C34 C 0.96344 0.37248 0.07765 0.0
O35 O 0.20466 0.48491 0.08976 0.0
O36 O 0.21604 0.51417 0.06536 0.0
C37 C 0.98089 0.49687 0.06698 0.0
O38 O 0.97908 0.47631 0.05291 0.0
O39 O 0.97907 0.39993 0.06535 0.0
O40 O 0.73178 0.54888 0.1018 0.0
Tb41 Tb 0.67775 0.55421 0.09361 0.0
C42 C 0.64554 0.59189 0.0643 0.0
O43 O 0.62141 0.59364 0.10901 0.0
Tb44 Tb 0.60911 0.62826 0.08966 0.0
C45 C 0.62257 0.70469 0.09761 0.0
O46 O 0.68542 0.60006 0.11323 0.0
O47 O 0.54644 0.59021 0.07934 0.0
C48 C 0.51835 0.55792 0.08809 0.0
O49 O 0.52978 0.54768 0.10245 0.0
O50 O 0.64869 0.55953 0.06985 0.0
O51 O 0.65648 0.62489 0.0741 0.0
O52 O 0.63877 0.48746 0.09938 0.0
C53 C 0.65762 0.61152 0.11696 0.0
C54 C 0.75337 0.56301 0.0878 0.0
O55 O 0.6067 0.67246 0.10786 0.0
O56 O 0.63179 0.69399 0.08296 0.0
C57 C 0.62476 0.45984 0.08676 0.0
O58 O 0.62957 0.47347 0.07089 0.0
O59 O 0.73251 0.57264 0.07697 0.0
O60 O 0.20541 0.56238 0.89475 0.0
Tb61 Tb 0.15093 0.5601 0.90747 0.0
C62 C 0.08168 0.53625 0.93473 0.0
O63 O 0.06607 0.54389 0.88238 0.0
Tb64 Tb 1.02638 0.53288 0.90485 0.0
C65 C 0.96869 0.45187 0.90837 0.0
O66 O 0.11107 0.51802 0.88749 0.0
O67 O 0.99061 0.56557 0.90258 0.0
C68 C 0.96278 0.55468 0.89017 0.0
O69 O 0.9614 0.52826 0.87846 0.0
O70 O 0.11173 0.52933 0.92951 0.0
O71 O 0.07162 0.56007 0.92565 0.0
O72 O 0.16907 0.62618 0.90718 0.0
C73 C 0.08135 0.51915 0.87838 0.0
C74 C 0.22199 0.55628 0.90842 0.0
O75 O 0.98611 0.47037 0.89408 0.0
O76 O 0.98496 0.47877 0.92084 0.0
C77 C 0.18664 0.64841 0.9211 0.0
O78 O 0.1868 0.62856 0.93509 0.0
O79 O 0.19833 0.55206 0.92155 0.0
O80 O 0.60567 0.7114 0.89578 0.0
Tb81 Tb 0.60475 0.65652 0.90722 0.0
C82 C 0.61879 0.60692 0.93658 0.0
O83 O 0.6144 0.59453 0.8789 0.0
Tb84 Tb 0.6244 0.56653 0.9016 0.0
C85 C 0.70068 0.57417 0.89969 0.0
O86 O 0.6478 0.66324 0.88684 0.0
O87 O 0.58128 0.49939 0.90056 0.0
C88 C 0.57437 0.47863 0.88605 0.0
O89 O 0.58958 0.49972 0.87175 0.0
O90 O 0.63217 0.64409 0.92965 0.0
O91 O 0.60413 0.57245 0.92729 0.0
O92 O 0.53846 0.61071 0.90443 0.0
C93 C 0.64033 0.63405 0.87544 0.0
C94 C 0.60771 0.73054 0.91006 0.0
O95 O 0.69229 0.60069 0.90744 0.0
O96 O 0.66633 0.54388 0.89338 0.0
C97 C 0.51403 0.60292 0.9179 0.0
O98 O 0.53173 0.61768 0.93287 0.0
O99 O 0.60845 0.70812 0.92281 0.0
O100 O 0.43648 0.95747 0.89586 0.0
Tb101 Tb 0.49662 1.00632 0.90562 0.0
C102 C 0.54927 0.08685 0.92849 0.0
O103 O 0.55767 0.09032 0.88822 0.0
Tb104 Tb 0.58716 0.15257 0.89947 0.0
C105 C 0.55302 0.20108 0.89485 0.0
O106 O 0.49671 1.03401 0.88087 0.0
O107 O 0.6553 0.19014 0.89803 0.0
C108 C 0.6762 0.21095 0.91176 0.0
O109 O 0.65521 0.20687 0.92596 0.0
O110 O 0.51757 0.06743 0.91772 0.0
O111 O 0.5784 0.12575 0.92504 0.0
O112 O 0.54027 0.98244 0.90559 0.0
C113 C 0.5248 0.07337 0.87806 0.0
C114 C 0.41908 0.94292 0.91067 0.0
O115 O 0.56865 0.18843 0.88277 0.0
O116 O 0.55578 0.18551 0.9095 0.0
C117 C 0.54457 0.96477 0.91955 0.0
O118 O 0.52627 0.96671 0.93373 0.0
O119 O 0.44521 0.96492 0.92287 0.0
O120 O 0.20419 0.49727 0.43377 0.0
Tb121 Tb 0.21567 0.44822 0.42351 0.0
C122 C 0.19925 0.37807 0.39712 0.0
O123 O 0.1459 0.35602 0.4338 0.0
Tb124 Tb 0.17041 0.31476 0.4277 0.0
C125 C 0.10728 0.23637 0.42715 0.0
O126 O 0.18646 0.41726 0.44757 0.0
O127 O 0.22368 0.32569 0.44353 0.0
C128 C 0.24284 0.30335 0.44411 0.0
O129 O 0.27656 0.3172 0.4537 0.0
O130 O 0.18147 0.39639 0.40555 0.0
O131 O 0.19745 0.3436 0.40319 0.0
O132 O 0.28249 0.47017 0.42453 0.0
C133 C 0.15713 0.37762 0.44807 0.0
C134 C 0.20633 0.51568 0.41928 0.0
O135 O 0.11674 0.26238 0.43989 0.0
O136 O 0.13403 0.25428 0.4147 0.0
C137 C 0.30514 0.4845 0.4105 0.0
O138 O 0.28592 0.48058 0.39582 0.0
O139 O 0.21272 0.49536 0.40702 0.0
O140 O 0.60479 0.74831 0.43335 0.0
Tb141 Tb 0.66509 0.79721 0.42395 0.0
C142 C 0.73254 0.83194 0.39292 0.0
O143 O 0.76154 0.84846 0.43666 0.0
Tb144 Tb 0.80799 0.85993 0.41726 0.0
C145 C 0.86709 0.83925 0.42335 0.0
O146 O 0.70308 0.78795 0.44313 0.0
O147 O 0.84067 0.92644 0.41175 0.0
C148 C 0.85149 0.95201 0.42495 0.0
O149 O 0.83706 0.93602 0.44017 0.0
O150 O 0.69751 0.82731 0.39993 0.0
O151 O 0.75578 0.8186 0.40063 0.0
O152 O 0.63929 0.83835 0.42989 0.0
C153 C 0.74344 0.81311 0.44516 0.0
C154 C 0.59604 0.7228 0.42052 0.0
O155 O 0.84873 0.85023 0.43489 0.0
O156 O 0.85079 0.83828 0.40835 0.0
C157 C 0.62269 0.84973 0.41739 0.0
O158 O 0.62707 0.84045 0.40152 0.0
O159 O 0.62639 0.7392 0.40934 0.0
O160 O 0.34714 0.87708 0.43567 0.0
Tb161 Tb 0.30726 0.9017 0.42625 0.0
C162 C 0.27802 0.93113 0.39034 0.0
O163 O 0.30736 0.98759 0.43426 0.0
Tb164 Tb 0.24944 0.97099 0.42113 0.0
C165 C 0.23923 0.03846 0.42115 0.0
O166 O 0.29969 0.93178 0.44922 0.0
O167 O 0.18736 0.91715 0.42579 0.0
C168 C 0.16494 0.91505 0.43936 0.0
O169 O 0.18356 0.94052 0.4523 0.0
O170 O 0.29708 0.91488 0.39956 0.0
O171 O 0.25853 0.95086 0.39621 0.0
O172 O 0.26359 0.83428 0.42536 0.0
C173 C 0.30638 0.97035 0.44899 0.0
C174 C 0.38185 0.90458 0.42849 0.0
O175 O 0.23238 1.01348 0.43404 0.0
O176 O 0.25236 1.02569 0.40815 0.0
C177 C 0.26729 0.81278 0.41255 0.0
O178 O 0.29332 0.83362 0.40005 0.0
O179 O 0.3748 0.93123 0.42014 0.0
O180 O 0.84782 0.87222 0.24146 0.0
Tb181 Tb 0.80625 0.89542 0.23218 0.0
C182 C 0.7481 0.8763 0.26524 0.0
O183 O 0.71116 0.81853 0.223 0.0
Tb184 Tb 0.69016 0.8601 0.23313 0.0
C185 C 0.60701 0.81059 0.2339 0.0
O186 O 0.77171 0.86304 0.20914 0.0
O187 O 0.711 0.91915 0.21976 0.0
C188 C 0.68855 0.93626 0.21452 0.0
O189 O 0.70784 0.97079 0.20544 0.0
O190 O 0.7738 0.86786 0.25638 0.0
O191 O 0.71967 0.88341 0.25797 0.0
O192 O 0.8239 0.96102 0.23472 0.0
C193 C 0.73541 0.82824 0.20947 0.0
C194 C 0.87957 0.89521 0.23159 0.0
O195 O 0.62911 0.82898 0.22034 0.0
O196 O 0.63166 0.82169 0.24721 0.0
C197 C 0.84461 0.98167 0.2485 0.0
O198 O 0.84733 0.96041 0.26151 0.0
O199 O 0.86983 0.91802 0.22201 0.0
O200 O 0.25892 0.03894 0.22167 0.0
Tb201 Tb 0.26697 0.98808 0.23188 0.0
C202 C 0.29525 0.94753 0.26247 0.0
O203 O 0.30263 0.92682 0.22038 0.0
Tb204 Tb 0.33352 0.90764 0.239 0.0
C205 C 0.41032 0.91777 0.2345 0.0
O206 O 0.31195 0.99034 0.21299 0.0
O207 O 0.28989 0.84205 0.2442 0.0
C208 C 0.27037 0.81759 0.23105 0.0
O209 O 0.27541 0.83477 0.21582 0.0
O210 O 0.26848 0.95866 0.25624 0.0
O211 O 0.32984 0.95565 0.25421 0.0
O212 O 0.19962 0.94968 0.2269 0.0
C213 C 0.32327 0.96169 0.2117 0.0
C214 C 0.27621 0.0648 0.23435 0.0
O215 O 0.38356 0.91191 0.22228 0.0
O216 O 0.3942 0.91945 0.24923 0.0
C217 C 0.17342 0.94361 0.23962 0.0
O218 O 0.18901 0.95651 0.25504 0.0
O219 O 0.28894 0.04761 0.24578 0.0
O220 O 0.11769 0.27829 0.228 0.0
Tb221 Tb 0.16438 0.33995 0.23752 0.0
C222 C 0.21271 0.40953 0.26969 0.0
O223 O 0.22253 0.42406 0.221 0.0
Tb224 Tb 0.24691 0.47745 0.23758 0.0
C225 C 0.21204 0.52625 0.2359 0.0
O226 O 0.15559 0.37543 0.21752 0.0
O227 O 0.31426 0.52019 0.23682 0.0
C228 C 0.3309 0.54507 0.22352 0.0
O229 O 0.30756 0.53905 0.20987 0.0
O230 O 0.18687 0.37313 0.26211 0.0
O231 O 0.23647 0.44683 0.2625 0.0
O232 O 0.2101 0.31916 0.23385 0.0
C233 C 0.18677 0.41174 0.21325 0.0
C234 C 0.09073 0.2692 0.2403 0.0
O235 O 0.22704 0.51551 0.22297 0.0
O236 O 0.21522 0.50805 0.24967 0.0
C237 C 0.21697 0.30018 0.24675 0.0
O238 O 0.19977 0.29916 0.26165 0.0
O239 O 0.10529 0.30004 0.25124 0.0
O240 O 0.90655 0.86335 0.74363 0.0
Tb241 Tb 0.91724 0.82162 0.76067 0.0
C242 C 0.88511 0.74339 0.73053 0.0
O243 O 0.88187 0.736 0.77911 0.0
Tb244 Tb 0.85679 0.67989 0.76416 0.0
C245 C 0.77901 0.61466 0.76887 0.0
O246 O 0.8693 0.78924 0.78006 0.0
O247 O 0.90024 0.65613 0.76278 0.0
C248 C 0.91611 0.64988 0.77685 0.0
O249 O 0.90657 0.6598 0.79174 0.0
O250 O 0.90207 0.7817 0.73749 0.0
O251 O 0.86757 0.70635 0.73841 0.0
O252 O 0.98478 0.84825 0.76517 0.0
C253 C 0.85857 0.75114 0.78465 0.0
C254 C 0.91267 0.89125 0.75528 0.0
O255 O 0.81051 0.62642 0.77938 0.0
O256 O 0.79104 0.64074 0.75601 0.0
C257 C 1.01028 0.86849 0.75228 0.0
O258 O 0.99355 0.86551 0.73707 0.0
O259 O 0.92094 0.8796 0.76977 0.0
O260 O 0.31534 0.14489 0.77249 0.0
Tb261 Tb 0.37196 0.19473 0.7599 0.0
C262 C 0.43846 0.23093 0.7299 0.0
O263 O 0.46803 0.22153 0.77191 0.0
Tb264 Tb 0.49004 0.28368 0.7614 0.0
C265 C 0.57299 0.31717 0.76285 0.0
O266 O 0.40427 0.20059 0.78411 0.0
O267 O 0.46926 0.32446 0.77277 0.0
C268 C 0.49265 0.36366 0.77805 0.0
O269 O 0.47363 0.38123 0.78591 0.0
O270 O 0.41631 0.19857 0.74012 0.0
O271 O 0.46224 0.26927 0.73589 0.0
O272 O 0.35274 0.24127 0.75572 0.0
C273 C 0.44291 0.20738 0.78519 0.0
C274 C 0.30087 0.11943 0.7595 0.0
O275 O 0.55116 0.30887 0.74876 0.0
O276 O 0.54816 0.30783 0.77597 0.0
C277 C 0.33274 0.23955 0.74144 0.0
O278 O 0.33074 0.2139 0.72925 0.0
O279 O 0.32681 0.13626 0.74676 0.0
O280 O 0.06444 0.28375 0.7359 0.0
Tb281 Tb 1.01375 0.27428 0.75358 0.0
C282 C 0.96386 0.30865 0.73221 0.0
O283 O 0.95453 0.29922 0.77225 0.0
Tb284 Tb 0.93234 0.33976 0.76203 0.0
C285 C 0.97656 0.42232 0.76648 0.0
O286 O 1.01193 0.29577 0.7795 0.0
O287 O 0.86606 0.31987 0.76386 0.0
C288 C 0.85169 0.33319 0.77641 0.0
O289 O 0.87674 0.35418 0.78917 0.0
O290 O 0.9946 0.31761 0.74315 0.0
O291 O 0.93649 0.32071 0.73607 0.0
O292 O 0.97133 0.20689 0.75316 0.0
C293 C 0.98601 0.30988 0.78288 0.0
C294 C 0.0922 0.29111 0.74786 0.0
O295 O 0.96086 0.39472 0.7787 0.0
O296 O 0.96853 0.40312 0.75175 0.0
C297 C 0.96955 0.18463 0.7396 0.0
O298 O 0.98936 0.20427 0.72558 0.0
O299 O 0.07579 0.28965 0.76279 0.0
O300 O 0.52747 0.21977 0.59602 0.0
Tb301 Tb 0.48413 0.22098 0.57685 0.0
C302 C 0.41354 0.17191 0.6048 0.0
O303 O 0.40603 0.13722 0.56908 0.0
Tb304 Tb 0.34489 0.12206 0.57886 0.0
C305 C 0.28043 0.04485 0.57479 0.0
O306 O 0.45445 0.18848 0.55278 0.0
O307 O 0.32608 0.16878 0.57459 0.0
C308 C 0.30652 0.16905 0.5605 0.0
O309 O 0.30132 0.1426 0.54812 0.0
O310 O 0.42631 0.1991 0.59198 0.0
O311 O 0.37621 0.13809 0.60351 0.0
O312 O 0.5181 0.28786 0.57074 0.0
C313 C 0.41919 0.1525 0.55376 0.0
C314 C 0.54173 0.20064 0.58634 0.0
O315 O 0.30544 0.06815 0.5626 0.0
O316 O 0.29256 0.06477 0.5894 0.0
C317 C 0.53385 0.31612 0.58309 0.0
O318 O 0.52508 0.30362 0.59909 0.0
O319 O 0.52208 0.19152 0.57173 0.0
O320 O 0.95005 0.35789 0.57077 0.0
Tb321 Tb 0.92611 0.29459 0.58065 0.0
C322 C 0.98319 0.27669 0.60639 0.0
O323 O 1.002 0.29114 0.56937 0.0
Tb324 Tb 1.02338 0.24967 0.57886 0.0
C325 C 0.10049 0.26555 0.57159 0.0
O326 O 0.94852 0.28895 0.55513 0.0
O327 O 0.98056 0.18253 0.57906 0.0
C328 C 0.97472 0.16008 0.56513 0.0
O329 O 0.99162 0.17938 0.55065 0.0
O330 O 0.95212 0.26102 0.59511 0.0
O331 O 1.01503 0.27015 0.60379 0.0
O332 O 0.8577 0.26057 0.58067 0.0
C333 C 0.98333 0.28699 0.55469 0.0
C334 C 0.95143 0.37583 0.5853 0.0
O335 O 0.07113 0.25711 0.56028 0.0
O336 O 0.08658 0.26616 0.58693 0.0
C337 C 0.83774 0.26097 0.59467 0.0
O338 O 0.85984 0.2797 0.60841 0.0
O339 O 0.94007 0.34808 0.59755 0.0
O340 O 0.81673 0.60359 0.56089 0.0
Tb341 Tb 0.86213 0.66758 0.56834 0.0
C342 C 0.87295 0.72239 0.60186 0.0
O343 O 0.8511 0.74523 0.55338 0.0
Tb344 Tb 0.89557 0.78553 0.57229 0.0
C345 C 0.89638 0.85855 0.57137 0.0
O346 O 0.87434 0.70165 0.54392 0.0
O347 O 0.96076 0.79979 0.57153 0.0
C348 C 0.98417 0.82015 0.55825 0.0
O349 O 0.96577 0.8248 0.54464 0.0
O350 O 0.88452 0.69848 0.59342 0.0
O351 O 0.8622 0.74733 0.59405 0.0
O352 O 0.90055 0.63757 0.57059 0.0
C353 C 0.86256 0.72956 0.54084 0.0
C354 C 0.78439 0.6015 0.56858 0.0
O355 O 0.89633 0.83712 0.55811 0.0
O356 O 0.89555 0.83861 0.58531 0.0
C357 C 0.89533 0.61453 0.58433 0.0
O358 O 0.86957 0.6133 0.59632 0.0
O359 O 0.79558 0.63727 0.57614 0.0
H360 H 0.61677 0.93609 0.08516 0.0
H361 H 0.59944 0.72859 0.127 0.0
H362 H 0.5534 0.88199 0.13284 0.0
H363 H 0.64765 0.77215 0.0762 0.0
H364 H 0.5933 0.79134 0.13141 0.0
H365 H 0.63966 0.88377 0.08391 0.0
C366 C 0.60846 0.91389 0.09558 0.0
C367 C 0.58283 0.91337 0.10908 0.0
C368 C 0.60562 0.78745 0.11935 0.0
C369 C 0.60851 0.85289 0.10759 0.0
C370 C 0.60921 0.75163 0.11684 0.0
C371 C 0.62376 0.74497 0.10116 0.0
C372 C 0.61663 0.81697 0.10606 0.0
C373 C 0.63611 0.77597 0.08846 0.0
C374 C 0.62126 0.88374 0.09477 0.0
C375 C 0.57286 0.8835 0.12212 0.0
N376 N 0.63196 0.81041 0.09114 0.0
N377 N 0.58537 0.85435 0.12097 0.0
H378 H 0.45775 0.82854 0.07494 0.0
H379 H 0.22528 0.65932 0.09954 0.0
H380 H 0.37644 0.86623 0.09958 0.0
H381 H 0.32846 0.63429 0.1009 0.0
H382 H 0.27594 0.73438 0.09645 0.0
H383 H 0.40558 0.75526 0.08015 0.0
C384 C 0.42865 0.8213 0.08127 0.0
C385 C 0.42122 0.85327 0.08683 0.0
C386 C 0.28727 0.71231 0.09763 0.0
C387 C 0.36157 0.76975 0.09283 0.0
C388 C 0.25849 0.6696 0.09943 0.0
C389 C 0.27263 0.64045 0.10041 0.0
C390 C 0.33023 0.72562 0.09643 0.0
C391 C 0.31603 0.65551 0.10018 0.0
C392 C 0.39911 0.77957 0.08438 0.0
C393 C 0.38319 0.8423 0.0951 0.0
N394 N 0.3432 0.69692 0.09796 0.0
N395 N 0.35453 0.80129 0.0978 0.0
H396 H 0.28348 0.52219 0.04963 0.0
H397 H 0.45153 0.49459 0.10486 0.0
H398 H 0.25598 0.45611 0.09779 0.0
H399 H 0.4827 0.57457 0.06042 0.0
H400 H 0.37725 0.46823 0.09906 0.0
H401 H 0.35329 0.52902 0.04996 0.0
C402 C 0.29182 0.50827 0.06007 0.0
C403 C 0.26417 0.48891 0.07379 0.0
C404 C 0.40031 0.49118 0.09046 0.0
C405 C 0.34405 0.4971 0.07439 0.0
C406 C 0.44279 0.50624 0.09374 0.0
C407 C 0.47347 0.53735 0.08326 0.0
C408 C 0.38833 0.50736 0.0766 0.0
C409 C 0.46017 0.55095 0.06896 0.0
C410 C 0.33175 0.5124 0.06031 0.0
C411 C 0.27651 0.47148 0.08701 0.0
N412 N 0.41861 0.53622 0.06616 0.0
N413 N 0.31575 0.47644 0.0871 0.0
H414 H 0.94774 0.59994 0.91479 0.0
H415 H 0.7206 0.53079 0.87727 0.0
H416 H 0.90062 0.53505 0.86669 0.0
H417 H 0.7749 0.62373 0.91724 0.0
H418 H 0.78701 0.53188 0.87404 0.0
H419 H 0.88635 0.60998 0.9166 0.0
C420 C 0.92489 0.58831 0.90451 0.0
C421 C 0.92929 0.5663 0.89062 0.0
C422 C 0.78476 0.55232 0.88348 0.0
C423 C 0.85884 0.57724 0.89275 0.0
C424 C 0.74668 0.55159 0.88538 0.0
C425 C 0.74218 0.5771 0.89759 0.0
C426 C 0.81884 0.57834 0.89405 0.0
C427 C 0.77714 0.60358 0.90767 0.0
C428 C 0.88982 0.594 0.90558 0.0
C429 C 0.89858 0.55192 0.87771 0.0
N430 N 0.81401 0.60324 0.9058 0.0
N431 N 0.86466 0.55728 0.87918 0.0
H432 H 0.52984 0.2377 0.91983 0.0
H433 H 0.56358 0.42662 0.85891 0.0
H434 H 0.5526 0.24124 0.86541 0.0
H435 H 0.54775 0.42584 0.91382 0.0
H436 H 0.54747 0.35374 0.86028 0.0
H437 H 0.524 0.30094 0.91707 0.0
C438 C 0.53288 0.25142 0.90724 0.0
C439 C 0.54217 0.23456 0.89285 0.0
C440 C 0.54698 0.36932 0.872 0.0
C441 C 0.53607 0.30722 0.88961 0.0
C442 C 0.55607 0.41098 0.87123 0.0
C443 C 0.55758 0.43267 0.8863 0.0
C444 C 0.53944 0.34913 0.88797 0.0
C445 C 0.54734 0.41057 0.90188 0.0
C446 C 0.52971 0.28762 0.90568 0.0
C447 C 0.54575 0.2535 0.87685 0.0
N448 N 0.53921 0.37023 0.90233 0.0
N449 N 0.54319 0.2891 0.87568 0.0
H450 H 0.72922 0.23603 0.88383 0.0
H451 H 0.92362 0.41264 0.9371 0.0
H452 H 0.7277 0.25465 0.93846 0.0
H453 H 0.92577 0.39761 0.8823 0.0
H454 H 0.8546 0.34949 0.93819 0.0
H455 H 0.8035 0.29004 0.88326 0.0
C456 C 0.74453 0.25116 0.89572 0.0
C457 C 0.722 0.24095 0.91119 0.0
C458 C 0.8703 0.35967 0.92593 0.0
C459 C 0.80702 0.30288 0.91064 0.0
C460 C 0.90982 0.39563 0.92534 0.0
C461 C 0.93032 0.41043 0.90959 0.0
C462 C 0.85098 0.33843 0.91065 0.0
C463 C 0.91096 0.38727 0.89472 0.0
C464 C 0.78695 0.28204 0.89539 0.0
C465 C 0.7436 0.26162 0.9262 0.0
N466 N 0.87223 0.35266 0.89558 0.0
N467 N 0.78468 0.29165 0.92552 0.0
H468 H 0.26642 0.10303 0.39793 0.0
H469 H 0.17613 0.22731 0.45211 0.0
H470 H 0.19762 0.05794 0.44522 0.0
H471 H 0.28015 0.28794 0.41725 0.0
H472 H 0.16889 0.15927 0.44415 0.0
H473 H 0.25853 0.16563 0.39995 0.0
C474 C 0.24935 0.10613 0.40864 0.0
C475 C 0.23299 0.07545 0.42151 0.0
C476 C 0.19257 0.18736 0.43788 0.0
C477 C 0.22323 0.14652 0.42376 0.0
C478 C 0.19621 0.22607 0.44221 0.0
C479 C 0.22829 0.26314 0.43508 0.0
C480 C 0.22128 0.18578 0.42635 0.0
C481 C 0.25452 0.25996 0.42279 0.0
C482 C 0.24485 0.14181 0.40979 0.0
C483 C 0.21106 0.08101 0.43509 0.0
N484 N 0.25068 0.22207 0.41889 0.0
N485 N 0.20686 0.11578 0.43588 0.0
H486 H 1.04917 0.1985 0.45219 0.0
H487 H 0.90337 0.99162 0.3975 0.0
H488 H 0.07926 0.1797 0.40062 0.0
H489 H 0.87753 1.01271 0.44948 0.0
H490 H 0.96548 0.06168 0.39743 0.0
H491 H 0.98472 0.1311 0.45077 0.0
C492 C 1.04224 0.17999 0.44058 0.0
C493 C 0.06956 0.19455 0.42652 0.0
C494 C 0.94598 0.05104 0.40878 0.0
C495 C 0.99551 0.11733 0.4247 0.0
C496 C 0.91035 1.01118 0.40879 0.0
C497 C 0.8853 0.99617 0.42355 0.0
C498 C 0.95651 0.07601 0.42363 0.0
C499 C 0.89601 1.02281 0.43784 0.0
C500 C 1.00533 0.14155 0.43973 0.0
C501 C 0.05901 0.16944 0.41176 0.0
N502 N 0.93085 0.06121 0.43755 0.0
N503 N 1.02274 0.13198 0.41122 0.0
H504 H 0.10854 0.90344 0.46481 0.0
H505 H 0.916 0.82792 0.39973 0.0
H506 H 0.11467 0.87422 0.41162 0.0
H507 H 0.90807 0.84862 0.45373 0.0
H508 H 0.98617 0.83714 0.40438 0.0
H509 H 1.03314 0.87594 0.46169 0.0
C510 C 0.09398 0.89062 0.45253 0.0
C511 C 0.11827 0.89152 0.43843 0.0
C512 C 0.9689 0.83911 0.41527 0.0
C513 C 1.03158 0.86042 0.43467 0.0
C514 C 0.92874 0.83368 0.41262 0.0
C515 C 0.90626 0.83775 0.42634 0.0
C516 C 0.98689 0.84898 0.43176 0.0
C517 C 0.92437 0.8454 0.44276 0.0
C518 C 1.05081 0.875 0.45074 0.0
C519 C 0.0974 0.87434 0.42286 0.0
N520 N 0.96371 0.85121 0.44497 0.0
N521 N 1.05546 0.86004 0.42134 0.0
H522 H 0.46543 0.92104 0.25921 0.0
H523 H 0.62803 0.91871 0.19105 0.0
H524 H 0.44646 0.91295 0.20445 0.0
H525 H 0.64703 0.91964 0.24559 0.0
H526 H 0.55871 0.91047 0.19611 0.0
H527 H 0.52986 0.91724 0.25498 0.0
C528 C 0.47491 0.91866 0.24629 0.0
C529 C 0.45056 0.91757 0.23216 0.0
C530 C 0.57751 0.9117 0.20704 0.0
C531 C 0.5242 0.91272 0.22721 0.0
C532 C 0.617 0.91592 0.20414 0.0
C533 C 0.64314 0.91925 0.2179 0.0
C534 C 0.56401 0.9117 0.22391 0.0
C535 C 0.62758 0.91641 0.23461 0.0
C536 C 0.51159 0.91622 0.24389 0.0
C537 C 0.46425 0.9141 0.21573 0.0
N538 N 0.58926 0.91333 0.23716 0.0
N539 N 0.50002 0.9119 0.21372 0.0
H540 H 0.23169 0.7595 0.20571 0.0
H541 H 0.20383 0.56761 0.26347 0.0
H542 H 0.26039 0.77006 0.25982 0.0
H543 H 0.20575 0.568 0.20814 0.0
H544 H 0.2077 0.63613 0.26307 0.0
H545 H 0.20575 0.68436 0.20734 0.0
C546 C 0.23204 0.74598 0.21801 0.0
C547 C 0.24884 0.77133 0.23262 0.0
C548 C 0.20656 0.6209 0.25102 0.0
C549 C 0.21915 0.68502 0.23452 0.0
C550 C 0.20402 0.58166 0.25123 0.0
C551 C 0.20483 0.56237 0.23581 0.0
C552 C 0.20967 0.64077 0.23527 0.0
C553 C 0.20531 0.58199 0.22032 0.0
C554 C 0.21727 0.703 0.2189 0.0
C555 C 0.24809 0.75183 0.24821 0.0
N556 N 0.20813 0.6203 0.22044 0.0
N557 N 0.2339 0.70989 0.24872 0.0
H558 H 0.56133 0.75867 0.26019 0.0
H559 H 0.374 0.60228 0.19836 0.0
H560 H 0.55469 0.78095 0.20627 0.0
H561 H 0.38264 0.5758 0.25169 0.0
H562 H 0.43921 0.66862 0.2013 0.0
H563 H 0.49395 0.69362 0.25787 0.0
C564 C 0.54533 0.75019 0.24793 0.0
C565 C 0.56357 0.77516 0.2334 0.0
C566 C 0.42699 0.64829 0.21237 0.0
C567 C 0.48691 0.70049 0.23055 0.0
C568 C 0.38977 0.61021 0.21068 0.0
C569 C 0.37273 0.58326 0.22479 0.0
C570 C 0.44747 0.65981 0.22832 0.0
C571 C 0.39465 0.59543 0.24043 0.0
C572 C 0.50705 0.71289 0.24657 0.0
C573 C 0.5417 0.76259 0.21779 0.0
N574 N 0.43077 0.63285 0.24179 0.0
N575 N 0.50468 0.72606 0.21677 0.0
H576 H 0.94341 0.62093 0.80357 0.0
H577 H 0.99584 0.48084 0.74144 0.0
H578 H 0.94316 0.62696 0.74825 0.0
H579 H 0.98147 0.46363 0.79626 0.0
H580 H 0.99475 0.5465 0.74443 0.0
H581 H 0.97387 0.57506 0.80168 0.0
C582 C 0.95031 0.61313 0.79103 0.0
C583 C 0.94001 0.62721 0.77603 0.0
C584 C 0.99267 0.52882 0.75586 0.0
C585 C 0.97483 0.57469 0.77379 0.0
C586 C 0.99361 0.4915 0.75416 0.0
C587 C 0.988 0.46654 0.76859 0.0
C588 C 0.9858 0.54102 0.77209 0.0
C589 C 0.98537 0.4818 0.78478 0.0
C590 C 0.9677 0.58691 0.78997 0.0
C591 C 0.94998 0.61634 0.76015 0.0
N592 N 0.98351 0.51773 0.78607 0.0
N593 N 0.96637 0.59035 0.75945 0.0
H594 H 0.74686 0.56219 0.79657 0.0
H595 H 0.53754 0.39125 0.74804 0.0
H596 H 0.71793 0.57628 0.74424 0.0
H597 H 0.55152 0.39858 0.80298 0.0
H598 H 0.60941 0.45085 0.74536 0.0
H599 H 0.68051 0.49569 0.79826 0.0
C600 C 0.7265 0.55134 0.78544 0.0
C601 C 0.73789 0.57512 0.77029 0.0
C602 C 0.59706 0.43884 0.75799 0.0
C603 C 0.66197 0.49828 0.772 0.0
C604 C 0.5563 0.40436 0.7595 0.0
C605 C 0.53879 0.38944 0.77575 0.0
C606 C 0.62051 0.45851 0.77285 0.0
C607 C 0.56404 0.40864 0.7902 0.0
C608 C 0.68864 0.51327 0.78639 0.0
C609 C 0.71028 0.55925 0.75624 0.0
N610 N 0.60336 0.4421 0.78843 0.0
N611 N 0.67378 0.5219 0.75741 0.0
H612 H 0.62345 0.31714 0.73705 0.0
H613 H 0.81024 0.35322 0.80056 0.0
H614 H 0.62156 0.33716 0.7915 0.0
H615 H 0.7986 0.30704 0.74875 0.0
H616 H 0.74429 0.35366 0.79693 0.0
H617 H 0.69206 0.32173 0.74032 0.0
C618 C 0.63785 0.32322 0.74964 0.0
C619 C 0.61691 0.32666 0.76404 0.0
C620 C 0.7561 0.34329 0.78638 0.0
C621 C 0.69486 0.33138 0.76793 0.0
C622 C 0.79369 0.34288 0.78846 0.0
C623 C 0.80996 0.32996 0.77496 0.0
C624 C 0.73476 0.33106 0.77062 0.0
C625 C 0.78717 0.31704 0.75954 0.0
C626 C 0.67677 0.32544 0.75153 0.0
C627 C 0.63671 0.33422 0.78008 0.0
N628 N 0.75086 0.31812 0.75777 0.0
N629 N 0.67451 0.33616 0.78161 0.0
H630 H 0.16404 0.28239 0.59394 0.0
H631 H 0.2589 0.17386 0.53435 0.0
H632 H 0.12541 0.24622 0.54152 0.0
H633 H 0.30517 0.22163 0.58509 0.0
H634 H 0.216 0.20778 0.53527 0.0
H635 H 0.22208 0.26865 0.58957 0.0
C636 C 0.16828 0.27226 0.58141 0.0
C637 C 0.13975 0.26504 0.56812 0.0
C638 C 0.23596 0.21131 0.54611 0.0
C639 C 0.20558 0.24843 0.56307 0.0
C640 C 0.2605 0.19194 0.54559 0.0
C641 C 0.28526 0.19437 0.55976 0.0
C642 C 0.23592 0.23303 0.56096 0.0
C643 C 0.28625 0.21848 0.57393 0.0
C644 C 0.20135 0.26429 0.57891 0.0
C645 C 0.14667 0.25199 0.55212 0.0
N646 N 0.26154 0.2364 0.57425 0.0
N647 N 0.17853 0.24348 0.55011 0.0
H648 H 0.90015 0.90242 0.5427 0.0
H649 H 0.94747 0.11051 0.59388 0.0
H650 H 0.90261 0.91044 0.59794 0.0
H651 H 0.95705 0.10415 0.53888 0.0
H652 H 0.92252 1.03531 0.5956 0.0
H653 H 0.91266 0.97408 0.54109 0.0
C654 C 0.90301 0.91923 0.55451 0.0
C655 C 0.90058 0.90062 0.57048 0.0
C656 C 0.92975 0.05032 0.58314 0.0
C657 C 0.91513 0.98287 0.56875 0.0
C658 C 0.94385 0.09326 0.58214 0.0
C659 C 0.9547 0.11383 0.56621 0.0
C660 C 0.92634 1.02769 0.56812 0.0
C661 C 0.94934 0.08976 0.55145 0.0
C662 C 0.91022 0.96019 0.55358 0.0
C663 C 0.90441 0.92374 0.58537 0.0
N664 N 0.93581 0.04811 0.55277 0.0
N665 N 0.91174 0.96379 0.58415 0.0
H666 H 0.25206 1.00015 0.54503 0.0
H667 H 1.04075 0.86021 0.5326 0.0
H668 H 0.21845 0.99916 0.59809 0.0
H669 H 1.03357 0.83777 0.58713 0.0
H670 H 0.11497 0.90997 0.53548 0.0
H671 H 0.18348 0.93906 0.53976 0.0
C672 C 0.23015 0.98695 0.55559 0.0
C673 C 0.24079 1.00505 0.57197 0.0
C674 C 0.09784 0.89349 0.54682 0.0
C675 C 0.16106 0.93577 0.56594 0.0
C676 C 1.05505 0.86503 0.54517 0.0
C677 C 1.03067 0.84465 0.55963 0.0
C678 C 0.11682 0.90194 0.56312 0.0
C679 C 1.05106 0.85254 0.5756 0.0
C680 C 0.19061 0.95224 0.55254 0.0
C681 C 0.2114 0.98634 0.58523 0.0
N682 N 0.09275 0.88094 0.57694 0.0
N683 N 0.17282 0.95298 0.5819 0.0
H684 H 0.60453 0.10624 0.03485 0.0
H685 H 0.48302 1.02473 0.94664 0.0
H686 H 0.49283 0.98513 0.03128 0.0
H687 H 0.61531 0.11341 0.95014 0.0
H688 H 0.48285 1.00974 0.97741 0.0
H689 H 0.60529 0.1118 0.00366 0.0
C690 C 0.58003 0.08089 0.02754 0.0
C691 C 0.54861 0.04519 0.03575 0.0
C692 C 0.51197 1.03196 0.97131 0.0
C693 C 0.54928 0.05134 -8e-05 0.0
C694 C 0.51215 0.04021 0.95374 0.0
C695 C 0.54916 0.07048 0.94583 0.0
C696 C 0.5489 0.0547 0.98096 0.0
C697 C 0.58592 0.09017 0.95573 0.0
C698 C 0.58067 0.08391 0.00969 0.0
C699 C 0.51781 1.01317 0.0255 0.0
N700 N 0.58473 0.0824 0.97278 0.0
N701 N 0.51872 1.01711 0.00811 0.0
H702 H 0.06215 0.46523 0.9522 0.0
H703 H 0.12088 0.57337 0.04031 0.0
H704 H 0.07354 0.58701 0.95827 0.0
H705 H 1.04052 0.43959 0.0368 0.0
H706 H 0.10238 0.58014 0.01073 0.0
H707 H 1.05256 0.45455 0.98325 0.0
C708 C 0.06185 0.48937 0.9601 0.0
C709 C 0.06879 0.52706 0.9528 0.0
C710 C 0.08797 0.54942 0.01659 0.0
C711 C 0.05897 0.51562 0.98822 0.0
C712 C 0.09857 0.54555 0.03343 0.0
C713 C 0.08252 0.50585 0.0409 0.0
C714 C 0.06219 0.51323 0.00706 0.0
C715 C 1.05368 0.47077 0.03149 0.0
C716 C 1.05621 0.48323 0.97776 0.0
C717 C 0.06815 0.55746 0.96349 0.0
N718 N 1.04524 0.47516 0.01487 0.0
N719 N 0.06437 0.55151 0.98077 0.0
H720 H 0.59894 0.53715 0.95591 0.0
H721 H 0.64846 0.65747 0.04616 0.0
H722 H 0.63989 0.66892 0.96067 0.0
H723 H 0.62029 0.52929 0.0404 0.0
H724 H 0.63893 0.66064 0.01521 0.0
H725 H 0.60089 0.53241 0.98709 0.0
C726 C 0.6083 0.56512 0.96348 0.0
C727 C 0.61949 0.60356 0.95557 0.0
C728 C 0.63463 0.63177 0.02075 0.0
C729 C 0.62166 0.59826 0.99144 0.0
C730 C 0.6399 0.62987 0.03844 0.0
C731 C 0.63555 0.59317 0.04592 0.0
C732 C 0.62478 0.59668 0.01044 0.0
C733 C 0.62432 0.55838 0.03523 0.0
C734 C 0.60939 0.56237 0.98133 0.0
C735 C 0.63124 0.63866 0.96614 0.0
N736 N 0.61954 0.56108 0.01806 0.0
N737 N 0.63207 0.63517 0.98351 0.0
H738 H 0.21977 0.33524 0.37392 0.0
H739 H 0.23275 0.47314 0.29278 0.0
H740 H 0.20014 0.44152 0.37811 0.0
H741 H 0.19872 0.34279 0.28971 0.0
H742 H 0.23502 0.46913 0.32414 0.0
H743 H 0.2275 0.34569 0.34299 0.0
C744 C 0.21739 0.36101 0.36839 0.0
C745 C 0.2086 0.38716 0.37865 0.0
C746 C 0.22722 0.44155 0.31654 0.0
C747 C 0.21773 0.39932 0.34318 0.0
C748 C 0.22607 0.44379 0.29866 0.0
C749 C 0.21536 0.40816 0.28859 0.0
C750 C 0.21837 0.40365 0.32432 0.0
C751 C 0.20677 0.37093 0.29693 0.0
C752 C 0.2217 0.36683 0.35071 0.0
C753 C 0.2064 0.42031 0.37069 0.0
N754 N 0.20861 0.3697 0.31429 0.0
N755 N 0.21078 0.42539 0.35339 0.0
H756 H 0.79114 0.83119 0.37095 0.0
H757 H 0.69905 0.88889 0.28846 0.0
H758 H 0.69109 0.8608 0.37279 0.0
H759 H 0.79875 0.85886 0.28567 0.0
H760 H 0.69889 0.88265 0.31961 0.0
H761 H 0.79792 0.84558 0.34006 0.0
C762 C 0.77082 0.841 0.36493 0.0
C763 C 0.74017 0.84431 0.37453 0.0
C764 C 0.72091 0.87754 0.31221 0.0
C765 C 0.7477 0.8607 0.33912 0.0
C766 C 0.72101 0.88107 0.29436 0.0
C767 C 0.74874 0.8741 0.28431 0.0
C768 C 0.74869 0.86687 0.32019 0.0
C769 C 0.77659 0.86428 0.29282 0.0
C770 C 0.77465 0.84912 0.34727 0.0
C771 C 0.71488 0.85735 0.36597 0.0
N772 N 0.77572 0.86078 0.31023 0.0
N773 N 0.71906 0.86479 0.3488 0.0
H774 H 0.35207 0.94142 0.28389 0.0
H775 H 0.22317 0.93327 0.36731 0.0
H776 H 0.22765 0.92627 0.28309 0.0
H777 H 0.33302 0.91916 0.37013 0.0
H778 H 0.22511 0.92998 0.33623 0.0
H779 H 0.34617 0.93131 0.31512 0.0
C780 C 0.32335 0.93545 0.2902 0.0
C781 C 0.2906 0.93546 0.28085 0.0
C782 C 0.24873 0.92733 0.34359 0.0
C783 C 0.28386 0.92422 0.31651 0.0
C784 C 0.24778 0.92947 0.3614 0.0
C785 C 0.27823 0.92691 0.37141 0.0
C786 C 0.28067 0.92313 0.33554 0.0
C787 C 0.30895 0.92135 0.36293 0.0
C788 C 0.32006 0.92976 0.30803 0.0
C789 C 0.25406 0.92731 0.28974 0.0
N790 N 0.30969 0.92011 0.34545 0.0
N791 N 0.25192 0.92251 0.30702 0.0
H792 H 0.8959 0.8043 0.70734 0.0
H793 H 0.88279 0.66993 0.62427 0.0
H794 H 0.87521 0.67805 0.71019 0.0
H795 H 0.86968 0.78037 0.62279 0.0
H796 H 0.88746 0.67544 0.65566 0.0
H797 H 0.89434 0.79933 0.67606 0.0
C798 C 0.89119 0.7756 0.70144 0.0
C799 C 0.88541 0.74147 0.7115 0.0
C800 C 0.88351 0.69838 0.64841 0.0
C801 C 0.88369 0.73565 0.67562 0.0
C802 C 0.8809 0.69529 0.6305 0.0
C803 C 0.87564 0.72458 0.62085 0.0
C804 C 0.88134 0.73128 0.65667 0.0
C805 C 0.87343 0.75684 0.62965 0.0
C806 C 0.89013 0.77273 0.68356 0.0
C807 C 0.87937 0.70506 0.70302 0.0
N808 N 0.87642 0.75937 0.64702 0.0
N809 N 0.87872 0.70315 0.6856 0.0
H810 H 0.45882 0.25069 0.61896 0.0
H811 H 0.40757 0.15539 0.71351 0.0
H812 H 0.40724 0.11967 0.63055 0.0
H813 H 0.47562 0.28847 0.7039 0.0
H814 H 0.41126 0.14278 0.68305 0.0
H815 H 0.47167 0.26669 0.64971 0.0
C816 C 0.45149 0.22548 0.6279 0.0
C817 C 0.43183 0.18379 0.62221 0.0
C818 C 0.42567 0.1748 0.68757 0.0
C819 C 0.44512 0.20159 0.65737 0.0
C820 C 0.42338 0.18204 0.70502 0.0
C821 C 0.44115 0.22308 0.71135 0.0
C822 C 0.44547 0.20878 0.67621 0.0
C823 C 0.46141 0.25628 0.69963 0.0
C824 C 0.45832 0.23453 0.64548 0.0
C825 C 0.42219 0.15223 0.6344 0.0
N826 N 0.46273 0.24841 0.68262 0.0
N827 N 0.4284 0.1617 0.65137 0.0
H828 H 0.90984 0.25265 0.6241 0.0
H829 H 1.03199 0.31867 0.71393 0.0
H830 H 1.04444 0.32317 0.62909 0.0
H831 H 0.89916 0.27306 0.70959 0.0
H832 H 1.03557 0.31292 0.68277 0.0
H833 H 0.90374 0.25688 0.65534 0.0
C834 C 0.938 0.27005 0.63169 0.0
C835 C 0.97768 0.28761 0.62404 0.0
C836 C 1.00554 0.30378 0.68865 0.0
C837 C 0.97111 0.29108 0.65966 0.0
C838 C 1.00342 0.30638 0.70648 0.0
C839 C 0.96526 0.29633 0.71432 0.0
C840 C 0.96922 0.29094 0.67867 0.0
C841 C 0.92927 0.28131 0.704 0.0
C842 C 0.93457 0.27188 0.64953 0.0
C843 C 1.01322 0.30902 0.63451 0.0
N844 N 0.93214 0.27931 0.68668 0.0
N845 N 1.00913 0.30974 0.65178 0.0
H846 H 0.33321 0.90504 0.19261 0.0
H847 H 0.53842 0.07969 0.14435 0.0
H848 H 0.39324 0.03649 0.20498 0.0
H849 H 0.45866 0.95453 0.12529 0.0
H850 H 0.4948 0.06158 0.17029 0.0
H851 H 0.38842 0.92001 0.17156 0.0
C852 C 0.35846 0.93695 0.19108 0.0
C853 C 0.35892 0.96955 0.20057 0.0
C854 C 0.4872 0.03801 0.16048 0.0
C855 C 0.42163 0.98712 0.17633 0.0
C856 C 0.51218 0.04826 0.14573 0.0
C857 C 0.5017 1.01872 0.13254 0.0
C858 C 0.45196 0.99785 0.16205 0.0
C859 C 0.46739 0.97848 0.13499 0.0
C860 C 0.38982 0.94555 0.17902 0.0
C861 C 0.39188 1.01048 0.19791 0.0
N862 N 0.44365 0.9693 0.14938 0.0
N863 N 0.42187 1.01816 0.18598 0.0
H864 H 0.17789 0.50517 0.11549 0.0
H865 H 0.11588 0.41679 0.20934 0.0
H866 H 0.05954 0.47272 0.13912 0.0
H867 H 0.2411 0.46625 0.18945 0.0
H868 H 0.0992 0.44923 0.18561 0.0
H869 H 0.2063 0.5037 0.14368 0.0
C870 C 0.15807 0.49832 0.12661 0.0
C871 C 0.1159 0.48765 0.12482 0.0
C872 C 0.13062 0.45376 0.18652 0.0
C873 C 0.14805 0.48588 0.1572 0.0
C874 C 0.1401 0.43519 0.20009 0.0
C875 C 0.17972 0.43849 0.20118 0.0
C876 C 0.16061 0.47483 0.17366 0.0
C877 C 0.21012 0.46292 0.18898 0.0
C878 C 0.17434 0.49764 0.14275 0.0
C879 C 0.09201 0.48032 0.1398 0.0
N880 N 0.19966 0.47946 0.17548 0.0
N881 N 0.10814 0.47873 0.15529 0.0
H882 H 0.65828 0.7603 0.20313 0.0
H883 H 0.73574 0.67615 0.12454 0.0
H884 H 0.78397 0.82729 0.18279 0.0
H885 H 0.60532 0.62564 0.13749 0.0
H886 H 0.75433 0.73084 0.14619 0.0
H887 H 0.63854 0.70975 0.17968 0.0
C888 C 0.68178 0.7644 0.19374 0.0
C889 C 0.72297 0.79802 0.19502 0.0
C890 C 0.72161 0.70805 0.14421 0.0
C891 C 0.70049 0.74003 0.1681 0.0
C892 C 0.71098 0.67676 0.13187 0.0
C893 C 0.66888 0.64648 0.12914 0.0
C894 C 0.68998 0.7087 0.15413 0.0
C895 C 0.63812 0.64868 0.13905 0.0
C896 C 0.6704 0.73558 0.1803 0.0
C897 C 0.7519 0.80188 0.18236 0.0
N898 N 0.64928 0.67908 0.15118 0.0
N899 N 0.74019 0.77309 0.16952 0.0
H900 H 0.12542 0.49126 0.86001 0.0
H901 H 0.93485 0.32594 0.8036 0.0
H902 H 1.00622 0.48794 0.86074 0.0
H903 H 0.06466 0.36844 0.79204 0.0
H904 H 0.95744 0.3811 0.8257 0.0
H905 H 0.1013 0.44272 0.83605 0.0
C906 C 0.09411 0.48043 0.85508 0.0
C907 C 0.06764 0.49338 0.86256 0.0
C908 C 0.98083 0.37844 0.8182 0.0
C909 C 1.03947 0.43699 0.83505 0.0
C910 C 0.968 0.34702 0.80567 0.0
C911 C 0.99798 0.34301 0.79593 0.0
C912 C 1.02386 0.40516 0.82116 0.0
C913 C 1.04051 0.37051 0.79923 0.0
C914 C 0.08036 0.45269 0.84133 0.0
C915 C 1.02754 0.47854 0.85544 0.0
N916 N 1.05212 0.40026 0.81156 0.0
N917 N 1.01438 0.45058 0.84218 0.0
H918 H 0.66915 0.70649 0.85761 0.0
H919 H 0.83742 0.68124 0.80418 0.0
H920 H 0.6695 0.58934 0.85748 0.0
H921 H 0.79412 0.76663 0.78965 0.0
H922 H 0.77777 0.64658 0.82397 0.0
H923 H 0.71707 0.72981 0.83319 0.0
C924 C 0.67903 0.68552 0.85229 0.0
C925 C 0.66535 0.64596 0.85951 0.0
C926 C 0.78098 0.67241 0.8162 0.0
C927 C 0.72093 0.67274 0.83178 0.0
C928 C 0.81476 0.69194 0.8048 0.0
C929 C 0.82043 0.72649 0.79509 0.0
C930 C 0.75345 0.68837 0.81818 0.0
C931 C 0.79104 0.74012 0.79689 0.0
C932 C 0.7063 0.69877 0.83833 0.0
C933 C 0.67912 0.61997 0.85215 0.0
N934 N 0.75917 0.72137 0.80833 0.0
N935 N 0.70676 0.63408 0.83882 0.0
H936 H 0.39473 0.16137 0.81249 0.0
H937 H 0.57853 0.13521 0.85629 0.0
H938 H 0.52056 0.21769 0.79229 0.0
H939 H 0.44886 0.06621 0.8716 0.0
H940 H 0.55995 0.17194 0.83463 0.0
H941 H 0.41606 0.13256 0.83621 0.0
C942 C 0.42688 0.16787 0.81306 0.0
C943 C 0.45573 0.19162 0.80024 0.0
C944 C 0.53562 0.14895 0.84281 0.0
C945 C 0.48043 0.15869 0.82742 0.0
C946 C 0.54627 0.12818 0.85518 0.0
C947 C 0.51521 0.09801 0.86578 0.0
C948 C 0.49359 0.13923 0.84103 0.0
C949 C 0.47375 0.08943 0.86369 0.0
C950 C 0.43905 0.15133 0.82661 0.0
C951 C 0.49708 0.19916 0.80176 0.0
N952 N 0.46416 0.10994 0.85159 0.0
N953 N 0.50813 0.18262 0.81505 0.0
H954 H 0.9535 0.26468 0.52152 0.0
H955 H 0.17999 0.40486 0.48099 0.0
H956 H 0.06747 0.3249 0.5513 0.0
H957 H 0.07806 0.31009 0.45117 0.0
H958 H 0.13706 0.37802 0.50681 0.0
H959 H 0.99625 0.28264 0.49517 0.0
C960 C 0.98736 0.28095 0.52252 0.0
C961 C 1.00695 0.29256 0.53862 0.0
C962 C 0.12416 0.36283 0.49464 0.0
C963 C 1.05571 0.31401 0.50878 0.0
C964 C 0.14867 0.37823 0.47991 0.0
C965 C 0.13263 0.35966 0.46394 0.0
C966 C 0.08298 0.32909 0.49338 0.0
C967 C 0.09176 0.32516 0.46326 0.0
C968 C 1.01169 0.29118 0.50755 0.0
C969 C 1.05095 0.31426 0.53922 0.0
N970 N 0.06811 0.31122 0.47776 0.0
N971 N 0.07374 0.32451 0.52457 0.0
H972 H 0.72886 0.73378 0.45127 0.0
H973 H 0.89509 0.80729 0.52766 0.0
H974 H 0.81164 0.86267 0.46505 0.0
H975 H 0.81469 0.67761 0.51465 0.0
H976 H 0.87213 0.82783 0.50195 0.0
H977 H 0.76528 0.71233 0.47181 0.0
C978 C 0.75505 0.75759 0.4585 0.0
C979 C 0.76757 0.80011 0.45635 0.0
C980 C 0.8599 0.79483 0.50446 0.0
C981 C 0.80913 0.7758 0.47999 0.0
C982 C 0.87325 0.78311 0.51913 0.0
C983 C 0.85684 0.74075 0.52325 0.0
C984 C 0.82905 0.76393 0.49394 0.0
C985 C 0.82843 0.71063 0.51179 0.0
C986 C 0.77588 0.74533 0.47018 0.0
C987 C 0.80137 0.82962 0.46614 0.0
N988 N 0.81487 0.7228 0.49776 0.0
N989 N 0.82084 0.81691 0.47756 0.0
H990 H 0.33082 0.05354 0.45151 0.0
H991 H 0.37479 0.06769 0.55246 0.0
H992 H 0.31224 0.94805 0.48225 0.0
H993 H 0.41976 0.17674 0.52018 0.0
H994 H 0.34426 1.02304 0.52739 0.0
H995 H 0.3561 0.09817 0.4769 0.0
C996 C 0.33191 0.03962 0.46361 0.0
C997 C 0.31962 0.99686 0.46467 0.0
C998 C 0.36054 0.0567 0.52575 0.0
C999 C 0.3485 0.04815 0.4939 0.0
C1000 C 0.37762 0.08231 0.54009 0.0
C1001 C 0.39913 0.12609 0.53846 0.0
C1002 C 0.36509 0.07484 0.5095 0.0
C1003 C 0.40309 0.14316 0.52203 0.0
C1004 C 0.34647 0.06528 0.4781 0.0
C1005 C 0.32154 0.98079 0.48077 0.0
N1006 N 0.38611 0.11748 0.50817 0.0
N1007 N 0.33574 1.00644 0.49473 0.0
H1008 H 0.57617 0.39327 0.0659 0.0
H1009 H 0.63566 0.23793 0.11254 0.0
H1010 H 0.64151 0.42368 0.11435 0.0
H1011 H 0.53206 0.19354 0.07716 0.0
H1012 H 0.64045 0.30685 0.11265 0.0
H1013 H 0.56106 0.32079 0.06905 0.0
C1014 C 0.58686 0.38458 0.07733 0.0
C1015 C 0.61014 0.41471 0.08989 0.0
C1016 C 0.6164 0.28197 0.10498 0.0
C1017 C 0.59375 0.33176 0.09337 0.0
C1018 C 0.61371 0.24263 0.10487 0.0
C1019 C 0.58341 0.20993 0.09481 0.0
C1020 C 0.58914 0.28911 0.09467 0.0
C1021 C 0.55581 0.21784 0.08513 0.0
C1022 C 0.57822 0.34315 0.07911 0.0
C1023 C 0.62324 0.40154 0.1044 0.0
N1024 N 0.55965 0.25672 0.08513 0.0
N1025 N 0.61543 0.36128 0.10562 0.0
H1026 H 0.72679 0.15411 0.10102 0.0
H1027 H 0.91762 0.33593 0.04886 0.0
H1028 H 0.7211 0.18241 0.04768 0.0
H1029 H 0.92218 0.31556 0.10311 0.0
H1030 H 0.84959 0.2719 0.04725 0.0
H1031 H 0.80207 0.20478 0.10105 0.0
C1032 C 0.7415 0.17034 0.08923 0.0
C1033 C 0.71754 0.16442 0.07438 0.0
C1034 C 0.86561 0.2811 0.05949 0.0
C1035 C 0.80343 0.22261 0.07436 0.0
C1036 C 0.90449 0.31762 0.06039 0.0
C1037 C 0.92527 0.33116 0.07616 0.0
C1038 C 0.84723 0.25806 0.0745 0.0
C1039 C 0.90699 0.30625 0.09072 0.0
C1040 C 0.78443 0.19944 0.08928 0.0
C1041 C 0.73823 0.18636 0.05949 0.0
N1042 N 0.86876 0.27109 0.08958 0.0
N1043 N 0.77982 0.21473 0.05991 0.0
H1044 H 0.80513 0.55726 0.11113 0.0
H1045 H 0.93362 0.50781 0.04229 0.0
H1046 H 0.7913 0.56894 0.05679 0.0
H1047 H 0.96868 0.53226 0.09571 0.0
H1048 H 0.88334 0.53247 0.04675 0.0
H1049 H 0.86666 0.5501 0.10543 0.0
C1050 C 0.8154 0.55876 0.09799 0.0
C1051 C 0.79312 0.56351 0.0844 0.0
C1052 C 0.90249 0.53298 0.05742 0.0
C1053 C 0.86317 0.55466 0.07771 0.0
C1054 C 0.9312 0.51889 0.05489 0.0
C1055 C 0.95508 0.51745 0.06869 0.0
C1056 C 0.89731 0.54524 0.0739 0.0
C1057 C 0.95074 0.53241 0.08471 0.0
C1058 C 0.85058 0.55474 0.09473 0.0
C1059 C 0.80774 0.56533 0.06761 0.0
N1060 N 0.92203 0.54511 0.08691 0.0
N1061 N 0.84158 0.5603 0.0647 0.0
H1062 H 0.45509 0.57723 0.94327 0.0
H1063 H 0.27487 0.56618 0.88181 0.0
H1064 H 0.46831 0.59111 0.88829 0.0
H1065 H 0.26149 0.54742 0.93655 0.0
H1066 H 0.34366 0.57052 0.88348 0.0
H1067 H 0.38216 0.56041 0.94062 0.0
C1068 C 0.44251 0.57618 0.93059 0.0
C1069 C 0.46809 0.58586 0.91599 0.0
C1070 C 0.32559 0.56516 0.89512 0.0
C1071 C 0.38429 0.56717 0.91287 0.0
C1072 C 0.28632 0.56271 0.89417 0.0
C1073 C 0.26253 0.55661 0.90908 0.0
C1074 C 0.3413 0.56163 0.91112 0.0
C1075 C 0.27884 0.55227 0.92475 0.0
C1076 C 0.40078 0.56669 0.92909 0.0
C1077 C 0.44984 0.58385 0.8999 0.0
N1078 N 0.31723 0.55508 0.92536 0.0
N1079 N 0.40924 0.57519 0.8988 0.0
H1080 H 0.55937 0.92487 0.94605 0.0
H1081 H 0.60723 0.78001 0.88408 0.0
H1082 H 0.57152 0.94061 0.89109 0.0
H1083 H 0.60361 0.76988 0.93924 0.0
H1084 H 0.59898 0.84195 0.88651 0.0
H1085 H 0.58083 0.87183 0.94401 0.0
C1086 C 0.56704 0.91757 0.93356 0.0
C1087 C 0.5633 0.93708 0.91869 0.0
C1088 C 0.60032 0.82644 0.8981 0.0
C1089 C 0.58751 0.87583 0.91626 0.0
C1090 C 0.60501 0.79107 0.89672 0.0
C1091 C 0.6059 0.76974 0.91149 0.0
C1092 C 0.59619 0.84048 0.91439 0.0
C1093 C 0.60297 0.7854 0.92754 0.0
C1094 C 0.57923 0.88715 0.93241 0.0
C1095 C 0.57382 0.92636 0.90288 0.0
N1096 N 0.59794 0.81963 0.92856 0.0
N1097 N 0.58502 0.89618 0.90207 0.0
H1098 H 0.36306 0.89679 0.8858 0.0
H1099 H 0.22641 0.70261 0.94765 0.0
H1100 H 0.38353 0.89925 0.94037 0.0
H1101 H 0.20766 0.70005 0.8929 0.0
H1102 H 0.27802 0.77702 0.94578 0.0
H1103 H 0.30081 0.82779 0.8887 0.0
C1104 C 0.35412 0.88298 0.89845 0.0
C1105 C 0.37861 0.9037 0.91286 0.0
C1106 C 0.26232 0.76036 0.93419 0.0
C1107 C 0.30742 0.82427 0.91628 0.0
C1108 C 0.23268 0.71779 0.93524 0.0
C1109 C 0.2128 0.69479 0.92037 0.0
C1110 C 0.27246 0.7803 0.91814 0.0
C1111 C 0.22221 0.71637 0.90469 0.0
C1112 C 0.31857 0.84349 0.9001 0.0
C1113 C 0.36553 0.88434 0.92893 0.0
N1114 N 0.25163 0.75774 0.90397 0.0
N1115 N 0.33104 0.84555 0.93019 0.0
H1116 H 0.23077 0.75935 0.44001 0.0
H1117 H 0.21854 0.56194 0.39012 0.0
H1118 H 0.26213 0.76048 0.3866 0.0
H1119 H 0.19679 0.5623 0.44446 0.0
H1120 H 0.22647 0.63204 0.38801 0.0
H1121 H 0.20976 0.68471 0.44132 0.0
C1122 C 0.2326 0.74382 0.4285 0.0
C1123 C 0.24849 0.76641 0.4132 0.0
C1124 C 0.21963 0.61671 0.40039 0.0
C1125 C 0.22484 0.68099 0.41463 0.0
C1126 C 0.21498 0.5766 0.40157 0.0
C1127 C 0.20712 0.5563 0.41749 0.0
C1128 C 0.21646 0.63684 0.41524 0.0
C1129 C 0.20292 0.57686 0.43193 0.0
C1130 C 0.22084 0.70123 0.42927 0.0
C1131 C 0.25036 0.74454 0.39872 0.0
N1132 N 0.20786 0.61602 0.43048 0.0
N1133 N 0.23899 0.70332 0.39981 0.0
H1134 H 0.5407 0.68124 0.44593 0.0
H1135 H 0.36153 0.51934 0.38414 0.0
H1136 H 0.56196 0.67278 0.39203 0.0
H1137 H 0.35393 0.51211 0.43941 0.0
H1138 H 0.43558 0.57274 0.38644 0.0
H1139 H 0.47303 0.61746 0.44361 0.0
C1140 C 0.53115 0.66569 0.43359 0.0
C1141 C 0.55678 0.68236 0.41912 0.0
C1142 C 0.41785 0.55903 0.39805 0.0
C1143 C 0.47891 0.60933 0.4163 0.0
C1144 C 0.37555 0.5285 0.39676 0.0
C1145 C 0.35129 0.5115 0.41162 0.0
C1146 C 0.43592 0.57299 0.41432 0.0
C1147 C 0.37124 0.52446 0.42761 0.0
C1148 C 0.49252 0.62916 0.43229 0.0
C1149 C 0.54301 0.66087 0.40348 0.0
N1150 N 0.41218 0.55478 0.42852 0.0
N1151 N 0.50469 0.62565 0.40242 0.0
H1152 H 0.6016 0.89476 0.39571 0.0
H1153 H 0.40226 0.85805 0.44952 0.0
H1154 H 0.57703 0.84209 0.44662 0.0
H1155 H 0.45137 0.94642 0.40785 0.0
H1156 H 0.46507 0.85073 0.44847 0.0
H1157 H 0.54675 0.91346 0.39966 0.0
C1158 C 0.58506 0.88763 0.40784 0.0
C1159 C 0.59406 0.86681 0.42086 0.0
C1160 C 0.46239 0.87206 0.43966 0.0
C1161 C 0.53025 0.88739 0.42532 0.0
C1162 C 0.42647 0.8762 0.44023 0.0
C1163 C 0.42153 0.90289 0.42875 0.0
C1164 C 0.49346 0.89416 0.42729 0.0
C1165 C 0.45392 0.92559 0.41697 0.0
C1166 C 0.55367 0.89833 0.41007 0.0
C1167 C 0.57143 0.85835 0.43627 0.0
N1168 N 0.48822 0.92034 0.41641 0.0
N1169 N 0.54021 0.8681 0.43798 0.0
H1170 H 0.90921 0.86083 0.25511 0.0
H1171 H 0.13347 0.94472 0.20976 0.0
H1172 H 0.94414 0.93371 0.2086 0.0
H1173 H 0.11004 0.90933 0.26307 0.0
H1174 H 0.06034 0.92909 0.20684 0.0
H1175 H 0.97898 0.86719 0.25603 0.0
C1176 C 0.93146 0.87789 0.24502 0.0
C1177 C 0.9209 0.89691 0.2318 0.0
C1178 C 0.07117 0.92436 0.21912 0.0
C1179 C 1.00082 0.90407 0.23267 0.0
C1180 C 0.1128 0.93292 0.22075 0.0
C1181 C 0.12801 0.9284 0.23669 0.0
C1182 C 1.04437 0.91063 0.23346 0.0
C1183 C 0.09981 0.91344 0.25055 0.0
C1184 C 0.97133 0.88161 0.24556 0.0
C1185 C 0.95104 0.91871 0.21907 0.0
N1186 N 0.05955 0.90517 0.24862 0.0
N1187 N 0.98956 0.92167 0.2198 0.0
H1188 H 0.29602 0.11614 0.26257 0.0
H1189 H 0.23389 0.27328 0.21637 0.0
H1190 H 0.25783 0.10543 0.20964 0.0
H1191 H 0.24446 0.26625 0.27126 0.0
H1192 H 0.25602 0.22075 0.21289 0.0
H1193 H 0.29 0.17963 0.2652 0.0
C1194 C 0.2869 0.12746 0.25146 0.0
C1195 C 0.27715 0.10542 0.2359 0.0
C1196 C 0.25395 0.23108 0.22569 0.0
C1197 C 0.27022 0.17785 0.23876 0.0
C1198 C 0.2416 0.2613 0.22767 0.0
C1199 C 0.23695 0.27396 0.24414 0.0
C1200 C 0.262 0.21357 0.24026 0.0
C1201 C 0.24723 0.25715 0.25833 0.0
C1202 C 0.28333 0.16358 0.25296 0.0
C1203 C 0.2654 0.12137 0.2219 0.0
N1204 N 0.25897 0.22769 0.25607 0.0
N1205 N 0.26211 0.15645 0.22367 0.0
H1206 H 0.88415 1.03526 0.2753 0.0
H1207 H 1.05124 0.21219 0.21496 0.0
H1208 H 0.87056 1.03273 0.22024 0.0
H1209 H 1.03835 0.2364 0.26812 0.0
H1210 H 0.98592 0.1454 0.21694 0.0
H1211 H 0.94039 0.10829 0.27344 0.0
C1212 C 0.89247 0.05027 0.26284 0.0
C1213 C 0.87271 1.02771 0.24789 0.0
C1214 C 0.99709 0.16542 0.22815 0.0
C1215 C 0.93769 0.11099 0.24566 0.0
C1216 C 1.0345 0.20346 0.22705 0.0
C1217 C 1.05023 0.22973 0.24142 0.0
C1218 C 0.97554 0.15305 0.24384 0.0
C1219 C 1.02722 0.21698 0.25675 0.0
C1220 C 0.92462 0.09195 0.2618 0.0
C1221 C 0.88483 0.04881 0.23211 0.0
N1222 N 0.99124 0.17926 0.25763 0.0
N1223 N 0.91696 0.08899 0.23139 0.0
H1224 H 0.91571 0.94538 0.77972 0.0
H1225 H 0.95937 0.12889 0.71405 0.0
H1226 H 0.91182 0.92879 0.72485 0.0
H1227 H 0.94017 0.13537 0.76835 0.0
H1228 H 0.93931 0.05509 0.71734 0.0
H1229 H 0.9224 1.01425 0.77556 0.0
C1230 C 0.91596 0.95618 0.76677 0.0
C1231 C 0.91334 0.93143 0.75261 0.0
C1232 C 0.93901 0.07252 0.7285 0.0
C1233 C 0.92145 1.01067 0.7477 0.0
C1234 C 0.95043 0.11471 0.72664 0.0
C1235 C 0.95176 0.13858 0.74097 0.0
C1236 C 0.92923 0.05405 0.74485 0.0
C1237 C 0.93974 0.11836 0.75694 0.0
C1238 C 0.91972 0.99553 0.76439 0.0
C1239 C 0.91374 0.94693 0.73612 0.0
N1240 N 0.92945 0.0775 0.75847 0.0
N1241 N 0.91815 0.98576 0.7341 0.0
H1242 H 0.26491 0.06616 0.73226 0.0
H1243 H 1.05298 0.90651 0.78229 0.0
H1244 H 0.24396 0.08107 0.78557 0.0
H1245 H 0.07118 0.90294 0.72779 0.0
H1246 H 0.12525 0.96529 0.78473 0.0
H1247 H 0.19662 1.00193 0.73127 0.0
C1248 C 0.24603 0.05579 0.7438 0.0
C1249 C 0.26023 0.07919 0.759 0.0
C1250 C 0.11352 0.95133 0.77226 0.0
C1251 C 0.18151 1.00528 0.758 0.0
C1252 C 0.07231 0.91749 0.77089 0.0
C1253 C 1.05573 0.8996 0.7548 0.0
C1254 C 0.13852 0.96734 0.75745 0.0
C1255 C 0.08233 0.91567 0.74046 0.0
C1256 C 0.20692 1.01906 0.74323 0.0
C1257 C 0.23427 0.0641 0.77356 0.0
N1258 N 0.12204 0.94847 0.74212 0.0
N1259 N 0.19624 1.02828 0.77269 0.0
H1260 H 0.28582 0.24007 0.71418 0.0
H1261 H 0.15325 0.31223 0.77181 0.0
H1262 H 0.31676 0.28217 0.76661 0.0
H1263 H 0.12528 0.27699 0.71862 0.0
H1264 H 0.21785 0.30902 0.76905 0.0
H1265 H 0.23226 0.26115 0.71438 0.0
C1266 C 0.28184 0.25435 0.72567 0.0
C1267 C 0.30561 0.25891 0.74048 0.0
C1268 C 0.19795 0.30244 0.7579 0.0
C1269 C 0.24382 0.28273 0.74083 0.0
C1270 C 0.16103 0.30432 0.75946 0.0
C1271 C 0.13379 0.29462 0.74544 0.0
C1272 C 0.20761 0.29031 0.74222 0.0
C1273 C 0.14544 0.28466 0.72975 0.0
C1274 C 0.25111 0.2663 0.72577 0.0
C1275 C 0.29909 0.27781 0.75493 0.0
N1276 N 0.18126 0.28228 0.7286 0.0
N1277 N 0.26851 0.28852 0.75481 0.0
H1278 H 0.57912 0.17016 0.56499 0.0
H1279 H 0.7892 0.26203 0.62109 0.0
H1280 H 0.59392 0.22906 0.61433 0.0
H1281 H 0.78109 0.22248 0.56839 0.0
H1282 H 0.71472 0.24032 0.62045 0.0
H1283 H 0.6493 0.17864 0.56785 0.0
C1284 C 0.59688 0.18422 0.57658 0.0
C1285 C 0.58074 0.19908 0.58942 0.0
C1286 C 0.72911 0.23611 0.60905 0.0
C1287 C 0.6614 0.20935 0.5927 0.0
C1288 C 0.77173 0.24845 0.60939 0.0
C1289 C 0.79168 0.24439 0.59471 0.0
C1290 C 0.70595 0.21939 0.59393 0.0
C1291 C 0.76717 0.22641 0.57998 0.0
C1292 C 0.63707 0.18929 0.57815 0.0
C1293 C 0.60517 0.21717 0.60413 0.0
N1294 N 0.72568 0.21478 0.57995 0.0
N1295 N 0.64439 0.22208 0.60531 0.0
H1296 H 0.97482 0.43483 0.56025 0.0
H1297 H 0.89561 0.57003 0.61233 0.0
H1298 H 0.93508 0.41166 0.61308 0.0
H1299 H 0.93592 0.59411 0.55953 0.0
H1300 H 0.91762 0.51744 0.61377 0.0
H1301 H 0.96906 0.49832 0.56077 0.0
C1302 C 0.96559 0.44354 0.57208 0.0
C1303 C 0.95527 0.41783 0.58664 0.0
C1304 C 0.92207 0.53443 0.6019 0.0
C1305 C 0.94792 0.49031 0.58725 0.0
C1306 C 0.90949 0.56458 0.60105 0.0
C1307 C 0.91356 0.5864 0.58571 0.0
C1308 C 0.9387 0.5256 0.58729 0.0
C1309 C 0.93207 0.57805 0.5716 0.0
C1310 C 0.96213 0.47974 0.57234 0.0
C1311 C 0.9434 0.4306 0.60158 0.0
N1312 N 0.94355 0.54804 0.57268 0.0
N1313 N 0.93961 0.46567 0.60144 0.0
H1314 H 0.57704 0.34974 0.55311 0.0
H1315 H 0.71939 0.58173 0.59119 0.0
H1316 H 0.56301 0.38393 0.60465 0.0
H1317 H 0.75538 0.53276 0.54815 0.0
H1318 H 0.65422 0.51392 0.59377 0.0
H1319 H 0.63448 0.42134 0.5485 0.0
C1320 C 0.58558 0.37239 0.56338 0.0
C1321 C 0.56523 0.36059 0.57933 0.0
C1322 C 0.67627 0.51823 0.58367 0.0
C1323 C 0.63113 0.44282 0.57413 0.0
C1324 C 0.7133 0.55695 0.58215 0.0
C1325 C 0.74287 0.5628 0.56948 0.0
C1326 C 0.66854 0.48542 0.57227 0.0
C1327 C 0.73353 0.52954 0.55816 0.0
C1328 C 0.61857 0.41325 0.56077 0.0
C1329 C 0.57793 0.39146 0.59218 0.0
N1330 N 0.69732 0.49241 0.55982 0.0
N1331 N 0.61004 0.43102 0.58932 0.0
loop_
_geom_bond_atom_site_label_1
_geom_bond_atom_site_label_2
_geom_bond_distance
_geom_bond_site_symmetry_2
_ccdc_geom_bond_type
O0 Tb1 2.506 . S
O0 C14 1.265 . S
Tb1 O0 2.506 . S
Tb1 O6 2.312 . S
Tb1 O10 2.271 . S
Tb1 O12 2.338 . S
Tb1 O19 2.441 . S
C2 O10 1.252 . S
C2 O11 1.253 1_545 S
O3 Tb4 2.271 . S
O3 C13 1.252 . S
Tb4 O3 2.271 . S
Tb4 O7 2.338 . S
Tb4 O11 2.312 . S
Tb4 O15 2.441 . S
Tb4 O16 2.506 . S
C5 O15 1.244 . S
C5 O16 1.265 . S
O6 Tb1 2.312 . S
O6 C13 1.253 1_545 S
O7 Tb4 2.338 . S
O7 C8 1.258 . S
C8 O7 1.258 . S
C8 O9 1.251 . S
O9 C8 1.251 . S
O10 Tb1 2.271 . S
O10 C2 1.252 . S
O11 C2 1.253 1_565 S
O11 Tb4 2.312 . S
O12 Tb1 2.338 . S
O12 C17 1.258 . S
C13 O3 1.252 . S
C13 O6 1.253 1_565 S
C14 O0 1.265 . S
C14 O19 1.244 . S
O15 Tb4 2.441 . S
O15 C5 1.244 . S
O16 Tb4 2.506 . S
O16 C5 1.265 . S
C17 O12 1.258 . S
C17 O18 1.251 . S
O18 C17 1.251 . S
O19 Tb1 2.441 . S
O19 C14 1.244 . S
O20 Tb21 2.506 . S
O20 C34 1.265 . S
Tb21 O20 2.506 . S
Tb21 O26 2.312 1_655 S
Tb21 O30 2.271 1_655 S
Tb21 O32 2.338 . S
Tb21 O39 2.441 . S
C22 O30 1.252 . S
C22 O31 1.253 . S
O23 Tb24 2.271 . S
O23 C33 1.252 . S
Tb24 O23 2.271 . S
Tb24 O27 2.338 . S
Tb24 O31 2.312 . S
Tb24 O35 2.441 . S
Tb24 O36 2.506 . S
C25 O35 1.244 . S
C25 O36 1.265 . S
O26 Tb21 2.312 1_455 S
O26 C33 1.253 . S
O27 Tb24 2.338 . S
O27 C28 1.258 . S
C28 O27 1.258 . S
C28 O29 1.251 . S
O29 C28 1.251 . S
O30 Tb21 2.271 1_455 S
O30 C22 1.252 . S
O31 C22 1.253 . S
O31 Tb24 2.312 . S
O32 Tb21 2.338 . S
O32 C37 1.258 . S
C33 O23 1.252 . S
C33 O26 1.253 . S
C34 O20 1.265 . S
C34 O39 1.244 . S
O35 Tb24 2.441 . S
O35 C25 1.244 . S
O36 Tb24 2.506 . S
O36 C25 1.265 . S
C37 O32 1.258 . S
C37 O38 1.251 . S
O38 C37 1.251 . S
O39 Tb21 2.441 . S
O39 C34 1.244 . S
O40 Tb41 2.506 . S
O40 C54 1.265 . S
Tb41 O40 2.506 . S
Tb41 O46 2.312 . S
Tb41 O50 2.271 . S
Tb41 O52 2.338 . S
Tb41 O59 2.441 . S
C42 O50 1.252 . S
C42 O51 1.253 . S
O43 Tb44 2.271 . S
O43 C53 1.252 . S
Tb44 O43 2.271 . S
Tb44 O47 2.338 . S
Tb44 O51 2.312 . S
Tb44 O55 2.441 . S
Tb44 O56 2.506 . S
C45 O55 1.244 . S
C45 O56 1.265 . S
O46 Tb41 2.312 . S
O46 C53 1.253 . S
O47 Tb44 2.338 . S
O47 C48 1.258 . S
C48 O47 1.258 . S
C48 O49 1.251 . S
O49 C48 1.251 . S
O50 Tb41 2.271 . S
O50 C42 1.252 . S
O51 C42 1.253 . S
O51 Tb44 2.312 . S
O52 Tb41 2.338 . S
O52 C57 1.258 . S
C53 O43 1.252 . S
C53 O46 1.253 . S
C54 O40 1.265 . S
C54 O59 1.244 . S
O55 Tb44 2.441 . S
O55 C45 1.244 . S
O56 Tb44 2.506 . S
O56 C45 1.265 . S
C57 O52 1.258 . S
C57 O58 1.251 . S
O58 C57 1.251 . S
O59 Tb41 2.441 . S
O59 C54 1.244 . S
O60 Tb61 2.506 . S
O60 C74 1.265 . S
Tb61 O60 2.506 . S
Tb61 O66 2.312 . S
Tb61 O70 2.271 . S
Tb61 O72 2.338 . S
Tb61 O79 2.441 . S
C62 O70 1.252 . S
C62 O71 1.253 1_455 S
O63 Tb64 2.271 . S
O63 C73 1.252 . S
Tb64 O63 2.271 . S
Tb64 O67 2.338 . S
Tb64 O71 2.312 . S
Tb64 O75 2.441 . S
Tb64 O76 2.506 . S
C65 O75 1.244 . S
C65 O76 1.265 . S
O66 Tb61 2.312 . S
O66 C73 1.253 1_455 S
O67 Tb64 2.338 . S
O67 C68 1.258 . S
C68 O67 1.258 . S
C68 O69 1.251 . S
O69 C68 1.251 . S
O70 Tb61 2.271 . S
O70 C62 1.252 . S
O71 C62 1.253 1_655 S
O71 Tb64 2.312 . S
O72 Tb61 2.338 . S
O72 C77 1.258 . S
C73 O63 1.252 . S
C73 O66 1.253 1_655 S
C74 O60 1.265 . S
C74 O79 1.244 . S
O75 Tb64 2.441 . S
O75 C65 1.244 . S
O76 Tb64 2.506 . S
O76 C65 1.265 . S
C77 O72 1.258 . S
C77 O78 1.251 . S
O78 C77 1.251 . S
O79 Tb61 2.441 . S
O79 C74 1.244 . S
O80 Tb81 2.506 . S
O80 C94 1.265 . S
Tb81 O80 2.506 . S
Tb81 O86 2.312 . S
Tb81 O90 2.271 . S
Tb81 O92 2.338 . S
Tb81 O99 2.441 . S
C82 O90 1.252 . S
C82 O91 1.253 . S
O83 Tb84 2.271 . S
O83 C93 1.252 . S
Tb84 O83 2.271 . S
Tb84 O87 2.338 . S
Tb84 O91 2.312 . S
Tb84 O95 2.441 . S
Tb84 O96 2.506 . S
C85 O95 1.244 . S
C85 O96 1.265 . S
O86 Tb81 2.312 . S
O86 C93 1.253 . S
O87 Tb84 2.338 . S
O87 C88 1.258 . S
C88 O87 1.258 . S
C88 O89 1.251 . S
O89 C88 1.251 . S
O90 Tb81 2.271 . S
O90 C82 1.252 . S
O91 C82 1.253 . S
O91 Tb84 2.312 . S
O92 Tb81 2.338 . S
O92 C97 1.258 . S
C93 O83 1.252 . S
C93 O86 1.253 . S
C94 O80 1.265 . S
C94 O99 1.244 . S
O95 Tb84 2.441 . S
O95 C85 1.244 . S
O96 Tb84 2.506 . S
O96 C85 1.265 . S
C97 O92 1.258 . S
C97 O98 1.251 . S
O98 C97 1.251 . S
O99 Tb81 2.441 . S
O99 C94 1.244 . S
O100 Tb101 2.506 . S
O100 C114 1.265 . S
Tb101 O100 2.506 . S
Tb101 O106 2.312 1_565 S
Tb101 O110 2.271 1_565 S
Tb101 O112 2.338 . S
Tb101 O119 2.441 . S
C102 O110 1.252 . S
C102 O111 1.253 . S
O103 Tb104 2.271 . S
O103 C113 1.252 . S
Tb104 O103 2.271 . S
Tb104 O107 2.338 . S
Tb104 O111 2.312 . S
Tb104 O115 2.441 . S
Tb104 O116 2.506 . S
C105 O115 1.244 . S
C105 O116 1.265 . S
O106 Tb101 2.312 1_545 S
O106 C113 1.253 . S
O107 Tb104 2.338 . S
O107 C108 1.258 . S
C108 O107 1.258 . S
C108 O109 1.251 . S
O109 C108 1.251 . S
O110 Tb101 2.271 1_545 S
O110 C102 1.252 . S
O111 C102 1.253 . S
O111 Tb104 2.312 . S
O112 Tb101 2.338 . S
O112 C117 1.258 . S
C113 O103 1.252 . S
C113 O106 1.253 . S
C114 O100 1.265 . S
C114 O119 1.244 . S
O115 Tb104 2.441 . S
O115 C105 1.244 . S
O116 Tb104 2.506 . S
O116 C105 1.265 . S
C117 O112 1.258 . S
C117 O118 1.251 . S
O118 C117 1.251 . S
O119 Tb101 2.441 . S
O119 C114 1.244 . S
O120 Tb121 2.506 . S
O120 C134 1.265 . S
Tb121 O120 2.506 . S
Tb121 O126 2.312 . S
Tb121 O130 2.271 . S
Tb121 O132 2.338 . S
Tb121 O139 2.441 . S
C122 O130 1.252 . S
C122 O131 1.253 . S
O123 Tb124 2.271 . S
O123 C133 1.252 . S
Tb124 O123 2.271 . S
Tb124 O127 2.338 . S
Tb124 O131 2.312 . S
Tb124 O135 2.441 . S
Tb124 O136 2.506 . S
C125 O135 1.244 . S
C125 O136 1.265 . S
O126 Tb121 2.312 . S
O126 C133 1.253 . S
O127 Tb124 2.338 . S
O127 C128 1.258 . S
C128 O127 1.258 . S
C128 O129 1.251 . S
O129 C128 1.251 . S
O130 Tb121 2.271 . S
O130 C122 1.252 . S
O131 C122 1.253 . S
O131 Tb124 2.312 . S
O132 Tb121 2.338 . S
O132 C137 1.258 . S
C133 O123 1.252 . S
C133 O126 1.253 . S
C134 O120 1.265 . S
C134 O139 1.244 . S
O135 Tb124 2.441 . S
O135 C125 1.244 . S
O136 Tb124 2.506 . S
O136 C125 1.265 . S
C137 O132 1.258 . S
C137 O138 1.251 . S
O138 C137 1.251 . S
O139 Tb121 2.441 . S
O139 C134 1.244 . S
O140 Tb141 2.506 . S
O140 C154 1.265 . S
Tb141 O140 2.506 . S
Tb141 O146 2.312 . S
Tb141 O150 2.271 . S
Tb141 O152 2.338 . S
Tb141 O159 2.441 . S
C142 O150 1.252 . S
C142 O151 1.253 . S
O143 Tb144 2.271 . S
O143 C153 1.252 . S
Tb144 O143 2.271 . S
Tb144 O147 2.338 . S
Tb144 O151 2.312 . S
Tb144 O155 2.441 . S
Tb144 O156 2.506 . S
C145 O155 1.244 . S
C145 O156 1.265 . S
O146 Tb141 2.312 . S
O146 C153 1.253 . S
O147 Tb144 2.338 . S
O147 C148 1.258 . S
C148 O147 1.258 . S
C148 O149 1.251 . S
O149 C148 1.251 . S
O150 Tb141 2.271 . S
O150 C142 1.252 . S
O151 C142 1.253 . S
O151 Tb144 2.312 . S
O152 Tb141 2.338 . S
O152 C157 1.258 . S
C153 O143 1.252 . S
C153 O146 1.253 . S
C154 O140 1.265 . S
C154 O159 1.244 . S
O155 Tb144 2.441 . S
O155 C145 1.244 . S
O156 Tb144 2.506 . S
O156 C145 1.265 . S
C157 O152 1.258 . S
C157 O158 1.251 . S
O158 C157 1.251 . S
O159 Tb141 2.441 . S
O159 C154 1.244 . S
O160 Tb161 2.506 . S
O160 C174 1.265 . S
Tb161 O160 2.506 . S
Tb161 O166 2.312 . S
Tb161 O170 2.271 . S
Tb161 O172 2.338 . S
Tb161 O179 2.441 . S
C162 O170 1.252 . S
C162 O171 1.253 . S
O163 Tb164 2.271 . S
O163 C173 1.252 . S
Tb164 O163 2.271 . S
Tb164 O167 2.338 . S
Tb164 O171 2.312 . S
Tb164 O175 2.441 . S
Tb164 O176 2.506 . S
C165 O175 1.244 . S
C165 O176 1.265 . S
O166 Tb161 2.312 . S
O166 C173 1.253 . S
O167 Tb164 2.338 . S
O167 C168 1.258 . S
C168 O167 1.258 . S
C168 O169 1.251 . S
O169 C168 1.251 . S
O170 Tb161 2.271 . S
O170 C162 1.252 . S
O171 C162 1.253 . S
O171 Tb164 2.312 . S
O172 Tb161 2.338 . S
O172 C177 1.258 . S
C173 O163 1.252 . S
C173 O166 1.253 . S
C174 O160 1.265 . S
C174 O179 1.244 . S
O175 Tb164 2.441 . S
O175 C165 1.244 . S
O176 Tb164 2.506 . S
O176 C165 1.265 . S
C177 O172 1.258 . S
C177 O178 1.251 . S
O178 C177 1.251 . S
O179 Tb161 2.441 . S
O179 C174 1.244 . S
O180 Tb181 2.506 . S
O180 C194 1.265 . S
Tb181 O180 2.506 . S
Tb181 O186 2.312 . S
Tb181 O190 2.271 . S
Tb181 O192 2.338 . S
Tb181 O199 2.441 . S
C182 O190 1.252 . S
C182 O191 1.253 . S
O183 Tb184 2.271 . S
O183 C193 1.252 . S
Tb184 O183 2.271 . S
Tb184 O187 2.338 . S
Tb184 O191 2.312 . S
Tb184 O195 2.441 . S
Tb184 O196 2.506 . S
C185 O195 1.244 . S
C185 O196 1.265 . S
O186 Tb181 2.312 . S
O186 C193 1.253 . S
O187 Tb184 2.338 . S
O187 C188 1.258 . S
C188 O187 1.258 . S
C188 O189 1.251 . S
O189 C188 1.251 . S
O190 Tb181 2.271 . S
O190 C182 1.252 . S
O191 C182 1.253 . S
O191 Tb184 2.312 . S
O192 Tb181 2.338 . S
O192 C197 1.258 . S
C193 O183 1.252 . S
C193 O186 1.253 . S
C194 O180 1.265 . S
C194 O199 1.244 . S
O195 Tb184 2.441 . S
O195 C185 1.244 . S
O196 Tb184 2.506 . S
O196 C185 1.265 . S
C197 O192 1.258 . S
C197 O198 1.251 . S
O198 C197 1.251 . S
O199 Tb181 2.441 . S
O199 C194 1.244 . S
O200 Tb201 2.506 . S
O200 C214 1.265 . S
Tb201 O200 2.506 . S
Tb201 O206 2.312 . S
Tb201 O210 2.271 . S
Tb201 O212 2.338 . S
Tb201 O219 2.441 . S
C202 O210 1.252 . S
C202 O211 1.253 . S
O203 Tb204 2.271 . S
O203 C213 1.252 . S
Tb204 O203 2.271 . S
Tb204 O207 2.338 . S
Tb204 O211 2.312 . S
Tb204 O215 2.441 . S
Tb204 O216 2.506 . S
C205 O215 1.244 . S
C205 O216 1.265 . S
O206 Tb201 2.312 . S
O206 C213 1.253 . S
O207 Tb204 2.338 . S
O207 C208 1.258 . S
C208 O207 1.258 . S
C208 O209 1.251 . S
O209 C208 1.251 . S
O210 Tb201 2.271 . S
O210 C202 1.252 . S
O211 C202 1.253 . S
O211 Tb204 2.312 . S
O212 Tb201 2.338 . S
O212 C217 1.258 . S
C213 O203 1.252 . S
C213 O206 1.253 . S
C214 O200 1.265 . S
C214 O219 1.244 . S
O215 Tb204 2.441 . S
O215 C205 1.244 . S
O216 Tb204 2.506 . S
O216 C205 1.265 . S
C217 O212 1.258 . S
C217 O218 1.251 . S
O218 C217 1.251 . S
O219 Tb201 2.441 . S
O219 C214 1.244 . S
O220 Tb221 2.506 . S
O220 C234 1.265 . S
Tb221 O220 2.506 . S
Tb221 O226 2.312 . S
Tb221 O230 2.271 . S
Tb221 O232 2.338 . S
Tb221 O239 2.441 . S
C222 O230 1.252 . S
C222 O231 1.253 . S
O223 Tb224 2.271 . S
O223 C233 1.252 . S
Tb224 O223 2.271 . S
Tb224 O227 2.338 . S
Tb224 O231 2.312 . S
Tb224 O235 2.441 . S
Tb224 O236 2.506 . S
C225 O235 1.244 . S
C225 O236 1.265 . S
O226 Tb221 2.312 . S
O226 C233 1.253 . S
O227 Tb224 2.338 . S
O227 C228 1.258 . S
C228 O227 1.258 . S
C228 O229 1.251 . S
O229 C228 1.251 . S
O230 Tb221 2.271 . S
O230 C222 1.252 . S
O231 C222 1.253 . S
O231 Tb224 2.312 . S
O232 Tb221 2.338 . S
O232 C237 1.258 . S
C233 O223 1.252 . S
C233 O226 1.253 . S
C234 O220 1.265 . S
C234 O239 1.244 . S
O235 Tb224 2.441 . S
O235 C225 1.244 . S
O236 Tb224 2.506 . S
O236 C225 1.265 . S
C237 O232 1.258 . S
C237 O238 1.251 . S
O238 C237 1.251 . S
O239 Tb221 2.441 . S
O239 C234 1.244 . S
O240 Tb241 2.506 . S
O240 C254 1.265 . S
Tb241 O240 2.506 . S
Tb241 O246 2.312 . S
Tb241 O250 2.271 . S
Tb241 O252 2.338 . S
Tb241 O259 2.441 . S
C242 O250 1.252 . S
C242 O251 1.253 . S
O243 Tb244 2.271 . S
O243 C253 1.252 . S
Tb244 O243 2.271 . S
Tb244 O247 2.338 . S
Tb244 O251 2.312 . S
Tb244 O255 2.441 . S
Tb244 O256 2.506 . S
C245 O255 1.244 . S
C245 O256 1.265 . S
O246 Tb241 2.312 . S
O246 C253 1.253 . S
O247 Tb244 2.338 . S
O247 C248 1.258 . S
C248 O247 1.258 . S
C248 O249 1.251 . S
O249 C248 1.251 . S
O250 Tb241 2.271 . S
O250 C242 1.252 . S
O251 C242 1.253 . S
O251 Tb244 2.312 . S
O252 Tb241 2.338 . S
O252 C257 1.258 . S
C253 O243 1.252 . S
C253 O246 1.253 . S
C254 O240 1.265 . S
C254 O259 1.244 . S
O255 Tb244 2.441 . S
O255 C245 1.244 . S
O256 Tb244 2.506 . S
O256 C245 1.265 . S
C257 O252 1.258 . S
C257 O258 1.251 . S
O258 C257 1.251 . S
O259 Tb241 2.441 . S
O259 C254 1.244 . S
O260 Tb261 2.506 . S
O260 C274 1.265 . S
Tb261 O260 2.506 . S
Tb261 O266 2.312 . S
Tb261 O270 2.271 . S
Tb261 O272 2.338 . S
Tb261 O279 2.441 . S
C262 O270 1.252 . S
C262 O271 1.253 . S
O263 Tb264 2.271 . S
O263 C273 1.252 . S
Tb264 O263 2.271 . S
Tb264 O267 2.338 . S
Tb264 O271 2.312 . S
Tb264 O275 2.441 . S
Tb264 O276 2.506 . S
C265 O275 1.244 . S
C265 O276 1.265 . S
O266 Tb261 2.312 . S
O266 C273 1.253 . S
O267 Tb264 2.338 . S
O267 C268 1.258 . S
C268 O267 1.258 . S
C268 O269 1.251 . S
O269 C268 1.251 . S
O270 Tb261 2.271 . S
O270 C262 1.252 . S
O271 C262 1.253 . S
O271 Tb264 2.312 . S
O272 Tb261 2.338 . S
O272 C277 1.258 . S
C273 O263 1.252 . S
C273 O266 1.253 . S
C274 O260 1.265 . S
C274 O279 1.244 . S
O275 Tb264 2.441 . S
O275 C265 1.244 . S
O276 Tb264 2.506 . S
O276 C265 1.265 . S
C277 O272 1.258 . S
C277 O278 1.251 . S
O278 C277 1.251 . S
O279 Tb261 2.441 . S
O279 C274 1.244 . S
O280 Tb281 2.506 . S
O280 C294 1.265 . S
Tb281 O280 2.506 . S
Tb281 O286 2.312 . S
Tb281 O290 2.271 . S
Tb281 O292 2.338 . S
Tb281 O299 2.441 . S
C282 O290 1.252 . S
C282 O291 1.253 . S
O283 Tb284 2.271 . S
O283 C293 1.252 . S
Tb284 O283 2.271 . S
Tb284 O287 2.338 . S
Tb284 O291 2.312 . S
Tb284 O295 2.441 . S
Tb284 O296 2.506 . S
C285 O295 1.244 . S
C285 O296 1.265 . S
O286 Tb281 2.312 . S
O286 C293 1.253 . S
O287 Tb284 2.338 . S
O287 C288 1.258 . S
C288 O287 1.258 . S
C288 O289 1.251 . S
O289 C288 1.251 . S
O290 Tb281 2.271 . S
O290 C282 1.252 . S
O291 C282 1.253 . S
O291 Tb284 2.312 . S
O292 Tb281 2.338 . S
O292 C297 1.258 . S
C293 O283 1.252 . S
C293 O286 1.253 . S
C294 O280 1.265 . S
C294 O299 1.244 . S
O295 Tb284 2.441 . S
O295 C285 1.244 . S
O296 Tb284 2.506 . S
O296 C285 1.265 . S
C297 O292 1.258 . S
C297 O298 1.251 . S
O298 C297 1.251 . S
O299 Tb281 2.441 . S
O299 C294 1.244 . S
O300 Tb301 2.506 . S
O300 C314 1.265 . S
Tb301 O300 2.506 . S
Tb301 O306 2.312 . S
Tb301 O310 2.271 . S
Tb301 O312 2.338 . S
Tb301 O319 2.441 . S
C302 O310 1.252 . S
C302 O311 1.253 . S
O303 Tb304 2.271 . S
O303 C313 1.252 . S
Tb304 O303 2.271 . S
Tb304 O307 2.338 . S
Tb304 O311 2.312 . S
Tb304 O315 2.441 . S
Tb304 O316 2.506 . S
C305 O315 1.244 . S
C305 O316 1.265 . S
O306 Tb301 2.312 . S
O306 C313 1.253 . S
O307 Tb304 2.338 . S
O307 C308 1.258 . S
C308 O307 1.258 . S
C308 O309 1.251 . S
O309 C308 1.251 . S
O310 Tb301 2.271 . S
O310 C302 1.252 . S
O311 C302 1.253 . S
O311 Tb304 2.312 . S
O312 Tb301 2.338 . S
O312 C317 1.258 . S
C313 O303 1.252 . S
C313 O306 1.253 . S
C314 O300 1.265 . S
C314 O319 1.244 . S
O315 Tb304 2.441 . S
O315 C305 1.244 . S
O316 Tb304 2.506 . S
O316 C305 1.265 . S
C317 O312 1.258 . S
C317 O318 1.251 . S
O318 C317 1.251 . S
O319 Tb301 2.441 . S
O319 C314 1.244 . S
O320 Tb321 2.506 . S
O320 C334 1.265 . S
Tb321 O320 2.506 . S
Tb321 O326 2.312 . S
Tb321 O330 2.271 . S
Tb321 O332 2.338 . S
Tb321 O339 2.441 . S
C322 O330 1.252 . S
C322 O331 1.253 . S
O323 Tb324 2.271 . S
O323 C333 1.252 . S
Tb324 O323 2.271 . S
Tb324 O327 2.338 . S
Tb324 O331 2.312 . S
Tb324 O335 2.441 . S
Tb324 O336 2.506 . S
C325 O335 1.244 . S
C325 O336 1.265 . S
O326 Tb321 2.312 . S
O326 C333 1.253 . S
O327 Tb324 2.338 . S
O327 C328 1.258 . S
C328 O327 1.258 . S
C328 O329 1.251 . S
O329 C328 1.251 . S
O330 Tb321 2.271 . S
O330 C322 1.252 . S
O331 C322 1.253 . S
O331 Tb324 2.312 . S
O332 Tb321 2.338 . S
O332 C337 1.258 . S
C333 O323 1.252 . S
C333 O326 1.253 . S
C334 O320 1.265 . S
C334 O339 1.244 . S
O335 Tb324 2.441 . S
O335 C325 1.244 . S
O336 Tb324 2.506 . S
O336 C325 1.265 . S
C337 O332 1.258 . S
C337 O338 1.251 . S
O338 C337 1.251 . S
O339 Tb321 2.441 . S
O339 C334 1.244 . S
O340 Tb341 2.506 . S
O340 C354 1.265 . S
Tb341 O340 2.506 . S
Tb341 O346 2.312 . S
Tb341 O350 2.271 . S
Tb341 O352 2.338 . S
Tb341 O359 2.441 . S
C342 O350 1.252 . S
C342 O351 1.253 . S
O343 Tb344 2.271 . S
O343 C353 1.252 . S
Tb344 O343 2.271 . S
Tb344 O347 2.338 . S
Tb344 O351 2.312 . S
Tb344 O355 2.441 . S
Tb344 O356 2.506 . S
C345 O355 1.244 . S
C345 O356 1.265 . S
O346 Tb341 2.312 . S
O346 C353 1.253 . S
O347 Tb344 2.338 . S
O347 C348 1.258 . S
C348 O347 1.258 . S
C348 O349 1.251 . S
O349 C348 1.251 . S
O350 Tb341 2.271 . S
O350 C342 1.252 . S
O351 C342 1.253 . S
O351 Tb344 2.312 . S
O352 Tb341 2.338 . S
O352 C357 1.258 . S
C353 O343 1.252 . S
C353 O346 1.253 . S
C354 O340 1.265 . S
C354 O359 1.244 . S
O355 Tb344 2.441 . S
O355 C345 1.244 . S
O356 Tb344 2.506 . S
O356 C345 1.265 . S
C357 O352 1.258 . S
C357 O358 1.251 . S
O358 C357 1.251 . S
O359 Tb341 2.441 . S
O359 C354 1.244 . S
H360 C366 0.930 . S
H361 C370 0.930 . S
H362 C375 0.929 . S
H363 C373 0.929 . S
H364 C368 0.929 . S
H365 C374 0.929 . S
C366 H360 0.930 . S
C366 C367 1.367 . S
C366 C374 1.378 . S
C367 C366 1.367 . S
C367 C375 1.433 . S
C368 H364 0.929 . S
C368 C370 1.378 . S
C368 C372 1.350 . S
C369 C372 1.463 . S
C369 C374 1.350 . S
C369 N377 1.427 . S
C370 H361 0.930 . S
C370 C368 1.378 . S
C370 C371 1.367 . S
C371 C370 1.367 . S
C371 C373 1.433 . S
C372 C368 1.350 . S
C372 C369 1.463 . S
C372 N376 1.427 . S
C373 H363 0.929 . S
C373 C371 1.433 . S
C373 N376 1.384 . S
C374 H365 0.929 . S
C374 C366 1.378 . S
C374 C369 1.350 . S
C375 H362 0.929 . S
C375 C367 1.433 . S
C375 N377 1.384 . S
N376 C372 1.427 . S
N376 C373 1.384 . S
N377 C369 1.427 . S
N377 C375 1.384 . S
H378 C384 0.930 . S
H379 C388 0.930 . S
H380 C393 0.929 . S
H381 C391 0.929 . S
H382 C386 0.929 . S
H383 C392 0.929 . S
C384 H378 0.930 . S
C384 C385 1.367 . S
C384 C392 1.378 . S
C385 C384 1.367 . S
C385 C393 1.433 . S
C386 H382 0.929 . S
C386 C388 1.378 . S
C386 C390 1.350 . S
C387 C390 1.463 . S
C387 C392 1.350 . S
C387 N395 1.427 . S
C388 H379 0.930 . S
C388 C386 1.378 . S
C388 C389 1.367 . S
C389 C388 1.367 . S
C389 C391 1.433 . S
C390 C386 1.350 . S
C390 C387 1.463 . S
C390 N394 1.427 . S
C391 H381 0.929 . S
C391 C389 1.433 . S
C391 N394 1.384 . S
C392 H383 0.929 . S
C392 C384 1.378 . S
C392 C387 1.350 . S
C393 H380 0.929 . S
C393 C385 1.433 . S
C393 N395 1.384 . S
N394 C390 1.427 . S
N394 C391 1.384 . S
N395 C387 1.427 . S
N395 C393 1.384 . S
H396 C402 0.930 . S
H397 C406 0.930 . S
H398 C411 0.929 . S
H399 C409 0.929 . S
H400 C404 0.929 . S
H401 C410 0.929 . S
C402 H396 0.930 . S
C402 C403 1.367 . S
C402 C410 1.378 . S
C403 C402 1.367 . S
C403 C411 1.433 . S
C404 H400 0.929 . S
C404 C406 1.378 . S
C404 C408 1.350 . S
C405 C408 1.463 . S
C405 C410 1.350 . S
C405 N413 1.427 . S
C406 H397 0.930 . S
C406 C404 1.378 . S
C406 C407 1.367 . S
C407 C406 1.367 . S
C407 C409 1.433 . S
C408 C404 1.350 . S
C408 C405 1.463 . S
C408 N412 1.427 . S
C409 H399 0.929 . S
C409 C407 1.433 . S
C409 N412 1.384 . S
C410 H401 0.929 . S
C410 C402 1.378 . S
C410 C405 1.350 . S
C411 H398 0.929 . S
C411 C403 1.433 . S
C411 N413 1.384 . S
N412 C408 1.427 . S
N412 C409 1.384 . S
N413 C405 1.427 . S
N413 C411 1.384 . S
H414 C420 0.930 . S
H415 C424 0.930 . S
H416 C429 0.929 . S
H417 C427 0.929 . S
H418 C422 0.929 . S
H419 C428 0.929 . S
C420 H414 0.930 . S
C420 C421 1.367 . S
C420 C428 1.378 . S
C421 C420 1.367 . S
C421 C429 1.433 . S
C422 H418 0.929 . S
C422 C424 1.378 . S
C422 C426 1.350 . S
C423 C426 1.463 . S
C423 C428 1.350 . S
C423 N431 1.427 . S
C424 H415 0.930 . S
C424 C422 1.378 . S
C424 C425 1.367 . S
C425 C424 1.367 . S
C425 C427 1.433 . S
C426 C422 1.350 . S
C426 C423 1.463 . S
C426 N430 1.427 . S
C427 H417 0.929 . S
C427 C425 1.433 . S
C427 N430 1.384 . S
C428 H419 0.929 . S
C428 C420 1.378 . S
C428 C423 1.350 . S
C429 H416 0.929 . S
C429 C421 1.433 . S
C429 N431 1.384 . S
N430 C426 1.427 . S
N430 C427 1.384 . S
N431 C423 1.427 . S
N431 C429 1.384 . S
H432 C438 0.930 . S
H433 C442 0.930 . S
H434 C447 0.929 . S
H435 C445 0.929 . S
H436 C440 0.929 . S
H437 C446 0.929 . S
C438 H432 0.930 . S
C438 C439 1.367 . S
C438 C446 1.378 . S
C439 C438 1.367 . S
C439 C447 1.433 . S
C440 H436 0.929 . S
C440 C442 1.378 . S
C440 C444 1.350 . S
C441 C444 1.463 . S
C441 C446 1.350 . S
C441 N449 1.427 . S
C442 H433 0.930 . S
C442 C440 1.378 . S
C442 C443 1.367 . S
C443 C442 1.367 . S
C443 C445 1.433 . S
C444 C440 1.350 . S
C444 C441 1.463 . S
C444 N448 1.427 . S
C445 H435 0.929 . S
C445 C443 1.433 . S
C445 N448 1.384 . S
C446 H437 0.929 . S
C446 C438 1.378 . S
C446 C441 1.350 . S
C447 H434 0.929 . S
C447 C439 1.433 . S
C447 N449 1.384 . S
N448 C444 1.427 . S
N448 C445 1.384 . S
N449 C441 1.427 . S
N449 C447 1.384 . S
H450 C456 0.930 . S
H451 C460 0.930 . S
H452 C465 0.929 . S
H453 C463 0.929 . S
H454 C458 0.929 . S
H455 C464 0.929 . S
C456 H450 0.930 . S
C456 C457 1.367 . S
C456 C464 1.378 . S
C457 C456 1.367 . S
C457 C465 1.433 . S
C458 H454 0.929 . S
C458 C460 1.378 . S
C458 C462 1.350 . S
C459 C462 1.463 . S
C459 C464 1.350 . S
C459 N467 1.427 . S
C460 H451 0.930 . S
C460 C458 1.378 . S
C460 C461 1.367 . S
C461 C460 1.367 . S
C461 C463 1.433 . S
C462 C458 1.350 . S
C462 C459 1.463 . S
C462 N466 1.427 . S
C463 H453 0.929 . S
C463 C461 1.433 . S
C463 N466 1.384 . S
C464 H455 0.929 . S
C464 C456 1.378 . S
C464 C459 1.350 . S
C465 H452 0.929 . S
C465 C457 1.433 . S
C465 N467 1.384 . S
N466 C462 1.427 . S
N466 C463 1.384 . S
N467 C459 1.427 . S
N467 C465 1.384 . S
H468 C474 0.930 . S
H469 C478 0.930 . S
H470 C483 0.929 . S
H471 C481 0.929 . S
H472 C476 0.929 . S
H473 C482 0.929 . S
C474 H468 0.930 . S
C474 C475 1.367 . S
C474 C482 1.378 . S
C475 C474 1.367 . S
C475 C483 1.433 . S
C476 H472 0.929 . S
C476 C478 1.378 . S
C476 C480 1.350 . S
C477 C480 1.463 . S
C477 C482 1.350 . S
C477 N485 1.427 . S
C478 H469 0.930 . S
C478 C476 1.378 . S
C478 C479 1.367 . S
C479 C478 1.367 . S
C479 C481 1.433 . S
C480 C476 1.350 . S
C480 C477 1.463 . S
C480 N484 1.427 . S
C481 H471 0.929 . S
C481 C479 1.433 . S
C481 N484 1.384 . S
C482 H473 0.929 . S
C482 C474 1.378 . S
C482 C477 1.350 . S
C483 H470 0.929 . S
C483 C475 1.433 . S
C483 N485 1.384 . S
N484 C480 1.427 . S
N484 C481 1.384 . S
N485 C477 1.427 . S
N485 C483 1.384 . S
H486 C492 0.930 . S
H487 C496 0.930 . S
H488 C501 0.929 . S
H489 C499 0.929 1_565 S
H490 C494 0.929 . S
H491 C500 0.929 . S
C492 H486 0.930 . S
C492 C493 1.367 . S
C492 C500 1.378 1_455 S
C493 C492 1.367 . S
C493 C501 1.433 1_455 S
C494 H490 0.929 . S
C494 C496 1.378 1_545 S
C494 C498 1.350 . S
C495 C498 1.463 . S
C495 C500 1.350 . S
C495 N503 1.427 . S
C496 H487 0.930 . S
C496 C494 1.378 1_565 S
C496 C497 1.367 . S
C497 C496 1.367 . S
C497 C499 1.433 1_565 S
C498 C494 1.350 . S
C498 C495 1.463 . S
C498 N502 1.427 . S
C499 H489 0.929 1_545 S
C499 C497 1.433 1_545 S
C499 N502 1.384 . S
C500 H491 0.929 . S
C500 C492 1.378 1_655 S
C500 C495 1.350 . S
C501 H488 0.929 . S
C501 C493 1.433 1_655 S
C501 N503 1.384 . S
N502 C498 1.427 . S
N502 C499 1.384 . S
N503 C495 1.427 . S
N503 C501 1.384 . S
H504 C510 0.930 . S
H505 C514 0.930 . S
H506 C519 0.929 . S
H507 C517 0.929 . S
H508 C512 0.929 . S
H509 C518 0.929 . S
C510 H504 0.930 . S
C510 C511 1.367 . S
C510 C518 1.378 . S
C511 C510 1.367 . S
C511 C519 1.433 . S
C512 H508 0.929 . S
C512 C514 1.378 . S
C512 C516 1.350 . S
C513 C516 1.463 1_455 S
C513 C518 1.350 . S
C513 N521 1.427 . S
C514 H505 0.930 . S
C514 C512 1.378 . S
C514 C515 1.367 . S
C515 C514 1.367 . S
C515 C517 1.433 . S
C516 C512 1.350 . S
C516 C513 1.463 1_655 S
C516 N520 1.427 . S
C517 H507 0.929 . S
C517 C515 1.433 . S
C517 N520 1.384 . S
C518 H509 0.929 . S
C518 C510 1.378 . S
C518 C513 1.350 . S
C519 H506 0.929 . S
C519 C511 1.433 . S
C519 N521 1.384 . S
N520 C516 1.427 . S
N520 C517 1.384 . S
N521 C513 1.427 . S
N521 C519 1.384 . S
H522 C528 0.930 . S
H523 C532 0.930 . S
H524 C537 0.929 . S
H525 C535 0.929 . S
H526 C530 0.929 . S
H527 C536 0.929 . S
C528 H522 0.930 . S
C528 C529 1.367 . S
C528 C536 1.378 . S
C529 C528 1.367 . S
C529 C537 1.433 . S
C530 H526 0.929 . S
C530 C532 1.378 . S
C530 C534 1.350 . S
C531 C534 1.463 . S
C531 C536 1.350 . S
C531 N539 1.427 . S
C532 H523 0.930 . S
C532 C530 1.378 . S
C532 C533 1.367 . S
C533 C532 1.367 . S
C533 C535 1.433 . S
C534 C530 1.350 . S
C534 C531 1.463 . S
C534 N538 1.427 . S
C535 H525 0.929 . S
C535 C533 1.433 . S
C535 N538 1.384 . S
C536 H527 0.929 . S
C536 C528 1.378 . S
C536 C531 1.350 . S
C537 H524 0.929 . S
C537 C529 1.433 . S
C537 N539 1.384 . S
N538 C534 1.427 . S
N538 C535 1.384 . S
N539 C531 1.427 . S
N539 C537 1.384 . S
H540 C546 0.930 . S
H541 C550 0.930 . S
H542 C555 0.929 . S
H543 C553 0.929 . S
H544 C548 0.929 . S
H545 C554 0.929 . S
C546 H540 0.930 . S
C546 C547 1.367 . S
C546 C554 1.378 . S
C547 C546 1.367 . S
C547 C555 1.433 . S
C548 H544 0.929 . S
C548 C550 1.378 . S
C548 C552 1.350 . S
C549 C552 1.463 . S
C549 C554 1.350 . S
C549 N557 1.427 . S
C550 H541 0.930 . S
C550 C548 1.378 . S
C550 C551 1.367 . S
C551 C550 1.367 . S
C551 C553 1.433 . S
C552 C548 1.350 . S
C552 C549 1.463 . S
C552 N556 1.427 . S
C553 H543 0.929 . S
C553 C551 1.433 . S
C553 N556 1.384 . S
C554 H545 0.929 . S
C554 C546 1.378 . S
C554 C549 1.350 . S
C555 H542 0.929 . S
C555 C547 1.433 . S
C555 N557 1.384 . S
N556 C552 1.427 . S
N556 C553 1.384 . S
N557 C549 1.427 . S
N557 C555 1.384 . S
H558 C564 0.930 . S
H559 C568 0.930 . S
H560 C573 0.929 . S
H561 C571 0.929 . S
H562 C566 0.929 . S
H563 C572 0.929 . S
C564 H558 0.930 . S
C564 C565 1.367 . S
C564 C572 1.378 . S
C565 C564 1.367 . S
C565 C573 1.433 . S
C566 H562 0.929 . S
C566 C568 1.378 . S
C566 C570 1.350 . S
C567 C570 1.463 . S
C567 C572 1.350 . S
C567 N575 1.427 . S
C568 H559 0.930 . S
C568 C566 1.378 . S
C568 C569 1.367 . S
C569 C568 1.367 . S
C569 C571 1.433 . S
C570 C566 1.350 . S
C570 C567 1.463 . S
C570 N574 1.427 . S
C571 H561 0.929 . S
C571 C569 1.433 . S
C571 N574 1.384 . S
C572 H563 0.929 . S
C572 C564 1.378 . S
C572 C567 1.350 . S
C573 H560 0.929 . S
C573 C565 1.433 . S
C573 N575 1.384 . S
N574 C570 1.427 . S
N574 C571 1.384 . S
N575 C567 1.427 . S
N575 C573 1.384 . S
H576 C582 0.930 . S
H577 C586 0.930 . S
H578 C591 0.929 . S
H579 C589 0.929 . S
H580 C584 0.929 . S
H581 C590 0.929 . S
C582 H576 0.930 . S
C582 C583 1.367 . S
C582 C590 1.378 . S
C583 C582 1.367 . S
C583 C591 1.433 . S
C584 H580 0.929 . S
C584 C586 1.378 . S
C584 C588 1.350 . S
C585 C588 1.463 . S
C585 C590 1.350 . S
C585 N593 1.427 . S
C586 H577 0.930 . S
C586 C584 1.378 . S
C586 C587 1.367 . S
C587 C586 1.367 . S
C587 C589 1.433 . S
C588 C584 1.350 . S
C588 C585 1.463 . S
C588 N592 1.427 . S
C589 H579 0.929 . S
C589 C587 1.433 . S
C589 N592 1.384 . S
C590 H581 0.929 . S
C590 C582 1.378 . S
C590 C585 1.350 . S
C591 H578 0.929 . S
C591 C583 1.433 . S
C591 N593 1.384 . S
N592 C588 1.427 . S
N592 C589 1.384 . S
N593 C585 1.427 . S
N593 C591 1.384 . S
H594 C600 0.930 . S
H595 C604 0.930 . S
H596 C609 0.929 . S
H597 C607 0.929 . S
H598 C602 0.929 . S
H599 C608 0.929 . S
C600 H594 0.930 . S
C600 C601 1.367 . S
C600 C608 1.378 . S
C601 C600 1.367 . S
C601 C609 1.433 . S
C602 H598 0.929 . S
C602 C604 1.378 . S
C602 C606 1.350 . S
C603 C606 1.463 . S
C603 C608 1.350 . S
C603 N611 1.427 . S
C604 H595 0.930 . S
C604 C602 1.378 . S
C604 C605 1.367 . S
C605 C604 1.367 . S
C605 C607 1.433 . S
C606 C602 1.350 . S
C606 C603 1.463 . S
C606 N610 1.427 . S
C607 H597 0.929 . S
C607 C605 1.433 . S
C607 N610 1.384 . S
C608 H599 0.929 . S
C608 C600 1.378 . S
C608 C603 1.350 . S
C609 H596 0.929 . S
C609 C601 1.433 . S
C609 N611 1.384 . S
N610 C606 1.427 . S
N610 C607 1.384 . S
N611 C603 1.427 . S
N611 C609 1.384 . S
H612 C618 0.930 . S
H613 C622 0.930 . S
H614 C627 0.929 . S
H615 C625 0.929 . S
H616 C620 0.929 . S
H617 C626 0.929 . S
C618 H612 0.930 . S
C618 C619 1.367 . S
C618 C626 1.378 . S
C619 C618 1.367 . S
C619 C627 1.433 . S
C620 H616 0.929 . S
C620 C622 1.378 . S
C620 C624 1.350 . S
C621 C624 1.463 . S
C621 C626 1.350 . S
C621 N629 1.427 . S
C622 H613 0.930 . S
C622 C620 1.378 . S
C622 C623 1.367 . S
C623 C622 1.367 . S
C623 C625 1.433 . S
C624 C620 1.350 . S
C624 C621 1.463 . S
C624 N628 1.427 . S
C625 H615 0.929 . S
C625 C623 1.433 . S
C625 N628 1.384 . S
C626 H617 0.929 . S
C626 C618 1.378 . S
C626 C621 1.350 . S
C627 H614 0.929 . S
C627 C619 1.433 . S
C627 N629 1.384 . S
N628 C624 1.427 . S
N628 C625 1.384 . S
N629 C621 1.427 . S
N629 C627 1.384 . S
H630 C636 0.930 . S
H631 C640 0.930 . S
H632 C645 0.929 . S
H633 C643 0.929 . S
H634 C638 0.929 . S
H635 C644 0.929 . S
C636 H630 0.930 . S
C636 C637 1.367 . S
C636 C644 1.378 . S
C637 C636 1.367 . S
C637 C645 1.433 . S
C638 H634 0.929 . S
C638 C640 1.378 . S
C638 C642 1.350 . S
C639 C642 1.463 . S
C639 C644 1.350 . S
C639 N647 1.427 . S
C640 H631 0.930 . S
C640 C638 1.378 . S
C640 C641 1.367 . S
C641 C640 1.367 . S
C641 C643 1.433 . S
C642 C638 1.350 . S
C642 C639 1.463 . S
C642 N646 1.427 . S
C643 H633 0.929 . S
C643 C641 1.433 . S
C643 N646 1.384 . S
C644 H635 0.929 . S
C644 C636 1.378 . S
C644 C639 1.350 . S
C645 H632 0.929 . S
C645 C637 1.433 . S
C645 N647 1.384 . S
N646 C642 1.427 . S
N646 C643 1.384 . S
N647 C639 1.427 . S
N647 C645 1.384 . S
H648 C654 0.930 . S
H649 C658 0.930 . S
H650 C663 0.929 . S
H651 C661 0.929 . S
H652 C656 0.929 . S
H653 C662 0.929 . S
C654 H648 0.930 . S
C654 C655 1.367 . S
C654 C662 1.378 . S
C655 C654 1.367 . S
C655 C663 1.433 . S
C656 H652 0.929 . S
C656 C658 1.378 . S
C656 C660 1.350 . S
C657 C660 1.463 1_565 S
C657 C662 1.350 . S
C657 N665 1.427 . S
C658 H649 0.930 . S
C658 C656 1.378 . S
C658 C659 1.367 . S
C659 C658 1.367 . S
C659 C661 1.433 . S
C660 C656 1.350 . S
C660 C657 1.463 1_545 S
C660 N664 1.427 . S
C661 H651 0.929 . S
C661 C659 1.433 . S
C661 N664 1.384 . S
C662 H653 0.929 . S
C662 C654 1.378 . S
C662 C657 1.350 . S
C663 H650 0.929 . S
C663 C655 1.433 . S
C663 N665 1.384 . S
N664 C660 1.427 . S
N664 C661 1.384 . S
N665 C657 1.427 . S
N665 C663 1.384 . S
H666 C672 0.930 . S
H667 C676 0.930 . S
H668 C681 0.929 . S
H669 C679 0.929 . S
H670 C674 0.929 . S
H671 C680 0.929 . S
C672 H666 0.930 . S
C672 C673 1.367 1_565 S
C672 C680 1.378 . S
C673 C672 1.367 1_545 S
C673 C681 1.433 . S
C674 H670 0.929 . S
C674 C676 1.378 1_455 S
C674 C678 1.350 . S
C675 C678 1.463 . S
C675 C680 1.350 . S
C675 N683 1.398 1_565 S
C676 H667 0.930 . S
C676 C674 1.378 1_655 S
C676 C677 1.367 . S
C677 C676 1.367 . S
C677 C679 1.433 1_655 S
C678 C674 1.350 . S
C678 C675 1.463 . S
C678 N682 1.427 . S
C679 H669 0.929 . S
C679 C677 1.433 1_455 S
C679 N682 1.384 . S
C680 H671 0.929 . S
C680 C672 1.378 . S
C680 C675 1.350 . S
C681 H668 0.929 . S
C681 C673 1.433 . S
C681 N683 1.397 . S
N682 C678 1.427 . S
N682 C679 1.384 . S
N683 C675 1.398 1_545 S
N683 C681 1.397 . S
H684 C690 0.930 . S
H685 C694 0.930 . S
H686 C699 0.929 1_565 S
H687 C697 0.929 . S
H688 C692 0.929 . S
H689 C698 0.929 . S
C690 H684 0.930 . S
C690 C691 1.367 . S
C690 C698 1.378 . S
C691 C690 1.367 . S
C691 C699 1.433 . S
C692 H688 0.929 . S
C692 C694 1.378 . S
C692 C696 1.350 1_565 S
C693 C696 1.463 1_554 S
C693 C698 1.350 . S
C693 N701 1.427 1_545 S
C694 H685 0.930 . S
C694 C692 1.378 . S
C694 C695 1.367 1_565 S
C695 C694 1.367 1_545 S
C695 C697 1.433 . S
C696 C692 1.350 1_545 S
C696 C693 1.463 1_556 S
C696 N700 1.427 . S
C697 H687 0.929 . S
C697 C695 1.433 . S
C697 N700 1.384 . S
C698 H689 0.929 . S
C698 C690 1.378 . S
C698 C693 1.350 . S
C699 H686 0.929 1_545 S
C699 C691 1.433 . S
C699 N701 1.384 1_545 S
N700 C696 1.427 . S
N700 C697 1.384 . S
N701 C693 1.427 1_565 S
N701 C699 1.384 1_565 S
H702 C708 0.930 . S
H703 C712 0.930 1_655 S
H704 C717 0.929 . S
H705 C715 0.929 . S
H706 C710 0.929 1_655 S
H707 C716 0.929 . S
C708 H702 0.930 . S
C708 C709 1.367 . S
C708 C716 1.378 . S
C709 C708 1.367 . S
C709 C717 1.433 . S
C710 H706 0.929 1_455 S
C710 C712 1.378 . S
C710 C714 1.350 . S
C711 C714 1.463 1_556 S
C711 C716 1.350 . S
C711 N719 1.427 . S
C712 H703 0.930 1_455 S
C712 C710 1.378 . S
C712 C713 1.367 . S
C713 C712 1.367 . S
C713 C715 1.433 . S
C714 C710 1.350 . S
C714 C711 1.463 1_554 S
C714 N718 1.427 . S
C715 H705 0.929 . S
C715 C713 1.433 . S
C715 N718 1.384 . S
C716 H707 0.929 . S
C716 C708 1.378 . S
C716 C711 1.350 . S
C717 H704 0.929 . S
C717 C709 1.433 . S
C717 N719 1.384 . S
N718 C714 1.427 . S
N718 C715 1.384 . S
N719 C711 1.427 . S
N719 C717 1.384 . S
H720 C726 0.930 . S
H721 C730 0.930 . S
H722 C735 0.929 . S
H723 C733 0.929 . S
H724 C728 0.929 . S
H725 C734 0.929 . S
C726 H720 0.930 . S
C726 C727 1.367 . S
C726 C734 1.378 . S
C727 C726 1.367 . S
C727 C735 1.433 . S
C728 H724 0.929 . S
C728 C730 1.378 . S
C728 C732 1.350 . S
C729 C732 1.463 1_556 S
C729 C734 1.350 . S
C729 N737 1.427 . S
C730 H721 0.930 . S
C730 C728 1.378 . S
C730 C731 1.367 . S
C731 C730 1.367 . S
C731 C733 1.433 . S
C732 C728 1.350 . S
C732 C729 1.463 1_554 S
C732 N736 1.427 . S
C733 H723 0.929 . S
C733 C731 1.433 . S
C733 N736 1.384 . S
C734 H725 0.929 . S
C734 C726 1.378 . S
C734 C729 1.350 . S
C735 H722 0.929 . S
C735 C727 1.433 . S
C735 N737 1.384 . S
N736 C732 1.427 . S
N736 C733 1.384 . S
N737 C729 1.427 . S
N737 C735 1.384 . S
H738 C744 0.930 . S
H739 C748 0.930 . S
H740 C753 0.929 . S
H741 C751 0.929 . S
H742 C746 0.929 . S
H743 C752 0.929 . S
C744 H738 0.930 . S
C744 C745 1.367 . S
C744 C752 1.378 . S
C745 C744 1.367 . S
C745 C753 1.433 . S
C746 H742 0.929 . S
C746 C748 1.378 . S
C746 C750 1.350 . S
C747 C750 1.463 . S
C747 C752 1.350 . S
C747 N755 1.427 . S
C748 H739 0.930 . S
C748 C746 1.378 . S
C748 C749 1.367 . S
C749 C748 1.367 . S
C749 C751 1.433 . S
C750 C746 1.350 . S
C750 C747 1.463 . S
C750 N754 1.427 . S
C751 H741 0.929 . S
C751 C749 1.433 . S
C751 N754 1.384 . S
C752 H743 0.929 . S
C752 C744 1.378 . S
C752 C747 1.350 . S
C753 H740 0.929 . S
C753 C745 1.433 . S
C753 N755 1.384 . S
N754 C750 1.427 . S
N754 C751 1.384 . S
N755 C747 1.427 . S
N755 C753 1.384 . S
H756 C762 0.930 . S
H757 C766 0.930 . S
H758 C771 0.929 . S
H759 C769 0.929 . S
H760 C764 0.929 . S
H761 C770 0.929 . S
C762 H756 0.930 . S
C762 C763 1.367 . S
C762 C770 1.378 . S
C763 C762 1.367 . S
C763 C771 1.433 . S
C764 H760 0.929 . S
C764 C766 1.378 . S
C764 C768 1.350 . S
C765 C768 1.463 . S
C765 C770 1.350 . S
C765 N773 1.427 . S
C766 H757 0.930 . S
C766 C764 1.378 . S
C766 C767 1.367 . S
C767 C766 1.367 . S
C767 C769 1.433 . S
C768 C764 1.350 . S
C768 C765 1.463 . S
C768 N772 1.427 . S
C769 H759 0.929 . S
C769 C767 1.433 . S
C769 N772 1.384 . S
C770 H761 0.929 . S
C770 C762 1.378 . S
C770 C765 1.350 . S
C771 H758 0.929 . S
C771 C763 1.433 . S
C771 N773 1.384 . S
N772 C768 1.427 . S
N772 C769 1.384 . S
N773 C765 1.427 . S
N773 C771 1.384 . S
H774 C780 0.930 . S
H775 C784 0.930 . S
H776 C789 0.929 . S
H777 C787 0.929 . S
H778 C782 0.929 . S
H779 C788 0.929 . S
C780 H774 0.930 . S
C780 C781 1.367 . S
C780 C788 1.378 . S
C781 C780 1.367 . S
C781 C789 1.433 . S
C782 H778 0.929 . S
C782 C784 1.378 . S
C782 C786 1.350 . S
C783 C786 1.463 . S
C783 C788 1.350 . S
C783 N791 1.427 . S
C784 H775 0.930 . S
C784 C782 1.378 . S
C784 C785 1.367 . S
C785 C784 1.367 . S
C785 C787 1.433 . S
C786 C782 1.350 . S
C786 C783 1.463 . S
C786 N790 1.427 . S
C787 H777 0.929 . S
C787 C785 1.433 . S
C787 N790 1.384 . S
C788 H779 0.929 . S
C788 C780 1.378 . S
C788 C783 1.350 . S
C789 H776 0.929 . S
C789 C781 1.433 . S
C789 N791 1.384 . S
N790 C786 1.427 . S
N790 C787 1.384 . S
N791 C783 1.427 . S
N791 C789 1.384 . S
H792 C798 0.930 . S
H793 C802 0.930 . S
H794 C807 0.929 . S
H795 C805 0.929 . S
H796 C800 0.929 . S
H797 C806 0.929 . S
C798 H792 0.930 . S
C798 C799 1.367 . S
C798 C806 1.378 . S
C799 C798 1.367 . S
C799 C807 1.433 . S
C800 H796 0.929 . S
C800 C802 1.378 . S
C800 C804 1.350 . S
C801 C804 1.463 . S
C801 C806 1.350 . S
C801 N809 1.427 . S
C802 H793 0.930 . S
C802 C800 1.378 . S
C802 C803 1.367 . S
C803 C802 1.367 . S
C803 C805 1.433 . S
C804 C800 1.350 . S
C804 C801 1.463 . S
C804 N808 1.427 . S
C805 H795 0.929 . S
C805 C803 1.433 . S
C805 N808 1.384 . S
C806 H797 0.929 . S
C806 C798 1.378 . S
C806 C801 1.350 . S
C807 H794 0.929 . S
C807 C799 1.433 . S
C807 N809 1.384 . S
N808 C804 1.427 . S
N808 C805 1.384 . S
N809 C801 1.427 . S
N809 C807 1.384 . S
H810 C816 0.930 . S
H811 C820 0.930 . S
H812 C825 0.929 . S
H813 C823 0.929 . S
H814 C818 0.929 . S
H815 C824 0.929 . S
C816 H810 0.930 . S
C816 C817 1.367 . S
C816 C824 1.378 . S
C817 C816 1.367 . S
C817 C825 1.433 . S
C818 H814 0.929 . S
C818 C820 1.378 . S
C818 C822 1.350 . S
C819 C822 1.463 . S
C819 C824 1.350 . S
C819 N827 1.427 . S
C820 H811 0.930 . S
C820 C818 1.378 . S
C820 C821 1.367 . S
C821 C820 1.367 . S
C821 C823 1.433 . S
C822 C818 1.350 . S
C822 C819 1.463 . S
C822 N826 1.427 . S
C823 H813 0.929 . S
C823 C821 1.433 . S
C823 N826 1.384 . S
C824 H815 0.929 . S
C824 C816 1.378 . S
C824 C819 1.350 . S
C825 H812 0.929 . S
C825 C817 1.433 . S
C825 N827 1.384 . S
N826 C822 1.427 . S
N826 C823 1.384 . S
N827 C819 1.427 . S
N827 C825 1.384 . S
H828 C834 0.930 . S
H829 C838 0.930 . S
H830 C843 0.929 . S
H831 C841 0.929 . S
H832 C836 0.929 . S
H833 C842 0.929 . S
C834 H828 0.930 . S
C834 C835 1.367 . S
C834 C842 1.378 . S
C835 C834 1.367 . S
C835 C843 1.433 . S
C836 H832 0.929 . S
C836 C838 1.378 . S
C836 C840 1.350 . S
C837 C840 1.463 . S
C837 C842 1.350 . S
C837 N845 1.427 . S
C838 H829 0.930 . S
C838 C836 1.378 . S
C838 C839 1.367 . S
C839 C838 1.367 . S
C839 C841 1.433 . S
C840 C836 1.350 . S
C840 C837 1.463 . S
C840 N844 1.427 . S
C841 H831 0.929 . S
C841 C839 1.433 . S
C841 N844 1.384 . S
C842 H833 0.929 . S
C842 C834 1.378 . S
C842 C837 1.350 . S
C843 H830 0.929 . S
C843 C835 1.433 . S
C843 N845 1.384 . S
N844 C840 1.427 . S
N844 C841 1.384 . S
N845 C837 1.427 . S
N845 C843 1.384 . S
H846 C852 0.930 . S
H847 C856 0.930 1_545 S
H848 C861 0.929 . S
H849 C859 0.929 . S
H850 C854 0.929 . S
H851 C860 0.929 . S
C852 H846 0.930 . S
C852 C853 1.367 . S
C852 C860 1.378 . S
C853 C852 1.367 . S
C853 C861 1.433 . S
C854 H850 0.929 . S
C854 C856 1.378 . S
C854 C858 1.350 . S
C855 C858 1.463 . S
C855 C860 1.350 . S
C855 N863 1.427 . S
C856 H847 0.930 1_565 S
C856 C854 1.378 . S
C856 C857 1.367 . S
C857 C856 1.367 . S
C857 C859 1.433 . S
C858 C854 1.350 . S
C858 C855 1.463 . S
C858 N862 1.427 . S
C859 H849 0.929 . S
C859 C857 1.433 . S
C859 N862 1.384 . S
C860 H851 0.929 . S
C860 C852 1.378 . S
C860 C855 1.350 . S
C861 H848 0.929 . S
C861 C853 1.433 . S
C861 N863 1.384 . S
N862 C858 1.427 . S
N862 C859 1.384 . S
N863 C855 1.427 . S
N863 C861 1.384 . S
H864 C870 0.930 . S
H865 C874 0.930 . S
H866 C879 0.929 . S
H867 C877 0.929 . S
H868 C872 0.929 . S
H869 C878 0.929 . S
C870 H864 0.930 . S
C870 C871 1.367 . S
C870 C878 1.378 . S
C871 C870 1.367 . S
C871 C879 1.433 . S
C872 H868 0.929 . S
C872 C874 1.378 . S
C872 C876 1.350 . S
C873 C876 1.463 . S
C873 C878 1.350 . S
C873 N881 1.427 . S
C874 H865 0.930 . S
C874 C872 1.378 . S
C874 C875 1.367 . S
C875 C874 1.367 . S
C875 C877 1.433 . S
C876 C872 1.350 . S
C876 C873 1.463 . S
C876 N880 1.427 . S
C877 H867 0.929 . S
C877 C875 1.433 . S
C877 N880 1.384 . S
C878 H869 0.929 . S
C878 C870 1.378 . S
C878 C873 1.350 . S
C879 H866 0.929 . S
C879 C871 1.433 . S
C879 N881 1.384 . S
N880 C876 1.427 . S
N880 C877 1.384 . S
N881 C873 1.427 . S
N881 C879 1.384 . S
H882 C888 0.930 . S
H883 C892 0.930 . S
H884 C897 0.929 . S
H885 C895 0.929 . S
H886 C890 0.929 . S
H887 C896 0.929 . S
C888 H882 0.930 . S
C888 C889 1.367 . S
C888 C896 1.378 . S
C889 C888 1.367 . S
C889 C897 1.433 . S
C890 H886 0.929 . S
C890 C892 1.378 . S
C890 C894 1.350 . S
C891 C894 1.463 . S
C891 C896 1.350 . S
C891 N899 1.427 . S
C892 H883 0.930 . S
C892 C890 1.378 . S
C892 C893 1.367 . S
C893 C892 1.367 . S
C893 C895 1.433 . S
C894 C890 1.350 . S
C894 C891 1.463 . S
C894 N898 1.427 . S
C895 H885 0.929 . S
C895 C893 1.433 . S
C895 N898 1.384 . S
C896 H887 0.929 . S
C896 C888 1.378 . S
C896 C891 1.350 . S
C897 H884 0.929 . S
C897 C889 1.433 . S
C897 N899 1.384 . S
N898 C894 1.427 . S
N898 C895 1.384 . S
N899 C891 1.427 . S
N899 C897 1.384 . S
H900 C906 0.930 1_455 S
H901 C910 0.930 . S
H902 C915 0.929 . S
H903 C913 0.929 . S
H904 C908 0.929 . S
H905 C914 0.929 . S
C906 H900 0.930 1_655 S
C906 C907 1.367 . S
C906 C914 1.378 . S
C907 C906 1.367 . S
C907 C915 1.433 . S
C908 H904 0.929 . S
C908 C910 1.378 . S
C908 C912 1.350 . S
C909 C912 1.463 . S
C909 C914 1.350 . S
C909 N917 1.427 . S
C910 H901 0.930 . S
C910 C908 1.378 . S
C910 C911 1.367 . S
C911 C910 1.367 . S
C911 C913 1.433 . S
C912 C908 1.350 . S
C912 C909 1.463 . S
C912 N916 1.427 . S
C913 H903 0.929 . S
C913 C911 1.433 . S
C913 N916 1.384 . S
C914 H905 0.929 . S
C914 C906 1.378 . S
C914 C909 1.350 . S
C915 H902 0.929 . S
C915 C907 1.433 . S
C915 N917 1.384 . S
N916 C912 1.427 . S
N916 C913 1.384 . S
N917 C909 1.427 . S
N917 C915 1.384 . S
H918 C924 0.930 . S
H919 C928 0.930 . S
H920 C933 0.929 . S
H921 C931 0.929 . S
H922 C926 0.929 . S
H923 C932 0.929 . S
C924 H918 0.930 . S
C924 C925 1.367 . S
C924 C932 1.378 . S
C925 C924 1.367 . S
C925 C933 1.433 . S
C926 H922 0.929 . S
C926 C928 1.378 . S
C926 C930 1.350 . S
C927 C930 1.463 . S
C927 C932 1.350 . S
C927 N935 1.427 . S
C928 H919 0.930 . S
C928 C926 1.378 . S
C928 C929 1.367 . S
C929 C928 1.367 . S
C929 C931 1.433 . S
C930 C926 1.350 . S
C930 C927 1.463 . S
C930 N934 1.427 . S
C931 H921 0.929 . S
C931 C929 1.433 . S
C931 N934 1.384 . S
C932 H923 0.929 . S
C932 C924 1.378 . S
C932 C927 1.350 . S
C933 H920 0.929 . S
C933 C925 1.433 . S
C933 N935 1.384 . S
N934 C930 1.427 . S
N934 C931 1.384 . S
N935 C927 1.427 . S
N935 C933 1.384 . S
H936 C942 0.930 . S
H937 C946 0.930 . S
H938 C951 0.929 . S
H939 C949 0.929 . S
H940 C944 0.929 . S
H941 C950 0.929 . S
C942 H936 0.930 . S
C942 C943 1.367 . S
C942 C950 1.378 . S
C943 C942 1.367 . S
C943 C951 1.433 . S
C944 H940 0.929 . S
C944 C946 1.378 . S
C944 C948 1.350 . S
C945 C948 1.463 . S
C945 C950 1.350 . S
C945 N953 1.427 . S
C946 H937 0.930 . S
C946 C944 1.378 . S
C946 C947 1.367 . S
C947 C946 1.367 . S
C947 C949 1.433 . S
C948 C944 1.350 . S
C948 C945 1.463 . S
C948 N952 1.427 . S
C949 H939 0.929 . S
C949 C947 1.433 . S
C949 N952 1.384 . S
C950 H941 0.929 . S
C950 C942 1.378 . S
C950 C945 1.350 . S
C951 H938 0.929 . S
C951 C943 1.433 . S
C951 N953 1.384 . S
N952 C948 1.427 . S
N952 C949 1.384 . S
N953 C945 1.427 . S
N953 C951 1.384 . S
H954 C960 0.930 . S
H955 C964 0.930 . S
H956 C969 0.928 1_455 S
H957 C967 0.929 . S
H958 C962 0.929 . S
H959 C968 0.929 . S
C960 H954 0.930 . S
C960 C961 1.367 . S
C960 C968 1.378 . S
C961 C960 1.367 . S
C961 C969 1.433 . S
C962 H958 0.929 . S
C962 C964 1.378 . S
C962 C966 1.350 . S
C963 C966 1.463 . S
C963 C968 1.350 1_455 S
C963 N971 1.427 . S
C964 H955 0.930 . S
C964 C962 1.378 . S
C964 C965 1.367 . S
C965 C964 1.367 . S
C965 C967 1.433 . S
C966 C962 1.350 . S
C966 C963 1.463 . S
C966 N970 1.427 . S
C967 H957 0.929 . S
C967 C965 1.433 . S
C967 N970 1.384 . S
C968 H959 0.929 . S
C968 C960 1.378 . S
C968 C963 1.350 1_655 S
C969 H956 0.928 1_655 S
C969 C961 1.433 . S
C969 N971 1.384 1_655 S
N970 C966 1.427 . S
N970 C967 1.384 . S
N971 C963 1.427 . S
N971 C969 1.384 1_455 S
H972 C978 0.930 . S
H973 C982 0.930 . S
H974 C987 0.929 . S
H975 C985 0.929 . S
H976 C980 0.929 . S
H977 C986 0.929 . S
C978 H972 0.930 . S
C978 C979 1.367 . S
C978 C986 1.378 . S
C979 C978 1.367 . S
C979 C987 1.433 . S
C980 H976 0.929 . S
C980 C982 1.378 . S
C980 C984 1.350 . S
C981 C984 1.463 . S
C981 C986 1.350 . S
C981 N989 1.427 . S
C982 H973 0.930 . S
C982 C980 1.378 . S
C982 C983 1.367 . S
C983 C982 1.367 . S
C983 C985 1.433 . S
C984 C980 1.350 . S
C984 C981 1.463 . S
C984 N988 1.427 . S
C985 H975 0.929 . S
C985 C983 1.433 . S
C985 N988 1.384 . S
C986 H977 0.929 . S
C986 C978 1.378 . S
C986 C981 1.350 . S
C987 H974 0.929 . S
C987 C979 1.433 . S
C987 N989 1.384 . S
N988 C984 1.427 . S
N988 C985 1.384 . S
N989 C981 1.427 . S
N989 C987 1.384 . S
H990 C996 0.930 . S
H991 C1000 0.930 . S
H992 C1005 0.929 . S
H993 C1003 0.929 . S
H994 C998 0.929 . S
H995 C1004 0.929 . S
C996 H990 0.930 . S
C996 C997 1.367 . S
C996 C1004 1.378 1_565 S
C997 C996 1.367 . S
C997 C1005 1.433 . S
C998 H994 0.929 . S
C998 C1000 1.378 . S
C998 C1002 1.350 . S
C999 C1002 1.463 . S
C999 C1004 1.350 . S
C999 N1007 1.427 1_545 S
C1000 H991 0.930 . S
C1000 C998 1.378 . S
C1000 C1001 1.367 . S
C1001 C1000 1.367 . S
C1001 C1003 1.433 . S
C1002 C998 1.350 . S
C1002 C999 1.463 . S
C1002 N1006 1.427 . S
C1003 H993 0.929 . S
C1003 C1001 1.433 . S
C1003 N1006 1.384 . S
C1004 H995 0.929 . S
C1004 C996 1.378 1_545 S
C1004 C999 1.350 . S
C1005 H992 0.929 . S
C1005 C997 1.433 . S
C1005 N1007 1.384 . S
N1006 C1002 1.427 . S
N1006 C1003 1.384 . S
N1007 C999 1.427 1_565 S
N1007 C1005 1.384 . S
H1008 C1014 0.930 . S
H1009 C1018 0.930 . S
H1010 C1023 0.929 . S
H1011 C1021 0.929 . S
H1012 C1016 0.929 . S
H1013 C1022 0.929 . S
C1014 H1008 0.930 . S
C1014 C1015 1.367 . S
C1014 C1022 1.378 . S
C1015 C1014 1.367 . S
C1015 C1023 1.433 . S
C1016 H1012 0.929 . S
C1016 C1018 1.378 . S
C1016 C1020 1.350 . S
C1017 C1020 1.463 . S
C1017 C1022 1.350 . S
C1017 N1025 1.427 . S
C1018 H1009 0.930 . S
C1018 C1016 1.378 . S
C1018 C1019 1.367 . S
C1019 C1018 1.367 . S
C1019 C1021 1.433 . S
C1020 C1016 1.350 . S
C1020 C1017 1.463 . S
C1020 N1024 1.427 . S
C1021 H1011 0.929 . S
C1021 C1019 1.433 . S
C1021 N1024 1.384 . S
C1022 H1013 0.929 . S
C1022 C1014 1.378 . S
C1022 C1017 1.350 . S
C1023 H1010 0.929 . S
C1023 C1015 1.433 . S
C1023 N1025 1.384 . S
N1024 C1020 1.427 . S
N1024 C1021 1.384 . S
N1025 C1017 1.427 . S
N1025 C1023 1.384 . S
H1026 C1032 0.930 . S
H1027 C1036 0.930 . S
H1028 C1041 0.929 . S
H1029 C1039 0.929 . S
H1030 C1034 0.929 . S
H1031 C1040 0.929 . S
C1032 H1026 0.930 . S
C1032 C1033 1.367 . S
C1032 C1040 1.378 . S
C1033 C1032 1.367 . S
C1033 C1041 1.433 . S
C1034 H1030 0.929 . S
C1034 C1036 1.378 . S
C1034 C1038 1.350 . S
C1035 C1038 1.463 . S
C1035 C1040 1.350 . S
C1035 N1043 1.427 . S
C1036 H1027 0.930 . S
C1036 C1034 1.378 . S
C1036 C1037 1.367 . S
C1037 C1036 1.367 . S
C1037 C1039 1.433 . S
C1038 C1034 1.350 . S
C1038 C1035 1.463 . S
C1038 N1042 1.427 . S
C1039 H1029 0.929 . S
C1039 C1037 1.433 . S
C1039 N1042 1.384 . S
C1040 H1031 0.929 . S
C1040 C1032 1.378 . S
C1040 C1035 1.350 . S
C1041 H1028 0.929 . S
C1041 C1033 1.433 . S
C1041 N1043 1.384 . S
N1042 C1038 1.427 . S
N1042 C1039 1.384 . S
N1043 C1035 1.427 . S
N1043 C1041 1.384 . S
H1044 C1050 0.930 . S
H1045 C1054 0.930 . S
H1046 C1059 0.929 . S
H1047 C1057 0.929 . S
H1048 C1052 0.929 . S
H1049 C1058 0.929 . S
C1050 H1044 0.930 . S
C1050 C1051 1.367 . S
C1050 C1058 1.378 . S
C1051 C1050 1.367 . S
C1051 C1059 1.433 . S
C1052 H1048 0.929 . S
C1052 C1054 1.378 . S
C1052 C1056 1.350 . S
C1053 C1056 1.463 . S
C1053 C1058 1.350 . S
C1053 N1061 1.427 . S
C1054 H1045 0.930 . S
C1054 C1052 1.378 . S
C1054 C1055 1.367 . S
C1055 C1054 1.367 . S
C1055 C1057 1.433 . S
C1056 C1052 1.350 . S
C1056 C1053 1.463 . S
C1056 N1060 1.427 . S
C1057 H1047 0.929 . S
C1057 C1055 1.433 . S
C1057 N1060 1.384 . S
C1058 H1049 0.929 . S
C1058 C1050 1.378 . S
C1058 C1053 1.350 . S
C1059 H1046 0.929 . S
C1059 C1051 1.433 . S
C1059 N1061 1.384 . S
N1060 C1056 1.427 . S
N1060 C1057 1.384 . S
N1061 C1053 1.427 . S
N1061 C1059 1.384 . S
H1062 C1068 0.930 . S
H1063 C1072 0.930 . S
H1064 C1077 0.929 . S
H1065 C1075 0.929 . S
H1066 C1070 0.929 . S
H1067 C1076 0.929 . S
C1068 H1062 0.930 . S
C1068 C1069 1.367 . S
C1068 C1076 1.378 . S
C1069 C1068 1.367 . S
C1069 C1077 1.433 . S
C1070 H1066 0.929 . S
C1070 C1072 1.378 . S
C1070 C1074 1.350 . S
C1071 C1074 1.463 . S
C1071 C1076 1.350 . S
C1071 N1079 1.427 . S
C1072 H1063 0.930 . S
C1072 C1070 1.378 . S
C1072 C1073 1.367 . S
C1073 C1072 1.367 . S
C1073 C1075 1.433 . S
C1074 C1070 1.350 . S
C1074 C1071 1.463 . S
C1074 N1078 1.427 . S
C1075 H1065 0.929 . S
C1075 C1073 1.433 . S
C1075 N1078 1.384 . S
C1076 H1067 0.929 . S
C1076 C1068 1.378 . S
C1076 C1071 1.350 . S
C1077 H1064 0.929 . S
C1077 C1069 1.433 . S
C1077 N1079 1.384 . S
N1078 C1074 1.427 . S
N1078 C1075 1.384 . S
N1079 C1071 1.427 . S
N1079 C1077 1.384 . S
H1080 C1086 0.930 . S
H1081 C1090 0.930 . S
H1082 C1095 0.929 . S
H1083 C1093 0.929 . S
H1084 C1088 0.929 . S
H1085 C1094 0.929 . S
C1086 H1080 0.930 . S
C1086 C1087 1.367 . S
C1086 C1094 1.378 . S
C1087 C1086 1.367 . S
C1087 C1095 1.433 . S
C1088 H1084 0.929 . S
C1088 C1090 1.378 . S
C1088 C1092 1.350 . S
C1089 C1092 1.463 . S
C1089 C1094 1.350 . S
C1089 N1097 1.427 . S
C1090 H1081 0.930 . S
C1090 C1088 1.378 . S
C1090 C1091 1.367 . S
C1091 C1090 1.367 . S
C1091 C1093 1.433 . S
C1092 C1088 1.350 . S
C1092 C1089 1.463 . S
C1092 N1096 1.427 . S
C1093 H1083 0.929 . S
C1093 C1091 1.433 . S
C1093 N1096 1.384 . S
C1094 H1085 0.929 . S
C1094 C1086 1.378 . S
C1094 C1089 1.350 . S
C1095 H1082 0.929 . S
C1095 C1087 1.433 . S
C1095 N1097 1.384 . S
N1096 C1092 1.427 . S
N1096 C1093 1.384 . S
N1097 C1089 1.427 . S
N1097 C1095 1.384 . S
H1098 C1104 0.930 . S
H1099 C1108 0.930 . S
H1100 C1113 0.929 . S
H1101 C1111 0.929 . S
H1102 C1106 0.929 . S
H1103 C1112 0.929 . S
C1104 H1098 0.930 . S
C1104 C1105 1.367 . S
C1104 C1112 1.378 . S
C1105 C1104 1.367 . S
C1105 C1113 1.433 . S
C1106 H1102 0.929 . S
C1106 C1108 1.378 . S
C1106 C1110 1.350 . S
C1107 C1110 1.463 . S
C1107 C1112 1.350 . S
C1107 N1115 1.427 . S
C1108 H1099 0.930 . S
C1108 C1106 1.378 . S
C1108 C1109 1.367 . S
C1109 C1108 1.367 . S
C1109 C1111 1.433 . S
C1110 C1106 1.350 . S
C1110 C1107 1.463 . S
C1110 N1114 1.427 . S
C1111 H1101 0.929 . S
C1111 C1109 1.433 . S
C1111 N1114 1.384 . S
C1112 H1103 0.929 . S
C1112 C1104 1.378 . S
C1112 C1107 1.350 . S
C1113 H1100 0.929 . S
C1113 C1105 1.433 . S
C1113 N1115 1.384 . S
N1114 C1110 1.427 . S
N1114 C1111 1.384 . S
N1115 C1107 1.427 . S
N1115 C1113 1.384 . S
H1116 C1122 0.930 . S
H1117 C1126 0.930 . S
H1118 C1131 0.929 . S
H1119 C1129 0.929 . S
H1120 C1124 0.929 . S
H1121 C1130 0.929 . S
C1122 H1116 0.930 . S
C1122 C1123 1.367 . S
C1122 C1130 1.378 . S
C1123 C1122 1.367 . S
C1123 C1131 1.433 . S
C1124 H1120 0.929 . S
C1124 C1126 1.378 . S
C1124 C1128 1.350 . S
C1125 C1128 1.463 . S
C1125 C1130 1.350 . S
C1125 N1133 1.427 . S
C1126 H1117 0.930 . S
C1126 C1124 1.378 . S
C1126 C1127 1.367 . S
C1127 C1126 1.367 . S
C1127 C1129 1.433 . S
C1128 C1124 1.350 . S
C1128 C1125 1.463 . S
C1128 N1132 1.427 . S
C1129 H1119 0.929 . S
C1129 C1127 1.433 . S
C1129 N1132 1.384 . S
C1130 H1121 0.929 . S
C1130 C1122 1.378 . S
C1130 C1125 1.350 . S
C1131 H1118 0.929 . S
C1131 C1123 1.433 . S
C1131 N1133 1.384 . S
N1132 C1128 1.427 . S
N1132 C1129 1.384 . S
N1133 C1125 1.427 . S
N1133 C1131 1.384 . S
H1134 C1140 0.930 . S
H1135 C1144 0.930 . S
H1136 C1149 0.929 . S
H1137 C1147 0.929 . S
H1138 C1142 0.929 . S
H1139 C1148 0.929 . S
C1140 H1134 0.930 . S
C1140 C1141 1.367 . S
C1140 C1148 1.378 . S
C1141 C1140 1.367 . S
C1141 C1149 1.433 . S
C1142 H1138 0.929 . S
C1142 C1144 1.378 . S
C1142 C1146 1.350 . S
C1143 C1146 1.463 . S
C1143 C1148 1.350 . S
C1143 N1151 1.427 . S
C1144 H1135 0.930 . S
C1144 C1142 1.378 . S
C1144 C1145 1.367 . S
C1145 C1144 1.367 . S
C1145 C1147 1.433 . S
C1146 C1142 1.350 . S
C1146 C1143 1.463 . S
C1146 N1150 1.427 . S
C1147 H1137 0.929 . S
C1147 C1145 1.433 . S
C1147 N1150 1.384 . S
C1148 H1139 0.929 . S
C1148 C1140 1.378 . S
C1148 C1143 1.350 . S
C1149 H1136 0.929 . S
C1149 C1141 1.433 . S
C1149 N1151 1.384 . S
N1150 C1146 1.427 . S
N1150 C1147 1.384 . S
N1151 C1143 1.427 . S
N1151 C1149 1.384 . S
H1152 C1158 0.930 . S
H1153 C1162 0.930 . S
H1154 C1167 0.929 . S
H1155 C1165 0.929 . S
H1156 C1160 0.929 . S
H1157 C1166 0.929 . S
C1158 H1152 0.930 . S
C1158 C1159 1.367 . S
C1158 C1166 1.378 . S
C1159 C1158 1.367 . S
C1159 C1167 1.433 . S
C1160 H1156 0.929 . S
C1160 C1162 1.378 . S
C1160 C1164 1.350 . S
C1161 C1164 1.463 . S
C1161 C1166 1.350 . S
C1161 N1169 1.427 . S
C1162 H1153 0.930 . S
C1162 C1160 1.378 . S
C1162 C1163 1.367 . S
C1163 C1162 1.367 . S
C1163 C1165 1.433 . S
C1164 C1160 1.350 . S
C1164 C1161 1.463 . S
C1164 N1168 1.427 . S
C1165 H1155 0.929 . S
C1165 C1163 1.433 . S
C1165 N1168 1.384 . S
C1166 H1157 0.929 . S
C1166 C1158 1.378 . S
C1166 C1161 1.350 . S
C1167 H1154 0.929 . S
C1167 C1159 1.433 . S
C1167 N1169 1.384 . S
N1168 C1164 1.427 . S
N1168 C1165 1.384 . S
N1169 C1161 1.427 . S
N1169 C1167 1.384 . S
H1170 C1176 0.930 . S
H1171 C1180 0.930 . S
H1172 C1185 0.929 . S
H1173 C1183 0.929 . S
H1174 C1178 0.929 . S
H1175 C1184 0.929 . S
C1176 H1170 0.930 . S
C1176 C1177 1.367 . S
C1176 C1184 1.378 . S
C1177 C1176 1.367 . S
C1177 C1185 1.433 . S
C1178 H1174 0.929 . S
C1178 C1180 1.378 1_655 S
C1178 C1182 1.350 . S
C1179 C1182 1.463 . S
C1179 C1184 1.350 . S
C1179 N1187 1.427 . S
C1180 H1171 0.930 . S
C1180 C1178 1.378 1_455 S
C1180 C1181 1.367 . S
C1181 C1180 1.367 . S
C1181 C1183 1.433 . S
C1182 C1178 1.350 . S
C1182 C1179 1.463 . S
C1182 N1186 1.427 1_655 S
C1183 H1173 0.929 . S
C1183 C1181 1.433 . S
C1183 N1186 1.384 . S
C1184 H1175 0.929 . S
C1184 C1176 1.378 . S
C1184 C1179 1.350 . S
C1185 H1172 0.929 . S
C1185 C1177 1.433 . S
C1185 N1187 1.384 . S
N1186 C1182 1.427 1_455 S
N1186 C1183 1.384 . S
N1187 C1179 1.427 . S
N1187 C1185 1.384 . S
H1188 C1194 0.930 . S
H1189 C1198 0.930 . S
H1190 C1203 0.929 . S
H1191 C1201 0.929 . S
H1192 C1196 0.929 . S
H1193 C1202 0.929 . S
C1194 H1188 0.930 . S
C1194 C1195 1.367 . S
C1194 C1202 1.378 . S
C1195 C1194 1.367 . S
C1195 C1203 1.433 . S
C1196 H1192 0.929 . S
C1196 C1198 1.378 . S
C1196 C1200 1.350 . S
C1197 C1200 1.463 . S
C1197 C1202 1.350 . S
C1197 N1205 1.427 . S
C1198 H1189 0.930 . S
C1198 C1196 1.378 . S
C1198 C1199 1.367 . S
C1199 C1198 1.367 . S
C1199 C1201 1.433 . S
C1200 C1196 1.350 . S
C1200 C1197 1.463 . S
C1200 N1204 1.427 . S
C1201 H1191 0.929 . S
C1201 C1199 1.433 . S
C1201 N1204 1.384 . S
C1202 H1193 0.929 . S
C1202 C1194 1.378 . S
C1202 C1197 1.350 . S
C1203 H1190 0.929 . S
C1203 C1195 1.433 . S
C1203 N1205 1.384 . S
N1204 C1200 1.427 . S
N1204 C1201 1.384 . S
N1205 C1197 1.427 . S
N1205 C1203 1.384 . S
H1206 C1212 0.930 . S
H1207 C1216 0.930 1_455 S
H1208 C1221 0.929 . S
H1209 C1219 0.929 . S
H1210 C1214 0.929 . S
H1211 C1220 0.929 . S
C1212 H1206 0.930 . S
C1212 C1213 1.370 . S
C1212 C1220 1.378 . S
C1213 C1212 1.370 . S
C1213 C1221 1.440 . S
C1214 H1210 0.929 . S
C1214 C1216 1.378 . S
C1214 C1218 1.350 . S
C1215 C1218 1.463 . S
C1215 C1220 1.350 . S
C1215 N1223 1.427 . S
C1216 H1207 0.930 1_655 S
C1216 C1214 1.378 . S
C1216 C1217 1.367 1_655 S
C1217 C1216 1.367 1_455 S
C1217 C1219 1.433 . S
C1218 C1214 1.350 . S
C1218 C1215 1.463 . S
C1218 N1222 1.427 . S
C1219 H1209 0.929 . S
C1219 C1217 1.433 . S
C1219 N1222 1.384 1_455 S
C1220 H1211 0.929 . S
C1220 C1212 1.378 . S
C1220 C1215 1.350 . S
C1221 H1208 0.929 . S
C1221 C1213 1.440 . S
C1221 N1223 1.384 . S
N1222 C1218 1.427 . S
N1222 C1219 1.384 1_655 S
N1223 C1215 1.427 . S
N1223 C1221 1.384 . S
H1224 C1230 0.930 . S
H1225 C1234 0.930 . S
H1226 C1239 0.929 . S
H1227 C1237 0.929 . S
H1228 C1232 0.929 . S
H1229 C1238 0.929 . S
C1230 H1224 0.930 . S
C1230 C1231 1.367 . S
C1230 C1238 1.378 . S
C1231 C1230 1.367 . S
C1231 C1239 1.433 . S
C1232 H1228 0.929 . S
C1232 C1234 1.378 . S
C1232 C1236 1.350 1_545 S
C1233 C1236 1.463 . S
C1233 C1238 1.350 . S
C1233 N1241 1.427 . S
C1234 H1225 0.930 . S
C1234 C1232 1.378 . S
C1234 C1235 1.367 . S
C1235 C1234 1.367 . S
C1235 C1237 1.433 . S
C1236 C1232 1.350 1_565 S
C1236 C1233 1.463 . S
C1236 N1240 1.427 . S
C1237 H1227 0.929 . S
C1237 C1235 1.433 . S
C1237 N1240 1.384 1_545 S
C1238 H1229 0.929 . S
C1238 C1230 1.378 . S
C1238 C1233 1.350 . S
C1239 H1226 0.929 . S
C1239 C1231 1.433 . S
C1239 N1241 1.384 . S
N1240 C1236 1.427 . S
N1240 C1237 1.384 1_565 S
N1241 C1233 1.427 . S
N1241 C1239 1.384 . S
H1242 C1248 0.930 1_545 S
H1243 C1252 0.930 1_655 S
H1244 C1257 0.929 . S
H1245 C1255 0.929 . S
H1246 C1250 0.929 . S
H1247 C1256 0.929 . S
C1248 H1242 0.930 1_565 S
C1248 C1249 1.367 1_565 S
C1248 C1256 1.378 . S
C1249 C1248 1.367 1_545 S
C1249 C1257 1.433 . S
C1250 H1246 0.929 . S
C1250 C1252 1.378 . S
C1250 C1254 1.350 . S
C1251 C1254 1.463 . S
C1251 C1256 1.350 . S
C1251 N1259 1.427 . S
C1252 H1243 0.930 1_455 S
C1252 C1250 1.378 . S
C1252 C1253 1.365 . S
C1253 C1252 1.365 . S
C1253 C1255 1.439 . S
C1254 C1250 1.350 . S
C1254 C1251 1.463 . S
C1254 N1258 1.427 . S
C1255 H1245 0.929 . S
C1255 C1253 1.439 . S
C1255 N1258 1.384 . S
C1256 H1247 0.929 . S
C1256 C1248 1.378 . S
C1256 C1251 1.350 . S
C1257 H1244 0.929 . S
C1257 C1249 1.433 . S
C1257 N1259 1.384 1_545 S
N1258 C1254 1.427 . S
N1258 C1255 1.384 . S
N1259 C1251 1.427 . S
N1259 C1257 1.384 1_565 S
H1260 C1266 0.930 . S
H1261 C1270 0.930 . S
H1262 C1275 0.929 . S
H1263 C1273 0.929 . S
H1264 C1268 0.929 . S
H1265 C1274 0.929 . S
C1266 H1260 0.930 . S
C1266 C1267 1.367 . S
C1266 C1274 1.378 . S
C1267 C1266 1.367 . S
C1267 C1275 1.433 . S
C1268 H1264 0.929 . S
C1268 C1270 1.378 . S
C1268 C1272 1.350 . S
C1269 C1272 1.463 . S
C1269 C1274 1.350 . S
C1269 N1277 1.427 . S
C1270 H1261 0.930 . S
C1270 C1268 1.378 . S
C1270 C1271 1.367 . S
C1271 C1270 1.367 . S
C1271 C1273 1.433 . S
C1272 C1268 1.350 . S
C1272 C1269 1.463 . S
C1272 N1276 1.427 . S
C1273 H1263 0.929 . S
C1273 C1271 1.433 . S
C1273 N1276 1.384 . S
C1274 H1265 0.929 . S
C1274 C1266 1.378 . S
C1274 C1269 1.350 . S
C1275 H1262 0.929 . S
C1275 C1267 1.433 . S
C1275 N1277 1.384 . S
N1276 C1272 1.427 . S
N1276 C1273 1.384 . S
N1277 C1269 1.427 . S
N1277 C1275 1.384 . S
H1278 C1284 0.930 . S
H1279 C1288 0.930 . S
H1280 C1293 0.929 . S
H1281 C1291 0.929 . S
H1282 C1286 0.929 . S
H1283 C1292 0.929 . S
C1284 H1278 0.930 . S
C1284 C1285 1.367 . S
C1284 C1292 1.378 . S
C1285 C1284 1.367 . S
C1285 C1293 1.433 . S
C1286 H1282 0.929 . S
C1286 C1288 1.378 . S
C1286 C1290 1.350 . S
C1287 C1290 1.463 . S
C1287 C1292 1.350 . S
C1287 N1295 1.427 . S
C1288 H1279 0.930 . S
C1288 C1286 1.378 . S
C1288 C1289 1.367 . S
C1289 C1288 1.367 . S
C1289 C1291 1.433 . S
C1290 C1286 1.350 . S
C1290 C1287 1.463 . S
C1290 N1294 1.427 . S
C1291 H1281 0.929 . S
C1291 C1289 1.433 . S
C1291 N1294 1.384 . S
C1292 H1283 0.929 . S
C1292 C1284 1.378 . S
C1292 C1287 1.350 . S
C1293 H1280 0.929 . S
C1293 C1285 1.433 . S
C1293 N1295 1.384 . S
N1294 C1290 1.427 . S
N1294 C1291 1.384 . S
N1295 C1287 1.427 . S
N1295 C1293 1.384 . S
H1296 C1302 0.930 . S
H1297 C1306 0.930 . S
H1298 C1311 0.929 . S
H1299 C1309 0.929 . S
H1300 C1304 0.929 . S
H1301 C1310 0.929 . S
C1302 H1296 0.930 . S
C1302 C1303 1.367 . S
C1302 C1310 1.378 . S
C1303 C1302 1.367 . S
C1303 C1311 1.433 . S
C1304 H1300 0.929 . S
C1304 C1306 1.378 . S
C1304 C1308 1.350 . S
C1305 C1308 1.463 . S
C1305 C1310 1.350 . S
C1305 N1313 1.427 . S
C1306 H1297 0.930 . S
C1306 C1304 1.378 . S
C1306 C1307 1.367 . S
C1307 C1306 1.367 . S
C1307 C1309 1.433 . S
C1308 C1304 1.350 . S
C1308 C1305 1.463 . S
C1308 N1312 1.427 . S
C1309 H1299 0.929 . S
C1309 C1307 1.433 . S
C1309 N1312 1.384 . S
C1310 H1301 0.929 . S
C1310 C1302 1.378 . S
C1310 C1305 1.350 . S
C1311 H1298 0.929 . S
C1311 C1303 1.433 . S
C1311 N1313 1.384 . S
N1312 C1308 1.427 . S
N1312 C1309 1.384 . S
N1313 C1305 1.427 . S
N1313 C1311 1.384 . S
H1314 C1320 0.930 . S
H1315 C1324 0.930 . S
H1316 C1329 0.929 . S
H1317 C1327 0.929 . S
H1318 C1322 0.929 . S
H1319 C1328 0.929 . S
C1320 H1314 0.930 . S
C1320 C1321 1.367 . S
C1320 C1328 1.378 . S
C1321 C1320 1.367 . S
C1321 C1329 1.433 . S
C1322 H1318 0.929 . S
C1322 C1324 1.378 . S
C1322 C1326 1.350 . S
C1323 C1326 1.463 . S
C1323 C1328 1.350 . S
C1323 N1331 1.427 . S
C1324 H1315 0.930 . S
C1324 C1322 1.378 . S
C1324 C1325 1.367 . S
C1325 C1324 1.367 . S
C1325 C1327 1.433 . S
C1326 C1322 1.350 . S
C1326 C1323 1.463 . S
C1326 N1330 1.427 . S
C1327 H1317 0.929 . S
C1327 C1325 1.433 . S
C1327 N1330 1.384 . S
C1328 H1319 0.929 . S
C1328 C1320 1.378 . S
C1328 C1323 1.350 . S
C1329 H1316 0.929 . S
C1329 C1321 1.433 . S
C1329 N1331 1.384 . S
N1330 C1326 1.427 . S
N1330 C1327 1.384 . S
N1331 C1323 1.427 . S
N1331 C1329 1.384 . S
C367 C8 1.281 . S
C371 C45 1.548 . S
C385 C5 1.549 . S
C389 C28 1.284 . S
C403 C25 1.551 . S
C407 C48 1.291 . S
C421 C68 1.284 . S
C425 C85 1.549 . S
C439 C105 1.551 . S
C443 C88 1.296 . S
C457 C108 1.282 . S
C461 C65 1.549 . S
C475 C165 1.550 1_545 S
C479 C128 1.305 . S
C493 C125 1.547 . S
C497 C148 1.281 . S
C511 C168 1.309 . S
C515 C145 1.550 . S
C529 C205 1.550 . S
C533 C188 1.309 . S
C547 C208 1.311 . S
C551 C225 1.549 . S
C565 C185 1.551 . S
C569 C228 1.304 . S
C583 C248 1.311 . S
C587 C285 1.548 . S
C601 C245 1.546 . S
C605 C268 1.285 . S
C619 C265 1.549 . S
C623 C288 1.311 . S
C637 C325 1.551 1_455 S
C641 C308 1.295 . S
C655 C345 1.545 . S
C659 C328 1.294 . S
C673 C305 1.547 . S
C677 C348 1.308 . S
C691 C2 1.787 . S
C695 C102 1.787 . S
C709 C62 1.781 . S
C713 C22 1.787 . S
C727 C82 1.781 . S
C731 C42 1.775 . S
C745 C122 1.780 . S
C749 C222 1.774 . S
C763 C142 1.777 . S
C767 C182 1.774 . S
C781 C202 1.778 . S
C785 C162 1.774 . S
C799 C242 1.787 . S
C803 C342 1.787 . S
C817 C302 1.787 . S
C821 C262 1.780 . S
C835 C322 1.785 . S
C839 C282 1.788 . S
C853 C213 1.824 . S
C857 C13 1.817 . S
C871 C33 1.814 . S
C875 C233 1.812 . S
C889 C193 1.821 . S
C893 C53 1.813 . S
C907 C73 1.814 . S
C911 C293 1.822 . S
C925 C93 1.812 . S
C929 C253 1.820 . S
C943 C273 1.818 . S
C947 C113 1.824 . S
C961 C333 1.824 . S
C965 C133 1.822 . S
C979 C153 1.811 . S
C983 C353 1.817 . S
C997 C173 1.815 . S
C1001 C313 1.811 . S
C1015 C57 2.289 . S
C1019 C14 2.410 . S
C1033 C17 2.276 . S
C1037 C34 2.415 . S
C1051 C54 2.415 . S
C1055 C37 2.280 . S
C1069 C97 2.289 . S
C1073 C74 2.411 . S
C1087 C117 2.287 . S
C1091 C94 2.409 . S
C1105 C114 2.413 . S
C1109 C77 2.286 . S
C1123 C177 2.276 . S
C1127 C134 2.415 . S
C1141 C154 2.412 . S
C1145 C137 2.287 . S
C1159 C157 2.284 . S
C1163 C174 2.413 . S
C1177 C194 2.415 . S
C1181 C217 2.278 . S
C1195 C214 2.410 1_545 S
C1199 C237 2.283 . S
C1213 C197 2.281 1_545 S
C1217 C234 2.410 . S
C1231 C254 2.409 . S
C1235 C297 2.287 . S
C1249 C274 2.412 . S
C1253 C257 2.276 1_455 S
C1267 C277 2.288 . S
C1271 C294 2.409 1_455 S
C1285 C314 2.409 . S
C1289 C337 2.286 . S
C1303 C334 2.414 . S
C1307 C357 2.281 . S
C1321 C317 2.279 . S
C1325 C354 2.412 . S
