# Generated by pormake.
# Topology rhr-a, (3)-cn, num edge types: 1
# Building blocks:
#     Node 0, Type 0, BuildingBlock: WUSLED_clean_sbu_0, # of connection points: 3
#     Node 1, Type 0, BuildingBlock: WUSLED_clean_sbu_0, # of connection points: 3
#     Node 2, Type 0, BuildingBlock: WUSLED_clean_sbu_0, # of connection points: 3
#     Node 3, Type 0, BuildingBlock: WUSLED_clean_sbu_0, # of connection points: 3
#     Node 4, Type 0, BuildingBlock: WUSLED_clean_sbu_0, # of connection points: 3
#     Node 5, Type 0, BuildingBlock: WUSLED_clean_sbu_0, # of connection points: 3
#     Node 6, Type 0, BuildingBlock: WUSLED_clean_sbu_0, # of connection points: 3
#     Node 7, Type 0, BuildingBlock: WUSLED_clean_sbu_0, # of connection points: 3
#     Node 8, Type 0, BuildingBlock: WUSLED_clean_sbu_0, # of connection points: 3
#     Node 9, Type 0, BuildingBlock: WUSLED_clean_sbu_0, # of connection points: 3
#     Node 10, Type 0, BuildingBlock: WUSLED_clean_sbu_0, # of connection points: 3
#     Node 11, Type 0, BuildingBlock: WUSLED_clean_sbu_0, # of connection points: 3
#     Node 12, Type 0, BuildingBlock: WUSLED_clean_sbu_0, # of connection points: 3
#     Node 13, Type 0, BuildingBlock: WUSLED_clean_sbu_0, # of connection points: 3
#     Node 14, Type 0, BuildingBlock: WUSLED_clean_sbu_0, # of connection points: 3
#     Node 15, Type 0, BuildingBlock: WUSLED_clean_sbu_0, # of connection points: 3
#     Node 16, Type 0, BuildingBlock: WUSLED_clean_sbu_0, # of connection points: 3
#     Node 17, Type 0, BuildingBlock: WUSLED_clean_sbu_0, # of connection points: 3
#     Node 18, Type 0, BuildingBlock: WUSLED_clean_sbu_0, # of connection points: 3
#     Node 19, Type 0, BuildingBlock: WUSLED_clean_sbu_0, # of connection points: 3
#     Node 20, Type 0, BuildingBlock: WUSLED_clean_sbu_0, # of connection points: 3
#     Node 21, Type 0, BuildingBlock: WUSLED_clean_sbu_0, # of connection points: 3
#     Node 22, Type 0, BuildingBlock: WUSLED_clean_sbu_0, # of connection points: 3
#     Node 23, Type 0, BuildingBlock: WUSLED_clean_sbu_0, # of connection points: 3
#     Node 24, Type 0, BuildingBlock: WUSLED_clean_sbu_0, # of connection points: 3
#     Node 25, Type 0, BuildingBlock: WUSLED_clean_sbu_0, # of connection points: 3
#     Node 26, Type 0, BuildingBlock: WUSLED_clean_sbu_0, # of connection points: 3
#     Node 27, Type 0, BuildingBlock: WUSLED_clean_sbu_0, # of connection points: 3
#     Node 28, Type 0, BuildingBlock: WUSLED_clean_sbu_0, # of connection points: 3
#     Node 29, Type 0, BuildingBlock: WUSLED_clean_sbu_0, # of connection points: 3
#     Node 30, Type 0, BuildingBlock: WUSLED_clean_sbu_0, # of connection points: 3
#     Node 31, Type 0, BuildingBlock: WUSLED_clean_sbu_0, # of connection points: 3
#     Node 32, Type 0, BuildingBlock: WUSLED_clean_sbu_0, # of connection points: 3
#     Node 33, Type 0, BuildingBlock: WUSLED_clean_sbu_0, # of connection points: 3
#     Node 34, Type 0, BuildingBlock: WUSLED_clean_sbu_0, # of connection points: 3
#     Node 35, Type 0, BuildingBlock: WUSLED_clean_sbu_0, # of connection points: 3
#     Node 36, Type 0, BuildingBlock: WUSLED_clean_sbu_0, # of connection points: 3
#     Node 37, Type 0, BuildingBlock: WUSLED_clean_sbu_0, # of connection points: 3
#     Node 38, Type 0, BuildingBlock: WUSLED_clean_sbu_0, # of connection points: 3
#     Node 39, Type 0, BuildingBlock: WUSLED_clean_sbu_0, # of connection points: 3
#     Node 40, Type 0, BuildingBlock: WUSLED_clean_sbu_0, # of connection points: 3
#     Node 41, Type 0, BuildingBlock: WUSLED_clean_sbu_0, # of connection points: 3
#     Node 42, Type 0, BuildingBlock: WUSLED_clean_sbu_0, # of connection points: 3
#     Node 43, Type 0, BuildingBlock: WUSLED_clean_sbu_0, # of connection points: 3
#     Node 44, Type 0, BuildingBlock: WUSLED_clean_sbu_0, # of connection points: 3
#     Node 45, Type 0, BuildingBlock: WUSLED_clean_sbu_0, # of connection points: 3
#     Node 46, Type 0, BuildingBlock: WUSLED_clean_sbu_0, # of connection points: 3
#     Node 47, Type 0, BuildingBlock: WUSLED_clean_sbu_0, # of connection points: 3
#     Node 48, Type 0, BuildingBlock: WUSLED_clean_sbu_0, # of connection points: 3
#     Node 49, Type 0, BuildingBlock: WUSLED_clean_sbu_0, # of connection points: 3
#     Node 50, Type 0, BuildingBlock: WUSLED_clean_sbu_0, # of connection points: 3
#     Node 51, Type 0, BuildingBlock: WUSLED_clean_sbu_0, # of connection points: 3
#     Node 52, Type 0, BuildingBlock: WUSLED_clean_sbu_0, # of connection points: 3
#     Node 53, Type 0, BuildingBlock: WUSLED_clean_sbu_0, # of connection points: 3
#     Node 54, Type 0, BuildingBlock: WUSLED_clean_sbu_0, # of connection points: 3
#     Node 55, Type 0, BuildingBlock: WUSLED_clean_sbu_0, # of connection points: 3
#     Node 56, Type 0, BuildingBlock: WUSLED_clean_sbu_0, # of connection points: 3
#     Node 57, Type 0, BuildingBlock: WUSLED_clean_sbu_0, # of connection points: 3
#     Node 58, Type 0, BuildingBlock: WUSLED_clean_sbu_0, # of connection points: 3
#     Node 59, Type 0, BuildingBlock: WUSLED_clean_sbu_0, # of connection points: 3
#     Node 60, Type 0, BuildingBlock: WUSLED_clean_sbu_0, # of connection points: 3
#     Node 61, Type 0, BuildingBlock: WUSLED_clean_sbu_0, # of connection points: 3
#     Node 62, Type 0, BuildingBlock: WUSLED_clean_sbu_0, # of connection points: 3
#     Node 63, Type 0, BuildingBlock: WUSLED_clean_sbu_0, # of connection points: 3
#     Node 64, Type 0, BuildingBlock: WUSLED_clean_sbu_0, # of connection points: 3
#     Node 65, Type 0, BuildingBlock: WUSLED_clean_sbu_0, # of connection points: 3
#     Node 66, Type 0, BuildingBlock: WUSLED_clean_sbu_0, # of connection points: 3
#     Node 67, Type 0, BuildingBlock: WUSLED_clean_sbu_0, # of connection points: 3
#     Node 68, Type 0, BuildingBlock: WUSLED_clean_sbu_0, # of connection points: 3
#     Node 69, Type 0, BuildingBlock: WUSLED_clean_sbu_0, # of connection points: 3
#     Node 70, Type 0, BuildingBlock: WUSLED_clean_sbu_0, # of connection points: 3
#     Node 71, Type 0, BuildingBlock: WUSLED_clean_sbu_0, # of connection points: 3
#     Node 72, Type 0, BuildingBlock: WUSLED_clean_sbu_0, # of connection points: 3
#     Node 73, Type 0, BuildingBlock: WUSLED_clean_sbu_0, # of connection points: 3
#     Node 74, Type 0, BuildingBlock: WUSLED_clean_sbu_0, # of connection points: 3
#     Node 75, Type 0, BuildingBlock: WUSLED_clean_sbu_0, # of connection points: 3
#     Node 76, Type 0, BuildingBlock: WUSLED_clean_sbu_0, # of connection points: 3
#     Node 77, Type 0, BuildingBlock: WUSLED_clean_sbu_0, # of connection points: 3
#     Node 78, Type 0, BuildingBlock: WUSLED_clean_sbu_0, # of connection points: 3
#     Node 79, Type 0, BuildingBlock: WUSLED_clean_sbu_0, # of connection points: 3
#     Node 80, Type 0, BuildingBlock: WUSLED_clean_sbu_0, # of connection points: 3
#     Node 81, Type 0, BuildingBlock: WUSLED_clean_sbu_0, # of connection points: 3
#     Node 82, Type 0, BuildingBlock: WUSLED_clean_sbu_0, # of connection points: 3
#     Node 83, Type 0, BuildingBlock: WUSLED_clean_sbu_0, # of connection points: 3
#     Node 84, Type 0, BuildingBlock: WUSLED_clean_sbu_0, # of connection points: 3
#     Node 85, Type 0, BuildingBlock: WUSLED_clean_sbu_0, # of connection points: 3
#     Node 86, Type 0, BuildingBlock: WUSLED_clean_sbu_0, # of connection points: 3
#     Node 87, Type 0, BuildingBlock: WUSLED_clean_sbu_0, # of connection points: 3
#     Node 88, Type 0, BuildingBlock: WUSLED_clean_sbu_0, # of connection points: 3
#     Node 89, Type 0, BuildingBlock: WUSLED_clean_sbu_0, # of connection points: 3
#     Node 90, Type 0, BuildingBlock: WUSLED_clean_sbu_0, # of connection points: 3
#     Node 91, Type 0, BuildingBlock: WUSLED_clean_sbu_0, # of connection points: 3
#     Node 92, Type 0, BuildingBlock: WUSLED_clean_sbu_0, # of connection points: 3
#     Node 93, Type 0, BuildingBlock: WUSLED_clean_sbu_0, # of connection points: 3
#     Node 94, Type 0, BuildingBlock: WUSLED_clean_sbu_0, # of connection points: 3
#     Node 95, Type 0, BuildingBlock: WUSLED_clean_sbu_0, # of connection points: 3
#     Edge 96, Type (0, 0), BuildingBlock: UVAHIK_clean_linker_0, # of connection points: 2
#     Edge 97, Type (0, 0), BuildingBlock: UVAHIK_clean_linker_0, # of connection points: 2
#     Edge 98, Type (0, 0), BuildingBlock: UVAHIK_clean_linker_0, # of connection points: 2
#     Edge 99, Type (0, 0), BuildingBlock: UVAHIK_clean_linker_0, # of connection points: 2
#     Edge 100, Type (0, 0), BuildingBlock: UVAHIK_clean_linker_0, # of connection points: 2
#     Edge 101, Type (0, 0), BuildingBlock: UVAHIK_clean_linker_0, # of connection points: 2
#     Edge 102, Type (0, 0), BuildingBlock: UVAHIK_clean_linker_0, # of connection points: 2
#     Edge 103, Type (0, 0), BuildingBlock: UVAHIK_clean_linker_0, # of connection points: 2
#     Edge 104, Type (0, 0), BuildingBlock: UVAHIK_clean_linker_0, # of connection points: 2
#     Edge 105, Type (0, 0), BuildingBlock: UVAHIK_clean_linker_0, # of connection points: 2
#     Edge 106, Type (0, 0), BuildingBlock: UVAHIK_clean_linker_0, # of connection points: 2
#     Edge 107, Type (0, 0), BuildingBlock: UVAHIK_clean_linker_0, # of connection points: 2
#     Edge 108, Type (0, 0), BuildingBlock: UVAHIK_clean_linker_0, # of connection points: 2
#     Edge 109, Type (0, 0), BuildingBlock: UVAHIK_clean_linker_0, # of connection points: 2
#     Edge 110, Type (0, 0), BuildingBlock: UVAHIK_clean_linker_0, # of connection points: 2
#     Edge 111, Type (0, 0), BuildingBlock: UVAHIK_clean_linker_0, # of connection points: 2
#     Edge 112, Type (0, 0), BuildingBlock: UVAHIK_clean_linker_0, # of connection points: 2
#     Edge 113, Type (0, 0), BuildingBlock: UVAHIK_clean_linker_0, # of connection points: 2
#     Edge 114, Type (0, 0), BuildingBlock: UVAHIK_clean_linker_0, # of connection points: 2
#     Edge 115, Type (0, 0), BuildingBlock: UVAHIK_clean_linker_0, # of connection points: 2
#     Edge 116, Type (0, 0), BuildingBlock: UVAHIK_clean_linker_0, # of connection points: 2
#     Edge 117, Type (0, 0), BuildingBlock: UVAHIK_clean_linker_0, # of connection points: 2
#     Edge 118, Type (0, 0), BuildingBlock: UVAHIK_clean_linker_0, # of connection points: 2
#     Edge 119, Type (0, 0), BuildingBlock: UVAHIK_clean_linker_0, # of connection points: 2
#     Edge 120, Type (0, 0), BuildingBlock: UVAHIK_clean_linker_0, # of connection points: 2
#     Edge 121, Type (0, 0), BuildingBlock: UVAHIK_clean_linker_0, # of connection points: 2
#     Edge 122, Type (0, 0), BuildingBlock: UVAHIK_clean_linker_0, # of connection points: 2
#     Edge 123, Type (0, 0), BuildingBlock: UVAHIK_clean_linker_0, # of connection points: 2
#     Edge 124, Type (0, 0), BuildingBlock: UVAHIK_clean_linker_0, # of connection points: 2
#     Edge 125, Type (0, 0), BuildingBlock: UVAHIK_clean_linker_0, # of connection points: 2
#     Edge 126, Type (0, 0), BuildingBlock: UVAHIK_clean_linker_0, # of connection points: 2
#     Edge 127, Type (0, 0), BuildingBlock: UVAHIK_clean_linker_0, # of connection points: 2
#     Edge 128, Type (0, 0), BuildingBlock: UVAHIK_clean_linker_0, # of connection points: 2
#     Edge 129, Type (0, 0), BuildingBlock: UVAHIK_clean_linker_0, # of connection points: 2
#     Edge 130, Type (0, 0), BuildingBlock: UVAHIK_clean_linker_0, # of connection points: 2
#     Edge 131, Type (0, 0), BuildingBlock: UVAHIK_clean_linker_0, # of connection points: 2
#     Edge 132, Type (0, 0), BuildingBlock: UVAHIK_clean_linker_0, # of connection points: 2
#     Edge 133, Type (0, 0), BuildingBlock: UVAHIK_clean_linker_0, # of connection points: 2
#     Edge 134, Type (0, 0), BuildingBlock: UVAHIK_clean_linker_0, # of connection points: 2
#     Edge 135, Type (0, 0), BuildingBlock: UVAHIK_clean_linker_0, # of connection points: 2
#     Edge 136, Type (0, 0), BuildingBlock: UVAHIK_clean_linker_0, # of connection points: 2
#     Edge 137, Type (0, 0), BuildingBlock: UVAHIK_clean_linker_0, # of connection points: 2
#     Edge 138, Type (0, 0), BuildingBlock: UVAHIK_clean_linker_0, # of connection points: 2
#     Edge 139, Type (0, 0), BuildingBlock: UVAHIK_clean_linker_0, # of connection points: 2
#     Edge 140, Type (0, 0), BuildingBlock: UVAHIK_clean_linker_0, # of connection points: 2
#     Edge 141, Type (0, 0), BuildingBlock: UVAHIK_clean_linker_0, # of connection points: 2
#     Edge 142, Type (0, 0), BuildingBlock: UVAHIK_clean_linker_0, # of connection points: 2
#     Edge 143, Type (0, 0), BuildingBlock: UVAHIK_clean_linker_0, # of connection points: 2
#     Edge 144, Type (0, 0), BuildingBlock: UVAHIK_clean_linker_0, # of connection points: 2
#     Edge 145, Type (0, 0), BuildingBlock: UVAHIK_clean_linker_0, # of connection points: 2
#     Edge 146, Type (0, 0), BuildingBlock: UVAHIK_clean_linker_0, # of connection points: 2
#     Edge 147, Type (0, 0), BuildingBlock: UVAHIK_clean_linker_0, # of connection points: 2
#     Edge 148, Type (0, 0), BuildingBlock: UVAHIK_clean_linker_0, # of connection points: 2
#     Edge 149, Type (0, 0), BuildingBlock: UVAHIK_clean_linker_0, # of connection points: 2
#     Edge 150, Type (0, 0), BuildingBlock: UVAHIK_clean_linker_0, # of connection points: 2
#     Edge 151, Type (0, 0), BuildingBlock: UVAHIK_clean_linker_0, # of connection points: 2
#     Edge 152, Type (0, 0), BuildingBlock: UVAHIK_clean_linker_0, # of connection points: 2
#     Edge 153, Type (0, 0), BuildingBlock: UVAHIK_clean_linker_0, # of connection points: 2
#     Edge 154, Type (0, 0), BuildingBlock: UVAHIK_clean_linker_0, # of connection points: 2
#     Edge 155, Type (0, 0), BuildingBlock: UVAHIK_clean_linker_0, # of connection points: 2
#     Edge 156, Type (0, 0), BuildingBlock: UVAHIK_clean_linker_0, # of connection points: 2
#     Edge 157, Type (0, 0), BuildingBlock: UVAHIK_clean_linker_0, # of connection points: 2
#     Edge 158, Type (0, 0), BuildingBlock: UVAHIK_clean_linker_0, # of connection points: 2
#     Edge 159, Type (0, 0), BuildingBlock: UVAHIK_clean_linker_0, # of connection points: 2
#     Edge 160, Type (0, 0), BuildingBlock: UVAHIK_clean_linker_0, # of connection points: 2
#     Edge 161, Type (0, 0), BuildingBlock: UVAHIK_clean_linker_0, # of connection points: 2
#     Edge 162, Type (0, 0), BuildingBlock: UVAHIK_clean_linker_0, # of connection points: 2
#     Edge 163, Type (0, 0), BuildingBlock: UVAHIK_clean_linker_0, # of connection points: 2
#     Edge 164, Type (0, 0), BuildingBlock: UVAHIK_clean_linker_0, # of connection points: 2
#     Edge 165, Type (0, 0), BuildingBlock: UVAHIK_clean_linker_0, # of connection points: 2
#     Edge 166, Type (0, 0), BuildingBlock: UVAHIK_clean_linker_0, # of connection points: 2
#     Edge 167, Type (0, 0), BuildingBlock: UVAHIK_clean_linker_0, # of connection points: 2
#     Edge 168, Type (0, 0), BuildingBlock: UVAHIK_clean_linker_0, # of connection points: 2
#     Edge 169, Type (0, 0), BuildingBlock: UVAHIK_clean_linker_0, # of connection points: 2
#     Edge 170, Type (0, 0), BuildingBlock: UVAHIK_clean_linker_0, # of connection points: 2
#     Edge 171, Type (0, 0), BuildingBlock: UVAHIK_clean_linker_0, # of connection points: 2
#     Edge 172, Type (0, 0), BuildingBlock: UVAHIK_clean_linker_0, # of connection points: 2
#     Edge 173, Type (0, 0), BuildingBlock: UVAHIK_clean_linker_0, # of connection points: 2
#     Edge 174, Type (0, 0), BuildingBlock: UVAHIK_clean_linker_0, # of connection points: 2
#     Edge 175, Type (0, 0), BuildingBlock: UVAHIK_clean_linker_0, # of connection points: 2
#     Edge 176, Type (0, 0), BuildingBlock: UVAHIK_clean_linker_0, # of connection points: 2
#     Edge 177, Type (0, 0), BuildingBlock: UVAHIK_clean_linker_0, # of connection points: 2
#     Edge 178, Type (0, 0), BuildingBlock: UVAHIK_clean_linker_0, # of connection points: 2
#     Edge 179, Type (0, 0), BuildingBlock: UVAHIK_clean_linker_0, # of connection points: 2
#     Edge 180, Type (0, 0), BuildingBlock: UVAHIK_clean_linker_0, # of connection points: 2
#     Edge 181, Type (0, 0), BuildingBlock: UVAHIK_clean_linker_0, # of connection points: 2
#     Edge 182, Type (0, 0), BuildingBlock: UVAHIK_clean_linker_0, # of connection points: 2
#     Edge 183, Type (0, 0), BuildingBlock: UVAHIK_clean_linker_0, # of connection points: 2
#     Edge 184, Type (0, 0), BuildingBlock: UVAHIK_clean_linker_0, # of connection points: 2
#     Edge 185, Type (0, 0), BuildingBlock: UVAHIK_clean_linker_0, # of connection points: 2
#     Edge 186, Type (0, 0), BuildingBlock: UVAHIK_clean_linker_0, # of connection points: 2
#     Edge 187, Type (0, 0), BuildingBlock: UVAHIK_clean_linker_0, # of connection points: 2
#     Edge 188, Type (0, 0), BuildingBlock: UVAHIK_clean_linker_0, # of connection points: 2
#     Edge 189, Type (0, 0), BuildingBlock: UVAHIK_clean_linker_0, # of connection points: 2
#     Edge 190, Type (0, 0), BuildingBlock: UVAHIK_clean_linker_0, # of connection points: 2
#     Edge 191, Type (0, 0), BuildingBlock: UVAHIK_clean_linker_0, # of connection points: 2
#     Edge 192, Type (0, 0), BuildingBlock: UVAHIK_clean_linker_0, # of connection points: 2
#     Edge 193, Type (0, 0), BuildingBlock: UVAHIK_clean_linker_0, # of connection points: 2
#     Edge 194, Type (0, 0), BuildingBlock: UVAHIK_clean_linker_0, # of connection points: 2
#     Edge 195, Type (0, 0), BuildingBlock: UVAHIK_clean_linker_0, # of connection points: 2
#     Edge 196, Type (0, 0), BuildingBlock: UVAHIK_clean_linker_0, # of connection points: 2
#     Edge 197, Type (0, 0), BuildingBlock: UVAHIK_clean_linker_0, # of connection points: 2
#     Edge 198, Type (0, 0), BuildingBlock: UVAHIK_clean_linker_0, # of connection points: 2
#     Edge 199, Type (0, 0), BuildingBlock: UVAHIK_clean_linker_0, # of connection points: 2
#     Edge 200, Type (0, 0), BuildingBlock: UVAHIK_clean_linker_0, # of connection points: 2
#     Edge 201, Type (0, 0), BuildingBlock: UVAHIK_clean_linker_0, # of connection points: 2
#     Edge 202, Type (0, 0), BuildingBlock: UVAHIK_clean_linker_0, # of connection points: 2
#     Edge 203, Type (0, 0), BuildingBlock: UVAHIK_clean_linker_0, # of connection points: 2
#     Edge 204, Type (0, 0), BuildingBlock: UVAHIK_clean_linker_0, # of connection points: 2
#     Edge 205, Type (0, 0), BuildingBlock: UVAHIK_clean_linker_0, # of connection points: 2
#     Edge 206, Type (0, 0), BuildingBlock: UVAHIK_clean_linker_0, # of connection points: 2
#     Edge 207, Type (0, 0), BuildingBlock: UVAHIK_clean_linker_0, # of connection points: 2
#     Edge 208, Type (0, 0), BuildingBlock: UVAHIK_clean_linker_0, # of connection points: 2
#     Edge 209, Type (0, 0), BuildingBlock: UVAHIK_clean_linker_0, # of connection points: 2
#     Edge 210, Type (0, 0), BuildingBlock: UVAHIK_clean_linker_0, # of connection points: 2
#     Edge 211, Type (0, 0), BuildingBlock: UVAHIK_clean_linker_0, # of connection points: 2
#     Edge 212, Type (0, 0), BuildingBlock: UVAHIK_clean_linker_0, # of connection points: 2
#     Edge 213, Type (0, 0), BuildingBlock: UVAHIK_clean_linker_0, # of connection points: 2
#     Edge 214, Type (0, 0), BuildingBlock: UVAHIK_clean_linker_0, # of connection points: 2
#     Edge 215, Type (0, 0), BuildingBlock: UVAHIK_clean_linker_0, # of connection points: 2
#     Edge 216, Type (0, 0), BuildingBlock: UVAHIK_clean_linker_0, # of connection points: 2
#     Edge 217, Type (0, 0), BuildingBlock: UVAHIK_clean_linker_0, # of connection points: 2
#     Edge 218, Type (0, 0), BuildingBlock: UVAHIK_clean_linker_0, # of connection points: 2
#     Edge 219, Type (0, 0), BuildingBlock: UVAHIK_clean_linker_0, # of connection points: 2
#     Edge 220, Type (0, 0), BuildingBlock: UVAHIK_clean_linker_0, # of connection points: 2
#     Edge 221, Type (0, 0), BuildingBlock: UVAHIK_clean_linker_0, # of connection points: 2
#     Edge 222, Type (0, 0), BuildingBlock: UVAHIK_clean_linker_0, # of connection points: 2
#     Edge 223, Type (0, 0), BuildingBlock: UVAHIK_clean_linker_0, # of connection points: 2
#     Edge 224, Type (0, 0), BuildingBlock: UVAHIK_clean_linker_0, # of connection points: 2
#     Edge 225, Type (0, 0), BuildingBlock: UVAHIK_clean_linker_0, # of connection points: 2
#     Edge 226, Type (0, 0), BuildingBlock: UVAHIK_clean_linker_0, # of connection points: 2
#     Edge 227, Type (0, 0), BuildingBlock: UVAHIK_clean_linker_0, # of connection points: 2
#     Edge 228, Type (0, 0), BuildingBlock: UVAHIK_clean_linker_0, # of connection points: 2
#     Edge 229, Type (0, 0), BuildingBlock: UVAHIK_clean_linker_0, # of connection points: 2
#     Edge 230, Type (0, 0), BuildingBlock: UVAHIK_clean_linker_0, # of connection points: 2
#     Edge 231, Type (0, 0), BuildingBlock: UVAHIK_clean_linker_0, # of connection points: 2
#     Edge 232, Type (0, 0), BuildingBlock: UVAHIK_clean_linker_0, # of connection points: 2
#     Edge 233, Type (0, 0), BuildingBlock: UVAHIK_clean_linker_0, # of connection points: 2
#     Edge 234, Type (0, 0), BuildingBlock: UVAHIK_clean_linker_0, # of connection points: 2
#     Edge 235, Type (0, 0), BuildingBlock: UVAHIK_clean_linker_0, # of connection points: 2
#     Edge 236, Type (0, 0), BuildingBlock: UVAHIK_clean_linker_0, # of connection points: 2
#     Edge 237, Type (0, 0), BuildingBlock: UVAHIK_clean_linker_0, # of connection points: 2
#     Edge 238, Type (0, 0), BuildingBlock: UVAHIK_clean_linker_0, # of connection points: 2
#     Edge 239, Type (0, 0), BuildingBlock: UVAHIK_clean_linker_0, # of connection points: 2
# Relax obj value: 0.126
# Max RMSD: 0.104
# Mean RMSD: 0.104
data_MOF--net-rhr-a--node1-WUSLED_clean_sbu_0--edge1-UVAHIK_clean_linker_0
_symmetry_space_group_name_H-M    P1
_symmetry_Int_Tables_number       1
_symmetry_cell_setting            triclinic
loop_
_symmetry_equiv_pos_as_xyz
'x, y, z'
_cell_length_a     216.75121
_cell_length_b     216.76347
_cell_length_c     216.75975
_cell_angle_alpha  89.996836
_cell_angle_beta   89.998202
_cell_angle_gamma 90.000961
loop_
_atom_site_label
_atom_site_type_symbol
_atom_site_fract_x
_atom_site_fract_y
_atom_site_fract_z
_atom_type_partial_charge
C0 C 0.0734 0.27711 0.34259 0.0
C1 C 0.06814 0.27839 0.33905 0.0
C2 C 0.07411 0.28531 0.33251 0.0
C3 C 0.06849 0.28245 0.33405 0.0
C4 C 0.07939 0.28395 0.33605 0.0
C5 C 0.07903 0.27988 0.34105 0.0
U6 U 0.06384 0.26692 0.35303 0.0
O7 O 0.06596 0.25803 0.35746 0.0
O8 O 0.06364 0.26609 0.36313 0.0
C9 C 0.06564 0.26036 0.36305 0.0
C10 C 0.07299 0.27301 0.34797 0.0
C11 C 0.07096 0.2591 0.36704 0.0
C12 C 0.08147 0.26128 0.3703 0.0
C13 C 0.07648 0.26242 0.36636 0.0
C14 C 0.07551 0.25342 0.37556 0.0
C15 C 0.08103 0.25678 0.37496 0.0
C16 C 0.07052 0.25458 0.37163 0.0
C17 C 0.04652 0.26532 0.34903 0.0
C18 C 0.03699 0.26509 0.35497 0.0
C19 C 0.03735 0.2604 0.34485 0.0
C20 C 0.04355 0.26206 0.34429 0.0
C21 C 0.03395 0.26201 0.35013 0.0
C22 C 0.04321 0.26672 0.35443 0.0
C23 C 0.05285 0.26762 0.34799 0.0
O24 O 0.0697 0.27519 0.35258 0.0
O25 O 0.07179 0.2672 0.34672 0.0
O26 O 0.05699 0.2635 0.34634 0.0
O27 O 0.05498 0.2717 0.35194 0.0
H28 H 0.06374 0.2763 0.3402 0.0
H29 H 0.06432 0.28345 0.33148 0.0
H30 H 0.0838 0.28601 0.33494 0.0
H31 H 0.08314 0.27893 0.34374 0.0
H32 H 0.08568 0.2639 0.36967 0.0
H33 H 0.07691 0.26591 0.36281 0.0
H34 H 0.07499 0.24998 0.37914 0.0
H35 H 0.06629 0.25198 0.37222 0.0
H36 H 0.03451 0.26646 0.35909 0.0
H37 H 0.03518 0.25793 0.34108 0.0
H38 H 0.04599 0.26092 0.34008 0.0
H39 H 0.04537 0.26924 0.35817 0.0
C40 C 0.72442 0.07336 0.34251 0.0
C41 C 0.72317 0.06815 0.33888 0.0
C42 C 0.71617 0.07419 0.33249 0.0
C43 C 0.71908 0.06856 0.33391 0.0
C44 C 0.71749 0.07941 0.33612 0.0
C45 C 0.72159 0.07899 0.3411 0.0
U46 U 0.7347 0.06362 0.35265 0.0
O47 O 0.74367 0.06561 0.35699 0.0
O48 O 0.73568 0.06321 0.36273 0.0
C49 C 0.74141 0.0652 0.36261 0.0
C50 C 0.72857 0.07287 0.34785 0.0
C51 C 0.74275 0.07044 0.36668 0.0
C52 C 0.74052 0.08081 0.37032 0.0
C53 C 0.73927 0.0759 0.36633 0.0
C54 C 0.7488 0.07492 0.37498 0.0
C55 C 0.7453 0.08037 0.3747 0.0
C56 C 0.74753 0.06999 0.371 0.0
C57 C 0.73616 0.04641 0.34819 0.0
C58 C 0.73792 0.03735 0.35458 0.0
C59 C 0.73934 0.03675 0.34351 0.0
C60 C 0.73776 0.04297 0.34296 0.0
C61 C 0.73931 0.03382 0.3493 0.0
C62 C 0.73636 0.0436 0.35403 0.0
C63 C 0.73389 0.05277 0.34734 0.0
O64 O 0.72644 0.0695 0.35242 0.0
O65 O 0.73437 0.0717 0.34652 0.0
O66 O 0.7299 0.05479 0.35144 0.0
O67 O 0.73803 0.05691 0.34576 0.0
H68 H 0.7253 0.06376 0.33993 0.0
H69 H 0.7181 0.06444 0.33126 0.0
H70 H 0.71539 0.08382 0.33511 0.0
H71 H 0.72252 0.08305 0.34386 0.0
H72 H 0.73779 0.08498 0.36994 0.0
H73 H 0.73558 0.07633 0.36298 0.0
H74 H 0.75246 0.0744 0.37834 0.0
H75 H 0.75025 0.06582 0.37134 0.0
H76 H 0.73781 0.03524 0.3591 0.0
H77 H 0.74051 0.0342 0.33937 0.0
H78 H 0.73766 0.04506 0.33842 0.0
H79 H 0.73516 0.04617 0.35814 0.0
C80 C 0.92877 0.72443 0.34222 0.0
C81 C 0.93402 0.72299 0.33873 0.0
C82 C 0.92796 0.71598 0.33236 0.0
C83 C 0.93362 0.7188 0.33384 0.0
C84 C 0.9227 0.71751 0.33585 0.0
C85 C 0.92311 0.7217 0.34074 0.0
U86 U 0.93839 0.73485 0.35239 0.0
O87 O 0.93629 0.74385 0.35661 0.0
O88 O 0.93861 0.73592 0.36247 0.0
C89 C 0.93662 0.74165 0.36225 0.0
C90 C 0.92922 0.72865 0.3475 0.0
C91 C 0.9313 0.74301 0.36623 0.0
C92 C 0.92086 0.74081 0.36968 0.0
C93 C 0.92584 0.73956 0.36576 0.0
C94 C 0.92671 0.74904 0.37448 0.0
C95 C 0.92125 0.74555 0.3741 0.0
C96 C 0.93169 0.74777 0.37058 0.0
C97 C 0.95563 0.73639 0.34843 0.0
C98 C 0.96398 0.73932 0.35533 0.0
C99 C 0.96568 0.73908 0.34428 0.0
C100 C 0.95957 0.73726 0.34338 0.0
C101 C 0.96798 0.74006 0.35027 0.0
C102 C 0.95784 0.73752 0.35442 0.0
C103 C 0.94936 0.73403 0.34733 0.0
O104 O 0.93252 0.72658 0.35214 0.0
O105 O 0.93043 0.73443 0.34611 0.0
O106 O 0.94523 0.73812 0.34562 0.0
O107 O 0.94726 0.73006 0.35141 0.0
H108 H 0.93844 0.72504 0.33984 0.0
H109 H 0.93778 0.71767 0.33131 0.0
H110 H 0.91826 0.71549 0.33478 0.0
H111 H 0.91901 0.72278 0.34339 0.0
H112 H 0.91669 0.73809 0.36922 0.0
H113 H 0.92544 0.73589 0.3624 0.0
H114 H 0.92719 0.75267 0.37787 0.0
H115 H 0.93588 0.75047 0.371 0.0
H116 H 0.9656 0.74009 0.35999 0.0
H117 H 0.96866 0.73953 0.3403 0.0
H118 H 0.95794 0.73639 0.33873 0.0
H119 H 0.95486 0.73691 0.35838 0.0
C120 C 0.27693 0.92793 0.3423 0.0
C121 C 0.27811 0.93306 0.33854 0.0
C122 C 0.28506 0.92693 0.33219 0.0
C123 C 0.28213 0.93256 0.33353 0.0
C124 C 0.28381 0.92178 0.33595 0.0
C125 C 0.27978 0.92228 0.34097 0.0
U126 U 0.26693 0.93791 0.35247 0.0
O127 O 0.25807 0.93607 0.35707 0.0
O128 O 0.26621 0.93854 0.36256 0.0
C129 C 0.26046 0.93662 0.36262 0.0
C130 C 0.2729 0.92852 0.34771 0.0
C131 C 0.25917 0.9315 0.36687 0.0
C132 C 0.26074 0.9209 0.37018 0.0
C133 C 0.26187 0.92568 0.36599 0.0
C134 C 0.25415 0.9277 0.37613 0.0
C135 C 0.2569 0.92187 0.37533 0.0
C136 C 0.25529 0.93247 0.37194 0.0
C137 C 0.26553 0.95503 0.34774 0.0
C138 C 0.26377 0.96411 0.3541 0.0
C139 C 0.26256 0.96474 0.34301 0.0
C140 C 0.26406 0.9585 0.34249 0.0
C141 C 0.26252 0.96766 0.34881 0.0
C142 C 0.26526 0.95784 0.35357 0.0
C143 C 0.26771 0.94865 0.34693 0.0
O144 O 0.27513 0.93195 0.35218 0.0
O145 O 0.26708 0.92971 0.34648 0.0
O146 O 0.2635 0.94452 0.34554 0.0
O147 O 0.27178 0.94666 0.35097 0.0
H148 H 0.27597 0.93747 0.33953 0.0
H149 H 0.28306 0.93664 0.33079 0.0
H150 H 0.28593 0.91736 0.33501 0.0
H151 H 0.27891 0.91828 0.34383 0.0
H152 H 0.26297 0.9165 0.36946 0.0
H153 H 0.26489 0.92486 0.36209 0.0
H154 H 0.2511 0.92858 0.37999 0.0
H155 H 0.25315 0.93693 0.37267 0.0
H156 H 0.26382 0.96622 0.35863 0.0
H157 H 0.2615 0.9673 0.33886 0.0
H158 H 0.26422 0.95641 0.33795 0.0
H159 H 0.26636 0.95525 0.3577 0.0
C160 C 0.07341 0.72451 0.65904 0.0
C161 C 0.06815 0.72353 0.66268 0.0
C162 C 0.07385 0.71628 0.66911 0.0
C163 C 0.06836 0.71945 0.66767 0.0
C164 C 0.07913 0.71736 0.66548 0.0
C165 C 0.0789 0.72144 0.66048 0.0
U166 U 0.06406 0.73482 0.64857 0.0
O167 O 0.06628 0.7437 0.64416 0.0
O168 O 0.06387 0.73567 0.63847 0.0
C169 C 0.06593 0.74138 0.63857 0.0
C170 C 0.07311 0.72861 0.65365 0.0
C171 C 0.07127 0.7426 0.63457 0.0
C172 C 0.08172 0.74029 0.63123 0.0
C173 C 0.07673 0.73917 0.63517 0.0
C174 C 0.07587 0.74834 0.62612 0.0
C175 C 0.08134 0.74487 0.62664 0.0
C176 C 0.07088 0.7472 0.63005 0.0
C177 C 0.04675 0.73661 0.6526 0.0
C178 C 0.03722 0.73696 0.64667 0.0
C179 C 0.0376 0.74152 0.65686 0.0
C180 C 0.0438 0.73983 0.65738 0.0
C181 C 0.03419 0.73998 0.65155 0.0
C182 C 0.04344 0.7353 0.64718 0.0
C183 C 0.05307 0.73425 0.65362 0.0
O184 O 0.06981 0.72648 0.64903 0.0
O185 O 0.072 0.73444 0.65489 0.0
O186 O 0.05725 0.73833 0.65527 0.0
O187 O 0.05514 0.73015 0.64966 0.0
H188 H 0.06387 0.72588 0.66162 0.0
H189 H 0.06424 0.7188 0.67041 0.0
H190 H 0.0834 0.71494 0.66642 0.0
H191 H 0.083 0.72213 0.6577 0.0
H192 H 0.08588 0.73759 0.6318 0.0
H193 H 0.07711 0.73562 0.63866 0.0
H194 H 0.0754 0.75185 0.6226 0.0
H195 H 0.06669 0.74988 0.62952 0.0
H196 H 0.03473 0.73566 0.64254 0.0
H197 H 0.03545 0.74394 0.66066 0.0
H198 H 0.04625 0.74089 0.66161 0.0
H199 H 0.04558 0.73282 0.64341 0.0
C200 C 0.27699 0.07315 0.65935 0.0
C201 C 0.27789 0.06796 0.66311 0.0
C202 C 0.28552 0.07355 0.66918 0.0
C203 C 0.28211 0.06815 0.66798 0.0
C204 C 0.28452 0.07877 0.66545 0.0
C205 C 0.28029 0.07857 0.66057 0.0
U206 U 0.26673 0.06365 0.64902 0.0
O207 O 0.25773 0.06564 0.64476 0.0
O208 O 0.26573 0.06348 0.63893 0.0
C209 C 0.25996 0.06536 0.63913 0.0
C210 C 0.27281 0.07283 0.65404 0.0
C211 C 0.25851 0.07064 0.63513 0.0
C212 C 0.2603 0.08121 0.63186 0.0
C213 C 0.26163 0.07628 0.63581 0.0
C214 C 0.25268 0.07495 0.6266 0.0
C215 C 0.25583 0.0806 0.62719 0.0
C216 C 0.25402 0.07002 0.63054 0.0
C217 C 0.26553 0.04636 0.65289 0.0
C218 C 0.26177 0.03834 0.646 0.0
C219 C 0.26409 0.03592 0.65667 0.0
C220 C 0.26577 0.04206 0.65769 0.0
C221 C 0.26213 0.03397 0.6508 0.0
C222 C 0.26344 0.0445 0.64705 0.0
C223 C 0.26774 0.05266 0.65402 0.0
O224 O 0.27492 0.06962 0.64935 0.0
O225 O 0.26702 0.07156 0.65536 0.0
O226 O 0.26354 0.0567 0.65572 0.0
O227 O 0.27166 0.05485 0.64995 0.0
H228 H 0.27538 0.06373 0.66222 0.0
H229 H 0.28269 0.06408 0.67081 0.0
H230 H 0.28712 0.08297 0.66621 0.0
H231 H 0.27967 0.08261 0.6577 0.0
H232 H 0.26276 0.08552 0.63248 0.0
H233 H 0.2651 0.07684 0.63936 0.0
H234 H 0.24927 0.07429 0.62301 0.0
H235 H 0.25158 0.06569 0.62995 0.0
H236 H 0.26022 0.037 0.64145 0.0
H237 H 0.26452 0.03267 0.66044 0.0
H238 H 0.26739 0.04341 0.66223 0.0
H239 H 0.2632 0.04778 0.64328 0.0
C240 C 0.92849 0.27674 0.65926 0.0
C241 C 0.93363 0.27745 0.66313 0.0
C242 C 0.9281 0.28508 0.66924 0.0
C243 C 0.93344 0.28157 0.66808 0.0
C244 C 0.92292 0.28426 0.66541 0.0
C245 C 0.92312 0.28012 0.66045 0.0
U246 U 0.93817 0.26692 0.6487 0.0
O247 O 0.93639 0.25804 0.64413 0.0
O248 O 0.93843 0.26625 0.63857 0.0
C249 C 0.93669 0.26045 0.63857 0.0
C250 C 0.92887 0.27271 0.65382 0.0
C251 C 0.93154 0.25896 0.63443 0.0
C252 C 0.92056 0.25849 0.63219 0.0
C253 C 0.92539 0.25991 0.63623 0.0
C254 C 0.92798 0.25523 0.62449 0.0
C255 C 0.9218 0.25612 0.62626 0.0
C256 C 0.9328 0.25663 0.62854 0.0
C257 C 0.95542 0.26582 0.65268 0.0
C258 C 0.96346 0.26215 0.64578 0.0
C259 C 0.96587 0.26446 0.65645 0.0
C260 C 0.95973 0.26609 0.65749 0.0
C261 C 0.96784 0.26253 0.65057 0.0
C262 C 0.9573 0.26377 0.64683 0.0
C263 C 0.94909 0.26793 0.65384 0.0
O264 O 0.93207 0.275 0.64921 0.0
O265 O 0.93019 0.2669 0.65498 0.0
O266 O 0.94509 0.26364 0.65537 0.0
O267 O 0.94688 0.27194 0.64986 0.0
H268 H 0.93783 0.27487 0.66226 0.0
H269 H 0.93747 0.28202 0.67098 0.0
H270 H 0.91876 0.28694 0.66613 0.0
H271 H 0.91913 0.27965 0.65748 0.0
H272 H 0.91586 0.25918 0.63373 0.0
H273 H 0.92434 0.26173 0.64077 0.0
H274 H 0.92912 0.25353 0.61993 0.0
H275 H 0.93752 0.25592 0.62705 0.0
H276 H 0.96482 0.26062 0.64122 0.0
H277 H 0.96913 0.2649 0.66022 0.0
H278 H 0.95836 0.26769 0.66202 0.0
H279 H 0.95402 0.26351 0.64307 0.0
C280 C 0.72451 0.92823 0.65904 0.0
C281 C 0.72378 0.93336 0.66293 0.0
C282 C 0.71608 0.92782 0.66895 0.0
C283 C 0.71961 0.93315 0.66784 0.0
C284 C 0.71692 0.92265 0.6651 0.0
C285 C 0.72109 0.92287 0.66017 0.0
U286 U 0.73487 0.93778 0.64886 0.0
O287 O 0.74371 0.93568 0.64434 0.0
O288 O 0.73567 0.93832 0.63877 0.0
C289 C 0.74138 0.93627 0.63877 0.0
C290 C 0.72861 0.9286 0.65366 0.0
C291 C 0.74258 0.93112 0.63453 0.0
C292 C 0.7408 0.92056 0.6312 0.0
C293 C 0.73976 0.92536 0.63539 0.0
C294 C 0.74757 0.92723 0.62529 0.0
C295 C 0.74469 0.92146 0.62607 0.0
C296 C 0.74652 0.93201 0.62948 0.0
C297 C 0.73662 0.95492 0.65344 0.0
C298 C 0.73842 0.96397 0.64705 0.0
C299 C 0.7399 0.96455 0.65811 0.0
C300 C 0.73828 0.95834 0.65866 0.0
C301 C 0.73985 0.96748 0.65232 0.0
C302 C 0.73682 0.95773 0.64761 0.0
C303 C 0.7343 0.94858 0.65429 0.0
O304 O 0.72652 0.93203 0.64913 0.0
O305 O 0.73445 0.92964 0.65493 0.0
O306 O 0.73841 0.94437 0.65576 0.0
O307 O 0.7302 0.94665 0.65026 0.0
H308 H 0.72639 0.93755 0.66211 0.0
H309 H 0.71915 0.93717 0.67076 0.0
H310 H 0.71422 0.9185 0.66578 0.0
H311 H 0.72158 0.91888 0.65719 0.0
H312 H 0.73847 0.9162 0.6319 0.0
H313 H 0.73669 0.92461 0.63927 0.0
H314 H 0.75066 0.92804 0.62145 0.0
H315 H 0.74875 0.93642 0.62877 0.0
H316 H 0.7383 0.96608 0.64253 0.0
H317 H 0.7411 0.96709 0.66225 0.0
H318 H 0.73818 0.95625 0.6632 0.0
H319 H 0.73557 0.95517 0.6435 0.0
C320 C 0.34187 0.07327 0.27719 0.0
C321 C 0.33819 0.0681 0.27845 0.0
C322 C 0.33175 0.07424 0.28531 0.0
C323 C 0.33318 0.06857 0.28247 0.0
C324 C 0.33543 0.07942 0.28397 0.0
C325 C 0.34045 0.07894 0.27994 0.0
U326 U 0.35226 0.06335 0.26733 0.0
O327 O 0.35683 0.06517 0.25844 0.0
O328 O 0.36237 0.06295 0.26662 0.0
C329 C 0.36239 0.06479 0.26085 0.0
C330 C 0.34729 0.07272 0.27316 0.0
C331 C 0.36652 0.06998 0.25949 0.0
C332 C 0.36963 0.08065 0.261 0.0
C333 C 0.36554 0.07579 0.26218 0.0
C334 C 0.37565 0.07395 0.25438 0.0
C335 C 0.37476 0.07977 0.25711 0.0
C336 C 0.37157 0.0691 0.25556 0.0
C337 C 0.3481 0.04615 0.26613 0.0
C338 C 0.35493 0.03809 0.26237 0.0
C339 C 0.34428 0.03571 0.2648 0.0
C340 C 0.34328 0.04186 0.26645 0.0
C341 C 0.35013 0.03374 0.2628 0.0
C342 C 0.35392 0.04426 0.26401 0.0
C343 C 0.347 0.05248 0.26828 0.0
O344 O 0.35183 0.06941 0.27544 0.0
O345 O 0.34608 0.0714 0.26736 0.0
O346 O 0.3455 0.05652 0.264 0.0
O347 O 0.35099 0.05462 0.27231 0.0
H348 H 0.33926 0.06367 0.27637 0.0
H349 H 0.3305 0.06447 0.28346 0.0
H350 H 0.33441 0.08386 0.28602 0.0
H351 H 0.34324 0.08298 0.27901 0.0
H352 H 0.36884 0.08505 0.26323 0.0
H353 H 0.36166 0.07654 0.26524 0.0
H354 H 0.3795 0.07314 0.25129 0.0
H355 H 0.37237 0.06465 0.25344 0.0
H356 H 0.35947 0.03673 0.26079 0.0
H357 H 0.34051 0.03247 0.26527 0.0
H358 H 0.33877 0.04324 0.2681 0.0
H359 H 0.35769 0.04753 0.26371 0.0
C360 C 0.92869 0.34212 0.27691 0.0
C361 C 0.93382 0.33823 0.2776 0.0
C362 C 0.92829 0.33217 0.28528 0.0
C363 C 0.93362 0.3333 0.28174 0.0
C364 C 0.92313 0.33603 0.28448 0.0
C365 C 0.92334 0.34098 0.28033 0.0
U366 U 0.93818 0.35249 0.26664 0.0
O367 O 0.93604 0.35701 0.2578 0.0
O368 O 0.93854 0.3626 0.26587 0.0
C369 C 0.93651 0.36258 0.26015 0.0
C370 C 0.92904 0.34752 0.27282 0.0
C371 C 0.93129 0.36673 0.25893 0.0
C372 C 0.92069 0.3699 0.26073 0.0
C373 C 0.92557 0.3658 0.2618 0.0
C374 C 0.92722 0.37584 0.25386 0.0
C375 C 0.92147 0.375 0.25678 0.0
C376 C 0.93208 0.37174 0.25494 0.0
C377 C 0.95536 0.34834 0.26488 0.0
C378 C 0.96375 0.35521 0.26202 0.0
C379 C 0.9654 0.34416 0.26223 0.0
C380 C 0.95927 0.34328 0.26401 0.0
C381 C 0.96774 0.35014 0.2613 0.0
C382 C 0.9576 0.35432 0.26378 0.0
C383 C 0.94908 0.34727 0.26723 0.0
O384 O 0.93239 0.35209 0.27496 0.0
O385 O 0.93014 0.34629 0.26698 0.0
O386 O 0.94491 0.34573 0.26311 0.0
O387 O 0.94706 0.35125 0.27133 0.0
H388 H 0.938 0.33907 0.27499 0.0
H389 H 0.93764 0.33037 0.28218 0.0
H390 H 0.91898 0.33534 0.28718 0.0
H391 H 0.91935 0.34396 0.27987 0.0
H392 H 0.91636 0.36915 0.2631 0.0
H393 H 0.92489 0.36195 0.26492 0.0
H394 H 0.92795 0.37965 0.25072 0.0
H395 H 0.93647 0.3725 0.25267 0.0
H396 H 0.9654 0.35987 0.26128 0.0
H397 H 0.96837 0.34016 0.26179 0.0
H398 H 0.95763 0.33863 0.26485 0.0
H399 H 0.95463 0.3583 0.26439 0.0
C400 C 0.65967 0.92843 0.27694 0.0
C401 C 0.66353 0.93357 0.27761 0.0
C402 C 0.66963 0.92811 0.28531 0.0
C403 C 0.66847 0.93341 0.28175 0.0
C404 C 0.66579 0.92292 0.28453 0.0
C405 C 0.66084 0.92309 0.28039 0.0
U406 U 0.64925 0.93783 0.26666 0.0
O407 O 0.64471 0.93565 0.25784 0.0
O408 O 0.63914 0.93815 0.26591 0.0
C409 C 0.63915 0.93611 0.2602 0.0
C410 C 0.65426 0.92873 0.27287 0.0
C411 C 0.63502 0.93088 0.25901 0.0
C412 C 0.63194 0.92024 0.26076 0.0
C413 C 0.63603 0.92513 0.26181 0.0
C414 C 0.62584 0.92679 0.25407 0.0
C415 C 0.62677 0.92103 0.25691 0.0
C416 C 0.62993 0.93167 0.25511 0.0
C417 C 0.65343 0.95508 0.26484 0.0
C418 C 0.64745 0.96458 0.26439 0.0
C419 C 0.65775 0.96427 0.26007 0.0
C420 C 0.65827 0.95807 0.26175 0.0
C421 C 0.65239 0.96765 0.26149 0.0
C422 C 0.64796 0.95836 0.26604 0.0
C423 C 0.65442 0.94876 0.26719 0.0
O424 O 0.64968 0.93208 0.275 0.0
O425 O 0.65547 0.92982 0.26702 0.0
O426 O 0.65598 0.94457 0.26309 0.0
O427 O 0.65048 0.94673 0.27133 0.0
H428 H 0.66268 0.93774 0.27498 0.0
H429 H 0.67138 0.93745 0.28216 0.0
H430 H 0.6665 0.91879 0.28725 0.0
H431 H 0.65788 0.91909 0.27995 0.0
H432 H 0.63276 0.91589 0.26307 0.0
H433 H 0.63994 0.92445 0.26484 0.0
H434 H 0.62196 0.92753 0.25101 0.0
H435 H 0.62909 0.93607 0.2529 0.0
H436 H 0.64328 0.96704 0.26561 0.0
H437 H 0.6616 0.96645 0.25774 0.0
H438 H 0.66253 0.95564 0.26077 0.0
H439 H 0.64414 0.95618 0.26842 0.0
C440 C 0.07278 0.65957 0.27683 0.0
C441 C 0.06757 0.66332 0.27763 0.0
C442 C 0.07308 0.66948 0.28525 0.0
C443 C 0.06772 0.66824 0.2818 0.0
C444 C 0.07832 0.66576 0.28434 0.0
C445 C 0.07817 0.66083 0.28017 0.0
U446 U 0.06343 0.64909 0.26657 0.0
O447 O 0.06558 0.64471 0.25765 0.0
O448 O 0.06329 0.63899 0.26569 0.0
C449 C 0.06529 0.63911 0.25996 0.0
C450 C 0.07251 0.65421 0.2727 0.0
C451 C 0.07064 0.63515 0.25869 0.0
C452 C 0.08114 0.6319 0.26089 0.0
C453 C 0.07614 0.63582 0.26203 0.0
C454 C 0.07521 0.62667 0.25298 0.0
C455 C 0.08072 0.62725 0.25637 0.0
C456 C 0.07021 0.63058 0.25414 0.0
C457 C 0.04614 0.65288 0.26509 0.0
C458 C 0.03818 0.64592 0.26136 0.0
C459 C 0.0357 0.6566 0.26353 0.0
C460 C 0.04181 0.65767 0.26524 0.0
C461 C 0.03378 0.65069 0.26164 0.0
C462 C 0.04432 0.64701 0.26307 0.0
C463 C 0.05242 0.65407 0.26736 0.0
O464 O 0.06929 0.64954 0.27483 0.0
O465 O 0.07132 0.65547 0.26689 0.0
O466 O 0.0565 0.65572 0.26319 0.0
O467 O 0.05457 0.65006 0.27137 0.0
H468 H 0.06337 0.6624 0.27509 0.0
H469 H 0.06363 0.67107 0.28232 0.0
H470 H 0.08249 0.66654 0.28698 0.0
H471 H 0.08222 0.65796 0.27962 0.0
H472 H 0.08534 0.63252 0.26353 0.0
H473 H 0.07655 0.63936 0.26554 0.0
H474 H 0.07471 0.62309 0.24952 0.0
H475 H 0.06599 0.62999 0.25153 0.0
H476 H 0.03687 0.64133 0.25987 0.0
H477 H 0.03242 0.66036 0.26389 0.0
H478 H 0.04314 0.66223 0.26682 0.0
H479 H 0.04761 0.64325 0.2629 0.0
C480 C 0.34242 0.92805 0.72401 0.0
C481 C 0.33882 0.93328 0.72275 0.0
C482 C 0.33233 0.92727 0.71582 0.0
C483 C 0.33382 0.93289 0.7187 0.0
C484 C 0.33593 0.92203 0.71714 0.0
C485 C 0.34093 0.92242 0.7212 0.0
U486 U 0.35275 0.93768 0.73423 0.0
O487 O 0.35712 0.9356 0.74316 0.0
O488 O 0.36284 0.93794 0.73514 0.0
C489 C 0.36273 0.93596 0.74087 0.0
C490 C 0.34778 0.92849 0.72812 0.0
C491 C 0.36676 0.93068 0.7422 0.0
C492 C 0.37036 0.9203 0.73993 0.0
C493 C 0.3664 0.92525 0.73868 0.0
C494 C 0.37499 0.92612 0.74828 0.0
C495 C 0.37471 0.92069 0.74474 0.0
C496 C 0.37105 0.93107 0.74701 0.0
C497 C 0.34859 0.95496 0.73583 0.0
C498 C 0.35454 0.96447 0.73626 0.0
C499 C 0.34426 0.96413 0.74062 0.0
C500 C 0.34375 0.95793 0.73894 0.0
C501 C 0.34961 0.96752 0.73919 0.0
C502 C 0.35404 0.95825 0.73461 0.0
C503 C 0.34762 0.94862 0.73351 0.0
O504 O 0.35237 0.93181 0.72596 0.0
O505 O 0.3465 0.92968 0.73392 0.0
O506 O 0.34597 0.94446 0.73761 0.0
O507 O 0.35162 0.94654 0.72946 0.0
H508 H 0.33992 0.93767 0.72487 0.0
H509 H 0.3312 0.93704 0.71772 0.0
H510 H 0.33487 0.91761 0.71506 0.0
H511 H 0.34366 0.91833 0.72213 0.0
H512 H 0.36999 0.91616 0.73716 0.0
H513 H 0.36308 0.92485 0.73497 0.0
H514 H 0.37833 0.9266 0.75196 0.0
H515 H 0.37138 0.93523 0.74977 0.0
H516 H 0.3587 0.96695 0.73504 0.0
H517 H 0.34042 0.96629 0.74297 0.0
H518 H 0.33951 0.95549 0.73993 0.0
H519 H 0.35786 0.95609 0.73221 0.0
C520 C 0.07325 0.34209 0.72416 0.0
C521 C 0.06803 0.33854 0.72275 0.0
C522 C 0.07411 0.33223 0.71571 0.0
C523 C 0.06845 0.33365 0.71856 0.0
C524 C 0.07935 0.33577 0.71722 0.0
C525 C 0.07892 0.34066 0.72141 0.0
U526 U 0.06358 0.35219 0.73461 0.0
O527 O 0.0657 0.35647 0.74358 0.0
O528 O 0.06327 0.36227 0.73565 0.0
C529 C 0.06531 0.3621 0.74135 0.0
C530 C 0.07277 0.34737 0.72838 0.0
C531 C 0.07061 0.36612 0.74265 0.0
C532 C 0.08108 0.36947 0.74049 0.0
C533 C 0.07612 0.36551 0.73932 0.0
C534 C 0.07509 0.37461 0.74841 0.0
C535 C 0.08062 0.37408 0.74503 0.0
C536 C 0.07013 0.37066 0.74722 0.0
C537 C 0.04638 0.34807 0.73623 0.0
C538 C 0.038 0.35489 0.73922 0.0
C539 C 0.03636 0.34384 0.73888 0.0
C540 C 0.04248 0.34299 0.73705 0.0
C541 C 0.03402 0.34981 0.73991 0.0
C542 C 0.04414 0.35403 0.73742 0.0
C543 C 0.05266 0.34703 0.73385 0.0
O544 O 0.06941 0.35197 0.72631 0.0
O545 O 0.0716 0.34598 0.73416 0.0
O546 O 0.05682 0.34537 0.73794 0.0
O547 O 0.0547 0.35111 0.72986 0.0
H548 H 0.0636 0.33961 0.72482 0.0
H549 H 0.06431 0.33109 0.71745 0.0
H550 H 0.08379 0.33474 0.71518 0.0
H551 H 0.08299 0.34334 0.72247 0.0
H552 H 0.08529 0.36889 0.73787 0.0
H553 H 0.07657 0.36199 0.7358 0.0
H554 H 0.07456 0.37816 0.75188 0.0
H555 H 0.0659 0.37119 0.74983 0.0
H556 H 0.03635 0.35954 0.74004 0.0
H557 H 0.0334 0.33983 0.73929 0.0
H558 H 0.04413 0.33836 0.73614 0.0
H559 H 0.0471 0.35802 0.73684 0.0
C560 C 0.65916 0.07279 0.72444 0.0
C561 C 0.66285 0.06754 0.72363 0.0
C562 C 0.66907 0.07298 0.71601 0.0
C563 C 0.66777 0.06764 0.71946 0.0
C564 C 0.6654 0.07827 0.71693 0.0
C565 C 0.66048 0.07816 0.7211 0.0
U566 U 0.6487 0.0636 0.73489 0.0
O567 O 0.64443 0.06587 0.74382 0.0
O568 O 0.63861 0.06353 0.73587 0.0
C569 C 0.6388 0.06558 0.74157 0.0
C570 C 0.65382 0.07258 0.72861 0.0
C571 C 0.63486 0.07094 0.74286 0.0
C572 C 0.63136 0.08132 0.74047 0.0
C573 C 0.63526 0.07632 0.73928 0.0
C574 C 0.62671 0.07566 0.74892 0.0
C575 C 0.62702 0.08104 0.7453 0.0
C576 C 0.63059 0.07066 0.7477 0.0
C577 C 0.65255 0.04624 0.73663 0.0
C578 C 0.64664 0.03669 0.73686 0.0
C579 C 0.65671 0.03712 0.74166 0.0
C580 C 0.65726 0.04331 0.73997 0.0
C581 C 0.65145 0.03369 0.74001 0.0
C582 C 0.64717 0.0429 0.73519 0.0
C583 C 0.65361 0.05255 0.73426 0.0
O584 O 0.64913 0.06935 0.72654 0.0
O585 O 0.65511 0.07146 0.73442 0.0
O586 O 0.65536 0.05671 0.73831 0.0
O587 O 0.64962 0.05467 0.73021 0.0
H588 H 0.66189 0.06335 0.72618 0.0
H589 H 0.67055 0.06352 0.71894 0.0
H590 H 0.66623 0.08243 0.7143 0.0
H591 H 0.65765 0.08224 0.72166 0.0
H592 H 0.63177 0.08542 0.73765 0.0
H593 H 0.63856 0.07662 0.73554 0.0
H594 H 0.62337 0.07527 0.75262 0.0
H595 H 0.63022 0.06654 0.75051 0.0
H596 H 0.64255 0.03418 0.73546 0.0
H597 H 0.66046 0.03498 0.74418 0.0
H598 H 0.66145 0.04577 0.74112 0.0
H599 H 0.64346 0.04502 0.73261 0.0
C600 C 0.92843 0.65922 0.72427 0.0
C601 C 0.93368 0.66274 0.72286 0.0
C602 C 0.92765 0.66905 0.71578 0.0
C603 C 0.9333 0.66761 0.71866 0.0
C604 C 0.92239 0.66554 0.71728 0.0
C605 C 0.92279 0.66067 0.72149 0.0
U606 U 0.93805 0.64912 0.73474 0.0
O607 O 0.93595 0.64492 0.74375 0.0
O608 O 0.93832 0.63905 0.73585 0.0
C609 C 0.9363 0.63927 0.74156 0.0
C610 C 0.92888 0.65396 0.72851 0.0
C611 C 0.931 0.63528 0.74292 0.0
C612 C 0.92057 0.6318 0.74072 0.0
C613 C 0.92554 0.63573 0.73948 0.0
C614 C 0.92644 0.62701 0.74894 0.0
C615 C 0.92097 0.62738 0.74546 0.0
C616 C 0.93141 0.63093 0.74768 0.0
C617 C 0.95534 0.65326 0.73627 0.0
C618 C 0.96486 0.64731 0.73677 0.0
C619 C 0.96452 0.65764 0.74101 0.0
C620 C 0.95832 0.65813 0.73932 0.0
C621 C 0.96791 0.65228 0.73963 0.0
C622 C 0.95864 0.6478 0.73511 0.0
C623 C 0.94901 0.65421 0.73393 0.0
O624 O 0.9322 0.64932 0.72647 0.0
O625 O 0.93007 0.65537 0.73429 0.0
O626 O 0.94486 0.65594 0.738 0.0
O627 O 0.94692 0.65014 0.72995 0.0
H628 H 0.93809 0.66166 0.72496 0.0
H629 H 0.93745 0.67016 0.71756 0.0
H630 H 0.91797 0.66658 0.71521 0.0
H631 H 0.91869 0.658 0.72254 0.0
H632 H 0.9164 0.63225 0.738 0.0
H633 H 0.92513 0.6391 0.73581 0.0
H634 H 0.92693 0.62361 0.75257 0.0
H635 H 0.93559 0.63052 0.75038 0.0
H636 H 0.96733 0.64314 0.73558 0.0
H637 H 0.96668 0.66151 0.74332 0.0
H638 H 0.95588 0.66239 0.74027 0.0
H639 H 0.95647 0.64396 0.73276 0.0
C640 C 0.27733 0.34232 0.07341 0.0
C641 C 0.27857 0.33867 0.06821 0.0
C642 C 0.28553 0.33225 0.07426 0.0
C643 C 0.28263 0.33368 0.06863 0.0
C644 C 0.28422 0.3359 0.07948 0.0
C645 C 0.28015 0.34089 0.07905 0.0
U646 U 0.26715 0.35251 0.06363 0.0
O647 O 0.25819 0.35689 0.06558 0.0
O648 O 0.26622 0.3626 0.06322 0.0
C649 C 0.26048 0.36249 0.06517 0.0
C650 C 0.27322 0.34768 0.07291 0.0
C651 C 0.25912 0.36658 0.07041 0.0
C652 C 0.2613 0.37022 0.08079 0.0
C653 C 0.26256 0.36622 0.07588 0.0
C654 C 0.25306 0.37489 0.07484 0.0
C655 C 0.25654 0.37461 0.08032 0.0
C656 C 0.25435 0.37091 0.06993 0.0
C657 C 0.26576 0.34805 0.04642 0.0
C658 C 0.26402 0.35445 0.03737 0.0
C659 C 0.26261 0.34338 0.03673 0.0
C660 C 0.26417 0.34283 0.04296 0.0
C661 C 0.26265 0.34919 0.03382 0.0
C662 C 0.26555 0.35389 0.04362 0.0
C663 C 0.26799 0.3472 0.05278 0.0
O664 O 0.27538 0.35223 0.06955 0.0
O665 O 0.26742 0.34638 0.07172 0.0
O666 O 0.26382 0.34563 0.05691 0.0
O667 O 0.27199 0.35128 0.05482 0.0
H668 H 0.27645 0.33973 0.06381 0.0
H669 H 0.2836 0.33102 0.06451 0.0
H670 H 0.28631 0.33488 0.0839 0.0
H671 H 0.27923 0.34366 0.0831 0.0
H672 H 0.26401 0.36983 0.08497 0.0
H673 H 0.26624 0.36287 0.07634 0.0
H674 H 0.24942 0.37827 0.0743 0.0
H675 H 0.25166 0.37125 0.06574 0.0
H676 H 0.26413 0.35898 0.03526 0.0
H677 H 0.26146 0.33925 0.03418 0.0
H678 H 0.26427 0.33829 0.04505 0.0
H679 H 0.26674 0.358 0.0462 0.0
C680 C 0.27747 0.65917 0.92778 0.0
C681 C 0.2787 0.66282 0.93297 0.0
C682 C 0.28565 0.66925 0.92692 0.0
C683 C 0.28275 0.66782 0.93255 0.0
C684 C 0.28434 0.6656 0.92171 0.0
C685 C 0.28028 0.66059 0.92214 0.0
U686 U 0.26732 0.64895 0.93757 0.0
O687 O 0.25838 0.64454 0.93563 0.0
O688 O 0.26642 0.63886 0.93798 0.0
C689 C 0.26068 0.63895 0.93603 0.0
C690 C 0.27336 0.6538 0.92828 0.0
C691 C 0.25933 0.63486 0.9308 0.0
C692 C 0.26155 0.63118 0.92044 0.0
C693 C 0.2628 0.63518 0.92534 0.0
C694 C 0.25325 0.62656 0.92635 0.0
C695 C 0.25676 0.62681 0.9209 0.0
C696 C 0.25454 0.63055 0.93126 0.0
C697 C 0.26594 0.6534 0.95478 0.0
C698 C 0.26427 0.64699 0.96385 0.0
C699 C 0.26279 0.65805 0.96447 0.0
C700 C 0.26432 0.65861 0.95824 0.0
C701 C 0.26287 0.65225 0.96739 0.0
C702 C 0.26578 0.64756 0.95759 0.0
C703 C 0.26816 0.65426 0.94841 0.0
O704 O 0.27554 0.64925 0.93164 0.0
O705 O 0.26756 0.65509 0.92948 0.0
O706 O 0.26398 0.65581 0.9443 0.0
O707 O 0.27217 0.6502 0.94637 0.0
H708 H 0.27658 0.66176 0.93738 0.0
H709 H 0.28372 0.67048 0.93667 0.0
H710 H 0.28644 0.66662 0.91729 0.0
H711 H 0.27937 0.65782 0.91809 0.0
H712 H 0.26428 0.63154 0.91627 0.0
H713 H 0.2665 0.63852 0.9249 0.0
H714 H 0.24959 0.62321 0.92688 0.0
H715 H 0.25181 0.63024 0.93544 0.0
H716 H 0.26441 0.64246 0.96595 0.0
H717 H 0.26161 0.66218 0.96703 0.0
H718 H 0.26439 0.66315 0.95615 0.0
H719 H 0.267 0.64345 0.955 0.0
C720 C 0.34172 0.27688 0.92843 0.0
C721 C 0.33783 0.27753 0.93357 0.0
C722 C 0.33168 0.28515 0.92806 0.0
C723 C 0.33285 0.28162 0.93338 0.0
C724 C 0.33552 0.28438 0.92288 0.0
C725 C 0.34051 0.28028 0.92307 0.0
U726 U 0.35245 0.26707 0.93799 0.0
O727 O 0.35722 0.25834 0.93603 0.0
O728 O 0.36259 0.26664 0.93823 0.0
C729 C 0.36272 0.26089 0.93632 0.0
C730 C 0.34721 0.27293 0.92879 0.0
C731 C 0.36687 0.25967 0.93108 0.0
C732 C 0.36871 0.25839 0.92009 0.0
C733 C 0.36465 0.25948 0.925 0.0
C734 C 0.37724 0.25777 0.92729 0.0
C735 C 0.37505 0.25755 0.92118 0.0
C736 C 0.37318 0.25881 0.93219 0.0
C737 C 0.34852 0.26561 0.95524 0.0
C738 C 0.35551 0.26201 0.96323 0.0
C739 C 0.3448 0.26407 0.96568 0.0
C740 C 0.34372 0.26573 0.95955 0.0
C741 C 0.35072 0.26225 0.96762 0.0
C742 C 0.35441 0.26366 0.95708 0.0
C743 C 0.34731 0.26778 0.94893 0.0
O744 O 0.35177 0.27525 0.93203 0.0
O745 O 0.34614 0.26709 0.93002 0.0
O746 O 0.34587 0.26351 0.94487 0.0
O747 O 0.35119 0.27192 0.94679 0.0
H748 H 0.33872 0.27495 0.93775 0.0
H749 H 0.32994 0.28203 0.93742 0.0
H750 H 0.33479 0.28708 0.91874 0.0
H751 H 0.34349 0.27986 0.91908 0.0
H752 H 0.3669 0.25831 0.91543 0.0
H753 H 0.3598 0.2602 0.92404 0.0
H754 H 0.38209 0.25708 0.92828 0.0
H755 H 0.37497 0.25896 0.93685 0.0
H756 H 0.36011 0.26057 0.96456 0.0
H757 H 0.34103 0.2644 0.96894 0.0
H758 H 0.33915 0.26724 0.95821 0.0
H759 H 0.35818 0.26351 0.95379 0.0
C760 C 0.72468 0.34214 0.92871 0.0
C761 C 0.72386 0.33836 0.9339 0.0
C762 C 0.71619 0.33228 0.92837 0.0
C763 C 0.71966 0.33347 0.93373 0.0
C764 C 0.71711 0.33603 0.92315 0.0
C765 C 0.72132 0.34093 0.92332 0.0
U766 U 0.73516 0.35235 0.9381 0.0
O767 O 0.74411 0.35664 0.93593 0.0
O768 O 0.73618 0.36243 0.93839 0.0
C769 C 0.74188 0.36226 0.93633 0.0
C770 C 0.72886 0.34746 0.929 0.0
C771 C 0.74317 0.36629 0.93103 0.0
C772 C 0.74085 0.36983 0.92065 0.0
C773 C 0.73965 0.36587 0.92561 0.0
C774 C 0.74914 0.37458 0.92645 0.0
C775 C 0.74559 0.37425 0.92102 0.0
C776 C 0.74793 0.37064 0.93141 0.0
C777 C 0.73678 0.34806 0.95534 0.0
C778 C 0.73845 0.35446 0.96441 0.0
C779 C 0.74011 0.34343 0.96498 0.0
C780 C 0.73852 0.34286 0.95877 0.0
C781 C 0.73996 0.34921 0.96792 0.0
C782 C 0.73688 0.35389 0.95817 0.0
C783 C 0.73446 0.34717 0.94901 0.0
O784 O 0.72682 0.35209 0.93233 0.0
O785 O 0.73468 0.34612 0.93009 0.0
O786 O 0.73854 0.34553 0.94484 0.0
O787 O 0.73046 0.35125 0.94699 0.0
H788 H 0.72642 0.33924 0.9381 0.0
H789 H 0.71913 0.33063 0.9378 0.0
H790 H 0.71446 0.33528 0.91898 0.0
H791 H 0.72188 0.34382 0.91929 0.0
H792 H 0.73808 0.36941 0.91651 0.0
H793 H 0.73598 0.36251 0.92523 0.0
H794 H 0.75278 0.37798 0.92691 0.0
H795 H 0.75068 0.37103 0.93557 0.0
H796 H 0.73825 0.35898 0.96653 0.0
H797 H 0.74137 0.33931 0.96752 0.0
H798 H 0.73849 0.33832 0.95667 0.0
H799 H 0.73557 0.35798 0.95561 0.0
C800 C 0.659 0.72499 0.92824 0.0
C801 C 0.66253 0.72368 0.9335 0.0
C802 C 0.66901 0.71671 0.92753 0.0
C803 C 0.66749 0.71958 0.93315 0.0
C804 C 0.66548 0.71809 0.92226 0.0
C805 C 0.66052 0.7222 0.92261 0.0
U806 U 0.64869 0.73521 0.93787 0.0
O807 O 0.6444 0.74419 0.93587 0.0
O808 O 0.6386 0.73619 0.93809 0.0
C809 C 0.63877 0.74195 0.93619 0.0
C810 C 0.65366 0.72914 0.92865 0.0
C811 C 0.63476 0.74338 0.93091 0.0
C812 C 0.63145 0.74154 0.92036 0.0
C813 C 0.6354 0.74022 0.9253 0.0
C814 C 0.62627 0.74925 0.92659 0.0
C815 C 0.62682 0.74606 0.92096 0.0
C816 C 0.6302 0.74791 0.93152 0.0
C817 C 0.65277 0.73658 0.95519 0.0
C818 C 0.64686 0.73683 0.96474 0.0
C819 C 0.65707 0.74135 0.96439 0.0
C820 C 0.65758 0.73973 0.95817 0.0
C821 C 0.65176 0.7398 0.96779 0.0
C822 C 0.64736 0.73524 0.9585 0.0
C823 C 0.65375 0.73432 0.94883 0.0
O824 O 0.64903 0.727 0.93192 0.0
O825 O 0.65498 0.73493 0.9299 0.0
O826 O 0.65546 0.73846 0.94473 0.0
O827 O 0.64973 0.73033 0.94668 0.0
H828 H 0.6614 0.72578 0.9379 0.0
H829 H 0.67005 0.71855 0.93732 0.0
H830 H 0.66657 0.71602 0.91784 0.0
H831 H 0.65784 0.72318 0.9185 0.0
H832 H 0.63204 0.73905 0.91607 0.0
H833 H 0.63893 0.73672 0.92475 0.0
H834 H 0.62271 0.75269 0.92723 0.0
H835 H 0.62965 0.75038 0.93583 0.0
H836 H 0.64273 0.73551 0.96722 0.0
H837 H 0.66089 0.74373 0.96656 0.0
H838 H 0.6618 0.74082 0.95572 0.0
H839 H 0.64357 0.73281 0.95634 0.0
C840 C 0.72471 0.65939 0.07385 0.0
C841 C 0.72352 0.6631 0.06869 0.0
C842 C 0.71662 0.66955 0.07478 0.0
C843 C 0.71952 0.66813 0.06914 0.0
C844 C 0.71791 0.66585 0.07997 0.0
C845 C 0.72192 0.66081 0.0795 0.0
U846 U 0.73455 0.64898 0.06395 0.0
O847 O 0.74331 0.64421 0.06577 0.0
O848 O 0.73503 0.63885 0.06344 0.0
C849 C 0.74078 0.6387 0.06536 0.0
C850 C 0.72866 0.65392 0.0733 0.0
C851 C 0.742 0.63447 0.07054 0.0
C852 C 0.74317 0.63247 0.08151 0.0
C853 C 0.74207 0.63659 0.07666 0.0
C854 C 0.74403 0.62408 0.07418 0.0
C855 C 0.74414 0.62616 0.08033 0.0
C856 C 0.74298 0.6282 0.06934 0.0
C857 C 0.73605 0.65358 0.04679 0.0
C858 C 0.7377 0.64719 0.03771 0.0
C859 C 0.7392 0.65825 0.0371 0.0
C860 C 0.73767 0.6588 0.04333 0.0
C861 C 0.7391 0.65245 0.03417 0.0
C862 C 0.73619 0.64775 0.04397 0.0
C863 C 0.73387 0.65445 0.05317 0.0
O864 O 0.72635 0.64947 0.0699 0.0
O865 O 0.7345 0.65504 0.07209 0.0
O866 O 0.73811 0.6558 0.05729 0.0
O867 O 0.72973 0.65049 0.05517 0.0
H868 H 0.72563 0.66204 0.06427 0.0
H869 H 0.71858 0.67082 0.06504 0.0
H870 H 0.71582 0.66686 0.08439 0.0
H871 H 0.72279 0.65799 0.08354 0.0
H872 H 0.74315 0.6342 0.0862 0.0
H873 H 0.74125 0.64141 0.07769 0.0
H874 H 0.74482 0.61926 0.07312 0.0
H875 H 0.74293 0.62649 0.06464 0.0
H876 H 0.73755 0.64266 0.0356 0.0
H877 H 0.74037 0.66238 0.03455 0.0
H878 H 0.73762 0.66334 0.04543 0.0
H879 H 0.73498 0.64365 0.04656 0.0
C880 C 0.34204 0.72454 0.07308 0.0
C881 C 0.3385 0.72319 0.06783 0.0
C882 C 0.332 0.7163 0.07389 0.0
C883 C 0.33352 0.71911 0.06823 0.0
C884 C 0.33553 0.71773 0.07914 0.0
C885 C 0.34052 0.72182 0.07874 0.0
U886 U 0.35246 0.73459 0.06337 0.0
O887 O 0.35686 0.74353 0.06533 0.0
O888 O 0.36256 0.73545 0.06316 0.0
C889 C 0.36246 0.74121 0.06506 0.0
C890 C 0.34741 0.72864 0.07262 0.0
C891 C 0.36643 0.74256 0.07039 0.0
C892 C 0.3696 0.74058 0.08096 0.0
C893 C 0.36567 0.73938 0.07597 0.0
C894 C 0.37501 0.74822 0.07484 0.0
C895 C 0.37433 0.745 0.08044 0.0
C896 C 0.37109 0.747 0.06986 0.0
C897 C 0.34857 0.73581 0.0461 0.0
C898 C 0.35549 0.73953 0.03809 0.0
C899 C 0.34482 0.73724 0.03565 0.0
C900 C 0.34377 0.73557 0.04178 0.0
C901 C 0.35071 0.73917 0.03371 0.0
C902 C 0.35442 0.73787 0.04425 0.0
C903 C 0.34741 0.73363 0.05241 0.0
O904 O 0.35203 0.72643 0.06938 0.0
O905 O 0.34614 0.73443 0.07131 0.0
O906 O 0.34579 0.73785 0.05644 0.0
O907 O 0.35142 0.72964 0.05459 0.0
H908 H 0.33964 0.72523 0.06342 0.0
H909 H 0.33095 0.71805 0.06408 0.0
H910 H 0.33444 0.71572 0.08358 0.0
H911 H 0.3432 0.72282 0.08283 0.0
H912 H 0.36891 0.73808 0.08522 0.0
H913 H 0.36207 0.73595 0.07647 0.0
H914 H 0.37865 0.75159 0.07426 0.0
H915 H 0.37174 0.74948 0.06557 0.0
H916 H 0.36005 0.74106 0.03676 0.0
H917 H 0.34106 0.73682 0.03238 0.0
H918 H 0.33923 0.73397 0.04313 0.0
H919 H 0.35818 0.73811 0.04754 0.0
C920 C 0.65981 0.27677 0.07275 0.0
C921 C 0.66368 0.27747 0.06761 0.0
C922 C 0.66977 0.28513 0.07313 0.0
C923 C 0.66862 0.2816 0.06781 0.0
C924 C 0.66592 0.28432 0.07831 0.0
C925 C 0.66098 0.28018 0.07811 0.0
U926 U 0.64931 0.26666 0.06324 0.0
O927 O 0.64476 0.25782 0.0653 0.0
O928 O 0.6392 0.26595 0.06296 0.0
C929 C 0.6392 0.26021 0.06491 0.0
C930 C 0.6544 0.2727 0.0724 0.0
C931 C 0.6351 0.25894 0.07016 0.0
C932 C 0.63203 0.26062 0.08081 0.0
C933 C 0.63611 0.26171 0.07592 0.0
C934 C 0.62595 0.25393 0.07423 0.0
C935 C 0.62687 0.25675 0.08001 0.0
C936 C 0.63002 0.25503 0.06935 0.0
C937 C 0.65321 0.26515 0.04601 0.0
C938 C 0.64621 0.26143 0.03808 0.0
C939 C 0.65689 0.26357 0.03556 0.0
C940 C 0.65799 0.26529 0.04167 0.0
C941 C 0.65097 0.26169 0.03366 0.0
C942 C 0.64733 0.26314 0.04421 0.0
C943 C 0.65441 0.26741 0.05228 0.0
O944 O 0.64979 0.2749 0.06913 0.0
O945 O 0.65559 0.26688 0.07121 0.0
O946 O 0.65596 0.26321 0.05637 0.0
O947 O 0.65046 0.27148 0.05441 0.0
H948 H 0.66283 0.27487 0.06342 0.0
H949 H 0.67154 0.28205 0.06377 0.0
H950 H 0.66663 0.28702 0.08246 0.0
H951 H 0.658 0.27971 0.0821 0.0
H952 H 0.63285 0.26291 0.08517 0.0
H953 H 0.64001 0.26476 0.07661 0.0
H954 H 0.62208 0.25086 0.07348 0.0
H955 H 0.62919 0.25284 0.06493 0.0
H956 H 0.64162 0.25994 0.03678 0.0
H957 H 0.66064 0.26391 0.03227 0.0
H958 H 0.66255 0.26686 0.04298 0.0
H959 H 0.64358 0.26298 0.04752 0.0
C960 C 0.92859 0.72436 0.65862 0.0
C961 C 0.93382 0.72296 0.66215 0.0
C962 C 0.92778 0.71594 0.66851 0.0
C963 C 0.93343 0.71879 0.66705 0.0
C964 C 0.92252 0.71742 0.66498 0.0
C965 C 0.92293 0.7216 0.66008 0.0
U966 U 0.93823 0.73476 0.64846 0.0
O967 O 0.93849 0.73582 0.63838 0.0
O968 O 0.93615 0.74375 0.64423 0.0
C969 C 0.9365 0.74155 0.63859 0.0
C970 C 0.92904 0.72857 0.65333 0.0
C971 C 0.9312 0.74291 0.63459 0.0
C972 C 0.92079 0.7407 0.63105 0.0
C973 C 0.92575 0.73943 0.63499 0.0
C974 C 0.92663 0.74901 0.62638 0.0
C975 C 0.92118 0.74549 0.62669 0.0
C976 C 0.9316 0.74772 0.63029 0.0
C977 C 0.95552 0.73629 0.65258 0.0
C978 C 0.96506 0.7367 0.64666 0.0
C979 C 0.96466 0.74117 0.65689 0.0
C980 C 0.95847 0.73946 0.65739 0.0
C981 C 0.96808 0.73969 0.65157 0.0
C982 C 0.95885 0.73502 0.64716 0.0
C983 C 0.94919 0.73396 0.65355 0.0
O984 O 0.93025 0.73435 0.65472 0.0
O985 O 0.93236 0.72649 0.6487 0.0
O986 O 0.94709 0.72996 0.6495 0.0
O987 O 0.94504 0.73803 0.65527 0.0
H988 H 0.93824 0.72505 0.66107 0.0
H989 H 0.93757 0.7177 0.66961 0.0
H990 H 0.91809 0.71537 0.66603 0.0
H991 H 0.91884 0.72264 0.6574 0.0
H992 H 0.91663 0.73796 0.63146 0.0
H993 H 0.92535 0.73573 0.63832 0.0
H994 H 0.92711 0.75268 0.62302 0.0
H995 H 0.93577 0.75045 0.62993 0.0
H996 H 0.96755 0.73544 0.64252 0.0
H997 H 0.9668 0.74357 0.66071 0.0
H998 H 0.95601 0.7405 0.66162 0.0
H999 H 0.95671 0.73258 0.64336 0.0
C1000 C 0.27695 0.92868 0.65889 0.0
C1001 C 0.27825 0.93384 0.66256 0.0
C1002 C 0.28512 0.92767 0.66896 0.0
C1003 C 0.2823 0.93335 0.66756 0.0
C1004 C 0.28373 0.92249 0.66529 0.0
C1005 C 0.27968 0.923 0.6603 0.0
U1006 U 0.26702 0.93865 0.64861 0.0
O1007 O 0.26627 0.93912 0.63851 0.0
O1008 O 0.25812 0.93684 0.64407 0.0
C1009 C 0.26049 0.93728 0.6385 0.0
C1010 C 0.27288 0.92926 0.6535 0.0
C1011 C 0.25911 0.93214 0.63431 0.0
C1012 C 0.26071 0.92157 0.63093 0.0
C1013 C 0.26191 0.92636 0.6351 0.0
C1014 C 0.25384 0.92829 0.62522 0.0
C1015 C 0.2567 0.9225 0.62591 0.0
C1016 C 0.25504 0.93306 0.62938 0.0
C1017 C 0.26581 0.95582 0.65282 0.0
C1018 C 0.26202 0.96386 0.64598 0.0
C1019 C 0.26443 0.96625 0.65664 0.0
C1020 C 0.2661 0.96011 0.65764 0.0
C1021 C 0.26243 0.96822 0.65078 0.0
C1022 C 0.26369 0.9577 0.647 0.0
C1023 C 0.26798 0.94949 0.65392 0.0
O1024 O 0.26709 0.93056 0.65474 0.0
O1025 O 0.27515 0.93259 0.64897 0.0
O1026 O 0.272 0.94737 0.64991 0.0
O1027 O 0.26372 0.94544 0.65541 0.0
H1028 H 0.27619 0.93828 0.66151 0.0
H1029 H 0.28332 0.93744 0.67022 0.0
H1030 H 0.28577 0.91804 0.6663 0.0
H1031 H 0.27871 0.91896 0.65751 0.0
H1032 H 0.26304 0.9172 0.63156 0.0
H1033 H 0.26507 0.92557 0.63889 0.0
H1034 H 0.25066 0.92914 0.62146 0.0
H1035 H 0.25283 0.9375 0.62873 0.0
H1036 H 0.26044 0.96522 0.64144 0.0
H1037 H 0.26488 0.96949 0.66041 0.0
H1038 H 0.26775 0.95873 0.66215 0.0
H1039 H 0.26341 0.95443 0.64323 0.0
C1040 C 0.07319 0.27694 0.65858 0.0
C1041 C 0.06799 0.27835 0.66216 0.0
C1042 C 0.07414 0.28529 0.66851 0.0
C1043 C 0.06846 0.28249 0.66709 0.0
C1044 C 0.07935 0.28379 0.66494 0.0
C1045 C 0.07887 0.27965 0.66001 0.0
U1046 U 0.06324 0.26692 0.64838 0.0
O1047 O 0.06284 0.26599 0.6383 0.0
O1048 O 0.06501 0.25792 0.64402 0.0
C1049 C 0.06463 0.26019 0.63841 0.0
C1050 C 0.07263 0.27279 0.65325 0.0
C1051 C 0.06979 0.25867 0.63428 0.0
C1052 C 0.08027 0.26035 0.63068 0.0
C1053 C 0.07548 0.26171 0.63479 0.0
C1054 C 0.07374 0.25283 0.62559 0.0
C1055 C 0.07944 0.25593 0.62599 0.0
C1056 C 0.06896 0.2542 0.62969 0.0
C1057 C 0.04603 0.26592 0.65249 0.0
C1058 C 0.03796 0.26218 0.64567 0.0
C1059 C 0.03559 0.26459 0.65632 0.0
C1060 C 0.04174 0.26624 0.65731 0.0
C1061 C 0.03361 0.2626 0.65047 0.0
C1062 C 0.04413 0.26381 0.64667 0.0
C1063 C 0.05236 0.26806 0.65359 0.0
O1064 O 0.07128 0.26703 0.65458 0.0
O1065 O 0.06937 0.275 0.64865 0.0
O1066 O 0.05455 0.27199 0.64952 0.0
O1067 O 0.05637 0.2638 0.65519 0.0
H1068 H 0.06355 0.27632 0.66109 0.0
H1069 H 0.06433 0.2836 0.66968 0.0
H1070 H 0.08381 0.2858 0.66596 0.0
H1071 H 0.08293 0.2786 0.65729 0.0
H1072 H 0.08457 0.26286 0.63109 0.0
H1073 H 0.07619 0.26517 0.63832 0.0
H1074 H 0.07298 0.24933 0.62211 0.0
H1075 H 0.0646 0.2518 0.62926 0.0
H1076 H 0.03659 0.2606 0.64113 0.0
H1077 H 0.03235 0.26506 0.6601 0.0
H1078 H 0.04313 0.26788 0.66183 0.0
H1079 H 0.04739 0.26351 0.6429 0.0
C1080 C 0.72462 0.0724 0.65903 0.0
C1081 C 0.72379 0.06717 0.66276 0.0
C1082 C 0.71622 0.07269 0.66896 0.0
C1083 C 0.71964 0.06732 0.66769 0.0
C1084 C 0.71714 0.07794 0.66525 0.0
C1085 C 0.7213 0.07779 0.66032 0.0
U1086 U 0.73504 0.06314 0.64859 0.0
O1087 O 0.73592 0.06299 0.63849 0.0
O1088 O 0.74392 0.06543 0.64421 0.0
C1089 C 0.74162 0.06508 0.63861 0.0
C1090 C 0.72875 0.07214 0.65367 0.0
C1091 C 0.74282 0.07043 0.63462 0.0
C1092 C 0.74046 0.08087 0.63129 0.0
C1093 C 0.73937 0.07587 0.63522 0.0
C1094 C 0.74853 0.07506 0.62617 0.0
C1095 C 0.74504 0.08051 0.6267 0.0
C1096 C 0.74742 0.07006 0.6301 0.0
C1097 C 0.73691 0.04587 0.65246 0.0
C1098 C 0.73901 0.03722 0.64563 0.0
C1099 C 0.74033 0.03607 0.65667 0.0
C1100 C 0.73855 0.04221 0.65752 0.0
C1101 C 0.74049 0.03348 0.65073 0.0
C1102 C 0.73726 0.04338 0.64649 0.0
C1103 C 0.7345 0.05213 0.65359 0.0
O1104 O 0.73458 0.07105 0.65493 0.0
O1105 O 0.72667 0.06885 0.64902 0.0
O1106 O 0.73041 0.0542 0.64961 0.0
O1107 O 0.73857 0.05631 0.65525 0.0
H1108 H 0.72632 0.06297 0.66182 0.0
H1109 H 0.7191 0.06322 0.6705 0.0
H1110 H 0.71453 0.08213 0.66606 0.0
H1111 H 0.72187 0.08185 0.65746 0.0
H1112 H 0.73775 0.08502 0.63186 0.0
H1113 H 0.73581 0.07623 0.63872 0.0
H1114 H 0.75204 0.07461 0.62265 0.0
H1115 H 0.75012 0.06589 0.62957 0.0
H1116 H 0.73915 0.03537 0.64099 0.0
H1117 H 0.74137 0.0333 0.6607 0.0
H1118 H 0.73829 0.04404 0.66217 0.0
H1119 H 0.73605 0.04614 0.6425 0.0
C1120 C 0.92842 0.27702 0.34263 0.0
C1121 C 0.93356 0.27764 0.33874 0.0
C1122 C 0.92807 0.28526 0.33257 0.0
C1123 C 0.93338 0.28172 0.33375 0.0
C1124 C 0.9229 0.28453 0.33642 0.0
C1125 C 0.92308 0.28044 0.34142 0.0
U1126 U 0.93795 0.26709 0.35326 0.0
O1127 O 0.9382 0.26652 0.36339 0.0
O1128 O 0.936 0.25829 0.35791 0.0
C1129 C 0.93633 0.26076 0.36345 0.0
C1130 C 0.92876 0.27304 0.3481 0.0
C1131 C 0.93114 0.25942 0.36761 0.0
C1132 C 0.92014 0.25843 0.3696 0.0
C1133 C 0.925 0.25976 0.36556 0.0
C1134 C 0.9275 0.2565 0.37779 0.0
C1135 C 0.92133 0.25676 0.37576 0.0
C1136 C 0.93235 0.25781 0.37374 0.0
C1137 C 0.95524 0.26547 0.34913 0.0
C1138 C 0.96478 0.26528 0.35505 0.0
C1139 C 0.96441 0.26055 0.34494 0.0
C1140 C 0.9582 0.2622 0.34439 0.0
C1141 C 0.96781 0.26219 0.35022 0.0
C1142 C 0.95855 0.2669 0.35452 0.0
C1143 C 0.94889 0.26773 0.3481 0.0
O1144 O 0.92995 0.26719 0.347 0.0
O1145 O 0.93204 0.27531 0.35266 0.0
O1146 O 0.94678 0.27188 0.35199 0.0
O1147 O 0.94475 0.26356 0.34657 0.0
H1148 H 0.93773 0.27503 0.33962 0.0
H1149 H 0.93742 0.2821 0.33082 0.0
H1150 H 0.91876 0.28724 0.33569 0.0
H1151 H 0.91909 0.28004 0.3444 0.0
H1152 H 0.91546 0.25861 0.36786 0.0
H1153 H 0.92398 0.26103 0.36083 0.0
H1154 H 0.92859 0.25536 0.38253 0.0
H1155 H 0.93705 0.25757 0.37542 0.0
H1156 H 0.96727 0.26666 0.35916 0.0
H1157 H 0.96656 0.25808 0.34117 0.0
H1158 H 0.95575 0.26105 0.34019 0.0
H1159 H 0.9564 0.26942 0.35826 0.0
C1160 C 0.72483 0.92869 0.34261 0.0
C1161 C 0.72417 0.93383 0.33872 0.0
C1162 C 0.71655 0.92831 0.33258 0.0
C1163 C 0.72008 0.93363 0.33375 0.0
C1164 C 0.71732 0.92314 0.33644 0.0
C1165 C 0.72142 0.92334 0.34142 0.0
U1166 U 0.73498 0.93815 0.35312 0.0
O1167 O 0.73563 0.93848 0.36323 0.0
O1168 O 0.74377 0.93601 0.35774 0.0
C1169 C 0.74134 0.93646 0.36328 0.0
C1170 C 0.72886 0.92903 0.34805 0.0
C1171 C 0.74252 0.93122 0.36742 0.0
C1172 C 0.74068 0.92062 0.37054 0.0
C1173 C 0.73965 0.9255 0.36645 0.0
C1174 C 0.74751 0.92711 0.37656 0.0
C1175 C 0.74459 0.92138 0.37568 0.0
C1176 C 0.74647 0.93199 0.37247 0.0
C1177 C 0.73679 0.95537 0.34905 0.0
C1178 C 0.73884 0.96404 0.35587 0.0
C1179 C 0.74007 0.96521 0.34482 0.0
C1180 C 0.73835 0.95906 0.34397 0.0
C1181 C 0.74024 0.9678 0.35076 0.0
C1182 C 0.73715 0.95786 0.35502 0.0
C1183 C 0.73446 0.94908 0.34794 0.0
O1184 O 0.73471 0.93014 0.34689 0.0
O1185 O 0.72666 0.93237 0.35261 0.0
O1186 O 0.7303 0.94704 0.35185 0.0
O1187 O 0.7386 0.94491 0.34643 0.0
H1188 H 0.72677 0.93801 0.33959 0.0
H1189 H 0.71966 0.93766 0.33082 0.0
H1190 H 0.71462 0.91899 0.33571 0.0
H1191 H 0.72186 0.91935 0.3444 0.0
H1192 H 0.73831 0.91629 0.36976 0.0
H1193 H 0.73657 0.92484 0.36257 0.0
H1194 H 0.75062 0.92783 0.3804 0.0
H1195 H 0.74874 0.93637 0.37326 0.0
H1196 H 0.739 0.96588 0.36051 0.0
H1197 H 0.74104 0.968 0.34079 0.0
H1198 H 0.73808 0.95722 0.33933 0.0
H1199 H 0.73601 0.95508 0.35901 0.0
C1200 C 0.07276 0.72473 0.34251 0.0
C1201 C 0.06755 0.72396 0.33874 0.0
C1202 C 0.07305 0.71637 0.33255 0.0
C1203 C 0.0677 0.71982 0.3338 0.0
C1204 C 0.07829 0.71724 0.33629 0.0
C1205 C 0.07813 0.72139 0.34124 0.0
U1206 U 0.06346 0.73513 0.35293 0.0
O1207 O 0.06325 0.73599 0.36303 0.0
O1208 O 0.06572 0.744 0.35733 0.0
C1209 C 0.06534 0.74169 0.36293 0.0
C1210 C 0.07249 0.72885 0.34789 0.0
C1211 C 0.07067 0.74288 0.36694 0.0
C1212 C 0.08112 0.74053 0.37027 0.0
C1213 C 0.07613 0.73945 0.36632 0.0
C1214 C 0.07528 0.74855 0.37543 0.0
C1215 C 0.08074 0.74508 0.37489 0.0
C1216 C 0.07029 0.74745 0.37149 0.0
C1217 C 0.04623 0.73696 0.34892 0.0
C1218 C 0.03781 0.73976 0.35578 0.0
C1219 C 0.03622 0.73971 0.34471 0.0
C1220 C 0.04234 0.73791 0.34384 0.0
C1221 C 0.03385 0.74057 0.35069 0.0
C1222 C 0.04396 0.73798 0.3549 0.0
C1223 C 0.05249 0.73457 0.34784 0.0
O1224 O 0.07141 0.73469 0.34663 0.0
O1225 O 0.06918 0.72676 0.35251 0.0
O1226 O 0.05452 0.7305 0.35185 0.0
O1227 O 0.05667 0.73865 0.34622 0.0
H1228 H 0.06335 0.72652 0.33967 0.0
H1229 H 0.06362 0.71933 0.33096 0.0
H1230 H 0.08246 0.71461 0.3355 0.0
H1231 H 0.08218 0.72191 0.34413 0.0
H1232 H 0.08528 0.73783 0.36969 0.0
H1233 H 0.07651 0.73592 0.3628 0.0
H1234 H 0.07481 0.75203 0.37898 0.0
H1235 H 0.06611 0.75013 0.37203 0.0
H1236 H 0.03613 0.74045 0.36044 0.0
H1237 H 0.03328 0.74022 0.3407 0.0
H1238 H 0.04401 0.73713 0.33919 0.0
H1239 H 0.0469 0.7373 0.35888 0.0
C1240 C 0.27682 0.07324 0.34265 0.0
C1241 C 0.27803 0.06807 0.33895 0.0
C1242 C 0.28488 0.0742 0.33248 0.0
C1243 C 0.28202 0.06855 0.33391 0.0
C1244 C 0.28357 0.07938 0.33618 0.0
C1245 C 0.27958 0.0789 0.34122 0.0
U1246 U 0.26688 0.06336 0.35303 0.0
O1247 O 0.26627 0.06287 0.36314 0.0
O1248 O 0.25808 0.06529 0.35771 0.0
C1249 C 0.26053 0.0648 0.36324 0.0
C1250 C 0.27282 0.07268 0.3481 0.0
C1251 C 0.25929 0.06996 0.36746 0.0
C1252 C 0.26088 0.08059 0.37065 0.0
C1253 C 0.26196 0.07577 0.36648 0.0
C1254 C 0.2544 0.07383 0.37676 0.0
C1255 C 0.25713 0.07966 0.37586 0.0
C1256 C 0.25548 0.06903 0.37259 0.0
C1257 C 0.26529 0.0462 0.34871 0.0
C1258 C 0.26318 0.03748 0.35545 0.0
C1259 C 0.26216 0.03635 0.34438 0.0
C1260 C 0.26385 0.04252 0.34359 0.0
C1261 C 0.2619 0.03373 0.35031 0.0
C1262 C 0.26484 0.04367 0.35466 0.0
C1263 C 0.26754 0.05253 0.34767 0.0
O1264 O 0.26699 0.07148 0.34693 0.0
O1265 O 0.2751 0.06928 0.35258 0.0
O1266 O 0.27169 0.05456 0.3516 0.0
O1267 O 0.26334 0.05666 0.34624 0.0
H1268 H 0.27595 0.06365 0.34002 0.0
H1269 H 0.28298 0.06445 0.33122 0.0
H1270 H 0.28563 0.08382 0.33516 0.0
H1271 H 0.27868 0.08293 0.34404 0.0
H1272 H 0.2631 0.08499 0.36986 0.0
H1273 H 0.26493 0.07656 0.36253 0.0
H1274 H 0.25141 0.07298 0.38067 0.0
H1275 H 0.25337 0.06457 0.3734 0.0
H1276 H 0.26295 0.03561 0.36008 0.0
H1277 H 0.26128 0.03358 0.34032 0.0
H1278 H 0.26419 0.04438 0.33896 0.0
H1279 H 0.26588 0.04645 0.35868 0.0
C1280 C 0.65905 0.92827 0.72446 0.0
C1281 C 0.66286 0.93344 0.72366 0.0
C1282 C 0.66893 0.92789 0.716 0.0
C1283 C 0.66776 0.93325 0.71948 0.0
C1284 C 0.66514 0.92269 0.7169 0.0
C1285 C 0.66024 0.92289 0.72109 0.0
U1286 U 0.6487 0.93769 0.73482 0.0
O1287 O 0.63862 0.93786 0.7358 0.0
O1288 O 0.64442 0.93557 0.74378 0.0
C1289 C 0.6388 0.9359 0.74154 0.0
C1290 C 0.65372 0.92858 0.72863 0.0
C1291 C 0.63478 0.93062 0.74294 0.0
C1292 C 0.63142 0.9201 0.741 0.0
C1293 C 0.63538 0.92504 0.73971 0.0
C1294 C 0.62631 0.92626 0.7488 0.0
C1295 C 0.62683 0.92066 0.74555 0.0
C1296 C 0.63025 0.93119 0.7475 0.0
C1297 C 0.65267 0.95502 0.73638 0.0
C1298 C 0.64674 0.96456 0.73665 0.0
C1299 C 0.65685 0.96416 0.74137 0.0
C1300 C 0.6574 0.95797 0.73967 0.0
C1301 C 0.65157 0.96757 0.73976 0.0
C1302 C 0.64728 0.95834 0.73498 0.0
C1303 C 0.6537 0.94869 0.73405 0.0
O1304 O 0.65503 0.92976 0.73443 0.0
O1305 O 0.64906 0.93184 0.72654 0.0
O1306 O 0.64969 0.94656 0.73003 0.0
O1307 O 0.65543 0.94456 0.73814 0.0
H1308 H 0.662 0.93764 0.72623 0.0
H1309 H 0.67064 0.9373 0.71897 0.0
H1310 H 0.66587 0.91852 0.71425 0.0
H1311 H 0.65731 0.91887 0.72164 0.0
H1312 H 0.63199 0.91584 0.73846 0.0
H1313 H 0.63889 0.92452 0.73618 0.0
H1314 H 0.62277 0.92687 0.75228 0.0
H1315 H 0.62972 0.93547 0.75002 0.0
H1316 H 0.64263 0.96705 0.73528 0.0
H1317 H 0.66062 0.9663 0.74386 0.0
H1318 H 0.66161 0.95551 0.74081 0.0
H1319 H 0.64354 0.95621 0.73244 0.0
C1320 C 0.07349 0.65917 0.72436 0.0
C1321 C 0.06832 0.6629 0.72329 0.0
C1322 C 0.07426 0.66926 0.71617 0.0
C1323 C 0.06869 0.6679 0.71923 0.0
C1324 C 0.07945 0.66553 0.71732 0.0
C1325 C 0.07907 0.66052 0.72138 0.0
U1326 U 0.06385 0.64886 0.73458 0.0
O1327 O 0.06351 0.63876 0.73542 0.0
O1328 O 0.06594 0.64441 0.74347 0.0
C1329 C 0.06553 0.63882 0.74114 0.0
C1330 C 0.07304 0.65379 0.72845 0.0
C1331 C 0.07081 0.63476 0.74239 0.0
C1332 C 0.08126 0.63135 0.74018 0.0
C1333 C 0.07631 0.63534 0.73903 0.0
C1334 C 0.07527 0.62623 0.74811 0.0
C1335 C 0.08078 0.62673 0.74472 0.0
C1336 C 0.07033 0.6302 0.74695 0.0
C1337 C 0.04661 0.65313 0.73628 0.0
C1338 C 0.03708 0.64721 0.73675 0.0
C1339 C 0.03744 0.65752 0.74102 0.0
C1340 C 0.04364 0.658 0.73934 0.0
C1341 C 0.03404 0.65217 0.73963 0.0
C1342 C 0.0433 0.64768 0.7351 0.0
C1343 C 0.05294 0.65407 0.73394 0.0
O1344 O 0.07189 0.65505 0.73427 0.0
O1345 O 0.06967 0.64924 0.72629 0.0
O1346 O 0.05498 0.65008 0.72985 0.0
O1347 O 0.05712 0.65566 0.73805 0.0
H1348 H 0.06396 0.6619 0.72553 0.0
H1349 H 0.06459 0.67063 0.7184 0.0
H1350 H 0.08382 0.66648 0.71509 0.0
H1351 H 0.08311 0.65769 0.72217 0.0
H1352 H 0.08546 0.63191 0.73754 0.0
H1353 H 0.07677 0.63886 0.73551 0.0
H1354 H 0.07473 0.62268 0.75158 0.0
H1355 H 0.0661 0.62969 0.74957 0.0
H1356 H 0.03459 0.64304 0.73556 0.0
H1357 H 0.03528 0.66139 0.74333 0.0
H1358 H 0.04609 0.66225 0.7403 0.0
H1359 H 0.04546 0.64384 0.73274 0.0
C1360 C 0.34273 0.07306 0.7245 0.0
C1361 C 0.33894 0.06788 0.72365 0.0
C1362 C 0.33284 0.07349 0.71606 0.0
C1363 C 0.33403 0.0681 0.71947 0.0
C1364 C 0.3366 0.0787 0.71701 0.0
C1365 C 0.34152 0.07847 0.72119 0.0
U1366 U 0.353 0.06352 0.7348 0.0
O1367 O 0.36308 0.06317 0.73572 0.0
O1368 O 0.35737 0.06557 0.74373 0.0
C1369 C 0.36298 0.06512 0.74146 0.0
C1370 C 0.34808 0.07271 0.72864 0.0
C1371 C 0.36713 0.07029 0.74286 0.0
C1372 C 0.37082 0.0807 0.74091 0.0
C1373 C 0.36668 0.0759 0.73965 0.0
C1374 C 0.37581 0.07435 0.74864 0.0
C1375 C 0.37547 0.07996 0.74539 0.0
C1376 C 0.37168 0.06956 0.74738 0.0
C1377 C 0.34876 0.04626 0.73633 0.0
C1378 C 0.35468 0.03672 0.73671 0.0
C1379 C 0.34439 0.03706 0.74103 0.0
C1380 C 0.34391 0.04328 0.7394 0.0
C1381 C 0.34973 0.03366 0.73959 0.0
C1382 C 0.35421 0.04295 0.7351 0.0
C1383 C 0.34782 0.05261 0.73404 0.0
O1384 O 0.34679 0.07155 0.73445 0.0
O1385 O 0.3527 0.06939 0.72653 0.0
O1386 O 0.35183 0.05469 0.72999 0.0
O1387 O 0.34619 0.05675 0.73815 0.0
H1388 H 0.33982 0.06365 0.72617 0.0
H1389 H 0.33118 0.06403 0.71892 0.0
H1390 H 0.33585 0.08289 0.7144 0.0
H1391 H 0.34443 0.0825 0.72177 0.0
H1392 H 0.37045 0.08493 0.73828 0.0
H1393 H 0.36318 0.07653 0.73614 0.0
H1394 H 0.37926 0.07366 0.75219 0.0
H1395 H 0.37207 0.06527 0.74991 0.0
H1396 H 0.35884 0.03424 0.73547 0.0
H1397 H 0.34053 0.03489 0.74335 0.0
H1398 H 0.33966 0.04572 0.74039 0.0
H1399 H 0.35804 0.04512 0.73274 0.0
C1400 C 0.92902 0.34204 0.72478 0.0
C1401 C 0.93413 0.33816 0.72403 0.0
C1402 C 0.92852 0.33211 0.7164 0.0
C1403 C 0.93389 0.33323 0.71988 0.0
C1404 C 0.92337 0.33597 0.71726 0.0
C1405 C 0.92362 0.3409 0.72142 0.0
U1406 U 0.93857 0.35235 0.73505 0.0
O1407 O 0.93896 0.36245 0.73584 0.0
O1408 O 0.93647 0.35686 0.7439 0.0
C1409 C 0.93694 0.36243 0.74156 0.0
C1410 C 0.9294 0.34743 0.72888 0.0
C1411 C 0.93172 0.36657 0.74278 0.0
C1412 C 0.92108 0.36966 0.74107 0.0
C1413 C 0.92596 0.36557 0.74 0.0
C1414 C 0.92766 0.37574 0.74776 0.0
C1415 C 0.92188 0.37482 0.74493 0.0
C1416 C 0.93253 0.37165 0.74669 0.0
C1417 C 0.95574 0.34814 0.73677 0.0
C1418 C 0.96416 0.35497 0.73965 0.0
C1419 C 0.96578 0.34391 0.73938 0.0
C1420 C 0.95965 0.34306 0.7376 0.0
C1421 C 0.96814 0.34988 0.74034 0.0
C1422 C 0.958 0.3541 0.7379 0.0
C1423 C 0.94946 0.34709 0.73443 0.0
O1424 O 0.93052 0.34618 0.73471 0.0
O1425 O 0.93277 0.35199 0.72674 0.0
O1426 O 0.94745 0.3511 0.73034 0.0
O1427 O 0.94529 0.34556 0.73856 0.0
H1428 H 0.93834 0.33898 0.72659 0.0
H1429 H 0.93791 0.3303 0.71939 0.0
H1430 H 0.91919 0.33528 0.7146 0.0
H1431 H 0.91964 0.34389 0.72193 0.0
H1432 H 0.91672 0.36885 0.73876 0.0
H1433 H 0.92527 0.36167 0.73695 0.0
H1434 H 0.9284 0.3796 0.75084 0.0
H1435 H 0.93694 0.37247 0.74889 0.0
H1436 H 0.96583 0.35961 0.74042 0.0
H1437 H 0.96873 0.3399 0.73979 0.0
H1438 H 0.95798 0.33842 0.73674 0.0
H1439 H 0.95505 0.35809 0.73732 0.0
C1440 C 0.65908 0.07323 0.2772 0.0
C1441 C 0.66271 0.06802 0.27847 0.0
C1442 C 0.66911 0.07407 0.28546 0.0
C1443 C 0.66768 0.06844 0.28255 0.0
C1444 C 0.66548 0.07929 0.28412 0.0
C1445 C 0.66051 0.07887 0.28002 0.0
U1446 U 0.64885 0.06358 0.26689 0.0
O1447 O 0.63876 0.06325 0.26598 0.0
O1448 O 0.64446 0.06568 0.25798 0.0
C1449 C 0.63886 0.06528 0.26027 0.0
C1450 C 0.65374 0.07276 0.27307 0.0
C1451 C 0.63482 0.07057 0.259 0.0
C1452 C 0.63149 0.08106 0.26117 0.0
C1453 C 0.63546 0.0761 0.26231 0.0
C1454 C 0.62626 0.07504 0.25333 0.0
C1455 C 0.62683 0.08058 0.25667 0.0
C1456 C 0.63022 0.07008 0.25449 0.0
C1457 C 0.6531 0.04633 0.26521 0.0
C1458 C 0.6472 0.03678 0.26473 0.0
C1459 C 0.65749 0.03719 0.2604 0.0
C1460 C 0.65796 0.04339 0.2621 0.0
C1461 C 0.65216 0.03377 0.26181 0.0
C1462 C 0.64766 0.043 0.26641 0.0
C1463 C 0.65404 0.05266 0.26756 0.0
O1464 O 0.65504 0.07161 0.26726 0.0
O1465 O 0.64917 0.06939 0.2752 0.0
O1466 O 0.65002 0.0547 0.27162 0.0
O1467 O 0.65566 0.05684 0.26348 0.0
H1468 H 0.66165 0.06363 0.27634 0.0
H1469 H 0.67032 0.06431 0.28354 0.0
H1470 H 0.6665 0.08371 0.28621 0.0
H1471 H 0.65776 0.08293 0.27909 0.0
H1472 H 0.6321 0.08528 0.26377 0.0
H1473 H 0.63902 0.07656 0.2658 0.0
H1474 H 0.62268 0.07449 0.24989 0.0
H1475 H 0.62966 0.06584 0.2519 0.0
H1476 H 0.64305 0.03428 0.26594 0.0
H1477 H 0.66135 0.03506 0.25805 0.0
H1478 H 0.6622 0.04585 0.26113 0.0
H1479 H 0.64383 0.04514 0.26879 0.0
C1480 C 0.92869 0.65909 0.27679 0.0
C1481 C 0.93394 0.66258 0.27824 0.0
C1482 C 0.92786 0.66896 0.28523 0.0
C1483 C 0.93353 0.66748 0.28242 0.0
C1484 C 0.9226 0.66547 0.28369 0.0
C1485 C 0.92302 0.66057 0.27951 0.0
U1486 U 0.93844 0.64886 0.26659 0.0
O1487 O 0.93866 0.63878 0.26554 0.0
O1488 O 0.93653 0.64463 0.25756 0.0
C1489 C 0.93681 0.63899 0.25977 0.0
C1490 C 0.92916 0.6538 0.27259 0.0
C1491 C 0.93153 0.63501 0.25827 0.0
C1492 C 0.92095 0.63175 0.25999 0.0
C1493 C 0.92588 0.63569 0.26135 0.0
C1494 C 0.92726 0.62648 0.25241 0.0
C1495 C 0.92159 0.62708 0.25552 0.0
C1496 C 0.93218 0.63041 0.25378 0.0
C1497 C 0.95571 0.65274 0.26548 0.0
C1498 C 0.96369 0.64584 0.26168 0.0
C1499 C 0.96615 0.6565 0.264 0.0
C1500 C 0.96002 0.65754 0.26571 0.0
C1501 C 0.96808 0.65063 0.26203 0.0
C1502 C 0.95755 0.6469 0.26338 0.0
C1503 C 0.9494 0.65389 0.26769 0.0
O1504 O 0.9305 0.65518 0.26683 0.0
O1505 O 0.93239 0.64913 0.27472 0.0
O1506 O 0.9472 0.6498 0.27159 0.0
O1507 O 0.94538 0.6556 0.26348 0.0
H1508 H 0.93836 0.66147 0.2762 0.0
H1509 H 0.93768 0.67001 0.28356 0.0
H1510 H 0.91816 0.66654 0.2857 0.0
H1511 H 0.91892 0.65792 0.27842 0.0
H1512 H 0.91662 0.63238 0.26242 0.0
H1513 H 0.9253 0.63924 0.26482 0.0
H1514 H 0.92793 0.62289 0.249 0.0
H1515 H 0.93653 0.62982 0.25138 0.0
H1516 H 0.96502 0.64129 0.26012 0.0
H1517 H 0.96941 0.66026 0.26441 0.0
H1518 H 0.95868 0.66207 0.26734 0.0
H1519 H 0.95426 0.64314 0.26314 0.0
C1520 C 0.34213 0.92827 0.27696 0.0
C1521 C 0.33839 0.9334 0.27822 0.0
C1522 C 0.33206 0.92721 0.28514 0.0
C1523 C 0.3334 0.93288 0.28227 0.0
C1524 C 0.3358 0.92207 0.28381 0.0
C1525 C 0.3408 0.9226 0.27975 0.0
U1526 U 0.35237 0.93833 0.2671 0.0
O1527 O 0.36246 0.93879 0.26626 0.0
O1528 O 0.35682 0.93664 0.25812 0.0
C1529 C 0.36241 0.93703 0.26045 0.0
C1530 C 0.3475 0.92888 0.27288 0.0
C1531 C 0.36658 0.93191 0.25893 0.0
C1532 C 0.37019 0.92142 0.26054 0.0
C1533 C 0.36605 0.92619 0.26191 0.0
C1534 C 0.37534 0.92803 0.25315 0.0
C1535 C 0.37492 0.9223 0.25617 0.0
C1536 C 0.37121 0.93279 0.25452 0.0
C1537 C 0.34816 0.95552 0.26611 0.0
C1538 C 0.35496 0.9636 0.26234 0.0
C1539 C 0.34432 0.96596 0.26486 0.0
C1540 C 0.34334 0.9598 0.26649 0.0
C1541 C 0.35015 0.96795 0.26282 0.0
C1542 C 0.35396 0.95743 0.26396 0.0
C1543 C 0.34709 0.94917 0.26822 0.0
O1544 O 0.34623 0.93025 0.26711 0.0
O1545 O 0.35205 0.93218 0.27515 0.0
O1546 O 0.35113 0.947 0.27219 0.0
O1547 O 0.34554 0.94517 0.26394 0.0
H1548 H 0.33938 0.93783 0.27612 0.0
H1549 H 0.33067 0.93695 0.28325 0.0
H1550 H 0.33486 0.91762 0.28589 0.0
H1551 H 0.34364 0.9186 0.27882 0.0
H1552 H 0.36976 0.91709 0.263 0.0
H1553 H 0.36249 0.92543 0.26533 0.0
H1554 H 0.37885 0.92884 0.24969 0.0
H1555 H 0.37166 0.93717 0.25216 0.0
H1556 H 0.35948 0.96498 0.26073 0.0
H1557 H 0.34055 0.96919 0.26537 0.0
H1558 H 0.33884 0.95841 0.26816 0.0
H1559 H 0.35774 0.95417 0.26361 0.0
C1560 C 0.07286 0.34238 0.27724 0.0
C1561 C 0.06764 0.3388 0.27856 0.0
C1562 C 0.07371 0.33234 0.28546 0.0
C1563 C 0.06806 0.33382 0.28263 0.0
C1564 C 0.07895 0.33592 0.28406 0.0
C1565 C 0.07852 0.3409 0.27998 0.0
U1566 U 0.06318 0.35265 0.26697 0.0
O1567 O 0.06286 0.36274 0.26608 0.0
O1568 O 0.06527 0.35705 0.25806 0.0
C1569 C 0.06488 0.36264 0.26036 0.0
C1570 C 0.07238 0.34774 0.27311 0.0
C1571 C 0.07017 0.36669 0.25908 0.0
C1572 C 0.08064 0.37005 0.26126 0.0
C1573 C 0.07568 0.36608 0.26242 0.0
C1574 C 0.07464 0.3752 0.25335 0.0
C1575 C 0.08017 0.37467 0.25672 0.0
C1576 C 0.06969 0.37124 0.25453 0.0
C1577 C 0.04599 0.3485 0.26533 0.0
C1578 C 0.03759 0.35534 0.26242 0.0
C1579 C 0.03597 0.34428 0.26264 0.0
C1580 C 0.0421 0.34342 0.26446 0.0
C1581 C 0.03362 0.35025 0.26168 0.0
C1582 C 0.04373 0.35447 0.26421 0.0
C1583 C 0.05227 0.34745 0.26768 0.0
O1584 O 0.07121 0.34644 0.26731 0.0
O1585 O 0.06903 0.35231 0.27526 0.0
O1586 O 0.05431 0.35149 0.27172 0.0
O1587 O 0.05643 0.34585 0.26356 0.0
H1588 H 0.06322 0.3399 0.27649 0.0
H1589 H 0.06392 0.33122 0.28367 0.0
H1590 H 0.08338 0.33485 0.28609 0.0
H1591 H 0.0826 0.34362 0.27899 0.0
H1592 H 0.08485 0.36948 0.26388 0.0
H1593 H 0.07614 0.36256 0.26594 0.0
H1594 H 0.0741 0.37875 0.24988 0.0
H1595 H 0.06546 0.37177 0.25192 0.0
H1596 H 0.03593 0.35999 0.26164 0.0
H1597 H 0.03303 0.34027 0.26219 0.0
H1598 H 0.04376 0.33878 0.26532 0.0
H1599 H 0.04668 0.35846 0.26481 0.0
C1600 C 0.72385 0.6592 0.92901 0.0
C1601 C 0.72254 0.66278 0.93424 0.0
C1602 C 0.71567 0.66929 0.92818 0.0
C1603 C 0.71849 0.66778 0.93383 0.0
C1604 C 0.71706 0.66572 0.92294 0.0
C1605 C 0.72111 0.66071 0.92336 0.0
U1606 U 0.7342 0.64886 0.93856 0.0
O1607 O 0.73504 0.63877 0.9389 0.0
O1608 O 0.74305 0.6444 0.93627 0.0
C1609 C 0.74069 0.63883 0.93668 0.0
C1610 C 0.72795 0.65383 0.92946 0.0
C1611 C 0.74187 0.63472 0.93138 0.0
C1612 C 0.73828 0.62878 0.92256 0.0
C1613 C 0.73708 0.63282 0.92744 0.0
C1614 C 0.7491 0.62864 0.92534 0.0
C1615 C 0.7443 0.62663 0.92147 0.0
C1616 C 0.74789 0.63263 0.93026 0.0
C1617 C 0.73613 0.6529 0.95576 0.0
C1618 C 0.73832 0.64606 0.96438 0.0
C1619 C 0.73947 0.65711 0.96559 0.0
C1620 C 0.73769 0.65797 0.95945 0.0
C1621 C 0.73971 0.65116 0.96815 0.0
C1622 C 0.73657 0.64692 0.95822 0.0
C1623 C 0.73372 0.65401 0.9495 0.0
O1624 O 0.73377 0.6551 0.93056 0.0
O1625 O 0.72582 0.64928 0.93285 0.0
O1626 O 0.72958 0.65006 0.94749 0.0
O1627 O 0.7378 0.65559 0.94529 0.0
H1628 H 0.7246 0.66166 0.93865 0.0
H1629 H 0.71746 0.67039 0.93797 0.0
H1630 H 0.71503 0.6668 0.9185 0.0
H1631 H 0.72209 0.658 0.91927 0.0
H1632 H 0.7345 0.62737 0.91961 0.0
H1633 H 0.7324 0.63442 0.92816 0.0
H1634 H 0.75378 0.62702 0.92464 0.0
H1635 H 0.75165 0.63404 0.93323 0.0
H1636 H 0.73852 0.64141 0.96621 0.0
H1637 H 0.74044 0.66114 0.96838 0.0
H1638 H 0.73736 0.66262 0.95764 0.0
H1639 H 0.73543 0.64293 0.95544 0.0
C1640 C 0.7248 0.3426 0.07296 0.0
C1641 C 0.72419 0.33871 0.06783 0.0
C1642 C 0.71656 0.33253 0.0733 0.0
C1643 C 0.72012 0.33371 0.068 0.0
C1644 C 0.71728 0.33639 0.07848 0.0
C1645 C 0.72137 0.34139 0.0783 0.0
U1646 U 0.73494 0.35313 0.06353 0.0
O1647 O 0.73552 0.36325 0.06316 0.0
O1648 O 0.74368 0.35782 0.0657 0.0
C1649 C 0.74123 0.36334 0.06519 0.0
C1650 C 0.7288 0.34806 0.07264 0.0
C1651 C 0.74238 0.36754 0.07038 0.0
C1652 C 0.74064 0.3707 0.081 0.0
C1653 C 0.73964 0.36654 0.07616 0.0
C1654 C 0.74718 0.37685 0.07434 0.0
C1655 C 0.74439 0.37594 0.08013 0.0
C1656 C 0.74618 0.37269 0.06951 0.0
C1657 C 0.73685 0.34903 0.04635 0.0
C1658 C 0.7389 0.35585 0.03768 0.0
C1659 C 0.74026 0.34481 0.03654 0.0
C1660 C 0.7385 0.34396 0.04268 0.0
C1661 C 0.74038 0.35075 0.03394 0.0
C1662 C 0.73717 0.355 0.04384 0.0
C1663 C 0.7345 0.34791 0.05262 0.0
O1664 O 0.73466 0.34693 0.07157 0.0
O1665 O 0.7266 0.3526 0.06928 0.0
O1666 O 0.7303 0.3518 0.05464 0.0
O1667 O 0.73862 0.34644 0.05682 0.0
H1668 H 0.72681 0.33959 0.06366 0.0
H1669 H 0.71974 0.33079 0.06396 0.0
H1670 H 0.71457 0.33565 0.08261 0.0
H1671 H 0.72176 0.34437 0.08229 0.0
H1672 H 0.73837 0.36989 0.08538 0.0
H1673 H 0.73668 0.36258 0.0769 0.0
H1674 H 0.75017 0.38078 0.07353 0.0
H1675 H 0.74835 0.37352 0.06508 0.0
H1676 H 0.73901 0.36048 0.03582 0.0
H1677 H 0.74131 0.34079 0.03377 0.0
H1678 H 0.73827 0.33932 0.04453 0.0
H1679 H 0.73596 0.35898 0.0466 0.0
C1680 C 0.6592 0.72442 0.07351 0.0
C1681 C 0.66285 0.72318 0.06832 0.0
C1682 C 0.66932 0.71629 0.07442 0.0
C1683 C 0.66787 0.71915 0.06877 0.0
C1684 C 0.66567 0.71762 0.07962 0.0
C1685 C 0.66065 0.72165 0.07917 0.0
U1686 U 0.64882 0.73451 0.06378 0.0
O1687 O 0.63872 0.7353 0.06346 0.0
O1688 O 0.64433 0.74339 0.06581 0.0
C1689 C 0.63875 0.74103 0.06544 0.0
C1690 C 0.6538 0.72848 0.07301 0.0
C1691 C 0.6347 0.7423 0.07072 0.0
C1692 C 0.63137 0.74017 0.08121 0.0
C1693 C 0.63535 0.73902 0.07626 0.0
C1694 C 0.62611 0.74796 0.07515 0.0
C1695 C 0.62668 0.74464 0.0807 0.0
C1696 C 0.63008 0.74679 0.0702 0.0
C1697 C 0.653 0.73611 0.04651 0.0
C1698 C 0.64704 0.73647 0.03699 0.0
C1699 C 0.65727 0.74093 0.03732 0.0
C1700 C 0.6578 0.73926 0.04352 0.0
C1701 C 0.65194 0.73943 0.03394 0.0
C1702 C 0.64756 0.73483 0.04322 0.0
C1703 C 0.65399 0.73382 0.05285 0.0
O1704 O 0.65503 0.73429 0.0718 0.0
O1705 O 0.64925 0.72627 0.06967 0.0
O1706 O 0.65003 0.72972 0.05494 0.0
O1707 O 0.65557 0.73796 0.057 0.0
H1708 H 0.66178 0.72527 0.06391 0.0
H1709 H 0.67054 0.71817 0.06465 0.0
H1710 H 0.6667 0.71556 0.08405 0.0
H1711 H 0.65787 0.72257 0.08322 0.0
H1712 H 0.63198 0.73758 0.08544 0.0
H1713 H 0.63892 0.73555 0.07675 0.0
H1714 H 0.62251 0.75137 0.07458 0.0
H1715 H 0.62952 0.74935 0.06595 0.0
H1716 H 0.64289 0.73519 0.03452 0.0
H1717 H 0.66109 0.74331 0.03515 0.0
H1718 H 0.66204 0.7403 0.04596 0.0
H1719 H 0.64377 0.7324 0.04539 0.0
C1720 C 0.27707 0.6589 0.07286 0.0
C1721 C 0.2784 0.66246 0.06762 0.0
C1722 C 0.28523 0.669 0.0737 0.0
C1723 C 0.28244 0.66747 0.06804 0.0
C1724 C 0.28382 0.66544 0.07895 0.0
C1725 C 0.27977 0.66043 0.07852 0.0
U1726 U 0.267 0.64848 0.06315 0.0
O1727 O 0.26615 0.63838 0.06292 0.0
O1728 O 0.25807 0.64407 0.06515 0.0
C1729 C 0.2604 0.63847 0.06485 0.0
C1730 C 0.27299 0.65352 0.07239 0.0
C1731 C 0.25904 0.63446 0.07014 0.0
C1732 C 0.26123 0.63093 0.08055 0.0
C1733 C 0.2625 0.63487 0.0756 0.0
C1734 C 0.25297 0.62622 0.07468 0.0
C1735 C 0.25646 0.62654 0.08014 0.0
C1736 C 0.25426 0.63014 0.06972 0.0
C1737 C 0.26556 0.65245 0.04588 0.0
C1738 C 0.26357 0.64564 0.03719 0.0
C1739 C 0.26231 0.65669 0.03603 0.0
C1740 C 0.264 0.65753 0.04219 0.0
C1741 C 0.26217 0.65074 0.03343 0.0
C1742 C 0.26523 0.64648 0.04338 0.0
C1743 C 0.26782 0.65356 0.0522 0.0
O1744 O 0.26719 0.65477 0.07112 0.0
O1745 O 0.2752 0.64892 0.06911 0.0
O1746 O 0.27187 0.64958 0.05434 0.0
O1747 O 0.26365 0.65519 0.05629 0.0
H1748 H 0.27637 0.66132 0.0632 0.0
H1749 H 0.28349 0.67006 0.06389 0.0
H1750 H 0.28582 0.66654 0.08339 0.0
H1751 H 0.27878 0.65773 0.08261 0.0
H1752 H 0.26395 0.63135 0.08472 0.0
H1753 H 0.26619 0.63822 0.07601 0.0
H1754 H 0.24931 0.62285 0.07418 0.0
H1755 H 0.25155 0.62976 0.06554 0.0
H1756 H 0.26344 0.641 0.03534 0.0
H1757 H 0.26133 0.66072 0.03325 0.0
H1758 H 0.26424 0.66217 0.04404 0.0
H1759 H 0.26637 0.64249 0.04616 0.0
C1760 C 0.34259 0.27701 0.07289 0.0
C1761 C 0.3389 0.27828 0.06773 0.0
C1762 C 0.3325 0.28516 0.07389 0.0
C1763 C 0.3339 0.28232 0.06822 0.0
C1764 C 0.33618 0.2838 0.07907 0.0
C1765 C 0.34119 0.27975 0.07856 0.0
U1766 U 0.35295 0.26711 0.06295 0.0
O1767 O 0.36305 0.2664 0.06254 0.0
O1768 O 0.35751 0.25823 0.06478 0.0
C1769 C 0.36307 0.26063 0.06439 0.0
C1770 C 0.348 0.27296 0.07231 0.0
C1771 C 0.3672 0.25928 0.06959 0.0
C1772 C 0.37034 0.26084 0.08024 0.0
C1773 C 0.36626 0.26202 0.07538 0.0
C1774 C 0.37631 0.25414 0.07357 0.0
C1775 C 0.37545 0.25692 0.07938 0.0
C1776 C 0.37222 0.25531 0.06873 0.0
C1777 C 0.34881 0.26586 0.04576 0.0
C1778 C 0.3557 0.26217 0.03771 0.0
C1779 C 0.345 0.26439 0.03534 0.0
C1780 C 0.34398 0.26606 0.04147 0.0
C1781 C 0.35089 0.26249 0.03336 0.0
C1782 C 0.35467 0.26383 0.04387 0.0
C1783 C 0.34769 0.26803 0.05208 0.0
O1784 O 0.34677 0.26717 0.07101 0.0
O1785 O 0.35253 0.27524 0.069 0.0
O1786 O 0.35167 0.27207 0.05421 0.0
O1787 O 0.34619 0.26378 0.05613 0.0
H1788 H 0.33995 0.27622 0.0633 0.0
H1789 H 0.33122 0.28333 0.06413 0.0
H1790 H 0.33519 0.28584 0.08352 0.0
H1791 H 0.34399 0.27881 0.08259 0.0
H1792 H 0.36958 0.26311 0.08462 0.0
H1793 H 0.3624 0.26511 0.07612 0.0
H1794 H 0.38014 0.25102 0.07278 0.0
H1795 H 0.373 0.25315 0.06429 0.0
H1796 H 0.36026 0.26066 0.03635 0.0
H1797 H 0.34122 0.26477 0.0321 0.0
H1798 H 0.33944 0.26764 0.04285 0.0
H1799 H 0.35845 0.26362 0.04714 0.0
C1800 C 0.27662 0.34261 0.92854 0.0
C1801 C 0.27732 0.33873 0.93368 0.0
C1802 C 0.28493 0.33259 0.92814 0.0
C1803 C 0.28142 0.33376 0.93348 0.0
C1804 C 0.28413 0.33644 0.92296 0.0
C1805 C 0.28002 0.34141 0.92317 0.0
U1806 U 0.26653 0.35306 0.93809 0.0
O1807 O 0.26578 0.36316 0.93842 0.0
O1808 O 0.25766 0.35758 0.93607 0.0
C1809 C 0.26002 0.36315 0.93651 0.0
C1810 C 0.27257 0.34802 0.92889 0.0
C1811 C 0.25866 0.36733 0.93135 0.0
C1812 C 0.26065 0.37105 0.92096 0.0
C1813 C 0.26188 0.36689 0.92575 0.0
C1814 C 0.25292 0.37605 0.92731 0.0
C1815 C 0.25619 0.37572 0.92171 0.0
C1816 C 0.25416 0.37189 0.93208 0.0
C1817 C 0.26497 0.34897 0.95532 0.0
C1818 C 0.26296 0.35577 0.96401 0.0
C1819 C 0.26179 0.34472 0.96518 0.0
C1820 C 0.26347 0.34389 0.95902 0.0
C1821 C 0.26161 0.35066 0.96778 0.0
C1822 C 0.2646 0.35494 0.95782 0.0
C1823 C 0.26724 0.34788 0.94901 0.0
O1824 O 0.26674 0.34683 0.93007 0.0
O1825 O 0.27477 0.35261 0.93219 0.0
O1826 O 0.27134 0.35183 0.94691 0.0
O1827 O 0.26307 0.34633 0.94489 0.0
H1828 H 0.27473 0.33959 0.93787 0.0
H1829 H 0.28185 0.33084 0.93751 0.0
H1830 H 0.28681 0.33571 0.91881 0.0
H1831 H 0.27956 0.34439 0.91918 0.0
H1832 H 0.26329 0.3707 0.91674 0.0
H1833 H 0.26538 0.36338 0.92511 0.0
H1834 H 0.24938 0.3795 0.928 0.0
H1835 H 0.25161 0.37227 0.93637 0.0
H1836 H 0.2628 0.36041 0.96586 0.0
H1837 H 0.26085 0.34068 0.96797 0.0
H1838 H 0.26374 0.33925 0.95717 0.0
H1839 H 0.26571 0.35894 0.95503 0.0
C1840 C 0.65913 0.27682 0.92892 0.0
C1841 C 0.6629 0.27764 0.93411 0.0
C1842 C 0.66904 0.28524 0.92855 0.0
C1843 C 0.66782 0.28181 0.93393 0.0
C1844 C 0.66529 0.28431 0.92333 0.0
C1845 C 0.66037 0.28014 0.92352 0.0
U1846 U 0.6487 0.26653 0.93834 0.0
O1847 O 0.63861 0.26566 0.93853 0.0
O1848 O 0.64431 0.25763 0.93619 0.0
C1849 C 0.63872 0.25994 0.93651 0.0
C1850 C 0.65377 0.27269 0.92923 0.0
C1851 C 0.63473 0.25869 0.93118 0.0
C1852 C 0.63144 0.26093 0.9207 0.0
C1853 C 0.63539 0.26204 0.92568 0.0
C1854 C 0.62622 0.25301 0.92662 0.0
C1855 C 0.62679 0.25642 0.92112 0.0
C1856 C 0.63015 0.25415 0.93161 0.0
C1857 C 0.65261 0.26501 0.95559 0.0
C1858 C 0.64569 0.2613 0.9636 0.0
C1859 C 0.65641 0.26337 0.96599 0.0
C1860 C 0.65744 0.2651 0.95987 0.0
C1861 C 0.65051 0.26152 0.96796 0.0
C1862 C 0.64674 0.26302 0.95746 0.0
C1863 C 0.65375 0.26729 0.94932 0.0
O1864 O 0.65503 0.26687 0.9304 0.0
O1865 O 0.64912 0.27481 0.93249 0.0
O1866 O 0.64974 0.27131 0.9472 0.0
O1867 O 0.65538 0.26314 0.94521 0.0
H1868 H 0.662 0.27511 0.93833 0.0
H1869 H 0.67067 0.28234 0.938 0.0
H1870 H 0.66606 0.28693 0.91914 0.0
H1871 H 0.65747 0.27958 0.91949 0.0
H1872 H 0.63205 0.26358 0.91651 0.0
H1873 H 0.63893 0.26555 0.92527 0.0
H1874 H 0.62264 0.24956 0.92712 0.0
H1875 H 0.62958 0.25152 0.93582 0.0
H1876 H 0.64111 0.25984 0.96495 0.0
H1877 H 0.6602 0.26369 0.96923 0.0
H1878 H 0.662 0.26665 0.95851 0.0
H1879 H 0.64295 0.2629 0.9542 0.0
C1880 C 0.34274 0.72445 0.9284 0.0
C1881 C 0.33904 0.72317 0.93355 0.0
C1882 C 0.33264 0.71631 0.92736 0.0
C1883 C 0.33403 0.71914 0.93304 0.0
C1884 C 0.33634 0.71767 0.9222 0.0
C1885 C 0.34135 0.72171 0.92272 0.0
U1886 U 0.35308 0.73432 0.93837 0.0
O1887 O 0.36318 0.73503 0.93882 0.0
O1888 O 0.35766 0.7432 0.93656 0.0
C1889 C 0.36321 0.7408 0.93696 0.0
C1890 C 0.34815 0.72848 0.92899 0.0
C1891 C 0.36736 0.74214 0.93178 0.0
C1892 C 0.37053 0.74058 0.92114 0.0
C1893 C 0.36642 0.73941 0.92598 0.0
C1894 C 0.37648 0.74728 0.92781 0.0
C1895 C 0.37563 0.7445 0.92201 0.0
C1896 C 0.37238 0.7461 0.93265 0.0
C1897 C 0.34888 0.73556 0.95555 0.0
C1898 C 0.35572 0.73931 0.96361 0.0
C1899 C 0.34505 0.73697 0.96597 0.0
C1900 C 0.34405 0.7353 0.95983 0.0
C1901 C 0.35091 0.73894 0.96795 0.0
C1902 C 0.35471 0.73765 0.95745 0.0
C1903 C 0.34778 0.7334 0.94923 0.0
O1904 O 0.34693 0.73428 0.93029 0.0
O1905 O 0.35267 0.7262 0.93232 0.0
O1906 O 0.35177 0.72936 0.9471 0.0
O1907 O 0.3463 0.73766 0.94517 0.0
H1908 H 0.34008 0.72523 0.93799 0.0
H1909 H 0.33134 0.71813 0.93713 0.0
H1910 H 0.33535 0.71563 0.91775 0.0
H1911 H 0.34416 0.72265 0.91869 0.0
H1912 H 0.36977 0.73831 0.91675 0.0
H1913 H 0.36256 0.73632 0.92524 0.0
H1914 H 0.38031 0.75039 0.92862 0.0
H1915 H 0.37315 0.74827 0.93709 0.0
H1916 H 0.36027 0.74087 0.96497 0.0
H1917 H 0.34127 0.73654 0.96921 0.0
H1918 H 0.33953 0.73368 0.95845 0.0
H1919 H 0.35849 0.7379 0.95418 0.0
C1920 C 0.57267 0.77688 0.84204 0.0
C1921 C 0.56755 0.77752 0.83814 0.0
C1922 C 0.57313 0.78501 0.83189 0.0
C1923 C 0.56777 0.78154 0.83311 0.0
C1924 C 0.57828 0.78427 0.83577 0.0
C1925 C 0.57805 0.78024 0.84081 0.0
U1926 U 0.56314 0.76682 0.85257 0.0
O1927 O 0.56522 0.75804 0.85722 0.0
O1928 O 0.56277 0.76621 0.86268 0.0
C1929 C 0.56477 0.76048 0.86275 0.0
C1930 C 0.57231 0.77289 0.84751 0.0
C1931 C 0.56999 0.75929 0.86691 0.0
C1932 C 0.58061 0.76105 0.87002 0.0
C1933 C 0.57573 0.7621 0.86592 0.0
C1934 C 0.57405 0.75433 0.87608 0.0
C1935 C 0.57981 0.75718 0.87518 0.0
C1936 C 0.56918 0.75539 0.87199 0.0
C1937 C 0.54596 0.76506 0.8484 0.0
C1938 C 0.53758 0.76224 0.85529 0.0
C1939 C 0.5359 0.76245 0.84424 0.0
C1940 C 0.54204 0.76421 0.84335 0.0
C1941 C 0.53357 0.76152 0.85023 0.0
C1942 C 0.54373 0.76398 0.85439 0.0
C1943 C 0.55225 0.76738 0.84731 0.0
O1944 O 0.56895 0.77512 0.85204 0.0
O1945 O 0.57119 0.76704 0.84639 0.0
O1946 O 0.55641 0.76322 0.84585 0.0
O1947 O 0.55427 0.77153 0.85124 0.0
H1948 H 0.56335 0.77495 0.83904 0.0
H1949 H 0.56375 0.78192 0.83017 0.0
H1950 H 0.58245 0.78692 0.83501 0.0
H1951 H 0.58203 0.77982 0.8438 0.0
H1952 H 0.58496 0.76337 0.86922 0.0
H1953 H 0.57642 0.76514 0.86201 0.0
H1954 H 0.5733 0.75126 0.87995 0.0
H1955 H 0.56478 0.75317 0.8728 0.0
H1956 H 0.53594 0.7615 0.85996 0.0
H1957 H 0.53293 0.76201 0.84025 0.0
H1958 H 0.54368 0.76504 0.8387 0.0
H1959 H 0.54671 0.76458 0.85835 0.0
C1960 C 0.22461 0.57316 0.84234 0.0
C1961 C 0.22329 0.56793 0.83876 0.0
C1962 C 0.21639 0.57399 0.83229 0.0
C1963 C 0.21922 0.56834 0.83378 0.0
C1964 C 0.21778 0.57923 0.83587 0.0
C1965 C 0.22186 0.57881 0.84086 0.0
U1966 U 0.23468 0.56342 0.85271 0.0
O1967 O 0.24361 0.56538 0.85713 0.0
O1968 O 0.23554 0.56314 0.8628 0.0
C1969 C 0.24129 0.56506 0.86272 0.0
C1970 C 0.22871 0.57268 0.84771 0.0
C1971 C 0.24262 0.57036 0.86673 0.0
C1972 C 0.24054 0.58086 0.87005 0.0
C1973 C 0.23935 0.57591 0.86609 0.0
C1974 C 0.24836 0.5748 0.87526 0.0
C1975 C 0.24504 0.58036 0.8747 0.0
C1976 C 0.24715 0.56985 0.87131 0.0
C1977 C 0.23596 0.54618 0.84868 0.0
C1978 C 0.23973 0.53813 0.85553 0.0
C1979 C 0.2374 0.53575 0.84486 0.0
C1980 C 0.23572 0.54189 0.84386 0.0
C1981 C 0.23936 0.53378 0.85072 0.0
C1982 C 0.23806 0.54429 0.85451 0.0
C1983 C 0.23376 0.55249 0.84757 0.0
O1984 O 0.2265 0.5694 0.85231 0.0
O1985 O 0.2345 0.5714 0.84644 0.0
O1986 O 0.23798 0.55654 0.84598 0.0
O1987 O 0.22977 0.55463 0.8516 0.0
H1988 H 0.22536 0.56352 0.83987 0.0
H1989 H 0.21819 0.5642 0.83118 0.0
H1990 H 0.21574 0.58367 0.8348 0.0
H1991 H 0.22284 0.58289 0.84357 0.0
H1992 H 0.23796 0.5851 0.86945 0.0
H1993 H 0.23585 0.57639 0.86255 0.0
H1994 H 0.25181 0.57424 0.87883 0.0
H1995 H 0.24971 0.56559 0.87187 0.0
H1996 H 0.24128 0.53677 0.86008 0.0
H1997 H 0.23697 0.53252 0.84108 0.0
H1998 H 0.23409 0.54327 0.83933 0.0
H1999 H 0.2383 0.54756 0.85829 0.0
C2000 C 0.42841 0.22483 0.84197 0.0
C2001 C 0.43357 0.22414 0.83812 0.0
C2002 C 0.42804 0.21658 0.83191 0.0
C2003 C 0.43338 0.22007 0.83313 0.0
C2004 C 0.42284 0.21738 0.83573 0.0
C2005 C 0.42304 0.22147 0.84072 0.0
U2006 U 0.43801 0.23453 0.85275 0.0
O2007 O 0.43619 0.24336 0.8574 0.0
O2008 O 0.43814 0.23507 0.86289 0.0
C2009 C 0.43639 0.24087 0.86293 0.0
C2010 C 0.42876 0.2288 0.84745 0.0
C2011 C 0.43117 0.2423 0.86702 0.0
C2012 C 0.42016 0.24334 0.86888 0.0
C2013 C 0.42505 0.24195 0.86491 0.0
C2014 C 0.42744 0.24535 0.87713 0.0
C2015 C 0.42129 0.24507 0.87505 0.0
C2016 C 0.43232 0.24399 0.87314 0.0
C2017 C 0.45531 0.23571 0.84899 0.0
C2018 C 0.46328 0.23922 0.85605 0.0
C2019 C 0.46576 0.23728 0.84533 0.0
C2020 C 0.45964 0.23563 0.84421 0.0
C2021 C 0.46768 0.23904 0.85128 0.0
C2022 C 0.45713 0.23758 0.85492 0.0
C2023 C 0.44899 0.23359 0.84773 0.0
O2024 O 0.43191 0.22645 0.85206 0.0
O2025 O 0.4301 0.23462 0.84637 0.0
O2026 O 0.44501 0.23789 0.84619 0.0
O2027 O 0.44674 0.22953 0.85163 0.0
H2028 H 0.43777 0.2267 0.83903 0.0
H2029 H 0.43744 0.21963 0.83024 0.0
H2030 H 0.41869 0.21472 0.83496 0.0
H2031 H 0.41903 0.22192 0.84367 0.0
H2032 H 0.41549 0.24314 0.86711 0.0
H2033 H 0.42407 0.24063 0.86019 0.0
H2034 H 0.42848 0.24654 0.88186 0.0
H2035 H 0.43701 0.24423 0.87486 0.0
H2036 H 0.46459 0.24061 0.86067 0.0
H2037 H 0.46904 0.237 0.84157 0.0
H2038 H 0.45831 0.23418 0.83961 0.0
H2039 H 0.45383 0.23769 0.85867 0.0
C2040 C 0.777 0.42834 0.84226 0.0
C2041 C 0.77782 0.43353 0.83848 0.0
C2042 C 0.78548 0.428 0.8324 0.0
C2043 C 0.78202 0.43336 0.83359 0.0
C2044 C 0.78457 0.42278 0.83615 0.0
C2045 C 0.78036 0.42296 0.84105 0.0
U2046 U 0.76646 0.43769 0.85247 0.0
O2047 O 0.75755 0.43544 0.8568 0.0
O2048 O 0.76548 0.43801 0.86255 0.0
C2049 C 0.7598 0.43588 0.86242 0.0
C2050 C 0.77283 0.42863 0.84759 0.0
C2051 C 0.75861 0.43058 0.86647 0.0
C2052 C 0.76093 0.42014 0.86984 0.0
C2053 C 0.76201 0.42511 0.86585 0.0
C2054 C 0.75297 0.42605 0.87502 0.0
C2055 C 0.75641 0.42057 0.87449 0.0
C2056 C 0.75407 0.43101 0.87105 0.0
C2057 C 0.76465 0.45491 0.84815 0.0
C2058 C 0.7629 0.46395 0.85457 0.0
C2059 C 0.76121 0.46452 0.84354 0.0
C2060 C 0.76286 0.45832 0.84296 0.0
C2061 C 0.76134 0.46745 0.84932 0.0
C2062 C 0.76453 0.45772 0.85399 0.0
C2063 C 0.76703 0.4486 0.84725 0.0
O2064 O 0.77485 0.432 0.8522 0.0
O2065 O 0.767 0.42967 0.84626 0.0
O2066 O 0.76297 0.44439 0.84564 0.0
O2067 O 0.77107 0.44663 0.85132 0.0
H2068 H 0.77526 0.43773 0.83935 0.0
H2069 H 0.78254 0.43743 0.83074 0.0
H2070 H 0.78721 0.41861 0.83541 0.0
H2071 H 0.7798 0.41892 0.84395 0.0
H2072 H 0.7636 0.41596 0.86925 0.0
H2073 H 0.76551 0.42469 0.86231 0.0
H2074 H 0.74952 0.42656 0.87859 0.0
H2075 H 0.75142 0.43521 0.87159 0.0
H2076 H 0.76309 0.46607 0.85909 0.0
H2077 H 0.75991 0.46704 0.83942 0.0
H2078 H 0.7629 0.45622 0.83842 0.0
H2079 H 0.76588 0.45518 0.85807 0.0
C2080 C 0.57311 0.22461 0.15905 0.0
C2081 C 0.56786 0.22372 0.16273 0.0
C2082 C 0.57335 0.21609 0.16888 0.0
C2083 C 0.56798 0.2195 0.1676 0.0
C2084 C 0.57863 0.21708 0.16523 0.0
C2085 C 0.5785 0.2213 0.16034 0.0
U2086 U 0.56381 0.23505 0.14869 0.0
O2087 O 0.56598 0.24403 0.14448 0.0
O2088 O 0.56371 0.2361 0.13861 0.0
C2089 C 0.56569 0.24183 0.13884 0.0
C2090 C 0.57287 0.22881 0.15374 0.0
C2091 C 0.571 0.24323 0.13488 0.0
C2092 C 0.58155 0.24129 0.1316 0.0
C2093 C 0.57658 0.24 0.13552 0.0
C2094 C 0.57544 0.24909 0.12643 0.0
C2095 C 0.58103 0.24584 0.127 0.0
C2096 C 0.57047 0.24779 0.13034 0.0
C2097 C 0.54645 0.23657 0.15259 0.0
C2098 C 0.53691 0.23683 0.14666 0.0
C2099 C 0.53726 0.24143 0.15683 0.0
C2100 C 0.54347 0.23978 0.15736 0.0
C2101 C 0.53386 0.23985 0.15153 0.0
C2102 C 0.54314 0.23521 0.14718 0.0
C2103 C 0.55278 0.23426 0.15362 0.0
O2104 O 0.56965 0.22676 0.14903 0.0
O2105 O 0.5717 0.23461 0.15507 0.0
O2106 O 0.5569 0.23834 0.15539 0.0
O2107 O 0.55493 0.23026 0.14959 0.0
H2108 H 0.56365 0.22624 0.16178 0.0
H2109 H 0.56386 0.21892 0.17037 0.0
H2110 H 0.58282 0.21447 0.16604 0.0
H2111 H 0.58258 0.22191 0.15753 0.0
H2112 H 0.58581 0.23875 0.13221 0.0
H2113 H 0.57707 0.23648 0.13903 0.0
H2114 H 0.57485 0.25256 0.12289 0.0
H2115 H 0.56619 0.25031 0.12977 0.0
H2116 H 0.53443 0.2355 0.14253 0.0
H2117 H 0.5351 0.24385 0.16063 0.0
H2118 H 0.54591 0.24088 0.16159 0.0
H2119 H 0.5453 0.23274 0.14342 0.0
C2120 C 0.77688 0.57308 0.15957 0.0
C2121 C 0.77755 0.56797 0.16347 0.0
C2122 C 0.7852 0.5735 0.16956 0.0
C2123 C 0.78166 0.56818 0.16843 0.0
C2124 C 0.78441 0.57866 0.1657 0.0
C2125 C 0.78029 0.57845 0.16073 0.0
U2126 U 0.76712 0.5634 0.14894 0.0
O2127 O 0.75827 0.56517 0.14431 0.0
O2128 O 0.76653 0.56315 0.13881 0.0
C2129 C 0.76073 0.56491 0.13877 0.0
C2130 C 0.77288 0.5727 0.15411 0.0
C2131 C 0.75929 0.5701 0.13464 0.0
C2132 C 0.75815 0.58108 0.13269 0.0
C2133 C 0.75954 0.57623 0.13671 0.0
C2134 C 0.75636 0.57374 0.12446 0.0
C2135 C 0.75653 0.5799 0.12651 0.0
C2136 C 0.75772 0.56889 0.12849 0.0
C2137 C 0.76598 0.54614 0.15293 0.0
C2138 C 0.76232 0.53809 0.14603 0.0
C2139 C 0.76459 0.5357 0.15671 0.0
C2140 C 0.76623 0.54184 0.15774 0.0
C2141 C 0.76268 0.53373 0.15083 0.0
C2142 C 0.76395 0.54426 0.14707 0.0
C2143 C 0.76808 0.55248 0.15408 0.0
O2144 O 0.7752 0.56949 0.14952 0.0
O2145 O 0.76707 0.57137 0.15523 0.0
O2146 O 0.76378 0.55648 0.15559 0.0
O2147 O 0.77212 0.55467 0.15013 0.0
H2148 H 0.77496 0.56377 0.16262 0.0
H2149 H 0.78209 0.56415 0.17136 0.0
H2150 H 0.78711 0.58281 0.1664 0.0
H2151 H 0.77985 0.58242 0.15774 0.0
H2152 H 0.75827 0.58576 0.13445 0.0
H2153 H 0.76078 0.57725 0.14145 0.0
H2154 H 0.75526 0.57265 0.11971 0.0
H2155 H 0.75756 0.56419 0.1268 0.0
H2156 H 0.7608 0.53674 0.14146 0.0
H2157 H 0.76501 0.53245 0.16048 0.0
H2158 H 0.76781 0.54322 0.16228 0.0
H2159 H 0.7637 0.54754 0.1433 0.0
C2160 C 0.42846 0.77742 0.15913 0.0
C2161 C 0.43365 0.77821 0.1629 0.0
C2162 C 0.42815 0.78585 0.16903 0.0
C2163 C 0.4335 0.78238 0.16782 0.0
C2164 C 0.42292 0.78497 0.16528 0.0
C2165 C 0.42309 0.78079 0.16036 0.0
U2166 U 0.43776 0.76697 0.14876 0.0
O2167 O 0.43552 0.75804 0.14447 0.0
O2168 O 0.43791 0.76599 0.13867 0.0
C2169 C 0.43586 0.76028 0.13884 0.0
C2170 C 0.42872 0.77325 0.15379 0.0
C2171 C 0.43054 0.75898 0.13485 0.0
C2172 C 0.42022 0.76138 0.1312 0.0
C2173 C 0.42518 0.7626 0.13514 0.0
C2174 C 0.42588 0.75284 0.12672 0.0
C2175 C 0.42052 0.7565 0.12693 0.0
C2176 C 0.43085 0.75408 0.13064 0.0
C2177 C 0.45501 0.76522 0.15264 0.0
C2178 C 0.46336 0.76237 0.14572 0.0
C2179 C 0.46504 0.76242 0.15677 0.0
C2180 C 0.45893 0.76425 0.15769 0.0
C2181 C 0.46736 0.76154 0.15077 0.0
C2182 C 0.45723 0.76417 0.14665 0.0
C2183 C 0.44876 0.76762 0.15377 0.0
O2184 O 0.432 0.77532 0.14913 0.0
O2185 O 0.42984 0.76744 0.15509 0.0
O2186 O 0.4446 0.76355 0.15546 0.0
O2187 O 0.44668 0.77165 0.14973 0.0
H2188 H 0.43785 0.77564 0.16201 0.0
H2189 H 0.43757 0.78288 0.17067 0.0
H2190 H 0.41876 0.78762 0.16604 0.0
H2191 H 0.41905 0.78025 0.15746 0.0
H2192 H 0.41613 0.76423 0.13153 0.0
H2193 H 0.42486 0.76638 0.1384 0.0
H2194 H 0.42629 0.7491 0.12344 0.0
H2195 H 0.43495 0.75125 0.13036 0.0
H2196 H 0.46499 0.76166 0.14105 0.0
H2197 H 0.468 0.7619 0.16076 0.0
H2198 H 0.4573 0.76505 0.16235 0.0
H2199 H 0.45426 0.76486 0.14268 0.0
C2200 C 0.2242 0.42793 0.15898 0.0
C2201 C 0.22294 0.43313 0.16262 0.0
C2202 C 0.21595 0.42708 0.16901 0.0
C2203 C 0.21886 0.43272 0.16759 0.0
C2204 C 0.21729 0.42187 0.16538 0.0
C2205 C 0.22138 0.42229 0.1604 0.0
U2206 U 0.23446 0.43767 0.14881 0.0
O2207 O 0.24339 0.43566 0.14441 0.0
O2208 O 0.23537 0.4381 0.13873 0.0
C2209 C 0.2411 0.43609 0.13881 0.0
C2210 C 0.22833 0.42842 0.15363 0.0
C2211 C 0.24238 0.43084 0.13473 0.0
C2212 C 0.24023 0.42039 0.13128 0.0
C2213 C 0.23905 0.42532 0.13529 0.0
C2214 C 0.24814 0.42643 0.12619 0.0
C2215 C 0.24477 0.4209 0.12667 0.0
C2216 C 0.24694 0.43136 0.13018 0.0
C2217 C 0.23594 0.45487 0.15329 0.0
C2218 C 0.23765 0.46395 0.14691 0.0
C2219 C 0.23914 0.46453 0.15797 0.0
C2220 C 0.23758 0.45831 0.15851 0.0
C2221 C 0.23906 0.46747 0.15218 0.0
C2222 C 0.23611 0.4577 0.14746 0.0
C2223 C 0.23369 0.44851 0.15414 0.0
O2224 O 0.22619 0.4318 0.14908 0.0
O2225 O 0.23413 0.42958 0.15494 0.0
O2226 O 0.23783 0.44437 0.15569 0.0
O2227 O 0.22967 0.4465 0.15007 0.0
H2228 H 0.22507 0.43753 0.16156 0.0
H2229 H 0.21787 0.43684 0.17023 0.0
H2230 H 0.21519 0.41745 0.16639 0.0
H2231 H 0.22232 0.41823 0.15764 0.0
H2232 H 0.2376 0.41617 0.13182 0.0
H2233 H 0.23553 0.42483 0.1388 0.0
H2234 H 0.25161 0.427 0.12265 0.0
H2235 H 0.24955 0.4356 0.12969 0.0
H2236 H 0.23751 0.46607 0.14239 0.0
H2237 H 0.24033 0.46707 0.1621 0.0
H2238 H 0.23751 0.45621 0.16305 0.0
H2239 H 0.23488 0.45513 0.14335 0.0
C2240 C 0.84233 0.57254 0.77671 0.0
C2241 C 0.83859 0.5673 0.77743 0.0
C2242 C 0.83239 0.57268 0.7851 0.0
C2243 C 0.83366 0.56737 0.78158 0.0
C2244 C 0.83611 0.57794 0.78428 0.0
C2245 C 0.84104 0.57787 0.78012 0.0
U2246 U 0.85283 0.5634 0.76626 0.0
O2247 O 0.85721 0.56574 0.7574 0.0
O2248 O 0.86293 0.56329 0.76539 0.0
C2249 C 0.86281 0.5654 0.75971 0.0
C2250 C 0.8477 0.57235 0.77258 0.0
C2251 C 0.86678 0.57077 0.75853 0.0
C2252 C 0.87003 0.58123 0.76092 0.0
C2253 C 0.86611 0.57621 0.76198 0.0
C2254 C 0.87525 0.57545 0.7529 0.0
C2255 C 0.87466 0.5809 0.75638 0.0
C2256 C 0.87134 0.57043 0.75397 0.0
C2257 C 0.84894 0.54607 0.76436 0.0
C2258 C 0.85487 0.53653 0.76406 0.0
C2259 C 0.84477 0.53696 0.75931 0.0
C2260 C 0.84422 0.54315 0.76103 0.0
C2261 C 0.85004 0.53353 0.76093 0.0
C2262 C 0.85433 0.54274 0.76576 0.0
C2263 C 0.84788 0.55236 0.76676 0.0
O2264 O 0.85237 0.56908 0.77465 0.0
O2265 O 0.84646 0.57128 0.76674 0.0
O2266 O 0.84619 0.55656 0.76272 0.0
O2267 O 0.85183 0.55444 0.77087 0.0
H2268 H 0.83953 0.56314 0.77482 0.0
H2269 H 0.83085 0.56327 0.78203 0.0
H2270 H 0.8353 0.58208 0.78698 0.0
H2271 H 0.84391 0.58193 0.77964 0.0
H2272 H 0.8694 0.58539 0.76363 0.0
H2273 H 0.86258 0.57656 0.7655 0.0
H2274 H 0.87881 0.57502 0.74942 0.0
H2275 H 0.87192 0.56626 0.75128 0.0
H2276 H 0.85897 0.53403 0.76544 0.0
H2277 H 0.84101 0.53483 0.7568 0.0
H2278 H 0.84002 0.54561 0.7599 0.0
H2279 H 0.85805 0.54486 0.76833 0.0
C2280 C 0.42837 0.84236 0.77729 0.0
C2281 C 0.4336 0.83883 0.77871 0.0
C2282 C 0.42753 0.83251 0.78575 0.0
C2283 C 0.43319 0.83395 0.7829 0.0
C2284 C 0.42229 0.83603 0.78424 0.0
C2285 C 0.42271 0.84092 0.78004 0.0
U2286 U 0.43807 0.85255 0.76698 0.0
O2287 O 0.43605 0.85683 0.75799 0.0
O2288 O 0.43833 0.86264 0.76596 0.0
C2289 C 0.43637 0.86245 0.76022 0.0
C2290 C 0.42885 0.84765 0.77308 0.0
C2291 C 0.43106 0.86644 0.75886 0.0
C2292 C 0.42054 0.86972 0.76092 0.0
C2293 C 0.42551 0.86578 0.76212 0.0
C2294 C 0.4266 0.87494 0.7531 0.0
C2295 C 0.42104 0.87437 0.75641 0.0
C2296 C 0.43156 0.87101 0.75433 0.0
C2297 C 0.45532 0.8486 0.76565 0.0
C2298 C 0.46329 0.85547 0.76179 0.0
C2299 C 0.46574 0.84482 0.76413 0.0
C2300 C 0.45962 0.84379 0.76587 0.0
C2301 C 0.46767 0.85068 0.76213 0.0
C2302 C 0.45715 0.85443 0.76352 0.0
C2303 C 0.44903 0.84747 0.76792 0.0
O2304 O 0.43213 0.85229 0.77519 0.0
O2305 O 0.43011 0.84627 0.76731 0.0
O2306 O 0.44495 0.8458 0.76375 0.0
O2307 O 0.44689 0.85155 0.77186 0.0
H2308 H 0.43802 0.83991 0.77664 0.0
H2309 H 0.43733 0.83139 0.78402 0.0
H2310 H 0.41785 0.835 0.78629 0.0
H2311 H 0.41862 0.8436 0.77898 0.0
H2312 H 0.4163 0.86911 0.76349 0.0
H2313 H 0.42503 0.86224 0.76563 0.0
H2314 H 0.42716 0.87852 0.74966 0.0
H2315 H 0.43582 0.87159 0.75178 0.0
H2316 H 0.46462 0.86002 0.76021 0.0
H2317 H 0.469 0.84105 0.76453 0.0
H2318 H 0.45828 0.83927 0.76752 0.0
H2319 H 0.45387 0.8582 0.7633 0.0
C2320 C 0.15929 0.42774 0.77734 0.0
C2321 C 0.16288 0.43297 0.77859 0.0
C2322 C 0.16938 0.42696 0.78551 0.0
C2323 C 0.16788 0.43259 0.78263 0.0
C2324 C 0.16579 0.42172 0.78418 0.0
C2325 C 0.16078 0.42211 0.78013 0.0
U2326 U 0.14891 0.43738 0.76718 0.0
O2327 O 0.14452 0.43535 0.75825 0.0
O2328 O 0.13881 0.43763 0.7663 0.0
C2329 C 0.13892 0.43568 0.76056 0.0
C2330 C 0.15391 0.42818 0.77324 0.0
C2331 C 0.13489 0.43039 0.75921 0.0
C2332 C 0.13134 0.41999 0.76142 0.0
C2333 C 0.13529 0.42494 0.76268 0.0
C2334 C 0.12663 0.42587 0.75315 0.0
C2335 C 0.12695 0.42041 0.75665 0.0
C2336 C 0.13057 0.43082 0.75443 0.0
C2337 C 0.15302 0.45468 0.76565 0.0
C2338 C 0.14708 0.46421 0.76534 0.0
C2339 C 0.1573 0.46387 0.76085 0.0
C2340 C 0.15782 0.45766 0.7625 0.0
C2341 C 0.15198 0.46726 0.76237 0.0
C2342 C 0.14759 0.45798 0.76696 0.0
C2343 C 0.15401 0.44834 0.76794 0.0
O2344 O 0.14931 0.43148 0.77542 0.0
O2345 O 0.15517 0.4294 0.76744 0.0
O2346 O 0.15566 0.4442 0.76381 0.0
O2347 O 0.15002 0.44622 0.772 0.0
H2348 H 0.16176 0.43737 0.77648 0.0
H2349 H 0.1705 0.43673 0.78361 0.0
H2350 H 0.16686 0.4173 0.78625 0.0
H2351 H 0.15805 0.41802 0.7792 0.0
H2352 H 0.13174 0.41583 0.76415 0.0
H2353 H 0.13864 0.42452 0.76637 0.0
H2354 H 0.12326 0.42637 0.7495 0.0
H2355 H 0.1302 0.435 0.75171 0.0
H2356 H 0.14294 0.46669 0.76663 0.0
H2357 H 0.16112 0.46604 0.75846 0.0
H2358 H 0.16206 0.45522 0.76144 0.0
H2359 H 0.1438 0.45582 0.7694 0.0
C2360 C 0.57265 0.15971 0.77668 0.0
C2361 C 0.56742 0.16343 0.77753 0.0
C2362 C 0.57295 0.16961 0.78512 0.0
C2363 C 0.56757 0.16834 0.78171 0.0
C2364 C 0.57821 0.16592 0.78416 0.0
C2365 C 0.57805 0.161 0.77998 0.0
U2366 U 0.56329 0.14924 0.76639 0.0
O2367 O 0.56546 0.14488 0.75748 0.0
O2368 O 0.56317 0.13915 0.7655 0.0
C2369 C 0.56517 0.13928 0.75978 0.0
C2370 C 0.57237 0.15436 0.77254 0.0
C2371 C 0.57053 0.13533 0.75851 0.0
C2372 C 0.58106 0.13216 0.76068 0.0
C2373 C 0.57605 0.13607 0.7618 0.0
C2374 C 0.57511 0.12679 0.75289 0.0
C2375 C 0.58064 0.12745 0.75623 0.0
C2376 C 0.5701 0.13069 0.75403 0.0
C2377 C 0.546 0.15303 0.7649 0.0
C2378 C 0.53802 0.14607 0.76123 0.0
C2379 C 0.53559 0.15679 0.76326 0.0
C2380 C 0.5417 0.15785 0.76498 0.0
C2381 C 0.53365 0.15087 0.76144 0.0
C2382 C 0.54416 0.14715 0.76294 0.0
C2383 C 0.55228 0.15422 0.76718 0.0
O2384 O 0.56915 0.14969 0.77466 0.0
O2385 O 0.57118 0.15563 0.76673 0.0
O2386 O 0.55636 0.15588 0.76301 0.0
O2387 O 0.55443 0.15021 0.77119 0.0
H2388 H 0.5632 0.16249 0.77502 0.0
H2389 H 0.56347 0.17114 0.78227 0.0
H2390 H 0.5824 0.16672 0.78676 0.0
H2391 H 0.58211 0.15815 0.77939 0.0
H2392 H 0.58528 0.13284 0.76328 0.0
H2393 H 0.57647 0.13966 0.76526 0.0
H2394 H 0.5746 0.12316 0.74949 0.0
H2395 H 0.56586 0.13005 0.75146 0.0
H2396 H 0.53669 0.14147 0.75979 0.0
H2397 H 0.53233 0.16056 0.76356 0.0
H2398 H 0.54305 0.16242 0.76651 0.0
H2399 H 0.54744 0.14337 0.76283 0.0
C2400 C 0.8423 0.42794 0.22453 0.0
C2401 C 0.83871 0.43317 0.22323 0.0
C2402 C 0.83228 0.42713 0.21627 0.0
C2403 C 0.83374 0.43277 0.21914 0.0
C2404 C 0.83587 0.4219 0.21764 0.0
C2405 C 0.84084 0.42231 0.22173 0.0
U2406 U 0.85257 0.43764 0.23474 0.0
O2407 O 0.85688 0.43566 0.24372 0.0
O2408 O 0.86266 0.4379 0.23571 0.0
C2409 C 0.8625 0.436 0.24147 0.0
C2410 C 0.84764 0.42841 0.22867 0.0
C2411 C 0.86653 0.43074 0.2429 0.0
C2412 C 0.86983 0.42017 0.24112 0.0
C2413 C 0.86586 0.4251 0.2398 0.0
C2414 C 0.8751 0.42647 0.24871 0.0
C2415 C 0.8745 0.42081 0.24558 0.0
C2416 C 0.87115 0.43139 0.24737 0.0
C2417 C 0.84844 0.45494 0.23617 0.0
C2418 C 0.85441 0.46444 0.23657 0.0
C2419 C 0.84412 0.46414 0.24092 0.0
C2420 C 0.8436 0.45793 0.23926 0.0
C2421 C 0.84948 0.46751 0.23948 0.0
C2422 C 0.8539 0.45822 0.23494 0.0
C2423 C 0.84746 0.44859 0.23389 0.0
O2424 O 0.85225 0.43171 0.22652 0.0
O2425 O 0.84632 0.42965 0.23446 0.0
O2426 O 0.84578 0.44447 0.23801 0.0
O2427 O 0.85149 0.44646 0.22988 0.0
H2428 H 0.8398 0.43757 0.22533 0.0
H2429 H 0.83113 0.43691 0.21813 0.0
H2430 H 0.83482 0.41747 0.21556 0.0
H2431 H 0.84357 0.41823 0.2227 0.0
H2432 H 0.8692 0.41586 0.23868 0.0
H2433 H 0.8623 0.42451 0.23634 0.0
H2434 H 0.87869 0.42714 0.25211 0.0
H2435 H 0.87173 0.43572 0.24979 0.0
H2436 H 0.85858 0.46691 0.23534 0.0
H2437 H 0.84028 0.46632 0.24326 0.0
H2438 H 0.83935 0.45551 0.24026 0.0
H2439 H 0.85771 0.45604 0.23256 0.0
C2440 C 0.57287 0.84209 0.22473 0.0
C2441 C 0.56761 0.83843 0.22384 0.0
C2442 C 0.57308 0.83229 0.21618 0.0
C2443 C 0.56772 0.83357 0.21961 0.0
C2444 C 0.57837 0.83593 0.21717 0.0
C2445 C 0.57826 0.8408 0.22141 0.0
U2446 U 0.56363 0.85241 0.23526 0.0
O2447 O 0.56584 0.85658 0.24425 0.0
O2448 O 0.56354 0.86248 0.23636 0.0
C2449 C 0.56554 0.86223 0.24208 0.0
C2450 C 0.57265 0.84738 0.22896 0.0
C2451 C 0.57086 0.86619 0.24347 0.0
C2452 C 0.58141 0.86945 0.24152 0.0
C2453 C 0.57643 0.86554 0.24023 0.0
C2454 C 0.57532 0.87461 0.24934 0.0
C2455 C 0.5809 0.87405 0.24608 0.0
C2456 C 0.57035 0.87072 0.24804 0.0
C2457 C 0.54628 0.84852 0.23688 0.0
C2458 C 0.53677 0.85449 0.23726 0.0
C2459 C 0.53712 0.84429 0.24179 0.0
C2460 C 0.54331 0.84374 0.24008 0.0
C2461 C 0.53373 0.84961 0.24027 0.0
C2462 C 0.54298 0.85396 0.23558 0.0
C2463 C 0.55259 0.84749 0.23452 0.0
O2464 O 0.56942 0.8521 0.22694 0.0
O2465 O 0.57151 0.84602 0.23476 0.0
O2466 O 0.55674 0.8457 0.23856 0.0
O2467 O 0.55472 0.85154 0.23053 0.0
H2468 H 0.56341 0.83937 0.22637 0.0
H2469 H 0.5636 0.83081 0.21902 0.0
H2470 H 0.58256 0.83512 0.21456 0.0
H2471 H 0.58235 0.84361 0.22203 0.0
H2472 H 0.58566 0.86885 0.23897 0.0
H2473 H 0.57691 0.86204 0.2367 0.0
H2474 H 0.57474 0.87815 0.25282 0.0
H2475 H 0.56607 0.87128 0.25058 0.0
H2476 H 0.53429 0.85863 0.23597 0.0
H2477 H 0.53496 0.84049 0.2442 0.0
H2478 H 0.54575 0.8395 0.24114 0.0
H2479 H 0.54513 0.85773 0.23311 0.0
C2480 C 0.15926 0.57336 0.22427 0.0
C2481 C 0.16278 0.56809 0.22296 0.0
C2482 C 0.16931 0.57408 0.21605 0.0
C2483 C 0.16777 0.56845 0.21889 0.0
C2484 C 0.16578 0.57936 0.21744 0.0
C2485 C 0.1608 0.57899 0.22152 0.0
U2486 U 0.14888 0.56377 0.23449 0.0
O2487 O 0.14454 0.56584 0.24344 0.0
O2488 O 0.13879 0.56356 0.23542 0.0
C2489 C 0.13893 0.56553 0.24115 0.0
C2490 C 0.1539 0.57294 0.2284 0.0
C2491 C 0.13494 0.57084 0.2425 0.0
C2492 C 0.13143 0.58125 0.24027 0.0
C2493 C 0.13536 0.57628 0.23902 0.0
C2494 C 0.1267 0.57542 0.24855 0.0
C2495 C 0.12704 0.58087 0.24504 0.0
C2496 C 0.13061 0.57045 0.24728 0.0
C2497 C 0.15292 0.54645 0.236 0.0
C2498 C 0.14696 0.53693 0.23632 0.0
C2499 C 0.15719 0.53725 0.2408 0.0
C2500 C 0.15772 0.54345 0.23915 0.0
C2501 C 0.15186 0.53387 0.23928 0.0
C2502 C 0.14748 0.54316 0.2347 0.0
C2503 C 0.15393 0.55279 0.23371 0.0
O2504 O 0.14928 0.56966 0.22625 0.0
O2505 O 0.15518 0.57172 0.2342 0.0
O2506 O 0.15561 0.55691 0.23783 0.0
O2507 O 0.14993 0.55492 0.22968 0.0
H2508 H 0.16163 0.56369 0.22504 0.0
H2509 H 0.17033 0.56428 0.21786 0.0
H2510 H 0.16689 0.58378 0.21539 0.0
H2511 H 0.15812 0.5831 0.22249 0.0
H2512 H 0.13186 0.58541 0.23753 0.0
H2513 H 0.13871 0.57668 0.23533 0.0
H2514 H 0.12333 0.57495 0.25221 0.0
H2515 H 0.13022 0.56628 0.25001 0.0
H2516 H 0.14281 0.53446 0.23502 0.0
H2517 H 0.161 0.53507 0.24318 0.0
H2518 H 0.16196 0.54588 0.24021 0.0
H2519 H 0.1437 0.54534 0.23227 0.0
C2520 C 0.42768 0.15875 0.22398 0.0
C2521 C 0.43294 0.16225 0.22258 0.0
C2522 C 0.42694 0.16859 0.21551 0.0
C2523 C 0.43257 0.16713 0.21838 0.0
C2524 C 0.42167 0.1651 0.21699 0.0
C2525 C 0.42204 0.16021 0.2212 0.0
U2526 U 0.43731 0.14862 0.23442 0.0
O2527 O 0.43525 0.14444 0.24344 0.0
O2528 O 0.43755 0.13855 0.23553 0.0
C2529 C 0.43561 0.13879 0.24127 0.0
C2530 C 0.42811 0.15348 0.22822 0.0
C2531 C 0.43034 0.13477 0.24273 0.0
C2532 C 0.41982 0.13138 0.24088 0.0
C2533 C 0.42474 0.13535 0.23954 0.0
C2534 C 0.42604 0.1263 0.24865 0.0
C2535 C 0.42042 0.1268 0.24544 0.0
C2536 C 0.43096 0.13025 0.2473 0.0
C2537 C 0.45461 0.15273 0.23588 0.0
C2538 C 0.46414 0.1468 0.23631 0.0
C2539 C 0.46376 0.15705 0.24073 0.0
C2540 C 0.45756 0.15756 0.23902 0.0
C2541 C 0.46716 0.15172 0.23927 0.0
C2542 C 0.45792 0.1473 0.23463 0.0
C2543 C 0.44827 0.15369 0.23355 0.0
O2544 O 0.43141 0.14883 0.22617 0.0
O2545 O 0.42933 0.15489 0.23399 0.0
O2546 O 0.44413 0.15544 0.23763 0.0
O2547 O 0.44615 0.14962 0.22959 0.0
H2548 H 0.43734 0.16116 0.22469 0.0
H2549 H 0.43674 0.16967 0.21729 0.0
H2550 H 0.41724 0.16614 0.21492 0.0
H2551 H 0.41794 0.15755 0.22224 0.0
H2552 H 0.41553 0.13193 0.23837 0.0
H2553 H 0.42418 0.13884 0.23601 0.0
H2554 H 0.42669 0.12277 0.25213 0.0
H2555 H 0.43526 0.12974 0.24979 0.0
H2556 H 0.46663 0.14265 0.23506 0.0
H2557 H 0.4659 0.16088 0.2431 0.0
H2558 H 0.45511 0.16179 0.24004 0.0
H2559 H 0.45578 0.14349 0.23221 0.0
C2560 C 0.77675 0.84236 0.57327 0.0
C2561 C 0.77805 0.83874 0.56807 0.0
C2562 C 0.78496 0.83232 0.57417 0.0
C2563 C 0.78212 0.83376 0.56852 0.0
C2564 C 0.78359 0.83594 0.57938 0.0
C2565 C 0.77951 0.84093 0.57893 0.0
U2566 U 0.76677 0.85264 0.56337 0.0
O2567 O 0.7578 0.85705 0.56517 0.0
O2568 O 0.7659 0.86273 0.56298 0.0
C2569 C 0.76011 0.86265 0.56478 0.0
C2570 C 0.77264 0.84773 0.57274 0.0
C2571 C 0.75861 0.8668 0.56993 0.0
C2572 C 0.76036 0.87045 0.58038 0.0
C2573 C 0.7617 0.86633 0.5756 0.0
C2574 C 0.75276 0.87548 0.5739 0.0
C2575 C 0.7559 0.87511 0.57957 0.0
C2576 C 0.75411 0.87136 0.56912 0.0
C2577 C 0.76567 0.84854 0.54617 0.0
C2578 C 0.76186 0.85538 0.53815 0.0
C2579 C 0.76431 0.84475 0.53573 0.0
C2580 C 0.76599 0.84374 0.54186 0.0
C2581 C 0.76229 0.8506 0.53377 0.0
C2582 C 0.76353 0.85436 0.5443 0.0
C2583 C 0.76783 0.84743 0.5525 0.0
O2584 O 0.77487 0.85232 0.56947 0.0
O2585 O 0.76687 0.84645 0.57142 0.0
O2586 O 0.76358 0.84585 0.55652 0.0
O2587 O 0.7718 0.85147 0.55466 0.0
H2588 H 0.77597 0.83981 0.56365 0.0
H2589 H 0.78314 0.83112 0.5644 0.0
H2590 H 0.78564 0.83492 0.58382 0.0
H2591 H 0.77854 0.84368 0.58299 0.0
H2592 H 0.7629 0.87008 0.58466 0.0
H2593 H 0.76519 0.86282 0.57629 0.0
H2594 H 0.74923 0.87893 0.57315 0.0
H2595 H 0.75167 0.87176 0.56478 0.0
H2596 H 0.76026 0.85992 0.5368 0.0
H2597 H 0.76479 0.84099 0.53247 0.0
H2598 H 0.76766 0.83922 0.54323 0.0
H2599 H 0.76323 0.85812 0.54758 0.0
C2600 C 0.77698 0.15945 0.42793 0.0
C2601 C 0.7782 0.16308 0.43315 0.0
C2602 C 0.78506 0.16961 0.42709 0.0
C2603 C 0.78221 0.16812 0.43273 0.0
C2604 C 0.78375 0.16598 0.42187 0.0
C2605 C 0.77974 0.16094 0.42229 0.0
U2606 U 0.76693 0.1491 0.43769 0.0
O2607 O 0.75805 0.14457 0.43572 0.0
O2608 O 0.76617 0.139 0.4381 0.0
C2609 C 0.76043 0.139 0.43613 0.0
C2610 C 0.77294 0.15403 0.42842 0.0
C2611 C 0.75917 0.13491 0.43087 0.0
C2612 C 0.76134 0.13148 0.42042 0.0
C2613 C 0.76249 0.1355 0.42534 0.0
C2614 C 0.75348 0.12632 0.42648 0.0
C2615 C 0.75684 0.12683 0.42094 0.0
C2616 C 0.75465 0.13032 0.4314 0.0
C2617 C 0.76546 0.15352 0.45491 0.0
C2618 C 0.7639 0.1471 0.46399 0.0
C2619 C 0.76222 0.15814 0.46459 0.0
C2620 C 0.76375 0.15871 0.45836 0.0
C2621 C 0.76242 0.15235 0.46752 0.0
C2622 C 0.76541 0.14768 0.45773 0.0
C2623 C 0.76767 0.15441 0.44855 0.0
O2624 O 0.77516 0.1495 0.43178 0.0
O2625 O 0.76712 0.15525 0.42962 0.0
O2626 O 0.76348 0.15591 0.44442 0.0
O2627 O 0.77174 0.1504 0.44651 0.0
H2628 H 0.77612 0.16198 0.43755 0.0
H2629 H 0.78317 0.17076 0.43686 0.0
H2630 H 0.78581 0.16705 0.41744 0.0
H2631 H 0.77883 0.15818 0.41822 0.0
H2632 H 0.76395 0.13204 0.4162 0.0
H2633 H 0.76598 0.13904 0.42485 0.0
H2634 H 0.75004 0.12275 0.42705 0.0
H2635 H 0.75206 0.12981 0.43564 0.0
H2636 H 0.76413 0.14259 0.46611 0.0
H2637 H 0.76098 0.16225 0.46714 0.0
H2638 H 0.76373 0.16325 0.45626 0.0
H2639 H 0.76669 0.1436 0.45516 0.0
C2640 C 0.84238 0.77697 0.42841 0.0
C2641 C 0.83864 0.77778 0.43364 0.0
C2642 C 0.83244 0.78536 0.42813 0.0
C2643 C 0.83371 0.78193 0.4335 0.0
C2644 C 0.83615 0.78445 0.42288 0.0
C2645 C 0.84108 0.78029 0.42303 0.0
U2646 U 0.85282 0.76657 0.43769 0.0
O2647 O 0.85721 0.7577 0.43542 0.0
O2648 O 0.86292 0.7657 0.43786 0.0
C2649 C 0.86281 0.76001 0.43577 0.0
C2650 C 0.84775 0.77284 0.42867 0.0
C2651 C 0.8668 0.75881 0.43043 0.0
C2652 C 0.87011 0.76115 0.41998 0.0
C2653 C 0.86616 0.76223 0.42497 0.0
C2654 C 0.87529 0.75315 0.42581 0.0
C2655 C 0.87473 0.75661 0.42035 0.0
C2656 C 0.87136 0.75425 0.43081 0.0
C2657 C 0.84881 0.76475 0.455 0.0
C2658 C 0.85472 0.76445 0.46455 0.0
C2659 C 0.84456 0.75982 0.46414 0.0
C2660 C 0.84405 0.76151 0.45794 0.0
C2661 C 0.84984 0.7614 0.46757 0.0
C2662 C 0.85421 0.76611 0.45833 0.0
C2663 C 0.8478 0.76713 0.44869 0.0
O2664 O 0.85239 0.77493 0.43196 0.0
O2665 O 0.84649 0.76701 0.42976 0.0
O2666 O 0.84613 0.76306 0.4445 0.0
O2667 O 0.85177 0.77122 0.44662 0.0
H2668 H 0.83959 0.77524 0.43784 0.0
H2669 H 0.8309 0.78245 0.43759 0.0
H2670 H 0.83534 0.78707 0.4187 0.0
H2671 H 0.84395 0.77974 0.41897 0.0
H2672 H 0.86951 0.76384 0.41581 0.0
H2673 H 0.86264 0.76575 0.42459 0.0
H2674 H 0.87885 0.74967 0.42628 0.0
H2675 H 0.87192 0.75157 0.435 0.0
H2676 H 0.85883 0.76579 0.46706 0.0
H2677 H 0.84077 0.75738 0.46628 0.0
H2678 H 0.83984 0.76042 0.45547 0.0
H2679 H 0.85798 0.76862 0.4562 0.0
C2680 C 0.22466 0.84263 0.42827 0.0
C2681 C 0.22385 0.8388 0.43342 0.0
C2682 C 0.21616 0.83278 0.42787 0.0
C2683 C 0.21965 0.83392 0.43322 0.0
C2684 C 0.21707 0.83658 0.42267 0.0
C2685 C 0.22128 0.84148 0.42288 0.0
U2686 U 0.23501 0.85274 0.43786 0.0
O2687 O 0.24396 0.85711 0.43588 0.0
O2688 O 0.23597 0.86282 0.43836 0.0
C2689 C 0.24171 0.86272 0.4364 0.0
C2690 C 0.22882 0.84797 0.42863 0.0
C2691 C 0.2431 0.86693 0.43128 0.0
C2692 C 0.24115 0.87072 0.4209 0.0
C2693 C 0.23989 0.86654 0.42567 0.0
C2694 C 0.24889 0.87565 0.42729 0.0
C2695 C 0.24563 0.87535 0.42168 0.0
C2696 C 0.24762 0.87148 0.43205 0.0
C2697 C 0.23643 0.84818 0.45505 0.0
C2698 C 0.23818 0.85453 0.46413 0.0
C2699 C 0.23947 0.84345 0.46473 0.0
C2700 C 0.23795 0.84293 0.45849 0.0
C2701 C 0.23947 0.84924 0.46767 0.0
C2702 C 0.23667 0.85401 0.45787 0.0
C2703 C 0.23419 0.84736 0.44868 0.0
O2704 O 0.22673 0.85256 0.432 0.0
O2705 O 0.23463 0.84665 0.42975 0.0
O2706 O 0.23834 0.84582 0.44454 0.0
O2707 O 0.2302 0.85147 0.44668 0.0
H2708 H 0.22642 0.83964 0.43763 0.0
H2709 H 0.21913 0.83104 0.43727 0.0
H2710 H 0.21441 0.83588 0.4185 0.0
H2711 H 0.22183 0.84442 0.41888 0.0
H2712 H 0.23852 0.87039 0.41667 0.0
H2713 H 0.23638 0.86304 0.425 0.0
H2714 H 0.25244 0.87909 0.42801 0.0
H2715 H 0.25016 0.87182 0.43634 0.0
H2716 H 0.23809 0.85905 0.46625 0.0
H2717 H 0.24057 0.83929 0.46728 0.0
H2718 H 0.23782 0.83839 0.45639 0.0
H2719 H 0.23553 0.85813 0.45529 0.0
C2720 C 0.15957 0.22445 0.42898 0.0
C2721 C 0.16331 0.22355 0.43419 0.0
C2722 C 0.16943 0.21597 0.42859 0.0
C2723 C 0.1682 0.21936 0.43399 0.0
C2724 C 0.16572 0.21697 0.42336 0.0
C2725 C 0.16082 0.22117 0.42356 0.0
U2726 U 0.14919 0.23476 0.43842 0.0
O2727 O 0.14491 0.24373 0.43632 0.0
O2728 O 0.13911 0.23574 0.43856 0.0
C2729 C 0.13929 0.24147 0.4366 0.0
C2730 C 0.15425 0.22863 0.42929 0.0
C2731 C 0.13532 0.24285 0.43128 0.0
C2732 C 0.13181 0.24061 0.42087 0.0
C2733 C 0.13573 0.23936 0.42584 0.0
C2734 C 0.12712 0.24894 0.42669 0.0
C2735 C 0.12744 0.24541 0.42125 0.0
C2736 C 0.13102 0.24766 0.43166 0.0
C2737 C 0.153 0.23613 0.4557 0.0
C2738 C 0.14605 0.2399 0.46366 0.0
C2739 C 0.15673 0.23771 0.46613 0.0
C2740 C 0.1578 0.23598 0.46002 0.0
C2741 C 0.15083 0.23962 0.46805 0.0
C2742 C 0.14713 0.23818 0.45753 0.0
C2743 C 0.15417 0.23387 0.44942 0.0
O2744 O 0.14956 0.22652 0.43251 0.0
O2745 O 0.15556 0.23442 0.43052 0.0
O2746 O 0.15587 0.23803 0.44535 0.0
O2747 O 0.15012 0.2299 0.44726 0.0
H2748 H 0.1624 0.22605 0.43842 0.0
H2749 H 0.17102 0.21877 0.43808 0.0
H2750 H 0.16649 0.21438 0.41915 0.0
H2751 H 0.15796 0.22179 0.41951 0.0
H2752 H 0.13222 0.23786 0.41672 0.0
H2753 H 0.13905 0.23564 0.42546 0.0
H2754 H 0.12376 0.25261 0.42715 0.0
H2755 H 0.13065 0.25039 0.43583 0.0
H2756 H 0.14147 0.24141 0.46498 0.0
H2757 H 0.1605 0.23735 0.4694 0.0
H2758 H 0.16235 0.23439 0.45869 0.0
H2759 H 0.14337 0.23835 0.45424 0.0
C2760 C 0.22472 0.15933 0.57299 0.0
C2761 C 0.22401 0.16319 0.56785 0.0
C2762 C 0.21636 0.16929 0.57338 0.0
C2763 C 0.21988 0.16814 0.56805 0.0
C2764 C 0.21718 0.16545 0.57856 0.0
C2765 C 0.22132 0.1605 0.57835 0.0
U2766 U 0.23483 0.14886 0.56346 0.0
O2767 O 0.24368 0.14431 0.56551 0.0
O2768 O 0.23555 0.13875 0.56314 0.0
C2769 C 0.24129 0.13875 0.5651 0.0
C2770 C 0.22878 0.15391 0.57264 0.0
C2771 C 0.24255 0.13463 0.57033 0.0
C2772 C 0.24081 0.13149 0.58095 0.0
C2773 C 0.23972 0.13558 0.57607 0.0
C2774 C 0.24763 0.12552 0.5744 0.0
C2775 C 0.24475 0.12638 0.58016 0.0
C2776 C 0.24653 0.12961 0.56954 0.0
C2777 C 0.23634 0.15288 0.54624 0.0
C2778 C 0.2401 0.14596 0.53826 0.0
C2779 C 0.23787 0.15664 0.53581 0.0
C2780 C 0.23616 0.15768 0.54193 0.0
C2781 C 0.2398 0.15075 0.53388 0.0
C2782 C 0.2384 0.14702 0.5444 0.0
C2783 C 0.23409 0.15403 0.55253 0.0
O2784 O 0.22659 0.14932 0.56935 0.0
O2785 O 0.23461 0.15511 0.57146 0.0
O2786 O 0.23829 0.15555 0.55663 0.0
O2787 O 0.23002 0.15005 0.55463 0.0
H2788 H 0.2266 0.16234 0.56366 0.0
H2789 H 0.21943 0.17105 0.56401 0.0
H2790 H 0.2145 0.16617 0.58271 0.0
H2791 H 0.22179 0.15753 0.58235 0.0
H2792 H 0.23847 0.13226 0.5853 0.0
H2793 H 0.23662 0.13944 0.57676 0.0
H2794 H 0.25076 0.1217 0.57366 0.0
H2795 H 0.24877 0.12882 0.56513 0.0
H2796 H 0.24162 0.14139 0.53693 0.0
H2797 H 0.23749 0.16041 0.53255 0.0
H2798 H 0.23456 0.16223 0.54328 0.0
H2799 H 0.23859 0.14325 0.54768 0.0
C2800 C 0.84175 0.22474 0.57355 0.0
C2801 C 0.83812 0.22349 0.56834 0.0
C2802 C 0.8315 0.21677 0.57444 0.0
C2803 C 0.83304 0.21955 0.56878 0.0
C2804 C 0.8351 0.21813 0.57968 0.0
C2805 C 0.84019 0.22208 0.57923 0.0
U2806 U 0.85251 0.23424 0.56367 0.0
O2807 O 0.85745 0.24292 0.56545 0.0
O2808 O 0.86265 0.23449 0.5633 0.0
C2809 C 0.8629 0.24026 0.56514 0.0
C2810 C 0.84729 0.2286 0.57302 0.0
C2811 C 0.86715 0.24148 0.5703 0.0
C2812 C 0.86914 0.24349 0.58117 0.0
C2813 C 0.86498 0.2424 0.57634 0.0
C2814 C 0.87767 0.24267 0.57399 0.0
C2815 C 0.87553 0.24361 0.58004 0.0
C2816 C 0.87351 0.24164 0.56917 0.0
C2817 C 0.84847 0.23556 0.54645 0.0
C2818 C 0.85547 0.23904 0.53841 0.0
C2819 C 0.84474 0.23706 0.536 0.0
C2820 C 0.84365 0.23545 0.54215 0.0
C2821 C 0.85067 0.23882 0.53404 0.0
C2822 C 0.85437 0.23744 0.54458 0.0
C2823 C 0.84725 0.23347 0.55278 0.0
O2824 O 0.85176 0.22616 0.56974 0.0
O2825 O 0.84628 0.23444 0.57169 0.0
O2826 O 0.84592 0.23781 0.5568 0.0
O2827 O 0.85107 0.22929 0.55494 0.0
H2828 H 0.83929 0.22549 0.56391 0.0
H2829 H 0.83042 0.21854 0.56464 0.0
H2830 H 0.83399 0.21613 0.58412 0.0
H2831 H 0.84294 0.223 0.5833 0.0
H2832 H 0.86736 0.24414 0.58579 0.0
H2833 H 0.86009 0.24224 0.57734 0.0
H2834 H 0.88256 0.2428 0.57296 0.0
H2835 H 0.87527 0.24093 0.56454 0.0
H2836 H 0.86008 0.24043 0.53706 0.0
H2837 H 0.84096 0.23675 0.53275 0.0
H2838 H 0.83907 0.23399 0.54351 0.0
H2839 H 0.85814 0.23758 0.54786 0.0
C2840 C 0.15981 0.77737 0.5731 0.0
C2841 C 0.16339 0.77872 0.56788 0.0
C2842 C 0.16982 0.78564 0.57397 0.0
C2843 C 0.16835 0.78281 0.56831 0.0
C2844 C 0.16623 0.78422 0.5792 0.0
C2845 C 0.16127 0.78011 0.57876 0.0
U2846 U 0.14945 0.76728 0.56334 0.0
O2847 O 0.14513 0.75829 0.56528 0.0
O2848 O 0.13936 0.76633 0.56315 0.0
C2849 C 0.13952 0.76057 0.56502 0.0
C2850 C 0.15447 0.77323 0.57261 0.0
C2851 C 0.13555 0.75913 0.57032 0.0
C2852 C 0.1321 0.76119 0.58079 0.0
C2853 C 0.13602 0.7625 0.57583 0.0
C2854 C 0.12728 0.75306 0.57482 0.0
C2855 C 0.12767 0.75646 0.58033 0.0
C2856 C 0.13118 0.75439 0.56986 0.0
C2857 C 0.15329 0.76609 0.54607 0.0
C2858 C 0.14635 0.7623 0.53812 0.0
C2859 C 0.157 0.7646 0.53561 0.0
C2860 C 0.15807 0.76632 0.54173 0.0
C2861 C 0.15111 0.76264 0.53371 0.0
C2862 C 0.14744 0.764 0.54426 0.0
C2863 C 0.15448 0.7683 0.55237 0.0
O2864 O 0.14984 0.77542 0.56938 0.0
O2865 O 0.15578 0.76746 0.57128 0.0
O2866 O 0.15615 0.76408 0.55639 0.0
O2867 O 0.15044 0.77225 0.55457 0.0
H2868 H 0.1623 0.77665 0.56346 0.0
H2869 H 0.17096 0.78387 0.56418 0.0
H2870 H 0.16728 0.78625 0.58364 0.0
H2871 H 0.15855 0.77911 0.58283 0.0
H2872 H 0.13256 0.76385 0.58499 0.0
H2873 H 0.13939 0.76616 0.57628 0.0
H2874 H 0.12387 0.74944 0.57429 0.0
H2875 H 0.13076 0.75175 0.56563 0.0
H2876 H 0.14178 0.76075 0.53682 0.0
H2877 H 0.16075 0.76501 0.53233 0.0
H2878 H 0.16261 0.76794 0.54305 0.0
H2879 H 0.1437 0.76377 0.54757 0.0
C2880 C 0.42817 0.22401 0.15844 0.0
C2881 C 0.43339 0.22258 0.16198 0.0
C2882 C 0.4273 0.21557 0.16831 0.0
C2883 C 0.43296 0.2184 0.16688 0.0
C2884 C 0.42206 0.21708 0.16478 0.0
C2885 C 0.4225 0.22127 0.15988 0.0
U2886 U 0.43789 0.23437 0.14833 0.0
O2887 O 0.43819 0.23545 0.13825 0.0
O2888 O 0.43589 0.24338 0.14411 0.0
C2889 C 0.43626 0.24119 0.13846 0.0
C2890 C 0.42865 0.22823 0.15316 0.0
C2891 C 0.43101 0.24264 0.13442 0.0
C2892 C 0.42048 0.24083 0.13105 0.0
C2893 C 0.42539 0.2395 0.13502 0.0
C2894 C 0.42676 0.24852 0.1259 0.0
C2895 C 0.42111 0.24535 0.12642 0.0
C2896 C 0.43166 0.24717 0.12986 0.0
C2897 C 0.45518 0.23581 0.1525 0.0
C2898 C 0.46472 0.2362 0.14659 0.0
C2899 C 0.46431 0.24068 0.15681 0.0
C2900 C 0.45812 0.23898 0.15731 0.0
C2901 C 0.46774 0.2392 0.1515 0.0
C2902 C 0.45851 0.23453 0.14708 0.0
C2903 C 0.44883 0.23349 0.15345 0.0
O2904 O 0.42989 0.234 0.15456 0.0
O2905 O 0.43197 0.22614 0.14854 0.0
O2906 O 0.44672 0.22951 0.14938 0.0
O2907 O 0.4447 0.23759 0.15517 0.0
H2908 H 0.43782 0.22465 0.16091 0.0
H2909 H 0.4371 0.21729 0.16945 0.0
H2910 H 0.41762 0.21504 0.16581 0.0
H2911 H 0.41842 0.22233 0.1572 0.0
H2912 H 0.41617 0.23836 0.13162 0.0
H2913 H 0.4248 0.236 0.13855 0.0
H2914 H 0.42743 0.25196 0.12234 0.0
H2915 H 0.43598 0.24962 0.12933 0.0
H2916 H 0.46722 0.23493 0.14245 0.0
H2917 H 0.46645 0.24308 0.16064 0.0
H2918 H 0.45565 0.24001 0.16154 0.0
H2919 H 0.45637 0.23208 0.14328 0.0
C2920 C 0.77696 0.42838 0.15924 0.0
C2921 C 0.7783 0.43356 0.16287 0.0
C2922 C 0.7852 0.42741 0.16926 0.0
C2923 C 0.78238 0.43308 0.16784 0.0
C2924 C 0.78378 0.42221 0.16563 0.0
C2925 C 0.7797 0.4227 0.16065 0.0
U2926 U 0.76702 0.43834 0.14899 0.0
O2927 O 0.76609 0.43872 0.13891 0.0
O2928 O 0.758 0.43662 0.14464 0.0
C2929 C 0.76028 0.43697 0.13903 0.0
C2930 C 0.77284 0.42893 0.15389 0.0
C2931 C 0.75871 0.43182 0.1349 0.0
C2932 C 0.76044 0.4214 0.13116 0.0
C2933 C 0.76185 0.42617 0.13527 0.0
C2934 C 0.75266 0.42784 0.12636 0.0
C2935 C 0.75586 0.42219 0.12662 0.0
C2936 C 0.75409 0.43261 0.13046 0.0
C2937 C 0.76607 0.45557 0.15305 0.0
C2938 C 0.76232 0.4636 0.14619 0.0
C2939 C 0.76476 0.46602 0.15683 0.0
C2940 C 0.7664 0.45987 0.15785 0.0
C2941 C 0.76276 0.46798 0.15097 0.0
C2942 C 0.76395 0.45744 0.14722 0.0
C2943 C 0.76819 0.44923 0.15417 0.0
O2944 O 0.76708 0.43031 0.1552 0.0
O2945 O 0.77507 0.43219 0.14929 0.0
O2946 O 0.77212 0.44702 0.15011 0.0
O2947 O 0.76392 0.44524 0.15579 0.0
H2948 H 0.77625 0.438 0.16181 0.0
H2949 H 0.78343 0.43719 0.17048 0.0
H2950 H 0.78582 0.41776 0.16664 0.0
H2951 H 0.7787 0.41865 0.15789 0.0
H2952 H 0.76303 0.41713 0.13145 0.0
H2953 H 0.76544 0.42549 0.13868 0.0
H2954 H 0.74904 0.42858 0.123 0.0
H2955 H 0.7516 0.43693 0.13014 0.0
H2956 H 0.76074 0.46495 0.14165 0.0
H2957 H 0.76524 0.46927 0.16059 0.0
H2958 H 0.76805 0.4585 0.16237 0.0
H2959 H 0.76364 0.45416 0.14347 0.0
C2960 C 0.57221 0.77705 0.15889 0.0
C2961 C 0.56699 0.77796 0.16261 0.0
C2962 C 0.57259 0.78548 0.16879 0.0
C2963 C 0.56718 0.78213 0.16752 0.0
C2964 C 0.57784 0.78448 0.1651 0.0
C2965 C 0.57764 0.7803 0.16018 0.0
U2966 U 0.56285 0.76663 0.14855 0.0
O2967 O 0.56269 0.76562 0.13847 0.0
O2968 O 0.56504 0.75767 0.14428 0.0
C2969 C 0.56471 0.75991 0.13866 0.0
C2970 C 0.57192 0.77287 0.15357 0.0
C2971 C 0.57004 0.75858 0.13468 0.0
C2972 C 0.58043 0.76089 0.13115 0.0
C2973 C 0.57545 0.76212 0.13507 0.0
C2974 C 0.57469 0.75249 0.12651 0.0
C2975 C 0.5801 0.75607 0.12682 0.0
C2976 C 0.56971 0.75375 0.13041 0.0
C2977 C 0.54558 0.76497 0.15246 0.0
C2978 C 0.53719 0.76217 0.14556 0.0
C2979 C 0.53556 0.76221 0.15662 0.0
C2980 C 0.54168 0.76402 0.15752 0.0
C2981 C 0.53321 0.76135 0.15063 0.0
C2982 C 0.54334 0.76395 0.14647 0.0
C2983 C 0.55185 0.76734 0.15357 0.0
O2984 O 0.57077 0.76707 0.15488 0.0
O2985 O 0.56864 0.77494 0.1489 0.0
O2986 O 0.55394 0.77135 0.14952 0.0
O2987 O 0.55599 0.76326 0.15527 0.0
H2988 H 0.56275 0.77547 0.16167 0.0
H2989 H 0.56308 0.78272 0.17032 0.0
H2990 H 0.58205 0.78704 0.16591 0.0
H2991 H 0.5817 0.77967 0.15734 0.0
H2992 H 0.58456 0.76368 0.13155 0.0
H2993 H 0.5758 0.76585 0.13837 0.0
H2994 H 0.57426 0.74879 0.12318 0.0
H2995 H 0.56556 0.75097 0.13005 0.0
H2996 H 0.53554 0.76148 0.1409 0.0
H2997 H 0.5326 0.7617 0.16062 0.0
H2998 H 0.54333 0.7648 0.16217 0.0
H2999 H 0.54629 0.76463 0.1425 0.0
C3000 C 0.22451 0.57287 0.1589 0.0
C3001 C 0.22318 0.56764 0.16247 0.0
C3002 C 0.21632 0.57372 0.16897 0.0
C3003 C 0.21912 0.56806 0.16746 0.0
C3004 C 0.21774 0.57896 0.16541 0.0
C3005 C 0.2218 0.57853 0.16041 0.0
U3006 U 0.23465 0.56319 0.1485 0.0
O3007 O 0.23547 0.56294 0.1384 0.0
O3008 O 0.24355 0.56526 0.14405 0.0
C3009 C 0.2412 0.56492 0.13847 0.0
C3010 C 0.2286 0.5724 0.15352 0.0
C3011 C 0.24248 0.57023 0.13445 0.0
C3012 C 0.24031 0.58071 0.13113 0.0
C3013 C 0.23915 0.57575 0.13509 0.0
C3014 C 0.2482 0.57473 0.12594 0.0
C3015 C 0.24483 0.58026 0.12649 0.0
C3016 C 0.24702 0.56976 0.12988 0.0
C3017 C 0.23623 0.54594 0.1525 0.0
C3018 C 0.23827 0.53727 0.14568 0.0
C3019 C 0.23951 0.5361 0.15672 0.0
C3020 C 0.23779 0.54225 0.15757 0.0
C3021 C 0.23968 0.5335 0.15078 0.0
C3022 C 0.23658 0.54344 0.14652 0.0
C3023 C 0.23393 0.55224 0.15361 0.0
O3024 O 0.23441 0.57117 0.15477 0.0
O3025 O 0.22641 0.56908 0.14894 0.0
O3026 O 0.22985 0.55435 0.14964 0.0
O3027 O 0.23808 0.55636 0.15521 0.0
H3028 H 0.22522 0.56322 0.16134 0.0
H3029 H 0.21807 0.56391 0.17005 0.0
H3030 H 0.21573 0.5834 0.1665 0.0
H3031 H 0.2228 0.58262 0.15771 0.0
H3032 H 0.23769 0.58493 0.13173 0.0
H3033 H 0.23565 0.57619 0.13862 0.0
H3034 H 0.25166 0.5742 0.12237 0.0
H3035 H 0.24962 0.56553 0.12932 0.0
H3036 H 0.23841 0.53542 0.14104 0.0
H3037 H 0.2405 0.53331 0.16075 0.0
H3038 H 0.23753 0.54409 0.16221 0.0
H3039 H 0.23543 0.54622 0.14253 0.0
C3040 C 0.42835 0.77721 0.84291 0.0
C3041 C 0.43357 0.7786 0.83936 0.0
C3042 C 0.4275 0.78562 0.83301 0.0
C3043 C 0.43316 0.78277 0.83445 0.0
C3044 C 0.42226 0.78414 0.83656 0.0
C3045 C 0.42269 0.77997 0.84147 0.0
U3046 U 0.43808 0.76688 0.85302 0.0
O3047 O 0.43842 0.76582 0.8631 0.0
O3048 O 0.4361 0.75787 0.85727 0.0
C3049 C 0.43649 0.76007 0.86291 0.0
C3050 C 0.42883 0.77301 0.8482 0.0
C3051 C 0.43125 0.75864 0.86696 0.0
C3052 C 0.42072 0.76047 0.87035 0.0
C3053 C 0.42562 0.76178 0.86636 0.0
C3054 C 0.42701 0.7528 0.87552 0.0
C3055 C 0.42136 0.75596 0.87499 0.0
C3056 C 0.4319 0.75413 0.87154 0.0
C3057 C 0.45529 0.76545 0.84885 0.0
C3058 C 0.46373 0.76254 0.85563 0.0
C3059 C 0.4653 0.76284 0.84457 0.0
C3060 C 0.45917 0.76464 0.84375 0.0
C3061 C 0.46768 0.76185 0.85052 0.0
C3062 C 0.45757 0.7643 0.8548 0.0
C3063 C 0.44899 0.76777 0.84783 0.0
O3064 O 0.43005 0.76723 0.84682 0.0
O3065 O 0.43216 0.7751 0.85282 0.0
O3066 O 0.44691 0.77172 0.85193 0.0
O3067 O 0.44487 0.76365 0.84616 0.0
H3068 H 0.43799 0.77652 0.84043 0.0
H3069 H 0.4373 0.78386 0.83188 0.0
H3070 H 0.41783 0.78619 0.83553 0.0
H3071 H 0.41861 0.77894 0.84417 0.0
H3072 H 0.41642 0.76294 0.86978 0.0
H3073 H 0.42504 0.76527 0.86283 0.0
H3074 H 0.42768 0.74936 0.87908 0.0
H3075 H 0.43622 0.75167 0.87207 0.0
H3076 H 0.46541 0.76174 0.86027 0.0
H3077 H 0.46824 0.76244 0.84055 0.0
H3078 H 0.45749 0.76552 0.83912 0.0
H3079 H 0.45463 0.76486 0.8588 0.0
C3080 C 0.2248 0.42846 0.84239 0.0
C3081 C 0.22349 0.43362 0.83872 0.0
C3082 C 0.21663 0.42744 0.83232 0.0
C3083 C 0.21945 0.43312 0.83373 0.0
C3084 C 0.21803 0.42226 0.83598 0.0
C3085 C 0.22208 0.42277 0.84098 0.0
U3086 U 0.2347 0.43844 0.85269 0.0
O3087 O 0.23543 0.4389 0.8628 0.0
O3088 O 0.24359 0.43663 0.85725 0.0
C3089 C 0.24121 0.43706 0.86281 0.0
C3090 C 0.22886 0.42904 0.84779 0.0
C3091 C 0.24258 0.43191 0.86699 0.0
C3092 C 0.24107 0.42128 0.87024 0.0
C3093 C 0.23989 0.42608 0.86609 0.0
C3094 C 0.24768 0.42806 0.87618 0.0
C3095 C 0.24494 0.42223 0.87537 0.0
C3096 C 0.2465 0.43285 0.87203 0.0
C3097 C 0.2359 0.45561 0.8485 0.0
C3098 C 0.23967 0.46365 0.85535 0.0
C3099 C 0.23725 0.46605 0.8447 0.0
C3100 C 0.23559 0.45991 0.84369 0.0
C3101 C 0.23925 0.46802 0.85056 0.0
C3102 C 0.23802 0.45749 0.85433 0.0
C3103 C 0.23374 0.44928 0.8474 0.0
O3104 O 0.23465 0.43035 0.84655 0.0
O3105 O 0.22658 0.43237 0.85232 0.0
O3106 O 0.22971 0.44715 0.85139 0.0
O3107 O 0.23801 0.44524 0.84591 0.0
H3108 H 0.22554 0.43806 0.83977 0.0
H3109 H 0.21841 0.43721 0.83106 0.0
H3110 H 0.216 0.4178 0.83498 0.0
H3111 H 0.22306 0.41874 0.84377 0.0
H3112 H 0.23884 0.41687 0.86952 0.0
H3113 H 0.23683 0.42528 0.86222 0.0
H3114 H 0.25076 0.42893 0.88002 0.0
H3115 H 0.24863 0.43732 0.87278 0.0
H3116 H 0.24125 0.465 0.85989 0.0
H3117 H 0.23679 0.4693 0.84093 0.0
H3118 H 0.23394 0.45854 0.83918 0.0
H3119 H 0.23831 0.45421 0.85809 0.0
C3120 C 0.57253 0.22478 0.84246 0.0
C3121 C 0.56731 0.22393 0.83873 0.0
C3122 C 0.57287 0.21642 0.83249 0.0
C3123 C 0.56748 0.2198 0.83379 0.0
C3124 C 0.57812 0.21737 0.83619 0.0
C3125 C 0.57795 0.22151 0.84114 0.0
U3126 U 0.5631 0.23488 0.85302 0.0
O3127 O 0.563 0.23573 0.86312 0.0
O3128 O 0.56515 0.24381 0.85741 0.0
C3129 C 0.56492 0.24148 0.863 0.0
C3130 C 0.57224 0.22888 0.84784 0.0
C3131 C 0.57026 0.24284 0.86696 0.0
C3132 C 0.58069 0.24061 0.8704 0.0
C3133 C 0.5757 0.23937 0.86649 0.0
C3134 C 0.57487 0.24886 0.8752 0.0
C3135 C 0.58032 0.24536 0.87482 0.0
C3136 C 0.56988 0.2476 0.8713 0.0
C3137 C 0.54578 0.23618 0.8493 0.0
C3138 C 0.53777 0.23968 0.85631 0.0
C3139 C 0.53535 0.23778 0.84556 0.0
C3140 C 0.54148 0.23613 0.84448 0.0
C3141 C 0.5334 0.2395 0.85151 0.0
C3142 C 0.54392 0.23804 0.85521 0.0
C3143 C 0.55208 0.23398 0.84808 0.0
O3144 O 0.57097 0.23468 0.84661 0.0
O3145 O 0.56906 0.22669 0.85252 0.0
O3146 O 0.55429 0.22998 0.85207 0.0
O3147 O 0.55611 0.2382 0.84642 0.0
H3148 H 0.56308 0.22642 0.83969 0.0
H3149 H 0.56338 0.21924 0.83098 0.0
H3150 H 0.58233 0.21479 0.83537 0.0
H3151 H 0.58201 0.2221 0.844 0.0
H3152 H 0.58485 0.23787 0.86995 0.0
H3153 H 0.57608 0.23569 0.86313 0.0
H3154 H 0.57441 0.2525 0.87859 0.0
H3155 H 0.5657 0.25032 0.87172 0.0
H3156 H 0.53642 0.24105 0.86093 0.0
H3157 H 0.5321 0.2375 0.84178 0.0
H3158 H 0.54284 0.23468 0.83989 0.0
H3159 H 0.5472 0.23813 0.85899 0.0
C3160 C 0.77732 0.57207 0.84252 0.0
C3161 C 0.77803 0.56685 0.83876 0.0
C3162 C 0.7856 0.5723 0.83249 0.0
C3163 C 0.78213 0.56697 0.83379 0.0
C3164 C 0.7848 0.57755 0.83624 0.0
C3165 C 0.78069 0.57742 0.84122 0.0
U3166 U 0.76677 0.56299 0.85303 0.0
O3167 O 0.76596 0.56278 0.86312 0.0
O3168 O 0.75799 0.56552 0.85749 0.0
C3169 C 0.76036 0.56511 0.86306 0.0
C3170 C 0.77322 0.57186 0.84792 0.0
C3171 C 0.75927 0.57046 0.86714 0.0
C3172 C 0.76304 0.57904 0.87333 0.0
C3173 C 0.76417 0.57412 0.8693 0.0
C3174 C 0.75209 0.57683 0.87295 0.0
C3175 C 0.757 0.58043 0.87522 0.0
C3176 C 0.75323 0.57188 0.86897 0.0
C3177 C 0.7645 0.54577 0.84916 0.0
C3178 C 0.76236 0.53715 0.85602 0.0
C3179 C 0.76092 0.536 0.845 0.0
C3180 C 0.76276 0.54212 0.84412 0.0
C3181 C 0.7608 0.53342 0.85095 0.0
C3182 C 0.76417 0.54329 0.85514 0.0
C3183 C 0.76701 0.55198 0.848 0.0
O3184 O 0.76736 0.5709 0.84669 0.0
O3185 O 0.77527 0.5685 0.85253 0.0
O3186 O 0.7712 0.55395 0.85192 0.0
O3187 O 0.76301 0.55625 0.8464 0.0
H3188 H 0.77545 0.56268 0.83971 0.0
H3189 H 0.78257 0.56288 0.83095 0.0
H3190 H 0.78745 0.5817 0.83542 0.0
H3191 H 0.78021 0.58148 0.8441 0.0
H3192 H 0.7669 0.58177 0.87494 0.0
H3193 H 0.76888 0.57318 0.86792 0.0
H3194 H 0.74739 0.57776 0.87437 0.0
H3195 H 0.74939 0.56912 0.86736 0.0
H3196 H 0.76225 0.53531 0.86066 0.0
H3197 H 0.75982 0.53324 0.84098 0.0
H3198 H 0.763 0.54394 0.83947 0.0
H3199 H 0.76545 0.54604 0.85911 0.0
C3200 C 0.15872 0.42814 0.22414 0.0
C3201 C 0.16234 0.43335 0.22285 0.0
C3202 C 0.16877 0.42728 0.21591 0.0
C3203 C 0.16733 0.43292 0.21878 0.0
C3204 C 0.16514 0.42206 0.21727 0.0
C3205 C 0.16016 0.42249 0.22135 0.0
U3206 U 0.14845 0.43786 0.23434 0.0
O3207 O 0.13836 0.43816 0.23528 0.0
O3208 O 0.14411 0.43585 0.2433 0.0
C3209 C 0.1385 0.4362 0.24103 0.0
C3210 C 0.15337 0.42862 0.22826 0.0
C3211 C 0.13446 0.43093 0.24239 0.0
C3212 C 0.13089 0.42053 0.24022 0.0
C3213 C 0.13485 0.42547 0.23894 0.0
C3214 C 0.1262 0.42644 0.24848 0.0
C3215 C 0.1265 0.42097 0.24499 0.0
C3216 C 0.13014 0.43137 0.24718 0.0
C3217 C 0.15265 0.45514 0.23583 0.0
C3218 C 0.14674 0.46469 0.23617 0.0
C3219 C 0.15698 0.46431 0.24063 0.0
C3220 C 0.15747 0.4581 0.23897 0.0
C3221 C 0.15166 0.46772 0.23913 0.0
C3222 C 0.14722 0.45847 0.23454 0.0
C3223 C 0.1536 0.44879 0.23354 0.0
O3224 O 0.15468 0.42985 0.23406 0.0
O3225 O 0.14879 0.43195 0.22611 0.0
O3226 O 0.14958 0.44669 0.22951 0.0
O3227 O 0.15525 0.44466 0.23766 0.0
H3228 H 0.16127 0.43776 0.22496 0.0
H3229 H 0.16996 0.43705 0.21778 0.0
H3230 H 0.16618 0.41763 0.2152 0.0
H3231 H 0.15741 0.41843 0.2223 0.0
H3232 H 0.13129 0.41636 0.2375 0.0
H3233 H 0.13819 0.42503 0.23525 0.0
H3234 H 0.12283 0.42695 0.25213 0.0
H3235 H 0.12979 0.43556 0.24988 0.0
H3236 H 0.14261 0.46719 0.2349 0.0
H3237 H 0.16081 0.46646 0.24301 0.0
H3238 H 0.16169 0.45564 0.24002 0.0
H3239 H 0.14342 0.45632 0.23212 0.0
C3240 C 0.57256 0.15895 0.22428 0.0
C3241 C 0.56734 0.16266 0.22337 0.0
C3242 C 0.57294 0.16883 0.21582 0.0
C3243 C 0.56753 0.16757 0.21919 0.0
C3244 C 0.57818 0.16513 0.21683 0.0
C3245 C 0.57799 0.16022 0.22102 0.0
U3246 U 0.56319 0.14862 0.2347 0.0
O3247 O 0.56302 0.13854 0.23571 0.0
O3248 O 0.56537 0.14435 0.24366 0.0
C3249 C 0.56504 0.13872 0.24143 0.0
C3250 C 0.57226 0.15362 0.22845 0.0
C3251 C 0.57036 0.13474 0.24276 0.0
C3252 C 0.58075 0.1312 0.24046 0.0
C3253 C 0.57577 0.13512 0.23923 0.0
C3254 C 0.57498 0.12655 0.24884 0.0
C3255 C 0.5804 0.12685 0.24527 0.0
C3256 C 0.57001 0.13046 0.24758 0.0
C3257 C 0.54586 0.15264 0.23634 0.0
C3258 C 0.53632 0.14672 0.23669 0.0
C3259 C 0.5367 0.15693 0.24119 0.0
C3260 C 0.54291 0.15744 0.23952 0.0
C3261 C 0.53329 0.15162 0.23967 0.0
C3262 C 0.54254 0.14722 0.23504 0.0
C3263 C 0.55219 0.15363 0.234 0.0
O3264 O 0.57112 0.15494 0.23426 0.0
O3265 O 0.56899 0.14896 0.22639 0.0
O3266 O 0.55429 0.14961 0.22997 0.0
O3267 O 0.55635 0.15535 0.23806 0.0
H3268 H 0.5631 0.16173 0.22586 0.0
H3269 H 0.56344 0.17037 0.21859 0.0
H3270 H 0.5824 0.16593 0.21426 0.0
H3271 H 0.58204 0.15738 0.22165 0.0
H3272 H 0.58488 0.1316 0.23768 0.0
H3273 H 0.57613 0.13844 0.2355 0.0
H3274 H 0.57454 0.12321 0.25252 0.0
H3275 H 0.56586 0.1301 0.25035 0.0
H3276 H 0.53383 0.14259 0.23539 0.0
H3277 H 0.53455 0.16075 0.24359 0.0
H3278 H 0.54536 0.16167 0.24057 0.0
H3279 H 0.54469 0.14343 0.23259 0.0
C3280 C 0.84261 0.57298 0.22464 0.0
C3281 C 0.83871 0.56787 0.224 0.0
C3282 C 0.83257 0.5734 0.21638 0.0
C3283 C 0.83372 0.56808 0.21992 0.0
C3284 C 0.83645 0.57856 0.21714 0.0
C3285 C 0.84144 0.57834 0.22123 0.0
U3286 U 0.85308 0.56348 0.23479 0.0
O3287 O 0.86319 0.5631 0.23543 0.0
O3288 O 0.85772 0.5656 0.24357 0.0
C3289 C 0.86325 0.56512 0.24115 0.0
C3290 C 0.84806 0.57263 0.22866 0.0
C3291 C 0.86742 0.57034 0.24231 0.0
C3292 C 0.87059 0.58093 0.24047 0.0
C3293 C 0.86648 0.57606 0.23944 0.0
C3294 C 0.87658 0.57441 0.2473 0.0
C3295 C 0.87572 0.58015 0.24438 0.0
C3296 C 0.87247 0.56955 0.24627 0.0
C3297 C 0.8488 0.54624 0.23659 0.0
C3298 C 0.85471 0.5367 0.23696 0.0
C3299 C 0.84444 0.53707 0.24135 0.0
C3300 C 0.84396 0.54328 0.2397 0.0
C3301 C 0.84977 0.53366 0.23987 0.0
C3302 C 0.85423 0.54293 0.23533 0.0
C3303 C 0.84783 0.55258 0.23428 0.0
O3304 O 0.8469 0.57153 0.23452 0.0
O3305 O 0.8526 0.56926 0.22647 0.0
O3306 O 0.85175 0.5546 0.23011 0.0
O3307 O 0.84634 0.55677 0.2384 0.0
H3308 H 0.83956 0.56369 0.2266 0.0
H3309 H 0.83078 0.56406 0.21952 0.0
H3310 H 0.83574 0.5827 0.21444 0.0
H3311 H 0.84444 0.58232 0.22165 0.0
H3312 H 0.86982 0.58526 0.2381 0.0
H3313 H 0.8626 0.57673 0.23636 0.0
H3314 H 0.88042 0.57368 0.25041 0.0
H3315 H 0.87325 0.56517 0.24854 0.0
H3316 H 0.85885 0.53421 0.2357 0.0
H3317 H 0.8406 0.53491 0.2437 0.0
H3318 H 0.83973 0.54574 0.24072 0.0
H3319 H 0.85805 0.54509 0.23294 0.0
C3320 C 0.42844 0.8429 0.22451 0.0
C3321 C 0.4336 0.83907 0.22378 0.0
C3322 C 0.4281 0.83295 0.21613 0.0
C3323 C 0.43343 0.83414 0.21964 0.0
C3324 C 0.4229 0.83675 0.21696 0.0
C3325 C 0.42307 0.84169 0.22112 0.0
U3326 U 0.43785 0.85323 0.23486 0.0
O3327 O 0.43825 0.86333 0.23565 0.0
O3328 O 0.43567 0.85775 0.24369 0.0
C3329 C 0.4362 0.86332 0.24135 0.0
C3330 C 0.42875 0.84829 0.2286 0.0
C3331 C 0.43102 0.86751 0.24257 0.0
C3332 C 0.42048 0.87087 0.2407 0.0
C3333 C 0.4253 0.8667 0.23964 0.0
C3334 C 0.42704 0.87665 0.24767 0.0
C3335 C 0.42131 0.87593 0.24469 0.0
C3336 C 0.43184 0.87248 0.24661 0.0
C3337 C 0.45507 0.84894 0.23674 0.0
C3338 C 0.46462 0.85483 0.23719 0.0
C3339 C 0.46418 0.84459 0.24164 0.0
C3340 C 0.45798 0.84411 0.23991 0.0
C3341 C 0.46761 0.8499 0.24018 0.0
C3342 C 0.45841 0.85436 0.2355 0.0
C3343 C 0.44875 0.84798 0.23436 0.0
O3344 O 0.4298 0.84706 0.23445 0.0
O3345 O 0.43212 0.85286 0.2265 0.0
O3346 O 0.44676 0.85195 0.23022 0.0
O3347 O 0.44453 0.84644 0.23843 0.0
H3348 H 0.43779 0.83994 0.22637 0.0
H3349 H 0.43749 0.83125 0.21918 0.0
H3350 H 0.41875 0.83601 0.21429 0.0
H3351 H 0.41906 0.84463 0.2216 0.0
H3352 H 0.41616 0.87021 0.23828 0.0
H3353 H 0.4246 0.86288 0.23649 0.0
H3354 H 0.4278 0.88043 0.25085 0.0
H3355 H 0.43622 0.87316 0.24892 0.0
H3356 H 0.46713 0.85896 0.23594 0.0
H3357 H 0.4663 0.84075 0.24403 0.0
H3358 H 0.45551 0.83989 0.24093 0.0
H3359 H 0.45629 0.85817 0.23305 0.0
C3360 C 0.15915 0.57301 0.77719 0.0
C3361 C 0.16273 0.56778 0.77851 0.0
C3362 C 0.16921 0.57386 0.78539 0.0
C3363 C 0.16772 0.5682 0.78257 0.0
C3364 C 0.16563 0.57909 0.784 0.0
C3365 C 0.16064 0.57866 0.77993 0.0
U3366 U 0.14883 0.56329 0.76703 0.0
O3367 O 0.13874 0.56303 0.76611 0.0
O3368 O 0.14448 0.56529 0.75807 0.0
C3369 C 0.13887 0.56497 0.76036 0.0
C3370 C 0.15379 0.57253 0.77307 0.0
C3371 C 0.13485 0.57026 0.75899 0.0
C3372 C 0.13133 0.58068 0.76115 0.0
C3373 C 0.13527 0.57573 0.76242 0.0
C3374 C 0.1266 0.57477 0.75292 0.0
C3375 C 0.12694 0.58025 0.75639 0.0
C3376 C 0.13052 0.56982 0.75422 0.0
C3377 C 0.15297 0.54599 0.76558 0.0
C3378 C 0.14704 0.53646 0.76528 0.0
C3379 C 0.15726 0.5368 0.7608 0.0
C3380 C 0.15777 0.54302 0.76244 0.0
C3381 C 0.15194 0.53341 0.76232 0.0
C3382 C 0.14754 0.54269 0.76689 0.0
C3383 C 0.15394 0.55235 0.76785 0.0
O3384 O 0.15508 0.57129 0.76728 0.0
O3385 O 0.1492 0.56923 0.77524 0.0
O3386 O 0.14994 0.55447 0.77188 0.0
O3387 O 0.1556 0.55647 0.76372 0.0
H3388 H 0.16162 0.56337 0.77644 0.0
H3389 H 0.17033 0.56406 0.7836 0.0
H3390 H 0.1667 0.58353 0.78603 0.0
H3391 H 0.15792 0.58274 0.77895 0.0
H3392 H 0.13176 0.58486 0.76385 0.0
H3393 H 0.13863 0.57615 0.7661 0.0
H3394 H 0.12322 0.57427 0.74927 0.0
H3395 H 0.13014 0.56562 0.75152 0.0
H3396 H 0.1429 0.53398 0.76658 0.0
H3397 H 0.16108 0.53464 0.75842 0.0
H3398 H 0.162 0.54546 0.76138 0.0
H3399 H 0.14375 0.54486 0.76932 0.0
C3400 C 0.42874 0.1596 0.77639 0.0
C3401 C 0.43387 0.16347 0.77713 0.0
C3402 C 0.42829 0.16958 0.78473 0.0
C3403 C 0.43364 0.16842 0.78125 0.0
C3404 C 0.42312 0.16573 0.78389 0.0
C3405 C 0.42335 0.16078 0.77975 0.0
U3406 U 0.43833 0.14913 0.76635 0.0
O3407 O 0.43869 0.13902 0.76567 0.0
O3408 O 0.43634 0.14454 0.75751 0.0
C3409 C 0.43677 0.13899 0.75992 0.0
C3410 C 0.42911 0.15417 0.77234 0.0
C3411 C 0.43159 0.13482 0.75863 0.0
C3412 C 0.42098 0.13158 0.76029 0.0
C3413 C 0.4258 0.13574 0.76138 0.0
C3414 C 0.42768 0.12561 0.75361 0.0
C3415 C 0.42188 0.12643 0.75643 0.0
C3416 C 0.43248 0.12976 0.75471 0.0
C3417 C 0.45555 0.15314 0.7649 0.0
C3418 C 0.46354 0.14618 0.76124 0.0
C3419 C 0.46598 0.15689 0.76335 0.0
C3420 C 0.45985 0.15795 0.76504 0.0
C3421 C 0.46792 0.15098 0.7615 0.0
C3422 C 0.45739 0.14726 0.76292 0.0
C3423 C 0.44925 0.15431 0.76713 0.0
O3424 O 0.43032 0.15536 0.76652 0.0
O3425 O 0.4324 0.14959 0.77457 0.0
O3426 O 0.44713 0.15036 0.77121 0.0
O3427 O 0.44517 0.15582 0.7629 0.0
H3428 H 0.43808 0.16261 0.77456 0.0
H3429 H 0.43768 0.17133 0.78171 0.0
H3430 H 0.41895 0.16645 0.78654 0.0
H3431 H 0.41936 0.1578 0.77926 0.0
H3432 H 0.4166 0.13232 0.76257 0.0
H3433 H 0.42505 0.13962 0.76444 0.0
H3434 H 0.4285 0.12175 0.75054 0.0
H3435 H 0.43692 0.129 0.75254 0.0
H3436 H 0.46487 0.1416 0.75977 0.0
H3437 H 0.46924 0.16066 0.76369 0.0
H3438 H 0.45851 0.16251 0.76658 0.0
H3439 H 0.45411 0.1435 0.76276 0.0
C3440 C 0.84253 0.42826 0.77689 0.0
C3441 C 0.83878 0.43347 0.77773 0.0
C3442 C 0.83266 0.42795 0.78537 0.0
C3443 C 0.83388 0.43331 0.78192 0.0
C3444 C 0.83639 0.42271 0.78444 0.0
C3445 C 0.84129 0.42287 0.78024 0.0
U3446 U 0.85285 0.43759 0.76644 0.0
O3447 O 0.86294 0.43776 0.76543 0.0
O3448 O 0.85711 0.43542 0.75749 0.0
C3449 C 0.86274 0.43577 0.75971 0.0
C3450 C 0.84785 0.42853 0.77271 0.0
C3451 C 0.86675 0.43048 0.75834 0.0
C3452 C 0.8701 0.41996 0.7603 0.0
C3453 C 0.86614 0.4249 0.76157 0.0
C3454 C 0.87525 0.4261 0.75251 0.0
C3455 C 0.87472 0.42051 0.75577 0.0
C3456 C 0.87131 0.43104 0.75379 0.0
C3457 C 0.84887 0.45491 0.76477 0.0
C3458 C 0.85481 0.46445 0.76442 0.0
C3459 C 0.84467 0.46402 0.75974 0.0
C3460 C 0.84413 0.45783 0.76148 0.0
C3461 C 0.84996 0.46744 0.76131 0.0
C3462 C 0.85427 0.45824 0.76614 0.0
C3463 C 0.84785 0.4486 0.76715 0.0
O3464 O 0.84653 0.42967 0.7669 0.0
O3465 O 0.85252 0.4318 0.77476 0.0
O3466 O 0.85187 0.4465 0.77117 0.0
O3467 O 0.84611 0.44443 0.76309 0.0
H3468 H 0.83968 0.43767 0.77518 0.0
H3469 H 0.83106 0.43739 0.78246 0.0
H3470 H 0.83562 0.41853 0.78707 0.0
H3471 H 0.84416 0.41882 0.77966 0.0
H3472 H 0.86952 0.4157 0.76285 0.0
H3473 H 0.86262 0.42439 0.76508 0.0
H3474 H 0.87881 0.42671 0.74905 0.0
H3475 H 0.87185 0.43532 0.75126 0.0
H3476 H 0.85892 0.46695 0.76576 0.0
H3477 H 0.8409 0.46614 0.75725 0.0
H3478 H 0.83992 0.45537 0.76038 0.0
H3479 H 0.85802 0.45613 0.76868 0.0
C3480 C 0.5726 0.842 0.77651 0.0
C3481 C 0.56747 0.83811 0.77719 0.0
C3482 C 0.57308 0.8319 0.7847 0.0
C3483 C 0.56771 0.8331 0.78124 0.0
C3484 C 0.57823 0.83577 0.78392 0.0
C3485 C 0.57799 0.84079 0.77986 0.0
U3486 U 0.56299 0.85254 0.76656 0.0
O3487 O 0.56267 0.86266 0.76591 0.0
O3488 O 0.56497 0.85715 0.75773 0.0
C3489 C 0.56459 0.8627 0.76016 0.0
C3490 C 0.57222 0.84745 0.7725 0.0
C3491 C 0.56981 0.86682 0.75889 0.0
C3492 C 0.58048 0.86987 0.76051 0.0
C3493 C 0.57559 0.86579 0.76162 0.0
C3494 C 0.57386 0.87597 0.75388 0.0
C3495 C 0.57966 0.87503 0.75666 0.0
C3496 C 0.56899 0.8719 0.75499 0.0
C3497 C 0.54577 0.84851 0.76512 0.0
C3498 C 0.53777 0.85543 0.7614 0.0
C3499 C 0.53533 0.84475 0.76366 0.0
C3500 C 0.54146 0.84371 0.76534 0.0
C3501 C 0.53339 0.85064 0.76174 0.0
C3502 C 0.54392 0.85436 0.76307 0.0
C3503 C 0.55208 0.84736 0.76733 0.0
O3504 O 0.571 0.84631 0.76667 0.0
O3505 O 0.56893 0.85202 0.77476 0.0
O3506 O 0.55419 0.85131 0.77141 0.0
O3507 O 0.55615 0.84586 0.7631 0.0
H3508 H 0.56327 0.83899 0.77464 0.0
H3509 H 0.56369 0.83016 0.78166 0.0
H3510 H 0.58241 0.83502 0.78656 0.0
H3511 H 0.58197 0.84378 0.77941 0.0
H3512 H 0.58485 0.86904 0.76277 0.0
H3513 H 0.5763 0.86188 0.76465 0.0
H3514 H 0.5731 0.87985 0.75081 0.0
H3515 H 0.56456 0.87274 0.75283 0.0
H3516 H 0.53644 0.85999 0.75988 0.0
H3517 H 0.53207 0.84099 0.76407 0.0
H3518 H 0.54281 0.83916 0.76694 0.0
H3519 H 0.54721 0.85813 0.76285 0.0
C3520 C 0.22494 0.15894 0.42895 0.0
C3521 C 0.22406 0.16271 0.43413 0.0
C3522 C 0.21647 0.16881 0.42853 0.0
C3523 C 0.21988 0.1676 0.43392 0.0
C3524 C 0.21745 0.16507 0.42331 0.0
C3525 C 0.22165 0.16016 0.42353 0.0
U3526 U 0.23515 0.14865 0.43853 0.0
O3527 O 0.23609 0.13856 0.43885 0.0
O3528 O 0.24412 0.1443 0.43657 0.0
C3529 C 0.24186 0.13869 0.43697 0.0
C3530 C 0.22909 0.1536 0.4293 0.0
C3531 C 0.24331 0.13455 0.4318 0.0
C3532 C 0.24138 0.13078 0.42142 0.0
C3533 C 0.24008 0.13492 0.42621 0.0
C3534 C 0.24924 0.12596 0.42775 0.0
C3535 C 0.24595 0.12622 0.42215 0.0
C3536 C 0.24792 0.13008 0.43253 0.0
C3537 C 0.23643 0.15268 0.45575 0.0
C3538 C 0.2402 0.14582 0.46378 0.0
C3539 C 0.23789 0.15649 0.46617 0.0
C3540 C 0.2362 0.1575 0.46004 0.0
C3541 C 0.23985 0.15062 0.46814 0.0
C3542 C 0.23852 0.14685 0.45763 0.0
C3543 C 0.23421 0.15379 0.44945 0.0
O3544 O 0.23489 0.1549 0.43053 0.0
O3545 O 0.22696 0.14895 0.43256 0.0
O3546 O 0.23024 0.14974 0.44731 0.0
O3547 O 0.23841 0.15541 0.44538 0.0
H3548 H 0.22657 0.16182 0.43837 0.0
H3549 H 0.2193 0.17044 0.43799 0.0
H3550 H 0.21485 0.16582 0.41911 0.0
H3551 H 0.22225 0.15727 0.41949 0.0
H3552 H 0.23872 0.13108 0.4172 0.0
H3553 H 0.2365 0.13835 0.42558 0.0
H3554 H 0.25285 0.12258 0.42843 0.0
H3555 H 0.25048 0.12976 0.43681 0.0
H3556 H 0.24174 0.14127 0.46513 0.0
H3557 H 0.23748 0.16027 0.46942 0.0
H3558 H 0.23458 0.16203 0.45867 0.0
H3559 H 0.23875 0.14307 0.45436 0.0
C3560 C 0.22467 0.84311 0.57319 0.0
C3561 C 0.22341 0.83946 0.56799 0.0
C3562 C 0.21656 0.83297 0.57409 0.0
C3563 C 0.2194 0.83444 0.56844 0.0
C3564 C 0.21789 0.83662 0.5793 0.0
C3565 C 0.22191 0.84165 0.57885 0.0
U3566 U 0.23468 0.85341 0.56335 0.0
O3567 O 0.23545 0.86351 0.56288 0.0
O3568 O 0.24357 0.85795 0.56525 0.0
C3569 C 0.24121 0.86351 0.56477 0.0
C3570 C 0.22871 0.84852 0.57267 0.0
C3571 C 0.24259 0.86773 0.56989 0.0
C3572 C 0.24078 0.87138 0.58034 0.0
C3573 C 0.23952 0.8672 0.57557 0.0
C3574 C 0.24823 0.87656 0.57381 0.0
C3575 C 0.24512 0.87614 0.5795 0.0
C3576 C 0.24697 0.8724 0.56906 0.0
C3577 C 0.23619 0.84911 0.54618 0.0
C3578 C 0.23834 0.85585 0.53747 0.0
C3579 C 0.23935 0.84477 0.53635 0.0
C3580 C 0.23763 0.84399 0.54251 0.0
C3581 C 0.23964 0.8507 0.53373 0.0
C3582 C 0.23665 0.85506 0.54365 0.0
C3583 C 0.23392 0.84809 0.5525 0.0
O3584 O 0.23453 0.84729 0.57145 0.0
O3585 O 0.22648 0.85304 0.5693 0.0
O3586 O 0.22983 0.85207 0.55456 0.0
O3587 O 0.2381 0.84658 0.55663 0.0
H3588 H 0.22549 0.84055 0.56358 0.0
H3589 H 0.21841 0.83179 0.56432 0.0
H3590 H 0.21584 0.83557 0.58374 0.0
H3591 H 0.22284 0.84442 0.5829 0.0
H3592 H 0.23826 0.87095 0.58463 0.0
H3593 H 0.23612 0.86361 0.57628 0.0
H3594 H 0.25168 0.8801 0.57304 0.0
H3595 H 0.2494 0.87284 0.56471 0.0
H3596 H 0.23859 0.86047 0.53559 0.0
H3597 H 0.24025 0.84071 0.53358 0.0
H3598 H 0.23728 0.83937 0.54437 0.0
H3599 H 0.2356 0.85909 0.54642 0.0
C3600 C 0.15921 0.22465 0.57291 0.0
C3601 C 0.16309 0.22395 0.56779 0.0
C3602 C 0.16919 0.21632 0.57334 0.0
C3603 C 0.16805 0.21983 0.568 0.0
C3604 C 0.16534 0.21712 0.57851 0.0
C3605 C 0.16038 0.22125 0.57829 0.0
U3606 U 0.14876 0.23472 0.56334 0.0
O3607 O 0.13866 0.2354 0.56294 0.0
O3608 O 0.14417 0.24355 0.56535 0.0
C3609 C 0.13862 0.24115 0.56489 0.0
C3610 C 0.15378 0.22869 0.57255 0.0
C3611 C 0.13442 0.24241 0.57005 0.0
C3612 C 0.13109 0.24066 0.58061 0.0
C3613 C 0.13527 0.23957 0.57581 0.0
C3614 C 0.12525 0.2475 0.57397 0.0
C3615 C 0.126 0.24459 0.57973 0.0
C3616 C 0.12943 0.24641 0.56918 0.0
C3617 C 0.15286 0.23623 0.54614 0.0
C3618 C 0.14595 0.23996 0.53814 0.0
C3619 C 0.15664 0.23777 0.53572 0.0
C3620 C 0.15768 0.23607 0.54185 0.0
C3621 C 0.15075 0.23967 0.53377 0.0
C3622 C 0.147 0.23827 0.54429 0.0
C3623 C 0.154 0.23399 0.55244 0.0
O3624 O 0.15497 0.23452 0.57137 0.0
O3625 O 0.14921 0.22648 0.56923 0.0
O3626 O 0.15003 0.2299 0.55452 0.0
O3627 O 0.15548 0.2382 0.55654 0.0
H3628 H 0.16224 0.22653 0.56359 0.0
H3629 H 0.17097 0.21939 0.56398 0.0
H3630 H 0.16605 0.21444 0.58266 0.0
H3631 H 0.15739 0.22172 0.58227 0.0
H3632 H 0.13177 0.2383 0.58497 0.0
H3633 H 0.13911 0.23646 0.57655 0.0
H3634 H 0.12144 0.25063 0.57316 0.0
H3635 H 0.12872 0.24865 0.56477 0.0
H3636 H 0.14137 0.24146 0.5368 0.0
H3637 H 0.16042 0.23741 0.53247 0.0
H3638 H 0.16222 0.23449 0.5432 0.0
H3639 H 0.14322 0.23845 0.54756 0.0
C3640 C 0.77666 0.15933 0.57305 0.0
C3641 C 0.77799 0.16291 0.56782 0.0
C3642 C 0.78474 0.16949 0.57395 0.0
C3643 C 0.782 0.16795 0.56827 0.0
C3644 C 0.78332 0.16591 0.57918 0.0
C3645 C 0.77931 0.16087 0.57873 0.0
U3646 U 0.7667 0.14883 0.5633 0.0
O3647 O 0.76592 0.13872 0.56309 0.0
O3648 O 0.7578 0.14435 0.56528 0.0
C3649 C 0.76017 0.13877 0.565 0.0
C3650 C 0.77261 0.15392 0.57255 0.0
C3651 C 0.75882 0.13476 0.57029 0.0
C3652 C 0.76097 0.13131 0.58074 0.0
C3653 C 0.76222 0.13525 0.57578 0.0
C3654 C 0.75284 0.12644 0.57481 0.0
C3655 C 0.75627 0.12685 0.5803 0.0
C3656 C 0.75411 0.13036 0.56985 0.0
C3657 C 0.76527 0.15274 0.54602 0.0
C3658 C 0.76337 0.1459 0.53734 0.0
C3659 C 0.76196 0.15692 0.53617 0.0
C3660 C 0.76365 0.15779 0.54233 0.0
C3661 C 0.76189 0.15097 0.53357 0.0
C3662 C 0.76502 0.14677 0.54352 0.0
C3663 C 0.76751 0.15389 0.55234 0.0
O3664 O 0.76681 0.15513 0.57126 0.0
O3665 O 0.77487 0.14934 0.56928 0.0
O3666 O 0.77158 0.14995 0.5545 0.0
O3667 O 0.76331 0.1555 0.55641 0.0
H3668 H 0.77599 0.16176 0.56339 0.0
H3669 H 0.78305 0.17055 0.56413 0.0
H3670 H 0.78529 0.16702 0.58364 0.0
H3671 H 0.77832 0.15816 0.58281 0.0
H3672 H 0.76364 0.13179 0.58493 0.0
H3673 H 0.76585 0.13866 0.57621 0.0
H3674 H 0.74924 0.12301 0.57429 0.0
H3675 H 0.75145 0.12993 0.56564 0.0
H3676 H 0.76329 0.14125 0.53549 0.0
H3677 H 0.76092 0.16093 0.53338 0.0
H3678 H 0.76382 0.16244 0.54417 0.0
H3679 H 0.76621 0.14279 0.54631 0.0
C3680 C 0.8423 0.77732 0.57315 0.0
C3681 C 0.83868 0.77859 0.56794 0.0
C3682 C 0.83221 0.78549 0.57401 0.0
C3683 C 0.83368 0.78264 0.56836 0.0
C3684 C 0.83583 0.78414 0.57923 0.0
C3685 C 0.84083 0.78009 0.5788 0.0
U3686 U 0.85264 0.76712 0.56348 0.0
O3687 O 0.86274 0.76629 0.56317 0.0
O3688 O 0.8571 0.75824 0.56557 0.0
C3689 C 0.86268 0.76057 0.56519 0.0
C3690 C 0.84768 0.77323 0.57267 0.0
C3691 C 0.86673 0.75932 0.57048 0.0
C3692 C 0.87007 0.76151 0.58095 0.0
C3693 C 0.8661 0.76265 0.57599 0.0
C3694 C 0.87527 0.75364 0.57495 0.0
C3695 C 0.87472 0.757 0.58048 0.0
C3696 C 0.87131 0.7548 0.57 0.0
C3697 C 0.84849 0.76543 0.54621 0.0
C3698 C 0.85445 0.76502 0.5367 0.0
C3699 C 0.84424 0.76051 0.53707 0.0
C3700 C 0.8437 0.76223 0.54326 0.0
C3701 C 0.84957 0.762 0.53367 0.0
C3702 C 0.85392 0.76671 0.54291 0.0
C3703 C 0.84749 0.76777 0.55254 0.0
O3704 O 0.84642 0.76742 0.57149 0.0
O3705 O 0.85224 0.7754 0.56932 0.0
O3706 O 0.85145 0.77187 0.55461 0.0
O3707 O 0.84588 0.76366 0.55671 0.0
H3708 H 0.83977 0.7765 0.56353 0.0
H3709 H 0.83105 0.78364 0.56424 0.0
H3710 H 0.83478 0.7862 0.58366 0.0
H3711 H 0.84358 0.77914 0.58287 0.0
H3712 H 0.86948 0.76413 0.58516 0.0
H3713 H 0.86255 0.76614 0.57645 0.0
H3714 H 0.87885 0.75019 0.57441 0.0
H3715 H 0.87186 0.75219 0.56577 0.0
H3716 H 0.8586 0.76629 0.53422 0.0
H3717 H 0.84043 0.75809 0.53492 0.0
H3718 H 0.83947 0.76119 0.5457 0.0
H3719 H 0.8577 0.76917 0.54506 0.0
C3720 C 0.77667 0.84212 0.42881 0.0
C3721 C 0.77757 0.83837 0.43401 0.0
C3722 C 0.78517 0.83228 0.4284 0.0
C3723 C 0.78177 0.83349 0.4338 0.0
C3724 C 0.78416 0.836 0.42317 0.0
C3725 C 0.77995 0.84089 0.42339 0.0
U3726 U 0.76645 0.85247 0.43835 0.0
O3727 O 0.76546 0.86255 0.43854 0.0
O3728 O 0.75745 0.85674 0.43639 0.0
C3729 C 0.75969 0.86237 0.43667 0.0
C3730 C 0.77249 0.84745 0.42915 0.0
C3731 C 0.75823 0.86636 0.43139 0.0
C3732 C 0.76002 0.86963 0.42082 0.0
C3733 C 0.76134 0.86568 0.42575 0.0
C3734 C 0.7524 0.8749 0.42709 0.0
C3735 C 0.75554 0.8743 0.42144 0.0
C3736 C 0.75375 0.87096 0.43202 0.0
C3737 C 0.76529 0.84858 0.45564 0.0
C3738 C 0.76153 0.85546 0.46366 0.0
C3739 C 0.76389 0.8448 0.46608 0.0
C3740 C 0.76556 0.84377 0.45994 0.0
C3741 C 0.76192 0.85067 0.46803 0.0
C3742 C 0.76319 0.85442 0.4575 0.0
C3743 C 0.76748 0.84745 0.44933 0.0
O3744 O 0.76671 0.84613 0.43043 0.0
O3745 O 0.77462 0.85213 0.43235 0.0
O3746 O 0.77141 0.85152 0.44713 0.0
O3747 O 0.76328 0.84576 0.4453 0.0
H3748 H 0.77507 0.83927 0.43825 0.0
H3749 H 0.78237 0.83066 0.43788 0.0
H3750 H 0.78675 0.83524 0.41897 0.0
H3751 H 0.77932 0.84377 0.41935 0.0
H3752 H 0.76246 0.86901 0.41651 0.0
H3753 H 0.76481 0.86213 0.42518 0.0
H3754 H 0.74899 0.87849 0.42775 0.0
H3755 H 0.75132 0.87155 0.43635 0.0
H3756 H 0.75998 0.86001 0.46501 0.0
H3757 H 0.76433 0.84103 0.46933 0.0
H3758 H 0.76719 0.83925 0.45858 0.0
H3759 H 0.76293 0.85818 0.45422 0.0
C3760 C 0.15928 0.77713 0.42879 0.0
C3761 C 0.16307 0.77802 0.43396 0.0
C3762 C 0.16913 0.78562 0.42831 0.0
C3763 C 0.16796 0.78222 0.43372 0.0
C3764 C 0.16536 0.78463 0.42311 0.0
C3765 C 0.16047 0.78042 0.42336 0.0
U3766 U 0.14894 0.76687 0.43833 0.0
O3767 O 0.13885 0.76589 0.43851 0.0
O3768 O 0.14465 0.75789 0.43629 0.0
C3769 C 0.13903 0.76014 0.43658 0.0
C3770 C 0.15395 0.77296 0.42915 0.0
C3771 C 0.13505 0.75876 0.43126 0.0
C3772 C 0.13158 0.76092 0.42082 0.0
C3773 C 0.13551 0.76218 0.42579 0.0
C3774 C 0.12678 0.75273 0.42672 0.0
C3775 C 0.12715 0.75619 0.42124 0.0
C3776 C 0.13069 0.75401 0.43169 0.0
C3777 C 0.15283 0.76558 0.45561 0.0
C3778 C 0.14594 0.76186 0.46364 0.0
C3779 C 0.15663 0.76408 0.46603 0.0
C3780 C 0.15765 0.76577 0.45989 0.0
C3781 C 0.15075 0.76218 0.46799 0.0
C3782 C 0.14698 0.76354 0.45748 0.0
C3783 C 0.15396 0.76781 0.44931 0.0
O3784 O 0.15527 0.76717 0.4304 0.0
O3785 O 0.14929 0.77508 0.43238 0.0
O3786 O 0.1499 0.77176 0.44714 0.0
O3787 O 0.15564 0.76363 0.44525 0.0
H3788 H 0.16221 0.77551 0.4382 0.0
H3789 H 0.17082 0.7828 0.43777 0.0
H3790 H 0.16609 0.78722 0.4189 0.0
H3791 H 0.15756 0.77981 0.41934 0.0
H3792 H 0.13204 0.76362 0.41664 0.0
H3793 H 0.13889 0.76585 0.42537 0.0
H3794 H 0.12337 0.74911 0.42722 0.0
H3795 H 0.13027 0.75133 0.43589 0.0
H3796 H 0.14137 0.76036 0.46499 0.0
H3797 H 0.16041 0.76447 0.46927 0.0
H3798 H 0.1622 0.76735 0.45853 0.0
H3799 H 0.1432 0.76334 0.45421 0.0
C3800 C 0.84204 0.22489 0.4286 0.0
C3801 C 0.83835 0.2236 0.43376 0.0
C3802 C 0.83185 0.21685 0.42754 0.0
C3803 C 0.8333 0.21962 0.43324 0.0
C3804 C 0.83552 0.21824 0.42237 0.0
C3805 C 0.84058 0.22223 0.4229 0.0
U3806 U 0.85268 0.2344 0.43863 0.0
O3807 O 0.86282 0.2348 0.43896 0.0
O3808 O 0.85748 0.24317 0.43693 0.0
C3809 C 0.86297 0.24059 0.43718 0.0
C3810 C 0.84753 0.2288 0.42921 0.0
C3811 C 0.86713 0.24191 0.43198 0.0
C3812 C 0.86899 0.24327 0.421 0.0
C3813 C 0.86493 0.24211 0.42589 0.0
C3814 C 0.87749 0.24397 0.42823 0.0
C3815 C 0.87532 0.24418 0.42212 0.0
C3816 C 0.87342 0.24285 0.43312 0.0
C3817 C 0.84864 0.23552 0.45586 0.0
C3818 C 0.8556 0.239 0.46392 0.0
C3819 C 0.84486 0.23698 0.46629 0.0
C3820 C 0.84381 0.23537 0.46014 0.0
C3821 C 0.85079 0.23875 0.46828 0.0
C3822 C 0.85453 0.23741 0.45775 0.0
C3823 C 0.84745 0.23346 0.44951 0.0
O3824 O 0.84645 0.23461 0.4306 0.0
O3825 O 0.85202 0.22637 0.43247 0.0
O3826 O 0.85133 0.22935 0.44731 0.0
O3827 O 0.84604 0.23781 0.44552 0.0
H3828 H 0.83944 0.2256 0.43821 0.0
H3829 H 0.83063 0.21859 0.43733 0.0
H3830 H 0.83449 0.21625 0.4179 0.0
H3831 H 0.84338 0.22318 0.41887 0.0
H3832 H 0.8672 0.24334 0.41634 0.0
H3833 H 0.86009 0.24133 0.42491 0.0
H3834 H 0.88232 0.24471 0.42925 0.0
H3835 H 0.8752 0.24271 0.43779 0.0
H3836 H 0.8602 0.24041 0.46529 0.0
H3837 H 0.84108 0.23664 0.46953 0.0
H3838 H 0.83924 0.2339 0.45876 0.0
H3839 H 0.85831 0.23758 0.45448 0.0
C3840 C 0.08788 0.24964 0.38101 0.0
C3841 C 0.08626 0.25567 0.37926 0.0
C3842 C 0.09266 0.24862 0.38523 0.0
C3843 C 0.10118 0.25626 0.39778 0.0
H3844 H 0.11284 0.24288 0.39553 0.0
C3845 C 0.12177 0.25274 0.41428 0.0
C3846 C 0.12315 0.24666 0.41604 0.0
C3847 C 0.11756 0.25392 0.40954 0.0
C3848 C 0.10959 0.2466 0.39626 0.0
H3849 H 0.0884 0.26536 0.38056 0.0
H3850 H 0.09678 0.26357 0.38786 0.0
H3851 H 0.10496 0.24478 0.38771 0.0
H3852 H 0.12116 0.23703 0.41419 0.0
H3853 H 0.11379 0.23908 0.40595 0.0
H3854 H 0.10573 0.25803 0.40635 0.0
C3855 C 0.09433 0.25963 0.38601 0.0
C3856 C 0.10508 0.24769 0.39177 0.0
C3857 C 0.08957 0.26065 0.38177 0.0
C3858 C 0.12027 0.24177 0.41289 0.0
C3859 C 0.11604 0.24295 0.40816 0.0
C3860 C 0.10568 0.25516 0.40227 0.0
C3861 C 0.0959 0.2536 0.38781 0.0
C3862 C 0.10081 0.25252 0.39249 0.0
C3863 C 0.1146 0.24904 0.40645 0.0
C3864 C 0.10992 0.2503 0.40158 0.0
H3865 H 0.08546 0.2457 0.37912 0.0
H3866 H 0.09372 0.24392 0.38656 0.0
H3867 H 0.09791 0.25996 0.39852 0.0
H3868 H 0.12398 0.25661 0.41655 0.0
H3869 H 0.11665 0.25867 0.40827 0.0
C3870 C 0.76068 0.11989 0.41248 0.0
C3871 C 0.75571 0.12245 0.41577 0.0
C3872 C 0.75963 0.11561 0.40777 0.0
C3873 C 0.74766 0.10982 0.39708 0.0
H3874 H 0.75795 0.0952 0.39649 0.0
C3875 C 0.74168 0.0887 0.38191 0.0
C3876 C 0.74656 0.08554 0.37904 0.0
C3877 C 0.74287 0.09342 0.38615 0.0
C3878 C 0.75509 0.0993 0.39652 0.0
H3879 H 0.74574 0.12264 0.41659 0.0
H3880 H 0.74392 0.11512 0.40841 0.0
H3881 H 0.7599 0.10306 0.40428 0.0
H3882 H 0.75651 0.08499 0.37823 0.0
H3883 H 0.75859 0.09324 0.38558 0.0
H3884 H 0.74284 0.10605 0.38933 0.0
C3885 C 0.74862 0.11645 0.40945 0.0
C3886 C 0.75621 0.1038 0.401 0.0
C3887 C 0.74967 0.12071 0.41418 0.0
C3888 C 0.75265 0.08727 0.38043 0.0
C3889 C 0.75384 0.09199 0.38466 0.0
C3890 C 0.74655 0.10532 0.39259 0.0
C3891 C 0.75359 0.11381 0.40622 0.0
C3892 C 0.75249 0.10911 0.40135 0.0
C3893 C 0.74897 0.0951 0.3876 0.0
C3894 C 0.75023 0.09998 0.39227 0.0
H3895 H 0.76539 0.1211 0.41362 0.0
H3896 H 0.76356 0.11372 0.40532 0.0
H3897 H 0.74477 0.1139 0.39717 0.0
H3898 H 0.73693 0.08743 0.381 0.0
H3899 H 0.739 0.09565 0.3884 0.0
C3900 C 0.91431 0.75288 0.37981 0.0
C3901 C 0.91603 0.7468 0.37837 0.0
C3902 C 0.90954 0.75405 0.38399 0.0
C3903 C 0.89613 0.74673 0.39176 0.0
H3904 H 0.8984 0.75991 0.40364 0.0
C3905 C 0.88077 0.74955 0.4134 0.0
C3906 C 0.87905 0.75556 0.41512 0.0
C3907 C 0.885 0.74857 0.40863 0.0
C3908 C 0.89765 0.75626 0.40031 0.0
H3909 H 0.91408 0.73716 0.38023 0.0
H3910 H 0.9058 0.73919 0.38756 0.0
H3911 H 0.90628 0.75804 0.39585 0.0
H3912 H 0.88043 0.76527 0.41314 0.0
H3913 H 0.88776 0.76357 0.40477 0.0
H3914 H 0.88753 0.74492 0.39628 0.0
C3915 C 0.90806 0.74307 0.38537 0.0
C3916 C 0.90217 0.75519 0.39583 0.0
C3917 C 0.91282 0.7419 0.38117 0.0
C3918 C 0.88161 0.76058 0.4119 0.0
C3919 C 0.88586 0.75961 0.40714 0.0
C3920 C 0.89162 0.7478 0.39625 0.0
C3921 C 0.90639 0.74916 0.38687 0.0
C3922 C 0.90148 0.7504 0.39151 0.0
C3923 C 0.88764 0.75359 0.40548 0.0
C3924 C 0.89234 0.75256 0.40059 0.0
H3925 H 0.91662 0.75675 0.37766 0.0
H3926 H 0.9083 0.75879 0.38495 0.0
H3927 H 0.8954 0.74306 0.38845 0.0
H3928 H 0.87883 0.74558 0.41575 0.0
H3929 H 0.8863 0.74388 0.4075 0.0
C3930 C 0.24702 0.87815 0.41048 0.0
C3931 C 0.24685 0.87994 0.41671 0.0
C3932 C 0.24822 0.88249 0.40584 0.0
C3933 C 0.25513 0.8979 0.40338 0.0
H3934 H 0.24566 0.8978 0.3882 0.0
C3935 C 0.25577 0.91821 0.38627 0.0
C3936 C 0.25585 0.91687 0.37992 0.0
C3937 C 0.2548 0.91354 0.39061 0.0
C3938 C 0.2484 0.89784 0.39238 0.0
H3939 H 0.24764 0.88775 0.42293 0.0
H3940 H 0.24974 0.89528 0.41487 0.0
H3941 H 0.24372 0.88993 0.39603 0.0
H3942 H 0.25492 0.90955 0.37317 0.0
H3943 H 0.25332 0.90137 0.38075 0.0
H3944 H 0.25979 0.90581 0.39976 0.0
C3945 C 0.24906 0.8905 0.41357 0.0
C3946 C 0.24729 0.89333 0.39687 0.0
C3947 C 0.24786 0.88618 0.41819 0.0
C3948 C 0.25494 0.91073 0.37802 0.0
C3949 C 0.25395 0.90606 0.38237 0.0
C3950 C 0.25624 0.90239 0.3989 0.0
C3951 C 0.24928 0.88871 0.40734 0.0
C3952 C 0.2506 0.89335 0.40245 0.0
C3953 C 0.25389 0.90741 0.38871 0.0
C3954 C 0.25285 0.90246 0.39337 0.0
H3955 H 0.24634 0.87338 0.40918 0.0
H3956 H 0.24842 0.88094 0.40109 0.0
H3957 H 0.25784 0.89797 0.40757 0.0
H3958 H 0.25653 0.92287 0.3879 0.0
H3959 H 0.2547 0.91476 0.39545 0.0
C3960 C 0.08979 0.74098 0.61973 0.0
C3961 C 0.08657 0.74597 0.62234 0.0
C3962 C 0.09455 0.742 0.61549 0.0
C3963 C 0.10546 0.75387 0.60989 0.0
H3964 H 0.10587 0.74381 0.59511 0.0
C3965 C 0.12059 0.76002 0.5888 0.0
C3966 C 0.12338 0.75516 0.58553 0.0
C3967 C 0.11637 0.7588 0.59353 0.0
C3968 C 0.10588 0.74661 0.59925 0.0
H3969 H 0.08594 0.75595 0.62267 0.0
H3970 H 0.09419 0.75773 0.61523 0.0
H3971 H 0.09806 0.74185 0.60295 0.0
H3972 H 0.12407 0.74521 0.5848 0.0
H3973 H 0.11676 0.74307 0.59308 0.0
H3974 H 0.11327 0.75865 0.60618 0.0
C3975 C 0.09306 0.75303 0.61648 0.0
C3976 C 0.1014 0.74548 0.60374 0.0
C3977 C 0.08829 0.752 0.62069 0.0
C3978 C 0.12193 0.74905 0.58716 0.0
C3979 C 0.11773 0.74783 0.59191 0.0
C3980 C 0.10996 0.75499 0.6054 0.0
C3981 C 0.09621 0.74804 0.61379 0.0
C3982 C 0.10111 0.74912 0.6091 0.0
C3983 C 0.11486 0.75269 0.59512 0.0
C3984 C 0.1102 0.75139 0.6 0.0
H3985 H 0.08855 0.73627 0.62086 0.0
H3986 H 0.09693 0.73806 0.61355 0.0
H3987 H 0.10542 0.75671 0.61401 0.0
H3988 H 0.12154 0.76477 0.58759 0.0
H3989 H 0.11419 0.76265 0.59583 0.0
C3990 C 0.24651 0.12393 0.59138 0.0
C3991 C 0.24576 0.1219 0.58526 0.0
C3992 C 0.24745 0.11969 0.59616 0.0
C3993 C 0.24537 0.1032 0.6001 0.0
H3994 H 0.25744 0.10661 0.61285 0.0
C3995 C 0.24843 0.0871 0.62106 0.0
C3996 C 0.25452 0.08576 0.62286 0.0
C3997 C 0.24723 0.09176 0.61677 0.0
C3998 C 0.25407 0.10557 0.60931 0.0
H3999 H 0.24534 0.1138 0.5794 0.0
H4000 H 0.24712 0.10644 0.58769 0.0
H4001 H 0.25566 0.11417 0.6047 0.0
H4002 H 0.26411 0.08833 0.6216 0.0
H4003 H 0.26201 0.09645 0.61411 0.0
H4004 H 0.24389 0.09454 0.60459 0.0
C4005 C 0.24691 0.1113 0.58881 0.0
C4006 C 0.253 0.10994 0.60467 0.0
C4007 C 0.24597 0.11553 0.58404 0.0
C4008 C 0.25936 0.08929 0.62037 0.0
C4009 C 0.25815 0.09395 0.61607 0.0
C4010 C 0.24643 0.09884 0.60473 0.0
C4011 C 0.24766 0.11332 0.59493 0.0
C4012 C 0.24867 0.10878 0.59999 0.0
C4013 C 0.25208 0.09521 0.61418 0.0
C4014 C 0.25082 0.09996 0.60938 0.0
H4015 H 0.24642 0.1288 0.59248 0.0
H4016 H 0.24796 0.1214 0.60083 0.0
H4017 H 0.24194 0.10219 0.59661 0.0
H4018 H 0.24459 0.08454 0.62297 0.0
H4019 H 0.24248 0.09268 0.6155 0.0
C4020 C 0.88535 0.24108 0.58562 0.0
C4021 C 0.87998 0.24469 0.58514 0.0
C4022 C 0.88964 0.2422 0.59029 0.0
C4023 C 0.8917 0.25004 0.60541 0.0
H4024 H 0.90905 0.24873 0.60123 0.0
C4025 C 0.91147 0.25845 0.62145 0.0
C4026 C 0.91669 0.25462 0.62191 0.0
C4027 C 0.9068 0.25714 0.61717 0.0
C4028 C 0.90422 0.24905 0.60249 0.0
H4029 H 0.8749 0.25227 0.58922 0.0
H4030 H 0.88245 0.25429 0.59733 0.0
H4031 H 0.90129 0.24668 0.59339 0.0
H4032 H 0.92095 0.24626 0.6184 0.0
H4033 H 0.91287 0.24405 0.61092 0.0
H4034 H 0.89469 0.25251 0.61451 0.0
C4035 C 0.88329 0.25053 0.59415 0.0
C4036 C 0.89976 0.24786 0.59799 0.0
C4037 C 0.87897 0.24938 0.5895 0.0
C4038 C 0.91707 0.24939 0.61808 0.0
C4039 C 0.91243 0.24811 0.61379 0.0
C4040 C 0.89618 0.25127 0.6099 0.0
C4041 C 0.88871 0.24698 0.59458 0.0
C4042 C 0.89344 0.24831 0.5994 0.0
C4043 C 0.90727 0.252 0.61325 0.0
C4044 C 0.90249 0.25076 0.6085 0.0
H4045 H 0.88621 0.23736 0.58239 0.0
H4046 H 0.89369 0.23928 0.59055 0.0
H4047 H 0.88688 0.25035 0.60668 0.0
H4048 H 0.91105 0.26255 0.62427 0.0
H4049 H 0.90291 0.26026 0.61682 0.0
C4050 C 0.75365 0.88591 0.58312 0.0
C4051 C 0.75461 0.87966 0.58456 0.0
C4052 C 0.7524 0.8902 0.58777 0.0
C4053 C 0.754 0.89286 0.60451 0.0
H4054 H 0.74167 0.90549 0.60157 0.0
C4055 C 0.74644 0.91029 0.62336 0.0
C4056 C 0.74565 0.91645 0.62147 0.0
C4057 C 0.74737 0.90561 0.61901 0.0
C4058 C 0.74517 0.90203 0.60245 0.0
H4059 H 0.75497 0.87301 0.59203 0.0
H4060 H 0.75281 0.88052 0.60016 0.0
H4061 H 0.7436 0.89768 0.59373 0.0
H4062 H 0.74512 0.92248 0.6135 0.0
H4063 H 0.74685 0.91436 0.60595 0.0
H4064 H 0.7556 0.89726 0.61321 0.0
C4065 C 0.75309 0.8821 0.59543 0.0
C4066 C 0.74628 0.89755 0.59795 0.0
C4067 C 0.75433 0.87781 0.59077 0.0
C4068 C 0.74579 0.9178 0.61513 0.0
C4069 C 0.7467 0.91313 0.61079 0.0
C4070 C 0.7529 0.89736 0.60901 0.0
C4071 C 0.75209 0.88835 0.59398 0.0
C4072 C 0.75075 0.89295 0.59889 0.0
C4073 C 0.7475 0.90697 0.61267 0.0
C4074 C 0.74851 0.90203 0.60801 0.0
H4075 H 0.75396 0.88752 0.5784 0.0
H4076 H 0.75178 0.89499 0.5865 0.0
H4077 H 0.75752 0.88942 0.60536 0.0
H4078 H 0.74641 0.90909 0.62821 0.0
H4079 H 0.74792 0.90091 0.62062 0.0
C4080 C 0.37719 0.09096 0.2551 0.0
C4081 C 0.37923 0.08486 0.256 0.0
C4082 C 0.38142 0.09573 0.25407 0.0
C4083 C 0.39788 0.09977 0.2562 0.0
H4084 H 0.39451 0.11227 0.24386 0.0
C4085 C 0.41389 0.12076 0.25288 0.0
C4086 C 0.41527 0.12246 0.24678 0.0
C4087 C 0.40924 0.11647 0.25413 0.0
C4088 C 0.39554 0.1088 0.2473 0.0
H4089 H 0.38735 0.07904 0.2566 0.0
H4090 H 0.3947 0.08731 0.25468 0.0
H4091 H 0.38698 0.10412 0.24573 0.0
H4092 H 0.4128 0.12101 0.23719 0.0
H4093 H 0.4047 0.11351 0.23936 0.0
H4094 H 0.4065 0.10433 0.25766 0.0
C4095 C 0.38983 0.08842 0.25483 0.0
C4096 C 0.39119 0.10416 0.24842 0.0
C4097 C 0.38561 0.08366 0.25585 0.0
C4098 C 0.4118 0.11986 0.24195 0.0
C4099 C 0.40716 0.11556 0.24319 0.0
C4100 C 0.40223 0.1044 0.25508 0.0
C4101 C 0.3878 0.09451 0.25394 0.0
C4102 C 0.39233 0.09956 0.25286 0.0
C4103 C 0.40586 0.11376 0.24929 0.0
C4104 C 0.40112 0.10896 0.2506 0.0
H4105 H 0.37231 0.09204 0.25513 0.0
H4106 H 0.3797 0.10038 0.25346 0.0
H4107 H 0.39888 0.09635 0.2597 0.0
H4108 H 0.4164 0.12276 0.25671 0.0
H4109 H 0.40829 0.11527 0.25888 0.0
C4110 C 0.9176 0.38585 0.25553 0.0
C4111 C 0.91637 0.37948 0.25577 0.0
C4112 C 0.91284 0.39008 0.25459 0.0
C4113 C 0.89697 0.39145 0.24852 0.0
H4114 H 0.89709 0.40688 0.25756 0.0
C4115 C 0.88131 0.4121 0.24208 0.0
C4116 C 0.87883 0.41565 0.24691 0.0
C4117 C 0.8856 0.40743 0.2433 0.0
C4118 C 0.89695 0.40257 0.25504 0.0
H4119 H 0.90915 0.37259 0.25516 0.0
H4120 H 0.9008 0.38 0.25362 0.0
H4121 H 0.90507 0.39923 0.25954 0.0
H4122 H 0.87873 0.41691 0.25683 0.0
H4123 H 0.88619 0.40877 0.25897 0.0
H4124 H 0.88879 0.39477 0.24408 0.0
C4125 C 0.90548 0.38171 0.2541 0.0
C4126 C 0.90157 0.39821 0.25612 0.0
C4127 C 0.91025 0.37746 0.25506 0.0
C4128 C 0.88064 0.41434 0.253 0.0
C4129 C 0.88492 0.40967 0.25422 0.0
C4130 C 0.89234 0.39582 0.24744 0.0
C4131 C 0.90672 0.38807 0.25387 0.0
C4132 C 0.90167 0.39261 0.25285 0.0
C4133 C 0.8875 0.4062 0.24939 0.0
C4134 C 0.89229 0.40145 0.25066 0.0
H4135 H 0.92225 0.38757 0.25614 0.0
H4136 H 0.91397 0.39494 0.25436 0.0
H4137 H 0.89693 0.3872 0.24589 0.0
H4138 H 0.88008 0.41303 0.23733 0.0
H4139 H 0.88756 0.40491 0.23946 0.0
C4140 C 0.62434 0.9098 0.25512 0.0
C4141 C 0.6223 0.91591 0.25594 0.0
C4142 C 0.62011 0.90502 0.25419 0.0
C4143 C 0.60368 0.90098 0.25651 0.0
H4144 H 0.60691 0.8884 0.24422 0.0
C4145 C 0.58756 0.88004 0.25344 0.0
C4146 C 0.58611 0.87833 0.24735 0.0
C4147 C 0.59225 0.8843 0.25463 0.0
C4148 C 0.60593 0.89189 0.24765 0.0
H4149 H 0.61418 0.92173 0.25655 0.0
H4150 H 0.60682 0.91343 0.25482 0.0
H4151 H 0.61448 0.89655 0.24597 0.0
H4152 H 0.5885 0.87974 0.23774 0.0
H4153 H 0.59667 0.88719 0.23981 0.0
H4154 H 0.59506 0.89644 0.25808 0.0
C4155 C 0.6117 0.91232 0.25494 0.0
C4156 C 0.61029 0.89653 0.24871 0.0
C4157 C 0.61592 0.9171 0.25585 0.0
C4158 C 0.58955 0.8809 0.24249 0.0
C4159 C 0.59424 0.88517 0.24367 0.0
C4160 C 0.59932 0.89635 0.25547 0.0
C4161 C 0.61373 0.90622 0.2541 0.0
C4162 C 0.6092 0.90116 0.25312 0.0
C4163 C 0.59561 0.88697 0.24975 0.0
C4164 C 0.60037 0.89177 0.251 0.0
H4165 H 0.62922 0.90873 0.25511 0.0
H4166 H 0.62183 0.90036 0.25362 0.0
H4167 H 0.60272 0.90443 0.26 0.0
H4168 H 0.58507 0.87807 0.2573 0.0
H4169 H 0.59326 0.8855 0.25937 0.0
C4170 C 0.0876 0.62121 0.24924 0.0
C4171 C 0.08595 0.62295 0.25527 0.0
C4172 C 0.09237 0.61699 0.24823 0.0
C4173 C 0.10082 0.60439 0.25587 0.0
H4174 H 0.11254 0.60664 0.24254 0.0
C4175 C 0.12137 0.58782 0.25238 0.0
C4176 C 0.12276 0.58608 0.24629 0.0
C4177 C 0.11717 0.59258 0.25356 0.0
C4178 C 0.10927 0.60591 0.24625 0.0
H4179 H 0.08805 0.62161 0.26496 0.0
H4180 H 0.09642 0.6143 0.26319 0.0
H4181 H 0.10469 0.61448 0.24444 0.0
H4182 H 0.12082 0.58797 0.23666 0.0
H4183 H 0.11346 0.59623 0.23871 0.0
H4184 H 0.10533 0.5958 0.25764 0.0
C4185 C 0.09399 0.61618 0.25925 0.0
C4186 C 0.10477 0.61041 0.24734 0.0
C4187 C 0.08924 0.62042 0.26026 0.0
C4188 C 0.11991 0.58926 0.24141 0.0
C4189 C 0.1157 0.594 0.24258 0.0
C4190 C 0.10531 0.59989 0.25477 0.0
C4191 C 0.09559 0.61438 0.25322 0.0
C4192 C 0.10048 0.60969 0.25215 0.0
C4193 C 0.11424 0.59569 0.24868 0.0
C4194 C 0.10957 0.60058 0.24993 0.0
H4195 H 0.0852 0.62313 0.2453 0.0
H4196 H 0.09345 0.61567 0.24353 0.0
H4197 H 0.09753 0.60365 0.25956 0.0
H4198 H 0.12355 0.58554 0.25625 0.0
H4199 H 0.11624 0.59383 0.25831 0.0
C4200 C 0.41249 0.88122 0.7602 0.0
C4201 C 0.41584 0.8787 0.75525 0.0
C4202 C 0.40775 0.88547 0.75913 0.0
C4203 C 0.39713 0.89126 0.7471 0.0
H4204 H 0.3964 0.90583 0.75745 0.0
C4205 C 0.38193 0.91237 0.74112 0.0
C4206 C 0.37902 0.9155 0.74599 0.0
C4207 C 0.38617 0.90765 0.74231 0.0
C4208 C 0.39648 0.90175 0.75457 0.0
H4209 H 0.41673 0.87855 0.74529 0.0
H4210 H 0.40851 0.88602 0.74342 0.0
H4211 H 0.40421 0.898 0.75942 0.0
H4212 H 0.37813 0.91599 0.75594 0.0
H4213 H 0.38548 0.90773 0.75803 0.0
H4214 H 0.3894 0.89502 0.74223 0.0
C4215 C 0.40953 0.88468 0.74813 0.0
C4216 C 0.40096 0.89726 0.7557 0.0
C4217 C 0.41428 0.88045 0.7492 0.0
C4218 C 0.38037 0.91374 0.75209 0.0
C4219 C 0.38459 0.909 0.75328 0.0
C4220 C 0.39263 0.89575 0.74597 0.0
C4221 C 0.40624 0.88728 0.75308 0.0
C4222 C 0.40136 0.89197 0.75196 0.0
C4223 C 0.38758 0.90593 0.7484 0.0
C4224 C 0.39226 0.90107 0.74968 0.0
H4225 H 0.41361 0.88001 0.76491 0.0
H4226 H 0.40527 0.88734 0.76304 0.0
H4227 H 0.39726 0.8872 0.74418 0.0
H4228 H 0.38106 0.91367 0.73637 0.0
H4229 H 0.38845 0.90545 0.73844 0.0
C4230 C 0.08743 0.38013 0.75222 0.0
C4231 C 0.08581 0.37842 0.74617 0.0
C4232 C 0.09219 0.38436 0.75327 0.0
C4233 C 0.10066 0.39701 0.74572 0.0
H4234 H 0.11235 0.39469 0.75906 0.0
C4235 C 0.12125 0.4135 0.74929 0.0
C4236 C 0.12264 0.41522 0.75538 0.0
C4237 C 0.11703 0.40877 0.74809 0.0
C4238 C 0.10908 0.39544 0.75536 0.0
H4239 H 0.08794 0.37981 0.7365 0.0
H4240 H 0.09628 0.38714 0.73834 0.0
H4241 H 0.10449 0.38686 0.75712 0.0
H4242 H 0.12069 0.41331 0.76501 0.0
H4243 H 0.1133 0.40509 0.76293 0.0
H4244 H 0.10518 0.40561 0.744 0.0
C4245 C 0.09384 0.38524 0.74227 0.0
C4246 C 0.10458 0.39095 0.75424 0.0
C4247 C 0.08911 0.38099 0.74121 0.0
C4248 C 0.11978 0.41204 0.76026 0.0
C4249 C 0.11555 0.40732 0.75907 0.0
C4250 C 0.10514 0.4015 0.74685 0.0
C4251 C 0.09542 0.387 0.74831 0.0
C4252 C 0.1003 0.39169 0.74942 0.0
C4253 C 0.11408 0.40565 0.75297 0.0
C4254 C 0.10941 0.40078 0.75169 0.0
H4255 H 0.08503 0.37818 0.75614 0.0
H4256 H 0.09325 0.38566 0.75798 0.0
H4257 H 0.09737 0.39777 0.74204 0.0
H4258 H 0.12345 0.41579 0.74543 0.0
H4259 H 0.1161 0.40753 0.74334 0.0
C4260 C 0.58922 0.12072 0.76016 0.0
C4261 C 0.58588 0.12315 0.75516 0.0
C4262 C 0.59399 0.11649 0.75917 0.0
C4263 C 0.60469 0.11057 0.74726 0.0
H4264 H 0.60541 0.09614 0.75781 0.0
C4265 C 0.61986 0.08936 0.74157 0.0
C4266 C 0.62276 0.08628 0.74649 0.0
C4267 C 0.61565 0.09412 0.7427 0.0
C4268 C 0.60534 0.10019 0.75488 0.0
H4269 H 0.58505 0.12317 0.74519 0.0
H4270 H 0.59332 0.11573 0.74347 0.0
H4271 H 0.59759 0.10399 0.75966 0.0
H4272 H 0.62366 0.08593 0.75645 0.0
H4273 H 0.61635 0.09425 0.75842 0.0
H4274 H 0.61244 0.10675 0.74246 0.0
C4275 C 0.59227 0.11712 0.74815 0.0
C4276 C 0.60085 0.10469 0.75594 0.0
C4277 C 0.58749 0.12133 0.74914 0.0
C4278 C 0.62143 0.08814 0.75256 0.0
C4279 C 0.61723 0.09291 0.75369 0.0
C4280 C 0.6092 0.10608 0.74621 0.0
C4281 C 0.59554 0.1146 0.75316 0.0
C4282 C 0.60045 0.10992 0.75213 0.0
C4283 C 0.61424 0.09592 0.74878 0.0
C4284 C 0.60957 0.10081 0.74999 0.0
H4285 H 0.58807 0.12198 0.76485 0.0
H4286 H 0.59646 0.11469 0.76312 0.0
H4287 H 0.60456 0.11459 0.74429 0.0
H4288 H 0.62072 0.08799 0.73685 0.0
H4289 H 0.61337 0.09627 0.73881 0.0
C4290 C 0.91257 0.62028 0.74179 0.0
C4291 C 0.91577 0.62308 0.74669 0.0
C4292 C 0.90783 0.61606 0.74295 0.0
C4293 C 0.90197 0.60555 0.75505 0.0
H4294 H 0.88734 0.60507 0.74477 0.0
C4295 C 0.88149 0.58938 0.76038 0.0
C4296 C 0.87895 0.58616 0.75535 0.0
C4297 C 0.88571 0.59415 0.75942 0.0
C4298 C 0.89142 0.60512 0.74765 0.0
H4299 H 0.91636 0.62378 0.75665 0.0
H4300 H 0.90806 0.61645 0.75868 0.0
H4301 H 0.89517 0.61295 0.74294 0.0
H4302 H 0.87873 0.58557 0.74537 0.0
H4303 H 0.88616 0.59386 0.7437 0.0
H4304 H 0.89823 0.59772 0.75975 0.0
C4305 C 0.9093 0.61743 0.75393 0.0
C4306 C 0.89592 0.60963 0.7466 0.0
C4307 C 0.91405 0.62163 0.75278 0.0
C4308 C 0.88065 0.58791 0.74934 0.0
C4309 C 0.88486 0.5927 0.74839 0.0
C4310 C 0.89747 0.60106 0.75611 0.0
C4311 C 0.90616 0.61455 0.74904 0.0
C4312 C 0.90127 0.60988 0.75027 0.0
C4313 C 0.88748 0.59585 0.75342 0.0
C4314 C 0.89216 0.60077 0.7524 0.0
H4315 H 0.91383 0.62124 0.73705 0.0
H4316 H 0.90558 0.61387 0.73907 0.0
H4317 H 0.90608 0.60554 0.7579 0.0
H4318 H 0.88031 0.58811 0.76507 0.0
H4319 H 0.8876 0.59653 0.7634 0.0
C4320 C 0.26012 0.38182 0.08866 0.0
C4321 C 0.25526 0.37896 0.08547 0.0
C4322 C 0.25891 0.38607 0.09337 0.0
C4323 C 0.24668 0.39648 0.09915 0.0
H4324 H 0.2569 0.39711 0.11382 0.0
C4325 C 0.24097 0.41245 0.1197 0.0
C4326 C 0.24592 0.41574 0.1223 0.0
C4327 C 0.24204 0.40774 0.11543 0.0
C4328 C 0.25404 0.39703 0.10973 0.0
H4329 H 0.2453 0.37817 0.08486 0.0
H4330 H 0.24319 0.38553 0.09309 0.0
H4331 H 0.25887 0.38926 0.106 0.0
H4332 H 0.25589 0.41653 0.12256 0.0
H4333 H 0.25776 0.40835 0.11506 0.0
H4334 H 0.24185 0.40424 0.10288 0.0
C4335 C 0.24795 0.3846 0.09188 0.0
C4336 C 0.25517 0.39253 0.10524 0.0
C4337 C 0.24915 0.38037 0.08716 0.0
C4338 C 0.25197 0.41414 0.1206 0.0
C4339 C 0.25304 0.4094 0.11634 0.0
C4340 C 0.24554 0.40096 0.10365 0.0
C4341 C 0.25281 0.38754 0.09501 0.0
C4342 C 0.25152 0.39222 0.09988 0.0
C4343 C 0.24809 0.40618 0.11368 0.0
C4344 C 0.24922 0.4013 0.10898 0.0
H4345 H 0.26487 0.3809 0.08742 0.0
H4346 H 0.26277 0.38831 0.09562 0.0
H4347 H 0.24385 0.39645 0.09504 0.0
H4348 H 0.23625 0.4136 0.12087 0.0
H4349 H 0.23812 0.4053 0.11351 0.0
C4350 C 0.26036 0.61955 0.9126 0.0
C4351 C 0.25549 0.62246 0.91575 0.0
C4352 C 0.25916 0.61529 0.9079 0.0
C4353 C 0.24691 0.60493 0.90208 0.0
H4354 H 0.25724 0.60416 0.88749 0.0
C4355 C 0.24125 0.58889 0.88157 0.0
C4356 C 0.2462 0.58555 0.87904 0.0
C4357 C 0.24232 0.59362 0.88582 0.0
C4358 C 0.25434 0.60428 0.89156 0.0
H4359 H 0.24554 0.6233 0.91629 0.0
H4360 H 0.24344 0.61592 0.90807 0.0
H4361 H 0.2592 0.61203 0.89529 0.0
H4362 H 0.25617 0.58468 0.87886 0.0
H4363 H 0.25803 0.5929 0.88633 0.0
H4364 H 0.24206 0.59718 0.89835 0.0
C4365 C 0.24819 0.61683 0.90931 0.0
C4366 C 0.25547 0.60879 0.89604 0.0
C4367 C 0.24939 0.62107 0.91402 0.0
C4368 C 0.25225 0.58712 0.88078 0.0
C4369 C 0.25332 0.59187 0.88501 0.0
C4370 C 0.24577 0.60044 0.8976 0.0
C4371 C 0.25306 0.61385 0.90623 0.0
C4372 C 0.25178 0.60916 0.90137 0.0
C4373 C 0.24837 0.59515 0.88762 0.0
C4374 C 0.24949 0.60004 0.8923 0.0
H4375 H 0.26511 0.62045 0.91387 0.0
H4376 H 0.26303 0.61302 0.90569 0.0
H4377 H 0.24404 0.605 0.90617 0.0
H4378 H 0.23654 0.58776 0.88037 0.0
H4379 H 0.23841 0.5961 0.8877 0.0
C4380 C 0.37793 0.25231 0.91124 0.0
C4381 C 0.37939 0.25648 0.91599 0.0
C4382 C 0.38211 0.25119 0.90645 0.0
C4383 C 0.39558 0.25785 0.89846 0.0
H4384 H 0.39907 0.24094 0.89379 0.0
C4385 C 0.41667 0.25139 0.88361 0.0
C4386 C 0.41611 0.24657 0.87931 0.0
C4387 C 0.4119 0.2527 0.88774 0.0
C4388 C 0.39808 0.2457 0.89496 0.0
H4389 H 0.38633 0.26286 0.91934 0.0
H4390 H 0.39362 0.2609 0.911 0.0
H4391 H 0.39122 0.24307 0.90157 0.0
H4392 H 0.41001 0.23936 0.87598 0.0
H4393 H 0.40161 0.24176 0.88306 0.0
H4394 H 0.40242 0.2605 0.89186 0.0
C4395 C 0.38924 0.2585 0.91098 0.0
C4396 C 0.39359 0.24691 0.89943 0.0
C4397 C 0.38509 0.25958 0.91579 0.0
C4398 C 0.41059 0.24315 0.87918 0.0
C4399 C 0.4058 0.24447 0.88331 0.0
C4400 C 0.40004 0.25665 0.89396 0.0
C4401 C 0.38782 0.25427 0.90627 0.0
C4402 C 0.39234 0.253 0.90128 0.0
C4403 C 0.40641 0.24925 0.88766 0.0
C4404 C 0.40141 0.25055 0.8922 0.0
H4405 H 0.37359 0.24983 0.91129 0.0
H4406 H 0.38086 0.24794 0.90287 0.0
H4407 H 0.39465 0.2626 0.89972 0.0
H4408 H 0.42081 0.25419 0.88378 0.0
H4409 H 0.41257 0.25636 0.89107 0.0
C4410 C 0.75286 0.38 0.91405 0.0
C4411 C 0.74678 0.37856 0.91582 0.0
C4412 C 0.75398 0.38422 0.90929 0.0
C4413 C 0.74655 0.39206 0.896 0.0
H4414 H 0.75978 0.4039 0.89819 0.0
C4415 C 0.74935 0.41369 0.8806 0.0
C4416 C 0.75536 0.41537 0.87884 0.0
C4417 C 0.74838 0.40893 0.88485 0.0
C4418 C 0.75612 0.40057 0.89746 0.0
H4419 H 0.73713 0.38044 0.91398 0.0
H4420 H 0.73908 0.38782 0.90573 0.0
H4421 H 0.75795 0.39609 0.90606 0.0
H4422 H 0.76507 0.41335 0.88017 0.0
H4423 H 0.76337 0.40501 0.88753 0.0
H4424 H 0.74467 0.39661 0.88743 0.0
C4425 C 0.74298 0.38561 0.90794 0.0
C4426 C 0.75507 0.39609 0.90198 0.0
C4427 C 0.74186 0.38138 0.91268 0.0
C4428 C 0.76038 0.41213 0.88138 0.0
C4429 C 0.75941 0.4074 0.88565 0.0
C4430 C 0.74759 0.39656 0.89149 0.0
C4431 C 0.74906 0.38712 0.90621 0.0
C4432 C 0.75026 0.39179 0.90132 0.0
C4433 C 0.7534 0.40577 0.88747 0.0
C4434 C 0.75237 0.40088 0.89218 0.0
H4435 H 0.75675 0.37783 0.91631 0.0
H4436 H 0.75871 0.38518 0.90801 0.0
H4437 H 0.74286 0.38876 0.89529 0.0
H4438 H 0.74538 0.41604 0.87868 0.0
H4439 H 0.74369 0.40783 0.88619 0.0
C4440 C 0.59103 0.75539 0.87762 0.0
C4441 C 0.58492 0.7562 0.87965 0.0
C4442 C 0.59581 0.75445 0.88185 0.0
C4443 C 0.59982 0.75664 0.89831 0.0
H4444 H 0.61244 0.74442 0.89498 0.0
C4445 C 0.62076 0.75347 0.91441 0.0
C4446 C 0.6225 0.74737 0.91579 0.0
C4447 C 0.61648 0.75469 0.90974 0.0
C4448 C 0.60894 0.74783 0.89599 0.0
H4449 H 0.57909 0.75674 0.88776 0.0
H4450 H 0.58738 0.75498 0.89512 0.0
H4451 H 0.60429 0.74621 0.88742 0.0
H4452 H 0.62114 0.73778 0.91329 0.0
H4453 H 0.61367 0.73991 0.90515 0.0
H4454 H 0.60434 0.75814 0.90695 0.0
C4455 C 0.58849 0.75513 0.89025 0.0
C4456 C 0.6043 0.74891 0.89163 0.0
C4457 C 0.58372 0.75606 0.88603 0.0
C4458 C 0.61996 0.74254 0.9123 0.0
C4459 C 0.61567 0.74375 0.90763 0.0
C4460 C 0.60444 0.75556 0.90267 0.0
C4461 C 0.5946 0.75431 0.88822 0.0
C4462 C 0.59966 0.7533 0.89276 0.0
C4463 C 0.61384 0.74984 0.90633 0.0
C4464 C 0.60904 0.75112 0.90158 0.0
H4465 H 0.59211 0.75542 0.87274 0.0
H4466 H 0.60047 0.75389 0.88013 0.0
H4467 H 0.59636 0.76011 0.8993 0.0
H4468 H 0.62271 0.75731 0.91694 0.0
H4469 H 0.61526 0.75944 0.90879 0.0
C4470 C 0.75031 0.5844 0.11781 0.0
C4471 C 0.75505 0.58504 0.1222 0.0
C4472 C 0.74901 0.58914 0.11364 0.0
C4473 C 0.75595 0.60305 0.10653 0.0
H4474 H 0.73908 0.60624 0.10147 0.0
C4475 C 0.7493 0.62323 0.09029 0.0
C4476 C 0.74522 0.62176 0.08547 0.0
C4477 C 0.75041 0.61901 0.09505 0.0
C4478 C 0.74382 0.60538 0.10281 0.0
H4479 H 0.76211 0.59125 0.12563 0.0
H4480 H 0.75973 0.59959 0.11848 0.0
H4481 H 0.74115 0.59849 0.10935 0.0
H4482 H 0.73902 0.61476 0.08192 0.0
H4483 H 0.74097 0.60739 0.09021 0.0
H4484 H 0.75859 0.60998 0.09999 0.0
C4485 C 0.75708 0.59536 0.1182 0.0
C4486 C 0.74501 0.60092 0.10731 0.0
C4487 C 0.75839 0.5906 0.12236 0.0
C4488 C 0.74222 0.61601 0.08555 0.0
C4489 C 0.7433 0.61181 0.09032 0.0
C4490 C 0.75475 0.60754 0.10205 0.0
C4491 C 0.75239 0.59468 0.11376 0.0
C4492 C 0.7511 0.59965 0.10919 0.0
C4493 C 0.74743 0.61325 0.09511 0.0
C4494 C 0.74868 0.60871 0.10009 0.0
H4495 H 0.74757 0.58022 0.1176 0.0
H4496 H 0.74542 0.5884 0.11024 0.0
H4497 H 0.7607 0.60214 0.10778 0.0
H4498 H 0.7517 0.62761 0.09034 0.0
H4499 H 0.75358 0.62027 0.0987 0.0
C4500 C 0.41343 0.7492 0.12137 0.0
C4501 C 0.41531 0.75527 0.12263 0.0
C4502 C 0.4087 0.74803 0.11714 0.0
C4503 C 0.39565 0.75546 0.10888 0.0
H4504 H 0.39775 0.7418 0.09752 0.0
C4505 C 0.38048 0.75219 0.08715 0.0
C4506 C 0.37863 0.74615 0.08566 0.0
C4507 C 0.38469 0.75325 0.09192 0.0
C4508 C 0.39705 0.74558 0.10071 0.0
H4509 H 0.41368 0.76489 0.12043 0.0
H4510 H 0.40546 0.76287 0.11303 0.0
H4511 H 0.40555 0.74374 0.10536 0.0
H4512 H 0.37975 0.7365 0.08804 0.0
H4513 H 0.38704 0.73836 0.09641 0.0
H4514 H 0.38718 0.75733 0.10415 0.0
C4515 C 0.40757 0.759 0.11538 0.0
C4516 C 0.40152 0.7467 0.10521 0.0
C4517 C 0.41229 0.76016 0.11963 0.0
C4518 C 0.38104 0.74121 0.0891 0.0
C4519 C 0.38526 0.74227 0.09386 0.0
C4520 C 0.39118 0.75435 0.10436 0.0
C4521 C 0.40575 0.75291 0.11405 0.0
C4522 C 0.4009 0.75166 0.10935 0.0
C4523 C 0.38717 0.7483 0.0953 0.0
C4524 C 0.39184 0.74941 0.10021 0.0
H4525 H 0.4156 0.74533 0.12367 0.0
H4526 H 0.40734 0.74329 0.11631 0.0
H4527 H 0.39497 0.75926 0.11205 0.0
H4528 H 0.37867 0.7561 0.08462 0.0
H4529 H 0.3861 0.75795 0.09288 0.0
C4530 C 0.62445 0.25492 0.09122 0.0
C4531 C 0.6224 0.25575 0.08512 0.0
C4532 C 0.62021 0.25398 0.09601 0.0
C4533 C 0.60378 0.25628 0.10004 0.0
H4534 H 0.60703 0.244 0.11264 0.0
C4535 C 0.58767 0.2532 0.12099 0.0
C4536 C 0.58623 0.24712 0.12271 0.0
C4537 C 0.59236 0.25439 0.11672 0.0
C4538 C 0.60604 0.24742 0.10914 0.0
H4539 H 0.61429 0.25634 0.0793 0.0
H4540 H 0.60693 0.25459 0.0876 0.0
H4541 H 0.61459 0.24575 0.10448 0.0
H4542 H 0.58864 0.23751 0.12131 0.0
H4543 H 0.5968 0.23957 0.11385 0.0
H4544 H 0.59516 0.25784 0.10458 0.0
C4545 C 0.6118 0.25472 0.0887 0.0
C4546 C 0.61041 0.24848 0.1045 0.0
C4547 C 0.61603 0.25564 0.08393 0.0
C4548 C 0.58968 0.24225 0.12015 0.0
C4549 C 0.59436 0.24344 0.11587 0.0
C4550 C 0.59942 0.25523 0.10467 0.0
C4551 C 0.61384 0.25388 0.0948 0.0
C4552 C 0.60931 0.25289 0.09987 0.0
C4553 C 0.59572 0.24952 0.11406 0.0
C4554 C 0.60048 0.25076 0.10926 0.0
H4555 H 0.62933 0.25492 0.0923 0.0
H4556 H 0.62193 0.2534 0.10066 0.0
H4557 H 0.60281 0.25976 0.09659 0.0
H4558 H 0.58518 0.25706 0.12295 0.0
H4559 H 0.59336 0.25913 0.11552 0.0
C4560 C 0.88161 0.76086 0.58897 0.0
C4561 C 0.87906 0.75589 0.58567 0.0
C4562 C 0.88587 0.75983 0.59371 0.0
C4563 C 0.89165 0.74787 0.60442 0.0
H4564 H 0.90626 0.75817 0.60501 0.0
C4565 C 0.91281 0.74188 0.61953 0.0
C4566 C 0.91598 0.74676 0.6224 0.0
C4567 C 0.90807 0.74308 0.61531 0.0
C4568 C 0.90217 0.7553 0.60497 0.0
H4569 H 0.87889 0.74592 0.58488 0.0
H4570 H 0.88637 0.74411 0.59309 0.0
H4571 H 0.8984 0.76012 0.59722 0.0
H4572 H 0.91652 0.75671 0.62324 0.0
H4573 H 0.90823 0.7588 0.61592 0.0
H4574 H 0.89543 0.74305 0.61217 0.0
C4575 C 0.88505 0.74881 0.59204 0.0
C4576 C 0.89766 0.75642 0.6005 0.0
C4577 C 0.88081 0.74985 0.58729 0.0
C4578 C 0.91424 0.75285 0.62103 0.0
C4579 C 0.90949 0.75405 0.61683 0.0
C4580 C 0.89615 0.74676 0.60891 0.0
C4581 C 0.88766 0.75379 0.59527 0.0
C4582 C 0.89236 0.7527 0.60015 0.0
C4583 C 0.90638 0.74917 0.61388 0.0
C4584 C 0.90149 0.75045 0.60922 0.0
H4585 H 0.8804 0.76557 0.58781 0.0
H4586 H 0.88775 0.76376 0.59615 0.0
H4587 H 0.88758 0.74497 0.60433 0.0
H4588 H 0.9141 0.73714 0.62041 0.0
H4589 H 0.90584 0.73921 0.61306 0.0
C4590 C 0.25486 0.91135 0.6232 0.0
C4591 C 0.2556 0.91751 0.62132 0.0
C4592 C 0.25384 0.90668 0.61885 0.0
C4593 C 0.25574 0.90319 0.60223 0.0
H4594 H 0.24357 0.89045 0.60534 0.0
C4595 C 0.24716 0.88698 0.58303 0.0
C4596 C 0.24635 0.88071 0.58448 0.0
C4597 C 0.24839 0.89129 0.58767 0.0
C4598 C 0.24703 0.89393 0.60443 0.0
H4599 H 0.25593 0.92358 0.61336 0.0
H4600 H 0.25404 0.91549 0.60582 0.0
H4601 H 0.24556 0.89829 0.61318 0.0
H4602 H 0.24619 0.87406 0.59195 0.0
H4603 H 0.24831 0.8816 0.60006 0.0
H4604 H 0.25719 0.89887 0.59348 0.0
C4605 C 0.2543 0.91424 0.61065 0.0
C4606 C 0.24818 0.89842 0.60893 0.0
C4607 C 0.25531 0.91889 0.61498 0.0
C4608 C 0.24672 0.87886 0.59069 0.0
C4609 C 0.24794 0.88318 0.59533 0.0
C4610 C 0.25459 0.89871 0.59775 0.0
C4611 C 0.25357 0.90807 0.61252 0.0
C4612 C 0.2525 0.90314 0.60786 0.0
C4613 C 0.24882 0.88944 0.59387 0.0
C4614 C 0.25018 0.89406 0.59876 0.0
H4615 H 0.25501 0.91013 0.62804 0.0
H4616 H 0.25335 0.90197 0.62045 0.0
H4617 H 0.25919 0.90668 0.60131 0.0
H4618 H 0.24678 0.88859 0.57832 0.0
H4619 H 0.24892 0.89609 0.58639 0.0
C4620 C 0.08302 0.25371 0.6152 0.0
C4621 C 0.08444 0.25462 0.62146 0.0
C4622 C 0.08767 0.25245 0.61092 0.0
C4623 C 0.10444 0.25393 0.60833 0.0
H4624 H 0.10145 0.24169 0.59562 0.0
C4625 C 0.12328 0.24631 0.59091 0.0
C4626 C 0.1214 0.24558 0.58474 0.0
C4627 C 0.11893 0.24725 0.59558 0.0
C4628 C 0.10234 0.24517 0.5991 0.0
H4629 H 0.09189 0.25487 0.62814 0.0
H4630 H 0.10003 0.2527 0.62065 0.0
H4631 H 0.09359 0.24365 0.60341 0.0
H4632 H 0.11344 0.24515 0.57869 0.0
H4633 H 0.10588 0.2469 0.5868 0.0
H4634 H 0.11317 0.25548 0.60397 0.0
C4635 C 0.09531 0.25302 0.61905 0.0
C4636 C 0.09783 0.24628 0.60357 0.0
C4637 C 0.09064 0.25427 0.62333 0.0
C4638 C 0.11506 0.24577 0.58337 0.0
C4639 C 0.11072 0.2467 0.58804 0.0
C4640 C 0.10895 0.25281 0.60384 0.0
C4641 C 0.09387 0.25208 0.61279 0.0
C4642 C 0.0988 0.25072 0.6082 0.0
C4643 C 0.11259 0.24745 0.5942 0.0
C4644 C 0.10793 0.24846 0.59914 0.0
H4645 H 0.07831 0.25406 0.61356 0.0
H4646 H 0.08642 0.25187 0.60612 0.0
H4647 H 0.1053 0.25742 0.61179 0.0
H4648 H 0.12813 0.24624 0.59211 0.0
H4649 H 0.12053 0.24776 0.60029 0.0
C4650 C 0.75213 0.08749 0.62073 0.0
C4651 C 0.74611 0.08575 0.62239 0.0
C4652 C 0.75313 0.09226 0.61651 0.0
C4653 C 0.74552 0.10055 0.60378 0.0
H4654 H 0.75863 0.11248 0.60616 0.0
C4655 C 0.74892 0.12108 0.58717 0.0
C4656 C 0.75501 0.12256 0.58551 0.0
C4657 C 0.74774 0.11688 0.59193 0.0
C4658 C 0.75499 0.10915 0.60539 0.0
H4659 H 0.7364 0.08768 0.62092 0.0
H4660 H 0.73814 0.09606 0.6136 0.0
H4661 H 0.75675 0.10463 0.614 0.0
H4662 H 0.76464 0.12077 0.58754 0.0
H4663 H 0.76259 0.11342 0.59579 0.0
H4664 H 0.7438 0.10499 0.59514 0.0
C4665 C 0.7421 0.0937 0.61554 0.0
C4666 C 0.75391 0.10465 0.6099 0.0
C4667 C 0.7411 0.08894 0.61978 0.0
C4668 C 0.7599 0.1198 0.58876 0.0
C4669 C 0.75872 0.11558 0.5935 0.0
C4670 C 0.74661 0.10503 0.59927 0.0
C4671 C 0.74812 0.09539 0.61382 0.0
C4672 C 0.74917 0.10029 0.60913 0.0
C4673 C 0.75263 0.11404 0.59512 0.0
C4674 C 0.75137 0.10937 0.60001 0.0
H4675 H 0.75609 0.08516 0.6227 0.0
H4676 H 0.75782 0.09342 0.61525 0.0
H4677 H 0.7419 0.09719 0.603 0.0
H4678 H 0.74506 0.1232 0.58482 0.0
H4679 H 0.74299 0.11589 0.59312 0.0
C4680 C 0.91681 0.25048 0.38441 0.0
C4681 C 0.91619 0.25528 0.38008 0.0
C4682 C 0.91207 0.24918 0.38858 0.0
C4683 C 0.89825 0.25615 0.39583 0.0
H4684 H 0.89493 0.23925 0.40068 0.0
C4685 C 0.87817 0.24946 0.41219 0.0
C4686 C 0.87967 0.2453 0.41694 0.0
C4687 C 0.88234 0.2506 0.4074 0.0
C4688 C 0.89583 0.244 0.3994 0.0
H4689 H 0.91004 0.26244 0.37675 0.0
H4690 H 0.9017 0.26005 0.3839 0.0
H4691 H 0.90265 0.24136 0.39278 0.0
H4692 H 0.88666 0.23899 0.42031 0.0
H4693 H 0.89394 0.241 0.41197 0.0
H4694 H 0.8914 0.25877 0.40246 0.0
C4695 C 0.90591 0.25736 0.38414 0.0
C4696 C 0.90027 0.24521 0.39488 0.0
C4697 C 0.91066 0.25868 0.37998 0.0
C4698 C 0.88539 0.24226 0.41675 0.0
C4699 C 0.88954 0.24336 0.41194 0.0
C4700 C 0.89378 0.25493 0.40033 0.0
C4701 C 0.90656 0.25262 0.38852 0.0
C4702 C 0.90159 0.25131 0.39309 0.0
C4703 C 0.88808 0.24757 0.40723 0.0
C4704 C 0.89258 0.24885 0.40221 0.0
H4705 H 0.92095 0.24771 0.38457 0.0
H4706 H 0.91278 0.24555 0.39193 0.0
H4707 H 0.8992 0.26091 0.39464 0.0
H4708 H 0.87381 0.2519 0.41223 0.0
H4709 H 0.88107 0.25384 0.40381 0.0
C4710 C 0.74575 0.91747 0.38652 0.0
C4711 C 0.74556 0.91626 0.38015 0.0
C4712 C 0.74666 0.91269 0.39075 0.0
C4713 C 0.75272 0.89682 0.3921 0.0
H4714 H 0.7436 0.89689 0.40749 0.0
C4715 C 0.75907 0.88112 0.41274 0.0
C4716 C 0.75423 0.87863 0.41627 0.0
C4717 C 0.75787 0.88541 0.40808 0.0
C4718 C 0.74614 0.89676 0.40319 0.0
H4719 H 0.74621 0.90906 0.37324 0.0
H4720 H 0.7477 0.90069 0.38063 0.0
H4721 H 0.74166 0.90489 0.39984 0.0
H4722 H 0.74431 0.87853 0.4175 0.0
H4723 H 0.7422 0.88599 0.40936 0.0
H4724 H 0.75715 0.88863 0.39543 0.0
C4725 C 0.7472 0.90535 0.38235 0.0
C4726 C 0.74508 0.90139 0.39883 0.0
C4727 C 0.74628 0.91014 0.37812 0.0
C4728 C 0.74815 0.88044 0.41494 0.0
C4729 C 0.74694 0.88472 0.41027 0.0
C4730 C 0.75378 0.89218 0.39646 0.0
C4731 C 0.7474 0.90657 0.38872 0.0
C4732 C 0.74839 0.90151 0.39325 0.0
C4733 C 0.75179 0.88731 0.40682 0.0
C4734 C 0.75053 0.89211 0.40207 0.0
H4735 H 0.74514 0.92211 0.38826 0.0
H4736 H 0.74686 0.91381 0.39562 0.0
H4737 H 0.75538 0.89679 0.38787 0.0
H4738 H 0.76382 0.87989 0.4137 0.0
H4739 H 0.76172 0.88738 0.40557 0.0
C4740 C 0.12139 0.74886 0.41435 0.0
C4741 C 0.12285 0.75494 0.41604 0.0
C4742 C 0.11718 0.74769 0.4096 0.0
C4743 C 0.10938 0.75498 0.3962 0.0
H4744 H 0.09748 0.74184 0.39855 0.0
C4745 C 0.08769 0.75215 0.3809 0.0
C4746 C 0.08597 0.74613 0.37921 0.0
C4747 C 0.09247 0.75313 0.38513 0.0
C4748 C 0.10082 0.74547 0.39779 0.0
H4749 H 0.12102 0.76458 0.41407 0.0
H4750 H 0.11364 0.76255 0.40583 0.0
H4751 H 0.1053 0.74372 0.4064 0.0
H4752 H 0.08794 0.73643 0.38061 0.0
H4753 H 0.09632 0.73814 0.38793 0.0
H4754 H 0.10483 0.75678 0.38762 0.0
C4755 C 0.11583 0.75867 0.40809 0.0
C4756 C 0.10531 0.74655 0.40229 0.0
C4757 C 0.12006 0.75984 0.41283 0.0
C4758 C 0.08918 0.74112 0.38178 0.0
C4759 C 0.09394 0.7421 0.38602 0.0
C4760 C 0.10487 0.75391 0.39171 0.0
C4761 C 0.11431 0.75258 0.40645 0.0
C4762 C 0.10964 0.75133 0.40157 0.0
C4763 C 0.09562 0.74812 0.38778 0.0
C4764 C 0.10052 0.74916 0.39246 0.0
H4765 H 0.12354 0.74499 0.41667 0.0
H4766 H 0.1162 0.74294 0.40839 0.0
H4767 H 0.1127 0.75864 0.39545 0.0
H4768 H 0.08535 0.75611 0.37896 0.0
H4769 H 0.09361 0.75783 0.38642 0.0
C4770 C 0.25616 0.0834 0.38678 0.0
C4771 C 0.25613 0.08469 0.38043 0.0
C4772 C 0.25523 0.08809 0.3911 0.0
C4773 C 0.24872 0.10375 0.39285 0.0
H4774 H 0.25836 0.10378 0.40792 0.0
C4775 C 0.24729 0.12345 0.41094 0.0
C4776 C 0.2472 0.12165 0.41718 0.0
C4777 C 0.24851 0.11913 0.40629 0.0
C4778 C 0.25559 0.10381 0.40377 0.0
H4779 H 0.25506 0.09195 0.37363 0.0
H4780 H 0.25353 0.10018 0.38118 0.0
H4781 H 0.26029 0.09594 0.40012 0.0
H4782 H 0.24815 0.11386 0.42338 0.0
H4783 H 0.25028 0.10636 0.41531 0.0
H4784 H 0.24401 0.11162 0.39653 0.0
C4785 C 0.25422 0.09551 0.38281 0.0
C4786 C 0.2567 0.09931 0.39929 0.0
C4787 C 0.25516 0.09081 0.37849 0.0
C4788 C 0.24831 0.11543 0.41864 0.0
C4789 C 0.24953 0.11113 0.41401 0.0
C4790 C 0.24762 0.10826 0.39734 0.0
C4791 C 0.25425 0.09421 0.38917 0.0
C4792 C 0.25324 0.09918 0.3938 0.0
C4793 C 0.24967 0.11292 0.40778 0.0
C4794 C 0.251 0.1083 0.40288 0.0
H4795 H 0.25697 0.07875 0.38844 0.0
H4796 H 0.25521 0.08691 0.39595 0.0
H4797 H 0.24593 0.10374 0.38871 0.0
H4798 H 0.24652 0.12821 0.40965 0.0
H4799 H 0.24864 0.12068 0.40154 0.0
C4800 C 0.6199 0.91207 0.74198 0.0
C4801 C 0.6225 0.91549 0.74684 0.0
C4802 C 0.6156 0.90741 0.74317 0.0
C4803 C 0.6044 0.90241 0.75499 0.0
H4804 H 0.60411 0.88724 0.74552 0.0
C4805 C 0.5836 0.88587 0.75552 0.0
C4806 C 0.58478 0.87949 0.75562 0.0
C4807 C 0.58838 0.89008 0.75456 0.0
C4808 C 0.60416 0.89143 0.74824 0.0
H4809 H 0.62277 0.91654 0.75678 0.0
H4810 H 0.61528 0.90841 0.75887 0.0
H4811 H 0.61229 0.89477 0.74373 0.0
H4812 H 0.59193 0.87255 0.75475 0.0
H4813 H 0.60031 0.87992 0.75318 0.0
H4814 H 0.59632 0.89905 0.75955 0.0
C4815 C 0.61648 0.90941 0.75412 0.0
C4816 C 0.60881 0.89577 0.74717 0.0
C4817 C 0.62078 0.91406 0.75292 0.0
C4818 C 0.59087 0.87743 0.75475 0.0
C4819 C 0.59566 0.88165 0.75378 0.0
C4820 C 0.59975 0.89808 0.75606 0.0
C4821 C 0.61379 0.90606 0.74926 0.0
C4822 C 0.60897 0.90133 0.75051 0.0
C4823 C 0.59447 0.88803 0.75369 0.0
C4824 C 0.59955 0.89255 0.75267 0.0
H4825 H 0.62107 0.9131 0.73723 0.0
H4826 H 0.61356 0.90499 0.73931 0.0
H4827 H 0.60434 0.90667 0.7576 0.0
H4828 H 0.57898 0.88762 0.75625 0.0
H4829 H 0.58729 0.89496 0.75444 0.0
C4830 C 0.1198 0.58866 0.75996 0.0
C4831 C 0.12264 0.58545 0.7551 0.0
C4832 C 0.11559 0.5934 0.75875 0.0
C4833 C 0.10521 0.59922 0.74653 0.0
H4834 H 0.10465 0.6139 0.75674 0.0
C4835 C 0.08924 0.61979 0.74088 0.0
C4836 C 0.08597 0.62238 0.74584 0.0
C4837 C 0.09396 0.61552 0.74193 0.0
C4838 C 0.10471 0.6098 0.75388 0.0
H4839 H 0.12343 0.58482 0.74515 0.0
H4840 H 0.11612 0.59311 0.74303 0.0
H4841 H 0.11247 0.60605 0.7587 0.0
H4842 H 0.08522 0.62264 0.75582 0.0
H4843 H 0.09341 0.61514 0.75764 0.0
H4844 H 0.09744 0.60297 0.74172 0.0
C4845 C 0.11705 0.59189 0.74779 0.0
C4846 C 0.1092 0.6053 0.755 0.0
C4847 C 0.12125 0.58714 0.749 0.0
C4848 C 0.0876 0.62068 0.75189 0.0
C4849 C 0.09234 0.61643 0.75294 0.0
C4850 C 0.10074 0.60373 0.74539 0.0
C4851 C 0.11413 0.59505 0.75265 0.0
C4852 C 0.10948 0.59994 0.75136 0.0
C4853 C 0.09555 0.61377 0.74797 0.0
C4854 C 0.10042 0.60906 0.74907 0.0
H4855 H 0.12072 0.58741 0.76472 0.0
H4856 H 0.11337 0.59566 0.76261 0.0
H4857 H 0.10522 0.59511 0.7437 0.0
H4858 H 0.08806 0.62096 0.73616 0.0
H4859 H 0.09638 0.6136 0.738 0.0
C4860 C 0.41819 0.11551 0.75535 0.0
C4861 C 0.41686 0.12185 0.75544 0.0
C4862 C 0.41351 0.11118 0.75443 0.0
C4863 C 0.39777 0.10941 0.74814 0.0
H4864 H 0.39798 0.09421 0.75759 0.0
C4865 C 0.37818 0.09119 0.74678 0.0
C4866 C 0.38002 0.08496 0.7466 0.0
C4867 C 0.38248 0.09585 0.74798 0.0
C4868 C 0.39788 0.09841 0.75487 0.0
H4869 H 0.40954 0.12862 0.75457 0.0
H4870 H 0.40133 0.12105 0.75305 0.0
H4871 H 0.40579 0.10205 0.7595 0.0
H4872 H 0.38787 0.0788 0.74737 0.0
H4873 H 0.39534 0.08691 0.74946 0.0
H4874 H 0.38986 0.10573 0.74349 0.0
C4875 C 0.40602 0.11943 0.75365 0.0
C4876 C 0.40237 0.1029 0.75597 0.0
C4877 C 0.41072 0.12377 0.75459 0.0
C4878 C 0.38626 0.08353 0.7476 0.0
C4879 C 0.39056 0.08819 0.7488 0.0
C4880 C 0.39327 0.1049 0.74705 0.0
C4881 C 0.40736 0.11308 0.75357 0.0
C4882 C 0.40241 0.10843 0.75258 0.0
C4883 C 0.38872 0.0944 0.74903 0.0
C4884 C 0.39332 0.09932 0.75035 0.0
H4885 H 0.42285 0.11386 0.75607 0.0
H4886 H 0.41472 0.10633 0.75433 0.0
H4887 H 0.39771 0.11358 0.7454 0.0
H4888 H 0.37339 0.09245 0.7461 0.0
H4889 H 0.3809 0.10059 0.74819 0.0
C4890 C 0.88161 0.41191 0.75938 0.0
C4891 C 0.87905 0.41534 0.75451 0.0
C4892 C 0.88592 0.40725 0.75821 0.0
C4893 C 0.89718 0.40224 0.74646 0.0
H4894 H 0.89739 0.38706 0.75593 0.0
C4895 C 0.91796 0.38566 0.74605 0.0
C4896 C 0.91677 0.37929 0.74593 0.0
C4897 C 0.91317 0.38988 0.74698 0.0
C4898 C 0.89737 0.39125 0.7532 0.0
H4899 H 0.87883 0.41638 0.74456 0.0
H4900 H 0.88632 0.40825 0.74252 0.0
H4901 H 0.88921 0.3946 0.75767 0.0
H4902 H 0.90959 0.37236 0.74675 0.0
H4903 H 0.90122 0.37974 0.74827 0.0
H4904 H 0.90528 0.39887 0.74194 0.0
C4905 C 0.88509 0.40924 0.74726 0.0
C4906 C 0.89271 0.3956 0.75425 0.0
C4907 C 0.88079 0.4139 0.74843 0.0
C4908 C 0.91066 0.37724 0.74676 0.0
C4909 C 0.90588 0.38146 0.7477 0.0
C4910 C 0.90183 0.3979 0.74542 0.0
C4911 C 0.88776 0.4059 0.75214 0.0
C4912 C 0.89258 0.40116 0.75091 0.0
C4913 C 0.90707 0.38784 0.74781 0.0
C4914 C 0.902 0.39237 0.7488 0.0
H4915 H 0.88043 0.41295 0.76413 0.0
H4916 H 0.88794 0.40483 0.76209 0.0
H4917 H 0.89726 0.4065 0.74385 0.0
H4918 H 0.92259 0.38741 0.74536 0.0
H4919 H 0.91428 0.39475 0.74711 0.0
C4920 C 0.58874 0.11967 0.24162 0.0
C4921 C 0.58561 0.12256 0.24651 0.0
C4922 C 0.59348 0.11545 0.24279 0.0
C4923 C 0.59943 0.10513 0.25501 0.0
H4924 H 0.61395 0.1044 0.2446 0.0
C4925 C 0.61997 0.0891 0.26053 0.0
C4926 C 0.62249 0.08578 0.25555 0.0
C4927 C 0.61572 0.09384 0.25949 0.0
C4928 C 0.6099 0.10452 0.24752 0.0
H4929 H 0.58515 0.12344 0.25646 0.0
H4930 H 0.59344 0.11612 0.25851 0.0
H4931 H 0.60612 0.11226 0.24268 0.0
H4932 H 0.62262 0.08494 0.24559 0.0
H4933 H 0.61514 0.09316 0.24378 0.0
H4934 H 0.6032 0.09739 0.25983 0.0
C4935 C 0.59215 0.11701 0.25377 0.0
C4936 C 0.6054 0.10901 0.24642 0.0
C4937 C 0.5874 0.12122 0.2526 0.0
C4938 C 0.62072 0.08737 0.24952 0.0
C4939 C 0.61649 0.09212 0.24848 0.0
C4940 C 0.60393 0.10065 0.25612 0.0
C4941 C 0.59522 0.11403 0.24888 0.0
C4942 C 0.6001 0.10936 0.25014 0.0
C4943 C 0.6139 0.09538 0.25346 0.0
C4944 C 0.60921 0.10027 0.25237 0.0
H4945 H 0.58742 0.12054 0.23688 0.0
H4946 H 0.59567 0.11318 0.23892 0.0
H4947 H 0.59535 0.10519 0.2579 0.0
H4948 H 0.6212 0.08796 0.26523 0.0
H4949 H 0.61386 0.0963 0.26342 0.0
C4950 C 0.91512 0.62096 0.24809 0.0
C4951 C 0.91642 0.62276 0.25418 0.0
C4952 C 0.91044 0.61669 0.24685 0.0
C4953 C 0.89657 0.60928 0.25363 0.0
H4954 H 0.89995 0.59656 0.24151 0.0
C4955 C 0.87819 0.59138 0.24607 0.0
C4956 C 0.88021 0.58525 0.24535 0.0
C4957 C 0.88244 0.59615 0.247 0.0
C4958 C 0.89895 0.60006 0.24493 0.0
H4959 H 0.9138 0.6215 0.26375 0.0
H4960 H 0.90566 0.61404 0.26161 0.0
H4961 H 0.90762 0.60453 0.24348 0.0
H4962 H 0.8883 0.57938 0.24494 0.0
H4963 H 0.89568 0.58766 0.24668 0.0
H4964 H 0.88796 0.60469 0.25519 0.0
C4965 C 0.90819 0.616 0.25777 0.0
C4966 C 0.90331 0.60468 0.24601 0.0
C4967 C 0.91286 0.62027 0.259 0.0
C4968 C 0.88657 0.58403 0.24555 0.0
C4969 C 0.89082 0.58879 0.24647 0.0
C4970 C 0.8922 0.60466 0.25255 0.0
C4971 C 0.90696 0.61411 0.25168 0.0
C4972 C 0.9022 0.60933 0.2504 0.0
C4973 C 0.88881 0.59491 0.24721 0.0
C4974 C 0.89335 0.59996 0.24822 0.0
H4975 H 0.9177 0.62287 0.24426 0.0
H4976 H 0.90955 0.61542 0.2421 0.0
H4977 H 0.89554 0.61282 0.25699 0.0
H4978 H 0.87332 0.59248 0.24599 0.0
H4979 H 0.88074 0.60082 0.2475 0.0
C4980 C 0.41012 0.87861 0.24632 0.0
C4981 C 0.41629 0.88051 0.24566 0.0
C4982 C 0.40543 0.88295 0.24726 0.0
C4983 C 0.40191 0.89956 0.24535 0.0
H4984 H 0.38913 0.89644 0.25747 0.0
C4985 C 0.38574 0.91876 0.25401 0.0
C4986 C 0.37946 0.91733 0.25485 0.0
C4987 C 0.39003 0.91412 0.25273 0.0
C4988 C 0.39262 0.89735 0.25402 0.0
H4989 H 0.42234 0.88848 0.24538 0.0
H4990 H 0.41421 0.89601 0.24714 0.0
H4991 H 0.39697 0.8886 0.25549 0.0
H4992 H 0.37279 0.90987 0.25496 0.0
H4993 H 0.3803 0.90176 0.25275 0.0
H4994 H 0.39761 0.90833 0.24391 0.0
C4995 C 0.41297 0.89117 0.24687 0.0
C4996 C 0.39711 0.89285 0.25288 0.0
C4997 C 0.41765 0.88684 0.24594 0.0
C4998 C 0.3776 0.91113 0.25442 0.0
C4999 C 0.3819 0.90648 0.25314 0.0
C5000 C 0.39743 0.90405 0.24649 0.0
C5001 C 0.4068 0.88929 0.24754 0.0
C5002 C 0.40185 0.89393 0.24857 0.0
C5003 C 0.38816 0.90793 0.25226 0.0
C5004 C 0.39277 0.90303 0.25088 0.0
H5005 H 0.40892 0.87376 0.24618 0.0
H5006 H 0.40072 0.88134 0.24771 0.0
H5007 H 0.40542 0.9005 0.24192 0.0
H5008 H 0.38736 0.92347 0.25443 0.0
H5009 H 0.39483 0.91539 0.2522 0.0
C5010 C 0.1208 0.41408 0.25238 0.0
C5011 C 0.12219 0.41579 0.24628 0.0
C5012 C 0.11659 0.40935 0.25359 0.0
C5013 C 0.10864 0.396 0.24637 0.0
H5014 H 0.09693 0.39836 0.25969 0.0
C5015 C 0.08698 0.38071 0.24953 0.0
C5016 C 0.08536 0.37901 0.25558 0.0
C5017 C 0.09174 0.38494 0.24847 0.0
C5018 C 0.10022 0.39759 0.25601 0.0
H5019 H 0.12023 0.41385 0.23666 0.0
H5020 H 0.11284 0.40564 0.23877 0.0
H5021 H 0.10474 0.40619 0.25771 0.0
H5022 H 0.0875 0.38041 0.26525 0.0
H5023 H 0.09584 0.38773 0.2634 0.0
H5024 H 0.10404 0.38743 0.24463 0.0
C5025 C 0.11509 0.40788 0.24263 0.0
C5026 C 0.1047 0.40208 0.25487 0.0
C5027 C 0.11932 0.4126 0.24142 0.0
C5028 C 0.08866 0.38158 0.26054 0.0
C5029 C 0.0934 0.38583 0.25948 0.0
C5030 C 0.10414 0.39152 0.2475 0.0
C5031 C 0.11364 0.40623 0.24873 0.0
C5032 C 0.10896 0.40136 0.25003 0.0
C5033 C 0.09497 0.38759 0.25344 0.0
C5034 C 0.09986 0.39227 0.25232 0.0
H5035 H 0.12301 0.41638 0.25623 0.0
H5036 H 0.11566 0.40813 0.25835 0.0
H5037 H 0.1119 0.39525 0.24266 0.0
H5038 H 0.08458 0.37877 0.24561 0.0
H5039 H 0.0928 0.38623 0.24377 0.0
C5040 C 0.74169 0.61708 0.91548 0.0
C5041 C 0.74555 0.62221 0.91638 0.0
C5042 C 0.74294 0.61282 0.9108 0.0
C5043 C 0.75555 0.60739 0.90055 0.0
H5044 H 0.74208 0.59938 0.89193 0.0
C5045 C 0.75947 0.58617 0.88495 0.0
C5046 C 0.75581 0.58553 0.87964 0.0
C5047 C 0.75826 0.59086 0.88921 0.0
C5048 C 0.74591 0.60162 0.89423 0.0
H5049 H 0.75365 0.62698 0.913 0.0
H5050 H 0.75576 0.61963 0.90474 0.0
H5051 H 0.73985 0.60729 0.89956 0.0
H5052 H 0.74812 0.58937 0.87455 0.0
H5053 H 0.74608 0.59764 0.88191 0.0
H5054 H 0.76162 0.60186 0.89508 0.0
C5055 C 0.75186 0.6188 0.90774 0.0
C5056 C 0.74462 0.6061 0.89868 0.0
C5057 C 0.75064 0.62303 0.91246 0.0
C5058 C 0.75097 0.58971 0.87864 0.0
C5059 C 0.74979 0.59444 0.88288 0.0
C5060 C 0.75684 0.60294 0.89605 0.0
C5061 C 0.74804 0.61362 0.90687 0.0
C5062 C 0.74942 0.60901 0.90195 0.0
C5063 C 0.7534 0.59505 0.88824 0.0
C5064 C 0.75203 0.59996 0.89287 0.0
H5065 H 0.73778 0.61628 0.91849 0.0
H5066 H 0.73996 0.60883 0.91036 0.0
H5067 H 0.75937 0.60947 0.903 0.0
H5068 H 0.76319 0.58296 0.88588 0.0
H5069 H 0.76107 0.5911 0.89334 0.0
C5070 C 0.74624 0.37854 0.0913 0.0
C5071 C 0.74531 0.38049 0.08518 0.0
C5072 C 0.74716 0.38285 0.09602 0.0
C5073 C 0.74473 0.39934 0.09983 0.0
H5074 H 0.75743 0.39653 0.11212 0.0
C5075 C 0.75335 0.41867 0.11587 0.0
C5076 C 0.75449 0.41722 0.12209 0.0
C5077 C 0.75205 0.41404 0.11159 0.0
C5078 C 0.75381 0.39735 0.10877 0.0
H5079 H 0.7445 0.38852 0.07926 0.0
H5080 H 0.74622 0.39601 0.08744 0.0
H5081 H 0.75545 0.38871 0.10426 0.0
H5082 H 0.75511 0.40971 0.12867 0.0
H5083 H 0.75285 0.4016 0.12118 0.0
H5084 H 0.74313 0.408 0.1043 0.0
C5085 C 0.74618 0.39115 0.08861 0.0
C5086 C 0.75267 0.39286 0.10427 0.0
C5087 C 0.74528 0.38685 0.0839 0.0
C5088 C 0.75433 0.41099 0.12391 0.0
C5089 C 0.75303 0.40634 0.11961 0.0
C5090 C 0.74587 0.40382 0.10433 0.0
C5091 C 0.74714 0.38921 0.09473 0.0
C5092 C 0.74816 0.39383 0.09971 0.0
C5093 C 0.75186 0.40781 0.11341 0.0
C5094 C 0.75047 0.40291 0.10881 0.0
H5095 H 0.74634 0.37368 0.09244 0.0
H5096 H 0.74783 0.38121 0.10069 0.0
H5097 H 0.74114 0.40018 0.09647 0.0
H5098 H 0.75356 0.4234 0.11427 0.0
H5099 H 0.75128 0.41532 0.10682 0.0
C5100 C 0.58845 0.75971 0.11964 0.0
C5101 C 0.58533 0.75482 0.12254 0.0
C5102 C 0.5932 0.75854 0.11544 0.0
C5103 C 0.59922 0.7463 0.10518 0.0
H5104 H 0.61371 0.75675 0.10446 0.0
C5105 C 0.61983 0.74079 0.08923 0.0
C5106 C 0.62233 0.74576 0.08589 0.0
C5107 C 0.61556 0.74183 0.09395 0.0
C5108 C 0.60967 0.75382 0.10457 0.0
H5109 H 0.58489 0.74487 0.12345 0.0
H5110 H 0.5932 0.74282 0.11616 0.0
H5111 H 0.60585 0.75867 0.11228 0.0
H5112 H 0.62243 0.75573 0.08502 0.0
H5113 H 0.61493 0.75753 0.09321 0.0
H5114 H 0.60303 0.74146 0.09746 0.0
C5115 C 0.5919 0.74756 0.11703 0.0
C5116 C 0.60516 0.75492 0.10905 0.0
C5117 C 0.58713 0.74874 0.12122 0.0
C5118 C 0.62054 0.7518 0.08745 0.0
C5119 C 0.61629 0.75283 0.0922 0.0
C5120 C 0.60373 0.74519 0.10072 0.0
C5121 C 0.59496 0.75245 0.11405 0.0
C5122 C 0.59986 0.75119 0.1094 0.0
C5123 C 0.61371 0.74786 0.09547 0.0
C5124 C 0.609 0.74895 0.10034 0.0
H5125 H 0.58712 0.76445 0.1205 0.0
H5126 H 0.59539 0.76241 0.11316 0.0
H5127 H 0.59515 0.74339 0.10524 0.0
H5128 H 0.62107 0.73609 0.0881 0.0
H5129 H 0.61371 0.7379 0.09642 0.0
C5130 C 0.241 0.58877 0.11962 0.0
C5131 C 0.24596 0.58546 0.12217 0.0
C5132 C 0.24205 0.59351 0.11538 0.0
C5133 C 0.25401 0.60424 0.10965 0.0
H5134 H 0.24377 0.60484 0.095 0.0
C5135 C 0.26005 0.61939 0.08853 0.0
C5136 C 0.25518 0.62225 0.08534 0.0
C5137 C 0.25885 0.61517 0.09326 0.0
C5138 C 0.24662 0.6048 0.0991 0.0
H5139 H 0.25593 0.58467 0.12238 0.0
H5140 H 0.25776 0.5929 0.11492 0.0
H5141 H 0.2418 0.59704 0.10284 0.0
H5142 H 0.24523 0.62307 0.08476 0.0
H5143 H 0.24313 0.61575 0.09304 0.0
H5144 H 0.25884 0.612 0.1059 0.0
C5145 C 0.25305 0.59184 0.11623 0.0
C5146 C 0.24549 0.60032 0.1036 0.0
C5147 C 0.25201 0.58708 0.12045 0.0
C5148 C 0.24908 0.62087 0.08706 0.0
C5149 C 0.24788 0.61667 0.0918 0.0
C5150 C 0.25513 0.60874 0.10515 0.0
C5151 C 0.24808 0.59508 0.1136 0.0
C5152 C 0.24919 0.59997 0.10891 0.0
C5153 C 0.25275 0.61372 0.09493 0.0
C5154 C 0.25147 0.60906 0.09981 0.0
H5155 H 0.23629 0.5876 0.12081 0.0
H5156 H 0.23812 0.59596 0.11349 0.0
H5157 H 0.2569 0.60415 0.11373 0.0
H5158 H 0.2648 0.62029 0.08726 0.0
H5159 H 0.26271 0.61293 0.0955 0.0
C5160 C 0.41463 0.25278 0.12031 0.0
C5161 C 0.41597 0.24668 0.12207 0.0
C5162 C 0.40999 0.25401 0.11602 0.0
C5163 C 0.39623 0.24721 0.10843 0.0
H5164 H 0.39962 0.25949 0.09587 0.0
C5165 C 0.37789 0.25498 0.09057 0.0
C5166 C 0.37993 0.25582 0.08447 0.0
C5167 C 0.38213 0.25396 0.09534 0.0
C5168 C 0.39861 0.25602 0.09932 0.0
H5169 H 0.41344 0.2371 0.12071 0.0
H5170 H 0.40535 0.23925 0.11319 0.0
H5171 H 0.40725 0.25746 0.10386 0.0
H5172 H 0.38803 0.25631 0.07861 0.0
H5173 H 0.39539 0.25442 0.08688 0.0
H5174 H 0.38765 0.24566 0.10378 0.0
C5175 C 0.40783 0.24309 0.11521 0.0
C5176 C 0.40296 0.25491 0.10395 0.0
C5177 C 0.41247 0.24185 0.11951 0.0
C5178 C 0.3863 0.25562 0.08325 0.0
C5179 C 0.39053 0.25461 0.08801 0.0
C5180 C 0.39187 0.24832 0.1038 0.0
C5181 C 0.40657 0.24918 0.11336 0.0
C5182 C 0.40184 0.25047 0.10855 0.0
C5183 C 0.3885 0.25378 0.09411 0.0
C5184 C 0.39303 0.25271 0.09916 0.0
H5185 H 0.41717 0.25661 0.12228 0.0
H5186 H 0.40906 0.25877 0.11479 0.0
H5187 H 0.39519 0.24381 0.11194 0.0
H5188 H 0.37302 0.25505 0.09166 0.0
H5189 H 0.38042 0.25339 0.1 0.0
C5190 C 0.24611 0.41855 0.88629 0.0
C5191 C 0.24601 0.41722 0.87994 0.0
C5192 C 0.24709 0.41387 0.89061 0.0
C5193 C 0.25346 0.39815 0.89235 0.0
H5194 H 0.24403 0.39829 0.90756 0.0
C5195 C 0.25483 0.37848 0.91049 0.0
C5196 C 0.255 0.38029 0.91672 0.0
C5197 C 0.25365 0.38281 0.90585 0.0
C5198 C 0.24674 0.39821 0.90336 0.0
H5199 H 0.24692 0.40991 0.87317 0.0
H5200 H 0.24853 0.40172 0.88073 0.0
H5201 H 0.24208 0.40612 0.89974 0.0
H5202 H 0.25425 0.38812 0.92292 0.0
H5203 H 0.25217 0.39563 0.91484 0.0
H5204 H 0.25813 0.39024 0.896 0.0
C5205 C 0.2479 0.4064 0.88236 0.0
C5206 C 0.24563 0.40271 0.89888 0.0
C5207 C 0.24691 0.41109 0.87803 0.0
C5208 C 0.25402 0.38654 0.91818 0.0
C5209 C 0.25283 0.39085 0.91355 0.0
C5210 C 0.25457 0.39365 0.89684 0.0
C5211 C 0.24799 0.40773 0.88871 0.0
C5212 C 0.24901 0.40278 0.89335 0.0
C5213 C 0.2526 0.38904 0.90733 0.0
C5214 C 0.25127 0.39366 0.90243 0.0
H5215 H 0.24536 0.4232 0.88794 0.0
H5216 H 0.2472 0.41508 0.89546 0.0
H5217 H 0.2562 0.39811 0.88817 0.0
H5218 H 0.2555 0.3737 0.90921 0.0
H5219 H 0.25344 0.38125 0.9011 0.0
C5220 C 0.58729 0.25266 0.88052 0.0
C5221 C 0.58554 0.24658 0.8791 0.0
C5222 C 0.59205 0.25381 0.88472 0.0
C5223 C 0.60538 0.24644 0.89257 0.0
H5224 H 0.60315 0.25969 0.90438 0.0
C5225 C 0.62072 0.24933 0.91424 0.0
C5226 C 0.62246 0.25535 0.9159 0.0
C5227 C 0.61648 0.24833 0.90947 0.0
C5228 C 0.60388 0.25603 0.90106 0.0
H5229 H 0.58743 0.23694 0.88098 0.0
H5230 H 0.59569 0.23894 0.88834 0.0
H5231 H 0.59528 0.25782 0.89657 0.0
H5232 H 0.62114 0.26505 0.91384 0.0
H5233 H 0.61381 0.26331 0.90548 0.0
H5234 H 0.61395 0.2446 0.89714 0.0
C5235 C 0.59346 0.24282 0.88613 0.0
C5236 C 0.59937 0.25495 0.89658 0.0
C5237 C 0.58872 0.24167 0.88191 0.0
C5238 C 0.61993 0.26035 0.91264 0.0
C5239 C 0.61568 0.25936 0.90789 0.0
C5240 C 0.60989 0.2475 0.89707 0.0
C5241 C 0.59516 0.24891 0.88762 0.0
C5242 C 0.60005 0.25014 0.89229 0.0
C5243 C 0.61387 0.25334 0.90628 0.0
C5244 C 0.60918 0.2523 0.90138 0.0
H5245 H 0.585 0.25654 0.87836 0.0
H5246 H 0.59331 0.25855 0.88567 0.0
H5247 H 0.60611 0.24275 0.88928 0.0
H5248 H 0.62263 0.24537 0.91662 0.0
H5249 H 0.61515 0.24364 0.90837 0.0
C5250 C 0.41488 0.74855 0.88112 0.0
C5251 C 0.41622 0.75465 0.87935 0.0
C5252 C 0.41023 0.74733 0.88542 0.0
C5253 C 0.39647 0.75416 0.89298 0.0
H5254 H 0.39984 0.74191 0.90557 0.0
C5255 C 0.3781 0.74643 0.91082 0.0
C5256 C 0.38012 0.7456 0.91693 0.0
C5257 C 0.38235 0.74744 0.90606 0.0
C5258 C 0.39884 0.74537 0.90211 0.0
H5259 H 0.41369 0.76423 0.88069 0.0
H5260 H 0.4056 0.76211 0.88821 0.0
H5261 H 0.40748 0.74391 0.89759 0.0
H5262 H 0.38821 0.7451 0.9228 0.0
H5263 H 0.39559 0.74698 0.91454 0.0
H5264 H 0.38789 0.75573 0.89761 0.0
C5265 C 0.40808 0.75826 0.88621 0.0
C5266 C 0.40319 0.74646 0.89748 0.0
C5267 C 0.41273 0.75948 0.8819 0.0
C5268 C 0.38649 0.74579 0.91816 0.0
C5269 C 0.39073 0.7468 0.91341 0.0
C5270 C 0.39211 0.75306 0.89761 0.0
C5271 C 0.40682 0.75217 0.88807 0.0
C5272 C 0.40208 0.75089 0.89287 0.0
C5273 C 0.38871 0.74762 0.9073 0.0
C5274 C 0.39326 0.74868 0.90226 0.0
H5275 H 0.41742 0.74472 0.87917 0.0
H5276 H 0.40931 0.74258 0.88667 0.0
H5277 H 0.39544 0.75756 0.88947 0.0
H5278 H 0.37323 0.74636 0.90971 0.0
H5279 H 0.38064 0.74801 0.9014 0.0
C5280 C 0.0712 0.28872 0.32181 0.0
C5281 C 0.07443 0.2898 0.32733 0.0
C5282 C 0.07134 0.29304 0.31702 0.0
C5283 C 0.08018 0.30642 0.31109 0.0
H5284 H 0.06491 0.31032 0.30262 0.0
C5285 C 0.07758 0.32779 0.2954 0.0
C5286 C 0.0741 0.32716 0.28996 0.0
C5287 C 0.0778 0.323 0.29972 0.0
C5288 C 0.06923 0.30923 0.30488 0.0
H5289 H 0.08033 0.29629 0.33214 0.0
H5290 H 0.08059 0.30382 0.3238 0.0
H5291 H 0.06498 0.30237 0.31057 0.0
H5292 H 0.06827 0.32094 0.28472 0.0
H5293 H 0.06866 0.3126 0.29226 0.0
H5294 H 0.08442 0.31331 0.30543 0.0
C5295 C 0.07801 0.29959 0.32313 0.0
C5296 C 0.06928 0.30467 0.30944 0.0
C5297 C 0.07787 0.29527 0.32792 0.0
C5298 C 0.07091 0.32161 0.28891 0.0
C5299 C 0.07114 0.31683 0.29323 0.0
C5300 C 0.08014 0.31098 0.30653 0.0
C5301 C 0.07473 0.29854 0.31764 0.0
C5302 C 0.07474 0.30324 0.31263 0.0
C5303 C 0.07456 0.31748 0.2987 0.0
C5304 C 0.07466 0.31247 0.3034 0.0
H5305 H 0.06858 0.28451 0.32116 0.0
H5306 H 0.06884 0.29205 0.31281 0.0
H5307 H 0.08449 0.30536 0.31338 0.0
H5308 H 0.08001 0.33203 0.2964 0.0
H5309 H 0.0804 0.3237 0.30393 0.0
C5310 C 0.67361 0.07783 0.29546 0.0
C5311 C 0.67427 0.07445 0.28997 0.0
C5312 C 0.67838 0.07804 0.29979 0.0
C5313 C 0.69224 0.06954 0.30483 0.0
H5314 H 0.69595 0.08469 0.31358 0.0
C5315 C 0.71276 0.07145 0.32174 0.0
C5316 C 0.71166 0.07457 0.32732 0.0
C5317 C 0.70842 0.07163 0.31696 0.0
C5318 C 0.69494 0.08041 0.31121 0.0
H5319 H 0.68056 0.06876 0.28465 0.0
H5320 H 0.68889 0.06912 0.29221 0.0
H5321 H 0.68799 0.08466 0.30563 0.0
H5322 H 0.70512 0.08032 0.33225 0.0
H5323 H 0.69757 0.08064 0.32393 0.0
H5324 H 0.69915 0.06527 0.31045 0.0
C5325 C 0.68463 0.07154 0.29321 0.0
C5326 C 0.69037 0.08039 0.30666 0.0
C5327 C 0.67986 0.07133 0.28888 0.0
C5328 C 0.70616 0.07794 0.32798 0.0
C5329 C 0.70183 0.07813 0.32321 0.0
C5330 C 0.6968 0.06956 0.30939 0.0
C5331 C 0.68394 0.07487 0.29873 0.0
C5332 C 0.68894 0.07495 0.30343 0.0
C5333 C 0.70289 0.07495 0.31765 0.0
C5334 C 0.69818 0.07498 0.31266 0.0
H5335 H 0.66933 0.08021 0.29649 0.0
H5336 H 0.67765 0.08057 0.30403 0.0
H5337 H 0.69119 0.06524 0.3025 0.0
H5338 H 0.71699 0.06889 0.32104 0.0
H5339 H 0.70943 0.06921 0.31271 0.0
C5340 C 0.93085 0.71224 0.32175 0.0
C5341 C 0.92759 0.71136 0.3273 0.0
C5342 C 0.93065 0.70779 0.31708 0.0
C5343 C 0.92748 0.69125 0.31456 0.0
H5344 H 0.92638 0.69598 0.29734 0.0
C5345 C 0.92398 0.67328 0.29526 0.0
C5346 C 0.92749 0.67402 0.28985 0.0
C5347 C 0.9238 0.67794 0.29972 0.0
C5348 C 0.92675 0.69459 0.30213 0.0
H5349 H 0.92157 0.7051 0.33226 0.0
H5350 H 0.92112 0.69741 0.32408 0.0
H5351 H 0.92641 0.70393 0.30532 0.0
H5352 H 0.93345 0.6803 0.28484 0.0
H5353 H 0.93322 0.68838 0.29267 0.0
H5354 H 0.92785 0.68191 0.31138 0.0
C5355 C 0.92389 0.70151 0.32337 0.0
C5356 C 0.92676 0.69914 0.3067 0.0
C5357 C 0.92408 0.70596 0.32803 0.0
C5358 C 0.93075 0.67956 0.28898 0.0
C5359 C 0.93057 0.68422 0.29344 0.0
C5360 C 0.92746 0.6867 0.31 0.0
C5361 C 0.9272 0.70235 0.31785 0.0
C5362 C 0.92713 0.69753 0.31297 0.0
C5363 C 0.92713 0.68345 0.29888 0.0
C5364 C 0.92709 0.68831 0.30372 0.0
H5365 H 0.93355 0.71638 0.32101 0.0
H5366 H 0.93329 0.70857 0.31292 0.0
H5367 H 0.92788 0.68984 0.31934 0.0
H5368 H 0.92146 0.66905 0.29611 0.0
H5369 H 0.92105 0.67722 0.30382 0.0
C5370 C 0.32758 0.92336 0.29512 0.0
C5371 C 0.32688 0.92672 0.28961 0.0
C5372 C 0.3228 0.92309 0.29943 0.0
C5373 C 0.30882 0.93145 0.3044 0.0
H5374 H 0.30532 0.91634 0.31331 0.0
C5375 C 0.28837 0.92949 0.32137 0.0
C5376 C 0.28953 0.92648 0.32699 0.0
C5377 C 0.29268 0.92928 0.31657 0.0
C5378 C 0.30627 0.92061 0.3109 0.0
H5379 H 0.32052 0.93228 0.28426 0.0
H5380 H 0.31217 0.93181 0.29179 0.0
H5381 H 0.31328 0.91639 0.30535 0.0
H5382 H 0.29615 0.92087 0.33198 0.0
H5383 H 0.30366 0.92049 0.32363 0.0
H5384 H 0.30186 0.93568 0.30997 0.0
C5385 C 0.31646 0.92947 0.29281 0.0
C5386 C 0.31083 0.92064 0.30633 0.0
C5387 C 0.32124 0.92974 0.28849 0.0
C5388 C 0.29506 0.92317 0.32768 0.0
C5389 C 0.29937 0.92295 0.32288 0.0
C5390 C 0.30426 0.93142 0.30895 0.0
C5391 C 0.31719 0.92617 0.29835 0.0
C5392 C 0.31219 0.92607 0.30305 0.0
C5393 C 0.29826 0.92604 0.31729 0.0
C5394 C 0.30296 0.926 0.31229 0.0
H5395 H 0.33189 0.92106 0.29617 0.0
H5396 H 0.32355 0.92059 0.30369 0.0
H5397 H 0.30981 0.93574 0.30203 0.0
H5398 H 0.28411 0.932 0.32065 0.0
H5399 H 0.29163 0.93163 0.31229 0.0
C5400 C 0.07913 0.71143 0.67824 0.0
C5401 C 0.074 0.71177 0.67428 0.0
C5402 C 0.07929 0.70712 0.68304 0.0
C5403 C 0.06924 0.69707 0.69252 0.0
H5404 H 0.08438 0.68807 0.69564 0.0
C5405 C 0.07161 0.68008 0.71292 0.0
C5406 C 0.07459 0.67445 0.71169 0.0
C5407 C 0.07173 0.68487 0.70861 0.0
C5408 C 0.08011 0.69052 0.69481 0.0
H5409 H 0.06506 0.70777 0.67222 0.0
H5410 H 0.06535 0.70027 0.68057 0.0
H5411 H 0.08413 0.69593 0.68759 0.0
H5412 H 0.08002 0.66945 0.70494 0.0
H5413 H 0.08024 0.6778 0.69742 0.0
H5414 H 0.06516 0.69155 0.69962 0.0
C5415 C 0.0692 0.7034 0.68004 0.0
C5416 C 0.07999 0.69508 0.69024 0.0
C5417 C 0.06904 0.70771 0.67525 0.0
C5418 C 0.07776 0.67376 0.70608 0.0
C5419 C 0.07788 0.67855 0.70176 0.0
C5420 C 0.06936 0.69252 0.69709 0.0
C5421 C 0.07433 0.70305 0.68399 0.0
C5422 C 0.07453 0.69837 0.68901 0.0
C5423 C 0.07484 0.68415 0.70296 0.0
C5424 C 0.07479 0.68916 0.69826 0.0
H5425 H 0.08299 0.71455 0.67767 0.0
H5426 H 0.08328 0.70703 0.68605 0.0
H5427 H 0.06498 0.69957 0.69174 0.0
H5428 H 0.0692 0.6808 0.71724 0.0
H5429 H 0.06942 0.68916 0.70971 0.0
C5430 C 0.29412 0.06854 0.6751 0.0
C5431 C 0.29023 0.07364 0.67417 0.0
C5432 C 0.29863 0.06864 0.67971 0.0
C5433 C 0.30308 0.07646 0.69419 0.0
H5434 H 0.31921 0.06967 0.69047 0.0
C5435 C 0.324 0.07881 0.71072 0.0
C5436 C 0.3278 0.0736 0.71139 0.0
C5437 C 0.31933 0.07892 0.70626 0.0
C5438 C 0.31471 0.07153 0.69161 0.0
H5439 H 0.28796 0.08283 0.67744 0.0
H5440 H 0.29591 0.08304 0.68542 0.0
H5441 H 0.31123 0.06968 0.68256 0.0
H5442 H 0.32971 0.06443 0.70785 0.0
H5443 H 0.32153 0.06458 0.70017 0.0
H5444 H 0.30658 0.0783 0.70325 0.0
C5445 C 0.29544 0.07894 0.68261 0.0
C5446 C 0.31013 0.07153 0.68707 0.0
C5447 C 0.29093 0.07884 0.67799 0.0
C5448 C 0.32682 0.0685 0.70751 0.0
C5449 C 0.32218 0.06861 0.70305 0.0
C5450 C 0.30767 0.07646 0.69873 0.0
C5451 C 0.29936 0.07385 0.6835 0.0
C5452 C 0.30425 0.07397 0.68832 0.0
C5453 C 0.31839 0.07383 0.70235 0.0
C5454 C 0.31353 0.07396 0.6975 0.0
H5455 H 0.29376 0.06449 0.6722 0.0
H5456 H 0.30152 0.06461 0.68031 0.0
H5457 H 0.29858 0.07831 0.69532 0.0
H5458 H 0.32459 0.0828 0.71367 0.0
H5459 H 0.31653 0.08303 0.7058 0.0
C5460 C 0.92311 0.32336 0.71099 0.0
C5461 C 0.92838 0.32707 0.71174 0.0
C5462 C 0.92296 0.31872 0.70651 0.0
C5463 C 0.93044 0.31403 0.69194 0.0
H5464 H 0.92325 0.29802 0.69544 0.0
C5465 C 0.93321 0.2935 0.67532 0.0
C5466 C 0.92803 0.28973 0.67428 0.0
C5467 C 0.93314 0.29797 0.67997 0.0
C5468 C 0.92522 0.30249 0.69437 0.0
H5469 H 0.93763 0.32879 0.70833 0.0
H5470 H 0.93743 0.32063 0.70062 0.0
H5471 H 0.92334 0.30597 0.70343 0.0
H5472 H 0.91875 0.28766 0.67739 0.0
H5473 H 0.9186 0.29554 0.68545 0.0
H5474 H 0.93233 0.31057 0.68289 0.0
C5475 C 0.93337 0.32136 0.70346 0.0
C5476 C 0.92526 0.30705 0.69895 0.0
C5477 C 0.93352 0.32599 0.70793 0.0
C5478 C 0.92279 0.29052 0.67803 0.0
C5479 C 0.92273 0.29499 0.68269 0.0
C5480 C 0.9304 0.30948 0.68737 0.0
C5481 C 0.92809 0.31768 0.70267 0.0
C5482 C 0.92791 0.31286 0.69779 0.0
C5483 C 0.9279 0.29879 0.68369 0.0
C5484 C 0.92782 0.30365 0.68854 0.0
H5485 H 0.91909 0.32404 0.71389 0.0
H5486 H 0.9188 0.316 0.706 0.0
H5487 H 0.93241 0.31849 0.69085 0.0
H5488 H 0.9373 0.29307 0.67248 0.0
H5489 H 0.93723 0.30076 0.68066 0.0
C5490 C 0.71061 0.92247 0.6777 0.0
C5491 C 0.71141 0.92773 0.67397 0.0
C5492 C 0.70613 0.92239 0.68235 0.0
C5493 C 0.69161 0.93 0.68701 0.0
H5494 H 0.69511 0.92292 0.70306 0.0
C5495 C 0.675 0.93294 0.70752 0.0
C5496 C 0.67397 0.9278 0.71134 0.0
C5497 C 0.67964 0.93284 0.70305 0.0
C5498 C 0.69404 0.92485 0.69858 0.0
H5499 H 0.70807 0.93699 0.67219 0.0
H5500 H 0.70034 0.93688 0.68034 0.0
H5501 H 0.70308 0.9229 0.6951 0.0
H5502 H 0.67709 0.91854 0.71349 0.0
H5503 H 0.68513 0.91832 0.7056 0.0
H5504 H 0.68258 0.93195 0.69046 0.0
C5505 C 0.70315 0.93281 0.67965 0.0
C5506 C 0.6986 0.92484 0.69401 0.0
C5507 C 0.70763 0.9329 0.67502 0.0
C5508 C 0.67772 0.92256 0.71059 0.0
C5509 C 0.68238 0.92246 0.70612 0.0
C5510 C 0.68705 0.93001 0.69156 0.0
C5511 C 0.70232 0.92755 0.68335 0.0
C5512 C 0.69745 0.92744 0.68818 0.0
C5513 C 0.68337 0.92759 0.70227 0.0
C5514 C 0.68821 0.92747 0.69741 0.0
H5515 H 0.71348 0.91844 0.67705 0.0
H5516 H 0.70558 0.91825 0.68508 0.0
H5517 H 0.69053 0.93194 0.68253 0.0
H5518 H 0.67215 0.93703 0.70792 0.0
H5519 H 0.68032 0.9369 0.70022 0.0
C5520 C 0.28817 0.07154 0.32168 0.0
C5521 C 0.28931 0.07464 0.32726 0.0
C5522 C 0.29246 0.07177 0.31686 0.0
C5523 C 0.30587 0.08062 0.31102 0.0
H5524 H 0.30963 0.06548 0.30227 0.0
C5525 C 0.32721 0.07808 0.29526 0.0
C5526 C 0.32656 0.07467 0.28978 0.0
C5527 C 0.32242 0.0783 0.29957 0.0
C5528 C 0.30858 0.06977 0.30461 0.0
H5529 H 0.29587 0.0804 0.33215 0.0
H5530 H 0.30333 0.08081 0.32376 0.0
H5531 H 0.3017 0.06547 0.31024 0.0
H5532 H 0.32028 0.06898 0.28446 0.0
H5533 H 0.31192 0.06937 0.29198 0.0
H5534 H 0.31279 0.0849 0.30542 0.0
C5535 C 0.29908 0.07827 0.32306 0.0
C5536 C 0.30403 0.06976 0.30918 0.0
C5537 C 0.2948 0.07804 0.32788 0.0
C5538 C 0.32097 0.07156 0.28868 0.0
C5539 C 0.31618 0.07179 0.29299 0.0
C5540 C 0.31042 0.08063 0.30645 0.0
C5541 C 0.29798 0.07511 0.31751 0.0
C5542 C 0.30265 0.07518 0.31248 0.0
C5543 C 0.31686 0.07513 0.29851 0.0
C5544 C 0.31186 0.07519 0.30321 0.0
H5545 H 0.28395 0.06896 0.32101 0.0
H5546 H 0.29142 0.06936 0.3126 0.0
H5547 H 0.30486 0.0849 0.3134 0.0
H5548 H 0.33148 0.08045 0.2963 0.0
H5549 H 0.32313 0.08084 0.30382 0.0
C5550 C 0.92278 0.29067 0.32375 0.0
C5551 C 0.92803 0.28987 0.32747 0.0
C5552 C 0.92272 0.29511 0.31906 0.0
C5553 C 0.93045 0.30952 0.31427 0.0
H5554 H 0.92321 0.30602 0.29829 0.0
C5555 C 0.93338 0.32603 0.29367 0.0
C5556 C 0.9282 0.32712 0.28992 0.0
C5557 C 0.93328 0.32139 0.29815 0.0
C5558 C 0.92519 0.3071 0.30275 0.0
H5559 H 0.93733 0.29314 0.3292 0.0
H5560 H 0.93728 0.30077 0.32097 0.0
H5561 H 0.92318 0.29809 0.30629 0.0
H5562 H 0.91888 0.3241 0.28788 0.0
H5563 H 0.91868 0.31606 0.29577 0.0
H5564 H 0.93247 0.31852 0.31076 0.0
C5565 C 0.93317 0.29802 0.3217 0.0
C5566 C 0.92517 0.30255 0.30734 0.0
C5567 C 0.93323 0.29358 0.32637 0.0
C5568 C 0.92293 0.32342 0.29073 0.0
C5569 C 0.92284 0.31877 0.29521 0.0
C5570 C 0.93048 0.31406 0.3097 0.0
C5571 C 0.92791 0.29886 0.31801 0.0
C5572 C 0.92783 0.3037 0.31314 0.0
C5573 C 0.928 0.31772 0.29899 0.0
C5574 C 0.92788 0.3129 0.30387 0.0
H5575 H 0.91871 0.28784 0.32443 0.0
H5576 H 0.91858 0.29567 0.31633 0.0
H5577 H 0.93243 0.31061 0.31873 0.0
H5578 H 0.93749 0.32883 0.29323 0.0
H5579 H 0.93737 0.32066 0.30093 0.0
C5580 C 0.67841 0.92282 0.29078 0.0
C5581 C 0.67468 0.92807 0.28996 0.0
C5582 C 0.68306 0.92277 0.29526 0.0
C5583 C 0.68773 0.93049 0.30971 0.0
H5584 H 0.70375 0.92328 0.30632 0.0
C5585 C 0.7082 0.93341 0.32638 0.0
C5586 C 0.71195 0.92823 0.32749 0.0
C5587 C 0.70377 0.93332 0.3217 0.0
C5588 C 0.69928 0.92525 0.30736 0.0
H5589 H 0.67291 0.93736 0.29322 0.0
H5590 H 0.68109 0.93731 0.30092 0.0
H5591 H 0.69581 0.92324 0.29833 0.0
H5592 H 0.71402 0.91892 0.32447 0.0
H5593 H 0.70619 0.91872 0.31636 0.0
H5594 H 0.69118 0.9325 0.31873 0.0
C5595 C 0.68038 0.93321 0.29815 0.0
C5596 C 0.69473 0.92523 0.30278 0.0
C5597 C 0.67574 0.93327 0.29368 0.0
C5598 C 0.71117 0.92297 0.32377 0.0
C5599 C 0.70673 0.92288 0.31908 0.0
C5600 C 0.69227 0.93052 0.31428 0.0
C5601 C 0.68408 0.92796 0.29902 0.0
C5602 C 0.68891 0.92788 0.3039 0.0
C5603 C 0.70295 0.92804 0.31802 0.0
C5604 C 0.69811 0.92792 0.31316 0.0
H5605 H 0.67775 0.91876 0.28795 0.0
H5606 H 0.6858 0.91863 0.29584 0.0
H5607 H 0.68326 0.93247 0.31077 0.0
H5608 H 0.70863 0.93752 0.32919 0.0
H5609 H 0.70099 0.9374 0.32096 0.0
C5610 C 0.06798 0.67547 0.29376 0.0
C5611 C 0.07312 0.67452 0.28991 0.0
C5612 C 0.06804 0.6801 0.29823 0.0
C5613 C 0.07585 0.6946 0.3027 0.0
H5614 H 0.06899 0.69091 0.31881 0.0
C5615 C 0.0783 0.71106 0.32365 0.0
C5616 C 0.0731 0.71175 0.32748 0.0
C5617 C 0.07836 0.70662 0.31896 0.0
C5618 C 0.07086 0.69204 0.31432 0.0
H5619 H 0.08232 0.67777 0.28771 0.0
H5620 H 0.08247 0.68581 0.29561 0.0
H5621 H 0.069 0.683 0.31083 0.0
H5622 H 0.06391 0.70828 0.32938 0.0
H5623 H 0.06398 0.70063 0.32116 0.0
H5624 H 0.07772 0.70365 0.30621 0.0
C5625 C 0.07837 0.68299 0.29512 0.0
C5626 C 0.07087 0.6875 0.30974 0.0
C5627 C 0.07831 0.67835 0.29063 0.0
C5628 C 0.06796 0.70792 0.32648 0.0
C5629 C 0.06803 0.70348 0.32181 0.0
C5630 C 0.07585 0.69914 0.30729 0.0
C5631 C 0.07325 0.6839 0.29899 0.0
C5632 C 0.07334 0.68873 0.30387 0.0
C5633 C 0.07324 0.70275 0.31801 0.0
C5634 C 0.07333 0.69792 0.31314 0.0
H5635 H 0.06394 0.67257 0.29338 0.0
H5636 H 0.06399 0.68073 0.30109 0.0
H5637 H 0.07772 0.69572 0.29821 0.0
H5638 H 0.08231 0.71397 0.32425 0.0
H5639 H 0.08246 0.70615 0.31615 0.0
C5640 C 0.28855 0.93032 0.67973 0.0
C5641 C 0.28961 0.92721 0.67414 0.0
C5642 C 0.29289 0.93007 0.6845 0.0
C5643 C 0.30629 0.92114 0.69021 0.0
H5644 H 0.31023 0.93627 0.69892 0.0
C5645 C 0.32773 0.92352 0.70586 0.0
C5646 C 0.32713 0.92692 0.71135 0.0
C5647 C 0.32293 0.92334 0.70156 0.0
C5648 C 0.30913 0.93198 0.69659 0.0
H5649 H 0.29608 0.92139 0.66919 0.0
H5650 H 0.30362 0.92095 0.67751 0.0
H5651 H 0.30224 0.93632 0.69101 0.0
H5652 H 0.32093 0.93266 0.7167 0.0
H5653 H 0.31255 0.93236 0.70919 0.0
H5654 H 0.31322 0.91682 0.69577 0.0
C5655 C 0.2994 0.92352 0.67824 0.0
C5656 C 0.30455 0.93201 0.69205 0.0
C5657 C 0.29507 0.92377 0.67347 0.0
C5658 C 0.32158 0.93008 0.71247 0.0
C5659 C 0.31678 0.92991 0.70817 0.0
C5660 C 0.31088 0.92111 0.69475 0.0
C5661 C 0.29838 0.9267 0.6838 0.0
C5662 C 0.3031 0.9266 0.68878 0.0
C5663 C 0.3174 0.92657 0.70264 0.0
C5664 C 0.31238 0.92654 0.69797 0.0
H5665 H 0.28435 0.93294 0.68043 0.0
H5666 H 0.29191 0.9325 0.68876 0.0
H5667 H 0.30523 0.91687 0.68785 0.0
H5668 H 0.33198 0.92111 0.7048 0.0
H5669 H 0.32361 0.9208 0.69731 0.0
C5670 C 0.07798 0.32796 0.70566 0.0
C5671 C 0.07451 0.32718 0.71108 0.0
C5672 C 0.0782 0.32331 0.7012 0.0
C5673 C 0.07543 0.30662 0.6988 0.0
H5674 H 0.0742 0.31136 0.68159 0.0
C5675 C 0.07137 0.28896 0.67918 0.0
C5676 C 0.07457 0.28987 0.6736 0.0
C5677 C 0.07159 0.29339 0.68386 0.0
C5678 C 0.07463 0.30996 0.68637 0.0
H5679 H 0.06863 0.32083 0.71611 0.0
H5680 H 0.06892 0.31276 0.70828 0.0
H5681 H 0.07417 0.31929 0.68955 0.0
H5682 H 0.08052 0.29618 0.66861 0.0
H5683 H 0.081 0.30385 0.67681 0.0
H5684 H 0.07586 0.29728 0.6956 0.0
C5685 C 0.07152 0.31695 0.7075 0.0
C5686 C 0.07461 0.31451 0.69093 0.0
C5687 C 0.0713 0.32161 0.71196 0.0
C5688 C 0.07805 0.29529 0.67286 0.0
C5689 C 0.07826 0.29973 0.67754 0.0
C5690 C 0.07545 0.30207 0.69422 0.0
C5691 C 0.07494 0.31776 0.70205 0.0
C5692 C 0.07501 0.3129 0.6972 0.0
C5693 C 0.075 0.29885 0.68307 0.0
C5694 C 0.07505 0.30368 0.68795 0.0
H5695 H 0.08045 0.33221 0.7048 0.0
H5696 H 0.08093 0.32405 0.69708 0.0
H5697 H 0.07583 0.30523 0.70358 0.0
H5698 H 0.0687 0.2848 0.67993 0.0
H5699 H 0.06898 0.29259 0.68804 0.0
C5700 C 0.67801 0.07814 0.71068 0.0
C5701 C 0.67413 0.07299 0.71137 0.0
C5702 C 0.68268 0.07816 0.70622 0.0
C5703 C 0.68721 0.07063 0.69162 0.0
H5704 H 0.70339 0.07733 0.69526 0.0
C5705 C 0.7077 0.06763 0.67497 0.0
C5706 C 0.71158 0.07275 0.67402 0.0
C5707 C 0.70324 0.0677 0.67962 0.0
C5708 C 0.69888 0.0755 0.69415 0.0
H5709 H 0.6721 0.06383 0.70788 0.0
H5710 H 0.6803 0.06381 0.70021 0.0
H5711 H 0.69541 0.07739 0.70321 0.0
H5712 H 0.71385 0.08192 0.6773 0.0
H5713 H 0.70599 0.08209 0.68536 0.0
H5714 H 0.69066 0.06875 0.68256 0.0
C5715 C 0.67971 0.06787 0.70307 0.0
C5716 C 0.69431 0.07554 0.69871 0.0
C5717 C 0.67505 0.06785 0.70753 0.0
C5718 C 0.71091 0.07793 0.67787 0.0
C5719 C 0.70644 0.078 0.68253 0.0
C5720 C 0.69178 0.0706 0.68707 0.0
C5721 C 0.68356 0.07303 0.70234 0.0
C5722 C 0.68842 0.07308 0.6975 0.0
C5723 C 0.70253 0.0729 0.68344 0.0
C5724 C 0.69767 0.07301 0.68828 0.0
H5725 H 0.67746 0.08215 0.7136 0.0
H5726 H 0.68554 0.08223 0.70575 0.0
H5727 H 0.6827 0.0688 0.69049 0.0
H5728 H 0.70805 0.06359 0.67205 0.0
H5729 H 0.70036 0.06367 0.68024 0.0
C5730 C 0.92385 0.67331 0.7057 0.0
C5731 C 0.9273 0.67409 0.71113 0.0
C5732 C 0.92369 0.67795 0.70122 0.0
C5733 C 0.92653 0.69462 0.69879 0.0
H5734 H 0.92782 0.68984 0.6816 0.0
C5735 C 0.93062 0.71225 0.67914 0.0
C5736 C 0.92741 0.71133 0.67358 0.0
C5737 C 0.93042 0.70781 0.68382 0.0
C5738 C 0.92738 0.69125 0.68637 0.0
H5739 H 0.93318 0.68043 0.71618 0.0
H5740 H 0.93297 0.68848 0.70832 0.0
H5741 H 0.9278 0.68193 0.68958 0.0
H5742 H 0.92146 0.705 0.66859 0.0
H5743 H 0.92103 0.69733 0.67679 0.0
H5744 H 0.92614 0.70395 0.69557 0.0
C5745 C 0.93035 0.6843 0.70754 0.0
C5746 C 0.92736 0.68671 0.69095 0.0
C5747 C 0.93053 0.67965 0.71202 0.0
C5748 C 0.92394 0.70589 0.67284 0.0
C5749 C 0.92375 0.70146 0.67751 0.0
C5750 C 0.92654 0.69916 0.69421 0.0
C5751 C 0.92697 0.68348 0.70207 0.0
C5752 C 0.92694 0.68834 0.69721 0.0
C5753 C 0.92702 0.70234 0.68305 0.0
C5754 C 0.92696 0.69753 0.68794 0.0
H5755 H 0.92137 0.66906 0.70483 0.0
H5756 H 0.92097 0.6772 0.69709 0.0
H5757 H 0.92611 0.69602 0.70357 0.0
H5758 H 0.93328 0.71641 0.67989 0.0
H5759 H 0.93303 0.70862 0.688 0.0
C5760 C 0.32172 0.28855 0.07126 0.0
C5761 C 0.32732 0.28964 0.07435 0.0
C5762 C 0.31693 0.29287 0.07152 0.0
C5763 C 0.31122 0.3063 0.08043 0.0
H5764 H 0.30243 0.31014 0.06534 0.0
C5765 C 0.29551 0.32769 0.07802 0.0
C5766 C 0.29 0.32705 0.07465 0.0
C5767 C 0.29982 0.32289 0.07821 0.0
C5768 C 0.30478 0.30907 0.06961 0.0
H5769 H 0.33227 0.29614 0.08013 0.0
H5770 H 0.32394 0.30366 0.08058 0.0
H5771 H 0.31036 0.30218 0.06527 0.0
H5772 H 0.28464 0.3208 0.06898 0.0
H5773 H 0.29216 0.31243 0.0693 0.0
H5774 H 0.30567 0.31323 0.08476 0.0
C5775 C 0.3232 0.29943 0.07803 0.0
C5776 C 0.30933 0.3045 0.06958 0.0
C5777 C 0.32799 0.29511 0.07777 0.0
C5778 C 0.28887 0.32147 0.07153 0.0
C5779 C 0.29319 0.31668 0.07172 0.0
C5780 C 0.30667 0.31087 0.08047 0.0
C5781 C 0.31763 0.29838 0.07487 0.0
C5782 C 0.31263 0.30308 0.07498 0.0
C5783 C 0.29873 0.31735 0.07503 0.0
C5784 C 0.30342 0.31233 0.07505 0.0
H5785 H 0.32101 0.28434 0.06867 0.0
H5786 H 0.31267 0.29188 0.06912 0.0
H5787 H 0.31361 0.30526 0.08469 0.0
H5788 H 0.29657 0.33195 0.0804 0.0
H5789 H 0.30408 0.3236 0.08072 0.0
C5790 C 0.32812 0.70637 0.92347 0.0
C5791 C 0.32745 0.71184 0.92689 0.0
C5792 C 0.32334 0.70206 0.9232 0.0
C5793 C 0.30944 0.697 0.93163 0.0
H5794 H 0.3058 0.68827 0.91644 0.0
C5795 C 0.28899 0.68003 0.92965 0.0
C5796 C 0.29012 0.67445 0.92653 0.0
C5797 C 0.2933 0.68482 0.92946 0.0
C5798 C 0.30679 0.69063 0.92073 0.0
H5799 H 0.32114 0.71714 0.93256 0.0
H5800 H 0.31279 0.70962 0.9321 0.0
H5801 H 0.31375 0.69624 0.91652 0.0
H5802 H 0.29669 0.66955 0.92079 0.0
H5803 H 0.3042 0.67791 0.92047 0.0
H5804 H 0.30253 0.69136 0.93586 0.0
C5805 C 0.31706 0.70862 0.9297 0.0
C5806 C 0.31135 0.6952 0.92077 0.0
C5807 C 0.32185 0.71293 0.92997 0.0
C5808 C 0.29563 0.67381 0.92316 0.0
C5809 C 0.29993 0.67861 0.92298 0.0
C5810 C 0.30489 0.69243 0.93158 0.0
C5811 C 0.31776 0.70311 0.92634 0.0
C5812 C 0.31276 0.69841 0.92623 0.0
C5813 C 0.29884 0.68416 0.92616 0.0
C5814 C 0.30353 0.68917 0.92614 0.0
H5815 H 0.33241 0.70534 0.92112 0.0
H5816 H 0.32407 0.69782 0.92065 0.0
H5817 H 0.31047 0.69931 0.93593 0.0
H5818 H 0.28475 0.6807 0.9322 0.0
H5819 H 0.29227 0.68907 0.93189 0.0
C5820 C 0.32289 0.2906 0.92276 0.0
C5821 C 0.32661 0.28979 0.92801 0.0
C5822 C 0.31825 0.29509 0.92269 0.0
C5823 C 0.31366 0.30961 0.93034 0.0
H5824 H 0.29763 0.30629 0.92314 0.0
C5825 C 0.29329 0.32639 0.93322 0.0
C5826 C 0.28953 0.3275 0.92805 0.0
C5827 C 0.29771 0.32171 0.93313 0.0
C5828 C 0.3021 0.30731 0.9251 0.0
H5829 H 0.32838 0.29308 0.93729 0.0
H5830 H 0.32024 0.30081 0.93721 0.0
H5831 H 0.30552 0.29825 0.92314 0.0
H5832 H 0.28742 0.32447 0.91875 0.0
H5833 H 0.29522 0.31633 0.91856 0.0
H5834 H 0.31028 0.31867 0.93231 0.0
C5835 C 0.32093 0.29802 0.93312 0.0
C5836 C 0.30662 0.3027 0.9251 0.0
C5837 C 0.32556 0.29353 0.9332 0.0
C5838 C 0.29028 0.32377 0.92279 0.0
C5839 C 0.2947 0.31907 0.9227 0.0
C5840 C 0.30915 0.31421 0.93034 0.0
C5841 C 0.31725 0.29888 0.92786 0.0
C5842 C 0.31245 0.30379 0.92775 0.0
C5843 C 0.29849 0.31801 0.92786 0.0
C5844 C 0.30331 0.31311 0.92775 0.0
H5845 H 0.32354 0.28776 0.9187 0.0
H5846 H 0.31552 0.29567 0.91854 0.0
H5847 H 0.31814 0.31065 0.93231 0.0
H5848 H 0.29289 0.32922 0.93732 0.0
H5849 H 0.30049 0.32097 0.93721 0.0
C5850 C 0.71078 0.32345 0.92311 0.0
C5851 C 0.71151 0.32726 0.92831 0.0
C5852 C 0.7063 0.31881 0.92305 0.0
C5853 C 0.69169 0.31425 0.93056 0.0
H5854 H 0.69528 0.2981 0.92374 0.0
C5855 C 0.67507 0.29375 0.93358 0.0
C5856 C 0.67408 0.28989 0.92846 0.0
C5857 C 0.67971 0.29822 0.93348 0.0
C5858 C 0.69419 0.30261 0.9256 0.0
H5859 H 0.70805 0.3292 0.9375 0.0
H5860 H 0.70034 0.32104 0.93743 0.0
H5861 H 0.70325 0.30607 0.9237 0.0
H5862 H 0.67729 0.28764 0.91925 0.0
H5863 H 0.68534 0.29553 0.91904 0.0
H5864 H 0.68264 0.31081 0.93246 0.0
C5865 C 0.70319 0.32167 0.93338 0.0
C5866 C 0.69875 0.30718 0.92558 0.0
C5867 C 0.70767 0.3263 0.93345 0.0
C5868 C 0.67789 0.29058 0.92325 0.0
C5869 C 0.68255 0.29505 0.92315 0.0
C5870 C 0.68714 0.30969 0.93058 0.0
C5871 C 0.70243 0.31788 0.92817 0.0
C5872 C 0.69756 0.31304 0.92809 0.0
C5873 C 0.68349 0.29895 0.92826 0.0
C5874 C 0.68833 0.30381 0.92813 0.0
H5875 H 0.7137 0.32403 0.9191 0.0
H5876 H 0.7058 0.316 0.91894 0.0
H5877 H 0.69059 0.31875 0.93243 0.0
H5878 H 0.67218 0.29339 0.93764 0.0
H5879 H 0.68036 0.30109 0.93752 0.0
C5880 C 0.70577 0.6739 0.9243 0.0
C5881 C 0.71121 0.67449 0.92779 0.0
C5882 C 0.70149 0.67872 0.92405 0.0
C5883 C 0.69641 0.69256 0.93256 0.0
H5884 H 0.68801 0.69646 0.91726 0.0
C5885 C 0.67968 0.71322 0.93046 0.0
C5886 C 0.67416 0.71218 0.92722 0.0
C5887 C 0.68443 0.70885 0.93034 0.0
C5888 C 0.69027 0.69539 0.92158 0.0
H5889 H 0.71647 0.68068 0.93363 0.0
H5890 H 0.70899 0.68908 0.9332 0.0
H5891 H 0.69589 0.68843 0.91739 0.0
H5892 H 0.6693 0.70571 0.92133 0.0
H5893 H 0.67758 0.69812 0.92111 0.0
H5894 H 0.69076 0.69948 0.93676 0.0
C5895 C 0.708 0.68485 0.93073 0.0
C5896 C 0.69479 0.69079 0.92165 0.0
C5897 C 0.71228 0.68004 0.93098 0.0
C5898 C 0.67353 0.70671 0.9238 0.0
C5899 C 0.67828 0.70235 0.92367 0.0
C5900 C 0.69189 0.69716 0.93248 0.0
C5901 C 0.70253 0.68424 0.92729 0.0
C5902 C 0.69789 0.68929 0.92715 0.0
C5903 C 0.68378 0.70335 0.92697 0.0
C5904 C 0.68874 0.69861 0.927 0.0
H5905 H 0.70474 0.66966 0.92187 0.0
H5906 H 0.69728 0.67805 0.92144 0.0
H5907 H 0.69864 0.69146 0.93689 0.0
H5908 H 0.68036 0.71742 0.93307 0.0
H5909 H 0.68864 0.70981 0.93286 0.0
C5910 C 0.68012 0.71298 0.07173 0.0
C5911 C 0.67453 0.71185 0.07483 0.0
C5912 C 0.68494 0.70871 0.07197 0.0
C5913 C 0.69079 0.69536 0.08092 0.0
H5914 H 0.69965 0.69158 0.06584 0.0
C5915 C 0.70664 0.67408 0.07854 0.0
C5916 C 0.71215 0.67474 0.07518 0.0
C5917 C 0.70231 0.67885 0.07872 0.0
C5918 C 0.69728 0.69264 0.07011 0.0
H5919 H 0.66965 0.7053 0.08061 0.0
H5920 H 0.67805 0.69785 0.08104 0.0
H5921 H 0.69164 0.69946 0.06575 0.0
H5922 H 0.7175 0.68102 0.06952 0.0
H5923 H 0.70994 0.68935 0.06983 0.0
H5924 H 0.6964 0.68849 0.08526 0.0
C5925 C 0.67874 0.70209 0.07849 0.0
C5926 C 0.69269 0.69716 0.07006 0.0
C5927 C 0.67392 0.70636 0.07824 0.0
C5928 C 0.71326 0.68032 0.07207 0.0
C5929 C 0.70893 0.6851 0.07225 0.0
C5930 C 0.69539 0.69083 0.08097 0.0
C5931 C 0.6843 0.70319 0.07534 0.0
C5932 C 0.68935 0.69855 0.07545 0.0
C5933 C 0.70338 0.68441 0.07555 0.0
C5934 C 0.69866 0.68939 0.07556 0.0
H5935 H 0.68078 0.7172 0.06913 0.0
H5936 H 0.6892 0.70974 0.06957 0.0
H5937 H 0.68838 0.69638 0.08517 0.0
H5938 H 0.70559 0.6698 0.0809 0.0
H5939 H 0.69804 0.67813 0.08122 0.0
C5940 C 0.28861 0.67974 0.07086 0.0
C5941 C 0.28968 0.67421 0.07409 0.0
C5942 C 0.2929 0.68455 0.07108 0.0
C5943 C 0.30614 0.69054 0.08008 0.0
H5944 H 0.31017 0.69906 0.06488 0.0
C5945 C 0.32745 0.70636 0.07774 0.0
C5946 C 0.32683 0.7118 0.07425 0.0
C5947 C 0.32268 0.70202 0.07791 0.0
C5948 C 0.30904 0.69679 0.06918 0.0
H5949 H 0.29613 0.66942 0.08005 0.0
H5950 H 0.3036 0.6778 0.08043 0.0
H5951 H 0.30227 0.69106 0.06484 0.0
H5952 H 0.32064 0.717 0.06836 0.0
H5953 H 0.31233 0.70942 0.06867 0.0
H5954 H 0.31295 0.69623 0.08441 0.0
C5955 C 0.2994 0.67846 0.07781 0.0
C5956 C 0.30451 0.6922 0.06916 0.0
C5957 C 0.29511 0.67364 0.07759 0.0
C5958 C 0.32131 0.71282 0.07101 0.0
C5959 C 0.31654 0.70847 0.07119 0.0
C5960 C 0.31067 0.69512 0.0801 0.0
C5961 C 0.29836 0.68395 0.07453 0.0
C5962 C 0.30303 0.68899 0.0746 0.0
C5963 C 0.31718 0.703 0.07461 0.0
C5964 C 0.31221 0.69828 0.07465 0.0
H5965 H 0.28443 0.68036 0.0682 0.0
H5966 H 0.29192 0.68876 0.06857 0.0
H5967 H 0.30504 0.68822 0.08437 0.0
H5968 H 0.33167 0.70538 0.08021 0.0
H5969 H 0.32337 0.69781 0.08052 0.0
C5970 C 0.67853 0.29059 0.07847 0.0
C5971 C 0.67482 0.28978 0.07321 0.0
C5972 C 0.68317 0.29508 0.07856 0.0
C5973 C 0.68783 0.30958 0.07091 0.0
H5974 H 0.70382 0.30622 0.0782 0.0
C5975 C 0.70827 0.32631 0.06814 0.0
C5976 C 0.71198 0.32742 0.07335 0.0
C5977 C 0.70385 0.32162 0.0682 0.0
C5978 C 0.69936 0.30725 0.07621 0.0
H5979 H 0.67308 0.29309 0.06393 0.0
H5980 H 0.68123 0.3008 0.06404 0.0
H5981 H 0.6959 0.29819 0.07817 0.0
H5982 H 0.71401 0.32439 0.08266 0.0
H5983 H 0.7062 0.31626 0.0828 0.0
H5984 H 0.69126 0.31862 0.06895 0.0
C5985 C 0.68052 0.29802 0.06812 0.0
C5986 C 0.69482 0.30265 0.07619 0.0
C5987 C 0.67589 0.29354 0.06803 0.0
C5988 C 0.71118 0.3237 0.0786 0.0
C5989 C 0.70676 0.31899 0.07865 0.0
C5990 C 0.69236 0.31417 0.07093 0.0
C5991 C 0.6842 0.29887 0.0734 0.0
C5992 C 0.68901 0.30376 0.07351 0.0
C5993 C 0.70301 0.31793 0.07347 0.0
C5994 C 0.69818 0.31305 0.07355 0.0
H5995 H 0.67786 0.28774 0.08252 0.0
H5996 H 0.68589 0.29564 0.08271 0.0
H5997 H 0.68337 0.31063 0.06892 0.0
H5998 H 0.7087 0.32913 0.06404 0.0
H5999 H 0.70109 0.32088 0.0641 0.0
C6000 C 0.5785 0.82302 0.78987 0.0
C6001 C 0.57322 0.82673 0.78921 0.0
C6002 C 0.57862 0.81822 0.79419 0.0
C6003 C 0.56838 0.80824 0.80354 0.0
H6004 H 0.58292 0.80592 0.8137 0.0
C6005 C 0.56809 0.79322 0.82546 0.0
C6006 C 0.57325 0.78949 0.8267 0.0
C6007 C 0.5682 0.79749 0.82064 0.0
C6008 C 0.57885 0.80645 0.81085 0.0
H6009 H 0.56396 0.82836 0.79266 0.0
H6010 H 0.56417 0.82 0.80016 0.0
H6011 H 0.58291 0.81386 0.80572 0.0
H6012 H 0.58256 0.78728 0.82376 0.0
H6013 H 0.58276 0.79476 0.81533 0.0
H6014 H 0.5643 0.80087 0.8087 0.0
C6015 C 0.56818 0.82073 0.79727 0.0
C6016 C 0.57885 0.811 0.80627 0.0
C6017 C 0.56806 0.82552 0.79296 0.0
C6018 C 0.57853 0.79014 0.82298 0.0
C6019 C 0.57865 0.79442 0.81815 0.0
C6020 C 0.56838 0.80369 0.80811 0.0
C6021 C 0.57346 0.81702 0.79794 0.0
C6022 C 0.57359 0.81199 0.8026 0.0
C6023 C 0.57348 0.79815 0.81693 0.0
C6024 C 0.5736 0.80279 0.81186 0.0
H6025 H 0.58252 0.82378 0.787 0.0
H6026 H 0.58273 0.8154 0.79454 0.0
H6027 H 0.56429 0.8088 0.80072 0.0
H6028 H 0.56399 0.79293 0.8283 0.0
H6029 H 0.56419 0.80037 0.8199 0.0
C6030 C 0.17995 0.57106 0.7888 0.0
C6031 C 0.1744 0.57425 0.78987 0.0
C6032 C 0.18475 0.57127 0.7931 0.0
C6033 C 0.19064 0.58022 0.80642 0.0
H6034 H 0.19924 0.56504 0.81037 0.0
C6035 C 0.20643 0.57782 0.82775 0.0
C6036 C 0.21189 0.57437 0.82712 0.0
C6037 C 0.2021 0.57801 0.82297 0.0
C6038 C 0.19695 0.56934 0.80926 0.0
H6039 H 0.16955 0.58014 0.79634 0.0
H6040 H 0.17791 0.58051 0.80384 0.0
H6041 H 0.19127 0.56501 0.80245 0.0
H6042 H 0.21714 0.56855 0.8209 0.0
H6043 H 0.20958 0.56888 0.81257 0.0
H6044 H 0.19629 0.58454 0.81328 0.0
C6045 C 0.17859 0.57792 0.79963 0.0
C6046 C 0.19237 0.56932 0.80472 0.0
C6047 C 0.1738 0.57771 0.79532 0.0
C6048 C 0.21294 0.57117 0.82157 0.0
C6049 C 0.20861 0.57136 0.8168 0.0
C6050 C 0.19522 0.58024 0.81096 0.0
C6051 C 0.18412 0.57468 0.79859 0.0
C6052 C 0.18913 0.57475 0.80327 0.0
C6053 C 0.20312 0.57475 0.81746 0.0
C6054 C 0.1984 0.57479 0.81247 0.0
H6055 H 0.18061 0.56843 0.7846 0.0
H6056 H 0.18898 0.5688 0.79212 0.0
H6057 H 0.1883 0.58451 0.80535 0.0
H6058 H 0.20543 0.58026 0.83199 0.0
H6059 H 0.19788 0.58059 0.82367 0.0
C6060 C 0.42292 0.17836 0.79012 0.0
C6061 C 0.42818 0.17463 0.78937 0.0
C6062 C 0.42281 0.18302 0.79459 0.0
C6063 C 0.43034 0.1877 0.80914 0.0
H6064 H 0.42321 0.20373 0.80563 0.0
C6065 C 0.43316 0.20819 0.82578 0.0
C6066 C 0.42799 0.21197 0.82683 0.0
C6067 C 0.43309 0.20375 0.82112 0.0
C6068 C 0.42515 0.19925 0.80671 0.0
H6069 H 0.43743 0.17287 0.79276 0.0
H6070 H 0.43728 0.18105 0.80045 0.0
H6071 H 0.42325 0.19577 0.79765 0.0
H6072 H 0.41872 0.21408 0.82371 0.0
H6073 H 0.41856 0.20623 0.81563 0.0
H6074 H 0.43225 0.19116 0.81818 0.0
C6075 C 0.43321 0.18034 0.79763 0.0
C6076 C 0.42518 0.19469 0.80213 0.0
C6077 C 0.43333 0.1757 0.79316 0.0
C6078 C 0.42276 0.21121 0.82307 0.0
C6079 C 0.42269 0.20676 0.81839 0.0
C6080 C 0.43031 0.19225 0.81371 0.0
C6081 C 0.42794 0.18404 0.79842 0.0
C6082 C 0.4278 0.18887 0.80329 0.0
C6083 C 0.42785 0.20295 0.81739 0.0
C6084 C 0.42775 0.19809 0.81254 0.0
H6085 H 0.4189 0.1777 0.78723 0.0
H6086 H 0.41866 0.18576 0.79511 0.0
H6087 H 0.43229 0.18323 0.81023 0.0
H6088 H 0.43724 0.2086 0.82864 0.0
H6089 H 0.43717 0.20094 0.82043 0.0
C6090 C 0.79401 0.43306 0.8264 0.0
C6091 C 0.79016 0.42793 0.82737 0.0
C6092 C 0.79849 0.43298 0.82177 0.0
C6093 C 0.80293 0.42514 0.8073 0.0
H6094 H 0.81905 0.432 0.81094 0.0
C6095 C 0.8238 0.42269 0.79074 0.0
C6096 C 0.82763 0.42789 0.79003 0.0
C6097 C 0.81915 0.42262 0.79521 0.0
C6098 C 0.81455 0.43012 0.80982 0.0
H6099 H 0.78796 0.41871 0.82416 0.0
H6100 H 0.79587 0.41854 0.81613 0.0
H6101 H 0.81109 0.43201 0.81886 0.0
H6102 H 0.82956 0.43707 0.79351 0.0
H6103 H 0.82138 0.437 0.80121 0.0
H6104 H 0.80641 0.42326 0.79824 0.0
C6105 C 0.79537 0.42265 0.81893 0.0
C6106 C 0.80999 0.43013 0.81437 0.0
C6107 C 0.79089 0.42272 0.82357 0.0
C6108 C 0.82666 0.43302 0.79388 0.0
C6109 C 0.82202 0.43295 0.79835 0.0
C6110 C 0.80751 0.42513 0.80274 0.0
C6111 C 0.79925 0.42777 0.818 0.0
C6112 C 0.80411 0.42766 0.81316 0.0
C6113 C 0.81822 0.42774 0.79909 0.0
C6114 C 0.81336 0.42765 0.80394 0.0
H6115 H 0.79362 0.43712 0.82929 0.0
H6116 H 0.80134 0.43703 0.82113 0.0
H6117 H 0.79843 0.42326 0.8062 0.0
H6118 H 0.82438 0.41868 0.78781 0.0
H6119 H 0.81633 0.41852 0.79569 0.0
C6120 C 0.56797 0.17481 0.20724 0.0
C6121 C 0.57304 0.17388 0.21117 0.0
C6122 C 0.56808 0.17946 0.20278 0.0
C6123 C 0.57587 0.19403 0.19854 0.0
H6124 H 0.56932 0.19041 0.18229 0.0
C6125 C 0.57852 0.21071 0.17779 0.0
C6126 C 0.57338 0.2114 0.17389 0.0
C6127 C 0.57855 0.20621 0.18242 0.0
C6128 C 0.57111 0.19153 0.18682 0.0
H6129 H 0.58218 0.17717 0.21355 0.0
H6130 H 0.58242 0.18524 0.20569 0.0
H6131 H 0.56924 0.18245 0.19021 0.0
H6132 H 0.56425 0.20785 0.1718 0.0
H6133 H 0.56426 0.20012 0.17994 0.0
H6134 H 0.57773 0.20312 0.19513 0.0
C6135 C 0.57833 0.1824 0.2061 0.0
C6136 C 0.57106 0.18696 0.19137 0.0
C6137 C 0.57822 0.17773 0.21056 0.0
C6138 C 0.56826 0.2075 0.17476 0.0
C6139 C 0.5683 0.20301 0.17938 0.0
C6140 C 0.57592 0.19861 0.19399 0.0
C6141 C 0.57328 0.1833 0.20213 0.0
C6142 C 0.57342 0.18816 0.19729 0.0
C6143 C 0.57345 0.20229 0.18325 0.0
C6144 C 0.57351 0.19742 0.18808 0.0
H6145 H 0.56393 0.17189 0.20754 0.0
H6146 H 0.56408 0.18008 0.19985 0.0
H6147 H 0.57766 0.19513 0.20307 0.0
H6148 H 0.58251 0.21367 0.17728 0.0
H6149 H 0.58261 0.20575 0.18529 0.0
C6150 C 0.79359 0.56838 0.17569 0.0
C6151 C 0.78985 0.57357 0.17461 0.0
C6152 C 0.79807 0.56847 0.18031 0.0
C6153 C 0.80274 0.57651 0.19461 0.0
H6154 H 0.81868 0.56922 0.19104 0.0
C6155 C 0.82377 0.57877 0.21101 0.0
C6156 C 0.82747 0.57349 0.21179 0.0
C6157 C 0.81908 0.57886 0.20658 0.0
C6158 C 0.81423 0.57122 0.19214 0.0
H6159 H 0.78784 0.58289 0.17764 0.0
H6160 H 0.79575 0.58307 0.18567 0.0
H6161 H 0.81069 0.56924 0.18315 0.0
H6162 H 0.82914 0.5642 0.20848 0.0
H6163 H 0.8209 0.56432 0.20086 0.0
H6164 H 0.8063 0.57849 0.20362 0.0
C6165 C 0.79517 0.57892 0.18296 0.0
C6166 C 0.80965 0.57123 0.18761 0.0
C6167 C 0.79068 0.57884 0.17831 0.0
C6168 C 0.82634 0.56831 0.20806 0.0
C6169 C 0.82166 0.56841 0.20363 0.0
C6170 C 0.80733 0.5765 0.19915 0.0
C6171 C 0.79894 0.57374 0.18398 0.0
C6172 C 0.80383 0.57385 0.1888 0.0
C6173 C 0.81799 0.5737 0.20281 0.0
C6174 C 0.81312 0.57382 0.19798 0.0
H6175 H 0.79313 0.56428 0.17288 0.0
H6176 H 0.80085 0.56437 0.18103 0.0
H6177 H 0.79828 0.57851 0.1957 0.0
H6178 H 0.82448 0.58282 0.21385 0.0
H6179 H 0.81637 0.58302 0.20604 0.0
C6180 C 0.42282 0.82412 0.21073 0.0
C6181 C 0.42805 0.8279 0.21149 0.0
C6182 C 0.42276 0.81946 0.20626 0.0
C6183 C 0.43036 0.81482 0.19173 0.0
H6184 H 0.42335 0.79874 0.19527 0.0
C6185 C 0.43324 0.79431 0.17509 0.0
C6186 C 0.42809 0.7905 0.17408 0.0
C6187 C 0.43317 0.79878 0.17974 0.0
C6188 C 0.42526 0.80323 0.19419 0.0
H6189 H 0.43729 0.82974 0.20811 0.0
H6190 H 0.43722 0.82156 0.20042 0.0
H6191 H 0.42333 0.80671 0.20324 0.0
H6192 H 0.41886 0.78834 0.17726 0.0
H6193 H 0.41869 0.79621 0.18532 0.0
H6194 H 0.43228 0.81136 0.18269 0.0
C6195 C 0.43315 0.82223 0.20324 0.0
C6196 C 0.42525 0.8078 0.19875 0.0
C6197 C 0.43321 0.82688 0.2077 0.0
C6198 C 0.42288 0.79124 0.17787 0.0
C6199 C 0.42281 0.7957 0.18254 0.0
C6200 C 0.43036 0.81026 0.18717 0.0
C6201 C 0.42791 0.81848 0.20244 0.0
C6202 C 0.42783 0.81364 0.19758 0.0
C6203 C 0.42794 0.79955 0.1835 0.0
C6204 C 0.42784 0.8044 0.18835 0.0
H6205 H 0.41879 0.82475 0.2136 0.0
H6206 H 0.41864 0.81669 0.20573 0.0
H6207 H 0.43227 0.8193 0.19063 0.0
H6208 H 0.43731 0.79392 0.17221 0.0
H6209 H 0.43723 0.80161 0.1804 0.0
C6210 C 0.17331 0.42347 0.20594 0.0
C6211 C 0.17395 0.42688 0.21142 0.0
C6212 C 0.1781 0.42325 0.20163 0.0
C6213 C 0.19196 0.43176 0.19661 0.0
H6214 H 0.19572 0.41659 0.18791 0.0
C6215 C 0.21253 0.42984 0.17975 0.0
C6216 C 0.21144 0.42671 0.17417 0.0
C6217 C 0.20818 0.42965 0.18452 0.0
C6218 C 0.19469 0.42087 0.19026 0.0
H6219 H 0.18021 0.4326 0.21673 0.0
H6220 H 0.18857 0.43222 0.20921 0.0
H6221 H 0.18773 0.41663 0.19584 0.0
H6222 H 0.20492 0.42094 0.16924 0.0
H6223 H 0.19736 0.42062 0.17755 0.0
H6224 H 0.19888 0.43602 0.19099 0.0
C6225 C 0.18432 0.42979 0.2082 0.0
C6226 C 0.19011 0.4209 0.19481 0.0
C6227 C 0.17953 0.43001 0.21252 0.0
C6228 C 0.20595 0.42333 0.17351 0.0
C6229 C 0.20161 0.42314 0.17828 0.0
C6230 C 0.19654 0.43174 0.19206 0.0
C6231 C 0.18365 0.42644 0.20269 0.0
C6232 C 0.18867 0.42635 0.19801 0.0
C6233 C 0.20265 0.42633 0.18382 0.0
C6234 C 0.19793 0.4263 0.18881 0.0
H6235 H 0.16904 0.42109 0.20491 0.0
H6236 H 0.17739 0.4207 0.19739 0.0
H6237 H 0.1909 0.43606 0.19891 0.0
H6238 H 0.21676 0.4324 0.18046 0.0
H6239 H 0.20918 0.43208 0.18877 0.0
C6240 C 0.82639 0.56745 0.79351 0.0
C6241 C 0.82734 0.57264 0.78975 0.0
C6242 C 0.82174 0.56743 0.79798 0.0
C6243 C 0.80723 0.57516 0.80254 0.0
H6244 H 0.81094 0.56815 0.81858 0.0
C6245 C 0.79086 0.57753 0.82355 0.0
C6246 C 0.79017 0.57233 0.82737 0.0
C6247 C 0.79526 0.57758 0.81884 0.0
C6248 C 0.8098 0.57006 0.8141 0.0
H6249 H 0.82406 0.58186 0.78766 0.0
H6250 H 0.81601 0.58188 0.79554 0.0
H6251 H 0.81883 0.56822 0.81059 0.0
H6252 H 0.79361 0.56312 0.82923 0.0
H6253 H 0.8012 0.56317 0.82095 0.0
H6254 H 0.79819 0.577 0.80607 0.0
C6255 C 0.81884 0.57779 0.795 0.0
C6256 C 0.81433 0.5701 0.80952 0.0
C6257 C 0.82349 0.57781 0.79053 0.0
C6258 C 0.79396 0.56717 0.82633 0.0
C6259 C 0.79837 0.56723 0.82163 0.0
C6260 C 0.80269 0.57512 0.80713 0.0
C6261 C 0.81793 0.57261 0.7988 0.0
C6262 C 0.8131 0.57263 0.80368 0.0
C6263 C 0.7991 0.57245 0.81785 0.0
C6264 C 0.80392 0.57255 0.81296 0.0
H6265 H 0.82931 0.56341 0.79309 0.0
H6266 H 0.82113 0.56334 0.80078 0.0
H6267 H 0.80611 0.57708 0.79806 0.0
H6268 H 0.78796 0.58155 0.82419 0.0
H6269 H 0.79574 0.58169 0.81604 0.0
C6270 C 0.43036 0.8219 0.78952 0.0
C6271 C 0.42715 0.82747 0.79039 0.0
C6272 C 0.43017 0.81725 0.79399 0.0
C6273 C 0.42712 0.81484 0.81057 0.0
H6274 H 0.42586 0.79761 0.80594 0.0
C6275 C 0.42366 0.79566 0.82868 0.0
C6276 C 0.42712 0.79022 0.82794 0.0
C6277 C 0.42347 0.80009 0.824 0.0
C6278 C 0.42628 0.80239 0.80731 0.0
H6279 H 0.42121 0.8325 0.79668 0.0
H6280 H 0.42076 0.82436 0.80441 0.0
H6281 H 0.42588 0.80554 0.79795 0.0
H6282 H 0.43298 0.78513 0.82162 0.0
H6283 H 0.43274 0.79292 0.8135 0.0
H6284 H 0.42755 0.81171 0.81992 0.0
C6285 C 0.42349 0.82361 0.80029 0.0
C6286 C 0.42628 0.80694 0.80272 0.0
C6287 C 0.42368 0.82825 0.79582 0.0
C6288 C 0.43032 0.78929 0.82237 0.0
C6289 C 0.43013 0.79373 0.81769 0.0
C6290 C 0.42711 0.8103 0.81515 0.0
C6291 C 0.42676 0.81807 0.79945 0.0
C6292 C 0.4267 0.81322 0.8043 0.0
C6293 C 0.42674 0.7992 0.81846 0.0
C6294 C 0.42669 0.80402 0.81357 0.0
H6295 H 0.43303 0.82112 0.78536 0.0
H6296 H 0.43278 0.81307 0.79322 0.0
H6297 H 0.42756 0.81962 0.81194 0.0
H6298 H 0.42119 0.79655 0.83292 0.0
H6299 H 0.42075 0.80422 0.82472 0.0
C6300 C 0.20669 0.42352 0.82782 0.0
C6301 C 0.21214 0.42697 0.82714 0.0
C6302 C 0.20236 0.42326 0.82305 0.0
C6303 C 0.19719 0.43175 0.80923 0.0
H6304 H 0.18854 0.41653 0.80552 0.0
C6305 C 0.18014 0.42979 0.78884 0.0
C6306 C 0.17459 0.42661 0.78997 0.0
C6307 C 0.18495 0.42962 0.79313 0.0
C6308 C 0.19088 0.42083 0.80654 0.0
H6309 H 0.21739 0.43271 0.82085 0.0
H6310 H 0.20983 0.43225 0.81252 0.0
H6311 H 0.19654 0.4166 0.81344 0.0
H6312 H 0.16976 0.42079 0.79652 0.0
H6313 H 0.17815 0.4205 0.804 0.0
H6314 H 0.19149 0.43599 0.80238 0.0
C6315 C 0.20886 0.42983 0.81678 0.0
C6316 C 0.19547 0.42087 0.81108 0.0
C6317 C 0.21319 0.43009 0.82155 0.0
C6318 C 0.174 0.42321 0.79546 0.0
C6319 C 0.17881 0.42304 0.79975 0.0
C6320 C 0.1926 0.43171 0.8047 0.0
C6321 C 0.20337 0.42644 0.81749 0.0
C6322 C 0.19865 0.42634 0.81251 0.0
C6323 C 0.18433 0.42627 0.79866 0.0
C6324 C 0.18936 0.42626 0.80332 0.0
H6325 H 0.20569 0.42114 0.8321 0.0
H6326 H 0.19814 0.42068 0.82378 0.0
H6327 H 0.19949 0.43606 0.81028 0.0
H6328 H 0.18078 0.43237 0.78461 0.0
H6329 H 0.18917 0.43208 0.7921 0.0
C6330 C 0.57812 0.21117 0.82355 0.0
C6331 C 0.57294 0.2118 0.82742 0.0
C6332 C 0.5782 0.20673 0.81887 0.0
C6333 C 0.57083 0.19207 0.81426 0.0
H6334 H 0.5775 0.19584 0.7981 0.0
C6335 C 0.56789 0.17554 0.79369 0.0
C6336 C 0.573 0.17463 0.7898 0.0
C6337 C 0.56796 0.18016 0.79818 0.0
C6338 C 0.57569 0.1947 0.80261 0.0
H6339 H 0.56381 0.2082 0.8294 0.0
H6340 H 0.56391 0.20056 0.82118 0.0
H6341 H 0.57749 0.20376 0.80612 0.0
H6342 H 0.58216 0.17796 0.78752 0.0
H6343 H 0.58232 0.18597 0.79544 0.0
H6344 H 0.56903 0.18302 0.81078 0.0
C6345 C 0.56793 0.20346 0.8218 0.0
C6346 C 0.57568 0.19923 0.80721 0.0
C6347 C 0.56785 0.2079 0.82647 0.0
C6348 C 0.57817 0.1785 0.79048 0.0
C6349 C 0.57823 0.18313 0.79497 0.0
C6350 C 0.57084 0.18754 0.80968 0.0
C6351 C 0.57312 0.2028 0.81796 0.0
C6352 C 0.57323 0.19798 0.81308 0.0
C6353 C 0.57314 0.18399 0.7989 0.0
C6354 C 0.57324 0.1888 0.80379 0.0
H6355 H 0.5821 0.21414 0.82412 0.0
H6356 H 0.58228 0.20631 0.81602 0.0
H6357 H 0.56902 0.19091 0.81877 0.0
H6358 H 0.56386 0.1726 0.79334 0.0
H6359 H 0.56393 0.18074 0.80107 0.0
C6360 C 0.79515 0.42351 0.17377 0.0
C6361 C 0.7897 0.42696 0.17443 0.0
C6362 C 0.79949 0.42328 0.17854 0.0
C6363 C 0.80464 0.43182 0.19233 0.0
H6364 H 0.81329 0.41663 0.19612 0.0
C6365 C 0.82155 0.42993 0.21284 0.0
C6366 C 0.82711 0.42676 0.21177 0.0
C6367 C 0.81677 0.42975 0.20851 0.0
C6368 C 0.81095 0.42092 0.19508 0.0
H6369 H 0.78445 0.43272 0.18071 0.0
H6370 H 0.79201 0.43231 0.18903 0.0
H6371 H 0.80532 0.41667 0.18817 0.0
H6372 H 0.832 0.42093 0.20527 0.0
H6373 H 0.82367 0.42061 0.19772 0.0
H6374 H 0.8103 0.43609 0.1992 0.0
C6375 C 0.79298 0.42987 0.18478 0.0
C6376 C 0.80638 0.42094 0.19053 0.0
C6377 C 0.78865 0.4301 0.18001 0.0
C6378 C 0.82774 0.42335 0.20629 0.0
C6379 C 0.82297 0.42317 0.20196 0.0
C6380 C 0.8092 0.4318 0.19688 0.0
C6381 C 0.79847 0.42648 0.18409 0.0
C6382 C 0.80319 0.4264 0.18907 0.0
C6383 C 0.81744 0.42639 0.203 0.0
C6384 C 0.81244 0.42636 0.19829 0.0
H6385 H 0.79615 0.42112 0.1695 0.0
H6386 H 0.80371 0.4207 0.17781 0.0
H6387 H 0.80234 0.43613 0.19126 0.0
H6388 H 0.82087 0.43253 0.21706 0.0
H6389 H 0.81254 0.43221 0.2095 0.0
C6390 C 0.56763 0.79406 0.1748 0.0
C6391 C 0.5727 0.79012 0.17385 0.0
C6392 C 0.56774 0.7985 0.17946 0.0
C6393 C 0.57554 0.80269 0.19404 0.0
H6394 H 0.569 0.81896 0.19047 0.0
C6395 C 0.57823 0.82339 0.21077 0.0
C6396 C 0.5731 0.82729 0.21147 0.0
C6397 C 0.57825 0.81877 0.20626 0.0
C6398 C 0.57078 0.81442 0.19157 0.0
H6399 H 0.58183 0.78772 0.17715 0.0
H6400 H 0.58208 0.79556 0.18523 0.0
H6401 H 0.56892 0.81106 0.18248 0.0
H6402 H 0.56397 0.82941 0.20795 0.0
H6403 H 0.56396 0.8213 0.20019 0.0
H6404 H 0.57741 0.80607 0.20314 0.0
C6405 C 0.57799 0.79517 0.18239 0.0
C6406 C 0.57073 0.80989 0.18699 0.0
C6407 C 0.57788 0.79072 0.17771 0.0
C6408 C 0.56798 0.82645 0.20758 0.0
C6409 C 0.568 0.82184 0.20308 0.0
C6410 C 0.57559 0.80723 0.19863 0.0
C6411 C 0.57294 0.79913 0.1833 0.0
C6412 C 0.57308 0.80396 0.18817 0.0
C6413 C 0.57314 0.81796 0.20234 0.0
C6414 C 0.57319 0.81314 0.19746 0.0
H6415 H 0.56359 0.79377 0.17187 0.0
H6416 H 0.56374 0.80143 0.18008 0.0
H6417 H 0.57732 0.79815 0.19513 0.0
H6418 H 0.58223 0.82388 0.21373 0.0
H6419 H 0.58231 0.81589 0.20579 0.0
C6420 C 0.2064 0.5776 0.17355 0.0
C6421 C 0.21184 0.57411 0.17416 0.0
C6422 C 0.20209 0.57783 0.17834 0.0
C6423 C 0.19691 0.56922 0.19208 0.0
H6424 H 0.18845 0.58449 0.19602 0.0
C6425 C 0.18001 0.57116 0.21261 0.0
C6426 C 0.17449 0.57441 0.21155 0.0
C6427 C 0.18479 0.57131 0.20829 0.0
C6428 C 0.19074 0.58018 0.19494 0.0
H6429 H 0.21706 0.56823 0.18035 0.0
H6430 H 0.20952 0.56862 0.1887 0.0
H6431 H 0.1964 0.58442 0.18805 0.0
H6432 H 0.16969 0.58034 0.20509 0.0
H6433 H 0.17802 0.58061 0.19756 0.0
H6434 H 0.19121 0.56497 0.19893 0.0
C6435 C 0.20856 0.57111 0.18448 0.0
C6436 C 0.19529 0.58014 0.19038 0.0
C6437 C 0.21288 0.57089 0.17969 0.0
C6438 C 0.17391 0.57787 0.2061 0.0
C6439 C 0.17869 0.57802 0.20178 0.0
C6440 C 0.19235 0.56926 0.19665 0.0
C6441 C 0.2031 0.57456 0.18385 0.0
C6442 C 0.19841 0.57465 0.18886 0.0
C6443 C 0.18418 0.57472 0.2028 0.0
C6444 C 0.18918 0.57473 0.1981 0.0
H6445 H 0.20541 0.58006 0.16931 0.0
H6446 H 0.19789 0.58045 0.17766 0.0
H6447 H 0.19916 0.5649 0.19097 0.0
H6448 H 0.18065 0.56853 0.21681 0.0
H6449 H 0.189 0.56879 0.20927 0.0
C6450 C 0.42316 0.17289 0.20542 0.0
C6451 C 0.42661 0.17364 0.21086 0.0
C6452 C 0.42301 0.17753 0.20096 0.0
C6453 C 0.42592 0.19419 0.19855 0.0
H6454 H 0.42721 0.18944 0.18136 0.0
C6455 C 0.43011 0.21185 0.17894 0.0
C6456 C 0.4269 0.21095 0.17337 0.0
C6457 C 0.42989 0.2074 0.18362 0.0
C6458 C 0.42676 0.19084 0.18613 0.0
H6459 H 0.4325 0.17995 0.21593 0.0
H6460 H 0.43233 0.18802 0.20808 0.0
H6461 H 0.42714 0.18151 0.18932 0.0
H6462 H 0.42094 0.20466 0.16837 0.0
H6463 H 0.42046 0.19698 0.17655 0.0
H6464 H 0.42557 0.20353 0.19535 0.0
C6465 C 0.42969 0.18384 0.20729 0.0
C6466 C 0.42673 0.1863 0.1907 0.0
C6467 C 0.42985 0.17919 0.21176 0.0
C6468 C 0.42342 0.20553 0.17262 0.0
C6469 C 0.4232 0.20109 0.17729 0.0
C6470 C 0.42596 0.19874 0.19398 0.0
C6471 C 0.42631 0.18305 0.20182 0.0
C6472 C 0.4263 0.18791 0.19697 0.0
C6473 C 0.42646 0.20195 0.18283 0.0
C6474 C 0.42638 0.19712 0.18771 0.0
H6475 H 0.42066 0.16865 0.20455 0.0
H6476 H 0.4203 0.1768 0.19682 0.0
H6477 H 0.42551 0.19559 0.20333 0.0
H6478 H 0.43279 0.216 0.1797 0.0
H6479 H 0.4325 0.20819 0.1878 0.0
C6480 C 0.82145 0.78886 0.57126 0.0
C6481 C 0.82702 0.78996 0.57441 0.0
C6482 C 0.81665 0.79316 0.57148 0.0
C6483 C 0.81079 0.80651 0.58041 0.0
H6484 H 0.80207 0.81037 0.56527 0.0
C6485 C 0.79494 0.8278 0.578 0.0
C6486 C 0.78946 0.82715 0.57458 0.0
C6487 C 0.79928 0.82303 0.57819 0.0
C6488 C 0.8044 0.80929 0.56956 0.0
H6489 H 0.83189 0.79647 0.58024 0.0
H6490 H 0.82352 0.80396 0.58063 0.0
H6491 H 0.81006 0.80246 0.56523 0.0
H6492 H 0.78418 0.82088 0.56883 0.0
H6493 H 0.79176 0.81257 0.56917 0.0
H6494 H 0.80516 0.81338 0.58473 0.0
C6495 C 0.82283 0.79973 0.57806 0.0
C6496 C 0.80898 0.80475 0.56953 0.0
C6497 C 0.82764 0.79543 0.57784 0.0
C6498 C 0.7884 0.82158 0.57143 0.0
C6499 C 0.79274 0.81681 0.57162 0.0
C6500 C 0.8062 0.81105 0.58044 0.0
C6501 C 0.81729 0.79866 0.57486 0.0
C6502 C 0.81226 0.80334 0.57495 0.0
C6503 C 0.79825 0.81749 0.57497 0.0
C6504 C 0.80298 0.81252 0.57501 0.0
H6505 H 0.82079 0.78465 0.56865 0.0
H6506 H 0.8124 0.79215 0.56904 0.0
H6507 H 0.81316 0.80547 0.58468 0.0
H6508 H 0.79595 0.83206 0.5804 0.0
H6509 H 0.80351 0.82375 0.58074 0.0
C6510 C 0.8273 0.20696 0.42359 0.0
C6511 C 0.82665 0.2124 0.42706 0.0
C6512 C 0.82251 0.20264 0.42333 0.0
C6513 C 0.8087 0.19749 0.43182 0.0
H6514 H 0.80497 0.18887 0.4166 0.0
C6515 C 0.78833 0.1804 0.42987 0.0
C6516 C 0.78948 0.17485 0.42671 0.0
C6517 C 0.79261 0.18523 0.4297 0.0
C6518 C 0.80599 0.1912 0.4209 0.0
H6519 H 0.82039 0.21764 0.43284 0.0
H6520 H 0.81203 0.21012 0.43237 0.0
H6521 H 0.81288 0.19687 0.41667 0.0
H6522 H 0.79605 0.17004 0.42089 0.0
H6523 H 0.80349 0.17846 0.42058 0.0
H6524 H 0.80185 0.19179 0.43607 0.0
C6525 C 0.81628 0.20914 0.42993 0.0
C6526 C 0.81052 0.19579 0.42094 0.0
C6527 C 0.82107 0.21346 0.4302 0.0
C6528 C 0.79497 0.17428 0.4233 0.0
C6529 C 0.79924 0.17911 0.42312 0.0
C6530 C 0.80416 0.19291 0.43178 0.0
C6531 C 0.81696 0.20367 0.42652 0.0
C6532 C 0.81196 0.19896 0.42641 0.0
C6533 C 0.79813 0.18463 0.42635 0.0
C6534 C 0.80278 0.18967 0.42633 0.0
H6535 H 0.83157 0.20594 0.4212 0.0
H6536 H 0.82322 0.19843 0.42074 0.0
H6537 H 0.80975 0.19978 0.43614 0.0
H6538 H 0.78411 0.18102 0.43247 0.0
H6539 H 0.79156 0.18945 0.43216 0.0
C6540 C 0.82352 0.79068 0.42292 0.0
C6541 C 0.82738 0.79 0.42809 0.0
C6542 C 0.81885 0.79513 0.42287 0.0
C6543 C 0.8143 0.80977 0.43032 0.0
H6544 H 0.79812 0.80609 0.42362 0.0
C6545 C 0.79377 0.82633 0.43338 0.0
C6546 C 0.78986 0.82727 0.42829 0.0
C6547 C 0.79826 0.82172 0.43327 0.0
C6548 C 0.80264 0.80721 0.42545 0.0
H6549 H 0.82936 0.79351 0.43725 0.0
H6550 H 0.82116 0.80119 0.4372 0.0
H6551 H 0.80611 0.79814 0.42359 0.0
H6552 H 0.78755 0.824 0.41912 0.0
H6553 H 0.79547 0.81599 0.41889 0.0
H6554 H 0.81085 0.81882 0.43218 0.0
C6555 C 0.82178 0.79831 0.43316 0.0
C6556 C 0.80722 0.80266 0.42543 0.0
C6557 C 0.82643 0.79386 0.43322 0.0
C6558 C 0.79053 0.82344 0.42309 0.0
C6559 C 0.79502 0.81881 0.42299 0.0
C6560 C 0.80973 0.81431 0.43034 0.0
C6561 C 0.81795 0.79903 0.42798 0.0
C6562 C 0.81309 0.80388 0.42789 0.0
C6563 C 0.79896 0.81791 0.42807 0.0
C6564 C 0.80384 0.81308 0.42793 0.0
H6565 H 0.82409 0.78774 0.41892 0.0
H6566 H 0.81601 0.79559 0.41878 0.0
H6567 H 0.81881 0.8109 0.43215 0.0
H6568 H 0.79343 0.82924 0.43743 0.0
H6569 H 0.80116 0.8211 0.43729 0.0
C6570 C 0.20764 0.8268 0.43293 0.0
C6571 C 0.21147 0.82778 0.42778 0.0
C6572 C 0.20316 0.82217 0.43286 0.0
C6573 C 0.19871 0.8077 0.42504 0.0
H6574 H 0.18263 0.81128 0.43202 0.0
C6575 C 0.17792 0.79099 0.42292 0.0
C6576 C 0.17415 0.7903 0.42816 0.0
C6577 C 0.18255 0.79548 0.42277 0.0
C6578 C 0.18712 0.81018 0.43011 0.0
H6579 H 0.21362 0.8246 0.41855 0.0
H6580 H 0.20571 0.81656 0.41838 0.0
H6581 H 0.19055 0.81925 0.43193 0.0
H6582 H 0.17228 0.79385 0.43733 0.0
H6583 H 0.18042 0.80159 0.43712 0.0
H6584 H 0.19526 0.79861 0.42324 0.0
C6585 C 0.20623 0.81935 0.4225 0.0
C6586 C 0.19166 0.81475 0.43006 0.0
C6587 C 0.21071 0.824 0.42256 0.0
C6588 C 0.17514 0.7942 0.43325 0.0
C6589 C 0.17976 0.79869 0.4331 0.0
C6590 C 0.19416 0.80311 0.4251 0.0
C6591 C 0.20238 0.81841 0.42763 0.0
C6592 C 0.19752 0.81356 0.42755 0.0
C6593 C 0.1835 0.79941 0.42785 0.0
C6594 C 0.18832 0.80429 0.42767 0.0
H6595 H 0.20804 0.82967 0.437 0.0
H6596 H 0.20032 0.82152 0.43692 0.0
H6597 H 0.2032 0.80661 0.42314 0.0
H6598 H 0.17731 0.78802 0.41895 0.0
H6599 H 0.18531 0.79595 0.41864 0.0
C6600 C 0.17829 0.21062 0.4233 0.0
C6601 C 0.17445 0.21129 0.42849 0.0
C6602 C 0.18292 0.20613 0.42319 0.0
C6603 C 0.18741 0.19141 0.43054 0.0
H6604 H 0.20359 0.19503 0.42381 0.0
C6605 C 0.20789 0.17477 0.43352 0.0
C6606 C 0.21178 0.17382 0.42842 0.0
C6607 C 0.20341 0.1794 0.43342 0.0
C6608 C 0.19907 0.19393 0.42564 0.0
H6609 H 0.17247 0.20771 0.43763 0.0
H6610 H 0.18061 0.19998 0.43749 0.0
H6611 H 0.19564 0.20302 0.42383 0.0
H6612 H 0.21407 0.17708 0.41925 0.0
H6613 H 0.20618 0.18512 0.41903 0.0
H6614 H 0.19082 0.18233 0.43235 0.0
C6615 C 0.18 0.20288 0.43347 0.0
C6616 C 0.19452 0.19851 0.42565 0.0
C6617 C 0.17538 0.20737 0.43358 0.0
C6618 C 0.21111 0.17765 0.42323 0.0
C6619 C 0.20663 0.1823 0.42313 0.0
C6620 C 0.19195 0.18685 0.43052 0.0
C6621 C 0.18381 0.20218 0.42827 0.0
C6622 C 0.18864 0.19731 0.42813 0.0
C6623 C 0.20271 0.1832 0.42822 0.0
C6624 C 0.19785 0.18805 0.42811 0.0
H6625 H 0.17773 0.2136 0.41932 0.0
H6626 H 0.18574 0.20568 0.41909 0.0
H6627 H 0.1829 0.1903 0.43237 0.0
H6628 H 0.20823 0.17186 0.43757 0.0
H6629 H 0.20052 0.18002 0.43745 0.0
C6630 C 0.20795 0.17541 0.56829 0.0
C6631 C 0.21172 0.17435 0.57346 0.0
C6632 C 0.20348 0.18005 0.56838 0.0
C6633 C 0.19892 0.1944 0.57639 0.0
H6634 H 0.18292 0.19087 0.56921 0.0
C6635 C 0.17798 0.21091 0.57869 0.0
C6636 C 0.17426 0.21168 0.57343 0.0
C6637 C 0.18265 0.20645 0.57879 0.0
C6638 C 0.18739 0.19196 0.57117 0.0
H6639 H 0.21379 0.17741 0.58275 0.0
H6640 H 0.20591 0.18546 0.58295 0.0
H6641 H 0.19088 0.18294 0.56921 0.0
H6642 H 0.17252 0.20834 0.56416 0.0
H6643 H 0.18072 0.20067 0.56428 0.0
H6644 H 0.19541 0.20343 0.57835 0.0
C6645 C 0.20646 0.18273 0.5788 0.0
C6646 C 0.19195 0.18741 0.57118 0.0
C6647 C 0.21093 0.17807 0.57871 0.0
C6648 C 0.17534 0.20792 0.56826 0.0
C6649 C 0.17999 0.20346 0.56836 0.0
C6650 C 0.19435 0.19895 0.57639 0.0
C6651 C 0.20265 0.18375 0.57364 0.0
C6652 C 0.19778 0.18858 0.57375 0.0
C6653 C 0.18368 0.20265 0.57363 0.0
C6654 C 0.18853 0.1978 0.57375 0.0
H6655 H 0.20838 0.17258 0.56419 0.0
H6656 H 0.20068 0.18076 0.5643 0.0
H6657 H 0.20339 0.19547 0.57835 0.0
H6658 H 0.1773 0.21377 0.58273 0.0
H6659 H 0.18538 0.20591 0.58294 0.0
C6660 C 0.78808 0.18025 0.57115 0.0
C6661 C 0.78916 0.17472 0.57437 0.0
C6662 C 0.79234 0.18509 0.57141 0.0
C6663 C 0.80549 0.19112 0.58052 0.0
H6664 H 0.80958 0.19972 0.56538 0.0
C6665 C 0.82685 0.20688 0.5783 0.0
C6666 C 0.82628 0.21233 0.57483 0.0
C6667 C 0.82205 0.20257 0.57847 0.0
C6668 C 0.80843 0.19742 0.56967 0.0
H6669 H 0.79561 0.16995 0.58036 0.0
H6670 H 0.80302 0.17838 0.58081 0.0
H6671 H 0.8017 0.1917 0.56526 0.0
H6672 H 0.82013 0.21759 0.56894 0.0
H6673 H 0.81176 0.21007 0.56923 0.0
H6674 H 0.81227 0.1968 0.58491 0.0
C6675 C 0.79883 0.17901 0.57816 0.0
C6676 C 0.80391 0.19283 0.5696 0.0
C6677 C 0.79458 0.17418 0.5779 0.0
C6678 C 0.82076 0.2134 0.57159 0.0
C6679 C 0.81596 0.20909 0.57175 0.0
C6680 C 0.81001 0.19571 0.58059 0.0
C6681 C 0.79778 0.18452 0.57489 0.0
C6682 C 0.80242 0.18958 0.57502 0.0
C6683 C 0.81657 0.2036 0.57516 0.0
C6684 C 0.81157 0.19889 0.57515 0.0
H6685 H 0.78391 0.18086 0.56847 0.0
H6686 H 0.79134 0.1893 0.56891 0.0
H6687 H 0.80438 0.18878 0.5848 0.0
H6688 H 0.83107 0.20585 0.58077 0.0
H6689 H 0.82271 0.19835 0.58106 0.0
C6690 C 0.20664 0.82835 0.57793 0.0
C6691 C 0.21212 0.82775 0.5745 0.0
C6692 C 0.20235 0.82353 0.57813 0.0
C6693 C 0.19736 0.80974 0.5695 0.0
H6694 H 0.1887 0.80579 0.58464 0.0
C6695 C 0.18053 0.78913 0.5712 0.0
C6696 C 0.17497 0.79016 0.57437 0.0
C6697 C 0.18529 0.79348 0.57142 0.0
C6698 C 0.19104 0.80687 0.58036 0.0
H6699 H 0.21745 0.82155 0.56874 0.0
H6700 H 0.20997 0.81315 0.56909 0.0
H6701 H 0.19661 0.8138 0.58468 0.0
H6702 H 0.17005 0.79659 0.58025 0.0
H6703 H 0.17834 0.80417 0.58064 0.0
H6704 H 0.19176 0.80286 0.56517 0.0
C6705 C 0.20895 0.81738 0.57154 0.0
C6706 C 0.19557 0.81146 0.58038 0.0
C6707 C 0.21324 0.8222 0.57134 0.0
C6708 C 0.17431 0.79561 0.57783 0.0
C6709 C 0.17907 0.79996 0.57805 0.0
C6710 C 0.19283 0.80515 0.56948 0.0
C6711 C 0.20344 0.81801 0.5749 0.0
C6712 C 0.19876 0.81298 0.57494 0.0
C6713 C 0.18461 0.79896 0.57482 0.0
C6714 C 0.18958 0.80369 0.5749 0.0
H6715 H 0.20558 0.83259 0.58033 0.0
H6716 H 0.19811 0.8242 0.58068 0.0
H6717 H 0.19967 0.81085 0.56521 0.0
H6718 H 0.18123 0.78494 0.56857 0.0
H6719 H 0.18954 0.79253 0.56896 0.0
C6720 C 0.97826 0.26188 0.34524 0.0
C6721 C 0.97458 0.261 0.3505 0.0
C6722 C 0.98464 0.26104 0.34551 0.0
C6723 C 0.99766 0.26124 0.35636 0.0
H6724 H 0.00647 0.25395 0.34259 0.0
C6725 C 0.02433 0.25905 0.35598 0.0
C6726 C 0.02719 0.26083 0.35043 0.0
C6727 C 0.01792 0.25827 0.35627 0.0
C6728 C 0.00408 0.25602 0.34646 0.0
H6729 H 0.97473 0.25843 0.36017 0.0
H6730 H 0.98591 0.25701 0.36066 0.0
H6731 H 0.99522 0.25399 0.34261 0.0
H6732 H 0.02551 0.26323 0.34086 0.0
H6733 H 0.0144 0.26183 0.34136 0.0
H6734 H 0.00654 0.26338 0.36014 0.0
C6735 C 0.98384 0.2584 0.35633 0.0
C6736 C 0.99764 0.25604 0.34647 0.0
C6737 C 0.97744 0.25921 0.35605 0.0
C6738 C 0.02349 0.26173 0.34517 0.0
C6739 C 0.01711 0.26093 0.34546 0.0
C6740 C 0.00412 0.26122 0.35635 0.0
C6741 C 0.98752 0.25933 0.35106 0.0
C6742 C 0.99435 0.25876 0.35136 0.0
C6743 C 0.01424 0.25923 0.35102 0.0
C6744 C 0.0074 0.25871 0.35134 0.0
H6745 H 0.97624 0.26338 0.34092 0.0
H6746 H 0.98734 0.26192 0.3414 0.0
H6747 H 0.99528 0.26343 0.36016 0.0
H6748 H 0.02704 0.25825 0.3601 0.0
H6749 H 0.01585 0.25689 0.36061 0.0
C6750 C 0.73781 0.97808 0.3555 0.0
C6751 C 0.7415 0.97449 0.35156 0.0
C6752 C 0.73855 0.98448 0.35576 0.0
C6753 C 0.74413 0.99735 0.34619 0.0
H6754 H 0.74143 0.00693 0.36105 0.0
C6755 C 0.73783 0.02305 0.34536 0.0
C6756 C 0.74039 0.02706 0.34977 0.0
C6757 C 0.73869 0.01669 0.3458 0.0
C6758 C 0.74227 0.00432 0.35687 0.0
H6759 H 0.7491 0.97478 0.34506 0.0
H6760 H 0.75043 0.98594 0.34555 0.0
H6761 H 0.74192 0.99569 0.36167 0.0
H6762 H 0.74591 0.02749 0.35811 0.0
H6763 H 0.7474 0.01633 0.35889 0.0
H6764 H 0.7445 0.00596 0.34139 0.0
C6765 C 0.74687 0.98383 0.34835 0.0
C6766 C 0.74248 0.99788 0.35722 0.0
C6767 C 0.74612 0.97743 0.34807 0.0
C6768 C 0.74383 0.02453 0.35466 0.0
C6769 C 0.74469 0.01814 0.35511 0.0
C6770 C 0.74392 0.00378 0.34585 0.0
C6771 C 0.743 0.98745 0.35209 0.0
C6772 C 0.74332 0.99431 0.35186 0.0
C6773 C 0.74212 0.01415 0.35068 0.0
C6774 C 0.74288 0.00734 0.35116 0.0
H6775 H 0.73416 0.97598 0.35819 0.0
H6776 H 0.73543 0.98713 0.35864 0.0
H6777 H 0.74472 0.99476 0.34196 0.0
H6778 H 0.73504 0.02482 0.34161 0.0
H6779 H 0.73654 0.01374 0.34239 0.0
C6780 C 0.02414 0.74612 0.34764 0.0
C6781 C 0.02719 0.74196 0.35158 0.0
C6782 C 0.01775 0.74694 0.34806 0.0
C6783 C 0.00407 0.74401 0.35797 0.0
H6784 H 0.99536 0.74381 0.34235 0.0
C6785 C 0.97805 0.73848 0.3558 0.0
C6786 C 0.97462 0.74152 0.3512 0.0
C6787 C 0.98441 0.73939 0.35628 0.0
C6788 C 0.99771 0.74398 0.34676 0.0
H6789 H 0.02594 0.73554 0.35915 0.0
H6790 H 0.01481 0.73696 0.35986 0.0
H6791 H 0.00657 0.74392 0.34244 0.0
H6792 H 0.97514 0.74817 0.34375 0.0
H6793 H 0.98624 0.74979 0.34462 0.0
H6794 H 0.99517 0.74395 0.36228 0.0
C6795 C 0.01736 0.73965 0.3565 0.0
C6796 C 0.00415 0.74405 0.34681 0.0
C6797 C 0.02374 0.73883 0.3561 0.0
C6798 C 0.97767 0.74568 0.34727 0.0
C6799 C 0.98403 0.7466 0.34776 0.0
C6800 C 0.99761 0.74395 0.35792 0.0
C6801 C 0.01427 0.74362 0.35241 0.0
C6802 C 0.00741 0.744 0.35241 0.0
C6803 C 0.9875 0.74338 0.35219 0.0
C6804 C 0.99435 0.74387 0.35231 0.0
H6805 H 0.02667 0.74868 0.34418 0.0
H6806 H 0.01554 0.75013 0.34491 0.0
H6807 H 0.00644 0.74405 0.36237 0.0
H6808 H 0.97585 0.7352 0.35886 0.0
H6809 H 0.98695 0.73678 0.3597 0.0
C6810 C 0.26426 0.02343 0.35505 0.0
C6811 C 0.26064 0.02703 0.35105 0.0
C6812 C 0.26352 0.01703 0.35529 0.0
C6813 C 0.25808 0.00418 0.34561 0.0
H6814 H 0.26044 0.99459 0.36053 0.0
C6815 C 0.26419 0.97842 0.3449 0.0
C6816 C 0.26151 0.97444 0.34927 0.0
C6817 C 0.26339 0.98479 0.34533 0.0
C6818 C 0.2597 0.9972 0.35633 0.0
H6819 H 0.25316 0.02676 0.34442 0.0
H6820 H 0.25183 0.01559 0.34486 0.0
H6821 H 0.26001 0.00583 0.36113 0.0
H6822 H 0.25584 0.97406 0.3575 0.0
H6823 H 0.25444 0.98524 0.35826 0.0
H6824 H 0.25776 0.99557 0.34081 0.0
C6825 C 0.25533 0.01771 0.34772 0.0
C6826 C 0.25952 0.00364 0.35667 0.0
C6827 C 0.25609 0.02411 0.34747 0.0
C6828 C 0.25801 0.977 0.35409 0.0
C6829 C 0.25721 0.9834 0.35453 0.0
C6830 C 0.25826 0.99775 0.34527 0.0
C6831 C 0.25913 0.01407 0.35153 0.0
C6832 C 0.2588 0.00722 0.3513 0.0
C6833 C 0.25989 0.98737 0.35015 0.0
C6834 C 0.25918 0.99418 0.35061 0.0
H6835 H 0.26785 0.02554 0.35782 0.0
H6836 H 0.26657 0.01438 0.35822 0.0
H6837 H 0.25758 0.00677 0.34137 0.0
H6838 H 0.26704 0.97663 0.34121 0.0
H6839 H 0.26563 0.98772 0.34196 0.0
C6840 C 0.97768 0.74285 0.64579 0.0
C6841 C 0.97483 0.74093 0.6513 0.0
C6842 C 0.98408 0.7437 0.64552 0.0
C6843 C 0.99789 0.74588 0.65539 0.0
H6844 H 0.00677 0.73881 0.64156 0.0
C6845 C 0.02375 0.7402 0.65654 0.0
C6846 C 0.02743 0.74118 0.65129 0.0
C6847 C 0.01736 0.74101 0.65627 0.0
C6848 C 0.00436 0.7409 0.64541 0.0
H6849 H 0.97652 0.73836 0.66083 0.0
H6850 H 0.98762 0.73987 0.66036 0.0
H6851 H 0.99551 0.73875 0.64157 0.0
H6852 H 0.02727 0.74391 0.64166 0.0
H6853 H 0.01608 0.74528 0.64119 0.0
H6854 H 0.00672 0.74792 0.65928 0.0
C6855 C 0.9849 0.74083 0.65628 0.0
C6856 C 0.9979 0.74087 0.64541 0.0
C6857 C 0.97853 0.73996 0.65654 0.0
C6858 C 0.02456 0.74305 0.64577 0.0
C6859 C 0.01816 0.74384 0.6455 0.0
C6860 C 0.00433 0.74592 0.65538 0.0
C6861 C 0.98777 0.74266 0.65076 0.0
C6862 C 0.99459 0.74325 0.65046 0.0
C6863 C 0.01448 0.7428 0.65075 0.0
C6864 C 0.00765 0.74332 0.65045 0.0
H6865 H 0.97496 0.74372 0.64169 0.0
H6866 H 0.98614 0.74518 0.64122 0.0
H6867 H 0.99548 0.74786 0.65929 0.0
H6868 H 0.02577 0.73863 0.66083 0.0
H6869 H 0.01467 0.74005 0.66037 0.0
C6870 C 0.25766 0.0238 0.65409 0.0
C6871 C 0.26079 0.02734 0.64965 0.0
C6872 C 0.25694 0.01744 0.65332 0.0
C6873 C 0.26435 0.00434 0.6455 0.0
H6874 H 0.24987 0.9954 0.65104 0.0
C6875 C 0.2632 0.9778 0.64431 0.0
C6876 C 0.26106 0.97485 0.64967 0.0
C6877 C 0.26244 0.98416 0.64354 0.0
C6878 C 0.25396 0.99783 0.6495 0.0
H6879 H 0.26545 0.02699 0.6408 0.0
H6880 H 0.2641 0.01591 0.63939 0.0
H6881 H 0.2498 0.00667 0.65103 0.0
H6882 H 0.25615 0.97622 0.65828 0.0
H6883 H 0.25492 0.98732 0.65699 0.0
H6884 H 0.26856 0.99553 0.6441 0.0
C6885 C 0.26227 0.01804 0.64352 0.0
C6886 C 0.25392 0.00428 0.64949 0.0
C6887 C 0.26298 0.02441 0.6443 0.0
C6888 C 0.25793 0.97837 0.65413 0.0
C6889 C 0.25716 0.98472 0.65336 0.0
C6890 C 0.26438 0.99789 0.64551 0.0
C6891 C 0.25935 0.01446 0.64808 0.0
C6892 C 0.25915 0.00762 0.64757 0.0
C6893 C 0.2595 0.98772 0.6481 0.0
C6894 C 0.25923 0.99456 0.64759 0.0
H6895 H 0.25585 0.02593 0.65824 0.0
H6896 H 0.25471 0.01482 0.65694 0.0
H6897 H 0.26849 0.00675 0.64409 0.0
H6898 H 0.26567 0.97524 0.6408 0.0
H6899 H 0.26423 0.98632 0.6394 0.0
C6900 C 0.9774 0.2634 0.64408 0.0
C6901 C 0.97447 0.2612 0.64943 0.0
C6902 C 0.98377 0.26268 0.6433 0.0
C6903 C 0.9975 0.25426 0.64922 0.0
H6904 H 0.00631 0.26887 0.64385 0.0
C6905 C 0.02344 0.25815 0.65383 0.0
C6906 C 0.02697 0.26127 0.64937 0.0
C6907 C 0.01708 0.25741 0.65307 0.0
C6908 C 0.00393 0.26471 0.64525 0.0
H6909 H 0.97588 0.25624 0.658 0.0
H6910 H 0.98699 0.25509 0.6567 0.0
H6911 H 0.99509 0.26885 0.64386 0.0
H6912 H 0.02659 0.26589 0.6405 0.0
H6913 H 0.0155 0.26451 0.63912 0.0
H6914 H 0.00637 0.25018 0.65075 0.0
C6915 C 0.98437 0.25733 0.65308 0.0
C6916 C 0.99749 0.2647 0.64525 0.0
C6917 C 0.97801 0.25806 0.65387 0.0
C6918 C 0.02402 0.26343 0.64401 0.0
C6919 C 0.01765 0.2627 0.64325 0.0
C6920 C 0.00396 0.25427 0.64922 0.0
C6921 C 0.98735 0.25974 0.64784 0.0
C6922 C 0.99419 0.25951 0.64732 0.0
C6923 C 0.01409 0.25978 0.64782 0.0
C6924 C 0.00725 0.25953 0.64732 0.0
H6925 H 0.97482 0.26587 0.64059 0.0
H6926 H 0.9859 0.26451 0.63917 0.0
H6927 H 0.9951 0.25015 0.65075 0.0
H6928 H 0.02559 0.25636 0.65797 0.0
H6929 H 0.01448 0.25518 0.6567 0.0
C6930 C 0.74647 0.02391 0.65338 0.0
C6931 C 0.7418 0.02679 0.64993 0.0
C6932 C 0.74727 0.01751 0.65312 0.0
C6933 C 0.74292 0.0034 0.64432 0.0
H6934 H 0.7451 0.99538 0.66016 0.0
C6935 C 0.74436 0.97677 0.64694 0.0
C6936 C 0.74095 0.97425 0.65185 0.0
C6937 C 0.74521 0.98316 0.64647 0.0
C6938 C 0.74448 0.99755 0.6557 0.0
H6939 H 0.73443 0.02524 0.64336 0.0
H6940 H 0.73578 0.01409 0.64293 0.0
H6941 H 0.74526 0.00658 0.65955 0.0
H6942 H 0.73566 0.9765 0.66005 0.0
H6943 H 0.73716 0.98757 0.65925 0.0
H6944 H 0.74188 0.99434 0.64052 0.0
C6945 C 0.7389 0.01677 0.64577 0.0
C6946 C 0.74465 0.00398 0.65533 0.0
C6947 C 0.73811 0.02317 0.64602 0.0
C6948 C 0.73843 0.97826 0.65628 0.0
C6949 C 0.73928 0.98462 0.65582 0.0
C6950 C 0.74274 0.99696 0.64468 0.0
C6951 C 0.74341 0.01385 0.64941 0.0
C6952 C 0.74378 0.007 0.64966 0.0
C6953 C 0.74268 0.98716 0.65091 0.0
C6954 C 0.74341 0.99396 0.6504 0.0
H6955 H 0.74946 0.02659 0.65636 0.0
H6956 H 0.75087 0.01543 0.65589 0.0
H6957 H 0.7423 0.00558 0.63986 0.0
H6958 H 0.74641 0.97381 0.64348 0.0
H6959 H 0.7479 0.98497 0.64266 0.0
C6960 C 0.34675 0.97813 0.25842 0.0
C6961 C 0.35125 0.9746 0.26149 0.0
C6962 C 0.34751 0.98449 0.25768 0.0
C6963 C 0.35541 0.99763 0.26491 0.0
H6964 H 0.34975 0.00647 0.25042 0.0
C6965 C 0.35661 0.02415 0.26359 0.0
C6966 C 0.35124 0.0271 0.26146 0.0
C6967 C 0.35738 0.01779 0.26286 0.0
C6968 C 0.35133 0.00407 0.25451 0.0
H6969 H 0.36016 0.97497 0.26602 0.0
H6970 H 0.36153 0.98605 0.26464 0.0
H6971 H 0.34974 0.9952 0.25044 0.0
H6972 H 0.34261 0.0257 0.25659 0.0
H6973 H 0.34388 0.0146 0.25543 0.0
H6974 H 0.35686 0.00646 0.26904 0.0
C6975 C 0.35738 0.98391 0.26287 0.0
C6976 C 0.35132 0.99761 0.25452 0.0
C6977 C 0.35663 0.97754 0.2636 0.0
C6978 C 0.34676 0.02356 0.25836 0.0
C6979 C 0.34753 0.0172 0.25763 0.0
C6980 C 0.35542 0.00407 0.2649 0.0
C6981 C 0.35278 0.98747 0.26 0.0
C6982 C 0.35328 0.99432 0.25975 0.0
C6983 C 0.35279 0.01422 0.25997 0.0
C6984 C 0.35329 0.00737 0.25974 0.0
H6985 H 0.34259 0.97598 0.25667 0.0
H6986 H 0.34385 0.98709 0.25549 0.0
H6987 H 0.35686 0.99524 0.26905 0.0
H6988 H 0.36013 0.02673 0.26603 0.0
H6989 H 0.36152 0.01564 0.26465 0.0
C6990 C 0.97781 0.35563 0.26299 0.0
C6991 C 0.9744 0.35105 0.25991 0.0
C6992 C 0.98419 0.35607 0.26216 0.0
C6993 C 0.99748 0.34645 0.25782 0.0
H6994 H 0.00632 0.36201 0.25778 0.0
C6995 C 0.02395 0.34715 0.25608 0.0
C6996 C 0.02698 0.35113 0.26022 0.0
C6997 C 0.01758 0.34759 0.25518 0.0
C6998 C 0.00392 0.35763 0.25782 0.0
H6999 H 0.97497 0.34358 0.25328 0.0
H7000 H 0.9861 0.34438 0.25181 0.0
H7001 H 0.99505 0.36199 0.25771 0.0
H7002 H 0.02569 0.35878 0.26653 0.0
H7003 H 0.01458 0.35953 0.26497 0.0
H7004 H 0.00631 0.34208 0.25806 0.0
C7005 C 0.98386 0.34755 0.25496 0.0
C7006 C 0.99746 0.35762 0.25778 0.0
C7007 C 0.97748 0.34709 0.2558 0.0
C7008 C 0.02352 0.3557 0.26326 0.0
C7009 C 0.01714 0.35612 0.26236 0.0
C7010 C 0.00393 0.34646 0.25786 0.0
C7011 C 0.98731 0.35196 0.25823 0.0
C7012 C 0.99417 0.35203 0.25784 0.0
C7013 C 0.01408 0.352 0.2584 0.0
C7014 C 0.00723 0.35204 0.25792 0.0
H7015 H 0.97559 0.3587 0.26624 0.0
H7016 H 0.98671 0.35948 0.26481 0.0
H7017 H 0.9951 0.34206 0.25799 0.0
H7018 H 0.0265 0.34365 0.25359 0.0
H7019 H 0.01539 0.34442 0.252 0.0
C7020 C 0.64662 0.97726 0.25834 0.0
C7021 C 0.65211 0.97441 0.26031 0.0
C7022 C 0.64634 0.98366 0.25755 0.0
C7023 C 0.65619 0.99753 0.25568 0.0
H7024 H 0.64222 0.00629 0.2626 0.0
C7025 C 0.65716 0.02333 0.26164 0.0
C7026 C 0.65192 0.02701 0.26058 0.0
C7027 C 0.65693 0.01696 0.26078 0.0
C7028 C 0.64611 0.00392 0.26055 0.0
H7029 H 0.66159 0.97611 0.26306 0.0
H7030 H 0.66111 0.98722 0.26166 0.0
H7031 H 0.64226 0.99503 0.26254 0.0
H7032 H 0.64236 0.02685 0.25765 0.0
H7033 H 0.64194 0.01567 0.25619 0.0
H7034 H 0.6601 0.0064 0.25381 0.0
C7035 C 0.65705 0.9845 0.26061 0.0
C7036 C 0.64613 0.99746 0.26051 0.0
C7037 C 0.65733 0.97812 0.26141 0.0
C7038 C 0.64645 0.02415 0.25858 0.0
C7039 C 0.64622 0.01775 0.25774 0.0
C7040 C 0.65617 0.00397 0.25572 0.0
C7041 C 0.65155 0.98736 0.25871 0.0
C7042 C 0.65123 0.99419 0.25819 0.0
C7043 C 0.65145 0.01408 0.25886 0.0
C7044 C 0.65118 0.00724 0.25826 0.0
H7045 H 0.64255 0.97453 0.25738 0.0
H7046 H 0.64205 0.98572 0.25603 0.0
H7047 H 0.66014 0.99515 0.25375 0.0
H7048 H 0.66142 0.02535 0.26331 0.0
H7049 H 0.66101 0.01426 0.2618 0.0
C7050 C 0.97821 0.6539 0.25744 0.0
C7051 C 0.97469 0.64948 0.26063 0.0
C7052 C 0.98456 0.6531 0.25665 0.0
C7053 C 0.99773 0.64531 0.26392 0.0
H7054 H 0.00648 0.65068 0.24927 0.0
C7055 C 0.02425 0.64416 0.26253 0.0
C7056 C 0.02716 0.6495 0.26028 0.0
C7057 C 0.01788 0.64335 0.26182 0.0
C7058 C 0.00411 0.64919 0.2534 0.0
H7059 H 0.97508 0.64065 0.26531 0.0
H7060 H 0.98615 0.6392 0.26384 0.0
H7061 H 0.99522 0.65069 0.24935 0.0
H7062 H 0.02573 0.65801 0.25523 0.0
H7063 H 0.01463 0.65666 0.25409 0.0
H7064 H 0.00659 0.64395 0.26803 0.0
C7065 C 0.984 0.64333 0.26202 0.0
C7066 C 0.99765 0.64919 0.25345 0.0
C7067 C 0.97764 0.64412 0.2628 0.0
C7068 C 0.02361 0.65389 0.25709 0.0
C7069 C 0.01725 0.65308 0.25637 0.0
C7070 C 0.00418 0.64531 0.26387 0.0
C7071 C 0.98755 0.64786 0.25903 0.0
C7072 C 0.99439 0.64734 0.25874 0.0
C7073 C 0.01429 0.64786 0.25884 0.0
C7074 C 0.00745 0.64733 0.25864 0.0
H7075 H 0.97607 0.65804 0.25564 0.0
H7076 H 0.98716 0.65671 0.25436 0.0
H7077 H 0.99537 0.64395 0.26811 0.0
H7078 H 0.02684 0.64071 0.26505 0.0
H7079 H 0.01576 0.63924 0.2637 0.0
C7080 C 0.34466 0.97798 0.73934 0.0
C7081 C 0.34988 0.97428 0.7404 0.0
C7082 C 0.34492 0.98436 0.7402 0.0
C7083 C 0.35581 0.99735 0.74041 0.0
H7084 H 0.34183 0.00618 0.74725 0.0
C7085 C 0.35544 0.02401 0.7427 0.0
C7086 C 0.34997 0.02689 0.74073 0.0
C7087 C 0.35569 0.0176 0.74346 0.0
C7088 C 0.34576 0.00378 0.7453 0.0
H7089 H 0.35945 0.9744 0.74331 0.0
H7090 H 0.35993 0.98557 0.74476 0.0
H7091 H 0.34181 0.99493 0.74717 0.0
H7092 H 0.34048 0.02525 0.73798 0.0
H7093 H 0.3409 0.01414 0.73935 0.0
H7094 H 0.3597 0.00622 0.73843 0.0
C7095 C 0.35564 0.98352 0.74322 0.0
C7096 C 0.34575 0.99734 0.74526 0.0
C7097 C 0.35537 0.97712 0.74238 0.0
C7098 C 0.34473 0.02322 0.73963 0.0
C7099 C 0.34498 0.01683 0.74041 0.0
C7100 C 0.35582 0.00381 0.74046 0.0
C7101 C 0.35042 0.98722 0.74211 0.0
C7102 C 0.35072 0.99404 0.7427 0.0
C7103 C 0.35046 0.01393 0.74229 0.0
C7104 C 0.35074 0.0071 0.74279 0.0
H7105 H 0.34039 0.97598 0.73768 0.0
H7106 H 0.34086 0.98708 0.73918 0.0
H7107 H 0.35969 0.99496 0.73836 0.0
H7108 H 0.35954 0.0267 0.74366 0.0
H7109 H 0.35997 0.01551 0.74497 0.0
C7110 C 0.02435 0.34668 0.74548 0.0
C7111 C 0.02738 0.35069 0.74138 0.0
C7112 C 0.01798 0.34712 0.74639 0.0
C7113 C 0.00434 0.35723 0.74385 0.0
H7114 H 0.99548 0.3417 0.74356 0.0
C7115 C 0.97822 0.35535 0.73868 0.0
C7116 C 0.9748 0.35076 0.74173 0.0
C7117 C 0.98461 0.35577 0.7395 0.0
C7118 C 0.99787 0.34608 0.74376 0.0
H7119 H 0.02611 0.35841 0.73514 0.0
H7120 H 0.015 0.35917 0.73671 0.0
H7121 H 0.00669 0.34168 0.74348 0.0
H7122 H 0.97535 0.34324 0.74831 0.0
H7123 H 0.98649 0.344 0.74977 0.0
H7124 H 0.99548 0.36162 0.744 0.0
C7125 C 0.01756 0.35573 0.73929 0.0
C7126 C 0.00431 0.34607 0.74371 0.0
C7127 C 0.02393 0.3553 0.73839 0.0
C7128 C 0.97787 0.34676 0.74581 0.0
C7129 C 0.98425 0.34719 0.74664 0.0
C7130 C 0.99788 0.35724 0.74389 0.0
C7131 C 0.01448 0.35157 0.74321 0.0
C7132 C 0.00763 0.35164 0.7437 0.0
C7133 C 0.98772 0.35162 0.7434 0.0
C7134 C 0.99457 0.35166 0.74379 0.0
H7135 H 0.02689 0.34315 0.74793 0.0
H7136 H 0.01578 0.34393 0.74954 0.0
H7137 H 0.00676 0.3616 0.74392 0.0
H7138 H 0.97601 0.35845 0.73545 0.0
H7139 H 0.98714 0.35919 0.73688 0.0
C7140 C 0.65646 0.02326 0.74037 0.0
C7141 C 0.65118 0.02693 0.74121 0.0
C7142 C 0.65619 0.01687 0.74118 0.0
C7143 C 0.64535 0.00385 0.74081 0.0
H7144 H 0.65908 0.99499 0.7481 0.0
C7145 C 0.64572 0.97717 0.74278 0.0
C7146 C 0.65127 0.97433 0.741 0.0
C7147 C 0.64542 0.98357 0.74362 0.0
C7148 C 0.65522 0.99739 0.74603 0.0
H7149 H 0.64149 0.02674 0.74371 0.0
H7150 H 0.64101 0.01556 0.74508 0.0
H7151 H 0.65906 0.00623 0.74816 0.0
H7152 H 0.66086 0.97602 0.73866 0.0
H7153 H 0.66035 0.98712 0.74015 0.0
H7154 H 0.64158 0.99499 0.73857 0.0
C7155 C 0.64535 0.01764 0.74374 0.0
C7156 C 0.65521 0.00383 0.74606 0.0
C7157 C 0.64563 0.02405 0.74295 0.0
C7158 C 0.65654 0.97803 0.74016 0.0
C7159 C 0.65624 0.9844 0.74101 0.0
C7160 C 0.64536 0.99739 0.74078 0.0
C7161 C 0.65063 0.01398 0.74283 0.0
C7162 C 0.65033 0.00714 0.74334 0.0
C7163 C 0.65068 0.98726 0.74271 0.0
C7164 C 0.65036 0.99409 0.74328 0.0
H7165 H 0.66078 0.02529 0.7389 0.0
H7166 H 0.66031 0.01418 0.74032 0.0
H7167 H 0.64156 0.00625 0.73862 0.0
H7168 H 0.64159 0.97445 0.74355 0.0
H7169 H 0.64108 0.98563 0.74499 0.0
C7170 C 0.02359 0.65716 0.73971 0.0
C7171 C 0.02728 0.65193 0.74082 0.0
C7172 C 0.01721 0.65692 0.74054 0.0
C7173 C 0.00419 0.64607 0.74078 0.0
H7174 H 0.99536 0.66013 0.74744 0.0
C7175 C 0.97752 0.64655 0.74287 0.0
C7176 C 0.97467 0.65202 0.74084 0.0
C7177 C 0.98392 0.64629 0.74368 0.0
C7178 C 0.99776 0.65618 0.74555 0.0
H7179 H 0.02712 0.64238 0.74381 0.0
H7180 H 0.01593 0.64196 0.74522 0.0
H7181 H 0.00661 0.66011 0.74744 0.0
H7182 H 0.97637 0.66148 0.73803 0.0
H7183 H 0.98747 0.66103 0.73948 0.0
H7184 H 0.99532 0.64219 0.73877 0.0
C7185 C 0.018 0.64623 0.74366 0.0
C7186 C 0.0042 0.65617 0.74555 0.0
C7187 C 0.02441 0.64647 0.74284 0.0
C7188 C 0.97837 0.65723 0.73972 0.0
C7189 C 0.98475 0.65697 0.74055 0.0
C7190 C 0.99773 0.64608 0.74078 0.0
C7191 C 0.01433 0.65144 0.74249 0.0
C7192 C 0.0075 0.65117 0.74305 0.0
C7193 C 0.98761 0.65149 0.7425 0.0
C7194 C 0.99445 0.65119 0.74306 0.0
H7195 H 0.02561 0.6614 0.73802 0.0
H7196 H 0.01451 0.66098 0.73948 0.0
H7197 H 0.00658 0.64217 0.73877 0.0
H7198 H 0.9748 0.64248 0.74384 0.0
H7199 H 0.98598 0.64201 0.74525 0.0
C7200 C 0.25579 0.34795 0.97743 0.0
C7201 C 0.26038 0.35145 0.97448 0.0
C7202 C 0.25506 0.34822 0.98383 0.0
C7203 C 0.25947 0.35711 0.99787 0.0
H7204 H 0.25752 0.34128 0.00596 0.0
C7205 C 0.25814 0.35455 0.02452 0.0
C7206 C 0.26159 0.34966 0.02705 0.0
C7207 C 0.25729 0.355 0.01813 0.0
C7208 C 0.25807 0.34574 0.00378 0.0
H7209 H 0.2677 0.35811 0.97593 0.0
H7210 H 0.26648 0.35854 0.98709 0.0
H7211 H 0.25727 0.34184 0.99476 0.0
H7212 H 0.26697 0.34152 0.02481 0.0
H7213 H 0.26548 0.3423 0.01374 0.0
H7214 H 0.26053 0.36095 0.00691 0.0
C7215 C 0.26336 0.35566 0.98446 0.0
C7216 C 0.25785 0.34607 0.99735 0.0
C7217 C 0.26407 0.3554 0.97805 0.0
C7218 C 0.26417 0.34526 0.02305 0.0
C7219 C 0.26331 0.34571 0.01668 0.0
C7220 C 0.25969 0.35677 0.00431 0.0
C7221 C 0.25893 0.35198 0.98744 0.0
C7222 C 0.25864 0.35175 0.9943 0.0
C7223 C 0.25987 0.35058 0.01414 0.0
C7224 C 0.25911 0.35106 0.00733 0.0
H7225 H 0.2528 0.34493 0.97479 0.0
H7226 H 0.25152 0.34541 0.98597 0.0
H7227 H 0.26002 0.36156 0.99568 0.0
H7228 H 0.25605 0.35799 0.02748 0.0
H7229 H 0.25457 0.35878 0.01632 0.0
C7230 C 0.25627 0.65342 0.02381 0.0
C7231 C 0.26091 0.64995 0.02674 0.0
C7232 C 0.25551 0.65315 0.01741 0.0
C7233 C 0.25991 0.6443 0.00335 0.0
H7234 H 0.25779 0.66012 0.99528 0.0
C7235 C 0.25843 0.64686 0.97671 0.0
C7236 C 0.26183 0.65177 0.97416 0.0
C7237 C 0.25761 0.6464 0.9831 0.0
C7238 C 0.2584 0.65566 0.99746 0.0
H7239 H 0.26828 0.64336 0.02524 0.0
H7240 H 0.267 0.64292 0.01409 0.0
H7241 H 0.25761 0.65955 0.00648 0.0
H7242 H 0.26716 0.65995 0.97638 0.0
H7243 H 0.26572 0.65916 0.98746 0.0
H7244 H 0.26095 0.64047 0.9943 0.0
C7245 C 0.26387 0.64577 0.01674 0.0
C7246 C 0.25821 0.65532 0.00389 0.0
C7247 C 0.26461 0.64603 0.02314 0.0
C7248 C 0.26439 0.65619 0.97816 0.0
C7249 C 0.26357 0.65574 0.98452 0.0
C7250 C 0.2601 0.64465 0.99691 0.0
C7251 C 0.25939 0.64942 0.01378 0.0
C7252 C 0.25906 0.64965 0.00692 0.0
C7253 C 0.26017 0.65084 0.98708 0.0
C7254 C 0.25945 0.65035 0.99389 0.0
H7255 H 0.25328 0.65641 0.02647 0.0
H7256 H 0.25194 0.65592 0.0153 0.0
H7257 H 0.26051 0.63985 0.00554 0.0
H7258 H 0.25636 0.6434 0.97376 0.0
H7259 H 0.25493 0.6426 0.98492 0.0
C7260 C 0.35734 0.26337 0.02377 0.0
C7261 C 0.35201 0.26113 0.02673 0.0
C7262 C 0.35811 0.26262 0.01741 0.0
C7263 C 0.35228 0.25404 0.00374 0.0
H7264 H 0.35738 0.26869 0.99483 0.0
C7265 C 0.34755 0.25768 0.97779 0.0
C7266 C 0.35191 0.26092 0.97424 0.0
C7267 C 0.34836 0.25697 0.98415 0.0
C7268 C 0.35606 0.26452 0.99724 0.0
H7269 H 0.34349 0.25607 0.02537 0.0
H7270 H 0.34478 0.25486 0.01427 0.0
H7271 H 0.35739 0.26874 0.00605 0.0
H7272 H 0.36066 0.26577 0.97458 0.0
H7273 H 0.36213 0.26443 0.98566 0.0
H7274 H 0.35081 0.24987 0.99491 0.0
C7275 C 0.34838 0.25716 0.01686 0.0
C7276 C 0.35606 0.26455 0.00369 0.0
C7277 C 0.3476 0.25792 0.02322 0.0
C7278 C 0.35723 0.26322 0.97717 0.0
C7279 C 0.35804 0.26251 0.98353 0.0
C7280 C 0.35227 0.25401 0.99729 0.0
C7281 C 0.35359 0.25961 0.01386 0.0
C7282 C 0.35409 0.25934 0.00702 0.0
C7283 C 0.35355 0.25948 0.98712 0.0
C7284 C 0.35408 0.25928 0.99396 0.0
H7285 H 0.3608 0.2659 0.02632 0.0
H7286 H 0.36221 0.26449 0.01525 0.0
H7287 H 0.35081 0.24993 0.00617 0.0
H7288 H 0.34344 0.25579 0.97567 0.0
H7289 H 0.34479 0.25466 0.98677 0.0
C7290 C 0.73798 0.35543 0.02362 0.0
C7291 C 0.74169 0.35155 0.02725 0.0
C7292 C 0.73877 0.35569 0.01723 0.0
C7293 C 0.74464 0.34619 0.00443 0.0
H7294 H 0.74176 0.36099 0.99481 0.0
C7295 C 0.73854 0.34522 0.97868 0.0
C7296 C 0.74102 0.34969 0.97469 0.0
C7297 C 0.73937 0.34568 0.98505 0.0
C7298 C 0.74265 0.35683 0.99742 0.0
H7299 H 0.74939 0.34516 0.02706 0.0
H7300 H 0.75081 0.34565 0.0159 0.0
H7301 H 0.74214 0.36163 0.00605 0.0
H7302 H 0.74638 0.35813 0.97429 0.0
H7303 H 0.74781 0.35894 0.98545 0.0
H7304 H 0.74516 0.34138 0.99583 0.0
C7305 C 0.7472 0.3484 0.01798 0.0
C7306 C 0.7428 0.35719 0.00387 0.0
C7307 C 0.74639 0.34812 0.02437 0.0
C7308 C 0.74436 0.35464 0.97724 0.0
C7309 C 0.74518 0.35511 0.98363 0.0
C7310 C 0.74449 0.34584 0.998 0.0
C7311 C 0.74331 0.35208 0.01431 0.0
C7312 C 0.7437 0.35185 0.00745 0.0
C7313 C 0.74269 0.35062 0.98761 0.0
C7314 C 0.74339 0.35113 0.99442 0.0
H7315 H 0.73427 0.35807 0.02569 0.0
H7316 H 0.73564 0.35851 0.01455 0.0
H7317 H 0.74528 0.34197 0.00703 0.0
H7318 H 0.73583 0.34142 0.9769 0.0
H7319 H 0.73727 0.34222 0.98798 0.0
C7320 C 0.64601 0.7428 0.97745 0.0
C7321 C 0.65151 0.74093 0.97456 0.0
C7322 C 0.64575 0.74356 0.98386 0.0
C7323 C 0.65567 0.74557 0.99767 0.0
H7324 H 0.64185 0.73843 0.00651 0.0
C7325 C 0.65688 0.73964 0.02347 0.0
C7326 C 0.65165 0.74063 0.02718 0.0
C7327 C 0.65659 0.74048 0.01709 0.0
C7328 C 0.6457 0.74054 0.00411 0.0
H7329 H 0.66104 0.73834 0.97619 0.0
H7330 H 0.66061 0.73969 0.98731 0.0
H7331 H 0.64182 0.7385 0.99525 0.0
H7332 H 0.64204 0.74343 0.02706 0.0
H7333 H 0.64154 0.74486 0.01589 0.0
H7334 H 0.6596 0.7475 0.00651 0.0
C7335 C 0.65651 0.74068 0.98462 0.0
C7336 C 0.64568 0.74058 0.99766 0.0
C7337 C 0.65676 0.73991 0.97823 0.0
C7338 C 0.64614 0.74255 0.02434 0.0
C7339 C 0.64585 0.74338 0.01794 0.0
C7340 C 0.65569 0.74553 0.00411 0.0
C7341 C 0.651 0.74248 0.98752 0.0
C7342 C 0.65072 0.74298 0.99436 0.0
C7343 C 0.65107 0.74232 0.01424 0.0
C7344 C 0.65076 0.74291 0.00741 0.0
H7345 H 0.64189 0.7437 0.97476 0.0
H7346 H 0.64145 0.74501 0.98595 0.0
H7347 H 0.65957 0.74756 0.99526 0.0
H7348 H 0.66117 0.73803 0.02546 0.0
H7349 H 0.66067 0.73951 0.01437 0.0
C7350 C 0.74564 0.65384 0.97775 0.0
C7351 C 0.74102 0.65034 0.97484 0.0
C7352 C 0.74643 0.65354 0.98414 0.0
C7353 C 0.74215 0.6446 0.9982 0.0
H7354 H 0.74418 0.66041 0.00631 0.0
C7355 C 0.74356 0.64709 0.02485 0.0
C7356 C 0.74014 0.65198 0.0274 0.0
C7357 C 0.74439 0.64665 0.01846 0.0
C7358 C 0.7436 0.65596 0.00412 0.0
H7359 H 0.73372 0.64367 0.97634 0.0
H7360 H 0.73506 0.64319 0.98748 0.0
H7361 H 0.74436 0.65988 0.99511 0.0
H7362 H 0.7348 0.66016 0.0252 0.0
H7363 H 0.73626 0.6594 0.01412 0.0
H7364 H 0.74113 0.64074 0.00724 0.0
C7365 C 0.73815 0.64609 0.98483 0.0
C7366 C 0.74378 0.65564 0.99769 0.0
C7367 C 0.73737 0.64637 0.97843 0.0
C7368 C 0.73758 0.65641 0.02341 0.0
C7369 C 0.73841 0.65597 0.01705 0.0
C7370 C 0.74196 0.64493 0.00464 0.0
C7371 C 0.74261 0.64977 0.98778 0.0
C7372 C 0.74297 0.64997 0.99464 0.0
C7373 C 0.74183 0.65109 0.01448 0.0
C7374 C 0.74257 0.65063 0.00768 0.0
H7375 H 0.74859 0.65687 0.97509 0.0
H7376 H 0.74999 0.65635 0.98625 0.0
H7377 H 0.74158 0.64016 0.996 0.0
H7378 H 0.74564 0.64363 0.0278 0.0
H7379 H 0.7471 0.64286 0.01663 0.0
C7380 C 0.34756 0.74345 0.9781 0.0
C7381 C 0.35202 0.7403 0.97459 0.0
C7382 C 0.34832 0.74422 0.98445 0.0
C7383 C 0.3561 0.73694 0.99764 0.0
H7384 H 0.35061 0.75153 0.00641 0.0
C7385 C 0.35723 0.73831 0.02416 0.0
C7386 C 0.35187 0.74051 0.02708 0.0
C7387 C 0.35803 0.73902 0.0178 0.0
C7388 C 0.35214 0.74741 0.00403 0.0
H7389 H 0.36086 0.73564 0.975 0.0
H7390 H 0.36224 0.73707 0.98608 0.0
H7391 H 0.35063 0.75147 0.99515 0.0
H7392 H 0.34331 0.74549 0.02564 0.0
H7393 H 0.34464 0.74663 0.01454 0.0
H7394 H 0.35747 0.73281 0.00649 0.0
C7395 C 0.35812 0.73889 0.98392 0.0
C7396 C 0.35215 0.74738 0.99758 0.0
C7397 C 0.35736 0.73813 0.97755 0.0
C7398 C 0.34745 0.74366 0.02352 0.0
C7399 C 0.34825 0.74438 0.01717 0.0
C7400 C 0.35608 0.73697 0.00408 0.0
C7401 C 0.35356 0.74184 0.98746 0.0
C7402 C 0.35405 0.74211 0.9943 0.0
C7403 C 0.35349 0.74196 0.0142 0.0
C7404 C 0.35402 0.74217 0.00736 0.0
H7405 H 0.34343 0.74525 0.97594 0.0
H7406 H 0.34469 0.74647 0.98704 0.0
H7407 H 0.35749 0.73276 0.99527 0.0
H7408 H 0.3607 0.73582 0.02675 0.0
H7409 H 0.36216 0.73717 0.01567 0.0
C7410 C 0.64407 0.26244 0.97755 0.0
C7411 C 0.64936 0.26016 0.97458 0.0
C7412 C 0.64331 0.26171 0.98392 0.0
C7413 C 0.64918 0.25319 0.99762 0.0
H7414 H 0.64417 0.26792 0.00644 0.0
C7415 C 0.65411 0.25707 0.0235 0.0
C7416 C 0.64976 0.26031 0.02705 0.0
C7417 C 0.65326 0.25631 0.01715 0.0
C7418 C 0.64547 0.26372 0.00406 0.0
H7419 H 0.65784 0.25502 0.97593 0.0
H7420 H 0.65658 0.25386 0.98703 0.0
H7421 H 0.64408 0.26788 0.99522 0.0
H7422 H 0.64098 0.26511 0.02674 0.0
H7423 H 0.63945 0.26369 0.01568 0.0
H7424 H 0.65071 0.24909 0.00648 0.0
C7425 C 0.65299 0.25618 0.98445 0.0
C7426 C 0.64542 0.2637 0.99761 0.0
C7427 C 0.65375 0.25691 0.97809 0.0
C7428 C 0.64441 0.26256 0.02415 0.0
C7429 C 0.64356 0.26181 0.0178 0.0
C7430 C 0.64923 0.25321 0.00407 0.0
C7431 C 0.64782 0.25868 0.98746 0.0
C7432 C 0.64736 0.25847 0.99431 0.0
C7433 C 0.64803 0.25877 0.0142 0.0
C7434 C 0.64746 0.25851 0.00737 0.0
H7435 H 0.64062 0.265 0.975 0.0
H7436 H 0.63923 0.26362 0.98609 0.0
H7437 H 0.65061 0.24905 0.99521 0.0
H7438 H 0.65824 0.25521 0.02561 0.0
H7439 H 0.65682 0.25399 0.01453 0.0
C7440 C 0.52382 0.75604 0.8472 0.0
C7441 C 0.52692 0.76014 0.85115 0.0
C7442 C 0.51745 0.75521 0.84767 0.0
C7443 C 0.50387 0.75801 0.85777 0.0
H7444 H 0.49498 0.75833 0.84225 0.0
C7445 C 0.4778 0.76344 0.85595 0.0
C7446 C 0.47434 0.76041 0.85137 0.0
C7447 C 0.48418 0.76256 0.85635 0.0
C7448 C 0.49738 0.75812 0.84663 0.0
H7449 H 0.52575 0.76647 0.85881 0.0
H7450 H 0.51463 0.76504 0.85962 0.0
H7451 H 0.50619 0.75826 0.84221 0.0
H7452 H 0.4748 0.75383 0.84386 0.0
H7453 H 0.48592 0.75226 0.84459 0.0
H7454 H 0.49502 0.75799 0.86218 0.0
C7455 C 0.51714 0.7624 0.8562 0.0
C7456 C 0.50382 0.75808 0.84661 0.0
C7457 C 0.52352 0.76322 0.85574 0.0
C7458 C 0.47736 0.7563 0.84737 0.0
C7459 C 0.48373 0.75541 0.84778 0.0
C7460 C 0.49741 0.75804 0.8578 0.0
C7461 C 0.51401 0.75848 0.85209 0.0
C7462 C 0.50715 0.75809 0.85217 0.0
C7463 C 0.48724 0.75862 0.85219 0.0
C7464 C 0.49409 0.75816 0.85222 0.0
H7465 H 0.52633 0.75351 0.84368 0.0
H7466 H 0.5152 0.75206 0.84451 0.0
H7467 H 0.5063 0.75793 0.86214 0.0
H7468 H 0.47562 0.76669 0.85906 0.0
H7469 H 0.48674 0.76516 0.85976 0.0
C7470 C 0.23854 0.52419 0.85718 0.0
C7471 C 0.24072 0.52715 0.85184 0.0
C7472 C 0.23927 0.51782 0.85794 0.0
C7473 C 0.24765 0.50411 0.85192 0.0
H7474 H 0.23305 0.49529 0.8573 0.0
C7475 C 0.24371 0.47819 0.84722 0.0
C7476 C 0.2406 0.47465 0.85168 0.0
C7477 C 0.24447 0.48454 0.84801 0.0
C7478 C 0.23721 0.49767 0.8559 0.0
H7479 H 0.24565 0.52577 0.84324 0.0
H7480 H 0.24681 0.51467 0.8445 0.0
H7481 H 0.23308 0.50651 0.85734 0.0
H7482 H 0.236 0.47501 0.86056 0.0
H7483 H 0.23741 0.48608 0.86198 0.0
H7484 H 0.25172 0.49524 0.85033 0.0
C7485 C 0.24458 0.51726 0.84813 0.0
C7486 C 0.23723 0.50412 0.85592 0.0
C7487 C 0.24385 0.52363 0.84738 0.0
C7488 C 0.23846 0.47759 0.85706 0.0
C7489 C 0.2392 0.48395 0.85784 0.0
C7490 C 0.24763 0.49765 0.85189 0.0
C7491 C 0.24219 0.51426 0.85337 0.0
C7492 C 0.24241 0.50742 0.85385 0.0
C7493 C 0.24212 0.48752 0.85327 0.0
C7494 C 0.24237 0.49436 0.8538 0.0
H7495 H 0.23607 0.52675 0.86069 0.0
H7496 H 0.23745 0.51567 0.86206 0.0
H7497 H 0.25175 0.50651 0.85038 0.0
H7498 H 0.24549 0.47606 0.84307 0.0
H7499 H 0.24669 0.48715 0.84438 0.0
C7500 C 0.47782 0.24373 0.8482 0.0
C7501 C 0.47429 0.24039 0.8525 0.0
C7502 C 0.48417 0.2445 0.84905 0.0
C7503 C 0.49732 0.23698 0.85664 0.0
H7504 H 0.50607 0.2518 0.85177 0.0
C7505 C 0.52383 0.23839 0.85796 0.0
C7506 C 0.52676 0.2408 0.8527 0.0
C7507 C 0.51746 0.23906 0.85876 0.0
C7508 C 0.5037 0.24762 0.85313 0.0
H7509 H 0.47465 0.2354 0.86116 0.0
H7510 H 0.48571 0.23683 0.86269 0.0
H7511 H 0.49481 0.25171 0.85172 0.0
H7512 H 0.52535 0.24609 0.84433 0.0
H7513 H 0.51424 0.24716 0.84566 0.0
H7514 H 0.50618 0.23284 0.85791 0.0
C7515 C 0.48357 0.23879 0.85863 0.0
C7516 C 0.49724 0.24757 0.8531 0.0
C7517 C 0.47722 0.23803 0.85778 0.0
C7518 C 0.52322 0.24411 0.84839 0.0
C7519 C 0.51686 0.24478 0.84919 0.0
C7520 C 0.50377 0.23703 0.85667 0.0
C7521 C 0.48714 0.24194 0.85421 0.0
C7522 C 0.49398 0.24221 0.85477 0.0
C7523 C 0.51388 0.24216 0.85433 0.0
C7524 C 0.50704 0.24232 0.85483 0.0
H7525 H 0.47569 0.24568 0.84412 0.0
H7526 H 0.48677 0.2469 0.84553 0.0
H7527 H 0.49496 0.23275 0.85786 0.0
H7528 H 0.52641 0.23578 0.86135 0.0
H7529 H 0.51532 0.23705 0.86281 0.0
C7530 C 0.76317 0.5231 0.85563 0.0
C7531 C 0.75945 0.52674 0.85176 0.0
C7532 C 0.76235 0.51671 0.85589 0.0
C7533 C 0.75643 0.50394 0.84639 0.0
H7534 H 0.7594 0.49429 0.86116 0.0
C7535 C 0.76265 0.47823 0.84534 0.0
C7536 C 0.76022 0.47421 0.84981 0.0
C7537 C 0.76178 0.48459 0.84581 0.0
C7538 C 0.75848 0.49691 0.85701 0.0
H7539 H 0.75173 0.52658 0.84541 0.0
H7540 H 0.75026 0.51542 0.84591 0.0
H7541 H 0.75899 0.50552 0.86183 0.0
H7542 H 0.7549 0.47375 0.85827 0.0
H7543 H 0.75339 0.4849 0.85911 0.0
H7544 H 0.7559 0.49535 0.84157 0.0
C7545 C 0.7539 0.51749 0.84864 0.0
C7546 C 0.75831 0.50335 0.85738 0.0
C7547 C 0.75473 0.52388 0.84836 0.0
C7548 C 0.75688 0.47672 0.85478 0.0
C7549 C 0.75602 0.48311 0.85526 0.0
C7550 C 0.75659 0.49751 0.84602 0.0
C7551 C 0.75779 0.51381 0.8523 0.0
C7552 C 0.75739 0.50695 0.85206 0.0
C7553 C 0.75846 0.48711 0.85077 0.0
C7554 C 0.75773 0.49392 0.8513 0.0
H7555 H 0.76689 0.52515 0.85825 0.0
H7556 H 0.76549 0.51401 0.8587 0.0
H7557 H 0.75576 0.50655 0.84219 0.0
H7558 H 0.76536 0.47648 0.84152 0.0
H7559 H 0.76384 0.48754 0.84235 0.0
C7560 C 0.47733 0.24237 0.14573 0.0
C7561 C 0.47449 0.24045 0.15124 0.0
C7562 C 0.48373 0.24324 0.14546 0.0
C7563 C 0.49752 0.2455 0.15534 0.0
H7564 H 0.50645 0.23846 0.14153 0.0
C7565 C 0.52342 0.24001 0.15651 0.0
C7566 C 0.5271 0.24099 0.15126 0.0
C7567 C 0.51703 0.24077 0.15624 0.0
C7568 C 0.50403 0.24054 0.14537 0.0
H7569 H 0.47618 0.23789 0.16077 0.0
H7570 H 0.48727 0.23944 0.16031 0.0
H7571 H 0.49519 0.23834 0.14153 0.0
H7572 H 0.52692 0.2437 0.14163 0.0
H7573 H 0.51572 0.24499 0.14115 0.0
H7574 H 0.50634 0.24761 0.15924 0.0
C7575 C 0.48456 0.24038 0.15622 0.0
C7576 C 0.49757 0.24047 0.14537 0.0
C7577 C 0.47818 0.2395 0.15648 0.0
C7578 C 0.52422 0.24283 0.14574 0.0
C7579 C 0.5178 0.24357 0.14547 0.0
C7580 C 0.50396 0.24558 0.15534 0.0
C7581 C 0.48742 0.24222 0.1507 0.0
C7582 C 0.49424 0.24284 0.15041 0.0
C7583 C 0.51413 0.24252 0.15071 0.0
C7584 C 0.50729 0.24299 0.15041 0.0
H7585 H 0.47462 0.24322 0.14162 0.0
H7586 H 0.48579 0.24472 0.14116 0.0
H7587 H 0.49509 0.24748 0.15923 0.0
H7588 H 0.52545 0.23846 0.16081 0.0
H7589 H 0.51433 0.2398 0.16034 0.0
C7590 C 0.75818 0.52357 0.15413 0.0
C7591 C 0.76134 0.5271 0.1497 0.0
C7592 C 0.75745 0.51721 0.15336 0.0
C7593 C 0.76484 0.50407 0.14559 0.0
H7594 H 0.75032 0.4952 0.15111 0.0
C7595 C 0.76359 0.47754 0.14446 0.0
C7596 C 0.76143 0.47461 0.14984 0.0
C7597 C 0.76285 0.4839 0.14367 0.0
C7598 C 0.75441 0.49761 0.14957 0.0
H7599 H 0.76604 0.52672 0.14087 0.0
H7600 H 0.76467 0.51564 0.13947 0.0
H7601 H 0.75029 0.50647 0.15106 0.0
H7602 H 0.75653 0.47603 0.15844 0.0
H7603 H 0.75534 0.48713 0.15711 0.0
H7604 H 0.76902 0.49524 0.14422 0.0
C7605 C 0.76282 0.51778 0.14358 0.0
C7606 C 0.7544 0.50407 0.14954 0.0
C7607 C 0.76355 0.52415 0.14435 0.0
C7608 C 0.75831 0.47816 0.15428 0.0
C7609 C 0.75757 0.48451 0.15349 0.0
C7610 C 0.76485 0.49763 0.14561 0.0
C7611 C 0.75987 0.51422 0.14813 0.0
C7612 C 0.75964 0.50737 0.14764 0.0
C7613 C 0.75993 0.48748 0.14822 0.0
C7614 C 0.75968 0.49432 0.14769 0.0
H7615 H 0.75635 0.52571 0.15826 0.0
H7616 H 0.7552 0.51461 0.15698 0.0
H7617 H 0.769 0.50646 0.14418 0.0
H7618 H 0.76605 0.47495 0.14096 0.0
H7619 H 0.76466 0.48603 0.13953 0.0
C7620 C 0.52313 0.76307 0.1452 0.0
C7621 C 0.52656 0.75994 0.14972 0.0
C7622 C 0.51674 0.76222 0.14475 0.0
C7623 C 0.5035 0.75768 0.15435 0.0
H7624 H 0.49461 0.75785 0.13883 0.0
C7625 C 0.47704 0.75589 0.15373 0.0
C7626 C 0.47399 0.76009 0.14983 0.0
C7627 C 0.48341 0.755 0.15325 0.0
C7628 C 0.49703 0.75783 0.1432 0.0
H7629 H 0.52605 0.75319 0.15708 0.0
H7630 H 0.51492 0.75169 0.15629 0.0
H7631 H 0.50589 0.75782 0.1388 0.0
H7632 H 0.47524 0.76652 0.14227 0.0
H7633 H 0.48635 0.76498 0.14145 0.0
H7634 H 0.49469 0.75782 0.15876 0.0
C7635 C 0.51714 0.7549 0.15317 0.0
C7636 C 0.50349 0.75781 0.14319 0.0
C7637 C 0.52351 0.75576 0.15362 0.0
C7638 C 0.47743 0.7632 0.14529 0.0
C7639 C 0.4838 0.76232 0.14482 0.0
C7640 C 0.49706 0.7577 0.15437 0.0
C7641 C 0.51366 0.75822 0.14882 0.0
C7642 C 0.5068 0.7578 0.14877 0.0
C7643 C 0.48689 0.7583 0.14888 0.0
C7644 C 0.49374 0.75784 0.1488 0.0
H7645 H 0.52532 0.76638 0.14217 0.0
H7646 H 0.5142 0.76491 0.14139 0.0
H7647 H 0.5059 0.75778 0.15874 0.0
H7648 H 0.47451 0.75335 0.1572 0.0
H7649 H 0.48562 0.75178 0.15637 0.0
C7650 C 0.2456 0.5239 0.15345 0.0
C7651 C 0.24096 0.52681 0.14998 0.0
C7652 C 0.24637 0.51751 0.15317 0.0
C7653 C 0.24202 0.50344 0.1443 0.0
H7654 H 0.24415 0.49535 0.16011 0.0
C7655 C 0.24351 0.4768 0.14681 0.0
C7656 C 0.24011 0.47424 0.15172 0.0
C7657 C 0.24433 0.48319 0.14637 0.0
C7658 C 0.24354 0.49754 0.15566 0.0
H7659 H 0.2336 0.52531 0.14337 0.0
H7660 H 0.23492 0.51416 0.14292 0.0
H7661 H 0.24431 0.50655 0.15955 0.0
H7662 H 0.2348 0.47644 0.15991 0.0
H7663 H 0.23624 0.48752 0.15915 0.0
H7664 H 0.241 0.49439 0.14046 0.0
C7665 C 0.23803 0.51681 0.14579 0.0
C7666 C 0.24372 0.50397 0.15532 0.0
C7667 C 0.23727 0.52321 0.14605 0.0
C7668 C 0.23756 0.47823 0.15615 0.0
C7669 C 0.23839 0.4846 0.15571 0.0
C7670 C 0.24185 0.49699 0.14464 0.0
C7671 C 0.24251 0.51387 0.14944 0.0
C7672 C 0.24287 0.50701 0.14966 0.0
C7673 C 0.24178 0.48716 0.15082 0.0
C7674 C 0.2425 0.49397 0.15034 0.0
H7675 H 0.24858 0.52656 0.15645 0.0
H7676 H 0.24995 0.5154 0.15595 0.0
H7677 H 0.24142 0.50563 0.13985 0.0
H7678 H 0.24558 0.47385 0.14335 0.0
H7679 H 0.24702 0.48502 0.14257 0.0
C7680 C 0.84504 0.5231 0.76057 0.0
C7681 C 0.85031 0.52678 0.75971 0.0
C7682 C 0.84531 0.51672 0.75976 0.0
C7683 C 0.85616 0.50371 0.7601 0.0
H7684 H 0.84242 0.49482 0.75288 0.0
C7685 C 0.8558 0.47703 0.75822 0.0
C7686 C 0.85025 0.47419 0.76004 0.0
C7687 C 0.85609 0.48342 0.75735 0.0
C7688 C 0.84628 0.49723 0.75493 0.0
H7689 H 0.85999 0.5266 0.75717 0.0
H7690 H 0.86047 0.51542 0.75579 0.0
H7691 H 0.84243 0.50607 0.7528 0.0
H7692 H 0.84067 0.47589 0.76241 0.0
H7693 H 0.84117 0.48698 0.76086 0.0
H7694 H 0.85995 0.49486 0.76235 0.0
C7695 C 0.85614 0.5175 0.75715 0.0
C7696 C 0.84629 0.50368 0.75488 0.0
C7697 C 0.85586 0.5239 0.75794 0.0
C7698 C 0.84499 0.47789 0.76088 0.0
C7699 C 0.84528 0.48426 0.76 0.0
C7700 C 0.85616 0.49725 0.76015 0.0
C7701 C 0.85087 0.51383 0.75809 0.0
C7702 C 0.85117 0.50699 0.75758 0.0
C7703 C 0.85084 0.48712 0.75827 0.0
C7704 C 0.85115 0.49394 0.75767 0.0
H7705 H 0.84072 0.52512 0.76206 0.0
H7706 H 0.84119 0.51402 0.76064 0.0
H7707 H 0.85996 0.50612 0.76227 0.0
H7708 H 0.85992 0.47431 0.75745 0.0
H7709 H 0.86043 0.48547 0.75595 0.0
C7710 C 0.4778 0.84739 0.75754 0.0
C7711 C 0.47429 0.85183 0.76071 0.0
C7712 C 0.48415 0.84818 0.75675 0.0
C7713 C 0.49732 0.85599 0.76399 0.0
H7714 H 0.50609 0.85052 0.74939 0.0
C7715 C 0.52384 0.85715 0.7626 0.0
C7716 C 0.52676 0.8518 0.7604 0.0
C7717 C 0.51748 0.85795 0.76189 0.0
C7718 C 0.50371 0.85205 0.75351 0.0
H7719 H 0.47468 0.86068 0.76536 0.0
H7720 H 0.48575 0.8621 0.76388 0.0
H7721 H 0.49482 0.85052 0.74946 0.0
H7722 H 0.52533 0.84325 0.75541 0.0
H7723 H 0.51423 0.84457 0.75427 0.0
H7724 H 0.50618 0.85738 0.76811 0.0
C7725 C 0.48359 0.85797 0.76208 0.0
C7726 C 0.49725 0.85205 0.75355 0.0
C7727 C 0.47724 0.85719 0.76286 0.0
C7728 C 0.52321 0.84738 0.75724 0.0
C7729 C 0.51685 0.84818 0.75652 0.0
C7730 C 0.50377 0.85599 0.76396 0.0
C7731 C 0.48714 0.85342 0.75911 0.0
C7732 C 0.49398 0.85393 0.75883 0.0
C7733 C 0.51389 0.85341 0.75895 0.0
C7734 C 0.50704 0.85393 0.75875 0.0
H7735 H 0.47565 0.84324 0.75576 0.0
H7736 H 0.48674 0.84456 0.75449 0.0
H7737 H 0.49496 0.85738 0.76817 0.0
H7738 H 0.52643 0.86063 0.76509 0.0
H7739 H 0.51535 0.86207 0.76374 0.0
C7740 C 0.1462 0.47689 0.75929 0.0
C7741 C 0.15171 0.47403 0.76119 0.0
C7742 C 0.14592 0.48329 0.75849 0.0
C7743 C 0.1558 0.49711 0.75641 0.0
H7744 H 0.14195 0.50596 0.76348 0.0
C7745 C 0.15692 0.52295 0.76217 0.0
C7746 C 0.15168 0.52664 0.76116 0.0
C7747 C 0.15666 0.51657 0.76136 0.0
C7748 C 0.1458 0.50356 0.76139 0.0
H7749 H 0.16123 0.4757 0.76379 0.0
H7750 H 0.16076 0.48681 0.76236 0.0
H7751 H 0.14196 0.4947 0.76348 0.0
H7752 H 0.14207 0.52648 0.75837 0.0
H7753 H 0.1416 0.51529 0.757 0.0
H7754 H 0.1597 0.50596 0.75442 0.0
C7755 C 0.15668 0.4841 0.76138 0.0
C7756 C 0.1458 0.4971 0.76139 0.0
C7757 C 0.15695 0.47772 0.76219 0.0
C7758 C 0.14617 0.52377 0.75926 0.0
C7759 C 0.1459 0.51737 0.75847 0.0
C7760 C 0.15579 0.50356 0.7564 0.0
C7761 C 0.15116 0.48697 0.75956 0.0
C7762 C 0.15086 0.49381 0.75901 0.0
C7763 C 0.15114 0.51369 0.75954 0.0
C7764 C 0.15085 0.50686 0.759 0.0
H7765 H 0.1421 0.47417 0.75841 0.0
H7766 H 0.14162 0.48536 0.75702 0.0
H7767 H 0.15971 0.49471 0.75443 0.0
H7768 H 0.1612 0.52498 0.76376 0.0
H7769 H 0.16075 0.51387 0.76235 0.0
C7770 C 0.47808 0.15416 0.7569 0.0
C7771 C 0.47454 0.1498 0.76015 0.0
C7772 C 0.48443 0.15335 0.75616 0.0
C7773 C 0.49756 0.14567 0.76363 0.0
H7774 H 0.5064 0.1508 0.74895 0.0
C7775 C 0.52408 0.14439 0.76238 0.0
C7776 C 0.52703 0.14969 0.76007 0.0
C7777 C 0.51771 0.1436 0.76165 0.0
C7778 C 0.504 0.14937 0.75309 0.0
H7779 H 0.4749 0.14105 0.76499 0.0
H7780 H 0.48597 0.13958 0.7636 0.0
H7781 H 0.49513 0.15083 0.74897 0.0
H7782 H 0.52565 0.15814 0.75491 0.0
H7783 H 0.51455 0.15683 0.75374 0.0
H7784 H 0.5064 0.14435 0.76781 0.0
C7785 C 0.48384 0.14367 0.7617 0.0
C7786 C 0.49755 0.14939 0.75311 0.0
C7787 C 0.47748 0.14448 0.76243 0.0
C7788 C 0.5235 0.15405 0.75681 0.0
C7789 C 0.51715 0.15326 0.75608 0.0
C7790 C 0.50401 0.14565 0.76362 0.0
C7791 C 0.48741 0.14815 0.75865 0.0
C7792 C 0.49425 0.14762 0.75841 0.0
C7793 C 0.51415 0.14808 0.7586 0.0
C7794 C 0.50731 0.14759 0.75838 0.0
H7795 H 0.47595 0.15827 0.75502 0.0
H7796 H 0.48704 0.15692 0.75383 0.0
H7797 H 0.49518 0.14438 0.76783 0.0
H7798 H 0.52664 0.14096 0.76495 0.0
H7799 H 0.51556 0.13952 0.76358 0.0
C7800 C 0.84456 0.47799 0.23963 0.0
C7801 C 0.84977 0.47427 0.24068 0.0
C7802 C 0.84485 0.48437 0.24048 0.0
C7803 C 0.85577 0.49733 0.24067 0.0
H7804 H 0.84183 0.50619 0.24755 0.0
C7805 C 0.85547 0.52399 0.24295 0.0
C7806 C 0.85 0.52689 0.24102 0.0
C7807 C 0.85571 0.51758 0.24371 0.0
C7808 C 0.84575 0.50379 0.24559 0.0
H7809 H 0.85935 0.47437 0.24359 0.0
H7810 H 0.85986 0.48554 0.24503 0.0
H7811 H 0.84178 0.49494 0.24747 0.0
H7812 H 0.84049 0.52527 0.23832 0.0
H7813 H 0.84089 0.51416 0.23968 0.0
H7814 H 0.85968 0.50618 0.23869 0.0
C7815 C 0.85556 0.4835 0.24349 0.0
C7816 C 0.84572 0.49734 0.24555 0.0
C7817 C 0.85527 0.4771 0.24266 0.0
C7818 C 0.84475 0.52323 0.23994 0.0
C7819 C 0.84498 0.51684 0.24071 0.0
C7820 C 0.85579 0.50378 0.24072 0.0
C7821 C 0.85036 0.48721 0.24238 0.0
C7822 C 0.85067 0.49404 0.24298 0.0
C7823 C 0.85047 0.51393 0.24257 0.0
C7824 C 0.85073 0.50709 0.24307 0.0
H7825 H 0.84029 0.476 0.23797 0.0
H7826 H 0.84079 0.4871 0.23946 0.0
H7827 H 0.85963 0.49493 0.23861 0.0
H7828 H 0.85958 0.52668 0.24389 0.0
H7829 H 0.85999 0.51548 0.24521 0.0
C7830 C 0.52326 0.84467 0.24051 0.0
C7831 C 0.52697 0.8499 0.24149 0.0
C7832 C 0.51688 0.84497 0.24134 0.0
C7833 C 0.50392 0.85589 0.2413 0.0
H7834 H 0.495 0.84204 0.24827 0.0
C7835 C 0.47725 0.85562 0.24334 0.0
C7836 C 0.47437 0.85013 0.24141 0.0
C7837 C 0.48365 0.85586 0.24417 0.0
C7838 C 0.49742 0.84593 0.24629 0.0
H7839 H 0.52686 0.85953 0.24424 0.0
H7840 H 0.51568 0.86004 0.24565 0.0
H7841 H 0.50625 0.84199 0.24829 0.0
H7842 H 0.47601 0.8406 0.23882 0.0
H7843 H 0.48711 0.84101 0.24031 0.0
H7844 H 0.49508 0.85977 0.23919 0.0
C7845 C 0.51773 0.85573 0.24419 0.0
C7846 C 0.50387 0.84591 0.2463 0.0
C7847 C 0.52413 0.85543 0.24338 0.0
C7848 C 0.47804 0.84487 0.24043 0.0
C7849 C 0.48442 0.84511 0.24128 0.0
C7850 C 0.49747 0.85592 0.24129 0.0
C7851 C 0.51403 0.8505 0.24315 0.0
C7852 C 0.5072 0.85083 0.24369 0.0
C7853 C 0.48731 0.85061 0.24311 0.0
C7854 C 0.49414 0.85088 0.24368 0.0
H7855 H 0.52526 0.84038 0.23893 0.0
H7856 H 0.51416 0.84089 0.24038 0.0
H7857 H 0.50634 0.85973 0.2392 0.0
H7858 H 0.47455 0.85974 0.24421 0.0
H7859 H 0.48573 0.86016 0.24565 0.0
C7860 C 0.14606 0.52425 0.24234 0.0
C7861 C 0.15157 0.5271 0.24044 0.0
C7862 C 0.14577 0.51784 0.24312 0.0
C7863 C 0.15561 0.50399 0.24516 0.0
H7864 H 0.14174 0.4952 0.23808 0.0
C7865 C 0.15667 0.47816 0.23931 0.0
C7866 C 0.15142 0.47449 0.24032 0.0
C7867 C 0.15642 0.48454 0.24014 0.0
C7868 C 0.14559 0.49758 0.24017 0.0
H7869 H 0.16109 0.52541 0.23783 0.0
H7870 H 0.1606 0.5143 0.23923 0.0
H7871 H 0.14177 0.50646 0.23811 0.0
H7872 H 0.14181 0.47466 0.24313 0.0
H7873 H 0.14138 0.48585 0.24453 0.0
H7874 H 0.1595 0.49513 0.24711 0.0
C7875 C 0.15652 0.51702 0.24022 0.0
C7876 C 0.14561 0.50404 0.24019 0.0
C7877 C 0.1568 0.5234 0.23943 0.0
C7878 C 0.14592 0.47736 0.24224 0.0
C7879 C 0.14567 0.48377 0.24305 0.0
C7880 C 0.1556 0.49755 0.24514 0.0
C7881 C 0.15099 0.51415 0.24204 0.0
C7882 C 0.15068 0.50732 0.24257 0.0
C7883 C 0.15092 0.48743 0.24198 0.0
C7884 C 0.15064 0.49427 0.24254 0.0
H7885 H 0.14196 0.52697 0.24324 0.0
H7886 H 0.14146 0.51578 0.24459 0.0
H7887 H 0.15953 0.50638 0.24714 0.0
H7888 H 0.16094 0.47614 0.2377 0.0
H7889 H 0.16051 0.48724 0.23915 0.0
C7890 C 0.47762 0.15669 0.23951 0.0
C7891 C 0.47392 0.15145 0.24051 0.0
C7892 C 0.484 0.15642 0.24038 0.0
C7893 C 0.49699 0.14553 0.2405 0.0
H7894 H 0.50581 0.15944 0.24749 0.0
C7895 C 0.52364 0.14587 0.24274 0.0
C7896 C 0.52652 0.15137 0.24085 0.0
C7897 C 0.51723 0.14562 0.24351 0.0
C7898 C 0.50342 0.15553 0.2455 0.0
H7899 H 0.47404 0.14185 0.24334 0.0
H7900 H 0.48521 0.14138 0.24481 0.0
H7901 H 0.49456 0.15945 0.24741 0.0
H7902 H 0.52488 0.1609 0.23825 0.0
H7903 H 0.51377 0.16047 0.23964 0.0
H7904 H 0.50585 0.14167 0.23847 0.0
C7905 C 0.48316 0.14568 0.24331 0.0
C7906 C 0.49697 0.15554 0.24546 0.0
C7907 C 0.47676 0.14595 0.24246 0.0
C7908 C 0.52285 0.15662 0.23984 0.0
C7909 C 0.51647 0.15637 0.24063 0.0
C7910 C 0.50344 0.14552 0.24054 0.0
C7911 C 0.48685 0.1509 0.24225 0.0
C7912 C 0.49368 0.1506 0.24285 0.0
C7913 C 0.51357 0.15086 0.24243 0.0
C7914 C 0.50673 0.15058 0.24294 0.0
H7915 H 0.47562 0.16096 0.23789 0.0
H7916 H 0.48671 0.16049 0.23941 0.0
H7917 H 0.49459 0.14169 0.2384 0.0
H7918 H 0.52634 0.14176 0.24363 0.0
H7919 H 0.51515 0.14132 0.24497 0.0
C7920 C 0.75779 0.84726 0.52362 0.0
C7921 C 0.76091 0.85172 0.52715 0.0
C7922 C 0.75701 0.84805 0.51727 0.0
C7923 C 0.7642 0.85595 0.50411 0.0
H7924 H 0.74962 0.8504 0.49535 0.0
C7925 C 0.76276 0.85717 0.4776 0.0
C7926 C 0.76058 0.8518 0.47467 0.0
C7927 C 0.76206 0.85794 0.48396 0.0
C7928 C 0.75373 0.85195 0.49773 0.0
H7929 H 0.76549 0.86061 0.52677 0.0
H7930 H 0.76404 0.86203 0.5157 0.0
H7931 H 0.7497 0.85037 0.50661 0.0
H7932 H 0.75566 0.84321 0.47608 0.0
H7933 H 0.75453 0.8445 0.48719 0.0
H7934 H 0.76829 0.85738 0.49525 0.0
C7935 C 0.76226 0.85789 0.51785 0.0
C7936 C 0.75378 0.85193 0.50418 0.0
C7937 C 0.76303 0.8571 0.52421 0.0
C7938 C 0.75746 0.84736 0.47821 0.0
C7939 C 0.75675 0.84813 0.48457 0.0
C7940 C 0.76415 0.85596 0.49767 0.0
C7941 C 0.75934 0.85332 0.51429 0.0
C7942 C 0.75905 0.85384 0.50745 0.0
C7943 C 0.75915 0.85338 0.48755 0.0
C7944 C 0.75895 0.85388 0.49439 0.0
H7945 H 0.75603 0.8431 0.52576 0.0
H7946 H 0.75478 0.84441 0.51467 0.0
H7947 H 0.76837 0.85736 0.50647 0.0
H7948 H 0.76522 0.86066 0.47501 0.0
H7949 H 0.76388 0.86207 0.4861 0.0
C7950 C 0.76439 0.14628 0.52329 0.0
C7951 C 0.76063 0.15016 0.52688 0.0
C7952 C 0.76364 0.146 0.51689 0.0
C7953 C 0.7578 0.15543 0.50403 0.0
H7954 H 0.76074 0.1406 0.49446 0.0
C7955 C 0.76389 0.15634 0.47828 0.0
C7956 C 0.7614 0.15187 0.4743 0.0
C7957 C 0.76309 0.15589 0.48465 0.0
C7958 C 0.75983 0.14477 0.49706 0.0
H7959 H 0.75291 0.1565 0.52662 0.0
H7960 H 0.75155 0.15598 0.51546 0.0
H7961 H 0.76034 0.14 0.50571 0.0
H7962 H 0.75606 0.14341 0.47393 0.0
H7963 H 0.75467 0.14261 0.4851 0.0
H7964 H 0.75728 0.1602 0.49541 0.0
C7965 C 0.75517 0.15325 0.51757 0.0
C7966 C 0.75967 0.14444 0.50351 0.0
C7967 C 0.75594 0.15355 0.52396 0.0
C7968 C 0.75809 0.14691 0.47686 0.0
C7969 C 0.75729 0.14645 0.48326 0.0
C7970 C 0.75796 0.15576 0.4976 0.0
C7971 C 0.7591 0.14958 0.51393 0.0
C7972 C 0.75874 0.14978 0.50707 0.0
C7973 C 0.75978 0.15094 0.48723 0.0
C7974 C 0.75909 0.15046 0.49404 0.0
H7975 H 0.76809 0.14366 0.52538 0.0
H7976 H 0.76679 0.14318 0.51423 0.0
H7977 H 0.75713 0.15966 0.50661 0.0
H7978 H 0.76659 0.16015 0.47648 0.0
H7979 H 0.76519 0.15936 0.48757 0.0
C7980 C 0.84482 0.76118 0.47799 0.0
C7981 C 0.85009 0.76022 0.47433 0.0
C7982 C 0.84506 0.7604 0.48438 0.0
C7983 C 0.85588 0.76064 0.49742 0.0
H7984 H 0.842 0.75365 0.50629 0.0
C7985 C 0.8554 0.75882 0.52411 0.0
C7986 C 0.84987 0.76073 0.52693 0.0
C7987 C 0.8557 0.75795 0.51772 0.0
C7988 C 0.8459 0.75564 0.50388 0.0
H7989 H 0.85973 0.75756 0.47454 0.0
H7990 H 0.86017 0.75623 0.48574 0.0
H7991 H 0.84205 0.75353 0.49504 0.0
H7992 H 0.84034 0.76326 0.52518 0.0
H7993 H 0.84086 0.76169 0.5141 0.0
H7994 H 0.85967 0.76286 0.50627 0.0
C7995 C 0.85585 0.75764 0.48364 0.0
C7996 C 0.84593 0.75557 0.49744 0.0
C7997 C 0.8556 0.7584 0.47723 0.0
C7998 C 0.84464 0.76166 0.5232 0.0
C7999 C 0.84494 0.76077 0.51683 0.0
C8000 C 0.85585 0.76071 0.50388 0.0
C8001 C 0.85059 0.75866 0.48729 0.0
C8002 C 0.85086 0.75818 0.49413 0.0
C8003 C 0.85048 0.75894 0.514 0.0
C8004 C 0.85081 0.75832 0.50718 0.0
H8005 H 0.84052 0.76271 0.47595 0.0
H8006 H 0.84095 0.76134 0.48706 0.0
H8007 H 0.85972 0.76274 0.49502 0.0
H8008 H 0.8595 0.75799 0.52685 0.0
H8009 H 0.86002 0.75648 0.51568 0.0
C8010 C 0.23735 0.85544 0.52341 0.0
C8011 C 0.24095 0.85144 0.52704 0.0
C8012 C 0.23815 0.85567 0.51701 0.0
C8013 C 0.24373 0.84602 0.50421 0.0
H8014 H 0.24137 0.86093 0.4946 0.0
C8015 C 0.2378 0.84529 0.47841 0.0
C8016 C 0.24046 0.84968 0.47445 0.0
C8017 C 0.23857 0.84572 0.48479 0.0
C8018 C 0.24212 0.85673 0.49722 0.0
H8019 H 0.24844 0.84482 0.52683 0.0
H8020 H 0.24987 0.84527 0.51568 0.0
H8021 H 0.24172 0.86153 0.50585 0.0
H8022 H 0.24609 0.85795 0.47411 0.0
H8023 H 0.24743 0.8587 0.48529 0.0
H8024 H 0.24414 0.84122 0.4956 0.0
C8025 C 0.24634 0.84812 0.51776 0.0
C8026 C 0.24225 0.85707 0.50366 0.0
C8027 C 0.24553 0.84787 0.52415 0.0
C8028 C 0.24393 0.85452 0.47703 0.0
C8029 C 0.2447 0.85495 0.48344 0.0
C8030 C 0.2436 0.84568 0.49777 0.0
C8031 C 0.24257 0.85193 0.51409 0.0
C8032 C 0.24296 0.8517 0.50724 0.0
C8033 C 0.24202 0.85055 0.48738 0.0
C8034 C 0.24269 0.85102 0.4942 0.0
H8035 H 0.23374 0.85819 0.52548 0.0
H8036 H 0.23511 0.8586 0.51434 0.0
H8037 H 0.24422 0.84177 0.5068 0.0
H8038 H 0.23498 0.84158 0.4766 0.0
H8039 H 0.23633 0.84232 0.48769 0.0
C8040 C 0.154 0.24424 0.52362 0.0
C8041 C 0.14959 0.24103 0.52715 0.0
C8042 C 0.15321 0.24498 0.51726 0.0
C8043 C 0.14549 0.23756 0.50413 0.0
H8044 H 0.15081 0.25216 0.49527 0.0
C8045 C 0.14432 0.23877 0.4776 0.0
C8046 C 0.14965 0.241 0.47467 0.0
C8047 C 0.14351 0.23952 0.48396 0.0
C8048 C 0.14933 0.24804 0.49768 0.0
H8049 H 0.1408 0.23627 0.52677 0.0
H8050 H 0.13937 0.23766 0.51569 0.0
H8051 H 0.1508 0.25216 0.50654 0.0
H8052 H 0.15817 0.24606 0.47607 0.0
H8053 H 0.15683 0.24727 0.48716 0.0
H8054 H 0.14415 0.23338 0.49529 0.0
C8055 C 0.14348 0.23953 0.51784 0.0
C8056 C 0.14932 0.24804 0.50413 0.0
C8057 C 0.14426 0.2388 0.5242 0.0
C8058 C 0.15405 0.24422 0.4782 0.0
C8059 C 0.15324 0.24497 0.48455 0.0
C8060 C 0.14549 0.23756 0.49768 0.0
C8061 C 0.14799 0.24253 0.51428 0.0
C8062 C 0.14749 0.24277 0.50743 0.0
C8063 C 0.14802 0.24252 0.48753 0.0
C8064 C 0.1475 0.24276 0.49437 0.0
H8065 H 0.15812 0.24609 0.52576 0.0
H8066 H 0.1568 0.24727 0.51466 0.0
H8067 H 0.14414 0.23338 0.50651 0.0
H8068 H 0.14086 0.23624 0.47503 0.0
H8069 H 0.1394 0.23765 0.4861 0.0
C8070 C 0.23896 0.14424 0.52432 0.0
C8071 C 0.24117 0.14959 0.52726 0.0
C8072 C 0.2397 0.14345 0.51796 0.0
C8073 C 0.24819 0.14932 0.50424 0.0
H8074 H 0.23357 0.14402 0.49541 0.0
C8075 C 0.24436 0.15393 0.47829 0.0
C8076 C 0.2412 0.14949 0.47477 0.0
C8077 C 0.2451 0.15316 0.48465 0.0
C8078 C 0.23773 0.1454 0.4978 0.0
H8079 H 0.24618 0.15813 0.52586 0.0
H8080 H 0.24738 0.1568 0.51476 0.0
H8081 H 0.23356 0.14404 0.50663 0.0
H8082 H 0.23651 0.14066 0.47516 0.0
H8083 H 0.2379 0.13926 0.48624 0.0
H8084 H 0.2523 0.15082 0.49538 0.0
C8085 C 0.2451 0.1532 0.51737 0.0
C8086 C 0.23773 0.14541 0.50424 0.0
C8087 C 0.24435 0.154 0.52372 0.0
C8088 C 0.23901 0.14415 0.47772 0.0
C8089 C 0.23974 0.14338 0.48409 0.0
C8090 C 0.24819 0.14931 0.49779 0.0
C8091 C 0.24268 0.14797 0.51439 0.0
C8092 C 0.24292 0.14745 0.50755 0.0
C8093 C 0.2427 0.14793 0.48764 0.0
C8094 C 0.24293 0.14743 0.49449 0.0
H8095 H 0.23645 0.14077 0.52689 0.0
H8096 H 0.23786 0.13933 0.51582 0.0
H8097 H 0.2523 0.15083 0.50665 0.0
H8098 H 0.24618 0.15806 0.47615 0.0
H8099 H 0.24736 0.15678 0.48725 0.0
C8100 C 0.84758 0.24333 0.47844 0.0
C8101 C 0.85194 0.24006 0.47491 0.0
C8102 C 0.84837 0.24405 0.48479 0.0
C8103 C 0.85594 0.23649 0.49795 0.0
H8104 H 0.85089 0.25121 0.50678 0.0
C8105 C 0.85714 0.23776 0.52448 0.0
C8106 C 0.85185 0.24012 0.52741 0.0
C8107 C 0.85795 0.23846 0.51811 0.0
C8108 C 0.85229 0.24706 0.50438 0.0
H8109 H 0.86064 0.23513 0.4753 0.0
H8110 H 0.86207 0.23648 0.48638 0.0
H8111 H 0.8509 0.2512 0.49551 0.0
H8112 H 0.84344 0.24534 0.526 0.0
H8113 H 0.84479 0.24646 0.51489 0.0
H8114 H 0.85719 0.2323 0.50679 0.0
C8115 C 0.858 0.23843 0.48423 0.0
C8116 C 0.8523 0.24705 0.49792 0.0
C8117 C 0.85722 0.23771 0.47787 0.0
C8118 C 0.84752 0.2434 0.52387 0.0
C8119 C 0.84833 0.2441 0.51751 0.0
C8120 C 0.85593 0.2365 0.50439 0.0
C8121 C 0.85353 0.2415 0.48779 0.0
C8122 C 0.85404 0.24174 0.49463 0.0
C8123 C 0.85349 0.24154 0.51453 0.0
C8124 C 0.85402 0.24175 0.50769 0.0
H8125 H 0.84351 0.24526 0.47629 0.0
H8126 H 0.84482 0.2464 0.48739 0.0
H8127 H 0.8572 0.23229 0.49557 0.0
H8128 H 0.86055 0.23517 0.52706 0.0
H8129 H 0.86202 0.2365 0.51598 0.0
C8130 C 0.14428 0.76308 0.47758 0.0
C8131 C 0.14961 0.76084 0.47463 0.0
C8132 C 0.14352 0.76238 0.48395 0.0
C8133 C 0.14947 0.75399 0.4977 0.0
H8134 H 0.14426 0.7687 0.50645 0.0
C8135 C 0.15433 0.75805 0.52356 0.0
C8136 C 0.14992 0.76124 0.5271 0.0
C8137 C 0.15349 0.75725 0.51722 0.0
C8138 C 0.14562 0.76451 0.50409 0.0
H8139 H 0.15815 0.75582 0.47602 0.0
H8140 H 0.15688 0.7547 0.48713 0.0
H8141 H 0.14419 0.76861 0.49523 0.0
H8142 H 0.14109 0.76592 0.52676 0.0
H8143 H 0.13958 0.76445 0.51571 0.0
H8144 H 0.15104 0.74996 0.50658 0.0
C8145 C 0.15327 0.75696 0.48452 0.0
C8146 C 0.14557 0.76446 0.49764 0.0
C8147 C 0.15403 0.75767 0.47816 0.0
C8148 C 0.14455 0.76341 0.52419 0.0
C8149 C 0.14372 0.76262 0.51783 0.0
C8150 C 0.14951 0.75405 0.50415 0.0
C8151 C 0.14806 0.75942 0.48752 0.0
C8152 C 0.14758 0.75923 0.49436 0.0
C8153 C 0.14824 0.75964 0.51426 0.0
C8154 C 0.14767 0.75934 0.50742 0.0
H8155 H 0.1408 0.76558 0.47501 0.0
H8156 H 0.13942 0.76425 0.4861 0.0
H8157 H 0.15096 0.74986 0.49531 0.0
H8158 H 0.15848 0.75625 0.52568 0.0
H8159 H 0.15709 0.75497 0.5146 0.0
loop_
_geom_bond_atom_site_label_1
_geom_bond_atom_site_label_2
_geom_bond_distance
_geom_bond_site_symmetry_2
_ccdc_geom_bond_type
C0 C1 1.264 . S
C0 C5 1.479 . S
C0 C10 1.465 . S
C1 C0 1.264 . S
C1 C3 1.339 . S
C1 H28 0.931 . S
C2 C3 1.395 . S
C2 C4 1.320 . S
C3 C1 1.339 . S
C3 C2 1.395 . S
C3 H29 0.929 . S
C4 C2 1.320 . S
C4 C5 1.405 . S
C4 H30 0.930 . S
C5 C0 1.479 . S
C5 C4 1.405 . S
C5 H31 0.931 . S
U6 O7 2.454 . S
U6 O8 2.458 . S
U6 C9 2.984 . S
U6 C10 2.847 . S
U6 C23 2.882 . S
U6 O24 2.441 . S
U6 O25 2.420 . S
U6 O26 2.455 . S
U6 O27 2.449 . S
O7 U6 2.454 . S
O7 C9 1.353 . S
O8 U6 2.458 . S
O8 C9 1.286 . S
C9 U6 2.984 . S
C9 O7 1.353 . S
C9 O8 1.286 . S
C9 C11 1.363 . S
C10 C0 1.465 . S
C10 U6 2.847 . S
C10 O24 1.249 . S
C10 O25 1.202 . S
C11 C9 1.363 . S
C11 C13 1.408 . S
C11 C16 1.342 . S
C12 C13 1.310 . S
C12 C15 1.461 . S
C12 H32 0.932 . S
C13 C11 1.408 . S
C13 C12 1.310 . S
C13 H33 0.930 . S
C14 C15 1.474 . S
C14 C16 1.285 . S
C14 H34 0.929 . S
C15 C12 1.461 . S
C15 C14 1.474 . S
C16 C11 1.342 . S
C16 C14 1.285 . S
C16 H35 0.930 . S
C17 C20 1.424 . S
C17 C22 1.245 . S
C17 C23 1.428 . S
C18 C21 1.260 . S
C18 C22 1.477 . S
C18 H36 0.932 . S
C19 C20 1.384 . S
C19 C21 1.479 . S
C19 H37 0.929 . S
C20 C17 1.424 . S
C20 C19 1.384 . S
C20 H38 0.928 . S
C21 C18 1.260 . S
C21 C19 1.479 . S
C22 C17 1.245 . S
C22 C18 1.477 . S
C22 H39 0.932 . S
C23 U6 2.882 . S
C23 C17 1.428 . S
C23 O26 1.301 . S
C23 O27 1.282 . S
O24 U6 2.441 . S
O24 C10 1.249 . S
O25 U6 2.420 . S
O25 C10 1.202 . S
O26 U6 2.455 . S
O26 C23 1.301 . S
O27 U6 2.449 . S
O27 C23 1.282 . S
H28 C1 0.931 . S
H29 C3 0.929 . S
H30 C4 0.930 . S
H31 C5 0.931 . S
H32 C12 0.932 . S
H33 C13 0.930 . S
H34 C14 0.929 . S
H35 C16 0.930 . S
H36 C18 0.932 . S
H37 C19 0.929 . S
H38 C20 0.928 . S
H39 C22 0.932 . S
C40 C41 1.264 . S
C40 C45 1.479 . S
C40 C50 1.465 . S
C41 C40 1.264 . S
C41 C43 1.339 . S
C41 H68 0.931 . S
C42 C43 1.395 . S
C42 C44 1.320 . S
C43 C41 1.339 . S
C43 C42 1.395 . S
C43 H69 0.929 . S
C44 C42 1.320 . S
C44 C45 1.405 . S
C44 H70 0.930 . S
C45 C40 1.479 . S
C45 C44 1.405 . S
C45 H71 0.931 . S
U46 O47 2.454 . S
U46 O48 2.458 . S
U46 C49 2.984 . S
U46 C50 2.847 . S
U46 C63 2.882 . S
U46 O64 2.441 . S
U46 O65 2.420 . S
U46 O66 2.455 . S
U46 O67 2.449 . S
O47 U46 2.454 . S
O47 C49 1.353 . S
O48 U46 2.458 . S
O48 C49 1.286 . S
C49 U46 2.984 . S
C49 O47 1.353 . S
C49 O48 1.286 . S
C49 C51 1.363 . S
C50 C40 1.465 . S
C50 U46 2.847 . S
C50 O64 1.249 . S
C50 O65 1.202 . S
C51 C49 1.363 . S
C51 C53 1.408 . S
C51 C56 1.342 . S
C52 C53 1.310 . S
C52 C55 1.461 . S
C52 H72 0.932 . S
C53 C51 1.408 . S
C53 C52 1.310 . S
C53 H73 0.930 . S
C54 C55 1.474 . S
C54 C56 1.285 . S
C54 H74 0.929 . S
C55 C52 1.461 . S
C55 C54 1.474 . S
C56 C51 1.342 . S
C56 C54 1.285 . S
C56 H75 0.930 . S
C57 C60 1.424 . S
C57 C62 1.245 . S
C57 C63 1.428 . S
C58 C61 1.260 . S
C58 C62 1.477 . S
C58 H76 0.932 . S
C59 C60 1.384 . S
C59 C61 1.479 . S
C59 H77 0.929 . S
C60 C57 1.424 . S
C60 C59 1.384 . S
C60 H78 0.928 . S
C61 C58 1.260 . S
C61 C59 1.479 . S
C62 C57 1.245 . S
C62 C58 1.477 . S
C62 H79 0.932 . S
C63 U46 2.882 . S
C63 C57 1.428 . S
C63 O66 1.301 . S
C63 O67 1.282 . S
O64 U46 2.441 . S
O64 C50 1.249 . S
O65 U46 2.420 . S
O65 C50 1.202 . S
O66 U46 2.455 . S
O66 C63 1.301 . S
O67 U46 2.449 . S
O67 C63 1.282 . S
H68 C41 0.931 . S
H69 C43 0.929 . S
H70 C44 0.930 . S
H71 C45 0.931 . S
H72 C52 0.932 . S
H73 C53 0.930 . S
H74 C54 0.929 . S
H75 C56 0.930 . S
H76 C58 0.932 . S
H77 C59 0.929 . S
H78 C60 0.928 . S
H79 C62 0.932 . S
C80 C81 1.264 . S
C80 C85 1.479 . S
C80 C90 1.465 . S
C81 C80 1.264 . S
C81 C83 1.339 . S
C81 H108 0.931 . S
C82 C83 1.395 . S
C82 C84 1.320 . S
C83 C81 1.339 . S
C83 C82 1.395 . S
C83 H109 0.929 . S
C84 C82 1.320 . S
C84 C85 1.405 . S
C84 H110 0.930 . S
C85 C80 1.479 . S
C85 C84 1.405 . S
C85 H111 0.931 . S
U86 O87 2.454 . S
U86 O88 2.458 . S
U86 C89 2.984 . S
U86 C90 2.847 . S
U86 C103 2.882 . S
U86 O104 2.441 . S
U86 O105 2.420 . S
U86 O106 2.455 . S
U86 O107 2.449 . S
O87 U86 2.454 . S
O87 C89 1.353 . S
O88 U86 2.458 . S
O88 C89 1.286 . S
C89 U86 2.984 . S
C89 O87 1.353 . S
C89 O88 1.286 . S
C89 C91 1.363 . S
C90 C80 1.465 . S
C90 U86 2.847 . S
C90 O104 1.249 . S
C90 O105 1.202 . S
C91 C89 1.363 . S
C91 C93 1.408 . S
C91 C96 1.342 . S
C92 C93 1.310 . S
C92 C95 1.461 . S
C92 H112 0.932 . S
C93 C91 1.408 . S
C93 C92 1.310 . S
C93 H113 0.930 . S
C94 C95 1.474 . S
C94 C96 1.285 . S
C94 H114 0.929 . S
C95 C92 1.461 . S
C95 C94 1.474 . S
C96 C91 1.342 . S
C96 C94 1.285 . S
C96 H115 0.930 . S
C97 C100 1.424 . S
C97 C102 1.245 . S
C97 C103 1.428 . S
C98 C101 1.260 . S
C98 C102 1.477 . S
C98 H116 0.932 . S
C99 C100 1.384 . S
C99 C101 1.479 . S
C99 H117 0.929 . S
C100 C97 1.424 . S
C100 C99 1.384 . S
C100 H118 0.928 . S
C101 C98 1.260 . S
C101 C99 1.479 . S
C102 C97 1.245 . S
C102 C98 1.477 . S
C102 H119 0.932 . S
C103 U86 2.882 . S
C103 C97 1.428 . S
C103 O106 1.301 . S
C103 O107 1.282 . S
O104 U86 2.441 . S
O104 C90 1.249 . S
O105 U86 2.420 . S
O105 C90 1.202 . S
O106 U86 2.455 . S
O106 C103 1.301 . S
O107 U86 2.449 . S
O107 C103 1.282 . S
H108 C81 0.931 . S
H109 C83 0.929 . S
H110 C84 0.930 . S
H111 C85 0.931 . S
H112 C92 0.932 . S
H113 C93 0.930 . S
H114 C94 0.929 . S
H115 C96 0.930 . S
H116 C98 0.932 . S
H117 C99 0.929 . S
H118 C100 0.928 . S
H119 C102 0.932 . S
C120 C121 1.264 . S
C120 C125 1.479 . S
C120 C130 1.465 . S
C121 C120 1.264 . S
C121 C123 1.339 . S
C121 H148 0.931 . S
C122 C123 1.395 . S
C122 C124 1.320 . S
C123 C121 1.339 . S
C123 C122 1.395 . S
C123 H149 0.929 . S
C124 C122 1.320 . S
C124 C125 1.405 . S
C124 H150 0.930 . S
C125 C120 1.479 . S
C125 C124 1.405 . S
C125 H151 0.931 . S
U126 O127 2.454 . S
U126 O128 2.458 . S
U126 C129 2.984 . S
U126 C130 2.847 . S
U126 C143 2.882 . S
U126 O144 2.441 . S
U126 O145 2.420 . S
U126 O146 2.455 . S
U126 O147 2.449 . S
O127 U126 2.454 . S
O127 C129 1.353 . S
O128 U126 2.458 . S
O128 C129 1.286 . S
C129 U126 2.984 . S
C129 O127 1.353 . S
C129 O128 1.286 . S
C129 C131 1.363 . S
C130 C120 1.465 . S
C130 U126 2.847 . S
C130 O144 1.249 . S
C130 O145 1.202 . S
C131 C129 1.363 . S
C131 C133 1.408 . S
C131 C136 1.342 . S
C132 C133 1.310 . S
C132 C135 1.461 . S
C132 H152 0.932 . S
C133 C131 1.408 . S
C133 C132 1.310 . S
C133 H153 0.930 . S
C134 C135 1.474 . S
C134 C136 1.285 . S
C134 H154 0.929 . S
C135 C132 1.461 . S
C135 C134 1.474 . S
C136 C131 1.342 . S
C136 C134 1.285 . S
C136 H155 0.930 . S
C137 C140 1.424 . S
C137 C142 1.245 . S
C137 C143 1.428 . S
C138 C141 1.260 . S
C138 C142 1.477 . S
C138 H156 0.932 . S
C139 C140 1.384 . S
C139 C141 1.479 . S
C139 H157 0.929 . S
C140 C137 1.424 . S
C140 C139 1.384 . S
C140 H158 0.928 . S
C141 C138 1.260 . S
C141 C139 1.479 . S
C142 C137 1.245 . S
C142 C138 1.477 . S
C142 H159 0.932 . S
C143 U126 2.882 . S
C143 C137 1.428 . S
C143 O146 1.301 . S
C143 O147 1.282 . S
O144 U126 2.441 . S
O144 C130 1.249 . S
O145 U126 2.420 . S
O145 C130 1.202 . S
O146 U126 2.455 . S
O146 C143 1.301 . S
O147 U126 2.449 . S
O147 C143 1.282 . S
H148 C121 0.931 . S
H149 C123 0.929 . S
H150 C124 0.930 . S
H151 C125 0.931 . S
H152 C132 0.932 . S
H153 C133 0.930 . S
H154 C134 0.929 . S
H155 C136 0.930 . S
H156 C138 0.932 . S
H157 C139 0.929 . S
H158 C140 0.928 . S
H159 C142 0.932 . S
C160 C161 1.264 . S
C160 C165 1.479 . S
C160 C170 1.465 . S
C161 C160 1.264 . S
C161 C163 1.339 . S
C161 H188 0.931 . S
C162 C163 1.395 . S
C162 C164 1.320 . S
C163 C161 1.339 . S
C163 C162 1.395 . S
C163 H189 0.929 . S
C164 C162 1.320 . S
C164 C165 1.405 . S
C164 H190 0.930 . S
C165 C160 1.479 . S
C165 C164 1.405 . S
C165 H191 0.931 . S
U166 O167 2.454 . S
U166 O168 2.458 . S
U166 C169 2.984 . S
U166 C170 2.847 . S
U166 C183 2.882 . S
U166 O184 2.441 . S
U166 O185 2.420 . S
U166 O186 2.455 . S
U166 O187 2.449 . S
O167 U166 2.454 . S
O167 C169 1.353 . S
O168 U166 2.458 . S
O168 C169 1.286 . S
C169 U166 2.984 . S
C169 O167 1.353 . S
C169 O168 1.286 . S
C169 C171 1.363 . S
C170 C160 1.465 . S
C170 U166 2.847 . S
C170 O184 1.249 . S
C170 O185 1.202 . S
C171 C169 1.363 . S
C171 C173 1.408 . S
C171 C176 1.342 . S
C172 C173 1.310 . S
C172 C175 1.461 . S
C172 H192 0.932 . S
C173 C171 1.408 . S
C173 C172 1.310 . S
C173 H193 0.930 . S
C174 C175 1.474 . S
C174 C176 1.285 . S
C174 H194 0.929 . S
C175 C172 1.461 . S
C175 C174 1.474 . S
C176 C171 1.342 . S
C176 C174 1.285 . S
C176 H195 0.930 . S
C177 C180 1.424 . S
C177 C182 1.245 . S
C177 C183 1.428 . S
C178 C181 1.260 . S
C178 C182 1.477 . S
C178 H196 0.932 . S
C179 C180 1.384 . S
C179 C181 1.479 . S
C179 H197 0.929 . S
C180 C177 1.424 . S
C180 C179 1.384 . S
C180 H198 0.928 . S
C181 C178 1.260 . S
C181 C179 1.479 . S
C182 C177 1.245 . S
C182 C178 1.477 . S
C182 H199 0.932 . S
C183 U166 2.882 . S
C183 C177 1.428 . S
C183 O186 1.301 . S
C183 O187 1.282 . S
O184 U166 2.441 . S
O184 C170 1.249 . S
O185 U166 2.420 . S
O185 C170 1.202 . S
O186 U166 2.455 . S
O186 C183 1.301 . S
O187 U166 2.449 . S
O187 C183 1.282 . S
H188 C161 0.931 . S
H189 C163 0.929 . S
H190 C164 0.930 . S
H191 C165 0.931 . S
H192 C172 0.932 . S
H193 C173 0.930 . S
H194 C174 0.929 . S
H195 C176 0.930 . S
H196 C178 0.932 . S
H197 C179 0.929 . S
H198 C180 0.928 . S
H199 C182 0.932 . S
C200 C201 1.264 . S
C200 C205 1.479 . S
C200 C210 1.465 . S
C201 C200 1.264 . S
C201 C203 1.339 . S
C201 H228 0.931 . S
C202 C203 1.395 . S
C202 C204 1.320 . S
C203 C201 1.339 . S
C203 C202 1.395 . S
C203 H229 0.929 . S
C204 C202 1.320 . S
C204 C205 1.405 . S
C204 H230 0.930 . S
C205 C200 1.479 . S
C205 C204 1.405 . S
C205 H231 0.931 . S
U206 O207 2.454 . S
U206 O208 2.458 . S
U206 C209 2.984 . S
U206 C210 2.847 . S
U206 C223 2.882 . S
U206 O224 2.441 . S
U206 O225 2.420 . S
U206 O226 2.455 . S
U206 O227 2.449 . S
O207 U206 2.454 . S
O207 C209 1.353 . S
O208 U206 2.458 . S
O208 C209 1.286 . S
C209 U206 2.984 . S
C209 O207 1.353 . S
C209 O208 1.286 . S
C209 C211 1.363 . S
C210 C200 1.465 . S
C210 U206 2.847 . S
C210 O224 1.249 . S
C210 O225 1.202 . S
C211 C209 1.363 . S
C211 C213 1.408 . S
C211 C216 1.342 . S
C212 C213 1.310 . S
C212 C215 1.461 . S
C212 H232 0.932 . S
C213 C211 1.408 . S
C213 C212 1.310 . S
C213 H233 0.930 . S
C214 C215 1.474 . S
C214 C216 1.285 . S
C214 H234 0.929 . S
C215 C212 1.461 . S
C215 C214 1.474 . S
C216 C211 1.342 . S
C216 C214 1.285 . S
C216 H235 0.930 . S
C217 C220 1.424 . S
C217 C222 1.245 . S
C217 C223 1.428 . S
C218 C221 1.260 . S
C218 C222 1.477 . S
C218 H236 0.932 . S
C219 C220 1.384 . S
C219 C221 1.479 . S
C219 H237 0.929 . S
C220 C217 1.424 . S
C220 C219 1.384 . S
C220 H238 0.928 . S
C221 C218 1.260 . S
C221 C219 1.479 . S
C222 C217 1.245 . S
C222 C218 1.477 . S
C222 H239 0.932 . S
C223 U206 2.882 . S
C223 C217 1.428 . S
C223 O226 1.301 . S
C223 O227 1.282 . S
O224 U206 2.441 . S
O224 C210 1.249 . S
O225 U206 2.420 . S
O225 C210 1.202 . S
O226 U206 2.455 . S
O226 C223 1.301 . S
O227 U206 2.449 . S
O227 C223 1.282 . S
H228 C201 0.931 . S
H229 C203 0.929 . S
H230 C204 0.930 . S
H231 C205 0.931 . S
H232 C212 0.932 . S
H233 C213 0.930 . S
H234 C214 0.929 . S
H235 C216 0.930 . S
H236 C218 0.932 . S
H237 C219 0.929 . S
H238 C220 0.928 . S
H239 C222 0.932 . S
C240 C241 1.264 . S
C240 C245 1.479 . S
C240 C250 1.465 . S
C241 C240 1.264 . S
C241 C243 1.339 . S
C241 H268 0.931 . S
C242 C243 1.395 . S
C242 C244 1.320 . S
C243 C241 1.339 . S
C243 C242 1.395 . S
C243 H269 0.929 . S
C244 C242 1.320 . S
C244 C245 1.405 . S
C244 H270 0.930 . S
C245 C240 1.479 . S
C245 C244 1.405 . S
C245 H271 0.931 . S
U246 O247 2.454 . S
U246 O248 2.458 . S
U246 C249 2.984 . S
U246 C250 2.847 . S
U246 C263 2.882 . S
U246 O264 2.441 . S
U246 O265 2.420 . S
U246 O266 2.455 . S
U246 O267 2.449 . S
O247 U246 2.454 . S
O247 C249 1.353 . S
O248 U246 2.458 . S
O248 C249 1.286 . S
C249 U246 2.984 . S
C249 O247 1.353 . S
C249 O248 1.286 . S
C249 C251 1.363 . S
C250 C240 1.465 . S
C250 U246 2.847 . S
C250 O264 1.249 . S
C250 O265 1.202 . S
C251 C249 1.363 . S
C251 C253 1.408 . S
C251 C256 1.342 . S
C252 C253 1.310 . S
C252 C255 1.461 . S
C252 H272 0.932 . S
C253 C251 1.408 . S
C253 C252 1.310 . S
C253 H273 0.930 . S
C254 C255 1.474 . S
C254 C256 1.285 . S
C254 H274 0.929 . S
C255 C252 1.461 . S
C255 C254 1.474 . S
C256 C251 1.342 . S
C256 C254 1.285 . S
C256 H275 0.930 . S
C257 C260 1.424 . S
C257 C262 1.245 . S
C257 C263 1.428 . S
C258 C261 1.260 . S
C258 C262 1.477 . S
C258 H276 0.932 . S
C259 C260 1.384 . S
C259 C261 1.479 . S
C259 H277 0.929 . S
C260 C257 1.424 . S
C260 C259 1.384 . S
C260 H278 0.928 . S
C261 C258 1.260 . S
C261 C259 1.479 . S
C262 C257 1.245 . S
C262 C258 1.477 . S
C262 H279 0.932 . S
C263 U246 2.882 . S
C263 C257 1.428 . S
C263 O266 1.301 . S
C263 O267 1.282 . S
O264 U246 2.441 . S
O264 C250 1.249 . S
O265 U246 2.420 . S
O265 C250 1.202 . S
O266 U246 2.455 . S
O266 C263 1.301 . S
O267 U246 2.449 . S
O267 C263 1.282 . S
H268 C241 0.931 . S
H269 C243 0.929 . S
H270 C244 0.930 . S
H271 C245 0.931 . S
H272 C252 0.932 . S
H273 C253 0.930 . S
H274 C254 0.929 . S
H275 C256 0.930 . S
H276 C258 0.932 . S
H277 C259 0.929 . S
H278 C260 0.928 . S
H279 C262 0.932 . S
C280 C281 1.264 . S
C280 C285 1.479 . S
C280 C290 1.465 . S
C281 C280 1.264 . S
C281 C283 1.339 . S
C281 H308 0.931 . S
C282 C283 1.395 . S
C282 C284 1.320 . S
C283 C281 1.339 . S
C283 C282 1.395 . S
C283 H309 0.929 . S
C284 C282 1.320 . S
C284 C285 1.405 . S
C284 H310 0.930 . S
C285 C280 1.479 . S
C285 C284 1.405 . S
C285 H311 0.931 . S
U286 O287 2.454 . S
U286 O288 2.458 . S
U286 C289 2.984 . S
U286 C290 2.847 . S
U286 C303 2.882 . S
U286 O304 2.441 . S
U286 O305 2.420 . S
U286 O306 2.455 . S
U286 O307 2.449 . S
O287 U286 2.454 . S
O287 C289 1.353 . S
O288 U286 2.458 . S
O288 C289 1.286 . S
C289 U286 2.984 . S
C289 O287 1.353 . S
C289 O288 1.286 . S
C289 C291 1.363 . S
C290 C280 1.465 . S
C290 U286 2.847 . S
C290 O304 1.249 . S
C290 O305 1.202 . S
C291 C289 1.363 . S
C291 C293 1.408 . S
C291 C296 1.342 . S
C292 C293 1.310 . S
C292 C295 1.461 . S
C292 H312 0.932 . S
C293 C291 1.408 . S
C293 C292 1.310 . S
C293 H313 0.930 . S
C294 C295 1.474 . S
C294 C296 1.285 . S
C294 H314 0.929 . S
C295 C292 1.461 . S
C295 C294 1.474 . S
C296 C291 1.342 . S
C296 C294 1.285 . S
C296 H315 0.930 . S
C297 C300 1.424 . S
C297 C302 1.245 . S
C297 C303 1.428 . S
C298 C301 1.260 . S
C298 C302 1.477 . S
C298 H316 0.932 . S
C299 C300 1.384 . S
C299 C301 1.479 . S
C299 H317 0.929 . S
C300 C297 1.424 . S
C300 C299 1.384 . S
C300 H318 0.928 . S
C301 C298 1.260 . S
C301 C299 1.479 . S
C302 C297 1.245 . S
C302 C298 1.477 . S
C302 H319 0.932 . S
C303 U286 2.882 . S
C303 C297 1.428 . S
C303 O306 1.301 . S
C303 O307 1.282 . S
O304 U286 2.441 . S
O304 C290 1.249 . S
O305 U286 2.420 . S
O305 C290 1.202 . S
O306 U286 2.455 . S
O306 C303 1.301 . S
O307 U286 2.449 . S
O307 C303 1.282 . S
H308 C281 0.931 . S
H309 C283 0.929 . S
H310 C284 0.930 . S
H311 C285 0.931 . S
H312 C292 0.932 . S
H313 C293 0.930 . S
H314 C294 0.929 . S
H315 C296 0.930 . S
H316 C298 0.932 . S
H317 C299 0.929 . S
H318 C300 0.928 . S
H319 C302 0.932 . S
C320 C321 1.264 . S
C320 C325 1.479 . S
C320 C330 1.465 . S
C321 C320 1.264 . S
C321 C323 1.339 . S
C321 H348 0.931 . S
C322 C323 1.395 . S
C322 C324 1.320 . S
C323 C321 1.339 . S
C323 C322 1.395 . S
C323 H349 0.929 . S
C324 C322 1.320 . S
C324 C325 1.405 . S
C324 H350 0.930 . S
C325 C320 1.479 . S
C325 C324 1.405 . S
C325 H351 0.931 . S
U326 O327 2.454 . S
U326 O328 2.458 . S
U326 C329 2.984 . S
U326 C330 2.847 . S
U326 C343 2.882 . S
U326 O344 2.441 . S
U326 O345 2.420 . S
U326 O346 2.455 . S
U326 O347 2.449 . S
O327 U326 2.454 . S
O327 C329 1.353 . S
O328 U326 2.458 . S
O328 C329 1.286 . S
C329 U326 2.984 . S
C329 O327 1.353 . S
C329 O328 1.286 . S
C329 C331 1.363 . S
C330 C320 1.465 . S
C330 U326 2.847 . S
C330 O344 1.249 . S
C330 O345 1.202 . S
C331 C329 1.363 . S
C331 C333 1.408 . S
C331 C336 1.342 . S
C332 C333 1.310 . S
C332 C335 1.461 . S
C332 H352 0.932 . S
C333 C331 1.408 . S
C333 C332 1.310 . S
C333 H353 0.930 . S
C334 C335 1.474 . S
C334 C336 1.285 . S
C334 H354 0.929 . S
C335 C332 1.461 . S
C335 C334 1.474 . S
C336 C331 1.342 . S
C336 C334 1.285 . S
C336 H355 0.930 . S
C337 C340 1.424 . S
C337 C342 1.245 . S
C337 C343 1.428 . S
C338 C341 1.260 . S
C338 C342 1.477 . S
C338 H356 0.932 . S
C339 C340 1.384 . S
C339 C341 1.479 . S
C339 H357 0.929 . S
C340 C337 1.424 . S
C340 C339 1.384 . S
C340 H358 0.928 . S
C341 C338 1.260 . S
C341 C339 1.479 . S
C342 C337 1.245 . S
C342 C338 1.477 . S
C342 H359 0.932 . S
C343 U326 2.882 . S
C343 C337 1.428 . S
C343 O346 1.301 . S
C343 O347 1.282 . S
O344 U326 2.441 . S
O344 C330 1.249 . S
O345 U326 2.420 . S
O345 C330 1.202 . S
O346 U326 2.455 . S
O346 C343 1.301 . S
O347 U326 2.449 . S
O347 C343 1.282 . S
H348 C321 0.931 . S
H349 C323 0.929 . S
H350 C324 0.930 . S
H351 C325 0.931 . S
H352 C332 0.932 . S
H353 C333 0.930 . S
H354 C334 0.929 . S
H355 C336 0.930 . S
H356 C338 0.932 . S
H357 C339 0.929 . S
H358 C340 0.928 . S
H359 C342 0.932 . S
C360 C361 1.264 . S
C360 C365 1.479 . S
C360 C370 1.465 . S
C361 C360 1.264 . S
C361 C363 1.339 . S
C361 H388 0.931 . S
C362 C363 1.395 . S
C362 C364 1.320 . S
C363 C361 1.339 . S
C363 C362 1.395 . S
C363 H389 0.929 . S
C364 C362 1.320 . S
C364 C365 1.405 . S
C364 H390 0.930 . S
C365 C360 1.479 . S
C365 C364 1.405 . S
C365 H391 0.931 . S
U366 O367 2.454 . S
U366 O368 2.458 . S
U366 C369 2.984 . S
U366 C370 2.847 . S
U366 C383 2.882 . S
U366 O384 2.441 . S
U366 O385 2.420 . S
U366 O386 2.455 . S
U366 O387 2.449 . S
O367 U366 2.454 . S
O367 C369 1.353 . S
O368 U366 2.458 . S
O368 C369 1.286 . S
C369 U366 2.984 . S
C369 O367 1.353 . S
C369 O368 1.286 . S
C369 C371 1.363 . S
C370 C360 1.465 . S
C370 U366 2.847 . S
C370 O384 1.249 . S
C370 O385 1.202 . S
C371 C369 1.363 . S
C371 C373 1.408 . S
C371 C376 1.342 . S
C372 C373 1.310 . S
C372 C375 1.461 . S
C372 H392 0.932 . S
C373 C371 1.408 . S
C373 C372 1.310 . S
C373 H393 0.930 . S
C374 C375 1.474 . S
C374 C376 1.285 . S
C374 H394 0.929 . S
C375 C372 1.461 . S
C375 C374 1.474 . S
C376 C371 1.342 . S
C376 C374 1.285 . S
C376 H395 0.930 . S
C377 C380 1.424 . S
C377 C382 1.245 . S
C377 C383 1.428 . S
C378 C381 1.260 . S
C378 C382 1.477 . S
C378 H396 0.932 . S
C379 C380 1.384 . S
C379 C381 1.479 . S
C379 H397 0.929 . S
C380 C377 1.424 . S
C380 C379 1.384 . S
C380 H398 0.928 . S
C381 C378 1.260 . S
C381 C379 1.479 . S
C382 C377 1.245 . S
C382 C378 1.477 . S
C382 H399 0.932 . S
C383 U366 2.882 . S
C383 C377 1.428 . S
C383 O386 1.301 . S
C383 O387 1.282 . S
O384 U366 2.441 . S
O384 C370 1.249 . S
O385 U366 2.420 . S
O385 C370 1.202 . S
O386 U366 2.455 . S
O386 C383 1.301 . S
O387 U366 2.449 . S
O387 C383 1.282 . S
H388 C361 0.931 . S
H389 C363 0.929 . S
H390 C364 0.930 . S
H391 C365 0.931 . S
H392 C372 0.932 . S
H393 C373 0.930 . S
H394 C374 0.929 . S
H395 C376 0.930 . S
H396 C378 0.932 . S
H397 C379 0.929 . S
H398 C380 0.928 . S
H399 C382 0.932 . S
C400 C401 1.264 . S
C400 C405 1.479 . S
C400 C410 1.465 . S
C401 C400 1.264 . S
C401 C403 1.339 . S
C401 H428 0.931 . S
C402 C403 1.395 . S
C402 C404 1.320 . S
C403 C401 1.339 . S
C403 C402 1.395 . S
C403 H429 0.929 . S
C404 C402 1.320 . S
C404 C405 1.405 . S
C404 H430 0.930 . S
C405 C400 1.479 . S
C405 C404 1.405 . S
C405 H431 0.931 . S
U406 O407 2.454 . S
U406 O408 2.458 . S
U406 C409 2.984 . S
U406 C410 2.847 . S
U406 C423 2.882 . S
U406 O424 2.441 . S
U406 O425 2.420 . S
U406 O426 2.455 . S
U406 O427 2.449 . S
O407 U406 2.454 . S
O407 C409 1.353 . S
O408 U406 2.458 . S
O408 C409 1.286 . S
C409 U406 2.984 . S
C409 O407 1.353 . S
C409 O408 1.286 . S
C409 C411 1.363 . S
C410 C400 1.465 . S
C410 U406 2.847 . S
C410 O424 1.249 . S
C410 O425 1.202 . S
C411 C409 1.363 . S
C411 C413 1.408 . S
C411 C416 1.342 . S
C412 C413 1.310 . S
C412 C415 1.461 . S
C412 H432 0.932 . S
C413 C411 1.408 . S
C413 C412 1.310 . S
C413 H433 0.930 . S
C414 C415 1.474 . S
C414 C416 1.285 . S
C414 H434 0.929 . S
C415 C412 1.461 . S
C415 C414 1.474 . S
C416 C411 1.342 . S
C416 C414 1.285 . S
C416 H435 0.930 . S
C417 C420 1.424 . S
C417 C422 1.245 . S
C417 C423 1.428 . S
C418 C421 1.260 . S
C418 C422 1.477 . S
C418 H436 0.932 . S
C419 C420 1.384 . S
C419 C421 1.479 . S
C419 H437 0.929 . S
C420 C417 1.424 . S
C420 C419 1.384 . S
C420 H438 0.928 . S
C421 C418 1.260 . S
C421 C419 1.479 . S
C422 C417 1.245 . S
C422 C418 1.477 . S
C422 H439 0.932 . S
C423 U406 2.882 . S
C423 C417 1.428 . S
C423 O426 1.301 . S
C423 O427 1.282 . S
O424 U406 2.441 . S
O424 C410 1.249 . S
O425 U406 2.420 . S
O425 C410 1.202 . S
O426 U406 2.455 . S
O426 C423 1.301 . S
O427 U406 2.449 . S
O427 C423 1.282 . S
H428 C401 0.931 . S
H429 C403 0.929 . S
H430 C404 0.930 . S
H431 C405 0.931 . S
H432 C412 0.932 . S
H433 C413 0.930 . S
H434 C414 0.929 . S
H435 C416 0.930 . S
H436 C418 0.932 . S
H437 C419 0.929 . S
H438 C420 0.928 . S
H439 C422 0.932 . S
C440 C441 1.264 . S
C440 C445 1.479 . S
C440 C450 1.465 . S
C441 C440 1.264 . S
C441 C443 1.339 . S
C441 H468 0.931 . S
C442 C443 1.395 . S
C442 C444 1.320 . S
C443 C441 1.339 . S
C443 C442 1.395 . S
C443 H469 0.929 . S
C444 C442 1.320 . S
C444 C445 1.405 . S
C444 H470 0.930 . S
C445 C440 1.479 . S
C445 C444 1.405 . S
C445 H471 0.931 . S
U446 O447 2.454 . S
U446 O448 2.458 . S
U446 C449 2.984 . S
U446 C450 2.847 . S
U446 C463 2.882 . S
U446 O464 2.441 . S
U446 O465 2.420 . S
U446 O466 2.455 . S
U446 O467 2.449 . S
O447 U446 2.454 . S
O447 C449 1.353 . S
O448 U446 2.458 . S
O448 C449 1.286 . S
C449 U446 2.984 . S
C449 O447 1.353 . S
C449 O448 1.286 . S
C449 C451 1.363 . S
C450 C440 1.465 . S
C450 U446 2.847 . S
C450 O464 1.249 . S
C450 O465 1.202 . S
C451 C449 1.363 . S
C451 C453 1.408 . S
C451 C456 1.342 . S
C452 C453 1.310 . S
C452 C455 1.461 . S
C452 H472 0.932 . S
C453 C451 1.408 . S
C453 C452 1.310 . S
C453 H473 0.930 . S
C454 C455 1.474 . S
C454 C456 1.285 . S
C454 H474 0.929 . S
C455 C452 1.461 . S
C455 C454 1.474 . S
C456 C451 1.342 . S
C456 C454 1.285 . S
C456 H475 0.930 . S
C457 C460 1.424 . S
C457 C462 1.245 . S
C457 C463 1.428 . S
C458 C461 1.260 . S
C458 C462 1.477 . S
C458 H476 0.932 . S
C459 C460 1.384 . S
C459 C461 1.479 . S
C459 H477 0.929 . S
C460 C457 1.424 . S
C460 C459 1.384 . S
C460 H478 0.928 . S
C461 C458 1.260 . S
C461 C459 1.479 . S
C462 C457 1.245 . S
C462 C458 1.477 . S
C462 H479 0.932 . S
C463 U446 2.882 . S
C463 C457 1.428 . S
C463 O466 1.301 . S
C463 O467 1.282 . S
O464 U446 2.441 . S
O464 C450 1.249 . S
O465 U446 2.420 . S
O465 C450 1.202 . S
O466 U446 2.455 . S
O466 C463 1.301 . S
O467 U446 2.449 . S
O467 C463 1.282 . S
H468 C441 0.931 . S
H469 C443 0.929 . S
H470 C444 0.930 . S
H471 C445 0.931 . S
H472 C452 0.932 . S
H473 C453 0.930 . S
H474 C454 0.929 . S
H475 C456 0.930 . S
H476 C458 0.932 . S
H477 C459 0.929 . S
H478 C460 0.928 . S
H479 C462 0.932 . S
C480 C481 1.264 . S
C480 C485 1.479 . S
C480 C490 1.465 . S
C481 C480 1.264 . S
C481 C483 1.339 . S
C481 H508 0.931 . S
C482 C483 1.395 . S
C482 C484 1.320 . S
C483 C481 1.339 . S
C483 C482 1.395 . S
C483 H509 0.929 . S
C484 C482 1.320 . S
C484 C485 1.405 . S
C484 H510 0.930 . S
C485 C480 1.479 . S
C485 C484 1.405 . S
C485 H511 0.931 . S
U486 O487 2.454 . S
U486 O488 2.458 . S
U486 C489 2.984 . S
U486 C490 2.847 . S
U486 C503 2.882 . S
U486 O504 2.441 . S
U486 O505 2.420 . S
U486 O506 2.455 . S
U486 O507 2.449 . S
O487 U486 2.454 . S
O487 C489 1.353 . S
O488 U486 2.458 . S
O488 C489 1.286 . S
C489 U486 2.984 . S
C489 O487 1.353 . S
C489 O488 1.286 . S
C489 C491 1.363 . S
C490 C480 1.465 . S
C490 U486 2.847 . S
C490 O504 1.249 . S
C490 O505 1.202 . S
C491 C489 1.363 . S
C491 C493 1.408 . S
C491 C496 1.342 . S
C492 C493 1.310 . S
C492 C495 1.461 . S
C492 H512 0.932 . S
C493 C491 1.408 . S
C493 C492 1.310 . S
C493 H513 0.930 . S
C494 C495 1.474 . S
C494 C496 1.285 . S
C494 H514 0.929 . S
C495 C492 1.461 . S
C495 C494 1.474 . S
C496 C491 1.342 . S
C496 C494 1.285 . S
C496 H515 0.930 . S
C497 C500 1.424 . S
C497 C502 1.245 . S
C497 C503 1.428 . S
C498 C501 1.260 . S
C498 C502 1.477 . S
C498 H516 0.932 . S
C499 C500 1.384 . S
C499 C501 1.479 . S
C499 H517 0.929 . S
C500 C497 1.424 . S
C500 C499 1.384 . S
C500 H518 0.928 . S
C501 C498 1.260 . S
C501 C499 1.479 . S
C502 C497 1.245 . S
C502 C498 1.477 . S
C502 H519 0.932 . S
C503 U486 2.882 . S
C503 C497 1.428 . S
C503 O506 1.301 . S
C503 O507 1.282 . S
O504 U486 2.441 . S
O504 C490 1.249 . S
O505 U486 2.420 . S
O505 C490 1.202 . S
O506 U486 2.455 . S
O506 C503 1.301 . S
O507 U486 2.449 . S
O507 C503 1.282 . S
H508 C481 0.931 . S
H509 C483 0.929 . S
H510 C484 0.930 . S
H511 C485 0.931 . S
H512 C492 0.932 . S
H513 C493 0.930 . S
H514 C494 0.929 . S
H515 C496 0.930 . S
H516 C498 0.932 . S
H517 C499 0.929 . S
H518 C500 0.928 . S
H519 C502 0.932 . S
C520 C521 1.264 . S
C520 C525 1.479 . S
C520 C530 1.465 . S
C521 C520 1.264 . S
C521 C523 1.339 . S
C521 H548 0.931 . S
C522 C523 1.395 . S
C522 C524 1.320 . S
C523 C521 1.339 . S
C523 C522 1.395 . S
C523 H549 0.929 . S
C524 C522 1.320 . S
C524 C525 1.405 . S
C524 H550 0.930 . S
C525 C520 1.479 . S
C525 C524 1.405 . S
C525 H551 0.931 . S
U526 O527 2.454 . S
U526 O528 2.458 . S
U526 C529 2.984 . S
U526 C530 2.847 . S
U526 C543 2.882 . S
U526 O544 2.441 . S
U526 O545 2.420 . S
U526 O546 2.455 . S
U526 O547 2.449 . S
O527 U526 2.454 . S
O527 C529 1.353 . S
O528 U526 2.458 . S
O528 C529 1.286 . S
C529 U526 2.984 . S
C529 O527 1.353 . S
C529 O528 1.286 . S
C529 C531 1.363 . S
C530 C520 1.465 . S
C530 U526 2.847 . S
C530 O544 1.249 . S
C530 O545 1.202 . S
C531 C529 1.363 . S
C531 C533 1.408 . S
C531 C536 1.342 . S
C532 C533 1.310 . S
C532 C535 1.461 . S
C532 H552 0.932 . S
C533 C531 1.408 . S
C533 C532 1.310 . S
C533 H553 0.930 . S
C534 C535 1.474 . S
C534 C536 1.285 . S
C534 H554 0.929 . S
C535 C532 1.461 . S
C535 C534 1.474 . S
C536 C531 1.342 . S
C536 C534 1.285 . S
C536 H555 0.930 . S
C537 C540 1.424 . S
C537 C542 1.245 . S
C537 C543 1.428 . S
C538 C541 1.260 . S
C538 C542 1.477 . S
C538 H556 0.932 . S
C539 C540 1.384 . S
C539 C541 1.479 . S
C539 H557 0.929 . S
C540 C537 1.424 . S
C540 C539 1.384 . S
C540 H558 0.928 . S
C541 C538 1.260 . S
C541 C539 1.479 . S
C542 C537 1.245 . S
C542 C538 1.477 . S
C542 H559 0.932 . S
C543 U526 2.882 . S
C543 C537 1.428 . S
C543 O546 1.301 . S
C543 O547 1.282 . S
O544 U526 2.441 . S
O544 C530 1.249 . S
O545 U526 2.420 . S
O545 C530 1.202 . S
O546 U526 2.455 . S
O546 C543 1.301 . S
O547 U526 2.449 . S
O547 C543 1.282 . S
H548 C521 0.931 . S
H549 C523 0.929 . S
H550 C524 0.930 . S
H551 C525 0.931 . S
H552 C532 0.932 . S
H553 C533 0.930 . S
H554 C534 0.929 . S
H555 C536 0.930 . S
H556 C538 0.932 . S
H557 C539 0.929 . S
H558 C540 0.928 . S
H559 C542 0.932 . S
C560 C561 1.264 . S
C560 C565 1.479 . S
C560 C570 1.465 . S
C561 C560 1.264 . S
C561 C563 1.339 . S
C561 H588 0.931 . S
C562 C563 1.395 . S
C562 C564 1.320 . S
C563 C561 1.339 . S
C563 C562 1.395 . S
C563 H589 0.929 . S
C564 C562 1.320 . S
C564 C565 1.405 . S
C564 H590 0.930 . S
C565 C560 1.479 . S
C565 C564 1.405 . S
C565 H591 0.931 . S
U566 O567 2.454 . S
U566 O568 2.458 . S
U566 C569 2.984 . S
U566 C570 2.847 . S
U566 C583 2.882 . S
U566 O584 2.441 . S
U566 O585 2.420 . S
U566 O586 2.455 . S
U566 O587 2.449 . S
O567 U566 2.454 . S
O567 C569 1.353 . S
O568 U566 2.458 . S
O568 C569 1.286 . S
C569 U566 2.984 . S
C569 O567 1.353 . S
C569 O568 1.286 . S
C569 C571 1.363 . S
C570 C560 1.465 . S
C570 U566 2.847 . S
C570 O584 1.249 . S
C570 O585 1.202 . S
C571 C569 1.363 . S
C571 C573 1.408 . S
C571 C576 1.342 . S
C572 C573 1.310 . S
C572 C575 1.461 . S
C572 H592 0.932 . S
C573 C571 1.408 . S
C573 C572 1.310 . S
C573 H593 0.930 . S
C574 C575 1.474 . S
C574 C576 1.285 . S
C574 H594 0.929 . S
C575 C572 1.461 . S
C575 C574 1.474 . S
C576 C571 1.342 . S
C576 C574 1.285 . S
C576 H595 0.930 . S
C577 C580 1.424 . S
C577 C582 1.245 . S
C577 C583 1.428 . S
C578 C581 1.260 . S
C578 C582 1.477 . S
C578 H596 0.932 . S
C579 C580 1.384 . S
C579 C581 1.479 . S
C579 H597 0.929 . S
C580 C577 1.424 . S
C580 C579 1.384 . S
C580 H598 0.928 . S
C581 C578 1.260 . S
C581 C579 1.479 . S
C582 C577 1.245 . S
C582 C578 1.477 . S
C582 H599 0.932 . S
C583 U566 2.882 . S
C583 C577 1.428 . S
C583 O586 1.301 . S
C583 O587 1.282 . S
O584 U566 2.441 . S
O584 C570 1.249 . S
O585 U566 2.420 . S
O585 C570 1.202 . S
O586 U566 2.455 . S
O586 C583 1.301 . S
O587 U566 2.449 . S
O587 C583 1.282 . S
H588 C561 0.931 . S
H589 C563 0.929 . S
H590 C564 0.930 . S
H591 C565 0.931 . S
H592 C572 0.932 . S
H593 C573 0.930 . S
H594 C574 0.929 . S
H595 C576 0.930 . S
H596 C578 0.932 . S
H597 C579 0.929 . S
H598 C580 0.928 . S
H599 C582 0.932 . S
C600 C601 1.264 . S
C600 C605 1.479 . S
C600 C610 1.465 . S
C601 C600 1.264 . S
C601 C603 1.339 . S
C601 H628 0.931 . S
C602 C603 1.395 . S
C602 C604 1.320 . S
C603 C601 1.339 . S
C603 C602 1.395 . S
C603 H629 0.929 . S
C604 C602 1.320 . S
C604 C605 1.405 . S
C604 H630 0.930 . S
C605 C600 1.479 . S
C605 C604 1.405 . S
C605 H631 0.931 . S
U606 O607 2.454 . S
U606 O608 2.458 . S
U606 C609 2.984 . S
U606 C610 2.847 . S
U606 C623 2.882 . S
U606 O624 2.441 . S
U606 O625 2.420 . S
U606 O626 2.455 . S
U606 O627 2.449 . S
O607 U606 2.454 . S
O607 C609 1.353 . S
O608 U606 2.458 . S
O608 C609 1.286 . S
C609 U606 2.984 . S
C609 O607 1.353 . S
C609 O608 1.286 . S
C609 C611 1.363 . S
C610 C600 1.465 . S
C610 U606 2.847 . S
C610 O624 1.249 . S
C610 O625 1.202 . S
C611 C609 1.363 . S
C611 C613 1.408 . S
C611 C616 1.342 . S
C612 C613 1.310 . S
C612 C615 1.461 . S
C612 H632 0.932 . S
C613 C611 1.408 . S
C613 C612 1.310 . S
C613 H633 0.930 . S
C614 C615 1.474 . S
C614 C616 1.285 . S
C614 H634 0.929 . S
C615 C612 1.461 . S
C615 C614 1.474 . S
C616 C611 1.342 . S
C616 C614 1.285 . S
C616 H635 0.930 . S
C617 C620 1.424 . S
C617 C622 1.245 . S
C617 C623 1.428 . S
C618 C621 1.260 . S
C618 C622 1.477 . S
C618 H636 0.932 . S
C619 C620 1.384 . S
C619 C621 1.479 . S
C619 H637 0.929 . S
C620 C617 1.424 . S
C620 C619 1.384 . S
C620 H638 0.928 . S
C621 C618 1.260 . S
C621 C619 1.479 . S
C622 C617 1.245 . S
C622 C618 1.477 . S
C622 H639 0.932 . S
C623 U606 2.882 . S
C623 C617 1.428 . S
C623 O626 1.301 . S
C623 O627 1.282 . S
O624 U606 2.441 . S
O624 C610 1.249 . S
O625 U606 2.420 . S
O625 C610 1.202 . S
O626 U606 2.455 . S
O626 C623 1.301 . S
O627 U606 2.449 . S
O627 C623 1.282 . S
H628 C601 0.931 . S
H629 C603 0.929 . S
H630 C604 0.930 . S
H631 C605 0.931 . S
H632 C612 0.932 . S
H633 C613 0.930 . S
H634 C614 0.929 . S
H635 C616 0.930 . S
H636 C618 0.932 . S
H637 C619 0.929 . S
H638 C620 0.928 . S
H639 C622 0.932 . S
C640 C641 1.264 . S
C640 C645 1.479 . S
C640 C650 1.465 . S
C641 C640 1.264 . S
C641 C643 1.339 . S
C641 H668 0.931 . S
C642 C643 1.395 . S
C642 C644 1.320 . S
C643 C641 1.339 . S
C643 C642 1.395 . S
C643 H669 0.929 . S
C644 C642 1.320 . S
C644 C645 1.405 . S
C644 H670 0.930 . S
C645 C640 1.479 . S
C645 C644 1.405 . S
C645 H671 0.931 . S
U646 O647 2.454 . S
U646 O648 2.458 . S
U646 C649 2.984 . S
U646 C650 2.847 . S
U646 C663 2.882 . S
U646 O664 2.441 . S
U646 O665 2.420 . S
U646 O666 2.455 . S
U646 O667 2.449 . S
O647 U646 2.454 . S
O647 C649 1.353 . S
O648 U646 2.458 . S
O648 C649 1.286 . S
C649 U646 2.984 . S
C649 O647 1.353 . S
C649 O648 1.286 . S
C649 C651 1.363 . S
C650 C640 1.465 . S
C650 U646 2.847 . S
C650 O664 1.249 . S
C650 O665 1.202 . S
C651 C649 1.363 . S
C651 C653 1.408 . S
C651 C656 1.342 . S
C652 C653 1.310 . S
C652 C655 1.461 . S
C652 H672 0.932 . S
C653 C651 1.408 . S
C653 C652 1.310 . S
C653 H673 0.930 . S
C654 C655 1.474 . S
C654 C656 1.285 . S
C654 H674 0.929 . S
C655 C652 1.461 . S
C655 C654 1.474 . S
C656 C651 1.342 . S
C656 C654 1.285 . S
C656 H675 0.930 . S
C657 C660 1.424 . S
C657 C662 1.245 . S
C657 C663 1.428 . S
C658 C661 1.260 . S
C658 C662 1.477 . S
C658 H676 0.932 . S
C659 C660 1.384 . S
C659 C661 1.479 . S
C659 H677 0.929 . S
C660 C657 1.424 . S
C660 C659 1.384 . S
C660 H678 0.928 . S
C661 C658 1.260 . S
C661 C659 1.479 . S
C662 C657 1.245 . S
C662 C658 1.477 . S
C662 H679 0.932 . S
C663 U646 2.882 . S
C663 C657 1.428 . S
C663 O666 1.301 . S
C663 O667 1.282 . S
O664 U646 2.441 . S
O664 C650 1.249 . S
O665 U646 2.420 . S
O665 C650 1.202 . S
O666 U646 2.455 . S
O666 C663 1.301 . S
O667 U646 2.449 . S
O667 C663 1.282 . S
H668 C641 0.931 . S
H669 C643 0.929 . S
H670 C644 0.930 . S
H671 C645 0.931 . S
H672 C652 0.932 . S
H673 C653 0.930 . S
H674 C654 0.929 . S
H675 C656 0.930 . S
H676 C658 0.932 . S
H677 C659 0.929 . S
H678 C660 0.928 . S
H679 C662 0.932 . S
C680 C681 1.264 . S
C680 C685 1.479 . S
C680 C690 1.465 . S
C681 C680 1.264 . S
C681 C683 1.339 . S
C681 H708 0.931 . S
C682 C683 1.395 . S
C682 C684 1.320 . S
C683 C681 1.339 . S
C683 C682 1.395 . S
C683 H709 0.929 . S
C684 C682 1.320 . S
C684 C685 1.405 . S
C684 H710 0.930 . S
C685 C680 1.479 . S
C685 C684 1.405 . S
C685 H711 0.931 . S
U686 O687 2.454 . S
U686 O688 2.458 . S
U686 C689 2.984 . S
U686 C690 2.847 . S
U686 C703 2.882 . S
U686 O704 2.441 . S
U686 O705 2.420 . S
U686 O706 2.455 . S
U686 O707 2.449 . S
O687 U686 2.454 . S
O687 C689 1.353 . S
O688 U686 2.458 . S
O688 C689 1.286 . S
C689 U686 2.984 . S
C689 O687 1.353 . S
C689 O688 1.286 . S
C689 C691 1.363 . S
C690 C680 1.465 . S
C690 U686 2.847 . S
C690 O704 1.249 . S
C690 O705 1.202 . S
C691 C689 1.363 . S
C691 C693 1.408 . S
C691 C696 1.342 . S
C692 C693 1.310 . S
C692 C695 1.461 . S
C692 H712 0.932 . S
C693 C691 1.408 . S
C693 C692 1.310 . S
C693 H713 0.930 . S
C694 C695 1.474 . S
C694 C696 1.285 . S
C694 H714 0.929 . S
C695 C692 1.461 . S
C695 C694 1.474 . S
C696 C691 1.342 . S
C696 C694 1.285 . S
C696 H715 0.930 . S
C697 C700 1.424 . S
C697 C702 1.245 . S
C697 C703 1.428 . S
C698 C701 1.260 . S
C698 C702 1.477 . S
C698 H716 0.932 . S
C699 C700 1.384 . S
C699 C701 1.479 . S
C699 H717 0.929 . S
C700 C697 1.424 . S
C700 C699 1.384 . S
C700 H718 0.928 . S
C701 C698 1.260 . S
C701 C699 1.479 . S
C702 C697 1.245 . S
C702 C698 1.477 . S
C702 H719 0.932 . S
C703 U686 2.882 . S
C703 C697 1.428 . S
C703 O706 1.301 . S
C703 O707 1.282 . S
O704 U686 2.441 . S
O704 C690 1.249 . S
O705 U686 2.420 . S
O705 C690 1.202 . S
O706 U686 2.455 . S
O706 C703 1.301 . S
O707 U686 2.449 . S
O707 C703 1.282 . S
H708 C681 0.931 . S
H709 C683 0.929 . S
H710 C684 0.930 . S
H711 C685 0.931 . S
H712 C692 0.932 . S
H713 C693 0.930 . S
H714 C694 0.929 . S
H715 C696 0.930 . S
H716 C698 0.932 . S
H717 C699 0.929 . S
H718 C700 0.928 . S
H719 C702 0.932 . S
C720 C721 1.264 . S
C720 C725 1.479 . S
C720 C730 1.465 . S
C721 C720 1.264 . S
C721 C723 1.339 . S
C721 H748 0.931 . S
C722 C723 1.395 . S
C722 C724 1.320 . S
C723 C721 1.339 . S
C723 C722 1.395 . S
C723 H749 0.929 . S
C724 C722 1.320 . S
C724 C725 1.405 . S
C724 H750 0.930 . S
C725 C720 1.479 . S
C725 C724 1.405 . S
C725 H751 0.931 . S
U726 O727 2.454 . S
U726 O728 2.458 . S
U726 C729 2.984 . S
U726 C730 2.847 . S
U726 C743 2.882 . S
U726 O744 2.441 . S
U726 O745 2.420 . S
U726 O746 2.455 . S
U726 O747 2.449 . S
O727 U726 2.454 . S
O727 C729 1.353 . S
O728 U726 2.458 . S
O728 C729 1.286 . S
C729 U726 2.984 . S
C729 O727 1.353 . S
C729 O728 1.286 . S
C729 C731 1.363 . S
C730 C720 1.465 . S
C730 U726 2.847 . S
C730 O744 1.249 . S
C730 O745 1.202 . S
C731 C729 1.363 . S
C731 C733 1.408 . S
C731 C736 1.342 . S
C732 C733 1.310 . S
C732 C735 1.461 . S
C732 H752 0.932 . S
C733 C731 1.408 . S
C733 C732 1.310 . S
C733 H753 0.930 . S
C734 C735 1.474 . S
C734 C736 1.285 . S
C734 H754 0.929 . S
C735 C732 1.461 . S
C735 C734 1.474 . S
C736 C731 1.342 . S
C736 C734 1.285 . S
C736 H755 0.930 . S
C737 C740 1.424 . S
C737 C742 1.245 . S
C737 C743 1.428 . S
C738 C741 1.260 . S
C738 C742 1.477 . S
C738 H756 0.932 . S
C739 C740 1.384 . S
C739 C741 1.479 . S
C739 H757 0.929 . S
C740 C737 1.424 . S
C740 C739 1.384 . S
C740 H758 0.928 . S
C741 C738 1.260 . S
C741 C739 1.479 . S
C742 C737 1.245 . S
C742 C738 1.477 . S
C742 H759 0.932 . S
C743 U726 2.882 . S
C743 C737 1.428 . S
C743 O746 1.301 . S
C743 O747 1.282 . S
O744 U726 2.441 . S
O744 C730 1.249 . S
O745 U726 2.420 . S
O745 C730 1.202 . S
O746 U726 2.455 . S
O746 C743 1.301 . S
O747 U726 2.449 . S
O747 C743 1.282 . S
H748 C721 0.931 . S
H749 C723 0.929 . S
H750 C724 0.930 . S
H751 C725 0.931 . S
H752 C732 0.932 . S
H753 C733 0.930 . S
H754 C734 0.929 . S
H755 C736 0.930 . S
H756 C738 0.932 . S
H757 C739 0.929 . S
H758 C740 0.928 . S
H759 C742 0.932 . S
C760 C761 1.264 . S
C760 C765 1.479 . S
C760 C770 1.465 . S
C761 C760 1.264 . S
C761 C763 1.339 . S
C761 H788 0.931 . S
C762 C763 1.395 . S
C762 C764 1.320 . S
C763 C761 1.339 . S
C763 C762 1.395 . S
C763 H789 0.929 . S
C764 C762 1.320 . S
C764 C765 1.405 . S
C764 H790 0.930 . S
C765 C760 1.479 . S
C765 C764 1.405 . S
C765 H791 0.931 . S
U766 O767 2.454 . S
U766 O768 2.458 . S
U766 C769 2.984 . S
U766 C770 2.847 . S
U766 C783 2.882 . S
U766 O784 2.441 . S
U766 O785 2.420 . S
U766 O786 2.455 . S
U766 O787 2.449 . S
O767 U766 2.454 . S
O767 C769 1.353 . S
O768 U766 2.458 . S
O768 C769 1.286 . S
C769 U766 2.984 . S
C769 O767 1.353 . S
C769 O768 1.286 . S
C769 C771 1.363 . S
C770 C760 1.465 . S
C770 U766 2.847 . S
C770 O784 1.249 . S
C770 O785 1.202 . S
C771 C769 1.363 . S
C771 C773 1.408 . S
C771 C776 1.342 . S
C772 C773 1.310 . S
C772 C775 1.461 . S
C772 H792 0.932 . S
C773 C771 1.408 . S
C773 C772 1.310 . S
C773 H793 0.930 . S
C774 C775 1.474 . S
C774 C776 1.285 . S
C774 H794 0.929 . S
C775 C772 1.461 . S
C775 C774 1.474 . S
C776 C771 1.342 . S
C776 C774 1.285 . S
C776 H795 0.930 . S
C777 C780 1.424 . S
C777 C782 1.245 . S
C777 C783 1.428 . S
C778 C781 1.260 . S
C778 C782 1.477 . S
C778 H796 0.932 . S
C779 C780 1.384 . S
C779 C781 1.479 . S
C779 H797 0.929 . S
C780 C777 1.424 . S
C780 C779 1.384 . S
C780 H798 0.928 . S
C781 C778 1.260 . S
C781 C779 1.479 . S
C782 C777 1.245 . S
C782 C778 1.477 . S
C782 H799 0.932 . S
C783 U766 2.882 . S
C783 C777 1.428 . S
C783 O786 1.301 . S
C783 O787 1.282 . S
O784 U766 2.441 . S
O784 C770 1.249 . S
O785 U766 2.420 . S
O785 C770 1.202 . S
O786 U766 2.455 . S
O786 C783 1.301 . S
O787 U766 2.449 . S
O787 C783 1.282 . S
H788 C761 0.931 . S
H789 C763 0.929 . S
H790 C764 0.930 . S
H791 C765 0.931 . S
H792 C772 0.932 . S
H793 C773 0.930 . S
H794 C774 0.929 . S
H795 C776 0.930 . S
H796 C778 0.932 . S
H797 C779 0.929 . S
H798 C780 0.928 . S
H799 C782 0.932 . S
C800 C801 1.264 . S
C800 C805 1.479 . S
C800 C810 1.465 . S
C801 C800 1.264 . S
C801 C803 1.339 . S
C801 H828 0.931 . S
C802 C803 1.395 . S
C802 C804 1.320 . S
C803 C801 1.339 . S
C803 C802 1.395 . S
C803 H829 0.929 . S
C804 C802 1.320 . S
C804 C805 1.405 . S
C804 H830 0.930 . S
C805 C800 1.479 . S
C805 C804 1.405 . S
C805 H831 0.931 . S
U806 O807 2.454 . S
U806 O808 2.458 . S
U806 C809 2.984 . S
U806 C810 2.847 . S
U806 C823 2.882 . S
U806 O824 2.441 . S
U806 O825 2.420 . S
U806 O826 2.455 . S
U806 O827 2.449 . S
O807 U806 2.454 . S
O807 C809 1.353 . S
O808 U806 2.458 . S
O808 C809 1.286 . S
C809 U806 2.984 . S
C809 O807 1.353 . S
C809 O808 1.286 . S
C809 C811 1.363 . S
C810 C800 1.465 . S
C810 U806 2.847 . S
C810 O824 1.249 . S
C810 O825 1.202 . S
C811 C809 1.363 . S
C811 C813 1.408 . S
C811 C816 1.342 . S
C812 C813 1.310 . S
C812 C815 1.461 . S
C812 H832 0.932 . S
C813 C811 1.408 . S
C813 C812 1.310 . S
C813 H833 0.930 . S
C814 C815 1.474 . S
C814 C816 1.285 . S
C814 H834 0.929 . S
C815 C812 1.461 . S
C815 C814 1.474 . S
C816 C811 1.342 . S
C816 C814 1.285 . S
C816 H835 0.930 . S
C817 C820 1.424 . S
C817 C822 1.245 . S
C817 C823 1.428 . S
C818 C821 1.260 . S
C818 C822 1.477 . S
C818 H836 0.932 . S
C819 C820 1.384 . S
C819 C821 1.479 . S
C819 H837 0.929 . S
C820 C817 1.424 . S
C820 C819 1.384 . S
C820 H838 0.928 . S
C821 C818 1.260 . S
C821 C819 1.479 . S
C822 C817 1.245 . S
C822 C818 1.477 . S
C822 H839 0.932 . S
C823 U806 2.882 . S
C823 C817 1.428 . S
C823 O826 1.301 . S
C823 O827 1.282 . S
O824 U806 2.441 . S
O824 C810 1.249 . S
O825 U806 2.420 . S
O825 C810 1.202 . S
O826 U806 2.455 . S
O826 C823 1.301 . S
O827 U806 2.449 . S
O827 C823 1.282 . S
H828 C801 0.931 . S
H829 C803 0.929 . S
H830 C804 0.930 . S
H831 C805 0.931 . S
H832 C812 0.932 . S
H833 C813 0.930 . S
H834 C814 0.929 . S
H835 C816 0.930 . S
H836 C818 0.932 . S
H837 C819 0.929 . S
H838 C820 0.928 . S
H839 C822 0.932 . S
C840 C841 1.264 . S
C840 C845 1.479 . S
C840 C850 1.465 . S
C841 C840 1.264 . S
C841 C843 1.339 . S
C841 H868 0.931 . S
C842 C843 1.395 . S
C842 C844 1.320 . S
C843 C841 1.339 . S
C843 C842 1.395 . S
C843 H869 0.929 . S
C844 C842 1.320 . S
C844 C845 1.405 . S
C844 H870 0.930 . S
C845 C840 1.479 . S
C845 C844 1.405 . S
C845 H871 0.931 . S
U846 O847 2.454 . S
U846 O848 2.458 . S
U846 C849 2.984 . S
U846 C850 2.847 . S
U846 C863 2.882 . S
U846 O864 2.441 . S
U846 O865 2.420 . S
U846 O866 2.455 . S
U846 O867 2.449 . S
O847 U846 2.454 . S
O847 C849 1.353 . S
O848 U846 2.458 . S
O848 C849 1.286 . S
C849 U846 2.984 . S
C849 O847 1.353 . S
C849 O848 1.286 . S
C849 C851 1.363 . S
C850 C840 1.465 . S
C850 U846 2.847 . S
C850 O864 1.249 . S
C850 O865 1.202 . S
C851 C849 1.363 . S
C851 C853 1.408 . S
C851 C856 1.342 . S
C852 C853 1.310 . S
C852 C855 1.461 . S
C852 H872 0.932 . S
C853 C851 1.408 . S
C853 C852 1.310 . S
C853 H873 0.930 . S
C854 C855 1.474 . S
C854 C856 1.285 . S
C854 H874 0.929 . S
C855 C852 1.461 . S
C855 C854 1.474 . S
C856 C851 1.342 . S
C856 C854 1.285 . S
C856 H875 0.930 . S
C857 C860 1.424 . S
C857 C862 1.245 . S
C857 C863 1.428 . S
C858 C861 1.260 . S
C858 C862 1.477 . S
C858 H876 0.932 . S
C859 C860 1.384 . S
C859 C861 1.479 . S
C859 H877 0.929 . S
C860 C857 1.424 . S
C860 C859 1.384 . S
C860 H878 0.928 . S
C861 C858 1.260 . S
C861 C859 1.479 . S
C862 C857 1.245 . S
C862 C858 1.477 . S
C862 H879 0.932 . S
C863 U846 2.882 . S
C863 C857 1.428 . S
C863 O866 1.301 . S
C863 O867 1.282 . S
O864 U846 2.441 . S
O864 C850 1.249 . S
O865 U846 2.420 . S
O865 C850 1.202 . S
O866 U846 2.455 . S
O866 C863 1.301 . S
O867 U846 2.449 . S
O867 C863 1.282 . S
H868 C841 0.931 . S
H869 C843 0.929 . S
H870 C844 0.930 . S
H871 C845 0.931 . S
H872 C852 0.932 . S
H873 C853 0.930 . S
H874 C854 0.929 . S
H875 C856 0.930 . S
H876 C858 0.932 . S
H877 C859 0.929 . S
H878 C860 0.928 . S
H879 C862 0.932 . S
C880 C881 1.264 . S
C880 C885 1.479 . S
C880 C890 1.465 . S
C881 C880 1.264 . S
C881 C883 1.339 . S
C881 H908 0.931 . S
C882 C883 1.395 . S
C882 C884 1.320 . S
C883 C881 1.339 . S
C883 C882 1.395 . S
C883 H909 0.929 . S
C884 C882 1.320 . S
C884 C885 1.405 . S
C884 H910 0.930 . S
C885 C880 1.479 . S
C885 C884 1.405 . S
C885 H911 0.931 . S
U886 O887 2.454 . S
U886 O888 2.458 . S
U886 C889 2.984 . S
U886 C890 2.847 . S
U886 C903 2.882 . S
U886 O904 2.441 . S
U886 O905 2.420 . S
U886 O906 2.455 . S
U886 O907 2.449 . S
O887 U886 2.454 . S
O887 C889 1.353 . S
O888 U886 2.458 . S
O888 C889 1.286 . S
C889 U886 2.984 . S
C889 O887 1.353 . S
C889 O888 1.286 . S
C889 C891 1.363 . S
C890 C880 1.465 . S
C890 U886 2.847 . S
C890 O904 1.249 . S
C890 O905 1.202 . S
C891 C889 1.363 . S
C891 C893 1.408 . S
C891 C896 1.342 . S
C892 C893 1.310 . S
C892 C895 1.461 . S
C892 H912 0.932 . S
C893 C891 1.408 . S
C893 C892 1.310 . S
C893 H913 0.930 . S
C894 C895 1.474 . S
C894 C896 1.285 . S
C894 H914 0.929 . S
C895 C892 1.461 . S
C895 C894 1.474 . S
C896 C891 1.342 . S
C896 C894 1.285 . S
C896 H915 0.930 . S
C897 C900 1.424 . S
C897 C902 1.245 . S
C897 C903 1.428 . S
C898 C901 1.260 . S
C898 C902 1.477 . S
C898 H916 0.932 . S
C899 C900 1.384 . S
C899 C901 1.479 . S
C899 H917 0.929 . S
C900 C897 1.424 . S
C900 C899 1.384 . S
C900 H918 0.928 . S
C901 C898 1.260 . S
C901 C899 1.479 . S
C902 C897 1.245 . S
C902 C898 1.477 . S
C902 H919 0.932 . S
C903 U886 2.882 . S
C903 C897 1.428 . S
C903 O906 1.301 . S
C903 O907 1.282 . S
O904 U886 2.441 . S
O904 C890 1.249 . S
O905 U886 2.420 . S
O905 C890 1.202 . S
O906 U886 2.455 . S
O906 C903 1.301 . S
O907 U886 2.449 . S
O907 C903 1.282 . S
H908 C881 0.931 . S
H909 C883 0.929 . S
H910 C884 0.930 . S
H911 C885 0.931 . S
H912 C892 0.932 . S
H913 C893 0.930 . S
H914 C894 0.929 . S
H915 C896 0.930 . S
H916 C898 0.932 . S
H917 C899 0.929 . S
H918 C900 0.928 . S
H919 C902 0.932 . S
C920 C921 1.264 . S
C920 C925 1.479 . S
C920 C930 1.465 . S
C921 C920 1.264 . S
C921 C923 1.339 . S
C921 H948 0.931 . S
C922 C923 1.395 . S
C922 C924 1.320 . S
C923 C921 1.339 . S
C923 C922 1.395 . S
C923 H949 0.929 . S
C924 C922 1.320 . S
C924 C925 1.405 . S
C924 H950 0.930 . S
C925 C920 1.479 . S
C925 C924 1.405 . S
C925 H951 0.931 . S
U926 O927 2.454 . S
U926 O928 2.458 . S
U926 C929 2.984 . S
U926 C930 2.847 . S
U926 C943 2.882 . S
U926 O944 2.441 . S
U926 O945 2.420 . S
U926 O946 2.455 . S
U926 O947 2.449 . S
O927 U926 2.454 . S
O927 C929 1.353 . S
O928 U926 2.458 . S
O928 C929 1.286 . S
C929 U926 2.984 . S
C929 O927 1.353 . S
C929 O928 1.286 . S
C929 C931 1.363 . S
C930 C920 1.465 . S
C930 U926 2.847 . S
C930 O944 1.249 . S
C930 O945 1.202 . S
C931 C929 1.363 . S
C931 C933 1.408 . S
C931 C936 1.342 . S
C932 C933 1.310 . S
C932 C935 1.461 . S
C932 H952 0.932 . S
C933 C931 1.408 . S
C933 C932 1.310 . S
C933 H953 0.930 . S
C934 C935 1.474 . S
C934 C936 1.285 . S
C934 H954 0.929 . S
C935 C932 1.461 . S
C935 C934 1.474 . S
C936 C931 1.342 . S
C936 C934 1.285 . S
C936 H955 0.930 . S
C937 C940 1.424 . S
C937 C942 1.245 . S
C937 C943 1.428 . S
C938 C941 1.260 . S
C938 C942 1.477 . S
C938 H956 0.932 . S
C939 C940 1.384 . S
C939 C941 1.479 . S
C939 H957 0.929 . S
C940 C937 1.424 . S
C940 C939 1.384 . S
C940 H958 0.928 . S
C941 C938 1.260 . S
C941 C939 1.479 . S
C942 C937 1.245 . S
C942 C938 1.477 . S
C942 H959 0.932 . S
C943 U926 2.882 . S
C943 C937 1.428 . S
C943 O946 1.301 . S
C943 O947 1.282 . S
O944 U926 2.441 . S
O944 C930 1.249 . S
O945 U926 2.420 . S
O945 C930 1.202 . S
O946 U926 2.455 . S
O946 C943 1.301 . S
O947 U926 2.449 . S
O947 C943 1.282 . S
H948 C921 0.931 . S
H949 C923 0.929 . S
H950 C924 0.930 . S
H951 C925 0.931 . S
H952 C932 0.932 . S
H953 C933 0.930 . S
H954 C934 0.929 . S
H955 C936 0.930 . S
H956 C938 0.932 . S
H957 C939 0.929 . S
H958 C940 0.928 . S
H959 C942 0.932 . S
C960 C961 1.264 . S
C960 C965 1.479 . S
C960 C970 1.465 . S
C961 C960 1.264 . S
C961 C963 1.339 . S
C961 H988 0.931 . S
C962 C963 1.395 . S
C962 C964 1.320 . S
C963 C961 1.339 . S
C963 C962 1.395 . S
C963 H989 0.929 . S
C964 C962 1.320 . S
C964 C965 1.405 . S
C964 H990 0.930 . S
C965 C960 1.479 . S
C965 C964 1.405 . S
C965 H991 0.931 . S
U966 O967 2.454 . S
U966 O968 2.458 . S
U966 C969 2.984 . S
U966 C970 2.847 . S
U966 C983 2.882 . S
U966 O984 2.441 . S
U966 O985 2.420 . S
U966 O986 2.455 . S
U966 O987 2.449 . S
O967 U966 2.454 . S
O967 C969 1.353 . S
O968 U966 2.458 . S
O968 C969 1.286 . S
C969 U966 2.984 . S
C969 O967 1.353 . S
C969 O968 1.286 . S
C969 C971 1.363 . S
C970 C960 1.465 . S
C970 U966 2.847 . S
C970 O984 1.249 . S
C970 O985 1.202 . S
C971 C969 1.363 . S
C971 C973 1.408 . S
C971 C976 1.342 . S
C972 C973 1.310 . S
C972 C975 1.461 . S
C972 H992 0.932 . S
C973 C971 1.408 . S
C973 C972 1.310 . S
C973 H993 0.930 . S
C974 C975 1.474 . S
C974 C976 1.285 . S
C974 H994 0.929 . S
C975 C972 1.461 . S
C975 C974 1.474 . S
C976 C971 1.342 . S
C976 C974 1.285 . S
C976 H995 0.930 . S
C977 C980 1.424 . S
C977 C982 1.245 . S
C977 C983 1.428 . S
C978 C981 1.260 . S
C978 C982 1.477 . S
C978 H996 0.932 . S
C979 C980 1.384 . S
C979 C981 1.479 . S
C979 H997 0.929 . S
C980 C977 1.424 . S
C980 C979 1.384 . S
C980 H998 0.928 . S
C981 C978 1.260 . S
C981 C979 1.479 . S
C982 C977 1.245 . S
C982 C978 1.477 . S
C982 H999 0.932 . S
C983 U966 2.882 . S
C983 C977 1.428 . S
C983 O986 1.301 . S
C983 O987 1.282 . S
O984 U966 2.441 . S
O984 C970 1.249 . S
O985 U966 2.420 . S
O985 C970 1.202 . S
O986 U966 2.455 . S
O986 C983 1.301 . S
O987 U966 2.449 . S
O987 C983 1.282 . S
H988 C961 0.931 . S
H989 C963 0.929 . S
H990 C964 0.930 . S
H991 C965 0.931 . S
H992 C972 0.932 . S
H993 C973 0.930 . S
H994 C974 0.929 . S
H995 C976 0.930 . S
H996 C978 0.932 . S
H997 C979 0.929 . S
H998 C980 0.928 . S
H999 C982 0.932 . S
C1000 C1001 1.264 . S
C1000 C1005 1.479 . S
C1000 C1010 1.465 . S
C1001 C1000 1.264 . S
C1001 C1003 1.339 . S
C1001 H1028 0.931 . S
C1002 C1003 1.395 . S
C1002 C1004 1.320 . S
C1003 C1001 1.339 . S
C1003 C1002 1.395 . S
C1003 H1029 0.929 . S
C1004 C1002 1.320 . S
C1004 C1005 1.405 . S
C1004 H1030 0.930 . S
C1005 C1000 1.479 . S
C1005 C1004 1.405 . S
C1005 H1031 0.931 . S
U1006 O1007 2.454 . S
U1006 O1008 2.458 . S
U1006 C1009 2.984 . S
U1006 C1010 2.847 . S
U1006 C1023 2.882 . S
U1006 O1024 2.441 . S
U1006 O1025 2.420 . S
U1006 O1026 2.455 . S
U1006 O1027 2.449 . S
O1007 U1006 2.454 . S
O1007 C1009 1.353 . S
O1008 U1006 2.458 . S
O1008 C1009 1.286 . S
C1009 U1006 2.984 . S
C1009 O1007 1.353 . S
C1009 O1008 1.286 . S
C1009 C1011 1.363 . S
C1010 C1000 1.465 . S
C1010 U1006 2.847 . S
C1010 O1024 1.249 . S
C1010 O1025 1.202 . S
C1011 C1009 1.363 . S
C1011 C1013 1.408 . S
C1011 C1016 1.342 . S
C1012 C1013 1.310 . S
C1012 C1015 1.461 . S
C1012 H1032 0.932 . S
C1013 C1011 1.408 . S
C1013 C1012 1.310 . S
C1013 H1033 0.930 . S
C1014 C1015 1.474 . S
C1014 C1016 1.285 . S
C1014 H1034 0.929 . S
C1015 C1012 1.461 . S
C1015 C1014 1.474 . S
C1016 C1011 1.342 . S
C1016 C1014 1.285 . S
C1016 H1035 0.930 . S
C1017 C1020 1.424 . S
C1017 C1022 1.245 . S
C1017 C1023 1.428 . S
C1018 C1021 1.260 . S
C1018 C1022 1.477 . S
C1018 H1036 0.932 . S
C1019 C1020 1.384 . S
C1019 C1021 1.479 . S
C1019 H1037 0.929 . S
C1020 C1017 1.424 . S
C1020 C1019 1.384 . S
C1020 H1038 0.928 . S
C1021 C1018 1.260 . S
C1021 C1019 1.479 . S
C1022 C1017 1.245 . S
C1022 C1018 1.477 . S
C1022 H1039 0.932 . S
C1023 U1006 2.882 . S
C1023 C1017 1.428 . S
C1023 O1026 1.301 . S
C1023 O1027 1.282 . S
O1024 U1006 2.441 . S
O1024 C1010 1.249 . S
O1025 U1006 2.420 . S
O1025 C1010 1.202 . S
O1026 U1006 2.455 . S
O1026 C1023 1.301 . S
O1027 U1006 2.449 . S
O1027 C1023 1.282 . S
H1028 C1001 0.931 . S
H1029 C1003 0.929 . S
H1030 C1004 0.930 . S
H1031 C1005 0.931 . S
H1032 C1012 0.932 . S
H1033 C1013 0.930 . S
H1034 C1014 0.929 . S
H1035 C1016 0.930 . S
H1036 C1018 0.932 . S
H1037 C1019 0.929 . S
H1038 C1020 0.928 . S
H1039 C1022 0.932 . S
C1040 C1041 1.264 . S
C1040 C1045 1.479 . S
C1040 C1050 1.465 . S
C1041 C1040 1.264 . S
C1041 C1043 1.339 . S
C1041 H1068 0.931 . S
C1042 C1043 1.395 . S
C1042 C1044 1.320 . S
C1043 C1041 1.339 . S
C1043 C1042 1.395 . S
C1043 H1069 0.929 . S
C1044 C1042 1.320 . S
C1044 C1045 1.405 . S
C1044 H1070 0.930 . S
C1045 C1040 1.479 . S
C1045 C1044 1.405 . S
C1045 H1071 0.931 . S
U1046 O1047 2.454 . S
U1046 O1048 2.458 . S
U1046 C1049 2.984 . S
U1046 C1050 2.847 . S
U1046 C1063 2.882 . S
U1046 O1064 2.441 . S
U1046 O1065 2.420 . S
U1046 O1066 2.455 . S
U1046 O1067 2.449 . S
O1047 U1046 2.454 . S
O1047 C1049 1.353 . S
O1048 U1046 2.458 . S
O1048 C1049 1.286 . S
C1049 U1046 2.984 . S
C1049 O1047 1.353 . S
C1049 O1048 1.286 . S
C1049 C1051 1.363 . S
C1050 C1040 1.465 . S
C1050 U1046 2.847 . S
C1050 O1064 1.249 . S
C1050 O1065 1.202 . S
C1051 C1049 1.363 . S
C1051 C1053 1.408 . S
C1051 C1056 1.342 . S
C1052 C1053 1.310 . S
C1052 C1055 1.461 . S
C1052 H1072 0.932 . S
C1053 C1051 1.408 . S
C1053 C1052 1.310 . S
C1053 H1073 0.930 . S
C1054 C1055 1.474 . S
C1054 C1056 1.285 . S
C1054 H1074 0.929 . S
C1055 C1052 1.461 . S
C1055 C1054 1.474 . S
C1056 C1051 1.342 . S
C1056 C1054 1.285 . S
C1056 H1075 0.930 . S
C1057 C1060 1.424 . S
C1057 C1062 1.245 . S
C1057 C1063 1.428 . S
C1058 C1061 1.260 . S
C1058 C1062 1.477 . S
C1058 H1076 0.932 . S
C1059 C1060 1.384 . S
C1059 C1061 1.479 . S
C1059 H1077 0.929 . S
C1060 C1057 1.424 . S
C1060 C1059 1.384 . S
C1060 H1078 0.928 . S
C1061 C1058 1.260 . S
C1061 C1059 1.479 . S
C1062 C1057 1.245 . S
C1062 C1058 1.477 . S
C1062 H1079 0.932 . S
C1063 U1046 2.882 . S
C1063 C1057 1.428 . S
C1063 O1066 1.301 . S
C1063 O1067 1.282 . S
O1064 U1046 2.441 . S
O1064 C1050 1.249 . S
O1065 U1046 2.420 . S
O1065 C1050 1.202 . S
O1066 U1046 2.455 . S
O1066 C1063 1.301 . S
O1067 U1046 2.449 . S
O1067 C1063 1.282 . S
H1068 C1041 0.931 . S
H1069 C1043 0.929 . S
H1070 C1044 0.930 . S
H1071 C1045 0.931 . S
H1072 C1052 0.932 . S
H1073 C1053 0.930 . S
H1074 C1054 0.929 . S
H1075 C1056 0.930 . S
H1076 C1058 0.932 . S
H1077 C1059 0.929 . S
H1078 C1060 0.928 . S
H1079 C1062 0.932 . S
C1080 C1081 1.264 . S
C1080 C1085 1.479 . S
C1080 C1090 1.465 . S
C1081 C1080 1.264 . S
C1081 C1083 1.339 . S
C1081 H1108 0.931 . S
C1082 C1083 1.395 . S
C1082 C1084 1.320 . S
C1083 C1081 1.339 . S
C1083 C1082 1.395 . S
C1083 H1109 0.929 . S
C1084 C1082 1.320 . S
C1084 C1085 1.405 . S
C1084 H1110 0.930 . S
C1085 C1080 1.479 . S
C1085 C1084 1.405 . S
C1085 H1111 0.931 . S
U1086 O1087 2.454 . S
U1086 O1088 2.458 . S
U1086 C1089 2.984 . S
U1086 C1090 2.847 . S
U1086 C1103 2.882 . S
U1086 O1104 2.441 . S
U1086 O1105 2.420 . S
U1086 O1106 2.455 . S
U1086 O1107 2.449 . S
O1087 U1086 2.454 . S
O1087 C1089 1.353 . S
O1088 U1086 2.458 . S
O1088 C1089 1.286 . S
C1089 U1086 2.984 . S
C1089 O1087 1.353 . S
C1089 O1088 1.286 . S
C1089 C1091 1.363 . S
C1090 C1080 1.465 . S
C1090 U1086 2.847 . S
C1090 O1104 1.249 . S
C1090 O1105 1.202 . S
C1091 C1089 1.363 . S
C1091 C1093 1.408 . S
C1091 C1096 1.342 . S
C1092 C1093 1.310 . S
C1092 C1095 1.461 . S
C1092 H1112 0.932 . S
C1093 C1091 1.408 . S
C1093 C1092 1.310 . S
C1093 H1113 0.930 . S
C1094 C1095 1.474 . S
C1094 C1096 1.285 . S
C1094 H1114 0.929 . S
C1095 C1092 1.461 . S
C1095 C1094 1.474 . S
C1096 C1091 1.342 . S
C1096 C1094 1.285 . S
C1096 H1115 0.930 . S
C1097 C1100 1.424 . S
C1097 C1102 1.245 . S
C1097 C1103 1.428 . S
C1098 C1101 1.260 . S
C1098 C1102 1.477 . S
C1098 H1116 0.932 . S
C1099 C1100 1.384 . S
C1099 C1101 1.479 . S
C1099 H1117 0.929 . S
C1100 C1097 1.424 . S
C1100 C1099 1.384 . S
C1100 H1118 0.928 . S
C1101 C1098 1.260 . S
C1101 C1099 1.479 . S
C1102 C1097 1.245 . S
C1102 C1098 1.477 . S
C1102 H1119 0.932 . S
C1103 U1086 2.882 . S
C1103 C1097 1.428 . S
C1103 O1106 1.301 . S
C1103 O1107 1.282 . S
O1104 U1086 2.441 . S
O1104 C1090 1.249 . S
O1105 U1086 2.420 . S
O1105 C1090 1.202 . S
O1106 U1086 2.455 . S
O1106 C1103 1.301 . S
O1107 U1086 2.449 . S
O1107 C1103 1.282 . S
H1108 C1081 0.931 . S
H1109 C1083 0.929 . S
H1110 C1084 0.930 . S
H1111 C1085 0.931 . S
H1112 C1092 0.932 . S
H1113 C1093 0.930 . S
H1114 C1094 0.929 . S
H1115 C1096 0.930 . S
H1116 C1098 0.932 . S
H1117 C1099 0.929 . S
H1118 C1100 0.928 . S
H1119 C1102 0.932 . S
C1120 C1121 1.264 . S
C1120 C1125 1.479 . S
C1120 C1130 1.465 . S
C1121 C1120 1.264 . S
C1121 C1123 1.339 . S
C1121 H1148 0.931 . S
C1122 C1123 1.395 . S
C1122 C1124 1.320 . S
C1123 C1121 1.339 . S
C1123 C1122 1.395 . S
C1123 H1149 0.929 . S
C1124 C1122 1.320 . S
C1124 C1125 1.405 . S
C1124 H1150 0.930 . S
C1125 C1120 1.479 . S
C1125 C1124 1.405 . S
C1125 H1151 0.931 . S
U1126 O1127 2.454 . S
U1126 O1128 2.458 . S
U1126 C1129 2.984 . S
U1126 C1130 2.847 . S
U1126 C1143 2.882 . S
U1126 O1144 2.441 . S
U1126 O1145 2.420 . S
U1126 O1146 2.455 . S
U1126 O1147 2.449 . S
O1127 U1126 2.454 . S
O1127 C1129 1.353 . S
O1128 U1126 2.458 . S
O1128 C1129 1.286 . S
C1129 U1126 2.984 . S
C1129 O1127 1.353 . S
C1129 O1128 1.286 . S
C1129 C1131 1.363 . S
C1130 C1120 1.465 . S
C1130 U1126 2.847 . S
C1130 O1144 1.249 . S
C1130 O1145 1.202 . S
C1131 C1129 1.363 . S
C1131 C1133 1.408 . S
C1131 C1136 1.342 . S
C1132 C1133 1.310 . S
C1132 C1135 1.461 . S
C1132 H1152 0.932 . S
C1133 C1131 1.408 . S
C1133 C1132 1.310 . S
C1133 H1153 0.930 . S
C1134 C1135 1.474 . S
C1134 C1136 1.285 . S
C1134 H1154 0.929 . S
C1135 C1132 1.461 . S
C1135 C1134 1.474 . S
C1136 C1131 1.342 . S
C1136 C1134 1.285 . S
C1136 H1155 0.930 . S
C1137 C1140 1.424 . S
C1137 C1142 1.245 . S
C1137 C1143 1.428 . S
C1138 C1141 1.260 . S
C1138 C1142 1.477 . S
C1138 H1156 0.932 . S
C1139 C1140 1.384 . S
C1139 C1141 1.479 . S
C1139 H1157 0.929 . S
C1140 C1137 1.424 . S
C1140 C1139 1.384 . S
C1140 H1158 0.928 . S
C1141 C1138 1.260 . S
C1141 C1139 1.479 . S
C1142 C1137 1.245 . S
C1142 C1138 1.477 . S
C1142 H1159 0.932 . S
C1143 U1126 2.882 . S
C1143 C1137 1.428 . S
C1143 O1146 1.301 . S
C1143 O1147 1.282 . S
O1144 U1126 2.441 . S
O1144 C1130 1.249 . S
O1145 U1126 2.420 . S
O1145 C1130 1.202 . S
O1146 U1126 2.455 . S
O1146 C1143 1.301 . S
O1147 U1126 2.449 . S
O1147 C1143 1.282 . S
H1148 C1121 0.931 . S
H1149 C1123 0.929 . S
H1150 C1124 0.930 . S
H1151 C1125 0.931 . S
H1152 C1132 0.932 . S
H1153 C1133 0.930 . S
H1154 C1134 0.929 . S
H1155 C1136 0.930 . S
H1156 C1138 0.932 . S
H1157 C1139 0.929 . S
H1158 C1140 0.928 . S
H1159 C1142 0.932 . S
C1160 C1161 1.264 . S
C1160 C1165 1.479 . S
C1160 C1170 1.465 . S
C1161 C1160 1.264 . S
C1161 C1163 1.339 . S
C1161 H1188 0.931 . S
C1162 C1163 1.395 . S
C1162 C1164 1.320 . S
C1163 C1161 1.339 . S
C1163 C1162 1.395 . S
C1163 H1189 0.929 . S
C1164 C1162 1.320 . S
C1164 C1165 1.405 . S
C1164 H1190 0.930 . S
C1165 C1160 1.479 . S
C1165 C1164 1.405 . S
C1165 H1191 0.931 . S
U1166 O1167 2.454 . S
U1166 O1168 2.458 . S
U1166 C1169 2.984 . S
U1166 C1170 2.847 . S
U1166 C1183 2.882 . S
U1166 O1184 2.441 . S
U1166 O1185 2.420 . S
U1166 O1186 2.455 . S
U1166 O1187 2.449 . S
O1167 U1166 2.454 . S
O1167 C1169 1.353 . S
O1168 U1166 2.458 . S
O1168 C1169 1.286 . S
C1169 U1166 2.984 . S
C1169 O1167 1.353 . S
C1169 O1168 1.286 . S
C1169 C1171 1.363 . S
C1170 C1160 1.465 . S
C1170 U1166 2.847 . S
C1170 O1184 1.249 . S
C1170 O1185 1.202 . S
C1171 C1169 1.363 . S
C1171 C1173 1.408 . S
C1171 C1176 1.342 . S
C1172 C1173 1.310 . S
C1172 C1175 1.461 . S
C1172 H1192 0.932 . S
C1173 C1171 1.408 . S
C1173 C1172 1.310 . S
C1173 H1193 0.930 . S
C1174 C1175 1.474 . S
C1174 C1176 1.285 . S
C1174 H1194 0.929 . S
C1175 C1172 1.461 . S
C1175 C1174 1.474 . S
C1176 C1171 1.342 . S
C1176 C1174 1.285 . S
C1176 H1195 0.930 . S
C1177 C1180 1.424 . S
C1177 C1182 1.245 . S
C1177 C1183 1.428 . S
C1178 C1181 1.260 . S
C1178 C1182 1.477 . S
C1178 H1196 0.932 . S
C1179 C1180 1.384 . S
C1179 C1181 1.479 . S
C1179 H1197 0.929 . S
C1180 C1177 1.424 . S
C1180 C1179 1.384 . S
C1180 H1198 0.928 . S
C1181 C1178 1.260 . S
C1181 C1179 1.479 . S
C1182 C1177 1.245 . S
C1182 C1178 1.477 . S
C1182 H1199 0.932 . S
C1183 U1166 2.882 . S
C1183 C1177 1.428 . S
C1183 O1186 1.301 . S
C1183 O1187 1.282 . S
O1184 U1166 2.441 . S
O1184 C1170 1.249 . S
O1185 U1166 2.420 . S
O1185 C1170 1.202 . S
O1186 U1166 2.455 . S
O1186 C1183 1.301 . S
O1187 U1166 2.449 . S
O1187 C1183 1.282 . S
H1188 C1161 0.931 . S
H1189 C1163 0.929 . S
H1190 C1164 0.930 . S
H1191 C1165 0.931 . S
H1192 C1172 0.932 . S
H1193 C1173 0.930 . S
H1194 C1174 0.929 . S
H1195 C1176 0.930 . S
H1196 C1178 0.932 . S
H1197 C1179 0.929 . S
H1198 C1180 0.928 . S
H1199 C1182 0.932 . S
C1200 C1201 1.264 . S
C1200 C1205 1.479 . S
C1200 C1210 1.465 . S
C1201 C1200 1.264 . S
C1201 C1203 1.339 . S
C1201 H1228 0.931 . S
C1202 C1203 1.395 . S
C1202 C1204 1.320 . S
C1203 C1201 1.339 . S
C1203 C1202 1.395 . S
C1203 H1229 0.929 . S
C1204 C1202 1.320 . S
C1204 C1205 1.405 . S
C1204 H1230 0.930 . S
C1205 C1200 1.479 . S
C1205 C1204 1.405 . S
C1205 H1231 0.931 . S
U1206 O1207 2.454 . S
U1206 O1208 2.458 . S
U1206 C1209 2.984 . S
U1206 C1210 2.847 . S
U1206 C1223 2.882 . S
U1206 O1224 2.441 . S
U1206 O1225 2.420 . S
U1206 O1226 2.455 . S
U1206 O1227 2.449 . S
O1207 U1206 2.454 . S
O1207 C1209 1.353 . S
O1208 U1206 2.458 . S
O1208 C1209 1.286 . S
C1209 U1206 2.984 . S
C1209 O1207 1.353 . S
C1209 O1208 1.286 . S
C1209 C1211 1.363 . S
C1210 C1200 1.465 . S
C1210 U1206 2.847 . S
C1210 O1224 1.249 . S
C1210 O1225 1.202 . S
C1211 C1209 1.363 . S
C1211 C1213 1.408 . S
C1211 C1216 1.342 . S
C1212 C1213 1.310 . S
C1212 C1215 1.461 . S
C1212 H1232 0.932 . S
C1213 C1211 1.408 . S
C1213 C1212 1.310 . S
C1213 H1233 0.930 . S
C1214 C1215 1.474 . S
C1214 C1216 1.285 . S
C1214 H1234 0.929 . S
C1215 C1212 1.461 . S
C1215 C1214 1.474 . S
C1216 C1211 1.342 . S
C1216 C1214 1.285 . S
C1216 H1235 0.930 . S
C1217 C1220 1.424 . S
C1217 C1222 1.245 . S
C1217 C1223 1.428 . S
C1218 C1221 1.260 . S
C1218 C1222 1.477 . S
C1218 H1236 0.932 . S
C1219 C1220 1.384 . S
C1219 C1221 1.479 . S
C1219 H1237 0.929 . S
C1220 C1217 1.424 . S
C1220 C1219 1.384 . S
C1220 H1238 0.928 . S
C1221 C1218 1.260 . S
C1221 C1219 1.479 . S
C1222 C1217 1.245 . S
C1222 C1218 1.477 . S
C1222 H1239 0.932 . S
C1223 U1206 2.882 . S
C1223 C1217 1.428 . S
C1223 O1226 1.301 . S
C1223 O1227 1.282 . S
O1224 U1206 2.441 . S
O1224 C1210 1.249 . S
O1225 U1206 2.420 . S
O1225 C1210 1.202 . S
O1226 U1206 2.455 . S
O1226 C1223 1.301 . S
O1227 U1206 2.449 . S
O1227 C1223 1.282 . S
H1228 C1201 0.931 . S
H1229 C1203 0.929 . S
H1230 C1204 0.930 . S
H1231 C1205 0.931 . S
H1232 C1212 0.932 . S
H1233 C1213 0.930 . S
H1234 C1214 0.929 . S
H1235 C1216 0.930 . S
H1236 C1218 0.932 . S
H1237 C1219 0.929 . S
H1238 C1220 0.928 . S
H1239 C1222 0.932 . S
C1240 C1241 1.264 . S
C1240 C1245 1.479 . S
C1240 C1250 1.465 . S
C1241 C1240 1.264 . S
C1241 C1243 1.339 . S
C1241 H1268 0.931 . S
C1242 C1243 1.395 . S
C1242 C1244 1.320 . S
C1243 C1241 1.339 . S
C1243 C1242 1.395 . S
C1243 H1269 0.929 . S
C1244 C1242 1.320 . S
C1244 C1245 1.405 . S
C1244 H1270 0.930 . S
C1245 C1240 1.479 . S
C1245 C1244 1.405 . S
C1245 H1271 0.931 . S
U1246 O1247 2.454 . S
U1246 O1248 2.458 . S
U1246 C1249 2.984 . S
U1246 C1250 2.847 . S
U1246 C1263 2.882 . S
U1246 O1264 2.441 . S
U1246 O1265 2.420 . S
U1246 O1266 2.455 . S
U1246 O1267 2.449 . S
O1247 U1246 2.454 . S
O1247 C1249 1.353 . S
O1248 U1246 2.458 . S
O1248 C1249 1.286 . S
C1249 U1246 2.984 . S
C1249 O1247 1.353 . S
C1249 O1248 1.286 . S
C1249 C1251 1.363 . S
C1250 C1240 1.465 . S
C1250 U1246 2.847 . S
C1250 O1264 1.249 . S
C1250 O1265 1.202 . S
C1251 C1249 1.363 . S
C1251 C1253 1.408 . S
C1251 C1256 1.342 . S
C1252 C1253 1.310 . S
C1252 C1255 1.461 . S
C1252 H1272 0.932 . S
C1253 C1251 1.408 . S
C1253 C1252 1.310 . S
C1253 H1273 0.930 . S
C1254 C1255 1.474 . S
C1254 C1256 1.285 . S
C1254 H1274 0.929 . S
C1255 C1252 1.461 . S
C1255 C1254 1.474 . S
C1256 C1251 1.342 . S
C1256 C1254 1.285 . S
C1256 H1275 0.930 . S
C1257 C1260 1.424 . S
C1257 C1262 1.245 . S
C1257 C1263 1.428 . S
C1258 C1261 1.260 . S
C1258 C1262 1.477 . S
C1258 H1276 0.932 . S
C1259 C1260 1.384 . S
C1259 C1261 1.479 . S
C1259 H1277 0.929 . S
C1260 C1257 1.424 . S
C1260 C1259 1.384 . S
C1260 H1278 0.928 . S
C1261 C1258 1.260 . S
C1261 C1259 1.479 . S
C1262 C1257 1.245 . S
C1262 C1258 1.477 . S
C1262 H1279 0.932 . S
C1263 U1246 2.882 . S
C1263 C1257 1.428 . S
C1263 O1266 1.301 . S
C1263 O1267 1.282 . S
O1264 U1246 2.441 . S
O1264 C1250 1.249 . S
O1265 U1246 2.420 . S
O1265 C1250 1.202 . S
O1266 U1246 2.455 . S
O1266 C1263 1.301 . S
O1267 U1246 2.449 . S
O1267 C1263 1.282 . S
H1268 C1241 0.931 . S
H1269 C1243 0.929 . S
H1270 C1244 0.930 . S
H1271 C1245 0.931 . S
H1272 C1252 0.932 . S
H1273 C1253 0.930 . S
H1274 C1254 0.929 . S
H1275 C1256 0.930 . S
H1276 C1258 0.932 . S
H1277 C1259 0.929 . S
H1278 C1260 0.928 . S
H1279 C1262 0.932 . S
C1280 C1281 1.264 . S
C1280 C1285 1.479 . S
C1280 C1290 1.465 . S
C1281 C1280 1.264 . S
C1281 C1283 1.339 . S
C1281 H1308 0.931 . S
C1282 C1283 1.395 . S
C1282 C1284 1.320 . S
C1283 C1281 1.339 . S
C1283 C1282 1.395 . S
C1283 H1309 0.929 . S
C1284 C1282 1.320 . S
C1284 C1285 1.405 . S
C1284 H1310 0.930 . S
C1285 C1280 1.479 . S
C1285 C1284 1.405 . S
C1285 H1311 0.931 . S
U1286 O1287 2.454 . S
U1286 O1288 2.458 . S
U1286 C1289 2.984 . S
U1286 C1290 2.847 . S
U1286 C1303 2.882 . S
U1286 O1304 2.441 . S
U1286 O1305 2.420 . S
U1286 O1306 2.455 . S
U1286 O1307 2.449 . S
O1287 U1286 2.454 . S
O1287 C1289 1.353 . S
O1288 U1286 2.458 . S
O1288 C1289 1.286 . S
C1289 U1286 2.984 . S
C1289 O1287 1.353 . S
C1289 O1288 1.286 . S
C1289 C1291 1.363 . S
C1290 C1280 1.465 . S
C1290 U1286 2.847 . S
C1290 O1304 1.249 . S
C1290 O1305 1.202 . S
C1291 C1289 1.363 . S
C1291 C1293 1.408 . S
C1291 C1296 1.342 . S
C1292 C1293 1.310 . S
C1292 C1295 1.461 . S
C1292 H1312 0.932 . S
C1293 C1291 1.408 . S
C1293 C1292 1.310 . S
C1293 H1313 0.930 . S
C1294 C1295 1.474 . S
C1294 C1296 1.285 . S
C1294 H1314 0.929 . S
C1295 C1292 1.461 . S
C1295 C1294 1.474 . S
C1296 C1291 1.342 . S
C1296 C1294 1.285 . S
C1296 H1315 0.930 . S
C1297 C1300 1.424 . S
C1297 C1302 1.245 . S
C1297 C1303 1.428 . S
C1298 C1301 1.260 . S
C1298 C1302 1.477 . S
C1298 H1316 0.932 . S
C1299 C1300 1.384 . S
C1299 C1301 1.479 . S
C1299 H1317 0.929 . S
C1300 C1297 1.424 . S
C1300 C1299 1.384 . S
C1300 H1318 0.928 . S
C1301 C1298 1.260 . S
C1301 C1299 1.479 . S
C1302 C1297 1.245 . S
C1302 C1298 1.477 . S
C1302 H1319 0.932 . S
C1303 U1286 2.882 . S
C1303 C1297 1.428 . S
C1303 O1306 1.301 . S
C1303 O1307 1.282 . S
O1304 U1286 2.441 . S
O1304 C1290 1.249 . S
O1305 U1286 2.420 . S
O1305 C1290 1.202 . S
O1306 U1286 2.455 . S
O1306 C1303 1.301 . S
O1307 U1286 2.449 . S
O1307 C1303 1.282 . S
H1308 C1281 0.931 . S
H1309 C1283 0.929 . S
H1310 C1284 0.930 . S
H1311 C1285 0.931 . S
H1312 C1292 0.932 . S
H1313 C1293 0.930 . S
H1314 C1294 0.929 . S
H1315 C1296 0.930 . S
H1316 C1298 0.932 . S
H1317 C1299 0.929 . S
H1318 C1300 0.928 . S
H1319 C1302 0.932 . S
C1320 C1321 1.264 . S
C1320 C1325 1.479 . S
C1320 C1330 1.465 . S
C1321 C1320 1.264 . S
C1321 C1323 1.339 . S
C1321 H1348 0.931 . S
C1322 C1323 1.395 . S
C1322 C1324 1.320 . S
C1323 C1321 1.339 . S
C1323 C1322 1.395 . S
C1323 H1349 0.929 . S
C1324 C1322 1.320 . S
C1324 C1325 1.405 . S
C1324 H1350 0.930 . S
C1325 C1320 1.479 . S
C1325 C1324 1.405 . S
C1325 H1351 0.931 . S
U1326 O1327 2.454 . S
U1326 O1328 2.458 . S
U1326 C1329 2.984 . S
U1326 C1330 2.847 . S
U1326 C1343 2.882 . S
U1326 O1344 2.441 . S
U1326 O1345 2.420 . S
U1326 O1346 2.455 . S
U1326 O1347 2.449 . S
O1327 U1326 2.454 . S
O1327 C1329 1.353 . S
O1328 U1326 2.458 . S
O1328 C1329 1.286 . S
C1329 U1326 2.984 . S
C1329 O1327 1.353 . S
C1329 O1328 1.286 . S
C1329 C1331 1.363 . S
C1330 C1320 1.465 . S
C1330 U1326 2.847 . S
C1330 O1344 1.249 . S
C1330 O1345 1.202 . S
C1331 C1329 1.363 . S
C1331 C1333 1.408 . S
C1331 C1336 1.342 . S
C1332 C1333 1.310 . S
C1332 C1335 1.461 . S
C1332 H1352 0.932 . S
C1333 C1331 1.408 . S
C1333 C1332 1.310 . S
C1333 H1353 0.930 . S
C1334 C1335 1.474 . S
C1334 C1336 1.285 . S
C1334 H1354 0.929 . S
C1335 C1332 1.461 . S
C1335 C1334 1.474 . S
C1336 C1331 1.342 . S
C1336 C1334 1.285 . S
C1336 H1355 0.930 . S
C1337 C1340 1.424 . S
C1337 C1342 1.245 . S
C1337 C1343 1.428 . S
C1338 C1341 1.260 . S
C1338 C1342 1.477 . S
C1338 H1356 0.932 . S
C1339 C1340 1.384 . S
C1339 C1341 1.479 . S
C1339 H1357 0.929 . S
C1340 C1337 1.424 . S
C1340 C1339 1.384 . S
C1340 H1358 0.928 . S
C1341 C1338 1.260 . S
C1341 C1339 1.479 . S
C1342 C1337 1.245 . S
C1342 C1338 1.477 . S
C1342 H1359 0.932 . S
C1343 U1326 2.882 . S
C1343 C1337 1.428 . S
C1343 O1346 1.301 . S
C1343 O1347 1.282 . S
O1344 U1326 2.441 . S
O1344 C1330 1.249 . S
O1345 U1326 2.420 . S
O1345 C1330 1.202 . S
O1346 U1326 2.455 . S
O1346 C1343 1.301 . S
O1347 U1326 2.449 . S
O1347 C1343 1.282 . S
H1348 C1321 0.931 . S
H1349 C1323 0.929 . S
H1350 C1324 0.930 . S
H1351 C1325 0.931 . S
H1352 C1332 0.932 . S
H1353 C1333 0.930 . S
H1354 C1334 0.929 . S
H1355 C1336 0.930 . S
H1356 C1338 0.932 . S
H1357 C1339 0.929 . S
H1358 C1340 0.928 . S
H1359 C1342 0.932 . S
C1360 C1361 1.264 . S
C1360 C1365 1.479 . S
C1360 C1370 1.465 . S
C1361 C1360 1.264 . S
C1361 C1363 1.339 . S
C1361 H1388 0.931 . S
C1362 C1363 1.395 . S
C1362 C1364 1.320 . S
C1363 C1361 1.339 . S
C1363 C1362 1.395 . S
C1363 H1389 0.929 . S
C1364 C1362 1.320 . S
C1364 C1365 1.405 . S
C1364 H1390 0.930 . S
C1365 C1360 1.479 . S
C1365 C1364 1.405 . S
C1365 H1391 0.931 . S
U1366 O1367 2.454 . S
U1366 O1368 2.458 . S
U1366 C1369 2.984 . S
U1366 C1370 2.847 . S
U1366 C1383 2.882 . S
U1366 O1384 2.441 . S
U1366 O1385 2.420 . S
U1366 O1386 2.455 . S
U1366 O1387 2.449 . S
O1367 U1366 2.454 . S
O1367 C1369 1.353 . S
O1368 U1366 2.458 . S
O1368 C1369 1.286 . S
C1369 U1366 2.984 . S
C1369 O1367 1.353 . S
C1369 O1368 1.286 . S
C1369 C1371 1.363 . S
C1370 C1360 1.465 . S
C1370 U1366 2.847 . S
C1370 O1384 1.249 . S
C1370 O1385 1.202 . S
C1371 C1369 1.363 . S
C1371 C1373 1.408 . S
C1371 C1376 1.342 . S
C1372 C1373 1.310 . S
C1372 C1375 1.461 . S
C1372 H1392 0.932 . S
C1373 C1371 1.408 . S
C1373 C1372 1.310 . S
C1373 H1393 0.930 . S
C1374 C1375 1.474 . S
C1374 C1376 1.285 . S
C1374 H1394 0.929 . S
C1375 C1372 1.461 . S
C1375 C1374 1.474 . S
C1376 C1371 1.342 . S
C1376 C1374 1.285 . S
C1376 H1395 0.930 . S
C1377 C1380 1.424 . S
C1377 C1382 1.245 . S
C1377 C1383 1.428 . S
C1378 C1381 1.260 . S
C1378 C1382 1.477 . S
C1378 H1396 0.932 . S
C1379 C1380 1.384 . S
C1379 C1381 1.479 . S
C1379 H1397 0.929 . S
C1380 C1377 1.424 . S
C1380 C1379 1.384 . S
C1380 H1398 0.928 . S
C1381 C1378 1.260 . S
C1381 C1379 1.479 . S
C1382 C1377 1.245 . S
C1382 C1378 1.477 . S
C1382 H1399 0.932 . S
C1383 U1366 2.882 . S
C1383 C1377 1.428 . S
C1383 O1386 1.301 . S
C1383 O1387 1.282 . S
O1384 U1366 2.441 . S
O1384 C1370 1.249 . S
O1385 U1366 2.420 . S
O1385 C1370 1.202 . S
O1386 U1366 2.455 . S
O1386 C1383 1.301 . S
O1387 U1366 2.449 . S
O1387 C1383 1.282 . S
H1388 C1361 0.931 . S
H1389 C1363 0.929 . S
H1390 C1364 0.930 . S
H1391 C1365 0.931 . S
H1392 C1372 0.932 . S
H1393 C1373 0.930 . S
H1394 C1374 0.929 . S
H1395 C1376 0.930 . S
H1396 C1378 0.932 . S
H1397 C1379 0.929 . S
H1398 C1380 0.928 . S
H1399 C1382 0.932 . S
C1400 C1401 1.264 . S
C1400 C1405 1.479 . S
C1400 C1410 1.465 . S
C1401 C1400 1.264 . S
C1401 C1403 1.339 . S
C1401 H1428 0.931 . S
C1402 C1403 1.395 . S
C1402 C1404 1.320 . S
C1403 C1401 1.339 . S
C1403 C1402 1.395 . S
C1403 H1429 0.929 . S
C1404 C1402 1.320 . S
C1404 C1405 1.405 . S
C1404 H1430 0.930 . S
C1405 C1400 1.479 . S
C1405 C1404 1.405 . S
C1405 H1431 0.931 . S
U1406 O1407 2.454 . S
U1406 O1408 2.458 . S
U1406 C1409 2.984 . S
U1406 C1410 2.847 . S
U1406 C1423 2.882 . S
U1406 O1424 2.441 . S
U1406 O1425 2.420 . S
U1406 O1426 2.455 . S
U1406 O1427 2.449 . S
O1407 U1406 2.454 . S
O1407 C1409 1.353 . S
O1408 U1406 2.458 . S
O1408 C1409 1.286 . S
C1409 U1406 2.984 . S
C1409 O1407 1.353 . S
C1409 O1408 1.286 . S
C1409 C1411 1.363 . S
C1410 C1400 1.465 . S
C1410 U1406 2.847 . S
C1410 O1424 1.249 . S
C1410 O1425 1.202 . S
C1411 C1409 1.363 . S
C1411 C1413 1.408 . S
C1411 C1416 1.342 . S
C1412 C1413 1.310 . S
C1412 C1415 1.461 . S
C1412 H1432 0.932 . S
C1413 C1411 1.408 . S
C1413 C1412 1.310 . S
C1413 H1433 0.930 . S
C1414 C1415 1.474 . S
C1414 C1416 1.285 . S
C1414 H1434 0.929 . S
C1415 C1412 1.461 . S
C1415 C1414 1.474 . S
C1416 C1411 1.342 . S
C1416 C1414 1.285 . S
C1416 H1435 0.930 . S
C1417 C1420 1.424 . S
C1417 C1422 1.245 . S
C1417 C1423 1.428 . S
C1418 C1421 1.260 . S
C1418 C1422 1.477 . S
C1418 H1436 0.932 . S
C1419 C1420 1.384 . S
C1419 C1421 1.479 . S
C1419 H1437 0.929 . S
C1420 C1417 1.424 . S
C1420 C1419 1.384 . S
C1420 H1438 0.928 . S
C1421 C1418 1.260 . S
C1421 C1419 1.479 . S
C1422 C1417 1.245 . S
C1422 C1418 1.477 . S
C1422 H1439 0.932 . S
C1423 U1406 2.882 . S
C1423 C1417 1.428 . S
C1423 O1426 1.301 . S
C1423 O1427 1.282 . S
O1424 U1406 2.441 . S
O1424 C1410 1.249 . S
O1425 U1406 2.420 . S
O1425 C1410 1.202 . S
O1426 U1406 2.455 . S
O1426 C1423 1.301 . S
O1427 U1406 2.449 . S
O1427 C1423 1.282 . S
H1428 C1401 0.931 . S
H1429 C1403 0.929 . S
H1430 C1404 0.930 . S
H1431 C1405 0.931 . S
H1432 C1412 0.932 . S
H1433 C1413 0.930 . S
H1434 C1414 0.929 . S
H1435 C1416 0.930 . S
H1436 C1418 0.932 . S
H1437 C1419 0.929 . S
H1438 C1420 0.928 . S
H1439 C1422 0.932 . S
C1440 C1441 1.264 . S
C1440 C1445 1.479 . S
C1440 C1450 1.465 . S
C1441 C1440 1.264 . S
C1441 C1443 1.339 . S
C1441 H1468 0.931 . S
C1442 C1443 1.395 . S
C1442 C1444 1.320 . S
C1443 C1441 1.339 . S
C1443 C1442 1.395 . S
C1443 H1469 0.929 . S
C1444 C1442 1.320 . S
C1444 C1445 1.405 . S
C1444 H1470 0.930 . S
C1445 C1440 1.479 . S
C1445 C1444 1.405 . S
C1445 H1471 0.931 . S
U1446 O1447 2.454 . S
U1446 O1448 2.458 . S
U1446 C1449 2.984 . S
U1446 C1450 2.847 . S
U1446 C1463 2.882 . S
U1446 O1464 2.441 . S
U1446 O1465 2.420 . S
U1446 O1466 2.455 . S
U1446 O1467 2.449 . S
O1447 U1446 2.454 . S
O1447 C1449 1.353 . S
O1448 U1446 2.458 . S
O1448 C1449 1.286 . S
C1449 U1446 2.984 . S
C1449 O1447 1.353 . S
C1449 O1448 1.286 . S
C1449 C1451 1.363 . S
C1450 C1440 1.465 . S
C1450 U1446 2.847 . S
C1450 O1464 1.249 . S
C1450 O1465 1.202 . S
C1451 C1449 1.363 . S
C1451 C1453 1.408 . S
C1451 C1456 1.342 . S
C1452 C1453 1.310 . S
C1452 C1455 1.461 . S
C1452 H1472 0.932 . S
C1453 C1451 1.408 . S
C1453 C1452 1.310 . S
C1453 H1473 0.930 . S
C1454 C1455 1.474 . S
C1454 C1456 1.285 . S
C1454 H1474 0.929 . S
C1455 C1452 1.461 . S
C1455 C1454 1.474 . S
C1456 C1451 1.342 . S
C1456 C1454 1.285 . S
C1456 H1475 0.930 . S
C1457 C1460 1.424 . S
C1457 C1462 1.245 . S
C1457 C1463 1.428 . S
C1458 C1461 1.260 . S
C1458 C1462 1.477 . S
C1458 H1476 0.932 . S
C1459 C1460 1.384 . S
C1459 C1461 1.479 . S
C1459 H1477 0.929 . S
C1460 C1457 1.424 . S
C1460 C1459 1.384 . S
C1460 H1478 0.928 . S
C1461 C1458 1.260 . S
C1461 C1459 1.479 . S
C1462 C1457 1.245 . S
C1462 C1458 1.477 . S
C1462 H1479 0.932 . S
C1463 U1446 2.882 . S
C1463 C1457 1.428 . S
C1463 O1466 1.301 . S
C1463 O1467 1.282 . S
O1464 U1446 2.441 . S
O1464 C1450 1.249 . S
O1465 U1446 2.420 . S
O1465 C1450 1.202 . S
O1466 U1446 2.455 . S
O1466 C1463 1.301 . S
O1467 U1446 2.449 . S
O1467 C1463 1.282 . S
H1468 C1441 0.931 . S
H1469 C1443 0.929 . S
H1470 C1444 0.930 . S
H1471 C1445 0.931 . S
H1472 C1452 0.932 . S
H1473 C1453 0.930 . S
H1474 C1454 0.929 . S
H1475 C1456 0.930 . S
H1476 C1458 0.932 . S
H1477 C1459 0.929 . S
H1478 C1460 0.928 . S
H1479 C1462 0.932 . S
C1480 C1481 1.264 . S
C1480 C1485 1.479 . S
C1480 C1490 1.465 . S
C1481 C1480 1.264 . S
C1481 C1483 1.339 . S
C1481 H1508 0.931 . S
C1482 C1483 1.395 . S
C1482 C1484 1.320 . S
C1483 C1481 1.339 . S
C1483 C1482 1.395 . S
C1483 H1509 0.929 . S
C1484 C1482 1.320 . S
C1484 C1485 1.405 . S
C1484 H1510 0.930 . S
C1485 C1480 1.479 . S
C1485 C1484 1.405 . S
C1485 H1511 0.931 . S
U1486 O1487 2.454 . S
U1486 O1488 2.458 . S
U1486 C1489 2.984 . S
U1486 C1490 2.847 . S
U1486 C1503 2.882 . S
U1486 O1504 2.441 . S
U1486 O1505 2.420 . S
U1486 O1506 2.455 . S
U1486 O1507 2.449 . S
O1487 U1486 2.454 . S
O1487 C1489 1.353 . S
O1488 U1486 2.458 . S
O1488 C1489 1.286 . S
C1489 U1486 2.984 . S
C1489 O1487 1.353 . S
C1489 O1488 1.286 . S
C1489 C1491 1.363 . S
C1490 C1480 1.465 . S
C1490 U1486 2.847 . S
C1490 O1504 1.249 . S
C1490 O1505 1.202 . S
C1491 C1489 1.363 . S
C1491 C1493 1.408 . S
C1491 C1496 1.342 . S
C1492 C1493 1.310 . S
C1492 C1495 1.461 . S
C1492 H1512 0.932 . S
C1493 C1491 1.408 . S
C1493 C1492 1.310 . S
C1493 H1513 0.930 . S
C1494 C1495 1.474 . S
C1494 C1496 1.285 . S
C1494 H1514 0.929 . S
C1495 C1492 1.461 . S
C1495 C1494 1.474 . S
C1496 C1491 1.342 . S
C1496 C1494 1.285 . S
C1496 H1515 0.930 . S
C1497 C1500 1.424 . S
C1497 C1502 1.245 . S
C1497 C1503 1.428 . S
C1498 C1501 1.260 . S
C1498 C1502 1.477 . S
C1498 H1516 0.932 . S
C1499 C1500 1.384 . S
C1499 C1501 1.479 . S
C1499 H1517 0.929 . S
C1500 C1497 1.424 . S
C1500 C1499 1.384 . S
C1500 H1518 0.928 . S
C1501 C1498 1.260 . S
C1501 C1499 1.479 . S
C1502 C1497 1.245 . S
C1502 C1498 1.477 . S
C1502 H1519 0.932 . S
C1503 U1486 2.882 . S
C1503 C1497 1.428 . S
C1503 O1506 1.301 . S
C1503 O1507 1.282 . S
O1504 U1486 2.441 . S
O1504 C1490 1.249 . S
O1505 U1486 2.420 . S
O1505 C1490 1.202 . S
O1506 U1486 2.455 . S
O1506 C1503 1.301 . S
O1507 U1486 2.449 . S
O1507 C1503 1.282 . S
H1508 C1481 0.931 . S
H1509 C1483 0.929 . S
H1510 C1484 0.930 . S
H1511 C1485 0.931 . S
H1512 C1492 0.932 . S
H1513 C1493 0.930 . S
H1514 C1494 0.929 . S
H1515 C1496 0.930 . S
H1516 C1498 0.932 . S
H1517 C1499 0.929 . S
H1518 C1500 0.928 . S
H1519 C1502 0.932 . S
C1520 C1521 1.264 . S
C1520 C1525 1.479 . S
C1520 C1530 1.465 . S
C1521 C1520 1.264 . S
C1521 C1523 1.339 . S
C1521 H1548 0.931 . S
C1522 C1523 1.395 . S
C1522 C1524 1.320 . S
C1523 C1521 1.339 . S
C1523 C1522 1.395 . S
C1523 H1549 0.929 . S
C1524 C1522 1.320 . S
C1524 C1525 1.405 . S
C1524 H1550 0.930 . S
C1525 C1520 1.479 . S
C1525 C1524 1.405 . S
C1525 H1551 0.931 . S
U1526 O1527 2.454 . S
U1526 O1528 2.458 . S
U1526 C1529 2.984 . S
U1526 C1530 2.847 . S
U1526 C1543 2.882 . S
U1526 O1544 2.441 . S
U1526 O1545 2.420 . S
U1526 O1546 2.455 . S
U1526 O1547 2.449 . S
O1527 U1526 2.454 . S
O1527 C1529 1.353 . S
O1528 U1526 2.458 . S
O1528 C1529 1.286 . S
C1529 U1526 2.984 . S
C1529 O1527 1.353 . S
C1529 O1528 1.286 . S
C1529 C1531 1.363 . S
C1530 C1520 1.465 . S
C1530 U1526 2.847 . S
C1530 O1544 1.249 . S
C1530 O1545 1.202 . S
C1531 C1529 1.363 . S
C1531 C1533 1.408 . S
C1531 C1536 1.342 . S
C1532 C1533 1.310 . S
C1532 C1535 1.461 . S
C1532 H1552 0.932 . S
C1533 C1531 1.408 . S
C1533 C1532 1.310 . S
C1533 H1553 0.930 . S
C1534 C1535 1.474 . S
C1534 C1536 1.285 . S
C1534 H1554 0.929 . S
C1535 C1532 1.461 . S
C1535 C1534 1.474 . S
C1536 C1531 1.342 . S
C1536 C1534 1.285 . S
C1536 H1555 0.930 . S
C1537 C1540 1.424 . S
C1537 C1542 1.245 . S
C1537 C1543 1.428 . S
C1538 C1541 1.260 . S
C1538 C1542 1.477 . S
C1538 H1556 0.932 . S
C1539 C1540 1.384 . S
C1539 C1541 1.479 . S
C1539 H1557 0.929 . S
C1540 C1537 1.424 . S
C1540 C1539 1.384 . S
C1540 H1558 0.928 . S
C1541 C1538 1.260 . S
C1541 C1539 1.479 . S
C1542 C1537 1.245 . S
C1542 C1538 1.477 . S
C1542 H1559 0.932 . S
C1543 U1526 2.882 . S
C1543 C1537 1.428 . S
C1543 O1546 1.301 . S
C1543 O1547 1.282 . S
O1544 U1526 2.441 . S
O1544 C1530 1.249 . S
O1545 U1526 2.420 . S
O1545 C1530 1.202 . S
O1546 U1526 2.455 . S
O1546 C1543 1.301 . S
O1547 U1526 2.449 . S
O1547 C1543 1.282 . S
H1548 C1521 0.931 . S
H1549 C1523 0.929 . S
H1550 C1524 0.930 . S
H1551 C1525 0.931 . S
H1552 C1532 0.932 . S
H1553 C1533 0.930 . S
H1554 C1534 0.929 . S
H1555 C1536 0.930 . S
H1556 C1538 0.932 . S
H1557 C1539 0.929 . S
H1558 C1540 0.928 . S
H1559 C1542 0.932 . S
C1560 C1561 1.264 . S
C1560 C1565 1.479 . S
C1560 C1570 1.465 . S
C1561 C1560 1.264 . S
C1561 C1563 1.339 . S
C1561 H1588 0.931 . S
C1562 C1563 1.395 . S
C1562 C1564 1.320 . S
C1563 C1561 1.339 . S
C1563 C1562 1.395 . S
C1563 H1589 0.929 . S
C1564 C1562 1.320 . S
C1564 C1565 1.405 . S
C1564 H1590 0.930 . S
C1565 C1560 1.479 . S
C1565 C1564 1.405 . S
C1565 H1591 0.931 . S
U1566 O1567 2.454 . S
U1566 O1568 2.458 . S
U1566 C1569 2.984 . S
U1566 C1570 2.847 . S
U1566 C1583 2.882 . S
U1566 O1584 2.441 . S
U1566 O1585 2.420 . S
U1566 O1586 2.455 . S
U1566 O1587 2.449 . S
O1567 U1566 2.454 . S
O1567 C1569 1.353 . S
O1568 U1566 2.458 . S
O1568 C1569 1.286 . S
C1569 U1566 2.984 . S
C1569 O1567 1.353 . S
C1569 O1568 1.286 . S
C1569 C1571 1.363 . S
C1570 C1560 1.465 . S
C1570 U1566 2.847 . S
C1570 O1584 1.249 . S
C1570 O1585 1.202 . S
C1571 C1569 1.363 . S
C1571 C1573 1.408 . S
C1571 C1576 1.342 . S
C1572 C1573 1.310 . S
C1572 C1575 1.461 . S
C1572 H1592 0.932 . S
C1573 C1571 1.408 . S
C1573 C1572 1.310 . S
C1573 H1593 0.930 . S
C1574 C1575 1.474 . S
C1574 C1576 1.285 . S
C1574 H1594 0.929 . S
C1575 C1572 1.461 . S
C1575 C1574 1.474 . S
C1576 C1571 1.342 . S
C1576 C1574 1.285 . S
C1576 H1595 0.930 . S
C1577 C1580 1.424 . S
C1577 C1582 1.245 . S
C1577 C1583 1.428 . S
C1578 C1581 1.260 . S
C1578 C1582 1.477 . S
C1578 H1596 0.932 . S
C1579 C1580 1.384 . S
C1579 C1581 1.479 . S
C1579 H1597 0.929 . S
C1580 C1577 1.424 . S
C1580 C1579 1.384 . S
C1580 H1598 0.928 . S
C1581 C1578 1.260 . S
C1581 C1579 1.479 . S
C1582 C1577 1.245 . S
C1582 C1578 1.477 . S
C1582 H1599 0.932 . S
C1583 U1566 2.882 . S
C1583 C1577 1.428 . S
C1583 O1586 1.301 . S
C1583 O1587 1.282 . S
O1584 U1566 2.441 . S
O1584 C1570 1.249 . S
O1585 U1566 2.420 . S
O1585 C1570 1.202 . S
O1586 U1566 2.455 . S
O1586 C1583 1.301 . S
O1587 U1566 2.449 . S
O1587 C1583 1.282 . S
H1588 C1561 0.931 . S
H1589 C1563 0.929 . S
H1590 C1564 0.930 . S
H1591 C1565 0.931 . S
H1592 C1572 0.932 . S
H1593 C1573 0.930 . S
H1594 C1574 0.929 . S
H1595 C1576 0.930 . S
H1596 C1578 0.932 . S
H1597 C1579 0.929 . S
H1598 C1580 0.928 . S
H1599 C1582 0.932 . S
C1600 C1601 1.264 . S
C1600 C1605 1.479 . S
C1600 C1610 1.465 . S
C1601 C1600 1.264 . S
C1601 C1603 1.339 . S
C1601 H1628 0.931 . S
C1602 C1603 1.395 . S
C1602 C1604 1.320 . S
C1603 C1601 1.339 . S
C1603 C1602 1.395 . S
C1603 H1629 0.929 . S
C1604 C1602 1.320 . S
C1604 C1605 1.405 . S
C1604 H1630 0.930 . S
C1605 C1600 1.479 . S
C1605 C1604 1.405 . S
C1605 H1631 0.931 . S
U1606 O1607 2.454 . S
U1606 O1608 2.458 . S
U1606 C1609 2.984 . S
U1606 C1610 2.847 . S
U1606 C1623 2.882 . S
U1606 O1624 2.441 . S
U1606 O1625 2.420 . S
U1606 O1626 2.455 . S
U1606 O1627 2.449 . S
O1607 U1606 2.454 . S
O1607 C1609 1.353 . S
O1608 U1606 2.458 . S
O1608 C1609 1.286 . S
C1609 U1606 2.984 . S
C1609 O1607 1.353 . S
C1609 O1608 1.286 . S
C1609 C1611 1.363 . S
C1610 C1600 1.465 . S
C1610 U1606 2.847 . S
C1610 O1624 1.249 . S
C1610 O1625 1.202 . S
C1611 C1609 1.363 . S
C1611 C1613 1.408 . S
C1611 C1616 1.342 . S
C1612 C1613 1.310 . S
C1612 C1615 1.461 . S
C1612 H1632 0.932 . S
C1613 C1611 1.408 . S
C1613 C1612 1.310 . S
C1613 H1633 0.930 . S
C1614 C1615 1.474 . S
C1614 C1616 1.285 . S
C1614 H1634 0.929 . S
C1615 C1612 1.461 . S
C1615 C1614 1.474 . S
C1616 C1611 1.342 . S
C1616 C1614 1.285 . S
C1616 H1635 0.930 . S
C1617 C1620 1.424 . S
C1617 C1622 1.245 . S
C1617 C1623 1.428 . S
C1618 C1621 1.260 . S
C1618 C1622 1.477 . S
C1618 H1636 0.932 . S
C1619 C1620 1.384 . S
C1619 C1621 1.479 . S
C1619 H1637 0.929 . S
C1620 C1617 1.424 . S
C1620 C1619 1.384 . S
C1620 H1638 0.928 . S
C1621 C1618 1.260 . S
C1621 C1619 1.479 . S
C1622 C1617 1.245 . S
C1622 C1618 1.477 . S
C1622 H1639 0.932 . S
C1623 U1606 2.882 . S
C1623 C1617 1.428 . S
C1623 O1626 1.301 . S
C1623 O1627 1.282 . S
O1624 U1606 2.441 . S
O1624 C1610 1.249 . S
O1625 U1606 2.420 . S
O1625 C1610 1.202 . S
O1626 U1606 2.455 . S
O1626 C1623 1.301 . S
O1627 U1606 2.449 . S
O1627 C1623 1.282 . S
H1628 C1601 0.931 . S
H1629 C1603 0.929 . S
H1630 C1604 0.930 . S
H1631 C1605 0.931 . S
H1632 C1612 0.932 . S
H1633 C1613 0.930 . S
H1634 C1614 0.929 . S
H1635 C1616 0.930 . S
H1636 C1618 0.932 . S
H1637 C1619 0.929 . S
H1638 C1620 0.928 . S
H1639 C1622 0.932 . S
C1640 C1641 1.264 . S
C1640 C1645 1.479 . S
C1640 C1650 1.465 . S
C1641 C1640 1.264 . S
C1641 C1643 1.339 . S
C1641 H1668 0.931 . S
C1642 C1643 1.395 . S
C1642 C1644 1.320 . S
C1643 C1641 1.339 . S
C1643 C1642 1.395 . S
C1643 H1669 0.929 . S
C1644 C1642 1.320 . S
C1644 C1645 1.405 . S
C1644 H1670 0.930 . S
C1645 C1640 1.479 . S
C1645 C1644 1.405 . S
C1645 H1671 0.931 . S
U1646 O1647 2.454 . S
U1646 O1648 2.458 . S
U1646 C1649 2.984 . S
U1646 C1650 2.847 . S
U1646 C1663 2.882 . S
U1646 O1664 2.441 . S
U1646 O1665 2.420 . S
U1646 O1666 2.455 . S
U1646 O1667 2.449 . S
O1647 U1646 2.454 . S
O1647 C1649 1.353 . S
O1648 U1646 2.458 . S
O1648 C1649 1.286 . S
C1649 U1646 2.984 . S
C1649 O1647 1.353 . S
C1649 O1648 1.286 . S
C1649 C1651 1.363 . S
C1650 C1640 1.465 . S
C1650 U1646 2.847 . S
C1650 O1664 1.249 . S
C1650 O1665 1.202 . S
C1651 C1649 1.363 . S
C1651 C1653 1.408 . S
C1651 C1656 1.342 . S
C1652 C1653 1.310 . S
C1652 C1655 1.461 . S
C1652 H1672 0.932 . S
C1653 C1651 1.408 . S
C1653 C1652 1.310 . S
C1653 H1673 0.930 . S
C1654 C1655 1.474 . S
C1654 C1656 1.285 . S
C1654 H1674 0.929 . S
C1655 C1652 1.461 . S
C1655 C1654 1.474 . S
C1656 C1651 1.342 . S
C1656 C1654 1.285 . S
C1656 H1675 0.930 . S
C1657 C1660 1.424 . S
C1657 C1662 1.245 . S
C1657 C1663 1.428 . S
C1658 C1661 1.260 . S
C1658 C1662 1.477 . S
C1658 H1676 0.932 . S
C1659 C1660 1.384 . S
C1659 C1661 1.479 . S
C1659 H1677 0.929 . S
C1660 C1657 1.424 . S
C1660 C1659 1.384 . S
C1660 H1678 0.928 . S
C1661 C1658 1.260 . S
C1661 C1659 1.479 . S
C1662 C1657 1.245 . S
C1662 C1658 1.477 . S
C1662 H1679 0.932 . S
C1663 U1646 2.882 . S
C1663 C1657 1.428 . S
C1663 O1666 1.301 . S
C1663 O1667 1.282 . S
O1664 U1646 2.441 . S
O1664 C1650 1.249 . S
O1665 U1646 2.420 . S
O1665 C1650 1.202 . S
O1666 U1646 2.455 . S
O1666 C1663 1.301 . S
O1667 U1646 2.449 . S
O1667 C1663 1.282 . S
H1668 C1641 0.931 . S
H1669 C1643 0.929 . S
H1670 C1644 0.930 . S
H1671 C1645 0.931 . S
H1672 C1652 0.932 . S
H1673 C1653 0.930 . S
H1674 C1654 0.929 . S
H1675 C1656 0.930 . S
H1676 C1658 0.932 . S
H1677 C1659 0.929 . S
H1678 C1660 0.928 . S
H1679 C1662 0.932 . S
C1680 C1681 1.264 . S
C1680 C1685 1.479 . S
C1680 C1690 1.465 . S
C1681 C1680 1.264 . S
C1681 C1683 1.339 . S
C1681 H1708 0.931 . S
C1682 C1683 1.395 . S
C1682 C1684 1.320 . S
C1683 C1681 1.339 . S
C1683 C1682 1.395 . S
C1683 H1709 0.929 . S
C1684 C1682 1.320 . S
C1684 C1685 1.405 . S
C1684 H1710 0.930 . S
C1685 C1680 1.479 . S
C1685 C1684 1.405 . S
C1685 H1711 0.931 . S
U1686 O1687 2.454 . S
U1686 O1688 2.458 . S
U1686 C1689 2.984 . S
U1686 C1690 2.847 . S
U1686 C1703 2.882 . S
U1686 O1704 2.441 . S
U1686 O1705 2.420 . S
U1686 O1706 2.455 . S
U1686 O1707 2.449 . S
O1687 U1686 2.454 . S
O1687 C1689 1.353 . S
O1688 U1686 2.458 . S
O1688 C1689 1.286 . S
C1689 U1686 2.984 . S
C1689 O1687 1.353 . S
C1689 O1688 1.286 . S
C1689 C1691 1.363 . S
C1690 C1680 1.465 . S
C1690 U1686 2.847 . S
C1690 O1704 1.249 . S
C1690 O1705 1.202 . S
C1691 C1689 1.363 . S
C1691 C1693 1.408 . S
C1691 C1696 1.342 . S
C1692 C1693 1.310 . S
C1692 C1695 1.461 . S
C1692 H1712 0.932 . S
C1693 C1691 1.408 . S
C1693 C1692 1.310 . S
C1693 H1713 0.930 . S
C1694 C1695 1.474 . S
C1694 C1696 1.285 . S
C1694 H1714 0.929 . S
C1695 C1692 1.461 . S
C1695 C1694 1.474 . S
C1696 C1691 1.342 . S
C1696 C1694 1.285 . S
C1696 H1715 0.930 . S
C1697 C1700 1.424 . S
C1697 C1702 1.245 . S
C1697 C1703 1.428 . S
C1698 C1701 1.260 . S
C1698 C1702 1.477 . S
C1698 H1716 0.932 . S
C1699 C1700 1.384 . S
C1699 C1701 1.479 . S
C1699 H1717 0.929 . S
C1700 C1697 1.424 . S
C1700 C1699 1.384 . S
C1700 H1718 0.928 . S
C1701 C1698 1.260 . S
C1701 C1699 1.479 . S
C1702 C1697 1.245 . S
C1702 C1698 1.477 . S
C1702 H1719 0.932 . S
C1703 U1686 2.882 . S
C1703 C1697 1.428 . S
C1703 O1706 1.301 . S
C1703 O1707 1.282 . S
O1704 U1686 2.441 . S
O1704 C1690 1.249 . S
O1705 U1686 2.420 . S
O1705 C1690 1.202 . S
O1706 U1686 2.455 . S
O1706 C1703 1.301 . S
O1707 U1686 2.449 . S
O1707 C1703 1.282 . S
H1708 C1681 0.931 . S
H1709 C1683 0.929 . S
H1710 C1684 0.930 . S
H1711 C1685 0.931 . S
H1712 C1692 0.932 . S
H1713 C1693 0.930 . S
H1714 C1694 0.929 . S
H1715 C1696 0.930 . S
H1716 C1698 0.932 . S
H1717 C1699 0.929 . S
H1718 C1700 0.928 . S
H1719 C1702 0.932 . S
C1720 C1721 1.264 . S
C1720 C1725 1.479 . S
C1720 C1730 1.465 . S
C1721 C1720 1.264 . S
C1721 C1723 1.339 . S
C1721 H1748 0.931 . S
C1722 C1723 1.395 . S
C1722 C1724 1.320 . S
C1723 C1721 1.339 . S
C1723 C1722 1.395 . S
C1723 H1749 0.929 . S
C1724 C1722 1.320 . S
C1724 C1725 1.405 . S
C1724 H1750 0.930 . S
C1725 C1720 1.479 . S
C1725 C1724 1.405 . S
C1725 H1751 0.931 . S
U1726 O1727 2.454 . S
U1726 O1728 2.458 . S
U1726 C1729 2.984 . S
U1726 C1730 2.847 . S
U1726 C1743 2.882 . S
U1726 O1744 2.441 . S
U1726 O1745 2.420 . S
U1726 O1746 2.455 . S
U1726 O1747 2.449 . S
O1727 U1726 2.454 . S
O1727 C1729 1.353 . S
O1728 U1726 2.458 . S
O1728 C1729 1.286 . S
C1729 U1726 2.984 . S
C1729 O1727 1.353 . S
C1729 O1728 1.286 . S
C1729 C1731 1.363 . S
C1730 C1720 1.465 . S
C1730 U1726 2.847 . S
C1730 O1744 1.249 . S
C1730 O1745 1.202 . S
C1731 C1729 1.363 . S
C1731 C1733 1.408 . S
C1731 C1736 1.342 . S
C1732 C1733 1.310 . S
C1732 C1735 1.461 . S
C1732 H1752 0.932 . S
C1733 C1731 1.408 . S
C1733 C1732 1.310 . S
C1733 H1753 0.930 . S
C1734 C1735 1.474 . S
C1734 C1736 1.285 . S
C1734 H1754 0.929 . S
C1735 C1732 1.461 . S
C1735 C1734 1.474 . S
C1736 C1731 1.342 . S
C1736 C1734 1.285 . S
C1736 H1755 0.930 . S
C1737 C1740 1.424 . S
C1737 C1742 1.245 . S
C1737 C1743 1.428 . S
C1738 C1741 1.260 . S
C1738 C1742 1.477 . S
C1738 H1756 0.932 . S
C1739 C1740 1.384 . S
C1739 C1741 1.479 . S
C1739 H1757 0.929 . S
C1740 C1737 1.424 . S
C1740 C1739 1.384 . S
C1740 H1758 0.928 . S
C1741 C1738 1.260 . S
C1741 C1739 1.479 . S
C1742 C1737 1.245 . S
C1742 C1738 1.477 . S
C1742 H1759 0.932 . S
C1743 U1726 2.882 . S
C1743 C1737 1.428 . S
C1743 O1746 1.301 . S
C1743 O1747 1.282 . S
O1744 U1726 2.441 . S
O1744 C1730 1.249 . S
O1745 U1726 2.420 . S
O1745 C1730 1.202 . S
O1746 U1726 2.455 . S
O1746 C1743 1.301 . S
O1747 U1726 2.449 . S
O1747 C1743 1.282 . S
H1748 C1721 0.931 . S
H1749 C1723 0.929 . S
H1750 C1724 0.930 . S
H1751 C1725 0.931 . S
H1752 C1732 0.932 . S
H1753 C1733 0.930 . S
H1754 C1734 0.929 . S
H1755 C1736 0.930 . S
H1756 C1738 0.932 . S
H1757 C1739 0.929 . S
H1758 C1740 0.928 . S
H1759 C1742 0.932 . S
C1760 C1761 1.264 . S
C1760 C1765 1.479 . S
C1760 C1770 1.465 . S
C1761 C1760 1.264 . S
C1761 C1763 1.339 . S
C1761 H1788 0.931 . S
C1762 C1763 1.395 . S
C1762 C1764 1.320 . S
C1763 C1761 1.339 . S
C1763 C1762 1.395 . S
C1763 H1789 0.929 . S
C1764 C1762 1.320 . S
C1764 C1765 1.405 . S
C1764 H1790 0.930 . S
C1765 C1760 1.479 . S
C1765 C1764 1.405 . S
C1765 H1791 0.931 . S
U1766 O1767 2.454 . S
U1766 O1768 2.458 . S
U1766 C1769 2.984 . S
U1766 C1770 2.847 . S
U1766 C1783 2.882 . S
U1766 O1784 2.441 . S
U1766 O1785 2.420 . S
U1766 O1786 2.455 . S
U1766 O1787 2.449 . S
O1767 U1766 2.454 . S
O1767 C1769 1.353 . S
O1768 U1766 2.458 . S
O1768 C1769 1.286 . S
C1769 U1766 2.984 . S
C1769 O1767 1.353 . S
C1769 O1768 1.286 . S
C1769 C1771 1.363 . S
C1770 C1760 1.465 . S
C1770 U1766 2.847 . S
C1770 O1784 1.249 . S
C1770 O1785 1.202 . S
C1771 C1769 1.363 . S
C1771 C1773 1.408 . S
C1771 C1776 1.342 . S
C1772 C1773 1.310 . S
C1772 C1775 1.461 . S
C1772 H1792 0.932 . S
C1773 C1771 1.408 . S
C1773 C1772 1.310 . S
C1773 H1793 0.930 . S
C1774 C1775 1.474 . S
C1774 C1776 1.285 . S
C1774 H1794 0.929 . S
C1775 C1772 1.461 . S
C1775 C1774 1.474 . S
C1776 C1771 1.342 . S
C1776 C1774 1.285 . S
C1776 H1795 0.930 . S
C1777 C1780 1.424 . S
C1777 C1782 1.245 . S
C1777 C1783 1.428 . S
C1778 C1781 1.260 . S
C1778 C1782 1.477 . S
C1778 H1796 0.932 . S
C1779 C1780 1.384 . S
C1779 C1781 1.479 . S
C1779 H1797 0.929 . S
C1780 C1777 1.424 . S
C1780 C1779 1.384 . S
C1780 H1798 0.928 . S
C1781 C1778 1.260 . S
C1781 C1779 1.479 . S
C1782 C1777 1.245 . S
C1782 C1778 1.477 . S
C1782 H1799 0.932 . S
C1783 U1766 2.882 . S
C1783 C1777 1.428 . S
C1783 O1786 1.301 . S
C1783 O1787 1.282 . S
O1784 U1766 2.441 . S
O1784 C1770 1.249 . S
O1785 U1766 2.420 . S
O1785 C1770 1.202 . S
O1786 U1766 2.455 . S
O1786 C1783 1.301 . S
O1787 U1766 2.449 . S
O1787 C1783 1.282 . S
H1788 C1761 0.931 . S
H1789 C1763 0.929 . S
H1790 C1764 0.930 . S
H1791 C1765 0.931 . S
H1792 C1772 0.932 . S
H1793 C1773 0.930 . S
H1794 C1774 0.929 . S
H1795 C1776 0.930 . S
H1796 C1778 0.932 . S
H1797 C1779 0.929 . S
H1798 C1780 0.928 . S
H1799 C1782 0.932 . S
C1800 C1801 1.264 . S
C1800 C1805 1.479 . S
C1800 C1810 1.465 . S
C1801 C1800 1.264 . S
C1801 C1803 1.339 . S
C1801 H1828 0.931 . S
C1802 C1803 1.395 . S
C1802 C1804 1.320 . S
C1803 C1801 1.339 . S
C1803 C1802 1.395 . S
C1803 H1829 0.929 . S
C1804 C1802 1.320 . S
C1804 C1805 1.405 . S
C1804 H1830 0.930 . S
C1805 C1800 1.479 . S
C1805 C1804 1.405 . S
C1805 H1831 0.931 . S
U1806 O1807 2.454 . S
U1806 O1808 2.458 . S
U1806 C1809 2.984 . S
U1806 C1810 2.847 . S
U1806 C1823 2.882 . S
U1806 O1824 2.441 . S
U1806 O1825 2.420 . S
U1806 O1826 2.455 . S
U1806 O1827 2.449 . S
O1807 U1806 2.454 . S
O1807 C1809 1.353 . S
O1808 U1806 2.458 . S
O1808 C1809 1.286 . S
C1809 U1806 2.984 . S
C1809 O1807 1.353 . S
C1809 O1808 1.286 . S
C1809 C1811 1.363 . S
C1810 C1800 1.465 . S
C1810 U1806 2.847 . S
C1810 O1824 1.249 . S
C1810 O1825 1.202 . S
C1811 C1809 1.363 . S
C1811 C1813 1.408 . S
C1811 C1816 1.342 . S
C1812 C1813 1.310 . S
C1812 C1815 1.461 . S
C1812 H1832 0.932 . S
C1813 C1811 1.408 . S
C1813 C1812 1.310 . S
C1813 H1833 0.930 . S
C1814 C1815 1.474 . S
C1814 C1816 1.285 . S
C1814 H1834 0.929 . S
C1815 C1812 1.461 . S
C1815 C1814 1.474 . S
C1816 C1811 1.342 . S
C1816 C1814 1.285 . S
C1816 H1835 0.930 . S
C1817 C1820 1.424 . S
C1817 C1822 1.245 . S
C1817 C1823 1.428 . S
C1818 C1821 1.260 . S
C1818 C1822 1.477 . S
C1818 H1836 0.932 . S
C1819 C1820 1.384 . S
C1819 C1821 1.479 . S
C1819 H1837 0.929 . S
C1820 C1817 1.424 . S
C1820 C1819 1.384 . S
C1820 H1838 0.928 . S
C1821 C1818 1.260 . S
C1821 C1819 1.479 . S
C1822 C1817 1.245 . S
C1822 C1818 1.477 . S
C1822 H1839 0.932 . S
C1823 U1806 2.882 . S
C1823 C1817 1.428 . S
C1823 O1826 1.301 . S
C1823 O1827 1.282 . S
O1824 U1806 2.441 . S
O1824 C1810 1.249 . S
O1825 U1806 2.420 . S
O1825 C1810 1.202 . S
O1826 U1806 2.455 . S
O1826 C1823 1.301 . S
O1827 U1806 2.449 . S
O1827 C1823 1.282 . S
H1828 C1801 0.931 . S
H1829 C1803 0.929 . S
H1830 C1804 0.930 . S
H1831 C1805 0.931 . S
H1832 C1812 0.932 . S
H1833 C1813 0.930 . S
H1834 C1814 0.929 . S
H1835 C1816 0.930 . S
H1836 C1818 0.932 . S
H1837 C1819 0.929 . S
H1838 C1820 0.928 . S
H1839 C1822 0.932 . S
C1840 C1841 1.264 . S
C1840 C1845 1.479 . S
C1840 C1850 1.465 . S
C1841 C1840 1.264 . S
C1841 C1843 1.339 . S
C1841 H1868 0.931 . S
C1842 C1843 1.395 . S
C1842 C1844 1.320 . S
C1843 C1841 1.339 . S
C1843 C1842 1.395 . S
C1843 H1869 0.929 . S
C1844 C1842 1.320 . S
C1844 C1845 1.405 . S
C1844 H1870 0.930 . S
C1845 C1840 1.479 . S
C1845 C1844 1.405 . S
C1845 H1871 0.931 . S
U1846 O1847 2.454 . S
U1846 O1848 2.458 . S
U1846 C1849 2.984 . S
U1846 C1850 2.847 . S
U1846 C1863 2.882 . S
U1846 O1864 2.441 . S
U1846 O1865 2.420 . S
U1846 O1866 2.455 . S
U1846 O1867 2.449 . S
O1847 U1846 2.454 . S
O1847 C1849 1.353 . S
O1848 U1846 2.458 . S
O1848 C1849 1.286 . S
C1849 U1846 2.984 . S
C1849 O1847 1.353 . S
C1849 O1848 1.286 . S
C1849 C1851 1.363 . S
C1850 C1840 1.465 . S
C1850 U1846 2.847 . S
C1850 O1864 1.249 . S
C1850 O1865 1.202 . S
C1851 C1849 1.363 . S
C1851 C1853 1.408 . S
C1851 C1856 1.342 . S
C1852 C1853 1.310 . S
C1852 C1855 1.461 . S
C1852 H1872 0.932 . S
C1853 C1851 1.408 . S
C1853 C1852 1.310 . S
C1853 H1873 0.930 . S
C1854 C1855 1.474 . S
C1854 C1856 1.285 . S
C1854 H1874 0.929 . S
C1855 C1852 1.461 . S
C1855 C1854 1.474 . S
C1856 C1851 1.342 . S
C1856 C1854 1.285 . S
C1856 H1875 0.930 . S
C1857 C1860 1.424 . S
C1857 C1862 1.245 . S
C1857 C1863 1.428 . S
C1858 C1861 1.260 . S
C1858 C1862 1.477 . S
C1858 H1876 0.932 . S
C1859 C1860 1.384 . S
C1859 C1861 1.479 . S
C1859 H1877 0.929 . S
C1860 C1857 1.424 . S
C1860 C1859 1.384 . S
C1860 H1878 0.928 . S
C1861 C1858 1.260 . S
C1861 C1859 1.479 . S
C1862 C1857 1.245 . S
C1862 C1858 1.477 . S
C1862 H1879 0.932 . S
C1863 U1846 2.882 . S
C1863 C1857 1.428 . S
C1863 O1866 1.301 . S
C1863 O1867 1.282 . S
O1864 U1846 2.441 . S
O1864 C1850 1.249 . S
O1865 U1846 2.420 . S
O1865 C1850 1.202 . S
O1866 U1846 2.455 . S
O1866 C1863 1.301 . S
O1867 U1846 2.449 . S
O1867 C1863 1.282 . S
H1868 C1841 0.931 . S
H1869 C1843 0.929 . S
H1870 C1844 0.930 . S
H1871 C1845 0.931 . S
H1872 C1852 0.932 . S
H1873 C1853 0.930 . S
H1874 C1854 0.929 . S
H1875 C1856 0.930 . S
H1876 C1858 0.932 . S
H1877 C1859 0.929 . S
H1878 C1860 0.928 . S
H1879 C1862 0.932 . S
C1880 C1881 1.264 . S
C1880 C1885 1.479 . S
C1880 C1890 1.465 . S
C1881 C1880 1.264 . S
C1881 C1883 1.339 . S
C1881 H1908 0.931 . S
C1882 C1883 1.395 . S
C1882 C1884 1.320 . S
C1883 C1881 1.339 . S
C1883 C1882 1.395 . S
C1883 H1909 0.929 . S
C1884 C1882 1.320 . S
C1884 C1885 1.405 . S
C1884 H1910 0.930 . S
C1885 C1880 1.479 . S
C1885 C1884 1.405 . S
C1885 H1911 0.931 . S
U1886 O1887 2.454 . S
U1886 O1888 2.458 . S
U1886 C1889 2.984 . S
U1886 C1890 2.847 . S
U1886 C1903 2.882 . S
U1886 O1904 2.441 . S
U1886 O1905 2.420 . S
U1886 O1906 2.455 . S
U1886 O1907 2.449 . S
O1887 U1886 2.454 . S
O1887 C1889 1.353 . S
O1888 U1886 2.458 . S
O1888 C1889 1.286 . S
C1889 U1886 2.984 . S
C1889 O1887 1.353 . S
C1889 O1888 1.286 . S
C1889 C1891 1.363 . S
C1890 C1880 1.465 . S
C1890 U1886 2.847 . S
C1890 O1904 1.249 . S
C1890 O1905 1.202 . S
C1891 C1889 1.363 . S
C1891 C1893 1.408 . S
C1891 C1896 1.342 . S
C1892 C1893 1.310 . S
C1892 C1895 1.461 . S
C1892 H1912 0.932 . S
C1893 C1891 1.408 . S
C1893 C1892 1.310 . S
C1893 H1913 0.930 . S
C1894 C1895 1.474 . S
C1894 C1896 1.285 . S
C1894 H1914 0.929 . S
C1895 C1892 1.461 . S
C1895 C1894 1.474 . S
C1896 C1891 1.342 . S
C1896 C1894 1.285 . S
C1896 H1915 0.930 . S
C1897 C1900 1.424 . S
C1897 C1902 1.245 . S
C1897 C1903 1.428 . S
C1898 C1901 1.260 . S
C1898 C1902 1.477 . S
C1898 H1916 0.932 . S
C1899 C1900 1.384 . S
C1899 C1901 1.479 . S
C1899 H1917 0.929 . S
C1900 C1897 1.424 . S
C1900 C1899 1.384 . S
C1900 H1918 0.928 . S
C1901 C1898 1.260 . S
C1901 C1899 1.479 . S
C1902 C1897 1.245 . S
C1902 C1898 1.477 . S
C1902 H1919 0.932 . S
C1903 U1886 2.882 . S
C1903 C1897 1.428 . S
C1903 O1906 1.301 . S
C1903 O1907 1.282 . S
O1904 U1886 2.441 . S
O1904 C1890 1.249 . S
O1905 U1886 2.420 . S
O1905 C1890 1.202 . S
O1906 U1886 2.455 . S
O1906 C1903 1.301 . S
O1907 U1886 2.449 . S
O1907 C1903 1.282 . S
H1908 C1881 0.931 . S
H1909 C1883 0.929 . S
H1910 C1884 0.930 . S
H1911 C1885 0.931 . S
H1912 C1892 0.932 . S
H1913 C1893 0.930 . S
H1914 C1894 0.929 . S
H1915 C1896 0.930 . S
H1916 C1898 0.932 . S
H1917 C1899 0.929 . S
H1918 C1900 0.928 . S
H1919 C1902 0.932 . S
C1920 C1921 1.264 . S
C1920 C1925 1.479 . S
C1920 C1930 1.465 . S
C1921 C1920 1.264 . S
C1921 C1923 1.339 . S
C1921 H1948 0.931 . S
C1922 C1923 1.395 . S
C1922 C1924 1.320 . S
C1923 C1921 1.339 . S
C1923 C1922 1.395 . S
C1923 H1949 0.929 . S
C1924 C1922 1.320 . S
C1924 C1925 1.405 . S
C1924 H1950 0.930 . S
C1925 C1920 1.479 . S
C1925 C1924 1.405 . S
C1925 H1951 0.931 . S
U1926 O1927 2.454 . S
U1926 O1928 2.458 . S
U1926 C1929 2.984 . S
U1926 C1930 2.847 . S
U1926 C1943 2.882 . S
U1926 O1944 2.441 . S
U1926 O1945 2.420 . S
U1926 O1946 2.455 . S
U1926 O1947 2.449 . S
O1927 U1926 2.454 . S
O1927 C1929 1.353 . S
O1928 U1926 2.458 . S
O1928 C1929 1.286 . S
C1929 U1926 2.984 . S
C1929 O1927 1.353 . S
C1929 O1928 1.286 . S
C1929 C1931 1.363 . S
C1930 C1920 1.465 . S
C1930 U1926 2.847 . S
C1930 O1944 1.249 . S
C1930 O1945 1.202 . S
C1931 C1929 1.363 . S
C1931 C1933 1.408 . S
C1931 C1936 1.342 . S
C1932 C1933 1.310 . S
C1932 C1935 1.461 . S
C1932 H1952 0.932 . S
C1933 C1931 1.408 . S
C1933 C1932 1.310 . S
C1933 H1953 0.930 . S
C1934 C1935 1.474 . S
C1934 C1936 1.285 . S
C1934 H1954 0.929 . S
C1935 C1932 1.461 . S
C1935 C1934 1.474 . S
C1936 C1931 1.342 . S
C1936 C1934 1.285 . S
C1936 H1955 0.930 . S
C1937 C1940 1.424 . S
C1937 C1942 1.245 . S
C1937 C1943 1.428 . S
C1938 C1941 1.260 . S
C1938 C1942 1.477 . S
C1938 H1956 0.932 . S
C1939 C1940 1.384 . S
C1939 C1941 1.479 . S
C1939 H1957 0.929 . S
C1940 C1937 1.424 . S
C1940 C1939 1.384 . S
C1940 H1958 0.928 . S
C1941 C1938 1.260 . S
C1941 C1939 1.479 . S
C1942 C1937 1.245 . S
C1942 C1938 1.477 . S
C1942 H1959 0.932 . S
C1943 U1926 2.882 . S
C1943 C1937 1.428 . S
C1943 O1946 1.301 . S
C1943 O1947 1.282 . S
O1944 U1926 2.441 . S
O1944 C1930 1.249 . S
O1945 U1926 2.420 . S
O1945 C1930 1.202 . S
O1946 U1926 2.455 . S
O1946 C1943 1.301 . S
O1947 U1926 2.449 . S
O1947 C1943 1.282 . S
H1948 C1921 0.931 . S
H1949 C1923 0.929 . S
H1950 C1924 0.930 . S
H1951 C1925 0.931 . S
H1952 C1932 0.932 . S
H1953 C1933 0.930 . S
H1954 C1934 0.929 . S
H1955 C1936 0.930 . S
H1956 C1938 0.932 . S
H1957 C1939 0.929 . S
H1958 C1940 0.928 . S
H1959 C1942 0.932 . S
C1960 C1961 1.264 . S
C1960 C1965 1.479 . S
C1960 C1970 1.465 . S
C1961 C1960 1.264 . S
C1961 C1963 1.339 . S
C1961 H1988 0.931 . S
C1962 C1963 1.395 . S
C1962 C1964 1.320 . S
C1963 C1961 1.339 . S
C1963 C1962 1.395 . S
C1963 H1989 0.929 . S
C1964 C1962 1.320 . S
C1964 C1965 1.405 . S
C1964 H1990 0.930 . S
C1965 C1960 1.479 . S
C1965 C1964 1.405 . S
C1965 H1991 0.931 . S
U1966 O1967 2.454 . S
U1966 O1968 2.458 . S
U1966 C1969 2.984 . S
U1966 C1970 2.847 . S
U1966 C1983 2.882 . S
U1966 O1984 2.441 . S
U1966 O1985 2.420 . S
U1966 O1986 2.455 . S
U1966 O1987 2.449 . S
O1967 U1966 2.454 . S
O1967 C1969 1.353 . S
O1968 U1966 2.458 . S
O1968 C1969 1.286 . S
C1969 U1966 2.984 . S
C1969 O1967 1.353 . S
C1969 O1968 1.286 . S
C1969 C1971 1.363 . S
C1970 C1960 1.465 . S
C1970 U1966 2.847 . S
C1970 O1984 1.249 . S
C1970 O1985 1.202 . S
C1971 C1969 1.363 . S
C1971 C1973 1.408 . S
C1971 C1976 1.342 . S
C1972 C1973 1.310 . S
C1972 C1975 1.461 . S
C1972 H1992 0.932 . S
C1973 C1971 1.408 . S
C1973 C1972 1.310 . S
C1973 H1993 0.930 . S
C1974 C1975 1.474 . S
C1974 C1976 1.285 . S
C1974 H1994 0.929 . S
C1975 C1972 1.461 . S
C1975 C1974 1.474 . S
C1976 C1971 1.342 . S
C1976 C1974 1.285 . S
C1976 H1995 0.930 . S
C1977 C1980 1.424 . S
C1977 C1982 1.245 . S
C1977 C1983 1.428 . S
C1978 C1981 1.260 . S
C1978 C1982 1.477 . S
C1978 H1996 0.932 . S
C1979 C1980 1.384 . S
C1979 C1981 1.479 . S
C1979 H1997 0.929 . S
C1980 C1977 1.424 . S
C1980 C1979 1.384 . S
C1980 H1998 0.928 . S
C1981 C1978 1.260 . S
C1981 C1979 1.479 . S
C1982 C1977 1.245 . S
C1982 C1978 1.477 . S
C1982 H1999 0.932 . S
C1983 U1966 2.882 . S
C1983 C1977 1.428 . S
C1983 O1986 1.301 . S
C1983 O1987 1.282 . S
O1984 U1966 2.441 . S
O1984 C1970 1.249 . S
O1985 U1966 2.420 . S
O1985 C1970 1.202 . S
O1986 U1966 2.455 . S
O1986 C1983 1.301 . S
O1987 U1966 2.449 . S
O1987 C1983 1.282 . S
H1988 C1961 0.931 . S
H1989 C1963 0.929 . S
H1990 C1964 0.930 . S
H1991 C1965 0.931 . S
H1992 C1972 0.932 . S
H1993 C1973 0.930 . S
H1994 C1974 0.929 . S
H1995 C1976 0.930 . S
H1996 C1978 0.932 . S
H1997 C1979 0.929 . S
H1998 C1980 0.928 . S
H1999 C1982 0.932 . S
C2000 C2001 1.264 . S
C2000 C2005 1.479 . S
C2000 C2010 1.465 . S
C2001 C2000 1.264 . S
C2001 C2003 1.339 . S
C2001 H2028 0.931 . S
C2002 C2003 1.395 . S
C2002 C2004 1.320 . S
C2003 C2001 1.339 . S
C2003 C2002 1.395 . S
C2003 H2029 0.929 . S
C2004 C2002 1.320 . S
C2004 C2005 1.405 . S
C2004 H2030 0.930 . S
C2005 C2000 1.479 . S
C2005 C2004 1.405 . S
C2005 H2031 0.931 . S
U2006 O2007 2.454 . S
U2006 O2008 2.458 . S
U2006 C2009 2.984 . S
U2006 C2010 2.847 . S
U2006 C2023 2.882 . S
U2006 O2024 2.441 . S
U2006 O2025 2.420 . S
U2006 O2026 2.455 . S
U2006 O2027 2.449 . S
O2007 U2006 2.454 . S
O2007 C2009 1.353 . S
O2008 U2006 2.458 . S
O2008 C2009 1.286 . S
C2009 U2006 2.984 . S
C2009 O2007 1.353 . S
C2009 O2008 1.286 . S
C2009 C2011 1.363 . S
C2010 C2000 1.465 . S
C2010 U2006 2.847 . S
C2010 O2024 1.249 . S
C2010 O2025 1.202 . S
C2011 C2009 1.363 . S
C2011 C2013 1.408 . S
C2011 C2016 1.342 . S
C2012 C2013 1.310 . S
C2012 C2015 1.461 . S
C2012 H2032 0.932 . S
C2013 C2011 1.408 . S
C2013 C2012 1.310 . S
C2013 H2033 0.930 . S
C2014 C2015 1.474 . S
C2014 C2016 1.285 . S
C2014 H2034 0.929 . S
C2015 C2012 1.461 . S
C2015 C2014 1.474 . S
C2016 C2011 1.342 . S
C2016 C2014 1.285 . S
C2016 H2035 0.930 . S
C2017 C2020 1.424 . S
C2017 C2022 1.245 . S
C2017 C2023 1.428 . S
C2018 C2021 1.260 . S
C2018 C2022 1.477 . S
C2018 H2036 0.932 . S
C2019 C2020 1.384 . S
C2019 C2021 1.479 . S
C2019 H2037 0.929 . S
C2020 C2017 1.424 . S
C2020 C2019 1.384 . S
C2020 H2038 0.928 . S
C2021 C2018 1.260 . S
C2021 C2019 1.479 . S
C2022 C2017 1.245 . S
C2022 C2018 1.477 . S
C2022 H2039 0.932 . S
C2023 U2006 2.882 . S
C2023 C2017 1.428 . S
C2023 O2026 1.301 . S
C2023 O2027 1.282 . S
O2024 U2006 2.441 . S
O2024 C2010 1.249 . S
O2025 U2006 2.420 . S
O2025 C2010 1.202 . S
O2026 U2006 2.455 . S
O2026 C2023 1.301 . S
O2027 U2006 2.449 . S
O2027 C2023 1.282 . S
H2028 C2001 0.931 . S
H2029 C2003 0.929 . S
H2030 C2004 0.930 . S
H2031 C2005 0.931 . S
H2032 C2012 0.932 . S
H2033 C2013 0.930 . S
H2034 C2014 0.929 . S
H2035 C2016 0.930 . S
H2036 C2018 0.932 . S
H2037 C2019 0.929 . S
H2038 C2020 0.928 . S
H2039 C2022 0.932 . S
C2040 C2041 1.264 . S
C2040 C2045 1.479 . S
C2040 C2050 1.465 . S
C2041 C2040 1.264 . S
C2041 C2043 1.339 . S
C2041 H2068 0.931 . S
C2042 C2043 1.395 . S
C2042 C2044 1.320 . S
C2043 C2041 1.339 . S
C2043 C2042 1.395 . S
C2043 H2069 0.929 . S
C2044 C2042 1.320 . S
C2044 C2045 1.405 . S
C2044 H2070 0.930 . S
C2045 C2040 1.479 . S
C2045 C2044 1.405 . S
C2045 H2071 0.931 . S
U2046 O2047 2.454 . S
U2046 O2048 2.458 . S
U2046 C2049 2.984 . S
U2046 C2050 2.847 . S
U2046 C2063 2.882 . S
U2046 O2064 2.441 . S
U2046 O2065 2.420 . S
U2046 O2066 2.455 . S
U2046 O2067 2.449 . S
O2047 U2046 2.454 . S
O2047 C2049 1.353 . S
O2048 U2046 2.458 . S
O2048 C2049 1.286 . S
C2049 U2046 2.984 . S
C2049 O2047 1.353 . S
C2049 O2048 1.286 . S
C2049 C2051 1.363 . S
C2050 C2040 1.465 . S
C2050 U2046 2.847 . S
C2050 O2064 1.249 . S
C2050 O2065 1.202 . S
C2051 C2049 1.363 . S
C2051 C2053 1.408 . S
C2051 C2056 1.342 . S
C2052 C2053 1.310 . S
C2052 C2055 1.461 . S
C2052 H2072 0.932 . S
C2053 C2051 1.408 . S
C2053 C2052 1.310 . S
C2053 H2073 0.930 . S
C2054 C2055 1.474 . S
C2054 C2056 1.285 . S
C2054 H2074 0.929 . S
C2055 C2052 1.461 . S
C2055 C2054 1.474 . S
C2056 C2051 1.342 . S
C2056 C2054 1.285 . S
C2056 H2075 0.930 . S
C2057 C2060 1.424 . S
C2057 C2062 1.245 . S
C2057 C2063 1.428 . S
C2058 C2061 1.260 . S
C2058 C2062 1.477 . S
C2058 H2076 0.932 . S
C2059 C2060 1.384 . S
C2059 C2061 1.479 . S
C2059 H2077 0.929 . S
C2060 C2057 1.424 . S
C2060 C2059 1.384 . S
C2060 H2078 0.928 . S
C2061 C2058 1.260 . S
C2061 C2059 1.479 . S
C2062 C2057 1.245 . S
C2062 C2058 1.477 . S
C2062 H2079 0.932 . S
C2063 U2046 2.882 . S
C2063 C2057 1.428 . S
C2063 O2066 1.301 . S
C2063 O2067 1.282 . S
O2064 U2046 2.441 . S
O2064 C2050 1.249 . S
O2065 U2046 2.420 . S
O2065 C2050 1.202 . S
O2066 U2046 2.455 . S
O2066 C2063 1.301 . S
O2067 U2046 2.449 . S
O2067 C2063 1.282 . S
H2068 C2041 0.931 . S
H2069 C2043 0.929 . S
H2070 C2044 0.930 . S
H2071 C2045 0.931 . S
H2072 C2052 0.932 . S
H2073 C2053 0.930 . S
H2074 C2054 0.929 . S
H2075 C2056 0.930 . S
H2076 C2058 0.932 . S
H2077 C2059 0.929 . S
H2078 C2060 0.928 . S
H2079 C2062 0.932 . S
C2080 C2081 1.264 . S
C2080 C2085 1.479 . S
C2080 C2090 1.465 . S
C2081 C2080 1.264 . S
C2081 C2083 1.339 . S
C2081 H2108 0.931 . S
C2082 C2083 1.395 . S
C2082 C2084 1.320 . S
C2083 C2081 1.339 . S
C2083 C2082 1.395 . S
C2083 H2109 0.929 . S
C2084 C2082 1.320 . S
C2084 C2085 1.405 . S
C2084 H2110 0.930 . S
C2085 C2080 1.479 . S
C2085 C2084 1.405 . S
C2085 H2111 0.931 . S
U2086 O2087 2.454 . S
U2086 O2088 2.458 . S
U2086 C2089 2.984 . S
U2086 C2090 2.847 . S
U2086 C2103 2.882 . S
U2086 O2104 2.441 . S
U2086 O2105 2.420 . S
U2086 O2106 2.455 . S
U2086 O2107 2.449 . S
O2087 U2086 2.454 . S
O2087 C2089 1.353 . S
O2088 U2086 2.458 . S
O2088 C2089 1.286 . S
C2089 U2086 2.984 . S
C2089 O2087 1.353 . S
C2089 O2088 1.286 . S
C2089 C2091 1.363 . S
C2090 C2080 1.465 . S
C2090 U2086 2.847 . S
C2090 O2104 1.249 . S
C2090 O2105 1.202 . S
C2091 C2089 1.363 . S
C2091 C2093 1.408 . S
C2091 C2096 1.342 . S
C2092 C2093 1.310 . S
C2092 C2095 1.461 . S
C2092 H2112 0.932 . S
C2093 C2091 1.408 . S
C2093 C2092 1.310 . S
C2093 H2113 0.930 . S
C2094 C2095 1.474 . S
C2094 C2096 1.285 . S
C2094 H2114 0.929 . S
C2095 C2092 1.461 . S
C2095 C2094 1.474 . S
C2096 C2091 1.342 . S
C2096 C2094 1.285 . S
C2096 H2115 0.930 . S
C2097 C2100 1.424 . S
C2097 C2102 1.245 . S
C2097 C2103 1.428 . S
C2098 C2101 1.260 . S
C2098 C2102 1.477 . S
C2098 H2116 0.932 . S
C2099 C2100 1.384 . S
C2099 C2101 1.479 . S
C2099 H2117 0.929 . S
C2100 C2097 1.424 . S
C2100 C2099 1.384 . S
C2100 H2118 0.928 . S
C2101 C2098 1.260 . S
C2101 C2099 1.479 . S
C2102 C2097 1.245 . S
C2102 C2098 1.477 . S
C2102 H2119 0.932 . S
C2103 U2086 2.882 . S
C2103 C2097 1.428 . S
C2103 O2106 1.301 . S
C2103 O2107 1.282 . S
O2104 U2086 2.441 . S
O2104 C2090 1.249 . S
O2105 U2086 2.420 . S
O2105 C2090 1.202 . S
O2106 U2086 2.455 . S
O2106 C2103 1.301 . S
O2107 U2086 2.449 . S
O2107 C2103 1.282 . S
H2108 C2081 0.931 . S
H2109 C2083 0.929 . S
H2110 C2084 0.930 . S
H2111 C2085 0.931 . S
H2112 C2092 0.932 . S
H2113 C2093 0.930 . S
H2114 C2094 0.929 . S
H2115 C2096 0.930 . S
H2116 C2098 0.932 . S
H2117 C2099 0.929 . S
H2118 C2100 0.928 . S
H2119 C2102 0.932 . S
C2120 C2121 1.264 . S
C2120 C2125 1.479 . S
C2120 C2130 1.465 . S
C2121 C2120 1.264 . S
C2121 C2123 1.339 . S
C2121 H2148 0.931 . S
C2122 C2123 1.395 . S
C2122 C2124 1.320 . S
C2123 C2121 1.339 . S
C2123 C2122 1.395 . S
C2123 H2149 0.929 . S
C2124 C2122 1.320 . S
C2124 C2125 1.405 . S
C2124 H2150 0.930 . S
C2125 C2120 1.479 . S
C2125 C2124 1.405 . S
C2125 H2151 0.931 . S
U2126 O2127 2.454 . S
U2126 O2128 2.458 . S
U2126 C2129 2.984 . S
U2126 C2130 2.847 . S
U2126 C2143 2.882 . S
U2126 O2144 2.441 . S
U2126 O2145 2.420 . S
U2126 O2146 2.455 . S
U2126 O2147 2.449 . S
O2127 U2126 2.454 . S
O2127 C2129 1.353 . S
O2128 U2126 2.458 . S
O2128 C2129 1.286 . S
C2129 U2126 2.984 . S
C2129 O2127 1.353 . S
C2129 O2128 1.286 . S
C2129 C2131 1.363 . S
C2130 C2120 1.465 . S
C2130 U2126 2.847 . S
C2130 O2144 1.249 . S
C2130 O2145 1.202 . S
C2131 C2129 1.363 . S
C2131 C2133 1.408 . S
C2131 C2136 1.342 . S
C2132 C2133 1.310 . S
C2132 C2135 1.461 . S
C2132 H2152 0.932 . S
C2133 C2131 1.408 . S
C2133 C2132 1.310 . S
C2133 H2153 0.930 . S
C2134 C2135 1.474 . S
C2134 C2136 1.285 . S
C2134 H2154 0.929 . S
C2135 C2132 1.461 . S
C2135 C2134 1.474 . S
C2136 C2131 1.342 . S
C2136 C2134 1.285 . S
C2136 H2155 0.930 . S
C2137 C2140 1.424 . S
C2137 C2142 1.245 . S
C2137 C2143 1.428 . S
C2138 C2141 1.260 . S
C2138 C2142 1.477 . S
C2138 H2156 0.932 . S
C2139 C2140 1.384 . S
C2139 C2141 1.479 . S
C2139 H2157 0.929 . S
C2140 C2137 1.424 . S
C2140 C2139 1.384 . S
C2140 H2158 0.928 . S
C2141 C2138 1.260 . S
C2141 C2139 1.479 . S
C2142 C2137 1.245 . S
C2142 C2138 1.477 . S
C2142 H2159 0.932 . S
C2143 U2126 2.882 . S
C2143 C2137 1.428 . S
C2143 O2146 1.301 . S
C2143 O2147 1.282 . S
O2144 U2126 2.441 . S
O2144 C2130 1.249 . S
O2145 U2126 2.420 . S
O2145 C2130 1.202 . S
O2146 U2126 2.455 . S
O2146 C2143 1.301 . S
O2147 U2126 2.449 . S
O2147 C2143 1.282 . S
H2148 C2121 0.931 . S
H2149 C2123 0.929 . S
H2150 C2124 0.930 . S
H2151 C2125 0.931 . S
H2152 C2132 0.932 . S
H2153 C2133 0.930 . S
H2154 C2134 0.929 . S
H2155 C2136 0.930 . S
H2156 C2138 0.932 . S
H2157 C2139 0.929 . S
H2158 C2140 0.928 . S
H2159 C2142 0.932 . S
C2160 C2161 1.264 . S
C2160 C2165 1.479 . S
C2160 C2170 1.465 . S
C2161 C2160 1.264 . S
C2161 C2163 1.339 . S
C2161 H2188 0.931 . S
C2162 C2163 1.395 . S
C2162 C2164 1.320 . S
C2163 C2161 1.339 . S
C2163 C2162 1.395 . S
C2163 H2189 0.929 . S
C2164 C2162 1.320 . S
C2164 C2165 1.405 . S
C2164 H2190 0.930 . S
C2165 C2160 1.479 . S
C2165 C2164 1.405 . S
C2165 H2191 0.931 . S
U2166 O2167 2.454 . S
U2166 O2168 2.458 . S
U2166 C2169 2.984 . S
U2166 C2170 2.847 . S
U2166 C2183 2.882 . S
U2166 O2184 2.441 . S
U2166 O2185 2.420 . S
U2166 O2186 2.455 . S
U2166 O2187 2.449 . S
O2167 U2166 2.454 . S
O2167 C2169 1.353 . S
O2168 U2166 2.458 . S
O2168 C2169 1.286 . S
C2169 U2166 2.984 . S
C2169 O2167 1.353 . S
C2169 O2168 1.286 . S
C2169 C2171 1.363 . S
C2170 C2160 1.465 . S
C2170 U2166 2.847 . S
C2170 O2184 1.249 . S
C2170 O2185 1.202 . S
C2171 C2169 1.363 . S
C2171 C2173 1.408 . S
C2171 C2176 1.342 . S
C2172 C2173 1.310 . S
C2172 C2175 1.461 . S
C2172 H2192 0.932 . S
C2173 C2171 1.408 . S
C2173 C2172 1.310 . S
C2173 H2193 0.930 . S
C2174 C2175 1.474 . S
C2174 C2176 1.285 . S
C2174 H2194 0.929 . S
C2175 C2172 1.461 . S
C2175 C2174 1.474 . S
C2176 C2171 1.342 . S
C2176 C2174 1.285 . S
C2176 H2195 0.930 . S
C2177 C2180 1.424 . S
C2177 C2182 1.245 . S
C2177 C2183 1.428 . S
C2178 C2181 1.260 . S
C2178 C2182 1.477 . S
C2178 H2196 0.932 . S
C2179 C2180 1.384 . S
C2179 C2181 1.479 . S
C2179 H2197 0.929 . S
C2180 C2177 1.424 . S
C2180 C2179 1.384 . S
C2180 H2198 0.928 . S
C2181 C2178 1.260 . S
C2181 C2179 1.479 . S
C2182 C2177 1.245 . S
C2182 C2178 1.477 . S
C2182 H2199 0.932 . S
C2183 U2166 2.882 . S
C2183 C2177 1.428 . S
C2183 O2186 1.301 . S
C2183 O2187 1.282 . S
O2184 U2166 2.441 . S
O2184 C2170 1.249 . S
O2185 U2166 2.420 . S
O2185 C2170 1.202 . S
O2186 U2166 2.455 . S
O2186 C2183 1.301 . S
O2187 U2166 2.449 . S
O2187 C2183 1.282 . S
H2188 C2161 0.931 . S
H2189 C2163 0.929 . S
H2190 C2164 0.930 . S
H2191 C2165 0.931 . S
H2192 C2172 0.932 . S
H2193 C2173 0.930 . S
H2194 C2174 0.929 . S
H2195 C2176 0.930 . S
H2196 C2178 0.932 . S
H2197 C2179 0.929 . S
H2198 C2180 0.928 . S
H2199 C2182 0.932 . S
C2200 C2201 1.264 . S
C2200 C2205 1.479 . S
C2200 C2210 1.465 . S
C2201 C2200 1.264 . S
C2201 C2203 1.339 . S
C2201 H2228 0.931 . S
C2202 C2203 1.395 . S
C2202 C2204 1.320 . S
C2203 C2201 1.339 . S
C2203 C2202 1.395 . S
C2203 H2229 0.929 . S
C2204 C2202 1.320 . S
C2204 C2205 1.405 . S
C2204 H2230 0.930 . S
C2205 C2200 1.479 . S
C2205 C2204 1.405 . S
C2205 H2231 0.931 . S
U2206 O2207 2.454 . S
U2206 O2208 2.458 . S
U2206 C2209 2.984 . S
U2206 C2210 2.847 . S
U2206 C2223 2.882 . S
U2206 O2224 2.441 . S
U2206 O2225 2.420 . S
U2206 O2226 2.455 . S
U2206 O2227 2.449 . S
O2207 U2206 2.454 . S
O2207 C2209 1.353 . S
O2208 U2206 2.458 . S
O2208 C2209 1.286 . S
C2209 U2206 2.984 . S
C2209 O2207 1.353 . S
C2209 O2208 1.286 . S
C2209 C2211 1.363 . S
C2210 C2200 1.465 . S
C2210 U2206 2.847 . S
C2210 O2224 1.249 . S
C2210 O2225 1.202 . S
C2211 C2209 1.363 . S
C2211 C2213 1.408 . S
C2211 C2216 1.342 . S
C2212 C2213 1.310 . S
C2212 C2215 1.461 . S
C2212 H2232 0.932 . S
C2213 C2211 1.408 . S
C2213 C2212 1.310 . S
C2213 H2233 0.930 . S
C2214 C2215 1.474 . S
C2214 C2216 1.285 . S
C2214 H2234 0.929 . S
C2215 C2212 1.461 . S
C2215 C2214 1.474 . S
C2216 C2211 1.342 . S
C2216 C2214 1.285 . S
C2216 H2235 0.930 . S
C2217 C2220 1.424 . S
C2217 C2222 1.245 . S
C2217 C2223 1.428 . S
C2218 C2221 1.260 . S
C2218 C2222 1.477 . S
C2218 H2236 0.932 . S
C2219 C2220 1.384 . S
C2219 C2221 1.479 . S
C2219 H2237 0.929 . S
C2220 C2217 1.424 . S
C2220 C2219 1.384 . S
C2220 H2238 0.928 . S
C2221 C2218 1.260 . S
C2221 C2219 1.479 . S
C2222 C2217 1.245 . S
C2222 C2218 1.477 . S
C2222 H2239 0.932 . S
C2223 U2206 2.882 . S
C2223 C2217 1.428 . S
C2223 O2226 1.301 . S
C2223 O2227 1.282 . S
O2224 U2206 2.441 . S
O2224 C2210 1.249 . S
O2225 U2206 2.420 . S
O2225 C2210 1.202 . S
O2226 U2206 2.455 . S
O2226 C2223 1.301 . S
O2227 U2206 2.449 . S
O2227 C2223 1.282 . S
H2228 C2201 0.931 . S
H2229 C2203 0.929 . S
H2230 C2204 0.930 . S
H2231 C2205 0.931 . S
H2232 C2212 0.932 . S
H2233 C2213 0.930 . S
H2234 C2214 0.929 . S
H2235 C2216 0.930 . S
H2236 C2218 0.932 . S
H2237 C2219 0.929 . S
H2238 C2220 0.928 . S
H2239 C2222 0.932 . S
C2240 C2241 1.264 . S
C2240 C2245 1.479 . S
C2240 C2250 1.465 . S
C2241 C2240 1.264 . S
C2241 C2243 1.339 . S
C2241 H2268 0.931 . S
C2242 C2243 1.395 . S
C2242 C2244 1.320 . S
C2243 C2241 1.339 . S
C2243 C2242 1.395 . S
C2243 H2269 0.929 . S
C2244 C2242 1.320 . S
C2244 C2245 1.405 . S
C2244 H2270 0.930 . S
C2245 C2240 1.479 . S
C2245 C2244 1.405 . S
C2245 H2271 0.931 . S
U2246 O2247 2.454 . S
U2246 O2248 2.458 . S
U2246 C2249 2.984 . S
U2246 C2250 2.847 . S
U2246 C2263 2.882 . S
U2246 O2264 2.441 . S
U2246 O2265 2.420 . S
U2246 O2266 2.455 . S
U2246 O2267 2.449 . S
O2247 U2246 2.454 . S
O2247 C2249 1.353 . S
O2248 U2246 2.458 . S
O2248 C2249 1.286 . S
C2249 U2246 2.984 . S
C2249 O2247 1.353 . S
C2249 O2248 1.286 . S
C2249 C2251 1.363 . S
C2250 C2240 1.465 . S
C2250 U2246 2.847 . S
C2250 O2264 1.249 . S
C2250 O2265 1.202 . S
C2251 C2249 1.363 . S
C2251 C2253 1.408 . S
C2251 C2256 1.342 . S
C2252 C2253 1.310 . S
C2252 C2255 1.461 . S
C2252 H2272 0.932 . S
C2253 C2251 1.408 . S
C2253 C2252 1.310 . S
C2253 H2273 0.930 . S
C2254 C2255 1.474 . S
C2254 C2256 1.285 . S
C2254 H2274 0.929 . S
C2255 C2252 1.461 . S
C2255 C2254 1.474 . S
C2256 C2251 1.342 . S
C2256 C2254 1.285 . S
C2256 H2275 0.930 . S
C2257 C2260 1.424 . S
C2257 C2262 1.245 . S
C2257 C2263 1.428 . S
C2258 C2261 1.260 . S
C2258 C2262 1.477 . S
C2258 H2276 0.932 . S
C2259 C2260 1.384 . S
C2259 C2261 1.479 . S
C2259 H2277 0.929 . S
C2260 C2257 1.424 . S
C2260 C2259 1.384 . S
C2260 H2278 0.928 . S
C2261 C2258 1.260 . S
C2261 C2259 1.479 . S
C2262 C2257 1.245 . S
C2262 C2258 1.477 . S
C2262 H2279 0.932 . S
C2263 U2246 2.882 . S
C2263 C2257 1.428 . S
C2263 O2266 1.301 . S
C2263 O2267 1.282 . S
O2264 U2246 2.441 . S
O2264 C2250 1.249 . S
O2265 U2246 2.420 . S
O2265 C2250 1.202 . S
O2266 U2246 2.455 . S
O2266 C2263 1.301 . S
O2267 U2246 2.449 . S
O2267 C2263 1.282 . S
H2268 C2241 0.931 . S
H2269 C2243 0.929 . S
H2270 C2244 0.930 . S
H2271 C2245 0.931 . S
H2272 C2252 0.932 . S
H2273 C2253 0.930 . S
H2274 C2254 0.929 . S
H2275 C2256 0.930 . S
H2276 C2258 0.932 . S
H2277 C2259 0.929 . S
H2278 C2260 0.928 . S
H2279 C2262 0.932 . S
C2280 C2281 1.264 . S
C2280 C2285 1.479 . S
C2280 C2290 1.465 . S
C2281 C2280 1.264 . S
C2281 C2283 1.339 . S
C2281 H2308 0.931 . S
C2282 C2283 1.395 . S
C2282 C2284 1.320 . S
C2283 C2281 1.339 . S
C2283 C2282 1.395 . S
C2283 H2309 0.929 . S
C2284 C2282 1.320 . S
C2284 C2285 1.405 . S
C2284 H2310 0.930 . S
C2285 C2280 1.479 . S
C2285 C2284 1.405 . S
C2285 H2311 0.931 . S
U2286 O2287 2.454 . S
U2286 O2288 2.458 . S
U2286 C2289 2.984 . S
U2286 C2290 2.847 . S
U2286 C2303 2.882 . S
U2286 O2304 2.441 . S
U2286 O2305 2.420 . S
U2286 O2306 2.455 . S
U2286 O2307 2.449 . S
O2287 U2286 2.454 . S
O2287 C2289 1.353 . S
O2288 U2286 2.458 . S
O2288 C2289 1.286 . S
C2289 U2286 2.984 . S
C2289 O2287 1.353 . S
C2289 O2288 1.286 . S
C2289 C2291 1.363 . S
C2290 C2280 1.465 . S
C2290 U2286 2.847 . S
C2290 O2304 1.249 . S
C2290 O2305 1.202 . S
C2291 C2289 1.363 . S
C2291 C2293 1.408 . S
C2291 C2296 1.342 . S
C2292 C2293 1.310 . S
C2292 C2295 1.461 . S
C2292 H2312 0.932 . S
C2293 C2291 1.408 . S
C2293 C2292 1.310 . S
C2293 H2313 0.930 . S
C2294 C2295 1.474 . S
C2294 C2296 1.285 . S
C2294 H2314 0.929 . S
C2295 C2292 1.461 . S
C2295 C2294 1.474 . S
C2296 C2291 1.342 . S
C2296 C2294 1.285 . S
C2296 H2315 0.930 . S
C2297 C2300 1.424 . S
C2297 C2302 1.245 . S
C2297 C2303 1.428 . S
C2298 C2301 1.260 . S
C2298 C2302 1.477 . S
C2298 H2316 0.932 . S
C2299 C2300 1.384 . S
C2299 C2301 1.479 . S
C2299 H2317 0.929 . S
C2300 C2297 1.424 . S
C2300 C2299 1.384 . S
C2300 H2318 0.928 . S
C2301 C2298 1.260 . S
C2301 C2299 1.479 . S
C2302 C2297 1.245 . S
C2302 C2298 1.477 . S
C2302 H2319 0.932 . S
C2303 U2286 2.882 . S
C2303 C2297 1.428 . S
C2303 O2306 1.301 . S
C2303 O2307 1.282 . S
O2304 U2286 2.441 . S
O2304 C2290 1.249 . S
O2305 U2286 2.420 . S
O2305 C2290 1.202 . S
O2306 U2286 2.455 . S
O2306 C2303 1.301 . S
O2307 U2286 2.449 . S
O2307 C2303 1.282 . S
H2308 C2281 0.931 . S
H2309 C2283 0.929 . S
H2310 C2284 0.930 . S
H2311 C2285 0.931 . S
H2312 C2292 0.932 . S
H2313 C2293 0.930 . S
H2314 C2294 0.929 . S
H2315 C2296 0.930 . S
H2316 C2298 0.932 . S
H2317 C2299 0.929 . S
H2318 C2300 0.928 . S
H2319 C2302 0.932 . S
C2320 C2321 1.264 . S
C2320 C2325 1.479 . S
C2320 C2330 1.465 . S
C2321 C2320 1.264 . S
C2321 C2323 1.339 . S
C2321 H2348 0.931 . S
C2322 C2323 1.395 . S
C2322 C2324 1.320 . S
C2323 C2321 1.339 . S
C2323 C2322 1.395 . S
C2323 H2349 0.929 . S
C2324 C2322 1.320 . S
C2324 C2325 1.405 . S
C2324 H2350 0.930 . S
C2325 C2320 1.479 . S
C2325 C2324 1.405 . S
C2325 H2351 0.931 . S
U2326 O2327 2.454 . S
U2326 O2328 2.458 . S
U2326 C2329 2.984 . S
U2326 C2330 2.847 . S
U2326 C2343 2.882 . S
U2326 O2344 2.441 . S
U2326 O2345 2.420 . S
U2326 O2346 2.455 . S
U2326 O2347 2.449 . S
O2327 U2326 2.454 . S
O2327 C2329 1.353 . S
O2328 U2326 2.458 . S
O2328 C2329 1.286 . S
C2329 U2326 2.984 . S
C2329 O2327 1.353 . S
C2329 O2328 1.286 . S
C2329 C2331 1.363 . S
C2330 C2320 1.465 . S
C2330 U2326 2.847 . S
C2330 O2344 1.249 . S
C2330 O2345 1.202 . S
C2331 C2329 1.363 . S
C2331 C2333 1.408 . S
C2331 C2336 1.342 . S
C2332 C2333 1.310 . S
C2332 C2335 1.461 . S
C2332 H2352 0.932 . S
C2333 C2331 1.408 . S
C2333 C2332 1.310 . S
C2333 H2353 0.930 . S
C2334 C2335 1.474 . S
C2334 C2336 1.285 . S
C2334 H2354 0.929 . S
C2335 C2332 1.461 . S
C2335 C2334 1.474 . S
C2336 C2331 1.342 . S
C2336 C2334 1.285 . S
C2336 H2355 0.930 . S
C2337 C2340 1.424 . S
C2337 C2342 1.245 . S
C2337 C2343 1.428 . S
C2338 C2341 1.260 . S
C2338 C2342 1.477 . S
C2338 H2356 0.932 . S
C2339 C2340 1.384 . S
C2339 C2341 1.479 . S
C2339 H2357 0.929 . S
C2340 C2337 1.424 . S
C2340 C2339 1.384 . S
C2340 H2358 0.928 . S
C2341 C2338 1.260 . S
C2341 C2339 1.479 . S
C2342 C2337 1.245 . S
C2342 C2338 1.477 . S
C2342 H2359 0.932 . S
C2343 U2326 2.882 . S
C2343 C2337 1.428 . S
C2343 O2346 1.301 . S
C2343 O2347 1.282 . S
O2344 U2326 2.441 . S
O2344 C2330 1.249 . S
O2345 U2326 2.420 . S
O2345 C2330 1.202 . S
O2346 U2326 2.455 . S
O2346 C2343 1.301 . S
O2347 U2326 2.449 . S
O2347 C2343 1.282 . S
H2348 C2321 0.931 . S
H2349 C2323 0.929 . S
H2350 C2324 0.930 . S
H2351 C2325 0.931 . S
H2352 C2332 0.932 . S
H2353 C2333 0.930 . S
H2354 C2334 0.929 . S
H2355 C2336 0.930 . S
H2356 C2338 0.932 . S
H2357 C2339 0.929 . S
H2358 C2340 0.928 . S
H2359 C2342 0.932 . S
C2360 C2361 1.264 . S
C2360 C2365 1.479 . S
C2360 C2370 1.465 . S
C2361 C2360 1.264 . S
C2361 C2363 1.339 . S
C2361 H2388 0.931 . S
C2362 C2363 1.395 . S
C2362 C2364 1.320 . S
C2363 C2361 1.339 . S
C2363 C2362 1.395 . S
C2363 H2389 0.929 . S
C2364 C2362 1.320 . S
C2364 C2365 1.405 . S
C2364 H2390 0.930 . S
C2365 C2360 1.479 . S
C2365 C2364 1.405 . S
C2365 H2391 0.931 . S
U2366 O2367 2.454 . S
U2366 O2368 2.458 . S
U2366 C2369 2.984 . S
U2366 C2370 2.847 . S
U2366 C2383 2.882 . S
U2366 O2384 2.441 . S
U2366 O2385 2.420 . S
U2366 O2386 2.455 . S
U2366 O2387 2.449 . S
O2367 U2366 2.454 . S
O2367 C2369 1.353 . S
O2368 U2366 2.458 . S
O2368 C2369 1.286 . S
C2369 U2366 2.984 . S
C2369 O2367 1.353 . S
C2369 O2368 1.286 . S
C2369 C2371 1.363 . S
C2370 C2360 1.465 . S
C2370 U2366 2.847 . S
C2370 O2384 1.249 . S
C2370 O2385 1.202 . S
C2371 C2369 1.363 . S
C2371 C2373 1.408 . S
C2371 C2376 1.342 . S
C2372 C2373 1.310 . S
C2372 C2375 1.461 . S
C2372 H2392 0.932 . S
C2373 C2371 1.408 . S
C2373 C2372 1.310 . S
C2373 H2393 0.930 . S
C2374 C2375 1.474 . S
C2374 C2376 1.285 . S
C2374 H2394 0.929 . S
C2375 C2372 1.461 . S
C2375 C2374 1.474 . S
C2376 C2371 1.342 . S
C2376 C2374 1.285 . S
C2376 H2395 0.930 . S
C2377 C2380 1.424 . S
C2377 C2382 1.245 . S
C2377 C2383 1.428 . S
C2378 C2381 1.260 . S
C2378 C2382 1.477 . S
C2378 H2396 0.932 . S
C2379 C2380 1.384 . S
C2379 C2381 1.479 . S
C2379 H2397 0.929 . S
C2380 C2377 1.424 . S
C2380 C2379 1.384 . S
C2380 H2398 0.928 . S
C2381 C2378 1.260 . S
C2381 C2379 1.479 . S
C2382 C2377 1.245 . S
C2382 C2378 1.477 . S
C2382 H2399 0.932 . S
C2383 U2366 2.882 . S
C2383 C2377 1.428 . S
C2383 O2386 1.301 . S
C2383 O2387 1.282 . S
O2384 U2366 2.441 . S
O2384 C2370 1.249 . S
O2385 U2366 2.420 . S
O2385 C2370 1.202 . S
O2386 U2366 2.455 . S
O2386 C2383 1.301 . S
O2387 U2366 2.449 . S
O2387 C2383 1.282 . S
H2388 C2361 0.931 . S
H2389 C2363 0.929 . S
H2390 C2364 0.930 . S
H2391 C2365 0.931 . S
H2392 C2372 0.932 . S
H2393 C2373 0.930 . S
H2394 C2374 0.929 . S
H2395 C2376 0.930 . S
H2396 C2378 0.932 . S
H2397 C2379 0.929 . S
H2398 C2380 0.928 . S
H2399 C2382 0.932 . S
C2400 C2401 1.264 . S
C2400 C2405 1.479 . S
C2400 C2410 1.465 . S
C2401 C2400 1.264 . S
C2401 C2403 1.339 . S
C2401 H2428 0.931 . S
C2402 C2403 1.395 . S
C2402 C2404 1.320 . S
C2403 C2401 1.339 . S
C2403 C2402 1.395 . S
C2403 H2429 0.929 . S
C2404 C2402 1.320 . S
C2404 C2405 1.405 . S
C2404 H2430 0.930 . S
C2405 C2400 1.479 . S
C2405 C2404 1.405 . S
C2405 H2431 0.931 . S
U2406 O2407 2.454 . S
U2406 O2408 2.458 . S
U2406 C2409 2.984 . S
U2406 C2410 2.847 . S
U2406 C2423 2.882 . S
U2406 O2424 2.441 . S
U2406 O2425 2.420 . S
U2406 O2426 2.455 . S
U2406 O2427 2.449 . S
O2407 U2406 2.454 . S
O2407 C2409 1.353 . S
O2408 U2406 2.458 . S
O2408 C2409 1.286 . S
C2409 U2406 2.984 . S
C2409 O2407 1.353 . S
C2409 O2408 1.286 . S
C2409 C2411 1.363 . S
C2410 C2400 1.465 . S
C2410 U2406 2.847 . S
C2410 O2424 1.249 . S
C2410 O2425 1.202 . S
C2411 C2409 1.363 . S
C2411 C2413 1.408 . S
C2411 C2416 1.342 . S
C2412 C2413 1.310 . S
C2412 C2415 1.461 . S
C2412 H2432 0.932 . S
C2413 C2411 1.408 . S
C2413 C2412 1.310 . S
C2413 H2433 0.930 . S
C2414 C2415 1.474 . S
C2414 C2416 1.285 . S
C2414 H2434 0.929 . S
C2415 C2412 1.461 . S
C2415 C2414 1.474 . S
C2416 C2411 1.342 . S
C2416 C2414 1.285 . S
C2416 H2435 0.930 . S
C2417 C2420 1.424 . S
C2417 C2422 1.245 . S
C2417 C2423 1.428 . S
C2418 C2421 1.260 . S
C2418 C2422 1.477 . S
C2418 H2436 0.932 . S
C2419 C2420 1.384 . S
C2419 C2421 1.479 . S
C2419 H2437 0.929 . S
C2420 C2417 1.424 . S
C2420 C2419 1.384 . S
C2420 H2438 0.928 . S
C2421 C2418 1.260 . S
C2421 C2419 1.479 . S
C2422 C2417 1.245 . S
C2422 C2418 1.477 . S
C2422 H2439 0.932 . S
C2423 U2406 2.882 . S
C2423 C2417 1.428 . S
C2423 O2426 1.301 . S
C2423 O2427 1.282 . S
O2424 U2406 2.441 . S
O2424 C2410 1.249 . S
O2425 U2406 2.420 . S
O2425 C2410 1.202 . S
O2426 U2406 2.455 . S
O2426 C2423 1.301 . S
O2427 U2406 2.449 . S
O2427 C2423 1.282 . S
H2428 C2401 0.931 . S
H2429 C2403 0.929 . S
H2430 C2404 0.930 . S
H2431 C2405 0.931 . S
H2432 C2412 0.932 . S
H2433 C2413 0.930 . S
H2434 C2414 0.929 . S
H2435 C2416 0.930 . S
H2436 C2418 0.932 . S
H2437 C2419 0.929 . S
H2438 C2420 0.928 . S
H2439 C2422 0.932 . S
C2440 C2441 1.264 . S
C2440 C2445 1.479 . S
C2440 C2450 1.465 . S
C2441 C2440 1.264 . S
C2441 C2443 1.339 . S
C2441 H2468 0.931 . S
C2442 C2443 1.395 . S
C2442 C2444 1.320 . S
C2443 C2441 1.339 . S
C2443 C2442 1.395 . S
C2443 H2469 0.929 . S
C2444 C2442 1.320 . S
C2444 C2445 1.405 . S
C2444 H2470 0.930 . S
C2445 C2440 1.479 . S
C2445 C2444 1.405 . S
C2445 H2471 0.931 . S
U2446 O2447 2.454 . S
U2446 O2448 2.458 . S
U2446 C2449 2.984 . S
U2446 C2450 2.847 . S
U2446 C2463 2.882 . S
U2446 O2464 2.441 . S
U2446 O2465 2.420 . S
U2446 O2466 2.455 . S
U2446 O2467 2.449 . S
O2447 U2446 2.454 . S
O2447 C2449 1.353 . S
O2448 U2446 2.458 . S
O2448 C2449 1.286 . S
C2449 U2446 2.984 . S
C2449 O2447 1.353 . S
C2449 O2448 1.286 . S
C2449 C2451 1.363 . S
C2450 C2440 1.465 . S
C2450 U2446 2.847 . S
C2450 O2464 1.249 . S
C2450 O2465 1.202 . S
C2451 C2449 1.363 . S
C2451 C2453 1.408 . S
C2451 C2456 1.342 . S
C2452 C2453 1.310 . S
C2452 C2455 1.461 . S
C2452 H2472 0.932 . S
C2453 C2451 1.408 . S
C2453 C2452 1.310 . S
C2453 H2473 0.930 . S
C2454 C2455 1.474 . S
C2454 C2456 1.285 . S
C2454 H2474 0.929 . S
C2455 C2452 1.461 . S
C2455 C2454 1.474 . S
C2456 C2451 1.342 . S
C2456 C2454 1.285 . S
C2456 H2475 0.930 . S
C2457 C2460 1.424 . S
C2457 C2462 1.245 . S
C2457 C2463 1.428 . S
C2458 C2461 1.260 . S
C2458 C2462 1.477 . S
C2458 H2476 0.932 . S
C2459 C2460 1.384 . S
C2459 C2461 1.479 . S
C2459 H2477 0.929 . S
C2460 C2457 1.424 . S
C2460 C2459 1.384 . S
C2460 H2478 0.928 . S
C2461 C2458 1.260 . S
C2461 C2459 1.479 . S
C2462 C2457 1.245 . S
C2462 C2458 1.477 . S
C2462 H2479 0.932 . S
C2463 U2446 2.882 . S
C2463 C2457 1.428 . S
C2463 O2466 1.301 . S
C2463 O2467 1.282 . S
O2464 U2446 2.441 . S
O2464 C2450 1.249 . S
O2465 U2446 2.420 . S
O2465 C2450 1.202 . S
O2466 U2446 2.455 . S
O2466 C2463 1.301 . S
O2467 U2446 2.449 . S
O2467 C2463 1.282 . S
H2468 C2441 0.931 . S
H2469 C2443 0.929 . S
H2470 C2444 0.930 . S
H2471 C2445 0.931 . S
H2472 C2452 0.932 . S
H2473 C2453 0.930 . S
H2474 C2454 0.929 . S
H2475 C2456 0.930 . S
H2476 C2458 0.932 . S
H2477 C2459 0.929 . S
H2478 C2460 0.928 . S
H2479 C2462 0.932 . S
C2480 C2481 1.264 . S
C2480 C2485 1.479 . S
C2480 C2490 1.465 . S
C2481 C2480 1.264 . S
C2481 C2483 1.339 . S
C2481 H2508 0.931 . S
C2482 C2483 1.395 . S
C2482 C2484 1.320 . S
C2483 C2481 1.339 . S
C2483 C2482 1.395 . S
C2483 H2509 0.929 . S
C2484 C2482 1.320 . S
C2484 C2485 1.405 . S
C2484 H2510 0.930 . S
C2485 C2480 1.479 . S
C2485 C2484 1.405 . S
C2485 H2511 0.931 . S
U2486 O2487 2.454 . S
U2486 O2488 2.458 . S
U2486 C2489 2.984 . S
U2486 C2490 2.847 . S
U2486 C2503 2.882 . S
U2486 O2504 2.441 . S
U2486 O2505 2.420 . S
U2486 O2506 2.455 . S
U2486 O2507 2.449 . S
O2487 U2486 2.454 . S
O2487 C2489 1.353 . S
O2488 U2486 2.458 . S
O2488 C2489 1.286 . S
C2489 U2486 2.984 . S
C2489 O2487 1.353 . S
C2489 O2488 1.286 . S
C2489 C2491 1.363 . S
C2490 C2480 1.465 . S
C2490 U2486 2.847 . S
C2490 O2504 1.249 . S
C2490 O2505 1.202 . S
C2491 C2489 1.363 . S
C2491 C2493 1.408 . S
C2491 C2496 1.342 . S
C2492 C2493 1.310 . S
C2492 C2495 1.461 . S
C2492 H2512 0.932 . S
C2493 C2491 1.408 . S
C2493 C2492 1.310 . S
C2493 H2513 0.930 . S
C2494 C2495 1.474 . S
C2494 C2496 1.285 . S
C2494 H2514 0.929 . S
C2495 C2492 1.461 . S
C2495 C2494 1.474 . S
C2496 C2491 1.342 . S
C2496 C2494 1.285 . S
C2496 H2515 0.930 . S
C2497 C2500 1.424 . S
C2497 C2502 1.245 . S
C2497 C2503 1.428 . S
C2498 C2501 1.260 . S
C2498 C2502 1.477 . S
C2498 H2516 0.932 . S
C2499 C2500 1.384 . S
C2499 C2501 1.479 . S
C2499 H2517 0.929 . S
C2500 C2497 1.424 . S
C2500 C2499 1.384 . S
C2500 H2518 0.928 . S
C2501 C2498 1.260 . S
C2501 C2499 1.479 . S
C2502 C2497 1.245 . S
C2502 C2498 1.477 . S
C2502 H2519 0.932 . S
C2503 U2486 2.882 . S
C2503 C2497 1.428 . S
C2503 O2506 1.301 . S
C2503 O2507 1.282 . S
O2504 U2486 2.441 . S
O2504 C2490 1.249 . S
O2505 U2486 2.420 . S
O2505 C2490 1.202 . S
O2506 U2486 2.455 . S
O2506 C2503 1.301 . S
O2507 U2486 2.449 . S
O2507 C2503 1.282 . S
H2508 C2481 0.931 . S
H2509 C2483 0.929 . S
H2510 C2484 0.930 . S
H2511 C2485 0.931 . S
H2512 C2492 0.932 . S
H2513 C2493 0.930 . S
H2514 C2494 0.929 . S
H2515 C2496 0.930 . S
H2516 C2498 0.932 . S
H2517 C2499 0.929 . S
H2518 C2500 0.928 . S
H2519 C2502 0.932 . S
C2520 C2521 1.264 . S
C2520 C2525 1.479 . S
C2520 C2530 1.465 . S
C2521 C2520 1.264 . S
C2521 C2523 1.339 . S
C2521 H2548 0.931 . S
C2522 C2523 1.395 . S
C2522 C2524 1.320 . S
C2523 C2521 1.339 . S
C2523 C2522 1.395 . S
C2523 H2549 0.929 . S
C2524 C2522 1.320 . S
C2524 C2525 1.405 . S
C2524 H2550 0.930 . S
C2525 C2520 1.479 . S
C2525 C2524 1.405 . S
C2525 H2551 0.931 . S
U2526 O2527 2.454 . S
U2526 O2528 2.458 . S
U2526 C2529 2.984 . S
U2526 C2530 2.847 . S
U2526 C2543 2.882 . S
U2526 O2544 2.441 . S
U2526 O2545 2.420 . S
U2526 O2546 2.455 . S
U2526 O2547 2.449 . S
O2527 U2526 2.454 . S
O2527 C2529 1.353 . S
O2528 U2526 2.458 . S
O2528 C2529 1.286 . S
C2529 U2526 2.984 . S
C2529 O2527 1.353 . S
C2529 O2528 1.286 . S
C2529 C2531 1.363 . S
C2530 C2520 1.465 . S
C2530 U2526 2.847 . S
C2530 O2544 1.249 . S
C2530 O2545 1.202 . S
C2531 C2529 1.363 . S
C2531 C2533 1.408 . S
C2531 C2536 1.342 . S
C2532 C2533 1.310 . S
C2532 C2535 1.461 . S
C2532 H2552 0.932 . S
C2533 C2531 1.408 . S
C2533 C2532 1.310 . S
C2533 H2553 0.930 . S
C2534 C2535 1.474 . S
C2534 C2536 1.285 . S
C2534 H2554 0.929 . S
C2535 C2532 1.461 . S
C2535 C2534 1.474 . S
C2536 C2531 1.342 . S
C2536 C2534 1.285 . S
C2536 H2555 0.930 . S
C2537 C2540 1.424 . S
C2537 C2542 1.245 . S
C2537 C2543 1.428 . S
C2538 C2541 1.260 . S
C2538 C2542 1.477 . S
C2538 H2556 0.932 . S
C2539 C2540 1.384 . S
C2539 C2541 1.479 . S
C2539 H2557 0.929 . S
C2540 C2537 1.424 . S
C2540 C2539 1.384 . S
C2540 H2558 0.928 . S
C2541 C2538 1.260 . S
C2541 C2539 1.479 . S
C2542 C2537 1.245 . S
C2542 C2538 1.477 . S
C2542 H2559 0.932 . S
C2543 U2526 2.882 . S
C2543 C2537 1.428 . S
C2543 O2546 1.301 . S
C2543 O2547 1.282 . S
O2544 U2526 2.441 . S
O2544 C2530 1.249 . S
O2545 U2526 2.420 . S
O2545 C2530 1.202 . S
O2546 U2526 2.455 . S
O2546 C2543 1.301 . S
O2547 U2526 2.449 . S
O2547 C2543 1.282 . S
H2548 C2521 0.931 . S
H2549 C2523 0.929 . S
H2550 C2524 0.930 . S
H2551 C2525 0.931 . S
H2552 C2532 0.932 . S
H2553 C2533 0.930 . S
H2554 C2534 0.929 . S
H2555 C2536 0.930 . S
H2556 C2538 0.932 . S
H2557 C2539 0.929 . S
H2558 C2540 0.928 . S
H2559 C2542 0.932 . S
C2560 C2561 1.264 . S
C2560 C2565 1.479 . S
C2560 C2570 1.465 . S
C2561 C2560 1.264 . S
C2561 C2563 1.339 . S
C2561 H2588 0.931 . S
C2562 C2563 1.395 . S
C2562 C2564 1.320 . S
C2563 C2561 1.339 . S
C2563 C2562 1.395 . S
C2563 H2589 0.929 . S
C2564 C2562 1.320 . S
C2564 C2565 1.405 . S
C2564 H2590 0.930 . S
C2565 C2560 1.479 . S
C2565 C2564 1.405 . S
C2565 H2591 0.931 . S
U2566 O2567 2.454 . S
U2566 O2568 2.458 . S
U2566 C2569 2.984 . S
U2566 C2570 2.847 . S
U2566 C2583 2.882 . S
U2566 O2584 2.441 . S
U2566 O2585 2.420 . S
U2566 O2586 2.455 . S
U2566 O2587 2.449 . S
O2567 U2566 2.454 . S
O2567 C2569 1.353 . S
O2568 U2566 2.458 . S
O2568 C2569 1.286 . S
C2569 U2566 2.984 . S
C2569 O2567 1.353 . S
C2569 O2568 1.286 . S
C2569 C2571 1.363 . S
C2570 C2560 1.465 . S
C2570 U2566 2.847 . S
C2570 O2584 1.249 . S
C2570 O2585 1.202 . S
C2571 C2569 1.363 . S
C2571 C2573 1.408 . S
C2571 C2576 1.342 . S
C2572 C2573 1.310 . S
C2572 C2575 1.461 . S
C2572 H2592 0.932 . S
C2573 C2571 1.408 . S
C2573 C2572 1.310 . S
C2573 H2593 0.930 . S
C2574 C2575 1.474 . S
C2574 C2576 1.285 . S
C2574 H2594 0.929 . S
C2575 C2572 1.461 . S
C2575 C2574 1.474 . S
C2576 C2571 1.342 . S
C2576 C2574 1.285 . S
C2576 H2595 0.930 . S
C2577 C2580 1.424 . S
C2577 C2582 1.245 . S
C2577 C2583 1.428 . S
C2578 C2581 1.260 . S
C2578 C2582 1.477 . S
C2578 H2596 0.932 . S
C2579 C2580 1.384 . S
C2579 C2581 1.479 . S
C2579 H2597 0.929 . S
C2580 C2577 1.424 . S
C2580 C2579 1.384 . S
C2580 H2598 0.928 . S
C2581 C2578 1.260 . S
C2581 C2579 1.479 . S
C2582 C2577 1.245 . S
C2582 C2578 1.477 . S
C2582 H2599 0.932 . S
C2583 U2566 2.882 . S
C2583 C2577 1.428 . S
C2583 O2586 1.301 . S
C2583 O2587 1.282 . S
O2584 U2566 2.441 . S
O2584 C2570 1.249 . S
O2585 U2566 2.420 . S
O2585 C2570 1.202 . S
O2586 U2566 2.455 . S
O2586 C2583 1.301 . S
O2587 U2566 2.449 . S
O2587 C2583 1.282 . S
H2588 C2561 0.931 . S
H2589 C2563 0.929 . S
H2590 C2564 0.930 . S
H2591 C2565 0.931 . S
H2592 C2572 0.932 . S
H2593 C2573 0.930 . S
H2594 C2574 0.929 . S
H2595 C2576 0.930 . S
H2596 C2578 0.932 . S
H2597 C2579 0.929 . S
H2598 C2580 0.928 . S
H2599 C2582 0.932 . S
C2600 C2601 1.264 . S
C2600 C2605 1.479 . S
C2600 C2610 1.465 . S
C2601 C2600 1.264 . S
C2601 C2603 1.339 . S
C2601 H2628 0.931 . S
C2602 C2603 1.395 . S
C2602 C2604 1.320 . S
C2603 C2601 1.339 . S
C2603 C2602 1.395 . S
C2603 H2629 0.929 . S
C2604 C2602 1.320 . S
C2604 C2605 1.405 . S
C2604 H2630 0.930 . S
C2605 C2600 1.479 . S
C2605 C2604 1.405 . S
C2605 H2631 0.931 . S
U2606 O2607 2.454 . S
U2606 O2608 2.458 . S
U2606 C2609 2.984 . S
U2606 C2610 2.847 . S
U2606 C2623 2.882 . S
U2606 O2624 2.441 . S
U2606 O2625 2.420 . S
U2606 O2626 2.455 . S
U2606 O2627 2.449 . S
O2607 U2606 2.454 . S
O2607 C2609 1.353 . S
O2608 U2606 2.458 . S
O2608 C2609 1.286 . S
C2609 U2606 2.984 . S
C2609 O2607 1.353 . S
C2609 O2608 1.286 . S
C2609 C2611 1.363 . S
C2610 C2600 1.465 . S
C2610 U2606 2.847 . S
C2610 O2624 1.249 . S
C2610 O2625 1.202 . S
C2611 C2609 1.363 . S
C2611 C2613 1.408 . S
C2611 C2616 1.342 . S
C2612 C2613 1.310 . S
C2612 C2615 1.461 . S
C2612 H2632 0.932 . S
C2613 C2611 1.408 . S
C2613 C2612 1.310 . S
C2613 H2633 0.930 . S
C2614 C2615 1.474 . S
C2614 C2616 1.285 . S
C2614 H2634 0.929 . S
C2615 C2612 1.461 . S
C2615 C2614 1.474 . S
C2616 C2611 1.342 . S
C2616 C2614 1.285 . S
C2616 H2635 0.930 . S
C2617 C2620 1.424 . S
C2617 C2622 1.245 . S
C2617 C2623 1.428 . S
C2618 C2621 1.260 . S
C2618 C2622 1.477 . S
C2618 H2636 0.932 . S
C2619 C2620 1.384 . S
C2619 C2621 1.479 . S
C2619 H2637 0.929 . S
C2620 C2617 1.424 . S
C2620 C2619 1.384 . S
C2620 H2638 0.928 . S
C2621 C2618 1.260 . S
C2621 C2619 1.479 . S
C2622 C2617 1.245 . S
C2622 C2618 1.477 . S
C2622 H2639 0.932 . S
C2623 U2606 2.882 . S
C2623 C2617 1.428 . S
C2623 O2626 1.301 . S
C2623 O2627 1.282 . S
O2624 U2606 2.441 . S
O2624 C2610 1.249 . S
O2625 U2606 2.420 . S
O2625 C2610 1.202 . S
O2626 U2606 2.455 . S
O2626 C2623 1.301 . S
O2627 U2606 2.449 . S
O2627 C2623 1.282 . S
H2628 C2601 0.931 . S
H2629 C2603 0.929 . S
H2630 C2604 0.930 . S
H2631 C2605 0.931 . S
H2632 C2612 0.932 . S
H2633 C2613 0.930 . S
H2634 C2614 0.929 . S
H2635 C2616 0.930 . S
H2636 C2618 0.932 . S
H2637 C2619 0.929 . S
H2638 C2620 0.928 . S
H2639 C2622 0.932 . S
C2640 C2641 1.264 . S
C2640 C2645 1.479 . S
C2640 C2650 1.465 . S
C2641 C2640 1.264 . S
C2641 C2643 1.339 . S
C2641 H2668 0.931 . S
C2642 C2643 1.395 . S
C2642 C2644 1.320 . S
C2643 C2641 1.339 . S
C2643 C2642 1.395 . S
C2643 H2669 0.929 . S
C2644 C2642 1.320 . S
C2644 C2645 1.405 . S
C2644 H2670 0.930 . S
C2645 C2640 1.479 . S
C2645 C2644 1.405 . S
C2645 H2671 0.931 . S
U2646 O2647 2.454 . S
U2646 O2648 2.458 . S
U2646 C2649 2.984 . S
U2646 C2650 2.847 . S
U2646 C2663 2.882 . S
U2646 O2664 2.441 . S
U2646 O2665 2.420 . S
U2646 O2666 2.455 . S
U2646 O2667 2.449 . S
O2647 U2646 2.454 . S
O2647 C2649 1.353 . S
O2648 U2646 2.458 . S
O2648 C2649 1.286 . S
C2649 U2646 2.984 . S
C2649 O2647 1.353 . S
C2649 O2648 1.286 . S
C2649 C2651 1.363 . S
C2650 C2640 1.465 . S
C2650 U2646 2.847 . S
C2650 O2664 1.249 . S
C2650 O2665 1.202 . S
C2651 C2649 1.363 . S
C2651 C2653 1.408 . S
C2651 C2656 1.342 . S
C2652 C2653 1.310 . S
C2652 C2655 1.461 . S
C2652 H2672 0.932 . S
C2653 C2651 1.408 . S
C2653 C2652 1.310 . S
C2653 H2673 0.930 . S
C2654 C2655 1.474 . S
C2654 C2656 1.285 . S
C2654 H2674 0.929 . S
C2655 C2652 1.461 . S
C2655 C2654 1.474 . S
C2656 C2651 1.342 . S
C2656 C2654 1.285 . S
C2656 H2675 0.930 . S
C2657 C2660 1.424 . S
C2657 C2662 1.245 . S
C2657 C2663 1.428 . S
C2658 C2661 1.260 . S
C2658 C2662 1.477 . S
C2658 H2676 0.932 . S
C2659 C2660 1.384 . S
C2659 C2661 1.479 . S
C2659 H2677 0.929 . S
C2660 C2657 1.424 . S
C2660 C2659 1.384 . S
C2660 H2678 0.928 . S
C2661 C2658 1.260 . S
C2661 C2659 1.479 . S
C2662 C2657 1.245 . S
C2662 C2658 1.477 . S
C2662 H2679 0.932 . S
C2663 U2646 2.882 . S
C2663 C2657 1.428 . S
C2663 O2666 1.301 . S
C2663 O2667 1.282 . S
O2664 U2646 2.441 . S
O2664 C2650 1.249 . S
O2665 U2646 2.420 . S
O2665 C2650 1.202 . S
O2666 U2646 2.455 . S
O2666 C2663 1.301 . S
O2667 U2646 2.449 . S
O2667 C2663 1.282 . S
H2668 C2641 0.931 . S
H2669 C2643 0.929 . S
H2670 C2644 0.930 . S
H2671 C2645 0.931 . S
H2672 C2652 0.932 . S
H2673 C2653 0.930 . S
H2674 C2654 0.929 . S
H2675 C2656 0.930 . S
H2676 C2658 0.932 . S
H2677 C2659 0.929 . S
H2678 C2660 0.928 . S
H2679 C2662 0.932 . S
C2680 C2681 1.264 . S
C2680 C2685 1.479 . S
C2680 C2690 1.465 . S
C2681 C2680 1.264 . S
C2681 C2683 1.339 . S
C2681 H2708 0.931 . S
C2682 C2683 1.395 . S
C2682 C2684 1.320 . S
C2683 C2681 1.339 . S
C2683 C2682 1.395 . S
C2683 H2709 0.929 . S
C2684 C2682 1.320 . S
C2684 C2685 1.405 . S
C2684 H2710 0.930 . S
C2685 C2680 1.479 . S
C2685 C2684 1.405 . S
C2685 H2711 0.931 . S
U2686 O2687 2.454 . S
U2686 O2688 2.458 . S
U2686 C2689 2.984 . S
U2686 C2690 2.847 . S
U2686 C2703 2.882 . S
U2686 O2704 2.441 . S
U2686 O2705 2.420 . S
U2686 O2706 2.455 . S
U2686 O2707 2.449 . S
O2687 U2686 2.454 . S
O2687 C2689 1.353 . S
O2688 U2686 2.458 . S
O2688 C2689 1.286 . S
C2689 U2686 2.984 . S
C2689 O2687 1.353 . S
C2689 O2688 1.286 . S
C2689 C2691 1.363 . S
C2690 C2680 1.465 . S
C2690 U2686 2.847 . S
C2690 O2704 1.249 . S
C2690 O2705 1.202 . S
C2691 C2689 1.363 . S
C2691 C2693 1.408 . S
C2691 C2696 1.342 . S
C2692 C2693 1.310 . S
C2692 C2695 1.461 . S
C2692 H2712 0.932 . S
C2693 C2691 1.408 . S
C2693 C2692 1.310 . S
C2693 H2713 0.930 . S
C2694 C2695 1.474 . S
C2694 C2696 1.285 . S
C2694 H2714 0.929 . S
C2695 C2692 1.461 . S
C2695 C2694 1.474 . S
C2696 C2691 1.342 . S
C2696 C2694 1.285 . S
C2696 H2715 0.930 . S
C2697 C2700 1.424 . S
C2697 C2702 1.245 . S
C2697 C2703 1.428 . S
C2698 C2701 1.260 . S
C2698 C2702 1.477 . S
C2698 H2716 0.932 . S
C2699 C2700 1.384 . S
C2699 C2701 1.479 . S
C2699 H2717 0.929 . S
C2700 C2697 1.424 . S
C2700 C2699 1.384 . S
C2700 H2718 0.928 . S
C2701 C2698 1.260 . S
C2701 C2699 1.479 . S
C2702 C2697 1.245 . S
C2702 C2698 1.477 . S
C2702 H2719 0.932 . S
C2703 U2686 2.882 . S
C2703 C2697 1.428 . S
C2703 O2706 1.301 . S
C2703 O2707 1.282 . S
O2704 U2686 2.441 . S
O2704 C2690 1.249 . S
O2705 U2686 2.420 . S
O2705 C2690 1.202 . S
O2706 U2686 2.455 . S
O2706 C2703 1.301 . S
O2707 U2686 2.449 . S
O2707 C2703 1.282 . S
H2708 C2681 0.931 . S
H2709 C2683 0.929 . S
H2710 C2684 0.930 . S
H2711 C2685 0.931 . S
H2712 C2692 0.932 . S
H2713 C2693 0.930 . S
H2714 C2694 0.929 . S
H2715 C2696 0.930 . S
H2716 C2698 0.932 . S
H2717 C2699 0.929 . S
H2718 C2700 0.928 . S
H2719 C2702 0.932 . S
C2720 C2721 1.264 . S
C2720 C2725 1.479 . S
C2720 C2730 1.465 . S
C2721 C2720 1.264 . S
C2721 C2723 1.339 . S
C2721 H2748 0.931 . S
C2722 C2723 1.395 . S
C2722 C2724 1.320 . S
C2723 C2721 1.339 . S
C2723 C2722 1.395 . S
C2723 H2749 0.929 . S
C2724 C2722 1.320 . S
C2724 C2725 1.405 . S
C2724 H2750 0.930 . S
C2725 C2720 1.479 . S
C2725 C2724 1.405 . S
C2725 H2751 0.931 . S
U2726 O2727 2.454 . S
U2726 O2728 2.458 . S
U2726 C2729 2.984 . S
U2726 C2730 2.847 . S
U2726 C2743 2.882 . S
U2726 O2744 2.441 . S
U2726 O2745 2.420 . S
U2726 O2746 2.455 . S
U2726 O2747 2.449 . S
O2727 U2726 2.454 . S
O2727 C2729 1.353 . S
O2728 U2726 2.458 . S
O2728 C2729 1.286 . S
C2729 U2726 2.984 . S
C2729 O2727 1.353 . S
C2729 O2728 1.286 . S
C2729 C2731 1.363 . S
C2730 C2720 1.465 . S
C2730 U2726 2.847 . S
C2730 O2744 1.249 . S
C2730 O2745 1.202 . S
C2731 C2729 1.363 . S
C2731 C2733 1.408 . S
C2731 C2736 1.342 . S
C2732 C2733 1.310 . S
C2732 C2735 1.461 . S
C2732 H2752 0.932 . S
C2733 C2731 1.408 . S
C2733 C2732 1.310 . S
C2733 H2753 0.930 . S
C2734 C2735 1.474 . S
C2734 C2736 1.285 . S
C2734 H2754 0.929 . S
C2735 C2732 1.461 . S
C2735 C2734 1.474 . S
C2736 C2731 1.342 . S
C2736 C2734 1.285 . S
C2736 H2755 0.930 . S
C2737 C2740 1.424 . S
C2737 C2742 1.245 . S
C2737 C2743 1.428 . S
C2738 C2741 1.260 . S
C2738 C2742 1.477 . S
C2738 H2756 0.932 . S
C2739 C2740 1.384 . S
C2739 C2741 1.479 . S
C2739 H2757 0.929 . S
C2740 C2737 1.424 . S
C2740 C2739 1.384 . S
C2740 H2758 0.928 . S
C2741 C2738 1.260 . S
C2741 C2739 1.479 . S
C2742 C2737 1.245 . S
C2742 C2738 1.477 . S
C2742 H2759 0.932 . S
C2743 U2726 2.882 . S
C2743 C2737 1.428 . S
C2743 O2746 1.301 . S
C2743 O2747 1.282 . S
O2744 U2726 2.441 . S
O2744 C2730 1.249 . S
O2745 U2726 2.420 . S
O2745 C2730 1.202 . S
O2746 U2726 2.455 . S
O2746 C2743 1.301 . S
O2747 U2726 2.449 . S
O2747 C2743 1.282 . S
H2748 C2721 0.931 . S
H2749 C2723 0.929 . S
H2750 C2724 0.930 . S
H2751 C2725 0.931 . S
H2752 C2732 0.932 . S
H2753 C2733 0.930 . S
H2754 C2734 0.929 . S
H2755 C2736 0.930 . S
H2756 C2738 0.932 . S
H2757 C2739 0.929 . S
H2758 C2740 0.928 . S
H2759 C2742 0.932 . S
C2760 C2761 1.264 . S
C2760 C2765 1.479 . S
C2760 C2770 1.465 . S
C2761 C2760 1.264 . S
C2761 C2763 1.339 . S
C2761 H2788 0.931 . S
C2762 C2763 1.395 . S
C2762 C2764 1.320 . S
C2763 C2761 1.339 . S
C2763 C2762 1.395 . S
C2763 H2789 0.929 . S
C2764 C2762 1.320 . S
C2764 C2765 1.405 . S
C2764 H2790 0.930 . S
C2765 C2760 1.479 . S
C2765 C2764 1.405 . S
C2765 H2791 0.931 . S
U2766 O2767 2.454 . S
U2766 O2768 2.458 . S
U2766 C2769 2.984 . S
U2766 C2770 2.847 . S
U2766 C2783 2.882 . S
U2766 O2784 2.441 . S
U2766 O2785 2.420 . S
U2766 O2786 2.455 . S
U2766 O2787 2.449 . S
O2767 U2766 2.454 . S
O2767 C2769 1.353 . S
O2768 U2766 2.458 . S
O2768 C2769 1.286 . S
C2769 U2766 2.984 . S
C2769 O2767 1.353 . S
C2769 O2768 1.286 . S
C2769 C2771 1.363 . S
C2770 C2760 1.465 . S
C2770 U2766 2.847 . S
C2770 O2784 1.249 . S
C2770 O2785 1.202 . S
C2771 C2769 1.363 . S
C2771 C2773 1.408 . S
C2771 C2776 1.342 . S
C2772 C2773 1.310 . S
C2772 C2775 1.461 . S
C2772 H2792 0.932 . S
C2773 C2771 1.408 . S
C2773 C2772 1.310 . S
C2773 H2793 0.930 . S
C2774 C2775 1.474 . S
C2774 C2776 1.285 . S
C2774 H2794 0.929 . S
C2775 C2772 1.461 . S
C2775 C2774 1.474 . S
C2776 C2771 1.342 . S
C2776 C2774 1.285 . S
C2776 H2795 0.930 . S
C2777 C2780 1.424 . S
C2777 C2782 1.245 . S
C2777 C2783 1.428 . S
C2778 C2781 1.260 . S
C2778 C2782 1.477 . S
C2778 H2796 0.932 . S
C2779 C2780 1.384 . S
C2779 C2781 1.479 . S
C2779 H2797 0.929 . S
C2780 C2777 1.424 . S
C2780 C2779 1.384 . S
C2780 H2798 0.928 . S
C2781 C2778 1.260 . S
C2781 C2779 1.479 . S
C2782 C2777 1.245 . S
C2782 C2778 1.477 . S
C2782 H2799 0.932 . S
C2783 U2766 2.882 . S
C2783 C2777 1.428 . S
C2783 O2786 1.301 . S
C2783 O2787 1.282 . S
O2784 U2766 2.441 . S
O2784 C2770 1.249 . S
O2785 U2766 2.420 . S
O2785 C2770 1.202 . S
O2786 U2766 2.455 . S
O2786 C2783 1.301 . S
O2787 U2766 2.449 . S
O2787 C2783 1.282 . S
H2788 C2761 0.931 . S
H2789 C2763 0.929 . S
H2790 C2764 0.930 . S
H2791 C2765 0.931 . S
H2792 C2772 0.932 . S
H2793 C2773 0.930 . S
H2794 C2774 0.929 . S
H2795 C2776 0.930 . S
H2796 C2778 0.932 . S
H2797 C2779 0.929 . S
H2798 C2780 0.928 . S
H2799 C2782 0.932 . S
C2800 C2801 1.264 . S
C2800 C2805 1.479 . S
C2800 C2810 1.465 . S
C2801 C2800 1.264 . S
C2801 C2803 1.339 . S
C2801 H2828 0.931 . S
C2802 C2803 1.395 . S
C2802 C2804 1.320 . S
C2803 C2801 1.339 . S
C2803 C2802 1.395 . S
C2803 H2829 0.929 . S
C2804 C2802 1.320 . S
C2804 C2805 1.405 . S
C2804 H2830 0.930 . S
C2805 C2800 1.479 . S
C2805 C2804 1.405 . S
C2805 H2831 0.931 . S
U2806 O2807 2.454 . S
U2806 O2808 2.458 . S
U2806 C2809 2.984 . S
U2806 C2810 2.847 . S
U2806 C2823 2.882 . S
U2806 O2824 2.441 . S
U2806 O2825 2.420 . S
U2806 O2826 2.455 . S
U2806 O2827 2.449 . S
O2807 U2806 2.454 . S
O2807 C2809 1.353 . S
O2808 U2806 2.458 . S
O2808 C2809 1.286 . S
C2809 U2806 2.984 . S
C2809 O2807 1.353 . S
C2809 O2808 1.286 . S
C2809 C2811 1.363 . S
C2810 C2800 1.465 . S
C2810 U2806 2.847 . S
C2810 O2824 1.249 . S
C2810 O2825 1.202 . S
C2811 C2809 1.363 . S
C2811 C2813 1.408 . S
C2811 C2816 1.342 . S
C2812 C2813 1.310 . S
C2812 C2815 1.461 . S
C2812 H2832 0.932 . S
C2813 C2811 1.408 . S
C2813 C2812 1.310 . S
C2813 H2833 0.930 . S
C2814 C2815 1.474 . S
C2814 C2816 1.285 . S
C2814 H2834 0.929 . S
C2815 C2812 1.461 . S
C2815 C2814 1.474 . S
C2816 C2811 1.342 . S
C2816 C2814 1.285 . S
C2816 H2835 0.930 . S
C2817 C2820 1.424 . S
C2817 C2822 1.245 . S
C2817 C2823 1.428 . S
C2818 C2821 1.260 . S
C2818 C2822 1.477 . S
C2818 H2836 0.932 . S
C2819 C2820 1.384 . S
C2819 C2821 1.479 . S
C2819 H2837 0.929 . S
C2820 C2817 1.424 . S
C2820 C2819 1.384 . S
C2820 H2838 0.928 . S
C2821 C2818 1.260 . S
C2821 C2819 1.479 . S
C2822 C2817 1.245 . S
C2822 C2818 1.477 . S
C2822 H2839 0.932 . S
C2823 U2806 2.882 . S
C2823 C2817 1.428 . S
C2823 O2826 1.301 . S
C2823 O2827 1.282 . S
O2824 U2806 2.441 . S
O2824 C2810 1.249 . S
O2825 U2806 2.420 . S
O2825 C2810 1.202 . S
O2826 U2806 2.455 . S
O2826 C2823 1.301 . S
O2827 U2806 2.449 . S
O2827 C2823 1.282 . S
H2828 C2801 0.931 . S
H2829 C2803 0.929 . S
H2830 C2804 0.930 . S
H2831 C2805 0.931 . S
H2832 C2812 0.932 . S
H2833 C2813 0.930 . S
H2834 C2814 0.929 . S
H2835 C2816 0.930 . S
H2836 C2818 0.932 . S
H2837 C2819 0.929 . S
H2838 C2820 0.928 . S
H2839 C2822 0.932 . S
C2840 C2841 1.264 . S
C2840 C2845 1.479 . S
C2840 C2850 1.465 . S
C2841 C2840 1.264 . S
C2841 C2843 1.339 . S
C2841 H2868 0.931 . S
C2842 C2843 1.395 . S
C2842 C2844 1.320 . S
C2843 C2841 1.339 . S
C2843 C2842 1.395 . S
C2843 H2869 0.929 . S
C2844 C2842 1.320 . S
C2844 C2845 1.405 . S
C2844 H2870 0.930 . S
C2845 C2840 1.479 . S
C2845 C2844 1.405 . S
C2845 H2871 0.931 . S
U2846 O2847 2.454 . S
U2846 O2848 2.458 . S
U2846 C2849 2.984 . S
U2846 C2850 2.847 . S
U2846 C2863 2.882 . S
U2846 O2864 2.441 . S
U2846 O2865 2.420 . S
U2846 O2866 2.455 . S
U2846 O2867 2.449 . S
O2847 U2846 2.454 . S
O2847 C2849 1.353 . S
O2848 U2846 2.458 . S
O2848 C2849 1.286 . S
C2849 U2846 2.984 . S
C2849 O2847 1.353 . S
C2849 O2848 1.286 . S
C2849 C2851 1.363 . S
C2850 C2840 1.465 . S
C2850 U2846 2.847 . S
C2850 O2864 1.249 . S
C2850 O2865 1.202 . S
C2851 C2849 1.363 . S
C2851 C2853 1.408 . S
C2851 C2856 1.342 . S
C2852 C2853 1.310 . S
C2852 C2855 1.461 . S
C2852 H2872 0.932 . S
C2853 C2851 1.408 . S
C2853 C2852 1.310 . S
C2853 H2873 0.930 . S
C2854 C2855 1.474 . S
C2854 C2856 1.285 . S
C2854 H2874 0.929 . S
C2855 C2852 1.461 . S
C2855 C2854 1.474 . S
C2856 C2851 1.342 . S
C2856 C2854 1.285 . S
C2856 H2875 0.930 . S
C2857 C2860 1.424 . S
C2857 C2862 1.245 . S
C2857 C2863 1.428 . S
C2858 C2861 1.260 . S
C2858 C2862 1.477 . S
C2858 H2876 0.932 . S
C2859 C2860 1.384 . S
C2859 C2861 1.479 . S
C2859 H2877 0.929 . S
C2860 C2857 1.424 . S
C2860 C2859 1.384 . S
C2860 H2878 0.928 . S
C2861 C2858 1.260 . S
C2861 C2859 1.479 . S
C2862 C2857 1.245 . S
C2862 C2858 1.477 . S
C2862 H2879 0.932 . S
C2863 U2846 2.882 . S
C2863 C2857 1.428 . S
C2863 O2866 1.301 . S
C2863 O2867 1.282 . S
O2864 U2846 2.441 . S
O2864 C2850 1.249 . S
O2865 U2846 2.420 . S
O2865 C2850 1.202 . S
O2866 U2846 2.455 . S
O2866 C2863 1.301 . S
O2867 U2846 2.449 . S
O2867 C2863 1.282 . S
H2868 C2841 0.931 . S
H2869 C2843 0.929 . S
H2870 C2844 0.930 . S
H2871 C2845 0.931 . S
H2872 C2852 0.932 . S
H2873 C2853 0.930 . S
H2874 C2854 0.929 . S
H2875 C2856 0.930 . S
H2876 C2858 0.932 . S
H2877 C2859 0.929 . S
H2878 C2860 0.928 . S
H2879 C2862 0.932 . S
C2880 C2881 1.264 . S
C2880 C2885 1.479 . S
C2880 C2890 1.465 . S
C2881 C2880 1.264 . S
C2881 C2883 1.339 . S
C2881 H2908 0.931 . S
C2882 C2883 1.395 . S
C2882 C2884 1.320 . S
C2883 C2881 1.339 . S
C2883 C2882 1.395 . S
C2883 H2909 0.929 . S
C2884 C2882 1.320 . S
C2884 C2885 1.405 . S
C2884 H2910 0.930 . S
C2885 C2880 1.479 . S
C2885 C2884 1.405 . S
C2885 H2911 0.931 . S
U2886 O2887 2.454 . S
U2886 O2888 2.458 . S
U2886 C2889 2.984 . S
U2886 C2890 2.847 . S
U2886 C2903 2.882 . S
U2886 O2904 2.441 . S
U2886 O2905 2.420 . S
U2886 O2906 2.455 . S
U2886 O2907 2.449 . S
O2887 U2886 2.454 . S
O2887 C2889 1.353 . S
O2888 U2886 2.458 . S
O2888 C2889 1.286 . S
C2889 U2886 2.984 . S
C2889 O2887 1.353 . S
C2889 O2888 1.286 . S
C2889 C2891 1.363 . S
C2890 C2880 1.465 . S
C2890 U2886 2.847 . S
C2890 O2904 1.249 . S
C2890 O2905 1.202 . S
C2891 C2889 1.363 . S
C2891 C2893 1.408 . S
C2891 C2896 1.342 . S
C2892 C2893 1.310 . S
C2892 C2895 1.461 . S
C2892 H2912 0.932 . S
C2893 C2891 1.408 . S
C2893 C2892 1.310 . S
C2893 H2913 0.930 . S
C2894 C2895 1.474 . S
C2894 C2896 1.285 . S
C2894 H2914 0.929 . S
C2895 C2892 1.461 . S
C2895 C2894 1.474 . S
C2896 C2891 1.342 . S
C2896 C2894 1.285 . S
C2896 H2915 0.930 . S
C2897 C2900 1.424 . S
C2897 C2902 1.245 . S
C2897 C2903 1.428 . S
C2898 C2901 1.260 . S
C2898 C2902 1.477 . S
C2898 H2916 0.932 . S
C2899 C2900 1.384 . S
C2899 C2901 1.479 . S
C2899 H2917 0.929 . S
C2900 C2897 1.424 . S
C2900 C2899 1.384 . S
C2900 H2918 0.928 . S
C2901 C2898 1.260 . S
C2901 C2899 1.479 . S
C2902 C2897 1.245 . S
C2902 C2898 1.477 . S
C2902 H2919 0.932 . S
C2903 U2886 2.882 . S
C2903 C2897 1.428 . S
C2903 O2906 1.301 . S
C2903 O2907 1.282 . S
O2904 U2886 2.441 . S
O2904 C2890 1.249 . S
O2905 U2886 2.420 . S
O2905 C2890 1.202 . S
O2906 U2886 2.455 . S
O2906 C2903 1.301 . S
O2907 U2886 2.449 . S
O2907 C2903 1.282 . S
H2908 C2881 0.931 . S
H2909 C2883 0.929 . S
H2910 C2884 0.930 . S
H2911 C2885 0.931 . S
H2912 C2892 0.932 . S
H2913 C2893 0.930 . S
H2914 C2894 0.929 . S
H2915 C2896 0.930 . S
H2916 C2898 0.932 . S
H2917 C2899 0.929 . S
H2918 C2900 0.928 . S
H2919 C2902 0.932 . S
C2920 C2921 1.264 . S
C2920 C2925 1.479 . S
C2920 C2930 1.465 . S
C2921 C2920 1.264 . S
C2921 C2923 1.339 . S
C2921 H2948 0.931 . S
C2922 C2923 1.395 . S
C2922 C2924 1.320 . S
C2923 C2921 1.339 . S
C2923 C2922 1.395 . S
C2923 H2949 0.929 . S
C2924 C2922 1.320 . S
C2924 C2925 1.405 . S
C2924 H2950 0.930 . S
C2925 C2920 1.479 . S
C2925 C2924 1.405 . S
C2925 H2951 0.931 . S
U2926 O2927 2.454 . S
U2926 O2928 2.458 . S
U2926 C2929 2.984 . S
U2926 C2930 2.847 . S
U2926 C2943 2.882 . S
U2926 O2944 2.441 . S
U2926 O2945 2.420 . S
U2926 O2946 2.455 . S
U2926 O2947 2.449 . S
O2927 U2926 2.454 . S
O2927 C2929 1.353 . S
O2928 U2926 2.458 . S
O2928 C2929 1.286 . S
C2929 U2926 2.984 . S
C2929 O2927 1.353 . S
C2929 O2928 1.286 . S
C2929 C2931 1.363 . S
C2930 C2920 1.465 . S
C2930 U2926 2.847 . S
C2930 O2944 1.249 . S
C2930 O2945 1.202 . S
C2931 C2929 1.363 . S
C2931 C2933 1.408 . S
C2931 C2936 1.342 . S
C2932 C2933 1.310 . S
C2932 C2935 1.461 . S
C2932 H2952 0.932 . S
C2933 C2931 1.408 . S
C2933 C2932 1.310 . S
C2933 H2953 0.930 . S
C2934 C2935 1.474 . S
C2934 C2936 1.285 . S
C2934 H2954 0.929 . S
C2935 C2932 1.461 . S
C2935 C2934 1.474 . S
C2936 C2931 1.342 . S
C2936 C2934 1.285 . S
C2936 H2955 0.930 . S
C2937 C2940 1.424 . S
C2937 C2942 1.245 . S
C2937 C2943 1.428 . S
C2938 C2941 1.260 . S
C2938 C2942 1.477 . S
C2938 H2956 0.932 . S
C2939 C2940 1.384 . S
C2939 C2941 1.479 . S
C2939 H2957 0.929 . S
C2940 C2937 1.424 . S
C2940 C2939 1.384 . S
C2940 H2958 0.928 . S
C2941 C2938 1.260 . S
C2941 C2939 1.479 . S
C2942 C2937 1.245 . S
C2942 C2938 1.477 . S
C2942 H2959 0.932 . S
C2943 U2926 2.882 . S
C2943 C2937 1.428 . S
C2943 O2946 1.301 . S
C2943 O2947 1.282 . S
O2944 U2926 2.441 . S
O2944 C2930 1.249 . S
O2945 U2926 2.420 . S
O2945 C2930 1.202 . S
O2946 U2926 2.455 . S
O2946 C2943 1.301 . S
O2947 U2926 2.449 . S
O2947 C2943 1.282 . S
H2948 C2921 0.931 . S
H2949 C2923 0.929 . S
H2950 C2924 0.930 . S
H2951 C2925 0.931 . S
H2952 C2932 0.932 . S
H2953 C2933 0.930 . S
H2954 C2934 0.929 . S
H2955 C2936 0.930 . S
H2956 C2938 0.932 . S
H2957 C2939 0.929 . S
H2958 C2940 0.928 . S
H2959 C2942 0.932 . S
C2960 C2961 1.264 . S
C2960 C2965 1.479 . S
C2960 C2970 1.465 . S
C2961 C2960 1.264 . S
C2961 C2963 1.339 . S
C2961 H2988 0.931 . S
C2962 C2963 1.395 . S
C2962 C2964 1.320 . S
C2963 C2961 1.339 . S
C2963 C2962 1.395 . S
C2963 H2989 0.929 . S
C2964 C2962 1.320 . S
C2964 C2965 1.405 . S
C2964 H2990 0.930 . S
C2965 C2960 1.479 . S
C2965 C2964 1.405 . S
C2965 H2991 0.931 . S
U2966 O2967 2.454 . S
U2966 O2968 2.458 . S
U2966 C2969 2.984 . S
U2966 C2970 2.847 . S
U2966 C2983 2.882 . S
U2966 O2984 2.441 . S
U2966 O2985 2.420 . S
U2966 O2986 2.455 . S
U2966 O2987 2.449 . S
O2967 U2966 2.454 . S
O2967 C2969 1.353 . S
O2968 U2966 2.458 . S
O2968 C2969 1.286 . S
C2969 U2966 2.984 . S
C2969 O2967 1.353 . S
C2969 O2968 1.286 . S
C2969 C2971 1.363 . S
C2970 C2960 1.465 . S
C2970 U2966 2.847 . S
C2970 O2984 1.249 . S
C2970 O2985 1.202 . S
C2971 C2969 1.363 . S
C2971 C2973 1.408 . S
C2971 C2976 1.342 . S
C2972 C2973 1.310 . S
C2972 C2975 1.461 . S
C2972 H2992 0.932 . S
C2973 C2971 1.408 . S
C2973 C2972 1.310 . S
C2973 H2993 0.930 . S
C2974 C2975 1.474 . S
C2974 C2976 1.285 . S
C2974 H2994 0.929 . S
C2975 C2972 1.461 . S
C2975 C2974 1.474 . S
C2976 C2971 1.342 . S
C2976 C2974 1.285 . S
C2976 H2995 0.930 . S
C2977 C2980 1.424 . S
C2977 C2982 1.245 . S
C2977 C2983 1.428 . S
C2978 C2981 1.260 . S
C2978 C2982 1.477 . S
C2978 H2996 0.932 . S
C2979 C2980 1.384 . S
C2979 C2981 1.479 . S
C2979 H2997 0.929 . S
C2980 C2977 1.424 . S
C2980 C2979 1.384 . S
C2980 H2998 0.928 . S
C2981 C2978 1.260 . S
C2981 C2979 1.479 . S
C2982 C2977 1.245 . S
C2982 C2978 1.477 . S
C2982 H2999 0.932 . S
C2983 U2966 2.882 . S
C2983 C2977 1.428 . S
C2983 O2986 1.301 . S
C2983 O2987 1.282 . S
O2984 U2966 2.441 . S
O2984 C2970 1.249 . S
O2985 U2966 2.420 . S
O2985 C2970 1.202 . S
O2986 U2966 2.455 . S
O2986 C2983 1.301 . S
O2987 U2966 2.449 . S
O2987 C2983 1.282 . S
H2988 C2961 0.931 . S
H2989 C2963 0.929 . S
H2990 C2964 0.930 . S
H2991 C2965 0.931 . S
H2992 C2972 0.932 . S
H2993 C2973 0.930 . S
H2994 C2974 0.929 . S
H2995 C2976 0.930 . S
H2996 C2978 0.932 . S
H2997 C2979 0.929 . S
H2998 C2980 0.928 . S
H2999 C2982 0.932 . S
C3000 C3001 1.264 . S
C3000 C3005 1.479 . S
C3000 C3010 1.465 . S
C3001 C3000 1.264 . S
C3001 C3003 1.339 . S
C3001 H3028 0.931 . S
C3002 C3003 1.395 . S
C3002 C3004 1.320 . S
C3003 C3001 1.339 . S
C3003 C3002 1.395 . S
C3003 H3029 0.929 . S
C3004 C3002 1.320 . S
C3004 C3005 1.405 . S
C3004 H3030 0.930 . S
C3005 C3000 1.479 . S
C3005 C3004 1.405 . S
C3005 H3031 0.931 . S
U3006 O3007 2.454 . S
U3006 O3008 2.458 . S
U3006 C3009 2.984 . S
U3006 C3010 2.847 . S
U3006 C3023 2.882 . S
U3006 O3024 2.441 . S
U3006 O3025 2.420 . S
U3006 O3026 2.455 . S
U3006 O3027 2.449 . S
O3007 U3006 2.454 . S
O3007 C3009 1.353 . S
O3008 U3006 2.458 . S
O3008 C3009 1.286 . S
C3009 U3006 2.984 . S
C3009 O3007 1.353 . S
C3009 O3008 1.286 . S
C3009 C3011 1.363 . S
C3010 C3000 1.465 . S
C3010 U3006 2.847 . S
C3010 O3024 1.249 . S
C3010 O3025 1.202 . S
C3011 C3009 1.363 . S
C3011 C3013 1.408 . S
C3011 C3016 1.342 . S
C3012 C3013 1.310 . S
C3012 C3015 1.461 . S
C3012 H3032 0.932 . S
C3013 C3011 1.408 . S
C3013 C3012 1.310 . S
C3013 H3033 0.930 . S
C3014 C3015 1.474 . S
C3014 C3016 1.285 . S
C3014 H3034 0.929 . S
C3015 C3012 1.461 . S
C3015 C3014 1.474 . S
C3016 C3011 1.342 . S
C3016 C3014 1.285 . S
C3016 H3035 0.930 . S
C3017 C3020 1.424 . S
C3017 C3022 1.245 . S
C3017 C3023 1.428 . S
C3018 C3021 1.260 . S
C3018 C3022 1.477 . S
C3018 H3036 0.932 . S
C3019 C3020 1.384 . S
C3019 C3021 1.479 . S
C3019 H3037 0.929 . S
C3020 C3017 1.424 . S
C3020 C3019 1.384 . S
C3020 H3038 0.928 . S
C3021 C3018 1.260 . S
C3021 C3019 1.479 . S
C3022 C3017 1.245 . S
C3022 C3018 1.477 . S
C3022 H3039 0.932 . S
C3023 U3006 2.882 . S
C3023 C3017 1.428 . S
C3023 O3026 1.301 . S
C3023 O3027 1.282 . S
O3024 U3006 2.441 . S
O3024 C3010 1.249 . S
O3025 U3006 2.420 . S
O3025 C3010 1.202 . S
O3026 U3006 2.455 . S
O3026 C3023 1.301 . S
O3027 U3006 2.449 . S
O3027 C3023 1.282 . S
H3028 C3001 0.931 . S
H3029 C3003 0.929 . S
H3030 C3004 0.930 . S
H3031 C3005 0.931 . S
H3032 C3012 0.932 . S
H3033 C3013 0.930 . S
H3034 C3014 0.929 . S
H3035 C3016 0.930 . S
H3036 C3018 0.932 . S
H3037 C3019 0.929 . S
H3038 C3020 0.928 . S
H3039 C3022 0.932 . S
C3040 C3041 1.264 . S
C3040 C3045 1.479 . S
C3040 C3050 1.465 . S
C3041 C3040 1.264 . S
C3041 C3043 1.339 . S
C3041 H3068 0.931 . S
C3042 C3043 1.395 . S
C3042 C3044 1.320 . S
C3043 C3041 1.339 . S
C3043 C3042 1.395 . S
C3043 H3069 0.929 . S
C3044 C3042 1.320 . S
C3044 C3045 1.405 . S
C3044 H3070 0.930 . S
C3045 C3040 1.479 . S
C3045 C3044 1.405 . S
C3045 H3071 0.931 . S
U3046 O3047 2.454 . S
U3046 O3048 2.458 . S
U3046 C3049 2.984 . S
U3046 C3050 2.847 . S
U3046 C3063 2.882 . S
U3046 O3064 2.441 . S
U3046 O3065 2.420 . S
U3046 O3066 2.455 . S
U3046 O3067 2.449 . S
O3047 U3046 2.454 . S
O3047 C3049 1.353 . S
O3048 U3046 2.458 . S
O3048 C3049 1.286 . S
C3049 U3046 2.984 . S
C3049 O3047 1.353 . S
C3049 O3048 1.286 . S
C3049 C3051 1.363 . S
C3050 C3040 1.465 . S
C3050 U3046 2.847 . S
C3050 O3064 1.249 . S
C3050 O3065 1.202 . S
C3051 C3049 1.363 . S
C3051 C3053 1.408 . S
C3051 C3056 1.342 . S
C3052 C3053 1.310 . S
C3052 C3055 1.461 . S
C3052 H3072 0.932 . S
C3053 C3051 1.408 . S
C3053 C3052 1.310 . S
C3053 H3073 0.930 . S
C3054 C3055 1.474 . S
C3054 C3056 1.285 . S
C3054 H3074 0.929 . S
C3055 C3052 1.461 . S
C3055 C3054 1.474 . S
C3056 C3051 1.342 . S
C3056 C3054 1.285 . S
C3056 H3075 0.930 . S
C3057 C3060 1.424 . S
C3057 C3062 1.245 . S
C3057 C3063 1.428 . S
C3058 C3061 1.260 . S
C3058 C3062 1.477 . S
C3058 H3076 0.932 . S
C3059 C3060 1.384 . S
C3059 C3061 1.479 . S
C3059 H3077 0.929 . S
C3060 C3057 1.424 . S
C3060 C3059 1.384 . S
C3060 H3078 0.928 . S
C3061 C3058 1.260 . S
C3061 C3059 1.479 . S
C3062 C3057 1.245 . S
C3062 C3058 1.477 . S
C3062 H3079 0.932 . S
C3063 U3046 2.882 . S
C3063 C3057 1.428 . S
C3063 O3066 1.301 . S
C3063 O3067 1.282 . S
O3064 U3046 2.441 . S
O3064 C3050 1.249 . S
O3065 U3046 2.420 . S
O3065 C3050 1.202 . S
O3066 U3046 2.455 . S
O3066 C3063 1.301 . S
O3067 U3046 2.449 . S
O3067 C3063 1.282 . S
H3068 C3041 0.931 . S
H3069 C3043 0.929 . S
H3070 C3044 0.930 . S
H3071 C3045 0.931 . S
H3072 C3052 0.932 . S
H3073 C3053 0.930 . S
H3074 C3054 0.929 . S
H3075 C3056 0.930 . S
H3076 C3058 0.932 . S
H3077 C3059 0.929 . S
H3078 C3060 0.928 . S
H3079 C3062 0.932 . S
C3080 C3081 1.264 . S
C3080 C3085 1.479 . S
C3080 C3090 1.465 . S
C3081 C3080 1.264 . S
C3081 C3083 1.339 . S
C3081 H3108 0.931 . S
C3082 C3083 1.395 . S
C3082 C3084 1.320 . S
C3083 C3081 1.339 . S
C3083 C3082 1.395 . S
C3083 H3109 0.929 . S
C3084 C3082 1.320 . S
C3084 C3085 1.405 . S
C3084 H3110 0.930 . S
C3085 C3080 1.479 . S
C3085 C3084 1.405 . S
C3085 H3111 0.931 . S
U3086 O3087 2.454 . S
U3086 O3088 2.458 . S
U3086 C3089 2.984 . S
U3086 C3090 2.847 . S
U3086 C3103 2.882 . S
U3086 O3104 2.441 . S
U3086 O3105 2.420 . S
U3086 O3106 2.455 . S
U3086 O3107 2.449 . S
O3087 U3086 2.454 . S
O3087 C3089 1.353 . S
O3088 U3086 2.458 . S
O3088 C3089 1.286 . S
C3089 U3086 2.984 . S
C3089 O3087 1.353 . S
C3089 O3088 1.286 . S
C3089 C3091 1.363 . S
C3090 C3080 1.465 . S
C3090 U3086 2.847 . S
C3090 O3104 1.249 . S
C3090 O3105 1.202 . S
C3091 C3089 1.363 . S
C3091 C3093 1.408 . S
C3091 C3096 1.342 . S
C3092 C3093 1.310 . S
C3092 C3095 1.461 . S
C3092 H3112 0.932 . S
C3093 C3091 1.408 . S
C3093 C3092 1.310 . S
C3093 H3113 0.930 . S
C3094 C3095 1.474 . S
C3094 C3096 1.285 . S
C3094 H3114 0.929 . S
C3095 C3092 1.461 . S
C3095 C3094 1.474 . S
C3096 C3091 1.342 . S
C3096 C3094 1.285 . S
C3096 H3115 0.930 . S
C3097 C3100 1.424 . S
C3097 C3102 1.245 . S
C3097 C3103 1.428 . S
C3098 C3101 1.260 . S
C3098 C3102 1.477 . S
C3098 H3116 0.932 . S
C3099 C3100 1.384 . S
C3099 C3101 1.479 . S
C3099 H3117 0.929 . S
C3100 C3097 1.424 . S
C3100 C3099 1.384 . S
C3100 H3118 0.928 . S
C3101 C3098 1.260 . S
C3101 C3099 1.479 . S
C3102 C3097 1.245 . S
C3102 C3098 1.477 . S
C3102 H3119 0.932 . S
C3103 U3086 2.882 . S
C3103 C3097 1.428 . S
C3103 O3106 1.301 . S
C3103 O3107 1.282 . S
O3104 U3086 2.441 . S
O3104 C3090 1.249 . S
O3105 U3086 2.420 . S
O3105 C3090 1.202 . S
O3106 U3086 2.455 . S
O3106 C3103 1.301 . S
O3107 U3086 2.449 . S
O3107 C3103 1.282 . S
H3108 C3081 0.931 . S
H3109 C3083 0.929 . S
H3110 C3084 0.930 . S
H3111 C3085 0.931 . S
H3112 C3092 0.932 . S
H3113 C3093 0.930 . S
H3114 C3094 0.929 . S
H3115 C3096 0.930 . S
H3116 C3098 0.932 . S
H3117 C3099 0.929 . S
H3118 C3100 0.928 . S
H3119 C3102 0.932 . S
C3120 C3121 1.264 . S
C3120 C3125 1.479 . S
C3120 C3130 1.465 . S
C3121 C3120 1.264 . S
C3121 C3123 1.339 . S
C3121 H3148 0.931 . S
C3122 C3123 1.395 . S
C3122 C3124 1.320 . S
C3123 C3121 1.339 . S
C3123 C3122 1.395 . S
C3123 H3149 0.929 . S
C3124 C3122 1.320 . S
C3124 C3125 1.405 . S
C3124 H3150 0.930 . S
C3125 C3120 1.479 . S
C3125 C3124 1.405 . S
C3125 H3151 0.931 . S
U3126 O3127 2.454 . S
U3126 O3128 2.458 . S
U3126 C3129 2.984 . S
U3126 C3130 2.847 . S
U3126 C3143 2.882 . S
U3126 O3144 2.441 . S
U3126 O3145 2.420 . S
U3126 O3146 2.455 . S
U3126 O3147 2.449 . S
O3127 U3126 2.454 . S
O3127 C3129 1.353 . S
O3128 U3126 2.458 . S
O3128 C3129 1.286 . S
C3129 U3126 2.984 . S
C3129 O3127 1.353 . S
C3129 O3128 1.286 . S
C3129 C3131 1.363 . S
C3130 C3120 1.465 . S
C3130 U3126 2.847 . S
C3130 O3144 1.249 . S
C3130 O3145 1.202 . S
C3131 C3129 1.363 . S
C3131 C3133 1.408 . S
C3131 C3136 1.342 . S
C3132 C3133 1.310 . S
C3132 C3135 1.461 . S
C3132 H3152 0.932 . S
C3133 C3131 1.408 . S
C3133 C3132 1.310 . S
C3133 H3153 0.930 . S
C3134 C3135 1.474 . S
C3134 C3136 1.285 . S
C3134 H3154 0.929 . S
C3135 C3132 1.461 . S
C3135 C3134 1.474 . S
C3136 C3131 1.342 . S
C3136 C3134 1.285 . S
C3136 H3155 0.930 . S
C3137 C3140 1.424 . S
C3137 C3142 1.245 . S
C3137 C3143 1.428 . S
C3138 C3141 1.260 . S
C3138 C3142 1.477 . S
C3138 H3156 0.932 . S
C3139 C3140 1.384 . S
C3139 C3141 1.479 . S
C3139 H3157 0.929 . S
C3140 C3137 1.424 . S
C3140 C3139 1.384 . S
C3140 H3158 0.928 . S
C3141 C3138 1.260 . S
C3141 C3139 1.479 . S
C3142 C3137 1.245 . S
C3142 C3138 1.477 . S
C3142 H3159 0.932 . S
C3143 U3126 2.882 . S
C3143 C3137 1.428 . S
C3143 O3146 1.301 . S
C3143 O3147 1.282 . S
O3144 U3126 2.441 . S
O3144 C3130 1.249 . S
O3145 U3126 2.420 . S
O3145 C3130 1.202 . S
O3146 U3126 2.455 . S
O3146 C3143 1.301 . S
O3147 U3126 2.449 . S
O3147 C3143 1.282 . S
H3148 C3121 0.931 . S
H3149 C3123 0.929 . S
H3150 C3124 0.930 . S
H3151 C3125 0.931 . S
H3152 C3132 0.932 . S
H3153 C3133 0.930 . S
H3154 C3134 0.929 . S
H3155 C3136 0.930 . S
H3156 C3138 0.932 . S
H3157 C3139 0.929 . S
H3158 C3140 0.928 . S
H3159 C3142 0.932 . S
C3160 C3161 1.264 . S
C3160 C3165 1.479 . S
C3160 C3170 1.465 . S
C3161 C3160 1.264 . S
C3161 C3163 1.339 . S
C3161 H3188 0.931 . S
C3162 C3163 1.395 . S
C3162 C3164 1.320 . S
C3163 C3161 1.339 . S
C3163 C3162 1.395 . S
C3163 H3189 0.929 . S
C3164 C3162 1.320 . S
C3164 C3165 1.405 . S
C3164 H3190 0.930 . S
C3165 C3160 1.479 . S
C3165 C3164 1.405 . S
C3165 H3191 0.931 . S
U3166 O3167 2.454 . S
U3166 O3168 2.458 . S
U3166 C3169 2.984 . S
U3166 C3170 2.847 . S
U3166 C3183 2.882 . S
U3166 O3184 2.441 . S
U3166 O3185 2.420 . S
U3166 O3186 2.455 . S
U3166 O3187 2.449 . S
O3167 U3166 2.454 . S
O3167 C3169 1.353 . S
O3168 U3166 2.458 . S
O3168 C3169 1.286 . S
C3169 U3166 2.984 . S
C3169 O3167 1.353 . S
C3169 O3168 1.286 . S
C3169 C3171 1.363 . S
C3170 C3160 1.465 . S
C3170 U3166 2.847 . S
C3170 O3184 1.249 . S
C3170 O3185 1.202 . S
C3171 C3169 1.363 . S
C3171 C3173 1.408 . S
C3171 C3176 1.342 . S
C3172 C3173 1.310 . S
C3172 C3175 1.461 . S
C3172 H3192 0.932 . S
C3173 C3171 1.408 . S
C3173 C3172 1.310 . S
C3173 H3193 0.930 . S
C3174 C3175 1.474 . S
C3174 C3176 1.285 . S
C3174 H3194 0.929 . S
C3175 C3172 1.461 . S
C3175 C3174 1.474 . S
C3176 C3171 1.342 . S
C3176 C3174 1.285 . S
C3176 H3195 0.930 . S
C3177 C3180 1.424 . S
C3177 C3182 1.245 . S
C3177 C3183 1.428 . S
C3178 C3181 1.260 . S
C3178 C3182 1.477 . S
C3178 H3196 0.932 . S
C3179 C3180 1.384 . S
C3179 C3181 1.479 . S
C3179 H3197 0.929 . S
C3180 C3177 1.424 . S
C3180 C3179 1.384 . S
C3180 H3198 0.928 . S
C3181 C3178 1.260 . S
C3181 C3179 1.479 . S
C3182 C3177 1.245 . S
C3182 C3178 1.477 . S
C3182 H3199 0.932 . S
C3183 U3166 2.882 . S
C3183 C3177 1.428 . S
C3183 O3186 1.301 . S
C3183 O3187 1.282 . S
O3184 U3166 2.441 . S
O3184 C3170 1.249 . S
O3185 U3166 2.420 . S
O3185 C3170 1.202 . S
O3186 U3166 2.455 . S
O3186 C3183 1.301 . S
O3187 U3166 2.449 . S
O3187 C3183 1.282 . S
H3188 C3161 0.931 . S
H3189 C3163 0.929 . S
H3190 C3164 0.930 . S
H3191 C3165 0.931 . S
H3192 C3172 0.932 . S
H3193 C3173 0.930 . S
H3194 C3174 0.929 . S
H3195 C3176 0.930 . S
H3196 C3178 0.932 . S
H3197 C3179 0.929 . S
H3198 C3180 0.928 . S
H3199 C3182 0.932 . S
C3200 C3201 1.264 . S
C3200 C3205 1.479 . S
C3200 C3210 1.465 . S
C3201 C3200 1.264 . S
C3201 C3203 1.339 . S
C3201 H3228 0.931 . S
C3202 C3203 1.395 . S
C3202 C3204 1.320 . S
C3203 C3201 1.339 . S
C3203 C3202 1.395 . S
C3203 H3229 0.929 . S
C3204 C3202 1.320 . S
C3204 C3205 1.405 . S
C3204 H3230 0.930 . S
C3205 C3200 1.479 . S
C3205 C3204 1.405 . S
C3205 H3231 0.931 . S
U3206 O3207 2.454 . S
U3206 O3208 2.458 . S
U3206 C3209 2.984 . S
U3206 C3210 2.847 . S
U3206 C3223 2.882 . S
U3206 O3224 2.441 . S
U3206 O3225 2.420 . S
U3206 O3226 2.455 . S
U3206 O3227 2.449 . S
O3207 U3206 2.454 . S
O3207 C3209 1.353 . S
O3208 U3206 2.458 . S
O3208 C3209 1.286 . S
C3209 U3206 2.984 . S
C3209 O3207 1.353 . S
C3209 O3208 1.286 . S
C3209 C3211 1.363 . S
C3210 C3200 1.465 . S
C3210 U3206 2.847 . S
C3210 O3224 1.249 . S
C3210 O3225 1.202 . S
C3211 C3209 1.363 . S
C3211 C3213 1.408 . S
C3211 C3216 1.342 . S
C3212 C3213 1.310 . S
C3212 C3215 1.461 . S
C3212 H3232 0.932 . S
C3213 C3211 1.408 . S
C3213 C3212 1.310 . S
C3213 H3233 0.930 . S
C3214 C3215 1.474 . S
C3214 C3216 1.285 . S
C3214 H3234 0.929 . S
C3215 C3212 1.461 . S
C3215 C3214 1.474 . S
C3216 C3211 1.342 . S
C3216 C3214 1.285 . S
C3216 H3235 0.930 . S
C3217 C3220 1.424 . S
C3217 C3222 1.245 . S
C3217 C3223 1.428 . S
C3218 C3221 1.260 . S
C3218 C3222 1.477 . S
C3218 H3236 0.932 . S
C3219 C3220 1.384 . S
C3219 C3221 1.479 . S
C3219 H3237 0.929 . S
C3220 C3217 1.424 . S
C3220 C3219 1.384 . S
C3220 H3238 0.928 . S
C3221 C3218 1.260 . S
C3221 C3219 1.479 . S
C3222 C3217 1.245 . S
C3222 C3218 1.477 . S
C3222 H3239 0.932 . S
C3223 U3206 2.882 . S
C3223 C3217 1.428 . S
C3223 O3226 1.301 . S
C3223 O3227 1.282 . S
O3224 U3206 2.441 . S
O3224 C3210 1.249 . S
O3225 U3206 2.420 . S
O3225 C3210 1.202 . S
O3226 U3206 2.455 . S
O3226 C3223 1.301 . S
O3227 U3206 2.449 . S
O3227 C3223 1.282 . S
H3228 C3201 0.931 . S
H3229 C3203 0.929 . S
H3230 C3204 0.930 . S
H3231 C3205 0.931 . S
H3232 C3212 0.932 . S
H3233 C3213 0.930 . S
H3234 C3214 0.929 . S
H3235 C3216 0.930 . S
H3236 C3218 0.932 . S
H3237 C3219 0.929 . S
H3238 C3220 0.928 . S
H3239 C3222 0.932 . S
C3240 C3241 1.264 . S
C3240 C3245 1.479 . S
C3240 C3250 1.465 . S
C3241 C3240 1.264 . S
C3241 C3243 1.339 . S
C3241 H3268 0.931 . S
C3242 C3243 1.395 . S
C3242 C3244 1.320 . S
C3243 C3241 1.339 . S
C3243 C3242 1.395 . S
C3243 H3269 0.929 . S
C3244 C3242 1.320 . S
C3244 C3245 1.405 . S
C3244 H3270 0.930 . S
C3245 C3240 1.479 . S
C3245 C3244 1.405 . S
C3245 H3271 0.931 . S
U3246 O3247 2.454 . S
U3246 O3248 2.458 . S
U3246 C3249 2.984 . S
U3246 C3250 2.847 . S
U3246 C3263 2.882 . S
U3246 O3264 2.441 . S
U3246 O3265 2.420 . S
U3246 O3266 2.455 . S
U3246 O3267 2.449 . S
O3247 U3246 2.454 . S
O3247 C3249 1.353 . S
O3248 U3246 2.458 . S
O3248 C3249 1.286 . S
C3249 U3246 2.984 . S
C3249 O3247 1.353 . S
C3249 O3248 1.286 . S
C3249 C3251 1.363 . S
C3250 C3240 1.465 . S
C3250 U3246 2.847 . S
C3250 O3264 1.249 . S
C3250 O3265 1.202 . S
C3251 C3249 1.363 . S
C3251 C3253 1.408 . S
C3251 C3256 1.342 . S
C3252 C3253 1.310 . S
C3252 C3255 1.461 . S
C3252 H3272 0.932 . S
C3253 C3251 1.408 . S
C3253 C3252 1.310 . S
C3253 H3273 0.930 . S
C3254 C3255 1.474 . S
C3254 C3256 1.285 . S
C3254 H3274 0.929 . S
C3255 C3252 1.461 . S
C3255 C3254 1.474 . S
C3256 C3251 1.342 . S
C3256 C3254 1.285 . S
C3256 H3275 0.930 . S
C3257 C3260 1.424 . S
C3257 C3262 1.245 . S
C3257 C3263 1.428 . S
C3258 C3261 1.260 . S
C3258 C3262 1.477 . S
C3258 H3276 0.932 . S
C3259 C3260 1.384 . S
C3259 C3261 1.479 . S
C3259 H3277 0.929 . S
C3260 C3257 1.424 . S
C3260 C3259 1.384 . S
C3260 H3278 0.928 . S
C3261 C3258 1.260 . S
C3261 C3259 1.479 . S
C3262 C3257 1.245 . S
C3262 C3258 1.477 . S
C3262 H3279 0.932 . S
C3263 U3246 2.882 . S
C3263 C3257 1.428 . S
C3263 O3266 1.301 . S
C3263 O3267 1.282 . S
O3264 U3246 2.441 . S
O3264 C3250 1.249 . S
O3265 U3246 2.420 . S
O3265 C3250 1.202 . S
O3266 U3246 2.455 . S
O3266 C3263 1.301 . S
O3267 U3246 2.449 . S
O3267 C3263 1.282 . S
H3268 C3241 0.931 . S
H3269 C3243 0.929 . S
H3270 C3244 0.930 . S
H3271 C3245 0.931 . S
H3272 C3252 0.932 . S
H3273 C3253 0.930 . S
H3274 C3254 0.929 . S
H3275 C3256 0.930 . S
H3276 C3258 0.932 . S
H3277 C3259 0.929 . S
H3278 C3260 0.928 . S
H3279 C3262 0.932 . S
C3280 C3281 1.264 . S
C3280 C3285 1.479 . S
C3280 C3290 1.465 . S
C3281 C3280 1.264 . S
C3281 C3283 1.339 . S
C3281 H3308 0.931 . S
C3282 C3283 1.395 . S
C3282 C3284 1.320 . S
C3283 C3281 1.339 . S
C3283 C3282 1.395 . S
C3283 H3309 0.929 . S
C3284 C3282 1.320 . S
C3284 C3285 1.405 . S
C3284 H3310 0.930 . S
C3285 C3280 1.479 . S
C3285 C3284 1.405 . S
C3285 H3311 0.931 . S
U3286 O3287 2.454 . S
U3286 O3288 2.458 . S
U3286 C3289 2.984 . S
U3286 C3290 2.847 . S
U3286 C3303 2.882 . S
U3286 O3304 2.441 . S
U3286 O3305 2.420 . S
U3286 O3306 2.455 . S
U3286 O3307 2.449 . S
O3287 U3286 2.454 . S
O3287 C3289 1.353 . S
O3288 U3286 2.458 . S
O3288 C3289 1.286 . S
C3289 U3286 2.984 . S
C3289 O3287 1.353 . S
C3289 O3288 1.286 . S
C3289 C3291 1.363 . S
C3290 C3280 1.465 . S
C3290 U3286 2.847 . S
C3290 O3304 1.249 . S
C3290 O3305 1.202 . S
C3291 C3289 1.363 . S
C3291 C3293 1.408 . S
C3291 C3296 1.342 . S
C3292 C3293 1.310 . S
C3292 C3295 1.461 . S
C3292 H3312 0.932 . S
C3293 C3291 1.408 . S
C3293 C3292 1.310 . S
C3293 H3313 0.930 . S
C3294 C3295 1.474 . S
C3294 C3296 1.285 . S
C3294 H3314 0.929 . S
C3295 C3292 1.461 . S
C3295 C3294 1.474 . S
C3296 C3291 1.342 . S
C3296 C3294 1.285 . S
C3296 H3315 0.930 . S
C3297 C3300 1.424 . S
C3297 C3302 1.245 . S
C3297 C3303 1.428 . S
C3298 C3301 1.260 . S
C3298 C3302 1.477 . S
C3298 H3316 0.932 . S
C3299 C3300 1.384 . S
C3299 C3301 1.479 . S
C3299 H3317 0.929 . S
C3300 C3297 1.424 . S
C3300 C3299 1.384 . S
C3300 H3318 0.928 . S
C3301 C3298 1.260 . S
C3301 C3299 1.479 . S
C3302 C3297 1.245 . S
C3302 C3298 1.477 . S
C3302 H3319 0.932 . S
C3303 U3286 2.882 . S
C3303 C3297 1.428 . S
C3303 O3306 1.301 . S
C3303 O3307 1.282 . S
O3304 U3286 2.441 . S
O3304 C3290 1.249 . S
O3305 U3286 2.420 . S
O3305 C3290 1.202 . S
O3306 U3286 2.455 . S
O3306 C3303 1.301 . S
O3307 U3286 2.449 . S
O3307 C3303 1.282 . S
H3308 C3281 0.931 . S
H3309 C3283 0.929 . S
H3310 C3284 0.930 . S
H3311 C3285 0.931 . S
H3312 C3292 0.932 . S
H3313 C3293 0.930 . S
H3314 C3294 0.929 . S
H3315 C3296 0.930 . S
H3316 C3298 0.932 . S
H3317 C3299 0.929 . S
H3318 C3300 0.928 . S
H3319 C3302 0.932 . S
C3320 C3321 1.264 . S
C3320 C3325 1.479 . S
C3320 C3330 1.465 . S
C3321 C3320 1.264 . S
C3321 C3323 1.339 . S
C3321 H3348 0.931 . S
C3322 C3323 1.395 . S
C3322 C3324 1.320 . S
C3323 C3321 1.339 . S
C3323 C3322 1.395 . S
C3323 H3349 0.929 . S
C3324 C3322 1.320 . S
C3324 C3325 1.405 . S
C3324 H3350 0.930 . S
C3325 C3320 1.479 . S
C3325 C3324 1.405 . S
C3325 H3351 0.931 . S
U3326 O3327 2.454 . S
U3326 O3328 2.458 . S
U3326 C3329 2.984 . S
U3326 C3330 2.847 . S
U3326 C3343 2.882 . S
U3326 O3344 2.441 . S
U3326 O3345 2.420 . S
U3326 O3346 2.455 . S
U3326 O3347 2.449 . S
O3327 U3326 2.454 . S
O3327 C3329 1.353 . S
O3328 U3326 2.458 . S
O3328 C3329 1.286 . S
C3329 U3326 2.984 . S
C3329 O3327 1.353 . S
C3329 O3328 1.286 . S
C3329 C3331 1.363 . S
C3330 C3320 1.465 . S
C3330 U3326 2.847 . S
C3330 O3344 1.249 . S
C3330 O3345 1.202 . S
C3331 C3329 1.363 . S
C3331 C3333 1.408 . S
C3331 C3336 1.342 . S
C3332 C3333 1.310 . S
C3332 C3335 1.461 . S
C3332 H3352 0.932 . S
C3333 C3331 1.408 . S
C3333 C3332 1.310 . S
C3333 H3353 0.930 . S
C3334 C3335 1.474 . S
C3334 C3336 1.285 . S
C3334 H3354 0.929 . S
C3335 C3332 1.461 . S
C3335 C3334 1.474 . S
C3336 C3331 1.342 . S
C3336 C3334 1.285 . S
C3336 H3355 0.930 . S
C3337 C3340 1.424 . S
C3337 C3342 1.245 . S
C3337 C3343 1.428 . S
C3338 C3341 1.260 . S
C3338 C3342 1.477 . S
C3338 H3356 0.932 . S
C3339 C3340 1.384 . S
C3339 C3341 1.479 . S
C3339 H3357 0.929 . S
C3340 C3337 1.424 . S
C3340 C3339 1.384 . S
C3340 H3358 0.928 . S
C3341 C3338 1.260 . S
C3341 C3339 1.479 . S
C3342 C3337 1.245 . S
C3342 C3338 1.477 . S
C3342 H3359 0.932 . S
C3343 U3326 2.882 . S
C3343 C3337 1.428 . S
C3343 O3346 1.301 . S
C3343 O3347 1.282 . S
O3344 U3326 2.441 . S
O3344 C3330 1.249 . S
O3345 U3326 2.420 . S
O3345 C3330 1.202 . S
O3346 U3326 2.455 . S
O3346 C3343 1.301 . S
O3347 U3326 2.449 . S
O3347 C3343 1.282 . S
H3348 C3321 0.931 . S
H3349 C3323 0.929 . S
H3350 C3324 0.930 . S
H3351 C3325 0.931 . S
H3352 C3332 0.932 . S
H3353 C3333 0.930 . S
H3354 C3334 0.929 . S
H3355 C3336 0.930 . S
H3356 C3338 0.932 . S
H3357 C3339 0.929 . S
H3358 C3340 0.928 . S
H3359 C3342 0.932 . S
C3360 C3361 1.264 . S
C3360 C3365 1.479 . S
C3360 C3370 1.465 . S
C3361 C3360 1.264 . S
C3361 C3363 1.339 . S
C3361 H3388 0.931 . S
C3362 C3363 1.395 . S
C3362 C3364 1.320 . S
C3363 C3361 1.339 . S
C3363 C3362 1.395 . S
C3363 H3389 0.929 . S
C3364 C3362 1.320 . S
C3364 C3365 1.405 . S
C3364 H3390 0.930 . S
C3365 C3360 1.479 . S
C3365 C3364 1.405 . S
C3365 H3391 0.931 . S
U3366 O3367 2.454 . S
U3366 O3368 2.458 . S
U3366 C3369 2.984 . S
U3366 C3370 2.847 . S
U3366 C3383 2.882 . S
U3366 O3384 2.441 . S
U3366 O3385 2.420 . S
U3366 O3386 2.455 . S
U3366 O3387 2.449 . S
O3367 U3366 2.454 . S
O3367 C3369 1.353 . S
O3368 U3366 2.458 . S
O3368 C3369 1.286 . S
C3369 U3366 2.984 . S
C3369 O3367 1.353 . S
C3369 O3368 1.286 . S
C3369 C3371 1.363 . S
C3370 C3360 1.465 . S
C3370 U3366 2.847 . S
C3370 O3384 1.249 . S
C3370 O3385 1.202 . S
C3371 C3369 1.363 . S
C3371 C3373 1.408 . S
C3371 C3376 1.342 . S
C3372 C3373 1.310 . S
C3372 C3375 1.461 . S
C3372 H3392 0.932 . S
C3373 C3371 1.408 . S
C3373 C3372 1.310 . S
C3373 H3393 0.930 . S
C3374 C3375 1.474 . S
C3374 C3376 1.285 . S
C3374 H3394 0.929 . S
C3375 C3372 1.461 . S
C3375 C3374 1.474 . S
C3376 C3371 1.342 . S
C3376 C3374 1.285 . S
C3376 H3395 0.930 . S
C3377 C3380 1.424 . S
C3377 C3382 1.245 . S
C3377 C3383 1.428 . S
C3378 C3381 1.260 . S
C3378 C3382 1.477 . S
C3378 H3396 0.932 . S
C3379 C3380 1.384 . S
C3379 C3381 1.479 . S
C3379 H3397 0.929 . S
C3380 C3377 1.424 . S
C3380 C3379 1.384 . S
C3380 H3398 0.928 . S
C3381 C3378 1.260 . S
C3381 C3379 1.479 . S
C3382 C3377 1.245 . S
C3382 C3378 1.477 . S
C3382 H3399 0.932 . S
C3383 U3366 2.882 . S
C3383 C3377 1.428 . S
C3383 O3386 1.301 . S
C3383 O3387 1.282 . S
O3384 U3366 2.441 . S
O3384 C3370 1.249 . S
O3385 U3366 2.420 . S
O3385 C3370 1.202 . S
O3386 U3366 2.455 . S
O3386 C3383 1.301 . S
O3387 U3366 2.449 . S
O3387 C3383 1.282 . S
H3388 C3361 0.931 . S
H3389 C3363 0.929 . S
H3390 C3364 0.930 . S
H3391 C3365 0.931 . S
H3392 C3372 0.932 . S
H3393 C3373 0.930 . S
H3394 C3374 0.929 . S
H3395 C3376 0.930 . S
H3396 C3378 0.932 . S
H3397 C3379 0.929 . S
H3398 C3380 0.928 . S
H3399 C3382 0.932 . S
C3400 C3401 1.264 . S
C3400 C3405 1.479 . S
C3400 C3410 1.465 . S
C3401 C3400 1.264 . S
C3401 C3403 1.339 . S
C3401 H3428 0.931 . S
C3402 C3403 1.395 . S
C3402 C3404 1.320 . S
C3403 C3401 1.339 . S
C3403 C3402 1.395 . S
C3403 H3429 0.929 . S
C3404 C3402 1.320 . S
C3404 C3405 1.405 . S
C3404 H3430 0.930 . S
C3405 C3400 1.479 . S
C3405 C3404 1.405 . S
C3405 H3431 0.931 . S
U3406 O3407 2.454 . S
U3406 O3408 2.458 . S
U3406 C3409 2.984 . S
U3406 C3410 2.847 . S
U3406 C3423 2.882 . S
U3406 O3424 2.441 . S
U3406 O3425 2.420 . S
U3406 O3426 2.455 . S
U3406 O3427 2.449 . S
O3407 U3406 2.454 . S
O3407 C3409 1.353 . S
O3408 U3406 2.458 . S
O3408 C3409 1.286 . S
C3409 U3406 2.984 . S
C3409 O3407 1.353 . S
C3409 O3408 1.286 . S
C3409 C3411 1.363 . S
C3410 C3400 1.465 . S
C3410 U3406 2.847 . S
C3410 O3424 1.249 . S
C3410 O3425 1.202 . S
C3411 C3409 1.363 . S
C3411 C3413 1.408 . S
C3411 C3416 1.342 . S
C3412 C3413 1.310 . S
C3412 C3415 1.461 . S
C3412 H3432 0.932 . S
C3413 C3411 1.408 . S
C3413 C3412 1.310 . S
C3413 H3433 0.930 . S
C3414 C3415 1.474 . S
C3414 C3416 1.285 . S
C3414 H3434 0.929 . S
C3415 C3412 1.461 . S
C3415 C3414 1.474 . S
C3416 C3411 1.342 . S
C3416 C3414 1.285 . S
C3416 H3435 0.930 . S
C3417 C3420 1.424 . S
C3417 C3422 1.245 . S
C3417 C3423 1.428 . S
C3418 C3421 1.260 . S
C3418 C3422 1.477 . S
C3418 H3436 0.932 . S
C3419 C3420 1.384 . S
C3419 C3421 1.479 . S
C3419 H3437 0.929 . S
C3420 C3417 1.424 . S
C3420 C3419 1.384 . S
C3420 H3438 0.928 . S
C3421 C3418 1.260 . S
C3421 C3419 1.479 . S
C3422 C3417 1.245 . S
C3422 C3418 1.477 . S
C3422 H3439 0.932 . S
C3423 U3406 2.882 . S
C3423 C3417 1.428 . S
C3423 O3426 1.301 . S
C3423 O3427 1.282 . S
O3424 U3406 2.441 . S
O3424 C3410 1.249 . S
O3425 U3406 2.420 . S
O3425 C3410 1.202 . S
O3426 U3406 2.455 . S
O3426 C3423 1.301 . S
O3427 U3406 2.449 . S
O3427 C3423 1.282 . S
H3428 C3401 0.931 . S
H3429 C3403 0.929 . S
H3430 C3404 0.930 . S
H3431 C3405 0.931 . S
H3432 C3412 0.932 . S
H3433 C3413 0.930 . S
H3434 C3414 0.929 . S
H3435 C3416 0.930 . S
H3436 C3418 0.932 . S
H3437 C3419 0.929 . S
H3438 C3420 0.928 . S
H3439 C3422 0.932 . S
C3440 C3441 1.264 . S
C3440 C3445 1.479 . S
C3440 C3450 1.465 . S
C3441 C3440 1.264 . S
C3441 C3443 1.339 . S
C3441 H3468 0.931 . S
C3442 C3443 1.395 . S
C3442 C3444 1.320 . S
C3443 C3441 1.339 . S
C3443 C3442 1.395 . S
C3443 H3469 0.929 . S
C3444 C3442 1.320 . S
C3444 C3445 1.405 . S
C3444 H3470 0.930 . S
C3445 C3440 1.479 . S
C3445 C3444 1.405 . S
C3445 H3471 0.931 . S
U3446 O3447 2.454 . S
U3446 O3448 2.458 . S
U3446 C3449 2.984 . S
U3446 C3450 2.847 . S
U3446 C3463 2.882 . S
U3446 O3464 2.441 . S
U3446 O3465 2.420 . S
U3446 O3466 2.455 . S
U3446 O3467 2.449 . S
O3447 U3446 2.454 . S
O3447 C3449 1.353 . S
O3448 U3446 2.458 . S
O3448 C3449 1.286 . S
C3449 U3446 2.984 . S
C3449 O3447 1.353 . S
C3449 O3448 1.286 . S
C3449 C3451 1.363 . S
C3450 C3440 1.465 . S
C3450 U3446 2.847 . S
C3450 O3464 1.249 . S
C3450 O3465 1.202 . S
C3451 C3449 1.363 . S
C3451 C3453 1.408 . S
C3451 C3456 1.342 . S
C3452 C3453 1.310 . S
C3452 C3455 1.461 . S
C3452 H3472 0.932 . S
C3453 C3451 1.408 . S
C3453 C3452 1.310 . S
C3453 H3473 0.930 . S
C3454 C3455 1.474 . S
C3454 C3456 1.285 . S
C3454 H3474 0.929 . S
C3455 C3452 1.461 . S
C3455 C3454 1.474 . S
C3456 C3451 1.342 . S
C3456 C3454 1.285 . S
C3456 H3475 0.930 . S
C3457 C3460 1.424 . S
C3457 C3462 1.245 . S
C3457 C3463 1.428 . S
C3458 C3461 1.260 . S
C3458 C3462 1.477 . S
C3458 H3476 0.932 . S
C3459 C3460 1.384 . S
C3459 C3461 1.479 . S
C3459 H3477 0.929 . S
C3460 C3457 1.424 . S
C3460 C3459 1.384 . S
C3460 H3478 0.928 . S
C3461 C3458 1.260 . S
C3461 C3459 1.479 . S
C3462 C3457 1.245 . S
C3462 C3458 1.477 . S
C3462 H3479 0.932 . S
C3463 U3446 2.882 . S
C3463 C3457 1.428 . S
C3463 O3466 1.301 . S
C3463 O3467 1.282 . S
O3464 U3446 2.441 . S
O3464 C3450 1.249 . S
O3465 U3446 2.420 . S
O3465 C3450 1.202 . S
O3466 U3446 2.455 . S
O3466 C3463 1.301 . S
O3467 U3446 2.449 . S
O3467 C3463 1.282 . S
H3468 C3441 0.931 . S
H3469 C3443 0.929 . S
H3470 C3444 0.930 . S
H3471 C3445 0.931 . S
H3472 C3452 0.932 . S
H3473 C3453 0.930 . S
H3474 C3454 0.929 . S
H3475 C3456 0.930 . S
H3476 C3458 0.932 . S
H3477 C3459 0.929 . S
H3478 C3460 0.928 . S
H3479 C3462 0.932 . S
C3480 C3481 1.264 . S
C3480 C3485 1.479 . S
C3480 C3490 1.465 . S
C3481 C3480 1.264 . S
C3481 C3483 1.339 . S
C3481 H3508 0.931 . S
C3482 C3483 1.395 . S
C3482 C3484 1.320 . S
C3483 C3481 1.339 . S
C3483 C3482 1.395 . S
C3483 H3509 0.929 . S
C3484 C3482 1.320 . S
C3484 C3485 1.405 . S
C3484 H3510 0.930 . S
C3485 C3480 1.479 . S
C3485 C3484 1.405 . S
C3485 H3511 0.931 . S
U3486 O3487 2.454 . S
U3486 O3488 2.458 . S
U3486 C3489 2.984 . S
U3486 C3490 2.847 . S
U3486 C3503 2.882 . S
U3486 O3504 2.441 . S
U3486 O3505 2.420 . S
U3486 O3506 2.455 . S
U3486 O3507 2.449 . S
O3487 U3486 2.454 . S
O3487 C3489 1.353 . S
O3488 U3486 2.458 . S
O3488 C3489 1.286 . S
C3489 U3486 2.984 . S
C3489 O3487 1.353 . S
C3489 O3488 1.286 . S
C3489 C3491 1.363 . S
C3490 C3480 1.465 . S
C3490 U3486 2.847 . S
C3490 O3504 1.249 . S
C3490 O3505 1.202 . S
C3491 C3489 1.363 . S
C3491 C3493 1.408 . S
C3491 C3496 1.342 . S
C3492 C3493 1.310 . S
C3492 C3495 1.461 . S
C3492 H3512 0.932 . S
C3493 C3491 1.408 . S
C3493 C3492 1.310 . S
C3493 H3513 0.930 . S
C3494 C3495 1.474 . S
C3494 C3496 1.285 . S
C3494 H3514 0.929 . S
C3495 C3492 1.461 . S
C3495 C3494 1.474 . S
C3496 C3491 1.342 . S
C3496 C3494 1.285 . S
C3496 H3515 0.930 . S
C3497 C3500 1.424 . S
C3497 C3502 1.245 . S
C3497 C3503 1.428 . S
C3498 C3501 1.260 . S
C3498 C3502 1.477 . S
C3498 H3516 0.932 . S
C3499 C3500 1.384 . S
C3499 C3501 1.479 . S
C3499 H3517 0.929 . S
C3500 C3497 1.424 . S
C3500 C3499 1.384 . S
C3500 H3518 0.928 . S
C3501 C3498 1.260 . S
C3501 C3499 1.479 . S
C3502 C3497 1.245 . S
C3502 C3498 1.477 . S
C3502 H3519 0.932 . S
C3503 U3486 2.882 . S
C3503 C3497 1.428 . S
C3503 O3506 1.301 . S
C3503 O3507 1.282 . S
O3504 U3486 2.441 . S
O3504 C3490 1.249 . S
O3505 U3486 2.420 . S
O3505 C3490 1.202 . S
O3506 U3486 2.455 . S
O3506 C3503 1.301 . S
O3507 U3486 2.449 . S
O3507 C3503 1.282 . S
H3508 C3481 0.931 . S
H3509 C3483 0.929 . S
H3510 C3484 0.930 . S
H3511 C3485 0.931 . S
H3512 C3492 0.932 . S
H3513 C3493 0.930 . S
H3514 C3494 0.929 . S
H3515 C3496 0.930 . S
H3516 C3498 0.932 . S
H3517 C3499 0.929 . S
H3518 C3500 0.928 . S
H3519 C3502 0.932 . S
C3520 C3521 1.264 . S
C3520 C3525 1.479 . S
C3520 C3530 1.465 . S
C3521 C3520 1.264 . S
C3521 C3523 1.339 . S
C3521 H3548 0.931 . S
C3522 C3523 1.395 . S
C3522 C3524 1.320 . S
C3523 C3521 1.339 . S
C3523 C3522 1.395 . S
C3523 H3549 0.929 . S
C3524 C3522 1.320 . S
C3524 C3525 1.405 . S
C3524 H3550 0.930 . S
C3525 C3520 1.479 . S
C3525 C3524 1.405 . S
C3525 H3551 0.931 . S
U3526 O3527 2.454 . S
U3526 O3528 2.458 . S
U3526 C3529 2.984 . S
U3526 C3530 2.847 . S
U3526 C3543 2.882 . S
U3526 O3544 2.441 . S
U3526 O3545 2.420 . S
U3526 O3546 2.455 . S
U3526 O3547 2.449 . S
O3527 U3526 2.454 . S
O3527 C3529 1.353 . S
O3528 U3526 2.458 . S
O3528 C3529 1.286 . S
C3529 U3526 2.984 . S
C3529 O3527 1.353 . S
C3529 O3528 1.286 . S
C3529 C3531 1.363 . S
C3530 C3520 1.465 . S
C3530 U3526 2.847 . S
C3530 O3544 1.249 . S
C3530 O3545 1.202 . S
C3531 C3529 1.363 . S
C3531 C3533 1.408 . S
C3531 C3536 1.342 . S
C3532 C3533 1.310 . S
C3532 C3535 1.461 . S
C3532 H3552 0.932 . S
C3533 C3531 1.408 . S
C3533 C3532 1.310 . S
C3533 H3553 0.930 . S
C3534 C3535 1.474 . S
C3534 C3536 1.285 . S
C3534 H3554 0.929 . S
C3535 C3532 1.461 . S
C3535 C3534 1.474 . S
C3536 C3531 1.342 . S
C3536 C3534 1.285 . S
C3536 H3555 0.930 . S
C3537 C3540 1.424 . S
C3537 C3542 1.245 . S
C3537 C3543 1.428 . S
C3538 C3541 1.260 . S
C3538 C3542 1.477 . S
C3538 H3556 0.932 . S
C3539 C3540 1.384 . S
C3539 C3541 1.479 . S
C3539 H3557 0.929 . S
C3540 C3537 1.424 . S
C3540 C3539 1.384 . S
C3540 H3558 0.928 . S
C3541 C3538 1.260 . S
C3541 C3539 1.479 . S
C3542 C3537 1.245 . S
C3542 C3538 1.477 . S
C3542 H3559 0.932 . S
C3543 U3526 2.882 . S
C3543 C3537 1.428 . S
C3543 O3546 1.301 . S
C3543 O3547 1.282 . S
O3544 U3526 2.441 . S
O3544 C3530 1.249 . S
O3545 U3526 2.420 . S
O3545 C3530 1.202 . S
O3546 U3526 2.455 . S
O3546 C3543 1.301 . S
O3547 U3526 2.449 . S
O3547 C3543 1.282 . S
H3548 C3521 0.931 . S
H3549 C3523 0.929 . S
H3550 C3524 0.930 . S
H3551 C3525 0.931 . S
H3552 C3532 0.932 . S
H3553 C3533 0.930 . S
H3554 C3534 0.929 . S
H3555 C3536 0.930 . S
H3556 C3538 0.932 . S
H3557 C3539 0.929 . S
H3558 C3540 0.928 . S
H3559 C3542 0.932 . S
C3560 C3561 1.264 . S
C3560 C3565 1.479 . S
C3560 C3570 1.465 . S
C3561 C3560 1.264 . S
C3561 C3563 1.339 . S
C3561 H3588 0.931 . S
C3562 C3563 1.395 . S
C3562 C3564 1.320 . S
C3563 C3561 1.339 . S
C3563 C3562 1.395 . S
C3563 H3589 0.929 . S
C3564 C3562 1.320 . S
C3564 C3565 1.405 . S
C3564 H3590 0.930 . S
C3565 C3560 1.479 . S
C3565 C3564 1.405 . S
C3565 H3591 0.931 . S
U3566 O3567 2.454 . S
U3566 O3568 2.458 . S
U3566 C3569 2.984 . S
U3566 C3570 2.847 . S
U3566 C3583 2.882 . S
U3566 O3584 2.441 . S
U3566 O3585 2.420 . S
U3566 O3586 2.455 . S
U3566 O3587 2.449 . S
O3567 U3566 2.454 . S
O3567 C3569 1.353 . S
O3568 U3566 2.458 . S
O3568 C3569 1.286 . S
C3569 U3566 2.984 . S
C3569 O3567 1.353 . S
C3569 O3568 1.286 . S
C3569 C3571 1.363 . S
C3570 C3560 1.465 . S
C3570 U3566 2.847 . S
C3570 O3584 1.249 . S
C3570 O3585 1.202 . S
C3571 C3569 1.363 . S
C3571 C3573 1.408 . S
C3571 C3576 1.342 . S
C3572 C3573 1.310 . S
C3572 C3575 1.461 . S
C3572 H3592 0.932 . S
C3573 C3571 1.408 . S
C3573 C3572 1.310 . S
C3573 H3593 0.930 . S
C3574 C3575 1.474 . S
C3574 C3576 1.285 . S
C3574 H3594 0.929 . S
C3575 C3572 1.461 . S
C3575 C3574 1.474 . S
C3576 C3571 1.342 . S
C3576 C3574 1.285 . S
C3576 H3595 0.930 . S
C3577 C3580 1.424 . S
C3577 C3582 1.245 . S
C3577 C3583 1.428 . S
C3578 C3581 1.260 . S
C3578 C3582 1.477 . S
C3578 H3596 0.932 . S
C3579 C3580 1.384 . S
C3579 C3581 1.479 . S
C3579 H3597 0.929 . S
C3580 C3577 1.424 . S
C3580 C3579 1.384 . S
C3580 H3598 0.928 . S
C3581 C3578 1.260 . S
C3581 C3579 1.479 . S
C3582 C3577 1.245 . S
C3582 C3578 1.477 . S
C3582 H3599 0.932 . S
C3583 U3566 2.882 . S
C3583 C3577 1.428 . S
C3583 O3586 1.301 . S
C3583 O3587 1.282 . S
O3584 U3566 2.441 . S
O3584 C3570 1.249 . S
O3585 U3566 2.420 . S
O3585 C3570 1.202 . S
O3586 U3566 2.455 . S
O3586 C3583 1.301 . S
O3587 U3566 2.449 . S
O3587 C3583 1.282 . S
H3588 C3561 0.931 . S
H3589 C3563 0.929 . S
H3590 C3564 0.930 . S
H3591 C3565 0.931 . S
H3592 C3572 0.932 . S
H3593 C3573 0.930 . S
H3594 C3574 0.929 . S
H3595 C3576 0.930 . S
H3596 C3578 0.932 . S
H3597 C3579 0.929 . S
H3598 C3580 0.928 . S
H3599 C3582 0.932 . S
C3600 C3601 1.264 . S
C3600 C3605 1.479 . S
C3600 C3610 1.465 . S
C3601 C3600 1.264 . S
C3601 C3603 1.339 . S
C3601 H3628 0.931 . S
C3602 C3603 1.395 . S
C3602 C3604 1.320 . S
C3603 C3601 1.339 . S
C3603 C3602 1.395 . S
C3603 H3629 0.929 . S
C3604 C3602 1.320 . S
C3604 C3605 1.405 . S
C3604 H3630 0.930 . S
C3605 C3600 1.479 . S
C3605 C3604 1.405 . S
C3605 H3631 0.931 . S
U3606 O3607 2.454 . S
U3606 O3608 2.458 . S
U3606 C3609 2.984 . S
U3606 C3610 2.847 . S
U3606 C3623 2.882 . S
U3606 O3624 2.441 . S
U3606 O3625 2.420 . S
U3606 O3626 2.455 . S
U3606 O3627 2.449 . S
O3607 U3606 2.454 . S
O3607 C3609 1.353 . S
O3608 U3606 2.458 . S
O3608 C3609 1.286 . S
C3609 U3606 2.984 . S
C3609 O3607 1.353 . S
C3609 O3608 1.286 . S
C3609 C3611 1.363 . S
C3610 C3600 1.465 . S
C3610 U3606 2.847 . S
C3610 O3624 1.249 . S
C3610 O3625 1.202 . S
C3611 C3609 1.363 . S
C3611 C3613 1.408 . S
C3611 C3616 1.342 . S
C3612 C3613 1.310 . S
C3612 C3615 1.461 . S
C3612 H3632 0.932 . S
C3613 C3611 1.408 . S
C3613 C3612 1.310 . S
C3613 H3633 0.930 . S
C3614 C3615 1.474 . S
C3614 C3616 1.285 . S
C3614 H3634 0.929 . S
C3615 C3612 1.461 . S
C3615 C3614 1.474 . S
C3616 C3611 1.342 . S
C3616 C3614 1.285 . S
C3616 H3635 0.930 . S
C3617 C3620 1.424 . S
C3617 C3622 1.245 . S
C3617 C3623 1.428 . S
C3618 C3621 1.260 . S
C3618 C3622 1.477 . S
C3618 H3636 0.932 . S
C3619 C3620 1.384 . S
C3619 C3621 1.479 . S
C3619 H3637 0.929 . S
C3620 C3617 1.424 . S
C3620 C3619 1.384 . S
C3620 H3638 0.928 . S
C3621 C3618 1.260 . S
C3621 C3619 1.479 . S
C3622 C3617 1.245 . S
C3622 C3618 1.477 . S
C3622 H3639 0.932 . S
C3623 U3606 2.882 . S
C3623 C3617 1.428 . S
C3623 O3626 1.301 . S
C3623 O3627 1.282 . S
O3624 U3606 2.441 . S
O3624 C3610 1.249 . S
O3625 U3606 2.420 . S
O3625 C3610 1.202 . S
O3626 U3606 2.455 . S
O3626 C3623 1.301 . S
O3627 U3606 2.449 . S
O3627 C3623 1.282 . S
H3628 C3601 0.931 . S
H3629 C3603 0.929 . S
H3630 C3604 0.930 . S
H3631 C3605 0.931 . S
H3632 C3612 0.932 . S
H3633 C3613 0.930 . S
H3634 C3614 0.929 . S
H3635 C3616 0.930 . S
H3636 C3618 0.932 . S
H3637 C3619 0.929 . S
H3638 C3620 0.928 . S
H3639 C3622 0.932 . S
C3640 C3641 1.264 . S
C3640 C3645 1.479 . S
C3640 C3650 1.465 . S
C3641 C3640 1.264 . S
C3641 C3643 1.339 . S
C3641 H3668 0.931 . S
C3642 C3643 1.395 . S
C3642 C3644 1.320 . S
C3643 C3641 1.339 . S
C3643 C3642 1.395 . S
C3643 H3669 0.929 . S
C3644 C3642 1.320 . S
C3644 C3645 1.405 . S
C3644 H3670 0.930 . S
C3645 C3640 1.479 . S
C3645 C3644 1.405 . S
C3645 H3671 0.931 . S
U3646 O3647 2.454 . S
U3646 O3648 2.458 . S
U3646 C3649 2.984 . S
U3646 C3650 2.847 . S
U3646 C3663 2.882 . S
U3646 O3664 2.441 . S
U3646 O3665 2.420 . S
U3646 O3666 2.455 . S
U3646 O3667 2.449 . S
O3647 U3646 2.454 . S
O3647 C3649 1.353 . S
O3648 U3646 2.458 . S
O3648 C3649 1.286 . S
C3649 U3646 2.984 . S
C3649 O3647 1.353 . S
C3649 O3648 1.286 . S
C3649 C3651 1.363 . S
C3650 C3640 1.465 . S
C3650 U3646 2.847 . S
C3650 O3664 1.249 . S
C3650 O3665 1.202 . S
C3651 C3649 1.363 . S
C3651 C3653 1.408 . S
C3651 C3656 1.342 . S
C3652 C3653 1.310 . S
C3652 C3655 1.461 . S
C3652 H3672 0.932 . S
C3653 C3651 1.408 . S
C3653 C3652 1.310 . S
C3653 H3673 0.930 . S
C3654 C3655 1.474 . S
C3654 C3656 1.285 . S
C3654 H3674 0.929 . S
C3655 C3652 1.461 . S
C3655 C3654 1.474 . S
C3656 C3651 1.342 . S
C3656 C3654 1.285 . S
C3656 H3675 0.930 . S
C3657 C3660 1.424 . S
C3657 C3662 1.245 . S
C3657 C3663 1.428 . S
C3658 C3661 1.260 . S
C3658 C3662 1.477 . S
C3658 H3676 0.932 . S
C3659 C3660 1.384 . S
C3659 C3661 1.479 . S
C3659 H3677 0.929 . S
C3660 C3657 1.424 . S
C3660 C3659 1.384 . S
C3660 H3678 0.928 . S
C3661 C3658 1.260 . S
C3661 C3659 1.479 . S
C3662 C3657 1.245 . S
C3662 C3658 1.477 . S
C3662 H3679 0.932 . S
C3663 U3646 2.882 . S
C3663 C3657 1.428 . S
C3663 O3666 1.301 . S
C3663 O3667 1.282 . S
O3664 U3646 2.441 . S
O3664 C3650 1.249 . S
O3665 U3646 2.420 . S
O3665 C3650 1.202 . S
O3666 U3646 2.455 . S
O3666 C3663 1.301 . S
O3667 U3646 2.449 . S
O3667 C3663 1.282 . S
H3668 C3641 0.931 . S
H3669 C3643 0.929 . S
H3670 C3644 0.930 . S
H3671 C3645 0.931 . S
H3672 C3652 0.932 . S
H3673 C3653 0.930 . S
H3674 C3654 0.929 . S
H3675 C3656 0.930 . S
H3676 C3658 0.932 . S
H3677 C3659 0.929 . S
H3678 C3660 0.928 . S
H3679 C3662 0.932 . S
C3680 C3681 1.264 . S
C3680 C3685 1.479 . S
C3680 C3690 1.465 . S
C3681 C3680 1.264 . S
C3681 C3683 1.339 . S
C3681 H3708 0.931 . S
C3682 C3683 1.395 . S
C3682 C3684 1.320 . S
C3683 C3681 1.339 . S
C3683 C3682 1.395 . S
C3683 H3709 0.929 . S
C3684 C3682 1.320 . S
C3684 C3685 1.405 . S
C3684 H3710 0.930 . S
C3685 C3680 1.479 . S
C3685 C3684 1.405 . S
C3685 H3711 0.931 . S
U3686 O3687 2.454 . S
U3686 O3688 2.458 . S
U3686 C3689 2.984 . S
U3686 C3690 2.847 . S
U3686 C3703 2.882 . S
U3686 O3704 2.441 . S
U3686 O3705 2.420 . S
U3686 O3706 2.455 . S
U3686 O3707 2.449 . S
O3687 U3686 2.454 . S
O3687 C3689 1.353 . S
O3688 U3686 2.458 . S
O3688 C3689 1.286 . S
C3689 U3686 2.984 . S
C3689 O3687 1.353 . S
C3689 O3688 1.286 . S
C3689 C3691 1.363 . S
C3690 C3680 1.465 . S
C3690 U3686 2.847 . S
C3690 O3704 1.249 . S
C3690 O3705 1.202 . S
C3691 C3689 1.363 . S
C3691 C3693 1.408 . S
C3691 C3696 1.342 . S
C3692 C3693 1.310 . S
C3692 C3695 1.461 . S
C3692 H3712 0.932 . S
C3693 C3691 1.408 . S
C3693 C3692 1.310 . S
C3693 H3713 0.930 . S
C3694 C3695 1.474 . S
C3694 C3696 1.285 . S
C3694 H3714 0.929 . S
C3695 C3692 1.461 . S
C3695 C3694 1.474 . S
C3696 C3691 1.342 . S
C3696 C3694 1.285 . S
C3696 H3715 0.930 . S
C3697 C3700 1.424 . S
C3697 C3702 1.245 . S
C3697 C3703 1.428 . S
C3698 C3701 1.260 . S
C3698 C3702 1.477 . S
C3698 H3716 0.932 . S
C3699 C3700 1.384 . S
C3699 C3701 1.479 . S
C3699 H3717 0.929 . S
C3700 C3697 1.424 . S
C3700 C3699 1.384 . S
C3700 H3718 0.928 . S
C3701 C3698 1.260 . S
C3701 C3699 1.479 . S
C3702 C3697 1.245 . S
C3702 C3698 1.477 . S
C3702 H3719 0.932 . S
C3703 U3686 2.882 . S
C3703 C3697 1.428 . S
C3703 O3706 1.301 . S
C3703 O3707 1.282 . S
O3704 U3686 2.441 . S
O3704 C3690 1.249 . S
O3705 U3686 2.420 . S
O3705 C3690 1.202 . S
O3706 U3686 2.455 . S
O3706 C3703 1.301 . S
O3707 U3686 2.449 . S
O3707 C3703 1.282 . S
H3708 C3681 0.931 . S
H3709 C3683 0.929 . S
H3710 C3684 0.930 . S
H3711 C3685 0.931 . S
H3712 C3692 0.932 . S
H3713 C3693 0.930 . S
H3714 C3694 0.929 . S
H3715 C3696 0.930 . S
H3716 C3698 0.932 . S
H3717 C3699 0.929 . S
H3718 C3700 0.928 . S
H3719 C3702 0.932 . S
C3720 C3721 1.264 . S
C3720 C3725 1.479 . S
C3720 C3730 1.465 . S
C3721 C3720 1.264 . S
C3721 C3723 1.339 . S
C3721 H3748 0.931 . S
C3722 C3723 1.395 . S
C3722 C3724 1.320 . S
C3723 C3721 1.339 . S
C3723 C3722 1.395 . S
C3723 H3749 0.929 . S
C3724 C3722 1.320 . S
C3724 C3725 1.405 . S
C3724 H3750 0.930 . S
C3725 C3720 1.479 . S
C3725 C3724 1.405 . S
C3725 H3751 0.931 . S
U3726 O3727 2.454 . S
U3726 O3728 2.458 . S
U3726 C3729 2.984 . S
U3726 C3730 2.847 . S
U3726 C3743 2.882 . S
U3726 O3744 2.441 . S
U3726 O3745 2.420 . S
U3726 O3746 2.455 . S
U3726 O3747 2.449 . S
O3727 U3726 2.454 . S
O3727 C3729 1.353 . S
O3728 U3726 2.458 . S
O3728 C3729 1.286 . S
C3729 U3726 2.984 . S
C3729 O3727 1.353 . S
C3729 O3728 1.286 . S
C3729 C3731 1.363 . S
C3730 C3720 1.465 . S
C3730 U3726 2.847 . S
C3730 O3744 1.249 . S
C3730 O3745 1.202 . S
C3731 C3729 1.363 . S
C3731 C3733 1.408 . S
C3731 C3736 1.342 . S
C3732 C3733 1.310 . S
C3732 C3735 1.461 . S
C3732 H3752 0.932 . S
C3733 C3731 1.408 . S
C3733 C3732 1.310 . S
C3733 H3753 0.930 . S
C3734 C3735 1.474 . S
C3734 C3736 1.285 . S
C3734 H3754 0.929 . S
C3735 C3732 1.461 . S
C3735 C3734 1.474 . S
C3736 C3731 1.342 . S
C3736 C3734 1.285 . S
C3736 H3755 0.930 . S
C3737 C3740 1.424 . S
C3737 C3742 1.245 . S
C3737 C3743 1.428 . S
C3738 C3741 1.260 . S
C3738 C3742 1.477 . S
C3738 H3756 0.932 . S
C3739 C3740 1.384 . S
C3739 C3741 1.479 . S
C3739 H3757 0.929 . S
C3740 C3737 1.424 . S
C3740 C3739 1.384 . S
C3740 H3758 0.928 . S
C3741 C3738 1.260 . S
C3741 C3739 1.479 . S
C3742 C3737 1.245 . S
C3742 C3738 1.477 . S
C3742 H3759 0.932 . S
C3743 U3726 2.882 . S
C3743 C3737 1.428 . S
C3743 O3746 1.301 . S
C3743 O3747 1.282 . S
O3744 U3726 2.441 . S
O3744 C3730 1.249 . S
O3745 U3726 2.420 . S
O3745 C3730 1.202 . S
O3746 U3726 2.455 . S
O3746 C3743 1.301 . S
O3747 U3726 2.449 . S
O3747 C3743 1.282 . S
H3748 C3721 0.931 . S
H3749 C3723 0.929 . S
H3750 C3724 0.930 . S
H3751 C3725 0.931 . S
H3752 C3732 0.932 . S
H3753 C3733 0.930 . S
H3754 C3734 0.929 . S
H3755 C3736 0.930 . S
H3756 C3738 0.932 . S
H3757 C3739 0.929 . S
H3758 C3740 0.928 . S
H3759 C3742 0.932 . S
C3760 C3761 1.264 . S
C3760 C3765 1.479 . S
C3760 C3770 1.465 . S
C3761 C3760 1.264 . S
C3761 C3763 1.339 . S
C3761 H3788 0.931 . S
C3762 C3763 1.395 . S
C3762 C3764 1.320 . S
C3763 C3761 1.339 . S
C3763 C3762 1.395 . S
C3763 H3789 0.929 . S
C3764 C3762 1.320 . S
C3764 C3765 1.405 . S
C3764 H3790 0.930 . S
C3765 C3760 1.479 . S
C3765 C3764 1.405 . S
C3765 H3791 0.931 . S
U3766 O3767 2.454 . S
U3766 O3768 2.458 . S
U3766 C3769 2.984 . S
U3766 C3770 2.847 . S
U3766 C3783 2.882 . S
U3766 O3784 2.441 . S
U3766 O3785 2.420 . S
U3766 O3786 2.455 . S
U3766 O3787 2.449 . S
O3767 U3766 2.454 . S
O3767 C3769 1.353 . S
O3768 U3766 2.458 . S
O3768 C3769 1.286 . S
C3769 U3766 2.984 . S
C3769 O3767 1.353 . S
C3769 O3768 1.286 . S
C3769 C3771 1.363 . S
C3770 C3760 1.465 . S
C3770 U3766 2.847 . S
C3770 O3784 1.249 . S
C3770 O3785 1.202 . S
C3771 C3769 1.363 . S
C3771 C3773 1.408 . S
C3771 C3776 1.342 . S
C3772 C3773 1.310 . S
C3772 C3775 1.461 . S
C3772 H3792 0.932 . S
C3773 C3771 1.408 . S
C3773 C3772 1.310 . S
C3773 H3793 0.930 . S
C3774 C3775 1.474 . S
C3774 C3776 1.285 . S
C3774 H3794 0.929 . S
C3775 C3772 1.461 . S
C3775 C3774 1.474 . S
C3776 C3771 1.342 . S
C3776 C3774 1.285 . S
C3776 H3795 0.930 . S
C3777 C3780 1.424 . S
C3777 C3782 1.245 . S
C3777 C3783 1.428 . S
C3778 C3781 1.260 . S
C3778 C3782 1.477 . S
C3778 H3796 0.932 . S
C3779 C3780 1.384 . S
C3779 C3781 1.479 . S
C3779 H3797 0.929 . S
C3780 C3777 1.424 . S
C3780 C3779 1.384 . S
C3780 H3798 0.928 . S
C3781 C3778 1.260 . S
C3781 C3779 1.479 . S
C3782 C3777 1.245 . S
C3782 C3778 1.477 . S
C3782 H3799 0.932 . S
C3783 U3766 2.882 . S
C3783 C3777 1.428 . S
C3783 O3786 1.301 . S
C3783 O3787 1.282 . S
O3784 U3766 2.441 . S
O3784 C3770 1.249 . S
O3785 U3766 2.420 . S
O3785 C3770 1.202 . S
O3786 U3766 2.455 . S
O3786 C3783 1.301 . S
O3787 U3766 2.449 . S
O3787 C3783 1.282 . S
H3788 C3761 0.931 . S
H3789 C3763 0.929 . S
H3790 C3764 0.930 . S
H3791 C3765 0.931 . S
H3792 C3772 0.932 . S
H3793 C3773 0.930 . S
H3794 C3774 0.929 . S
H3795 C3776 0.930 . S
H3796 C3778 0.932 . S
H3797 C3779 0.929 . S
H3798 C3780 0.928 . S
H3799 C3782 0.932 . S
C3800 C3801 1.264 . S
C3800 C3805 1.479 . S
C3800 C3810 1.465 . S
C3801 C3800 1.264 . S
C3801 C3803 1.339 . S
C3801 H3828 0.931 . S
C3802 C3803 1.395 . S
C3802 C3804 1.320 . S
C3803 C3801 1.339 . S
C3803 C3802 1.395 . S
C3803 H3829 0.929 . S
C3804 C3802 1.320 . S
C3804 C3805 1.405 . S
C3804 H3830 0.930 . S
C3805 C3800 1.479 . S
C3805 C3804 1.405 . S
C3805 H3831 0.931 . S
U3806 O3807 2.454 . S
U3806 O3808 2.458 . S
U3806 C3809 2.984 . S
U3806 C3810 2.847 . S
U3806 C3823 2.882 . S
U3806 O3824 2.441 . S
U3806 O3825 2.420 . S
U3806 O3826 2.455 . S
U3806 O3827 2.449 . S
O3807 U3806 2.454 . S
O3807 C3809 1.353 . S
O3808 U3806 2.458 . S
O3808 C3809 1.286 . S
C3809 U3806 2.984 . S
C3809 O3807 1.353 . S
C3809 O3808 1.286 . S
C3809 C3811 1.363 . S
C3810 C3800 1.465 . S
C3810 U3806 2.847 . S
C3810 O3824 1.249 . S
C3810 O3825 1.202 . S
C3811 C3809 1.363 . S
C3811 C3813 1.408 . S
C3811 C3816 1.342 . S
C3812 C3813 1.310 . S
C3812 C3815 1.461 . S
C3812 H3832 0.932 . S
C3813 C3811 1.408 . S
C3813 C3812 1.310 . S
C3813 H3833 0.930 . S
C3814 C3815 1.474 . S
C3814 C3816 1.285 . S
C3814 H3834 0.929 . S
C3815 C3812 1.461 . S
C3815 C3814 1.474 . S
C3816 C3811 1.342 . S
C3816 C3814 1.285 . S
C3816 H3835 0.930 . S
C3817 C3820 1.424 . S
C3817 C3822 1.245 . S
C3817 C3823 1.428 . S
C3818 C3821 1.260 . S
C3818 C3822 1.477 . S
C3818 H3836 0.932 . S
C3819 C3820 1.384 . S
C3819 C3821 1.479 . S
C3819 H3837 0.929 . S
C3820 C3817 1.424 . S
C3820 C3819 1.384 . S
C3820 H3838 0.928 . S
C3821 C3818 1.260 . S
C3821 C3819 1.479 . S
C3822 C3817 1.245 . S
C3822 C3818 1.477 . S
C3822 H3839 0.932 . S
C3823 U3806 2.882 . S
C3823 C3817 1.428 . S
C3823 O3826 1.301 . S
C3823 O3827 1.282 . S
O3824 U3806 2.441 . S
O3824 C3810 1.249 . S
O3825 U3806 2.420 . S
O3825 C3810 1.202 . S
O3826 U3806 2.455 . S
O3826 C3823 1.301 . S
O3827 U3806 2.449 . S
O3827 C3823 1.282 . S
H3828 C3801 0.931 . S
H3829 C3803 0.929 . S
H3830 C3804 0.930 . S
H3831 C3805 0.931 . S
H3832 C3812 0.932 . S
H3833 C3813 0.930 . S
H3834 C3814 0.929 . S
H3835 C3816 0.930 . S
H3836 C3818 0.932 . S
H3837 C3819 0.929 . S
H3838 C3820 0.928 . S
H3839 C3822 0.932 . S
C3840 C3841 1.349 . S
C3840 C3842 1.327 . S
C3840 H3865 0.950 . S
C3841 C3840 1.349 . S
C3841 C3857 1.349 . S
C3842 C3840 1.327 . S
C3842 C3861 1.429 . S
C3842 H3866 0.950 . S
C3843 C3860 1.574 . S
C3843 C3862 1.368 . S
C3843 H3867 0.949 . S
H3844 C3848 0.949 . S
C3845 C3846 1.349 . S
C3845 C3847 1.327 . S
C3845 H3868 0.950 . S
C3846 C3845 1.349 . S
C3846 C3858 1.349 . S
C3847 C3845 1.327 . S
C3847 C3863 1.429 . S
C3847 H3869 0.950 . S
C3848 H3844 0.949 . S
C3848 C3856 1.574 . S
C3848 C3864 1.368 . S
H3849 C3857 0.950 . S
H3850 C3855 0.950 . S
H3851 C3856 0.949 . S
H3852 C3858 0.950 . S
H3853 C3859 0.950 . S
H3854 C3860 0.949 . S
C3855 H3850 0.950 . S
C3855 C3857 1.327 . S
C3855 C3861 1.429 . S
C3856 C3848 1.574 . S
C3856 H3851 0.949 . S
C3856 C3862 1.368 . S
C3857 C3841 1.349 . S
C3857 H3849 0.950 . S
C3857 C3855 1.327 . S
C3858 C3846 1.349 . S
C3858 H3852 0.950 . S
C3858 C3859 1.327 . S
C3859 H3853 0.950 . S
C3859 C3858 1.327 . S
C3859 C3863 1.429 . S
C3860 C3843 1.574 . S
C3860 H3854 0.949 . S
C3860 C3864 1.368 . S
C3861 C3842 1.429 . S
C3861 C3855 1.429 . S
C3861 C3862 1.523 . S
C3862 C3843 1.368 . S
C3862 C3856 1.368 . S
C3862 C3861 1.523 . S
C3863 C3847 1.429 . S
C3863 C3859 1.429 . S
C3863 C3864 1.523 . S
C3864 C3848 1.368 . S
C3864 C3860 1.368 . S
C3864 C3863 1.523 . S
H3865 C3840 0.950 . S
H3866 C3842 0.950 . S
H3867 C3843 0.949 . S
H3868 C3845 0.950 . S
H3869 C3847 0.950 . S
C3870 C3871 1.349 . S
C3870 C3872 1.327 . S
C3870 H3895 0.950 . S
C3871 C3870 1.349 . S
C3871 C3887 1.349 . S
C3872 C3870 1.327 . S
C3872 C3891 1.429 . S
C3872 H3896 0.950 . S
C3873 C3890 1.574 . S
C3873 C3892 1.368 . S
C3873 H3897 0.949 . S
H3874 C3878 0.949 . S
C3875 C3876 1.349 . S
C3875 C3877 1.327 . S
C3875 H3898 0.950 . S
C3876 C3875 1.349 . S
C3876 C3888 1.349 . S
C3877 C3875 1.327 . S
C3877 C3893 1.429 . S
C3877 H3899 0.950 . S
C3878 H3874 0.949 . S
C3878 C3886 1.574 . S
C3878 C3894 1.368 . S
H3879 C3887 0.950 . S
H3880 C3885 0.950 . S
H3881 C3886 0.949 . S
H3882 C3888 0.950 . S
H3883 C3889 0.950 . S
H3884 C3890 0.949 . S
C3885 H3880 0.950 . S
C3885 C3887 1.327 . S
C3885 C3891 1.429 . S
C3886 C3878 1.574 . S
C3886 H3881 0.949 . S
C3886 C3892 1.368 . S
C3887 C3871 1.349 . S
C3887 H3879 0.950 . S
C3887 C3885 1.327 . S
C3888 C3876 1.349 . S
C3888 H3882 0.950 . S
C3888 C3889 1.327 . S
C3889 H3883 0.950 . S
C3889 C3888 1.327 . S
C3889 C3893 1.429 . S
C3890 C3873 1.574 . S
C3890 H3884 0.949 . S
C3890 C3894 1.368 . S
C3891 C3872 1.429 . S
C3891 C3885 1.429 . S
C3891 C3892 1.523 . S
C3892 C3873 1.368 . S
C3892 C3886 1.368 . S
C3892 C3891 1.523 . S
C3893 C3877 1.429 . S
C3893 C3889 1.429 . S
C3893 C3894 1.523 . S
C3894 C3878 1.368 . S
C3894 C3890 1.368 . S
C3894 C3893 1.523 . S
H3895 C3870 0.950 . S
H3896 C3872 0.950 . S
H3897 C3873 0.949 . S
H3898 C3875 0.950 . S
H3899 C3877 0.950 . S
C3900 C3901 1.349 . S
C3900 C3902 1.327 . S
C3900 H3925 0.950 . S
C3901 C3900 1.349 . S
C3901 C3917 1.349 . S
C3902 C3900 1.327 . S
C3902 C3921 1.429 . S
C3902 H3926 0.950 . S
C3903 C3920 1.574 . S
C3903 C3922 1.368 . S
C3903 H3927 0.949 . S
H3904 C3908 0.949 . S
C3905 C3906 1.349 . S
C3905 C3907 1.327 . S
C3905 H3928 0.950 . S
C3906 C3905 1.349 . S
C3906 C3918 1.349 . S
C3907 C3905 1.327 . S
C3907 C3923 1.429 . S
C3907 H3929 0.950 . S
C3908 H3904 0.949 . S
C3908 C3916 1.574 . S
C3908 C3924 1.368 . S
H3909 C3917 0.950 . S
H3910 C3915 0.950 . S
H3911 C3916 0.949 . S
H3912 C3918 0.950 . S
H3913 C3919 0.950 . S
H3914 C3920 0.949 . S
C3915 H3910 0.950 . S
C3915 C3917 1.327 . S
C3915 C3921 1.429 . S
C3916 C3908 1.574 . S
C3916 H3911 0.949 . S
C3916 C3922 1.368 . S
C3917 C3901 1.349 . S
C3917 H3909 0.950 . S
C3917 C3915 1.327 . S
C3918 C3906 1.349 . S
C3918 H3912 0.950 . S
C3918 C3919 1.327 . S
C3919 H3913 0.950 . S
C3919 C3918 1.327 . S
C3919 C3923 1.429 . S
C3920 C3903 1.574 . S
C3920 H3914 0.949 . S
C3920 C3924 1.368 . S
C3921 C3902 1.429 . S
C3921 C3915 1.429 . S
C3921 C3922 1.523 . S
C3922 C3903 1.368 . S
C3922 C3916 1.368 . S
C3922 C3921 1.523 . S
C3923 C3907 1.429 . S
C3923 C3919 1.429 . S
C3923 C3924 1.523 . S
C3924 C3908 1.368 . S
C3924 C3920 1.368 . S
C3924 C3923 1.523 . S
H3925 C3900 0.950 . S
H3926 C3902 0.950 . S
H3927 C3903 0.949 . S
H3928 C3905 0.950 . S
H3929 C3907 0.950 . S
C3930 C3931 1.349 . S
C3930 C3932 1.327 . S
C3930 H3955 0.950 . S
C3931 C3930 1.349 . S
C3931 C3947 1.349 . S
C3932 C3930 1.327 . S
C3932 C3951 1.429 . S
C3932 H3956 0.950 . S
C3933 C3950 1.574 . S
C3933 C3952 1.368 . S
C3933 H3957 0.949 . S
H3934 C3938 0.949 . S
C3935 C3936 1.349 . S
C3935 C3937 1.327 . S
C3935 H3958 0.950 . S
C3936 C3935 1.349 . S
C3936 C3948 1.349 . S
C3937 C3935 1.327 . S
C3937 C3953 1.429 . S
C3937 H3959 0.950 . S
C3938 H3934 0.949 . S
C3938 C3946 1.574 . S
C3938 C3954 1.368 . S
H3939 C3947 0.950 . S
H3940 C3945 0.950 . S
H3941 C3946 0.949 . S
H3942 C3948 0.950 . S
H3943 C3949 0.950 . S
H3944 C3950 0.949 . S
C3945 H3940 0.950 . S
C3945 C3947 1.327 . S
C3945 C3951 1.429 . S
C3946 C3938 1.574 . S
C3946 H3941 0.949 . S
C3946 C3952 1.368 . S
C3947 C3931 1.349 . S
C3947 H3939 0.950 . S
C3947 C3945 1.327 . S
C3948 C3936 1.349 . S
C3948 H3942 0.950 . S
C3948 C3949 1.327 . S
C3949 H3943 0.950 . S
C3949 C3948 1.327 . S
C3949 C3953 1.429 . S
C3950 C3933 1.574 . S
C3950 H3944 0.949 . S
C3950 C3954 1.368 . S
C3951 C3932 1.429 . S
C3951 C3945 1.429 . S
C3951 C3952 1.523 . S
C3952 C3933 1.368 . S
C3952 C3946 1.368 . S
C3952 C3951 1.523 . S
C3953 C3937 1.429 . S
C3953 C3949 1.429 . S
C3953 C3954 1.523 . S
C3954 C3938 1.368 . S
C3954 C3950 1.368 . S
C3954 C3953 1.523 . S
H3955 C3930 0.950 . S
H3956 C3932 0.950 . S
H3957 C3933 0.949 . S
H3958 C3935 0.950 . S
H3959 C3937 0.950 . S
C3960 C3961 1.349 . S
C3960 C3962 1.327 . S
C3960 H3985 0.950 . S
C3961 C3960 1.349 . S
C3961 C3977 1.349 . S
C3962 C3960 1.327 . S
C3962 C3981 1.429 . S
C3962 H3986 0.950 . S
C3963 C3980 1.574 . S
C3963 C3982 1.368 . S
C3963 H3987 0.949 . S
H3964 C3968 0.949 . S
C3965 C3966 1.349 . S
C3965 C3967 1.327 . S
C3965 H3988 0.950 . S
C3966 C3965 1.349 . S
C3966 C3978 1.349 . S
C3967 C3965 1.327 . S
C3967 C3983 1.429 . S
C3967 H3989 0.950 . S
C3968 H3964 0.949 . S
C3968 C3976 1.574 . S
C3968 C3984 1.368 . S
H3969 C3977 0.950 . S
H3970 C3975 0.950 . S
H3971 C3976 0.949 . S
H3972 C3978 0.950 . S
H3973 C3979 0.950 . S
H3974 C3980 0.949 . S
C3975 H3970 0.950 . S
C3975 C3977 1.327 . S
C3975 C3981 1.429 . S
C3976 C3968 1.574 . S
C3976 H3971 0.949 . S
C3976 C3982 1.368 . S
C3977 C3961 1.349 . S
C3977 H3969 0.950 . S
C3977 C3975 1.327 . S
C3978 C3966 1.349 . S
C3978 H3972 0.950 . S
C3978 C3979 1.327 . S
C3979 H3973 0.950 . S
C3979 C3978 1.327 . S
C3979 C3983 1.429 . S
C3980 C3963 1.574 . S
C3980 H3974 0.949 . S
C3980 C3984 1.368 . S
C3981 C3962 1.429 . S
C3981 C3975 1.429 . S
C3981 C3982 1.523 . S
C3982 C3963 1.368 . S
C3982 C3976 1.368 . S
C3982 C3981 1.523 . S
C3983 C3967 1.429 . S
C3983 C3979 1.429 . S
C3983 C3984 1.523 . S
C3984 C3968 1.368 . S
C3984 C3980 1.368 . S
C3984 C3983 1.523 . S
H3985 C3960 0.950 . S
H3986 C3962 0.950 . S
H3987 C3963 0.949 . S
H3988 C3965 0.950 . S
H3989 C3967 0.950 . S
C3990 C3991 1.349 . S
C3990 C3992 1.327 . S
C3990 H4015 0.950 . S
C3991 C3990 1.349 . S
C3991 C4007 1.349 . S
C3992 C3990 1.327 . S
C3992 C4011 1.429 . S
C3992 H4016 0.950 . S
C3993 C4010 1.574 . S
C3993 C4012 1.368 . S
C3993 H4017 0.949 . S
H3994 C3998 0.949 . S
C3995 C3996 1.349 . S
C3995 C3997 1.327 . S
C3995 H4018 0.950 . S
C3996 C3995 1.349 . S
C3996 C4008 1.349 . S
C3997 C3995 1.327 . S
C3997 C4013 1.429 . S
C3997 H4019 0.950 . S
C3998 H3994 0.949 . S
C3998 C4006 1.574 . S
C3998 C4014 1.368 . S
H3999 C4007 0.950 . S
H4000 C4005 0.950 . S
H4001 C4006 0.949 . S
H4002 C4008 0.950 . S
H4003 C4009 0.950 . S
H4004 C4010 0.949 . S
C4005 H4000 0.950 . S
C4005 C4007 1.327 . S
C4005 C4011 1.429 . S
C4006 C3998 1.574 . S
C4006 H4001 0.949 . S
C4006 C4012 1.368 . S
C4007 C3991 1.349 . S
C4007 H3999 0.950 . S
C4007 C4005 1.327 . S
C4008 C3996 1.349 . S
C4008 H4002 0.950 . S
C4008 C4009 1.327 . S
C4009 H4003 0.950 . S
C4009 C4008 1.327 . S
C4009 C4013 1.429 . S
C4010 C3993 1.574 . S
C4010 H4004 0.949 . S
C4010 C4014 1.368 . S
C4011 C3992 1.429 . S
C4011 C4005 1.429 . S
C4011 C4012 1.523 . S
C4012 C3993 1.368 . S
C4012 C4006 1.368 . S
C4012 C4011 1.523 . S
C4013 C3997 1.429 . S
C4013 C4009 1.429 . S
C4013 C4014 1.523 . S
C4014 C3998 1.368 . S
C4014 C4010 1.368 . S
C4014 C4013 1.523 . S
H4015 C3990 0.950 . S
H4016 C3992 0.950 . S
H4017 C3993 0.949 . S
H4018 C3995 0.950 . S
H4019 C3997 0.950 . S
C4020 C4021 1.349 . S
C4020 C4022 1.327 . S
C4020 H4045 0.950 . S
C4021 C4020 1.349 . S
C4021 C4037 1.349 . S
C4022 C4020 1.327 . S
C4022 C4041 1.429 . S
C4022 H4046 0.950 . S
C4023 C4040 1.574 . S
C4023 C4042 1.368 . S
C4023 H4047 0.949 . S
H4024 C4028 0.949 . S
C4025 C4026 1.349 . S
C4025 C4027 1.327 . S
C4025 H4048 0.950 . S
C4026 C4025 1.349 . S
C4026 C4038 1.349 . S
C4027 C4025 1.327 . S
C4027 C4043 1.429 . S
C4027 H4049 0.950 . S
C4028 H4024 0.949 . S
C4028 C4036 1.574 . S
C4028 C4044 1.368 . S
H4029 C4037 0.950 . S
H4030 C4035 0.950 . S
H4031 C4036 0.949 . S
H4032 C4038 0.950 . S
H4033 C4039 0.950 . S
H4034 C4040 0.949 . S
C4035 H4030 0.950 . S
C4035 C4037 1.327 . S
C4035 C4041 1.429 . S
C4036 C4028 1.574 . S
C4036 H4031 0.949 . S
C4036 C4042 1.368 . S
C4037 C4021 1.349 . S
C4037 H4029 0.950 . S
C4037 C4035 1.327 . S
C4038 C4026 1.349 . S
C4038 H4032 0.950 . S
C4038 C4039 1.327 . S
C4039 H4033 0.950 . S
C4039 C4038 1.327 . S
C4039 C4043 1.429 . S
C4040 C4023 1.574 . S
C4040 H4034 0.949 . S
C4040 C4044 1.368 . S
C4041 C4022 1.429 . S
C4041 C4035 1.429 . S
C4041 C4042 1.523 . S
C4042 C4023 1.368 . S
C4042 C4036 1.368 . S
C4042 C4041 1.523 . S
C4043 C4027 1.429 . S
C4043 C4039 1.429 . S
C4043 C4044 1.523 . S
C4044 C4028 1.368 . S
C4044 C4040 1.368 . S
C4044 C4043 1.523 . S
H4045 C4020 0.950 . S
H4046 C4022 0.950 . S
H4047 C4023 0.949 . S
H4048 C4025 0.950 . S
H4049 C4027 0.950 . S
C4050 C4051 1.349 . S
C4050 C4052 1.327 . S
C4050 H4075 0.950 . S
C4051 C4050 1.349 . S
C4051 C4067 1.349 . S
C4052 C4050 1.327 . S
C4052 C4071 1.429 . S
C4052 H4076 0.950 . S
C4053 C4070 1.574 . S
C4053 C4072 1.368 . S
C4053 H4077 0.949 . S
H4054 C4058 0.949 . S
C4055 C4056 1.349 . S
C4055 C4057 1.327 . S
C4055 H4078 0.950 . S
C4056 C4055 1.349 . S
C4056 C4068 1.349 . S
C4057 C4055 1.327 . S
C4057 C4073 1.429 . S
C4057 H4079 0.950 . S
C4058 H4054 0.949 . S
C4058 C4066 1.574 . S
C4058 C4074 1.368 . S
H4059 C4067 0.950 . S
H4060 C4065 0.950 . S
H4061 C4066 0.949 . S
H4062 C4068 0.950 . S
H4063 C4069 0.950 . S
H4064 C4070 0.949 . S
C4065 H4060 0.950 . S
C4065 C4067 1.327 . S
C4065 C4071 1.429 . S
C4066 C4058 1.574 . S
C4066 H4061 0.949 . S
C4066 C4072 1.368 . S
C4067 C4051 1.349 . S
C4067 H4059 0.950 . S
C4067 C4065 1.327 . S
C4068 C4056 1.349 . S
C4068 H4062 0.950 . S
C4068 C4069 1.327 . S
C4069 H4063 0.950 . S
C4069 C4068 1.327 . S
C4069 C4073 1.429 . S
C4070 C4053 1.574 . S
C4070 H4064 0.949 . S
C4070 C4074 1.368 . S
C4071 C4052 1.429 . S
C4071 C4065 1.429 . S
C4071 C4072 1.523 . S
C4072 C4053 1.368 . S
C4072 C4066 1.368 . S
C4072 C4071 1.523 . S
C4073 C4057 1.429 . S
C4073 C4069 1.429 . S
C4073 C4074 1.523 . S
C4074 C4058 1.368 . S
C4074 C4070 1.368 . S
C4074 C4073 1.523 . S
H4075 C4050 0.950 . S
H4076 C4052 0.950 . S
H4077 C4053 0.949 . S
H4078 C4055 0.950 . S
H4079 C4057 0.950 . S
C4080 C4081 1.349 . S
C4080 C4082 1.327 . S
C4080 H4105 0.950 . S
C4081 C4080 1.349 . S
C4081 C4097 1.349 . S
C4082 C4080 1.327 . S
C4082 C4101 1.429 . S
C4082 H4106 0.950 . S
C4083 C4100 1.574 . S
C4083 C4102 1.368 . S
C4083 H4107 0.949 . S
H4084 C4088 0.949 . S
C4085 C4086 1.349 . S
C4085 C4087 1.327 . S
C4085 H4108 0.950 . S
C4086 C4085 1.349 . S
C4086 C4098 1.349 . S
C4087 C4085 1.327 . S
C4087 C4103 1.429 . S
C4087 H4109 0.950 . S
C4088 H4084 0.949 . S
C4088 C4096 1.574 . S
C4088 C4104 1.368 . S
H4089 C4097 0.950 . S
H4090 C4095 0.950 . S
H4091 C4096 0.949 . S
H4092 C4098 0.950 . S
H4093 C4099 0.950 . S
H4094 C4100 0.949 . S
C4095 H4090 0.950 . S
C4095 C4097 1.327 . S
C4095 C4101 1.429 . S
C4096 C4088 1.574 . S
C4096 H4091 0.949 . S
C4096 C4102 1.368 . S
C4097 C4081 1.349 . S
C4097 H4089 0.950 . S
C4097 C4095 1.327 . S
C4098 C4086 1.349 . S
C4098 H4092 0.950 . S
C4098 C4099 1.327 . S
C4099 H4093 0.950 . S
C4099 C4098 1.327 . S
C4099 C4103 1.429 . S
C4100 C4083 1.574 . S
C4100 H4094 0.949 . S
C4100 C4104 1.368 . S
C4101 C4082 1.429 . S
C4101 C4095 1.429 . S
C4101 C4102 1.523 . S
C4102 C4083 1.368 . S
C4102 C4096 1.368 . S
C4102 C4101 1.523 . S
C4103 C4087 1.429 . S
C4103 C4099 1.429 . S
C4103 C4104 1.523 . S
C4104 C4088 1.368 . S
C4104 C4100 1.368 . S
C4104 C4103 1.523 . S
H4105 C4080 0.950 . S
H4106 C4082 0.950 . S
H4107 C4083 0.949 . S
H4108 C4085 0.950 . S
H4109 C4087 0.950 . S
C4110 C4111 1.349 . S
C4110 C4112 1.327 . S
C4110 H4135 0.950 . S
C4111 C4110 1.349 . S
C4111 C4127 1.349 . S
C4112 C4110 1.327 . S
C4112 C4131 1.429 . S
C4112 H4136 0.950 . S
C4113 C4130 1.574 . S
C4113 C4132 1.368 . S
C4113 H4137 0.949 . S
H4114 C4118 0.949 . S
C4115 C4116 1.349 . S
C4115 C4117 1.327 . S
C4115 H4138 0.950 . S
C4116 C4115 1.349 . S
C4116 C4128 1.349 . S
C4117 C4115 1.327 . S
C4117 C4133 1.429 . S
C4117 H4139 0.950 . S
C4118 H4114 0.949 . S
C4118 C4126 1.574 . S
C4118 C4134 1.368 . S
H4119 C4127 0.950 . S
H4120 C4125 0.950 . S
H4121 C4126 0.949 . S
H4122 C4128 0.950 . S
H4123 C4129 0.950 . S
H4124 C4130 0.949 . S
C4125 H4120 0.950 . S
C4125 C4127 1.327 . S
C4125 C4131 1.429 . S
C4126 C4118 1.574 . S
C4126 H4121 0.949 . S
C4126 C4132 1.368 . S
C4127 C4111 1.349 . S
C4127 H4119 0.950 . S
C4127 C4125 1.327 . S
C4128 C4116 1.349 . S
C4128 H4122 0.950 . S
C4128 C4129 1.327 . S
C4129 H4123 0.950 . S
C4129 C4128 1.327 . S
C4129 C4133 1.429 . S
C4130 C4113 1.574 . S
C4130 H4124 0.949 . S
C4130 C4134 1.368 . S
C4131 C4112 1.429 . S
C4131 C4125 1.429 . S
C4131 C4132 1.523 . S
C4132 C4113 1.368 . S
C4132 C4126 1.368 . S
C4132 C4131 1.523 . S
C4133 C4117 1.429 . S
C4133 C4129 1.429 . S
C4133 C4134 1.523 . S
C4134 C4118 1.368 . S
C4134 C4130 1.368 . S
C4134 C4133 1.523 . S
H4135 C4110 0.950 . S
H4136 C4112 0.950 . S
H4137 C4113 0.949 . S
H4138 C4115 0.950 . S
H4139 C4117 0.950 . S
C4140 C4141 1.349 . S
C4140 C4142 1.327 . S
C4140 H4165 0.950 . S
C4141 C4140 1.349 . S
C4141 C4157 1.349 . S
C4142 C4140 1.327 . S
C4142 C4161 1.429 . S
C4142 H4166 0.950 . S
C4143 C4160 1.574 . S
C4143 C4162 1.368 . S
C4143 H4167 0.949 . S
H4144 C4148 0.949 . S
C4145 C4146 1.349 . S
C4145 C4147 1.327 . S
C4145 H4168 0.950 . S
C4146 C4145 1.349 . S
C4146 C4158 1.349 . S
C4147 C4145 1.327 . S
C4147 C4163 1.429 . S
C4147 H4169 0.950 . S
C4148 H4144 0.949 . S
C4148 C4156 1.574 . S
C4148 C4164 1.368 . S
H4149 C4157 0.950 . S
H4150 C4155 0.950 . S
H4151 C4156 0.949 . S
H4152 C4158 0.950 . S
H4153 C4159 0.950 . S
H4154 C4160 0.949 . S
C4155 H4150 0.950 . S
C4155 C4157 1.327 . S
C4155 C4161 1.429 . S
C4156 C4148 1.574 . S
C4156 H4151 0.949 . S
C4156 C4162 1.368 . S
C4157 C4141 1.349 . S
C4157 H4149 0.950 . S
C4157 C4155 1.327 . S
C4158 C4146 1.349 . S
C4158 H4152 0.950 . S
C4158 C4159 1.327 . S
C4159 H4153 0.950 . S
C4159 C4158 1.327 . S
C4159 C4163 1.429 . S
C4160 C4143 1.574 . S
C4160 H4154 0.949 . S
C4160 C4164 1.368 . S
C4161 C4142 1.429 . S
C4161 C4155 1.429 . S
C4161 C4162 1.523 . S
C4162 C4143 1.368 . S
C4162 C4156 1.368 . S
C4162 C4161 1.523 . S
C4163 C4147 1.429 . S
C4163 C4159 1.429 . S
C4163 C4164 1.523 . S
C4164 C4148 1.368 . S
C4164 C4160 1.368 . S
C4164 C4163 1.523 . S
H4165 C4140 0.950 . S
H4166 C4142 0.950 . S
H4167 C4143 0.949 . S
H4168 C4145 0.950 . S
H4169 C4147 0.950 . S
C4170 C4171 1.349 . S
C4170 C4172 1.327 . S
C4170 H4195 0.950 . S
C4171 C4170 1.349 . S
C4171 C4187 1.349 . S
C4172 C4170 1.327 . S
C4172 C4191 1.429 . S
C4172 H4196 0.950 . S
C4173 C4190 1.574 . S
C4173 C4192 1.368 . S
C4173 H4197 0.949 . S
H4174 C4178 0.949 . S
C4175 C4176 1.349 . S
C4175 C4177 1.327 . S
C4175 H4198 0.950 . S
C4176 C4175 1.349 . S
C4176 C4188 1.349 . S
C4177 C4175 1.327 . S
C4177 C4193 1.429 . S
C4177 H4199 0.950 . S
C4178 H4174 0.949 . S
C4178 C4186 1.574 . S
C4178 C4194 1.368 . S
H4179 C4187 0.950 . S
H4180 C4185 0.950 . S
H4181 C4186 0.949 . S
H4182 C4188 0.950 . S
H4183 C4189 0.950 . S
H4184 C4190 0.949 . S
C4185 H4180 0.950 . S
C4185 C4187 1.327 . S
C4185 C4191 1.429 . S
C4186 C4178 1.574 . S
C4186 H4181 0.949 . S
C4186 C4192 1.368 . S
C4187 C4171 1.349 . S
C4187 H4179 0.950 . S
C4187 C4185 1.327 . S
C4188 C4176 1.349 . S
C4188 H4182 0.950 . S
C4188 C4189 1.327 . S
C4189 H4183 0.950 . S
C4189 C4188 1.327 . S
C4189 C4193 1.429 . S
C4190 C4173 1.574 . S
C4190 H4184 0.949 . S
C4190 C4194 1.368 . S
C4191 C4172 1.429 . S
C4191 C4185 1.429 . S
C4191 C4192 1.523 . S
C4192 C4173 1.368 . S
C4192 C4186 1.368 . S
C4192 C4191 1.523 . S
C4193 C4177 1.429 . S
C4193 C4189 1.429 . S
C4193 C4194 1.523 . S
C4194 C4178 1.368 . S
C4194 C4190 1.368 . S
C4194 C4193 1.523 . S
H4195 C4170 0.950 . S
H4196 C4172 0.950 . S
H4197 C4173 0.949 . S
H4198 C4175 0.950 . S
H4199 C4177 0.950 . S
C4200 C4201 1.349 . S
C4200 C4202 1.327 . S
C4200 H4225 0.950 . S
C4201 C4200 1.349 . S
C4201 C4217 1.349 . S
C4202 C4200 1.327 . S
C4202 C4221 1.429 . S
C4202 H4226 0.950 . S
C4203 C4220 1.574 . S
C4203 C4222 1.368 . S
C4203 H4227 0.949 . S
H4204 C4208 0.949 . S
C4205 C4206 1.349 . S
C4205 C4207 1.327 . S
C4205 H4228 0.950 . S
C4206 C4205 1.349 . S
C4206 C4218 1.349 . S
C4207 C4205 1.327 . S
C4207 C4223 1.429 . S
C4207 H4229 0.950 . S
C4208 H4204 0.949 . S
C4208 C4216 1.574 . S
C4208 C4224 1.368 . S
H4209 C4217 0.950 . S
H4210 C4215 0.950 . S
H4211 C4216 0.949 . S
H4212 C4218 0.950 . S
H4213 C4219 0.950 . S
H4214 C4220 0.949 . S
C4215 H4210 0.950 . S
C4215 C4217 1.327 . S
C4215 C4221 1.429 . S
C4216 C4208 1.574 . S
C4216 H4211 0.949 . S
C4216 C4222 1.368 . S
C4217 C4201 1.349 . S
C4217 H4209 0.950 . S
C4217 C4215 1.327 . S
C4218 C4206 1.349 . S
C4218 H4212 0.950 . S
C4218 C4219 1.327 . S
C4219 H4213 0.950 . S
C4219 C4218 1.327 . S
C4219 C4223 1.429 . S
C4220 C4203 1.574 . S
C4220 H4214 0.949 . S
C4220 C4224 1.368 . S
C4221 C4202 1.429 . S
C4221 C4215 1.429 . S
C4221 C4222 1.523 . S
C4222 C4203 1.368 . S
C4222 C4216 1.368 . S
C4222 C4221 1.523 . S
C4223 C4207 1.429 . S
C4223 C4219 1.429 . S
C4223 C4224 1.523 . S
C4224 C4208 1.368 . S
C4224 C4220 1.368 . S
C4224 C4223 1.523 . S
H4225 C4200 0.950 . S
H4226 C4202 0.950 . S
H4227 C4203 0.949 . S
H4228 C4205 0.950 . S
H4229 C4207 0.950 . S
C4230 C4231 1.349 . S
C4230 C4232 1.327 . S
C4230 H4255 0.950 . S
C4231 C4230 1.349 . S
C4231 C4247 1.349 . S
C4232 C4230 1.327 . S
C4232 C4251 1.429 . S
C4232 H4256 0.950 . S
C4233 C4250 1.574 . S
C4233 C4252 1.368 . S
C4233 H4257 0.949 . S
H4234 C4238 0.949 . S
C4235 C4236 1.349 . S
C4235 C4237 1.327 . S
C4235 H4258 0.950 . S
C4236 C4235 1.349 . S
C4236 C4248 1.349 . S
C4237 C4235 1.327 . S
C4237 C4253 1.429 . S
C4237 H4259 0.950 . S
C4238 H4234 0.949 . S
C4238 C4246 1.574 . S
C4238 C4254 1.368 . S
H4239 C4247 0.950 . S
H4240 C4245 0.950 . S
H4241 C4246 0.949 . S
H4242 C4248 0.950 . S
H4243 C4249 0.950 . S
H4244 C4250 0.949 . S
C4245 H4240 0.950 . S
C4245 C4247 1.327 . S
C4245 C4251 1.429 . S
C4246 C4238 1.574 . S
C4246 H4241 0.949 . S
C4246 C4252 1.368 . S
C4247 C4231 1.349 . S
C4247 H4239 0.950 . S
C4247 C4245 1.327 . S
C4248 C4236 1.349 . S
C4248 H4242 0.950 . S
C4248 C4249 1.327 . S
C4249 H4243 0.950 . S
C4249 C4248 1.327 . S
C4249 C4253 1.429 . S
C4250 C4233 1.574 . S
C4250 H4244 0.949 . S
C4250 C4254 1.368 . S
C4251 C4232 1.429 . S
C4251 C4245 1.429 . S
C4251 C4252 1.523 . S
C4252 C4233 1.368 . S
C4252 C4246 1.368 . S
C4252 C4251 1.523 . S
C4253 C4237 1.429 . S
C4253 C4249 1.429 . S
C4253 C4254 1.523 . S
C4254 C4238 1.368 . S
C4254 C4250 1.368 . S
C4254 C4253 1.523 . S
H4255 C4230 0.950 . S
H4256 C4232 0.950 . S
H4257 C4233 0.949 . S
H4258 C4235 0.950 . S
H4259 C4237 0.950 . S
C4260 C4261 1.349 . S
C4260 C4262 1.327 . S
C4260 H4285 0.950 . S
C4261 C4260 1.349 . S
C4261 C4277 1.349 . S
C4262 C4260 1.327 . S
C4262 C4281 1.429 . S
C4262 H4286 0.950 . S
C4263 C4280 1.574 . S
C4263 C4282 1.368 . S
C4263 H4287 0.949 . S
H4264 C4268 0.949 . S
C4265 C4266 1.349 . S
C4265 C4267 1.327 . S
C4265 H4288 0.950 . S
C4266 C4265 1.349 . S
C4266 C4278 1.349 . S
C4267 C4265 1.327 . S
C4267 C4283 1.429 . S
C4267 H4289 0.950 . S
C4268 H4264 0.949 . S
C4268 C4276 1.574 . S
C4268 C4284 1.368 . S
H4269 C4277 0.950 . S
H4270 C4275 0.950 . S
H4271 C4276 0.949 . S
H4272 C4278 0.950 . S
H4273 C4279 0.950 . S
H4274 C4280 0.949 . S
C4275 H4270 0.950 . S
C4275 C4277 1.327 . S
C4275 C4281 1.429 . S
C4276 C4268 1.574 . S
C4276 H4271 0.949 . S
C4276 C4282 1.368 . S
C4277 C4261 1.349 . S
C4277 H4269 0.950 . S
C4277 C4275 1.327 . S
C4278 C4266 1.349 . S
C4278 H4272 0.950 . S
C4278 C4279 1.327 . S
C4279 H4273 0.950 . S
C4279 C4278 1.327 . S
C4279 C4283 1.429 . S
C4280 C4263 1.574 . S
C4280 H4274 0.949 . S
C4280 C4284 1.368 . S
C4281 C4262 1.429 . S
C4281 C4275 1.429 . S
C4281 C4282 1.523 . S
C4282 C4263 1.368 . S
C4282 C4276 1.368 . S
C4282 C4281 1.523 . S
C4283 C4267 1.429 . S
C4283 C4279 1.429 . S
C4283 C4284 1.523 . S
C4284 C4268 1.368 . S
C4284 C4280 1.368 . S
C4284 C4283 1.523 . S
H4285 C4260 0.950 . S
H4286 C4262 0.950 . S
H4287 C4263 0.949 . S
H4288 C4265 0.950 . S
H4289 C4267 0.950 . S
C4290 C4291 1.349 . S
C4290 C4292 1.327 . S
C4290 H4315 0.950 . S
C4291 C4290 1.349 . S
C4291 C4307 1.349 . S
C4292 C4290 1.327 . S
C4292 C4311 1.429 . S
C4292 H4316 0.950 . S
C4293 C4310 1.574 . S
C4293 C4312 1.368 . S
C4293 H4317 0.949 . S
H4294 C4298 0.949 . S
C4295 C4296 1.349 . S
C4295 C4297 1.327 . S
C4295 H4318 0.950 . S
C4296 C4295 1.349 . S
C4296 C4308 1.349 . S
C4297 C4295 1.327 . S
C4297 C4313 1.429 . S
C4297 H4319 0.950 . S
C4298 H4294 0.949 . S
C4298 C4306 1.574 . S
C4298 C4314 1.368 . S
H4299 C4307 0.950 . S
H4300 C4305 0.950 . S
H4301 C4306 0.949 . S
H4302 C4308 0.950 . S
H4303 C4309 0.950 . S
H4304 C4310 0.949 . S
C4305 H4300 0.950 . S
C4305 C4307 1.327 . S
C4305 C4311 1.429 . S
C4306 C4298 1.574 . S
C4306 H4301 0.949 . S
C4306 C4312 1.368 . S
C4307 C4291 1.349 . S
C4307 H4299 0.950 . S
C4307 C4305 1.327 . S
C4308 C4296 1.349 . S
C4308 H4302 0.950 . S
C4308 C4309 1.327 . S
C4309 H4303 0.950 . S
C4309 C4308 1.327 . S
C4309 C4313 1.429 . S
C4310 C4293 1.574 . S
C4310 H4304 0.949 . S
C4310 C4314 1.368 . S
C4311 C4292 1.429 . S
C4311 C4305 1.429 . S
C4311 C4312 1.523 . S
C4312 C4293 1.368 . S
C4312 C4306 1.368 . S
C4312 C4311 1.523 . S
C4313 C4297 1.429 . S
C4313 C4309 1.429 . S
C4313 C4314 1.523 . S
C4314 C4298 1.368 . S
C4314 C4310 1.368 . S
C4314 C4313 1.523 . S
H4315 C4290 0.950 . S
H4316 C4292 0.950 . S
H4317 C4293 0.949 . S
H4318 C4295 0.950 . S
H4319 C4297 0.950 . S
C4320 C4321 1.349 . S
C4320 C4322 1.327 . S
C4320 H4345 0.950 . S
C4321 C4320 1.349 . S
C4321 C4337 1.349 . S
C4322 C4320 1.327 . S
C4322 C4341 1.429 . S
C4322 H4346 0.950 . S
C4323 C4340 1.574 . S
C4323 C4342 1.368 . S
C4323 H4347 0.949 . S
H4324 C4328 0.949 . S
C4325 C4326 1.349 . S
C4325 C4327 1.327 . S
C4325 H4348 0.950 . S
C4326 C4325 1.349 . S
C4326 C4338 1.349 . S
C4327 C4325 1.327 . S
C4327 C4343 1.429 . S
C4327 H4349 0.950 . S
C4328 H4324 0.949 . S
C4328 C4336 1.574 . S
C4328 C4344 1.368 . S
H4329 C4337 0.950 . S
H4330 C4335 0.950 . S
H4331 C4336 0.949 . S
H4332 C4338 0.950 . S
H4333 C4339 0.950 . S
H4334 C4340 0.949 . S
C4335 H4330 0.950 . S
C4335 C4337 1.327 . S
C4335 C4341 1.429 . S
C4336 C4328 1.574 . S
C4336 H4331 0.949 . S
C4336 C4342 1.368 . S
C4337 C4321 1.349 . S
C4337 H4329 0.950 . S
C4337 C4335 1.327 . S
C4338 C4326 1.349 . S
C4338 H4332 0.950 . S
C4338 C4339 1.327 . S
C4339 H4333 0.950 . S
C4339 C4338 1.327 . S
C4339 C4343 1.429 . S
C4340 C4323 1.574 . S
C4340 H4334 0.949 . S
C4340 C4344 1.368 . S
C4341 C4322 1.429 . S
C4341 C4335 1.429 . S
C4341 C4342 1.523 . S
C4342 C4323 1.368 . S
C4342 C4336 1.368 . S
C4342 C4341 1.523 . S
C4343 C4327 1.429 . S
C4343 C4339 1.429 . S
C4343 C4344 1.523 . S
C4344 C4328 1.368 . S
C4344 C4340 1.368 . S
C4344 C4343 1.523 . S
H4345 C4320 0.950 . S
H4346 C4322 0.950 . S
H4347 C4323 0.949 . S
H4348 C4325 0.950 . S
H4349 C4327 0.950 . S
C4350 C4351 1.349 . S
C4350 C4352 1.327 . S
C4350 H4375 0.950 . S
C4351 C4350 1.349 . S
C4351 C4367 1.349 . S
C4352 C4350 1.327 . S
C4352 C4371 1.429 . S
C4352 H4376 0.950 . S
C4353 C4370 1.574 . S
C4353 C4372 1.368 . S
C4353 H4377 0.949 . S
H4354 C4358 0.949 . S
C4355 C4356 1.349 . S
C4355 C4357 1.327 . S
C4355 H4378 0.950 . S
C4356 C4355 1.349 . S
C4356 C4368 1.349 . S
C4357 C4355 1.327 . S
C4357 C4373 1.429 . S
C4357 H4379 0.950 . S
C4358 H4354 0.949 . S
C4358 C4366 1.574 . S
C4358 C4374 1.368 . S
H4359 C4367 0.950 . S
H4360 C4365 0.950 . S
H4361 C4366 0.949 . S
H4362 C4368 0.950 . S
H4363 C4369 0.950 . S
H4364 C4370 0.949 . S
C4365 H4360 0.950 . S
C4365 C4367 1.327 . S
C4365 C4371 1.429 . S
C4366 C4358 1.574 . S
C4366 H4361 0.949 . S
C4366 C4372 1.368 . S
C4367 C4351 1.349 . S
C4367 H4359 0.950 . S
C4367 C4365 1.327 . S
C4368 C4356 1.349 . S
C4368 H4362 0.950 . S
C4368 C4369 1.327 . S
C4369 H4363 0.950 . S
C4369 C4368 1.327 . S
C4369 C4373 1.429 . S
C4370 C4353 1.574 . S
C4370 H4364 0.949 . S
C4370 C4374 1.368 . S
C4371 C4352 1.429 . S
C4371 C4365 1.429 . S
C4371 C4372 1.523 . S
C4372 C4353 1.368 . S
C4372 C4366 1.368 . S
C4372 C4371 1.523 . S
C4373 C4357 1.429 . S
C4373 C4369 1.429 . S
C4373 C4374 1.523 . S
C4374 C4358 1.368 . S
C4374 C4370 1.368 . S
C4374 C4373 1.523 . S
H4375 C4350 0.950 . S
H4376 C4352 0.950 . S
H4377 C4353 0.949 . S
H4378 C4355 0.950 . S
H4379 C4357 0.950 . S
C4380 C4381 1.349 . S
C4380 C4382 1.327 . S
C4380 H4405 0.950 . S
C4381 C4380 1.349 . S
C4381 C4397 1.349 . S
C4382 C4380 1.327 . S
C4382 C4401 1.429 . S
C4382 H4406 0.950 . S
C4383 C4400 1.574 . S
C4383 C4402 1.368 . S
C4383 H4407 0.949 . S
H4384 C4388 0.949 . S
C4385 C4386 1.349 . S
C4385 C4387 1.327 . S
C4385 H4408 0.950 . S
C4386 C4385 1.349 . S
C4386 C4398 1.349 . S
C4387 C4385 1.327 . S
C4387 C4403 1.429 . S
C4387 H4409 0.950 . S
C4388 H4384 0.949 . S
C4388 C4396 1.574 . S
C4388 C4404 1.368 . S
H4389 C4397 0.950 . S
H4390 C4395 0.950 . S
H4391 C4396 0.949 . S
H4392 C4398 0.950 . S
H4393 C4399 0.950 . S
H4394 C4400 0.949 . S
C4395 H4390 0.950 . S
C4395 C4397 1.327 . S
C4395 C4401 1.429 . S
C4396 C4388 1.574 . S
C4396 H4391 0.949 . S
C4396 C4402 1.368 . S
C4397 C4381 1.349 . S
C4397 H4389 0.950 . S
C4397 C4395 1.327 . S
C4398 C4386 1.349 . S
C4398 H4392 0.950 . S
C4398 C4399 1.327 . S
C4399 H4393 0.950 . S
C4399 C4398 1.327 . S
C4399 C4403 1.429 . S
C4400 C4383 1.574 . S
C4400 H4394 0.949 . S
C4400 C4404 1.368 . S
C4401 C4382 1.429 . S
C4401 C4395 1.429 . S
C4401 C4402 1.523 . S
C4402 C4383 1.368 . S
C4402 C4396 1.368 . S
C4402 C4401 1.523 . S
C4403 C4387 1.429 . S
C4403 C4399 1.429 . S
C4403 C4404 1.523 . S
C4404 C4388 1.368 . S
C4404 C4400 1.368 . S
C4404 C4403 1.523 . S
H4405 C4380 0.950 . S
H4406 C4382 0.950 . S
H4407 C4383 0.949 . S
H4408 C4385 0.950 . S
H4409 C4387 0.950 . S
C4410 C4411 1.349 . S
C4410 C4412 1.327 . S
C4410 H4435 0.950 . S
C4411 C4410 1.349 . S
C4411 C4427 1.349 . S
C4412 C4410 1.327 . S
C4412 C4431 1.429 . S
C4412 H4436 0.950 . S
C4413 C4430 1.574 . S
C4413 C4432 1.368 . S
C4413 H4437 0.949 . S
H4414 C4418 0.949 . S
C4415 C4416 1.349 . S
C4415 C4417 1.327 . S
C4415 H4438 0.950 . S
C4416 C4415 1.349 . S
C4416 C4428 1.349 . S
C4417 C4415 1.327 . S
C4417 C4433 1.429 . S
C4417 H4439 0.950 . S
C4418 H4414 0.949 . S
C4418 C4426 1.574 . S
C4418 C4434 1.368 . S
H4419 C4427 0.950 . S
H4420 C4425 0.950 . S
H4421 C4426 0.949 . S
H4422 C4428 0.950 . S
H4423 C4429 0.950 . S
H4424 C4430 0.949 . S
C4425 H4420 0.950 . S
C4425 C4427 1.327 . S
C4425 C4431 1.429 . S
C4426 C4418 1.574 . S
C4426 H4421 0.949 . S
C4426 C4432 1.368 . S
C4427 C4411 1.349 . S
C4427 H4419 0.950 . S
C4427 C4425 1.327 . S
C4428 C4416 1.349 . S
C4428 H4422 0.950 . S
C4428 C4429 1.327 . S
C4429 H4423 0.950 . S
C4429 C4428 1.327 . S
C4429 C4433 1.429 . S
C4430 C4413 1.574 . S
C4430 H4424 0.949 . S
C4430 C4434 1.368 . S
C4431 C4412 1.429 . S
C4431 C4425 1.429 . S
C4431 C4432 1.523 . S
C4432 C4413 1.368 . S
C4432 C4426 1.368 . S
C4432 C4431 1.523 . S
C4433 C4417 1.429 . S
C4433 C4429 1.429 . S
C4433 C4434 1.523 . S
C4434 C4418 1.368 . S
C4434 C4430 1.368 . S
C4434 C4433 1.523 . S
H4435 C4410 0.950 . S
H4436 C4412 0.950 . S
H4437 C4413 0.949 . S
H4438 C4415 0.950 . S
H4439 C4417 0.950 . S
C4440 C4441 1.349 . S
C4440 C4442 1.327 . S
C4440 H4465 0.950 . S
C4441 C4440 1.349 . S
C4441 C4457 1.349 . S
C4442 C4440 1.327 . S
C4442 C4461 1.429 . S
C4442 H4466 0.950 . S
C4443 C4460 1.574 . S
C4443 C4462 1.368 . S
C4443 H4467 0.949 . S
H4444 C4448 0.949 . S
C4445 C4446 1.349 . S
C4445 C4447 1.327 . S
C4445 H4468 0.950 . S
C4446 C4445 1.349 . S
C4446 C4458 1.349 . S
C4447 C4445 1.327 . S
C4447 C4463 1.429 . S
C4447 H4469 0.950 . S
C4448 H4444 0.949 . S
C4448 C4456 1.574 . S
C4448 C4464 1.368 . S
H4449 C4457 0.950 . S
H4450 C4455 0.950 . S
H4451 C4456 0.949 . S
H4452 C4458 0.950 . S
H4453 C4459 0.950 . S
H4454 C4460 0.949 . S
C4455 H4450 0.950 . S
C4455 C4457 1.327 . S
C4455 C4461 1.429 . S
C4456 C4448 1.574 . S
C4456 H4451 0.949 . S
C4456 C4462 1.368 . S
C4457 C4441 1.349 . S
C4457 H4449 0.950 . S
C4457 C4455 1.327 . S
C4458 C4446 1.349 . S
C4458 H4452 0.950 . S
C4458 C4459 1.327 . S
C4459 H4453 0.950 . S
C4459 C4458 1.327 . S
C4459 C4463 1.429 . S
C4460 C4443 1.574 . S
C4460 H4454 0.949 . S
C4460 C4464 1.368 . S
C4461 C4442 1.429 . S
C4461 C4455 1.429 . S
C4461 C4462 1.523 . S
C4462 C4443 1.368 . S
C4462 C4456 1.368 . S
C4462 C4461 1.523 . S
C4463 C4447 1.429 . S
C4463 C4459 1.429 . S
C4463 C4464 1.523 . S
C4464 C4448 1.368 . S
C4464 C4460 1.368 . S
C4464 C4463 1.523 . S
H4465 C4440 0.950 . S
H4466 C4442 0.950 . S
H4467 C4443 0.949 . S
H4468 C4445 0.950 . S
H4469 C4447 0.950 . S
C4470 C4471 1.349 . S
C4470 C4472 1.327 . S
C4470 H4495 0.950 . S
C4471 C4470 1.349 . S
C4471 C4487 1.349 . S
C4472 C4470 1.327 . S
C4472 C4491 1.429 . S
C4472 H4496 0.950 . S
C4473 C4490 1.574 . S
C4473 C4492 1.368 . S
C4473 H4497 0.949 . S
H4474 C4478 0.949 . S
C4475 C4476 1.349 . S
C4475 C4477 1.327 . S
C4475 H4498 0.950 . S
C4476 C4475 1.349 . S
C4476 C4488 1.349 . S
C4477 C4475 1.327 . S
C4477 C4493 1.429 . S
C4477 H4499 0.950 . S
C4478 H4474 0.949 . S
C4478 C4486 1.574 . S
C4478 C4494 1.368 . S
H4479 C4487 0.950 . S
H4480 C4485 0.950 . S
H4481 C4486 0.949 . S
H4482 C4488 0.950 . S
H4483 C4489 0.950 . S
H4484 C4490 0.949 . S
C4485 H4480 0.950 . S
C4485 C4487 1.327 . S
C4485 C4491 1.429 . S
C4486 C4478 1.574 . S
C4486 H4481 0.949 . S
C4486 C4492 1.368 . S
C4487 C4471 1.349 . S
C4487 H4479 0.950 . S
C4487 C4485 1.327 . S
C4488 C4476 1.349 . S
C4488 H4482 0.950 . S
C4488 C4489 1.327 . S
C4489 H4483 0.950 . S
C4489 C4488 1.327 . S
C4489 C4493 1.429 . S
C4490 C4473 1.574 . S
C4490 H4484 0.949 . S
C4490 C4494 1.368 . S
C4491 C4472 1.429 . S
C4491 C4485 1.429 . S
C4491 C4492 1.523 . S
C4492 C4473 1.368 . S
C4492 C4486 1.368 . S
C4492 C4491 1.523 . S
C4493 C4477 1.429 . S
C4493 C4489 1.429 . S
C4493 C4494 1.523 . S
C4494 C4478 1.368 . S
C4494 C4490 1.368 . S
C4494 C4493 1.523 . S
H4495 C4470 0.950 . S
H4496 C4472 0.950 . S
H4497 C4473 0.949 . S
H4498 C4475 0.950 . S
H4499 C4477 0.950 . S
C4500 C4501 1.349 . S
C4500 C4502 1.327 . S
C4500 H4525 0.950 . S
C4501 C4500 1.349 . S
C4501 C4517 1.349 . S
C4502 C4500 1.327 . S
C4502 C4521 1.429 . S
C4502 H4526 0.950 . S
C4503 C4520 1.574 . S
C4503 C4522 1.368 . S
C4503 H4527 0.949 . S
H4504 C4508 0.949 . S
C4505 C4506 1.349 . S
C4505 C4507 1.327 . S
C4505 H4528 0.950 . S
C4506 C4505 1.349 . S
C4506 C4518 1.349 . S
C4507 C4505 1.327 . S
C4507 C4523 1.429 . S
C4507 H4529 0.950 . S
C4508 H4504 0.949 . S
C4508 C4516 1.574 . S
C4508 C4524 1.368 . S
H4509 C4517 0.950 . S
H4510 C4515 0.950 . S
H4511 C4516 0.949 . S
H4512 C4518 0.950 . S
H4513 C4519 0.950 . S
H4514 C4520 0.949 . S
C4515 H4510 0.950 . S
C4515 C4517 1.327 . S
C4515 C4521 1.429 . S
C4516 C4508 1.574 . S
C4516 H4511 0.949 . S
C4516 C4522 1.368 . S
C4517 C4501 1.349 . S
C4517 H4509 0.950 . S
C4517 C4515 1.327 . S
C4518 C4506 1.349 . S
C4518 H4512 0.950 . S
C4518 C4519 1.327 . S
C4519 H4513 0.950 . S
C4519 C4518 1.327 . S
C4519 C4523 1.429 . S
C4520 C4503 1.574 . S
C4520 H4514 0.949 . S
C4520 C4524 1.368 . S
C4521 C4502 1.429 . S
C4521 C4515 1.429 . S
C4521 C4522 1.523 . S
C4522 C4503 1.368 . S
C4522 C4516 1.368 . S
C4522 C4521 1.523 . S
C4523 C4507 1.429 . S
C4523 C4519 1.429 . S
C4523 C4524 1.523 . S
C4524 C4508 1.368 . S
C4524 C4520 1.368 . S
C4524 C4523 1.523 . S
H4525 C4500 0.950 . S
H4526 C4502 0.950 . S
H4527 C4503 0.949 . S
H4528 C4505 0.950 . S
H4529 C4507 0.950 . S
C4530 C4531 1.349 . S
C4530 C4532 1.327 . S
C4530 H4555 0.950 . S
C4531 C4530 1.349 . S
C4531 C4547 1.349 . S
C4532 C4530 1.327 . S
C4532 C4551 1.429 . S
C4532 H4556 0.950 . S
C4533 C4550 1.574 . S
C4533 C4552 1.368 . S
C4533 H4557 0.949 . S
H4534 C4538 0.949 . S
C4535 C4536 1.349 . S
C4535 C4537 1.327 . S
C4535 H4558 0.950 . S
C4536 C4535 1.349 . S
C4536 C4548 1.349 . S
C4537 C4535 1.327 . S
C4537 C4553 1.429 . S
C4537 H4559 0.950 . S
C4538 H4534 0.949 . S
C4538 C4546 1.574 . S
C4538 C4554 1.368 . S
H4539 C4547 0.950 . S
H4540 C4545 0.950 . S
H4541 C4546 0.949 . S
H4542 C4548 0.950 . S
H4543 C4549 0.950 . S
H4544 C4550 0.949 . S
C4545 H4540 0.950 . S
C4545 C4547 1.327 . S
C4545 C4551 1.429 . S
C4546 C4538 1.574 . S
C4546 H4541 0.949 . S
C4546 C4552 1.368 . S
C4547 C4531 1.349 . S
C4547 H4539 0.950 . S
C4547 C4545 1.327 . S
C4548 C4536 1.349 . S
C4548 H4542 0.950 . S
C4548 C4549 1.327 . S
C4549 H4543 0.950 . S
C4549 C4548 1.327 . S
C4549 C4553 1.429 . S
C4550 C4533 1.574 . S
C4550 H4544 0.949 . S
C4550 C4554 1.368 . S
C4551 C4532 1.429 . S
C4551 C4545 1.429 . S
C4551 C4552 1.523 . S
C4552 C4533 1.368 . S
C4552 C4546 1.368 . S
C4552 C4551 1.523 . S
C4553 C4537 1.429 . S
C4553 C4549 1.429 . S
C4553 C4554 1.523 . S
C4554 C4538 1.368 . S
C4554 C4550 1.368 . S
C4554 C4553 1.523 . S
H4555 C4530 0.950 . S
H4556 C4532 0.950 . S
H4557 C4533 0.949 . S
H4558 C4535 0.950 . S
H4559 C4537 0.950 . S
C4560 C4561 1.349 . S
C4560 C4562 1.327 . S
C4560 H4585 0.950 . S
C4561 C4560 1.349 . S
C4561 C4577 1.349 . S
C4562 C4560 1.327 . S
C4562 C4581 1.429 . S
C4562 H4586 0.950 . S
C4563 C4580 1.574 . S
C4563 C4582 1.368 . S
C4563 H4587 0.949 . S
H4564 C4568 0.949 . S
C4565 C4566 1.349 . S
C4565 C4567 1.327 . S
C4565 H4588 0.950 . S
C4566 C4565 1.349 . S
C4566 C4578 1.349 . S
C4567 C4565 1.327 . S
C4567 C4583 1.429 . S
C4567 H4589 0.950 . S
C4568 H4564 0.949 . S
C4568 C4576 1.574 . S
C4568 C4584 1.368 . S
H4569 C4577 0.950 . S
H4570 C4575 0.950 . S
H4571 C4576 0.949 . S
H4572 C4578 0.950 . S
H4573 C4579 0.950 . S
H4574 C4580 0.949 . S
C4575 H4570 0.950 . S
C4575 C4577 1.327 . S
C4575 C4581 1.429 . S
C4576 C4568 1.574 . S
C4576 H4571 0.949 . S
C4576 C4582 1.368 . S
C4577 C4561 1.349 . S
C4577 H4569 0.950 . S
C4577 C4575 1.327 . S
C4578 C4566 1.349 . S
C4578 H4572 0.950 . S
C4578 C4579 1.327 . S
C4579 H4573 0.950 . S
C4579 C4578 1.327 . S
C4579 C4583 1.429 . S
C4580 C4563 1.574 . S
C4580 H4574 0.949 . S
C4580 C4584 1.368 . S
C4581 C4562 1.429 . S
C4581 C4575 1.429 . S
C4581 C4582 1.523 . S
C4582 C4563 1.368 . S
C4582 C4576 1.368 . S
C4582 C4581 1.523 . S
C4583 C4567 1.429 . S
C4583 C4579 1.429 . S
C4583 C4584 1.523 . S
C4584 C4568 1.368 . S
C4584 C4580 1.368 . S
C4584 C4583 1.523 . S
H4585 C4560 0.950 . S
H4586 C4562 0.950 . S
H4587 C4563 0.949 . S
H4588 C4565 0.950 . S
H4589 C4567 0.950 . S
C4590 C4591 1.349 . S
C4590 C4592 1.327 . S
C4590 H4615 0.950 . S
C4591 C4590 1.349 . S
C4591 C4607 1.349 . S
C4592 C4590 1.327 . S
C4592 C4611 1.429 . S
C4592 H4616 0.950 . S
C4593 C4610 1.574 . S
C4593 C4612 1.368 . S
C4593 H4617 0.949 . S
H4594 C4598 0.949 . S
C4595 C4596 1.349 . S
C4595 C4597 1.327 . S
C4595 H4618 0.950 . S
C4596 C4595 1.349 . S
C4596 C4608 1.349 . S
C4597 C4595 1.327 . S
C4597 C4613 1.429 . S
C4597 H4619 0.950 . S
C4598 H4594 0.949 . S
C4598 C4606 1.574 . S
C4598 C4614 1.368 . S
H4599 C4607 0.950 . S
H4600 C4605 0.950 . S
H4601 C4606 0.949 . S
H4602 C4608 0.950 . S
H4603 C4609 0.950 . S
H4604 C4610 0.949 . S
C4605 H4600 0.950 . S
C4605 C4607 1.327 . S
C4605 C4611 1.429 . S
C4606 C4598 1.574 . S
C4606 H4601 0.949 . S
C4606 C4612 1.368 . S
C4607 C4591 1.349 . S
C4607 H4599 0.950 . S
C4607 C4605 1.327 . S
C4608 C4596 1.349 . S
C4608 H4602 0.950 . S
C4608 C4609 1.327 . S
C4609 H4603 0.950 . S
C4609 C4608 1.327 . S
C4609 C4613 1.429 . S
C4610 C4593 1.574 . S
C4610 H4604 0.949 . S
C4610 C4614 1.368 . S
C4611 C4592 1.429 . S
C4611 C4605 1.429 . S
C4611 C4612 1.523 . S
C4612 C4593 1.368 . S
C4612 C4606 1.368 . S
C4612 C4611 1.523 . S
C4613 C4597 1.429 . S
C4613 C4609 1.429 . S
C4613 C4614 1.523 . S
C4614 C4598 1.368 . S
C4614 C4610 1.368 . S
C4614 C4613 1.523 . S
H4615 C4590 0.950 . S
H4616 C4592 0.950 . S
H4617 C4593 0.949 . S
H4618 C4595 0.950 . S
H4619 C4597 0.950 . S
C4620 C4621 1.349 . S
C4620 C4622 1.327 . S
C4620 H4645 0.950 . S
C4621 C4620 1.349 . S
C4621 C4637 1.349 . S
C4622 C4620 1.327 . S
C4622 C4641 1.429 . S
C4622 H4646 0.950 . S
C4623 C4640 1.574 . S
C4623 C4642 1.368 . S
C4623 H4647 0.949 . S
H4624 C4628 0.949 . S
C4625 C4626 1.349 . S
C4625 C4627 1.327 . S
C4625 H4648 0.950 . S
C4626 C4625 1.349 . S
C4626 C4638 1.349 . S
C4627 C4625 1.327 . S
C4627 C4643 1.429 . S
C4627 H4649 0.950 . S
C4628 H4624 0.949 . S
C4628 C4636 1.574 . S
C4628 C4644 1.368 . S
H4629 C4637 0.950 . S
H4630 C4635 0.950 . S
H4631 C4636 0.949 . S
H4632 C4638 0.950 . S
H4633 C4639 0.950 . S
H4634 C4640 0.949 . S
C4635 H4630 0.950 . S
C4635 C4637 1.327 . S
C4635 C4641 1.429 . S
C4636 C4628 1.574 . S
C4636 H4631 0.949 . S
C4636 C4642 1.368 . S
C4637 C4621 1.349 . S
C4637 H4629 0.950 . S
C4637 C4635 1.327 . S
C4638 C4626 1.349 . S
C4638 H4632 0.950 . S
C4638 C4639 1.327 . S
C4639 H4633 0.950 . S
C4639 C4638 1.327 . S
C4639 C4643 1.429 . S
C4640 C4623 1.574 . S
C4640 H4634 0.949 . S
C4640 C4644 1.368 . S
C4641 C4622 1.429 . S
C4641 C4635 1.429 . S
C4641 C4642 1.523 . S
C4642 C4623 1.368 . S
C4642 C4636 1.368 . S
C4642 C4641 1.523 . S
C4643 C4627 1.429 . S
C4643 C4639 1.429 . S
C4643 C4644 1.523 . S
C4644 C4628 1.368 . S
C4644 C4640 1.368 . S
C4644 C4643 1.523 . S
H4645 C4620 0.950 . S
H4646 C4622 0.950 . S
H4647 C4623 0.949 . S
H4648 C4625 0.950 . S
H4649 C4627 0.950 . S
C4650 C4651 1.349 . S
C4650 C4652 1.327 . S
C4650 H4675 0.950 . S
C4651 C4650 1.349 . S
C4651 C4667 1.349 . S
C4652 C4650 1.327 . S
C4652 C4671 1.429 . S
C4652 H4676 0.950 . S
C4653 C4670 1.574 . S
C4653 C4672 1.368 . S
C4653 H4677 0.949 . S
H4654 C4658 0.949 . S
C4655 C4656 1.349 . S
C4655 C4657 1.327 . S
C4655 H4678 0.950 . S
C4656 C4655 1.349 . S
C4656 C4668 1.349 . S
C4657 C4655 1.327 . S
C4657 C4673 1.429 . S
C4657 H4679 0.950 . S
C4658 H4654 0.949 . S
C4658 C4666 1.574 . S
C4658 C4674 1.368 . S
H4659 C4667 0.950 . S
H4660 C4665 0.950 . S
H4661 C4666 0.949 . S
H4662 C4668 0.950 . S
H4663 C4669 0.950 . S
H4664 C4670 0.949 . S
C4665 H4660 0.950 . S
C4665 C4667 1.327 . S
C4665 C4671 1.429 . S
C4666 C4658 1.574 . S
C4666 H4661 0.949 . S
C4666 C4672 1.368 . S
C4667 C4651 1.349 . S
C4667 H4659 0.950 . S
C4667 C4665 1.327 . S
C4668 C4656 1.349 . S
C4668 H4662 0.950 . S
C4668 C4669 1.327 . S
C4669 H4663 0.950 . S
C4669 C4668 1.327 . S
C4669 C4673 1.429 . S
C4670 C4653 1.574 . S
C4670 H4664 0.949 . S
C4670 C4674 1.368 . S
C4671 C4652 1.429 . S
C4671 C4665 1.429 . S
C4671 C4672 1.523 . S
C4672 C4653 1.368 . S
C4672 C4666 1.368 . S
C4672 C4671 1.523 . S
C4673 C4657 1.429 . S
C4673 C4669 1.429 . S
C4673 C4674 1.523 . S
C4674 C4658 1.368 . S
C4674 C4670 1.368 . S
C4674 C4673 1.523 . S
H4675 C4650 0.950 . S
H4676 C4652 0.950 . S
H4677 C4653 0.949 . S
H4678 C4655 0.950 . S
H4679 C4657 0.950 . S
C4680 C4681 1.349 . S
C4680 C4682 1.327 . S
C4680 H4705 0.950 . S
C4681 C4680 1.349 . S
C4681 C4697 1.349 . S
C4682 C4680 1.327 . S
C4682 C4701 1.429 . S
C4682 H4706 0.950 . S
C4683 C4700 1.574 . S
C4683 C4702 1.368 . S
C4683 H4707 0.949 . S
H4684 C4688 0.949 . S
C4685 C4686 1.349 . S
C4685 C4687 1.327 . S
C4685 H4708 0.950 . S
C4686 C4685 1.349 . S
C4686 C4698 1.349 . S
C4687 C4685 1.327 . S
C4687 C4703 1.429 . S
C4687 H4709 0.950 . S
C4688 H4684 0.949 . S
C4688 C4696 1.574 . S
C4688 C4704 1.368 . S
H4689 C4697 0.950 . S
H4690 C4695 0.950 . S
H4691 C4696 0.949 . S
H4692 C4698 0.950 . S
H4693 C4699 0.950 . S
H4694 C4700 0.949 . S
C4695 H4690 0.950 . S
C4695 C4697 1.327 . S
C4695 C4701 1.429 . S
C4696 C4688 1.574 . S
C4696 H4691 0.949 . S
C4696 C4702 1.368 . S
C4697 C4681 1.349 . S
C4697 H4689 0.950 . S
C4697 C4695 1.327 . S
C4698 C4686 1.349 . S
C4698 H4692 0.950 . S
C4698 C4699 1.327 . S
C4699 H4693 0.950 . S
C4699 C4698 1.327 . S
C4699 C4703 1.429 . S
C4700 C4683 1.574 . S
C4700 H4694 0.949 . S
C4700 C4704 1.368 . S
C4701 C4682 1.429 . S
C4701 C4695 1.429 . S
C4701 C4702 1.523 . S
C4702 C4683 1.368 . S
C4702 C4696 1.368 . S
C4702 C4701 1.523 . S
C4703 C4687 1.429 . S
C4703 C4699 1.429 . S
C4703 C4704 1.523 . S
C4704 C4688 1.368 . S
C4704 C4700 1.368 . S
C4704 C4703 1.523 . S
H4705 C4680 0.950 . S
H4706 C4682 0.950 . S
H4707 C4683 0.949 . S
H4708 C4685 0.950 . S
H4709 C4687 0.950 . S
C4710 C4711 1.349 . S
C4710 C4712 1.327 . S
C4710 H4735 0.950 . S
C4711 C4710 1.349 . S
C4711 C4727 1.349 . S
C4712 C4710 1.327 . S
C4712 C4731 1.429 . S
C4712 H4736 0.950 . S
C4713 C4730 1.574 . S
C4713 C4732 1.368 . S
C4713 H4737 0.949 . S
H4714 C4718 0.949 . S
C4715 C4716 1.349 . S
C4715 C4717 1.327 . S
C4715 H4738 0.950 . S
C4716 C4715 1.349 . S
C4716 C4728 1.349 . S
C4717 C4715 1.327 . S
C4717 C4733 1.429 . S
C4717 H4739 0.950 . S
C4718 H4714 0.949 . S
C4718 C4726 1.574 . S
C4718 C4734 1.368 . S
H4719 C4727 0.950 . S
H4720 C4725 0.950 . S
H4721 C4726 0.949 . S
H4722 C4728 0.950 . S
H4723 C4729 0.950 . S
H4724 C4730 0.949 . S
C4725 H4720 0.950 . S
C4725 C4727 1.327 . S
C4725 C4731 1.429 . S
C4726 C4718 1.574 . S
C4726 H4721 0.949 . S
C4726 C4732 1.368 . S
C4727 C4711 1.349 . S
C4727 H4719 0.950 . S
C4727 C4725 1.327 . S
C4728 C4716 1.349 . S
C4728 H4722 0.950 . S
C4728 C4729 1.327 . S
C4729 H4723 0.950 . S
C4729 C4728 1.327 . S
C4729 C4733 1.429 . S
C4730 C4713 1.574 . S
C4730 H4724 0.949 . S
C4730 C4734 1.368 . S
C4731 C4712 1.429 . S
C4731 C4725 1.429 . S
C4731 C4732 1.523 . S
C4732 C4713 1.368 . S
C4732 C4726 1.368 . S
C4732 C4731 1.523 . S
C4733 C4717 1.429 . S
C4733 C4729 1.429 . S
C4733 C4734 1.523 . S
C4734 C4718 1.368 . S
C4734 C4730 1.368 . S
C4734 C4733 1.523 . S
H4735 C4710 0.950 . S
H4736 C4712 0.950 . S
H4737 C4713 0.949 . S
H4738 C4715 0.950 . S
H4739 C4717 0.950 . S
C4740 C4741 1.349 . S
C4740 C4742 1.327 . S
C4740 H4765 0.950 . S
C4741 C4740 1.349 . S
C4741 C4757 1.349 . S
C4742 C4740 1.327 . S
C4742 C4761 1.429 . S
C4742 H4766 0.950 . S
C4743 C4760 1.574 . S
C4743 C4762 1.368 . S
C4743 H4767 0.949 . S
H4744 C4748 0.949 . S
C4745 C4746 1.349 . S
C4745 C4747 1.327 . S
C4745 H4768 0.950 . S
C4746 C4745 1.349 . S
C4746 C4758 1.349 . S
C4747 C4745 1.327 . S
C4747 C4763 1.429 . S
C4747 H4769 0.950 . S
C4748 H4744 0.949 . S
C4748 C4756 1.574 . S
C4748 C4764 1.368 . S
H4749 C4757 0.950 . S
H4750 C4755 0.950 . S
H4751 C4756 0.949 . S
H4752 C4758 0.950 . S
H4753 C4759 0.950 . S
H4754 C4760 0.949 . S
C4755 H4750 0.950 . S
C4755 C4757 1.327 . S
C4755 C4761 1.429 . S
C4756 C4748 1.574 . S
C4756 H4751 0.949 . S
C4756 C4762 1.368 . S
C4757 C4741 1.349 . S
C4757 H4749 0.950 . S
C4757 C4755 1.327 . S
C4758 C4746 1.349 . S
C4758 H4752 0.950 . S
C4758 C4759 1.327 . S
C4759 H4753 0.950 . S
C4759 C4758 1.327 . S
C4759 C4763 1.429 . S
C4760 C4743 1.574 . S
C4760 H4754 0.949 . S
C4760 C4764 1.368 . S
C4761 C4742 1.429 . S
C4761 C4755 1.429 . S
C4761 C4762 1.523 . S
C4762 C4743 1.368 . S
C4762 C4756 1.368 . S
C4762 C4761 1.523 . S
C4763 C4747 1.429 . S
C4763 C4759 1.429 . S
C4763 C4764 1.523 . S
C4764 C4748 1.368 . S
C4764 C4760 1.368 . S
C4764 C4763 1.523 . S
H4765 C4740 0.950 . S
H4766 C4742 0.950 . S
H4767 C4743 0.949 . S
H4768 C4745 0.950 . S
H4769 C4747 0.950 . S
C4770 C4771 1.349 . S
C4770 C4772 1.327 . S
C4770 H4795 0.950 . S
C4771 C4770 1.349 . S
C4771 C4787 1.349 . S
C4772 C4770 1.327 . S
C4772 C4791 1.429 . S
C4772 H4796 0.950 . S
C4773 C4790 1.574 . S
C4773 C4792 1.368 . S
C4773 H4797 0.949 . S
H4774 C4778 0.949 . S
C4775 C4776 1.349 . S
C4775 C4777 1.327 . S
C4775 H4798 0.950 . S
C4776 C4775 1.349 . S
C4776 C4788 1.349 . S
C4777 C4775 1.327 . S
C4777 C4793 1.429 . S
C4777 H4799 0.950 . S
C4778 H4774 0.949 . S
C4778 C4786 1.574 . S
C4778 C4794 1.368 . S
H4779 C4787 0.950 . S
H4780 C4785 0.950 . S
H4781 C4786 0.949 . S
H4782 C4788 0.950 . S
H4783 C4789 0.950 . S
H4784 C4790 0.949 . S
C4785 H4780 0.950 . S
C4785 C4787 1.327 . S
C4785 C4791 1.429 . S
C4786 C4778 1.574 . S
C4786 H4781 0.949 . S
C4786 C4792 1.368 . S
C4787 C4771 1.349 . S
C4787 H4779 0.950 . S
C4787 C4785 1.327 . S
C4788 C4776 1.349 . S
C4788 H4782 0.950 . S
C4788 C4789 1.327 . S
C4789 H4783 0.950 . S
C4789 C4788 1.327 . S
C4789 C4793 1.429 . S
C4790 C4773 1.574 . S
C4790 H4784 0.949 . S
C4790 C4794 1.368 . S
C4791 C4772 1.429 . S
C4791 C4785 1.429 . S
C4791 C4792 1.523 . S
C4792 C4773 1.368 . S
C4792 C4786 1.368 . S
C4792 C4791 1.523 . S
C4793 C4777 1.429 . S
C4793 C4789 1.429 . S
C4793 C4794 1.523 . S
C4794 C4778 1.368 . S
C4794 C4790 1.368 . S
C4794 C4793 1.523 . S
H4795 C4770 0.950 . S
H4796 C4772 0.950 . S
H4797 C4773 0.949 . S
H4798 C4775 0.950 . S
H4799 C4777 0.950 . S
C4800 C4801 1.349 . S
C4800 C4802 1.327 . S
C4800 H4825 0.950 . S
C4801 C4800 1.349 . S
C4801 C4817 1.349 . S
C4802 C4800 1.327 . S
C4802 C4821 1.429 . S
C4802 H4826 0.950 . S
C4803 C4820 1.574 . S
C4803 C4822 1.368 . S
C4803 H4827 0.949 . S
H4804 C4808 0.949 . S
C4805 C4806 1.349 . S
C4805 C4807 1.327 . S
C4805 H4828 0.950 . S
C4806 C4805 1.349 . S
C4806 C4818 1.349 . S
C4807 C4805 1.327 . S
C4807 C4823 1.429 . S
C4807 H4829 0.950 . S
C4808 H4804 0.949 . S
C4808 C4816 1.574 . S
C4808 C4824 1.368 . S
H4809 C4817 0.950 . S
H4810 C4815 0.950 . S
H4811 C4816 0.949 . S
H4812 C4818 0.950 . S
H4813 C4819 0.950 . S
H4814 C4820 0.949 . S
C4815 H4810 0.950 . S
C4815 C4817 1.327 . S
C4815 C4821 1.429 . S
C4816 C4808 1.574 . S
C4816 H4811 0.949 . S
C4816 C4822 1.368 . S
C4817 C4801 1.349 . S
C4817 H4809 0.950 . S
C4817 C4815 1.327 . S
C4818 C4806 1.349 . S
C4818 H4812 0.950 . S
C4818 C4819 1.327 . S
C4819 H4813 0.950 . S
C4819 C4818 1.327 . S
C4819 C4823 1.429 . S
C4820 C4803 1.574 . S
C4820 H4814 0.949 . S
C4820 C4824 1.368 . S
C4821 C4802 1.429 . S
C4821 C4815 1.429 . S
C4821 C4822 1.523 . S
C4822 C4803 1.368 . S
C4822 C4816 1.368 . S
C4822 C4821 1.523 . S
C4823 C4807 1.429 . S
C4823 C4819 1.429 . S
C4823 C4824 1.523 . S
C4824 C4808 1.368 . S
C4824 C4820 1.368 . S
C4824 C4823 1.523 . S
H4825 C4800 0.950 . S
H4826 C4802 0.950 . S
H4827 C4803 0.949 . S
H4828 C4805 0.950 . S
H4829 C4807 0.950 . S
C4830 C4831 1.349 . S
C4830 C4832 1.327 . S
C4830 H4855 0.950 . S
C4831 C4830 1.349 . S
C4831 C4847 1.349 . S
C4832 C4830 1.327 . S
C4832 C4851 1.429 . S
C4832 H4856 0.950 . S
C4833 C4850 1.574 . S
C4833 C4852 1.368 . S
C4833 H4857 0.949 . S
H4834 C4838 0.949 . S
C4835 C4836 1.349 . S
C4835 C4837 1.327 . S
C4835 H4858 0.950 . S
C4836 C4835 1.349 . S
C4836 C4848 1.349 . S
C4837 C4835 1.327 . S
C4837 C4853 1.429 . S
C4837 H4859 0.950 . S
C4838 H4834 0.949 . S
C4838 C4846 1.574 . S
C4838 C4854 1.368 . S
H4839 C4847 0.950 . S
H4840 C4845 0.950 . S
H4841 C4846 0.949 . S
H4842 C4848 0.950 . S
H4843 C4849 0.950 . S
H4844 C4850 0.949 . S
C4845 H4840 0.950 . S
C4845 C4847 1.327 . S
C4845 C4851 1.429 . S
C4846 C4838 1.574 . S
C4846 H4841 0.949 . S
C4846 C4852 1.368 . S
C4847 C4831 1.349 . S
C4847 H4839 0.950 . S
C4847 C4845 1.327 . S
C4848 C4836 1.349 . S
C4848 H4842 0.950 . S
C4848 C4849 1.327 . S
C4849 H4843 0.950 . S
C4849 C4848 1.327 . S
C4849 C4853 1.429 . S
C4850 C4833 1.574 . S
C4850 H4844 0.949 . S
C4850 C4854 1.368 . S
C4851 C4832 1.429 . S
C4851 C4845 1.429 . S
C4851 C4852 1.523 . S
C4852 C4833 1.368 . S
C4852 C4846 1.368 . S
C4852 C4851 1.523 . S
C4853 C4837 1.429 . S
C4853 C4849 1.429 . S
C4853 C4854 1.523 . S
C4854 C4838 1.368 . S
C4854 C4850 1.368 . S
C4854 C4853 1.523 . S
H4855 C4830 0.950 . S
H4856 C4832 0.950 . S
H4857 C4833 0.949 . S
H4858 C4835 0.950 . S
H4859 C4837 0.950 . S
C4860 C4861 1.349 . S
C4860 C4862 1.327 . S
C4860 H4885 0.950 . S
C4861 C4860 1.349 . S
C4861 C4877 1.349 . S
C4862 C4860 1.327 . S
C4862 C4881 1.429 . S
C4862 H4886 0.950 . S
C4863 C4880 1.574 . S
C4863 C4882 1.368 . S
C4863 H4887 0.949 . S
H4864 C4868 0.949 . S
C4865 C4866 1.349 . S
C4865 C4867 1.327 . S
C4865 H4888 0.950 . S
C4866 C4865 1.349 . S
C4866 C4878 1.349 . S
C4867 C4865 1.327 . S
C4867 C4883 1.429 . S
C4867 H4889 0.950 . S
C4868 H4864 0.949 . S
C4868 C4876 1.574 . S
C4868 C4884 1.368 . S
H4869 C4877 0.950 . S
H4870 C4875 0.950 . S
H4871 C4876 0.949 . S
H4872 C4878 0.950 . S
H4873 C4879 0.950 . S
H4874 C4880 0.949 . S
C4875 H4870 0.950 . S
C4875 C4877 1.327 . S
C4875 C4881 1.429 . S
C4876 C4868 1.574 . S
C4876 H4871 0.949 . S
C4876 C4882 1.368 . S
C4877 C4861 1.349 . S
C4877 H4869 0.950 . S
C4877 C4875 1.327 . S
C4878 C4866 1.349 . S
C4878 H4872 0.950 . S
C4878 C4879 1.327 . S
C4879 H4873 0.950 . S
C4879 C4878 1.327 . S
C4879 C4883 1.429 . S
C4880 C4863 1.574 . S
C4880 H4874 0.949 . S
C4880 C4884 1.368 . S
C4881 C4862 1.429 . S
C4881 C4875 1.429 . S
C4881 C4882 1.523 . S
C4882 C4863 1.368 . S
C4882 C4876 1.368 . S
C4882 C4881 1.523 . S
C4883 C4867 1.429 . S
C4883 C4879 1.429 . S
C4883 C4884 1.523 . S
C4884 C4868 1.368 . S
C4884 C4880 1.368 . S
C4884 C4883 1.523 . S
H4885 C4860 0.950 . S
H4886 C4862 0.950 . S
H4887 C4863 0.949 . S
H4888 C4865 0.950 . S
H4889 C4867 0.950 . S
C4890 C4891 1.349 . S
C4890 C4892 1.327 . S
C4890 H4915 0.950 . S
C4891 C4890 1.349 . S
C4891 C4907 1.349 . S
C4892 C4890 1.327 . S
C4892 C4911 1.429 . S
C4892 H4916 0.950 . S
C4893 C4910 1.574 . S
C4893 C4912 1.368 . S
C4893 H4917 0.949 . S
H4894 C4898 0.949 . S
C4895 C4896 1.349 . S
C4895 C4897 1.327 . S
C4895 H4918 0.950 . S
C4896 C4895 1.349 . S
C4896 C4908 1.349 . S
C4897 C4895 1.327 . S
C4897 C4913 1.429 . S
C4897 H4919 0.950 . S
C4898 H4894 0.949 . S
C4898 C4906 1.574 . S
C4898 C4914 1.368 . S
H4899 C4907 0.950 . S
H4900 C4905 0.950 . S
H4901 C4906 0.949 . S
H4902 C4908 0.950 . S
H4903 C4909 0.950 . S
H4904 C4910 0.949 . S
C4905 H4900 0.950 . S
C4905 C4907 1.327 . S
C4905 C4911 1.429 . S
C4906 C4898 1.574 . S
C4906 H4901 0.949 . S
C4906 C4912 1.368 . S
C4907 C4891 1.349 . S
C4907 H4899 0.950 . S
C4907 C4905 1.327 . S
C4908 C4896 1.349 . S
C4908 H4902 0.950 . S
C4908 C4909 1.327 . S
C4909 H4903 0.950 . S
C4909 C4908 1.327 . S
C4909 C4913 1.429 . S
C4910 C4893 1.574 . S
C4910 H4904 0.949 . S
C4910 C4914 1.368 . S
C4911 C4892 1.429 . S
C4911 C4905 1.429 . S
C4911 C4912 1.523 . S
C4912 C4893 1.368 . S
C4912 C4906 1.368 . S
C4912 C4911 1.523 . S
C4913 C4897 1.429 . S
C4913 C4909 1.429 . S
C4913 C4914 1.523 . S
C4914 C4898 1.368 . S
C4914 C4910 1.368 . S
C4914 C4913 1.523 . S
H4915 C4890 0.950 . S
H4916 C4892 0.950 . S
H4917 C4893 0.949 . S
H4918 C4895 0.950 . S
H4919 C4897 0.950 . S
C4920 C4921 1.349 . S
C4920 C4922 1.327 . S
C4920 H4945 0.950 . S
C4921 C4920 1.349 . S
C4921 C4937 1.349 . S
C4922 C4920 1.327 . S
C4922 C4941 1.429 . S
C4922 H4946 0.950 . S
C4923 C4940 1.574 . S
C4923 C4942 1.368 . S
C4923 H4947 0.949 . S
H4924 C4928 0.949 . S
C4925 C4926 1.349 . S
C4925 C4927 1.327 . S
C4925 H4948 0.950 . S
C4926 C4925 1.349 . S
C4926 C4938 1.349 . S
C4927 C4925 1.327 . S
C4927 C4943 1.429 . S
C4927 H4949 0.950 . S
C4928 H4924 0.949 . S
C4928 C4936 1.574 . S
C4928 C4944 1.368 . S
H4929 C4937 0.950 . S
H4930 C4935 0.950 . S
H4931 C4936 0.949 . S
H4932 C4938 0.950 . S
H4933 C4939 0.950 . S
H4934 C4940 0.949 . S
C4935 H4930 0.950 . S
C4935 C4937 1.327 . S
C4935 C4941 1.429 . S
C4936 C4928 1.574 . S
C4936 H4931 0.949 . S
C4936 C4942 1.368 . S
C4937 C4921 1.349 . S
C4937 H4929 0.950 . S
C4937 C4935 1.327 . S
C4938 C4926 1.349 . S
C4938 H4932 0.950 . S
C4938 C4939 1.327 . S
C4939 H4933 0.950 . S
C4939 C4938 1.327 . S
C4939 C4943 1.429 . S
C4940 C4923 1.574 . S
C4940 H4934 0.949 . S
C4940 C4944 1.368 . S
C4941 C4922 1.429 . S
C4941 C4935 1.429 . S
C4941 C4942 1.523 . S
C4942 C4923 1.368 . S
C4942 C4936 1.368 . S
C4942 C4941 1.523 . S
C4943 C4927 1.429 . S
C4943 C4939 1.429 . S
C4943 C4944 1.523 . S
C4944 C4928 1.368 . S
C4944 C4940 1.368 . S
C4944 C4943 1.523 . S
H4945 C4920 0.950 . S
H4946 C4922 0.950 . S
H4947 C4923 0.949 . S
H4948 C4925 0.950 . S
H4949 C4927 0.950 . S
C4950 C4951 1.349 . S
C4950 C4952 1.327 . S
C4950 H4975 0.950 . S
C4951 C4950 1.349 . S
C4951 C4967 1.349 . S
C4952 C4950 1.327 . S
C4952 C4971 1.429 . S
C4952 H4976 0.950 . S
C4953 C4970 1.574 . S
C4953 C4972 1.368 . S
C4953 H4977 0.949 . S
H4954 C4958 0.949 . S
C4955 C4956 1.349 . S
C4955 C4957 1.327 . S
C4955 H4978 0.950 . S
C4956 C4955 1.349 . S
C4956 C4968 1.349 . S
C4957 C4955 1.327 . S
C4957 C4973 1.429 . S
C4957 H4979 0.950 . S
C4958 H4954 0.949 . S
C4958 C4966 1.574 . S
C4958 C4974 1.368 . S
H4959 C4967 0.950 . S
H4960 C4965 0.950 . S
H4961 C4966 0.949 . S
H4962 C4968 0.950 . S
H4963 C4969 0.950 . S
H4964 C4970 0.949 . S
C4965 H4960 0.950 . S
C4965 C4967 1.327 . S
C4965 C4971 1.429 . S
C4966 C4958 1.574 . S
C4966 H4961 0.949 . S
C4966 C4972 1.368 . S
C4967 C4951 1.349 . S
C4967 H4959 0.950 . S
C4967 C4965 1.327 . S
C4968 C4956 1.349 . S
C4968 H4962 0.950 . S
C4968 C4969 1.327 . S
C4969 H4963 0.950 . S
C4969 C4968 1.327 . S
C4969 C4973 1.429 . S
C4970 C4953 1.574 . S
C4970 H4964 0.949 . S
C4970 C4974 1.368 . S
C4971 C4952 1.429 . S
C4971 C4965 1.429 . S
C4971 C4972 1.523 . S
C4972 C4953 1.368 . S
C4972 C4966 1.368 . S
C4972 C4971 1.523 . S
C4973 C4957 1.429 . S
C4973 C4969 1.429 . S
C4973 C4974 1.523 . S
C4974 C4958 1.368 . S
C4974 C4970 1.368 . S
C4974 C4973 1.523 . S
H4975 C4950 0.950 . S
H4976 C4952 0.950 . S
H4977 C4953 0.949 . S
H4978 C4955 0.950 . S
H4979 C4957 0.950 . S
C4980 C4981 1.349 . S
C4980 C4982 1.327 . S
C4980 H5005 0.950 . S
C4981 C4980 1.349 . S
C4981 C4997 1.349 . S
C4982 C4980 1.327 . S
C4982 C5001 1.429 . S
C4982 H5006 0.950 . S
C4983 C5000 1.574 . S
C4983 C5002 1.368 . S
C4983 H5007 0.949 . S
H4984 C4988 0.949 . S
C4985 C4986 1.349 . S
C4985 C4987 1.327 . S
C4985 H5008 0.950 . S
C4986 C4985 1.349 . S
C4986 C4998 1.349 . S
C4987 C4985 1.327 . S
C4987 C5003 1.429 . S
C4987 H5009 0.950 . S
C4988 H4984 0.949 . S
C4988 C4996 1.574 . S
C4988 C5004 1.368 . S
H4989 C4997 0.950 . S
H4990 C4995 0.950 . S
H4991 C4996 0.949 . S
H4992 C4998 0.950 . S
H4993 C4999 0.950 . S
H4994 C5000 0.949 . S
C4995 H4990 0.950 . S
C4995 C4997 1.327 . S
C4995 C5001 1.429 . S
C4996 C4988 1.574 . S
C4996 H4991 0.949 . S
C4996 C5002 1.368 . S
C4997 C4981 1.349 . S
C4997 H4989 0.950 . S
C4997 C4995 1.327 . S
C4998 C4986 1.349 . S
C4998 H4992 0.950 . S
C4998 C4999 1.327 . S
C4999 H4993 0.950 . S
C4999 C4998 1.327 . S
C4999 C5003 1.429 . S
C5000 C4983 1.574 . S
C5000 H4994 0.949 . S
C5000 C5004 1.368 . S
C5001 C4982 1.429 . S
C5001 C4995 1.429 . S
C5001 C5002 1.523 . S
C5002 C4983 1.368 . S
C5002 C4996 1.368 . S
C5002 C5001 1.523 . S
C5003 C4987 1.429 . S
C5003 C4999 1.429 . S
C5003 C5004 1.523 . S
C5004 C4988 1.368 . S
C5004 C5000 1.368 . S
C5004 C5003 1.523 . S
H5005 C4980 0.950 . S
H5006 C4982 0.950 . S
H5007 C4983 0.949 . S
H5008 C4985 0.950 . S
H5009 C4987 0.950 . S
C5010 C5011 1.349 . S
C5010 C5012 1.327 . S
C5010 H5035 0.950 . S
C5011 C5010 1.349 . S
C5011 C5027 1.349 . S
C5012 C5010 1.327 . S
C5012 C5031 1.429 . S
C5012 H5036 0.950 . S
C5013 C5030 1.574 . S
C5013 C5032 1.368 . S
C5013 H5037 0.949 . S
H5014 C5018 0.949 . S
C5015 C5016 1.349 . S
C5015 C5017 1.327 . S
C5015 H5038 0.950 . S
C5016 C5015 1.349 . S
C5016 C5028 1.349 . S
C5017 C5015 1.327 . S
C5017 C5033 1.429 . S
C5017 H5039 0.950 . S
C5018 H5014 0.949 . S
C5018 C5026 1.574 . S
C5018 C5034 1.368 . S
H5019 C5027 0.950 . S
H5020 C5025 0.950 . S
H5021 C5026 0.949 . S
H5022 C5028 0.950 . S
H5023 C5029 0.950 . S
H5024 C5030 0.949 . S
C5025 H5020 0.950 . S
C5025 C5027 1.327 . S
C5025 C5031 1.429 . S
C5026 C5018 1.574 . S
C5026 H5021 0.949 . S
C5026 C5032 1.368 . S
C5027 C5011 1.349 . S
C5027 H5019 0.950 . S
C5027 C5025 1.327 . S
C5028 C5016 1.349 . S
C5028 H5022 0.950 . S
C5028 C5029 1.327 . S
C5029 H5023 0.950 . S
C5029 C5028 1.327 . S
C5029 C5033 1.429 . S
C5030 C5013 1.574 . S
C5030 H5024 0.949 . S
C5030 C5034 1.368 . S
C5031 C5012 1.429 . S
C5031 C5025 1.429 . S
C5031 C5032 1.523 . S
C5032 C5013 1.368 . S
C5032 C5026 1.368 . S
C5032 C5031 1.523 . S
C5033 C5017 1.429 . S
C5033 C5029 1.429 . S
C5033 C5034 1.523 . S
C5034 C5018 1.368 . S
C5034 C5030 1.368 . S
C5034 C5033 1.523 . S
H5035 C5010 0.950 . S
H5036 C5012 0.950 . S
H5037 C5013 0.949 . S
H5038 C5015 0.950 . S
H5039 C5017 0.950 . S
C5040 C5041 1.349 . S
C5040 C5042 1.327 . S
C5040 H5065 0.950 . S
C5041 C5040 1.349 . S
C5041 C5057 1.349 . S
C5042 C5040 1.327 . S
C5042 C5061 1.429 . S
C5042 H5066 0.950 . S
C5043 C5060 1.574 . S
C5043 C5062 1.368 . S
C5043 H5067 0.949 . S
H5044 C5048 0.949 . S
C5045 C5046 1.349 . S
C5045 C5047 1.327 . S
C5045 H5068 0.950 . S
C5046 C5045 1.349 . S
C5046 C5058 1.349 . S
C5047 C5045 1.327 . S
C5047 C5063 1.429 . S
C5047 H5069 0.950 . S
C5048 H5044 0.949 . S
C5048 C5056 1.574 . S
C5048 C5064 1.368 . S
H5049 C5057 0.950 . S
H5050 C5055 0.950 . S
H5051 C5056 0.949 . S
H5052 C5058 0.950 . S
H5053 C5059 0.950 . S
H5054 C5060 0.949 . S
C5055 H5050 0.950 . S
C5055 C5057 1.327 . S
C5055 C5061 1.429 . S
C5056 C5048 1.574 . S
C5056 H5051 0.949 . S
C5056 C5062 1.368 . S
C5057 C5041 1.349 . S
C5057 H5049 0.950 . S
C5057 C5055 1.327 . S
C5058 C5046 1.349 . S
C5058 H5052 0.950 . S
C5058 C5059 1.327 . S
C5059 H5053 0.950 . S
C5059 C5058 1.327 . S
C5059 C5063 1.429 . S
C5060 C5043 1.574 . S
C5060 H5054 0.949 . S
C5060 C5064 1.368 . S
C5061 C5042 1.429 . S
C5061 C5055 1.429 . S
C5061 C5062 1.523 . S
C5062 C5043 1.368 . S
C5062 C5056 1.368 . S
C5062 C5061 1.523 . S
C5063 C5047 1.429 . S
C5063 C5059 1.429 . S
C5063 C5064 1.523 . S
C5064 C5048 1.368 . S
C5064 C5060 1.368 . S
C5064 C5063 1.523 . S
H5065 C5040 0.950 . S
H5066 C5042 0.950 . S
H5067 C5043 0.949 . S
H5068 C5045 0.950 . S
H5069 C5047 0.950 . S
C5070 C5071 1.349 . S
C5070 C5072 1.327 . S
C5070 H5095 0.950 . S
C5071 C5070 1.349 . S
C5071 C5087 1.349 . S
C5072 C5070 1.327 . S
C5072 C5091 1.429 . S
C5072 H5096 0.950 . S
C5073 C5090 1.574 . S
C5073 C5092 1.368 . S
C5073 H5097 0.949 . S
H5074 C5078 0.949 . S
C5075 C5076 1.349 . S
C5075 C5077 1.327 . S
C5075 H5098 0.950 . S
C5076 C5075 1.349 . S
C5076 C5088 1.349 . S
C5077 C5075 1.327 . S
C5077 C5093 1.429 . S
C5077 H5099 0.950 . S
C5078 H5074 0.949 . S
C5078 C5086 1.574 . S
C5078 C5094 1.368 . S
H5079 C5087 0.950 . S
H5080 C5085 0.950 . S
H5081 C5086 0.949 . S
H5082 C5088 0.950 . S
H5083 C5089 0.950 . S
H5084 C5090 0.949 . S
C5085 H5080 0.950 . S
C5085 C5087 1.327 . S
C5085 C5091 1.429 . S
C5086 C5078 1.574 . S
C5086 H5081 0.949 . S
C5086 C5092 1.368 . S
C5087 C5071 1.349 . S
C5087 H5079 0.950 . S
C5087 C5085 1.327 . S
C5088 C5076 1.349 . S
C5088 H5082 0.950 . S
C5088 C5089 1.327 . S
C5089 H5083 0.950 . S
C5089 C5088 1.327 . S
C5089 C5093 1.429 . S
C5090 C5073 1.574 . S
C5090 H5084 0.949 . S
C5090 C5094 1.368 . S
C5091 C5072 1.429 . S
C5091 C5085 1.429 . S
C5091 C5092 1.523 . S
C5092 C5073 1.368 . S
C5092 C5086 1.368 . S
C5092 C5091 1.523 . S
C5093 C5077 1.429 . S
C5093 C5089 1.429 . S
C5093 C5094 1.523 . S
C5094 C5078 1.368 . S
C5094 C5090 1.368 . S
C5094 C5093 1.523 . S
H5095 C5070 0.950 . S
H5096 C5072 0.950 . S
H5097 C5073 0.949 . S
H5098 C5075 0.950 . S
H5099 C5077 0.950 . S
C5100 C5101 1.349 . S
C5100 C5102 1.327 . S
C5100 H5125 0.950 . S
C5101 C5100 1.349 . S
C5101 C5117 1.349 . S
C5102 C5100 1.327 . S
C5102 C5121 1.429 . S
C5102 H5126 0.950 . S
C5103 C5120 1.574 . S
C5103 C5122 1.368 . S
C5103 H5127 0.949 . S
H5104 C5108 0.949 . S
C5105 C5106 1.349 . S
C5105 C5107 1.327 . S
C5105 H5128 0.950 . S
C5106 C5105 1.349 . S
C5106 C5118 1.349 . S
C5107 C5105 1.327 . S
C5107 C5123 1.429 . S
C5107 H5129 0.950 . S
C5108 H5104 0.949 . S
C5108 C5116 1.574 . S
C5108 C5124 1.368 . S
H5109 C5117 0.950 . S
H5110 C5115 0.950 . S
H5111 C5116 0.949 . S
H5112 C5118 0.950 . S
H5113 C5119 0.950 . S
H5114 C5120 0.949 . S
C5115 H5110 0.950 . S
C5115 C5117 1.327 . S
C5115 C5121 1.429 . S
C5116 C5108 1.574 . S
C5116 H5111 0.949 . S
C5116 C5122 1.368 . S
C5117 C5101 1.349 . S
C5117 H5109 0.950 . S
C5117 C5115 1.327 . S
C5118 C5106 1.349 . S
C5118 H5112 0.950 . S
C5118 C5119 1.327 . S
C5119 H5113 0.950 . S
C5119 C5118 1.327 . S
C5119 C5123 1.429 . S
C5120 C5103 1.574 . S
C5120 H5114 0.949 . S
C5120 C5124 1.368 . S
C5121 C5102 1.429 . S
C5121 C5115 1.429 . S
C5121 C5122 1.523 . S
C5122 C5103 1.368 . S
C5122 C5116 1.368 . S
C5122 C5121 1.523 . S
C5123 C5107 1.429 . S
C5123 C5119 1.429 . S
C5123 C5124 1.523 . S
C5124 C5108 1.368 . S
C5124 C5120 1.368 . S
C5124 C5123 1.523 . S
H5125 C5100 0.950 . S
H5126 C5102 0.950 . S
H5127 C5103 0.949 . S
H5128 C5105 0.950 . S
H5129 C5107 0.950 . S
C5130 C5131 1.349 . S
C5130 C5132 1.327 . S
C5130 H5155 0.950 . S
C5131 C5130 1.349 . S
C5131 C5147 1.349 . S
C5132 C5130 1.327 . S
C5132 C5151 1.429 . S
C5132 H5156 0.950 . S
C5133 C5150 1.574 . S
C5133 C5152 1.368 . S
C5133 H5157 0.949 . S
H5134 C5138 0.949 . S
C5135 C5136 1.349 . S
C5135 C5137 1.327 . S
C5135 H5158 0.950 . S
C5136 C5135 1.349 . S
C5136 C5148 1.349 . S
C5137 C5135 1.327 . S
C5137 C5153 1.429 . S
C5137 H5159 0.950 . S
C5138 H5134 0.949 . S
C5138 C5146 1.574 . S
C5138 C5154 1.368 . S
H5139 C5147 0.950 . S
H5140 C5145 0.950 . S
H5141 C5146 0.949 . S
H5142 C5148 0.950 . S
H5143 C5149 0.950 . S
H5144 C5150 0.949 . S
C5145 H5140 0.950 . S
C5145 C5147 1.327 . S
C5145 C5151 1.429 . S
C5146 C5138 1.574 . S
C5146 H5141 0.949 . S
C5146 C5152 1.368 . S
C5147 C5131 1.349 . S
C5147 H5139 0.950 . S
C5147 C5145 1.327 . S
C5148 C5136 1.349 . S
C5148 H5142 0.950 . S
C5148 C5149 1.327 . S
C5149 H5143 0.950 . S
C5149 C5148 1.327 . S
C5149 C5153 1.429 . S
C5150 C5133 1.574 . S
C5150 H5144 0.949 . S
C5150 C5154 1.368 . S
C5151 C5132 1.429 . S
C5151 C5145 1.429 . S
C5151 C5152 1.523 . S
C5152 C5133 1.368 . S
C5152 C5146 1.368 . S
C5152 C5151 1.523 . S
C5153 C5137 1.429 . S
C5153 C5149 1.429 . S
C5153 C5154 1.523 . S
C5154 C5138 1.368 . S
C5154 C5150 1.368 . S
C5154 C5153 1.523 . S
H5155 C5130 0.950 . S
H5156 C5132 0.950 . S
H5157 C5133 0.949 . S
H5158 C5135 0.950 . S
H5159 C5137 0.950 . S
C5160 C5161 1.349 . S
C5160 C5162 1.327 . S
C5160 H5185 0.950 . S
C5161 C5160 1.349 . S
C5161 C5177 1.349 . S
C5162 C5160 1.327 . S
C5162 C5181 1.429 . S
C5162 H5186 0.950 . S
C5163 C5180 1.574 . S
C5163 C5182 1.368 . S
C5163 H5187 0.949 . S
H5164 C5168 0.949 . S
C5165 C5166 1.349 . S
C5165 C5167 1.327 . S
C5165 H5188 0.950 . S
C5166 C5165 1.349 . S
C5166 C5178 1.349 . S
C5167 C5165 1.327 . S
C5167 C5183 1.429 . S
C5167 H5189 0.950 . S
C5168 H5164 0.949 . S
C5168 C5176 1.574 . S
C5168 C5184 1.368 . S
H5169 C5177 0.950 . S
H5170 C5175 0.950 . S
H5171 C5176 0.949 . S
H5172 C5178 0.950 . S
H5173 C5179 0.950 . S
H5174 C5180 0.949 . S
C5175 H5170 0.950 . S
C5175 C5177 1.327 . S
C5175 C5181 1.429 . S
C5176 C5168 1.574 . S
C5176 H5171 0.949 . S
C5176 C5182 1.368 . S
C5177 C5161 1.349 . S
C5177 H5169 0.950 . S
C5177 C5175 1.327 . S
C5178 C5166 1.349 . S
C5178 H5172 0.950 . S
C5178 C5179 1.327 . S
C5179 H5173 0.950 . S
C5179 C5178 1.327 . S
C5179 C5183 1.429 . S
C5180 C5163 1.574 . S
C5180 H5174 0.949 . S
C5180 C5184 1.368 . S
C5181 C5162 1.429 . S
C5181 C5175 1.429 . S
C5181 C5182 1.523 . S
C5182 C5163 1.368 . S
C5182 C5176 1.368 . S
C5182 C5181 1.523 . S
C5183 C5167 1.429 . S
C5183 C5179 1.429 . S
C5183 C5184 1.523 . S
C5184 C5168 1.368 . S
C5184 C5180 1.368 . S
C5184 C5183 1.523 . S
H5185 C5160 0.950 . S
H5186 C5162 0.950 . S
H5187 C5163 0.949 . S
H5188 C5165 0.950 . S
H5189 C5167 0.950 . S
C5190 C5191 1.349 . S
C5190 C5192 1.327 . S
C5190 H5215 0.950 . S
C5191 C5190 1.349 . S
C5191 C5207 1.349 . S
C5192 C5190 1.327 . S
C5192 C5211 1.429 . S
C5192 H5216 0.950 . S
C5193 C5210 1.574 . S
C5193 C5212 1.368 . S
C5193 H5217 0.949 . S
H5194 C5198 0.949 . S
C5195 C5196 1.349 . S
C5195 C5197 1.327 . S
C5195 H5218 0.950 . S
C5196 C5195 1.349 . S
C5196 C5208 1.349 . S
C5197 C5195 1.327 . S
C5197 C5213 1.429 . S
C5197 H5219 0.950 . S
C5198 H5194 0.949 . S
C5198 C5206 1.574 . S
C5198 C5214 1.368 . S
H5199 C5207 0.950 . S
H5200 C5205 0.950 . S
H5201 C5206 0.949 . S
H5202 C5208 0.950 . S
H5203 C5209 0.950 . S
H5204 C5210 0.949 . S
C5205 H5200 0.950 . S
C5205 C5207 1.327 . S
C5205 C5211 1.429 . S
C5206 C5198 1.574 . S
C5206 H5201 0.949 . S
C5206 C5212 1.368 . S
C5207 C5191 1.349 . S
C5207 H5199 0.950 . S
C5207 C5205 1.327 . S
C5208 C5196 1.349 . S
C5208 H5202 0.950 . S
C5208 C5209 1.327 . S
C5209 H5203 0.950 . S
C5209 C5208 1.327 . S
C5209 C5213 1.429 . S
C5210 C5193 1.574 . S
C5210 H5204 0.949 . S
C5210 C5214 1.368 . S
C5211 C5192 1.429 . S
C5211 C5205 1.429 . S
C5211 C5212 1.523 . S
C5212 C5193 1.368 . S
C5212 C5206 1.368 . S
C5212 C5211 1.523 . S
C5213 C5197 1.429 . S
C5213 C5209 1.429 . S
C5213 C5214 1.523 . S
C5214 C5198 1.368 . S
C5214 C5210 1.368 . S
C5214 C5213 1.523 . S
H5215 C5190 0.950 . S
H5216 C5192 0.950 . S
H5217 C5193 0.949 . S
H5218 C5195 0.950 . S
H5219 C5197 0.950 . S
C5220 C5221 1.349 . S
C5220 C5222 1.327 . S
C5220 H5245 0.950 . S
C5221 C5220 1.349 . S
C5221 C5237 1.349 . S
C5222 C5220 1.327 . S
C5222 C5241 1.429 . S
C5222 H5246 0.950 . S
C5223 C5240 1.574 . S
C5223 C5242 1.368 . S
C5223 H5247 0.949 . S
H5224 C5228 0.949 . S
C5225 C5226 1.349 . S
C5225 C5227 1.327 . S
C5225 H5248 0.950 . S
C5226 C5225 1.349 . S
C5226 C5238 1.349 . S
C5227 C5225 1.327 . S
C5227 C5243 1.429 . S
C5227 H5249 0.950 . S
C5228 H5224 0.949 . S
C5228 C5236 1.574 . S
C5228 C5244 1.368 . S
H5229 C5237 0.950 . S
H5230 C5235 0.950 . S
H5231 C5236 0.949 . S
H5232 C5238 0.950 . S
H5233 C5239 0.950 . S
H5234 C5240 0.949 . S
C5235 H5230 0.950 . S
C5235 C5237 1.327 . S
C5235 C5241 1.429 . S
C5236 C5228 1.574 . S
C5236 H5231 0.949 . S
C5236 C5242 1.368 . S
C5237 C5221 1.349 . S
C5237 H5229 0.950 . S
C5237 C5235 1.327 . S
C5238 C5226 1.349 . S
C5238 H5232 0.950 . S
C5238 C5239 1.327 . S
C5239 H5233 0.950 . S
C5239 C5238 1.327 . S
C5239 C5243 1.429 . S
C5240 C5223 1.574 . S
C5240 H5234 0.949 . S
C5240 C5244 1.368 . S
C5241 C5222 1.429 . S
C5241 C5235 1.429 . S
C5241 C5242 1.523 . S
C5242 C5223 1.368 . S
C5242 C5236 1.368 . S
C5242 C5241 1.523 . S
C5243 C5227 1.429 . S
C5243 C5239 1.429 . S
C5243 C5244 1.523 . S
C5244 C5228 1.368 . S
C5244 C5240 1.368 . S
C5244 C5243 1.523 . S
H5245 C5220 0.950 . S
H5246 C5222 0.950 . S
H5247 C5223 0.949 . S
H5248 C5225 0.950 . S
H5249 C5227 0.950 . S
C5250 C5251 1.349 . S
C5250 C5252 1.327 . S
C5250 H5275 0.950 . S
C5251 C5250 1.349 . S
C5251 C5267 1.349 . S
C5252 C5250 1.327 . S
C5252 C5271 1.429 . S
C5252 H5276 0.950 . S
C5253 C5270 1.574 . S
C5253 C5272 1.368 . S
C5253 H5277 0.949 . S
H5254 C5258 0.949 . S
C5255 C5256 1.349 . S
C5255 C5257 1.327 . S
C5255 H5278 0.950 . S
C5256 C5255 1.349 . S
C5256 C5268 1.349 . S
C5257 C5255 1.327 . S
C5257 C5273 1.429 . S
C5257 H5279 0.950 . S
C5258 H5254 0.949 . S
C5258 C5266 1.574 . S
C5258 C5274 1.368 . S
H5259 C5267 0.950 . S
H5260 C5265 0.950 . S
H5261 C5266 0.949 . S
H5262 C5268 0.950 . S
H5263 C5269 0.950 . S
H5264 C5270 0.949 . S
C5265 H5260 0.950 . S
C5265 C5267 1.327 . S
C5265 C5271 1.429 . S
C5266 C5258 1.574 . S
C5266 H5261 0.949 . S
C5266 C5272 1.368 . S
C5267 C5251 1.349 . S
C5267 H5259 0.950 . S
C5267 C5265 1.327 . S
C5268 C5256 1.349 . S
C5268 H5262 0.950 . S
C5268 C5269 1.327 . S
C5269 H5263 0.950 . S
C5269 C5268 1.327 . S
C5269 C5273 1.429 . S
C5270 C5253 1.574 . S
C5270 H5264 0.949 . S
C5270 C5274 1.368 . S
C5271 C5252 1.429 . S
C5271 C5265 1.429 . S
C5271 C5272 1.523 . S
C5272 C5253 1.368 . S
C5272 C5266 1.368 . S
C5272 C5271 1.523 . S
C5273 C5257 1.429 . S
C5273 C5269 1.429 . S
C5273 C5274 1.523 . S
C5274 C5258 1.368 . S
C5274 C5270 1.368 . S
C5274 C5273 1.523 . S
H5275 C5250 0.950 . S
H5276 C5252 0.950 . S
H5277 C5253 0.949 . S
H5278 C5255 0.950 . S
H5279 C5257 0.950 . S
C5280 C5281 1.349 . S
C5280 C5282 1.327 . S
C5280 H5305 0.950 . S
C5281 C5280 1.349 . S
C5281 C5297 1.349 . S
C5282 C5280 1.327 . S
C5282 C5301 1.429 . S
C5282 H5306 0.950 . S
C5283 C5300 1.574 . S
C5283 C5302 1.368 . S
C5283 H5307 0.949 . S
H5284 C5288 0.949 . S
C5285 C5286 1.349 . S
C5285 C5287 1.327 . S
C5285 H5308 0.950 . S
C5286 C5285 1.349 . S
C5286 C5298 1.349 . S
C5287 C5285 1.327 . S
C5287 C5303 1.429 . S
C5287 H5309 0.950 . S
C5288 H5284 0.949 . S
C5288 C5296 1.574 . S
C5288 C5304 1.368 . S
H5289 C5297 0.950 . S
H5290 C5295 0.950 . S
H5291 C5296 0.949 . S
H5292 C5298 0.950 . S
H5293 C5299 0.950 . S
H5294 C5300 0.949 . S
C5295 H5290 0.950 . S
C5295 C5297 1.327 . S
C5295 C5301 1.429 . S
C5296 C5288 1.574 . S
C5296 H5291 0.949 . S
C5296 C5302 1.368 . S
C5297 C5281 1.349 . S
C5297 H5289 0.950 . S
C5297 C5295 1.327 . S
C5298 C5286 1.349 . S
C5298 H5292 0.950 . S
C5298 C5299 1.327 . S
C5299 H5293 0.950 . S
C5299 C5298 1.327 . S
C5299 C5303 1.429 . S
C5300 C5283 1.574 . S
C5300 H5294 0.949 . S
C5300 C5304 1.368 . S
C5301 C5282 1.429 . S
C5301 C5295 1.429 . S
C5301 C5302 1.523 . S
C5302 C5283 1.368 . S
C5302 C5296 1.368 . S
C5302 C5301 1.523 . S
C5303 C5287 1.429 . S
C5303 C5299 1.429 . S
C5303 C5304 1.523 . S
C5304 C5288 1.368 . S
C5304 C5300 1.368 . S
C5304 C5303 1.523 . S
H5305 C5280 0.950 . S
H5306 C5282 0.950 . S
H5307 C5283 0.949 . S
H5308 C5285 0.950 . S
H5309 C5287 0.950 . S
C5310 C5311 1.349 . S
C5310 C5312 1.327 . S
C5310 H5335 0.950 . S
C5311 C5310 1.349 . S
C5311 C5327 1.349 . S
C5312 C5310 1.327 . S
C5312 C5331 1.429 . S
C5312 H5336 0.950 . S
C5313 C5330 1.574 . S
C5313 C5332 1.368 . S
C5313 H5337 0.949 . S
H5314 C5318 0.949 . S
C5315 C5316 1.349 . S
C5315 C5317 1.327 . S
C5315 H5338 0.950 . S
C5316 C5315 1.349 . S
C5316 C5328 1.349 . S
C5317 C5315 1.327 . S
C5317 C5333 1.429 . S
C5317 H5339 0.950 . S
C5318 H5314 0.949 . S
C5318 C5326 1.574 . S
C5318 C5334 1.368 . S
H5319 C5327 0.950 . S
H5320 C5325 0.950 . S
H5321 C5326 0.949 . S
H5322 C5328 0.950 . S
H5323 C5329 0.950 . S
H5324 C5330 0.949 . S
C5325 H5320 0.950 . S
C5325 C5327 1.327 . S
C5325 C5331 1.429 . S
C5326 C5318 1.574 . S
C5326 H5321 0.949 . S
C5326 C5332 1.368 . S
C5327 C5311 1.349 . S
C5327 H5319 0.950 . S
C5327 C5325 1.327 . S
C5328 C5316 1.349 . S
C5328 H5322 0.950 . S
C5328 C5329 1.327 . S
C5329 H5323 0.950 . S
C5329 C5328 1.327 . S
C5329 C5333 1.429 . S
C5330 C5313 1.574 . S
C5330 H5324 0.949 . S
C5330 C5334 1.368 . S
C5331 C5312 1.429 . S
C5331 C5325 1.429 . S
C5331 C5332 1.523 . S
C5332 C5313 1.368 . S
C5332 C5326 1.368 . S
C5332 C5331 1.523 . S
C5333 C5317 1.429 . S
C5333 C5329 1.429 . S
C5333 C5334 1.523 . S
C5334 C5318 1.368 . S
C5334 C5330 1.368 . S
C5334 C5333 1.523 . S
H5335 C5310 0.950 . S
H5336 C5312 0.950 . S
H5337 C5313 0.949 . S
H5338 C5315 0.950 . S
H5339 C5317 0.950 . S
C5340 C5341 1.349 . S
C5340 C5342 1.327 . S
C5340 H5365 0.950 . S
C5341 C5340 1.349 . S
C5341 C5357 1.349 . S
C5342 C5340 1.327 . S
C5342 C5361 1.429 . S
C5342 H5366 0.950 . S
C5343 C5360 1.574 . S
C5343 C5362 1.368 . S
C5343 H5367 0.949 . S
H5344 C5348 0.949 . S
C5345 C5346 1.349 . S
C5345 C5347 1.327 . S
C5345 H5368 0.950 . S
C5346 C5345 1.349 . S
C5346 C5358 1.349 . S
C5347 C5345 1.327 . S
C5347 C5363 1.429 . S
C5347 H5369 0.950 . S
C5348 H5344 0.949 . S
C5348 C5356 1.574 . S
C5348 C5364 1.368 . S
H5349 C5357 0.950 . S
H5350 C5355 0.950 . S
H5351 C5356 0.949 . S
H5352 C5358 0.950 . S
H5353 C5359 0.950 . S
H5354 C5360 0.949 . S
C5355 H5350 0.950 . S
C5355 C5357 1.327 . S
C5355 C5361 1.429 . S
C5356 C5348 1.574 . S
C5356 H5351 0.949 . S
C5356 C5362 1.368 . S
C5357 C5341 1.349 . S
C5357 H5349 0.950 . S
C5357 C5355 1.327 . S
C5358 C5346 1.349 . S
C5358 H5352 0.950 . S
C5358 C5359 1.327 . S
C5359 H5353 0.950 . S
C5359 C5358 1.327 . S
C5359 C5363 1.429 . S
C5360 C5343 1.574 . S
C5360 H5354 0.949 . S
C5360 C5364 1.368 . S
C5361 C5342 1.429 . S
C5361 C5355 1.429 . S
C5361 C5362 1.523 . S
C5362 C5343 1.368 . S
C5362 C5356 1.368 . S
C5362 C5361 1.523 . S
C5363 C5347 1.429 . S
C5363 C5359 1.429 . S
C5363 C5364 1.523 . S
C5364 C5348 1.368 . S
C5364 C5360 1.368 . S
C5364 C5363 1.523 . S
H5365 C5340 0.950 . S
H5366 C5342 0.950 . S
H5367 C5343 0.949 . S
H5368 C5345 0.950 . S
H5369 C5347 0.950 . S
C5370 C5371 1.349 . S
C5370 C5372 1.327 . S
C5370 H5395 0.950 . S
C5371 C5370 1.349 . S
C5371 C5387 1.349 . S
C5372 C5370 1.327 . S
C5372 C5391 1.429 . S
C5372 H5396 0.950 . S
C5373 C5390 1.574 . S
C5373 C5392 1.368 . S
C5373 H5397 0.949 . S
H5374 C5378 0.949 . S
C5375 C5376 1.349 . S
C5375 C5377 1.327 . S
C5375 H5398 0.950 . S
C5376 C5375 1.349 . S
C5376 C5388 1.349 . S
C5377 C5375 1.327 . S
C5377 C5393 1.429 . S
C5377 H5399 0.950 . S
C5378 H5374 0.949 . S
C5378 C5386 1.574 . S
C5378 C5394 1.368 . S
H5379 C5387 0.950 . S
H5380 C5385 0.950 . S
H5381 C5386 0.949 . S
H5382 C5388 0.950 . S
H5383 C5389 0.950 . S
H5384 C5390 0.949 . S
C5385 H5380 0.950 . S
C5385 C5387 1.327 . S
C5385 C5391 1.429 . S
C5386 C5378 1.574 . S
C5386 H5381 0.949 . S
C5386 C5392 1.368 . S
C5387 C5371 1.349 . S
C5387 H5379 0.950 . S
C5387 C5385 1.327 . S
C5388 C5376 1.349 . S
C5388 H5382 0.950 . S
C5388 C5389 1.327 . S
C5389 H5383 0.950 . S
C5389 C5388 1.327 . S
C5389 C5393 1.429 . S
C5390 C5373 1.574 . S
C5390 H5384 0.949 . S
C5390 C5394 1.368 . S
C5391 C5372 1.429 . S
C5391 C5385 1.429 . S
C5391 C5392 1.523 . S
C5392 C5373 1.368 . S
C5392 C5386 1.368 . S
C5392 C5391 1.523 . S
C5393 C5377 1.429 . S
C5393 C5389 1.429 . S
C5393 C5394 1.523 . S
C5394 C5378 1.368 . S
C5394 C5390 1.368 . S
C5394 C5393 1.523 . S
H5395 C5370 0.950 . S
H5396 C5372 0.950 . S
H5397 C5373 0.949 . S
H5398 C5375 0.950 . S
H5399 C5377 0.950 . S
C5400 C5401 1.349 . S
C5400 C5402 1.327 . S
C5400 H5425 0.950 . S
C5401 C5400 1.349 . S
C5401 C5417 1.349 . S
C5402 C5400 1.327 . S
C5402 C5421 1.429 . S
C5402 H5426 0.950 . S
C5403 C5420 1.574 . S
C5403 C5422 1.368 . S
C5403 H5427 0.949 . S
H5404 C5408 0.949 . S
C5405 C5406 1.349 . S
C5405 C5407 1.327 . S
C5405 H5428 0.950 . S
C5406 C5405 1.349 . S
C5406 C5418 1.349 . S
C5407 C5405 1.327 . S
C5407 C5423 1.429 . S
C5407 H5429 0.950 . S
C5408 H5404 0.949 . S
C5408 C5416 1.574 . S
C5408 C5424 1.368 . S
H5409 C5417 0.950 . S
H5410 C5415 0.950 . S
H5411 C5416 0.949 . S
H5412 C5418 0.950 . S
H5413 C5419 0.950 . S
H5414 C5420 0.949 . S
C5415 H5410 0.950 . S
C5415 C5417 1.327 . S
C5415 C5421 1.429 . S
C5416 C5408 1.574 . S
C5416 H5411 0.949 . S
C5416 C5422 1.368 . S
C5417 C5401 1.349 . S
C5417 H5409 0.950 . S
C5417 C5415 1.327 . S
C5418 C5406 1.349 . S
C5418 H5412 0.950 . S
C5418 C5419 1.327 . S
C5419 H5413 0.950 . S
C5419 C5418 1.327 . S
C5419 C5423 1.429 . S
C5420 C5403 1.574 . S
C5420 H5414 0.949 . S
C5420 C5424 1.368 . S
C5421 C5402 1.429 . S
C5421 C5415 1.429 . S
C5421 C5422 1.523 . S
C5422 C5403 1.368 . S
C5422 C5416 1.368 . S
C5422 C5421 1.523 . S
C5423 C5407 1.429 . S
C5423 C5419 1.429 . S
C5423 C5424 1.523 . S
C5424 C5408 1.368 . S
C5424 C5420 1.368 . S
C5424 C5423 1.523 . S
H5425 C5400 0.950 . S
H5426 C5402 0.950 . S
H5427 C5403 0.949 . S
H5428 C5405 0.950 . S
H5429 C5407 0.950 . S
C5430 C5431 1.349 . S
C5430 C5432 1.327 . S
C5430 H5455 0.950 . S
C5431 C5430 1.349 . S
C5431 C5447 1.349 . S
C5432 C5430 1.327 . S
C5432 C5451 1.429 . S
C5432 H5456 0.950 . S
C5433 C5450 1.574 . S
C5433 C5452 1.368 . S
C5433 H5457 0.949 . S
H5434 C5438 0.949 . S
C5435 C5436 1.349 . S
C5435 C5437 1.327 . S
C5435 H5458 0.950 . S
C5436 C5435 1.349 . S
C5436 C5448 1.349 . S
C5437 C5435 1.327 . S
C5437 C5453 1.429 . S
C5437 H5459 0.950 . S
C5438 H5434 0.949 . S
C5438 C5446 1.574 . S
C5438 C5454 1.368 . S
H5439 C5447 0.950 . S
H5440 C5445 0.950 . S
H5441 C5446 0.949 . S
H5442 C5448 0.950 . S
H5443 C5449 0.950 . S
H5444 C5450 0.949 . S
C5445 H5440 0.950 . S
C5445 C5447 1.327 . S
C5445 C5451 1.429 . S
C5446 C5438 1.574 . S
C5446 H5441 0.949 . S
C5446 C5452 1.368 . S
C5447 C5431 1.349 . S
C5447 H5439 0.950 . S
C5447 C5445 1.327 . S
C5448 C5436 1.349 . S
C5448 H5442 0.950 . S
C5448 C5449 1.327 . S
C5449 H5443 0.950 . S
C5449 C5448 1.327 . S
C5449 C5453 1.429 . S
C5450 C5433 1.574 . S
C5450 H5444 0.949 . S
C5450 C5454 1.368 . S
C5451 C5432 1.429 . S
C5451 C5445 1.429 . S
C5451 C5452 1.523 . S
C5452 C5433 1.368 . S
C5452 C5446 1.368 . S
C5452 C5451 1.523 . S
C5453 C5437 1.429 . S
C5453 C5449 1.429 . S
C5453 C5454 1.523 . S
C5454 C5438 1.368 . S
C5454 C5450 1.368 . S
C5454 C5453 1.523 . S
H5455 C5430 0.950 . S
H5456 C5432 0.950 . S
H5457 C5433 0.949 . S
H5458 C5435 0.950 . S
H5459 C5437 0.950 . S
C5460 C5461 1.349 . S
C5460 C5462 1.327 . S
C5460 H5485 0.950 . S
C5461 C5460 1.349 . S
C5461 C5477 1.349 . S
C5462 C5460 1.327 . S
C5462 C5481 1.429 . S
C5462 H5486 0.950 . S
C5463 C5480 1.574 . S
C5463 C5482 1.368 . S
C5463 H5487 0.949 . S
H5464 C5468 0.949 . S
C5465 C5466 1.349 . S
C5465 C5467 1.327 . S
C5465 H5488 0.950 . S
C5466 C5465 1.349 . S
C5466 C5478 1.349 . S
C5467 C5465 1.327 . S
C5467 C5483 1.429 . S
C5467 H5489 0.950 . S
C5468 H5464 0.949 . S
C5468 C5476 1.574 . S
C5468 C5484 1.368 . S
H5469 C5477 0.950 . S
H5470 C5475 0.950 . S
H5471 C5476 0.949 . S
H5472 C5478 0.950 . S
H5473 C5479 0.950 . S
H5474 C5480 0.949 . S
C5475 H5470 0.950 . S
C5475 C5477 1.327 . S
C5475 C5481 1.429 . S
C5476 C5468 1.574 . S
C5476 H5471 0.949 . S
C5476 C5482 1.368 . S
C5477 C5461 1.349 . S
C5477 H5469 0.950 . S
C5477 C5475 1.327 . S
C5478 C5466 1.349 . S
C5478 H5472 0.950 . S
C5478 C5479 1.327 . S
C5479 H5473 0.950 . S
C5479 C5478 1.327 . S
C5479 C5483 1.429 . S
C5480 C5463 1.574 . S
C5480 H5474 0.949 . S
C5480 C5484 1.368 . S
C5481 C5462 1.429 . S
C5481 C5475 1.429 . S
C5481 C5482 1.523 . S
C5482 C5463 1.368 . S
C5482 C5476 1.368 . S
C5482 C5481 1.523 . S
C5483 C5467 1.429 . S
C5483 C5479 1.429 . S
C5483 C5484 1.523 . S
C5484 C5468 1.368 . S
C5484 C5480 1.368 . S
C5484 C5483 1.523 . S
H5485 C5460 0.950 . S
H5486 C5462 0.950 . S
H5487 C5463 0.949 . S
H5488 C5465 0.950 . S
H5489 C5467 0.950 . S
C5490 C5491 1.349 . S
C5490 C5492 1.327 . S
C5490 H5515 0.950 . S
C5491 C5490 1.349 . S
C5491 C5507 1.349 . S
C5492 C5490 1.327 . S
C5492 C5511 1.429 . S
C5492 H5516 0.950 . S
C5493 C5510 1.574 . S
C5493 C5512 1.368 . S
C5493 H5517 0.949 . S
H5494 C5498 0.949 . S
C5495 C5496 1.349 . S
C5495 C5497 1.327 . S
C5495 H5518 0.950 . S
C5496 C5495 1.349 . S
C5496 C5508 1.349 . S
C5497 C5495 1.327 . S
C5497 C5513 1.429 . S
C5497 H5519 0.950 . S
C5498 H5494 0.949 . S
C5498 C5506 1.574 . S
C5498 C5514 1.368 . S
H5499 C5507 0.950 . S
H5500 C5505 0.950 . S
H5501 C5506 0.949 . S
H5502 C5508 0.950 . S
H5503 C5509 0.950 . S
H5504 C5510 0.949 . S
C5505 H5500 0.950 . S
C5505 C5507 1.327 . S
C5505 C5511 1.429 . S
C5506 C5498 1.574 . S
C5506 H5501 0.949 . S
C5506 C5512 1.368 . S
C5507 C5491 1.349 . S
C5507 H5499 0.950 . S
C5507 C5505 1.327 . S
C5508 C5496 1.349 . S
C5508 H5502 0.950 . S
C5508 C5509 1.327 . S
C5509 H5503 0.950 . S
C5509 C5508 1.327 . S
C5509 C5513 1.429 . S
C5510 C5493 1.574 . S
C5510 H5504 0.949 . S
C5510 C5514 1.368 . S
C5511 C5492 1.429 . S
C5511 C5505 1.429 . S
C5511 C5512 1.523 . S
C5512 C5493 1.368 . S
C5512 C5506 1.368 . S
C5512 C5511 1.523 . S
C5513 C5497 1.429 . S
C5513 C5509 1.429 . S
C5513 C5514 1.523 . S
C5514 C5498 1.368 . S
C5514 C5510 1.368 . S
C5514 C5513 1.523 . S
H5515 C5490 0.950 . S
H5516 C5492 0.950 . S
H5517 C5493 0.949 . S
H5518 C5495 0.950 . S
H5519 C5497 0.950 . S
C5520 C5521 1.349 . S
C5520 C5522 1.327 . S
C5520 H5545 0.950 . S
C5521 C5520 1.349 . S
C5521 C5537 1.349 . S
C5522 C5520 1.327 . S
C5522 C5541 1.429 . S
C5522 H5546 0.950 . S
C5523 C5540 1.574 . S
C5523 C5542 1.368 . S
C5523 H5547 0.949 . S
H5524 C5528 0.949 . S
C5525 C5526 1.349 . S
C5525 C5527 1.327 . S
C5525 H5548 0.950 . S
C5526 C5525 1.349 . S
C5526 C5538 1.349 . S
C5527 C5525 1.327 . S
C5527 C5543 1.429 . S
C5527 H5549 0.950 . S
C5528 H5524 0.949 . S
C5528 C5536 1.574 . S
C5528 C5544 1.368 . S
H5529 C5537 0.950 . S
H5530 C5535 0.950 . S
H5531 C5536 0.949 . S
H5532 C5538 0.950 . S
H5533 C5539 0.950 . S
H5534 C5540 0.949 . S
C5535 H5530 0.950 . S
C5535 C5537 1.327 . S
C5535 C5541 1.429 . S
C5536 C5528 1.574 . S
C5536 H5531 0.949 . S
C5536 C5542 1.368 . S
C5537 C5521 1.349 . S
C5537 H5529 0.950 . S
C5537 C5535 1.327 . S
C5538 C5526 1.349 . S
C5538 H5532 0.950 . S
C5538 C5539 1.327 . S
C5539 H5533 0.950 . S
C5539 C5538 1.327 . S
C5539 C5543 1.429 . S
C5540 C5523 1.574 . S
C5540 H5534 0.949 . S
C5540 C5544 1.368 . S
C5541 C5522 1.429 . S
C5541 C5535 1.429 . S
C5541 C5542 1.523 . S
C5542 C5523 1.368 . S
C5542 C5536 1.368 . S
C5542 C5541 1.523 . S
C5543 C5527 1.429 . S
C5543 C5539 1.429 . S
C5543 C5544 1.523 . S
C5544 C5528 1.368 . S
C5544 C5540 1.368 . S
C5544 C5543 1.523 . S
H5545 C5520 0.950 . S
H5546 C5522 0.950 . S
H5547 C5523 0.949 . S
H5548 C5525 0.950 . S
H5549 C5527 0.950 . S
C5550 C5551 1.349 . S
C5550 C5552 1.327 . S
C5550 H5575 0.950 . S
C5551 C5550 1.349 . S
C5551 C5567 1.349 . S
C5552 C5550 1.327 . S
C5552 C5571 1.429 . S
C5552 H5576 0.950 . S
C5553 C5570 1.574 . S
C5553 C5572 1.368 . S
C5553 H5577 0.949 . S
H5554 C5558 0.949 . S
C5555 C5556 1.349 . S
C5555 C5557 1.327 . S
C5555 H5578 0.950 . S
C5556 C5555 1.349 . S
C5556 C5568 1.349 . S
C5557 C5555 1.327 . S
C5557 C5573 1.429 . S
C5557 H5579 0.950 . S
C5558 H5554 0.949 . S
C5558 C5566 1.574 . S
C5558 C5574 1.368 . S
H5559 C5567 0.950 . S
H5560 C5565 0.950 . S
H5561 C5566 0.949 . S
H5562 C5568 0.950 . S
H5563 C5569 0.950 . S
H5564 C5570 0.949 . S
C5565 H5560 0.950 . S
C5565 C5567 1.327 . S
C5565 C5571 1.429 . S
C5566 C5558 1.574 . S
C5566 H5561 0.949 . S
C5566 C5572 1.368 . S
C5567 C5551 1.349 . S
C5567 H5559 0.950 . S
C5567 C5565 1.327 . S
C5568 C5556 1.349 . S
C5568 H5562 0.950 . S
C5568 C5569 1.327 . S
C5569 H5563 0.950 . S
C5569 C5568 1.327 . S
C5569 C5573 1.429 . S
C5570 C5553 1.574 . S
C5570 H5564 0.949 . S
C5570 C5574 1.368 . S
C5571 C5552 1.429 . S
C5571 C5565 1.429 . S
C5571 C5572 1.523 . S
C5572 C5553 1.368 . S
C5572 C5566 1.368 . S
C5572 C5571 1.523 . S
C5573 C5557 1.429 . S
C5573 C5569 1.429 . S
C5573 C5574 1.523 . S
C5574 C5558 1.368 . S
C5574 C5570 1.368 . S
C5574 C5573 1.523 . S
H5575 C5550 0.950 . S
H5576 C5552 0.950 . S
H5577 C5553 0.949 . S
H5578 C5555 0.950 . S
H5579 C5557 0.950 . S
C5580 C5581 1.349 . S
C5580 C5582 1.327 . S
C5580 H5605 0.950 . S
C5581 C5580 1.349 . S
C5581 C5597 1.349 . S
C5582 C5580 1.327 . S
C5582 C5601 1.429 . S
C5582 H5606 0.950 . S
C5583 C5600 1.574 . S
C5583 C5602 1.368 . S
C5583 H5607 0.949 . S
H5584 C5588 0.949 . S
C5585 C5586 1.349 . S
C5585 C5587 1.327 . S
C5585 H5608 0.950 . S
C5586 C5585 1.349 . S
C5586 C5598 1.349 . S
C5587 C5585 1.327 . S
C5587 C5603 1.429 . S
C5587 H5609 0.950 . S
C5588 H5584 0.949 . S
C5588 C5596 1.574 . S
C5588 C5604 1.368 . S
H5589 C5597 0.950 . S
H5590 C5595 0.950 . S
H5591 C5596 0.949 . S
H5592 C5598 0.950 . S
H5593 C5599 0.950 . S
H5594 C5600 0.949 . S
C5595 H5590 0.950 . S
C5595 C5597 1.327 . S
C5595 C5601 1.429 . S
C5596 C5588 1.574 . S
C5596 H5591 0.949 . S
C5596 C5602 1.368 . S
C5597 C5581 1.349 . S
C5597 H5589 0.950 . S
C5597 C5595 1.327 . S
C5598 C5586 1.349 . S
C5598 H5592 0.950 . S
C5598 C5599 1.327 . S
C5599 H5593 0.950 . S
C5599 C5598 1.327 . S
C5599 C5603 1.429 . S
C5600 C5583 1.574 . S
C5600 H5594 0.949 . S
C5600 C5604 1.368 . S
C5601 C5582 1.429 . S
C5601 C5595 1.429 . S
C5601 C5602 1.523 . S
C5602 C5583 1.368 . S
C5602 C5596 1.368 . S
C5602 C5601 1.523 . S
C5603 C5587 1.429 . S
C5603 C5599 1.429 . S
C5603 C5604 1.523 . S
C5604 C5588 1.368 . S
C5604 C5600 1.368 . S
C5604 C5603 1.523 . S
H5605 C5580 0.950 . S
H5606 C5582 0.950 . S
H5607 C5583 0.949 . S
H5608 C5585 0.950 . S
H5609 C5587 0.950 . S
C5610 C5611 1.349 . S
C5610 C5612 1.327 . S
C5610 H5635 0.950 . S
C5611 C5610 1.349 . S
C5611 C5627 1.349 . S
C5612 C5610 1.327 . S
C5612 C5631 1.429 . S
C5612 H5636 0.950 . S
C5613 C5630 1.574 . S
C5613 C5632 1.368 . S
C5613 H5637 0.949 . S
H5614 C5618 0.949 . S
C5615 C5616 1.349 . S
C5615 C5617 1.327 . S
C5615 H5638 0.950 . S
C5616 C5615 1.349 . S
C5616 C5628 1.349 . S
C5617 C5615 1.327 . S
C5617 C5633 1.429 . S
C5617 H5639 0.950 . S
C5618 H5614 0.949 . S
C5618 C5626 1.574 . S
C5618 C5634 1.368 . S
H5619 C5627 0.950 . S
H5620 C5625 0.950 . S
H5621 C5626 0.949 . S
H5622 C5628 0.950 . S
H5623 C5629 0.950 . S
H5624 C5630 0.949 . S
C5625 H5620 0.950 . S
C5625 C5627 1.327 . S
C5625 C5631 1.429 . S
C5626 C5618 1.574 . S
C5626 H5621 0.949 . S
C5626 C5632 1.368 . S
C5627 C5611 1.349 . S
C5627 H5619 0.950 . S
C5627 C5625 1.327 . S
C5628 C5616 1.349 . S
C5628 H5622 0.950 . S
C5628 C5629 1.327 . S
C5629 H5623 0.950 . S
C5629 C5628 1.327 . S
C5629 C5633 1.429 . S
C5630 C5613 1.574 . S
C5630 H5624 0.949 . S
C5630 C5634 1.368 . S
C5631 C5612 1.429 . S
C5631 C5625 1.429 . S
C5631 C5632 1.523 . S
C5632 C5613 1.368 . S
C5632 C5626 1.368 . S
C5632 C5631 1.523 . S
C5633 C5617 1.429 . S
C5633 C5629 1.429 . S
C5633 C5634 1.523 . S
C5634 C5618 1.368 . S
C5634 C5630 1.368 . S
C5634 C5633 1.523 . S
H5635 C5610 0.950 . S
H5636 C5612 0.950 . S
H5637 C5613 0.949 . S
H5638 C5615 0.950 . S
H5639 C5617 0.950 . S
C5640 C5641 1.349 . S
C5640 C5642 1.327 . S
C5640 H5665 0.950 . S
C5641 C5640 1.349 . S
C5641 C5657 1.349 . S
C5642 C5640 1.327 . S
C5642 C5661 1.429 . S
C5642 H5666 0.950 . S
C5643 C5660 1.574 . S
C5643 C5662 1.368 . S
C5643 H5667 0.949 . S
H5644 C5648 0.949 . S
C5645 C5646 1.349 . S
C5645 C5647 1.327 . S
C5645 H5668 0.950 . S
C5646 C5645 1.349 . S
C5646 C5658 1.349 . S
C5647 C5645 1.327 . S
C5647 C5663 1.429 . S
C5647 H5669 0.950 . S
C5648 H5644 0.949 . S
C5648 C5656 1.574 . S
C5648 C5664 1.368 . S
H5649 C5657 0.950 . S
H5650 C5655 0.950 . S
H5651 C5656 0.949 . S
H5652 C5658 0.950 . S
H5653 C5659 0.950 . S
H5654 C5660 0.949 . S
C5655 H5650 0.950 . S
C5655 C5657 1.327 . S
C5655 C5661 1.429 . S
C5656 C5648 1.574 . S
C5656 H5651 0.949 . S
C5656 C5662 1.368 . S
C5657 C5641 1.349 . S
C5657 H5649 0.950 . S
C5657 C5655 1.327 . S
C5658 C5646 1.349 . S
C5658 H5652 0.950 . S
C5658 C5659 1.327 . S
C5659 H5653 0.950 . S
C5659 C5658 1.327 . S
C5659 C5663 1.429 . S
C5660 C5643 1.574 . S
C5660 H5654 0.949 . S
C5660 C5664 1.368 . S
C5661 C5642 1.429 . S
C5661 C5655 1.429 . S
C5661 C5662 1.523 . S
C5662 C5643 1.368 . S
C5662 C5656 1.368 . S
C5662 C5661 1.523 . S
C5663 C5647 1.429 . S
C5663 C5659 1.429 . S
C5663 C5664 1.523 . S
C5664 C5648 1.368 . S
C5664 C5660 1.368 . S
C5664 C5663 1.523 . S
H5665 C5640 0.950 . S
H5666 C5642 0.950 . S
H5667 C5643 0.949 . S
H5668 C5645 0.950 . S
H5669 C5647 0.950 . S
C5670 C5671 1.349 . S
C5670 C5672 1.327 . S
C5670 H5695 0.950 . S
C5671 C5670 1.349 . S
C5671 C5687 1.349 . S
C5672 C5670 1.327 . S
C5672 C5691 1.429 . S
C5672 H5696 0.950 . S
C5673 C5690 1.574 . S
C5673 C5692 1.368 . S
C5673 H5697 0.949 . S
H5674 C5678 0.949 . S
C5675 C5676 1.349 . S
C5675 C5677 1.327 . S
C5675 H5698 0.950 . S
C5676 C5675 1.349 . S
C5676 C5688 1.349 . S
C5677 C5675 1.327 . S
C5677 C5693 1.429 . S
C5677 H5699 0.950 . S
C5678 H5674 0.949 . S
C5678 C5686 1.574 . S
C5678 C5694 1.368 . S
H5679 C5687 0.950 . S
H5680 C5685 0.950 . S
H5681 C5686 0.949 . S
H5682 C5688 0.950 . S
H5683 C5689 0.950 . S
H5684 C5690 0.949 . S
C5685 H5680 0.950 . S
C5685 C5687 1.327 . S
C5685 C5691 1.429 . S
C5686 C5678 1.574 . S
C5686 H5681 0.949 . S
C5686 C5692 1.368 . S
C5687 C5671 1.349 . S
C5687 H5679 0.950 . S
C5687 C5685 1.327 . S
C5688 C5676 1.349 . S
C5688 H5682 0.950 . S
C5688 C5689 1.327 . S
C5689 H5683 0.950 . S
C5689 C5688 1.327 . S
C5689 C5693 1.429 . S
C5690 C5673 1.574 . S
C5690 H5684 0.949 . S
C5690 C5694 1.368 . S
C5691 C5672 1.429 . S
C5691 C5685 1.429 . S
C5691 C5692 1.523 . S
C5692 C5673 1.368 . S
C5692 C5686 1.368 . S
C5692 C5691 1.523 . S
C5693 C5677 1.429 . S
C5693 C5689 1.429 . S
C5693 C5694 1.523 . S
C5694 C5678 1.368 . S
C5694 C5690 1.368 . S
C5694 C5693 1.523 . S
H5695 C5670 0.950 . S
H5696 C5672 0.950 . S
H5697 C5673 0.949 . S
H5698 C5675 0.950 . S
H5699 C5677 0.950 . S
C5700 C5701 1.349 . S
C5700 C5702 1.327 . S
C5700 H5725 0.950 . S
C5701 C5700 1.349 . S
C5701 C5717 1.349 . S
C5702 C5700 1.327 . S
C5702 C5721 1.429 . S
C5702 H5726 0.950 . S
C5703 C5720 1.574 . S
C5703 C5722 1.368 . S
C5703 H5727 0.949 . S
H5704 C5708 0.949 . S
C5705 C5706 1.349 . S
C5705 C5707 1.327 . S
C5705 H5728 0.950 . S
C5706 C5705 1.349 . S
C5706 C5718 1.349 . S
C5707 C5705 1.327 . S
C5707 C5723 1.429 . S
C5707 H5729 0.950 . S
C5708 H5704 0.949 . S
C5708 C5716 1.574 . S
C5708 C5724 1.368 . S
H5709 C5717 0.950 . S
H5710 C5715 0.950 . S
H5711 C5716 0.949 . S
H5712 C5718 0.950 . S
H5713 C5719 0.950 . S
H5714 C5720 0.949 . S
C5715 H5710 0.950 . S
C5715 C5717 1.327 . S
C5715 C5721 1.429 . S
C5716 C5708 1.574 . S
C5716 H5711 0.949 . S
C5716 C5722 1.368 . S
C5717 C5701 1.349 . S
C5717 H5709 0.950 . S
C5717 C5715 1.327 . S
C5718 C5706 1.349 . S
C5718 H5712 0.950 . S
C5718 C5719 1.327 . S
C5719 H5713 0.950 . S
C5719 C5718 1.327 . S
C5719 C5723 1.429 . S
C5720 C5703 1.574 . S
C5720 H5714 0.949 . S
C5720 C5724 1.368 . S
C5721 C5702 1.429 . S
C5721 C5715 1.429 . S
C5721 C5722 1.523 . S
C5722 C5703 1.368 . S
C5722 C5716 1.368 . S
C5722 C5721 1.523 . S
C5723 C5707 1.429 . S
C5723 C5719 1.429 . S
C5723 C5724 1.523 . S
C5724 C5708 1.368 . S
C5724 C5720 1.368 . S
C5724 C5723 1.523 . S
H5725 C5700 0.950 . S
H5726 C5702 0.950 . S
H5727 C5703 0.949 . S
H5728 C5705 0.950 . S
H5729 C5707 0.950 . S
C5730 C5731 1.349 . S
C5730 C5732 1.327 . S
C5730 H5755 0.950 . S
C5731 C5730 1.349 . S
C5731 C5747 1.349 . S
C5732 C5730 1.327 . S
C5732 C5751 1.429 . S
C5732 H5756 0.950 . S
C5733 C5750 1.574 . S
C5733 C5752 1.368 . S
C5733 H5757 0.949 . S
H5734 C5738 0.949 . S
C5735 C5736 1.349 . S
C5735 C5737 1.327 . S
C5735 H5758 0.950 . S
C5736 C5735 1.349 . S
C5736 C5748 1.349 . S
C5737 C5735 1.327 . S
C5737 C5753 1.429 . S
C5737 H5759 0.950 . S
C5738 H5734 0.949 . S
C5738 C5746 1.574 . S
C5738 C5754 1.368 . S
H5739 C5747 0.950 . S
H5740 C5745 0.950 . S
H5741 C5746 0.949 . S
H5742 C5748 0.950 . S
H5743 C5749 0.950 . S
H5744 C5750 0.949 . S
C5745 H5740 0.950 . S
C5745 C5747 1.327 . S
C5745 C5751 1.429 . S
C5746 C5738 1.574 . S
C5746 H5741 0.949 . S
C5746 C5752 1.368 . S
C5747 C5731 1.349 . S
C5747 H5739 0.950 . S
C5747 C5745 1.327 . S
C5748 C5736 1.349 . S
C5748 H5742 0.950 . S
C5748 C5749 1.327 . S
C5749 H5743 0.950 . S
C5749 C5748 1.327 . S
C5749 C5753 1.429 . S
C5750 C5733 1.574 . S
C5750 H5744 0.949 . S
C5750 C5754 1.368 . S
C5751 C5732 1.429 . S
C5751 C5745 1.429 . S
C5751 C5752 1.523 . S
C5752 C5733 1.368 . S
C5752 C5746 1.368 . S
C5752 C5751 1.523 . S
C5753 C5737 1.429 . S
C5753 C5749 1.429 . S
C5753 C5754 1.523 . S
C5754 C5738 1.368 . S
C5754 C5750 1.368 . S
C5754 C5753 1.523 . S
H5755 C5730 0.950 . S
H5756 C5732 0.950 . S
H5757 C5733 0.949 . S
H5758 C5735 0.950 . S
H5759 C5737 0.950 . S
C5760 C5761 1.349 . S
C5760 C5762 1.327 . S
C5760 H5785 0.950 . S
C5761 C5760 1.349 . S
C5761 C5777 1.349 . S
C5762 C5760 1.327 . S
C5762 C5781 1.429 . S
C5762 H5786 0.950 . S
C5763 C5780 1.574 . S
C5763 C5782 1.368 . S
C5763 H5787 0.949 . S
H5764 C5768 0.949 . S
C5765 C5766 1.349 . S
C5765 C5767 1.327 . S
C5765 H5788 0.950 . S
C5766 C5765 1.349 . S
C5766 C5778 1.349 . S
C5767 C5765 1.327 . S
C5767 C5783 1.429 . S
C5767 H5789 0.950 . S
C5768 H5764 0.949 . S
C5768 C5776 1.574 . S
C5768 C5784 1.368 . S
H5769 C5777 0.950 . S
H5770 C5775 0.950 . S
H5771 C5776 0.949 . S
H5772 C5778 0.950 . S
H5773 C5779 0.950 . S
H5774 C5780 0.949 . S
C5775 H5770 0.950 . S
C5775 C5777 1.327 . S
C5775 C5781 1.429 . S
C5776 C5768 1.574 . S
C5776 H5771 0.949 . S
C5776 C5782 1.368 . S
C5777 C5761 1.349 . S
C5777 H5769 0.950 . S
C5777 C5775 1.327 . S
C5778 C5766 1.349 . S
C5778 H5772 0.950 . S
C5778 C5779 1.327 . S
C5779 H5773 0.950 . S
C5779 C5778 1.327 . S
C5779 C5783 1.429 . S
C5780 C5763 1.574 . S
C5780 H5774 0.949 . S
C5780 C5784 1.368 . S
C5781 C5762 1.429 . S
C5781 C5775 1.429 . S
C5781 C5782 1.523 . S
C5782 C5763 1.368 . S
C5782 C5776 1.368 . S
C5782 C5781 1.523 . S
C5783 C5767 1.429 . S
C5783 C5779 1.429 . S
C5783 C5784 1.523 . S
C5784 C5768 1.368 . S
C5784 C5780 1.368 . S
C5784 C5783 1.523 . S
H5785 C5760 0.950 . S
H5786 C5762 0.950 . S
H5787 C5763 0.949 . S
H5788 C5765 0.950 . S
H5789 C5767 0.950 . S
C5790 C5791 1.349 . S
C5790 C5792 1.327 . S
C5790 H5815 0.950 . S
C5791 C5790 1.349 . S
C5791 C5807 1.349 . S
C5792 C5790 1.327 . S
C5792 C5811 1.429 . S
C5792 H5816 0.950 . S
C5793 C5810 1.574 . S
C5793 C5812 1.368 . S
C5793 H5817 0.949 . S
H5794 C5798 0.949 . S
C5795 C5796 1.349 . S
C5795 C5797 1.327 . S
C5795 H5818 0.950 . S
C5796 C5795 1.349 . S
C5796 C5808 1.349 . S
C5797 C5795 1.327 . S
C5797 C5813 1.429 . S
C5797 H5819 0.950 . S
C5798 H5794 0.949 . S
C5798 C5806 1.574 . S
C5798 C5814 1.368 . S
H5799 C5807 0.950 . S
H5800 C5805 0.950 . S
H5801 C5806 0.949 . S
H5802 C5808 0.950 . S
H5803 C5809 0.950 . S
H5804 C5810 0.949 . S
C5805 H5800 0.950 . S
C5805 C5807 1.327 . S
C5805 C5811 1.429 . S
C5806 C5798 1.574 . S
C5806 H5801 0.949 . S
C5806 C5812 1.368 . S
C5807 C5791 1.349 . S
C5807 H5799 0.950 . S
C5807 C5805 1.327 . S
C5808 C5796 1.349 . S
C5808 H5802 0.950 . S
C5808 C5809 1.327 . S
C5809 H5803 0.950 . S
C5809 C5808 1.327 . S
C5809 C5813 1.429 . S
C5810 C5793 1.574 . S
C5810 H5804 0.949 . S
C5810 C5814 1.368 . S
C5811 C5792 1.429 . S
C5811 C5805 1.429 . S
C5811 C5812 1.523 . S
C5812 C5793 1.368 . S
C5812 C5806 1.368 . S
C5812 C5811 1.523 . S
C5813 C5797 1.429 . S
C5813 C5809 1.429 . S
C5813 C5814 1.523 . S
C5814 C5798 1.368 . S
C5814 C5810 1.368 . S
C5814 C5813 1.523 . S
H5815 C5790 0.950 . S
H5816 C5792 0.950 . S
H5817 C5793 0.949 . S
H5818 C5795 0.950 . S
H5819 C5797 0.950 . S
C5820 C5821 1.349 . S
C5820 C5822 1.327 . S
C5820 H5845 0.950 . S
C5821 C5820 1.349 . S
C5821 C5837 1.349 . S
C5822 C5820 1.327 . S
C5822 C5841 1.429 . S
C5822 H5846 0.950 . S
C5823 C5840 1.574 . S
C5823 C5842 1.368 . S
C5823 H5847 0.949 . S
H5824 C5828 0.949 . S
C5825 C5826 1.349 . S
C5825 C5827 1.327 . S
C5825 H5848 0.950 . S
C5826 C5825 1.349 . S
C5826 C5838 1.349 . S
C5827 C5825 1.327 . S
C5827 C5843 1.429 . S
C5827 H5849 0.950 . S
C5828 H5824 0.949 . S
C5828 C5836 1.574 . S
C5828 C5844 1.368 . S
H5829 C5837 0.950 . S
H5830 C5835 0.950 . S
H5831 C5836 0.949 . S
H5832 C5838 0.950 . S
H5833 C5839 0.950 . S
H5834 C5840 0.949 . S
C5835 H5830 0.950 . S
C5835 C5837 1.327 . S
C5835 C5841 1.429 . S
C5836 C5828 1.574 . S
C5836 H5831 0.949 . S
C5836 C5842 1.368 . S
C5837 C5821 1.349 . S
C5837 H5829 0.950 . S
C5837 C5835 1.327 . S
C5838 C5826 1.349 . S
C5838 H5832 0.950 . S
C5838 C5839 1.327 . S
C5839 H5833 0.950 . S
C5839 C5838 1.327 . S
C5839 C5843 1.429 . S
C5840 C5823 1.574 . S
C5840 H5834 0.949 . S
C5840 C5844 1.368 . S
C5841 C5822 1.429 . S
C5841 C5835 1.429 . S
C5841 C5842 1.523 . S
C5842 C5823 1.368 . S
C5842 C5836 1.368 . S
C5842 C5841 1.523 . S
C5843 C5827 1.429 . S
C5843 C5839 1.429 . S
C5843 C5844 1.523 . S
C5844 C5828 1.368 . S
C5844 C5840 1.368 . S
C5844 C5843 1.523 . S
H5845 C5820 0.950 . S
H5846 C5822 0.950 . S
H5847 C5823 0.949 . S
H5848 C5825 0.950 . S
H5849 C5827 0.950 . S
C5850 C5851 1.349 . S
C5850 C5852 1.327 . S
C5850 H5875 0.950 . S
C5851 C5850 1.349 . S
C5851 C5867 1.349 . S
C5852 C5850 1.327 . S
C5852 C5871 1.429 . S
C5852 H5876 0.950 . S
C5853 C5870 1.574 . S
C5853 C5872 1.368 . S
C5853 H5877 0.949 . S
H5854 C5858 0.949 . S
C5855 C5856 1.349 . S
C5855 C5857 1.327 . S
C5855 H5878 0.950 . S
C5856 C5855 1.349 . S
C5856 C5868 1.349 . S
C5857 C5855 1.327 . S
C5857 C5873 1.429 . S
C5857 H5879 0.950 . S
C5858 H5854 0.949 . S
C5858 C5866 1.574 . S
C5858 C5874 1.368 . S
H5859 C5867 0.950 . S
H5860 C5865 0.950 . S
H5861 C5866 0.949 . S
H5862 C5868 0.950 . S
H5863 C5869 0.950 . S
H5864 C5870 0.949 . S
C5865 H5860 0.950 . S
C5865 C5867 1.327 . S
C5865 C5871 1.429 . S
C5866 C5858 1.574 . S
C5866 H5861 0.949 . S
C5866 C5872 1.368 . S
C5867 C5851 1.349 . S
C5867 H5859 0.950 . S
C5867 C5865 1.327 . S
C5868 C5856 1.349 . S
C5868 H5862 0.950 . S
C5868 C5869 1.327 . S
C5869 H5863 0.950 . S
C5869 C5868 1.327 . S
C5869 C5873 1.429 . S
C5870 C5853 1.574 . S
C5870 H5864 0.949 . S
C5870 C5874 1.368 . S
C5871 C5852 1.429 . S
C5871 C5865 1.429 . S
C5871 C5872 1.523 . S
C5872 C5853 1.368 . S
C5872 C5866 1.368 . S
C5872 C5871 1.523 . S
C5873 C5857 1.429 . S
C5873 C5869 1.429 . S
C5873 C5874 1.523 . S
C5874 C5858 1.368 . S
C5874 C5870 1.368 . S
C5874 C5873 1.523 . S
H5875 C5850 0.950 . S
H5876 C5852 0.950 . S
H5877 C5853 0.949 . S
H5878 C5855 0.950 . S
H5879 C5857 0.950 . S
C5880 C5881 1.349 . S
C5880 C5882 1.327 . S
C5880 H5905 0.950 . S
C5881 C5880 1.349 . S
C5881 C5897 1.349 . S
C5882 C5880 1.327 . S
C5882 C5901 1.429 . S
C5882 H5906 0.950 . S
C5883 C5900 1.574 . S
C5883 C5902 1.368 . S
C5883 H5907 0.949 . S
H5884 C5888 0.949 . S
C5885 C5886 1.349 . S
C5885 C5887 1.327 . S
C5885 H5908 0.950 . S
C5886 C5885 1.349 . S
C5886 C5898 1.349 . S
C5887 C5885 1.327 . S
C5887 C5903 1.429 . S
C5887 H5909 0.950 . S
C5888 H5884 0.949 . S
C5888 C5896 1.574 . S
C5888 C5904 1.368 . S
H5889 C5897 0.950 . S
H5890 C5895 0.950 . S
H5891 C5896 0.949 . S
H5892 C5898 0.950 . S
H5893 C5899 0.950 . S
H5894 C5900 0.949 . S
C5895 H5890 0.950 . S
C5895 C5897 1.327 . S
C5895 C5901 1.429 . S
C5896 C5888 1.574 . S
C5896 H5891 0.949 . S
C5896 C5902 1.368 . S
C5897 C5881 1.349 . S
C5897 H5889 0.950 . S
C5897 C5895 1.327 . S
C5898 C5886 1.349 . S
C5898 H5892 0.950 . S
C5898 C5899 1.327 . S
C5899 H5893 0.950 . S
C5899 C5898 1.327 . S
C5899 C5903 1.429 . S
C5900 C5883 1.574 . S
C5900 H5894 0.949 . S
C5900 C5904 1.368 . S
C5901 C5882 1.429 . S
C5901 C5895 1.429 . S
C5901 C5902 1.523 . S
C5902 C5883 1.368 . S
C5902 C5896 1.368 . S
C5902 C5901 1.523 . S
C5903 C5887 1.429 . S
C5903 C5899 1.429 . S
C5903 C5904 1.523 . S
C5904 C5888 1.368 . S
C5904 C5900 1.368 . S
C5904 C5903 1.523 . S
H5905 C5880 0.950 . S
H5906 C5882 0.950 . S
H5907 C5883 0.949 . S
H5908 C5885 0.950 . S
H5909 C5887 0.950 . S
C5910 C5911 1.349 . S
C5910 C5912 1.327 . S
C5910 H5935 0.950 . S
C5911 C5910 1.349 . S
C5911 C5927 1.349 . S
C5912 C5910 1.327 . S
C5912 C5931 1.429 . S
C5912 H5936 0.950 . S
C5913 C5930 1.574 . S
C5913 C5932 1.368 . S
C5913 H5937 0.949 . S
H5914 C5918 0.949 . S
C5915 C5916 1.349 . S
C5915 C5917 1.327 . S
C5915 H5938 0.950 . S
C5916 C5915 1.349 . S
C5916 C5928 1.349 . S
C5917 C5915 1.327 . S
C5917 C5933 1.429 . S
C5917 H5939 0.950 . S
C5918 H5914 0.949 . S
C5918 C5926 1.574 . S
C5918 C5934 1.368 . S
H5919 C5927 0.950 . S
H5920 C5925 0.950 . S
H5921 C5926 0.949 . S
H5922 C5928 0.950 . S
H5923 C5929 0.950 . S
H5924 C5930 0.949 . S
C5925 H5920 0.950 . S
C5925 C5927 1.327 . S
C5925 C5931 1.429 . S
C5926 C5918 1.574 . S
C5926 H5921 0.949 . S
C5926 C5932 1.368 . S
C5927 C5911 1.349 . S
C5927 H5919 0.950 . S
C5927 C5925 1.327 . S
C5928 C5916 1.349 . S
C5928 H5922 0.950 . S
C5928 C5929 1.327 . S
C5929 H5923 0.950 . S
C5929 C5928 1.327 . S
C5929 C5933 1.429 . S
C5930 C5913 1.574 . S
C5930 H5924 0.949 . S
C5930 C5934 1.368 . S
C5931 C5912 1.429 . S
C5931 C5925 1.429 . S
C5931 C5932 1.523 . S
C5932 C5913 1.368 . S
C5932 C5926 1.368 . S
C5932 C5931 1.523 . S
C5933 C5917 1.429 . S
C5933 C5929 1.429 . S
C5933 C5934 1.523 . S
C5934 C5918 1.368 . S
C5934 C5930 1.368 . S
C5934 C5933 1.523 . S
H5935 C5910 0.950 . S
H5936 C5912 0.950 . S
H5937 C5913 0.949 . S
H5938 C5915 0.950 . S
H5939 C5917 0.950 . S
C5940 C5941 1.349 . S
C5940 C5942 1.327 . S
C5940 H5965 0.950 . S
C5941 C5940 1.349 . S
C5941 C5957 1.349 . S
C5942 C5940 1.327 . S
C5942 C5961 1.429 . S
C5942 H5966 0.950 . S
C5943 C5960 1.574 . S
C5943 C5962 1.368 . S
C5943 H5967 0.949 . S
H5944 C5948 0.949 . S
C5945 C5946 1.349 . S
C5945 C5947 1.327 . S
C5945 H5968 0.950 . S
C5946 C5945 1.349 . S
C5946 C5958 1.349 . S
C5947 C5945 1.327 . S
C5947 C5963 1.429 . S
C5947 H5969 0.950 . S
C5948 H5944 0.949 . S
C5948 C5956 1.574 . S
C5948 C5964 1.368 . S
H5949 C5957 0.950 . S
H5950 C5955 0.950 . S
H5951 C5956 0.949 . S
H5952 C5958 0.950 . S
H5953 C5959 0.950 . S
H5954 C5960 0.949 . S
C5955 H5950 0.950 . S
C5955 C5957 1.327 . S
C5955 C5961 1.429 . S
C5956 C5948 1.574 . S
C5956 H5951 0.949 . S
C5956 C5962 1.368 . S
C5957 C5941 1.349 . S
C5957 H5949 0.950 . S
C5957 C5955 1.327 . S
C5958 C5946 1.349 . S
C5958 H5952 0.950 . S
C5958 C5959 1.327 . S
C5959 H5953 0.950 . S
C5959 C5958 1.327 . S
C5959 C5963 1.429 . S
C5960 C5943 1.574 . S
C5960 H5954 0.949 . S
C5960 C5964 1.368 . S
C5961 C5942 1.429 . S
C5961 C5955 1.429 . S
C5961 C5962 1.523 . S
C5962 C5943 1.368 . S
C5962 C5956 1.368 . S
C5962 C5961 1.523 . S
C5963 C5947 1.429 . S
C5963 C5959 1.429 . S
C5963 C5964 1.523 . S
C5964 C5948 1.368 . S
C5964 C5960 1.368 . S
C5964 C5963 1.523 . S
H5965 C5940 0.950 . S
H5966 C5942 0.950 . S
H5967 C5943 0.949 . S
H5968 C5945 0.950 . S
H5969 C5947 0.950 . S
C5970 C5971 1.349 . S
C5970 C5972 1.327 . S
C5970 H5995 0.950 . S
C5971 C5970 1.349 . S
C5971 C5987 1.349 . S
C5972 C5970 1.327 . S
C5972 C5991 1.429 . S
C5972 H5996 0.950 . S
C5973 C5990 1.574 . S
C5973 C5992 1.368 . S
C5973 H5997 0.949 . S
H5974 C5978 0.949 . S
C5975 C5976 1.349 . S
C5975 C5977 1.327 . S
C5975 H5998 0.950 . S
C5976 C5975 1.349 . S
C5976 C5988 1.349 . S
C5977 C5975 1.327 . S
C5977 C5993 1.429 . S
C5977 H5999 0.950 . S
C5978 H5974 0.949 . S
C5978 C5986 1.574 . S
C5978 C5994 1.368 . S
H5979 C5987 0.950 . S
H5980 C5985 0.950 . S
H5981 C5986 0.949 . S
H5982 C5988 0.950 . S
H5983 C5989 0.950 . S
H5984 C5990 0.949 . S
C5985 H5980 0.950 . S
C5985 C5987 1.327 . S
C5985 C5991 1.429 . S
C5986 C5978 1.574 . S
C5986 H5981 0.949 . S
C5986 C5992 1.368 . S
C5987 C5971 1.349 . S
C5987 H5979 0.950 . S
C5987 C5985 1.327 . S
C5988 C5976 1.349 . S
C5988 H5982 0.950 . S
C5988 C5989 1.327 . S
C5989 H5983 0.950 . S
C5989 C5988 1.327 . S
C5989 C5993 1.429 . S
C5990 C5973 1.574 . S
C5990 H5984 0.949 . S
C5990 C5994 1.368 . S
C5991 C5972 1.429 . S
C5991 C5985 1.429 . S
C5991 C5992 1.523 . S
C5992 C5973 1.368 . S
C5992 C5986 1.368 . S
C5992 C5991 1.523 . S
C5993 C5977 1.429 . S
C5993 C5989 1.429 . S
C5993 C5994 1.523 . S
C5994 C5978 1.368 . S
C5994 C5990 1.368 . S
C5994 C5993 1.523 . S
H5995 C5970 0.950 . S
H5996 C5972 0.950 . S
H5997 C5973 0.949 . S
H5998 C5975 0.950 . S
H5999 C5977 0.950 . S
C6000 C6001 1.349 . S
C6000 C6002 1.327 . S
C6000 H6025 0.950 . S
C6001 C6000 1.349 . S
C6001 C6017 1.349 . S
C6002 C6000 1.327 . S
C6002 C6021 1.429 . S
C6002 H6026 0.950 . S
C6003 C6020 1.574 . S
C6003 C6022 1.368 . S
C6003 H6027 0.949 . S
H6004 C6008 0.949 . S
C6005 C6006 1.349 . S
C6005 C6007 1.327 . S
C6005 H6028 0.950 . S
C6006 C6005 1.349 . S
C6006 C6018 1.349 . S
C6007 C6005 1.327 . S
C6007 C6023 1.429 . S
C6007 H6029 0.950 . S
C6008 H6004 0.949 . S
C6008 C6016 1.574 . S
C6008 C6024 1.368 . S
H6009 C6017 0.950 . S
H6010 C6015 0.950 . S
H6011 C6016 0.949 . S
H6012 C6018 0.950 . S
H6013 C6019 0.950 . S
H6014 C6020 0.949 . S
C6015 H6010 0.950 . S
C6015 C6017 1.327 . S
C6015 C6021 1.429 . S
C6016 C6008 1.574 . S
C6016 H6011 0.949 . S
C6016 C6022 1.368 . S
C6017 C6001 1.349 . S
C6017 H6009 0.950 . S
C6017 C6015 1.327 . S
C6018 C6006 1.349 . S
C6018 H6012 0.950 . S
C6018 C6019 1.327 . S
C6019 H6013 0.950 . S
C6019 C6018 1.327 . S
C6019 C6023 1.429 . S
C6020 C6003 1.574 . S
C6020 H6014 0.949 . S
C6020 C6024 1.368 . S
C6021 C6002 1.429 . S
C6021 C6015 1.429 . S
C6021 C6022 1.523 . S
C6022 C6003 1.368 . S
C6022 C6016 1.368 . S
C6022 C6021 1.523 . S
C6023 C6007 1.429 . S
C6023 C6019 1.429 . S
C6023 C6024 1.523 . S
C6024 C6008 1.368 . S
C6024 C6020 1.368 . S
C6024 C6023 1.523 . S
H6025 C6000 0.950 . S
H6026 C6002 0.950 . S
H6027 C6003 0.949 . S
H6028 C6005 0.950 . S
H6029 C6007 0.950 . S
C6030 C6031 1.349 . S
C6030 C6032 1.327 . S
C6030 H6055 0.950 . S
C6031 C6030 1.349 . S
C6031 C6047 1.349 . S
C6032 C6030 1.327 . S
C6032 C6051 1.429 . S
C6032 H6056 0.950 . S
C6033 C6050 1.574 . S
C6033 C6052 1.368 . S
C6033 H6057 0.949 . S
H6034 C6038 0.949 . S
C6035 C6036 1.349 . S
C6035 C6037 1.327 . S
C6035 H6058 0.950 . S
C6036 C6035 1.349 . S
C6036 C6048 1.349 . S
C6037 C6035 1.327 . S
C6037 C6053 1.429 . S
C6037 H6059 0.950 . S
C6038 H6034 0.949 . S
C6038 C6046 1.574 . S
C6038 C6054 1.368 . S
H6039 C6047 0.950 . S
H6040 C6045 0.950 . S
H6041 C6046 0.949 . S
H6042 C6048 0.950 . S
H6043 C6049 0.950 . S
H6044 C6050 0.949 . S
C6045 H6040 0.950 . S
C6045 C6047 1.327 . S
C6045 C6051 1.429 . S
C6046 C6038 1.574 . S
C6046 H6041 0.949 . S
C6046 C6052 1.368 . S
C6047 C6031 1.349 . S
C6047 H6039 0.950 . S
C6047 C6045 1.327 . S
C6048 C6036 1.349 . S
C6048 H6042 0.950 . S
C6048 C6049 1.327 . S
C6049 H6043 0.950 . S
C6049 C6048 1.327 . S
C6049 C6053 1.429 . S
C6050 C6033 1.574 . S
C6050 H6044 0.949 . S
C6050 C6054 1.368 . S
C6051 C6032 1.429 . S
C6051 C6045 1.429 . S
C6051 C6052 1.523 . S
C6052 C6033 1.368 . S
C6052 C6046 1.368 . S
C6052 C6051 1.523 . S
C6053 C6037 1.429 . S
C6053 C6049 1.429 . S
C6053 C6054 1.523 . S
C6054 C6038 1.368 . S
C6054 C6050 1.368 . S
C6054 C6053 1.523 . S
H6055 C6030 0.950 . S
H6056 C6032 0.950 . S
H6057 C6033 0.949 . S
H6058 C6035 0.950 . S
H6059 C6037 0.950 . S
C6060 C6061 1.349 . S
C6060 C6062 1.327 . S
C6060 H6085 0.950 . S
C6061 C6060 1.349 . S
C6061 C6077 1.349 . S
C6062 C6060 1.327 . S
C6062 C6081 1.429 . S
C6062 H6086 0.950 . S
C6063 C6080 1.574 . S
C6063 C6082 1.368 . S
C6063 H6087 0.949 . S
H6064 C6068 0.949 . S
C6065 C6066 1.349 . S
C6065 C6067 1.327 . S
C6065 H6088 0.950 . S
C6066 C6065 1.349 . S
C6066 C6078 1.349 . S
C6067 C6065 1.327 . S
C6067 C6083 1.429 . S
C6067 H6089 0.950 . S
C6068 H6064 0.949 . S
C6068 C6076 1.574 . S
C6068 C6084 1.368 . S
H6069 C6077 0.950 . S
H6070 C6075 0.950 . S
H6071 C6076 0.949 . S
H6072 C6078 0.950 . S
H6073 C6079 0.950 . S
H6074 C6080 0.949 . S
C6075 H6070 0.950 . S
C6075 C6077 1.327 . S
C6075 C6081 1.429 . S
C6076 C6068 1.574 . S
C6076 H6071 0.949 . S
C6076 C6082 1.368 . S
C6077 C6061 1.349 . S
C6077 H6069 0.950 . S
C6077 C6075 1.327 . S
C6078 C6066 1.349 . S
C6078 H6072 0.950 . S
C6078 C6079 1.327 . S
C6079 H6073 0.950 . S
C6079 C6078 1.327 . S
C6079 C6083 1.429 . S
C6080 C6063 1.574 . S
C6080 H6074 0.949 . S
C6080 C6084 1.368 . S
C6081 C6062 1.429 . S
C6081 C6075 1.429 . S
C6081 C6082 1.523 . S
C6082 C6063 1.368 . S
C6082 C6076 1.368 . S
C6082 C6081 1.523 . S
C6083 C6067 1.429 . S
C6083 C6079 1.429 . S
C6083 C6084 1.523 . S
C6084 C6068 1.368 . S
C6084 C6080 1.368 . S
C6084 C6083 1.523 . S
H6085 C6060 0.950 . S
H6086 C6062 0.950 . S
H6087 C6063 0.949 . S
H6088 C6065 0.950 . S
H6089 C6067 0.950 . S
C6090 C6091 1.349 . S
C6090 C6092 1.327 . S
C6090 H6115 0.950 . S
C6091 C6090 1.349 . S
C6091 C6107 1.349 . S
C6092 C6090 1.327 . S
C6092 C6111 1.429 . S
C6092 H6116 0.950 . S
C6093 C6110 1.574 . S
C6093 C6112 1.368 . S
C6093 H6117 0.949 . S
H6094 C6098 0.949 . S
C6095 C6096 1.349 . S
C6095 C6097 1.327 . S
C6095 H6118 0.950 . S
C6096 C6095 1.349 . S
C6096 C6108 1.349 . S
C6097 C6095 1.327 . S
C6097 C6113 1.429 . S
C6097 H6119 0.950 . S
C6098 H6094 0.949 . S
C6098 C6106 1.574 . S
C6098 C6114 1.368 . S
H6099 C6107 0.950 . S
H6100 C6105 0.950 . S
H6101 C6106 0.949 . S
H6102 C6108 0.950 . S
H6103 C6109 0.950 . S
H6104 C6110 0.949 . S
C6105 H6100 0.950 . S
C6105 C6107 1.327 . S
C6105 C6111 1.429 . S
C6106 C6098 1.574 . S
C6106 H6101 0.949 . S
C6106 C6112 1.368 . S
C6107 C6091 1.349 . S
C6107 H6099 0.950 . S
C6107 C6105 1.327 . S
C6108 C6096 1.349 . S
C6108 H6102 0.950 . S
C6108 C6109 1.327 . S
C6109 H6103 0.950 . S
C6109 C6108 1.327 . S
C6109 C6113 1.429 . S
C6110 C6093 1.574 . S
C6110 H6104 0.949 . S
C6110 C6114 1.368 . S
C6111 C6092 1.429 . S
C6111 C6105 1.429 . S
C6111 C6112 1.523 . S
C6112 C6093 1.368 . S
C6112 C6106 1.368 . S
C6112 C6111 1.523 . S
C6113 C6097 1.429 . S
C6113 C6109 1.429 . S
C6113 C6114 1.523 . S
C6114 C6098 1.368 . S
C6114 C6110 1.368 . S
C6114 C6113 1.523 . S
H6115 C6090 0.950 . S
H6116 C6092 0.950 . S
H6117 C6093 0.949 . S
H6118 C6095 0.950 . S
H6119 C6097 0.950 . S
C6120 C6121 1.349 . S
C6120 C6122 1.327 . S
C6120 H6145 0.950 . S
C6121 C6120 1.349 . S
C6121 C6137 1.349 . S
C6122 C6120 1.327 . S
C6122 C6141 1.429 . S
C6122 H6146 0.950 . S
C6123 C6140 1.574 . S
C6123 C6142 1.368 . S
C6123 H6147 0.949 . S
H6124 C6128 0.949 . S
C6125 C6126 1.349 . S
C6125 C6127 1.327 . S
C6125 H6148 0.950 . S
C6126 C6125 1.349 . S
C6126 C6138 1.349 . S
C6127 C6125 1.327 . S
C6127 C6143 1.429 . S
C6127 H6149 0.950 . S
C6128 H6124 0.949 . S
C6128 C6136 1.574 . S
C6128 C6144 1.368 . S
H6129 C6137 0.950 . S
H6130 C6135 0.950 . S
H6131 C6136 0.949 . S
H6132 C6138 0.950 . S
H6133 C6139 0.950 . S
H6134 C6140 0.949 . S
C6135 H6130 0.950 . S
C6135 C6137 1.327 . S
C6135 C6141 1.429 . S
C6136 C6128 1.574 . S
C6136 H6131 0.949 . S
C6136 C6142 1.368 . S
C6137 C6121 1.349 . S
C6137 H6129 0.950 . S
C6137 C6135 1.327 . S
C6138 C6126 1.349 . S
C6138 H6132 0.950 . S
C6138 C6139 1.327 . S
C6139 H6133 0.950 . S
C6139 C6138 1.327 . S
C6139 C6143 1.429 . S
C6140 C6123 1.574 . S
C6140 H6134 0.949 . S
C6140 C6144 1.368 . S
C6141 C6122 1.429 . S
C6141 C6135 1.429 . S
C6141 C6142 1.523 . S
C6142 C6123 1.368 . S
C6142 C6136 1.368 . S
C6142 C6141 1.523 . S
C6143 C6127 1.429 . S
C6143 C6139 1.429 . S
C6143 C6144 1.523 . S
C6144 C6128 1.368 . S
C6144 C6140 1.368 . S
C6144 C6143 1.523 . S
H6145 C6120 0.950 . S
H6146 C6122 0.950 . S
H6147 C6123 0.949 . S
H6148 C6125 0.950 . S
H6149 C6127 0.950 . S
C6150 C6151 1.349 . S
C6150 C6152 1.327 . S
C6150 H6175 0.950 . S
C6151 C6150 1.349 . S
C6151 C6167 1.349 . S
C6152 C6150 1.327 . S
C6152 C6171 1.429 . S
C6152 H6176 0.950 . S
C6153 C6170 1.574 . S
C6153 C6172 1.368 . S
C6153 H6177 0.949 . S
H6154 C6158 0.949 . S
C6155 C6156 1.349 . S
C6155 C6157 1.327 . S
C6155 H6178 0.950 . S
C6156 C6155 1.349 . S
C6156 C6168 1.349 . S
C6157 C6155 1.327 . S
C6157 C6173 1.429 . S
C6157 H6179 0.950 . S
C6158 H6154 0.949 . S
C6158 C6166 1.574 . S
C6158 C6174 1.368 . S
H6159 C6167 0.950 . S
H6160 C6165 0.950 . S
H6161 C6166 0.949 . S
H6162 C6168 0.950 . S
H6163 C6169 0.950 . S
H6164 C6170 0.949 . S
C6165 H6160 0.950 . S
C6165 C6167 1.327 . S
C6165 C6171 1.429 . S
C6166 C6158 1.574 . S
C6166 H6161 0.949 . S
C6166 C6172 1.368 . S
C6167 C6151 1.349 . S
C6167 H6159 0.950 . S
C6167 C6165 1.327 . S
C6168 C6156 1.349 . S
C6168 H6162 0.950 . S
C6168 C6169 1.327 . S
C6169 H6163 0.950 . S
C6169 C6168 1.327 . S
C6169 C6173 1.429 . S
C6170 C6153 1.574 . S
C6170 H6164 0.949 . S
C6170 C6174 1.368 . S
C6171 C6152 1.429 . S
C6171 C6165 1.429 . S
C6171 C6172 1.523 . S
C6172 C6153 1.368 . S
C6172 C6166 1.368 . S
C6172 C6171 1.523 . S
C6173 C6157 1.429 . S
C6173 C6169 1.429 . S
C6173 C6174 1.523 . S
C6174 C6158 1.368 . S
C6174 C6170 1.368 . S
C6174 C6173 1.523 . S
H6175 C6150 0.950 . S
H6176 C6152 0.950 . S
H6177 C6153 0.949 . S
H6178 C6155 0.950 . S
H6179 C6157 0.950 . S
C6180 C6181 1.349 . S
C6180 C6182 1.327 . S
C6180 H6205 0.950 . S
C6181 C6180 1.349 . S
C6181 C6197 1.349 . S
C6182 C6180 1.327 . S
C6182 C6201 1.429 . S
C6182 H6206 0.950 . S
C6183 C6200 1.574 . S
C6183 C6202 1.368 . S
C6183 H6207 0.949 . S
H6184 C6188 0.949 . S
C6185 C6186 1.349 . S
C6185 C6187 1.327 . S
C6185 H6208 0.950 . S
C6186 C6185 1.349 . S
C6186 C6198 1.349 . S
C6187 C6185 1.327 . S
C6187 C6203 1.429 . S
C6187 H6209 0.950 . S
C6188 H6184 0.949 . S
C6188 C6196 1.574 . S
C6188 C6204 1.368 . S
H6189 C6197 0.950 . S
H6190 C6195 0.950 . S
H6191 C6196 0.949 . S
H6192 C6198 0.950 . S
H6193 C6199 0.950 . S
H6194 C6200 0.949 . S
C6195 H6190 0.950 . S
C6195 C6197 1.327 . S
C6195 C6201 1.429 . S
C6196 C6188 1.574 . S
C6196 H6191 0.949 . S
C6196 C6202 1.368 . S
C6197 C6181 1.349 . S
C6197 H6189 0.950 . S
C6197 C6195 1.327 . S
C6198 C6186 1.349 . S
C6198 H6192 0.950 . S
C6198 C6199 1.327 . S
C6199 H6193 0.950 . S
C6199 C6198 1.327 . S
C6199 C6203 1.429 . S
C6200 C6183 1.574 . S
C6200 H6194 0.949 . S
C6200 C6204 1.368 . S
C6201 C6182 1.429 . S
C6201 C6195 1.429 . S
C6201 C6202 1.523 . S
C6202 C6183 1.368 . S
C6202 C6196 1.368 . S
C6202 C6201 1.523 . S
C6203 C6187 1.429 . S
C6203 C6199 1.429 . S
C6203 C6204 1.523 . S
C6204 C6188 1.368 . S
C6204 C6200 1.368 . S
C6204 C6203 1.523 . S
H6205 C6180 0.950 . S
H6206 C6182 0.950 . S
H6207 C6183 0.949 . S
H6208 C6185 0.950 . S
H6209 C6187 0.950 . S
C6210 C6211 1.349 . S
C6210 C6212 1.327 . S
C6210 H6235 0.950 . S
C6211 C6210 1.349 . S
C6211 C6227 1.349 . S
C6212 C6210 1.327 . S
C6212 C6231 1.429 . S
C6212 H6236 0.950 . S
C6213 C6230 1.574 . S
C6213 C6232 1.368 . S
C6213 H6237 0.949 . S
H6214 C6218 0.949 . S
C6215 C6216 1.349 . S
C6215 C6217 1.327 . S
C6215 H6238 0.950 . S
C6216 C6215 1.349 . S
C6216 C6228 1.349 . S
C6217 C6215 1.327 . S
C6217 C6233 1.429 . S
C6217 H6239 0.950 . S
C6218 H6214 0.949 . S
C6218 C6226 1.574 . S
C6218 C6234 1.368 . S
H6219 C6227 0.950 . S
H6220 C6225 0.950 . S
H6221 C6226 0.949 . S
H6222 C6228 0.950 . S
H6223 C6229 0.950 . S
H6224 C6230 0.949 . S
C6225 H6220 0.950 . S
C6225 C6227 1.327 . S
C6225 C6231 1.429 . S
C6226 C6218 1.574 . S
C6226 H6221 0.949 . S
C6226 C6232 1.368 . S
C6227 C6211 1.349 . S
C6227 H6219 0.950 . S
C6227 C6225 1.327 . S
C6228 C6216 1.349 . S
C6228 H6222 0.950 . S
C6228 C6229 1.327 . S
C6229 H6223 0.950 . S
C6229 C6228 1.327 . S
C6229 C6233 1.429 . S
C6230 C6213 1.574 . S
C6230 H6224 0.949 . S
C6230 C6234 1.368 . S
C6231 C6212 1.429 . S
C6231 C6225 1.429 . S
C6231 C6232 1.523 . S
C6232 C6213 1.368 . S
C6232 C6226 1.368 . S
C6232 C6231 1.523 . S
C6233 C6217 1.429 . S
C6233 C6229 1.429 . S
C6233 C6234 1.523 . S
C6234 C6218 1.368 . S
C6234 C6230 1.368 . S
C6234 C6233 1.523 . S
H6235 C6210 0.950 . S
H6236 C6212 0.950 . S
H6237 C6213 0.949 . S
H6238 C6215 0.950 . S
H6239 C6217 0.950 . S
C6240 C6241 1.349 . S
C6240 C6242 1.327 . S
C6240 H6265 0.950 . S
C6241 C6240 1.349 . S
C6241 C6257 1.349 . S
C6242 C6240 1.327 . S
C6242 C6261 1.429 . S
C6242 H6266 0.950 . S
C6243 C6260 1.574 . S
C6243 C6262 1.368 . S
C6243 H6267 0.949 . S
H6244 C6248 0.949 . S
C6245 C6246 1.349 . S
C6245 C6247 1.327 . S
C6245 H6268 0.950 . S
C6246 C6245 1.349 . S
C6246 C6258 1.349 . S
C6247 C6245 1.327 . S
C6247 C6263 1.429 . S
C6247 H6269 0.950 . S
C6248 H6244 0.949 . S
C6248 C6256 1.574 . S
C6248 C6264 1.368 . S
H6249 C6257 0.950 . S
H6250 C6255 0.950 . S
H6251 C6256 0.949 . S
H6252 C6258 0.950 . S
H6253 C6259 0.950 . S
H6254 C6260 0.949 . S
C6255 H6250 0.950 . S
C6255 C6257 1.327 . S
C6255 C6261 1.429 . S
C6256 C6248 1.574 . S
C6256 H6251 0.949 . S
C6256 C6262 1.368 . S
C6257 C6241 1.349 . S
C6257 H6249 0.950 . S
C6257 C6255 1.327 . S
C6258 C6246 1.349 . S
C6258 H6252 0.950 . S
C6258 C6259 1.327 . S
C6259 H6253 0.950 . S
C6259 C6258 1.327 . S
C6259 C6263 1.429 . S
C6260 C6243 1.574 . S
C6260 H6254 0.949 . S
C6260 C6264 1.368 . S
C6261 C6242 1.429 . S
C6261 C6255 1.429 . S
C6261 C6262 1.523 . S
C6262 C6243 1.368 . S
C6262 C6256 1.368 . S
C6262 C6261 1.523 . S
C6263 C6247 1.429 . S
C6263 C6259 1.429 . S
C6263 C6264 1.523 . S
C6264 C6248 1.368 . S
C6264 C6260 1.368 . S
C6264 C6263 1.523 . S
H6265 C6240 0.950 . S
H6266 C6242 0.950 . S
H6267 C6243 0.949 . S
H6268 C6245 0.950 . S
H6269 C6247 0.950 . S
C6270 C6271 1.349 . S
C6270 C6272 1.327 . S
C6270 H6295 0.950 . S
C6271 C6270 1.349 . S
C6271 C6287 1.349 . S
C6272 C6270 1.327 . S
C6272 C6291 1.429 . S
C6272 H6296 0.950 . S
C6273 C6290 1.574 . S
C6273 C6292 1.368 . S
C6273 H6297 0.949 . S
H6274 C6278 0.949 . S
C6275 C6276 1.349 . S
C6275 C6277 1.327 . S
C6275 H6298 0.950 . S
C6276 C6275 1.349 . S
C6276 C6288 1.349 . S
C6277 C6275 1.327 . S
C6277 C6293 1.429 . S
C6277 H6299 0.950 . S
C6278 H6274 0.949 . S
C6278 C6286 1.574 . S
C6278 C6294 1.368 . S
H6279 C6287 0.950 . S
H6280 C6285 0.950 . S
H6281 C6286 0.949 . S
H6282 C6288 0.950 . S
H6283 C6289 0.950 . S
H6284 C6290 0.949 . S
C6285 H6280 0.950 . S
C6285 C6287 1.327 . S
C6285 C6291 1.429 . S
C6286 C6278 1.574 . S
C6286 H6281 0.949 . S
C6286 C6292 1.368 . S
C6287 C6271 1.349 . S
C6287 H6279 0.950 . S
C6287 C6285 1.327 . S
C6288 C6276 1.349 . S
C6288 H6282 0.950 . S
C6288 C6289 1.327 . S
C6289 H6283 0.950 . S
C6289 C6288 1.327 . S
C6289 C6293 1.429 . S
C6290 C6273 1.574 . S
C6290 H6284 0.949 . S
C6290 C6294 1.368 . S
C6291 C6272 1.429 . S
C6291 C6285 1.429 . S
C6291 C6292 1.523 . S
C6292 C6273 1.368 . S
C6292 C6286 1.368 . S
C6292 C6291 1.523 . S
C6293 C6277 1.429 . S
C6293 C6289 1.429 . S
C6293 C6294 1.523 . S
C6294 C6278 1.368 . S
C6294 C6290 1.368 . S
C6294 C6293 1.523 . S
H6295 C6270 0.950 . S
H6296 C6272 0.950 . S
H6297 C6273 0.949 . S
H6298 C6275 0.950 . S
H6299 C6277 0.950 . S
C6300 C6301 1.349 . S
C6300 C6302 1.327 . S
C6300 H6325 0.950 . S
C6301 C6300 1.349 . S
C6301 C6317 1.349 . S
C6302 C6300 1.327 . S
C6302 C6321 1.429 . S
C6302 H6326 0.950 . S
C6303 C6320 1.574 . S
C6303 C6322 1.368 . S
C6303 H6327 0.949 . S
H6304 C6308 0.949 . S
C6305 C6306 1.349 . S
C6305 C6307 1.327 . S
C6305 H6328 0.950 . S
C6306 C6305 1.349 . S
C6306 C6318 1.349 . S
C6307 C6305 1.327 . S
C6307 C6323 1.429 . S
C6307 H6329 0.950 . S
C6308 H6304 0.949 . S
C6308 C6316 1.574 . S
C6308 C6324 1.368 . S
H6309 C6317 0.950 . S
H6310 C6315 0.950 . S
H6311 C6316 0.949 . S
H6312 C6318 0.950 . S
H6313 C6319 0.950 . S
H6314 C6320 0.949 . S
C6315 H6310 0.950 . S
C6315 C6317 1.327 . S
C6315 C6321 1.429 . S
C6316 C6308 1.574 . S
C6316 H6311 0.949 . S
C6316 C6322 1.368 . S
C6317 C6301 1.349 . S
C6317 H6309 0.950 . S
C6317 C6315 1.327 . S
C6318 C6306 1.349 . S
C6318 H6312 0.950 . S
C6318 C6319 1.327 . S
C6319 H6313 0.950 . S
C6319 C6318 1.327 . S
C6319 C6323 1.429 . S
C6320 C6303 1.574 . S
C6320 H6314 0.949 . S
C6320 C6324 1.368 . S
C6321 C6302 1.429 . S
C6321 C6315 1.429 . S
C6321 C6322 1.523 . S
C6322 C6303 1.368 . S
C6322 C6316 1.368 . S
C6322 C6321 1.523 . S
C6323 C6307 1.429 . S
C6323 C6319 1.429 . S
C6323 C6324 1.523 . S
C6324 C6308 1.368 . S
C6324 C6320 1.368 . S
C6324 C6323 1.523 . S
H6325 C6300 0.950 . S
H6326 C6302 0.950 . S
H6327 C6303 0.949 . S
H6328 C6305 0.950 . S
H6329 C6307 0.950 . S
C6330 C6331 1.349 . S
C6330 C6332 1.327 . S
C6330 H6355 0.950 . S
C6331 C6330 1.349 . S
C6331 C6347 1.349 . S
C6332 C6330 1.327 . S
C6332 C6351 1.429 . S
C6332 H6356 0.950 . S
C6333 C6350 1.574 . S
C6333 C6352 1.368 . S
C6333 H6357 0.949 . S
H6334 C6338 0.949 . S
C6335 C6336 1.349 . S
C6335 C6337 1.327 . S
C6335 H6358 0.950 . S
C6336 C6335 1.349 . S
C6336 C6348 1.349 . S
C6337 C6335 1.327 . S
C6337 C6353 1.429 . S
C6337 H6359 0.950 . S
C6338 H6334 0.949 . S
C6338 C6346 1.574 . S
C6338 C6354 1.368 . S
H6339 C6347 0.950 . S
H6340 C6345 0.950 . S
H6341 C6346 0.949 . S
H6342 C6348 0.950 . S
H6343 C6349 0.950 . S
H6344 C6350 0.949 . S
C6345 H6340 0.950 . S
C6345 C6347 1.327 . S
C6345 C6351 1.429 . S
C6346 C6338 1.574 . S
C6346 H6341 0.949 . S
C6346 C6352 1.368 . S
C6347 C6331 1.349 . S
C6347 H6339 0.950 . S
C6347 C6345 1.327 . S
C6348 C6336 1.349 . S
C6348 H6342 0.950 . S
C6348 C6349 1.327 . S
C6349 H6343 0.950 . S
C6349 C6348 1.327 . S
C6349 C6353 1.429 . S
C6350 C6333 1.574 . S
C6350 H6344 0.949 . S
C6350 C6354 1.368 . S
C6351 C6332 1.429 . S
C6351 C6345 1.429 . S
C6351 C6352 1.523 . S
C6352 C6333 1.368 . S
C6352 C6346 1.368 . S
C6352 C6351 1.523 . S
C6353 C6337 1.429 . S
C6353 C6349 1.429 . S
C6353 C6354 1.523 . S
C6354 C6338 1.368 . S
C6354 C6350 1.368 . S
C6354 C6353 1.523 . S
H6355 C6330 0.950 . S
H6356 C6332 0.950 . S
H6357 C6333 0.949 . S
H6358 C6335 0.950 . S
H6359 C6337 0.950 . S
C6360 C6361 1.349 . S
C6360 C6362 1.327 . S
C6360 H6385 0.950 . S
C6361 C6360 1.349 . S
C6361 C6377 1.349 . S
C6362 C6360 1.327 . S
C6362 C6381 1.429 . S
C6362 H6386 0.950 . S
C6363 C6380 1.574 . S
C6363 C6382 1.368 . S
C6363 H6387 0.949 . S
H6364 C6368 0.949 . S
C6365 C6366 1.349 . S
C6365 C6367 1.327 . S
C6365 H6388 0.950 . S
C6366 C6365 1.349 . S
C6366 C6378 1.349 . S
C6367 C6365 1.327 . S
C6367 C6383 1.429 . S
C6367 H6389 0.950 . S
C6368 H6364 0.949 . S
C6368 C6376 1.574 . S
C6368 C6384 1.368 . S
H6369 C6377 0.950 . S
H6370 C6375 0.950 . S
H6371 C6376 0.949 . S
H6372 C6378 0.950 . S
H6373 C6379 0.950 . S
H6374 C6380 0.949 . S
C6375 H6370 0.950 . S
C6375 C6377 1.327 . S
C6375 C6381 1.429 . S
C6376 C6368 1.574 . S
C6376 H6371 0.949 . S
C6376 C6382 1.368 . S
C6377 C6361 1.349 . S
C6377 H6369 0.950 . S
C6377 C6375 1.327 . S
C6378 C6366 1.349 . S
C6378 H6372 0.950 . S
C6378 C6379 1.327 . S
C6379 H6373 0.950 . S
C6379 C6378 1.327 . S
C6379 C6383 1.429 . S
C6380 C6363 1.574 . S
C6380 H6374 0.949 . S
C6380 C6384 1.368 . S
C6381 C6362 1.429 . S
C6381 C6375 1.429 . S
C6381 C6382 1.523 . S
C6382 C6363 1.368 . S
C6382 C6376 1.368 . S
C6382 C6381 1.523 . S
C6383 C6367 1.429 . S
C6383 C6379 1.429 . S
C6383 C6384 1.523 . S
C6384 C6368 1.368 . S
C6384 C6380 1.368 . S
C6384 C6383 1.523 . S
H6385 C6360 0.950 . S
H6386 C6362 0.950 . S
H6387 C6363 0.949 . S
H6388 C6365 0.950 . S
H6389 C6367 0.950 . S
C6390 C6391 1.349 . S
C6390 C6392 1.327 . S
C6390 H6415 0.950 . S
C6391 C6390 1.349 . S
C6391 C6407 1.349 . S
C6392 C6390 1.327 . S
C6392 C6411 1.429 . S
C6392 H6416 0.950 . S
C6393 C6410 1.574 . S
C6393 C6412 1.368 . S
C6393 H6417 0.949 . S
H6394 C6398 0.949 . S
C6395 C6396 1.349 . S
C6395 C6397 1.327 . S
C6395 H6418 0.950 . S
C6396 C6395 1.349 . S
C6396 C6408 1.349 . S
C6397 C6395 1.327 . S
C6397 C6413 1.429 . S
C6397 H6419 0.950 . S
C6398 H6394 0.949 . S
C6398 C6406 1.574 . S
C6398 C6414 1.368 . S
H6399 C6407 0.950 . S
H6400 C6405 0.950 . S
H6401 C6406 0.949 . S
H6402 C6408 0.950 . S
H6403 C6409 0.950 . S
H6404 C6410 0.949 . S
C6405 H6400 0.950 . S
C6405 C6407 1.327 . S
C6405 C6411 1.429 . S
C6406 C6398 1.574 . S
C6406 H6401 0.949 . S
C6406 C6412 1.368 . S
C6407 C6391 1.349 . S
C6407 H6399 0.950 . S
C6407 C6405 1.327 . S
C6408 C6396 1.349 . S
C6408 H6402 0.950 . S
C6408 C6409 1.327 . S
C6409 H6403 0.950 . S
C6409 C6408 1.327 . S
C6409 C6413 1.429 . S
C6410 C6393 1.574 . S
C6410 H6404 0.949 . S
C6410 C6414 1.368 . S
C6411 C6392 1.429 . S
C6411 C6405 1.429 . S
C6411 C6412 1.523 . S
C6412 C6393 1.368 . S
C6412 C6406 1.368 . S
C6412 C6411 1.523 . S
C6413 C6397 1.429 . S
C6413 C6409 1.429 . S
C6413 C6414 1.523 . S
C6414 C6398 1.368 . S
C6414 C6410 1.368 . S
C6414 C6413 1.523 . S
H6415 C6390 0.950 . S
H6416 C6392 0.950 . S
H6417 C6393 0.949 . S
H6418 C6395 0.950 . S
H6419 C6397 0.950 . S
C6420 C6421 1.349 . S
C6420 C6422 1.327 . S
C6420 H6445 0.950 . S
C6421 C6420 1.349 . S
C6421 C6437 1.349 . S
C6422 C6420 1.327 . S
C6422 C6441 1.429 . S
C6422 H6446 0.950 . S
C6423 C6440 1.574 . S
C6423 C6442 1.368 . S
C6423 H6447 0.949 . S
H6424 C6428 0.949 . S
C6425 C6426 1.349 . S
C6425 C6427 1.327 . S
C6425 H6448 0.950 . S
C6426 C6425 1.349 . S
C6426 C6438 1.349 . S
C6427 C6425 1.327 . S
C6427 C6443 1.429 . S
C6427 H6449 0.950 . S
C6428 H6424 0.949 . S
C6428 C6436 1.574 . S
C6428 C6444 1.368 . S
H6429 C6437 0.950 . S
H6430 C6435 0.950 . S
H6431 C6436 0.949 . S
H6432 C6438 0.950 . S
H6433 C6439 0.950 . S
H6434 C6440 0.949 . S
C6435 H6430 0.950 . S
C6435 C6437 1.327 . S
C6435 C6441 1.429 . S
C6436 C6428 1.574 . S
C6436 H6431 0.949 . S
C6436 C6442 1.368 . S
C6437 C6421 1.349 . S
C6437 H6429 0.950 . S
C6437 C6435 1.327 . S
C6438 C6426 1.349 . S
C6438 H6432 0.950 . S
C6438 C6439 1.327 . S
C6439 H6433 0.950 . S
C6439 C6438 1.327 . S
C6439 C6443 1.429 . S
C6440 C6423 1.574 . S
C6440 H6434 0.949 . S
C6440 C6444 1.368 . S
C6441 C6422 1.429 . S
C6441 C6435 1.429 . S
C6441 C6442 1.523 . S
C6442 C6423 1.368 . S
C6442 C6436 1.368 . S
C6442 C6441 1.523 . S
C6443 C6427 1.429 . S
C6443 C6439 1.429 . S
C6443 C6444 1.523 . S
C6444 C6428 1.368 . S
C6444 C6440 1.368 . S
C6444 C6443 1.523 . S
H6445 C6420 0.950 . S
H6446 C6422 0.950 . S
H6447 C6423 0.949 . S
H6448 C6425 0.950 . S
H6449 C6427 0.950 . S
C6450 C6451 1.349 . S
C6450 C6452 1.327 . S
C6450 H6475 0.950 . S
C6451 C6450 1.349 . S
C6451 C6467 1.349 . S
C6452 C6450 1.327 . S
C6452 C6471 1.429 . S
C6452 H6476 0.950 . S
C6453 C6470 1.574 . S
C6453 C6472 1.368 . S
C6453 H6477 0.949 . S
H6454 C6458 0.949 . S
C6455 C6456 1.349 . S
C6455 C6457 1.327 . S
C6455 H6478 0.950 . S
C6456 C6455 1.349 . S
C6456 C6468 1.349 . S
C6457 C6455 1.327 . S
C6457 C6473 1.429 . S
C6457 H6479 0.950 . S
C6458 H6454 0.949 . S
C6458 C6466 1.574 . S
C6458 C6474 1.368 . S
H6459 C6467 0.950 . S
H6460 C6465 0.950 . S
H6461 C6466 0.949 . S
H6462 C6468 0.950 . S
H6463 C6469 0.950 . S
H6464 C6470 0.949 . S
C6465 H6460 0.950 . S
C6465 C6467 1.327 . S
C6465 C6471 1.429 . S
C6466 C6458 1.574 . S
C6466 H6461 0.949 . S
C6466 C6472 1.368 . S
C6467 C6451 1.349 . S
C6467 H6459 0.950 . S
C6467 C6465 1.327 . S
C6468 C6456 1.349 . S
C6468 H6462 0.950 . S
C6468 C6469 1.327 . S
C6469 H6463 0.950 . S
C6469 C6468 1.327 . S
C6469 C6473 1.429 . S
C6470 C6453 1.574 . S
C6470 H6464 0.949 . S
C6470 C6474 1.368 . S
C6471 C6452 1.429 . S
C6471 C6465 1.429 . S
C6471 C6472 1.523 . S
C6472 C6453 1.368 . S
C6472 C6466 1.368 . S
C6472 C6471 1.523 . S
C6473 C6457 1.429 . S
C6473 C6469 1.429 . S
C6473 C6474 1.523 . S
C6474 C6458 1.368 . S
C6474 C6470 1.368 . S
C6474 C6473 1.523 . S
H6475 C6450 0.950 . S
H6476 C6452 0.950 . S
H6477 C6453 0.949 . S
H6478 C6455 0.950 . S
H6479 C6457 0.950 . S
C6480 C6481 1.349 . S
C6480 C6482 1.327 . S
C6480 H6505 0.950 . S
C6481 C6480 1.349 . S
C6481 C6497 1.349 . S
C6482 C6480 1.327 . S
C6482 C6501 1.429 . S
C6482 H6506 0.950 . S
C6483 C6500 1.574 . S
C6483 C6502 1.368 . S
C6483 H6507 0.949 . S
H6484 C6488 0.949 . S
C6485 C6486 1.349 . S
C6485 C6487 1.327 . S
C6485 H6508 0.950 . S
C6486 C6485 1.349 . S
C6486 C6498 1.349 . S
C6487 C6485 1.327 . S
C6487 C6503 1.429 . S
C6487 H6509 0.950 . S
C6488 H6484 0.949 . S
C6488 C6496 1.574 . S
C6488 C6504 1.368 . S
H6489 C6497 0.950 . S
H6490 C6495 0.950 . S
H6491 C6496 0.949 . S
H6492 C6498 0.950 . S
H6493 C6499 0.950 . S
H6494 C6500 0.949 . S
C6495 H6490 0.950 . S
C6495 C6497 1.327 . S
C6495 C6501 1.429 . S
C6496 C6488 1.574 . S
C6496 H6491 0.949 . S
C6496 C6502 1.368 . S
C6497 C6481 1.349 . S
C6497 H6489 0.950 . S
C6497 C6495 1.327 . S
C6498 C6486 1.349 . S
C6498 H6492 0.950 . S
C6498 C6499 1.327 . S
C6499 H6493 0.950 . S
C6499 C6498 1.327 . S
C6499 C6503 1.429 . S
C6500 C6483 1.574 . S
C6500 H6494 0.949 . S
C6500 C6504 1.368 . S
C6501 C6482 1.429 . S
C6501 C6495 1.429 . S
C6501 C6502 1.523 . S
C6502 C6483 1.368 . S
C6502 C6496 1.368 . S
C6502 C6501 1.523 . S
C6503 C6487 1.429 . S
C6503 C6499 1.429 . S
C6503 C6504 1.523 . S
C6504 C6488 1.368 . S
C6504 C6500 1.368 . S
C6504 C6503 1.523 . S
H6505 C6480 0.950 . S
H6506 C6482 0.950 . S
H6507 C6483 0.949 . S
H6508 C6485 0.950 . S
H6509 C6487 0.950 . S
C6510 C6511 1.349 . S
C6510 C6512 1.327 . S
C6510 H6535 0.950 . S
C6511 C6510 1.349 . S
C6511 C6527 1.349 . S
C6512 C6510 1.327 . S
C6512 C6531 1.429 . S
C6512 H6536 0.950 . S
C6513 C6530 1.574 . S
C6513 C6532 1.368 . S
C6513 H6537 0.949 . S
H6514 C6518 0.949 . S
C6515 C6516 1.349 . S
C6515 C6517 1.327 . S
C6515 H6538 0.950 . S
C6516 C6515 1.349 . S
C6516 C6528 1.349 . S
C6517 C6515 1.327 . S
C6517 C6533 1.429 . S
C6517 H6539 0.950 . S
C6518 H6514 0.949 . S
C6518 C6526 1.574 . S
C6518 C6534 1.368 . S
H6519 C6527 0.950 . S
H6520 C6525 0.950 . S
H6521 C6526 0.949 . S
H6522 C6528 0.950 . S
H6523 C6529 0.950 . S
H6524 C6530 0.949 . S
C6525 H6520 0.950 . S
C6525 C6527 1.327 . S
C6525 C6531 1.429 . S
C6526 C6518 1.574 . S
C6526 H6521 0.949 . S
C6526 C6532 1.368 . S
C6527 C6511 1.349 . S
C6527 H6519 0.950 . S
C6527 C6525 1.327 . S
C6528 C6516 1.349 . S
C6528 H6522 0.950 . S
C6528 C6529 1.327 . S
C6529 H6523 0.950 . S
C6529 C6528 1.327 . S
C6529 C6533 1.429 . S
C6530 C6513 1.574 . S
C6530 H6524 0.949 . S
C6530 C6534 1.368 . S
C6531 C6512 1.429 . S
C6531 C6525 1.429 . S
C6531 C6532 1.523 . S
C6532 C6513 1.368 . S
C6532 C6526 1.368 . S
C6532 C6531 1.523 . S
C6533 C6517 1.429 . S
C6533 C6529 1.429 . S
C6533 C6534 1.523 . S
C6534 C6518 1.368 . S
C6534 C6530 1.368 . S
C6534 C6533 1.523 . S
H6535 C6510 0.950 . S
H6536 C6512 0.950 . S
H6537 C6513 0.949 . S
H6538 C6515 0.950 . S
H6539 C6517 0.950 . S
C6540 C6541 1.349 . S
C6540 C6542 1.327 . S
C6540 H6565 0.950 . S
C6541 C6540 1.349 . S
C6541 C6557 1.349 . S
C6542 C6540 1.327 . S
C6542 C6561 1.429 . S
C6542 H6566 0.950 . S
C6543 C6560 1.574 . S
C6543 C6562 1.368 . S
C6543 H6567 0.949 . S
H6544 C6548 0.949 . S
C6545 C6546 1.349 . S
C6545 C6547 1.327 . S
C6545 H6568 0.950 . S
C6546 C6545 1.349 . S
C6546 C6558 1.349 . S
C6547 C6545 1.327 . S
C6547 C6563 1.429 . S
C6547 H6569 0.950 . S
C6548 H6544 0.949 . S
C6548 C6556 1.574 . S
C6548 C6564 1.368 . S
H6549 C6557 0.950 . S
H6550 C6555 0.950 . S
H6551 C6556 0.949 . S
H6552 C6558 0.950 . S
H6553 C6559 0.950 . S
H6554 C6560 0.949 . S
C6555 H6550 0.950 . S
C6555 C6557 1.327 . S
C6555 C6561 1.429 . S
C6556 C6548 1.574 . S
C6556 H6551 0.949 . S
C6556 C6562 1.368 . S
C6557 C6541 1.349 . S
C6557 H6549 0.950 . S
C6557 C6555 1.327 . S
C6558 C6546 1.349 . S
C6558 H6552 0.950 . S
C6558 C6559 1.327 . S
C6559 H6553 0.950 . S
C6559 C6558 1.327 . S
C6559 C6563 1.429 . S
C6560 C6543 1.574 . S
C6560 H6554 0.949 . S
C6560 C6564 1.368 . S
C6561 C6542 1.429 . S
C6561 C6555 1.429 . S
C6561 C6562 1.523 . S
C6562 C6543 1.368 . S
C6562 C6556 1.368 . S
C6562 C6561 1.523 . S
C6563 C6547 1.429 . S
C6563 C6559 1.429 . S
C6563 C6564 1.523 . S
C6564 C6548 1.368 . S
C6564 C6560 1.368 . S
C6564 C6563 1.523 . S
H6565 C6540 0.950 . S
H6566 C6542 0.950 . S
H6567 C6543 0.949 . S
H6568 C6545 0.950 . S
H6569 C6547 0.950 . S
C6570 C6571 1.349 . S
C6570 C6572 1.327 . S
C6570 H6595 0.950 . S
C6571 C6570 1.349 . S
C6571 C6587 1.349 . S
C6572 C6570 1.327 . S
C6572 C6591 1.429 . S
C6572 H6596 0.950 . S
C6573 C6590 1.574 . S
C6573 C6592 1.368 . S
C6573 H6597 0.949 . S
H6574 C6578 0.949 . S
C6575 C6576 1.349 . S
C6575 C6577 1.327 . S
C6575 H6598 0.950 . S
C6576 C6575 1.349 . S
C6576 C6588 1.349 . S
C6577 C6575 1.327 . S
C6577 C6593 1.429 . S
C6577 H6599 0.950 . S
C6578 H6574 0.949 . S
C6578 C6586 1.574 . S
C6578 C6594 1.368 . S
H6579 C6587 0.950 . S
H6580 C6585 0.950 . S
H6581 C6586 0.949 . S
H6582 C6588 0.950 . S
H6583 C6589 0.950 . S
H6584 C6590 0.949 . S
C6585 H6580 0.950 . S
C6585 C6587 1.327 . S
C6585 C6591 1.429 . S
C6586 C6578 1.574 . S
C6586 H6581 0.949 . S
C6586 C6592 1.368 . S
C6587 C6571 1.349 . S
C6587 H6579 0.950 . S
C6587 C6585 1.327 . S
C6588 C6576 1.349 . S
C6588 H6582 0.950 . S
C6588 C6589 1.327 . S
C6589 H6583 0.950 . S
C6589 C6588 1.327 . S
C6589 C6593 1.429 . S
C6590 C6573 1.574 . S
C6590 H6584 0.949 . S
C6590 C6594 1.368 . S
C6591 C6572 1.429 . S
C6591 C6585 1.429 . S
C6591 C6592 1.523 . S
C6592 C6573 1.368 . S
C6592 C6586 1.368 . S
C6592 C6591 1.523 . S
C6593 C6577 1.429 . S
C6593 C6589 1.429 . S
C6593 C6594 1.523 . S
C6594 C6578 1.368 . S
C6594 C6590 1.368 . S
C6594 C6593 1.523 . S
H6595 C6570 0.950 . S
H6596 C6572 0.950 . S
H6597 C6573 0.949 . S
H6598 C6575 0.950 . S
H6599 C6577 0.950 . S
C6600 C6601 1.349 . S
C6600 C6602 1.327 . S
C6600 H6625 0.950 . S
C6601 C6600 1.349 . S
C6601 C6617 1.349 . S
C6602 C6600 1.327 . S
C6602 C6621 1.429 . S
C6602 H6626 0.950 . S
C6603 C6620 1.574 . S
C6603 C6622 1.368 . S
C6603 H6627 0.949 . S
H6604 C6608 0.949 . S
C6605 C6606 1.349 . S
C6605 C6607 1.327 . S
C6605 H6628 0.950 . S
C6606 C6605 1.349 . S
C6606 C6618 1.349 . S
C6607 C6605 1.327 . S
C6607 C6623 1.429 . S
C6607 H6629 0.950 . S
C6608 H6604 0.949 . S
C6608 C6616 1.574 . S
C6608 C6624 1.368 . S
H6609 C6617 0.950 . S
H6610 C6615 0.950 . S
H6611 C6616 0.949 . S
H6612 C6618 0.950 . S
H6613 C6619 0.950 . S
H6614 C6620 0.949 . S
C6615 H6610 0.950 . S
C6615 C6617 1.327 . S
C6615 C6621 1.429 . S
C6616 C6608 1.574 . S
C6616 H6611 0.949 . S
C6616 C6622 1.368 . S
C6617 C6601 1.349 . S
C6617 H6609 0.950 . S
C6617 C6615 1.327 . S
C6618 C6606 1.349 . S
C6618 H6612 0.950 . S
C6618 C6619 1.327 . S
C6619 H6613 0.950 . S
C6619 C6618 1.327 . S
C6619 C6623 1.429 . S
C6620 C6603 1.574 . S
C6620 H6614 0.949 . S
C6620 C6624 1.368 . S
C6621 C6602 1.429 . S
C6621 C6615 1.429 . S
C6621 C6622 1.523 . S
C6622 C6603 1.368 . S
C6622 C6616 1.368 . S
C6622 C6621 1.523 . S
C6623 C6607 1.429 . S
C6623 C6619 1.429 . S
C6623 C6624 1.523 . S
C6624 C6608 1.368 . S
C6624 C6620 1.368 . S
C6624 C6623 1.523 . S
H6625 C6600 0.950 . S
H6626 C6602 0.950 . S
H6627 C6603 0.949 . S
H6628 C6605 0.950 . S
H6629 C6607 0.950 . S
C6630 C6631 1.349 . S
C6630 C6632 1.327 . S
C6630 H6655 0.950 . S
C6631 C6630 1.349 . S
C6631 C6647 1.349 . S
C6632 C6630 1.327 . S
C6632 C6651 1.429 . S
C6632 H6656 0.950 . S
C6633 C6650 1.574 . S
C6633 C6652 1.368 . S
C6633 H6657 0.949 . S
H6634 C6638 0.949 . S
C6635 C6636 1.349 . S
C6635 C6637 1.327 . S
C6635 H6658 0.950 . S
C6636 C6635 1.349 . S
C6636 C6648 1.349 . S
C6637 C6635 1.327 . S
C6637 C6653 1.429 . S
C6637 H6659 0.950 . S
C6638 H6634 0.949 . S
C6638 C6646 1.574 . S
C6638 C6654 1.368 . S
H6639 C6647 0.950 . S
H6640 C6645 0.950 . S
H6641 C6646 0.949 . S
H6642 C6648 0.950 . S
H6643 C6649 0.950 . S
H6644 C6650 0.949 . S
C6645 H6640 0.950 . S
C6645 C6647 1.327 . S
C6645 C6651 1.429 . S
C6646 C6638 1.574 . S
C6646 H6641 0.949 . S
C6646 C6652 1.368 . S
C6647 C6631 1.349 . S
C6647 H6639 0.950 . S
C6647 C6645 1.327 . S
C6648 C6636 1.349 . S
C6648 H6642 0.950 . S
C6648 C6649 1.327 . S
C6649 H6643 0.950 . S
C6649 C6648 1.327 . S
C6649 C6653 1.429 . S
C6650 C6633 1.574 . S
C6650 H6644 0.949 . S
C6650 C6654 1.368 . S
C6651 C6632 1.429 . S
C6651 C6645 1.429 . S
C6651 C6652 1.523 . S
C6652 C6633 1.368 . S
C6652 C6646 1.368 . S
C6652 C6651 1.523 . S
C6653 C6637 1.429 . S
C6653 C6649 1.429 . S
C6653 C6654 1.523 . S
C6654 C6638 1.368 . S
C6654 C6650 1.368 . S
C6654 C6653 1.523 . S
H6655 C6630 0.950 . S
H6656 C6632 0.950 . S
H6657 C6633 0.949 . S
H6658 C6635 0.950 . S
H6659 C6637 0.950 . S
C6660 C6661 1.349 . S
C6660 C6662 1.327 . S
C6660 H6685 0.950 . S
C6661 C6660 1.349 . S
C6661 C6677 1.349 . S
C6662 C6660 1.327 . S
C6662 C6681 1.429 . S
C6662 H6686 0.950 . S
C6663 C6680 1.574 . S
C6663 C6682 1.368 . S
C6663 H6687 0.949 . S
H6664 C6668 0.949 . S
C6665 C6666 1.349 . S
C6665 C6667 1.327 . S
C6665 H6688 0.950 . S
C6666 C6665 1.349 . S
C6666 C6678 1.349 . S
C6667 C6665 1.327 . S
C6667 C6683 1.429 . S
C6667 H6689 0.950 . S
C6668 H6664 0.949 . S
C6668 C6676 1.574 . S
C6668 C6684 1.368 . S
H6669 C6677 0.950 . S
H6670 C6675 0.950 . S
H6671 C6676 0.949 . S
H6672 C6678 0.950 . S
H6673 C6679 0.950 . S
H6674 C6680 0.949 . S
C6675 H6670 0.950 . S
C6675 C6677 1.327 . S
C6675 C6681 1.429 . S
C6676 C6668 1.574 . S
C6676 H6671 0.949 . S
C6676 C6682 1.368 . S
C6677 C6661 1.349 . S
C6677 H6669 0.950 . S
C6677 C6675 1.327 . S
C6678 C6666 1.349 . S
C6678 H6672 0.950 . S
C6678 C6679 1.327 . S
C6679 H6673 0.950 . S
C6679 C6678 1.327 . S
C6679 C6683 1.429 . S
C6680 C6663 1.574 . S
C6680 H6674 0.949 . S
C6680 C6684 1.368 . S
C6681 C6662 1.429 . S
C6681 C6675 1.429 . S
C6681 C6682 1.523 . S
C6682 C6663 1.368 . S
C6682 C6676 1.368 . S
C6682 C6681 1.523 . S
C6683 C6667 1.429 . S
C6683 C6679 1.429 . S
C6683 C6684 1.523 . S
C6684 C6668 1.368 . S
C6684 C6680 1.368 . S
C6684 C6683 1.523 . S
H6685 C6660 0.950 . S
H6686 C6662 0.950 . S
H6687 C6663 0.949 . S
H6688 C6665 0.950 . S
H6689 C6667 0.950 . S
C6690 C6691 1.349 . S
C6690 C6692 1.327 . S
C6690 H6715 0.950 . S
C6691 C6690 1.349 . S
C6691 C6707 1.349 . S
C6692 C6690 1.327 . S
C6692 C6711 1.429 . S
C6692 H6716 0.950 . S
C6693 C6710 1.574 . S
C6693 C6712 1.368 . S
C6693 H6717 0.949 . S
H6694 C6698 0.949 . S
C6695 C6696 1.349 . S
C6695 C6697 1.327 . S
C6695 H6718 0.950 . S
C6696 C6695 1.349 . S
C6696 C6708 1.349 . S
C6697 C6695 1.327 . S
C6697 C6713 1.429 . S
C6697 H6719 0.950 . S
C6698 H6694 0.949 . S
C6698 C6706 1.574 . S
C6698 C6714 1.368 . S
H6699 C6707 0.950 . S
H6700 C6705 0.950 . S
H6701 C6706 0.949 . S
H6702 C6708 0.950 . S
H6703 C6709 0.950 . S
H6704 C6710 0.949 . S
C6705 H6700 0.950 . S
C6705 C6707 1.327 . S
C6705 C6711 1.429 . S
C6706 C6698 1.574 . S
C6706 H6701 0.949 . S
C6706 C6712 1.368 . S
C6707 C6691 1.349 . S
C6707 H6699 0.950 . S
C6707 C6705 1.327 . S
C6708 C6696 1.349 . S
C6708 H6702 0.950 . S
C6708 C6709 1.327 . S
C6709 H6703 0.950 . S
C6709 C6708 1.327 . S
C6709 C6713 1.429 . S
C6710 C6693 1.574 . S
C6710 H6704 0.949 . S
C6710 C6714 1.368 . S
C6711 C6692 1.429 . S
C6711 C6705 1.429 . S
C6711 C6712 1.523 . S
C6712 C6693 1.368 . S
C6712 C6706 1.368 . S
C6712 C6711 1.523 . S
C6713 C6697 1.429 . S
C6713 C6709 1.429 . S
C6713 C6714 1.523 . S
C6714 C6698 1.368 . S
C6714 C6710 1.368 . S
C6714 C6713 1.523 . S
H6715 C6690 0.950 . S
H6716 C6692 0.950 . S
H6717 C6693 0.949 . S
H6718 C6695 0.950 . S
H6719 C6697 0.950 . S
C6720 C6721 1.349 . S
C6720 C6722 1.327 . S
C6720 H6745 0.950 . S
C6721 C6720 1.349 . S
C6721 C6737 1.349 . S
C6722 C6720 1.327 . S
C6722 C6741 1.429 . S
C6722 H6746 0.950 . S
C6723 C6740 1.574 1_655 S
C6723 C6742 1.368 . S
C6723 H6747 0.949 . S
H6724 C6728 0.949 . S
C6725 C6726 1.349 . S
C6725 C6727 1.327 . S
C6725 H6748 0.950 . S
C6726 C6725 1.349 . S
C6726 C6738 1.349 . S
C6727 C6725 1.327 . S
C6727 C6743 1.429 . S
C6727 H6749 0.950 . S
C6728 H6724 0.949 . S
C6728 C6736 1.574 1_455 S
C6728 C6744 1.368 . S
H6729 C6737 0.950 . S
H6730 C6735 0.950 . S
H6731 C6736 0.949 . S
H6732 C6738 0.950 . S
H6733 C6739 0.950 . S
H6734 C6740 0.949 . S
C6735 H6730 0.950 . S
C6735 C6737 1.327 . S
C6735 C6741 1.429 . S
C6736 C6728 1.574 1_655 S
C6736 H6731 0.949 . S
C6736 C6742 1.368 . S
C6737 C6721 1.349 . S
C6737 H6729 0.950 . S
C6737 C6735 1.327 . S
C6738 C6726 1.349 . S
C6738 H6732 0.950 . S
C6738 C6739 1.327 . S
C6739 H6733 0.950 . S
C6739 C6738 1.327 . S
C6739 C6743 1.429 . S
C6740 C6723 1.574 1_455 S
C6740 H6734 0.949 . S
C6740 C6744 1.368 . S
C6741 C6722 1.429 . S
C6741 C6735 1.429 . S
C6741 C6742 1.523 . S
C6742 C6723 1.368 . S
C6742 C6736 1.368 . S
C6742 C6741 1.523 . S
C6743 C6727 1.429 . S
C6743 C6739 1.429 . S
C6743 C6744 1.523 . S
C6744 C6728 1.368 . S
C6744 C6740 1.368 . S
C6744 C6743 1.523 . S
H6745 C6720 0.950 . S
H6746 C6722 0.950 . S
H6747 C6723 0.949 . S
H6748 C6725 0.950 . S
H6749 C6727 0.950 . S
C6750 C6751 1.349 . S
C6750 C6752 1.327 . S
C6750 H6775 0.950 . S
C6751 C6750 1.349 . S
C6751 C6767 1.349 . S
C6752 C6750 1.327 . S
C6752 C6771 1.429 . S
C6752 H6776 0.950 . S
C6753 C6770 1.574 1_565 S
C6753 C6772 1.368 . S
C6753 H6777 0.949 . S
H6754 C6758 0.949 . S
C6755 C6756 1.349 . S
C6755 C6757 1.327 . S
C6755 H6778 0.950 . S
C6756 C6755 1.349 . S
C6756 C6768 1.349 . S
C6757 C6755 1.327 . S
C6757 C6773 1.429 . S
C6757 H6779 0.950 . S
C6758 H6754 0.949 . S
C6758 C6766 1.574 1_545 S
C6758 C6774 1.368 . S
H6759 C6767 0.950 . S
H6760 C6765 0.950 . S
H6761 C6766 0.949 . S
H6762 C6768 0.950 . S
H6763 C6769 0.950 . S
H6764 C6770 0.949 . S
C6765 H6760 0.950 . S
C6765 C6767 1.327 . S
C6765 C6771 1.429 . S
C6766 C6758 1.574 1_565 S
C6766 H6761 0.949 . S
C6766 C6772 1.368 . S
C6767 C6751 1.349 . S
C6767 H6759 0.950 . S
C6767 C6765 1.327 . S
C6768 C6756 1.349 . S
C6768 H6762 0.950 . S
C6768 C6769 1.327 . S
C6769 H6763 0.950 . S
C6769 C6768 1.327 . S
C6769 C6773 1.429 . S
C6770 C6753 1.574 1_545 S
C6770 H6764 0.949 . S
C6770 C6774 1.368 . S
C6771 C6752 1.429 . S
C6771 C6765 1.429 . S
C6771 C6772 1.523 . S
C6772 C6753 1.368 . S
C6772 C6766 1.368 . S
C6772 C6771 1.523 . S
C6773 C6757 1.429 . S
C6773 C6769 1.429 . S
C6773 C6774 1.523 . S
C6774 C6758 1.368 . S
C6774 C6770 1.368 . S
C6774 C6773 1.523 . S
H6775 C6750 0.950 . S
H6776 C6752 0.950 . S
H6777 C6753 0.949 . S
H6778 C6755 0.950 . S
H6779 C6757 0.950 . S
C6780 C6781 1.349 . S
C6780 C6782 1.327 . S
C6780 H6805 0.950 . S
C6781 C6780 1.349 . S
C6781 C6797 1.349 . S
C6782 C6780 1.327 . S
C6782 C6801 1.429 . S
C6782 H6806 0.950 . S
C6783 C6800 1.574 1_455 S
C6783 C6802 1.368 . S
C6783 H6807 0.949 . S
H6784 C6788 0.949 . S
C6785 C6786 1.349 . S
C6785 C6787 1.327 . S
C6785 H6808 0.950 . S
C6786 C6785 1.349 . S
C6786 C6798 1.349 . S
C6787 C6785 1.327 . S
C6787 C6803 1.429 . S
C6787 H6809 0.950 . S
C6788 H6784 0.949 . S
C6788 C6796 1.574 1_655 S
C6788 C6804 1.368 . S
H6789 C6797 0.950 . S
H6790 C6795 0.950 . S
H6791 C6796 0.949 . S
H6792 C6798 0.950 . S
H6793 C6799 0.950 . S
H6794 C6800 0.949 . S
C6795 H6790 0.950 . S
C6795 C6797 1.327 . S
C6795 C6801 1.429 . S
C6796 C6788 1.574 1_455 S
C6796 H6791 0.949 . S
C6796 C6802 1.368 . S
C6797 C6781 1.349 . S
C6797 H6789 0.950 . S
C6797 C6795 1.327 . S
C6798 C6786 1.349 . S
C6798 H6792 0.950 . S
C6798 C6799 1.327 . S
C6799 H6793 0.950 . S
C6799 C6798 1.327 . S
C6799 C6803 1.429 . S
C6800 C6783 1.574 1_655 S
C6800 H6794 0.949 . S
C6800 C6804 1.368 . S
C6801 C6782 1.429 . S
C6801 C6795 1.429 . S
C6801 C6802 1.523 . S
C6802 C6783 1.368 . S
C6802 C6796 1.368 . S
C6802 C6801 1.523 . S
C6803 C6787 1.429 . S
C6803 C6799 1.429 . S
C6803 C6804 1.523 . S
C6804 C6788 1.368 . S
C6804 C6800 1.368 . S
C6804 C6803 1.523 . S
H6805 C6780 0.950 . S
H6806 C6782 0.950 . S
H6807 C6783 0.949 . S
H6808 C6785 0.950 . S
H6809 C6787 0.950 . S
C6810 C6811 1.349 . S
C6810 C6812 1.327 . S
C6810 H6835 0.950 . S
C6811 C6810 1.349 . S
C6811 C6827 1.349 . S
C6812 C6810 1.327 . S
C6812 C6831 1.429 . S
C6812 H6836 0.950 . S
C6813 C6830 1.574 1_545 S
C6813 C6832 1.368 . S
C6813 H6837 0.949 . S
H6814 C6818 0.949 . S
C6815 C6816 1.349 . S
C6815 C6817 1.327 . S
C6815 H6838 0.950 . S
C6816 C6815 1.349 . S
C6816 C6828 1.349 . S
C6817 C6815 1.327 . S
C6817 C6833 1.429 . S
C6817 H6839 0.950 . S
C6818 H6814 0.949 . S
C6818 C6826 1.574 1_565 S
C6818 C6834 1.368 . S
H6819 C6827 0.950 . S
H6820 C6825 0.950 . S
H6821 C6826 0.949 . S
H6822 C6828 0.950 . S
H6823 C6829 0.950 . S
H6824 C6830 0.949 . S
C6825 H6820 0.950 . S
C6825 C6827 1.327 . S
C6825 C6831 1.429 . S
C6826 C6818 1.574 1_545 S
C6826 H6821 0.949 . S
C6826 C6832 1.368 . S
C6827 C6811 1.349 . S
C6827 H6819 0.950 . S
C6827 C6825 1.327 . S
C6828 C6816 1.349 . S
C6828 H6822 0.950 . S
C6828 C6829 1.327 . S
C6829 H6823 0.950 . S
C6829 C6828 1.327 . S
C6829 C6833 1.429 . S
C6830 C6813 1.574 1_565 S
C6830 H6824 0.949 . S
C6830 C6834 1.368 . S
C6831 C6812 1.429 . S
C6831 C6825 1.429 . S
C6831 C6832 1.523 . S
C6832 C6813 1.368 . S
C6832 C6826 1.368 . S
C6832 C6831 1.523 . S
C6833 C6817 1.429 . S
C6833 C6829 1.429 . S
C6833 C6834 1.523 . S
C6834 C6818 1.368 . S
C6834 C6830 1.368 . S
C6834 C6833 1.523 . S
H6835 C6810 0.950 . S
H6836 C6812 0.950 . S
H6837 C6813 0.949 . S
H6838 C6815 0.950 . S
H6839 C6817 0.950 . S
C6840 C6841 1.349 . S
C6840 C6842 1.327 . S
C6840 H6865 0.950 . S
C6841 C6840 1.349 . S
C6841 C6857 1.349 . S
C6842 C6840 1.327 . S
C6842 C6861 1.429 . S
C6842 H6866 0.950 . S
C6843 C6860 1.574 1_655 S
C6843 C6862 1.368 . S
C6843 H6867 0.949 . S
H6844 C6848 0.949 . S
C6845 C6846 1.349 . S
C6845 C6847 1.327 . S
C6845 H6868 0.950 . S
C6846 C6845 1.349 . S
C6846 C6858 1.349 . S
C6847 C6845 1.327 . S
C6847 C6863 1.429 . S
C6847 H6869 0.950 . S
C6848 H6844 0.949 . S
C6848 C6856 1.574 1_455 S
C6848 C6864 1.368 . S
H6849 C6857 0.950 . S
H6850 C6855 0.950 . S
H6851 C6856 0.949 . S
H6852 C6858 0.950 . S
H6853 C6859 0.950 . S
H6854 C6860 0.949 . S
C6855 H6850 0.950 . S
C6855 C6857 1.327 . S
C6855 C6861 1.429 . S
C6856 C6848 1.574 1_655 S
C6856 H6851 0.949 . S
C6856 C6862 1.368 . S
C6857 C6841 1.349 . S
C6857 H6849 0.950 . S
C6857 C6855 1.327 . S
C6858 C6846 1.349 . S
C6858 H6852 0.950 . S
C6858 C6859 1.327 . S
C6859 H6853 0.950 . S
C6859 C6858 1.327 . S
C6859 C6863 1.429 . S
C6860 C6843 1.574 1_455 S
C6860 H6854 0.949 . S
C6860 C6864 1.368 . S
C6861 C6842 1.429 . S
C6861 C6855 1.429 . S
C6861 C6862 1.523 . S
C6862 C6843 1.368 . S
C6862 C6856 1.368 . S
C6862 C6861 1.523 . S
C6863 C6847 1.429 . S
C6863 C6859 1.429 . S
C6863 C6864 1.523 . S
C6864 C6848 1.368 . S
C6864 C6860 1.368 . S
C6864 C6863 1.523 . S
H6865 C6840 0.950 . S
H6866 C6842 0.950 . S
H6867 C6843 0.949 . S
H6868 C6845 0.950 . S
H6869 C6847 0.950 . S
C6870 C6871 1.349 . S
C6870 C6872 1.327 . S
C6870 H6895 0.950 . S
C6871 C6870 1.349 . S
C6871 C6887 1.349 . S
C6872 C6870 1.327 . S
C6872 C6891 1.429 . S
C6872 H6896 0.950 . S
C6873 C6890 1.574 1_545 S
C6873 C6892 1.368 . S
C6873 H6897 0.949 . S
H6874 C6878 0.949 . S
C6875 C6876 1.349 . S
C6875 C6877 1.327 . S
C6875 H6898 0.950 . S
C6876 C6875 1.349 . S
C6876 C6888 1.349 . S
C6877 C6875 1.327 . S
C6877 C6893 1.429 . S
C6877 H6899 0.950 . S
C6878 H6874 0.949 . S
C6878 C6886 1.574 1_565 S
C6878 C6894 1.368 . S
H6879 C6887 0.950 . S
H6880 C6885 0.950 . S
H6881 C6886 0.949 . S
H6882 C6888 0.950 . S
H6883 C6889 0.950 . S
H6884 C6890 0.949 . S
C6885 H6880 0.950 . S
C6885 C6887 1.327 . S
C6885 C6891 1.429 . S
C6886 C6878 1.574 1_545 S
C6886 H6881 0.949 . S
C6886 C6892 1.368 . S
C6887 C6871 1.349 . S
C6887 H6879 0.950 . S
C6887 C6885 1.327 . S
C6888 C6876 1.349 . S
C6888 H6882 0.950 . S
C6888 C6889 1.327 . S
C6889 H6883 0.950 . S
C6889 C6888 1.327 . S
C6889 C6893 1.429 . S
C6890 C6873 1.574 1_565 S
C6890 H6884 0.949 . S
C6890 C6894 1.368 . S
C6891 C6872 1.429 . S
C6891 C6885 1.429 . S
C6891 C6892 1.523 . S
C6892 C6873 1.368 . S
C6892 C6886 1.368 . S
C6892 C6891 1.523 . S
C6893 C6877 1.429 . S
C6893 C6889 1.429 . S
C6893 C6894 1.523 . S
C6894 C6878 1.368 . S
C6894 C6890 1.368 . S
C6894 C6893 1.523 . S
H6895 C6870 0.950 . S
H6896 C6872 0.950 . S
H6897 C6873 0.949 . S
H6898 C6875 0.950 . S
H6899 C6877 0.950 . S
C6900 C6901 1.349 . S
C6900 C6902 1.327 . S
C6900 H6925 0.950 . S
C6901 C6900 1.349 . S
C6901 C6917 1.349 . S
C6902 C6900 1.327 . S
C6902 C6921 1.429 . S
C6902 H6926 0.950 . S
C6903 C6920 1.574 1_655 S
C6903 C6922 1.368 . S
C6903 H6927 0.949 . S
H6904 C6908 0.949 . S
C6905 C6906 1.349 . S
C6905 C6907 1.327 . S
C6905 H6928 0.950 . S
C6906 C6905 1.349 . S
C6906 C6918 1.349 . S
C6907 C6905 1.327 . S
C6907 C6923 1.429 . S
C6907 H6929 0.950 . S
C6908 H6904 0.949 . S
C6908 C6916 1.574 1_455 S
C6908 C6924 1.368 . S
H6909 C6917 0.950 . S
H6910 C6915 0.950 . S
H6911 C6916 0.949 . S
H6912 C6918 0.950 . S
H6913 C6919 0.950 . S
H6914 C6920 0.949 . S
C6915 H6910 0.950 . S
C6915 C6917 1.327 . S
C6915 C6921 1.429 . S
C6916 C6908 1.574 1_655 S
C6916 H6911 0.949 . S
C6916 C6922 1.368 . S
C6917 C6901 1.349 . S
C6917 H6909 0.950 . S
C6917 C6915 1.327 . S
C6918 C6906 1.349 . S
C6918 H6912 0.950 . S
C6918 C6919 1.327 . S
C6919 H6913 0.950 . S
C6919 C6918 1.327 . S
C6919 C6923 1.429 . S
C6920 C6903 1.574 1_455 S
C6920 H6914 0.949 . S
C6920 C6924 1.368 . S
C6921 C6902 1.429 . S
C6921 C6915 1.429 . S
C6921 C6922 1.523 . S
C6922 C6903 1.368 . S
C6922 C6916 1.368 . S
C6922 C6921 1.523 . S
C6923 C6907 1.429 . S
C6923 C6919 1.429 . S
C6923 C6924 1.523 . S
C6924 C6908 1.368 . S
C6924 C6920 1.368 . S
C6924 C6923 1.523 . S
H6925 C6900 0.950 . S
H6926 C6902 0.950 . S
H6927 C6903 0.949 . S
H6928 C6905 0.950 . S
H6929 C6907 0.950 . S
C6930 C6931 1.349 . S
C6930 C6932 1.327 . S
C6930 H6955 0.950 . S
C6931 C6930 1.349 . S
C6931 C6947 1.349 . S
C6932 C6930 1.327 . S
C6932 C6951 1.429 . S
C6932 H6956 0.950 . S
C6933 C6950 1.574 1_545 S
C6933 C6952 1.368 . S
C6933 H6957 0.949 . S
H6934 C6938 0.949 . S
C6935 C6936 1.349 . S
C6935 C6937 1.327 . S
C6935 H6958 0.950 . S
C6936 C6935 1.349 . S
C6936 C6948 1.349 . S
C6937 C6935 1.327 . S
C6937 C6953 1.429 . S
C6937 H6959 0.950 . S
C6938 H6934 0.949 . S
C6938 C6946 1.574 1_565 S
C6938 C6954 1.368 . S
H6939 C6947 0.950 . S
H6940 C6945 0.950 . S
H6941 C6946 0.949 . S
H6942 C6948 0.950 . S
H6943 C6949 0.950 . S
H6944 C6950 0.949 . S
C6945 H6940 0.950 . S
C6945 C6947 1.327 . S
C6945 C6951 1.429 . S
C6946 C6938 1.574 1_545 S
C6946 H6941 0.949 . S
C6946 C6952 1.368 . S
C6947 C6931 1.349 . S
C6947 H6939 0.950 . S
C6947 C6945 1.327 . S
C6948 C6936 1.349 . S
C6948 H6942 0.950 . S
C6948 C6949 1.327 . S
C6949 H6943 0.950 . S
C6949 C6948 1.327 . S
C6949 C6953 1.429 . S
C6950 C6933 1.574 1_565 S
C6950 H6944 0.949 . S
C6950 C6954 1.368 . S
C6951 C6932 1.429 . S
C6951 C6945 1.429 . S
C6951 C6952 1.523 . S
C6952 C6933 1.368 . S
C6952 C6946 1.368 . S
C6952 C6951 1.523 . S
C6953 C6937 1.429 . S
C6953 C6949 1.429 . S
C6953 C6954 1.523 . S
C6954 C6938 1.368 . S
C6954 C6950 1.368 . S
C6954 C6953 1.523 . S
H6955 C6930 0.950 . S
H6956 C6932 0.950 . S
H6957 C6933 0.949 . S
H6958 C6935 0.950 . S
H6959 C6937 0.950 . S
C6960 C6961 1.349 . S
C6960 C6962 1.327 . S
C6960 H6985 0.950 . S
C6961 C6960 1.349 . S
C6961 C6977 1.349 . S
C6962 C6960 1.327 . S
C6962 C6981 1.429 . S
C6962 H6986 0.950 . S
C6963 C6980 1.574 1_565 S
C6963 C6982 1.368 . S
C6963 H6987 0.949 . S
H6964 C6968 0.949 . S
C6965 C6966 1.349 . S
C6965 C6967 1.327 . S
C6965 H6988 0.950 . S
C6966 C6965 1.349 . S
C6966 C6978 1.349 . S
C6967 C6965 1.327 . S
C6967 C6983 1.429 . S
C6967 H6989 0.950 . S
C6968 H6964 0.949 . S
C6968 C6976 1.574 1_545 S
C6968 C6984 1.368 . S
H6969 C6977 0.950 . S
H6970 C6975 0.950 . S
H6971 C6976 0.949 . S
H6972 C6978 0.950 . S
H6973 C6979 0.950 . S
H6974 C6980 0.949 . S
C6975 H6970 0.950 . S
C6975 C6977 1.327 . S
C6975 C6981 1.429 . S
C6976 C6968 1.574 1_565 S
C6976 H6971 0.949 . S
C6976 C6982 1.368 . S
C6977 C6961 1.349 . S
C6977 H6969 0.950 . S
C6977 C6975 1.327 . S
C6978 C6966 1.349 . S
C6978 H6972 0.950 . S
C6978 C6979 1.327 . S
C6979 H6973 0.950 . S
C6979 C6978 1.327 . S
C6979 C6983 1.429 . S
C6980 C6963 1.574 1_545 S
C6980 H6974 0.949 . S
C6980 C6984 1.368 . S
C6981 C6962 1.429 . S
C6981 C6975 1.429 . S
C6981 C6982 1.523 . S
C6982 C6963 1.368 . S
C6982 C6976 1.368 . S
C6982 C6981 1.523 . S
C6983 C6967 1.429 . S
C6983 C6979 1.429 . S
C6983 C6984 1.523 . S
C6984 C6968 1.368 . S
C6984 C6980 1.368 . S
C6984 C6983 1.523 . S
H6985 C6960 0.950 . S
H6986 C6962 0.950 . S
H6987 C6963 0.949 . S
H6988 C6965 0.950 . S
H6989 C6967 0.950 . S
C6990 C6991 1.349 . S
C6990 C6992 1.327 . S
C6990 H7015 0.950 . S
C6991 C6990 1.349 . S
C6991 C7007 1.349 . S
C6992 C6990 1.327 . S
C6992 C7011 1.429 . S
C6992 H7016 0.950 . S
C6993 C7010 1.574 1_655 S
C6993 C7012 1.368 . S
C6993 H7017 0.949 . S
H6994 C6998 0.949 . S
C6995 C6996 1.349 . S
C6995 C6997 1.327 . S
C6995 H7018 0.950 . S
C6996 C6995 1.349 . S
C6996 C7008 1.349 . S
C6997 C6995 1.327 . S
C6997 C7013 1.429 . S
C6997 H7019 0.950 . S
C6998 H6994 0.949 . S
C6998 C7006 1.574 1_455 S
C6998 C7014 1.368 . S
H6999 C7007 0.950 . S
H7000 C7005 0.950 . S
H7001 C7006 0.949 . S
H7002 C7008 0.950 . S
H7003 C7009 0.950 . S
H7004 C7010 0.949 . S
C7005 H7000 0.950 . S
C7005 C7007 1.327 . S
C7005 C7011 1.429 . S
C7006 C6998 1.574 1_655 S
C7006 H7001 0.949 . S
C7006 C7012 1.368 . S
C7007 C6991 1.349 . S
C7007 H6999 0.950 . S
C7007 C7005 1.327 . S
C7008 C6996 1.349 . S
C7008 H7002 0.950 . S
C7008 C7009 1.327 . S
C7009 H7003 0.950 . S
C7009 C7008 1.327 . S
C7009 C7013 1.429 . S
C7010 C6993 1.574 1_455 S
C7010 H7004 0.949 . S
C7010 C7014 1.368 . S
C7011 C6992 1.429 . S
C7011 C7005 1.429 . S
C7011 C7012 1.523 . S
C7012 C6993 1.368 . S
C7012 C7006 1.368 . S
C7012 C7011 1.523 . S
C7013 C6997 1.429 . S
C7013 C7009 1.429 . S
C7013 C7014 1.523 . S
C7014 C6998 1.368 . S
C7014 C7010 1.368 . S
C7014 C7013 1.523 . S
H7015 C6990 0.950 . S
H7016 C6992 0.950 . S
H7017 C6993 0.949 . S
H7018 C6995 0.950 . S
H7019 C6997 0.950 . S
C7020 C7021 1.349 . S
C7020 C7022 1.327 . S
C7020 H7045 0.950 . S
C7021 C7020 1.349 . S
C7021 C7037 1.349 . S
C7022 C7020 1.327 . S
C7022 C7041 1.429 . S
C7022 H7046 0.950 . S
C7023 C7040 1.574 1_565 S
C7023 C7042 1.368 . S
C7023 H7047 0.949 . S
H7024 C7028 0.949 . S
C7025 C7026 1.349 . S
C7025 C7027 1.327 . S
C7025 H7048 0.950 . S
C7026 C7025 1.349 . S
C7026 C7038 1.349 . S
C7027 C7025 1.327 . S
C7027 C7043 1.429 . S
C7027 H7049 0.950 . S
C7028 H7024 0.949 . S
C7028 C7036 1.574 1_545 S
C7028 C7044 1.368 . S
H7029 C7037 0.950 . S
H7030 C7035 0.950 . S
H7031 C7036 0.949 . S
H7032 C7038 0.950 . S
H7033 C7039 0.950 . S
H7034 C7040 0.949 . S
C7035 H7030 0.950 . S
C7035 C7037 1.327 . S
C7035 C7041 1.429 . S
C7036 C7028 1.574 1_565 S
C7036 H7031 0.949 . S
C7036 C7042 1.368 . S
C7037 C7021 1.349 . S
C7037 H7029 0.950 . S
C7037 C7035 1.327 . S
C7038 C7026 1.349 . S
C7038 H7032 0.950 . S
C7038 C7039 1.327 . S
C7039 H7033 0.950 . S
C7039 C7038 1.327 . S
C7039 C7043 1.429 . S
C7040 C7023 1.574 1_545 S
C7040 H7034 0.949 . S
C7040 C7044 1.368 . S
C7041 C7022 1.429 . S
C7041 C7035 1.429 . S
C7041 C7042 1.523 . S
C7042 C7023 1.368 . S
C7042 C7036 1.368 . S
C7042 C7041 1.523 . S
C7043 C7027 1.429 . S
C7043 C7039 1.429 . S
C7043 C7044 1.523 . S
C7044 C7028 1.368 . S
C7044 C7040 1.368 . S
C7044 C7043 1.523 . S
H7045 C7020 0.950 . S
H7046 C7022 0.950 . S
H7047 C7023 0.949 . S
H7048 C7025 0.950 . S
H7049 C7027 0.950 . S
C7050 C7051 1.349 . S
C7050 C7052 1.327 . S
C7050 H7075 0.950 . S
C7051 C7050 1.349 . S
C7051 C7067 1.349 . S
C7052 C7050 1.327 . S
C7052 C7071 1.429 . S
C7052 H7076 0.950 . S
C7053 C7070 1.574 1_655 S
C7053 C7072 1.368 . S
C7053 H7077 0.949 . S
H7054 C7058 0.949 . S
C7055 C7056 1.349 . S
C7055 C7057 1.327 . S
C7055 H7078 0.950 . S
C7056 C7055 1.349 . S
C7056 C7068 1.349 . S
C7057 C7055 1.327 . S
C7057 C7073 1.429 . S
C7057 H7079 0.950 . S
C7058 H7054 0.949 . S
C7058 C7066 1.574 1_455 S
C7058 C7074 1.368 . S
H7059 C7067 0.950 . S
H7060 C7065 0.950 . S
H7061 C7066 0.949 . S
H7062 C7068 0.950 . S
H7063 C7069 0.950 . S
H7064 C7070 0.949 . S
C7065 H7060 0.950 . S
C7065 C7067 1.327 . S
C7065 C7071 1.429 . S
C7066 C7058 1.574 1_655 S
C7066 H7061 0.949 . S
C7066 C7072 1.368 . S
C7067 C7051 1.349 . S
C7067 H7059 0.950 . S
C7067 C7065 1.327 . S
C7068 C7056 1.349 . S
C7068 H7062 0.950 . S
C7068 C7069 1.327 . S
C7069 H7063 0.950 . S
C7069 C7068 1.327 . S
C7069 C7073 1.429 . S
C7070 C7053 1.574 1_455 S
C7070 H7064 0.949 . S
C7070 C7074 1.368 . S
C7071 C7052 1.429 . S
C7071 C7065 1.429 . S
C7071 C7072 1.523 . S
C7072 C7053 1.368 . S
C7072 C7066 1.368 . S
C7072 C7071 1.523 . S
C7073 C7057 1.429 . S
C7073 C7069 1.429 . S
C7073 C7074 1.523 . S
C7074 C7058 1.368 . S
C7074 C7070 1.368 . S
C7074 C7073 1.523 . S
H7075 C7050 0.950 . S
H7076 C7052 0.950 . S
H7077 C7053 0.949 . S
H7078 C7055 0.950 . S
H7079 C7057 0.950 . S
C7080 C7081 1.349 . S
C7080 C7082 1.327 . S
C7080 H7105 0.950 . S
C7081 C7080 1.349 . S
C7081 C7097 1.349 . S
C7082 C7080 1.327 . S
C7082 C7101 1.429 . S
C7082 H7106 0.950 . S
C7083 C7100 1.574 1_565 S
C7083 C7102 1.368 . S
C7083 H7107 0.949 . S
H7084 C7088 0.949 . S
C7085 C7086 1.349 . S
C7085 C7087 1.327 . S
C7085 H7108 0.950 . S
C7086 C7085 1.349 . S
C7086 C7098 1.349 . S
C7087 C7085 1.327 . S
C7087 C7103 1.429 . S
C7087 H7109 0.950 . S
C7088 H7084 0.949 . S
C7088 C7096 1.574 1_545 S
C7088 C7104 1.368 . S
H7089 C7097 0.950 . S
H7090 C7095 0.950 . S
H7091 C7096 0.949 . S
H7092 C7098 0.950 . S
H7093 C7099 0.950 . S
H7094 C7100 0.949 . S
C7095 H7090 0.950 . S
C7095 C7097 1.327 . S
C7095 C7101 1.429 . S
C7096 C7088 1.574 1_565 S
C7096 H7091 0.949 . S
C7096 C7102 1.368 . S
C7097 C7081 1.349 . S
C7097 H7089 0.950 . S
C7097 C7095 1.327 . S
C7098 C7086 1.349 . S
C7098 H7092 0.950 . S
C7098 C7099 1.327 . S
C7099 H7093 0.950 . S
C7099 C7098 1.327 . S
C7099 C7103 1.429 . S
C7100 C7083 1.574 1_545 S
C7100 H7094 0.949 . S
C7100 C7104 1.368 . S
C7101 C7082 1.429 . S
C7101 C7095 1.429 . S
C7101 C7102 1.523 . S
C7102 C7083 1.368 . S
C7102 C7096 1.368 . S
C7102 C7101 1.523 . S
C7103 C7087 1.429 . S
C7103 C7099 1.429 . S
C7103 C7104 1.523 . S
C7104 C7088 1.368 . S
C7104 C7100 1.368 . S
C7104 C7103 1.523 . S
H7105 C7080 0.950 . S
H7106 C7082 0.950 . S
H7107 C7083 0.949 . S
H7108 C7085 0.950 . S
H7109 C7087 0.950 . S
C7110 C7111 1.349 . S
C7110 C7112 1.327 . S
C7110 H7135 0.950 . S
C7111 C7110 1.349 . S
C7111 C7127 1.349 . S
C7112 C7110 1.327 . S
C7112 C7131 1.429 . S
C7112 H7136 0.950 . S
C7113 C7130 1.574 1_455 S
C7113 C7132 1.368 . S
C7113 H7137 0.949 . S
H7114 C7118 0.949 . S
C7115 C7116 1.349 . S
C7115 C7117 1.327 . S
C7115 H7138 0.950 . S
C7116 C7115 1.349 . S
C7116 C7128 1.349 . S
C7117 C7115 1.327 . S
C7117 C7133 1.429 . S
C7117 H7139 0.950 . S
C7118 H7114 0.949 . S
C7118 C7126 1.574 1_655 S
C7118 C7134 1.368 . S
H7119 C7127 0.950 . S
H7120 C7125 0.950 . S
H7121 C7126 0.949 . S
H7122 C7128 0.950 . S
H7123 C7129 0.950 . S
H7124 C7130 0.949 . S
C7125 H7120 0.950 . S
C7125 C7127 1.327 . S
C7125 C7131 1.429 . S
C7126 C7118 1.574 1_455 S
C7126 H7121 0.949 . S
C7126 C7132 1.368 . S
C7127 C7111 1.349 . S
C7127 H7119 0.950 . S
C7127 C7125 1.327 . S
C7128 C7116 1.349 . S
C7128 H7122 0.950 . S
C7128 C7129 1.327 . S
C7129 H7123 0.950 . S
C7129 C7128 1.327 . S
C7129 C7133 1.429 . S
C7130 C7113 1.574 1_655 S
C7130 H7124 0.949 . S
C7130 C7134 1.368 . S
C7131 C7112 1.429 . S
C7131 C7125 1.429 . S
C7131 C7132 1.523 . S
C7132 C7113 1.368 . S
C7132 C7126 1.368 . S
C7132 C7131 1.523 . S
C7133 C7117 1.429 . S
C7133 C7129 1.429 . S
C7133 C7134 1.523 . S
C7134 C7118 1.368 . S
C7134 C7130 1.368 . S
C7134 C7133 1.523 . S
H7135 C7110 0.950 . S
H7136 C7112 0.950 . S
H7137 C7113 0.949 . S
H7138 C7115 0.950 . S
H7139 C7117 0.950 . S
C7140 C7141 1.349 . S
C7140 C7142 1.327 . S
C7140 H7165 0.950 . S
C7141 C7140 1.349 . S
C7141 C7157 1.349 . S
C7142 C7140 1.327 . S
C7142 C7161 1.429 . S
C7142 H7166 0.950 . S
C7143 C7160 1.574 1_545 S
C7143 C7162 1.368 . S
C7143 H7167 0.949 . S
H7144 C7148 0.949 . S
C7145 C7146 1.349 . S
C7145 C7147 1.327 . S
C7145 H7168 0.950 . S
C7146 C7145 1.349 . S
C7146 C7158 1.349 . S
C7147 C7145 1.327 . S
C7147 C7163 1.429 . S
C7147 H7169 0.950 . S
C7148 H7144 0.949 . S
C7148 C7156 1.574 1_565 S
C7148 C7164 1.368 . S
H7149 C7157 0.950 . S
H7150 C7155 0.950 . S
H7151 C7156 0.949 . S
H7152 C7158 0.950 . S
H7153 C7159 0.950 . S
H7154 C7160 0.949 . S
C7155 H7150 0.950 . S
C7155 C7157 1.327 . S
C7155 C7161 1.429 . S
C7156 C7148 1.574 1_545 S
C7156 H7151 0.949 . S
C7156 C7162 1.368 . S
C7157 C7141 1.349 . S
C7157 H7149 0.950 . S
C7157 C7155 1.327 . S
C7158 C7146 1.349 . S
C7158 H7152 0.950 . S
C7158 C7159 1.327 . S
C7159 H7153 0.950 . S
C7159 C7158 1.327 . S
C7159 C7163 1.429 . S
C7160 C7143 1.574 1_565 S
C7160 H7154 0.949 . S
C7160 C7164 1.368 . S
C7161 C7142 1.429 . S
C7161 C7155 1.429 . S
C7161 C7162 1.523 . S
C7162 C7143 1.368 . S
C7162 C7156 1.368 . S
C7162 C7161 1.523 . S
C7163 C7147 1.429 . S
C7163 C7159 1.429 . S
C7163 C7164 1.523 . S
C7164 C7148 1.368 . S
C7164 C7160 1.368 . S
C7164 C7163 1.523 . S
H7165 C7140 0.950 . S
H7166 C7142 0.950 . S
H7167 C7143 0.949 . S
H7168 C7145 0.950 . S
H7169 C7147 0.950 . S
C7170 C7171 1.349 . S
C7170 C7172 1.327 . S
C7170 H7195 0.950 . S
C7171 C7170 1.349 . S
C7171 C7187 1.349 . S
C7172 C7170 1.327 . S
C7172 C7191 1.429 . S
C7172 H7196 0.950 . S
C7173 C7190 1.574 1_455 S
C7173 C7192 1.368 . S
C7173 H7197 0.949 . S
H7174 C7178 0.949 . S
C7175 C7176 1.349 . S
C7175 C7177 1.327 . S
C7175 H7198 0.950 . S
C7176 C7175 1.349 . S
C7176 C7188 1.349 . S
C7177 C7175 1.327 . S
C7177 C7193 1.429 . S
C7177 H7199 0.950 . S
C7178 H7174 0.949 . S
C7178 C7186 1.574 1_655 S
C7178 C7194 1.368 . S
H7179 C7187 0.950 . S
H7180 C7185 0.950 . S
H7181 C7186 0.949 . S
H7182 C7188 0.950 . S
H7183 C7189 0.950 . S
H7184 C7190 0.949 . S
C7185 H7180 0.950 . S
C7185 C7187 1.327 . S
C7185 C7191 1.429 . S
C7186 C7178 1.574 1_455 S
C7186 H7181 0.949 . S
C7186 C7192 1.368 . S
C7187 C7171 1.349 . S
C7187 H7179 0.950 . S
C7187 C7185 1.327 . S
C7188 C7176 1.349 . S
C7188 H7182 0.950 . S
C7188 C7189 1.327 . S
C7189 H7183 0.950 . S
C7189 C7188 1.327 . S
C7189 C7193 1.429 . S
C7190 C7173 1.574 1_655 S
C7190 H7184 0.949 . S
C7190 C7194 1.368 . S
C7191 C7172 1.429 . S
C7191 C7185 1.429 . S
C7191 C7192 1.523 . S
C7192 C7173 1.368 . S
C7192 C7186 1.368 . S
C7192 C7191 1.523 . S
C7193 C7177 1.429 . S
C7193 C7189 1.429 . S
C7193 C7194 1.523 . S
C7194 C7178 1.368 . S
C7194 C7190 1.368 . S
C7194 C7193 1.523 . S
H7195 C7170 0.950 . S
H7196 C7172 0.950 . S
H7197 C7173 0.949 . S
H7198 C7175 0.950 . S
H7199 C7177 0.950 . S
C7200 C7201 1.349 . S
C7200 C7202 1.327 . S
C7200 H7225 0.950 . S
C7201 C7200 1.349 . S
C7201 C7217 1.349 . S
C7202 C7200 1.327 . S
C7202 C7221 1.429 . S
C7202 H7226 0.950 . S
C7203 C7220 1.574 1_556 S
C7203 C7222 1.368 . S
C7203 H7227 0.949 . S
H7204 C7208 0.949 . S
C7205 C7206 1.349 . S
C7205 C7207 1.327 . S
C7205 H7228 0.950 . S
C7206 C7205 1.349 . S
C7206 C7218 1.349 . S
C7207 C7205 1.327 . S
C7207 C7223 1.429 . S
C7207 H7229 0.950 . S
C7208 H7204 0.949 . S
C7208 C7216 1.574 1_554 S
C7208 C7224 1.368 . S
H7209 C7217 0.950 . S
H7210 C7215 0.950 . S
H7211 C7216 0.949 . S
H7212 C7218 0.950 . S
H7213 C7219 0.950 . S
H7214 C7220 0.949 . S
C7215 H7210 0.950 . S
C7215 C7217 1.327 . S
C7215 C7221 1.429 . S
C7216 C7208 1.574 1_556 S
C7216 H7211 0.949 . S
C7216 C7222 1.368 . S
C7217 C7201 1.349 . S
C7217 H7209 0.950 . S
C7217 C7215 1.327 . S
C7218 C7206 1.349 . S
C7218 H7212 0.950 . S
C7218 C7219 1.327 . S
C7219 H7213 0.950 . S
C7219 C7218 1.327 . S
C7219 C7223 1.429 . S
C7220 C7203 1.574 1_554 S
C7220 H7214 0.949 . S
C7220 C7224 1.368 . S
C7221 C7202 1.429 . S
C7221 C7215 1.429 . S
C7221 C7222 1.523 . S
C7222 C7203 1.368 . S
C7222 C7216 1.368 . S
C7222 C7221 1.523 . S
C7223 C7207 1.429 . S
C7223 C7219 1.429 . S
C7223 C7224 1.523 . S
C7224 C7208 1.368 . S
C7224 C7220 1.368 . S
C7224 C7223 1.523 . S
H7225 C7200 0.950 . S
H7226 C7202 0.950 . S
H7227 C7203 0.949 . S
H7228 C7205 0.950 . S
H7229 C7207 0.950 . S
C7230 C7231 1.349 . S
C7230 C7232 1.327 . S
C7230 H7255 0.950 . S
C7231 C7230 1.349 . S
C7231 C7247 1.349 . S
C7232 C7230 1.327 . S
C7232 C7251 1.429 . S
C7232 H7256 0.950 . S
C7233 C7250 1.574 1_554 S
C7233 C7252 1.368 . S
C7233 H7257 0.949 . S
H7234 C7238 0.949 . S
C7235 C7236 1.349 . S
C7235 C7237 1.327 . S
C7235 H7258 0.950 . S
C7236 C7235 1.349 . S
C7236 C7248 1.349 . S
C7237 C7235 1.327 . S
C7237 C7253 1.429 . S
C7237 H7259 0.950 . S
C7238 H7234 0.949 . S
C7238 C7246 1.574 1_556 S
C7238 C7254 1.368 . S
H7239 C7247 0.950 . S
H7240 C7245 0.950 . S
H7241 C7246 0.949 . S
H7242 C7248 0.950 . S
H7243 C7249 0.950 . S
H7244 C7250 0.949 . S
C7245 H7240 0.950 . S
C7245 C7247 1.327 . S
C7245 C7251 1.429 . S
C7246 C7238 1.574 1_554 S
C7246 H7241 0.949 . S
C7246 C7252 1.368 . S
C7247 C7231 1.349 . S
C7247 H7239 0.950 . S
C7247 C7245 1.327 . S
C7248 C7236 1.349 . S
C7248 H7242 0.950 . S
C7248 C7249 1.327 . S
C7249 H7243 0.950 . S
C7249 C7248 1.327 . S
C7249 C7253 1.429 . S
C7250 C7233 1.574 1_556 S
C7250 H7244 0.949 . S
C7250 C7254 1.368 . S
C7251 C7232 1.429 . S
C7251 C7245 1.429 . S
C7251 C7252 1.523 . S
C7252 C7233 1.368 . S
C7252 C7246 1.368 . S
C7252 C7251 1.523 . S
C7253 C7237 1.429 . S
C7253 C7249 1.429 . S
C7253 C7254 1.523 . S
C7254 C7238 1.368 . S
C7254 C7250 1.368 . S
C7254 C7253 1.523 . S
H7255 C7230 0.950 . S
H7256 C7232 0.950 . S
H7257 C7233 0.949 . S
H7258 C7235 0.950 . S
H7259 C7237 0.950 . S
C7260 C7261 1.349 . S
C7260 C7262 1.327 . S
C7260 H7285 0.950 . S
C7261 C7260 1.349 . S
C7261 C7277 1.349 . S
C7262 C7260 1.327 . S
C7262 C7281 1.429 . S
C7262 H7286 0.950 . S
C7263 C7280 1.574 1_554 S
C7263 C7282 1.368 . S
C7263 H7287 0.949 . S
H7264 C7268 0.949 . S
C7265 C7266 1.349 . S
C7265 C7267 1.327 . S
C7265 H7288 0.950 . S
C7266 C7265 1.349 . S
C7266 C7278 1.349 . S
C7267 C7265 1.327 . S
C7267 C7283 1.429 . S
C7267 H7289 0.950 . S
C7268 H7264 0.949 . S
C7268 C7276 1.574 1_556 S
C7268 C7284 1.368 . S
H7269 C7277 0.950 . S
H7270 C7275 0.950 . S
H7271 C7276 0.949 . S
H7272 C7278 0.950 . S
H7273 C7279 0.950 . S
H7274 C7280 0.949 . S
C7275 H7270 0.950 . S
C7275 C7277 1.327 . S
C7275 C7281 1.429 . S
C7276 C7268 1.574 1_554 S
C7276 H7271 0.949 . S
C7276 C7282 1.368 . S
C7277 C7261 1.349 . S
C7277 H7269 0.950 . S
C7277 C7275 1.327 . S
C7278 C7266 1.349 . S
C7278 H7272 0.950 . S
C7278 C7279 1.327 . S
C7279 H7273 0.950 . S
C7279 C7278 1.327 . S
C7279 C7283 1.429 . S
C7280 C7263 1.574 1_556 S
C7280 H7274 0.949 . S
C7280 C7284 1.368 . S
C7281 C7262 1.429 . S
C7281 C7275 1.429 . S
C7281 C7282 1.523 . S
C7282 C7263 1.368 . S
C7282 C7276 1.368 . S
C7282 C7281 1.523 . S
C7283 C7267 1.429 . S
C7283 C7279 1.429 . S
C7283 C7284 1.523 . S
C7284 C7268 1.368 . S
C7284 C7280 1.368 . S
C7284 C7283 1.523 . S
H7285 C7260 0.950 . S
H7286 C7262 0.950 . S
H7287 C7263 0.949 . S
H7288 C7265 0.950 . S
H7289 C7267 0.950 . S
C7290 C7291 1.349 . S
C7290 C7292 1.327 . S
C7290 H7315 0.950 . S
C7291 C7290 1.349 . S
C7291 C7307 1.349 . S
C7292 C7290 1.327 . S
C7292 C7311 1.429 . S
C7292 H7316 0.950 . S
C7293 C7310 1.574 1_554 S
C7293 C7312 1.368 . S
C7293 H7317 0.949 . S
H7294 C7298 0.949 . S
C7295 C7296 1.349 . S
C7295 C7297 1.327 . S
C7295 H7318 0.950 . S
C7296 C7295 1.349 . S
C7296 C7308 1.349 . S
C7297 C7295 1.327 . S
C7297 C7313 1.429 . S
C7297 H7319 0.950 . S
C7298 H7294 0.949 . S
C7298 C7306 1.574 1_556 S
C7298 C7314 1.368 . S
H7299 C7307 0.950 . S
H7300 C7305 0.950 . S
H7301 C7306 0.949 . S
H7302 C7308 0.950 . S
H7303 C7309 0.950 . S
H7304 C7310 0.949 . S
C7305 H7300 0.950 . S
C7305 C7307 1.327 . S
C7305 C7311 1.429 . S
C7306 C7298 1.574 1_554 S
C7306 H7301 0.949 . S
C7306 C7312 1.368 . S
C7307 C7291 1.349 . S
C7307 H7299 0.950 . S
C7307 C7305 1.327 . S
C7308 C7296 1.349 . S
C7308 H7302 0.950 . S
C7308 C7309 1.327 . S
C7309 H7303 0.950 . S
C7309 C7308 1.327 . S
C7309 C7313 1.429 . S
C7310 C7293 1.574 1_556 S
C7310 H7304 0.949 . S
C7310 C7314 1.368 . S
C7311 C7292 1.429 . S
C7311 C7305 1.429 . S
C7311 C7312 1.523 . S
C7312 C7293 1.368 . S
C7312 C7306 1.368 . S
C7312 C7311 1.523 . S
C7313 C7297 1.429 . S
C7313 C7309 1.429 . S
C7313 C7314 1.523 . S
C7314 C7298 1.368 . S
C7314 C7310 1.368 . S
C7314 C7313 1.523 . S
H7315 C7290 0.950 . S
H7316 C7292 0.950 . S
H7317 C7293 0.949 . S
H7318 C7295 0.950 . S
H7319 C7297 0.950 . S
C7320 C7321 1.349 . S
C7320 C7322 1.327 . S
C7320 H7345 0.950 . S
C7321 C7320 1.349 . S
C7321 C7337 1.349 . S
C7322 C7320 1.327 . S
C7322 C7341 1.429 . S
C7322 H7346 0.950 . S
C7323 C7340 1.574 1_556 S
C7323 C7342 1.368 . S
C7323 H7347 0.949 . S
H7324 C7328 0.949 . S
C7325 C7326 1.349 . S
C7325 C7327 1.327 . S
C7325 H7348 0.950 . S
C7326 C7325 1.349 . S
C7326 C7338 1.349 . S
C7327 C7325 1.327 . S
C7327 C7343 1.429 . S
C7327 H7349 0.950 . S
C7328 H7324 0.949 . S
C7328 C7336 1.574 1_554 S
C7328 C7344 1.368 . S
H7329 C7337 0.950 . S
H7330 C7335 0.950 . S
H7331 C7336 0.949 . S
H7332 C7338 0.950 . S
H7333 C7339 0.950 . S
H7334 C7340 0.949 . S
C7335 H7330 0.950 . S
C7335 C7337 1.327 . S
C7335 C7341 1.429 . S
C7336 C7328 1.574 1_556 S
C7336 H7331 0.949 . S
C7336 C7342 1.368 . S
C7337 C7321 1.349 . S
C7337 H7329 0.950 . S
C7337 C7335 1.327 . S
C7338 C7326 1.349 . S
C7338 H7332 0.950 . S
C7338 C7339 1.327 . S
C7339 H7333 0.950 . S
C7339 C7338 1.327 . S
C7339 C7343 1.429 . S
C7340 C7323 1.574 1_554 S
C7340 H7334 0.949 . S
C7340 C7344 1.368 . S
C7341 C7322 1.429 . S
C7341 C7335 1.429 . S
C7341 C7342 1.523 . S
C7342 C7323 1.368 . S
C7342 C7336 1.368 . S
C7342 C7341 1.523 . S
C7343 C7327 1.429 . S
C7343 C7339 1.429 . S
C7343 C7344 1.523 . S
C7344 C7328 1.368 . S
C7344 C7340 1.368 . S
C7344 C7343 1.523 . S
H7345 C7320 0.950 . S
H7346 C7322 0.950 . S
H7347 C7323 0.949 . S
H7348 C7325 0.950 . S
H7349 C7327 0.950 . S
C7350 C7351 1.349 . S
C7350 C7352 1.327 . S
C7350 H7375 0.950 . S
C7351 C7350 1.349 . S
C7351 C7367 1.349 . S
C7352 C7350 1.327 . S
C7352 C7371 1.429 . S
C7352 H7376 0.950 . S
C7353 C7370 1.574 1_556 S
C7353 C7372 1.368 . S
C7353 H7377 0.949 . S
H7354 C7358 0.949 . S
C7355 C7356 1.349 . S
C7355 C7357 1.327 . S
C7355 H7378 0.950 . S
C7356 C7355 1.349 . S
C7356 C7368 1.349 . S
C7357 C7355 1.327 . S
C7357 C7373 1.429 . S
C7357 H7379 0.950 . S
C7358 H7354 0.949 . S
C7358 C7366 1.574 1_554 S
C7358 C7374 1.368 . S
H7359 C7367 0.950 . S
H7360 C7365 0.950 . S
H7361 C7366 0.949 . S
H7362 C7368 0.950 . S
H7363 C7369 0.950 . S
H7364 C7370 0.949 . S
C7365 H7360 0.950 . S
C7365 C7367 1.327 . S
C7365 C7371 1.429 . S
C7366 C7358 1.574 1_556 S
C7366 H7361 0.949 . S
C7366 C7372 1.368 . S
C7367 C7351 1.349 . S
C7367 H7359 0.950 . S
C7367 C7365 1.327 . S
C7368 C7356 1.349 . S
C7368 H7362 0.950 . S
C7368 C7369 1.327 . S
C7369 H7363 0.950 . S
C7369 C7368 1.327 . S
C7369 C7373 1.429 . S
C7370 C7353 1.574 1_554 S
C7370 H7364 0.949 . S
C7370 C7374 1.368 . S
C7371 C7352 1.429 . S
C7371 C7365 1.429 . S
C7371 C7372 1.523 . S
C7372 C7353 1.368 . S
C7372 C7366 1.368 . S
C7372 C7371 1.523 . S
C7373 C7357 1.429 . S
C7373 C7369 1.429 . S
C7373 C7374 1.523 . S
C7374 C7358 1.368 . S
C7374 C7370 1.368 . S
C7374 C7373 1.523 . S
H7375 C7350 0.950 . S
H7376 C7352 0.950 . S
H7377 C7353 0.949 . S
H7378 C7355 0.950 . S
H7379 C7357 0.950 . S
C7380 C7381 1.349 . S
C7380 C7382 1.327 . S
C7380 H7405 0.950 . S
C7381 C7380 1.349 . S
C7381 C7397 1.349 . S
C7382 C7380 1.327 . S
C7382 C7401 1.429 . S
C7382 H7406 0.950 . S
C7383 C7400 1.574 1_556 S
C7383 C7402 1.368 . S
C7383 H7407 0.949 . S
H7384 C7388 0.949 . S
C7385 C7386 1.349 . S
C7385 C7387 1.327 . S
C7385 H7408 0.950 . S
C7386 C7385 1.349 . S
C7386 C7398 1.349 . S
C7387 C7385 1.327 . S
C7387 C7403 1.429 . S
C7387 H7409 0.950 . S
C7388 H7384 0.949 . S
C7388 C7396 1.574 1_554 S
C7388 C7404 1.368 . S
H7389 C7397 0.950 . S
H7390 C7395 0.950 . S
H7391 C7396 0.949 . S
H7392 C7398 0.950 . S
H7393 C7399 0.950 . S
H7394 C7400 0.949 . S
C7395 H7390 0.950 . S
C7395 C7397 1.327 . S
C7395 C7401 1.429 . S
C7396 C7388 1.574 1_556 S
C7396 H7391 0.949 . S
C7396 C7402 1.368 . S
C7397 C7381 1.349 . S
C7397 H7389 0.950 . S
C7397 C7395 1.327 . S
C7398 C7386 1.349 . S
C7398 H7392 0.950 . S
C7398 C7399 1.327 . S
C7399 H7393 0.950 . S
C7399 C7398 1.327 . S
C7399 C7403 1.429 . S
C7400 C7383 1.574 1_554 S
C7400 H7394 0.949 . S
C7400 C7404 1.368 . S
C7401 C7382 1.429 . S
C7401 C7395 1.429 . S
C7401 C7402 1.523 . S
C7402 C7383 1.368 . S
C7402 C7396 1.368 . S
C7402 C7401 1.523 . S
C7403 C7387 1.429 . S
C7403 C7399 1.429 . S
C7403 C7404 1.523 . S
C7404 C7388 1.368 . S
C7404 C7400 1.368 . S
C7404 C7403 1.523 . S
H7405 C7380 0.950 . S
H7406 C7382 0.950 . S
H7407 C7383 0.949 . S
H7408 C7385 0.950 . S
H7409 C7387 0.950 . S
C7410 C7411 1.349 . S
C7410 C7412 1.327 . S
C7410 H7435 0.950 . S
C7411 C7410 1.349 . S
C7411 C7427 1.349 . S
C7412 C7410 1.327 . S
C7412 C7431 1.429 . S
C7412 H7436 0.950 . S
C7413 C7430 1.574 1_556 S
C7413 C7432 1.368 . S
C7413 H7437 0.949 . S
H7414 C7418 0.949 . S
C7415 C7416 1.349 . S
C7415 C7417 1.327 . S
C7415 H7438 0.950 . S
C7416 C7415 1.349 . S
C7416 C7428 1.349 . S
C7417 C7415 1.327 . S
C7417 C7433 1.429 . S
C7417 H7439 0.950 . S
C7418 H7414 0.949 . S
C7418 C7426 1.574 1_554 S
C7418 C7434 1.368 . S
H7419 C7427 0.950 . S
H7420 C7425 0.950 . S
H7421 C7426 0.949 . S
H7422 C7428 0.950 . S
H7423 C7429 0.950 . S
H7424 C7430 0.949 . S
C7425 H7420 0.950 . S
C7425 C7427 1.327 . S
C7425 C7431 1.429 . S
C7426 C7418 1.574 1_556 S
C7426 H7421 0.949 . S
C7426 C7432 1.368 . S
C7427 C7411 1.349 . S
C7427 H7419 0.950 . S
C7427 C7425 1.327 . S
C7428 C7416 1.349 . S
C7428 H7422 0.950 . S
C7428 C7429 1.327 . S
C7429 H7423 0.950 . S
C7429 C7428 1.327 . S
C7429 C7433 1.429 . S
C7430 C7413 1.574 1_554 S
C7430 H7424 0.949 . S
C7430 C7434 1.368 . S
C7431 C7412 1.429 . S
C7431 C7425 1.429 . S
C7431 C7432 1.523 . S
C7432 C7413 1.368 . S
C7432 C7426 1.368 . S
C7432 C7431 1.523 . S
C7433 C7417 1.429 . S
C7433 C7429 1.429 . S
C7433 C7434 1.523 . S
C7434 C7418 1.368 . S
C7434 C7430 1.368 . S
C7434 C7433 1.523 . S
H7435 C7410 0.950 . S
H7436 C7412 0.950 . S
H7437 C7413 0.949 . S
H7438 C7415 0.950 . S
H7439 C7417 0.950 . S
C7440 C7441 1.349 . S
C7440 C7442 1.327 . S
C7440 H7465 0.950 . S
C7441 C7440 1.349 . S
C7441 C7457 1.349 . S
C7442 C7440 1.327 . S
C7442 C7461 1.429 . S
C7442 H7466 0.950 . S
C7443 C7460 1.574 . S
C7443 C7462 1.368 . S
C7443 H7467 0.949 . S
H7444 C7448 0.949 . S
C7445 C7446 1.349 . S
C7445 C7447 1.327 . S
C7445 H7468 0.950 . S
C7446 C7445 1.349 . S
C7446 C7458 1.349 . S
C7447 C7445 1.327 . S
C7447 C7463 1.429 . S
C7447 H7469 0.950 . S
C7448 H7444 0.949 . S
C7448 C7456 1.574 . S
C7448 C7464 1.368 . S
H7449 C7457 0.950 . S
H7450 C7455 0.950 . S
H7451 C7456 0.949 . S
H7452 C7458 0.950 . S
H7453 C7459 0.950 . S
H7454 C7460 0.949 . S
C7455 H7450 0.950 . S
C7455 C7457 1.327 . S
C7455 C7461 1.429 . S
C7456 C7448 1.574 . S
C7456 H7451 0.949 . S
C7456 C7462 1.368 . S
C7457 C7441 1.349 . S
C7457 H7449 0.950 . S
C7457 C7455 1.327 . S
C7458 C7446 1.349 . S
C7458 H7452 0.950 . S
C7458 C7459 1.327 . S
C7459 H7453 0.950 . S
C7459 C7458 1.327 . S
C7459 C7463 1.429 . S
C7460 C7443 1.574 . S
C7460 H7454 0.949 . S
C7460 C7464 1.368 . S
C7461 C7442 1.429 . S
C7461 C7455 1.429 . S
C7461 C7462 1.523 . S
C7462 C7443 1.368 . S
C7462 C7456 1.368 . S
C7462 C7461 1.523 . S
C7463 C7447 1.429 . S
C7463 C7459 1.429 . S
C7463 C7464 1.523 . S
C7464 C7448 1.368 . S
C7464 C7460 1.368 . S
C7464 C7463 1.523 . S
H7465 C7440 0.950 . S
H7466 C7442 0.950 . S
H7467 C7443 0.949 . S
H7468 C7445 0.950 . S
H7469 C7447 0.950 . S
C7470 C7471 1.349 . S
C7470 C7472 1.327 . S
C7470 H7495 0.950 . S
C7471 C7470 1.349 . S
C7471 C7487 1.349 . S
C7472 C7470 1.327 . S
C7472 C7491 1.429 . S
C7472 H7496 0.950 . S
C7473 C7490 1.574 . S
C7473 C7492 1.368 . S
C7473 H7497 0.949 . S
H7474 C7478 0.949 . S
C7475 C7476 1.349 . S
C7475 C7477 1.327 . S
C7475 H7498 0.950 . S
C7476 C7475 1.349 . S
C7476 C7488 1.349 . S
C7477 C7475 1.327 . S
C7477 C7493 1.429 . S
C7477 H7499 0.950 . S
C7478 H7474 0.949 . S
C7478 C7486 1.574 . S
C7478 C7494 1.368 . S
H7479 C7487 0.950 . S
H7480 C7485 0.950 . S
H7481 C7486 0.949 . S
H7482 C7488 0.950 . S
H7483 C7489 0.950 . S
H7484 C7490 0.949 . S
C7485 H7480 0.950 . S
C7485 C7487 1.327 . S
C7485 C7491 1.429 . S
C7486 C7478 1.574 . S
C7486 H7481 0.949 . S
C7486 C7492 1.368 . S
C7487 C7471 1.349 . S
C7487 H7479 0.950 . S
C7487 C7485 1.327 . S
C7488 C7476 1.349 . S
C7488 H7482 0.950 . S
C7488 C7489 1.327 . S
C7489 H7483 0.950 . S
C7489 C7488 1.327 . S
C7489 C7493 1.429 . S
C7490 C7473 1.574 . S
C7490 H7484 0.949 . S
C7490 C7494 1.368 . S
C7491 C7472 1.429 . S
C7491 C7485 1.429 . S
C7491 C7492 1.523 . S
C7492 C7473 1.368 . S
C7492 C7486 1.368 . S
C7492 C7491 1.523 . S
C7493 C7477 1.429 . S
C7493 C7489 1.429 . S
C7493 C7494 1.523 . S
C7494 C7478 1.368 . S
C7494 C7490 1.368 . S
C7494 C7493 1.523 . S
H7495 C7470 0.950 . S
H7496 C7472 0.950 . S
H7497 C7473 0.949 . S
H7498 C7475 0.950 . S
H7499 C7477 0.950 . S
C7500 C7501 1.349 . S
C7500 C7502 1.327 . S
C7500 H7525 0.950 . S
C7501 C7500 1.349 . S
C7501 C7517 1.349 . S
C7502 C7500 1.327 . S
C7502 C7521 1.429 . S
C7502 H7526 0.950 . S
C7503 C7520 1.574 . S
C7503 C7522 1.368 . S
C7503 H7527 0.949 . S
H7504 C7508 0.949 . S
C7505 C7506 1.349 . S
C7505 C7507 1.327 . S
C7505 H7528 0.950 . S
C7506 C7505 1.349 . S
C7506 C7518 1.349 . S
C7507 C7505 1.327 . S
C7507 C7523 1.429 . S
C7507 H7529 0.950 . S
C7508 H7504 0.949 . S
C7508 C7516 1.574 . S
C7508 C7524 1.368 . S
H7509 C7517 0.950 . S
H7510 C7515 0.950 . S
H7511 C7516 0.949 . S
H7512 C7518 0.950 . S
H7513 C7519 0.950 . S
H7514 C7520 0.949 . S
C7515 H7510 0.950 . S
C7515 C7517 1.327 . S
C7515 C7521 1.429 . S
C7516 C7508 1.574 . S
C7516 H7511 0.949 . S
C7516 C7522 1.368 . S
C7517 C7501 1.349 . S
C7517 H7509 0.950 . S
C7517 C7515 1.327 . S
C7518 C7506 1.349 . S
C7518 H7512 0.950 . S
C7518 C7519 1.327 . S
C7519 H7513 0.950 . S
C7519 C7518 1.327 . S
C7519 C7523 1.429 . S
C7520 C7503 1.574 . S
C7520 H7514 0.949 . S
C7520 C7524 1.368 . S
C7521 C7502 1.429 . S
C7521 C7515 1.429 . S
C7521 C7522 1.523 . S
C7522 C7503 1.368 . S
C7522 C7516 1.368 . S
C7522 C7521 1.523 . S
C7523 C7507 1.429 . S
C7523 C7519 1.429 . S
C7523 C7524 1.523 . S
C7524 C7508 1.368 . S
C7524 C7520 1.368 . S
C7524 C7523 1.523 . S
H7525 C7500 0.950 . S
H7526 C7502 0.950 . S
H7527 C7503 0.949 . S
H7528 C7505 0.950 . S
H7529 C7507 0.950 . S
C7530 C7531 1.349 . S
C7530 C7532 1.327 . S
C7530 H7555 0.950 . S
C7531 C7530 1.349 . S
C7531 C7547 1.349 . S
C7532 C7530 1.327 . S
C7532 C7551 1.429 . S
C7532 H7556 0.950 . S
C7533 C7550 1.574 . S
C7533 C7552 1.368 . S
C7533 H7557 0.949 . S
H7534 C7538 0.949 . S
C7535 C7536 1.349 . S
C7535 C7537 1.327 . S
C7535 H7558 0.950 . S
C7536 C7535 1.349 . S
C7536 C7548 1.349 . S
C7537 C7535 1.327 . S
C7537 C7553 1.429 . S
C7537 H7559 0.950 . S
C7538 H7534 0.949 . S
C7538 C7546 1.574 . S
C7538 C7554 1.368 . S
H7539 C7547 0.950 . S
H7540 C7545 0.950 . S
H7541 C7546 0.949 . S
H7542 C7548 0.950 . S
H7543 C7549 0.950 . S
H7544 C7550 0.949 . S
C7545 H7540 0.950 . S
C7545 C7547 1.327 . S
C7545 C7551 1.429 . S
C7546 C7538 1.574 . S
C7546 H7541 0.949 . S
C7546 C7552 1.368 . S
C7547 C7531 1.349 . S
C7547 H7539 0.950 . S
C7547 C7545 1.327 . S
C7548 C7536 1.349 . S
C7548 H7542 0.950 . S
C7548 C7549 1.327 . S
C7549 H7543 0.950 . S
C7549 C7548 1.327 . S
C7549 C7553 1.429 . S
C7550 C7533 1.574 . S
C7550 H7544 0.949 . S
C7550 C7554 1.368 . S
C7551 C7532 1.429 . S
C7551 C7545 1.429 . S
C7551 C7552 1.523 . S
C7552 C7533 1.368 . S
C7552 C7546 1.368 . S
C7552 C7551 1.523 . S
C7553 C7537 1.429 . S
C7553 C7549 1.429 . S
C7553 C7554 1.523 . S
C7554 C7538 1.368 . S
C7554 C7550 1.368 . S
C7554 C7553 1.523 . S
H7555 C7530 0.950 . S
H7556 C7532 0.950 . S
H7557 C7533 0.949 . S
H7558 C7535 0.950 . S
H7559 C7537 0.950 . S
C7560 C7561 1.349 . S
C7560 C7562 1.327 . S
C7560 H7585 0.950 . S
C7561 C7560 1.349 . S
C7561 C7577 1.349 . S
C7562 C7560 1.327 . S
C7562 C7581 1.429 . S
C7562 H7586 0.950 . S
C7563 C7580 1.574 . S
C7563 C7582 1.368 . S
C7563 H7587 0.949 . S
H7564 C7568 0.949 . S
C7565 C7566 1.349 . S
C7565 C7567 1.327 . S
C7565 H7588 0.950 . S
C7566 C7565 1.349 . S
C7566 C7578 1.349 . S
C7567 C7565 1.327 . S
C7567 C7583 1.429 . S
C7567 H7589 0.950 . S
C7568 H7564 0.949 . S
C7568 C7576 1.574 . S
C7568 C7584 1.368 . S
H7569 C7577 0.950 . S
H7570 C7575 0.950 . S
H7571 C7576 0.949 . S
H7572 C7578 0.950 . S
H7573 C7579 0.950 . S
H7574 C7580 0.949 . S
C7575 H7570 0.950 . S
C7575 C7577 1.327 . S
C7575 C7581 1.429 . S
C7576 C7568 1.574 . S
C7576 H7571 0.949 . S
C7576 C7582 1.368 . S
C7577 C7561 1.349 . S
C7577 H7569 0.950 . S
C7577 C7575 1.327 . S
C7578 C7566 1.349 . S
C7578 H7572 0.950 . S
C7578 C7579 1.327 . S
C7579 H7573 0.950 . S
C7579 C7578 1.327 . S
C7579 C7583 1.429 . S
C7580 C7563 1.574 . S
C7580 H7574 0.949 . S
C7580 C7584 1.368 . S
C7581 C7562 1.429 . S
C7581 C7575 1.429 . S
C7581 C7582 1.523 . S
C7582 C7563 1.368 . S
C7582 C7576 1.368 . S
C7582 C7581 1.523 . S
C7583 C7567 1.429 . S
C7583 C7579 1.429 . S
C7583 C7584 1.523 . S
C7584 C7568 1.368 . S
C7584 C7580 1.368 . S
C7584 C7583 1.523 . S
H7585 C7560 0.950 . S
H7586 C7562 0.950 . S
H7587 C7563 0.949 . S
H7588 C7565 0.950 . S
H7589 C7567 0.950 . S
C7590 C7591 1.349 . S
C7590 C7592 1.327 . S
C7590 H7615 0.950 . S
C7591 C7590 1.349 . S
C7591 C7607 1.349 . S
C7592 C7590 1.327 . S
C7592 C7611 1.429 . S
C7592 H7616 0.950 . S
C7593 C7610 1.574 . S
C7593 C7612 1.368 . S
C7593 H7617 0.949 . S
H7594 C7598 0.949 . S
C7595 C7596 1.349 . S
C7595 C7597 1.327 . S
C7595 H7618 0.950 . S
C7596 C7595 1.349 . S
C7596 C7608 1.349 . S
C7597 C7595 1.327 . S
C7597 C7613 1.429 . S
C7597 H7619 0.950 . S
C7598 H7594 0.949 . S
C7598 C7606 1.574 . S
C7598 C7614 1.368 . S
H7599 C7607 0.950 . S
H7600 C7605 0.950 . S
H7601 C7606 0.949 . S
H7602 C7608 0.950 . S
H7603 C7609 0.950 . S
H7604 C7610 0.949 . S
C7605 H7600 0.950 . S
C7605 C7607 1.327 . S
C7605 C7611 1.429 . S
C7606 C7598 1.574 . S
C7606 H7601 0.949 . S
C7606 C7612 1.368 . S
C7607 C7591 1.349 . S
C7607 H7599 0.950 . S
C7607 C7605 1.327 . S
C7608 C7596 1.349 . S
C7608 H7602 0.950 . S
C7608 C7609 1.327 . S
C7609 H7603 0.950 . S
C7609 C7608 1.327 . S
C7609 C7613 1.429 . S
C7610 C7593 1.574 . S
C7610 H7604 0.949 . S
C7610 C7614 1.368 . S
C7611 C7592 1.429 . S
C7611 C7605 1.429 . S
C7611 C7612 1.523 . S
C7612 C7593 1.368 . S
C7612 C7606 1.368 . S
C7612 C7611 1.523 . S
C7613 C7597 1.429 . S
C7613 C7609 1.429 . S
C7613 C7614 1.523 . S
C7614 C7598 1.368 . S
C7614 C7610 1.368 . S
C7614 C7613 1.523 . S
H7615 C7590 0.950 . S
H7616 C7592 0.950 . S
H7617 C7593 0.949 . S
H7618 C7595 0.950 . S
H7619 C7597 0.950 . S
C7620 C7621 1.349 . S
C7620 C7622 1.327 . S
C7620 H7645 0.950 . S
C7621 C7620 1.349 . S
C7621 C7637 1.349 . S
C7622 C7620 1.327 . S
C7622 C7641 1.429 . S
C7622 H7646 0.950 . S
C7623 C7640 1.574 . S
C7623 C7642 1.368 . S
C7623 H7647 0.949 . S
H7624 C7628 0.949 . S
C7625 C7626 1.349 . S
C7625 C7627 1.327 . S
C7625 H7648 0.950 . S
C7626 C7625 1.349 . S
C7626 C7638 1.349 . S
C7627 C7625 1.327 . S
C7627 C7643 1.429 . S
C7627 H7649 0.950 . S
C7628 H7624 0.949 . S
C7628 C7636 1.574 . S
C7628 C7644 1.368 . S
H7629 C7637 0.950 . S
H7630 C7635 0.950 . S
H7631 C7636 0.949 . S
H7632 C7638 0.950 . S
H7633 C7639 0.950 . S
H7634 C7640 0.949 . S
C7635 H7630 0.950 . S
C7635 C7637 1.327 . S
C7635 C7641 1.429 . S
C7636 C7628 1.574 . S
C7636 H7631 0.949 . S
C7636 C7642 1.368 . S
C7637 C7621 1.349 . S
C7637 H7629 0.950 . S
C7637 C7635 1.327 . S
C7638 C7626 1.349 . S
C7638 H7632 0.950 . S
C7638 C7639 1.327 . S
C7639 H7633 0.950 . S
C7639 C7638 1.327 . S
C7639 C7643 1.429 . S
C7640 C7623 1.574 . S
C7640 H7634 0.949 . S
C7640 C7644 1.368 . S
C7641 C7622 1.429 . S
C7641 C7635 1.429 . S
C7641 C7642 1.523 . S
C7642 C7623 1.368 . S
C7642 C7636 1.368 . S
C7642 C7641 1.523 . S
C7643 C7627 1.429 . S
C7643 C7639 1.429 . S
C7643 C7644 1.523 . S
C7644 C7628 1.368 . S
C7644 C7640 1.368 . S
C7644 C7643 1.523 . S
H7645 C7620 0.950 . S
H7646 C7622 0.950 . S
H7647 C7623 0.949 . S
H7648 C7625 0.950 . S
H7649 C7627 0.950 . S
C7650 C7651 1.349 . S
C7650 C7652 1.327 . S
C7650 H7675 0.950 . S
C7651 C7650 1.349 . S
C7651 C7667 1.349 . S
C7652 C7650 1.327 . S
C7652 C7671 1.429 . S
C7652 H7676 0.950 . S
C7653 C7670 1.574 . S
C7653 C7672 1.368 . S
C7653 H7677 0.949 . S
H7654 C7658 0.949 . S
C7655 C7656 1.349 . S
C7655 C7657 1.327 . S
C7655 H7678 0.950 . S
C7656 C7655 1.349 . S
C7656 C7668 1.349 . S
C7657 C7655 1.327 . S
C7657 C7673 1.429 . S
C7657 H7679 0.950 . S
C7658 H7654 0.949 . S
C7658 C7666 1.574 . S
C7658 C7674 1.368 . S
H7659 C7667 0.950 . S
H7660 C7665 0.950 . S
H7661 C7666 0.949 . S
H7662 C7668 0.950 . S
H7663 C7669 0.950 . S
H7664 C7670 0.949 . S
C7665 H7660 0.950 . S
C7665 C7667 1.327 . S
C7665 C7671 1.429 . S
C7666 C7658 1.574 . S
C7666 H7661 0.949 . S
C7666 C7672 1.368 . S
C7667 C7651 1.349 . S
C7667 H7659 0.950 . S
C7667 C7665 1.327 . S
C7668 C7656 1.349 . S
C7668 H7662 0.950 . S
C7668 C7669 1.327 . S
C7669 H7663 0.950 . S
C7669 C7668 1.327 . S
C7669 C7673 1.429 . S
C7670 C7653 1.574 . S
C7670 H7664 0.949 . S
C7670 C7674 1.368 . S
C7671 C7652 1.429 . S
C7671 C7665 1.429 . S
C7671 C7672 1.523 . S
C7672 C7653 1.368 . S
C7672 C7666 1.368 . S
C7672 C7671 1.523 . S
C7673 C7657 1.429 . S
C7673 C7669 1.429 . S
C7673 C7674 1.523 . S
C7674 C7658 1.368 . S
C7674 C7670 1.368 . S
C7674 C7673 1.523 . S
H7675 C7650 0.950 . S
H7676 C7652 0.950 . S
H7677 C7653 0.949 . S
H7678 C7655 0.950 . S
H7679 C7657 0.950 . S
C7680 C7681 1.349 . S
C7680 C7682 1.327 . S
C7680 H7705 0.950 . S
C7681 C7680 1.349 . S
C7681 C7697 1.349 . S
C7682 C7680 1.327 . S
C7682 C7701 1.429 . S
C7682 H7706 0.950 . S
C7683 C7700 1.574 . S
C7683 C7702 1.368 . S
C7683 H7707 0.949 . S
H7684 C7688 0.949 . S
C7685 C7686 1.349 . S
C7685 C7687 1.327 . S
C7685 H7708 0.950 . S
C7686 C7685 1.349 . S
C7686 C7698 1.349 . S
C7687 C7685 1.327 . S
C7687 C7703 1.429 . S
C7687 H7709 0.950 . S
C7688 H7684 0.949 . S
C7688 C7696 1.574 . S
C7688 C7704 1.368 . S
H7689 C7697 0.950 . S
H7690 C7695 0.950 . S
H7691 C7696 0.949 . S
H7692 C7698 0.950 . S
H7693 C7699 0.950 . S
H7694 C7700 0.949 . S
C7695 H7690 0.950 . S
C7695 C7697 1.327 . S
C7695 C7701 1.429 . S
C7696 C7688 1.574 . S
C7696 H7691 0.949 . S
C7696 C7702 1.368 . S
C7697 C7681 1.349 . S
C7697 H7689 0.950 . S
C7697 C7695 1.327 . S
C7698 C7686 1.349 . S
C7698 H7692 0.950 . S
C7698 C7699 1.327 . S
C7699 H7693 0.950 . S
C7699 C7698 1.327 . S
C7699 C7703 1.429 . S
C7700 C7683 1.574 . S
C7700 H7694 0.949 . S
C7700 C7704 1.368 . S
C7701 C7682 1.429 . S
C7701 C7695 1.429 . S
C7701 C7702 1.523 . S
C7702 C7683 1.368 . S
C7702 C7696 1.368 . S
C7702 C7701 1.523 . S
C7703 C7687 1.429 . S
C7703 C7699 1.429 . S
C7703 C7704 1.523 . S
C7704 C7688 1.368 . S
C7704 C7700 1.368 . S
C7704 C7703 1.523 . S
H7705 C7680 0.950 . S
H7706 C7682 0.950 . S
H7707 C7683 0.949 . S
H7708 C7685 0.950 . S
H7709 C7687 0.950 . S
C7710 C7711 1.349 . S
C7710 C7712 1.327 . S
C7710 H7735 0.950 . S
C7711 C7710 1.349 . S
C7711 C7727 1.349 . S
C7712 C7710 1.327 . S
C7712 C7731 1.429 . S
C7712 H7736 0.950 . S
C7713 C7730 1.574 . S
C7713 C7732 1.368 . S
C7713 H7737 0.949 . S
H7714 C7718 0.949 . S
C7715 C7716 1.349 . S
C7715 C7717 1.327 . S
C7715 H7738 0.950 . S
C7716 C7715 1.349 . S
C7716 C7728 1.349 . S
C7717 C7715 1.327 . S
C7717 C7733 1.429 . S
C7717 H7739 0.950 . S
C7718 H7714 0.949 . S
C7718 C7726 1.574 . S
C7718 C7734 1.368 . S
H7719 C7727 0.950 . S
H7720 C7725 0.950 . S
H7721 C7726 0.949 . S
H7722 C7728 0.950 . S
H7723 C7729 0.950 . S
H7724 C7730 0.949 . S
C7725 H7720 0.950 . S
C7725 C7727 1.327 . S
C7725 C7731 1.429 . S
C7726 C7718 1.574 . S
C7726 H7721 0.949 . S
C7726 C7732 1.368 . S
C7727 C7711 1.349 . S
C7727 H7719 0.950 . S
C7727 C7725 1.327 . S
C7728 C7716 1.349 . S
C7728 H7722 0.950 . S
C7728 C7729 1.327 . S
C7729 H7723 0.950 . S
C7729 C7728 1.327 . S
C7729 C7733 1.429 . S
C7730 C7713 1.574 . S
C7730 H7724 0.949 . S
C7730 C7734 1.368 . S
C7731 C7712 1.429 . S
C7731 C7725 1.429 . S
C7731 C7732 1.523 . S
C7732 C7713 1.368 . S
C7732 C7726 1.368 . S
C7732 C7731 1.523 . S
C7733 C7717 1.429 . S
C7733 C7729 1.429 . S
C7733 C7734 1.523 . S
C7734 C7718 1.368 . S
C7734 C7730 1.368 . S
C7734 C7733 1.523 . S
H7735 C7710 0.950 . S
H7736 C7712 0.950 . S
H7737 C7713 0.949 . S
H7738 C7715 0.950 . S
H7739 C7717 0.950 . S
C7740 C7741 1.349 . S
C7740 C7742 1.327 . S
C7740 H7765 0.950 . S
C7741 C7740 1.349 . S
C7741 C7757 1.349 . S
C7742 C7740 1.327 . S
C7742 C7761 1.429 . S
C7742 H7766 0.950 . S
C7743 C7760 1.574 . S
C7743 C7762 1.368 . S
C7743 H7767 0.949 . S
H7744 C7748 0.949 . S
C7745 C7746 1.349 . S
C7745 C7747 1.327 . S
C7745 H7768 0.950 . S
C7746 C7745 1.349 . S
C7746 C7758 1.349 . S
C7747 C7745 1.327 . S
C7747 C7763 1.429 . S
C7747 H7769 0.950 . S
C7748 H7744 0.949 . S
C7748 C7756 1.574 . S
C7748 C7764 1.368 . S
H7749 C7757 0.950 . S
H7750 C7755 0.950 . S
H7751 C7756 0.949 . S
H7752 C7758 0.950 . S
H7753 C7759 0.950 . S
H7754 C7760 0.949 . S
C7755 H7750 0.950 . S
C7755 C7757 1.327 . S
C7755 C7761 1.429 . S
C7756 C7748 1.574 . S
C7756 H7751 0.949 . S
C7756 C7762 1.368 . S
C7757 C7741 1.349 . S
C7757 H7749 0.950 . S
C7757 C7755 1.327 . S
C7758 C7746 1.349 . S
C7758 H7752 0.950 . S
C7758 C7759 1.327 . S
C7759 H7753 0.950 . S
C7759 C7758 1.327 . S
C7759 C7763 1.429 . S
C7760 C7743 1.574 . S
C7760 H7754 0.949 . S
C7760 C7764 1.368 . S
C7761 C7742 1.429 . S
C7761 C7755 1.429 . S
C7761 C7762 1.523 . S
C7762 C7743 1.368 . S
C7762 C7756 1.368 . S
C7762 C7761 1.523 . S
C7763 C7747 1.429 . S
C7763 C7759 1.429 . S
C7763 C7764 1.523 . S
C7764 C7748 1.368 . S
C7764 C7760 1.368 . S
C7764 C7763 1.523 . S
H7765 C7740 0.950 . S
H7766 C7742 0.950 . S
H7767 C7743 0.949 . S
H7768 C7745 0.950 . S
H7769 C7747 0.950 . S
C7770 C7771 1.349 . S
C7770 C7772 1.327 . S
C7770 H7795 0.950 . S
C7771 C7770 1.349 . S
C7771 C7787 1.349 . S
C7772 C7770 1.327 . S
C7772 C7791 1.429 . S
C7772 H7796 0.950 . S
C7773 C7790 1.574 . S
C7773 C7792 1.368 . S
C7773 H7797 0.949 . S
H7774 C7778 0.949 . S
C7775 C7776 1.349 . S
C7775 C7777 1.327 . S
C7775 H7798 0.950 . S
C7776 C7775 1.349 . S
C7776 C7788 1.349 . S
C7777 C7775 1.327 . S
C7777 C7793 1.429 . S
C7777 H7799 0.950 . S
C7778 H7774 0.949 . S
C7778 C7786 1.574 . S
C7778 C7794 1.368 . S
H7779 C7787 0.950 . S
H7780 C7785 0.950 . S
H7781 C7786 0.949 . S
H7782 C7788 0.950 . S
H7783 C7789 0.950 . S
H7784 C7790 0.949 . S
C7785 H7780 0.950 . S
C7785 C7787 1.327 . S
C7785 C7791 1.429 . S
C7786 C7778 1.574 . S
C7786 H7781 0.949 . S
C7786 C7792 1.368 . S
C7787 C7771 1.349 . S
C7787 H7779 0.950 . S
C7787 C7785 1.327 . S
C7788 C7776 1.349 . S
C7788 H7782 0.950 . S
C7788 C7789 1.327 . S
C7789 H7783 0.950 . S
C7789 C7788 1.327 . S
C7789 C7793 1.429 . S
C7790 C7773 1.574 . S
C7790 H7784 0.949 . S
C7790 C7794 1.368 . S
C7791 C7772 1.429 . S
C7791 C7785 1.429 . S
C7791 C7792 1.523 . S
C7792 C7773 1.368 . S
C7792 C7786 1.368 . S
C7792 C7791 1.523 . S
C7793 C7777 1.429 . S
C7793 C7789 1.429 . S
C7793 C7794 1.523 . S
C7794 C7778 1.368 . S
C7794 C7790 1.368 . S
C7794 C7793 1.523 . S
H7795 C7770 0.950 . S
H7796 C7772 0.950 . S
H7797 C7773 0.949 . S
H7798 C7775 0.950 . S
H7799 C7777 0.950 . S
C7800 C7801 1.349 . S
C7800 C7802 1.327 . S
C7800 H7825 0.950 . S
C7801 C7800 1.349 . S
C7801 C7817 1.349 . S
C7802 C7800 1.327 . S
C7802 C7821 1.429 . S
C7802 H7826 0.950 . S
C7803 C7820 1.574 . S
C7803 C7822 1.368 . S
C7803 H7827 0.949 . S
H7804 C7808 0.949 . S
C7805 C7806 1.349 . S
C7805 C7807 1.327 . S
C7805 H7828 0.950 . S
C7806 C7805 1.349 . S
C7806 C7818 1.349 . S
C7807 C7805 1.327 . S
C7807 C7823 1.429 . S
C7807 H7829 0.950 . S
C7808 H7804 0.949 . S
C7808 C7816 1.574 . S
C7808 C7824 1.368 . S
H7809 C7817 0.950 . S
H7810 C7815 0.950 . S
H7811 C7816 0.949 . S
H7812 C7818 0.950 . S
H7813 C7819 0.950 . S
H7814 C7820 0.949 . S
C7815 H7810 0.950 . S
C7815 C7817 1.327 . S
C7815 C7821 1.429 . S
C7816 C7808 1.574 . S
C7816 H7811 0.949 . S
C7816 C7822 1.368 . S
C7817 C7801 1.349 . S
C7817 H7809 0.950 . S
C7817 C7815 1.327 . S
C7818 C7806 1.349 . S
C7818 H7812 0.950 . S
C7818 C7819 1.327 . S
C7819 H7813 0.950 . S
C7819 C7818 1.327 . S
C7819 C7823 1.429 . S
C7820 C7803 1.574 . S
C7820 H7814 0.949 . S
C7820 C7824 1.368 . S
C7821 C7802 1.429 . S
C7821 C7815 1.429 . S
C7821 C7822 1.523 . S
C7822 C7803 1.368 . S
C7822 C7816 1.368 . S
C7822 C7821 1.523 . S
C7823 C7807 1.429 . S
C7823 C7819 1.429 . S
C7823 C7824 1.523 . S
C7824 C7808 1.368 . S
C7824 C7820 1.368 . S
C7824 C7823 1.523 . S
H7825 C7800 0.950 . S
H7826 C7802 0.950 . S
H7827 C7803 0.949 . S
H7828 C7805 0.950 . S
H7829 C7807 0.950 . S
C7830 C7831 1.349 . S
C7830 C7832 1.327 . S
C7830 H7855 0.950 . S
C7831 C7830 1.349 . S
C7831 C7847 1.349 . S
C7832 C7830 1.327 . S
C7832 C7851 1.429 . S
C7832 H7856 0.950 . S
C7833 C7850 1.574 . S
C7833 C7852 1.368 . S
C7833 H7857 0.949 . S
H7834 C7838 0.949 . S
C7835 C7836 1.349 . S
C7835 C7837 1.327 . S
C7835 H7858 0.950 . S
C7836 C7835 1.349 . S
C7836 C7848 1.349 . S
C7837 C7835 1.327 . S
C7837 C7853 1.429 . S
C7837 H7859 0.950 . S
C7838 H7834 0.949 . S
C7838 C7846 1.574 . S
C7838 C7854 1.368 . S
H7839 C7847 0.950 . S
H7840 C7845 0.950 . S
H7841 C7846 0.949 . S
H7842 C7848 0.950 . S
H7843 C7849 0.950 . S
H7844 C7850 0.949 . S
C7845 H7840 0.950 . S
C7845 C7847 1.327 . S
C7845 C7851 1.429 . S
C7846 C7838 1.574 . S
C7846 H7841 0.949 . S
C7846 C7852 1.368 . S
C7847 C7831 1.349 . S
C7847 H7839 0.950 . S
C7847 C7845 1.327 . S
C7848 C7836 1.349 . S
C7848 H7842 0.950 . S
C7848 C7849 1.327 . S
C7849 H7843 0.950 . S
C7849 C7848 1.327 . S
C7849 C7853 1.429 . S
C7850 C7833 1.574 . S
C7850 H7844 0.949 . S
C7850 C7854 1.368 . S
C7851 C7832 1.429 . S
C7851 C7845 1.429 . S
C7851 C7852 1.523 . S
C7852 C7833 1.368 . S
C7852 C7846 1.368 . S
C7852 C7851 1.523 . S
C7853 C7837 1.429 . S
C7853 C7849 1.429 . S
C7853 C7854 1.523 . S
C7854 C7838 1.368 . S
C7854 C7850 1.368 . S
C7854 C7853 1.523 . S
H7855 C7830 0.950 . S
H7856 C7832 0.950 . S
H7857 C7833 0.949 . S
H7858 C7835 0.950 . S
H7859 C7837 0.950 . S
C7860 C7861 1.349 . S
C7860 C7862 1.327 . S
C7860 H7885 0.950 . S
C7861 C7860 1.349 . S
C7861 C7877 1.349 . S
C7862 C7860 1.327 . S
C7862 C7881 1.429 . S
C7862 H7886 0.950 . S
C7863 C7880 1.574 . S
C7863 C7882 1.368 . S
C7863 H7887 0.949 . S
H7864 C7868 0.949 . S
C7865 C7866 1.349 . S
C7865 C7867 1.327 . S
C7865 H7888 0.950 . S
C7866 C7865 1.349 . S
C7866 C7878 1.349 . S
C7867 C7865 1.327 . S
C7867 C7883 1.429 . S
C7867 H7889 0.950 . S
C7868 H7864 0.949 . S
C7868 C7876 1.574 . S
C7868 C7884 1.368 . S
H7869 C7877 0.950 . S
H7870 C7875 0.950 . S
H7871 C7876 0.949 . S
H7872 C7878 0.950 . S
H7873 C7879 0.950 . S
H7874 C7880 0.949 . S
C7875 H7870 0.950 . S
C7875 C7877 1.327 . S
C7875 C7881 1.429 . S
C7876 C7868 1.574 . S
C7876 H7871 0.949 . S
C7876 C7882 1.368 . S
C7877 C7861 1.349 . S
C7877 H7869 0.950 . S
C7877 C7875 1.327 . S
C7878 C7866 1.349 . S
C7878 H7872 0.950 . S
C7878 C7879 1.327 . S
C7879 H7873 0.950 . S
C7879 C7878 1.327 . S
C7879 C7883 1.429 . S
C7880 C7863 1.574 . S
C7880 H7874 0.949 . S
C7880 C7884 1.368 . S
C7881 C7862 1.429 . S
C7881 C7875 1.429 . S
C7881 C7882 1.523 . S
C7882 C7863 1.368 . S
C7882 C7876 1.368 . S
C7882 C7881 1.523 . S
C7883 C7867 1.429 . S
C7883 C7879 1.429 . S
C7883 C7884 1.523 . S
C7884 C7868 1.368 . S
C7884 C7880 1.368 . S
C7884 C7883 1.523 . S
H7885 C7860 0.950 . S
H7886 C7862 0.950 . S
H7887 C7863 0.949 . S
H7888 C7865 0.950 . S
H7889 C7867 0.950 . S
C7890 C7891 1.349 . S
C7890 C7892 1.327 . S
C7890 H7915 0.950 . S
C7891 C7890 1.349 . S
C7891 C7907 1.349 . S
C7892 C7890 1.327 . S
C7892 C7911 1.429 . S
C7892 H7916 0.950 . S
C7893 C7910 1.574 . S
C7893 C7912 1.368 . S
C7893 H7917 0.949 . S
H7894 C7898 0.949 . S
C7895 C7896 1.349 . S
C7895 C7897 1.327 . S
C7895 H7918 0.950 . S
C7896 C7895 1.349 . S
C7896 C7908 1.349 . S
C7897 C7895 1.327 . S
C7897 C7913 1.429 . S
C7897 H7919 0.950 . S
C7898 H7894 0.949 . S
C7898 C7906 1.574 . S
C7898 C7914 1.368 . S
H7899 C7907 0.950 . S
H7900 C7905 0.950 . S
H7901 C7906 0.949 . S
H7902 C7908 0.950 . S
H7903 C7909 0.950 . S
H7904 C7910 0.949 . S
C7905 H7900 0.950 . S
C7905 C7907 1.327 . S
C7905 C7911 1.429 . S
C7906 C7898 1.574 . S
C7906 H7901 0.949 . S
C7906 C7912 1.368 . S
C7907 C7891 1.349 . S
C7907 H7899 0.950 . S
C7907 C7905 1.327 . S
C7908 C7896 1.349 . S
C7908 H7902 0.950 . S
C7908 C7909 1.327 . S
C7909 H7903 0.950 . S
C7909 C7908 1.327 . S
C7909 C7913 1.429 . S
C7910 C7893 1.574 . S
C7910 H7904 0.949 . S
C7910 C7914 1.368 . S
C7911 C7892 1.429 . S
C7911 C7905 1.429 . S
C7911 C7912 1.523 . S
C7912 C7893 1.368 . S
C7912 C7906 1.368 . S
C7912 C7911 1.523 . S
C7913 C7897 1.429 . S
C7913 C7909 1.429 . S
C7913 C7914 1.523 . S
C7914 C7898 1.368 . S
C7914 C7910 1.368 . S
C7914 C7913 1.523 . S
H7915 C7890 0.950 . S
H7916 C7892 0.950 . S
H7917 C7893 0.949 . S
H7918 C7895 0.950 . S
H7919 C7897 0.950 . S
C7920 C7921 1.349 . S
C7920 C7922 1.327 . S
C7920 H7945 0.950 . S
C7921 C7920 1.349 . S
C7921 C7937 1.349 . S
C7922 C7920 1.327 . S
C7922 C7941 1.429 . S
C7922 H7946 0.950 . S
C7923 C7940 1.574 . S
C7923 C7942 1.368 . S
C7923 H7947 0.949 . S
H7924 C7928 0.949 . S
C7925 C7926 1.349 . S
C7925 C7927 1.327 . S
C7925 H7948 0.950 . S
C7926 C7925 1.349 . S
C7926 C7938 1.349 . S
C7927 C7925 1.327 . S
C7927 C7943 1.429 . S
C7927 H7949 0.950 . S
C7928 H7924 0.949 . S
C7928 C7936 1.574 . S
C7928 C7944 1.368 . S
H7929 C7937 0.950 . S
H7930 C7935 0.950 . S
H7931 C7936 0.949 . S
H7932 C7938 0.950 . S
H7933 C7939 0.950 . S
H7934 C7940 0.949 . S
C7935 H7930 0.950 . S
C7935 C7937 1.327 . S
C7935 C7941 1.429 . S
C7936 C7928 1.574 . S
C7936 H7931 0.949 . S
C7936 C7942 1.368 . S
C7937 C7921 1.349 . S
C7937 H7929 0.950 . S
C7937 C7935 1.327 . S
C7938 C7926 1.349 . S
C7938 H7932 0.950 . S
C7938 C7939 1.327 . S
C7939 H7933 0.950 . S
C7939 C7938 1.327 . S
C7939 C7943 1.429 . S
C7940 C7923 1.574 . S
C7940 H7934 0.949 . S
C7940 C7944 1.368 . S
C7941 C7922 1.429 . S
C7941 C7935 1.429 . S
C7941 C7942 1.523 . S
C7942 C7923 1.368 . S
C7942 C7936 1.368 . S
C7942 C7941 1.523 . S
C7943 C7927 1.429 . S
C7943 C7939 1.429 . S
C7943 C7944 1.523 . S
C7944 C7928 1.368 . S
C7944 C7940 1.368 . S
C7944 C7943 1.523 . S
H7945 C7920 0.950 . S
H7946 C7922 0.950 . S
H7947 C7923 0.949 . S
H7948 C7925 0.950 . S
H7949 C7927 0.950 . S
C7950 C7951 1.349 . S
C7950 C7952 1.327 . S
C7950 H7975 0.950 . S
C7951 C7950 1.349 . S
C7951 C7967 1.349 . S
C7952 C7950 1.327 . S
C7952 C7971 1.429 . S
C7952 H7976 0.950 . S
C7953 C7970 1.574 . S
C7953 C7972 1.368 . S
C7953 H7977 0.949 . S
H7954 C7958 0.949 . S
C7955 C7956 1.349 . S
C7955 C7957 1.327 . S
C7955 H7978 0.950 . S
C7956 C7955 1.349 . S
C7956 C7968 1.349 . S
C7957 C7955 1.327 . S
C7957 C7973 1.429 . S
C7957 H7979 0.950 . S
C7958 H7954 0.949 . S
C7958 C7966 1.574 . S
C7958 C7974 1.368 . S
H7959 C7967 0.950 . S
H7960 C7965 0.950 . S
H7961 C7966 0.949 . S
H7962 C7968 0.950 . S
H7963 C7969 0.950 . S
H7964 C7970 0.949 . S
C7965 H7960 0.950 . S
C7965 C7967 1.327 . S
C7965 C7971 1.429 . S
C7966 C7958 1.574 . S
C7966 H7961 0.949 . S
C7966 C7972 1.368 . S
C7967 C7951 1.349 . S
C7967 H7959 0.950 . S
C7967 C7965 1.327 . S
C7968 C7956 1.349 . S
C7968 H7962 0.950 . S
C7968 C7969 1.327 . S
C7969 H7963 0.950 . S
C7969 C7968 1.327 . S
C7969 C7973 1.429 . S
C7970 C7953 1.574 . S
C7970 H7964 0.949 . S
C7970 C7974 1.368 . S
C7971 C7952 1.429 . S
C7971 C7965 1.429 . S
C7971 C7972 1.523 . S
C7972 C7953 1.368 . S
C7972 C7966 1.368 . S
C7972 C7971 1.523 . S
C7973 C7957 1.429 . S
C7973 C7969 1.429 . S
C7973 C7974 1.523 . S
C7974 C7958 1.368 . S
C7974 C7970 1.368 . S
C7974 C7973 1.523 . S
H7975 C7950 0.950 . S
H7976 C7952 0.950 . S
H7977 C7953 0.949 . S
H7978 C7955 0.950 . S
H7979 C7957 0.950 . S
C7980 C7981 1.349 . S
C7980 C7982 1.327 . S
C7980 H8005 0.950 . S
C7981 C7980 1.349 . S
C7981 C7997 1.349 . S
C7982 C7980 1.327 . S
C7982 C8001 1.429 . S
C7982 H8006 0.950 . S
C7983 C8000 1.574 . S
C7983 C8002 1.368 . S
C7983 H8007 0.949 . S
H7984 C7988 0.949 . S
C7985 C7986 1.349 . S
C7985 C7987 1.327 . S
C7985 H8008 0.950 . S
C7986 C7985 1.349 . S
C7986 C7998 1.349 . S
C7987 C7985 1.327 . S
C7987 C8003 1.429 . S
C7987 H8009 0.950 . S
C7988 H7984 0.949 . S
C7988 C7996 1.574 . S
C7988 C8004 1.368 . S
H7989 C7997 0.950 . S
H7990 C7995 0.950 . S
H7991 C7996 0.949 . S
H7992 C7998 0.950 . S
H7993 C7999 0.950 . S
H7994 C8000 0.949 . S
C7995 H7990 0.950 . S
C7995 C7997 1.327 . S
C7995 C8001 1.429 . S
C7996 C7988 1.574 . S
C7996 H7991 0.949 . S
C7996 C8002 1.368 . S
C7997 C7981 1.349 . S
C7997 H7989 0.950 . S
C7997 C7995 1.327 . S
C7998 C7986 1.349 . S
C7998 H7992 0.950 . S
C7998 C7999 1.327 . S
C7999 H7993 0.950 . S
C7999 C7998 1.327 . S
C7999 C8003 1.429 . S
C8000 C7983 1.574 . S
C8000 H7994 0.949 . S
C8000 C8004 1.368 . S
C8001 C7982 1.429 . S
C8001 C7995 1.429 . S
C8001 C8002 1.523 . S
C8002 C7983 1.368 . S
C8002 C7996 1.368 . S
C8002 C8001 1.523 . S
C8003 C7987 1.429 . S
C8003 C7999 1.429 . S
C8003 C8004 1.523 . S
C8004 C7988 1.368 . S
C8004 C8000 1.368 . S
C8004 C8003 1.523 . S
H8005 C7980 0.950 . S
H8006 C7982 0.950 . S
H8007 C7983 0.949 . S
H8008 C7985 0.950 . S
H8009 C7987 0.950 . S
C8010 C8011 1.349 . S
C8010 C8012 1.327 . S
C8010 H8035 0.950 . S
C8011 C8010 1.349 . S
C8011 C8027 1.349 . S
C8012 C8010 1.327 . S
C8012 C8031 1.429 . S
C8012 H8036 0.950 . S
C8013 C8030 1.574 . S
C8013 C8032 1.368 . S
C8013 H8037 0.949 . S
H8014 C8018 0.949 . S
C8015 C8016 1.349 . S
C8015 C8017 1.327 . S
C8015 H8038 0.950 . S
C8016 C8015 1.349 . S
C8016 C8028 1.349 . S
C8017 C8015 1.327 . S
C8017 C8033 1.429 . S
C8017 H8039 0.950 . S
C8018 H8014 0.949 . S
C8018 C8026 1.574 . S
C8018 C8034 1.368 . S
H8019 C8027 0.950 . S
H8020 C8025 0.950 . S
H8021 C8026 0.949 . S
H8022 C8028 0.950 . S
H8023 C8029 0.950 . S
H8024 C8030 0.949 . S
C8025 H8020 0.950 . S
C8025 C8027 1.327 . S
C8025 C8031 1.429 . S
C8026 C8018 1.574 . S
C8026 H8021 0.949 . S
C8026 C8032 1.368 . S
C8027 C8011 1.349 . S
C8027 H8019 0.950 . S
C8027 C8025 1.327 . S
C8028 C8016 1.349 . S
C8028 H8022 0.950 . S
C8028 C8029 1.327 . S
C8029 H8023 0.950 . S
C8029 C8028 1.327 . S
C8029 C8033 1.429 . S
C8030 C8013 1.574 . S
C8030 H8024 0.949 . S
C8030 C8034 1.368 . S
C8031 C8012 1.429 . S
C8031 C8025 1.429 . S
C8031 C8032 1.523 . S
C8032 C8013 1.368 . S
C8032 C8026 1.368 . S
C8032 C8031 1.523 . S
C8033 C8017 1.429 . S
C8033 C8029 1.429 . S
C8033 C8034 1.523 . S
C8034 C8018 1.368 . S
C8034 C8030 1.368 . S
C8034 C8033 1.523 . S
H8035 C8010 0.950 . S
H8036 C8012 0.950 . S
H8037 C8013 0.949 . S
H8038 C8015 0.950 . S
H8039 C8017 0.950 . S
C8040 C8041 1.349 . S
C8040 C8042 1.327 . S
C8040 H8065 0.950 . S
C8041 C8040 1.349 . S
C8041 C8057 1.349 . S
C8042 C8040 1.327 . S
C8042 C8061 1.429 . S
C8042 H8066 0.950 . S
C8043 C8060 1.574 . S
C8043 C8062 1.368 . S
C8043 H8067 0.949 . S
H8044 C8048 0.949 . S
C8045 C8046 1.349 . S
C8045 C8047 1.327 . S
C8045 H8068 0.950 . S
C8046 C8045 1.349 . S
C8046 C8058 1.349 . S
C8047 C8045 1.327 . S
C8047 C8063 1.429 . S
C8047 H8069 0.950 . S
C8048 H8044 0.949 . S
C8048 C8056 1.574 . S
C8048 C8064 1.368 . S
H8049 C8057 0.950 . S
H8050 C8055 0.950 . S
H8051 C8056 0.949 . S
H8052 C8058 0.950 . S
H8053 C8059 0.950 . S
H8054 C8060 0.949 . S
C8055 H8050 0.950 . S
C8055 C8057 1.327 . S
C8055 C8061 1.429 . S
C8056 C8048 1.574 . S
C8056 H8051 0.949 . S
C8056 C8062 1.368 . S
C8057 C8041 1.349 . S
C8057 H8049 0.950 . S
C8057 C8055 1.327 . S
C8058 C8046 1.349 . S
C8058 H8052 0.950 . S
C8058 C8059 1.327 . S
C8059 H8053 0.950 . S
C8059 C8058 1.327 . S
C8059 C8063 1.429 . S
C8060 C8043 1.574 . S
C8060 H8054 0.949 . S
C8060 C8064 1.368 . S
C8061 C8042 1.429 . S
C8061 C8055 1.429 . S
C8061 C8062 1.523 . S
C8062 C8043 1.368 . S
C8062 C8056 1.368 . S
C8062 C8061 1.523 . S
C8063 C8047 1.429 . S
C8063 C8059 1.429 . S
C8063 C8064 1.523 . S
C8064 C8048 1.368 . S
C8064 C8060 1.368 . S
C8064 C8063 1.523 . S
H8065 C8040 0.950 . S
H8066 C8042 0.950 . S
H8067 C8043 0.949 . S
H8068 C8045 0.950 . S
H8069 C8047 0.950 . S
C8070 C8071 1.349 . S
C8070 C8072 1.327 . S
C8070 H8095 0.950 . S
C8071 C8070 1.349 . S
C8071 C8087 1.349 . S
C8072 C8070 1.327 . S
C8072 C8091 1.429 . S
C8072 H8096 0.950 . S
C8073 C8090 1.574 . S
C8073 C8092 1.368 . S
C8073 H8097 0.949 . S
H8074 C8078 0.949 . S
C8075 C8076 1.349 . S
C8075 C8077 1.327 . S
C8075 H8098 0.950 . S
C8076 C8075 1.349 . S
C8076 C8088 1.349 . S
C8077 C8075 1.327 . S
C8077 C8093 1.429 . S
C8077 H8099 0.950 . S
C8078 H8074 0.949 . S
C8078 C8086 1.574 . S
C8078 C8094 1.368 . S
H8079 C8087 0.950 . S
H8080 C8085 0.950 . S
H8081 C8086 0.949 . S
H8082 C8088 0.950 . S
H8083 C8089 0.950 . S
H8084 C8090 0.949 . S
C8085 H8080 0.950 . S
C8085 C8087 1.327 . S
C8085 C8091 1.429 . S
C8086 C8078 1.574 . S
C8086 H8081 0.949 . S
C8086 C8092 1.368 . S
C8087 C8071 1.349 . S
C8087 H8079 0.950 . S
C8087 C8085 1.327 . S
C8088 C8076 1.349 . S
C8088 H8082 0.950 . S
C8088 C8089 1.327 . S
C8089 H8083 0.950 . S
C8089 C8088 1.327 . S
C8089 C8093 1.429 . S
C8090 C8073 1.574 . S
C8090 H8084 0.949 . S
C8090 C8094 1.368 . S
C8091 C8072 1.429 . S
C8091 C8085 1.429 . S
C8091 C8092 1.523 . S
C8092 C8073 1.368 . S
C8092 C8086 1.368 . S
C8092 C8091 1.523 . S
C8093 C8077 1.429 . S
C8093 C8089 1.429 . S
C8093 C8094 1.523 . S
C8094 C8078 1.368 . S
C8094 C8090 1.368 . S
C8094 C8093 1.523 . S
H8095 C8070 0.950 . S
H8096 C8072 0.950 . S
H8097 C8073 0.949 . S
H8098 C8075 0.950 . S
H8099 C8077 0.950 . S
C8100 C8101 1.349 . S
C8100 C8102 1.327 . S
C8100 H8125 0.950 . S
C8101 C8100 1.349 . S
C8101 C8117 1.349 . S
C8102 C8100 1.327 . S
C8102 C8121 1.429 . S
C8102 H8126 0.950 . S
C8103 C8120 1.574 . S
C8103 C8122 1.368 . S
C8103 H8127 0.949 . S
H8104 C8108 0.949 . S
C8105 C8106 1.349 . S
C8105 C8107 1.327 . S
C8105 H8128 0.950 . S
C8106 C8105 1.349 . S
C8106 C8118 1.349 . S
C8107 C8105 1.327 . S
C8107 C8123 1.429 . S
C8107 H8129 0.950 . S
C8108 H8104 0.949 . S
C8108 C8116 1.574 . S
C8108 C8124 1.368 . S
H8109 C8117 0.950 . S
H8110 C8115 0.950 . S
H8111 C8116 0.949 . S
H8112 C8118 0.950 . S
H8113 C8119 0.950 . S
H8114 C8120 0.949 . S
C8115 H8110 0.950 . S
C8115 C8117 1.327 . S
C8115 C8121 1.429 . S
C8116 C8108 1.574 . S
C8116 H8111 0.949 . S
C8116 C8122 1.368 . S
C8117 C8101 1.349 . S
C8117 H8109 0.950 . S
C8117 C8115 1.327 . S
C8118 C8106 1.349 . S
C8118 H8112 0.950 . S
C8118 C8119 1.327 . S
C8119 H8113 0.950 . S
C8119 C8118 1.327 . S
C8119 C8123 1.429 . S
C8120 C8103 1.574 . S
C8120 H8114 0.949 . S
C8120 C8124 1.368 . S
C8121 C8102 1.429 . S
C8121 C8115 1.429 . S
C8121 C8122 1.523 . S
C8122 C8103 1.368 . S
C8122 C8116 1.368 . S
C8122 C8121 1.523 . S
C8123 C8107 1.429 . S
C8123 C8119 1.429 . S
C8123 C8124 1.523 . S
C8124 C8108 1.368 . S
C8124 C8120 1.368 . S
C8124 C8123 1.523 . S
H8125 C8100 0.950 . S
H8126 C8102 0.950 . S
H8127 C8103 0.949 . S
H8128 C8105 0.950 . S
H8129 C8107 0.950 . S
C8130 C8131 1.349 . S
C8130 C8132 1.327 . S
C8130 H8155 0.950 . S
C8131 C8130 1.349 . S
C8131 C8147 1.349 . S
C8132 C8130 1.327 . S
C8132 C8151 1.429 . S
C8132 H8156 0.950 . S
C8133 C8150 1.574 . S
C8133 C8152 1.368 . S
C8133 H8157 0.949 . S
H8134 C8138 0.949 . S
C8135 C8136 1.349 . S
C8135 C8137 1.327 . S
C8135 H8158 0.950 . S
C8136 C8135 1.349 . S
C8136 C8148 1.349 . S
C8137 C8135 1.327 . S
C8137 C8153 1.429 . S
C8137 H8159 0.950 . S
C8138 H8134 0.949 . S
C8138 C8146 1.574 . S
C8138 C8154 1.368 . S
H8139 C8147 0.950 . S
H8140 C8145 0.950 . S
H8141 C8146 0.949 . S
H8142 C8148 0.950 . S
H8143 C8149 0.950 . S
H8144 C8150 0.949 . S
C8145 H8140 0.950 . S
C8145 C8147 1.327 . S
C8145 C8151 1.429 . S
C8146 C8138 1.574 . S
C8146 H8141 0.949 . S
C8146 C8152 1.368 . S
C8147 C8131 1.349 . S
C8147 H8139 0.950 . S
C8147 C8145 1.327 . S
C8148 C8136 1.349 . S
C8148 H8142 0.950 . S
C8148 C8149 1.327 . S
C8149 H8143 0.950 . S
C8149 C8148 1.327 . S
C8149 C8153 1.429 . S
C8150 C8133 1.574 . S
C8150 H8144 0.949 . S
C8150 C8154 1.368 . S
C8151 C8132 1.429 . S
C8151 C8145 1.429 . S
C8151 C8152 1.523 . S
C8152 C8133 1.368 . S
C8152 C8146 1.368 . S
C8152 C8151 1.523 . S
C8153 C8137 1.429 . S
C8153 C8149 1.429 . S
C8153 C8154 1.523 . S
C8154 C8138 1.368 . S
C8154 C8150 1.368 . S
C8154 C8153 1.523 . S
H8155 C8130 0.950 . S
H8156 C8132 0.950 . S
H8157 C8133 0.949 . S
H8158 C8135 0.950 . S
H8159 C8137 0.950 . S
C3841 C15 1.386 . S
C3846 C2735 1.386 . S
C3871 C2615 1.386 . S
C3876 C55 1.386 . S
C3901 C95 1.386 . S
C3906 C2655 1.386 . S
C3931 C2695 1.386 . S
C3936 C135 1.386 . S
C3961 C175 1.386 . S
C3966 C2855 1.386 . S
C3991 C2775 1.386 . S
C3996 C215 1.386 . S
C4021 C2815 1.386 . S
C4026 C255 1.386 . S
C4051 C2575 1.386 . S
C4056 C295 1.386 . S
C4081 C335 1.386 . S
C4086 C2535 1.386 . S
C4111 C375 1.386 . S
C4116 C2415 1.386 . S
C4141 C415 1.386 . S
C4146 C2455 1.386 . S
C4171 C455 1.386 . S
C4176 C2495 1.386 . S
C4201 C2295 1.386 . S
C4206 C495 1.386 . S
C4231 C535 1.386 . S
C4236 C2335 1.386 . S
C4261 C2375 1.386 . S
C4266 C575 1.386 . S
C4291 C615 1.386 . S
C4296 C2255 1.386 . S
C4321 C655 1.386 . S
C4326 C2215 1.386 . S
C4351 C695 1.386 . S
C4356 C1975 1.386 . S
C4381 C735 1.386 . S
C4386 C2015 1.386 . S
C4411 C775 1.386 . S
C4416 C2055 1.386 . S
C4441 C1935 1.386 . S
C4446 C815 1.386 . S
C4471 C2135 1.386 . S
C4476 C855 1.386 . S
C4501 C2175 1.386 . S
C4506 C895 1.386 . S
C4531 C935 1.386 . S
C4536 C2095 1.386 . S
C4561 C3695 1.380 . S
C4566 C975 1.380 . S
C4591 C1015 1.380 . S
C4596 C3575 1.380 . S
C4621 C1055 1.380 . S
C4626 C3615 1.380 . S
C4651 C1095 1.380 . S
C4656 C3655 1.380 . S
C4681 C1135 1.380 . S
C4686 C3815 1.380 . S
C4711 C1175 1.380 . S
C4716 C3735 1.380 . S
C4741 C3775 1.380 . S
C4746 C1215 1.380 . S
C4771 C1255 1.380 . S
C4776 C3535 1.380 . S
C4801 C1295 1.380 . S
C4806 C3495 1.380 . S
C4831 C3375 1.380 . S
C4836 C1335 1.380 . S
C4861 C3415 1.380 . S
C4866 C1375 1.380 . S
C4891 C3455 1.380 . S
C4896 C1415 1.380 . S
C4921 C3255 1.380 . S
C4926 C1455 1.380 . S
C4951 C1495 1.380 . S
C4956 C3295 1.380 . S
C4981 C3335 1.380 . S
C4986 C1535 1.380 . S
C5011 C3215 1.380 . S
C5016 C1575 1.380 . S
C5041 C1615 1.380 . S
C5046 C3175 1.380 . S
C5071 C1655 1.380 . S
C5076 C2935 1.380 . S
C5101 C2975 1.380 . S
C5106 C1695 1.380 . S
C5131 C3015 1.380 . S
C5136 C1735 1.380 . S
C5161 C2895 1.380 . S
C5166 C1775 1.380 . S
C5191 C3095 1.380 . S
C5196 C1815 1.380 . S
C5221 C3135 1.380 . S
C5226 C1855 1.380 . S
C5251 C3055 1.380 . S
C5256 C1895 1.380 . S
C5281 C2 1.724 . S
C5286 C1562 1.689 . S
C5311 C1442 1.689 . S
C5316 C42 1.724 . S
C5341 C82 1.724 . S
C5346 C1482 1.689 . S
C5371 C1522 1.689 . S
C5376 C122 1.724 . S
C5401 C162 1.724 . S
C5406 C1322 1.689 . S
C5431 C202 1.724 . S
C5436 C1362 1.689 . S
C5461 C1402 1.689 . S
C5466 C242 1.724 . S
C5491 C282 1.724 . S
C5496 C1282 1.689 . S
C5521 C1242 1.689 . S
C5526 C322 1.724 . S
C5551 C1122 1.689 . S
C5556 C362 1.724 . S
C5581 C402 1.724 . S
C5586 C1162 1.689 . S
C5611 C442 1.724 . S
C5616 C1202 1.689 . S
C5641 C1002 1.689 . S
C5646 C482 1.724 . S
C5671 C522 1.724 . S
C5676 C1042 1.689 . S
C5701 C562 1.724 . S
C5706 C1082 1.689 . S
C5731 C602 1.724 . S
C5736 C962 1.689 . S
C5761 C1762 1.689 . S
C5766 C642 1.724 . S
C5791 C1882 1.689 . S
C5796 C682 1.724 . S
C5821 C722 1.724 . S
C5826 C1802 1.689 . S
C5851 C762 1.724 . S
C5856 C1842 1.689 . S
C5881 C1602 1.689 . S
C5886 C802 1.724 . S
C5911 C1682 1.689 . S
C5916 C842 1.724 . S
C5941 C1722 1.689 . S
C5946 C882 1.724 . S
C5971 C922 1.724 . S
C5976 C1642 1.689 . S
C6001 C3482 1.689 . S
C6006 C1922 1.724 . S
C6031 C3362 1.689 . S
C6036 C1962 1.724 . S
C6061 C3402 1.689 . S
C6066 C2002 1.724 . S
C6091 C2042 1.724 . S
C6096 C3442 1.689 . S
C6121 C3242 1.689 . S
C6126 C2082 1.724 . S
C6151 C2122 1.724 . S
C6156 C3282 1.689 . S
C6181 C3322 1.689 . S
C6186 C2162 1.724 . S
C6211 C3202 1.689 . S
C6216 C2202 1.724 . S
C6241 C2242 1.724 . S
C6246 C3162 1.689 . S
C6271 C2282 1.724 . S
C6276 C3042 1.689 . S
C6301 C3082 1.689 . S
C6306 C2322 1.724 . S
C6331 C3122 1.689 . S
C6336 C2362 1.724 . S
C6361 C2922 1.689 . S
C6366 C2402 1.724 . S
C6391 C2962 1.689 . S
C6396 C2442 1.724 . S
C6421 C3002 1.689 . S
C6426 C2482 1.724 . S
C6451 C2522 1.724 . S
C6456 C2882 1.689 . S
C6481 C3682 1.689 . S
C6486 C2562 1.724 . S
C6511 C3802 1.689 . S
C6516 C2602 1.724 . S
C6541 C2642 1.724 . S
C6546 C3722 1.689 . S
C6571 C2682 1.724 . S
C6576 C3762 1.689 . S
C6601 C2722 1.724 . S
C6606 C3522 1.689 . S
C6631 C2762 1.724 . S
C6636 C3602 1.689 . S
C6661 C3642 1.689 . S
C6666 C2802 1.724 . S
C6691 C3562 1.689 . S
C6696 C2842 1.724 . S
C6721 C1141 1.433 . S
C6726 C21 1.468 . S
C6751 C1181 1.433 . S
C6756 C61 1.468 . S
C6781 C1221 1.433 . S
C6786 C101 1.468 . S
C6811 C1261 1.433 . S
C6816 C141 1.468 . S
C6841 C981 1.433 . S
C6846 C181 1.468 . S
C6871 C221 1.468 . S
C6876 C1021 1.433 . S
C6901 C261 1.468 . S
C6906 C1061 1.433 . S
C6931 C1101 1.433 . S
C6936 C301 1.468 . S
C6961 C1541 1.433 . S
C6966 C341 1.468 . S
C6991 C381 1.468 . S
C6996 C1581 1.433 . S
C7021 C421 1.468 . S
C7026 C1461 1.433 . S
C7051 C1501 1.433 . S
C7056 C461 1.468 . S
C7081 C501 1.468 . S
C7086 C1381 1.433 . S
C7111 C541 1.468 . S
C7116 C1421 1.433 . S
C7141 C581 1.468 . S
C7146 C1301 1.433 . S
C7171 C1341 1.433 . S
C7176 C621 1.468 . S
C7201 C1821 1.433 . S
C7206 C661 1.468 . S
C7231 C1741 1.433 . S
C7236 C701 1.468 . S
C7261 C1781 1.433 . S
C7266 C741 1.468 . S
C7291 C1661 1.433 . S
C7296 C781 1.468 . S
C7321 C821 1.468 . S
C7326 C1701 1.433 . S
C7351 C1621 1.433 . S
C7356 C861 1.468 . S
C7381 C1901 1.433 . S
C7386 C901 1.468 . S
C7411 C1861 1.433 . S
C7416 C941 1.468 . S
C7441 C1941 1.468 . S
C7446 C3061 1.433 . S
C7471 C1981 1.468 . S
C7476 C3101 1.433 . S
C7501 C2021 1.468 . S
C7506 C3141 1.433 . S
C7531 C3181 1.433 . S
C7536 C2061 1.468 . S
C7561 C2901 1.433 . S
C7566 C2101 1.468 . S
C7591 C2141 1.468 . S
C7596 C2941 1.433 . S
C7621 C2981 1.433 . S
C7626 C2181 1.468 . S
C7651 C3021 1.433 . S
C7656 C2221 1.468 . S
C7681 C2261 1.468 . S
C7686 C3461 1.433 . S
C7711 C2301 1.468 . S
C7716 C3501 1.433 . S
C7741 C2341 1.468 . S
C7746 C3381 1.433 . S
C7771 C3421 1.433 . S
C7776 C2381 1.468 . S
C7801 C2421 1.468 . S
C7806 C3301 1.433 . S
C7831 C2461 1.468 . S
C7836 C3341 1.433 . S
C7861 C2501 1.468 . S
C7866 C3221 1.433 . S
C7891 C2541 1.468 . S
C7896 C3261 1.433 . S
C7921 C2581 1.468 . S
C7926 C3741 1.433 . S
C7951 C3661 1.433 . S
C7956 C2621 1.468 . S
C7981 C2661 1.468 . S
C7986 C3701 1.433 . S
C8011 C3581 1.433 . S
C8016 C2701 1.468 . S
C8041 C3621 1.433 . S
C8046 C2741 1.468 . S
C8071 C2781 1.468 . S
C8076 C3541 1.433 . S
C8101 C3821 1.433 . S
C8106 C2821 1.468 . S
C8131 C3781 1.433 . S
C8136 C2861 1.468 . S
