# Generated by pormake.
# Topology wmb, (6)-cn, num edge types: 1
# Building blocks:
#     Node 0, Type 0, BuildingBlock: IZENUY_clean_sbu_0, # of connection points: 6
#     Node 1, Type 0, BuildingBlock: IZENUY_clean_sbu_0, # of connection points: 6
#     Node 2, Type 0, BuildingBlock: IZENUY_clean_sbu_0, # of connection points: 6
#     Node 3, Type 0, BuildingBlock: IZENUY_clean_sbu_0, # of connection points: 6
#     Node 4, Type 0, BuildingBlock: IZENUY_clean_sbu_0, # of connection points: 6
#     Node 5, Type 0, BuildingBlock: IZENUY_clean_sbu_0, # of connection points: 6
#     Edge 6, Type (0, 0), BuildingBlock: XUDNAN_clean_linker_2, # of connection points: 2
#     Edge 7, Type (0, 0), BuildingBlock: XUDNAN_clean_linker_2, # of connection points: 2
#     Edge 8, Type (0, 0), BuildingBlock: XUDNAN_clean_linker_2, # of connection points: 2
#     Edge 9, Type (0, 0), BuildingBlock: XUDNAN_clean_linker_2, # of connection points: 2
#     Edge 10, Type (0, 0), BuildingBlock: XUDNAN_clean_linker_2, # of connection points: 2
#     Edge 11, Type (0, 0), BuildingBlock: XUDNAN_clean_linker_2, # of connection points: 2
#     Edge 12, Type (0, 0), BuildingBlock: XUDNAN_clean_linker_2, # of connection points: 2
#     Edge 13, Type (0, 0), BuildingBlock: XUDNAN_clean_linker_2, # of connection points: 2
#     Edge 14, Type (0, 0), BuildingBlock: XUDNAN_clean_linker_2, # of connection points: 2
#     Edge 15, Type (0, 0), BuildingBlock: XUDNAN_clean_linker_2, # of connection points: 2
#     Edge 16, Type (0, 0), BuildingBlock: XUDNAN_clean_linker_2, # of connection points: 2
#     Edge 17, Type (0, 0), BuildingBlock: XUDNAN_clean_linker_2, # of connection points: 2
#     Edge 18, Type (0, 0), BuildingBlock: XUDNAN_clean_linker_2, # of connection points: 2
#     Edge 19, Type (0, 0), BuildingBlock: XUDNAN_clean_linker_2, # of connection points: 2
#     Edge 20, Type (0, 0), BuildingBlock: XUDNAN_clean_linker_2, # of connection points: 2
#     Edge 21, Type (0, 0), BuildingBlock: XUDNAN_clean_linker_2, # of connection points: 2
#     Edge 22, Type (0, 0), BuildingBlock: XUDNAN_clean_linker_2, # of connection points: 2
#     Edge 23, Type (0, 0), BuildingBlock: XUDNAN_clean_linker_2, # of connection points: 2
# Relax obj value: 0.258
# Max RMSD: 0.258
# Mean RMSD: 0.258
data_MOF--net-wmb--node1-IZENUY_clean_sbu_0--edge1-XUDNAN_clean_linker_2
_symmetry_space_group_name_H-M    P1
_symmetry_Int_Tables_number       1
_symmetry_cell_setting            triclinic
loop_
_symmetry_equiv_pos_as_xyz
'x, y, z'
_cell_length_a     26.87418
_cell_length_b     26.835569
_cell_length_c     42.284262
_cell_angle_alpha  90.215263
_cell_angle_beta   90.301283
_cell_angle_gamma 119.94612
loop_
_atom_site_label
_atom_site_type_symbol
_atom_site_fract_x
_atom_site_fract_y
_atom_site_fract_z
_atom_type_partial_charge
Fe0 Fe 0.48926 0.18258 0.03994 0.0
Fe1 Fe 0.58135 0.16507 0.00682 0.0
O2 O 0.55484 0.21045 0.0194 0.0
Fe3 Fe 0.59467 0.28505 0.01145 0.0
O4 O 0.60566 0.30165 0.05331 0.0
O5 O 0.51396 0.24741 0.06492 0.0
O6 O 0.51424 0.1546 0.07103 0.0
C7 C 0.53548 0.12242 0.0676 0.0
C8 C 0.47931 0.26162 0.00513 0.0
O9 O 0.55475 0.11727 0.04126 0.0
C10 C 0.60079 0.23966 0.95501 0.0
O11 O 0.45425 0.11265 0.01918 0.0
O12 O 0.51751 0.11978 0.98405 0.0
O13 O 0.53213 0.29636 0.01033 0.0
O14 O 0.45899 0.20874 0.01025 0.0
C15 C 0.68255 0.25779 0.02338 0.0
O16 O 0.61212 0.20541 0.96997 0.0
O17 O 0.58511 0.27084 0.96938 0.0
C18 C 0.46744 0.09404 0.99488 0.0
O19 O 0.64749 0.20599 0.02883 0.0
O20 O 0.66531 0.28939 0.01092 0.0
C21 C 0.56462 0.28631 0.07235 0.0
Fe22 Fe 0.87939 0.42973 0.67345 0.0
Fe23 Fe 0.7577 0.32553 0.6753 0.0
O24 O 0.83064 0.36009 0.68752 0.0
Fe25 Fe 0.85415 0.32506 0.71399 0.0
O26 O 0.87736 0.38241 0.74272 0.0
O27 O 0.92339 0.45443 0.71008 0.0
O28 O 0.83766 0.45909 0.68983 0.0
C29 C 0.78632 0.4423 0.68242 0.0
C30 C 0.94853 0.38303 0.67164 0.0
O31 O 0.75496 0.39265 0.67047 0.0
C32 C 0.78068 0.23261 0.67821 0.0
O33 O 0.8442 0.41741 0.63424 0.0
O34 O 0.7775 0.32585 0.63444 0.0
O35 O 0.92704 0.35654 0.69722 0.0
O36 O 0.92486 0.40564 0.65624 0.0
C37 C 0.74676 0.30179 0.73831 0.0
O38 O 0.74585 0.25157 0.6781 0.0
O39 O 0.83198 0.26463 0.68714 0.0
C40 C 0.81077 0.37098 0.61955 0.0
O41 O 0.73466 0.32393 0.71543 0.0
O42 O 0.78598 0.28872 0.73594 0.0
C43 C 0.91268 0.4347 0.73797 0.0
Fe44 Fe 0.72929 0.53055 0.37918 0.0
Fe45 Fe 0.61295 0.45408 0.34591 0.0
O46 O 0.68431 0.47081 0.35445 0.0
Fe47 Fe 0.71033 0.42693 0.33873 0.0
O48 O 0.72115 0.40765 0.37821 0.0
O49 O 0.76689 0.496 0.39706 0.0
O50 O 0.6793 0.50087 0.41154 0.0
C51 C 0.6271 0.48665 0.41035 0.0
C52 C 0.80856 0.53981 0.33621 0.0
O53 O 0.60103 0.47871 0.38424 0.0
C54 C 0.65255 0.43534 0.2876 0.0
O55 O 0.69816 0.57525 0.36614 0.0
O56 O 0.63762 0.5234 0.32837 0.0
O57 O 0.78526 0.48544 0.33624 0.0
O58 O 0.78392 0.56439 0.34887 0.0
C59 C 0.59417 0.34526 0.35303 0.0
O60 O 0.61232 0.4272 0.30609 0.0
O61 O 0.70005 0.44326 0.29827 0.0
C62 C 0.66603 0.57049 0.34283 0.0
O63 O 0.58231 0.38261 0.36262 0.0
O64 O 0.64041 0.36002 0.33835 0.0
C65 C 0.75032 0.44295 0.39985 0.0
Fe66 Fe 0.29213 0.58576 0.9875 0.0
Fe67 Fe 0.18659 0.48911 0.95172 0.0
O68 O 0.21768 0.5502 0.97734 0.0
Fe69 Fe 0.17367 0.57708 0.99192 0.0
O70 O 0.22958 0.65138 0.9953 0.0
O71 O 0.30427 0.65529 0.97293 0.0
O72 O 0.31534 0.57603 0.94871 0.0
C73 C 0.28956 0.56189 0.92231 0.0
C74 C 0.23513 0.5822 0.04488 0.0
O75 O 0.23577 0.52975 0.92026 0.0
C76 C 0.09775 0.4566 0.99219 0.0
O77 O 0.28858 0.52015 0.00225 0.0
O78 O 0.23248 0.461 0.96495 0.0
O79 O 0.1861 0.56408 0.03245 0.0
O80 O 0.28019 0.60084 0.02831 0.0
C81 C 0.13595 0.55358 0.93066 0.0
O82 O 0.13359 0.44366 0.98123 0.0
O83 O 0.10849 0.50798 0.99192 0.0
C84 C 0.2675 0.47266 0.9876 0.0
O85 O 0.1354 0.50639 0.93328 0.0
O86 O 0.1588 0.59214 0.95181 0.0
C87 C 0.27556 0.67892 0.98042 0.0
Fe88 Fe 0.45145 0.71681 0.65377 0.0
Fe89 Fe 0.55285 0.71859 0.62001 0.0
O90 O 0.49134 0.68276 0.644 0.0
Fe91 Fe 0.46929 0.61283 0.65805 0.0
O92 O 0.4004 0.58351 0.63847 0.0
O93 O 0.38149 0.64943 0.65578 0.0
O94 O 0.43533 0.72042 0.61249 0.0
C95 C 0.47333 0.74502 0.59179 0.0
C96 C 0.45081 0.66823 0.71009 0.0
O97 O 0.52469 0.757 0.59669 0.0
C98 C 0.58443 0.65964 0.66479 0.0
O99 O 0.51397 0.79087 0.65343 0.0
O100 O 0.58767 0.77748 0.64813 0.0
O101 O 0.44064 0.62295 0.69529 0.0
O102 O 0.46513 0.71448 0.69566 0.0
C103 C 0.50593 0.61005 0.5956 0.0
O104 O 0.59169 0.68599 0.63889 0.0
O105 O 0.53668 0.63684 0.67853 0.0
C106 C 0.56756 0.80938 0.65579 0.0
O107 O 0.52204 0.6621 0.59019 0.0
O108 O 0.49414 0.59039 0.62339 0.0
C109 C 0.36478 0.5997 0.64432 0.0
Fe110 Fe 0.32923 0.73721 0.32584 0.0
Fe111 Fe 0.31466 0.82545 0.28668 0.0
O112 O 0.35788 0.80822 0.31116 0.0
Fe113 Fe 0.42948 0.8603 0.32102 0.0
O114 O 0.45807 0.81707 0.30487 0.0
O115 O 0.39828 0.73886 0.32968 0.0
O116 O 0.32376 0.71022 0.28598 0.0
C117 C 0.2971 0.71818 0.2636 0.0
C118 C 0.38143 0.80138 0.37831 0.0
O119 O 0.28033 0.75485 0.26612 0.0
C120 C 0.37901 0.92718 0.32467 0.0
O121 O 0.25381 0.71947 0.32444 0.0
O122 O 0.2578 0.80139 0.31606 0.0
O123 O 0.42448 0.8324 0.36107 0.0
O124 O 0.33458 0.76245 0.36638 0.0
C125 C 0.41914 0.88542 0.25686 0.0
O126 O 0.34413 0.89969 0.30227 0.0
O127 O 0.40791 0.90799 0.33794 0.0
C128 C 0.22954 0.74946 0.32419 0.0
O129 O 0.36614 0.85029 0.25512 0.0
O130 O 0.44605 0.89751 0.28293 0.0
C131 C 0.4452 0.76839 0.31539 0.0
H132 H 0.37554 0.4956 0.00698 0.0
H133 H 0.20627 0.35664 0.98063 0.0
H134 H 0.24198 0.28804 0.98242 0.0
H135 H 0.45302 0.44912 0.96001 0.0
H136 H 0.51118 0.46909 0.98778 0.0
H137 H 0.47179 0.50714 0.98775 0.0
H138 H 0.44812 0.4841 0.04705 0.0
H139 H 0.48826 0.44675 0.04739 0.0
H140 H 0.41451 0.41047 0.05999 0.0
H141 H 0.29662 0.23512 0.98387 0.0
H142 H 0.36588 0.20038 0.98771 0.0
H143 H 0.5012 0.3733 0.01161 0.0
C144 C 0.34573 0.45048 0.00248 0.0
C145 C 0.28787 0.43137 0.99399 0.0
C146 C 0.25062 0.3722 0.98735 0.0
C147 C 0.27054 0.33289 0.98823 0.0
C148 C 0.32809 0.35324 0.99563 0.0
C149 C 0.36516 0.41051 0.0029 0.0
C150 C 0.42563 0.42125 0.00865 0.0
C151 C 0.46789 0.4642 0.98461 0.0
C152 C 0.44527 0.44186 0.0428 0.0
C153 C 0.41669 0.36129 0.00318 0.0
C154 C 0.36002 0.32275 0.99582 0.0
C155 C 0.34111 0.26487 0.98975 0.0
C156 C 0.38087 0.24556 0.99186 0.0
C157 C 0.43916 0.28396 -0.0002 0.0
C158 C 0.45717 0.34281 0.00517 0.0
H159 H 0.66863 0.14532 0.66893 0.0
H160 H 0.84355 0.17769 0.67675 0.0
H161 H 0.8077 0.07347 0.67321 0.0
H162 H 0.60352 0.01826 0.71575 0.0
H163 H 0.53934 0.98155 0.6918 0.0
H164 H 0.5784 0.05896 0.69376 0.0
H165 H 0.58751 0.06395 0.63274 0.0
H166 H 0.54791 0.98656 0.63056 0.0
H167 H 0.61795 0.02584 0.61296 0.0
H168 H 0.75302 0.96553 0.67042 0.0
H169 H 0.68384 0.86179 0.66532 0.0
H170 H 0.54385 0.8984 0.6594 0.0
C171 C 0.69953 0.13063 0.66954 0.0
C172 C 0.75909 0.17009 0.67312 0.0
C173 C 0.79781 0.14866 0.67403 0.0
C174 C 0.77783 0.08939 0.67211 0.0
C175 C 0.71892 0.05175 0.66925 0.0
C176 C 0.6803 0.07146 0.6677 0.0
C177 C 0.61911 0.02167 0.66474 0.0
C178 C 0.58298 0.02004 0.69321 0.0
C179 C 0.59151 0.0247 0.63338 0.0
C180 C 0.6294 0.97094 0.66498 0.0
C181 C 0.6873 0.98935 0.66766 0.0
C182 C 0.70757 0.95064 0.66823 0.0
C183 C 0.66781 0.89166 0.66539 0.0
C184 C 0.6082 0.87156 0.662 0.0
C185 C 0.58896 0.91206 0.66219 0.0
H186 H 0.14643 0.76575 0.35468 0.0
H187 H 0.16959 0.66131 0.28416 0.0
H188 H 0.06527 0.60479 0.2757 0.0
H189 H 0.02226 0.64861 0.38928 0.0
H190 H 0.98575 0.68827 0.39713 0.0
H191 H 0.06298 0.72531 0.39568 0.0
H192 H 0.06149 0.79329 0.35286 0.0
H193 H 0.98412 0.75611 0.35405 0.0
H194 H 1.02014 0.76318 0.3171 0.0
H195 H 0.9601 0.55531 0.27653 0.0
H196 H 0.85744 0.51066 0.28933 0.0
H197 H 0.89688 0.64296 0.36017 0.0
C198 C 0.12927 0.73142 0.33725 0.0
C199 C 0.16619 0.71799 0.32001 0.0
C200 C 0.14221 0.67221 0.29772 0.0
C201 C 0.08293 0.64002 0.29256 0.0
C202 C 0.04755 0.65358 0.31002 0.0
C203 C 0.06937 0.69775 0.33212 0.0
C204 C 1.02057 0.69955 0.34928 0.0
C205 C 0.02305 0.68985 0.38495 0.0
C206 C 0.02166 0.75643 0.34294 0.0
C207 C 0.96841 0.64903 0.33368 0.0
C208 C 0.98542 0.62387 0.31081 0.0
C209 C 0.94609 0.57489 0.29416 0.0
C210 C 0.88781 0.54982 0.30158 0.0
C211 C 0.86898 0.57354 0.32546 0.0
C212 C 0.90983 0.62464 0.34127 0.0
H213 H 0.37166 0.91707 0.2102 0.0
H214 H 0.53205 0.92926 0.23987 0.0
H215 H 0.57937 0.98645 0.19196 0.0
H216 H 0.38665 0.909 0.12559 0.0
H217 H 0.35569 0.95361 0.1171 0.0
H218 H 0.33426 0.90938 0.15189 0.0
H219 H 0.36222 0.99937 0.18688 0.0
H220 H 0.38369 0.04382 0.15224 0.0
H221 H 0.4338 0.06039 0.18449 0.0
H222 H 0.60801 0.04271 0.13983 0.0
H223 H 0.61785 0.10171 0.09249 0.0
H224 H 0.44007 0.05781 0.10149 0.0
C225 C 0.41653 0.93091 0.20637 0.0
C226 C 0.44814 0.9181 0.22831 0.0
C227 C 0.50716 0.93845 0.22308 0.0
C228 C 0.53418 0.97064 0.19594 0.0
C229 C 0.50161 0.98267 0.17475 0.0
C230 C 0.44421 0.96394 0.18002 0.0
C231 C 0.41949 0.98632 0.15545 0.0
C232 C 0.37118 0.93661 0.13638 0.0
C233 C 0.3986 0.02476 0.17068 0.0
C234 C 0.4719 0.02088 0.13544 0.0
C235 C 0.51872 0.01755 0.14642 0.0
C236 C 0.57167 0.04578 0.13117 0.0
C237 C 0.5769 0.07892 0.10436 0.0
C238 C 0.52982 0.08435 0.09383 0.0
C239 C 0.4768 0.05462 0.10941 0.0
H240 H 0.89975 0.40333 0.79993 0.0
H241 H 1.00349 0.54663 0.73815 0.0
H242 H 0.065 0.60103 0.78393 0.0
H243 H 0.91212 0.48793 0.8723 0.0
H244 H 0.91499 0.43441 0.89664 0.0
H245 H 0.87529 0.41358 0.85994 0.0
H246 H 0.9347 0.36589 0.84275 0.0
H247 H 0.97508 0.38851 0.87908 0.0
H248 H 1.01195 0.40889 0.84179 0.0
H249 H 0.12183 0.63487 0.83623 0.0
H250 H 0.17007 0.64096 0.88763 0.0
H251 H 0.02864 0.4742 0.91318 0.0
C252 C 0.93463 0.44664 0.79595 0.0
C253 C 0.94656 0.47071 0.76537 0.0
C254 C 0.99317 0.52733 0.76138 0.0
C255 C 0.02827 0.55862 0.78728 0.0
C256 C 1.01592 0.53285 0.81703 0.0
C257 C 0.96999 0.47804 0.82132 0.0
C258 C 0.96859 0.45704 0.85457 0.0
C259 C 0.91453 0.44775 0.87189 0.0
C260 C 0.97289 0.40187 0.85451 0.0
C261 C 0.02209 0.50769 0.86823 0.0
C262 C 0.04845 0.55171 0.84658 0.0
C263 C 0.10095 0.60108 0.85349 0.0
C264 C 0.1279 0.60447 0.88276 0.0
C265 C 0.10255 0.55836 0.90429 0.0
C266 C 0.04836 0.51041 0.89722 0.0
H267 H 0.57038 0.54497 0.42167 0.0
H268 H 0.62464 0.43383 0.46527 0.0
H269 H 0.58575 0.44302 0.51652 0.0
H270 H 0.61666 0.6428 0.48362 0.0
H271 H 0.55979 0.65975 0.48074 0.0
H272 H 0.58072 0.63541 0.44629 0.0
H273 H 0.47616 0.55256 0.43844 0.0
H274 H 0.4547 0.57695 0.47279 0.0
H275 H 0.44002 0.50373 0.47045 0.0
H276 H 0.54835 0.46977 0.56322 0.0
H277 H 0.52498 0.52043 0.60398 0.0
H278 H 0.50314 0.62188 0.53123 0.0
C279 C 0.57221 0.52119 0.44188 0.0
C280 C 0.59895 0.48756 0.43972 0.0
C281 C 0.60329 0.45897 0.46667 0.0
C282 C 0.58115 0.46376 0.4957 0.0
C283 C 0.55578 0.49807 0.49733 0.0
C284 C 0.55174 0.52685 0.47123 0.0
C285 C 0.53015 0.56738 0.48033 0.0
C286 C 0.57449 0.63003 0.47228 0.0
C287 C 0.47177 0.54903 0.46457 0.0
C288 C 0.52419 0.55801 0.51573 0.0
C289 C 0.53762 0.51665 0.52484 0.0
C290 C 0.53718 0.50181 0.55638 0.0
C291 C 0.52372 0.53077 0.57935 0.0
C292 C 0.51217 0.57499 0.5707 0.0
C293 C 0.51162 0.58811 0.53844 0.0
H294 H 0.49746 0.01497 0.97815 0.0
H295 H 0.35027 0.03843 0.98982 0.0
H296 H 0.28548 0.93473 0.97886 0.0
H297 H 0.43507 0.8967 0.91757 0.0
H298 H 0.46825 0.85989 0.9359 0.0
H299 H 0.50288 0.93724 0.93803 0.0
H300 H 0.50653 0.9328 -0.00086 0.0
H301 H 0.47168 0.85564 0.99727 0.0
H302 H 0.44094 0.88982 0.02053 0.0
H303 H 0.23774 0.82914 0.97257 0.0
H304 H 0.20828 0.72682 0.97556 0.0
H305 H 0.38665 0.7694 0.97147 0.0
C306 C 0.45158 0.99862 0.97713 0.0
C307 C 0.42857 0.03472 0.98392 0.0
C308 C 0.36845 1.0115 0.98406 0.0
C309 C 0.33154 0.95282 0.97777 0.0
C310 C 0.35561 0.9181 0.97187 0.0
C311 C 0.41426 0.94 0.97168 0.0
C312 C 0.42899 0.89235 0.96928 0.0
C313 C 0.46067 0.89682 0.93835 0.0
C314 C 0.46408 0.89269 0.99828 0.0
C315 C 0.36938 0.83996 0.96901 0.0
C316 C 0.32787 0.85613 0.96982 0.0
C317 C 0.26978 0.81599 0.97165 0.0
C318 C 0.2536 0.75791 0.97352 0.0
C319 C 0.29526 0.74012 0.97396 0.0
C320 C 0.3539 0.78167 0.97082 0.0
H321 H 0.27355 0.61866 0.64194 0.0
H322 H 0.31612 0.48268 0.64648 0.0
H323 H 0.21337 0.41067 0.65161 0.0
H324 H 0.16276 0.56201 0.69789 0.0
H325 H 0.11747 0.58309 0.67719 0.0
H326 H 0.1941 0.62362 0.67225 0.0
H327 H 0.18124 0.60825 0.61151 0.0
H328 H 0.10444 0.56791 0.61624 0.0
H329 H 0.14059 0.53624 0.59568 0.0
H330 H 0.10634 0.35472 0.66279 0.0
H331 H 1.00282 0.31906 0.67268 0.0
H332 H 0.03057 0.49032 0.65601 0.0
C333 C 0.26115 0.57367 0.64356 0.0
C334 C 0.30284 0.55636 0.64381 0.0
C335 C 0.28492 0.497 0.64599 0.0
C336 C 0.22664 0.45572 0.64906 0.0
C337 C 0.18666 0.47431 0.6493 0.0
C338 C 0.2031 0.53178 0.64601 0.0
C339 C 0.15183 0.54064 0.64723 0.0
C340 C 0.15686 0.57963 0.67531 0.0
C341 C 0.14407 0.56467 0.61579 0.0
C342 C 0.10418 0.4794 0.65221 0.0
C343 C 0.12499 0.44167 0.65372 0.0
C344 C 0.08931 0.38361 0.66089 0.0
C345 C 0.0308 0.3637 0.66653 0.0
C346 C 1.00878 0.40163 0.66423 0.0
C347 C 0.04603 0.45999 0.65684 0.0
H348 H 0.42769 0.66097 0.32779 0.0
H349 H 0.56148 0.83398 0.30491 0.0
H350 H 0.63451 0.80399 0.31056 0.0
H351 H 0.50669 0.63212 0.38606 0.0
H352 H 0.47699 0.55793 0.37441 0.0
H353 H 0.43588 0.59349 0.3686 0.0
H354 H 0.42493 0.56712 0.30883 0.0
H355 H 0.4657 0.53122 0.31461 0.0
H356 H 0.48825 0.58738 0.28564 0.0
H357 H 0.69395 0.75448 0.322 0.0
H358 H 0.73123 0.68747 0.33206 0.0
H359 H 0.55691 0.548 0.34439 0.0
C360 C 0.4723 0.69258 0.3238 0.0
C361 C 0.4888 0.74985 0.31599 0.0
C362 C 0.5477 0.78974 0.31079 0.0
C363 C 0.58956 0.7732 0.31414 0.0
C364 C 0.57182 0.7165 0.3224 0.0
C365 C 0.51439 0.67672 0.32673 0.0
C366 C 0.50589 0.61819 0.33481 0.0
C367 C 0.47983 0.59937 0.36793 0.0
C368 C 0.46903 0.57335 0.30946 0.0
C369 C 0.56738 0.631 0.33424 0.0
C370 C 0.60519 0.68802 0.32755 0.0
C371 C 0.66457 0.70961 0.32691 0.0
C372 C 0.68545 0.67156 0.33274 0.0
C373 C 0.64679 0.61275 0.33846 0.0
C374 C 0.58729 0.5927 0.33948 0.0
H375 H 1.0068 0.47106 0.98369 0.0
H376 H 0.05147 0.34403 0.01426 0.0
H377 H 0.94866 0.27795 0.02783 0.0
H378 H 0.90843 0.44919 0.04431 0.0
H379 H 0.86186 0.46147 0.01869 0.0
H380 H 0.93756 0.49594 0.01071 0.0
H381 H 0.91597 0.45226 0.9543 0.0
H382 H 0.84011 0.41769 0.96172 0.0
H383 H 0.87169 0.3755 0.94903 0.0
H384 H 0.83871 0.22815 0.03905 0.0
H385 H 0.73551 0.19767 0.04317 0.0
H386 H 0.77039 0.36247 0.00601 0.0
C387 C 0.99559 0.42945 0.99339 0.0
C388 C 0.03732 0.4129 0.99838 0.0
C389 C 1.02009 0.35749 0.01032 0.0
C390 C 0.962 0.32006 0.01822 0.0
C391 C 0.92241 0.33903 0.0138 0.0
C392 C 0.93895 0.39247 0.00138 0.0
C393 C 0.88972 0.40409 0.99859 0.0
C394 C 0.90003 0.45571 0.01932 0.0
C395 C 0.8787 0.41284 0.96384 0.0
C396 C 0.84198 0.34866 0.01138 0.0
C397 C 0.86115 0.31142 0.02016 0.0
C398 C 0.82358 0.25715 0.03221 0.0
C399 C 0.76506 0.24036 0.03458 0.0
C400 C 0.74479 0.27777 0.02491 0.0
C401 C 0.78428 0.33289 0.01375 0.0
H402 H 0.55788 0.54942 0.67302 0.0
H403 H 0.70112 0.72401 0.67241 0.0
H404 H 0.76849 0.68705 0.68071 0.0
H405 H 0.61419 0.48725 0.73004 0.0
H406 H 0.58655 0.42086 0.70805 0.0
H407 H 0.54995 0.46167 0.70632 0.0
H408 H 0.55726 0.46419 0.64525 0.0
H409 H 0.5945 0.42409 0.64664 0.0
H410 H 0.62666 0.49269 0.62709 0.0
H411 H 0.8194 0.6303 0.68754 0.0
H412 H 0.85183 0.55915 0.68803 0.0
H413 H 0.67494 0.4209 0.67939 0.0
C414 C 0.60335 0.57987 0.67563 0.0
C415 C 0.62461 0.63959 0.67317 0.0
C416 C 0.68435 0.67822 0.675 0.0
C417 C 0.72266 0.65756 0.67967 0.0
C418 C 0.70032 0.59821 0.68167 0.0
C419 C 0.64206 0.55991 0.67938 0.0
C420 C 0.62934 0.49818 0.67896 0.0
C421 C 0.59286 0.46505 0.70755 0.0
C422 C 0.60025 0.46804 0.64763 0.0
C423 C 0.6896 0.50754 0.68155 0.0
C424 C 0.72981 0.5655 0.6835 0.0
C425 C 0.7883 0.58485 0.68603 0.0
C426 C 0.80624 0.54398 0.68634 0.0
C427 C 0.7659 0.48434 0.68366 0.0
C428 C 0.70679 0.4661 0.68136 0.0
H429 H 0.61188 0.2539 0.35581 0.0
H430 H 0.47684 0.29731 0.351 0.0
H431 H 0.40431 0.19394 0.34503 0.0
H432 H 0.55587 0.14357 0.29916 0.0
H433 H 0.57725 0.09849 0.31975 0.0
H434 H 0.61731 0.17522 0.32539 0.0
H435 H 0.6018 0.16226 0.38596 0.0
H436 H 0.56204 0.08536 0.38052 0.0
H437 H 0.5299 0.12109 0.40108 0.0
H438 H 0.34792 0.0846 0.3329 0.0
H439 H 0.31335 0.98079 0.32282 0.0
H440 H 0.48571 1.01183 0.34019 0.0
C441 C 0.56694 0.24157 0.35401 0.0
C442 C 0.54994 0.28351 0.35386 0.0
C443 C 0.49073 0.26575 0.35146 0.0
C444 C 0.44928 0.20717 0.34787 0.0
C445 C 0.46768 0.16687 0.34739 0.0
C446 C 0.52512 0.18348 0.35108 0.0
C447 C 0.53436 0.13244 0.34962 0.0
C448 C 0.57349 0.13777 0.32183 0.0
C449 C 0.55843 0.12484 0.38118 0.0
C450 C 0.4734 0.08451 0.34397 0.0
C451 C 0.43529 0.1048 0.34237 0.0
C452 C 0.37728 0.06817 0.33483 0.0
C453 C 0.35797 1.0094 0.32905 0.0
C454 C 0.39645 0.988 0.33148 0.0
C455 C 0.45471 0.02639 0.33911 0.0
H456 H 0.65553 0.32336 0.11315 0.0
H457 H 0.49422 0.32031 0.09838 0.0
H458 H 0.5073 0.37067 0.14941 0.0
H459 H 0.63325 0.28889 0.19345 0.0
H460 H 0.70722 0.33308 0.20551 0.0
H461 H 0.69008 0.30506 0.16578 0.0
H462 H 0.7491 0.40837 0.14374 0.0
H463 H 0.76635 0.43678 0.1835 0.0
H464 H 0.73273 0.46282 0.15633 0.0
H465 H 0.53332 0.41399 0.20263 0.0
H466 H 0.56567 0.44028 0.25769 0.0
H467 H 0.70847 0.41131 0.24032 0.0
C468 C 0.62377 0.33458 0.12048 0.0
C469 C 0.5742 0.31877 0.10193 0.0
C470 C 0.53248 0.33233 0.11241 0.0
C471 C 0.53979 0.36125 0.14116 0.0
C472 C 0.58875 0.37566 0.15919 0.0
C473 C 0.62985 0.36241 0.1495 0.0
C474 C 0.67495 0.37687 0.17507 0.0
C475 C 0.67642 0.32275 0.18557 0.0
C476 C 0.7343 0.42403 0.16399 0.0
C477 C 0.65194 0.399 0.20091 0.0
C478 C 0.60286 0.39896 0.19086 0.0
C479 C 0.57189 0.41462 0.21075 0.0
C480 C 0.59058 0.42928 0.24204 0.0
C481 C 0.63946 0.42758 0.25336 0.0
C482 C 0.67135 0.41361 0.23226 0.0
H483 H 0.6769 0.22201 0.92062 0.0
H484 H 0.55052 0.27707 0.91243 0.0
H485 H 0.57052 0.29363 0.85531 0.0
H486 H 0.77758 0.32781 0.86892 0.0
H487 H 0.80194 0.28221 0.85179 0.0
H488 H 0.77489 0.26978 0.89156 0.0
H489 H 0.69941 0.16473 0.87714 0.0
H490 H 0.7264 0.17602 0.83735 0.0
H491 H 0.65136 0.15067 0.84412 0.0
H492 H 0.60556 0.30644 0.79986 0.0
H493 H 0.65666 0.31944 0.74973 0.0
H494 H 0.7629 0.25903 0.79412 0.0
C495 C 0.6529 0.23678 0.90668 0.0
C496 C 0.61182 0.24786 0.92078 0.0
C497 C 0.58215 0.26836 0.902 0.0
C498 C 0.59304 0.27764 0.86957 0.0
C499 C 0.63407 0.2667 0.85642 0.0
C500 C 0.66385 0.2471 0.87437 0.0
C501 C 0.70829 0.24222 0.85476 0.0
C502 C 0.76929 0.28291 0.86751 0.0
C503 C 0.69558 0.17968 0.85326 0.0
C504 C 0.69857 0.26185 0.82296 0.0
C505 C 0.65534 0.27543 0.82445 0.0
C506 C 0.63933 0.29573 0.79833 0.0
C507 C 0.66865 0.30291 0.76994 0.0
C508 C 0.71367 0.28999 0.76788 0.0
C509 C 0.72838 0.26879 0.79479 0.0
H510 H 0.80547 0.50572 0.45301 0.0
H511 H 0.72404 0.33266 0.4138 0.0
H512 H 0.73724 0.29647 0.46492 0.0
H513 H 0.91072 0.49382 0.50387 0.0
H514 H 0.90404 0.53589 0.53515 0.0
H515 H 0.89327 0.54887 0.49458 0.0
H516 H 0.79277 0.5333 0.50865 0.0
H517 H 0.80293 0.51986 0.54916 0.0
H518 H 0.74116 0.4672 0.52717 0.0
H519 H 0.75062 0.27775 0.52166 0.0
H520 H 0.76627 0.27843 0.57933 0.0
H521 H 0.84043 0.46388 0.58122 0.0
C522 C 0.79152 0.46038 0.45488 0.0
C523 C 0.76409 0.42214 0.42923 0.0
C524 C 0.74556 0.36294 0.43297 0.0
C525 C 0.75283 0.34193 0.46195 0.0
C526 C 0.77896 0.38066 0.48691 0.0
C527 C 0.79842 0.43871 0.48359 0.0
C528 C 0.82202 0.47078 0.51456 0.0
C529 C 0.88634 0.51494 0.51187 0.0
C530 C 0.78766 0.49945 0.52552 0.0
C531 C 0.81203 0.42157 0.53596 0.0
C532 C 0.78723 0.36995 0.51955 0.0
C533 C 0.77078 0.318 0.53467 0.0
C534 C 0.77965 0.31881 0.56743 0.0
C535 C 0.80496 0.37123 0.58473 0.0
C536 C 0.82191 0.42325 0.56859 0.0
H537 H 0.26469 0.51634 0.86226 0.0
H538 H 0.39073 0.6623 0.91734 0.0
H539 H 0.44555 0.70658 0.86886 0.0
H540 H 0.36741 0.50989 0.80981 0.0
H541 H 0.32033 0.48932 0.77581 0.0
H542 H 0.29064 0.46961 0.81487 0.0
H543 H 0.23052 0.51942 0.80495 0.0
H544 H 0.26031 0.53957 0.76593 0.0
H545 H 0.2663 0.59387 0.79339 0.0
H546 H 0.48343 0.73775 0.81387 0.0
H547 H 0.50737 0.74793 0.75678 0.0
H548 H 0.3609 0.57861 0.73877 0.0
C549 C 0.30394 0.55747 0.86407 0.0
C550 C 0.32356 0.58591 0.89345 0.0
C551 C 0.37526 0.63957 0.89502 0.0
C552 C 0.4065 0.66525 0.86763 0.0
C553 C 0.38586 0.63631 0.83897 0.0
C554 C 0.33628 0.58322 0.83706 0.0
C555 C 0.32437 0.56043 0.80348 0.0
C556 C 0.3258 0.50398 0.80085 0.0
C557 C 0.26698 0.5529 0.79123 0.0
C558 C 0.37482 0.60911 0.78686 0.0
C559 C 0.40936 0.6529 0.80762 0.0
C560 C 0.45715 0.70346 0.79741 0.0
C561 C 0.47032 0.70902 0.76508 0.0
C562 C 0.43639 0.66376 0.74376 0.0
C563 C 0.38809 0.61339 0.75482 0.0
H564 H 0.38547 0.68475 0.5501 0.0
H565 H 0.53223 0.85328 0.56901 0.0
H566 H 0.51355 0.88934 0.51921 0.0
H567 H 0.41484 0.68389 0.47004 0.0
H568 H 0.34106 0.64543 0.45684 0.0
H569 H 0.3593 0.63544 0.49638 0.0
H570 H 0.28741 0.66394 0.51897 0.0
H571 H 0.26901 0.6742 0.47939 0.0
H572 H 0.29369 0.73173 0.50808 0.0
H573 H 0.48565 0.90473 0.4663 0.0
H574 H 0.45619 0.89725 0.41052 0.0
H575 H 0.32958 0.71727 0.42354 0.0
C576 C 0.41253 0.72956 0.54397 0.0
C577 C 0.45967 0.76677 0.56328 0.0
C578 C 0.49573 0.82457 0.55437 0.0
C579 C 0.48517 0.84539 0.52635 0.0
C580 C 0.43881 0.80754 0.50746 0.0
C581 C 0.40333 0.75069 0.51565 0.0
C582 C 0.36136 0.71738 0.48913 0.0
C583 C 0.36968 0.66763 0.47741 0.0
C584 C 0.29917 0.69553 0.49952 0.0
C585 C 0.37979 0.7641 0.46449 0.0
C586 C 0.42373 0.81596 0.47594 0.0
C587 C 0.45086 0.86462 0.45714 0.0
C588 C 0.43393 0.85986 0.42548 0.0
C589 C 0.3906 0.80672 0.41282 0.0
C590 C 0.36204 0.75863 0.4328 0.0
H591 H 0.19012 0.62906 0.0851 0.0
H592 H 0.29765 0.55114 0.08188 0.0
H593 H 0.31642 0.56824 0.13939 0.0
H594 H 0.282 0.74219 0.13565 0.0
H595 H 0.2259 0.74572 0.15693 0.0
H596 H 0.21357 0.7195 0.1168 0.0
H597 H 0.12431 0.62479 0.13451 0.0
H598 H 0.13637 0.65082 0.17477 0.0
H599 H 0.13162 0.58294 0.16555 0.0
H600 H 0.32846 0.5991 0.19594 0.0
H601 H 0.33957 0.64813 0.24701 0.0
H602 H 0.22915 0.71208 0.21303 0.0
C603 C 0.21626 0.61425 0.09681 0.0
C604 C 0.24161 0.58776 0.07947 0.0
C605 C 0.27745 0.5709 0.09506 0.0
C606 C 0.28813 0.58026 0.12763 0.0
C607 C 0.2633 0.60735 0.14409 0.0
C608 C 0.2285 0.62459 0.12921 0.0
C609 C 0.21252 0.65855 0.15159 0.0
C610 C 0.23485 0.72013 0.13952 0.0
C611 C 0.14732 0.6274 0.15692 0.0
C612 C 0.24434 0.65829 0.18122 0.0
C613 C 0.2725 0.62766 0.1765 0.0
C614 C 0.30628 0.62285 0.20002 0.0
C615 C 0.31224 0.65085 0.22899 0.0
C616 C 0.28516 0.68393 0.23412 0.0
C617 C 0.25018 0.68694 0.20995 0.0
loop_
_geom_bond_atom_site_label_1
_geom_bond_atom_site_label_2
_geom_bond_distance
_geom_bond_site_symmetry_2
_ccdc_geom_bond_type
Fe0 O2 1.918 . S
Fe0 O5 1.997 . S
Fe0 O6 2.002 . S
Fe0 O11 1.976 . S
Fe0 O14 1.996 . S
Fe1 O2 1.918 . S
Fe1 O9 1.997 . S
Fe1 O12 1.998 . S
Fe1 O16 1.976 1_554 S
Fe1 O19 2.002 . S
O2 Fe0 1.918 . S
O2 Fe1 1.918 . S
O2 Fe3 1.918 . S
Fe3 O2 1.918 . S
Fe3 O4 2.002 . S
Fe3 O13 1.976 . S
Fe3 O17 1.996 1_554 S
Fe3 O20 1.997 . S
O4 Fe3 2.002 . S
O4 C21 1.295 . S
O5 Fe0 1.997 . S
O5 C21 1.235 . S
O6 Fe0 2.002 . S
O6 C7 1.295 . S
C7 O6 1.295 . S
C7 O9 1.235 . S
C8 O13 1.287 . S
C8 O14 1.255 . S
O9 Fe1 1.997 . S
O9 C7 1.235 . S
C10 O16 1.287 . S
C10 O17 1.255 . S
O11 Fe0 1.976 . S
O11 C18 1.287 . S
O12 Fe1 1.998 . S
O12 C18 1.257 . S
O13 Fe3 1.976 . S
O13 C8 1.287 . S
O14 Fe0 1.996 . S
O14 C8 1.255 . S
C15 O19 1.295 . S
C15 O20 1.235 . S
O16 Fe1 1.976 1_556 S
O16 C10 1.287 . S
O17 Fe3 1.996 1_556 S
O17 C10 1.255 . S
C18 O11 1.287 . S
C18 O12 1.257 . S
O19 Fe1 2.002 . S
O19 C15 1.295 . S
O20 Fe3 1.997 . S
O20 C15 1.235 . S
C21 O4 1.295 . S
C21 O5 1.235 . S
Fe22 O24 1.918 . S
Fe22 O27 1.997 . S
Fe22 O28 2.002 . S
Fe22 O33 1.976 . S
Fe22 O36 1.996 . S
Fe23 O24 1.918 . S
Fe23 O31 1.997 . S
Fe23 O34 1.996 . S
Fe23 O38 1.976 . S
Fe23 O41 2.002 . S
O24 Fe22 1.918 . S
O24 Fe23 1.918 . S
O24 Fe25 1.918 . S
Fe25 O24 1.918 . S
Fe25 O26 2.002 . S
Fe25 O35 1.976 . S
Fe25 O39 1.996 . S
Fe25 O42 1.997 . S
O26 Fe25 2.002 . S
O26 C43 1.295 . S
O27 Fe22 1.997 . S
O27 C43 1.235 . S
O28 Fe22 2.002 . S
O28 C29 1.295 . S
C29 O28 1.295 . S
C29 O31 1.235 . S
C30 O35 1.287 . S
C30 O36 1.255 . S
O31 Fe23 1.997 . S
O31 C29 1.235 . S
C32 O38 1.287 . S
C32 O39 1.255 . S
O33 Fe22 1.976 . S
O33 C40 1.287 . S
O34 Fe23 1.996 . S
O34 C40 1.255 . S
O35 Fe25 1.976 . S
O35 C30 1.287 . S
O36 Fe22 1.996 . S
O36 C30 1.255 . S
C37 O41 1.295 . S
C37 O42 1.235 . S
O38 Fe23 1.976 . S
O38 C32 1.287 . S
O39 Fe25 1.996 . S
O39 C32 1.255 . S
C40 O33 1.287 . S
C40 O34 1.255 . S
O41 Fe23 2.002 . S
O41 C37 1.295 . S
O42 Fe25 1.997 . S
O42 C37 1.235 . S
C43 O26 1.295 . S
C43 O27 1.235 . S
Fe44 O46 1.918 . S
Fe44 O49 1.997 . S
Fe44 O50 2.002 . S
Fe44 O55 1.976 . S
Fe44 O58 1.996 . S
Fe45 O46 1.918 . S
Fe45 O53 1.997 . S
Fe45 O56 1.996 . S
Fe45 O60 1.976 . S
Fe45 O63 2.002 . S
O46 Fe44 1.918 . S
O46 Fe45 1.918 . S
O46 Fe47 1.918 . S
Fe47 O46 1.918 . S
Fe47 O48 2.002 . S
Fe47 O57 1.976 . S
Fe47 O61 1.996 . S
Fe47 O64 1.997 . S
O48 Fe47 2.002 . S
O48 C65 1.295 . S
O49 Fe44 1.997 . S
O49 C65 1.235 . S
O50 Fe44 2.002 . S
O50 C51 1.295 . S
C51 O50 1.295 . S
C51 O53 1.235 . S
C52 O57 1.287 . S
C52 O58 1.255 . S
O53 Fe45 1.997 . S
O53 C51 1.235 . S
C54 O60 1.287 . S
C54 O61 1.255 . S
O55 Fe44 1.976 . S
O55 C62 1.287 . S
O56 Fe45 1.996 . S
O56 C62 1.255 . S
O57 Fe47 1.976 . S
O57 C52 1.287 . S
O58 Fe44 1.996 . S
O58 C52 1.255 . S
C59 O63 1.295 . S
C59 O64 1.235 . S
O60 Fe45 1.976 . S
O60 C54 1.287 . S
O61 Fe47 1.996 . S
O61 C54 1.255 . S
C62 O55 1.287 . S
C62 O56 1.255 . S
O63 Fe45 2.002 . S
O63 C59 1.295 . S
O64 Fe47 1.997 . S
O64 C59 1.235 . S
C65 O48 1.295 . S
C65 O49 1.235 . S
Fe66 O68 1.918 . S
Fe66 O71 1.997 . S
Fe66 O72 2.002 . S
Fe66 O77 1.976 . S
Fe66 O80 1.996 1_556 S
Fe67 O68 1.918 . S
Fe67 O75 1.997 . S
Fe67 O78 1.996 . S
Fe67 O82 1.976 . S
Fe67 O85 2.002 . S
O68 Fe66 1.918 . S
O68 Fe67 1.918 . S
O68 Fe69 1.918 . S
Fe69 O68 1.918 . S
Fe69 O70 2.002 . S
Fe69 O79 1.976 1_556 S
Fe69 O83 1.998 . S
Fe69 O86 1.997 . S
O70 Fe69 2.002 . S
O70 C87 1.295 . S
O71 Fe66 1.997 . S
O71 C87 1.235 . S
O72 Fe66 2.002 . S
O72 C73 1.295 . S
C73 O72 1.295 . S
C73 O75 1.235 . S
C74 O79 1.287 . S
C74 O80 1.255 . S
O75 Fe67 1.997 . S
O75 C73 1.235 . S
C76 O82 1.287 . S
C76 O83 1.257 . S
O77 Fe66 1.976 . S
O77 C84 1.287 . S
O78 Fe67 1.996 . S
O78 C84 1.255 . S
O79 Fe69 1.976 1_554 S
O79 C74 1.287 . S
O80 Fe66 1.996 1_554 S
O80 C74 1.255 . S
C81 O85 1.295 . S
C81 O86 1.235 . S
O82 Fe67 1.976 . S
O82 C76 1.287 . S
O83 Fe69 1.998 . S
O83 C76 1.257 . S
C84 O77 1.287 . S
C84 O78 1.255 . S
O85 Fe67 2.002 . S
O85 C81 1.295 . S
O86 Fe69 1.997 . S
O86 C81 1.235 . S
C87 O70 1.295 . S
C87 O71 1.235 . S
Fe88 O90 1.918 . S
Fe88 O93 1.997 . S
Fe88 O94 2.002 . S
Fe88 O99 1.976 . S
Fe88 O102 1.996 . S
Fe89 O90 1.918 . S
Fe89 O97 1.997 . S
Fe89 O100 1.996 . S
Fe89 O104 1.976 . S
Fe89 O107 2.002 . S
O90 Fe88 1.918 . S
O90 Fe89 1.918 . S
O90 Fe91 1.918 . S
Fe91 O90 1.918 . S
Fe91 O92 2.002 . S
Fe91 O101 1.976 . S
Fe91 O105 1.996 . S
Fe91 O108 1.997 . S
O92 Fe91 2.002 . S
O92 C109 1.295 . S
O93 Fe88 1.997 . S
O93 C109 1.235 . S
O94 Fe88 2.002 . S
O94 C95 1.295 . S
C95 O94 1.295 . S
C95 O97 1.235 . S
C96 O101 1.287 . S
C96 O102 1.255 . S
O97 Fe89 1.997 . S
O97 C95 1.235 . S
C98 O104 1.287 . S
C98 O105 1.255 . S
O99 Fe88 1.976 . S
O99 C106 1.287 . S
O100 Fe89 1.996 . S
O100 C106 1.255 . S
O101 Fe91 1.976 . S
O101 C96 1.287 . S
O102 Fe88 1.996 . S
O102 C96 1.255 . S
C103 O107 1.295 . S
C103 O108 1.235 . S
O104 Fe89 1.976 . S
O104 C98 1.287 . S
O105 Fe91 1.996 . S
O105 C98 1.255 . S
C106 O99 1.287 . S
C106 O100 1.255 . S
O107 Fe89 2.002 . S
O107 C103 1.295 . S
O108 Fe91 1.997 . S
O108 C103 1.235 . S
C109 O92 1.295 . S
C109 O93 1.235 . S
Fe110 O112 1.918 . S
Fe110 O115 1.997 . S
Fe110 O116 2.002 . S
Fe110 O121 1.976 . S
Fe110 O124 1.996 . S
Fe111 O112 1.918 . S
Fe111 O119 1.997 . S
Fe111 O122 1.996 . S
Fe111 O126 1.976 . S
Fe111 O129 2.002 . S
O112 Fe110 1.918 . S
O112 Fe111 1.918 . S
O112 Fe113 1.918 . S
Fe113 O112 1.918 . S
Fe113 O114 2.002 . S
Fe113 O123 1.976 . S
Fe113 O127 1.996 . S
Fe113 O130 1.997 . S
O114 Fe113 2.002 . S
O114 C131 1.295 . S
O115 Fe110 1.997 . S
O115 C131 1.235 . S
O116 Fe110 2.002 . S
O116 C117 1.295 . S
C117 O116 1.295 . S
C117 O119 1.235 . S
C118 O123 1.287 . S
C118 O124 1.255 . S
O119 Fe111 1.997 . S
O119 C117 1.235 . S
C120 O126 1.287 . S
C120 O127 1.255 . S
O121 Fe110 1.976 . S
O121 C128 1.287 . S
O122 Fe111 1.996 . S
O122 C128 1.255 . S
O123 Fe113 1.976 . S
O123 C118 1.287 . S
O124 Fe110 1.996 . S
O124 C118 1.255 . S
C125 O129 1.295 . S
C125 O130 1.235 . S
O126 Fe111 1.976 . S
O126 C120 1.287 . S
O127 Fe113 1.996 . S
O127 C120 1.255 . S
C128 O121 1.287 . S
C128 O122 1.255 . S
O129 Fe111 2.002 . S
O129 C125 1.295 . S
O130 Fe113 1.997 . S
O130 C125 1.235 . S
C131 O114 1.295 . S
C131 O115 1.235 . S
H132 C144 0.930 . S
H133 C146 0.930 . S
H134 C147 0.930 . S
H135 C151 0.959 . S
H136 C151 0.959 . S
H137 C151 0.961 . S
H138 C152 0.960 . S
H139 C152 0.961 . S
H140 C152 0.959 . S
H141 C155 0.929 . S
H142 C156 0.931 . S
H143 C158 0.930 . S
C144 H132 0.930 . S
C144 C145 1.399 1_554 S
C144 C149 1.399 . S
C145 C144 1.399 1_556 S
C145 C146 1.376 . S
C146 H133 0.930 . S
C146 C145 1.376 . S
C146 C147 1.388 . S
C147 H134 0.930 . S
C147 C146 1.388 . S
C147 C148 1.390 . S
C148 C147 1.390 . S
C148 C149 1.394 1_556 S
C148 C154 1.465 . S
C149 C144 1.399 . S
C149 C148 1.394 1_554 S
C149 C150 1.516 . S
C150 C149 1.516 . S
C150 C151 1.502 . S
C150 C152 1.561 . S
C150 C153 1.526 . S
C151 H135 0.959 . S
C151 H136 0.959 . S
C151 H137 0.961 . S
C151 C150 1.502 . S
C152 H138 0.960 . S
C152 H139 0.961 . S
C152 H140 0.959 . S
C152 C150 1.561 . S
C153 C150 1.526 . S
C153 C154 1.396 1_554 S
C153 C158 1.390 . S
C154 C148 1.465 . S
C154 C153 1.396 1_556 S
C154 C155 1.399 . S
C155 H141 0.929 . S
C155 C154 1.399 . S
C155 C156 1.385 . S
C156 H142 0.931 . S
C156 C155 1.385 . S
C156 C157 1.389 1_556 S
C157 C156 1.389 1_554 S
C157 C158 1.387 . S
C158 H143 0.930 . S
C158 C153 1.390 . S
C158 C157 1.387 . S
H159 C171 0.930 . S
H160 C173 0.930 . S
H161 C174 0.930 . S
H162 C178 0.959 . S
H163 C178 0.959 1_565 S
H164 C178 0.961 . S
H165 C179 0.960 . S
H166 C179 0.961 1_565 S
H167 C179 0.959 . S
H168 C182 0.929 . S
H169 C183 0.931 . S
H170 C185 0.930 . S
C171 H159 0.930 . S
C171 C172 1.399 . S
C171 C176 1.399 . S
C172 C171 1.399 . S
C172 C173 1.376 . S
C173 H160 0.930 . S
C173 C172 1.376 . S
C173 C174 1.388 . S
C174 H161 0.930 . S
C174 C173 1.388 . S
C174 C175 1.390 . S
C175 C174 1.390 . S
C175 C176 1.394 . S
C175 C181 1.465 1_545 S
C176 C171 1.399 . S
C176 C175 1.394 . S
C176 C177 1.516 . S
C177 C176 1.516 . S
C177 C178 1.502 . S
C177 C179 1.561 . S
C177 C180 1.526 1_545 S
C178 H162 0.959 . S
C178 H163 0.959 1_545 S
C178 H164 0.961 . S
C178 C177 1.502 . S
C179 H165 0.960 . S
C179 H166 0.961 1_545 S
C179 H167 0.959 . S
C179 C177 1.561 . S
C180 C177 1.526 1_565 S
C180 C181 1.396 . S
C180 C185 1.390 . S
C181 C175 1.465 1_565 S
C181 C180 1.396 . S
C181 C182 1.399 . S
C182 H168 0.929 . S
C182 C181 1.399 . S
C182 C183 1.385 . S
C183 H169 0.931 . S
C183 C182 1.385 . S
C183 C184 1.389 . S
C184 C183 1.389 . S
C184 C185 1.387 . S
C185 H170 0.930 . S
C185 C180 1.390 . S
C185 C184 1.387 . S
H186 C198 0.930 . S
H187 C200 0.930 . S
H188 C201 0.930 . S
H189 C205 0.959 . S
H190 C205 0.959 1_655 S
H191 C205 0.961 . S
H192 C206 0.960 . S
H193 C206 0.961 1_655 S
H194 C206 0.969 . S
H195 C209 0.929 . S
H196 C210 0.931 . S
H197 C212 0.930 . S
C198 H186 0.930 . S
C198 C199 1.399 . S
C198 C203 1.399 . S
C199 C198 1.399 . S
C199 C200 1.376 . S
C200 H187 0.930 . S
C200 C199 1.376 . S
C200 C201 1.388 . S
C201 H188 0.930 . S
C201 C200 1.388 . S
C201 C202 1.390 . S
C202 C201 1.390 . S
C202 C203 1.394 . S
C202 C208 1.465 1_455 S
C203 C198 1.399 . S
C203 C202 1.394 . S
C203 C204 1.516 . S
C204 C203 1.516 . S
C204 C205 1.502 . S
C204 C206 1.561 . S
C204 C207 1.526 1_455 S
C205 H189 0.959 . S
C205 H190 0.959 1_455 S
C205 H191 0.961 . S
C205 C204 1.502 . S
C206 H192 0.960 . S
C206 H193 0.961 1_455 S
C206 H194 0.969 . S
C206 C204 1.561 . S
C207 C204 1.526 1_655 S
C207 C208 1.396 . S
C207 C212 1.390 . S
C208 C202 1.465 1_655 S
C208 C207 1.396 . S
C208 C209 1.399 . S
C209 H195 0.929 . S
C209 C208 1.399 . S
C209 C210 1.385 . S
C210 H196 0.931 . S
C210 C209 1.385 . S
C210 C211 1.389 . S
C211 C210 1.389 . S
C211 C212 1.387 . S
C212 H197 0.930 . S
C212 C207 1.390 . S
C212 C211 1.387 . S
H213 C225 0.930 . S
H214 C227 0.930 . S
H215 C228 0.930 . S
H216 C232 0.959 1_565 S
H217 C232 0.959 . S
H218 C232 0.961 . S
H219 C233 0.960 . S
H220 C233 0.961 . S
H221 C233 0.959 . S
H222 C236 0.929 1_565 S
H223 C237 0.931 . S
H224 C239 0.930 . S
C225 H213 0.930 . S
C225 C226 1.399 . S
C225 C230 1.399 . S
C226 C225 1.399 . S
C226 C227 1.376 . S
C227 H214 0.930 . S
C227 C226 1.376 . S
C227 C228 1.388 . S
C228 H215 0.930 . S
C228 C227 1.388 . S
C228 C229 1.390 . S
C229 C228 1.390 . S
C229 C230 1.394 . S
C229 C235 1.465 1_565 S
C230 C225 1.399 . S
C230 C229 1.394 . S
C230 C231 1.516 1_565 S
C231 C230 1.516 1_545 S
C231 C232 1.502 . S
C231 C233 1.561 . S
C231 C234 1.526 . S
C232 H216 0.959 1_545 S
C232 H217 0.959 . S
C232 H218 0.961 . S
C232 C231 1.502 . S
C233 H219 0.960 . S
C233 H220 0.961 . S
C233 H221 0.959 . S
C233 C231 1.561 . S
C234 C231 1.526 . S
C234 C235 1.396 . S
C234 C239 1.390 . S
C235 C229 1.465 1_545 S
C235 C234 1.396 . S
C235 C236 1.399 . S
C236 H222 0.929 1_545 S
C236 C235 1.399 . S
C236 C237 1.385 . S
C237 H223 0.931 . S
C237 C236 1.385 . S
C237 C238 1.389 . S
C238 C237 1.389 . S
C238 C239 1.387 . S
C239 H224 0.930 . S
C239 C234 1.390 . S
C239 C238 1.387 . S
H240 C252 0.930 . S
H241 C254 0.930 . S
H242 C255 0.930 . S
H243 C259 0.959 . S
H244 C259 0.959 . S
H245 C259 0.961 . S
H246 C260 0.960 . S
H247 C260 0.961 . S
H248 C260 0.959 . S
H249 C263 0.929 . S
H250 C264 0.931 . S
H251 C266 0.930 . S
C252 H240 0.930 . S
C252 C253 1.399 . S
C252 C257 1.399 . S
C253 C252 1.399 . S
C253 C254 1.376 . S
C254 H241 0.930 . S
C254 C253 1.376 . S
C254 C255 1.388 1_655 S
C255 H242 0.930 . S
C255 C254 1.388 1_455 S
C255 C256 1.390 1_455 S
C256 C255 1.390 1_655 S
C256 C257 1.394 . S
C256 C262 1.465 1_655 S
C257 C252 1.399 . S
C257 C256 1.394 . S
C257 C258 1.516 . S
C258 C257 1.516 . S
C258 C259 1.502 . S
C258 C260 1.561 . S
C258 C261 1.526 1_655 S
C259 H243 0.959 . S
C259 H244 0.959 . S
C259 H245 0.961 . S
C259 C258 1.502 . S
C260 H246 0.960 . S
C260 H247 0.961 . S
C260 H248 0.959 . S
C260 C258 1.561 . S
C261 C258 1.526 1_455 S
C261 C262 1.396 . S
C261 C266 1.390 . S
C262 C256 1.465 1_455 S
C262 C261 1.396 . S
C262 C263 1.399 . S
C263 H249 0.929 . S
C263 C262 1.399 . S
C263 C264 1.385 . S
C264 H250 0.931 . S
C264 C263 1.385 . S
C264 C265 1.389 . S
C265 C264 1.389 . S
C265 C266 1.387 . S
C266 H251 0.930 . S
C266 C261 1.390 . S
C266 C265 1.387 . S
H267 C279 0.930 . S
H268 C281 0.930 . S
H269 C282 0.930 . S
H270 C286 0.959 . S
H271 C286 0.959 . S
H272 C286 0.961 . S
H273 C287 0.960 . S
H274 C287 0.961 . S
H275 C287 0.959 . S
H276 C290 0.929 . S
H277 C291 0.931 . S
H278 C293 0.930 . S
C279 H267 0.930 . S
C279 C280 1.399 . S
C279 C284 1.399 . S
C280 C279 1.399 . S
C280 C281 1.376 . S
C281 H268 0.930 . S
C281 C280 1.376 . S
C281 C282 1.388 . S
C282 H269 0.930 . S
C282 C281 1.388 . S
C282 C283 1.390 . S
C283 C282 1.390 . S
C283 C284 1.394 . S
C283 C289 1.465 . S
C284 C279 1.399 . S
C284 C283 1.394 . S
C284 C285 1.516 . S
C285 C284 1.516 . S
C285 C286 1.502 . S
C285 C287 1.561 . S
C285 C288 1.526 . S
C286 H270 0.959 . S
C286 H271 0.959 . S
C286 H272 0.961 . S
C286 C285 1.502 . S
C287 H273 0.960 . S
C287 H274 0.961 . S
C287 H275 0.959 . S
C287 C285 1.561 . S
C288 C285 1.526 . S
C288 C289 1.396 . S
C288 C293 1.390 . S
C289 C283 1.465 . S
C289 C288 1.396 . S
C289 C290 1.399 . S
C290 H276 0.929 . S
C290 C289 1.399 . S
C290 C291 1.385 . S
C291 H277 0.931 . S
C291 C290 1.385 . S
C291 C292 1.389 . S
C292 C291 1.389 . S
C292 C293 1.387 . S
C293 H278 0.930 . S
C293 C288 1.390 . S
C293 C292 1.387 . S
H294 C306 0.930 . S
H295 C308 0.930 . S
H296 C309 0.930 . S
H297 C313 0.959 . S
H298 C313 0.959 . S
H299 C313 0.961 . S
H300 C314 0.960 . S
H301 C314 0.961 . S
H302 C314 0.959 . S
H303 C317 0.929 . S
H304 C318 0.931 . S
H305 C320 0.930 . S
C306 H294 0.930 . S
C306 C307 1.399 1_566 S
C306 C311 1.399 . S
C307 C306 1.399 1_544 S
C307 C308 1.376 1_545 S
C308 H295 0.930 . S
C308 C307 1.376 1_565 S
C308 C309 1.388 . S
C309 H296 0.930 . S
C309 C308 1.388 . S
C309 C310 1.390 . S
C310 C309 1.390 . S
C310 C311 1.394 1_554 S
C310 C316 1.465 1_554 S
C311 C306 1.399 . S
C311 C310 1.394 1_556 S
C311 C312 1.516 . S
C312 C311 1.516 . S
C312 C313 1.502 . S
C312 C314 1.561 . S
C312 C315 1.526 . S
C313 H297 0.959 . S
C313 H298 0.959 . S
C313 H299 0.961 . S
C313 C312 1.502 . S
C314 H300 0.960 . S
C314 H301 0.961 . S
C314 H302 0.959 . S
C314 C312 1.561 . S
C315 C312 1.526 . S
C315 C316 1.396 . S
C315 C320 1.390 . S
C316 C310 1.465 1_556 S
C316 C315 1.396 . S
C316 C317 1.399 1_556 S
C317 H303 0.929 . S
C317 C316 1.399 1_554 S
C317 C318 1.385 . S
C318 H304 0.931 . S
C318 C317 1.385 . S
C318 C319 1.389 1_554 S
C319 C318 1.389 1_556 S
C319 C320 1.387 . S
C320 H305 0.930 . S
C320 C315 1.390 . S
C320 C319 1.387 . S
H321 C333 0.930 . S
H322 C335 0.930 . S
H323 C336 0.930 . S
H324 C340 0.959 . S
H325 C340 0.959 . S
H326 C340 0.961 . S
H327 C341 0.960 . S
H328 C341 0.961 . S
H329 C341 0.959 . S
H330 C344 0.929 . S
H331 C345 0.931 . S
H332 C347 0.930 . S
C333 H321 0.930 . S
C333 C334 1.399 . S
C333 C338 1.399 . S
C334 C333 1.399 . S
C334 C335 1.376 . S
C335 H322 0.930 . S
C335 C334 1.376 . S
C335 C336 1.388 . S
C336 H323 0.930 . S
C336 C335 1.388 . S
C336 C337 1.390 . S
C337 C336 1.390 . S
C337 C338 1.394 . S
C337 C343 1.465 . S
C338 C333 1.399 . S
C338 C337 1.394 . S
C338 C339 1.516 . S
C339 C338 1.516 . S
C339 C340 1.502 . S
C339 C341 1.561 . S
C339 C342 1.526 . S
C340 H324 0.959 . S
C340 H325 0.959 . S
C340 H326 0.961 . S
C340 C339 1.502 . S
C341 H327 0.960 . S
C341 H328 0.961 . S
C341 H329 0.959 . S
C341 C339 1.561 . S
C342 C339 1.526 . S
C342 C343 1.396 . S
C342 C347 1.390 . S
C343 C337 1.465 . S
C343 C342 1.396 . S
C343 C344 1.399 . S
C344 H330 0.929 . S
C344 C343 1.399 . S
C344 C345 1.385 . S
C345 H331 0.931 . S
C345 C344 1.385 . S
C345 C346 1.389 1_455 S
C346 C345 1.389 1_655 S
C346 C347 1.387 1_655 S
C347 H332 0.930 . S
C347 C342 1.390 . S
C347 C346 1.387 1_455 S
H348 C360 0.930 . S
H349 C362 0.930 . S
H350 C363 0.930 . S
H351 C367 0.959 . S
H352 C367 0.959 . S
H353 C367 0.961 . S
H354 C368 0.960 . S
H355 C368 0.961 . S
H356 C368 0.959 . S
H357 C371 0.929 . S
H358 C372 0.931 . S
H359 C374 0.930 . S
C360 H348 0.930 . S
C360 C361 1.399 . S
C360 C365 1.399 . S
C361 C360 1.399 . S
C361 C362 1.376 . S
C362 H349 0.930 . S
C362 C361 1.376 . S
C362 C363 1.388 . S
C363 H350 0.930 . S
C363 C362 1.388 . S
C363 C364 1.390 . S
C364 C363 1.390 . S
C364 C365 1.394 . S
C364 C370 1.465 . S
C365 C360 1.399 . S
C365 C364 1.394 . S
C365 C366 1.516 . S
C366 C365 1.516 . S
C366 C367 1.502 . S
C366 C368 1.561 . S
C366 C369 1.526 . S
C367 H351 0.959 . S
C367 H352 0.959 . S
C367 H353 0.961 . S
C367 C366 1.502 . S
C368 H354 0.960 . S
C368 H355 0.961 . S
C368 H356 0.959 . S
C368 C366 1.561 . S
C369 C366 1.526 . S
C369 C370 1.396 . S
C369 C374 1.390 . S
C370 C364 1.465 . S
C370 C369 1.396 . S
C370 C371 1.399 . S
C371 H357 0.929 . S
C371 C370 1.399 . S
C371 C372 1.385 . S
C372 H358 0.931 . S
C372 C371 1.385 . S
C372 C373 1.389 . S
C373 C372 1.389 . S
C373 C374 1.387 . S
C374 H359 0.930 . S
C374 C369 1.390 . S
C374 C373 1.387 . S
H375 C387 0.930 . S
H376 C389 0.930 1_455 S
H377 C390 0.930 . S
H378 C394 0.959 . S
H379 C394 0.959 . S
H380 C394 0.961 . S
H381 C395 0.960 . S
H382 C395 0.961 . S
H383 C395 0.959 . S
H384 C398 0.929 . S
H385 C399 0.931 . S
H386 C401 0.930 . S
C387 H375 0.930 . S
C387 C388 1.400 1_654 S
C387 C392 1.399 . S
C388 C387 1.400 1_456 S
C388 C389 1.376 1_455 S
C389 H376 0.930 1_655 S
C389 C388 1.376 1_655 S
C389 C390 1.388 1_556 S
C390 H377 0.930 . S
C390 C389 1.388 1_554 S
C390 C391 1.390 . S
C391 C390 1.390 . S
C391 C392 1.394 . S
C391 C397 1.465 . S
C392 C387 1.399 . S
C392 C391 1.394 . S
C392 C393 1.516 . S
C393 C392 1.516 . S
C393 C394 1.502 . S
C393 C395 1.561 1_554 S
C393 C396 1.526 . S
C394 H378 0.959 . S
C394 H379 0.959 . S
C394 H380 0.961 . S
C394 C393 1.502 . S
C395 H381 0.960 . S
C395 H382 0.961 . S
C395 H383 0.959 . S
C395 C393 1.561 1_556 S
C396 C393 1.526 . S
C396 C397 1.396 . S
C396 C401 1.390 . S
C397 C391 1.465 . S
C397 C396 1.396 . S
C397 C398 1.399 . S
C398 H384 0.929 . S
C398 C397 1.399 . S
C398 C399 1.385 . S
C399 H385 0.931 . S
C399 C398 1.385 . S
C399 C400 1.389 . S
C400 C399 1.389 . S
C400 C401 1.387 . S
C401 H386 0.930 . S
C401 C396 1.390 . S
C401 C400 1.387 . S
H402 C414 0.930 . S
H403 C416 0.930 . S
H404 C417 0.930 . S
H405 C421 0.959 . S
H406 C421 0.959 . S
H407 C421 0.961 . S
H408 C422 0.960 . S
H409 C422 0.961 . S
H410 C422 0.959 . S
H411 C425 0.929 . S
H412 C426 0.931 . S
H413 C428 0.930 . S
C414 H402 0.930 . S
C414 C415 1.399 . S
C414 C419 1.399 . S
C415 C414 1.399 . S
C415 C416 1.376 . S
C416 H403 0.930 . S
C416 C415 1.376 . S
C416 C417 1.388 . S
C417 H404 0.930 . S
C417 C416 1.388 . S
C417 C418 1.390 . S
C418 C417 1.390 . S
C418 C419 1.394 . S
C418 C424 1.465 . S
C419 C414 1.399 . S
C419 C418 1.394 . S
C419 C420 1.516 . S
C420 C419 1.516 . S
C420 C421 1.502 . S
C420 C422 1.561 . S
C420 C423 1.526 . S
C421 H405 0.959 . S
C421 H406 0.959 . S
C421 H407 0.961 . S
C421 C420 1.502 . S
C422 H408 0.960 . S
C422 H409 0.961 . S
C422 H410 0.959 . S
C422 C420 1.561 . S
C423 C420 1.526 . S
C423 C424 1.396 . S
C423 C428 1.390 . S
C424 C418 1.465 . S
C424 C423 1.396 . S
C424 C425 1.399 . S
C425 H411 0.929 . S
C425 C424 1.399 . S
C425 C426 1.385 . S
C426 H412 0.931 . S
C426 C425 1.385 . S
C426 C427 1.389 . S
C427 C426 1.389 . S
C427 C428 1.387 . S
C428 H413 0.930 . S
C428 C423 1.390 . S
C428 C427 1.387 . S
H429 C441 0.930 . S
H430 C443 0.930 . S
H431 C444 0.930 . S
H432 C448 0.959 . S
H433 C448 0.959 . S
H434 C448 0.961 . S
H435 C449 0.960 . S
H436 C449 0.961 . S
H437 C449 0.959 . S
H438 C452 0.929 . S
H439 C453 0.931 . S
H440 C455 0.930 . S
C441 H429 0.930 . S
C441 C442 1.399 . S
C441 C446 1.399 . S
C442 C441 1.399 . S
C442 C443 1.376 . S
C443 H430 0.930 . S
C443 C442 1.376 . S
C443 C444 1.388 . S
C444 H431 0.930 . S
C444 C443 1.388 . S
C444 C445 1.390 . S
C445 C444 1.390 . S
C445 C446 1.394 . S
C445 C451 1.465 . S
C446 C441 1.399 . S
C446 C445 1.394 . S
C446 C447 1.516 . S
C447 C446 1.516 . S
C447 C448 1.502 . S
C447 C449 1.561 . S
C447 C450 1.526 . S
C448 H432 0.959 . S
C448 H433 0.959 . S
C448 H434 0.961 . S
C448 C447 1.502 . S
C449 H435 0.960 . S
C449 H436 0.961 . S
C449 H437 0.959 . S
C449 C447 1.561 . S
C450 C447 1.526 . S
C450 C451 1.396 . S
C450 C455 1.390 . S
C451 C445 1.465 . S
C451 C450 1.396 . S
C451 C452 1.399 . S
C452 H438 0.929 . S
C452 C451 1.399 . S
C452 C453 1.385 . S
C453 H439 0.931 . S
C453 C452 1.385 . S
C453 C454 1.389 1_545 S
C454 C453 1.389 1_565 S
C454 C455 1.387 1_565 S
C455 H440 0.930 . S
C455 C450 1.390 . S
C455 C454 1.387 1_545 S
H456 C468 0.930 . S
H457 C470 0.930 . S
H458 C471 0.930 . S
H459 C475 0.959 . S
H460 C475 0.959 . S
H461 C475 0.961 . S
H462 C476 0.960 . S
H463 C476 0.961 . S
H464 C476 0.959 . S
H465 C479 0.929 . S
H466 C480 0.931 . S
H467 C482 0.930 . S
C468 H456 0.930 . S
C468 C469 1.399 . S
C468 C473 1.399 . S
C469 C468 1.399 . S
C469 C470 1.376 . S
C470 H457 0.930 . S
C470 C469 1.376 . S
C470 C471 1.388 . S
C471 H458 0.930 . S
C471 C470 1.388 . S
C471 C472 1.390 . S
C472 C471 1.390 . S
C472 C473 1.394 . S
C472 C478 1.465 . S
C473 C468 1.399 . S
C473 C472 1.394 . S
C473 C474 1.516 . S
C474 C473 1.516 . S
C474 C475 1.502 . S
C474 C476 1.561 . S
C474 C477 1.526 . S
C475 H459 0.959 . S
C475 H460 0.959 . S
C475 H461 0.961 . S
C475 C474 1.502 . S
C476 H462 0.960 . S
C476 H463 0.961 . S
C476 H464 0.959 . S
C476 C474 1.561 . S
C477 C474 1.526 . S
C477 C478 1.396 . S
C477 C482 1.390 . S
C478 C472 1.465 . S
C478 C477 1.396 . S
C478 C479 1.399 . S
C479 H465 0.929 . S
C479 C478 1.399 . S
C479 C480 1.385 . S
C480 H466 0.931 . S
C480 C479 1.385 . S
C480 C481 1.389 . S
C481 C480 1.389 . S
C481 C482 1.387 . S
C482 H467 0.930 . S
C482 C477 1.390 . S
C482 C481 1.387 . S
H483 C495 0.930 . S
H484 C497 0.930 . S
H485 C498 0.930 . S
H486 C502 0.959 . S
H487 C502 0.959 . S
H488 C502 0.961 . S
H489 C503 0.960 . S
H490 C503 0.961 . S
H491 C503 0.959 . S
H492 C506 0.929 . S
H493 C507 0.931 . S
H494 C509 0.930 . S
C495 H483 0.930 . S
C495 C496 1.399 . S
C495 C500 1.399 . S
C496 C495 1.399 . S
C496 C497 1.376 . S
C497 H484 0.930 . S
C497 C496 1.376 . S
C497 C498 1.388 . S
C498 H485 0.930 . S
C498 C497 1.388 . S
C498 C499 1.390 . S
C499 C498 1.390 . S
C499 C500 1.394 . S
C499 C505 1.465 . S
C500 C495 1.399 . S
C500 C499 1.394 . S
C500 C501 1.516 . S
C501 C500 1.516 . S
C501 C502 1.502 . S
C501 C503 1.561 . S
C501 C504 1.526 . S
C502 H486 0.959 . S
C502 H487 0.959 . S
C502 H488 0.961 . S
C502 C501 1.502 . S
C503 H489 0.960 . S
C503 H490 0.961 . S
C503 H491 0.959 . S
C503 C501 1.561 . S
C504 C501 1.526 . S
C504 C505 1.396 . S
C504 C509 1.390 . S
C505 C499 1.465 . S
C505 C504 1.396 . S
C505 C506 1.399 . S
C506 H492 0.929 . S
C506 C505 1.399 . S
C506 C507 1.385 . S
C507 H493 0.931 . S
C507 C506 1.385 . S
C507 C508 1.389 . S
C508 C507 1.389 . S
C508 C509 1.387 . S
C509 H494 0.930 . S
C509 C504 1.390 . S
C509 C508 1.387 . S
H510 C522 0.930 . S
H511 C524 0.930 . S
H512 C525 0.930 . S
H513 C529 0.959 . S
H514 C529 0.959 . S
H515 C529 0.961 . S
H516 C530 0.960 . S
H517 C530 0.961 . S
H518 C530 0.959 . S
H519 C533 0.929 . S
H520 C534 0.931 . S
H521 C536 0.930 . S
C522 H510 0.930 . S
C522 C523 1.399 . S
C522 C527 1.399 . S
C523 C522 1.399 . S
C523 C524 1.376 . S
C524 H511 0.930 . S
C524 C523 1.376 . S
C524 C525 1.388 . S
C525 H512 0.930 . S
C525 C524 1.388 . S
C525 C526 1.390 . S
C526 C525 1.390 . S
C526 C527 1.394 . S
C526 C532 1.465 . S
C527 C522 1.399 . S
C527 C526 1.394 . S
C527 C528 1.516 . S
C528 C527 1.516 . S
C528 C529 1.502 . S
C528 C530 1.561 . S
C528 C531 1.526 . S
C529 H513 0.959 . S
C529 H514 0.959 . S
C529 H515 0.961 . S
C529 C528 1.502 . S
C530 H516 0.960 . S
C530 H517 0.961 . S
C530 H518 0.959 . S
C530 C528 1.561 . S
C531 C528 1.526 . S
C531 C532 1.396 . S
C531 C536 1.390 . S
C532 C526 1.465 . S
C532 C531 1.396 . S
C532 C533 1.399 . S
C533 H519 0.929 . S
C533 C532 1.399 . S
C533 C534 1.385 . S
C534 H520 0.931 . S
C534 C533 1.385 . S
C534 C535 1.389 . S
C535 C534 1.389 . S
C535 C536 1.387 . S
C536 H521 0.930 . S
C536 C531 1.390 . S
C536 C535 1.387 . S
H537 C549 0.930 . S
H538 C551 0.930 . S
H539 C552 0.930 . S
H540 C556 0.959 . S
H541 C556 0.959 . S
H542 C556 0.961 . S
H543 C557 0.960 . S
H544 C557 0.961 . S
H545 C557 0.959 . S
H546 C560 0.929 . S
H547 C561 0.931 . S
H548 C563 0.930 . S
C549 H537 0.930 . S
C549 C550 1.399 . S
C549 C554 1.399 . S
C550 C549 1.399 . S
C550 C551 1.376 . S
C551 H538 0.930 . S
C551 C550 1.376 . S
C551 C552 1.388 . S
C552 H539 0.930 . S
C552 C551 1.388 . S
C552 C553 1.390 . S
C553 C552 1.390 . S
C553 C554 1.394 . S
C553 C559 1.465 . S
C554 C549 1.399 . S
C554 C553 1.394 . S
C554 C555 1.516 . S
C555 C554 1.516 . S
C555 C556 1.502 . S
C555 C557 1.561 . S
C555 C558 1.526 . S
C556 H540 0.959 . S
C556 H541 0.959 . S
C556 H542 0.961 . S
C556 C555 1.502 . S
C557 H543 0.960 . S
C557 H544 0.961 . S
C557 H545 0.959 . S
C557 C555 1.561 . S
C558 C555 1.526 . S
C558 C559 1.396 . S
C558 C563 1.390 . S
C559 C553 1.465 . S
C559 C558 1.396 . S
C559 C560 1.399 . S
C560 H546 0.929 . S
C560 C559 1.399 . S
C560 C561 1.385 . S
C561 H547 0.931 . S
C561 C560 1.385 . S
C561 C562 1.389 . S
C562 C561 1.389 . S
C562 C563 1.387 . S
C563 H548 0.930 . S
C563 C558 1.390 . S
C563 C562 1.387 . S
H564 C576 0.930 . S
H565 C578 0.930 . S
H566 C579 0.930 . S
H567 C583 0.959 . S
H568 C583 0.959 . S
H569 C583 0.961 . S
H570 C584 0.960 . S
H571 C584 0.961 . S
H572 C584 0.959 . S
H573 C587 0.929 . S
H574 C588 0.931 . S
H575 C590 0.930 . S
C576 H564 0.930 . S
C576 C577 1.399 . S
C576 C581 1.399 . S
C577 C576 1.399 . S
C577 C578 1.376 . S
C578 H565 0.930 . S
C578 C577 1.376 . S
C578 C579 1.388 . S
C579 H566 0.930 . S
C579 C578 1.388 . S
C579 C580 1.390 . S
C580 C579 1.390 . S
C580 C581 1.394 . S
C580 C586 1.465 . S
C581 C576 1.399 . S
C581 C580 1.394 . S
C581 C582 1.516 . S
C582 C581 1.516 . S
C582 C583 1.502 . S
C582 C584 1.561 . S
C582 C585 1.526 . S
C583 H567 0.959 . S
C583 H568 0.959 . S
C583 H569 0.961 . S
C583 C582 1.502 . S
C584 H570 0.960 . S
C584 H571 0.961 . S
C584 H572 0.959 . S
C584 C582 1.561 . S
C585 C582 1.526 . S
C585 C586 1.396 . S
C585 C590 1.390 . S
C586 C580 1.465 . S
C586 C585 1.396 . S
C586 C587 1.399 . S
C587 H573 0.929 . S
C587 C586 1.399 . S
C587 C588 1.385 . S
C588 H574 0.931 . S
C588 C587 1.385 . S
C588 C589 1.389 . S
C589 C588 1.389 . S
C589 C590 1.387 . S
C590 H575 0.930 . S
C590 C585 1.390 . S
C590 C589 1.387 . S
H591 C603 0.930 . S
H592 C605 0.930 . S
H593 C606 0.930 . S
H594 C610 0.959 . S
H595 C610 0.959 . S
H596 C610 0.961 . S
H597 C611 0.960 . S
H598 C611 0.961 . S
H599 C611 0.959 . S
H600 C614 0.929 . S
H601 C615 0.931 . S
H602 C617 0.930 . S
C603 H591 0.930 . S
C603 C604 1.399 . S
C603 C608 1.399 . S
C604 C603 1.399 . S
C604 C605 1.376 . S
C605 H592 0.930 . S
C605 C604 1.376 . S
C605 C606 1.388 . S
C606 H593 0.930 . S
C606 C605 1.388 . S
C606 C607 1.390 . S
C607 C606 1.390 . S
C607 C608 1.394 . S
C607 C613 1.465 . S
C608 C603 1.399 . S
C608 C607 1.394 . S
C608 C609 1.516 . S
C609 C608 1.516 . S
C609 C610 1.502 . S
C609 C611 1.561 . S
C609 C612 1.526 . S
C610 H594 0.959 . S
C610 H595 0.959 . S
C610 H596 0.961 . S
C610 C609 1.502 . S
C611 H597 0.960 . S
C611 H598 0.961 . S
C611 H599 0.959 . S
C611 C609 1.561 . S
C612 C609 1.526 . S
C612 C613 1.396 . S
C612 C617 1.390 . S
C613 C607 1.465 . S
C613 C612 1.396 . S
C613 C614 1.399 . S
C614 H600 0.929 . S
C614 C613 1.399 . S
C614 C615 1.385 . S
C615 H601 0.931 . S
C615 C614 1.385 . S
C615 C616 1.389 . S
C616 C615 1.389 . S
C616 C617 1.387 . S
C617 H602 0.930 . S
C617 C612 1.390 . S
C617 C616 1.387 . S
C145 C84 1.795 . S
C157 C8 1.816 . S
C172 C32 1.794 . S
C184 C106 1.816 . S
C199 C128 1.788 . S
C211 C52 1.813 . S
C226 C125 0.932 . S
C238 C7 0.928 . S
C253 C43 0.822 . S
C265 C81 0.834 . S
C280 C51 0.826 . S
C292 C103 0.820 . S
C307 C18 1.360 . S
C319 C87 1.352 . S
C334 C109 1.359 . S
C346 C30 1.378 . S
C361 C131 1.380 . S
C373 C62 1.402 . S
C388 C76 1.406 . S
C400 C15 1.385 . S
C415 C98 1.421 . S
C427 C29 1.419 . S
C442 C59 1.362 . S
C454 C120 1.382 . S
C469 C21 1.286 . S
C481 C54 1.263 . S
C496 C10 1.284 . S
C508 C37 1.279 . S
C523 C65 1.279 . S
C535 C40 1.286 . S
C550 C73 1.293 . S
C562 C96 1.273 . S
C577 C95 1.296 . S
C589 C118 1.292 . S
C604 C74 1.267 . S
C616 C117 1.277 . S
