# Generated by pormake.
# Topology umr, (4)-cn, num edge types: 1
# Building blocks:
#     Node 0, Type 0, BuildingBlock: GALJAG_clean_sbu_0, # of connection points: 4
#     Node 1, Type 0, BuildingBlock: GALJAG_clean_sbu_0, # of connection points: 4
#     Node 2, Type 0, BuildingBlock: GALJAG_clean_sbu_0, # of connection points: 4
#     Node 3, Type 0, BuildingBlock: GALJAG_clean_sbu_0, # of connection points: 4
#     Node 4, Type 0, BuildingBlock: GALJAG_clean_sbu_0, # of connection points: 4
#     Node 5, Type 0, BuildingBlock: GALJAG_clean_sbu_0, # of connection points: 4
#     Node 6, Type 0, BuildingBlock: GALJAG_clean_sbu_0, # of connection points: 4
#     Node 7, Type 0, BuildingBlock: GALJAG_clean_sbu_0, # of connection points: 4
#     Node 8, Type 0, BuildingBlock: GALJAG_clean_sbu_0, # of connection points: 4
#     Node 9, Type 0, BuildingBlock: GALJAG_clean_sbu_0, # of connection points: 4
#     Node 10, Type 0, BuildingBlock: GALJAG_clean_sbu_0, # of connection points: 4
#     Node 11, Type 0, BuildingBlock: GALJAG_clean_sbu_0, # of connection points: 4
#     Node 12, Type 0, BuildingBlock: GALJAG_clean_sbu_0, # of connection points: 4
#     Node 13, Type 0, BuildingBlock: GALJAG_clean_sbu_0, # of connection points: 4
#     Node 14, Type 0, BuildingBlock: GALJAG_clean_sbu_0, # of connection points: 4
#     Node 15, Type 0, BuildingBlock: GALJAG_clean_sbu_0, # of connection points: 4
#     Node 16, Type 0, BuildingBlock: GALJAG_clean_sbu_0, # of connection points: 4
#     Node 17, Type 0, BuildingBlock: GALJAG_clean_sbu_0, # of connection points: 4
#     Node 18, Type 0, BuildingBlock: GALJAG_clean_sbu_0, # of connection points: 4
#     Node 19, Type 0, BuildingBlock: GALJAG_clean_sbu_0, # of connection points: 4
#     Node 20, Type 0, BuildingBlock: GALJAG_clean_sbu_0, # of connection points: 4
#     Node 21, Type 0, BuildingBlock: GALJAG_clean_sbu_0, # of connection points: 4
#     Node 22, Type 0, BuildingBlock: GALJAG_clean_sbu_0, # of connection points: 4
#     Node 23, Type 0, BuildingBlock: GALJAG_clean_sbu_0, # of connection points: 4
#     Node 24, Type 0, BuildingBlock: GALJAG_clean_sbu_0, # of connection points: 4
#     Node 25, Type 0, BuildingBlock: GALJAG_clean_sbu_0, # of connection points: 4
#     Node 26, Type 0, BuildingBlock: GALJAG_clean_sbu_0, # of connection points: 4
#     Node 27, Type 0, BuildingBlock: GALJAG_clean_sbu_0, # of connection points: 4
#     Node 28, Type 0, BuildingBlock: GALJAG_clean_sbu_0, # of connection points: 4
#     Node 29, Type 0, BuildingBlock: GALJAG_clean_sbu_0, # of connection points: 4
#     Node 30, Type 0, BuildingBlock: GALJAG_clean_sbu_0, # of connection points: 4
#     Node 31, Type 0, BuildingBlock: GALJAG_clean_sbu_0, # of connection points: 4
#     Edge 32, Type (0, 0), BuildingBlock: XIVTED_clean_linker_0, # of connection points: 2
#     Edge 33, Type (0, 0), BuildingBlock: XIVTED_clean_linker_0, # of connection points: 2
#     Edge 34, Type (0, 0), BuildingBlock: XIVTED_clean_linker_0, # of connection points: 2
#     Edge 35, Type (0, 0), BuildingBlock: XIVTED_clean_linker_0, # of connection points: 2
#     Edge 36, Type (0, 0), BuildingBlock: XIVTED_clean_linker_0, # of connection points: 2
#     Edge 37, Type (0, 0), BuildingBlock: XIVTED_clean_linker_0, # of connection points: 2
#     Edge 38, Type (0, 0), BuildingBlock: XIVTED_clean_linker_0, # of connection points: 2
#     Edge 39, Type (0, 0), BuildingBlock: XIVTED_clean_linker_0, # of connection points: 2
#     Edge 40, Type (0, 0), BuildingBlock: XIVTED_clean_linker_0, # of connection points: 2
#     Edge 41, Type (0, 0), BuildingBlock: XIVTED_clean_linker_0, # of connection points: 2
#     Edge 42, Type (0, 0), BuildingBlock: XIVTED_clean_linker_0, # of connection points: 2
#     Edge 43, Type (0, 0), BuildingBlock: XIVTED_clean_linker_0, # of connection points: 2
#     Edge 44, Type (0, 0), BuildingBlock: XIVTED_clean_linker_0, # of connection points: 2
#     Edge 45, Type (0, 0), BuildingBlock: XIVTED_clean_linker_0, # of connection points: 2
#     Edge 46, Type (0, 0), BuildingBlock: XIVTED_clean_linker_0, # of connection points: 2
#     Edge 47, Type (0, 0), BuildingBlock: XIVTED_clean_linker_0, # of connection points: 2
#     Edge 48, Type (0, 0), BuildingBlock: XIVTED_clean_linker_0, # of connection points: 2
#     Edge 49, Type (0, 0), BuildingBlock: XIVTED_clean_linker_0, # of connection points: 2
#     Edge 50, Type (0, 0), BuildingBlock: XIVTED_clean_linker_0, # of connection points: 2
#     Edge 51, Type (0, 0), BuildingBlock: XIVTED_clean_linker_0, # of connection points: 2
#     Edge 52, Type (0, 0), BuildingBlock: XIVTED_clean_linker_0, # of connection points: 2
#     Edge 53, Type (0, 0), BuildingBlock: XIVTED_clean_linker_0, # of connection points: 2
#     Edge 54, Type (0, 0), BuildingBlock: XIVTED_clean_linker_0, # of connection points: 2
#     Edge 55, Type (0, 0), BuildingBlock: XIVTED_clean_linker_0, # of connection points: 2
#     Edge 56, Type (0, 0), BuildingBlock: XIVTED_clean_linker_0, # of connection points: 2
#     Edge 57, Type (0, 0), BuildingBlock: XIVTED_clean_linker_0, # of connection points: 2
#     Edge 58, Type (0, 0), BuildingBlock: XIVTED_clean_linker_0, # of connection points: 2
#     Edge 59, Type (0, 0), BuildingBlock: XIVTED_clean_linker_0, # of connection points: 2
#     Edge 60, Type (0, 0), BuildingBlock: XIVTED_clean_linker_0, # of connection points: 2
#     Edge 61, Type (0, 0), BuildingBlock: XIVTED_clean_linker_0, # of connection points: 2
#     Edge 62, Type (0, 0), BuildingBlock: XIVTED_clean_linker_0, # of connection points: 2
#     Edge 63, Type (0, 0), BuildingBlock: XIVTED_clean_linker_0, # of connection points: 2
#     Edge 64, Type (0, 0), BuildingBlock: XIVTED_clean_linker_0, # of connection points: 2
#     Edge 65, Type (0, 0), BuildingBlock: XIVTED_clean_linker_0, # of connection points: 2
#     Edge 66, Type (0, 0), BuildingBlock: XIVTED_clean_linker_0, # of connection points: 2
#     Edge 67, Type (0, 0), BuildingBlock: XIVTED_clean_linker_0, # of connection points: 2
#     Edge 68, Type (0, 0), BuildingBlock: XIVTED_clean_linker_0, # of connection points: 2
#     Edge 69, Type (0, 0), BuildingBlock: XIVTED_clean_linker_0, # of connection points: 2
#     Edge 70, Type (0, 0), BuildingBlock: XIVTED_clean_linker_0, # of connection points: 2
#     Edge 71, Type (0, 0), BuildingBlock: XIVTED_clean_linker_0, # of connection points: 2
#     Edge 72, Type (0, 0), BuildingBlock: XIVTED_clean_linker_0, # of connection points: 2
#     Edge 73, Type (0, 0), BuildingBlock: XIVTED_clean_linker_0, # of connection points: 2
#     Edge 74, Type (0, 0), BuildingBlock: XIVTED_clean_linker_0, # of connection points: 2
#     Edge 75, Type (0, 0), BuildingBlock: XIVTED_clean_linker_0, # of connection points: 2
#     Edge 76, Type (0, 0), BuildingBlock: XIVTED_clean_linker_0, # of connection points: 2
#     Edge 77, Type (0, 0), BuildingBlock: XIVTED_clean_linker_0, # of connection points: 2
#     Edge 78, Type (0, 0), BuildingBlock: XIVTED_clean_linker_0, # of connection points: 2
#     Edge 79, Type (0, 0), BuildingBlock: XIVTED_clean_linker_0, # of connection points: 2
#     Edge 80, Type (0, 0), BuildingBlock: XIVTED_clean_linker_0, # of connection points: 2
#     Edge 81, Type (0, 0), BuildingBlock: XIVTED_clean_linker_0, # of connection points: 2
#     Edge 82, Type (0, 0), BuildingBlock: XIVTED_clean_linker_0, # of connection points: 2
#     Edge 83, Type (0, 0), BuildingBlock: XIVTED_clean_linker_0, # of connection points: 2
#     Edge 84, Type (0, 0), BuildingBlock: XIVTED_clean_linker_0, # of connection points: 2
#     Edge 85, Type (0, 0), BuildingBlock: XIVTED_clean_linker_0, # of connection points: 2
#     Edge 86, Type (0, 0), BuildingBlock: XIVTED_clean_linker_0, # of connection points: 2
#     Edge 87, Type (0, 0), BuildingBlock: XIVTED_clean_linker_0, # of connection points: 2
#     Edge 88, Type (0, 0), BuildingBlock: XIVTED_clean_linker_0, # of connection points: 2
#     Edge 89, Type (0, 0), BuildingBlock: XIVTED_clean_linker_0, # of connection points: 2
#     Edge 90, Type (0, 0), BuildingBlock: XIVTED_clean_linker_0, # of connection points: 2
#     Edge 91, Type (0, 0), BuildingBlock: XIVTED_clean_linker_0, # of connection points: 2
#     Edge 92, Type (0, 0), BuildingBlock: XIVTED_clean_linker_0, # of connection points: 2
#     Edge 93, Type (0, 0), BuildingBlock: XIVTED_clean_linker_0, # of connection points: 2
#     Edge 94, Type (0, 0), BuildingBlock: XIVTED_clean_linker_0, # of connection points: 2
#     Edge 95, Type (0, 0), BuildingBlock: XIVTED_clean_linker_0, # of connection points: 2
# Relax obj value: 0.027
# Max RMSD: 0.060
# Mean RMSD: 0.060
data_MOF--net-umr--node1-GALJAG_clean_sbu_0--edge1-XIVTED_clean_linker_0
_symmetry_space_group_name_H-M    P1
_symmetry_Int_Tables_number       1
_symmetry_cell_setting            triclinic
loop_
_symmetry_equiv_pos_as_xyz
'x, y, z'
_cell_length_a     81.119841
_cell_length_b     80.888051
_cell_length_c     28.277665
_cell_angle_alpha  90.000571
_cell_angle_beta   89.963876
_cell_angle_gamma 89.989972
loop_
_atom_site_label
_atom_site_type_symbol
_atom_site_fract_x
_atom_site_fract_y
_atom_site_fract_z
_atom_type_partial_charge
In0 In 0.15083 0.29091 0.02585 0.0
O1 O 0.13883 0.27088 0.07269 0.0
O2 O 0.153 0.28978 0.10537 0.0
C3 C 0.14245 0.27973 0.93936 0.0
C4 C 0.13377 0.31875 0.04189 0.0
C5 C 0.18383 0.28969 0.0166 0.0
O6 O 0.14175 0.27071 0.97581 0.0
O7 O 0.14686 0.29445 0.94689 0.0
O8 O 0.17575 0.30285 0.01099 0.0
O9 O 0.17527 0.27717 0.0267 0.0
C10 C 0.14427 0.27706 0.11068 0.0
O11 O 0.14915 0.31777 0.04777 0.0
O12 O 0.12699 0.30581 0.02615 0.0
In13 In 0.96231 0.90064 0.28133 0.0
O14 O 0.93554 0.89393 0.29509 0.0
O15 O 0.95316 0.87444 0.28984 0.0
C16 C 0.96075 0.93374 0.27498 0.0
C17 C 0.97656 0.89673 0.36634 0.0
C18 C 0.97322 0.89378 0.1937 0.0
O19 O 0.94798 0.92482 0.27325 0.0
O20 O 0.97409 0.92593 0.27994 0.0
O21 O 0.98252 0.89322 0.22951 0.0
O22 O 0.95838 0.89731 0.2024 0.0
C23 C 0.93841 0.8786 0.2978 0.0
O24 O 0.98375 0.89239 0.32863 0.0
O25 O 0.96257 0.90322 0.36068 0.0
In26 In 0.33684 0.7064 0.52821 0.0
O27 O 0.34235 0.67946 0.54455 0.0
O28 O 0.36244 0.6964 0.54095 0.0
C29 C 0.30395 0.70472 0.51838 0.0
C30 C 0.34069 0.72114 0.61275 0.0
C31 C 0.34534 0.7172 0.44153 0.0
O32 O 0.31296 0.69201 0.51675 0.0
O33 O 0.31154 0.71812 0.52488 0.0
O34 O 0.34447 0.72669 0.47689 0.0
O35 O 0.34233 0.7022 0.45017 0.0
C36 C 0.35764 0.68186 0.54957 0.0
O37 O 0.34595 0.72768 0.57503 0.0
O38 O 0.33314 0.70766 0.60724 0.0
In39 In 0.52797 0.09235 0.75662 0.0
O40 O 0.5549 0.09759 0.77249 0.0
O41 O 0.53877 0.11804 0.76155 0.0
C42 C 0.52793 0.05918 0.75822 0.0
C43 C 0.51276 0.09859 0.83935 0.0
C44 C 0.52059 0.09825 0.6653 0.0
O45 O 0.54109 0.06751 0.75786 0.0
O46 O 0.51483 0.0676 0.75772 0.0
O47 O 0.51143 0.10326 0.69859 0.0
O48 O 0.53331 0.09055 0.67835 0.0
C49 C 0.55306 0.1131 0.77221 0.0
O50 O 0.52741 0.09357 0.83597 0.0
O51 O 0.50526 0.10024 0.80034 0.0
In52 In 0.1483 0.70653 0.47453 0.0
O53 O 0.14089 0.72802 0.42613 0.0
O54 O 0.15236 0.70688 0.39555 0.0
C55 C 0.13988 0.71767 0.56086 0.0
C56 C 0.12656 0.6826 0.45495 0.0
C57 C 0.18118 0.70511 0.48473 0.0
O58 O 0.13969 0.72681 0.52464 0.0
O59 O 0.14383 0.70283 0.5532 0.0
O60 O 0.17239 0.69222 0.48403 0.0
O61 O 0.17336 0.71848 0.48035 0.0
C62 C 0.14594 0.72088 0.38904 0.0
O63 O 0.14163 0.6795 0.4621 0.0
O64 O 0.12247 0.69753 0.46034 0.0
In65 In 0.5257 0.90286 0.72801 0.0
O66 O 0.50444 0.89569 0.67853 0.0
O67 O 0.52556 0.90757 0.64942 0.0
C68 C 0.5148 0.89393 0.81418 0.0
C69 C 0.54979 0.88137 0.70778 0.0
C70 C 0.52732 0.93573 0.74066 0.0
O71 O 0.50555 0.89402 0.77824 0.0
O72 O 0.52959 0.89785 0.80622 0.0
O73 O 0.54007 0.92677 0.73971 0.0
O74 O 0.51391 0.92807 0.73533 0.0
C75 C 0.51166 0.90111 0.64201 0.0
O76 O 0.55259 0.89658 0.71408 0.0
O77 O 0.53502 0.87698 0.71403 0.0
In78 In 0.33966 0.27992 0.98668 0.0
O79 O 0.34652 0.30694 0.97572 0.0
O80 O 0.3657 0.28895 0.97477 0.0
C81 C 0.30669 0.28233 0.99374 0.0
C82 C 0.34289 0.26537 0.90156 0.0
C83 C 0.34726 0.26856 0.0735 0.0
O84 O 0.31592 0.29489 0.9934 0.0
O85 O 0.31411 0.26868 0.9907 0.0
O86 O 0.34765 0.25949 0.03719 0.0
O87 O 0.34343 0.28343 0.06578 0.0
C88 C 0.36166 0.30392 0.9698 0.0
O89 O 0.347 0.25809 0.93932 0.0
O90 O 0.33697 0.27964 0.90714 0.0
In91 In 0.96165 0.08981 0.23085 0.0
O92 O 0.9833 0.09755 0.18356 0.0
O93 O 0.96231 0.08637 0.15164 0.0
C94 C 0.97215 0.09854 0.3175 0.0
C95 C 0.93755 0.11131 0.21143 0.0
C96 C 0.95998 0.05685 0.24163 0.0
O97 O 0.98151 0.09862 0.2818 0.0
O98 O 0.95744 0.09439 0.30922 0.0
O99 O 0.94724 0.06581 0.24102 0.0
O100 O 0.9734 0.06454 0.23677 0.0
C101 C 0.97629 0.09288 0.14593 0.0
O102 O 0.93485 0.09599 0.21545 0.0
O103 O 0.9522 0.11575 0.21947 0.0
In104 In 0.83973 0.70327 0.96944 0.0
O105 O 0.84617 0.67624 0.95584 0.0
O106 O 0.86573 0.69352 0.96516 0.0
C107 C 0.80666 0.70269 0.975 0.0
C108 C 0.84451 0.71718 0.88406 0.0
C109 C 0.84641 0.71473 0.05667 0.0
O110 O 0.81516 0.68964 0.97823 0.0
O111 O 0.81486 0.71574 0.96878 0.0
O112 O 0.84761 0.72367 0.02019 0.0
O113 O 0.84224 0.69995 0.04892 0.0
C114 C 0.86154 0.67883 0.95605 0.0
O115 O 0.84855 0.72448 0.92189 0.0
O116 O 0.83795 0.70319 0.8897 0.0
In117 In 0.03158 0.0933 0.72987 0.0
O118 O 0.0318 0.09115 0.65047 0.0
O119 O 0.01003 0.10092 0.68207 0.0
C120 C 0.02041 0.10014 0.81724 0.0
C121 C 0.05507 0.11577 0.71323 0.0
C122 C 0.03343 0.0602 0.7356 0.0
O123 O 0.01128 0.10091 0.78111 0.0
O124 O 0.03523 0.09636 0.80902 0.0
O125 O 0.0461 0.06923 0.73852 0.0
O126 O 0.02007 0.0679 0.72991 0.0
C127 C 0.0176 0.0971 0.64448 0.0
O128 O 0.05823 0.10049 0.71575 0.0
O129 O 0.0403 0.11966 0.72183 0.0
In130 In 0.65461 0.28312 0.46412 0.0
O131 O 0.64567 0.26201 0.41644 0.0
O132 O 0.6575 0.28275 0.38479 0.0
C133 C 0.64709 0.27166 0.55077 0.0
C134 C 0.63303 0.30733 0.44652 0.0
C135 C 0.68754 0.28506 0.47209 0.0
O136 O 0.64755 0.26242 0.51479 0.0
O137 O 0.65003 0.28671 0.54276 0.0
O138 O 0.67843 0.29767 0.47527 0.0
O139 O 0.68002 0.27166 0.46484 0.0
C140 C 0.65034 0.26908 0.37885 0.0
O141 O 0.64835 0.31002 0.4494 0.0
O142 O 0.62866 0.29267 0.45519 0.0
In143 In 0.4553 0.90598 0.22558 0.0
O144 O 0.47672 0.89745 0.17841 0.0
O145 O 0.455 0.90694 0.14592 0.0
C146 C 0.4664 0.8998 0.31342 0.0
C147 C 0.43178 0.88336 0.21144 0.0
C148 C 0.45365 0.93915 0.22807 0.0
O149 O 0.47563 0.89902 0.27746 0.0
O150 O 0.45157 0.90342 0.30488 0.0
O151 O 0.44097 0.93024 0.23322 0.0
O152 O 0.4669 0.93129 0.222 0.0
C153 C 0.46914 0.90076 0.14046 0.0
O154 O 0.42869 0.89869 0.21106 0.0
O155 O 0.44646 0.87959 0.22151 0.0
In156 In 0.84228 0.28236 0.53504 0.0
O157 O 0.84905 0.26108 0.58497 0.0
O158 O 0.83661 0.28209 0.61306 0.0
C159 C 0.85156 0.27123 0.44954 0.0
C160 C 0.86407 0.30594 0.55712 0.0
C161 C 0.8097 0.2841 0.51954 0.0
O162 O 0.85116 0.262 0.48561 0.0
O163 O 0.84782 0.28614 0.45708 0.0
O164 O 0.81859 0.29691 0.52149 0.0
O165 O 0.81727 0.27065 0.52556 0.0
C166 C 0.84317 0.26824 0.621 0.0
O167 O 0.84898 0.30912 0.55053 0.0
O168 O 0.86817 0.29109 0.54995 0.0
In169 In 0.46118 0.0953 0.25677 0.0
O170 O 0.43698 0.09658 0.29782 0.0
O171 O 0.44524 0.11814 0.26171 0.0
C172 C 0.45776 0.06261 0.24398 0.0
C173 C 0.48113 0.10023 0.3324 0.0
C174 C 0.47015 0.10456 0.16863 0.0
O175 O 0.44558 0.07177 0.25371 0.0
O176 O 0.47141 0.07001 0.24062 0.0
O177 O 0.47981 0.10543 0.20353 0.0
O178 O 0.45587 0.09949 0.17847 0.0
C179 C 0.43464 0.11168 0.28865 0.0
O180 O 0.47425 0.11196 0.31082 0.0
O181 O 0.47856 0.0862 0.31469 0.0
In182 In 0.6518 0.71108 0.03338 0.0
O183 O 0.64513 0.73273 0.08216 0.0
O184 O 0.65637 0.71139 0.11214 0.0
C185 C 0.64338 0.7228 0.94772 0.0
C186 C 0.62923 0.68801 0.05367 0.0
C187 C 0.68442 0.7076 0.01981 0.0
O188 O 0.64426 0.73194 0.98386 0.0
O189 O 0.64633 0.70771 0.95514 0.0
O190 O 0.67477 0.69534 0.02031 0.0
O191 O 0.67758 0.72141 0.02633 0.0
C192 C 0.65018 0.72548 0.11902 0.0
O193 O 0.64433 0.68455 0.04904 0.0
O194 O 0.6255 0.70289 0.04563 0.0
In195 In 0.03238 0.90417 0.78015 0.0
O196 O 0.05904 0.89712 0.79513 0.0
O197 O 0.04106 0.87795 0.79082 0.0
C198 C 0.0344 0.93705 0.7683 0.0
C199 C 0.01824 0.90173 0.86588 0.0
C200 C 0.02117 0.89555 0.69421 0.0
O201 O 0.04708 0.92798 0.76887 0.0
O202 O 0.02094 0.92951 0.77375 0.0
O203 O 0.01204 0.89567 0.73043 0.0
O204 O 0.03601 0.89945 0.70162 0.0
C205 C 0.05585 0.88187 0.79887 0.0
O206 O 0.01097 0.89691 0.82883 0.0
O207 O 0.03224 0.90808 0.85918 0.0
In208 In 0.652 0.78158 0.53455 0.0
O209 O 0.64316 0.76036 0.58197 0.0
O210 O 0.65472 0.7812 0.6139 0.0
C211 C 0.64476 0.77088 0.44699 0.0
C212 C 0.63045 0.80593 0.55131 0.0
C213 C 0.68501 0.78203 0.52708 0.0
O214 O 0.64397 0.76157 0.48281 0.0
O215 O 0.64873 0.78566 0.45564 0.0
O216 O 0.67657 0.79515 0.52543 0.0
O217 O 0.67678 0.76896 0.53271 0.0
C218 C 0.64778 0.7674 0.61964 0.0
O219 O 0.64581 0.80852 0.54965 0.0
O220 O 0.62607 0.7913 0.54214 0.0
In221 In 0.46363 0.39599 0.76259 0.0
O222 O 0.47719 0.37998 0.81722 0.0
O223 O 0.48106 0.40583 0.81928 0.0
C224 C 0.47247 0.38677 0.67451 0.0
C225 C 0.43766 0.37878 0.79451 0.0
C226 C 0.45947 0.42854 0.74904 0.0
O227 O 0.48225 0.38606 0.70918 0.0
O228 O 0.45813 0.39163 0.68462 0.0
O229 O 0.44761 0.41927 0.7609 0.0
O230 O 0.47314 0.42131 0.74395 0.0
C231 C 0.48394 0.39199 0.83779 0.0
O232 O 0.4395 0.39394 0.80378 0.0
O233 O 0.44844 0.37268 0.76749 0.0
In234 In 0.83756 0.21289 0.03788 0.0
O235 O 0.84708 0.23411 0.0842 0.0
O236 O 0.83547 0.21355 0.11743 0.0
C237 C 0.84478 0.22383 0.95046 0.0
C238 C 0.85875 0.18824 0.05435 0.0
C239 C 0.80455 0.2115 0.03147 0.0
O240 O 0.84465 0.23325 0.98609 0.0
O241 O 0.84164 0.20887 0.9592 0.0
O242 O 0.81344 0.19874 0.02816 0.0
O243 O 0.81233 0.22478 0.03818 0.0
C244 C 0.84272 0.22722 0.12236 0.0
O245 O 0.84335 0.18592 0.05303 0.0
O246 O 0.86337 0.20278 0.04501 0.0
In247 In 0.02365 0.59446 0.24166 0.0
O248 O 0.01492 0.61308 0.29696 0.0
O249 O 6e-05 0.59195 0.2862 0.0
C250 C 0.01932 0.59981 0.14791 0.0
C251 C 0.05086 0.60985 0.27256 0.0
C252 C 0.02501 0.56144 0.25096 0.0
O253 O 0.00975 0.6059 0.17852 0.0
O254 O 0.03088 0.59129 0.16465 0.0
O255 O 0.03781 0.57033 0.25105 0.0
O256 O 0.01163 0.56923 0.24626 0.0
C257 C 0.00254 0.6049 0.30993 0.0
O258 O 0.04708 0.59543 0.2859 0.0
O259 O 0.04124 0.61613 0.24234 0.0
In260 In 0.64999 0.21349 0.9662 0.0
O261 O 0.64351 0.18679 0.94942 0.0
O262 O 0.62415 0.20461 0.95097 0.0
C263 C 0.68255 0.21134 0.9817 0.0
C264 C 0.64882 0.22816 0.881 0.0
C265 C 0.64084 0.22436 0.05213 0.0
O266 O 0.67349 0.19866 0.97973 0.0
O267 O 0.67516 0.22489 0.97558 0.0
O268 O 0.64162 0.23378 0.01656 0.0
O269 O 0.6441 0.20938 0.04386 0.0
C270 C 0.6284 0.18986 0.94306 0.0
O271 O 0.64279 0.23496 0.91741 0.0
O272 O 0.65569 0.21441 0.88819 0.0
In273 In 0.02761 0.40484 0.23956 0.0
O274 O 0.01715 0.38574 0.18786 0.0
O275 O 0.00615 0.40956 0.18951 0.0
C276 C 0.0213 0.39357 0.32791 0.0
C277 C 0.05541 0.39403 0.19831 0.0
C278 C 0.02824 0.43793 0.25036 0.0
O279 O 0.01156 0.39121 0.29378 0.0
O280 O 0.03437 0.40106 0.31705 0.0
O281 O 0.04113 0.42958 0.24328 0.0
O282 O 0.01513 0.4296 0.25214 0.0
C283 C 0.00678 0.39555 0.17 0.0
O284 O 0.04637 0.40501 0.18017 0.0
O285 O 0.05074 0.38881 0.23825 0.0
In286 In 0.84004 0.77432 0.47068 0.0
O287 O 0.84722 0.75267 0.42248 0.0
O288 O 0.83586 0.77379 0.39163 0.0
C289 C 0.84845 0.76252 0.55647 0.0
C290 C 0.86193 0.79815 0.45107 0.0
C291 C 0.80732 0.77746 0.48303 0.0
O292 O 0.84778 0.75346 0.52015 0.0
O293 O 0.84532 0.77758 0.5492 0.0
O294 O 0.81687 0.78978 0.48329 0.0
O295 O 0.81429 0.76372 0.47644 0.0
C296 C 0.84221 0.75974 0.3853 0.0
O297 O 0.84674 0.80111 0.45613 0.0
O298 O 0.86611 0.78333 0.45818 0.0
In299 In 0.45769 0.58527 0.7386 0.0
O300 O 0.45738 0.58662 0.65893 0.0
O301 O 0.47952 0.59407 0.69326 0.0
C302 C 0.46833 0.59224 0.82656 0.0
C303 C 0.43252 0.60605 0.72445 0.0
C304 C 0.45699 0.55202 0.73839 0.0
O305 O 0.47734 0.59403 0.79047 0.0
O306 O 0.45396 0.58708 0.81816 0.0
O307 O 0.44426 0.56057 0.74603 0.0
O308 O 0.46996 0.56024 0.73139 0.0
C309 C 0.4718 0.59224 0.65477 0.0
O310 O 0.43073 0.59054 0.72316 0.0
O311 O 0.44679 0.61095 0.73548 0.0
In312 In 0.33747 0.20946 0.48643 0.0
O313 O 0.34621 0.23076 0.43918 0.0
O314 O 0.33518 0.20971 0.40685 0.0
C315 C 0.34536 0.22012 0.57365 0.0
C316 C 0.35848 0.18459 0.46956 0.0
C317 C 0.3044 0.21002 0.4924 0.0
O318 O 0.34684 0.22911 0.53736 0.0
O319 O 0.34028 0.20564 0.56573 0.0
O320 O 0.31242 0.19662 0.4935 0.0
O321 O 0.31308 0.22287 0.4885 0.0
C322 C 0.3419 0.22364 0.40134 0.0
O323 O 0.34313 0.18219 0.47331 0.0
O324 O 0.36311 0.19926 0.47695 0.0
In325 In 0.52638 0.59202 0.24135 0.0
O326 O 0.50443 0.59886 0.19385 0.0
O327 O 0.52612 0.58894 0.16224 0.0
C328 C 0.51675 0.60076 0.32891 0.0
C329 C 0.55072 0.61316 0.22087 0.0
C330 C 0.5273 0.55899 0.2507 0.0
O331 O 0.50733 0.60197 0.29348 0.0
O332 O 0.53107 0.59559 0.3198 0.0
O333 O 0.54024 0.56767 0.24968 0.0
O334 O 0.51402 0.56701 0.24726 0.0
C335 C 0.51181 0.59463 0.15632 0.0
O336 O 0.55327 0.59788 0.22657 0.0
O337 O 0.53606 0.61782 0.22797 0.0
In338 In 0.152 0.77651 0.97309 0.0
O339 O 0.14274 0.75532 0.92621 0.0
O340 O 0.15452 0.77588 0.89356 0.0
C341 C 0.1442 0.76526 0.05988 0.0
C342 C 0.13135 0.80162 0.95609 0.0
C343 C 0.18502 0.77771 0.98027 0.0
O344 O 0.14408 0.75609 0.02374 0.0
O345 O 0.14787 0.78015 0.05202 0.0
O346 O 0.17617 0.79052 0.98284 0.0
O347 O 0.17719 0.76443 0.97414 0.0
C348 C 0.14733 0.76219 0.88827 0.0
O349 O 0.14675 0.80366 0.95915 0.0
O350 O 0.12639 0.78709 0.96399 0.0
In351 In 0.96544 0.40311 0.74151 0.0
O352 O 0.98816 0.39558 0.697 0.0
O353 O 0.96546 0.40081 0.6623 0.0
C354 C 0.97268 0.39672 0.83287 0.0
C355 C 0.94026 0.38245 0.72598 0.0
C356 C 0.96527 0.43634 0.73871 0.0
O357 O 0.9821 0.39225 0.79956 0.0
O358 O 0.95987 0.40427 0.81983 0.0
O359 O 0.95219 0.42791 0.74062 0.0
O360 O 0.97843 0.428 0.7386 0.0
C361 C 0.98028 0.39638 0.65839 0.0
O362 O 0.93847 0.39798 0.72578 0.0
O363 O 0.95455 0.37745 0.7365 0.0
In364 In 0.34053 0.77568 0.02679 0.0
O365 O 0.34549 0.80291 0.03996 0.0
O366 O 0.36581 0.78621 0.04207 0.0
C367 C 0.30773 0.77662 0.01418 0.0
C368 C 0.34303 0.76166 0.1127 0.0
C369 C 0.34966 0.76455 0.94098 0.0
O370 O 0.31643 0.78957 0.0146 0.0
O371 O 0.3156 0.76334 0.02007 0.0
O372 O 0.34919 0.75531 0.97696 0.0
O373 O 0.34611 0.77948 0.94876 0.0
C374 C 0.36069 0.80083 0.04758 0.0
O375 O 0.34912 0.7549 0.07633 0.0
O376 O 0.33549 0.77502 0.10516 0.0
In377 In 0.96615 0.59305 0.73807 0.0
O378 O 0.94204 0.59299 0.78021 0.0
O379 O 0.95082 0.6158 0.75247 0.0
C380 C 0.96453 0.56007 0.73059 0.0
C381 C 0.98749 0.59936 0.80964 0.0
C382 C 0.97068 0.60206 0.64686 0.0
O383 O 0.95202 0.56876 0.74039 0.0
O384 O 0.97773 0.56808 0.72416 0.0
O385 O 0.98172 0.60391 0.67786 0.0
O386 O 0.95744 0.59591 0.66202 0.0
C387 C 0.94012 0.60844 0.77701 0.0
O388 O 0.98013 0.61066 0.78751 0.0
O389 O 0.9849 0.58505 0.79386 0.0
In390 In 0.14865 0.22075 0.52467 0.0
O391 O 0.14103 0.24232 0.57287 0.0
O392 O 0.15278 0.22144 0.60376 0.0
C393 C 0.14008 0.23246 0.4387 0.0
C394 C 0.12725 0.1966 0.54551 0.0
C395 C 0.18145 0.2174 0.51375 0.0
O396 O 0.14119 0.2416 0.47473 0.0
O397 O 0.1429 0.21735 0.44629 0.0
O398 O 0.17176 0.20521 0.51252 0.0
O399 O 0.17456 0.2312 0.52013 0.0
C400 C 0.14614 0.23535 0.61011 0.0
O401 O 0.1424 0.19386 0.53894 0.0
O402 O 0.12279 0.21138 0.53895 0.0
In403 In 0.52932 0.40224 0.26256 0.0
O404 O 0.50678 0.39411 0.30647 0.0
O405 O 0.5287 0.4016 0.34192 0.0
C406 C 0.52181 0.39559 0.17185 0.0
C407 C 0.5545 0.38169 0.2792 0.0
C408 C 0.52937 0.43541 0.26237 0.0
O409 O 0.5126 0.39106 0.20557 0.0
O410 O 0.53464 0.40324 0.18417 0.0
O411 O 0.54249 0.42701 0.26227 0.0
O412 O 0.51623 0.42705 0.26248 0.0
C413 C 0.51421 0.39616 0.34542 0.0
O414 O 0.55627 0.3972 0.27886 0.0
O415 O 0.54025 0.37663 0.2686 0.0
H416 H 0.28481 0.25689 0.99954 0.0
H417 H 0.20518 0.31525 0.00067 0.0
H418 H 0.28749 0.31016 0.99521 0.0
H419 H 0.20353 0.26248 0.02276 0.0
H420 H 0.23524 0.31368 0.99474 0.0
H421 H 0.25485 0.25872 0.00441 0.0
C422 C 0.27907 0.26898 0.99965 0.0
C423 C 0.28861 0.2834 0.99703 0.0
C424 C 0.2283 0.30245 0.0009 0.0
C425 C 0.25433 0.2856 0.00247 0.0
C426 C 0.21116 0.30333 0.00419 0.0
C427 C 0.2019 0.28897 0.01226 0.0
C428 C 0.23618 0.28707 0.00551 0.0
C429 C 0.21022 0.27385 0.01658 0.0
C430 C 0.26197 0.27002 0.00246 0.0
C431 C 0.28056 0.29875 0.99726 0.0
N432 N 0.2269 0.2733 0.01312 0.0
N433 N 0.26385 0.29945 -0.00013 0.0
H434 H 0.98688 0.95473 0.27615 0.0
H435 H 0.93277 0.03689 0.24868 0.0
H436 H 0.93381 0.95399 0.26522 0.0
H437 H 0.98596 0.03574 0.24781 0.0
H438 H 0.9325 0.00674 0.25777 0.0
H439 H 0.98641 0.98469 0.26903 0.0
C440 C 0.9751 0.9609 0.27228 0.0
C441 C 0.96036 0.95188 0.27118 0.0
C442 C 0.94421 0.01312 0.25558 0.0
C443 C 0.95971 0.98626 0.26296 0.0
C444 C 0.94437 0.03029 0.25045 0.0
C445 C 0.95941 0.03878 0.24744 0.0
C446 C 0.9592 0.00446 0.25785 0.0
C447 C 0.97409 0.02968 0.24991 0.0
C448 C 0.97484 0.97802 0.26817 0.0
C449 C 0.94546 0.96051 0.26616 0.0
N450 N 0.97361 0.01303 0.25498 0.0
N451 N 0.94551 0.97727 0.2622 0.0
H452 H 0.20181 0.73147 0.49035 0.0
H453 H 0.28423 0.67745 0.50743 0.0
H454 H 0.20157 0.67811 0.49093 0.0
H455 H 0.28264 0.73066 0.51785 0.0
H456 H 0.25414 0.6771 0.49936 0.0
H457 H 0.23166 0.73111 0.49846 0.0
C458 C 0.20807 0.71965 0.49222 0.0
C459 C 0.19923 0.70479 0.48999 0.0
C460 C 0.2604 0.68883 0.50345 0.0
C461 C 0.23348 0.70427 0.49924 0.0
C462 C 0.27755 0.68904 0.50799 0.0
C463 C 0.2859 0.70411 0.5133 0.0
C464 C 0.25163 0.70381 0.5041 0.0
C465 C 0.27669 0.71876 0.51384 0.0
C466 C 0.22513 0.71945 0.49688 0.0
C467 C 0.20796 0.68984 0.49258 0.0
N468 N 0.26007 0.71824 0.50926 0.0
N469 N 0.22465 0.68995 0.49702 0.0
H470 H 0.5012 0.03878 0.75924 0.0
H471 H 0.55454 0.95555 0.74891 0.0
H472 H 0.5544 0.03823 0.75792 0.0
H473 H 0.50137 0.95698 0.74554 0.0
H474 H 0.55494 0.98574 0.7559 0.0
H475 H 0.50116 0.00864 0.75785 0.0
C476 C 0.51288 0.03229 0.75874 0.0
C477 C 0.52783 0.04098 0.75852 0.0
C478 C 0.54319 0.97943 0.75375 0.0
C479 C 0.5279 0.00648 0.75688 0.0
C480 C 0.54296 0.96222 0.74981 0.0
C481 C 0.5279 0.95381 0.74648 0.0
C482 C 0.52824 0.98821 0.75439 0.0
C483 C 0.51326 0.963 0.74786 0.0
C484 C 0.51286 0.01508 0.75795 0.0
C485 C 0.54261 0.03197 0.758 0.0
N486 N 0.5138 0.9797 0.7516 0.0
N487 N 0.54228 0.01518 0.75708 0.0
H488 H 0.70283 0.67931 0.01042 0.0
H489 H 0.78667 0.72956 0.97094 0.0
H490 H 0.70665 0.73253 0.0113 0.0
H491 H 0.78552 0.67657 0.98877 0.0
H492 H 0.75689 0.73038 0.98028 0.0
H493 H 0.73272 0.67754 0.9977 0.0
C494 C 0.70996 0.6906 0.0079 0.0
C495 C 0.7023 0.70609 0.01198 0.0
C496 C 0.7631 0.71854 0.98216 0.0
C497 C 0.7363 0.70418 0.99734 0.0
C498 C 0.78012 0.71806 0.97673 0.0
C499 C 0.78856 0.70297 0.97924 0.0
C500 C 0.75437 0.70382 0.99012 0.0
C501 C 0.77944 0.68847 0.98671 0.0
C502 C 0.72698 0.68959 0.00069 0.0
C503 C 0.71206 0.72033 0.00846 0.0
N504 N 0.76279 0.68924 0.99196 0.0
N505 N 0.72852 0.71902 0.00131 0.0
H506 H 0.0617 0.95699 0.76169 0.0
H507 H 0.00753 0.03901 0.73122 0.0
H508 H 0.00851 0.95815 0.76047 0.0
H509 H 0.06044 0.0401 0.74712 0.0
H510 H 0.00814 0.00904 0.73752 0.0
H511 H 0.062 0.98716 0.75225 0.0
C512 C 0.05012 0.96359 0.75935 0.0
C513 C 0.03506 0.95511 0.76196 0.0
C514 C 0.01965 0.01578 0.73966 0.0
C515 C 0.0353 0.98942 0.75114 0.0
C516 C 0.0193 0.03291 0.73602 0.0
C517 C 0.03396 0.04203 0.73881 0.0
C518 C 0.03476 0.00763 0.74611 0.0
C519 C 0.04886 0.03349 0.74492 0.0
C520 C 0.05029 0.98077 0.75404 0.0
C521 C 0.0204 0.9642 0.75876 0.0
N522 N 0.04889 0.01671 0.74842 0.0
N523 N 0.02089 0.98084 0.75351 0.0
H524 H 0.7071 0.31223 0.48693 0.0
H525 H 0.78916 0.25792 0.50785 0.0
H526 H 0.70899 0.25928 0.46885 0.0
H527 H 0.78958 0.31127 0.51173 0.0
H528 H 0.75955 0.2585 0.49467 0.0
H529 H 0.73714 0.31251 0.49703 0.0
C530 C 0.71385 0.30069 0.48499 0.0
C531 C 0.70559 0.2857 0.47717 0.0
C532 C 0.76607 0.27011 0.49828 0.0
C533 C 0.73976 0.28592 0.48875 0.0
C534 C 0.783 0.26979 0.5059 0.0
C535 C 0.79181 0.28458 0.51096 0.0
C536 C 0.75782 0.28535 0.49591 0.0
C537 C 0.7832 0.29959 0.508 0.0
C538 C 0.73095 0.30086 0.49071 0.0
C539 C 0.71486 0.27111 0.4749 0.0
N540 N 0.76663 0.2996 0.50079 0.0
N541 N 0.73143 0.27159 0.48079 0.0
H542 H 0.42715 0.95964 0.24373 0.0
H543 H 0.48223 0.04134 0.21973 0.0
H544 H 0.47934 0.96005 0.21391 0.0
H545 H 0.43053 0.04282 0.25569 0.0
H546 H 0.48067 0.01142 0.21383 0.0
H547 H 0.42741 0.99 0.24526 0.0
C548 C 0.43863 0.96612 0.23745 0.0
C549 C 0.45326 0.95736 0.22882 0.0
C550 C 0.46961 0.01822 0.22292 0.0
C551 C 0.45364 0.99189 0.23037 0.0
C552 C 0.4705 0.03534 0.22626 0.0
C553 C 0.45649 0.04455 0.23839 0.0
C554 C 0.45461 0.01016 0.2319 0.0
C555 C 0.44162 0.03613 0.2463 0.0
C556 C 0.43877 0.98341 0.23832 0.0
C557 C 0.46779 0.9663 0.22084 0.0
N558 N 0.44106 0.01935 0.24309 0.0
N559 N 0.4676 0.98304 0.22186 0.0
H560 H 0.70487 0.75502 0.52695 0.0
H561 H 0.78881 0.80561 0.49361 0.0
H562 H 0.70621 0.80822 0.51566 0.0
H563 H 0.78508 0.75241 0.4886 0.0
H564 H 0.75889 0.80724 0.50539 0.0
H565 H 0.73463 0.75422 0.51707 0.0
C566 C 0.71146 0.76656 0.52246 0.0
C567 C 0.70308 0.78171 0.52203 0.0
C568 C 0.76465 0.79523 0.50167 0.0
C569 C 0.73724 0.7809 0.5106 0.0
C570 C 0.78169 0.7943 0.495 0.0
C571 C 0.78938 0.77885 0.4901 0.0
C572 C 0.75533 0.78061 0.50364 0.0
C573 C 0.77964 0.76457 0.49215 0.0
C574 C 0.72847 0.7661 0.51673 0.0
C575 C 0.71224 0.79628 0.51612 0.0
N576 N 0.76314 0.7658 0.49882 0.0
N577 N 0.72888 0.79552 0.5106 0.0
H578 H 0.43228 0.44805 0.76474 0.0
H579 H 0.48253 0.53157 0.7171 0.0
H580 H 0.48322 0.45003 0.72083 0.0
H581 H 0.43116 0.53112 0.75689 0.0
H582 H 0.48245 0.50148 0.71609 0.0
H583 H 0.43096 0.47831 0.75947 0.0
C584 C 0.44313 0.45485 0.75372 0.0
C585 C 0.4579 0.44657 0.74345 0.0
C586 C 0.47116 0.50791 0.72498 0.0
C587 C 0.45651 0.48101 0.73754 0.0
C588 C 0.47122 0.52511 0.72565 0.0
C589 C 0.45685 0.53381 0.73731 0.0
C590 C 0.45664 0.49931 0.73627 0.0
C591 C 0.44251 0.52483 0.74784 0.0
C592 C 0.44238 0.47208 0.75079 0.0
C593 C 0.4716 0.45592 0.72932 0.0
N594 N 0.44278 0.50802 0.74724 0.0
N595 N 0.47058 0.47262 0.72697 0.0
H596 H 0.70217 0.18388 0.99064 0.0
H597 H 0.7835 0.23759 0.0358 0.0
H598 H 0.70349 0.23722 0.99324 0.0
H599 H 0.78456 0.18466 0.01656 0.0
H600 H 0.75371 0.23721 0.02565 0.0
H601 H 0.73199 0.18342 0.00499 0.0
C602 C 0.70873 0.19547 0.99429 0.0
C603 C 0.70041 0.21061 0.99065 0.0
C604 C 0.76042 0.22565 0.02366 0.0
C605 C 0.73433 0.21018 0.00713 0.0
C606 C 0.77743 0.22586 0.02954 0.0
C607 C 0.78648 0.21114 0.02683 0.0
C608 C 0.75235 0.21059 0.01504 0.0
C609 C 0.778 0.1963 0.01876 0.0
C610 C 0.72572 0.1952 0.00242 0.0
C611 C 0.70944 0.22527 0.99566 0.0
N612 N 0.76136 0.19639 0.01305 0.0
N613 N 0.7259 0.22468 0.00365 0.0
H614 H 0.0548 0.45877 0.24785 0.0
H615 H -0.00097 0.54024 0.25727 0.0
H616 H 0.00184 0.45832 0.26258 0.0
H617 H 0.05221 0.54142 0.25381 0.0
H618 H -1e-05 0.51013 0.26094 0.0
H619 H 0.05434 0.489 0.25171 0.0
C620 C 0.04309 0.46504 0.25211 0.0
C621 C 0.02833 0.45607 0.25471 0.0
C622 C 0.01147 0.51695 0.25956 0.0
C623 C 0.02769 0.49056 0.25898 0.0
C624 C 0.01092 0.53414 0.25741 0.0
C625 C 0.02556 0.5433 0.25502 0.0
C626 C 0.02678 0.50884 0.25906 0.0
C627 C 0.04063 0.53479 0.25552 0.0
C628 C 0.04284 0.48228 0.25432 0.0
C629 C 0.01351 0.46477 0.26029 0.0
N630 N 0.04086 0.518 0.25724 0.0
N631 N 0.01356 0.48153 0.26203 0.0
H632 H 0.28536 0.23764 0.49338 0.0
H633 H 0.19957 0.18897 0.50493 0.0
H634 H 0.28226 0.18438 0.49745 0.0
H635 H 0.20426 0.24206 0.51224 0.0
H636 H 0.22965 0.18673 0.49916 0.0
H637 H 0.25545 0.23921 0.49745 0.0
C638 C 0.27836 0.22625 0.49515 0.0
C639 C 0.28628 0.21085 0.49514 0.0
C640 C 0.22407 0.19885 0.50199 0.0
C641 C 0.25194 0.21255 0.49975 0.0
C642 C 0.20693 0.20014 0.50519 0.0
C643 C 0.19946 0.21572 0.5091 0.0
C644 C 0.23373 0.21327 0.50258 0.0
C645 C 0.20953 0.2298 0.50933 0.0
C646 C 0.26126 0.22715 0.49749 0.0
C647 C 0.2766 0.1965 0.49746 0.0
N648 N 0.22613 0.22823 0.50613 0.0
N649 N 0.25989 0.1977 0.49965 0.0
H650 H 0.556 0.45608 0.26211 0.0
H651 H 0.50097 0.53814 0.25442 0.0
H652 H 0.5028 0.45609 0.26218 0.0
H653 H 0.55417 0.53861 0.25557 0.0
H654 H 0.50148 0.50804 0.25872 0.0
H655 H 0.5557 0.48631 0.26098 0.0
C656 C 0.54426 0.46246 0.26193 0.0
C657 C 0.5294 0.45361 0.26216 0.0
C658 C 0.51306 0.5147 0.25814 0.0
C659 C 0.52895 0.48811 0.26087 0.0
C660 C 0.51277 0.53189 0.2557 0.0
C661 C 0.52756 0.54085 0.25457 0.0
C662 C 0.52825 0.50639 0.25938 0.0
C663 C 0.54249 0.53214 0.25634 0.0
C664 C 0.5441 0.4797 0.26131 0.0
C665 C 0.51454 0.46245 0.26196 0.0
N666 N 0.54247 0.51536 0.25856 0.0
N667 N 0.51469 0.47923 0.26127 0.0
H668 H 0.2871 0.75021 0.00778 0.0
H669 H 0.20502 0.80474 0.99062 0.0
H670 H 0.28747 0.80357 0.00631 0.0
H671 H 0.20609 0.75155 0.979 0.0
H672 H 0.23512 0.80481 0.9978 0.0
H673 H 0.25724 0.75065 0.99857 0.0
C674 C 0.28087 0.76204 0.00546 0.0
C675 C 0.28973 0.77688 0.00785 0.0
C676 C 0.22875 0.79314 0.99359 0.0
C677 C 0.25554 0.7775 0.9974 0.0
C678 C 0.2116 0.79309 0.98955 0.0
C679 C 0.2031 0.77811 0.98428 0.0
C680 C 0.23739 0.77808 0.99249 0.0
C681 C 0.21218 0.76337 0.98305 0.0
C682 C 0.26382 0.76229 0.00016 0.0
C683 C 0.28107 0.79185 0.0046 0.0
N684 N 0.22882 0.76373 0.98722 0.0
N685 N 0.2644 0.79178 0.99965 0.0
H686 H 0.99169 0.45696 0.72926 0.0
H687 H 0.93784 0.53978 0.74252 0.0
H688 H 0.93868 0.45708 0.74254 0.0
H689 H 0.99019 0.53897 0.71527 0.0
H690 H 0.93777 0.50951 0.74317 0.0
H691 H 0.99134 0.48711 0.72511 0.0
C692 C 0.97997 0.46335 0.73134 0.0
C693 C 0.96519 0.45454 0.73633 0.0
C694 C 0.94926 0.51596 0.73686 0.0
C695 C 0.96468 0.48903 0.7316 0.0
C696 C 0.9493 0.53322 0.73646 0.0
C697 C 0.96405 0.54186 0.72891 0.0
C698 C 0.96409 0.50733 0.72987 0.0
C699 C 0.97854 0.53279 0.72126 0.0
C700 C 0.97977 0.48056 0.72886 0.0
C701 C 0.95036 0.46342 0.73872 0.0
N702 N 0.97821 0.51602 0.72211 0.0
N703 N 0.95048 0.4802 0.73644 0.0
H704 H 0.13855 0.24753 0.91244 0.0
H705 H 0.13696 0.26691 0.6347 0.0
H706 H 0.14093 0.29712 0.85652 0.0
H707 H 0.15033 0.21965 0.69418 0.0
H708 H 0.13379 0.27795 0.7152 0.0
H709 H 0.13774 0.23679 0.83163 0.0
C710 C 0.13869 0.25617 0.88315 0.0
C711 C 0.13992 0.27322 0.89112 0.0
C712 C 0.13739 0.26516 0.71047 0.0
C713 C 0.13909 0.26103 0.79868 0.0
C714 C 0.13919 0.25888 0.66466 0.0
C715 C 0.14404 0.2424 0.65787 0.0
C716 C 0.14022 0.25479 0.74953 0.0
C717 C 0.14672 0.23248 0.69783 0.0
C718 C 0.13832 0.25003 0.83706 0.0
C719 C 0.14007 0.28386 0.85187 0.0
N720 N 0.14474 0.23881 0.74189 0.0
N721 N 0.13973 0.27759 0.80727 0.0
H722 H 0.0342 0.90618 0.9493 0.0
H723 H 0.95542 0.89225 0.11175 0.0
H724 H 0.98702 0.89209 0.89154 0.0
H725 H 0.00528 0.89191 0.16487 0.0
H726 H 0.96623 0.89282 0.03089 0.0
H727 H 0.0233 0.9022 0.02876 0.0
C728 C 0.02151 0.90227 0.95338 0.0
C729 C 0.01146 0.89952 0.91383 0.0
C730 C 0.97479 0.89244 0.06025 0.0
C731 C -0.00111 0.89492 0.00483 0.0
C732 C 0.96864 0.89211 0.10636 0.0
C733 C 0.97949 0.89211 0.14499 0.0
C734 C 0.99189 0.893 0.05287 0.0
C735 C -0.00351 0.89192 0.13608 0.0
C736 C 0.01532 0.8999 0.99878 0.0
C737 C -0.00485 0.89437 0.92118 0.0
N738 N 0.00216 0.89255 0.09094 0.0
N739 N 0.98931 0.89233 0.96592 0.0
H740 H 0.3492 0.69919 0.36029 0.0
H741 H 0.33677 0.77755 0.19518 0.0
H742 H 0.34738 0.74928 0.41259 0.0
H743 H 0.35374 0.73082 0.13989 0.0
H744 H 0.33966 0.76681 0.27514 0.0
H745 H 0.35046 0.70991 0.2793 0.0
C746 C 0.34926 0.71244 0.35474 0.0
C747 C 0.34808 0.72338 0.39311 0.0
C748 C 0.34284 0.7589 0.24562 0.0
C749 C 0.34929 0.73566 0.30087 0.0
C750 C 0.3411 0.76499 0.19992 0.0
C751 C 0.34494 0.75501 0.16091 0.0
C752 C 0.34827 0.74261 0.25254 0.0
C753 C 0.35062 0.73888 0.16911 0.0
C754 C 0.34998 0.71853 0.30857 0.0
C755 C 0.34822 0.74041 0.38401 0.0
N756 N 0.35199 0.7331 0.21415 0.0
N757 N 0.34862 0.74602 0.3388 0.0
H758 H 0.5355 0.08356 0.59009 0.0
H759 H 0.47895 0.12624 0.39384 0.0
H760 H 0.49662 0.11783 0.62553 0.0
H761 H 0.50228 0.07875 0.37511 0.0
H762 H 0.49005 0.12746 0.47454 0.0
H763 H 0.52794 0.08585 0.50678 0.0
C764 C 0.52544 0.09168 0.58029 0.0
C765 C 0.51657 0.10043 0.61477 0.0
C766 C 0.49287 0.11689 0.45247 0.0
C767 C 0.50798 0.10318 0.51944 0.0
C768 C 0.48667 0.11623 0.40641 0.0
C769 C 0.48969 0.10234 0.37797 0.0
C770 C 0.50234 0.10368 0.46972 0.0
C771 C 0.49962 0.08965 0.39602 0.0
C772 C 0.52113 0.09294 0.53276 0.0
C773 C 0.50368 0.11078 0.60004 0.0
N774 N 0.50559 0.09061 0.4408 0.0
N775 N 0.49974 0.11187 0.55335 0.0
H776 H 0.13715 0.73082 0.8653 0.0
H777 H 0.13611 0.74987 0.5875 0.0
H778 H 0.15024 0.77785 0.80377 0.0
H779 H 0.13838 0.70033 0.64379 0.0
H780 H 0.13576 0.76071 0.66814 0.0
H781 H 0.13261 0.71977 0.7854 0.0
C782 C 0.13901 0.73881 0.83502 0.0
C783 C 0.14421 0.75521 0.84099 0.0
C784 C 0.1362 0.74746 0.66284 0.0
C785 C 0.13885 0.74281 0.75012 0.0
C786 C 0.13631 0.74127 0.61685 0.0
C787 C 0.13743 0.7242 0.60904 0.0
C788 C 0.13713 0.7365 0.70127 0.0
C789 C 0.13763 0.7136 0.64835 0.0
C790 C 0.13642 0.73252 0.78957 0.0
C791 C 0.14638 0.76508 0.8007 0.0
N792 N 0.13759 0.71993 0.69288 0.0
N793 N 0.14368 0.75873 0.75701 0.0
H794 H 0.45261 0.90143 0.05709 0.0
H795 H 0.53248 0.89213 0.89631 0.0
H796 H 0.5009 0.89255 0.11578 0.0
H797 H 0.48281 0.88998 0.84211 0.0
H798 H 0.52149 0.89147 0.97691 0.0
H799 H 0.46368 0.89688 0.97813 0.0
C800 C 0.46558 0.8985 0.05331 0.0
C801 C 0.4759 0.89749 0.09296 0.0
C802 C 0.51302 0.89094 0.94739 0.0
C803 C 0.4887 0.89228 0.00244 0.0
C804 C 0.51927 0.8913 0.90139 0.0
C805 C 0.50852 0.89124 0.86253 0.0
C806 C 0.49589 0.8907 0.95446 0.0
C807 C 0.49153 0.89012 0.87107 0.0
C808 C 0.47188 0.89581 0.00819 0.0
C809 C 0.49255 0.8935 0.08605 0.0
N810 N 0.48574 0.89008 0.91612 0.0
N811 N 0.4985 0.89118 0.0415 0.0
H812 H 0.35122 0.23637 0.09997 0.0
H813 H 0.35091 0.25533 0.37793 0.0
H814 H 0.34836 0.28583 0.15662 0.0
H815 H 0.33929 0.20783 0.31696 0.0
H816 H 0.35465 0.26653 0.29785 0.0
H817 H 0.35194 0.22547 0.18054 0.0
C818 C 0.35093 0.24494 0.12939 0.0
C819 C 0.34959 0.26201 0.1217 0.0
C820 C 0.35133 0.25365 0.30216 0.0
C821 C 0.35034 0.24964 0.21387 0.0
C822 C 0.34922 0.24727 0.34773 0.0
C823 C 0.34466 0.23069 0.35393 0.0
C824 C 0.34907 0.24328 0.26281 0.0
C825 C 0.34266 0.22074 0.31373 0.0
C826 C 0.35127 0.23872 0.17534 0.0
C827 C 0.34929 0.27257 0.16108 0.0
N828 N 0.34488 0.22718 0.26992 0.0
N829 N 0.34958 0.26621 0.20557 0.0
H830 H 0.0342 0.0961 0.5613 0.0
H831 H 0.95425 0.09982 0.39945 0.0
H832 H 0.98556 0.10375 0.61914 0.0
H833 H 0.00386 0.10402 0.34551 0.0
H834 H 0.96506 0.10175 0.4801 0.0
H835 H 0.02301 0.09914 0.48196 0.0
C836 C 0.02113 0.09844 0.55724 0.0
C837 C 0.01075 0.09954 0.59676 0.0
C838 C 0.97354 0.10244 0.45059 0.0
C839 C -0.00219 0.10301 0.50583 0.0
C840 C 0.9674 0.10134 0.40459 0.0
C841 C 0.97821 0.10163 0.36583 0.0
C842 C 0.99062 0.10366 0.45774 0.0
C843 C -0.0049 0.10366 0.3744 0.0
C844 C 0.01476 0.10027 0.5119 0.0
C845 C 0.99395 0.10276 0.58949 0.0
N846 N 0.0008 0.10443 0.41946 0.0
N847 N 0.98795 0.10423 0.54475 0.0
H848 H 0.84997 0.74697 0.08331 0.0
H849 H 0.8509 0.72804 0.36112 0.0
H850 H 0.84706 0.69749 0.13983 0.0
H851 H 0.838 0.77535 0.30107 0.0
H852 H 0.85386 0.71683 0.28081 0.0
H853 H 0.85038 0.75786 0.16396 0.0
C854 C 0.8496 0.73839 0.11271 0.0
C855 C 0.84837 0.72132 0.10496 0.0
C856 C 0.8504 0.72966 0.28537 0.0
C857 C 0.84879 0.73367 0.19719 0.0
C858 C 0.84872 0.73605 0.33107 0.0
C859 C 0.8441 0.75259 0.33763 0.0
C860 C 0.84765 0.73999 0.2462 0.0
C861 C 0.84146 0.76248 0.29758 0.0
C862 C 0.84975 0.74461 0.1587 0.0
C863 C 0.84792 0.71076 0.14433 0.0
N864 N 0.84331 0.75604 0.2536 0.0
N865 N 0.84808 0.71711 0.18883 0.0
H866 H 0.00784 0.10205 0.12221 0.0
H867 H 0.98833 0.1035 0.84475 0.0
H868 H 0.96063 0.08958 0.06164 0.0
H869 H 0.03784 0.10073 0.89997 0.0
H870 H 0.97769 0.10338 0.92562 0.0
H871 H 0.01886 0.10602 0.04201 0.0
C872 C -0.00019 0.10017 0.09208 0.0
C873 C 0.98335 0.09536 0.09843 0.0
C874 C 0.99089 0.1029 0.92004 0.0
C875 C -0.00428 0.10009 0.00721 0.0
C876 C -0.00303 0.10306 0.87392 0.0
C877 C 0.01397 0.102 0.86573 0.0
C878 C 0.00191 0.10176 0.95822 0.0
C879 C 0.02462 0.10146 0.90482 0.0
C880 C 0.00609 0.10244 0.04645 0.0
C881 C 0.97344 0.09315 0.05831 0.0
N882 N 0.01841 0.10128 0.94947 0.0
N883 N 0.97977 0.09556 0.01445 0.0
H884 H 0.64535 0.2394 0.57838 0.0
H885 H 0.63858 0.25925 0.85497 0.0
H886 H 0.64368 0.28921 0.63288 0.0
H887 H 0.65555 0.21277 0.79794 0.0
H888 H 0.63619 0.27004 0.77399 0.0
H889 H 0.64433 0.22888 0.65931 0.0
C890 C 0.64459 0.24812 0.60738 0.0
C891 C 0.64471 0.26519 0.59902 0.0
C892 C 0.64042 0.25748 0.77939 0.0
C893 C 0.64362 0.25327 0.69161 0.0
C894 C 0.64179 0.25134 0.82545 0.0
C895 C 0.64737 0.23515 0.83305 0.0
C896 C 0.64445 0.24724 0.74093 0.0
C897 C 0.65131 0.22537 0.79368 0.0
C898 C 0.64409 0.24212 0.65355 0.0
C899 C 0.6437 0.27594 0.63789 0.0
N900 N 0.64974 0.23155 0.74935 0.0
N901 N 0.64326 0.2698 0.68262 0.0
H902 H 0.44859 0.89806 0.39542 0.0
H903 H 0.52777 0.9064 0.55926 0.0
H904 H 0.49842 0.89708 0.34198 0.0
H905 H 0.48022 0.89254 0.61515 0.0
H906 H 0.51674 0.90435 0.47941 0.0
H907 H 0.45941 0.89697 0.47623 0.0
C908 C 0.4618 0.89748 0.40071 0.0
C909 C 0.47265 0.89773 0.36203 0.0
C910 C 0.5087 0.90167 0.50904 0.0
C911 C 0.48506 0.89668 0.45411 0.0
C912 C 0.51497 0.90293 0.55469 0.0
C913 C 0.50486 0.8997 0.59384 0.0
C914 C 0.49212 0.89735 0.50235 0.0
C915 C 0.48841 0.89515 0.58584 0.0
C916 C 0.46795 0.89685 0.44678 0.0
C917 C 0.48963 0.89694 0.37081 0.0
N918 N 0.48249 0.89422 0.54087 0.0
N919 N 0.49532 0.8966 0.41594 0.0
H920 H 0.85331 0.25849 0.14511 0.0
H921 H 0.85519 0.23902 0.42272 0.0
H922 H 0.84032 0.21145 0.20679 0.0
H923 H 0.85364 0.28866 0.36687 0.0
H924 H 0.85544 0.22827 0.34198 0.0
H925 H 0.85853 0.26936 0.22489 0.0
C926 C 0.85162 0.25046 0.1754 0.0
C927 C 0.84623 0.23412 0.16952 0.0
C928 C 0.8552 0.24152 0.3474 0.0
C929 C 0.85236 0.24632 0.26022 0.0
C930 C 0.85515 0.24766 0.39345 0.0
C931 C 0.85422 0.26474 0.40142 0.0
C932 C 0.85437 0.25254 0.30907 0.0
C933 C 0.85423 0.27539 0.3622 0.0
C934 C 0.85459 0.25665 0.22078 0.0
C935 C 0.84429 0.22419 0.2098 0.0
N936 N 0.85416 0.26911 0.31762 0.0
N937 N 0.84736 0.23044 0.2534 0.0
H938 H 0.5008 0.11355 0.13827 0.0
H939 H 0.47999 0.10268 0.86283 0.0
H940 H 0.45199 0.1021 0.08729 0.0
H941 H 0.52903 0.10302 0.92188 0.0
H942 H 0.46874 0.10717 0.94272 0.0
H943 H 0.51052 0.1149 0.05667 0.0
C944 C 0.49208 0.11152 0.10986 0.0
C945 C 0.47561 0.10755 0.11954 0.0
C946 C 0.48196 0.10636 0.93795 0.0
C947 C 0.48667 0.10892 0.02599 0.0
C948 C 0.48836 0.10383 0.89248 0.0
C949 C 0.50543 0.10231 0.88593 0.0
C950 C 0.49277 0.10756 0.9767 0.0
C951 C 0.51577 0.10392 0.92542 0.0
C952 C 0.49764 0.11223 0.06326 0.0
C953 C 0.46483 0.10509 0.08132 0.0
N954 N 0.50928 0.10642 0.969 0.0
N955 N 0.47057 0.10568 0.03614 0.0
H956 H 0.6406 0.75514 0.92146 0.0
H957 H 0.63784 0.73602 0.64364 0.0
H958 H 0.64031 0.70558 0.86493 0.0
H959 H 0.65139 0.78313 0.70377 0.0
H960 H 0.63416 0.72501 0.72397 0.0
H961 H 0.63951 0.76604 0.84096 0.0
C962 C 0.64011 0.74655 0.8921 0.0
C963 C 0.6407 0.72945 0.89978 0.0
C964 C 0.63788 0.73777 0.71941 0.0
C965 C 0.63956 0.7418 0.80764 0.0
C966 C 0.63998 0.74404 0.67371 0.0
C967 C 0.64506 0.76045 0.66719 0.0
C968 C 0.64071 0.74808 0.75859 0.0
C969 C 0.64761 0.77036 0.70723 0.0
C970 C 0.63957 0.75277 0.84616 0.0
C971 C 0.63999 0.71887 0.86047 0.0
N972 N 0.64541 0.76402 0.75117 0.0
N973 N 0.63956 0.72522 0.81598 0.0
H974 H 0.00834 0.88848 0.39027 0.0
H975 H 0.98918 0.89061 0.66807 0.0
H976 H 0.96066 0.89937 0.45042 0.0
H977 H 0.0385 0.89363 0.61137 0.0
H978 H 0.97842 0.88859 0.58764 0.0
H979 H 0.01953 0.88556 0.47061 0.0
C980 C 0.00024 0.89017 0.42034 0.0
C981 C 0.98361 0.89432 0.41385 0.0
C982 C 0.99161 0.88958 0.5928 0.0
C983 C -0.00381 0.89084 0.50522 0.0
C984 C -0.00224 0.89067 0.63869 0.0
C985 C 0.01473 0.89245 0.64629 0.0
C986 C 0.00252 0.89023 0.55424 0.0
C987 C 0.0253 0.8924 0.60696 0.0
C988 C 0.00661 0.88852 0.46605 0.0
C989 C 0.9736 0.89633 0.45388 0.0
N990 N 0.01901 0.89141 0.5625 0.0
N991 N 0.98004 0.89458 0.49781 0.0
H992 H 0.64356 0.7888 0.36503 0.0
H993 H 0.65476 0.70947 0.20237 0.0
H994 H 0.64187 0.73882 0.41822 0.0
H995 H 0.6413 0.757 0.14483 0.0
H996 H 0.65143 0.72054 0.28191 0.0
H997 H 0.64352 0.77794 0.28414 0.0
C998 C 0.643 0.77555 0.35965 0.0
C999 C 0.64279 0.76466 0.39831 0.0
C1000 C 0.64914 0.72856 0.25196 0.0
C1001 C 0.64299 0.75222 0.30618 0.0
C1002 C 0.65114 0.72228 0.20651 0.0
C1003 C 0.64837 0.73237 0.167 0.0
C1004 C 0.64452 0.74514 0.25809 0.0
C1005 C 0.64358 0.74883 0.17444 0.0
C1006 C 0.64298 0.76938 0.31354 0.0
C1007 C 0.64206 0.74764 0.38943 0.0
N1008 N 0.64191 0.75477 0.21923 0.0
N1009 N 0.64236 0.74193 0.34428 0.0
H1010 H 0.50328 0.37877 0.64339 0.0
H1011 H 0.4817 0.39033 0.36881 0.0
H1012 H 0.454 0.38884 0.5937 0.0
H1013 H 0.53067 0.39268 0.42796 0.0
H1014 H 0.47074 0.38483 0.44853 0.0
H1015 H 0.51288 0.37826 0.56161 0.0
C1016 C 0.49444 0.38065 0.61521 0.0
C1017 C 0.47787 0.38403 0.6253 0.0
C1018 C 0.48388 0.38647 0.44379 0.0
C1019 C 0.48878 0.38365 0.53162 0.0
C1020 C 0.49012 0.38959 0.39845 0.0
C1021 C 0.50707 0.39214 0.39199 0.0
C1022 C 0.49476 0.38569 0.48247 0.0
C1023 C 0.51749 0.391 0.43143 0.0
C1024 C 0.49993 0.38044 0.56852 0.0
C1025 C 0.46692 0.38632 0.58739 0.0
N1026 N 0.51117 0.38788 0.47488 0.0
N1027 N 0.4726 0.38623 0.54212 0.0
H1028 H 0.83647 0.28424 0.70314 0.0
H1029 H 0.84793 0.20579 0.86918 0.0
H1030 H 0.85275 0.23712 0.64878 0.0
H1031 H 0.84641 0.25592 0.9212 0.0
H1032 H 0.84883 0.21643 0.7881 0.0
H1033 H 0.83866 0.27346 0.78327 0.0
C1034 C 0.84048 0.27158 0.7081 0.0
C1035 C 0.84438 0.26152 0.6693 0.0
C1036 C 0.84846 0.22508 0.81731 0.0
C1037 C 0.84693 0.2491 0.76111 0.0
C1038 C 0.84795 0.21903 0.86353 0.0
C1039 C 0.84702 0.23001 0.90186 0.0
C1040 C 0.84783 0.2422 0.80951 0.0
C1041 C 0.8471 0.24703 0.89265 0.0
C1042 C 0.84183 0.26547 0.75391 0.0
C1043 C 0.84961 0.24526 0.67781 0.0
N1044 N 0.84732 0.2526 0.84737 0.0
N1045 N 0.85064 0.23949 0.72292 0.0
H1046 H 0.03558 0.58369 0.0775 0.0
H1047 H 0.98539 0.6264 0.86726 0.0
H1048 H -0.00218 0.62036 0.10121 0.0
H1049 H 0.00824 0.57839 0.8561 0.0
H1050 H -0.00482 0.62841 0.94911 0.0
H1051 H 0.03064 0.58564 0.9925 0.0
C1052 C 0.02633 0.59226 0.06478 0.0
C1053 C 0.01698 0.60178 0.09644 0.0
C1054 C -0.00176 0.61756 0.92843 0.0
C1055 C 0.01138 0.60414 0.99918 0.0
C1056 C 0.9928 0.61646 0.88167 0.0
C1057 C -0.00403 0.60216 0.85505 0.0
C1058 C 0.00707 0.60436 0.94833 0.0
C1059 C 0.00548 0.58959 0.87552 0.0
C1060 C 0.02352 0.59334 0.01628 0.0
C1061 C 0.00519 0.61271 0.07797 0.0
N1062 N 0.01064 0.59094 0.92104 0.0
N1063 N 0.00269 0.61357 0.03045 0.0
H1064 H 0.65368 0.28522 0.29529 0.0
H1065 H 0.63792 0.20652 0.13391 0.0
H1066 H 0.63953 0.23806 0.35402 0.0
H1067 H 0.63867 0.25651 0.08058 0.0
H1068 H 0.63814 0.21739 0.21473 0.0
H1069 H 0.6485 0.27451 0.21623 0.0
C1070 C 0.6495 0.27257 0.29149 0.0
C1071 C 0.64715 0.26245 0.33118 0.0
C1072 C 0.63803 0.22596 0.18533 0.0
C1073 C 0.64116 0.2501 0.2406 0.0
C1074 C 0.63788 0.21978 0.13923 0.0
C1075 C 0.63841 0.23065 0.10056 0.0
C1076 C 0.63892 0.24311 0.19265 0.0
C1077 C 0.63833 0.2477 0.10939 0.0
C1078 C 0.64644 0.2665 0.24633 0.0
C1079 C 0.64156 0.24623 0.32424 0.0
N1080 N 0.6388 0.2534 0.15451 0.0
N1081 N 0.63888 0.24048 0.27966 0.0
H1082 H 0.96351 0.38839 0.57899 0.0
H1083 H 0.04032 0.3977 0.40696 0.0
H1084 H 0.01296 0.39547 0.63122 0.0
H1085 H 0.99229 0.38111 0.36182 0.0
H1086 H 0.0314 0.39527 0.48941 0.0
H1087 H 0.97445 0.38419 0.49983 0.0
C1088 C 0.97673 0.38898 0.57376 0.0
C1089 C 0.98735 0.39246 0.6116 0.0
C1090 C 0.0229 0.39194 0.46149 0.0
C1091 C 1e-05 0.38777 0.52058 0.0
C1092 C 0.02797 0.3933 0.41442 0.0
C1093 C 0.01696 0.38975 0.37749 0.0
C1094 C 0.00664 0.38713 0.47163 0.0
C1095 C 0.00115 0.38407 0.38915 0.0
C1096 C 0.98299 0.38651 0.5285 0.0
C1097 C 0.00437 0.39288 0.6029 0.0
N1098 N -0.00359 0.38313 0.43516 0.0
N1099 N 0.01019 0.39078 0.55805 0.0
H1100 H 0.8536 0.74884 0.86043 0.0
H1101 H 0.85171 0.73016 0.58222 0.0
H1102 H 0.84178 0.70136 0.79967 0.0
H1103 H 0.85102 0.77958 0.6397 0.0
H1104 H 0.85291 0.7191 0.66253 0.0
H1105 H 0.8571 0.76006 0.78031 0.0
C1106 C 0.85182 0.74078 0.83026 0.0
C1107 C 0.84727 0.7242 0.83657 0.0
C1108 C 0.85261 0.73237 0.65758 0.0
C1109 C 0.85138 0.73683 0.74532 0.0
C1110 C 0.852 0.73869 0.61175 0.0
C1111 C 0.85113 0.7558 0.60437 0.0
C1112 C 0.85239 0.74324 0.69633 0.0
C1113 C 0.85157 0.76629 0.64391 0.0
C1114 C 0.85381 0.74717 0.78466 0.0
C1115 C 0.84516 0.71426 0.79638 0.0
N1116 N 0.85208 0.75984 0.68828 0.0
N1117 N 0.84722 0.72073 0.75252 0.0
H1118 H 0.47939 0.59953 0.13151 0.0
H1119 H 0.49959 0.6001 0.8542 0.0
H1120 H 0.52815 0.59361 0.07276 0.0
H1121 H 0.4508 0.59089 0.90913 0.0
H1122 H 0.5098 0.60274 0.93512 0.0
H1123 H 0.46822 0.60104 0.05075 0.0
C1124 C 0.48772 0.59865 0.10166 0.0
C1125 C 0.50467 0.5963 0.10866 0.0
C1126 C 0.49684 0.60021 0.92947 0.0
C1127 C 0.49211 0.59818 0.01687 0.0
C1128 C 0.491 0.59876 0.88331 0.0
C1129 C 0.47437 0.59513 0.87504 0.0
C1130 C 0.48594 0.59811 0.96763 0.0
C1131 C 0.46375 0.59358 0.91405 0.0
C1132 C 0.48136 0.59948 0.05573 0.0
C1133 C 0.51497 0.59526 0.06891 0.0
N1134 N 0.46973 0.59501 0.95876 0.0
N1135 N 0.50853 0.59621 0.02478 0.0
H1136 H 0.35171 0.2519 0.60031 0.0
H1137 H 0.34985 0.23315 0.87824 0.0
H1138 H 0.34476 0.20282 0.65681 0.0
H1139 H 0.34104 0.28122 0.81708 0.0
H1140 H 0.35275 0.22167 0.79818 0.0
H1141 H 0.35303 0.26271 0.6809 0.0
C1142 C 0.35065 0.24337 0.6297 0.0
C1143 C 0.34799 0.22647 0.62195 0.0
C1144 C 0.35023 0.23474 0.80246 0.0
C1145 C 0.34943 0.23875 0.71416 0.0
C1146 C 0.3486 0.24127 0.848 0.0
C1147 C 0.34508 0.25811 0.85415 0.0
C1148 C 0.34857 0.2452 0.76307 0.0
C1149 C 0.34361 0.26813 0.8139 0.0
C1150 C 0.35132 0.24956 0.67567 0.0
C1151 C 0.34672 0.21597 0.66132 0.0
N1152 N 0.34538 0.26153 0.7701 0.0
N1153 N 0.34738 0.22229 0.70583 0.0
H1154 H 0.45499 0.59671 0.57294 0.0
H1155 H 0.53483 0.59904 0.41031 0.0
H1156 H 0.50423 0.59732 0.6305 0.0
H1157 H 0.48563 0.60835 0.35884 0.0
H1158 H 0.52433 0.59976 0.49141 0.0
H1159 H 0.46627 0.6021 0.49465 0.0
C1160 C 0.46822 0.59802 0.56904 0.0
C1161 C 0.47873 0.5964 0.60808 0.0
C1162 C 0.51588 0.60187 0.46241 0.0
C1163 C 0.49177 0.6025 0.51835 0.0
C1164 C 0.52185 0.60146 0.41612 0.0
C1165 C 0.51103 0.60348 0.37783 0.0
C1166 C 0.49894 0.60414 0.47034 0.0
C1167 C 0.49437 0.60663 0.38732 0.0
C1168 C 0.47465 0.60118 0.52433 0.0
C1169 C 0.49573 0.59841 0.60117 0.0
N1170 N 0.48881 0.60668 0.43262 0.0
N1171 N 0.50177 0.60118 0.55694 0.0
H1172 H 0.13726 0.75255 0.36422 0.0
H1173 H 0.14055 0.73308 0.08679 0.0
H1174 H 0.15033 0.70511 0.30522 0.0
H1175 H 0.14231 0.78271 0.1426 0.0
H1176 H 0.13927 0.72237 0.16748 0.0
H1177 H 0.1347 0.76364 0.28363 0.0
C1178 C 0.13954 0.74448 0.33434 0.0
C1179 C 0.14412 0.72794 0.34127 0.0
C1180 C 0.13984 0.73561 0.16207 0.0
C1181 C 0.14104 0.7404 0.24957 0.0
C1182 C 0.14049 0.74173 0.11604 0.0
C1183 C 0.14166 0.75879 0.10809 0.0
C1184 C 0.14028 0.74664 0.20043 0.0
C1185 C 0.14152 0.76945 0.14727 0.0
C1186 C 0.13809 0.7508 0.28849 0.0
C1187 C 0.1469 0.71798 0.30145 0.0
N1188 N 0.14091 0.7632 0.19186 0.0
N1189 N 0.14529 0.72436 0.25735 0.0
H1190 H -0.00185 0.37897 0.87218 0.0
H1191 H 0.98068 0.41209 0.13182 0.0
H1192 H 0.95543 0.4081 0.90876 0.0
H1193 H 0.0145 0.37209 0.10398 0.0
H1194 H 0.97075 0.41017 0.05046 0.0
H1195 H 0.00433 0.37587 0.95672 0.0
C1196 C 0.99004 0.38463 0.89797 0.0
C1197 C 0.97633 0.3939 0.88346 0.0
C1198 C 0.98016 0.40161 0.06228 0.0
C1199 C 0.98333 0.39047 0.9799 0.0
C1200 C 0.98578 0.40268 0.10879 0.0
C1201 C -0.00157 0.39225 0.12458 0.0
C1202 C 0.98747 0.39026 0.03102 0.0
C1203 C 0.00466 0.38032 0.09324 0.0
C1204 C 0.99352 0.3828 0.94616 0.0
C1205 C 0.96618 0.40091 0.91833 0.0
N1206 N -0.00069 0.37982 0.04766 0.0
N1207 N 0.96996 0.39918 0.96482 0.0
H1208 H 0.35224 0.73231 0.91362 0.0
H1209 H 0.35224 0.75201 0.63618 0.0
H1210 H 0.35228 0.78208 0.85859 0.0
H1211 H 0.33643 0.70573 0.69711 0.0
H1212 H 0.35725 0.7627 0.7163 0.0
H1213 H 0.3521 0.72172 0.8327 0.0
C1214 C 0.35247 0.741 0.88449 0.0
C1215 C 0.35211 0.75808 0.89274 0.0
C1216 C 0.35272 0.7502 0.71193 0.0
C1217 C 0.35183 0.74607 0.8002 0.0
C1218 C 0.34985 0.74412 0.66637 0.0
C1219 C 0.34378 0.72804 0.66016 0.0
C1220 C 0.34972 0.74 0.75123 0.0
C1221 C 0.34096 0.71827 0.70034 0.0
C1222 C 0.35229 0.73496 0.83834 0.0
C1223 C 0.35244 0.7688 0.85369 0.0
N1224 N 0.34398 0.72439 0.74412 0.0
N1225 N 0.35217 0.76262 0.809 0.0
H1226 H -0.00372 0.61895 0.60631 0.0
H1227 H 0.9756 0.5891 0.34708 0.0
H1228 H 0.95107 0.59348 0.57244 0.0
H1229 H 0.01043 0.62812 0.37601 0.0
H1230 H 0.9656 0.59116 0.42859 0.0
H1231 H 0.00139 0.62289 0.52172 0.0
C1232 C 0.98737 0.61432 0.58105 0.0
C1233 C 0.97331 0.60578 0.5963 0.0
C1234 C 0.97522 0.59948 0.41683 0.0
C1235 C 0.97911 0.61009 0.49962 0.0
C1236 C 0.98089 0.59834 0.37027 0.0
C1237 C 0.99394 0.60836 0.35491 0.0
C1238 C 0.98287 0.61051 0.44832 0.0
C1239 C 0.00038 0.62011 0.38645 0.0
C1240 C 0.99025 0.61662 0.53281 0.0
C1241 C 0.96211 0.60009 0.56214 0.0
N1242 N 0.99498 0.62066 0.4319 0.0
N1243 N 0.96536 0.60215 0.51536 0.0
H1244 H 0.13268 0.24614 0.13438 0.0
H1245 H 0.13728 0.26479 0.41242 0.0
H1246 H 0.14816 0.29258 0.19484 0.0
H1247 H 0.13654 0.21524 0.35584 0.0
H1248 H 0.1357 0.2757 0.33203 0.0
H1249 H 0.12889 0.2351 0.2148 0.0
C1250 C 0.13514 0.25403 0.16452 0.0
C1251 C 0.14088 0.27023 0.15809 0.0
C1252 C 0.13576 0.26243 0.33719 0.0
C1253 C 0.13644 0.25784 0.24952 0.0
C1254 C 0.13659 0.2562 0.38309 0.0
C1255 C 0.1372 0.23909 0.39075 0.0
C1256 C 0.13547 0.25149 0.29861 0.0
C1257 C 0.13622 0.22853 0.35141 0.0
C1258 C 0.13302 0.24773 0.21026 0.0
C1259 C 0.14388 0.27996 0.19822 0.0
N1260 N 0.13551 0.2349 0.30693 0.0
N1261 N 0.14164 0.27362 0.24214 0.0
H1262 H 0.49767 0.37578 0.13421 0.0
H1263 H 0.50506 0.41403 0.87805 0.0
H1264 H 0.53669 0.4094 0.09528 0.0
H1265 H 0.4819 0.36674 0.90168 0.0
H1266 H 0.51598 0.41324 0.95859 0.0
H1267 H 0.4905 0.37291 0.05023 0.0
C1268 C 0.50476 0.38247 0.10799 0.0
C1269 C 0.51773 0.3929 0.12162 0.0
C1270 C 0.50871 0.40291 0.94595 0.0
C1271 C 0.50956 0.3898 0.02608 0.0
C1272 C 0.50249 0.40337 0.90003 0.0
C1273 C 0.4926 0.39043 0.88334 0.0
C1274 C 0.50467 0.38961 0.97569 0.0
C1275 C 0.48957 0.37692 0.91323 0.0
C1276 C 0.50074 0.38077 0.06018 0.0
C1277 C 0.52658 0.40125 0.0863 0.0
N1278 N 0.49538 0.37697 0.95834 0.0
N1279 N 0.52222 0.39967 0.04021 0.0
H1280 H 0.14269 0.34117 0.10866 0.0
H1281 H 0.05917 0.3923 0.10298 0.0
H1282 H 0.10309 0.32853 0.01347 0.0
H1283 H 0.08235 0.37814 0.23416 0.0
H1284 H 0.07999 0.37633 0.0596 0.0
H1285 H 0.12509 0.36242 0.14443 0.0
C1286 C 0.13042 0.34313 0.09461 0.0
C1287 C 0.12422 0.33308 0.05831 0.0
C1288 C 0.0806 0.37699 0.09783 0.0
C1289 C 0.10432 0.35734 0.09847 0.0
C1290 C 0.06885 0.38612 0.12254 0.0
C1291 C 0.06908 0.38642 0.17214 0.0
C1292 C 0.09284 0.3685 0.12295 0.0
C1293 C 0.08175 0.37809 0.19591 0.0
C1294 C 0.12042 0.35514 0.11519 0.0
C1295 C 0.10823 0.336 0.04162 0.0
N1296 N 0.0932 0.36945 0.17103 0.0
N1297 N 0.09876 0.34791 0.06189 0.0
H1298 H 0.89449 0.79389 0.43093 0.0
H1299 H 0.90645 0.88459 0.32374 0.0
H1300 H 0.85563 0.83033 0.42753 0.0
H1301 H 0.94266 0.84565 0.31314 0.0
H1302 H 0.88765 0.86526 0.3628 0.0
H1303 H 0.91274 0.81341 0.39121 0.0
C1304 C 0.88986 0.80608 0.42228 0.0
C1305 C 0.87354 0.81052 0.43246 0.0
C1306 C 0.89966 0.86093 0.35159 0.0
C1307 C 0.89427 0.83284 0.38642 0.0
C1308 C 0.91035 0.87192 0.32908 0.0
C1309 C 0.92612 0.86669 0.3153 0.0
C1310 C 0.90486 0.84466 0.36055 0.0
C1311 C 0.9306 0.85019 0.32322 0.0
C1312 C 0.90024 0.81718 0.39928 0.0
C1313 C 0.86815 0.82644 0.42032 0.0
N1314 N 0.92006 0.83979 0.3456 0.0
N1315 N 0.87849 0.83704 0.39775 0.0
H1316 H 0.35035 0.65 0.57481 0.0
H1317 H 0.43469 0.63951 0.71709 0.0
H1318 H 0.38964 0.68599 0.57539 0.0
H1319 H 0.40209 0.59852 0.68872 0.0
H1320 H 0.41614 0.65768 0.6736 0.0
H1321 H 0.36769 0.63138 0.6217 0.0
C1322 C 0.3627 0.65388 0.58423 0.0
C1323 C 0.3686 0.66953 0.57125 0.0
C1324 C 0.41298 0.64473 0.67712 0.0
C1325 C 0.38824 0.64857 0.62556 0.0
C1326 C 0.42348 0.63439 0.70233 0.0
C1327 C 0.41995 0.61749 0.7062 0.0
C1328 C 0.39883 0.63812 0.6557 0.0
C1329 C 0.40526 0.61149 0.68642 0.0
C1330 C 0.37252 0.64331 0.6112 0.0
C1331 C 0.38463 0.67401 0.58457 0.0
N1332 N 0.39525 0.6218 0.66166 0.0
N1333 N 0.39384 0.66363 0.61132 0.0
H1334 H 0.59633 0.19478 0.91889 0.0
H1335 H 0.584 0.1055 0.80407 0.0
H1336 H 0.63479 0.15789 0.9169 0.0
H1337 H 0.55052 0.14639 0.78409 0.0
H1338 H 0.6027 0.12391 0.84697 0.0
H1339 H 0.5787 0.1762 0.8738 0.0
C1340 C 0.60099 0.18267 0.90943 0.0
C1341 C 0.61703 0.17785 0.92157 0.0
C1342 C 0.59134 0.12887 0.83275 0.0
C1343 C 0.59701 0.15661 0.86934 0.0
C1344 C 0.58072 0.11841 0.80804 0.0
C1345 C 0.56568 0.12444 0.79071 0.0
C1346 C 0.58676 0.1454 0.8404 0.0
C1347 C 0.56198 0.14123 0.79696 0.0
C1348 C 0.59097 0.17212 0.88331 0.0
C1349 C 0.62247 0.16206 0.90826 0.0
N1350 N 0.57238 0.15108 0.82168 0.0
N1351 N 0.61247 0.15198 0.88268 0.0
H1352 H 0.05668 0.64273 0.26261 0.0
H1353 H 0.13133 0.64927 0.44226 0.0
H1354 H 0.07409 0.59938 0.33636 0.0
H1355 H 0.09612 0.68846 0.41904 0.0
H1356 H 0.11361 0.6305 0.39644 0.0
H1357 H 0.07525 0.6597 0.30982 0.0
C1358 C 0.0646 0.63675 0.28828 0.0
C1359 C 0.06381 0.61965 0.29583 0.0
C1360 C 0.10976 0.64317 0.40195 0.0
C1361 C 0.08496 0.63901 0.35013 0.0
C1362 C 0.11979 0.65384 0.42813 0.0
C1363 C 0.11516 0.67042 0.43432 0.0
C1364 C 0.0953 0.64932 0.38121 0.0
C1365 C 0.10015 0.67577 0.41517 0.0
C1366 C 0.07507 0.64646 0.31549 0.0
C1367 C 0.07432 0.61255 0.32964 0.0
N1368 N 0.09086 0.66531 0.38897 0.0
N1369 N 0.08451 0.6223 0.35574 0.0
H1370 H 0.63677 0.83751 0.58138 0.0
H1371 H 0.54584 0.84889 0.68546 0.0
H1372 H 0.59739 0.80219 0.56321 0.0
H1373 H 0.58195 0.88808 0.68538 0.0
H1374 H 0.56548 0.83105 0.6449 0.0
H1375 H 0.61743 0.85615 0.62123 0.0
C1376 C 0.62401 0.83379 0.58519 0.0
C1377 C 0.61866 0.81829 0.56911 0.0
C1378 C 0.56916 0.84353 0.65385 0.0
C1379 C 0.59663 0.83933 0.61525 0.0
C1380 C 0.55798 0.85368 0.67735 0.0
C1381 C 0.56229 0.86998 0.68871 0.0
C1382 C 0.58477 0.8497 0.64167 0.0
C1383 C 0.57817 0.87557 0.67725 0.0
C1384 C 0.61302 0.84438 0.60815 0.0
C1385 C 0.60204 0.81402 0.57513 0.0
N1386 N 0.58885 0.86544 0.65417 0.0
N1387 N 0.59165 0.82444 0.59801 0.0
H1388 H 0.43521 0.34533 0.79127 0.0
H1389 H 0.35646 0.33709 0.956 0.0
H1390 H 0.41228 0.38848 0.85255 0.0
H1391 H 0.39306 0.29875 0.9398 0.0
H1392 H 0.37465 0.35622 0.9132 0.0
H1393 H 0.41695 0.32783 0.83777 0.0
C1394 C 0.42619 0.35113 0.81414 0.0
C1395 C 0.42526 0.36837 0.8182 0.0
C1396 C 0.37871 0.34366 0.9196 0.0
C1397 C 0.40442 0.34839 0.87183 0.0
C1398 C 0.3684 0.33278 0.94408 0.0
C1399 C 0.37326 0.31631 0.95122 0.0
C1400 C 0.39377 0.33787 0.90162 0.0
C1401 C 0.38882 0.31133 0.93501 0.0
C1402 C 0.41588 0.34113 0.84101 0.0
C1403 C 0.41337 0.37522 0.84851 0.0
N1404 N 0.39843 0.32201 0.91046 0.0
N1405 N 0.40334 0.36517 0.87428 0.0
H1406 H 0.85187 0.1566 0.08256 0.0
H1407 H 0.94151 0.1441 0.19349 0.0
H1408 H 0.89176 0.19157 0.06802 0.0
H1409 H 0.90573 0.10469 0.18528 0.0
H1410 H 0.9223 0.16233 0.15278 0.0
H1411 H 0.87071 0.13756 0.12277 0.0
C1412 C 0.86464 0.16016 0.08725 0.0
C1413 C 0.87029 0.17567 0.07211 0.0
C1414 C 0.9186 0.14971 0.15998 0.0
C1415 C 0.89171 0.1542 0.11866 0.0
C1416 C 0.92951 0.13934 0.18358 0.0
C1417 C 0.92519 0.12287 0.19262 0.0
C1418 C 0.90323 0.14359 0.14542 0.0
C1419 C 0.90952 0.11733 0.17893 0.0
C1420 C 0.87534 0.14935 0.11039 0.0
C1421 C 0.8869 0.17973 0.07919 0.0
N1422 N 0.89908 0.12768 0.1558 0.0
N1423 N 0.89699 0.1691 0.10229 0.0
H1424 H 0.89463 0.68287 0.94707 0.0
H1425 H 0.91297 0.59625 0.82371 0.0
H1426 H 0.85591 0.64697 0.92659 0.0
H1427 H 0.93934 0.6414 0.79365 0.0
H1428 H 0.89385 0.61208 0.8741 0.0
H1429 H 0.91378 0.66454 0.90634 0.0
C1430 C 0.89021 0.671 0.93468 0.0
C1431 C 0.87362 0.6665 0.93966 0.0
C1432 C 0.90382 0.61843 0.85624 0.0
C1433 C 0.89544 0.64556 0.89267 0.0
C1434 C 0.91465 0.60947 0.8275 0.0
C1435 C 0.92765 0.61758 0.80435 0.0
C1436 C 0.90633 0.63547 0.86245 0.0
C1437 C 0.92941 0.63468 0.81054 0.0
C1438 C 0.90112 0.66061 0.91115 0.0
C1439 C 0.8686 0.65092 0.92314 0.0
N1440 N 0.91894 0.64302 0.83926 0.0
N1441 N 0.87948 0.641 0.89994 0.0
H1442 H 0.095 0.20045 0.57027 0.0
H1443 H 0.08672 0.11023 0.68357 0.0
H1444 H 0.13439 0.16457 0.56861 0.0
H1445 H 0.05011 0.14864 0.69821 0.0
H1446 H 0.10442 0.12966 0.64083 0.0
H1447 H 0.07789 0.1809 0.61391 0.0
C1448 C 0.09997 0.18837 0.57859 0.0
C1449 C 0.11612 0.18411 0.56589 0.0
C1450 C 0.09257 0.13386 0.65376 0.0
C1451 C 0.09673 0.16177 0.61647 0.0
C1452 C 0.08253 0.12282 0.67842 0.0
C1453 C 0.06693 0.12785 0.69432 0.0
C1454 C 0.08691 0.14997 0.64481 0.0
C1455 C 0.06205 0.14425 0.68651 0.0
C1456 C 0.09025 0.17726 0.60385 0.0
C1457 C 0.12198 0.16832 0.57773 0.0
N1458 N 0.07195 0.15469 0.662 0.0
N1459 N 0.11229 0.15772 0.60256 0.0
H1460 H 0.55214 0.34844 0.29201 0.0
H1461 H 0.63941 0.33923 0.41965 0.0
H1462 H 0.58539 0.38959 0.31082 0.0
H1463 H 0.60048 0.30295 0.42756 0.0
H1464 H 0.62083 0.3576 0.37599 0.0
H1465 H 0.57135 0.33079 0.33484 0.0
C1466 C 0.56361 0.3537 0.30458 0.0
C1467 C 0.56718 0.3705 0.29806 0.0
C1468 C 0.61635 0.34567 0.38769 0.0
C1469 C 0.58909 0.35044 0.34774 0.0
C1470 C 0.62689 0.33524 0.41282 0.0
C1471 C 0.62145 0.31956 0.42711 0.0
C1472 C 0.60037 0.34025 0.37652 0.0
C1473 C 0.60516 0.31494 0.41718 0.0
C1474 C 0.5745 0.34366 0.32943 0.0
C1475 C 0.58219 0.37669 0.31517 0.0
N1476 N 0.59524 0.32519 0.39214 0.0
N1477 N 0.5926 0.36665 0.3395 0.0
H1478 H 0.35242 0.83297 0.06636 0.0
H1479 H 0.43636 0.85011 0.20586 0.0
H1480 H 0.39255 0.7981 0.07672 0.0
H1481 H 0.40077 0.88838 0.17594 0.0
H1482 H 0.41888 0.83021 0.16507 0.0
H1483 H 0.36895 0.85318 0.11001 0.0
C1484 C 0.36479 0.82965 0.0773 0.0
C1485 C 0.37116 0.81386 0.06794 0.0
C1486 C 0.41482 0.84294 0.16763 0.0
C1487 C 0.38993 0.83672 0.1185 0.0
C1488 C 0.42473 0.85427 0.19127 0.0
C1489 C 0.42002 0.87092 0.19405 0.0
C1490 C 0.40008 0.84827 0.14661 0.0
C1491 C 0.40484 0.87565 0.17453 0.0
C1492 C 0.37416 0.84114 0.10242 0.0
C1493 C 0.38718 0.81015 0.0831 0.0
N1494 N 0.39543 0.86438 0.1513 0.0
N1495 N 0.39597 0.82146 0.10789 0.0
H1496 H 0.90929 0.3902 0.69459 0.0
H1497 H 0.89619 0.30088 0.58051 0.0
H1498 H 0.94267 0.34917 0.71367 0.0
H1499 H 0.85796 0.33801 0.58285 0.0
H1500 H 0.91406 0.31943 0.62487 0.0
H1501 H 0.89041 0.37187 0.65197 0.0
C1502 C 0.91252 0.37728 0.69047 0.0
C1503 C 0.92757 0.37117 0.70751 0.0
C1504 C 0.90179 0.32357 0.61559 0.0
C1505 C 0.90628 0.35033 0.65813 0.0
C1506 C 0.89163 0.31304 0.58989 0.0
C1507 C 0.87558 0.31793 0.57807 0.0
C1508 C 0.89589 0.33915 0.62949 0.0
C1509 C 0.87028 0.33379 0.59125 0.0
C1510 C 0.9018 0.36687 0.66592 0.0
C1511 C 0.9312 0.35438 0.70106 0.0
N1512 N 0.88042 0.34385 0.61644 0.0
N1513 N 0.92069 0.34458 0.67651 0.0
H1514 H 0.35219 0.15197 0.44905 0.0
H1515 H 0.43163 0.14509 0.28767 0.0
H1516 H 0.39046 0.18902 0.44449 0.0
H1517 H 0.40919 0.10106 0.34514 0.0
H1518 H 0.41308 0.16188 0.33543 0.0
H1519 H 0.37026 0.13314 0.40446 0.0
C1520 C 0.36445 0.15603 0.43936 0.0
C1521 C 0.36983 0.17208 0.45025 0.0
C1522 C 0.41217 0.14854 0.33748 0.0
C1523 C 0.39017 0.15094 0.39857 0.0
C1524 C 0.42264 0.13894 0.3099 0.0
C1525 C 0.42197 0.12166 0.31264 0.0
C1526 C 0.40079 0.14083 0.36763 0.0
C1527 C 0.41009 0.11437 0.34218 0.0
C1528 C 0.37469 0.14533 0.41386 0.0
C1529 C 0.38579 0.17677 0.43677 0.0
N1530 N 0.3999 0.12402 0.36866 0.0
N1531 N 0.3953 0.16633 0.41109 0.0
H1532 H 0.59668 0.69337 0.07147 0.0
H1533 H 0.58251 0.6058 0.19634 0.0
H1534 H 0.63462 0.65613 0.0821 0.0
H1535 H 0.54717 0.6457 0.19838 0.0
H1536 H 0.60171 0.62361 0.15318 0.0
H1537 H 0.57786 0.6752 0.11407 0.0
C1538 C 0.60098 0.68127 0.08228 0.0
C1539 C 0.61722 0.67624 0.07337 0.0
C1540 C 0.5898 0.62849 0.16338 0.0
C1541 C 0.59584 0.65547 0.12278 0.0
C1542 C 0.57889 0.61838 0.18825 0.0
C1543 C 0.56325 0.62431 0.20087 0.0
C1544 C 0.58496 0.64458 0.15092 0.0
C1545 C 0.55913 0.64065 0.18934 0.0
C1546 C 0.59027 0.67094 0.10693 0.0
C1547 C 0.62217 0.66046 0.08827 0.0
N1548 N 0.56988 0.65018 0.16475 0.0
N1549 N 0.61153 0.65064 0.11249 0.0
H1550 H 0.05093 0.84906 0.81406 0.0
H1551 H 0.13912 0.83339 0.9313 0.0
H1552 H 0.08766 0.88739 0.82731 0.0
H1553 H 0.09849 0.79902 0.93837 0.0
H1554 H 0.12115 0.85321 0.89091 0.0
H1555 H 0.06932 0.82996 0.85459 0.0
C1556 C 0.06297 0.8534 0.82504 0.0
C1557 C 0.06779 0.86983 0.81745 0.0
C1558 C 0.11616 0.84138 0.90168 0.0
C1559 C 0.08882 0.84809 0.8645 0.0
C1560 C 0.12636 0.83012 0.92492 0.0
C1561 C 0.12026 0.81455 0.93806 0.0
C1562 C 0.09983 0.83694 0.89129 0.0
C1563 C 0.10369 0.81088 0.92883 0.0
C1564 C 0.07341 0.84253 0.84853 0.0
C1565 C 0.0835 0.8748 0.83248 0.0
N1566 N 0.09409 0.82195 0.9057 0.0
N1567 N 0.09347 0.86397 0.85552 0.0
loop_
_geom_bond_atom_site_label_1
_geom_bond_atom_site_label_2
_geom_bond_distance
_geom_bond_site_symmetry_2
_ccdc_geom_bond_type
In0 O1 2.294 . S
In0 O2 2.326 . S
In0 O6 2.266 . S
In0 O7 2.326 1_554 S
In0 O8 2.266 . S
In0 O9 2.326 . S
In0 O11 2.294 . S
In0 O12 2.326 . S
O1 In0 2.294 . S
O1 C10 1.240 . S
O2 In0 2.326 . S
O2 C10 1.252 . S
C3 O6 1.252 1_556 S
C3 O7 1.260 . S
C4 O11 1.240 . S
C4 O12 1.252 . S
C5 O8 1.252 . S
C5 O9 1.260 . S
O6 In0 2.266 . S
O6 C3 1.252 1_554 S
O7 In0 2.326 1_556 S
O7 C3 1.260 . S
O8 In0 2.266 . S
O8 C5 1.252 . S
O9 In0 2.326 . S
O9 C5 1.260 . S
C10 O1 1.240 . S
C10 O2 1.252 . S
O11 In0 2.294 . S
O11 C4 1.240 . S
O12 In0 2.326 . S
O12 C4 1.252 . S
In13 O14 2.294 . S
In13 O15 2.326 . S
In13 O19 2.266 . S
In13 O20 2.326 . S
In13 O21 2.266 . S
In13 O22 2.326 . S
In13 O24 2.294 . S
In13 O25 2.326 . S
O14 In13 2.294 . S
O14 C23 1.240 . S
O15 In13 2.326 . S
O15 C23 1.252 . S
C16 O19 1.252 . S
C16 O20 1.260 . S
C17 O24 1.240 . S
C17 O25 1.252 . S
C18 O21 1.252 . S
C18 O22 1.260 . S
O19 In13 2.266 . S
O19 C16 1.252 . S
O20 In13 2.326 . S
O20 C16 1.260 . S
O21 In13 2.266 . S
O21 C18 1.252 . S
O22 In13 2.326 . S
O22 C18 1.260 . S
C23 O14 1.240 . S
C23 O15 1.252 . S
O24 In13 2.294 . S
O24 C17 1.240 . S
O25 In13 2.326 . S
O25 C17 1.252 . S
In26 O27 2.294 . S
In26 O28 2.326 . S
In26 O32 2.266 . S
In26 O33 2.326 . S
In26 O34 2.266 . S
In26 O35 2.326 . S
In26 O37 2.294 . S
In26 O38 2.326 . S
O27 In26 2.294 . S
O27 C36 1.240 . S
O28 In26 2.326 . S
O28 C36 1.252 . S
C29 O32 1.252 . S
C29 O33 1.260 . S
C30 O37 1.240 . S
C30 O38 1.252 . S
C31 O34 1.252 . S
C31 O35 1.260 . S
O32 In26 2.266 . S
O32 C29 1.252 . S
O33 In26 2.326 . S
O33 C29 1.260 . S
O34 In26 2.266 . S
O34 C31 1.252 . S
O35 In26 2.326 . S
O35 C31 1.260 . S
C36 O27 1.240 . S
C36 O28 1.252 . S
O37 In26 2.294 . S
O37 C30 1.240 . S
O38 In26 2.326 . S
O38 C30 1.252 . S
In39 O40 2.294 . S
In39 O41 2.326 . S
In39 O45 2.266 . S
In39 O46 2.326 . S
In39 O47 2.266 . S
In39 O48 2.326 . S
In39 O50 2.294 . S
In39 O51 2.326 . S
O40 In39 2.294 . S
O40 C49 1.240 . S
O41 In39 2.326 . S
O41 C49 1.252 . S
C42 O45 1.252 . S
C42 O46 1.260 . S
C43 O50 1.240 . S
C43 O51 1.252 . S
C44 O47 1.252 . S
C44 O48 1.260 . S
O45 In39 2.266 . S
O45 C42 1.252 . S
O46 In39 2.326 . S
O46 C42 1.260 . S
O47 In39 2.266 . S
O47 C44 1.252 . S
O48 In39 2.326 . S
O48 C44 1.260 . S
C49 O40 1.240 . S
C49 O41 1.252 . S
O50 In39 2.294 . S
O50 C43 1.240 . S
O51 In39 2.326 . S
O51 C43 1.252 . S
In52 O53 2.294 . S
In52 O54 2.326 . S
In52 O58 2.266 . S
In52 O59 2.326 . S
In52 O60 2.266 . S
In52 O61 2.326 . S
In52 O63 2.294 . S
In52 O64 2.326 . S
O53 In52 2.294 . S
O53 C62 1.240 . S
O54 In52 2.326 . S
O54 C62 1.252 . S
C55 O58 1.252 . S
C55 O59 1.260 . S
C56 O63 1.240 . S
C56 O64 1.252 . S
C57 O60 1.252 . S
C57 O61 1.260 . S
O58 In52 2.266 . S
O58 C55 1.252 . S
O59 In52 2.326 . S
O59 C55 1.260 . S
O60 In52 2.266 . S
O60 C57 1.252 . S
O61 In52 2.326 . S
O61 C57 1.260 . S
C62 O53 1.240 . S
C62 O54 1.252 . S
O63 In52 2.294 . S
O63 C56 1.240 . S
O64 In52 2.326 . S
O64 C56 1.252 . S
In65 O66 2.294 . S
In65 O67 2.326 . S
In65 O71 2.266 . S
In65 O72 2.326 . S
In65 O73 2.266 . S
In65 O74 2.326 . S
In65 O76 2.294 . S
In65 O77 2.326 . S
O66 In65 2.294 . S
O66 C75 1.240 . S
O67 In65 2.326 . S
O67 C75 1.252 . S
C68 O71 1.252 . S
C68 O72 1.260 . S
C69 O76 1.240 . S
C69 O77 1.252 . S
C70 O73 1.252 . S
C70 O74 1.260 . S
O71 In65 2.266 . S
O71 C68 1.252 . S
O72 In65 2.326 . S
O72 C68 1.260 . S
O73 In65 2.266 . S
O73 C70 1.252 . S
O74 In65 2.326 . S
O74 C70 1.260 . S
C75 O66 1.240 . S
C75 O67 1.252 . S
O76 In65 2.294 . S
O76 C69 1.240 . S
O77 In65 2.326 . S
O77 C69 1.252 . S
In78 O79 2.294 . S
In78 O80 2.326 . S
In78 O84 2.266 . S
In78 O85 2.326 . S
In78 O86 2.266 . S
In78 O87 2.326 1_556 S
In78 O89 2.294 . S
In78 O90 2.326 . S
O79 In78 2.294 . S
O79 C88 1.240 . S
O80 In78 2.326 . S
O80 C88 1.252 . S
C81 O84 1.252 . S
C81 O85 1.260 . S
C82 O89 1.240 . S
C82 O90 1.252 . S
C83 O86 1.252 1_554 S
C83 O87 1.260 . S
O84 In78 2.266 . S
O84 C81 1.252 . S
O85 In78 2.326 . S
O85 C81 1.260 . S
O86 In78 2.266 . S
O86 C83 1.252 1_556 S
O87 In78 2.326 1_554 S
O87 C83 1.260 . S
C88 O79 1.240 . S
C88 O80 1.252 . S
O89 In78 2.294 . S
O89 C82 1.240 . S
O90 In78 2.326 . S
O90 C82 1.252 . S
In91 O92 2.294 . S
In91 O93 2.326 . S
In91 O97 2.266 . S
In91 O98 2.326 . S
In91 O99 2.266 . S
In91 O100 2.326 . S
In91 O102 2.294 . S
In91 O103 2.326 . S
O92 In91 2.294 . S
O92 C101 1.240 . S
O93 In91 2.326 . S
O93 C101 1.252 . S
C94 O97 1.252 . S
C94 O98 1.260 . S
C95 O102 1.240 . S
C95 O103 1.252 . S
C96 O99 1.252 . S
C96 O100 1.260 . S
O97 In91 2.266 . S
O97 C94 1.252 . S
O98 In91 2.326 . S
O98 C94 1.260 . S
O99 In91 2.266 . S
O99 C96 1.252 . S
O100 In91 2.326 . S
O100 C96 1.260 . S
C101 O92 1.240 . S
C101 O93 1.252 . S
O102 In91 2.294 . S
O102 C95 1.240 . S
O103 In91 2.326 . S
O103 C95 1.252 . S
In104 O105 2.294 . S
In104 O106 2.326 . S
In104 O110 2.266 . S
In104 O111 2.326 . S
In104 O112 2.266 . S
In104 O113 2.326 1_556 S
In104 O115 2.294 . S
In104 O116 2.326 . S
O105 In104 2.294 . S
O105 C114 1.240 . S
O106 In104 2.326 . S
O106 C114 1.252 . S
C107 O110 1.252 . S
C107 O111 1.260 . S
C108 O115 1.240 . S
C108 O116 1.252 . S
C109 O112 1.252 1_554 S
C109 O113 1.260 . S
O110 In104 2.266 . S
O110 C107 1.252 . S
O111 In104 2.326 . S
O111 C107 1.260 . S
O112 In104 2.266 . S
O112 C109 1.252 1_556 S
O113 In104 2.326 1_554 S
O113 C109 1.260 . S
C114 O105 1.240 . S
C114 O106 1.252 . S
O115 In104 2.294 . S
O115 C108 1.240 . S
O116 In104 2.326 . S
O116 C108 1.252 . S
In117 O118 2.294 . S
In117 O119 2.326 . S
In117 O123 2.266 . S
In117 O124 2.326 . S
In117 O125 2.266 . S
In117 O126 2.326 . S
In117 O128 2.294 . S
In117 O129 2.326 . S
O118 In117 2.294 . S
O118 C127 1.240 . S
O119 In117 2.326 . S
O119 C127 1.252 . S
C120 O123 1.252 . S
C120 O124 1.260 . S
C121 O128 1.240 . S
C121 O129 1.252 . S
C122 O125 1.252 . S
C122 O126 1.260 . S
O123 In117 2.266 . S
O123 C120 1.252 . S
O124 In117 2.326 . S
O124 C120 1.260 . S
O125 In117 2.266 . S
O125 C122 1.252 . S
O126 In117 2.326 . S
O126 C122 1.260 . S
C127 O118 1.240 . S
C127 O119 1.252 . S
O128 In117 2.294 . S
O128 C121 1.240 . S
O129 In117 2.326 . S
O129 C121 1.252 . S
In130 O131 2.294 . S
In130 O132 2.326 . S
In130 O136 2.266 . S
In130 O137 2.326 . S
In130 O138 2.266 . S
In130 O139 2.326 . S
In130 O141 2.294 . S
In130 O142 2.326 . S
O131 In130 2.294 . S
O131 C140 1.240 . S
O132 In130 2.326 . S
O132 C140 1.252 . S
C133 O136 1.252 . S
C133 O137 1.260 . S
C134 O141 1.240 . S
C134 O142 1.252 . S
C135 O138 1.252 . S
C135 O139 1.260 . S
O136 In130 2.266 . S
O136 C133 1.252 . S
O137 In130 2.326 . S
O137 C133 1.260 . S
O138 In130 2.266 . S
O138 C135 1.252 . S
O139 In130 2.326 . S
O139 C135 1.260 . S
C140 O131 1.240 . S
C140 O132 1.252 . S
O141 In130 2.294 . S
O141 C134 1.240 . S
O142 In130 2.326 . S
O142 C134 1.252 . S
In143 O144 2.294 . S
In143 O145 2.326 . S
In143 O149 2.266 . S
In143 O150 2.326 . S
In143 O151 2.266 . S
In143 O152 2.326 . S
In143 O154 2.294 . S
In143 O155 2.326 . S
O144 In143 2.294 . S
O144 C153 1.240 . S
O145 In143 2.326 . S
O145 C153 1.252 . S
C146 O149 1.252 . S
C146 O150 1.260 . S
C147 O154 1.240 . S
C147 O155 1.252 . S
C148 O151 1.252 . S
C148 O152 1.260 . S
O149 In143 2.266 . S
O149 C146 1.252 . S
O150 In143 2.326 . S
O150 C146 1.260 . S
O151 In143 2.266 . S
O151 C148 1.252 . S
O152 In143 2.326 . S
O152 C148 1.260 . S
C153 O144 1.240 . S
C153 O145 1.252 . S
O154 In143 2.294 . S
O154 C147 1.240 . S
O155 In143 2.326 . S
O155 C147 1.252 . S
In156 O157 2.294 . S
In156 O158 2.326 . S
In156 O162 2.266 . S
In156 O163 2.326 . S
In156 O164 2.266 . S
In156 O165 2.326 . S
In156 O167 2.294 . S
In156 O168 2.326 . S
O157 In156 2.294 . S
O157 C166 1.240 . S
O158 In156 2.326 . S
O158 C166 1.252 . S
C159 O162 1.252 . S
C159 O163 1.260 . S
C160 O167 1.240 . S
C160 O168 1.252 . S
C161 O164 1.252 . S
C161 O165 1.260 . S
O162 In156 2.266 . S
O162 C159 1.252 . S
O163 In156 2.326 . S
O163 C159 1.260 . S
O164 In156 2.266 . S
O164 C161 1.252 . S
O165 In156 2.326 . S
O165 C161 1.260 . S
C166 O157 1.240 . S
C166 O158 1.252 . S
O167 In156 2.294 . S
O167 C160 1.240 . S
O168 In156 2.326 . S
O168 C160 1.252 . S
In169 O170 2.294 . S
In169 O171 2.326 . S
In169 O175 2.266 . S
In169 O176 2.326 . S
In169 O177 2.266 . S
In169 O178 2.326 . S
In169 O180 2.294 . S
In169 O181 2.326 . S
O170 In169 2.294 . S
O170 C179 1.240 . S
O171 In169 2.326 . S
O171 C179 1.252 . S
C172 O175 1.252 . S
C172 O176 1.260 . S
C173 O180 1.240 . S
C173 O181 1.252 . S
C174 O177 1.252 . S
C174 O178 1.260 . S
O175 In169 2.266 . S
O175 C172 1.252 . S
O176 In169 2.326 . S
O176 C172 1.260 . S
O177 In169 2.266 . S
O177 C174 1.252 . S
O178 In169 2.326 . S
O178 C174 1.260 . S
C179 O170 1.240 . S
C179 O171 1.252 . S
O180 In169 2.294 . S
O180 C173 1.240 . S
O181 In169 2.326 . S
O181 C173 1.252 . S
In182 O183 2.294 . S
In182 O184 2.326 . S
In182 O188 2.266 . S
In182 O189 2.326 1_554 S
In182 O190 2.266 . S
In182 O191 2.326 . S
In182 O193 2.294 . S
In182 O194 2.326 . S
O183 In182 2.294 . S
O183 C192 1.240 . S
O184 In182 2.326 . S
O184 C192 1.252 . S
C185 O188 1.252 1_556 S
C185 O189 1.260 . S
C186 O193 1.240 . S
C186 O194 1.252 . S
C187 O190 1.252 . S
C187 O191 1.260 . S
O188 In182 2.266 . S
O188 C185 1.252 1_554 S
O189 In182 2.326 1_556 S
O189 C185 1.260 . S
O190 In182 2.266 . S
O190 C187 1.252 . S
O191 In182 2.326 . S
O191 C187 1.260 . S
C192 O183 1.240 . S
C192 O184 1.252 . S
O193 In182 2.294 . S
O193 C186 1.240 . S
O194 In182 2.326 . S
O194 C186 1.252 . S
In195 O196 2.294 . S
In195 O197 2.326 . S
In195 O201 2.266 . S
In195 O202 2.326 . S
In195 O203 2.266 . S
In195 O204 2.326 . S
In195 O206 2.294 . S
In195 O207 2.326 . S
O196 In195 2.294 . S
O196 C205 1.240 . S
O197 In195 2.326 . S
O197 C205 1.252 . S
C198 O201 1.252 . S
C198 O202 1.260 . S
C199 O206 1.240 . S
C199 O207 1.252 . S
C200 O203 1.252 . S
C200 O204 1.260 . S
O201 In195 2.266 . S
O201 C198 1.252 . S
O202 In195 2.326 . S
O202 C198 1.260 . S
O203 In195 2.266 . S
O203 C200 1.252 . S
O204 In195 2.326 . S
O204 C200 1.260 . S
C205 O196 1.240 . S
C205 O197 1.252 . S
O206 In195 2.294 . S
O206 C199 1.240 . S
O207 In195 2.326 . S
O207 C199 1.252 . S
In208 O209 2.294 . S
In208 O210 2.326 . S
In208 O214 2.266 . S
In208 O215 2.326 . S
In208 O216 2.266 . S
In208 O217 2.326 . S
In208 O219 2.294 . S
In208 O220 2.326 . S
O209 In208 2.294 . S
O209 C218 1.240 . S
O210 In208 2.326 . S
O210 C218 1.252 . S
C211 O214 1.252 . S
C211 O215 1.260 . S
C212 O219 1.240 . S
C212 O220 1.252 . S
C213 O216 1.252 . S
C213 O217 1.260 . S
O214 In208 2.266 . S
O214 C211 1.252 . S
O215 In208 2.326 . S
O215 C211 1.260 . S
O216 In208 2.266 . S
O216 C213 1.252 . S
O217 In208 2.326 . S
O217 C213 1.260 . S
C218 O209 1.240 . S
C218 O210 1.252 . S
O219 In208 2.294 . S
O219 C212 1.240 . S
O220 In208 2.326 . S
O220 C212 1.252 . S
In221 O222 2.294 . S
In221 O223 2.326 . S
In221 O227 2.266 . S
In221 O228 2.326 . S
In221 O229 2.266 . S
In221 O230 2.326 . S
In221 O232 2.294 . S
In221 O233 2.326 . S
O222 In221 2.294 . S
O222 C231 1.240 . S
O223 In221 2.326 . S
O223 C231 1.252 . S
C224 O227 1.252 . S
C224 O228 1.260 . S
C225 O232 1.240 . S
C225 O233 1.252 . S
C226 O229 1.252 . S
C226 O230 1.260 . S
O227 In221 2.266 . S
O227 C224 1.252 . S
O228 In221 2.326 . S
O228 C224 1.260 . S
O229 In221 2.266 . S
O229 C226 1.252 . S
O230 In221 2.326 . S
O230 C226 1.260 . S
C231 O222 1.240 . S
C231 O223 1.252 . S
O232 In221 2.294 . S
O232 C225 1.240 . S
O233 In221 2.326 . S
O233 C225 1.252 . S
In234 O235 2.294 . S
In234 O236 2.326 . S
In234 O240 2.266 . S
In234 O241 2.326 1_554 S
In234 O242 2.266 . S
In234 O243 2.326 . S
In234 O245 2.294 . S
In234 O246 2.326 . S
O235 In234 2.294 . S
O235 C244 1.240 . S
O236 In234 2.326 . S
O236 C244 1.252 . S
C237 O240 1.252 1_556 S
C237 O241 1.260 . S
C238 O245 1.240 . S
C238 O246 1.252 . S
C239 O242 1.252 . S
C239 O243 1.260 . S
O240 In234 2.266 . S
O240 C237 1.252 1_554 S
O241 In234 2.326 1_556 S
O241 C237 1.260 . S
O242 In234 2.266 . S
O242 C239 1.252 . S
O243 In234 2.326 . S
O243 C239 1.260 . S
C244 O235 1.240 . S
C244 O236 1.252 . S
O245 In234 2.294 . S
O245 C238 1.240 . S
O246 In234 2.326 . S
O246 C238 1.252 . S
In247 O248 2.294 . S
In247 O249 2.326 . S
In247 O253 2.266 . S
In247 O254 2.326 . S
In247 O255 2.266 . S
In247 O256 2.326 . S
In247 O258 2.294 . S
In247 O259 2.326 . S
O248 In247 2.294 . S
O248 C257 1.240 . S
O249 In247 2.326 . S
O249 C257 1.252 . S
C250 O253 1.252 . S
C250 O254 1.260 . S
C251 O258 1.240 . S
C251 O259 1.252 . S
C252 O255 1.252 . S
C252 O256 1.260 . S
O253 In247 2.266 . S
O253 C250 1.252 . S
O254 In247 2.326 . S
O254 C250 1.260 . S
O255 In247 2.266 . S
O255 C252 1.252 . S
O256 In247 2.326 . S
O256 C252 1.260 . S
C257 O248 1.240 . S
C257 O249 1.252 . S
O258 In247 2.294 . S
O258 C251 1.240 . S
O259 In247 2.326 . S
O259 C251 1.252 . S
In260 O261 2.294 . S
In260 O262 2.326 . S
In260 O266 2.266 . S
In260 O267 2.326 . S
In260 O268 2.266 . S
In260 O269 2.326 1_556 S
In260 O271 2.294 . S
In260 O272 2.326 . S
O261 In260 2.294 . S
O261 C270 1.240 . S
O262 In260 2.326 . S
O262 C270 1.252 . S
C263 O266 1.252 . S
C263 O267 1.260 . S
C264 O271 1.240 . S
C264 O272 1.252 . S
C265 O268 1.252 1_554 S
C265 O269 1.260 . S
O266 In260 2.266 . S
O266 C263 1.252 . S
O267 In260 2.326 . S
O267 C263 1.260 . S
O268 In260 2.266 . S
O268 C265 1.252 1_556 S
O269 In260 2.326 1_554 S
O269 C265 1.260 . S
C270 O261 1.240 . S
C270 O262 1.252 . S
O271 In260 2.294 . S
O271 C264 1.240 . S
O272 In260 2.326 . S
O272 C264 1.252 . S
In273 O274 2.294 . S
In273 O275 2.326 . S
In273 O279 2.266 . S
In273 O280 2.326 . S
In273 O281 2.266 . S
In273 O282 2.326 . S
In273 O284 2.294 . S
In273 O285 2.326 . S
O274 In273 2.294 . S
O274 C283 1.240 . S
O275 In273 2.326 . S
O275 C283 1.252 . S
C276 O279 1.252 . S
C276 O280 1.260 . S
C277 O284 1.240 . S
C277 O285 1.252 . S
C278 O281 1.252 . S
C278 O282 1.260 . S
O279 In273 2.266 . S
O279 C276 1.252 . S
O280 In273 2.326 . S
O280 C276 1.260 . S
O281 In273 2.266 . S
O281 C278 1.252 . S
O282 In273 2.326 . S
O282 C278 1.260 . S
C283 O274 1.240 . S
C283 O275 1.252 . S
O284 In273 2.294 . S
O284 C277 1.240 . S
O285 In273 2.326 . S
O285 C277 1.252 . S
In286 O287 2.294 . S
In286 O288 2.326 . S
In286 O292 2.266 . S
In286 O293 2.326 . S
In286 O294 2.266 . S
In286 O295 2.326 . S
In286 O297 2.294 . S
In286 O298 2.326 . S
O287 In286 2.294 . S
O287 C296 1.240 . S
O288 In286 2.326 . S
O288 C296 1.252 . S
C289 O292 1.252 . S
C289 O293 1.260 . S
C290 O297 1.240 . S
C290 O298 1.252 . S
C291 O294 1.252 . S
C291 O295 1.260 . S
O292 In286 2.266 . S
O292 C289 1.252 . S
O293 In286 2.326 . S
O293 C289 1.260 . S
O294 In286 2.266 . S
O294 C291 1.252 . S
O295 In286 2.326 . S
O295 C291 1.260 . S
C296 O287 1.240 . S
C296 O288 1.252 . S
O297 In286 2.294 . S
O297 C290 1.240 . S
O298 In286 2.326 . S
O298 C290 1.252 . S
In299 O300 2.294 . S
In299 O301 2.326 . S
In299 O305 2.266 . S
In299 O306 2.326 . S
In299 O307 2.266 . S
In299 O308 2.326 . S
In299 O310 2.294 . S
In299 O311 2.326 . S
O300 In299 2.294 . S
O300 C309 1.240 . S
O301 In299 2.326 . S
O301 C309 1.252 . S
C302 O305 1.252 . S
C302 O306 1.260 . S
C303 O310 1.240 . S
C303 O311 1.252 . S
C304 O307 1.252 . S
C304 O308 1.260 . S
O305 In299 2.266 . S
O305 C302 1.252 . S
O306 In299 2.326 . S
O306 C302 1.260 . S
O307 In299 2.266 . S
O307 C304 1.252 . S
O308 In299 2.326 . S
O308 C304 1.260 . S
C309 O300 1.240 . S
C309 O301 1.252 . S
O310 In299 2.294 . S
O310 C303 1.240 . S
O311 In299 2.326 . S
O311 C303 1.252 . S
In312 O313 2.294 . S
In312 O314 2.326 . S
In312 O318 2.266 . S
In312 O319 2.326 . S
In312 O320 2.266 . S
In312 O321 2.326 . S
In312 O323 2.294 . S
In312 O324 2.326 . S
O313 In312 2.294 . S
O313 C322 1.240 . S
O314 In312 2.326 . S
O314 C322 1.252 . S
C315 O318 1.252 . S
C315 O319 1.260 . S
C316 O323 1.240 . S
C316 O324 1.252 . S
C317 O320 1.252 . S
C317 O321 1.260 . S
O318 In312 2.266 . S
O318 C315 1.252 . S
O319 In312 2.326 . S
O319 C315 1.260 . S
O320 In312 2.266 . S
O320 C317 1.252 . S
O321 In312 2.326 . S
O321 C317 1.260 . S
C322 O313 1.240 . S
C322 O314 1.252 . S
O323 In312 2.294 . S
O323 C316 1.240 . S
O324 In312 2.326 . S
O324 C316 1.252 . S
In325 O326 2.294 . S
In325 O327 2.326 . S
In325 O331 2.266 . S
In325 O332 2.326 . S
In325 O333 2.266 . S
In325 O334 2.326 . S
In325 O336 2.294 . S
In325 O337 2.326 . S
O326 In325 2.294 . S
O326 C335 1.240 . S
O327 In325 2.326 . S
O327 C335 1.252 . S
C328 O331 1.252 . S
C328 O332 1.260 . S
C329 O336 1.240 . S
C329 O337 1.252 . S
C330 O333 1.252 . S
C330 O334 1.260 . S
O331 In325 2.266 . S
O331 C328 1.252 . S
O332 In325 2.326 . S
O332 C328 1.260 . S
O333 In325 2.266 . S
O333 C330 1.252 . S
O334 In325 2.326 . S
O334 C330 1.260 . S
C335 O326 1.240 . S
C335 O327 1.252 . S
O336 In325 2.294 . S
O336 C329 1.240 . S
O337 In325 2.326 . S
O337 C329 1.252 . S
In338 O339 2.294 . S
In338 O340 2.326 . S
In338 O344 2.266 . S
In338 O345 2.326 1_556 S
In338 O346 2.266 . S
In338 O347 2.326 . S
In338 O349 2.294 . S
In338 O350 2.326 . S
O339 In338 2.294 . S
O339 C348 1.240 . S
O340 In338 2.326 . S
O340 C348 1.252 . S
C341 O344 1.252 1_554 S
C341 O345 1.260 . S
C342 O349 1.240 . S
C342 O350 1.252 . S
C343 O346 1.252 . S
C343 O347 1.260 . S
O344 In338 2.266 . S
O344 C341 1.252 1_556 S
O345 In338 2.326 1_554 S
O345 C341 1.260 . S
O346 In338 2.266 . S
O346 C343 1.252 . S
O347 In338 2.326 . S
O347 C343 1.260 . S
C348 O339 1.240 . S
C348 O340 1.252 . S
O349 In338 2.294 . S
O349 C342 1.240 . S
O350 In338 2.326 . S
O350 C342 1.252 . S
In351 O352 2.294 . S
In351 O353 2.326 . S
In351 O357 2.266 . S
In351 O358 2.326 . S
In351 O359 2.266 . S
In351 O360 2.326 . S
In351 O362 2.294 . S
In351 O363 2.326 . S
O352 In351 2.294 . S
O352 C361 1.240 . S
O353 In351 2.326 . S
O353 C361 1.252 . S
C354 O357 1.252 . S
C354 O358 1.260 . S
C355 O362 1.240 . S
C355 O363 1.252 . S
C356 O359 1.252 . S
C356 O360 1.260 . S
O357 In351 2.266 . S
O357 C354 1.252 . S
O358 In351 2.326 . S
O358 C354 1.260 . S
O359 In351 2.266 . S
O359 C356 1.252 . S
O360 In351 2.326 . S
O360 C356 1.260 . S
C361 O352 1.240 . S
C361 O353 1.252 . S
O362 In351 2.294 . S
O362 C355 1.240 . S
O363 In351 2.326 . S
O363 C355 1.252 . S
In364 O365 2.294 . S
In364 O366 2.326 . S
In364 O370 2.266 . S
In364 O371 2.326 . S
In364 O372 2.266 . S
In364 O373 2.326 1_554 S
In364 O375 2.294 . S
In364 O376 2.326 . S
O365 In364 2.294 . S
O365 C374 1.240 . S
O366 In364 2.326 . S
O366 C374 1.252 . S
C367 O370 1.252 . S
C367 O371 1.260 . S
C368 O375 1.240 . S
C368 O376 1.252 . S
C369 O372 1.252 1_556 S
C369 O373 1.260 . S
O370 In364 2.266 . S
O370 C367 1.252 . S
O371 In364 2.326 . S
O371 C367 1.260 . S
O372 In364 2.266 . S
O372 C369 1.252 1_554 S
O373 In364 2.326 1_556 S
O373 C369 1.260 . S
C374 O365 1.240 . S
C374 O366 1.252 . S
O375 In364 2.294 . S
O375 C368 1.240 . S
O376 In364 2.326 . S
O376 C368 1.252 . S
In377 O378 2.294 . S
In377 O379 2.326 . S
In377 O383 2.266 . S
In377 O384 2.326 . S
In377 O385 2.266 . S
In377 O386 2.326 . S
In377 O388 2.294 . S
In377 O389 2.326 . S
O378 In377 2.294 . S
O378 C387 1.240 . S
O379 In377 2.326 . S
O379 C387 1.252 . S
C380 O383 1.252 . S
C380 O384 1.260 . S
C381 O388 1.240 . S
C381 O389 1.252 . S
C382 O385 1.252 . S
C382 O386 1.260 . S
O383 In377 2.266 . S
O383 C380 1.252 . S
O384 In377 2.326 . S
O384 C380 1.260 . S
O385 In377 2.266 . S
O385 C382 1.252 . S
O386 In377 2.326 . S
O386 C382 1.260 . S
C387 O378 1.240 . S
C387 O379 1.252 . S
O388 In377 2.294 . S
O388 C381 1.240 . S
O389 In377 2.326 . S
O389 C381 1.252 . S
In390 O391 2.294 . S
In390 O392 2.326 . S
In390 O396 2.266 . S
In390 O397 2.326 . S
In390 O398 2.266 . S
In390 O399 2.326 . S
In390 O401 2.294 . S
In390 O402 2.326 . S
O391 In390 2.294 . S
O391 C400 1.240 . S
O392 In390 2.326 . S
O392 C400 1.252 . S
C393 O396 1.252 . S
C393 O397 1.260 . S
C394 O401 1.240 . S
C394 O402 1.252 . S
C395 O398 1.252 . S
C395 O399 1.260 . S
O396 In390 2.266 . S
O396 C393 1.252 . S
O397 In390 2.326 . S
O397 C393 1.260 . S
O398 In390 2.266 . S
O398 C395 1.252 . S
O399 In390 2.326 . S
O399 C395 1.260 . S
C400 O391 1.240 . S
C400 O392 1.252 . S
O401 In390 2.294 . S
O401 C394 1.240 . S
O402 In390 2.326 . S
O402 C394 1.252 . S
In403 O404 2.294 . S
In403 O405 2.326 . S
In403 O409 2.266 . S
In403 O410 2.326 . S
In403 O411 2.266 . S
In403 O412 2.326 . S
In403 O414 2.294 . S
In403 O415 2.326 . S
O404 In403 2.294 . S
O404 C413 1.240 . S
O405 In403 2.326 . S
O405 C413 1.252 . S
C406 O409 1.252 . S
C406 O410 1.260 . S
C407 O414 1.240 . S
C407 O415 1.252 . S
C408 O411 1.252 . S
C408 O412 1.260 . S
O409 In403 2.266 . S
O409 C406 1.252 . S
O410 In403 2.326 . S
O410 C406 1.260 . S
O411 In403 2.266 . S
O411 C408 1.252 . S
O412 In403 2.326 . S
O412 C408 1.260 . S
C413 O404 1.240 . S
C413 O405 1.252 . S
O414 In403 2.294 . S
O414 C407 1.240 . S
O415 In403 2.326 . S
O415 C407 1.252 . S
H416 C422 0.930 . S
H417 C426 0.930 . S
H418 C431 0.929 . S
H419 C429 0.929 . S
H420 C424 0.929 . S
H421 C430 0.929 . S
C422 H416 0.930 . S
C422 C423 1.367 1_554 S
C422 C430 1.378 . S
C423 C422 1.367 1_556 S
C423 C431 1.433 . S
C424 H420 0.929 . S
C424 C426 1.378 . S
C424 C428 1.350 1_556 S
C425 C428 1.463 1_556 S
C425 C430 1.350 1_556 S
C425 N433 1.427 . S
C426 H417 0.930 . S
C426 C424 1.378 . S
C426 C427 1.367 1_556 S
C427 C426 1.367 1_554 S
C427 C429 1.433 . S
C428 C424 1.350 1_554 S
C428 C425 1.463 1_554 S
C428 N432 1.427 . S
C429 H419 0.929 . S
C429 C427 1.433 . S
C429 N432 1.384 . S
C430 H421 0.929 . S
C430 C422 1.378 . S
C430 C425 1.350 1_554 S
C431 H418 0.929 . S
C431 C423 1.433 . S
C431 N433 1.384 . S
N432 C428 1.427 . S
N432 C429 1.384 . S
N433 C425 1.427 . S
N433 C431 1.384 . S
H434 C440 0.930 . S
H435 C444 0.930 . S
H436 C449 0.929 . S
H437 C447 0.929 . S
H438 C442 0.929 . S
H439 C448 0.929 . S
C440 H434 0.930 . S
C440 C441 1.367 . S
C440 C448 1.378 . S
C441 C440 1.367 . S
C441 C449 1.433 . S
C442 H438 0.929 . S
C442 C444 1.378 . S
C442 C446 1.350 . S
C443 C446 1.463 1_565 S
C443 C448 1.350 . S
C443 N451 1.427 . S
C444 H435 0.930 . S
C444 C442 1.378 . S
C444 C445 1.367 . S
C445 C444 1.367 . S
C445 C447 1.433 . S
C446 C442 1.350 . S
C446 C443 1.463 1_545 S
C446 N450 1.427 . S
C447 H437 0.929 . S
C447 C445 1.433 . S
C447 N450 1.384 . S
C448 H439 0.929 . S
C448 C440 1.378 . S
C448 C443 1.350 . S
C449 H436 0.929 . S
C449 C441 1.433 . S
C449 N451 1.384 . S
N450 C446 1.427 . S
N450 C447 1.384 . S
N451 C443 1.427 . S
N451 C449 1.384 . S
H452 C458 0.930 . S
H453 C462 0.930 . S
H454 C467 0.929 . S
H455 C465 0.929 . S
H456 C460 0.929 . S
H457 C466 0.929 . S
C458 H452 0.930 . S
C458 C459 1.367 . S
C458 C466 1.378 . S
C459 C458 1.367 . S
C459 C467 1.433 . S
C460 H456 0.929 . S
C460 C462 1.378 . S
C460 C464 1.350 . S
C461 C464 1.463 . S
C461 C466 1.350 . S
C461 N469 1.427 . S
C462 H453 0.930 . S
C462 C460 1.378 . S
C462 C463 1.367 . S
C463 C462 1.367 . S
C463 C465 1.433 . S
C464 C460 1.350 . S
C464 C461 1.463 . S
C464 N468 1.427 . S
C465 H455 0.929 . S
C465 C463 1.433 . S
C465 N468 1.384 . S
C466 H457 0.929 . S
C466 C458 1.378 . S
C466 C461 1.350 . S
C467 H454 0.929 . S
C467 C459 1.433 . S
C467 N469 1.384 . S
N468 C464 1.427 . S
N468 C465 1.384 . S
N469 C461 1.427 . S
N469 C467 1.384 . S
H470 C476 0.930 . S
H471 C480 0.930 . S
H472 C485 0.929 . S
H473 C483 0.929 . S
H474 C478 0.929 . S
H475 C484 0.929 . S
C476 H470 0.930 . S
C476 C477 1.367 . S
C476 C484 1.378 . S
C477 C476 1.367 . S
C477 C485 1.433 . S
C478 H474 0.929 . S
C478 C480 1.378 . S
C478 C482 1.350 . S
C479 C482 1.463 1_545 S
C479 C484 1.350 . S
C479 N487 1.427 . S
C480 H471 0.930 . S
C480 C478 1.378 . S
C480 C481 1.367 . S
C481 C480 1.367 . S
C481 C483 1.433 . S
C482 C478 1.350 . S
C482 C479 1.463 1_565 S
C482 N486 1.427 . S
C483 H473 0.929 . S
C483 C481 1.433 . S
C483 N486 1.384 . S
C484 H475 0.929 . S
C484 C476 1.378 . S
C484 C479 1.350 . S
C485 H472 0.929 . S
C485 C477 1.433 . S
C485 N487 1.384 . S
N486 C482 1.427 . S
N486 C483 1.384 . S
N487 C479 1.427 . S
N487 C485 1.384 . S
H488 C494 0.930 . S
H489 C498 0.930 . S
H490 C503 0.929 . S
H491 C501 0.929 . S
H492 C496 0.929 . S
H493 C502 0.929 . S
C494 H488 0.930 . S
C494 C495 1.367 . S
C494 C502 1.378 . S
C495 C494 1.367 . S
C495 C503 1.433 1_554 S
C496 H492 0.929 . S
C496 C498 1.378 . S
C496 C500 1.350 . S
C497 C500 1.463 1_554 S
C497 C502 1.350 . S
C497 N505 1.427 1_554 S
C498 H489 0.930 . S
C498 C496 1.378 . S
C498 C499 1.367 . S
C499 C498 1.367 . S
C499 C501 1.433 1_556 S
C500 C496 1.350 . S
C500 C497 1.463 1_556 S
C500 N504 1.427 1_556 S
C501 H491 0.929 . S
C501 C499 1.433 1_554 S
C501 N504 1.384 . S
C502 H493 0.929 . S
C502 C494 1.378 . S
C502 C497 1.350 . S
C503 H490 0.929 . S
C503 C495 1.433 1_556 S
C503 N505 1.384 . S
N504 C500 1.427 1_554 S
N504 C501 1.384 . S
N505 C497 1.427 1_556 S
N505 C503 1.384 . S
H506 C512 0.930 . S
H507 C516 0.930 . S
H508 C521 0.929 . S
H509 C519 0.929 . S
H510 C514 0.929 . S
H511 C520 0.929 . S
C512 H506 0.930 . S
C512 C513 1.367 . S
C512 C520 1.378 . S
C513 C512 1.367 . S
C513 C521 1.433 . S
C514 H510 0.929 . S
C514 C516 1.378 . S
C514 C518 1.350 . S
C515 C518 1.463 1_565 S
C515 C520 1.350 . S
C515 N523 1.427 . S
C516 H507 0.930 . S
C516 C514 1.378 . S
C516 C517 1.367 . S
C517 C516 1.367 . S
C517 C519 1.433 . S
C518 C514 1.350 . S
C518 C515 1.463 1_545 S
C518 N522 1.427 . S
C519 H509 0.929 . S
C519 C517 1.433 . S
C519 N522 1.384 . S
C520 H511 0.929 . S
C520 C512 1.378 . S
C520 C515 1.350 . S
C521 H508 0.929 . S
C521 C513 1.433 . S
C521 N523 1.384 . S
N522 C518 1.427 . S
N522 C519 1.384 . S
N523 C515 1.427 . S
N523 C521 1.384 . S
H524 C530 0.930 . S
H525 C534 0.930 . S
H526 C539 0.929 . S
H527 C537 0.929 . S
H528 C532 0.929 . S
H529 C538 0.929 . S
C530 H524 0.930 . S
C530 C531 1.367 . S
C530 C538 1.378 . S
C531 C530 1.367 . S
C531 C539 1.433 . S
C532 H528 0.929 . S
C532 C534 1.378 . S
C532 C536 1.350 . S
C533 C536 1.463 . S
C533 C538 1.350 . S
C533 N541 1.427 . S
C534 H525 0.930 . S
C534 C532 1.378 . S
C534 C535 1.367 . S
C535 C534 1.367 . S
C535 C537 1.433 . S
C536 C532 1.350 . S
C536 C533 1.463 . S
C536 N540 1.427 . S
C537 H527 0.929 . S
C537 C535 1.433 . S
C537 N540 1.384 . S
C538 H529 0.929 . S
C538 C530 1.378 . S
C538 C533 1.350 . S
C539 H526 0.929 . S
C539 C531 1.433 . S
C539 N541 1.384 . S
N540 C536 1.427 . S
N540 C537 1.384 . S
N541 C533 1.427 . S
N541 C539 1.384 . S
H542 C548 0.930 . S
H543 C552 0.930 . S
H544 C557 0.929 . S
H545 C555 0.929 . S
H546 C550 0.929 . S
H547 C556 0.929 . S
C548 H542 0.930 . S
C548 C549 1.367 . S
C548 C556 1.378 . S
C549 C548 1.367 . S
C549 C557 1.433 . S
C550 H546 0.929 . S
C550 C552 1.378 . S
C550 C554 1.350 . S
C551 C554 1.463 1_565 S
C551 C556 1.350 . S
C551 N559 1.427 . S
C552 H543 0.930 . S
C552 C550 1.378 . S
C552 C553 1.367 . S
C553 C552 1.367 . S
C553 C555 1.433 . S
C554 C550 1.350 . S
C554 C551 1.463 1_545 S
C554 N558 1.427 . S
C555 H545 0.929 . S
C555 C553 1.433 . S
C555 N558 1.384 . S
C556 H547 0.929 . S
C556 C548 1.378 . S
C556 C551 1.350 . S
C557 H544 0.929 . S
C557 C549 1.433 . S
C557 N559 1.384 . S
N558 C554 1.427 . S
N558 C555 1.384 . S
N559 C551 1.427 . S
N559 C557 1.384 . S
H560 C566 0.930 . S
H561 C570 0.930 . S
H562 C575 0.929 . S
H563 C573 0.929 . S
H564 C568 0.929 . S
H565 C574 0.929 . S
C566 H560 0.930 . S
C566 C567 1.367 . S
C566 C574 1.378 . S
C567 C566 1.367 . S
C567 C575 1.433 . S
C568 H564 0.929 . S
C568 C570 1.378 . S
C568 C572 1.350 . S
C569 C572 1.463 . S
C569 C574 1.350 . S
C569 N577 1.427 . S
C570 H561 0.930 . S
C570 C568 1.378 . S
C570 C571 1.367 . S
C571 C570 1.367 . S
C571 C573 1.433 . S
C572 C568 1.350 . S
C572 C569 1.463 . S
C572 N576 1.427 . S
C573 H563 0.929 . S
C573 C571 1.433 . S
C573 N576 1.384 . S
C574 H565 0.929 . S
C574 C566 1.378 . S
C574 C569 1.350 . S
C575 H562 0.929 . S
C575 C567 1.433 . S
C575 N577 1.384 . S
N576 C572 1.427 . S
N576 C573 1.384 . S
N577 C569 1.427 . S
N577 C575 1.384 . S
H578 C584 0.930 . S
H579 C588 0.930 . S
H580 C593 0.929 . S
H581 C591 0.929 . S
H582 C586 0.929 . S
H583 C592 0.929 . S
C584 H578 0.930 . S
C584 C585 1.367 . S
C584 C592 1.378 . S
C585 C584 1.367 . S
C585 C593 1.433 . S
C586 H582 0.929 . S
C586 C588 1.378 . S
C586 C590 1.350 . S
C587 C590 1.463 . S
C587 C592 1.350 . S
C587 N595 1.427 . S
C588 H579 0.930 . S
C588 C586 1.378 . S
C588 C589 1.367 . S
C589 C588 1.367 . S
C589 C591 1.433 . S
C590 C586 1.350 . S
C590 C587 1.463 . S
C590 N594 1.427 . S
C591 H581 0.929 . S
C591 C589 1.433 . S
C591 N594 1.384 . S
C592 H583 0.929 . S
C592 C584 1.378 . S
C592 C587 1.350 . S
C593 H580 0.929 . S
C593 C585 1.433 . S
C593 N595 1.384 . S
N594 C590 1.427 . S
N594 C591 1.384 . S
N595 C587 1.427 . S
N595 C593 1.384 . S
H596 C602 0.930 . S
H597 C606 0.930 . S
H598 C611 0.929 . S
H599 C609 0.929 . S
H600 C604 0.931 . S
H601 C610 0.931 . S
C602 H596 0.930 . S
C602 C603 1.367 . S
C602 C610 1.378 . S
C603 C602 1.367 . S
C603 C611 1.433 . S
C604 H600 0.931 . S
C604 C606 1.378 . S
C604 C608 1.350 . S
C605 C608 1.463 1_556 S
C605 C610 1.350 . S
C605 N613 1.427 . S
C606 H597 0.930 . S
C606 C604 1.378 . S
C606 C607 1.367 . S
C607 C606 1.367 . S
C607 C609 1.433 . S
C608 C604 1.350 . S
C608 C605 1.463 1_554 S
C608 N612 1.427 . S
C609 H599 0.929 . S
C609 C607 1.433 . S
C609 N612 1.384 . S
C610 H601 0.931 . S
C610 C602 1.378 . S
C610 C605 1.350 . S
C611 H598 0.929 . S
C611 C603 1.433 . S
C611 N613 1.384 . S
N612 C608 1.427 . S
N612 C609 1.384 . S
N613 C605 1.427 . S
N613 C611 1.384 . S
H614 C620 0.930 . S
H615 C624 0.930 . S
H616 C629 0.929 . S
H617 C627 0.929 . S
H618 C622 0.929 . S
H619 C628 0.929 . S
C620 H614 0.930 . S
C620 C621 1.367 . S
C620 C628 1.378 . S
C621 C620 1.367 . S
C621 C629 1.433 . S
C622 H618 0.929 . S
C622 C624 1.378 . S
C622 C626 1.350 . S
C623 C626 1.463 . S
C623 C628 1.350 . S
C623 N631 1.427 . S
C624 H615 0.930 . S
C624 C622 1.378 . S
C624 C625 1.367 . S
C625 C624 1.367 . S
C625 C627 1.433 . S
C626 C622 1.350 . S
C626 C623 1.463 . S
C626 N630 1.427 . S
C627 H617 0.929 . S
C627 C625 1.433 . S
C627 N630 1.384 . S
C628 H619 0.929 . S
C628 C620 1.378 . S
C628 C623 1.350 . S
C629 H616 0.929 . S
C629 C621 1.433 . S
C629 N631 1.384 . S
N630 C626 1.427 . S
N630 C627 1.384 . S
N631 C623 1.427 . S
N631 C629 1.384 . S
H632 C638 0.930 . S
H633 C642 0.930 . S
H634 C647 0.929 . S
H635 C645 0.929 . S
H636 C640 0.929 . S
H637 C646 0.929 . S
C638 H632 0.930 . S
C638 C639 1.367 . S
C638 C646 1.378 . S
C639 C638 1.367 . S
C639 C647 1.433 . S
C640 H636 0.929 . S
C640 C642 1.378 . S
C640 C644 1.350 . S
C641 C644 1.463 . S
C641 C646 1.350 . S
C641 N649 1.427 . S
C642 H633 0.930 . S
C642 C640 1.378 . S
C642 C643 1.367 . S
C643 C642 1.367 . S
C643 C645 1.433 . S
C644 C640 1.350 . S
C644 C641 1.463 . S
C644 N648 1.427 . S
C645 H635 0.929 . S
C645 C643 1.433 . S
C645 N648 1.384 . S
C646 H637 0.929 . S
C646 C638 1.378 . S
C646 C641 1.350 . S
C647 H634 0.929 . S
C647 C639 1.433 . S
C647 N649 1.384 . S
N648 C644 1.427 . S
N648 C645 1.384 . S
N649 C641 1.427 . S
N649 C647 1.384 . S
H650 C656 0.930 . S
H651 C660 0.930 . S
H652 C665 0.929 . S
H653 C663 0.929 . S
H654 C658 0.929 . S
H655 C664 0.929 . S
C656 H650 0.930 . S
C656 C657 1.367 . S
C656 C664 1.378 . S
C657 C656 1.367 . S
C657 C665 1.433 . S
C658 H654 0.929 . S
C658 C660 1.378 . S
C658 C662 1.350 . S
C659 C662 1.463 . S
C659 C664 1.350 . S
C659 N667 1.427 . S
C660 H651 0.930 . S
C660 C658 1.378 . S
C660 C661 1.367 . S
C661 C660 1.367 . S
C661 C663 1.433 . S
C662 C658 1.350 . S
C662 C659 1.463 . S
C662 N666 1.427 . S
C663 H653 0.929 . S
C663 C661 1.433 . S
C663 N666 1.384 . S
C664 H655 0.929 . S
C664 C656 1.378 . S
C664 C659 1.350 . S
C665 H652 0.929 . S
C665 C657 1.433 . S
C665 N667 1.384 . S
N666 C662 1.427 . S
N666 C663 1.384 . S
N667 C659 1.427 . S
N667 C665 1.384 . S
H668 C674 0.930 . S
H669 C678 0.930 . S
H670 C683 0.929 . S
H671 C681 0.929 . S
H672 C676 0.929 . S
H673 C682 0.929 . S
C674 H668 0.930 . S
C674 C675 1.367 . S
C674 C682 1.378 . S
C675 C674 1.367 . S
C675 C683 1.433 . S
C676 H672 0.929 . S
C676 C678 1.378 . S
C676 C680 1.350 . S
C677 C680 1.463 1_554 S
C677 C682 1.350 . S
C677 N685 1.427 . S
C678 H669 0.930 . S
C678 C676 1.378 . S
C678 C679 1.367 . S
C679 C678 1.367 . S
C679 C681 1.433 . S
C680 C676 1.350 . S
C680 C677 1.463 1_556 S
C680 N684 1.427 . S
C681 H671 0.929 . S
C681 C679 1.433 . S
C681 N684 1.384 . S
C682 H673 0.929 . S
C682 C674 1.378 . S
C682 C677 1.350 . S
C683 H670 0.929 . S
C683 C675 1.433 . S
C683 N685 1.384 . S
N684 C680 1.427 . S
N684 C681 1.384 . S
N685 C677 1.427 . S
N685 C683 1.384 . S
H686 C692 0.930 . S
H687 C696 0.930 . S
H688 C701 0.929 . S
H689 C699 0.929 . S
H690 C694 0.929 . S
H691 C700 0.929 . S
C692 H686 0.930 . S
C692 C693 1.367 . S
C692 C700 1.378 . S
C693 C692 1.367 . S
C693 C701 1.433 . S
C694 H690 0.929 . S
C694 C696 1.378 . S
C694 C698 1.350 . S
C695 C698 1.463 . S
C695 C700 1.350 . S
C695 N703 1.427 . S
C696 H687 0.930 . S
C696 C694 1.378 . S
C696 C697 1.367 . S
C697 C696 1.367 . S
C697 C699 1.433 . S
C698 C694 1.350 . S
C698 C695 1.463 . S
C698 N702 1.427 . S
C699 H689 0.929 . S
C699 C697 1.433 . S
C699 N702 1.384 . S
C700 H691 0.929 . S
C700 C692 1.378 . S
C700 C695 1.350 . S
C701 H688 0.929 . S
C701 C693 1.433 . S
C701 N703 1.384 . S
N702 C698 1.427 . S
N702 C699 1.384 . S
N703 C695 1.427 . S
N703 C701 1.384 . S
H704 C710 0.930 . S
H705 C714 0.930 . S
H706 C719 0.929 . S
H707 C717 0.929 . S
H708 C712 0.929 . S
H709 C718 0.929 . S
C710 H704 0.930 . S
C710 C711 1.367 . S
C710 C718 1.378 . S
C711 C710 1.367 . S
C711 C719 1.433 . S
C712 H708 0.929 . S
C712 C714 1.378 . S
C712 C716 1.350 . S
C713 C716 1.463 . S
C713 C718 1.350 . S
C713 N721 1.427 . S
C714 H705 0.930 . S
C714 C712 1.378 . S
C714 C715 1.367 . S
C715 C714 1.367 . S
C715 C717 1.433 . S
C716 C712 1.350 . S
C716 C713 1.463 . S
C716 N720 1.427 . S
C717 H707 0.929 . S
C717 C715 1.433 . S
C717 N720 1.384 . S
C718 H709 0.929 . S
C718 C710 1.378 . S
C718 C713 1.350 . S
C719 H706 0.929 . S
C719 C711 1.433 . S
C719 N721 1.384 . S
N720 C716 1.427 . S
N720 C717 1.384 . S
N721 C713 1.427 . S
N721 C719 1.384 . S
H722 C728 0.930 . S
H723 C732 0.930 . S
H724 C737 0.914 1_655 S
H725 C735 0.908 1_455 S
H726 C730 0.929 . S
H727 C736 0.929 . S
C728 H722 0.930 . S
C728 C729 1.367 . S
C728 C736 1.378 1_556 S
C729 C728 1.367 . S
C729 C737 1.463 . S
C730 H726 0.929 . S
C730 C732 1.378 . S
C730 C734 1.350 . S
C731 C734 1.463 1_455 S
C731 C736 1.350 . S
C731 N739 1.427 1_455 S
C732 H723 0.930 . S
C732 C730 1.378 . S
C732 C733 1.367 . S
C733 C732 1.367 . S
C733 C735 1.477 . S
C734 C730 1.350 . S
C734 C731 1.463 1_655 S
C734 N738 1.427 1_655 S
C735 H725 0.908 1_655 S
C735 C733 1.477 . S
C735 N738 1.367 1_655 S
C736 H727 0.929 . S
C736 C728 1.378 1_554 S
C736 C731 1.350 . S
C737 H724 0.914 1_455 S
C737 C729 1.463 . S
C737 N739 1.372 1_456 S
N738 C734 1.427 1_455 S
N738 C735 1.367 1_455 S
N739 C731 1.427 1_655 S
N739 C737 1.372 1_654 S
H740 C746 0.930 . S
H741 C750 0.930 . S
H742 C755 0.929 . S
H743 C753 0.929 . S
H744 C748 0.929 . S
H745 C754 0.929 . S
C746 H740 0.930 . S
C746 C747 1.367 . S
C746 C754 1.378 . S
C747 C746 1.367 . S
C747 C755 1.433 . S
C748 H744 0.929 . S
C748 C750 1.378 . S
C748 C752 1.350 . S
C749 C752 1.463 . S
C749 C754 1.350 . S
C749 N757 1.427 . S
C750 H741 0.930 . S
C750 C748 1.378 . S
C750 C751 1.367 . S
C751 C750 1.367 . S
C751 C753 1.433 . S
C752 C748 1.350 . S
C752 C749 1.463 . S
C752 N756 1.427 . S
C753 H743 0.929 . S
C753 C751 1.433 . S
C753 N756 1.384 . S
C754 H745 0.929 . S
C754 C746 1.378 . S
C754 C749 1.350 . S
C755 H742 0.929 . S
C755 C747 1.433 . S
C755 N757 1.384 . S
N756 C752 1.427 . S
N756 C753 1.384 . S
N757 C749 1.427 . S
N757 C755 1.384 . S
H758 C764 0.930 . S
H759 C768 0.930 . S
H760 C773 0.929 . S
H761 C771 0.929 . S
H762 C766 0.929 . S
H763 C772 0.929 . S
C764 H758 0.930 . S
C764 C765 1.367 . S
C764 C772 1.378 . S
C765 C764 1.367 . S
C765 C773 1.433 . S
C766 H762 0.929 . S
C766 C768 1.378 . S
C766 C770 1.350 . S
C767 C770 1.463 . S
C767 C772 1.350 . S
C767 N775 1.427 . S
C768 H759 0.930 . S
C768 C766 1.378 . S
C768 C769 1.367 . S
C769 C768 1.367 . S
C769 C771 1.433 . S
C770 C766 1.350 . S
C770 C767 1.463 . S
C770 N774 1.427 . S
C771 H761 0.929 . S
C771 C769 1.433 . S
C771 N774 1.384 . S
C772 H763 0.929 . S
C772 C764 1.378 . S
C772 C767 1.350 . S
C773 H760 0.929 . S
C773 C765 1.433 . S
C773 N775 1.384 . S
N774 C770 1.427 . S
N774 C771 1.384 . S
N775 C767 1.427 . S
N775 C773 1.384 . S
H776 C782 0.930 . S
H777 C786 0.930 . S
H778 C791 0.929 . S
H779 C789 0.929 . S
H780 C784 0.929 . S
H781 C790 0.929 . S
C782 H776 0.930 . S
C782 C783 1.367 . S
C782 C790 1.378 . S
C783 C782 1.367 . S
C783 C791 1.433 . S
C784 H780 0.929 . S
C784 C786 1.378 . S
C784 C788 1.350 . S
C785 C788 1.463 . S
C785 C790 1.350 . S
C785 N793 1.427 . S
C786 H777 0.930 . S
C786 C784 1.378 . S
C786 C787 1.367 . S
C787 C786 1.367 . S
C787 C789 1.433 . S
C788 C784 1.350 . S
C788 C785 1.463 . S
C788 N792 1.427 . S
C789 H779 0.929 . S
C789 C787 1.433 . S
C789 N792 1.384 . S
C790 H781 0.929 . S
C790 C782 1.378 . S
C790 C785 1.350 . S
C791 H778 0.929 . S
C791 C783 1.433 . S
C791 N793 1.384 . S
N792 C788 1.427 . S
N792 C789 1.384 . S
N793 C785 1.427 . S
N793 C791 1.384 . S
H794 C800 0.930 . S
H795 C804 0.930 . S
H796 C809 0.929 . S
H797 C807 0.929 . S
H798 C802 0.929 . S
H799 C808 0.929 . S
C800 H794 0.930 . S
C800 C801 1.367 . S
C800 C808 1.378 1_554 S
C801 C800 1.367 . S
C801 C809 1.433 . S
C802 H798 0.929 . S
C802 C804 1.378 . S
C802 C806 1.350 . S
C803 C806 1.463 . S
C803 C808 1.350 . S
C803 N811 1.427 . S
C804 H795 0.930 . S
C804 C802 1.378 . S
C804 C805 1.367 . S
C805 C804 1.367 . S
C805 C807 1.433 . S
C806 C802 1.350 . S
C806 C803 1.463 . S
C806 N810 1.427 . S
C807 H797 0.929 . S
C807 C805 1.433 . S
C807 N810 1.384 . S
C808 H799 0.929 . S
C808 C800 1.378 1_556 S
C808 C803 1.350 . S
C809 H796 0.929 . S
C809 C801 1.433 . S
C809 N811 1.384 1_554 S
N810 C806 1.427 . S
N810 C807 1.384 . S
N811 C803 1.427 . S
N811 C809 1.384 1_556 S
H812 C818 0.930 . S
H813 C822 0.930 . S
H814 C827 0.929 . S
H815 C825 0.929 . S
H816 C820 0.929 . S
H817 C826 0.929 . S
C818 H812 0.930 . S
C818 C819 1.367 . S
C818 C826 1.378 . S
C819 C818 1.367 . S
C819 C827 1.433 . S
C820 H816 0.929 . S
C820 C822 1.378 . S
C820 C824 1.350 . S
C821 C824 1.463 . S
C821 C826 1.350 . S
C821 N829 1.427 . S
C822 H813 0.930 . S
C822 C820 1.378 . S
C822 C823 1.367 . S
C823 C822 1.367 . S
C823 C825 1.433 . S
C824 C820 1.350 . S
C824 C821 1.463 . S
C824 N828 1.427 . S
C825 H815 0.929 . S
C825 C823 1.433 . S
C825 N828 1.384 . S
C826 H817 0.929 . S
C826 C818 1.378 . S
C826 C821 1.350 . S
C827 H814 0.929 . S
C827 C819 1.433 . S
C827 N829 1.384 . S
N828 C824 1.427 . S
N828 C825 1.384 . S
N829 C821 1.427 . S
N829 C827 1.384 . S
H830 C836 0.930 . S
H831 C840 0.930 . S
H832 C845 0.929 . S
H833 C843 0.929 . S
H834 C838 0.929 . S
H835 C844 0.929 . S
C836 H830 0.930 . S
C836 C837 1.367 . S
C836 C844 1.378 . S
C837 C836 1.367 . S
C837 C845 1.433 . S
C838 H834 0.929 . S
C838 C840 1.378 . S
C838 C842 1.350 . S
C839 C842 1.463 1_455 S
C839 C844 1.350 . S
C839 N847 1.420 1_455 S
C840 H831 0.930 . S
C840 C838 1.378 . S
C840 C841 1.367 . S
C841 C840 1.367 . S
C841 C843 1.433 . S
C842 C838 1.350 . S
C842 C839 1.463 1_655 S
C842 N846 1.423 1_655 S
C843 H833 0.929 . S
C843 C841 1.433 . S
C843 N846 1.377 1_655 S
C844 H835 0.929 . S
C844 C836 1.378 . S
C844 C839 1.350 . S
C845 H832 0.929 . S
C845 C837 1.433 . S
C845 N847 1.372 1_455 S
N846 C842 1.423 1_455 S
N846 C843 1.377 1_455 S
N847 C839 1.420 1_655 S
N847 C845 1.372 1_655 S
H848 C854 0.930 . S
H849 C858 0.930 . S
H850 C863 0.929 . S
H851 C861 0.929 . S
H852 C856 0.929 . S
H853 C862 0.929 . S
C854 H848 0.930 . S
C854 C855 1.367 . S
C854 C862 1.378 . S
C855 C854 1.367 . S
C855 C863 1.433 . S
C856 H852 0.929 . S
C856 C858 1.378 . S
C856 C860 1.350 . S
C857 C860 1.463 . S
C857 C862 1.350 . S
C857 N865 1.427 . S
C858 H849 0.930 . S
C858 C856 1.378 . S
C858 C859 1.367 . S
C859 C858 1.367 . S
C859 C861 1.433 . S
C860 C856 1.350 . S
C860 C857 1.463 . S
C860 N864 1.427 . S
C861 H851 0.929 . S
C861 C859 1.433 . S
C861 N864 1.384 . S
C862 H853 0.929 . S
C862 C854 1.378 . S
C862 C857 1.350 . S
C863 H850 0.929 . S
C863 C855 1.433 . S
C863 N865 1.384 . S
N864 C860 1.427 . S
N864 C861 1.384 . S
N865 C857 1.427 . S
N865 C863 1.384 . S
H866 C872 0.930 . S
H867 C876 0.930 . S
H868 C881 0.929 . S
H869 C879 0.929 . S
H870 C874 0.929 . S
H871 C880 0.929 . S
C872 H866 0.930 . S
C872 C873 1.367 1_455 S
C872 C880 1.378 1_554 S
C873 C872 1.367 1_655 S
C873 C881 1.433 . S
C874 H870 0.929 . S
C874 C876 1.378 . S
C874 C878 1.350 1_655 S
C875 C878 1.463 1_655 S
C875 C880 1.350 1_655 S
C875 N883 1.427 . S
C876 H867 0.930 . S
C876 C874 1.378 . S
C876 C877 1.367 1_655 S
C877 C876 1.367 1_455 S
C877 C879 1.433 . S
C878 C874 1.350 1_455 S
C878 C875 1.463 1_455 S
C878 N882 1.427 . S
C879 H869 0.929 . S
C879 C877 1.433 . S
C879 N882 1.384 . S
C880 H871 0.929 . S
C880 C872 1.378 1_556 S
C880 C875 1.350 1_455 S
C881 H868 0.929 . S
C881 C873 1.433 . S
C881 N883 1.384 1_554 S
N882 C878 1.427 . S
N882 C879 1.384 . S
N883 C875 1.427 . S
N883 C881 1.384 1_556 S
H884 C890 0.930 . S
H885 C894 0.930 . S
H886 C899 0.929 . S
H887 C897 0.929 . S
H888 C892 0.929 . S
H889 C898 0.929 . S
C890 H884 0.930 . S
C890 C891 1.367 . S
C890 C898 1.378 . S
C891 C890 1.367 . S
C891 C899 1.433 . S
C892 H888 0.929 . S
C892 C894 1.378 . S
C892 C896 1.350 . S
C893 C896 1.463 . S
C893 C898 1.350 . S
C893 N901 1.427 . S
C894 H885 0.930 . S
C894 C892 1.378 . S
C894 C895 1.367 . S
C895 C894 1.367 . S
C895 C897 1.433 . S
C896 C892 1.350 . S
C896 C893 1.463 . S
C896 N900 1.427 . S
C897 H887 0.929 . S
C897 C895 1.433 . S
C897 N900 1.384 . S
C898 H889 0.929 . S
C898 C890 1.378 . S
C898 C893 1.350 . S
C899 H886 0.929 . S
C899 C891 1.433 . S
C899 N901 1.384 . S
N900 C896 1.427 . S
N900 C897 1.384 . S
N901 C893 1.427 . S
N901 C899 1.384 . S
H902 C908 0.930 . S
H903 C912 0.930 . S
H904 C917 0.929 . S
H905 C915 0.929 . S
H906 C910 0.929 . S
H907 C916 0.929 . S
C908 H902 0.930 . S
C908 C909 1.367 . S
C908 C916 1.378 . S
C909 C908 1.367 . S
C909 C917 1.433 . S
C910 H906 0.929 . S
C910 C912 1.378 . S
C910 C914 1.350 . S
C911 C914 1.463 . S
C911 C916 1.350 . S
C911 N919 1.427 . S
C912 H903 0.930 . S
C912 C910 1.378 . S
C912 C913 1.367 . S
C913 C912 1.367 . S
C913 C915 1.433 . S
C914 C910 1.350 . S
C914 C911 1.463 . S
C914 N918 1.427 . S
C915 H905 0.929 . S
C915 C913 1.433 . S
C915 N918 1.384 . S
C916 H907 0.929 . S
C916 C908 1.378 . S
C916 C911 1.350 . S
C917 H904 0.929 . S
C917 C909 1.433 . S
C917 N919 1.384 . S
N918 C914 1.427 . S
N918 C915 1.384 . S
N919 C911 1.427 . S
N919 C917 1.384 . S
H920 C926 0.930 . S
H921 C930 0.930 . S
H922 C935 0.929 . S
H923 C933 0.929 . S
H924 C928 0.929 . S
H925 C934 0.929 . S
C926 H920 0.930 . S
C926 C927 1.367 . S
C926 C934 1.378 . S
C927 C926 1.367 . S
C927 C935 1.433 . S
C928 H924 0.929 . S
C928 C930 1.378 . S
C928 C932 1.350 . S
C929 C932 1.463 . S
C929 C934 1.350 . S
C929 N937 1.427 . S
C930 H921 0.930 . S
C930 C928 1.378 . S
C930 C931 1.367 . S
C931 C930 1.367 . S
C931 C933 1.433 . S
C932 C928 1.350 . S
C932 C929 1.463 . S
C932 N936 1.427 . S
C933 H923 0.929 . S
C933 C931 1.433 . S
C933 N936 1.384 . S
C934 H925 0.929 . S
C934 C926 1.378 . S
C934 C929 1.350 . S
C935 H922 0.929 . S
C935 C927 1.433 . S
C935 N937 1.384 . S
N936 C932 1.427 . S
N936 C933 1.384 . S
N937 C929 1.427 . S
N937 C935 1.384 . S
H938 C944 0.930 . S
H939 C948 0.930 . S
H940 C953 0.929 . S
H941 C951 0.929 . S
H942 C946 0.929 . S
H943 C952 0.929 . S
C944 H938 0.930 . S
C944 C945 1.367 . S
C944 C952 1.378 . S
C945 C944 1.367 . S
C945 C953 1.433 . S
C946 H942 0.929 . S
C946 C948 1.378 1_554 S
C946 C950 1.350 . S
C947 C950 1.463 . S
C947 C952 1.350 . S
C947 N955 1.427 . S
C948 H939 0.930 . S
C948 C946 1.378 1_556 S
C948 C949 1.367 . S
C949 C948 1.367 . S
C949 C951 1.433 . S
C950 C946 1.350 . S
C950 C947 1.463 . S
C950 N954 1.427 . S
C951 H941 0.929 . S
C951 C949 1.433 . S
C951 N954 1.384 1_556 S
C952 H943 0.929 . S
C952 C944 1.378 . S
C952 C947 1.350 . S
C953 H940 0.929 . S
C953 C945 1.433 . S
C953 N955 1.384 . S
N954 C950 1.427 . S
N954 C951 1.384 1_554 S
N955 C947 1.427 . S
N955 C953 1.384 . S
H956 C962 0.930 . S
H957 C966 0.930 . S
H958 C971 0.929 . S
H959 C969 0.929 . S
H960 C964 0.929 . S
H961 C970 0.929 . S
C962 H956 0.930 . S
C962 C963 1.367 . S
C962 C970 1.378 . S
C963 C962 1.367 . S
C963 C971 1.433 . S
C964 H960 0.929 . S
C964 C966 1.378 . S
C964 C968 1.350 . S
C965 C968 1.463 . S
C965 C970 1.350 . S
C965 N973 1.427 . S
C966 H957 0.930 . S
C966 C964 1.378 . S
C966 C967 1.367 . S
C967 C966 1.367 . S
C967 C969 1.433 . S
C968 C964 1.350 . S
C968 C965 1.463 . S
C968 N972 1.427 . S
C969 H959 0.929 . S
C969 C967 1.433 . S
C969 N972 1.384 . S
C970 H961 0.929 . S
C970 C962 1.378 . S
C970 C965 1.350 . S
C971 H958 0.929 . S
C971 C963 1.433 . S
C971 N973 1.384 . S
N972 C968 1.427 . S
N972 C969 1.384 . S
N973 C965 1.427 . S
N973 C971 1.384 . S
H974 C980 0.918 1_455 S
H975 C984 0.911 1_655 S
H976 C989 0.929 . S
H977 C987 0.929 . S
H978 C982 0.929 . S
H979 C988 0.929 . S
C980 H974 0.918 1_655 S
C980 C981 1.391 . S
C980 C988 1.368 1_655 S
C981 C980 1.391 . S
C981 C989 1.433 . S
C982 H978 0.929 . S
C982 C984 1.363 1_655 S
C982 C986 1.350 1_655 S
C983 C986 1.463 1_655 S
C983 C988 1.350 1_655 S
C983 N991 1.427 . S
C984 H975 0.911 1_455 S
C984 C982 1.363 1_455 S
C984 C985 1.405 . S
C985 C984 1.405 . S
C985 C987 1.433 . S
C986 C982 1.350 1_455 S
C986 C983 1.463 1_455 S
C986 N990 1.427 . S
C987 H977 0.929 . S
C987 C985 1.433 . S
C987 N990 1.384 . S
C988 H979 0.929 . S
C988 C980 1.368 1_455 S
C988 C983 1.350 1_455 S
C989 H976 0.929 . S
C989 C981 1.433 . S
C989 N991 1.384 . S
N990 C986 1.427 . S
N990 C987 1.384 . S
N991 C983 1.427 . S
N991 C989 1.384 . S
H992 C998 0.930 . S
H993 C1002 0.930 . S
H994 C1007 0.929 . S
H995 C1005 0.929 . S
H996 C1000 0.929 . S
H997 C1006 0.929 . S
C998 H992 0.930 . S
C998 C999 1.367 . S
C998 C1006 1.378 . S
C999 C998 1.367 . S
C999 C1007 1.433 . S
C1000 H996 0.929 . S
C1000 C1002 1.378 . S
C1000 C1004 1.350 . S
C1001 C1004 1.463 . S
C1001 C1006 1.350 . S
C1001 N1009 1.427 . S
C1002 H993 0.930 . S
C1002 C1000 1.378 . S
C1002 C1003 1.367 . S
C1003 C1002 1.367 . S
C1003 C1005 1.433 . S
C1004 C1000 1.350 . S
C1004 C1001 1.463 . S
C1004 N1008 1.427 . S
C1005 H995 0.929 . S
C1005 C1003 1.433 . S
C1005 N1008 1.384 . S
C1006 H997 0.929 . S
C1006 C998 1.378 . S
C1006 C1001 1.350 . S
C1007 H994 0.929 . S
C1007 C999 1.433 . S
C1007 N1009 1.384 . S
N1008 C1004 1.427 . S
N1008 C1005 1.384 . S
N1009 C1001 1.427 . S
N1009 C1007 1.384 . S
H1010 C1016 0.930 . S
H1011 C1020 0.930 . S
H1012 C1025 0.929 . S
H1013 C1023 0.929 . S
H1014 C1018 0.929 . S
H1015 C1024 0.929 . S
C1016 H1010 0.930 . S
C1016 C1017 1.367 . S
C1016 C1024 1.378 . S
C1017 C1016 1.367 . S
C1017 C1025 1.433 . S
C1018 H1014 0.929 . S
C1018 C1020 1.378 . S
C1018 C1022 1.350 . S
C1019 C1022 1.463 . S
C1019 C1024 1.350 . S
C1019 N1027 1.427 . S
C1020 H1011 0.930 . S
C1020 C1018 1.378 . S
C1020 C1021 1.367 . S
C1021 C1020 1.367 . S
C1021 C1023 1.433 . S
C1022 C1018 1.350 . S
C1022 C1019 1.463 . S
C1022 N1026 1.427 . S
C1023 H1013 0.929 . S
C1023 C1021 1.433 . S
C1023 N1026 1.384 . S
C1024 H1015 0.929 . S
C1024 C1016 1.378 . S
C1024 C1019 1.350 . S
C1025 H1012 0.929 . S
C1025 C1017 1.433 . S
C1025 N1027 1.384 . S
N1026 C1022 1.427 . S
N1026 C1023 1.384 . S
N1027 C1019 1.427 . S
N1027 C1025 1.384 . S
H1028 C1034 0.930 . S
H1029 C1038 0.930 . S
H1030 C1043 0.929 . S
H1031 C1041 0.929 . S
H1032 C1036 0.929 . S
H1033 C1042 0.929 . S
C1034 H1028 0.930 . S
C1034 C1035 1.367 . S
C1034 C1042 1.378 . S
C1035 C1034 1.367 . S
C1035 C1043 1.433 . S
C1036 H1032 0.929 . S
C1036 C1038 1.378 . S
C1036 C1040 1.350 . S
C1037 C1040 1.463 . S
C1037 C1042 1.350 . S
C1037 N1045 1.427 . S
C1038 H1029 0.930 . S
C1038 C1036 1.378 . S
C1038 C1039 1.367 . S
C1039 C1038 1.367 . S
C1039 C1041 1.433 . S
C1040 C1036 1.350 . S
C1040 C1037 1.463 . S
C1040 N1044 1.427 . S
C1041 H1031 0.929 . S
C1041 C1039 1.433 . S
C1041 N1044 1.384 . S
C1042 H1033 0.929 . S
C1042 C1034 1.378 . S
C1042 C1037 1.350 . S
C1043 H1030 0.929 . S
C1043 C1035 1.433 . S
C1043 N1045 1.384 . S
N1044 C1040 1.427 . S
N1044 C1041 1.384 . S
N1045 C1037 1.427 . S
N1045 C1043 1.384 . S
H1046 C1052 0.930 . S
H1047 C1056 0.930 . S
H1048 C1061 0.929 . S
H1049 C1059 0.929 . S
H1050 C1054 0.929 . S
H1051 C1060 0.929 . S
C1052 H1046 0.930 . S
C1052 C1053 1.367 . S
C1052 C1060 1.378 . S
C1053 C1052 1.367 . S
C1053 C1061 1.433 . S
C1054 H1050 0.929 . S
C1054 C1056 1.378 1_554 S
C1054 C1058 1.350 . S
C1055 C1058 1.463 1_455 S
C1055 C1060 1.350 . S
C1055 N1063 1.427 . S
C1056 H1047 0.930 . S
C1056 C1054 1.378 1_556 S
C1056 C1057 1.367 . S
C1057 C1056 1.367 . S
C1057 C1059 1.433 . S
C1058 C1054 1.350 . S
C1058 C1055 1.463 1_655 S
C1058 N1062 1.427 . S
C1059 H1049 0.929 . S
C1059 C1057 1.433 . S
C1059 N1062 1.384 1_556 S
C1060 H1051 0.929 . S
C1060 C1052 1.378 . S
C1060 C1055 1.350 . S
C1061 H1048 0.929 . S
C1061 C1053 1.433 . S
C1061 N1063 1.384 . S
N1062 C1058 1.427 . S
N1062 C1059 1.384 1_554 S
N1063 C1055 1.427 . S
N1063 C1061 1.384 . S
H1064 C1070 0.930 . S
H1065 C1074 0.930 . S
H1066 C1079 0.929 . S
H1067 C1077 0.929 . S
H1068 C1072 0.929 . S
H1069 C1078 0.929 . S
C1070 H1064 0.930 . S
C1070 C1071 1.367 . S
C1070 C1078 1.378 . S
C1071 C1070 1.367 . S
C1071 C1079 1.433 . S
C1072 H1068 0.929 . S
C1072 C1074 1.378 . S
C1072 C1076 1.350 . S
C1073 C1076 1.463 . S
C1073 C1078 1.350 . S
C1073 N1081 1.427 . S
C1074 H1065 0.930 . S
C1074 C1072 1.378 . S
C1074 C1075 1.367 . S
C1075 C1074 1.367 . S
C1075 C1077 1.433 . S
C1076 C1072 1.350 . S
C1076 C1073 1.463 . S
C1076 N1080 1.427 . S
C1077 H1067 0.929 . S
C1077 C1075 1.433 . S
C1077 N1080 1.384 . S
C1078 H1069 0.929 . S
C1078 C1070 1.378 . S
C1078 C1073 1.350 . S
C1079 H1066 0.929 . S
C1079 C1071 1.433 . S
C1079 N1081 1.384 . S
N1080 C1076 1.427 . S
N1080 C1077 1.384 . S
N1081 C1073 1.427 . S
N1081 C1079 1.384 . S
H1082 C1088 0.930 . S
H1083 C1092 0.930 . S
H1084 C1097 0.929 1_455 S
H1085 C1095 0.929 1_655 S
H1086 C1090 0.929 . S
H1087 C1096 0.929 . S
C1088 H1082 0.930 . S
C1088 C1089 1.367 . S
C1088 C1096 1.378 . S
C1089 C1088 1.367 . S
C1089 C1097 1.433 . S
C1090 H1086 0.929 . S
C1090 C1092 1.378 . S
C1090 C1094 1.350 . S
C1091 C1094 1.463 1_655 S
C1091 C1096 1.350 . S
C1091 N1099 1.427 1_655 S
C1092 H1083 0.930 . S
C1092 C1090 1.378 . S
C1092 C1093 1.367 . S
C1093 C1092 1.367 . S
C1093 C1095 1.433 . S
C1094 C1090 1.350 . S
C1094 C1091 1.463 1_455 S
C1094 N1098 1.427 1_455 S
C1095 H1085 0.929 1_455 S
C1095 C1093 1.433 . S
C1095 N1098 1.384 1_455 S
C1096 H1087 0.929 . S
C1096 C1088 1.378 . S
C1096 C1091 1.350 . S
C1097 H1084 0.929 1_655 S
C1097 C1089 1.433 . S
C1097 N1099 1.384 1_655 S
N1098 C1094 1.427 1_655 S
N1098 C1095 1.384 1_655 S
N1099 C1091 1.427 1_455 S
N1099 C1097 1.384 1_455 S
H1100 C1106 0.930 . S
H1101 C1110 0.930 . S
H1102 C1115 0.929 . S
H1103 C1113 0.929 . S
H1104 C1108 0.929 . S
H1105 C1114 0.929 . S
C1106 H1100 0.930 . S
C1106 C1107 1.367 . S
C1106 C1114 1.378 . S
C1107 C1106 1.367 . S
C1107 C1115 1.433 . S
C1108 H1104 0.929 . S
C1108 C1110 1.378 . S
C1108 C1112 1.350 . S
C1109 C1112 1.463 . S
C1109 C1114 1.350 . S
C1109 N1117 1.427 . S
C1110 H1101 0.930 . S
C1110 C1108 1.378 . S
C1110 C1111 1.367 . S
C1111 C1110 1.367 . S
C1111 C1113 1.433 . S
C1112 C1108 1.350 . S
C1112 C1109 1.463 . S
C1112 N1116 1.427 . S
C1113 H1103 0.929 . S
C1113 C1111 1.433 . S
C1113 N1116 1.384 . S
C1114 H1105 0.929 . S
C1114 C1106 1.378 . S
C1114 C1109 1.350 . S
C1115 H1102 0.929 . S
C1115 C1107 1.433 . S
C1115 N1117 1.384 . S
N1116 C1112 1.427 . S
N1116 C1113 1.384 . S
N1117 C1109 1.427 . S
N1117 C1115 1.384 . S
H1118 C1124 0.930 . S
H1119 C1128 0.930 . S
H1120 C1133 0.929 . S
H1121 C1131 0.929 . S
H1122 C1126 0.929 . S
H1123 C1132 0.929 . S
C1124 H1118 0.930 . S
C1124 C1125 1.367 . S
C1124 C1132 1.378 1_554 S
C1125 C1124 1.367 . S
C1125 C1133 1.433 . S
C1126 H1122 0.929 . S
C1126 C1128 1.378 . S
C1126 C1130 1.350 . S
C1127 C1130 1.463 . S
C1127 C1132 1.350 . S
C1127 N1135 1.427 . S
C1128 H1119 0.930 . S
C1128 C1126 1.378 . S
C1128 C1129 1.367 . S
C1129 C1128 1.367 . S
C1129 C1131 1.433 . S
C1130 C1126 1.350 . S
C1130 C1127 1.463 . S
C1130 N1134 1.427 . S
C1131 H1121 0.929 . S
C1131 C1129 1.433 . S
C1131 N1134 1.384 . S
C1132 H1123 0.929 . S
C1132 C1124 1.378 1_556 S
C1132 C1127 1.350 . S
C1133 H1120 0.929 . S
C1133 C1125 1.433 . S
C1133 N1135 1.384 1_554 S
N1134 C1130 1.427 . S
N1134 C1131 1.384 . S
N1135 C1127 1.427 . S
N1135 C1133 1.384 1_556 S
H1136 C1142 0.930 . S
H1137 C1146 0.930 . S
H1138 C1151 0.929 . S
H1139 C1149 0.929 . S
H1140 C1144 0.929 . S
H1141 C1150 0.929 . S
C1142 H1136 0.930 . S
C1142 C1143 1.367 . S
C1142 C1150 1.378 . S
C1143 C1142 1.367 . S
C1143 C1151 1.433 . S
C1144 H1140 0.929 . S
C1144 C1146 1.378 . S
C1144 C1148 1.350 . S
C1145 C1148 1.463 . S
C1145 C1150 1.350 . S
C1145 N1153 1.427 . S
C1146 H1137 0.930 . S
C1146 C1144 1.378 . S
C1146 C1147 1.367 . S
C1147 C1146 1.367 . S
C1147 C1149 1.433 . S
C1148 C1144 1.350 . S
C1148 C1145 1.463 . S
C1148 N1152 1.427 . S
C1149 H1139 0.929 . S
C1149 C1147 1.433 . S
C1149 N1152 1.384 . S
C1150 H1141 0.929 . S
C1150 C1142 1.378 . S
C1150 C1145 1.350 . S
C1151 H1138 0.929 . S
C1151 C1143 1.433 . S
C1151 N1153 1.384 . S
N1152 C1148 1.427 . S
N1152 C1149 1.384 . S
N1153 C1145 1.427 . S
N1153 C1151 1.384 . S
H1154 C1160 0.930 . S
H1155 C1164 0.930 . S
H1156 C1169 0.929 . S
H1157 C1167 0.929 . S
H1158 C1162 0.929 . S
H1159 C1168 0.929 . S
C1160 H1154 0.930 . S
C1160 C1161 1.367 . S
C1160 C1168 1.378 . S
C1161 C1160 1.367 . S
C1161 C1169 1.433 . S
C1162 H1158 0.929 . S
C1162 C1164 1.378 . S
C1162 C1166 1.350 . S
C1163 C1166 1.463 . S
C1163 C1168 1.350 . S
C1163 N1171 1.427 . S
C1164 H1155 0.930 . S
C1164 C1162 1.378 . S
C1164 C1165 1.367 . S
C1165 C1164 1.367 . S
C1165 C1167 1.433 . S
C1166 C1162 1.350 . S
C1166 C1163 1.463 . S
C1166 N1170 1.427 . S
C1167 H1157 0.929 . S
C1167 C1165 1.433 . S
C1167 N1170 1.384 . S
C1168 H1159 0.929 . S
C1168 C1160 1.378 . S
C1168 C1163 1.350 . S
C1169 H1156 0.929 . S
C1169 C1161 1.433 . S
C1169 N1171 1.384 . S
N1170 C1166 1.427 . S
N1170 C1167 1.384 . S
N1171 C1163 1.427 . S
N1171 C1169 1.384 . S
H1172 C1178 0.930 . S
H1173 C1182 0.930 . S
H1174 C1187 0.929 . S
H1175 C1185 0.929 . S
H1176 C1180 0.929 . S
H1177 C1186 0.929 . S
C1178 H1172 0.930 . S
C1178 C1179 1.367 . S
C1178 C1186 1.378 . S
C1179 C1178 1.367 . S
C1179 C1187 1.433 . S
C1180 H1176 0.929 . S
C1180 C1182 1.378 . S
C1180 C1184 1.350 . S
C1181 C1184 1.463 . S
C1181 C1186 1.350 . S
C1181 N1189 1.427 . S
C1182 H1173 0.930 . S
C1182 C1180 1.378 . S
C1182 C1183 1.367 . S
C1183 C1182 1.367 . S
C1183 C1185 1.433 . S
C1184 C1180 1.350 . S
C1184 C1181 1.463 . S
C1184 N1188 1.427 . S
C1185 H1175 0.929 . S
C1185 C1183 1.433 . S
C1185 N1188 1.384 . S
C1186 H1177 0.929 . S
C1186 C1178 1.378 . S
C1186 C1181 1.350 . S
C1187 H1174 0.929 . S
C1187 C1179 1.433 . S
C1187 N1189 1.384 . S
N1188 C1184 1.427 . S
N1188 C1185 1.384 . S
N1189 C1181 1.427 . S
N1189 C1187 1.384 . S
H1190 C1196 0.930 . S
H1191 C1200 0.930 . S
H1192 C1205 0.929 . S
H1193 C1203 0.929 . S
H1194 C1198 0.915 1_655 S
H1195 C1204 0.908 1_455 S
C1196 H1190 0.930 . S
C1196 C1197 1.367 . S
C1196 C1204 1.396 . S
C1197 C1196 1.367 . S
C1197 C1205 1.433 . S
C1198 H1194 0.915 1_455 S
C1198 C1200 1.389 1_556 S
C1198 C1202 1.354 . S
C1199 C1202 1.463 1_655 S
C1199 C1204 1.357 . S
C1199 N1207 1.427 . S
C1200 H1191 0.930 . S
C1200 C1198 1.389 1_554 S
C1200 C1201 1.367 . S
C1201 C1200 1.367 . S
C1201 C1203 1.433 . S
C1202 C1198 1.354 . S
C1202 C1199 1.463 1_455 S
C1202 N1206 1.427 . S
C1203 H1193 0.929 . S
C1203 C1201 1.433 . S
C1203 N1206 1.384 1_554 S
C1204 H1195 0.908 1_655 S
C1204 C1196 1.396 . S
C1204 C1199 1.357 . S
C1205 H1192 0.929 . S
C1205 C1197 1.433 . S
C1205 N1207 1.384 . S
N1206 C1202 1.427 . S
N1206 C1203 1.384 1_556 S
N1207 C1199 1.427 . S
N1207 C1205 1.384 . S
H1208 C1214 0.930 . S
H1209 C1218 0.930 . S
H1210 C1223 0.929 . S
H1211 C1221 0.929 . S
H1212 C1216 0.929 . S
H1213 C1222 0.929 . S
C1214 H1208 0.930 . S
C1214 C1215 1.367 . S
C1214 C1222 1.378 . S
C1215 C1214 1.367 . S
C1215 C1223 1.433 . S
C1216 H1212 0.929 . S
C1216 C1218 1.378 . S
C1216 C1220 1.350 . S
C1217 C1220 1.463 . S
C1217 C1222 1.350 . S
C1217 N1225 1.427 . S
C1218 H1209 0.930 . S
C1218 C1216 1.378 . S
C1218 C1219 1.367 . S
C1219 C1218 1.367 . S
C1219 C1221 1.433 . S
C1220 C1216 1.350 . S
C1220 C1217 1.463 . S
C1220 N1224 1.427 . S
C1221 H1211 0.929 . S
C1221 C1219 1.433 . S
C1221 N1224 1.384 . S
C1222 H1213 0.929 . S
C1222 C1214 1.378 . S
C1222 C1217 1.350 . S
C1223 H1210 0.929 . S
C1223 C1215 1.433 . S
C1223 N1225 1.384 . S
N1224 C1220 1.427 . S
N1224 C1221 1.384 . S
N1225 C1217 1.427 . S
N1225 C1223 1.384 . S
H1226 C1232 0.941 . S
H1227 C1236 0.935 . S
H1228 C1241 0.929 . S
H1229 C1239 0.929 . S
H1230 C1234 0.929 . S
H1231 C1240 0.929 . S
C1232 H1226 0.941 . S
C1232 C1233 1.367 . S
C1232 C1240 1.378 1_655 S
C1233 C1232 1.367 . S
C1233 C1241 1.433 . S
C1234 H1230 0.929 . S
C1234 C1236 1.378 1_655 S
C1234 C1238 1.350 1_655 S
C1235 C1238 1.463 1_655 S
C1235 C1240 1.350 1_655 S
C1235 N1243 1.427 . S
C1236 H1227 0.935 . S
C1236 C1234 1.378 1_455 S
C1236 C1237 1.367 . S
C1237 C1236 1.367 . S
C1237 C1239 1.433 . S
C1238 C1234 1.350 1_455 S
C1238 C1235 1.463 1_455 S
C1238 N1242 1.427 . S
C1239 H1229 0.929 . S
C1239 C1237 1.433 . S
C1239 N1242 1.384 . S
C1240 H1231 0.929 . S
C1240 C1232 1.378 1_455 S
C1240 C1235 1.350 1_455 S
C1241 H1228 0.929 . S
C1241 C1233 1.433 . S
C1241 N1243 1.384 . S
N1242 C1238 1.427 . S
N1242 C1239 1.384 . S
N1243 C1235 1.427 . S
N1243 C1241 1.384 . S
H1244 C1250 0.930 . S
H1245 C1254 0.930 . S
H1246 C1259 0.929 . S
H1247 C1257 0.929 . S
H1248 C1252 0.929 . S
H1249 C1258 0.929 . S
C1250 H1244 0.930 . S
C1250 C1251 1.367 . S
C1250 C1258 1.378 . S
C1251 C1250 1.367 . S
C1251 C1259 1.433 . S
C1252 H1248 0.929 . S
C1252 C1254 1.378 . S
C1252 C1256 1.350 . S
C1253 C1256 1.463 . S
C1253 C1258 1.350 . S
C1253 N1261 1.427 . S
C1254 H1245 0.930 . S
C1254 C1252 1.378 . S
C1254 C1255 1.367 . S
C1255 C1254 1.367 . S
C1255 C1257 1.433 . S
C1256 C1252 1.350 . S
C1256 C1253 1.463 . S
C1256 N1260 1.427 . S
C1257 H1247 0.929 . S
C1257 C1255 1.433 . S
C1257 N1260 1.384 . S
C1258 H1249 0.929 . S
C1258 C1250 1.378 . S
C1258 C1253 1.350 . S
C1259 H1246 0.929 . S
C1259 C1251 1.433 . S
C1259 N1261 1.384 . S
N1260 C1256 1.427 . S
N1260 C1257 1.384 . S
N1261 C1253 1.427 . S
N1261 C1259 1.384 . S
H1262 C1268 0.930 . S
H1263 C1272 0.930 . S
H1264 C1277 0.929 . S
H1265 C1275 0.929 . S
H1266 C1270 0.929 . S
H1267 C1276 0.929 . S
C1268 H1262 0.930 . S
C1268 C1269 1.367 . S
C1268 C1276 1.378 . S
C1269 C1268 1.367 . S
C1269 C1277 1.433 . S
C1270 H1266 0.929 . S
C1270 C1272 1.378 1_554 S
C1270 C1274 1.350 . S
C1271 C1274 1.463 . S
C1271 C1276 1.350 . S
C1271 N1279 1.427 . S
C1272 H1263 0.930 . S
C1272 C1270 1.378 1_556 S
C1272 C1273 1.367 . S
C1273 C1272 1.367 . S
C1273 C1275 1.433 . S
C1274 C1270 1.350 . S
C1274 C1271 1.463 . S
C1274 N1278 1.427 . S
C1275 H1265 0.929 . S
C1275 C1273 1.433 . S
C1275 N1278 1.384 1_556 S
C1276 H1267 0.929 . S
C1276 C1268 1.378 . S
C1276 C1271 1.350 . S
C1277 H1264 0.929 . S
C1277 C1269 1.433 . S
C1277 N1279 1.384 . S
N1278 C1274 1.427 . S
N1278 C1275 1.384 1_554 S
N1279 C1271 1.427 . S
N1279 C1277 1.384 . S
H1280 C1286 0.930 . S
H1281 C1290 0.930 . S
H1282 C1295 0.929 . S
H1283 C1293 0.929 . S
H1284 C1288 0.929 . S
H1285 C1294 0.929 . S
C1286 H1280 0.930 . S
C1286 C1287 1.367 . S
C1286 C1294 1.378 . S
C1287 C1286 1.367 . S
C1287 C1295 1.433 . S
C1288 H1284 0.929 . S
C1288 C1290 1.378 . S
C1288 C1292 1.350 . S
C1289 C1292 1.463 . S
C1289 C1294 1.350 . S
C1289 N1297 1.427 . S
C1290 H1281 0.930 . S
C1290 C1288 1.378 . S
C1290 C1291 1.367 . S
C1291 C1290 1.367 . S
C1291 C1293 1.433 . S
C1292 C1288 1.350 . S
C1292 C1289 1.463 . S
C1292 N1296 1.427 . S
C1293 H1283 0.929 . S
C1293 C1291 1.433 . S
C1293 N1296 1.384 . S
C1294 H1285 0.929 . S
C1294 C1286 1.378 . S
C1294 C1289 1.350 . S
C1295 H1282 0.929 . S
C1295 C1287 1.433 . S
C1295 N1297 1.384 . S
N1296 C1292 1.427 . S
N1296 C1293 1.384 . S
N1297 C1289 1.427 . S
N1297 C1295 1.384 . S
H1298 C1304 0.930 . S
H1299 C1308 0.930 . S
H1300 C1313 0.929 . S
H1301 C1311 0.929 . S
H1302 C1306 0.929 . S
H1303 C1312 0.929 . S
C1304 H1298 0.930 . S
C1304 C1305 1.367 . S
C1304 C1312 1.378 . S
C1305 C1304 1.367 . S
C1305 C1313 1.433 . S
C1306 H1302 0.929 . S
C1306 C1308 1.378 . S
C1306 C1310 1.350 . S
C1307 C1310 1.463 . S
C1307 C1312 1.350 . S
C1307 N1315 1.427 . S
C1308 H1299 0.930 . S
C1308 C1306 1.378 . S
C1308 C1309 1.367 . S
C1309 C1308 1.367 . S
C1309 C1311 1.433 . S
C1310 C1306 1.350 . S
C1310 C1307 1.463 . S
C1310 N1314 1.427 . S
C1311 H1301 0.929 . S
C1311 C1309 1.433 . S
C1311 N1314 1.384 . S
C1312 H1303 0.929 . S
C1312 C1304 1.378 . S
C1312 C1307 1.350 . S
C1313 H1300 0.929 . S
C1313 C1305 1.433 . S
C1313 N1315 1.384 . S
N1314 C1310 1.427 . S
N1314 C1311 1.384 . S
N1315 C1307 1.427 . S
N1315 C1313 1.384 . S
H1316 C1322 0.930 . S
H1317 C1326 0.930 . S
H1318 C1331 0.929 . S
H1319 C1329 0.929 . S
H1320 C1324 0.929 . S
H1321 C1330 0.929 . S
C1322 H1316 0.930 . S
C1322 C1323 1.367 . S
C1322 C1330 1.378 . S
C1323 C1322 1.367 . S
C1323 C1331 1.433 . S
C1324 H1320 0.929 . S
C1324 C1326 1.378 . S
C1324 C1328 1.350 . S
C1325 C1328 1.463 . S
C1325 C1330 1.350 . S
C1325 N1333 1.427 . S
C1326 H1317 0.930 . S
C1326 C1324 1.378 . S
C1326 C1327 1.367 . S
C1327 C1326 1.367 . S
C1327 C1329 1.433 . S
C1328 C1324 1.350 . S
C1328 C1325 1.463 . S
C1328 N1332 1.427 . S
C1329 H1319 0.929 . S
C1329 C1327 1.433 . S
C1329 N1332 1.384 . S
C1330 H1321 0.929 . S
C1330 C1322 1.378 . S
C1330 C1325 1.350 . S
C1331 H1318 0.929 . S
C1331 C1323 1.433 . S
C1331 N1333 1.384 . S
N1332 C1328 1.427 . S
N1332 C1329 1.384 . S
N1333 C1325 1.427 . S
N1333 C1331 1.384 . S
H1334 C1340 0.930 . S
H1335 C1344 0.930 . S
H1336 C1349 0.929 . S
H1337 C1347 0.929 . S
H1338 C1342 0.929 . S
H1339 C1348 0.929 . S
C1340 H1334 0.930 . S
C1340 C1341 1.367 . S
C1340 C1348 1.378 . S
C1341 C1340 1.367 . S
C1341 C1349 1.433 . S
C1342 H1338 0.929 . S
C1342 C1344 1.378 . S
C1342 C1346 1.350 . S
C1343 C1346 1.463 . S
C1343 C1348 1.350 . S
C1343 N1351 1.427 . S
C1344 H1335 0.930 . S
C1344 C1342 1.378 . S
C1344 C1345 1.367 . S
C1345 C1344 1.367 . S
C1345 C1347 1.433 . S
C1346 C1342 1.350 . S
C1346 C1343 1.463 . S
C1346 N1350 1.427 . S
C1347 H1337 0.929 . S
C1347 C1345 1.433 . S
C1347 N1350 1.384 . S
C1348 H1339 0.929 . S
C1348 C1340 1.378 . S
C1348 C1343 1.350 . S
C1349 H1336 0.929 . S
C1349 C1341 1.433 . S
C1349 N1351 1.384 . S
N1350 C1346 1.427 . S
N1350 C1347 1.384 . S
N1351 C1343 1.427 . S
N1351 C1349 1.384 . S
H1352 C1358 0.930 . S
H1353 C1362 0.930 . S
H1354 C1367 0.929 . S
H1355 C1365 0.929 . S
H1356 C1360 0.929 . S
H1357 C1366 0.929 . S
C1358 H1352 0.930 . S
C1358 C1359 1.367 . S
C1358 C1366 1.378 . S
C1359 C1358 1.367 . S
C1359 C1367 1.433 . S
C1360 H1356 0.929 . S
C1360 C1362 1.378 . S
C1360 C1364 1.350 . S
C1361 C1364 1.463 . S
C1361 C1366 1.350 . S
C1361 N1369 1.427 . S
C1362 H1353 0.930 . S
C1362 C1360 1.378 . S
C1362 C1363 1.367 . S
C1363 C1362 1.367 . S
C1363 C1365 1.433 . S
C1364 C1360 1.350 . S
C1364 C1361 1.463 . S
C1364 N1368 1.427 . S
C1365 H1355 0.929 . S
C1365 C1363 1.433 . S
C1365 N1368 1.384 . S
C1366 H1357 0.929 . S
C1366 C1358 1.378 . S
C1366 C1361 1.350 . S
C1367 H1354 0.929 . S
C1367 C1359 1.433 . S
C1367 N1369 1.384 . S
N1368 C1364 1.427 . S
N1368 C1365 1.384 . S
N1369 C1361 1.427 . S
N1369 C1367 1.384 . S
H1370 C1376 0.930 . S
H1371 C1380 0.930 . S
H1372 C1385 0.929 . S
H1373 C1383 0.929 . S
H1374 C1378 0.929 . S
H1375 C1384 0.929 . S
C1376 H1370 0.930 . S
C1376 C1377 1.367 . S
C1376 C1384 1.378 . S
C1377 C1376 1.367 . S
C1377 C1385 1.433 . S
C1378 H1374 0.929 . S
C1378 C1380 1.378 . S
C1378 C1382 1.350 . S
C1379 C1382 1.463 . S
C1379 C1384 1.350 . S
C1379 N1387 1.427 . S
C1380 H1371 0.930 . S
C1380 C1378 1.378 . S
C1380 C1381 1.367 . S
C1381 C1380 1.367 . S
C1381 C1383 1.433 . S
C1382 C1378 1.350 . S
C1382 C1379 1.463 . S
C1382 N1386 1.427 . S
C1383 H1373 0.929 . S
C1383 C1381 1.433 . S
C1383 N1386 1.384 . S
C1384 H1375 0.929 . S
C1384 C1376 1.378 . S
C1384 C1379 1.350 . S
C1385 H1372 0.929 . S
C1385 C1377 1.433 . S
C1385 N1387 1.384 . S
N1386 C1382 1.427 . S
N1386 C1383 1.384 . S
N1387 C1379 1.427 . S
N1387 C1385 1.384 . S
H1388 C1394 0.930 . S
H1389 C1398 0.930 . S
H1390 C1403 0.929 . S
H1391 C1401 0.929 . S
H1392 C1396 0.929 . S
H1393 C1402 0.929 . S
C1394 H1388 0.930 . S
C1394 C1395 1.367 . S
C1394 C1402 1.378 . S
C1395 C1394 1.367 . S
C1395 C1403 1.433 . S
C1396 H1392 0.929 . S
C1396 C1398 1.378 . S
C1396 C1400 1.350 . S
C1397 C1400 1.463 . S
C1397 C1402 1.350 . S
C1397 N1405 1.427 . S
C1398 H1389 0.930 . S
C1398 C1396 1.378 . S
C1398 C1399 1.367 . S
C1399 C1398 1.367 . S
C1399 C1401 1.433 . S
C1400 C1396 1.350 . S
C1400 C1397 1.463 . S
C1400 N1404 1.427 . S
C1401 H1391 0.929 . S
C1401 C1399 1.433 . S
C1401 N1404 1.384 . S
C1402 H1393 0.929 . S
C1402 C1394 1.378 . S
C1402 C1397 1.350 . S
C1403 H1390 0.929 . S
C1403 C1395 1.433 . S
C1403 N1405 1.384 . S
N1404 C1400 1.427 . S
N1404 C1401 1.384 . S
N1405 C1397 1.427 . S
N1405 C1403 1.384 . S
H1406 C1412 0.930 . S
H1407 C1416 0.930 . S
H1408 C1421 0.929 . S
H1409 C1419 0.929 . S
H1410 C1414 0.929 . S
H1411 C1420 0.929 . S
C1412 H1406 0.930 . S
C1412 C1413 1.367 . S
C1412 C1420 1.378 . S
C1413 C1412 1.367 . S
C1413 C1421 1.433 . S
C1414 H1410 0.929 . S
C1414 C1416 1.378 . S
C1414 C1418 1.350 . S
C1415 C1418 1.463 . S
C1415 C1420 1.350 . S
C1415 N1423 1.427 . S
C1416 H1407 0.930 . S
C1416 C1414 1.378 . S
C1416 C1417 1.367 . S
C1417 C1416 1.367 . S
C1417 C1419 1.433 . S
C1418 C1414 1.350 . S
C1418 C1415 1.463 . S
C1418 N1422 1.427 . S
C1419 H1409 0.929 . S
C1419 C1417 1.433 . S
C1419 N1422 1.384 . S
C1420 H1411 0.929 . S
C1420 C1412 1.378 . S
C1420 C1415 1.350 . S
C1421 H1408 0.929 . S
C1421 C1413 1.433 . S
C1421 N1423 1.384 . S
N1422 C1418 1.427 . S
N1422 C1419 1.384 . S
N1423 C1415 1.427 . S
N1423 C1421 1.384 . S
H1424 C1430 0.930 . S
H1425 C1434 0.930 . S
H1426 C1439 0.929 . S
H1427 C1437 0.929 . S
H1428 C1432 0.929 . S
H1429 C1438 0.929 . S
C1430 H1424 0.930 . S
C1430 C1431 1.367 . S
C1430 C1438 1.378 . S
C1431 C1430 1.367 . S
C1431 C1439 1.433 . S
C1432 H1428 0.929 . S
C1432 C1434 1.378 . S
C1432 C1436 1.350 . S
C1433 C1436 1.463 . S
C1433 C1438 1.350 . S
C1433 N1441 1.427 . S
C1434 H1425 0.930 . S
C1434 C1432 1.378 . S
C1434 C1435 1.367 . S
C1435 C1434 1.367 . S
C1435 C1437 1.433 . S
C1436 C1432 1.350 . S
C1436 C1433 1.463 . S
C1436 N1440 1.427 . S
C1437 H1427 0.929 . S
C1437 C1435 1.433 . S
C1437 N1440 1.384 . S
C1438 H1429 0.929 . S
C1438 C1430 1.378 . S
C1438 C1433 1.350 . S
C1439 H1426 0.929 . S
C1439 C1431 1.433 . S
C1439 N1441 1.384 . S
N1440 C1436 1.427 . S
N1440 C1437 1.384 . S
N1441 C1433 1.427 . S
N1441 C1439 1.384 . S
H1442 C1448 0.930 . S
H1443 C1452 0.930 . S
H1444 C1457 0.929 . S
H1445 C1455 0.929 . S
H1446 C1450 0.929 . S
H1447 C1456 0.929 . S
C1448 H1442 0.930 . S
C1448 C1449 1.367 . S
C1448 C1456 1.378 . S
C1449 C1448 1.367 . S
C1449 C1457 1.433 . S
C1450 H1446 0.929 . S
C1450 C1452 1.378 . S
C1450 C1454 1.350 . S
C1451 C1454 1.463 . S
C1451 C1456 1.350 . S
C1451 N1459 1.427 . S
C1452 H1443 0.930 . S
C1452 C1450 1.378 . S
C1452 C1453 1.367 . S
C1453 C1452 1.367 . S
C1453 C1455 1.433 . S
C1454 C1450 1.350 . S
C1454 C1451 1.463 . S
C1454 N1458 1.427 . S
C1455 H1445 0.929 . S
C1455 C1453 1.433 . S
C1455 N1458 1.384 . S
C1456 H1447 0.929 . S
C1456 C1448 1.378 . S
C1456 C1451 1.350 . S
C1457 H1444 0.929 . S
C1457 C1449 1.433 . S
C1457 N1459 1.384 . S
N1458 C1454 1.427 . S
N1458 C1455 1.384 . S
N1459 C1451 1.427 . S
N1459 C1457 1.384 . S
H1460 C1466 0.930 . S
H1461 C1470 0.930 . S
H1462 C1475 0.929 . S
H1463 C1473 0.929 . S
H1464 C1468 0.929 . S
H1465 C1474 0.929 . S
C1466 H1460 0.930 . S
C1466 C1467 1.367 . S
C1466 C1474 1.378 . S
C1467 C1466 1.367 . S
C1467 C1475 1.433 . S
C1468 H1464 0.929 . S
C1468 C1470 1.378 . S
C1468 C1472 1.350 . S
C1469 C1472 1.463 . S
C1469 C1474 1.350 . S
C1469 N1477 1.427 . S
C1470 H1461 0.930 . S
C1470 C1468 1.378 . S
C1470 C1471 1.367 . S
C1471 C1470 1.367 . S
C1471 C1473 1.433 . S
C1472 C1468 1.350 . S
C1472 C1469 1.463 . S
C1472 N1476 1.427 . S
C1473 H1463 0.929 . S
C1473 C1471 1.433 . S
C1473 N1476 1.384 . S
C1474 H1465 0.929 . S
C1474 C1466 1.378 . S
C1474 C1469 1.350 . S
C1475 H1462 0.929 . S
C1475 C1467 1.433 . S
C1475 N1477 1.384 . S
N1476 C1472 1.427 . S
N1476 C1473 1.384 . S
N1477 C1469 1.427 . S
N1477 C1475 1.384 . S
H1478 C1484 0.930 . S
H1479 C1488 0.930 . S
H1480 C1493 0.929 . S
H1481 C1491 0.929 . S
H1482 C1486 0.929 . S
H1483 C1492 0.929 . S
C1484 H1478 0.930 . S
C1484 C1485 1.367 . S
C1484 C1492 1.378 . S
C1485 C1484 1.367 . S
C1485 C1493 1.433 . S
C1486 H1482 0.929 . S
C1486 C1488 1.378 . S
C1486 C1490 1.350 . S
C1487 C1490 1.463 . S
C1487 C1492 1.350 . S
C1487 N1495 1.427 . S
C1488 H1479 0.930 . S
C1488 C1486 1.378 . S
C1488 C1489 1.367 . S
C1489 C1488 1.367 . S
C1489 C1491 1.433 . S
C1490 C1486 1.350 . S
C1490 C1487 1.463 . S
C1490 N1494 1.427 . S
C1491 H1481 0.929 . S
C1491 C1489 1.433 . S
C1491 N1494 1.384 . S
C1492 H1483 0.929 . S
C1492 C1484 1.378 . S
C1492 C1487 1.350 . S
C1493 H1480 0.929 . S
C1493 C1485 1.433 . S
C1493 N1495 1.384 . S
N1494 C1490 1.427 . S
N1494 C1491 1.384 . S
N1495 C1487 1.427 . S
N1495 C1493 1.384 . S
H1496 C1502 0.930 . S
H1497 C1506 0.930 . S
H1498 C1511 0.929 . S
H1499 C1509 0.929 . S
H1500 C1504 0.929 . S
H1501 C1510 0.929 . S
C1502 H1496 0.930 . S
C1502 C1503 1.367 . S
C1502 C1510 1.378 . S
C1503 C1502 1.367 . S
C1503 C1511 1.433 . S
C1504 H1500 0.929 . S
C1504 C1506 1.378 . S
C1504 C1508 1.350 . S
C1505 C1508 1.463 . S
C1505 C1510 1.350 . S
C1505 N1513 1.427 . S
C1506 H1497 0.930 . S
C1506 C1504 1.378 . S
C1506 C1507 1.367 . S
C1507 C1506 1.367 . S
C1507 C1509 1.433 . S
C1508 C1504 1.350 . S
C1508 C1505 1.463 . S
C1508 N1512 1.427 . S
C1509 H1499 0.929 . S
C1509 C1507 1.433 . S
C1509 N1512 1.384 . S
C1510 H1501 0.929 . S
C1510 C1502 1.378 . S
C1510 C1505 1.350 . S
C1511 H1498 0.929 . S
C1511 C1503 1.433 . S
C1511 N1513 1.384 . S
N1512 C1508 1.427 . S
N1512 C1509 1.384 . S
N1513 C1505 1.427 . S
N1513 C1511 1.384 . S
H1514 C1520 0.930 . S
H1515 C1524 0.930 . S
H1516 C1529 0.929 . S
H1517 C1527 0.929 . S
H1518 C1522 0.929 . S
H1519 C1528 0.929 . S
C1520 H1514 0.930 . S
C1520 C1521 1.367 . S
C1520 C1528 1.378 . S
C1521 C1520 1.367 . S
C1521 C1529 1.433 . S
C1522 H1518 0.929 . S
C1522 C1524 1.378 . S
C1522 C1526 1.350 . S
C1523 C1526 1.463 . S
C1523 C1528 1.350 . S
C1523 N1531 1.427 . S
C1524 H1515 0.930 . S
C1524 C1522 1.378 . S
C1524 C1525 1.367 . S
C1525 C1524 1.367 . S
C1525 C1527 1.433 . S
C1526 C1522 1.350 . S
C1526 C1523 1.463 . S
C1526 N1530 1.427 . S
C1527 H1517 0.929 . S
C1527 C1525 1.433 . S
C1527 N1530 1.384 . S
C1528 H1519 0.929 . S
C1528 C1520 1.378 . S
C1528 C1523 1.350 . S
C1529 H1516 0.929 . S
C1529 C1521 1.433 . S
C1529 N1531 1.384 . S
N1530 C1526 1.427 . S
N1530 C1527 1.384 . S
N1531 C1523 1.427 . S
N1531 C1529 1.384 . S
H1532 C1538 0.930 . S
H1533 C1542 0.930 . S
H1534 C1547 0.929 . S
H1535 C1545 0.929 . S
H1536 C1540 0.929 . S
H1537 C1546 0.929 . S
C1538 H1532 0.930 . S
C1538 C1539 1.367 . S
C1538 C1546 1.378 . S
C1539 C1538 1.367 . S
C1539 C1547 1.433 . S
C1540 H1536 0.929 . S
C1540 C1542 1.378 . S
C1540 C1544 1.350 . S
C1541 C1544 1.463 . S
C1541 C1546 1.350 . S
C1541 N1549 1.427 . S
C1542 H1533 0.930 . S
C1542 C1540 1.378 . S
C1542 C1543 1.367 . S
C1543 C1542 1.367 . S
C1543 C1545 1.433 . S
C1544 C1540 1.350 . S
C1544 C1541 1.463 . S
C1544 N1548 1.427 . S
C1545 H1535 0.929 . S
C1545 C1543 1.433 . S
C1545 N1548 1.384 . S
C1546 H1537 0.929 . S
C1546 C1538 1.378 . S
C1546 C1541 1.350 . S
C1547 H1534 0.929 . S
C1547 C1539 1.433 . S
C1547 N1549 1.384 . S
N1548 C1544 1.427 . S
N1548 C1545 1.384 . S
N1549 C1541 1.427 . S
N1549 C1547 1.384 . S
H1550 C1556 0.930 . S
H1551 C1560 0.930 . S
H1552 C1565 0.929 . S
H1553 C1563 0.929 . S
H1554 C1558 0.929 . S
H1555 C1564 0.929 . S
C1556 H1550 0.930 . S
C1556 C1557 1.367 . S
C1556 C1564 1.378 . S
C1557 C1556 1.367 . S
C1557 C1565 1.433 . S
C1558 H1554 0.929 . S
C1558 C1560 1.378 . S
C1558 C1562 1.350 . S
C1559 C1562 1.463 . S
C1559 C1564 1.350 . S
C1559 N1567 1.427 . S
C1560 H1551 0.930 . S
C1560 C1558 1.378 . S
C1560 C1561 1.367 . S
C1561 C1560 1.367 . S
C1561 C1563 1.433 . S
C1562 C1558 1.350 . S
C1562 C1559 1.463 . S
C1562 N1566 1.427 . S
C1563 H1553 0.929 . S
C1563 C1561 1.433 . S
C1563 N1566 1.384 . S
C1564 H1555 0.929 . S
C1564 C1556 1.378 . S
C1564 C1559 1.350 . S
C1565 H1552 0.929 . S
C1565 C1557 1.433 . S
C1565 N1567 1.384 . S
N1566 C1562 1.427 . S
N1566 C1563 1.384 . S
N1567 C1559 1.427 . S
N1567 C1565 1.384 . S
C423 C81 1.503 . S
C427 C5 1.504 . S
C441 C16 1.505 . S
C445 C96 1.505 . S
C459 C57 1.503 . S
C463 C29 1.505 . S
C477 C42 1.505 . S
C481 C70 1.506 . S
C495 C187 1.505 . S
C499 C107 1.504 . S
C513 C198 1.505 . S
C517 C122 1.505 . S
C531 C135 1.505 . S
C535 C161 1.503 . S
C549 C148 1.506 . S
C553 C172 1.504 . S
C567 C213 1.503 . S
C571 C291 1.505 . S
C585 C226 1.504 . S
C589 C304 1.504 . S
C603 C263 1.505 . S
C607 C239 1.503 . S
C621 C278 1.505 . S
C625 C252 1.503 . S
C639 C317 1.503 . S
C643 C395 1.506 . S
C657 C408 1.506 . S
C661 C330 1.504 . S
C675 C367 1.503 . S
C679 C343 1.505 . S
C693 C356 1.503 . S
C697 C380 1.504 . S
C711 C3 1.355 . S
C715 C400 1.359 . S
C729 C199 1.357 . S
C733 C18 1.348 . S
C747 C31 1.349 . S
C751 C368 1.356 . S
C765 C44 1.348 . S
C769 C173 1.358 . S
C783 C348 1.360 . S
C787 C55 1.352 . S
C801 C153 1.357 . S
C805 C68 1.348 . S
C819 C83 1.355 . S
C823 C322 1.359 . S
C837 C127 1.358 . S
C841 C94 1.348 . S
C855 C109 1.355 . S
C859 C296 1.359 . S
C873 C101 1.360 . S
C877 C120 1.352 . S
C891 C133 1.351 . S
C895 C264 1.360 . S
C909 C146 1.348 . S
C913 C75 1.357 . S
C927 C244 1.360 . S
C931 C159 1.355 . S
C945 C174 1.355 . S
C949 C43 1.358 . S
C963 C185 1.355 . S
C967 C218 1.360 . S
C981 C17 1.359 . S
C985 C200 1.350 . S
C999 C211 1.350 . S
C1003 C192 1.356 . S
C1017 C224 1.351 . S
C1021 C413 1.360 . S
C1035 C166 1.356 . S
C1039 C237 1.351 . S
C1053 C250 1.349 . S
C1057 C381 1.358 . S
C1071 C140 1.356 . S
C1075 C265 1.352 . S
C1089 C361 1.357 . S
C1093 C276 1.348 . S
C1107 C108 1.360 . S
C1111 C289 1.351 . S
C1125 C335 1.359 . S
C1129 C302 1.350 . S
C1143 C315 1.352 . S
C1147 C82 1.360 . S
C1161 C309 1.358 . S
C1165 C328 1.348 . S
C1179 C62 1.359 . S
C1183 C341 1.355 . S
C1197 C354 1.355 . S
C1201 C283 1.358 . S
C1215 C369 1.349 . S
C1219 C30 1.359 . S
C1233 C382 1.355 . S
C1237 C257 1.358 . S
C1251 C10 1.359 . S
C1255 C393 1.355 . S
C1269 C406 1.355 . S
C1273 C231 1.358 . S
C1287 C4 1.451 . S
C1291 C277 1.451 . S
C1305 C290 1.454 . S
C1309 C23 1.454 . S
C1323 C36 1.454 . S
C1327 C303 1.454 . S
C1341 C270 1.451 . S
C1345 C49 1.451 . S
C1359 C251 1.454 . S
C1363 C56 1.453 . S
C1377 C212 1.451 . S
C1381 C69 1.451 . S
C1395 C225 1.451 . S
C1399 C88 1.451 . S
C1413 C238 1.451 . S
C1417 C95 1.452 . S
C1431 C114 1.452 . S
C1435 C387 1.451 . S
C1449 C394 1.451 . S
C1453 C121 1.451 . S
C1467 C407 1.454 . S
C1471 C134 1.454 . S
C1485 C374 1.454 . S
C1489 C147 1.454 . S
C1503 C355 1.451 . S
C1507 C160 1.451 . S
C1521 C316 1.454 . S
C1525 C179 1.454 . S
C1539 C186 1.453 . S
C1543 C329 1.452 . S
C1557 C205 1.451 . S
C1561 C342 1.451 . S
