# Generated by pormake.
# Topology uoz, (4)-cn, num edge types: 1
# Building blocks:
#     Node 0, Type 0, BuildingBlock: QUQFOY_clean_sbu_1, # of connection points: 4
#     Node 1, Type 0, BuildingBlock: QUQFOY_clean_sbu_1, # of connection points: 4
#     Node 2, Type 0, BuildingBlock: QUQFOY_clean_sbu_1, # of connection points: 4
#     Node 3, Type 0, BuildingBlock: QUQFOY_clean_sbu_1, # of connection points: 4
#     Node 4, Type 0, BuildingBlock: QUQFOY_clean_sbu_1, # of connection points: 4
#     Node 5, Type 0, BuildingBlock: QUQFOY_clean_sbu_1, # of connection points: 4
#     Node 6, Type 0, BuildingBlock: QUQFOY_clean_sbu_1, # of connection points: 4
#     Node 7, Type 0, BuildingBlock: QUQFOY_clean_sbu_1, # of connection points: 4
#     Node 8, Type 0, BuildingBlock: QUQFOY_clean_sbu_1, # of connection points: 4
#     Node 9, Type 0, BuildingBlock: QUQFOY_clean_sbu_1, # of connection points: 4
#     Node 10, Type 0, BuildingBlock: QUQFOY_clean_sbu_1, # of connection points: 4
#     Node 11, Type 0, BuildingBlock: QUQFOY_clean_sbu_1, # of connection points: 4
#     Node 12, Type 0, BuildingBlock: QUQFOY_clean_sbu_1, # of connection points: 4
#     Node 13, Type 0, BuildingBlock: QUQFOY_clean_sbu_1, # of connection points: 4
#     Node 14, Type 0, BuildingBlock: QUQFOY_clean_sbu_1, # of connection points: 4
#     Node 15, Type 0, BuildingBlock: QUQFOY_clean_sbu_1, # of connection points: 4
#     Edge 16, Type (0, 0), BuildingBlock: MIFKUJ_clean_linker_0, # of connection points: 2
#     Edge 17, Type (0, 0), BuildingBlock: MIFKUJ_clean_linker_0, # of connection points: 2
#     Edge 18, Type (0, 0), BuildingBlock: MIFKUJ_clean_linker_0, # of connection points: 2
#     Edge 19, Type (0, 0), BuildingBlock: MIFKUJ_clean_linker_0, # of connection points: 2
#     Edge 20, Type (0, 0), BuildingBlock: MIFKUJ_clean_linker_0, # of connection points: 2
#     Edge 21, Type (0, 0), BuildingBlock: MIFKUJ_clean_linker_0, # of connection points: 2
#     Edge 22, Type (0, 0), BuildingBlock: MIFKUJ_clean_linker_0, # of connection points: 2
#     Edge 23, Type (0, 0), BuildingBlock: MIFKUJ_clean_linker_0, # of connection points: 2
#     Edge 24, Type (0, 0), BuildingBlock: MIFKUJ_clean_linker_0, # of connection points: 2
#     Edge 25, Type (0, 0), BuildingBlock: MIFKUJ_clean_linker_0, # of connection points: 2
#     Edge 26, Type (0, 0), BuildingBlock: MIFKUJ_clean_linker_0, # of connection points: 2
#     Edge 27, Type (0, 0), BuildingBlock: MIFKUJ_clean_linker_0, # of connection points: 2
#     Edge 28, Type (0, 0), BuildingBlock: MIFKUJ_clean_linker_0, # of connection points: 2
#     Edge 29, Type (0, 0), BuildingBlock: MIFKUJ_clean_linker_0, # of connection points: 2
#     Edge 30, Type (0, 0), BuildingBlock: MIFKUJ_clean_linker_0, # of connection points: 2
#     Edge 31, Type (0, 0), BuildingBlock: MIFKUJ_clean_linker_0, # of connection points: 2
#     Edge 32, Type (0, 0), BuildingBlock: MIFKUJ_clean_linker_0, # of connection points: 2
#     Edge 33, Type (0, 0), BuildingBlock: MIFKUJ_clean_linker_0, # of connection points: 2
#     Edge 34, Type (0, 0), BuildingBlock: MIFKUJ_clean_linker_0, # of connection points: 2
#     Edge 35, Type (0, 0), BuildingBlock: MIFKUJ_clean_linker_0, # of connection points: 2
#     Edge 36, Type (0, 0), BuildingBlock: MIFKUJ_clean_linker_0, # of connection points: 2
#     Edge 37, Type (0, 0), BuildingBlock: MIFKUJ_clean_linker_0, # of connection points: 2
#     Edge 38, Type (0, 0), BuildingBlock: MIFKUJ_clean_linker_0, # of connection points: 2
#     Edge 39, Type (0, 0), BuildingBlock: MIFKUJ_clean_linker_0, # of connection points: 2
#     Edge 40, Type (0, 0), BuildingBlock: MIFKUJ_clean_linker_0, # of connection points: 2
#     Edge 41, Type (0, 0), BuildingBlock: MIFKUJ_clean_linker_0, # of connection points: 2
#     Edge 42, Type (0, 0), BuildingBlock: MIFKUJ_clean_linker_0, # of connection points: 2
#     Edge 43, Type (0, 0), BuildingBlock: MIFKUJ_clean_linker_0, # of connection points: 2
#     Edge 44, Type (0, 0), BuildingBlock: MIFKUJ_clean_linker_0, # of connection points: 2
#     Edge 45, Type (0, 0), BuildingBlock: MIFKUJ_clean_linker_0, # of connection points: 2
#     Edge 46, Type (0, 0), BuildingBlock: MIFKUJ_clean_linker_0, # of connection points: 2
#     Edge 47, Type (0, 0), BuildingBlock: MIFKUJ_clean_linker_0, # of connection points: 2
# Relax obj value: 0.179
# Max RMSD: 0.211
# Mean RMSD: 0.211
data_MOF--net-uoz--node1-QUQFOY_clean_sbu_1--edge1-MIFKUJ_clean_linker_0
_symmetry_space_group_name_H-M    P1
_symmetry_Int_Tables_number       1
_symmetry_cell_setting            triclinic
loop_
_symmetry_equiv_pos_as_xyz
'x, y, z'
_cell_length_a     82.303515
_cell_length_b     82.273005
_cell_length_c     28.610102
_cell_angle_alpha  90.004836
_cell_angle_beta   89.99314
_cell_angle_gamma 89.982672
loop_
_atom_site_label
_atom_site_type_symbol
_atom_site_fract_x
_atom_site_fract_y
_atom_site_fract_z
_atom_type_partial_charge
O0 O 0.10676 0.56051 0.24932 0.0
Cd1 Cd 0.10679 0.57437 0.30887 0.0
Cd2 Cd 0.08559 0.5954 0.25042 0.0
O3 O 0.09011 0.57581 0.20777 0.0
O4 O 0.11669 0.55984 0.35667 0.0
O5 O 0.09116 0.56815 0.36024 0.0
C6 C 0.10278 0.55939 0.37731 0.0
C7 C 0.06183 0.60914 0.22735 0.0
C8 C 0.09897 0.56327 0.21191 0.0
C9 C 0.11796 0.60845 0.28786 0.0
O10 O 0.10468 0.6106 0.26608 0.0
O11 O 0.12113 0.59498 0.30766 0.0
O12 O 0.07473 0.60901 0.20218 0.0
O13 O 0.06233 0.60164 0.26691 0.0
O14 O 0.77673 0.77863 0.51645 0.0
Cd15 Cd 0.75645 0.77715 0.55822 0.0
Cd16 Cd 0.75055 0.75203 0.50573 0.0
O17 O 0.77554 0.75229 0.50483 0.0
O18 O 0.76246 0.78623 0.61991 0.0
O19 O 0.75799 0.75996 0.60717 0.0
C20 C 0.76286 0.77141 0.63488 0.0
C21 C 0.73761 0.72687 0.50033 0.0
C22 C 0.78347 0.76551 0.50351 0.0
C23 C 0.73138 0.78267 0.49035 0.0
O24 O 0.7379 0.77028 0.47156 0.0
O25 O 0.73522 0.78666 0.53179 0.0
O26 O 0.7456 0.7329 0.46581 0.0
O27 O 0.73741 0.7349 0.53912 0.0
O28 O 0.56044 0.44321 0.75904 0.0
Cd29 Cd 0.56169 0.42491 0.80729 0.0
Cd30 Cd 0.5842 0.41164 0.7443 0.0
O31 O 0.58013 0.43394 0.7139 0.0
O32 O 0.55306 0.43472 0.86559 0.0
O33 O 0.57888 0.42773 0.85639 0.0
C34 C 0.56774 0.43461 0.88142 0.0
C35 C 0.61015 0.40062 0.73301 0.0
C36 C 0.56966 0.44474 0.72384 0.0
C37 C 0.55263 0.39345 0.76277 0.0
O38 O 0.56597 0.3946 0.74072 0.0
O39 O 0.54859 0.40406 0.79294 0.0
O40 O 0.60007 0.40241 0.6991 0.0
O41 O 0.60565 0.40539 0.774 0.0
O42 O 0.89279 0.22828 0.0063 0.0
Cd43 Cd 0.90938 0.22919 0.06015 0.0
Cd44 Cd 0.92376 0.25265 0.99916 0.0
O45 O 0.90239 0.24875 0.96461 0.0
O46 O 0.89784 0.21795 0.112 0.0
O47 O 0.90366 0.24419 0.11344 0.0
C48 C 0.89652 0.23185 0.13246 0.0
C49 C 0.93517 0.27848 0.98797 0.0
C50 C 0.89183 0.23778 0.97148 0.0
C51 C 0.94181 0.22103 0.01951 0.0
O52 O 0.94036 0.23412 0.99637 0.0
O53 O 0.93133 0.21715 0.05027 0.0
O54 O 0.93391 0.26814 0.95456 0.0
O55 O 0.92978 0.27429 0.02856 0.0
O56 O 0.10541 0.43541 0.8366 0.0
Cd57 Cd 0.10314 0.41849 0.78418 0.0
Cd58 Cd 0.07951 0.40568 0.84811 0.0
O59 O 0.08325 0.42847 0.87501 0.0
O60 O 0.11403 0.42929 0.73058 0.0
O61 O 0.08762 0.42435 0.73238 0.0
C62 C 0.09991 0.431 0.71171 0.0
C63 C 0.05414 0.3946 0.86786 0.0
C64 C 0.09508 0.4381 0.86859 0.0
C65 C 0.11072 0.38658 0.82711 0.0
O66 O 0.09816 0.38903 0.85197 0.0
O67 O 0.11436 0.39627 0.79409 0.0
O68 O 0.06524 0.39712 0.89853 0.0
O69 O 0.05731 0.39844 0.8251 0.0
O70 O 0.89297 0.76785 0.09905 0.0
Cd71 Cd 0.90549 0.76896 0.03731 0.0
Cd72 Cd 0.92481 0.74457 0.08298 0.0
O73 O 0.90483 0.74573 0.12606 0.0
O74 O 0.89021 0.7804 0.99472 0.0
O75 O 0.89798 0.75495 0.98367 0.0
C76 C 0.88901 0.76709 0.97117 0.0
C77 C 0.93874 0.7198 0.09097 0.0
C78 C 0.89409 0.75673 0.12958 0.0
C79 C 0.93905 0.77841 0.06261 0.0
O80 O 0.9401 0.76447 0.08156 0.0
O81 O 0.92646 0.78248 0.03974 0.0
O82 O 0.93774 0.73011 0.12444 0.0
O83 O 0.93192 0.72346 0.0518 0.0
O84 O 0.57302 0.56488 0.34348 0.0
Cd85 Cd 0.57141 0.57808 0.28291 0.0
Cd86 Cd 0.59065 0.60082 0.3418 0.0
O87 O 0.58666 0.5821 0.38789 0.0
O88 O 0.56056 0.56214 0.24088 0.0
O89 O 0.58536 0.57125 0.22792 0.0
C90 C 0.57362 0.56166 0.2162 0.0
C91 C 0.61379 0.61609 0.36164 0.0
C92 C 0.57937 0.56866 0.38239 0.0
C93 C 0.55767 0.61135 0.30313 0.0
O94 O 0.57085 0.61467 0.32415 0.0
O95 O 0.55545 0.59751 0.28435 0.0
O96 O 0.60089 0.61611 0.38678 0.0
O97 O 0.61368 0.60744 0.32404 0.0
O98 O 0.76669 0.22863 0.59085 0.0
Cd99 Cd 0.75168 0.22975 0.53359 0.0
Cd100 Cd 0.73418 0.25217 0.59663 0.0
O101 O 0.75439 0.24676 0.63556 0.0
O102 O 0.76472 0.21848 0.48468 0.0
O103 O 0.7587 0.24462 0.48116 0.0
C104 C 0.76634 0.23227 0.4639 0.0
C105 C 0.72266 0.27742 0.61599 0.0
C106 C 0.76584 0.23674 0.62849 0.0
C107 C 0.71761 0.22097 0.56264 0.0
O108 O 0.71751 0.23393 0.58677 0.0
O109 O 0.72984 0.21727 0.53752 0.0
O110 O 0.7226 0.26537 0.64446 0.0
O111 O 0.72922 0.27525 0.57551 0.0
O112 O 0.39629 0.27077 0.60738 0.0
Cd113 Cd 0.40838 0.26958 0.54499 0.0
Cd114 Cd 0.42845 0.24733 0.59777 0.0
O115 O 0.40944 0.25103 0.64342 0.0
O116 O 0.39272 0.27951 0.5004 0.0
O117 O 0.40044 0.25382 0.49602 0.0
C118 C 0.39135 0.26548 0.48076 0.0
C119 C 0.44169 0.22241 0.61095 0.0
C120 C 0.39822 0.26162 0.64261 0.0
C121 C 0.44247 0.27979 0.56279 0.0
O122 O 0.44401 0.26657 0.58538 0.0
O123 O 0.42931 0.28318 0.54169 0.0
O124 O 0.44251 0.23425 0.64006 0.0
O125 O 0.43341 0.22465 0.57321 0.0
O126 O 0.27661 0.73654 0.09323 0.0
Cd127 Cd 0.25918 0.73293 0.04335 0.0
Cd128 Cd 0.24179 0.75662 0.10491 0.0
O129 O 0.26453 0.75575 0.13452 0.0
O130 O 0.2712 0.72026 0.99532 0.0
O131 O 0.26227 0.74524 0.98306 0.0
C132 C 0.27049 0.73284 0.96861 0.0
C133 C 0.22765 0.78052 0.12384 0.0
C134 C 0.27671 0.74671 0.1265 0.0
C135 C 0.22811 0.72225 0.08918 0.0
O136 O 0.22734 0.73622 0.10793 0.0
O137 O 0.23959 0.71854 0.06139 0.0
O138 O 0.23118 0.76976 0.15466 0.0
O139 O 0.23213 0.77783 0.08132 0.0
O140 O 0.27446 0.27296 0.02475 0.0
Cd141 Cd 0.25573 0.26786 0.07024 0.0
Cd142 Cd 0.25005 0.24531 0.00752 0.0
O143 O 0.2747 0.2478 0.99906 0.0
O144 O 0.26271 0.27665 0.13157 0.0
O145 O 0.26047 0.25028 0.1168 0.0
C146 C 0.26486 0.2618 0.14487 0.0
C147 C 0.23859 0.21963 0.99685 0.0
C148 C 0.28155 0.26155 0.00297 0.0
C149 C 0.22833 0.27459 0.01068 0.0
O150 O 0.23515 0.26401 0.98498 0.0
O151 O 0.23306 0.27658 0.05256 0.0
O152 O 0.24457 0.22775 0.9625 0.0
O153 O 0.23962 0.22586 0.03818 0.0
O154 O 0.3986 0.72825 0.50776 0.0
Cd155 Cd 0.41335 0.72487 0.56455 0.0
Cd156 Cd 0.43388 0.74765 0.51263 0.0
O157 O 0.41432 0.74524 0.46865 0.0
O158 O 0.39893 0.71367 0.61002 0.0
O159 O 0.40837 0.73855 0.62118 0.0
C160 C 0.39913 0.72676 0.63477 0.0
C161 C 0.44755 0.77231 0.4994 0.0
C162 C 0.40133 0.73704 0.47223 0.0
C163 C 0.4466 0.71364 0.53589 0.0
O164 O 0.44893 0.72789 0.52016 0.0
O165 O 0.43321 0.70981 0.55514 0.0
O166 O 0.44795 0.76051 0.47009 0.0
O167 O 0.43951 0.77015 0.53759 0.0
O168 O 0.60111 0.05428 0.75441 0.0
Cd169 Cd 0.59874 0.07378 0.79886 0.0
Cd170 Cd 0.57541 0.08221 0.73592 0.0
O171 O 0.57722 0.05784 0.72139 0.0
O172 O 0.60871 0.0663 0.8583 0.0
O173 O 0.58232 0.07085 0.85012 0.0
C174 C 0.59423 0.06557 0.87545 0.0
C175 C 0.54997 0.09439 0.72548 0.0
C176 C 0.58974 0.04915 0.72834 0.0
C177 C 0.60653 0.10179 0.73947 0.0
O178 O 0.59431 0.09711 0.71592 0.0
O179 O 0.60966 0.0953 0.7788 0.0
O180 O 0.55824 0.08885 0.69085 0.0
O181 O 0.5559 0.09261 0.76693 0.0
O182 O 0.05594 0.93816 0.25489 0.0
Cd183 Cd 0.05454 0.92404 0.31367 0.0
Cd184 Cd 0.07861 0.90473 0.26569 0.0
O185 O 0.07652 0.92487 0.22356 0.0
O186 O 0.04493 0.93822 0.36271 0.0
O187 O 0.07028 0.92917 0.36531 0.0
C188 C 0.05892 0.93812 0.38308 0.0
C189 C 0.10354 0.89144 0.25365 0.0
C190 C 0.06645 0.93656 0.2228 0.0
C191 C 0.04502 0.89035 0.28741 0.0
O192 O 0.05917 0.88904 0.27004 0.0
O193 O 0.04063 0.9033 0.30812 0.0
O194 O 0.09242 0.89188 0.22227 0.0
O195 O 0.10055 0.89841 0.29311 0.0
O196 O 0.60674 0.93352 0.33964 0.0
Cd197 Cd 0.60541 0.92213 0.27585 0.0
Cd198 Cd 0.58501 0.8999 0.3305 0.0
O199 O 0.59196 0.91627 0.38077 0.0
O200 O 0.6149 0.93856 0.23271 0.0
O201 O 0.58928 0.93067 0.22866 0.0
C202 C 0.60077 0.94005 0.21385 0.0
C203 C 0.5605 0.887 0.35049 0.0
C204 C 0.60061 0.929 0.37819 0.0
C205 C 0.61563 0.88708 0.28241 0.0
O206 O 0.60257 0.88458 0.30498 0.0
O207 O 0.61914 0.90123 0.26751 0.0
O208 O 0.57385 0.88412 0.37206 0.0
O209 O 0.5609 0.8972 0.31627 0.0
O210 O 0.06823 0.06207 0.8426 0.0
Cd211 Cd 0.06881 0.07911 0.79 0.0
Cd212 Cd 0.09296 0.09145 0.85058 0.0
O213 O 0.09246 0.06761 0.87101 0.0
O214 O 0.05626 0.06812 0.73976 0.0
O215 O 0.08252 0.07337 0.73391 0.0
C216 C 0.06967 0.06654 0.71694 0.0
C217 C 0.1174 0.10489 0.86807 0.0
C218 C 0.08012 0.05841 0.86877 0.0
C219 C 0.06016 0.10864 0.84099 0.0
O220 O 0.07277 0.10549 0.86493 0.0
O221 O 0.0572 0.10087 0.80353 0.0
O222 O 0.10758 0.10007 0.90003 0.0
O223 O 0.11351 0.10194 0.82522 0.0
H224 H 0.23278 0.68945 0.09465 0.0
H225 H 0.21515 0.66965 0.13318 0.0
H226 H 0.17929 0.7071 0.15663 0.0
H227 H 0.19724 0.72704 0.12023 0.0
H228 H 0.18315 0.69162 0.23272 0.0
H229 H 0.17476 0.6748 0.07405 0.0
H230 H 0.18256 0.66587 0.99487 0.0
H231 H 0.20564 0.62353 0.05227 0.0
H232 H 0.19815 0.63231 0.13188 0.0
H233 H 0.11385 0.64088 0.27273 0.0
H234 H 0.13451 0.66014 0.24624 0.0
H235 H 0.17142 0.62335 0.26219 0.0
H236 H 0.15083 0.60405 0.28953 0.0
H237 H 0.16868 0.63728 0.17043 0.0
H238 H 0.17401 0.65417 0.33008 0.0
H239 H 0.16421 0.6635 0.40698 0.0
H240 H 0.14429 0.70645 0.34384 0.0
H241 H 0.15376 0.69727 0.26642 0.0
C242 C 0.22099 0.69336 0.10717 0.0
C243 C 0.21636 0.70977 0.10442 0.0
C244 C 0.2109 0.68203 0.12922 0.0
C245 C 0.19582 0.68683 0.14775 0.0
C246 C 0.19091 0.7031 0.14301 0.0
C247 C 0.20112 0.71447 0.1219 0.0
C248 C 0.1855 0.6752 0.17427 0.0
C249 C 0.17984 0.67982 0.21872 0.0
C250 C 0.1815 0.6596 0.15678 0.0
C251 C 0.18605 0.65431 0.10895 0.0
C252 C 0.18161 0.66365 0.06981 0.0
C253 C 0.18596 0.65861 0.02485 0.0
C254 C 0.19463 0.64417 0.01855 0.0
C255 C 0.19895 0.63473 0.0572 0.0
C256 C 0.19464 0.63973 0.10225 0.0
C257 C 0.12643 0.63704 0.27194 0.0
C258 C 0.13072 0.62096 0.28307 0.0
C259 C 0.13822 0.64804 0.25679 0.0
C260 C 0.15444 0.6431 0.25204 0.0
C261 C 0.15893 0.62735 0.26564 0.0
C262 C 0.14718 0.61639 0.28159 0.0
C263 C 0.16623 0.65385 0.22822 0.0
C264 C 0.17214 0.64905 0.18435 0.0
C265 C 0.17018 0.66939 0.2458 0.0
C266 C 0.16448 0.67495 0.29236 0.0
C267 C 0.16741 0.66553 0.33251 0.0
C268 C 0.16194 0.67081 0.37622 0.0
C269 C 0.1536 0.68554 0.38028 0.0
C270 C 0.15075 0.69504 0.34064 0.0
C271 C 0.15618 0.68981 0.29684 0.0
H272 H 0.14938 0.6896 0.41415 0.0
H273 H 0.19798 0.64028 0.98372 0.0
H274 H 0.61139 0.85529 0.30639 0.0
H275 H 0.63259 0.83623 0.32864 0.0
H276 H 0.66914 0.86973 0.27964 0.0
H277 H 0.64791 0.88922 0.25856 0.0
H278 H 0.65737 0.8197 0.29735 0.0
H279 H 0.69939 0.87133 0.36024 0.0
H280 H 0.6977 0.90029 0.38242 0.0
H281 H 0.6479 0.8939 0.42325 0.0
H282 H 0.64937 0.86488 0.40193 0.0
H283 H 0.72736 0.78287 0.39582 0.0
H284 H 0.70894 0.7997 0.34985 0.0
H285 H 0.69064 0.82157 0.4765 0.0
H286 H 0.70961 0.80522 0.52263 0.0
H287 H 0.6943 0.84393 0.4154 0.0
H288 H 0.66935 0.79135 0.4129 0.0
H289 H 0.66781 0.76176 0.39985 0.0
H290 H 0.67818 0.76871 0.25412 0.0
H291 H 0.67998 0.79835 0.26644 0.0
C292 C 0.62391 0.8585 0.29918 0.0
C293 C 0.62797 0.87397 0.28176 0.0
C294 C 0.63605 0.84751 0.31181 0.0
C295 C 0.65247 0.85174 0.30706 0.0
C296 C 0.65653 0.86638 0.28461 0.0
C297 C 0.64436 0.87747 0.27224 0.0
C298 C 0.66501 0.84181 0.3311 0.0
C299 C 0.66559 0.82501 0.32277 0.0
C300 C 0.67538 0.84864 0.36537 0.0
C301 C 0.67445 0.86601 0.37893 0.0
C302 C 0.6881 0.87611 0.37407 0.0
C303 C 0.68718 0.89253 0.3865 0.0
C304 C 0.67269 0.89894 0.40406 0.0
C305 C 0.6591 0.88893 0.40948 0.0
C306 C 0.65997 0.87251 0.39723 0.0
C307 C 0.71938 0.79123 0.41394 0.0
C308 C 0.71988 0.79266 0.46292 0.0
C309 C 0.7088 0.80081 0.38757 0.0
C310 C 0.6982 0.81175 0.40966 0.0
C311 C 0.69871 0.81323 0.4586 0.0
C312 C 0.70951 0.80384 0.48498 0.0
C313 C 0.68668 0.82176 0.38182 0.0
C314 C 0.6863 0.8386 0.38947 0.0
C315 C 0.67607 0.81485 0.34822 0.0
C316 C 0.67497 0.79704 0.3407 0.0
C317 C 0.67142 0.78655 0.37815 0.0
C318 C 0.67048 0.76978 0.37087 0.0
C319 C 0.67294 0.76335 0.32621 0.0
C320 C 0.6763 0.7737 0.28871 0.0
C321 C 0.67727 0.79049 0.29581 0.0
H322 H 0.67221 0.75036 0.32065 0.0
H323 H 0.67199 0.91165 0.41358 0.0
H324 H 0.51953 0.39488 0.76297 0.0
H325 H 0.50086 0.37582 0.72554 0.0
H326 H 0.54107 0.34398 0.6934 0.0
H327 H 0.55983 0.36347 0.72855 0.0
H328 H 0.52418 0.34688 0.6202 0.0
H329 H 0.51044 0.33533 0.77918 0.0
H330 H 0.50219 0.34126 0.86027 0.0
H331 H 0.45725 0.36152 0.81109 0.0
H332 H 0.46532 0.3559 0.72962 0.0
H333 H 0.47473 0.27526 0.58033 0.0
H334 H 0.49397 0.29578 0.60838 0.0
H335 H 0.45765 0.33301 0.59025 0.0
H336 H 0.43847 0.31266 0.56095 0.0
H337 H 0.47182 0.32788 0.68623 0.0
H338 H 0.48649 0.33734 0.52554 0.0
H339 H 0.49538 0.32925 0.4466 0.0
H340 H 0.53966 0.30995 0.50333 0.0
H341 H 0.53093 0.31772 0.58275 0.0
C342 C 0.52431 0.38364 0.74884 0.0
C343 C 0.54111 0.38062 0.74871 0.0
C344 C 0.51363 0.37273 0.72742 0.0
C345 C 0.5195 0.35836 0.70674 0.0
C346 C 0.53622 0.35501 0.70873 0.0
C347 C 0.54693 0.36609 0.72914 0.0
C348 C 0.50844 0.34733 0.68058 0.0
C349 C 0.51285 0.34257 0.63506 0.0
C350 C 0.49345 0.34192 0.6993 0.0
C351 C 0.48857 0.34535 0.74826 0.0
C352 C 0.49886 0.34117 0.78563 0.0
C353 C 0.4942 0.34445 0.83167 0.0
C354 C 0.47923 0.3518 0.84082 0.0
C355 C 0.46886 0.35585 0.80395 0.0
C356 C 0.47346 0.3526 0.75783 0.0
C357 C 0.47102 0.2879 0.58092 0.0
C358 C 0.45511 0.29237 0.56852 0.0
C359 C 0.482 0.29957 0.59702 0.0
C360 C 0.47713 0.31582 0.60163 0.0
C361 C 0.46157 0.32049 0.58687 0.0
C362 C 0.4507 0.30888 0.56982 0.0
C363 C 0.48768 0.3275 0.62646 0.0
C364 C 0.48316 0.33231 0.67165 0.0
C365 C 0.5027 0.33265 0.60788 0.0
C366 C 0.50797 0.32796 0.56016 0.0
C367 C 0.49805 0.33122 0.52126 0.0
C368 C 0.50308 0.32673 0.4764 0.0
C369 C 0.51806 0.31905 0.46996 0.0
C370 C 0.52805 0.31588 0.50837 0.0
C371 C 0.52308 0.32034 0.55331 0.0
H372 H 0.52193 0.31559 0.43521 0.0
H373 H 0.47565 0.35433 0.87649 0.0
H374 H 0.95354 0.19465 0.06856 0.0
H375 H 0.97423 0.17506 0.04208 0.0
H376 H 0.9797 0.20175 0.91346 0.0
H377 H 0.95963 0.22147 0.9397 0.0
H378 H 0.97258 0.16407 0.91254 0.0
H379 H 0.0077 0.20789 0.97108 0.0
H380 H 0.0172 0.22636 0.03324 0.0
H381 H 0.02834 0.18543 0.12072 0.0
H382 H 0.01867 0.16673 0.05924 0.0
H383 H 0.03836 0.12759 0.79291 0.0
H384 H 0.01857 0.14665 0.82607 0.0
H385 H 0.03465 0.13405 0.96514 0.0
H386 H 0.05502 0.11596 0.93208 0.0
H387 H 0.02994 0.16377 0.96567 0.0
H388 H 0.99752 0.11947 0.91165 0.0
H389 H 0.98691 0.09933 0.85559 0.0
H390 H 0.96897 0.13778 0.76821 0.0
H391 H 0.97965 0.15817 0.82347 0.0
C392 C 0.9593 0.19641 0.03491 0.0
C393 C 0.95498 0.20964 0.00636 0.0
C394 C 0.97106 0.18523 0.01986 0.0
C395 C 0.97837 0.18701 0.97581 0.0
C396 C 0.97415 0.20021 0.94751 0.0
C397 C 0.96272 0.21151 0.9628 0.0
C398 C 0.99021 0.17501 0.9582 0.0
C399 C 0.98516 0.16398 0.92384 0.0
C400 C 0.00642 0.1747 0.9741 0.0
C401 C 0.01226 0.18594 0.01087 0.0
C402 C 0.012 0.20284 0.00377 0.0
C403 C 0.01746 0.21335 0.03882 0.0
C404 C 0.02331 0.20708 0.08098 0.0
C405 C 0.02377 0.19028 0.0881 0.0
C406 C 0.01831 0.17972 0.05316 0.0
C407 C 0.03767 0.129 0.8305 0.0
C408 C 0.04824 0.12035 0.85988 0.0
C409 C 0.02628 0.13978 0.84952 0.0
C410 C 0.02485 0.14161 0.89832 0.0
C411 C 0.03548 0.13295 0.92748 0.0
C412 C 0.04713 0.12258 0.90849 0.0
C413 C 0.01246 0.15264 0.91925 0.0
C414 C 0.01737 0.16359 0.95433 0.0
C415 C 0.99598 0.15257 0.90479 0.0
C416 C 0.98952 0.14034 0.87149 0.0
C417 C 0.99141 0.12363 0.88032 0.0
C418 C 0.98537 0.11217 0.84871 0.0
C419 C 0.97731 0.11727 0.8083 0.0
C420 C 0.97523 0.13384 0.79949 0.0
C421 C 0.98126 0.14536 0.83096 0.0
H422 H 0.97264 0.10837 0.78388 0.0
H423 H 0.02754 0.21523 0.10806 0.0
H424 H 0.13784 0.37559 0.7803 0.0
H425 H 0.15748 0.35521 0.80766 0.0
H426 H 0.12866 0.3474 0.93145 0.0
H427 H 0.10895 0.36736 0.90442 0.0
H428 H 0.16266 0.35502 0.94686 0.0
H429 H 0.12794 0.31935 0.85567 0.0
H430 H 0.1142 0.31061 0.78332 0.0
H431 H 0.16031 0.30652 0.71403 0.0
H432 H 0.1743 0.31546 0.78584 0.0
H433 H 0.20344 0.29002 0.05601 0.0
H434 H 0.18283 0.30784 0.02164 0.0
H435 H 0.20485 0.30163 0.88577 0.0
H436 H 0.22474 0.28305 0.91952 0.0
H437 H 0.17475 0.30177 0.8734 0.0
H438 H 0.21015 0.33709 0.95816 0.0
H439 H 0.22549 0.34733 0.02611 0.0
H440 H 0.18093 0.35441 0.10153 0.0
H441 H 0.16534 0.34402 0.03422 0.0
C442 C 0.13558 0.36936 0.813 0.0
C443 C 0.12184 0.37316 0.8402 0.0
C444 C 0.1468 0.35774 0.82855 0.0
C445 C 0.1445 0.34991 0.87164 0.0
C446 C 0.13064 0.35338 0.89818 0.0
C447 C 0.11936 0.36477 0.88249 0.0
C448 C 0.15688 0.33867 0.8906 0.0
C449 C 0.16523 0.34329 0.93117 0.0
C450 C 0.16057 0.32368 0.86902 0.0
C451 C 0.15215 0.31824 0.82597 0.0
C452 C 0.13513 0.31673 0.82488 0.0
C453 C 0.1273 0.31171 0.784 0.0
C454 C 0.13637 0.30806 0.74405 0.0
C455 C 0.1533 0.30937 0.74497 0.0
C456 C 0.16118 0.3144 0.78576 0.0
C457 C 0.2038 0.29244 0.01881 0.0
C458 C 0.21569 0.2852 0.99046 0.0
C459 C 0.1921 0.30271 0.99917 0.0
C460 C 0.19245 0.30642 0.95114 0.0
C461 C 0.20426 0.29901 0.92284 0.0
C462 C 0.21566 0.28841 0.94221 0.0
C463 C 0.18059 0.318 0.93029 0.0
C464 C 0.17232 0.3135 0.88924 0.0
C465 C 0.17726 0.33333 0.95079 0.0
C466 C 0.18659 0.33963 0.9913 0.0
C467 C 0.20363 0.34073 0.98935 0.0
C468 C 0.21237 0.34657 0.02773 0.0
C469 C 0.20419 0.35147 0.06815 0.0
C470 C 0.18725 0.35059 0.07022 0.0
C471 C 0.17846 0.34474 0.03195 0.0
H472 H 0.21098 0.35599 0.09783 0.0
H473 H 0.13029 0.30417 0.71244 0.0
H474 H 0.05081 0.8583 0.27064 0.0
H475 H 0.0323 0.839 0.23362 0.0
H476 H 0.99393 0.87473 0.23792 0.0
H477 H 0.01224 0.89387 0.27676 0.0
H478 H 0.98144 0.84563 0.24851 0.0
H479 H 0.0184 0.86998 0.14024 0.0
H480 H 0.04518 0.87811 0.10948 0.0
H481 H 0.05932 0.82799 0.09945 0.0
H482 H 0.03269 0.81956 0.13082 0.0
H483 H 0.93562 0.81142 0.06352 0.0
H484 H 0.95393 0.831 0.10062 0.0
H485 H 0.98865 0.79279 0.12642 0.0
H486 H 0.97034 0.77308 0.09004 0.0
H487 H 0.00241 0.82392 0.09814 0.0
H488 H 0.96451 0.8004 0.2092 0.0
H489 H 0.93705 0.79338 0.23708 0.0
H490 H 0.92388 0.84388 0.23741 0.0
H491 H 0.95121 0.85119 0.20877 0.0
C492 C 0.03829 0.86187 0.26487 0.0
C493 C 0.033 0.87763 0.27615 0.0
C494 C 0.02777 0.85089 0.24334 0.0
C495 C 0.0119 0.85562 0.23152 0.0
C496 C 0.00618 0.87087 0.24625 0.0
C497 C 0.01664 0.88178 0.26863 0.0
C498 C 0.00174 0.84517 0.20092 0.0
C499 C 0.98598 0.84106 0.21541 0.0
C500 C 0.00764 0.83914 0.15765 0.0
C501 C 0.0236 0.84415 0.13829 0.0
C502 C 0.02725 0.8607 0.13174 0.0
C503 C 0.0424 0.86536 0.11418 0.0
C504 C 0.05396 0.85358 0.10263 0.0
C505 C 0.05036 0.8371 0.10848 0.0
C506 C 0.03524 0.83237 0.12612 0.0
C507 C 0.94735 0.80727 0.07585 0.0
C508 C 0.95151 0.79069 0.07418 0.0
C509 C 0.95773 0.81845 0.0973 0.0
C510 C 0.97249 0.81325 0.11677 0.0
C511 C 0.97726 0.79699 0.11172 0.0
C512 C 0.9668 0.78576 0.09095 0.0
C513 C 0.98228 0.82435 0.14604 0.0
C514 C 0.99792 0.82858 0.13121 0.0
C515 C 0.97619 0.83068 0.18857 0.0
C516 C 0.95984 0.82632 0.20635 0.0
C517 C 0.95572 0.81 0.21484 0.0
C518 C 0.94018 0.80597 0.23084 0.0
C519 C 0.92871 0.81817 0.23889 0.0
C520 C 0.93277 0.83444 0.23109 0.0
C521 C 0.94828 0.83853 0.21499 0.0
H522 H 0.91669 0.81503 0.25127 0.0
H523 H 0.06568 0.85721 0.08905 0.0
H524 H 0.47866 0.71778 0.51591 0.0
H525 H 0.49612 0.69874 0.47404 0.0
H526 H 0.4588 0.66206 0.48226 0.0
H527 H 0.44132 0.681 0.52517 0.0
H528 H 0.48937 0.64876 0.48707 0.0
H529 H 0.4606 0.68546 0.38764 0.0
H530 H 0.45091 0.71226 0.36099 0.0
H531 H 0.5001 0.72743 0.33659 0.0
H532 H 0.51011 0.7008 0.36385 0.0
H533 H 0.52528 0.60406 0.30397 0.0
H534 H 0.5038 0.6208 0.33851 0.0
H535 H 0.53754 0.66056 0.35338 0.0
H536 H 0.55905 0.64394 0.31914 0.0
H537 H 0.50575 0.67071 0.33234 0.0
H538 H 0.53415 0.6347 0.43965 0.0
H539 H 0.54367 0.60777 0.4658 0.0
H540 H 0.49435 0.59098 0.47366 0.0
H541 H 0.48456 0.61777 0.44678 0.0
C542 C 0.47434 0.70551 0.51006 0.0
C543 C 0.45854 0.70095 0.52328 0.0
C544 C 0.48429 0.69468 0.48585 0.0
C545 C 0.47853 0.67918 0.47377 0.0
C546 C 0.46339 0.67404 0.49081 0.0
C547 C 0.45345 0.68485 0.51554 0.0
C548 C 0.4877 0.66908 0.43988 0.0
C549 C 0.49272 0.65344 0.45297 0.0
C550 C 0.49209 0.67522 0.39533 0.0
C551 C 0.48611 0.69117 0.37814 0.0
C552 C 0.46936 0.69454 0.37685 0.0
C553 C 0.46381 0.7097 0.36162 0.0
C554 C 0.47488 0.72155 0.34719 0.0
C555 C 0.49153 0.71824 0.34782 0.0
C556 C 0.49716 0.70311 0.36312 0.0
C557 C 0.52797 0.61657 0.31291 0.0
C558 C 0.54389 0.62264 0.30937 0.0
C559 C 0.51571 0.62606 0.333 0.0
C560 C 0.51921 0.64177 0.34935 0.0
C561 C 0.53463 0.64842 0.34124 0.0
C562 C 0.54691 0.63891 0.32165 0.0
C563 C 0.50765 0.65055 0.3799 0.0
C564 C 0.50219 0.66595 0.36619 0.0
C565 C 0.50278 0.64415 0.42369 0.0
C566 C 0.50864 0.62816 0.44071 0.0
C567 C 0.52535 0.62523 0.44665 0.0
C568 C 0.53079 0.61 0.46163 0.0
C569 C 0.51963 0.59765 0.47125 0.0
C570 C 0.50299 0.60054 0.4661 0.0
C571 C 0.49748 0.61575 0.451 0.0
H572 H 0.52386 0.58586 0.48281 0.0
H573 H 0.47056 0.73328 0.33544 0.0
H574 H 0.68915 0.22596 0.60922 0.0
H575 H 0.66947 0.20558 0.63339 0.0
H576 H 0.69548 0.16902 0.55534 0.0
H577 H 0.7156 0.18936 0.53179 0.0
H578 H 0.64867 0.18561 0.59531 0.0
H579 H 0.69531 0.13376 0.61856 0.0
H580 H 0.72473 0.13022 0.632 0.0
H581 H 0.72691 0.17691 0.69878 0.0
H582 H 0.69749 0.18062 0.68629 0.0
H583 H 0.60653 0.11346 0.65035 0.0
H584 H 0.62468 0.13354 0.61609 0.0
H585 H 0.64914 0.13895 0.74856 0.0
H586 H 0.63126 0.11836 0.78293 0.0
H587 H 0.67063 0.13808 0.68141 0.0
H588 H 0.6214 0.16761 0.70748 0.0
H589 H 0.59198 0.17304 0.7028 0.0
H590 H 0.59484 0.17441 0.55299 0.0
H591 H 0.62425 0.16876 0.55676 0.0
C592 C 0.69061 0.21365 0.59651 0.0
C593 C 0.70411 0.20926 0.56907 0.0
C594 C 0.67928 0.202 0.61031 0.0
C595 C 0.68117 0.18571 0.59698 0.0
C596 C 0.69396 0.18147 0.56679 0.0
C597 C 0.70539 0.19314 0.55306 0.0
C598 C 0.67036 0.17314 0.61748 0.0
C599 C 0.65347 0.17515 0.61383 0.0
C600 C 0.6766 0.15973 0.64278 0.0
C601 C 0.69425 0.15753 0.65097 0.0
C602 C 0.70207 0.14324 0.63622 0.0
C603 C 0.71874 0.14121 0.64367 0.0
C604 C 0.72769 0.15336 0.66607 0.0
C605 C 0.71998 0.16754 0.68127 0.0
C606 C 0.70331 0.16962 0.67398 0.0
C607 C 0.61572 0.11895 0.6724 0.0
C608 C 0.61738 0.11437 0.71955 0.0
C609 C 0.62607 0.13049 0.6527 0.0
C610 C 0.63813 0.13796 0.67987 0.0
C611 C 0.6399 0.13336 0.72691 0.0
C612 C 0.62965 0.12164 0.74658 0.0
C613 C 0.64893 0.15047 0.65897 0.0
C614 C 0.66581 0.14845 0.66254 0.0
C615 C 0.64268 0.16414 0.63479 0.0
C616 C 0.625 0.16761 0.6324 0.0
C617 C 0.61573 0.16895 0.67353 0.0
C618 C 0.59906 0.17209 0.67104 0.0
C619 C 0.59153 0.17402 0.62762 0.0
C620 C 0.60068 0.17288 0.5866 0.0
C621 C 0.61735 0.16973 0.58889 0.0
H622 H 0.57862 0.17645 0.62577 0.0
H623 H 0.7406 0.15177 0.67175 0.0
H624 H 0.03091 0.38079 0.81165 0.0
H625 H 0.00711 0.36521 0.83693 0.0
H626 H 0.01863 0.37573 0.98094 0.0
H627 H 0.04252 0.39092 0.95605 0.0
H628 H 0.01433 0.3446 0.97003 0.0
H629 H 0.98478 0.39215 0.92655 0.0
H630 H 0.97616 0.41468 0.8754 0.0
H631 H 0.95786 0.38048 0.77502 0.0
H632 H 0.96658 0.35773 0.82526 0.0
H633 H 0.94631 0.30044 0.05277 0.0
H634 H 0.96297 0.3246 0.03746 0.0
H635 H 0.95918 0.31592 0.88916 0.0
H636 H 0.94255 0.29199 0.90404 0.0
H637 H 0.95798 0.34849 0.90955 0.0
H638 H 0.99107 0.30154 0.94778 0.0
H639 H 2e-05 0.2788 0.99773 0.0
H640 H 0.0119 0.31233 0.10757 0.0
H641 H 0.0028 0.33526 0.05841 0.0
C642 C 0.0282 0.37999 0.84862 0.0
C643 C 0.03865 0.38694 0.88186 0.0
C644 C 0.01455 0.37115 0.86305 0.0
C645 C 0.01105 0.36934 0.91089 0.0
C646 C 0.02112 0.3769 0.9439 0.0
C647 C 0.03478 0.38558 0.92957 0.0
C648 C 0.99785 0.35837 0.92683 0.0
C649 C 0.00193 0.34571 0.95757 0.0
C650 C 0.98174 0.35958 0.90987 0.0
C651 C 0.97646 0.37323 0.87954 0.0
C652 C 0.97903 0.38943 0.8934 0.0
C653 C 0.97411 0.40224 0.8646 0.0
C654 C 0.9665 0.39901 0.82195 0.0
C655 C 0.96377 0.38296 0.80805 0.0
C656 C 0.96868 0.3701 0.83671 0.0
C657 C 0.94879 0.30388 0.01694 0.0
C658 C 0.94331 0.29422 0.97964 0.0
C659 C 0.95832 0.31765 0.00824 0.0
C660 C 0.96245 0.32192 0.96217 0.0
C661 C 0.95614 0.31285 0.92493 0.0
C662 C 0.94673 0.29909 0.93356 0.0
C663 C 0.97456 0.33479 0.95243 0.0
C664 C 0.97032 0.34768 0.92267 0.0
C665 C 0.99056 0.33383 0.97019 0.0
C666 C 0.99607 0.32008 0.99968 0.0
C667 C 0.99547 0.30404 0.98273 0.0
C668 C 0.00059 0.29113 0.01086 0.0
C669 C 0.00648 0.29412 0.05586 0.0
C670 C 0.0073 0.31004 0.07275 0.0
C671 C 0.00217 0.32299 0.04478 0.0
H672 H 0.01044 0.2841 0.07759 0.0
H673 H 0.96269 0.40894 0.7997 0.0
H674 H 0.53478 0.11604 0.78348 0.0
H675 H 0.51257 0.13449 0.76301 0.0
H676 H 0.50883 0.11186 0.6273 0.0
H677 H 0.53134 0.09381 0.64705 0.0
H678 H 0.51082 0.14291 0.617 0.0
H679 H 0.47835 0.10835 0.71299 0.0
H680 H 0.47099 0.0928 0.78356 0.0
H681 H 0.46996 0.13686 0.86395 0.0
H682 H 0.47753 0.15266 0.79399 0.0
H683 H 0.44502 0.19551 0.55458 0.0
H684 H 0.45983 0.17037 0.5727 0.0
H685 H 0.47198 0.18935 0.70884 0.0
H686 H 0.45723 0.21426 0.69132 0.0
H687 H 0.46306 0.15763 0.71384 0.0
H688 H 0.49902 0.19118 0.62048 0.0
H689 H 0.50684 0.20684 0.55048 0.0
H690 H 0.50131 0.16417 0.4655 0.0
H691 H 0.49325 0.14831 0.53498 0.0
C692 C 0.52897 0.11478 0.7497 0.0
C693 C 0.53485 0.10357 0.71677 0.0
C694 C 0.51624 0.1253 0.73803 0.0
C695 C 0.50896 0.12454 0.69359 0.0
C696 C 0.51429 0.11274 0.66168 0.0
C697 C 0.52713 0.1024 0.67307 0.0
C698 C 0.49696 0.13702 0.67873 0.0
C699 C 0.50017 0.14584 0.6377 0.0
C700 C 0.48324 0.14113 0.70612 0.0
C701 C 0.47862 0.13167 0.74827 0.0
C702 C 0.47667 0.11471 0.74578 0.0
C703 C 0.47244 0.10586 0.78567 0.0
C704 C 0.47004 0.11384 0.82823 0.0
C705 C 0.47183 0.1307 0.83096 0.0
C706 C 0.47606 0.13961 0.79118 0.0
C707 C 0.45078 0.19426 0.58842 0.0
C708 C 0.45005 0.20692 0.62136 0.0
C709 C 0.45924 0.17991 0.59871 0.0
C710 C 0.46707 0.17805 0.64206 0.0
C711 C 0.46598 0.19051 0.67528 0.0
C712 C 0.45762 0.2048 0.66502 0.0
C713 C 0.47708 0.16351 0.65257 0.0
C714 C 0.47354 0.15439 0.6928 0.0
C715 C 0.4905 0.1591 0.6245 0.0
C716 C 0.49534 0.16862 0.58278 0.0
C717 C 0.49934 0.18518 0.58679 0.0
C718 C 0.50384 0.19408 0.54724 0.0
C719 C 0.50451 0.18652 0.50355 0.0
C720 C 0.50074 0.17002 0.49935 0.0
C721 C 0.49621 0.16107 0.53879 0.0
H722 H 0.50801 0.19343 0.47297 0.0
H723 H 0.46677 0.10696 0.85907 0.0
H724 H 0.61696 0.63362 0.44142 0.0
H725 H 0.63987 0.65013 0.46623 0.0
H726 H 0.66594 0.63716 0.34085 0.0
H727 H 0.64291 0.62024 0.31572 0.0
H728 H 0.68559 0.63681 0.41972 0.0
H729 H 0.64846 0.67334 0.34648 0.0
H730 H 0.62195 0.68615 0.33053 0.0
H731 H 0.61925 0.70266 0.4727 0.0
H732 H 0.64565 0.68974 0.48971 0.0
H733 H 0.73997 0.70495 0.42937 0.0
H734 H 0.72083 0.68329 0.41023 0.0
H735 H 0.69366 0.69381 0.53557 0.0
H736 H 0.71284 0.71555 0.5551 0.0
H737 H 0.67517 0.69495 0.45499 0.0
H738 H 0.71326 0.6586 0.52671 0.0
H739 H 0.74009 0.64613 0.5402 0.0
H740 H 0.74157 0.62994 0.39759 0.0
H741 H 0.71483 0.64252 0.38303 0.0
C742 C 0.62754 0.63421 0.41898 0.0
C743 C 0.62806 0.62573 0.37632 0.0
C744 C 0.64063 0.64369 0.43327 0.0
C745 C 0.65449 0.64506 0.40509 0.0
C746 C 0.6553 0.63629 0.36301 0.0
C747 C 0.64214 0.62671 0.34863 0.0
C748 C 0.66783 0.65604 0.41955 0.0
C749 C 0.68341 0.64958 0.4268 0.0
C750 C 0.66486 0.67262 0.42955 0.0
C751 C 0.64897 0.68044 0.41947 0.0
C752 C 0.64215 0.67959 0.37446 0.0
C753 C 0.62715 0.68689 0.3652 0.0
C754 C 0.6189 0.69518 0.40061 0.0
C755 C 0.62565 0.69621 0.44532 0.0
C756 C 0.64064 0.68892 0.45478 0.0
C757 C 0.73012 0.70243 0.45342 0.0
C758 C 0.72782 0.71202 0.49359 0.0
C759 C 0.71923 0.69 0.4425 0.0
C760 C 0.70584 0.68697 0.47146 0.0
C761 C 0.70395 0.69598 0.5128 0.0
C762 C 0.71494 0.70834 0.52401 0.0
C763 C 0.6929 0.6757 0.4559 0.0
C764 C 0.67738 0.68217 0.44811 0.0
C765 C 0.69601 0.65921 0.44502 0.0
C766 C 0.7121 0.65165 0.45366 0.0
C767 C 0.71937 0.65251 0.49809 0.0
C768 C 0.73455 0.64539 0.50596 0.0
C769 C 0.74255 0.63728 0.46975 0.0
C770 C 0.73536 0.63624 0.4256 0.0
C771 C 0.72019 0.64335 0.41753 0.0
H772 H 0.7543 0.63177 0.47592 0.0
H773 H 0.60729 0.70083 0.39337 0.0
H774 H 0.22421 0.79286 0.21117 0.0
H775 H 0.20642 0.81488 0.23626 0.0
H776 H 0.19168 0.8228 0.09333 0.0
H777 H 0.20995 0.80095 0.06769 0.0
H778 H 0.1942 0.8512 0.13953 0.0
H779 H 0.16876 0.79952 0.16715 0.0
H780 H 0.1668 0.77163 0.19826 0.0
H781 H 0.17183 0.78987 0.33815 0.0
H782 H 0.17405 0.81786 0.30778 0.0
H783 H 0.11491 0.88209 0.16888 0.0
H784 H 0.13942 0.86667 0.15156 0.0
H785 H 0.15181 0.86614 0.29804 0.0
H786 H 0.12709 0.88176 0.31585 0.0
H787 H 0.15239 0.8356 0.25624 0.0
H788 H 0.17436 0.88824 0.22606 0.0
H789 H 0.17504 0.91577 0.19209 0.0
H790 H 0.17503 0.89545 0.05385 0.0
H791 H 0.17411 0.86779 0.08696 0.0
C792 C 0.21733 0.79941 0.18495 0.0
C793 C 0.21829 0.79506 0.13751 0.0
C794 C 0.20714 0.81197 0.19939 0.0
C795 C 0.19744 0.82022 0.16683 0.0
C796 C 0.19901 0.81651 0.11908 0.0
C797 C 0.20941 0.80403 0.10447 0.0
C798 C 0.18497 0.83196 0.18305 0.0
C799 C 0.18498 0.84778 0.16478 0.0
C800 C 0.17316 0.82757 0.2168 0.0
C801 C 0.17175 0.81076 0.23516 0.0
C802 C 0.16957 0.79757 0.20452 0.0
C803 C 0.1684 0.78175 0.22202 0.0
C804 C 0.16924 0.77898 0.27014 0.0
C805 C 0.17121 0.79203 0.30087 0.0
C806 C 0.17242 0.80788 0.28354 0.0
C807 C 0.12289 0.87885 0.19749 0.0
C808 C 0.11904 0.88307 0.24381 0.0
C809 C 0.13697 0.87013 0.18742 0.0
C810 C 0.14749 0.86541 0.22343 0.0
C811 C 0.14385 0.86978 0.26975 0.0
C812 C 0.12978 0.87869 0.27986 0.0
C813 C 0.16154 0.85482 0.21251 0.0
C814 C 0.16177 0.83914 0.2316 0.0
C815 C 0.17342 0.8593 0.17913 0.0
C816 C 0.17405 0.87593 0.15904 0.0
C817 C 0.17438 0.88964 0.18841 0.0
C818 C 0.17483 0.90527 0.16931 0.0
C819 C 0.17505 0.90736 0.12085 0.0
C820 C 0.17486 0.89381 0.09139 0.0
C821 C 0.17439 0.87815 0.11031 0.0
H822 H 0.1754 0.91947 0.10613 0.0
H823 H 0.16832 0.76672 0.28363 0.0
H824 H 0.05599 0.61977 0.13924 0.0
H825 H 0.03278 0.63524 0.111 0.0
H826 H 0.01131 0.63369 0.24851 0.0
H827 H 0.03451 0.61769 0.27697 0.0
H828 H 0.98843 0.63004 0.18153 0.0
H829 H 0.03185 0.66716 0.21212 0.0
H830 H 0.05973 0.67802 0.20738 0.0
H831 H 0.05502 0.68301 0.0586 0.0
H832 H 0.02718 0.67196 0.06238 0.0
H833 H 0.94267 0.70354 0.17229 0.0
H834 H 0.96091 0.68077 0.18782 0.0
H835 H 0.97436 0.67938 0.04217 0.0
H836 H 0.95573 0.70211 0.02612 0.0
H837 H 0.0006 0.68322 0.10752 0.0
H838 H 0.95514 0.64836 0.08106 0.0
H839 H 0.92696 0.63873 0.09031 0.0
H840 H 0.93509 0.63108 0.2369 0.0
H841 H 0.96325 0.6409 0.2287 0.0
C842 C 0.04631 0.62264 0.16355 0.0
C843 C 0.04717 0.6177 0.21054 0.0
C844 C 0.03305 0.6315 0.1473 0.0
C845 C 0.02047 0.6359 0.17783 0.0
C846 C 0.02094 0.63048 0.2244 0.0
C847 C 0.0342 0.6214 0.24066 0.0
C848 C 0.00729 0.64678 0.16132 0.0
C849 C 0.99107 0.64173 0.16575 0.0
C850 C 0.01075 0.66191 0.1399 0.0
C851 C 0.0275 0.66857 0.13748 0.0
C852 C 0.03681 0.67045 0.17835 0.0
C853 C 0.05259 0.67666 0.17584 0.0
C854 C 0.05916 0.68115 0.1327 0.0
C855 C 0.04993 0.67949 0.09199 0.0
C856 C 0.03414 0.67327 0.09429 0.0
C857 C 0.94926 0.69816 0.14337 0.0
C858 C 0.94789 0.7046 0.09804 0.0
C859 C 0.9596 0.68511 0.15227 0.0
C860 C 0.96892 0.6784 0.11614 0.0
C861 C 0.96716 0.68439 0.07042 0.0
C862 C 0.95652 0.6973 0.06129 0.0
C863 C 0.98177 0.66648 0.12765 0.0
C864 C 0.99797 0.67141 0.12265 0.0
C865 C 0.97823 0.65142 0.14919 0.0
C866 C 0.96129 0.6455 0.15431 0.0
C867 C 0.95088 0.64477 0.11536 0.0
C868 C 0.93492 0.63924 0.1204 0.0
C869 C 0.92923 0.63433 0.16418 0.0
C870 C 0.93951 0.6349 0.20301 0.0
C871 C 0.95548 0.64042 0.19817 0.0
H872 H 0.91686 0.63005 0.168 0.0
H873 H 0.07138 0.68596 0.13084 0.0
H874 H 0.12744 0.11279 0.9556 0.0
H875 H 0.15044 0.12967 0.97792 0.0
H876 H 0.16401 0.13473 0.83308 0.0
H877 H 0.1408 0.11771 0.8101 0.0
H878 H 0.1909 0.12974 0.89639 0.0
H879 H 0.14433 0.16432 0.87784 0.0
H880 H 0.11591 0.17278 0.89006 0.0
H881 H 0.12432 0.17622 0.03785 0.0
H882 H 0.15275 0.16753 0.02657 0.0
H883 H 0.23702 0.2027 0.91518 0.0
H884 H 0.21903 0.1801 0.89641 0.0
H885 H 0.20172 0.17945 0.03875 0.0
H886 H 0.21965 0.20228 0.05778 0.0
H887 H 0.17718 0.18131 0.97731 0.0
H888 H 0.2243 0.14812 0.99568 0.0
H889 H 0.25269 0.13957 0.9835 0.0
H890 H 0.24359 0.13358 0.83674 0.0
H891 H 0.21518 0.14232 0.84791 0.0
C892 C 0.13535 0.11735 0.92834 0.0
C893 C 0.1322 0.11404 0.88097 0.0
C894 C 0.1485 0.127 0.94125 0.0
C895 C 0.15879 0.13356 0.90713 0.0
C896 C 0.15616 0.12976 0.85989 0.0
C897 C 0.14289 0.1201 0.84683 0.0
C898 C 0.17162 0.14518 0.9211 0.0
C899 C 0.18796 0.14112 0.91354 0.0
C900 C 0.1677 0.15981 0.9445 0.0
C901 C 0.15062 0.16511 0.9514 0.0
C902 C 0.14008 0.16674 0.91299 0.0
C903 C 0.12398 0.1716 0.91974 0.0
C904 C 0.1183 0.17499 0.96472 0.0
C905 C 0.12873 0.17357 0.00304 0.0
C906 C 0.14485 0.16869 0.99648 0.0
C907 C 0.22961 0.19757 0.94278 0.0
C908 C 0.22967 0.20435 0.98792 0.0
C909 C 0.21939 0.18458 0.93201 0.0
C910 C 0.20906 0.17805 0.96619 0.0
C911 C 0.20961 0.18431 0.01186 0.0
C912 C 0.21989 0.19731 0.02273 0.0
C913 C 0.19659 0.1659 0.95295 0.0
C914 C 0.18023 0.1699 0.96045 0.0
C915 C 0.20054 0.15126 0.92949 0.0
C916 C 0.21763 0.14602 0.92259 0.0
C917 C 0.22838 0.14512 0.96073 0.0
C918 C 0.24447 0.14021 0.95402 0.0
C919 C 0.24995 0.13607 0.90935 0.0
C920 C 0.23933 0.1368 0.87131 0.0
C921 C 0.22322 0.14172 0.87783 0.0
H922 H 0.26241 0.13227 0.90423 0.0
H923 H 0.10583 0.17876 0.96988 0.0
H924 H 0.71263 0.30252 0.55961 0.0
H925 H 0.69733 0.32672 0.58351 0.0
H926 H 0.70064 0.31161 0.72767 0.0
H927 H 0.7154 0.28731 0.70394 0.0
H928 H 0.67083 0.31838 0.70792 0.0
H929 H 0.72163 0.34534 0.68368 0.0
H930 H 0.7463 0.35337 0.6406 0.0
H931 H 0.71697 0.37599 0.5349 0.0
H932 H 0.6921 0.3679 0.57702 0.0
H933 H 0.63066 0.38723 0.79793 0.0
H934 H 0.65407 0.36959 0.78226 0.0
H935 H 0.64812 0.37742 0.63419 0.0
H936 H 0.62483 0.395 0.64946 0.0
H937 H 0.68081 0.37554 0.66072 0.0
H938 H 0.63048 0.34581 0.68095 0.0
H939 H 0.60572 0.3378 0.7237 0.0
H940 H 0.63485 0.32027 0.83757 0.0
H941 H 0.65978 0.32841 0.79571 0.0
C942 C 0.71027 0.30451 0.5964 0.0
C943 C 0.71506 0.29297 0.62984 0.0
C944 C 0.7016 0.31838 0.61009 0.0
C945 C 0.69787 0.32103 0.65748 0.0
C946 C 0.70328 0.3098 0.69093 0.0
C947 C 0.71172 0.29591 0.67727 0.0
C948 C 0.68718 0.33466 0.67209 0.0
C949 C 0.67325 0.33091 0.69836 0.0
C950 C 0.69006 0.35099 0.65876 0.0
C951 C 0.70499 0.35588 0.63332 0.0
C952 C 0.72043 0.35191 0.65105 0.0
C953 C 0.73445 0.3565 0.62684 0.0
C954 C 0.7332 0.36515 0.58498 0.0
C955 C 0.71792 0.36927 0.5673 0.0
C956 C 0.70385 0.3647 0.59136 0.0
C957 C 0.63458 0.38547 0.76214 0.0
C958 C 0.6258 0.3923 0.72489 0.0
C959 C 0.64792 0.37539 0.75324 0.0
C960 C 0.65268 0.37207 0.70702 0.0
C961 C 0.64464 0.37983 0.67006 0.0
C962 C 0.63127 0.38978 0.67888 0.0
C963 C 0.66468 0.35916 0.69665 0.0
C964 C 0.67868 0.36302 0.67088 0.0
C965 C 0.66194 0.3429 0.71045 0.0
C966 C 0.64697 0.33789 0.73547 0.0
C967 C 0.63159 0.34037 0.71526 0.0
C968 C 0.61753 0.33579 0.7393 0.0
C969 C 0.61871 0.32858 0.78339 0.0
C970 C 0.63395 0.32589 0.80347 0.0
C971 C 0.64805 0.33048 0.7796 0.0
H972 H 0.60781 0.32503 0.80194 0.0
H973 H 0.74407 0.3687 0.56629 0.0
H974 H 0.44494 0.80192 0.5438 0.0
H975 H 0.45811 0.82756 0.52087 0.0
H976 H 0.48224 0.80273 0.40751 0.0
H977 H 0.46898 0.77753 0.42921 0.0
H978 H 0.48832 0.83684 0.51699 0.0
H979 H 0.48672 0.82477 0.31421 0.0
H980 H 0.4675 0.81348 0.25668 0.0
H981 H 0.42767 0.82348 0.34924 0.0
H982 H 0.4466 0.83509 0.40706 0.0
H983 H 0.55802 0.86132 0.40914 0.0
H984 H 0.53357 0.84817 0.43756 0.0
H985 H 0.50411 0.88124 0.35671 0.0
H986 H 0.52889 0.89433 0.32674 0.0
H987 H 0.49234 0.85205 0.34948 0.0
H988 H 0.50553 0.88471 0.47704 0.0
H989 H 0.52262 0.89831 0.53597 0.0
H990 H 0.53466 0.8521 0.59651 0.0
H991 H 0.51787 0.83818 0.53749 0.0
C992 C 0.45304 0.80201 0.51397 0.0
C993 C 0.45584 0.78775 0.48813 0.0
C994 C 0.46051 0.81665 0.50083 0.0
C995 C 0.47083 0.81717 0.46171 0.0
C996 C 0.47391 0.8028 0.43684 0.0
C997 C 0.46641 0.78832 0.44961 0.0
C998 C 0.47929 0.83234 0.44757 0.0
C999 C 0.48903 0.84034 0.48051 0.0
C1000 C 0.47962 0.83748 0.4003 0.0
C1001 C 0.46813 0.83078 0.3651 0.0
C1002 C 0.47386 0.82471 0.32218 0.0
C1003 C 0.46301 0.81821 0.28953 0.0
C1004 C 0.44638 0.81775 0.29932 0.0
C1005 C 0.44056 0.82382 0.34174 0.0
C1006 C 0.45135 0.83035 0.37448 0.0
C1007 C 0.54637 0.86587 0.39736 0.0
C1008 C 0.54538 0.87893 0.36584 0.0
C1009 C 0.53235 0.85842 0.41404 0.0
C1010 C 0.51696 0.86399 0.40038 0.0
C1011 C 0.51587 0.87686 0.36817 0.0
C1012 C 0.53 0.88429 0.35098 0.0
C1013 C 0.50228 0.85557 0.41835 0.0
C1014 C 0.4913 0.8489 0.38616 0.0
C1015 C 0.50039 0.85211 0.46658 0.0
C1016 C 0.51042 0.86038 0.50269 0.0
C1017 C 0.51188 0.87743 0.50277 0.0
C1018 C 0.52152 0.8852 0.53621 0.0
C1019 C 0.52972 0.87608 0.56996 0.0
C1020 C 0.52828 0.85916 0.57038 0.0
C1021 C 0.51866 0.85132 0.53698 0.0
H1022 H 0.53719 0.88212 0.5958 0.0
H1023 H 0.43801 0.8127 0.27404 0.0
H1024 H 0.11143 0.53243 0.2119 0.0
H1025 H 0.11281 0.51356 0.14604 0.0
H1026 H 0.09143 0.54984 0.05605 0.0
H1027 H 0.08955 0.56856 0.1219 0.0
H1028 H 0.07706 0.52257 0.04265 0.0
H1029 H 0.13215 0.53941 0.04776 0.0
H1030 H 0.15881 0.54531 0.08315 0.0
H1031 H 0.16434 0.49502 0.12 0.0
H1032 H 0.13759 0.48885 0.0854 0.0
H1033 H 0.11623 0.46366 0.8592 0.0
H1034 H 0.11851 0.48753 0.91002 0.0
H1035 H 0.08044 0.46851 0.99809 0.0
H1036 H 0.07784 0.44492 0.94737 0.0
H1037 H 0.12616 0.49074 0.0006 0.0
H1038 H 0.05694 0.49827 0.03762 0.0
H1039 H 0.03092 0.49417 0.99652 0.0
H1040 H 0.05498 0.49964 0.86428 0.0
H1041 H 0.08109 0.50402 0.90457 0.0
C1042 C 0.1071 0.5364 0.17803 0.0
C1043 C 0.10031 0.55194 0.17213 0.0
C1044 C 0.108 0.52566 0.14035 0.0
C1045 C 0.1024 0.53038 0.096 0.0
C1046 C 0.09581 0.54596 0.08997 0.0
C1047 C 0.09474 0.55662 0.12767 0.0
C1048 C 0.10252 0.51874 0.05657 0.0
C1049 C 0.08783 0.5157 0.03327 0.0
C1050 C 0.11667 0.51007 0.04351 0.0
C1051 C 0.1328 0.51369 0.06425 0.0
C1052 C 0.13899 0.52962 0.06369 0.0
C1053 C 0.15413 0.53301 0.08357 0.0
C1054 C 0.16325 0.52055 0.10389 0.0
C1055 C 0.15726 0.50466 0.10427 0.0
C1056 C 0.14212 0.50121 0.08447 0.0
C1057 C 0.10834 0.4646 0.88935 0.0
C1058 C 0.09678 0.45246 0.8991 0.0
C1059 C 0.10968 0.4782 0.91835 0.0
C1060 C 0.09949 0.47986 0.95735 0.0
C1061 C 0.08819 0.46762 0.96758 0.0
C1062 C 0.08676 0.45411 0.93859 0.0
C1063 C 0.1006 0.49428 0.988 0.0
C1064 C 0.11547 0.4978 0.00963 0.0
C1065 C 0.08673 0.50373 0.99869 0.0
C1066 C 0.071 0.50136 0.97417 0.0
C1067 C 0.05666 0.4987 0.99979 0.0
C1068 C 0.0419 0.4963 0.97662 0.0
C1069 C 0.0413 0.49661 0.92782 0.0
C1070 C 0.05546 0.49936 0.90208 0.0
C1071 C 0.07025 0.50178 0.92506 0.0
H1072 H 0.02986 0.49473 0.90996 0.0
H1073 H 0.17497 0.5232 0.11926 0.0
H1074 H 0.89042 0.73313 0.1958 0.0
H1075 H 0.87461 0.73472 0.26795 0.0
H1076 H 0.85884 0.78305 0.23119 0.0
H1077 H 0.87458 0.78161 0.15879 0.0
H1078 H 0.86976 0.77987 0.32516 0.0
H1079 H 0.8334 0.75375 0.2159 0.0
H1080 H 0.82558 0.73295 0.15807 0.0
H1081 H 0.83333 0.69541 0.25995 0.0
H1082 H 0.84142 0.716 0.31822 0.0
H1083 H 0.79831 0.79098 0.46017 0.0
H1084 H 0.82138 0.78934 0.4068 0.0
H1085 H 0.82798 0.7388 0.44273 0.0
H1086 H 0.80457 0.74025 0.49501 0.0
H1087 H 0.82405 0.74184 0.35328 0.0
H1088 H 0.85739 0.76807 0.46601 0.0
H1089 H 0.86511 0.78877 0.5242 0.0
H1090 H 0.86345 0.82576 0.41846 0.0
H1091 H 0.85547 0.80534 0.35972 0.0
C1092 C 0.88352 0.74408 0.20289 0.0
C1093 C 0.88368 0.75722 0.1715 0.0
C1094 C 0.87455 0.74496 0.24414 0.0
C1095 C 0.86564 0.75901 0.25472 0.0
C1096 C 0.86574 0.77215 0.22357 0.0
C1097 C 0.87461 0.77124 0.18209 0.0
C1098 C 0.85588 0.75983 0.29785 0.0
C1099 C 0.85967 0.77168 0.3314 0.0
C1100 C 0.84309 0.74878 0.3062 0.0
C1101 C 0.8382 0.73639 0.27123 0.0
C1102 C 0.83358 0.74105 0.22584 0.0
C1103 C 0.82907 0.7293 0.19301 0.0
C1104 C 0.82901 0.71286 0.20528 0.0
C1105 C 0.83341 0.70814 0.25046 0.0
C1106 C 0.83795 0.71985 0.28341 0.0
C1107 C 0.80499 0.77966 0.45774 0.0
C1108 C 0.79952 0.76566 0.48097 0.0
C1109 C 0.81823 0.77875 0.42735 0.0
C1110 C 0.82636 0.76392 0.42062 0.0
C1111 C 0.82179 0.75032 0.44714 0.0
C1112 C 0.80843 0.75117 0.47696 0.0
C1113 C 0.8378 0.76198 0.38111 0.0
C1114 C 0.83429 0.74993 0.34784 0.0
C1115 C 0.85085 0.77282 0.37328 0.0
C1116 C 0.85571 0.78516 0.40848 0.0
C1117 C 0.85854 0.78064 0.4552 0.0
C1118 C 0.86299 0.79232 0.48829 0.0
C1119 C 0.86474 0.80857 0.47505 0.0
C1120 C 0.86208 0.81317 0.42867 0.0
C1121 C 0.85762 0.80154 0.39544 0.0
H1122 H 0.86819 0.8176 0.50072 0.0
H1123 H 0.82551 0.70378 0.17982 0.0
H1124 H 0.57448 0.536 0.37989 0.0
H1125 H 0.57012 0.51781 0.44595 0.0
H1126 H 0.57479 0.55826 0.54122 0.0
H1127 H 0.57994 0.57642 0.47509 0.0
H1128 H 0.58933 0.53383 0.57707 0.0
H1129 H 0.53702 0.54128 0.5154 0.0
H1130 H 0.5154 0.5434 0.45612 0.0
H1131 H 0.52173 0.49305 0.42097 0.0
H1132 H 0.54357 0.49067 0.47956 0.0
H1133 H 0.55899 0.47504 0.74813 0.0
H1134 H 0.55756 0.49916 0.69757 0.0
H1135 H 0.57515 0.47076 0.58141 0.0
H1136 H 0.57703 0.44681 0.63167 0.0
H1137 H 0.5449 0.49313 0.56871 0.0
H1138 H 0.60209 0.49035 0.62543 0.0
H1139 H 0.62146 0.48962 0.69125 0.0
H1140 H 0.60153 0.53413 0.74478 0.0
H1141 H 0.58194 0.53502 0.67942 0.0
C1142 C 0.57463 0.54099 0.41492 0.0
C1143 C 0.57749 0.55759 0.42243 0.0
C1144 C 0.572 0.53063 0.45265 0.0
C1145 C 0.57169 0.53675 0.4985 0.0
C1146 C 0.57487 0.55329 0.50615 0.0
C1147 C 0.57783 0.56363 0.46839 0.0
C1148 C 0.56837 0.52567 0.53815 0.0
C1149 C 0.57939 0.52519 0.57561 0.0
C1150 C 0.55523 0.51455 0.53697 0.0
C1151 C 0.54201 0.51582 0.50178 0.0
C1152 C 0.53387 0.53068 0.49485 0.0
C1153 C 0.52157 0.53192 0.46137 0.0
C1154 C 0.5172 0.51837 0.43476 0.0
C1155 C 0.52512 0.50354 0.44163 0.0
C1156 C 0.53745 0.50223 0.47504 0.0
C1157 C 0.56245 0.47396 0.71173 0.0
C1158 C 0.56818 0.45913 0.6937 0.0
C1159 C 0.56162 0.48769 0.68307 0.0
C1160 C 0.56619 0.48658 0.636 0.0
C1161 C 0.57151 0.47172 0.61771 0.0
C1162 C 0.57268 0.45813 0.64646 0.0
C1163 C 0.56624 0.50099 0.60568 0.0
C1164 C 0.55456 0.50209 0.57028 0.0
C1165 C 0.5784 0.51298 0.60958 0.0
C1166 C 0.5905 0.51268 0.64787 0.0
C1167 C 0.60181 0.49993 0.65137 0.0
C1168 C 0.61283 0.4995 0.68854 0.0
C1169 C 0.6127 0.5118 0.72224 0.0
C1170 C 0.60161 0.52461 0.71867 0.0
C1171 C 0.59057 0.5251 0.68155 0.0
H1172 H 0.62121 0.51142 0.75107 0.0
H1173 H 0.50767 0.51936 0.40884 0.0
H1174 H 0.86021 0.22979 0.98827 0.0
H1175 H 0.83824 0.22794 0.93076 0.0
H1176 H 0.87246 0.23836 0.82016 0.0
H1177 H 0.89405 0.24136 0.87787 0.0
H1178 H 0.84784 0.25481 0.80448 0.0
H1179 H 0.85511 0.19868 0.84364 0.0
H1180 H 0.85726 0.17481 0.89541 0.0
H1181 H 0.80848 0.18272 0.94362 0.0
H1182 H 0.8061 0.20676 0.89252 0.0
H1183 H 0.79726 0.22705 0.61659 0.0
H1184 H 0.81841 0.22521 0.6768 0.0
H1185 H 0.78364 0.23931 0.782 0.0
H1186 H 0.76254 0.24164 0.72199 0.0
H1187 H 0.80779 0.20977 0.79937 0.0
H1188 H 0.8028 0.26759 0.75875 0.0
H1189 H 0.80178 0.28989 0.70122 0.0
H1190 H 0.84864 0.27598 0.64867 0.0
H1191 H 0.84982 0.25344 0.70554 0.0
C1192 C 0.86295 0.23163 0.95161 0.0
C1193 C 0.87871 0.23578 0.93729 0.0
C1194 C 0.85045 0.23045 0.91872 0.0
C1195 C 0.85371 0.23278 0.87091 0.0
C1196 C 0.86959 0.23659 0.85677 0.0
C1197 C 0.88193 0.23827 0.8897 0.0
C1198 C 0.84053 0.23202 0.83562 0.0
C1199 C 0.83928 0.24479 0.8032 0.0
C1200 C 0.82913 0.21911 0.834 0.0
C1201 C 0.83049 0.20461 0.86458 0.0
C1202 C 0.84488 0.19539 0.86551 0.0
C1203 C 0.84613 0.18182 0.89469 0.0
C1204 C 0.83303 0.17727 0.92287 0.0
C1205 C 0.81863 0.18626 0.92181 0.0
C1206 C 0.81731 0.19985 0.89271 0.0
C1207 C 0.79412 0.22962 0.65262 0.0
C1208 C 0.77834 0.2346 0.66471 0.0
C1209 C 0.80615 0.22854 0.68682 0.0
C1210 C 0.80246 0.2321 0.73353 0.0
C1211 C 0.7866 0.23646 0.74602 0.0
C1212 C 0.77465 0.23789 0.71174 0.0
C1213 C 0.81542 0.2324 0.76885 0.0
C1214 C 0.81651 0.21964 0.80104 0.0
C1215 C 0.82693 0.24508 0.7697 0.0
C1216 C 0.82631 0.25874 0.73599 0.0
C1217 C 0.81282 0.2692 0.73464 0.0
C1218 C 0.81222 0.2819 0.70223 0.0
C1219 C 0.82512 0.28432 0.67121 0.0
C1220 C 0.83865 0.27408 0.67267 0.0
C1221 C 0.83929 0.26135 0.705 0.0
H1222 H 0.82464 0.29416 0.64613 0.0
H1223 H 0.83403 0.16677 0.94546 0.0
H1224 H 0.30424 0.2392 0.97773 0.0
H1225 H 0.32742 0.24339 0.9257 0.0
H1226 H 0.31635 0.29457 0.91842 0.0
H1227 H 0.29327 0.29054 0.97135 0.0
H1228 H 0.31681 0.27696 0.83084 0.0
H1229 H 0.34994 0.28606 0.9654 0.0
H1230 H 0.36103 0.2801 0.04358 0.0
H1231 H 0.38089 0.23517 0.99289 0.0
H1232 H 0.36971 0.24073 0.91453 0.0
H1233 H 0.37937 0.28779 0.66459 0.0
H1234 H 0.36221 0.29132 0.73346 0.0
H1235 H 0.37576 0.24351 0.78189 0.0
H1236 H 0.39345 0.24016 0.71399 0.0
H1237 H 0.37508 0.2635 0.85268 0.0
H1238 H 0.33909 0.2511 0.72529 0.0
H1239 H 0.32684 0.25453 0.64724 0.0
H1240 H 0.311 0.30255 0.68442 0.0
H1241 H 0.32336 0.29948 0.76254 0.0
C1242 C 0.30697 0.2514 0.96589 0.0
C1243 C 0.29693 0.26453 0.97817 0.0
C1244 C 0.32024 0.25379 0.93644 0.0
C1245 C 0.32353 0.26928 0.91844 0.0
C1246 C 0.31399 0.28255 0.9323 0.0
C1247 C 0.30087 0.28023 0.96251 0.0
C1248 C 0.33553 0.27105 0.88057 0.0
C1249 C 0.32965 0.27444 0.83566 0.0
C1250 C 0.35208 0.26715 0.88703 0.0
C1251 C 0.35888 0.26377 0.93411 0.0
C1252 C 0.35655 0.27484 0.97099 0.0
C1253 C 0.36288 0.27155 0.01534 0.0
C1254 C 0.37163 0.25725 0.02322 0.0
C1255 C 0.3741 0.24624 0.98673 0.0
C1256 C 0.36779 0.24946 0.94232 0.0
C1257 C 0.37867 0.27802 0.68989 0.0
C1258 C 0.38763 0.26364 0.68374 0.0
C1259 C 0.36886 0.28006 0.72921 0.0
C1260 C 0.36754 0.26759 0.76248 0.0
C1261 C 0.37663 0.2533 0.75669 0.0
C1262 C 0.38665 0.25136 0.71776 0.0
C1263 C 0.35632 0.26919 0.80266 0.0
C1264 C 0.36232 0.26636 0.8479 0.0
C1265 C 0.33974 0.27325 0.79647 0.0
C1266 C 0.33232 0.27514 0.74952 0.0
C1267 C 0.33311 0.26244 0.71668 0.0
C1268 C 0.32613 0.26431 0.67246 0.0
C1269 C 0.3182 0.27877 0.66083 0.0
C1270 C 0.31719 0.29137 0.69345 0.0
C1271 C 0.32417 0.28957 0.7377 0.0
H1272 H 0.31279 0.28019 0.62658 0.0
H1273 H 0.37652 0.25473 0.05758 0.0
H1274 H 0.40683 0.74302 0.38014 0.0
H1275 H 0.3867 0.74483 0.31765 0.0
H1276 H 0.34841 0.73572 0.41756 0.0
H1277 H 0.36862 0.73299 0.47964 0.0
H1278 H 0.34213 0.71982 0.34398 0.0
H1279 H 0.35788 0.77501 0.37246 0.0
H1280 H 0.37697 0.7979 0.38157 0.0
H1281 H 0.3929 0.79179 0.23974 0.0
H1282 H 0.37405 0.76872 0.22996 0.0
H1283 H 0.27739 0.75779 0.21606 0.0
H1284 H 0.30022 0.75667 0.27072 0.0
H1285 H 0.33073 0.73649 0.16286 0.0
H1286 H 0.30782 0.73714 0.108 0.0
H1287 H 0.34131 0.76712 0.23626 0.0
H1288 H 0.32507 0.70967 0.21441 0.0
H1289 H 0.30394 0.68846 0.20969 0.0
H1290 H 0.28664 0.70169 0.34611 0.0
H1291 H 0.30754 0.72315 0.35124 0.0
C1292 C 0.39411 0.74138 0.38864 0.0
C1293 C 0.38922 0.73794 0.43461 0.0
C1294 C 0.38261 0.74251 0.35302 0.0
C1295 C 0.36601 0.74076 0.36306 0.0
C1296 C 0.36115 0.73714 0.40897 0.0
C1297 C 0.37268 0.73561 0.44441 0.0
C1298 C 0.35368 0.74251 0.32574 0.0
C1299 C 0.34197 0.73024 0.32073 0.0
C1300 C 0.35346 0.75605 0.29501 0.0
C1301 C 0.36467 0.77003 0.30063 0.0
C1302 C 0.36553 0.77849 0.3433 0.0
C1303 C 0.37629 0.7915 0.34858 0.0
C1304 C 0.38618 0.79627 0.31131 0.0
C1305 C 0.38526 0.78807 0.26861 0.0
C1306 C 0.37453 0.77503 0.26316 0.0
C1307 C 0.289 0.75329 0.20378 0.0
C1308 C 0.29084 0.74745 0.15793 0.0
C1309 C 0.30198 0.75267 0.23499 0.0
C1310 C 0.317 0.74647 0.22054 0.0
C1311 C 0.31914 0.7413 0.17432 0.0
C1312 C 0.30607 0.74161 0.14326 0.0
C1313 C 0.33008 0.74444 0.2549 0.0
C1314 C 0.34176 0.75669 0.25943 0.0
C1315 C 0.33013 0.7311 0.28582 0.0
C1316 C 0.31771 0.71811 0.28295 0.0
C1317 C 0.31665 0.70815 0.24316 0.0
C1318 C 0.30475 0.69607 0.24046 0.0
C1319 C 0.29392 0.69376 0.27751 0.0
C1320 C 0.29501 0.70351 0.3174 0.0
C1321 C 0.30688 0.71562 0.32023 0.0
H1322 H 0.28472 0.6844 0.27537 0.0
H1323 H 0.39452 0.80633 0.31548 0.0
H1324 H 0.59896 0.91909 0.46897 0.0
H1325 H 0.60051 0.9361 0.53892 0.0
H1326 H 0.60828 0.97838 0.45233 0.0
H1327 H 0.60753 0.96132 0.38257 0.0
H1328 H 0.62551 0.98122 0.52713 0.0
H1329 H 0.56949 0.96649 0.49455 0.0
H1330 H 0.54699 0.94714 0.4821 0.0
H1331 H 0.55471 0.92711 0.61891 0.0
H1332 H 0.57738 0.94624 0.63194 0.0
H1333 H 0.56871 0.0359 0.66542 0.0
H1334 H 0.57295 0.01195 0.6171 0.0
H1335 H 0.6186 0.0028 0.68651 0.0
H1336 H 0.61463 0.0271 0.73455 0.0
H1337 H 0.57688 0.98043 0.62969 0.0
H1338 H 0.64553 0.98925 0.60362 0.0
H1339 H 0.66622 0.01091 0.60855 0.0
H1340 H 0.62996 0.0468 0.57699 0.0
H1341 H 0.60912 0.02534 0.57131 0.0
C1342 C 0.60119 0.932 0.46499 0.0
C1343 C 0.60294 0.93895 0.42041 0.0
C1344 C 0.60204 0.94169 0.50493 0.0
C1345 C 0.60417 0.95855 0.50081 0.0
C1346 C 0.60662 0.96539 0.45638 0.0
C1347 C 0.60612 0.95565 0.41651 0.0
C1348 C 0.60277 0.96933 0.54208 0.0
C1349 C 0.61496 0.98093 0.54987 0.0
C1350 C 0.58895 0.96902 0.57161 0.0
C1351 C 0.57522 0.95766 0.564 0.0
C1352 C 0.56643 0.9579 0.52186 0.0
C1353 C 0.55365 0.94698 0.51472 0.0
C1354 C 0.54946 0.93587 0.54963 0.0
C1355 C 0.558 0.9357 0.59186 0.0
C1356 C 0.5708 0.94658 0.59916 0.0
C1357 C 0.57959 0.02872 0.67088 0.0
C1358 C 0.59146 0.03354 0.70336 0.0
C1359 C 0.58194 0.01496 0.64336 0.0
C1360 C 0.59618 0.00572 0.64784 0.0
C1361 C 0.60764 0.00993 0.68209 0.0
C1362 C 0.60534 0.02379 0.70951 0.0
C1363 C 0.59941 0.99256 0.61388 0.0
C1364 C 0.58761 0.98047 0.60764 0.0
C1365 C 0.61332 0.99274 0.5848 0.0
C1366 C 0.62576 0.00572 0.58769 0.0
C1367 C 0.642 0.00177 0.59767 0.0
C1368 C 0.65375 0.014 0.60058 0.0
C1369 C 0.64939 0.03023 0.59328 0.0
C1370 C 0.6333 0.03424 0.58284 0.0
C1371 C 0.62152 0.02205 0.57981 0.0
H1372 H 0.6585 0.03968 0.5956 0.0
H1373 H 0.53958 0.92741 0.54402 0.0
H1374 H 0.10305 0.04764 0.93024 0.0
H1375 H 0.10051 0.02549 0.98635 0.0
H1376 H 0.05253 0.01474 0.93409 0.0
H1377 H 0.055 0.03681 0.87731 0.0
H1378 H 0.07851 0.02337 0.05595 0.0
H1379 H 0.04602 0.97363 0.94838 0.0
H1380 H 0.04412 0.96442 0.86646 0.0
H1381 H 0.09183 0.98321 0.83895 0.0
H1382 H 0.09412 0.99231 0.92083 0.0
H1383 H 0.04733 0.96341 0.2092 0.0
H1384 H 0.04888 0.98292 0.14486 0.0
H1385 H 0.0884 0.9557 0.08404 0.0
H1386 H 0.08684 0.93606 0.14766 0.0
H1387 H 0.06675 0.96571 0.01793 0.0
H1388 H 0.09628 0.98865 0.14828 0.0
H1389 H 0.09942 0.99782 0.22989 0.0
H1390 H 0.06091 0.03241 0.2108 0.0
H1391 H 0.05738 0.02327 0.12927 0.0
C1392 C 0.09202 0.04047 0.93023 0.0
C1393 C 0.07918 0.04404 0.89948 0.0
C1394 C 0.09058 0.02786 0.96245 0.0
C1395 C 0.07634 0.01855 0.96434 0.0
C1396 C 0.06367 0.02174 0.93287 0.0
C1397 C 0.0651 0.03437 0.90054 0.0
C1398 C 0.07453 0.00599 0.00076 0.0
C1399 C 0.07593 0.01076 0.04765 0.0
C1400 C 0.07123 0.98957 0.98972 0.0
C1401 C 0.07017 0.98379 0.94066 0.0
C1402 C 0.05614 0.97572 0.92491 0.0
C1403 C 0.05499 0.97053 0.87848 0.0
C1404 C 0.06784 0.97326 0.84752 0.0
C1405 C 0.08188 0.98114 0.86295 0.0
C1406 C 0.0831 0.98633 0.90935 0.0
C1407 C 0.0563 0.96154 0.18206 0.0
C1408 C 0.06704 0.94826 0.18375 0.0
C1409 C 0.05716 0.97268 0.14535 0.0
C1410 C 0.06883 0.97076 0.11 0.0
C1411 C 0.07929 0.95734 0.11099 0.0
C1412 C 0.07844 0.9462 0.14758 0.0
C1413 C 0.0707 0.98313 0.07305 0.0
C1414 C 0.06926 0.97834 0.02614 0.0
C1415 C 0.0742 -0.00048 0.08398 0.0
C1416 C 0.07647 0.00517 0.13282 0.0
C1417 C 0.08841 0.99813 0.16159 0.0
C1418 C 0.09027 0.00333 0.20782 0.0
C1419 C 0.08034 0.01566 0.22555 0.0
C1420 C 0.06858 0.02285 0.19704 0.0
C1421 C 0.06665 0.01767 0.15082 0.0
H1422 H 0.08178 0.01967 0.26133 0.0
H1423 H 0.06692 0.96925 0.81158 0.0
H1424 H 0.12368 0.44576 0.66099 0.0
H1425 H 0.12054 0.46786 0.60506 0.0
H1426 H 0.06843 0.46393 0.61528 0.0
H1427 H 0.07145 0.44164 0.67173 0.0
H1428 H 0.07992 0.47039 0.52281 0.0
H1429 H 0.08484 0.49192 0.67661 0.0
H1430 H 0.09668 0.49474 0.75534 0.0
H1431 H 0.14173 0.51077 0.69535 0.0
H1432 H 0.13025 0.50778 0.61616 0.0
H1433 H 0.0738 0.54887 0.41391 0.0
H1434 H 0.06984 0.52753 0.47284 0.0
H1435 H 0.12178 0.52304 0.48827 0.0
H1436 H 0.12581 0.5442 0.42969 0.0
H1437 H 0.10586 0.52202 0.57283 0.0
H1438 H 0.10149 0.4973 0.4192 0.0
H1439 H 0.08963 0.49409 0.34058 0.0
H1440 H 0.04294 0.4843 0.40137 0.0
H1441 H 0.0545 0.48768 0.4804 0.0
C1442 C 0.11152 0.44934 0.6508 0.0
C1443 C 0.09781 0.44203 0.67121 0.0
C1444 C 0.10976 0.46204 0.61892 0.0
C1445 C 0.09426 0.46774 0.60678 0.0
C1446 C 0.0805 0.45976 0.62446 0.0
C1447 C 0.08225 0.44701 0.65662 0.0
C1448 C 0.09269 0.48269 0.57813 0.0
C1449 C 0.0853 0.48178 0.53406 0.0
C1450 C 0.09978 0.49751 0.59281 0.0
C1451 C 0.10671 0.4995 0.6404 0.0
C1452 C 0.09731 0.49593 0.68017 0.0
C1453 C 0.10395 0.49757 0.72489 0.0
C1454 C 0.11996 0.5029 0.73034 0.0
C1455 C 0.12934 0.50664 0.69107 0.0
C1456 C 0.12276 0.50498 0.64625 0.0
C1457 C 0.08435 0.54351 0.43046 0.0
C1458 C 0.10012 0.54816 0.41702 0.0
C1459 C 0.08208 0.53126 0.46388 0.0
C1460 C 0.09553 0.52358 0.48455 0.0
C1461 C 0.11123 0.52878 0.47274 0.0
C1462 C 0.11351 0.54086 0.43915 0.0
C1463 C 0.0935 0.50963 0.51693 0.0
C1464 C 0.10023 0.51073 0.56185 0.0
C1465 C 0.08573 0.49504 0.50307 0.0
C1466 C 0.0788 0.49295 0.45564 0.0
C1467 C 0.08866 0.4946 0.41578 0.0
C1468 C 0.082 0.49272 0.37115 0.0
C1469 C 0.06553 0.48904 0.36598 0.0
C1470 C 0.05569 0.48719 0.40543 0.0
C1471 C 0.06229 0.48908 0.45014 0.0
H1472 H 0.0604 0.48759 0.3314 0.0
H1473 H 0.12508 0.50416 0.76499 0.0
H1474 H 0.8682 0.79048 0.94037 0.0
H1475 H 0.84549 0.78734 0.88654 0.0
H1476 H 0.85858 0.7372 0.86393 0.0
H1477 H 0.88151 0.74022 0.91821 0.0
H1478 H 0.84932 0.75373 0.78131 0.0
H1479 H 0.82851 0.74416 0.93438 0.0
H1480 H 0.82423 0.7497 0.01816 0.0
H1481 H 0.80026 0.79455 0.98434 0.0
H1482 H 0.80462 0.7894 0.90032 0.0
H1483 H 0.77471 0.74201 0.66352 0.0
H1484 H 0.79451 0.73741 0.72596 0.0
H1485 H 0.79035 0.7876 0.76773 0.0
H1486 H 0.77062 0.79233 0.70541 0.0
H1487 H 0.79443 0.76645 0.8435 0.0
H1488 H 0.81855 0.7777 0.69232 0.0
H1489 H 0.82266 0.77258 0.60818 0.0
H1490 H 0.84038 0.72465 0.63871 0.0
H1491 H 0.8361 0.72939 0.72305 0.0
C1492 C 0.86641 0.77881 0.92364 0.0
C1493 C 0.87662 0.76556 0.93386 0.0
C1494 C 0.85336 0.77702 0.89301 0.0
C1495 C 0.85018 0.76196 0.87193 0.0
C1496 C 0.86078 0.7489 0.88013 0.0
C1497 C 0.87387 0.75065 0.91107 0.0
C1498 C 0.83546 0.75996 0.84259 0.0
C1499 C 0.83728 0.75615 0.79509 0.0
C1500 C 0.81977 0.76333 0.86052 0.0
C1501 C 0.817 0.76644 0.91103 0.0
C1502 C 0.82243 0.75526 0.9448 0.0
C1503 C 0.81998 0.75833 0.99234 0.0
C1504 C 0.81201 0.77248 0.00657 0.0
C1505 C 0.80644 0.78359 0.97326 0.0
C1506 C 0.80889 0.7806 0.92567 0.0
C1507 C 0.77761 0.75195 0.68692 0.0
C1508 C 0.77123 0.76758 0.67926 0.0
C1509 C 0.78901 0.74931 0.72239 0.0
C1510 C 0.79409 0.76224 0.75086 0.0
C1511 C 0.78664 0.77748 0.74598 0.0
C1512 C 0.77536 0.78016 0.71031 0.0
C1513 C 0.80834 0.76051 0.78216 0.0
C1514 C 0.80643 0.76369 0.82997 0.0
C1515 C 0.82394 0.75658 0.7645 0.0
C1516 C 0.82682 0.75382 0.71392 0.0
C1517 C 0.82321 0.76602 0.68106 0.0
C1518 C 0.82558 0.7632 0.63335 0.0
C1519 C 0.83173 0.74828 0.6181 0.0
C1520 C 0.83558 0.73618 0.65057 0.0
C1521 C 0.83319 0.73893 0.69833 0.0
H1522 H 0.83354 0.74611 0.58114 0.0
H1523 H 0.81012 0.77483 0.04339 0.0
H1524 H 0.55036 0.54114 0.1835 0.0
H1525 H 0.55367 0.51866 0.12901 0.0
H1526 H 0.60399 0.53154 0.10915 0.0
H1527 H 0.60076 0.5543 0.16403 0.0
H1528 H 0.58821 0.52243 0.02568 0.0
H1529 H 0.59627 0.50107 0.17853 0.0
H1530 H 0.59016 0.49669 0.26194 0.0
H1531 H 0.54512 0.47362 0.22543 0.0
H1532 H 0.55084 0.47809 0.14178 0.0
H1533 H 0.59742 0.44655 0.90744 0.0
H1534 H 0.60271 0.46698 0.96802 0.0
H1535 H 0.55245 0.46486 0.01033 0.0
H1536 H 0.54708 0.4446 0.94991 0.0
H1537 H 0.57365 0.4677 0.08564 0.0
H1538 H 0.56402 0.49275 0.93443 0.0
H1539 H 0.56972 0.49738 0.85085 0.0
H1540 H 0.61792 0.5135 0.8847 0.0
H1541 H 0.61257 0.5087 0.96851 0.0
C1542 C 0.56212 0.53936 0.16726 0.0
C1543 C 0.57534 0.54946 0.17843 0.0
C1544 C 0.564 0.52643 0.13622 0.0
C1545 C 0.57915 0.52323 0.11576 0.0
C1546 C 0.59222 0.53375 0.12486 0.0
C1547 C 0.59034 0.54675 0.15614 0.0
C1548 C 0.58121 0.50854 0.08622 0.0
C1549 C 0.5854 0.51041 0.03899 0.0
C1550 C 0.5774 0.49288 0.10355 0.0
C1551 C 0.57395 0.49002 0.15385 0.0
C1552 C 0.58501 0.49516 0.18828 0.0
C1553 C 0.58162 0.49265 0.23561 0.0
C1554 C 0.56725 0.48491 0.24898 0.0
C1555 C 0.55625 0.47962 0.21502 0.0
C1556 C 0.55957 0.48213 0.16763 0.0
C1557 C 0.58761 0.45013 0.93049 0.0
C1558 C 0.57181 0.44405 0.92379 0.0
C1559 C 0.59063 0.46188 0.96483 0.0
C1560 C 0.57791 0.46759 0.99317 0.0
C1561 C 0.56242 0.46066 0.98873 0.0
C1562 C 0.55936 0.44908 0.95417 0.0
C1563 C 0.58023 0.48165 0.02491 0.0
C1564 C 0.57683 0.47967 0.07258 0.0
C1565 C 0.58479 0.49718 0.00796 0.0
C1566 C 0.58797 0.50017 0.95765 0.0
C1567 C 0.57588 0.49714 0.92401 0.0
C1568 C 0.57904 0.49982 0.87661 0.0
C1569 C 0.59419 0.50568 0.86246 0.0
C1570 C 0.6062 0.50892 0.89571 0.0
C1571 C 0.60311 0.50623 0.94316 0.0
H1572 H 0.59661 0.50775 0.82575 0.0
H1573 H 0.56465 0.48298 0.28564 0.0
H1574 H 0.88268 0.2078 0.18438 0.0
H1575 H 0.8606 0.21048 0.24072 0.0
H1576 H 0.86261 0.26266 0.22764 0.0
H1577 H 0.88496 0.26009 0.17137 0.0
H1578 H 0.85618 0.25285 0.31859 0.0
H1579 H 0.83523 0.2425 0.16564 0.0
H1580 H 0.83322 0.22812 0.09024 0.0
H1581 H 0.81936 0.18433 0.16148 0.0
H1582 H 0.82155 0.19838 0.23741 0.0
H1583 H 0.77744 0.26033 0.42277 0.0
H1584 H 0.79927 0.26281 0.36481 0.0
H1585 H 0.80343 0.21058 0.35914 0.0
H1586 H 0.78163 0.20801 0.41636 0.0
H1587 H 0.80582 0.22364 0.27333 0.0
H1588 H 0.82905 0.23347 0.42624 0.0
H1589 H 0.83145 0.24769 0.50182 0.0
H1590 H 0.84088 0.2926 0.43031 0.0
H1591 H 0.83832 0.27866 0.35425 0.0
C1592 C 0.87867 0.21988 0.19408 0.0
C1593 C 0.88548 0.23373 0.17301 0.0
C1594 C 0.86598 0.22138 0.22617 0.0
C1595 C 0.8597 0.23675 0.23753 0.0
C1596 C 0.86719 0.25068 0.21909 0.0
C1597 C 0.87999 0.24918 0.18702 0.0
C1598 C 0.84467 0.23805 0.26612 0.0
C1599 C 0.84508 0.2467 0.30836 0.0
C1600 C 0.83021 0.22992 0.25292 0.0
C1601 C 0.82867 0.22147 0.20726 0.0
C1602 C 0.83185 0.22978 0.16526 0.0
C1603 C 0.83068 0.22169 0.12242 0.0
C1604 C 0.8262 0.20532 0.12108 0.0
C1605 C 0.82284 0.19701 0.16258 0.0
C1606 C 0.82403 0.20504 0.20553 0.0
C1607 C 0.78282 0.24938 0.40856 0.0
C1608 C 0.77784 0.23397 0.42433 0.0
C1609 C 0.79538 0.25082 0.37571 0.0
C1610 C 0.80316 0.23688 0.35816 0.0
C1611 C 0.79766 0.22151 0.37227 0.0
C1612 C 0.78518 0.22006 0.40507 0.0
C1613 C 0.81741 0.23811 0.3264 0.0
C1614 C 0.81685 0.22995 0.28338 0.0
C1615 C 0.83169 0.24671 0.33891 0.0
C1616 C 0.83331 0.25507 0.38458 0.0
C1617 C 0.83151 0.2464 0.42664 0.0
C1618 C 0.83292 0.2544 0.46956 0.0
C1619 C 0.83627 0.27105 0.47086 0.0
C1620 C 0.83826 0.27971 0.42924 0.0
C1621 C 0.83684 0.27177 0.38622 0.0
H1622 H 0.83735 0.27722 0.50413 0.0
H1623 H 0.8253 0.19907 0.08788 0.0
H1624 H 0.38407 0.23716 0.43408 0.0
H1625 H 0.36128 0.23244 0.38042 0.0
H1626 H 0.34718 0.28273 0.39327 0.0
H1627 H 0.36977 0.28755 0.4465 0.0
H1628 H 0.32148 0.26197 0.40613 0.0
H1629 H 0.36573 0.26936 0.29624 0.0
H1630 H 0.39235 0.26302 0.26108 0.0
H1631 H 0.37632 0.21446 0.23113 0.0
H1632 H 0.34966 0.22046 0.26669 0.0
H1633 H 0.2726 0.28302 0.21449 0.0
H1634 H 0.29232 0.27898 0.27688 0.0
H1635 H 0.29836 0.22895 0.23512 0.0
H1636 H 0.27862 0.23297 0.17199 0.0
H1637 H 0.32714 0.24412 0.24135 0.0
H1638 H 0.28149 0.23793 0.34055 0.0
H1639 H 0.25473 0.24427 0.37469 0.0
H1640 H 0.27296 0.2899 0.42518 0.0
H1641 H 0.29979 0.28396 0.39074 0.0
C1642 C 0.37623 0.24725 0.42499 0.0
C1643 C 0.37875 0.26273 0.4446 0.0
C1644 C 0.3632 0.24452 0.39441 0.0
C1645 C 0.35249 0.25723 0.38304 0.0
C1646 C 0.35522 0.27273 0.40183 0.0
C1647 C 0.36822 0.27548 0.43208 0.0
C1648 C 0.33821 0.25452 0.35235 0.0
C1649 C 0.3227 0.25814 0.37001 0.0
C1650 C 0.33975 0.24892 0.30582 0.0
C1651 C 0.35579 0.24529 0.28468 0.0
C1652 C 0.36794 0.25728 0.28258 0.0
C1653 C 0.38302 0.25376 0.26248 0.0
C1654 C 0.38604 0.23833 0.24403 0.0
C1655 C 0.37398 0.22639 0.24553 0.0
C1656 C 0.35888 0.22985 0.26564 0.0
C1657 C 0.27781 0.27104 0.2192 0.0
C1658 C 0.27407 0.25833 0.18818 0.0
C1659 C 0.28908 0.26872 0.25505 0.0
C1660 C 0.29682 0.25364 0.26081 0.0
C1661 C 0.29253 0.24069 0.23132 0.0
C1662 C 0.28117 0.24298 0.19547 0.0
C1663 C 0.31042 0.25206 0.29468 0.0
C1664 C 0.32582 0.24764 0.2777 0.0
C1665 C 0.30877 0.25687 0.34193 0.0
C1666 C 0.29265 0.26053 0.36278 0.0
C1667 C 0.27977 0.24938 0.35862 0.0
C1668 C 0.26459 0.25289 0.37809 0.0
C1669 C 0.26214 0.26748 0.40203 0.0
C1670 C 0.27488 0.27859 0.40662 0.0
C1671 C 0.29009 0.27515 0.38719 0.0
H1672 H 0.25038 0.27018 0.41708 0.0
H1673 H 0.39772 0.23563 0.22846 0.0
H1674 H 0.38301 0.70281 0.6812 0.0
H1675 H 0.36058 0.70597 0.73617 0.0
H1676 H 0.36606 0.75808 0.73062 0.0
H1677 H 0.38891 0.75496 0.67636 0.0
H1678 H 0.35823 0.74861 0.81717 0.0
H1679 H 0.33726 0.73899 0.66421 0.0
H1680 H 0.33459 0.72482 0.58865 0.0
H1681 H 0.31856 0.68168 0.65936 0.0
H1682 H 0.32136 0.69552 0.73543 0.0
H1683 H 0.2801 0.75978 0.91964 0.0
H1684 H 0.30103 0.76094 0.8587 0.0
H1685 H 0.30487 0.70866 0.86121 0.0
H1686 H 0.28406 0.70741 0.92191 0.0
H1687 H 0.30684 0.72129 0.77154 0.0
H1688 H 0.33033 0.7308 0.92475 0.0
H1689 H 0.33286 0.74535 0.99977 0.0
H1690 H 0.34364 0.78962 0.92656 0.0
H1691 H 0.34093 0.77536 0.85105 0.0
C1692 C 0.37965 0.71494 0.6923 0.0
C1693 C 0.38764 0.72865 0.67415 0.0
C1694 C 0.36673 0.71674 0.72348 0.0
C1695 C 0.36132 0.73228 0.73646 0.0
C1696 C 0.36993 0.74597 0.72073 0.0
C1697 C 0.38302 0.74417 0.68985 0.0
C1698 C 0.34627 0.73414 0.76469 0.0
C1699 C 0.34692 0.74287 0.80677 0.0
C1700 C 0.3315 0.72659 0.75129 0.0
C1701 C 0.32964 0.71826 0.70556 0.0
C1702 C 0.33326 0.72645 0.66367 0.0
C1703 C 0.33172 0.71848 0.62075 0.0
C1704 C 0.32644 0.70235 0.61921 0.0
C1705 C 0.32265 0.69417 0.6606 0.0
C1706 C 0.3242 0.70208 0.70364 0.0
C1707 C 0.28512 0.74852 0.90636 0.0
C1708 C 0.28051 0.73351 0.92575 0.0
C1709 C 0.29715 0.74921 0.87181 0.0
C1710 C 0.30466 0.7349 0.856 0.0
C1711 C 0.29927 0.71985 0.87304 0.0
C1712 C 0.28738 0.71917 0.90778 0.0
C1713 C 0.31891 0.73547 0.8243 0.0
C1714 C 0.3181 0.7272 0.78155 0.0
C1715 C 0.33347 0.74354 0.83692 0.0
C1716 C 0.33524 0.75206 0.88228 0.0
C1717 C 0.33312 0.74367 0.92466 0.0
C1718 C 0.3346 0.75185 0.96726 0.0
C1719 C 0.33836 0.76841 0.96793 0.0
C1720 C 0.3407 0.7768 0.92599 0.0
C1721 C 0.33919 0.76868 0.88328 0.0
H1722 H 0.33951 0.77473 0.00094 0.0
H1723 H 0.32525 0.6962 0.58594 0.0
H1724 H 0.57211 0.94775 0.16961 0.0
H1725 H 0.56707 0.97075 0.11691 0.0
H1726 H 0.61747 0.98466 0.12714 0.0
H1727 H 0.62258 0.9619 0.17961 0.0
H1728 H 0.59738 0.01053 0.13965 0.0
H1729 H 0.6031 0.96587 0.03063 0.0
H1730 H 0.59622 0.93914 0.99703 0.0
H1731 H 0.54745 0.95535 0.97115 0.0
H1732 H 0.55399 0.98213 0.00518 0.0
H1733 H 0.61654 0.05775 0.94205 0.0
H1734 H 0.61317 0.03857 0.00627 0.0
H1735 H 0.56229 0.03374 0.9729 0.0
H1736 H 0.5656 0.05302 0.90822 0.0
H1737 H 0.57745 0.00443 0.977 0.0
H1738 H 0.57312 0.0506 0.07531 0.0
H1739 H 0.58029 0.07742 0.10774 0.0
H1740 H 0.6263 0.0587 0.15362 0.0
H1741 H 0.61952 0.03182 0.12085 0.0
C1742 C 0.58214 0.95562 0.16023 0.0
C1743 C 0.59775 0.95297 0.17878 0.0
C1744 C 0.57924 0.96876 0.13018 0.0
C1745 C 0.5919 0.97944 0.11819 0.0
C1746 C 0.6075 0.97665 0.13616 0.0
C1747 C 0.61041 0.96354 0.16596 0.0
C1748 C 0.58906 0.99367 0.08727 0.0
C1749 C 0.59309 0.00921 0.10399 0.0
C1750 C 0.58292 0.99201 0.04134 0.0
C1751 C 0.57897 0.97592 0.021 0.0
C1752 C 0.59087 0.96368 0.01818 0.0
C1753 C 0.58704 0.94853 0.99897 0.0
C1754 C 0.57139 0.94553 0.98212 0.0
C1755 C 0.55955 0.95768 0.98432 0.0
C1756 C 0.56331 0.97285 0.00354 0.0
C1757 C 0.60453 0.05294 0.94906 0.0
C1758 C 0.59135 0.05687 0.91997 0.0
C1759 C 0.60261 0.04199 0.98591 0.0
C1760 C 0.58747 0.03471 0.99445 0.0
C1761 C 0.57408 0.03922 0.96693 0.0
C1762 C 0.57597 0.05032 0.93022 0.0
C1763 C 0.58621 0.02127 0.02893 0.0
C1764 C 0.58142 0.00585 0.01293 0.0
C1765 C 0.59167 0.02304 0.07553 0.0
C1766 C 0.59584 0.0392 0.09532 0.0
C1767 C 0.58482 0.05223 0.09198 0.0
C1768 C 0.58881 0.06744 0.11049 0.0
C1769 C 0.60375 0.06977 0.13266 0.0
C1770 C 0.61473 0.05688 0.13643 0.0
C1771 C 0.61081 0.04164 0.11795 0.0
H1772 H 0.60681 0.08155 0.14698 0.0
H1773 H 0.56845 0.93379 0.96724 0.0
H1774 H 0.0444 0.05162 0.673 0.0
H1775 H 0.04579 0.02942 0.61677 0.0
H1776 H 0.098 0.03346 0.61312 0.0
H1777 H 0.09675 0.05585 0.66976 0.0
H1778 H 0.08418 0.02687 0.52476 0.0
H1779 H 0.08317 0.00513 0.67879 0.0
H1780 H 0.07359 0.002 0.75998 0.0
H1781 H 0.0269 0.98644 0.71023 0.0
H1782 H 0.03613 0.98968 0.6287 0.0
H1783 H 0.08835 0.94814 0.41737 0.0
H1784 H 0.09321 0.96946 0.47571 0.0
H1785 H 0.04154 0.97452 0.49622 0.0
H1786 H 0.0366 0.95339 0.43796 0.0
H1787 H 0.05925 0.97535 0.57977 0.0
H1788 H 0.0604 -0.00016 0.42507 0.0
H1789 H 0.07073 0.00266 0.34452 0.0
H1790 H 0.11858 0.01241 0.39735 0.0
H1791 H 0.10856 0.00943 0.47823 0.0
C1792 C 0.05619 0.04804 0.65969 0.0
C1793 C 0.07048 0.05543 0.67623 0.0
C1794 C 0.05696 0.03527 0.62768 0.0
C1795 C 0.07202 0.02957 0.61156 0.0
C1796 C 0.08627 0.03761 0.62542 0.0
C1797 C 0.08552 0.05043 0.65767 0.0
C1798 C 0.0727 0.01464 0.58253 0.0
C1799 C 0.07901 0.01552 0.53704 0.0
C1800 C 0.06592 -0.00017 0.59858 0.0
C1801 C 0.06031 0.99778 0.64759 0.0
C1802 C 0.07081 0.00116 0.68514 0.0
C1803 C 0.06546 0.99935 0.73123 0.0
C1804 C 0.04963 0.99408 0.74025 0.0
C1805 C 0.03915 0.99055 0.70318 0.0
C1806 C 0.04445 0.99235 0.65702 0.0
C1807 C 0.07805 0.9536 0.43495 0.0
C1808 C 0.06208 0.94913 0.42296 0.0
C1809 C 0.08084 0.96584 0.46802 0.0
C1810 C 0.06772 0.97368 0.48988 0.0
C1811 C 0.05183 0.96864 0.4797 0.0
C1812 C 0.04903 0.95657 0.44634 0.0
C1813 C 0.07033 0.9877 0.52163 0.0
C1814 C 0.06463 0.98663 0.56772 0.0
C1815 C 0.07781 0.00225 0.50625 0.0
C1816 C 0.08378 0.00422 0.45766 0.0
C1817 C 0.07315 0.00246 0.41949 0.0
C1818 C 0.07894 0.00411 0.37378 0.0
C1819 C 0.09531 0.00765 0.36583 0.0
C1820 C 0.10591 0.00963 0.40357 0.0
C1821 C 0.10018 0.00797 0.44934 0.0
H1822 H 0.09979 0.0089 0.33043 0.0
H1823 H 0.0455 0.99269 0.77594 0.0
loop_
_geom_bond_atom_site_label_1
_geom_bond_atom_site_label_2
_geom_bond_distance
_geom_bond_site_symmetry_2
_ccdc_geom_bond_type
O0 Cd1 2.223 . S
O0 C8 1.315 . S
Cd1 O0 2.223 . S
Cd1 O4 2.297 . S
Cd1 O5 2.439 . S
Cd1 O11 2.240 . S
Cd2 O3 2.240 . S
Cd2 O10 2.223 . S
Cd2 O12 2.297 . S
Cd2 O13 2.439 . S
O3 Cd2 2.240 . S
O3 C8 1.279 . S
O4 Cd1 2.297 . S
O4 C6 1.247 . S
O5 Cd1 2.439 . S
O5 C6 1.208 . S
C6 O4 1.247 . S
C6 O5 1.208 . S
C7 O12 1.247 . S
C7 O13 1.208 . S
C8 O0 1.315 . S
C8 O3 1.279 . S
C9 O10 1.315 . S
C9 O11 1.279 . S
O10 Cd2 2.223 . S
O10 C9 1.315 . S
O11 Cd1 2.240 . S
O11 C9 1.279 . S
O12 Cd2 2.297 . S
O12 C7 1.247 . S
O13 Cd2 2.439 . S
O13 C7 1.208 . S
O14 Cd15 2.223 . S
O14 C22 1.315 . S
Cd15 O14 2.223 . S
Cd15 O18 2.297 . S
Cd15 O19 2.439 . S
Cd15 O25 2.240 . S
Cd16 O17 2.240 . S
Cd16 O24 2.223 . S
Cd16 O26 2.297 . S
Cd16 O27 2.439 . S
O17 Cd16 2.240 . S
O17 C22 1.279 . S
O18 Cd15 2.297 . S
O18 C20 1.247 . S
O19 Cd15 2.439 . S
O19 C20 1.208 . S
C20 O18 1.247 . S
C20 O19 1.208 . S
C21 O26 1.247 . S
C21 O27 1.208 . S
C22 O14 1.315 . S
C22 O17 1.279 . S
C23 O24 1.315 . S
C23 O25 1.279 . S
O24 Cd16 2.223 . S
O24 C23 1.315 . S
O25 Cd15 2.240 . S
O25 C23 1.279 . S
O26 Cd16 2.297 . S
O26 C21 1.247 . S
O27 Cd16 2.439 . S
O27 C21 1.208 . S
O28 Cd29 2.223 . S
O28 C36 1.315 . S
Cd29 O28 2.223 . S
Cd29 O32 2.297 . S
Cd29 O33 2.439 . S
Cd29 O39 2.240 . S
Cd30 O31 2.240 . S
Cd30 O38 2.223 . S
Cd30 O40 2.297 . S
Cd30 O41 2.439 . S
O31 Cd30 2.240 . S
O31 C36 1.279 . S
O32 Cd29 2.297 . S
O32 C34 1.247 . S
O33 Cd29 2.439 . S
O33 C34 1.208 . S
C34 O32 1.247 . S
C34 O33 1.208 . S
C35 O40 1.247 . S
C35 O41 1.208 . S
C36 O28 1.315 . S
C36 O31 1.279 . S
C37 O38 1.315 . S
C37 O39 1.279 . S
O38 Cd30 2.223 . S
O38 C37 1.315 . S
O39 Cd29 2.240 . S
O39 C37 1.279 . S
O40 Cd30 2.297 . S
O40 C35 1.247 . S
O41 Cd30 2.439 . S
O41 C35 1.208 . S
O42 Cd43 2.223 1_556 S
O42 C50 1.315 . S
Cd43 O42 2.223 1_554 S
Cd43 O46 2.297 . S
Cd43 O47 2.439 . S
Cd43 O53 2.240 . S
Cd44 O45 2.240 . S
Cd44 O52 2.223 . S
Cd44 O54 2.297 . S
Cd44 O55 2.439 1_556 S
O45 Cd44 2.240 . S
O45 C50 1.279 . S
O46 Cd43 2.297 . S
O46 C48 1.247 . S
O47 Cd43 2.439 . S
O47 C48 1.208 . S
C48 O46 1.247 . S
C48 O47 1.208 . S
C49 O54 1.247 . S
C49 O55 1.208 1_556 S
C50 O42 1.315 . S
C50 O45 1.279 . S
C51 O52 1.315 . S
C51 O53 1.279 1_556 S
O52 Cd44 2.223 . S
O52 C51 1.315 . S
O53 Cd43 2.240 . S
O53 C51 1.279 1_554 S
O54 Cd44 2.297 . S
O54 C49 1.247 . S
O55 Cd44 2.439 1_554 S
O55 C49 1.208 1_554 S
O56 Cd57 2.223 . S
O56 C64 1.315 . S
Cd57 O56 2.223 . S
Cd57 O60 2.297 . S
Cd57 O61 2.439 . S
Cd57 O67 2.240 . S
Cd58 O59 2.240 . S
Cd58 O66 2.223 . S
Cd58 O68 2.297 . S
Cd58 O69 2.439 . S
O59 Cd58 2.240 . S
O59 C64 1.279 . S
O60 Cd57 2.297 . S
O60 C62 1.247 . S
O61 Cd57 2.439 . S
O61 C62 1.208 . S
C62 O60 1.247 . S
C62 O61 1.208 . S
C63 O68 1.247 . S
C63 O69 1.208 . S
C64 O56 1.315 . S
C64 O59 1.279 . S
C65 O66 1.315 . S
C65 O67 1.279 . S
O66 Cd58 2.223 . S
O66 C65 1.315 . S
O67 Cd57 2.240 . S
O67 C65 1.279 . S
O68 Cd58 2.297 . S
O68 C63 1.247 . S
O69 Cd58 2.439 . S
O69 C63 1.208 . S
O70 Cd71 2.223 . S
O70 C78 1.315 . S
Cd71 O70 2.223 . S
Cd71 O74 2.297 . S
Cd71 O75 2.439 . S
Cd71 O81 2.240 . S
Cd72 O73 2.240 . S
Cd72 O80 2.223 . S
Cd72 O82 2.297 . S
Cd72 O83 2.439 . S
O73 Cd72 2.240 . S
O73 C78 1.279 . S
O74 Cd71 2.297 . S
O74 C76 1.247 1_554 S
O75 Cd71 2.439 . S
O75 C76 1.208 1_554 S
C76 O74 1.247 1_556 S
C76 O75 1.208 1_556 S
C77 O82 1.247 . S
C77 O83 1.208 . S
C78 O70 1.315 . S
C78 O73 1.279 . S
C79 O80 1.315 . S
C79 O81 1.279 . S
O80 Cd72 2.223 . S
O80 C79 1.315 . S
O81 Cd71 2.240 . S
O81 C79 1.279 . S
O82 Cd72 2.297 . S
O82 C77 1.247 . S
O83 Cd72 2.439 . S
O83 C77 1.208 . S
O84 Cd85 2.223 . S
O84 C92 1.315 . S
Cd85 O84 2.223 . S
Cd85 O88 2.297 . S
Cd85 O89 2.439 . S
Cd85 O95 2.240 . S
Cd86 O87 2.240 . S
Cd86 O94 2.223 . S
Cd86 O96 2.297 . S
Cd86 O97 2.439 . S
O87 Cd86 2.240 . S
O87 C92 1.279 . S
O88 Cd85 2.297 . S
O88 C90 1.247 . S
O89 Cd85 2.439 . S
O89 C90 1.208 . S
C90 O88 1.247 . S
C90 O89 1.208 . S
C91 O96 1.247 . S
C91 O97 1.208 . S
C92 O84 1.315 . S
C92 O87 1.279 . S
C93 O94 1.315 . S
C93 O95 1.279 . S
O94 Cd86 2.223 . S
O94 C93 1.315 . S
O95 Cd85 2.240 . S
O95 C93 1.279 . S
O96 Cd86 2.297 . S
O96 C91 1.247 . S
O97 Cd86 2.439 . S
O97 C91 1.208 . S
O98 Cd99 2.223 . S
O98 C106 1.315 . S
Cd99 O98 2.223 . S
Cd99 O102 2.297 . S
Cd99 O103 2.439 . S
Cd99 O109 2.240 . S
Cd100 O101 2.240 . S
Cd100 O108 2.223 . S
Cd100 O110 2.297 . S
Cd100 O111 2.439 . S
O101 Cd100 2.240 . S
O101 C106 1.279 . S
O102 Cd99 2.297 . S
O102 C104 1.247 . S
O103 Cd99 2.439 . S
O103 C104 1.208 . S
C104 O102 1.247 . S
C104 O103 1.208 . S
C105 O110 1.247 . S
C105 O111 1.208 . S
C106 O98 1.315 . S
C106 O101 1.279 . S
C107 O108 1.315 . S
C107 O109 1.279 . S
O108 Cd100 2.223 . S
O108 C107 1.315 . S
O109 Cd99 2.240 . S
O109 C107 1.279 . S
O110 Cd100 2.297 . S
O110 C105 1.247 . S
O111 Cd100 2.439 . S
O111 C105 1.208 . S
O112 Cd113 2.223 . S
O112 C120 1.315 . S
Cd113 O112 2.223 . S
Cd113 O116 2.297 . S
Cd113 O117 2.439 . S
Cd113 O123 2.240 . S
Cd114 O115 2.240 . S
Cd114 O122 2.223 . S
Cd114 O124 2.297 . S
Cd114 O125 2.439 . S
O115 Cd114 2.240 . S
O115 C120 1.279 . S
O116 Cd113 2.297 . S
O116 C118 1.247 . S
O117 Cd113 2.439 . S
O117 C118 1.208 . S
C118 O116 1.247 . S
C118 O117 1.208 . S
C119 O124 1.247 . S
C119 O125 1.208 . S
C120 O112 1.315 . S
C120 O115 1.279 . S
C121 O122 1.315 . S
C121 O123 1.279 . S
O122 Cd114 2.223 . S
O122 C121 1.315 . S
O123 Cd113 2.240 . S
O123 C121 1.279 . S
O124 Cd114 2.297 . S
O124 C119 1.247 . S
O125 Cd114 2.439 . S
O125 C119 1.208 . S
O126 Cd127 2.223 . S
O126 C134 1.315 . S
Cd127 O126 2.223 . S
Cd127 O130 2.297 . S
Cd127 O131 2.439 . S
Cd127 O137 2.240 . S
Cd128 O129 2.240 . S
Cd128 O136 2.223 . S
Cd128 O138 2.297 . S
Cd128 O139 2.439 . S
O129 Cd128 2.240 . S
O129 C134 1.279 . S
O130 Cd127 2.297 . S
O130 C132 1.247 1_554 S
O131 Cd127 2.439 . S
O131 C132 1.208 1_554 S
C132 O130 1.247 1_556 S
C132 O131 1.208 1_556 S
C133 O138 1.247 . S
C133 O139 1.208 . S
C134 O126 1.315 . S
C134 O129 1.279 . S
C135 O136 1.315 . S
C135 O137 1.279 . S
O136 Cd128 2.223 . S
O136 C135 1.315 . S
O137 Cd127 2.240 . S
O137 C135 1.279 . S
O138 Cd128 2.297 . S
O138 C133 1.247 . S
O139 Cd128 2.439 . S
O139 C133 1.208 . S
O140 Cd141 2.223 1_556 S
O140 C148 1.315 . S
Cd141 O140 2.223 1_554 S
Cd141 O144 2.297 . S
Cd141 O145 2.439 . S
Cd141 O151 2.240 . S
Cd142 O143 2.240 . S
Cd142 O150 2.223 . S
Cd142 O152 2.297 . S
Cd142 O153 2.439 1_556 S
O143 Cd142 2.240 . S
O143 C148 1.279 . S
O144 Cd141 2.297 . S
O144 C146 1.247 . S
O145 Cd141 2.439 . S
O145 C146 1.208 . S
C146 O144 1.247 . S
C146 O145 1.208 . S
C147 O152 1.246 . S
C147 O153 1.209 1_556 S
C148 O140 1.315 . S
C148 O143 1.279 . S
C149 O150 1.315 . S
C149 O151 1.279 1_556 S
O150 Cd142 2.223 . S
O150 C149 1.315 . S
O151 Cd141 2.240 . S
O151 C149 1.279 1_554 S
O152 Cd142 2.297 . S
O152 C147 1.246 . S
O153 Cd142 2.439 1_554 S
O153 C147 1.209 1_554 S
O154 Cd155 2.223 . S
O154 C162 1.315 . S
Cd155 O154 2.223 . S
Cd155 O158 2.297 . S
Cd155 O159 2.439 . S
Cd155 O165 2.240 . S
Cd156 O157 2.240 . S
Cd156 O164 2.223 . S
Cd156 O166 2.297 . S
Cd156 O167 2.439 . S
O157 Cd156 2.240 . S
O157 C162 1.279 . S
O158 Cd155 2.297 . S
O158 C160 1.247 . S
O159 Cd155 2.439 . S
O159 C160 1.208 . S
C160 O158 1.247 . S
C160 O159 1.208 . S
C161 O166 1.247 . S
C161 O167 1.208 . S
C162 O154 1.315 . S
C162 O157 1.279 . S
C163 O164 1.315 . S
C163 O165 1.279 . S
O164 Cd156 2.223 . S
O164 C163 1.315 . S
O165 Cd155 2.240 . S
O165 C163 1.279 . S
O166 Cd156 2.297 . S
O166 C161 1.247 . S
O167 Cd156 2.439 . S
O167 C161 1.208 . S
O168 Cd169 2.223 . S
O168 C176 1.315 . S
Cd169 O168 2.223 . S
Cd169 O172 2.297 . S
Cd169 O173 2.439 . S
Cd169 O179 2.240 . S
Cd170 O171 2.240 . S
Cd170 O178 2.223 . S
Cd170 O180 2.297 . S
Cd170 O181 2.439 . S
O171 Cd170 2.240 . S
O171 C176 1.279 . S
O172 Cd169 2.297 . S
O172 C174 1.247 . S
O173 Cd169 2.439 . S
O173 C174 1.208 . S
C174 O172 1.247 . S
C174 O173 1.208 . S
C175 O180 1.247 . S
C175 O181 1.208 . S
C176 O168 1.315 . S
C176 O171 1.279 . S
C177 O178 1.315 . S
C177 O179 1.279 . S
O178 Cd170 2.223 . S
O178 C177 1.315 . S
O179 Cd169 2.240 . S
O179 C177 1.279 . S
O180 Cd170 2.297 . S
O180 C175 1.247 . S
O181 Cd170 2.439 . S
O181 C175 1.208 . S
O182 Cd183 2.223 . S
O182 C190 1.315 . S
Cd183 O182 2.223 . S
Cd183 O186 2.297 . S
Cd183 O187 2.439 . S
Cd183 O193 2.240 . S
Cd184 O185 2.240 . S
Cd184 O192 2.223 . S
Cd184 O194 2.297 . S
Cd184 O195 2.439 . S
O185 Cd184 2.240 . S
O185 C190 1.279 . S
O186 Cd183 2.297 . S
O186 C188 1.247 . S
O187 Cd183 2.439 . S
O187 C188 1.208 . S
C188 O186 1.247 . S
C188 O187 1.208 . S
C189 O194 1.247 . S
C189 O195 1.208 . S
C190 O182 1.315 . S
C190 O185 1.279 . S
C191 O192 1.315 . S
C191 O193 1.279 . S
O192 Cd184 2.223 . S
O192 C191 1.315 . S
O193 Cd183 2.240 . S
O193 C191 1.279 . S
O194 Cd184 2.297 . S
O194 C189 1.247 . S
O195 Cd184 2.439 . S
O195 C189 1.208 . S
O196 Cd197 2.223 . S
O196 C204 1.315 . S
Cd197 O196 2.223 . S
Cd197 O200 2.297 . S
Cd197 O201 2.439 . S
Cd197 O207 2.240 . S
Cd198 O199 2.240 . S
Cd198 O206 2.223 . S
Cd198 O208 2.297 . S
Cd198 O209 2.439 . S
O199 Cd198 2.240 . S
O199 C204 1.279 . S
O200 Cd197 2.297 . S
O200 C202 1.247 . S
O201 Cd197 2.439 . S
O201 C202 1.208 . S
C202 O200 1.247 . S
C202 O201 1.208 . S
C203 O208 1.247 . S
C203 O209 1.208 . S
C204 O196 1.315 . S
C204 O199 1.279 . S
C205 O206 1.315 . S
C205 O207 1.279 . S
O206 Cd198 2.223 . S
O206 C205 1.315 . S
O207 Cd197 2.240 . S
O207 C205 1.279 . S
O208 Cd198 2.297 . S
O208 C203 1.247 . S
O209 Cd198 2.439 . S
O209 C203 1.208 . S
O210 Cd211 2.223 . S
O210 C218 1.315 . S
Cd211 O210 2.223 . S
Cd211 O214 2.297 . S
Cd211 O215 2.439 . S
Cd211 O221 2.240 . S
Cd212 O213 2.240 . S
Cd212 O220 2.223 . S
Cd212 O222 2.297 . S
Cd212 O223 2.439 . S
O213 Cd212 2.240 . S
O213 C218 1.279 . S
O214 Cd211 2.297 . S
O214 C216 1.247 . S
O215 Cd211 2.439 . S
O215 C216 1.208 . S
C216 O214 1.247 . S
C216 O215 1.208 . S
C217 O222 1.247 . S
C217 O223 1.208 . S
C218 O210 1.315 . S
C218 O213 1.279 . S
C219 O220 1.315 . S
C219 O221 1.279 . S
O220 Cd212 2.223 . S
O220 C219 1.315 . S
O221 Cd211 2.240 . S
O221 C219 1.279 . S
O222 Cd212 2.297 . S
O222 C217 1.247 . S
O223 Cd212 2.439 . S
O223 C217 1.208 . S
H224 C242 0.951 . S
H225 C244 0.951 . S
H226 C246 0.950 . S
H227 C247 0.950 . S
H228 C249 0.950 . S
H229 C252 0.950 . S
H230 C253 0.950 1_556 S
H231 C255 0.950 . S
H232 C256 0.950 . S
H233 C257 0.951 . S
H234 C259 0.951 . S
H235 C261 0.950 . S
H236 C262 0.950 . S
H237 C264 0.950 . S
H238 C267 0.950 . S
H239 C268 0.950 . S
H240 C270 0.950 . S
H241 C271 0.950 . S
C242 H224 0.951 . S
C242 C243 1.366 . S
C242 C244 1.388 . S
C243 C242 1.366 . S
C243 C247 1.385 . S
C244 H225 0.951 . S
C244 C242 1.388 . S
C244 C245 1.366 . S
C245 C244 1.366 . S
C245 C246 1.414 . S
C245 C248 1.499 . S
C246 H226 0.950 . S
C246 C245 1.414 . S
C246 C247 1.374 . S
C247 H227 0.950 . S
C247 C243 1.385 . S
C247 C246 1.374 . S
C248 C245 1.499 . S
C248 C249 1.373 . S
C248 C250 1.389 . S
C249 H228 0.950 . S
C249 C248 1.373 . S
C249 C265 1.377 . S
C250 C248 1.389 . S
C250 C251 1.524 . S
C250 C264 1.377 . S
C251 C250 1.524 . S
C251 C252 1.397 . S
C251 C256 1.363 . S
C252 H229 0.950 . S
C252 C251 1.397 . S
C252 C253 1.334 . S
C253 H230 0.950 1_554 S
C253 C252 1.334 . S
C253 C254 1.287 . S
C254 C253 1.287 . S
C254 C255 1.524 . S
C254 H273 0.913 1_554 S
C255 H231 0.950 . S
C255 C254 1.524 . S
C255 C256 1.415 . S
C256 H232 0.950 . S
C256 C251 1.363 . S
C256 C255 1.415 . S
C257 H233 0.951 . S
C257 C258 1.366 . S
C257 C259 1.388 . S
C258 C257 1.366 . S
C258 C262 1.385 . S
C259 H234 0.951 . S
C259 C257 1.388 . S
C259 C260 1.366 . S
C260 C259 1.366 . S
C260 C261 1.414 . S
C260 C263 1.499 . S
C261 H235 0.950 . S
C261 C260 1.414 . S
C261 C262 1.374 . S
C262 H236 0.950 . S
C262 C258 1.385 . S
C262 C261 1.374 . S
C263 C260 1.499 . S
C263 C264 1.373 . S
C263 C265 1.389 . S
C264 H237 0.950 . S
C264 C250 1.377 . S
C264 C263 1.373 . S
C265 C249 1.377 . S
C265 C263 1.389 . S
C265 C266 1.524 . S
C266 C265 1.524 . S
C266 C267 1.397 . S
C266 C271 1.363 . S
C267 H238 0.950 . S
C267 C266 1.397 . S
C267 C268 1.334 . S
C268 H239 0.950 . S
C268 C267 1.334 . S
C268 C269 1.287 . S
C269 C268 1.287 . S
C269 C270 1.524 . S
C269 H272 0.999 . S
C270 H240 0.950 . S
C270 C269 1.524 . S
C270 C271 1.415 . S
C271 H241 0.950 . S
C271 C266 1.363 . S
C271 C270 1.415 . S
H272 C269 0.999 . S
H273 C254 0.913 1_556 S
H274 C292 0.951 . S
H275 C294 0.951 . S
H276 C296 0.950 . S
H277 C297 0.950 . S
H278 C299 0.950 . S
H279 C302 0.950 . S
H280 C303 0.950 . S
H281 C305 0.950 . S
H282 C306 0.950 . S
H283 C307 0.951 . S
H284 C309 0.951 . S
H285 C311 0.950 . S
H286 C312 0.950 . S
H287 C314 0.950 . S
H288 C317 0.950 . S
H289 C318 0.950 . S
H290 C320 0.950 . S
H291 C321 0.950 . S
C292 H274 0.951 . S
C292 C293 1.366 . S
C292 C294 1.388 . S
C293 C292 1.366 . S
C293 C297 1.385 . S
C294 H275 0.951 . S
C294 C292 1.388 . S
C294 C295 1.366 . S
C295 C294 1.366 . S
C295 C296 1.414 . S
C295 C298 1.499 . S
C296 H276 0.950 . S
C296 C295 1.414 . S
C296 C297 1.374 . S
C297 H277 0.950 . S
C297 C293 1.385 . S
C297 C296 1.374 . S
C298 C295 1.499 . S
C298 C299 1.373 . S
C298 C300 1.389 . S
C299 H278 0.950 . S
C299 C298 1.373 . S
C299 C315 1.377 . S
C300 C298 1.389 . S
C300 C301 1.524 . S
C300 C314 1.377 . S
C301 C300 1.524 . S
C301 C302 1.397 . S
C301 C306 1.363 . S
C302 H279 0.950 . S
C302 C301 1.397 . S
C302 C303 1.334 . S
C303 H280 0.950 . S
C303 C302 1.334 . S
C303 C304 1.287 . S
C304 C303 1.287 . S
C304 C305 1.524 . S
C304 H323 0.913 . S
C305 H281 0.950 . S
C305 C304 1.524 . S
C305 C306 1.415 . S
C306 H282 0.950 . S
C306 C301 1.363 . S
C306 C305 1.415 . S
C307 H283 0.951 . S
C307 C308 1.366 . S
C307 C309 1.388 . S
C308 C307 1.366 . S
C308 C312 1.385 . S
C309 H284 0.951 . S
C309 C307 1.388 . S
C309 C310 1.366 . S
C310 C309 1.366 . S
C310 C311 1.414 . S
C310 C313 1.499 . S
C311 H285 0.950 . S
C311 C310 1.414 . S
C311 C312 1.374 . S
C312 H286 0.950 . S
C312 C308 1.385 . S
C312 C311 1.374 . S
C313 C310 1.499 . S
C313 C314 1.373 . S
C313 C315 1.389 . S
C314 H287 0.950 . S
C314 C300 1.377 . S
C314 C313 1.373 . S
C315 C299 1.377 . S
C315 C313 1.389 . S
C315 C316 1.524 . S
C316 C315 1.524 . S
C316 C317 1.397 . S
C316 C321 1.363 . S
C317 H288 0.950 . S
C317 C316 1.397 . S
C317 C318 1.334 . S
C318 H289 0.950 . S
C318 C317 1.334 . S
C318 C319 1.287 . S
C319 C318 1.287 . S
C319 C320 1.524 . S
C319 H322 0.999 . S
C320 H290 0.950 . S
C320 C319 1.524 . S
C320 C321 1.415 . S
C321 H291 0.950 . S
C321 C316 1.363 . S
C321 C320 1.415 . S
H322 C319 0.999 . S
H323 C304 0.913 . S
H324 C342 0.951 . S
H325 C344 0.951 . S
H326 C346 0.950 . S
H327 C347 0.950 . S
H328 C349 0.950 . S
H329 C352 0.950 . S
H330 C353 0.950 . S
H331 C355 0.950 . S
H332 C356 0.950 . S
H333 C357 0.951 . S
H334 C359 0.951 . S
H335 C361 0.950 . S
H336 C362 0.950 . S
H337 C364 0.950 . S
H338 C367 0.950 . S
H339 C368 0.950 . S
H340 C370 0.950 . S
H341 C371 0.950 . S
C342 H324 0.951 . S
C342 C343 1.366 . S
C342 C344 1.388 . S
C343 C342 1.366 . S
C343 C347 1.385 . S
C344 H325 0.951 . S
C344 C342 1.388 . S
C344 C345 1.366 . S
C345 C344 1.366 . S
C345 C346 1.414 . S
C345 C348 1.499 . S
C346 H326 0.950 . S
C346 C345 1.414 . S
C346 C347 1.374 . S
C347 H327 0.950 . S
C347 C343 1.385 . S
C347 C346 1.374 . S
C348 C345 1.499 . S
C348 C349 1.373 . S
C348 C350 1.389 . S
C349 H328 0.950 . S
C349 C348 1.373 . S
C349 C365 1.377 . S
C350 C348 1.389 . S
C350 C351 1.524 . S
C350 C364 1.377 . S
C351 C350 1.524 . S
C351 C352 1.397 . S
C351 C356 1.363 . S
C352 H329 0.950 . S
C352 C351 1.397 . S
C352 C353 1.334 . S
C353 H330 0.950 . S
C353 C352 1.334 . S
C353 C354 1.287 . S
C354 C353 1.287 . S
C354 C355 1.524 . S
C354 H373 0.913 . S
C355 H331 0.950 . S
C355 C354 1.524 . S
C355 C356 1.415 . S
C356 H332 0.950 . S
C356 C351 1.363 . S
C356 C355 1.415 . S
C357 H333 0.951 . S
C357 C358 1.366 . S
C357 C359 1.388 . S
C358 C357 1.366 . S
C358 C362 1.385 . S
C359 H334 0.951 . S
C359 C357 1.388 . S
C359 C360 1.366 . S
C360 C359 1.366 . S
C360 C361 1.414 . S
C360 C363 1.499 . S
C361 H335 0.950 . S
C361 C360 1.414 . S
C361 C362 1.374 . S
C362 H336 0.950 . S
C362 C358 1.385 . S
C362 C361 1.374 . S
C363 C360 1.499 . S
C363 C364 1.373 . S
C363 C365 1.389 . S
C364 H337 0.950 . S
C364 C350 1.377 . S
C364 C363 1.373 . S
C365 C349 1.377 . S
C365 C363 1.389 . S
C365 C366 1.524 . S
C366 C365 1.524 . S
C366 C367 1.397 . S
C366 C371 1.363 . S
C367 H338 0.950 . S
C367 C366 1.397 . S
C367 C368 1.334 . S
C368 H339 0.950 . S
C368 C367 1.334 . S
C368 C369 1.287 . S
C369 C368 1.287 . S
C369 C370 1.524 . S
C369 H372 0.999 . S
C370 H340 0.950 . S
C370 C369 1.524 . S
C370 C371 1.415 . S
C371 H341 0.950 . S
C371 C366 1.363 . S
C371 C370 1.415 . S
H372 C369 0.999 . S
H373 C354 0.913 . S
H374 C392 0.951 1_554 S
H375 C394 0.951 1_554 S
H376 C396 0.950 . S
H377 C397 0.950 . S
H378 C399 0.950 . S
H379 C402 0.950 1_556 S
H380 C403 0.952 . S
H381 C405 0.955 . S
H382 C406 0.950 . S
H383 C407 0.951 . S
H384 C409 0.951 . S
H385 C411 0.950 . S
H386 C412 0.950 . S
H387 C414 0.950 . S
H388 C417 0.950 . S
H389 C418 0.950 . S
H390 C420 0.950 . S
H391 C421 0.950 . S
C392 H374 0.951 1_556 S
C392 C393 1.366 . S
C392 C394 1.388 . S
C393 C392 1.366 . S
C393 C397 1.385 . S
C394 H375 0.951 1_556 S
C394 C392 1.388 . S
C394 C395 1.366 . S
C395 C394 1.366 . S
C395 C396 1.414 . S
C395 C398 1.499 . S
C396 H376 0.950 . S
C396 C395 1.414 . S
C396 C397 1.374 . S
C397 H377 0.950 . S
C397 C393 1.385 . S
C397 C396 1.374 . S
C398 C395 1.499 . S
C398 C399 1.373 . S
C398 C400 1.389 . S
C399 H378 0.950 . S
C399 C398 1.373 . S
C399 C415 1.377 . S
C400 C398 1.389 . S
C400 C401 1.524 1_556 S
C400 C414 1.377 1_655 S
C401 C400 1.524 1_554 S
C401 C402 1.397 . S
C401 C406 1.363 . S
C402 H379 0.950 1_554 S
C402 C401 1.397 . S
C402 C403 1.329 1_655 S
C403 H380 0.952 . S
C403 C402 1.329 1_455 S
C403 C404 1.291 . S
C404 C403 1.291 . S
C404 C405 1.529 . S
C404 H423 0.913 . S
C405 H381 0.955 . S
C405 C404 1.529 . S
C405 C406 1.406 1_455 S
C406 H382 0.950 . S
C406 C401 1.363 . S
C406 C405 1.406 1_655 S
C407 H383 0.951 . S
C407 C408 1.366 . S
C407 C409 1.388 . S
C408 C407 1.366 . S
C408 C412 1.385 . S
C409 H384 0.951 . S
C409 C407 1.388 . S
C409 C410 1.366 . S
C410 C409 1.366 . S
C410 C411 1.414 . S
C410 C413 1.499 . S
C411 H385 0.950 . S
C411 C410 1.414 . S
C411 C412 1.374 . S
C412 H386 0.950 . S
C412 C408 1.385 . S
C412 C411 1.374 . S
C413 C410 1.499 . S
C413 C414 1.373 . S
C413 C415 1.389 1_455 S
C414 H387 0.950 . S
C414 C400 1.377 1_455 S
C414 C413 1.373 . S
C415 C399 1.377 . S
C415 C413 1.389 1_655 S
C415 C416 1.524 . S
C416 C415 1.524 . S
C416 C417 1.397 . S
C416 C421 1.363 . S
C417 H388 0.950 . S
C417 C416 1.397 . S
C417 C418 1.334 . S
C418 H389 0.950 . S
C418 C417 1.334 . S
C418 C419 1.287 . S
C419 C418 1.287 . S
C419 C420 1.524 . S
C419 H422 0.999 . S
C420 H390 0.950 . S
C420 C419 1.524 . S
C420 C421 1.415 . S
C421 H391 0.950 . S
C421 C416 1.363 . S
C421 C420 1.415 . S
H422 C419 0.999 . S
H423 C404 0.913 . S
H424 C442 0.951 . S
H425 C444 0.951 . S
H426 C446 0.950 . S
H427 C447 0.950 . S
H428 C449 0.950 . S
H429 C452 0.950 . S
H430 C453 0.950 . S
H431 C455 0.950 . S
H432 C456 0.950 . S
H433 C457 0.951 . S
H434 C459 0.951 . S
H435 C461 0.950 . S
H436 C462 0.950 . S
H437 C464 0.950 . S
H438 C467 0.950 . S
H439 C468 0.950 . S
H440 C470 0.950 . S
H441 C471 0.950 . S
C442 H424 0.951 . S
C442 C443 1.366 . S
C442 C444 1.388 . S
C443 C442 1.366 . S
C443 C447 1.385 . S
C444 H425 0.951 . S
C444 C442 1.388 . S
C444 C445 1.366 . S
C445 C444 1.366 . S
C445 C446 1.414 . S
C445 C448 1.499 . S
C446 H426 0.950 . S
C446 C445 1.414 . S
C446 C447 1.374 . S
C447 H427 0.950 . S
C447 C443 1.385 . S
C447 C446 1.374 . S
C448 C445 1.499 . S
C448 C449 1.373 . S
C448 C450 1.389 . S
C449 H428 0.950 . S
C449 C448 1.373 . S
C449 C465 1.377 . S
C450 C448 1.389 . S
C450 C451 1.524 . S
C450 C464 1.377 . S
C451 C450 1.524 . S
C451 C452 1.397 . S
C451 C456 1.363 . S
C452 H429 0.950 . S
C452 C451 1.397 . S
C452 C453 1.334 . S
C453 H430 0.950 . S
C453 C452 1.334 . S
C453 C454 1.287 . S
C454 C453 1.287 . S
C454 C455 1.524 . S
C454 H473 0.913 . S
C455 H431 0.950 . S
C455 C454 1.524 . S
C455 C456 1.415 . S
C456 H432 0.950 . S
C456 C451 1.363 . S
C456 C455 1.415 . S
C457 H433 0.951 . S
C457 C458 1.366 . S
C457 C459 1.388 . S
C458 C457 1.366 . S
C458 C462 1.385 . S
C459 H434 0.951 . S
C459 C457 1.388 . S
C459 C460 1.366 . S
C460 C459 1.366 . S
C460 C461 1.414 . S
C460 C463 1.499 . S
C461 H435 0.950 . S
C461 C460 1.414 . S
C461 C462 1.374 . S
C462 H436 0.950 . S
C462 C458 1.385 . S
C462 C461 1.374 . S
C463 C460 1.499 . S
C463 C464 1.373 . S
C463 C465 1.389 . S
C464 H437 0.950 . S
C464 C450 1.377 . S
C464 C463 1.373 . S
C465 C449 1.377 . S
C465 C463 1.389 . S
C465 C466 1.524 1_556 S
C466 C465 1.524 1_554 S
C466 C467 1.397 . S
C466 C471 1.363 . S
C467 H438 0.950 . S
C467 C466 1.397 . S
C467 C468 1.334 . S
C468 H439 0.950 . S
C468 C467 1.334 . S
C468 C469 1.287 . S
C469 C468 1.287 . S
C469 C470 1.524 . S
C469 H472 0.999 . S
C470 H440 0.950 . S
C470 C469 1.524 . S
C470 C471 1.415 . S
C471 H441 0.950 . S
C471 C466 1.363 . S
C471 C470 1.415 . S
H472 C469 0.999 . S
H473 C454 0.913 . S
H474 C492 0.951 . S
H475 C494 0.951 . S
H476 C496 0.950 . S
H477 C497 0.950 . S
H478 C499 0.950 . S
H479 C502 0.950 . S
H480 C503 0.950 . S
H481 C505 0.950 . S
H482 C506 0.950 . S
H483 C507 0.951 . S
H484 C509 0.951 . S
H485 C511 0.950 . S
H486 C512 0.950 . S
H487 C514 0.950 . S
H488 C517 0.950 . S
H489 C518 0.950 . S
H490 C520 0.950 . S
H491 C521 0.950 . S
C492 H474 0.951 . S
C492 C493 1.366 . S
C492 C494 1.388 . S
C493 C492 1.366 . S
C493 C497 1.385 . S
C494 H475 0.951 . S
C494 C492 1.388 . S
C494 C495 1.366 . S
C495 C494 1.366 . S
C495 C496 1.414 . S
C495 C498 1.499 . S
C496 H476 0.950 . S
C496 C495 1.414 . S
C496 C497 1.374 . S
C497 H477 0.950 . S
C497 C493 1.385 . S
C497 C496 1.374 . S
C498 C495 1.499 . S
C498 C499 1.373 1_455 S
C498 C500 1.389 . S
C499 H478 0.950 . S
C499 C498 1.373 1_655 S
C499 C515 1.377 . S
C500 C498 1.389 . S
C500 C501 1.524 . S
C500 C514 1.377 1_455 S
C501 C500 1.524 . S
C501 C502 1.397 . S
C501 C506 1.363 . S
C502 H479 0.950 . S
C502 C501 1.397 . S
C502 C503 1.334 . S
C503 H480 0.950 . S
C503 C502 1.334 . S
C503 C504 1.287 . S
C504 C503 1.287 . S
C504 C505 1.524 . S
C504 H523 0.913 . S
C505 H481 0.950 . S
C505 C504 1.524 . S
C505 C506 1.415 . S
C506 H482 0.950 . S
C506 C501 1.363 . S
C506 C505 1.415 . S
C507 H483 0.951 . S
C507 C508 1.366 . S
C507 C509 1.388 . S
C508 C507 1.366 . S
C508 C512 1.385 . S
C509 H484 0.951 . S
C509 C507 1.388 . S
C509 C510 1.366 . S
C510 C509 1.366 . S
C510 C511 1.414 . S
C510 C513 1.499 . S
C511 H485 0.950 . S
C511 C510 1.414 . S
C511 C512 1.374 . S
C512 H486 0.950 . S
C512 C508 1.385 . S
C512 C511 1.374 . S
C513 C510 1.499 . S
C513 C514 1.373 . S
C513 C515 1.389 . S
C514 H487 0.950 . S
C514 C500 1.377 1_655 S
C514 C513 1.373 . S
C515 C499 1.377 . S
C515 C513 1.389 . S
C515 C516 1.524 . S
C516 C515 1.524 . S
C516 C517 1.397 . S
C516 C521 1.363 . S
C517 H488 0.950 . S
C517 C516 1.397 . S
C517 C518 1.334 . S
C518 H489 0.950 . S
C518 C517 1.334 . S
C518 C519 1.287 . S
C519 C518 1.287 . S
C519 C520 1.524 . S
C519 H522 0.999 . S
C520 H490 0.950 . S
C520 C519 1.524 . S
C520 C521 1.415 . S
C521 H491 0.950 . S
C521 C516 1.363 . S
C521 C520 1.415 . S
H522 C519 0.999 . S
H523 C504 0.913 . S
H524 C542 0.951 . S
H525 C544 0.951 . S
H526 C546 0.950 . S
H527 C547 0.950 . S
H528 C549 0.950 . S
H529 C552 0.950 . S
H530 C553 0.950 . S
H531 C555 0.950 . S
H532 C556 0.950 . S
H533 C557 0.951 . S
H534 C559 0.951 . S
H535 C561 0.950 . S
H536 C562 0.950 . S
H537 C564 0.950 . S
H538 C567 0.950 . S
H539 C568 0.950 . S
H540 C570 0.950 . S
H541 C571 0.950 . S
C542 H524 0.951 . S
C542 C543 1.366 . S
C542 C544 1.388 . S
C543 C542 1.366 . S
C543 C547 1.385 . S
C544 H525 0.951 . S
C544 C542 1.388 . S
C544 C545 1.366 . S
C545 C544 1.366 . S
C545 C546 1.414 . S
C545 C548 1.499 . S
C546 H526 0.950 . S
C546 C545 1.414 . S
C546 C547 1.374 . S
C547 H527 0.950 . S
C547 C543 1.385 . S
C547 C546 1.374 . S
C548 C545 1.499 . S
C548 C549 1.373 . S
C548 C550 1.389 . S
C549 H528 0.950 . S
C549 C548 1.373 . S
C549 C565 1.377 . S
C550 C548 1.389 . S
C550 C551 1.524 . S
C550 C564 1.377 . S
C551 C550 1.524 . S
C551 C552 1.397 . S
C551 C556 1.363 . S
C552 H529 0.950 . S
C552 C551 1.397 . S
C552 C553 1.334 . S
C553 H530 0.950 . S
C553 C552 1.334 . S
C553 C554 1.287 . S
C554 C553 1.287 . S
C554 C555 1.524 . S
C554 H573 0.913 . S
C555 H531 0.950 . S
C555 C554 1.524 . S
C555 C556 1.415 . S
C556 H532 0.950 . S
C556 C551 1.363 . S
C556 C555 1.415 . S
C557 H533 0.951 . S
C557 C558 1.366 . S
C557 C559 1.388 . S
C558 C557 1.366 . S
C558 C562 1.385 . S
C559 H534 0.951 . S
C559 C557 1.388 . S
C559 C560 1.366 . S
C560 C559 1.366 . S
C560 C561 1.414 . S
C560 C563 1.499 . S
C561 H535 0.950 . S
C561 C560 1.414 . S
C561 C562 1.374 . S
C562 H536 0.950 . S
C562 C558 1.385 . S
C562 C561 1.374 . S
C563 C560 1.499 . S
C563 C564 1.373 . S
C563 C565 1.389 . S
C564 H537 0.950 . S
C564 C550 1.377 . S
C564 C563 1.373 . S
C565 C549 1.377 . S
C565 C563 1.389 . S
C565 C566 1.524 . S
C566 C565 1.524 . S
C566 C567 1.397 . S
C566 C571 1.363 . S
C567 H538 0.950 . S
C567 C566 1.397 . S
C567 C568 1.334 . S
C568 H539 0.950 . S
C568 C567 1.334 . S
C568 C569 1.287 . S
C569 C568 1.287 . S
C569 C570 1.524 . S
C569 H572 0.999 . S
C570 H540 0.950 . S
C570 C569 1.524 . S
C570 C571 1.415 . S
C571 H541 0.950 . S
C571 C566 1.363 . S
C571 C570 1.415 . S
H572 C569 0.999 . S
H573 C554 0.913 . S
H574 C592 0.951 . S
H575 C594 0.951 . S
H576 C596 0.950 . S
H577 C597 0.950 . S
H578 C599 0.950 . S
H579 C602 0.950 . S
H580 C603 0.950 . S
H581 C605 0.950 . S
H582 C606 0.950 . S
H583 C607 0.951 . S
H584 C609 0.951 . S
H585 C611 0.950 . S
H586 C612 0.950 . S
H587 C614 0.950 . S
H588 C617 0.950 . S
H589 C618 0.950 . S
H590 C620 0.950 . S
H591 C621 0.950 . S
C592 H574 0.951 . S
C592 C593 1.366 . S
C592 C594 1.388 . S
C593 C592 1.366 . S
C593 C597 1.385 . S
C594 H575 0.951 . S
C594 C592 1.388 . S
C594 C595 1.366 . S
C595 C594 1.366 . S
C595 C596 1.414 . S
C595 C598 1.499 . S
C596 H576 0.950 . S
C596 C595 1.414 . S
C596 C597 1.374 . S
C597 H577 0.950 . S
C597 C593 1.385 . S
C597 C596 1.374 . S
C598 C595 1.499 . S
C598 C599 1.373 . S
C598 C600 1.389 . S
C599 H578 0.950 . S
C599 C598 1.373 . S
C599 C615 1.377 . S
C600 C598 1.389 . S
C600 C601 1.524 . S
C600 C614 1.377 . S
C601 C600 1.524 . S
C601 C602 1.397 . S
C601 C606 1.363 . S
C602 H579 0.950 . S
C602 C601 1.397 . S
C602 C603 1.334 . S
C603 H580 0.950 . S
C603 C602 1.334 . S
C603 C604 1.287 . S
C604 C603 1.287 . S
C604 C605 1.524 . S
C604 H623 0.913 . S
C605 H581 0.950 . S
C605 C604 1.524 . S
C605 C606 1.415 . S
C606 H582 0.950 . S
C606 C601 1.363 . S
C606 C605 1.415 . S
C607 H583 0.951 . S
C607 C608 1.366 . S
C607 C609 1.388 . S
C608 C607 1.366 . S
C608 C612 1.385 . S
C609 H584 0.951 . S
C609 C607 1.388 . S
C609 C610 1.366 . S
C610 C609 1.366 . S
C610 C611 1.414 . S
C610 C613 1.499 . S
C611 H585 0.950 . S
C611 C610 1.414 . S
C611 C612 1.374 . S
C612 H586 0.950 . S
C612 C608 1.385 . S
C612 C611 1.374 . S
C613 C610 1.499 . S
C613 C614 1.373 . S
C613 C615 1.389 . S
C614 H587 0.950 . S
C614 C600 1.377 . S
C614 C613 1.373 . S
C615 C599 1.377 . S
C615 C613 1.389 . S
C615 C616 1.524 . S
C616 C615 1.524 . S
C616 C617 1.397 . S
C616 C621 1.363 . S
C617 H588 0.950 . S
C617 C616 1.397 . S
C617 C618 1.334 . S
C618 H589 0.950 . S
C618 C617 1.334 . S
C618 C619 1.287 . S
C619 C618 1.287 . S
C619 C620 1.524 . S
C619 H622 0.999 . S
C620 H590 0.950 . S
C620 C619 1.524 . S
C620 C621 1.415 . S
C621 H591 0.950 . S
C621 C616 1.363 . S
C621 C620 1.415 . S
H622 C619 0.999 . S
H623 C604 0.913 . S
H624 C642 0.951 . S
H625 C644 0.951 . S
H626 C646 0.950 . S
H627 C647 0.950 . S
H628 C649 0.950 . S
H629 C652 0.950 1_455 S
H630 C653 0.950 . S
H631 C655 0.950 . S
H632 C656 0.950 . S
H633 C657 0.951 . S
H634 C659 0.951 . S
H635 C661 0.950 . S
H636 C662 0.950 . S
H637 C664 0.950 . S
H638 C667 0.950 . S
H639 C668 0.950 . S
H640 C670 0.950 . S
H641 C671 0.950 . S
C642 H624 0.951 . S
C642 C643 1.366 . S
C642 C644 1.388 . S
C643 C642 1.366 . S
C643 C647 1.385 . S
C644 H625 0.951 . S
C644 C642 1.388 . S
C644 C645 1.366 . S
C645 C644 1.366 . S
C645 C646 1.414 . S
C645 C648 1.499 . S
C646 H626 0.950 . S
C646 C645 1.414 . S
C646 C647 1.374 . S
C647 H627 0.950 . S
C647 C643 1.385 . S
C647 C646 1.374 . S
C648 C645 1.499 . S
C648 C649 1.373 . S
C648 C650 1.389 . S
C649 H628 0.950 . S
C649 C648 1.373 . S
C649 C665 1.377 . S
C650 C648 1.389 . S
C650 C651 1.524 1_455 S
C650 C664 1.377 1_455 S
C651 C650 1.524 1_655 S
C651 C652 1.397 . S
C651 C656 1.363 . S
C652 H629 0.950 1_655 S
C652 C651 1.397 . S
C652 C653 1.334 . S
C653 H630 0.950 . S
C653 C652 1.334 . S
C653 C654 1.287 . S
C654 C653 1.287 . S
C654 C655 1.524 . S
C654 H673 0.913 . S
C655 H631 0.950 . S
C655 C654 1.524 . S
C655 C656 1.415 . S
C656 H632 0.950 . S
C656 C651 1.363 . S
C656 C655 1.415 . S
C657 H633 0.951 . S
C657 C658 1.366 1_554 S
C657 C659 1.388 . S
C658 C657 1.366 1_556 S
C658 C662 1.385 . S
C659 H634 0.951 . S
C659 C657 1.388 . S
C659 C660 1.366 1_554 S
C660 C659 1.366 1_556 S
C660 C661 1.414 . S
C660 C663 1.499 . S
C661 H635 0.950 . S
C661 C660 1.414 . S
C661 C662 1.374 . S
C662 H636 0.950 . S
C662 C658 1.385 . S
C662 C661 1.374 . S
C663 C660 1.499 . S
C663 C664 1.373 . S
C663 C665 1.389 1_655 S
C664 H637 0.950 . S
C664 C650 1.377 1_655 S
C664 C663 1.373 . S
C665 C649 1.377 . S
C665 C663 1.389 1_455 S
C665 C666 1.524 . S
C666 C665 1.524 . S
C666 C667 1.397 . S
C666 C671 1.363 1_556 S
C667 H638 0.950 . S
C667 C666 1.397 . S
C667 C668 1.334 . S
C668 H639 0.950 . S
C668 C667 1.334 . S
C668 C669 1.287 1_556 S
C669 C668 1.287 1_554 S
C669 C670 1.524 . S
C669 H672 0.999 . S
C670 H640 0.950 . S
C670 C669 1.524 . S
C670 C671 1.415 . S
C671 H641 0.950 . S
C671 C666 1.363 1_554 S
C671 C670 1.415 . S
H672 C669 0.999 . S
H673 C654 0.913 . S
H674 C692 0.951 . S
H675 C694 0.951 . S
H676 C696 0.950 . S
H677 C697 0.950 . S
H678 C699 0.950 . S
H679 C702 0.950 . S
H680 C703 0.950 . S
H681 C705 0.950 . S
H682 C706 0.950 . S
H683 C707 0.951 . S
H684 C709 0.951 . S
H685 C711 0.950 . S
H686 C712 0.950 . S
H687 C714 0.950 . S
H688 C717 0.950 . S
H689 C718 0.950 . S
H690 C720 0.950 . S
H691 C721 0.950 . S
C692 H674 0.951 . S
C692 C693 1.366 . S
C692 C694 1.388 . S
C693 C692 1.366 . S
C693 C697 1.385 . S
C694 H675 0.951 . S
C694 C692 1.388 . S
C694 C695 1.366 . S
C695 C694 1.366 . S
C695 C696 1.414 . S
C695 C698 1.499 . S
C696 H676 0.950 . S
C696 C695 1.414 . S
C696 C697 1.374 . S
C697 H677 0.950 . S
C697 C693 1.385 . S
C697 C696 1.374 . S
C698 C695 1.499 . S
C698 C699 1.373 . S
C698 C700 1.389 . S
C699 H678 0.950 . S
C699 C698 1.373 . S
C699 C715 1.377 . S
C700 C698 1.389 . S
C700 C701 1.524 . S
C700 C714 1.377 . S
C701 C700 1.524 . S
C701 C702 1.397 . S
C701 C706 1.363 . S
C702 H679 0.950 . S
C702 C701 1.397 . S
C702 C703 1.334 . S
C703 H680 0.950 . S
C703 C702 1.334 . S
C703 C704 1.287 . S
C704 C703 1.287 . S
C704 C705 1.524 . S
C704 H723 0.913 . S
C705 H681 0.950 . S
C705 C704 1.524 . S
C705 C706 1.415 . S
C706 H682 0.950 . S
C706 C701 1.363 . S
C706 C705 1.415 . S
C707 H683 0.951 . S
C707 C708 1.366 . S
C707 C709 1.388 . S
C708 C707 1.366 . S
C708 C712 1.385 . S
C709 H684 0.951 . S
C709 C707 1.388 . S
C709 C710 1.366 . S
C710 C709 1.366 . S
C710 C711 1.414 . S
C710 C713 1.499 . S
C711 H685 0.950 . S
C711 C710 1.414 . S
C711 C712 1.374 . S
C712 H686 0.950 . S
C712 C708 1.385 . S
C712 C711 1.374 . S
C713 C710 1.499 . S
C713 C714 1.373 . S
C713 C715 1.389 . S
C714 H687 0.950 . S
C714 C700 1.377 . S
C714 C713 1.373 . S
C715 C699 1.377 . S
C715 C713 1.389 . S
C715 C716 1.524 . S
C716 C715 1.524 . S
C716 C717 1.397 . S
C716 C721 1.363 . S
C717 H688 0.950 . S
C717 C716 1.397 . S
C717 C718 1.334 . S
C718 H689 0.950 . S
C718 C717 1.334 . S
C718 C719 1.287 . S
C719 C718 1.287 . S
C719 C720 1.524 . S
C719 H722 0.999 . S
C720 H690 0.950 . S
C720 C719 1.524 . S
C720 C721 1.415 . S
C721 H691 0.950 . S
C721 C716 1.363 . S
C721 C720 1.415 . S
H722 C719 0.999 . S
H723 C704 0.913 . S
H724 C742 0.951 . S
H725 C744 0.951 . S
H726 C746 0.950 . S
H727 C747 0.950 . S
H728 C749 0.950 . S
H729 C752 0.950 . S
H730 C753 0.950 . S
H731 C755 0.950 . S
H732 C756 0.950 . S
H733 C757 0.951 . S
H734 C759 0.951 . S
H735 C761 0.950 . S
H736 C762 0.950 . S
H737 C764 0.950 . S
H738 C767 0.950 . S
H739 C768 0.950 . S
H740 C770 0.950 . S
H741 C771 0.950 . S
C742 H724 0.951 . S
C742 C743 1.366 . S
C742 C744 1.388 . S
C743 C742 1.366 . S
C743 C747 1.385 . S
C744 H725 0.951 . S
C744 C742 1.388 . S
C744 C745 1.366 . S
C745 C744 1.366 . S
C745 C746 1.414 . S
C745 C748 1.499 . S
C746 H726 0.950 . S
C746 C745 1.414 . S
C746 C747 1.374 . S
C747 H727 0.950 . S
C747 C743 1.385 . S
C747 C746 1.374 . S
C748 C745 1.499 . S
C748 C749 1.373 . S
C748 C750 1.389 . S
C749 H728 0.950 . S
C749 C748 1.373 . S
C749 C765 1.377 . S
C750 C748 1.389 . S
C750 C751 1.524 . S
C750 C764 1.377 . S
C751 C750 1.524 . S
C751 C752 1.397 . S
C751 C756 1.363 . S
C752 H729 0.950 . S
C752 C751 1.397 . S
C752 C753 1.334 . S
C753 H730 0.950 . S
C753 C752 1.334 . S
C753 C754 1.287 . S
C754 C753 1.287 . S
C754 C755 1.524 . S
C754 H773 0.913 . S
C755 H731 0.950 . S
C755 C754 1.524 . S
C755 C756 1.415 . S
C756 H732 0.950 . S
C756 C751 1.363 . S
C756 C755 1.415 . S
C757 H733 0.951 . S
C757 C758 1.366 . S
C757 C759 1.388 . S
C758 C757 1.366 . S
C758 C762 1.385 . S
C759 H734 0.951 . S
C759 C757 1.388 . S
C759 C760 1.366 . S
C760 C759 1.366 . S
C760 C761 1.414 . S
C760 C763 1.499 . S
C761 H735 0.950 . S
C761 C760 1.414 . S
C761 C762 1.374 . S
C762 H736 0.950 . S
C762 C758 1.385 . S
C762 C761 1.374 . S
C763 C760 1.499 . S
C763 C764 1.373 . S
C763 C765 1.389 . S
C764 H737 0.950 . S
C764 C750 1.377 . S
C764 C763 1.373 . S
C765 C749 1.377 . S
C765 C763 1.389 . S
C765 C766 1.524 . S
C766 C765 1.524 . S
C766 C767 1.397 . S
C766 C771 1.363 . S
C767 H738 0.950 . S
C767 C766 1.397 . S
C767 C768 1.334 . S
C768 H739 0.950 . S
C768 C767 1.334 . S
C768 C769 1.287 . S
C769 C768 1.287 . S
C769 C770 1.524 . S
C769 H772 0.999 . S
C770 H740 0.950 . S
C770 C769 1.524 . S
C770 C771 1.415 . S
C771 H741 0.950 . S
C771 C766 1.363 . S
C771 C770 1.415 . S
H772 C769 0.999 . S
H773 C754 0.913 . S
H774 C792 0.951 . S
H775 C794 0.951 . S
H776 C796 0.950 . S
H777 C797 0.950 . S
H778 C799 0.950 . S
H779 C802 0.950 . S
H780 C803 0.950 . S
H781 C805 0.950 . S
H782 C806 0.950 . S
H783 C807 0.951 . S
H784 C809 0.951 . S
H785 C811 0.950 . S
H786 C812 0.950 . S
H787 C814 0.950 . S
H788 C817 0.950 . S
H789 C818 0.950 . S
H790 C820 0.950 . S
H791 C821 0.950 . S
C792 H774 0.951 . S
C792 C793 1.366 . S
C792 C794 1.388 . S
C793 C792 1.366 . S
C793 C797 1.385 . S
C794 H775 0.951 . S
C794 C792 1.388 . S
C794 C795 1.366 . S
C795 C794 1.366 . S
C795 C796 1.414 . S
C795 C798 1.499 . S
C796 H776 0.950 . S
C796 C795 1.414 . S
C796 C797 1.374 . S
C797 H777 0.950 . S
C797 C793 1.385 . S
C797 C796 1.374 . S
C798 C795 1.499 . S
C798 C799 1.373 . S
C798 C800 1.389 . S
C799 H778 0.950 . S
C799 C798 1.373 . S
C799 C815 1.377 . S
C800 C798 1.389 . S
C800 C801 1.524 . S
C800 C814 1.377 . S
C801 C800 1.524 . S
C801 C802 1.397 . S
C801 C806 1.363 . S
C802 H779 0.950 . S
C802 C801 1.397 . S
C802 C803 1.334 . S
C803 H780 0.950 . S
C803 C802 1.334 . S
C803 C804 1.287 . S
C804 C803 1.287 . S
C804 C805 1.524 . S
C804 H823 0.913 . S
C805 H781 0.950 . S
C805 C804 1.524 . S
C805 C806 1.415 . S
C806 H782 0.950 . S
C806 C801 1.363 . S
C806 C805 1.415 . S
C807 H783 0.951 . S
C807 C808 1.366 . S
C807 C809 1.388 . S
C808 C807 1.366 . S
C808 C812 1.385 . S
C809 H784 0.951 . S
C809 C807 1.388 . S
C809 C810 1.366 . S
C810 C809 1.366 . S
C810 C811 1.414 . S
C810 C813 1.499 . S
C811 H785 0.950 . S
C811 C810 1.414 . S
C811 C812 1.374 . S
C812 H786 0.950 . S
C812 C808 1.385 . S
C812 C811 1.374 . S
C813 C810 1.499 . S
C813 C814 1.373 . S
C813 C815 1.389 . S
C814 H787 0.950 . S
C814 C800 1.377 . S
C814 C813 1.373 . S
C815 C799 1.377 . S
C815 C813 1.389 . S
C815 C816 1.524 . S
C816 C815 1.524 . S
C816 C817 1.397 . S
C816 C821 1.363 . S
C817 H788 0.950 . S
C817 C816 1.397 . S
C817 C818 1.334 . S
C818 H789 0.950 . S
C818 C817 1.334 . S
C818 C819 1.287 . S
C819 C818 1.287 . S
C819 C820 1.524 . S
C819 H822 0.999 . S
C820 H790 0.950 . S
C820 C819 1.524 . S
C820 C821 1.415 . S
C821 H791 0.950 . S
C821 C816 1.363 . S
C821 C820 1.415 . S
H822 C819 0.999 . S
H823 C804 0.913 . S
H824 C842 0.951 . S
H825 C844 0.951 . S
H826 C846 0.950 . S
H827 C847 0.950 . S
H828 C849 0.950 . S
H829 C852 0.950 . S
H830 C853 0.950 . S
H831 C855 0.950 . S
H832 C856 0.950 . S
H833 C857 0.951 . S
H834 C859 0.951 . S
H835 C861 0.950 1_455 S
H836 C862 0.950 . S
H837 C864 0.950 . S
H838 C867 0.950 . S
H839 C868 0.950 . S
H840 C870 0.950 . S
H841 C871 0.950 . S
C842 H824 0.951 . S
C842 C843 1.366 . S
C842 C844 1.388 . S
C843 C842 1.366 . S
C843 C847 1.385 . S
C844 H825 0.951 . S
C844 C842 1.388 . S
C844 C845 1.366 . S
C845 C844 1.366 . S
C845 C846 1.414 . S
C845 C848 1.499 . S
C846 H826 0.950 . S
C846 C845 1.414 . S
C846 C847 1.374 . S
C847 H827 0.950 . S
C847 C843 1.385 . S
C847 C846 1.374 . S
C848 C845 1.499 . S
C848 C849 1.373 . S
C848 C850 1.389 . S
C849 H828 0.950 . S
C849 C848 1.373 . S
C849 C865 1.377 1_455 S
C850 C848 1.389 . S
C850 C851 1.524 . S
C850 C864 1.377 . S
C851 C850 1.524 . S
C851 C852 1.397 . S
C851 C856 1.363 . S
C852 H829 0.950 . S
C852 C851 1.397 . S
C852 C853 1.334 . S
C853 H830 0.950 . S
C853 C852 1.334 . S
C853 C854 1.287 . S
C854 C853 1.287 . S
C854 C855 1.524 . S
C854 H873 0.913 . S
C855 H831 0.950 . S
C855 C854 1.524 . S
C855 C856 1.415 . S
C856 H832 0.950 . S
C856 C851 1.363 . S
C856 C855 1.415 . S
C857 H833 0.951 . S
C857 C858 1.366 . S
C857 C859 1.388 . S
C858 C857 1.366 . S
C858 C862 1.385 . S
C859 H834 0.951 . S
C859 C857 1.388 . S
C859 C860 1.366 . S
C860 C859 1.366 . S
C860 C861 1.414 . S
C860 C863 1.499 . S
C861 H835 0.950 1_655 S
C861 C860 1.414 . S
C861 C862 1.374 . S
C862 H836 0.950 . S
C862 C858 1.385 . S
C862 C861 1.374 . S
C863 C860 1.499 . S
C863 C864 1.373 1_655 S
C863 C865 1.389 . S
C864 H837 0.950 . S
C864 C850 1.377 . S
C864 C863 1.373 1_455 S
C865 C849 1.377 1_655 S
C865 C863 1.389 . S
C865 C866 1.524 . S
C866 C865 1.524 . S
C866 C867 1.397 . S
C866 C871 1.363 . S
C867 H838 0.950 . S
C867 C866 1.397 . S
C867 C868 1.334 . S
C868 H839 0.950 . S
C868 C867 1.334 . S
C868 C869 1.287 . S
C869 C868 1.287 . S
C869 C870 1.524 . S
C869 H872 0.999 . S
C870 H840 0.950 . S
C870 C869 1.524 . S
C870 C871 1.415 . S
C871 H841 0.950 . S
C871 C866 1.363 . S
C871 C870 1.415 . S
H872 C869 0.999 . S
H873 C854 0.913 . S
H874 C892 0.951 . S
H875 C894 0.951 . S
H876 C896 0.950 . S
H877 C897 0.950 . S
H878 C899 0.950 . S
H879 C902 0.950 . S
H880 C903 0.950 . S
H881 C905 0.950 . S
H882 C906 0.950 . S
H883 C907 0.951 . S
H884 C909 0.951 . S
H885 C911 0.950 . S
H886 C912 0.950 1_554 S
H887 C914 0.950 . S
H888 C917 0.950 . S
H889 C918 0.950 . S
H890 C920 0.950 . S
H891 C921 0.950 . S
C892 H874 0.951 . S
C892 C893 1.366 . S
C892 C894 1.388 . S
C893 C892 1.366 . S
C893 C897 1.385 . S
C894 H875 0.951 . S
C894 C892 1.388 . S
C894 C895 1.366 . S
C895 C894 1.366 . S
C895 C896 1.414 . S
C895 C898 1.499 . S
C896 H876 0.950 . S
C896 C895 1.414 . S
C896 C897 1.374 . S
C897 H877 0.950 . S
C897 C893 1.385 . S
C897 C896 1.374 . S
C898 C895 1.499 . S
C898 C899 1.373 . S
C898 C900 1.389 . S
C899 H878 0.950 . S
C899 C898 1.373 . S
C899 C915 1.377 . S
C900 C898 1.389 . S
C900 C901 1.524 . S
C900 C914 1.377 . S
C901 C900 1.524 . S
C901 C902 1.397 . S
C901 C906 1.363 . S
C902 H879 0.950 . S
C902 C901 1.397 . S
C902 C903 1.334 . S
C903 H880 0.950 . S
C903 C902 1.334 . S
C903 C904 1.287 . S
C904 C903 1.287 . S
C904 C905 1.524 . S
C904 H923 0.913 . S
C905 H881 0.950 . S
C905 C904 1.524 . S
C905 C906 1.415 . S
C906 H882 0.950 . S
C906 C901 1.363 . S
C906 C905 1.415 . S
C907 H883 0.951 . S
C907 C908 1.366 . S
C907 C909 1.388 . S
C908 C907 1.366 . S
C908 C912 1.385 . S
C909 H884 0.951 . S
C909 C907 1.388 . S
C909 C910 1.366 . S
C910 C909 1.366 . S
C910 C911 1.414 . S
C910 C913 1.499 . S
C911 H885 0.950 . S
C911 C910 1.414 . S
C911 C912 1.374 . S
C912 H886 0.950 1_556 S
C912 C908 1.385 . S
C912 C911 1.374 . S
C913 C910 1.499 . S
C913 C914 1.373 . S
C913 C915 1.389 . S
C914 H887 0.950 . S
C914 C900 1.377 . S
C914 C913 1.373 . S
C915 C899 1.377 . S
C915 C913 1.389 . S
C915 C916 1.524 . S
C916 C915 1.524 . S
C916 C917 1.397 1_556 S
C916 C921 1.363 . S
C917 H888 0.950 . S
C917 C916 1.397 1_554 S
C917 C918 1.334 . S
C918 H889 0.950 . S
C918 C917 1.334 . S
C918 C919 1.287 . S
C919 C918 1.287 . S
C919 C920 1.524 . S
C919 H922 0.999 . S
C920 H890 0.950 . S
C920 C919 1.524 . S
C920 C921 1.415 1_554 S
C921 H891 0.950 . S
C921 C916 1.363 . S
C921 C920 1.415 1_556 S
H922 C919 0.999 . S
H923 C904 0.913 . S
H924 C942 0.951 . S
H925 C944 0.951 . S
H926 C946 0.950 . S
H927 C947 0.950 . S
H928 C949 0.950 . S
H929 C952 0.950 . S
H930 C953 0.950 . S
H931 C955 0.950 . S
H932 C956 0.950 . S
H933 C957 0.951 . S
H934 C959 0.951 . S
H935 C961 0.950 . S
H936 C962 0.950 . S
H937 C964 0.950 . S
H938 C967 0.950 . S
H939 C968 0.950 . S
H940 C970 0.950 . S
H941 C971 0.950 . S
C942 H924 0.951 . S
C942 C943 1.366 . S
C942 C944 1.388 . S
C943 C942 1.366 . S
C943 C947 1.385 . S
C944 H925 0.951 . S
C944 C942 1.388 . S
C944 C945 1.366 . S
C945 C944 1.366 . S
C945 C946 1.414 . S
C945 C948 1.499 . S
C946 H926 0.950 . S
C946 C945 1.414 . S
C946 C947 1.374 . S
C947 H927 0.950 . S
C947 C943 1.385 . S
C947 C946 1.374 . S
C948 C945 1.499 . S
C948 C949 1.373 . S
C948 C950 1.389 . S
C949 H928 0.950 . S
C949 C948 1.373 . S
C949 C965 1.377 . S
C950 C948 1.389 . S
C950 C951 1.524 . S
C950 C964 1.377 . S
C951 C950 1.524 . S
C951 C952 1.397 . S
C951 C956 1.363 . S
C952 H929 0.950 . S
C952 C951 1.397 . S
C952 C953 1.334 . S
C953 H930 0.950 . S
C953 C952 1.334 . S
C953 C954 1.287 . S
C954 C953 1.287 . S
C954 C955 1.524 . S
C954 H973 0.913 . S
C955 H931 0.950 . S
C955 C954 1.524 . S
C955 C956 1.415 . S
C956 H932 0.950 . S
C956 C951 1.363 . S
C956 C955 1.415 . S
C957 H933 0.951 . S
C957 C958 1.366 . S
C957 C959 1.388 . S
C958 C957 1.366 . S
C958 C962 1.385 . S
C959 H934 0.951 . S
C959 C957 1.388 . S
C959 C960 1.366 . S
C960 C959 1.366 . S
C960 C961 1.414 . S
C960 C963 1.499 . S
C961 H935 0.950 . S
C961 C960 1.414 . S
C961 C962 1.374 . S
C962 H936 0.950 . S
C962 C958 1.385 . S
C962 C961 1.374 . S
C963 C960 1.499 . S
C963 C964 1.373 . S
C963 C965 1.389 . S
C964 H937 0.950 . S
C964 C950 1.377 . S
C964 C963 1.373 . S
C965 C949 1.377 . S
C965 C963 1.389 . S
C965 C966 1.524 . S
C966 C965 1.524 . S
C966 C967 1.397 . S
C966 C971 1.363 . S
C967 H938 0.950 . S
C967 C966 1.397 . S
C967 C968 1.334 . S
C968 H939 0.950 . S
C968 C967 1.334 . S
C968 C969 1.287 . S
C969 C968 1.287 . S
C969 C970 1.524 . S
C969 H972 0.999 . S
C970 H940 0.950 . S
C970 C969 1.524 . S
C970 C971 1.415 . S
C971 H941 0.950 . S
C971 C966 1.363 . S
C971 C970 1.415 . S
H972 C969 0.999 . S
H973 C954 0.913 . S
H974 C992 0.951 . S
H975 C994 0.951 . S
H976 C996 0.950 . S
H977 C997 0.950 . S
H978 C999 0.950 . S
H979 C1002 0.950 . S
H980 C1003 0.950 . S
H981 C1005 0.950 . S
H982 C1006 0.950 . S
H983 C1007 0.951 . S
H984 C1009 0.951 . S
H985 C1011 0.950 . S
H986 C1012 0.950 . S
H987 C1014 0.950 . S
H988 C1017 0.950 . S
H989 C1018 0.950 . S
H990 C1020 0.950 . S
H991 C1021 0.950 . S
C992 H974 0.951 . S
C992 C993 1.366 . S
C992 C994 1.388 . S
C993 C992 1.366 . S
C993 C997 1.385 . S
C994 H975 0.951 . S
C994 C992 1.388 . S
C994 C995 1.366 . S
C995 C994 1.366 . S
C995 C996 1.414 . S
C995 C998 1.499 . S
C996 H976 0.950 . S
C996 C995 1.414 . S
C996 C997 1.374 . S
C997 H977 0.950 . S
C997 C993 1.385 . S
C997 C996 1.374 . S
C998 C995 1.499 . S
C998 C999 1.373 . S
C998 C1000 1.389 . S
C999 H978 0.950 . S
C999 C998 1.373 . S
C999 C1015 1.377 . S
C1000 C998 1.389 . S
C1000 C1001 1.524 . S
C1000 C1014 1.377 . S
C1001 C1000 1.524 . S
C1001 C1002 1.397 . S
C1001 C1006 1.363 . S
C1002 H979 0.950 . S
C1002 C1001 1.397 . S
C1002 C1003 1.334 . S
C1003 H980 0.950 . S
C1003 C1002 1.334 . S
C1003 C1004 1.287 . S
C1004 C1003 1.287 . S
C1004 C1005 1.524 . S
C1004 H1023 0.913 . S
C1005 H981 0.950 . S
C1005 C1004 1.524 . S
C1005 C1006 1.415 . S
C1006 H982 0.950 . S
C1006 C1001 1.363 . S
C1006 C1005 1.415 . S
C1007 H983 0.951 . S
C1007 C1008 1.366 . S
C1007 C1009 1.388 . S
C1008 C1007 1.366 . S
C1008 C1012 1.385 . S
C1009 H984 0.951 . S
C1009 C1007 1.388 . S
C1009 C1010 1.366 . S
C1010 C1009 1.366 . S
C1010 C1011 1.414 . S
C1010 C1013 1.499 . S
C1011 H985 0.950 . S
C1011 C1010 1.414 . S
C1011 C1012 1.374 . S
C1012 H986 0.950 . S
C1012 C1008 1.385 . S
C1012 C1011 1.374 . S
C1013 C1010 1.499 . S
C1013 C1014 1.373 . S
C1013 C1015 1.389 . S
C1014 H987 0.950 . S
C1014 C1000 1.377 . S
C1014 C1013 1.373 . S
C1015 C999 1.377 . S
C1015 C1013 1.389 . S
C1015 C1016 1.524 . S
C1016 C1015 1.524 . S
C1016 C1017 1.397 . S
C1016 C1021 1.363 . S
C1017 H988 0.950 . S
C1017 C1016 1.397 . S
C1017 C1018 1.334 . S
C1018 H989 0.950 . S
C1018 C1017 1.334 . S
C1018 C1019 1.287 . S
C1019 C1018 1.287 . S
C1019 C1020 1.524 . S
C1019 H1022 0.999 . S
C1020 H990 0.950 . S
C1020 C1019 1.524 . S
C1020 C1021 1.415 . S
C1021 H991 0.950 . S
C1021 C1016 1.363 . S
C1021 C1020 1.415 . S
H1022 C1019 0.999 . S
H1023 C1004 0.913 . S
H1024 C1042 0.951 . S
H1025 C1044 0.951 . S
H1026 C1046 0.950 . S
H1027 C1047 0.950 . S
H1028 C1049 0.950 . S
H1029 C1052 0.950 . S
H1030 C1053 0.950 . S
H1031 C1055 0.950 . S
H1032 C1056 0.950 . S
H1033 C1057 0.951 . S
H1034 C1059 0.951 . S
H1035 C1061 0.950 1_554 S
H1036 C1062 0.950 . S
H1037 C1064 0.950 . S
H1038 C1067 0.950 . S
H1039 C1068 0.950 . S
H1040 C1070 0.950 . S
H1041 C1071 0.950 . S
C1042 H1024 0.951 . S
C1042 C1043 1.366 . S
C1042 C1044 1.388 . S
C1043 C1042 1.366 . S
C1043 C1047 1.385 . S
C1044 H1025 0.951 . S
C1044 C1042 1.388 . S
C1044 C1045 1.366 . S
C1045 C1044 1.366 . S
C1045 C1046 1.414 . S
C1045 C1048 1.499 . S
C1046 H1026 0.950 . S
C1046 C1045 1.414 . S
C1046 C1047 1.374 . S
C1047 H1027 0.950 . S
C1047 C1043 1.385 . S
C1047 C1046 1.374 . S
C1048 C1045 1.499 . S
C1048 C1049 1.373 . S
C1048 C1050 1.389 . S
C1049 H1028 0.950 . S
C1049 C1048 1.373 . S
C1049 C1065 1.377 . S
C1050 C1048 1.389 . S
C1050 C1051 1.524 . S
C1050 C1064 1.377 . S
C1051 C1050 1.524 . S
C1051 C1052 1.397 . S
C1051 C1056 1.363 . S
C1052 H1029 0.950 . S
C1052 C1051 1.397 . S
C1052 C1053 1.334 . S
C1053 H1030 0.950 . S
C1053 C1052 1.334 . S
C1053 C1054 1.287 . S
C1054 C1053 1.287 . S
C1054 C1055 1.524 . S
C1054 H1073 0.913 . S
C1055 H1031 0.950 . S
C1055 C1054 1.524 . S
C1055 C1056 1.415 . S
C1056 H1032 0.950 . S
C1056 C1051 1.363 . S
C1056 C1055 1.415 . S
C1057 H1033 0.951 . S
C1057 C1058 1.366 . S
C1057 C1059 1.388 . S
C1058 C1057 1.366 . S
C1058 C1062 1.385 . S
C1059 H1034 0.951 . S
C1059 C1057 1.388 . S
C1059 C1060 1.366 . S
C1060 C1059 1.366 . S
C1060 C1061 1.414 . S
C1060 C1063 1.499 1_556 S
C1061 H1035 0.950 1_556 S
C1061 C1060 1.414 . S
C1061 C1062 1.374 . S
C1062 H1036 0.950 . S
C1062 C1058 1.385 . S
C1062 C1061 1.374 . S
C1063 C1060 1.499 1_554 S
C1063 C1064 1.373 . S
C1063 C1065 1.389 . S
C1064 H1037 0.950 . S
C1064 C1050 1.377 . S
C1064 C1063 1.373 . S
C1065 C1049 1.377 . S
C1065 C1063 1.389 . S
C1065 C1066 1.524 . S
C1066 C1065 1.524 . S
C1066 C1067 1.397 . S
C1066 C1071 1.363 1_554 S
C1067 H1038 0.950 . S
C1067 C1066 1.397 . S
C1067 C1068 1.334 . S
C1068 H1039 0.950 . S
C1068 C1067 1.334 . S
C1068 C1069 1.287 1_554 S
C1069 C1068 1.287 1_556 S
C1069 C1070 1.524 . S
C1069 H1072 0.999 . S
C1070 H1040 0.950 . S
C1070 C1069 1.524 . S
C1070 C1071 1.415 . S
C1071 H1041 0.950 . S
C1071 C1066 1.363 1_556 S
C1071 C1070 1.415 . S
H1072 C1069 0.999 . S
H1073 C1054 0.913 . S
H1074 C1092 0.951 . S
H1075 C1094 0.951 . S
H1076 C1096 0.950 . S
H1077 C1097 0.950 . S
H1078 C1099 0.950 . S
H1079 C1102 0.950 . S
H1080 C1103 0.950 . S
H1081 C1105 0.950 . S
H1082 C1106 0.950 . S
H1083 C1107 0.951 . S
H1084 C1109 0.951 . S
H1085 C1111 0.950 . S
H1086 C1112 0.950 . S
H1087 C1114 0.950 . S
H1088 C1117 0.950 . S
H1089 C1118 0.950 . S
H1090 C1120 0.950 . S
H1091 C1121 0.950 . S
C1092 H1074 0.951 . S
C1092 C1093 1.366 . S
C1092 C1094 1.388 . S
C1093 C1092 1.366 . S
C1093 C1097 1.385 . S
C1094 H1075 0.951 . S
C1094 C1092 1.388 . S
C1094 C1095 1.366 . S
C1095 C1094 1.366 . S
C1095 C1096 1.414 . S
C1095 C1098 1.499 . S
C1096 H1076 0.950 . S
C1096 C1095 1.414 . S
C1096 C1097 1.374 . S
C1097 H1077 0.950 . S
C1097 C1093 1.385 . S
C1097 C1096 1.374 . S
C1098 C1095 1.499 . S
C1098 C1099 1.373 . S
C1098 C1100 1.389 . S
C1099 H1078 0.950 . S
C1099 C1098 1.373 . S
C1099 C1115 1.377 . S
C1100 C1098 1.389 . S
C1100 C1101 1.524 . S
C1100 C1114 1.377 . S
C1101 C1100 1.524 . S
C1101 C1102 1.397 . S
C1101 C1106 1.363 . S
C1102 H1079 0.950 . S
C1102 C1101 1.397 . S
C1102 C1103 1.334 . S
C1103 H1080 0.950 . S
C1103 C1102 1.334 . S
C1103 C1104 1.287 . S
C1104 C1103 1.287 . S
C1104 C1105 1.524 . S
C1104 H1123 0.913 . S
C1105 H1081 0.950 . S
C1105 C1104 1.524 . S
C1105 C1106 1.415 . S
C1106 H1082 0.950 . S
C1106 C1101 1.363 . S
C1106 C1105 1.415 . S
C1107 H1083 0.951 . S
C1107 C1108 1.366 . S
C1107 C1109 1.388 . S
C1108 C1107 1.366 . S
C1108 C1112 1.385 . S
C1109 H1084 0.951 . S
C1109 C1107 1.388 . S
C1109 C1110 1.366 . S
C1110 C1109 1.366 . S
C1110 C1111 1.414 . S
C1110 C1113 1.499 . S
C1111 H1085 0.950 . S
C1111 C1110 1.414 . S
C1111 C1112 1.374 . S
C1112 H1086 0.950 . S
C1112 C1108 1.385 . S
C1112 C1111 1.374 . S
C1113 C1110 1.499 . S
C1113 C1114 1.373 . S
C1113 C1115 1.389 . S
C1114 H1087 0.950 . S
C1114 C1100 1.377 . S
C1114 C1113 1.373 . S
C1115 C1099 1.377 . S
C1115 C1113 1.389 . S
C1115 C1116 1.524 . S
C1116 C1115 1.524 . S
C1116 C1117 1.397 . S
C1116 C1121 1.363 . S
C1117 H1088 0.950 . S
C1117 C1116 1.397 . S
C1117 C1118 1.334 . S
C1118 H1089 0.950 . S
C1118 C1117 1.334 . S
C1118 C1119 1.287 . S
C1119 C1118 1.287 . S
C1119 C1120 1.524 . S
C1119 H1122 0.999 . S
C1120 H1090 0.950 . S
C1120 C1119 1.524 . S
C1120 C1121 1.415 . S
C1121 H1091 0.950 . S
C1121 C1116 1.363 . S
C1121 C1120 1.415 . S
H1122 C1119 0.999 . S
H1123 C1104 0.913 . S
H1124 C1142 0.951 . S
H1125 C1144 0.951 . S
H1126 C1146 0.950 . S
H1127 C1147 0.950 . S
H1128 C1149 0.950 . S
H1129 C1152 0.950 . S
H1130 C1153 0.950 . S
H1131 C1155 0.950 . S
H1132 C1156 0.950 . S
H1133 C1157 0.951 . S
H1134 C1159 0.951 . S
H1135 C1161 0.950 . S
H1136 C1162 0.950 . S
H1137 C1164 0.950 . S
H1138 C1167 0.950 . S
H1139 C1168 0.950 . S
H1140 C1170 0.950 . S
H1141 C1171 0.950 . S
C1142 H1124 0.951 . S
C1142 C1143 1.366 . S
C1142 C1144 1.388 . S
C1143 C1142 1.366 . S
C1143 C1147 1.385 . S
C1144 H1125 0.951 . S
C1144 C1142 1.388 . S
C1144 C1145 1.366 . S
C1145 C1144 1.366 . S
C1145 C1146 1.414 . S
C1145 C1148 1.499 . S
C1146 H1126 0.950 . S
C1146 C1145 1.414 . S
C1146 C1147 1.374 . S
C1147 H1127 0.950 . S
C1147 C1143 1.385 . S
C1147 C1146 1.374 . S
C1148 C1145 1.499 . S
C1148 C1149 1.373 . S
C1148 C1150 1.389 . S
C1149 H1128 0.950 . S
C1149 C1148 1.373 . S
C1149 C1165 1.377 . S
C1150 C1148 1.389 . S
C1150 C1151 1.524 . S
C1150 C1164 1.377 . S
C1151 C1150 1.524 . S
C1151 C1152 1.397 . S
C1151 C1156 1.363 . S
C1152 H1129 0.950 . S
C1152 C1151 1.397 . S
C1152 C1153 1.334 . S
C1153 H1130 0.950 . S
C1153 C1152 1.334 . S
C1153 C1154 1.287 . S
C1154 C1153 1.287 . S
C1154 C1155 1.524 . S
C1154 H1173 0.913 . S
C1155 H1131 0.950 . S
C1155 C1154 1.524 . S
C1155 C1156 1.415 . S
C1156 H1132 0.950 . S
C1156 C1151 1.363 . S
C1156 C1155 1.415 . S
C1157 H1133 0.951 . S
C1157 C1158 1.366 . S
C1157 C1159 1.388 . S
C1158 C1157 1.366 . S
C1158 C1162 1.385 . S
C1159 H1134 0.951 . S
C1159 C1157 1.388 . S
C1159 C1160 1.366 . S
C1160 C1159 1.366 . S
C1160 C1161 1.414 . S
C1160 C1163 1.499 . S
C1161 H1135 0.950 . S
C1161 C1160 1.414 . S
C1161 C1162 1.374 . S
C1162 H1136 0.950 . S
C1162 C1158 1.385 . S
C1162 C1161 1.374 . S
C1163 C1160 1.499 . S
C1163 C1164 1.373 . S
C1163 C1165 1.389 . S
C1164 H1137 0.950 . S
C1164 C1150 1.377 . S
C1164 C1163 1.373 . S
C1165 C1149 1.377 . S
C1165 C1163 1.389 . S
C1165 C1166 1.524 . S
C1166 C1165 1.524 . S
C1166 C1167 1.397 . S
C1166 C1171 1.363 . S
C1167 H1138 0.950 . S
C1167 C1166 1.397 . S
C1167 C1168 1.334 . S
C1168 H1139 0.950 . S
C1168 C1167 1.334 . S
C1168 C1169 1.287 . S
C1169 C1168 1.287 . S
C1169 C1170 1.524 . S
C1169 H1172 0.999 . S
C1170 H1140 0.950 . S
C1170 C1169 1.524 . S
C1170 C1171 1.415 . S
C1171 H1141 0.950 . S
C1171 C1166 1.363 . S
C1171 C1170 1.415 . S
H1172 C1169 0.999 . S
H1173 C1154 0.913 . S
H1174 C1192 0.951 . S
H1175 C1194 0.951 . S
H1176 C1196 0.950 . S
H1177 C1197 0.950 . S
H1178 C1199 0.950 . S
H1179 C1202 0.950 . S
H1180 C1203 0.950 . S
H1181 C1205 0.950 . S
H1182 C1206 0.950 . S
H1183 C1207 0.951 . S
H1184 C1209 0.951 . S
H1185 C1211 0.950 . S
H1186 C1212 0.950 . S
H1187 C1214 0.950 . S
H1188 C1217 0.950 . S
H1189 C1218 0.950 . S
H1190 C1220 0.950 . S
H1191 C1221 0.950 . S
C1192 H1174 0.951 . S
C1192 C1193 1.366 . S
C1192 C1194 1.388 . S
C1193 C1192 1.366 . S
C1193 C1197 1.385 . S
C1194 H1175 0.951 . S
C1194 C1192 1.388 . S
C1194 C1195 1.366 . S
C1195 C1194 1.366 . S
C1195 C1196 1.414 . S
C1195 C1198 1.499 . S
C1196 H1176 0.950 . S
C1196 C1195 1.414 . S
C1196 C1197 1.374 . S
C1197 H1177 0.950 . S
C1197 C1193 1.385 . S
C1197 C1196 1.374 . S
C1198 C1195 1.499 . S
C1198 C1199 1.373 . S
C1198 C1200 1.389 . S
C1199 H1178 0.950 . S
C1199 C1198 1.373 . S
C1199 C1215 1.377 . S
C1200 C1198 1.389 . S
C1200 C1201 1.524 . S
C1200 C1214 1.377 . S
C1201 C1200 1.524 . S
C1201 C1202 1.397 . S
C1201 C1206 1.363 . S
C1202 H1179 0.950 . S
C1202 C1201 1.397 . S
C1202 C1203 1.334 . S
C1203 H1180 0.950 . S
C1203 C1202 1.334 . S
C1203 C1204 1.287 . S
C1204 C1203 1.287 . S
C1204 C1205 1.524 . S
C1204 H1223 0.913 . S
C1205 H1181 0.950 . S
C1205 C1204 1.524 . S
C1205 C1206 1.415 . S
C1206 H1182 0.950 . S
C1206 C1201 1.363 . S
C1206 C1205 1.415 . S
C1207 H1183 0.951 . S
C1207 C1208 1.366 . S
C1207 C1209 1.388 . S
C1208 C1207 1.366 . S
C1208 C1212 1.385 . S
C1209 H1184 0.951 . S
C1209 C1207 1.388 . S
C1209 C1210 1.366 . S
C1210 C1209 1.366 . S
C1210 C1211 1.414 . S
C1210 C1213 1.499 . S
C1211 H1185 0.950 . S
C1211 C1210 1.414 . S
C1211 C1212 1.374 . S
C1212 H1186 0.950 . S
C1212 C1208 1.385 . S
C1212 C1211 1.374 . S
C1213 C1210 1.499 . S
C1213 C1214 1.373 . S
C1213 C1215 1.389 . S
C1214 H1187 0.950 . S
C1214 C1200 1.377 . S
C1214 C1213 1.373 . S
C1215 C1199 1.377 . S
C1215 C1213 1.389 . S
C1215 C1216 1.524 . S
C1216 C1215 1.524 . S
C1216 C1217 1.397 . S
C1216 C1221 1.363 . S
C1217 H1188 0.950 . S
C1217 C1216 1.397 . S
C1217 C1218 1.334 . S
C1218 H1189 0.950 . S
C1218 C1217 1.334 . S
C1218 C1219 1.287 . S
C1219 C1218 1.287 . S
C1219 C1220 1.524 . S
C1219 H1222 0.999 . S
C1220 H1190 0.950 . S
C1220 C1219 1.524 . S
C1220 C1221 1.415 . S
C1221 H1191 0.950 . S
C1221 C1216 1.363 . S
C1221 C1220 1.415 . S
H1222 C1219 0.999 . S
H1223 C1204 0.913 . S
H1224 C1242 0.951 . S
H1225 C1244 0.951 . S
H1226 C1246 0.950 . S
H1227 C1247 0.950 . S
H1228 C1249 0.950 . S
H1229 C1252 0.950 . S
H1230 C1253 0.950 . S
H1231 C1255 0.950 . S
H1232 C1256 0.950 . S
H1233 C1257 0.951 . S
H1234 C1259 0.951 . S
H1235 C1261 0.950 . S
H1236 C1262 0.950 . S
H1237 C1264 0.950 . S
H1238 C1267 0.950 . S
H1239 C1268 0.950 . S
H1240 C1270 0.950 . S
H1241 C1271 0.950 . S
C1242 H1224 0.951 . S
C1242 C1243 1.366 . S
C1242 C1244 1.388 . S
C1243 C1242 1.366 . S
C1243 C1247 1.385 . S
C1244 H1225 0.951 . S
C1244 C1242 1.388 . S
C1244 C1245 1.366 . S
C1245 C1244 1.366 . S
C1245 C1246 1.414 . S
C1245 C1248 1.499 . S
C1246 H1226 0.950 . S
C1246 C1245 1.414 . S
C1246 C1247 1.374 . S
C1247 H1227 0.950 . S
C1247 C1243 1.385 . S
C1247 C1246 1.374 . S
C1248 C1245 1.499 . S
C1248 C1249 1.373 . S
C1248 C1250 1.389 . S
C1249 H1228 0.950 . S
C1249 C1248 1.373 . S
C1249 C1265 1.377 . S
C1250 C1248 1.389 . S
C1250 C1251 1.524 . S
C1250 C1264 1.377 . S
C1251 C1250 1.524 . S
C1251 C1252 1.397 . S
C1251 C1256 1.363 . S
C1252 H1229 0.950 . S
C1252 C1251 1.397 . S
C1252 C1253 1.334 . S
C1253 H1230 0.950 . S
C1253 C1252 1.334 . S
C1253 C1254 1.287 . S
C1254 C1253 1.287 . S
C1254 C1255 1.524 . S
C1254 H1273 0.913 1_556 S
C1255 H1231 0.950 . S
C1255 C1254 1.524 . S
C1255 C1256 1.415 . S
C1256 H1232 0.950 . S
C1256 C1251 1.363 . S
C1256 C1255 1.415 . S
C1257 H1233 0.951 . S
C1257 C1258 1.366 . S
C1257 C1259 1.388 . S
C1258 C1257 1.366 . S
C1258 C1262 1.385 . S
C1259 H1234 0.951 . S
C1259 C1257 1.388 . S
C1259 C1260 1.366 . S
C1260 C1259 1.366 . S
C1260 C1261 1.414 . S
C1260 C1263 1.499 . S
C1261 H1235 0.950 . S
C1261 C1260 1.414 . S
C1261 C1262 1.374 . S
C1262 H1236 0.950 . S
C1262 C1258 1.385 . S
C1262 C1261 1.374 . S
C1263 C1260 1.499 . S
C1263 C1264 1.373 . S
C1263 C1265 1.389 . S
C1264 H1237 0.950 . S
C1264 C1250 1.377 . S
C1264 C1263 1.373 . S
C1265 C1249 1.377 . S
C1265 C1263 1.389 . S
C1265 C1266 1.524 . S
C1266 C1265 1.524 . S
C1266 C1267 1.397 . S
C1266 C1271 1.363 . S
C1267 H1238 0.950 . S
C1267 C1266 1.397 . S
C1267 C1268 1.334 . S
C1268 H1239 0.950 . S
C1268 C1267 1.334 . S
C1268 C1269 1.287 . S
C1269 C1268 1.287 . S
C1269 C1270 1.524 . S
C1269 H1272 0.999 . S
C1270 H1240 0.950 . S
C1270 C1269 1.524 . S
C1270 C1271 1.415 . S
C1271 H1241 0.950 . S
C1271 C1266 1.363 . S
C1271 C1270 1.415 . S
H1272 C1269 0.999 . S
H1273 C1254 0.913 1_554 S
H1274 C1292 0.951 . S
H1275 C1294 0.951 . S
H1276 C1296 0.950 . S
H1277 C1297 0.950 . S
H1278 C1299 0.950 . S
H1279 C1302 0.950 . S
H1280 C1303 0.950 . S
H1281 C1305 0.950 . S
H1282 C1306 0.950 . S
H1283 C1307 0.951 . S
H1284 C1309 0.951 . S
H1285 C1311 0.950 . S
H1286 C1312 0.950 . S
H1287 C1314 0.950 . S
H1288 C1317 0.950 . S
H1289 C1318 0.950 . S
H1290 C1320 0.950 . S
H1291 C1321 0.950 . S
C1292 H1274 0.951 . S
C1292 C1293 1.366 . S
C1292 C1294 1.388 . S
C1293 C1292 1.366 . S
C1293 C1297 1.385 . S
C1294 H1275 0.951 . S
C1294 C1292 1.388 . S
C1294 C1295 1.366 . S
C1295 C1294 1.366 . S
C1295 C1296 1.414 . S
C1295 C1298 1.499 . S
C1296 H1276 0.950 . S
C1296 C1295 1.414 . S
C1296 C1297 1.374 . S
C1297 H1277 0.950 . S
C1297 C1293 1.385 . S
C1297 C1296 1.374 . S
C1298 C1295 1.499 . S
C1298 C1299 1.373 . S
C1298 C1300 1.389 . S
C1299 H1278 0.950 . S
C1299 C1298 1.373 . S
C1299 C1315 1.377 . S
C1300 C1298 1.389 . S
C1300 C1301 1.524 . S
C1300 C1314 1.377 . S
C1301 C1300 1.524 . S
C1301 C1302 1.397 . S
C1301 C1306 1.363 . S
C1302 H1279 0.950 . S
C1302 C1301 1.397 . S
C1302 C1303 1.334 . S
C1303 H1280 0.950 . S
C1303 C1302 1.334 . S
C1303 C1304 1.287 . S
C1304 C1303 1.287 . S
C1304 C1305 1.524 . S
C1304 H1323 0.913 . S
C1305 H1281 0.950 . S
C1305 C1304 1.524 . S
C1305 C1306 1.415 . S
C1306 H1282 0.950 . S
C1306 C1301 1.363 . S
C1306 C1305 1.415 . S
C1307 H1283 0.951 . S
C1307 C1308 1.366 . S
C1307 C1309 1.388 . S
C1308 C1307 1.366 . S
C1308 C1312 1.385 . S
C1309 H1284 0.951 . S
C1309 C1307 1.388 . S
C1309 C1310 1.366 . S
C1310 C1309 1.366 . S
C1310 C1311 1.414 . S
C1310 C1313 1.499 . S
C1311 H1285 0.950 . S
C1311 C1310 1.414 . S
C1311 C1312 1.374 . S
C1312 H1286 0.950 . S
C1312 C1308 1.385 . S
C1312 C1311 1.374 . S
C1313 C1310 1.499 . S
C1313 C1314 1.373 . S
C1313 C1315 1.389 . S
C1314 H1287 0.950 . S
C1314 C1300 1.377 . S
C1314 C1313 1.373 . S
C1315 C1299 1.377 . S
C1315 C1313 1.389 . S
C1315 C1316 1.524 . S
C1316 C1315 1.524 . S
C1316 C1317 1.397 . S
C1316 C1321 1.363 . S
C1317 H1288 0.950 . S
C1317 C1316 1.397 . S
C1317 C1318 1.334 . S
C1318 H1289 0.950 . S
C1318 C1317 1.334 . S
C1318 C1319 1.287 . S
C1319 C1318 1.287 . S
C1319 C1320 1.524 . S
C1319 H1322 0.999 . S
C1320 H1290 0.950 . S
C1320 C1319 1.524 . S
C1320 C1321 1.415 . S
C1321 H1291 0.950 . S
C1321 C1316 1.363 . S
C1321 C1320 1.415 . S
H1322 C1319 0.999 . S
H1323 C1304 0.913 . S
H1324 C1342 0.951 . S
H1325 C1344 0.951 . S
H1326 C1346 0.950 . S
H1327 C1347 0.950 . S
H1328 C1349 0.950 . S
H1329 C1352 0.950 . S
H1330 C1353 0.950 . S
H1331 C1355 0.950 . S
H1332 C1356 0.950 . S
H1333 C1357 0.951 . S
H1334 C1359 0.951 . S
H1335 C1361 0.950 . S
H1336 C1362 0.950 . S
H1337 C1364 0.950 . S
H1338 C1367 0.950 . S
H1339 C1368 0.950 . S
H1340 C1370 0.950 . S
H1341 C1371 0.950 . S
C1342 H1324 0.951 . S
C1342 C1343 1.366 . S
C1342 C1344 1.388 . S
C1343 C1342 1.366 . S
C1343 C1347 1.385 . S
C1344 H1325 0.951 . S
C1344 C1342 1.388 . S
C1344 C1345 1.366 . S
C1345 C1344 1.366 . S
C1345 C1346 1.414 . S
C1345 C1348 1.499 . S
C1346 H1326 0.950 . S
C1346 C1345 1.414 . S
C1346 C1347 1.374 . S
C1347 H1327 0.950 . S
C1347 C1343 1.385 . S
C1347 C1346 1.374 . S
C1348 C1345 1.499 . S
C1348 C1349 1.373 1_565 S
C1348 C1350 1.389 . S
C1349 H1328 0.950 . S
C1349 C1348 1.373 1_545 S
C1349 C1365 1.377 . S
C1350 C1348 1.389 . S
C1350 C1351 1.524 . S
C1350 C1364 1.377 . S
C1351 C1350 1.524 . S
C1351 C1352 1.397 . S
C1351 C1356 1.363 . S
C1352 H1329 0.950 . S
C1352 C1351 1.397 . S
C1352 C1353 1.334 . S
C1353 H1330 0.950 . S
C1353 C1352 1.334 . S
C1353 C1354 1.287 . S
C1354 C1353 1.287 . S
C1354 C1355 1.524 . S
C1354 H1373 0.913 . S
C1355 H1331 0.950 . S
C1355 C1354 1.524 . S
C1355 C1356 1.415 . S
C1356 H1332 0.950 . S
C1356 C1351 1.363 . S
C1356 C1355 1.415 . S
C1357 H1333 0.951 . S
C1357 C1358 1.366 . S
C1357 C1359 1.388 . S
C1358 C1357 1.366 . S
C1358 C1362 1.385 . S
C1359 H1334 0.951 . S
C1359 C1357 1.388 . S
C1359 C1360 1.366 . S
C1360 C1359 1.366 . S
C1360 C1361 1.414 . S
C1360 C1363 1.499 . S
C1361 H1335 0.950 . S
C1361 C1360 1.414 . S
C1361 C1362 1.374 . S
C1362 H1336 0.950 . S
C1362 C1358 1.385 . S
C1362 C1361 1.374 . S
C1363 C1360 1.499 . S
C1363 C1364 1.373 1_545 S
C1363 C1365 1.389 . S
C1364 H1337 0.950 . S
C1364 C1350 1.377 . S
C1364 C1363 1.373 1_565 S
C1365 C1349 1.377 . S
C1365 C1363 1.389 . S
C1365 C1366 1.524 . S
C1366 C1365 1.524 . S
C1366 C1367 1.397 . S
C1366 C1371 1.363 . S
C1367 H1338 0.950 . S
C1367 C1366 1.397 . S
C1367 C1368 1.334 . S
C1368 H1339 0.950 . S
C1368 C1367 1.334 . S
C1368 C1369 1.287 . S
C1369 C1368 1.287 . S
C1369 C1370 1.524 . S
C1369 H1372 0.999 . S
C1370 H1340 0.950 . S
C1370 C1369 1.524 . S
C1370 C1371 1.415 . S
C1371 H1341 0.950 . S
C1371 C1366 1.363 . S
C1371 C1370 1.415 . S
H1372 C1369 0.999 . S
H1373 C1354 0.913 . S
H1374 C1392 0.951 . S
H1375 C1394 0.951 . S
H1376 C1396 0.950 1_554 S
H1377 C1397 0.950 . S
H1378 C1399 0.950 . S
H1379 C1402 0.950 1_545 S
H1380 C1403 0.951 1_545 S
H1381 C1405 0.950 . S
H1382 C1406 0.950 . S
H1383 C1407 0.951 . S
H1384 C1409 0.951 . S
H1385 C1411 0.950 . S
H1386 C1412 0.950 . S
H1387 C1414 0.950 . S
H1388 C1417 0.950 1_565 S
H1389 C1418 0.951 1_565 S
H1390 C1420 0.950 . S
H1391 C1421 0.950 . S
C1392 H1374 0.951 . S
C1392 C1393 1.366 . S
C1392 C1394 1.388 . S
C1393 C1392 1.366 . S
C1393 C1397 1.385 . S
C1394 H1375 0.951 . S
C1394 C1392 1.388 . S
C1394 C1395 1.366 . S
C1395 C1394 1.366 . S
C1395 C1396 1.414 . S
C1395 C1398 1.499 1_556 S
C1396 H1376 0.950 1_556 S
C1396 C1395 1.414 . S
C1396 C1397 1.374 . S
C1397 H1377 0.950 . S
C1397 C1393 1.385 . S
C1397 C1396 1.374 . S
C1398 C1395 1.499 1_554 S
C1398 C1399 1.373 . S
C1398 C1400 1.389 1_545 S
C1399 H1378 0.950 . S
C1399 C1398 1.373 . S
C1399 C1415 1.377 . S
C1400 C1398 1.389 1_565 S
C1400 C1401 1.524 1_554 S
C1400 C1414 1.377 . S
C1401 C1400 1.524 1_556 S
C1401 C1402 1.397 . S
C1401 C1406 1.363 . S
C1402 H1379 0.950 1_565 S
C1402 C1401 1.397 . S
C1402 C1403 1.334 . S
C1403 H1380 0.951 1_565 S
C1403 C1402 1.334 . S
C1403 C1404 1.287 . S
C1404 C1403 1.287 . S
C1404 C1405 1.524 . S
C1404 H1423 0.913 . S
C1405 H1381 0.950 . S
C1405 C1404 1.524 . S
C1405 C1406 1.415 . S
C1406 H1382 0.950 . S
C1406 C1401 1.363 . S
C1406 C1405 1.415 . S
C1407 H1383 0.951 . S
C1407 C1408 1.366 . S
C1407 C1409 1.388 . S
C1408 C1407 1.366 . S
C1408 C1412 1.385 . S
C1409 H1384 0.951 . S
C1409 C1407 1.388 . S
C1409 C1410 1.366 . S
C1410 C1409 1.366 . S
C1410 C1411 1.414 . S
C1410 C1413 1.499 . S
C1411 H1385 0.950 . S
C1411 C1410 1.414 . S
C1411 C1412 1.374 . S
C1412 H1386 0.950 . S
C1412 C1408 1.385 . S
C1412 C1411 1.374 . S
C1413 C1410 1.499 . S
C1413 C1414 1.373 . S
C1413 C1415 1.389 1_565 S
C1414 H1387 0.950 . S
C1414 C1400 1.377 . S
C1414 C1413 1.373 . S
C1415 C1399 1.377 . S
C1415 C1413 1.389 1_545 S
C1415 C1416 1.524 . S
C1416 C1415 1.524 . S
C1416 C1417 1.397 . S
C1416 C1421 1.363 . S
C1417 H1388 0.950 1_545 S
C1417 C1416 1.397 . S
C1417 C1418 1.334 . S
C1418 H1389 0.951 1_545 S
C1418 C1417 1.334 . S
C1418 C1419 1.287 . S
C1419 C1418 1.287 . S
C1419 C1420 1.524 . S
C1419 H1422 0.999 . S
C1420 H1390 0.950 . S
C1420 C1419 1.524 . S
C1420 C1421 1.415 . S
C1421 H1391 0.950 . S
C1421 C1416 1.363 . S
C1421 C1420 1.415 . S
H1422 C1419 0.999 . S
H1423 C1404 0.913 . S
H1424 C1442 0.951 . S
H1425 C1444 0.951 . S
H1426 C1446 0.950 . S
H1427 C1447 0.950 . S
H1428 C1449 0.950 . S
H1429 C1452 0.950 . S
H1430 C1453 0.950 . S
H1431 C1455 0.950 . S
H1432 C1456 0.950 . S
H1433 C1457 0.951 . S
H1434 C1459 0.951 . S
H1435 C1461 0.950 . S
H1436 C1462 0.950 . S
H1437 C1464 0.950 . S
H1438 C1467 0.950 . S
H1439 C1468 0.950 . S
H1440 C1470 0.950 . S
H1441 C1471 0.950 . S
C1442 H1424 0.951 . S
C1442 C1443 1.366 . S
C1442 C1444 1.388 . S
C1443 C1442 1.366 . S
C1443 C1447 1.385 . S
C1444 H1425 0.951 . S
C1444 C1442 1.388 . S
C1444 C1445 1.366 . S
C1445 C1444 1.366 . S
C1445 C1446 1.414 . S
C1445 C1448 1.499 . S
C1446 H1426 0.950 . S
C1446 C1445 1.414 . S
C1446 C1447 1.374 . S
C1447 H1427 0.950 . S
C1447 C1443 1.385 . S
C1447 C1446 1.374 . S
C1448 C1445 1.499 . S
C1448 C1449 1.373 . S
C1448 C1450 1.389 . S
C1449 H1428 0.950 . S
C1449 C1448 1.373 . S
C1449 C1465 1.377 . S
C1450 C1448 1.389 . S
C1450 C1451 1.524 . S
C1450 C1464 1.377 . S
C1451 C1450 1.524 . S
C1451 C1452 1.397 . S
C1451 C1456 1.363 . S
C1452 H1429 0.950 . S
C1452 C1451 1.397 . S
C1452 C1453 1.334 . S
C1453 H1430 0.950 . S
C1453 C1452 1.334 . S
C1453 C1454 1.287 . S
C1454 C1453 1.287 . S
C1454 C1455 1.524 . S
C1454 H1473 0.913 . S
C1455 H1431 0.950 . S
C1455 C1454 1.524 . S
C1455 C1456 1.415 . S
C1456 H1432 0.950 . S
C1456 C1451 1.363 . S
C1456 C1455 1.415 . S
C1457 H1433 0.951 . S
C1457 C1458 1.366 . S
C1457 C1459 1.388 . S
C1458 C1457 1.366 . S
C1458 C1462 1.385 . S
C1459 H1434 0.951 . S
C1459 C1457 1.388 . S
C1459 C1460 1.366 . S
C1460 C1459 1.366 . S
C1460 C1461 1.414 . S
C1460 C1463 1.499 . S
C1461 H1435 0.950 . S
C1461 C1460 1.414 . S
C1461 C1462 1.374 . S
C1462 H1436 0.950 . S
C1462 C1458 1.385 . S
C1462 C1461 1.374 . S
C1463 C1460 1.499 . S
C1463 C1464 1.373 . S
C1463 C1465 1.389 . S
C1464 H1437 0.950 . S
C1464 C1450 1.377 . S
C1464 C1463 1.373 . S
C1465 C1449 1.377 . S
C1465 C1463 1.389 . S
C1465 C1466 1.524 . S
C1466 C1465 1.524 . S
C1466 C1467 1.397 . S
C1466 C1471 1.363 . S
C1467 H1438 0.950 . S
C1467 C1466 1.397 . S
C1467 C1468 1.334 . S
C1468 H1439 0.950 . S
C1468 C1467 1.334 . S
C1468 C1469 1.287 . S
C1469 C1468 1.287 . S
C1469 C1470 1.524 . S
C1469 H1472 0.999 . S
C1470 H1440 0.950 . S
C1470 C1469 1.524 . S
C1470 C1471 1.415 . S
C1471 H1441 0.950 . S
C1471 C1466 1.363 . S
C1471 C1470 1.415 . S
H1472 C1469 0.999 . S
H1473 C1454 0.913 . S
H1474 C1492 0.951 . S
H1475 C1494 0.951 . S
H1476 C1496 0.950 . S
H1477 C1497 0.950 . S
H1478 C1499 0.950 . S
H1479 C1502 0.950 . S
H1480 C1503 0.950 . S
H1481 C1505 0.950 . S
H1482 C1506 0.950 . S
H1483 C1507 0.951 . S
H1484 C1509 0.951 . S
H1485 C1511 0.950 . S
H1486 C1512 0.950 . S
H1487 C1514 0.950 . S
H1488 C1517 0.950 . S
H1489 C1518 0.950 . S
H1490 C1520 0.950 . S
H1491 C1521 0.950 . S
C1492 H1474 0.951 . S
C1492 C1493 1.366 . S
C1492 C1494 1.388 . S
C1493 C1492 1.366 . S
C1493 C1497 1.385 . S
C1494 H1475 0.951 . S
C1494 C1492 1.388 . S
C1494 C1495 1.366 . S
C1495 C1494 1.366 . S
C1495 C1496 1.414 . S
C1495 C1498 1.499 . S
C1496 H1476 0.950 . S
C1496 C1495 1.414 . S
C1496 C1497 1.374 . S
C1497 H1477 0.950 . S
C1497 C1493 1.385 . S
C1497 C1496 1.374 . S
C1498 C1495 1.499 . S
C1498 C1499 1.373 . S
C1498 C1500 1.389 . S
C1499 H1478 0.950 . S
C1499 C1498 1.373 . S
C1499 C1515 1.377 . S
C1500 C1498 1.389 . S
C1500 C1501 1.524 . S
C1500 C1514 1.377 . S
C1501 C1500 1.524 . S
C1501 C1502 1.397 . S
C1501 C1506 1.363 . S
C1502 H1479 0.950 . S
C1502 C1501 1.397 . S
C1502 C1503 1.334 . S
C1503 H1480 0.950 . S
C1503 C1502 1.334 . S
C1503 C1504 1.287 . S
C1504 C1503 1.287 . S
C1504 C1505 1.524 . S
C1504 H1523 0.913 . S
C1505 H1481 0.950 . S
C1505 C1504 1.524 . S
C1505 C1506 1.415 . S
C1506 H1482 0.950 . S
C1506 C1501 1.363 . S
C1506 C1505 1.415 . S
C1507 H1483 0.951 . S
C1507 C1508 1.366 . S
C1507 C1509 1.388 . S
C1508 C1507 1.366 . S
C1508 C1512 1.385 . S
C1509 H1484 0.951 . S
C1509 C1507 1.388 . S
C1509 C1510 1.366 . S
C1510 C1509 1.366 . S
C1510 C1511 1.414 . S
C1510 C1513 1.499 . S
C1511 H1485 0.950 . S
C1511 C1510 1.414 . S
C1511 C1512 1.374 . S
C1512 H1486 0.950 . S
C1512 C1508 1.385 . S
C1512 C1511 1.374 . S
C1513 C1510 1.499 . S
C1513 C1514 1.373 . S
C1513 C1515 1.389 . S
C1514 H1487 0.950 . S
C1514 C1500 1.377 . S
C1514 C1513 1.373 . S
C1515 C1499 1.377 . S
C1515 C1513 1.389 . S
C1515 C1516 1.524 . S
C1516 C1515 1.524 . S
C1516 C1517 1.397 . S
C1516 C1521 1.363 . S
C1517 H1488 0.950 . S
C1517 C1516 1.397 . S
C1517 C1518 1.334 . S
C1518 H1489 0.950 . S
C1518 C1517 1.334 . S
C1518 C1519 1.287 . S
C1519 C1518 1.287 . S
C1519 C1520 1.524 . S
C1519 H1522 0.999 . S
C1520 H1490 0.950 . S
C1520 C1519 1.524 . S
C1520 C1521 1.415 . S
C1521 H1491 0.950 . S
C1521 C1516 1.363 . S
C1521 C1520 1.415 . S
H1522 C1519 0.999 . S
H1523 C1504 0.913 . S
H1524 C1542 0.951 . S
H1525 C1544 0.951 . S
H1526 C1546 0.950 . S
H1527 C1547 0.950 . S
H1528 C1549 0.950 . S
H1529 C1552 0.950 . S
H1530 C1553 0.950 . S
H1531 C1555 0.950 . S
H1532 C1556 0.950 . S
H1533 C1557 0.951 . S
H1534 C1559 0.951 . S
H1535 C1561 0.950 1_554 S
H1536 C1562 0.950 . S
H1537 C1564 0.950 . S
H1538 C1567 0.950 . S
H1539 C1568 0.950 . S
H1540 C1570 0.950 . S
H1541 C1571 0.950 . S
C1542 H1524 0.951 . S
C1542 C1543 1.366 . S
C1542 C1544 1.388 . S
C1543 C1542 1.366 . S
C1543 C1547 1.385 . S
C1544 H1525 0.951 . S
C1544 C1542 1.388 . S
C1544 C1545 1.366 . S
C1545 C1544 1.366 . S
C1545 C1546 1.414 . S
C1545 C1548 1.499 . S
C1546 H1526 0.950 . S
C1546 C1545 1.414 . S
C1546 C1547 1.374 . S
C1547 H1527 0.950 . S
C1547 C1543 1.385 . S
C1547 C1546 1.374 . S
C1548 C1545 1.499 . S
C1548 C1549 1.373 . S
C1548 C1550 1.389 . S
C1549 H1528 0.950 . S
C1549 C1548 1.373 . S
C1549 C1565 1.377 . S
C1550 C1548 1.389 . S
C1550 C1551 1.524 . S
C1550 C1564 1.377 . S
C1551 C1550 1.524 . S
C1551 C1552 1.397 . S
C1551 C1556 1.363 . S
C1552 H1529 0.950 . S
C1552 C1551 1.397 . S
C1552 C1553 1.334 . S
C1553 H1530 0.950 . S
C1553 C1552 1.334 . S
C1553 C1554 1.287 . S
C1554 C1553 1.287 . S
C1554 C1555 1.524 . S
C1554 H1573 0.913 . S
C1555 H1531 0.950 . S
C1555 C1554 1.524 . S
C1555 C1556 1.415 . S
C1556 H1532 0.950 . S
C1556 C1551 1.363 . S
C1556 C1555 1.415 . S
C1557 H1533 0.951 . S
C1557 C1558 1.366 . S
C1557 C1559 1.388 . S
C1558 C1557 1.366 . S
C1558 C1562 1.385 . S
C1559 H1534 0.951 . S
C1559 C1557 1.388 . S
C1559 C1560 1.366 . S
C1560 C1559 1.366 . S
C1560 C1561 1.414 . S
C1560 C1563 1.499 1_556 S
C1561 H1535 0.950 1_556 S
C1561 C1560 1.414 . S
C1561 C1562 1.374 . S
C1562 H1536 0.950 . S
C1562 C1558 1.385 . S
C1562 C1561 1.374 . S
C1563 C1560 1.499 1_554 S
C1563 C1564 1.373 . S
C1563 C1565 1.389 . S
C1564 H1537 0.950 . S
C1564 C1550 1.377 . S
C1564 C1563 1.373 . S
C1565 C1549 1.377 . S
C1565 C1563 1.389 . S
C1565 C1566 1.524 1_554 S
C1566 C1565 1.524 1_556 S
C1566 C1567 1.397 . S
C1566 C1571 1.363 . S
C1567 H1538 0.950 . S
C1567 C1566 1.397 . S
C1567 C1568 1.334 . S
C1568 H1539 0.950 . S
C1568 C1567 1.334 . S
C1568 C1569 1.287 . S
C1569 C1568 1.287 . S
C1569 C1570 1.524 . S
C1569 H1572 0.999 . S
C1570 H1540 0.950 . S
C1570 C1569 1.524 . S
C1570 C1571 1.415 . S
C1571 H1541 0.950 . S
C1571 C1566 1.363 . S
C1571 C1570 1.415 . S
H1572 C1569 0.999 . S
H1573 C1554 0.913 . S
H1574 C1592 0.951 . S
H1575 C1594 0.951 . S
H1576 C1596 0.950 . S
H1577 C1597 0.950 . S
H1578 C1599 0.950 . S
H1579 C1602 0.950 . S
H1580 C1603 0.950 . S
H1581 C1605 0.950 . S
H1582 C1606 0.950 . S
H1583 C1607 0.951 . S
H1584 C1609 0.951 . S
H1585 C1611 0.950 . S
H1586 C1612 0.950 . S
H1587 C1614 0.950 . S
H1588 C1617 0.950 . S
H1589 C1618 0.950 . S
H1590 C1620 0.950 . S
H1591 C1621 0.950 . S
C1592 H1574 0.951 . S
C1592 C1593 1.366 . S
C1592 C1594 1.388 . S
C1593 C1592 1.366 . S
C1593 C1597 1.385 . S
C1594 H1575 0.951 . S
C1594 C1592 1.388 . S
C1594 C1595 1.366 . S
C1595 C1594 1.366 . S
C1595 C1596 1.414 . S
C1595 C1598 1.499 . S
C1596 H1576 0.950 . S
C1596 C1595 1.414 . S
C1596 C1597 1.374 . S
C1597 H1577 0.950 . S
C1597 C1593 1.385 . S
C1597 C1596 1.374 . S
C1598 C1595 1.499 . S
C1598 C1599 1.373 . S
C1598 C1600 1.389 . S
C1599 H1578 0.950 . S
C1599 C1598 1.373 . S
C1599 C1615 1.377 . S
C1600 C1598 1.389 . S
C1600 C1601 1.524 . S
C1600 C1614 1.377 . S
C1601 C1600 1.524 . S
C1601 C1602 1.397 . S
C1601 C1606 1.363 . S
C1602 H1579 0.950 . S
C1602 C1601 1.397 . S
C1602 C1603 1.334 . S
C1603 H1580 0.950 . S
C1603 C1602 1.334 . S
C1603 C1604 1.287 . S
C1604 C1603 1.287 . S
C1604 C1605 1.524 . S
C1604 H1623 0.913 . S
C1605 H1581 0.950 . S
C1605 C1604 1.524 . S
C1605 C1606 1.415 . S
C1606 H1582 0.950 . S
C1606 C1601 1.363 . S
C1606 C1605 1.415 . S
C1607 H1583 0.951 . S
C1607 C1608 1.366 . S
C1607 C1609 1.388 . S
C1608 C1607 1.366 . S
C1608 C1612 1.385 . S
C1609 H1584 0.951 . S
C1609 C1607 1.388 . S
C1609 C1610 1.366 . S
C1610 C1609 1.366 . S
C1610 C1611 1.414 . S
C1610 C1613 1.499 . S
C1611 H1585 0.950 . S
C1611 C1610 1.414 . S
C1611 C1612 1.374 . S
C1612 H1586 0.950 . S
C1612 C1608 1.385 . S
C1612 C1611 1.374 . S
C1613 C1610 1.499 . S
C1613 C1614 1.373 . S
C1613 C1615 1.389 . S
C1614 H1587 0.950 . S
C1614 C1600 1.377 . S
C1614 C1613 1.373 . S
C1615 C1599 1.377 . S
C1615 C1613 1.389 . S
C1615 C1616 1.524 . S
C1616 C1615 1.524 . S
C1616 C1617 1.397 . S
C1616 C1621 1.363 . S
C1617 H1588 0.950 . S
C1617 C1616 1.397 . S
C1617 C1618 1.334 . S
C1618 H1589 0.950 . S
C1618 C1617 1.334 . S
C1618 C1619 1.287 . S
C1619 C1618 1.287 . S
C1619 C1620 1.524 . S
C1619 H1622 0.999 . S
C1620 H1590 0.950 . S
C1620 C1619 1.524 . S
C1620 C1621 1.415 . S
C1621 H1591 0.950 . S
C1621 C1616 1.363 . S
C1621 C1620 1.415 . S
H1622 C1619 0.999 . S
H1623 C1604 0.913 . S
H1624 C1642 0.951 . S
H1625 C1644 0.951 . S
H1626 C1646 0.950 . S
H1627 C1647 0.950 . S
H1628 C1649 0.950 . S
H1629 C1652 0.950 . S
H1630 C1653 0.950 . S
H1631 C1655 0.950 . S
H1632 C1656 0.950 . S
H1633 C1657 0.951 . S
H1634 C1659 0.951 . S
H1635 C1661 0.950 . S
H1636 C1662 0.950 . S
H1637 C1664 0.950 . S
H1638 C1667 0.950 . S
H1639 C1668 0.950 . S
H1640 C1670 0.950 . S
H1641 C1671 0.950 . S
C1642 H1624 0.951 . S
C1642 C1643 1.366 . S
C1642 C1644 1.388 . S
C1643 C1642 1.366 . S
C1643 C1647 1.385 . S
C1644 H1625 0.951 . S
C1644 C1642 1.388 . S
C1644 C1645 1.366 . S
C1645 C1644 1.366 . S
C1645 C1646 1.414 . S
C1645 C1648 1.499 . S
C1646 H1626 0.950 . S
C1646 C1645 1.414 . S
C1646 C1647 1.374 . S
C1647 H1627 0.950 . S
C1647 C1643 1.385 . S
C1647 C1646 1.374 . S
C1648 C1645 1.499 . S
C1648 C1649 1.373 . S
C1648 C1650 1.389 . S
C1649 H1628 0.950 . S
C1649 C1648 1.373 . S
C1649 C1665 1.377 . S
C1650 C1648 1.389 . S
C1650 C1651 1.524 . S
C1650 C1664 1.377 . S
C1651 C1650 1.524 . S
C1651 C1652 1.397 . S
C1651 C1656 1.363 . S
C1652 H1629 0.950 . S
C1652 C1651 1.397 . S
C1652 C1653 1.334 . S
C1653 H1630 0.950 . S
C1653 C1652 1.334 . S
C1653 C1654 1.287 . S
C1654 C1653 1.287 . S
C1654 C1655 1.524 . S
C1654 H1673 0.913 . S
C1655 H1631 0.950 . S
C1655 C1654 1.524 . S
C1655 C1656 1.415 . S
C1656 H1632 0.950 . S
C1656 C1651 1.363 . S
C1656 C1655 1.415 . S
C1657 H1633 0.951 . S
C1657 C1658 1.366 . S
C1657 C1659 1.388 . S
C1658 C1657 1.366 . S
C1658 C1662 1.385 . S
C1659 H1634 0.951 . S
C1659 C1657 1.388 . S
C1659 C1660 1.366 . S
C1660 C1659 1.366 . S
C1660 C1661 1.414 . S
C1660 C1663 1.499 . S
C1661 H1635 0.950 . S
C1661 C1660 1.414 . S
C1661 C1662 1.374 . S
C1662 H1636 0.950 . S
C1662 C1658 1.385 . S
C1662 C1661 1.374 . S
C1663 C1660 1.499 . S
C1663 C1664 1.373 . S
C1663 C1665 1.389 . S
C1664 H1637 0.950 . S
C1664 C1650 1.377 . S
C1664 C1663 1.373 . S
C1665 C1649 1.377 . S
C1665 C1663 1.389 . S
C1665 C1666 1.524 . S
C1666 C1665 1.524 . S
C1666 C1667 1.397 . S
C1666 C1671 1.363 . S
C1667 H1638 0.950 . S
C1667 C1666 1.397 . S
C1667 C1668 1.334 . S
C1668 H1639 0.950 . S
C1668 C1667 1.334 . S
C1668 C1669 1.287 . S
C1669 C1668 1.287 . S
C1669 C1670 1.524 . S
C1669 H1672 0.999 . S
C1670 H1640 0.950 . S
C1670 C1669 1.524 . S
C1670 C1671 1.415 . S
C1671 H1641 0.950 . S
C1671 C1666 1.363 . S
C1671 C1670 1.415 . S
H1672 C1669 0.999 . S
H1673 C1654 0.913 . S
H1674 C1692 0.951 . S
H1675 C1694 0.951 . S
H1676 C1696 0.950 . S
H1677 C1697 0.950 . S
H1678 C1699 0.950 . S
H1679 C1702 0.950 . S
H1680 C1703 0.950 . S
H1681 C1705 0.950 . S
H1682 C1706 0.950 . S
H1683 C1707 0.951 . S
H1684 C1709 0.951 . S
H1685 C1711 0.950 . S
H1686 C1712 0.950 . S
H1687 C1714 0.950 . S
H1688 C1717 0.950 . S
H1689 C1718 0.950 . S
H1690 C1720 0.950 . S
H1691 C1721 0.950 . S
C1692 H1674 0.951 . S
C1692 C1693 1.366 . S
C1692 C1694 1.388 . S
C1693 C1692 1.366 . S
C1693 C1697 1.385 . S
C1694 H1675 0.951 . S
C1694 C1692 1.388 . S
C1694 C1695 1.366 . S
C1695 C1694 1.366 . S
C1695 C1696 1.414 . S
C1695 C1698 1.499 . S
C1696 H1676 0.950 . S
C1696 C1695 1.414 . S
C1696 C1697 1.374 . S
C1697 H1677 0.950 . S
C1697 C1693 1.385 . S
C1697 C1696 1.374 . S
C1698 C1695 1.499 . S
C1698 C1699 1.373 . S
C1698 C1700 1.389 . S
C1699 H1678 0.950 . S
C1699 C1698 1.373 . S
C1699 C1715 1.377 . S
C1700 C1698 1.389 . S
C1700 C1701 1.524 . S
C1700 C1714 1.377 . S
C1701 C1700 1.524 . S
C1701 C1702 1.397 . S
C1701 C1706 1.363 . S
C1702 H1679 0.950 . S
C1702 C1701 1.397 . S
C1702 C1703 1.334 . S
C1703 H1680 0.950 . S
C1703 C1702 1.334 . S
C1703 C1704 1.287 . S
C1704 C1703 1.287 . S
C1704 C1705 1.524 . S
C1704 H1723 0.913 . S
C1705 H1681 0.950 . S
C1705 C1704 1.524 . S
C1705 C1706 1.415 . S
C1706 H1682 0.950 . S
C1706 C1701 1.363 . S
C1706 C1705 1.415 . S
C1707 H1683 0.951 . S
C1707 C1708 1.366 . S
C1707 C1709 1.388 . S
C1708 C1707 1.366 . S
C1708 C1712 1.385 . S
C1709 H1684 0.951 . S
C1709 C1707 1.388 . S
C1709 C1710 1.366 . S
C1710 C1709 1.366 . S
C1710 C1711 1.414 . S
C1710 C1713 1.499 . S
C1711 H1685 0.950 . S
C1711 C1710 1.414 . S
C1711 C1712 1.374 . S
C1712 H1686 0.950 . S
C1712 C1708 1.385 . S
C1712 C1711 1.374 . S
C1713 C1710 1.499 . S
C1713 C1714 1.373 . S
C1713 C1715 1.389 . S
C1714 H1687 0.950 . S
C1714 C1700 1.377 . S
C1714 C1713 1.373 . S
C1715 C1699 1.377 . S
C1715 C1713 1.389 . S
C1715 C1716 1.524 . S
C1716 C1715 1.524 . S
C1716 C1717 1.397 . S
C1716 C1721 1.363 . S
C1717 H1688 0.950 . S
C1717 C1716 1.397 . S
C1717 C1718 1.334 . S
C1718 H1689 0.950 . S
C1718 C1717 1.334 . S
C1718 C1719 1.287 . S
C1719 C1718 1.287 . S
C1719 C1720 1.524 . S
C1719 H1722 0.999 . S
C1720 H1690 0.950 . S
C1720 C1719 1.524 . S
C1720 C1721 1.415 . S
C1721 H1691 0.950 . S
C1721 C1716 1.363 . S
C1721 C1720 1.415 . S
H1722 C1719 0.999 . S
H1723 C1704 0.913 . S
H1724 C1742 0.951 . S
H1725 C1744 0.951 . S
H1726 C1746 0.950 . S
H1727 C1747 0.950 . S
H1728 C1749 0.950 . S
H1729 C1752 0.950 . S
H1730 C1753 0.950 . S
H1731 C1755 0.950 . S
H1732 C1756 0.950 1_556 S
H1733 C1757 0.951 . S
H1734 C1759 0.951 1_554 S
H1735 C1761 0.950 . S
H1736 C1762 0.950 . S
H1737 C1764 0.950 1_556 S
H1738 C1767 0.950 . S
H1739 C1768 0.950 . S
H1740 C1770 0.950 . S
H1741 C1771 0.950 . S
C1742 H1724 0.951 . S
C1742 C1743 1.366 . S
C1742 C1744 1.388 . S
C1743 C1742 1.366 . S
C1743 C1747 1.385 . S
C1744 H1725 0.951 . S
C1744 C1742 1.388 . S
C1744 C1745 1.366 . S
C1745 C1744 1.366 . S
C1745 C1746 1.414 . S
C1745 C1748 1.499 . S
C1746 H1726 0.950 . S
C1746 C1745 1.414 . S
C1746 C1747 1.374 . S
C1747 H1727 0.950 . S
C1747 C1743 1.385 . S
C1747 C1746 1.374 . S
C1748 C1745 1.499 . S
C1748 C1749 1.373 1_565 S
C1748 C1750 1.389 . S
C1749 H1728 0.950 . S
C1749 C1748 1.373 1_545 S
C1749 C1765 1.377 . S
C1750 C1748 1.389 . S
C1750 C1751 1.524 . S
C1750 C1764 1.377 . S
C1751 C1750 1.524 . S
C1751 C1752 1.397 . S
C1751 C1756 1.363 . S
C1752 H1729 0.950 . S
C1752 C1751 1.397 . S
C1752 C1753 1.334 . S
C1753 H1730 0.950 . S
C1753 C1752 1.334 . S
C1753 C1754 1.287 . S
C1754 C1753 1.287 . S
C1754 C1755 1.524 1_554 S
C1754 H1773 0.913 . S
C1755 H1731 0.950 . S
C1755 C1754 1.524 1_556 S
C1755 C1756 1.415 1_556 S
C1756 H1732 0.950 1_554 S
C1756 C1751 1.363 . S
C1756 C1755 1.415 1_554 S
C1757 H1733 0.951 . S
C1757 C1758 1.366 . S
C1757 C1759 1.388 . S
C1758 C1757 1.366 . S
C1758 C1762 1.385 . S
C1759 H1734 0.951 1_556 S
C1759 C1757 1.388 . S
C1759 C1760 1.366 . S
C1760 C1759 1.366 . S
C1760 C1761 1.414 . S
C1760 C1763 1.499 1_556 S
C1761 H1735 0.950 . S
C1761 C1760 1.414 . S
C1761 C1762 1.374 . S
C1762 H1736 0.950 . S
C1762 C1758 1.385 . S
C1762 C1761 1.374 . S
C1763 C1760 1.499 1_554 S
C1763 C1764 1.373 1_545 S
C1763 C1765 1.389 . S
C1764 H1737 0.950 1_554 S
C1764 C1750 1.377 . S
C1764 C1763 1.373 1_565 S
C1765 C1749 1.377 . S
C1765 C1763 1.389 . S
C1765 C1766 1.524 . S
C1766 C1765 1.524 . S
C1766 C1767 1.397 . S
C1766 C1771 1.363 . S
C1767 H1738 0.950 . S
C1767 C1766 1.397 . S
C1767 C1768 1.334 . S
C1768 H1739 0.950 . S
C1768 C1767 1.334 . S
C1768 C1769 1.287 . S
C1769 C1768 1.287 . S
C1769 C1770 1.524 . S
C1769 H1772 0.999 . S
C1770 H1740 0.950 . S
C1770 C1769 1.524 . S
C1770 C1771 1.415 . S
C1771 H1741 0.950 . S
C1771 C1766 1.363 . S
C1771 C1770 1.415 . S
H1772 C1769 0.999 . S
H1773 C1754 0.913 . S
H1774 C1792 0.951 . S
H1775 C1794 0.951 . S
H1776 C1796 0.950 . S
H1777 C1797 0.950 . S
H1778 C1799 0.950 . S
H1779 C1802 0.950 . S
H1780 C1803 0.950 . S
H1781 C1805 0.950 . S
H1782 C1806 0.950 . S
H1783 C1807 0.951 . S
H1784 C1809 0.951 . S
H1785 C1811 0.950 . S
H1786 C1812 0.950 . S
H1787 C1814 0.950 . S
H1788 C1817 0.950 . S
H1789 C1818 0.950 . S
H1790 C1820 0.950 . S
H1791 C1821 0.950 . S
C1792 H1774 0.951 . S
C1792 C1793 1.366 . S
C1792 C1794 1.388 . S
C1793 C1792 1.366 . S
C1793 C1797 1.385 . S
C1794 H1775 0.951 . S
C1794 C1792 1.388 . S
C1794 C1795 1.366 . S
C1795 C1794 1.366 . S
C1795 C1796 1.414 . S
C1795 C1798 1.499 . S
C1796 H1776 0.950 . S
C1796 C1795 1.414 . S
C1796 C1797 1.374 . S
C1797 H1777 0.950 . S
C1797 C1793 1.385 . S
C1797 C1796 1.374 . S
C1798 C1795 1.499 . S
C1798 C1799 1.373 . S
C1798 C1800 1.389 1_545 S
C1799 H1778 0.950 . S
C1799 C1798 1.373 . S
C1799 C1815 1.377 . S
C1800 C1798 1.389 1_565 S
C1800 C1801 1.524 . S
C1800 C1814 1.377 . S
C1801 C1800 1.524 . S
C1801 C1802 1.397 1_565 S
C1801 C1806 1.363 . S
C1802 H1779 0.950 . S
C1802 C1801 1.397 1_545 S
C1802 C1803 1.334 . S
C1803 H1780 0.950 . S
C1803 C1802 1.334 . S
C1803 C1804 1.287 1_545 S
C1804 C1803 1.287 1_565 S
C1804 C1805 1.524 . S
C1804 H1823 0.913 . S
C1805 H1781 0.950 . S
C1805 C1804 1.524 . S
C1805 C1806 1.415 . S
C1806 H1782 0.950 . S
C1806 C1801 1.363 . S
C1806 C1805 1.415 . S
C1807 H1783 0.951 . S
C1807 C1808 1.366 . S
C1807 C1809 1.388 . S
C1808 C1807 1.366 . S
C1808 C1812 1.385 . S
C1809 H1784 0.951 . S
C1809 C1807 1.388 . S
C1809 C1810 1.366 . S
C1810 C1809 1.366 . S
C1810 C1811 1.414 . S
C1810 C1813 1.499 . S
C1811 H1785 0.950 . S
C1811 C1810 1.414 . S
C1811 C1812 1.374 . S
C1812 H1786 0.950 . S
C1812 C1808 1.385 . S
C1812 C1811 1.374 . S
C1813 C1810 1.499 . S
C1813 C1814 1.373 . S
C1813 C1815 1.389 1_565 S
C1814 H1787 0.950 . S
C1814 C1800 1.377 . S
C1814 C1813 1.373 . S
C1815 C1799 1.377 . S
C1815 C1813 1.389 1_545 S
C1815 C1816 1.524 . S
C1816 C1815 1.524 . S
C1816 C1817 1.397 1_545 S
C1816 C1821 1.363 . S
C1817 H1788 0.950 . S
C1817 C1816 1.397 1_565 S
C1817 C1818 1.334 . S
C1818 H1789 0.950 . S
C1818 C1817 1.334 . S
C1818 C1819 1.287 1_565 S
C1819 C1818 1.287 1_545 S
C1819 C1820 1.524 . S
C1819 H1822 0.999 . S
C1820 H1790 0.950 . S
C1820 C1819 1.524 . S
C1820 C1821 1.415 . S
C1821 H1791 0.950 . S
C1821 C1816 1.363 . S
C1821 C1820 1.415 . S
H1822 C1819 0.999 . S
H1823 C1804 0.913 . S
C243 C135 1.242 . S
C258 C9 1.243 . S
C293 C205 1.242 . S
C308 C23 1.243 . S
C343 C37 1.242 . S
C358 C121 1.242 . S
C393 C51 1.243 . S
C408 C219 1.242 . S
C443 C65 1.243 . S
C458 C149 1.242 . S
C493 C191 1.243 . S
C508 C79 1.242 . S
C543 C163 1.243 . S
C558 C93 1.242 . S
C593 C107 1.242 . S
C608 C177 1.243 . S
C643 C63 1.677 . S
C658 C49 1.676 . S
C693 C175 1.676 . S
C708 C119 1.676 . S
C743 C91 1.676 . S
C758 C21 1.676 . S
C793 C133 1.677 . S
C808 C189 1.677 . S
C843 C7 1.676 . S
C858 C77 1.676 . S
C893 C217 1.676 . S
C908 C147 1.676 . S
C943 C105 1.677 . S
C958 C35 1.677 . S
C993 C161 1.677 . S
C1008 C203 1.677 . S
C1043 C8 1.045 . S
C1058 C64 1.045 . S
C1093 C78 1.045 . S
C1108 C22 1.045 . S
C1143 C92 1.045 . S
C1158 C36 1.045 . S
C1193 C50 1.045 . S
C1208 C106 1.046 . S
C1243 C148 1.046 . S
C1258 C120 1.046 . S
C1293 C162 1.045 . S
C1308 C134 1.045 . S
C1343 C204 1.045 . S
C1358 C176 1.045 . S
C1393 C218 1.045 . S
C1408 C190 1.045 . S
C1443 C62 1.589 . S
C1458 C6 1.590 . S
C1493 C76 1.589 . S
C1508 C20 1.590 . S
C1543 C90 1.589 . S
C1558 C34 1.590 . S
C1593 C48 1.590 . S
C1608 C104 1.589 . S
C1643 C118 1.589 . S
C1658 C146 1.589 . S
C1693 C160 1.590 . S
C1708 C132 1.589 . S
C1743 C202 1.590 . S
C1758 C174 1.589 . S
C1793 C216 1.589 . S
C1808 C188 1.590 . S
