# Generated by pormake.
# Topology umy, (4)-cn, num edge types: 1
# Building blocks:
#     Node 0, Type 0, BuildingBlock: GALJAG_clean_sbu_0, # of connection points: 4
#     Node 1, Type 0, BuildingBlock: GALJAG_clean_sbu_0, # of connection points: 4
#     Node 2, Type 0, BuildingBlock: GALJAG_clean_sbu_0, # of connection points: 4
#     Node 3, Type 0, BuildingBlock: GALJAG_clean_sbu_0, # of connection points: 4
#     Node 4, Type 0, BuildingBlock: GALJAG_clean_sbu_0, # of connection points: 4
#     Node 5, Type 0, BuildingBlock: GALJAG_clean_sbu_0, # of connection points: 4
#     Node 6, Type 0, BuildingBlock: GALJAG_clean_sbu_0, # of connection points: 4
#     Node 7, Type 0, BuildingBlock: GALJAG_clean_sbu_0, # of connection points: 4
#     Node 8, Type 0, BuildingBlock: GALJAG_clean_sbu_0, # of connection points: 4
#     Node 9, Type 0, BuildingBlock: GALJAG_clean_sbu_0, # of connection points: 4
#     Node 10, Type 0, BuildingBlock: GALJAG_clean_sbu_0, # of connection points: 4
#     Node 11, Type 0, BuildingBlock: GALJAG_clean_sbu_0, # of connection points: 4
#     Edge 12, Type (0, 0), BuildingBlock: AJUNOK_clean_linker_0, # of connection points: 2
#     Edge 13, Type (0, 0), BuildingBlock: AJUNOK_clean_linker_0, # of connection points: 2
#     Edge 14, Type (0, 0), BuildingBlock: AJUNOK_clean_linker_0, # of connection points: 2
#     Edge 15, Type (0, 0), BuildingBlock: AJUNOK_clean_linker_0, # of connection points: 2
#     Edge 16, Type (0, 0), BuildingBlock: AJUNOK_clean_linker_0, # of connection points: 2
#     Edge 17, Type (0, 0), BuildingBlock: AJUNOK_clean_linker_0, # of connection points: 2
#     Edge 18, Type (0, 0), BuildingBlock: AJUNOK_clean_linker_0, # of connection points: 2
#     Edge 19, Type (0, 0), BuildingBlock: AJUNOK_clean_linker_0, # of connection points: 2
#     Edge 20, Type (0, 0), BuildingBlock: AJUNOK_clean_linker_0, # of connection points: 2
#     Edge 21, Type (0, 0), BuildingBlock: AJUNOK_clean_linker_0, # of connection points: 2
#     Edge 22, Type (0, 0), BuildingBlock: AJUNOK_clean_linker_0, # of connection points: 2
#     Edge 23, Type (0, 0), BuildingBlock: AJUNOK_clean_linker_0, # of connection points: 2
#     Edge 24, Type (0, 0), BuildingBlock: AJUNOK_clean_linker_0, # of connection points: 2
#     Edge 25, Type (0, 0), BuildingBlock: AJUNOK_clean_linker_0, # of connection points: 2
#     Edge 26, Type (0, 0), BuildingBlock: AJUNOK_clean_linker_0, # of connection points: 2
#     Edge 27, Type (0, 0), BuildingBlock: AJUNOK_clean_linker_0, # of connection points: 2
#     Edge 28, Type (0, 0), BuildingBlock: AJUNOK_clean_linker_0, # of connection points: 2
#     Edge 29, Type (0, 0), BuildingBlock: AJUNOK_clean_linker_0, # of connection points: 2
#     Edge 30, Type (0, 0), BuildingBlock: AJUNOK_clean_linker_0, # of connection points: 2
#     Edge 31, Type (0, 0), BuildingBlock: AJUNOK_clean_linker_0, # of connection points: 2
#     Edge 32, Type (0, 0), BuildingBlock: AJUNOK_clean_linker_0, # of connection points: 2
#     Edge 33, Type (0, 0), BuildingBlock: AJUNOK_clean_linker_0, # of connection points: 2
#     Edge 34, Type (0, 0), BuildingBlock: AJUNOK_clean_linker_0, # of connection points: 2
#     Edge 35, Type (0, 0), BuildingBlock: AJUNOK_clean_linker_0, # of connection points: 2
# Relax obj value: 0.077
# Max RMSD: 0.076
# Mean RMSD: 0.076
data_MOF--net-umy--node1-GALJAG_clean_sbu_0--edge1-AJUNOK_clean_linker_0
_symmetry_space_group_name_H-M    P1
_symmetry_Int_Tables_number       1
_symmetry_cell_setting            triclinic
loop_
_symmetry_equiv_pos_as_xyz
'x, y, z'
_cell_length_a     26.126781
_cell_length_b     26.165781
_cell_length_c     43.995905
_cell_angle_alpha  89.860682
_cell_angle_beta   90.01037
_cell_angle_gamma 119.93634
loop_
_atom_site_label
_atom_site_type_symbol
_atom_site_fract_x
_atom_site_fract_y
_atom_site_fract_z
_atom_type_partial_charge
In0 In 0.06115 0.33866 0.14864 0.0
O1 O 0.06654 0.29146 0.10534 0.0
O2 O 0.14523 0.36124 0.12418 0.0
C3 C 0.95674 0.26359 0.17474 0.0
C4 C 0.05124 0.42626 0.12246 0.0
C5 C 0.12126 0.346 0.19974 0.0
O6 O 0.98339 0.24538 0.15775 0.0
O7 O 0.98123 0.31894 0.1768 0.0
O8 O 0.11226 0.38722 0.19152 0.0
O9 O 0.10157 0.30295 0.1817 0.0
C10 C 0.12213 0.3235 0.10341 0.0
O11 O 0.09259 0.4357 0.14055 0.0
O12 O 0.01402 0.37255 0.11806 0.0
In13 In 0.71423 0.06873 0.31542 0.0
O14 O 0.64911 0.10029 0.3072 0.0
O15 O 0.63224 0.02053 0.28558 0.0
C16 C 0.76644 0.13113 0.36587 0.0
C17 C 0.78709 0.12437 0.26807 0.0
C18 C 0.68395 0.96573 0.34336 0.0
O19 O 0.71712 0.12304 0.35673 0.0
O20 O 0.79008 0.11001 0.34883 0.0
O21 O 0.7278 0.99017 0.32552 0.0
O22 O 0.65408 0.9914 0.34516 0.0
C23 C 0.61676 0.05875 0.28943 0.0
O24 O 0.7674 0.07006 0.27313 0.0
O25 O 0.77192 0.14968 0.28742 0.0
In26 In 0.64963 0.71696 0.47854 0.0
O27 O 0.56031 0.63268 0.47709 0.0
O28 O 0.61944 0.65043 0.44004 0.0
C29 C 0.63597 0.76406 0.5302 0.0
C30 C 0.65963 0.79363 0.43456 0.0
C31 C 0.73052 0.69302 0.50238 0.0
O32 O 0.59315 0.71977 0.51785 0.0
O33 O 0.68399 0.78533 0.51576 0.0
O34 O 0.74512 0.7387 0.4866 0.0
O35 O 0.67563 0.65802 0.50396 0.0
C36 C 0.56934 0.61664 0.45154 0.0
O37 O 0.69688 0.77652 0.43755 0.0
O38 O 0.61892 0.77316 0.45416 0.0
In39 In 0.93442 0.65777 0.64225 0.0
O40 O 0.92344 0.56595 0.64143 0.0
O41 O 0.97464 0.62634 0.60634 0.0
C42 C 0.86928 0.64718 0.69185 0.0
C43 C 0.87608 0.67094 0.59507 0.0
C44 C 0.03743 0.73545 0.66855 0.0
O45 O 0.87362 0.60432 0.68176 0.0
O46 O 0.89475 0.69333 0.6759 0.0
O47 O 0.00919 0.7518 0.65162 0.0
O48 O 0.01583 0.68038 0.67013 0.0
C49 C 0.95307 0.57504 0.61731 0.0
O50 O 0.92969 0.70761 0.60046 0.0
O51 O 0.85213 0.62896 0.6139 0.0
In52 In 0.2707 0.93199 0.81132 0.0
O53 O 0.21832 0.9294 0.76912 0.0
O54 O 0.21717 0.85068 0.78257 0.0
C55 C 0.29653 0.03589 0.83689 0.0
C56 C 0.37205 0.94819 0.78697 0.0
C57 C 0.21444 0.86524 0.86037 0.0
O58 O 0.25032 0.00618 0.82138 0.0
O59 O 0.33062 0.01485 0.83769 0.0
O60 O 0.26293 0.8713 0.85107 0.0
O61 O 0.19379 0.89031 0.84407 0.0
C62 C 0.20057 0.87571 0.76361 0.0
O63 O 0.35153 0.92056 0.81165 0.0
O64 O 0.34206 0.9686 0.77496 0.0
In65 In 0.33586 0.27142 0.97843 0.0
O66 O 0.43288 0.33473 0.97081 0.0
O67 O 0.37183 0.35379 0.94847 0.0
C68 C 0.34627 0.21886 0.02869 0.0
C69 C 0.31875 0.19935 0.93119 0.0
C70 C 0.2652 0.30184 0.00818 0.0
O71 O 0.38844 0.26666 0.01865 0.0
O72 O 0.30019 0.19655 0.01258 0.0
O73 O 0.24422 0.25848 0.99009 0.0
O74 O 0.32082 0.33196 0.00847 0.0
C75 C 0.4251 0.36767 0.95268 0.0
O76 O 0.28556 0.22113 0.93532 0.0
O77 O 0.35692 0.21144 0.95156 0.0
In78 In 0.64793 0.92652 0.69844 0.0
O79 O 0.69957 0.92098 0.73916 0.0
O80 O 0.62057 0.84359 0.72618 0.0
C81 C 0.72568 0.02985 0.67195 0.0
C82 C 0.56636 0.94516 0.72539 0.0
C83 C 0.63437 0.86061 0.64881 0.0
O84 O 0.74203 0.00199 0.68916 0.0
O85 O 0.67047 0.00755 0.67003 0.0
O86 O 0.59208 0.86513 0.65975 0.0
O87 O 0.68173 0.88685 0.66376 0.0
C88 C 0.66338 0.86724 0.7445 0.0
O89 O 0.55667 0.91754 0.70061 0.0
O90 O 0.61766 0.96482 0.73604 0.0
In91 In 0.7177 0.6466 0.86249 0.0
O92 O 0.76874 0.69499 0.90575 0.0
O93 O 0.77563 0.62215 0.88977 0.0
C94 C 0.69019 0.7232 0.83674 0.0
C95 C 0.61925 0.55754 0.88684 0.0
C96 C 0.77005 0.64078 0.81095 0.0
O97 O 0.73395 0.73998 0.85436 0.0
O98 O 0.65841 0.66797 0.83424 0.0
O99 O 0.72146 0.59816 0.81991 0.0
O100 O 0.79326 0.68406 0.82886 0.0
C101 C 0.7893 0.66083 0.90997 0.0
O102 O 0.6526 0.54952 0.86912 0.0
O103 O 0.63421 0.61087 0.8914 0.0
In104 In 0.05925 0.71546 0.03083 0.0
O105 O 0.05882 0.76559 0.07378 0.0
O106 O 0.14067 0.77787 0.05748 0.0
C107 C 0.95515 0.68635 1.00445 0.0
C108 C 0.05034 0.618 0.05655 0.0
C109 C 0.1174 0.76508 0.97882 0.0
O110 O 0.98235 0.73175 0.0209 0.0
O111 O 0.97866 0.65437 1.00324 0.0
O112 O 0.11311 0.71788 0.98899 0.0
O113 O 0.09571 0.78828 0.99572 0.0
C114 C 0.11403 0.78984 0.07762 0.0
O115 O 0.09346 0.65235 0.03998 0.0
O116 O 0.01077 0.63195 0.05956 0.0
In117 In 0.33175 0.05895 0.19835 0.0
O118 O 0.42908 0.09299 0.20504 0.0
O119 O 0.36916 0.01259 0.22736 0.0
C120 C 0.34431 0.12107 0.14735 0.0
C121 C 0.31683 0.11404 0.24642 0.0
C122 C 0.25434 0.95617 0.17189 0.0
O123 O 0.38406 0.11095 0.15672 0.0
O124 O 0.29946 0.10177 0.16429 0.0
O125 O 0.23755 0.98481 0.1882 0.0
O126 O 0.30957 0.97725 0.17112 0.0
C127 C 0.42217 0.05225 0.22291 0.0
O128 O 0.28361 0.05927 0.24231 0.0
O129 O 0.3541 0.14019 0.22565 0.0
In130 In 0.27341 0.33265 0.36785 0.0
O131 O 0.22071 0.28436 0.41039 0.0
O132 O 0.21675 0.35933 0.39495 0.0
C133 C 0.29895 0.25381 0.34298 0.0
C134 C 0.37548 0.41753 0.39139 0.0
C135 C 0.22066 0.34254 0.3174 0.0
O136 O 0.25244 0.23798 0.35824 0.0
O137 O 0.33385 0.30873 0.34239 0.0
O138 O 0.26364 0.38707 0.32946 0.0
O139 O 0.2028 0.29495 0.3318 0.0
C140 C 0.20112 0.31922 0.41471 0.0
O141 O 0.3553 0.42377 0.36641 0.0
O142 O 0.34477 0.36804 0.40413 0.0
In143 In 0.93307 0.27498 0.53435 0.0
O144 O 0.92754 0.35887 0.53321 0.0
O145 O 0.9683 0.34432 0.57165 0.0
C146 C 0.8684 0.22489 0.48413 0.0
C147 C 0.8725 0.20038 0.58023 0.0
C148 C 0.03685 0.29913 0.50899 0.0
O149 O 0.86805 0.26763 0.49723 0.0
O150 O 0.8989 0.20629 0.49721 0.0
O151 O 0.00675 0.25366 0.52506 0.0
O152 O 0.01667 0.33392 0.50788 0.0
C153 C 0.95239 0.37718 0.55864 0.0
O154 O 0.92706 0.21989 0.5762 0.0
O155 O 0.84886 0.21757 0.56077 0.0
C156 C 0.102 0.57106 0.08158 0.0
C157 C 0.04871 0.56789 0.07289 0.0
C158 C 0.1022 0.5255 0.09824 0.0
C159 C 0.04915 0.47444 0.10609 0.0
H160 H 0.14395 0.60955 0.07594 0.0
H161 H 0.14429 0.52985 0.10455 0.0
S162 S 0.89778 0.4441 0.08839 0.0
N163 N 0.94148 0.50992 0.07352 0.0
N164 N 0.94192 0.42305 0.10388 0.0
C165 C -0.00446 0.47031 0.09725 0.0
C166 C -0.0047 0.51742 0.08092 0.0
C167 C 0.51804 0.00336 0.26422 0.0
C168 C 0.5671 0.05738 0.27283 0.0
C169 C 0.47079 0.00173 0.24816 0.0
C170 C 0.47217 0.05411 0.2394 0.0
H171 H 0.51582 0.96214 0.27027 0.0
H172 H 0.43335 0.95932 0.24225 0.0
S173 S 0.59108 0.20677 0.256 0.0
N174 N 0.61417 0.16434 0.27147 0.0
N175 N 0.52645 0.16134 0.24059 0.0
C176 C 0.5213 0.10832 0.2476 0.0
C177 C 0.56854 0.10995 0.26452 0.0
C178 C 0.47873 0.51735 0.45243 0.0
C179 C 0.52338 0.56411 0.43564 0.0
C180 C 0.43231 0.4688 0.43783 0.0
C181 C 0.42816 0.46609 0.40594 0.0
H182 H 0.47935 0.51851 0.47705 0.0
H183 H 0.3983 0.43421 0.45166 0.0
S184 S 0.53471 0.57632 0.35158 0.0
N185 N 0.56186 0.60366 0.3854 0.0
N186 N 0.47351 0.51316 0.35798 0.0
C187 C 0.473 0.51203 0.38887 0.0
C188 C 0.52097 0.56086 0.40372 0.0
C189 C 0.95543 0.48101 0.61917 0.0
C190 C 0.95854 0.5279 0.60205 0.0
C191 C 0.95611 0.4335 0.60493 0.0
C192 C 0.95827 0.43059 0.57309 0.0
H193 H 0.95189 0.48075 0.64371 0.0
H194 H 0.95265 0.39776 0.61892 0.0
S195 S 0.96858 0.54292 0.51808 0.0
N196 N 0.9662 0.56968 0.55168 0.0
N197 N 0.96552 0.47936 0.5249 0.0
C198 C 0.96239 0.47763 0.55575 0.0
C199 C 0.96309 0.52663 0.57026 0.0
C200 C 0.47439 0.95178 0.72511 0.0
C201 C 0.51995 0.95074 0.74157 0.0
C202 C 0.42786 0.95339 0.74007 0.0
C203 C 0.42447 0.95228 0.772 0.0
H204 H 0.47452 0.95102 0.70049 0.0
H205 H 0.39323 0.95339 0.72652 0.0
S206 S 0.53316 0.95051 0.82552 0.0
N207 N 0.55987 0.95056 0.79149 0.0
N208 N 0.47121 0.95146 0.8196 0.0
C209 C 0.47004 0.95187 0.78872 0.0
C210 C 0.51817 0.95172 0.7735 0.0
C211 C 0.47275 0.4668 0.92754 0.0
C212 C 0.47454 0.41583 0.93592 0.0
C213 C 0.51991 0.51285 0.91166 0.0
C214 C 0.56928 0.50839 0.90283 0.0
H215 H 0.43519 0.47151 0.93374 0.0
H216 H 0.51748 0.55191 0.90602 0.0
S217 S 0.59409 0.38302 0.91844 0.0
N218 N 0.52932 0.36326 0.93399 0.0
N219 N 0.61686 0.44878 0.90341 0.0
C220 C 0.57097 0.45715 0.91062 0.0
C221 C 0.52383 0.4111 0.92738 0.0
C222 C 0.13212 0.28411 0.05283 0.0
C223 C 0.15845 0.31873 0.07882 0.0
C224 C 0.16676 0.28012 0.02945 0.0
C225 C 0.22888 0.31094 0.03115 0.0
H226 H 0.08451 0.25983 0.05057 0.0
H227 H 0.14471 0.2522 0.01009 0.0
S228 S 0.3193 0.40549 0.09514 0.0
N229 N 0.25047 0.38286 0.1052 0.0
N230 N 0.31501 0.37599 0.0615 0.0
C231 C 0.25557 0.34583 0.05702 0.0
C232 C 0.2205 0.3495 0.08078 0.0
C233 C 0.85557 0.13423 0.22536 0.0
C234 C 0.82494 0.15681 0.24171 0.0
C235 C 0.89573 0.16751 0.20221 0.0
C236 C 0.90636 0.22433 0.19459 0.0
H237 H 0.85027 0.09164 0.23126 0.0
H238 H 0.92062 0.14976 0.19126 0.0
S239 S 0.83045 0.29945 0.22731 0.0
N240 N 0.80311 0.2367 0.24623 0.0
N241 N 0.8781 0.29873 0.20294 0.0
C242 C 0.87318 0.24563 0.20948 0.0
C243 C 0.83263 0.21203 0.23299 0.0
C244 C 0.71029 0.85773 0.38925 0.0
C245 C 0.6629 0.83418 0.41001 0.0
C246 C 0.71537 0.89813 0.36669 0.0
C247 C 0.67323 0.91643 0.36403 0.0
H248 H 0.74441 0.84586 0.39079 0.0
H249 H 0.75367 0.91655 0.3519 0.0
S250 S 0.53821 0.86432 0.41123 0.0
N251 N 0.57117 0.82966 0.42525 0.0
N252 N 0.58058 0.90505 0.38298 0.0
C253 C 0.62444 0.89144 0.38391 0.0
C254 C 0.61936 0.85053 0.40686 0.0
C255 C 0.75077 0.63447 0.54023 0.0
C256 C 0.77234 0.68543 0.52207 0.0
C257 C 0.7853 0.62991 0.5632 0.0
C258 C 0.84298 0.67601 0.56897 0.0
H259 H 0.70591 0.59849 0.53751 0.0
H260 H 0.76589 0.59028 0.57702 0.0
S261 S 0.9225 0.81679 0.52608 0.0
N262 N 0.85667 0.78152 0.51003 0.0
N263 N 0.92186 0.7727 0.55318 0.0
C264 C 0.86637 0.72605 0.54999 0.0
C265 C 0.83101 0.73077 0.52653 0.0
C266 C 0.11337 0.75287 0.70756 0.0
C267 C 0.08556 0.77579 0.68912 0.0
C268 C 0.15138 0.78614 0.73107 0.0
C269 C 0.16332 0.84381 0.73714 0.0
H270 H 0.10418 0.70799 0.70455 0.0
H271 H 0.17052 0.7658 0.74503 0.0
S272 S 0.10524 0.92617 0.6941 0.0
N273 N 0.07517 0.8611 0.6774 0.0
N274 N 0.14709 0.9239 0.72161 0.0
C275 C 0.13802 0.86842 0.71803 0.0
C276 C 0.0991 0.83437 0.694 0.0
C277 C 0.25773 0.09335 0.8645 0.0
C278 C 0.30554 0.08513 0.8569 0.0
C279 C 0.26258 0.13211 0.88787 0.0
C280 C 0.31525 0.16347 0.90448 0.0
H281 H 0.21543 0.06762 0.85337 0.0
H282 H 0.22418 0.13554 0.89381 0.0
S283 S 0.45597 0.16468 0.8902 0.0
N284 N 0.40912 0.11691 0.86547 0.0
N285 N 0.41818 0.18915 0.90926 0.0
C286 C 0.36435 0.15839 0.89577 0.0
C287 C 0.35953 0.1194 0.87198 0.0
C288 C 0.63109 0.74084 0.79801 0.0
C289 C 0.68145 0.76383 0.81668 0.0
C290 C 0.62539 0.77509 0.77523 0.0
C291 C 0.6698 0.83383 0.77009 0.0
H292 H 0.59639 0.69531 0.80034 0.0
H293 H 0.5862 0.75474 0.76112 0.0
S294 S 0.80897 0.91644 0.81389 0.0
N295 N 0.77549 0.8501 0.82947 0.0
N296 N 0.76465 0.91465 0.78664 0.0
C297 C 0.71944 0.85827 0.78933 0.0
C298 C 0.72523 0.82326 0.81264 0.0
C299 C 0.85658 0.7173 0.95326 0.0
C300 C 0.82634 0.66486 0.93641 0.0
C301 C 0.89578 0.72296 0.97665 0.0
C302 C 0.90578 0.67624 0.98407 0.0
H303 H 0.85171 0.75496 0.9476 0.0
H304 H 0.92037 0.76509 0.988 0.0
S305 S 0.83059 0.52683 0.94983 0.0
N306 N 0.80426 0.56333 0.93099 0.0
N307 N 0.87742 0.5739 0.97481 0.0
C308 C 0.87305 0.62251 0.96859 0.0
C309 C 0.8335 0.61685 0.94478 0.0
C310 C 0.2389 0.88311 0.13168 0.0
C311 C 0.21448 0.90782 0.15122 0.0
C312 C 0.20556 0.84448 0.10842 0.0
C313 C 0.14614 0.82842 0.10371 0.0
H314 H 0.28491 0.89518 0.13364 0.0
H315 H 0.2271 0.82781 0.09367 0.0
S316 S 0.05953 0.87705 0.14994 0.0
N317 N 0.12602 0.91094 0.16535 0.0
N318 N 0.06301 0.83748 0.12166 0.0
C319 C 0.12017 0.85062 0.12385 0.0
C320 C 0.15439 0.89045 0.14759 0.0
C321 C 0.26165 0.12548 0.29018 0.0
C322 C 0.31434 0.14585 0.27362 0.0
C323 C 0.25787 0.15887 0.31416 0.0
C324 C 0.30682 0.21342 0.32248 0.0
H325 H 0.22245 0.08488 0.28373 0.0
H326 H 0.21554 0.14324 0.32518 0.0
S327 S 0.4575 0.2809 0.28953 0.0
N328 N 0.41828 0.22025 0.26956 0.0
N329 N 0.41129 0.28251 0.31456 0.0
C330 C 0.36073 0.23203 0.30742 0.0
C331 C 0.36445 0.19839 0.28298 0.0
C332 C 0.14967 0.35962 0.44568 0.0
C333 C 0.16333 0.31465 0.44088 0.0
C334 C 0.11156 0.35571 0.46904 0.0
C335 C 0.08518 0.30648 0.48854 0.0
H336 H 0.16764 0.39789 0.43089 0.0
H337 H 0.10108 0.39073 0.47104 0.0
S338 S 0.11002 0.17864 0.4872 0.0
N339 N 0.15053 0.22096 0.45884 0.0
N340 N 0.07828 0.21328 0.5027 0.0
C341 C 0.10041 0.26229 0.4849 0.0
C342 C 0.13956 0.26639 0.46107 0.0
C343 C 0.77818 0.14364 0.60898 0.0
C344 C 0.83812 0.16055 0.60562 0.0
C345 C 0.74317 0.10377 0.63158 0.0
C346 C 0.76651 0.07892 0.65181 0.0
H347 H 0.75755 0.16043 0.59362 0.0
H348 H 0.69687 0.09097 0.63252 0.0
S349 S 0.9221 0.11185 0.65419 0.0
N350 N 0.92037 0.15203 0.62562 0.0
N351 N 0.85436 0.07666 0.66812 0.0
C352 C 0.82699 0.09715 0.64954 0.0
C353 C 0.86282 0.13799 0.62644 0.0
C354 C 0.19607 0.3946 0.27692 0.0
C355 C 0.19652 0.34397 0.28727 0.0
C356 C 0.17222 0.39535 0.24838 0.0
C357 C 0.14918 0.34591 0.22906 0.0
H358 H 0.21318 0.43339 0.29118 0.0
H359 H 0.17151 0.43478 0.24152 0.0
S360 S 0.14574 0.20456 0.24473 0.0
N361 N 0.17533 0.2446 0.27546 0.0
N362 N 0.13167 0.24613 0.22188 0.0
C363 C 0.1513 0.29575 0.23891 0.0
C364 C 0.17466 0.29475 0.26801 0.0
C365 C 0.86023 0.17004 0.43673 0.0
C366 C 0.84044 0.20156 0.45433 0.0
C367 C 0.83695 0.14898 0.40789 0.0
C368 C 0.79225 0.15777 0.39561 0.0
H369 H 0.89463 0.16205 0.4451 0.0
H370 H 0.85362 0.12472 0.39536 0.0
S371 S 0.72475 0.23736 0.43254 0.0
N372 N 0.77388 0.24113 0.45741 0.0
N373 N 0.72891 0.2002 0.40325 0.0
C374 C 0.7718 0.18911 0.41295 0.0
C375 C 0.79623 0.21138 0.44229 0.0
C376 C 0.68477 0.84366 0.60536 0.0
C377 C 0.63166 0.83248 0.61923 0.0
C378 C 0.68527 0.82176 0.57651 0.0
C379 C 0.63263 0.787 0.56039 0.0
H380 H 0.72674 0.87056 0.61661 0.0
H381 H 0.7275 0.83192 0.56688 0.0
S382 S 0.48139 0.74347 0.58672 0.0
N383 N 0.5247 0.78386 0.61475 0.0
N384 N 0.52561 0.74141 0.56052 0.0
C385 C 0.57895 0.77448 0.57408 0.0
C386 C 0.57848 0.79758 0.60347 0.0
C387 C 0.80628 0.59187 0.73666 0.0
C388 C 0.84184 0.64575 0.72153 0.0
C389 C 0.78278 0.5903 0.7656 0.0
C390 C 0.79525 0.64262 0.78065 0.0
H391 H 0.7966 0.55064 0.72611 0.0
H392 H 0.75543 0.54794 0.77645 0.0
S393 S 0.88446 0.795 0.75061 0.0
N394 N 0.88687 0.75266 0.72357 0.0
N395 N 0.84374 0.74959 0.77794 0.0
C396 C 0.83039 0.69667 0.7657 0.0
C397 C 0.85338 0.69827 0.73613 0.0
C398 C 0.20893 0.80563 0.90639 0.0
C399 C 0.1867 0.8362 0.88956 0.0
C400 C 0.18586 0.78174 0.93516 0.0
C401 C 0.14078 0.78884 0.9483 0.0
H402 H 0.24476 0.80058 0.89742 0.0
H403 H 0.20432 0.7588 0.94747 0.0
S404 S 0.06438 0.86138 0.91298 0.0
N405 N 0.11439 0.86905 0.88769 0.0
N406 N 0.07226 0.82535 0.94175 0.0
C407 C 0.11739 0.81818 0.93151 0.0
C408 C 0.14001 0.84152 0.90213 0.0
C409 C 0.29421 0.13547 0.10288 0.0
C410 C 0.34708 0.14811 0.11749 0.0
C411 C 0.29462 0.15747 0.07384 0.0
C412 C 0.34796 0.19388 0.05852 0.0
H413 H 0.25197 0.10748 0.11374 0.0
H414 H 0.25271 0.14657 0.06354 0.0
S415 S 0.49862 0.24109 0.08709 0.0
N416 N 0.45431 0.19927 0.11457 0.0
N417 N 0.45514 0.24217 0.06014 0.0
C418 C 0.40126 0.20747 0.07295 0.0
C419 C 0.4008 0.18413 0.10239 0.0
loop_
_geom_bond_atom_site_label_1
_geom_bond_atom_site_label_2
_geom_bond_distance
_geom_bond_site_symmetry_2
_ccdc_geom_bond_type
In0 O1 2.294 . S
In0 O2 2.326 . S
In0 O6 2.266 1_455 S
In0 O7 2.326 1_455 S
In0 O8 2.266 . S
In0 O9 2.326 . S
In0 O11 2.294 . S
In0 O12 2.326 . S
O1 In0 2.294 . S
O1 C10 1.240 . S
O2 In0 2.326 . S
O2 C10 1.252 . S
C3 O6 1.252 . S
C3 O7 1.260 . S
C4 O11 1.240 . S
C4 O12 1.252 . S
C5 O8 1.252 . S
C5 O9 1.260 . S
O6 In0 2.266 1_655 S
O6 C3 1.252 . S
O7 In0 2.326 1_655 S
O7 C3 1.260 . S
O8 In0 2.266 . S
O8 C5 1.252 . S
O9 In0 2.326 . S
O9 C5 1.260 . S
C10 O1 1.240 . S
C10 O2 1.252 . S
O11 In0 2.294 . S
O11 C4 1.240 . S
O12 In0 2.326 . S
O12 C4 1.252 . S
In13 O14 2.294 . S
In13 O15 2.326 . S
In13 O19 2.266 . S
In13 O20 2.326 . S
In13 O21 2.266 1_545 S
In13 O22 2.326 1_545 S
In13 O24 2.294 . S
In13 O25 2.326 . S
O14 In13 2.294 . S
O14 C23 1.240 . S
O15 In13 2.326 . S
O15 C23 1.252 . S
C16 O19 1.252 . S
C16 O20 1.260 . S
C17 O24 1.240 . S
C17 O25 1.252 . S
C18 O21 1.252 . S
C18 O22 1.260 . S
O19 In13 2.266 . S
O19 C16 1.252 . S
O20 In13 2.326 . S
O20 C16 1.260 . S
O21 In13 2.266 1_565 S
O21 C18 1.252 . S
O22 In13 2.326 1_565 S
O22 C18 1.260 . S
C23 O14 1.240 . S
C23 O15 1.252 . S
O24 In13 2.294 . S
O24 C17 1.240 . S
O25 In13 2.326 . S
O25 C17 1.252 . S
In26 O27 2.294 . S
In26 O28 2.326 . S
In26 O32 2.266 . S
In26 O33 2.326 . S
In26 O34 2.266 . S
In26 O35 2.326 . S
In26 O37 2.294 . S
In26 O38 2.326 . S
O27 In26 2.294 . S
O27 C36 1.240 . S
O28 In26 2.326 . S
O28 C36 1.252 . S
C29 O32 1.252 . S
C29 O33 1.260 . S
C30 O37 1.240 . S
C30 O38 1.252 . S
C31 O34 1.252 . S
C31 O35 1.260 . S
O32 In26 2.266 . S
O32 C29 1.252 . S
O33 In26 2.326 . S
O33 C29 1.260 . S
O34 In26 2.266 . S
O34 C31 1.252 . S
O35 In26 2.326 . S
O35 C31 1.260 . S
C36 O27 1.240 . S
C36 O28 1.252 . S
O37 In26 2.294 . S
O37 C30 1.240 . S
O38 In26 2.326 . S
O38 C30 1.252 . S
In39 O40 2.294 . S
In39 O41 2.326 . S
In39 O45 2.266 . S
In39 O46 2.326 . S
In39 O47 2.266 1_655 S
In39 O48 2.326 1_655 S
In39 O50 2.294 . S
In39 O51 2.326 . S
O40 In39 2.294 . S
O40 C49 1.240 . S
O41 In39 2.326 . S
O41 C49 1.252 . S
C42 O45 1.252 . S
C42 O46 1.260 . S
C43 O50 1.240 . S
C43 O51 1.252 . S
C44 O47 1.252 . S
C44 O48 1.260 . S
O45 In39 2.266 . S
O45 C42 1.252 . S
O46 In39 2.326 . S
O46 C42 1.260 . S
O47 In39 2.266 1_455 S
O47 C44 1.252 . S
O48 In39 2.326 1_455 S
O48 C44 1.260 . S
C49 O40 1.240 . S
C49 O41 1.252 . S
O50 In39 2.294 . S
O50 C43 1.240 . S
O51 In39 2.326 . S
O51 C43 1.252 . S
In52 O53 2.294 . S
In52 O54 2.326 . S
In52 O58 2.266 1_565 S
In52 O59 2.326 1_565 S
In52 O60 2.266 . S
In52 O61 2.326 . S
In52 O63 2.294 . S
In52 O64 2.326 . S
O53 In52 2.294 . S
O53 C62 1.240 . S
O54 In52 2.326 . S
O54 C62 1.252 . S
C55 O58 1.252 . S
C55 O59 1.260 . S
C56 O63 1.240 . S
C56 O64 1.252 . S
C57 O60 1.252 . S
C57 O61 1.260 . S
O58 In52 2.266 1_545 S
O58 C55 1.252 . S
O59 In52 2.326 1_545 S
O59 C55 1.260 . S
O60 In52 2.266 . S
O60 C57 1.252 . S
O61 In52 2.326 . S
O61 C57 1.260 . S
C62 O53 1.240 . S
C62 O54 1.252 . S
O63 In52 2.294 . S
O63 C56 1.240 . S
O64 In52 2.326 . S
O64 C56 1.252 . S
In65 O66 2.294 . S
In65 O67 2.326 . S
In65 O71 2.266 1_556 S
In65 O72 2.326 1_556 S
In65 O73 2.266 . S
In65 O74 2.326 1_556 S
In65 O76 2.294 . S
In65 O77 2.326 . S
O66 In65 2.294 . S
O66 C75 1.240 . S
O67 In65 2.326 . S
O67 C75 1.252 . S
C68 O71 1.252 . S
C68 O72 1.260 . S
C69 O76 1.240 . S
C69 O77 1.252 . S
C70 O73 1.252 1_554 S
C70 O74 1.260 . S
O71 In65 2.266 1_554 S
O71 C68 1.252 . S
O72 In65 2.326 1_554 S
O72 C68 1.260 . S
O73 In65 2.266 . S
O73 C70 1.252 1_556 S
O74 In65 2.326 1_554 S
O74 C70 1.260 . S
C75 O66 1.240 . S
C75 O67 1.252 . S
O76 In65 2.294 . S
O76 C69 1.240 . S
O77 In65 2.326 . S
O77 C69 1.252 . S
In78 O79 2.294 . S
In78 O80 2.326 . S
In78 O84 2.266 1_565 S
In78 O85 2.326 1_565 S
In78 O86 2.266 . S
In78 O87 2.326 . S
In78 O89 2.294 . S
In78 O90 2.326 . S
O79 In78 2.294 . S
O79 C88 1.240 . S
O80 In78 2.326 . S
O80 C88 1.252 . S
C81 O84 1.252 . S
C81 O85 1.260 . S
C82 O89 1.240 . S
C82 O90 1.252 . S
C83 O86 1.252 . S
C83 O87 1.260 . S
O84 In78 2.266 1_545 S
O84 C81 1.252 . S
O85 In78 2.326 1_545 S
O85 C81 1.260 . S
O86 In78 2.266 . S
O86 C83 1.252 . S
O87 In78 2.326 . S
O87 C83 1.260 . S
C88 O79 1.240 . S
C88 O80 1.252 . S
O89 In78 2.294 . S
O89 C82 1.240 . S
O90 In78 2.326 . S
O90 C82 1.252 . S
In91 O92 2.294 . S
In91 O93 2.326 . S
In91 O97 2.266 . S
In91 O98 2.326 . S
In91 O99 2.266 . S
In91 O100 2.326 . S
In91 O102 2.294 . S
In91 O103 2.326 . S
O92 In91 2.294 . S
O92 C101 1.240 . S
O93 In91 2.326 . S
O93 C101 1.252 . S
C94 O97 1.252 . S
C94 O98 1.260 . S
C95 O102 1.240 . S
C95 O103 1.252 . S
C96 O99 1.252 . S
C96 O100 1.260 . S
O97 In91 2.266 . S
O97 C94 1.252 . S
O98 In91 2.326 . S
O98 C94 1.260 . S
O99 In91 2.266 . S
O99 C96 1.252 . S
O100 In91 2.326 . S
O100 C96 1.260 . S
C101 O92 1.240 . S
C101 O93 1.252 . S
O102 In91 2.294 . S
O102 C95 1.240 . S
O103 In91 2.326 . S
O103 C95 1.252 . S
In104 O105 2.294 . S
In104 O106 2.326 . S
In104 O110 2.266 1_455 S
In104 O111 2.326 1_454 S
In104 O112 2.266 1_554 S
In104 O113 2.326 1_554 S
In104 O115 2.294 . S
In104 O116 2.326 . S
O105 In104 2.294 . S
O105 C114 1.240 . S
O106 In104 2.326 . S
O106 C114 1.252 . S
C107 O110 1.252 1_556 S
C107 O111 1.260 . S
C108 O115 1.240 . S
C108 O116 1.252 . S
C109 O112 1.252 . S
C109 O113 1.260 . S
O110 In104 2.266 1_655 S
O110 C107 1.252 1_554 S
O111 In104 2.326 1_656 S
O111 C107 1.260 . S
O112 In104 2.266 1_556 S
O112 C109 1.252 . S
O113 In104 2.326 1_556 S
O113 C109 1.260 . S
C114 O105 1.240 . S
C114 O106 1.252 . S
O115 In104 2.294 . S
O115 C108 1.240 . S
O116 In104 2.326 . S
O116 C108 1.252 . S
In117 O118 2.294 . S
In117 O119 2.326 . S
In117 O123 2.266 . S
In117 O124 2.326 . S
In117 O125 2.266 1_545 S
In117 O126 2.326 1_545 S
In117 O128 2.294 . S
In117 O129 2.326 . S
O118 In117 2.294 . S
O118 C127 1.240 . S
O119 In117 2.326 . S
O119 C127 1.252 . S
C120 O123 1.252 . S
C120 O124 1.260 . S
C121 O128 1.240 . S
C121 O129 1.252 . S
C122 O125 1.252 . S
C122 O126 1.260 . S
O123 In117 2.266 . S
O123 C120 1.252 . S
O124 In117 2.326 . S
O124 C120 1.260 . S
O125 In117 2.266 1_565 S
O125 C122 1.252 . S
O126 In117 2.326 1_565 S
O126 C122 1.260 . S
C127 O118 1.240 . S
C127 O119 1.252 . S
O128 In117 2.294 . S
O128 C121 1.240 . S
O129 In117 2.326 . S
O129 C121 1.252 . S
In130 O131 2.294 . S
In130 O132 2.326 . S
In130 O136 2.266 . S
In130 O137 2.326 . S
In130 O138 2.266 . S
In130 O139 2.326 . S
In130 O141 2.294 . S
In130 O142 2.326 . S
O131 In130 2.294 . S
O131 C140 1.240 . S
O132 In130 2.326 . S
O132 C140 1.252 . S
C133 O136 1.252 . S
C133 O137 1.260 . S
C134 O141 1.240 . S
C134 O142 1.252 . S
C135 O138 1.252 . S
C135 O139 1.260 . S
O136 In130 2.266 . S
O136 C133 1.252 . S
O137 In130 2.326 . S
O137 C133 1.260 . S
O138 In130 2.266 . S
O138 C135 1.252 . S
O139 In130 2.326 . S
O139 C135 1.260 . S
C140 O131 1.240 . S
C140 O132 1.252 . S
O141 In130 2.294 . S
O141 C134 1.240 . S
O142 In130 2.326 . S
O142 C134 1.252 . S
In143 O144 2.294 . S
In143 O145 2.326 . S
In143 O149 2.266 . S
In143 O150 2.326 . S
In143 O151 2.266 1_655 S
In143 O152 2.326 1_655 S
In143 O154 2.294 . S
In143 O155 2.326 . S
O144 In143 2.294 . S
O144 C153 1.240 . S
O145 In143 2.326 . S
O145 C153 1.252 . S
C146 O149 1.252 . S
C146 O150 1.260 . S
C147 O154 1.240 . S
C147 O155 1.252 . S
C148 O151 1.252 . S
C148 O152 1.260 . S
O149 In143 2.266 . S
O149 C146 1.252 . S
O150 In143 2.326 . S
O150 C146 1.260 . S
O151 In143 2.266 1_455 S
O151 C148 1.252 . S
O152 In143 2.326 1_455 S
O152 C148 1.260 . S
C153 O144 1.240 . S
C153 O145 1.252 . S
O154 In143 2.294 . S
O154 C147 1.240 . S
O155 In143 2.326 . S
O155 C147 1.252 . S
C156 C157 1.369 . S
C156 C158 1.419 . S
C156 H160 0.930 . S
C157 C156 1.369 . S
C157 C166 1.429 1_455 S
C158 C156 1.419 . S
C158 C159 1.363 . S
C158 H161 0.929 . S
C159 C158 1.363 . S
C159 C165 1.428 1_455 S
H160 C156 0.930 . S
H161 C158 0.929 . S
S162 N163 1.613 . S
S162 N164 1.610 . S
N163 S162 1.613 . S
N163 C166 1.350 . S
N164 S162 1.610 . S
N164 C165 1.351 . S
C165 C159 1.428 1_655 S
C165 N164 1.351 . S
C165 C166 1.434 . S
C166 C157 1.429 1_655 S
C166 N163 1.350 . S
C166 C165 1.434 . S
C167 C168 1.369 1_565 S
C167 C169 1.419 . S
C167 H171 0.930 . S
C168 C167 1.369 1_545 S
C168 C177 1.429 . S
C169 C167 1.419 . S
C169 C170 1.363 1_565 S
C169 H172 0.929 . S
C170 C169 1.363 1_545 S
C170 C176 1.428 . S
H171 C167 0.930 . S
H172 C169 0.929 . S
S173 N174 1.613 . S
S173 N175 1.610 . S
N174 S173 1.613 . S
N174 C177 1.350 . S
N175 S173 1.610 . S
N175 C176 1.351 . S
C176 C170 1.428 . S
C176 N175 1.351 . S
C176 C177 1.434 . S
C177 C168 1.429 . S
C177 N174 1.350 . S
C177 C176 1.434 . S
C178 C179 1.369 . S
C178 C180 1.419 . S
C178 H182 0.930 . S
C179 C178 1.369 . S
C179 C188 1.429 . S
C180 C178 1.419 . S
C180 C181 1.363 . S
C180 H183 0.929 . S
C181 C180 1.363 . S
C181 C187 1.428 . S
H182 C178 0.930 . S
H183 C180 0.929 . S
S184 N185 1.613 . S
S184 N186 1.610 . S
N185 S184 1.613 . S
N185 C188 1.350 . S
N186 S184 1.610 . S
N186 C187 1.351 . S
C187 C181 1.428 . S
C187 N186 1.351 . S
C187 C188 1.434 . S
C188 C179 1.429 . S
C188 N185 1.350 . S
C188 C187 1.434 . S
C189 C190 1.369 . S
C189 C191 1.419 . S
C189 H193 0.930 . S
C190 C189 1.369 . S
C190 C199 1.429 . S
C191 C189 1.419 . S
C191 C192 1.363 . S
C191 H194 0.929 . S
C192 C191 1.363 . S
C192 C198 1.428 . S
H193 C189 0.930 . S
H194 C191 0.929 . S
S195 N196 1.613 . S
S195 N197 1.610 . S
N196 S195 1.613 . S
N196 C199 1.350 . S
N197 S195 1.610 . S
N197 C198 1.351 . S
C198 C192 1.428 . S
C198 N197 1.351 . S
C198 C199 1.434 . S
C199 C190 1.429 . S
C199 N196 1.350 . S
C199 C198 1.434 . S
C200 C201 1.369 . S
C200 C202 1.419 . S
C200 H204 0.930 . S
C201 C200 1.369 . S
C201 C210 1.429 . S
C202 C200 1.419 . S
C202 C203 1.363 . S
C202 H205 0.929 . S
C203 C202 1.363 . S
C203 C209 1.428 . S
H204 C200 0.930 . S
H205 C202 0.929 . S
S206 N207 1.613 . S
S206 N208 1.610 . S
N207 S206 1.613 . S
N207 C210 1.350 . S
N208 S206 1.610 . S
N208 C209 1.351 . S
C209 C203 1.428 . S
C209 N208 1.351 . S
C209 C210 1.434 . S
C210 C201 1.429 . S
C210 N207 1.350 . S
C210 C209 1.434 . S
C211 C212 1.369 . S
C211 C213 1.419 . S
C211 H215 0.930 . S
C212 C211 1.369 . S
C212 C221 1.429 . S
C213 C211 1.419 . S
C213 C214 1.363 . S
C213 H216 0.929 . S
C214 C213 1.363 . S
C214 C220 1.428 . S
H215 C211 0.930 . S
H216 C213 0.929 . S
S217 N218 1.613 . S
S217 N219 1.610 . S
N218 S217 1.613 . S
N218 C221 1.350 . S
N219 S217 1.610 . S
N219 C220 1.351 . S
C220 C214 1.428 . S
C220 N219 1.351 . S
C220 C221 1.434 . S
C221 C212 1.429 . S
C221 N218 1.350 . S
C221 C220 1.434 . S
C222 C223 1.369 . S
C222 C224 1.419 . S
C222 H226 0.930 . S
C223 C222 1.369 . S
C223 C232 1.429 . S
C224 C222 1.419 . S
C224 C225 1.363 . S
C224 H227 0.929 . S
C225 C224 1.363 . S
C225 C231 1.428 . S
H226 C222 0.930 . S
H227 C224 0.929 . S
S228 N229 1.613 . S
S228 N230 1.610 . S
N229 S228 1.613 . S
N229 C232 1.350 . S
N230 S228 1.610 . S
N230 C231 1.351 . S
C231 C225 1.428 . S
C231 N230 1.351 . S
C231 C232 1.434 . S
C232 C223 1.429 . S
C232 N229 1.350 . S
C232 C231 1.434 . S
C233 C234 1.369 . S
C233 C235 1.419 . S
C233 H237 0.930 . S
C234 C233 1.369 . S
C234 C243 1.429 . S
C235 C233 1.419 . S
C235 C236 1.363 . S
C235 H238 0.929 . S
C236 C235 1.363 . S
C236 C242 1.428 . S
H237 C233 0.930 . S
H238 C235 0.929 . S
S239 N240 1.613 . S
S239 N241 1.610 . S
N240 S239 1.613 . S
N240 C243 1.350 . S
N241 S239 1.610 . S
N241 C242 1.351 . S
C242 C236 1.428 . S
C242 N241 1.351 . S
C242 C243 1.434 . S
C243 C234 1.429 . S
C243 N240 1.350 . S
C243 C242 1.434 . S
C244 C245 1.369 . S
C244 C246 1.419 . S
C244 H248 0.930 . S
C245 C244 1.369 . S
C245 C254 1.429 . S
C246 C244 1.419 . S
C246 C247 1.363 . S
C246 H249 0.929 . S
C247 C246 1.363 . S
C247 C253 1.428 . S
H248 C244 0.930 . S
H249 C246 0.929 . S
S250 N251 1.613 . S
S250 N252 1.610 . S
N251 S250 1.613 . S
N251 C254 1.350 . S
N252 S250 1.610 . S
N252 C253 1.351 . S
C253 C247 1.428 . S
C253 N252 1.351 . S
C253 C254 1.434 . S
C254 C245 1.429 . S
C254 N251 1.350 . S
C254 C253 1.434 . S
C255 C256 1.369 . S
C255 C257 1.419 . S
C255 H259 0.930 . S
C256 C255 1.369 . S
C256 C265 1.429 . S
C257 C255 1.419 . S
C257 C258 1.363 . S
C257 H260 0.929 . S
C258 C257 1.363 . S
C258 C264 1.428 . S
H259 C255 0.930 . S
H260 C257 0.929 . S
S261 N262 1.613 . S
S261 N263 1.610 . S
N262 S261 1.613 . S
N262 C265 1.350 . S
N263 S261 1.610 . S
N263 C264 1.351 . S
C264 C258 1.428 . S
C264 N263 1.351 . S
C264 C265 1.434 . S
C265 C256 1.429 . S
C265 N262 1.350 . S
C265 C264 1.434 . S
C266 C267 1.369 . S
C266 C268 1.419 . S
C266 H270 0.930 . S
C267 C266 1.369 . S
C267 C276 1.429 . S
C268 C266 1.419 . S
C268 C269 1.363 . S
C268 H271 0.929 . S
C269 C268 1.363 . S
C269 C275 1.428 . S
H270 C266 0.930 . S
H271 C268 0.929 . S
S272 N273 1.613 . S
S272 N274 1.610 . S
N273 S272 1.613 . S
N273 C276 1.350 . S
N274 S272 1.610 . S
N274 C275 1.351 . S
C275 C269 1.428 . S
C275 N274 1.351 . S
C275 C276 1.434 . S
C276 C267 1.429 . S
C276 N273 1.350 . S
C276 C275 1.434 . S
C277 C278 1.369 . S
C277 C279 1.419 . S
C277 H281 0.930 . S
C278 C277 1.369 . S
C278 C287 1.429 . S
C279 C277 1.419 . S
C279 C280 1.363 . S
C279 H282 0.929 . S
C280 C279 1.363 . S
C280 C286 1.428 . S
H281 C277 0.930 . S
H282 C279 0.929 . S
S283 N284 1.613 . S
S283 N285 1.610 . S
N284 S283 1.613 . S
N284 C287 1.350 . S
N285 S283 1.610 . S
N285 C286 1.351 . S
C286 C280 1.428 . S
C286 N285 1.351 . S
C286 C287 1.434 . S
C287 C278 1.429 . S
C287 N284 1.350 . S
C287 C286 1.434 . S
C288 C289 1.369 . S
C288 C290 1.419 . S
C288 H292 0.930 . S
C289 C288 1.369 . S
C289 C298 1.429 . S
C290 C288 1.419 . S
C290 C291 1.363 . S
C290 H293 0.929 . S
C291 C290 1.363 . S
C291 C297 1.428 . S
H292 C288 0.930 . S
H293 C290 0.929 . S
S294 N295 1.613 . S
S294 N296 1.610 . S
N295 S294 1.613 . S
N295 C298 1.350 . S
N296 S294 1.610 . S
N296 C297 1.351 . S
C297 C291 1.428 . S
C297 N296 1.351 . S
C297 C298 1.434 . S
C298 C289 1.429 . S
C298 N295 1.350 . S
C298 C297 1.434 . S
C299 C300 1.369 . S
C299 C301 1.419 . S
C299 H303 0.930 . S
C300 C299 1.369 . S
C300 C309 1.429 . S
C301 C299 1.419 . S
C301 C302 1.363 . S
C301 H304 0.929 . S
C302 C301 1.363 . S
C302 C308 1.428 . S
H303 C299 0.930 . S
H304 C301 0.929 . S
S305 N306 1.613 . S
S305 N307 1.610 . S
N306 S305 1.613 . S
N306 C309 1.350 . S
N307 S305 1.610 . S
N307 C308 1.351 . S
C308 C302 1.428 . S
C308 N307 1.351 . S
C308 C309 1.434 . S
C309 C300 1.429 . S
C309 N306 1.350 . S
C309 C308 1.434 . S
C310 C311 1.369 . S
C310 C312 1.419 . S
C310 H314 0.930 . S
C311 C310 1.369 . S
C311 C320 1.429 . S
C312 C310 1.419 . S
C312 C313 1.363 . S
C312 H315 0.929 . S
C313 C312 1.363 . S
C313 C319 1.428 . S
H314 C310 0.930 . S
H315 C312 0.929 . S
S316 N317 1.613 . S
S316 N318 1.610 . S
N317 S316 1.613 . S
N317 C320 1.350 . S
N318 S316 1.610 . S
N318 C319 1.351 . S
C319 C313 1.428 . S
C319 N318 1.351 . S
C319 C320 1.434 . S
C320 C311 1.429 . S
C320 N317 1.350 . S
C320 C319 1.434 . S
C321 C322 1.369 . S
C321 C323 1.419 . S
C321 H325 0.930 . S
C322 C321 1.369 . S
C322 C331 1.429 . S
C323 C321 1.419 . S
C323 C324 1.363 . S
C323 H326 0.929 . S
C324 C323 1.363 . S
C324 C330 1.428 . S
H325 C321 0.930 . S
H326 C323 0.929 . S
S327 N328 1.613 . S
S327 N329 1.610 . S
N328 S327 1.613 . S
N328 C331 1.350 . S
N329 S327 1.610 . S
N329 C330 1.351 . S
C330 C324 1.428 . S
C330 N329 1.351 . S
C330 C331 1.434 . S
C331 C322 1.429 . S
C331 N328 1.350 . S
C331 C330 1.434 . S
C332 C333 1.369 . S
C332 C334 1.419 . S
C332 H336 0.930 . S
C333 C332 1.369 . S
C333 C342 1.429 . S
C334 C332 1.419 . S
C334 C335 1.363 . S
C334 H337 0.929 . S
C335 C334 1.363 . S
C335 C341 1.428 . S
H336 C332 0.930 . S
H337 C334 0.929 . S
S338 N339 1.613 . S
S338 N340 1.610 . S
N339 S338 1.613 . S
N339 C342 1.350 . S
N340 S338 1.610 . S
N340 C341 1.351 . S
C341 C335 1.428 . S
C341 N340 1.351 . S
C341 C342 1.434 . S
C342 C333 1.429 . S
C342 N339 1.350 . S
C342 C341 1.434 . S
C343 C344 1.369 . S
C343 C345 1.419 . S
C343 H347 0.930 . S
C344 C343 1.369 . S
C344 C353 1.429 . S
C345 C343 1.419 . S
C345 C346 1.363 . S
C345 H348 0.929 . S
C346 C345 1.363 . S
C346 C352 1.428 . S
H347 C343 0.930 . S
H348 C345 0.929 . S
S349 N350 1.613 . S
S349 N351 1.610 . S
N350 S349 1.613 . S
N350 C353 1.350 . S
N351 S349 1.610 . S
N351 C352 1.351 . S
C352 C346 1.428 . S
C352 N351 1.351 . S
C352 C353 1.434 . S
C353 C344 1.429 . S
C353 N350 1.350 . S
C353 C352 1.434 . S
C354 C355 1.369 . S
C354 C356 1.419 . S
C354 H358 0.930 . S
C355 C354 1.369 . S
C355 C364 1.429 . S
C356 C354 1.419 . S
C356 C357 1.363 . S
C356 H359 0.929 . S
C357 C356 1.363 . S
C357 C363 1.428 . S
H358 C354 0.930 . S
H359 C356 0.929 . S
S360 N361 1.613 . S
S360 N362 1.610 . S
N361 S360 1.613 . S
N361 C364 1.350 . S
N362 S360 1.610 . S
N362 C363 1.351 . S
C363 C357 1.428 . S
C363 N362 1.351 . S
C363 C364 1.434 . S
C364 C355 1.429 . S
C364 N361 1.350 . S
C364 C363 1.434 . S
C365 C366 1.369 . S
C365 C367 1.419 . S
C365 H369 0.930 . S
C366 C365 1.369 . S
C366 C375 1.429 . S
C367 C365 1.419 . S
C367 C368 1.363 . S
C367 H370 0.929 . S
C368 C367 1.363 . S
C368 C374 1.428 . S
H369 C365 0.930 . S
H370 C367 0.929 . S
S371 N372 1.613 . S
S371 N373 1.610 . S
N372 S371 1.613 . S
N372 C375 1.350 . S
N373 S371 1.610 . S
N373 C374 1.351 . S
C374 C368 1.428 . S
C374 N373 1.351 . S
C374 C375 1.434 . S
C375 C366 1.429 . S
C375 N372 1.350 . S
C375 C374 1.434 . S
C376 C377 1.369 . S
C376 C378 1.419 . S
C376 H380 0.930 . S
C377 C376 1.369 . S
C377 C386 1.429 . S
C378 C376 1.419 . S
C378 C379 1.363 . S
C378 H381 0.929 . S
C379 C378 1.363 . S
C379 C385 1.428 . S
H380 C376 0.930 . S
H381 C378 0.929 . S
S382 N383 1.613 . S
S382 N384 1.610 . S
N383 S382 1.613 . S
N383 C386 1.350 . S
N384 S382 1.610 . S
N384 C385 1.351 . S
C385 C379 1.428 . S
C385 N384 1.351 . S
C385 C386 1.434 . S
C386 C377 1.429 . S
C386 N383 1.350 . S
C386 C385 1.434 . S
C387 C388 1.369 . S
C387 C389 1.419 . S
C387 H391 0.930 . S
C388 C387 1.369 . S
C388 C397 1.429 . S
C389 C387 1.419 . S
C389 C390 1.363 . S
C389 H392 0.929 . S
C390 C389 1.363 . S
C390 C396 1.428 . S
H391 C387 0.930 . S
H392 C389 0.929 . S
S393 N394 1.613 . S
S393 N395 1.610 . S
N394 S393 1.613 . S
N394 C397 1.350 . S
N395 S393 1.610 . S
N395 C396 1.351 . S
C396 C390 1.428 . S
C396 N395 1.351 . S
C396 C397 1.434 . S
C397 C388 1.429 . S
C397 N394 1.350 . S
C397 C396 1.434 . S
C398 C399 1.369 . S
C398 C400 1.419 . S
C398 H402 0.930 . S
C399 C398 1.369 . S
C399 C408 1.429 . S
C400 C398 1.419 . S
C400 C401 1.363 . S
C400 H403 0.929 . S
C401 C400 1.363 . S
C401 C407 1.428 . S
H402 C398 0.930 . S
H403 C400 0.929 . S
S404 N405 1.613 . S
S404 N406 1.610 . S
N405 S404 1.613 . S
N405 C408 1.350 . S
N406 S404 1.610 . S
N406 C407 1.351 . S
C407 C401 1.428 . S
C407 N406 1.351 . S
C407 C408 1.434 . S
C408 C399 1.429 . S
C408 N405 1.350 . S
C408 C407 1.434 . S
C409 C410 1.369 . S
C409 C411 1.419 . S
C409 H413 0.930 . S
C410 C409 1.369 . S
C410 C419 1.429 . S
C411 C409 1.419 . S
C411 C412 1.363 . S
C411 H414 0.929 . S
C412 C411 1.363 . S
C412 C418 1.428 . S
H413 C409 0.930 . S
H414 C411 0.929 . S
S415 N416 1.613 . S
S415 N417 1.610 . S
N416 S415 1.613 . S
N416 C419 1.350 . S
N417 S415 1.610 . S
N417 C418 1.351 . S
C418 C412 1.428 . S
C418 N417 1.351 . S
C418 C419 1.434 . S
C419 C410 1.429 . S
C419 N416 1.350 . S
C419 C418 1.434 . S
C157 C108 1.394 . S
C159 C4 1.392 . S
C168 C23 1.391 . S
C170 C127 1.391 . S
C179 C36 1.393 . S
C181 C134 1.391 . S
C190 C49 1.392 . S
C192 C153 1.391 . S
C201 C82 1.392 . S
C203 C56 1.391 . S
C212 C75 1.390 . S
C214 C95 1.391 . S
C223 C10 1.556 . S
C225 C70 1.534 . S
C234 C17 1.555 . S
C236 C3 1.537 . S
C245 C30 1.555 . S
C247 C18 1.535 . S
C256 C31 1.536 . S
C258 C43 1.557 . S
C267 C44 1.537 . S
C269 C62 1.557 . S
C278 C55 1.534 . S
C280 C69 1.555 . S
C289 C94 1.539 . S
C291 C88 1.556 . S
C300 C101 1.555 . S
C302 C107 1.537 . S
C311 C122 1.538 . S
C313 C114 1.557 . S
C322 C121 1.555 . S
C324 C133 1.538 . S
C333 C140 1.557 . S
C335 C148 1.536 . S
C344 C147 1.557 . S
C346 C81 1.538 . S
C355 C135 1.351 . S
C357 C5 1.352 . S
C366 C146 1.352 . S
C368 C16 1.351 . S
C377 C83 1.352 . S
C379 C29 1.352 . S
C388 C42 1.351 . S
C390 C96 1.351 . S
C399 C57 1.351 . S
C401 C109 1.351 . S
C410 C120 1.352 . S
C412 C68 1.352 . S
