# Generated by pormake.
# Topology fcj, (5)-cn, num edge types: 1
# Building blocks:
#     Node 0, Type 0, BuildingBlock: XOMCOT_clean_sbu_1, # of connection points: 5
#     Node 1, Type 0, BuildingBlock: XOMCOT_clean_sbu_1, # of connection points: 5
#     Node 2, Type 0, BuildingBlock: XOMCOT_clean_sbu_1, # of connection points: 5
#     Node 3, Type 0, BuildingBlock: XOMCOT_clean_sbu_1, # of connection points: 5
#     Node 4, Type 0, BuildingBlock: XOMCOT_clean_sbu_1, # of connection points: 5
#     Node 5, Type 0, BuildingBlock: XOMCOT_clean_sbu_1, # of connection points: 5
#     Node 6, Type 0, BuildingBlock: XOMCOT_clean_sbu_1, # of connection points: 5
#     Node 7, Type 0, BuildingBlock: XOMCOT_clean_sbu_1, # of connection points: 5
#     Node 8, Type 0, BuildingBlock: XOMCOT_clean_sbu_1, # of connection points: 5
#     Node 9, Type 0, BuildingBlock: XOMCOT_clean_sbu_1, # of connection points: 5
#     Node 10, Type 0, BuildingBlock: XOMCOT_clean_sbu_1, # of connection points: 5
#     Node 11, Type 0, BuildingBlock: XOMCOT_clean_sbu_1, # of connection points: 5
#     Node 12, Type 0, BuildingBlock: XOMCOT_clean_sbu_1, # of connection points: 5
#     Node 13, Type 0, BuildingBlock: XOMCOT_clean_sbu_1, # of connection points: 5
#     Node 14, Type 0, BuildingBlock: XOMCOT_clean_sbu_1, # of connection points: 5
#     Node 15, Type 0, BuildingBlock: XOMCOT_clean_sbu_1, # of connection points: 5
#     Node 16, Type 0, BuildingBlock: XOMCOT_clean_sbu_1, # of connection points: 5
#     Node 17, Type 0, BuildingBlock: XOMCOT_clean_sbu_1, # of connection points: 5
#     Node 18, Type 0, BuildingBlock: XOMCOT_clean_sbu_1, # of connection points: 5
#     Node 19, Type 0, BuildingBlock: XOMCOT_clean_sbu_1, # of connection points: 5
#     Node 20, Type 0, BuildingBlock: XOMCOT_clean_sbu_1, # of connection points: 5
#     Node 21, Type 0, BuildingBlock: XOMCOT_clean_sbu_1, # of connection points: 5
#     Node 22, Type 0, BuildingBlock: XOMCOT_clean_sbu_1, # of connection points: 5
#     Node 23, Type 0, BuildingBlock: XOMCOT_clean_sbu_1, # of connection points: 5
#     Edge 24, Type (0, 0), BuildingBlock: AJUNOK_clean_linker_0, # of connection points: 2
#     Edge 25, Type (0, 0), BuildingBlock: AJUNOK_clean_linker_0, # of connection points: 2
#     Edge 26, Type (0, 0), BuildingBlock: AJUNOK_clean_linker_0, # of connection points: 2
#     Edge 27, Type (0, 0), BuildingBlock: AJUNOK_clean_linker_0, # of connection points: 2
#     Edge 28, Type (0, 0), BuildingBlock: AJUNOK_clean_linker_0, # of connection points: 2
#     Edge 29, Type (0, 0), BuildingBlock: AJUNOK_clean_linker_0, # of connection points: 2
#     Edge 30, Type (0, 0), BuildingBlock: AJUNOK_clean_linker_0, # of connection points: 2
#     Edge 31, Type (0, 0), BuildingBlock: AJUNOK_clean_linker_0, # of connection points: 2
#     Edge 32, Type (0, 0), BuildingBlock: AJUNOK_clean_linker_0, # of connection points: 2
#     Edge 33, Type (0, 0), BuildingBlock: AJUNOK_clean_linker_0, # of connection points: 2
#     Edge 34, Type (0, 0), BuildingBlock: AJUNOK_clean_linker_0, # of connection points: 2
#     Edge 35, Type (0, 0), BuildingBlock: AJUNOK_clean_linker_0, # of connection points: 2
#     Edge 36, Type (0, 0), BuildingBlock: AJUNOK_clean_linker_0, # of connection points: 2
#     Edge 37, Type (0, 0), BuildingBlock: AJUNOK_clean_linker_0, # of connection points: 2
#     Edge 38, Type (0, 0), BuildingBlock: AJUNOK_clean_linker_0, # of connection points: 2
#     Edge 39, Type (0, 0), BuildingBlock: AJUNOK_clean_linker_0, # of connection points: 2
#     Edge 40, Type (0, 0), BuildingBlock: AJUNOK_clean_linker_0, # of connection points: 2
#     Edge 41, Type (0, 0), BuildingBlock: AJUNOK_clean_linker_0, # of connection points: 2
#     Edge 42, Type (0, 0), BuildingBlock: AJUNOK_clean_linker_0, # of connection points: 2
#     Edge 43, Type (0, 0), BuildingBlock: AJUNOK_clean_linker_0, # of connection points: 2
#     Edge 44, Type (0, 0), BuildingBlock: AJUNOK_clean_linker_0, # of connection points: 2
#     Edge 45, Type (0, 0), BuildingBlock: AJUNOK_clean_linker_0, # of connection points: 2
#     Edge 46, Type (0, 0), BuildingBlock: AJUNOK_clean_linker_0, # of connection points: 2
#     Edge 47, Type (0, 0), BuildingBlock: AJUNOK_clean_linker_0, # of connection points: 2
#     Edge 48, Type (0, 0), BuildingBlock: AJUNOK_clean_linker_0, # of connection points: 2
#     Edge 49, Type (0, 0), BuildingBlock: AJUNOK_clean_linker_0, # of connection points: 2
#     Edge 50, Type (0, 0), BuildingBlock: AJUNOK_clean_linker_0, # of connection points: 2
#     Edge 51, Type (0, 0), BuildingBlock: AJUNOK_clean_linker_0, # of connection points: 2
#     Edge 52, Type (0, 0), BuildingBlock: AJUNOK_clean_linker_0, # of connection points: 2
#     Edge 53, Type (0, 0), BuildingBlock: AJUNOK_clean_linker_0, # of connection points: 2
#     Edge 54, Type (0, 0), BuildingBlock: AJUNOK_clean_linker_0, # of connection points: 2
#     Edge 55, Type (0, 0), BuildingBlock: AJUNOK_clean_linker_0, # of connection points: 2
#     Edge 56, Type (0, 0), BuildingBlock: AJUNOK_clean_linker_0, # of connection points: 2
#     Edge 57, Type (0, 0), BuildingBlock: AJUNOK_clean_linker_0, # of connection points: 2
#     Edge 58, Type (0, 0), BuildingBlock: AJUNOK_clean_linker_0, # of connection points: 2
#     Edge 59, Type (0, 0), BuildingBlock: AJUNOK_clean_linker_0, # of connection points: 2
#     Edge 60, Type (0, 0), BuildingBlock: AJUNOK_clean_linker_0, # of connection points: 2
#     Edge 61, Type (0, 0), BuildingBlock: AJUNOK_clean_linker_0, # of connection points: 2
#     Edge 62, Type (0, 0), BuildingBlock: AJUNOK_clean_linker_0, # of connection points: 2
#     Edge 63, Type (0, 0), BuildingBlock: AJUNOK_clean_linker_0, # of connection points: 2
#     Edge 64, Type (0, 0), BuildingBlock: AJUNOK_clean_linker_0, # of connection points: 2
#     Edge 65, Type (0, 0), BuildingBlock: AJUNOK_clean_linker_0, # of connection points: 2
#     Edge 66, Type (0, 0), BuildingBlock: AJUNOK_clean_linker_0, # of connection points: 2
#     Edge 67, Type (0, 0), BuildingBlock: AJUNOK_clean_linker_0, # of connection points: 2
#     Edge 68, Type (0, 0), BuildingBlock: AJUNOK_clean_linker_0, # of connection points: 2
#     Edge 69, Type (0, 0), BuildingBlock: AJUNOK_clean_linker_0, # of connection points: 2
#     Edge 70, Type (0, 0), BuildingBlock: AJUNOK_clean_linker_0, # of connection points: 2
#     Edge 71, Type (0, 0), BuildingBlock: AJUNOK_clean_linker_0, # of connection points: 2
#     Edge 72, Type (0, 0), BuildingBlock: AJUNOK_clean_linker_0, # of connection points: 2
#     Edge 73, Type (0, 0), BuildingBlock: AJUNOK_clean_linker_0, # of connection points: 2
#     Edge 74, Type (0, 0), BuildingBlock: AJUNOK_clean_linker_0, # of connection points: 2
#     Edge 75, Type (0, 0), BuildingBlock: AJUNOK_clean_linker_0, # of connection points: 2
#     Edge 76, Type (0, 0), BuildingBlock: AJUNOK_clean_linker_0, # of connection points: 2
#     Edge 77, Type (0, 0), BuildingBlock: AJUNOK_clean_linker_0, # of connection points: 2
#     Edge 78, Type (0, 0), BuildingBlock: AJUNOK_clean_linker_0, # of connection points: 2
#     Edge 79, Type (0, 0), BuildingBlock: AJUNOK_clean_linker_0, # of connection points: 2
#     Edge 80, Type (0, 0), BuildingBlock: AJUNOK_clean_linker_0, # of connection points: 2
#     Edge 81, Type (0, 0), BuildingBlock: AJUNOK_clean_linker_0, # of connection points: 2
#     Edge 82, Type (0, 0), BuildingBlock: AJUNOK_clean_linker_0, # of connection points: 2
#     Edge 83, Type (0, 0), BuildingBlock: AJUNOK_clean_linker_0, # of connection points: 2
# Relax obj value: 0.373
# Max RMSD: 0.198
# Mean RMSD: 0.198
data_MOF--net-fcj--node1-XOMCOT_clean_sbu_1--edge1-AJUNOK_clean_linker_0
_symmetry_space_group_name_H-M    P1
_symmetry_Int_Tables_number       1
_symmetry_cell_setting            triclinic
loop_
_symmetry_equiv_pos_as_xyz
'x, y, z'
_cell_length_a     38.707242
_cell_length_b     38.649315
_cell_length_c     38.726768
_cell_angle_alpha  90.07632
_cell_angle_beta   90.055568
_cell_angle_gamma 90.112856
loop_
_atom_site_label
_atom_site_type_symbol
_atom_site_fract_x
_atom_site_fract_y
_atom_site_fract_z
_atom_type_partial_charge
C0 C 0.10623 0.22641 0.44699 0.0
C1 C 0.07931 0.24382 0.46236 0.0
N2 N 0.06053 0.25882 0.43739 0.0
N3 N 0.1048 0.23049 0.41232 0.0
C4 C 0.07638 0.25043 0.4075 0.0
H5 H 0.1247 0.21071 0.46063 0.0
Co6 Co 0.13344 0.20858 0.37897 0.0
C7 C 0.1369 0.28275 0.34802 0.0
O8 O 0.12251 0.30299 0.37113 0.0
N9 N 0.16166 0.18723 0.34521 0.0
C10 C 0.1857 0.17897 0.29358 0.0
C11 C 0.15711 0.19075 0.31073 0.0
C12 C 0.19314 0.17222 0.34807 0.0
N13 N 0.20846 0.16756 0.31712 0.0
O14 O 0.17421 0.21978 0.40576 0.0
H15 H 0.13577 0.20392 0.29859 0.0
H16 H 0.20595 0.16706 0.3722 0.0
O17 O 0.1392 0.25037 0.35319 0.0
C18 C 0.18358 0.19689 0.42753 0.0
O19 O 0.16479 0.16874 0.43087 0.0
N20 N 0.09413 0.19558 0.35354 0.0
C21 C 0.0425 0.16646 0.31259 0.0
C22 C 0.05016 0.20182 0.31034 0.0
C23 C 0.07634 0.21585 0.33074 0.0
C24 C 0.08567 0.1616 0.3575 0.0
C25 C 0.05996 0.1464 0.33715 0.0
H26 H 0.08275 0.24274 0.32721 0.0
H27 H 0.10009 0.14589 0.37555 0.0
H28 H 0.06691 0.25854 0.38262 0.0
H29 H 0.07303 0.24399 0.48959 0.0
H30 H 0.19038 0.18079 0.26608 0.0
H31 H 0.03664 0.21837 0.29229 0.0
H32 H 0.05477 0.11897 0.33965 0.0
C33 C 0.55477 0.34005 0.19463 0.0
C34 C 0.53637 0.3129 0.20838 0.0
N35 N 0.50694 0.30915 0.19022 0.0
N36 N 0.53695 0.35383 0.1681 0.0
C37 C 0.5076 0.33479 0.16641 0.0
H38 H 0.58082 0.34726 0.2017 0.0
Co39 Co 0.55626 0.38484 0.13636 0.0
C40 C 0.48943 0.40518 0.10348 0.0
O41 O 0.48465 0.43087 0.12518 0.0
N42 N 0.57552 0.41583 0.10395 0.0
C43 C 0.5895 0.43904 0.05321 0.0
C44 C 0.57836 0.40969 0.06965 0.0
C45 C 0.58488 0.44945 0.10749 0.0
N46 N 0.59328 0.46408 0.07699 0.0
O47 O 0.54059 0.42357 0.16382 0.0
H48 H 0.57126 0.38583 0.05691 0.0
H49 H 0.58469 0.46341 0.13162 0.0
O50 O 0.51501 0.38488 0.10769 0.0
C51 C 0.56092 0.43107 0.18869 0.0
O52 O 0.58871 0.41217 0.19313 0.0
N53 N 0.57397 0.34697 0.1115 0.0
C54 C 0.60461 0.29659 0.07013 0.0
C55 C 0.56872 0.29716 0.0748 0.0
C56 C 0.55391 0.3224 0.09589 0.0
C57 C 0.60906 0.34517 0.10946 0.0
C58 C 0.62496 0.32029 0.08869 0.0
H59 H 0.52624 0.32268 0.09876 0.0
H60 H 0.6247 0.36408 0.12296 0.0
H61 H 0.48814 0.33818 0.14667 0.0
H62 H 0.54541 0.29532 0.22816 0.0
H63 H 0.59263 0.44235 0.02563 0.0
H64 H 0.55209 0.27902 0.06134 0.0
H65 H 0.65286 0.31997 0.08675 0.0
C66 C 0.43253 0.8196 0.93258 0.0
C67 C 0.45949 0.80455 0.95019 0.0
N68 N 0.45872 0.77024 0.94435 0.0
N69 N 0.41503 0.79504 0.91505 0.0
C70 C 0.43141 0.76517 0.92321 0.0
H71 H 0.42803 0.84708 0.92998 0.0
Co72 Co 0.38302 0.80558 0.87997 0.0
C73 C 0.39097 0.72948 0.8471 0.0
O74 O 0.4075 0.70534 0.86419 0.0
N75 N 0.35124 0.81615 0.84486 0.0
C76 C 0.32565 0.81893 0.79349 0.0
C77 C 0.355 0.8092 0.81091 0.0
C78 C 0.31954 0.83062 0.84734 0.0
N79 N 0.30338 0.83248 0.81646 0.0
O80 O 0.34505 0.79128 0.90917 0.0
H81 H 0.37772 0.79778 0.79947 0.0
H82 H 0.30804 0.83885 0.87136 0.0
O83 O 0.38778 0.75968 0.86007 0.0
C84 C 0.33626 0.81561 0.92978 0.0
O85 O 0.3558 0.84342 0.93082 0.0
N86 N 0.41924 0.82255 0.8528 0.0
C87 C 0.47026 0.85462 0.81339 0.0
C88 C 0.47294 0.81946 0.82205 0.0
C89 C 0.44709 0.80384 0.84197 0.0
C90 C 0.41694 0.85699 0.84574 0.0
C91 C 0.44194 0.87346 0.82572 0.0
H92 H 0.44955 0.77685 0.84872 0.0
H93 H 0.39525 0.87168 0.85545 0.0
H94 H 0.42581 0.74061 0.91151 0.0
H95 H 0.48013 0.81815 0.96339 0.0
H96 H 0.32108 0.81644 0.76601 0.0
H97 H 0.49441 0.80403 0.81293 0.0
H98 H 0.43916 0.90073 0.81993 0.0
C99 C 0.95618 0.67435 0.68763 0.0
C100 C 0.97323 0.70102 0.70403 0.0
N101 N 1.00455 0.70479 0.68942 0.0
N102 N 0.97655 0.66105 0.66273 0.0
C103 C 1.00607 0.67994 0.66478 0.0
H104 H 0.92955 0.66702 0.69181 0.0
Co105 Co 0.96099 0.62936 0.6289 0.0
C106 C 0.03204 0.61853 0.59992 0.0
O107 O 0.04075 0.59484 0.62258 0.0
N108 N 0.94601 0.59765 0.59483 0.0
C109 C 0.94198 0.57093 0.544 0.0
C110 C 0.95255 0.60045 0.56065 0.0
C111 C 0.93041 0.56645 0.59807 0.0
N112 N 0.92813 0.54953 0.56756 0.0
O113 O 0.97788 0.59105 0.65607 0.0
H114 H 0.96502 0.62231 0.54857 0.0
H115 H 0.92211 0.55569 0.62242 0.0
O116 O 1.00314 0.63385 0.60277 0.0
C117 C 0.95609 0.58243 0.67926 0.0
O118 O 0.92773 0.60071 0.68248 0.0
N119 N 0.9419 0.66613 0.60357 0.0
C120 C 0.91078 0.71743 0.56341 0.0
C121 C 0.94476 0.72137 0.57554 0.0
C122 C 0.95999 0.69522 0.59504 0.0
C123 C 0.90828 0.66262 0.5937 0.0
C124 C 0.89269 0.68722 0.57253 0.0
H125 H 0.98655 0.69837 0.60277 0.0
H126 H 0.89382 0.63984 0.60112 0.0
H127 H 0.02724 0.67754 0.64672 0.0
H128 H 0.96215 0.71835 0.72298 0.0
H129 H 0.94478 0.56532 0.51675 0.0
H130 H 0.95978 0.74429 0.56974 0.0
H131 H 0.86703 0.68189 0.56282 0.0
C132 C 0.58992 0.31404 0.57669 0.0
C133 C 0.56168 0.30084 0.55961 0.0
N134 N 0.55674 0.2681 0.57018 0.0
N135 N 0.6029 0.28988 0.59817 0.0
C136 C 0.58197 0.26205 0.59356 0.0
H137 H 0.59851 0.34063 0.57573 0.0
Co138 Co 0.63582 0.30161 0.63207 0.0
C139 C 0.63338 0.22394 0.66108 0.0
O140 O 0.6229 0.20041 0.63893 0.0
N141 N 0.66829 0.31399 0.66588 0.0
C142 C 0.69487 0.31825 0.71662 0.0
C143 C 0.66501 0.30847 0.70016 0.0
C144 C 0.70001 0.32826 0.66231 0.0
N145 N 0.71695 0.33032 0.69269 0.0
O146 O 0.67311 0.28825 0.60155 0.0
H147 H 0.64266 0.29695 0.71237 0.0
H148 H 0.71096 0.3362 0.63794 0.0
O149 O 0.63524 0.25563 0.65204 0.0
C150 C 0.68174 0.31062 0.57893 0.0
O151 O 0.6643 0.33965 0.5771 0.0
N152 N 0.59993 0.31662 0.66086 0.0
C153 C 0.54829 0.34552 0.70228 0.0
C154 C 0.54649 0.31072 0.69164 0.0
C155 C 0.5729 0.29658 0.67146 0.0
C156 C 0.60172 0.35058 0.67006 0.0
C157 C 0.57706 0.36511 0.69183 0.0
H158 H 0.57131 0.2697 0.66404 0.0
H159 H 0.62312 0.36629 0.66123 0.0
H160 H 0.58254 0.23926 0.60949 0.0
H161 H 0.54451 0.31502 0.5427 0.0
H162 H 0.70021 0.3161 0.74398 0.0
H163 H 0.52483 0.29445 0.69868 0.0
H164 H 0.58111 0.39136 0.70063 0.0
C165 C 0.45736 0.84548 0.31748 0.0
C166 C 0.47222 0.81828 0.30012 0.0
N167 N 0.49908 0.80691 0.3189 0.0
N168 N 0.4748 0.85154 0.3471 0.0
C169 C 0.50017 0.82742 0.34717 0.0
H170 H 0.43413 0.85869 0.30962 0.0
Co171 Co 0.45949 0.88229 0.38145 0.0
C172 C 0.53601 0.88226 0.41049 0.0
O173 O 0.55783 0.87187 0.38672 0.0
N174 N 0.44385 0.91319 0.41648 0.0
C175 C 0.43119 0.93454 0.46856 0.0
C176 C 0.44161 0.9058 0.45061 0.0
C177 C 0.43521 0.94719 0.41479 0.0
N178 N 0.42712 0.96046 0.44592 0.0
O179 O 0.47153 0.92119 0.35234 0.0
H180 H 0.4485 0.88144 0.46235 0.0
H181 H 0.43537 0.96261 0.39165 0.0
O182 O 0.50383 0.88402 0.40386 0.0
C183 C 0.44519 0.93075 0.33495 0.0
O184 O 0.41646 0.91299 0.33872 0.0
N185 N 0.44525 0.84434 0.4081 0.0
C186 C 0.41588 0.79376 0.45 0.0
C187 C 0.45184 0.79613 0.44656 0.0
C188 C 0.46614 0.82185 0.42556 0.0
C189 C 0.41024 0.84106 0.40968 0.0
C190 C 0.39496 0.81623 0.43088 0.0
H191 H 0.49387 0.82406 0.42418 0.0
H192 H 0.39411 0.85885 0.39539 0.0
H193 H 0.51761 0.82313 0.36848 0.0
H194 H 0.46326 0.80697 0.27614 0.0
H195 H 0.42833 0.93669 0.49629 0.0
H196 H 0.46871 0.77906 0.46094 0.0
H197 H 0.36706 0.81485 0.43266 0.0
C198 C 0.91936 0.71369 0.06803 0.0
C199 C 0.94705 0.73213 0.05554 0.0
N200 N 0.95435 0.75795 0.07783 0.0
N201 N 0.90873 0.7278 0.098 0.0
C202 C 0.93037 0.75484 0.10312 0.0
H203 H 0.90936 0.68997 0.05713 0.0
Co204 Co 0.87825 0.70584 0.12842 0.0
C205 C 0.86746 0.77894 0.15903 0.0
O206 O 0.87089 0.79989 0.13258 0.0
N207 N 0.84753 0.68344 0.15975 0.0
C208 C 0.82553 0.66307 0.20897 0.0
C209 C 0.85465 0.67519 0.19302 0.0
C210 C 0.8132 0.67665 0.15673 0.0
N211 N 0.79951 0.66386 0.18609 0.0
O212 O 0.84 0.71765 0.09908 0.0
H213 H 0.87894 0.67935 0.20606 0.0
H214 H 0.79784 0.6821 0.13414 0.0
O215 O 0.8706 0.74641 0.15545 0.0
C216 C 0.83248 0.69417 0.07716 0.0
O217 O 0.85128 0.66591 0.07699 0.0
N218 N 0.91628 0.69269 0.15541 0.0
C219 C 0.96789 0.66436 0.19667 0.0
C220 C 0.96059 0.69984 0.19824 0.0
C221 C 0.93452 0.71359 0.17738 0.0
C222 C 0.92458 0.65863 0.15199 0.0
C223 C 0.9501 0.64381 0.17266 0.0
H224 H 0.92853 0.74073 0.17977 0.0
H225 H 0.91022 0.64263 0.13405 0.0
H226 H 0.92944 0.77086 0.1258 0.0
H227 H 0.96215 0.7254 0.03302 0.0
H228 H 0.82316 0.65622 0.23597 0.0
H229 H 0.97401 0.71653 0.21634 0.0
H230 H 0.95551 0.61642 0.17028 0.0
C231 C 0.04192 0.16934 0.81279 0.0
C232 C 0.02196 0.19571 0.79996 0.0
N233 N 0.99862 0.20449 0.82414 0.0
N234 N 0.03127 0.16134 0.8449 0.0
C235 C 1.00414 0.1825 0.85076 0.0
H236 H 0.06459 0.15856 0.80059 0.0
Co237 Co 0.05867 0.13388 0.87308 0.0
C238 C 0.02337 0.12541 0.93928 0.0
O239 O 0.05347 0.13137 0.95389 0.0
N240 N 0.08797 0.10489 0.89953 0.0
C241 C 0.13367 0.07631 0.91978 0.0
C242 C 0.12272 0.10577 0.90331 0.0
C243 C 0.07876 0.0739 0.91307 0.0
N244 N 0.10596 0.05621 0.92565 0.0
O245 O 0.04474 0.09352 0.84749 0.0
H246 H 0.13979 0.12539 0.89348 0.0
H247 H 0.05259 0.06398 0.91289 0.0
O248 O 0.02041 0.12589 0.90627 0.0
C249 C 0.06845 0.08169 0.82807 0.0
O250 O 0.09745 0.09918 0.82529 0.0
N251 N 0.07354 0.17469 0.89703 0.0
C252 C 0.10098 0.22834 0.93684 0.0
C253 C 0.06561 0.22099 0.93774 0.0
C254 C 0.05235 0.19443 0.91734 0.0
C255 C 0.10654 0.18569 0.89134 0.0
C256 C 0.12125 0.21178 0.9118 0.0
H257 H 0.02518 0.18906 0.91939 0.0
H258 H 0.12186 0.17363 0.87142 0.0
H259 H 0.98986 0.18317 0.87469 0.0
H260 H 0.02634 0.20947 0.77603 0.0
H261 H 0.15998 0.07027 0.92703 0.0
H262 H 0.04845 0.23488 0.95493 0.0
H263 H 0.14839 0.21797 0.90889 0.0
C264 C 0.43937 0.08853 0.20606 0.0
C265 C 0.45353 0.06031 0.22258 0.0
N266 N 0.43767 0.0564 0.25327 0.0
N267 N 0.41484 0.10277 0.22626 0.0
C268 C 0.41494 0.08292 0.255 0.0
H269 H 0.44455 0.0962 0.17974 0.0
Co270 Co 0.38114 0.1341 0.21031 0.0
C271 C 0.35092 0.13802 0.28675 0.0
O272 O 0.37449 0.13322 0.31066 0.0
N273 N 0.34677 0.16496 0.19407 0.0
C274 C 0.29476 0.18845 0.18644 0.0
C275 C 0.31238 0.15976 0.19755 0.0
C276 C 0.34919 0.19709 0.18024 0.0
N277 N 0.31796 0.21192 0.17554 0.0
O278 O 0.41048 0.17267 0.22163 0.0
H279 H 0.30069 0.13711 0.20905 0.0
H280 H 0.37321 0.2103 0.17517 0.0
O281 O 0.359 0.13724 0.25486 0.0
C282 C 0.42962 0.18087 0.19614 0.0
O283 O 0.42861 0.16106 0.16857 0.0
N284 N 0.35396 0.09651 0.19686 0.0
C285 C 0.31715 0.04137 0.16829 0.0
C286 C 0.32085 0.04456 0.20428 0.0
C287 C 0.33923 0.07254 0.21814 0.0
C288 C 0.35105 0.09363 0.16197 0.0
C289 C 0.33215 0.06675 0.14717 0.0
H290 H 0.34178 0.07471 0.2458 0.0
H291 H 0.36309 0.11279 0.14555 0.0
H292 H 0.39704 0.08629 0.27579 0.0
H293 H 0.47194 0.04237 0.21157 0.0
H294 H 0.26706 0.19216 0.18721 0.0
H295 H 0.30977 0.02556 0.22159 0.0
H296 H 0.32894 0.0663 0.1194 0.0
C297 C 0.66048 0.7002 0.96753 0.0
C298 C 0.68782 0.7149 0.98508 0.0
N299 N 0.70143 0.69069 1.00584 0.0
N300 N 0.65677 0.66686 0.97731 0.0
C301 C 0.68199 0.66209 1.00104 0.0
H302 H 0.64567 0.71271 0.94752 0.0
Co303 Co 0.62726 0.63364 0.95754 0.0
C304 C 0.6046 0.60174 0.02331 0.0
O305 O 0.57706 0.62144 0.02462 0.0
N306 N 0.59781 0.59963 0.93836 0.0
C307 C 0.57747 0.54746 0.92438 0.0
C308 C 0.60468 0.56528 0.93844 0.0
C309 C 0.56568 0.60179 0.92456 0.0
N310 N 0.55297 0.57045 0.91598 0.0
O311 O 0.58755 0.66076 0.9711 0.0
H312 H 0.62772 0.55354 0.94884 0.0
H313 H 0.55154 0.62553 0.92083 0.0
O314 O 0.62694 0.60658 0.99964 0.0
C315 C 0.57866 0.68149 0.94706 0.0
O316 O 0.59658 0.68112 0.91824 0.0
N317 N 0.66596 0.60927 0.94092 0.0
C318 C 0.71629 0.57046 0.90709 0.0
C319 C 0.71332 0.56927 0.94312 0.0
C320 C 0.68787 0.58882 0.95962 0.0
C321 C 0.66985 0.61222 0.9061 0.0
C322 C 0.69473 0.59287 0.88858 0.0
H323 H 0.68524 0.58637 0.98717 0.0
H324 H 0.65254 0.62876 0.8917 0.0
H325 H 0.68716 0.63777 0.01369 0.0
H326 H 0.69842 0.74052 0.98108 0.0
H327 H 0.57539 0.51968 0.92129 0.0
H328 H 0.72958 0.55229 0.95828 0.0
H329 H 0.69666 0.59491 0.86075 0.0
C330 C 0.08241 0.93301 0.69817 0.0
C331 C 0.06633 0.95975 0.71512 0.0
N332 N 0.07199 0.95614 0.74921 0.0
N333 N 0.09853 0.91255 0.72126 0.0
C334 C 0.09043 0.92655 0.75223 0.0
H335 H 0.08485 0.93034 0.67048 0.0
Co336 Co 0.13143 0.88024 0.70615 0.0
C337 C 0.16786 0.88439 0.78082 0.0
O338 O 0.15094 0.90469 0.80192 0.0
N339 N 0.16421 0.84832 0.68995 0.0
C340 C 0.21483 0.82342 0.67934 0.0
C341 C 0.19883 0.85277 0.69105 0.0
C342 C 0.15992 0.816 0.67711 0.0
N343 N 0.19031 0.8002 0.67089 0.0
O344 O 0.10215 0.84236 0.72083 0.0
H345 H 0.2118 0.87547 0.70109 0.0
H346 H 0.13521 0.80392 0.67256 0.0
O347 O 0.157 0.87987 0.74992 0.0
C348 C 0.08052 0.83386 0.69736 0.0
O349 O 0.07913 0.85308 0.66942 0.0
N350 N 0.15869 0.91705 0.68979 0.0
C351 C 0.20015 0.96859 0.66118 0.0
C352 C 0.19253 0.96873 0.69658 0.0
C353 C 0.17163 0.94268 0.71043 0.0
C354 C 0.16414 0.9177 0.65503 0.0
C355 C 0.18513 0.94304 0.64022 0.0
H356 H 0.16589 0.94316 0.7377 0.0
H357 H 0.15272 0.89791 0.63885 0.0
H358 H 0.09843 0.91606 0.77651 0.0
H359 H 0.05432 0.98194 0.70305 0.0
H360 H 0.24241 0.81887 0.67869 0.0
H361 H 0.20324 0.98836 0.71349 0.0
H362 H 0.18965 0.94262 0.61262 0.0
C363 C 0.83856 0.32289 0.4507 0.0
C364 C 0.81057 0.30613 0.46481 0.0
N365 N 0.80492 0.31931 0.49642 0.0
N366 N 0.85056 0.34677 0.47318 0.0
C367 C 0.82922 0.34408 0.50081 0.0
H368 H 0.84773 0.31973 0.42456 0.0
Co369 Co 0.88283 0.38084 0.46073 0.0
C370 C 0.88422 0.40981 0.53822 0.0
O371 O 0.87268 0.38942 0.56275 0.0
N372 N 0.91489 0.41542 0.44786 0.0
C373 C 0.9386 0.46724 0.43889 0.0
C374 C 0.90946 0.44998 0.44939 0.0
C375 C 0.94796 0.41253 0.43664 0.0
N376 N 0.96268 0.44361 0.43092 0.0
O377 O 0.92048 0.35008 0.47171 0.0
H378 H 0.88614 0.46221 0.45859 0.0
H379 H 0.96133 0.38838 0.43271 0.0
O380 O 0.88412 0.39935 0.50699 0.0
C381 C 0.9296 0.33 0.44716 0.0
O382 O 0.91189 0.33091 0.41823 0.0
N383 N 0.84611 0.40952 0.44771 0.0
C384 C 0.79528 0.45232 0.42019 0.0
C385 C 0.79895 0.44881 0.45605 0.0
C386 C 0.82437 0.4269 0.4694 0.0
C387 C 0.84208 0.4117 0.41283 0.0
C388 C 0.81677 0.43297 0.39847 0.0
H389 H 0.82668 0.42437 0.49703 0.0
H390 H 0.85918 0.39727 0.39609 0.0
H391 H 0.82915 0.36193 0.52224 0.0
H392 H 0.79425 0.28727 0.45202 0.0
H393 H 0.94227 0.49501 0.43821 0.0
H394 H 0.78233 0.46292 0.47358 0.0
H395 H 0.81461 0.43498 0.37065 0.0
C396 C 0.94464 0.42178 0.80295 0.0
C397 C 0.96168 0.44841 0.78673 0.0
N398 N 0.94259 0.45841 0.75961 0.0
N399 N 0.91469 0.41495 0.78633 0.0
C400 C 0.91405 0.43822 0.76013 0.0
H401 H 0.95289 0.40964 0.8266 0.0
Co402 Co 0.88119 0.3839 0.80344 0.0
C403 C 0.85323 0.37849 0.7268 0.0
O404 O 0.8747 0.3932 0.70508 0.0
N405 N 0.84729 0.35273 0.82083 0.0
C406 C 0.79596 0.32812 0.83023 0.0
C407 C 0.81268 0.35724 0.81864 0.0
C408 C 0.85063 0.3203 0.83386 0.0
N409 N 0.81993 0.30477 0.83939 0.0
O410 O 0.91123 0.34566 0.79386 0.0
H411 H 0.80011 0.37955 0.80757 0.0
H412 H 0.87479 0.30751 0.83864 0.0
O413 O 0.8597 0.37807 0.75904 0.0
C414 C 0.9295 0.3371 0.81987 0.0
O415 O 0.92638 0.35564 0.84814 0.0
N416 N 0.85306 0.4214 0.8151 0.0
C417 C 0.81085 0.47327 0.84183 0.0
C418 C 0.81271 0.46752 0.80605 0.0
C419 C 0.834 0.44133 0.79313 0.0
C420 C 0.85267 0.42754 0.84972 0.0
C421 C 0.83162 0.45322 0.86368 0.0
H422 H 0.83462 0.4369 0.76564 0.0
H423 H 0.86821 0.41165 0.86665 0.0
H424 H 0.89217 0.44226 0.74332 0.0
H425 H 0.98545 0.46063 0.79512 0.0
H426 H 0.76834 0.32361 0.82988 0.0
H427 H 0.79774 0.48301 0.78822 0.0
H428 H 0.83094 0.45672 0.89142 0.0
C429 C 0.34153 0.1973 0.55336 0.0
C430 C 0.31506 0.21232 0.5352 0.0
N431 N 0.30987 0.19393 0.50618 0.0
N432 N 0.35308 0.16933 0.53607 0.0
C433 C 0.33325 0.16798 0.5072 0.0
H434 H 0.3496 0.20455 0.57907 0.0
Co435 Co 0.38264 0.1372 0.55678 0.0
C436 C 0.41015 0.09866 0.49725 0.0
O437 O 0.43997 0.11446 0.50103 0.0
N438 N 0.41222 0.10441 0.57783 0.0
C439 C 0.43424 0.05327 0.59229 0.0
C440 C 0.40506 0.07041 0.58208 0.0
C441 C 0.44611 0.10709 0.58616 0.0
N442 N 0.46025 0.07629 0.59447 0.0
O443 O 0.42239 0.16439 0.5424 0.0
H444 H 0.38065 0.05813 0.57636 0.0
H445 H 0.46078 0.13061 0.58418 0.0
O446 O 0.3843 0.10816 0.51543 0.0
C447 C 0.43096 0.18852 0.56326 0.0
O448 O 0.41241 0.19303 0.59126 0.0
N449 N 0.34367 0.11293 0.57302 0.0
C450 C 0.2929 0.07115 0.60213 0.0
C451 C 0.29559 0.07429 0.56624 0.0
C452 C 0.32079 0.09591 0.55214 0.0
C453 C 0.33963 0.1123 0.608 0.0
C454 C 0.31438 0.09135 0.6232 0.0
H455 H 0.32264 0.09775 0.52444 0.0
H456 H 0.35732 0.12673 0.6242 0.0
H457 H 0.33366 0.14675 0.48895 0.0
H458 H 0.2989 0.23339 0.544 0.0
H459 H 0.43647 0.02566 0.59634 0.0
H460 H 0.2789 0.05947 0.54927 0.0
H461 H 0.31272 0.0897 0.65106 0.0
C462 C 0.56857 0.59304 0.31094 0.0
C463 C 0.55143 0.56603 0.29543 0.0
N464 N 0.56785 0.5582 0.26587 0.0
N465 N 0.59582 0.60236 0.29139 0.0
C466 C 0.59462 0.58067 0.26385 0.0
H467 H 0.56296 0.60342 0.33622 0.0
Co468 Co 0.62927 0.63368 0.30723 0.0
C469 C 0.66316 0.65467 0.24232 0.0
O470 O 0.64766 0.6848 0.24427 0.0
N471 N 0.66281 0.66497 0.32345 0.0
C472 C 0.71373 0.69003 0.33336 0.0
C473 C 0.69739 0.6615 0.31978 0.0
C474 C 0.65885 0.69567 0.33976 0.0
N475 N 0.68937 0.71138 0.34565 0.0
O476 O 0.60164 0.67181 0.29091 0.0
H477 H 0.70998 0.63971 0.30767 0.0
H478 H 0.63433 0.70638 0.34743 0.0
O479 O 0.65538 0.63099 0.264 0.0
C480 C 0.57898 0.68272 0.31211 0.0
O481 O 0.57585 0.66744 0.34219 0.0
N482 N 0.65472 0.59674 0.3258 0.0
C483 C 0.69689 0.54796 0.35805 0.0
C484 C 0.69043 0.54617 0.32242 0.0
C485 C 0.66882 0.57055 0.30686 0.0
C486 C 0.65873 0.59751 0.36074 0.0
C487 C 0.67969 0.57336 0.37742 0.0
H488 H 0.66403 0.56866 0.27952 0.0
H489 H 0.6463 0.61764 0.37564 0.0
H490 H 0.61442 0.57938 0.24418 0.0
H491 H 0.53011 0.55149 0.30627 0.0
H492 H 0.74127 0.69501 0.33379 0.0
H493 H 0.70265 0.52667 0.30649 0.0
H494 H 0.68263 0.57482 0.40518 0.0
C495 C 0.15692 0.81811 0.02839 0.0
C496 C 0.18286 0.80398 0.00879 0.0
N497 N 0.20235 0.82983 0.99611 0.0
N498 N 0.1595 0.85295 0.02832 0.0
C499 C 0.18762 0.85928 0.00828 0.0
H500 H 0.13855 0.80346 0.0434 0.0
Co501 Co 0.13198 0.88096 0.05768 0.0
C502 C 0.11516 0.94605 0.02198 0.0
O503 O 0.11774 0.96195 0.05186 0.0
N504 N 0.10345 0.90708 0.08841 0.0
C505 C 0.0793 0.92928 0.13572 0.0
C506 C 0.10891 0.91549 0.12189 0.0
C507 C 0.06988 0.91585 0.08286 0.0
N508 N 0.05478 0.92954 0.11114 0.0
O509 O 0.09157 0.85414 0.04601 0.0
H510 H 0.13205 0.91045 0.13644 0.0
H511 H 0.0563 0.9108 0.05892 0.0
O512 O 0.12185 0.91361 0.01953 0.0
C513 C 0.08247 0.83516 0.07135 0.0
O514 O 0.1032 0.8333 0.0982 0.0
N515 N 0.17207 0.90568 0.0714 0.0
C516 C 0.22685 0.94121 0.10194 0.0
C517 C 0.21534 0.95024 0.06892 0.0
C518 C 0.18814 0.93188 0.05389 0.0
C519 C 0.18572 0.89414 0.10172 0.0
C520 C 0.21244 0.9122 0.11807 0.0
H521 H 0.18034 0.93904 0.02824 0.0
H522 H 0.17437 0.87187 0.11428 0.0
H523 H 0.19803 0.88479 1.0036 0.0
H524 H 0.18832 0.77665 1.00617 0.0
H525 H 0.07573 0.93752 0.1622 0.0
H526 H 0.22647 0.97204 0.0553 0.0
H527 H 0.22133 0.90399 0.14329 0.0
C528 C 0.21141 0.4485 0.09661 0.0
C529 C 0.22787 0.46505 0.06979 0.0
N530 N 0.25252 0.44392 0.05772 0.0
N531 N 0.22559 0.41695 0.10156 0.0
C532 C 0.25043 0.41492 0.07701 0.0
H533 H 0.18898 0.45821 0.10995 0.0
Co534 Co 0.2074 0.38286 0.13133 0.0
C535 C 0.28272 0.3508 0.13308 0.0
O536 O 0.30511 0.37314 0.12075 0.0
N537 N 0.18914 0.34831 0.16098 0.0
C538 C 0.18031 0.29612 0.18391 0.0
C539 C 0.19095 0.31383 0.15509 0.0
C540 C 0.17676 0.35061 0.19365 0.0
N541 N 0.17142 0.31938 0.20811 0.0
O542 O 0.2191 0.41106 0.17101 0.0
H543 H 0.20152 0.30202 0.13212 0.0
H544 H 0.17371 0.37433 0.20785 0.0
O545 O 0.25076 0.35847 0.13467 0.0
C546 C 0.1934 0.42966 0.18 0.0
O547 O 0.16533 0.42795 0.16095 0.0
N548 N 0.1934 0.35703 0.09283 0.0
C549 C 0.16354 0.31884 0.03964 0.0
C550 C 0.1995 0.31969 0.04367 0.0
C551 C 0.21402 0.33871 0.07079 0.0
C552 C 0.15852 0.3576 0.08831 0.0
C553 C 0.14296 0.33836 0.06208 0.0
H554 H 0.24162 0.33794 0.07433 0.0
H555 H 0.14264 0.37241 0.10591 0.0
H556 H 0.26529 0.39197 0.07161 0.0
H557 H 0.22061 0.48954 0.05837 0.0
H558 H 0.18053 0.26832 0.18736 0.0
H559 H 0.2161 0.30476 0.0268 0.0
H560 H 0.11508 0.33842 0.05956 0.0
C561 C 0.71174 0.07087 0.92082 0.0
C562 C 0.73034 0.05613 0.94725 0.0
N563 N 0.75741 0.07676 0.95453 0.0
N564 N 0.72706 0.1006 0.91091 0.0
C565 C 0.75514 0.10327 0.93172 0.0
H566 H 0.68725 0.06154 0.91119 0.0
Co567 Co 0.70662 0.13271 0.88062 0.0
C568 C 0.77385 0.16469 0.85819 0.0
O569 O 0.7793 0.1427 0.83292 0.0
N570 N 0.68627 0.16536 0.85028 0.0
C571 C 0.67568 0.21648 0.82575 0.0
C572 C 0.68653 0.20005 0.85522 0.0
C573 C 0.67426 0.16153 0.81757 0.0
N574 N 0.66795 0.19217 0.80221 0.0
O575 O 0.71979 0.10457 0.84135 0.0
H576 H 0.69561 0.21294 0.87823 0.0
H577 H 0.67207 0.13714 0.80419 0.0
O578 O 0.74807 0.16044 0.87812 0.0
C579 C 0.69695 0.08204 0.83331 0.0
O580 O 0.66879 0.08053 0.85216 0.0
N581 N 0.69159 0.15862 0.91897 0.0
C582 C 0.66383 0.20033 0.97071 0.0
C583 C 0.69965 0.19795 0.96632 0.0
C584 C 0.71306 0.17684 0.9404 0.0
C585 C 0.65676 0.15911 0.9241 0.0
C586 C 0.64226 0.17991 0.94986 0.0
H587 H 0.74071 0.17601 0.93732 0.0
H588 H 0.64011 0.14416 0.90727 0.0
H589 H 0.77277 0.12499 0.93122 0.0
H590 H 0.72299 0.03338 0.9618 0.0
H591 H 0.67468 0.24414 0.82146 0.0
H592 H 0.71716 0.21268 0.98251 0.0
H593 H 0.61444 0.18093 0.95266 0.0
C594 C 0.6985 0.99053 0.64978 0.0
C595 C 0.71274 0.00825 0.67722 0.0
N596 N 0.68735 0.01578 0.69952 0.0
N597 N 0.66398 0.98704 0.65428 0.0
C598 C 0.65818 1.00322 0.6849 0.0
H599 H 0.71316 0.98006 0.62859 0.0
Co600 Co 0.63247 0.96117 0.62603 0.0
C601 C 0.60093 0.03332 0.61833 0.0
O602 O 0.62635 0.053 0.62935 0.0
N603 N 0.60054 0.93582 0.59788 0.0
C604 C 0.54977 0.91867 0.57615 0.0
C605 C 0.56634 0.93196 0.60449 0.0
C606 C 0.60374 0.92406 0.56493 0.0
N607 N 0.57331 0.91375 0.55129 0.0
O608 O 0.65963 0.97173 0.58525 0.0
H609 H 0.55312 0.94065 0.62732 0.0
H610 H 0.62708 0.9254 0.54985 0.0
O611 O 0.60417 1.0006 0.61771 0.0
C612 C 0.68233 0.949 0.57779 0.0
O613 O 0.68558 0.9222 0.59841 0.0
N614 N 0.60686 0.9488 0.66581 0.0
C615 C 0.56736 0.92044 0.71907 0.0
C616 C 0.56132 0.95424 0.70757 0.0
C617 C 0.58131 0.96801 0.68095 0.0
C618 C 0.6141 0.91645 0.67769 0.0
C619 C 0.59459 0.90167 0.70427 0.0
H620 H 0.57538 0.99374 0.67209 0.0
H621 H 0.63425 0.9015 0.66541 0.0
H622 H 0.63316 1.00587 0.69671 0.0
H623 H 0.73988 0.01379 0.68121 0.0
H624 H 0.52219 0.91487 0.57328 0.0
H625 H 0.5407 0.96966 0.71853 0.0
H626 H 0.59979 0.8753 0.71208 0.0
C627 C 0.80839 0.94054 0.42027 0.0
C628 C 0.79316 0.95813 0.44708 0.0
N629 N 0.76033 0.94705 0.45029 0.0
N630 N 0.78555 0.91795 0.40669 0.0
C631 C 0.75599 0.92352 0.42473 0.0
H632 H 0.83545 0.94158 0.41343 0.0
Co633 Co 0.80002 0.88252 0.37638 0.0
C634 C 0.7366 0.8406 0.40023 0.0
O635 O 0.74051 0.84447 0.4336 0.0
N636 N 0.81358 0.84728 0.3451 0.0
C637 C 0.81778 0.7952 0.32099 0.0
C638 C 0.80753 0.81313 0.3497 0.0
C639 C 0.82736 0.84927 0.31302 0.0
N640 N 0.83 0.81795 0.29769 0.0
O641 O 0.78328 0.90928 0.33761 0.0
H642 H 0.79604 0.80186 0.37251 0.0
H643 H 0.83378 0.87319 0.30034 0.0
O644 O 0.75617 0.85678 0.37907 0.0
C645 C 0.80767 0.92878 0.32678 0.0
O646 O 0.8367 0.9292 0.34443 0.0
N647 N 0.8207 0.85745 0.41451 0.0
C648 C 0.85211 0.81704 0.466 0.0
C649 C 0.82474 0.83931 0.47392 0.0
C650 C 0.80938 0.85894 0.44795 0.0
C651 C 0.85099 0.8404 0.40799 0.0
C652 C 0.86597 0.81874 0.4326 0.0
H653 H 0.78856 0.87545 0.45553 0.0
H654 H 0.86355 0.84257 0.3832 0.0
H655 H 0.73294 0.908 0.42201 0.0
H656 H 0.80631 0.97491 0.46526 0.0
H657 H 0.8157 0.7675 0.31736 0.0
H658 H 0.81512 0.8419 0.50001 0.0
H659 H 0.888 0.80326 0.42512 0.0
C660 C 0.82895 0.05824 0.17959 0.0
C661 C 0.81015 0.04121 0.20439 0.0
N662 N 0.81514 1.00704 0.20048 0.0
N663 N 0.84634 0.03515 0.1601 0.0
C664 C 0.83627 1.00405 0.17274 0.0
H665 H 0.83208 0.08599 0.17769 0.0
Co666 Co 0.88092 0.05123 0.12958 0.0
C667 C 0.91704 0.97832 0.14132 0.0
O668 O 0.90203 0.96595 0.16904 0.0
N669 N 0.91543 0.06818 0.09957 0.0
C670 C 0.96796 0.08012 0.07935 0.0
C671 C 0.94967 0.0672 0.10671 0.0
C672 C 0.91372 0.08158 0.06727 0.0
N673 N 0.94531 0.08894 0.05469 0.0
O674 O 0.85356 0.03737 0.09007 0.0
H675 H 0.96089 0.05686 0.13009 0.0
H676 H 0.89017 0.08563 0.05291 0.0
O677 O 0.90799 0.00784 0.1294 0.0
C678 C 0.83354 0.06275 0.08316 0.0
O679 O 0.83303 0.08872 0.10507 0.0
N680 N 0.90573 0.0684 0.16757 0.0
C681 C 0.94584 0.10114 0.21752 0.0
C682 C 0.94038 0.0653 0.21881 0.0
C683 C 0.91984 0.04939 0.19367 0.0
C684 C 0.90852 0.10354 0.1676 0.0
C685 C 0.92864 0.12047 0.19224 0.0
H686 H 0.91572 0.02198 0.19516 0.0
H687 H 0.89595 0.1184 0.14756 0.0
H688 H 0.84455 0.97954 0.16261 0.0
H689 H 0.79685 0.05316 0.2259 0.0
H690 H 0.99579 0.08203 0.07722 0.0
H691 H 0.95267 0.04959 0.23842 0.0
H692 H 0.93121 0.14836 0.19114 0.0
C693 C 0.29732 0.56626 0.59854 0.0
C694 C 0.27916 0.55153 0.57173 0.0
N695 N 0.25487 0.57407 0.56129 0.0
N696 N 0.28464 0.59805 0.60525 0.0
C697 C 0.25858 0.60192 0.58221 0.0
H698 H 0.31998 0.55531 0.61051 0.0
Co699 Co 0.30598 0.63077 0.63424 0.0
C700 C 0.23632 0.66084 0.65087 0.0
O701 O 0.22553 0.63543 0.67061 0.0
N702 N 0.32734 0.66458 0.66343 0.0
C703 C 0.34624 0.71576 0.68287 0.0
C704 C 0.33298 0.69817 0.65504 0.0
C705 C 0.33682 0.66295 0.69717 0.0
N706 N 0.34834 0.6936 0.70937 0.0
O707 O 0.29211 0.60447 0.67443 0.0
H708 H 0.3268 0.70995 0.63056 0.0
H709 H 0.33488 0.6402 0.71311 0.0
O710 O 0.26562 0.65888 0.63625 0.0
C711 C 0.31627 0.58386 0.6832 0.0
O712 O 0.34403 0.58298 0.66373 0.0
N713 N 0.32167 0.6547 0.59488 0.0
C714 C 0.35238 0.69575 0.54443 0.0
C715 C 0.3165 0.69595 0.54894 0.0
C716 C 0.30154 0.67499 0.57413 0.0
C717 C 0.35634 0.65234 0.58918 0.0
C718 C 0.37232 0.67277 0.56401 0.0
H719 H 0.27398 0.6764 0.57762 0.0
H720 H 0.37186 0.63582 0.6055 0.0
H721 H 0.24371 0.62539 0.57946 0.0
H722 H 0.28537 0.52736 0.55905 0.0
H723 H 0.3525 0.74305 0.68403 0.0
H724 H 0.30024 0.71287 0.53371 0.0
H725 H 0.40012 0.6718 0.56102 0.0
C726 C 0.19265 0.55539 0.3385 0.0
C727 C 0.2064 0.53625 0.31192 0.0
N728 N 0.18741 0.50728 0.30806 0.0
N729 N 0.16519 0.53858 0.35176 0.0
C730 C 0.16306 0.50897 0.33315 0.0
H731 H 0.20057 0.58119 0.34583 0.0
Co732 Co 0.13396 0.55937 0.3823 0.0
C733 C 0.09968 0.49508 0.40765 0.0
O734 O 0.12042 0.49313 0.43442 0.0
N735 N 0.10222 0.58032 0.41304 0.0
C736 C 0.05231 0.59652 0.43672 0.0
C737 C 0.06775 0.58302 0.40781 0.0
C738 C 0.10682 0.5921 0.44572 0.0
N739 N 0.07699 0.60215 0.46048 0.0
O740 O 0.16214 0.54543 0.42096 0.0
H741 H 0.05426 0.57443 0.38491 0.0
H742 H 0.13112 0.59248 0.45928 0.0
O743 O 0.105 0.51812 0.38469 0.0
C744 C 0.18464 0.56822 0.42909 0.0
O745 O 0.18703 0.59588 0.40954 0.0
N746 N 0.10835 0.57555 0.34423 0.0
C747 C 0.06627 0.604 0.29318 0.0
C748 C 0.07117 0.56813 0.29517 0.0
C749 C 0.09243 0.55442 0.32082 0.0
C750 C 0.10606 0.6106 0.34104 0.0
C751 C 0.08485 0.62542 0.31585 0.0
H752 H 0.0953 0.52674 0.32223 0.0
H753 H 0.1196 0.6271 0.35916 0.0
H754 H 0.14283 0.48998 0.33665 0.0
H755 H 0.22694 0.54448 0.29482 0.0
H756 H 0.02486 0.60003 0.44071 0.0
H757 H 0.05829 0.55072 0.27736 0.0
H758 H 0.08207 0.65328 0.31493 0.0
C759 C 0.32181 0.45502 0.83759 0.0
C760 C 0.3062 0.47329 0.81134 0.0
N761 N 0.31991 0.5053 0.81051 0.0
N762 N 0.34553 0.47526 0.85331 0.0
C763 C 0.3427 0.50621 0.83708 0.0
H764 H 0.31825 0.42778 0.84286 0.0
Co765 Co 0.37868 0.45879 0.88539 0.0
C766 C 0.42498 0.51813 0.86278 0.0
O767 O 0.42344 0.51018 0.83006 0.0
N768 N 0.41143 0.44404 0.91869 0.0
C769 C 0.4619 0.43834 0.94579 0.0
C770 C 0.44594 0.44954 0.91633 0.0
C771 C 0.40713 0.43012 0.95054 0.0
N772 N 0.4375 0.42626 0.96723 0.0
O773 O 0.35042 0.47605 0.92251 0.0
H774 H 0.45886 0.461 0.89441 0.0
H775 H 0.38242 0.42341 0.96166 0.0
O776 O 0.40596 0.50218 0.88459 0.0
C777 C 0.32796 0.45287 0.92969 0.0
O778 O 0.32785 0.42448 0.91098 0.0
N779 N 0.4051 0.43684 0.84811 0.0
C780 C 0.44648 0.40433 0.79776 0.0
C781 C 0.42289 0.43019 0.78866 0.0
C782 C 0.40264 0.44594 0.81397 0.0
C783 C 0.4233 0.40742 0.85581 0.0
C784 C 0.44547 0.39212 0.83181 0.0
H785 H 0.38557 0.46592 0.8053 0.0
H786 H 0.42142 0.39544 0.88087 0.0
H787 H 0.3589 0.52829 0.84267 0.0
H788 H 0.28871 0.46275 0.79218 0.0
H789 H 0.48924 0.43992 0.95158 0.0
H790 H 0.41978 0.43841 0.76215 0.0
H791 H 0.46175 0.37101 0.84022 0.0
C792 C 0.24676 0.18927 0.5015 0.0
C793 C 0.27889 0.19523 0.48573 0.0
C794 C 0.21599 0.19096 0.4825 0.0
C795 C 0.21615 0.19967 0.44728 0.0
H796 H 0.24559 0.18271 0.52865 0.0
H797 H 0.19184 0.1852 0.49544 0.0
S798 S 0.29375 0.21765 0.39406 0.0
N799 N 0.30935 0.20962 0.433 0.0
N800 N 0.25129 0.21438 0.39733 0.0
C801 C 0.24812 0.20639 0.43132 0.0
C802 C 0.27959 0.20369 0.45055 0.0
C803 C 0.55018 0.49506 0.19369 0.0
C804 C 0.55725 0.46303 0.20948 0.0
C805 C 0.55398 0.52637 0.21203 0.0
C806 C 0.56381 0.52638 0.24699 0.0
H807 H 0.54313 0.49598 0.16672 0.0
H808 H 0.54935 0.55066 0.19893 0.0
S809 S 0.58165 0.44949 0.30104 0.0
N810 N 0.57252 0.43338 0.26257 0.0
N811 N 0.57834 0.4919 0.29717 0.0
C812 C 0.56919 0.49451 0.2634 0.0
C813 C 0.56613 0.46291 0.24465 0.0
C814 C 0.29571 0.84315 0.97195 0.0
C815 C 0.30209 0.81662 0.94768 0.0
C816 C 0.26307 0.84774 0.98701 0.0
C817 C 0.23522 0.82592 0.97868 0.0
H818 H 0.31613 0.8609 0.97932 0.0
H819 H 0.2598 0.86823 1.00581 0.0
S820 S 0.23725 0.75337 0.91569 0.0
N821 N 0.27712 0.76866 0.91545 0.0
N822 N 0.21578 0.7773 0.94375 0.0
C823 C 0.24106 0.79924 0.95448 0.0
C824 C 0.27442 0.79456 0.93904 0.0
C825 C 0.94677 0.52168 0.75483 0.0
C826 C 0.94838 0.48892 0.73925 0.0
C827 C 0.95145 0.5519 0.73536 0.0
C828 C 0.95906 0.5504 0.69987 0.0
H829 H 0.94076 0.52385 0.78205 0.0
H830 H 0.94821 0.57672 0.748 0.0
S831 S 0.96772 0.47048 0.64748 0.0
N832 N 0.95861 0.45637 0.68673 0.0
N833 N 0.96924 0.51315 0.65025 0.0
C834 C 0.96225 0.51764 0.68431 0.0
C835 C 0.95638 0.48687 0.704 0.0
C836 C 0.74164 0.32006 0.50253 0.0
C837 C 0.77439 0.31411 0.51696 0.0
C838 C 0.71159 0.31715 0.52254 0.0
C839 C 0.7131 0.30706 0.5574 0.0
H840 H 0.73943 0.3283 0.4759 0.0
H841 H 0.68699 0.32359 0.51084 0.0
S842 S 0.79272 0.28678 0.60671 0.0
N843 N 0.8068 0.29718 0.56778 0.0
N844 N 0.75015 0.28974 0.60508 0.0
C845 C 0.74565 0.29953 0.57172 0.0
C846 C 0.77637 0.30364 0.55158 0.0
C847 C 0.4713 0.00832 0.27954 0.0
C848 C 0.43987 0.02645 0.27573 0.0
C849 C 0.47343 0.97789 0.2995 0.0
C850 C 0.44408 0.96421 0.31601 0.0
H851 H 0.49437 0.01764 0.26679 0.0
H852 H 0.49794 0.96452 0.30124 0.0
S853 S 0.35592 1.00217 0.31575 0.0
N854 N 0.37884 0.02809 0.29095 0.0
N855 N 0.38316 0.97228 0.32903 0.0
C856 C 0.41281 0.98258 0.3132 0.0
C857 C 0.4106 0.01331 0.29295 0.0
C858 C 0.77344 0.71879 0.065 0.0
C859 C 0.80001 0.6953 0.05664 0.0
C860 C 0.74126 0.71748 0.04809 0.0
C861 C 0.7345 0.69241 0.02266 0.0
H862 H 0.77718 0.73773 0.08532 0.0
H863 H 0.72124 0.73559 0.05542 0.0
S864 S 0.79606 0.62788 0.98815 0.0
N865 N 0.81791 0.64832 0.01865 0.0
N866 N 0.75737 0.64575 0.98773 0.0
C867 C 0.76101 0.66967 0.01324 0.0
C868 C 0.79378 0.67116 0.03 0.0
C869 C 0.03922 1.00555 0.77332 0.0
C870 C 0.06832 0.98364 0.7743 0.0
C871 C 0.03811 0.03645 0.79258 0.0
C872 C 0.06638 0.04666 0.81297 0.0
H873 H 0.01778 0.99939 0.7564 0.0
H874 H 0.01597 0.05334 0.78993 0.0
S875 S 0.14719 0.9975 0.82739 0.0
N876 N 0.12503 0.97381 0.79962 0.0
N877 N 0.12263 0.03128 0.8359 0.0
C878 C 0.09463 0.02414 0.81586 0.0
C879 C 0.0957 0.99275 0.79653 0.0
C880 C 0.45797 0.23218 0.22482 0.0
C881 C 0.44778 0.21479 0.19454 0.0
C882 C 0.47638 0.26359 0.22321 0.0
C883 C 0.48467 0.2791 0.19135 0.0
H884 H 0.45248 0.22106 0.24988 0.0
H885 H 0.48461 0.27568 0.24709 0.0
S886 S 0.46203 0.24502 0.10453 0.0
N887 N 0.44584 0.21644 0.13168 0.0
N888 N 0.4805 0.27484 0.12886 0.0
C889 C 0.47364 0.26247 0.16096 0.0
C890 C 0.45522 0.23048 0.16253 0.0
C891 C 0.54666 0.73372 0.9278 0.0
C892 C 0.54791 0.70433 0.94925 0.0
C893 C 0.51754 0.75507 0.9267 0.0
C894 C 0.48827 0.74783 0.94673 0.0
H895 H 0.56841 0.74033 0.91148 0.0
H896 H 0.51762 0.77728 0.90967 0.0
S897 S 0.47727 0.67386 1.00642 0.0
N898 N 0.51673 0.66895 0.99085 0.0
N899 N 0.46156 0.70918 0.98821 0.0
C900 C 0.48875 0.71856 0.96817 0.0
C901 C 0.51874 0.69686 0.96968 0.0
C902 C 0.05645 0.78333 0.66504 0.0
C903 C 0.06291 0.79956 0.69705 0.0
C904 C 0.0389 0.75163 0.66289 0.0
C905 C 0.02654 0.73493 0.69264 0.0
H906 H 0.06487 0.7953 0.64121 0.0
H907 H 0.03376 0.74083 0.63759 0.0
S908 S 0.03821 0.76519 0.78285 0.0
N909 N 0.05712 0.79544 0.75934 0.0
N910 N 0.02335 0.73608 0.75526 0.0
C911 C 0.03354 0.75032 0.7249 0.0
C912 C 0.05199 0.78247 0.72714 0.0
C913 C 0.99984 0.26725 0.42005 0.0
C914 C 0.02784 0.27616 0.44138 0.0
C915 C 0.96784 0.28386 0.42333 0.0
C916 C 0.96255 0.31027 0.44791 0.0
H917 H 1.00273 0.24717 0.40074 0.0
H918 H 0.94719 0.27622 0.406 0.0
S919 S 0.02847 0.34411 0.50896 0.0
N920 N 0.04872 0.31327 0.48748 0.0
N921 N 0.98867 0.34493 0.49353 0.0
C922 C 0.99036 0.31921 0.46966 0.0
C923 C 0.02297 0.30207 0.46638 0.0
C924 C 0.96358 0.24835 0.79381 0.0
C925 C 0.97923 0.23633 0.82434 0.0
C926 C 0.94781 0.28103 0.79234 0.0
C927 C 0.94746 0.30313 0.82128 0.0
H928 H 0.96377 0.23237 0.77083 0.0
H929 H 0.93589 0.28899 0.76833 0.0
S930 S 0.98584 0.28406 0.90731 0.0
N931 N 0.99397 0.24933 0.88395 0.0
N932 N 0.96442 0.31035 0.88154 0.0
C933 C 0.96301 0.29126 0.85203 0.0
C934 C 0.97881 0.25797 0.85351 0.0
C935 C 0.46281 0.24392 0.57012 0.0
C936 C 0.46308 0.20914 0.55933 0.0
C937 C 0.4934 0.26321 0.5726 0.0
C938 C 0.52561 0.24821 0.56535 0.0
H939 H 0.43874 0.25616 0.57746 0.0
H940 H 0.49204 0.28974 0.58152 0.0
S941 S 0.54089 0.15861 0.53519 0.0
N942 N 0.49848 0.16109 0.53939 0.0
N943 N 0.55623 0.19699 0.54628 0.0
C944 C 0.52641 0.21371 0.55406 0.0
C945 C 0.49506 0.19429 0.55035 0.0
C946 C 0.57536 0.74706 0.31308 0.0
C947 C 0.55962 0.71492 0.30625 0.0
C948 C 0.55547 0.77725 0.31659 0.0
C949 C 0.51937 0.77634 0.31265 0.0
H950 H 0.60293 0.74869 0.31743 0.0
H951 H 0.56825 0.80136 0.32305 0.0
S952 S 0.46627 0.69874 0.29321 0.0
N953 N 0.50627 0.68402 0.29494 0.0
N954 N 0.46894 0.7408 0.30042 0.0
C955 C 0.50362 0.74459 0.30429 0.0
C956 C 0.52377 0.71385 0.30138 0.0
C957 C 1.00041 0.7878 0.04464 0.0
C958 C 0.98453 0.78026 0.07661 0.0
C959 C 0.03157 0.80647 0.04277 0.0
C960 C 0.04816 0.8182 0.07284 0.0
H961 H 0.98891 0.77883 0.02077 0.0
H962 H 0.04323 0.81082 0.01773 0.0
S963 S 0.01621 0.80923 0.16276 0.0
N964 N 0.98759 0.78829 0.13905 0.0
N965 N 0.04493 0.82435 0.13521 0.0
C966 C 0.03185 0.81249 0.10479 0.0
C967 C 1.00034 0.79334 0.10679 0.0
C968 C 0.22052 0.47628 0.2628 0.0
C969 C 0.18861 0.48457 0.27832 0.0
C970 C 0.22217 0.45783 0.23145 0.0
C971 C 0.19191 0.44746 0.21413 0.0
H972 H 0.2444 0.48464 0.27478 0.0
H973 H 0.24725 0.45251 0.22027 0.0
S974 S 0.10181 0.46122 0.24454 0.0
N975 N 0.12611 0.47994 0.27416 0.0
N976 N 0.12902 0.44506 0.21606 0.0
C977 C 0.15988 0.45467 0.22995 0.0
C978 C 0.15825 0.47322 0.26182 0.0
C979 C 0.71629 0.07535 0.77143 0.0
C980 C 0.69786 0.06262 0.8001 0.0
C981 C 0.71309 0.05972 0.73868 0.0
C982 C 0.6912 0.03101 0.7334 0.0
H983 H 0.73226 0.09826 0.77398 0.0
H984 H 0.72703 0.07072 0.71709 0.0
S985 S 0.64125 0.98485 0.80082 0.0
N986 N 0.65966 0.01741 0.82152 0.0
N987 N 0.65376 0.98842 0.76025 0.0
C988 C 0.67389 0.01721 0.76211 0.0
C989 C 0.67724 0.03289 0.79535 0.0
C990 C 0.69005 0.966 0.51524 0.0
C991 C 0.70314 0.95057 0.54555 0.0
C992 C 0.70855 0.96454 0.48386 0.0
C993 C 0.74095 0.94826 0.48205 0.0
H994 H 0.66498 0.9784 0.51554 0.0
H995 H 0.69762 0.97624 0.46094 0.0
S996 S 0.78697 0.90477 0.55381 0.0
N997 N 0.7508 0.91885 0.5714 0.0
N998 N 0.78539 0.91682 0.51297 0.0
C999 C 0.7544 0.93326 0.51218 0.0
C1000 C 0.73556 0.93428 0.54378 0.0
C1001 C 0.84086 0.96786 0.24326 0.0
C1002 C 0.81129 0.98244 0.2282 0.0
C1003 C 0.83894 0.94987 0.27458 0.0
C1004 C 0.80729 0.94529 0.29207 0.0
H1005 H 0.86599 0.97212 0.23174 0.0
H1006 H 0.86276 0.94006 0.28552 0.0
S1007 S 0.72185 0.97568 0.26152 0.0
N1008 N 0.74918 0.9896 0.23181 0.0
N1009 N 0.74527 0.9546 0.29033 0.0
C1010 C 0.7772 0.95801 0.27627 0.0
C1011 C 0.77931 0.977 0.24453 0.0
C1012 C 0.80872 0.03776 0.02793 0.0
C1013 C 0.81543 0.06651 0.04926 0.0
C1014 C 0.79057 0.04142 0.99655 0.0
C1015 C 0.77904 0.07402 0.98493 0.0
H1016 H 0.81685 0.01218 0.03586 0.0
H1017 H 0.7852 0.01852 0.98133 0.0
S1018 S 0.79104 0.15776 0.03034 0.0
N1019 N 0.80994 0.1291 0.05556 0.0
N1020 N 0.77593 0.13551 0.99723 0.0
C1021 C 0.78634 0.10302 1.00557 0.0
C1022 C 0.80446 0.09936 0.03753 0.0
C1023 C 0.28714 0.53664 0.76506 0.0
C1024 C 0.31879 0.52816 0.78096 0.0
C1025 C 0.28608 0.55566 0.73396 0.0
C1026 C 0.31672 0.56598 0.71725 0.0
H1027 H 0.26313 0.52806 0.77656 0.0
H1028 H 0.26124 0.56131 0.7224 0.0
S1029 S 0.40621 0.55045 0.74842 0.0
N1030 N 0.38123 0.53197 0.77752 0.0
N1031 N 0.37955 0.56732 0.71985 0.0
C1032 C 0.34841 0.55813 0.73332 0.0
C1033 C 0.34938 0.53932 0.76493 0.0
C1034 C 0.21648 0.59947 0.47588 0.0
C1035 C 0.20224 0.56825 0.46332 0.0
C1036 C 0.23252 0.60138 0.50825 0.0
C1037 C 0.2354 0.5721 0.52949 0.0
H1038 H 0.21519 0.62292 0.46065 0.0
H1039 H 0.24363 0.62584 0.51627 0.0
S1040 S 0.2014 0.48442 0.50984 0.0
N1041 N 0.19119 0.50754 0.47548 0.0
N1042 N 0.22168 0.51113 0.53637 0.0
C1043 C 0.22096 0.54078 0.51762 0.0
C1044 C 0.20426 0.53887 0.48462 0.0
C1045 C 0.29825 0.4706 0.02194 0.0
C1046 C 0.27022 0.44768 0.02537 0.0
C1047 C 0.31613 0.47362 0.99038 0.0
C1048 C 0.3062 0.45398 0.9613 0.0
H1049 H 0.30681 0.48556 0.04401 0.0
H1050 H 0.33851 0.49044 0.98913 0.0
S1051 S 0.2315 0.39344 0.95677 0.0
N1052 N 0.23168 0.40725 0.99713 0.0
N1053 N 0.2643 0.41305 0.93775 0.0
C1054 C 0.27706 0.43218 0.96437 0.0
C1055 C 0.25931 0.42898 0.99643 0.0
C1056 C 0.1816 0.28638 0.26142 0.0
C1057 C 0.16354 0.31238 0.24373 0.0
C1058 C 0.17383 0.27839 0.29574 0.0
C1059 C 0.14745 0.29582 0.3137 0.0
H1060 H 0.20195 0.27211 0.24859 0.0
H1061 H 0.18838 0.25802 0.30821 0.0
S1062 S 0.09284 0.36644 0.27898 0.0
N1063 N 0.11875 0.35621 0.24669 0.0
N1064 N 0.10367 0.3408 0.31133 0.0
C1065 C 0.1298 0.32259 0.29664 0.0
C1066 C 0.13793 0.33091 0.2616 0.0
C1067 C 0.43115 0.43449 0.02995 0.0
C1068 C 0.4437 0.41514 1.00197 0.0
C1069 C 0.44431 0.42942 0.06343 0.0
C1070 C 0.47032 0.40469 0.06998 0.0
H1071 H 0.41294 0.45525 0.02546 0.0
H1072 H 0.4354 0.44634 0.08386 0.0
S1073 S 0.5074 0.34414 1.00508 0.0
N1074 N 0.48029 0.36834 0.98285 0.0
N1075 N 0.5046 0.35786 0.04533 0.0
C1076 C 0.48068 0.38329 0.04228 0.0
C1077 C 0.46753 0.38882 0.00837 0.0
C1078 C 0.39952 0.73025 0.78335 0.0
C1079 C 0.37892 0.72174 0.81196 0.0
C1080 C 0.38936 0.72088 0.74981 0.0
C1081 C 0.35875 0.70205 0.74401 0.0
H1082 H 0.42363 0.74409 0.78696 0.0
H1083 H 0.40566 0.72798 0.72823 0.0
S1084 S 0.2958 0.67437 0.81055 0.0
N1085 N 0.32659 0.69421 0.8326 0.0
N1086 N 0.30764 0.67609 0.76959 0.0
C1087 C 0.33811 0.69332 0.77251 0.0
C1088 C 0.34823 0.70327 0.80654 0.0
C1089 C 0.08549 0.59091 0.52263 0.0
C1090 C 0.07139 0.61119 0.49603 0.0
C1091 C 0.07488 0.59535 0.55704 0.0
C1092 C 0.05009 0.62049 0.56598 0.0
H1093 H 0.10301 0.56998 0.51647 0.0
H1094 H 0.08455 0.57749 0.57627 0.0
S1095 S 0.01167 0.68511 0.50606 0.0
N1096 N 0.0356 0.66021 0.48106 0.0
N1097 N 0.01683 0.67001 0.54557 0.0
C1098 C 0.03883 0.6433 0.53981 0.0
C1099 C 0.04906 0.63819 0.50484 0.0
C1100 C 0.68104 0.21989 0.74655 0.0
C1101 C 0.6599 0.19812 0.76651 0.0
C1102 C 0.67291 0.22708 0.71201 0.0
C1103 C 0.64276 0.21377 0.69667 0.0
H1104 H 0.70413 0.23116 0.75772 0.0
H1105 H 0.6904 0.24307 0.69716 0.0
S1106 S 0.57938 0.15496 0.73805 0.0
N1107 N 0.60858 0.16218 0.76837 0.0
N1108 N 0.59225 0.17706 0.70388 0.0
C1109 C 0.62186 0.19137 0.7162 0.0
C1110 C 0.63061 0.18336 0.75111 0.0
C1111 C 0.539 0.92414 0.49887 0.0
C1112 C 0.56589 0.90648 0.51563 0.0
C1113 C 0.53035 0.91672 0.46457 0.0
C1114 C 0.54798 0.89108 0.44577 0.0
H1115 H 0.52465 0.94398 0.51243 0.0
H1116 H 0.50973 0.93132 0.45262 0.0
S1117 S 0.61992 0.83688 0.47846 0.0
N1118 N 0.61013 0.86237 0.51131 0.0
N1119 N 0.59348 0.84774 0.44674 0.0
C1120 C 0.57525 0.87348 0.46213 0.0
C1121 C 0.58427 0.88133 0.49711 0.0
C1122 C 0.82354 0.78185 0.24565 0.0
C1123 C 0.83914 0.81023 0.26236 0.0
C1124 C 0.83248 0.77267 0.21199 0.0
C1125 C 0.85692 0.79183 0.19323 0.0
H1126 H 0.80412 0.76647 0.25861 0.0
H1127 H 0.8201 0.75024 0.20053 0.0
S1128 S 0.90579 0.86818 0.2245 0.0
N1129 N 0.88093 0.85724 0.2574 0.0
N1130 N 0.89679 0.84037 0.19329 0.0
C1131 C 0.87228 0.82074 0.20899 0.0
C1132 C 0.86358 0.82988 0.24374 0.0
C1133 C 0.97773 0.08766 0.9643 0.0
C1134 C 0.99364 0.12031 0.96223 0.0
C1135 C 0.9584 0.07842 0.99361 0.0
C1136 C 0.95453 0.10164 0.0213 0.0
H1137 H 0.98294 0.06819 0.94485 0.0
H1138 H 0.94899 0.05213 0.99602 0.0
S1139 S 0.98733 0.19135 0.02624 0.0
N1140 N 1.00122 0.17689 0.98859 0.0
N1141 N 0.96493 0.15928 0.04344 0.0
C1142 C 0.96777 0.13514 0.01808 0.0
C1143 C 0.98736 0.14456 0.98851 0.0
C1144 C 0.29796 0.17362 0.28059 0.0
C1145 C 0.315 0.14584 0.29648 0.0
C1146 C 0.26318 0.18052 0.28748 0.0
C1147 C 0.24429 0.16008 0.31086 0.0
H1148 H 0.31172 0.19033 0.26287 0.0
H1149 H 0.25106 0.20225 0.27471 0.0
S1150 S 0.27716 0.0846 0.35958 0.0
N1151 N 0.31072 0.09792 0.33678 0.0
N1152 N 0.24518 0.11128 0.35022 0.0
C1153 C 0.26124 0.13276 0.3276 0.0
C1154 C 0.29669 0.12556 0.32035 0.0
C1155 C 0.62887 0.54253 0.03327 0.0
C1156 C 0.60552 0.56874 0.04308 0.0
C1157 C 0.62586 0.50881 0.04603 0.0
C1158 C 0.59974 0.49993 0.06946 0.0
H1159 H 0.64845 0.54733 0.014 0.0
H1160 H 0.64323 0.48908 0.03644 0.0
S1161 S 0.53386 0.55892 0.10604 0.0
N1162 N 0.55693 0.58371 0.08009 0.0
N1163 N 0.55119 0.52001 0.10352 0.0
C1164 C 0.57751 0.52607 0.0812 0.0
C1165 C 0.58045 0.56054 0.06816 0.0
C1166 C 0.21538 0.84064 0.77594 0.0
C1167 C 0.20202 0.87061 0.79156 0.0
C1168 C 0.24836 0.82825 0.78439 0.0
C1169 C 0.26906 0.84502 0.80921 0.0
H1170 H 0.20014 0.82643 0.75725 0.0
H1171 H 0.25764 0.80514 0.7716 0.0
S1172 S 0.24606 0.92419 0.85821 0.0
N1173 N 0.21211 0.91661 0.83348 0.0
N1174 N 0.27379 0.89297 0.84955 0.0
C1175 C 0.25574 0.87452 0.82569 0.0
C1176 C 0.22228 0.88735 0.81687 0.0
C1177 C 0.92585 0.45884 0.53244 0.0
C1178 C 0.89524 0.44545 0.54659 0.0
C1179 C 0.93652 0.49279 0.53961 0.0
C1180 C 0.91708 0.51446 0.56143 0.0
H1181 H 0.94188 0.44283 0.51602 0.0
H1182 H 0.96033 0.50211 0.52825 0.0
S1183 S 0.83416 0.49222 0.60359 0.0
N1184 N 0.84509 0.45666 0.58256 0.0
N1185 N 0.86537 0.52048 0.59623 0.0
C1186 C 0.88654 0.50132 0.57587 0.0
C1187 C 0.87558 0.46679 0.56844 0.0
C1188 C 0.79886 0.3828 0.69197 0.0
C1189 C 0.82009 0.36398 0.71468 0.0
C1190 C 0.76535 0.37118 0.68389 0.0
C1191 C 0.75223 0.34051 0.69836 0.0
H1192 H 0.80764 0.40729 0.68156 0.0
H1193 H 0.74914 0.38683 0.66734 0.0
S1194 S 0.8001 0.27857 0.75327 0.0
N1195 N 0.82737 0.31099 0.74754 0.0
N1196 N 0.76461 0.28923 0.7322 0.0
C1197 C 0.77403 0.32051 0.71928 0.0
C1198 C 0.80792 0.33227 0.72751 0.0
C1199 C 0.44002 0.02293 0.44237 0.0
C1200 C 0.41902 0.99575 0.45421 0.0
C1201 C 0.43555 0.0568 0.45481 0.0
C1202 C 0.4095 0.06474 0.47899 0.0
H1203 H 0.46122 0.01757 0.42495 0.0
H1204 H 0.45353 0.07661 0.44648 0.0
S1205 S 0.34505 1.00262 0.51414 0.0
N1206 N 0.36965 0.97898 0.48863 0.0
N1207 N 0.36046 0.04235 0.5115 0.0
C1208 C 0.38685 0.03791 0.48893 0.0
C1209 C 0.39186 1.00348 0.47672 0.0
C1210 C 0.73828 0.68165 0.18525 0.0
C1211 C 0.76379 0.65737 0.19393 0.0
C1212 C 0.70477 0.67908 0.19898 0.0
C1213 C 0.69555 0.65199 0.22163 0.0
H1214 H 0.74488 0.70394 0.16967 0.0
H1215 H 0.68658 0.69954 0.19323 0.0
S1216 S 0.75226 0.5787 0.24703 0.0
N1217 N 0.77698 0.6034 0.22262 0.0
N1218 N 0.71427 0.59795 0.24797 0.0
C1219 C 0.72029 0.62596 0.22779 0.0
C1220 C 0.75436 0.62887 0.21413 0.0
C1221 C 0.08147 0.99176 0.99316 0.0
C1222 C 0.10869 0.96781 0.99158 0.0
C1223 C 0.0794 0.01932 0.9699 0.0
C1224 C 0.10509 0.02441 0.94483 0.0
H1225 H 0.06268 0.99029 0.01378 0.0
H1226 H 0.05895 0.03814 0.97312 0.0
S1227 S 0.17983 0.96701 0.92771 0.0
N1228 N 0.16011 0.94902 0.96102 0.0
N1229 N 0.15678 1.00149 0.91759 0.0
C1230 C 0.13136 0.9995 0.94165 0.0
C1231 C 0.13302 0.97095 0.96495 0.0
C1232 C 0.28474 0.26591 0.18203 0.0
C1233 C 0.3107 0.24695 0.16511 0.0
C1234 C 0.27662 0.29972 0.17196 0.0
C1235 C 0.29385 0.31589 0.14436 0.0
H1236 H 0.2708 0.25459 0.20347 0.0
H1237 H 0.25681 0.31344 0.18612 0.0
S1238 S 0.36316 0.27695 0.0909 0.0
N1239 N 0.35338 0.24655 0.11921 0.0
N1240 N 0.33787 0.31014 0.09997 0.0
C1241 C 0.32011 0.29736 0.12739 0.0
C1242 C 0.32854 0.26288 0.1378 0.0
C1243 C 0.78582 0.26127 0.87058 0.0
C1244 C 0.81337 0.26921 0.8485 0.0
C1245 C 0.77529 0.22703 0.87583 0.0
C1246 C 0.79104 0.19925 0.85818 0.0
H1247 H 0.77167 0.28187 0.88316 0.0
H1248 H 0.75339 0.22273 0.89256 0.0
S1249 S 0.86776 0.20603 0.80114 0.0
N1250 N 0.85916 0.24642 0.81206 0.0
N1251 N 0.83849 0.18197 0.82084 0.0
C1252 C 0.82018 0.20669 0.83775 0.0
C1253 C 0.83152 0.24167 0.83313 0.0
C1254 C 0.50896 0.03649 0.58578 0.0
C1255 C 0.49635 0.06806 0.59855 0.0
C1256 C 0.54317 0.02655 0.59105 0.0
C1257 C 0.5665 0.04767 0.60944 0.0
H1258 H 0.49218 0.01908 0.57162 0.0
H1259 H 0.55119 1.00169 0.58098 0.0
S1260 S 0.54735 0.13458 0.64531 0.0
N1261 N 0.51038 0.12169 0.62828 0.0
N1262 N 0.57518 0.10301 0.63824 0.0
C1263 C 0.55484 0.0802 0.62088 0.0
C1264 C 0.51968 0.09038 0.61543 0.0
C1265 C 0.7077 0.74729 0.39449 0.0
C1266 C 0.69532 0.74473 0.3606 0.0
C1267 C 0.71859 0.77917 0.40794 0.0
C1268 C 0.71821 0.80942 0.38759 0.0
H1269 H 0.71008 0.72422 0.41015 0.0
H1270 H 0.72936 0.77959 0.43377 0.0
S1271 S 0.68617 0.81592 0.29758 0.0
N1272 N 0.68123 0.77463 0.30753 0.0
N1273 N 0.70276 0.8347 0.33223 0.0
C1274 C 0.70476 0.80718 0.35392 0.0
C1275 C 0.69305 0.77477 0.34054 0.0
C1276 C 0.96821 0.94072 0.1532 0.0
C1277 C 0.95049 0.96279 0.13028 0.0
C1278 C 1.00181 0.92932 0.14625 0.0
C1279 C 0.01909 0.93906 0.11591 0.0
H1280 H 0.95665 0.93313 0.17751 0.0
H1281 H 0.01465 0.9131 0.16507 0.0
S1282 S 0.98353 0.9934 0.04562 0.0
N1283 N 0.95216 0.99172 0.07449 0.0
N1284 N 0.01549 0.97012 0.06163 0.0
C1285 C 1.00128 0.9596 0.09188 0.0
C1286 C 0.967 0.97155 0.09904 0.0
C1287 C 0.23583 0.72332 0.63488 0.0
C1288 C 0.21912 0.69524 0.65112 0.0
C1289 C 0.22482 0.7573 0.63981 0.0
C1290 C 0.19649 0.76487 0.66097 0.0
H1291 H 0.25892 0.71953 0.61966 0.0
H1292 H 0.23953 0.77806 0.62811 0.0
S1293 S 0.14021 0.70102 0.70526 0.0
N1294 N 0.17003 0.67726 0.68609 0.0
N1295 N 0.14941 0.74158 0.69547 0.0
C1296 C 0.17769 0.73713 0.67521 0.0
C1297 C 0.18902 0.70223 0.67029 0.0
C1298 C 0.0591 0.45203 0.43477 0.0
C1299 C 0.06585 0.47646 0.40852 0.0
C1300 C 0.02553 0.43935 0.44064 0.0
C1301 C 0.99756 0.45099 0.42072 0.0
H1302 H 0.07956 0.44383 0.452 0.0
H1303 H 0.02103 0.42203 0.46214 0.0
S1304 S 1.00113 0.51022 0.34595 0.0
N1305 N 0.04138 0.5081 0.35983 0.0
N1306 N 0.97867 0.48483 0.37182 0.0
C1307 C 1.00408 0.47335 0.39314 0.0
C1308 C 0.03814 0.48588 0.38673 0.0
C1309 C 0.51907 0.54206 0.87086 0.0
C1310 C 0.52017 0.56219 0.90092 0.0
C1311 C 0.48773 0.52968 0.85787 0.0
C1312 C 0.45633 0.53624 0.87502 0.0
H1313 H 0.54283 0.53517 0.85781 0.0
H1314 H 0.48843 0.51333 0.83514 0.0
S1315 S 0.44553 0.58885 0.95433 0.0
N1316 N 0.48757 0.58971 0.94682 0.0
N1317 N 0.42825 0.56518 0.92315 0.0
C1318 C 0.457 0.55699 0.90484 0.0
C1319 C 0.48904 0.57038 0.91757 0.0
C1320 C 0.96869 0.11177 0.27726 0.0
C1321 C 0.97037 0.11818 0.24155 0.0
C1322 C 0.99198 0.12757 0.30019 0.0
C1323 C 0.01776 0.15026 0.28815 0.0
H1324 H 0.94903 0.09469 0.28758 0.0
H1325 H 0.98962 0.12223 0.32754 0.0
S1326 S 0.03516 0.1728 0.19665 0.0
N1327 N 1.00121 0.14694 0.19503 0.0
N1328 N 0.045 0.17647 0.23798 0.0
C1329 C 0.02006 0.15635 0.25242 0.0
C1330 C 0.99638 0.14035 0.22917 0.0
C1331 C 0.6107 0.23706 0.04469 0.0
C1332 C 0.62048 0.27218 0.04509 0.0
C1333 C 0.62475 0.21389 0.02056 0.0
C1334 C 0.64914 0.22502 0.99607 0.0
H1335 H 0.59222 0.22736 0.06332 0.0
H1336 H 0.61672 0.18703 0.02127 0.0
S1337 S 0.68085 0.31481 0.984 0.0
N1338 N 0.65431 0.3173 0.01725 0.0
N1339 N 0.68092 0.27373 0.97228 0.0
C1340 C 0.65877 0.2601 0.99587 0.0
C1341 C 0.6444 0.28368 0.02028 0.0
C1342 C 0.50759 0.90613 0.73885 0.0
C1343 C 0.54348 0.90408 0.74427 0.0
C1344 C 0.48425 0.89019 0.76144 0.0
C1345 C 0.49586 0.87148 0.79032 0.0
H1346 H 0.49742 0.91966 0.71658 0.0
H1347 H 0.45687 0.89206 0.75591 0.0
S1348 S 0.58702 0.86087 0.8178 0.0
N1349 N 0.58945 0.8836 0.78178 0.0
N1350 N 0.54548 0.85347 0.82429 0.0
C1351 C 0.53163 0.86966 0.79641 0.0
C1352 C 0.55545 0.88598 0.77339 0.0
C1353 C 0.91592 0.76083 0.51548 0.0
C1354 C 0.89519 0.74396 0.54018 0.0
C1355 C 0.90202 0.78498 0.4925 0.0
C1356 C 0.86647 0.79264 0.49224 0.0
H1357 H 0.94318 0.755 0.51332 0.0
H1358 H 0.9195 0.79759 0.47469 0.0
S1359 S 0.80073 0.75613 0.5521 0.0
N1360 N 0.8375 0.73873 0.56468 0.0
N1361 N 0.81058 0.78068 0.51873 0.0
C1362 C 0.84531 0.77589 0.51677 0.0
C1363 C 0.8598 0.75235 0.54122 0.0
C1364 C 0.48065 0.35453 0.77333 0.0
C1365 C 0.4714 0.38975 0.77205 0.0
C1366 C 0.50519 0.34058 0.75071 0.0
C1367 C 0.52099 0.36088 0.72496 0.0
H1368 H 0.46897 0.33736 0.79206 0.0
H1369 H 0.51219 0.31368 0.75401 0.0
S1370 S 0.50438 0.45425 0.70886 0.0
N1371 N 0.48067 0.44486 0.74294 0.0
N1372 N 0.52323 0.41768 0.69777 0.0
C1373 C 0.51092 0.39586 0.72239 0.0
C1374 C 0.487 0.41045 0.74642 0.0
C1375 C 0.39105 0.70957 0.49429 0.0
C1376 C 0.36895 0.72089 0.5208 0.0
C1377 C 0.40644 0.73329 0.4715 0.0
C1378 C 0.40015 0.769 0.47454 0.0
H1379 H 0.39607 0.68222 0.4909 0.0
H1380 H 0.42294 0.72363 0.45108 0.0
S1381 S 0.34753 0.81195 0.542 0.0
N1382 N 0.34375 0.77023 0.55041 0.0
N1383 N 0.37253 0.81468 0.50756 0.0
C1384 C 0.37882 0.78063 0.50146 0.0
C1385 C 0.36325 0.75659 0.5246 0.0
C1386 C 0.02644 0.66205 0.22448 0.0
C1387 C 0.99284 0.64854 0.22104 0.0
C1388 C 0.05017 0.64743 0.24769 0.0
C1389 C 0.04106 0.61889 0.26836 0.0
H1390 H 0.03451 0.68387 0.20889 0.0
H1391 H 0.07591 0.65837 0.24928 0.0
S1392 S 0.95506 0.57635 0.27156 0.0
N1393 N 0.95095 0.60651 0.24169 0.0
N1394 N 0.99528 0.5793 0.28549 0.0
C1395 C 0.00729 0.60563 0.26557 0.0
C1396 C 0.98325 0.62039 0.24189 0.0
C1397 C 0.15571 0.29922 0.97835 0.0
C1398 C 0.14733 0.29602 0.01353 0.0
C1399 C 0.1405 0.27747 0.95349 0.0
C1400 C 0.1166 0.25171 0.96308 0.0
H1401 H 0.17387 0.31887 0.97001 0.0
H1402 H 0.14729 0.28101 0.92659 0.0
S1403 S 0.08886 0.23085 0.05249 0.0
N1404 N 0.11528 0.26414 0.05699 0.0
N1405 N 0.08726 0.22285 0.01064 0.0
C1406 C 0.10864 0.24793 0.99837 0.0
C1407 C 0.12388 0.27018 0.02349 0.0
C1408 C 0.24292 0.97887 0.15176 0.0
C1409 C 0.25207 0.96344 0.12021 0.0
C1410 C 0.26458 1.00325 0.16768 0.0
C1411 C 0.29639 0.0128 0.15278 0.0
H1412 H 0.21815 0.97315 0.16349 0.0
H1413 H 0.25566 0.01565 0.19111 0.0
S1414 S 0.33411 0.97579 0.07264 0.0
N1415 N 0.2959 0.95701 0.07596 0.0
N1416 N 0.3375 1.00166 0.10646 0.0
C1417 C 0.30659 0.99597 0.12211 0.0
C1418 C 0.28423 0.97161 0.10567 0.0
C1419 C 0.79811 0.52188 0.88298 0.0
C1420 C 0.78678 0.4993 0.85669 0.0
C1421 C 0.77534 0.54519 0.89886 0.0
C1422 C 0.74046 0.54696 0.88886 0.0
H1423 H 0.82478 0.52143 0.89147 0.0
H1424 H 0.78507 0.56193 0.91914 0.0
S1425 S 0.69724 0.49211 0.82303 0.0
N1426 N 0.73789 0.47926 0.82255 0.0
N1427 N 0.69531 0.52336 0.85207 0.0
C1428 C 0.7288 0.52466 0.8626 0.0
C1429 C 0.7519 0.5008 0.84657 0.0
C1430 C 0.24173 0.05498 0.63839 0.0
C1431 C 0.26953 0.045 0.61733 0.0
C1432 C 0.21932 0.03014 0.65259 0.0
C1433 C 0.22413 0.99457 0.64624 0.0
H1434 H 0.2371 0.08213 0.64357 0.0
H1435 H 0.19788 0.03882 0.6683 0.0
S1436 S 0.29545 0.95532 0.59575 0.0
N1437 N 0.30206 0.99742 0.59264 0.0
N1438 N 0.26032 0.95073 0.6195 0.0
C1439 C 0.25238 0.98439 0.62584 0.0
C1440 C 0.275 0.00961 0.61135 0.0
C1441 C 0.72172 0.48836 0.36604 0.0
C1442 C 0.72178 0.52378 0.37473 0.0
C1443 C 0.74543 0.46532 0.38094 0.0
C1444 C 0.76983 0.47678 0.40535 0.0
H1445 H 0.70307 0.47827 0.34772 0.0
H1446 H 0.74452 0.4383 0.3735 0.0
S1447 S 0.783 0.56709 0.43486 0.0
N1448 N 0.75019 0.56939 0.40769 0.0
N1449 N 0.79393 0.52585 0.43629 0.0
C1450 C 0.7704 0.51203 0.41411 0.0
C1451 C 0.74659 0.53556 0.39869 0.0
loop_
_geom_bond_atom_site_label_1
_geom_bond_atom_site_label_2
_geom_bond_distance
_geom_bond_site_symmetry_2
_ccdc_geom_bond_type
C0 C1 1.351 . S
C0 N3 1.368 . S
C0 H5 0.931 . S
C1 C0 1.351 . S
C1 N2 1.373 . S
C1 H29 0.930 . S
N2 C1 1.373 . S
N2 C4 1.340 . S
N3 C0 1.368 . S
N3 C4 1.321 . S
N3 Co6 2.135 . S
C4 N2 1.340 . S
C4 N3 1.321 . S
C4 H28 0.930 . S
H5 C0 0.931 . S
Co6 N3 2.135 . S
Co6 N9 2.121 . S
Co6 O14 2.055 . S
Co6 O17 2.039 . S
Co6 N20 2.140 . S
C7 O8 1.227 . S
C7 O17 1.265 . S
O8 C7 1.227 . S
N9 Co6 2.121 . S
N9 C11 1.375 . S
N9 C12 1.313 . S
C10 C11 1.338 . S
C10 N13 1.377 . S
C10 H30 0.930 . S
C11 N9 1.375 . S
C11 C10 1.338 . S
C11 H15 0.931 . S
C12 N9 1.313 . S
C12 N13 1.344 . S
C12 H16 0.930 . S
N13 C10 1.377 . S
N13 C12 1.344 . S
O14 Co6 2.055 . S
O14 C18 1.253 . S
H15 C11 0.931 . S
H16 C12 0.930 . S
O17 Co6 2.039 . S
O17 C7 1.265 . S
C18 O14 1.253 . S
C18 O19 1.227 . S
O19 C18 1.227 . S
N20 Co6 2.140 . S
N20 C23 1.346 . S
N20 C24 1.345 . S
C21 C22 1.387 . S
C21 C25 1.391 . S
C22 C21 1.387 . S
C22 C23 1.369 . S
C22 H31 0.929 . S
C23 N20 1.346 . S
C23 C22 1.369 . S
C23 H26 0.928 . S
C24 N20 1.345 . S
C24 C25 1.371 . S
C24 H27 0.931 . S
C25 C21 1.391 . S
C25 C24 1.371 . S
C25 H32 0.930 . S
H26 C23 0.928 . S
H27 C24 0.931 . S
H28 C4 0.930 . S
H29 C1 0.930 . S
H30 C10 0.930 . S
H31 C22 0.929 . S
H32 C25 0.930 . S
C33 C34 1.351 . S
C33 N36 1.368 . S
C33 H38 0.931 . S
C34 C33 1.351 . S
C34 N35 1.373 . S
C34 H62 0.930 . S
N35 C34 1.373 . S
N35 C37 1.340 . S
N36 C33 1.368 . S
N36 C37 1.321 . S
N36 Co39 2.135 . S
C37 N35 1.340 . S
C37 N36 1.321 . S
C37 H61 0.930 . S
H38 C33 0.931 . S
Co39 N36 2.135 . S
Co39 N42 2.121 . S
Co39 O47 2.055 . S
Co39 O50 2.039 . S
Co39 N53 2.140 . S
C40 O41 1.227 . S
C40 O50 1.265 . S
O41 C40 1.227 . S
N42 Co39 2.121 . S
N42 C44 1.375 . S
N42 C45 1.313 . S
C43 C44 1.338 . S
C43 N46 1.377 . S
C43 H63 0.930 . S
C44 N42 1.375 . S
C44 C43 1.338 . S
C44 H48 0.931 . S
C45 N42 1.313 . S
C45 N46 1.344 . S
C45 H49 0.930 . S
N46 C43 1.377 . S
N46 C45 1.344 . S
O47 Co39 2.055 . S
O47 C51 1.253 . S
H48 C44 0.931 . S
H49 C45 0.930 . S
O50 Co39 2.039 . S
O50 C40 1.265 . S
C51 O47 1.253 . S
C51 O52 1.227 . S
O52 C51 1.227 . S
N53 Co39 2.140 . S
N53 C56 1.346 . S
N53 C57 1.345 . S
C54 C55 1.387 . S
C54 C58 1.391 . S
C55 C54 1.387 . S
C55 C56 1.369 . S
C55 H64 0.929 . S
C56 N53 1.346 . S
C56 C55 1.369 . S
C56 H59 0.928 . S
C57 N53 1.345 . S
C57 C58 1.371 . S
C57 H60 0.931 . S
C58 C54 1.391 . S
C58 C57 1.371 . S
C58 H65 0.930 . S
H59 C56 0.928 . S
H60 C57 0.931 . S
H61 C37 0.930 . S
H62 C34 0.930 . S
H63 C43 0.930 . S
H64 C55 0.929 . S
H65 C58 0.930 . S
C66 C67 1.351 . S
C66 N69 1.368 . S
C66 H71 0.931 . S
C67 C66 1.351 . S
C67 N68 1.373 . S
C67 H95 0.930 . S
N68 C67 1.373 . S
N68 C70 1.340 . S
N69 C66 1.368 . S
N69 C70 1.321 . S
N69 Co72 2.135 . S
C70 N68 1.340 . S
C70 N69 1.321 . S
C70 H94 0.930 . S
H71 C66 0.931 . S
Co72 N69 2.135 . S
Co72 N75 2.121 . S
Co72 O80 2.055 . S
Co72 O83 2.039 . S
Co72 N86 2.140 . S
C73 O74 1.227 . S
C73 O83 1.265 . S
O74 C73 1.227 . S
N75 Co72 2.121 . S
N75 C77 1.375 . S
N75 C78 1.313 . S
C76 C77 1.338 . S
C76 N79 1.377 . S
C76 H96 0.930 . S
C77 N75 1.375 . S
C77 C76 1.338 . S
C77 H81 0.931 . S
C78 N75 1.313 . S
C78 N79 1.344 . S
C78 H82 0.930 . S
N79 C76 1.377 . S
N79 C78 1.344 . S
O80 Co72 2.055 . S
O80 C84 1.253 . S
H81 C77 0.931 . S
H82 C78 0.930 . S
O83 Co72 2.039 . S
O83 C73 1.265 . S
C84 O80 1.253 . S
C84 O85 1.227 . S
O85 C84 1.227 . S
N86 Co72 2.140 . S
N86 C89 1.346 . S
N86 C90 1.345 . S
C87 C88 1.387 . S
C87 C91 1.391 . S
C88 C87 1.387 . S
C88 C89 1.369 . S
C88 H97 0.929 . S
C89 N86 1.346 . S
C89 C88 1.369 . S
C89 H92 0.928 . S
C90 N86 1.345 . S
C90 C91 1.371 . S
C90 H93 0.931 . S
C91 C87 1.391 . S
C91 C90 1.371 . S
C91 H98 0.930 . S
H92 C89 0.928 . S
H93 C90 0.931 . S
H94 C70 0.930 . S
H95 C67 0.930 . S
H96 C76 0.930 . S
H97 C88 0.929 . S
H98 C91 0.930 . S
C99 C100 1.351 . S
C99 N102 1.368 . S
C99 H104 0.931 . S
C100 C99 1.351 . S
C100 N101 1.373 1_655 S
C100 H128 0.930 . S
N101 C100 1.373 1_455 S
N101 C103 1.340 . S
N102 C99 1.368 . S
N102 C103 1.321 1_655 S
N102 Co105 2.135 . S
C103 N101 1.340 . S
C103 N102 1.321 1_455 S
C103 H127 0.930 . S
H104 C99 0.931 . S
Co105 N102 2.135 . S
Co105 N108 2.121 . S
Co105 O113 2.055 . S
Co105 O116 2.039 1_655 S
Co105 N119 2.140 . S
C106 O107 1.231 . S
C106 O116 1.265 . S
O107 C106 1.231 . S
N108 Co105 2.121 . S
N108 C110 1.375 . S
N108 C111 1.313 . S
C109 C110 1.338 . S
C109 N112 1.377 . S
C109 H129 0.930 . S
C110 N108 1.375 . S
C110 C109 1.338 . S
C110 H114 0.931 . S
C111 N108 1.313 . S
C111 N112 1.344 . S
C111 H115 0.930 . S
N112 C109 1.377 . S
N112 C111 1.344 . S
O113 Co105 2.055 . S
O113 C117 1.253 . S
H114 C110 0.931 . S
H115 C111 0.930 . S
O116 Co105 2.039 1_455 S
O116 C106 1.265 . S
C117 O113 1.253 . S
C117 O118 1.227 . S
O118 C117 1.227 . S
N119 Co105 2.140 . S
N119 C122 1.346 . S
N119 C123 1.345 . S
C120 C121 1.387 . S
C120 C124 1.391 . S
C121 C120 1.387 . S
C121 C122 1.369 . S
C121 H130 0.929 . S
C122 N119 1.346 . S
C122 C121 1.369 . S
C122 H125 0.928 . S
C123 N119 1.345 . S
C123 C124 1.371 . S
C123 H126 0.931 . S
C124 C120 1.391 . S
C124 C123 1.371 . S
C124 H131 0.930 . S
H125 C122 0.928 . S
H126 C123 0.931 . S
H127 C103 0.930 . S
H128 C100 0.930 . S
H129 C109 0.930 . S
H130 C121 0.929 . S
H131 C124 0.930 . S
C132 C133 1.351 . S
C132 N135 1.368 . S
C132 H137 0.931 . S
C133 C132 1.351 . S
C133 N134 1.373 . S
C133 H161 0.930 . S
N134 C133 1.373 . S
N134 C136 1.340 . S
N135 C132 1.368 . S
N135 C136 1.321 . S
N135 Co138 2.135 . S
C136 N134 1.340 . S
C136 N135 1.321 . S
C136 H160 0.930 . S
H137 C132 0.931 . S
Co138 N135 2.135 . S
Co138 N141 2.121 . S
Co138 O146 2.055 . S
Co138 O149 2.039 . S
Co138 N152 2.140 . S
C139 O140 1.227 . S
C139 O149 1.265 . S
O140 C139 1.227 . S
N141 Co138 2.121 . S
N141 C143 1.375 . S
N141 C144 1.313 . S
C142 C143 1.338 . S
C142 N145 1.377 . S
C142 H162 0.930 . S
C143 N141 1.375 . S
C143 C142 1.338 . S
C143 H147 0.931 . S
C144 N141 1.313 . S
C144 N145 1.344 . S
C144 H148 0.930 . S
N145 C142 1.377 . S
N145 C144 1.344 . S
O146 Co138 2.055 . S
O146 C150 1.253 . S
H147 C143 0.931 . S
H148 C144 0.930 . S
O149 Co138 2.039 . S
O149 C139 1.265 . S
C150 O146 1.253 . S
C150 O151 1.227 . S
O151 C150 1.227 . S
N152 Co138 2.140 . S
N152 C155 1.346 . S
N152 C156 1.345 . S
C153 C154 1.387 . S
C153 C157 1.391 . S
C154 C153 1.387 . S
C154 C155 1.369 . S
C154 H163 0.929 . S
C155 N152 1.346 . S
C155 C154 1.369 . S
C155 H158 0.928 . S
C156 N152 1.345 . S
C156 C157 1.371 . S
C156 H159 0.931 . S
C157 C153 1.391 . S
C157 C156 1.371 . S
C157 H164 0.930 . S
H158 C155 0.928 . S
H159 C156 0.931 . S
H160 C136 0.930 . S
H161 C133 0.930 . S
H162 C142 0.930 . S
H163 C154 0.929 . S
H164 C157 0.930 . S
C165 C166 1.351 . S
C165 N168 1.368 . S
C165 H170 0.931 . S
C166 C165 1.351 . S
C166 N167 1.373 . S
C166 H194 0.930 . S
N167 C166 1.373 . S
N167 C169 1.340 . S
N168 C165 1.368 . S
N168 C169 1.321 . S
N168 Co171 2.135 . S
C169 N167 1.340 . S
C169 N168 1.321 . S
C169 H193 0.930 . S
H170 C165 0.931 . S
Co171 N168 2.135 . S
Co171 N174 2.121 . S
Co171 O179 2.055 . S
Co171 O182 2.039 . S
Co171 N185 2.140 . S
C172 O173 1.227 . S
C172 O182 1.265 . S
O173 C172 1.227 . S
N174 Co171 2.121 . S
N174 C176 1.375 . S
N174 C177 1.313 . S
C175 C176 1.338 . S
C175 N178 1.377 . S
C175 H195 0.930 . S
C176 N174 1.375 . S
C176 C175 1.338 . S
C176 H180 0.931 . S
C177 N174 1.313 . S
C177 N178 1.344 . S
C177 H181 0.930 . S
N178 C175 1.377 . S
N178 C177 1.344 . S
O179 Co171 2.055 . S
O179 C183 1.253 . S
H180 C176 0.931 . S
H181 C177 0.930 . S
O182 Co171 2.039 . S
O182 C172 1.265 . S
C183 O179 1.253 . S
C183 O184 1.227 . S
O184 C183 1.227 . S
N185 Co171 2.140 . S
N185 C188 1.346 . S
N185 C189 1.345 . S
C186 C187 1.387 . S
C186 C190 1.391 . S
C187 C186 1.387 . S
C187 C188 1.369 . S
C187 H196 0.929 . S
C188 N185 1.346 . S
C188 C187 1.369 . S
C188 H191 0.928 . S
C189 N185 1.345 . S
C189 C190 1.371 . S
C189 H192 0.931 . S
C190 C186 1.391 . S
C190 C189 1.371 . S
C190 H197 0.930 . S
H191 C188 0.928 . S
H192 C189 0.931 . S
H193 C169 0.930 . S
H194 C166 0.930 . S
H195 C175 0.930 . S
H196 C187 0.929 . S
H197 C190 0.930 . S
C198 C199 1.351 . S
C198 N201 1.368 . S
C198 H203 0.931 . S
C199 C198 1.351 . S
C199 N200 1.373 . S
C199 H227 0.930 . S
N200 C199 1.373 . S
N200 C202 1.340 . S
N201 C198 1.368 . S
N201 C202 1.321 . S
N201 Co204 2.135 . S
C202 N200 1.340 . S
C202 N201 1.321 . S
C202 H226 0.930 . S
H203 C198 0.931 . S
Co204 N201 2.135 . S
Co204 N207 2.121 . S
Co204 O212 2.055 . S
Co204 O215 2.039 . S
Co204 N218 2.140 . S
C205 O206 1.227 . S
C205 O215 1.265 . S
O206 C205 1.227 . S
N207 Co204 2.121 . S
N207 C209 1.375 . S
N207 C210 1.313 . S
C208 C209 1.338 . S
C208 N211 1.377 . S
C208 H228 0.930 . S
C209 N207 1.375 . S
C209 C208 1.338 . S
C209 H213 0.931 . S
C210 N207 1.313 . S
C210 N211 1.344 . S
C210 H214 0.930 . S
N211 C208 1.377 . S
N211 C210 1.344 . S
O212 Co204 2.055 . S
O212 C216 1.253 . S
H213 C209 0.931 . S
H214 C210 0.930 . S
O215 Co204 2.039 . S
O215 C205 1.265 . S
C216 O212 1.253 . S
C216 O217 1.227 . S
O217 C216 1.227 . S
N218 Co204 2.140 . S
N218 C221 1.346 . S
N218 C222 1.345 . S
C219 C220 1.387 . S
C219 C223 1.391 . S
C220 C219 1.387 . S
C220 C221 1.369 . S
C220 H229 0.929 . S
C221 N218 1.346 . S
C221 C220 1.369 . S
C221 H224 0.928 . S
C222 N218 1.345 . S
C222 C223 1.371 . S
C222 H225 0.931 . S
C223 C219 1.391 . S
C223 C222 1.371 . S
C223 H230 0.930 . S
H224 C221 0.928 . S
H225 C222 0.931 . S
H226 C202 0.930 . S
H227 C199 0.930 . S
H228 C208 0.930 . S
H229 C220 0.929 . S
H230 C223 0.930 . S
C231 C232 1.351 . S
C231 N234 1.368 . S
C231 H236 0.931 . S
C232 C231 1.351 . S
C232 N233 1.373 1_455 S
C232 H260 0.930 . S
N233 C232 1.373 1_655 S
N233 C235 1.340 . S
N234 C231 1.368 . S
N234 C235 1.321 1_455 S
N234 Co237 2.135 . S
C235 N233 1.340 . S
C235 N234 1.321 1_655 S
C235 H259 0.930 . S
H236 C231 0.931 . S
Co237 N234 2.135 . S
Co237 N240 2.121 . S
Co237 O245 2.055 . S
Co237 O248 2.039 1_455 S
Co237 N251 2.140 . S
C238 O239 1.231 . S
C238 O248 1.265 . S
O239 C238 1.231 . S
N240 Co237 2.121 . S
N240 C242 1.375 . S
N240 C243 1.313 . S
C241 C242 1.338 . S
C241 N244 1.377 . S
C241 H261 0.930 . S
C242 N240 1.375 . S
C242 C241 1.338 . S
C242 H246 0.931 . S
C243 N240 1.313 . S
C243 N244 1.344 . S
C243 H247 0.930 . S
N244 C241 1.377 . S
N244 C243 1.344 . S
O245 Co237 2.055 . S
O245 C249 1.253 . S
H246 C242 0.931 . S
H247 C243 0.930 . S
O248 Co237 2.039 1_655 S
O248 C238 1.265 . S
C249 O245 1.253 . S
C249 O250 1.227 . S
O250 C249 1.227 . S
N251 Co237 2.140 . S
N251 C254 1.346 . S
N251 C255 1.345 . S
C252 C253 1.387 . S
C252 C256 1.391 . S
C253 C252 1.387 . S
C253 C254 1.369 . S
C253 H262 0.929 . S
C254 N251 1.346 . S
C254 C253 1.369 . S
C254 H257 0.928 . S
C255 N251 1.345 . S
C255 C256 1.371 . S
C255 H258 0.931 . S
C256 C252 1.391 . S
C256 C255 1.371 . S
C256 H263 0.930 . S
H257 C254 0.928 . S
H258 C255 0.931 . S
H259 C235 0.930 . S
H260 C232 0.930 . S
H261 C241 0.930 . S
H262 C253 0.929 . S
H263 C256 0.930 . S
C264 C265 1.351 . S
C264 N267 1.368 . S
C264 H269 0.931 . S
C265 C264 1.351 . S
C265 N266 1.373 . S
C265 H293 0.930 . S
N266 C265 1.373 . S
N266 C268 1.340 . S
N267 C264 1.368 . S
N267 C268 1.321 . S
N267 Co270 2.135 . S
C268 N266 1.340 . S
C268 N267 1.321 . S
C268 H292 0.930 . S
H269 C264 0.931 . S
Co270 N267 2.135 . S
Co270 N273 2.121 . S
Co270 O278 2.055 . S
Co270 O281 2.039 . S
Co270 N284 2.140 . S
C271 O272 1.227 . S
C271 O281 1.265 . S
O272 C271 1.227 . S
N273 Co270 2.121 . S
N273 C275 1.375 . S
N273 C276 1.313 . S
C274 C275 1.338 . S
C274 N277 1.377 . S
C274 H294 0.930 . S
C275 N273 1.375 . S
C275 C274 1.338 . S
C275 H279 0.931 . S
C276 N273 1.313 . S
C276 N277 1.344 . S
C276 H280 0.930 . S
N277 C274 1.377 . S
N277 C276 1.344 . S
O278 Co270 2.055 . S
O278 C282 1.253 . S
H279 C275 0.931 . S
H280 C276 0.930 . S
O281 Co270 2.039 . S
O281 C271 1.265 . S
C282 O278 1.253 . S
C282 O283 1.227 . S
O283 C282 1.227 . S
N284 Co270 2.140 . S
N284 C287 1.346 . S
N284 C288 1.345 . S
C285 C286 1.387 . S
C285 C289 1.391 . S
C286 C285 1.387 . S
C286 C287 1.369 . S
C286 H295 0.929 . S
C287 N284 1.346 . S
C287 C286 1.369 . S
C287 H290 0.928 . S
C288 N284 1.345 . S
C288 C289 1.371 . S
C288 H291 0.931 . S
C289 C285 1.391 . S
C289 C288 1.371 . S
C289 H296 0.930 . S
H290 C287 0.928 . S
H291 C288 0.931 . S
H292 C268 0.930 . S
H293 C265 0.930 . S
H294 C274 0.930 . S
H295 C286 0.929 . S
H296 C289 0.930 . S
C297 C298 1.351 . S
C297 N300 1.368 . S
C297 H302 0.931 . S
C298 C297 1.351 . S
C298 N299 1.373 1_556 S
C298 H326 0.930 . S
N299 C298 1.373 1_554 S
N299 C301 1.340 . S
N300 C297 1.368 . S
N300 C301 1.321 1_556 S
N300 Co303 2.135 . S
C301 N299 1.340 . S
C301 N300 1.321 1_554 S
C301 H325 0.930 . S
H302 C297 0.931 . S
Co303 N300 2.135 . S
Co303 N306 2.121 . S
Co303 O311 2.055 . S
Co303 O314 2.039 1_556 S
Co303 N317 2.140 . S
C304 O305 1.231 . S
C304 O314 1.265 . S
O305 C304 1.231 . S
N306 Co303 2.121 . S
N306 C308 1.375 . S
N306 C309 1.313 . S
C307 C308 1.338 . S
C307 N310 1.377 . S
C307 H327 0.930 . S
C308 N306 1.375 . S
C308 C307 1.338 . S
C308 H312 0.931 . S
C309 N306 1.313 . S
C309 N310 1.344 . S
C309 H313 0.930 . S
N310 C307 1.377 . S
N310 C309 1.344 . S
O311 Co303 2.055 . S
O311 C315 1.253 . S
H312 C308 0.931 . S
H313 C309 0.930 . S
O314 Co303 2.039 1_554 S
O314 C304 1.265 . S
C315 O311 1.253 . S
C315 O316 1.227 . S
O316 C315 1.227 . S
N317 Co303 2.140 . S
N317 C320 1.346 . S
N317 C321 1.345 . S
C318 C319 1.387 . S
C318 C322 1.391 . S
C319 C318 1.387 . S
C319 C320 1.369 . S
C319 H328 0.929 . S
C320 N317 1.346 . S
C320 C319 1.369 . S
C320 H323 0.928 . S
C321 N317 1.345 . S
C321 C322 1.371 . S
C321 H324 0.931 . S
C322 C318 1.391 . S
C322 C321 1.371 . S
C322 H329 0.930 . S
H323 C320 0.928 . S
H324 C321 0.931 . S
H325 C301 0.930 . S
H326 C298 0.930 . S
H327 C307 0.930 . S
H328 C319 0.929 . S
H329 C322 0.930 . S
C330 C331 1.351 . S
C330 N333 1.368 . S
C330 H335 0.931 . S
C331 C330 1.351 . S
C331 N332 1.373 . S
C331 H359 0.930 . S
N332 C331 1.373 . S
N332 C334 1.340 . S
N333 C330 1.368 . S
N333 C334 1.321 . S
N333 Co336 2.135 . S
C334 N332 1.340 . S
C334 N333 1.321 . S
C334 H358 0.930 . S
H335 C330 0.931 . S
Co336 N333 2.135 . S
Co336 N339 2.121 . S
Co336 O344 2.055 . S
Co336 O347 2.039 . S
Co336 N350 2.140 . S
C337 O338 1.227 . S
C337 O347 1.265 . S
O338 C337 1.227 . S
N339 Co336 2.121 . S
N339 C341 1.375 . S
N339 C342 1.313 . S
C340 C341 1.338 . S
C340 N343 1.377 . S
C340 H360 0.930 . S
C341 N339 1.375 . S
C341 C340 1.338 . S
C341 H345 0.931 . S
C342 N339 1.313 . S
C342 N343 1.344 . S
C342 H346 0.930 . S
N343 C340 1.377 . S
N343 C342 1.344 . S
O344 Co336 2.055 . S
O344 C348 1.253 . S
H345 C341 0.931 . S
H346 C342 0.930 . S
O347 Co336 2.039 . S
O347 C337 1.265 . S
C348 O344 1.253 . S
C348 O349 1.227 . S
O349 C348 1.227 . S
N350 Co336 2.140 . S
N350 C353 1.346 . S
N350 C354 1.345 . S
C351 C352 1.387 . S
C351 C355 1.391 . S
C352 C351 1.387 . S
C352 C353 1.369 . S
C352 H361 0.929 . S
C353 N350 1.346 . S
C353 C352 1.369 . S
C353 H356 0.928 . S
C354 N350 1.345 . S
C354 C355 1.371 . S
C354 H357 0.931 . S
C355 C351 1.391 . S
C355 C354 1.371 . S
C355 H362 0.930 . S
H356 C353 0.928 . S
H357 C354 0.931 . S
H358 C334 0.930 . S
H359 C331 0.930 . S
H360 C340 0.930 . S
H361 C352 0.929 . S
H362 C355 0.930 . S
C363 C364 1.351 . S
C363 N366 1.368 . S
C363 H368 0.931 . S
C364 C363 1.351 . S
C364 N365 1.373 . S
C364 H392 0.930 . S
N365 C364 1.373 . S
N365 C367 1.340 . S
N366 C363 1.368 . S
N366 C367 1.321 . S
N366 Co369 2.135 . S
C367 N365 1.340 . S
C367 N366 1.321 . S
C367 H391 0.930 . S
H368 C363 0.931 . S
Co369 N366 2.135 . S
Co369 N372 2.121 . S
Co369 O377 2.055 . S
Co369 O380 2.039 . S
Co369 N383 2.140 . S
C370 O371 1.227 . S
C370 O380 1.265 . S
O371 C370 1.227 . S
N372 Co369 2.121 . S
N372 C374 1.375 . S
N372 C375 1.313 . S
C373 C374 1.338 . S
C373 N376 1.377 . S
C373 H393 0.930 . S
C374 N372 1.375 . S
C374 C373 1.338 . S
C374 H378 0.931 . S
C375 N372 1.313 . S
C375 N376 1.344 . S
C375 H379 0.930 . S
N376 C373 1.377 . S
N376 C375 1.344 . S
O377 Co369 2.055 . S
O377 C381 1.253 . S
H378 C374 0.931 . S
H379 C375 0.930 . S
O380 Co369 2.039 . S
O380 C370 1.265 . S
C381 O377 1.253 . S
C381 O382 1.227 . S
O382 C381 1.227 . S
N383 Co369 2.140 . S
N383 C386 1.346 . S
N383 C387 1.345 . S
C384 C385 1.387 . S
C384 C388 1.391 . S
C385 C384 1.387 . S
C385 C386 1.369 . S
C385 H394 0.929 . S
C386 N383 1.346 . S
C386 C385 1.369 . S
C386 H389 0.928 . S
C387 N383 1.345 . S
C387 C388 1.371 . S
C387 H390 0.931 . S
C388 C384 1.391 . S
C388 C387 1.371 . S
C388 H395 0.930 . S
H389 C386 0.928 . S
H390 C387 0.931 . S
H391 C367 0.930 . S
H392 C364 0.930 . S
H393 C373 0.930 . S
H394 C385 0.929 . S
H395 C388 0.930 . S
C396 C397 1.351 . S
C396 N399 1.368 . S
C396 H401 0.931 . S
C397 C396 1.351 . S
C397 N398 1.373 . S
C397 H425 0.930 . S
N398 C397 1.373 . S
N398 C400 1.340 . S
N399 C396 1.368 . S
N399 C400 1.321 . S
N399 Co402 2.135 . S
C400 N398 1.340 . S
C400 N399 1.321 . S
C400 H424 0.930 . S
H401 C396 0.931 . S
Co402 N399 2.135 . S
Co402 N405 2.121 . S
Co402 O410 2.055 . S
Co402 O413 2.039 . S
Co402 N416 2.140 . S
C403 O404 1.227 . S
C403 O413 1.265 . S
O404 C403 1.227 . S
N405 Co402 2.121 . S
N405 C407 1.375 . S
N405 C408 1.313 . S
C406 C407 1.338 . S
C406 N409 1.377 . S
C406 H426 0.930 . S
C407 N405 1.375 . S
C407 C406 1.338 . S
C407 H411 0.931 . S
C408 N405 1.313 . S
C408 N409 1.344 . S
C408 H412 0.930 . S
N409 C406 1.377 . S
N409 C408 1.344 . S
O410 Co402 2.055 . S
O410 C414 1.253 . S
H411 C407 0.931 . S
H412 C408 0.930 . S
O413 Co402 2.039 . S
O413 C403 1.265 . S
C414 O410 1.253 . S
C414 O415 1.227 . S
O415 C414 1.227 . S
N416 Co402 2.140 . S
N416 C419 1.346 . S
N416 C420 1.345 . S
C417 C418 1.387 . S
C417 C421 1.391 . S
C418 C417 1.387 . S
C418 C419 1.369 . S
C418 H427 0.929 . S
C419 N416 1.346 . S
C419 C418 1.369 . S
C419 H422 0.928 . S
C420 N416 1.345 . S
C420 C421 1.371 . S
C420 H423 0.931 . S
C421 C417 1.391 . S
C421 C420 1.371 . S
C421 H428 0.930 . S
H422 C419 0.928 . S
H423 C420 0.931 . S
H424 C400 0.930 . S
H425 C397 0.930 . S
H426 C406 0.930 . S
H427 C418 0.929 . S
H428 C421 0.930 . S
C429 C430 1.351 . S
C429 N432 1.368 . S
C429 H434 0.931 . S
C430 C429 1.351 . S
C430 N431 1.373 . S
C430 H458 0.930 . S
N431 C430 1.373 . S
N431 C433 1.340 . S
N432 C429 1.368 . S
N432 C433 1.321 . S
N432 Co435 2.135 . S
C433 N431 1.340 . S
C433 N432 1.321 . S
C433 H457 0.930 . S
H434 C429 0.931 . S
Co435 N432 2.135 . S
Co435 N438 2.121 . S
Co435 O443 2.055 . S
Co435 O446 2.039 . S
Co435 N449 2.140 . S
C436 O437 1.227 . S
C436 O446 1.265 . S
O437 C436 1.227 . S
N438 Co435 2.121 . S
N438 C440 1.375 . S
N438 C441 1.313 . S
C439 C440 1.338 . S
C439 N442 1.377 . S
C439 H459 0.930 . S
C440 N438 1.375 . S
C440 C439 1.338 . S
C440 H444 0.931 . S
C441 N438 1.313 . S
C441 N442 1.344 . S
C441 H445 0.930 . S
N442 C439 1.377 . S
N442 C441 1.344 . S
O443 Co435 2.055 . S
O443 C447 1.253 . S
H444 C440 0.931 . S
H445 C441 0.930 . S
O446 Co435 2.039 . S
O446 C436 1.265 . S
C447 O443 1.253 . S
C447 O448 1.227 . S
O448 C447 1.227 . S
N449 Co435 2.140 . S
N449 C452 1.346 . S
N449 C453 1.345 . S
C450 C451 1.387 . S
C450 C454 1.391 . S
C451 C450 1.387 . S
C451 C452 1.369 . S
C451 H460 0.929 . S
C452 N449 1.346 . S
C452 C451 1.369 . S
C452 H455 0.928 . S
C453 N449 1.345 . S
C453 C454 1.371 . S
C453 H456 0.931 . S
C454 C450 1.391 . S
C454 C453 1.371 . S
C454 H461 0.930 . S
H455 C452 0.928 . S
H456 C453 0.931 . S
H457 C433 0.930 . S
H458 C430 0.930 . S
H459 C439 0.930 . S
H460 C451 0.929 . S
H461 C454 0.930 . S
C462 C463 1.351 . S
C462 N465 1.368 . S
C462 H467 0.931 . S
C463 C462 1.351 . S
C463 N464 1.373 . S
C463 H491 0.930 . S
N464 C463 1.373 . S
N464 C466 1.340 . S
N465 C462 1.368 . S
N465 C466 1.321 . S
N465 Co468 2.135 . S
C466 N464 1.340 . S
C466 N465 1.321 . S
C466 H490 0.930 . S
H467 C462 0.931 . S
Co468 N465 2.135 . S
Co468 N471 2.121 . S
Co468 O476 2.055 . S
Co468 O479 2.039 . S
Co468 N482 2.140 . S
C469 O470 1.227 . S
C469 O479 1.265 . S
O470 C469 1.227 . S
N471 Co468 2.121 . S
N471 C473 1.375 . S
N471 C474 1.313 . S
C472 C473 1.338 . S
C472 N475 1.377 . S
C472 H492 0.930 . S
C473 N471 1.375 . S
C473 C472 1.338 . S
C473 H477 0.931 . S
C474 N471 1.313 . S
C474 N475 1.344 . S
C474 H478 0.930 . S
N475 C472 1.377 . S
N475 C474 1.344 . S
O476 Co468 2.055 . S
O476 C480 1.253 . S
H477 C473 0.931 . S
H478 C474 0.930 . S
O479 Co468 2.039 . S
O479 C469 1.265 . S
C480 O476 1.253 . S
C480 O481 1.227 . S
O481 C480 1.227 . S
N482 Co468 2.140 . S
N482 C485 1.346 . S
N482 C486 1.345 . S
C483 C484 1.387 . S
C483 C487 1.391 . S
C484 C483 1.387 . S
C484 C485 1.369 . S
C484 H493 0.929 . S
C485 N482 1.346 . S
C485 C484 1.369 . S
C485 H488 0.928 . S
C486 N482 1.345 . S
C486 C487 1.371 . S
C486 H489 0.931 . S
C487 C483 1.391 . S
C487 C486 1.371 . S
C487 H494 0.930 . S
H488 C485 0.928 . S
H489 C486 0.931 . S
H490 C466 0.930 . S
H491 C463 0.930 . S
H492 C472 0.930 . S
H493 C484 0.929 . S
H494 C487 0.930 . S
C495 C496 1.351 . S
C495 N498 1.368 . S
C495 H500 0.931 . S
C496 C495 1.351 . S
C496 N497 1.373 1_554 S
C496 H524 0.930 . S
N497 C496 1.373 1_556 S
N497 C499 1.340 . S
N498 C495 1.368 . S
N498 C499 1.321 1_554 S
N498 Co501 2.135 . S
C499 N497 1.340 . S
C499 N498 1.321 1_556 S
C499 H523 0.930 . S
H500 C495 0.931 . S
Co501 N498 2.135 . S
Co501 N504 2.121 . S
Co501 O509 2.055 . S
Co501 O512 2.039 1_554 S
Co501 N515 2.140 . S
C502 O503 1.231 . S
C502 O512 1.265 . S
O503 C502 1.231 . S
N504 Co501 2.121 . S
N504 C506 1.375 . S
N504 C507 1.313 . S
C505 C506 1.338 . S
C505 N508 1.377 . S
C505 H525 0.930 . S
C506 N504 1.375 . S
C506 C505 1.338 . S
C506 H510 0.931 . S
C507 N504 1.313 . S
C507 N508 1.344 . S
C507 H511 0.930 . S
N508 C505 1.377 . S
N508 C507 1.344 . S
O509 Co501 2.055 . S
O509 C513 1.253 . S
H510 C506 0.931 . S
H511 C507 0.930 . S
O512 Co501 2.039 1_556 S
O512 C502 1.265 . S
C513 O509 1.253 . S
C513 O514 1.227 . S
O514 C513 1.227 . S
N515 Co501 2.140 . S
N515 C518 1.346 . S
N515 C519 1.345 . S
C516 C517 1.387 . S
C516 C520 1.391 . S
C517 C516 1.387 . S
C517 C518 1.369 . S
C517 H526 0.929 . S
C518 N515 1.346 . S
C518 C517 1.369 . S
C518 H521 0.928 . S
C519 N515 1.345 . S
C519 C520 1.371 . S
C519 H522 0.931 . S
C520 C516 1.391 . S
C520 C519 1.371 . S
C520 H527 0.930 . S
H521 C518 0.928 . S
H522 C519 0.931 . S
H523 C499 0.930 . S
H524 C496 0.930 . S
H525 C505 0.930 . S
H526 C517 0.929 . S
H527 C520 0.930 . S
C528 C529 1.351 . S
C528 N531 1.368 . S
C528 H533 0.931 . S
C529 C528 1.351 . S
C529 N530 1.373 . S
C529 H557 0.930 . S
N530 C529 1.373 . S
N530 C532 1.340 . S
N531 C528 1.368 . S
N531 C532 1.321 . S
N531 Co534 2.135 . S
C532 N530 1.340 . S
C532 N531 1.321 . S
C532 H556 0.930 . S
H533 C528 0.931 . S
Co534 N531 2.135 . S
Co534 N537 2.121 . S
Co534 O542 2.055 . S
Co534 O545 2.039 . S
Co534 N548 2.140 . S
C535 O536 1.227 . S
C535 O545 1.265 . S
O536 C535 1.227 . S
N537 Co534 2.121 . S
N537 C539 1.375 . S
N537 C540 1.313 . S
C538 C539 1.338 . S
C538 N541 1.377 . S
C538 H558 0.930 . S
C539 N537 1.375 . S
C539 C538 1.338 . S
C539 H543 0.931 . S
C540 N537 1.313 . S
C540 N541 1.344 . S
C540 H544 0.930 . S
N541 C538 1.377 . S
N541 C540 1.344 . S
O542 Co534 2.055 . S
O542 C546 1.253 . S
H543 C539 0.931 . S
H544 C540 0.930 . S
O545 Co534 2.039 . S
O545 C535 1.265 . S
C546 O542 1.253 . S
C546 O547 1.227 . S
O547 C546 1.227 . S
N548 Co534 2.140 . S
N548 C551 1.346 . S
N548 C552 1.345 . S
C549 C550 1.387 . S
C549 C553 1.391 . S
C550 C549 1.387 . S
C550 C551 1.369 . S
C550 H559 0.929 . S
C551 N548 1.346 . S
C551 C550 1.369 . S
C551 H554 0.928 . S
C552 N548 1.345 . S
C552 C553 1.371 . S
C552 H555 0.931 . S
C553 C549 1.391 . S
C553 C552 1.371 . S
C553 H560 0.930 . S
H554 C551 0.928 . S
H555 C552 0.931 . S
H556 C532 0.930 . S
H557 C529 0.930 . S
H558 C538 0.930 . S
H559 C550 0.929 . S
H560 C553 0.930 . S
C561 C562 1.351 . S
C561 N564 1.368 . S
C561 H566 0.931 . S
C562 C561 1.351 . S
C562 N563 1.373 . S
C562 H590 0.930 . S
N563 C562 1.373 . S
N563 C565 1.340 . S
N564 C561 1.368 . S
N564 C565 1.321 . S
N564 Co567 2.135 . S
C565 N563 1.340 . S
C565 N564 1.321 . S
C565 H589 0.930 . S
H566 C561 0.931 . S
Co567 N564 2.135 . S
Co567 N570 2.121 . S
Co567 O575 2.055 . S
Co567 O578 2.039 . S
Co567 N581 2.140 . S
C568 O569 1.227 . S
C568 O578 1.265 . S
O569 C568 1.227 . S
N570 Co567 2.121 . S
N570 C572 1.375 . S
N570 C573 1.313 . S
C571 C572 1.338 . S
C571 N574 1.377 . S
C571 H591 0.930 . S
C572 N570 1.375 . S
C572 C571 1.338 . S
C572 H576 0.931 . S
C573 N570 1.313 . S
C573 N574 1.344 . S
C573 H577 0.930 . S
N574 C571 1.377 . S
N574 C573 1.344 . S
O575 Co567 2.055 . S
O575 C579 1.253 . S
H576 C572 0.931 . S
H577 C573 0.930 . S
O578 Co567 2.039 . S
O578 C568 1.265 . S
C579 O575 1.253 . S
C579 O580 1.227 . S
O580 C579 1.227 . S
N581 Co567 2.140 . S
N581 C584 1.346 . S
N581 C585 1.345 . S
C582 C583 1.387 . S
C582 C586 1.391 . S
C583 C582 1.387 . S
C583 C584 1.369 . S
C583 H592 0.929 . S
C584 N581 1.346 . S
C584 C583 1.369 . S
C584 H587 0.928 . S
C585 N581 1.345 . S
C585 C586 1.371 . S
C585 H588 0.931 . S
C586 C582 1.391 . S
C586 C585 1.371 . S
C586 H593 0.930 . S
H587 C584 0.928 . S
H588 C585 0.931 . S
H589 C565 0.930 . S
H590 C562 0.930 . S
H591 C571 0.930 . S
H592 C583 0.929 . S
H593 C586 0.930 . S
C594 C595 1.351 . S
C594 N597 1.368 . S
C594 H599 0.931 . S
C595 C594 1.351 . S
C595 N596 1.373 1_565 S
C595 H623 0.930 . S
N596 C595 1.373 1_545 S
N596 C598 1.340 . S
N597 C594 1.368 . S
N597 C598 1.321 1_565 S
N597 Co600 2.135 . S
C598 N596 1.340 . S
C598 N597 1.321 1_545 S
C598 H622 0.930 . S
H599 C594 0.931 . S
Co600 N597 2.135 . S
Co600 N603 2.121 . S
Co600 O608 2.055 . S
Co600 O611 2.039 1_565 S
Co600 N614 2.140 . S
C601 O602 1.231 . S
C601 O611 1.265 . S
O602 C601 1.231 . S
N603 Co600 2.121 . S
N603 C605 1.375 . S
N603 C606 1.313 . S
C604 C605 1.338 . S
C604 N607 1.377 . S
C604 H624 0.930 . S
C605 N603 1.375 . S
C605 C604 1.338 . S
C605 H609 0.931 . S
C606 N603 1.313 . S
C606 N607 1.344 . S
C606 H610 0.930 . S
N607 C604 1.377 . S
N607 C606 1.344 . S
O608 Co600 2.055 . S
O608 C612 1.253 . S
H609 C605 0.931 . S
H610 C606 0.930 . S
O611 Co600 2.039 1_545 S
O611 C601 1.265 . S
C612 O608 1.253 . S
C612 O613 1.227 . S
O613 C612 1.227 . S
N614 Co600 2.140 . S
N614 C617 1.346 . S
N614 C618 1.345 . S
C615 C616 1.387 . S
C615 C619 1.391 . S
C616 C615 1.387 . S
C616 C617 1.369 . S
C616 H625 0.929 . S
C617 N614 1.346 . S
C617 C616 1.369 . S
C617 H620 0.928 . S
C618 N614 1.345 . S
C618 C619 1.371 . S
C618 H621 0.931 . S
C619 C615 1.391 . S
C619 C618 1.371 . S
C619 H626 0.930 . S
H620 C617 0.928 . S
H621 C618 0.931 . S
H622 C598 0.930 . S
H623 C595 0.930 . S
H624 C604 0.930 . S
H625 C616 0.929 . S
H626 C619 0.930 . S
C627 C628 1.351 . S
C627 N630 1.368 . S
C627 H632 0.931 . S
C628 C627 1.351 . S
C628 N629 1.373 . S
C628 H656 0.930 . S
N629 C628 1.373 . S
N629 C631 1.340 . S
N630 C627 1.368 . S
N630 C631 1.321 . S
N630 Co633 2.135 . S
C631 N629 1.340 . S
C631 N630 1.321 . S
C631 H655 0.930 . S
H632 C627 0.931 . S
Co633 N630 2.135 . S
Co633 N636 2.121 . S
Co633 O641 2.055 . S
Co633 O644 2.039 . S
Co633 N647 2.140 . S
C634 O635 1.227 . S
C634 O644 1.265 . S
O635 C634 1.227 . S
N636 Co633 2.121 . S
N636 C638 1.375 . S
N636 C639 1.313 . S
C637 C638 1.338 . S
C637 N640 1.377 . S
C637 H657 0.930 . S
C638 N636 1.375 . S
C638 C637 1.338 . S
C638 H642 0.931 . S
C639 N636 1.313 . S
C639 N640 1.344 . S
C639 H643 0.930 . S
N640 C637 1.377 . S
N640 C639 1.344 . S
O641 Co633 2.055 . S
O641 C645 1.253 . S
H642 C638 0.931 . S
H643 C639 0.930 . S
O644 Co633 2.039 . S
O644 C634 1.265 . S
C645 O641 1.253 . S
C645 O646 1.227 . S
O646 C645 1.227 . S
N647 Co633 2.140 . S
N647 C650 1.346 . S
N647 C651 1.345 . S
C648 C649 1.387 . S
C648 C652 1.391 . S
C649 C648 1.387 . S
C649 C650 1.369 . S
C649 H658 0.929 . S
C650 N647 1.346 . S
C650 C649 1.369 . S
C650 H653 0.928 . S
C651 N647 1.345 . S
C651 C652 1.371 . S
C651 H654 0.931 . S
C652 C648 1.391 . S
C652 C651 1.371 . S
C652 H659 0.930 . S
H653 C650 0.928 . S
H654 C651 0.931 . S
H655 C631 0.930 . S
H656 C628 0.930 . S
H657 C637 0.930 . S
H658 C649 0.929 . S
H659 C652 0.930 . S
C660 C661 1.351 . S
C660 N663 1.368 . S
C660 H665 0.931 . S
C661 C660 1.351 . S
C661 N662 1.373 1_545 S
C661 H689 0.930 . S
N662 C661 1.373 1_565 S
N662 C664 1.340 . S
N663 C660 1.368 . S
N663 C664 1.321 1_545 S
N663 Co666 2.135 . S
C664 N662 1.340 . S
C664 N663 1.321 1_565 S
C664 H688 0.930 . S
H665 C660 0.931 . S
Co666 N663 2.135 . S
Co666 N669 2.121 . S
Co666 O674 2.055 . S
Co666 O677 2.039 1_545 S
Co666 N680 2.140 . S
C667 O668 1.231 . S
C667 O677 1.265 . S
O668 C667 1.231 . S
N669 Co666 2.121 . S
N669 C671 1.375 . S
N669 C672 1.313 . S
C670 C671 1.338 . S
C670 N673 1.377 . S
C670 H690 0.930 . S
C671 N669 1.375 . S
C671 C670 1.338 . S
C671 H675 0.931 . S
C672 N669 1.313 . S
C672 N673 1.344 . S
C672 H676 0.930 . S
N673 C670 1.377 . S
N673 C672 1.344 . S
O674 Co666 2.055 . S
O674 C678 1.253 . S
H675 C671 0.931 . S
H676 C672 0.930 . S
O677 Co666 2.039 1_565 S
O677 C667 1.265 . S
C678 O674 1.253 . S
C678 O679 1.227 . S
O679 C678 1.227 . S
N680 Co666 2.140 . S
N680 C683 1.346 . S
N680 C684 1.345 . S
C681 C682 1.387 . S
C681 C685 1.391 . S
C682 C681 1.387 . S
C682 C683 1.369 . S
C682 H691 0.929 . S
C683 N680 1.346 . S
C683 C682 1.369 . S
C683 H686 0.928 . S
C684 N680 1.345 . S
C684 C685 1.371 . S
C684 H687 0.931 . S
C685 C681 1.391 . S
C685 C684 1.371 . S
C685 H692 0.930 . S
H686 C683 0.928 . S
H687 C684 0.931 . S
H688 C664 0.930 . S
H689 C661 0.930 . S
H690 C670 0.930 . S
H691 C682 0.929 . S
H692 C685 0.930 . S
C693 C694 1.351 . S
C693 N696 1.368 . S
C693 H698 0.931 . S
C694 C693 1.351 . S
C694 N695 1.373 . S
C694 H722 0.930 . S
N695 C694 1.373 . S
N695 C697 1.340 . S
N696 C693 1.368 . S
N696 C697 1.321 . S
N696 Co699 2.135 . S
C697 N695 1.340 . S
C697 N696 1.321 . S
C697 H721 0.930 . S
H698 C693 0.931 . S
Co699 N696 2.135 . S
Co699 N702 2.121 . S
Co699 O707 2.055 . S
Co699 O710 2.039 . S
Co699 N713 2.140 . S
C700 O701 1.227 . S
C700 O710 1.265 . S
O701 C700 1.227 . S
N702 Co699 2.121 . S
N702 C704 1.375 . S
N702 C705 1.313 . S
C703 C704 1.338 . S
C703 N706 1.377 . S
C703 H723 0.930 . S
C704 N702 1.375 . S
C704 C703 1.338 . S
C704 H708 0.931 . S
C705 N702 1.313 . S
C705 N706 1.344 . S
C705 H709 0.930 . S
N706 C703 1.377 . S
N706 C705 1.344 . S
O707 Co699 2.055 . S
O707 C711 1.253 . S
H708 C704 0.931 . S
H709 C705 0.930 . S
O710 Co699 2.039 . S
O710 C700 1.265 . S
C711 O707 1.253 . S
C711 O712 1.227 . S
O712 C711 1.227 . S
N713 Co699 2.140 . S
N713 C716 1.346 . S
N713 C717 1.345 . S
C714 C715 1.387 . S
C714 C718 1.391 . S
C715 C714 1.387 . S
C715 C716 1.369 . S
C715 H724 0.929 . S
C716 N713 1.346 . S
C716 C715 1.369 . S
C716 H719 0.928 . S
C717 N713 1.345 . S
C717 C718 1.371 . S
C717 H720 0.931 . S
C718 C714 1.391 . S
C718 C717 1.371 . S
C718 H725 0.930 . S
H719 C716 0.928 . S
H720 C717 0.931 . S
H721 C697 0.930 . S
H722 C694 0.930 . S
H723 C703 0.930 . S
H724 C715 0.929 . S
H725 C718 0.930 . S
C726 C727 1.351 . S
C726 N729 1.368 . S
C726 H731 0.931 . S
C727 C726 1.351 . S
C727 N728 1.373 . S
C727 H755 0.930 . S
N728 C727 1.373 . S
N728 C730 1.340 . S
N729 C726 1.368 . S
N729 C730 1.321 . S
N729 Co732 2.135 . S
C730 N728 1.340 . S
C730 N729 1.321 . S
C730 H754 0.930 . S
H731 C726 0.931 . S
Co732 N729 2.135 . S
Co732 N735 2.121 . S
Co732 O740 2.055 . S
Co732 O743 2.039 . S
Co732 N746 2.140 . S
C733 O734 1.227 . S
C733 O743 1.265 . S
O734 C733 1.227 . S
N735 Co732 2.121 . S
N735 C737 1.375 . S
N735 C738 1.313 . S
C736 C737 1.338 . S
C736 N739 1.377 . S
C736 H756 0.930 . S
C737 N735 1.375 . S
C737 C736 1.338 . S
C737 H741 0.931 . S
C738 N735 1.313 . S
C738 N739 1.344 . S
C738 H742 0.930 . S
N739 C736 1.377 . S
N739 C738 1.344 . S
O740 Co732 2.055 . S
O740 C744 1.253 . S
H741 C737 0.931 . S
H742 C738 0.930 . S
O743 Co732 2.039 . S
O743 C733 1.265 . S
C744 O740 1.253 . S
C744 O745 1.227 . S
O745 C744 1.227 . S
N746 Co732 2.140 . S
N746 C749 1.346 . S
N746 C750 1.345 . S
C747 C748 1.387 . S
C747 C751 1.391 . S
C748 C747 1.387 . S
C748 C749 1.369 . S
C748 H757 0.929 . S
C749 N746 1.346 . S
C749 C748 1.369 . S
C749 H752 0.928 . S
C750 N746 1.345 . S
C750 C751 1.371 . S
C750 H753 0.931 . S
C751 C747 1.391 . S
C751 C750 1.371 . S
C751 H758 0.930 . S
H752 C749 0.928 . S
H753 C750 0.931 . S
H754 C730 0.930 . S
H755 C727 0.930 . S
H756 C736 0.930 . S
H757 C748 0.929 . S
H758 C751 0.930 . S
C759 C760 1.351 . S
C759 N762 1.368 . S
C759 H764 0.931 . S
C760 C759 1.351 . S
C760 N761 1.373 . S
C760 H788 0.930 . S
N761 C760 1.373 . S
N761 C763 1.340 . S
N762 C759 1.368 . S
N762 C763 1.321 . S
N762 Co765 2.135 . S
C763 N761 1.340 . S
C763 N762 1.321 . S
C763 H787 0.930 . S
H764 C759 0.931 . S
Co765 N762 2.135 . S
Co765 N768 2.121 . S
Co765 O773 2.055 . S
Co765 O776 2.039 . S
Co765 N779 2.140 . S
C766 O767 1.227 . S
C766 O776 1.265 . S
O767 C766 1.227 . S
N768 Co765 2.121 . S
N768 C770 1.375 . S
N768 C771 1.313 . S
C769 C770 1.338 . S
C769 N772 1.377 . S
C769 H789 0.930 . S
C770 N768 1.375 . S
C770 C769 1.338 . S
C770 H774 0.931 . S
C771 N768 1.313 . S
C771 N772 1.344 . S
C771 H775 0.930 . S
N772 C769 1.377 . S
N772 C771 1.344 . S
O773 Co765 2.055 . S
O773 C777 1.253 . S
H774 C770 0.931 . S
H775 C771 0.930 . S
O776 Co765 2.039 . S
O776 C766 1.265 . S
C777 O773 1.253 . S
C777 O778 1.227 . S
O778 C777 1.227 . S
N779 Co765 2.140 . S
N779 C782 1.346 . S
N779 C783 1.345 . S
C780 C781 1.387 . S
C780 C784 1.391 . S
C781 C780 1.387 . S
C781 C782 1.369 . S
C781 H790 0.929 . S
C782 N779 1.346 . S
C782 C781 1.369 . S
C782 H785 0.928 . S
C783 N779 1.345 . S
C783 C784 1.371 . S
C783 H786 0.931 . S
C784 C780 1.391 . S
C784 C783 1.371 . S
C784 H791 0.930 . S
H785 C782 0.928 . S
H786 C783 0.931 . S
H787 C763 0.930 . S
H788 C760 0.930 . S
H789 C769 0.930 . S
H790 C781 0.929 . S
H791 C784 0.930 . S
C792 C793 1.369 . S
C792 C794 1.419 . S
C792 H796 0.930 . S
C793 C792 1.369 . S
C793 C802 1.429 . S
C794 C792 1.419 . S
C794 C795 1.363 . S
C794 H797 0.929 . S
C795 C794 1.363 . S
C795 C801 1.428 . S
H796 C792 0.930 . S
H797 C794 0.929 . S
S798 N799 1.613 . S
S798 N800 1.610 . S
N799 S798 1.613 . S
N799 C802 1.350 . S
N800 S798 1.610 . S
N800 C801 1.351 . S
C801 C795 1.428 . S
C801 N800 1.351 . S
C801 C802 1.434 . S
C802 C793 1.429 . S
C802 N799 1.350 . S
C802 C801 1.434 . S
C803 C804 1.369 . S
C803 C805 1.419 . S
C803 H807 0.930 . S
C804 C803 1.369 . S
C804 C813 1.429 . S
C805 C803 1.419 . S
C805 C806 1.363 . S
C805 H808 0.929 . S
C806 C805 1.363 . S
C806 C812 1.428 . S
H807 C803 0.930 . S
H808 C805 0.929 . S
S809 N810 1.613 . S
S809 N811 1.610 . S
N810 S809 1.613 . S
N810 C813 1.350 . S
N811 S809 1.610 . S
N811 C812 1.351 . S
C812 C806 1.428 . S
C812 N811 1.351 . S
C812 C813 1.434 . S
C813 C804 1.429 . S
C813 N810 1.350 . S
C813 C812 1.434 . S
C814 C815 1.369 . S
C814 C816 1.419 . S
C814 H818 0.930 . S
C815 C814 1.369 . S
C815 C824 1.429 . S
C816 C814 1.419 . S
C816 C817 1.363 . S
C816 H819 0.929 . S
C817 C816 1.363 . S
C817 C823 1.428 . S
H818 C814 0.930 . S
H819 C816 0.929 . S
S820 N821 1.613 . S
S820 N822 1.610 . S
N821 S820 1.613 . S
N821 C824 1.350 . S
N822 S820 1.610 . S
N822 C823 1.351 . S
C823 C817 1.428 . S
C823 N822 1.351 . S
C823 C824 1.434 . S
C824 C815 1.429 . S
C824 N821 1.350 . S
C824 C823 1.434 . S
C825 C826 1.369 . S
C825 C827 1.419 . S
C825 H829 0.930 . S
C826 C825 1.369 . S
C826 C835 1.429 . S
C827 C825 1.419 . S
C827 C828 1.363 . S
C827 H830 0.929 . S
C828 C827 1.363 . S
C828 C834 1.428 . S
H829 C825 0.930 . S
H830 C827 0.929 . S
S831 N832 1.613 . S
S831 N833 1.610 . S
N832 S831 1.613 . S
N832 C835 1.350 . S
N833 S831 1.610 . S
N833 C834 1.351 . S
C834 C828 1.428 . S
C834 N833 1.351 . S
C834 C835 1.434 . S
C835 C826 1.429 . S
C835 N832 1.350 . S
C835 C834 1.434 . S
C836 C837 1.369 . S
C836 C838 1.419 . S
C836 H840 0.930 . S
C837 C836 1.369 . S
C837 C846 1.429 . S
C838 C836 1.419 . S
C838 C839 1.363 . S
C838 H841 0.929 . S
C839 C838 1.363 . S
C839 C845 1.428 . S
H840 C836 0.930 . S
H841 C838 0.929 . S
S842 N843 1.613 . S
S842 N844 1.610 . S
N843 S842 1.613 . S
N843 C846 1.350 . S
N844 S842 1.610 . S
N844 C845 1.351 . S
C845 C839 1.428 . S
C845 N844 1.351 . S
C845 C846 1.434 . S
C846 C837 1.429 . S
C846 N843 1.350 . S
C846 C845 1.434 . S
C847 C848 1.369 1_565 S
C847 C849 1.419 . S
C847 H851 0.930 . S
C848 C847 1.369 1_545 S
C848 C857 1.429 1_545 S
C849 C847 1.419 . S
C849 C850 1.363 . S
C849 H852 0.929 . S
C850 C849 1.363 . S
C850 C856 1.428 . S
H851 C847 0.930 . S
H852 C849 0.929 . S
S853 N854 1.613 1_565 S
S853 N855 1.610 . S
N854 S853 1.613 1_545 S
N854 C857 1.350 1_545 S
N855 S853 1.610 . S
N855 C856 1.351 . S
C856 C850 1.428 . S
C856 N855 1.351 . S
C856 C857 1.434 . S
C857 C848 1.429 1_565 S
C857 N854 1.350 1_565 S
C857 C856 1.434 . S
C858 C859 1.369 . S
C858 C860 1.419 . S
C858 H862 0.930 . S
C859 C858 1.369 . S
C859 C868 1.429 . S
C860 C858 1.419 . S
C860 C861 1.363 . S
C860 H863 0.929 . S
C861 C860 1.363 . S
C861 C867 1.428 . S
H862 C858 0.930 . S
H863 C860 0.929 . S
S864 N865 1.615 . S
S864 N866 1.610 . S
N865 S864 1.615 . S
N865 C868 1.348 1_556 S
N866 S864 1.610 . S
N866 C867 1.351 1_556 S
C867 C861 1.428 . S
C867 N866 1.351 1_554 S
C867 C868 1.434 . S
C868 C859 1.429 . S
C868 N865 1.348 1_554 S
C868 C867 1.434 . S
C869 C870 1.369 1_545 S
C869 C871 1.419 . S
C869 H873 0.930 . S
C870 C869 1.369 1_565 S
C870 C879 1.429 1_565 S
C871 C869 1.419 . S
C871 C872 1.363 . S
C871 H874 0.929 . S
C872 C871 1.363 . S
C872 C878 1.428 . S
H873 C869 0.930 . S
H874 C871 0.929 . S
S875 N876 1.613 1_545 S
S875 N877 1.610 . S
N876 S875 1.613 1_565 S
N876 C879 1.350 1_565 S
N877 S875 1.610 . S
N877 C878 1.351 . S
C878 C872 1.428 . S
C878 N877 1.351 . S
C878 C879 1.434 . S
C879 C870 1.429 1_545 S
C879 N876 1.350 1_545 S
C879 C878 1.434 . S
C880 C881 1.369 . S
C880 C882 1.419 . S
C880 H884 0.930 . S
C881 C880 1.369 . S
C881 C890 1.429 . S
C882 C880 1.419 . S
C882 C883 1.363 . S
C882 H885 0.929 . S
C883 C882 1.363 . S
C883 C889 1.428 . S
H884 C880 0.930 . S
H885 C882 0.929 . S
S886 N887 1.613 . S
S886 N888 1.610 . S
N887 S886 1.613 . S
N887 C890 1.350 . S
N888 S886 1.610 . S
N888 C889 1.351 . S
C889 C883 1.428 . S
C889 N888 1.351 . S
C889 C890 1.434 . S
C890 C881 1.429 . S
C890 N887 1.350 . S
C890 C889 1.434 . S
C891 C892 1.369 . S
C891 C893 1.419 . S
C891 H895 0.930 . S
C892 C891 1.369 . S
C892 C901 1.429 . S
C893 C891 1.419 . S
C893 C894 1.363 . S
C893 H896 0.929 . S
C894 C893 1.363 . S
C894 C900 1.428 . S
H895 C891 0.930 . S
H896 C893 0.929 . S
S897 N898 1.613 . S
S897 N899 1.610 . S
N898 S897 1.613 . S
N898 C901 1.350 . S
N899 S897 1.610 . S
N899 C900 1.351 . S
C900 C894 1.428 . S
C900 N899 1.351 . S
C900 C901 1.434 . S
C901 C892 1.429 . S
C901 N898 1.350 . S
C901 C900 1.434 . S
C902 C903 1.369 . S
C902 C904 1.419 . S
C902 H906 0.930 . S
C903 C902 1.369 . S
C903 C912 1.429 . S
C904 C902 1.419 . S
C904 C905 1.363 . S
C904 H907 0.929 . S
C905 C904 1.363 . S
C905 C911 1.428 . S
H906 C902 0.930 . S
H907 C904 0.929 . S
S908 N909 1.613 . S
S908 N910 1.610 . S
N909 S908 1.613 . S
N909 C912 1.350 . S
N910 S908 1.610 . S
N910 C911 1.351 . S
C911 C905 1.428 . S
C911 N910 1.351 . S
C911 C912 1.434 . S
C912 C903 1.429 . S
C912 N909 1.350 . S
C912 C911 1.434 . S
C913 C914 1.369 1_655 S
C913 C915 1.419 . S
C913 H917 0.930 . S
C914 C913 1.369 1_455 S
C914 C923 1.429 1_455 S
C915 C913 1.419 . S
C915 C916 1.363 . S
C915 H918 0.929 . S
C916 C915 1.363 . S
C916 C922 1.428 . S
H917 C913 0.930 . S
H918 C915 0.929 . S
S919 N920 1.613 1_655 S
S919 N921 1.610 . S
N920 S919 1.613 1_455 S
N920 C923 1.350 1_455 S
N921 S919 1.610 . S
N921 C922 1.351 . S
C922 C916 1.428 . S
C922 N921 1.351 . S
C922 C923 1.434 . S
C923 C914 1.429 1_655 S
C923 N920 1.350 1_655 S
C923 C922 1.434 . S
C924 C925 1.369 . S
C924 C926 1.419 . S
C924 H928 0.930 . S
C925 C924 1.369 . S
C925 C934 1.429 . S
C926 C924 1.419 . S
C926 C927 1.363 . S
C926 H929 0.929 . S
C927 C926 1.363 . S
C927 C933 1.428 . S
H928 C924 0.930 . S
H929 C926 0.929 . S
S930 N931 1.613 . S
S930 N932 1.610 . S
N931 S930 1.613 . S
N931 C934 1.350 . S
N932 S930 1.610 . S
N932 C933 1.351 . S
C933 C927 1.428 . S
C933 N932 1.351 . S
C933 C934 1.434 . S
C934 C925 1.429 . S
C934 N931 1.350 . S
C934 C933 1.434 . S
C935 C936 1.369 . S
C935 C937 1.419 . S
C935 H939 0.930 . S
C936 C935 1.369 . S
C936 C945 1.429 . S
C937 C935 1.419 . S
C937 C938 1.363 . S
C937 H940 0.929 . S
C938 C937 1.363 . S
C938 C944 1.428 . S
H939 C935 0.930 . S
H940 C937 0.929 . S
S941 N942 1.613 . S
S941 N943 1.610 . S
N942 S941 1.613 . S
N942 C945 1.350 . S
N943 S941 1.610 . S
N943 C944 1.351 . S
C944 C938 1.428 . S
C944 N943 1.351 . S
C944 C945 1.434 . S
C945 C936 1.429 . S
C945 N942 1.350 . S
C945 C944 1.434 . S
C946 C947 1.369 . S
C946 C948 1.419 . S
C946 H950 0.930 . S
C947 C946 1.369 . S
C947 C956 1.429 . S
C948 C946 1.419 . S
C948 C949 1.363 . S
C948 H951 0.929 . S
C949 C948 1.363 . S
C949 C955 1.428 . S
H950 C946 0.930 . S
H951 C948 0.929 . S
S952 N953 1.613 . S
S952 N954 1.610 . S
N953 S952 1.613 . S
N953 C956 1.350 . S
N954 S952 1.610 . S
N954 C955 1.351 . S
C955 C949 1.428 . S
C955 N954 1.351 . S
C955 C956 1.434 . S
C956 C947 1.429 . S
C956 N953 1.350 . S
C956 C955 1.434 . S
C957 C958 1.369 1_455 S
C957 C959 1.419 . S
C957 H961 0.930 1_455 S
C958 C957 1.369 1_655 S
C958 C967 1.429 1_655 S
C959 C957 1.419 . S
C959 C960 1.363 . S
C959 H962 0.929 . S
C960 C959 1.363 . S
C960 C966 1.428 . S
H961 C957 0.930 1_655 S
H962 C959 0.929 . S
S963 N964 1.613 . S
S963 N965 1.610 . S
N964 S963 1.613 . S
N964 C967 1.350 . S
N965 S963 1.610 . S
N965 C966 1.351 . S
C966 C960 1.428 . S
C966 N965 1.351 . S
C966 C967 1.434 . S
C967 C958 1.429 1_455 S
C967 N964 1.350 . S
C967 C966 1.434 . S
C968 C969 1.369 . S
C968 C970 1.419 . S
C968 H972 0.930 . S
C969 C968 1.369 . S
C969 C978 1.429 . S
C970 C968 1.419 . S
C970 C971 1.363 . S
C970 H973 0.929 . S
C971 C970 1.363 . S
C971 C977 1.428 . S
H972 C968 0.930 . S
H973 C970 0.929 . S
S974 N975 1.613 . S
S974 N976 1.610 . S
N975 S974 1.613 . S
N975 C978 1.350 . S
N976 S974 1.610 . S
N976 C977 1.351 . S
C977 C971 1.428 . S
C977 N976 1.351 . S
C977 C978 1.434 . S
C978 C969 1.429 . S
C978 N975 1.350 . S
C978 C977 1.434 . S
C979 C980 1.369 . S
C979 C981 1.419 . S
C979 H983 0.930 . S
C980 C979 1.369 . S
C980 C989 1.429 . S
C981 C979 1.419 . S
C981 C982 1.363 . S
C981 H984 0.929 . S
C982 C981 1.363 . S
C982 C988 1.428 . S
H983 C979 0.930 . S
H984 C981 0.929 . S
S985 N986 1.613 . S
S985 N987 1.610 . S
N986 S985 1.613 . S
N986 C989 1.350 1_565 S
N987 S985 1.610 . S
N987 C988 1.351 1_565 S
C988 C982 1.428 . S
C988 N987 1.351 1_545 S
C988 C989 1.434 . S
C989 C980 1.429 . S
C989 N986 1.350 1_545 S
C989 C988 1.434 . S
C990 C991 1.369 . S
C990 C992 1.419 . S
C990 H994 0.930 . S
C991 C990 1.369 . S
C991 C1000 1.429 . S
C992 C990 1.419 . S
C992 C993 1.363 . S
C992 H995 0.929 . S
C993 C992 1.363 . S
C993 C999 1.428 . S
H994 C990 0.930 . S
H995 C992 0.929 . S
S996 N997 1.613 . S
S996 N998 1.610 . S
N997 S996 1.613 . S
N997 C1000 1.350 . S
N998 S996 1.610 . S
N998 C999 1.351 . S
C999 C993 1.428 . S
C999 N998 1.351 . S
C999 C1000 1.434 . S
C1000 C991 1.429 . S
C1000 N997 1.350 . S
C1000 C999 1.434 . S
C1001 C1002 1.369 . S
C1001 C1003 1.419 . S
C1001 H1005 0.930 . S
C1002 C1001 1.369 . S
C1002 C1011 1.429 . S
C1003 C1001 1.419 . S
C1003 C1004 1.363 . S
C1003 H1006 0.929 . S
C1004 C1003 1.363 . S
C1004 C1010 1.428 . S
H1005 C1001 0.930 . S
H1006 C1003 0.929 . S
S1007 N1008 1.613 . S
S1007 N1009 1.610 . S
N1008 S1007 1.613 . S
N1008 C1011 1.350 . S
N1009 S1007 1.610 . S
N1009 C1010 1.351 . S
C1010 C1004 1.428 . S
C1010 N1009 1.351 . S
C1010 C1011 1.434 . S
C1011 C1002 1.429 . S
C1011 N1008 1.350 . S
C1011 C1010 1.434 . S
C1012 C1013 1.369 . S
C1012 C1014 1.419 . S
C1012 H1016 0.930 . S
C1013 C1012 1.369 . S
C1013 C1022 1.429 . S
C1014 C1012 1.419 . S
C1014 C1015 1.363 1_554 S
C1014 H1017 0.929 1_554 S
C1015 C1014 1.363 1_556 S
C1015 C1021 1.428 1_556 S
H1016 C1012 0.930 . S
H1017 C1014 0.929 1_556 S
S1018 N1019 1.613 . S
S1018 N1020 1.610 . S
N1019 S1018 1.613 . S
N1019 C1022 1.350 . S
N1020 S1018 1.610 . S
N1020 C1021 1.351 . S
C1021 C1015 1.428 1_554 S
C1021 N1020 1.351 . S
C1021 C1022 1.434 . S
C1022 C1013 1.429 . S
C1022 N1019 1.350 . S
C1022 C1021 1.434 . S
C1023 C1024 1.369 . S
C1023 C1025 1.419 . S
C1023 H1027 0.930 . S
C1024 C1023 1.369 . S
C1024 C1033 1.429 . S
C1025 C1023 1.419 . S
C1025 C1026 1.363 . S
C1025 H1028 0.929 . S
C1026 C1025 1.363 . S
C1026 C1032 1.428 . S
H1027 C1023 0.930 . S
H1028 C1025 0.929 . S
S1029 N1030 1.613 . S
S1029 N1031 1.610 . S
N1030 S1029 1.613 . S
N1030 C1033 1.350 . S
N1031 S1029 1.610 . S
N1031 C1032 1.351 . S
C1032 C1026 1.428 . S
C1032 N1031 1.351 . S
C1032 C1033 1.434 . S
C1033 C1024 1.429 . S
C1033 N1030 1.350 . S
C1033 C1032 1.434 . S
C1034 C1035 1.369 . S
C1034 C1036 1.419 . S
C1034 H1038 0.930 . S
C1035 C1034 1.369 . S
C1035 C1044 1.429 . S
C1036 C1034 1.419 . S
C1036 C1037 1.363 . S
C1036 H1039 0.929 . S
C1037 C1036 1.363 . S
C1037 C1043 1.428 . S
H1038 C1034 0.930 . S
H1039 C1036 0.929 . S
S1040 N1041 1.613 . S
S1040 N1042 1.610 . S
N1041 S1040 1.613 . S
N1041 C1044 1.350 . S
N1042 S1040 1.610 . S
N1042 C1043 1.351 . S
C1043 C1037 1.428 . S
C1043 N1042 1.351 . S
C1043 C1044 1.434 . S
C1044 C1035 1.429 . S
C1044 N1041 1.350 . S
C1044 C1043 1.434 . S
C1045 C1046 1.369 1_556 S
C1045 C1047 1.419 . S
C1045 H1049 0.930 1_556 S
C1046 C1045 1.369 1_554 S
C1046 C1055 1.429 1_554 S
C1047 C1045 1.419 . S
C1047 C1048 1.363 . S
C1047 H1050 0.929 . S
C1048 C1047 1.363 . S
C1048 C1054 1.428 . S
H1049 C1045 0.930 1_554 S
H1050 C1047 0.929 . S
S1051 N1052 1.613 . S
S1051 N1053 1.610 . S
N1052 S1051 1.613 . S
N1052 C1055 1.350 . S
N1053 S1051 1.610 . S
N1053 C1054 1.351 . S
C1054 C1048 1.428 . S
C1054 N1053 1.351 . S
C1054 C1055 1.434 . S
C1055 C1046 1.429 1_556 S
C1055 N1052 1.350 . S
C1055 C1054 1.434 . S
C1056 C1057 1.369 . S
C1056 C1058 1.419 . S
C1056 H1060 0.930 . S
C1057 C1056 1.369 . S
C1057 C1066 1.429 . S
C1058 C1056 1.419 . S
C1058 C1059 1.363 . S
C1058 H1061 0.929 . S
C1059 C1058 1.363 . S
C1059 C1065 1.428 . S
H1060 C1056 0.930 . S
H1061 C1058 0.929 . S
S1062 N1063 1.613 . S
S1062 N1064 1.610 . S
N1063 S1062 1.613 . S
N1063 C1066 1.350 . S
N1064 S1062 1.610 . S
N1064 C1065 1.351 . S
C1065 C1059 1.428 . S
C1065 N1064 1.351 . S
C1065 C1066 1.434 . S
C1066 C1057 1.429 . S
C1066 N1063 1.350 . S
C1066 C1065 1.434 . S
C1067 C1068 1.369 1_554 S
C1067 C1069 1.419 . S
C1067 H1071 0.930 1_554 S
C1068 C1067 1.369 1_556 S
C1068 C1077 1.429 . S
C1069 C1067 1.419 . S
C1069 C1070 1.363 . S
C1069 H1072 0.929 . S
C1070 C1069 1.363 . S
C1070 C1076 1.428 . S
H1071 C1067 0.930 1_556 S
H1072 C1069 0.929 . S
S1073 N1074 1.613 . S
S1073 N1075 1.610 1_556 S
N1074 S1073 1.613 . S
N1074 C1077 1.350 . S
N1075 S1073 1.610 1_554 S
N1075 C1076 1.351 . S
C1076 C1070 1.428 . S
C1076 N1075 1.351 . S
C1076 C1077 1.434 1_554 S
C1077 C1068 1.429 . S
C1077 N1074 1.350 . S
C1077 C1076 1.434 1_556 S
C1078 C1079 1.369 . S
C1078 C1080 1.419 . S
C1078 H1082 0.930 . S
C1079 C1078 1.369 . S
C1079 C1088 1.429 . S
C1080 C1078 1.419 . S
C1080 C1081 1.363 . S
C1080 H1083 0.929 . S
C1081 C1080 1.363 . S
C1081 C1087 1.428 . S
H1082 C1078 0.930 . S
H1083 C1080 0.929 . S
S1084 N1085 1.613 . S
S1084 N1086 1.610 . S
N1085 S1084 1.613 . S
N1085 C1088 1.350 . S
N1086 S1084 1.610 . S
N1086 C1087 1.351 . S
C1087 C1081 1.428 . S
C1087 N1086 1.351 . S
C1087 C1088 1.434 . S
C1088 C1079 1.429 . S
C1088 N1085 1.350 . S
C1088 C1087 1.434 . S
C1089 C1090 1.369 . S
C1089 C1091 1.419 . S
C1089 H1093 0.930 . S
C1090 C1089 1.369 . S
C1090 C1099 1.429 . S
C1091 C1089 1.419 . S
C1091 C1092 1.363 . S
C1091 H1094 0.929 . S
C1092 C1091 1.363 . S
C1092 C1098 1.428 . S
H1093 C1089 0.930 . S
H1094 C1091 0.929 . S
S1095 N1096 1.613 1_655 S
S1095 N1097 1.610 . S
N1096 S1095 1.613 1_455 S
N1096 C1099 1.350 . S
N1097 S1095 1.610 . S
N1097 C1098 1.351 1_655 S
C1098 C1092 1.428 . S
C1098 N1097 1.351 1_455 S
C1098 C1099 1.434 . S
C1099 C1090 1.429 . S
C1099 N1096 1.350 . S
C1099 C1098 1.434 . S
C1100 C1101 1.369 . S
C1100 C1102 1.419 . S
C1100 H1104 0.930 . S
C1101 C1100 1.369 . S
C1101 C1110 1.429 . S
C1102 C1100 1.419 . S
C1102 C1103 1.363 . S
C1102 H1105 0.929 . S
C1103 C1102 1.363 . S
C1103 C1109 1.428 . S
H1104 C1100 0.930 . S
H1105 C1102 0.929 . S
S1106 N1107 1.613 . S
S1106 N1108 1.610 . S
N1107 S1106 1.613 . S
N1107 C1110 1.350 . S
N1108 S1106 1.610 . S
N1108 C1109 1.351 . S
C1109 C1103 1.428 . S
C1109 N1108 1.351 . S
C1109 C1110 1.434 . S
C1110 C1101 1.429 . S
C1110 N1107 1.350 . S
C1110 C1109 1.434 . S
C1111 C1112 1.369 . S
C1111 C1113 1.419 . S
C1111 H1115 0.930 . S
C1112 C1111 1.369 . S
C1112 C1121 1.429 . S
C1113 C1111 1.419 . S
C1113 C1114 1.363 . S
C1113 H1116 0.929 . S
C1114 C1113 1.363 . S
C1114 C1120 1.428 . S
H1115 C1111 0.930 . S
H1116 C1113 0.929 . S
S1117 N1118 1.613 . S
S1117 N1119 1.610 . S
N1118 S1117 1.613 . S
N1118 C1121 1.350 . S
N1119 S1117 1.610 . S
N1119 C1120 1.351 . S
C1120 C1114 1.428 . S
C1120 N1119 1.351 . S
C1120 C1121 1.434 . S
C1121 C1112 1.429 . S
C1121 N1118 1.350 . S
C1121 C1120 1.434 . S
C1122 C1123 1.369 . S
C1122 C1124 1.419 . S
C1122 H1126 0.930 . S
C1123 C1122 1.369 . S
C1123 C1132 1.429 . S
C1124 C1122 1.419 . S
C1124 C1125 1.363 . S
C1124 H1127 0.929 . S
C1125 C1124 1.363 . S
C1125 C1131 1.428 . S
H1126 C1122 0.930 . S
H1127 C1124 0.929 . S
S1128 N1129 1.613 . S
S1128 N1130 1.610 . S
N1129 S1128 1.613 . S
N1129 C1132 1.350 . S
N1130 S1128 1.610 . S
N1130 C1131 1.351 . S
C1131 C1125 1.428 . S
C1131 N1130 1.351 . S
C1131 C1132 1.434 . S
C1132 C1123 1.429 . S
C1132 N1129 1.350 . S
C1132 C1131 1.434 . S
C1133 C1134 1.369 . S
C1133 C1135 1.419 1_556 S
C1133 H1137 0.930 . S
C1134 C1133 1.369 . S
C1134 C1143 1.429 . S
C1135 C1133 1.419 1_554 S
C1135 C1136 1.363 . S
C1135 H1138 0.929 . S
C1136 C1135 1.363 . S
C1136 C1142 1.428 . S
H1137 C1133 0.930 . S
H1138 C1135 0.929 . S
S1139 N1140 1.613 1_554 S
S1139 N1141 1.610 . S
N1140 S1139 1.613 1_556 S
N1140 C1143 1.350 . S
N1141 S1139 1.610 . S
N1141 C1142 1.351 . S
C1142 C1136 1.428 . S
C1142 N1141 1.351 . S
C1142 C1143 1.434 1_554 S
C1143 C1134 1.429 . S
C1143 N1140 1.350 . S
C1143 C1142 1.434 1_556 S
C1144 C1145 1.369 . S
C1144 C1146 1.419 . S
C1144 H1148 0.930 . S
C1145 C1144 1.369 . S
C1145 C1154 1.429 . S
C1146 C1144 1.419 . S
C1146 C1147 1.363 . S
C1146 H1149 0.929 . S
C1147 C1146 1.363 . S
C1147 C1153 1.428 . S
H1148 C1144 0.930 . S
H1149 C1146 0.929 . S
S1150 N1151 1.613 . S
S1150 N1152 1.610 . S
N1151 S1150 1.613 . S
N1151 C1154 1.350 . S
N1152 S1150 1.610 . S
N1152 C1153 1.351 . S
C1153 C1147 1.428 . S
C1153 N1152 1.351 . S
C1153 C1154 1.434 . S
C1154 C1145 1.429 . S
C1154 N1151 1.350 . S
C1154 C1153 1.434 . S
C1155 C1156 1.369 . S
C1155 C1157 1.419 . S
C1155 H1159 0.930 1_554 S
C1156 C1155 1.369 . S
C1156 C1165 1.429 . S
C1157 C1155 1.419 . S
C1157 C1158 1.363 . S
C1157 H1160 0.929 . S
C1158 C1157 1.363 . S
C1158 C1164 1.428 . S
H1159 C1155 0.930 1_556 S
H1160 C1157 0.929 . S
S1161 N1162 1.613 . S
S1161 N1163 1.610 . S
N1162 S1161 1.613 . S
N1162 C1165 1.350 . S
N1163 S1161 1.610 . S
N1163 C1164 1.351 . S
C1164 C1158 1.428 . S
C1164 N1163 1.351 . S
C1164 C1165 1.434 . S
C1165 C1156 1.429 . S
C1165 N1162 1.350 . S
C1165 C1164 1.434 . S
C1166 C1167 1.369 . S
C1166 C1168 1.419 . S
C1166 H1170 0.930 . S
C1167 C1166 1.369 . S
C1167 C1176 1.429 . S
C1168 C1166 1.419 . S
C1168 C1169 1.363 . S
C1168 H1171 0.929 . S
C1169 C1168 1.363 . S
C1169 C1175 1.428 . S
H1170 C1166 0.930 . S
H1171 C1168 0.929 . S
S1172 N1173 1.613 . S
S1172 N1174 1.610 . S
N1173 S1172 1.613 . S
N1173 C1176 1.350 . S
N1174 S1172 1.610 . S
N1174 C1175 1.351 . S
C1175 C1169 1.428 . S
C1175 N1174 1.351 . S
C1175 C1176 1.434 . S
C1176 C1167 1.429 . S
C1176 N1173 1.350 . S
C1176 C1175 1.434 . S
C1177 C1178 1.369 . S
C1177 C1179 1.419 . S
C1177 H1181 0.930 . S
C1178 C1177 1.369 . S
C1178 C1187 1.429 . S
C1179 C1177 1.419 . S
C1179 C1180 1.363 . S
C1179 H1182 0.929 . S
C1180 C1179 1.363 . S
C1180 C1186 1.428 . S
H1181 C1177 0.930 . S
H1182 C1179 0.929 . S
S1183 N1184 1.613 . S
S1183 N1185 1.610 . S
N1184 S1183 1.613 . S
N1184 C1187 1.350 . S
N1185 S1183 1.610 . S
N1185 C1186 1.351 . S
C1186 C1180 1.428 . S
C1186 N1185 1.351 . S
C1186 C1187 1.434 . S
C1187 C1178 1.429 . S
C1187 N1184 1.350 . S
C1187 C1186 1.434 . S
C1188 C1189 1.369 . S
C1188 C1190 1.419 . S
C1188 H1192 0.930 . S
C1189 C1188 1.369 . S
C1189 C1198 1.429 . S
C1190 C1188 1.419 . S
C1190 C1191 1.363 . S
C1190 H1193 0.929 . S
C1191 C1190 1.363 . S
C1191 C1197 1.428 . S
H1192 C1188 0.930 . S
H1193 C1190 0.929 . S
S1194 N1195 1.613 . S
S1194 N1196 1.610 . S
N1195 S1194 1.613 . S
N1195 C1198 1.350 . S
N1196 S1194 1.610 . S
N1196 C1197 1.351 . S
C1197 C1191 1.428 . S
C1197 N1196 1.351 . S
C1197 C1198 1.434 . S
C1198 C1189 1.429 . S
C1198 N1195 1.350 . S
C1198 C1197 1.434 . S
C1199 C1200 1.344 1_545 S
C1199 C1201 1.449 . S
C1199 H1203 0.925 1_545 S
C1200 C1199 1.344 1_565 S
C1200 C1209 1.429 . S
C1201 C1199 1.449 . S
C1201 C1202 1.363 . S
C1201 H1204 0.929 . S
C1202 C1201 1.363 . S
C1202 C1208 1.428 . S
H1203 C1199 0.925 1_565 S
H1204 C1201 0.929 . S
S1205 N1206 1.613 . S
S1205 N1207 1.610 1_565 S
N1206 S1205 1.613 . S
N1206 C1209 1.350 . S
N1207 S1205 1.610 1_545 S
N1207 C1208 1.351 . S
C1208 C1202 1.428 . S
C1208 N1207 1.351 . S
C1208 C1209 1.434 1_545 S
C1209 C1200 1.429 . S
C1209 N1206 1.350 . S
C1209 C1208 1.434 1_565 S
C1210 C1211 1.369 . S
C1210 C1212 1.419 . S
C1210 H1214 0.930 . S
C1211 C1210 1.369 . S
C1211 C1220 1.429 . S
C1212 C1210 1.419 . S
C1212 C1213 1.363 . S
C1212 H1215 0.929 . S
C1213 C1212 1.363 . S
C1213 C1219 1.428 . S
H1214 C1210 0.930 . S
H1215 C1212 0.929 . S
S1216 N1217 1.613 . S
S1216 N1218 1.610 . S
N1217 S1216 1.613 . S
N1217 C1220 1.350 . S
N1218 S1216 1.610 . S
N1218 C1219 1.351 . S
C1219 C1213 1.428 . S
C1219 N1218 1.351 . S
C1219 C1220 1.434 . S
C1220 C1211 1.429 . S
C1220 N1217 1.350 . S
C1220 C1219 1.434 . S
C1221 C1222 1.369 . S
C1221 C1223 1.419 1_565 S
C1221 H1225 0.930 . S
C1222 C1221 1.369 . S
C1222 C1231 1.429 . S
C1223 C1221 1.419 1_545 S
C1223 C1224 1.363 . S
C1223 H1226 0.929 . S
C1224 C1223 1.363 . S
C1224 C1230 1.428 . S
H1225 C1221 0.930 . S
H1226 C1223 0.929 . S
S1227 N1228 1.613 1_545 S
S1227 N1229 1.610 . S
N1228 S1227 1.613 1_565 S
N1228 C1231 1.350 . S
N1229 S1227 1.610 . S
N1229 C1230 1.351 . S
C1230 C1224 1.428 . S
C1230 N1229 1.351 . S
C1230 C1231 1.434 1_545 S
C1231 C1222 1.429 . S
C1231 N1228 1.350 . S
C1231 C1230 1.434 1_565 S
C1232 C1233 1.369 . S
C1232 C1234 1.419 . S
C1232 H1236 0.930 . S
C1233 C1232 1.369 . S
C1233 C1242 1.429 . S
C1234 C1232 1.419 . S
C1234 C1235 1.363 . S
C1234 H1237 0.929 . S
C1235 C1234 1.363 . S
C1235 C1241 1.428 . S
H1236 C1232 0.930 . S
H1237 C1234 0.929 . S
S1238 N1239 1.613 . S
S1238 N1240 1.610 . S
N1239 S1238 1.613 . S
N1239 C1242 1.350 . S
N1240 S1238 1.610 . S
N1240 C1241 1.351 . S
C1241 C1235 1.428 . S
C1241 N1240 1.351 . S
C1241 C1242 1.434 . S
C1242 C1233 1.429 . S
C1242 N1239 1.350 . S
C1242 C1241 1.434 . S
C1243 C1244 1.369 . S
C1243 C1245 1.419 . S
C1243 H1247 0.930 . S
C1244 C1243 1.369 . S
C1244 C1253 1.429 . S
C1245 C1243 1.419 . S
C1245 C1246 1.363 . S
C1245 H1248 0.929 . S
C1246 C1245 1.363 . S
C1246 C1252 1.428 . S
H1247 C1243 0.930 . S
H1248 C1245 0.929 . S
S1249 N1250 1.613 . S
S1249 N1251 1.610 . S
N1250 S1249 1.613 . S
N1250 C1253 1.350 . S
N1251 S1249 1.610 . S
N1251 C1252 1.351 . S
C1252 C1246 1.428 . S
C1252 N1251 1.351 . S
C1252 C1253 1.434 . S
C1253 C1244 1.429 . S
C1253 N1250 1.350 . S
C1253 C1252 1.434 . S
C1254 C1255 1.369 . S
C1254 C1256 1.419 . S
C1254 H1258 0.930 . S
C1255 C1254 1.369 . S
C1255 C1264 1.429 . S
C1256 C1254 1.419 . S
C1256 C1257 1.363 . S
C1256 H1259 0.929 1_545 S
C1257 C1256 1.363 . S
C1257 C1263 1.428 . S
H1258 C1254 0.930 . S
H1259 C1256 0.929 1_565 S
S1260 N1261 1.613 . S
S1260 N1262 1.610 . S
N1261 S1260 1.613 . S
N1261 C1264 1.350 . S
N1262 S1260 1.610 . S
N1262 C1263 1.351 . S
C1263 C1257 1.428 . S
C1263 N1262 1.351 . S
C1263 C1264 1.434 . S
C1264 C1255 1.429 . S
C1264 N1261 1.350 . S
C1264 C1263 1.434 . S
C1265 C1266 1.369 . S
C1265 C1267 1.419 . S
C1265 H1269 0.930 . S
C1266 C1265 1.369 . S
C1266 C1275 1.429 . S
C1267 C1265 1.419 . S
C1267 C1268 1.363 . S
C1267 H1270 0.929 . S
C1268 C1267 1.363 . S
C1268 C1274 1.428 . S
H1269 C1265 0.930 . S
H1270 C1267 0.929 . S
S1271 N1272 1.613 . S
S1271 N1273 1.610 . S
N1272 S1271 1.613 . S
N1272 C1275 1.350 . S
N1273 S1271 1.610 . S
N1273 C1274 1.351 . S
C1274 C1268 1.428 . S
C1274 N1273 1.351 . S
C1274 C1275 1.434 . S
C1275 C1266 1.429 . S
C1275 N1272 1.350 . S
C1275 C1274 1.434 . S
C1276 C1277 1.369 . S
C1276 C1278 1.419 1_655 S
C1276 H1280 0.930 . S
C1277 C1276 1.369 . S
C1277 C1286 1.429 . S
C1278 C1276 1.419 1_455 S
C1278 C1279 1.363 . S
C1278 H1281 0.929 . S
C1279 C1278 1.363 . S
C1279 C1285 1.428 . S
H1280 C1276 0.930 . S
H1281 C1278 0.929 . S
S1282 N1283 1.613 1_455 S
S1282 N1284 1.610 1_545 S
N1283 S1282 1.613 1_655 S
N1283 C1286 1.350 1_545 S
N1284 S1282 1.610 1_565 S
N1284 C1285 1.351 . S
C1285 C1279 1.428 . S
C1285 N1284 1.351 . S
C1285 C1286 1.434 1_455 S
C1286 C1277 1.429 . S
C1286 N1283 1.350 1_565 S
C1286 C1285 1.434 1_655 S
C1287 C1288 1.369 . S
C1287 C1289 1.419 . S
C1287 H1291 0.930 . S
C1288 C1287 1.369 . S
C1288 C1297 1.429 . S
C1289 C1287 1.419 . S
C1289 C1290 1.363 . S
C1289 H1292 0.929 . S
C1290 C1289 1.363 . S
C1290 C1296 1.428 . S
H1291 C1287 0.930 . S
H1292 C1289 0.929 . S
S1293 N1294 1.613 . S
S1293 N1295 1.610 . S
N1294 S1293 1.613 . S
N1294 C1297 1.350 . S
N1295 S1293 1.610 . S
N1295 C1296 1.351 . S
C1296 C1290 1.428 . S
C1296 N1295 1.351 . S
C1296 C1297 1.434 . S
C1297 C1288 1.429 . S
C1297 N1294 1.350 . S
C1297 C1296 1.434 . S
C1298 C1299 1.369 . S
C1298 C1300 1.419 . S
C1298 H1302 0.930 . S
C1299 C1298 1.369 . S
C1299 C1308 1.429 . S
C1300 C1298 1.419 . S
C1300 C1301 1.363 1_455 S
C1300 H1303 0.930 1_455 S
C1301 C1300 1.363 1_655 S
C1301 C1307 1.428 . S
H1302 C1298 0.930 . S
H1303 C1300 0.930 1_655 S
S1304 N1305 1.613 1_655 S
S1304 N1306 1.610 . S
N1305 S1304 1.613 1_455 S
N1305 C1308 1.350 . S
N1306 S1304 1.610 . S
N1306 C1307 1.351 . S
C1307 C1301 1.428 . S
C1307 N1306 1.351 . S
C1307 C1308 1.434 1_655 S
C1308 C1299 1.429 . S
C1308 N1305 1.350 . S
C1308 C1307 1.434 1_455 S
C1309 C1310 1.369 . S
C1309 C1311 1.419 . S
C1309 H1313 0.930 . S
C1310 C1309 1.369 . S
C1310 C1319 1.429 . S
C1311 C1309 1.419 . S
C1311 C1312 1.363 . S
C1311 H1314 0.929 . S
C1312 C1311 1.363 . S
C1312 C1318 1.428 . S
H1313 C1309 0.930 . S
H1314 C1311 0.929 . S
S1315 N1316 1.613 . S
S1315 N1317 1.610 . S
N1316 S1315 1.613 . S
N1316 C1319 1.350 . S
N1317 S1315 1.610 . S
N1317 C1318 1.351 . S
C1318 C1312 1.428 . S
C1318 N1317 1.351 . S
C1318 C1319 1.434 . S
C1319 C1310 1.429 . S
C1319 N1316 1.350 . S
C1319 C1318 1.434 . S
C1320 C1321 1.369 . S
C1320 C1322 1.419 . S
C1320 H1324 0.930 . S
C1321 C1320 1.369 . S
C1321 C1330 1.429 . S
C1322 C1320 1.419 . S
C1322 C1323 1.363 1_655 S
C1322 H1325 0.929 . S
C1323 C1322 1.363 1_455 S
C1323 C1329 1.428 . S
H1324 C1320 0.930 . S
H1325 C1322 0.929 . S
S1326 N1327 1.625 . S
S1326 N1328 1.610 . S
N1327 S1326 1.625 . S
N1327 C1330 1.346 1_455 S
N1328 S1326 1.610 . S
N1328 C1329 1.351 . S
C1329 C1323 1.428 . S
C1329 N1328 1.351 . S
C1329 C1330 1.434 1_455 S
C1330 C1321 1.429 . S
C1330 N1327 1.346 1_655 S
C1330 C1329 1.434 1_655 S
C1331 C1332 1.369 . S
C1331 C1333 1.419 . S
C1331 H1335 0.930 . S
C1332 C1331 1.369 . S
C1332 C1341 1.429 . S
C1333 C1331 1.419 . S
C1333 C1334 1.363 1_554 S
C1333 H1336 0.929 . S
C1334 C1333 1.363 1_556 S
C1334 C1340 1.428 . S
H1335 C1331 0.930 . S
H1336 C1333 0.929 . S
S1337 N1338 1.613 1_556 S
S1337 N1339 1.610 . S
N1338 S1337 1.613 1_554 S
N1338 C1341 1.350 . S
N1339 S1337 1.610 . S
N1339 C1340 1.351 . S
C1340 C1334 1.428 . S
C1340 N1339 1.351 . S
C1340 C1341 1.434 1_556 S
C1341 C1332 1.429 . S
C1341 N1338 1.350 . S
C1341 C1340 1.434 1_554 S
C1342 C1343 1.369 . S
C1342 C1344 1.419 . S
C1342 H1346 0.930 . S
C1343 C1342 1.369 . S
C1343 C1352 1.429 . S
C1344 C1342 1.419 . S
C1344 C1345 1.363 . S
C1344 H1347 0.929 . S
C1345 C1344 1.363 . S
C1345 C1351 1.428 . S
H1346 C1342 0.930 . S
H1347 C1344 0.929 . S
S1348 N1349 1.613 . S
S1348 N1350 1.610 . S
N1349 S1348 1.613 . S
N1349 C1352 1.350 . S
N1350 S1348 1.610 . S
N1350 C1351 1.351 . S
C1351 C1345 1.428 . S
C1351 N1350 1.351 . S
C1351 C1352 1.434 . S
C1352 C1343 1.429 . S
C1352 N1349 1.350 . S
C1352 C1351 1.434 . S
C1353 C1354 1.369 . S
C1353 C1355 1.419 . S
C1353 H1357 0.930 . S
C1354 C1353 1.369 . S
C1354 C1363 1.429 . S
C1355 C1353 1.419 . S
C1355 C1356 1.363 . S
C1355 H1358 0.929 . S
C1356 C1355 1.363 . S
C1356 C1362 1.428 . S
H1357 C1353 0.930 . S
H1358 C1355 0.929 . S
S1359 N1360 1.613 . S
S1359 N1361 1.610 . S
N1360 S1359 1.613 . S
N1360 C1363 1.350 . S
N1361 S1359 1.610 . S
N1361 C1362 1.351 . S
C1362 C1356 1.428 . S
C1362 N1361 1.351 . S
C1362 C1363 1.434 . S
C1363 C1354 1.429 . S
C1363 N1360 1.350 . S
C1363 C1362 1.434 . S
C1364 C1365 1.369 . S
C1364 C1366 1.419 . S
C1364 H1368 0.930 . S
C1365 C1364 1.369 . S
C1365 C1374 1.429 . S
C1366 C1364 1.419 . S
C1366 C1367 1.363 . S
C1366 H1369 0.929 . S
C1367 C1366 1.363 . S
C1367 C1373 1.428 . S
H1368 C1364 0.930 . S
H1369 C1366 0.929 . S
S1370 N1371 1.613 . S
S1370 N1372 1.610 . S
N1371 S1370 1.613 . S
N1371 C1374 1.350 . S
N1372 S1370 1.610 . S
N1372 C1373 1.351 . S
C1373 C1367 1.428 . S
C1373 N1372 1.351 . S
C1373 C1374 1.434 . S
C1374 C1365 1.429 . S
C1374 N1371 1.350 . S
C1374 C1373 1.434 . S
C1375 C1376 1.369 . S
C1375 C1377 1.419 . S
C1375 H1379 0.930 . S
C1376 C1375 1.369 . S
C1376 C1385 1.429 . S
C1377 C1375 1.419 . S
C1377 C1378 1.363 . S
C1377 H1380 0.929 . S
C1378 C1377 1.363 . S
C1378 C1384 1.428 . S
H1379 C1375 0.930 . S
H1380 C1377 0.929 . S
S1381 N1382 1.613 . S
S1381 N1383 1.610 . S
N1382 S1381 1.613 . S
N1382 C1385 1.350 . S
N1383 S1381 1.610 . S
N1383 C1384 1.351 . S
C1384 C1378 1.428 . S
C1384 N1383 1.351 . S
C1384 C1385 1.434 . S
C1385 C1376 1.429 . S
C1385 N1382 1.350 . S
C1385 C1384 1.434 . S
C1386 C1387 1.369 1_455 S
C1386 C1388 1.419 . S
C1386 H1390 0.930 . S
C1387 C1386 1.369 1_655 S
C1387 C1396 1.431 . S
C1388 C1386 1.419 . S
C1388 C1389 1.363 . S
C1388 H1391 0.929 . S
C1389 C1388 1.363 . S
C1389 C1395 1.428 . S
H1390 C1386 0.930 . S
H1391 C1388 0.929 . S
S1392 N1393 1.613 . S
S1392 N1394 1.610 1_655 S
N1393 S1392 1.613 . S
N1393 C1396 1.356 . S
N1394 S1392 1.610 1_455 S
N1394 C1395 1.351 . S
C1395 C1389 1.428 . S
C1395 N1394 1.351 . S
C1395 C1396 1.426 1_455 S
C1396 C1387 1.431 . S
C1396 N1393 1.356 . S
C1396 C1395 1.426 1_655 S
C1397 C1398 1.369 1_556 S
C1397 C1399 1.419 . S
C1397 H1401 0.930 . S
C1398 C1397 1.369 1_554 S
C1398 C1407 1.429 . S
C1399 C1397 1.419 . S
C1399 C1400 1.363 . S
C1399 H1402 0.929 . S
C1400 C1399 1.363 . S
C1400 C1406 1.428 . S
H1401 C1397 0.930 . S
H1402 C1399 0.929 . S
S1403 N1404 1.613 . S
S1403 N1405 1.610 1_554 S
N1404 S1403 1.613 . S
N1404 C1407 1.350 . S
N1405 S1403 1.610 1_556 S
N1405 C1406 1.351 . S
C1406 C1400 1.428 . S
C1406 N1405 1.351 . S
C1406 C1407 1.434 1_556 S
C1407 C1398 1.429 . S
C1407 N1404 1.350 . S
C1407 C1406 1.434 1_554 S
C1408 C1409 1.369 . S
C1408 C1410 1.419 1_565 S
C1408 H1412 0.930 . S
C1409 C1408 1.369 . S
C1409 C1418 1.429 . S
C1410 C1408 1.419 1_545 S
C1410 C1411 1.363 . S
C1410 H1413 0.929 . S
C1411 C1410 1.363 . S
C1411 C1417 1.428 1_545 S
H1412 C1408 0.930 . S
H1413 C1410 0.929 . S
S1414 N1415 1.613 . S
S1414 N1416 1.610 . S
N1415 S1414 1.613 . S
N1415 C1418 1.350 . S
N1416 S1414 1.610 . S
N1416 C1417 1.351 . S
C1417 C1411 1.428 1_565 S
C1417 N1416 1.351 . S
C1417 C1418 1.434 . S
C1418 C1409 1.429 . S
C1418 N1415 1.350 . S
C1418 C1417 1.434 . S
C1419 C1420 1.369 . S
C1419 C1421 1.419 . S
C1419 H1423 0.930 . S
C1420 C1419 1.369 . S
C1420 C1429 1.429 . S
C1421 C1419 1.419 . S
C1421 C1422 1.363 . S
C1421 H1424 0.929 . S
C1422 C1421 1.363 . S
C1422 C1428 1.428 . S
H1423 C1419 0.930 . S
H1424 C1421 0.929 . S
S1425 N1426 1.613 . S
S1425 N1427 1.610 . S
N1426 S1425 1.613 . S
N1426 C1429 1.350 . S
N1427 S1425 1.610 . S
N1427 C1428 1.351 . S
C1428 C1422 1.428 . S
C1428 N1427 1.351 . S
C1428 C1429 1.434 . S
C1429 C1420 1.429 . S
C1429 N1426 1.350 . S
C1429 C1428 1.434 . S
C1430 C1431 1.369 . S
C1430 C1432 1.419 . S
C1430 H1434 0.930 . S
C1431 C1430 1.369 . S
C1431 C1440 1.429 . S
C1432 C1430 1.419 . S
C1432 C1433 1.363 1_545 S
C1432 H1435 0.929 . S
C1433 C1432 1.363 1_565 S
C1433 C1439 1.428 . S
H1434 C1430 0.930 . S
H1435 C1432 0.929 . S
S1436 N1437 1.613 . S
S1436 N1438 1.610 . S
N1437 S1436 1.613 . S
N1437 C1440 1.350 1_565 S
N1438 S1436 1.610 . S
N1438 C1439 1.351 . S
C1439 C1433 1.428 . S
C1439 N1438 1.351 . S
C1439 C1440 1.434 1_565 S
C1440 C1431 1.429 . S
C1440 N1437 1.350 1_545 S
C1440 C1439 1.434 1_545 S
C1441 C1442 1.369 . S
C1441 C1443 1.419 . S
C1441 H1445 0.930 . S
C1442 C1441 1.369 . S
C1442 C1451 1.429 . S
C1443 C1441 1.419 . S
C1443 C1444 1.363 . S
C1443 H1446 0.929 . S
C1444 C1443 1.363 . S
C1444 C1450 1.428 . S
H1445 C1441 0.930 . S
H1446 C1443 0.929 . S
S1447 N1448 1.613 . S
S1447 N1449 1.610 . S
N1448 S1447 1.613 . S
N1448 C1451 1.350 . S
N1449 S1447 1.610 . S
N1449 C1450 1.351 . S
C1450 C1444 1.428 . S
C1450 N1449 1.351 . S
C1450 C1451 1.434 . S
C1451 C1442 1.429 . S
C1451 N1448 1.350 . S
C1451 C1450 1.434 . S
C793 N431 1.708 . S
C795 C18 1.629 . S
C804 C51 1.637 . S
C806 N464 1.702 . S
C815 C84 1.628 . S
C817 N497 1.707 . S
C826 N398 1.708 . S
C828 C117 1.629 . S
C837 N365 1.706 . S
C839 C150 1.630 . S
C848 N266 1.708 . S
C850 C183 1.629 . S
C859 C216 1.639 . S
C861 N299 1.702 . S
C870 N332 1.708 . S
C872 C249 1.629 . S
C881 C282 1.633 . S
C883 N35 1.706 . S
C892 C315 1.628 . S
C894 N68 1.708 . S
C903 C348 1.633 . S
C905 N101 1.704 . S
C914 N2 1.705 . S
C916 C381 1.631 . S
C925 N233 1.708 . S
C927 C414 1.632 . S
C936 C447 1.628 . S
C938 N134 1.708 . S
C947 C480 1.636 . S
C949 N167 1.702 . S
C958 N200 1.708 . S
C960 C513 1.632 . S
C969 N728 1.709 . S
C971 C546 1.630 . S
C980 C579 1.638 . S
C982 N596 1.702 . S
C991 C612 1.639 . S
C993 N629 1.703 . S
C1002 N662 1.704 . S
C1004 C645 1.632 . S
C1013 C678 1.636 . S
C1015 N563 1.705 . S
C1024 N761 1.705 . S
C1026 C711 1.635 . S
C1035 C744 1.633 . S
C1037 N695 1.704 . S
C1046 N530 1.704 . S
C1048 C777 1.636 . S
C1057 N541 1.143 . S
C1059 C7 1.152 . S
C1068 N772 1.143 . S
C1070 C40 1.145 . S
C1079 C73 1.155 . S
C1081 N706 1.137 . S
C1090 N739 1.140 . S
C1092 C106 1.144 . S
C1101 N574 1.143 . S
C1103 C139 1.152 . S
C1112 N607 1.144 . S
C1114 C172 1.148 . S
C1123 N640 1.141 . S
C1125 C205 1.153 . S
C1134 C238 1.144 . S
C1136 N673 1.142 . S
C1145 C271 1.145 . S
C1147 N13 1.142 . S
C1156 C304 1.155 . S
C1158 N46 1.139 . S
C1167 C337 1.144 . S
C1169 N79 1.141 . S
C1178 C370 1.142 . S
C1180 N112 1.139 . S
C1189 C403 1.152 . S
C1191 N145 1.133 . S
C1200 N178 1.136 . S
C1202 C436 1.144 . S
C1211 N211 1.141 . S
C1213 C469 1.144 . S
C1222 C502 1.143 . S
C1224 N244 1.140 . S
C1233 N277 1.144 . S
C1235 C535 1.151 . S
C1244 N409 1.138 . S
C1246 C568 1.153 . S
C1255 N442 1.139 . S
C1257 C601 1.153 . S
C1266 N475 1.134 . S
C1268 C634 1.153 . S
C1277 C667 1.147 . S
C1279 N508 1.132 . S
C1288 C700 1.155 . S
C1290 N343 1.139 . S
C1299 C733 1.142 . S
C1301 N376 1.136 . S
C1310 N310 1.135 . S
C1312 C766 1.153 . S
C1321 C681 1.424 . S
C1323 C21 1.425 . S
C1332 C54 1.428 . S
C1334 C582 1.423 . S
C1343 C615 1.431 . S
C1345 C87 1.427 . S
C1354 C120 1.432 . S
C1356 C648 1.422 . S
C1365 C780 1.422 . S
C1367 C153 1.432 . S
C1376 C714 1.423 . S
C1378 C186 1.426 . S
C1387 C219 1.430 . S
C1389 C747 1.422 . S
C1398 C549 1.427 . S
C1400 C252 1.423 . S
C1409 C516 1.425 . S
C1411 C285 1.431 . S
C1420 C417 1.421 . S
C1422 C318 1.430 . S
C1431 C450 1.422 . S
C1433 C351 1.427 . S
C1442 C483 1.426 . S
C1444 C384 1.424 . S
