# Generated by pormake.
# Topology tfs, (6)-cn, num edge types: 1
# Building blocks:
#     Node 0, Type 0, BuildingBlock: UKALOJ_clean_sbu_0, # of connection points: 6
#     Node 1, Type 0, BuildingBlock: UKALOJ_clean_sbu_0, # of connection points: 6
#     Node 2, Type 0, BuildingBlock: UKALOJ_clean_sbu_0, # of connection points: 6
#     Node 3, Type 0, BuildingBlock: UKALOJ_clean_sbu_0, # of connection points: 6
#     Node 4, Type 0, BuildingBlock: UKALOJ_clean_sbu_0, # of connection points: 6
#     Node 5, Type 0, BuildingBlock: UKALOJ_clean_sbu_0, # of connection points: 6
#     Edge 6, Type (0, 0), BuildingBlock: TEMPAE_clean_linker_10, # of connection points: 2
#     Edge 7, Type (0, 0), BuildingBlock: TEMPAE_clean_linker_10, # of connection points: 2
#     Edge 8, Type (0, 0), BuildingBlock: TEMPAE_clean_linker_10, # of connection points: 2
#     Edge 9, Type (0, 0), BuildingBlock: TEMPAE_clean_linker_10, # of connection points: 2
#     Edge 10, Type (0, 0), BuildingBlock: TEMPAE_clean_linker_10, # of connection points: 2
#     Edge 11, Type (0, 0), BuildingBlock: TEMPAE_clean_linker_10, # of connection points: 2
#     Edge 12, Type (0, 0), BuildingBlock: TEMPAE_clean_linker_10, # of connection points: 2
#     Edge 13, Type (0, 0), BuildingBlock: TEMPAE_clean_linker_10, # of connection points: 2
#     Edge 14, Type (0, 0), BuildingBlock: TEMPAE_clean_linker_10, # of connection points: 2
#     Edge 15, Type (0, 0), BuildingBlock: TEMPAE_clean_linker_10, # of connection points: 2
#     Edge 16, Type (0, 0), BuildingBlock: TEMPAE_clean_linker_10, # of connection points: 2
#     Edge 17, Type (0, 0), BuildingBlock: TEMPAE_clean_linker_10, # of connection points: 2
#     Edge 18, Type (0, 0), BuildingBlock: TEMPAE_clean_linker_10, # of connection points: 2
#     Edge 19, Type (0, 0), BuildingBlock: TEMPAE_clean_linker_10, # of connection points: 2
#     Edge 20, Type (0, 0), BuildingBlock: TEMPAE_clean_linker_10, # of connection points: 2
#     Edge 21, Type (0, 0), BuildingBlock: TEMPAE_clean_linker_10, # of connection points: 2
#     Edge 22, Type (0, 0), BuildingBlock: TEMPAE_clean_linker_10, # of connection points: 2
#     Edge 23, Type (0, 0), BuildingBlock: TEMPAE_clean_linker_10, # of connection points: 2
# Relax obj value: 0.225
# Max RMSD: 0.157
# Mean RMSD: 0.157
data_MOF--net-tfs--node1-UKALOJ_clean_sbu_0--edge1-TEMPAE_clean_linker_10
_symmetry_space_group_name_H-M    P1
_symmetry_Int_Tables_number       1
_symmetry_cell_setting            triclinic
loop_
_symmetry_equiv_pos_as_xyz
'x, y, z'
_cell_length_a     48.419661
_cell_length_b     48.41202
_cell_length_c     15.511011
_cell_angle_alpha  89.997352
_cell_angle_beta   89.931608
_cell_angle_gamma 120.09587
loop_
_atom_site_label
_atom_site_type_symbol
_atom_site_fract_x
_atom_site_fract_y
_atom_site_fract_z
_atom_type_partial_charge
Zn0 Zn 0.18403 0.44239 0.9815 0.0
O1 O 0.18091 0.44303 0.11717 0.0
C2 C 0.25473 0.46998 -0.01243 0.0
Zn3 Zn 0.1978 0.40484 0.98197 0.0
C4 C 0.18858 0.42519 0.15835 0.0
O5 O 0.19643 0.40743 0.11753 0.0
C6 C 0.1937 0.42224 0.80519 0.0
O7 O 0.14842 0.36976 0.97808 0.0
O8 O 0.13537 0.4071 0.97656 0.0
N9 N 0.20806 0.369 -0.00419 0.0
C10 C 0.2299 0.36272 0.96125 0.0
C11 C 0.20433 0.32726 0.05693 0.0
N12 N 0.19209 0.34678 0.05467 0.0
N13 N 0.22805 0.3366 -0.00123 0.0
C14 C 0.1821 0.50557 0.00607 0.0
C15 C 0.15023 0.50105 0.9052 0.0
N16 N 0.17177 0.47688 0.96856 0.0
N17 N 0.15178 0.47407 0.90648 0.0
N18 N 0.16895 0.52122 0.9672 0.0
H19 H 0.21711 0.504 0.0902 0.0
H20 H 0.19468 0.52028 0.13704 0.0
H21 H 0.22538 0.5436 0.06013 0.0
C22 C 0.20639 0.51901 0.07692 0.0
C23 C 0.25393 0.383 0.8943 0.0
H24 H 0.25477 0.40606 0.8855 0.0
H25 H 0.24719 0.37028 0.83164 0.0
H26 H 0.27793 0.38721 0.91212 0.0
O27 O 0.1991 0.40279 0.84656 0.0
O28 O 0.18733 0.44118 0.84577 0.0
C29 C 0.12709 0.37771 0.9756 0.0
O30 O 0.23287 0.47717 0.98568 0.0
O31 O 0.24708 0.44071 0.98615 0.0
Zn32 Zn 0.74389 0.18624 0.01488 0.0
O33 O 0.73868 0.18096 0.15049 0.0
C34 C 0.78577 0.25614 0.02183 0.0
Zn35 Zn 0.79493 0.19914 0.01591 0.0
C36 C 0.76423 0.18921 0.19198 0.0
O37 O 0.79 0.19781 0.15126 0.0
C38 C 0.7745 0.19663 0.83903 0.0
O39 O 0.7821 0.15 0.0142 0.0
O40 O 0.73211 0.13825 0.00477 0.0
N41 N 0.84225 0.21376 0.03443 0.0
C42 C 0.86683 0.21718 0.98533 0.0
C43 C 0.88538 0.23536 0.11015 0.0
N44 N 0.85397 0.22498 0.11184 0.0
N45 N 0.89426 0.23086 0.03154 0.0
C46 C 0.67851 0.18384 0.03081 0.0
C47 C 0.65083 0.1482 0.93781 0.0
N48 N 0.69698 0.17274 -0.0013 0.0
N49 N 0.67968 0.15052 0.94124 0.0
N50 N 0.64939 0.16898 -0.0071 0.0
H51 H 0.70731 0.20787 0.14238 0.0
H52 H 0.66809 0.20357 0.14265 0.0
H53 H 0.69906 0.23226 0.07293 0.0
C54 C 0.68874 0.20811 0.10161 0.0
C55 C 0.86339 0.20538 0.89457 0.0
H56 H 0.84068 0.18242 0.88755 0.0
H57 H 0.88357 0.20186 0.87628 0.0
H58 H 0.86277 0.22305 0.85024 0.0
O59 O 0.79878 0.20046 0.88051 0.0
O60 O 0.74952 0.1914 0.87959 0.0
C61 C 0.75261 0.1292 0.00701 0.0
O62 O 0.75649 0.23462 0.0242 0.0
O63 O 0.80691 0.24795 0.01679 0.0
Zn64 Zn 0.56072 0.74344 0.97842 0.0
O65 O 0.55712 0.74047 0.11376 0.0
C66 C 0.5343 0.78731 0.9842 0.0
Zn67 Zn 0.59898 0.79437 0.97829 0.0
C68 C 0.57821 0.76452 0.1548 0.0
O69 O 0.59876 0.78897 0.11374 0.0
C70 C 0.58193 0.77313 0.80195 0.0
O71 O 0.63335 0.7794 0.9657 0.0
O72 O 0.59565 0.72949 0.98205 0.0
N73 N 0.63554 0.84037 -0.0072 0.0
C74 C 0.64171 0.86907 0.96259 0.0
C75 C 0.67824 0.87749 0.05303 0.0
N76 N 0.65844 0.84575 0.04837 0.0
N77 N 0.66841 0.89275 -0.00037 0.0
C78 C 0.4971 0.67781 -0.0001 0.0
C79 C 0.50344 0.65049 0.90222 0.0
N80 N 0.52615 0.69654 0.96437 0.0
N81 N 0.53004 0.67937 0.90423 0.0
N82 N 0.48237 0.64876 0.96179 0.0
H83 H 0.49605 0.71463 0.07701 0.0
H84 H 0.4829 0.67735 0.1306 0.0
H85 H 0.45737 0.68052 0.0522 0.0
C86 C 0.48259 0.68845 0.06834 0.0
C87 C 0.62073 0.87396 0.90093 0.0
H88 H 0.59786 0.85165 0.89006 0.0
H89 H 0.6331 0.88201 0.83796 0.0
H90 H 0.61616 0.89284 0.92549 0.0
O91 O 0.59874 0.79896 0.84314 0.0
O92 O 0.56508 0.74721 0.84285 0.0
C93 C 0.62499 0.75005 0.97205 0.0
O94 O 0.5264 0.75819 0.97441 0.0
O95 O 0.56372 0.80827 -0.00921 0.0
Zn96 Zn 0.82117 0.56094 -0.00594 0.0
O97 O 0.8207 0.55706 0.12954 0.0
C98 C 0.75088 0.53101 -0.00207 0.0
Zn99 Zn 0.80648 0.59772 -0.00521 0.0
C100 C 0.81683 0.57746 0.17095 0.0
O101 O 0.81196 0.59733 0.13019 0.0
C102 C 0.81163 0.58135 0.81811 0.0
O103 O 0.85506 0.63487 0.98373 0.0
O104 O 0.86913 0.59839 -0.002 0.0
N105 N 0.79115 0.62994 0.01367 0.0
C106 C 0.78478 0.64898 0.96388 0.0
C107 C 0.77161 0.65271 0.09265 0.0
N108 N 0.78301 0.63254 0.09347 0.0
N109 N 0.7723 0.66343 0.01216 0.0
C110 C 0.8265 0.49962 0.01752 0.0
C111 C 0.86018 0.50629 0.91945 0.0
N112 N 0.83597 0.52826 0.98059 0.0
N113 N 0.85706 0.5324 0.92018 0.0
N114 N 0.84138 0.48537 0.98019 0.0
H115 H 0.78788 0.49736 0.09446 0.0
H116 H 0.81317 0.48601 0.14881 0.0
H117 H 0.78476 0.4593 0.07145 0.0
C118 C 0.80145 0.48481 0.08643 0.0
C119 C 0.79262 0.6547 0.86986 0.0
H120 H 0.81574 0.65589 0.85697 0.0
H121 H 0.79422 0.67731 0.84834 0.0
H122 H 0.77379 0.63456 0.83229 0.0
O123 O 0.80149 0.59715 0.85957 0.0
O124 O 0.82174 0.56539 0.85875 0.0
C125 C 0.87687 0.62755 -0.01062 0.0
O126 O 0.77298 0.52438 -0.0112 0.0
O127 O 0.75818 0.56006 0.00496 0.0
Zn128 Zn 0.26284 0.82033 -0.0046 0.0
O129 O 0.26791 0.8238 0.13086 0.0
C130 C 0.22238 0.74986 -0.00018 0.0
Zn131 Zn 0.21083 0.80506 -0.00401 0.0
C132 C 0.2423 0.81554 0.17227 0.0
O133 O 0.21658 0.80716 0.13158 0.0
C134 C 0.2316 0.80941 0.81934 0.0
O135 O 0.22196 0.85349 -0.00754 0.0
O136 O 0.27298 0.86818 -0.00902 0.0
N137 N 0.16319 0.78919 0.01681 0.0
C138 C 0.13798 0.78526 0.96977 0.0
C139 C 0.1209 0.76803 0.09641 0.0
N140 N 0.15233 0.77849 0.09529 0.0
N141 N 0.1111 0.77193 0.01854 0.0
C142 C 0.33024 0.82636 0.01356 0.0
C143 C 0.35571 0.8593 0.91255 0.0
N144 N 0.31042 0.8354 0.97881 0.0
N145 N 0.32646 0.85606 0.91665 0.0
N146 N 0.35884 0.841 0.9728 0.0
H147 H 0.29535 0.79014 0.09913 0.0
H148 H 0.33436 0.81377 0.14314 0.0
H149 H 0.3275 0.78378 0.06455 0.0
C150 C 0.32104 0.80192 0.08361 0.0
C151 C 0.1403 0.79618 0.87841 0.0
H152 H 0.16277 0.8192 0.869 0.0
H153 H 0.11972 0.7992 0.86131 0.0
H154 H 0.14073 0.77823 0.83479 0.0
O155 O 0.20646 0.80311 0.86086 0.0
O156 O 0.25719 0.81671 0.85977 0.0
C157 C 0.25113 0.87547 -0.01008 0.0
O158 O 0.25135 0.77213 -0.00098 0.0
O159 O 0.2004 0.75693 -0.00179 0.0
Zn160 Zn 0.44433 0.25896 0.98119 0.0
O161 O 0.44922 0.26246 0.11729 0.0
C162 C 0.46995 0.21533 0.98526 0.0
Zn163 Zn 0.40524 0.20833 0.98512 0.0
C164 C 0.42766 0.23911 0.15958 0.0
O165 O 0.40634 0.21499 0.11965 0.0
C166 C 0.42187 0.22899 0.80689 0.0
O167 O 0.37046 0.22266 0.9745 0.0
O168 O 0.40924 0.27242 0.98722 0.0
N169 N 0.37062 0.1614 0.0056 0.0
C170 C 0.35179 0.13561 0.95659 0.0
C171 C 0.34465 0.12018 0.0875 0.0
N172 N 0.36584 0.15158 0.08671 0.0
N173 N 0.33537 0.10932 0.00675 0.0
C174 C 0.50787 0.32426 0.00142 0.0
C175 C 0.50192 0.35198 0.90427 0.0
N176 N 0.4788 0.30582 0.96597 0.0
N177 N 0.47513 0.32322 0.9061 0.0
N178 N 0.52286 0.35338 0.96365 0.0
H179 H 0.50923 0.28698 0.07571 0.0
H180 H 0.52065 0.32323 0.13267 0.0
H181 H 0.54766 0.32199 0.05527 0.0
C182 C 0.52213 0.31325 0.0696 0.0
C183 C 0.34806 0.13686 0.8611 0.0
H184 H 0.3474 0.15877 0.84394 0.0
H185 H 0.32575 0.11579 0.83814 0.0
H186 H 0.36882 0.13768 0.82817 0.0
O187 O 0.40532 0.2033 0.84919 0.0
O188 O 0.43892 0.25503 0.84678 0.0
C189 C 0.37963 0.25229 0.97969 0.0
O190 O 0.47849 0.24442 0.97258 0.0
O191 O 0.44066 0.19489 -0.00337 0.0
C192 C 0.32344 0.24194 0.97321 0.0
C193 C 0.35636 0.26362 0.97647 0.0
C194 C 0.30137 0.25272 0.97193 0.0
C195 C 0.31253 0.28592 0.9738 0.0
C196 C 0.34573 0.3079 0.97538 0.0
C197 C 0.36721 0.2965 0.97679 0.0
C198 C 0.26611 0.22859 0.97044 0.0
C199 C 0.35857 0.34349 0.97733 0.0
C200 C 0.25807 0.31803 0.91018 0.0
C201 C 0.24889 0.32358 -0.00896 0.0
C202 C 0.27848 0.30535 0.90328 0.0
C203 C 0.28964 0.29783 0.97914 0.0
C204 C 0.27985 0.30279 0.06086 0.0
C205 C 0.25954 0.31553 0.0657 0.0
C206 C 0.2883 0.3002 0.81505 0.0
C207 C 0.29122 0.29511 0.14328 0.0
H208 H 0.31487 0.21651 0.97265 0.0
H209 H 0.39261 0.31347 0.97874 0.0
H210 H 0.25476 0.23046 0.03065 0.0
H211 H 0.25447 0.23362 0.91595 0.0
H212 H 0.26136 0.20371 0.96433 0.0
H213 H 0.38505 0.35741 0.97438 0.0
H214 H 0.3489 0.35067 0.92235 0.0
H215 H 0.3507 0.35001 0.03735 0.0
H216 H 0.24894 0.32317 0.85245 0.0
H217 H 0.2523 0.31973 0.12819 0.0
H218 H 0.28169 0.27483 0.80724 0.0
H219 H 0.31461 0.31478 0.808 0.0
H220 H 0.27701 0.30665 0.76246 0.0
H221 H 0.28515 0.26976 0.14318 0.0
H222 H 0.28053 0.29942 0.20151 0.0
H223 H 0.31758 0.30996 0.14786 0.0
C224 C 0.06993 0.36039 0.00213 0.0
C225 C 0.09291 0.3531 0.97282 0.0
C226 C 0.03744 0.33719 0.00284 0.0
C227 C 0.02759 0.30613 0.97144 0.0
C228 C 0.0506 0.29887 0.93929 0.0
C229 C 0.0831 0.32237 0.94145 0.0
C230 C 0.01376 0.34576 0.03937 0.0
C231 C 0.04089 0.26629 0.90328 0.0
C232 C 0.94877 0.24381 0.06632 0.0
C233 C 0.92701 0.24339 0.00604 0.0
C234 C 0.98176 0.26259 0.05331 0.0
C235 C 0.99333 0.28107 0.97725 0.0
C236 C 0.97155 0.27863 0.91268 0.0
C237 C 0.93857 0.26017 0.92839 0.0
C238 C 0.00405 0.26477 0.12445 0.0
C239 C 0.98298 0.29739 0.82982 0.0
H240 H 0.07743 0.38408 0.02673 0.0
H241 H 0.10081 0.31677 0.91785 0.0
H242 H 0.99554 0.34184 -0.00981 0.0
H243 H 1.00106 0.33005 0.09505 0.0
H244 H 0.02535 0.37099 0.06111 0.0
H245 H 0.06142 0.2652 0.87501 0.0
H246 H 0.03021 0.24808 0.955 0.0
H247 H 0.0224 0.25977 0.85286 0.0
H248 H 0.93983 0.2309 0.12642 0.0
H249 H 0.92205 0.26074 0.8825 0.0
H250 H 0.01487 0.28871 0.1549 0.0
H251 H 0.02382 0.26199 0.09817 0.0
H252 H 0.99153 0.24642 0.17517 0.0
H253 H 0.99088 0.32283 0.84269 0.0
H254 H 0.96384 0.28843 0.78034 0.0
H255 H 0.00373 0.29633 0.80331 0.0
C256 C 0.70886 0.07234 -0.0013 0.0
C257 C 0.74168 0.09464 0.00107 0.0
C258 C 0.69767 0.03949 -0.0058 0.0
C259 C 0.71979 0.02853 -0.00836 0.0
C260 C 0.75297 0.05086 -0.00745 0.0
C261 C 0.76355 0.0837 -0.00251 0.0
C262 C 0.6621 0.01648 -0.00612 0.0
C263 C 0.77725 0.04002 -0.01044 0.0
C264 C 0.6894 0.94426 0.07308 0.0
C265 C 0.68155 0.92676 -0.00378 0.0
C266 C 0.70237 0.97745 0.07238 0.0
C267 C 0.70795 0.99361 -0.00739 0.0
C268 C 0.7007 0.97613 0.91452 0.0
C269 C 0.68756 0.94283 0.91729 0.0
C270 C 0.70951 0.99511 0.15709 0.0
C271 C 0.7066 0.99259 0.82825 0.0
H272 H 0.69172 0.0805 0.00125 0.0
H273 H 0.78893 0.10076 -0.00119 0.0
H274 H 0.65537 1.00065 0.93669 0.0
H275 H 0.65526 1.00099 0.05189 0.0
H276 H 0.64807 0.02891 -0.00678 0.0
H277 H 0.80212 0.0604 0.98604 0.0
H278 H 0.77491 0.02575 0.04793 0.0
H279 H 0.77281 0.02435 0.93292 0.0
H280 H 0.68482 0.93175 0.13403 0.0
H281 H 0.68246 0.92943 0.85788 0.0
H282 H 0.69469 0.00657 0.16347 0.0
H283 H 0.73487 0.01439 0.15907 0.0
H284 H 0.70473 0.97912 0.21334 0.0
H285 H 0.69191 0.0042 0.82256 0.0
H286 H 0.70079 0.97576 0.77353 0.0
H287 H 0.73197 0.01167 0.82287 0.0
C288 C 0.73839 0.67468 0.9159 0.0
C289 C 0.75814 0.68237 -0.01153 0.0
C290 C 0.71935 0.68869 0.9029 0.0
C291 C 0.71942 0.71011 0.96529 0.0
C292 C 0.74054 0.71916 0.03622 0.0
C293 C 0.75977 0.70535 0.04647 0.0
C294 C 0.69763 0.67893 0.82546 0.0
C295 C 0.74109 0.74152 0.10498 0.0
C296 C 0.67878 0.75907 0.92875 0.0
C297 C 0.64903 0.73977 0.96813 0.0
C298 C 0.70164 0.7493 0.92462 0.0
C299 C 0.69482 0.71996 0.96267 0.0
C300 C 0.66479 0.70042 0.00242 0.0
C301 C 0.64216 0.7104 0.00375 0.0
C302 C 0.73308 0.77038 0.87995 0.0
C303 C 0.65679 0.66926 0.04536 0.0
H304 H 0.73621 0.65627 0.87218 0.0
H305 H 0.77494 0.71121 0.10275 0.0
H306 H 0.67267 0.66247 0.84608 0.0
H307 H 0.69831 0.70006 0.79537 0.0
H308 H 0.70423 0.66658 0.77619 0.0
H309 H 0.76089 0.74841 0.15161 0.0
H310 H 0.74354 0.76351 0.07551 0.0
H311 H 0.71818 0.72974 0.14099 0.0
H312 H 0.68407 0.78166 0.90032 0.0
H313 H 0.61925 0.69545 0.03452 0.0
H314 H 0.73735 0.75655 0.82995 0.0
H315 H 0.75289 0.77886 0.92707 0.0
H316 H 0.73391 0.79149 0.84904 0.0
H317 H 0.65865 0.65307 -0.00189 0.0
H318 H 0.63237 0.65687 0.07335 0.0
H319 H 0.67416 0.6737 0.09764 0.0
C320 C 0.06491 0.74188 0.92174 0.0
C321 C 0.0781 0.75992 -0.0033 0.0
C322 C 0.03162 0.72392 0.91051 0.0
C323 C 0.01118 0.72347 0.9767 0.0
C324 C 0.02446 0.74336 0.04965 0.0
C325 C 0.05771 0.76141 0.05844 0.0
C326 C 0.0184 0.70349 0.83098 0.0
C327 C 0.00369 0.74346 0.12224 0.0
C328 C 0.92085 0.68258 0.94977 0.0
C329 C 0.91106 0.6524 0.98543 0.0
C330 C 0.95344 0.70581 0.94415 0.0
C331 C 0.97662 0.69885 0.97655 0.0
C332 C 0.96676 0.66844 0.01286 0.0
C333 C 0.9342 0.64556 0.01611 0.0
C334 C 0.96308 0.73773 0.90357 0.0
C335 C 0.9906 0.66016 0.04964 0.0
H336 H 0.08042 0.73998 0.87477 0.0
H337 H 0.06792 0.77532 0.11646 0.0
H338 H 0.00994 0.6782 0.84777 0.0
H339 H 0.99768 0.70478 0.8055 0.0
H340 H 0.03669 0.7108 0.77936 0.0
H341 H 0.01737 0.76301 0.16906 0.0
H342 H 0.98368 0.74598 0.09677 0.0
H343 H 0.99314 0.72036 0.15721 0.0
H344 H 0.90307 0.68789 0.92516 0.0
H345 H 0.92681 0.62234 0.044 0.0
H346 H 0.98015 0.74252 0.85008 0.0
H347 H 0.97549 0.75703 0.95171 0.0
H348 H 0.94227 0.73891 0.87804 0.0
H349 H 0.00791 0.66257 -0.00086 0.0
H350 H 0.97899 0.63546 0.0757 0.0
H351 H 0.00435 0.67702 0.10225 0.0
C352 C 0.24022 0.9186 0.94304 0.0
C353 C 0.25993 0.90938 0.98523 0.0
C354 C 0.24931 0.95103 0.93544 0.0
C355 C 0.27825 0.97455 0.9733 0.0
C356 C 0.29793 0.9652 0.01702 0.0
C357 C 0.28876 0.93279 0.02126 0.0
C358 C 0.22821 0.96016 0.88621 0.0
C359 C 0.32856 0.98939 0.06035 0.0
C360 C 0.32437 0.06263 0.91672 0.0
C361 C 0.31615 0.07592 0.98556 0.0
C362 C 0.31001 0.02935 0.90739 0.0
C363 C 0.28787 0.00898 0.9702 0.0
C364 C 0.27827 0.02222 0.0371 0.0
C365 C 0.29228 0.05546 0.04329 0.0
C366 C 0.32027 0.01613 0.83379 0.0
C367 C 0.25527 1.00152 0.10652 0.0
H368 H 0.21809 0.90051 0.91421 0.0
H369 H 0.30394 0.92567 0.05424 0.0
H370 H 0.21992 0.97284 0.92926 0.0
H371 H 0.24202 0.97686 0.83326 0.0
H372 H 0.207 0.93908 0.85825 0.0
H373 H 0.34064 0.97806 0.09378 0.0
H374 H 0.34527 0.00648 0.01195 0.0
H375 H 0.32354 0.00334 0.10824 0.0
H376 H 0.34345 0.07807 0.87337 0.0
H377 H 0.28598 0.06566 0.09673 0.0
H378 H 0.29937 0.99504 0.80499 0.0
H379 H 0.33671 0.00822 0.85822 0.0
H380 H 0.33282 0.03424 0.78254 0.0
H381 H 0.23371 0.9812 0.07771 0.0
H382 H 0.24774 0.01512 0.14866 0.0
H383 H 0.26687 0.99139 0.14725 0.0
C384 C 0.18245 0.69138 -0.00303 0.0
C385 C 0.21436 0.71605 0.00175 0.0
C386 C 0.17459 0.65926 -0.0041 0.0
C387 C 0.19922 0.65164 -8e-05 0.0
C388 C 0.23141 0.67638 0.00663 0.0
C389 C 0.23861 0.7083 0.00733 0.0
C390 C 0.13998 0.63352 -0.01156 0.0
C391 C 0.25831 0.66916 0.01131 0.0
C392 C 0.17745 0.56674 0.05811 0.0
C393 C 0.17661 0.55385 0.9767 0.0
C394 C 0.18497 0.59866 0.06695 0.0
C395 C 0.19142 0.61787 -0.0076 0.0
C396 C 0.19024 0.60477 0.90999 0.0
C397 C 0.18278 0.5729 0.90324 0.0
C398 C 0.18584 0.61177 0.15582 0.0
C399 C 0.19689 0.62442 0.82892 0.0
H400 H 0.16355 0.69714 -0.00714 0.0
H401 H 0.26332 0.72719 0.01152 0.0
H402 H 0.13616 0.62034 0.92704 0.0
H403 H 0.13347 0.616 0.04162 0.0
H404 H 0.1236 0.64335 -0.00981 0.0
H405 H 0.28191 0.69103 0.0207 0.0
H406 H 0.25414 0.65241 0.06513 0.0
H407 H 0.25914 0.6573 0.95095 0.0
H408 H 0.17163 0.55173 0.11462 0.0
H409 H 0.18206 0.56283 0.84032 0.0
H410 H 0.16794 0.61962 0.16039 0.0
H411 H 0.2096 0.63305 0.16778 0.0
H412 H 0.18088 0.59391 0.2073 0.0
H413 H 0.17986 0.63335 0.82372 0.0
H414 H 0.19494 0.61059 0.76982 0.0
H415 H 0.22125 0.64558 0.83164 0.0
C416 C 0.49944 0.19371 0.06442 0.0
C417 C 0.49411 0.20564 -0.01197 0.0
C418 C 0.52426 0.18678 0.06988 0.0
C419 C 0.54327 0.1909 -0.00383 0.0
C420 C 0.53707 0.20192 0.91795 0.0
C421 C 0.5129 0.2098 0.91538 0.0
C422 C 0.53086 0.17613 0.15506 0.0
C423 C 0.55612 0.20565 0.83724 0.0
C424 C 0.6274 0.20497 0.01499 0.0
C425 C 0.62272 0.17429 0.00082 0.0
C426 C 0.60155 0.21037 0.01779 0.0
C427 C 0.57038 0.18481 0.00131 0.0
C428 C 0.56544 0.15388 0.98557 0.0
C429 C 0.59162 0.14894 0.98657 0.0
C430 C 0.60774 0.24364 0.0363 0.0
C431 C 0.53271 0.12625 0.96478 0.0
H432 H 0.48492 0.19092 0.12065 0.0
H433 H 0.5085 0.21903 0.85645 0.0
H434 H 0.52978 0.15283 0.14762 0.0
H435 H 0.55534 0.19363 0.17691 0.0
H436 H 0.51364 0.17379 0.20593 0.0
H437 H 0.54652 0.21192 0.78018 0.0
H438 H 0.5813 0.22465 0.8467 0.0
H439 H 0.55615 0.18317 0.8234 0.0
H440 H 0.65127 0.2251 0.02094 0.0
H441 H 0.5879 0.12528 0.97434 0.0
H442 H 0.59132 0.24293 0.08738 0.0
H443 H 0.6031 0.25375 0.9776 0.0
H444 H 0.63271 0.25997 0.05721 0.0
H445 H 0.5157 0.1228 0.01726 0.0
H446 H 0.53285 0.10357 0.95537 0.0
H447 H 0.52362 0.13156 0.90509 0.0
C448 C 0.43672 0.6111 0.05202 0.0
C449 C 0.45008 0.62283 0.97069 0.0
C450 C 0.40523 0.58558 0.06011 0.0
C451 C 0.38686 0.57148 0.98499 0.0
C452 C 0.40048 0.58303 0.90274 0.0
C453 C 0.43194 0.60846 0.8967 0.0
C454 C 0.39159 0.57373 0.14886 0.0
C455 C 0.3817 0.56879 0.82105 0.0
C456 C 0.31333 0.4885 -0.01036 0.0
C457 C 0.28864 0.49568 -0.00915 0.0
C458 C 0.34549 0.51292 -0.00986 0.0
C459 C 0.35308 0.54524 -0.00826 0.0
C460 C 0.32825 0.55259 -0.00524 0.0
C461 C 0.29639 0.52776 -0.00569 0.0
C462 C 0.37133 0.50416 0.98701 0.0
C463 C 0.33533 0.58673 -0.00361 0.0
H464 H 0.45106 0.62151 0.10911 0.0
H465 H 0.44237 0.61753 0.83385 0.0
H466 H 0.37025 0.57623 0.15893 0.0
H467 H 0.3837 0.54798 0.15484 0.0
H468 H 0.40912 0.58697 0.20071 0.0
H469 H 0.39602 0.58015 0.76214 0.0
H470 H 0.37315 0.54282 0.81867 0.0
H471 H 0.36032 0.57159 0.82025 0.0
H472 H 0.30756 0.46379 -0.01276 0.0
H473 H 0.2775 0.53359 -0.00429 0.0
H474 H 0.38842 0.51585 0.0407 0.0
H475 H 0.38498 0.51296 0.92596 0.0
H476 H 0.36153 0.47797 -0.00882 0.0
H477 H 0.35154 0.59981 0.05073 0.0
H478 H 0.31335 0.58839 0.00291 0.0
H479 H 0.34774 0.59903 0.93605 0.0
C480 C 0.83365 0.44039 0.07241 0.0
C481 C 0.83534 0.45326 -0.0096 0.0
C482 C 0.82658 0.40864 0.08226 0.0
C483 C 0.82138 0.38953 0.00818 0.0
C484 C 0.82391 0.40276 0.92515 0.0
C485 C 0.83096 0.43449 0.91736 0.0
C486 C 0.82432 0.39544 0.17179 0.0
C487 C 0.81859 0.38321 0.84454 0.0
C488 C 0.82733 0.31425 0.02021 0.0
C489 C 0.79505 0.29035 0.02267 0.0
C490 C 0.83632 0.3467 0.0174 0.0
C491 C 0.81245 0.35544 0.01704 0.0
C492 C 0.77987 0.33147 0.0212 0.0
C493 C 0.77158 0.29924 0.02387 0.0
C494 C 0.87131 0.37159 0.01296 0.0
C495 C 0.7537 0.33981 0.02096 0.0
H496 H 0.83808 0.45521 0.12875 0.0
H497 H 0.83237 0.44455 0.85397 0.0
H498 H 0.79995 0.37497 0.18291 0.0
H499 H 0.84119 0.38637 0.17844 0.0
H500 H 0.82967 0.41361 0.22262 0.0
H501 H 0.82237 0.39737 0.78484 0.0
H502 H 0.83503 0.37349 0.84353 0.0
H503 H 0.79388 0.36258 0.84408 0.0
H504 H 0.84565 0.30763 0.01943 0.0
H505 H 0.74659 0.28101 0.02562 0.0
H506 H 0.87751 0.38929 0.06548 0.0
H507 H 0.87651 0.38476 0.95104 0.0
H508 H 0.88694 0.36097 0.01813 0.0
H509 H 0.75749 0.35671 0.07403 0.0
H510 H 0.7296 0.31843 0.02831 0.0
H511 H 0.75438 0.35192 0.95959 0.0
C512 C 0.39831 0.83063 0.903 0.0
C513 C 0.38502 0.83493 0.97859 0.0
C514 C 0.42341 0.82408 0.90615 0.0
C515 C 0.43565 0.82184 0.98706 0.0
C516 C 0.42279 0.82683 0.06371 0.0
C517 C 0.39774 0.83354 0.0585 0.0
C518 C 0.43648 0.81904 0.82288 0.0
C519 C 0.43529 0.82478 0.15115 0.0
C520 C 0.47694 0.77273 -0.00846 0.0
C521 C 0.50929 0.79643 -0.01209 0.0
C522 C 0.45282 0.78074 -0.0066 0.0
C523 C 0.46117 0.81325 -0.00898 0.0
C524 C 0.49378 0.83733 -0.01148 0.0
C525 C 0.51747 0.82864 0.98723 0.0
C526 C 0.41835 0.75434 -0.00349 0.0
C527 C 0.50362 0.87225 0.98545 0.0
H528 H 0.38856 0.83184 0.84118 0.0
H529 H 0.38839 0.83806 0.1168 0.0
H530 H 0.46261 0.83568 0.81918 0.0
H531 H 0.43254 0.79442 0.8208 0.0
H532 H 0.42511 0.82275 0.76527 0.0
H533 H 0.42306 0.82975 0.20447 0.0
H534 H 0.432 0.80059 0.16068 0.0
H535 H 0.46127 0.84204 0.15512 0.0
H536 H 0.47037 0.74778 -0.00733 0.0
H537 H 0.5424 0.8471 0.98444 0.0
H538 H 0.40584 0.75497 0.9373 0.0
H539 H 0.40606 0.7579 0.05218 0.0
H540 H 0.41591 0.73033 0.00193 0.0
H541 H 0.49447 0.87733 0.92554 0.0
H542 H 0.52996 0.88806 -0.01266 0.0
H543 H 0.493 0.87831 0.04051 0.0
C544 C 0.69232 0.51223 0.00109 0.0
C545 C 0.71705 0.5051 -0.00053 0.0
C546 C 0.6602 0.48783 -0.00042 0.0
C547 C 0.65265 0.45555 -0.00333 0.0
C548 C 0.67749 0.44818 -0.00311 0.0
C549 C 0.70937 0.47303 -0.00187 0.0
C550 C 0.63436 0.49662 -0.00084 0.0
C551 C 0.67039 0.41405 -0.00587 0.0
C552 C 0.56869 0.38981 0.05486 0.0
C553 C 0.55523 0.3791 0.97316 0.0
C554 C 0.6004 0.41475 0.06373 0.0
C555 C 0.61884 0.42949 -0.01097 0.0
C556 C 0.6051 0.41911 0.90643 0.0
C557 C 0.57345 0.3941 0.89961 0.0
C558 C 0.61419 0.4253 0.15287 0.0
C559 C 0.62391 0.43422 0.82519 0.0
H560 H 0.69803 0.53693 0.00226 0.0
H561 H 0.72831 0.46727 -0.00259 0.0
H562 H 0.6207 0.48855 0.93804 0.0
H563 H 0.61727 0.4843 0.05258 0.0
H564 H 0.64415 0.52275 0.00574 0.0
H565 H 0.69237 0.41231 -0.00122 0.0
H566 H 0.65414 0.40017 0.04776 0.0
H567 H 0.65802 0.40267 0.93303 0.0
H568 H 0.55431 0.37899 0.11175 0.0
H569 H 0.56296 0.38586 0.83646 0.0
H570 H 0.62213 0.45095 0.16188 0.0
H571 H 0.63551 0.42263 0.16061 0.0
H572 H 0.59672 0.41135 0.20434 0.0
H573 H 0.63271 0.46025 0.8254 0.0
H574 H 0.60951 0.42369 0.76598 0.0
H575 H 0.64513 0.43118 0.8225 0.0
C576 C 0.18121 0.39424 0.66391 0.0
C577 C 0.19419 0.42277 0.71057 0.0
C578 C 0.17956 0.39444 0.57365 0.0
C579 C 0.19233 0.42397 0.52952 0.0
C580 C 0.20631 0.4529 0.57658 0.0
C581 C 0.2065 0.45189 0.66683 0.0
C582 C 0.16364 0.36308 0.52566 0.0
C583 C 0.22124 0.48488 0.53166 0.0
C584 C 0.2144 0.4242 0.29513 0.0
C585 C 0.1896 0.42562 0.25293 0.0
C586 C 0.21594 0.42434 0.38528 0.0
C587 C 0.19138 0.42465 0.434 0.0
C588 C 0.16603 0.4257 0.3915 0.0
C589 C 0.16579 0.42682 0.30109 0.0
C590 C 0.24396 0.42442 0.42828 0.0
C591 C 0.13893 0.42507 0.44142 0.0
H592 H 0.17139 0.37173 0.69821 0.0
H593 H 0.2167 0.47394 0.70335 0.0
H594 H 0.1439 0.36138 0.48544 0.0
H595 H 0.18096 0.36175 0.48148 0.0
H596 H 0.15384 0.34221 0.56987 0.0
H597 H 0.23238 0.50515 0.57773 0.0
H598 H 0.23976 0.48701 0.48556 0.0
H599 H 0.20292 0.48692 0.49389 0.0
H600 H 0.23296 0.42358 0.25743 0.0
H601 H 0.14652 0.42767 0.26797 0.0
H602 H 0.23555 0.40249 0.46754 0.0
H603 H 0.25596 0.44508 0.47273 0.0
H604 H 0.26179 0.42569 0.3809 0.0
H605 H 0.12747 0.40359 0.48331 0.0
H606 H 0.12048 0.42486 0.39847 0.0
H607 H 0.14819 0.44623 0.48414 0.0
C608 C 0.78971 0.18387 0.69743 0.0
C609 C 0.77447 0.19712 0.74428 0.0
C610 C 0.78742 0.18177 0.60723 0.0
C611 C 0.77046 0.1943 0.56324 0.0
C612 C 0.75589 0.20861 0.61042 0.0
C613 C 0.75758 0.20931 0.70063 0.0
C614 C 0.80254 0.16559 0.55916 0.0
C615 C 0.73865 0.22331 0.56566 0.0
C616 C 0.79133 0.21551 0.32803 0.0
C617 C 0.76492 0.19052 0.28664 0.0
C618 C 0.79312 0.21735 0.41809 0.0
C619 C 0.76841 0.19294 0.46773 0.0
C620 C 0.74176 0.16743 0.42612 0.0
C621 C 0.74005 0.16685 0.33568 0.0
C622 C 0.82132 0.24553 0.46003 0.0
C623 C 0.71543 0.14052 0.47704 0.0
H624 H 0.80246 0.17413 0.73156 0.0
H625 H 0.74593 0.2197 0.73718 0.0
H626 H 0.78422 0.14558 0.52011 0.0
H627 H 0.82094 0.18265 0.51389 0.0
H628 H 0.81389 0.1561 0.60326 0.0
H629 H 0.72979 0.23469 0.61172 0.0
H630 H 0.75486 0.2416 0.51871 0.0
H631 H 0.71805 0.20478 0.52886 0.0
H632 H 0.81043 0.23398 0.28973 0.0
H633 H 0.71977 0.14743 0.30327 0.0
H634 H 0.83496 0.23726 0.49908 0.0
H635 H 0.81288 0.25771 0.50452 0.0
H636 H 0.83775 0.26318 0.41203 0.0
H637 H 0.72558 0.12917 0.51866 0.0
H638 H 0.69693 0.12194 0.43479 0.0
H639 H 0.70378 0.14994 0.52011 0.0
C640 C 0.58011 0.74612 0.6646 0.0
C641 C 0.58222 0.7726 0.70727 0.0
C642 C 0.57996 0.7447 0.57445 0.0
C643 C 0.58079 0.76989 0.52612 0.0
C644 C 0.58258 0.79658 0.56904 0.0
C645 C 0.58386 0.79789 0.65945 0.0
C646 C 0.57917 0.71639 0.53099 0.0
C647 C 0.58259 0.82345 0.51955 0.0
C648 C 0.60791 0.78113 0.29311 0.0
C649 C 0.57872 0.76478 0.24952 0.0
C650 C 0.60894 0.78259 0.38333 0.0
C651 C 0.58002 0.76832 0.43059 0.0
C652 C 0.55044 0.75205 0.38667 0.0
C653 C 0.55017 0.74999 0.29642 0.0
C654 C 0.64095 0.79917 0.42802 0.0
C655 C 0.51912 0.73731 0.4349 0.0
H656 H 0.57912 0.72669 0.70192 0.0
H657 H 0.58523 0.81822 0.69283 0.0
H658 H 0.55716 0.70332 0.49184 0.0
H659 H 0.59976 0.72467 0.48637 0.0
H660 H 0.57992 0.69948 0.57805 0.0
H661 H 0.583 0.84194 0.56279 0.0
H662 H 0.60368 0.83497 0.47635 0.0
H663 H 0.56104 0.81384 0.47816 0.0
H664 H 0.62999 0.79243 0.25652 0.0
H665 H 0.52761 0.73768 0.26235 0.0
H666 H 0.64271 0.78249 0.47377 0.0
H667 H 0.64342 0.81967 0.46614 0.0
H668 H 0.66118 0.80807 0.3818 0.0
H669 H 0.51725 0.71843 0.47908 0.0
H670 H 0.49823 0.72663 0.39084 0.0
H671 H 0.51801 0.75569 0.47513 0.0
C672 C 0.83747 0.58061 0.68077 0.0
C673 C 0.81255 0.58178 0.7234 0.0
C674 C 0.83877 0.58041 0.59063 0.0
C675 C 0.81394 0.58024 0.54224 0.0
C676 C 0.78853 0.58114 0.58508 0.0
C677 C 0.78846 0.5825 0.6755 0.0
C678 C 0.86683 0.58062 0.54725 0.0
C679 C 0.76122 0.58011 0.53551 0.0
C680 C 0.82925 0.60718 0.30909 0.0
C681 C 0.8172 0.57802 0.26566 0.0
C682 C 0.82875 0.60827 0.39929 0.0
C683 C 0.81482 0.5794 0.44671 0.0
C684 C 0.80231 0.54983 0.40296 0.0
C685 C 0.80417 0.54954 0.3127 0.0
C686 C 0.84335 0.64029 0.44378 0.0
C687 C 0.78649 0.51854 0.45136 0.0
H688 H 0.85626 0.58036 0.71812 0.0
H689 H 0.7691 0.58317 0.70882 0.0
H690 H 0.85849 0.55863 0.50835 0.0
H691 H 0.87865 0.60121 0.50242 0.0
H692 H 0.88479 0.58211 0.59436 0.0
H693 H 0.74281 0.57994 0.57869 0.0
H694 H 0.77024 0.60107 0.49205 0.0
H695 H 0.74977 0.55844 0.49439 0.0
H696 H 0.83945 0.6292 0.27239 0.0
H697 H 0.79452 0.527 0.27873 0.0
H698 H 0.86202 0.64275 0.48966 0.0
H699 H 0.8249 0.6421 0.48173 0.0
H700 H 0.85423 0.66052 0.39744 0.0
H701 H 0.80384 0.51741 0.49571 0.0
H702 H 0.77686 0.49763 0.40743 0.0
H703 H 0.76665 0.51676 0.49144 0.0
C704 C 0.2659 0.83859 0.31565 0.0
C705 C 0.24154 0.81431 0.26691 0.0
C706 C 0.26401 0.83822 0.40605 0.0
C707 C 0.23778 0.81232 0.44801 0.0
C708 C 0.21362 0.7873 0.3987 0.0
C709 C 0.2155 0.78894 0.30859 0.0
C710 C 0.28971 0.86578 0.45654 0.0
C711 C 0.18592 0.75871 0.44104 0.0
C712 C 0.2495 0.7975 0.68147 0.0
C713 C 0.23173 0.80882 0.72464 0.0
C714 C 0.25115 0.79792 0.59127 0.0
C715 C 0.23566 0.81115 0.54356 0.0
C716 C 0.21785 0.82285 0.58708 0.0
C717 C 0.21559 0.82097 0.67737 0.0
C718 C 0.26931 0.78408 0.54708 0.0
C719 C 0.20177 0.83793 0.53845 0.0
H720 H 0.28585 0.85831 0.28297 0.0
H721 H 0.1968 0.77005 0.27048 0.0
H722 H 0.27884 0.87655 0.49774 0.0
H723 H 0.30196 0.85715 0.49999 0.0
H724 H 0.30785 0.88463 0.41399 0.0
H725 H 0.16994 0.74064 0.39332 0.0
H726 H 0.19493 0.74722 0.48609 0.0
H727 H 0.17164 0.76638 0.47956 0.0
H728 H 0.26183 0.78795 0.71843 0.0
H729 H 0.20215 0.83003 0.71119 0.0
H730 H 0.28962 0.80295 0.51003 0.0
H731 H 0.25355 0.76542 0.50044 0.0
H732 H 0.27874 0.77338 0.59354 0.0
H733 H 0.21965 0.85815 0.49894 0.0
H734 H 0.18982 0.84689 0.5822 0.0
H735 H 0.1837 0.82036 0.49355 0.0
C736 C 0.42461 0.2564 0.66957 0.0
C737 C 0.42136 0.22939 0.71211 0.0
C738 C 0.42543 0.25821 0.57948 0.0
C739 C 0.42399 0.2328 0.53093 0.0
C740 C 0.42087 0.20547 0.57361 0.0
C741 C 0.41904 0.20385 0.66404 0.0
C742 C 0.42764 0.28723 0.53632 0.0
C743 C 0.42003 0.17826 0.52385 0.0
C744 C 0.39779 0.22359 0.29767 0.0
C745 C 0.42714 0.23913 0.25435 0.0
C746 C 0.39644 0.22167 0.38778 0.0
C747 C 0.42518 0.23471 0.43538 0.0
C748 C 0.45494 0.25026 0.39183 0.0
C749 C 0.45557 0.25276 0.30155 0.0
C750 C 0.36429 0.20588 0.432 0.0
C751 C 0.48604 0.26377 0.44046 0.0
H752 H 0.42614 0.27605 0.70697 0.0
H753 H 0.41681 0.18311 0.69723 0.0
H754 H 0.44991 0.29974 0.49778 0.0
H755 H 0.40736 0.27983 0.49118 0.0
H756 H 0.42742 0.30438 0.58352 0.0
H757 H 0.41853 0.15921 0.56688 0.0
H758 H 0.39922 0.1676 0.47976 0.0
H759 H 0.44179 0.18732 0.48336 0.0
H760 H 0.3758 0.21316 0.2609 0.0
H761 H 0.47824 0.26441 0.26771 0.0
H762 H 0.36308 0.22277 0.47811 0.0
H763 H 0.36093 0.18493 0.46964 0.0
H764 H 0.34426 0.19779 0.38553 0.0
H765 H 0.48848 0.28269 0.48534 0.0
H766 H 0.50706 0.27404 0.39672 0.0
H767 H 0.48624 0.24476 0.48001 0.0
loop_
_geom_bond_atom_site_label_1
_geom_bond_atom_site_label_2
_geom_bond_distance
_geom_bond_site_symmetry_2
_ccdc_geom_bond_type
Zn0 O1 2.055 . S
Zn0 O8 2.046 . S
Zn0 N16 2.036 1_554 S
Zn0 O28 2.053 1_554 S
Zn0 O30 2.066 . S
O1 Zn0 2.055 . S
O1 C4 1.259 . S
C2 O30 1.256 . S
C2 O31 1.244 . S
Zn3 O5 2.046 . S
Zn3 O7 2.055 . S
Zn3 N9 2.036 . S
Zn3 O27 2.066 1_554 S
Zn3 O31 2.053 . S
C4 O1 1.259 . S
C4 O5 1.254 . S
O5 Zn3 2.046 . S
O5 C4 1.254 . S
C6 O27 1.256 . S
C6 O28 1.244 . S
O7 Zn3 2.055 . S
O7 C29 1.259 . S
O8 Zn0 2.046 . S
O8 C29 1.255 . S
N9 Zn3 2.036 . S
N9 C10 1.298 1_554 S
N9 N12 1.398 . S
C10 N9 1.298 1_556 S
C10 N13 1.367 . S
C10 C23 1.481 . S
C11 N12 1.299 . S
C11 N13 1.379 1_554 S
N12 N9 1.398 . S
N12 C11 1.299 . S
N13 C10 1.367 . S
N13 C11 1.379 1_556 S
C14 N16 1.298 1_554 S
C14 N18 1.367 1_554 S
C14 C22 1.481 . S
C15 N17 1.299 . S
C15 N18 1.379 . S
N16 Zn0 2.036 1_556 S
N16 C14 1.298 1_556 S
N16 N17 1.398 . S
N17 C15 1.299 . S
N17 N16 1.398 . S
N18 C14 1.367 1_556 S
N18 C15 1.379 . S
H19 C22 0.980 . S
H20 C22 0.981 . S
H21 C22 0.981 . S
C22 C14 1.481 . S
C22 H19 0.980 . S
C22 H20 0.981 . S
C22 H21 0.981 . S
C23 C10 1.481 . S
C23 H24 0.980 . S
C23 H25 0.981 . S
C23 H26 0.981 . S
H24 C23 0.980 . S
H25 C23 0.981 . S
H26 C23 0.981 . S
O27 Zn3 2.066 1_556 S
O27 C6 1.256 . S
O28 Zn0 2.053 1_556 S
O28 C6 1.244 . S
C29 O7 1.259 . S
C29 O8 1.255 . S
O30 Zn0 2.066 . S
O30 C2 1.256 . S
O31 C2 1.244 . S
O31 Zn3 2.053 . S
Zn32 O33 2.055 . S
Zn32 O40 2.046 . S
Zn32 N48 2.036 1_554 S
Zn32 O60 2.053 1_554 S
Zn32 O62 2.066 . S
O33 Zn32 2.055 . S
O33 C36 1.259 . S
C34 O62 1.256 . S
C34 O63 1.244 . S
Zn35 O37 2.046 . S
Zn35 O39 2.055 . S
Zn35 N41 2.036 . S
Zn35 O59 2.066 1_554 S
Zn35 O63 2.053 . S
C36 O33 1.259 . S
C36 O37 1.254 . S
O37 Zn35 2.046 . S
O37 C36 1.254 . S
C38 O59 1.256 . S
C38 O60 1.244 . S
O39 Zn35 2.055 . S
O39 C61 1.259 . S
O40 Zn32 2.046 . S
O40 C61 1.255 . S
N41 Zn35 2.036 . S
N41 C42 1.298 1_554 S
N41 N44 1.398 . S
C42 N41 1.298 1_556 S
C42 N45 1.367 . S
C42 C55 1.481 . S
C43 N44 1.299 . S
C43 N45 1.379 1_554 S
N44 N41 1.398 . S
N44 C43 1.299 . S
N45 C42 1.367 . S
N45 C43 1.379 1_556 S
C46 N48 1.298 1_554 S
C46 N50 1.367 1_554 S
C46 C54 1.481 . S
C47 N49 1.299 . S
C47 N50 1.379 . S
N48 Zn32 2.036 1_556 S
N48 C46 1.298 1_556 S
N48 N49 1.398 . S
N49 C47 1.299 . S
N49 N48 1.398 . S
N50 C46 1.367 1_556 S
N50 C47 1.379 . S
H51 C54 0.980 . S
H52 C54 0.981 . S
H53 C54 0.981 . S
C54 C46 1.481 . S
C54 H51 0.980 . S
C54 H52 0.981 . S
C54 H53 0.981 . S
C55 C42 1.481 . S
C55 H56 0.980 . S
C55 H57 0.981 . S
C55 H58 0.981 . S
H56 C55 0.980 . S
H57 C55 0.981 . S
H58 C55 0.981 . S
O59 Zn35 2.066 1_556 S
O59 C38 1.256 . S
O60 Zn32 2.053 1_556 S
O60 C38 1.244 . S
C61 O39 1.259 . S
C61 O40 1.255 . S
O62 Zn32 2.066 . S
O62 C34 1.256 . S
O63 C34 1.244 . S
O63 Zn35 2.053 . S
Zn64 O65 2.055 . S
Zn64 O72 2.046 . S
Zn64 N80 2.036 1_554 S
Zn64 O92 2.053 1_554 S
Zn64 O94 2.066 . S
O65 Zn64 2.055 . S
O65 C68 1.259 . S
C66 O94 1.256 . S
C66 O95 1.244 . S
Zn67 O69 2.046 . S
Zn67 O71 2.055 . S
Zn67 N73 2.036 . S
Zn67 O91 2.066 1_554 S
Zn67 O95 2.053 . S
C68 O65 1.259 . S
C68 O69 1.254 . S
O69 Zn67 2.046 . S
O69 C68 1.254 . S
C70 O91 1.256 . S
C70 O92 1.244 . S
O71 Zn67 2.055 . S
O71 C93 1.259 . S
O72 Zn64 2.046 . S
O72 C93 1.255 . S
N73 Zn67 2.036 . S
N73 C74 1.298 1_554 S
N73 N76 1.398 . S
C74 N73 1.298 1_556 S
C74 N77 1.367 . S
C74 C87 1.481 . S
C75 N76 1.299 . S
C75 N77 1.379 1_554 S
N76 N73 1.398 . S
N76 C75 1.299 . S
N77 C74 1.367 . S
N77 C75 1.379 1_556 S
C78 N80 1.298 1_554 S
C78 N82 1.367 1_554 S
C78 C86 1.481 . S
C79 N81 1.299 . S
C79 N82 1.379 . S
N80 Zn64 2.036 1_556 S
N80 C78 1.298 1_556 S
N80 N81 1.398 . S
N81 C79 1.299 . S
N81 N80 1.398 . S
N82 C78 1.367 1_556 S
N82 C79 1.379 . S
H83 C86 0.980 . S
H84 C86 0.981 . S
H85 C86 0.981 . S
C86 C78 1.481 . S
C86 H83 0.980 . S
C86 H84 0.981 . S
C86 H85 0.981 . S
C87 C74 1.481 . S
C87 H88 0.980 . S
C87 H89 0.981 . S
C87 H90 0.981 . S
H88 C87 0.980 . S
H89 C87 0.981 . S
H90 C87 0.981 . S
O91 Zn67 2.066 1_556 S
O91 C70 1.256 . S
O92 Zn64 2.053 1_556 S
O92 C70 1.244 . S
C93 O71 1.259 . S
C93 O72 1.255 . S
O94 Zn64 2.066 . S
O94 C66 1.256 . S
O95 C66 1.244 . S
O95 Zn67 2.053 . S
Zn96 O97 2.055 . S
Zn96 O104 2.046 . S
Zn96 N112 2.036 1_554 S
Zn96 O124 2.053 1_554 S
Zn96 O126 2.066 . S
O97 Zn96 2.055 . S
O97 C100 1.259 . S
C98 O126 1.256 . S
C98 O127 1.244 . S
Zn99 O101 2.046 . S
Zn99 O103 2.055 . S
Zn99 N105 2.036 . S
Zn99 O123 2.066 1_554 S
Zn99 O127 2.053 . S
C100 O97 1.259 . S
C100 O101 1.254 . S
O101 Zn99 2.046 . S
O101 C100 1.254 . S
C102 O123 1.256 . S
C102 O124 1.244 . S
O103 Zn99 2.055 . S
O103 C125 1.259 . S
O104 Zn96 2.046 . S
O104 C125 1.255 . S
N105 Zn99 2.036 . S
N105 C106 1.298 1_554 S
N105 N108 1.398 . S
C106 N105 1.298 1_556 S
C106 N109 1.367 . S
C106 C119 1.481 . S
C107 N108 1.299 . S
C107 N109 1.379 1_554 S
N108 N105 1.398 . S
N108 C107 1.299 . S
N109 C106 1.367 . S
N109 C107 1.379 1_556 S
C110 N112 1.298 1_554 S
C110 N114 1.367 1_554 S
C110 C118 1.481 . S
C111 N113 1.299 . S
C111 N114 1.379 . S
N112 Zn96 2.036 1_556 S
N112 C110 1.298 1_556 S
N112 N113 1.398 . S
N113 C111 1.299 . S
N113 N112 1.398 . S
N114 C110 1.367 1_556 S
N114 C111 1.379 . S
H115 C118 0.980 . S
H116 C118 0.981 . S
H117 C118 0.981 . S
C118 C110 1.481 . S
C118 H115 0.980 . S
C118 H116 0.981 . S
C118 H117 0.981 . S
C119 C106 1.481 . S
C119 H120 0.980 . S
C119 H121 0.981 . S
C119 H122 0.981 . S
H120 C119 0.980 . S
H121 C119 0.981 . S
H122 C119 0.981 . S
O123 Zn99 2.066 1_556 S
O123 C102 1.256 . S
O124 Zn96 2.053 1_556 S
O124 C102 1.244 . S
C125 O103 1.259 . S
C125 O104 1.255 . S
O126 Zn96 2.066 . S
O126 C98 1.256 . S
O127 C98 1.244 . S
O127 Zn99 2.053 . S
Zn128 O129 2.055 . S
Zn128 O136 2.046 . S
Zn128 N144 2.036 1_554 S
Zn128 O156 2.053 1_554 S
Zn128 O158 2.066 . S
O129 Zn128 2.055 . S
O129 C132 1.259 . S
C130 O158 1.256 . S
C130 O159 1.244 . S
Zn131 O133 2.046 . S
Zn131 O135 2.055 . S
Zn131 N137 2.036 . S
Zn131 O155 2.066 1_554 S
Zn131 O159 2.053 . S
C132 O129 1.259 . S
C132 O133 1.254 . S
O133 Zn131 2.046 . S
O133 C132 1.254 . S
C134 O155 1.256 . S
C134 O156 1.244 . S
O135 Zn131 2.055 . S
O135 C157 1.259 . S
O136 Zn128 2.046 . S
O136 C157 1.255 . S
N137 Zn131 2.036 . S
N137 C138 1.298 1_554 S
N137 N140 1.398 . S
C138 N137 1.298 1_556 S
C138 N141 1.367 . S
C138 C151 1.481 . S
C139 N140 1.299 . S
C139 N141 1.379 1_554 S
N140 N137 1.398 . S
N140 C139 1.299 . S
N141 C138 1.367 . S
N141 C139 1.379 1_556 S
C142 N144 1.298 1_554 S
C142 N146 1.367 1_554 S
C142 C150 1.481 . S
C143 N145 1.299 . S
C143 N146 1.379 . S
N144 Zn128 2.036 1_556 S
N144 C142 1.298 1_556 S
N144 N145 1.398 . S
N145 C143 1.299 . S
N145 N144 1.398 . S
N146 C142 1.367 1_556 S
N146 C143 1.379 . S
H147 C150 0.980 . S
H148 C150 0.981 . S
H149 C150 0.981 . S
C150 C142 1.481 . S
C150 H147 0.980 . S
C150 H148 0.981 . S
C150 H149 0.981 . S
C151 C138 1.481 . S
C151 H152 0.980 . S
C151 H153 0.981 . S
C151 H154 0.981 . S
H152 C151 0.980 . S
H153 C151 0.981 . S
H154 C151 0.981 . S
O155 Zn131 2.066 1_556 S
O155 C134 1.256 . S
O156 Zn128 2.053 1_556 S
O156 C134 1.244 . S
C157 O135 1.259 . S
C157 O136 1.255 . S
O158 Zn128 2.066 . S
O158 C130 1.256 . S
O159 C130 1.244 . S
O159 Zn131 2.053 . S
Zn160 O161 2.055 . S
Zn160 O168 2.046 . S
Zn160 N176 2.036 1_554 S
Zn160 O188 2.053 1_554 S
Zn160 O190 2.066 . S
O161 Zn160 2.055 . S
O161 C164 1.259 . S
C162 O190 1.256 . S
C162 O191 1.244 . S
Zn163 O165 2.046 . S
Zn163 O167 2.055 . S
Zn163 N169 2.036 . S
Zn163 O187 2.066 1_554 S
Zn163 O191 2.053 . S
C164 O161 1.259 . S
C164 O165 1.254 . S
O165 Zn163 2.046 . S
O165 C164 1.254 . S
C166 O187 1.256 . S
C166 O188 1.244 . S
O167 Zn163 2.055 . S
O167 C189 1.259 . S
O168 Zn160 2.046 . S
O168 C189 1.255 . S
N169 Zn163 2.036 . S
N169 C170 1.298 1_554 S
N169 N172 1.398 . S
C170 N169 1.298 1_556 S
C170 N173 1.367 . S
C170 C183 1.481 . S
C171 N172 1.299 . S
C171 N173 1.379 1_554 S
N172 N169 1.398 . S
N172 C171 1.299 . S
N173 C170 1.367 . S
N173 C171 1.379 1_556 S
C174 N176 1.298 1_554 S
C174 N178 1.367 1_554 S
C174 C182 1.481 . S
C175 N177 1.299 . S
C175 N178 1.379 . S
N176 Zn160 2.036 1_556 S
N176 C174 1.298 1_556 S
N176 N177 1.398 . S
N177 C175 1.299 . S
N177 N176 1.398 . S
N178 C174 1.367 1_556 S
N178 C175 1.379 . S
H179 C182 0.980 . S
H180 C182 0.981 . S
H181 C182 0.981 . S
C182 C174 1.481 . S
C182 H179 0.980 . S
C182 H180 0.981 . S
C182 H181 0.981 . S
C183 C170 1.481 . S
C183 H184 0.980 . S
C183 H185 0.981 . S
C183 H186 0.981 . S
H184 C183 0.980 . S
H185 C183 0.981 . S
H186 C183 0.981 . S
O187 Zn163 2.066 1_556 S
O187 C166 1.256 . S
O188 Zn160 2.053 1_556 S
O188 C166 1.244 . S
C189 O167 1.259 . S
C189 O168 1.255 . S
O190 Zn160 2.066 . S
O190 C162 1.256 . S
O191 C162 1.244 . S
O191 Zn163 2.053 . S
C192 C193 1.391 1_554 S
C192 C194 1.394 . S
C192 H208 0.931 . S
C193 C192 1.391 1_556 S
C193 C197 1.376 . S
C194 C192 1.394 . S
C194 C195 1.369 1_554 S
C194 C198 1.531 . S
C195 C194 1.369 1_556 S
C195 C196 1.410 . S
C195 C203 1.503 . S
C196 C195 1.410 . S
C196 C197 1.392 . S
C196 C199 1.511 . S
C197 C193 1.376 . S
C197 C196 1.392 . S
C197 H209 0.929 . S
C198 C194 1.531 . S
C198 H210 0.960 . S
C198 H211 0.962 . S
C198 H212 0.960 . S
C199 C196 1.511 . S
C199 H213 0.961 . S
C199 H214 0.961 . S
C199 H215 0.961 . S
C200 C201 1.370 . S
C200 C202 1.363 . S
C200 H216 0.931 . S
C201 C200 1.370 . S
C201 C205 1.403 1_556 S
C202 C200 1.363 . S
C202 C203 1.370 . S
C202 C206 1.524 . S
C203 C195 1.503 . S
C203 C202 1.370 . S
C203 C204 1.403 1_556 S
C204 C203 1.403 1_554 S
C204 C205 1.405 . S
C204 C207 1.539 . S
C205 C201 1.403 1_554 S
C205 C204 1.405 . S
C205 H217 0.934 . S
C206 C202 1.524 . S
C206 H218 0.956 . S
C206 H219 0.961 . S
C206 H220 0.961 . S
C207 C204 1.539 . S
C207 H221 0.958 . S
C207 H222 0.961 . S
C207 H223 0.960 . S
H208 C192 0.931 . S
H209 C197 0.929 . S
H210 C198 0.960 . S
H211 C198 0.962 . S
H212 C198 0.960 . S
H213 C199 0.961 . S
H214 C199 0.961 . S
H215 C199 0.961 . S
H216 C200 0.931 . S
H217 C205 0.934 . S
H218 C206 0.956 . S
H219 C206 0.961 . S
H220 C206 0.961 . S
H221 C207 0.958 . S
H222 C207 0.961 . S
H223 C207 0.960 . S
C224 C225 1.391 . S
C224 C226 1.394 . S
C224 H240 0.931 . S
C225 C224 1.391 . S
C225 C229 1.376 1_556 S
C226 C224 1.394 . S
C226 C227 1.369 . S
C226 C230 1.531 . S
C227 C226 1.369 . S
C227 C228 1.410 1_556 S
C227 C235 1.503 . S
C228 C227 1.410 1_554 S
C228 C229 1.392 . S
C228 C231 1.511 . S
C229 C225 1.376 1_554 S
C229 C228 1.392 . S
C229 H241 0.929 . S
C230 C226 1.531 . S
C230 H242 0.960 . S
C230 H243 0.962 . S
C230 H244 0.960 . S
C231 C228 1.511 . S
C231 H245 0.961 . S
C231 H246 0.961 . S
C231 H247 0.961 . S
C232 C233 1.370 1_554 S
C232 C234 1.363 . S
C232 H248 0.931 . S
C233 C232 1.370 1_556 S
C233 C237 1.408 . S
C234 C232 1.363 . S
C234 C235 1.370 1_654 S
C234 C238 1.524 1_655 S
C235 C227 1.503 . S
C235 C234 1.370 1_456 S
C235 C236 1.403 1_455 S
C236 C235 1.403 1_655 S
C236 C237 1.404 . S
C236 C239 1.539 1_655 S
C237 C233 1.408 . S
C237 C236 1.404 . S
C237 H249 0.930 . S
C238 C234 1.524 1_455 S
C238 H250 0.956 . S
C238 H251 0.961 . S
C238 H252 0.961 1_455 S
C239 C236 1.539 1_455 S
C239 H253 0.958 . S
C239 H254 0.961 . S
C239 H255 0.960 . S
H240 C224 0.931 . S
H241 C229 0.929 . S
H242 C230 0.960 . S
H243 C230 0.962 . S
H244 C230 0.960 . S
H245 C231 0.961 . S
H246 C231 0.961 . S
H247 C231 0.961 . S
H248 C232 0.931 . S
H249 C237 0.930 . S
H250 C238 0.956 . S
H251 C238 0.961 . S
H252 C238 0.961 1_655 S
H253 C239 0.958 . S
H254 C239 0.961 . S
H255 C239 0.960 . S
C256 C257 1.391 . S
C256 C258 1.394 . S
C256 H272 0.931 . S
C257 C256 1.391 . S
C257 C261 1.376 1_556 S
C258 C256 1.394 . S
C258 C259 1.369 . S
C258 C262 1.531 . S
C259 C258 1.369 . S
C259 C260 1.410 1_556 S
C259 C267 1.503 . S
C260 C259 1.410 1_554 S
C260 C261 1.392 . S
C260 C263 1.511 . S
C261 C257 1.376 1_554 S
C261 C260 1.392 . S
C261 H273 0.929 . S
C262 C258 1.531 . S
C262 H274 0.960 . S
C262 H275 0.962 . S
C262 H276 0.960 . S
C263 C260 1.511 . S
C263 H277 0.961 . S
C263 H278 0.961 . S
C263 H279 0.961 . S
C264 C265 1.370 . S
C264 C266 1.363 . S
C264 H280 0.931 1_556 S
C265 C264 1.370 . S
C265 C269 1.408 . S
C266 C264 1.363 . S
C266 C267 1.370 1_565 S
C266 C270 1.524 1_566 S
C267 C259 1.503 . S
C267 C266 1.370 1_545 S
C267 C268 1.376 1_545 S
C268 C267 1.376 1_565 S
C268 C269 1.434 . S
C268 C271 1.538 1_565 S
C269 C265 1.408 . S
C269 C268 1.434 . S
C269 H281 0.930 . S
C270 C266 1.524 1_544 S
C270 H282 0.956 1_554 S
C270 H283 0.961 . S
C270 H284 0.961 1_545 S
C271 C268 1.538 1_545 S
C271 H285 0.958 . S
C271 H286 0.961 . S
C271 H287 0.960 . S
H272 C256 0.931 . S
H273 C261 0.929 . S
H274 C262 0.960 . S
H275 C262 0.962 . S
H276 C262 0.960 . S
H277 C263 0.961 . S
H278 C263 0.961 . S
H279 C263 0.961 . S
H280 C264 0.931 1_554 S
H281 C269 0.930 . S
H282 C270 0.956 1_556 S
H283 C270 0.961 . S
H284 C270 0.961 1_565 S
H285 C271 0.958 . S
H286 C271 0.961 . S
H287 C271 0.960 . S
C288 C289 1.391 . S
C288 C290 1.394 . S
C288 H304 0.931 . S
C289 C288 1.391 . S
C289 C293 1.376 1_556 S
C290 C288 1.394 . S
C290 C291 1.369 . S
C290 C294 1.531 . S
C291 C290 1.369 . S
C291 C292 1.410 1_556 S
C291 C299 1.503 . S
C292 C291 1.410 1_554 S
C292 C293 1.392 . S
C292 C295 1.511 . S
C293 C289 1.376 1_554 S
C293 C292 1.392 . S
C293 H305 0.929 . S
C294 C290 1.531 . S
C294 H306 0.960 . S
C294 H307 0.962 . S
C294 H308 0.960 . S
C295 C292 1.511 . S
C295 H309 0.961 . S
C295 H310 0.961 . S
C295 H311 0.961 . S
C296 C297 1.370 . S
C296 C298 1.363 . S
C296 H312 0.931 . S
C297 C296 1.370 . S
C297 C301 1.408 1_556 S
C298 C296 1.363 . S
C298 C299 1.370 . S
C298 C302 1.524 . S
C299 C291 1.503 . S
C299 C298 1.370 . S
C299 C300 1.403 1_556 S
C300 C299 1.403 1_554 S
C300 C301 1.404 . S
C300 C303 1.539 . S
C301 C297 1.408 1_554 S
C301 C300 1.404 . S
C301 H313 0.930 . S
C302 C298 1.524 . S
C302 H314 0.956 . S
C302 H315 0.961 . S
C302 H316 0.961 . S
C303 C300 1.539 . S
C303 H317 0.958 . S
C303 H318 0.961 . S
C303 H319 0.960 . S
H304 C288 0.931 . S
H305 C293 0.929 . S
H306 C294 0.960 . S
H307 C294 0.962 . S
H308 C294 0.960 . S
H309 C295 0.961 . S
H310 C295 0.961 . S
H311 C295 0.961 . S
H312 C296 0.931 . S
H313 C301 0.930 . S
H314 C302 0.956 . S
H315 C302 0.961 . S
H316 C302 0.961 . S
H317 C303 0.958 . S
H318 C303 0.961 . S
H319 C303 0.960 . S
C320 C321 1.391 . S
C320 C322 1.395 1_455 S
C320 H336 0.931 . S
C321 C320 1.391 . S
C321 C325 1.376 1_556 S
C322 C320 1.395 1_655 S
C322 C323 1.369 . S
C322 C326 1.529 . S
C323 C322 1.369 . S
C323 C324 1.410 1_656 S
C323 C331 1.503 . S
C324 C323 1.410 1_454 S
C324 C325 1.392 . S
C324 C327 1.511 1_455 S
C325 C321 1.376 1_554 S
C325 C324 1.392 . S
C325 H337 0.929 . S
C326 C322 1.529 . S
C326 H338 0.960 . S
C326 H339 0.962 . S
C326 H340 0.960 . S
C327 C324 1.511 1_655 S
C327 H341 0.961 1_655 S
C327 H342 0.961 . S
C327 H343 0.961 . S
C328 C329 1.370 1_554 S
C328 C330 1.363 . S
C328 H344 0.931 . S
C329 C328 1.370 1_556 S
C329 C333 1.408 . S
C330 C328 1.363 . S
C330 C331 1.370 1_554 S
C330 C334 1.524 . S
C331 C323 1.503 . S
C331 C330 1.370 1_556 S
C331 C332 1.403 . S
C332 C331 1.403 . S
C332 C333 1.404 . S
C332 C335 1.539 . S
C333 C329 1.408 . S
C333 C332 1.404 . S
C333 H345 0.930 . S
C334 C330 1.524 . S
C334 H346 0.956 . S
C334 H347 0.961 . S
C334 H348 0.961 . S
C335 C332 1.539 . S
C335 H349 0.958 . S
C335 H350 0.961 . S
C335 H351 0.960 . S
H336 C320 0.931 . S
H337 C325 0.929 . S
H338 C326 0.960 . S
H339 C326 0.962 . S
H340 C326 0.960 . S
H341 C327 0.961 1_455 S
H342 C327 0.961 . S
H343 C327 0.961 . S
H344 C328 0.931 . S
H345 C333 0.930 . S
H346 C334 0.956 . S
H347 C334 0.961 . S
H348 C334 0.961 . S
H349 C335 0.958 . S
H350 C335 0.961 . S
H351 C335 0.960 . S
C352 C353 1.391 . S
C352 C354 1.394 . S
C352 H368 0.931 . S
C353 C352 1.391 . S
C353 C357 1.376 1_556 S
C354 C352 1.394 . S
C354 C355 1.369 . S
C354 C358 1.531 . S
C355 C354 1.369 . S
C355 C356 1.410 1_556 S
C355 C363 1.503 . S
C356 C355 1.410 1_554 S
C356 C357 1.392 . S
C356 C359 1.511 . S
C357 C353 1.376 1_554 S
C357 C356 1.392 . S
C357 H369 0.929 . S
C358 C354 1.531 . S
C358 H370 0.960 . S
C358 H371 0.962 . S
C358 H372 0.960 . S
C359 C356 1.511 . S
C359 H373 0.961 . S
C359 H374 0.961 . S
C359 H375 0.961 . S
C360 C361 1.370 . S
C360 C362 1.399 . S
C360 H376 0.931 . S
C361 C360 1.370 . S
C361 C365 1.408 1_556 S
C362 C360 1.399 . S
C362 C363 1.365 1_545 S
C362 C366 1.496 1_545 S
C363 C355 1.503 . S
C363 C362 1.365 1_565 S
C363 C364 1.403 1_566 S
C364 C363 1.403 1_544 S
C364 C365 1.404 . S
C364 C367 1.539 1_545 S
C365 C361 1.408 1_554 S
C365 C364 1.404 . S
C365 H377 0.930 . S
C366 C362 1.496 1_565 S
C366 H378 0.956 . S
C366 H379 0.961 . S
C366 H380 0.961 . S
C367 C364 1.539 1_565 S
C367 H381 0.958 . S
C367 H382 0.961 1_565 S
C367 H383 0.960 . S
H368 C352 0.931 . S
H369 C357 0.929 . S
H370 C358 0.960 . S
H371 C358 0.962 . S
H372 C358 0.960 . S
H373 C359 0.961 . S
H374 C359 0.961 . S
H375 C359 0.961 . S
H376 C360 0.931 . S
H377 C365 0.930 . S
H378 C366 0.956 . S
H379 C366 0.961 . S
H380 C366 0.961 . S
H381 C367 0.958 . S
H382 C367 0.961 1_545 S
H383 C367 0.960 . S
C384 C385 1.391 1_556 S
C384 C386 1.394 . S
C384 H400 0.931 . S
C385 C384 1.391 1_554 S
C385 C389 1.376 . S
C386 C384 1.394 . S
C386 C387 1.369 . S
C386 C390 1.531 . S
C387 C386 1.369 . S
C387 C388 1.410 1_556 S
C387 C395 1.503 . S
C388 C387 1.410 1_554 S
C388 C389 1.392 . S
C388 C391 1.511 . S
C389 C385 1.376 . S
C389 C388 1.392 . S
C389 H401 0.929 . S
C390 C386 1.531 . S
C390 H402 0.960 . S
C390 H403 0.962 . S
C390 H404 0.960 . S
C391 C388 1.511 . S
C391 H405 0.961 . S
C391 H406 0.961 . S
C391 H407 0.961 . S
C392 C393 1.370 . S
C392 C394 1.363 . S
C392 H408 0.931 . S
C393 C392 1.370 . S
C393 C397 1.408 1_554 S
C394 C392 1.363 . S
C394 C395 1.371 1_554 S
C394 C398 1.524 . S
C395 C387 1.503 . S
C395 C394 1.371 1_556 S
C395 C396 1.402 . S
C396 C395 1.402 . S
C396 C397 1.404 . S
C396 C399 1.539 . S
C397 C393 1.408 1_556 S
C397 C396 1.404 . S
C397 H409 0.930 . S
C398 C394 1.524 . S
C398 H410 0.956 . S
C398 H411 0.961 . S
C398 H412 0.961 . S
C399 C396 1.539 . S
C399 H413 0.958 . S
C399 H414 0.961 . S
C399 H415 0.960 . S
H400 C384 0.931 . S
H401 C389 0.929 . S
H402 C390 0.960 . S
H403 C390 0.962 . S
H404 C390 0.960 . S
H405 C391 0.961 . S
H406 C391 0.961 . S
H407 C391 0.961 . S
H408 C392 0.931 . S
H409 C397 0.930 . S
H410 C398 0.956 . S
H411 C398 0.961 . S
H412 C398 0.961 . S
H413 C399 0.958 . S
H414 C399 0.961 . S
H415 C399 0.960 . S
C416 C417 1.391 . S
C416 C418 1.394 . S
C416 H432 0.931 . S
C417 C416 1.391 . S
C417 C421 1.376 1_554 S
C418 C416 1.394 . S
C418 C419 1.369 . S
C418 C422 1.531 . S
C419 C418 1.369 . S
C419 C420 1.410 1_554 S
C419 C427 1.503 . S
C420 C419 1.410 1_556 S
C420 C421 1.392 . S
C420 C423 1.511 . S
C421 C417 1.376 1_556 S
C421 C420 1.392 . S
C421 H433 0.929 . S
C422 C418 1.531 . S
C422 H434 0.960 . S
C422 H435 0.962 . S
C422 H436 0.960 . S
C423 C420 1.511 . S
C423 H437 0.961 . S
C423 H438 0.961 . S
C423 H439 0.961 . S
C424 C425 1.370 . S
C424 C426 1.363 . S
C424 H440 0.931 . S
C425 C424 1.370 . S
C425 C429 1.408 1_554 S
C426 C424 1.363 . S
C426 C427 1.370 . S
C426 C430 1.524 . S
C427 C419 1.503 . S
C427 C426 1.370 . S
C427 C428 1.403 1_554 S
C428 C427 1.403 1_556 S
C428 C429 1.404 . S
C428 C431 1.539 . S
C429 C425 1.408 1_556 S
C429 C428 1.404 . S
C429 H441 0.930 . S
C430 C426 1.524 . S
C430 H442 0.956 . S
C430 H443 0.961 . S
C430 H444 0.961 . S
C431 C428 1.539 . S
C431 H445 0.958 . S
C431 H446 0.961 . S
C431 H447 0.960 . S
H432 C416 0.931 . S
H433 C421 0.929 . S
H434 C422 0.960 . S
H435 C422 0.962 . S
H436 C422 0.960 . S
H437 C423 0.961 . S
H438 C423 0.961 . S
H439 C423 0.961 . S
H440 C424 0.931 . S
H441 C429 0.930 . S
H442 C430 0.956 . S
H443 C430 0.961 . S
H444 C430 0.961 . S
H445 C431 0.958 . S
H446 C431 0.961 . S
H447 C431 0.960 . S
C448 C449 1.391 . S
C448 C450 1.394 . S
C448 H464 0.931 . S
C449 C448 1.391 . S
C449 C453 1.376 1_554 S
C450 C448 1.394 . S
C450 C451 1.369 . S
C450 C454 1.531 . S
C451 C450 1.369 . S
C451 C452 1.410 1_554 S
C451 C459 1.503 . S
C452 C451 1.410 1_556 S
C452 C453 1.392 . S
C452 C455 1.511 . S
C453 C449 1.376 1_556 S
C453 C452 1.392 . S
C453 H465 0.929 . S
C454 C450 1.531 . S
C454 H466 0.960 . S
C454 H467 0.962 . S
C454 H468 0.960 . S
C455 C452 1.511 . S
C455 H469 0.961 . S
C455 H470 0.961 . S
C455 H471 0.961 . S
C456 C457 1.370 . S
C456 C458 1.363 . S
C456 H472 0.931 . S
C457 C456 1.370 . S
C457 C461 1.408 1_554 S
C458 C456 1.363 . S
C458 C459 1.370 . S
C458 C462 1.524 . S
C459 C451 1.503 . S
C459 C458 1.370 . S
C459 C460 1.403 1_554 S
C460 C459 1.403 1_556 S
C460 C461 1.404 . S
C460 C463 1.539 . S
C461 C457 1.408 1_556 S
C461 C460 1.404 . S
C461 H473 0.930 . S
C462 C458 1.524 . S
C462 H474 0.956 . S
C462 H475 0.961 . S
C462 H476 0.961 . S
C463 C460 1.539 . S
C463 H477 0.958 . S
C463 H478 0.961 . S
C463 H479 0.960 . S
H464 C448 0.931 . S
H465 C453 0.929 . S
H466 C454 0.960 . S
H467 C454 0.962 . S
H468 C454 0.960 . S
H469 C455 0.961 . S
H470 C455 0.961 . S
H471 C455 0.961 . S
H472 C456 0.931 . S
H473 C461 0.930 . S
H474 C462 0.956 . S
H475 C462 0.961 . S
H476 C462 0.961 . S
H477 C463 0.958 . S
H478 C463 0.961 . S
H479 C463 0.960 . S
C480 C481 1.391 . S
C480 C482 1.394 . S
C480 H496 0.931 . S
C481 C480 1.391 . S
C481 C485 1.376 1_554 S
C482 C480 1.394 . S
C482 C483 1.369 . S
C482 C486 1.531 . S
C483 C482 1.369 . S
C483 C484 1.410 1_554 S
C483 C491 1.503 . S
C484 C483 1.410 1_556 S
C484 C485 1.392 . S
C484 C487 1.511 . S
C485 C481 1.376 1_556 S
C485 C484 1.392 . S
C485 H497 0.929 . S
C486 C482 1.531 . S
C486 H498 0.960 . S
C486 H499 0.962 . S
C486 H500 0.960 . S
C487 C484 1.511 . S
C487 H501 0.961 . S
C487 H502 0.961 . S
C487 H503 0.961 . S
C488 C489 1.370 1_556 S
C488 C490 1.363 . S
C488 H504 0.931 . S
C489 C488 1.370 1_554 S
C489 C493 1.408 . S
C490 C488 1.363 . S
C490 C491 1.370 1_556 S
C490 C494 1.524 . S
C491 C483 1.503 . S
C491 C490 1.370 1_554 S
C491 C492 1.403 . S
C492 C491 1.403 . S
C492 C493 1.404 . S
C492 C495 1.539 . S
C493 C489 1.408 . S
C493 C492 1.404 . S
C493 H505 0.930 . S
C494 C490 1.524 . S
C494 H506 0.956 . S
C494 H507 0.961 . S
C494 H508 0.961 . S
C495 C492 1.539 . S
C495 H509 0.958 . S
C495 H510 0.961 . S
C495 H511 0.960 . S
H496 C480 0.931 . S
H497 C485 0.929 . S
H498 C486 0.960 . S
H499 C486 0.962 . S
H500 C486 0.960 . S
H501 C487 0.961 . S
H502 C487 0.961 . S
H503 C487 0.961 . S
H504 C488 0.931 . S
H505 C493 0.930 . S
H506 C494 0.956 . S
H507 C494 0.961 . S
H508 C494 0.961 . S
H509 C495 0.958 . S
H510 C495 0.961 . S
H511 C495 0.960 . S
C512 C513 1.391 1_556 S
C512 C514 1.394 . S
C512 H528 0.931 . S
C513 C512 1.391 1_554 S
C513 C517 1.376 . S
C514 C512 1.394 . S
C514 C515 1.369 1_556 S
C514 C518 1.531 . S
C515 C514 1.369 1_554 S
C515 C516 1.410 . S
C515 C523 1.503 . S
C516 C515 1.410 . S
C516 C517 1.392 . S
C516 C519 1.511 . S
C517 C513 1.376 . S
C517 C516 1.392 . S
C517 H529 0.929 . S
C518 C514 1.531 . S
C518 H530 0.960 . S
C518 H531 0.962 . S
C518 H532 0.960 . S
C519 C516 1.511 . S
C519 H533 0.961 . S
C519 H534 0.961 . S
C519 H535 0.961 . S
C520 C521 1.370 . S
C520 C522 1.363 . S
C520 H536 0.931 . S
C521 C520 1.370 . S
C521 C525 1.411 . S
C522 C520 1.363 . S
C522 C523 1.370 . S
C522 C526 1.524 . S
C523 C515 1.503 . S
C523 C522 1.370 . S
C523 C524 1.403 1_554 S
C524 C523 1.403 1_556 S
C524 C525 1.403 1_556 S
C524 C527 1.539 . S
C525 C521 1.411 . S
C525 C524 1.403 1_554 S
C525 H537 0.928 1_554 S
C526 C522 1.524 . S
C526 H538 0.956 1_554 S
C526 H539 0.961 . S
C526 H540 0.961 . S
C527 C524 1.539 . S
C527 H541 0.958 . S
C527 H542 0.961 1_556 S
C527 H543 0.960 1_556 S
H528 C512 0.931 . S
H529 C517 0.929 . S
H530 C518 0.960 . S
H531 C518 0.962 . S
H532 C518 0.960 . S
H533 C519 0.961 . S
H534 C519 0.961 . S
H535 C519 0.961 . S
H536 C520 0.931 . S
H537 C525 0.928 1_556 S
H538 C526 0.956 1_556 S
H539 C526 0.961 . S
H540 C526 0.961 . S
H541 C527 0.958 . S
H542 C527 0.961 1_554 S
H543 C527 0.960 1_554 S
C544 C545 1.391 1_556 S
C544 C546 1.394 . S
C544 H560 0.931 . S
C545 C544 1.391 1_554 S
C545 C549 1.376 . S
C546 C544 1.394 . S
C546 C547 1.369 . S
C546 C550 1.531 . S
C547 C546 1.369 . S
C547 C548 1.410 1_556 S
C547 C555 1.503 . S
C548 C547 1.410 1_554 S
C548 C549 1.392 . S
C548 C551 1.511 . S
C549 C545 1.376 . S
C549 C548 1.392 . S
C549 H561 0.929 . S
C550 C546 1.531 . S
C550 H562 0.960 . S
C550 H563 0.962 1_556 S
C550 H564 0.960 . S
C551 C548 1.511 . S
C551 H565 0.961 . S
C551 H566 0.961 . S
C551 H567 0.961 1_554 S
C552 C553 1.370 . S
C552 C554 1.363 . S
C552 H568 0.931 . S
C553 C552 1.370 . S
C553 C557 1.408 1_554 S
C554 C552 1.363 . S
C554 C555 1.370 1_554 S
C554 C558 1.524 . S
C555 C547 1.503 . S
C555 C554 1.370 1_556 S
C555 C556 1.403 . S
C556 C555 1.403 . S
C556 C557 1.404 . S
C556 C559 1.539 . S
C557 C553 1.408 1_556 S
C557 C556 1.404 . S
C557 H569 0.930 . S
C558 C554 1.524 . S
C558 H570 0.956 . S
C558 H571 0.961 . S
C558 H572 0.961 . S
C559 C556 1.539 . S
C559 H573 0.958 . S
C559 H574 0.961 . S
C559 H575 0.960 . S
H560 C544 0.931 . S
H561 C549 0.929 . S
H562 C550 0.960 . S
H563 C550 0.962 1_554 S
H564 C550 0.960 . S
H565 C551 0.961 . S
H566 C551 0.961 . S
H567 C551 0.961 1_556 S
H568 C552 0.931 . S
H569 C557 0.930 . S
H570 C558 0.956 . S
H571 C558 0.961 . S
H572 C558 0.961 . S
H573 C559 0.958 . S
H574 C559 0.961 . S
H575 C559 0.960 . S
C576 C577 1.391 . S
C576 C578 1.394 . S
C576 H592 0.931 . S
C577 C576 1.391 . S
C577 C581 1.376 . S
C578 C576 1.394 . S
C578 C579 1.369 . S
C578 C582 1.531 . S
C579 C578 1.369 . S
C579 C580 1.410 . S
C579 C587 1.503 . S
C580 C579 1.410 . S
C580 C581 1.392 . S
C580 C583 1.511 . S
C581 C577 1.376 . S
C581 C580 1.392 . S
C581 H593 0.929 . S
C582 C578 1.531 . S
C582 H594 0.960 . S
C582 H595 0.962 . S
C582 H596 0.960 . S
C583 C580 1.511 . S
C583 H597 0.961 . S
C583 H598 0.961 . S
C583 H599 0.961 . S
C584 C585 1.370 . S
C584 C586 1.363 . S
C584 H600 0.931 . S
C585 C584 1.370 . S
C585 C589 1.408 . S
C586 C584 1.363 . S
C586 C587 1.370 . S
C586 C590 1.524 . S
C587 C579 1.503 . S
C587 C586 1.370 . S
C587 C588 1.403 . S
C588 C587 1.403 . S
C588 C589 1.404 . S
C588 C591 1.539 . S
C589 C585 1.408 . S
C589 C588 1.404 . S
C589 H601 0.930 . S
C590 C586 1.524 . S
C590 H602 0.956 . S
C590 H603 0.961 . S
C590 H604 0.961 . S
C591 C588 1.539 . S
C591 H605 0.958 . S
C591 H606 0.961 . S
C591 H607 0.960 . S
H592 C576 0.931 . S
H593 C581 0.929 . S
H594 C582 0.960 . S
H595 C582 0.962 . S
H596 C582 0.960 . S
H597 C583 0.961 . S
H598 C583 0.961 . S
H599 C583 0.961 . S
H600 C584 0.931 . S
H601 C589 0.930 . S
H602 C590 0.956 . S
H603 C590 0.961 . S
H604 C590 0.961 . S
H605 C591 0.958 . S
H606 C591 0.961 . S
H607 C591 0.960 . S
C608 C609 1.391 . S
C608 C610 1.394 . S
C608 H624 0.931 . S
C609 C608 1.391 . S
C609 C613 1.376 . S
C610 C608 1.394 . S
C610 C611 1.369 . S
C610 C614 1.531 . S
C611 C610 1.369 . S
C611 C612 1.410 . S
C611 C619 1.503 . S
C612 C611 1.410 . S
C612 C613 1.392 . S
C612 C615 1.511 . S
C613 C609 1.376 . S
C613 C612 1.392 . S
C613 H625 0.929 . S
C614 C610 1.531 . S
C614 H626 0.960 . S
C614 H627 0.962 . S
C614 H628 0.960 . S
C615 C612 1.511 . S
C615 H629 0.961 . S
C615 H630 0.961 . S
C615 H631 0.961 . S
C616 C617 1.370 . S
C616 C618 1.363 . S
C616 H632 0.931 . S
C617 C616 1.370 . S
C617 C621 1.408 . S
C618 C616 1.363 . S
C618 C619 1.370 . S
C618 C622 1.524 . S
C619 C611 1.503 . S
C619 C618 1.370 . S
C619 C620 1.403 . S
C620 C619 1.403 . S
C620 C621 1.404 . S
C620 C623 1.539 . S
C621 C617 1.408 . S
C621 C620 1.404 . S
C621 H633 0.930 . S
C622 C618 1.524 . S
C622 H634 0.956 . S
C622 H635 0.961 . S
C622 H636 0.961 . S
C623 C620 1.539 . S
C623 H637 0.958 . S
C623 H638 0.961 . S
C623 H639 0.960 . S
H624 C608 0.931 . S
H625 C613 0.929 . S
H626 C614 0.960 . S
H627 C614 0.962 . S
H628 C614 0.960 . S
H629 C615 0.961 . S
H630 C615 0.961 . S
H631 C615 0.961 . S
H632 C616 0.931 . S
H633 C621 0.930 . S
H634 C622 0.956 . S
H635 C622 0.961 . S
H636 C622 0.961 . S
H637 C623 0.958 . S
H638 C623 0.961 . S
H639 C623 0.960 . S
C640 C641 1.391 . S
C640 C642 1.394 . S
C640 H656 0.931 . S
C641 C640 1.391 . S
C641 C645 1.376 . S
C642 C640 1.394 . S
C642 C643 1.369 . S
C642 C646 1.531 . S
C643 C642 1.369 . S
C643 C644 1.410 . S
C643 C651 1.503 . S
C644 C643 1.410 . S
C644 C645 1.392 . S
C644 C647 1.511 . S
C645 C641 1.376 . S
C645 C644 1.392 . S
C645 H657 0.929 . S
C646 C642 1.531 . S
C646 H658 0.960 . S
C646 H659 0.962 . S
C646 H660 0.960 . S
C647 C644 1.511 . S
C647 H661 0.961 . S
C647 H662 0.961 . S
C647 H663 0.961 . S
C648 C649 1.370 . S
C648 C650 1.363 . S
C648 H664 0.931 . S
C649 C648 1.370 . S
C649 C653 1.408 . S
C650 C648 1.363 . S
C650 C651 1.370 . S
C650 C654 1.524 . S
C651 C643 1.503 . S
C651 C650 1.370 . S
C651 C652 1.403 . S
C652 C651 1.403 . S
C652 C653 1.404 . S
C652 C655 1.539 . S
C653 C649 1.408 . S
C653 C652 1.404 . S
C653 H665 0.930 . S
C654 C650 1.524 . S
C654 H666 0.956 . S
C654 H667 0.961 . S
C654 H668 0.961 . S
C655 C652 1.539 . S
C655 H669 0.958 . S
C655 H670 0.961 . S
C655 H671 0.960 . S
H656 C640 0.931 . S
H657 C645 0.929 . S
H658 C646 0.960 . S
H659 C646 0.962 . S
H660 C646 0.960 . S
H661 C647 0.961 . S
H662 C647 0.961 . S
H663 C647 0.961 . S
H664 C648 0.931 . S
H665 C653 0.930 . S
H666 C654 0.956 . S
H667 C654 0.961 . S
H668 C654 0.961 . S
H669 C655 0.958 . S
H670 C655 0.961 . S
H671 C655 0.960 . S
C672 C673 1.391 . S
C672 C674 1.394 . S
C672 H688 0.931 . S
C673 C672 1.391 . S
C673 C677 1.376 . S
C674 C672 1.394 . S
C674 C675 1.369 . S
C674 C678 1.531 . S
C675 C674 1.369 . S
C675 C676 1.410 . S
C675 C683 1.503 . S
C676 C675 1.410 . S
C676 C677 1.392 . S
C676 C679 1.511 . S
C677 C673 1.376 . S
C677 C676 1.392 . S
C677 H689 0.929 . S
C678 C674 1.531 . S
C678 H690 0.960 . S
C678 H691 0.962 . S
C678 H692 0.960 . S
C679 C676 1.511 . S
C679 H693 0.961 . S
C679 H694 0.961 . S
C679 H695 0.961 . S
C680 C681 1.370 . S
C680 C682 1.363 . S
C680 H696 0.931 . S
C681 C680 1.370 . S
C681 C685 1.408 . S
C682 C680 1.363 . S
C682 C683 1.370 . S
C682 C686 1.524 . S
C683 C675 1.503 . S
C683 C682 1.370 . S
C683 C684 1.403 . S
C684 C683 1.403 . S
C684 C685 1.404 . S
C684 C687 1.539 . S
C685 C681 1.408 . S
C685 C684 1.404 . S
C685 H697 0.930 . S
C686 C682 1.524 . S
C686 H698 0.956 . S
C686 H699 0.961 . S
C686 H700 0.961 . S
C687 C684 1.539 . S
C687 H701 0.958 . S
C687 H702 0.961 . S
C687 H703 0.960 . S
H688 C672 0.931 . S
H689 C677 0.929 . S
H690 C678 0.960 . S
H691 C678 0.962 . S
H692 C678 0.960 . S
H693 C679 0.961 . S
H694 C679 0.961 . S
H695 C679 0.961 . S
H696 C680 0.931 . S
H697 C685 0.930 . S
H698 C686 0.956 . S
H699 C686 0.961 . S
H700 C686 0.961 . S
H701 C687 0.958 . S
H702 C687 0.961 . S
H703 C687 0.960 . S
C704 C705 1.391 . S
C704 C706 1.394 . S
C704 H720 0.931 . S
C705 C704 1.391 . S
C705 C709 1.376 . S
C706 C704 1.394 . S
C706 C707 1.369 . S
C706 C710 1.531 . S
C707 C706 1.369 . S
C707 C708 1.410 . S
C707 C715 1.503 . S
C708 C707 1.410 . S
C708 C709 1.392 . S
C708 C711 1.511 . S
C709 C705 1.376 . S
C709 C708 1.392 . S
C709 H721 0.929 . S
C710 C706 1.531 . S
C710 H722 0.960 . S
C710 H723 0.962 . S
C710 H724 0.960 . S
C711 C708 1.511 . S
C711 H725 0.961 . S
C711 H726 0.961 . S
C711 H727 0.961 . S
C712 C713 1.370 . S
C712 C714 1.363 . S
C712 H728 0.931 . S
C713 C712 1.370 . S
C713 C717 1.408 . S
C714 C712 1.363 . S
C714 C715 1.370 . S
C714 C718 1.524 . S
C715 C707 1.503 . S
C715 C714 1.370 . S
C715 C716 1.403 . S
C716 C715 1.403 . S
C716 C717 1.404 . S
C716 C719 1.539 . S
C717 C713 1.408 . S
C717 C716 1.404 . S
C717 H729 0.930 . S
C718 C714 1.524 . S
C718 H730 0.956 . S
C718 H731 0.961 . S
C718 H732 0.961 . S
C719 C716 1.539 . S
C719 H733 0.958 . S
C719 H734 0.961 . S
C719 H735 0.960 . S
H720 C704 0.931 . S
H721 C709 0.929 . S
H722 C710 0.960 . S
H723 C710 0.962 . S
H724 C710 0.960 . S
H725 C711 0.961 . S
H726 C711 0.961 . S
H727 C711 0.961 . S
H728 C712 0.931 . S
H729 C717 0.930 . S
H730 C718 0.956 . S
H731 C718 0.961 . S
H732 C718 0.961 . S
H733 C719 0.958 . S
H734 C719 0.961 . S
H735 C719 0.960 . S
C736 C737 1.391 . S
C736 C738 1.394 . S
C736 H752 0.931 . S
C737 C736 1.391 . S
C737 C741 1.376 . S
C738 C736 1.394 . S
C738 C739 1.369 . S
C738 C742 1.531 . S
C739 C738 1.369 . S
C739 C740 1.410 . S
C739 C747 1.503 . S
C740 C739 1.410 . S
C740 C741 1.392 . S
C740 C743 1.511 . S
C741 C737 1.376 . S
C741 C740 1.392 . S
C741 H753 0.929 . S
C742 C738 1.531 . S
C742 H754 0.960 . S
C742 H755 0.962 . S
C742 H756 0.960 . S
C743 C740 1.511 . S
C743 H757 0.961 . S
C743 H758 0.961 . S
C743 H759 0.961 . S
C744 C745 1.370 . S
C744 C746 1.363 . S
C744 H760 0.931 . S
C745 C744 1.370 . S
C745 C749 1.408 . S
C746 C744 1.363 . S
C746 C747 1.370 . S
C746 C750 1.524 . S
C747 C739 1.503 . S
C747 C746 1.370 . S
C747 C748 1.403 . S
C748 C747 1.403 . S
C748 C749 1.404 . S
C748 C751 1.539 . S
C749 C745 1.408 . S
C749 C748 1.404 . S
C749 H761 0.930 . S
C750 C746 1.524 . S
C750 H762 0.956 . S
C750 H763 0.961 . S
C750 H764 0.961 . S
C751 C748 1.539 . S
C751 H765 0.958 . S
C751 H766 0.961 . S
C751 H767 0.960 . S
H752 C736 0.931 . S
H753 C741 0.929 . S
H754 C742 0.960 . S
H755 C742 0.962 . S
H756 C742 0.960 . S
H757 C743 0.961 . S
H758 C743 0.961 . S
H759 C743 0.961 . S
H760 C744 0.931 . S
H761 C749 0.930 . S
H762 C750 0.956 . S
H763 C750 0.961 . S
H764 C750 0.961 . S
H765 C751 0.958 . S
H766 C751 0.961 . S
H767 C751 0.960 . S
C193 C189 1.412 1_556 S
C201 N13 1.308 . S
C225 C29 1.446 1_556 S
C233 N45 1.347 . S
C257 C61 1.446 1_556 S
C265 N77 1.345 . S
C289 N109 1.281 . S
C297 C93 1.428 1_556 S
C321 N141 1.320 . S
C329 C125 1.431 1_556 S
C353 C157 1.428 1_556 S
C361 N173 1.321 . S
C385 C130 1.524 . S
C393 N18 1.534 1_554 S
C417 C162 1.544 . S
C425 N50 1.530 1_554 S
C449 N82 1.533 1_554 S
C457 C2 1.536 . S
C481 N114 1.546 1_554 S
C489 C34 1.539 . S
C513 N146 1.521 1_554 S
C521 C66 1.546 . S
C545 C98 1.526 . S
C553 N178 1.532 1_554 S
C577 C6 1.521 . S
C585 C4 1.502 . S
C609 C38 1.516 . S
C617 C36 1.505 . S
C641 C70 1.502 . S
C649 C68 1.514 . S
C673 C102 1.501 . S
C681 C100 1.514 . S
C705 C132 1.485 . S
C713 C134 1.521 . S
C737 C166 1.502 . S
C745 C164 1.514 . S
