# Generated by pormake.
# Topology lcy-e, (6)-cn, num edge types: 1
# Building blocks:
#     Node 0, Type 0, BuildingBlock: OJICUG_clean_sbu_0, # of connection points: 6
#     Node 1, Type 0, BuildingBlock: OJICUG_clean_sbu_0, # of connection points: 6
#     Node 2, Type 0, BuildingBlock: OJICUG_clean_sbu_0, # of connection points: 6
#     Node 3, Type 0, BuildingBlock: OJICUG_clean_sbu_0, # of connection points: 6
#     Node 4, Type 0, BuildingBlock: OJICUG_clean_sbu_0, # of connection points: 6
#     Node 5, Type 0, BuildingBlock: OJICUG_clean_sbu_0, # of connection points: 6
#     Node 6, Type 0, BuildingBlock: OJICUG_clean_sbu_0, # of connection points: 6
#     Node 7, Type 0, BuildingBlock: OJICUG_clean_sbu_0, # of connection points: 6
#     Node 8, Type 0, BuildingBlock: OJICUG_clean_sbu_0, # of connection points: 6
#     Node 9, Type 0, BuildingBlock: OJICUG_clean_sbu_0, # of connection points: 6
#     Node 10, Type 0, BuildingBlock: OJICUG_clean_sbu_0, # of connection points: 6
#     Node 11, Type 0, BuildingBlock: OJICUG_clean_sbu_0, # of connection points: 6
#     Edge 12, Type (0, 0), BuildingBlock: XIVTED_clean_linker_0, # of connection points: 2
#     Edge 13, Type (0, 0), BuildingBlock: XIVTED_clean_linker_0, # of connection points: 2
#     Edge 14, Type (0, 0), BuildingBlock: XIVTED_clean_linker_0, # of connection points: 2
#     Edge 15, Type (0, 0), BuildingBlock: XIVTED_clean_linker_0, # of connection points: 2
#     Edge 16, Type (0, 0), BuildingBlock: XIVTED_clean_linker_0, # of connection points: 2
#     Edge 17, Type (0, 0), BuildingBlock: XIVTED_clean_linker_0, # of connection points: 2
#     Edge 18, Type (0, 0), BuildingBlock: XIVTED_clean_linker_0, # of connection points: 2
#     Edge 19, Type (0, 0), BuildingBlock: XIVTED_clean_linker_0, # of connection points: 2
#     Edge 20, Type (0, 0), BuildingBlock: XIVTED_clean_linker_0, # of connection points: 2
#     Edge 21, Type (0, 0), BuildingBlock: XIVTED_clean_linker_0, # of connection points: 2
#     Edge 22, Type (0, 0), BuildingBlock: XIVTED_clean_linker_0, # of connection points: 2
#     Edge 23, Type (0, 0), BuildingBlock: XIVTED_clean_linker_0, # of connection points: 2
#     Edge 24, Type (0, 0), BuildingBlock: XIVTED_clean_linker_0, # of connection points: 2
#     Edge 25, Type (0, 0), BuildingBlock: XIVTED_clean_linker_0, # of connection points: 2
#     Edge 26, Type (0, 0), BuildingBlock: XIVTED_clean_linker_0, # of connection points: 2
#     Edge 27, Type (0, 0), BuildingBlock: XIVTED_clean_linker_0, # of connection points: 2
#     Edge 28, Type (0, 0), BuildingBlock: XIVTED_clean_linker_0, # of connection points: 2
#     Edge 29, Type (0, 0), BuildingBlock: XIVTED_clean_linker_0, # of connection points: 2
#     Edge 30, Type (0, 0), BuildingBlock: XIVTED_clean_linker_0, # of connection points: 2
#     Edge 31, Type (0, 0), BuildingBlock: XIVTED_clean_linker_0, # of connection points: 2
#     Edge 32, Type (0, 0), BuildingBlock: XIVTED_clean_linker_0, # of connection points: 2
#     Edge 33, Type (0, 0), BuildingBlock: XIVTED_clean_linker_0, # of connection points: 2
#     Edge 34, Type (0, 0), BuildingBlock: XIVTED_clean_linker_0, # of connection points: 2
#     Edge 35, Type (0, 0), BuildingBlock: XIVTED_clean_linker_0, # of connection points: 2
#     Edge 36, Type (0, 0), BuildingBlock: XIVTED_clean_linker_0, # of connection points: 2
#     Edge 37, Type (0, 0), BuildingBlock: XIVTED_clean_linker_0, # of connection points: 2
#     Edge 38, Type (0, 0), BuildingBlock: XIVTED_clean_linker_0, # of connection points: 2
#     Edge 39, Type (0, 0), BuildingBlock: XIVTED_clean_linker_0, # of connection points: 2
#     Edge 40, Type (0, 0), BuildingBlock: XIVTED_clean_linker_0, # of connection points: 2
#     Edge 41, Type (0, 0), BuildingBlock: XIVTED_clean_linker_0, # of connection points: 2
#     Edge 42, Type (0, 0), BuildingBlock: XIVTED_clean_linker_0, # of connection points: 2
#     Edge 43, Type (0, 0), BuildingBlock: XIVTED_clean_linker_0, # of connection points: 2
#     Edge 44, Type (0, 0), BuildingBlock: XIVTED_clean_linker_0, # of connection points: 2
#     Edge 45, Type (0, 0), BuildingBlock: XIVTED_clean_linker_0, # of connection points: 2
#     Edge 46, Type (0, 0), BuildingBlock: XIVTED_clean_linker_0, # of connection points: 2
#     Edge 47, Type (0, 0), BuildingBlock: XIVTED_clean_linker_0, # of connection points: 2
# Relax obj value: 0.285
# Max RMSD: 0.291
# Mean RMSD: 0.291
data_MOF--net-lcy-e--node1-OJICUG_clean_sbu_0--edge1-XIVTED_clean_linker_0
_symmetry_space_group_name_H-M    P1
_symmetry_Int_Tables_number       1
_symmetry_cell_setting            triclinic
loop_
_symmetry_equiv_pos_as_xyz
'x, y, z'
_cell_length_a     37.202837
_cell_length_b     37.152507
_cell_length_c     37.30037
_cell_angle_alpha  89.854326
_cell_angle_beta   90.103712
_cell_angle_gamma 89.449737
loop_
_atom_site_label
_atom_site_type_symbol
_atom_site_fract_x
_atom_site_fract_y
_atom_site_fract_z
_atom_type_partial_charge
Sc0 Sc 0.09059 0.16136 0.39929 0.0
Sc1 Sc 0.13279 0.17562 0.48035 0.0
Sc2 Sc 0.0814 0.24299 0.44116 0.0
O3 O 0.1023 0.19365 0.44054 0.0
C4 C 0.11021 0.2321 0.36227 0.0
C5 C 0.16964 0.13978 0.41479 0.0
C6 C 0.15873 0.25698 0.47027 0.0
C7 C 0.07807 0.11236 0.46487 0.0
C8 C 0.019 0.19913 0.41141 0.0
C9 C 0.07632 0.2212 0.52319 0.0
O10 O 0.1178 0.19857 0.36436 0.0
O11 O 0.17337 0.16101 0.4412 0.0
O12 O 0.13364 0.26673 0.4488 0.0
O13 O 0.06381 0.1256 0.4365 0.0
O14 O 0.02869 0.21865 0.43742 0.0
O15 O 0.09345 0.19138 0.52089 0.0
O16 O 0.0415 0.19022 0.38766 0.0
O17 O 0.10755 0.12349 0.47819 0.0
O18 O 0.07361 0.2434 0.49748 0.0
O19 O 0.13894 0.1293 0.40467 0.0
O20 O 0.08886 0.24804 0.38391 0.0
O21 O 0.15955 0.22633 0.48566 0.0
Sc22 Sc 0.10093 0.88643 0.66134 0.0
Sc23 Sc 0.02968 0.83446 0.68668 0.0
Sc24 Sc 0.05378 0.90995 0.73664 0.0
O25 O 0.0613 0.87613 0.69594 0.0
C26 C 0.13814 0.89126 0.73438 0.0
C27 C 0.10233 0.80373 0.66018 0.0
C28 C 0.0374 0.83404 0.77196 0.0
C29 C 0.03436 0.87656 0.61344 0.0
C30 C 0.07657 0.96133 0.67643 0.0
C31 C 0.9734 0.89387 0.71241 0.0
O32 O 0.13803 0.87493 0.70419 0.0
O33 O 0.07696 0.8 0.68257 0.0
O34 O 0.04979 0.86592 0.77522 0.0
O35 O 0.05947 0.89811 0.62217 0.0
O36 O 0.05175 0.95476 0.69855 0.0
O37 O 0.98043 0.86653 0.69279 0.0
O38 O 0.10412 0.94151 0.67697 0.0
O39 O 0.02937 0.84669 0.62973 0.0
O40 O -0.00302 0.91003 0.7308 0.0
O41 O 0.10499 0.83219 0.6417 0.0
O42 O 0.11197 0.91108 0.7454 0.0
O43 O 0.02803 0.82051 0.74214 0.0
Sc44 Sc 0.42149 0.7502 0.96646 0.0
Sc45 Sc 0.36647 0.82308 0.98616 0.0
Sc46 Sc 0.412 0.81853 0.90599 0.0
O47 O 0.39872 0.79669 0.95291 0.0
C48 C 0.48393 0.788 0.92975 0.0
C49 C 0.42297 0.79207 0.04011 0.0
C50 C 0.42048 0.88143 0.95911 0.0
C51 C 0.34329 0.74085 0.9949 0.0
C52 C 0.39831 0.74055 0.88492 0.0
C53 C 0.33136 0.84257 0.91378 0.0
O54 O 0.47371 0.77503 0.95944 0.0
O55 O 0.40516 0.81969 0.0299 0.0
O56 O 0.43667 0.86197 0.93591 0.0
O57 O 0.36924 0.72744 0.97672 0.0
O58 O 0.38783 0.77302 0.87954 0.0
O59 O 0.32684 0.82715 0.9439 0.0
O60 O 0.41794 0.73139 0.91163 0.0
O61 O 0.34132 0.774 0.00354 0.0
O62 O 0.3624 0.84906 0.90126 0.0
O63 O 0.4263 0.76376 0.02152 0.0
O64 O 0.46217 0.78928 0.90378 0.0
O65 O 0.38927 0.87413 0.97092 0.0
Sc66 Sc 0.39431 0.10826 0.15409 0.0
Sc67 Sc 0.46542 0.15818 0.18463 0.0
Sc68 Sc 0.43765 0.08138 0.23068 0.0
O69 O 0.43258 0.11682 0.19074 0.0
C70 C 0.35395 0.10025 0.22509 0.0
C71 C 0.39546 0.19187 0.15351 0.0
C72 C 0.45138 0.15599 0.26919 0.0
C73 C 0.46385 0.11847 0.10983 0.0
C74 C 0.41842 0.0327 0.1676 0.0
C75 C 0.51959 0.09815 0.21327 0.0
O76 O 0.35543 0.11832 0.19584 0.0
O77 O 0.41958 0.1941 0.1775 0.0
O78 O 0.43829 0.12424 0.27046 0.0
O79 O 0.43722 0.0979 0.11627 0.0
O80 O 0.44218 0.03827 0.19121 0.0
O81 O 0.51388 0.12572 0.19349 0.0
O82 O 0.39079 0.05247 0.16744 0.0
O83 O 0.46963 0.14722 0.12767 0.0
O84 O 0.49472 0.08163 0.22945 0.0
O85 O 0.39077 0.16319 0.13593 0.0
O86 O 0.37926 0.07906 0.23557 0.0
O87 O 0.46323 0.17026 0.24054 0.0
Sc88 Sc 0.65083 0.31369 0.49686 0.0
Sc89 Sc 0.61421 0.24462 0.54642 0.0
Sc90 Sc 0.61955 0.32943 0.58225 0.0
O91 O 0.62827 0.29543 0.54136 0.0
C92 C 0.69106 0.35383 0.5562 0.0
C93 C 0.68791 0.23669 0.50553 0.0
C94 C 0.65466 0.26431 0.61922 0.0
C95 C 0.59115 0.26255 0.46606 0.0
C96 C 0.59062 0.37133 0.51749 0.0
C97 C 0.5532 0.28349 0.58682 0.0
O98 O 0.69512 0.3319 0.53046 0.0
O99 O 0.66706 0.22536 0.5302 0.0
O100 O 0.65699 0.29831 0.6144 0.0
O101 O 0.60762 0.29253 0.46357 0.0
O102 O 0.58229 0.35878 0.5483 0.0
O103 O 0.56042 0.26379 0.56001 0.0
O104 O 0.61967 0.36301 0.50109 0.0
O105 O 0.5949 0.24148 0.49272 0.0
O106 O 0.57828 0.29672 0.60518 0.0
O107 O 0.68246 0.2661 0.48885 0.0
O108 O 0.65995 0.36541 0.56329 0.0
O109 O 0.63386 0.24416 0.60096 0.0
Sc110 Sc 0.91661 0.40418 0.75598 0.0
Sc111 Sc 0.96773 0.33408 0.79219 0.0
Sc112 Sc 0.89332 0.3662 0.83642 0.0
O113 O 0.92619 0.36757 0.7942 0.0
C114 C 0.90063 0.4459 0.82463 0.0
C115 C 0.00171 0.40394 0.75867 0.0
C116 C 0.96928 0.36691 0.87055 0.0
C117 C 0.93693 0.33484 0.71209 0.0
C118 C 0.84144 0.3704 0.77299 0.0
C119 C 0.91292 0.28474 0.82974 0.0
O120 O 0.92023 0.44561 0.79685 0.0
O121 O 0.00494 0.37707 0.77983 0.0
O122 O 0.93828 0.38207 0.86949 0.0
O123 O 0.91686 0.36289 0.71467 0.0
O124 O 0.85118 0.35072 0.7995 0.0
O125 O 0.9331 0.28904 0.80275 0.0
O126 O 0.85922 0.39774 0.76275 0.0
O127 O 0.9583 0.32412 0.73665 0.0
O128 O 0.90378 0.3107 0.84978 0.0
O129 O 0.97181 0.41388 0.74548 0.0
O130 O 0.87778 0.42138 0.82902 0.0
O131 O 0.97904 0.34251 0.84841 0.0
Sc132 Sc 0.88518 0.74664 0.02158 0.0
Sc133 Sc 0.83676 0.67131 -0.00164 0.0
Sc134 Sc 0.88594 0.67297 0.07653 0.0
O135 O 0.86841 0.69736 0.03191 0.0
C136 C 0.95288 0.71171 0.0537 0.0
C137 C 0.88711 0.71114 0.94443 0.0
C138 C 0.89805 0.61524 0.01927 0.0
C139 C 0.80499 0.75167 -0.00357 0.0
C140 C 0.86304 0.74705 0.1038 0.0
C141 C 0.80845 0.64543 0.07169 0.0
O142 O 0.94012 0.72581 0.02537 0.0
O143 O 0.87242 0.68146 0.95306 0.0
O144 O 0.9135 0.63421 0.04313 0.0
O145 O 0.83054 0.76586 0.0143 0.0
O146 O 0.85791 0.71325 0.10716 0.0
O147 O 0.80037 0.6621 0.0429 0.0
O148 O 0.88075 0.7606 0.07779 0.0
O149 O 0.80566 0.71904 0.98593 0.0
O150 O 0.84075 0.63737 0.07924 0.0
O151 O 0.88932 0.73776 0.96548 0.0
O152 O 0.93246 0.70656 0.0801 0.0
O153 O 0.86617 0.62156 0.00798 0.0
Sc154 Sc 0.51729 0.66419 0.29547 0.0
Sc155 Sc 0.56532 0.59058 0.26192 0.0
Sc156 Sc 0.59101 0.62989 0.34092 0.0
O157 O 0.55742 0.62874 0.29903 0.0
C158 C 0.57458 0.71254 0.33225 0.0
C159 C 0.55027 0.66053 0.21643 0.0
C160 C 0.64247 0.61924 0.2779 0.0
C161 C 0.48007 0.59603 0.26186 0.0
C162 C 0.51511 0.63506 0.37597 0.0
C163 C 0.57783 0.54985 0.33229 0.0
O164 O 0.55278 0.70859 0.30642 0.0
O165 O 0.56834 0.63121 0.21983 0.0
O166 O 0.63389 0.64063 0.30327 0.0
O167 O 0.47793 0.62333 0.2824 0.0
O168 O 0.54596 0.61958 0.3757 0.0
O169 O 0.55898 0.55045 0.30387 0.0
O170 O 0.50422 0.65657 0.35136 0.0
O171 O 0.50977 0.58392 0.25027 0.0
O172 O 0.60185 0.57323 0.33711 0.0
O173 O 0.52897 0.67291 0.24016 0.0
O174 O 0.58555 0.68641 0.35126 0.0
O175 O 0.62301 0.59264 0.26923 0.0
Sc176 Sc 0.22031 0.46829 0.08501 0.0
Sc177 Sc 0.17184 0.50148 0.15801 0.0
Sc178 Sc 0.14137 0.42895 0.11073 0.0
O179 O 0.17889 0.46638 0.11806 0.0
C180 C 0.16323 0.44064 0.03161 0.0
C181 C 0.19678 0.5508 0.09389 0.0
C182 C 0.09945 0.49987 0.11739 0.0
C183 C 0.25693 0.49157 0.15812 0.0
C184 C 0.21262 0.38548 0.10886 0.0
C185 C 0.1456 0.43154 0.19166 0.0
O186 O 0.18537 0.46534 0.03848 0.0
O187 O 0.17743 0.54714 0.12194 0.0
O188 O 0.10541 0.4732 0.09659 0.0
O189 O 0.25865 0.47442 0.12855 0.0
O190 O 0.18165 0.38851 0.12365 0.0
O191 O 0.16878 0.45619 0.19481 0.0
O192 O 0.22667 0.41017 0.08945 0.0
O193 O 0.22774 0.50433 0.17052 0.0
O194 O 0.12412 0.4319 0.16541 0.0
O195 O 0.21509 0.52535 0.07992 0.0
O196 O 0.1524 0.41921 0.05543 0.0
O197 O 0.11449 0.50162 0.14807 0.0
Sc198 Sc 0.66532 0.99666 0.82337 0.0
Sc199 Sc 0.71844 0.01565 0.89776 0.0
Sc200 Sc 0.65153 0.07401 0.87201 0.0
O201 O 0.67971 0.02852 0.86402 0.0
C202 C 0.65861 0.07204 0.79139 0.0
C203 C 0.74994 0.98442 0.82524 0.0
C204 C 0.73036 0.09826 0.87533 0.0
C205 C 0.67568 0.94197 0.88701 0.0
C206 C 0.59674 0.01502 0.86312 0.0
C207 C 0.66718 0.05486 0.95069 0.0
O208 O 0.6751 0.04209 0.78795 0.0
O209 O 0.75488 0.0019 0.85426 0.0
O210 O 0.69961 0.10326 0.86057 0.0
O211 O 0.65784 0.95097 0.85901 0.0
O212 O 0.60689 0.03914 0.88511 0.0
O213 O 0.6833 0.0256 0.9434 0.0
O214 O 0.61044 0.01399 0.83195 0.0
O215 O 0.70002 0.96134 0.90104 0.0
O216 O 0.66417 0.07962 0.92768 0.0
O217 O 0.71893 0.97787 0.81262 0.0
O218 O 0.63619 0.07636 0.81655 0.0
O219 O 0.73815 0.07077 0.89489 0.0
Sc220 Sc 0.83678 0.91819 0.38018 0.0
Sc221 Sc 0.77243 0.97758 0.40832 0.0
Sc222 Sc 0.82497 -0.00257 0.33386 0.0
O223 O 0.80987 0.96446 0.37336 0.0
C224 C 0.89396 0.97507 0.37098 0.0
C225 C 0.82481 0.93685 0.45902 0.0
C226 C 0.81734 0.04986 0.39912 0.0
C227 C 0.75748 0.89604 0.38474 0.0
C228 C 0.8303 0.92404 0.29807 0.0
C229 C 0.74046 0.01085 0.33691 0.0
O230 O 0.88291 0.9514 0.39308 0.0
O231 O 0.80892 0.96649 0.45274 0.0
O232 O 0.83487 0.04096 0.37108 0.0
O233 O 0.78764 0.89064 0.3691 0.0
O234 O 0.81453 0.95454 0.29644 0.0
O235 O 0.73568 0.99253 0.36551 0.0
O236 O 0.85056 0.91561 0.32427 0.0
O237 O 0.75122 0.92298 0.40536 0.0
O238 O 0.77145 0.01797 0.32448 0.0
O239 O 0.8249 0.91211 0.43598 0.0
O240 O 0.87927 0.9777 0.34036 0.0
O241 O 0.79182 0.0314 0.41219 0.0
Sc242 Sc 0.35231 0.55808 0.63763 0.0
Sc243 Sc 0.26887 0.53869 0.60041 0.0
Sc244 Sc 0.30494 0.48599 0.66956 0.0
O245 O 0.30826 0.52754 0.63552 0.0
C246 C 0.38477 0.48138 0.64206 0.0
C247 C 0.33508 0.56095 0.55473 0.0
C248 C 0.27779 0.45319 0.59639 0.0
C249 C 0.28963 0.61486 0.63402 0.0
C250 C 0.33882 0.54272 0.71864 0.0
C251 C 0.22373 0.5128 0.66704 0.0
O252 O 0.38441 0.51089 0.62452 0.0
O253 O 0.30603 0.54353 0.55637 0.0
O254 O 0.29567 0.4491 0.62546 0.0
O255 O 0.31859 0.60462 0.64976 0.0
O256 O 0.31199 0.52243 0.71401 0.0
O257 O 0.22689 0.53398 0.64039 0.0
O258 O 0.36124 0.54888 0.69393 0.0
O259 O 0.27192 0.59523 0.61239 0.0
O260 O 0.24888 0.49227 0.67772 0.0
O261 O 0.35162 0.57209 0.58211 0.0
O262 O 0.3617 0.47447 0.66617 0.0
O263 O 0.26425 0.48319 0.58642 0.0
H264 H 0.21413 0.24659 0.51761 0.0
H265 H 0.25859 0.45527 0.52609 0.0
H266 H 0.16636 0.32722 0.44816 0.0
H267 H 0.28206 0.38066 0.61219 0.0
H268 H 0.23869 0.40551 0.48917 0.0
H269 H 0.25249 0.29247 0.54348 0.0
C270 C 0.21199 0.27383 0.50736 0.0
C271 C 0.18628 0.28322 0.48115 0.0
C272 C 0.2485 0.39993 0.51599 0.0
C273 C 0.23036 0.33573 0.51082 0.0
C274 C 0.25982 0.42832 0.53721 0.0
C275 C 0.27114 0.4222 0.5727 0.0
C276 C 0.24839 0.36507 0.53026 0.0
C277 C 0.27308 0.38662 0.58518 0.0
C278 C 0.23394 0.29998 0.52227 0.0
C279 C 0.18531 0.31884 0.46867 0.0
N280 N 0.26126 0.35933 0.5641 0.0
N281 N 0.20674 0.34392 0.48395 0.0
H282 H 0.75263 0.92617 0.78084 0.0
H283 H 0.95332 0.96348 0.71854 0.0
H284 H 0.81818 0.01155 0.82289 0.0
H285 H 0.90998 0.85622 0.71747 0.0
H286 H 0.89667 0.98624 0.74253 0.0
H287 H 0.80416 0.90437 0.74594 0.0
C288 C 0.77784 0.94041 0.78264 0.0
C289 C 0.78121 0.97074 0.80485 0.0
C290 C 0.89932 0.95781 0.73658 0.0
C291 C 0.83976 0.94628 0.76454 0.0
C292 C 0.93147 0.94482 0.72259 0.0
C293 C 0.93641 0.90783 0.71646 0.0
C294 C 0.8717 0.93373 0.74442 0.0
C295 C 0.90717 0.88491 0.72181 0.0
C296 C 0.80713 0.92789 0.76276 0.0
C297 C 0.81449 0.98798 0.80632 0.0
N298 N 0.87601 0.8982 0.73601 0.0
N299 N 0.84242 0.97563 0.78624 0.0
H300 H 0.29839 0.75179 0.0517 0.0
H301 H 0.19861 0.56546 0.02309 0.0
H302 H 0.32173 0.67659 0.96658 0.0
H303 H 0.20763 0.61575 0.12672 0.0
H304 H 0.2272 0.61755 -0.00426 0.0
H305 H 0.2513 0.71176 0.07341 0.0
C306 C 0.29341 0.727 0.03738 0.0
C307 C 0.31424 0.71726 0.00746 0.0
C308 C 0.22219 0.61759 0.02434 0.0
C309 C 0.26009 0.67194 0.03185 0.0
C310 C 0.2056 0.58811 0.0399 0.0
C311 C 0.20138 0.58626 0.07721 0.0
C312 C 0.23474 0.6453 0.04629 0.0
C313 C 0.21056 0.61625 0.09785 0.0
C314 C 0.26653 0.70429 0.04981 0.0
C315 C 0.30664 0.68489 0.98999 0.0
N316 N 0.22761 0.64443 0.08215 0.0
N317 N 0.28015 0.66334 0.00249 0.0
H318 H 0.58273 0.13655 0.21714 0.0
H319 H 0.67229 0.98393 0.33707 0.0
H320 H 0.53973 0.02959 0.22782 0.0
H321 H 0.73698 0.06729 0.28966 0.0
H322 H 0.6213 0.00442 0.30077 0.0
H323 H 0.63921 0.11486 0.24471 0.0
C324 C 0.58551 0.10841 0.22436 0.0
C325 C 0.55642 0.08495 0.2207 0.0
C326 C 0.64671 0.01815 0.29822 0.0
C327 C 0.61993 0.06044 0.25291 0.0
C328 C 0.6757 0.00666 0.31919 0.0
C329 C 0.7089 0.02388 0.31635 0.0
C330 C 0.65073 0.04746 0.27469 0.0
C331 C 0.71185 0.05312 0.2925 0.0
C332 C 0.61752 0.09613 0.24036 0.0
C333 C 0.56129 0.04876 0.23076 0.0
N334 N 0.68305 0.06419 0.27272 0.0
N335 N 0.59212 0.0378 0.24691 0.0
H336 H 0.7338 0.25035 0.45017 0.0
H337 H 0.82951 0.06024 0.46954 0.0
H338 H 0.71532 0.1745 0.53608 0.0
H339 H 0.81649 0.11701 0.36947 0.0
H340 H 0.80986 0.11413 0.50171 0.0
H341 H 0.78291 0.21258 0.42869 0.0
C342 C 0.74019 0.22591 0.46482 0.0
C343 C 0.71966 0.21512 0.49457 0.0
C344 C 0.81253 0.11524 0.47281 0.0
C345 C 0.77647 0.17212 0.47011 0.0
C346 C 0.82415 0.08472 0.4545 0.0
C347 C 0.82375 0.08426 0.41691 0.0
C348 C 0.8004 0.14521 0.45321 0.0
C349 C 0.8168 0.11641 0.3985 0.0
C350 C 0.76845 0.20452 0.45254 0.0
C351 C 0.72984 0.18349 0.51263 0.0
N352 N 0.80434 0.14551 0.41684 0.0
N353 N 0.75731 0.16284 0.49983 0.0
H354 H 0.00525 0.4551 0.70638 0.0
H355 H 0.21334 0.49242 0.736 0.0
H356 H 0.07013 0.40188 0.78723 0.0
H357 H 0.15558 0.52312 0.64005 0.0
H358 H 0.15752 0.47115 0.7622 0.0
H359 H 0.05697 0.49015 0.68853 0.0
C360 C 0.03036 0.45079 0.72055 0.0
C361 C 0.0334 0.42516 0.74826 0.0
C362 C 0.15693 0.48296 0.73562 0.0
C363 C 0.09276 0.46565 0.7278 0.0
C364 C 0.1887 0.49528 0.72068 0.0
C365 C 0.18909 0.50887 0.6855 0.0
C366 C 0.12531 0.48421 0.71525 0.0
C367 C 0.15642 0.5126 0.66714 0.0
C368 C 0.05987 0.47094 0.71026 0.0
C369 C 0.06666 0.421 0.76553 0.0
N370 N 0.12578 0.49975 0.68207 0.0
N371 N 0.09515 0.44101 0.75491 0.0
H372 H 0.67981 0.87592 0.85529 0.0
H373 H 0.78075 0.81487 0.02611 0.0
H374 H 0.66431 0.92831 0.95704 0.0
H375 H 0.75866 0.73973 0.94094 0.0
H376 H 0.73304 0.85424 0.00294 0.0
H377 H 0.70052 0.82163 0.88694 0.0
C378 C 0.67904 0.87531 0.88432 0.0
C379 C 0.67105 0.90656 0.90372 0.0
C380 C 0.73819 0.82881 0.98968 0.0
C381 C 0.69601 0.8457 0.93987 0.0
C382 C 0.76566 0.80653 0.00275 0.0
C383 C 0.77404 0.77427 0.98515 0.0
C384 C 0.71959 0.81918 0.95831 0.0
C385 C 0.75327 0.76452 0.95522 0.0
C386 C 0.69131 0.84453 0.90243 0.0
C387 C 0.67086 0.9047 0.94127 0.0
N388 N 0.72748 0.78722 0.94231 0.0
N389 N 0.68427 0.87515 0.95818 0.0
H390 H 0.47579 0.54149 0.21332 0.0
H391 H 0.26272 0.52493 0.22309 0.0
H392 H 0.40953 0.60741 0.28255 0.0
H393 H 0.32724 0.479 0.1382 0.0
H394 H 0.31703 0.54746 0.25124 0.0
H395 H 0.4224 0.51158 0.19165 0.0
C396 C 0.45001 0.54969 0.22417 0.0
C397 C 0.44724 0.57733 0.24978 0.0
C398 C 0.31932 0.53226 0.2266 0.0
C399 C 0.3857 0.54273 0.22477 0.0
C400 C 0.28833 0.51919 0.21047 0.0
C401 C 0.29028 0.50034 0.17784 0.0
C402 C 0.35266 0.52635 0.21019 0.0
C403 C 0.32435 0.49353 0.16317 0.0
C404 C 0.41948 0.53249 0.21164 0.0
C405 C 0.41297 0.58648 0.26269 0.0
N406 N 0.3542 0.50677 0.17934 0.0
N407 N 0.38347 0.56923 0.24996 0.0
H408 H 0.45451 0.12994 0.33816 0.0
H409 H 0.56964 0.29786 0.40383 0.0
H410 H 0.4658 0.22753 0.27624 0.0
H411 H 0.55258 0.20073 0.46532 0.0
H412 H 0.52621 0.27608 0.35929 0.0
H413 H 0.48266 0.1599 0.38902 0.0
C414 C 0.46204 0.15791 0.33552 0.0
C415 C 0.45853 0.17594 0.30267 0.0
C416 C 0.53194 0.25978 0.38275 0.0
C417 C 0.49169 0.21015 0.36034 0.0
C418 C 0.5569 0.2721 0.408 0.0
C419 C 0.56529 0.25099 0.43817 0.0
C420 C 0.51537 0.22621 0.38786 0.0
C421 C 0.54748 0.21797 0.44241 0.0
C422 C 0.47849 0.17497 0.36446 0.0
C423 C 0.46875 0.2123 0.30087 0.0
N424 N 0.52366 0.20663 0.41755 0.0
N425 N 0.4855 0.22799 0.32905 0.0
H426 H 0.08141 0.28522 0.55524 0.0
H427 H 0.93292 0.26292 0.7012 0.0
H428 H 0.02674 0.18372 0.56304 0.0
H429 H 0.95359 0.36328 0.64732 0.0
H430 H 0.9658 0.23082 0.65396 0.0
H431 H 0.03799 0.31177 0.59631 0.0
C432 C 0.06072 0.26827 0.56653 0.0
C433 C 0.05767 0.23224 0.55604 0.0
C434 C 0.96208 0.2597 0.65185 0.0
C435 C 0.00712 0.26277 0.60212 0.0
C436 C 0.94295 0.27796 0.67845 0.0
C437 C 0.94067 0.31574 0.67796 0.0
C438 C 0.9796 0.27961 0.62532 0.0
C439 C 0.95455 0.33415 0.64844 0.0
C440 C 0.03554 0.28361 0.58934 0.0
C441 C 0.03022 0.21147 0.57104 0.0
N442 N 0.97431 0.31597 0.62371 0.0
N443 N 0.00571 0.22712 0.59343 0.0
H444 H 0.00186 0.85929 0.83026 0.0
H445 H 0.94625 0.6757 0.91839 0.0
H446 H 0.04462 0.76187 0.78361 0.0
H447 H 0.87135 0.76196 0.89571 0.0
H448 H 0.99004 0.70425 0.87793 0.0
H449 H 0.96399 0.82278 0.8695 0.0
C450 C 0.00445 0.83023 0.82941 0.0
C451 C 0.02631 0.81351 0.80378 0.0
C452 C 0.96359 0.71623 0.88117 0.0
C453 C 0.9826 0.7718 0.84762 0.0
C454 C 0.93839 0.69958 0.90349 0.0
C455 C 0.90509 0.71639 0.90992 0.0
C456 C 0.9554 0.75011 0.86632 0.0
C457 C 0.89663 0.74804 0.89106 0.0
C458 C 0.98233 0.80945 0.85119 0.0
C459 C 0.02804 0.77565 0.80317 0.0
N460 N 0.92193 0.76437 0.87083 0.0
N461 N 0.00615 0.75592 0.8246 0.0
H462 H 0.51979 0.63859 0.15491 0.0
H463 H 0.4884 0.81969 0.05606 0.0
H464 H 0.57356 0.72826 0.20366 0.0
H465 H 0.40209 0.75619 0.09864 0.0
H466 H 0.53063 0.78809 0.09661 0.0
H467 H 0.48984 0.68041 0.11338 0.0
C468 C 0.52694 0.6668 0.1554 0.0
C469 C 0.54919 0.68012 0.18242 0.0
C470 C 0.50222 0.78211 0.09779 0.0
C471 C 0.5144 0.72784 0.13626 0.0
C472 C 0.47804 0.80065 0.07543 0.0
C473 C 0.44172 0.79071 0.0745 0.0
C474 C 0.48972 0.75313 0.11821 0.0
C475 C 0.42979 0.76491 0.09903 0.0
C476 C 0.50926 0.69067 0.13237 0.0
C477 C 0.55674 0.71714 0.18279 0.0
N478 N 0.45392 0.74617 0.11914 0.0
N479 N 0.53884 0.74004 0.16037 0.0
H480 H 0.15225 0.28927 0.37369 0.0
H481 H 0.10983 0.36893 0.18177 0.0
H482 H 0.10347 0.22752 0.28933 0.0
H483 H 0.18126 0.42155 0.25603 0.0
H484 H 0.10979 0.31612 0.22007 0.0
H485 H 0.1675 0.33599 0.33021 0.0
C486 C 0.14562 0.28526 0.34568 0.0
C487 C 0.12668 0.25474 0.3348 0.0
C488 C 0.12564 0.33907 0.22801 0.0
C489 C 0.14286 0.30837 0.28528 0.0
C490 C 0.1254 0.36953 0.20633 0.0
C491 C 0.14512 0.4001 0.21602 0.0
C492 C 0.14538 0.33907 0.26001 0.0
C493 C 0.16532 0.3988 0.24778 0.0
C494 C 0.15417 0.31194 0.32095 0.0
C495 C 0.11834 0.25065 0.29851 0.0
N496 N 0.16462 0.36886 0.2689 0.0
N497 N 0.12596 0.27758 0.27503 0.0
H498 H 0.99169 0.83254 0.5745 0.0
H499 H 0.8655 0.98793 0.49325 0.0
H500 H 0.01352 0.94486 0.59273 0.0
H501 H 0.84149 0.8746 0.49307 0.0
H502 H 0.91906 0.97504 0.53018 0.0
H503 H 0.93801 0.84942 0.5413 0.0
C504 C 0.98546 0.86089 0.571 0.0
C505 C 0.00707 0.88732 0.58655 0.0
C506 C 0.90166 0.95316 0.52251 0.0
C507 C 0.94474 0.90703 0.54909 0.0
C508 C 0.8709 0.96054 0.50187 0.0
C509 C 0.84937 0.93218 0.48979 0.0
C510 C 0.91055 0.91725 0.53101 0.0
C511 C 0.85758 0.8972 0.50151 0.0
C512 C 0.95451 0.87056 0.55232 0.0
C513 C -0.00231 0.92366 0.58098 0.0
N514 N 0.88767 0.89072 0.52104 0.0
N515 N 0.96695 0.93251 0.5629 0.0
H516 H 0.3978 0.54673 0.76056 0.0
H517 H 0.33918 0.73685 0.84035 0.0
H518 H 0.29022 0.58892 0.74816 0.0
H519 H 0.43385 0.67759 0.87393 0.0
H520 H 0.32077 0.68444 0.80467 0.0
H521 H 0.41083 0.59459 0.80314 0.0
C522 C 0.37659 0.56551 0.76786 0.0
C523 C 0.34281 0.56375 0.7515 0.0
C524 C 0.34551 0.68306 0.81997 0.0
C525 C 0.35787 0.61969 0.7986 0.0
C526 C 0.35623 0.71306 0.83988 0.0
C527 C 0.3881 0.71157 0.86002 0.0
C528 C 0.3671 0.65176 0.82007 0.0
C529 C 0.409 0.67993 0.85892 0.0
C530 C 0.38407 0.59308 0.79179 0.0
C531 C 0.31638 0.58914 0.76096 0.0
N532 N 0.39817 0.65142 0.83929 0.0
N533 N 0.32465 0.61658 0.78352 0.0
H534 H 0.4768 0.05115 0.08135 0.0
H535 H 0.66006 0.11515 0.99035 0.0
H536 H 0.51634 0.15998 0.08097 0.0
H537 H 0.62385 0.00555 0.98377 0.0
H538 H 0.61043 0.12915 0.03043 0.0
H539 H 0.53073 0.0319 0.04833 0.0
C540 C 0.49642 0.07107 0.07381 0.0
C541 C 0.49199 0.10723 0.08403 0.0
C542 C 0.6134 0.10184 0.02072 0.0
C543 C 0.55403 0.08533 0.04725 0.0
C544 C 0.6421 0.09376 -0.00175 0.0
C545 C 0.64579 0.05927 0.98357 0.0
C546 C 0.58771 0.0754 0.02819 0.0
C547 C 0.62176 0.03252 0.99452 0.0
C548 C 0.52741 0.05999 0.0554 0.0
C549 C 0.51853 0.13181 0.07387 0.0
N550 N 0.59317 0.0413 0.0157 0.0
N551 N 0.54833 0.12037 0.05629 0.0
H552 H 0.70179 0.2093 0.61321 0.0
H553 H 0.64166 0.14203 0.80457 0.0
H554 H 0.64832 0.27632 0.691 0.0
H555 H 0.69696 0.07444 0.72805 0.0
H556 H 0.65482 0.19432 0.768 0.0
H557 H 0.71352 0.16428 0.65972 0.0
C558 C 0.69391 0.21511 0.64058 0.0
C559 C 0.674 0.24631 0.6485 0.0
C560 C 0.6643 0.16816 0.75918 0.0
C561 C 0.68576 0.19444 0.70134 0.0
C562 C 0.65645 0.13809 0.77988 0.0
C563 C 0.66736 0.10354 0.76884 0.0
C564 C 0.68284 0.16386 0.72679 0.0
C565 C 0.68743 0.10045 0.7372 0.0
C566 C 0.70019 0.18924 0.667 0.0
C567 C 0.66392 0.25261 0.68402 0.0
N568 N 0.69407 0.13021 0.71696 0.0
N569 N 0.66918 0.22642 0.70907 0.0
H570 H 0.16824 0.38662 0.98382 0.0
H571 H 0.97317 0.4325 0.9047 0.0
H572 H 0.11389 0.48728 0.00425 0.0
H573 H 0.0299 0.33144 0.89159 0.0
H574 H 0.02547 0.4561 0.93706 0.0
H575 H 0.12104 0.37071 0.94147 0.0
C576 C 0.14703 0.40601 0.97809 0.0
C577 C 0.14499 0.4384 -0.00302 0.0
C578 C 0.0263 0.42875 0.92713 0.0
C579 C 0.0896 0.4196 0.95053 0.0
C580 C 0.99628 0.4151 0.90917 0.0
C581 C -0.00289 0.37989 0.89553 0.0
C582 C 0.05718 0.40698 0.93133 0.0
C583 C 0.02801 0.35875 0.90153 0.0
C584 C 0.11967 0.39671 0.95449 0.0
C585 C 0.11651 0.46228 0.98958 0.0
N586 N 0.05671 0.37265 0.91881 0.0
N587 N 0.0894 0.45212 0.96737 0.0
H588 H 0.83459 0.85176 0.30456 0.0
H589 H 0.85035 0.81878 0.09629 0.0
H590 H 0.81656 0.93588 0.22641 0.0
H591 H 0.84465 0.73238 0.17366 0.0
H592 H 0.83366 0.8615 0.14284 0.0
H593 H 0.83387 0.8073 0.25685 0.0
C594 C 0.8304 0.86083 0.27722 0.0
C595 C 0.82645 0.89757 0.26918 0.0
C596 C 0.83567 0.83319 0.14962 0.0
C597 C 0.82562 0.84677 0.21442 0.0
C598 C 0.84547 0.80877 0.12313 0.0
C599 C 0.84969 0.77207 0.13138 0.0
C600 C 0.83047 0.82093 0.18475 0.0
C601 C 0.84214 0.7605 0.16631 0.0
C602 C 0.82972 0.83539 0.25004 0.0
C603 C 0.82013 0.90782 0.23357 0.0
N604 N 0.83341 0.78499 0.19192 0.0
N605 N 0.82051 0.88251 0.20729 0.0
H606 H 0.37885 0.51516 0.51909 0.0
H607 H 0.45578 0.67323 0.39644 0.0
H608 H 0.33393 0.62238 0.51598 0.0
H609 H 0.5131 0.57362 0.41676 0.0
H610 H 0.40712 0.65261 0.43468 0.0
H611 H 0.42293 0.53271 0.47358 0.0
C612 C 0.37748 0.54198 0.50764 0.0
C613 C 0.35256 0.56729 0.52042 0.0
C614 C 0.43042 0.63532 0.43097 0.0
C615 C 0.40338 0.58795 0.47 0.0
C616 C 0.45833 0.64716 0.40933 0.0
C617 C 0.48864 0.62516 0.40355 0.0
C618 C 0.43263 0.60111 0.4468 0.0
C619 C 0.49043 0.59161 0.42084 0.0
C620 C 0.40293 0.55217 0.48225 0.0
C621 C 0.35242 0.60206 0.50604 0.0
N622 N 0.46265 0.58048 0.44157 0.0
N623 N 0.37769 0.6115 0.48168 0.0
H624 H 0.18355 0.07633 0.38098 0.0
H625 H 0.31708 0.16235 0.24017 0.0
H626 H 0.22361 0.18409 0.39364 0.0
H627 H 0.32267 0.04945 0.26708 0.0
H628 H 0.27366 0.17139 0.28906 0.0
H629 H 0.22756 0.06599 0.33313 0.0
C630 C 0.20214 0.09753 0.37412 0.0
C631 C 0.20039 0.13092 0.39151 0.0
C632 C 0.28425 0.14463 0.28395 0.0
C633 C 0.24942 0.11987 0.33596 0.0
C634 C 0.30852 0.13938 0.25582 0.0
C635 C 0.32325 0.10509 0.24959 0.0
C636 C 0.27422 0.11524 0.30535 0.0
C637 C 0.31185 0.0763 0.27106 0.0
C638 C 0.22699 0.09171 0.34673 0.0
C639 C 0.22462 0.15775 0.38128 0.0
N640 N 0.28788 0.08198 0.29792 0.0
N641 N 0.24784 0.15185 0.35373 0.0
H642 H 0.09218 0.04095 0.46248 0.0
H643 H 0.02069 0.00944 0.66224 0.0
H644 H 0.02779 0.12081 0.51661 0.0
H645 H 0.11623 0.96233 0.61545 0.0
H646 H 0.00937 0.0415 0.60515 0.0
H647 H 0.08374 0.0 0.51316 0.0
C648 C 0.07476 0.04912 0.48431 0.0
C649 C 0.06028 0.08395 0.48534 0.0
C650 C 0.03265 0.02395 0.60764 0.0
C651 C 0.05218 0.03833 0.5442 0.0
C652 C 0.0393 0.00595 0.6402 0.0
C653 C 0.06969 0.98347 0.6439 0.0
C654 C 0.05611 0.0186 0.57857 0.0
C655 C 0.09266 0.97959 0.61425 0.0
C656 C 0.07047 0.02608 0.51353 0.0
C657 C 0.03883 0.09381 0.51473 0.0
N658 N 0.08529 0.99675 0.583 0.0
N659 N 0.03596 0.07135 0.54346 0.0
H660 H 0.16976 0.94134 0.77693 0.0
H661 H 0.27265 0.8015 0.90007 0.0
H662 H 0.17461 0.82891 0.74862 0.0
H663 H 0.32058 0.9037 0.8749 0.0
H664 H 0.22577 0.81375 0.85487 0.0
H665 H 0.21625 0.93049 0.82266 0.0
C666 C 0.1809 0.91448 0.78019 0.0
C667 C 0.16877 0.88601 0.75889 0.0
C668 C 0.24642 0.83354 0.85963 0.0
C669 C 0.22047 0.87331 0.81169 0.0
C670 C 0.27277 0.82681 0.88558 0.0
C671 C 0.30021 0.85176 0.89115 0.0
C672 C 0.2472 0.86579 0.83999 0.0
C673 C 0.29973 0.88388 0.8713 0.0
C674 C 0.20722 0.90834 0.80622 0.0
C675 C 0.18373 0.85162 0.76424 0.0
N676 N 0.27345 0.89014 0.84669 0.0
N677 N 0.20853 0.84607 0.79054 0.0
H678 H 0.47493 0.98512 0.15486 0.0
H679 H 0.40697 0.95296 0.95406 0.0
H680 H 0.38093 0.03288 0.10511 0.0
H681 H 0.47125 0.87428 0.01051 0.0
H682 H 0.41528 0.99485 0.00378 0.0
H683 H 0.48806 0.95381 0.09797 0.0
C684 C 0.45705 0.98893 0.13219 0.0
C685 C 0.4265 0.01128 0.13502 0.0
C686 C 0.42869 0.96886 0.00477 0.0
C687 C 0.44214 0.97699 0.06995 0.0
C688 C 0.42449 0.94527 0.97608 0.0
C689 C 0.43897 0.91044 0.97801 0.0
C690 C 0.44681 0.95713 0.03586 0.0
C691 C 0.46053 0.90128 0.00766 0.0
C692 C 0.46474 0.97137 0.09975 0.0
C693 C 0.40453 0.01563 0.10459 0.0
N694 N 0.46317 0.9242 0.03592 0.0
N695 N 0.41285 -0.00119 0.0735 0.0
H696 H 0.78359 0.41183 0.75745 0.0
H697 H 0.74092 0.30291 0.57761 0.0
H698 H 0.83315 0.30939 0.73389 0.0
H699 H 0.69963 0.40877 0.60262 0.0
H700 H 0.77309 0.30218 0.63524 0.0
H701 H 0.74681 0.40653 0.70362 0.0
C702 C 0.7856 0.38751 0.74155 0.0
C703 C 0.8109 0.36078 0.75022 0.0
C704 C 0.75733 0.32571 0.62784 0.0
C705 C 0.77059 0.35535 0.68736 0.0
C706 C 0.73955 0.32641 0.5947 0.0
C707 C 0.71788 0.35613 0.58524 0.0
C708 C 0.75332 0.35492 0.65146 0.0
C709 C 0.71618 0.38542 0.60881 0.0
C710 C 0.76514 0.38475 0.71043 0.0
C711 C 0.81331 0.3302 0.72834 0.0
N712 N 0.73344 0.38398 0.64081 0.0
N713 N 0.7938 0.32854 0.69745 0.0
H714 H 0.94672 0.50388 0.82779 0.0
H715 H 0.89142 0.54372 0.03068 0.0
H716 H 0.87326 0.44159 0.89191 0.0
H717 H 0.94422 0.62165 0.96395 0.0
H718 H 0.90184 0.498 0.98476 0.0
H719 H 0.95968 0.54096 0.88082 0.0
C720 C 0.93327 0.49808 0.85284 0.0
C721 C 0.90829 0.47007 0.85514 0.0
C722 C 0.91218 0.52483 0.98052 0.0
C723 C 0.92382 0.51136 0.91582 0.0
C724 C 0.90677 0.55067 0.00702 0.0
C725 C 0.91738 0.58616 0.00107 0.0
C726 C 0.92741 0.53496 0.94754 0.0
C727 C 0.93624 0.59428 0.9696 0.0
C728 C 0.94092 0.51897 0.8831 0.0
C729 C 0.89217 0.46329 0.88849 0.0
N730 N 0.94 0.56902 0.94352 0.0
N731 N 0.90016 0.48376 0.91733 0.0
H732 H 0.80661 0.58968 0.11868 0.0
H733 H 0.66121 0.68286 0.24676 0.0
H734 H 0.75079 0.68791 0.09003 0.0
H735 H 0.69153 0.57081 0.25394 0.0
H736 H 0.7015 0.68942 0.19495 0.0
H737 H 0.76982 0.58529 0.17257 0.0
C738 C 0.78606 0.60997 0.12345 0.0
C739 C 0.78139 0.63897 0.09972 0.0
C740 C 0.69974 0.66359 0.2083 0.0
C741 C 0.74003 0.63481 0.16199 0.0
C742 C 0.67735 0.66003 0.2382 0.0
C743 C 0.67347 0.62634 0.25469 0.0
C744 C 0.71845 0.63329 0.19529 0.0
C745 C 0.69407 0.59728 0.24203 0.0
C746 C 0.76529 0.60762 0.15435 0.0
C747 C 0.75474 0.66479 0.10737 0.0
N748 N 0.71557 0.60138 0.21302 0.0
N749 N 0.73522 0.66231 0.13812 0.0
H750 H 0.54955 0.36098 0.45899 0.0
H751 H 0.59576 0.55822 0.40215 0.0
H752 H 0.58417 0.44247 0.53288 0.0
H753 H 0.54049 0.48573 0.33107 0.0
H754 H 0.58361 0.51828 0.45197 0.0
H755 H 0.53523 0.40779 0.41485 0.0
C756 C 0.5524 0.38898 0.46648 0.0
C757 C 0.56783 0.39813 0.49951 0.0
C758 C 0.57387 0.51101 0.42561 0.0
C759 C 0.55336 0.45152 0.44876 0.0
C760 C 0.58122 0.53365 0.39692 0.0
C761 C 0.56991 0.52486 0.36211 0.0
C762 C 0.55567 0.47871 0.41964 0.0
C763 C 0.55021 0.49321 0.35735 0.0
C764 C 0.54469 0.41566 0.44113 0.0
C765 C 0.57195 0.43452 0.50778 0.0
N766 N 0.54424 0.47089 0.38575 0.0
N767 N 0.56552 0.45991 0.48222 0.0
H768 H 0.22116 0.34731 0.17141 0.0
H769 H 0.36524 0.21047 0.08976 0.0
H770 H 0.25609 0.35148 0.0613 0.0
H771 H 0.36775 0.24085 0.20126 0.0
H772 H 0.31813 0.25549 0.0791 0.0
H773 H 0.26684 0.30021 0.18319 0.0
C774 C 0.23789 0.33774 0.14961 0.0
C775 C 0.23493 0.35311 0.11533 0.0
C776 C 0.32915 0.25252 0.10585 0.0
C777 C 0.28694 0.29994 0.12857 0.0
C778 C 0.3561 0.22696 0.11192 0.0
C779 C 0.37061 0.22225 0.14636 0.0
C780 C 0.31598 0.27306 0.13456 0.0
C781 C 0.3576 0.2441 0.17421 0.0
C782 C 0.26417 0.31132 0.15644 0.0
C783 C 0.25759 0.34029 0.0881 0.0
N784 N 0.33068 0.26841 0.16779 0.0
N785 N 0.28257 0.31442 0.09528 0.0
H786 H 0.89981 0.25234 0.89362 0.0
H787 H 0.73768 0.14251 0.81722 0.0
H788 H 0.8834 0.24061 0.7798 0.0
H789 H 0.78895 0.11242 0.91698 0.0
H790 H 0.78787 0.18277 0.80444 0.0
H791 H 0.85768 0.20326 0.90427 0.0
C792 C 0.88795 0.23874 0.87089 0.0
C793 C 0.89505 0.25023 0.83582 0.0
C794 C 0.78811 0.1672 0.82903 0.0
C795 C 0.84601 0.19539 0.84776 0.0
C796 C 0.75932 0.14464 0.83656 0.0
C797 C 0.75909 0.12437 0.86834 0.0
C798 C 0.81641 0.16996 0.85378 0.0
C799 C 0.78807 0.12766 0.89221 0.0
C800 C 0.86386 0.21093 0.87694 0.0
C801 C 0.87883 0.23214 0.8072 0.0
N802 N 0.81544 0.15032 0.88461 0.0
N803 N 0.8544 0.206 0.81382 0.0
H804 H 0.08158 0.55894 0.15653 0.0
H805 H 0.97627 0.66443 0.00246 0.0
H806 H 0.07031 0.51443 0.05029 0.0
H807 H 0.00299 0.70786 0.10594 0.0
H808 H 0.01521 0.61203 0.01516 0.0
H809 H 0.05472 0.6146 0.13575 0.0
C810 C 0.07311 0.56065 0.12877 0.0
C811 C 0.07822 0.53167 0.1052 0.0
C812 C 0.0134 0.63356 0.03461 0.0
C813 C 0.04737 0.5964 0.08083 0.0
C814 C 0.99167 0.66371 0.02711 0.0
C815 C 0.98633 0.69025 0.05336 0.0
C816 C 0.02988 0.6304 0.06844 0.0
C817 C 0.00636 0.6879 0.08507 0.0
C818 C 0.058 0.59281 0.11677 0.0
C819 C 0.06669 0.53594 0.06948 0.0
N820 N 0.02675 0.65825 0.09194 0.0
N821 N 0.05168 0.56775 0.05835 0.0
H822 H 0.69924 0.88218 0.427 0.0
H823 H 0.60242 0.75806 0.28232 0.0
H824 H 0.74722 0.85459 0.32528 0.0
H825 H 0.58797 0.7443 0.39619 0.0
H826 H 0.64475 0.807 0.2944 0.0
H827 H 0.6484 0.84325 0.41277 0.0
C828 C 0.69909 0.86789 0.40173 0.0
C829 C 0.72766 0.8712 0.37747 0.0
C830 C 0.63167 0.79369 0.31664 0.0
C831 C 0.66931 0.82765 0.36073 0.0
C832 C 0.60725 0.76621 0.30977 0.0
C833 C 0.59187 0.74734 0.33837 0.0
C834 C 0.64008 0.8025 0.35226 0.0
C835 C 0.59943 0.75832 0.37349 0.0
C836 C 0.67008 0.84585 0.39361 0.0
C837 C 0.72601 0.85229 0.34498 0.0
N838 N 0.62317 0.78513 0.3795 0.0
N839 N 0.6972 0.83139 0.33747 0.0
H840 H 0.5145 0.31874 0.53534 0.0
H841 H 0.40854 0.42855 0.68659 0.0
H842 H 0.51505 0.29175 0.64774 0.0
H843 H 0.41817 0.46682 0.57772 0.0
H844 H 0.44228 0.37472 0.67067 0.0
H845 H 0.47125 0.36753 0.54753 0.0
C846 C 0.50415 0.32201 0.56228 0.0
C847 C 0.518 0.30116 0.59063 0.0
C848 C 0.43729 0.39487 0.65018 0.0
C849 C 0.46987 0.35735 0.60492 0.0
C850 C 0.41823 0.42582 0.65935 0.0
C851 C 0.41071 0.45234 0.63349 0.0
C852 C 0.449 0.39006 0.61478 0.0
C853 C 0.42384 0.44724 0.59858 0.0
C854 C 0.4801 0.3503 0.56935 0.0
C855 C 0.50469 0.30711 0.62519 0.0
N856 N 0.44228 0.41653 0.59016 0.0
N857 N 0.48169 0.33489 0.63142 0.0
H858 H 0.26507 0.63858 0.69866 0.0
H859 H 0.14953 0.79568 0.60508 0.0
H860 H 0.27325 0.66797 0.58722 0.0
H861 H 0.12172 0.75014 0.70782 0.0
H862 H 0.20104 0.75502 0.60191 0.0
H863 H 0.2202 0.68697 0.70703 0.0
C864 C 0.25845 0.6562 0.67637 0.0
C865 C 0.27301 0.6498 0.64232 0.0
C866 C 0.18366 0.75376 0.62513 0.0
C867 C 0.22129 0.70397 0.65125 0.0
C868 C 0.15408 0.77687 0.6269 0.0
C869 C 0.13103 0.77612 0.65663 0.0
C870 C 0.19063 0.7297 0.65341 0.0
C871 C 0.13849 0.75127 0.68417 0.0
C872 C 0.23245 0.6833 0.68096 0.0
C873 C 0.26285 0.67247 0.61396 0.0
N874 N 0.16776 0.72905 0.68195 0.0
N875 N 0.23745 0.69838 0.61899 0.0
H876 H 0.50972 0.83346 0.98139 0.0
H877 H 0.56994 0.96097 0.82282 0.0
H878 H 0.52651 0.79952 0.87235 0.0
H879 H 0.58483 0.99289 0.93297 0.0
H880 H 0.55258 0.90166 0.84287 0.0
H881 H 0.54025 0.89033 0.9677 0.0
C882 C 0.52109 0.83743 0.95501 0.0
C883 C 0.51479 0.81241 0.92763 0.0
C884 C 0.55966 0.92148 0.86285 0.0
C885 C 0.54895 0.87693 0.91169 0.0
C886 C 0.56913 0.95564 0.85138 0.0
C887 C 0.57912 0.98198 0.87623 0.0
C888 C 0.55959 0.91333 0.8996 0.0
C889 C 0.57735 0.97338 0.91292 0.0
C890 C 0.53814 0.86997 0.9471 0.0
C891 C 0.5303 0.81846 0.89402 0.0
N892 N 0.5678 0.93966 0.92359 0.0
N893 N 0.54599 0.8504 0.8868 0.0
H894 H 0.90233 0.00143 0.43977 0.0
H895 H 0.97147 0.18664 0.35838 0.0
H896 H 0.9305 0.02156 0.32942 0.0
H897 H 0.99575 0.15898 0.46807 0.0
H898 H 0.93674 0.13162 0.35292 0.0
H899 H 0.9237 0.06216 0.45526 0.0
C900 C 0.91376 0.01819 0.41905 0.0
C901 C 0.9146 0.00649 0.38324 0.0
C902 C 0.94895 0.13793 0.3785 0.0
C903 C 0.93727 0.07584 0.40037 0.0
C904 C 0.96815 0.16965 0.38178 0.0
C905 C 0.9866 0.17703 0.41356 0.0
C906 C 0.94876 0.11319 0.40702 0.0
C907 C 0.98175 0.15405 0.44311 0.0
C908 C 0.92536 0.05291 0.4278 0.0
C909 C 0.92915 0.02948 0.35732 0.0
N910 N 0.96398 0.12244 0.4389 0.0
N911 N 0.93946 0.06307 0.36632 0.0
loop_
_geom_bond_atom_site_label_1
_geom_bond_atom_site_label_2
_geom_bond_distance
_geom_bond_site_symmetry_2
_ccdc_geom_bond_type
Sc0 O3 2.025 . S
Sc0 O10 2.105 . S
Sc0 O13 2.105 . S
Sc0 O16 2.105 . S
Sc0 O19 2.105 . S
Sc1 O3 2.025 . S
Sc1 O11 2.105 . S
Sc1 O15 2.105 . S
Sc1 O17 2.105 . S
Sc1 O21 2.105 . S
Sc2 O3 2.025 . S
Sc2 O12 2.105 . S
Sc2 O14 2.105 . S
Sc2 O18 2.105 . S
Sc2 O20 2.105 . S
O3 Sc0 2.025 . S
O3 Sc1 2.025 . S
O3 Sc2 2.025 . S
C4 O10 1.268 . S
C4 O20 1.268 . S
C5 O11 1.268 . S
C5 O19 1.268 . S
C6 O12 1.268 . S
C6 O21 1.268 . S
C7 O13 1.268 . S
C7 O17 1.268 . S
C8 O14 1.268 . S
C8 O16 1.268 . S
C9 O15 1.268 . S
C9 O18 1.268 . S
O10 Sc0 2.105 . S
O10 C4 1.268 . S
O11 Sc1 2.105 . S
O11 C5 1.268 . S
O12 Sc2 2.105 . S
O12 C6 1.268 . S
O13 Sc0 2.105 . S
O13 C7 1.268 . S
O14 Sc2 2.105 . S
O14 C8 1.268 . S
O15 Sc1 2.105 . S
O15 C9 1.268 . S
O16 Sc0 2.105 . S
O16 C8 1.268 . S
O17 Sc1 2.105 . S
O17 C7 1.268 . S
O18 Sc2 2.105 . S
O18 C9 1.268 . S
O19 Sc0 2.105 . S
O19 C5 1.268 . S
O20 Sc2 2.105 . S
O20 C4 1.268 . S
O21 Sc1 2.105 . S
O21 C6 1.268 . S
Sc22 O25 2.025 . S
Sc22 O32 2.105 . S
Sc22 O35 2.105 . S
Sc22 O38 2.105 . S
Sc22 O41 2.105 . S
Sc23 O25 2.025 . S
Sc23 O33 2.105 . S
Sc23 O37 2.105 1_455 S
Sc23 O39 2.105 1_455 S
Sc23 O43 2.105 . S
Sc24 O25 2.025 . S
Sc24 O34 2.105 . S
Sc24 O36 2.105 . S
Sc24 O40 2.105 1_455 S
Sc24 O42 2.105 . S
O25 Sc22 2.025 . S
O25 Sc23 2.025 . S
O25 Sc24 2.025 . S
C26 O32 1.268 . S
C26 O42 1.268 . S
C27 O33 1.268 . S
C27 O41 1.268 . S
C28 O34 1.268 . S
C28 O43 1.268 . S
C29 O35 1.268 . S
C29 O39 1.268 1_455 S
C30 O36 1.268 . S
C30 O38 1.268 . S
C31 O37 1.268 . S
C31 O40 1.268 . S
O32 Sc22 2.105 . S
O32 C26 1.268 . S
O33 Sc23 2.105 . S
O33 C27 1.268 . S
O34 Sc24 2.105 . S
O34 C28 1.268 . S
O35 Sc22 2.105 . S
O35 C29 1.268 . S
O36 Sc24 2.105 . S
O36 C30 1.268 . S
O37 Sc23 2.105 1_655 S
O37 C31 1.268 . S
O38 Sc22 2.105 . S
O38 C30 1.268 . S
O39 Sc23 2.105 1_655 S
O39 C29 1.268 1_655 S
O40 Sc24 2.105 1_655 S
O40 C31 1.268 . S
O41 Sc22 2.105 . S
O41 C27 1.268 . S
O42 Sc24 2.105 . S
O42 C26 1.268 . S
O43 Sc23 2.105 . S
O43 C28 1.268 . S
Sc44 O47 2.025 . S
Sc44 O54 2.105 . S
Sc44 O57 2.105 . S
Sc44 O60 2.105 . S
Sc44 O63 2.105 1_556 S
Sc45 O47 2.025 . S
Sc45 O55 2.105 1_556 S
Sc45 O59 2.105 . S
Sc45 O61 2.105 . S
Sc45 O65 2.105 1_556 S
Sc46 O47 2.025 . S
Sc46 O56 2.105 . S
Sc46 O58 2.105 . S
Sc46 O62 2.105 . S
Sc46 O64 2.105 . S
O47 Sc44 2.025 . S
O47 Sc45 2.025 . S
O47 Sc46 2.025 . S
C48 O54 1.268 . S
C48 O64 1.268 . S
C49 O55 1.268 . S
C49 O63 1.268 . S
C50 O56 1.268 . S
C50 O65 1.268 1_556 S
C51 O57 1.268 . S
C51 O61 1.268 . S
C52 O58 1.268 . S
C52 O60 1.268 . S
C53 O59 1.268 . S
C53 O62 1.268 . S
O54 Sc44 2.105 . S
O54 C48 1.268 . S
O55 Sc45 2.105 1_554 S
O55 C49 1.268 . S
O56 Sc46 2.105 . S
O56 C50 1.268 . S
O57 Sc44 2.105 . S
O57 C51 1.268 . S
O58 Sc46 2.105 . S
O58 C52 1.268 . S
O59 Sc45 2.105 . S
O59 C53 1.268 . S
O60 Sc44 2.105 . S
O60 C52 1.268 . S
O61 Sc45 2.105 . S
O61 C51 1.268 . S
O62 Sc46 2.105 . S
O62 C53 1.268 . S
O63 Sc44 2.105 1_554 S
O63 C49 1.268 . S
O64 Sc46 2.105 . S
O64 C48 1.268 . S
O65 Sc45 2.105 1_554 S
O65 C50 1.268 1_554 S
Sc66 O69 2.025 . S
Sc66 O76 2.105 . S
Sc66 O79 2.105 . S
Sc66 O82 2.105 . S
Sc66 O85 2.105 . S
Sc67 O69 2.025 . S
Sc67 O77 2.105 . S
Sc67 O81 2.105 . S
Sc67 O83 2.105 . S
Sc67 O87 2.105 . S
Sc68 O69 2.025 . S
Sc68 O78 2.105 . S
Sc68 O80 2.105 . S
Sc68 O84 2.105 . S
Sc68 O86 2.105 . S
O69 Sc66 2.025 . S
O69 Sc67 2.025 . S
O69 Sc68 2.025 . S
C70 O76 1.268 . S
C70 O86 1.268 . S
C71 O77 1.268 . S
C71 O85 1.268 . S
C72 O78 1.268 . S
C72 O87 1.268 . S
C73 O79 1.268 . S
C73 O83 1.268 . S
C74 O80 1.268 . S
C74 O82 1.268 . S
C75 O81 1.268 . S
C75 O84 1.268 . S
O76 Sc66 2.105 . S
O76 C70 1.268 . S
O77 Sc67 2.105 . S
O77 C71 1.268 . S
O78 Sc68 2.105 . S
O78 C72 1.268 . S
O79 Sc66 2.105 . S
O79 C73 1.268 . S
O80 Sc68 2.105 . S
O80 C74 1.268 . S
O81 Sc67 2.105 . S
O81 C75 1.268 . S
O82 Sc66 2.105 . S
O82 C74 1.268 . S
O83 Sc67 2.105 . S
O83 C73 1.268 . S
O84 Sc68 2.105 . S
O84 C75 1.268 . S
O85 Sc66 2.105 . S
O85 C71 1.268 . S
O86 Sc68 2.105 . S
O86 C70 1.268 . S
O87 Sc67 2.105 . S
O87 C72 1.268 . S
Sc88 O91 2.025 . S
Sc88 O98 2.105 . S
Sc88 O101 2.105 . S
Sc88 O104 2.105 . S
Sc88 O107 2.105 . S
Sc89 O91 2.025 . S
Sc89 O99 2.105 . S
Sc89 O103 2.105 . S
Sc89 O105 2.105 . S
Sc89 O109 2.105 . S
Sc90 O91 2.025 . S
Sc90 O100 2.105 . S
Sc90 O102 2.105 . S
Sc90 O106 2.105 . S
Sc90 O108 2.105 . S
O91 Sc88 2.025 . S
O91 Sc89 2.025 . S
O91 Sc90 2.025 . S
C92 O98 1.268 . S
C92 O108 1.268 . S
C93 O99 1.268 . S
C93 O107 1.268 . S
C94 O100 1.268 . S
C94 O109 1.268 . S
C95 O101 1.268 . S
C95 O105 1.268 . S
C96 O102 1.268 . S
C96 O104 1.268 . S
C97 O103 1.268 . S
C97 O106 1.268 . S
O98 Sc88 2.105 . S
O98 C92 1.268 . S
O99 Sc89 2.105 . S
O99 C93 1.268 . S
O100 Sc90 2.105 . S
O100 C94 1.268 . S
O101 Sc88 2.105 . S
O101 C95 1.268 . S
O102 Sc90 2.105 . S
O102 C96 1.268 . S
O103 Sc89 2.105 . S
O103 C97 1.268 . S
O104 Sc88 2.105 . S
O104 C96 1.268 . S
O105 Sc89 2.105 . S
O105 C95 1.268 . S
O106 Sc90 2.105 . S
O106 C97 1.268 . S
O107 Sc88 2.105 . S
O107 C93 1.268 . S
O108 Sc90 2.105 . S
O108 C92 1.268 . S
O109 Sc89 2.105 . S
O109 C94 1.268 . S
Sc110 O113 2.025 . S
Sc110 O120 2.105 . S
Sc110 O123 2.105 . S
Sc110 O126 2.105 . S
Sc110 O129 2.105 1_655 S
Sc111 O113 2.025 . S
Sc111 O121 2.105 1_655 S
Sc111 O125 2.105 . S
Sc111 O127 2.105 . S
Sc111 O131 2.105 1_655 S
Sc112 O113 2.025 . S
Sc112 O122 2.105 . S
Sc112 O124 2.105 . S
Sc112 O128 2.105 . S
Sc112 O130 2.105 . S
O113 Sc110 2.025 . S
O113 Sc111 2.025 . S
O113 Sc112 2.025 . S
C114 O120 1.268 . S
C114 O130 1.268 . S
C115 O121 1.268 . S
C115 O129 1.268 . S
C116 O122 1.268 . S
C116 O131 1.268 1_655 S
C117 O123 1.268 . S
C117 O127 1.268 . S
C118 O124 1.268 . S
C118 O126 1.268 . S
C119 O125 1.268 . S
C119 O128 1.268 . S
O120 Sc110 2.105 . S
O120 C114 1.268 . S
O121 Sc111 2.105 1_455 S
O121 C115 1.268 . S
O122 Sc112 2.105 . S
O122 C116 1.268 . S
O123 Sc110 2.105 . S
O123 C117 1.268 . S
O124 Sc112 2.105 . S
O124 C118 1.268 . S
O125 Sc111 2.105 . S
O125 C119 1.268 . S
O126 Sc110 2.105 . S
O126 C118 1.268 . S
O127 Sc111 2.105 . S
O127 C117 1.268 . S
O128 Sc112 2.105 . S
O128 C119 1.268 . S
O129 Sc110 2.105 1_455 S
O129 C115 1.268 . S
O130 Sc112 2.105 . S
O130 C114 1.268 . S
O131 Sc111 2.105 1_455 S
O131 C116 1.268 1_455 S
Sc132 O135 2.025 . S
Sc132 O142 2.105 . S
Sc132 O145 2.105 . S
Sc132 O148 2.105 . S
Sc132 O151 2.105 1_554 S
Sc133 O135 2.025 . S
Sc133 O143 2.105 1_554 S
Sc133 O147 2.105 . S
Sc133 O149 2.105 . S
Sc133 O153 2.105 1_554 S
Sc134 O135 2.025 . S
Sc134 O144 2.105 . S
Sc134 O146 2.105 . S
Sc134 O150 2.105 . S
Sc134 O152 2.105 . S
O135 Sc132 2.025 . S
O135 Sc133 2.025 . S
O135 Sc134 2.025 . S
C136 O142 1.268 . S
C136 O152 1.268 . S
C137 O143 1.268 . S
C137 O151 1.268 . S
C138 O144 1.268 . S
C138 O153 1.268 1_554 S
C139 O145 1.268 . S
C139 O149 1.268 . S
C140 O146 1.268 . S
C140 O148 1.268 . S
C141 O147 1.268 . S
C141 O150 1.268 . S
O142 Sc132 2.105 . S
O142 C136 1.268 . S
O143 Sc133 2.105 1_556 S
O143 C137 1.268 . S
O144 Sc134 2.105 . S
O144 C138 1.268 . S
O145 Sc132 2.105 . S
O145 C139 1.268 . S
O146 Sc134 2.105 . S
O146 C140 1.268 . S
O147 Sc133 2.105 . S
O147 C141 1.268 . S
O148 Sc132 2.105 . S
O148 C140 1.268 . S
O149 Sc133 2.105 . S
O149 C139 1.268 . S
O150 Sc134 2.105 . S
O150 C141 1.268 . S
O151 Sc132 2.105 1_556 S
O151 C137 1.268 . S
O152 Sc134 2.105 . S
O152 C136 1.268 . S
O153 Sc133 2.105 1_556 S
O153 C138 1.268 1_556 S
Sc154 O157 2.025 . S
Sc154 O164 2.105 . S
Sc154 O167 2.105 . S
Sc154 O170 2.105 . S
Sc154 O173 2.105 . S
Sc155 O157 2.025 . S
Sc155 O165 2.105 . S
Sc155 O169 2.105 . S
Sc155 O171 2.105 . S
Sc155 O175 2.105 . S
Sc156 O157 2.025 . S
Sc156 O166 2.105 . S
Sc156 O168 2.105 . S
Sc156 O172 2.105 . S
Sc156 O174 2.105 . S
O157 Sc154 2.025 . S
O157 Sc155 2.025 . S
O157 Sc156 2.025 . S
C158 O164 1.268 . S
C158 O174 1.268 . S
C159 O165 1.268 . S
C159 O173 1.268 . S
C160 O166 1.268 . S
C160 O175 1.268 . S
C161 O167 1.268 . S
C161 O171 1.268 . S
C162 O168 1.268 . S
C162 O170 1.268 . S
C163 O169 1.268 . S
C163 O172 1.268 . S
O164 Sc154 2.105 . S
O164 C158 1.268 . S
O165 Sc155 2.105 . S
O165 C159 1.268 . S
O166 Sc156 2.105 . S
O166 C160 1.268 . S
O167 Sc154 2.105 . S
O167 C161 1.268 . S
O168 Sc156 2.105 . S
O168 C162 1.268 . S
O169 Sc155 2.105 . S
O169 C163 1.268 . S
O170 Sc154 2.105 . S
O170 C162 1.268 . S
O171 Sc155 2.105 . S
O171 C161 1.268 . S
O172 Sc156 2.105 . S
O172 C163 1.268 . S
O173 Sc154 2.105 . S
O173 C159 1.268 . S
O174 Sc156 2.105 . S
O174 C158 1.268 . S
O175 Sc155 2.105 . S
O175 C160 1.268 . S
Sc176 O179 2.025 . S
Sc176 O186 2.105 . S
Sc176 O189 2.105 . S
Sc176 O192 2.105 . S
Sc176 O195 2.105 . S
Sc177 O179 2.025 . S
Sc177 O187 2.105 . S
Sc177 O191 2.105 . S
Sc177 O193 2.105 . S
Sc177 O197 2.105 . S
Sc178 O179 2.025 . S
Sc178 O188 2.105 . S
Sc178 O190 2.105 . S
Sc178 O194 2.105 . S
Sc178 O196 2.105 . S
O179 Sc176 2.025 . S
O179 Sc177 2.025 . S
O179 Sc178 2.025 . S
C180 O186 1.268 . S
C180 O196 1.268 . S
C181 O187 1.268 . S
C181 O195 1.268 . S
C182 O188 1.268 . S
C182 O197 1.268 . S
C183 O189 1.268 . S
C183 O193 1.268 . S
C184 O190 1.268 . S
C184 O192 1.268 . S
C185 O191 1.268 . S
C185 O194 1.268 . S
O186 Sc176 2.105 . S
O186 C180 1.268 . S
O187 Sc177 2.105 . S
O187 C181 1.268 . S
O188 Sc178 2.105 . S
O188 C182 1.268 . S
O189 Sc176 2.105 . S
O189 C183 1.268 . S
O190 Sc178 2.105 . S
O190 C184 1.268 . S
O191 Sc177 2.105 . S
O191 C185 1.268 . S
O192 Sc176 2.105 . S
O192 C184 1.268 . S
O193 Sc177 2.105 . S
O193 C183 1.268 . S
O194 Sc178 2.105 . S
O194 C185 1.268 . S
O195 Sc176 2.105 . S
O195 C181 1.268 . S
O196 Sc178 2.105 . S
O196 C180 1.268 . S
O197 Sc177 2.105 . S
O197 C182 1.268 . S
Sc198 O201 2.025 . S
Sc198 O208 2.105 . S
Sc198 O211 2.105 1_545 S
Sc198 O214 2.105 1_545 S
Sc198 O217 2.105 . S
Sc199 O201 2.025 . S
Sc199 O209 2.105 . S
Sc199 O213 2.105 . S
Sc199 O215 2.105 1_545 S
Sc199 O219 2.105 . S
Sc200 O201 2.025 . S
Sc200 O210 2.105 . S
Sc200 O212 2.105 . S
Sc200 O216 2.105 . S
Sc200 O218 2.105 . S
O201 Sc198 2.025 . S
O201 Sc199 2.025 . S
O201 Sc200 2.025 . S
C202 O208 1.268 . S
C202 O218 1.268 . S
C203 O209 1.268 . S
C203 O217 1.268 . S
C204 O210 1.268 . S
C204 O219 1.268 . S
C205 O211 1.268 . S
C205 O215 1.268 . S
C206 O212 1.268 . S
C206 O214 1.268 1_545 S
C207 O213 1.268 . S
C207 O216 1.268 . S
O208 Sc198 2.105 . S
O208 C202 1.268 . S
O209 Sc199 2.105 . S
O209 C203 1.268 . S
O210 Sc200 2.105 . S
O210 C204 1.268 . S
O211 Sc198 2.105 1_565 S
O211 C205 1.268 . S
O212 Sc200 2.105 . S
O212 C206 1.268 . S
O213 Sc199 2.105 . S
O213 C207 1.268 . S
O214 Sc198 2.105 1_565 S
O214 C206 1.268 1_565 S
O215 Sc199 2.105 1_565 S
O215 C205 1.268 . S
O216 Sc200 2.105 . S
O216 C207 1.268 . S
O217 Sc198 2.105 . S
O217 C203 1.268 . S
O218 Sc200 2.105 . S
O218 C202 1.268 . S
O219 Sc199 2.105 . S
O219 C204 1.268 . S
Sc220 O223 2.025 . S
Sc220 O230 2.105 . S
Sc220 O233 2.105 . S
Sc220 O236 2.105 . S
Sc220 O239 2.105 . S
Sc221 O223 2.025 . S
Sc221 O231 2.105 . S
Sc221 O235 2.105 . S
Sc221 O237 2.105 . S
Sc221 O241 2.105 1_565 S
Sc222 O223 2.025 . S
Sc222 O232 2.105 1_565 S
Sc222 O234 2.105 . S
Sc222 O238 2.105 . S
Sc222 O240 2.105 1_565 S
O223 Sc220 2.025 . S
O223 Sc221 2.025 . S
O223 Sc222 2.025 . S
C224 O230 1.268 . S
C224 O240 1.268 1_565 S
C225 O231 1.268 . S
C225 O239 1.268 . S
C226 O232 1.268 . S
C226 O241 1.268 . S
C227 O233 1.268 . S
C227 O237 1.268 . S
C228 O234 1.268 . S
C228 O236 1.268 . S
C229 O235 1.268 . S
C229 O238 1.268 . S
O230 Sc220 2.105 . S
O230 C224 1.268 . S
O231 Sc221 2.105 . S
O231 C225 1.268 . S
O232 Sc222 2.105 1_545 S
O232 C226 1.268 . S
O233 Sc220 2.105 . S
O233 C227 1.268 . S
O234 Sc222 2.105 . S
O234 C228 1.268 . S
O235 Sc221 2.105 . S
O235 C229 1.268 . S
O236 Sc220 2.105 . S
O236 C228 1.268 . S
O237 Sc221 2.105 . S
O237 C227 1.268 . S
O238 Sc222 2.105 . S
O238 C229 1.268 . S
O239 Sc220 2.105 . S
O239 C225 1.268 . S
O240 Sc222 2.105 1_545 S
O240 C224 1.268 1_545 S
O241 Sc221 2.105 1_545 S
O241 C226 1.268 . S
Sc242 O245 2.025 . S
Sc242 O252 2.105 . S
Sc242 O255 2.105 . S
Sc242 O258 2.105 . S
Sc242 O261 2.105 . S
Sc243 O245 2.025 . S
Sc243 O253 2.105 . S
Sc243 O257 2.105 . S
Sc243 O259 2.105 . S
Sc243 O263 2.105 . S
Sc244 O245 2.025 . S
Sc244 O254 2.105 . S
Sc244 O256 2.105 . S
Sc244 O260 2.105 . S
Sc244 O262 2.105 . S
O245 Sc242 2.025 . S
O245 Sc243 2.025 . S
O245 Sc244 2.025 . S
C246 O252 1.268 . S
C246 O262 1.268 . S
C247 O253 1.268 . S
C247 O261 1.268 . S
C248 O254 1.268 . S
C248 O263 1.268 . S
C249 O255 1.268 . S
C249 O259 1.268 . S
C250 O256 1.268 . S
C250 O258 1.268 . S
C251 O257 1.268 . S
C251 O260 1.268 . S
O252 Sc242 2.105 . S
O252 C246 1.268 . S
O253 Sc243 2.105 . S
O253 C247 1.268 . S
O254 Sc244 2.105 . S
O254 C248 1.268 . S
O255 Sc242 2.105 . S
O255 C249 1.268 . S
O256 Sc244 2.105 . S
O256 C250 1.268 . S
O257 Sc243 2.105 . S
O257 C251 1.268 . S
O258 Sc242 2.105 . S
O258 C250 1.268 . S
O259 Sc243 2.105 . S
O259 C249 1.268 . S
O260 Sc244 2.105 . S
O260 C251 1.268 . S
O261 Sc242 2.105 . S
O261 C247 1.268 . S
O262 Sc244 2.105 . S
O262 C246 1.268 . S
O263 Sc243 2.105 . S
O263 C248 1.268 . S
H264 C270 0.930 . S
H265 C274 0.930 . S
H266 C279 0.929 . S
H267 C277 0.929 . S
H268 C272 0.929 . S
H269 C278 0.929 . S
C270 H264 0.930 . S
C270 C271 1.367 . S
C270 C278 1.378 . S
C271 C270 1.367 . S
C271 C279 1.433 . S
C272 H268 0.929 . S
C272 C274 1.378 . S
C272 C276 1.350 . S
C273 C276 1.463 . S
C273 C278 1.350 . S
C273 N281 1.427 . S
C274 H265 0.930 . S
C274 C272 1.378 . S
C274 C275 1.367 . S
C275 C274 1.367 . S
C275 C277 1.433 . S
C276 C272 1.350 . S
C276 C273 1.463 . S
C276 N280 1.427 . S
C277 H267 0.929 . S
C277 C275 1.433 . S
C277 N280 1.384 . S
C278 H269 0.929 . S
C278 C270 1.378 . S
C278 C273 1.350 . S
C279 H266 0.929 . S
C279 C271 1.433 . S
C279 N281 1.384 . S
N280 C276 1.427 . S
N280 C277 1.384 . S
N281 C273 1.427 . S
N281 C279 1.384 . S
H282 C288 0.930 . S
H283 C292 0.930 . S
H284 C297 0.929 . S
H285 C295 0.929 . S
H286 C290 0.929 1_545 S
H287 C296 0.929 . S
C288 H282 0.930 . S
C288 C289 1.367 1_565 S
C288 C296 1.378 . S
C289 C288 1.367 1_545 S
C289 C297 1.433 . S
C290 H286 0.929 1_565 S
C290 C292 1.378 . S
C290 C294 1.350 . S
C291 C294 1.463 . S
C291 C296 1.350 . S
C291 N299 1.427 1_565 S
C292 H283 0.930 . S
C292 C290 1.378 . S
C292 C293 1.367 . S
C293 C292 1.367 . S
C293 C295 1.433 . S
C294 C290 1.350 . S
C294 C291 1.463 . S
C294 N298 1.427 . S
C295 H285 0.929 . S
C295 C293 1.433 . S
C295 N298 1.384 . S
C296 H287 0.929 . S
C296 C288 1.378 . S
C296 C291 1.350 . S
C297 H284 0.929 . S
C297 C289 1.433 . S
C297 N299 1.384 . S
N298 C294 1.427 . S
N298 C295 1.384 . S
N299 C291 1.427 1_545 S
N299 C297 1.384 . S
H300 C306 0.930 . S
H301 C310 0.930 . S
H302 C315 0.929 . S
H303 C313 0.929 . S
H304 C308 0.929 1_556 S
H305 C314 0.929 . S
C306 H300 0.930 . S
C306 C307 1.367 1_554 S
C306 C314 1.378 . S
C307 C306 1.367 1_556 S
C307 C315 1.433 . S
C308 H304 0.929 1_554 S
C308 C310 1.378 . S
C308 C312 1.350 . S
C309 C312 1.463 . S
C309 C314 1.350 . S
C309 N317 1.427 1_554 S
C310 H301 0.930 . S
C310 C308 1.378 . S
C310 C311 1.367 . S
C311 C310 1.367 . S
C311 C313 1.433 . S
C312 C308 1.350 . S
C312 C309 1.463 . S
C312 N316 1.427 . S
C313 H303 0.929 . S
C313 C311 1.433 . S
C313 N316 1.384 . S
C314 H305 0.929 . S
C314 C306 1.378 . S
C314 C309 1.350 . S
C315 H302 0.929 . S
C315 C307 1.433 . S
C315 N317 1.384 . S
N316 C312 1.427 . S
N316 C313 1.384 . S
N317 C309 1.427 1_556 S
N317 C315 1.384 . S
H318 C324 0.930 . S
H319 C328 0.930 . S
H320 C333 0.929 . S
H321 C331 0.929 . S
H322 C326 0.929 . S
H323 C332 0.929 . S
C324 H318 0.930 . S
C324 C325 1.367 . S
C324 C332 1.378 . S
C325 C324 1.367 . S
C325 C333 1.433 . S
C326 H322 0.929 . S
C326 C328 1.378 . S
C326 C330 1.350 1_565 S
C327 C330 1.463 . S
C327 C332 1.350 . S
C327 N335 1.427 . S
C328 H319 0.930 . S
C328 C326 1.378 . S
C328 C329 1.367 . S
C329 C328 1.367 . S
C329 C331 1.433 1_565 S
C330 C326 1.350 1_545 S
C330 C327 1.463 . S
C330 N334 1.427 . S
C331 H321 0.929 . S
C331 C329 1.433 1_545 S
C331 N334 1.384 . S
C332 H323 0.929 . S
C332 C324 1.378 . S
C332 C327 1.350 . S
C333 H320 0.929 . S
C333 C325 1.433 . S
C333 N335 1.384 . S
N334 C330 1.427 . S
N334 C331 1.384 . S
N335 C327 1.427 . S
N335 C333 1.384 . S
H336 C342 0.930 . S
H337 C346 0.930 . S
H338 C351 0.929 . S
H339 C349 0.929 . S
H340 C344 0.929 . S
H341 C350 0.929 . S
C342 H336 0.930 . S
C342 C343 1.367 . S
C342 C350 1.378 . S
C343 C342 1.367 . S
C343 C351 1.433 . S
C344 H340 0.929 . S
C344 C346 1.378 . S
C344 C348 1.350 . S
C345 C348 1.463 . S
C345 C350 1.350 . S
C345 N353 1.427 . S
C346 H337 0.930 . S
C346 C344 1.378 . S
C346 C347 1.367 . S
C347 C346 1.367 . S
C347 C349 1.433 . S
C348 C344 1.350 . S
C348 C345 1.463 . S
C348 N352 1.427 . S
C349 H339 0.929 . S
C349 C347 1.433 . S
C349 N352 1.384 . S
C350 H341 0.929 . S
C350 C342 1.378 . S
C350 C345 1.350 . S
C351 H338 0.929 . S
C351 C343 1.433 . S
C351 N353 1.384 . S
N352 C348 1.427 . S
N352 C349 1.384 . S
N353 C345 1.427 . S
N353 C351 1.384 . S
H354 C360 0.930 . S
H355 C364 0.930 . S
H356 C369 0.929 . S
H357 C367 0.929 . S
H358 C362 0.929 . S
H359 C368 0.929 . S
C360 H354 0.930 . S
C360 C361 1.367 . S
C360 C368 1.378 . S
C361 C360 1.367 . S
C361 C369 1.433 . S
C362 H358 0.929 . S
C362 C364 1.378 . S
C362 C366 1.350 . S
C363 C366 1.463 . S
C363 C368 1.350 . S
C363 N371 1.427 . S
C364 H355 0.930 . S
C364 C362 1.378 . S
C364 C365 1.367 . S
C365 C364 1.367 . S
C365 C367 1.433 . S
C366 C362 1.350 . S
C366 C363 1.463 . S
C366 N370 1.427 . S
C367 H357 0.929 . S
C367 C365 1.433 . S
C367 N370 1.384 . S
C368 H359 0.929 . S
C368 C360 1.378 . S
C368 C363 1.350 . S
C369 H356 0.929 . S
C369 C361 1.433 . S
C369 N371 1.384 . S
N370 C366 1.427 . S
N370 C367 1.384 . S
N371 C363 1.427 . S
N371 C369 1.384 . S
H372 C378 0.930 . S
H373 C382 0.930 . S
H374 C387 0.929 . S
H375 C385 0.929 . S
H376 C380 0.929 . S
H377 C386 0.929 . S
C378 H372 0.930 . S
C378 C379 1.367 . S
C378 C386 1.378 . S
C379 C378 1.367 . S
C379 C387 1.433 . S
C380 H376 0.929 . S
C380 C382 1.378 . S
C380 C384 1.350 1_554 S
C381 C384 1.463 . S
C381 C386 1.350 . S
C381 N389 1.427 . S
C382 H373 0.930 . S
C382 C380 1.378 . S
C382 C383 1.367 . S
C383 C382 1.367 . S
C383 C385 1.433 1_554 S
C384 C380 1.350 1_556 S
C384 C381 1.463 . S
C384 N388 1.427 . S
C385 H375 0.929 . S
C385 C383 1.433 1_556 S
C385 N388 1.384 . S
C386 H377 0.929 . S
C386 C378 1.378 . S
C386 C381 1.350 . S
C387 H374 0.929 . S
C387 C379 1.433 . S
C387 N389 1.384 . S
N388 C384 1.427 . S
N388 C385 1.384 . S
N389 C381 1.427 . S
N389 C387 1.384 . S
H390 C396 0.930 . S
H391 C400 0.930 . S
H392 C405 0.929 . S
H393 C403 0.929 . S
H394 C398 0.929 . S
H395 C404 0.929 . S
C396 H390 0.930 . S
C396 C397 1.367 . S
C396 C404 1.378 . S
C397 C396 1.367 . S
C397 C405 1.433 . S
C398 H394 0.929 . S
C398 C400 1.378 . S
C398 C402 1.350 . S
C399 C402 1.463 . S
C399 C404 1.350 . S
C399 N407 1.427 . S
C400 H391 0.930 . S
C400 C398 1.378 . S
C400 C401 1.367 . S
C401 C400 1.367 . S
C401 C403 1.433 . S
C402 C398 1.350 . S
C402 C399 1.463 . S
C402 N406 1.427 . S
C403 H393 0.929 . S
C403 C401 1.433 . S
C403 N406 1.384 . S
C404 H395 0.929 . S
C404 C396 1.378 . S
C404 C399 1.350 . S
C405 H392 0.929 . S
C405 C397 1.433 . S
C405 N407 1.384 . S
N406 C402 1.427 . S
N406 C403 1.384 . S
N407 C399 1.427 . S
N407 C405 1.384 . S
H408 C414 0.930 . S
H409 C418 0.930 . S
H410 C423 0.929 . S
H411 C421 0.929 . S
H412 C416 0.929 . S
H413 C422 0.929 . S
C414 H408 0.930 . S
C414 C415 1.367 . S
C414 C422 1.378 . S
C415 C414 1.367 . S
C415 C423 1.433 . S
C416 H412 0.929 . S
C416 C418 1.378 . S
C416 C420 1.350 . S
C417 C420 1.463 . S
C417 C422 1.350 . S
C417 N425 1.427 . S
C418 H409 0.930 . S
C418 C416 1.378 . S
C418 C419 1.367 . S
C419 C418 1.367 . S
C419 C421 1.433 . S
C420 C416 1.350 . S
C420 C417 1.463 . S
C420 N424 1.427 . S
C421 H411 0.929 . S
C421 C419 1.433 . S
C421 N424 1.384 . S
C422 H413 0.929 . S
C422 C414 1.378 . S
C422 C417 1.350 . S
C423 H410 0.929 . S
C423 C415 1.433 . S
C423 N425 1.384 . S
N424 C420 1.427 . S
N424 C421 1.384 . S
N425 C417 1.427 . S
N425 C423 1.384 . S
H426 C432 0.930 . S
H427 C436 0.930 . S
H428 C441 0.929 . S
H429 C439 0.931 . S
H430 C434 0.929 . S
H431 C440 0.929 . S
C432 H426 0.930 . S
C432 C433 1.367 . S
C432 C440 1.378 . S
C433 C432 1.367 . S
C433 C441 1.433 . S
C434 H430 0.929 . S
C434 C436 1.378 . S
C434 C438 1.350 1_655 S
C435 C438 1.463 . S
C435 C440 1.350 . S
C435 N443 1.427 . S
C436 H427 0.930 . S
C436 C434 1.378 . S
C436 C437 1.367 . S
C437 C436 1.367 . S
C437 C439 1.421 1_655 S
C438 C434 1.350 1_455 S
C438 C435 1.463 . S
C438 N442 1.427 . S
C439 H429 0.931 . S
C439 C437 1.421 1_455 S
C439 N442 1.395 . S
C440 H431 0.929 . S
C440 C432 1.378 . S
C440 C435 1.350 . S
C441 H428 0.929 . S
C441 C433 1.433 . S
C441 N443 1.384 . S
N442 C438 1.427 . S
N442 C439 1.395 . S
N443 C435 1.427 . S
N443 C441 1.384 . S
H444 C450 0.930 . S
H445 C454 0.930 . S
H446 C459 0.929 . S
H447 C457 0.929 . S
H448 C452 0.929 . S
H449 C458 0.929 . S
C450 H444 0.930 . S
C450 C451 1.367 1_655 S
C450 C458 1.378 . S
C451 C450 1.367 1_455 S
C451 C459 1.433 . S
C452 H448 0.929 . S
C452 C454 1.378 . S
C452 C456 1.350 . S
C453 C456 1.463 . S
C453 C458 1.350 . S
C453 N461 1.427 1_655 S
C454 H445 0.930 . S
C454 C452 1.378 . S
C454 C455 1.367 . S
C455 C454 1.367 . S
C455 C457 1.433 . S
C456 C452 1.350 . S
C456 C453 1.463 . S
C456 N460 1.427 . S
C457 H447 0.929 . S
C457 C455 1.433 . S
C457 N460 1.384 . S
C458 H449 0.929 . S
C458 C450 1.378 . S
C458 C453 1.350 . S
C459 H446 0.929 . S
C459 C451 1.433 . S
C459 N461 1.384 . S
N460 C456 1.427 . S
N460 C457 1.384 . S
N461 C453 1.427 1_455 S
N461 C459 1.384 . S
H462 C468 0.930 . S
H463 C472 0.930 . S
H464 C477 0.929 . S
H465 C475 0.929 . S
H466 C470 0.929 . S
H467 C476 0.929 . S
C468 H462 0.930 . S
C468 C469 1.367 . S
C468 C476 1.378 . S
C469 C468 1.367 . S
C469 C477 1.433 . S
C470 H466 0.929 . S
C470 C472 1.378 . S
C470 C474 1.350 . S
C471 C474 1.463 . S
C471 C476 1.350 . S
C471 N479 1.427 . S
C472 H463 0.930 . S
C472 C470 1.378 . S
C472 C473 1.367 . S
C473 C472 1.367 . S
C473 C475 1.433 . S
C474 C470 1.350 . S
C474 C471 1.463 . S
C474 N478 1.427 . S
C475 H465 0.929 . S
C475 C473 1.433 . S
C475 N478 1.384 . S
C476 H467 0.929 . S
C476 C468 1.378 . S
C476 C471 1.350 . S
C477 H464 0.929 . S
C477 C469 1.433 . S
C477 N479 1.384 . S
N478 C474 1.427 . S
N478 C475 1.384 . S
N479 C471 1.427 . S
N479 C477 1.384 . S
H480 C486 0.930 . S
H481 C490 0.930 . S
H482 C495 0.929 . S
H483 C493 0.929 . S
H484 C488 0.929 . S
H485 C494 0.929 . S
C486 H480 0.930 . S
C486 C487 1.367 . S
C486 C494 1.378 . S
C487 C486 1.367 . S
C487 C495 1.433 . S
C488 H484 0.929 . S
C488 C490 1.378 . S
C488 C492 1.350 . S
C489 C492 1.463 . S
C489 C494 1.350 . S
C489 N497 1.427 . S
C490 H481 0.930 . S
C490 C488 1.378 . S
C490 C491 1.367 . S
C491 C490 1.367 . S
C491 C493 1.433 . S
C492 C488 1.350 . S
C492 C489 1.463 . S
C492 N496 1.427 . S
C493 H483 0.929 . S
C493 C491 1.433 . S
C493 N496 1.384 . S
C494 H485 0.929 . S
C494 C486 1.378 . S
C494 C489 1.350 . S
C495 H482 0.929 . S
C495 C487 1.433 . S
C495 N497 1.384 . S
N496 C492 1.427 . S
N496 C493 1.384 . S
N497 C489 1.427 . S
N497 C495 1.384 . S
H498 C504 0.930 . S
H499 C508 0.930 . S
H500 C513 0.929 . S
H501 C511 0.929 . S
H502 C506 0.929 . S
H503 C512 0.929 . S
C504 H498 0.930 . S
C504 C505 1.367 . S
C504 C512 1.378 . S
C505 C504 1.367 . S
C505 C513 1.433 . S
C506 H502 0.929 . S
C506 C508 1.378 . S
C506 C510 1.350 . S
C507 C510 1.463 . S
C507 C512 1.350 . S
C507 N515 1.427 . S
C508 H499 0.930 . S
C508 C506 1.378 . S
C508 C509 1.367 . S
C509 C508 1.367 . S
C509 C511 1.433 . S
C510 C506 1.350 . S
C510 C507 1.463 . S
C510 N514 1.427 . S
C511 H501 0.929 . S
C511 C509 1.433 . S
C511 N514 1.384 . S
C512 H503 0.929 . S
C512 C504 1.378 . S
C512 C507 1.350 . S
C513 H500 0.929 . S
C513 C505 1.433 . S
C513 N515 1.384 . S
N514 C510 1.427 . S
N514 C511 1.384 . S
N515 C507 1.427 . S
N515 C513 1.384 . S
H516 C522 0.930 . S
H517 C526 0.930 . S
H518 C531 0.929 . S
H519 C529 0.929 . S
H520 C524 0.929 . S
H521 C530 0.929 . S
C522 H516 0.930 . S
C522 C523 1.367 . S
C522 C530 1.378 . S
C523 C522 1.367 . S
C523 C531 1.433 . S
C524 H520 0.929 . S
C524 C526 1.378 . S
C524 C528 1.350 . S
C525 C528 1.463 . S
C525 C530 1.350 . S
C525 N533 1.427 . S
C526 H517 0.930 . S
C526 C524 1.378 . S
C526 C527 1.367 . S
C527 C526 1.367 . S
C527 C529 1.433 . S
C528 C524 1.350 . S
C528 C525 1.463 . S
C528 N532 1.427 . S
C529 H519 0.929 . S
C529 C527 1.433 . S
C529 N532 1.384 . S
C530 H521 0.929 . S
C530 C522 1.378 . S
C530 C525 1.350 . S
C531 H518 0.929 . S
C531 C523 1.433 . S
C531 N533 1.384 . S
N532 C528 1.427 . S
N532 C529 1.384 . S
N533 C525 1.427 . S
N533 C531 1.384 . S
H534 C540 0.930 . S
H535 C544 0.931 . S
H536 C549 0.929 . S
H537 C547 0.929 . S
H538 C542 0.929 . S
H539 C548 0.929 . S
C540 H534 0.930 . S
C540 C541 1.367 . S
C540 C548 1.378 . S
C541 C540 1.367 . S
C541 C549 1.433 . S
C542 H538 0.929 . S
C542 C544 1.378 . S
C542 C546 1.350 . S
C543 C546 1.463 . S
C543 C548 1.350 . S
C543 N551 1.427 . S
C544 H535 0.931 . S
C544 C542 1.378 . S
C544 C545 1.367 1_554 S
C545 C544 1.367 1_556 S
C545 C547 1.433 . S
C546 C542 1.350 . S
C546 C543 1.463 . S
C546 N550 1.427 . S
C547 H537 0.929 . S
C547 C545 1.433 . S
C547 N550 1.384 1_556 S
C548 H539 0.929 . S
C548 C540 1.378 . S
C548 C543 1.350 . S
C549 H536 0.929 . S
C549 C541 1.433 . S
C549 N551 1.384 . S
N550 C546 1.427 . S
N550 C547 1.384 1_554 S
N551 C543 1.427 . S
N551 C549 1.384 . S
H552 C558 0.930 . S
H553 C562 0.930 . S
H554 C567 0.929 . S
H555 C565 0.929 . S
H556 C560 0.929 . S
H557 C566 0.929 . S
C558 H552 0.930 . S
C558 C559 1.367 . S
C558 C566 1.378 . S
C559 C558 1.367 . S
C559 C567 1.433 . S
C560 H556 0.929 . S
C560 C562 1.378 . S
C560 C564 1.350 . S
C561 C564 1.463 . S
C561 C566 1.350 . S
C561 N569 1.427 . S
C562 H553 0.930 . S
C562 C560 1.378 . S
C562 C563 1.367 . S
C563 C562 1.367 . S
C563 C565 1.433 . S
C564 C560 1.350 . S
C564 C561 1.463 . S
C564 N568 1.427 . S
C565 H555 0.929 . S
C565 C563 1.433 . S
C565 N568 1.384 . S
C566 H557 0.929 . S
C566 C558 1.378 . S
C566 C561 1.350 . S
C567 H554 0.929 . S
C567 C559 1.433 . S
C567 N569 1.384 . S
N568 C564 1.427 . S
N568 C565 1.384 . S
N569 C561 1.427 . S
N569 C567 1.384 . S
H570 C576 0.930 . S
H571 C580 0.930 1_655 S
H572 C585 0.929 . S
H573 C583 0.929 . S
H574 C578 0.929 . S
H575 C584 0.929 . S
C576 H570 0.930 . S
C576 C577 1.367 1_556 S
C576 C584 1.378 . S
C577 C576 1.367 1_554 S
C577 C585 1.433 . S
C578 H574 0.929 . S
C578 C580 1.378 . S
C578 C582 1.350 . S
C579 C582 1.463 . S
C579 C584 1.350 . S
C579 N587 1.415 1_556 S
C580 H571 0.930 1_455 S
C580 C578 1.378 . S
C580 C581 1.367 . S
C581 C580 1.367 . S
C581 C583 1.433 . S
C582 C578 1.350 . S
C582 C579 1.463 . S
C582 N586 1.427 . S
C583 H573 0.929 . S
C583 C581 1.433 . S
C583 N586 1.384 . S
C584 H575 0.929 . S
C584 C576 1.378 . S
C584 C579 1.350 . S
C585 H572 0.929 . S
C585 C577 1.433 . S
C585 N587 1.393 . S
N586 C582 1.427 . S
N586 C583 1.384 . S
N587 C579 1.415 1_554 S
N587 C585 1.393 . S
H588 C594 0.930 . S
H589 C598 0.930 . S
H590 C603 0.929 . S
H591 C601 0.929 . S
H592 C596 0.929 . S
H593 C602 0.929 . S
C594 H588 0.930 . S
C594 C595 1.367 . S
C594 C602 1.378 . S
C595 C594 1.367 . S
C595 C603 1.433 . S
C596 H592 0.929 . S
C596 C598 1.378 . S
C596 C600 1.350 . S
C597 C600 1.463 . S
C597 C602 1.350 . S
C597 N605 1.427 . S
C598 H589 0.930 . S
C598 C596 1.378 . S
C598 C599 1.367 . S
C599 C598 1.367 . S
C599 C601 1.433 . S
C600 C596 1.350 . S
C600 C597 1.463 . S
C600 N604 1.427 . S
C601 H591 0.929 . S
C601 C599 1.433 . S
C601 N604 1.384 . S
C602 H593 0.929 . S
C602 C594 1.378 . S
C602 C597 1.350 . S
C603 H590 0.929 . S
C603 C595 1.433 . S
C603 N605 1.384 . S
N604 C600 1.427 . S
N604 C601 1.384 . S
N605 C597 1.427 . S
N605 C603 1.384 . S
H606 C612 0.930 . S
H607 C616 0.930 . S
H608 C621 0.929 . S
H609 C619 0.929 . S
H610 C614 0.929 . S
H611 C620 0.929 . S
C612 H606 0.930 . S
C612 C613 1.367 . S
C612 C620 1.378 . S
C613 C612 1.367 . S
C613 C621 1.433 . S
C614 H610 0.929 . S
C614 C616 1.378 . S
C614 C618 1.350 . S
C615 C618 1.463 . S
C615 C620 1.350 . S
C615 N623 1.427 . S
C616 H607 0.930 . S
C616 C614 1.378 . S
C616 C617 1.367 . S
C617 C616 1.367 . S
C617 C619 1.433 . S
C618 C614 1.350 . S
C618 C615 1.463 . S
C618 N622 1.427 . S
C619 H609 0.929 . S
C619 C617 1.433 . S
C619 N622 1.384 . S
C620 H611 0.929 . S
C620 C612 1.378 . S
C620 C615 1.350 . S
C621 H608 0.929 . S
C621 C613 1.433 . S
C621 N623 1.384 . S
N622 C618 1.427 . S
N622 C619 1.384 . S
N623 C615 1.427 . S
N623 C621 1.384 . S
H624 C630 0.930 . S
H625 C634 0.930 . S
H626 C639 0.929 . S
H627 C637 0.929 . S
H628 C632 0.929 . S
H629 C638 0.929 . S
C630 H624 0.930 . S
C630 C631 1.367 . S
C630 C638 1.378 . S
C631 C630 1.367 . S
C631 C639 1.433 . S
C632 H628 0.929 . S
C632 C634 1.378 . S
C632 C636 1.350 . S
C633 C636 1.463 . S
C633 C638 1.350 . S
C633 N641 1.427 . S
C634 H625 0.930 . S
C634 C632 1.378 . S
C634 C635 1.367 . S
C635 C634 1.367 . S
C635 C637 1.433 . S
C636 C632 1.350 . S
C636 C633 1.463 . S
C636 N640 1.427 . S
C637 H627 0.929 . S
C637 C635 1.433 . S
C637 N640 1.384 . S
C638 H629 0.929 . S
C638 C630 1.378 . S
C638 C633 1.350 . S
C639 H626 0.929 . S
C639 C631 1.433 . S
C639 N641 1.384 . S
N640 C636 1.427 . S
N640 C637 1.384 . S
N641 C633 1.427 . S
N641 C639 1.384 . S
H642 C648 0.930 . S
H643 C652 0.930 . S
H644 C657 0.929 . S
H645 C655 0.929 . S
H646 C650 0.929 . S
H647 C656 0.929 . S
C648 H642 0.930 . S
C648 C649 1.367 . S
C648 C656 1.378 . S
C649 C648 1.367 . S
C649 C657 1.433 . S
C650 H646 0.929 . S
C650 C652 1.378 . S
C650 C654 1.350 . S
C651 C654 1.463 . S
C651 C656 1.350 . S
C651 N659 1.427 . S
C652 H643 0.930 . S
C652 C650 1.378 . S
C652 C653 1.367 1_545 S
C653 C652 1.367 1_565 S
C653 C655 1.433 . S
C654 C650 1.350 . S
C654 C651 1.463 . S
C654 N658 1.427 1_545 S
C655 H645 0.929 . S
C655 C653 1.433 . S
C655 N658 1.384 . S
C656 H647 0.929 . S
C656 C648 1.378 . S
C656 C651 1.350 . S
C657 H644 0.929 . S
C657 C649 1.433 . S
C657 N659 1.384 . S
N658 C654 1.427 1_565 S
N658 C655 1.384 . S
N659 C651 1.427 . S
N659 C657 1.384 . S
H660 C666 0.930 . S
H661 C670 0.930 . S
H662 C675 0.929 . S
H663 C673 0.929 . S
H664 C668 0.929 . S
H665 C674 0.929 . S
C666 H660 0.930 . S
C666 C667 1.367 . S
C666 C674 1.378 . S
C667 C666 1.367 . S
C667 C675 1.433 . S
C668 H664 0.929 . S
C668 C670 1.378 . S
C668 C672 1.350 . S
C669 C672 1.463 . S
C669 C674 1.350 . S
C669 N677 1.427 . S
C670 H661 0.930 . S
C670 C668 1.378 . S
C670 C671 1.367 . S
C671 C670 1.367 . S
C671 C673 1.433 . S
C672 C668 1.350 . S
C672 C669 1.463 . S
C672 N676 1.427 . S
C673 H663 0.929 . S
C673 C671 1.433 . S
C673 N676 1.384 . S
C674 H665 0.929 . S
C674 C666 1.378 . S
C674 C669 1.350 . S
C675 H662 0.929 . S
C675 C667 1.433 . S
C675 N677 1.384 . S
N676 C672 1.427 . S
N676 C673 1.384 . S
N677 C669 1.427 . S
N677 C675 1.384 . S
H678 C684 0.930 . S
H679 C688 0.930 . S
H680 C693 0.929 . S
H681 C691 0.929 . S
H682 C686 0.929 . S
H683 C692 0.929 . S
C684 H678 0.930 . S
C684 C685 1.367 1_565 S
C684 C692 1.378 . S
C685 C684 1.367 1_545 S
C685 C693 1.433 . S
C686 H682 0.929 . S
C686 C688 1.378 . S
C686 C690 1.350 . S
C687 C690 1.463 . S
C687 C692 1.350 . S
C687 N695 1.427 . S
C688 H679 0.930 . S
C688 C686 1.378 . S
C688 C689 1.367 . S
C689 C688 1.367 . S
C689 C691 1.433 . S
C690 C686 1.350 . S
C690 C687 1.463 . S
C690 N694 1.427 . S
C691 H681 0.929 . S
C691 C689 1.433 . S
C691 N694 1.384 . S
C692 H683 0.929 . S
C692 C684 1.378 . S
C692 C687 1.350 . S
C693 H680 0.929 . S
C693 C685 1.433 . S
C693 N695 1.384 1_545 S
N694 C690 1.427 . S
N694 C691 1.384 . S
N695 C687 1.427 . S
N695 C693 1.384 1_565 S
H696 C702 0.930 . S
H697 C706 0.930 . S
H698 C711 0.929 . S
H699 C709 0.929 . S
H700 C704 0.929 . S
H701 C710 0.929 . S
C702 H696 0.930 . S
C702 C703 1.367 . S
C702 C710 1.378 . S
C703 C702 1.367 . S
C703 C711 1.433 . S
C704 H700 0.929 . S
C704 C706 1.378 . S
C704 C708 1.350 . S
C705 C708 1.463 . S
C705 C710 1.350 . S
C705 N713 1.427 . S
C706 H697 0.930 . S
C706 C704 1.378 . S
C706 C707 1.367 . S
C707 C706 1.367 . S
C707 C709 1.433 . S
C708 C704 1.350 . S
C708 C705 1.463 . S
C708 N712 1.427 . S
C709 H699 0.929 . S
C709 C707 1.433 . S
C709 N712 1.384 . S
C710 H701 0.929 . S
C710 C702 1.378 . S
C710 C705 1.350 . S
C711 H698 0.929 . S
C711 C703 1.433 . S
C711 N713 1.384 . S
N712 C708 1.427 . S
N712 C709 1.384 . S
N713 C705 1.427 . S
N713 C711 1.384 . S
H714 C720 0.930 . S
H715 C724 0.930 1_554 S
H716 C729 0.929 . S
H717 C727 0.929 . S
H718 C722 0.929 . S
H719 C728 0.929 . S
C720 H714 0.930 . S
C720 C721 1.367 . S
C720 C728 1.378 . S
C721 C720 1.367 . S
C721 C729 1.433 . S
C722 H718 0.929 . S
C722 C724 1.378 . S
C722 C726 1.350 . S
C723 C726 1.463 . S
C723 C728 1.350 . S
C723 N731 1.427 . S
C724 H715 0.930 1_556 S
C724 C722 1.378 . S
C724 C725 1.367 . S
C725 C724 1.367 . S
C725 C727 1.433 . S
C726 C722 1.350 . S
C726 C723 1.463 . S
C726 N730 1.427 . S
C727 H717 0.929 . S
C727 C725 1.433 . S
C727 N730 1.384 . S
C728 H719 0.929 . S
C728 C720 1.378 . S
C728 C723 1.350 . S
C729 H716 0.929 . S
C729 C721 1.433 . S
C729 N731 1.384 . S
N730 C726 1.427 . S
N730 C727 1.384 . S
N731 C723 1.427 . S
N731 C729 1.384 . S
H732 C738 0.930 . S
H733 C742 0.930 . S
H734 C747 0.929 . S
H735 C745 0.929 . S
H736 C740 0.929 . S
H737 C746 0.929 . S
C738 H732 0.930 . S
C738 C739 1.367 . S
C738 C746 1.378 . S
C739 C738 1.367 . S
C739 C747 1.433 . S
C740 H736 0.929 . S
C740 C742 1.378 . S
C740 C744 1.350 . S
C741 C744 1.463 . S
C741 C746 1.350 . S
C741 N749 1.427 . S
C742 H733 0.930 . S
C742 C740 1.378 . S
C742 C743 1.367 . S
C743 C742 1.367 . S
C743 C745 1.433 . S
C744 C740 1.350 . S
C744 C741 1.463 . S
C744 N748 1.427 . S
C745 H735 0.929 . S
C745 C743 1.433 . S
C745 N748 1.384 . S
C746 H737 0.929 . S
C746 C738 1.378 . S
C746 C741 1.350 . S
C747 H734 0.929 . S
C747 C739 1.433 . S
C747 N749 1.384 . S
N748 C744 1.427 . S
N748 C745 1.384 . S
N749 C741 1.427 . S
N749 C747 1.384 . S
H750 C756 0.930 . S
H751 C760 0.930 . S
H752 C765 0.929 . S
H753 C763 0.929 . S
H754 C758 0.929 . S
H755 C764 0.929 . S
C756 H750 0.930 . S
C756 C757 1.367 . S
C756 C764 1.378 . S
C757 C756 1.367 . S
C757 C765 1.433 . S
C758 H754 0.929 . S
C758 C760 1.378 . S
C758 C762 1.350 . S
C759 C762 1.463 . S
C759 C764 1.350 . S
C759 N767 1.427 . S
C760 H751 0.930 . S
C760 C758 1.378 . S
C760 C761 1.367 . S
C761 C760 1.367 . S
C761 C763 1.433 . S
C762 C758 1.350 . S
C762 C759 1.463 . S
C762 N766 1.427 . S
C763 H753 0.929 . S
C763 C761 1.433 . S
C763 N766 1.384 . S
C764 H755 0.929 . S
C764 C756 1.378 . S
C764 C759 1.350 . S
C765 H752 0.929 . S
C765 C757 1.433 . S
C765 N767 1.384 . S
N766 C762 1.427 . S
N766 C763 1.384 . S
N767 C759 1.427 . S
N767 C765 1.384 . S
H768 C774 0.930 . S
H769 C778 0.930 . S
H770 C783 0.929 . S
H771 C781 0.929 . S
H772 C776 0.929 . S
H773 C782 0.929 . S
C774 H768 0.930 . S
C774 C775 1.367 . S
C774 C782 1.378 . S
C775 C774 1.367 . S
C775 C783 1.433 . S
C776 H772 0.929 . S
C776 C778 1.378 . S
C776 C780 1.350 . S
C777 C780 1.463 . S
C777 C782 1.350 . S
C777 N785 1.427 . S
C778 H769 0.930 . S
C778 C776 1.378 . S
C778 C779 1.367 . S
C779 C778 1.367 . S
C779 C781 1.433 . S
C780 C776 1.350 . S
C780 C777 1.463 . S
C780 N784 1.427 . S
C781 H771 0.929 . S
C781 C779 1.433 . S
C781 N784 1.384 . S
C782 H773 0.929 . S
C782 C774 1.378 . S
C782 C777 1.350 . S
C783 H770 0.929 . S
C783 C775 1.433 . S
C783 N785 1.384 . S
N784 C780 1.427 . S
N784 C781 1.384 . S
N785 C777 1.427 . S
N785 C783 1.384 . S
H786 C792 0.930 . S
H787 C796 0.930 . S
H788 C801 0.929 . S
H789 C799 0.929 . S
H790 C794 0.929 . S
H791 C800 0.929 . S
C792 H786 0.930 . S
C792 C793 1.367 . S
C792 C800 1.378 . S
C793 C792 1.367 . S
C793 C801 1.433 . S
C794 H790 0.929 . S
C794 C796 1.378 . S
C794 C798 1.350 . S
C795 C798 1.463 . S
C795 C800 1.350 . S
C795 N803 1.427 . S
C796 H787 0.930 . S
C796 C794 1.378 . S
C796 C797 1.367 . S
C797 C796 1.367 . S
C797 C799 1.433 . S
C798 C794 1.350 . S
C798 C795 1.463 . S
C798 N802 1.427 . S
C799 H789 0.929 . S
C799 C797 1.433 . S
C799 N802 1.384 . S
C800 H791 0.929 . S
C800 C792 1.378 . S
C800 C795 1.350 . S
C801 H788 0.929 . S
C801 C793 1.433 . S
C801 N803 1.384 . S
N802 C798 1.427 . S
N802 C799 1.384 . S
N803 C795 1.427 . S
N803 C801 1.384 . S
H804 C810 0.930 . S
H805 C814 0.930 . S
H806 C819 0.929 . S
H807 C817 0.929 . S
H808 C812 0.932 . S
H809 C818 0.929 . S
C810 H804 0.930 . S
C810 C811 1.367 . S
C810 C818 1.378 . S
C811 C810 1.367 . S
C811 C819 1.433 . S
C812 H808 0.932 . S
C812 C814 1.388 . S
C812 C816 1.337 1_655 S
C813 C816 1.463 . S
C813 C818 1.350 . S
C813 N821 1.427 . S
C814 H805 0.930 . S
C814 C812 1.388 . S
C814 C815 1.367 . S
C815 C814 1.367 . S
C815 C817 1.433 1_655 S
C816 C812 1.337 1_455 S
C816 C813 1.463 . S
C816 N820 1.427 . S
C817 H807 0.929 . S
C817 C815 1.433 1_455 S
C817 N820 1.384 . S
C818 H809 0.929 . S
C818 C810 1.378 . S
C818 C813 1.350 . S
C819 H806 0.929 . S
C819 C811 1.433 . S
C819 N821 1.384 . S
N820 C816 1.427 . S
N820 C817 1.384 . S
N821 C813 1.427 . S
N821 C819 1.384 . S
H822 C828 0.930 . S
H823 C832 0.930 . S
H824 C837 0.929 . S
H825 C835 0.929 . S
H826 C830 0.929 . S
H827 C836 0.929 . S
C828 H822 0.930 . S
C828 C829 1.367 . S
C828 C836 1.378 . S
C829 C828 1.367 . S
C829 C837 1.433 . S
C830 H826 0.929 . S
C830 C832 1.378 . S
C830 C834 1.350 . S
C831 C834 1.463 . S
C831 C836 1.350 . S
C831 N839 1.427 . S
C832 H823 0.930 . S
C832 C830 1.378 . S
C832 C833 1.367 . S
C833 C832 1.367 . S
C833 C835 1.433 . S
C834 C830 1.350 . S
C834 C831 1.463 . S
C834 N838 1.427 . S
C835 H825 0.929 . S
C835 C833 1.433 . S
C835 N838 1.384 . S
C836 H827 0.929 . S
C836 C828 1.378 . S
C836 C831 1.350 . S
C837 H824 0.929 . S
C837 C829 1.433 . S
C837 N839 1.384 . S
N838 C834 1.427 . S
N838 C835 1.384 . S
N839 C831 1.427 . S
N839 C837 1.384 . S
H840 C846 0.930 . S
H841 C850 0.930 . S
H842 C855 0.929 . S
H843 C853 0.929 . S
H844 C848 0.929 . S
H845 C854 0.929 . S
C846 H840 0.930 . S
C846 C847 1.367 . S
C846 C854 1.378 . S
C847 C846 1.367 . S
C847 C855 1.433 . S
C848 H844 0.929 . S
C848 C850 1.378 . S
C848 C852 1.350 . S
C849 C852 1.463 . S
C849 C854 1.350 . S
C849 N857 1.427 . S
C850 H841 0.930 . S
C850 C848 1.378 . S
C850 C851 1.367 . S
C851 C850 1.367 . S
C851 C853 1.433 . S
C852 C848 1.350 . S
C852 C849 1.463 . S
C852 N856 1.427 . S
C853 H843 0.929 . S
C853 C851 1.433 . S
C853 N856 1.384 . S
C854 H845 0.929 . S
C854 C846 1.378 . S
C854 C849 1.350 . S
C855 H842 0.929 . S
C855 C847 1.433 . S
C855 N857 1.384 . S
N856 C852 1.427 . S
N856 C853 1.384 . S
N857 C849 1.427 . S
N857 C855 1.384 . S
H858 C864 0.930 . S
H859 C868 0.930 . S
H860 C873 0.929 . S
H861 C871 0.929 . S
H862 C866 0.929 . S
H863 C872 0.929 . S
C864 H858 0.930 . S
C864 C865 1.367 . S
C864 C872 1.378 . S
C865 C864 1.367 . S
C865 C873 1.433 . S
C866 H862 0.929 . S
C866 C868 1.378 . S
C866 C870 1.350 . S
C867 C870 1.463 . S
C867 C872 1.350 . S
C867 N875 1.427 . S
C868 H859 0.930 . S
C868 C866 1.378 . S
C868 C869 1.367 . S
C869 C868 1.367 . S
C869 C871 1.433 . S
C870 C866 1.350 . S
C870 C867 1.463 . S
C870 N874 1.427 . S
C871 H861 0.929 . S
C871 C869 1.433 . S
C871 N874 1.384 . S
C872 H863 0.929 . S
C872 C864 1.378 . S
C872 C867 1.350 . S
C873 H860 0.929 . S
C873 C865 1.433 . S
C873 N875 1.384 . S
N874 C870 1.427 . S
N874 C871 1.384 . S
N875 C867 1.427 . S
N875 C873 1.384 . S
H876 C882 0.930 . S
H877 C886 0.930 . S
H878 C891 0.929 . S
H879 C889 0.929 . S
H880 C884 0.929 . S
H881 C890 0.929 . S
C882 H876 0.930 . S
C882 C883 1.367 . S
C882 C890 1.378 . S
C883 C882 1.367 . S
C883 C891 1.433 . S
C884 H880 0.929 . S
C884 C886 1.378 . S
C884 C888 1.350 . S
C885 C888 1.463 . S
C885 C890 1.350 . S
C885 N893 1.427 . S
C886 H877 0.930 . S
C886 C884 1.378 . S
C886 C887 1.367 . S
C887 C886 1.367 . S
C887 C889 1.433 . S
C888 C884 1.350 . S
C888 C885 1.463 . S
C888 N892 1.427 . S
C889 H879 0.929 . S
C889 C887 1.433 . S
C889 N892 1.384 . S
C890 H881 0.929 . S
C890 C882 1.378 . S
C890 C885 1.350 . S
C891 H878 0.929 . S
C891 C883 1.433 . S
C891 N893 1.384 . S
N892 C888 1.427 . S
N892 C889 1.384 . S
N893 C885 1.427 . S
N893 C891 1.384 . S
H894 C900 0.930 1_565 S
H895 C904 0.927 1_455 S
H896 C909 0.929 . S
H897 C907 0.929 . S
H898 C902 0.929 . S
H899 C908 0.929 . S
C900 H894 0.930 1_545 S
C900 C901 1.367 . S
C900 C908 1.378 . S
C901 C900 1.367 . S
C901 C909 1.433 . S
C902 H898 0.929 . S
C902 C904 1.389 . S
C902 C906 1.350 . S
C903 C906 1.463 . S
C903 C908 1.350 . S
C903 N911 1.427 . S
C904 H895 0.927 1_655 S
C904 C902 1.389 . S
C904 C905 1.360 1_655 S
C905 C904 1.360 1_455 S
C905 C907 1.433 . S
C906 C902 1.350 . S
C906 C903 1.463 . S
C906 N910 1.427 . S
C907 H897 0.929 . S
C907 C905 1.433 . S
C907 N910 1.384 1_455 S
C908 H899 0.929 . S
C908 C900 1.378 . S
C908 C903 1.350 . S
C909 H896 0.929 . S
C909 C901 1.433 . S
C909 N911 1.384 . S
N910 C906 1.427 . S
N910 C907 1.384 1_655 S
N911 C903 1.427 . S
N911 C909 1.384 . S
C271 C6 1.095 . S
C275 C248 1.095 . S
C289 C203 1.092 . S
C293 C31 1.100 . S
C307 C51 1.092 . S
C311 C181 1.100 . S
C325 C75 1.101 . S
C329 C229 1.109 . S
C343 C93 1.094 . S
C347 C226 1.097 . S
C361 C115 1.099 . S
C365 C251 1.092 . S
C379 C205 1.106 . S
C383 C139 1.105 . S
C397 C161 1.091 . S
C401 C183 1.102 . S
C415 C72 1.098 . S
C419 C95 1.110 . S
C433 C9 1.090 . S
C437 C117 1.106 . S
C451 C28 1.094 . S
C455 C137 1.111 . S
C469 C159 1.098 . S
C473 C49 1.111 . S
C487 C4 1.418 . S
C491 C185 1.381 . S
C505 C29 1.421 1_655 S
C509 C225 1.393 . S
C523 C250 1.394 . S
C527 C52 1.429 . S
C541 C73 1.427 . S
C545 C207 1.389 . S
C559 C94 1.417 . S
C563 C202 1.382 . S
C577 C180 1.393 . S
C581 C116 1.429 1_455 S
C595 C228 1.382 . S
C599 C140 1.417 . S
C613 C247 1.385 . S
C617 C162 1.417 . S
C631 C5 1.381 . S
C635 C70 1.420 . S
C649 C7 1.428 . S
C653 C30 1.398 . S
C667 C26 1.419 . S
C671 C53 1.389 . S
C685 C74 1.395 . S
C689 C50 1.424 1_554 S
C703 C118 1.420 . S
C707 C92 1.390 . S
C721 C114 1.398 . S
C725 C138 1.427 1_556 S
C739 C141 1.381 . S
C743 C160 1.420 . S
C757 C96 1.420 . S
C761 C163 1.381 . S
C775 C184 1.427 . S
C779 C71 1.390 . S
C793 C119 1.387 . S
C797 C204 1.425 . S
C811 C182 1.418 . S
C815 C136 1.385 . S
C829 C227 1.424 . S
C833 C158 1.396 . S
C847 C97 1.383 . S
C851 C246 1.417 . S
C865 C249 1.428 . S
C869 C27 1.392 . S
C883 C48 1.397 . S
C887 C206 1.425 1_565 S
C901 C224 1.426 1_545 S
C905 C8 1.388 . S
