# Generated by pormake.
# Topology lcs-e, (6)-cn, num edge types: 1
# Building blocks:
#     Node 0, Type 0, BuildingBlock: KUMBOL_clean_sbu_0, # of connection points: 6
#     Node 1, Type 0, BuildingBlock: KUMBOL_clean_sbu_0, # of connection points: 6
#     Node 2, Type 0, BuildingBlock: KUMBOL_clean_sbu_0, # of connection points: 6
#     Node 3, Type 0, BuildingBlock: KUMBOL_clean_sbu_0, # of connection points: 6
#     Node 4, Type 0, BuildingBlock: KUMBOL_clean_sbu_0, # of connection points: 6
#     Node 5, Type 0, BuildingBlock: KUMBOL_clean_sbu_0, # of connection points: 6
#     Node 6, Type 0, BuildingBlock: KUMBOL_clean_sbu_0, # of connection points: 6
#     Node 7, Type 0, BuildingBlock: KUMBOL_clean_sbu_0, # of connection points: 6
#     Node 8, Type 0, BuildingBlock: KUMBOL_clean_sbu_0, # of connection points: 6
#     Node 9, Type 0, BuildingBlock: KUMBOL_clean_sbu_0, # of connection points: 6
#     Node 10, Type 0, BuildingBlock: KUMBOL_clean_sbu_0, # of connection points: 6
#     Node 11, Type 0, BuildingBlock: KUMBOL_clean_sbu_0, # of connection points: 6
#     Node 12, Type 0, BuildingBlock: KUMBOL_clean_sbu_0, # of connection points: 6
#     Node 13, Type 0, BuildingBlock: KUMBOL_clean_sbu_0, # of connection points: 6
#     Node 14, Type 0, BuildingBlock: KUMBOL_clean_sbu_0, # of connection points: 6
#     Node 15, Type 0, BuildingBlock: KUMBOL_clean_sbu_0, # of connection points: 6
#     Node 16, Type 0, BuildingBlock: KUMBOL_clean_sbu_0, # of connection points: 6
#     Node 17, Type 0, BuildingBlock: KUMBOL_clean_sbu_0, # of connection points: 6
#     Node 18, Type 0, BuildingBlock: KUMBOL_clean_sbu_0, # of connection points: 6
#     Node 19, Type 0, BuildingBlock: KUMBOL_clean_sbu_0, # of connection points: 6
#     Node 20, Type 0, BuildingBlock: KUMBOL_clean_sbu_0, # of connection points: 6
#     Node 21, Type 0, BuildingBlock: KUMBOL_clean_sbu_0, # of connection points: 6
#     Node 22, Type 0, BuildingBlock: KUMBOL_clean_sbu_0, # of connection points: 6
#     Node 23, Type 0, BuildingBlock: KUMBOL_clean_sbu_0, # of connection points: 6
#     Node 24, Type 0, BuildingBlock: KUMBOL_clean_sbu_0, # of connection points: 6
#     Node 25, Type 0, BuildingBlock: KUMBOL_clean_sbu_0, # of connection points: 6
#     Node 26, Type 0, BuildingBlock: KUMBOL_clean_sbu_0, # of connection points: 6
#     Node 27, Type 0, BuildingBlock: KUMBOL_clean_sbu_0, # of connection points: 6
#     Node 28, Type 0, BuildingBlock: KUMBOL_clean_sbu_0, # of connection points: 6
#     Node 29, Type 0, BuildingBlock: KUMBOL_clean_sbu_0, # of connection points: 6
#     Node 30, Type 0, BuildingBlock: KUMBOL_clean_sbu_0, # of connection points: 6
#     Node 31, Type 0, BuildingBlock: KUMBOL_clean_sbu_0, # of connection points: 6
#     Node 32, Type 0, BuildingBlock: KUMBOL_clean_sbu_0, # of connection points: 6
#     Node 33, Type 0, BuildingBlock: KUMBOL_clean_sbu_0, # of connection points: 6
#     Node 34, Type 0, BuildingBlock: KUMBOL_clean_sbu_0, # of connection points: 6
#     Node 35, Type 0, BuildingBlock: KUMBOL_clean_sbu_0, # of connection points: 6
#     Node 36, Type 0, BuildingBlock: KUMBOL_clean_sbu_0, # of connection points: 6
#     Node 37, Type 0, BuildingBlock: KUMBOL_clean_sbu_0, # of connection points: 6
#     Node 38, Type 0, BuildingBlock: KUMBOL_clean_sbu_0, # of connection points: 6
#     Node 39, Type 0, BuildingBlock: KUMBOL_clean_sbu_0, # of connection points: 6
#     Node 40, Type 0, BuildingBlock: KUMBOL_clean_sbu_0, # of connection points: 6
#     Node 41, Type 0, BuildingBlock: KUMBOL_clean_sbu_0, # of connection points: 6
#     Node 42, Type 0, BuildingBlock: KUMBOL_clean_sbu_0, # of connection points: 6
#     Node 43, Type 0, BuildingBlock: KUMBOL_clean_sbu_0, # of connection points: 6
#     Node 44, Type 0, BuildingBlock: KUMBOL_clean_sbu_0, # of connection points: 6
#     Node 45, Type 0, BuildingBlock: KUMBOL_clean_sbu_0, # of connection points: 6
#     Node 46, Type 0, BuildingBlock: KUMBOL_clean_sbu_0, # of connection points: 6
#     Node 47, Type 0, BuildingBlock: KUMBOL_clean_sbu_0, # of connection points: 6
#     Edge 48, Type (0, 0), BuildingBlock: TEMPAE_clean_linker_10, # of connection points: 2
#     Edge 49, Type (0, 0), BuildingBlock: TEMPAE_clean_linker_10, # of connection points: 2
#     Edge 50, Type (0, 0), BuildingBlock: TEMPAE_clean_linker_10, # of connection points: 2
#     Edge 51, Type (0, 0), BuildingBlock: TEMPAE_clean_linker_10, # of connection points: 2
#     Edge 52, Type (0, 0), BuildingBlock: TEMPAE_clean_linker_10, # of connection points: 2
#     Edge 53, Type (0, 0), BuildingBlock: TEMPAE_clean_linker_10, # of connection points: 2
#     Edge 54, Type (0, 0), BuildingBlock: TEMPAE_clean_linker_10, # of connection points: 2
#     Edge 55, Type (0, 0), BuildingBlock: TEMPAE_clean_linker_10, # of connection points: 2
#     Edge 56, Type (0, 0), BuildingBlock: TEMPAE_clean_linker_10, # of connection points: 2
#     Edge 57, Type (0, 0), BuildingBlock: TEMPAE_clean_linker_10, # of connection points: 2
#     Edge 58, Type (0, 0), BuildingBlock: TEMPAE_clean_linker_10, # of connection points: 2
#     Edge 59, Type (0, 0), BuildingBlock: TEMPAE_clean_linker_10, # of connection points: 2
#     Edge 60, Type (0, 0), BuildingBlock: TEMPAE_clean_linker_10, # of connection points: 2
#     Edge 61, Type (0, 0), BuildingBlock: TEMPAE_clean_linker_10, # of connection points: 2
#     Edge 62, Type (0, 0), BuildingBlock: TEMPAE_clean_linker_10, # of connection points: 2
#     Edge 63, Type (0, 0), BuildingBlock: TEMPAE_clean_linker_10, # of connection points: 2
#     Edge 64, Type (0, 0), BuildingBlock: TEMPAE_clean_linker_10, # of connection points: 2
#     Edge 65, Type (0, 0), BuildingBlock: TEMPAE_clean_linker_10, # of connection points: 2
#     Edge 66, Type (0, 0), BuildingBlock: TEMPAE_clean_linker_10, # of connection points: 2
#     Edge 67, Type (0, 0), BuildingBlock: TEMPAE_clean_linker_10, # of connection points: 2
#     Edge 68, Type (0, 0), BuildingBlock: TEMPAE_clean_linker_10, # of connection points: 2
#     Edge 69, Type (0, 0), BuildingBlock: TEMPAE_clean_linker_10, # of connection points: 2
#     Edge 70, Type (0, 0), BuildingBlock: TEMPAE_clean_linker_10, # of connection points: 2
#     Edge 71, Type (0, 0), BuildingBlock: TEMPAE_clean_linker_10, # of connection points: 2
#     Edge 72, Type (0, 0), BuildingBlock: TEMPAE_clean_linker_10, # of connection points: 2
#     Edge 73, Type (0, 0), BuildingBlock: TEMPAE_clean_linker_10, # of connection points: 2
#     Edge 74, Type (0, 0), BuildingBlock: TEMPAE_clean_linker_10, # of connection points: 2
#     Edge 75, Type (0, 0), BuildingBlock: TEMPAE_clean_linker_10, # of connection points: 2
#     Edge 76, Type (0, 0), BuildingBlock: TEMPAE_clean_linker_10, # of connection points: 2
#     Edge 77, Type (0, 0), BuildingBlock: TEMPAE_clean_linker_10, # of connection points: 2
#     Edge 78, Type (0, 0), BuildingBlock: TEMPAE_clean_linker_10, # of connection points: 2
#     Edge 79, Type (0, 0), BuildingBlock: TEMPAE_clean_linker_10, # of connection points: 2
#     Edge 80, Type (0, 0), BuildingBlock: TEMPAE_clean_linker_10, # of connection points: 2
#     Edge 81, Type (0, 0), BuildingBlock: TEMPAE_clean_linker_10, # of connection points: 2
#     Edge 82, Type (0, 0), BuildingBlock: TEMPAE_clean_linker_10, # of connection points: 2
#     Edge 83, Type (0, 0), BuildingBlock: TEMPAE_clean_linker_10, # of connection points: 2
#     Edge 84, Type (0, 0), BuildingBlock: TEMPAE_clean_linker_10, # of connection points: 2
#     Edge 85, Type (0, 0), BuildingBlock: TEMPAE_clean_linker_10, # of connection points: 2
#     Edge 86, Type (0, 0), BuildingBlock: TEMPAE_clean_linker_10, # of connection points: 2
#     Edge 87, Type (0, 0), BuildingBlock: TEMPAE_clean_linker_10, # of connection points: 2
#     Edge 88, Type (0, 0), BuildingBlock: TEMPAE_clean_linker_10, # of connection points: 2
#     Edge 89, Type (0, 0), BuildingBlock: TEMPAE_clean_linker_10, # of connection points: 2
#     Edge 90, Type (0, 0), BuildingBlock: TEMPAE_clean_linker_10, # of connection points: 2
#     Edge 91, Type (0, 0), BuildingBlock: TEMPAE_clean_linker_10, # of connection points: 2
#     Edge 92, Type (0, 0), BuildingBlock: TEMPAE_clean_linker_10, # of connection points: 2
#     Edge 93, Type (0, 0), BuildingBlock: TEMPAE_clean_linker_10, # of connection points: 2
#     Edge 94, Type (0, 0), BuildingBlock: TEMPAE_clean_linker_10, # of connection points: 2
#     Edge 95, Type (0, 0), BuildingBlock: TEMPAE_clean_linker_10, # of connection points: 2
#     Edge 96, Type (0, 0), BuildingBlock: TEMPAE_clean_linker_10, # of connection points: 2
#     Edge 97, Type (0, 0), BuildingBlock: TEMPAE_clean_linker_10, # of connection points: 2
#     Edge 98, Type (0, 0), BuildingBlock: TEMPAE_clean_linker_10, # of connection points: 2
#     Edge 99, Type (0, 0), BuildingBlock: TEMPAE_clean_linker_10, # of connection points: 2
#     Edge 100, Type (0, 0), BuildingBlock: TEMPAE_clean_linker_10, # of connection points: 2
#     Edge 101, Type (0, 0), BuildingBlock: TEMPAE_clean_linker_10, # of connection points: 2
#     Edge 102, Type (0, 0), BuildingBlock: TEMPAE_clean_linker_10, # of connection points: 2
#     Edge 103, Type (0, 0), BuildingBlock: TEMPAE_clean_linker_10, # of connection points: 2
#     Edge 104, Type (0, 0), BuildingBlock: TEMPAE_clean_linker_10, # of connection points: 2
#     Edge 105, Type (0, 0), BuildingBlock: TEMPAE_clean_linker_10, # of connection points: 2
#     Edge 106, Type (0, 0), BuildingBlock: TEMPAE_clean_linker_10, # of connection points: 2
#     Edge 107, Type (0, 0), BuildingBlock: TEMPAE_clean_linker_10, # of connection points: 2
#     Edge 108, Type (0, 0), BuildingBlock: TEMPAE_clean_linker_10, # of connection points: 2
#     Edge 109, Type (0, 0), BuildingBlock: TEMPAE_clean_linker_10, # of connection points: 2
#     Edge 110, Type (0, 0), BuildingBlock: TEMPAE_clean_linker_10, # of connection points: 2
#     Edge 111, Type (0, 0), BuildingBlock: TEMPAE_clean_linker_10, # of connection points: 2
#     Edge 112, Type (0, 0), BuildingBlock: TEMPAE_clean_linker_10, # of connection points: 2
#     Edge 113, Type (0, 0), BuildingBlock: TEMPAE_clean_linker_10, # of connection points: 2
#     Edge 114, Type (0, 0), BuildingBlock: TEMPAE_clean_linker_10, # of connection points: 2
#     Edge 115, Type (0, 0), BuildingBlock: TEMPAE_clean_linker_10, # of connection points: 2
#     Edge 116, Type (0, 0), BuildingBlock: TEMPAE_clean_linker_10, # of connection points: 2
#     Edge 117, Type (0, 0), BuildingBlock: TEMPAE_clean_linker_10, # of connection points: 2
#     Edge 118, Type (0, 0), BuildingBlock: TEMPAE_clean_linker_10, # of connection points: 2
#     Edge 119, Type (0, 0), BuildingBlock: TEMPAE_clean_linker_10, # of connection points: 2
#     Edge 120, Type (0, 0), BuildingBlock: TEMPAE_clean_linker_10, # of connection points: 2
#     Edge 121, Type (0, 0), BuildingBlock: TEMPAE_clean_linker_10, # of connection points: 2
#     Edge 122, Type (0, 0), BuildingBlock: TEMPAE_clean_linker_10, # of connection points: 2
#     Edge 123, Type (0, 0), BuildingBlock: TEMPAE_clean_linker_10, # of connection points: 2
#     Edge 124, Type (0, 0), BuildingBlock: TEMPAE_clean_linker_10, # of connection points: 2
#     Edge 125, Type (0, 0), BuildingBlock: TEMPAE_clean_linker_10, # of connection points: 2
#     Edge 126, Type (0, 0), BuildingBlock: TEMPAE_clean_linker_10, # of connection points: 2
#     Edge 127, Type (0, 0), BuildingBlock: TEMPAE_clean_linker_10, # of connection points: 2
#     Edge 128, Type (0, 0), BuildingBlock: TEMPAE_clean_linker_10, # of connection points: 2
#     Edge 129, Type (0, 0), BuildingBlock: TEMPAE_clean_linker_10, # of connection points: 2
#     Edge 130, Type (0, 0), BuildingBlock: TEMPAE_clean_linker_10, # of connection points: 2
#     Edge 131, Type (0, 0), BuildingBlock: TEMPAE_clean_linker_10, # of connection points: 2
#     Edge 132, Type (0, 0), BuildingBlock: TEMPAE_clean_linker_10, # of connection points: 2
#     Edge 133, Type (0, 0), BuildingBlock: TEMPAE_clean_linker_10, # of connection points: 2
#     Edge 134, Type (0, 0), BuildingBlock: TEMPAE_clean_linker_10, # of connection points: 2
#     Edge 135, Type (0, 0), BuildingBlock: TEMPAE_clean_linker_10, # of connection points: 2
#     Edge 136, Type (0, 0), BuildingBlock: TEMPAE_clean_linker_10, # of connection points: 2
#     Edge 137, Type (0, 0), BuildingBlock: TEMPAE_clean_linker_10, # of connection points: 2
#     Edge 138, Type (0, 0), BuildingBlock: TEMPAE_clean_linker_10, # of connection points: 2
#     Edge 139, Type (0, 0), BuildingBlock: TEMPAE_clean_linker_10, # of connection points: 2
#     Edge 140, Type (0, 0), BuildingBlock: TEMPAE_clean_linker_10, # of connection points: 2
#     Edge 141, Type (0, 0), BuildingBlock: TEMPAE_clean_linker_10, # of connection points: 2
#     Edge 142, Type (0, 0), BuildingBlock: TEMPAE_clean_linker_10, # of connection points: 2
#     Edge 143, Type (0, 0), BuildingBlock: TEMPAE_clean_linker_10, # of connection points: 2
#     Edge 144, Type (0, 0), BuildingBlock: TEMPAE_clean_linker_10, # of connection points: 2
#     Edge 145, Type (0, 0), BuildingBlock: TEMPAE_clean_linker_10, # of connection points: 2
#     Edge 146, Type (0, 0), BuildingBlock: TEMPAE_clean_linker_10, # of connection points: 2
#     Edge 147, Type (0, 0), BuildingBlock: TEMPAE_clean_linker_10, # of connection points: 2
#     Edge 148, Type (0, 0), BuildingBlock: TEMPAE_clean_linker_10, # of connection points: 2
#     Edge 149, Type (0, 0), BuildingBlock: TEMPAE_clean_linker_10, # of connection points: 2
#     Edge 150, Type (0, 0), BuildingBlock: TEMPAE_clean_linker_10, # of connection points: 2
#     Edge 151, Type (0, 0), BuildingBlock: TEMPAE_clean_linker_10, # of connection points: 2
#     Edge 152, Type (0, 0), BuildingBlock: TEMPAE_clean_linker_10, # of connection points: 2
#     Edge 153, Type (0, 0), BuildingBlock: TEMPAE_clean_linker_10, # of connection points: 2
#     Edge 154, Type (0, 0), BuildingBlock: TEMPAE_clean_linker_10, # of connection points: 2
#     Edge 155, Type (0, 0), BuildingBlock: TEMPAE_clean_linker_10, # of connection points: 2
#     Edge 156, Type (0, 0), BuildingBlock: TEMPAE_clean_linker_10, # of connection points: 2
#     Edge 157, Type (0, 0), BuildingBlock: TEMPAE_clean_linker_10, # of connection points: 2
#     Edge 158, Type (0, 0), BuildingBlock: TEMPAE_clean_linker_10, # of connection points: 2
#     Edge 159, Type (0, 0), BuildingBlock: TEMPAE_clean_linker_10, # of connection points: 2
#     Edge 160, Type (0, 0), BuildingBlock: TEMPAE_clean_linker_10, # of connection points: 2
#     Edge 161, Type (0, 0), BuildingBlock: TEMPAE_clean_linker_10, # of connection points: 2
#     Edge 162, Type (0, 0), BuildingBlock: TEMPAE_clean_linker_10, # of connection points: 2
#     Edge 163, Type (0, 0), BuildingBlock: TEMPAE_clean_linker_10, # of connection points: 2
#     Edge 164, Type (0, 0), BuildingBlock: TEMPAE_clean_linker_10, # of connection points: 2
#     Edge 165, Type (0, 0), BuildingBlock: TEMPAE_clean_linker_10, # of connection points: 2
#     Edge 166, Type (0, 0), BuildingBlock: TEMPAE_clean_linker_10, # of connection points: 2
#     Edge 167, Type (0, 0), BuildingBlock: TEMPAE_clean_linker_10, # of connection points: 2
#     Edge 168, Type (0, 0), BuildingBlock: TEMPAE_clean_linker_10, # of connection points: 2
#     Edge 169, Type (0, 0), BuildingBlock: TEMPAE_clean_linker_10, # of connection points: 2
#     Edge 170, Type (0, 0), BuildingBlock: TEMPAE_clean_linker_10, # of connection points: 2
#     Edge 171, Type (0, 0), BuildingBlock: TEMPAE_clean_linker_10, # of connection points: 2
#     Edge 172, Type (0, 0), BuildingBlock: TEMPAE_clean_linker_10, # of connection points: 2
#     Edge 173, Type (0, 0), BuildingBlock: TEMPAE_clean_linker_10, # of connection points: 2
#     Edge 174, Type (0, 0), BuildingBlock: TEMPAE_clean_linker_10, # of connection points: 2
#     Edge 175, Type (0, 0), BuildingBlock: TEMPAE_clean_linker_10, # of connection points: 2
#     Edge 176, Type (0, 0), BuildingBlock: TEMPAE_clean_linker_10, # of connection points: 2
#     Edge 177, Type (0, 0), BuildingBlock: TEMPAE_clean_linker_10, # of connection points: 2
#     Edge 178, Type (0, 0), BuildingBlock: TEMPAE_clean_linker_10, # of connection points: 2
#     Edge 179, Type (0, 0), BuildingBlock: TEMPAE_clean_linker_10, # of connection points: 2
#     Edge 180, Type (0, 0), BuildingBlock: TEMPAE_clean_linker_10, # of connection points: 2
#     Edge 181, Type (0, 0), BuildingBlock: TEMPAE_clean_linker_10, # of connection points: 2
#     Edge 182, Type (0, 0), BuildingBlock: TEMPAE_clean_linker_10, # of connection points: 2
#     Edge 183, Type (0, 0), BuildingBlock: TEMPAE_clean_linker_10, # of connection points: 2
#     Edge 184, Type (0, 0), BuildingBlock: TEMPAE_clean_linker_10, # of connection points: 2
#     Edge 185, Type (0, 0), BuildingBlock: TEMPAE_clean_linker_10, # of connection points: 2
#     Edge 186, Type (0, 0), BuildingBlock: TEMPAE_clean_linker_10, # of connection points: 2
#     Edge 187, Type (0, 0), BuildingBlock: TEMPAE_clean_linker_10, # of connection points: 2
#     Edge 188, Type (0, 0), BuildingBlock: TEMPAE_clean_linker_10, # of connection points: 2
#     Edge 189, Type (0, 0), BuildingBlock: TEMPAE_clean_linker_10, # of connection points: 2
#     Edge 190, Type (0, 0), BuildingBlock: TEMPAE_clean_linker_10, # of connection points: 2
#     Edge 191, Type (0, 0), BuildingBlock: TEMPAE_clean_linker_10, # of connection points: 2
# Relax obj value: 0.209
# Max RMSD: 0.191
# Mean RMSD: 0.189
data_MOF--net-lcs-e--node1-KUMBOL_clean_sbu_0--edge1-TEMPAE_clean_linker_10
_symmetry_space_group_name_H-M    P1
_symmetry_Int_Tables_number       1
_symmetry_cell_setting            triclinic
loop_
_symmetry_equiv_pos_as_xyz
'x, y, z'
_cell_length_a     67.341151
_cell_length_b     67.264617
_cell_length_c     67.543483
_cell_angle_alpha  89.926838
_cell_angle_beta   90.067118
_cell_angle_gamma 90.403489
loop_
_atom_site_label
_atom_site_type_symbol
_atom_site_fract_x
_atom_site_fract_y
_atom_site_fract_z
_atom_type_partial_charge
Gd0 Gd 0.05585 0.3897 0.26746 0.0
Gd1 Gd 1.01522 0.39466 0.29907 0.0
C2 C 0.97047 0.43049 0.26482 0.0
C3 C 0.96364 0.45759 0.28764 0.0
C4 C 0.98813 0.43259 0.2961 0.0
C5 C 0.98455 0.42291 0.27822 0.0
C6 C 0.97755 0.44991 0.30106 0.0
C7 C 0.96011 0.44792 0.26958 0.0
C8 C 0.96704 0.42014 0.24714 0.0
C9 C 0.97748 0.40265 0.24325 0.0
N10 N 0.99451 0.40588 0.27411 0.0
C11 C 0.99124 0.39562 0.25708 0.0
H12 H 0.9992 0.38199 0.2543 0.0
C13 C 1.00474 0.43309 0.32706 0.0
N14 N 1.00164 0.42486 0.30881 0.0
C15 C 0.99475 0.45037 0.33255 0.0
C16 C 0.98112 0.45886 0.31947 0.0
H17 H 1.01467 0.42611 0.33753 0.0
H18 H 0.9492 0.45395 0.25947 0.0
H19 H 0.10155 0.40686 0.28596 0.0
H20 H 0.95628 0.42544 0.23647 0.0
H21 H 0.97481 0.39452 0.22968 0.0
H22 H 0.95541 0.4709 0.29117 0.0
H23 H 0.0448 0.35789 0.22925 0.0
H24 H 0.13399 0.35504 0.30273 0.0
H25 H 0.13103 0.39115 0.30124 0.0
H26 H 0.10068 0.30294 0.26828 0.0
H27 H 0.99735 0.45696 0.34693 0.0
H28 H 0.9733 0.47218 0.32381 0.0
H29 H 0.12198 0.32184 0.29117 0.0
H30 H 0.05209 0.32307 0.22046 0.0
N31 N 0.08729 0.37908 0.27953 0.0
C32 C 0.12098 0.36158 0.29594 0.0
C33 C 0.11921 0.38216 0.29525 0.0
C34 C 0.10691 0.3498 0.28629 0.0
C35 C 0.09038 0.35912 0.27747 0.0
C36 C 0.10238 0.39083 0.28667 0.0
N37 N 0.06378 0.35798 0.25461 0.0
C38 C 0.0785 0.34836 0.26442 0.0
C39 C 0.05945 0.32994 0.23298 0.0
C40 C 0.07251 0.31894 0.24468 0.0
C41 C 0.05563 0.34976 0.23779 0.0
C42 C 0.08272 0.32829 0.26019 0.0
H43 H 0.07533 0.30354 0.24101 0.0
O44 O 0.04706 0.3953 0.23631 0.0
O45 O 0.03007 0.4125 0.27324 0.0
O46 O 1.0105 0.36041 0.28722 0.0
O47 O 0.03986 0.35696 0.27115 0.0
O48 O 0.05712 0.42412 0.26554 0.0
O49 O 0.07843 0.39306 0.24608 0.0
O50 O 1.00858 0.38598 0.32896 0.0
O51 O 0.04095 0.37689 0.29278 0.0
O52 O 0.06734 0.40835 0.29298 0.0
O53 O 0.03835 0.41708 0.31044 0.0
O54 O 0.03745 0.38653 0.32205 0.0
O55 O 0.9854 0.3839 0.30678 0.0
C56 C 0.03941 0.43009 0.27037 0.0
C57 C 0.09764 0.31852 0.27086 0.0
C58 C 0.10972 0.32927 0.28394 0.0
C59 C 0.06606 0.39559 0.23138 0.0
C60 C 0.07434 0.40542 0.21369 0.0
C61 C 0.06722 0.39967 0.19506 0.0
C62 C 0.09201 0.41685 0.21498 0.0
C63 C 0.10288 0.42182 0.19783 0.0
C64 C 0.07772 0.40477 0.17799 0.0
C65 C 0.09548 0.41552 0.17933 0.0
C66 C 0.02322 0.34785 0.27796 0.0
C67 C 0.04815 0.37624 0.3101 0.0
C68 C 0.9903 0.38109 0.3253 0.0
C69 C 0.97645 0.38608 0.34118 0.0
C70 C 0.9669 0.40448 0.34205 0.0
C71 C 0.97497 0.37282 0.35716 0.0
C72 C 0.96439 0.37797 0.37428 0.0
C73 C 0.95673 0.40994 0.35917 0.0
C74 C 0.95561 0.39689 0.37526 0.0
C75 C 0.05775 0.41866 0.30674 0.0
H76 H 0.0541 0.39033 0.19379 0.0
H77 H 0.09765 0.42121 0.22938 0.0
H78 H 0.07243 0.39979 0.16369 0.0
H79 H 0.10368 0.41843 0.16584 0.0
H80 H 0.96758 0.41471 0.32974 0.0
H81 H 0.98208 0.35844 0.35617 0.0
H82 H 0.94975 0.42435 0.36002 0.0
H83 H 0.94775 0.40157 0.38841 0.0
Gd84 Gd 0.88827 0.80438 0.51627 0.0
Gd85 Gd 0.88355 0.76844 0.55134 0.0
C86 C 0.85157 0.71985 0.51777 0.0
C87 C 0.82376 0.71238 0.53962 0.0
C88 C 0.8471 0.7388 0.54796 0.0
C89 C 0.85781 0.73498 0.53079 0.0
C90 C 0.83007 0.72741 0.55262 0.0
C91 C 0.83446 0.70862 0.52224 0.0
C92 C 0.86286 0.71634 0.50074 0.0
C93 C 0.87995 0.72773 0.49711 0.0
N94 N 0.87441 0.74592 0.52692 0.0
C95 C 0.88563 0.74253 0.51055 0.0
H96 H 0.89894 0.75124 0.50797 0.0
C97 C 0.84388 0.75728 0.57762 0.0
N98 N 0.85347 0.75349 0.56021 0.0
C99 C 0.82692 0.7464 0.58285 0.0
C100 C 0.81996 0.7314 0.57029 0.0
H101 H 0.84945 0.76852 0.58767 0.0
H102 H 0.82945 0.6969 0.51241 0.0
H103 H 0.87518 0.851 0.53747 0.0
H104 H 0.85858 0.70481 0.49036 0.0
H105 H 0.88881 0.72501 0.48405 0.0
H106 H 0.81067 0.70352 0.54292 0.0
H107 H 0.91684 0.78495 0.47962 0.0
H108 H 0.92709 0.88676 0.53684 0.0
H109 H 0.89248 0.88096 0.54708 0.0
H110 H 0.97088 0.85289 0.49354 0.0
H111 H 0.81931 0.74949 0.5966 0.0
H112 H 0.80681 0.72298 0.57439 0.0
H113 H 0.956 0.87625 0.51691 0.0
H114 H 0.94846 0.79278 0.463 0.0
N115 N 0.90048 0.83697 0.52403 0.0
C116 C 0.91977 0.87289 0.53299 0.0
C117 C 0.90027 0.86962 0.53889 0.0
C118 C 0.9292 0.85877 0.52123 0.0
C119 C 0.91914 0.84073 0.51676 0.0
C120 C 0.89063 0.85191 0.53377 0.0
N121 N 0.91819 0.81006 0.49894 0.0
C122 C 0.92793 0.82727 0.50365 0.0
C123 C 0.94293 0.80249 0.47447 0.0
C124 C 0.9539 0.81914 0.48024 0.0
C125 C 0.92487 0.79828 0.48373 0.0
C126 C 0.94638 0.83189 0.49472 0.0
H127 H 0.96796 0.8223 0.47305 0.0
O128 O 0.8819 0.79355 0.48584 0.0
O129 O 0.86528 0.77876 0.52398 0.0
O130 O 0.91864 0.764 0.54162 0.0
O131 O 0.92193 0.79052 0.521 0.0
O132 O 0.85378 0.80531 0.51515 0.0
O133 O 0.88243 0.82566 0.49449 0.0
O134 O 0.88685 0.76188 0.58239 0.0
O135 O 0.90201 0.79325 0.54295 0.0
O136 O 0.8697 0.81833 0.5401 0.0
O137 O 0.8613 0.79219 0.5614 0.0
O138 O 0.89091 0.79392 0.57123 0.0
O139 O 0.89859 0.74139 0.56043 0.0
C140 C 0.84776 0.78784 0.52096 0.0
C141 C 0.95659 0.84931 0.50004 0.0
C142 C 0.9481 0.86261 0.51335 0.0
C143 C 0.88027 0.81241 0.48044 0.0
C144 C 0.87446 0.81994 0.46092 0.0
C145 C 0.88165 0.81129 0.44352 0.0
C146 C 0.86541 0.83867 0.46006 0.0
C147 C 0.86497 0.84952 0.44244 0.0
C148 C 0.8805 0.82175 0.42561 0.0
C149 C 0.87257 0.84095 0.42511 0.0
C150 C 0.93124 0.77528 0.53038 0.0
C151 C 0.90317 0.80246 0.55922 0.0
C152 C 0.89653 0.74558 0.57917 0.0
C153 C 0.89335 0.72953 0.59323 0.0
C154 C 0.87599 0.71794 0.59357 0.0
C155 C 0.90793 0.72692 0.60766 0.0
C156 C 0.90543 0.71267 0.62248 0.0
C157 C 0.87334 0.70372 0.60846 0.0
C158 C 0.88803 0.701 0.62285 0.0
C159 C 0.85932 0.81086 0.55508 0.0
H160 H 0.8891 0.79708 0.44396 0.0
H161 H 0.85999 0.84557 0.4735 0.0
H162 H 0.88642 0.81526 0.41222 0.0
H163 H 0.87236 0.84909 0.41126 0.0
H164 H 0.86456 0.71991 0.58252 0.0
H165 H 0.9213 0.73603 0.60737 0.0
H166 H 0.85988 0.69485 0.60888 0.0
H167 H 0.88576 0.68999 0.63436 0.0
Gd168 Gd 0.51816 0.6406 0.80146 0.0
Gd169 Gd 0.48515 0.64624 0.76262 0.0
C170 C 0.52392 0.67487 0.71571 0.0
C171 C 0.50707 0.70624 0.71002 0.0
C172 C 0.49467 0.68308 0.73488 0.0
C173 C 0.50971 0.66975 0.73019 0.0
C174 C 0.49328 0.70147 0.72485 0.0
C175 C 0.5224 0.69305 0.70555 0.0
C176 C 0.53947 0.66169 0.71206 0.0
C177 C 0.54074 0.64405 0.72291 0.0
N178 N 0.51088 0.65218 0.7402 0.0
C179 C 0.52627 0.63953 0.73709 0.0
H180 H 0.52764 0.62607 0.74562 0.0
C181 C 0.46701 0.69124 0.7548 0.0
N182 N 0.48177 0.67836 0.74956 0.0
C183 C 0.46527 0.70967 0.74547 0.0
C184 C 0.47843 0.71481 0.73039 0.0
H185 H 0.45611 0.68734 0.76587 0.0
H186 H 0.53317 0.69715 0.69433 0.0
H187 H 0.48399 0.64764 0.8411 0.0
H188 H 0.55073 0.66513 0.70111 0.0
H189 H 0.55292 0.63395 0.7204 0.0
H190 H 0.50625 0.7203 0.70222 0.0
H191 H 0.55728 0.61291 0.78576 0.0
H192 H 0.48128 0.59366 0.87292 0.0
H193 H 0.47003 0.62789 0.86715 0.0
H194 H 0.53097 0.55308 0.84422 0.0
H195 H 0.45361 0.71978 0.74977 0.0
H196 H 0.47705 0.72914 0.72318 0.0
H197 H 0.50363 0.56605 0.86414 0.0
H198 H 0.57196 0.58026 0.79316 0.0
N199 N 0.50378 0.62504 0.83 0.0
C200 C 0.48781 0.60232 0.86102 0.0
C201 C 0.48144 0.62162 0.85781 0.0
C202 C 0.50271 0.59447 0.84906 0.0
C203 C 0.51065 0.60621 0.83346 0.0
C204 C 0.48966 0.63286 0.84247 0.0
N205 N 0.53357 0.60952 0.80651 0.0
C206 C 0.52603 0.59851 0.82182 0.0
C207 C 0.55896 0.58513 0.80115 0.0
C208 C 0.55022 0.57281 0.81531 0.0
C209 C 0.55073 0.6037 0.79717 0.0
C210 C 0.53382 0.5795 0.82605 0.0
H211 H 0.55657 0.55833 0.81822 0.0
O212 O 0.54993 0.64646 0.79905 0.0
O213 O 0.51259 0.6629 0.77515 0.0
O214 O 0.4958 0.61201 0.75693 0.0
O215 O 0.51522 0.6086 0.78456 0.0
O216 O 0.52328 0.6748 0.80042 0.0
O217 O 0.53415 0.64656 0.82828 0.0
O218 O 0.45346 0.6505 0.76109 0.0
O219 O 0.4873 0.63607 0.79311 0.0
O220 O 0.49666 0.6616 0.81416 0.0
O221 O 0.47479 0.66701 0.78785 0.0
O222 O 0.4718 0.61792 0.77467 0.0
O223 O 0.46943 0.63926 0.73502 0.0
C224 C 0.51708 0.68071 0.78322 0.0
C225 C 0.52536 0.56781 0.84106 0.0
C226 C 0.50982 0.57522 0.85244 0.0
C227 C 0.55097 0.64801 0.81854 0.0
C228 C 0.56934 0.65292 0.82904 0.0
C229 C 0.58647 0.6419 0.82527 0.0
C230 C 0.56877 0.66593 0.84525 0.0
C231 C 0.58501 0.66747 0.85829 0.0
C232 C 0.60268 0.64332 0.83805 0.0
C233 C 0.6019 0.65573 0.85458 0.0
C234 C 0.50636 0.59965 0.76892 0.0
C235 C 0.47715 0.62035 0.79278 0.0
C236 C 0.45239 0.64352 0.74317 0.0
C237 C 0.434 0.64553 0.73187 0.0
C238 C 0.4266 0.66435 0.72705 0.0
C239 C 0.42252 0.62846 0.72804 0.0
C240 C 0.40356 0.63025 0.71972 0.0
C241 C 0.40784 0.6661 0.71842 0.0
C242 C 0.39629 0.64914 0.71486 0.0
C243 C 0.48156 0.671 0.80602 0.0
H244 H 0.58691 0.63143 0.8131 0.0
H245 H 0.55547 0.67451 0.8478 0.0
H246 H 0.61568 0.63431 0.83548 0.0
H247 H 0.61442 0.65574 0.86463 0.0
H248 H 0.43516 0.67764 0.73021 0.0
H249 H 0.42802 0.6139 0.73215 0.0
H250 H 0.4021 0.68064 0.71476 0.0
H251 H 0.38165 0.65073 0.70839 0.0
Gd252 Gd 0.64189 0.23205 0.01761 0.0
Gd253 Gd 0.64845 0.27106 0.05044 0.0
C254 C 0.6742 0.31526 1.00662 0.0
C255 C 0.70566 0.32397 0.02222 0.0
C256 C 0.68408 0.29896 0.03707 0.0
C257 C 0.67014 0.3017 0.02205 0.0
C258 C 0.70183 0.31027 0.03741 0.0
C259 C 0.69195 0.32638 1.00683 0.0
C260 C 0.66031 0.31722 0.99135 0.0
C261 C 0.64298 0.30569 0.99159 0.0
N262 N 0.6528 0.29106 0.02238 0.0
C263 C 0.63946 0.29255 1.00729 0.0
H264 H 0.62617 0.28364 1.00716 0.0
C265 C 0.69309 0.28306 0.06702 0.0
N266 N 0.68022 0.28545 0.05147 0.0
C267 C 0.7106 0.2942 0.06815 0.0
C268 C 0.7151 0.30776 0.05319 0.0
H269 H 0.69009 0.27239 0.07862 0.0
H270 H 0.69521 0.33696 0.99515 0.0
H271 H 0.64587 0.19406 0.05327 0.0
H272 H 0.66291 0.32746 0.97921 0.0
H273 H 0.6323 0.30694 0.97968 0.0
H274 H 0.7192 0.33279 0.02225 0.0
H275 H 0.61665 0.24934 0.97761 0.0
H276 H 0.59207 0.16119 0.05142 0.0
H277 H 0.62511 0.16746 0.06565 0.0
H278 H 0.55583 0.18904 0.99781 0.0
H279 H 0.72068 0.29217 0.08047 0.0
H280 H 0.72878 0.31628 0.05402 0.0
H281 H 0.56639 0.16953 0.02654 0.0
H282 H 0.58594 0.24073 0.95939 0.0
N283 N 0.62496 0.20425 0.03137 0.0
C284 C 0.60116 0.17319 0.04558 0.0
C285 C 0.61986 0.17663 0.0536 0.0
C286 C 0.59446 0.18506 0.03001 0.0
C287 C 0.6067 0.20079 0.02304 0.0
C288 C 0.63169 0.19207 0.04625 0.0
N289 N 0.61153 0.22819 1.00065 0.0
C290 C 0.60018 0.21251 1.00708 0.0
C291 C 0.58967 0.23289 0.97288 0.0
C292 C 0.57697 0.21818 0.98023 0.0
C293 C 0.60704 0.23768 0.98319 0.0
C294 C 0.58211 0.20779 0.99743 0.0
H295 H 0.56335 0.21475 0.97234 0.0
O296 O 0.64842 0.23196 0.98622 0.0
O297 O 0.66516 0.25634 0.02561 0.0
O298 O 0.61327 0.27576 0.04158 0.0
O299 O 0.61 0.2497 0.01965 0.0
O300 O 0.67491 0.23653 1.00685 0.0
O301 O 0.6483 0.20385 1.00421 0.0
O302 O 0.65453 0.27419 0.08169 0.0
O303 O 0.63789 0.24047 0.04874 0.0
O304 O 0.663 0.21923 0.03939 0.0
O305 O 0.66929 0.24572 0.06112 0.0
O306 O 0.62068 0.2596 0.06491 0.0
O307 O 0.64615 0.30013 0.06392 0.0
C308 C 0.68228 0.2508 0.01749 0.0
C309 C 0.5699 0.19254 1.00483 0.0
C310 C 0.57595 0.18138 0.02116 0.0
C311 C 0.6502 0.21241 0.98675 0.0
C312 C 0.65515 0.2008 0.96917 0.0
C313 C 0.6498 0.20757 0.95025 0.0
C314 C 0.6648 0.18251 0.97129 0.0
C315 C 0.66956 0.17131 0.95457 0.0
C316 C 0.65424 0.19621 0.93357 0.0
C317 C 0.66421 0.17821 0.93568 0.0
C318 C 0.60085 0.26425 0.03019 0.0
C319 C 0.6224 0.24141 0.05913 0.0
C320 C 0.6527 0.29347 0.08087 0.0
C321 C 0.64735 0.30383 0.09868 0.0
C322 C 0.662 0.31498 0.1085 0.0
C323 C 0.62809 0.30269 0.10601 0.0
C324 C 0.62337 0.31319 0.12307 0.0
C325 C 0.65726 0.32536 0.12566 0.0
C326 C 0.63793 0.32456 0.13293 0.0
C327 C 0.67285 0.22734 0.05436 0.0
H328 H 0.64201 0.2215 0.9484 0.0
H329 H 0.66901 0.17716 0.98585 0.0
H330 H 0.65 0.20139 0.919 0.0
H331 H 0.66769 0.1696 0.9226 0.0
H332 H 0.67706 0.31565 0.10287 0.0
H333 H 0.61689 0.29381 0.09849 0.0
H334 H 0.66854 0.33394 0.13332 0.0
H335 H 0.63437 0.33253 0.1464 0.0
Gd336 Gd 0.05362 0.63991 0.26804 0.0
Gd337 Gd 1.01249 0.63301 0.23809 0.0
C338 C 0.96573 0.60601 0.27786 0.0
C339 C 0.95547 0.57682 0.25907 0.0
C340 C 0.98272 0.59763 0.24738 0.0
C341 C 0.98023 0.61035 0.26344 0.0
C342 C 0.97038 0.58071 0.2451 0.0
C343 C 0.95323 0.58934 0.27546 0.0
C344 C 0.96434 0.61846 0.29438 0.0
C345 C 0.97732 0.63467 0.29629 0.0
N346 N 0.99229 0.62659 0.26529 0.0
C347 C 0.99131 0.63858 0.28147 0.0
H348 H 1.00124 0.65116 0.28293 0.0
C349 C 1.00183 0.58814 0.21947 0.0
N350 N 0.99771 0.60134 0.23443 0.0
C351 C 0.98983 0.57139 0.21655 0.0
C352 C 0.97386 0.5678 0.22923 0.0
H353 H 1.01336 0.59125 0.20878 0.0
H354 H 0.94189 0.58589 0.28633 0.0
H355 H 0.0975 0.61501 0.25719 0.0
H356 H 0.95344 0.61557 0.30583 0.0
H357 H 0.97644 0.64424 0.30912 0.0
H358 H 0.94588 0.5639 0.25757 0.0
H359 H 0.0466 0.67831 0.30046 0.0
H360 H 0.13759 0.65862 0.23346 0.0
H361 H 0.12942 0.62364 0.24137 0.0
H362 H 0.10973 0.71979 0.25553 0.0
H363 H 0.99277 0.56138 0.20438 0.0
H364 H 0.96466 0.55472 0.22696 0.0
H365 H 0.12954 0.69478 0.23798 0.0
H366 H 0.05762 0.71333 0.30359 0.0
N367 N 0.08708 0.64492 0.25739 0.0
C368 C 0.12353 0.65499 0.24041 0.0
C369 C 0.11893 0.6352 0.24479 0.0
C370 C 0.1107 0.66996 0.24663 0.0
C371 C 0.0926 0.66438 0.25565 0.0
C372 C 0.10081 0.63041 0.25383 0.0
N373 N 0.06561 0.67224 0.27597 0.0
C374 C 0.08146 0.67854 0.26534 0.0
C375 C 0.06433 0.70378 0.29263 0.0
C376 C 0.07879 0.7113 0.27978 0.0
C377 C 0.05836 0.6839 0.29101 0.0
C378 C 0.08813 0.69844 0.26647 0.0
H379 H 0.08343 0.7267 0.28106 0.0
O380 O 0.03969 0.63509 0.29731 0.0
O381 O 0.02877 0.61552 0.26333 0.0
O382 O 1.00702 0.66715 0.24957 0.0
O383 O 0.03816 0.67212 0.26164 0.0
O384 O 0.05681 0.60564 0.26995 0.0
O385 O 0.07121 0.64227 0.29385 0.0
O386 O 0.99121 0.62515 0.21534 0.0
O387 O 0.03845 0.65153 0.24271 0.0
O388 O 0.06505 0.62122 0.24279 0.0
O389 O 0.03629 0.61301 0.22471 0.0
O390 O 0.034 0.64187 0.21398 0.0
O391 O 0.9948 0.65576 0.22315 0.0
C392 C 0.03908 0.59853 0.26597 0.0
C393 C 0.10474 0.70443 0.2554 0.0
C394 C 0.11602 0.69018 0.24542 0.0
C395 C 0.05699 0.63756 0.30604 0.0
C396 C 0.0635 0.62487 0.32256 0.0
C397 C 0.05409 0.62669 0.34093 0.0
C398 C 0.08206 0.6153 0.32151 0.0
C399 C 0.09203 0.60932 0.33876 0.0
C400 C 0.06336 0.6197 0.35806 0.0
C401 C 0.08232 0.61142 0.35709 0.0
C402 C 0.02067 0.68047 0.25646 0.0
C403 C 0.04509 0.65263 0.22526 0.0
C404 C 0.98805 0.64323 0.2101 0.0
C405 C 0.99237 0.64753 0.18923 0.0
C406 C 1.0078 0.63755 0.1793 0.0
C407 C 0.98064 0.661 0.17883 0.0
C408 C 0.98434 0.66442 0.15875 0.0
C409 C 1.01202 0.64178 0.15955 0.0
C410 C 1.00028 0.65519 0.14922 0.0
C411 C 0.05554 0.61129 0.22869 0.0
H412 H 0.04014 0.63451 0.34217 0.0
H413 H 0.0894 0.61375 0.30732 0.0
H414 H 0.05624 0.6216 0.37229 0.0
H415 H 0.08961 0.60732 0.37078 0.0
H416 H 1.01641 0.62618 0.18661 0.0
H417 H 0.96821 0.66813 0.18607 0.0
H418 H 0.02401 0.63422 0.1521 0.0
H419 H 1.00312 0.65781 0.13364 0.0
Gd420 Gd 0.6385 0.79837 0.51639 0.0
Gd421 Gd 0.64567 0.76163 0.48251 0.0
C422 C 0.66257 0.70792 0.51973 0.0
C423 C 0.69346 0.69781 0.50418 0.0
C424 C 0.67663 0.72778 0.49333 0.0
C425 C 0.66143 0.72423 0.50666 0.0
C426 C 0.69284 0.71464 0.49193 0.0
C427 C 0.67844 0.69454 0.51817 0.0
C428 C 0.64801 0.70584 0.53434 0.0
C429 C 0.63318 0.72015 0.53598 0.0
N430 N 0.64618 0.73737 0.50767 0.0
C431 C 0.6326 0.736 0.52256 0.0
H432 H 0.62146 0.74717 0.52445 0.0
C433 C 0.69165 0.74968 0.47032 0.0
N434 N 0.67608 0.74465 0.48244 0.0
C435 C 0.70774 0.73689 0.46803 0.0
C436 C 0.70823 0.71914 0.4787 0.0
H437 H 0.69168 0.76335 0.46194 0.0
H438 H 0.67944 0.68181 0.52796 0.0
H439 H 0.64632 0.83631 0.47977 0.0
H440 H 0.64842 0.69359 0.54476 0.0
H441 H 0.62223 0.71903 0.54765 0.0
H442 H 0.70576 0.68755 0.50333 0.0
H443 H 0.60852 0.78243 0.55367 0.0
H444 H 0.5975 0.87491 0.48227 0.0
H445 H 0.62974 0.8653 0.46841 0.0
H446 H 0.55542 0.84823 0.53207 0.0
H447 H 0.7198 0.74081 0.45817 0.0
H448 H 0.72086 0.70938 0.47713 0.0
H449 H 0.57 0.86822 0.50545 0.0
H450 H 0.57707 0.79213 0.56925 0.0
N451 N 0.62476 0.82814 0.50223 0.0
C452 C 0.60496 0.86188 0.488 0.0
C453 C 0.62318 0.85657 0.48023 0.0
C454 C 0.59641 0.85022 0.50284 0.0
C455 C 0.60659 0.83314 0.50977 0.0
C456 C 0.63283 0.83973 0.48735 0.0
N457 N 0.60738 0.80483 0.53123 0.0
C458 C 0.59787 0.8214 0.52459 0.0
C459 C 0.58266 0.80038 0.55664 0.0
C460 C 0.5719 0.8162 0.54897 0.0
C461 C 0.60057 0.79505 0.54784 0.0
C462 C 0.57954 0.82711 0.53305 0.0
H463 H 0.55793 0.82021 0.55579 0.0
O464 O 0.64329 0.79199 0.5479 0.0
O465 O 0.66186 0.77316 0.51039 0.0
O466 O 0.61011 0.75631 0.49003 0.0
O467 O 0.60659 0.78122 0.51294 0.0
O468 O 0.67234 0.79811 0.5231 0.0
O469 O 0.64344 0.82294 0.53533 0.0
O470 O 0.65701 0.76311 0.45296 0.0
O471 O 0.63512 0.79199 0.48489 0.0
O472 O 0.66092 0.81278 0.49736 0.0
O473 O 0.66706 0.78752 0.47443 0.0
O474 O 0.61775 0.77317 0.46854 0.0
O475 O 0.64027 0.73705 0.46194 0.0
C476 C 0.67924 0.78153 0.51615 0.0
C477 C 0.56955 0.84383 0.52585 0.0
C478 C 0.5779 0.85527 0.51076 0.0
C479 C 0.64463 0.81138 0.55098 0.0
C480 C 0.64946 0.82048 0.56994 0.0
C481 C 0.63821 0.81584 0.58675 0.0
C482 C 0.6617 0.83734 0.56983 0.0
C483 C 0.66125 0.85093 0.5855 0.0
C484 C 0.63847 0.82868 0.60297 0.0
C485 C 0.64953 0.84634 0.60222 0.0
C486 C 0.59757 0.76703 0.50185 0.0
C487 C 0.61969 0.79134 0.47432 0.0
C488 C 0.64896 0.74646 0.44733 0.0
C489 C 0.63905 0.74714 0.42788 0.0
C490 C 0.64362 0.7626 0.41446 0.0
C491 C 0.62626 0.73174 0.42185 0.0
C492 C 0.61779 0.73221 0.40292 0.0
C493 C 0.63493 0.7631 0.39575 0.0
C494 C 0.62192 0.74805 0.39004 0.0
C495 C 0.6707 0.80545 0.48212 0.0
H496 H 0.62827 0.8031 0.58681 0.0
H497 H 0.67064 0.84041 0.55683 0.0
H498 H 0.6293 0.82546 0.61573 0.0
H499 H 0.64832 0.85661 0.61448 0.0
H500 H 0.65419 0.7742 0.41824 0.0
H501 H 0.62335 0.71918 0.43154 0.0
H502 H 0.63867 0.7749 0.38548 0.0
H503 H 0.61573 0.74828 0.37521 0.0
Gd504 Gd 0.47997 0.39127 0.76642 0.0
Gd505 Gd 0.52287 0.39571 0.73983 0.0
C506 C 0.56034 0.43874 0.77475 0.0
C507 C 0.56525 0.46567 0.75109 0.0
C508 C 0.54475 0.43711 0.74224 0.0
C509 C 0.54806 0.42881 0.76099 0.0
C510 C 0.55342 0.45559 0.73719 0.0
C511 C 0.56886 0.4572 0.76971 0.0
C512 C 0.56353 0.42989 0.79326 0.0
C513 C 0.55474 0.41149 0.79764 0.0
N514 N 0.53964 0.4109 0.76566 0.0
C515 C 0.54284 0.40203 0.78346 0.0
H516 H 0.53631 0.38762 0.78655 0.0
C517 C 0.53247 0.43321 0.70953 0.0
N518 N 0.53392 0.42674 0.72869 0.0
C519 C 0.54018 0.45175 0.7041 0.0
C520 C 0.55051 0.46311 0.71805 0.0
H521 H 0.52536 0.42402 0.69842 0.0
H522 H 0.57821 0.46511 0.78016 0.0
H523 H 0.43656 0.40852 0.74564 0.0
H524 H 0.57282 0.43712 0.80425 0.0
H525 H 0.5573 0.40452 0.81185 0.0
H526 H 0.57197 0.4799 0.74747 0.0
H527 H 0.49585 0.36157 0.8039 0.0
H528 H 0.39564 0.35978 0.7444 0.0
H529 H 0.40421 0.39446 0.7359 0.0
H530 H 0.4271 0.31031 0.78403 0.0
H531 H 0.53854 0.45707 0.68906 0.0
H532 H 0.55679 0.47733 0.7137 0.0
H533 H 0.40457 0.32829 0.76182 0.0
H534 H 0.48677 0.32891 0.81819 0.0
N535 N 0.44732 0.38136 0.75789 0.0
C536 C 0.41006 0.36574 0.74849 0.0
C537 C 0.4149 0.3853 0.74357 0.0
C538 C 0.4235 0.35437 0.75942 0.0
C539 C 0.44212 0.36278 0.76439 0.0
C540 C 0.43348 0.39307 0.74879 0.0
N541 N 0.47214 0.36137 0.78293 0.0
C542 C 0.45483 0.35256 0.77714 0.0
C543 C 0.47777 0.33532 0.80657 0.0
C544 C 0.46125 0.32501 0.79928 0.0
C545 C 0.48272 0.35389 0.79863 0.0
C546 C 0.44921 0.33384 0.78487 0.0
H547 H 0.45747 0.3106 0.80547 0.0
O548 O 0.48822 0.39824 0.79762 0.0
O549 O 0.50592 0.41458 0.7632 0.0
O550 O 0.52571 0.36219 0.75423 0.0
O551 O 0.49319 0.35758 0.76219 0.0
O552 O 0.47748 0.42541 0.76233 0.0
O553 O 0.45724 0.39911 0.78611 0.0
O554 O 0.53576 0.3812 0.71474 0.0
O555 O 0.49674 0.37722 0.74254 0.0
O556 O 0.4702 0.40465 0.73799 0.0
O557 O 0.50009 0.41475 0.72305 0.0
O558 O 0.50566 0.38485 0.7138 0.0
O559 O 0.55516 0.39169 0.73785 0.0
C560 C 0.49582 0.43169 0.76186 0.0
C561 C 0.43143 0.32487 0.77858 0.0
C562 C 0.41859 0.33512 0.76594 0.0
C563 C 0.46914 0.40116 0.80125 0.0
C564 C 0.46008 0.40767 0.82003 0.0
C565 C 0.46964 0.40472 0.83821 0.0
C566 C 0.44055 0.41527 0.81982 0.0
C567 C 0.43074 0.4199 0.83747 0.0
C568 C 0.45986 0.40929 0.85589 0.0
C569 C 0.44056 0.41691 0.85555 0.0
C570 C 0.51118 0.34899 0.75949 0.0
C571 C 0.49308 0.37449 0.7241 0.0
C572 C 0.55393 0.38395 0.72026 0.0
C573 C 0.56669 0.39127 0.70428 0.0
C574 C 0.57534 0.41032 0.70425 0.0
C575 C 0.56803 0.37936 0.68739 0.0
C576 C 0.57737 0.38644 0.67038 0.0
C577 C 0.58475 0.41746 0.68716 0.0
C578 C 0.58576 0.40556 0.67021 0.0
C579 C 0.48034 0.41415 0.72407 0.0
H580 H 0.48442 0.39848 0.83877 0.0
H581 H 0.43285 0.41766 0.80591 0.0
H582 H 0.4672 0.4068 0.86993 0.0
H583 H 0.43323 0.42034 0.86939 0.0
H584 H 0.57447 0.41979 0.71714 0.0
H585 H 0.56138 0.3646 0.68732 0.0
H586 H 0.59115 0.43226 0.68702 0.0
H587 H 0.59312 0.41118 0.65707 0.0
Gd588 Gd 0.89098 0.27105 0.98596 0.0
Gd589 Gd 0.89759 0.23672 0.02418 0.0
C590 C 0.92771 0.28064 0.06516 0.0
C591 C 0.9601 0.2655 0.06991 0.0
C592 C 0.93565 0.2498 0.0484 0.0
C593 C 0.9221 0.26492 0.05252 0.0
C594 C 0.95466 0.2499 0.05725 0.0
C595 C 0.94671 0.28083 0.07382 0.0
C596 C 0.9141 0.29586 0.06862 0.0
C597 C 0.89549 0.29529 0.05943 0.0
N598 N 0.90374 0.26453 0.04387 0.0
C599 C 0.89053 0.27943 0.04696 0.0
H600 H 0.87624 0.27922 0.03982 0.0
C601 C 0.94282 0.21955 0.03201 0.0
N602 N 0.93035 0.23514 0.03563 0.0
C603 C 0.96162 0.21891 0.04069 0.0
C604 C 0.96767 0.23426 0.0532 0.0
H605 H 0.93845 0.2075 0.02236 0.0
H606 H 0.95121 0.2928 0.08358 0.0
H607 H 0.89226 0.23614 0.94788 0.0
H608 H 0.91786 0.30819 0.07825 0.0
H609 H 0.88498 0.30711 0.06194 0.0
H610 H 0.97467 0.26586 0.07674 0.0
H611 H 0.86728 0.31014 1.00675 0.0
H612 H 0.83927 0.24283 0.91472 0.0
H613 H 0.87142 0.22647 0.9203 0.0
H614 H 0.80525 0.29586 0.94626 0.0
H615 H 0.97148 0.20666 0.03757 0.0
H616 H 0.98237 0.23385 0.05972 0.0
H617 H 0.81474 0.26826 0.92469 0.0
H618 H 0.83662 0.32941 1.00043 0.0
N619 N 0.87258 0.25859 0.95885 0.0
C620 C 0.84848 0.24742 0.92709 0.0
C621 C 0.86664 0.2382 0.93013 0.0
C622 C 0.84241 0.2625 0.93992 0.0
C623 C 0.85484 0.26793 0.95599 0.0
C624 C 0.87857 0.24398 0.94603 0.0
N625 N 0.86095 0.28866 0.98442 0.0
C626 C 0.84908 0.28341 0.96871 0.0
C627 C 0.83986 0.3164 0.99164 0.0
C628 C 0.82686 0.31047 0.97658 0.0
C629 C 0.85709 0.30547 0.99525 0.0
C630 C 0.83137 0.29391 0.9649 0.0
H631 H 0.81351 0.31896 0.9739 0.0
O632 O 0.89757 0.30243 0.98152 0.0
O633 O 0.91385 0.26194 1.00963 0.0
O634 O 0.86272 0.24561 0.02918 0.0
O635 O 0.85936 0.26814 1.00363 0.0
O636 O 0.92277 0.28421 0.99344 0.0
O637 O 0.90076 0.28081 0.95723 0.0
O638 O 0.90278 0.20545 0.02912 0.0
O639 O 0.88674 0.23926 0.99376 0.0
O640 O 0.91101 0.24865 0.97294 0.0
O641 O 0.91774 0.22617 0.99844 0.0
O642 O 0.86983 0.22234 1.01259 0.0
O643 O 0.89511 0.22497 0.05397 0.0
C644 C 0.93058 0.27149 1.00548 0.0
C645 C 0.81898 0.28808 0.9492 0.0
C646 C 0.82441 0.27238 0.93687 0.0
C647 C 0.90182 0.2995 0.9627 0.0
C648 C 0.89482 0.31392 0.94793 0.0
C649 C 0.87538 0.3211 0.94766 0.0
C650 C 0.90779 0.31923 0.93264 0.0
C651 C 0.90112 0.33043 0.91633 0.0
C652 C 0.86846 0.33203 0.93159 0.0
C653 C 0.88108 0.33634 0.91581 0.0
C654 C 0.85039 0.25719 0.01801 0.0
C655 C 0.8714 0.22834 0.99447 0.0
C656 C 0.90094 0.2074 0.04826 0.0
C657 C 0.89541 0.19019 0.05993 0.0
C658 C 0.90757 0.18514 0.07601 0.0
C659 C 0.87894 0.17844 0.05502 0.0
C660 C 0.8747 0.16164 0.06644 0.0
C661 C 0.90327 0.16836 0.08734 0.0
C662 C 0.88685 0.15662 0.0826 0.0
C663 C 0.92099 0.2335 0.98026 0.0
H664 H 0.86544 0.31828 0.95962 0.0
H665 H 0.92308 0.31445 0.9336 0.0
H666 H 0.85321 0.337 0.93127 0.0
H667 H 0.875 0.34423 0.90325 0.0
H668 H 0.92049 0.19412 0.07969 0.0
H669 H 0.86967 0.18221 0.04244 0.0
H670 H 0.9127 0.1644 0.09969 0.0
H671 H 0.88368 0.1435 0.09141 0.0
Gd672 Gd 0.26491 0.05469 0.39016 0.0
Gd673 Gd 0.29628 1.0155 0.3986 0.0
C674 C 0.25064 0.97467 0.42673 0.0
C675 C 0.2636 0.97076 0.46013 0.0
C676 C 0.28082 0.99206 0.43649 0.0
C677 C 0.26661 0.9875 0.42206 0.0
C678 C 0.27936 0.98372 0.45565 0.0
C679 C 0.2493 0.96626 0.44574 0.0
C680 C 0.23631 0.9708 0.41218 0.0
C681 C 0.23792 0.97986 0.39362 0.0
N682 N 0.26802 0.99599 0.40373 0.0
C683 C 0.25396 0.99256 0.38963 0.0
H684 H 0.25497 0.99964 0.37534 0.0
C685 C 0.30968 1.01015 0.44598 0.0
N686 N 0.29577 1.00497 0.43197 0.0
C687 C 0.30896 1.00194 0.46496 0.0
C688 C 0.29371 0.98873 0.46985 0.0
H689 H 0.3219 0.01996 0.44237 0.0
H690 H 0.23714 0.95633 0.44953 0.0
H691 H 0.27562 0.10075 0.41239 0.0
H692 H 0.22384 0.961 0.4152 0.0
H693 H 0.22679 0.97707 0.38238 0.0
H694 H 0.26226 0.96425 0.47476 0.0
H695 H 0.23102 0.04362 0.35457 0.0
H696 H 0.29509 0.13943 0.36592 0.0
H697 H 0.28957 0.13286 0.40105 0.0
H698 H 0.26689 0.10955 0.30873 0.0
H699 H 0.32013 1.00589 0.47584 0.0
H700 H 0.29311 0.98253 0.48465 0.0
H701 H 0.2872 0.13017 0.33101 0.0
H702 H 0.22209 0.05514 0.32096 0.0
N703 N 0.27428 0.08842 0.38322 0.0
C704 C 0.28909 0.12517 0.37054 0.0
C705 C 0.28614 0.12139 0.39056 0.0
C706 C 0.28205 0.11148 0.35671 0.0
C707 C 0.27423 0.09318 0.36357 0.0
C708 C 0.27816 0.10315 0.39675 0.0
N709 N 0.25442 0.06483 0.35821 0.0
C710 C 0.26343 0.08127 0.35075 0.0
C711 C 0.2339 0.06248 0.32907 0.0
C712 C 0.24458 0.07806 0.32037 0.0
C713 C 0.23887 0.05613 0.34815 0.0
C714 C 0.2594 0.08782 0.33128 0.0
H715 H 0.24084 0.08285 0.30551 0.0
O716 O 0.23637 0.03943 0.39597 0.0
O717 O 0.26992 0.03017 0.41418 0.0
O718 O 0.28824 1.0098 0.36313 0.0
O719 O 0.2716 0.03878 0.35774 0.0
O720 O 0.26399 0.05799 0.4248 0.0
O721 O 0.23827 0.07109 0.38872 0.0
O722 O 0.31712 0.99461 0.41115 0.0
O723 O 0.29086 0.04023 0.37921 0.0
O724 O 0.28937 0.06848 0.40866 0.0
O725 O 0.30987 0.04158 0.4169 0.0
O726 O 0.31993 0.03737 0.38895 0.0
O727 O 0.31279 0.99509 0.37975 0.0
C728 C 0.2678 0.04001 0.43122 0.0
C729 C 0.2692 0.10472 0.32387 0.0
C730 C 0.28077 0.11644 0.33655 0.0
C731 C 0.22685 0.05629 0.39395 0.0
C732 C 0.211 0.06211 0.40762 0.0
C733 C 0.19193 0.05429 0.40464 0.0
C734 C 0.21342 0.0795 0.41901 0.0
C735 C 0.19688 0.0905 0.42515 0.0
C736 C 0.17542 0.06426 0.41202 0.0
C737 C 0.17778 0.08247 0.42173 0.0
C738 C 0.27964 0.02217 0.34946 0.0
C739 C 0.30811 0.04755 0.37787 0.0
C740 C 0.32465 0.99047 0.39422 0.0
C741 C 0.34537 0.99654 0.39198 0.0
C742 C 0.35327 1.01265 0.40292 0.0
C743 C 0.3568 0.98762 0.37752 0.0
C744 C 0.37586 0.99483 0.37372 0.0
C745 C 0.37221 0.02003 0.39881 0.0
C746 C 0.38355 1.01118 0.38409 0.0
C747 C 0.30464 0.06072 0.41827 0.0
H748 H 0.18972 0.04125 0.39547 0.0
H749 H 0.22825 0.08539 0.42145 0.0
H750 H 0.16066 0.05849 0.40914 0.0
H751 H 0.16456 0.09056 0.42577 0.0
H752 H 0.34468 0.01989 0.4143 0.0
H753 H 0.35086 0.97516 0.36914 0.0
H754 H 0.37809 0.03256 0.40703 0.0
H755 H 0.39842 0.01668 0.38116 0.0
Gd756 Gd 0.22591 0.01766 0.64038 0.0
Gd757 Gd 0.26824 0.04615 0.64527 0.0
C758 C 0.30625 1.0124 0.68851 0.0
C759 C 0.31347 0.03771 0.71328 0.0
C760 C 0.29229 0.04545 0.68518 0.0
C761 C 0.29445 0.02608 0.67808 0.0
C762 C 0.30208 0.05149 0.70267 0.0
C763 C 0.31554 0.01824 0.70624 0.0
C764 C 0.30869 0.99333 0.68057 0.0
C765 C 0.29971 0.98841 0.66251 0.0
N766 N 0.28552 0.0208 0.66074 0.0
C767 C 0.2882 1.00252 0.65259 0.0
H768 H 0.28138 0.99895 0.63852 0.0
C769 C 0.28003 0.07806 0.68014 0.0
N770 N 0.28111 0.05854 0.67475 0.0
C771 C 0.28931 0.08465 0.69747 0.0
C772 C 0.30028 0.07129 0.70885 0.0
H773 H 0.27205 0.08852 0.67098 0.0
H774 H 0.32462 1.00788 0.71449 0.0
H775 H 0.18175 0.03562 0.65931 0.0
H776 H 0.31771 0.9824 0.68812 0.0
H777 H 0.30177 0.9738 0.65617 0.0
H778 H 0.32095 0.04204 0.72684 0.0
H779 H 0.23713 0.98016 0.60821 0.0
H780 H 0.14564 0.05097 0.60941 0.0
H781 H 0.15144 0.05114 0.64522 0.0
H782 H 0.17586 1.01538 0.55645 0.0
H783 H 0.28819 0.10006 0.7019 0.0
H784 H 0.30754 0.07647 0.72223 0.0
H785 H 0.1552 0.03805 0.57602 0.0
H786 H 0.22819 0.97061 0.57404 0.0
N787 N 0.1938 0.02858 0.63107 0.0
C788 C 0.15903 0.04436 0.61532 0.0
C789 C 0.16232 0.04444 0.63569 0.0
C790 C 0.17224 0.03435 0.60302 0.0
C791 C 0.18947 0.02605 0.6115 0.0
C792 C 0.17961 0.03594 0.64347 0.0
N793 N 0.21663 1.00421 0.60932 0.0
C794 C 0.201 1.0132 0.6004 0.0
C795 C 0.22055 0.98271 0.58123 0.0
C796 C 0.20613 0.99346 0.57098 0.0
C797 C 0.22532 0.98794 0.6007 0.0
C798 C 0.19574 1.00852 0.58072 0.0
H799 H 0.20255 0.98946 0.55585 0.0
O800 O 0.23648 0.98674 0.64505 0.0
O801 O 0.25195 0.02148 0.66324 0.0
O802 O 0.27151 0.03346 0.61125 0.0
O803 O 0.23981 0.02279 0.60689 0.0
O804 O 0.22402 0.01773 0.67479 0.0
O805 O 0.20465 0.99547 0.64634 0.0
O806 O 0.28026 0.07259 0.63228 0.0
O807 O 0.242 0.0423 0.62773 0.0
O808 O 0.21591 0.04441 0.65807 0.0
O809 O 0.24588 0.06062 0.6667 0.0
O810 O 0.24892 0.07155 0.63619 0.0
O811 O 0.29976 0.04755 0.63742 0.0
C812 C 0.2423 0.02049 0.68068 0.0
C813 C 0.17981 0.01838 0.57172 0.0
C814 C 0.16808 0.03132 0.58286 0.0
C815 C 0.21779 0.98132 0.64781 0.0
C816 C 0.21041 0.96156 0.65376 0.0
C817 C 0.22003 0.94416 0.64782 0.0
C818 C 0.19179 0.96017 0.66315 0.0
C819 C 0.18228 0.94179 0.66549 0.0
C820 C 0.21077 0.92566 0.65066 0.0
C821 C 0.19184 0.92447 0.65918 0.0
C822 C 0.25743 0.02721 0.59812 0.0
C823 C 0.23663 0.06034 0.62651 0.0
C824 C 0.2983 0.06599 0.63161 0.0
C825 C 0.31298 0.08071 0.63788 0.0
C826 C 0.3235 0.07952 0.65579 0.0
C827 C 0.31412 0.09797 0.62647 0.0
C828 C 0.32496 0.11431 0.63306 0.0
C829 C 0.33463 0.09591 0.66235 0.0
C830 C 0.33531 0.11337 0.65104 0.0
C831 C 0.2262 0.05812 0.66804 0.0
H832 H 0.23423 0.94492 0.64033 0.0
H833 H 0.18412 0.97349 0.66781 0.0
H834 H 0.21806 0.91225 0.64577 0.0
H835 H 0.18464 0.91011 0.6608 0.0
H836 H 0.32275 0.06627 0.66484 0.0
H837 H 0.30596 0.09894 0.61261 0.0
H838 H 0.34253 0.09515 0.67628 0.0
H839 H 0.34388 0.12602 0.65622 0.0
Gd840 Gd 0.2707 0.97993 0.88903 0.0
Gd841 Gd 0.23527 1.01438 0.89733 0.0
C842 C 0.27054 0.06371 0.92615 0.0
C843 C 0.25304 0.06797 0.95736 0.0
C844 C 0.24302 0.04181 0.93454 0.0
C845 C 0.25777 0.04777 0.92134 0.0
C846 C 0.24065 0.05175 0.95277 0.0
C847 C 0.26798 0.07388 0.94412 0.0
C848 C 0.28556 0.0689 0.91273 0.0
C849 C 0.28754 0.05826 0.89506 0.0
N850 N 0.25989 0.03773 0.90401 0.0
C851 C 0.27438 0.04263 0.89085 0.0
H852 H 0.27566 0.03458 0.87709 0.0
C853 C 0.21707 0.01929 0.94261 0.0
N854 N 0.23138 0.02599 0.9298 0.0
C855 C 0.2146 0.02831 0.96106 0.0
C856 C 0.22633 0.04471 0.96612 0.0
H857 H 0.20694 1.0075 0.93847 0.0
H858 H 0.27761 0.08625 0.94802 0.0
H859 H 0.2344 0.93987 0.89683 0.0
H860 H 0.2957 0.08106 0.91588 0.0
H861 H 0.29908 0.06221 0.88461 0.0
H862 H 0.25145 0.07578 0.97128 0.0
H863 H 0.30583 0.99715 0.85822 0.0
H864 H 0.24379 0.89722 0.85278 0.0
H865 H 0.22698 0.90856 0.88286 0.0
H866 H 0.292 0.92548 0.80997 0.0
H867 H 0.20331 0.0229 0.97116 0.0
H868 H 0.22426 0.05178 0.98037 0.0
H869 H 0.26718 0.90395 0.82564 0.0
H870 H 0.3226 0.98714 0.82741 0.0
N871 N 0.25885 0.94771 0.87719 0.0
C872 C 0.24811 0.91128 0.85939 0.0
C873 C 0.23872 0.91755 0.87642 0.0
C874 C 0.26234 0.92352 0.8506 0.0
C875 C 0.2675 0.9419 0.85971 0.0
C876 C 0.24384 0.93579 0.88484 0.0
N877 N 0.28633 0.97204 0.8588 0.0
C878 C 0.28128 0.95437 0.8503 0.0
C879 C 0.31098 0.97785 0.83361 0.0
C880 C 0.30526 0.96038 0.82411 0.0
C881 C 0.30149 0.98342 0.85106 0.0
C882 C 0.2905 0.94831 0.83248 0.0
H883 H 0.3126 0.95616 0.8105 0.0
O884 O 0.29992 0.99319 0.8964 0.0
O885 O 0.26358 1.00425 0.9132 0.0
O886 O 0.24165 0.01985 0.86147 0.0
O887 O 0.26552 0.9965 0.85677 0.0
O888 O 0.27366 0.97782 0.92358 0.0
O889 O 0.2961 0.96182 0.88828 0.0
O890 O 0.20414 0.02003 0.9003 0.0
O891 O 0.24315 0.99123 0.87701 0.0
O892 O 0.25133 0.96414 0.91077 0.0
O893 O 0.22704 0.9881 0.91725 0.0
O894 O 0.21577 0.98844 0.88997 0.0
O895 O 0.22306 0.04197 0.88551 0.0
C896 C 0.26784 0.99506 0.93034 0.0
C897 C 0.28518 0.93021 0.82369 0.0
C898 C 0.27114 0.9179 0.83268 0.0
C899 C 0.30818 0.97553 0.89483 0.0
C900 C 0.32212 0.96794 0.90982 0.0
C901 C 0.34119 0.97623 0.91125 0.0
C902 C 0.31832 0.94916 0.91842 0.0
C903 C 0.33379 0.93774 0.92616 0.0
C904 C 0.35639 0.96558 0.92046 0.0
C905 C 0.35287 0.9463 0.92749 0.0
C906 C 0.25385 1.01056 0.8482 0.0
C907 C 0.22697 0.98158 0.87613 0.0
C908 C 0.20524 0.03708 0.89136 0.0
C909 C 0.19136 0.05222 0.89772 0.0
C910 C 0.18714 0.05606 0.91768 0.0
C911 C 0.17877 0.05917 0.88307 0.0
C912 C 0.16076 0.06795 0.88802 0.0
C913 C 0.16984 0.06627 0.92274 0.0
C914 C 0.15643 0.07192 0.90796 0.0
C915 C 0.23504 0.97027 0.91991 0.0
H916 H 0.34458 0.99037 0.9043 0.0
H917 H 0.30373 0.9424 0.91704 0.0
H918 H 0.37121 0.97188 0.92123 0.0
H919 H 0.36513 0.93794 0.93361 0.0
H920 H 0.19668 0.05065 0.92928 0.0
H921 H 0.18219 0.05605 0.86767 0.0
H922 H 0.16636 0.06894 0.93815 0.0
H923 H 0.14247 0.07863 0.91213 0.0
Gd924 Gd 0.3028 1.01563 0.13916 0.0
Gd925 Gd 0.26303 0.98452 0.14628 0.0
C926 C 0.21719 0.02563 0.17186 0.0
C927 C 0.20763 1.00808 0.20197 0.0
C928 C 0.23457 0.9957 0.18158 0.0
C929 C 0.23159 1.01106 0.16804 0.0
C930 C 0.22263 0.99411 0.19868 0.0
C931 C 0.20506 0.02391 0.18872 0.0
C932 C 0.21553 0.04164 0.1587 0.0
C933 C 0.22813 0.04286 0.14228 0.0
N934 N 0.24321 1.01216 0.15156 0.0
C935 C 0.24196 0.02782 0.13885 0.0
H936 H 0.25157 0.02871 0.1261 0.0
C937 C 0.25447 0.96883 0.19246 0.0
N938 N 0.24965 0.98281 0.17843 0.0
C939 C 0.24296 0.96666 0.20951 0.0
C940 C 0.22672 0.97906 0.21244 0.0
H941 H 0.2661 0.95819 0.18987 0.0
H942 H 0.19377 0.03488 0.19178 0.0
H943 H 0.34943 1.00156 0.15749 0.0
H944 H 0.20474 0.05323 0.1612 0.0
H945 H 0.22707 0.0553 0.13218 0.0
H946 H 0.19835 1.00712 0.21503 0.0
H947 H 0.28919 0.05112 0.10581 0.0
H948 H 0.38392 0.98516 0.10706 0.0
H949 H 0.38039 0.98877 0.14299 0.0
H950 H 0.34998 1.01605 0.05361 0.0
H951 H 0.24638 0.95517 0.22018 0.0
H952 H 0.21781 0.9773 0.22568 0.0
H953 H 0.37195 0.99479 0.07338 0.0
H954 H 0.29706 0.06005 0.07113 0.0
N955 N 0.33525 1.00565 0.12944 0.0
C956 C 0.37027 0.99103 0.11311 0.0
C957 C 0.36814 0.99268 0.13355 0.0
C958 C 0.35582 0.99918 0.1008 0.0
C959 C 0.33855 1.00711 0.10951 0.0
C960 C 0.35055 1.00014 0.14159 0.0
N961 N 0.31042 0.02775 0.10712 0.0
C962 C 0.3261 0.01895 0.09816 0.0
C963 C 0.30522 0.04836 0.0785 0.0
C964 C 0.31978 0.03784 0.0683 0.0
C965 C 0.30099 0.04347 0.09817 0.0
C966 C 0.33077 0.02329 0.07824 0.0
H967 H 0.3229 0.04153 0.05299 0.0
O968 O 0.29027 0.04501 0.14645 0.0
O969 O 0.27819 1.01062 0.16362 0.0
O970 O 0.25727 0.9943 0.11144 0.0
O971 O 0.28729 1.00906 0.10683 0.0
O972 O 0.30651 0.0165 0.17346 0.0
O973 O 0.32108 0.04109 0.13692 0.0
O974 O 0.2422 0.96204 0.15615 0.0
O975 O 0.28841 0.98967 0.12771 0.0
O976 O 0.31584 0.99119 0.15794 0.0
O977 O 0.28795 0.97134 0.16564 0.0
O978 O 0.28479 0.96061 0.1377 0.0
O979 O 0.24383 0.96877 0.12523 0.0
C980 C 0.28871 1.01284 0.18056 0.0
C981 C 0.34661 1.01349 0.0691 0.0
C982 C 0.35906 1.00132 0.08035 0.0
C983 C 0.30785 0.05329 0.14382 0.0
C984 C 0.31627 0.06755 0.15808 0.0
C985 C 0.30886 0.08694 0.15865 0.0
C986 C 0.33514 0.06366 0.16629 0.0
C987 C 0.34753 0.07927 0.1723 0.0
C988 C 0.32055 0.10237 0.16635 0.0
C989 C 0.33998 0.09869 0.17263 0.0
C990 C 0.27037 1.0023 0.09818 0.0
C991 C 0.29528 0.97227 0.12664 0.0
C992 C 0.23777 0.95619 0.13858 0.0
C993 C 0.24156 0.93509 0.13493 0.0
C994 C 0.25707 0.92524 0.14492 0.0
C995 C 0.22952 0.92455 0.12177 0.0
C996 C 0.23304 0.90437 0.11849 0.0
C997 C 0.26072 0.9052 0.14132 0.0
C998 C 0.24873 0.89473 0.12809 0.0
C999 C 0.30709 0.9763 0.16764 0.0
H1000 H 0.29463 0.09036 0.15201 0.0
H1001 H 0.34122 0.04878 0.16566 0.0
H1002 H 0.31495 0.11742 0.16636 0.0
H1003 H 0.34925 0.11103 0.17736 0.0
H1004 H 0.26627 0.93292 0.15564 0.0
H1005 H 0.21733 0.9319 0.11431 0.0
H1006 H 0.27267 0.89773 0.14899 0.0
H1007 H 0.2514 0.87906 0.12563 0.0
Gd1008 Gd 0.38996 0.30286 0.02026 0.0
Gd1009 Gd 0.38356 0.26418 0.05193 0.0
C1010 C 0.36432 0.21191 1.01379 0.0
C1011 C 0.33267 0.20295 0.02881 0.0
C1012 C 0.35071 0.23238 0.03978 0.0
C1013 C 0.36599 0.22823 0.02677 0.0
C1014 C 0.3338 0.21989 0.04086 0.0
C1015 C 0.34782 0.19905 1.01519 0.0
C1016 C 0.37897 0.20936 0.99939 0.0
C1017 C 0.39438 0.22329 0.9978 0.0
N1018 N 0.38184 0.24089 0.02594 0.0
C1019 C 0.39548 0.23917 1.01114 0.0
H1020 H 0.40715 0.25 1.00934 0.0
C1021 C 0.33612 0.25527 0.06182 0.0
N1022 N 0.35186 0.24932 0.05048 0.0
C1023 C 0.31924 0.24321 0.06369 0.0
C1024 C 0.31821 0.22524 0.05344 0.0
H1025 H 0.33668 0.26902 0.07003 0.0
H1026 H 0.34642 0.18629 1.00551 0.0
H1027 H 0.3799 0.34535 0.05148 0.0
H1028 H 0.37819 0.19708 0.98905 0.0
H1029 H 0.4054 0.22181 0.98626 0.0
H1030 H 0.31983 0.19316 0.02946 0.0
H1031 H 0.41923 0.28786 0.98242 0.0
H1032 H 0.43307 0.37821 0.0557 0.0
H1033 H 0.3989 0.37139 0.06625 0.0
H1034 H 0.47462 0.35187 1.00568 0.0
H1035 H 0.30703 0.24781 0.07299 0.0
H1036 H 0.30501 0.21603 0.05473 0.0
H1037 H 0.46093 0.37096 0.03325 0.0
H1038 H 0.45064 0.29773 0.96658 0.0
N1039 N 0.40352 0.33366 0.03315 0.0
C1040 C 0.42497 0.36585 0.04921 0.0
C1041 C 0.40567 0.36204 0.05516 0.0
C1042 C 0.43337 0.35417 0.03449 0.0
C1043 C 0.4224 0.33784 0.02673 0.0
C1044 C 0.39498 0.34637 0.04668 0.0
N1045 N 0.42085 0.31007 1.00498 0.0
C1046 C 0.43085 0.32631 1.01185 0.0
C1047 C 0.44534 0.30579 0.97935 0.0
C1048 C 0.45648 0.32144 0.98713 0.0
C1049 C 0.42743 0.30039 0.9883 0.0
C1050 C 0.44935 0.3319 1.0035 0.0
H1051 H 0.47052 0.32541 0.98032 0.0
O1052 O 0.38331 0.29181 0.99028 0.0
O1053 O 0.36601 0.27749 0.02526 0.0
O1054 O 0.41863 0.25843 0.04269 0.0
O1055 O 0.42227 0.2863 0.02347 0.0
O1056 O 0.35563 0.3052 0.01817 0.0
O1057 O 0.38728 0.3239 0.99741 0.0
O1058 O 0.37099 0.26196 0.08096 0.0
O1059 O 0.39546 0.29389 0.05036 0.0
O1060 O 0.3687 0.31637 0.04186 0.0
O1061 O 0.3659 0.29068 0.06503 0.0
O1062 O 0.41181 0.27484 0.06688 0.0
O1063 O 0.39009 0.23849 0.07066 0.0
C1064 C 0.34881 0.28742 0.02234 0.0
C1065 C 0.4602 0.34777 1.01157 0.0
C1066 C 0.45238 0.35866 0.02723 0.0
C1067 C 0.38379 0.31036 0.9838 0.0
C1068 C 0.37235 0.31711 0.96671 0.0
C1069 C 0.37649 0.30925 0.94797 0.0
C1070 C 0.36196 0.335 0.96824 0.0
C1071 C 0.35782 0.34622 0.95137 0.0
C1072 C 0.37091 0.31966 0.93094 0.0
C1073 C 0.36195 0.33827 0.93259 0.0
C1074 C 0.4313 0.27059 0.03227 0.0
C1075 C 0.41093 0.29299 0.06078 0.0
C1076 C 0.38069 0.24612 0.08575 0.0
C1077 C 0.39123 0.24743 0.1048 0.0
C1078 C 0.38869 0.264 0.11735 0.0
C1079 C 0.40367 0.23199 0.11078 0.0
C1080 C 0.41391 0.2334 0.12871 0.0
C1081 C 0.39908 0.2654 0.13514 0.0
C1082 C 0.41178 0.25019 0.14079 0.0
C1083 C 0.3615 0.3089 0.05858 0.0
H1084 H 0.38507 0.29576 0.94651 0.0
H1085 H 0.35875 0.34117 0.98271 0.0
H1086 H 0.37455 0.31381 0.91647 0.0
H1087 H 0.35901 0.34676 0.91928 0.0
H1088 H 0.37863 0.27589 0.11353 0.0
H1089 H 0.40527 0.21885 0.10165 0.0
H1090 H 0.39707 0.27814 0.14468 0.0
H1091 H 0.41946 0.25119 0.15487 0.0
Gd1092 Gd 0.97965 0.88896 0.26627 0.0
Gd1093 Gd 0.02214 0.89516 0.23862 0.0
C1094 C 0.05894 0.94053 0.27149 0.0
C1095 C 0.06546 0.96509 0.24574 0.0
C1096 C 0.04523 0.93593 0.2385 0.0
C1097 C 0.04752 0.92933 0.25799 0.0
C1098 C 0.0545 0.95368 0.23215 0.0
C1099 C 0.06766 0.95855 0.26533 0.0
C1100 C 0.06158 0.93306 0.29068 0.0
C1101 C 0.0532 0.91469 0.29591 0.0
N1102 N 0.03914 0.9117 0.26357 0.0
C1103 C 0.04206 0.90401 0.28198 0.0
H1104 H 0.03571 0.88969 0.2858 0.0
C1105 C 0.03338 0.92956 0.206 0.0
N1106 N 0.03452 0.9247 0.2256 0.0
C1107 C 0.0422 0.94709 0.19907 0.0
C1108 C 0.05271 0.95927 0.21222 0.0
H1109 H 0.02565 0.91984 0.19578 0.0
H1110 H 0.07643 0.9674 0.27554 0.0
H1111 H 0.93679 0.91435 0.25353 0.0
H1112 H 0.07032 0.94121 0.30148 0.0
H1113 H 0.05544 0.90871 0.31062 0.0
H1114 H 0.07254 0.97886 0.24117 0.0
H1115 H 0.98633 0.85132 0.29969 0.0
H1116 H 0.89554 0.87069 0.23198 0.0
H1117 H 0.90438 0.90568 0.23857 0.0
H1118 H 0.92234 0.80976 0.256 0.0
H1119 H 0.04106 0.9511 0.18359 0.0
H1120 H 0.05963 0.9728 0.20678 0.0
H1121 H 0.90298 0.83458 0.23761 0.0
H1122 H 0.97479 0.81656 0.30377 0.0
N1123 N 0.94645 0.88424 0.25513 0.0
C1124 C 0.90976 0.87428 0.23864 0.0
C1125 C 0.91479 0.89412 0.2422 0.0
C1126 C 0.92234 0.85929 0.24536 0.0
C1127 C 0.94053 0.86483 0.25421 0.0
C1128 C 0.93313 0.89891 0.2508 0.0
N1129 N 0.96728 0.85709 0.27509 0.0
C1130 C 0.95132 0.85078 0.26459 0.0
C1131 C 0.96818 0.82595 0.29256 0.0
C1132 C 0.95354 0.81836 0.27993 0.0
C1133 C 0.97444 0.8457 0.29044 0.0
C1134 C 0.94433 0.83103 0.2663 0.0
H1135 H 0.94867 0.80306 0.28163 0.0
O1136 O 0.99326 0.89337 0.29575 0.0
O1137 O 1.00514 0.91243 0.26284 0.0
O1138 O 0.0257 0.86137 0.25229 0.0
O1139 O 0.9934 0.8561 0.25971 0.0
O1140 O 0.97743 0.92356 0.26833 0.0
O1141 O 0.96146 0.88777 0.29175 0.0
O1142 O 0.0343 0.88123 0.21289 0.0
O1143 O 0.99597 0.87697 0.24148 0.0
O1144 O 0.96968 0.90751 0.24027 0.0
O1145 O 0.99972 0.91698 0.22486 0.0
O1146 O 1.00288 0.88684 0.21288 0.0
O1147 O 0.05379 0.88799 0.23758 0.0
C1148 C 0.99559 0.92985 0.26489 0.0
C1149 C 0.92761 0.82501 0.25538 0.0
C1150 C 0.91659 0.83916 0.2449 0.0
C1151 C 0.97568 0.89206 0.30414 0.0
C1152 C 0.9696 0.90555 0.32019 0.0
C1153 C 0.97874 0.90387 0.33872 0.0
C1154 C 0.95148 0.91588 0.3186 0.0
C1155 C 0.94134 0.92237 0.33558 0.0
C1156 C 0.96951 0.91155 0.35553 0.0
C1157 C 0.95079 0.92029 0.3541 0.0
C1158 C 1.01139 0.84781 0.25709 0.0
C1159 C 0.99057 0.87644 0.22342 0.0
C1160 C 0.05239 0.88127 0.21951 0.0
C1161 C 0.06697 0.88733 0.20466 0.0
C1162 C 0.07683 0.90577 0.20512 0.0
C1163 C 0.06844 0.87526 0.18791 0.0
C1164 C 0.07855 0.88195 0.17119 0.0
C1165 C 0.08734 0.91235 0.18846 0.0
C1166 C 0.08796 0.90061 0.17138 0.0
C1167 C 0.98003 0.91808 0.2272 0.0
H1168 H 0.99239 0.8956 0.34037 0.0
H1169 H 0.94457 0.91751 0.30421 0.0
H1170 H 0.9764 0.90974 0.3699 0.0
H1171 H 0.94346 0.92463 0.36765 0.0
H1172 H 0.07589 0.91529 0.21797 0.0
H1173 H 0.06066 0.86107 0.18744 0.0
H1174 H 0.09461 0.92675 0.18863 0.0
H1175 H 0.09576 0.906 0.1584 0.0
Gd1176 Gd 0.13949 0.73125 0.51721 0.0
Gd1177 Gd 0.14864 0.77109 0.54708 0.0
C1178 C 0.17137 0.81763 0.50405 0.0
C1179 C 0.20409 0.82501 0.51762 0.0
C1180 C 0.18378 0.79859 0.53183 0.0
C1181 C 0.16857 0.80282 0.51857 0.0
C1182 C 0.20175 0.80955 0.53138 0.0
C1183 C 0.18902 0.82894 0.50389 0.0
C1184 C 0.15652 0.82038 0.48984 0.0
C1185 C 0.13965 0.80818 0.49006 0.0
N1186 N 0.15151 0.79179 0.51923 0.0
C1187 C 0.13741 0.7938 0.50489 0.0
H1188 H 0.12448 0.78433 0.50463 0.0
C1189 C 0.19664 0.77737 0.55662 0.0
N1190 N 0.1814 0.78309 0.54444 0.0
C1191 C 0.21464 0.7878 0.55671 0.0
C1192 C 0.21712 0.80415 0.54425 0.0
H1193 H 0.19494 0.76513 0.56682 0.0
H1194 H 0.19131 0.84053 0.49297 0.0
H1195 H 0.14537 0.68805 0.54715 0.0
H1196 H 0.15815 0.83155 0.47837 0.0
H1197 H 0.12833 0.80988 0.47881 0.0
H1198 H 0.21776 0.8336 0.51708 0.0
H1199 H 0.11297 0.75104 0.47924 0.0
H1200 H 0.09044 0.65747 0.54654 0.0
H1201 H 0.12474 0.66125 0.55852 0.0
H1202 H 0.05106 0.69191 0.4994 0.0
H1203 H 0.22653 0.78328 0.56649 0.0
H1204 H 0.23114 0.81215 0.54428 0.0
H1205 H 0.06322 0.66908 0.52489 0.0
H1206 H 0.08019 0.746 0.46361 0.0
N1207 N 0.12298 0.70195 0.52889 0.0
C1208 C 0.09941 0.66986 0.54137 0.0
C1209 C 0.11872 0.672 0.54824 0.0
C1210 C 0.09202 0.6834 0.52759 0.0
C1211 C 0.10423 0.69946 0.52132 0.0
C1212 C 0.13041 0.6879 0.54171 0.0
N1213 N 0.1086 0.72829 0.50091 0.0
C1214 C 0.09705 0.71264 0.50693 0.0
C1215 C 0.08468 0.73668 0.47587 0.0
C1216 C 0.07182 0.72209 0.48315 0.0
C1217 C 0.1033 0.73933 0.48461 0.0
C1218 C 0.07801 0.70965 0.49855 0.0
H1219 H 0.05731 0.7202 0.47642 0.0
O1220 O 0.1463 0.73649 0.48584 0.0
O1221 O 0.16339 0.75668 0.52029 0.0
O1222 O 0.11345 0.77747 0.53853 0.0
O1223 O 0.10793 0.74861 0.52118 0.0
O1224 O 0.1738 0.72881 0.51492 0.0
O1225 O 0.14454 0.706 0.4991 0.0
O1226 O 0.16048 0.77473 0.57646 0.0
O1227 O 0.13573 0.74159 0.54773 0.0
O1228 O 0.1586 0.71736 0.5401 0.0
O1229 O 0.16665 0.74432 0.56023 0.0
O1230 O 0.12095 0.76291 0.56369 0.0
O1231 O 0.14655 0.79988 0.56169 0.0
C1232 C 0.18036 0.74675 0.51795 0.0
C1233 C 0.06582 0.69416 0.50545 0.0
C1234 C 0.07277 0.68114 0.51993 0.0
C1235 C 0.14732 0.71704 0.48327 0.0
C1236 C 0.15234 0.70736 0.46449 0.0
C1237 C 0.14853 0.7166 0.44628 0.0
C1238 C 0.15952 0.68781 0.46483 0.0
C1239 C 0.16239 0.67729 0.44724 0.0
C1240 C 0.15148 0.70619 0.42863 0.0
C1241 C 0.15823 0.68656 0.42907 0.0
C1242 C 0.1 0.7652 0.52919 0.0
C1243 C 0.12092 0.74432 0.55888 0.0
C1244 C 0.15673 0.79363 0.57693 0.0
C1245 C 0.15349 0.80223 0.59631 0.0
C1246 C 0.17029 0.80797 0.60728 0.0
C1247 C 0.13452 0.80381 0.60447 0.0
C1248 C 0.13251 0.81151 0.62355 0.0
C1249 C 0.16819 0.81549 0.62635 0.0
C1250 C 0.14932 0.81732 0.63448 0.0
C1251 C 0.16861 0.72521 0.55502 0.0
H1252 H 0.14281 0.73161 0.44572 0.0
H1253 H 0.16253 0.68054 0.47885 0.0
H1254 H 0.14838 0.71328 0.41458 0.0
H1255 H 0.16051 0.67876 0.41525 0.0
H1256 H 0.18507 0.80644 0.60112 0.0
H1257 H 0.12154 0.79909 0.59614 0.0
H1258 H 0.18116 0.81983 0.63482 0.0
H1259 H 0.1478 0.82318 0.64934 0.0
Gd1260 Gd 1.01539 0.63635 0.73386 0.0
Gd1261 Gd 0.97726 0.64102 0.76697 0.0
C1262 C 0.92047 0.67704 0.75888 0.0
C1263 C 0.92825 0.70696 0.77743 0.0
C1264 C 0.95176 0.67964 0.77655 0.0
C1265 C 0.93907 0.66893 0.76417 0.0
C1266 C 0.94577 0.69815 0.78431 0.0
C1267 C 0.91569 0.69648 0.7646 0.0
C1268 C 0.90669 0.66501 0.749 0.0
C1269 C 0.9108 0.64495 0.74623 0.0
N1270 N 0.94384 0.64987 0.75917 0.0
C1271 C 0.92914 0.63741 0.75223 0.0
H1272 H 0.93138 0.62155 0.75103 0.0
C1273 C 0.97889 0.67855 0.79888 0.0
N1274 N 0.96889 0.67106 0.78277 0.0
C1275 C 0.97325 0.69662 0.80728 0.0
C1276 C 0.95692 0.70673 0.79962 0.0
H1277 H 0.99189 0.67108 0.80451 0.0
H1278 H 0.90173 0.70307 0.76018 0.0
H1279 H 0.033 0.6538 0.77642 0.0
H1280 H 0.89235 0.67074 0.74459 0.0
H1281 H 0.89969 0.63522 0.73981 0.0
H1282 H 0.92376 0.72144 0.78275 0.0
H1283 H 1.01241 0.59833 0.70054 0.0
H1284 H 0.07803 0.61353 0.79621 0.0
H1285 H 0.05907 0.6446 0.80071 0.0
H1286 H 0.07575 0.56133 0.74799 0.0
H1287 H 0.98165 0.70287 0.81947 0.0
H1288 H 0.95264 0.72079 0.80608 0.0
H1289 H 0.08432 0.58265 0.77632 0.0
H1290 H 0.02798 0.56587 0.69558 0.0
N1291 N 0.03715 0.62797 0.75902 0.0
C1292 C 0.06655 0.6174 0.78568 0.0
C1293 C 0.05584 0.63496 0.78829 0.0
C1294 C 0.0623 0.60503 0.76953 0.0
C1295 C 0.04723 0.61074 0.75626 0.0
C1296 C 0.04111 0.64011 0.77464 0.0
N1297 N 0.02768 0.60439 0.72769 0.0
C1298 C 0.04236 0.59863 0.7402 0.0
C1299 C 0.03202 0.57482 0.7083 0.0
C1300 C 0.04695 0.56854 0.72114 0.0
C1301 C 0.02281 0.59307 0.71152 0.0
C1302 C 0.05251 0.5806 0.73712 0.0
H1303 H 0.05425 0.5545 0.71844 0.0
O1304 O 0.02278 0.63881 0.70318 0.0
O1305 O 0.99058 0.655 0.74133 0.0
O1306 O 0.96378 0.62558 0.74058 0.0
O1307 O 0.99107 0.61563 0.72197 0.0
O1308 O 0.99283 0.64664 0.71198 0.0
O1309 O 0.0446 0.648 0.72519 0.0
O1310 O 0.98859 0.634 0.79724 0.0
O1311 O 1.00285 0.61816 0.76046 0.0
O1312 O 0.01974 0.67153 0.74358 0.0
O1313 O 0.99243 0.67476 0.76332 0.0
O1314 O 0.97514 0.60658 0.7653 0.0
O1315 O 0.95653 0.63456 0.78924 0.0
C1316 C 0.98291 0.65725 0.72432 0.0
C1317 C 0.06776 0.57508 0.75015 0.0
C1318 C 0.07262 0.58723 0.76631 0.0
C1319 C 0.04027 0.64632 0.70642 0.0
C1320 C 0.05534 0.64053 0.69219 0.0
C1321 C 0.06046 0.62062 0.68924 0.0
C1322 C 0.06093 0.6549 0.67836 0.0
C1323 C 0.07035 0.64944 0.66075 0.0
C1324 C 0.0699 0.61496 0.67179 0.0
C1325 C 0.07444 0.62918 0.65741 0.0
C1326 C 0.97181 0.61534 0.72599 0.0
C1327 C 0.99318 0.60072 0.7618 0.0
C1328 C 0.96992 0.63182 0.80293 0.0
C1329 C 0.9626 0.62381 0.82186 0.0
C1330 C 0.97024 0.63107 0.83971 0.0
C1331 C 0.9449 0.61242 0.82197 0.0
C1332 C 0.93399 0.60948 0.83952 0.0
C1333 C 0.95995 0.62767 0.85735 0.0
C1334 C 0.94186 0.6173 0.85726 0.0
C1335 C 1.00815 0.68413 0.75433 0.0
H1336 H 0.05665 0.60942 0.69999 0.0
H1337 H 0.05725 0.67031 0.68115 0.0
H1338 H 0.07327 0.59947 0.66921 0.0
H1339 H 0.08108 0.62425 0.64369 0.0
H1340 H 0.98348 0.64032 0.83987 0.0
H1341 H 0.93919 0.60665 0.80811 0.0
H1342 H 0.9656 0.63382 0.87107 0.0
H1343 H 0.9338 0.616 0.87106 0.0
Gd1344 Gd 0.15016 0.26538 0.48197 0.0
Gd1345 Gd 0.1444 0.2279 0.51485 0.0
C1346 C 0.1043 0.173 0.50618 0.0
C1347 C 0.08024 0.17721 0.53244 0.0
C1348 C 0.10665 0.20181 0.52777 0.0
C1349 C 0.11431 0.1907 0.51203 0.0
C1350 C 0.08963 0.19495 0.53811 0.0
C1351 C 0.08752 0.1663 0.51655 0.0
C1352 C 0.11068 0.1629 0.4894 0.0
C1353 C 0.12603 0.17077 0.47822 0.0
N1354 N 0.13043 0.19767 0.50163 0.0
C1355 C 0.13569 0.18812 0.48437 0.0
H1356 H 0.14644 0.1939 0.47414 0.0
C1357 C 0.10893 0.22974 0.54915 0.0
N1358 N 0.11553 0.21932 0.53295 0.0
C1359 C 0.09218 0.22345 0.5596 0.0
C1360 C 0.08241 0.20607 0.55398 0.0
H1361 H 0.11614 0.24347 0.55348 0.0
H1362 H 0.0798 0.15283 0.51213 0.0
H1363 H 0.13437 0.282 0.52551 0.0
H1364 H 0.10315 0.14954 0.48434 0.0
H1365 H 0.13 0.16377 0.46439 0.0
H1366 H 0.06716 0.17185 0.54018 0.0
H1367 H 0.1844 0.26606 0.44588 0.0
H1368 H 0.17896 0.3219 0.54813 0.0
H1369 H 0.14633 0.30507 0.55172 0.0
H1370 H 0.22903 0.32136 0.49762 0.0
H1371 H 0.08678 0.23208 0.57197 0.0
H1372 H 0.06936 0.20127 0.56211 0.0
H1373 H 0.20984 0.32779 0.52791 0.0
H1374 H 0.21689 0.28205 0.43952 0.0
N1375 N 0.16008 0.28591 0.50782 0.0
C1376 C 0.1738 0.31185 0.53668 0.0
C1377 C 0.15535 0.30236 0.53877 0.0
C1378 C 0.18533 0.30836 0.5198 0.0
C1379 C 0.17793 0.2952 0.50534 0.0
C1380 C 0.14861 0.28937 0.52401 0.0
N1381 N 0.18134 0.27875 0.47458 0.0
C1382 C 0.18886 0.29148 0.48826 0.0
C1383 C 0.20923 0.28474 0.45333 0.0
C1384 C 0.21756 0.29737 0.46752 0.0
C1385 C 0.19091 0.2756 0.45705 0.0
C1386 C 0.20731 0.30101 0.48518 0.0
H1387 H 0.23179 0.3044 0.46462 0.0
O1388 O 0.14677 0.2736 0.45154 0.0
O1389 O 0.1305 0.24073 0.48853 0.0
O1390 O 0.16493 0.21456 0.4924 0.0
O1391 O 0.17138 0.24115 0.4707 0.0
O1392 O 0.14339 0.24117 0.46071 0.0
O1393 O 0.13741 0.29429 0.47444 0.0
O1394 O 0.1509 0.23572 0.54592 0.0
O1395 O 0.1675 0.25362 0.50888 0.0
O1396 O 0.11485 0.26904 0.49084 0.0
O1397 O 0.11176 0.24437 0.51376 0.0
O1398 O 0.17908 0.22709 0.51686 0.0
O1399 O 0.15042 0.20441 0.53468 0.0
C1400 C 0.12973 0.23299 0.47141 0.0
C1401 C 0.21483 0.31398 0.49968 0.0
C1402 C 0.20388 0.31764 0.51692 0.0
C1403 C 0.13839 0.29041 0.45555 0.0
C1404 C 0.14172 0.30611 0.4412 0.0
C1405 C 0.16027 0.31535 0.43867 0.0
C1406 C 0.1268 0.30865 0.42711 0.0
C1407 C 0.1305 0.31958 0.41 0.0
C1408 C 0.16385 0.32682 0.42173 0.0
C1409 C 0.14909 0.32873 0.40725 0.0
C1410 C 0.1742 0.22254 0.47694 0.0
C1411 C 0.1851 0.24476 0.51174 0.0
C1412 C 0.1526 0.2165 0.54976 0.0
C1413 C 0.15826 0.20787 0.56886 0.0
C1414 C 0.1523 0.21658 0.5867 0.0
C1415 C 0.1675 0.18921 0.5691 0.0
C1416 C 0.1706 0.1791 0.58692 0.0
C1417 C 0.15543 0.20659 0.60458 0.0
C1418 C 0.1645 0.18794 0.60474 0.0
C1419 C 0.10249 0.25895 0.50335 0.0
H1420 H 0.17205 0.31319 0.44935 0.0
H1421 H 0.11261 0.30105 0.42884 0.0
H1422 H 0.17821 0.33381 0.41958 0.0
H1423 H 0.15212 0.33728 0.39397 0.0
H1424 H 0.14466 0.2307 0.58673 0.0
H1425 H 0.17219 0.1824 0.55534 0.0
H1426 H 0.15053 0.21316 0.61834 0.0
H1427 H 0.16649 0.18031 0.61872 0.0
Gd1428 Gd 0.55287 0.38399 0.26541 0.0
Gd1429 Gd 0.51547 0.38952 0.231 0.0
C1430 C 0.52501 0.42751 0.1752 0.0
C1431 C 0.50187 0.45435 0.1807 0.0
C1432 C 0.50516 0.42794 0.20533 0.0
C1433 C 0.51955 0.41862 0.19352 0.0
C1434 C 0.4959 0.44554 0.19854 0.0
C1435 C 0.51639 0.44542 0.16914 0.0
C1436 C 0.53902 0.41826 0.16323 0.0
C1437 C 0.54752 0.40065 0.16944 0.0
N1438 N 0.52788 0.40099 0.19949 0.0
C1439 C 0.54201 0.39229 0.18754 0.0
H1440 H 0.5501 0.37917 0.19137 0.0
C1441 C 0.48363 0.42708 0.23318 0.0
N1442 N 0.49955 0.41961 0.2229 0.0
C1443 C 0.47406 0.44424 0.2268 0.0
C1444 C 0.48038 0.45366 0.20956 0.0
H1445 H 0.47881 0.42015 0.24682 0.0
H1446 H 0.52066 0.45237 0.15528 0.0
H1447 H 0.51096 0.40475 0.28222 0.0
H1448 H 0.54355 0.42472 0.14922 0.0
H1449 H 0.55872 0.39361 0.1604 0.0
H1450 H 0.49507 0.46795 0.17551 0.0
H1451 H 0.58312 0.34487 0.26515 0.0
H1452 H 0.48783 0.36735 0.32819 0.0
H1453 H 0.48552 0.39774 0.30765 0.0
H1454 H 0.5339 0.31332 0.3304 0.0
H1455 H 0.46188 0.45028 0.23527 0.0
H1456 H 0.47295 0.46705 0.2047 0.0
H1457 H 0.50593 0.33585 0.33653 0.0
H1458 H 0.58874 0.31466 0.28506 0.0
N1459 N 0.52762 0.37888 0.28861 0.0
C1460 C 0.49908 0.37041 0.31712 0.0
C1461 C 0.49774 0.3876 0.30556 0.0
C1462 C 0.51482 0.35727 0.31415 0.0
C1463 C 0.52901 0.36192 0.29953 0.0
C1464 C 0.51223 0.39161 0.29124 0.0
N1465 N 0.55751 0.35351 0.28121 0.0
C1466 C 0.54452 0.34897 0.29583 0.0
C1467 C 0.57625 0.32417 0.28829 0.0
C1468 C 0.56279 0.319 0.30315 0.0
C1469 C 0.57321 0.34146 0.27725 0.0
C1470 C 0.54661 0.33138 0.30701 0.0
H1471 H 0.56497 0.30541 0.31148 0.0
O1472 O 0.58464 0.38501 0.26636 0.0
O1473 O 0.54352 0.40283 0.24108 0.0
O1474 O 0.53531 0.367 0.21771 0.0
O1475 O 0.55856 0.35983 0.24254 0.0
O1476 O 0.57054 0.38953 0.2379 0.0
O1477 O 0.56819 0.39515 0.29201 0.0
O1478 O 0.48377 0.38519 0.2381 0.0
O1479 O 0.5261 0.36627 0.25442 0.0
O1480 O 0.54462 0.41949 0.26945 0.0
O1481 O 0.51903 0.4221 0.24722 0.0
O1482 O 0.50562 0.35623 0.23654 0.0
O1483 O 0.49613 0.38349 0.20726 0.0
C1484 C 0.55936 0.40338 0.23098 0.0
C1485 C 0.5326 0.32679 0.3217 0.0
C1486 C 0.5167 0.33965 0.32521 0.0
C1487 C 0.58563 0.39225 0.28412 0.0
C1488 C 0.60249 0.38572 0.29625 0.0
C1489 C 0.61302 0.36835 0.2916 0.0
C1490 C 0.61059 0.39915 0.30992 0.0
C1491 C 0.62925 0.39553 0.31846 0.0
C1492 C 0.63087 0.36409 0.30094 0.0
C1493 C 0.63909 0.37765 0.31412 0.0
C1494 C 0.55024 0.3566 0.22497 0.0
C1495 C 0.5171 0.34895 0.25013 0.0
C1496 C 0.48047 0.3828 0.21888 0.0
C1497 C 0.46124 0.37812 0.20975 0.0
C1498 C 0.44338 0.38436 0.21826 0.0
C1499 C 0.4611 0.36979 0.19071 0.0
C1500 C 0.44356 0.36853 0.17973 0.0
C1501 C 0.42566 0.38276 0.2075 0.0
C1502 C 0.42575 0.37512 0.18822 0.0
C1503 C 0.5313 0.43166 0.2602 0.0
H1504 H 0.60834 0.35858 0.27993 0.0
H1505 H 0.60295 0.41296 0.31292 0.0
H1506 H 0.63892 0.35076 0.2971 0.0
H1507 H 0.65372 0.37456 0.32001 0.0
H1508 H 0.44324 0.39114 0.2328 0.0
H1509 H 0.47487 0.36504 0.18393 0.0
H1510 H 0.4119 0.38784 0.21395 0.0
H1511 H 0.41194 0.37422 0.18001 0.0
Gd1512 Gd 0.38207 0.76626 0.98396 0.0
Gd1513 Gd 0.39002 0.80306 0.01786 0.0
C1514 C 0.43738 0.85117 1.00854 0.0
C1515 C 0.46225 0.84173 0.03271 0.0
C1516 C 0.4315 0.82255 0.02991 0.0
C1517 C 0.42495 0.83522 1.01472 0.0
C1518 C 0.44991 0.82625 0.03937 0.0
C1519 C 0.45613 0.85395 0.0172 0.0
C1520 C 0.43049 0.86441 0.99422 0.0
C1521 C 0.41119 0.86253 0.98727 0.0
N1522 N 0.40638 0.83269 1.00667 0.0
C1523 C 0.39919 0.84691 0.99393 0.0
H1524 H 0.38437 0.84677 0.98821 0.0
C1525 C 0.42519 0.79536 0.05168 0.0
N1526 N 0.42003 0.80666 0.03554 0.0
C1527 C 0.44313 0.79879 0.06151 0.0
C1528 C 0.45563 0.81412 0.0552 0.0
H1529 H 0.41584 0.78308 0.05633 0.0
H1530 H 0.4658 0.86596 1.01239 0.0
H1531 H 0.39993 0.7483 0.02622 0.0
H1532 H 0.43969 0.87661 0.98901 0.0
H1533 H 0.40546 0.87316 0.97669 0.0
H1534 H 0.47657 0.84445 0.03955 0.0
H1535 H 0.3446 0.76867 0.95079 0.0
H1536 H 0.35831 0.7047 0.04761 0.0
H1537 H 0.3902 0.7229 0.05118 0.0
H1538 H 0.30556 0.70715 0.99988 0.0
H1539 H 0.4474 0.78947 0.07385 0.0
H1540 H 0.46967 0.81653 0.06271 0.0
H1541 H 0.32686 0.69879 0.02827 0.0
H1542 H 0.31177 0.75307 0.94581 0.0
N1543 N 0.37359 0.74456 1.00939 0.0
C1544 C 0.36244 0.71585 0.03676 0.0
C1545 C 0.38047 0.72613 0.03885 0.0
C1546 C 0.34999 0.72004 0.02068 0.0
C1547 C 0.35605 0.73469 1.00701 0.0
C1548 C 0.38592 0.74048 0.02482 0.0
N1549 N 0.35019 0.75358 0.978 0.0
C1550 C 0.34399 0.7394 0.99093 0.0
C1551 C 0.32061 0.74917 0.95862 0.0
C1552 C 0.3138 0.73482 0.97197 0.0
C1553 C 0.33911 0.7582 0.96168 0.0
C1554 C 0.32562 0.72955 0.9882 0.0
H1555 H 0.29951 0.72774 0.96949 0.0
O1556 O 0.38229 0.75732 0.95352 0.0
O1557 O 0.40157 0.79121 0.99021 0.0
O1558 O 0.37117 0.8172 0.9949 0.0
O1559 O 0.36023 0.79118 0.97473 0.0
O1560 O 0.38954 0.7897 0.96172 0.0
O1561 O 0.39538 0.73797 0.97604 0.0
O1562 O 0.38305 0.79817 0.04945 0.0
O1563 O 0.36659 0.77744 1.01201 0.0
O1564 O 0.41754 0.7617 0.99173 0.0
O1565 O 0.42211 0.78645 1.0143 0.0
O1566 O 0.35537 0.80389 0.02015 0.0
O1567 O 0.38527 0.82837 0.03553 0.0
C1568 C 0.40127 0.79945 0.97332 0.0
C1569 C 0.31963 0.71485 1.00173 0.0
C1570 C 0.33177 0.7101 0.01791 0.0
C1571 C 0.39169 0.74095 0.95731 0.0
C1572 C 0.38747 0.7243 0.94444 0.0
C1573 C 0.36872 0.71523 0.94304 0.0
C1574 C 0.40206 0.72023 0.93059 0.0
C1575 C 0.39792 0.70801 0.91451 0.0
C1576 C 0.3648 0.70205 0.92746 0.0
C1577 C 0.37933 0.69853 0.91307 0.0
C1578 C 0.35957 0.81009 0.98074 0.0
C1579 C 0.34914 0.78625 1.0153 0.0
C1580 C 0.38229 0.81772 0.05157 0.0
C1581 C 0.37647 0.82829 0.06958 0.0
C1582 C 0.38092 0.82072 0.08839 0.0
C1583 C 0.36767 0.84711 0.0678 0.0
C1584 C 0.36326 0.85824 0.08462 0.0
C1585 C 0.37655 0.83189 0.10527 0.0
C1586 C 0.36768 0.85055 0.10343 0.0
C1587 C 0.4306 0.77183 1.0035 0.0
H1588 H 0.35711 0.71871 0.9535 0.0
H1589 H 0.41639 0.7277 0.93158 0.0
H1590 H 0.3503 0.69514 0.92612 0.0
H1591 H 0.37586 0.68908 0.90055 0.0
H1592 H 0.3881 0.80645 0.08999 0.0
H1593 H 0.36416 0.85316 0.05333 0.0
H1594 H 0.38015 0.82613 0.1198 0.0
H1595 H 0.36442 0.85906 0.11663 0.0
Gd1596 Gd 0.02502 0.39884 0.8 0.0
Gd1597 Gd 0.98388 0.39414 0.7684 0.0
C1598 C 0.92992 0.35425 0.78193 0.0
C1599 C 0.93553 0.32625 0.76017 0.0
C1600 C 0.95847 0.35448 0.76006 0.0
C1601 C 0.94722 0.36383 0.77456 0.0
C1602 C 0.95202 0.3361 0.75205 0.0
C1603 C 0.9246 0.33524 0.77518 0.0
C1604 C 0.91803 0.36419 0.79554 0.0
C1605 C 0.92256 0.3837 0.80045 0.0
N1606 N 0.95236 0.38256 0.78058 0.0
C1607 C 0.93931 0.39292 0.79233 0.0
H1608 H 0.94092 0.40851 0.7955 0.0
C1609 C 0.98369 0.35695 0.73579 0.0
N1610 N 0.97487 0.36384 0.75278 0.0
C1611 C 0.97722 0.33932 0.7269 0.0
C1612 C 0.96175 0.3285 0.73546 0.0
H1613 H 0.99647 0.36454 0.72965 0.0
H1614 H 0.91159 0.32767 0.78098 0.0
H1615 H 0.03927 0.37633 0.75747 0.0
H1616 H 0.90483 0.35724 0.80166 0.0
H1617 H 0.91282 0.39181 0.8102 0.0
H1618 H 0.9307 0.31195 0.7545 0.0
H1619 H 0.02441 0.44107 0.82766 0.0
H1620 H 0.07771 0.41657 0.72678 0.0
H1621 H 0.06073 0.38396 0.72906 0.0
H1622 H 0.078 0.47481 0.76735 0.0
H1623 H 0.98461 0.33376 0.71384 0.0
H1624 H 0.95706 0.31458 0.72881 0.0
H1625 H 0.084 0.45034 0.7411 0.0
H1626 H 0.03961 0.47409 0.82691 0.0
N1627 N 0.04446 0.40405 0.77174 0.0
C1628 C 0.06841 0.41326 0.73945 0.0
C1629 C 0.05886 0.39482 0.7407 0.0
C1630 C 0.06561 0.42735 0.75437 0.0
C1631 C 0.05333 0.42233 0.77054 0.0
C1632 C 0.04678 0.39046 0.75698 0.0
N1633 N 0.03724 0.4316 0.80025 0.0
C1634 C 0.04971 0.43639 0.78522 0.0
C1635 C 0.04255 0.4637 0.81506 0.0
C1636 C 0.05488 0.46911 0.7994 0.0
C1637 C 0.03383 0.44482 0.81528 0.0
C1638 C 0.05865 0.45543 0.78428 0.0
H1639 H 0.06147 0.48385 0.79917 0.0
O1640 O 0.02927 0.4054 0.83091 0.0
O1641 O 0.99457 0.38818 0.79836 0.0
O1642 O 0.97328 0.41376 0.79269 0.0
O1643 O 1.00061 0.41818 0.81357 0.0
O1644 O 1.01322 0.37104 0.81473 0.0
O1645 O 0.05425 0.39417 0.8135 0.0
O1646 O 0.99034 0.39946 0.73693 0.0
O1647 O 1.00979 0.41617 0.77496 0.0
O1648 O 0.02852 0.3642 0.78979 0.0
O1649 O 1.00063 0.36176 0.76978 0.0
O1650 O 0.98522 0.42824 0.76307 0.0
O1651 O 0.96162 0.40707 0.75094 0.0
C1652 C 0.995 0.37276 0.809 0.0
C1653 C 0.07105 0.46026 0.76833 0.0
C1654 C 0.07449 0.44629 0.75341 0.0
C1655 C 0.04814 0.40155 0.83033 0.0
C1656 C 0.05833 0.39767 0.84899 0.0
C1657 C 0.06843 0.4137 0.85778 0.0
C1658 C 0.05618 0.37963 0.85928 0.0
C1659 C 0.06416 0.37791 0.87842 0.0
C1660 C 0.07631 0.41191 0.87675 0.0
C1661 C 0.07416 0.39411 0.88707 0.0
C1662 C 0.98223 0.42237 0.80783 0.0
C1663 C 1.00222 0.43398 0.77 0.0
C1664 C 0.97221 0.40658 0.73462 0.0
C1665 C 0.96005 0.40217 0.71711 0.0
C1666 C 0.96498 0.3883 0.70247 0.0
C1667 C 0.942 0.41225 0.71587 0.0
C1668 C 0.92815 0.40776 0.70122 0.0
C1669 C 0.95135 0.38404 0.68733 0.0
C1670 C 0.93293 0.39361 0.68674 0.0
C1671 C 1.01601 0.35235 0.77894 0.0
H1672 H 0.06978 0.42782 0.85012 0.0
H1673 H 0.04819 0.36727 0.85265 0.0
H1674 H 0.08399 0.42436 0.88352 0.0
H1675 H 0.08052 0.39287 0.90177 0.0
H1676 H 0.97911 0.38079 0.7027 0.0
H1677 H 0.93858 0.42365 0.72669 0.0
H1678 H 0.955 0.37319 0.67611 0.0
H1679 H 0.92244 0.38991 0.67512 0.0
Gd1680 Gd 0.38886 0.26947 0.54753 0.0
Gd1681 Gd 0.39464 0.23032 0.51483 0.0
C1682 C 0.42208 0.17131 0.53335 0.0
C1683 C 0.45691 0.17705 0.52572 0.0
C1684 C 0.43209 0.20143 0.51651 0.0
C1685 C 0.41737 0.19009 0.52537 0.0
C1686 C 0.45173 0.19437 0.51538 0.0
C1687 C 0.44206 0.16549 0.53471 0.0
C1688 C 0.40653 0.1584 0.53839 0.0
C1689 C 0.38703 0.16372 0.53384 0.0
N1690 N 0.39818 0.19618 0.52368 0.0
C1691 C 0.38312 0.18255 0.52595 0.0
H1692 H 0.36797 0.18649 0.52245 0.0
C1693 C 0.43857 0.22536 0.49172 0.0
N1694 N 0.42652 0.21788 0.50646 0.0
C1695 C 0.45827 0.21908 0.49019 0.0
C1696 C 0.46511 0.20402 0.50267 0.0
H1697 H 0.43348 0.23752 0.48256 0.0
H1698 H 0.44601 0.15144 0.54147 0.0
H1699 H 0.40074 0.28661 0.50297 0.0
H1700 H 0.40949 0.14381 0.54448 0.0
H1701 H 0.37503 0.15325 0.53627 0.0
H1702 H 0.47207 0.17174 0.52562 0.0
H1703 H 0.35722 0.26809 0.58599 0.0
H1704 H 0.35683 0.32971 0.48675 0.0
H1705 H 0.38764 0.31139 0.47901 0.0
H1706 H 0.31209 0.32888 0.54202 0.0
H1707 H 0.46818 0.22598 0.47957 0.0
H1708 H 0.48035 0.19913 0.50144 0.0
H1709 H 0.32876 0.33623 0.51042 0.0
H1710 H 0.32609 0.28447 0.59585 0.0
N1711 N 0.37725 0.29085 0.52332 0.0
C1712 C 0.36242 0.31881 0.49715 0.0
C1713 C 0.37982 0.30848 0.49271 0.0
C1714 C 0.35246 0.31505 0.51498 0.0
C1715 C 0.36033 0.30072 0.52796 0.0
C1716 C 0.38717 0.29449 0.50616 0.0
N1717 N 0.35856 0.28244 0.55787 0.0
C1718 C 0.35078 0.29645 0.54577 0.0
C1719 C 0.33277 0.28787 0.58167 0.0
C1720 C 0.3242 0.30196 0.56916 0.0
C1721 C 0.35025 0.27844 0.57591 0.0
C1722 C 0.33331 0.30659 0.55108 0.0
H1723 H 0.3107 0.30934 0.57371 0.0
O1724 O 0.39545 0.27618 0.57794 0.0
O1725 O 0.40703 0.2443 0.5406 0.0
O1726 O 0.37604 0.21765 0.53984 0.0
O1727 O 0.36711 0.24577 0.55839 0.0
O1728 O 0.39769 0.24665 0.56987 0.0
O1729 O 0.40109 0.29862 0.55537 0.0
O1730 O 0.38848 0.24508 0.48627 0.0
O1731 O 0.37091 0.2551 0.52119 0.0
O1732 O 0.4234 0.27479 0.53643 0.0
O1733 O 0.42746 0.24512 0.52127 0.0
O1734 O 0.36024 0.22766 0.51306 0.0
O1735 O 0.39763 0.21415 0.48812 0.0
C1736 C 0.40805 0.23642 0.55759 0.0
C1737 C 0.32552 0.32098 0.53822 0.0
C1738 C 0.33503 0.32515 0.52021 0.0
C1739 C 0.40225 0.29387 0.57411 0.0
C1740 C 0.39837 0.30873 0.58932 0.0
C1741 C 0.38067 0.31952 0.59002 0.0
C1742 C 0.41227 0.3105 0.60468 0.0
C1743 C 0.40875 0.3232 0.62066 0.0
C1744 C 0.377 0.3321 0.60605 0.0
C1745 C 0.39099 0.33403 0.62127 0.0
C1746 C 0.36573 0.22654 0.55402 0.0
C1747 C 0.35358 0.24526 0.51795 0.0
C1748 C 0.39096 0.22822 0.47682 0.0
C1749 C 0.37614 0.22095 0.46244 0.0
C1750 C 0.37482 0.22994 0.44379 0.0
C1751 C 0.36661 0.20242 0.46567 0.0
C1752 C 0.35699 0.19243 0.45016 0.0
C1753 C 0.36445 0.22048 0.4285 0.0
C1754 C 0.35577 0.20178 0.43156 0.0
C1755 C 0.4364 0.26189 0.52803 0.0
H1756 H 0.36971 0.3181 0.5784 0.0
H1757 H 0.4259 0.302 0.60417 0.0
H1758 H 0.36327 0.34034 0.6067 0.0
H1759 H 0.38793 0.34387 0.63356 0.0
H1760 H 0.38253 0.24381 0.44082 0.0
H1761 H 0.36759 0.19518 0.47999 0.0
H1762 H 0.36378 0.22731 0.414 0.0
H1763 H 0.34864 0.19435 0.4192 0.0
Gd1764 Gd 0.51358 0.6338 0.29547 0.0
Gd1765 Gd 0.55182 0.6415 0.26183 0.0
C1766 C 0.5979 0.68966 0.27531 0.0
C1767 C 0.58542 0.71748 0.25618 0.0
C1768 C 0.56914 0.68514 0.25406 0.0
C1769 C 0.58247 0.67743 0.26783 0.0
C1770 C 0.57132 0.70487 0.24728 0.0
C1771 C 0.59861 0.70991 0.27028 0.0
C1772 C 0.61283 0.68099 0.28676 0.0
C1773 C 0.61326 0.66039 0.28877 0.0
N1774 N 0.58169 0.65765 0.27219 0.0
C1775 C 0.59794 0.64884 0.2807 0.0
H1776 H 0.59928 0.63287 0.28144 0.0
C1777 C 0.54541 0.67818 0.22899 0.0
N1778 N 0.55485 0.67296 0.24628 0.0
C1779 C 0.54756 0.69744 0.22142 0.0
C1780 C 0.55996 0.71107 0.23107 0.0
H1781 H 0.53517 0.66795 0.22197 0.0
H1782 H 0.61003 0.71957 0.27634 0.0
H1783 H 0.5018 0.6561 0.25192 0.0
H1784 H 0.62482 0.68988 0.29289 0.0
H1785 H 0.62557 0.65335 0.29625 0.0
H1786 H 0.58687 0.73286 0.25158 0.0
H1787 H 0.51074 0.58849 0.31812 0.0
H1788 H 0.44661 0.63209 0.23169 0.0
H1789 H 0.47423 0.65626 0.22817 0.0
H1790 H 0.43536 0.577 0.27534 0.0
H1791 H 0.5393 0.7019 0.20842 0.0
H1792 H 0.5613 0.72608 0.22536 0.0
H1793 H 0.43216 0.60254 0.24945 0.0
H1794 H 0.48594 0.56235 0.32296 0.0
N1795 N 0.48932 0.63347 0.27011 0.0
C1796 C 0.45852 0.63227 0.24248 0.0
C1797 C 0.47406 0.64596 0.24049 0.0
C1798 C 0.45906 0.61837 0.25785 0.0
C1799 C 0.47499 0.6192 0.27141 0.0
C1800 C 0.48955 0.64613 0.2543 0.0
N1801 N 0.49359 0.60473 0.29681 0.0
C1802 C 0.47707 0.60449 0.28545 0.0
C1803 C 0.48312 0.5742 0.31248 0.0
C1804 C 0.46584 0.57405 0.30115 0.0
C1805 C 0.49708 0.58943 0.30982 0.0
C1806 C 0.46288 0.58901 0.28706 0.0
H1807 H 0.45522 0.56201 0.30293 0.0
O1808 O 0.51836 0.62156 0.32402 0.0
O1809 O 0.54282 0.64658 0.29205 0.0
O1810 O 0.56592 0.627 0.28789 0.0
O1811 O 0.53894 0.61282 0.30413 0.0
O1812 O 0.52456 0.66226 0.30983 0.0
O1813 O 0.49173 0.63885 0.31902 0.0
O1814 O 0.54737 0.63335 0.2305 0.0
O1815 O 0.52712 0.61728 0.26863 0.0
O1816 O 0.50786 0.66883 0.28735 0.0
O1817 O 0.53295 0.67237 0.26431 0.0
O1818 O 0.55371 0.60711 0.25943 0.0
O1819 O 0.57731 0.6354 0.24477 0.0
C1820 C 0.54254 0.66155 0.30322 0.0
C1821 C 0.44643 0.58872 0.27431 0.0
C1822 C 0.44459 0.6033 0.25963 0.0
C1823 C 0.50275 0.62939 0.33195 0.0
C1824 C 0.50656 0.63796 0.35159 0.0
C1825 C 0.5216 0.62977 0.36363 0.0
C1826 C 0.49445 0.65285 0.35926 0.0
C1827 C 0.49746 0.65946 0.37863 0.0
C1828 C 0.52482 0.63682 0.38273 0.0
C1829 C 0.51291 0.65179 0.39019 0.0
C1830 C 0.55834 0.61468 0.30113 0.0
C1831 C 0.53664 0.60012 0.26518 0.0
C1832 C 0.56687 0.6318 0.22878 0.0
C1833 C 0.57746 0.62473 0.21124 0.0
C1834 C 0.57032 0.62881 0.19219 0.0
C1835 C 0.59573 0.61496 0.21361 0.0
C1836 C 0.60679 0.60923 0.19708 0.0
C1837 C 0.58137 0.62322 0.17565 0.0
C1838 C 0.59948 0.61345 0.17803 0.0
C1839 C 0.51866 0.68121 0.27531 0.0
H1840 H 0.53074 0.61768 0.3584 0.0
H1841 H 0.48198 0.65837 0.35074 0.0
H1842 H 0.53619 0.63028 0.39195 0.0
H1843 H 0.51485 0.65648 0.40543 0.0
H1844 H 0.55647 0.63665 0.19014 0.0
H1845 H 0.60135 0.61171 0.22831 0.0
H1846 H 0.57597 0.62659 0.16093 0.0
H1847 H 0.6079 0.60942 0.16501 0.0
Gd1848 Gd 0.13338 0.79243 1.01088 0.0
Gd1849 Gd 0.13978 0.76562 0.05368 0.0
C1850 C 0.1857 0.77706 0.10227 0.0
C1851 C 0.21032 0.75194 0.09506 0.0
C1852 C 0.18066 0.75455 0.0745 0.0
C1853 C 0.1739 0.7704 0.08617 0.0
C1854 C 0.19873 0.74504 0.07923 0.0
C1855 C 0.20389 0.76793 0.10646 0.0
C1856 C 0.17905 0.79286 0.11381 0.0
C1857 C 0.16096 0.80161 0.1095 0.0
N1858 N 0.1561 0.77926 0.08196 0.0
C1859 C 0.14958 0.79461 0.09368 0.0
H1860 H 0.13574 0.80205 0.09146 0.0
C1861 C 0.17488 0.7315 0.0484 0.0
N1862 N 0.16977 0.74842 0.05854 0.0
C1863 C 0.19252 0.72165 0.05277 0.0
C1864 C 0.20463 0.72861 0.06804 0.0
H1865 H 0.16575 0.72622 0.03629 0.0
H1866 H 0.21305 0.77303 0.11866 0.0
H1867 H 0.15517 0.74818 1.00028 0.0
H1868 H 0.18779 0.79843 0.12612 0.0
H1869 H 0.15568 0.81385 0.11841 0.0
H1870 H 0.22429 0.74492 0.09871 0.0
H1871 H 0.08803 0.81496 1.01535 0.0
H1872 H 0.12234 0.72363 0.9516 0.0
H1873 H 0.15076 0.72214 0.97482 0.0
H1874 H 0.06678 0.76741 0.94515 0.0
H1875 H 0.19682 0.70872 0.04431 0.0
H1876 H 0.21837 0.72098 0.0713 0.0
H1877 H 0.09131 0.74092 0.9403 0.0
H1878 H 0.05841 0.81759 0.99467 0.0
N1879 N 0.12932 0.76394 0.99166 0.0
C1880 C 0.12404 0.73494 0.96289 0.0
C1881 C 0.14013 0.73407 0.97598 0.0
C1882 C 0.11017 0.75022 0.9647 0.0
C1883 C 0.113 0.76445 0.97972 0.0
C1884 C 0.14261 0.74884 0.99038 0.0
N1885 N 0.10091 0.79138 0.99849 0.0
C1886 C 0.09873 0.77899 0.98283 0.0
C1887 C 0.0696 0.80667 0.99116 0.0
C1888 C 0.0675 0.7946 0.97452 0.0
C1889 C 0.0864 0.80481 1.00312 0.0
C1890 C 0.08189 0.78024 0.97042 0.0
H1891 H 0.05442 0.79606 0.9653 0.0
O1892 O 0.12364 0.82204 1.00401 0.0
O1893 O 0.1454 0.79437 0.04016 0.0
O1894 O 0.12086 0.79033 0.06465 0.0
O1895 O 0.11588 0.80855 0.03554 0.0
O1896 O 0.16056 0.81043 0.01917 0.0
O1897 O 0.13769 0.80407 0.98103 0.0
O1898 O 0.13255 0.73414 0.05039 0.0
O1899 O 0.11632 0.76765 0.02773 0.0
O1900 O 0.16821 0.78224 1.00657 0.0
O1901 O 0.17228 0.76824 0.03738 0.0
O1902 O 0.10547 0.76449 0.05572 0.0
O1903 O 0.13326 0.74912 0.08003 0.0
C1904 C 0.16002 0.80593 0.03776 0.0
C1905 C 0.0796 0.76668 0.95483 0.0
C1906 C 0.09358 0.75159 0.9521 0.0
C1907 C 0.12776 0.82012 0.98532 0.0
C1908 C 0.1306 0.83809 0.97394 0.0
C1909 C 0.11462 0.8451 0.96264 0.0
C1910 C 0.14817 0.84905 0.97534 0.0
C1911 C 0.14983 0.86693 0.965 0.0
C1912 C 0.11628 0.86307 0.9525 0.0
C1913 C 0.1339 0.87398 0.95358 0.0
C1914 C 0.11266 0.80513 0.05473 0.0
C1915 C 0.09901 0.76648 0.03767 0.0
C1916 C 0.13088 0.73262 0.06986 0.0
C1917 C 0.12532 0.7141 0.08 0.0
C1918 C 0.13116 0.69572 0.07227 0.0
C1919 C 0.11551 0.71483 0.09836 0.0
C1920 C 0.11127 0.69728 0.10881 0.0
C1921 C 0.12725 0.67824 0.08276 0.0
C1922 C 0.11732 0.67897 0.10089 0.0
C1923 C 0.18099 0.77447 0.02032 0.0
H1924 H 0.1008 0.83676 0.96189 0.0
H1925 H 0.16043 0.84369 0.98426 0.0
H1926 H 0.10394 0.86853 0.94381 0.0
H1927 H 0.13519 0.88786 0.94551 0.0
H1928 H 0.13916 0.69492 0.05838 0.0
H1929 H 0.11097 0.72901 0.10442 0.0
H1930 H 0.13202 0.66409 0.07689 0.0
H1931 H 0.11453 0.66523 0.10883 0.0
Gd1932 Gd 0.73553 0.0183 0.63331 0.0
Gd1933 Gd 0.7664 0.97906 0.6423 0.0
C1934 C 0.74704 0.9246 0.67794 0.0
C1935 C 0.75778 0.93366 0.7111 0.0
C1936 C 0.766 0.95481 0.68304 0.0
C1937 C 0.75548 0.94234 0.67043 0.0
C1938 C 0.76831 0.9499 0.70322 0.0
C1939 C 0.74709 0.92102 0.69845 0.0
C1940 C 0.74032 0.91025 0.66454 0.0
C1941 C 0.74381 0.91299 0.64436 0.0
N1942 N 0.75605 0.94608 0.65058 0.0
C1943 C 0.75227 0.93083 0.63764 0.0
H1944 H 0.75546 0.93244 0.62207 0.0
C1945 C 0.79126 0.97933 0.68536 0.0
N1946 N 0.77592 0.97048 0.67505 0.0
C1947 C 0.79405 0.97502 0.70543 0.0
C1948 C 0.78204 0.96072 0.71458 0.0
H1949 H 0.8 0.99103 0.67857 0.0
H1950 H 0.74012 0.90779 0.70451 0.0
H1951 H 0.77777 0.03131 0.65733 0.0
H1952 H 0.73384 0.89639 0.66969 0.0
H1953 H 0.74019 0.90127 0.63398 0.0
H1954 H 0.75882 0.93004 0.7267 0.0
H1955 H 0.71543 1.01339 0.58643 0.0
H1956 H 0.8011 0.08239 0.62712 0.0
H1957 H 0.80235 0.05867 0.65513 0.0
H1958 H 0.76072 0.08665 0.56878 0.0
H1959 H 0.80527 0.98291 0.71387 0.0
H1960 H 0.78418 0.95744 0.73014 0.0
H1961 H 0.78515 0.093 0.59517 0.0
H1962 H 0.71401 0.03398 0.55658 0.0
N1963 N 0.76293 0.0395 0.63082 0.0
C1964 C 0.7904 0.07031 0.62791 0.0
C1965 C 0.79115 0.05694 0.64375 0.0
C1966 C 0.7761 0.06773 0.61306 0.0
C1967 C 0.76258 0.05176 0.61477 0.0
C1968 C 0.77719 0.04148 0.645 0.0
N1969 N 0.73714 0.03167 0.60103 0.0
C1970 C 0.74907 0.04795 0.59961 0.0
C1971 C 0.72393 0.03807 0.56855 0.0
C1972 C 0.73522 0.0555 0.56739 0.0
C1973 C 0.72522 0.0261 0.58541 0.0
C1974 C 0.74834 0.06037 0.58277 0.0
H1975 H 0.73415 0.06475 0.5543 0.0
O1976 O 0.71248 0.03612 0.62044 0.0
O1977 O 0.73977 0.99316 0.65278 0.0
O1978 O 0.74249 0.96555 0.62332 0.0
O1979 O 0.7234 0.99295 0.61364 0.0
O1980 O 0.71119 0.99673 0.64193 0.0
O1981 O 0.7191 0.03965 0.65127 0.0
O1982 O 0.79661 0.99227 0.63867 0.0
O1983 O 0.76194 1.00328 0.61738 0.0
O1984 O 0.74331 0.02417 0.6688 0.0
O1985 O 0.75897 0.99488 0.67423 0.0
O1986 O 0.76886 0.97546 0.60792 0.0
O1987 O 0.79098 0.96017 0.64314 0.0
C1988 C 0.72231 0.98605 0.65323 0.0
C1989 C 0.76113 0.07687 0.58154 0.0
C1990 C 0.77506 0.08047 0.59657 0.0
C1991 C 0.70641 0.04292 0.6371 0.0
C1992 C 0.68551 0.03871 0.64125 0.0
C1993 C 0.6745 0.02513 0.62955 0.0
C1994 C 0.67674 0.04736 0.65771 0.0
C1995 C 0.65739 0.0421 0.66283 0.0
C1996 C 0.65502 0.02022 0.63455 0.0
C1997 C 0.64646 0.0286 0.65126 0.0
C1998 C 0.72831 0.9738 0.6125 0.0
C1999 C 0.76486 0.993 0.60053 0.0
C2000 C 0.8041 0.97434 0.64086 0.0
C2001 C 0.82319 0.9676 0.633 0.0
C2002 C 0.84034 0.97275 0.64358 0.0
C2003 C 0.8233 0.95059 0.62089 0.0
C2004 C 0.83911 0.937 0.62174 0.0
C2005 C 0.85679 0.96026 0.6433 0.0
C2006 C 0.856 0.94224 0.63303 0.0
C2007 C 0.75155 1.01163 0.68247 0.0
H2008 H 0.68097 0.01806 0.6167 0.0
H2009 H 0.68508 0.05779 0.6668 0.0
H2010 H 0.64663 1.00981 0.62558 0.0
H2011 H 0.63129 0.02474 0.65509 0.0
H2012 H 0.84037 0.98542 0.65348 0.0
H2013 H 0.81003 0.94704 0.61249 0.0
H2014 H 0.8697 0.96388 0.6522 0.0
H2015 H 0.86835 0.93219 0.63472 0.0
Gd2016 Gd 0.76376 0.98141 0.38397 0.0
Gd2017 Gd 0.80419 1.01153 0.39068 0.0
C2018 C 0.85278 0.99857 0.43646 0.0
C2019 C 0.84601 0.0233 0.46158 0.0
C2020 C 0.82556 0.02164 0.43178 0.0
C2021 C 0.837 1.00589 0.42465 0.0
C2022 C 0.83047 0.03078 0.45002 0.0
C2023 C 0.85697 1.00713 0.45492 0.0
C2024 C 0.86405 0.98275 0.42952 0.0
C2025 C 0.85991 0.97474 0.41109 0.0
N2026 N 0.83291 0.9978 0.40646 0.0
C2027 C 0.84448 0.98244 0.39967 0.0
H2028 H 0.84223 0.97523 0.38573 0.0
C2029 C 0.79951 0.04477 0.42681 0.0
N2030 N 0.80963 0.02803 0.4211 0.0
C2031 C 0.80414 0.05433 0.44457 0.0
C2032 C 0.81951 0.04718 0.45633 0.0
H2033 H 0.78721 0.05017 0.41809 0.0
H2034 H 0.8689 1.0015 0.46409 0.0
H2035 H 0.75041 0.02385 0.40786 0.0
H2036 H 0.87604 0.97662 0.43828 0.0
H2037 H 0.86857 0.96242 0.4057 0.0
H2038 H 0.84968 0.02992 0.47575 0.0
H2039 H 0.76811 0.95794 0.3395 0.0
H2040 H 0.70897 0.05379 0.37054 0.0
H2041 H 0.72731 0.0514 0.40216 0.0
H2042 H 0.7092 1.01563 0.31082 0.0
H2043 H 0.79572 0.06713 0.44925 0.0
H2044 H 0.82289 0.0545 0.47023 0.0
H2045 H 0.70226 0.04032 0.33662 0.0
H2046 H 0.75267 0.95982 0.30674 0.0
N2047 N 0.7449 1.01025 0.37997 0.0
C2048 C 0.71904 0.04153 0.37296 0.0
C2049 C 0.72938 0.04023 0.39085 0.0
C2050 C 0.7221 0.02726 0.35826 0.0
C2051 C 0.73534 1.01158 0.36216 0.0
C2052 C 0.74241 0.02446 0.3941 0.0
N2053 N 0.75288 0.98323 0.35102 0.0
C2054 C 0.73934 0.99765 0.34739 0.0
C2055 C 0.74877 0.97053 0.31801 0.0
C2056 C 0.73483 0.98521 0.31401 0.0
C2057 C 0.75766 0.96969 0.33667 0.0
C2058 C 0.73 0.99903 0.3287 0.0
H2059 H 0.72804 0.98587 0.29948 0.0
O2060 O 0.75667 0.95169 0.37409 0.0
O2061 O 0.79348 0.98145 0.3957 0.0
O2062 O 0.81701 0.9892 0.37011 0.0
O2063 O 0.79006 0.96728 0.36612 0.0
O2064 O 0.7738 0.96423 0.41108 0.0
O2065 O 0.73367 0.97022 0.38709 0.0
O2066 O 0.7979 0.04265 0.38431 0.0
O2067 O 0.77812 1.00791 0.36796 0.0
O2068 O 0.75856 0.99029 0.41898 0.0
O2069 O 0.78744 1.00827 0.4229 0.0
O2070 O 0.80543 1.01339 0.35614 0.0
O2071 O 0.82891 0.03081 0.38483 0.0
C2072 C 0.79205 0.97029 0.41064 0.0
C2073 C 0.71648 1.01435 0.32508 0.0
C2074 C 0.71255 0.02842 0.33979 0.0
C2075 C 0.73786 0.95371 0.37789 0.0
C2076 C 0.72686 0.93594 0.38304 0.0
C2077 C 0.71646 0.92597 0.36799 0.0
C2078 C 0.72686 0.9286 0.40236 0.0
C2079 C 0.71601 0.91141 0.40661 0.0
C2080 C 0.70576 0.90871 0.37229 0.0
C2081 C 0.70545 0.90145 0.39159 0.0
C2082 C 0.80879 0.97312 0.36217 0.0
C2083 C 0.78722 1.01014 0.35043 0.0
C2084 C 0.81717 0.04624 0.38285 0.0
C2085 C 0.82549 0.06588 0.37805 0.0
C2086 C 0.81523 0.08324 0.38308 0.0
C2087 C 0.84485 0.06734 0.37049 0.0
C2088 C 0.8542 0.08589 0.36853 0.0
C2089 C 0.82447 0.1018 0.381 0.0
C2090 C 0.84394 0.10315 0.37394 0.0
C2091 C 0.77128 0.99987 0.4317 0.0
H2092 H 0.71669 0.93152 0.35292 0.0
H2093 H 0.73522 0.93612 0.4139 0.0
H2094 H 0.69781 0.90093 0.36068 0.0
H2095 H 0.69729 0.88788 0.39479 0.0
H2096 H 0.80039 0.08242 0.38921 0.0
H2097 H 0.85294 0.054 0.36663 0.0
H2098 H 0.81662 0.11515 0.38513 0.0
H2099 H 0.85091 0.11764 0.37247 0.0
Gd2100 Gd 0.79503 1.00761 0.13618 0.0
Gd2101 Gd 0.76754 0.05126 0.14274 0.0
C2102 C 0.78784 0.10203 0.18298 0.0
C2103 C 0.77086 0.09396 0.21369 0.0
C2104 C 0.76482 0.07419 0.18412 0.0
C2105 C 0.77832 0.08579 0.17355 0.0
C2106 C 0.76019 0.07889 0.20395 0.0
C2107 C 0.78471 0.10546 0.20324 0.0
C2108 C 0.79957 0.11487 0.1716 0.0
C2109 C 0.80004 0.11253 0.15111 0.0
N2110 N 0.78082 0.08233 0.15381 0.0
C2111 C 0.78986 0.09663 0.14234 0.0
H2112 H 0.78971 0.09575 0.12636 0.0
C2113 C 0.73789 0.05144 0.18257 0.0
N2114 N 0.75504 0.05929 0.17456 0.0
C2115 C 0.73267 0.05574 0.20212 0.0
C2116 C 0.74429 0.06901 0.21309 0.0
H2117 H 0.72925 0.04056 0.17448 0.0
H2118 H 0.79228 0.11756 0.21075 0.0
H2119 H 0.75016 0.99747 0.15618 0.0
H2120 H 0.80733 0.12731 0.17833 0.0
H2121 H 0.80806 0.12313 0.14203 0.0
H2122 H 0.76789 0.09742 0.22907 0.0
H2123 H 0.82215 1.00934 0.0933 0.0
H2124 H 0.72526 0.94967 0.12208 0.0
H2125 H 0.72324 0.97286 0.15043 0.0
H2126 H 0.77203 0.94138 0.06928 0.0
H2127 H 0.71984 0.04866 0.20879 0.0
H2128 H 0.74028 0.07225 0.22827 0.0
H2129 H 0.74379 0.93773 0.09209 0.0
H2130 H 0.82584 0.98808 0.06433 0.0
N2131 N 0.76677 0.98834 0.13115 0.0
C2132 C 0.73694 0.96058 0.12438 0.0
C2133 C 0.73576 0.97365 0.14043 0.0
C2134 C 0.75304 0.96187 0.11134 0.0
C2135 C 0.76772 0.97642 0.11489 0.0
C2136 C 0.75099 0.98754 0.14368 0.0
N2137 N 0.79631 0.99413 0.10432 0.0
C2138 C 0.78327 0.97895 0.10149 0.0
C2139 C 0.81376 0.98538 0.07458 0.0
C2140 C 0.80078 0.96942 0.07169 0.0
C2141 C 0.81129 0.9977 0.09098 0.0
C2142 C 0.78507 0.96628 0.08496 0.0
H2143 H 0.80272 0.95992 0.05891 0.0
O2144 O 0.82535 1.0008 0.12933 0.0
O2145 O 0.79411 0.03579 0.15 0.0
O2146 O 0.79471 0.06168 0.12672 0.0
O2147 O 0.80922 0.0319 0.11666 0.0
O2148 O 0.81549 0.01794 0.16092 0.0
O2149 O 0.80593 0.97764 0.14193 0.0
O2150 O 0.73603 0.04315 0.13811 0.0
O2151 O 0.77094 0.02576 0.11884 0.0
O2152 O 0.78441 1.00335 0.17065 0.0
O2153 O 0.77049 0.03424 0.17476 0.0
O2154 O 0.76622 0.05381 0.10848 0.0
O2155 O 0.74745 0.07443 0.13665 0.0
C2156 C 0.80851 0.03564 0.1619 0.0
C2157 C 0.77091 0.95123 0.08191 0.0
C2158 C 0.75483 0.94917 0.09492 0.0
C2159 C 0.82315 0.98212 0.13404 0.0
C2160 C 0.8409 0.97116 0.13932 0.0
C2161 C 0.84646 0.9555 0.12688 0.0
C2162 C 0.85341 0.9773 0.15478 0.0
C2163 C 0.8715 0.96758 0.15762 0.0
C2164 C 0.86447 0.9459 0.12977 0.0
C2165 C 0.87698 0.9519 0.14508 0.0
C2166 C 0.80784 0.05161 0.11638 0.0
C2167 C 0.76901 0.03589 0.10164 0.0
C2168 C 0.73217 0.06227 0.13584 0.0
C2169 C 0.71284 0.07068 0.13064 0.0
C2170 C 0.6958 0.06497 0.14111 0.0
C2171 C 0.71257 0.088 0.11905 0.0
C2172 C 0.69624 0.10084 0.11938 0.0
C2173 C 0.67902 0.07706 0.14073 0.0
C2174 C 0.67933 0.09507 0.13033 0.0
C2175 C 0.77663 0.01706 0.18335 0.0
H2176 H 0.83704 0.95101 0.11462 0.0
H2177 H 0.84926 0.98956 0.16429 0.0
H2178 H 0.86879 0.93388 0.12007 0.0
H2179 H 0.89092 0.94424 0.14727 0.0
H2180 H 0.69592 0.05196 0.15058 0.0
H2181 H 0.72573 0.09199 0.11068 0.0
H2182 H 0.66607 0.07298 0.14935 0.0
H2183 H 0.66656 0.10468 0.13145 0.0
Gd2184 Gd 0.76868 0.04949 0.88453 0.0
Gd2185 Gd 0.7299 0.01721 0.89191 0.0
C2186 C 0.67878 0.02891 0.93485 0.0
C2187 C 0.68758 1.00801 0.96272 0.0
C2188 C 0.70799 1.00812 0.93295 0.0
C2189 C 0.69549 0.02207 0.92418 0.0
C2190 C 0.70344 1.00024 0.95185 0.0
C2191 C 0.67549 0.02256 0.95437 0.0
C2192 C 0.66502 0.04091 0.92523 0.0
C2193 C 0.66687 0.04411 0.90502 0.0
N2194 N 0.69845 0.02743 0.90484 0.0
C2195 C 0.68335 0.03676 0.89485 0.0
H2196 H 0.6834 0.03854 0.87901 0.0
C2197 C 0.7347 0.98553 0.92956 0.0
N2198 N 0.72406 1.00151 0.92272 0.0
C2199 C 0.73044 0.97712 0.94799 0.0
C2200 C 0.71495 0.98469 0.95932 0.0
H2201 H 0.74717 0.97998 0.92123 0.0
H2202 H 0.66294 0.02799 0.96275 0.0
H2203 H 0.78266 1.00732 0.90704 0.0
H2204 H 0.65209 0.04648 0.93293 0.0
H2205 H 0.65523 0.05179 0.89724 0.0
H2206 H 0.68426 1.00254 0.97745 0.0
H2207 H 0.7643 0.07418 0.84021 0.0
H2208 H 0.82594 0.97956 0.87003 0.0
H2209 H 0.80654 0.98026 0.9011 0.0
H2210 H 0.82689 0.02043 0.81193 0.0
H2211 H 0.73927 0.96495 0.95357 0.0
H2212 H 0.71186 0.97829 0.97373 0.0
H2213 H 0.83369 0.99484 0.83699 0.0
H2214 H 0.78021 0.07361 0.80767 0.0
N2215 N 0.78862 0.02172 0.87969 0.0
C2216 C 0.81549 0.99146 0.87255 0.0
C2217 C 0.80455 0.9918 0.89011 0.0
C2218 C 0.81262 1.0063 0.8583 0.0
C2219 C 0.79881 0.02142 0.86227 0.0
C2220 C 0.79107 1.00716 0.89347 0.0
N2221 N 0.78058 0.04945 0.85166 0.0
C2222 C 0.79482 0.03577 0.84796 0.0
C2223 C 0.78446 0.06289 0.81884 0.0
C2224 C 0.79952 0.04932 0.81502 0.0
C2225 C 0.77513 0.06281 0.83729 0.0
C2226 C 0.8048 0.03548 0.82957 0.0
H2227 H 0.80669 0.04941 0.80067 0.0
O2228 O 0.78564 0.07457 0.87379 0.0
O2229 O 0.74366 0.04359 0.90353 0.0
O2230 O 0.71646 0.04144 0.87373 0.0
O2231 O 0.74323 0.06224 0.86544 0.0
O2232 O 0.74668 0.07281 0.89411 0.0
O2233 O 0.79213 0.06294 0.9027 0.0
O2234 O 0.73999 0.98644 0.88584 0.0
O2235 O 0.75478 0.02259 0.86782 0.0
O2236 O 0.77353 0.04126 0.92008 0.0
O2237 O 0.74568 0.02224 0.92447 0.0
O2238 O 0.72685 0.01686 0.85749 0.0
O2239 O 0.7081 0.99531 0.88802 0.0
C2240 C 0.73636 0.06076 0.90488 0.0
C2241 C 0.8191 0.02088 0.82595 0.0
C2242 C 0.82293 1.00628 0.84022 0.0
C2243 C 0.79447 0.07776 0.89046 0.0
C2244 C 0.7918 0.0979 0.89841 0.0
C2245 C 0.77526 0.10935 0.89271 0.0
C2246 C 0.80577 0.10594 0.91154 0.0
C2247 C 0.80297 0.12506 0.91919 0.0
C2248 C 0.77246 0.12828 0.9005 0.0
C2249 C 0.78622 0.13611 0.91378 0.0
C2250 C 0.72428 0.05655 0.86377 0.0
C2251 C 0.74466 0.0205 0.85073 0.0
C2252 C 0.72105 0.9811 0.88553 0.0
C2253 C 0.71291 0.96194 0.87931 0.0
C2254 C 0.71778 0.94481 0.88998 0.0
C2255 C 0.69558 0.96225 0.8678 0.0
C2256 C 0.68156 0.94683 0.86908 0.0
C2257 C 0.70467 0.92863 0.89012 0.0
C2258 C 0.68644 0.9298 0.88024 0.0
C2259 C 0.76166 0.03112 0.93318 0.0
H2260 H 0.76451 0.10382 0.88211 0.0
H2261 H 0.81878 0.09748 0.91568 0.0
H2262 H 0.75973 0.13696 0.89606 0.0
H2263 H 0.7841 0.15102 0.91945 0.0
H2264 H 0.73078 0.94457 0.89943 0.0
H2265 H 0.69221 0.97552 0.85933 0.0
H2266 H 0.70808 0.91564 0.89893 0.0
H2267 H 0.67597 0.91765 0.882 0.0
Gd2268 Gd 0.6465 0.76589 0.98146 0.0
Gd2269 Gd 0.64113 0.72933 1.01584 0.0
C2270 C 0.60322 0.67223 1.00971 0.0
C2271 C 0.5763 0.67882 0.03242 0.0
C2272 C 0.60295 0.70319 0.02802 0.0
C2273 C 0.61239 0.69068 1.01457 0.0
C2274 C 0.58527 0.69692 0.03758 0.0
C2275 C 0.5851 0.66665 0.01834 0.0
C2276 C 0.61252 0.65956 0.99647 0.0
C2277 C 0.63106 0.66459 0.98928 0.0
N2278 N 0.63062 0.69591 1.00698 0.0
C2279 C 0.64034 0.68223 0.99529 0.0
H2280 H 0.65531 0.68403 0.99018 0.0
C2281 C 0.60414 0.73209 0.04805 0.0
N2282 N 0.6115 0.72094 0.0327 0.0
C2283 C 0.58705 0.72614 0.05815 0.0
C2284 C 0.57734 0.70869 0.05263 0.0
H2285 H 0.61119 0.74601 0.05206 0.0
H2286 H 0.57805 0.6526 1.01463 0.0
H2287 H 0.63225 0.78473 0.02465 0.0
H2288 H 0.60569 0.64562 0.99202 0.0
H2289 H 0.63816 0.65461 0.9791 0.0
H2290 H 0.56266 0.67394 0.03947 0.0
H2291 H 0.6798 0.76503 0.9443 0.0
H2292 H 0.67984 0.8216 0.04632 0.0
H2293 H 0.64613 0.80723 0.05044 0.0
H2294 H 0.72918 0.81678 0.99538 0.0
H2295 H 0.58117 0.73522 0.06995 0.0
H2296 H 0.56393 0.70422 0.06035 0.0
H2297 H 0.71084 0.82493 0.02576 0.0
H2298 H 0.71338 0.77833 0.93759 0.0
N2299 N 0.6579 0.78665 1.0066 0.0
C2300 C 0.6738 0.81188 0.035 0.0
C2301 C 0.65475 0.80378 0.03739 0.0
C2302 C 0.68481 0.80744 0.018 0.0
C2303 C 0.67628 0.79475 1.00374 0.0
C2304 C 0.64691 0.79114 0.02286 0.0
N2305 N 0.67815 0.77772 0.97311 0.0
C2306 C 0.68671 0.79005 0.98659 0.0
C2307 C 0.70614 0.78159 0.9515 0.0
C2308 C 0.7156 0.79354 0.96558 0.0
C2309 C 0.68719 0.77397 0.95542 0.0
C2310 C 0.70581 0.79811 0.98328 0.0
H2311 H 0.73029 0.79943 0.96251 0.0
O2312 O 0.64175 0.77382 0.95111 0.0
O2313 O 0.62741 0.74119 0.9894 0.0
O2314 O 0.66129 0.71587 0.99291 0.0
O2315 O 0.66706 0.74136 0.9699 0.0
O2316 O 0.63828 0.74122 0.96089 0.0
O2317 O 0.63483 0.79526 0.97413 0.0
O2318 O 0.64831 0.74416 0.04426 0.0
O2319 O 0.66405 0.75468 1.00873 0.0
O2320 O 0.61133 0.77031 0.99061 0.0
O2321 O 0.60779 0.74405 1.01157 0.0
O2322 O 0.67592 0.72785 1.01641 0.0
O2323 O 0.64345 0.7118 0.04145 0.0
C2324 C 0.62617 0.73235 0.97287 0.0
C2325 C 0.71446 0.81057 0.9976 0.0
C2326 C 0.70399 0.81523 1.0149 0.0
C2327 C 0.63483 0.79128 0.95524 0.0
C2328 C 0.63976 0.80664 0.94091 0.0
C2329 C 0.65838 0.81606 0.94031 0.0
C2330 C 0.62638 0.809 0.92531 0.0
C2331 C 0.63172 0.81995 0.9086 0.0
C2332 C 0.6636 0.82753 0.92379 0.0
C2333 C 0.65043 0.82927 0.90782 0.0
C2334 C 0.66998 0.72302 0.97674 0.0
C2335 C 0.68167 0.74581 1.01144 0.0
C2336 C 0.64777 0.72669 0.05314 0.0
C2337 C 0.66065 0.72139 0.0698 0.0
C2338 C 0.65757 0.73043 0.08821 0.0
C2339 C 0.67097 0.70333 0.06892 0.0
C2340 C 0.67606 0.69322 0.08624 0.0
C2341 C 0.6641 0.72113 0.10555 0.0
C2342 C 0.67299 0.70241 0.10464 0.0
C2343 C 0.59863 0.75927 1.00195 0.0
H2344 H 0.66896 0.8141 0.95221 0.0
H2345 H 0.61214 0.80131 0.92566 0.0
H2346 H 0.67803 0.83469 0.92316 0.0
H2347 H 0.65475 0.83791 0.89496 0.0
H2348 H 0.649 0.74396 0.08928 0.0
H2349 H 0.6733 0.69609 0.05477 0.0
H2350 H 0.66124 0.7279 0.11978 0.0
H2351 H 0.67674 0.69481 0.11828 0.0
Gd2352 Gd 0.01816 0.13586 0.79714 0.0
Gd2353 Gd 0.05172 0.14466 0.76011 0.0
C2354 C 0.10249 0.18987 0.76817 0.0
C2355 C 0.09317 0.21557 0.74486 0.0
C2356 C 0.07235 0.18598 0.74861 0.0
C2357 C 0.08557 0.17837 0.76279 0.0
C2358 C 0.07655 0.20433 0.73916 0.0
C2359 C 0.10594 0.20849 0.75944 0.0
C2360 C 0.11582 0.18237 0.78205 0.0
C2361 C 0.11255 0.16369 0.79005 0.0
N2362 N 0.08233 0.15989 0.77091 0.0
C2363 C 0.09586 0.15268 0.7844 0.0
H2364 H 0.09404 0.13901 0.79219 0.0
C2365 C 0.04374 0.18157 0.72832 0.0
N2366 N 0.05566 0.17543 0.74368 0.0
C2367 C 0.0475 0.19955 0.71867 0.0
C2368 C 0.06385 0.21105 0.72422 0.0
H2369 H 0.03085 0.17289 0.72411 0.0
H2370 H 0.11875 0.21739 0.76361 0.0
H2371 H 0.99632 0.15503 0.75729 0.0
H2372 H 0.12878 0.19086 0.78662 0.0
H2373 H 0.12272 0.15781 0.80098 0.0
H2374 H 0.09634 0.22982 0.73799 0.0
H2375 H 0.02455 0.09637 0.82725 0.0
H2376 H 0.94599 0.11795 0.74375 0.0
H2377 H 0.96641 0.14793 0.73689 0.0
H2378 H 0.95148 0.06454 0.79059 0.0
H2379 H 0.03773 0.20457 0.70699 0.0
H2380 H 0.06661 0.22508 0.71677 0.0
H2381 H 0.94031 0.08705 0.76414 0.0
H2382 H 1.00793 0.06437 0.83403 0.0
N2383 N 0.99291 0.129 0.7747 0.0
C2384 C 0.95918 0.12086 0.75251 0.0
C2385 C 0.9707 0.1378 0.74857 0.0
C2386 C 0.9648 0.10786 0.7677 0.0
C2387 C 0.98207 0.11234 0.77863 0.0
C2388 C 0.98761 0.14175 0.76 0.0
N2389 N 1.00532 0.10407 0.80345 0.0
C2390 C 0.98837 0.0996 0.79355 0.0
C2391 C 1.00238 0.07401 0.82246 0.0
C2392 C 0.98485 0.06918 0.81246 0.0
C2393 C 1.0122 0.09186 0.8181 0.0
C2394 C 0.97753 0.0821 0.79794 0.0
H2395 H 0.97704 0.05554 0.81614 0.0
O2396 O 1.01428 0.13474 0.82871 0.0
O2397 O 0.04235 0.15579 0.78915 0.0
O2398 O 0.06817 0.12349 0.77927 0.0
O2399 O 0.0437 0.11385 0.80211 0.0
O2400 O 0.04425 0.14162 0.81653 0.0
O2401 O 0.99161 0.14864 0.81045 0.0
O2402 O 0.04205 0.13783 0.72972 0.0
O2403 O 0.02715 0.12072 0.76809 0.0
O2404 O 1.01285 0.17146 0.79021 0.0
O2405 O 0.03509 0.1761 0.76524 0.0
O2406 O 0.05219 0.11025 0.7556 0.0
O2407 O 0.07325 0.14467 0.73743 0.0
C2408 C 0.05241 0.1546 0.80504 0.0
C2409 C 0.96004 0.07785 0.78739 0.0
C2410 C 0.95373 0.09066 0.77228 0.0
C2411 C 0.99735 0.14385 0.82826 0.0
C2412 C 0.98271 0.13747 0.84288 0.0
C2413 C 0.97639 0.11767 0.84487 0.0
C2414 C 0.97762 0.15132 0.85724 0.0
C2415 C 0.96729 0.14541 0.87421 0.0
C2416 C 0.96575 0.11168 0.86161 0.0
C2417 C 0.96136 0.12545 0.87637 0.0
C2418 C 0.06184 0.11242 0.79426 0.0
C2419 C 0.0355 0.10344 0.76273 0.0
C2420 C 0.06064 0.13943 0.72359 0.0
C2421 C 0.0689 0.12553 0.70906 0.0
C2422 C 0.06177 0.12583 0.68958 0.0
C2423 C 0.08679 0.11564 0.71333 0.0
C2424 C 0.09811 0.10728 0.69815 0.0
C2425 C 0.07253 0.11667 0.6745 0.0
C2426 C 0.0907 0.10764 0.67867 0.0
C2427 C 0.02174 0.18451 0.77745 0.0
H2428 H 0.97984 0.10682 0.83384 0.0
H2429 H 0.9824 0.16667 0.8555 0.0
H2430 H 0.96129 0.09629 0.86332 0.0
H2431 H 0.95367 0.12045 0.88957 0.0
H2432 H 0.04842 0.13393 0.68589 0.0
H2433 H 0.09259 0.11546 0.72831 0.0
H2434 H 0.06718 0.11729 0.65939 0.0
H2435 H 0.09927 0.10155 0.66658 0.0
Gd2436 Gd 0.88655 0.26208 0.48818 0.0
Gd2437 Gd 0.8928 0.30468 0.51503 0.0
C2438 C 0.93146 0.35943 0.50179 0.0
C2439 C 0.95691 0.35675 0.52704 0.0
C2440 C 0.93063 0.3317 0.52489 0.0
C2441 C 0.92205 0.34192 0.50895 0.0
C2442 C 0.94805 0.33921 0.53404 0.0
C2443 C 0.94867 0.36679 0.51099 0.0
C2444 C 0.92386 0.36883 0.48505 0.0
C2445 C 0.90779 0.36046 0.47525 0.0
N2446 N 0.90547 0.33432 0.49974 0.0
C2447 C 0.89898 0.34307 0.48248 0.0
H2448 H 0.88753 0.33687 0.4733 0.0
C2449 C 0.93002 0.3045 0.54738 0.0
N2450 N 0.92235 0.3143 0.53125 0.0
C2451 C 0.94713 0.31151 0.55678 0.0
C2452 C 0.95625 0.32886 0.55002 0.0
H2453 H 0.92333 0.29078 0.55252 0.0
H2454 H 0.95595 0.38015 0.50557 0.0
H2455 H 0.89548 0.24761 0.53455 0.0
H2456 H 0.93077 0.38215 0.47911 0.0
H2457 H 0.90242 0.3672 0.46173 0.0
H2458 H 0.9703 0.3626 0.53386 0.0
H2459 H 0.85896 0.25836 0.44691 0.0
H2460 H 0.84492 0.21341 0.55371 0.0
H2461 H 0.87825 0.22763 0.56045 0.0
H2462 H 0.80239 0.21305 0.4967 0.0
H2463 H 0.95332 0.30347 0.5692 0.0
H2464 H 0.9696 0.3342 0.5573 0.0
H2465 H 0.81655 0.20834 0.52995 0.0
H2466 H 0.82631 0.24417 0.43727 0.0
N2467 N 0.87182 0.24471 0.51402 0.0
C2468 C 0.85234 0.22216 0.54241 0.0
C2469 C 0.87118 0.23018 0.54629 0.0
C2470 C 0.84343 0.2252 0.5239 0.0
C2471 C 0.85376 0.23655 0.50967 0.0
C2472 C 0.88088 0.24142 0.53173 0.0
N2473 N 0.8562 0.24963 0.47706 0.0
C2474 C 0.84574 0.23912 0.49075 0.0
C2475 C 0.83154 0.24276 0.45237 0.0
C2476 C 0.8201 0.23264 0.46643 0.0
C2477 C 0.84988 0.25089 0.45787 0.0
C2478 C 0.82728 0.23043 0.48579 0.0
H2479 H 0.80591 0.22629 0.4621 0.0
O2480 O 0.90041 0.25039 0.46224 0.0
O2481 O 0.90529 0.2882 0.49013 0.0
O2482 O 0.8717 0.31428 0.49133 0.0
O2483 O 0.86444 0.28456 0.47427 0.0
O2484 O 0.89197 0.28205 0.46273 0.0
O2485 O 0.89287 0.23023 0.48606 0.0
O2486 O 0.88823 0.29831 0.54663 0.0
O2487 O 0.87058 0.27789 0.51344 0.0
O2488 O 0.92117 0.25927 0.49995 0.0
O2489 O 0.92616 0.29069 0.51144 0.0
O2490 O 0.85823 0.30513 0.5175 0.0
O2491 O 0.88644 0.32906 0.53402 0.0
C2492 C 0.9049 0.29309 0.47187 0.0
C2493 C 0.8167 0.21966 0.50018 0.0
C2494 C 0.82476 0.217 0.51914 0.0
C2495 C 0.9001 0.23213 0.46829 0.0
C2496 C 0.89463 0.21806 0.45283 0.0
C2497 C 0.87585 0.20897 0.45156 0.0
C2498 C 0.90799 0.21642 0.43716 0.0
C2499 C 0.90251 0.20667 0.41987 0.0
C2500 C 0.87046 0.19875 0.43429 0.0
C2501 C 0.88369 0.19775 0.41834 0.0
C2502 C 0.86192 0.30402 0.47761 0.0
C2503 C 0.85284 0.28665 0.51536 0.0
C2504 C 0.88575 0.31756 0.54972 0.0
C2505 C 0.88055 0.32639 0.56885 0.0
C2506 C 0.89178 0.32172 0.58562 0.0
C2507 C 0.86759 0.3427 0.5693 0.0
C2508 C 0.86687 0.35546 0.58584 0.0
C2509 C 0.89093 0.33389 0.60229 0.0
C2510 C 0.87902 0.35082 0.60228 0.0
C2511 C 0.93458 0.27313 0.50646 0.0
H2512 H 0.86527 0.21023 0.46352 0.0
H2513 H 0.92241 0.22373 0.438 0.0
H2514 H 0.85588 0.19199 0.43311 0.0
H2515 H 0.87926 0.19022 0.40486 0.0
H2516 H 0.90216 0.30949 0.58537 0.0
H2517 H 0.85867 0.34563 0.55631 0.0
H2518 H 0.90021 0.33067 0.61497 0.0
H2519 H 0.87992 0.36044 0.61506 0.0
Gd2520 Gd 0.55533 0.89187 0.76659 0.0
Gd2521 Gd 0.5156 0.89649 0.79897 0.0
C2522 C 0.47293 0.93604 0.76616 0.0
C2523 C 0.46742 0.96246 0.79011 0.0
C2524 C 0.4901 0.93557 0.7978 0.0
C2525 C 0.48625 0.92696 0.7794 0.0
C2526 C 0.48045 0.95322 0.80343 0.0
C2527 C 0.46369 0.95392 0.77154 0.0
C2528 C 0.46908 0.92669 0.74802 0.0
C2529 C 0.47826 0.90863 0.74356 0.0
N2530 N 0.49518 0.90952 0.77463 0.0
C2531 C 0.4913 0.9001 0.75723 0.0
H2532 H 0.49837 0.88609 0.75398 0.0
C2533 C 0.50576 0.93335 0.82917 0.0
N2534 N 0.50282 0.92642 0.81039 0.0
C2535 C 0.49661 0.95085 0.83537 0.0
C2536 C 0.48397 0.9609 0.82241 0.0
H2537 H 0.51511 0.92528 0.83939 0.0
H2538 H 0.45343 0.96113 0.76152 0.0
H2539 H 0.60083 0.91034 0.78453 0.0
H2540 H 0.45889 0.93318 0.73744 0.0
H2541 H 0.4752 0.90126 0.72965 0.0
H2542 H 0.45997 0.9761 0.79412 0.0
H2543 H 0.54445 0.85954 0.72891 0.0
H2544 H 0.63492 0.8597 0.80114 0.0
H2545 H 0.63069 0.89604 0.79961 0.0
H2546 H 0.60305 0.80662 0.76671 0.0
H2547 H 0.49914 0.95646 0.85018 0.0
H2548 H 0.47683 0.97441 0.82728 0.0
H2549 H 0.62389 0.8261 0.78952 0.0
H2550 H 0.55291 0.82508 0.71982 0.0
N2551 N 0.58715 0.88215 0.77856 0.0
C2552 C 0.62162 0.86581 0.79453 0.0
C2553 C 0.61917 0.88636 0.79387 0.0
C2554 C 0.60781 0.85355 0.785 0.0
C2555 C 0.59085 0.86232 0.7764 0.0
C2556 C 0.60198 0.89437 0.78547 0.0
N2557 N 0.56394 0.86031 0.75387 0.0
C2558 C 0.57916 0.8512 0.76343 0.0
C2559 C 0.56026 0.83219 0.73222 0.0
C2560 C 0.57404 0.8217 0.74355 0.0
C2561 C 0.55574 0.8518 0.73721 0.0
C2562 C 0.58413 0.83136 0.75896 0.0
H2563 H 0.57739 0.80644 0.73974 0.0
O2564 O 0.54668 0.89694 0.73521 0.0
O2565 O 0.52927 0.9143 0.77262 0.0
O2566 O 0.51077 0.86218 0.78716 0.0
O2567 O 0.53988 0.85874 0.77068 0.0
O2568 O 0.55568 0.92651 0.76433 0.0
O2569 O 0.578 0.89591 0.7456 0.0
O2570 O 0.50818 0.88611 0.82806 0.0
O2571 O 0.54128 0.87886 0.79219 0.0
O2572 O 0.56688 0.91083 0.79164 0.0
O2573 O 0.53867 0.91923 0.81028 0.0
O2574 O 0.53847 0.88833 0.82159 0.0
O2575 O 0.48534 0.88616 0.80534 0.0
C2576 C 0.538 0.93217 0.7696 0.0
C2577 C 0.59949 0.82207 0.76942 0.0
C2578 C 0.6113 0.83315 0.78248 0.0
C2579 C 0.56578 0.89787 0.7307 0.0
C2580 C 0.5744 0.90633 0.71249 0.0
C2581 C 0.56687 0.90042 0.69408 0.0
C2582 C 0.5924 0.91724 0.71335 0.0
C2583 C 0.60298 0.92185 0.696 0.0
C2584 C 0.57719 0.90513 0.67676 0.0
C2585 C 0.59513 0.91565 0.67767 0.0
C2586 C 0.52343 0.84952 0.77793 0.0
C2587 C 0.54891 0.87809 0.80931 0.0
C2588 C 0.48983 0.88206 0.82371 0.0
C2589 C 0.47589 0.88636 0.83962 0.0
C2590 C 0.46612 0.90461 0.84127 0.0
C2591 C 0.47496 0.8726 0.85516 0.0
C2592 C 0.46507 0.87722 0.87269 0.0
C2593 C 0.45604 0.90924 0.85873 0.0
C2594 C 0.45567 0.89572 0.8745 0.0
C2595 C 0.55784 0.92134 0.8056 0.0
H2596 H 0.55346 0.89147 0.69316 0.0
H2597 H 0.59847 0.9217 0.72756 0.0
H2598 H 0.57151 0.90017 0.66259 0.0
H2599 H 0.60311 0.91857 0.66405 0.0
H2600 H 0.46667 0.91536 0.82937 0.0
H2601 H 0.4827 0.85855 0.85393 0.0
H2602 H 0.44869 0.92343 0.86015 0.0
H2603 H 0.44782 0.89952 0.88794 0.0
Gd2604 Gd 0.01762 0.14108 0.29981 0.0
Gd2605 Gd 0.98147 0.14576 0.26313 0.0
C2606 C 0.02353 0.16913 0.21507 0.0
C2607 C 1.01207 0.20299 0.21058 0.0
C2608 C 0.99604 0.18115 0.23459 0.0
C2609 C 1.00874 0.16584 0.22956 0.0
C2610 C 0.99764 0.19991 0.2252 0.0
C2611 C 0.02498 0.18765 0.20553 0.0
C2612 C 0.0368 0.15386 0.21086 0.0
C2613 C 0.03546 0.13604 0.2213 0.0
N2614 N 1.00726 0.14813 0.23934 0.0
C2615 C 0.02071 0.13349 0.23564 0.0
H2616 H 0.02063 0.11983 0.2437 0.0
C2617 C 0.9702 0.19303 0.25492 0.0
N2618 N 0.98265 0.17802 0.24922 0.0
C2619 C 0.97107 0.21167 0.24586 0.0
C2620 C 0.98491 0.21518 0.23097 0.0
H2621 H 0.95953 0.19107 0.26666 0.0
H2622 H 0.03624 0.19035 0.19438 0.0
H2623 H 0.98393 0.14618 0.33876 0.0
H2624 H 0.04836 0.15582 0.19988 0.0
H2625 H 0.04595 0.12427 0.21844 0.0
H2626 H 1.01352 0.21728 0.20326 0.0
H2627 H 0.05665 0.11555 0.28115 0.0
H2628 H 0.98687 0.09337 0.37285 0.0
H2629 H 0.97267 0.12644 0.36652 0.0
H2630 H 0.03882 0.0561 0.34329 0.0
H2631 H 0.96125 0.22341 0.2506 0.0
H2632 H 0.98576 0.22976 0.22416 0.0
H2633 H 1.01115 0.0673 0.3639 0.0
H2634 H 0.07475 0.08455 0.28906 0.0
N2635 N 1.00496 0.12474 0.32816 0.0
C2636 C 0.99217 0.10207 0.36039 0.0
C2637 C 0.98414 0.12073 0.3569 0.0
C2638 C 1.00712 0.09493 0.34797 0.0
C2639 C 1.01342 0.10668 0.3317 0.0
C2640 C 0.99079 0.13198 0.34083 0.0
N2641 N 0.03475 0.11096 0.30346 0.0
C2642 C 0.02887 0.09991 0.3195 0.0
C2643 C 0.06177 0.08861 0.29751 0.0
C2644 C 0.0551 0.07638 0.31289 0.0
C2645 C 0.05152 0.10606 0.29305 0.0
C2646 C 0.03854 0.08191 0.32406 0.0
H2647 H 0.06299 0.06277 0.31615 0.0
O2648 O 0.04913 0.14744 0.30336 0.0
O2649 O 1.00736 0.16296 0.27568 0.0
O2650 O 0.99006 0.11056 0.25888 0.0
O2651 O 1.01476 0.10857 0.28265 0.0
O2652 O 0.03123 0.17186 0.28948 0.0
O2653 O 0.02783 0.15246 0.32767 0.0
O2654 O 0.95187 0.15667 0.26398 0.0
O2655 O 0.98582 0.13594 0.29382 0.0
O2656 O 0.99677 0.16332 0.31276 0.0
O2657 O 0.97187 0.16567 0.28888 0.0
O2658 O 0.96885 0.11772 0.27639 0.0
O2659 O 0.96116 0.13991 0.23839 0.0
C2660 C 0.01776 0.17956 0.2782 0.0
C2661 C 0.03177 0.07012 0.33986 0.0
C2662 C 1.01602 0.07652 0.35163 0.0
C2663 C 0.04641 0.15296 0.32187 0.0
C2664 C 0.06088 0.14728 0.33702 0.0
C2665 C 0.07145 0.12941 0.33657 0.0
C2666 C 0.06326 0.16017 0.35306 0.0
C2667 C 0.07554 0.15516 0.36903 0.0
C2668 C 0.08383 0.1243 0.35234 0.0
C2669 C 0.0858 0.13701 0.36858 0.0
C2670 C 1.00291 0.09876 0.26932 0.0
C2671 C 0.97569 0.12002 0.29411 0.0
C2672 C 0.94641 0.14855 0.24749 0.0
C2673 C 0.92696 0.13852 0.24831 0.0
C2674 C 0.91395 0.14191 0.26434 0.0
C2675 C 0.92067 0.12657 0.23256 0.0
C2676 C 0.90181 0.11787 0.23301 0.0
C2677 C 0.89515 0.13314 0.2647 0.0
C2678 C 0.88907 0.1211 0.24908 0.0
C2679 C 0.98033 0.1713 0.30579 0.0
H2680 H 0.07019 0.11941 0.32426 0.0
H2681 H 0.05546 0.17422 0.35301 0.0
H2682 H 0.09181 0.11039 0.35204 0.0
H2683 H 0.09523 0.13257 0.38078 0.0
H2684 H 0.91814 0.15149 0.27654 0.0
H2685 H 0.93026 0.12419 0.2199 0.0
H2686 H 0.88524 0.13585 0.277 0.0
H2687 H 0.87433 0.11452 0.24933 0.0
Gd2688 Gd 0.54866 0.14326 0.76955 0.0
Gd2689 Gd 0.51621 0.13553 0.73218 0.0
C2690 C 0.46611 0.10401 0.764 0.0
C2691 C 0.4598 0.07583 0.74228 0.0
C2692 C 0.48651 0.09916 0.7348 0.0
C2693 C 0.48171 0.11026 0.75152 0.0
C2694 C 0.47552 0.08189 0.72999 0.0
C2695 C 0.45522 0.08675 0.7593 0.0
C2696 C 0.46186 0.11537 0.78082 0.0
C2697 C 0.47282 0.13267 0.78465 0.0
N2698 N 0.49231 0.12707 0.75565 0.0
C2699 C 0.48796 0.13848 0.77168 0.0
H2700 H 0.49616 0.15198 0.77447 0.0
C2701 C 0.50704 0.09487 0.70667 0.0
N2702 N 0.50193 0.10515 0.72331 0.0
C2703 C 0.49667 0.07759 0.70142 0.0
C2704 C 0.48084 0.07106 0.71313 0.0
H2705 H 0.51894 0.10015 0.69726 0.0
H2706 H 0.44316 0.08175 0.76872 0.0
H2707 H 0.59677 0.13209 0.75095 0.0
H2708 H 0.45006 0.11099 0.79083 0.0
H2709 H 0.46949 0.14162 0.79752 0.0
H2710 H 0.45124 0.06256 0.73887 0.0
H2711 H 0.53538 0.17288 0.80898 0.0
H2712 H 0.6231 0.18733 0.73492 0.0
H2713 H 0.62329 0.15066 0.73496 0.0
H2714 H 0.58605 0.23434 0.77192 0.0
H2715 H 0.50077 0.06944 0.68826 0.0
H2716 H 0.47281 0.05767 0.70901 0.0
H2717 H 0.60866 0.21857 0.7483 0.0
H2718 H 0.53994 0.20777 0.81901 0.0
N2719 N 0.57925 0.15768 0.75807 0.0
C2720 C 0.61089 0.17921 0.74166 0.0
C2721 C 0.61106 0.15853 0.74166 0.0
C2722 C 0.59594 0.1891 0.75192 0.0
C2723 C 0.58031 0.17783 0.76044 0.0
C2724 C 0.59541 0.14797 0.75042 0.0
N2725 N 0.55367 0.1755 0.7832 0.0
C2726 C 0.56736 0.18691 0.77363 0.0
C2727 C 0.54754 0.20218 0.80608 0.0
C2728 C 0.55942 0.21483 0.79471 0.0
C2729 C 0.54529 0.1823 0.80051 0.0
C2730 C 0.57007 0.20712 0.77872 0.0
H2731 H 0.56113 0.23025 0.79906 0.0
O2732 O 0.54097 0.13719 0.80082 0.0
O2733 O 0.52475 0.11886 0.76107 0.0
O2734 O 0.51459 0.17118 0.73844 0.0
O2735 O 0.52724 0.17184 0.76932 0.0
O2736 O 0.5494 0.10889 0.77448 0.0
O2737 O 0.5721 0.14091 0.78995 0.0
O2738 O 0.50984 0.13776 0.70105 0.0
O2739 O 0.54133 0.15489 0.73964 0.0
O2740 O 0.56419 0.12344 0.74839 0.0
O2741 O 0.53978 0.11197 0.72658 0.0
O2742 O 0.54203 0.14013 0.71225 0.0
O2743 O 0.48921 0.15038 0.72256 0.0
C2744 C 0.53323 0.10161 0.76673 0.0
C2745 C 0.58418 0.21868 0.76859 0.0
C2746 C 0.59705 0.2097 0.75513 0.0
C2747 C 0.56012 0.13797 0.80495 0.0
C2748 C 0.5693 0.13153 0.82338 0.0
C2749 C 0.56456 0.14123 0.84104 0.0
C2750 C 0.5864 0.11986 0.82226 0.0
C2751 C 0.59995 0.11942 0.83798 0.0
C2752 C 0.57741 0.14001 0.8572 0.0
C2753 C 0.5952 0.12956 0.8556 0.0
C2754 C 0.51927 0.18233 0.75441 0.0
C2755 C 0.55116 0.15271 0.72355 0.0
C2756 C 0.4937 0.14786 0.70392 0.0
C2757 C 0.47802 0.14541 0.68936 0.0
C2758 C 0.46682 0.12786 0.68755 0.0
C2759 C 0.47613 0.16055 0.67536 0.0
C2760 C 0.46335 0.1582 0.65933 0.0
C2761 C 0.45375 0.12559 0.67157 0.0
C2762 C 0.45205 0.1407 0.65741 0.0
C2763 C 0.55783 0.1111 0.73455 0.0
H2764 H 0.55169 0.15077 0.84189 0.0
H2765 H 0.58974 0.11224 0.80853 0.0
H2766 H 0.57407 0.14801 0.87067 0.0
H2767 H 0.60545 0.12999 0.86794 0.0
H2768 H 0.46842 0.11592 0.69815 0.0
H2769 H 0.4851 0.17397 0.67658 0.0
H2770 H 0.44518 0.11201 0.66999 0.0
H2771 H 0.44213 0.13871 0.64492 0.0
Gd2772 Gd 0.13887 0.30214 0.0213 0.0
Gd2773 Gd 0.14487 0.26709 0.98467 0.0
C2774 C 0.18055 0.2202 1.01619 0.0
C2775 C 0.20798 0.21519 0.99331 0.0
C2776 C 0.18256 0.23959 0.98592 0.0
C2777 C 0.17279 0.23484 1.0035 0.0
C2778 C 0.20012 0.22964 0.98056 0.0
C2779 C 0.19825 0.2105 1.01107 0.0
C2780 C 0.17015 0.21559 0.03358 0.0
C2781 C 0.15238 0.22536 0.03784 0.0
N2782 N 0.15561 0.24432 1.00808 0.0
C2783 C 0.14518 0.23974 0.02472 0.0
H2784 H 0.13139 0.24725 0.02783 0.0
C2785 C 0.18322 0.25815 0.95605 0.0
N2786 N 0.1748 0.25375 0.97394 0.0
C2787 C 0.20065 0.2487 0.95015 0.0
C2788 C 0.20918 0.23443 0.96248 0.0
H2789 H 0.17644 0.26891 0.9463 0.0
H2790 H 0.20445 0.19922 0.02067 0.0
H2791 H 0.16243 0.34805 1.01483 0.0
H2792 H 0.17563 0.2044 0.04373 0.0
H2793 H 0.1442 0.22176 0.05116 0.0
H2794 H 0.22151 0.20747 0.9895 0.0
H2795 H 0.10058 0.29692 0.05472 0.0
H2796 H 0.11984 0.3869 0.98839 0.0
H2797 H 0.15426 0.38014 0.99919 0.0
H2798 H 0.05845 0.35594 1.0059 0.0
H2799 H 0.20741 0.25234 0.93606 0.0
H2800 H 0.22268 0.2271 0.95786 0.0
H2801 H 0.08375 0.37695 0.9898 0.0
H2802 H 0.06541 0.30701 0.05698 0.0
N2803 N 0.13341 0.33578 1.01097 0.0
C2804 C 0.1234 0.37266 0.99498 0.0
C2805 C 0.14285 0.36889 1.00105 0.0
C2806 C 0.10849 0.35882 0.99942 0.0
C2807 C 0.114 0.34052 1.00801 0.0
C2808 C 0.14747 0.35057 1.0097 0.0
N2809 N 0.10614 0.31352 0.02831 0.0
C2810 C 0.09974 0.32873 0.01692 0.0
C2811 C 0.07477 0.31297 0.04535 0.0
C2812 C 0.06696 0.326 0.0313 0.0
C2813 C 0.09471 0.30743 0.0441 0.0
C2814 C 0.07976 0.33496 0.01757 0.0
H2815 H 0.05153 0.33036 0.03232 0.0
O2816 O 0.1459 0.2904 0.05093 0.0
O2817 O 0.16215 0.27788 1.01253 0.0
O2818 O 0.10965 0.26398 0.9924 0.0
O2819 O 0.10861 0.28174 0.02082 0.0
O2820 O 0.17329 0.30293 0.02533 0.0
O2821 O 0.13607 0.32087 0.04643 0.0
O2822 O 0.13878 0.26141 0.95402 0.0
O2823 O 0.12627 0.29185 0.99327 0.0
O2824 O 0.15949 0.31608 0.99826 0.0
O2825 O 0.1679 0.29044 0.97634 0.0
O2826 O 0.13877 0.29282 0.96499 0.0
O2827 O 0.13137 0.23877 0.97603 0.0
C2828 C 0.17966 0.28635 0.01764 0.0
C2829 C 0.07384 0.35137 1.00621 0.0
C2830 C 0.08827 0.36336 0.99711 0.0
C2831 C 0.14345 0.30808 0.05879 0.0
C2832 C 0.15882 0.31672 0.07183 0.0
C2833 C 0.16223 0.30849 0.09057 0.0
C2834 C 0.16753 0.33528 0.06702 0.0
C2835 C 0.17871 0.34588 0.081 0.0
C2836 C 0.17402 0.31867 0.10433 0.0
C2837 C 0.18212 0.3373 0.09966 0.0
C2838 C 0.09827 0.27106 1.00724 0.0
C2839 C 0.12695 0.30165 0.97714 0.0
C2840 C 0.13082 0.24408 0.95741 0.0
C2841 C 0.13366 0.22942 0.9419 0.0
C2842 C 0.15158 0.21925 0.93946 0.0
C2843 C 0.11891 0.22826 0.92736 0.0
C2844 C 0.12226 0.21767 0.90998 0.0
C2845 C 0.15482 0.20831 0.92219 0.0
C2846 C 0.1403 0.20769 0.90736 0.0
C2847 C 0.1702 0.30873 0.98343 0.0
H2848 H 0.15521 0.29457 0.09479 0.0
H2849 H 0.16483 0.34208 0.05271 0.0
H2850 H 0.17632 0.31242 0.11892 0.0
H2851 H 0.19042 0.34534 0.11086 0.0
H2852 H 0.16313 0.22016 0.95056 0.0
H2853 H 0.10516 0.23642 0.92912 0.0
H2854 H 0.16872 0.20061 0.92013 0.0
H2855 H 0.14308 0.19938 0.89392 0.0
Gd2856 Gd 0.38871 0.76896 0.47803 0.0
Gd2857 Gd 0.39411 0.73882 0.51892 0.0
C2858 C 0.4403 0.7723 0.55418 0.0
C2859 C 0.46636 0.74761 0.55756 0.0
C2860 C 0.43616 0.73961 0.53939 0.0
C2861 C 0.42892 0.75867 0.54307 0.0
C2862 C 0.4548 0.73384 0.54693 0.0
C2863 C 0.45914 0.76676 0.56118 0.0
C2864 C 0.43228 0.79105 0.55813 0.0
C2865 C 0.41327 0.79574 0.55121 0.0
N2866 N 0.41068 0.76378 0.53605 0.0
C2867 C 0.40251 0.78175 0.54018 0.0
H2868 H 0.38777 0.78518 0.53484 0.0
C2869 C 0.43037 0.70719 0.52675 0.0
N2870 N 0.42478 0.72655 0.52897 0.0
C2871 C 0.4488 0.70088 0.53378 0.0
C2872 C 0.46116 0.7143 0.54376 0.0
H2873 H 0.42061 0.69668 0.51943 0.0
H2874 H 0.46815 0.7771 0.56965 0.0
H2875 H 0.40575 0.75207 0.43258 0.0
H2876 H 0.44054 0.80192 0.5667 0.0
H2877 H 0.40691 0.8101 0.55443 0.0
H2878 H 0.48081 0.74351 0.56326 0.0
H2879 H 0.35865 0.80688 0.49243 0.0
H2880 H 0.35432 0.74166 0.3968 0.0
H2881 H 0.39058 0.73944 0.40185 0.0
H2882 H 0.30372 0.77757 0.43052 0.0
H2883 H 0.4534 0.68564 0.53164 0.0
H2884 H 0.47543 0.70935 0.54923 0.0
H2885 H 0.32172 0.75538 0.40802 0.0
H2886 H 0.32468 0.81843 0.48493 0.0
N2887 N 0.37801 0.75951 0.44591 0.0
C2888 C 0.36083 0.74698 0.4105 0.0
C2889 C 0.3813 0.74566 0.41332 0.0
C2890 C 0.34926 0.75664 0.42466 0.0
C2891 C 0.35847 0.76335 0.44223 0.0
C2892 C 0.38979 0.75261 0.43093 0.0
N2893 N 0.35788 0.78378 0.47081 0.0
C2894 C 0.34824 0.77606 0.45483 0.0
C2895 C 0.33107 0.8064 0.47648 0.0
C2896 C 0.31997 0.79695 0.4617 0.0
C2897 C 0.35037 0.80003 0.4805 0.0
C2898 C 0.32873 0.78204 0.45025 0.0
H2899 H 0.30498 0.80185 0.45869 0.0
O2900 O 0.39592 0.80004 0.48735 0.0
O2901 O 0.41209 0.76365 0.50326 0.0
O2902 O 0.36005 0.75115 0.52348 0.0
O2903 O 0.35558 0.76453 0.49292 0.0
O2904 O 0.4233 0.76696 0.47536 0.0
O2905 O 0.39415 0.7902 0.45598 0.0
O2906 O 0.38385 0.7115 0.53141 0.0
O2907 O 0.3754 0.74413 0.49379 0.0
O2908 O 0.40282 0.74164 0.46615 0.0
O2909 O 0.41307 0.72425 0.49458 0.0
O2910 O 0.38233 0.71453 0.49954 0.0
O2911 O 0.38644 0.73748 0.55039 0.0
C2912 C 0.42937 0.76379 0.49342 0.0
C2913 C 0.31891 0.7736 0.43394 0.0
C2914 C 0.32916 0.76091 0.42116 0.0
C2915 C 0.39726 0.80476 0.46838 0.0
C2916 C 0.4054 0.8232 0.45971 0.0
C2917 C 0.40057 0.84173 0.46775 0.0
C2918 C 0.41508 0.82239 0.44118 0.0
C2919 C 0.41907 0.83979 0.43046 0.0
C2920 C 0.40495 0.85917 0.45724 0.0
C2921 C 0.41397 0.85823 0.43861 0.0
C2922 C 0.34693 0.75881 0.51019 0.0
C2923 C 0.37239 0.7263 0.48812 0.0
C2924 C 0.38218 0.71856 0.5492 0.0
C2925 C 0.38907 0.70483 0.56432 0.0
C2926 C 0.40811 0.70578 0.57269 0.0
C2927 C 0.37729 0.68796 0.56701 0.0
C2928 C 0.38471 0.6714 0.57683 0.0
C2929 C 0.41543 0.68939 0.58314 0.0
C2930 C 0.40391 0.67206 0.58493 0.0
C2931 C 0.41248 0.72704 0.47499 0.0
H2932 H 0.3927 0.84268 0.48169 0.0
H2933 H 0.41875 0.80818 0.43461 0.0
H2934 H 0.40088 0.87345 0.46334 0.0
H2935 H 0.41684 0.87184 0.43048 0.0
H2936 H 0.41748 0.71872 0.57058 0.0
H2937 H 0.36276 0.68712 0.56003 0.0
H2938 H 0.43025 0.68991 0.58935 0.0
H2939 H 0.4099 0.65928 0.59259 0.0
Gd2940 Gd 0.76557 0.55485 0.88787 0.0
Gd2941 Gd 0.797 0.51613 0.8945 0.0
C2942 C 0.76201 0.47749 0.93671 0.0
C2943 C 0.78492 0.47439 0.96444 0.0
C2944 C 0.79428 0.49384 0.93552 0.0
C2945 C 0.77594 0.4896 0.92677 0.0
C2946 C 0.79901 0.48603 0.95432 0.0
C2947 C 0.76652 0.47008 0.95565 0.0
C2948 C 0.74394 0.4732 0.92728 0.0
C2949 C 0.74021 0.48074 0.90832 0.0
N2950 N 0.77178 0.49714 0.90851 0.0
C2951 C 0.7545 0.49267 0.89898 0.0
H2952 H 0.7518 0.49851 0.8843 0.0
C2953 C 0.82656 0.5078 0.93246 0.0
N2954 N 0.80772 0.50503 0.92541 0.0
C2955 C 0.83184 0.50054 0.95111 0.0
C2956 C 0.81793 0.48979 0.9622 0.0
H2957 H 0.83744 0.51585 0.92374 0.0
H2958 H 0.75591 0.4609 0.96359 0.0
H2959 H 0.77794 0.60076 0.90869 0.0
H2960 H 0.73283 0.46396 0.93445 0.0
H2961 H 0.72636 0.47732 0.90089 0.0
H2962 H 0.78822 0.46841 0.97897 0.0
H2963 H 0.73041 0.54123 0.85441 0.0
H2964 H 0.79252 0.63961 0.86088 0.0
H2965 H 0.79208 0.63231 0.89676 0.0
H2966 H 0.75905 0.60912 0.80647 0.0
H2967 H 0.84665 0.5031 0.95686 0.0
H2968 H 0.82209 0.48408 0.97661 0.0
H2969 H 0.78037 0.63058 0.827 0.0
H2970 H 0.71903 0.55174 0.82122 0.0
N2971 N 0.774 0.58842 0.87999 0.0
C2972 C 0.78708 0.62532 0.86606 0.0
C2973 C 0.78688 0.62125 0.8863 0.0
C2974 C 0.77842 0.6117 0.85298 0.0
C2975 C 0.77172 0.59321 0.86048 0.0
C2976 C 0.77941 0.60302 0.89306 0.0
N2977 N 0.75258 0.56393 0.85659 0.0
C2978 C 0.76014 0.58089 0.84859 0.0
C2979 C 0.73072 0.55995 0.82866 0.0
C2980 C 0.73977 0.57621 0.81939 0.0
C2981 C 0.73705 0.55417 0.8475 0.0
C2982 C 0.75445 0.58708 0.82945 0.0
H2983 H 0.73491 0.58059 0.80473 0.0
O2984 O 0.73679 0.54029 0.89423 0.0
O2985 O 0.77057 0.52995 0.91173 0.0
O2986 O 0.78703 0.51121 0.85965 0.0
O2987 O 0.77198 0.54077 0.85476 0.0
O2988 O 0.76466 0.5577 0.92253 0.0
O2989 O 0.73952 0.57215 0.88762 0.0
O2990 O 0.82572 0.5059 0.88613 0.0
O2991 O 0.79198 0.5415 0.87552 0.0
O2992 O 0.79047 0.56773 0.90629 0.0
O2993 O 0.80889 0.53984 0.91604 0.0
O2994 O 0.82066 0.53815 0.88666 0.0
O2995 O 0.80073 0.48519 0.88533 0.0
C2996 C 0.76829 0.53969 0.92905 0.0
C2997 C 0.76275 0.60447 0.82138 0.0
C2998 C 0.77491 0.61667 0.83308 0.0
C2999 C 0.72784 0.55761 0.8931 0.0
C3000 C 0.71292 0.56371 0.90772 0.0
C3001 C 0.69392 0.5552 0.90686 0.0
C3002 C 0.71586 0.58152 0.91838 0.0
C3003 C 0.6997 0.59189 0.92627 0.0
C3004 C 0.67793 0.56473 0.91581 0.0
C3005 C 0.68067 0.58312 0.92507 0.0
C3006 C 0.77903 0.52398 0.84621 0.0
C3007 C 0.80946 0.54888 0.87542 0.0
C3008 C 0.81967 0.48796 0.88223 0.0
C3009 C 0.83389 0.47275 0.88749 0.0
C3010 C 0.83455 0.46381 0.90624 0.0
C3011 C 0.84971 0.47065 0.87441 0.0
C3012 C 0.86682 0.46089 0.88032 0.0
C3013 C 0.85146 0.45322 0.91191 0.0
C3014 C 0.86777 0.45205 0.89911 0.0
C3015 C 0.80444 0.55909 0.91723 0.0
H3016 H 0.69124 0.54185 0.89827 0.0
H3017 H 0.73058 0.5881 0.91919 0.0
H3018 H 0.66317 0.55837 0.91465 0.0
H3019 H 0.66772 0.59077 0.9306 0.0
H3020 H 0.82248 0.46563 0.91663 0.0
H3021 H 0.84939 0.47809 0.86012 0.0
H3022 H 0.85221 0.44653 0.92647 0.0
H3023 H 0.88111 0.44451 0.90389 0.0
Gd3024 Gd 0.76429 0.55309 0.13921 0.0
Gd3025 Gd 0.73202 0.51407 0.13261 0.0
C3026 C 0.77717 0.4735 0.10425 0.0
C3027 C 0.76388 0.46949 0.07097 0.0
C3028 C 0.74708 0.49074 0.09467 0.0
C3029 C 0.76137 0.4863 0.10897 0.0
C3030 C 0.74839 0.48253 0.07548 0.0
C3031 C 0.7782 0.46497 0.0853 0.0
C3032 C 0.79166 0.46988 0.11865 0.0
C3033 C 0.7904 0.47918 0.1371 0.0
N3034 N 0.76032 0.49506 0.12715 0.0
C3035 C 0.77453 0.49185 0.14112 0.0
H3036 H 0.77374 0.49903 0.15534 0.0
C3037 C 0.71866 0.50915 0.08528 0.0
N3038 N 0.73239 0.50369 0.09927 0.0
C3039 C 0.71946 0.50141 0.06613 0.0
C3040 C 0.73434 0.488 0.06121 0.0
H3041 H 0.70654 0.51888 0.08897 0.0
H3042 H 0.7902 0.45504 0.08148 0.0
H3043 H 0.74414 0.59957 0.12312 0.0
H3044 H 0.804 0.4601 0.1156 0.0
H3045 H 0.80166 0.47657 0.14823 0.0
H3046 H 0.76509 0.46304 0.05633 0.0
H3047 H 0.80168 0.53918 0.16981 0.0
H3048 H 0.73123 0.6317 0.17571 0.0
H3049 H 0.72686 0.62657 0.14029 0.0
H3050 H 0.77562 0.60365 0.2227 0.0
H3051 H 0.70852 0.50571 0.05521 0.0
H3052 H 0.73496 0.4821 0.0463 0.0
H3053 H 0.74958 0.62317 0.20648 0.0
H3054 H 0.81677 0.55005 0.20128 0.0
N3055 N 0.75418 0.58565 0.14997 0.0
C3056 C 0.73807 0.61901 0.16866 0.0
C3057 C 0.73586 0.61628 0.14844 0.0
C3058 C 0.75036 0.60626 0.17919 0.0
C3059 C 0.75823 0.58943 0.16946 0.0
C3060 C 0.74505 0.60024 0.13904 0.0
N3061 N 0.77929 0.56151 0.16987 0.0
C3062 C 0.77195 0.57769 0.17927 0.0
C3063 C 0.80409 0.55786 0.19534 0.0
C3064 C 0.79575 0.57355 0.20584 0.0
C3065 C 0.79561 0.5519 0.17739 0.0
C3066 C 0.77935 0.5835 0.198 0.0
H3067 H 0.80211 0.5779 0.21994 0.0
O3068 O 0.79322 0.53916 0.13244 0.0
O3069 O 0.7582 0.52853 0.11508 0.0
O3070 O 0.74069 0.50962 0.1682 0.0
O3071 O 0.75969 0.5376 0.17209 0.0
O3072 O 0.76374 0.55657 0.10457 0.0
O3073 O 0.7896 0.57142 0.13721 0.0
O3074 O 0.70923 0.49476 0.12113 0.0
O3075 O 0.73832 0.53896 0.15144 0.0
O3076 O 0.73988 0.56628 0.1211 0.0
O3077 O 0.71763 0.53996 0.11496 0.0
O3078 O 0.70864 0.5354 0.14335 0.0
O3079 O 0.71826 0.4909 0.15123 0.0
C3080 C 0.75987 0.53864 0.0979 0.0
C3081 C 0.77062 0.59943 0.20803 0.0
C3082 C 0.75581 0.61053 0.19879 0.0
C3083 C 0.80172 0.55686 0.13322 0.0
C3084 C 0.81917 0.5626 0.12147 0.0
C3085 C 0.83719 0.55278 0.12458 0.0
C3086 C 0.81924 0.58118 0.11192 0.0
C3087 C 0.83712 0.59083 0.10734 0.0
C3088 C 0.85507 0.56174 0.11874 0.0
C3089 C 0.85511 0.58081 0.11044 0.0
C3090 C 0.75094 0.52167 0.18111 0.0
C3091 C 0.72107 0.54594 0.15362 0.0
C3092 C 0.70508 0.48643 0.13782 0.0
C3093 C 0.68378 0.48667 0.14321 0.0
C3094 C 0.66965 0.4932 0.12921 0.0
C3095 C 0.67722 0.48023 0.16196 0.0
C3096 C 0.6569 0.48099 0.16667 0.0
C3097 C 0.64957 0.49375 0.13391 0.0
C3098 C 0.64321 0.48778 0.15255 0.0
C3099 C 0.72368 0.55885 0.11277 0.0
H3100 H 0.83754 0.5388 0.13255 0.0
H3101 H 0.8054 0.58899 0.10957 0.0
H3102 H 0.86899 0.55432 0.12159 0.0
H3103 H 0.86916 0.58801 0.10716 0.0
H3104 H 0.67402 0.49793 0.11451 0.0
H3105 H 0.68774 0.4747 0.17276 0.0
H3106 H 0.63888 0.4987 0.12302 0.0
H3107 H 0.62745 0.48798 0.15582 0.0
Gd3108 Gd 0.77047 0.48177 0.3897 0.0
Gd3109 Gd 0.73825 0.52036 0.39819 0.0
C3110 C 0.77665 0.57293 0.4177 0.0
C3111 C 0.76497 0.57858 0.45125 0.0
C3112 C 0.75207 0.55082 0.43194 0.0
C3113 C 0.76363 0.55649 0.41594 0.0
C3114 C 0.75269 0.56174 0.44982 0.0
C3115 C 0.777 0.58411 0.43527 0.0
C3116 C 0.78933 0.57738 0.40193 0.0
C3117 C 0.78927 0.56521 0.38522 0.0
N3118 N 0.763 0.54536 0.39909 0.0
C3119 C 0.77609 0.54908 0.38412 0.0
H3120 H 0.77678 0.53962 0.37135 0.0
C3121 C 0.73074 0.52696 0.44656 0.0
N3122 N 0.74101 0.53402 0.4304 0.0
C3123 C 0.73061 0.53746 0.46437 0.0
C3124 C 0.74146 0.55507 0.46596 0.0
H3125 H 0.72233 0.51327 0.44595 0.0
H3126 H 0.78681 0.59685 0.43679 0.0
H3127 H 0.73529 0.44213 0.39754 0.0
H3128 H 0.7996 0.58983 0.40274 0.0
H3129 H 0.79946 0.56821 0.37318 0.0
H3130 H 0.76565 0.58711 0.46484 0.0
H3131 H 0.808 0.49828 0.36077 0.0
H3132 H 0.73416 0.4078 0.34556 0.0
H3133 H 0.7228 0.41457 0.37945 0.0
H3134 H 0.78451 0.43536 0.30458 0.0
H3135 H 0.7223 0.53182 0.47692 0.0
H3136 H 0.74157 0.56304 0.4799 0.0
H3137 H 0.75667 0.41591 0.31784 0.0
H3138 H 0.82445 0.48855 0.32973 0.0
N3139 N 0.75584 0.4526 0.37506 0.0
C3140 C 0.74033 0.42034 0.35361 0.0
C3141 C 0.73382 0.42414 0.37266 0.0
C3142 C 0.75505 0.4324 0.34531 0.0
C3143 C 0.76267 0.44869 0.35636 0.0
C3144 C 0.74156 0.44025 0.38314 0.0
N3145 N 0.78497 0.47642 0.35843 0.0
C3146 C 0.77787 0.46041 0.34819 0.0
C3147 C 0.81128 0.48067 0.33465 0.0
C3148 C 0.80333 0.46531 0.32325 0.0
C3149 C 0.80195 0.48605 0.35227 0.0
C3150 C 0.78643 0.45507 0.32985 0.0
H3151 H 0.81046 0.46134 0.30945 0.0
O3152 O 0.80172 0.48887 0.39564 0.0
O3153 O 0.76603 0.50741 0.41275 0.0
O3154 O 0.74507 0.52586 0.36264 0.0
O3155 O 0.76624 0.49949 0.35815 0.0
O3156 O 0.77497 0.48067 0.42375 0.0
O3157 O 0.79074 0.4579 0.39185 0.0
O3158 O 0.71042 0.51991 0.4131 0.0
O3159 O 0.73979 0.49058 0.38648 0.0
O3160 O 0.75044 0.46741 0.41187 0.0
O3161 O 0.72802 0.49334 0.41672 0.0
O3162 O 0.7221 0.50947 0.37091 0.0
O3163 O 0.71699 0.54435 0.39335 0.0
C3164 C 0.77014 0.4983 0.42995 0.0
C3165 C 0.77837 0.43932 0.31886 0.0
C3166 C 0.76257 0.42821 0.32645 0.0
C3167 C 0.80599 0.46973 0.39511 0.0
C3168 C 0.82207 0.46141 0.40713 0.0
C3169 C 0.84152 0.46792 0.40351 0.0
C3170 C 0.81878 0.44422 0.41859 0.0
C3171 C 0.83483 0.43279 0.4253 0.0
C3172 C 0.85755 0.45711 0.41077 0.0
C3173 C 0.85429 0.43953 0.42132 0.0
C3174 C 0.75575 0.51447 0.34965 0.0
C3175 C 0.72832 0.49138 0.37177 0.0
C3176 C 0.70339 0.53506 0.40376 0.0
C3177 C 0.68408 0.53099 0.39458 0.0
C3178 C 0.67258 0.5143 0.40037 0.0
C3179 C 0.67683 0.54379 0.38015 0.0
C3180 C 0.65848 0.53988 0.37152 0.0
C3181 C 0.65452 0.51016 0.39115 0.0
C3182 C 0.64751 0.52286 0.37656 0.0
C3183 C 0.73458 0.47507 0.42054 0.0
H3184 H 0.84433 0.48078 0.39421 0.0
H3185 H 0.80372 0.43919 0.42137 0.0
H3186 H 0.87257 0.46191 0.40748 0.0
H3187 H 0.86706 0.43088 0.42571 0.0
H3188 H 0.67742 0.50447 0.41208 0.0
H3189 H 0.68487 0.55732 0.37641 0.0
H3190 H 0.64559 0.49759 0.39582 0.0
H3191 H 0.63292 0.52022 0.37024 0.0
Gd3192 Gd 0.80481 0.51703 0.63749 0.0
Gd3193 Gd 0.76757 0.48372 0.64398 0.0
C3194 C 0.71968 0.51564 0.6779 0.0
C3195 C 0.71336 0.4928 0.70521 0.0
C3196 C 0.73913 0.48558 0.68114 0.0
C3197 C 0.73473 0.503 0.67097 0.0
C3198 C 0.72849 0.48032 0.69838 0.0
C3199 C 0.70899 0.51042 0.69504 0.0
C3200 C 0.71582 0.53313 0.66735 0.0
C3201 C 0.72678 0.53758 0.65029 0.0
N3202 N 0.74528 0.50768 0.65443 0.0
C3203 C 0.74149 0.52448 0.6439 0.0
H3204 H 0.74982 0.52766 0.63057 0.0
C3205 C 0.75852 0.45647 0.6836 0.0
N3206 N 0.75393 0.47392 0.67431 0.0
C3207 C 0.7486 0.4508 0.70089 0.0
C3208 C 0.73352 0.46278 0.70834 0.0
H3209 H 0.76964 0.4467 0.67754 0.0
H3210 H 0.69735 0.51995 0.70057 0.0
H3211 H 0.84375 0.48094 0.64698 0.0
H3212 H 0.70437 0.54326 0.6722 0.0
H3213 H 0.72378 0.551 0.642 0.0
H3214 H 0.70506 0.48904 0.71845 0.0
H3215 H 0.78881 0.55188 0.60557 0.0
H3216 H 0.8875 0.48926 0.60353 0.0
H3217 H 0.87468 0.47227 0.63274 0.0
H3218 H 0.86223 0.53844 0.56037 0.0
H3219 H 0.7524 0.43705 0.70829 0.0
H3220 H 0.72578 0.45831 0.7217 0.0
H3221 H 0.88269 0.51346 0.57677 0.0
H3222 H 0.79982 0.56812 0.57472 0.0
N3223 N 0.83727 0.50552 0.62704 0.0
C3224 C 0.87357 0.49401 0.60995 0.0
C3225 C 0.86645 0.48452 0.62664 0.0
C3226 C 0.86225 0.50877 0.60111 0.0
C3227 C 0.84384 0.51421 0.60976 0.0
C3228 C 0.8484 0.49021 0.63494 0.0
N3229 N 0.81405 0.53298 0.60766 0.0
C3230 C 0.83198 0.52804 0.5999 0.0
C3231 C 0.80897 0.55688 0.5816 0.0
C3232 C 0.82685 0.5514 0.57297 0.0
C3233 C 0.80288 0.54774 0.59913 0.0
C3234 C 0.83867 0.53706 0.58213 0.0
H3235 H 0.83154 0.55853 0.55934 0.0
O3236 O 0.79044 0.54575 0.64353 0.0
O3237 O 0.77954 0.5112 0.66105 0.0
O3238 O 0.76224 0.49433 0.60929 0.0
O3239 O 0.79102 0.51135 0.60466 0.0
O3240 O 0.80662 0.52001 0.67179 0.0
O3241 O 0.82243 0.5431 0.63772 0.0
O3242 O 0.76073 0.45275 0.64001 0.0
O3243 O 0.79234 0.49004 0.62463 0.0
O3244 O 0.81802 0.49604 0.65947 0.0
O3245 O 0.79161 0.47404 0.66605 0.0
O3246 O 0.79222 0.46258 0.63803 0.0
O3247 O 0.73954 0.47493 0.6301 0.0
C3248 C 0.78891 0.51517 0.67834 0.0
C3249 C 0.85698 0.53173 0.57401 0.0
C3250 C 0.86868 0.5176 0.58342 0.0
C3251 C 0.80794 0.5547 0.64313 0.0
C3252 C 0.81388 0.5689 0.6586 0.0
C3253 C 0.80523 0.58778 0.65922 0.0
C3254 C 0.83169 0.56555 0.669 0.0
C3255 C 0.84181 0.58123 0.67804 0.0
C3256 C 0.81462 0.60321 0.66961 0.0
C3257 C 0.83304 0.60007 0.67869 0.0
C3258 C 0.77446 0.50383 0.59618 0.0
C3259 C 0.80079 0.47321 0.62459 0.0
C3260 C 0.74397 0.45611 0.6312 0.0
C3261 C 0.72848 0.44137 0.63451 0.0
C3262 C 0.7176 0.44021 0.65217 0.0
C3263 C 0.72659 0.42648 0.62025 0.0
C3264 C 0.71401 0.41033 0.62352 0.0
C3265 C 0.70485 0.42403 0.65542 0.0
C3266 C 0.70304 0.40907 0.64113 0.0
C3267 C 0.81013 0.48057 0.66896 0.0
H3268 H 0.79189 0.59086 0.65082 0.0
H3269 H 0.83885 0.55117 0.6684 0.0
H3270 H 0.80817 0.6179 0.66967 0.0
H3271 H 0.84084 0.6125 0.6854 0.0
H3272 H 0.7192 0.45149 0.66345 0.0
H3273 H 0.73532 0.4272 0.60675 0.0
H3274 H 0.69654 0.42296 0.66909 0.0
H3275 H 0.69325 0.3965 0.64383 0.0
Gd3276 Gd 0.51888 0.13147 0.23063 0.0
Gd3277 Gd 0.48269 0.13866 0.26614 0.0
C3278 C 0.43619 0.18682 0.25686 0.0
C3279 C 0.44495 0.21043 0.28257 0.0
C3280 C 0.46468 0.18047 0.27823 0.0
C3281 C 0.45216 0.17446 0.26265 0.0
C3282 C 0.46061 0.19821 0.28864 0.0
C3283 C 0.43292 0.20485 0.26665 0.0
C3284 C 0.42376 0.18075 0.24139 0.0
C3285 C 0.4272 0.16275 0.23201 0.0
N3286 N 0.45526 0.15669 0.25337 0.0
C3287 C 0.44302 0.15094 0.23811 0.0
H3288 H 0.44582 0.13803 0.22937 0.0
C3289 C 0.49119 0.17319 0.30038 0.0
N3290 N 0.48058 0.16899 0.28349 0.0
C3291 C 0.48718 0.19028 0.31135 0.0
C3292 C 0.47208 0.203 0.30527 0.0
H3293 H 0.50303 0.16347 0.30507 0.0
H3294 H 0.42083 0.21446 0.26225 0.0
H3295 H 0.5358 0.15673 0.27153 0.0
H3296 H 0.41155 0.18994 0.23647 0.0
H3297 H 0.41796 0.15815 0.21969 0.0
H3298 H 0.44186 0.2242 0.29026 0.0
H3299 H 0.5164 0.08662 0.20839 0.0
H3300 H 0.58168 0.1229 0.29817 0.0
H3301 H 0.56126 0.15321 0.29683 0.0
H3302 H 0.5812 0.0622 0.2615 0.0
H3303 H 0.49585 0.19374 0.32441 0.0
H3304 H 0.46921 0.21638 0.31369 0.0
H3305 H 0.58893 0.08904 0.28498 0.0
H3306 H 0.5338 0.05491 0.20914 0.0
N3307 N 0.54227 0.12955 0.25685 0.0
C3308 C 0.57069 0.12456 0.28656 0.0
C3309 C 0.55923 0.1417 0.28581 0.0
C3310 C 0.56734 0.10946 0.27278 0.0
C3311 C 0.5528 0.11235 0.25797 0.0
C3312 C 0.54488 0.14382 0.27101 0.0
N3313 N 0.53363 0.09984 0.2316 0.0
C3314 C 0.54836 0.09709 0.24494 0.0
C3315 C 0.53816 0.06665 0.21923 0.0
C3316 C 0.55326 0.06354 0.23295 0.0
C3317 C 0.5284 0.08489 0.21883 0.0
C3318 C 0.55847 0.07878 0.24609 0.0
H3319 H 0.56063 0.04928 0.23343 0.0
O3320 O 0.51663 0.12092 0.20086 0.0
O3321 O 0.48871 0.14256 0.23425 0.0
O3322 O 0.46721 0.11784 0.24601 0.0
O3323 O 0.49163 0.11111 0.22247 0.0
O3324 O 0.50785 0.15996 0.21789 0.0
O3325 O 0.54367 0.13578 0.21009 0.0
O3326 O 0.48269 0.1325 0.29755 0.0
O3327 O 0.50572 0.11515 0.25647 0.0
O3328 O 0.52464 0.16704 0.23894 0.0
O3329 O 0.50084 0.17034 0.26324 0.0
O3330 O 0.48832 0.10577 0.27749 0.0
O3331 O 0.45441 0.13268 0.27996 0.0
C3332 C 0.48976 0.15822 0.22394 0.0
C3333 C 0.57328 0.07613 0.26042 0.0
C3334 C 0.5777 0.09143 0.27375 0.0
C3335 C 0.53359 0.12822 0.1953 0.0
C3336 C 0.533 0.13909 0.17636 0.0
C3337 C 0.51742 0.13546 0.16281 0.0
C3338 C 0.54827 0.15235 0.17114 0.0
C3339 C 0.54762 0.16216 0.15289 0.0
C3340 C 0.51679 0.1454 0.14472 0.0
C3341 C 0.53177 0.15884 0.1398 0.0
C3342 C 0.47354 0.10804 0.23032 0.0
C3343 C 0.50128 0.09816 0.26556 0.0
C3344 C 0.46312 0.13124 0.29735 0.0
C3345 C 0.45183 0.12696 0.31532 0.0
C3346 C 0.45818 0.13473 0.33354 0.0
C3347 C 0.43387 0.11636 0.31412 0.0
C3348 C 0.42247 0.11316 0.33117 0.0
C3349 C 0.44667 0.13189 0.35046 0.0
C3350 C 0.42893 0.12112 0.34934 0.0
C3351 C 0.5145 0.17951 0.25146 0.0
H3352 H 0.50577 0.12477 0.16607 0.0
H3353 H 0.56079 0.15476 0.18098 0.0
H3354 H 0.5049 0.14239 0.13434 0.0
H3355 H 0.53141 0.16612 0.12548 0.0
H3356 H 0.47179 0.14336 0.33458 0.0
H3357 H 0.4289 0.11038 0.30004 0.0
H3358 H 0.45145 0.13812 0.36446 0.0
H3359 H 0.42015 0.11912 0.36263 0.0
Gd3360 Gd 0.05086 0.88886 0.76768 0.0
Gd3361 Gd 1.01552 0.89247 0.73081 0.0
C3362 C 0.02533 0.93789 0.68165 0.0
C3363 C 1.0002 0.96239 0.68917 0.0
C3364 C 1.00342 0.93293 0.70997 0.0
C3365 C 0.01896 0.92616 0.69791 0.0
C3366 C 0.9936 0.95081 0.70518 0.0
C3367 C 1.01615 0.9561 0.67764 0.0
C3368 C 0.04063 0.93096 0.66958 0.0
C3369 C 0.0487 0.91236 0.67317 0.0
N3370 N 0.02752 0.90818 0.70166 0.0
C3371 C 0.04177 0.90098 0.68903 0.0
H3372 H 0.04859 0.88673 0.69094 0.0
C3373 C 0.98143 0.92747 0.73708 0.0
N3374 N 0.99792 0.92227 0.72638 0.0
C3375 C 0.97129 0.94498 0.73266 0.0
C3376 C 0.97751 0.95678 0.7168 0.0
H3377 H 0.97661 0.91833 0.74938 0.0
H3378 H 0.02102 0.96526 0.66533 0.0
H3379 H 1.00633 0.90882 0.77982 0.0
H3380 H 0.04606 0.93969 0.6572 0.0
H3381 H 0.06035 0.90673 0.66371 0.0
H3382 H 0.99305 0.97633 0.68559 0.0
H3383 H 0.07949 0.84792 0.76977 0.0
H3384 H 0.98431 0.87718 0.8302 0.0
H3385 H 0.98091 0.90418 0.80557 0.0
H3386 H 0.03174 0.82524 0.83945 0.0
H3387 H 0.95865 0.94936 0.74146 0.0
H3388 H 0.96969 0.97042 0.71355 0.0
H3389 H 1.00337 0.84781 0.84275 0.0
H3390 H 0.0849 0.82013 0.79264 0.0
N3391 N 0.02457 0.88538 0.79023 0.0
C3392 C 0.99565 0.87927 0.81902 0.0
C3393 C 0.99372 0.89456 0.80516 0.0
C3394 C 1.01194 0.86652 0.81797 0.0
C3395 C 0.0262 0.86981 0.80304 0.0
C3396 C 1.00832 0.89734 0.79069 0.0
N3397 N 0.05437 0.85915 0.78538 0.0
C3398 C 0.04177 0.85658 0.80078 0.0
C3399 C 0.07272 0.83024 0.79513 0.0
C3400 C 0.06005 0.82751 0.81124 0.0
C3401 C 0.06949 0.84606 0.78212 0.0
C3402 C 0.04408 0.84045 0.81397 0.0
H3403 H 0.06243 0.81509 0.82117 0.0
O3404 O 0.08259 0.88419 0.76703 0.0
O3405 O 0.04717 0.89756 0.73661 0.0
O3406 O 0.03743 0.87153 0.71833 0.0
O3407 O 0.05945 0.86547 0.74431 0.0
O3408 O 0.06313 0.91684 0.75376 0.0
O3409 O 0.06829 0.89616 0.79395 0.0
O3410 O 0.98408 0.88534 0.72967 0.0
O3411 O 0.02525 0.87021 0.75542 0.0
O3412 O 0.04053 0.92322 0.77249 0.0
O3413 O 0.01832 0.9253 0.74667 0.0
O3414 O 1.00325 0.86088 0.73899 0.0
O3415 O 1.00375 0.88109 0.70364 0.0
C3416 C 0.05689 0.91366 0.73603 0.0
C3417 C 0.03027 0.83758 0.82924 0.0
C3418 C 1.01415 0.85047 0.83113 0.0
C3419 C 0.08456 0.89047 0.78516 0.0
C3420 C 0.10374 0.89027 0.79502 0.0
C3421 C 0.11402 0.8724 0.79776 0.0
C3422 C 0.11207 0.90823 0.80135 0.0
C3423 C 0.13059 0.90834 0.81059 0.0
C3424 C 0.13241 0.8725 0.80732 0.0
C3425 C 0.14068 0.89042 0.8138 0.0
C3426 C 0.05202 0.86138 0.72646 0.0
C3427 C 1.01562 0.85318 0.75143 0.0
C3428 C 0.98576 0.87963 0.71106 0.0
C3429 C 0.96958 0.88325 0.69719 0.0
C3430 C 0.95726 0.89993 0.69795 0.0
C3431 C 0.96704 0.86924 0.6822 0.0
C3432 C 0.9527 0.87188 0.66753 0.0
C3433 C 0.94266 0.90259 0.68348 0.0
C3434 C 0.94039 0.88867 0.66826 0.0
C3435 C 0.02875 0.93498 0.76104 0.0
H3436 H 0.10788 0.85844 0.79263 0.0
H3437 H 0.1043 0.92209 0.79887 0.0
H3438 H 0.14031 0.85872 0.80955 0.0
H3439 H 0.15511 0.89039 0.82092 0.0
H3440 H 0.95883 0.91083 0.70951 0.0
H3441 H 0.97642 0.85618 0.68194 0.0
H3442 H 0.93321 0.91553 0.68395 0.0
H3443 H 0.92927 0.89119 0.65695 0.0
Gd3444 Gd 0.51961 0.89643 0.29814 0.0
Gd3445 Gd 0.48402 0.88797 0.26364 0.0
C3446 C 0.43785 0.83838 0.27262 0.0
C3447 C 0.44782 0.81441 0.24784 0.0
C3448 C 0.4663 0.84552 0.2515 0.0
C3449 C 0.45338 0.85141 0.26665 0.0
C3450 C 0.46327 0.8271 0.24182 0.0
C3451 C 0.43528 0.81995 0.26326 0.0
C3452 C 0.42524 0.84405 0.28795 0.0
C3453 C 0.42798 0.86237 0.29694 0.0
N3454 N 0.45592 0.86953 0.27557 0.0
C3455 C 0.44325 0.87493 0.29059 0.0
H3456 H 0.44494 0.88833 0.29891 0.0
C3457 C 0.49382 0.85269 0.23055 0.0
N3458 N 0.48208 0.8574 0.24649 0.0
C3459 C 0.49107 0.83476 0.22051 0.0
C3460 C 0.47592 0.82181 0.22632 0.0
H3461 H 0.50589 0.86243 0.2262 0.0
H3462 H 0.42349 0.80988 0.26778 0.0
H3463 H 0.53807 0.87243 0.2576 0.0
H3464 H 0.41338 0.83434 0.29303 0.0
H3465 H 0.41848 0.86677 0.30907 0.0
H3466 H 0.44548 0.80016 0.2407 0.0
H3467 H 0.51242 0.94259 0.31747 0.0
H3468 H 0.58709 0.90657 0.23602 0.0
H3469 H 0.56586 0.87649 0.23454 0.0
H3470 H 0.58439 0.96649 0.27392 0.0
H3471 H 0.50074 0.83086 0.20835 0.0
H3472 H 0.47398 0.80782 0.2186 0.0
H3473 H 0.59402 0.93997 0.25094 0.0
H3474 H 0.52991 0.97448 0.31856 0.0
N3475 N 0.54399 0.89928 0.27323 0.0
C3476 C 0.57503 0.90474 0.24648 0.0
C3477 C 0.56309 0.88772 0.24563 0.0
C3478 C 0.57079 0.91954 0.26031 0.0
C3479 C 0.55483 0.91649 0.2735 0.0
C3480 C 0.54744 0.88532 0.25903 0.0
N3481 N 0.5327 0.92904 0.29729 0.0
C3482 C 0.54917 0.93168 0.28612 0.0
C3483 C 0.53558 0.96257 0.30945 0.0
C3484 C 0.55286 0.96534 0.29845 0.0
C3485 C 0.52561 0.94432 0.30864 0.0
C3486 C 0.55969 0.94995 0.28636 0.0
H3487 H 0.56046 0.97958 0.29894 0.0
O3488 O 0.5182 0.90842 0.32733 0.0
O3489 O 0.48988 0.88388 0.29542 0.0
O3490 O 0.46716 0.90737 0.28307 0.0
O3491 O 0.49172 0.91503 0.30625 0.0
O3492 O 0.50914 0.86794 0.31258 0.0
O3493 O 0.5449 0.89314 0.3184 0.0
O3494 O 0.48967 0.89481 0.23234 0.0
O3495 O 0.50871 0.91209 0.27001 0.0
O3496 O 0.52673 0.86141 0.28995 0.0
O3497 O 0.50112 0.85693 0.26799 0.0
O3498 O 0.48256 0.92244 0.25977 0.0
O3499 O 0.45904 0.89188 0.24514 0.0
C3500 C 0.49106 0.86855 0.30625 0.0
C3501 C 0.57616 0.95259 0.27395 0.0
C3502 C 0.58163 0.93747 0.26087 0.0
C3503 C 0.53568 0.90248 0.33262 0.0
C3504 C 0.537 0.89547 0.35322 0.0
C3505 C 0.52513 0.90471 0.36769 0.0
C3506 C 0.55087 0.88114 0.35905 0.0
C3507 C 0.55266 0.87617 0.3791 0.0
C3508 C 0.52685 0.89952 0.38757 0.0
C3509 C 0.54059 0.8853 0.39329 0.0
C3510 C 0.47346 0.91721 0.2987 0.0
C3511 C 0.49953 0.92932 0.26591 0.0
C3512 C 0.47025 0.89486 0.22948 0.0
C3513 C 0.46058 0.89995 0.21089 0.0
C3514 C 0.46762 0.89271 0.1928 0.0
C3515 C 0.44236 0.90972 0.21173 0.0
C3516 C 0.43045 0.91138 0.1949 0.0
C3517 C 0.45608 0.89484 0.17573 0.0
C3518 C 0.43749 0.90394 0.17676 0.0
C3519 C 0.51587 0.84855 0.27842 0.0
H3520 H 0.51467 0.91621 0.36368 0.0
H3521 H 0.56051 0.87425 0.34824 0.0
H3522 H 0.51775 0.90675 0.39858 0.0
H3523 H 0.54206 0.8816 0.40885 0.0
H3524 H 0.48153 0.88476 0.19205 0.0
H3525 H 0.43721 0.91563 0.22574 0.0
H3526 H 0.4613 0.88895 0.16179 0.0
H3527 H 0.42851 0.90481 0.16348 0.0
Gd3528 Gd 0.8838 0.77177 0.0516 0.0
Gd3529 Gd 0.88933 0.7316 0.02069 0.0
C3530 C 0.93227 0.68097 0.03643 0.0
C3531 C 0.95955 0.68732 1.01392 0.0
C3532 C 0.93008 0.7082 1.01296 0.0
C3533 C 0.92149 0.697 0.02811 0.0
C3534 C 0.94883 0.70284 1.00524 0.0
C3535 C 0.9514 0.67659 0.02962 0.0
C3536 C 0.92359 0.66955 0.05133 0.0
C3537 C 0.90421 0.67332 0.05688 0.0
N3538 N 0.90263 0.70124 0.03429 0.0
C3539 C 0.89372 0.68862 0.04777 0.0
H3540 H 0.87845 0.68949 0.05192 0.0
C3541 C 0.92677 0.73318 0.98842 0.0
N3542 N 0.92007 0.72401 1.00539 0.0
C3543 C 0.94508 0.72815 0.98022 0.0
C3544 C 0.95634 0.7132 0.9889 0.0
H3545 H 0.91852 0.74524 0.98189 0.0
H3546 H 0.95984 0.66456 0.03611 0.0
H3547 H 0.90659 0.78806 1.00962 0.0
H3548 H 0.93152 0.65741 0.05823 0.0
H3549 H 0.89722 0.66424 0.06816 0.0
H3550 H 0.97413 0.68338 1.00847 0.0
H3551 H 0.84004 0.76566 0.07624 0.0
H3552 H 0.86704 0.82843 0.98117 0.0
H3553 H 0.89949 0.81157 0.98271 0.0
H3554 H 0.80785 0.82427 0.02007 0.0
H3555 H 0.95061 0.73598 0.96733 0.0
H3556 H 0.97067 0.70951 0.98265 0.0
H3557 H 0.83302 0.83312 0.99522 0.0
H3558 H 0.80657 0.77939 0.07508 0.0
N3559 N 0.87869 0.79195 0.0238 0.0
C3560 C 0.8701 0.81821 0.99319 0.0
C3561 C 0.88845 0.80872 0.99402 0.0
C3562 C 0.85576 0.81412 1.00761 0.0
C3563 C 0.86047 0.80072 0.02296 0.0
C3564 C 0.89249 0.79546 1.00944 0.0
N3565 N 0.85055 0.78199 0.05107 0.0
C3566 C 0.8461 0.79567 0.03699 0.0
C3567 C 0.81751 0.78411 0.06429 0.0
C3568 C 0.81264 0.79811 0.0499 0.0
C3569 C 0.8366 0.77619 0.06471 0.0
C3570 C 0.82693 0.80403 0.03602 0.0
H3571 H 0.79775 0.80411 0.04953 0.0
O3572 O 0.8747 0.77776 0.08158 0.0
O3573 O 0.89517 0.74212 0.05041 0.0
O3574 O 0.86857 0.71921 0.0431 0.0
O3575 O 0.8668 0.74495 0.06627 0.0
O3576 O 0.91138 0.76133 0.06744 0.0
O3577 O 0.88991 0.80096 0.0647 0.0
O3578 O 0.88321 0.74007 0.98961 0.0
O3579 O 0.8668 0.75771 0.02509 0.0
O3580 O 0.9186 0.77674 0.04125 0.0
O3581 O 0.92168 0.74792 0.02329 0.0
O3582 O 0.85477 0.73029 0.01934 0.0
O3583 O 0.88297 0.70872 1.00069 0.0
C3584 C 0.91032 0.74323 0.06125 0.0
C3585 C 0.82247 0.81772 0.02103 0.0
C3586 C 0.83682 0.82274 1.00687 0.0
C3587 C 0.88073 0.79613 0.08107 0.0
C3588 C 0.88573 0.80562 0.09995 0.0
C3589 C 0.87013 0.81523 0.10971 0.0
C3590 C 0.90442 0.80401 0.10923 0.0
C3591 C 0.90707 0.81197 0.12837 0.0
C3592 C 0.87286 0.8231 0.12854 0.0
C3593 C 0.89118 0.82145 0.13786 0.0
C3594 C 0.86182 0.7267 0.05984 0.0
C3595 C 0.84912 0.74844 0.02282 0.0
C3596 C 0.88113 0.72093 0.98562 0.0
C3597 C 0.87614 0.71232 0.96628 0.0
C3598 C 0.8748 0.72365 0.94893 0.0
C3599 C 0.87227 0.69188 0.96552 0.0
C3600 C 0.86518 0.6828 0.94836 0.0
C3601 C 0.86896 0.71448 0.93121 0.0
C3602 C 0.86383 0.69424 0.93094 0.0
C3603 C 0.93085 0.76395 0.03137 0.0
H3604 H 0.85562 0.81634 0.10283 0.0
H3605 H 0.91652 0.7965 0.10186 0.0
H3606 H 0.86071 0.83042 0.13598 0.0
H3607 H 0.89307 0.82782 0.15248 0.0
H3608 H 0.87816 0.73942 0.94908 0.0
H3609 H 0.87444 0.68287 0.97862 0.0
H3610 H 0.86793 0.72319 0.91777 0.0
H3611 H 0.85843 0.68775 0.91728 0.0
Gd3612 Gd 0.63798 0.29459 0.51677 0.0
Gd3613 Gd 0.64429 0.26126 0.55542 0.0
C3614 C 0.67955 0.27988 0.61029 0.0
C3615 C 0.71225 0.26701 0.60271 0.0
C3616 C 0.6844 0.26033 0.58069 0.0
C3617 C 0.67209 0.27176 0.59247 0.0
C3618 C 0.70415 0.25661 0.58659 0.0
C3619 C 0.69994 0.27873 0.61455 0.0
C3620 C 0.6661 0.28743 0.62406 0.0
C3621 C 0.64578 0.2851 0.6207 0.0
N3622 N 0.6523 0.27217 0.58815 0.0
C3623 C 0.63913 0.27663 0.60296 0.0
H3624 H 0.62341 0.27403 0.60105 0.0
C3625 C 0.68516 0.2335 0.55818 0.0
N3626 N 0.67614 0.25031 0.56531 0.0
C3627 C 0.70461 0.229 0.56379 0.0
C3628 C 0.71451 0.24124 0.57732 0.0
H3629 H 0.67782 0.22452 0.54706 0.0
H3630 H 0.70601 0.2855 0.62781 0.0
H3631 H 0.64925 0.25034 0.49828 0.0
H3632 H 0.67121 0.29375 0.63792 0.0
H3633 H 0.63522 0.28953 0.6319 0.0
H3634 H 0.72759 0.26489 0.60704 0.0
H3635 H 0.60688 0.33365 0.5188 0.0
H3636 H 0.60186 0.23328 0.45906 0.0
H3637 H 0.63444 0.22623 0.47447 0.0
H3638 H 0.55594 0.28716 0.4645 0.0
H3639 H 0.71211 0.2164 0.55732 0.0
H3640 H 0.72965 0.23783 0.58151 0.0
H3641 H 0.5727 0.25614 0.45537 0.0
H3642 H 0.57407 0.34265 0.50533 0.0
N3643 N 0.62486 0.26998 0.49654 0.0
C3644 C 0.60819 0.24374 0.46955 0.0
C3645 C 0.62659 0.23968 0.47826 0.0
C3646 C 0.5982 0.26128 0.47436 0.0
C3647 C 0.607 0.27432 0.48817 0.0
C3648 C 0.63488 0.25318 0.49173 0.0
N3649 N 0.60665 0.30471 0.50596 0.0
C3650 C 0.59752 0.29198 0.49325 0.0
C3651 C 0.58039 0.32829 0.50197 0.0
C3652 C 0.57034 0.31506 0.48953 0.0
C3653 C 0.59885 0.32304 0.50975 0.0
C3654 C 0.57906 0.29685 0.48468 0.0
H3655 H 0.55613 0.31926 0.48333 0.0
O3656 O 0.64392 0.32436 0.50706 0.0
O3657 O 0.65689 0.2875 0.54164 0.0
O3658 O 0.62611 0.28633 0.56823 0.0
O3659 O 0.61754 0.30624 0.54101 0.0
O3660 O 0.64756 0.31695 0.53918 0.0
O3661 O 0.64877 0.29967 0.48674 0.0
O3662 O 0.63727 0.23088 0.54492 0.0
O3663 O 0.62117 0.26758 0.53014 0.0
O3664 O 0.67301 0.28601 0.51244 0.0
O3665 O 0.67665 0.2645 0.53822 0.0
O3666 O 0.60971 0.26072 0.55731 0.0
O3667 O 0.64366 0.23755 0.57606 0.0
C3668 C 0.65811 0.30465 0.54936 0.0
C3669 C 0.57015 0.2837 0.47116 0.0
C3670 C 0.57974 0.26605 0.46592 0.0
C3671 C 0.64933 0.3189 0.48944 0.0
C3672 C 0.64306 0.33217 0.47367 0.0
C3673 C 0.62538 0.32964 0.46295 0.0
C3674 C 0.65448 0.3493 0.47115 0.0
C3675 C 0.64845 0.36413 0.45815 0.0
C3676 C 0.61936 0.34443 0.44966 0.0
C3677 C 0.6309 0.36167 0.44717 0.0
C3678 C 0.61618 0.30119 0.56001 0.0
C3679 C 0.60372 0.26521 0.53946 0.0
C3680 C 0.63843 0.2241 0.56321 0.0
C3681 C 0.62465 0.20883 0.57106 0.0
C3682 C 0.6248 0.18991 0.56246 0.0
C3683 C 0.61497 0.21153 0.58951 0.0
C3684 C 0.60609 0.19532 0.59945 0.0
C3685 C 0.6158 0.17386 0.57208 0.0
C3686 C 0.6067 0.17646 0.59045 0.0
C3687 C 0.68566 0.27457 0.52314 0.0
H3688 H 0.61622 0.31653 0.465 0.0
H3689 H 0.66806 0.35128 0.47964 0.0
H3690 H 0.60566 0.34262 0.44144 0.0
H3691 H 0.62607 0.3731 0.43697 0.0
H3692 H 0.63273 0.18735 0.54876 0.0
H3693 H 0.61499 0.22602 0.5965 0.0
H3694 H 0.61645 0.15919 0.56557 0.0
H3695 H 0.60061 0.1635 0.59787 0.0
Gd3696 Gd 0.23755 0.51767 0.13928 0.0
Gd3697 Gd 0.2664 0.47662 0.14509 0.0
C3698 C 0.24863 0.41711 0.17251 0.0
C3699 C 0.25859 0.42184 0.20679 0.0
C3700 C 0.26642 0.44691 0.18202 0.0
C3701 C 0.25669 0.43591 0.16765 0.0
C3702 C 0.26857 0.43941 0.20141 0.0
C3703 C 0.24859 0.4107 0.19233 0.0
C3704 C 0.24201 0.40482 0.15719 0.0
C3705 C 0.24493 0.41074 0.1376 0.0
N3706 N 0.25723 0.44251 0.14857 0.0
C3707 C 0.25313 0.4295 0.13348 0.0
H3708 H 0.25532 0.4339 0.11822 0.0
C3709 C 0.29098 0.47144 0.18793 0.0
N3710 N 0.27601 0.46369 0.17632 0.0
C3711 C 0.29351 0.46471 0.20735 0.0
C3712 C 0.28172 0.44906 0.21437 0.0
H3713 H 0.29962 0.48402 0.18273 0.0
H3714 H 0.24193 0.39656 0.19641 0.0
H3715 H 0.28435 0.53297 0.1454 0.0
H3716 H 0.23572 0.39028 0.16028 0.0
H3717 H 0.2409 0.40076 0.12574 0.0
H3718 H 0.25955 0.41613 0.22177 0.0
H3719 H 0.19469 0.5199 0.11402 0.0
H3720 H 0.30046 0.56606 0.09335 0.0
H3721 H 0.3092 0.55274 0.12639 0.0
H3722 H 0.2409 0.56495 0.05439 0.0
H3723 H 0.30439 0.4717 0.21693 0.0
H3724 H 0.28373 0.4438 0.2294 0.0
H3725 H 0.27498 0.57032 0.06647 0.0
H3726 H 0.18302 0.53351 0.08198 0.0
N3727 N 0.26251 0.53486 0.12289 0.0
C3728 C 0.28964 0.55732 0.10151 0.0
C3729 C 0.29465 0.54982 0.12019 0.0
C3730 C 0.27063 0.55381 0.09373 0.0
C3731 C 0.25709 0.54245 0.10497 0.0
C3732 C 0.28071 0.53865 0.13087 0.0
N3733 N 0.22466 0.52887 0.10936 0.0
C3734 C 0.23771 0.53937 0.09806 0.0
C3735 C 0.19845 0.5351 0.08624 0.0
C3736 C 0.21179 0.54521 0.07393 0.0
C3737 C 0.20509 0.52729 0.10422 0.0
C3738 C 0.2316 0.54773 0.0799 0.0
H3739 H 0.20657 0.55136 0.06005 0.0
O3740 O 0.21221 0.5295 0.15398 0.0
O3741 O 0.24158 0.49205 0.15802 0.0
O3742 O 0.23963 0.46525 0.1281 0.0
O3743 O 0.22294 0.49435 0.11862 0.0
O3744 O 0.21245 0.49789 0.14884 0.0
O3745 O 0.23541 0.54977 0.14445 0.0
O3746 O 0.29477 0.49222 0.13934 0.0
O3747 O 0.26195 0.50152 0.12138 0.0
O3748 O 0.25138 0.52262 0.17278 0.0
O3749 O 0.2603 0.4908 0.17824 0.0
O3750 O 0.26688 0.47369 0.11041 0.0
O3751 O 0.29339 0.46065 0.14656 0.0
C3752 C 0.22357 0.4862 0.15922 0.0
C3753 C 0.24529 0.55857 0.06846 0.0
C3754 C 0.26472 0.56162 0.07535 0.0
C3755 C 0.2179 0.54788 0.15244 0.0
C3756 C 0.20185 0.56109 0.14671 0.0
C3757 C 0.20067 0.57033 0.12812 0.0
C3758 C 0.18559 0.56142 0.15946 0.0
C3759 C 0.16765 0.56956 0.1534 0.0
C3760 C 0.18286 0.57917 0.12221 0.0
C3761 C 0.16624 0.57851 0.13466 0.0
C3762 C 0.22569 0.47469 0.11789 0.0
C3763 C 0.26324 0.49175 0.10404 0.0
C3764 C 0.30454 0.47548 0.14096 0.0
C3765 C 0.3197 0.46983 0.12633 0.0
C3766 C 0.33819 0.47945 0.1265 0.0
C3767 C 0.31754 0.45175 0.11595 0.0
C3768 C 0.33406 0.44224 0.10769 0.0
C3769 C 0.35444 0.47081 0.11706 0.0
C3770 C 0.35254 0.45217 0.10806 0.0
C3771 C 0.25702 0.50888 0.18647 0.0
H3772 H 0.21312 0.57011 0.11801 0.0
H3773 H 0.18647 0.55398 0.17372 0.0
H3774 H 0.18176 0.58605 0.10776 0.0
H3775 H 0.1524 0.58501 0.12976 0.0
H3776 H 0.34032 0.49308 0.1348 0.0
H3777 H 0.30322 0.4443 0.11563 0.0
H3778 H 0.36882 0.47808 0.11763 0.0
H3779 H 0.36571 0.44522 0.10213 0.0
Gd3780 Gd 0.30161 0.51873 0.89994 0.0
Gd3781 Gd 0.2695 0.47961 0.89403 0.0
C3782 C 0.28919 0.43107 0.85093 0.0
C3783 C 0.27041 0.43918 0.82144 0.0
C3784 C 0.26544 0.45781 0.85188 0.0
C3785 C 0.2796 0.44647 0.8614 0.0
C3786 C 0.25955 0.45309 0.83236 0.0
C3787 C 0.28549 0.4284 0.83066 0.0
C3788 C 0.30108 0.41785 0.86137 0.0
C3789 C 0.30139 0.41877 0.8819 0.0
N3790 N 0.28208 0.44881 0.88131 0.0
C3791 C 0.2912 0.43391 0.89178 0.0
H3792 H 0.29092 0.43345 0.90773 0.0
C3793 C 0.23788 0.47896 0.85577 0.0
N3794 N 0.25581 0.47193 0.86245 0.0
C3795 C 0.23074 0.47366 0.83703 0.0
C3796 C 0.2421 0.4614 0.82492 0.0
H3797 H 0.22954 0.48948 0.86442 0.0
H3798 H 0.29312 0.41698 0.82237 0.0
H3799 H 0.25902 0.53302 0.87614 0.0
H3800 H 0.30886 0.40598 0.85388 0.0
H3801 H 0.30945 0.40758 0.88992 0.0
H3802 H 0.26656 0.43589 0.80621 0.0
H3803 H 0.32039 0.51442 0.94675 0.0
H3804 H 0.23858 0.58555 0.90479 0.0
H3805 H 0.23594 0.56103 0.87765 0.0
H3806 H 0.2789 0.58944 0.96313 0.0
H3807 H 0.21691 0.47971 0.83163 0.0
H3808 H 0.23685 0.4578 0.81017 0.0
H3809 H 0.25489 0.5962 0.93653 0.0
H3810 H 0.32318 0.53553 0.97608 0.0
N3811 N 0.27559 0.54196 0.90147 0.0
C3812 C 0.24895 0.57333 0.9041 0.0
C3813 C 0.24745 0.55953 0.88874 0.0
C3814 C 0.26331 0.57075 0.91881 0.0
C3815 C 0.27636 0.55452 0.91725 0.0
C3816 C 0.26082 0.54374 0.88776 0.0
N3817 N 0.30033 0.53367 0.93146 0.0
C3818 C 0.28942 0.55043 0.93254 0.0
C3819 C 0.31372 0.53999 0.96392 0.0
C3820 C 0.30321 0.55773 0.96488 0.0
C3821 C 0.3119 0.52795 0.94717 0.0
C3822 C 0.29045 0.56289 0.94934 0.0
H3823 H 0.30447 0.56694 0.97798 0.0
O3824 O 0.33082 0.5213 0.91223 0.0
O3825 O 0.29954 0.48884 0.88832 0.0
O3826 O 0.29318 0.46664 0.91379 0.0
O3827 O 0.31481 0.49345 0.91848 0.0
O3828 O 0.31685 0.50757 0.87196 0.0
O3829 O 0.32027 0.5445 0.89278 0.0
O3830 O 0.23879 0.48903 0.8997 0.0
O3831 O 0.27497 0.50488 0.91782 0.0
O3832 O 0.29276 0.52414 0.86503 0.0
O3833 O 0.2713 0.49762 0.86207 0.0
O3834 O 0.26773 0.47729 0.92828 0.0
O3835 O 0.24822 0.45712 0.89975 0.0
C3836 C 0.31022 0.4896 0.87305 0.0
C3837 C 0.27829 0.57968 0.95039 0.0
C3838 C 0.26464 0.58353 0.93522 0.0
C3839 C 0.33551 0.53701 0.90212 0.0
C3840 C 0.35446 0.53559 0.89142 0.0
C3841 C 0.3666 0.51867 0.8935 0.0
C3842 C 0.36083 0.55134 0.8794 0.0
C3843 C 0.37881 0.54996 0.86924 0.0
C3844 C 0.38467 0.51755 0.88357 0.0
C3845 C 0.39069 0.53304 0.87126 0.0
C3846 C 0.30902 0.47493 0.92215 0.0
C3847 C 0.27213 0.49493 0.93511 0.0
C3848 C 0.23381 0.47007 0.90146 0.0
C3849 C 0.21416 0.46268 0.90696 0.0
C3850 C 0.19736 0.46875 0.89642 0.0
C3851 C 0.21329 0.44553 0.91862 0.0
C3852 C 0.19681 0.43274 0.91775 0.0
C3853 C 0.18021 0.45693 0.89663 0.0
C3854 C 0.18007 0.43876 0.90676 0.0
C3855 C 0.28126 0.51269 0.85276 0.0
H3856 H 0.36231 0.50631 0.9029 0.0
H3857 H 0.35191 0.56464 0.87802 0.0
H3858 H 0.39409 0.50474 0.88557 0.0
H3859 H 0.40486 0.53209 0.86373 0.0
H3860 H 0.19794 0.48177 0.88696 0.0
H3861 H 0.22627 0.44144 0.92717 0.0
H3862 H 0.16741 0.46126 0.88798 0.0
H3863 H 0.16713 0.42923 0.90536 0.0
Gd3864 Gd 0.29614 0.51172 0.63613 0.0
Gd3865 Gd 0.26523 0.55235 0.64005 0.0
C3866 C 0.27428 0.61282 0.66996 0.0
C3867 C 0.25829 0.60769 0.70177 0.0
C3868 C 0.25706 0.58188 0.67657 0.0
C3869 C 0.26859 0.59344 0.66415 0.0
C3870 C 0.2509 0.58932 0.6951 0.0
C3871 C 0.27004 0.61942 0.68921 0.0
C3872 C 0.28288 0.62542 0.65588 0.0
C3873 C 0.28418 0.61914 0.63627 0.0
N3874 N 0.27223 0.58666 0.64556 0.0
C3875 C 0.27822 0.59984 0.63122 0.0
H3876 H 0.27888 0.5954 0.61585 0.0
C3877 C 0.23524 0.55442 0.67962 0.0
N3878 N 0.25019 0.56423 0.66965 0.0
C3879 C 0.2285 0.56134 0.6979 0.0
C3880 C 0.23671 0.57862 0.70592 0.0
H3881 H 0.22955 0.54036 0.67428 0.0
H3882 H 0.27477 0.63404 0.6941 0.0
H3883 H 0.25281 0.49771 0.65546 0.0
H3884 H 0.28741 0.64042 0.65973 0.0
H3885 H 0.28954 0.62923 0.62498 0.0
H3886 H 0.25418 0.61339 0.71618 0.0
H3887 H 0.32733 0.51194 0.59612 0.0
H3888 H 0.22386 0.4592 0.6137 0.0
H3889 H 0.22428 0.47613 0.64621 0.0
H3890 H 0.26868 0.4584 0.55867 0.0
H3891 H 0.21728 0.55308 0.70598 0.0
H3892 H 0.23158 0.58387 0.72017 0.0
H3893 H 0.2405 0.4527 0.58113 0.0
H3894 H 0.32885 0.49642 0.56333 0.0
N3895 N 0.26813 0.49273 0.62855 0.0
C3896 C 0.23639 0.46857 0.6177 0.0
C3897 C 0.23657 0.47813 0.63608 0.0
C3898 C 0.2523 0.47129 0.60463 0.0
C3899 C 0.26825 0.48358 0.61055 0.0
C3900 C 0.25269 0.49027 0.6413 0.0
N3901 N 0.29917 0.49907 0.60364 0.0
C3902 C 0.28418 0.48684 0.59778 0.0
C3903 C 0.31617 0.49366 0.5728 0.0
C3904 C 0.30074 0.48132 0.56644 0.0
C3905 C 0.31508 0.5026 0.5914 0.0
C3906 C 0.28451 0.47778 0.57892 0.0
H3907 H 0.30152 0.47459 0.5519 0.0
O3908 O 0.32198 0.49435 0.62915 0.0
O3909 O 0.29036 0.53782 0.65358 0.0
O3910 O 0.29295 0.5644 0.62561 0.0
O3911 O 0.31101 0.53591 0.61716 0.0
O3912 O 0.31963 0.53297 0.64666 0.0
O3913 O 0.30569 0.48784 0.65585 0.0
O3914 O 0.23426 0.54086 0.6389 0.0
O3915 O 0.27129 0.52628 0.61787 0.0
O3916 O 0.28617 0.50918 0.67134 0.0
O3917 O 0.26956 0.5387 0.67426 0.0
O3918 O 0.26849 0.55417 0.6059 0.0
O3919 O 0.24412 0.56666 0.62218 0.0
C3920 C 0.30787 0.54426 0.65637 0.0
C3921 C 0.26867 0.46546 0.57309 0.0
C3922 C 0.25263 0.46221 0.58589 0.0
C3923 C 0.32248 0.48611 0.64639 0.0
C3924 C 0.34059 0.49042 0.65769 0.0
C3925 C 0.35228 0.50745 0.65354 0.0
C3926 C 0.34676 0.47727 0.67231 0.0
C3927 C 0.36449 0.48105 0.68238 0.0
C3928 C 0.36827 0.51252 0.66558 0.0
C3929 C 0.37426 0.49944 0.68028 0.0
C3930 C 0.3074 0.55531 0.61598 0.0
C3931 C 0.27139 0.5359 0.60048 0.0
C3932 C 0.22898 0.5561 0.62789 0.0
C3933 C 0.21198 0.56905 0.63284 0.0
C3934 C 0.19873 0.56512 0.64836 0.0
C3935 C 0.21027 0.58712 0.6223 0.0
C3936 C 0.1969 0.60182 0.62803 0.0
C3937 C 0.18469 0.57943 0.65372 0.0
C3938 C 0.18387 0.59775 0.64378 0.0
C3939 C 0.27718 0.5224 0.68384 0.0
H3940 H 0.3495 0.51668 0.64076 0.0
H3941 H 0.33921 0.46308 0.67408 0.0
H3942 H 0.37686 0.52584 0.66258 0.0
H3943 H 0.38813 0.50237 0.68794 0.0
H3944 H 0.1994 0.55127 0.65649 0.0
H3945 H 0.21989 0.59009 0.60976 0.0
H3946 H 0.17465 0.57648 0.66588 0.0
H3947 H 0.17328 0.60879 0.64856 0.0
Gd3948 Gd 0.27081 0.55252 0.38762 0.0
Gd3949 Gd 0.23207 0.51997 0.3934 0.0
C3950 C 0.18255 0.53249 0.43835 0.0
C3951 C 0.19092 0.50991 0.465 0.0
C3952 C 0.2107 0.51046 0.43477 0.0
C3953 C 0.19865 0.52531 0.42693 0.0
C3954 C 0.2063 0.50208 0.4535 0.0
C3955 C 0.17918 0.52515 0.4575 0.0
C3956 C 0.17005 0.54677 0.43025 0.0
C3957 C 0.17304 0.55301 0.41095 0.0
N3958 N 0.202 0.53214 0.40811 0.0
C3959 C 0.18866 0.54522 0.39989 0.0
H3960 H 0.18921 0.55002 0.38478 0.0
C3961 C 0.23547 0.48621 0.42937 0.0
N3962 N 0.22613 0.50349 0.42385 0.0
C3963 C 0.23119 0.47719 0.44752 0.0
C3964 C 0.21699 0.48553 0.45991 0.0
H3965 H 0.2471 0.48005 0.4203 0.0
H3966 H 0.16711 0.53081 0.46643 0.0
H3967 H 0.28738 0.51061 0.41066 0.0
H3968 H 0.15776 0.55276 0.43864 0.0
H3969 H 0.16315 0.56383 0.40453 0.0
H3970 H 0.18766 0.50391 0.47954 0.0
H3971 H 0.26506 0.57689 0.3438 0.0
H3972 H 0.32771 0.48216 0.37137 0.0
H3973 H 0.31078 0.48378 0.40375 0.0
H3974 H 0.32383 0.52084 0.31209 0.0
H3975 H 0.23916 0.46406 0.45213 0.0
H3976 H 0.21394 0.47868 0.47413 0.0
H3977 H 0.33252 0.49609 0.33736 0.0
H3978 H 0.27908 0.57574 0.31045 0.0
N3979 N 0.29129 0.52483 0.38277 0.0
C3980 C 0.31754 0.4942 0.37437 0.0
C3981 C 0.308 0.49506 0.39267 0.0
C3982 C 0.31355 0.5086 0.35999 0.0
C3983 C 0.30019 0.52397 0.36462 0.0
C3984 C 0.29477 0.51048 0.39661 0.0
N3985 N 0.28145 0.55193 0.35451 0.0
C3986 C 0.29521 0.53794 0.35019 0.0
C3987 C 0.28376 0.56503 0.32146 0.0
C3988 C 0.29779 0.55069 0.31671 0.0
C3989 C 0.27571 0.56547 0.34048 0.0
C3990 C 0.30364 0.53689 0.33107 0.0
H3991 H 0.30385 0.55027 0.30186 0.0
O3992 O 0.27623 0.58279 0.37844 0.0
O3993 O 0.24098 0.55039 0.39939 0.0
O3994 O 0.2188 0.54267 0.37321 0.0
O3995 O 0.24411 0.56649 0.37062 0.0
O3996 O 0.25985 0.56739 0.41565 0.0
O3997 O 0.29982 0.56621 0.39301 0.0
O3998 O 0.24021 0.48916 0.38574 0.0
O3999 O 0.25783 0.52538 0.37074 0.0
O4000 O 0.27632 0.5431 0.42212 0.0
O4001 O 0.24976 0.52164 0.42502 0.0
O4002 O 0.23047 0.51897 0.359 0.0
O4003 O 0.20882 0.49983 0.38766 0.0
C4004 C 0.24182 0.56076 0.41489 0.0
C4005 C 0.31726 0.52187 0.32669 0.0
C4006 C 0.3222 0.50777 0.34109 0.0
C4007 C 0.2947 0.58259 0.38399 0.0
C4008 C 0.30373 0.6016 0.38952 0.0
C4009 C 0.31312 0.61234 0.37432 0.0
C4010 C 0.30216 0.60987 0.40858 0.0
C4011 C 0.31008 0.62896 0.41209 0.0
C4012 C 0.32093 0.63119 0.3779 0.0
C4013 C 0.31941 0.63948 0.39667 0.0
C4014 C 0.22596 0.5596 0.36608 0.0
C4015 C 0.24849 0.52302 0.35327 0.0
C4016 C 0.22104 0.48506 0.38439 0.0
C4017 C 0.21242 0.46635 0.37748 0.0
C4018 C 0.22075 0.44793 0.38227 0.0
C4019 C 0.19404 0.4671 0.36791 0.0
C4020 C 0.18336 0.44979 0.36395 0.0
C4021 C 0.21042 0.4304 0.37767 0.0
C4022 C 0.1917 0.43127 0.36863 0.0
C4023 C 0.26487 0.53142 0.43414 0.0
H4024 H 0.31419 0.6062 0.35953 0.0
H4025 H 0.2948 0.60172 0.42035 0.0
H4026 H 0.32809 0.63942 0.36609 0.0
H4027 H 0.32563 0.65417 0.39925 0.0
H4028 H 0.23482 0.44714 0.39001 0.0
H4029 H 0.18766 0.48134 0.36397 0.0
H4030 H 0.21668 0.41614 0.38155 0.0
H4031 H 0.18361 0.41762 0.36569 0.0
C4032 C 0.04486 0.46716 0.25549 0.0
C4033 C 0.03498 0.45449 0.26977 0.0
C4034 C 0.04452 0.48917 0.25474 0.0
C4035 C 0.03427 0.50157 0.26892 0.0
C4036 C 0.02451 0.48908 0.28374 0.0
C4037 C 0.02514 0.4669 0.28408 0.0
C4038 C 0.05594 0.49918 0.23833 0.0
C4039 C 1.01326 0.49921 0.30004 0.0
C4040 C 0.05148 0.56091 0.27383 0.0
C4041 C 0.03581 0.57376 0.26678 0.0
C4042 C 0.05101 0.5389 0.27501 0.0
C4043 C 0.03447 0.52659 0.26851 0.0
C4044 C 0.01845 0.53926 0.26143 0.0
C4045 C 0.01923 0.56142 0.261 0.0
C4046 C 0.06894 0.52884 0.28365 0.0
C4047 C 0.99993 0.52957 0.25339 0.0
H4048 H 0.05358 0.45961 0.24437 0.0
H4049 H 0.01854 0.45942 0.29653 0.0
H4050 H 0.04835 0.51284 0.23316 0.0
H4051 H 0.07085 0.50349 0.24391 0.0
H4052 H 0.05802 0.48908 0.22551 0.0
H4053 H 1.01225 0.48972 0.31346 0.0
H4054 H 0.02028 0.51361 0.30413 0.0
H4055 H 0.99794 0.50224 0.2948 0.0
H4056 H 0.06492 0.56829 0.27882 0.0
H4057 H 1.00636 0.56894 0.2559 0.0
H4058 H 0.07928 0.52497 0.2715 0.0
H4059 H 0.06482 0.51497 0.29161 0.0
H4060 H 0.07701 0.53882 0.29406 0.0
H4061 H 1.00021 0.53053 0.23699 0.0
H4062 H 0.98658 0.53761 0.25859 0.0
H4063 H 0.99851 0.5137 0.25763 0.0
C4064 C 0.81086 0.79111 0.50472 0.0
C4065 C 0.82344 0.78253 0.51981 0.0
C4066 C 0.78887 0.78985 0.50353 0.0
C4067 C 0.77633 0.77991 0.51804 0.0
C4068 C 0.78877 0.77161 0.5337 0.0
C4069 C 0.81088 0.77309 0.53439 0.0
C4070 C 0.77909 0.80004 0.48627 0.0
C4071 C 0.7787 0.76113 0.55067 0.0
C4072 C 0.71677 0.79556 0.52161 0.0
C4073 C 0.70408 0.77917 0.51554 0.0
C4074 C 0.73874 0.7959 0.52256 0.0
C4075 C 0.75128 0.77929 0.51733 0.0
C4076 C 0.7388 0.76235 0.51163 0.0
C4077 C 0.71658 0.7624 0.51121 0.0
C4078 C 0.74852 0.81478 0.52969 0.0
C4079 C 0.74889 0.74357 0.5052 0.0
H4080 H 0.81843 0.79952 0.49327 0.0
H4081 H 0.8182 0.76755 0.54736 0.0
H4082 H 0.76484 0.79274 0.48213 0.0
H4083 H 0.776 0.81568 0.49034 0.0
H4084 H 0.78899 0.80028 0.47313 0.0
H4085 H 0.78743 0.76272 0.56454 0.0
H4086 H 0.7635 0.76683 0.55327 0.0
H4087 H 0.77758 0.74504 0.5472 0.0
H4088 H 0.70928 0.80889 0.52635 0.0
H4089 H 0.70907 0.74867 0.50795 0.0
H4090 H 0.75286 0.82392 0.5167 0.0
H4091 H 0.76211 0.81162 0.53845 0.0
H4092 H 0.73829 0.82374 0.53892 0.0
H4093 H 0.75123 0.74422 0.48894 0.0
H4094 H 0.73956 0.7303 0.50849 0.0
H4095 H 0.76359 0.74175 0.51236 0.0
C4096 C 0.51588 0.46727 0.77154 0.0
C4097 C 0.50024 0.45616 0.76191 0.0
C4098 C 0.51763 0.48938 0.77227 0.0
C4099 C 0.50308 0.50308 0.76403 0.0
C4100 C 0.4869 0.49195 0.75504 0.0
C4101 C 0.48588 0.46997 0.75407 0.0
C4102 C 0.53582 0.49814 0.78191 0.0
C4103 C 0.46973 0.50338 0.74656 0.0
C4104 C 0.50047 0.56184 0.78326 0.0
C4105 C 0.50583 0.57491 0.76716 0.0
C4106 C 0.49901 0.53985 0.78237 0.0
C4107 C 0.5043 0.52803 0.76518 0.0
C4108 C 0.51043 0.54106 0.74902 0.0
C4109 C 0.51057 0.56318 0.74997 0.0
C4110 C 0.49114 0.5292 0.80037 0.0
C4111 C 0.51759 0.53145 0.73027 0.0
H4112 H 0.52675 0.4587 0.77944 0.0
H4113 H 0.47293 0.46338 0.7471 0.0
H4114 H 0.54562 0.50445 0.77025 0.0
H4115 H 0.53184 0.51048 0.79196 0.0
H4116 H 0.54429 0.48689 0.79042 0.0
H4117 H 0.45657 0.49371 0.74386 0.0
H4118 H 0.4654 0.51561 0.75667 0.0
H4119 H 0.4742 0.51014 0.73226 0.0
H4120 H 0.49679 0.56897 0.79709 0.0
H4121 H 0.5151 0.57138 0.73691 0.0
H4122 H 0.50356 0.52197 0.80834 0.0
H4123 H 0.4804 0.5174 0.79599 0.0
H4124 H 0.48371 0.53953 0.81079 0.0
H4125 H 0.52905 0.52018 0.73382 0.0
H4126 H 0.52396 0.54243 0.71972 0.0
H4127 H 0.5051 0.52358 0.72293 0.0
C4128 C 0.81379 0.24031 0.02734 0.0
C4129 C 0.82566 0.25659 0.01979 0.0
C4130 C 0.79169 0.23927 0.02736 0.0
C4131 C 0.77878 0.25499 0.0201 0.0
C4132 C 0.79068 0.27144 1.01263 0.0
C4133 C 0.81269 0.27183 1.01242 0.0
C4134 C 0.78202 0.22046 0.03479 0.0
C4135 C 0.78008 0.28931 1.00452 0.0
C4136 C 0.71973 0.25036 1.00243 0.0
C4137 C 0.70686 0.25381 0.01916 0.0
C4138 C 0.74175 0.25012 1.00262 0.0
C4139 C 0.75384 0.25424 0.01997 0.0
C4140 C 0.74107 0.25729 0.03709 0.0
C4141 C 0.719 0.25609 0.03659 0.0
C4142 C 0.75213 0.24454 0.98373 0.0
C4143 C 0.75059 0.26248 0.05659 0.0
H4144 H 0.82189 0.22766 0.03297 0.0
H4145 H 0.81989 0.28481 1.00649 0.0
H4146 H 0.77341 0.22359 0.0484 0.0
H4147 H 0.7714 0.2147 0.02355 0.0
H4148 H 0.79303 0.20872 0.0382 0.0
H4149 H 0.78993 0.30261 1.00402 0.0
H4150 H 0.77506 0.2861 0.98921 0.0
H4151 H 0.76679 0.29281 1.01354 0.0
H4152 H 0.71236 0.24712 0.98853 0.0
H4153 H 0.71137 0.25576 0.05051 0.0
H4154 H 0.76507 0.23485 0.98682 0.0
H4155 H 0.75768 0.25818 0.9763 0.0
H4156 H 0.742 0.23666 0.97333 0.0
H4157 H 0.7413 0.25742 0.06923 0.0
H4158 H 0.75208 0.27889 0.0575 0.0
H4159 H 0.76566 0.25618 0.05812 0.0
C4160 C 0.25095 0.02605 0.46604 0.0
C4161 C 0.26752 0.03441 0.45531 0.0
C4162 C 0.24947 0.02402 0.48794 0.0
C4163 C 0.2645 0.03101 0.50198 0.0
C4164 C 0.28122 0.03949 0.49118 0.0
C4165 C 0.28239 0.04087 0.46931 0.0
C4166 C 0.23106 1.01398 0.49574 0.0
C4167 C 0.29866 0.04763 0.5026 0.0
C4168 C 0.24786 0.04037 0.56063 0.0
C4169 C 0.25974 0.02809 0.5735 0.0
C4170 C 0.24966 0.0419 0.53879 0.0
C4171 C 0.26278 0.02979 0.52682 0.0
C4172 C 0.27413 0.01654 0.53957 0.0
C4173 C 0.27296 0.01629 0.5616 0.0
C4174 C 0.23735 0.05731 0.52839 0.0
C4175 C 0.28735 1.00157 0.52978 0.0
H4176 H 0.23847 0.02101 0.4572 0.0
H4177 H 0.2959 0.04688 0.4631 0.0
H4178 H 0.23249 1.00937 0.51145 0.0
H4179 H 0.21836 0.02431 0.49432 0.0
H4180 H 0.22749 1.00066 0.48667 0.0
H4181 H 0.30494 0.06096 0.49511 0.0
H4182 H 0.29475 0.05163 0.51803 0.0
H4183 H 0.31054 0.0363 0.50294 0.0
H4184 H 0.23677 0.04938 0.56773 0.0
H4185 H 0.28231 1.00598 0.56957 0.0
H4186 H 0.22588 0.04987 0.5192 0.0
H4187 H 0.24688 0.06633 0.51835 0.0
H4188 H 0.22981 0.0674 0.53894 0.0
H4189 H 0.27922 0.99403 0.51757 0.0
H4190 H 0.29271 0.99015 0.54037 0.0
H4191 H 0.30042 1.00922 0.52327 0.0
C4192 C 0.23915 1.00343 0.71727 0.0
C4193 C 0.24757 0.01885 0.70484 0.0
C4194 C 0.24001 1.00236 0.73923 0.0
C4195 C 0.24958 0.01711 0.75177 0.0
C4196 C 0.25774 0.03304 0.73949 0.0
C4197 C 0.25627 0.03389 0.71746 0.0
C4198 C 0.22971 0.98516 0.74924 0.0
C4199 C 0.26846 0.04981 0.74972 0.0
C4200 C 0.23799 0.02388 0.81235 0.0
C4201 C 0.25277 1.01312 0.82352 0.0
C4202 C 0.23677 0.02519 0.79033 0.0
C4203 C 0.25069 1.01591 0.7767 0.0
C4204 C 0.26557 1.00507 0.78787 0.0
C4205 C 0.26621 1.00371 0.80983 0.0
C4206 C 0.21982 0.03663 0.78145 0.0
C4207 C 0.28139 0.99441 0.7764 0.0
H4208 H 0.2311 0.99176 0.70959 0.0
H4209 H 0.26131 0.04728 0.7102 0.0
H4210 H 0.24051 0.97673 0.75832 0.0
H4211 H 0.21816 0.99084 0.75945 0.0
H4212 H 0.22261 0.97484 0.7385 0.0
H4213 H 0.26979 0.06314 0.74009 0.0
H4214 H 0.26083 0.05404 0.76362 0.0
H4215 H 0.28363 0.04482 0.7537 0.0
H4216 H 0.22671 0.03132 0.82096 0.0
H4217 H 0.27778 0.99486 0.81638 0.0
H4218 H 0.21109 0.02678 0.77148 0.0
H4219 H 0.22569 0.04905 0.77229 0.0
H4220 H 0.20977 0.04277 0.7929 0.0
H4221 H 0.27469 0.98145 0.76869 0.0
H4222 H 0.29354 0.98901 0.78611 0.0
H4223 H 0.28779 1.00439 0.76492 0.0
C4224 C 0.25058 1.00254 0.06167 0.0
C4225 C 0.26846 1.00172 0.07347 0.0
C4226 C 0.24971 1.00267 0.03959 0.0
C4227 C 0.26696 1.00127 0.02663 0.0
C4228 C 0.28491 0.9999 0.03848 0.0
C4229 C 0.28536 1.00047 0.06041 0.0
C4230 C 0.22964 1.00449 0.03 0.0
C4231 C 0.30438 0.9976 0.02785 0.0
C4232 C 0.26304 0.9821 0.96828 0.0
C4233 C 0.26592 0.99858 0.95482 0.0
C4234 C 0.26301 0.98277 0.99019 0.0
C4235 C 0.26636 1.00062 1.00172 0.0
C4236 C 0.26993 0.01743 0.98845 0.0
C4237 C 0.27004 0.01619 0.96636 0.0
C4238 C 0.25996 0.96353 1.0012 0.0
C4239 C 0.27364 0.03743 0.9977 0.0
H4240 H 0.23676 1.00351 0.06977 0.0
H4241 H 0.29966 0.9993 0.06754 0.0
H4242 H 0.23025 1.01526 0.01753 0.0
H4243 H 0.22511 0.98987 0.02384 0.0
H4244 H 0.21812 1.00931 0.04069 0.0
H4245 H 0.31646 0.99286 0.03799 0.0
H4246 H 0.30297 0.98655 1.01572 0.0
H4247 H 0.30872 1.01203 0.0211 0.0
H4248 H 0.26123 0.96774 0.9615 0.0
H4249 H 0.27431 0.02931 0.95815 0.0
H4250 H 0.24695 0.96473 1.01117 0.0
H4251 H 0.27312 0.96051 1.01062 0.0
H4252 H 0.25753 0.95072 0.9911 0.0
H4253 H 0.25946 0.04309 1.00378 0.0
H4254 H 0.27951 0.04839 0.98685 0.0
H4255 H 0.28426 0.03622 1.0102 0.0
C4256 C 0.30218 1.01447 0.2188 0.0
C4257 C 0.28541 1.01326 0.20535 0.0
C4258 C 0.30166 1.01568 0.24076 0.0
C4259 C 0.28361 1.0156 0.25257 0.0
C4260 C 0.26646 1.01495 0.23926 0.0
C4261 C 0.26753 1.01434 0.21711 0.0
C4262 C 0.3214 0.01776 0.25108 0.0
C4263 C 0.24619 1.01526 0.24854 0.0
C4264 C 0.28824 1.00294 0.31352 0.0
C4265 C 0.28088 0.01967 0.3247 0.0
C4266 C 0.28919 1.00147 0.29144 0.0
C4267 C 0.28272 0.01694 0.27763 0.0
C4268 C 0.27592 0.03402 0.28894 0.0
C4269 C 0.27526 0.03501 0.3109 0.0
C4270 C 0.29773 0.98271 0.28297 0.0
C4271 C 0.26953 0.05244 0.27807 0.0
H4272 H 0.31667 1.01513 0.21198 0.0
H4273 H 0.25386 1.01557 0.20905 0.0
H4274 H 0.32002 0.02358 0.26637 0.0
H4275 H 0.32863 1.00299 0.25164 0.0
H4276 H 0.33139 0.02784 0.24258 0.0
H4277 H 0.23453 1.01001 0.23819 0.0
H4278 H 0.24578 1.00595 0.26213 0.0
H4279 H 0.24253 0.03072 0.25274 0.0
H4280 H 0.29358 0.99048 0.32214 0.0
H4281 H 0.27064 0.04876 0.31745 0.0
H4282 H 0.31393 0.98487 0.2808 0.0
H4283 H 0.29097 0.97899 0.26843 0.0
H4284 H 0.29562 0.96994 0.29321 0.0
H4285 H 0.27579 0.06589 0.28537 0.0
H4286 H 0.25312 0.0536 0.27889 0.0
H4287 H 0.27411 0.05252 0.2623 0.0
C4288 C 0.46947 0.28427 0.02517 0.0
C4289 C 0.45624 0.26875 0.0321 0.0
C4290 C 0.49156 0.28385 0.02495 0.0
C4291 C 0.50351 0.26735 0.03197 0.0
C4292 C 0.49038 0.25159 0.03927 0.0
C4293 C 0.46817 0.25245 0.03931 0.0
C4294 C 0.50234 0.3017 1.01677 0.0
C4295 C 0.50001 0.23327 0.04755 0.0
C4296 C 0.5627 0.25822 1.01541 0.0
C4297 C 0.57591 0.26602 0.03044 0.0
C4298 C 0.54058 0.25863 1.01563 0.0
C4299 C 0.52864 0.26675 0.0316 0.0
C4300 C 0.54178 0.27452 0.047 0.0
C4301 C 0.56396 0.27424 0.0462 0.0
C4302 C 0.52975 0.25005 0.9981 0.0
C4303 C 0.53222 0.28328 0.06507 0.0
H4304 H 0.46238 0.29755 0.01997 0.0
H4305 H 0.46006 0.23983 0.04524 0.0
H4306 H 0.51401 0.30675 0.02726 0.0
H4307 H 0.50985 0.29752 1.00277 0.0
H4308 H 0.4922 0.31428 1.01375 0.0
H4309 H 0.48895 0.22193 0.05235 0.0
H4310 H 0.50988 0.2266 0.03625 0.0
H4311 H 0.50945 0.23741 0.0604 0.0
H4312 H 0.56981 0.25175 1.00273 0.0
H4313 H 0.57208 0.28037 0.05864 0.0
H4314 H 0.51893 0.26099 0.99228 0.0
H4315 H 0.52122 0.23669 1.0028 0.0
H4316 H 0.54 0.24577 0.98598 0.0
H4317 H 0.52431 0.29709 0.06091 0.0
H4318 H 0.54322 0.28688 0.07682 0.0
H4319 H 0.52099 0.27277 0.07116 0.0
C4320 C 0.96794 0.28654 1.00992 0.0
C4321 C 0.95504 0.26943 1.00812 0.0
C4322 C 0.98994 0.28643 1.00969 0.0
C4323 C 1.00183 0.26866 1.00771 0.0
C4324 C 0.98899 0.25129 1.00546 0.0
C4325 C 0.96694 0.25197 1.00512 0.0
C4326 C 1.00065 0.3061 1.01091 0.0
C4327 C 0.9986 0.23124 1.00374 0.0
C4328 C 0.06105 0.26741 0.99023 0.0
C4329 C 0.07355 0.26919 1.00753 0.0
C4330 C 0.03901 0.26751 0.99002 0.0
C4331 C 0.02672 0.26848 1.00766 0.0
C4332 C 0.03918 0.26959 0.02523 0.0
C4333 C 0.06122 0.27024 0.02492 0.0
C4334 C 0.02881 0.26755 0.97017 0.0
C4335 C 0.02918 0.27015 0.04513 0.0
H4336 H 0.96063 0.30076 1.0112 0.0
H4337 H 0.959 0.2384 1.00178 0.0
H4338 H 1.00954 0.30674 0.02472 0.0
H4339 H 1.01114 0.30762 0.99831 0.0
H4340 H 0.9903 0.31887 1.01073 0.0
H4341 H 0.98789 0.21953 0.999 0.0
H4342 H 1.01117 0.23167 0.99316 0.0
H4343 H 1.00475 0.22703 0.0184 0.0
H4344 H 0.06855 0.26626 0.97618 0.0
H4345 H 0.06893 0.27127 0.03895 0.0
H4346 H 0.02296 0.28267 0.96725 0.0
H4347 H 1.01597 0.25716 0.97 0.0
H4348 H 0.03904 0.26352 0.95797 0.0
H4349 H 0.02526 0.28573 0.04866 0.0
H4350 H 0.03916 0.26466 0.05701 0.0
H4351 H 1.01532 0.26111 0.04519 0.0
C4352 C 1.00135 0.71635 0.26105 0.0
C4353 C 0.01857 0.70498 0.25584 0.0
C4354 C 1.00034 0.73838 0.26151 0.0
C4355 C 0.01654 0.75167 0.25567 0.0
C4356 C 0.03369 0.74009 0.24963 0.0
C4357 C 0.03457 0.71815 0.25038 0.0
C4358 C 0.98124 0.74718 0.26886 0.0
C4359 C 0.05175 0.75053 0.24146 0.0
C4360 C 1.00044 0.8104 0.24547 0.0
C4361 C 1.01365 0.8233 0.25633 0.0
C4362 C 1.00165 0.78848 0.24444 0.0
C4363 C 1.01559 0.77659 0.25582 0.0
C4364 C 0.02856 0.78956 0.26746 0.0
C4365 C 0.02783 0.81161 0.26711 0.0
C4366 C 0.98766 0.7784 0.23019 0.0
C4367 C 0.04346 0.78032 0.28123 0.0
H4368 H 0.98834 0.70795 0.26553 0.0
H4369 H 0.04831 0.71117 0.24596 0.0
H4370 H 0.98323 0.76258 0.27442 0.0
H4371 H 0.97028 0.74727 0.25658 0.0
H4372 H 0.97484 0.73791 0.28093 0.0
H4373 H 0.05721 0.74259 0.22813 0.0
H4374 H 0.04888 0.76621 0.23736 0.0
H4375 H 0.06383 0.75003 0.25264 0.0
H4376 H 0.98883 0.81756 0.23704 0.0
H4377 H 0.03833 0.81976 0.27621 0.0
H4378 H 0.97244 0.77848 0.23646 0.0
H4379 H 0.99196 0.76288 0.22683 0.0
H4380 H 0.98712 0.78683 0.21606 0.0
H4381 H 0.03901 0.76509 0.28585 0.0
H4382 H 0.0455 0.78957 0.2947 0.0
H4383 H 0.05804 0.7796 0.27365 0.0
C4384 C 0.55995 0.76753 0.51843 0.0
C4385 C 0.57276 0.76512 0.50148 0.0
C4386 C 0.53785 0.76703 0.5183 0.0
C4387 C 0.52571 0.76458 0.50062 0.0
C4388 C 0.53849 0.76245 0.48338 0.0
C4389 C 0.56062 0.76252 0.48401 0.0
C4390 C 0.52727 0.76904 0.53778 0.0
C4391 C 0.52859 0.76051 0.4635 0.0
C4392 C 0.46605 0.74686 0.50098 0.0
C4393 C 0.45359 0.76411 0.49887 0.0
C4394 C 0.48814 0.74677 0.50176 0.0
C4395 C 0.50068 0.76442 0.50019 0.0
C4396 C 0.48828 0.78192 0.49801 0.0
C4397 C 0.46619 0.7815 0.49707 0.0
C4398 C 0.49826 0.72705 0.50405 0.0
C4399 C 0.49859 0.80174 0.49617 0.0
H4400 H 0.56734 0.76954 0.53251 0.0
H4401 H 0.56855 0.76104 0.47015 0.0
H4402 H 0.51652 0.78145 0.53705 0.0
H4403 H 0.51863 0.75525 0.54082 0.0
H4404 H 0.53769 0.77173 0.55027 0.0
H4405 H 0.5394 0.75769 0.45143 0.0
H4406 H 0.51748 0.74825 0.46381 0.0
H4407 H 0.52048 0.77442 0.4601 0.0
H4408 H 0.45839 0.73277 0.50189 0.0
H4409 H 0.45862 0.79542 0.49453 0.0
H4410 H 0.50715 0.72705 0.5179 0.0
H4411 H 0.50869 0.72473 0.49157 0.0
H4412 H 0.48754 0.71444 0.50454 0.0
H4413 H 0.50866 0.80409 0.50899 0.0
H4414 H 0.48795 0.81426 0.49542 0.0
H4415 H 0.5079 0.80191 0.48263 0.0
C4416 C 0.96937 0.78664 0.54112 0.0
C4417 C 0.95606 0.77337 0.53065 0.0
C4418 C 0.99145 0.78555 0.54146 0.0
C4419 C 1.00312 0.77113 0.53048 0.0
C4420 C 0.9898 0.75784 0.51964 0.0
C4421 C 0.96769 0.75892 0.52003 0.0
C4422 C 1.00249 0.80032 0.55413 0.0
C4423 C 0.99909 0.74198 0.50709 0.0
C4424 C 0.06337 0.78036 0.51736 0.0
C4425 C 0.07526 0.76778 0.52995 0.0
C4426 C 0.04123 0.78149 0.51734 0.0
C4427 C 0.02819 0.76999 0.5303 0.0
C4428 C 0.04012 0.75729 0.54303 0.0
C4429 C 0.06219 0.75629 0.54256 0.0
C4430 C 0.03158 0.79527 0.50273 0.0
C4431 C 0.02937 0.74443 0.55783 0.0
H4432 H 0.9624 0.79832 0.5496 0.0
H4433 H 0.95936 0.74817 0.5114 0.0
H4434 H 1.01372 0.79261 0.56336 0.0
H4435 H 1.01054 0.81102 0.54449 0.0
H4436 H 0.9924 0.80875 0.56399 0.0
H4437 H 0.98806 0.73446 0.49736 0.0
H4438 H 1.01105 0.74848 0.49776 0.0
H4439 H 1.00599 0.73065 0.5168 0.0
H4440 H 0.07146 0.78952 0.50688 0.0
H4441 H 0.06936 0.74614 0.55266 0.0
H4442 H 0.02332 0.80694 0.5108 0.0
H4443 H 0.02062 0.78689 0.49364 0.0
H4444 H 0.04254 0.80254 0.49276 0.0
H4445 H 0.02056 0.75394 0.56792 0.0
H4446 H 0.03968 0.73526 0.56681 0.0
H4447 H 0.01878 0.73442 0.55007 0.0
C4448 C 0.03174 0.21632 0.26766 0.0
C4449 C 1.01583 0.20406 0.27524 0.0
C4450 C 0.03249 0.23836 0.2675 0.0
C4451 C 0.0174 0.25113 0.27611 0.0
C4452 C 1.00144 0.23883 0.28432 0.0
C4453 C 1.00089 0.21674 0.28371 0.0
C4454 C 0.05032 0.24773 0.25773 0.0
C4455 C 0.98448 0.2487 0.29484 0.0
C4456 C 0.03514 0.30977 0.28662 0.0
C4457 C 0.02105 0.32312 0.27769 0.0
C4458 C 0.03377 0.28776 0.28697 0.0
C4459 C 0.01855 0.27617 0.27676 0.0
C4460 C 1.00473 0.28956 0.26688 0.0
C4461 C 1.00576 0.31165 0.26793 0.0
C4462 C 0.04923 0.27708 0.29898 0.0
C4463 C 0.98855 0.28065 0.25426 0.0
H4464 H 0.04431 0.20847 0.26156 0.0
H4465 H 0.98843 0.20937 0.29064 0.0
H4466 H 0.04791 0.26351 0.25367 0.0
H4467 H 0.06318 0.24681 0.26796 0.0
H4468 H 0.05432 0.23938 0.24414 0.0
H4469 H 0.98073 0.24043 0.30861 0.0
H4470 H 0.98772 0.26439 0.29875 0.0
H4471 H 0.97114 0.24815 0.28517 0.0
H4472 H 0.04773 0.3166 0.29395 0.0
H4473 H 0.99449 0.32006 0.2602 0.0
H4474 H 0.06296 0.27572 0.29004 0.0
H4475 H 0.04422 0.26203 0.30361 0.0
H4476 H 0.05319 0.28573 0.31242 0.0
H4477 H 0.99309 0.26623 0.24775 0.0
H4478 H 0.98433 0.29088 0.24207 0.0
H4479 H 0.97518 0.27809 0.26352 0.0
C4480 C 0.53777 0.81123 0.78017 0.0
C4481 C 0.52127 0.82465 0.77791 0.0
C4482 C 0.53671 0.78915 0.78063 0.0
C4483 C 0.5186 0.77754 0.77792 0.0
C4484 C 0.50181 0.79093 0.7755 0.0
C4485 C 0.50321 0.81309 0.77591 0.0
C4486 C 0.55569 0.77811 0.78448 0.0
C4487 C 0.48165 0.78173 0.77228 0.0
C4488 C 0.52065 0.71703 0.76246 0.0
C4489 C 0.51511 0.70526 0.77951 0.0
C4490 C 0.52133 0.73926 0.76157 0.0
C4491 C 0.51721 0.75247 0.77822 0.0
C4492 C 0.51224 0.74066 0.79552 0.0
C4493 C 0.51151 0.71863 0.79587 0.0
C4494 C 0.52676 0.74881 0.74218 0.0
C4495 C 0.50839 0.75145 0.81463 0.0
H4496 H 0.55214 0.81815 0.78234 0.0
H4497 H 0.48965 0.82147 0.77421 0.0
H4498 H 0.55316 0.76595 0.79534 0.0
H4499 H 0.56089 0.77127 0.7705 0.0
H4500 H 0.56762 0.78807 0.79016 0.0
H4501 H 0.47069 0.79275 0.7669 0.0
H4502 H 0.48255 0.76936 0.76145 0.0
H4503 H 0.47615 0.77541 0.78644 0.0
H4504 H 0.52543 0.70886 0.74959 0.0
H4505 H 0.50848 0.71163 0.80993 0.0
H4506 H 0.53953 0.7591 0.74424 0.0
H4507 H 0.51406 0.7578 0.73683 0.0
H4508 H 0.53062 0.7377 0.7307 0.0
H4509 H 0.52228 0.75891 0.8196 0.0
H4510 H 0.50317 0.74129 0.82655 0.0
H4511 H 0.49713 0.76319 0.81238 0.0
C4512 C 1.00347 0.47142 0.78683 0.0
C4513 C 1.00703 0.45823 0.77041 0.0
C4514 C 1.00256 0.49347 0.78584 0.0
C4515 C 1.00455 0.50505 0.76773 0.0
C4516 C 1.00784 0.49191 0.75106 0.0
C4517 C 1.00868 0.46992 0.75252 0.0
C4518 C 0.99849 0.5045 0.80473 0.0
C4519 C 1.01009 0.50124 0.73092 0.0
C4520 C 0.98233 0.5619 0.75987 0.0
C4521 C 0.99805 0.57643 0.76238 0.0
C4522 C 0.98412 0.54006 0.76161 0.0
C4523 C 1.00246 0.52985 0.76604 0.0
C4524 C 0.01849 0.54426 0.76886 0.0
C4525 C 1.01613 0.56625 0.76748 0.0
C4526 C 0.96559 0.52767 0.75902 0.0
C4527 C 0.03885 0.53638 0.77329 0.0
H4528 H 1.00058 0.46442 0.80095 0.0
H4529 H 1.01017 0.46159 0.7389 0.0
H4530 H 1.00902 0.51716 0.8064 0.0
H4531 H 0.98327 0.51071 0.80414 0.0
H4532 H 0.99966 0.49473 0.81795 0.0
H4533 H 1.01389 0.49018 0.71937 0.0
H4534 H 0.99603 0.50862 0.72666 0.0
H4535 H 0.02184 0.5129 0.73135 0.0
H4536 H 0.96776 0.5678 0.75666 0.0
H4537 H 0.02874 0.57549 0.77118 0.0
H4538 H 0.96306 0.51847 0.77246 0.0
H4539 H 0.96745 0.51733 0.7464 0.0
H4540 H 0.95223 0.53689 0.75632 0.0
H4541 H 0.03808 0.5238 0.78392 0.0
H4542 H 0.04884 0.54805 0.77941 0.0
H4543 H 0.04545 0.53069 0.75937 0.0
C4544 C 0.2213 0.24834 0.53002 0.0
C4545 C 0.20934 0.25029 0.51233 0.0
C4546 C 0.24337 0.24885 0.53117 0.0
C4547 C 0.2565 0.25098 0.51424 0.0
C4548 C 0.24465 0.25271 0.49623 0.0
C4549 C 0.2225 0.25193 0.49551 0.0
C4550 C 0.25287 0.24655 0.5512 0.0
C4551 C 0.2556 0.25502 0.47698 0.0
C4552 C 0.31704 0.26654 0.51917 0.0
C4553 C 0.3288 0.24869 0.51782 0.0
C4554 C 0.29485 0.26758 0.51819 0.0
C4555 C 0.28157 0.2505 0.51533 0.0
C4556 C 0.29333 0.23263 0.51351 0.0
C4557 C 0.31533 0.23209 0.51457 0.0
C4558 C 0.28567 0.28776 0.52046 0.0
C4559 C 0.28241 0.21329 0.51034 0.0
H4560 H 0.21317 0.24585 0.54363 0.0
H4561 H 0.21547 0.25188 0.48113 0.0
H4562 H 0.26205 0.23291 0.55141 0.0
H4563 H 0.26296 0.25936 0.55408 0.0
H4564 H 0.24174 0.24558 0.56329 0.0
H4565 H 0.24546 0.25841 0.46446 0.0
H4566 H 0.26686 0.26709 0.47823 0.0
H4567 H 0.26361 0.24107 0.47362 0.0
H4568 H 0.32509 0.28029 0.52041 0.0
H4569 H 0.32222 0.21778 0.51241 0.0
H4570 H 0.28382 0.29092 0.53648 0.0
H4571 H 0.27087 0.28861 0.51326 0.0
H4572 H 0.29543 0.29949 0.51411 0.0
H4573 H 0.2729 0.21006 0.52337 0.0
H4574 H 0.29264 0.20061 0.50808 0.0
H4575 H 0.27248 0.21446 0.49727 0.0
C4576 C 0.54354 0.46827 0.27516 0.0
C4577 C 0.53137 0.45641 0.26205 0.0
C4578 C 0.54381 0.49038 0.27617 0.0
C4579 C 0.53183 0.50333 0.26371 0.0
C4580 C 0.51993 0.49145 0.25016 0.0
C4581 C 0.51982 0.4694 0.24962 0.0
C4582 C 0.55753 0.50001 0.29095 0.0
C4583 C 0.50758 0.50223 0.23504 0.0
C4584 C 0.5173 0.56316 0.27241 0.0
C4585 C 0.53338 0.57541 0.26519 0.0
C4586 C 0.5169 0.54097 0.27276 0.0
C4587 C 0.53221 0.52831 0.26424 0.0
C4588 C 0.54785 0.5406 0.25584 0.0
C4589 C 0.54842 0.56257 0.25695 0.0
C4590 C 0.49993 0.53113 0.28352 0.0
C4591 C 0.56462 0.53068 0.24501 0.0
H4592 H 0.55329 0.46017 0.285 0.0
H4593 H 0.51061 0.4622 0.23866 0.0
H4594 H 0.57048 0.5065 0.28305 0.0
H4595 H 0.5499 0.5123 0.29877 0.0
H4596 H 0.56312 0.48921 0.30205 0.0
H4597 H 0.4981 0.49195 0.22624 0.0
H4598 H 0.49794 0.51333 0.24232 0.0
H4599 H 0.51756 0.51047 0.22481 0.0
H4600 H 0.50449 0.5708 0.27777 0.0
H4601 H 0.56127 0.56994 0.25059 0.0
H4602 H 0.50427 0.52908 0.29925 0.0
H4603 H 0.49627 0.51626 0.27742 0.0
H4604 H 0.48641 0.54045 0.28312 0.0
H4605 H 0.57724 0.52858 0.25536 0.0
H4606 H 0.57 0.54016 0.23262 0.0
H4607 H 0.56021 0.51597 0.23895 0.0
C4608 C 0.31367 0.76454 0.02047 0.0
C4609 C 0.32475 0.7817 1.01373 0.0
C4610 C 0.29157 0.76266 0.021 0.0
C4611 C 0.2778 0.77837 1.01536 0.0
C4612 C 0.28891 0.79585 1.00914 0.0
C4613 C 0.31089 0.79717 1.00852 0.0
C4614 C 0.28282 0.74321 0.0278 0.0
C4615 C 0.27738 0.81416 1.00376 0.0
C4616 C 0.21753 0.77289 1.00073 0.0
C4617 C 0.2058 0.77511 0.01848 0.0
C4618 C 0.23966 0.77319 0.99968 0.0
C4619 C 0.25281 0.77697 1.01646 0.0
C4620 C 0.24102 0.77969 0.03429 0.0
C4621 C 0.21902 0.77815 0.03509 0.0
C4622 C 0.24915 0.76889 0.98 0.0
C4623 C 0.2517 0.78458 0.05328 0.0
H4624 H 0.32231 0.75235 0.0262 0.0
H4625 H 0.31744 0.81122 1.00408 0.0
H4626 H 0.27171 0.74572 0.03961 0.0
H4627 H 0.27496 0.73605 1.0152 0.0
H4628 H 0.29429 0.73288 0.03347 0.0
H4629 H 0.28715 0.82664 0.99898 0.0
H4630 H 0.26676 0.81077 0.99166 0.0
H4631 H 0.26854 0.81902 1.01673 0.0
H4632 H 0.20932 0.7703 0.98717 0.0
H4633 H 0.21202 0.77987 0.04938 0.0
H4634 H 0.26137 0.75803 0.98185 0.0
H4635 H 0.25573 0.78274 0.97388 0.0
H4636 H 0.23828 0.76291 0.96911 0.0
H4637 H 0.25707 0.77064 0.06017 0.0
H4638 H 0.24173 0.79201 0.06403 0.0
H4639 H 0.26475 0.79437 0.05051 0.0
C4640 C 0.75207 0.99395 0.4681 0.0
C4641 C 0.76924 0.99963 0.4565 0.0
C4642 C 0.75088 0.99362 0.4902 0.0
C4643 C 0.76722 0.99875 0.50357 0.0
C4644 C 0.78469 1.00397 0.49189 0.0
C4645 C 0.78532 1.00438 0.46989 0.0
C4646 C 0.73145 0.98737 0.4993 0.0
C4647 C 0.80398 1.0082 0.5024 0.0
C4648 C 0.76648 1.01402 0.56399 0.0
C4649 C 0.76469 0.99616 0.57577 0.0
C4650 C 0.76657 1.01513 0.54187 0.0
C4651 C 0.7663 0.99794 0.52861 0.0
C4652 C 0.76564 0.97986 0.54044 0.0
C4653 C 0.76469 0.97935 0.56239 0.0
C4654 C 0.76624 0.03549 0.53263 0.0
C4655 C 0.76639 0.96005 0.53013 0.0
H4656 H 0.73898 0.98961 0.45981 0.0
H4657 H 0.79934 1.00802 0.46304 0.0
H4658 H 0.73241 0.97158 0.50393 0.0
H4659 H 0.72815 0.99637 0.51266 0.0
H4660 H 0.71895 0.98874 0.48866 0.0
H4661 H 0.81222 0.0204 0.49487 0.0
H4662 H 0.80199 1.01214 0.51819 0.0
H4663 H 0.81336 0.99471 0.5017 0.0
H4664 H 0.76836 0.02766 0.57206 0.0
H4665 H 0.76442 0.96483 0.56927 0.0
H4666 H 0.7508 0.03878 0.52795 0.0
H4667 H 0.77568 0.03629 0.51923 0.0
H4668 H 0.77117 0.04718 0.54318 0.0
H4669 H 0.75132 0.95327 0.53021 0.0
H4670 H 0.77633 0.94977 0.53828 0.0
H4671 H 0.77164 0.96122 0.51461 0.0
C4672 C 0.79174 0.99677 0.31252 0.0
C4673 C 0.78168 1.00954 0.32634 0.0
C4674 C 0.79057 0.99762 0.29065 0.0
C4675 C 0.77873 1.01177 0.27966 0.0
C4676 C 0.76819 0.02469 0.29339 0.0
C4677 C 0.76998 0.02372 0.31539 0.0
C4678 C 0.80272 0.98301 0.27906 0.0
C4679 C 0.75462 0.04005 0.2847 0.0
C4680 C 0.78977 0.02665 0.22079 0.0
C4681 C 0.77709 1.01496 0.20803 0.0
C4682 C 0.79043 0.02579 0.24274 0.0
C4683 C 0.77782 1.01306 0.25481 0.0
C4684 C 0.76473 1.00133 0.24213 0.0
C4685 C 0.76464 1.00223 0.22007 0.0
C4686 C 0.80527 0.0389 0.25321 0.0
C4687 C 0.75021 0.98748 0.25208 0.0
H4688 H 0.80081 0.98536 0.31895 0.0
H4689 H 0.76211 0.03461 0.3241 0.0
H4690 H 0.79272 0.97319 0.27034 0.0
H4691 H 0.8124 0.99107 0.2684 0.0
H4692 H 0.81216 0.97362 0.28874 0.0
H4693 H 0.74687 0.04877 0.29627 0.0
H4694 H 0.76326 0.05039 0.27516 0.0
H4695 H 0.74336 0.03266 0.27515 0.0
H4696 H 0.79993 0.0367 0.21348 0.0
H4697 H 0.75422 0.99281 0.21217 0.0
H4698 H 0.81479 0.02976 0.26302 0.0
H4699 H 0.79734 0.04966 0.26275 0.0
H4700 H 0.81488 0.0473 0.24273 0.0
H4701 H 0.75838 0.9751 0.25917 0.0
H4702 H 0.73925 0.98114 0.24149 0.0
H4703 H 0.74212 0.99543 0.26396 0.0
C4704 C 0.78072 0.0377 0.96965 0.0
C4705 C 0.76379 0.03144 0.95797 0.0
C4706 C 0.78179 0.03786 0.99175 0.0
C4707 C 0.76566 0.0318 1.00488 0.0
C4708 C 0.74853 0.02588 0.99319 0.0
C4709 C 0.74789 0.0259 0.97123 0.0
C4710 C 0.80082 0.04477 1.00127 0.0
C4711 C 0.73012 0.01957 1.00417 0.0
C4712 C 0.77161 1.01561 0.06461 0.0
C4713 C 0.76763 0.03264 0.07691 0.0
C4714 C 0.77131 1.01511 0.0425 0.0
C4715 C 0.76635 0.03194 0.02982 0.0
C4716 C 0.76132 0.04886 0.04204 0.0
C4717 C 0.76203 0.04894 0.064 0.0
C4718 C 0.77684 0.99587 0.03269 0.0
C4719 C 0.75472 0.06754 0.03173 0.0
H4720 H 0.79366 0.0426 0.96144 0.0
H4721 H 0.73409 0.02187 0.96426 0.0
H4722 H 0.79796 0.05815 1.01039 0.0
H4723 H 0.80643 0.03305 1.01138 0.0
H4724 H 0.81247 0.04842 0.9902 0.0
H4725 H 0.71806 1.01465 0.99406 0.0
H4726 H 0.73365 1.00724 1.0145 0.0
H4727 H 0.72465 0.03216 1.01321 0.0
H4728 H 0.7748 1.0021 0.07212 0.0
H4729 H 0.75816 0.06268 0.07134 0.0
H4730 H 0.79312 0.99586 0.03013 0.0
H4731 H 0.76935 0.99398 0.01818 0.0
H4732 H 0.77305 0.98294 0.04222 0.0
H4733 H 0.76628 0.07256 0.02112 0.0
H4734 H 0.75166 0.07981 0.04227 0.0
H4735 H 0.74104 0.06442 0.02305 0.0
C4736 C 0.74614 0.9979 0.72061 0.0
C4737 C 0.75071 1.01404 0.70718 0.0
C4738 C 0.74562 0.99897 0.74261 0.0
C4739 C 0.75057 0.0166 0.75412 0.0
C4740 C 0.75544 0.03296 0.74072 0.0
C4741 C 0.75513 0.03165 0.71864 0.0
C4742 C 0.73915 0.98064 0.75372 0.0
C4743 C 0.76158 0.05241 0.7499 0.0
C4744 C 0.73292 0.02634 0.81244 0.0
C4745 C 0.74845 0.02072 0.82613 0.0
C4746 C 0.73342 0.02525 0.79052 0.0
C4747 C 0.7501 0.01803 0.7791 0.0
C4748 C 0.76589 1.01186 0.79263 0.0
C4749 C 0.76475 1.01278 0.81476 0.0
C4750 C 0.71509 0.03142 0.77938 0.0
C4751 C 0.78465 1.00406 0.78357 0.0
H4752 H 0.74236 0.98384 0.71375 0.0
H4753 H 0.75902 0.04483 0.71025 0.0
H4754 H 0.75137 0.97547 0.76342 0.0
H4755 H 0.72637 0.98423 0.76342 0.0
H4756 H 0.73479 0.96831 0.74365 0.0
H4757 H 0.76639 0.06349 0.73865 0.0
H4758 H 0.74902 0.05866 0.75841 0.0
H4759 H 0.77394 0.04994 0.7605 0.0
H4760 H 0.7194 0.03152 0.81905 0.0
H4761 H 0.77679 1.00646 0.82319 0.0
H4762 H 0.70929 0.01863 0.7707 0.0
H4763 H 0.71881 0.04341 0.7687 0.0
H4764 H 0.70317 0.03678 0.78936 0.0
H4765 H 0.78121 0.99127 0.77377 0.0
H4766 H 0.79557 0.99928 0.79491 0.0
H4767 H 0.79152 1.01582 0.77423 0.0
C4768 C 0.46922 0.78402 1.00983 0.0
C4769 C 0.4553 0.76915 1.00295 0.0
C4770 C 0.4912 0.78271 1.0094 0.0
C4771 C 0.50214 0.76589 1.00172 0.0
C4772 C 0.48829 0.75083 0.9944 0.0
C4773 C 0.46623 0.75259 0.99497 0.0
C4774 C 0.50297 0.80009 0.01721 0.0
C4775 C 0.49695 0.73228 0.98562 0.0
C4776 C 0.56216 0.7706 0.9864 0.0
C4777 C 0.57392 0.76159 1.00185 0.0
C4778 C 0.54007 0.77173 0.98596 0.0
C4779 C 0.52706 0.76421 1.00152 0.0
C4780 C 0.53884 0.75522 0.01713 0.0
C4781 C 0.56084 0.75387 0.01694 0.0
C4782 C 0.53048 0.78107 0.96814 0.0
C4783 C 0.52799 0.74689 0.03477 0.0
H4784 H 0.46282 0.7975 1.01541 0.0
H4785 H 0.45742 0.74047 0.98901 0.0
H4786 H 0.51446 0.7949 0.02779 0.0
H4787 H 0.51078 0.80754 1.00476 0.0
H4788 H 0.49345 0.81116 0.02472 0.0
H4789 H 0.48537 0.7223 0.97931 0.0
H4790 H 0.50772 0.73627 0.97381 0.0
H4791 H 0.50522 0.72406 0.99721 0.0
H4792 H 0.57032 0.77668 0.97396 0.0
H4793 H 0.56793 0.74668 0.02931 0.0
H4794 H 0.52284 0.79491 0.97263 0.0
H4795 H 0.51902 0.77088 0.96196 0.0
H4796 H 0.54142 0.78471 0.95636 0.0
H4797 H 0.51931 0.75886 0.04195 0.0
H4798 H 0.53822 0.74033 0.04587 0.0
H4799 H 0.51727 0.73529 0.02989 0.0
C4800 C 0.96787 0.78283 0.03359 0.0
C4801 C 0.95562 0.76528 0.03136 0.0
C4802 C 0.99 0.78328 0.03346 0.0
C4803 C 1.00249 0.76577 0.03163 0.0
C4804 C 0.99021 0.74805 0.02992 0.0
C4805 C 0.96822 0.74812 0.02954 0.0
C4806 C 1.00022 0.80314 0.03524 0.0
C4807 C 1.00048 0.72827 0.02907 0.0
C4808 C 0.06268 0.76428 1.01632 0.0
C4809 C 0.07437 0.76619 0.03412 0.0
C4810 C 0.04056 0.76469 1.01517 0.0
C4811 C 0.0274 0.76581 0.03227 0.0
C4812 C 0.03904 0.76606 0.05029 0.0
C4813 C 0.06099 0.76623 0.05086 0.0
C4814 C 0.03122 0.76427 0.99493 0.0
C4815 C 0.02819 0.76576 0.06977 0.0
H4816 H 0.9601 0.79676 0.03524 0.0
H4817 H 0.9607 0.73398 0.02837 0.0
H4818 H 1.00816 0.80399 0.04961 0.0
H4819 H 1.01149 0.80484 0.02335 0.0
H4820 H 0.98962 0.81568 0.03435 0.0
H4821 H 0.98983 0.71561 0.02899 0.0
H4822 H 1.0098 0.72744 1.01558 0.0
H4823 H 1.01051 0.72668 0.04203 0.0
H4824 H 0.07071 0.76165 1.00291 0.0
H4825 H 0.06787 0.76585 0.06532 0.0
H4826 H 0.02642 0.77955 0.99105 0.0
H4827 H 0.01781 0.75462 0.99467 0.0
H4828 H 0.04174 0.75907 0.98344 0.0
H4829 H 0.02216 0.78075 0.07276 0.0
H4830 H 0.03808 0.76163 0.08227 0.0
H4831 H 1.01551 0.75513 0.06929 0.0
C4832 C 1.00444 0.22067 0.78759 0.0
C4833 C 0.01984 0.20918 0.77831 0.0
C4834 C 1.00359 0.24278 0.78811 0.0
C4835 C 0.01856 0.25593 0.77951 0.0
C4836 C 0.03425 0.24439 0.77061 0.0
C4837 C 0.0346 0.22243 0.77016 0.0
C4838 C 0.98615 0.25225 0.79817 0.0
C4839 C 0.05136 0.2555 0.76138 0.0
C4840 C 1.00873 0.31482 0.76415 0.0
C4841 C 0.01752 0.32763 0.77885 0.0
C4842 C 1.00895 0.2928 0.76418 0.0
C4843 C 0.01798 0.28081 0.77957 0.0
C4844 C 0.02682 0.29353 0.79463 0.0
C4845 C 0.0266 0.31563 0.79406 0.0
C4846 C 0.99915 0.28213 0.74718 0.0
C4847 C 0.03655 0.28361 0.81207 0.0
H4848 H 0.99256 0.21232 0.79457 0.0
H4849 H 0.04724 0.21546 0.76348 0.0
H4850 H 0.99146 0.26239 0.81003 0.0
H4851 H 0.97784 0.2614 0.78732 0.0
H4852 H 0.97586 0.24108 0.80472 0.0
H4853 H 0.06264 0.2454 0.75505 0.0
H4854 H 0.0458 0.26541 0.74949 0.0
H4855 H 0.05864 0.26507 0.77267 0.0
H4856 H 1.00164 0.32213 0.75191 0.0
H4857 H 0.03348 0.32363 0.8062 0.0
H4858 H 0.98686 0.27263 0.75282 0.0
H4859 H 1.01001 0.27219 0.7399 0.0
H4860 H 0.99311 0.29255 0.73595 0.0
H4861 H 0.02534 0.27464 0.82024 0.0
H4862 H 0.04338 0.29449 0.82242 0.0
H4863 H 0.04816 0.27321 0.80688 0.0
C4864 C 0.47368 0.24718 0.53459 0.0
C4865 C 0.46104 0.26354 0.52918 0.0
C4866 C 0.49563 0.24778 0.53594 0.0
C4867 C 0.50777 0.26495 0.53074 0.0
C4868 C 0.49518 0.28143 0.52482 0.0
C4869 C 0.4731 0.28072 0.52457 0.0
C4870 C 0.50595 0.22955 0.5436 0.0
C4871 C 0.50524 0.3003 0.51811 0.0
C4872 C 0.56575 0.27376 0.54971 0.0
C4873 C 0.57946 0.26694 0.53483 0.0
C4874 C 0.54382 0.27342 0.54857 0.0
C4875 C 0.53264 0.26575 0.53189 0.0
C4876 C 0.54619 0.25846 0.51676 0.0
C4877 C 0.56827 0.25878 0.51849 0.0
C4878 C 0.5324 0.28084 0.5662 0.0
C4879 C 0.53719 0.24992 0.49822 0.0
H4880 H 0.4662 0.2334 0.53838 0.0
H4881 H 0.4652 0.29394 0.52006 0.0
H4882 H 0.51518 0.22302 0.53172 0.0
H4883 H 0.51606 0.23365 0.55596 0.0
H4884 H 0.4953 0.21804 0.54892 0.0
H4885 H 0.49448 0.31153 0.51275 0.0
H4886 H 0.51394 0.30681 0.53049 0.0
H4887 H 0.51587 0.29694 0.50603 0.0
H4888 H 0.57233 0.27927 0.56318 0.0
H4889 H 0.57674 0.25163 0.50702 0.0
H4890 H 0.52309 0.2686 0.57228 0.0
H4891 H 0.52222 0.2929 0.56163 0.0
H4892 H 0.54229 0.28656 0.57811 0.0
H4893 H 0.52702 0.23745 0.50199 0.0
H4894 H 0.5486 0.24443 0.48777 0.0
H4895 H 0.52819 0.26147 0.49072 0.0
C4896 C 0.97317 0.28702 0.50614 0.0
C4897 C 0.95925 0.27058 0.50594 0.0
C4898 C 0.99516 0.28555 0.50528 0.0
C4899 C 1.00604 0.26696 0.50459 0.0
C4900 C 0.99212 0.25027 0.50439 0.0
C4901 C 0.97009 0.25218 0.50482 0.0
C4902 C 1.007 0.30458 0.50491 0.0
C4903 C 1.00066 0.2297 0.5037 0.0
C4904 C 0.06532 0.2639 0.48645 0.0
C4905 C 0.07782 0.26165 0.5037 0.0
C4906 C 0.04325 0.26516 0.48645 0.0
C4907 C 0.03098 0.26506 0.50419 0.0
C4908 C 0.04352 0.26304 0.52163 0.0
C4909 C 0.0655 0.26101 0.52117 0.0
C4910 C 0.03285 0.26636 0.46676 0.0
C4911 C 0.03349 0.26321 0.5415 0.0
H4912 H 0.96674 0.30173 0.50669 0.0
H4913 H 0.96122 0.23871 0.50447 0.0
H4914 H 0.01778 0.30475 0.51735 0.0
H4915 H 1.01567 0.30545 0.49097 0.0
H4916 H 0.99744 0.31794 0.50594 0.0
H4917 H 0.98897 0.21799 0.50302 0.0
H4918 H 1.01049 0.22825 0.4906 0.0
H4919 H 1.00995 0.22716 0.51704 0.0
H4920 H 0.07289 0.26415 0.47231 0.0
H4921 H 0.07323 0.25923 0.53512 0.0
H4922 H 0.02525 0.28088 0.46543 0.0
H4923 H 0.02127 0.25457 0.46576 0.0
H4924 H 0.04326 0.2647 0.45413 0.0
H4925 H 0.02499 0.27719 0.54321 0.0
H4926 H 0.04423 0.26198 0.55392 0.0
H4927 H 0.02268 0.25071 0.54245 0.0
C4928 C 0.02532 0.72041 0.74341 0.0
C4929 C 1.0106 0.70896 0.75415 0.0
C4930 C 0.02692 0.74254 0.7429 0.0
C4931 C 1.01381 0.75599 0.75351 0.0
C4932 C 0.99891 0.74453 0.7642 0.0
C4933 C 0.99747 0.72248 0.76416 0.0
C4934 C 0.04306 0.75172 0.73045 0.0
C4935 C 0.98377 0.7558 0.77599 0.0
C4936 C 0.02798 0.81553 0.76617 0.0
C4937 C 0.01686 0.82827 0.75308 0.0
C4938 C 0.02731 0.7933 0.76644 0.0
C4939 C 1.01524 0.78103 0.75322 0.0
C4940 C 1.00422 0.79372 0.73985 0.0
C4941 C 1.00507 0.81577 0.74006 0.0
C4942 C 0.04012 0.78274 0.78127 0.0
C4943 C 0.99117 0.78381 0.72462 0.0
H4944 H 0.03592 0.71195 0.73489 0.0
H4945 H 0.9854 0.7157 0.77222 0.0
H4946 H 0.0366 0.76271 0.72004 0.0
H4947 H 0.05364 0.75987 0.74015 0.0
H4948 H 0.05136 0.74044 0.72184 0.0
H4949 H 0.97539 0.74597 0.78628 0.0
H4950 H 0.99105 0.76783 0.78466 0.0
H4951 H 0.97305 0.76285 0.76572 0.0
H4952 H 0.03724 0.82282 0.7768 0.0
H4953 H 0.996 0.82349 0.72932 0.0
H4954 H 0.05358 0.77715 0.77369 0.0
H4955 H 0.03216 0.76976 0.78772 0.0
H4956 H 0.04488 0.79273 0.79345 0.0
H4957 H 1.00013 0.77348 0.71552 0.0
H4958 H 0.98385 0.79469 0.71466 0.0
H4959 H 0.97953 0.77481 0.73212 0.0
C4960 C 0.53591 0.31172 0.25553 0.0
C4961 C 0.51877 0.32413 0.25247 0.0
C4962 C 0.53604 0.28948 0.2557 0.0
C4963 C 0.51877 0.27682 0.25178 0.0
C4964 C 0.50168 0.28924 0.24777 0.0
C4965 C 0.50191 0.31132 0.24831 0.0
C4966 C 0.55535 0.27932 0.26008 0.0
C4967 C 0.48244 0.27914 0.2423 0.0
C4968 C 0.52393 0.21679 0.23551 0.0
C4969 C 0.51688 0.20442 0.25161 0.0
C4970 C 0.5245 0.239 0.23524 0.0
C4971 C 0.51847 0.25168 0.25168 0.0
C4972 C 0.51154 0.23928 0.26796 0.0
C4973 C 0.51068 0.21717 0.2676 0.0
C4974 C 0.5315 0.249 0.21653 0.0
C4975 C 0.50477 0.24957 0.2865 0.0
H4976 H 0.54989 0.3193 0.25694 0.0
H4977 H 0.48814 0.31883 0.24496 0.0
H4978 H 0.55342 0.26912 0.27288 0.0
H4979 H 0.55981 0.27018 0.24721 0.0
H4980 H 0.5675 0.29004 0.26341 0.0
H4981 H 0.47219 0.28941 0.23455 0.0
H4982 H 0.4851 0.26607 0.23266 0.0
H4983 H 0.47499 0.27379 0.25596 0.0
H4984 H 0.52876 0.20903 0.22235 0.0
H4985 H 0.50513 0.2097 0.28058 0.0
H4986 H 0.54711 0.25397 0.21845 0.0
H4987 H 0.52243 0.26233 0.21321 0.0
H4988 H 0.53085 0.23878 0.20365 0.0
H4989 H 0.51587 0.26095 0.29108 0.0
H4990 H 0.50236 0.239 0.29892 0.0
H4991 H 0.49061 0.25736 0.28352 0.0
C4992 C 0.54786 0.06389 0.76886 0.0
C4993 C 0.53096 0.07664 0.76515 0.0
C4994 C 0.54802 0.04182 0.76977 0.0
C4995 C 0.53071 0.02913 0.76677 0.0
C4996 C 0.51346 0.04168 0.7628 0.0
C4997 C 0.51368 0.06399 0.76253 0.0
C4998 C 0.56762 0.03211 0.77414 0.0
C4999 C 0.49395 0.03144 0.75886 0.0
C5000 C 0.53853 0.96909 0.75255 0.0
C5001 C 0.53257 0.95652 0.76895 0.0
C5002 C 0.53762 0.99117 0.75154 0.0
C5003 C 0.53089 1.00391 0.76752 0.0
C5004 C 0.52532 0.99151 0.78446 0.0
C5005 C 0.52641 0.96927 0.78503 0.0
C5006 C 0.54471 1.00102 0.7328 0.0
C5007 C 0.51898 1.00203 0.80298 0.0
H5008 H 0.56186 0.07146 0.77148 0.0
H5009 H 0.49969 0.07141 0.76083 0.0
H5010 H 0.56568 0.01779 0.78211 0.0
H5011 H 0.57537 0.02915 0.75997 0.0
H5012 H 0.57736 0.042 0.78312 0.0
H5013 H 0.4839 0.04099 0.75004 0.0
H5014 H 0.49609 0.0172 0.75086 0.0
H5015 H 0.48659 0.02809 0.77318 0.0
H5016 H 0.54456 0.96141 0.73984 0.0
H5017 H 0.52321 0.96195 0.79891 0.0
H5018 H 0.55988 1.0071 0.73524 0.0
H5019 H 0.53492 1.0136 0.72871 0.0
H5020 H 0.54531 0.99041 0.72024 0.0
H5021 H 0.53154 1.01119 0.80862 0.0
H5022 H 0.51423 0.99154 0.81477 0.0
H5023 H 0.50658 1.01227 0.79963 0.0
C5024 C 0.21684 0.28914 0.03323 0.0
C5025 C 0.20419 0.28216 0.01734 0.0
C5026 C 0.23886 0.28867 0.03401 0.0
C5027 C 0.25152 0.28135 0.01821 0.0
C5028 C 0.23895 0.27473 1.00169 0.0
C5029 C 0.21674 0.27527 1.00147 0.0
C5030 C 0.24845 0.29678 0.05248 0.0
C5031 C 0.24877 0.26738 0.98313 0.0
C5032 C 0.31067 0.30049 0.01927 0.0
C5033 C 0.324 0.28382 0.02147 0.0
C5034 C 0.28868 0.2999 0.01795 0.0
C5035 C 0.27669 0.28188 0.01878 0.0
C5036 C 0.28989 0.26472 0.02034 0.0
C5037 C 0.31212 0.26584 0.0211 0.0
C5038 C 0.27837 0.31952 1.01528 0.0
C5039 C 0.28046 0.24445 0.02199 0.0
H5040 H 0.20925 0.29556 0.04581 0.0
H5041 H 0.20932 0.27108 0.98795 0.0
H5042 H 0.26355 0.29075 0.05492 0.0
H5043 H 0.24955 0.3132 0.05122 0.0
H5044 H 0.23921 0.2934 0.0657 0.0
H5045 H 0.2412 0.27351 0.96986 0.0
H5046 H 0.26477 0.27132 0.98243 0.0
H5047 H 0.2472 0.25095 0.98244 0.0
H5048 H 0.31766 0.31497 0.01805 0.0
H5049 H 0.3202 0.25211 0.021 0.0
H5050 H 0.27607 0.32636 0.03002 0.0
H5051 H 0.26373 0.31785 1.00789 0.0
H5052 H 0.28766 0.32997 1.00645 0.0
H5053 H 0.27484 0.24243 0.03731 0.0
H5054 H 0.2912 0.23242 0.01879 0.0
H5055 H 0.26763 0.24292 1.01184 0.0
C5056 C 0.98723 0.0617 0.25897 0.0
C5057 C 1.00292 0.07384 0.2674 0.0
C5058 C 0.98665 0.03952 0.25828 0.0
C5059 C 1.00221 0.02661 0.2659 0.0
C5060 C 0.01812 0.03873 0.27422 0.0
C5061 C 0.01816 0.06085 0.27494 0.0
C5062 C 0.96862 0.02969 0.24936 0.0
C5063 C 0.03577 0.02809 0.28269 0.0
C5064 C 0.99366 0.96697 0.28112 0.0
C5065 C 1.00074 0.95425 0.26542 0.0
C5066 C 0.99421 0.98906 0.28151 0.0
C5067 C 1.00176 1.0015 0.26558 0.0
C5068 C 1.00859 0.98892 0.2494 0.0
C5069 C 1.00774 0.96672 0.24938 0.0
C5070 C 0.98586 0.99933 0.2994 0.0
C5071 C 0.01653 0.99914 0.23124 0.0
H5072 H 0.97467 0.06967 0.25297 0.0
H5073 H 0.0308 0.06813 0.2815 0.0
H5074 H 0.97311 0.02001 0.23688 0.0
H5075 H 0.96138 0.02 0.26059 0.0
H5076 H 0.95762 0.04063 0.2439 0.0
H5077 H 0.04784 0.03851 0.28714 0.0
H5078 H 0.0311 0.01936 0.29585 0.0
H5079 H 0.04169 0.01744 0.27166 0.0
H5080 H 0.987 0.9594 0.29364 0.0
H5081 H 1.01179 0.95915 0.2359 0.0
H5082 H 0.97315 1.00874 0.29488 0.0
H5083 H 0.99727 1.00932 0.30597 0.0
H5084 H 0.98074 0.98865 0.3109 0.0
H5085 H 1.00443 1.00759 0.224 0.0
H5086 H 0.02266 0.98849 0.22036 0.0
H5087 H 0.0283 1.00998 0.23545 0.0
C5088 C 0.3111 0.7586 0.53021 0.0
C5089 C 0.32245 0.75763 0.51221 0.0
C5090 C 0.28911 0.75794 0.53147 0.0
C5091 C 0.27595 0.75535 0.51452 0.0
C5092 C 0.28746 0.75357 0.49643 0.0
C5093 C 0.30934 0.75513 0.49555 0.0
C5094 C 0.28007 0.76012 0.55171 0.0
C5095 C 0.27683 0.74948 0.47722 0.0
C5096 C 0.21838 0.7356 0.52379 0.0
C5097 C 0.20467 0.75095 0.51809 0.0
C5098 C 0.24025 0.73668 0.5226 0.0
C5099 C 0.25119 0.75395 0.51573 0.0
C5100 C 0.23756 0.76953 0.50965 0.0
C5101 C 0.21555 0.7677 0.51028 0.0
C5102 C 0.25173 0.71846 0.52843 0.0
C5103 C 0.24636 0.78885 0.50254 0.0
H5104 H 0.31947 0.7603 0.54381 0.0
H5105 H 0.31634 0.75372 0.4812 0.0
H5106 H 0.26488 0.76639 0.55103 0.0
H5107 H 0.27924 0.7453 0.55887 0.0
H5108 H 0.28945 0.76982 0.56125 0.0
H5109 H 0.28585 0.73967 0.46759 0.0
H5110 H 0.26208 0.74241 0.47953 0.0
H5111 H 0.27477 0.7637 0.46916 0.0
H5112 H 0.21183 0.72188 0.52912 0.0
H5113 H 0.20685 0.7796 0.50404 0.0
H5114 H 0.25823 0.72071 0.54335 0.0
H5115 H 0.26411 0.71582 0.51792 0.0
H5116 H 0.24214 0.70496 0.52893 0.0
H5117 H 0.25554 0.79549 0.51454 0.0
H5118 H 0.23483 0.79967 0.49805 0.0
H5119 H 0.25631 0.78619 0.48978 0.0
C5120 C 0.77919 0.5474 0.96775 0.0
C5121 C 0.76876 0.53491 0.95363 0.0
C5122 C 0.77808 0.54646 0.98977 0.0
C5123 C 0.76552 0.53281 1.00091 0.0
C5124 C 0.7547 0.52009 0.98694 0.0
C5125 C 0.75621 0.52136 0.96479 0.0
C5126 C 0.79062 0.56091 1.00138 0.0
C5127 C 0.74066 0.50491 0.99551 0.0
C5128 C 0.77436 0.52267 0.0621 0.0
C5129 C 0.7599 0.53392 0.07328 0.0
C5130 C 0.77584 0.52156 0.03995 0.0
C5131 C 0.76339 0.53258 0.02601 0.0
C5132 C 0.74888 0.54386 0.03718 0.0
C5133 C 0.7473 0.54407 0.05917 0.0
C5134 C 0.79142 0.50825 0.03134 0.0
C5135 C 0.73461 0.55648 0.02561 0.0
H5136 H 0.78864 0.55871 0.96148 0.0
H5137 H 0.74659 0.5118 0.95612 0.0
H5138 H 0.78089 0.57059 1.0104 0.0
H5139 H 0.80033 0.55268 1.01179 0.0
H5140 H 0.80006 0.57043 0.99171 0.0
H5141 H 0.73547 0.49407 0.98421 0.0
H5142 H 0.7479 0.49675 1.00782 0.0
H5143 H 0.72754 0.5126 1.00172 0.0
H5144 H 0.78511 0.51452 0.07079 0.0
H5145 H 0.73524 0.55234 0.06539 0.0
H5146 H 0.80334 0.51749 0.02461 0.0
H5147 H 0.78491 0.49893 0.01939 0.0
H5148 H 0.7981 0.49838 0.0427 0.0
H5149 H 0.74303 0.56747 1.01659 0.0
H5150 H 0.72412 0.56459 0.03531 0.0
H5151 H 0.72598 0.54702 1.01521 0.0
C5152 C 0.7607 0.53375 0.2189 0.0
C5153 C 0.75092 0.51974 0.20594 0.0
C5154 C 0.76108 0.53335 0.24087 0.0
C5155 C 0.75114 0.51847 0.25296 0.0
C5156 C 0.74068 0.50439 0.24014 0.0
C5157 C 0.74073 0.50511 0.21801 0.0
C5158 C 0.77294 0.54933 0.25116 0.0
C5159 C 0.72866 0.4883 0.25003 0.0
C5160 C 0.76698 0.50561 0.31132 0.0
C5161 C 0.75457 0.51649 0.32487 0.0
C5162 C 0.76613 0.50617 0.28935 0.0
C5163 C 0.75196 0.51764 0.27793 0.0
C5164 C 0.7391 0.5286 0.29138 0.0
C5165 C 0.74055 0.52801 0.31346 0.0
C5166 C 0.78097 0.49401 0.27809 0.0
C5167 C 0.7232 0.54128 0.28227 0.0
H5168 H 0.76831 0.54576 0.21165 0.0
H5169 H 0.73232 0.49388 0.21008 0.0
H5170 H 0.76638 0.55333 0.26566 0.0
H5171 H 0.78818 0.54376 0.25387 0.0
H5172 H 0.77405 0.56297 0.24197 0.0
H5173 H 0.72138 0.47822 0.23918 0.0
H5174 H 0.73831 0.4794 0.25992 0.0
H5175 H 0.71706 0.49515 0.25943 0.0
H5176 H 0.77796 0.49628 0.31804 0.0
H5177 H 0.73008 0.53672 0.3219 0.0
H5178 H 0.78795 0.50312 0.26623 0.0
H5179 H 0.77323 0.48133 0.27086 0.0
H5180 H 0.79282 0.48808 0.28782 0.0
H5181 H 0.73021 0.55369 0.27392 0.0
H5182 H 0.71305 0.54757 0.29355 0.0
H5183 H 0.71437 0.53238 0.27154 0.0
C5184 C 0.7546 0.50614 0.56031 0.0
C5185 C 0.77242 0.50343 0.57175 0.0
C5186 C 0.75358 0.50681 0.53836 0.0
C5187 C 0.77053 0.50381 0.52535 0.0
C5188 C 0.78838 0.50046 0.53689 0.0
C5189 C 0.78914 0.50089 0.55876 0.0
C5190 C 0.73372 0.51102 0.52909 0.0
C5191 C 0.80732 0.49594 0.52604 0.0
C5192 C 0.76306 0.48602 0.46732 0.0
C5193 C 0.76851 0.50202 0.45416 0.0
C5194 C 0.76339 0.48647 0.48913 0.0
C5195 C 0.76962 0.50351 0.50064 0.0
C5196 C 0.7754 0.51985 0.48762 0.0
C5197 C 0.77525 0.51881 0.46561 0.0
C5198 C 0.75736 0.46786 0.50004 0.0
C5199 C 0.78174 0.53908 0.49709 0.0
H5200 H 0.74103 0.50836 0.56858 0.0
H5201 H 0.80339 0.49868 0.56586 0.0
H5202 H 0.73536 0.51971 0.51519 0.0
H5203 H 0.72622 0.49675 0.52547 0.0
H5204 H 0.72397 0.51933 0.53939 0.0
H5205 H 0.81868 0.48938 0.53598 0.0
H5206 H 0.80444 0.48549 0.51362 0.0
H5207 H 0.8135 0.50987 0.51969 0.0
H5208 H 0.75868 0.47225 0.46034 0.0
H5209 H 0.7809 0.53142 0.45736 0.0
H5210 H 0.74386 0.47076 0.50893 0.0
H5211 H 0.7693 0.46345 0.51048 0.0
H5212 H 0.75418 0.45525 0.48988 0.0
H5213 H 0.76985 0.54433 0.50716 0.0
H5214 H 0.78496 0.55086 0.48599 0.0
H5215 H 0.79521 0.5367 0.50622 0.0
C5216 C 0.78631 0.50422 0.81059 0.0
C5217 C 0.78 0.52149 0.82155 0.0
C5218 C 0.7871 0.50249 0.78859 0.0
C5219 C 0.78169 0.51827 0.77479 0.0
C5220 C 0.77571 0.53578 0.78579 0.0
C5221 C 0.77507 0.53706 0.80773 0.0
C5222 C 0.79414 0.48311 0.78012 0.0
C5223 C 0.76998 0.55391 0.77411 0.0
C5224 C 0.80163 0.51825 0.71644 0.0
C5225 C 0.78524 0.51487 0.70293 0.0
C5226 C 0.80069 0.51948 0.73834 0.0
C5227 C 0.78271 0.51689 0.74987 0.0
C5228 C 0.7659 0.51359 0.73651 0.0
C5229 C 0.76726 0.51307 0.71444 0.0
C5230 C 0.81967 0.52408 0.74926 0.0
C5231 C 0.74566 0.5101 0.74528 0.0
H5232 H 0.79083 0.49152 0.81933 0.0
H5233 H 0.77091 0.55105 0.8142 0.0
H5234 H 0.78614 0.47942 0.7662 0.0
H5235 H 0.81019 0.48441 0.77666 0.0
H5236 H 0.79217 0.4707 0.79081 0.0
H5237 H 0.76756 0.56706 0.78371 0.0
H5238 H 0.78172 0.55754 0.76313 0.0
H5239 H 0.75611 0.55076 0.76576 0.0
H5240 H 0.81604 0.52043 0.70967 0.0
H5241 H 0.75364 0.51181 0.7063 0.0
H5242 H 0.82502 0.51041 0.75667 0.0
H5243 H 0.81709 0.53543 0.76089 0.0
H5244 H 0.83154 0.52956 0.73919 0.0
H5245 H 0.74173 0.49413 0.74365 0.0
H5246 H 0.73436 0.51876 0.73704 0.0
H5247 H 0.74486 0.514 0.7612 0.0
C5248 C 0.49782 0.3118 0.75072 0.0
C5249 C 0.51311 0.32459 0.75854 0.0
C5250 C 0.49879 0.28993 0.74937 0.0
C5251 C 0.51515 0.27816 0.75695 0.0
C5252 C 0.53047 0.29105 0.76536 0.0
C5253 C 0.52953 0.31302 0.76552 0.0
C5254 C 0.48168 0.27968 0.73916 0.0
C5255 C 0.5484 0.2819 0.775 0.0
C5256 C 0.50443 0.21815 0.76713 0.0
C5257 C 0.51774 0.20687 0.75498 0.0
C5258 C 0.50348 0.24014 0.7679 0.0
C5259 C 0.51609 0.2534 0.75631 0.0
C5260 C 0.52964 0.24204 0.74412 0.0
C5261 C 0.53039 0.22011 0.7439 0.0
C5262 C 0.48838 0.24909 0.78159 0.0
C5263 C 0.5432 0.25294 0.73002 0.0
H5264 H 0.4847 0.31904 0.74496 0.0
H5265 H 0.54188 0.32119 0.77193 0.0
H5266 H 0.48536 0.2644 0.73428 0.0
H5267 H 0.46888 0.27894 0.74946 0.0
H5268 H 0.47689 0.2884 0.72603 0.0
H5269 H 0.55135 0.2892 0.78946 0.0
H5270 H 0.54677 0.26567 0.77749 0.0
H5271 H 0.56162 0.28465 0.76555 0.0
H5272 H 0.49431 0.20968 0.77636 0.0
H5273 H 0.54169 0.21335 0.73495 0.0
H5274 H 0.47432 0.25125 0.77332 0.0
H5275 H 0.49338 0.26373 0.78738 0.0
H5276 H 0.48517 0.23907 0.79428 0.0
H5277 H 0.53472 0.25658 0.7164 0.0
H5278 H 0.55613 0.24374 0.7257 0.0
H5279 H 0.54876 0.2671 0.7363 0.0
C5280 C 0.51974 0.96594 0.26144 0.0
C5281 C 0.50284 0.95401 0.2674 0.0
C5282 C 0.52057 0.98817 0.26092 0.0
C5283 C 0.50396 1.00121 0.26554 0.0
C5284 C 0.4868 0.98925 0.27107 0.0
C5285 C 0.48651 0.96718 0.27175 0.0
C5286 C 0.53985 0.99791 0.25511 0.0
C5287 C 0.46788 0.99993 0.27601 0.0
C5288 C 0.50891 0.06122 0.28083 0.0
C5289 C 0.5045 0.07355 0.26385 0.0
C5290 C 0.50909 0.03911 0.28144 0.0
C5291 C 0.50438 0.02632 0.26474 0.0
C5292 C 0.49941 0.03855 0.24759 0.0
C5293 C 0.49918 0.06074 0.24748 0.0
C5294 C 0.51404 0.02924 0.3008 0.0
C5295 C 0.49382 0.02798 0.22878 0.0
H5296 H 0.53262 0.95788 0.25645 0.0
H5297 H 0.47262 0.95998 0.27566 0.0
H5298 H 0.53748 1.00775 0.24213 0.0
H5299 H 0.54524 1.00741 0.26745 0.0
H5300 H 0.5515 0.98689 0.25147 0.0
H5301 H 0.45606 0.98965 0.28134 0.0
H5302 H 0.47072 1.01134 0.28755 0.0
H5303 H 0.46241 1.0078 0.26265 0.0
H5304 H 0.51212 0.0691 0.29444 0.0
H5305 H 0.4941 0.06809 0.23419 0.0
H5306 H 0.52608 0.01827 0.29863 0.0
H5307 H 0.50084 0.02095 0.30629 0.0
H5308 H 0.51872 0.04011 0.31229 0.0
H5309 H 0.50659 0.01902 0.22361 0.0
H5310 H 0.4895 0.03844 0.21682 0.0
H5311 H 0.48132 0.01752 0.23161 0.0
C5312 C 0.8106 0.74341 0.03489 0.0
C5313 C 0.82484 0.75366 0.02252 0.0
C5314 C 0.78866 0.74347 0.03283 0.0
C5315 C 0.77784 0.75459 0.0179 0.0
C5316 C 0.79203 0.76559 1.00555 0.0
C5317 C 0.8141 0.76465 1.00761 0.0
C5318 C 0.77695 0.73076 0.04704 0.0
C5319 C 0.78424 0.77899 0.98954 0.0
C5320 C 0.72007 0.74353 0.99772 0.0
C5321 C 0.70583 0.7519 1.01129 0.0
C5322 C 0.74207 0.74437 0.9995 0.0
C5323 C 0.75284 0.75431 1.01539 0.0
C5324 C 0.73861 0.76334 0.02895 0.0
C5325 C 0.71657 0.76174 0.02705 0.0
C5326 C 0.754 0.73371 0.98403 0.0
C5327 C 0.74637 0.7751 0.04626 0.0
H5328 H 0.81673 0.735 0.04697 0.0
H5329 H 0.82305 0.77271 0.99692 0.0
H5330 H 0.77076 0.74034 0.05884 0.0
H5331 H 0.76437 0.72326 0.0394 0.0
H5332 H 0.78634 0.71928 0.05418 0.0
H5333 H 0.78808 0.77265 0.97488 0.0
H5334 H 0.76793 0.78108 0.99033 0.0
H5335 H 0.79163 0.79377 0.99055 0.0
H5336 H 0.71391 0.7358 0.98513 0.0
H5337 H 0.70761 0.76823 0.03865 0.0
H5338 H 0.7659 0.72481 0.9911 0.0
H5339 H 0.76122 0.7448 0.97418 0.0
H5340 H 0.74463 0.7237 0.9748 0.0
H5341 H 0.74445 0.76619 0.05998 0.0
H5342 H 0.73761 0.7889 0.0481 0.0
H5343 H 0.76229 0.77919 0.04468 0.0
C5344 C 1.01459 0.06701 0.76668 0.0
C5345 C 0.03244 0.0788 0.76468 0.0
C5346 C 1.01353 0.04486 0.7673 0.0
C5347 C 0.03046 0.03174 0.76444 0.0
C5348 C 0.04827 0.04353 0.76125 0.0
C5349 C 0.049 0.06553 0.7618 0.0
C5350 C 0.99365 0.03555 0.77173 0.0
C5351 C 0.06714 0.03276 0.75633 0.0
C5352 C 0.03635 0.97156 0.77884 0.0
C5353 C 0.02871 0.95977 0.76265 0.0
C5354 C 0.03664 0.99367 0.77981 0.0
C5355 C 0.02968 1.00674 0.76404 0.0
C5356 C 0.02243 0.9949 0.74752 0.0
C5357 C 0.02191 0.97286 0.7472 0.0
C5358 C 0.04474 1.00298 0.79841 0.0
C5359 C 1.01522 1.0056 0.72932 0.0
H5360 H 1.00085 0.07499 0.76692 0.0
H5361 H 0.06329 0.07259 0.75935 0.0
H5362 H 0.99178 0.02089 0.76451 0.0
H5363 H 0.99253 0.03313 0.78795 0.0
H5364 H 0.98128 0.04536 0.76712 0.0
H5365 H 0.07907 0.04304 0.75124 0.0
H5366 H 0.07252 0.02474 0.76961 0.0
H5367 H 0.06431 0.02155 0.74458 0.0
H5368 H 0.04225 0.9634 0.79133 0.0
H5369 H 1.01648 0.96574 0.73399 0.0
H5370 H 0.03778 0.01758 0.80146 0.0
H5371 H 0.06097 1.00533 0.79674 0.0
H5372 H 0.04241 0.99309 0.81139 0.0
H5373 H 0.99981 1.01075 0.7318 0.0
H5374 H 1.01514 0.99577 0.71613 0.0
H5375 H 0.02462 0.01884 0.72612 0.0
C5376 C 0.72363 0.2593 0.52545 0.0
C5377 C 0.71034 0.27529 0.52058 0.0
C5378 C 0.74564 0.25994 0.52421 0.0
C5379 C 0.75714 0.27729 0.51823 0.0
C5380 C 0.74389 0.29356 0.51329 0.0
C5381 C 0.72185 0.29229 0.5141 0.0
C5382 C 0.75679 0.24135 0.52942 0.0
C5383 C 0.75317 0.31309 0.50733 0.0
C5384 C 0.81672 0.28393 0.53334 0.0
C5385 C 0.82889 0.28054 0.51611 0.0
C5386 C 0.79472 0.28285 0.5342 0.0
C5387 C 0.78204 0.27839 0.51738 0.0
C5388 C 0.79411 0.27533 0.49978 0.0
C5389 C 0.81615 0.27684 0.49931 0.0
C5390 C 0.78483 0.28735 0.55363 0.0
C5391 C 0.78357 0.27028 0.48078 0.0
H5392 H 0.7167 0.2455 0.52988 0.0
H5393 H 0.71353 0.30529 0.50979 0.0
H5394 H 0.76821 0.23822 0.51801 0.0
H5395 H 0.76462 0.24354 0.54371 0.0
H5396 H 0.74679 0.22823 0.53083 0.0
H5397 H 0.74195 0.32484 0.50487 0.0
H5398 H 0.76369 0.31814 0.51899 0.0
H5399 H 0.76185 0.31118 0.49353 0.0
H5400 H 0.82459 0.2881 0.54671 0.0
H5401 H 0.82344 0.27558 0.48512 0.0
H5402 H 0.77588 0.27434 0.5585 0.0
H5403 H 0.77447 0.29999 0.55174 0.0
H5404 H 0.7957 0.29113 0.56545 0.0
H5405 H 0.77694 0.25517 0.4821 0.0
H5406 H 0.79373 0.27054 0.46785 0.0
H5407 H 0.77124 0.28077 0.47804 0.0
C5408 C 0.24828 0.50188 0.06658 0.0
C5409 C 0.26462 0.49729 0.07974 0.0
C5410 C 0.24904 0.50278 0.04445 0.0
C5411 C 0.26674 0.4992 0.03249 0.0
C5412 C 0.28324 0.49458 0.04564 0.0
C5413 C 0.28191 0.49334 0.06766 0.0
C5414 C 0.22994 0.5067 0.03363 0.0
C5415 C 0.30303 0.49045 0.03626 0.0
C5416 C 0.26763 0.48136 0.97313 0.0
C5417 C 0.27095 0.49817 0.95999 0.0
C5418 C 0.26618 0.48153 0.99511 0.0
C5419 C 0.26784 0.49919 1.00734 0.0
C5420 C 0.2704 0.51653 0.9944 0.0
C5421 C 0.27143 0.51588 0.97217 0.0
C5422 C 0.26245 0.46199 1.00539 0.0
C5423 C 0.2724 0.5365 1.00421 0.0
H5424 H 0.23405 0.50407 0.07361 0.0
H5425 H 0.29508 0.48883 0.07566 0.0
H5426 H 0.23199 0.51895 0.02281 0.0
H5427 H 0.22559 0.49322 0.02515 0.0
H5428 H 0.21765 0.51058 0.04385 0.0
H5429 H 0.31524 0.49027 0.04732 0.0
H5430 H 0.30246 0.47577 0.02881 0.0
H5431 H 0.30644 0.50182 0.0248 0.0
H5432 H 0.26562 0.46712 0.96597 0.0
H5433 H 0.27215 0.52979 0.96434 0.0
H5434 H 0.25076 0.4636 0.01685 0.0
H5435 H 0.27623 0.45721 1.01298 0.0
H5436 H 0.25788 0.45011 0.9949 0.0
H5437 H 0.26099 0.5383 1.01589 0.0
H5438 H 0.27107 0.54892 0.99346 0.0
H5439 H 0.28715 0.53749 1.01151 0.0
C5440 C 0.26502 0.50823 0.81512 0.0
C5441 C 0.28074 0.51526 0.82793 0.0
C5442 C 0.26457 0.50911 0.79309 0.0
C5443 C 0.28025 0.51753 0.78081 0.0
C5444 C 0.29621 0.52491 0.79354 0.0
C5445 C 0.29624 0.52379 0.81566 0.0
C5446 C 0.24668 0.50058 0.78271 0.0
C5447 C 0.31394 0.53423 0.78358 0.0
C5448 C 0.28599 0.50454 0.72024 0.0
C5449 C 0.27791 0.52075 0.70871 0.0
C5450 C 0.28693 0.50341 0.74232 0.0
C5451 C 0.27974 0.51871 0.75576 0.0
C5452 C 0.27183 0.53517 0.74423 0.0
C5453 C 0.27116 0.53595 0.72218 0.0
C5454 C 0.29602 0.48522 0.75146 0.0
C5455 C 0.26369 0.55261 0.75543 0.0
H5456 H 0.25222 0.50221 0.8225 0.0
H5457 H 0.30909 0.52957 0.82345 0.0
H5458 H 0.24054 0.51164 0.77219 0.0
H5459 H 0.25119 0.48741 0.77396 0.0
H5460 H 0.23483 0.496 0.79323 0.0
H5461 H 0.3257 0.53857 0.79431 0.0
H5462 H 0.32029 0.52369 0.77268 0.0
H5463 H 0.30925 0.54763 0.77525 0.0
H5464 H 0.29189 0.49222 0.71185 0.0
H5465 H 0.26526 0.54917 0.71537 0.0
H5466 H 0.2847 0.47728 0.76049 0.0
H5467 H 0.30826 0.48964 0.7616 0.0
H5468 H 0.30193 0.47483 0.74017 0.0
H5469 H 0.2504 0.54778 0.76392 0.0
H5470 H 0.25946 0.56504 0.74548 0.0
H5471 H 0.27484 0.5581 0.76627 0.0
C5472 C 0.28775 0.53202 0.56358 0.0
C5473 C 0.27089 0.53032 0.5766 0.0
C5474 C 0.28726 0.53137 0.54168 0.0
C5475 C 0.26918 0.53024 0.52998 0.0
C5476 C 0.25195 0.52934 0.54294 0.0
C5477 C 0.253 0.52933 0.56489 0.0
C5478 C 0.30684 0.53242 0.53103 0.0
C5479 C 0.2316 0.52905 0.53369 0.0
C5480 C 0.27068 0.54806 0.47096 0.0
C5481 C 0.26704 0.53094 0.45865 0.0
C5482 C 0.27101 0.54814 0.49293 0.0
C5483 C 0.26838 0.53052 0.50519 0.0
C5484 C 0.26499 0.51316 0.49284 0.0
C5485 C 0.26408 0.51364 0.47092 0.0
C5486 C 0.27394 0.56784 0.50307 0.0
C5487 C 0.26246 0.49336 0.50294 0.0
H5488 H 0.302 0.53438 0.57059 0.0
H5489 H 0.23917 0.52927 0.57305 0.0
H5490 H 0.3065 0.52354 0.51718 0.0
H5491 H 0.31009 0.54812 0.5271 0.0
H5492 H 0.31916 0.52704 0.54053 0.0
H5493 H 0.22041 0.53572 0.5437 0.0
H5494 H 0.23138 0.53715 0.51936 0.0
H5495 H 0.22708 0.51341 0.53093 0.0
H5496 H 0.27279 0.56208 0.46332 0.0
H5497 H 0.26142 0.49981 0.46323 0.0
H5498 H 0.28978 0.56957 0.50726 0.0
H5499 H 0.2649 0.56874 0.51678 0.0
H5500 H 0.26996 0.58043 0.49321 0.0
H5501 H 0.27437 0.49121 0.51413 0.0
H5502 H 0.26275 0.4808 0.49229 0.0
H5503 H 0.24805 0.49298 0.51084 0.0
C5504 C 0.2437 0.53521 0.31496 0.0
C5505 C 0.2538 0.52278 0.32915 0.0
C5506 C 0.24438 0.53342 0.2931 0.0
C5507 C 0.25552 0.51842 0.28252 0.0
C5508 C 0.26591 0.50575 0.29663 0.0
C5509 C 0.26476 0.50778 0.31859 0.0
C5510 C 0.23231 0.54782 0.2811 0.0
C5511 C 0.27853 0.48939 0.28839 0.0
C5512 C 0.24431 0.50038 0.22442 0.0
C5513 C 0.25648 0.51196 0.21103 0.0
C5514 C 0.24346 0.50259 0.24629 0.0
C5515 C 0.256 0.51607 0.2577 0.0
C5516 C 0.26881 0.52737 0.24438 0.0
C5517 C 0.26858 0.52561 0.22239 0.0
C5518 C 0.22845 0.49019 0.25735 0.0
C5519 C 0.28349 0.54161 0.25351 0.0
H5520 H 0.23486 0.547 0.3211 0.0
H5521 H 0.27244 0.49697 0.32763 0.0
H5522 H 0.24225 0.5567 0.2714 0.0
H5523 H 0.22188 0.53951 0.27136 0.0
H5524 H 0.22367 0.55814 0.29054 0.0
H5525 H 0.28692 0.48147 0.30013 0.0
H5526 H 0.26898 0.4785 0.28047 0.0
H5527 H 0.28919 0.49562 0.27746 0.0
H5528 H 0.23479 0.4893 0.21767 0.0
H5529 H 0.27868 0.53494 0.21399 0.0
H5530 H 0.22024 0.49953 0.26808 0.0
H5531 H 0.23621 0.47849 0.26589 0.0
H5532 H 0.21759 0.48292 0.24724 0.0
H5533 H 0.27555 0.55488 0.25902 0.0
H5534 H 0.29494 0.54657 0.24273 0.0
H5535 H 0.29099 0.53459 0.26637 0.0
C5536 C 0.50009 0.81122 0.27806 0.0
C5537 C 0.51737 0.82394 0.27868 0.0
C5538 C 0.50006 0.78926 0.27801 0.0
C5539 C 0.51785 0.77728 0.27791 0.0
C5540 C 0.53548 0.78994 0.27835 0.0
C5541 C 0.53507 0.81203 0.27903 0.0
C5542 C 0.48029 0.7787 0.2781 0.0
C5543 C 0.55538 0.77995 0.27777 0.0
C5544 C 0.51767 0.71758 0.29377 0.0
C5545 C 0.51719 0.70579 0.27598 0.0
C5546 C 0.51813 0.73961 0.29459 0.0
C5547 C 0.51787 0.75244 0.27727 0.0
C5548 C 0.51729 0.74064 0.2593 0.0
C5549 C 0.51713 0.71862 0.25891 0.0
C5550 C 0.5191 0.74933 0.31461 0.0
C5551 C 0.51675 0.75148 0.23982 0.0
H5552 H 0.48588 0.81861 0.27804 0.0
H5553 H 0.54906 0.82004 0.27936 0.0
H5554 H 0.47798 0.7712 0.26365 0.0
H5555 H 0.48004 0.76705 0.28976 0.0
H5556 H 0.46777 0.78904 0.28069 0.0
H5557 H 0.56788 0.7908 0.27782 0.0
H5558 H 0.55693 0.7699 0.29071 0.0
H5559 H 0.55643 0.77061 0.26427 0.0
H5560 H 0.5182 0.70943 0.3076 0.0
H5561 H 0.5166 0.71132 0.24467 0.0
H5562 H 0.50615 0.75924 0.31656 0.0
H5563 H 0.53266 0.75874 0.31563 0.0
H5564 H 0.51931 0.7383 0.32687 0.0
H5565 H 0.50244 0.75945 0.23844 0.0
H5566 H 0.51831 0.74127 0.22702 0.0
H5567 H 0.5288 0.7628 0.23922 0.0
C5568 C 0.07907 0.36651 0.32581 0.0
C5569 C 0.06069 0.36082 0.31817 0.0
C5570 C 0.08874 0.35472 0.33973 0.0
C5571 C 0.07907 0.33744 0.34706 0.0
C5572 C 0.06053 0.33141 0.33918 0.0
C5573 C 0.05156 0.34326 0.3247 0.0
C5574 C 0.10852 0.36177 0.34784 0.0
C5575 C 0.04926 0.31372 0.34729 0.0
C5576 C 0.11687 0.31074 0.37698 0.0
C5577 C 0.11495 0.32092 0.39491 0.0
C5578 C 0.10309 0.31367 0.36174 0.0
C5579 C 0.08769 0.32754 0.36453 0.0
C5580 C 0.08444 0.33597 0.38345 0.0
C5581 C 0.09821 0.33248 0.39853 0.0
C5582 C 0.1062 0.30362 0.34205 0.0
C5583 C 0.06789 0.35054 0.38715 0.0
H5584 H 0.08518 0.38096 0.32207 0.0
H5585 H 0.03656 0.33982 0.31989 0.0
H5586 H 0.1069 0.36597 0.36363 0.0
H5587 H 0.11957 0.34964 0.34701 0.0
H5588 H 0.11445 0.37486 0.33967 0.0
H5589 H 0.03741 0.30869 0.33695 0.0
H5590 H 0.05935 0.30113 0.35039 0.0
H5591 H 0.04208 0.3179 0.36144 0.0
H5592 H 0.12951 0.30113 0.37466 0.0
H5593 H 0.09659 0.33979 0.41274 0.0
H5594 H 0.1137 0.31415 0.33178 0.0
H5595 H 0.09179 0.29929 0.33526 0.0
H5596 H 0.11558 0.29017 0.34355 0.0
H5597 H 0.07225 0.36532 0.38116 0.0
H5598 H 0.06479 0.35223 0.40321 0.0
H5599 H 0.05404 0.34584 0.37955 0.0
C5600 C 0.96821 0.84975 0.64225 0.0
C5601 C 0.95105 0.85722 0.65136 0.0
C5602 C 0.96682 0.83678 0.6261 0.0
C5603 C 0.94785 0.83156 0.61879 0.0
C5604 C 0.93052 0.83792 0.62884 0.0
C5605 C 0.93237 0.85074 0.645 0.0
C5606 C 0.98565 0.82987 0.61625 0.0
C5607 C 0.90991 0.83213 0.62189 0.0
C5608 C 0.9288 0.82753 0.56785 0.0
C5609 C 0.9223 0.80786 0.56812 0.0
C5610 C 0.94111 0.83475 0.58292 0.0
C5611 C 0.94552 0.82221 0.59917 0.0
C5612 C 0.94169 0.8016 0.59786 0.0
C5613 C 0.9305 0.79454 0.58188 0.0
C5614 C 0.94636 0.85658 0.58316 0.0
C5615 C 0.9463 0.78761 0.61472 0.0
H5616 H 0.98276 0.85463 0.64722 0.0
H5617 H 0.91916 0.85599 0.65245 0.0
H5618 H 0.98369 0.81524 0.60891 0.0
H5619 H 0.99009 0.84085 0.60478 0.0
H5620 H 0.99799 0.82879 0.62713 0.0
H5621 H 0.89824 0.83652 0.63261 0.0
H5622 H 0.90671 0.8395 0.60754 0.0
H5623 H 0.90887 0.81584 0.61955 0.0
H5624 H 0.92254 0.83778 0.55739 0.0
H5625 H 0.92578 0.7791 0.58179 0.0
H5626 H 0.96119 0.85908 0.58994 0.0
H5627 H 0.93522 0.86469 0.5921 0.0
H5628 H 0.94639 0.86293 0.56797 0.0
H5629 H 0.96042 0.79173 0.62215 0.0
H5630 H 0.94719 0.77196 0.60953 0.0
H5631 H 0.93424 0.78843 0.62588 0.0
C5632 C 0.48249 0.69269 0.83534 0.0
C5633 C 0.47197 0.68565 0.81875 0.0
C5634 C 0.4727 0.70184 0.85093 0.0
C5635 C 0.45195 0.70403 0.84965 0.0
C5636 C 0.44184 0.69988 0.83169 0.0
C5637 C 0.45202 0.69047 0.81632 0.0
C5638 C 0.48429 0.70642 0.86956 0.0
C5639 C 0.41977 0.70302 0.8297 0.0
C5640 C 0.41961 0.68862 0.89224 0.0
C5641 C 0.4126 0.70698 0.89858 0.0
C5642 C 0.43367 0.68763 0.87712 0.0
C5643 C 0.44028 0.70545 0.86792 0.0
C5644 C 0.43411 0.7241 0.87505 0.0
C5645 C 0.4202 0.72464 0.89034 0.0
C5646 C 0.44102 0.66748 0.8706 0.0
C5647 C 0.44151 0.74335 0.86607 0.0
H5648 H 0.4982 0.6896 0.83698 0.0
H5649 H 0.444 0.6854 0.80333 0.0
H5650 H 0.47701 0.71782 0.87884 0.0
H5651 H 0.48566 0.69261 0.87846 0.0
H5652 H 0.49956 0.71159 0.86588 0.0
H5653 H 0.41494 0.7027 0.81398 0.0
H5654 H 0.41176 0.69104 0.8378 0.0
H5655 H 0.41544 0.71744 0.83632 0.0
H5656 H 0.41411 0.67511 0.89915 0.0
H5657 H 0.41489 0.73889 0.89558 0.0
H5658 H 0.45749 0.66738 0.87013 0.0
H5659 H 0.43554 0.66419 0.85545 0.0
H5660 H 0.43596 0.65538 0.88065 0.0
H5661 H 0.45767 0.74273 0.86299 0.0
H5662 H 0.4386 0.75627 0.87587 0.0
H5663 H 0.43384 0.74588 0.85175 0.0
C5664 C 0.62725 0.22414 0.09059 0.0
C5665 C 0.61631 0.22617 0.07308 0.0
C5666 C 0.61912 0.2143 0.10694 0.0
C5667 C 0.60012 0.20543 0.10514 0.0
C5668 C 0.58954 0.20653 0.087 0.0
C5669 C 0.5975 0.21763 0.07138 0.0
C5670 C 0.63034 0.21435 0.12632 0.0
C5671 C 0.56949 0.19666 0.08431 0.0
C5672 C 0.58039 0.16439 0.13719 0.0
C5673 C 0.56445 0.17408 0.14608 0.0
C5674 C 0.59359 0.17488 0.12506 0.0
C5675 C 0.59072 0.19549 0.12221 0.0
C5676 C 0.57606 0.2057 0.13319 0.0
C5677 C 0.56276 0.19472 0.14483 0.0
C5678 C 0.60885 0.16347 0.1134 0.0
C5679 C 0.57319 0.22785 0.13117 0.0
H5680 H 0.64154 0.23157 0.09194 0.0
H5681 H 0.58886 0.22003 0.05804 0.0
H5682 H 0.62053 0.21921 0.13856 0.0
H5683 H 0.63538 0.1991 0.12986 0.0
H5684 H 0.64358 0.22429 0.12586 0.0
H5685 H 0.5645 0.19694 0.06862 0.0
H5686 H 0.57001 0.18096 0.08934 0.0
H5687 H 0.55825 0.2044 0.09342 0.0
H5688 H 0.58142 0.14833 0.13825 0.0
H5689 H 0.55031 0.20203 0.15185 0.0
H5690 H 0.62316 0.17167 0.11265 0.0
H5691 H 0.60343 0.16152 0.09799 0.0
H5692 H 0.61156 0.14853 0.11985 0.0
H5693 H 0.58773 0.23573 0.13096 0.0
H5694 H 0.56402 0.23389 0.1434 0.0
H5695 H 0.56555 0.2311 0.11698 0.0
C5696 C 0.07701 0.6621 0.2103 0.0
C5697 C 0.05832 0.66785 0.21699 0.0
C5698 C 0.0866 0.67259 0.19511 0.0
C5699 C 0.07686 0.68885 0.18604 0.0
C5700 C 0.05899 0.69607 0.1943 0.0
C5701 C 0.04985 0.68534 0.20969 0.0
C5702 C 0.10596 0.66474 0.18715 0.0
C5703 C 0.04817 0.71349 0.18543 0.0
C5704 C 0.10664 0.71039 0.14335 0.0
C5705 C 0.10046 0.69783 0.1279 0.0
C5706 C 0.09796 0.70891 0.16225 0.0
C5707 C 0.08285 0.69457 0.16561 0.0
C5708 C 0.07543 0.68317 0.14954 0.0
C5709 C 0.08441 0.68488 0.13094 0.0
C5710 C 0.1057 0.72184 0.17882 0.0
C5711 C 0.05889 0.66811 0.15226 0.0
H5712 H 0.08335 0.64839 0.2157 0.0
H5713 H 0.03508 0.68946 0.21447 0.0
H5714 H 0.10358 0.65853 0.17211 0.0
H5715 H 0.11699 0.67699 0.18583 0.0
H5716 H 0.11225 0.6529 0.19671 0.0
H5717 H 0.03898 0.72108 0.19675 0.0
H5718 H 0.05859 0.72445 0.17878 0.0
H5719 H 0.03807 0.70807 0.17358 0.0
H5720 H 0.1189 0.72064 0.14094 0.0
H5721 H 0.07927 0.67559 0.11884 0.0
H5722 H 0.11545 0.71292 0.1886 0.0
H5723 H 0.0933 0.72744 0.18803 0.0
H5724 H 0.11441 0.73471 0.17313 0.0
H5725 H 0.06423 0.65561 0.16156 0.0
H5726 H 0.05356 0.66195 0.13793 0.0
H5727 H 0.04613 0.67494 0.15999 0.0
C5728 C 0.59708 0.81721 0.46188 0.0
C5729 C 0.61458 0.80649 0.45982 0.0
C5730 C 0.59 0.82879 0.44621 0.0
C5731 C 0.59973 0.82802 0.42761 0.0
C5732 C 0.61729 0.81691 0.42541 0.0
C5733 C 0.62484 0.80671 0.44179 0.0
C5734 C 0.57183 0.84143 0.44941 0.0
C5735 C 0.62725 0.81458 0.40553 0.0
C5736 C 0.56293 0.84226 0.38832 0.0
C5737 C 0.56779 0.86233 0.38596 0.0
C5738 C 0.57461 0.83009 0.40039 0.0
C5739 C 0.59103 0.83856 0.41053 0.0
C5740 C 0.59707 0.85833 0.40647 0.0
C5741 C 0.58529 0.87004 0.3941 0.0
C5742 C 0.56833 0.80874 0.40365 0.0
C5743 C 0.6146 0.86779 0.41688 0.0
H5744 H 0.58876 0.81621 0.47557 0.0
H5745 H 0.63806 0.79779 0.44019 0.0
H5746 H 0.5747 0.85684 0.44419 0.0
H5747 H 0.55919 0.8354 0.4407 0.0
H5748 H 0.5674 0.84197 0.46524 0.0
H5749 H 0.64248 0.80852 0.40698 0.0
H5750 H 0.61824 0.80423 0.39635 0.0
H5751 H 0.62808 0.82888 0.39741 0.0
H5752 H 0.54927 0.83649 0.38194 0.0
H5753 H 0.58882 0.88568 0.39214 0.0
H5754 H 0.56048 0.80741 0.41803 0.0
H5755 H 0.58147 0.79887 0.40423 0.0
H5756 H 0.55814 0.80343 0.39181 0.0
H5757 H 0.6107 0.87048 0.4326 0.0
H5758 H 0.61893 0.8822 0.41001 0.0
H5759 H 0.62764 0.85783 0.41672 0.0
C5760 C 0.46335 0.35297 0.71683 0.0
C5761 C 0.48355 0.35706 0.71464 0.0
C5762 C 0.45311 0.34151 0.70269 0.0
C5763 C 0.4632 0.33507 0.68549 0.0
C5764 C 0.48406 0.33708 0.68445 0.0
C5765 C 0.49401 0.34775 0.69927 0.0
C5766 C 0.43102 0.33849 0.70483 0.0
C5767 C 0.49565 0.33042 0.66656 0.0
C5768 C 0.43124 0.30917 0.64676 0.0
C5769 C 0.42392 0.32562 0.63632 0.0
C5770 C 0.44493 0.31173 0.66233 0.0
C5771 C 0.45146 0.33114 0.66724 0.0
C5772 C 0.44513 0.34755 0.65571 0.0
C5773 C 0.43121 0.34462 0.6406 0.0
C5774 C 0.45166 0.29383 0.67397 0.0
C5775 C 0.45262 0.36837 0.65968 0.0
H5776 H 0.45512 0.36036 0.72816 0.0
H5777 H 0.50981 0.35057 0.69764 0.0
H5778 H 0.42311 0.34976 0.69585 0.0
H5779 H 0.42644 0.3236 0.69938 0.0
H5780 H 0.42628 0.3399 0.72044 0.0
H5781 H 0.51128 0.32706 0.67055 0.0
H5782 H 0.48886 0.31713 0.65951 0.0
H5783 H 0.49587 0.34261 0.65546 0.0
H5784 H 0.42577 0.2944 0.64319 0.0
H5785 H 0.42595 0.35722 0.6321 0.0
H5786 H 0.44358 0.29327 0.68827 0.0
H5787 H 0.46775 0.2948 0.67742 0.0
H5788 H 0.4487 0.27974 0.66588 0.0
H5789 H 0.44804 0.37294 0.6747 0.0
H5790 H 0.44683 0.37937 0.64887 0.0
H5791 H 0.46909 0.36876 0.65923 0.0
C5792 C 0.9449 0.16056 0.89903 0.0
C5793 C 0.96347 0.16006 0.88987 0.0
C5794 C 0.94107 0.1743 0.91397 0.0
C5795 C 0.95625 0.18774 0.91982 0.0
C5796 C 0.97484 0.18778 0.91019 0.0
C5797 C 0.97831 0.17372 0.89541 0.0
C5798 C 0.92075 0.17444 0.92343 0.0
C5799 C 0.99122 0.20221 0.91574 0.0
C5800 C 0.93516 0.23114 0.9466 0.0
C5801 C 0.93406 0.22353 0.96601 0.0
C5802 C 0.9436 0.22019 0.93139 0.0
C5803 C 0.95221 0.20174 0.93596 0.0
C5804 C 0.95374 0.1953 0.95587 0.0
C5805 C 0.94419 0.20612 0.97077 0.0
C5806 C 0.94137 0.22746 0.91029 0.0
C5807 C 0.96411 0.17623 0.96114 0.0
H5808 H 0.93331 0.15031 0.89438 0.0
H5809 H 0.99278 0.17325 0.88841 0.0
H5810 H 0.922 0.17083 0.93942 0.0
H5811 H 0.91411 0.18945 0.92222 0.0
H5812 H 0.9105 0.16352 0.91644 0.0
H5813 H 1.00263 0.20343 0.90391 0.0
H5814 H 0.98533 0.21726 0.91877 0.0
H5815 H 0.99857 0.19692 0.92945 0.0
H5816 H 0.92816 0.24509 0.94279 0.0
H5817 H 0.944 0.20054 0.98582 0.0
H5818 H 0.9298 0.21843 0.9027 0.0
H5819 H 0.95539 0.22568 0.90192 0.0
H5820 H 0.93689 0.24332 0.90958 0.0
H5821 H 0.95471 0.1634 0.95662 0.0
H5822 H 0.96706 0.17511 0.97729 0.0
H5823 H 0.97841 0.17514 0.95305 0.0
C5824 C 0.32327 0.04985 0.34497 0.0
C5825 C 0.31582 0.05964 0.36164 0.0
C5826 C 0.33828 0.05856 0.33346 0.0
C5827 C 0.34599 0.07733 0.33908 0.0
C5828 C 0.3366 0.08828 0.3543 0.0
C5829 C 0.32179 0.0791 0.36566 0.0
C5830 C 0.3476 0.04638 0.31723 0.0
C5831 C 0.34411 0.10855 0.36047 0.0
C5832 C 0.4008 0.08629 0.34416 0.0
C5833 C 0.4039 0.10143 0.3303 0.0
C5834 C 0.38231 0.07695 0.34587 0.0
C5835 C 0.3665 0.08307 0.33345 0.0
C5836 C 0.37008 0.09696 0.3181 0.0
C5837 C 0.38886 0.10608 0.3167 0.0
C5838 C 0.37935 0.06168 0.36207 0.0
C5839 C 0.35379 0.10309 0.30406 0.0
H5840 H 0.31911 0.0345 0.34227 0.0
H5841 H 0.31638 0.08639 0.37887 0.0
H5842 H 0.3544 0.05592 0.30563 0.0
H5843 H 0.35944 0.03696 0.32367 0.0
H5844 H 0.33645 0.03635 0.31024 0.0
H5845 H 0.3339 0.1159 0.37105 0.0
H5846 H 0.35885 0.10708 0.36767 0.0
H5847 H 0.34601 0.11827 0.34733 0.0
H5848 H 0.41269 0.08232 0.35423 0.0
H5849 H 0.39142 0.1176 0.30573 0.0
H5850 H 0.37205 0.04813 0.35609 0.0
H5851 H 0.36953 0.06782 0.37372 0.0
H5852 H 0.39358 0.05729 0.3691 0.0
H5853 H 0.34507 0.08995 0.2991 0.0
H5854 H 0.35978 0.11095 0.29086 0.0
H5855 H 0.34343 0.1132 0.3118 0.0
C5856 C 0.23107 0.07781 0.5953 0.0
C5857 C 0.22288 0.06905 0.61225 0.0
C5858 C 0.22137 0.09338 0.58553 0.0
C5859 C 0.2033 0.10054 0.59333 0.0
C5860 C 0.19401 0.09032 0.60918 0.0
C5861 C 0.20419 0.075 0.61875 0.0
C5862 C 0.23179 0.1038 0.56865 0.0
C5863 C 0.17458 0.09735 0.61774 0.0
C5864 C 0.19568 0.15557 0.60008 0.0
C5865 C 0.18018 0.15934 0.58688 0.0
C5866 C 0.20426 0.13673 0.60124 0.0
C5867 C 0.19696 0.12118 0.58901 0.0
C5868 C 0.18205 0.12515 0.57482 0.0
C5869 C 0.17381 0.14428 0.57389 0.0
C5870 C 0.2204 0.13325 0.61641 0.0
C5871 C 0.17419 0.10903 0.56133 0.0
H5872 H 0.24607 0.07399 0.59098 0.0
H5873 H 0.19851 0.06931 0.63258 0.0
H5874 H 0.22112 0.10746 0.55668 0.0
H5875 H 0.23834 0.11799 0.57401 0.0
H5876 H 0.24391 0.09462 0.56239 0.0
H5877 H 0.1688 0.08718 0.62938 0.0
H5878 H 0.17658 0.11232 0.62435 0.0
H5879 H 0.16328 0.09865 0.60586 0.0
H5880 H 0.20093 0.16735 0.60975 0.0
H5881 H 0.16188 0.14724 0.56352 0.0
H5882 H 0.23332 0.12586 0.6095 0.0
H5883 H 0.2147 0.12329 0.62826 0.0
H5884 H 0.22562 0.1473 0.62337 0.0
H5885 H 0.18657 0.10043 0.55482 0.0
H5886 H 0.16497 0.11516 0.54915 0.0
H5887 H 0.16495 0.09846 0.57002 0.0
C5888 C 0.21786 0.96057 0.84718 0.0
C5889 C 0.21659 0.97856 0.8572 0.0
C5890 C 0.20259 0.95446 0.83449 0.0
C5891 C 0.18573 0.96675 0.83211 0.0
C5892 C 0.18603 0.98633 0.83956 0.0
C5893 C 0.20168 0.9921 0.85192 0.0
C5894 C 0.20321 0.93367 0.82609 0.0
C5895 C 0.16876 1.00025 0.83699 0.0
C5896 C 0.14815 0.93945 0.80145 0.0
C5897 C 0.14004 0.92714 0.81612 0.0
C5898 C 0.16157 0.9546 0.80655 0.0
C5899 C 0.16672 0.95716 0.82667 0.0
C5900 C 0.15629 0.94657 0.8416 0.0
C5901 C 0.14322 0.93136 0.83608 0.0
C5902 C 0.17175 0.96626 0.79034 0.0
C5903 C 0.1606 0.94966 0.86335 0.0
H5904 H 0.22963 0.95047 0.85053 0.0
H5905 H 0.20103 1.00644 0.8592 0.0
H5906 H 0.19359 0.92373 0.83513 0.0
H5907 H 0.19753 0.93341 0.81068 0.0
H5908 H 0.2185 0.92757 0.82623 0.0
H5909 H 0.17409 1.0159 0.836 0.0
H5910 H 0.1598 0.99671 0.82366 0.0
H5911 H 0.15896 0.99914 0.85016 0.0
H5912 H 0.14526 0.93619 0.78598 0.0
H5913 H 0.13646 0.92195 0.84729 0.0
H5914 H 0.1862 0.95926 0.7869 0.0
H5915 H 0.17477 0.98179 0.79503 0.0
H5916 H 0.16269 0.96644 0.77659 0.0
H5917 H 0.17523 0.94312 0.86706 0.0
H5918 H 0.14916 0.94254 0.8729 0.0
H5919 H 0.1613 0.96574 0.86689 0.0
C5920 C 0.36451 0.89415 0.07518 0.0
C5921 C 0.35382 0.87781 0.08259 0.0
C5922 C 0.35655 0.91338 0.07616 0.0
C5923 C 0.33757 0.91606 0.0847 0.0
C5924 C 0.32592 0.89922 0.08999 0.0
C5925 C 0.33433 0.88028 0.08909 0.0
C5926 C 0.36915 0.93088 0.06979 0.0
C5927 C 0.30537 0.90127 0.0987 0.0
C5928 C 0.32674 0.95452 0.12307 0.0
C5929 C 0.31129 0.9649 0.11404 0.0
C5930 C 0.33711 0.93989 0.11276 0.0
C5931 C 0.33188 0.93569 0.09287 0.0
C5932 C 0.31803 0.9479 0.08294 0.0
C5933 C 0.30764 0.96225 0.09381 0.0
C5934 C 0.35181 0.92721 0.12392 0.0
C5935 C 0.31254 0.94432 0.06158 0.0
H5936 H 0.37949 0.89204 0.06975 0.0
H5937 H 0.326 0.86745 0.0943 0.0
H5938 H 0.35992 0.94283 0.06329 0.0
H5939 H 0.3769 0.93716 0.0829 0.0
H5940 H 0.38057 0.9264 0.05884 0.0
H5941 H 0.29724 0.88684 0.09907 0.0
H5942 H 0.30658 0.90693 0.11409 0.0
H5943 H 0.29645 0.91206 0.0901 0.0
H5944 H 0.32944 0.95644 0.13874 0.0
H5945 H 0.29516 0.96965 0.08706 0.0
H5946 H 0.36606 0.92651 0.11576 0.0
H5947 H 0.34596 0.9118 0.12533 0.0
H5948 H 0.35474 0.93288 0.13902 0.0
H5949 H 0.32606 0.94217 0.0525 0.0
H5950 H 0.30387 0.95684 0.0553 0.0
H5951 H 0.30344 0.93056 0.06038 0.0
C5952 C 0.40429 0.93356 0.1817 0.0
C5953 C 0.41065 0.92063 0.19651 0.0
C5954 C 0.38552 0.94213 0.18251 0.0
C5955 C 0.37277 0.93786 0.19867 0.0
C5956 C 0.37953 0.9258 0.21438 0.0
C5957 C 0.39833 0.91702 0.21298 0.0
C5958 C 0.37993 0.95652 0.1664 0.0
C5959 C 0.36699 0.92209 0.23254 0.0
C5960 C 0.3331 0.97539 0.19326 0.0
C5961 C 0.31978 0.96499 0.18112 0.0
C5962 C 0.34896 0.96574 0.20238 0.0
C5963 C 0.3522 0.94548 0.19808 0.0
C5964 C 0.33755 0.93443 0.18762 0.0
C5965 C 0.32118 0.94436 0.17947 0.0
C5966 C 0.36354 0.97796 0.21432 0.0
C5967 C 0.34058 0.91282 0.18261 0.0
H5968 H 0.41411 0.93716 0.16947 0.0
H5969 H 0.40323 0.90713 0.22466 0.0
H5970 H 0.36393 0.95588 0.16268 0.0
H5971 H 0.38328 0.97172 0.17184 0.0
H5972 H 0.38861 0.95399 0.15266 0.0
H5973 H 0.37604 0.91662 0.24515 0.0
H5974 H 0.35925 0.93584 0.23716 0.0
H5975 H 0.35548 0.91073 0.22914 0.0
H5976 H 0.33207 0.99137 0.19441 0.0
H5977 H 0.31081 0.93639 0.17002 0.0
H5978 H 0.37462 0.98484 0.20422 0.0
H5979 H 0.37156 0.96873 0.22531 0.0
H5980 H 0.35585 0.99019 0.22218 0.0
H5981 H 0.35235 0.9116 0.17119 0.0
H5982 H 0.32682 0.90575 0.17677 0.0
H5983 H 0.3456 0.90446 0.19582 0.0
C5984 C 0.3609 0.15694 0.46174 0.0
C5985 C 0.34933 0.17181 0.45281 0.0
C5986 C 0.35465 0.13689 0.46155 0.0
C5987 C 0.33678 0.13161 0.45172 0.0
C5988 C 0.32408 0.14696 0.44495 0.0
C5989 C 0.3306 0.16676 0.44545 0.0
C5990 C 0.3672 0.12143 0.47174 0.0
C5991 C 0.30341 0.14306 0.43729 0.0
C5992 C 0.33332 0.08386 0.42175 0.0
C5993 C 0.31649 0.07493 0.43009 0.0
C5994 C 0.34092 0.10187 0.42935 0.0
C5995 C 0.33224 0.11041 0.44652 0.0
C5996 C 0.31667 0.10009 0.45623 0.0
C5997 C 0.30819 0.08329 0.44717 0.0
C5998 C 0.35676 0.11273 0.41771 0.0
C5999 C 0.30756 0.10776 0.4751 0.0
H6000 H 0.37517 0.16081 0.46817 0.0
H6001 H 0.32112 0.17836 0.43963 0.0
H6002 H 0.35772 0.10987 0.4788 0.0
H6003 H 0.37683 0.11398 0.46076 0.0
H6004 H 0.37693 0.12823 0.48321 0.0
H6005 H 0.29962 0.15382 0.42542 0.0
H6006 H 0.3013 0.12772 0.43178 0.0
H6007 H 0.29269 0.14554 0.44948 0.0
H6008 H 0.33931 0.07783 0.40814 0.0
H6009 H 0.29426 0.07759 0.4528 0.0
H6010 H 0.36948 0.11668 0.42736 0.0
H6011 H 0.35059 0.12681 0.41178 0.0
H6012 H 0.36238 0.10377 0.40513 0.0
H6013 H 0.31861 0.11598 0.48422 0.0
H6014 H 0.30125 0.09537 0.48403 0.0
H6015 H 0.29519 0.11791 0.47147 0.0
C6016 C 0.20789 0.06247 0.69939 0.0
C6017 C 0.21443 0.07052 0.68138 0.0
C6018 C 0.19083 0.0698 0.70877 0.0
C6019 C 0.17977 0.08503 0.69944 0.0
C6020 C 0.18764 0.09451 0.68231 0.0
C6021 C 0.20499 0.08717 0.67358 0.0
C6022 C 0.18384 0.05979 0.72753 0.0
C6023 C 0.17648 0.11074 0.67168 0.0
C6024 C 0.12419 0.08156 0.69412 0.0
C6025 C 0.11831 0.09965 0.70227 0.0
C6026 C 0.14398 0.07546 0.69521 0.0
C6027 C 0.15837 0.08798 0.70426 0.0
C6028 C 0.15206 0.10498 0.71472 0.0
C6029 C 0.13207 0.11081 0.71343 0.0
C6030 C 0.14949 0.05581 0.68623 0.0
C6031 C 0.16654 0.11731 0.72664 0.0
H6032 H 0.21512 0.04941 0.70534 0.0
H6033 H 0.21002 0.0932 0.65954 0.0
H6034 H 0.17287 0.06885 0.73572 0.0
H6035 H 0.17699 0.04521 0.72384 0.0
H6036 H 0.19669 0.05674 0.73739 0.0
H6037 H 0.18561 0.11792 0.65996 0.0
H6038 H 0.16293 0.10432 0.66473 0.0
H6039 H 0.17167 0.12237 0.68219 0.0
H6040 H 0.11336 0.07244 0.68638 0.0
H6041 H 0.12748 0.12457 0.72032 0.0
H6042 H 0.15283 0.04508 0.69822 0.0
H6043 H 0.16301 0.0575 0.67711 0.0
H6044 H 0.13731 0.04942 0.67709 0.0
H6045 H 0.17684 0.10754 0.73495 0.0
H6046 H 0.15878 0.12717 0.73726 0.0
H6047 H 0.17562 0.12672 0.71659 0.0
C6048 C 0.17991 0.87801 0.94797 0.0
C6049 C 0.16843 0.87799 0.96511 0.0
C6050 C 0.19474 0.89228 0.94532 0.0
C6051 C 0.19783 0.9067 0.9603 0.0
C6052 C 0.18799 0.90503 0.97871 0.0
C6053 C 0.17308 0.89061 0.98088 0.0
C6054 C 0.20513 0.89341 0.92551 0.0
C6055 C 0.19167 0.91968 0.99523 0.0
C6056 C 0.23726 0.94178 0.94302 0.0
C6057 C 0.22572 0.95634 0.9337 0.0
C6058 C 0.22838 0.92683 0.95433 0.0
C6059 C 0.2075 0.9255 0.95469 0.0
C6060 C 0.19577 0.94058 0.94592 0.0
C6061 C 0.20514 0.95621 0.93594 0.0
C6062 C 0.24129 0.91167 0.96453 0.0
C6063 C 0.17335 0.9392 0.94533 0.0
H6064 H 0.1762 0.86787 0.93602 0.0
H6065 H 0.16413 0.8902 0.99422 0.0
H6066 H 0.19949 0.90637 0.91706 0.0
H6067 H 0.22134 0.89554 0.92747 0.0
H6068 H 0.20262 0.87981 0.91651 0.0
H6069 H 0.18714 0.91343 1.00979 0.0
H6070 H 0.20756 0.92412 0.99593 0.0
H6071 H 0.18287 0.9333 0.99251 0.0
H6072 H 0.25323 0.94173 0.94106 0.0
H6073 H 0.19629 0.96737 0.92848 0.0
H6074 H 0.24209 0.89802 0.95539 0.0
H6075 H 0.23496 0.90742 0.97911 0.0
H6076 H 0.25665 0.91739 0.96677 0.0
H6077 H 0.16877 0.92621 0.93624 0.0
H6078 H 0.1665 0.95273 0.93888 0.0
H6079 H 0.16732 0.93693 0.96043 0.0
C6080 C 0.34345 0.415 0.08421 0.0
C6081 C 0.33244 0.42128 0.10059 0.0
C6082 C 0.34392 0.39491 0.07871 0.0
C6083 C 0.33281 0.38067 0.08965 0.0
C6084 C 0.3205 0.38708 0.10531 0.0
C6085 C 0.32069 0.40723 0.1108 0.0
C6086 C 0.35646 0.3891 0.06116 0.0
C6087 C 0.30757 0.37258 0.11663 0.0
C6088 C 0.33321 0.33198 0.06196 0.0
C6089 C 0.34954 0.32261 0.07067 0.0
C6090 C 0.32583 0.3499 0.0695 0.0
C6091 C 0.33563 0.35908 0.08564 0.0
C6092 C 0.3509 0.34869 0.09566 0.0
C6093 C 0.35742 0.33037 0.08821 0.0
C6094 C 0.30881 0.35982 0.05896 0.0
C6095 C 0.36211 0.35802 0.11267 0.0
H6096 H 0.35202 0.42578 0.07581 0.0
H6097 H 0.31212 0.4118 0.12356 0.0
H6098 H 0.36378 0.37465 0.06361 0.0
H6099 H 0.34679 0.3876 0.04793 0.0
H6100 H 0.36806 0.40045 0.05783 0.0
H6101 H 0.29651 0.38028 0.12604 0.0
H6102 H 0.29958 0.36252 0.10627 0.0
H6103 H 0.31696 0.36318 0.1263 0.0
H6104 H 0.32707 0.32603 0.04844 0.0
H6105 H 0.36998 0.32328 0.095 0.0
H6106 H 0.31478 0.37045 0.04785 0.0
H6107 H 0.29939 0.36823 0.06946 0.0
H6108 H 0.29941 0.34876 0.05103 0.0
H6109 H 0.37264 0.3693 0.10674 0.0
H6110 H 0.37062 0.34683 0.12115 0.0
H6111 H 0.35196 0.36569 0.123 0.0
C6112 C 0.81369 0.13927 0.9512 0.0
C6113 C 0.81812 0.13448 0.93159 0.0
C6114 C 0.82584 0.15247 0.96175 0.0
C6115 C 0.8422 0.1615 0.95201 0.0
C6116 C 0.84763 0.15531 0.93278 0.0
C6117 C 0.83552 0.14164 0.92278 0.0
C6118 C 0.82023 0.1579 0.98268 0.0
C6119 C 0.86505 0.16452 0.92206 0.0
C6120 C 0.84918 0.21457 0.96878 0.0
C6121 C 0.86671 0.21327 0.97968 0.0
C6122 C 0.84196 0.19805 0.95837 0.0
C6123 C 0.85151 0.17946 0.96062 0.0
C6124 C 0.86917 0.17805 0.97182 0.0
C6125 C 0.87691 0.1952 0.98071 0.0
C6126 C 0.82363 0.20032 0.94568 0.0
C6127 C 0.87888 0.15831 0.97603 0.0
H6128 H 0.80017 0.13352 0.95788 0.0
H6129 H 0.83875 0.13781 0.90754 0.0
H6130 H 0.83365 0.1596 0.9921 0.0
H6131 H 0.81232 0.17231 0.98263 0.0
H6132 H 0.81027 0.14653 0.98942 0.0
H6133 H 0.86912 0.15601 0.9086 0.0
H6134 H 0.86125 0.17993 0.91761 0.0
H6135 H 0.87816 0.16545 0.93195 0.0
H6136 H 0.84086 0.2283 0.96884 0.0
H6137 H 0.89001 0.1941 0.98999 0.0
H6138 H 0.81094 0.19237 0.95263 0.0
H6139 H 0.82609 0.19361 0.93089 0.0
H6140 H 0.81947 0.21615 0.94368 0.0
H6141 H 0.87024 0.15042 0.98765 0.0
H6142 H 0.89436 0.16022 0.98146 0.0
H6143 H 0.87901 0.14865 0.96275 0.0
C6144 C 0.07732 0.60665 0.2003 0.0
C6145 C 0.06758 0.59841 0.21651 0.0
C6146 C 0.09323 0.59679 0.19164 0.0
C6147 C 0.09893 0.57792 0.1991 0.0
C6148 C 0.08808 0.5689 0.21467 0.0
C6149 C 0.07261 0.57951 0.22344 0.0
C6150 C 0.10475 0.60726 0.17544 0.0
C6151 C 0.09353 0.54888 0.22312 0.0
C6152 C 0.13272 0.55936 0.16024 0.0
C6153 C 0.15051 0.56801 0.16674 0.0
C6154 C 0.11597 0.55929 0.17249 0.0
C6155 C 0.11706 0.56885 0.19107 0.0
C6156 C 0.13567 0.57508 0.19867 0.0
C6157 C 0.15225 0.57465 0.1863 0.0
C6158 C 0.09662 0.55101 0.16473 0.0
C6159 C 0.13782 0.58463 0.21874 0.0
H6160 H 0.07327 0.62134 0.19517 0.0
H6161 H 0.06508 0.57343 0.23624 0.0
H6162 H 0.12005 0.61056 0.18068 0.0
H6163 H 0.1059 0.59762 0.1622 0.0
H6164 H 0.09775 0.62145 0.17089 0.0
H6165 H 0.08032 0.54129 0.22956 0.0
H6166 H 0.10024 0.53907 0.2118 0.0
H6167 H 0.1045 0.55102 0.23522 0.0
H6168 H 0.13176 0.55324 0.14543 0.0
H6169 H 0.16628 0.58068 0.19154 0.0
H6170 H 0.08753 0.56335 0.15875 0.0
H6171 H 0.08804 0.54376 0.1768 0.0
H6172 H 0.09908 0.54007 0.15269 0.0
H6173 H 0.13723 0.60098 0.2168 0.0
H6174 H 0.15245 0.58101 0.22542 0.0
H6175 H 0.12592 0.58002 0.22912 0.0
C6176 C 0.68756 0.82169 0.45381 0.0
C6177 C 0.68607 0.8185 0.47412 0.0
C6178 C 0.69743 0.83865 0.44673 0.0
C6179 C 0.706 0.85226 0.46044 0.0
C6180 C 0.70628 0.84787 0.48081 0.0
C6181 C 0.69615 0.83104 0.4874 0.0
C6182 C 0.69681 0.84304 0.42479 0.0
C6183 C 0.71506 0.86194 0.49594 0.0
C6184 C 0.73276 0.89103 0.43158 0.0
C6185 C 0.71647 0.90265 0.42629 0.0
C6186 C 0.73043 0.87567 0.44533 0.0
C6187 C 0.71144 0.87228 0.45356 0.0
C6188 C 0.69609 0.88631 0.45087 0.0
C6189 C 0.69878 0.9014 0.43695 0.0
C6190 C 0.74731 0.86143 0.44865 0.0
C6191 C 0.67587 0.88367 0.46022 0.0
H6192 H 0.67949 0.8121 0.44367 0.0
H6193 H 0.69464 0.82871 0.50318 0.0
H6194 H 0.68619 0.85526 0.42194 0.0
H6195 H 0.71161 0.84799 0.41945 0.0
H6196 H 0.69199 0.82988 0.41604 0.0
H6197 H 0.71982 0.8538 0.50944 0.0
H6198 H 0.72794 0.87036 0.48995 0.0
H6199 H 0.70359 0.87281 0.50042 0.0
H6200 H 0.7465 0.89237 0.4233 0.0
H6201 H 0.68638 0.91075 0.43282 0.0
H6202 H 0.74555 0.84858 0.43848 0.0
H6203 H 0.7473 0.85561 0.46403 0.0
H6204 H 0.7619 0.86862 0.4456 0.0
H6205 H 0.6673 0.87231 0.45183 0.0
H6206 H 0.66732 0.89774 0.46003 0.0
H6207 H 0.67718 0.87846 0.47574 0.0
C6208 C 0.96257 0.95004 0.22737 0.0
C6209 C 0.96871 0.93328 0.21679 0.0
C6210 C 0.94718 0.96203 0.22045 0.0
C6211 C 0.93731 0.95663 0.20281 0.0
C6212 C 0.94404 0.94013 0.1916 0.0
C6213 C 0.95978 0.92864 0.19876 0.0
C6214 C 0.94045 0.97929 0.23299 0.0
C6215 C 0.93361 0.93363 0.17285 0.0
C6216 C 0.88345 0.96095 0.19115 0.0
C6217 C 0.88475 0.97257 0.17407 0.0
C6218 C 0.90031 0.9577 0.20275 0.0
C6219 C 0.9186 0.96645 0.19697 0.0
C6220 C 0.91895 0.98104 0.18189 0.0
C6221 C 0.90192 0.98374 0.17028 0.0
C6222 C 0.8991 0.94218 0.21879 0.0
C6223 C 0.93794 0.99156 0.17619 0.0
H6224 H 0.96874 0.95304 0.24181 0.0
H6225 H 0.96411 0.91522 0.19103 0.0
H6226 H 0.93573 0.99201 0.22368 0.0
H6227 H 0.92752 0.97457 0.24206 0.0
H6228 H 0.95237 0.98438 0.24322 0.0
H6229 H 0.94147 0.92132 0.16529 0.0
H6230 H 0.91832 0.9285 0.17641 0.0
H6231 H 0.93236 0.94629 0.1624 0.0
H6232 H 0.87004 0.95237 0.19394 0.0
H6233 H 0.90273 0.99285 0.15704 0.0
H6234 H 0.90991 0.94505 0.23085 0.0
H6235 H 0.90253 0.92754 0.2121 0.0
H6236 H 0.88394 0.9413 0.22522 0.0
H6237 H 0.94686 0.99536 0.1895 0.0
H6238 H 0.93493 1.00536 0.16769 0.0
H6239 H 0.94696 0.98156 0.16679 0.0
C6240 C 0.21493 0.63125 0.6132 0.0
C6241 C 0.19695 0.62132 0.61752 0.0
C6242 C 0.21516 0.64939 0.60273 0.0
C6243 C 0.19702 0.65777 0.59643 0.0
C6244 C 0.17907 0.64717 0.59972 0.0
C6245 C 0.17915 0.62941 0.61066 0.0
C6246 C 0.23476 0.65916 0.59778 0.0
C6247 C 0.15988 0.65415 0.59072 0.0
C6248 C 0.184 0.71156 0.5863 0.0
C6249 C 0.18158 0.71105 0.56575 0.0
C6250 C 0.19154 0.69486 0.59645 0.0
C6251 C 0.19624 0.67728 0.58581 0.0
C6252 C 0.19588 0.67766 0.56489 0.0
C6253 C 0.18889 0.69463 0.55518 0.0
C6254 C 0.19275 0.69536 0.61871 0.0
C6255 C 0.20152 0.65982 0.55254 0.0
H6256 H 0.22884 0.62484 0.61807 0.0
H6257 H 0.16534 0.62145 0.61323 0.0
H6258 H 0.23688 0.6591 0.58149 0.0
H6259 H 0.23479 0.67492 0.60263 0.0
H6260 H 0.24751 0.65141 0.60474 0.0
H6261 H 0.15653 0.66927 0.59622 0.0
H6262 H 0.16141 0.65523 0.5744 0.0
H6263 H 0.14735 0.64385 0.59393 0.0
H6264 H 0.17869 0.72427 0.59453 0.0
H6265 H 0.18774 0.69442 0.53917 0.0
H6266 H 0.20654 0.68806 0.62393 0.0
H6267 H 0.17993 0.68703 0.62499 0.0
H6268 H 0.19243 0.71082 0.62447 0.0
H6269 H 0.21776 0.66033 0.54978 0.0
H6270 H 0.19393 0.65996 0.53792 0.0
H6271 H 0.198 0.64552 0.55996 0.0
C6272 C 0.0783 0.449 0.30963 0.0
C6273 C 0.06984 0.43218 0.31856 0.0
C6274 C 0.09491 0.45836 0.31808 0.0
C6275 C 0.10352 0.45002 0.33529 0.0
C6276 C 0.09364 0.43428 0.34537 0.0
C6277 C 0.07671 0.42565 0.33689 0.0
C6278 C 0.10421 0.47577 0.30734 0.0
C6279 C 0.10241 0.42468 0.36359 0.0
C6280 C 0.1583 0.44074 0.33854 0.0
C6281 C 0.16329 0.4515 0.35546 0.0
C6282 C 0.13922 0.44195 0.33051 0.0
C6283 C 0.12471 0.45373 0.33999 0.0
C6284 C 0.13019 0.46604 0.35601 0.0
C6285 C 0.14946 0.46466 0.36373 0.0
C6286 C 0.13441 0.43008 0.31226 0.0
C6287 C 0.11557 0.48011 0.3653 0.0
H6288 H 0.07283 0.45397 0.29536 0.0
H6289 H 0.07012 0.41247 0.34352 0.0
H6290 H 0.11425 0.48459 0.31703 0.0
H6291 H 0.11284 0.47028 0.29451 0.0
H6292 H 0.09249 0.48568 0.30139 0.0
H6293 H 0.09185 0.41414 0.37075 0.0
H6294 H 0.11593 0.41635 0.35938 0.0
H6295 H 0.10684 0.4361 0.37458 0.0
H6296 H 0.16932 0.43131 0.33167 0.0
H6297 H 0.15356 0.47348 0.37654 0.0
H6298 H 0.13034 0.44023 0.29999 0.0
H6299 H 0.12141 0.42034 0.31522 0.0
H6300 H 0.14715 0.42096 0.30732 0.0
H6301 H 0.10695 0.48793 0.35367 0.0
H6302 H 0.12309 0.49133 0.37482 0.0
H6303 H 0.10485 0.47162 0.37452 0.0
C6304 C 0.44522 0.62728 0.80869 0.0
C6305 C 0.46231 0.61558 0.80767 0.0
C6306 C 0.4282 0.62028 0.81837 0.0
C6307 C 0.42883 0.60159 0.8279 0.0
C6308 C 0.44654 0.59031 0.82787 0.0
C6309 C 0.46289 0.59722 0.81714 0.0
C6310 C 0.40931 0.6322 0.81729 0.0
C6311 C 0.44797 0.57051 0.83836 0.0
C6312 C 0.39507 0.58277 0.86766 0.0
C6313 C 0.38632 0.56675 0.85773 0.0
C6314 C 0.40754 0.59598 0.85753 0.0
C6315 C 0.41091 0.59297 0.83709 0.0
C6316 C 0.39993 0.57834 0.8266 0.0
C6317 C 0.38793 0.56507 0.8372 0.0
C6318 C 0.41906 0.61134 0.86918 0.0
C6319 C 0.40256 0.57522 0.80463 0.0
H6320 H 0.4447 0.64124 0.80068 0.0
H6321 H 0.47592 0.58804 0.81572 0.0
H6322 H 0.39738 0.62319 0.81025 0.0
H6323 H 0.40416 0.63603 0.83238 0.0
H6324 H 0.41125 0.64618 0.8087 0.0
H6325 H 0.46342 0.56483 0.83868 0.0
H6326 H 0.44258 0.57181 0.85382 0.0
H6327 H 0.43845 0.55937 0.83073 0.0
H6328 H 0.39364 0.58385 0.88362 0.0
H6329 H 0.38092 0.55262 0.82969 0.0
H6330 H 0.42052 0.62544 0.86081 0.0
H6331 H 0.43428 0.60573 0.87199 0.0
H6332 H 0.41195 0.61448 0.88367 0.0
H6333 H 0.40414 0.58963 0.79676 0.0
H6334 H 0.38985 0.56683 0.79815 0.0
H6335 H 0.41627 0.56656 0.802 0.0
C6336 C 0.92806 0.72637 0.64846 0.0
C6337 C 0.92106 0.71008 0.63745 0.0
C6338 C 0.94167 0.72365 0.66393 0.0
C6339 C 0.9484 0.70426 0.66817 0.0
C6340 C 0.94288 0.68816 0.65573 0.0
C6341 C 0.92898 0.69124 0.6407 0.0
C6342 C 0.94747 0.7412 0.67663 0.0
C6343 C 0.95057 0.66737 0.65911 0.0
C6344 C 0.98702 0.68722 0.70417 0.0
C6345 C 0.97482 0.6759 0.71679 0.0
C6346 C 0.97876 0.6986 0.68893 0.0
C6347 C 0.95787 0.69967 0.68737 0.0
C6348 C 0.94576 0.69129 0.7024 0.0
C6349 C 0.95435 0.6786 0.71635 0.0
C6350 C 0.99236 0.7066 0.673 0.0
C6351 C 0.92344 0.69302 0.70183 0.0
H6352 H 0.92214 0.74105 0.6456 0.0
H6353 H 0.924 0.67883 0.63168 0.0
H6354 H 0.93794 0.74137 0.69001 0.0
H6355 H 0.96312 0.7402 0.68166 0.0
H6356 H 0.94546 0.75547 0.66859 0.0
H6357 H 0.94772 0.65755 0.64619 0.0
H6358 H 0.96677 0.66768 0.66212 0.0
H6359 H 0.9431 0.66074 0.6722 0.0
H6360 H 1.00295 0.68489 0.7044 0.0
H6361 H 0.94486 0.66914 0.72511 0.0
H6362 H 0.98596 0.7196 0.66525 0.0
H6363 H 0.99487 0.69476 0.66186 0.0
H6364 H 1.00706 0.71084 0.67927 0.0
H6365 H 0.91695 0.69102 0.71679 0.0
H6366 H 0.91721 0.6813 0.69203 0.0
H6367 H 0.91882 0.70771 0.69599 0.0
C6368 C 0.09792 0.21362 0.46691 0.0
C6369 C 0.11084 0.22877 0.46095 0.0
C6370 C 0.08561 0.20421 0.45294 0.0
C6371 C 0.08582 0.21104 0.43313 0.0
C6372 C 0.09484 0.22946 0.42861 0.0
C6373 C 0.10751 0.23806 0.44257 0.0
C6374 C 0.07472 0.18544 0.45865 0.0
C6375 C 0.09371 0.2384 0.40814 0.0
C6376 C 0.09648 0.17213 0.39444 0.0
C6377 C 0.07781 0.16914 0.38584 0.0
C6378 C 0.09908 0.1856 0.40998 0.0
C6379 C 0.0826 0.19667 0.41686 0.0
C6380 C 0.06376 0.19411 0.40796 0.0
C6381 C 0.06152 0.18007 0.39278 0.0
C6382 C 0.11963 0.18818 0.41875 0.0
C6383 C 0.0459 0.20593 0.41433 0.0
H6384 H 0.09865 0.20796 0.48174 0.0
H6385 H 0.1162 0.25098 0.4383 0.0
H6386 H 0.06003 0.18466 0.45124 0.0
H6387 H 0.08346 0.17241 0.45375 0.0
H6388 H 0.07254 0.1844 0.47492 0.0
H6389 H 0.09678 0.25466 0.40848 0.0
H6390 H 0.105 0.23134 0.39853 0.0
H6391 H 0.07889 0.23577 0.40141 0.0
H6392 H 0.10922 0.16418 0.3888 0.0
H6393 H 0.04693 0.1777 0.38636 0.0
H6394 H 0.11913 0.18639 0.43507 0.0
H6395 H 0.12529 0.20338 0.41555 0.0
H6396 H 0.1304 0.17734 0.4127 0.0
H6397 H 0.03772 0.19747 0.42587 0.0
H6398 H 0.03556 0.20826 0.40171 0.0
H6399 H 0.05007 0.22064 0.42054 0.0
C6400 C 0.57657 0.33598 0.21057 0.0
C6401 C 0.55648 0.33983 0.21304 0.0
C6402 C 0.58282 0.3247 0.19444 0.0
C6403 C 0.5684 0.31726 0.1809 0.0
C6404 C 0.54801 0.31854 0.18527 0.0
C6405 C 0.54224 0.32994 0.20144 0.0
C6406 C 0.60484 0.32334 0.1904 0.0
C6407 C 0.53223 0.31035 0.17158 0.0
C6408 C 0.59255 0.32901 0.13361 0.0
C6409 C 0.60357 0.3117 0.13148 0.0
C6410 C 0.57785 0.33002 0.14802 0.0
C6411 C 0.57476 0.31334 0.16052 0.0
C6412 C 0.58331 0.29483 0.15588 0.0
C6413 C 0.59791 0.29421 0.14122 0.0
C6414 C 0.56841 0.34992 0.15205 0.0
C6415 C 0.57952 0.27663 0.16841 0.0
H6416 H 0.58742 0.34347 0.21988 0.0
H6417 H 0.52655 0.33251 0.20396 0.0
H6418 H 0.60886 0.30816 0.18556 0.0
H6419 H 0.6089 0.33382 0.17834 0.0
H6420 H 0.61384 0.3272 0.20367 0.0
H6421 H 0.5186 0.30627 0.17995 0.0
H6422 H 0.52813 0.32194 0.16063 0.0
H6423 H 0.5375 0.29715 0.16334 0.0
H6424 H 0.59693 0.34231 0.12557 0.0
H6425 H 0.60641 0.28074 0.13909 0.0
H6426 H 0.57615 0.35721 0.16465 0.0
H6427 H 0.55255 0.34814 0.15609 0.0
H6428 H 0.56947 0.35998 0.13902 0.0
H6429 H 0.58926 0.27714 0.18166 0.0
H6430 H 0.58288 0.26282 0.16012 0.0
H6431 H 0.5639 0.27605 0.1736 0.0
C6432 C 0.43614 0.80482 0.96274 0.0
C6433 C 0.41674 0.81196 0.96456 0.0
C6434 C 0.44926 0.81297 0.94872 0.0
C6435 C 0.44283 0.82903 0.93682 0.0
C6436 C 0.42355 0.8369 0.93943 0.0
C6437 C 0.41059 0.82783 0.95281 0.0
C6438 C 0.46949 0.80377 0.94612 0.0
C6439 C 0.41606 0.85413 0.92719 0.0
C6440 C 0.47013 0.86762 0.90801 0.0
C6441 C 0.46411 0.86249 0.88884 0.0
C6442 C 0.46611 0.85491 0.92399 0.0
C6443 C 0.45521 0.83721 0.92061 0.0
C6444 C 0.45144 0.83082 0.90098 0.0
C6445 C 0.45598 0.84362 0.88523 0.0
C6446 C 0.47137 0.86151 0.94468 0.0
C6447 C 0.44049 0.81164 0.89671 0.0
H6448 H 0.44052 0.79178 0.9709 0.0
H6449 H 0.39525 0.83264 0.95353 0.0
H6450 H 0.47364 0.80286 0.93026 0.0
H6451 H 0.48077 0.81315 0.95369 0.0
H6452 H 0.47015 0.78861 0.95266 0.0
H6453 H 0.40157 0.85968 0.93261 0.0
H6454 H 0.42684 0.86666 0.9275 0.0
H6455 H 0.41424 0.84941 0.91155 0.0
H6456 H 0.47711 0.88196 0.91062 0.0
H6457 H 0.45178 0.8395 0.87028 0.0
H6458 H 0.47662 0.84876 0.95364 0.0
H6459 H 0.45793 0.86751 0.95199 0.0
H6460 H 0.48304 0.87326 0.94461 0.0
H6461 H 0.44533 0.79965 0.90689 0.0
H6462 H 0.44277 0.8067 0.88119 0.0
H6463 H 0.42434 0.8139 0.899 0.0
C6464 C 0.91213 0.35349 0.88918 0.0
C6465 C 0.91496 0.33588 0.89998 0.0
C6466 C 0.9247 0.35868 0.87354 0.0
C6467 C 0.94123 0.3466 0.86929 0.0
C6468 C 0.94471 0.32919 0.88046 0.0
C6469 C 0.93117 0.3237 0.89524 0.0
C6470 C 0.92019 0.377 0.86141 0.0
C6471 C 0.96301 0.31671 0.87727 0.0
C6472 C 0.96607 0.352 0.81925 0.0
C6473 C 0.9796 0.36731 0.82319 0.0
C6474 C 0.95325 0.34508 0.83415 0.0
C6475 C 0.95518 0.3528 0.85358 0.0
C6476 C 0.96982 0.36733 0.85782 0.0
C6477 C 0.98143 0.37484 0.84241 0.0
C6478 C 0.93761 0.32969 0.82915 0.0
C6479 C 0.9734 0.37483 0.87861 0.0
H6480 H 0.90014 0.36342 0.89294 0.0
H6481 H 0.93344 0.30983 0.90302 0.0
H6482 H 0.93309 0.38729 0.86137 0.0
H6483 H 0.91742 0.37262 0.84581 0.0
H6484 H 0.90704 0.38513 0.86699 0.0
H6485 H 0.96302 0.30311 0.88661 0.0
H6486 H 0.96432 0.31223 0.86154 0.0
H6487 H 0.97644 0.32566 0.8809 0.0
H6488 H 0.96585 0.34518 0.80476 0.0
H6489 H 0.99265 0.38605 0.84556 0.0
H6490 H 0.9227 0.33646 0.8305 0.0
H6491 H 0.93809 0.31706 0.83969 0.0
H6492 H 0.93938 0.32377 0.81393 0.0
H6493 H 0.96112 0.38474 0.88309 0.0
H6494 H 0.98758 0.38329 0.87985 0.0
H6495 H 0.97376 0.36226 0.88927 0.0
C6496 C 0.44767 0.18835 0.64571 0.0
C6497 C 0.46233 0.17388 0.64436 0.0
C6498 C 0.44492 0.20191 0.63027 0.0
C6499 C 0.45686 0.2004 0.61307 0.0
C6500 C 0.47331 0.18749 0.61287 0.0
C6501 C 0.47582 0.17416 0.62862 0.0
C6502 C 0.42795 0.21641 0.63149 0.0
C6503 C 0.48701 0.18644 0.59526 0.0
C6504 C 0.42168 0.20553 0.57062 0.0
C6505 C 0.4248 0.22526 0.56518 0.0
C6506 C 0.43397 0.19647 0.58456 0.0
C6507 C 0.44881 0.20799 0.5942 0.0
C6508 C 0.45287 0.22762 0.58781 0.0
C6509 C 0.44078 0.236 0.57319 0.0
C6510 C 0.4295 0.17528 0.59063 0.0
C6511 C 0.4682 0.24069 0.59776 0.0
H6512 H 0.43779 0.18843 0.65838 0.0
H6513 H 0.48765 0.16331 0.62815 0.0
H6514 H 0.43245 0.23114 0.62552 0.0
H6515 H 0.41533 0.21082 0.62243 0.0
H6516 H 0.4227 0.21833 0.64695 0.0
H6517 H 0.50127 0.17919 0.59911 0.0
H6518 H 0.4797 0.1777 0.58335 0.0
H6519 H 0.49017 0.20152 0.5893 0.0
H6520 H 0.40857 0.19773 0.56534 0.0
H6521 H 0.44252 0.25164 0.56963 0.0
H6522 H 0.42244 0.17513 0.60547 0.0
H6523 H 0.44342 0.1666 0.5916 0.0
H6524 H 0.41929 0.16774 0.58008 0.0
H6525 H 0.46074 0.25004 0.60902 0.0
H6526 H 0.47524 0.25087 0.58682 0.0
H6527 H 0.47994 0.23199 0.60526 0.0
C6528 C 0.61782 0.70019 0.38572 0.0
C6529 C 0.60695 0.71509 0.39505 0.0
C6530 C 0.6087 0.6876 0.37195 0.0
C6531 C 0.58822 0.68988 0.36797 0.0
C6532 C 0.57674 0.70323 0.37937 0.0
C6533 C 0.58639 0.71607 0.3926 0.0
C6534 C 0.62135 0.67344 0.36021 0.0
C6535 C 0.55464 0.7053 0.37623 0.0
C6536 C 0.56756 0.68511 0.31621 0.0
C6537 C 0.55829 0.66656 0.31721 0.0
C6538 C 0.57861 0.69228 0.3323 0.0
C6539 C 0.57951 0.68091 0.34998 0.0
C6540 C 0.57065 0.66187 0.35081 0.0
C6541 C 0.55998 0.65501 0.3344 0.0
C6542 C 0.58833 0.71251 0.33077 0.0
C6543 C 0.57116 0.64946 0.36943 0.0
H6544 H 0.63379 0.69969 0.38776 0.0
H6545 H 0.57815 0.72773 0.39993 0.0
H6546 H 0.61487 0.65829 0.36064 0.0
H6547 H 0.62176 0.6782 0.34447 0.0
H6548 H 0.63681 0.67275 0.36589 0.0
H6549 H 0.5475 0.71353 0.38855 0.0
H6550 H 0.55187 0.71355 0.36227 0.0
H6551 H 0.54743 0.69048 0.37485 0.0
H6552 H 0.56526 0.69444 0.30332 0.0
H6553 H 0.55206 0.64099 0.33536 0.0
H6554 H 0.60389 0.71189 0.33616 0.0
H6555 H 0.58027 0.72323 0.34024 0.0
H6556 H 0.58835 0.71825 0.31534 0.0
H6557 H 0.58635 0.64877 0.37565 0.0
H6558 H 0.56584 0.63403 0.3668 0.0
H6559 H 0.56173 0.65654 0.38084 0.0
C6560 C 0.08381 0.8111 0.07595 0.0
C6561 C 0.10068 0.81865 0.06646 0.0
C6562 C 0.07582 0.82059 0.0925 0.0
C6563 C 0.08521 0.83802 0.09962 0.0
C6564 C 0.10153 0.84641 0.08921 0.0
C6565 C 0.10899 0.83662 0.07259 0.0
C6566 C 0.05802 0.81138 0.1027 0.0
C6567 C 0.11226 0.86473 0.09666 0.0
C6568 C 0.06695 0.8748 0.13703 0.0
C6569 C 0.07848 0.8695 0.15341 0.0
C6570 C 0.06723 0.86323 0.11981 0.0
C6571 C 0.07981 0.84654 0.11899 0.0
C6572 C 0.09012 0.84022 0.13614 0.0
C6573 C 0.08924 0.85181 0.15328 0.0
C6574 C 0.05495 0.86937 0.10218 0.0
C6575 C 0.103 0.82191 0.136 0.0
H6576 H 0.07765 0.7971 0.07118 0.0
H6577 H 0.1223 0.84214 0.06549 0.0
H6578 H 0.05911 0.81259 0.11904 0.0
H6579 H 0.04446 0.81935 0.09795 0.0
H6580 H 0.05613 0.79544 0.09873 0.0
H6581 H 0.1237 0.87012 0.08607 0.0
H6582 H 0.10158 0.8769 0.09939 0.0
H6583 H 0.11967 0.8613 0.11095 0.0
H6584 H 0.05797 0.8881 0.13763 0.0
H6585 H 0.09753 0.84749 0.16635 0.0
H6586 H 0.04711 0.85627 0.09584 0.0
H6587 H 0.06484 0.87549 0.0905 0.0
H6588 H 0.04382 0.88082 0.1061 0.0
H6589 H 0.09468 0.80907 0.12975 0.0
H6590 H 0.10827 0.8179 0.15107 0.0
H6591 H 0.11614 0.82458 0.12642 0.0
C6592 C 0.7056 0.98246 0.68553 0.0
C6593 C 0.71351 0.97335 0.66866 0.0
C6594 C 0.68984 0.97357 0.69605 0.0
C6595 C 0.6819 0.9552 0.68941 0.0
C6596 C 0.69182 0.94476 0.67417 0.0
C6597 C 0.7071 0.95423 0.66356 0.0
C6598 C 0.68027 0.98504 0.71261 0.0
C6599 C 0.68464 0.92467 0.66727 0.0
C6600 C 0.63743 0.92676 0.71018 0.0
C6601 C 0.62249 0.93246 0.69679 0.0
C6602 C 0.65666 0.93513 0.70911 0.0
C6603 C 0.66102 0.94938 0.69424 0.0
C6604 C 0.64554 0.95623 0.68177 0.0
C6605 C 0.62656 0.94765 0.68317 0.0
C6606 C 0.67255 0.92782 0.72306 0.0
C6607 C 0.64925 0.97186 0.66607 0.0
H6608 H 0.71019 0.99748 0.68922 0.0
H6609 H 0.71277 0.94736 0.65022 0.0
H6610 H 0.66778 0.99385 0.70656 0.0
H6611 H 0.6742 0.97492 0.72413 0.0
H6612 H 0.691 0.99551 0.71961 0.0
H6613 H 0.69695 0.91625 0.66044 0.0
H6614 H 0.6785 0.91569 0.67961 0.0
H6615 H 0.67274 0.9267 0.65608 0.0
H6616 H 0.63438 0.91509 0.72086 0.0
H6617 H 0.61495 0.95249 0.67316 0.0
H6618 H 0.68225 0.94025 0.72803 0.0
H6619 H 0.68207 0.91696 0.71526 0.0
H6620 H 0.66606 0.92037 0.73627 0.0
H6621 H 0.65665 0.98508 0.67263 0.0
H6622 H 0.63532 0.97675 0.65878 0.0
H6623 H 0.65929 0.96583 0.65455 0.0
C6624 C 0.86899 0.88586 0.43561 0.0
C6625 C 0.85734 0.87007 0.4427 0.0
C6626 C 0.86142 0.90523 0.4349 0.0
C6627 C 0.84161 0.90866 0.44091 0.0
C6628 C 0.83048 0.89306 0.44976 0.0
C6629 C 0.83854 0.87393 0.45059 0.0
C6630 C 0.87398 0.92163 0.42608 0.0
C6631 C 0.80927 0.89597 0.45632 0.0
C6632 C 0.81624 0.95896 0.43621 0.0
C6633 C 0.8076 0.95692 0.41747 0.0
C6634 C 0.82823 0.94375 0.44399 0.0
C6635 C 0.83094 0.92611 0.43284 0.0
C6636 C 0.82216 0.92426 0.41388 0.0
C6637 C 0.81057 0.93968 0.40653 0.0
C6638 C 0.83717 0.94619 0.46433 0.0
C6639 C 0.82401 0.90548 0.40177 0.0
H6640 H 0.88385 0.88297 0.43022 0.0
H6641 H 0.82969 0.86175 0.45646 0.0
H6642 H 0.8693 0.92421 0.41053 0.0
H6643 H 0.87193 0.93572 0.43433 0.0
H6644 H 0.89 0.91782 0.42613 0.0
H6645 H 0.80428 0.88399 0.46656 0.0
H6646 H 0.80742 0.91052 0.46374 0.0
H6647 H 0.7994 0.89576 0.44315 0.0
H6648 H 0.81316 0.9721 0.44495 0.0
H6649 H 0.80263 0.93774 0.39273 0.0
H6650 H 0.85306 0.94194 0.46423 0.0
H6651 H 0.82943 0.93618 0.47491 0.0
H6652 H 0.83592 0.9617 0.46981 0.0
H6653 H 0.83988 0.90241 0.39873 0.0
H6654 H 0.81592 0.90638 0.38748 0.0
H6655 H 0.81794 0.89261 0.41013 0.0
C6656 C 0.8196 0.06291 0.18397 0.0
C6657 C 0.82185 0.05207 0.16658 0.0
C6658 C 0.8355 0.07406 0.19156 0.0
C6659 C 0.85394 0.07409 0.1814 0.0
C6660 C 0.85603 0.06363 0.16348 0.0
C6661 C 0.83995 0.05256 0.15643 0.0
C6662 C 0.83294 0.08495 0.21095 0.0
C6663 C 0.87555 0.06288 0.15252 0.0
C6664 C 0.88588 0.11555 0.2003 0.0
C6665 C 0.89474 0.10602 0.2164 0.0
C6666 C 0.87402 0.10474 0.18711 0.0
C6667 C 0.87116 0.08417 0.19042 0.0
C6668 C 0.88221 0.07418 0.2052 0.0
C6669 C 0.89379 0.08539 0.21828 0.0
C6670 C 0.86284 0.11568 0.17111 0.0
C6671 C 0.88001 0.05211 0.20876 0.0
H6672 H 0.80588 0.0618 0.19218 0.0
H6673 H 0.84191 0.04322 0.1435 0.0
H6674 H 0.84406 0.0798 0.22191 0.0
H6675 H 0.83545 0.10111 0.20864 0.0
H6676 H 0.81794 0.08265 0.21739 0.0
H6677 H 0.87379 0.05662 0.13739 0.0
H6678 H 0.88231 0.07792 0.15133 0.0
H6679 H 0.88609 0.05339 0.16082 0.0
H6680 H 0.88689 0.1316 0.19901 0.0
H6681 H 0.90092 0.07824 0.2308 0.0
H6682 H 0.84726 0.11785 0.17595 0.0
H6683 H 0.86245 0.10696 0.15718 0.0
H6684 H 0.86954 0.1305 0.16802 0.0
H6685 H 0.86613 0.04924 0.21716 0.0
H6686 H 0.89265 0.04616 0.21749 0.0
H6687 H 0.87898 0.04386 0.19459 0.0
C6688 C 0.69921 0.15099 0.94787 0.0
C6689 C 0.68052 0.15261 0.9566 0.0
C6690 C 0.70837 0.1325 0.94617 0.0
C6691 C 0.6982 0.11525 0.95291 0.0
C6692 C 0.68042 0.11717 0.96386 0.0
C6693 C 0.6717 0.13599 0.9656 0.0
C6694 C 0.72777 0.13124 0.93504 0.0
C6695 C 0.66952 0.09918 0.97176 0.0
C6696 C 0.7056 0.07846 0.91232 0.0
C6697 C 0.72194 0.06794 0.91936 0.0
C6698 C 0.69589 0.09219 0.9244 0.0
C6699 C 0.70328 0.09597 0.94367 0.0
C6700 C 0.71847 0.08391 0.95156 0.0
C6701 C 0.7277 0.07002 0.9392 0.0
C6702 C 0.67952 0.10459 0.91556 0.0
C6703 C 0.72673 0.08724 0.97207 0.0
H6704 H 0.70615 0.16407 0.94139 0.0
H6705 H 0.65734 0.13746 0.97268 0.0
H6706 H 0.738 0.1207 0.94239 0.0
H6707 H 0.7249 0.12568 0.91982 0.0
H6708 H 0.73528 0.14595 0.93388 0.0
H6709 H 0.65881 0.10327 0.98354 0.0
H6710 H 0.66115 0.09198 0.95952 0.0
H6711 H 0.68008 0.08809 0.97774 0.0
H6712 H 0.70148 0.07726 0.89684 0.0
H6713 H 0.74084 0.06264 0.94448 0.0
H6714 H 0.68559 0.11931 0.91111 0.0
H6715 H 0.66743 0.10705 0.92638 0.0
H6716 H 0.67304 0.09743 0.90236 0.0
H6717 H 0.73924 0.09803 0.97123 0.0
H6718 H 0.7326 0.07317 0.97836 0.0
H6719 H 0.71541 0.09332 0.98227 0.0
C6720 C 0.62812 0.10003 0.85181 0.0
C6721 C 0.61945 0.10947 0.83558 0.0
C6722 C 0.64698 0.09172 0.85046 0.0
C6723 C 0.65745 0.09241 0.8323 0.0
C6724 C 0.64839 0.10081 0.81541 0.0
C6725 C 0.62959 0.10957 0.8173 0.0
C6726 C 0.65539 0.08159 0.86847 0.0
C6727 C 0.65828 0.10011 0.79537 0.0
C6728 C 0.71054 0.08679 0.84698 0.0
C6729 C 0.71069 0.06621 0.8497 0.0
C6730 C 0.69402 0.0959 0.83805 0.0
C6731 C 0.67773 0.08398 0.83168 0.0
C6732 C 0.67956 0.06311 0.83142 0.0
C6733 C 0.69573 0.05452 0.84094 0.0
C6734 C 0.69278 0.11825 0.83812 0.0
C6735 C 0.66317 0.04963 0.82393 0.0
H6736 H 0.62011 0.09904 0.86569 0.0
H6737 H 0.62306 0.11674 0.80452 0.0
H6738 H 0.65516 0.06533 0.86594 0.0
H6739 H 0.67106 0.08609 0.87089 0.0
H6740 H 0.64669 0.08477 0.88204 0.0
H6741 H 0.65016 0.10896 0.78411 0.0
H6742 H 0.67381 0.10561 0.79631 0.0
H6743 H 0.65886 0.08447 0.7902 0.0
H6744 H 0.72221 0.09584 0.85352 0.0
H6745 H 0.69585 0.0385 0.84275 0.0
H6746 H 0.6839 0.12303 0.85108 0.0
H6747 H 0.68528 0.12376 0.82458 0.0
H6748 H 0.70774 0.12526 0.83919 0.0
H6749 H 0.65343 0.04524 0.83646 0.0
H6750 H 0.66944 0.03579 0.8176 0.0
H6751 H 0.65392 0.05699 0.81253 0.0
C6752 C 0.69825 0.96095 0.59472 0.0
C6753 C 0.71872 0.9606 0.59801 0.0
C6754 C 0.6888 0.9446 0.58572 0.0
C6755 C 0.70017 0.92774 0.58051 0.0
C6756 C 0.7211 0.92893 0.58083 0.0
C6757 C 0.73011 0.94544 0.58958 0.0
C6758 C 0.66649 0.94428 0.5841 0.0
C6759 C 0.73393 0.91155 0.57505 0.0
C6760 C 0.67964 0.87949 0.60068 0.0
C6761 C 0.67195 0.8703 0.58375 0.0
C6762 C 0.68869 0.89819 0.59961 0.0
C6763 C 0.69071 0.90782 0.58105 0.0
C6764 C 0.68391 0.89832 0.56368 0.0
C6765 C 0.67415 0.87988 0.56528 0.0
C6766 C 0.69566 0.90781 0.61858 0.0
C6767 C 0.68635 0.90767 0.54348 0.0
H6768 H 0.68949 0.97299 0.60072 0.0
H6769 H 0.74608 0.94554 0.59142 0.0
H6770 H 0.66175 0.93691 0.57016 0.0
H6771 H 0.6602 0.93564 0.59665 0.0
H6772 H 0.66027 0.95953 0.58453 0.0
H6773 H 0.74933 0.91641 0.5715 0.0
H6774 H 0.73466 0.90094 0.58765 0.0
H6775 H 0.72764 0.90352 0.56213 0.0
H6776 H 0.67855 0.87211 0.6149 0.0
H6777 H 0.66795 0.87326 0.55202 0.0
H6778 H 0.68596 0.92061 0.622 0.0
H6779 H 0.71099 0.91363 0.61702 0.0
H6780 H 0.6953 0.89728 0.63124 0.0
H6781 H 0.67372 0.91778 0.54067 0.0
H6782 H 0.6864 0.89621 0.53163 0.0
H6783 H 0.70026 0.91655 0.5424 0.0
C6784 C 0.82691 0.9419 0.35361 0.0
C6785 C 0.82225 0.96165 0.34927 0.0
C6786 C 0.84508 0.93377 0.34736 0.0
C6787 C 0.85818 0.94536 0.33551 0.0
C6788 C 0.85186 0.96403 0.32844 0.0
C6789 C 0.8345 0.9723 0.33613 0.0
C6790 C 0.85122 0.91391 0.35565 0.0
C6791 C 0.86442 0.97628 0.31445 0.0
C6792 C 0.91317 0.94344 0.34783 0.0
C6793 C 0.92033 0.92948 0.33423 0.0
C6794 C 0.89303 0.94858 0.34833 0.0
C6795 C 0.87967 0.94024 0.33434 0.0
C6796 C 0.88691 0.92713 0.31972 0.0
C6797 C 0.90701 0.92155 0.32012 0.0
C6798 C 0.88603 0.96272 0.36415 0.0
C6799 C 0.87339 0.91872 0.30392 0.0
H6800 H 0.81751 0.93351 0.36353 0.0
H6801 H 0.83134 0.98776 0.33296 0.0
H6802 H 0.8613 0.90586 0.34555 0.0
H6803 H 0.85925 0.9164 0.36981 0.0
H6804 H 0.83809 0.90432 0.35866 0.0
H6805 H 0.85524 0.98718 0.30618 0.0
H6806 H 0.87578 0.98468 0.32299 0.0
H6807 H 0.87224 0.96668 0.30368 0.0
H6808 H 0.92326 0.95022 0.35838 0.0
H6809 H 0.91207 0.91054 0.30962 0.0
H6810 H 0.87261 0.95659 0.3715 0.0
H6811 H 0.88192 0.97712 0.35734 0.0
H6812 H 0.89756 0.96559 0.37558 0.0
H6813 H 0.86315 0.9076 0.31058 0.0
H6814 H 0.88185 0.91137 0.2919 0.0
H6815 H 0.86415 0.93064 0.29736 0.0
C6816 C 0.84093 0.14966 0.07314 0.0
C6817 C 0.8581 0.14852 0.06164 0.0
C6818 C 0.82927 0.13267 0.0762 0.0
C6819 C 0.83554 0.11447 0.06791 0.0
C6820 C 0.85061 0.1143 0.05339 0.0
C6821 C 0.86192 0.13154 0.05043 0.0
C6822 C 0.8122 0.13358 0.0906 0.0
C6823 C 0.85675 0.09531 0.04336 0.0
C6824 C 0.83497 0.07472 0.10726 0.0
C6825 C 0.81861 0.0633 0.10156 0.0
C6826 C 0.84139 0.09071 0.0956 0.0
C6827 C 0.83052 0.09582 0.07831 0.0
C6828 C 0.81448 0.08382 0.07207 0.0
C6829 C 0.80902 0.06747 0.08368 0.0
C6830 C 0.85899 0.10289 0.10258 0.0
C6831 C 0.80186 0.08888 0.05428 0.0
H6832 H 0.83799 0.16305 0.08155 0.0
H6833 H 0.87517 0.13098 0.04133 0.0
H6834 H 0.79988 0.12365 0.08581 0.0
H6835 H 0.8173 0.12849 0.10538 0.0
H6836 H 0.80651 0.14897 0.09213 0.0
H6837 H 0.86602 0.09828 0.03007 0.0
H6838 H 0.86549 0.0862 0.0539 0.0
H6839 H 0.84352 0.08646 0.03889 0.0
H6840 H 0.84205 0.07193 0.12132 0.0
H6841 H 0.79626 0.05889 0.07949 0.0
H6842 H 0.85387 0.11763 0.10778 0.0
H6843 H 0.86956 0.10543 0.09022 0.0
H6844 H 0.86704 0.09558 0.11495 0.0
H6845 H 0.78782 0.09569 0.05944 0.0
H6846 H 0.79785 0.07514 0.04606 0.0
H6847 H 0.80921 0.09939 0.04391 0.0
C6848 C 0.6778 0.70299 0.94693 0.0
C6849 C 0.68294 0.70919 0.966 0.0
C6850 C 0.6858 0.68545 0.93901 0.0
C6851 C 0.69992 0.67447 0.95015 0.0
C6852 C 0.7072 0.68245 0.96814 0.0
C6853 C 0.69793 0.69914 0.9763 0.0
C6854 C 0.67723 0.67744 0.91996 0.0
C6855 C 0.72345 0.6724 0.97973 0.0
C6856 C 0.6907 0.61883 0.95001 0.0
C6857 C 0.70228 0.6125 0.93409 0.0
C6858 C 0.69056 0.63877 0.95584 0.0
C6859 C 0.70269 0.65289 0.94587 0.0
C6860 C 0.71602 0.64628 0.93114 0.0
C6861 C 0.71536 0.62624 0.92509 0.0
C6862 C 0.67699 0.64463 0.97251 0.0
C6863 C 0.73073 0.66028 0.92151 0.0
H6864 H 0.66601 0.71063 0.93913 0.0
H6865 H 0.70175 0.70369 0.99122 0.0
H6866 H 0.68922 0.67254 0.90991 0.0
H6867 H 0.66774 0.66429 0.92326 0.0
H6868 H 0.66807 0.68865 0.91211 0.0
H6869 H 0.73215 0.68346 0.98843 0.0
H6870 H 0.71683 0.66169 0.99036 0.0
H6871 H 0.7337 0.66421 0.96985 0.0
H6872 H 0.68127 0.60821 0.95767 0.0
H6873 H 0.72465 0.6216 0.91288 0.0
H6874 H 0.66978 0.65898 0.96919 0.0
H6875 H 0.68574 0.64644 0.98629 0.0
H6876 H 0.66538 0.63317 0.97532 0.0
H6877 H 0.72359 0.66789 0.90883 0.0
H6878 H 0.7438 0.65211 0.91576 0.0
H6879 H 0.73598 0.67181 0.93208 0.0
C6880 C 0.22508 0.88848 0.08655 0.0
C6881 C 0.21962 0.89297 0.10594 0.0
C6882 C 0.2133 0.87572 0.07512 0.0
C6883 C 0.1961 0.86708 0.0837 0.0
C6884 C 0.19003 0.8725 0.10297 0.0
C6885 C 0.20194 0.88554 0.11392 0.0
C6886 C 0.21979 0.87073 0.05433 0.0
C6887 C 0.17175 0.86356 0.1125 0.0
C6888 C 0.16024 0.83983 0.05047 0.0
C6889 C 0.16713 0.82033 0.05214 0.0
C6890 C 0.16932 0.85529 0.06091 0.0
C6891 C 0.18562 0.85094 0.07329 0.0
C6892 C 0.19249 0.83117 0.07522 0.0
C6893 C 0.18331 0.81608 0.06423 0.0
C6894 C 0.16212 0.8763 0.05792 0.0
C6895 C 0.20989 0.82613 0.08839 0.0
H6896 H 0.2388 0.89454 0.08058 0.0
H6897 H 0.19793 0.88927 0.129 0.0
H6898 H 0.22532 0.85524 0.05389 0.0
H6899 H 0.20707 0.87166 0.04392 0.0
H6900 H 0.23182 0.88079 0.04903 0.0
H6901 H 0.16728 0.87183 0.12599 0.0
H6902 H 0.15908 0.8633 0.10201 0.0
H6903 H 0.17487 0.84795 0.11673 0.0
H6904 H 0.14824 0.84308 0.04025 0.0
H6905 H 0.18921 0.80119 0.06451 0.0
H6906 H 0.17401 0.88538 0.05091 0.0
H6907 H 0.15867 0.88326 0.07238 0.0
H6908 H 0.14867 0.87693 0.0484 0.0
H6909 H 0.22331 0.83447 0.08358 0.0
H6910 H 0.21335 0.81001 0.08821 0.0
H6911 H 0.20665 0.83065 0.10384 0.0
C6912 C 0.88384 0.45052 0.84965 0.0
C6913 C 0.88404 0.46153 0.86717 0.0
C6914 C 0.90061 0.45017 0.8375 0.0
C6915 C 0.91767 0.4612 0.84315 0.0
C6916 C 0.91675 0.47457 0.85921 0.0
C6917 C 0.89997 0.47428 0.8714 0.0
C6918 C 0.90069 0.43674 0.81963 0.0
C6919 C 0.93404 0.48798 0.86428 0.0
C6920 C 0.96379 0.4305 0.83798 0.0
C6921 C 0.97001 0.43597 0.81911 0.0
C6922 C 0.94718 0.43949 0.84641 0.0
C6923 C 0.93724 0.45478 0.83588 0.0
C6924 C 0.94476 0.46163 0.81758 0.0
C6925 C 0.96074 0.45164 0.8091 0.0
C6926 C 0.93923 0.43135 0.86572 0.0
C6927 C 0.93535 0.47839 0.80612 0.0
H6928 H 0.87092 0.44152 0.84599 0.0
H6929 H 0.89944 0.48369 0.88441 0.0
H6930 H 0.90543 0.44518 0.80632 0.0
H6931 H 0.91156 0.42467 0.82198 0.0
H6932 H 0.88587 0.42999 0.81668 0.0
H6933 H 0.92943 0.50051 0.8739 0.0
H6934 H 0.94552 0.4793 0.87223 0.0
H6935 H 0.94094 0.49408 0.85061 0.0
H6936 H 0.9707 0.41797 0.8453 0.0
H6937 H 0.96527 0.45537 0.79414 0.0
H6938 H 0.92431 0.42466 0.86326 0.0
H6939 H 0.93755 0.44347 0.87667 0.0
H6940 H 0.94905 0.41985 0.8722 0.0
H6941 H 0.92592 0.47212 0.79414 0.0
H6942 H 0.947 0.48767 0.7989 0.0
H6943 H 0.92607 0.48807 0.81559 0.0
C6944 C 0.35433 0.21269 0.58576 0.0
C6945 C 0.35207 0.21414 0.56531 0.0
C6946 C 0.34472 0.19747 0.59619 0.0
C6947 C 0.33208 0.18409 0.58585 0.0
C6948 C 0.32787 0.1872 0.56559 0.0
C6949 C 0.3385 0.20188 0.55538 0.0
C6950 C 0.34993 0.19434 0.61772 0.0
C6951 C 0.31344 0.1741 0.55439 0.0
C6952 C 0.3406 0.13302 0.60598 0.0
C6953 C 0.32584 0.13187 0.62038 0.0
C6954 C 0.34163 0.14932 0.59323 0.0
C6955 C 0.32753 0.16474 0.59513 0.0
C6956 C 0.31153 0.16275 0.60854 0.0
C6957 C 0.31093 0.14623 0.62121 0.0
C6958 C 0.35845 0.1505 0.57848 0.0
C6959 C 0.29567 0.1784 0.61017 0.0
H6960 H 0.36497 0.22226 0.59325 0.0
H6961 H 0.33689 0.20317 0.5395 0.0
H6962 H 0.33628 0.19231 0.62667 0.0
H6963 H 0.35888 0.18063 0.61926 0.0
H6964 H 0.35863 0.20698 0.62392 0.0
H6965 H 0.30961 0.18048 0.5397 0.0
H6966 H 0.31999 0.15922 0.55204 0.0
H6967 H 0.2996 0.17198 0.56304 0.0
H6968 H 0.35149 0.12127 0.60493 0.0
H6969 H 0.29901 0.14465 0.63189 0.0
H6970 H 0.36837 0.16323 0.5821 0.0
H6971 H 0.35244 0.15304 0.56343 0.0
H6972 H 0.36745 0.13672 0.57821 0.0
H6973 H 0.30112 0.19069 0.61971 0.0
H6974 H 0.28187 0.17227 0.61687 0.0
H6975 H 0.29206 0.1848 0.59546 0.0
C6976 C 0.09581 0.09844 0.79611 0.0
C6977 C 0.07596 0.09805 0.80245 0.0
C6978 C 0.11061 0.08987 0.80766 0.0
C6979 C 0.10504 0.07968 0.82508 0.0
C6980 C 0.08482 0.07586 0.82922 0.0
C6981 C 0.07039 0.08541 0.81793 0.0
C6982 C 0.13209 0.09398 0.80255 0.0
C6983 C 0.07847 0.06371 0.84694 0.0
C6984 C 0.14316 0.05596 0.85795 0.0
C6985 C 0.14607 0.07091 0.87222 0.0
C6986 C 0.13033 0.05881 0.84201 0.0
C6987 C 0.11973 0.07673 0.84081 0.0
C6988 C 0.12244 0.09185 0.85521 0.0
C6989 C 0.13565 0.08871 0.87084 0.0
C6990 C 0.1279 0.04255 0.82676 0.0
C6991 C 0.11138 0.11131 0.8541 0.0
H6992 H 0.10013 0.1069 0.78314 0.0
H6993 H 0.05498 0.08388 0.82205 0.0
H6994 H 0.14165 0.08112 0.80621 0.0
H6995 H 0.13394 0.09767 0.78662 0.0
H6996 H 0.13744 0.10688 0.81135 0.0
H6997 H 0.06268 0.05894 0.84581 0.0
H6998 H 0.08787 0.05034 0.84858 0.0
H6999 H 0.08027 0.07279 0.86055 0.0
H7000 H 0.15096 0.04196 0.85924 0.0
H7001 H 0.13808 0.10026 0.88177 0.0
H7002 H 0.12737 0.04876 0.81155 0.0
H7003 H 0.11369 0.03455 0.82936 0.0
H7004 H 0.14013 0.03161 0.82753 0.0
H7005 H 0.11402 0.11856 0.83956 0.0
H7006 H 0.1159 0.1218 0.86599 0.0
H7007 H 0.09517 0.10849 0.85539 0.0
C7008 C 0.84447 0.40643 0.44956 0.0
C7009 C 0.83148 0.41304 0.43479 0.0
C7010 C 0.84384 0.38674 0.45627 0.0
C7011 C 0.82956 0.37335 0.44837 0.0
C7012 C 0.81502 0.38045 0.43506 0.0
C7013 C 0.81633 0.40014 0.42814 0.0
C7014 C 0.85912 0.38007 0.47117 0.0
C7015 C 0.79868 0.36703 0.42745 0.0
C7016 C 0.85227 0.32236 0.44757 0.0
C7017 C 0.84731 0.31567 0.4665 0.0
C7018 C 0.84461 0.34035 0.44034 0.0
C7019 C 0.83166 0.35168 0.4524 0.0
C7020 C 0.82456 0.34351 0.47038 0.0
C7021 C 0.83261 0.32561 0.47728 0.0
C7022 C 0.85261 0.3485 0.42109 0.0
C7023 C 0.81037 0.35466 0.48353 0.0
H7024 H 0.85565 0.4165 0.45541 0.0
H7025 H 0.80605 0.40504 0.41683 0.0
H7026 H 0.8517 0.37616 0.4853 0.0
H7027 H 0.86665 0.36657 0.46574 0.0
H7028 H 0.87053 0.39169 0.4742 0.0
H7029 H 0.7866 0.37559 0.42026 0.0
H7030 H 0.80486 0.35653 0.41645 0.0
H7031 H 0.79226 0.35806 0.43971 0.0
H7032 H 0.86392 0.31488 0.43945 0.0
H7033 H 0.82889 0.32052 0.49207 0.0
H7034 H 0.86353 0.36051 0.42431 0.0
H7035 H 0.84052 0.35501 0.41208 0.0
H7036 H 0.86013 0.33687 0.41223 0.0
H7037 H 0.81895 0.36431 0.4938 0.0
H7038 H 0.80137 0.34422 0.49266 0.0
H7039 H 0.80024 0.36423 0.47482 0.0
C7040 C 0.94344 0.617 0.7036 0.0
C7041 C 0.95788 0.60534 0.7127 0.0
C7042 C 0.92631 0.60837 0.69567 0.0
C7043 C 0.92351 0.58752 0.69711 0.0
C7044 C 0.9389 0.57546 0.70483 0.0
C7045 C 0.95611 0.58461 0.71253 0.0
C7046 C 0.91041 0.62186 0.68748 0.0
C7047 C 0.93669 0.55315 0.70605 0.0
C7048 C 0.86867 0.58074 0.7034 0.0
C7049 C 0.86276 0.57857 0.68372 0.0
C7050 C 0.88888 0.58079 0.70842 0.0
C7051 C 0.90334 0.57939 0.69323 0.0
C7052 C 0.89732 0.57522 0.6736 0.0
C7053 C 0.87699 0.5748 0.66906 0.0
C7054 C 0.89472 0.58432 0.7297 0.0
C7055 C 0.91225 0.57317 0.65709 0.0
H7056 H 0.94496 0.63308 0.70391 0.0
H7057 H 0.96743 0.57573 0.71964 0.0
H7058 H 0.90548 0.61662 0.6727 0.0
H7059 H 0.89729 0.62157 0.69742 0.0
H7060 H 0.91559 0.63752 0.6861 0.0
H7061 H 0.9495 0.54609 0.71363 0.0
H7062 H 0.92289 0.54906 0.71409 0.0
H7063 H 0.93543 0.54688 0.69092 0.0
H7064 H 0.85754 0.58312 0.71471 0.0
H7065 H 0.87226 0.57277 0.65384 0.0
H7066 H 0.90012 0.59984 0.7314 0.0
H7067 H 0.90701 0.57434 0.73409 0.0
H7068 H 0.88206 0.58193 0.73998 0.0
H7069 H 0.91756 0.58815 0.65257 0.0
H7070 H 0.90566 0.56575 0.64392 0.0
H7071 H 0.92535 0.56461 0.66207 0.0
C7072 C 0.64812 0.45269 0.18831 0.0
C7073 C 0.64897 0.47326 0.18544 0.0
C7074 C 0.6339 0.44436 0.20105 0.0
C7075 C 0.62039 0.45702 0.21092 0.0
C7076 C 0.62325 0.47784 0.21026 0.0
C7077 C 0.63753 0.48577 0.19736 0.0
C7078 C 0.6318 0.42201 0.202 0.0
C7079 C 0.60971 0.49182 0.2212 0.0
C7080 C 0.57061 0.43144 0.20932 0.0
C7081 C 0.57012 0.42236 0.22785 0.0
C7082 C 0.58589 0.4448 0.20437 0.0
C7083 C 0.60137 0.44852 0.21817 0.0
C7084 C 0.59966 0.44124 0.2377 0.0
C7085 C 0.58372 0.42865 0.2424 0.0
C7086 C 0.58654 0.45325 0.18365 0.0
C7087 C 0.61567 0.44463 0.25302 0.0
H7088 H 0.65702 0.44308 0.17905 0.0
H7089 H 0.6384 0.50173 0.19513 0.0
H7090 H 0.62904 0.41705 0.21744 0.0
H7091 H 0.61887 0.41726 0.1929 0.0
H7092 H 0.64522 0.4144 0.19631 0.0
H7093 H 0.61672 0.50669 0.22315 0.0
H7094 H 0.59581 0.4937 0.21259 0.0
H7095 H 0.60564 0.4858 0.23596 0.0
H7096 H 0.56 0.42717 0.19823 0.0
H7097 H 0.58302 0.42226 0.25705 0.0
H7098 H 0.59782 0.44519 0.17485 0.0
H7099 H 0.59088 0.46919 0.18394 0.0
H7100 H 0.57197 0.45178 0.17602 0.0
H7101 H 0.62674 0.43252 0.2519 0.0
H7102 H 0.60941 0.44422 0.26824 0.0
H7103 H 0.62357 0.45897 0.25081 0.0
C7104 C 0.59903 0.82997 0.89518 0.0
C7105 C 0.61759 0.82134 0.89207 0.0
C7106 C 0.58617 0.83337 0.87928 0.0
C7107 C 0.59208 0.8278 0.85995 0.0
C7108 C 0.60973 0.81685 0.8572 0.0
C7109 C 0.62252 0.81402 0.87334 0.0
C7110 C 0.56737 0.84492 0.8829 0.0
C7111 C 0.61626 0.81041 0.83688 0.0
C7112 C 0.55633 0.84383 0.81979 0.0
C7113 C 0.5629 0.86336 0.81662 0.0
C7114 C 0.56646 0.83122 0.83288 0.0
C7115 C 0.58341 0.83856 0.84294 0.0
C7116 C 0.59081 0.85783 0.8386 0.0
C7117 C 0.58016 0.87016 0.82586 0.0
C7118 C 0.55786 0.81092 0.83727 0.0
C7119 C 0.60903 0.86645 0.84851 0.0
H7120 H 0.5951 0.83515 0.90986 0.0
H7121 H 0.63667 0.80673 0.8712 0.0
H7122 H 0.56981 0.86066 0.87851 0.0
H7123 H 0.55494 0.83894 0.87386 0.0
H7124 H 0.56297 0.84459 0.89875 0.0
H7125 H 0.62723 0.79817 0.8377 0.0
H7126 H 0.60339 0.80547 0.82781 0.0
H7127 H 0.62333 0.82324 0.82922 0.0
H7128 H 0.54228 0.83901 0.8136 0.0
H7129 H 0.58472 0.88556 0.82408 0.0
H7130 H 0.54832 0.81183 0.85062 0.0
H7131 H 0.56969 0.79993 0.8403 0.0
H7132 H 0.54851 0.80545 0.82482 0.0
H7133 H 0.60447 0.87844 0.85877 0.0
H7134 H 0.61881 0.87292 0.83704 0.0
H7135 H 0.618 0.85565 0.85695 0.0
C7136 C 0.408 0.31002 0.09224 0.0
C7137 C 0.41772 0.30859 0.07413 0.0
C7138 C 0.41578 0.32144 0.10759 0.0
C7139 C 0.43398 0.3317 0.10474 0.0
C7140 C 0.44409 0.33024 0.0864 0.0
C7141 C 0.43592 0.3183 0.0713 0.0
C7142 C 0.405 0.32158 0.12723 0.0
C7143 C 0.46385 0.34037 0.08306 0.0
C7144 C 0.4356 0.37109 0.14369 0.0
C7145 C 0.44415 0.36054 0.15937 0.0
C7146 C 0.43464 0.36283 0.12467 0.0
C7147 C 0.44201 0.34344 0.1215 0.0
C7148 C 0.45237 0.33356 0.13684 0.0
C7149 C 0.45331 0.34227 0.15565 0.0
C7150 C 0.42405 0.37398 0.10845 0.0
C7151 C 0.46067 0.31296 0.13406 0.0
H7152 H 0.39476 0.30116 0.09472 0.0
H7153 H 0.44402 0.31604 0.05763 0.0
H7154 H 0.41393 0.31357 0.13846 0.0
H7155 H 0.40305 0.33702 0.13258 0.0
H7156 H 0.39018 0.31429 0.12634 0.0
H7157 H 0.46825 0.34015 0.06721 0.0
H7158 H 0.46344 0.35601 0.08822 0.0
H7159 H 0.47546 0.33265 0.09176 0.0
H7160 H 0.42916 0.38555 0.14645 0.0
H7161 H 0.46025 0.33425 0.16773 0.0
H7162 H 0.40951 0.36671 0.10546 0.0
H7163 H 0.43278 0.37348 0.09455 0.0
H7164 H 0.42143 0.38975 0.11244 0.0
H7165 H 0.44857 0.30183 0.1359 0.0
H7166 H 0.4724 0.30966 0.14515 0.0
H7167 H 0.46693 0.31111 0.119 0.0
C7168 C 0.91608 0.22217 0.38944 0.0
C7169 C 0.91647 0.20674 0.40334 0.0
C7170 C 0.92931 0.22225 0.37346 0.0
C7171 C 0.94272 0.20632 0.37139 0.0
C7172 C 0.94441 0.19184 0.38655 0.0
C7173 C 0.93115 0.19225 0.40244 0.0
C7174 C 0.92796 0.2385 0.3581 0.0
C7175 C 0.95914 0.17505 0.38524 0.0
C7176 C 0.94936 0.18219 0.32184 0.0
C7177 C 0.96975 0.18459 0.31917 0.0
C7178 C 0.94007 0.1903 0.33841 0.0
C7179 C 0.95138 0.20196 0.35185 0.0
C7180 C 0.97147 0.20652 0.34774 0.0
C7181 C 0.98058 0.19738 0.33156 0.0
C7182 C 0.91873 0.1846 0.34258 0.0
C7183 C 0.98353 0.22017 0.36089 0.0
H7184 H 0.90517 0.23386 0.39085 0.0
H7185 H 0.93183 0.18092 0.41385 0.0
H7186 H 0.94298 0.24302 0.35298 0.0
H7187 H 0.91964 0.23289 0.34504 0.0
H7188 H 0.92017 0.25177 0.36391 0.0
H7189 H 0.96019 0.16658 0.39933 0.0
H7190 H 0.95455 0.16465 0.37331 0.0
H7191 H 0.97413 0.18083 0.38145 0.0
H7192 H 0.94098 0.17262 0.312 0.0
H7193 H 0.99635 0.19958 0.32901 0.0
H7194 H 0.90995 0.19777 0.34689 0.0
H7195 H 0.91826 0.1739 0.35511 0.0
H7196 H 0.91144 0.17759 0.32958 0.0
H7197 H 0.97748 0.23544 0.35991 0.0
H7198 H 0.99944 0.22069 0.35655 0.0
H7199 H 0.98248 0.21547 0.3766 0.0
C7200 C 0.11969 0.73229 0.59297 0.0
C7201 C 0.11338 0.73012 0.57334 0.0
C7202 C 0.11026 0.72197 0.60827 0.0
C7203 C 0.09485 0.7084 0.60358 0.0
C7204 C 0.08807 0.70656 0.5838 0.0
C7205 C 0.09719 0.71789 0.56892 0.0
C7206 C 0.11705 0.72534 0.62934 0.0
C7207 C 0.07156 0.6923 0.57831 0.0
C7208 C 0.09371 0.66257 0.63547 0.0
C7209 C 0.07611 0.66484 0.6461 0.0
C7210 C 0.0997 0.67666 0.62157 0.0
C7211 C 0.08824 0.69389 0.61862 0.0
C7212 C 0.0708 0.69687 0.62979 0.0
C7213 C 0.06466 0.68206 0.64315 0.0
C7214 C 0.11834 0.67294 0.60996 0.0
C7215 C 0.05898 0.71581 0.62803 0.0
H7216 H 0.13168 0.74258 0.59642 0.0
H7217 H 0.0914 0.71755 0.554 0.0
H7218 H 0.10413 0.72635 0.63945 0.0
H7219 H 0.1262 0.71262 0.6343 0.0
H7220 H 0.12612 0.73913 0.63079 0.0
H7221 H 0.06646 0.6944 0.56281 0.0
H7222 H 0.07688 0.67682 0.5801 0.0
H7223 H 0.05865 0.69412 0.58829 0.0
H7224 H 0.10303 0.64978 0.63813 0.0
H7225 H 0.05091 0.68401 0.6512 0.0
H7226 H 0.12905 0.68534 0.61206 0.0
H7227 H 0.11479 0.67205 0.59394 0.0
H7228 H 0.12558 0.65897 0.61468 0.0
H7229 H 0.06812 0.7285 0.6334 0.0
H7230 H 0.04504 0.71522 0.6368 0.0
H7231 H 0.05523 0.71894 0.61235 0.0
C7232 C 0.5555 0.18543 0.70704 0.0
C7233 C 0.56384 0.16754 0.7135 0.0
C7234 C 0.56363 0.19608 0.69095 0.0
C7235 C 0.57977 0.18793 0.6803 0.0
C7236 C 0.58907 0.17057 0.68766 0.0
C7237 C 0.58088 0.16057 0.70401 0.0
C7238 C 0.5537 0.21493 0.68414 0.0
C7239 C 0.60612 0.16103 0.67681 0.0
C7240 C 0.5798 0.18675 0.62427 0.0
C7241 C 0.59719 0.19734 0.61965 0.0
C7242 C 0.57313 0.18491 0.64386 0.0
C7243 C 0.5839 0.1942 0.6594 0.0
C7244 C 0.60026 0.2067 0.65465 0.0
C7245 C 0.60685 0.20801 0.63482 0.0
C7246 C 0.55542 0.17162 0.64798 0.0
C7247 C 0.61148 0.21773 0.67061 0.0
H7248 H 0.54127 0.18979 0.7129 0.0
H7249 H 0.58666 0.14613 0.70813 0.0
H7250 H 0.565 0.22673 0.68155 0.0
H7251 H 0.54591 0.21233 0.66989 0.0
H7252 H 0.54273 0.22037 0.69511 0.0
H7253 H 0.6132 0.14911 0.6857 0.0
H7254 H 0.60057 0.15441 0.66279 0.0
H7255 H 0.61759 0.17227 0.67293 0.0
H7256 H 0.57187 0.17903 0.61258 0.0
H7257 H 0.62018 0.21646 0.63144 0.0
H7258 H 0.54443 0.17941 0.65733 0.0
H7259 H 0.56032 0.15824 0.65623 0.0
H7260 H 0.54786 0.16669 0.63418 0.0
H7261 H 0.601 0.22486 0.68105 0.0
H7262 H 0.62151 0.22931 0.66435 0.0
H7263 H 0.62056 0.20712 0.67928 0.0
C7264 C 0.07852 0.34534 0.88622 0.0
C7265 C 0.06353 0.35918 0.88956 0.0
C7266 C 0.08431 0.33231 0.9013 0.0
C7267 C 0.07474 0.33333 0.91995 0.0
C7268 C 0.05757 0.34508 0.92219 0.0
C7269 C 0.05225 0.35814 0.90693 0.0
C7270 C 0.10237 0.31954 0.8981 0.0
C7271 C 0.04654 0.3459 0.94159 0.0
C7272 C 0.09489 0.2996 0.96003 0.0
C7273 C 0.11004 0.31153 0.96799 0.0
C7274 C 0.08262 0.30659 0.9448 0.0
C7275 C 0.08538 0.32619 0.93777 0.0
C7276 C 0.10005 0.33865 0.94648 0.0
C7277 C 0.11267 0.33087 0.96097 0.0
C7278 C 0.06778 0.29257 0.93536 0.0
C7279 C 0.10354 0.35971 0.9394 0.0
H7280 H 0.08721 0.34628 0.87273 0.0
H7281 H 0.04061 0.36892 0.90938 0.0
H7282 H 0.11557 0.32707 0.90461 0.0
H7283 H 0.10066 0.3049 0.9055 0.0
H7284 H 0.10527 0.31709 0.8821 0.0
H7285 H 0.03151 0.35234 0.93974 0.0
H7286 H 0.04507 0.33086 0.9482 0.0
H7287 H 0.05503 0.35531 0.95217 0.0
H7288 H 0.09415 0.2841 0.96412 0.0
H7289 H 0.12541 0.33949 0.9659 0.0
H7290 H 0.06891 0.29309 0.91898 0.0
H7291 H 0.05253 0.29717 0.93936 0.0
H7292 H 0.06991 0.27695 0.94023 0.0
H7293 H 0.10982 0.35949 0.92422 0.0
H7294 H 0.11398 0.36798 0.94917 0.0
H7295 H 0.08932 0.36792 0.93879 0.0
C7296 C 0.95979 0.86337 0.20819 0.0
C7297 C 0.97943 0.86031 0.21395 0.0
C7298 C 0.95073 0.85094 0.19412 0.0
C7299 C 0.96191 0.83557 0.18512 0.0
C7300 C 0.9816 0.83205 0.19143 0.0
C7301 C 0.99013 0.84455 0.20576 0.0
C7302 C 0.92958 0.85505 0.18798 0.0
C7303 C 0.99425 0.81621 0.18205 0.0
C7304 C 0.92751 0.80155 0.15696 0.0
C7305 C 0.92625 0.81178 0.13891 0.0
C7306 C 0.94095 0.8077 0.17164 0.0
C7307 C 0.95318 0.8245 0.16811 0.0
C7308 C 0.95388 0.833 0.1489 0.0
C7309 C 0.9403 0.82652 0.13445 0.0
C7310 C 0.94029 0.79778 0.19168 0.0
C7311 C 0.96717 0.85057 0.14432 0.0
H7312 H 0.95193 0.87621 0.21375 0.0
H7313 H 1.00565 0.84278 0.20967 0.0
H7314 H 0.92914 0.85951 0.17216 0.0
H7315 H 0.92041 0.84137 0.18957 0.0
H7316 H 0.92276 0.86706 0.1969 0.0
H7317 H 1.00692 0.8121 0.19174 0.0
H7318 H 0.98543 0.80264 0.17869 0.0
H7319 H 1.00036 0.82195 0.16789 0.0
H7320 H 0.91657 0.79014 0.16035 0.0
H7321 H 0.93922 0.83447 0.12052 0.0
H7322 H 0.93153 0.80708 0.202 0.0
H7323 H 0.95543 0.79632 0.19796 0.0
H7324 H 0.93327 0.78281 0.19091 0.0
H7325 H 0.9608 0.86416 0.15103 0.0
H7326 H 0.96865 0.85306 0.12812 0.0
H7327 H 0.98217 0.84845 0.15076 0.0
C7328 C 0.46821 0.65876 0.3996 0.0
C7329 C 0.48171 0.67005 0.38862 0.0
C7330 C 0.45518 0.66792 0.41256 0.0
C7331 C 0.45564 0.68884 0.41415 0.0
C7332 C 0.46806 0.70045 0.4017 0.0
C7333 C 0.48135 0.69078 0.38911 0.0
C7334 C 0.4419 0.65515 0.42547 0.0
C7335 C 0.46803 0.72287 0.40246 0.0
C7336 C 0.41334 0.70967 0.44325 0.0
C7337 C 0.4225 0.7136 0.46148 0.0
C7338 C 0.42413 0.70235 0.42737 0.0
C7339 C 0.44439 0.69809 0.43017 0.0
C7340 C 0.45345 0.70073 0.44895 0.0
C7341 C 0.44225 0.70842 0.46455 0.0
C7342 C 0.41407 0.70011 0.40746 0.0
C7343 C 0.47502 0.69578 0.45243 0.0
H7344 H 0.46868 0.64265 0.39883 0.0
H7345 H 0.49189 0.69927 0.38032 0.0
H7346 H 0.44596 0.65729 0.44126 0.0
H7347 H 0.42618 0.65966 0.42374 0.0
H7348 H 0.44306 0.63909 0.42188 0.0
H7349 H 0.47579 0.72954 0.38951 0.0
H7350 H 0.4526 0.72855 0.40293 0.0
H7351 H 0.47566 0.72796 0.41612 0.0
H7352 H 0.39786 0.71332 0.44112 0.0
H7353 H 0.44913 0.71118 0.47872 0.0
H7354 H 0.39767 0.70142 0.40856 0.0
H7355 H 0.4176 0.6856 0.40057 0.0
H7356 H 0.41962 0.71191 0.39735 0.0
H7357 H 0.47757 0.67982 0.44924 0.0
H7358 H 0.47979 0.69892 0.46787 0.0
H7359 H 0.48457 0.70454 0.44222 0.0
C7360 C 0.82322 0.57998 0.86142 0.0
C7361 C 0.81907 0.55973 0.85907 0.0
C7362 C 0.84014 0.58865 0.85269 0.0
C7363 C 0.85378 0.57648 0.84239 0.0
C7364 C 0.84845 0.55653 0.83811 0.0
C7365 C 0.8309 0.54853 0.8462 0.0
C7366 C 0.84474 0.61024 0.85673 0.0
C7367 C 0.86246 0.54279 0.82747 0.0
C7368 C 0.90101 0.60148 0.82293 0.0
C7369 C 0.91398 0.59946 0.83921 0.0
C7370 C 0.88169 0.59325 0.82322 0.0
C7371 C 0.8749 0.58323 0.84038 0.0
C7372 C 0.88808 0.58055 0.85653 0.0
C7373 C 0.90741 0.58845 0.85565 0.0
C7374 C 0.86837 0.59594 0.80544 0.0
C7375 C 0.88158 0.56983 0.87514 0.0
H7376 H 0.81459 0.58854 0.87183 0.0
H7377 H 0.82794 0.53273 0.84468 0.0
H7378 H 0.85057 0.61762 0.84321 0.0
H7379 H 0.83144 0.61839 0.86191 0.0
H7380 H 0.8564 0.61131 0.8683 0.0
H7381 H 0.85449 0.52972 0.82119 0.0
H7382 H 0.87048 0.55061 0.8154 0.0
H7383 H 0.8737 0.53726 0.83814 0.0
H7384 H 0.90561 0.61007 0.81014 0.0
H7385 H 0.91733 0.58617 0.86806 0.0
H7386 H 0.85684 0.6071 0.8089 0.0
H7387 H 0.86058 0.58184 0.80174 0.0
H7388 H 0.87677 0.60108 0.79222 0.0
H7389 H 0.8696 0.57831 0.88249 0.0
H7390 H 0.89394 0.56796 0.88587 0.0
H7391 H 0.87549 0.55493 0.87142 0.0
C7392 C 0.69446 0.58073 0.10804 0.0
C7393 C 0.71246 0.57337 0.10097 0.0
C7394 C 0.68784 0.59969 0.1022 0.0
C7395 C 0.69878 0.61074 0.08785 0.0
C7396 C 0.71546 0.60201 0.07879 0.0
C7397 C 0.72277 0.58417 0.08642 0.0
C7398 C 0.67041 0.60867 0.11292 0.0
C7399 C 0.72709 0.61234 0.06265 0.0
C7400 C 0.67237 0.65833 0.07363 0.0
C7401 C 0.68283 0.67241 0.08503 0.0
C7402 C 0.67829 0.63835 0.07316 0.0
C7403 C 0.69464 0.63229 0.08482 0.0
C7404 C 0.70637 0.64698 0.09457 0.0
C7405 C 0.70002 0.66673 0.09492 0.0
C7406 C 0.66753 0.62392 0.05974 0.0
C7407 C 0.72627 0.64271 0.10373 0.0
H7408 H 0.68683 0.57278 0.11979 0.0
H7409 H 0.73752 0.57964 0.08209 0.0
H7410 H 0.67531 0.62228 0.12087 0.0
H7411 H 0.65877 0.61316 0.10228 0.0
H7412 H 0.66365 0.59819 0.12374 0.0
H7413 H 0.7331 0.60127 0.05207 0.0
H7414 H 0.71792 0.62317 0.05433 0.0
H7415 H 0.73997 0.62027 0.06926 0.0
H7416 H 0.65939 0.66288 0.06531 0.0
H7417 H 0.70873 0.67786 0.10274 0.0
H7418 H 0.65791 0.61386 0.06855 0.0
H7419 H 0.67836 0.61453 0.05171 0.0
H7420 H 0.65808 0.63171 0.04873 0.0
H7421 H 0.7284 0.65157 0.11744 0.0
H7422 H 0.73805 0.64761 0.09329 0.0
H7423 H 0.72853 0.6268 0.1069 0.0
C7424 C 0.69762 0.47286 0.37808 0.0
C7425 C 0.71442 0.47572 0.36626 0.0
C7426 C 0.68165 0.46134 0.37142 0.0
C7427 C 0.68295 0.4519 0.3528 0.0
C7428 C 0.70022 0.45433 0.34102 0.0
C7429 C 0.71554 0.46687 0.34765 0.0
C7430 C 0.66333 0.45941 0.38417 0.0
C7431 C 0.70258 0.44373 0.32149 0.0
C7432 C 0.65234 0.4054 0.34539 0.0
C7433 C 0.63974 0.41107 0.32997 0.0
C7434 C 0.66627 0.41865 0.35317 0.0
C7435 C 0.66678 0.43848 0.34623 0.0
C7436 C 0.6525 0.44502 0.33233 0.0
C7437 C 0.63939 0.43107 0.32395 0.0
C7438 C 0.68143 0.41057 0.3674 0.0
C7439 C 0.65158 0.46644 0.32569 0.0
H7440 H 0.69668 0.4804 0.39217 0.0
H7441 H 0.72831 0.46983 0.33831 0.0
H7442 H 0.65037 0.46559 0.37612 0.0
H7443 H 0.65997 0.44356 0.3873 0.0
H7444 H 0.66502 0.46725 0.39854 0.0
H7445 H 0.71803 0.44481 0.31579 0.0
H7446 H 0.69853 0.42778 0.32304 0.0
H7447 H 0.6925 0.45034 0.31033 0.0
H7448 H 0.65222 0.39013 0.35056 0.0
H7449 H 0.62966 0.43568 0.31203 0.0
H7450 H 0.68724 0.42204 0.37761 0.0
H7451 H 0.69407 0.40465 0.35875 0.0
H7452 H 0.67508 0.39815 0.37625 0.0
H7453 H 0.65328 0.47662 0.33852 0.0
H7454 H 0.63738 0.46979 0.31803 0.0
H7455 H 0.66391 0.46963 0.31527 0.0
C7456 C 0.84888 0.38337 0.56778 0.0
C7457 C 0.85439 0.37396 0.58565 0.0
C7458 C 0.83751 0.40085 0.56766 0.0
C7459 C 0.83265 0.41004 0.58582 0.0
C7460 C 0.83813 0.40078 0.60385 0.0
C7461 C 0.84824 0.38265 0.60352 0.0
C7462 C 0.83117 0.40953 0.54804 0.0
C7463 C 0.83347 0.4101 0.62369 0.0
C7464 C 0.82477 0.46364 0.59798 0.0
C7465 C 0.80585 0.46223 0.60626 0.0
C7466 C 0.83315 0.4473 0.58819 0.0
C7467 C 0.82207 0.42939 0.5866 0.0
C7468 C 0.80159 0.42952 0.59111 0.0
C7469 C 0.79367 0.44606 0.60082 0.0
C7470 C 0.85469 0.44839 0.58225 0.0
C7471 C 0.78874 0.41125 0.58835 0.0
H7472 H 0.85361 0.37744 0.5537 0.0
H7473 H 0.85137 0.37543 0.61748 0.0
H7474 H 0.81692 0.41762 0.54921 0.0
H7475 H 0.84271 0.42013 0.54279 0.0
H7476 H 0.82953 0.39772 0.53664 0.0
H7477 H 0.83998 0.40171 0.63627 0.0
H7478 H 0.83928 0.42557 0.62423 0.0
H7479 H 0.81715 0.41074 0.62582 0.0
H7480 H 0.83374 0.47656 0.60071 0.0
H7481 H 0.77855 0.44525 0.60622 0.0
H7482 H 0.85757 0.43929 0.56891 0.0
H7483 H 0.86394 0.44254 0.59453 0.0
H7484 H 0.85939 0.46396 0.57924 0.0
H7485 H 0.79263 0.4034 0.57446 0.0
H7486 H 0.77271 0.41505 0.58805 0.0
H7487 H 0.79123 0.40084 0.60087 0.0
C7488 C 0.8987 0.42132 0.71917 0.0
C7489 C 0.90905 0.41841 0.70132 0.0
C7490 C 0.88136 0.43271 0.71973 0.0
C7491 C 0.87413 0.44103 0.70196 0.0
C7492 C 0.88476 0.43844 0.68404 0.0
C7493 C 0.90206 0.42711 0.68393 0.0
C7494 C 0.87068 0.43553 0.73916 0.0
C7495 C 0.87788 0.44772 0.66492 0.0
C7496 C 0.82193 0.45029 0.68627 0.0
C7497 C 0.82288 0.47085 0.68362 0.0
C7498 C 0.83783 0.44027 0.69507 0.0
C7499 C 0.85478 0.45124 0.70124 0.0
C7500 C 0.85432 0.47224 0.70136 0.0
C7501 C 0.8383 0.48184 0.69244 0.0
C7502 C 0.83768 0.41785 0.6951 0.0
C7503 C 0.87178 0.48453 0.70848 0.0
H7504 H 0.90418 0.41463 0.73271 0.0
H7505 H 0.91036 0.42537 0.67031 0.0
H7506 H 0.86679 0.45136 0.74136 0.0
H7507 H 0.85658 0.42692 0.73902 0.0
H7508 H 0.87973 0.43051 0.75197 0.0
H7509 H 0.88816 0.44468 0.65245 0.0
H7510 H 0.86291 0.442 0.66091 0.0
H7511 H 0.87674 0.46405 0.66683 0.0
H7512 H 0.80983 0.44186 0.67969 0.0
H7513 H 0.8387 0.49788 0.69089 0.0
H7514 H 0.84441 0.41197 0.70888 0.0
H7515 H 0.84664 0.41244 0.68244 0.0
H7516 H 0.82238 0.41174 0.6936 0.0
H7517 H 0.87709 0.47907 0.72303 0.0
H7518 H 0.868 0.50053 0.70986 0.0
H7519 H 0.88425 0.48315 0.69785 0.0
C7520 C 0.80313 0.58824 0.93891 0.0
C7521 C 0.81389 0.57188 0.93216 0.0
C7522 C 0.81276 0.60463 0.94697 0.0
C7523 C 0.83335 0.60339 0.95071 0.0
C7524 C 0.84307 0.58487 0.94884 0.0
C7525 C 0.83346 0.56935 0.93858 0.0
C7526 C 0.80106 0.62358 0.94963 0.0
C7527 C 0.86382 0.58198 0.95663 0.0
C7528 C 0.86104 0.64893 0.93334 0.0
C7529 C 0.85857 0.66169 0.94944 0.0
C7530 C 0.85388 0.62935 0.93402 0.0
C7531 C 0.84497 0.62204 0.95169 0.0
C7532 C 0.84368 0.63444 0.96848 0.0
C7533 C 0.84982 0.65425 0.96692 0.0
C7534 C 0.8547 0.61704 0.9153 0.0
C7535 C 0.83497 0.6275 0.98794 0.0
H7536 H 0.78725 0.58877 0.93669 0.0
H7537 H 0.84145 0.55595 0.93482 0.0
H7538 H 0.79839 0.62608 0.96561 0.0
H7539 H 0.80923 0.63664 0.94365 0.0
H7540 H 0.78636 0.62285 0.94216 0.0
H7541 H 0.86693 0.56599 0.95922 0.0
H7542 H 0.8748 0.58776 0.94582 0.0
H7543 H 0.86591 0.59026 0.97071 0.0
H7544 H 0.86814 0.65437 0.91999 0.0
H7545 H 0.84725 0.66396 0.97943 0.0
H7546 H 0.83972 0.61119 0.9115 0.0
H7547 H 0.86462 0.60415 0.91748 0.0
H7548 H 0.86037 0.62571 0.90247 0.0
H7549 H 0.82112 0.6358 0.99101 0.0
H7550 H 0.84543 0.63113 1.00016 0.0
H7551 H 0.83173 0.61131 0.98835 0.0
C7552 C 0.64123 0.6071 0.21127 0.0
C7553 C 0.62601 0.59895 0.19951 0.0
C7554 C 0.66047 0.5991 0.21082 0.0
C7555 C 0.66439 0.58274 0.19829 0.0
C7556 C 0.64845 0.57316 0.18828 0.0
C7557 C 0.6295 0.5815 0.18891 0.0
C7558 C 0.67681 0.60913 0.22248 0.0
C7559 C 0.6517 0.55518 0.1753 0.0
C7560 C 0.70595 0.57766 0.16261 0.0
C7561 C 0.71423 0.55978 0.16884 0.0
C7562 C 0.69178 0.58736 0.17413 0.0
C7563 C 0.68495 0.57825 0.1918 0.0
C7564 C 0.69504 0.56151 0.19939 0.0
C7565 C 0.70956 0.55235 0.18768 0.0
C7566 C 0.68207 0.60577 0.1659 0.0
C7567 C 0.6888 0.55168 0.2185 0.0
H7568 H 0.63842 0.6204 0.21983 0.0
H7569 H 0.61754 0.57487 0.18036 0.0
H7570 H 0.68821 0.59833 0.22732 0.0
H7571 H 0.68424 0.62044 0.21303 0.0
H7572 H 0.67079 0.61682 0.23571 0.0
H7573 H 0.63748 0.54817 0.17058 0.0
H7574 H 0.66004 0.55969 0.16183 0.0
H7575 H 0.66062 0.54387 0.18319 0.0
H7576 H 0.709 0.58301 0.14783 0.0
H7577 H 0.71534 0.53811 0.19229 0.0
H7578 H 0.6804 0.61714 0.17764 0.0
H7579 H 0.66701 0.60195 0.16035 0.0
H7580 H 0.69078 0.61237 0.15356 0.0
H7581 H 0.68315 0.5627 0.22928 0.0
H7582 H 0.70136 0.54347 0.22529 0.0
H7583 H 0.67672 0.5408 0.21544 0.0
C7584 C 0.73222 0.44565 0.44256 0.0
C7585 C 0.72302 0.46196 0.43356 0.0
C7586 C 0.72096 0.43075 0.45168 0.0
C7587 C 0.70003 0.43179 0.45073 0.0
C7588 C 0.69075 0.44903 0.44315 0.0
C7589 C 0.70246 0.46417 0.43497 0.0
C7590 C 0.73156 0.41311 0.46047 0.0
C7591 C 0.66844 0.4505 0.44161 0.0
C7592 C 0.67104 0.38539 0.43848 0.0
C7593 C 0.66102 0.38188 0.45621 0.0
C7594 C 0.68476 0.40099 0.43699 0.0
C7595 C 0.68797 0.41362 0.45346 0.0
C7596 C 0.67839 0.4097 0.47165 0.0
C7597 C 0.66498 0.39374 0.47283 0.0
C7598 C 0.69579 0.40404 0.41778 0.0
C7599 C 0.68228 0.42236 0.4897 0.0
H7600 H 0.74821 0.444 0.44167 0.0
H7601 H 0.69538 0.47687 0.42818 0.0
H7602 H 0.72265 0.40572 0.47219 0.0
H7603 H 0.73451 0.4021 0.44865 0.0
H7604 H 0.74611 0.4177 0.46683 0.0
H7605 H 0.66358 0.46581 0.4379 0.0
H7606 H 0.66306 0.4403 0.42982 0.0
H7607 H 0.66128 0.44587 0.45567 0.0
H7608 H 0.66847 0.37561 0.42596 0.0
H7609 H 0.65758 0.39046 0.48673 0.0
H7610 H 0.71203 0.40351 0.4204 0.0
H7611 H 0.69239 0.41896 0.41171 0.0
H7612 H 0.69197 0.39253 0.40663 0.0
H7613 H 0.69849 0.42418 0.49213 0.0
H7614 H 0.67552 0.41588 0.50327 0.0
H7615 H 0.67607 0.43741 0.48735 0.0
C7616 C 0.84315 0.82416 0.58571 0.0
C7617 C 0.84602 0.82491 0.56522 0.0
C7618 C 0.8362 0.84098 0.59588 0.0
C7619 C 0.83278 0.85885 0.58527 0.0
C7620 C 0.83297 0.8586 0.56434 0.0
C7621 C 0.83909 0.8414 0.55457 0.0
C7622 C 0.83475 0.84029 0.61813 0.0
C7623 C 0.82959 0.8772 0.55228 0.0
C7624 C 0.81854 0.90744 0.6102 0.0
C7625 C 0.83723 0.91682 0.61244 0.0
C7626 C 0.81668 0.88857 0.60143 0.0
C7627 C 0.83397 0.87833 0.5956 0.0
C7628 C 0.85286 0.88732 0.59837 0.0
C7629 C 0.85421 0.90651 0.60633 0.0
C7630 C 0.79625 0.87962 0.59845 0.0
C7631 C 0.87175 0.87671 0.59272 0.0
H7632 H 0.8479 0.8112 0.59396 0.0
H7633 H 0.84039 0.84163 0.53857 0.0
H7634 H 0.84861 0.84647 0.62465 0.0
H7635 H 0.82217 0.84939 0.62347 0.0
H7636 H 0.83282 0.8248 0.62356 0.0
H7637 H 0.82628 0.87371 0.53653 0.0
H7638 H 0.81725 0.88612 0.5584 0.0
H7639 H 0.84324 0.88655 0.55273 0.0
H7640 H 0.80523 0.91464 0.61545 0.0
H7641 H 0.8687 0.91345 0.60755 0.0
H7642 H 0.79463 0.86609 0.60771 0.0
H7643 H 0.7942 0.87499 0.58282 0.0
H7644 H 0.78424 0.89015 0.60237 0.0
H7645 H 0.87308 0.86276 0.60139 0.0
H7646 H 0.88525 0.88591 0.59542 0.0
H7647 H 0.87133 0.87256 0.57684 0.0
C7648 C 0.2965 0.6543 0.43457 0.0
C7649 C 0.30964 0.63854 0.43161 0.0
C7650 C 0.3014 0.66984 0.44756 0.0
C7651 C 0.31991 0.66949 0.45746 0.0
C7652 C 0.33169 0.6521 0.45675 0.0
C7653 C 0.32636 0.63675 0.44373 0.0
C7654 C 0.28811 0.68776 0.44845 0.0
C7655 C 0.35133 0.65085 0.46747 0.0
C7656 C 0.35411 0.71412 0.45887 0.0
C7657 C 0.35419 0.71855 0.47901 0.0
C7658 C 0.34151 0.69927 0.45133 0.0
C7659 C 0.32911 0.68835 0.46447 0.0
C7660 C 0.32786 0.69405 0.48455 0.0
C7661 C 0.34034 0.70926 0.49154 0.0
C7662 C 0.34304 0.6939 0.42968 0.0
C7663 C 0.31508 0.68272 0.4991 0.0
H7664 H 0.28357 0.65562 0.42508 0.0
H7665 H 0.33653 0.62456 0.44128 0.0
H7666 H 0.28841 0.69472 0.46333 0.0
H7667 H 0.29342 0.699 0.43761 0.0
H7668 H 0.27252 0.68378 0.44466 0.0
H7669 H 0.35655 0.63526 0.46865 0.0
H7670 H 0.36267 0.65955 0.45919 0.0
H7671 H 0.35026 0.65723 0.48255 0.0
H7672 H 0.36514 0.72085 0.44935 0.0
H7673 H 0.34078 0.71242 0.50729 0.0
H7674 H 0.32803 0.6926 0.423 0.0
H7675 H 0.35038 0.67926 0.42815 0.0
H7676 H 0.35177 0.70505 0.42115 0.0
H7677 H 0.30032 0.6792 0.49265 0.0
H7678 H 0.31297 0.69116 0.51307 0.0
H7679 H 0.32232 0.66842 0.50278 0.0
C7680 C 0.57001 0.0849 0.71169 0.0
C7681 C 0.5717 0.09543 0.72935 0.0
C7682 C 0.58579 0.07313 0.70539 0.0
C7683 C 0.60361 0.07304 0.71663 0.0
C7684 C 0.60447 0.08196 0.73541 0.0
C7685 C 0.58802 0.09227 0.74193 0.0
C7686 C 0.58411 0.0624 0.68583 0.0
C7687 C 0.62324 0.08295 0.74769 0.0
C7688 C 0.64096 0.03894 0.69509 0.0
C7689 C 0.64819 0.05112 0.67995 0.0
C7690 C 0.6278 0.04653 0.70899 0.0
C7691 C 0.62186 0.06651 0.70714 0.0
C7692 C 0.63123 0.07948 0.69348 0.0
C7693 C 0.64441 0.0715 0.67981 0.0
C7694 C 0.61869 0.03265 0.72407 0.0
C7695 C 0.62578 0.10121 0.69191 0.0
H7696 H 0.55702 0.08669 0.70238 0.0
H7697 H 0.58871 0.09916 0.75641 0.0
H7698 H 0.59199 0.07109 0.67424 0.0
H7699 H 0.5911 0.04754 0.68672 0.0
H7700 H 0.56838 0.06052 0.68118 0.0
H7701 H 0.61971 0.08262 0.76376 0.0
H7702 H 0.6337 0.07077 0.74434 0.0
H7703 H 0.63093 0.09729 0.74462 0.0
H7704 H 0.64452 0.02324 0.6952 0.0
H7705 H 0.65043 0.0808 0.6681 0.0
H7706 H 0.60409 0.02735 0.71849 0.0
H7707 H 0.61613 0.04028 0.73838 0.0
H7708 H 0.62824 0.01951 0.72673 0.0
H7709 H 0.61128 0.1026 0.68421 0.0
H7710 H 0.63701 0.10985 0.68339 0.0
H7711 H 0.62422 0.10794 0.70682 0.0
C7712 C 0.19304 0.33759 0.98491 0.0
C7713 C 0.18441 0.32222 0.97386 0.0
C7714 C 0.20106 0.35428 0.97547 0.0
C7715 C 0.20066 0.35517 0.95455 0.0
C7716 C 0.19532 0.33809 0.94348 0.0
C7717 C 0.18703 0.32169 0.95334 0.0
C7718 C 0.20694 0.37199 0.98792 0.0
C7719 C 0.1957 0.33812 0.92116 0.0
C7720 C 0.1808 0.40355 0.93461 0.0
C7721 C 0.19792 0.4127 0.92707 0.0
C7722 C 0.18157 0.38463 0.94313 0.0
C7723 C 0.20008 0.37485 0.94484 0.0
C7724 C 0.21751 0.38394 0.9375 0.0
C7725 C 0.21615 0.40255 0.92828 0.0
C7726 C 0.16243 0.37501 0.95004 0.0
C7727 C 0.23751 0.37403 0.93933 0.0
H7728 H 0.19204 0.33733 1.00092 0.0
H7729 H 0.1809 0.30944 0.94484 0.0
H7730 H 0.21935 0.38047 0.98111 0.0
H7731 H 0.19404 0.38211 0.98916 0.0
H7732 H 0.21132 0.36743 1.00312 0.0
H7733 H 0.19593 0.32275 0.91516 0.0
H7734 H 0.18218 0.34559 0.91552 0.0
H7735 H 0.2088 0.3464 0.91547 0.0
H7736 H 0.16671 0.41119 0.93398 0.0
H7737 H 0.22946 0.40898 0.92187 0.0
H7738 H 0.16408 0.36903 0.96522 0.0
H7739 H 0.15869 0.36231 0.94021 0.0
H7740 H 0.14977 0.38551 0.9499 0.0
H7741 H 0.24078 0.37071 0.95508 0.0
H7742 H 0.24975 0.38341 0.93332 0.0
H7743 H 0.23735 0.35964 0.93134 0.0
C7744 C 0.38374 0.46084 0.70597 0.0
C7745 C 0.37707 0.46426 0.68679 0.0
C7746 C 0.40075 0.44951 0.70898 0.0
C7747 C 0.4117 0.44298 0.69229 0.0
C7748 C 0.40398 0.44509 0.673 0.0
C7749 C 0.38628 0.45528 0.67057 0.0
C7750 C 0.40756 0.44552 0.72988 0.0
C7751 C 0.41472 0.43781 0.65477 0.0
C7752 C 0.46571 0.44187 0.70581 0.0
C7753 C 0.46821 0.42146 0.70803 0.0
C7754 C 0.44759 0.44914 0.69888 0.0
C7755 C 0.43186 0.43552 0.69506 0.0
C7756 C 0.4352 0.41488 0.69528 0.0
C7757 C 0.45382 0.40815 0.70095 0.0
C7758 C 0.44475 0.47134 0.69732 0.0
C7759 C 0.41888 0.39984 0.69135 0.0
H7760 H 0.37635 0.46786 0.71836 0.0
H7761 H 0.38081 0.45811 0.65571 0.0
H7762 H 0.41298 0.43008 0.73122 0.0
H7763 H 0.41999 0.45568 0.73376 0.0
H7764 H 0.39541 0.44774 0.74077 0.0
H7765 H 0.41124 0.44716 0.64167 0.0
H7766 H 0.43107 0.43761 0.65673 0.0
H7767 H 0.40962 0.42247 0.65141 0.0
H7768 H 0.47699 0.45204 0.7113 0.0
H7769 H 0.45611 0.39233 0.70278 0.0
H7770 H 0.43634 0.47671 0.71034 0.0
H7771 H 0.43608 0.47511 0.68385 0.0
H7772 H 0.45918 0.47942 0.69688 0.0
H7773 H 0.40423 0.40503 0.69669 0.0
H7774 H 0.42205 0.38539 0.69858 0.0
H7775 H 0.41775 0.39721 0.67519 0.0
C7776 C 0.71565 0.13118 0.10833 0.0
C7777 C 0.69747 0.1207 0.1095 0.0
C7778 C 0.7169 0.14998 0.09933 0.0
C7779 C 0.69945 0.15887 0.09197 0.0
C7780 C 0.68111 0.14847 0.09307 0.0
C7781 C 0.6804 0.12946 0.10155 0.0
C7782 C 0.73681 0.16037 0.09792 0.0
C7783 C 0.66214 0.15737 0.08516 0.0
C7784 C 0.68771 0.21303 0.08506 0.0
C7785 C 0.68663 0.2138 0.06443 0.0
C7786 C 0.69456 0.19575 0.09452 0.0
C7787 C 0.69989 0.17901 0.08296 0.0
C7788 C 0.70129 0.18085 0.06216 0.0
C7789 C 0.69502 0.19845 0.05319 0.0
C7790 C 0.69371 0.19456 0.11679 0.0
C7791 C 0.70702 0.16349 0.04922 0.0
H7792 H 0.72895 0.12493 0.11477 0.0
H7793 H 0.6664 0.12146 0.10185 0.0
H7794 H 0.74037 0.16368 0.08223 0.0
H7795 H 0.73629 0.17481 0.10581 0.0
H7796 H 0.74902 0.15133 0.10424 0.0
H7797 H 0.64907 0.14748 0.0875 0.0
H7798 H 0.65921 0.17181 0.0925 0.0
H7799 H 0.66366 0.16031 0.06906 0.0
H7800 H 0.68146 0.22498 0.09376 0.0
H7801 H 0.69472 0.19936 0.03715 0.0
H7802 H 0.70665 0.18633 0.12271 0.0
H7803 H 0.68006 0.18639 0.12126 0.0
H7804 H 0.6934 0.20957 0.12361 0.0
H7805 H 0.72163 0.15758 0.05384 0.0
H7806 H 0.70781 0.16761 0.0333 0.0
H7807 H 0.69597 0.15128 0.0509 0.0
C7808 C 0.5853 0.94575 0.80404 0.0
C7809 C 0.57031 0.93655 0.81528 0.0
C7810 C 0.60187 0.95436 0.81319 0.0
C7811 C 0.60312 0.95412 0.83408 0.0
C7812 C 0.58623 0.94843 0.84533 0.0
C7813 C 0.56995 0.93935 0.83577 0.0
C7814 C 0.61935 0.96024 0.80044 0.0
C7815 C 0.58648 0.94939 0.86761 0.0
C7816 C 0.65137 0.93258 0.85271 0.0
C7817 C 0.6615 0.94921 0.85998 0.0
C7818 C 0.63234 0.93421 0.84465 0.0
C7819 C 0.62311 0.95302 0.84338 0.0
C7820 C 0.63326 0.97008 0.85036 0.0
C7821 C 0.65225 0.96796 0.8588 0.0
C7822 C 0.62204 0.91552 0.83779 0.0
C7823 C 0.62431 0.99053 0.8487 0.0
H7824 H 0.58513 0.94433 0.78805 0.0
H7825 H 0.55805 0.9328 0.84444 0.0
H7826 H 0.62766 0.97294 0.80693 0.0
H7827 H 0.62966 0.94746 0.79939 0.0
H7828 H 0.6146 0.96423 0.7852 0.0
H7829 H 0.57118 0.94953 0.87374 0.0
H7830 H 0.59424 0.93614 0.87352 0.0
H7831 H 0.59461 0.96282 0.8728 0.0
H7832 H 0.65837 0.91813 0.85316 0.0
H7833 H 0.65965 0.98102 0.86468 0.0
H7834 H 0.61498 0.91762 0.82315 0.0
H7835 H 0.61013 0.91165 0.84846 0.0
H7836 H 0.63258 0.903 0.83673 0.0
H7837 H 0.62604 0.99603 0.83331 0.0
H7838 H 0.63176 1.00136 0.85872 0.0
H7839 H 0.60819 0.99018 0.85208 0.0
C7840 C 0.8788 0.07929 0.34191 0.0
C7841 C 0.87458 0.08719 0.36059 0.0
C7842 C 0.89748 0.08218 0.3332 0.0
C7843 C 0.91234 0.09287 0.34367 0.0
C7844 C 0.9086 0.09946 0.3632 0.0
C7845 C 0.88961 0.0968 0.37135 0.0
C7846 C 0.9007 0.07529 0.31218 0.0
C7847 C 0.92431 0.11034 0.375 0.0
C7848 C 0.96311 0.09583 0.31908 0.0
C7849 C 0.96203 0.11451 0.31003 0.0
C7850 C 0.94752 0.0889 0.33115 0.0
C7851 C 0.93008 0.10044 0.33296 0.0
C7852 C 0.92897 0.1192 0.32352 0.0
C7853 C 0.94509 0.12608 0.31244 0.0
C7854 C 0.94943 0.069 0.34126 0.0
C7855 C 0.91033 0.13157 0.32417 0.0
H7856 H 0.86712 0.07178 0.33368 0.0
H7857 H 0.88639 0.10253 0.38598 0.0
H7858 H 0.90152 0.08841 0.30221 0.0
H7859 H 0.91495 0.06727 0.31087 0.0
H7860 H 0.88851 0.06539 0.30693 0.0
H7861 H 0.92025 0.11156 0.39089 0.0
H7862 H 0.93879 0.10263 0.3738 0.0
H7863 H 0.92635 0.12556 0.36894 0.0
H7864 H 0.9759 0.08652 0.31637 0.0
H7865 H 0.94387 0.13986 0.30431 0.0
H7866 H 0.94033 0.05777 0.33329 0.0
H7867 H 0.94387 0.06975 0.3567 0.0
H7868 H 0.96507 0.06383 0.3415 0.0
H7869 H 0.89733 0.12263 0.31923 0.0
H7870 H 0.91139 0.14494 0.31458 0.0
H7871 H 0.90744 0.13641 0.33959 0.0
C7872 C 0.41522 0.20042 0.14426 0.0
C7873 C 0.42535 0.21662 0.13604 0.0
C7874 C 0.4252 0.18696 0.1564 0.0
C7875 C 0.44572 0.18985 0.1599 0.0
C7876 C 0.45642 0.20473 0.14945 0.0
C7877 C 0.44594 0.21831 0.13786 0.0
C7878 C 0.41331 0.17135 0.16738 0.0
C7879 C 0.47853 0.20756 0.15206 0.0
C7880 C 0.46645 0.18295 0.21118 0.0
C7881 C 0.47483 0.16415 0.20967 0.0
C7882 C 0.45573 0.19087 0.19537 0.0
C7883 C 0.45496 0.18034 0.17721 0.0
C7884 C 0.46359 0.16136 0.17558 0.0
C7885 C 0.47305 0.15323 0.19211 0.0
C7886 C 0.44591 0.21084 0.19789 0.0
C7887 C 0.4641 0.15035 0.15611 0.0
H7888 H 0.39921 0.19934 0.14266 0.0
H7889 H 0.4536 0.23089 0.13122 0.0
H7890 H 0.42136 0.15706 0.16817 0.0
H7891 H 0.41086 0.17644 0.18281 0.0
H7892 H 0.39861 0.16868 0.16036 0.0
H7893 H 0.48507 0.21635 0.13972 0.0
H7894 H 0.48146 0.21566 0.16608 0.0
H7895 H 0.48617 0.19302 0.15296 0.0
H7896 H 0.46861 0.19156 0.22459 0.0
H7897 H 0.48036 0.13897 0.1909 0.0
H7898 H 0.43039 0.21025 0.19238 0.0
H7899 H 0.45399 0.22224 0.1891 0.0
H7900 H 0.44573 0.21568 0.21361 0.0
H7901 H 0.44908 0.14938 0.14945 0.0
H7902 H 0.47006 0.13508 0.15773 0.0
H7903 H 0.47358 0.15872 0.14552 0.0
C7904 C 0.60198 0.70603 0.96349 0.0
C7905 C 0.60716 0.72611 0.96397 0.0
C7906 C 0.59059 0.69835 0.94785 0.0
C7907 C 0.58521 0.71106 0.93204 0.0
C7908 C 0.58725 0.73185 0.93436 0.0
C7909 C 0.59811 0.7392 0.95053 0.0
C7910 C 0.58734 0.67619 0.94669 0.0
C7911 C 0.58087 0.74609 0.91834 0.0
C7912 C 0.60172 0.68943 0.88326 0.0
C7913 C 0.58422 0.68064 0.87607 0.0
C7914 C 0.60198 0.69991 0.90112 0.0
C7915 C 0.58406 0.7025 0.9118 0.0
C7916 C 0.56599 0.69526 0.90383 0.0
C7917 C 0.56633 0.684 0.8863 0.0
C7918 C 0.62172 0.70744 0.90893 0.0
C7919 C 0.54638 0.69855 0.91407 0.0
H7920 H 0.60867 0.69596 0.97382 0.0
H7921 H 0.60179 0.75491 0.95109 0.0
H7922 H 0.57294 0.6726 0.93953 0.0
H7923 H 0.59935 0.66951 0.93768 0.0
H7924 H 0.58761 0.66927 0.96162 0.0
H7925 H 0.5786 0.76128 0.92433 0.0
H7926 H 0.5926 0.74697 0.90683 0.0
H7927 H 0.56696 0.7409 0.91111 0.0
H7928 H 0.61546 0.68779 0.87514 0.0
H7929 H 0.5526 0.67736 0.88108 0.0
H7930 H 0.62513 0.70021 0.92331 0.0
H7931 H 0.6211 0.7237 0.9115 0.0
H7932 H 0.63416 0.70443 0.89861 0.0
H7933 H 0.54323 0.68582 0.92407 0.0
H7934 H 0.53407 0.69936 0.90313 0.0
H7935 H 0.54646 0.71236 0.92304 0.0
C7936 C 0.1053 0.79771 0.64365 0.0
C7937 C 0.11308 0.81357 0.63269 0.0
C7938 C 0.0913 0.80122 0.6585 0.0
C7939 C 0.08536 0.82098 0.66218 0.0
C7940 C 0.09117 0.83653 0.64921 0.0
C7941 C 0.1052 0.8326 0.63458 0.0
C7942 C 0.08489 0.78424 0.67169 0.0
C7943 C 0.08454 0.85773 0.65228 0.0
C7944 C 0.0479 0.83716 0.69965 0.0
C7945 C 0.06042 0.84598 0.71383 0.0
C7946 C 0.05571 0.82756 0.68317 0.0
C7947 C 0.07649 0.82624 0.68135 0.0
C7948 C 0.08909 0.83292 0.6969 0.0
C7949 C 0.08084 0.84292 0.71306 0.0
C7950 C 0.04178 0.82108 0.66682 0.0
C7951 C 0.1114 0.83131 0.69551 0.0
H7952 H 0.11157 0.783 0.64196 0.0
H7953 H 0.11138 0.84472 0.62589 0.0
H7954 H 0.09411 0.78437 0.68532 0.0
H7955 H 0.06916 0.78575 0.67624 0.0
H7956 H 0.08681 0.76966 0.66425 0.0
H7957 H 0.08738 0.86708 0.63899 0.0
H7958 H 0.06848 0.85829 0.65585 0.0
H7959 H 0.0928 0.86431 0.66493 0.0
H7960 H 0.03196 0.83924 0.70055 0.0
H7961 H 0.09043 0.84972 0.72408 0.0
H7962 H 0.04713 0.80753 0.65925 0.0
H7963 H 0.04086 0.83311 0.6556 0.0
H7964 H 0.02655 0.81822 0.67253 0.0
H7965 H 0.11571 0.81625 0.69046 0.0
H7966 H 0.11876 0.83441 0.70991 0.0
H7967 H 0.11707 0.84218 0.68446 0.0
C7968 C 0.93673 0.31294 0.4679 0.0
C7969 C 0.92229 0.30001 0.4603 0.0
C7970 C 0.95014 0.32259 0.45506 0.0
C7971 C 0.94933 0.31845 0.43451 0.0
C7972 C 0.93788 0.3022 0.42776 0.0
C7973 C 0.9241 0.29354 0.44058 0.0
C7974 C 0.96358 0.33866 0.46307 0.0
C7975 C 0.93824 0.29568 0.40638 0.0
C7976 C 0.94289 0.36173 0.39959 0.0
C7977 C 0.9615 0.36327 0.39053 0.0
C7978 C 0.93916 0.34757 0.41426 0.0
C7979 C 0.95438 0.33426 0.42 0.0
C7980 C 0.97321 0.33542 0.41075 0.0
C7981 C 0.97664 0.35014 0.39629 0.0
C7982 C 0.91839 0.34625 0.42274 0.0
C7983 C 0.98968 0.32114 0.41577 0.0
H7984 H 0.93682 0.31645 0.48343 0.0
H7985 H 0.91408 0.28232 0.4347 0.0
H7986 H 0.97845 0.33781 0.45612 0.0
H7987 H 0.95724 0.3534 0.4594 0.0
H7988 H 0.96527 0.33755 0.4794 0.0
H7989 H 0.93313 0.28001 0.40478 0.0
H7990 H 0.92814 0.30523 0.3976 0.0
H7991 H 0.95339 0.29713 0.40008 0.0
H7992 H 0.9309 0.37125 0.39477 0.0
H7993 H 0.99114 0.35124 0.38941 0.0
H7994 H 0.91876 0.34353 0.43889 0.0
H7995 H 0.91035 0.3336 0.41578 0.0
H7996 H 0.90974 0.35997 0.41992 0.0
H7997 H 0.99863 0.32738 0.42812 0.0
H7998 H 0.99978 0.31903 0.40296 0.0
H7999 H 0.9839 0.30639 0.42048 0.0
C8000 C 0.46667 0.87516 0.33275 0.0
C8001 C 0.4755 0.86154 0.31991 0.0
C8002 C 0.4558 0.86873 0.34926 0.0
C8003 C 0.45395 0.84811 0.35325 0.0
C8004 C 0.46208 0.83421 0.33978 0.0
C8005 C 0.47298 0.84114 0.32335 0.0
C8006 C 0.44744 0.88412 0.36317 0.0
C8007 C 0.46019 0.81212 0.34327 0.0
C8008 C 0.44866 0.83921 0.4084 0.0
C8009 C 0.42802 0.83875 0.4105 0.0
C8010 C 0.45742 0.84063 0.38958 0.0
C8011 C 0.44517 0.84161 0.3725 0.0
C8012 C 0.42432 0.83958 0.37454 0.0
C8013 C 0.41595 0.83832 0.39359 0.0
C8014 C 0.47973 0.84251 0.38814 0.0
C8015 C 0.41079 0.84002 0.35671 0.0
H8016 H 0.46926 0.89091 0.33059 0.0
H8017 H 0.48029 0.83063 0.31369 0.0
H8018 H 0.43143 0.88123 0.36579 0.0
H8019 H 0.45511 0.8832 0.37769 0.0
H8020 H 0.44921 0.89949 0.35734 0.0
H8021 H 0.46594 0.80334 0.3306 0.0
H8022 H 0.46857 0.80792 0.35677 0.0
H8023 H 0.44442 0.80798 0.3458 0.0
H8024 H 0.45791 0.83929 0.42155 0.0
H8025 H 0.39996 0.83768 0.39531 0.0
H8026 H 0.48376 0.85803 0.38412 0.0
H8027 H 0.48557 0.83268 0.37636 0.0
H8028 H 0.4872 0.83875 0.40232 0.0
H8029 H 0.4096 0.85553 0.35123 0.0
H8030 H 0.39564 0.83449 0.36031 0.0
H8031 H 0.41692 0.83094 0.34449 0.0
C8032 C 0.9559 0.66504 0.13609 0.0
C8033 C 0.97015 0.67553 0.14696 0.0
C8034 C 0.94363 0.67493 0.12272 0.0
C8035 C 0.94611 0.69563 0.12016 0.0
C8036 C 0.95974 0.70646 0.13205 0.0
C8037 C 0.97173 0.69616 0.14543 0.0
C8038 C 0.92882 0.6631 0.11065 0.0
C8039 C 0.96251 0.72866 0.12982 0.0
C8040 C 0.93524 0.71829 0.07032 0.0
C8041 C 0.91723 0.72756 0.07414 0.0
C8042 C 0.94452 0.70709 0.08507 0.0
C8043 C 0.93558 0.7057 0.10401 0.0
C8044 C 0.91722 0.71491 0.10778 0.0
C8045 C 0.90843 0.72603 0.09278 0.0
C8046 C 0.96435 0.6977 0.08077 0.0
C8047 C 0.90762 0.71427 0.12797 0.0
H8048 H 0.95482 0.64901 0.13761 0.0
H8049 H 0.98284 0.70403 0.15409 0.0
H8050 H 0.91439 0.6709 0.10978 0.0
H8051 H 0.93451 0.66149 0.09534 0.0
H8052 H 0.92629 0.648 0.11689 0.0
H8053 H 0.9716 0.73509 0.142 0.0
H8054 H 0.97005 0.73186 0.11556 0.0
H8055 H 0.94798 0.73631 0.12949 0.0
H8056 H 0.94252 0.72064 0.05623 0.0
H8057 H 0.89537 0.73477 0.09603 0.0
H8058 H 0.9635 0.68145 0.08354 0.0
H8059 H 0.97584 0.70391 0.09086 0.0
H8060 H 0.96921 0.7002 0.06525 0.0
H8061 H 0.90753 0.69888 0.13392 0.0
H8062 H 0.89215 0.7199 0.12763 0.0
H8063 H 0.91628 0.72362 0.13842 0.0
C8064 C 0.08943 0.20633 0.89752 0.0
C8065 C 0.10697 0.21715 0.89448 0.0
C8066 C 0.07681 0.20207 0.88156 0.0
C8067 C 0.08215 0.20877 0.86239 0.0
C8068 C 0.09797 0.22247 0.86008 0.0
C8069 C 0.11056 0.22621 0.87618 0.0
C8070 C 0.05926 0.18838 0.8848 0.0
C8071 C 0.10306 0.23109 0.84009 0.0
C8072 C 0.07939 0.16639 0.82623 0.0
C8073 C 0.0627 0.1711 0.81492 0.0
C8074 C 0.08649 0.17927 0.8408 0.0
C8075 C 0.07587 0.19687 0.84506 0.0
C8076 C 0.05906 0.20193 0.8336 0.0
C8077 C 0.05273 0.18895 0.81859 0.0
C8078 C 0.1046 0.17322 0.85256 0.0
C8079 C 0.04661 0.21995 0.83812 0.0
H8080 H 0.08644 0.1999 0.91195 0.0
H8081 H 0.1238 0.23527 0.87418 0.0
H8082 H 0.04653 0.19285 0.87539 0.0
H8083 H 0.06342 0.173 0.88062 0.0
H8084 H 0.05449 0.18826 0.90054 0.0
H8085 H 0.11269 0.2445 0.84146 0.0
H8086 H 0.11106 0.21979 0.83126 0.0
H8087 H 0.08938 0.2351 0.83187 0.0
H8088 H 0.08621 0.15193 0.82456 0.0
H8089 H 0.03888 0.19194 0.81125 0.0
H8090 H 0.10019 0.16946 0.86795 0.0
H8091 H 0.11549 0.18564 0.85327 0.0
H8092 H 0.11211 0.1601 0.84607 0.0
H8093 H 0.03454 0.21554 0.84846 0.0
H8094 H 0.03951 0.22578 0.82445 0.0
H8095 H 0.05537 0.23204 0.84516 0.0
C8096 C 0.56309 0.37049 0.64028 0.0
C8097 C 0.57908 0.37319 0.6533 0.0
C8098 C 0.5646 0.35726 0.62431 0.0
C8099 C 0.58251 0.34675 0.62155 0.0
C8100 C 0.59816 0.34861 0.63547 0.0
C8101 C 0.59626 0.36194 0.65117 0.0
C8102 C 0.54731 0.35478 0.61027 0.0
C8103 C 0.61711 0.33686 0.63354 0.0
C8104 C 0.59326 0.30344 0.58852 0.0
C8105 C 0.60362 0.31292 0.57318 0.0
C8106 C 0.5839 0.31445 0.60329 0.0
C8107 C 0.58605 0.33535 0.60322 0.0
C8108 C 0.59536 0.34503 0.58701 0.0
C8109 C 0.60378 0.33362 0.57191 0.0
C8110 C 0.57328 0.30346 0.61971 0.0
C8111 C 0.59823 0.36731 0.58664 0.0
H8112 H 0.54955 0.37881 0.64254 0.0
H8113 H 0.6082 0.36364 0.66184 0.0
H8114 H 0.55097 0.36178 0.59585 0.0
H8115 H 0.54435 0.33878 0.60744 0.0
H8116 H 0.53357 0.36169 0.61609 0.0
H8117 H 0.62765 0.33982 0.64587 0.0
H8118 H 0.61364 0.32073 0.63336 0.0
H8119 H 0.62459 0.34054 0.61935 0.0
H8120 H 0.59299 0.28736 0.58939 0.0
H8121 H 0.61189 0.34087 0.56003 0.0
H8122 H 0.56149 0.3126 0.62654 0.0
H8123 H 0.58414 0.29945 0.63139 0.0
H8124 H 0.56652 0.28943 0.61411 0.0
H8125 H 0.58403 0.37492 0.58981 0.0
H8126 H 0.60399 0.37266 0.57216 0.0
H8127 H 0.60897 0.37169 0.59836 0.0
C8128 C 0.12753 0.44634 0.18418 0.0
C8129 C 0.12239 0.43259 0.19897 0.0
C8130 C 0.14663 0.45467 0.18316 0.0
C8131 C 0.16106 0.44951 0.19755 0.0
C8132 C 0.15561 0.43686 0.21344 0.0
C8133 C 0.13639 0.42837 0.21387 0.0
C8134 C 0.15161 0.4683 0.16602 0.0
C8135 C 0.17023 0.43173 0.22957 0.0
C8136 C 0.21028 0.4542 0.17185 0.0
C8137 C 0.2146 0.47426 0.17518 0.0
C8138 C 0.19428 0.44484 0.18153 0.0
C8139 C 0.18208 0.45605 0.1944 0.0
C8140 C 0.1881 0.47551 0.1998 0.0
C8141 C 0.20423 0.48443 0.18997 0.0
C8142 C 0.18899 0.42369 0.17617 0.0
C8143 C 0.17611 0.48793 0.21392 0.0
H8144 H 0.11669 0.45023 0.17299 0.0
H8145 H 0.13266 0.41783 0.22545 0.0
H8146 H 0.15763 0.48263 0.17158 0.0
H8147 H 0.16322 0.4614 0.15666 0.0
H8148 H 0.13849 0.47144 0.15656 0.0
H8149 H 0.16274 0.42514 0.2427 0.0
H8150 H 0.18108 0.42083 0.22386 0.0
H8151 H 0.1787 0.44512 0.2343 0.0
H8152 H 0.21791 0.44645 0.16014 0.0
H8153 H 0.20738 0.50009 0.19237 0.0
H8154 H 0.1743 0.42323 0.16872 0.0
H8155 H 0.18776 0.41455 0.18979 0.0
H8156 H 0.20016 0.41686 0.16625 0.0
H8157 H 0.16457 0.49607 0.20549 0.0
H8158 H 0.18568 0.49911 0.22149 0.0
H8159 H 0.16857 0.47863 0.22525 0.0
C8160 C 0.33976 0.45661 0.93064 0.0
C8161 C 0.32054 0.46241 0.93561 0.0
C8162 C 0.34798 0.43956 0.93933 0.0
C8163 C 0.33678 0.42875 0.95356 0.0
C8164 C 0.31905 0.43685 0.96107 0.0
C8165 C 0.31079 0.45325 0.95148 0.0
C8166 C 0.36749 0.43186 0.93166 0.0
C8167 C 0.30782 0.42702 0.97778 0.0
C8168 C 0.33559 0.37394 0.94202 0.0
C8169 C 0.35111 0.36692 0.95366 0.0
C8170 C 0.32996 0.39385 0.94298 0.0
C8171 C 0.34027 0.40712 0.95575 0.0
C8172 C 0.35493 0.39975 0.96873 0.0
C8173 C 0.36042 0.37973 0.96733 0.0
C8174 C 0.31322 0.40069 0.9299 0.0
C8175 C 0.36516 0.41285 0.98379 0.0
H8176 H 0.34746 0.46407 0.91862 0.0
H8177 H 0.29611 0.45805 0.95549 0.0
H8178 H 0.37762 0.42858 0.94415 0.0
H8179 H 0.36497 0.41774 0.92349 0.0
H8180 H 0.37496 0.44267 0.92165 0.0
H8181 H 0.2972 0.43744 0.98477 0.0
H8182 H 0.29928 0.41408 0.97211 0.0
H8183 H 0.31826 0.42148 0.98923 0.0
H8184 H 0.32799 0.36386 0.93199 0.0
H8185 H 0.37237 0.37427 0.97658 0.0
H8186 H 0.31775 0.41435 0.92188 0.0
H8187 H 0.30011 0.40436 0.93905 0.0
H8188 H 0.3086 0.38912 0.91909 0.0
H8189 H 0.37923 0.4187 0.97747 0.0
H8190 H 0.36902 0.4042 0.99726 0.0
H8191 H 0.35582 0.42564 0.98818 0.0
C8192 C 0.37572 0.60781 0.72943 0.0
C8193 C 0.39101 0.61261 0.7162 0.0
C8194 C 0.36116 0.59366 0.72436 0.0
C8195 C 0.36186 0.58455 0.7055 0.0
C8196 C 0.37841 0.58803 0.69296 0.0
C8197 C 0.39281 0.60213 0.69846 0.0
C8198 C 0.34418 0.58986 0.73843 0.0
C8199 C 0.38016 0.57786 0.67312 0.0
C8200 C 0.32728 0.54405 0.68705 0.0
C8201 C 0.31551 0.55486 0.67373 0.0
C8202 C 0.34179 0.55354 0.69863 0.0
C8203 C 0.344 0.57441 0.69729 0.0
C8204 C 0.33062 0.58553 0.68548 0.0
C8205 C 0.31686 0.57553 0.6734 0.0
C8206 C 0.35598 0.54103 0.71059 0.0
C8207 C 0.33233 0.60786 0.68386 0.0
H8208 H 0.3746 0.61586 0.74328 0.0
H8209 H 0.40484 0.60581 0.68842 0.0
H8210 H 0.33125 0.59889 0.73379 0.0
H8211 H 0.33948 0.57402 0.73819 0.0
H8212 H 0.34817 0.594 0.75385 0.0
H8213 H 0.39403 0.58205 0.6652 0.0
H8214 H 0.37984 0.56151 0.67517 0.0
H8215 H 0.36729 0.58173 0.66368 0.0
H8216 H 0.32652 0.52793 0.68689 0.0
H8217 H 0.30864 0.58377 0.66239 0.0
H8218 H 0.35861 0.54764 0.72539 0.0
H8219 H 0.37052 0.54047 0.70291 0.0
H8220 H 0.35043 0.52554 0.71248 0.0
H8221 H 0.31912 0.61445 0.67663 0.0
H8222 H 0.34562 0.6118 0.67495 0.0
H8223 H 0.33415 0.61463 0.69873 0.0
C8224 C 0.18786 0.65298 0.45835 0.0
C8225 C 0.17032 0.65686 0.44791 0.0
C8226 C 0.19713 0.63446 0.45692 0.0
C8227 C 0.18849 0.6195 0.44486 0.0
C8228 C 0.16966 0.62268 0.43611 0.0
C8229 C 0.16089 0.64147 0.43751 0.0
C8230 C 0.2172 0.63181 0.46652 0.0
C8231 C 0.15966 0.60673 0.42389 0.0
C8232 C 0.22435 0.59221 0.41208 0.0
C8233 C 0.226 0.57387 0.42156 0.0
C8234 C 0.21219 0.60705 0.41965 0.0
C8235 C 0.20115 0.60334 0.43711 0.0
C8236 C 0.20285 0.5848 0.44694 0.0
C8237 C 0.21576 0.57036 0.43924 0.0
C8238 C 0.21197 0.62706 0.40944 0.0
C8239 C 0.1914 0.58039 0.46563 0.0
H8240 H 0.19504 0.66485 0.4666 0.0
H8241 H 0.14699 0.64435 0.42994 0.0
H8242 H 0.21931 0.61635 0.47178 0.0
H8243 H 0.22898 0.63507 0.45548 0.0
H8244 H 0.21927 0.6421 0.47922 0.0
H8245 H 0.1445 0.61104 0.41911 0.0
H8246 H 0.16868 0.6036 0.41054 0.0
H8247 H 0.15867 0.59274 0.43255 0.0
H8248 H 0.23354 0.59532 0.39928 0.0
H8249 H 0.2182 0.55661 0.44723 0.0
H8250 H 0.21809 0.63858 0.41954 0.0
H8251 H 0.19652 0.63135 0.40578 0.0
H8252 H 0.22089 0.62721 0.39563 0.0
H8253 H 0.19405 0.59219 0.4768 0.0
H8254 H 0.19544 0.56581 0.47218 0.0
H8255 H 0.17526 0.58028 0.46233 0.0
C8256 C 0.12687 0.61132 0.32495 0.0
C8257 C 0.11303 0.6024 0.33788 0.0
C8258 C 0.14698 0.60571 0.32509 0.0
C8259 C 0.15355 0.59137 0.33893 0.0
C8260 C 0.13946 0.58178 0.35138 0.0
C8261 C 0.11946 0.5873 0.35056 0.0
C8262 C 0.16117 0.61513 0.31048 0.0
C8263 C 0.14505 0.56536 0.36553 0.0
C8264 C 0.20025 0.56094 0.33998 0.0
C8265 C 0.21172 0.57115 0.3541 0.0
C8266 C 0.1824 0.56875 0.33278 0.0
C8267 C 0.17507 0.58658 0.34095 0.0
C8268 C 0.18724 0.5977 0.35413 0.0
C8269 C 0.2057 0.59003 0.36019 0.0
C8270 C 0.17049 0.55678 0.31803 0.0
C8271 C 0.17983 0.61648 0.36371 0.0
H8272 H 0.12215 0.62302 0.315 0.0
H8273 H 0.10882 0.57978 0.36005 0.0
H8274 H 0.17198 0.62478 0.31838 0.0
H8275 H 0.16979 0.60346 0.30277 0.0
H8276 H 0.15334 0.62426 0.29923 0.0
H8277 H 0.14184 0.55081 0.35844 0.0
H8278 H 0.16093 0.56579 0.36966 0.0
H8279 H 0.13599 0.56612 0.37924 0.0
H8280 H 0.20441 0.54604 0.33564 0.0
H8281 H 0.21433 0.5979 0.37119 0.0
H8282 H 0.16243 0.56664 0.30761 0.0
H8283 H 0.15936 0.54758 0.32603 0.0
H8284 H 0.18014 0.54665 0.30939 0.0
H8285 H 0.17185 0.62597 0.35295 0.0
H8286 H 0.19215 0.62532 0.37026 0.0
H8287 H 0.16918 0.61247 0.3756 0.0
C8288 C 0.20468 0.37258 0.08033 0.0
C8289 C 0.185 0.36668 0.07702 0.0
C8290 C 0.21001 0.39279 0.08045 0.0
C8291 C 0.19513 0.40738 0.07779 0.0
C8292 C 0.17587 0.40137 0.07179 0.0
C8293 C 0.17096 0.38102 0.07155 0.0
C8294 C 0.23146 0.39842 0.08399 0.0
C8295 C 0.16004 0.41647 0.06726 0.0
C8296 C 0.20078 0.44793 0.11596 0.0
C8297 C 0.21258 0.46183 0.10598 0.0
C8298 C 0.19384 0.43076 0.10644 0.0
C8299 C 0.19839 0.42763 0.08619 0.0
C8300 C 0.20861 0.44268 0.07549 0.0
C8301 C 0.2159 0.45949 0.08565 0.0
C8302 C 0.18349 0.41502 0.11872 0.0
C8303 C 0.21344 0.44038 0.05383 0.0
H8304 H 0.21574 0.3614 0.08358 0.0
H8305 H 0.15579 0.37646 0.06844 0.0
H8306 H 0.23837 0.40226 0.06957 0.0
H8307 H 0.23293 0.41163 0.09366 0.0
H8308 H 0.24 0.38597 0.09057 0.0
H8309 H 0.14767 0.40986 0.05853 0.0
H8310 H 0.15386 0.42228 0.08132 0.0
H8311 H 0.16641 0.42926 0.05895 0.0
H8312 H 0.19828 0.44973 0.13167 0.0
H8313 H 0.22542 0.46992 0.07798 0.0
H8314 H 0.1935 0.4021 0.12063 0.0
H8315 H 0.1698 0.40967 0.11127 0.0
H8316 H 0.17935 0.4206 0.13357 0.0
H8317 H 0.22817 0.43324 0.05236 0.0
H8318 H 0.21433 0.45512 0.04641 0.0
H8319 H 0.20226 0.43102 0.04607 0.0
C8320 C 0.33013 0.45877 0.87437 0.0
C8321 C 0.32057 0.4732 0.86306 0.0
C8322 C 0.34547 0.44733 0.86635 0.0
C8323 C 0.35155 0.45059 0.84652 0.0
C8324 C 0.34039 0.46357 0.83437 0.0
C8325 C 0.32518 0.47497 0.84289 0.0
C8326 C 0.35654 0.4334 0.87985 0.0
C8327 C 0.34559 0.46679 0.81289 0.0
C8328 C 0.40755 0.4479 0.84325 0.0
C8329 C 0.41046 0.42833 0.83706 0.0
C8330 C 0.38839 0.45581 0.84471 0.0
C8331 C 0.37164 0.4437 0.84029 0.0
C8332 C 0.37457 0.42429 0.83276 0.0
C8333 C 0.39402 0.41681 0.83117 0.0
C8334 C 0.38606 0.47682 0.85212 0.0
C8335 C 0.35719 0.41103 0.82748 0.0
H8336 H 0.32679 0.45752 0.88994 0.0
H8337 H 0.3178 0.48622 0.83409 0.0
H8338 H 0.36074 0.41958 0.87205 0.0
H8339 H 0.3704 0.44082 0.88494 0.0
H8340 H 0.3475 0.42931 0.89299 0.0
H8341 H 0.3331 0.47361 0.80459 0.0
H8342 H 0.35864 0.47688 0.81182 0.0
H8343 H 0.34959 0.45254 0.80571 0.0
H8344 H 0.42033 0.45689 0.84737 0.0
H8345 H 0.39633 0.40171 0.82613 0.0
H8346 H 0.3787 0.47652 0.86681 0.0
H8347 H 0.37647 0.48545 0.84195 0.0
H8348 H 0.40055 0.4847 0.85354 0.0
H8349 H 0.35081 0.40455 0.8412 0.0
H8350 H 0.36174 0.39862 0.81767 0.0
H8351 H 0.34527 0.41959 0.82007 0.0
C8352 C 0.37943 0.63542 0.57001 0.0
C8353 C 0.37234 0.65337 0.57754 0.0
C8354 C 0.36763 0.61823 0.57078 0.0
C8355 C 0.34874 0.61911 0.57982 0.0
C8356 C 0.34085 0.63761 0.58574 0.0
C8357 C 0.35283 0.65457 0.58454 0.0
C8358 C 0.37592 0.59885 0.56335 0.0
C8359 C 0.32066 0.63943 0.59523 0.0
C8360 C 0.31472 0.57473 0.5861 0.0
C8361 C 0.32059 0.56812 0.60482 0.0
C8362 C 0.3245 0.59069 0.577 0.0
C8363 C 0.33972 0.60068 0.58752 0.0
C8364 C 0.34568 0.5939 0.60648 0.0
C8365 C 0.33615 0.57744 0.61482 0.0
C8366 C 0.31755 0.59766 0.55691 0.0
C8367 C 0.3612 0.60485 0.61852 0.0
H8368 H 0.39424 0.6348 0.56376 0.0
H8369 H 0.34721 0.66867 0.58985 0.0
H8370 H 0.38093 0.58979 0.57614 0.0
H8371 H 0.36432 0.59017 0.5554 0.0
H8372 H 0.38876 0.60125 0.55329 0.0
H8373 H 0.31393 0.65407 0.5918 0.0
H8374 H 0.31025 0.62754 0.59045 0.0
H8375 H 0.32244 0.63843 0.61154 0.0
H8376 H 0.30178 0.56821 0.57907 0.0
H8377 H 0.3399 0.5727 0.62972 0.0
H8378 H 0.33036 0.60172 0.54737 0.0
H8379 H 0.3083 0.61112 0.55867 0.0
H8380 H 0.30848 0.58612 0.54926 0.0
H8381 H 0.37523 0.60621 0.61003 0.0
H8382 H 0.36443 0.59731 0.63274 0.0
H8383 H 0.35598 0.62011 0.6218 0.0
C8384 C 0.21464 0.12379 0.42618 0.0
C8385 C 0.19939 0.1111 0.43312 0.0
C8386 C 0.21599 0.14372 0.43237 0.0
C8387 C 0.20132 0.15139 0.44515 0.0
C8388 C 0.18634 0.13855 0.45266 0.0
C8389 C 0.18579 0.11857 0.44686 0.0
C8390 C 0.23281 0.15663 0.42488 0.0
C8391 C 0.17051 0.14601 0.46653 0.0
C8392 C 0.20072 0.19743 0.47653 0.0
C8393 C 0.18716 0.20904 0.46594 0.0
C8394 C 0.20778 0.17953 0.4687 0.0
C8395 C 0.2006 0.17294 0.45012 0.0
C8396 C 0.18873 0.18582 0.43846 0.0
C8397 C 0.18226 0.2039 0.4465 0.0
C8398 C 0.22103 0.1667 0.48134 0.0
C8399 C 0.18058 0.17935 0.41865 0.0
H8400 H 0.22522 0.11845 0.4154 0.0
H8401 H 0.17437 0.10888 0.45286 0.0
H8402 H 0.22705 0.16744 0.41391 0.0
H8403 H 0.2395 0.1653 0.4372 0.0
H8404 H 0.24464 0.14774 0.4177 0.0
H8405 H 0.15844 0.13492 0.46891 0.0
H8406 H 0.17722 0.14968 0.48109 0.0
H8407 H 0.16394 0.15981 0.46054 0.0
H8408 H 0.20452 0.20153 0.4916 0.0
H8409 H 0.17157 0.21282 0.43847 0.0
H8410 H 0.23195 0.15861 0.47213 0.0
H8411 H 0.21185 0.15549 0.48927 0.0
H8412 H 0.22916 0.17567 0.49257 0.0
H8413 H 0.19235 0.17248 0.40953 0.0
H8414 H 0.17408 0.19197 0.41029 0.0
H8415 H 0.16879 0.16798 0.42101 0.0
C8416 C 0.67258 0.31826 0.57966 0.0
C8417 C 0.67517 0.31261 0.56001 0.0
C8418 C 0.68469 0.33287 0.58815 0.0
C8419 C 0.69866 0.3431 0.57613 0.0
C8420 C 0.70202 0.33684 0.55647 0.0
C8421 C 0.69036 0.32135 0.54875 0.0
C8422 C 0.68086 0.33903 0.60932 0.0
C8423 C 0.71616 0.34787 0.54295 0.0
C8424 C 0.69676 0.39508 0.59504 0.0
C8425 C 0.71248 0.39476 0.60848 0.0
C8426 C 0.69365 0.37915 0.58213 0.0
C8427 C 0.70634 0.36244 0.58325 0.0
C8428 C 0.72355 0.36317 0.59524 0.0
C8429 C 0.72643 0.37947 0.60786 0.0
C8430 C 0.6755 0.3793 0.56895 0.0
C8431 C 0.73777 0.34599 0.59631 0.0
H8432 H 0.6599 0.31266 0.58783 0.0
H8433 H 0.69136 0.31786 0.53315 0.0
H8434 H 0.69507 0.34001 0.61761 0.0
H8435 H 0.67392 0.35393 0.60961 0.0
H8436 H 0.67078 0.32852 0.61711 0.0
H8437 H 0.71699 0.34101 0.52803 0.0
H8438 H 0.71132 0.36352 0.54121 0.0
H8439 H 0.73126 0.34824 0.54949 0.0
H8440 H 0.68642 0.40737 0.59527 0.0
H8441 H 0.73895 0.37974 0.61797 0.0
H8442 H 0.66353 0.3703 0.57594 0.0
H8443 H 0.67877 0.37266 0.55431 0.0
H8444 H 0.66984 0.39461 0.56667 0.0
H8445 H 0.73206 0.33491 0.60712 0.0
H8446 H 0.75273 0.35096 0.60129 0.0
H8447 H 0.7392 0.33845 0.5818 0.0
C8448 C 0.4393 0.92992 0.30038 0.0
C8449 C 0.45888 0.93031 0.30771 0.0
C8450 C 0.42455 0.94118 0.30903 0.0
C8451 C 0.42974 0.95371 0.32487 0.0
C8452 C 0.4496 0.95522 0.3316 0.0
C8453 C 0.46402 0.94313 0.32311 0.0
C8454 C 0.40333 0.93864 0.30201 0.0
C8455 C 0.45539 0.96903 0.34828 0.0
C8456 C 0.39546 0.99323 0.343 0.0
C8457 C 0.38826 0.98401 0.36007 0.0
C8458 C 0.40832 0.98302 0.33054 0.0
C8459 C 0.41411 0.96359 0.33586 0.0
C8460 C 0.40596 0.9539 0.35256 0.0
C8461 C 0.39299 0.96435 0.36457 0.0
C8462 C 0.41629 0.99321 0.31223 0.0
C8463 C 0.4116 0.93292 0.35826 0.0
H8464 H 0.43515 0.92035 0.28815 0.0
H8465 H 0.47912 0.94363 0.3286 0.0
H8466 H 0.39565 0.95314 0.30107 0.0
H8467 H 0.40246 0.93126 0.28732 0.0
H8468 H 0.39506 0.92929 0.3128 0.0
H8469 H 0.47175 0.97 0.35027 0.0
H8470 H 0.4496 0.98417 0.34542 0.0
H8471 H 0.44867 0.96367 0.36231 0.0
H8472 H 0.39121 1.00839 0.33961 0.0
H8473 H 0.38705 0.95743 0.37784 0.0
H8474 H 0.41492 0.98331 0.29916 0.0
H8475 H 0.43231 0.99656 0.31428 0.0
H8476 H 0.40841 1.0073 0.30901 0.0
H8477 H 0.41013 0.9228 0.34538 0.0
H8478 H 0.4023 0.927 0.37054 0.0
H8479 H 0.42736 0.93266 0.36304 0.0
C8480 C 0.82526 0.62582 0.11126 0.0
C8481 C 0.83687 0.61192 0.10104 0.0
C8482 C 0.82523 0.64594 0.10572 0.0
C8483 C 0.83739 0.65235 0.08986 0.0
C8484 C 0.84828 0.6381 0.07885 0.0
C8485 C 0.84803 0.61813 0.08475 0.0
C8486 C 0.81207 0.66028 0.1167 0.0
C8487 C 0.8599 0.64325 0.06045 0.0
C8488 C 0.83561 0.70099 0.06207 0.0
C8489 C 0.85028 0.71229 0.07181 0.0
C8490 C 0.82949 0.68238 0.0692 0.0
C8491 C 0.83959 0.67395 0.08546 0.0
C8492 C 0.85378 0.68553 0.09594 0.0
C8493 C 0.85835 0.70492 0.08942 0.0
C8494 C 0.81383 0.67091 0.05791 0.0
C8495 C 0.86584 0.67662 0.11253 0.0
H8496 H 0.81642 0.62101 0.12381 0.0
H8497 H 0.85646 0.60729 0.07644 0.0
H8498 H 0.8213 0.67093 0.12529 0.0
H8499 H 0.80317 0.66909 0.10602 0.0
H8500 H 0.8018 0.65255 0.12707 0.0
H8501 H 0.85209 0.63687 0.04741 0.0
H8502 H 0.8617 0.65938 0.05801 0.0
H8503 H 0.87477 0.63624 0.06104 0.0
H8504 H 0.83026 0.70568 0.04772 0.0
H8505 H 0.86988 0.71323 0.09681 0.0
H8506 H 0.8043 0.6621 0.06812 0.0
H8507 H 0.82115 0.66044 0.0476 0.0
H8508 H 0.80427 0.68098 0.04906 0.0
H8509 H 0.8561 0.66929 0.12359 0.0
H8510 H 0.87507 0.68791 0.12023 0.0
H8511 H 0.87577 0.66506 0.10638 0.0
C8512 C 0.58857 0.61834 0.32053 0.0
C8513 C 0.57236 0.60641 0.315 0.0
C8514 C 0.60482 0.61026 0.33002 0.0
C8515 C 0.6043 0.58993 0.3347 0.0
C8516 C 0.5873 0.57804 0.3306 0.0
C8517 C 0.57133 0.58653 0.32056 0.0
C8518 C 0.62292 0.62316 0.33379 0.0
C8519 C 0.58642 0.55626 0.33599 0.0
C8520 C 0.64857 0.55768 0.34123 0.0
C8521 C 0.64836 0.55592 0.36177 0.0
C8522 C 0.63531 0.57054 0.33201 0.0
C8523 C 0.62154 0.58092 0.34389 0.0
C8524 C 0.62273 0.58052 0.36472 0.0
C8525 C 0.63642 0.56799 0.37348 0.0
C8526 C 0.63492 0.57177 0.30969 0.0
C8527 C 0.60823 0.59156 0.3777 0.0
H8528 H 0.58897 0.63391 0.31661 0.0
H8529 H 0.55866 0.5775 0.31618 0.0
H8530 H 0.62785 0.62192 0.3494 0.0
H8531 H 0.63536 0.61805 0.32437 0.0
H8532 H 0.62015 0.63905 0.33039 0.0
H8533 H 0.57154 0.54961 0.33311 0.0
H8534 H 0.59757 0.54799 0.32723 0.0
H8535 H 0.59014 0.5542 0.35187 0.0
H8536 H 0.65824 0.54832 0.33249 0.0
H8537 H 0.63678 0.56645 0.38948 0.0
H8538 H 0.63284 0.58734 0.30471 0.0
H8539 H 0.62221 0.56288 0.30396 0.0
H8540 H 0.64878 0.56593 0.30303 0.0
H8541 H 0.60661 0.60718 0.37276 0.0
H8542 H 0.61285 0.59152 0.3935 0.0
H8543 H 0.59339 0.58437 0.37657 0.0
C8544 C 0.33569 0.8221 0.95418 0.0
C8545 C 0.34563 0.82479 0.97221 0.0
C8546 C 0.32613 0.8383 0.94499 0.0
C8547 C 0.32788 0.85758 0.95344 0.0
C8548 C 0.33591 0.85965 0.97268 0.0
C8549 C 0.34364 0.84303 0.98213 0.0
C8550 C 0.31502 0.83475 0.92595 0.0
C8551 C 0.33822 0.87967 0.98271 0.0
C8552 C 0.3441 0.90216 0.92437 0.0
C8553 C 0.33037 0.91633 0.93071 0.0
C8554 C 0.342 0.88208 0.92957 0.0
C8555 C 0.32566 0.87596 0.94137 0.0
C8556 C 0.3105 0.88977 0.94576 0.0
C8557 C 0.31313 0.90986 0.94058 0.0
C8558 C 0.35813 0.86776 0.92368 0.0
C8559 C 0.29194 0.88389 0.95688 0.0
H8560 H 0.33601 0.80775 0.94692 0.0
H8561 H 0.34971 0.84492 0.99689 0.0
H8562 H 0.30625 0.84785 0.92123 0.0
H8563 H 0.32564 0.83076 0.91408 0.0
H8564 H 0.30476 0.82187 0.9278 0.0
H8565 H 0.34686 0.87878 0.9967 0.0
H8566 H 0.3459 0.89041 0.97278 0.0
H8567 H 0.3234 0.88572 0.98626 0.0
H8568 H 0.35684 0.90687 0.91571 0.0
H8569 H 0.30203 0.92057 0.94498 0.0
H8570 H 0.35166 0.85555 0.9147 0.0
H8571 H 0.36491 0.86104 0.93707 0.0
H8572 H 0.37004 0.87504 0.91485 0.0
H8573 H 0.27873 0.88854 0.94824 0.0
H8574 H 0.29137 0.89198 0.97119 0.0
H8575 H 0.29083 0.86767 0.9597 0.0
C8576 C 0.37501 0.0604 0.18888 0.0
C8577 C 0.36889 0.07552 0.17597 0.0
C8578 C 0.39512 0.05851 0.19406 0.0
C8579 C 0.40915 0.07232 0.18647 0.0
C8580 C 0.40344 0.08541 0.1711 0.0
C8581 C 0.38328 0.08703 0.16619 0.0
C8582 C 0.40096 0.04321 0.20929 0.0
C8583 C 0.4182 0.09942 0.16156 0.0
C8584 C 0.43828 0.09827 0.22625 0.0
C8585 C 0.45807 0.09593 0.22014 0.0
C8586 C 0.4225 0.09072 0.2153 0.0
C8587 C 0.42638 0.07822 0.19897 0.0
C8588 C 0.44635 0.07364 0.19401 0.0
C8589 C 0.46207 0.08313 0.2043 0.0
C8590 C 0.4017 0.09726 0.22077 0.0
C8591 C 0.45137 0.05874 0.17818 0.0
H8592 H 0.364 0.05086 0.19584 0.0
H8593 H 0.37868 0.09793 0.1553 0.0
H8594 H 0.41657 0.03845 0.20715 0.0
H8595 H 0.39965 0.04967 0.22433 0.0
H8596 H 0.39102 0.02997 0.20858 0.0
H8597 H 0.41208 0.10653 0.14804 0.0
H8598 H 0.42237 0.11129 0.17223 0.0
H8599 H 0.43193 0.09137 0.15752 0.0
H8600 H 0.43475 0.10715 0.23911 0.0
H8601 H 0.47732 0.08048 0.19998 0.0
H8602 H 0.39304 0.08446 0.22657 0.0
H8603 H 0.3938 0.10313 0.2076 0.0
H8604 H 0.4017 0.10908 0.23225 0.0
H8605 H 0.45572 0.04461 0.18545 0.0
H8606 H 0.46431 0.06398 0.16936 0.0
H8607 H 0.43877 0.05552 0.16807 0.0
C8608 C 0.1457 0.9377 0.66117 0.0
C8609 C 0.16198 0.94101 0.67368 0.0
C8610 C 0.12636 0.93636 0.66884 0.0
C8611 C 0.12341 0.93781 0.68954 0.0
C8612 C 0.13976 0.94229 0.70207 0.0
C8613 C 0.15887 0.94401 0.69392 0.0
C8614 C 0.10919 0.93248 0.65494 0.0
C8615 C 0.13733 0.94399 0.72423 0.0
C8616 C 0.07296 0.93927 0.71485 0.0
C8617 C 0.07045 0.91923 0.71996 0.0
C8618 C 0.08951 0.94555 0.70374 0.0
C8619 C 0.10413 0.93147 0.69836 0.0
C8620 C 0.10106 0.91108 0.70278 0.0
C8621 C 0.0842 0.90523 0.71343 0.0
C8622 C 0.09187 0.96731 0.69878 0.0
C8623 C 0.11632 0.89558 0.69758 0.0
H8624 H 0.14816 0.93595 0.6454 0.0
H8625 H 0.17151 0.94698 0.70346 0.0
H8626 H 0.10418 0.91681 0.65647 0.0
H8627 H 0.0964 0.94207 0.65874 0.0
H8628 H 0.11335 0.93516 0.63925 0.0
H8629 H 0.15088 0.95004 0.73151 0.0
H8630 H 0.12462 0.95369 0.72794 0.0
H8631 H 0.13412 0.92906 0.73052 0.0
H8632 H 0.06244 0.95011 0.72029 0.0
H8633 H 0.08254 0.88985 0.71792 0.0
H8634 H 0.09699 0.96926 0.68328 0.0
H8635 H 0.10327 0.97409 0.70858 0.0
H8636 H 0.07776 0.97554 0.70079 0.0
H8637 H 0.11951 0.89595 0.68148 0.0
H8638 H 0.11138 0.8803 0.7016 0.0
H8639 H 0.13043 0.89886 0.70547 0.0
loop_
_geom_bond_atom_site_label_1
_geom_bond_atom_site_label_2
_geom_bond_distance
_geom_bond_site_symmetry_2
_ccdc_geom_bond_type
Gd0 N31 2.661 . S
Gd0 N37 2.601 . S
Gd0 O44 2.545 . S
Gd0 O45 2.606 . S
Gd0 O47 2.429 . S
Gd0 O48 2.545 . S
Gd0 O49 2.412 . S
Gd0 O51 2.362 . S
Gd0 O52 2.324 . S
Gd0 C59 2.828 . S
Gd1 N10 2.661 1_455 S
Gd1 N14 2.601 1_455 S
Gd1 O45 2.362 . S
Gd1 O46 2.328 . S
Gd1 O50 2.544 . S
Gd1 O51 2.606 . S
Gd1 O53 2.429 . S
Gd1 O54 2.545 . S
Gd1 O55 2.412 1_455 S
Gd1 C68 2.828 1_455 S
C2 C5 1.417 . S
C2 C7 1.431 . S
C2 C8 1.412 . S
C3 C6 1.437 . S
C3 C7 1.317 . S
C3 H22 0.929 . S
C4 C5 1.426 . S
C4 C6 1.413 . S
C4 N14 1.359 . S
C5 C2 1.417 . S
C5 C4 1.426 . S
C5 N10 1.350 . S
C6 C3 1.437 . S
C6 C4 1.413 . S
C6 C16 1.391 . S
C7 C2 1.431 . S
C7 C3 1.317 . S
C7 H18 0.930 . S
C8 C2 1.412 . S
C8 C9 1.355 . S
C8 H20 0.930 . S
C9 C8 1.355 . S
C9 C11 1.402 . S
C9 H21 0.930 . S
N10 Gd1 2.661 1_655 S
N10 C5 1.350 . S
N10 C11 1.307 . S
C11 C9 1.402 . S
C11 N10 1.307 . S
C11 H12 0.930 . S
H12 C11 0.930 . S
C13 N14 1.334 1_455 S
C13 C15 1.402 . S
C13 H17 0.930 . S
N14 Gd1 2.601 1_655 S
N14 C4 1.359 . S
N14 C13 1.334 1_655 S
C15 C13 1.402 . S
C15 C16 1.342 1_455 S
C15 H27 0.940 . S
C16 C6 1.391 . S
C16 C15 1.342 1_655 S
C16 H28 0.929 . S
H17 C13 0.930 . S
H18 C7 0.930 . S
H19 C36 0.930 . S
H20 C8 0.930 . S
H21 C9 0.930 . S
H22 C3 0.929 . S
H23 C41 0.930 . S
H24 C32 0.930 . S
H25 C33 0.930 . S
H26 C57 0.929 . S
H27 C15 0.940 . S
H28 C16 0.929 . S
H29 C58 0.930 . S
H30 C39 0.930 . S
N31 Gd0 2.661 . S
N31 C35 1.350 . S
N31 C36 1.307 . S
C32 H24 0.930 . S
C32 C33 1.355 . S
C32 C34 1.412 . S
C33 H25 0.930 . S
C33 C32 1.355 . S
C33 C36 1.402 . S
C34 C32 1.412 . S
C34 C35 1.417 . S
C34 C58 1.431 . S
C35 N31 1.350 . S
C35 C34 1.417 . S
C35 C38 1.426 . S
C36 H19 0.930 . S
C36 N31 1.307 . S
C36 C33 1.402 . S
N37 Gd0 2.601 . S
N37 C38 1.359 . S
N37 C41 1.334 . S
C38 C35 1.426 . S
C38 N37 1.359 . S
C38 C42 1.413 . S
C39 H30 0.930 . S
C39 C40 1.359 . S
C39 C41 1.394 . S
C40 C39 1.359 . S
C40 C42 1.391 . S
C40 H43 0.929 . S
C41 H23 0.930 . S
C41 N37 1.334 . S
C41 C39 1.394 . S
C42 C38 1.413 . S
C42 C40 1.391 . S
C42 C57 1.437 . S
H43 C40 0.929 . S
O44 Gd0 2.545 . S
O44 C59 1.258 . S
O45 Gd0 2.606 . S
O45 Gd1 2.362 . S
O45 C56 1.284 . S
O46 Gd1 2.328 . S
O46 C66 1.259 . S
O47 Gd0 2.429 . S
O47 C66 1.268 . S
O48 Gd0 2.545 . S
O48 C56 1.250 . S
O49 Gd0 2.412 . S
O49 C59 1.252 . S
O50 Gd1 2.544 . S
O50 C68 1.259 1_455 S
O51 Gd0 2.362 . S
O51 Gd1 2.606 . S
O51 C67 1.284 . S
O52 Gd0 2.324 . S
O52 C75 1.254 . S
O53 Gd1 2.429 . S
O53 C75 1.268 . S
O54 Gd1 2.545 . S
O54 C67 1.250 . S
O55 Gd1 2.412 1_655 S
O55 C68 1.252 . S
C56 O45 1.284 . S
C56 O48 1.250 . S
C57 H26 0.929 . S
C57 C42 1.437 . S
C57 C58 1.317 . S
C58 H29 0.930 . S
C58 C34 1.431 . S
C58 C57 1.317 . S
C59 Gd0 2.828 . S
C59 O44 1.258 . S
C59 O49 1.252 . S
C59 C60 1.497 . S
C60 C59 1.497 . S
C60 C61 1.395 . S
C60 C62 1.380 . S
C61 C60 1.395 . S
C61 C64 1.398 . S
C61 H76 0.930 . S
C62 C60 1.380 . S
C62 C63 1.391 . S
C62 H77 0.930 . S
C63 C62 1.391 . S
C63 C65 1.387 . S
C64 C61 1.398 . S
C64 C65 1.380 . S
C64 H78 0.930 . S
C65 C63 1.387 . S
C65 C64 1.380 . S
C65 H79 0.930 . S
C66 O46 1.259 . S
C66 O47 1.268 . S
C67 O51 1.284 . S
C67 O54 1.250 . S
C68 Gd1 2.828 1_655 S
C68 O50 1.259 1_655 S
C68 O55 1.252 . S
C68 C69 1.497 . S
C69 C68 1.497 . S
C69 C70 1.395 . S
C69 C71 1.380 . S
C70 C69 1.395 . S
C70 C73 1.398 . S
C70 H80 0.930 . S
C71 C69 1.380 . S
C71 C72 1.391 . S
C71 H81 0.930 . S
C72 C71 1.391 . S
C72 C74 1.387 . S
C73 C70 1.398 . S
C73 C74 1.380 . S
C73 H82 0.930 . S
C74 C72 1.387 . S
C74 C73 1.380 . S
C74 H83 0.930 . S
C75 O52 1.254 . S
C75 O53 1.268 . S
H76 C61 0.930 . S
H77 C62 0.930 . S
H78 C64 0.930 . S
H79 C65 0.930 . S
H80 C70 0.930 . S
H81 C71 0.930 . S
H82 C73 0.930 . S
H83 C74 0.930 . S
Gd84 N115 2.661 . S
Gd84 N121 2.601 . S
Gd84 O128 2.545 . S
Gd84 O129 2.606 . S
Gd84 O131 2.429 . S
Gd84 O132 2.545 . S
Gd84 O133 2.412 . S
Gd84 O135 2.362 . S
Gd84 O136 2.324 . S
Gd84 C143 2.828 . S
Gd85 N94 2.661 . S
Gd85 N98 2.601 . S
Gd85 O129 2.362 . S
Gd85 O130 2.324 . S
Gd85 O134 2.545 . S
Gd85 O135 2.606 . S
Gd85 O137 2.429 . S
Gd85 O138 2.545 . S
Gd85 O139 2.412 . S
Gd85 C152 2.828 . S
C86 C89 1.417 . S
C86 C91 1.431 . S
C86 C92 1.412 . S
C87 C90 1.437 . S
C87 C91 1.317 . S
C87 H106 0.929 . S
C88 C89 1.426 . S
C88 C90 1.413 . S
C88 N98 1.359 . S
C89 C86 1.417 . S
C89 C88 1.426 . S
C89 N94 1.350 . S
C90 C87 1.437 . S
C90 C88 1.413 . S
C90 C100 1.391 . S
C91 C86 1.431 . S
C91 C87 1.317 . S
C91 H102 0.930 . S
C92 C86 1.412 . S
C92 C93 1.355 . S
C92 H104 0.930 . S
C93 C92 1.355 . S
C93 C95 1.402 . S
C93 H105 0.930 . S
N94 Gd85 2.661 . S
N94 C89 1.350 . S
N94 C95 1.307 . S
C95 C93 1.402 . S
C95 N94 1.307 . S
C95 H96 0.930 . S
H96 C95 0.930 . S
C97 N98 1.334 . S
C97 C99 1.394 . S
C97 H101 0.930 . S
N98 Gd85 2.601 . S
N98 C88 1.359 . S
N98 C97 1.334 . S
C99 C97 1.394 . S
C99 C100 1.359 . S
C99 H111 0.930 . S
C100 C90 1.391 . S
C100 C99 1.359 . S
C100 H112 0.929 . S
H101 C97 0.930 . S
H102 C91 0.930 . S
H103 C120 0.930 . S
H104 C92 0.930 . S
H105 C93 0.930 . S
H106 C87 0.929 . S
H107 C125 0.930 . S
H108 C116 0.930 . S
H109 C117 0.930 . S
H110 C141 0.929 . S
H111 C99 0.930 . S
H112 C100 0.929 . S
H113 C142 0.930 . S
H114 C123 0.930 . S
N115 Gd84 2.661 . S
N115 C119 1.350 . S
N115 C120 1.307 . S
C116 H108 0.930 . S
C116 C117 1.355 . S
C116 C118 1.412 . S
C117 H109 0.930 . S
C117 C116 1.355 . S
C117 C120 1.402 . S
C118 C116 1.412 . S
C118 C119 1.417 . S
C118 C142 1.431 . S
C119 N115 1.350 . S
C119 C118 1.417 . S
C119 C122 1.426 . S
C120 H103 0.930 . S
C120 N115 1.307 . S
C120 C117 1.402 . S
N121 Gd84 2.601 . S
N121 C122 1.359 . S
N121 C125 1.334 . S
C122 C119 1.426 . S
C122 N121 1.359 . S
C122 C126 1.413 . S
C123 H114 0.930 . S
C123 C124 1.359 . S
C123 C125 1.394 . S
C124 C123 1.359 . S
C124 C126 1.391 . S
C124 H127 0.929 . S
C125 H107 0.930 . S
C125 N121 1.334 . S
C125 C123 1.394 . S
C126 C122 1.413 . S
C126 C124 1.391 . S
C126 C141 1.437 . S
H127 C124 0.929 . S
O128 Gd84 2.545 . S
O128 C143 1.258 . S
O129 Gd84 2.606 . S
O129 Gd85 2.362 . S
O129 C140 1.284 . S
O130 Gd85 2.324 . S
O130 C150 1.254 . S
O131 Gd84 2.429 . S
O131 C150 1.268 . S
O132 Gd84 2.545 . S
O132 C140 1.250 . S
O133 Gd84 2.412 . S
O133 C143 1.252 . S
O134 Gd85 2.545 . S
O134 C152 1.258 . S
O135 Gd84 2.362 . S
O135 Gd85 2.606 . S
O135 C151 1.284 . S
O136 Gd84 2.324 . S
O136 C159 1.254 . S
O137 Gd85 2.429 . S
O137 C159 1.268 . S
O138 Gd85 2.545 . S
O138 C151 1.250 . S
O139 Gd85 2.412 . S
O139 C152 1.252 . S
C140 O129 1.284 . S
C140 O132 1.250 . S
C141 H110 0.929 . S
C141 C126 1.437 . S
C141 C142 1.317 . S
C142 H113 0.930 . S
C142 C118 1.431 . S
C142 C141 1.317 . S
C143 Gd84 2.828 . S
C143 O128 1.258 . S
C143 O133 1.252 . S
C143 C144 1.497 . S
C144 C143 1.497 . S
C144 C145 1.395 . S
C144 C146 1.380 . S
C145 C144 1.395 . S
C145 C148 1.398 . S
C145 H160 0.930 . S
C146 C144 1.380 . S
C146 C147 1.391 . S
C146 H161 0.930 . S
C147 C146 1.391 . S
C147 C149 1.387 . S
C148 C145 1.398 . S
C148 C149 1.380 . S
C148 H162 0.930 . S
C149 C147 1.387 . S
C149 C148 1.380 . S
C149 H163 0.930 . S
C150 O130 1.254 . S
C150 O131 1.268 . S
C151 O135 1.284 . S
C151 O138 1.250 . S
C152 Gd85 2.828 . S
C152 O134 1.258 . S
C152 O139 1.252 . S
C152 C153 1.497 . S
C153 C152 1.497 . S
C153 C154 1.395 . S
C153 C155 1.380 . S
C154 C153 1.395 . S
C154 C157 1.398 . S
C154 H164 0.930 . S
C155 C153 1.380 . S
C155 C156 1.391 . S
C155 H165 0.930 . S
C156 C155 1.391 . S
C156 C158 1.387 . S
C157 C154 1.398 . S
C157 C158 1.380 . S
C157 H166 0.930 . S
C158 C156 1.387 . S
C158 C157 1.380 . S
C158 H167 0.930 . S
C159 O136 1.254 . S
C159 O137 1.268 . S
H160 C145 0.930 . S
H161 C146 0.930 . S
H162 C148 0.930 . S
H163 C149 0.930 . S
H164 C154 0.930 . S
H165 C155 0.930 . S
H166 C157 0.930 . S
H167 C158 0.930 . S
Gd168 N199 2.661 . S
Gd168 N205 2.601 . S
Gd168 O212 2.545 . S
Gd168 O213 2.606 . S
Gd168 O215 2.429 . S
Gd168 O216 2.545 . S
Gd168 O217 2.412 . S
Gd168 O219 2.362 . S
Gd168 O220 2.324 . S
Gd168 C227 2.828 . S
Gd169 N178 2.661 . S
Gd169 N182 2.601 . S
Gd169 O213 2.362 . S
Gd169 O214 2.324 . S
Gd169 O218 2.545 . S
Gd169 O219 2.606 . S
Gd169 O221 2.429 . S
Gd169 O222 2.545 . S
Gd169 O223 2.412 . S
Gd169 C236 2.828 . S
C170 C173 1.417 . S
C170 C175 1.431 . S
C170 C176 1.412 . S
C171 C174 1.437 . S
C171 C175 1.317 . S
C171 H190 0.929 . S
C172 C173 1.426 . S
C172 C174 1.413 . S
C172 N182 1.359 . S
C173 C170 1.417 . S
C173 C172 1.426 . S
C173 N178 1.350 . S
C174 C171 1.437 . S
C174 C172 1.413 . S
C174 C184 1.391 . S
C175 C170 1.431 . S
C175 C171 1.317 . S
C175 H186 0.930 . S
C176 C170 1.412 . S
C176 C177 1.355 . S
C176 H188 0.930 . S
C177 C176 1.355 . S
C177 C179 1.402 . S
C177 H189 0.930 . S
N178 Gd169 2.661 . S
N178 C173 1.350 . S
N178 C179 1.307 . S
C179 C177 1.402 . S
C179 N178 1.307 . S
C179 H180 0.930 . S
H180 C179 0.930 . S
C181 N182 1.334 . S
C181 C183 1.394 . S
C181 H185 0.930 . S
N182 Gd169 2.601 . S
N182 C172 1.359 . S
N182 C181 1.334 . S
C183 C181 1.394 . S
C183 C184 1.359 . S
C183 H195 0.930 . S
C184 C174 1.391 . S
C184 C183 1.359 . S
C184 H196 0.929 . S
H185 C181 0.930 . S
H186 C175 0.930 . S
H187 C204 0.930 . S
H188 C176 0.930 . S
H189 C177 0.930 . S
H190 C171 0.929 . S
H191 C209 0.930 . S
H192 C200 0.930 . S
H193 C201 0.930 . S
H194 C225 0.929 . S
H195 C183 0.930 . S
H196 C184 0.929 . S
H197 C226 0.930 . S
H198 C207 0.930 . S
N199 Gd168 2.661 . S
N199 C203 1.350 . S
N199 C204 1.307 . S
C200 H192 0.930 . S
C200 C201 1.355 . S
C200 C202 1.412 . S
C201 H193 0.930 . S
C201 C200 1.355 . S
C201 C204 1.402 . S
C202 C200 1.412 . S
C202 C203 1.417 . S
C202 C226 1.431 . S
C203 N199 1.350 . S
C203 C202 1.417 . S
C203 C206 1.426 . S
C204 H187 0.930 . S
C204 N199 1.307 . S
C204 C201 1.402 . S
N205 Gd168 2.601 . S
N205 C206 1.359 . S
N205 C209 1.334 . S
C206 C203 1.426 . S
C206 N205 1.359 . S
C206 C210 1.413 . S
C207 H198 0.930 . S
C207 C208 1.359 . S
C207 C209 1.394 . S
C208 C207 1.359 . S
C208 C210 1.391 . S
C208 H211 0.929 . S
C209 H191 0.930 . S
C209 N205 1.334 . S
C209 C207 1.394 . S
C210 C206 1.413 . S
C210 C208 1.391 . S
C210 C225 1.437 . S
H211 C208 0.929 . S
O212 Gd168 2.545 . S
O212 C227 1.258 . S
O213 Gd168 2.606 . S
O213 Gd169 2.362 . S
O213 C224 1.284 . S
O214 Gd169 2.324 . S
O214 C234 1.254 . S
O215 Gd168 2.429 . S
O215 C234 1.268 . S
O216 Gd168 2.545 . S
O216 C224 1.250 . S
O217 Gd168 2.412 . S
O217 C227 1.252 . S
O218 Gd169 2.545 . S
O218 C236 1.258 . S
O219 Gd168 2.362 . S
O219 Gd169 2.606 . S
O219 C235 1.284 . S
O220 Gd168 2.324 . S
O220 C243 1.254 . S
O221 Gd169 2.429 . S
O221 C243 1.268 . S
O222 Gd169 2.545 . S
O222 C235 1.250 . S
O223 Gd169 2.412 . S
O223 C236 1.252 . S
C224 O213 1.284 . S
C224 O216 1.250 . S
C225 H194 0.929 . S
C225 C210 1.437 . S
C225 C226 1.317 . S
C226 H197 0.930 . S
C226 C202 1.431 . S
C226 C225 1.317 . S
C227 Gd168 2.828 . S
C227 O212 1.258 . S
C227 O217 1.252 . S
C227 C228 1.497 . S
C228 C227 1.497 . S
C228 C229 1.395 . S
C228 C230 1.380 . S
C229 C228 1.395 . S
C229 C232 1.398 . S
C229 H244 0.930 . S
C230 C228 1.380 . S
C230 C231 1.391 . S
C230 H245 0.930 . S
C231 C230 1.391 . S
C231 C233 1.387 . S
C232 C229 1.398 . S
C232 C233 1.380 . S
C232 H246 0.930 . S
C233 C231 1.387 . S
C233 C232 1.380 . S
C233 H247 0.930 . S
C234 O214 1.254 . S
C234 O215 1.268 . S
C235 O219 1.284 . S
C235 O222 1.250 . S
C236 Gd169 2.828 . S
C236 O218 1.258 . S
C236 O223 1.252 . S
C236 C237 1.497 . S
C237 C236 1.497 . S
C237 C238 1.395 . S
C237 C239 1.380 . S
C238 C237 1.395 . S
C238 C241 1.398 . S
C238 H248 0.930 . S
C239 C237 1.380 . S
C239 C240 1.391 . S
C239 H249 0.930 . S
C240 C239 1.391 . S
C240 C242 1.387 . S
C241 C238 1.398 . S
C241 C242 1.380 . S
C241 H250 0.930 . S
C242 C240 1.387 . S
C242 C241 1.380 . S
C242 H251 0.930 . S
C243 O220 1.254 . S
C243 O221 1.268 . S
H244 C229 0.930 . S
H245 C230 0.930 . S
H246 C232 0.930 . S
H247 C233 0.930 . S
H248 C238 0.930 . S
H249 C239 0.930 . S
H250 C241 0.930 . S
H251 C242 0.930 . S
Gd252 N283 2.661 . S
Gd252 N289 2.601 1_554 S
Gd252 O296 2.545 1_554 S
Gd252 O297 2.606 . S
Gd252 O299 2.429 . S
Gd252 O300 2.545 1_554 S
Gd252 O301 2.412 1_554 S
Gd252 O303 2.362 . S
Gd252 O304 2.324 . S
Gd252 C311 2.828 1_554 S
Gd253 N262 2.661 . S
Gd253 N266 2.601 . S
Gd253 O297 2.362 . S
Gd253 O298 2.324 . S
Gd253 O302 2.545 . S
Gd253 O303 2.606 . S
Gd253 O305 2.429 . S
Gd253 O306 2.545 . S
Gd253 O307 2.412 . S
Gd253 C320 2.828 . S
C254 C257 1.417 . S
C254 C259 1.431 . S
C254 C260 1.412 . S
C255 C258 1.437 . S
C255 C259 1.317 . S
C255 H274 0.929 . S
C256 C257 1.426 . S
C256 C258 1.413 . S
C256 N266 1.359 . S
C257 C254 1.417 . S
C257 C256 1.426 . S
C257 N262 1.350 . S
C258 C255 1.437 . S
C258 C256 1.413 . S
C258 C268 1.391 . S
C259 C254 1.431 . S
C259 C255 1.317 . S
C259 H270 0.930 . S
C260 C254 1.412 . S
C260 C261 1.355 . S
C260 H272 0.930 . S
C261 C260 1.355 . S
C261 C263 1.402 . S
C261 H273 0.930 1_554 S
N262 Gd253 2.661 . S
N262 C257 1.350 . S
N262 C263 1.307 . S
C263 C261 1.402 . S
C263 N262 1.307 . S
C263 H264 0.930 . S
H264 C263 0.930 . S
C265 N266 1.334 . S
C265 C267 1.394 . S
C265 H269 0.930 . S
N266 Gd253 2.601 . S
N266 C256 1.359 . S
N266 C265 1.334 . S
C267 C265 1.394 . S
C267 C268 1.359 . S
C267 H279 0.930 . S
C268 C258 1.391 . S
C268 C267 1.359 . S
C268 H280 0.929 . S
H269 C265 0.930 . S
H270 C259 0.930 . S
H271 C288 0.930 . S
H272 C260 0.930 . S
H273 C261 0.930 1_556 S
H274 C255 0.929 . S
H275 C293 0.930 . S
H276 C284 0.930 . S
H277 C285 0.930 . S
H278 C309 0.929 . S
H279 C267 0.930 . S
H280 C268 0.929 . S
H281 C310 0.930 . S
H282 C291 0.930 . S
N283 Gd252 2.661 . S
N283 C287 1.350 . S
N283 C288 1.307 . S
C284 H276 0.930 . S
C284 C285 1.355 . S
C284 C286 1.412 . S
C285 H277 0.930 . S
C285 C284 1.355 . S
C285 C288 1.402 . S
C286 C284 1.412 . S
C286 C287 1.417 . S
C286 C310 1.431 . S
C287 N283 1.350 . S
C287 C286 1.417 . S
C287 C290 1.426 . S
C288 H271 0.930 . S
C288 N283 1.307 . S
C288 C285 1.402 . S
N289 Gd252 2.601 1_556 S
N289 C290 1.359 1_556 S
N289 C293 1.334 . S
C290 C287 1.426 . S
C290 N289 1.359 1_554 S
C290 C294 1.396 1_554 S
C291 H282 0.930 . S
C291 C292 1.359 . S
C291 C293 1.394 . S
C292 C291 1.359 . S
C292 C294 1.436 . S
C292 H295 0.929 . S
C293 H275 0.930 . S
C293 N289 1.334 . S
C293 C291 1.394 . S
C294 C290 1.396 1_556 S
C294 C292 1.436 . S
C294 C309 1.411 1_556 S
H295 C292 0.929 . S
O296 Gd252 2.545 1_556 S
O296 C311 1.258 . S
O297 Gd252 2.606 . S
O297 Gd253 2.362 . S
O297 C308 1.284 . S
O298 Gd253 2.324 . S
O298 C318 1.254 . S
O299 Gd252 2.429 . S
O299 C318 1.268 . S
O300 Gd252 2.545 1_556 S
O300 C308 1.250 1_556 S
O301 Gd252 2.412 1_556 S
O301 C311 1.252 . S
O302 Gd253 2.545 . S
O302 C320 1.258 . S
O303 Gd252 2.362 . S
O303 Gd253 2.606 . S
O303 C319 1.284 . S
O304 Gd252 2.324 . S
O304 C327 1.254 . S
O305 Gd253 2.429 . S
O305 C327 1.268 . S
O306 Gd253 2.545 . S
O306 C319 1.250 . S
O307 Gd253 2.412 . S
O307 C320 1.252 . S
C308 O297 1.284 . S
C308 O300 1.250 1_554 S
C309 H278 0.929 . S
C309 C294 1.411 1_554 S
C309 C310 1.317 . S
C310 H281 0.930 . S
C310 C286 1.431 . S
C310 C309 1.317 . S
C311 Gd252 2.828 1_556 S
C311 O296 1.258 . S
C311 O301 1.252 . S
C311 C312 1.497 . S
C312 C311 1.497 . S
C312 C313 1.395 . S
C312 C314 1.380 . S
C313 C312 1.395 . S
C313 C316 1.398 . S
C313 H328 0.930 . S
C314 C312 1.380 . S
C314 C315 1.391 . S
C314 H329 0.930 . S
C315 C314 1.391 . S
C315 C317 1.387 . S
C316 C313 1.398 . S
C316 C317 1.380 . S
C316 H330 0.930 . S
C317 C315 1.387 . S
C317 C316 1.380 . S
C317 H331 0.930 . S
C318 O298 1.254 . S
C318 O299 1.268 . S
C319 O303 1.284 . S
C319 O306 1.250 . S
C320 Gd253 2.828 . S
C320 O302 1.258 . S
C320 O307 1.252 . S
C320 C321 1.497 . S
C321 C320 1.497 . S
C321 C322 1.395 . S
C321 C323 1.380 . S
C322 C321 1.395 . S
C322 C325 1.398 . S
C322 H332 0.930 . S
C323 C321 1.380 . S
C323 C324 1.391 . S
C323 H333 0.930 . S
C324 C323 1.391 . S
C324 C326 1.387 . S
C325 C322 1.398 . S
C325 C326 1.380 . S
C325 H334 0.930 . S
C326 C324 1.387 . S
C326 C325 1.380 . S
C326 H335 0.930 . S
C327 O304 1.254 . S
C327 O305 1.268 . S
H328 C313 0.930 . S
H329 C314 0.930 . S
H330 C316 0.930 . S
H331 C317 0.930 . S
H332 C322 0.930 . S
H333 C323 0.930 . S
H334 C325 0.930 . S
H335 C326 0.930 . S
Gd336 N367 2.661 . S
Gd336 N373 2.601 . S
Gd336 O380 2.545 . S
Gd336 O381 2.606 . S
Gd336 O383 2.429 . S
Gd336 O384 2.545 . S
Gd336 O385 2.412 . S
Gd336 O387 2.362 . S
Gd336 O388 2.324 . S
Gd336 C395 2.828 . S
Gd337 N346 2.661 1_455 S
Gd337 N350 2.601 1_455 S
Gd337 O381 2.362 . S
Gd337 O382 2.312 1_455 S
Gd337 O386 2.545 1_455 S
Gd337 O387 2.606 . S
Gd337 O389 2.429 . S
Gd337 O390 2.545 . S
Gd337 O391 2.412 1_455 S
Gd337 C404 2.828 1_455 S
C338 C341 1.417 . S
C338 C343 1.431 . S
C338 C344 1.412 . S
C339 C342 1.437 . S
C339 C343 1.317 . S
C339 H358 0.929 . S
C340 C341 1.426 . S
C340 C342 1.413 . S
C340 N350 1.359 . S
C341 C338 1.417 . S
C341 C340 1.426 . S
C341 N346 1.350 . S
C342 C339 1.437 . S
C342 C340 1.413 . S
C342 C352 1.391 . S
C343 C338 1.431 . S
C343 C339 1.317 . S
C343 H354 0.930 . S
C344 C338 1.412 . S
C344 C345 1.355 . S
C344 H356 0.930 . S
C345 C344 1.355 . S
C345 C347 1.402 . S
C345 H357 0.930 . S
N346 Gd337 2.661 1_655 S
N346 C341 1.350 . S
N346 C347 1.307 . S
C347 C345 1.402 . S
C347 N346 1.307 . S
C347 H348 0.930 . S
H348 C347 0.930 . S
C349 N350 1.334 1_455 S
C349 C351 1.394 1_455 S
C349 H353 0.930 . S
N350 Gd337 2.601 1_655 S
N350 C340 1.359 . S
N350 C349 1.334 1_655 S
C351 C349 1.394 1_655 S
C351 C352 1.359 . S
C351 H363 0.930 1_655 S
C352 C342 1.391 . S
C352 C351 1.359 . S
C352 H364 0.929 . S
H353 C349 0.930 . S
H354 C343 0.930 . S
H355 C372 0.930 . S
H356 C344 0.930 . S
H357 C345 0.930 . S
H358 C339 0.929 . S
H359 C377 0.930 . S
H360 C368 0.930 . S
H361 C369 0.930 . S
H362 C393 0.929 . S
H363 C351 0.930 1_455 S
H364 C352 0.929 . S
H365 C394 0.930 . S
H366 C375 0.930 . S
N367 Gd336 2.661 . S
N367 C371 1.350 . S
N367 C372 1.307 . S
C368 H360 0.930 . S
C368 C369 1.355 . S
C368 C370 1.412 . S
C369 H361 0.930 . S
C369 C368 1.355 . S
C369 C372 1.402 . S
C370 C368 1.412 . S
C370 C371 1.417 . S
C370 C394 1.431 . S
C371 N367 1.350 . S
C371 C370 1.417 . S
C371 C374 1.426 . S
C372 H355 0.930 . S
C372 N367 1.307 . S
C372 C369 1.402 . S
N373 Gd336 2.601 . S
N373 C374 1.359 . S
N373 C377 1.334 . S
C374 C371 1.426 . S
C374 N373 1.359 . S
C374 C378 1.413 . S
C375 H366 0.930 . S
C375 C376 1.359 . S
C375 C377 1.394 . S
C376 C375 1.359 . S
C376 C378 1.391 . S
C376 H379 0.929 . S
C377 H359 0.930 . S
C377 N373 1.334 . S
C377 C375 1.394 . S
C378 C374 1.413 . S
C378 C376 1.391 . S
C378 C393 1.437 . S
H379 C376 0.929 . S
O380 Gd336 2.545 . S
O380 C395 1.258 . S
O381 Gd336 2.606 . S
O381 Gd337 2.362 . S
O381 C392 1.284 . S
O382 Gd337 2.312 1_655 S
O382 C402 1.240 1_655 S
O383 Gd336 2.429 . S
O383 C402 1.268 . S
O384 Gd336 2.545 . S
O384 C392 1.250 . S
O385 Gd336 2.412 . S
O385 C395 1.252 . S
O386 Gd337 2.545 1_655 S
O386 C404 1.258 . S
O387 Gd336 2.362 . S
O387 Gd337 2.606 . S
O387 C403 1.284 . S
O388 Gd336 2.324 . S
O388 C411 1.254 . S
O389 Gd337 2.429 . S
O389 C411 1.268 . S
O390 Gd337 2.545 . S
O390 C403 1.250 . S
O391 Gd337 2.412 1_655 S
O391 C404 1.252 . S
C392 O381 1.284 . S
C392 O384 1.250 . S
C393 H362 0.929 . S
C393 C378 1.437 . S
C393 C394 1.317 . S
C394 H365 0.930 . S
C394 C370 1.431 . S
C394 C393 1.317 . S
C395 Gd336 2.828 . S
C395 O380 1.258 . S
C395 O385 1.252 . S
C395 C396 1.497 . S
C396 C395 1.497 . S
C396 C397 1.395 . S
C396 C398 1.380 . S
C397 C396 1.395 . S
C397 C400 1.398 . S
C397 H412 0.930 . S
C398 C396 1.380 . S
C398 C399 1.391 . S
C398 H413 0.930 . S
C399 C398 1.391 . S
C399 C401 1.387 . S
C400 C397 1.398 . S
C400 C401 1.380 . S
C400 H414 0.930 . S
C401 C399 1.387 . S
C401 C400 1.380 . S
C401 H415 0.930 . S
C402 O382 1.240 1_455 S
C402 O383 1.268 . S
C403 O387 1.284 . S
C403 O390 1.250 . S
C404 Gd337 2.828 1_655 S
C404 O386 1.258 . S
C404 O391 1.252 . S
C404 C405 1.497 . S
C405 C404 1.497 . S
C405 C406 1.395 . S
C405 C407 1.380 . S
C406 C405 1.395 . S
C406 C409 1.398 . S
C406 H416 0.930 . S
C407 C405 1.380 . S
C407 C408 1.391 . S
C407 H417 0.930 . S
C408 C407 1.391 . S
C408 C410 1.387 . S
C409 C406 1.398 . S
C409 C410 1.380 . S
C409 H418 0.930 . S
C410 C408 1.387 . S
C410 C409 1.380 . S
C410 H419 0.930 . S
C411 O388 1.254 . S
C411 O389 1.268 . S
H412 C397 0.930 . S
H413 C398 0.930 . S
H414 C400 0.930 . S
H415 C401 0.930 . S
H416 C406 0.930 . S
H417 C407 0.930 . S
H418 C409 0.930 . S
H419 C410 0.930 . S
Gd420 N451 2.661 . S
Gd420 N457 2.601 . S
Gd420 O464 2.545 . S
Gd420 O465 2.606 . S
Gd420 O467 2.429 . S
Gd420 O468 2.545 . S
Gd420 O469 2.412 . S
Gd420 O471 2.362 . S
Gd420 O472 2.324 . S
Gd420 C479 2.828 . S
Gd421 N430 2.661 . S
Gd421 N434 2.601 . S
Gd421 O465 2.362 . S
Gd421 O466 2.324 . S
Gd421 O470 2.545 . S
Gd421 O471 2.606 . S
Gd421 O473 2.429 . S
Gd421 O474 2.545 . S
Gd421 O475 2.412 . S
Gd421 C488 2.828 . S
C422 C425 1.417 . S
C422 C427 1.431 . S
C422 C428 1.412 . S
C423 C426 1.437 . S
C423 C427 1.317 . S
C423 H442 0.929 . S
C424 C425 1.426 . S
C424 C426 1.413 . S
C424 N434 1.359 . S
C425 C422 1.417 . S
C425 C424 1.426 . S
C425 N430 1.350 . S
C426 C423 1.437 . S
C426 C424 1.413 . S
C426 C436 1.391 . S
C427 C422 1.431 . S
C427 C423 1.317 . S
C427 H438 0.930 . S
C428 C422 1.412 . S
C428 C429 1.355 . S
C428 H440 0.930 . S
C429 C428 1.355 . S
C429 C431 1.402 . S
C429 H441 0.930 . S
N430 Gd421 2.661 . S
N430 C425 1.350 . S
N430 C431 1.307 . S
C431 C429 1.402 . S
C431 N430 1.307 . S
C431 H432 0.930 . S
H432 C431 0.930 . S
C433 N434 1.334 . S
C433 C435 1.394 . S
C433 H437 0.930 . S
N434 Gd421 2.601 . S
N434 C424 1.359 . S
N434 C433 1.334 . S
C435 C433 1.394 . S
C435 C436 1.359 . S
C435 H447 0.930 . S
C436 C426 1.391 . S
C436 C435 1.359 . S
C436 H448 0.929 . S
H437 C433 0.930 . S
H438 C427 0.930 . S
H439 C456 0.930 . S
H440 C428 0.930 . S
H441 C429 0.930 . S
H442 C423 0.929 . S
H443 C461 0.930 . S
H444 C452 0.930 . S
H445 C453 0.930 . S
H446 C477 0.929 . S
H447 C435 0.930 . S
H448 C436 0.929 . S
H449 C478 0.930 . S
H450 C459 0.930 . S
N451 Gd420 2.661 . S
N451 C455 1.350 . S
N451 C456 1.307 . S
C452 H444 0.930 . S
C452 C453 1.355 . S
C452 C454 1.412 . S
C453 H445 0.930 . S
C453 C452 1.355 . S
C453 C456 1.402 . S
C454 C452 1.412 . S
C454 C455 1.417 . S
C454 C478 1.431 . S
C455 N451 1.350 . S
C455 C454 1.417 . S
C455 C458 1.426 . S
C456 H439 0.930 . S
C456 N451 1.307 . S
C456 C453 1.402 . S
N457 Gd420 2.601 . S
N457 C458 1.359 . S
N457 C461 1.334 . S
C458 C455 1.426 . S
C458 N457 1.359 . S
C458 C462 1.413 . S
C459 H450 0.930 . S
C459 C460 1.359 . S
C459 C461 1.394 . S
C460 C459 1.359 . S
C460 C462 1.391 . S
C460 H463 0.929 . S
C461 H443 0.930 . S
C461 N457 1.334 . S
C461 C459 1.394 . S
C462 C458 1.413 . S
C462 C460 1.391 . S
C462 C477 1.437 . S
H463 C460 0.929 . S
O464 Gd420 2.545 . S
O464 C479 1.258 . S
O465 Gd420 2.606 . S
O465 Gd421 2.362 . S
O465 C476 1.284 . S
O466 Gd421 2.324 . S
O466 C486 1.254 . S
O467 Gd420 2.429 . S
O467 C486 1.268 . S
O468 Gd420 2.545 . S
O468 C476 1.250 . S
O469 Gd420 2.412 . S
O469 C479 1.252 . S
O470 Gd421 2.545 . S
O470 C488 1.258 . S
O471 Gd420 2.362 . S
O471 Gd421 2.606 . S
O471 C487 1.284 . S
O472 Gd420 2.324 . S
O472 C495 1.254 . S
O473 Gd421 2.429 . S
O473 C495 1.268 . S
O474 Gd421 2.545 . S
O474 C487 1.250 . S
O475 Gd421 2.412 . S
O475 C488 1.252 . S
C476 O465 1.284 . S
C476 O468 1.250 . S
C477 H446 0.929 . S
C477 C462 1.437 . S
C477 C478 1.317 . S
C478 H449 0.930 . S
C478 C454 1.431 . S
C478 C477 1.317 . S
C479 Gd420 2.828 . S
C479 O464 1.258 . S
C479 O469 1.252 . S
C479 C480 1.497 . S
C480 C479 1.497 . S
C480 C481 1.395 . S
C480 C482 1.380 . S
C481 C480 1.395 . S
C481 C484 1.398 . S
C481 H496 0.930 . S
C482 C480 1.380 . S
C482 C483 1.391 . S
C482 H497 0.930 . S
C483 C482 1.391 . S
C483 C485 1.387 . S
C484 C481 1.398 . S
C484 C485 1.380 . S
C484 H498 0.930 . S
C485 C483 1.387 . S
C485 C484 1.380 . S
C485 H499 0.930 . S
C486 O466 1.254 . S
C486 O467 1.268 . S
C487 O471 1.284 . S
C487 O474 1.250 . S
C488 Gd421 2.828 . S
C488 O470 1.258 . S
C488 O475 1.252 . S
C488 C489 1.497 . S
C489 C488 1.497 . S
C489 C490 1.395 . S
C489 C491 1.380 . S
C490 C489 1.395 . S
C490 C493 1.398 . S
C490 H500 0.930 . S
C491 C489 1.380 . S
C491 C492 1.391 . S
C491 H501 0.930 . S
C492 C491 1.391 . S
C492 C494 1.387 . S
C493 C490 1.398 . S
C493 C494 1.380 . S
C493 H502 0.930 . S
C494 C492 1.387 . S
C494 C493 1.380 . S
C494 H503 0.930 . S
C495 O472 1.254 . S
C495 O473 1.268 . S
H496 C481 0.930 . S
H497 C482 0.930 . S
H498 C484 0.930 . S
H499 C485 0.930 . S
H500 C490 0.930 . S
H501 C491 0.930 . S
H502 C493 0.930 . S
H503 C494 0.930 . S
Gd504 N535 2.661 . S
Gd504 N541 2.601 . S
Gd504 O548 2.545 . S
Gd504 O549 2.606 . S
Gd504 O551 2.429 . S
Gd504 O552 2.545 . S
Gd504 O553 2.412 . S
Gd504 O555 2.362 . S
Gd504 O556 2.324 . S
Gd504 C563 2.828 . S
Gd505 N514 2.661 . S
Gd505 N518 2.601 . S
Gd505 O549 2.362 . S
Gd505 O550 2.324 . S
Gd505 O554 2.545 . S
Gd505 O555 2.606 . S
Gd505 O557 2.429 . S
Gd505 O558 2.545 . S
Gd505 O559 2.412 . S
Gd505 C572 2.828 . S
C506 C509 1.417 . S
C506 C511 1.431 . S
C506 C512 1.412 . S
C507 C510 1.437 . S
C507 C511 1.317 . S
C507 H526 0.929 . S
C508 C509 1.426 . S
C508 C510 1.413 . S
C508 N518 1.359 . S
C509 C506 1.417 . S
C509 C508 1.426 . S
C509 N514 1.350 . S
C510 C507 1.437 . S
C510 C508 1.413 . S
C510 C520 1.391 . S
C511 C506 1.431 . S
C511 C507 1.317 . S
C511 H522 0.930 . S
C512 C506 1.412 . S
C512 C513 1.355 . S
C512 H524 0.930 . S
C513 C512 1.355 . S
C513 C515 1.402 . S
C513 H525 0.930 . S
N514 Gd505 2.661 . S
N514 C509 1.350 . S
N514 C515 1.307 . S
C515 C513 1.402 . S
C515 N514 1.307 . S
C515 H516 0.930 . S
H516 C515 0.930 . S
C517 N518 1.334 . S
C517 C519 1.394 . S
C517 H521 0.930 . S
N518 Gd505 2.601 . S
N518 C508 1.359 . S
N518 C517 1.334 . S
C519 C517 1.394 . S
C519 C520 1.359 . S
C519 H531 0.930 . S
C520 C510 1.391 . S
C520 C519 1.359 . S
C520 H532 0.929 . S
H521 C517 0.930 . S
H522 C511 0.930 . S
H523 C540 0.930 . S
H524 C512 0.930 . S
H525 C513 0.930 . S
H526 C507 0.929 . S
H527 C545 0.930 . S
H528 C536 0.930 . S
H529 C537 0.930 . S
H530 C561 0.929 . S
H531 C519 0.930 . S
H532 C520 0.929 . S
H533 C562 0.930 . S
H534 C543 0.930 . S
N535 Gd504 2.661 . S
N535 C539 1.350 . S
N535 C540 1.307 . S
C536 H528 0.930 . S
C536 C537 1.355 . S
C536 C538 1.412 . S
C537 H529 0.930 . S
C537 C536 1.355 . S
C537 C540 1.402 . S
C538 C536 1.412 . S
C538 C539 1.417 . S
C538 C562 1.431 . S
C539 N535 1.350 . S
C539 C538 1.417 . S
C539 C542 1.426 . S
C540 H523 0.930 . S
C540 N535 1.307 . S
C540 C537 1.402 . S
N541 Gd504 2.601 . S
N541 C542 1.359 . S
N541 C545 1.334 . S
C542 C539 1.426 . S
C542 N541 1.359 . S
C542 C546 1.413 . S
C543 H534 0.930 . S
C543 C544 1.359 . S
C543 C545 1.394 . S
C544 C543 1.359 . S
C544 C546 1.391 . S
C544 H547 0.929 . S
C545 H527 0.930 . S
C545 N541 1.334 . S
C545 C543 1.394 . S
C546 C542 1.413 . S
C546 C544 1.391 . S
C546 C561 1.437 . S
H547 C544 0.929 . S
O548 Gd504 2.545 . S
O548 C563 1.258 . S
O549 Gd504 2.606 . S
O549 Gd505 2.362 . S
O549 C560 1.284 . S
O550 Gd505 2.324 . S
O550 C570 1.254 . S
O551 Gd504 2.429 . S
O551 C570 1.268 . S
O552 Gd504 2.545 . S
O552 C560 1.250 . S
O553 Gd504 2.412 . S
O553 C563 1.252 . S
O554 Gd505 2.545 . S
O554 C572 1.258 . S
O555 Gd504 2.362 . S
O555 Gd505 2.606 . S
O555 C571 1.284 . S
O556 Gd504 2.324 . S
O556 C579 1.254 . S
O557 Gd505 2.429 . S
O557 C579 1.268 . S
O558 Gd505 2.545 . S
O558 C571 1.250 . S
O559 Gd505 2.412 . S
O559 C572 1.252 . S
C560 O549 1.284 . S
C560 O552 1.250 . S
C561 H530 0.929 . S
C561 C546 1.437 . S
C561 C562 1.317 . S
C562 H533 0.930 . S
C562 C538 1.431 . S
C562 C561 1.317 . S
C563 Gd504 2.828 . S
C563 O548 1.258 . S
C563 O553 1.252 . S
C563 C564 1.497 . S
C564 C563 1.497 . S
C564 C565 1.395 . S
C564 C566 1.380 . S
C565 C564 1.395 . S
C565 C568 1.398 . S
C565 H580 0.930 . S
C566 C564 1.380 . S
C566 C567 1.391 . S
C566 H581 0.930 . S
C567 C566 1.391 . S
C567 C569 1.387 . S
C568 C565 1.398 . S
C568 C569 1.380 . S
C568 H582 0.930 . S
C569 C567 1.387 . S
C569 C568 1.380 . S
C569 H583 0.930 . S
C570 O550 1.254 . S
C570 O551 1.268 . S
C571 O555 1.284 . S
C571 O558 1.250 . S
C572 Gd505 2.828 . S
C572 O554 1.258 . S
C572 O559 1.252 . S
C572 C573 1.497 . S
C573 C572 1.497 . S
C573 C574 1.395 . S
C573 C575 1.380 . S
C574 C573 1.395 . S
C574 C577 1.398 . S
C574 H584 0.930 . S
C575 C573 1.380 . S
C575 C576 1.391 . S
C575 H585 0.930 . S
C576 C575 1.391 . S
C576 C578 1.387 . S
C577 C574 1.398 . S
C577 C578 1.380 . S
C577 H586 0.930 . S
C578 C576 1.387 . S
C578 C577 1.380 . S
C578 H587 0.930 . S
C579 O556 1.254 . S
C579 O557 1.268 . S
H580 C565 0.930 . S
H581 C566 0.930 . S
H582 C568 0.930 . S
H583 C569 0.930 . S
H584 C574 0.930 . S
H585 C575 0.930 . S
H586 C577 0.930 . S
H587 C578 0.930 . S
Gd588 N619 2.661 . S
Gd588 N625 2.601 . S
Gd588 O632 2.545 . S
Gd588 O633 2.606 . S
Gd588 O635 2.429 . S
Gd588 O636 2.545 . S
Gd588 O637 2.412 . S
Gd588 O639 2.362 . S
Gd588 O640 2.324 . S
Gd588 C647 2.828 . S
Gd589 N598 2.661 1_556 S
Gd589 N602 2.601 1_556 S
Gd589 O633 2.362 . S
Gd589 O634 2.324 1_556 S
Gd589 O638 2.545 1_556 S
Gd589 O639 2.606 . S
Gd589 O641 2.429 . S
Gd589 O642 2.545 . S
Gd589 O643 2.412 1_556 S
Gd589 C656 2.828 1_556 S
C590 C593 1.417 . S
C590 C595 1.431 . S
C590 C596 1.412 . S
C591 C594 1.437 . S
C591 C595 1.317 . S
C591 H610 0.929 . S
C592 C593 1.426 . S
C592 C594 1.413 . S
C592 N602 1.359 . S
C593 C590 1.417 . S
C593 C592 1.426 . S
C593 N598 1.350 . S
C594 C591 1.437 . S
C594 C592 1.413 . S
C594 C604 1.391 . S
C595 C590 1.431 . S
C595 C591 1.317 . S
C595 H606 0.930 . S
C596 C590 1.412 . S
C596 C597 1.355 . S
C596 H608 0.930 . S
C597 C596 1.355 . S
C597 C599 1.402 . S
C597 H609 0.930 . S
N598 Gd589 2.661 1_554 S
N598 C593 1.350 . S
N598 C599 1.307 . S
C599 C597 1.402 . S
C599 N598 1.307 . S
C599 H600 0.930 . S
H600 C599 0.930 . S
C601 N602 1.334 1_556 S
C601 C603 1.394 1_556 S
C601 H605 0.930 . S
N602 Gd589 2.601 1_554 S
N602 C592 1.359 . S
N602 C601 1.334 1_554 S
C603 C601 1.394 1_554 S
C603 C604 1.359 . S
C603 H615 0.930 1_554 S
C604 C594 1.391 . S
C604 C603 1.359 . S
C604 H616 0.929 . S
H605 C601 0.930 . S
H606 C595 0.930 . S
H607 C624 0.930 . S
H608 C596 0.930 . S
H609 C597 0.930 . S
H610 C591 0.929 . S
H611 C629 0.930 . S
H612 C620 0.930 . S
H613 C621 0.930 . S
H614 C645 0.929 . S
H615 C603 0.930 1_556 S
H616 C604 0.929 . S
H617 C646 0.930 . S
H618 C627 0.930 . S
N619 Gd588 2.661 . S
N619 C623 1.350 . S
N619 C624 1.307 . S
C620 H612 0.930 . S
C620 C621 1.355 . S
C620 C622 1.412 . S
C621 H613 0.930 . S
C621 C620 1.355 . S
C621 C624 1.402 . S
C622 C620 1.412 . S
C622 C623 1.417 . S
C622 C646 1.431 . S
C623 N619 1.350 . S
C623 C622 1.417 . S
C623 C626 1.426 . S
C624 H607 0.930 . S
C624 N619 1.307 . S
C624 C621 1.402 . S
N625 Gd588 2.601 . S
N625 C626 1.359 . S
N625 C629 1.334 . S
C626 C623 1.426 . S
C626 N625 1.359 . S
C626 C630 1.413 . S
C627 H618 0.930 . S
C627 C628 1.359 . S
C627 C629 1.394 . S
C628 C627 1.359 . S
C628 C630 1.391 . S
C628 H631 0.929 . S
C629 H611 0.930 . S
C629 N625 1.334 . S
C629 C627 1.394 . S
C630 C626 1.413 . S
C630 C628 1.391 . S
C630 C645 1.437 . S
H631 C628 0.929 . S
O632 Gd588 2.545 . S
O632 C647 1.258 . S
O633 Gd588 2.606 . S
O633 Gd589 2.362 . S
O633 C644 1.284 . S
O634 Gd589 2.324 1_554 S
O634 C654 1.254 1_554 S
O635 Gd588 2.429 . S
O635 C654 1.268 . S
O636 Gd588 2.545 . S
O636 C644 1.250 . S
O637 Gd588 2.412 . S
O637 C647 1.252 . S
O638 Gd589 2.545 1_554 S
O638 C656 1.258 . S
O639 Gd588 2.362 . S
O639 Gd589 2.606 . S
O639 C655 1.284 . S
O640 Gd588 2.324 . S
O640 C663 1.254 . S
O641 Gd589 2.429 . S
O641 C663 1.268 . S
O642 Gd589 2.545 . S
O642 C655 1.250 . S
O643 Gd589 2.412 1_554 S
O643 C656 1.252 . S
C644 O633 1.284 . S
C644 O636 1.250 . S
C645 H614 0.929 . S
C645 C630 1.437 . S
C645 C646 1.317 . S
C646 H617 0.930 . S
C646 C622 1.431 . S
C646 C645 1.317 . S
C647 Gd588 2.828 . S
C647 O632 1.258 . S
C647 O637 1.252 . S
C647 C648 1.497 . S
C648 C647 1.497 . S
C648 C649 1.395 . S
C648 C650 1.380 . S
C649 C648 1.395 . S
C649 C652 1.398 . S
C649 H664 0.930 . S
C650 C648 1.380 . S
C650 C651 1.391 . S
C650 H665 0.930 . S
C651 C650 1.391 . S
C651 C653 1.387 . S
C652 C649 1.398 . S
C652 C653 1.380 . S
C652 H666 0.930 . S
C653 C651 1.387 . S
C653 C652 1.380 . S
C653 H667 0.930 . S
C654 O634 1.254 1_556 S
C654 O635 1.268 . S
C655 O639 1.284 . S
C655 O642 1.250 . S
C656 Gd589 2.828 1_554 S
C656 O638 1.258 . S
C656 O643 1.252 . S
C656 C657 1.497 . S
C657 C656 1.497 . S
C657 C658 1.395 . S
C657 C659 1.380 . S
C658 C657 1.395 . S
C658 C661 1.398 . S
C658 H668 0.930 . S
C659 C657 1.380 . S
C659 C660 1.391 . S
C659 H669 0.930 . S
C660 C659 1.391 . S
C660 C662 1.387 . S
C661 C658 1.398 . S
C661 C662 1.380 . S
C661 H670 0.930 . S
C662 C660 1.387 . S
C662 C661 1.380 . S
C662 H671 0.930 . S
C663 O640 1.254 . S
C663 O641 1.268 . S
H664 C649 0.930 . S
H665 C650 0.930 . S
H666 C652 0.930 . S
H667 C653 0.930 . S
H668 C658 0.930 . S
H669 C659 0.930 . S
H670 C661 0.930 . S
H671 C662 0.930 . S
Gd672 N703 2.661 . S
Gd672 N709 2.601 . S
Gd672 O716 2.545 . S
Gd672 O717 2.606 . S
Gd672 O719 2.429 . S
Gd672 O720 2.545 . S
Gd672 O721 2.412 . S
Gd672 O723 2.362 . S
Gd672 O724 2.324 . S
Gd672 C731 2.828 . S
Gd673 N682 2.661 1_545 S
Gd673 N686 2.601 1_545 S
Gd673 O717 2.362 . S
Gd673 O718 2.315 1_545 S
Gd673 O722 2.529 1_545 S
Gd673 O723 2.606 . S
Gd673 O725 2.429 . S
Gd673 O726 2.545 . S
Gd673 O727 2.412 1_545 S
Gd673 C740 2.828 1_545 S
C674 C677 1.417 . S
C674 C679 1.431 . S
C674 C680 1.412 . S
C675 C678 1.437 . S
C675 C679 1.317 . S
C675 H694 0.929 . S
C676 C677 1.426 . S
C676 C678 1.413 . S
C676 N686 1.359 . S
C677 C674 1.417 . S
C677 C676 1.426 . S
C677 N682 1.350 . S
C678 C675 1.437 . S
C678 C676 1.413 . S
C678 C688 1.391 . S
C679 C674 1.431 . S
C679 C675 1.317 . S
C679 H690 0.930 . S
C680 C674 1.412 . S
C680 C681 1.355 . S
C680 H692 0.930 . S
C681 C680 1.355 . S
C681 C683 1.402 . S
C681 H693 0.930 . S
N682 Gd673 2.661 1_565 S
N682 C677 1.350 . S
N682 C683 1.307 . S
C683 C681 1.402 . S
C683 N682 1.307 . S
C683 H684 0.930 . S
H684 C683 0.930 . S
C685 N686 1.334 1_545 S
C685 C687 1.376 1_545 S
C685 H689 0.930 . S
N686 Gd673 2.601 1_565 S
N686 C676 1.359 . S
N686 C685 1.334 1_565 S
C687 C685 1.376 1_565 S
C687 C688 1.402 . S
C687 H699 0.908 1_565 S
C688 C678 1.391 . S
C688 C687 1.402 . S
C688 H700 0.929 . S
H689 C685 0.930 . S
H690 C679 0.930 . S
H691 C708 0.930 . S
H692 C680 0.930 . S
H693 C681 0.930 . S
H694 C675 0.929 . S
H695 C713 0.930 . S
H696 C704 0.930 . S
H697 C705 0.930 . S
H698 C729 0.929 . S
H699 C687 0.908 1_545 S
H700 C688 0.929 . S
H701 C730 0.930 . S
H702 C711 0.930 . S
N703 Gd672 2.661 . S
N703 C707 1.350 . S
N703 C708 1.307 . S
C704 H696 0.930 . S
C704 C705 1.355 . S
C704 C706 1.412 . S
C705 H697 0.930 . S
C705 C704 1.355 . S
C705 C708 1.402 . S
C706 C704 1.412 . S
C706 C707 1.417 . S
C706 C730 1.431 . S
C707 N703 1.350 . S
C707 C706 1.417 . S
C707 C710 1.426 . S
C708 H691 0.930 . S
C708 N703 1.307 . S
C708 C705 1.402 . S
N709 Gd672 2.601 . S
N709 C710 1.359 . S
N709 C713 1.334 . S
C710 C707 1.426 . S
C710 N709 1.359 . S
C710 C714 1.413 . S
C711 H702 0.930 . S
C711 C712 1.359 . S
C711 C713 1.394 . S
C712 C711 1.359 . S
C712 C714 1.391 . S
C712 H715 0.929 . S
C713 H695 0.930 . S
C713 N709 1.334 . S
C713 C711 1.394 . S
C714 C710 1.413 . S
C714 C712 1.391 . S
C714 C729 1.437 . S
H715 C712 0.929 . S
O716 Gd672 2.545 . S
O716 C731 1.258 . S
O717 Gd672 2.606 . S
O717 Gd673 2.362 . S
O717 C728 1.284 . S
O718 Gd673 2.315 1_565 S
O718 C738 1.243 1_565 S
O719 Gd672 2.429 . S
O719 C738 1.268 . S
O720 Gd672 2.545 . S
O720 C728 1.250 . S
O721 Gd672 2.412 . S
O721 C731 1.252 . S
O722 Gd673 2.529 1_565 S
O722 C740 1.304 . S
O723 Gd672 2.362 . S
O723 Gd673 2.606 . S
O723 C739 1.284 . S
O724 Gd672 2.324 . S
O724 C747 1.254 . S
O725 Gd673 2.429 . S
O725 C747 1.268 . S
O726 Gd673 2.545 . S
O726 C739 1.250 . S
O727 Gd673 2.412 1_565 S
O727 C740 1.252 . S
C728 O717 1.284 . S
C728 O720 1.250 . S
C729 H698 0.929 . S
C729 C714 1.437 . S
C729 C730 1.317 . S
C730 H701 0.930 . S
C730 C706 1.431 . S
C730 C729 1.317 . S
C731 Gd672 2.828 . S
C731 O716 1.258 . S
C731 O721 1.252 . S
C731 C732 1.497 . S
C732 C731 1.497 . S
C732 C733 1.395 . S
C732 C734 1.380 . S
C733 C732 1.395 . S
C733 C736 1.398 . S
C733 H748 0.930 . S
C734 C732 1.380 . S
C734 C735 1.391 . S
C734 H749 0.930 . S
C735 C734 1.391 . S
C735 C737 1.387 . S
C736 C733 1.398 . S
C736 C737 1.380 . S
C736 H750 0.930 . S
C737 C735 1.387 . S
C737 C736 1.380 . S
C737 H751 0.930 . S
C738 O718 1.243 1_545 S
C738 O719 1.268 . S
C739 O723 1.284 . S
C739 O726 1.250 . S
C740 Gd673 2.828 1_565 S
C740 O722 1.304 . S
C740 O727 1.252 . S
C740 C741 1.497 . S
C741 C740 1.497 . S
C741 C742 1.395 . S
C741 C743 1.380 . S
C742 C741 1.395 . S
C742 C745 1.398 . S
C742 H752 0.930 . S
C743 C741 1.380 . S
C743 C744 1.391 . S
C743 H753 0.930 . S
C744 C743 1.391 . S
C744 C746 1.387 . S
C745 C742 1.398 . S
C745 C746 1.380 . S
C745 H754 0.930 . S
C746 C744 1.387 . S
C746 C745 1.380 . S
C746 H755 0.930 . S
C747 O724 1.254 . S
C747 O725 1.268 . S
H748 C733 0.930 . S
H749 C734 0.930 . S
H750 C736 0.930 . S
H751 C737 0.930 . S
H752 C742 0.930 . S
H753 C743 0.930 . S
H754 C745 0.930 . S
H755 C746 0.930 . S
Gd756 N787 2.661 . S
Gd756 N793 2.601 1_545 S
Gd756 O800 2.545 1_545 S
Gd756 O801 2.606 . S
Gd756 O803 2.429 . S
Gd756 O804 2.545 1_545 S
Gd756 O805 2.412 1_545 S
Gd756 O807 2.362 . S
Gd756 O808 2.324 . S
Gd756 C815 2.828 1_545 S
Gd757 N766 2.661 . S
Gd757 N770 2.601 . S
Gd757 O801 2.362 . S
Gd757 O802 2.324 . S
Gd757 O806 2.545 . S
Gd757 O807 2.606 . S
Gd757 O809 2.429 . S
Gd757 O810 2.545 . S
Gd757 O811 2.412 . S
Gd757 C824 2.828 . S
C758 C761 1.417 . S
C758 C763 1.431 . S
C758 C764 1.412 . S
C759 C762 1.437 . S
C759 C763 1.317 . S
C759 H778 0.929 . S
C760 C761 1.426 . S
C760 C762 1.413 . S
C760 N770 1.359 . S
C761 C758 1.417 . S
C761 C760 1.426 . S
C761 N766 1.350 . S
C762 C759 1.437 . S
C762 C760 1.413 . S
C762 C772 1.391 . S
C763 C758 1.431 . S
C763 C759 1.317 . S
C763 H774 0.930 . S
C764 C758 1.412 . S
C764 C765 1.355 . S
C764 H776 0.930 . S
C765 C764 1.355 . S
C765 C767 1.402 . S
C765 H777 0.930 1_545 S
N766 Gd757 2.661 . S
N766 C761 1.350 . S
N766 C767 1.307 . S
C767 C765 1.402 . S
C767 N766 1.307 . S
C767 H768 0.930 . S
H768 C767 0.930 . S
C769 N770 1.334 . S
C769 C771 1.394 . S
C769 H773 0.930 . S
N770 Gd757 2.601 . S
N770 C760 1.359 . S
N770 C769 1.334 . S
C771 C769 1.394 . S
C771 C772 1.359 . S
C771 H783 0.930 . S
C772 C762 1.391 . S
C772 C771 1.359 . S
C772 H784 0.929 . S
H773 C769 0.930 . S
H774 C763 0.930 . S
H775 C792 0.930 . S
H776 C764 0.930 . S
H777 C765 0.930 1_565 S
H778 C759 0.929 . S
H779 C797 0.930 . S
H780 C788 0.930 . S
H781 C789 0.930 . S
H782 C813 0.929 . S
H783 C771 0.930 . S
H784 C772 0.929 . S
H785 C814 0.930 . S
H786 C795 0.930 . S
N787 Gd756 2.661 . S
N787 C791 1.350 . S
N787 C792 1.307 . S
C788 H780 0.930 . S
C788 C789 1.355 . S
C788 C790 1.412 . S
C789 H781 0.930 . S
C789 C788 1.355 . S
C789 C792 1.402 . S
C790 C788 1.412 . S
C790 C791 1.417 . S
C790 C814 1.431 . S
C791 N787 1.350 . S
C791 C790 1.417 . S
C791 C794 1.426 . S
C792 H775 0.930 . S
C792 N787 1.307 . S
C792 C789 1.402 . S
N793 Gd756 2.601 1_565 S
N793 C794 1.359 1_565 S
N793 C797 1.334 . S
C794 C791 1.426 . S
C794 N793 1.359 1_545 S
C794 C798 1.410 1_545 S
C795 H786 0.930 . S
C795 C796 1.359 . S
C795 C797 1.394 . S
C796 C795 1.359 . S
C796 C798 1.398 . S
C796 H799 0.929 . S
C797 H779 0.930 . S
C797 N793 1.334 . S
C797 C795 1.394 . S
C798 C794 1.410 1_565 S
C798 C796 1.398 . S
C798 C813 1.433 1_565 S
H799 C796 0.929 . S
O800 Gd756 2.545 1_565 S
O800 C815 1.258 . S
O801 Gd756 2.606 . S
O801 Gd757 2.362 . S
O801 C812 1.284 . S
O802 Gd757 2.324 . S
O802 C822 1.254 . S
O803 Gd756 2.429 . S
O803 C822 1.268 . S
O804 Gd756 2.545 1_565 S
O804 C812 1.250 1_565 S
O805 Gd756 2.412 1_565 S
O805 C815 1.252 . S
O806 Gd757 2.545 . S
O806 C824 1.258 . S
O807 Gd756 2.362 . S
O807 Gd757 2.606 . S
O807 C823 1.284 . S
O808 Gd756 2.324 . S
O808 C831 1.254 . S
O809 Gd757 2.429 . S
O809 C831 1.268 . S
O810 Gd757 2.545 . S
O810 C823 1.250 . S
O811 Gd757 2.412 . S
O811 C824 1.252 . S
C812 O801 1.284 . S
C812 O804 1.250 1_545 S
C813 H782 0.929 . S
C813 C798 1.433 1_545 S
C813 C814 1.317 . S
C814 H785 0.930 . S
C814 C790 1.431 . S
C814 C813 1.317 . S
C815 Gd756 2.828 1_565 S
C815 O800 1.258 . S
C815 O805 1.252 . S
C815 C816 1.497 . S
C816 C815 1.497 . S
C816 C817 1.395 . S
C816 C818 1.380 . S
C817 C816 1.395 . S
C817 C820 1.398 . S
C817 H832 0.930 . S
C818 C816 1.380 . S
C818 C819 1.391 . S
C818 H833 0.930 . S
C819 C818 1.391 . S
C819 C821 1.387 . S
C820 C817 1.398 . S
C820 C821 1.380 . S
C820 H834 0.930 . S
C821 C819 1.387 . S
C821 C820 1.380 . S
C821 H835 0.930 . S
C822 O802 1.254 . S
C822 O803 1.268 . S
C823 O807 1.284 . S
C823 O810 1.250 . S
C824 Gd757 2.828 . S
C824 O806 1.258 . S
C824 O811 1.252 . S
C824 C825 1.497 . S
C825 C824 1.497 . S
C825 C826 1.395 . S
C825 C827 1.380 . S
C826 C825 1.395 . S
C826 C829 1.398 . S
C826 H836 0.930 . S
C827 C825 1.380 . S
C827 C828 1.391 . S
C827 H837 0.930 . S
C828 C827 1.391 . S
C828 C830 1.387 . S
C829 C826 1.398 . S
C829 C830 1.380 . S
C829 H838 0.930 . S
C830 C828 1.387 . S
C830 C829 1.380 . S
C830 H839 0.930 . S
C831 O808 1.254 . S
C831 O809 1.268 . S
H832 C817 0.930 . S
H833 C818 0.930 . S
H834 C820 0.930 . S
H835 C821 0.930 . S
H836 C826 0.930 . S
H837 C827 0.930 . S
H838 C829 0.930 . S
H839 C830 0.930 . S
Gd840 N871 2.661 . S
Gd840 N877 2.601 . S
Gd840 O884 2.545 . S
Gd840 O885 2.606 . S
Gd840 O887 2.429 . S
Gd840 O888 2.545 . S
Gd840 O889 2.412 . S
Gd840 O891 2.362 . S
Gd840 O892 2.324 . S
Gd840 C899 2.828 . S
Gd841 N850 2.661 1_565 S
Gd841 N854 2.601 1_565 S
Gd841 O885 2.362 . S
Gd841 O886 2.324 1_565 S
Gd841 O890 2.545 1_565 S
Gd841 O891 2.606 . S
Gd841 O893 2.429 . S
Gd841 O894 2.545 . S
Gd841 O895 2.412 1_565 S
Gd841 C908 2.828 1_565 S
C842 C845 1.417 . S
C842 C847 1.431 . S
C842 C848 1.412 . S
C843 C846 1.437 . S
C843 C847 1.317 . S
C843 H862 0.929 . S
C844 C845 1.426 . S
C844 C846 1.413 . S
C844 N854 1.359 . S
C845 C842 1.417 . S
C845 C844 1.426 . S
C845 N850 1.350 . S
C846 C843 1.437 . S
C846 C844 1.413 . S
C846 C856 1.391 . S
C847 C842 1.431 . S
C847 C843 1.317 . S
C847 H858 0.930 . S
C848 C842 1.412 . S
C848 C849 1.355 . S
C848 H860 0.930 . S
C849 C848 1.355 . S
C849 C851 1.402 . S
C849 H861 0.930 . S
N850 Gd841 2.661 1_545 S
N850 C845 1.350 . S
N850 C851 1.307 . S
C851 C849 1.402 . S
C851 N850 1.307 . S
C851 H852 0.930 . S
H852 C851 0.930 . S
C853 N854 1.334 1_565 S
C853 C855 1.394 1_565 S
C853 H857 0.930 . S
N854 Gd841 2.601 1_545 S
N854 C844 1.359 . S
N854 C853 1.334 1_545 S
C855 C853 1.394 1_545 S
C855 C856 1.359 . S
C855 H867 0.930 1_545 S
C856 C846 1.391 . S
C856 C855 1.359 . S
C856 H868 0.929 . S
H857 C853 0.930 . S
H858 C847 0.930 . S
H859 C876 0.930 . S
H860 C848 0.930 . S
H861 C849 0.930 . S
H862 C843 0.929 . S
H863 C881 0.930 . S
H864 C872 0.930 . S
H865 C873 0.930 . S
H866 C897 0.929 . S
H867 C855 0.930 1_565 S
H868 C856 0.929 . S
H869 C898 0.930 . S
H870 C879 0.930 . S
N871 Gd840 2.661 . S
N871 C875 1.350 . S
N871 C876 1.307 . S
C872 H864 0.930 . S
C872 C873 1.355 . S
C872 C874 1.412 . S
C873 H865 0.930 . S
C873 C872 1.355 . S
C873 C876 1.402 . S
C874 C872 1.412 . S
C874 C875 1.417 . S
C874 C898 1.431 . S
C875 N871 1.350 . S
C875 C874 1.417 . S
C875 C878 1.426 . S
C876 H859 0.930 . S
C876 N871 1.307 . S
C876 C873 1.402 . S
N877 Gd840 2.601 . S
N877 C878 1.359 . S
N877 C881 1.334 . S
C878 C875 1.426 . S
C878 N877 1.359 . S
C878 C882 1.413 . S
C879 H870 0.930 . S
C879 C880 1.359 . S
C879 C881 1.394 . S
C880 C879 1.359 . S
C880 C882 1.391 . S
C880 H883 0.929 . S
C881 H863 0.930 . S
C881 N877 1.334 . S
C881 C879 1.394 . S
C882 C878 1.413 . S
C882 C880 1.391 . S
C882 C897 1.437 . S
H883 C880 0.929 . S
O884 Gd840 2.545 . S
O884 C899 1.258 . S
O885 Gd840 2.606 . S
O885 Gd841 2.362 . S
O885 C896 1.284 . S
O886 Gd841 2.324 1_545 S
O886 C906 1.254 1_545 S
O887 Gd840 2.429 . S
O887 C906 1.268 . S
O888 Gd840 2.545 . S
O888 C896 1.250 . S
O889 Gd840 2.412 . S
O889 C899 1.252 . S
O890 Gd841 2.545 1_545 S
O890 C908 1.258 . S
O891 Gd840 2.362 . S
O891 Gd841 2.606 . S
O891 C907 1.284 . S
O892 Gd840 2.324 . S
O892 C915 1.254 . S
O893 Gd841 2.429 . S
O893 C915 1.268 . S
O894 Gd841 2.545 . S
O894 C907 1.250 . S
O895 Gd841 2.412 1_545 S
O895 C908 1.252 . S
C896 O885 1.284 . S
C896 O888 1.250 . S
C897 H866 0.929 . S
C897 C882 1.437 . S
C897 C898 1.317 . S
C898 H869 0.930 . S
C898 C874 1.431 . S
C898 C897 1.317 . S
C899 Gd840 2.828 . S
C899 O884 1.258 . S
C899 O889 1.252 . S
C899 C900 1.497 . S
C900 C899 1.497 . S
C900 C901 1.395 . S
C900 C902 1.380 . S
C901 C900 1.395 . S
C901 C904 1.398 . S
C901 H916 0.930 . S
C902 C900 1.380 . S
C902 C903 1.391 . S
C902 H917 0.930 . S
C903 C902 1.391 . S
C903 C905 1.387 . S
C904 C901 1.398 . S
C904 C905 1.380 . S
C904 H918 0.930 . S
C905 C903 1.387 . S
C905 C904 1.380 . S
C905 H919 0.930 . S
C906 O886 1.254 1_565 S
C906 O887 1.268 . S
C907 O891 1.284 . S
C907 O894 1.250 . S
C908 Gd841 2.828 1_545 S
C908 O890 1.258 . S
C908 O895 1.252 . S
C908 C909 1.497 . S
C909 C908 1.497 . S
C909 C910 1.395 . S
C909 C911 1.380 . S
C910 C909 1.395 . S
C910 C913 1.398 . S
C910 H920 0.930 . S
C911 C909 1.380 . S
C911 C912 1.391 . S
C911 H921 0.930 . S
C912 C911 1.391 . S
C912 C914 1.387 . S
C913 C910 1.398 . S
C913 C914 1.380 . S
C913 H922 0.930 . S
C914 C912 1.387 . S
C914 C913 1.380 . S
C914 H923 0.930 . S
C915 O892 1.254 . S
C915 O893 1.268 . S
H916 C901 0.930 . S
H917 C902 0.930 . S
H918 C904 0.930 . S
H919 C905 0.930 . S
H920 C910 0.930 . S
H921 C911 0.930 . S
H922 C913 0.930 . S
H923 C914 0.930 . S
Gd924 N955 2.661 . S
Gd924 N961 2.601 1_565 S
Gd924 O968 2.545 1_565 S
Gd924 O969 2.606 . S
Gd924 O971 2.429 . S
Gd924 O972 2.545 1_565 S
Gd924 O973 2.412 1_565 S
Gd924 O975 2.362 . S
Gd924 O976 2.324 . S
Gd924 C983 2.828 1_565 S
Gd925 N934 2.661 . S
Gd925 N938 2.601 . S
Gd925 O969 2.362 . S
Gd925 O970 2.324 . S
Gd925 O974 2.545 . S
Gd925 O975 2.606 . S
Gd925 O977 2.429 . S
Gd925 O978 2.545 . S
Gd925 O979 2.412 . S
Gd925 C992 2.828 . S
C926 C929 1.417 . S
C926 C931 1.431 . S
C926 C932 1.412 . S
C927 C930 1.437 . S
C927 C931 1.317 . S
C927 H946 0.929 . S
C928 C929 1.426 . S
C928 C930 1.413 . S
C928 N938 1.359 . S
C929 C926 1.417 . S
C929 C928 1.426 . S
C929 N934 1.350 . S
C930 C927 1.437 . S
C930 C928 1.413 . S
C930 C940 1.391 . S
C931 C926 1.431 . S
C931 C927 1.317 . S
C931 H942 0.930 . S
C932 C926 1.412 . S
C932 C933 1.355 . S
C932 H944 0.930 . S
C933 C932 1.355 . S
C933 C935 1.402 . S
C933 H945 0.930 1_565 S
N934 Gd925 2.661 . S
N934 C929 1.350 . S
N934 C935 1.307 . S
C935 C933 1.402 . S
C935 N934 1.307 . S
C935 H936 0.930 . S
H936 C935 0.930 . S
C937 N938 1.334 . S
C937 C939 1.394 . S
C937 H941 0.930 . S
N938 Gd925 2.601 . S
N938 C928 1.359 . S
N938 C937 1.334 . S
C939 C937 1.394 . S
C939 C940 1.359 . S
C939 H951 0.930 . S
C940 C930 1.391 . S
C940 C939 1.359 . S
C940 H952 0.929 . S
H941 C937 0.930 . S
H942 C931 0.930 . S
H943 C960 0.930 . S
H944 C932 0.930 . S
H945 C933 0.930 1_545 S
H946 C927 0.929 . S
H947 C965 0.930 . S
H948 C956 0.930 . S
H949 C957 0.930 . S
H950 C981 0.929 . S
H951 C939 0.930 . S
H952 C940 0.929 . S
H953 C982 0.930 . S
H954 C963 0.930 . S
N955 Gd924 2.661 . S
N955 C959 1.350 . S
N955 C960 1.307 . S
C956 H948 0.930 . S
C956 C957 1.355 . S
C956 C958 1.412 . S
C957 H949 0.930 . S
C957 C956 1.355 . S
C957 C960 1.402 . S
C958 C956 1.412 . S
C958 C959 1.417 . S
C958 C982 1.431 . S
C959 N955 1.350 . S
C959 C958 1.417 . S
C959 C962 1.426 . S
C960 H943 0.930 . S
C960 N955 1.307 . S
C960 C957 1.402 . S
N961 Gd924 2.601 1_545 S
N961 C962 1.359 1_545 S
N961 C965 1.334 . S
C962 C959 1.426 . S
C962 N961 1.359 1_565 S
C962 C966 1.404 1_565 S
C963 H954 0.930 . S
C963 C964 1.359 . S
C963 C965 1.394 . S
C964 C963 1.359 . S
C964 C966 1.413 . S
C964 H967 0.929 . S
C965 H947 0.930 . S
C965 N961 1.334 . S
C965 C963 1.394 . S
C966 C962 1.404 1_545 S
C966 C964 1.413 . S
C966 C981 1.424 1_545 S
H967 C964 0.929 . S
O968 Gd924 2.545 1_545 S
O968 C983 1.258 . S
O969 Gd924 2.606 . S
O969 Gd925 2.362 . S
O969 C980 1.284 . S
O970 Gd925 2.324 . S
O970 C990 1.254 . S
O971 Gd924 2.429 . S
O971 C990 1.268 . S
O972 Gd924 2.545 1_545 S
O972 C980 1.250 1_545 S
O973 Gd924 2.412 1_545 S
O973 C983 1.252 . S
O974 Gd925 2.545 . S
O974 C992 1.258 . S
O975 Gd924 2.362 . S
O975 Gd925 2.606 . S
O975 C991 1.284 . S
O976 Gd924 2.324 . S
O976 C999 1.254 . S
O977 Gd925 2.429 . S
O977 C999 1.268 . S
O978 Gd925 2.545 . S
O978 C991 1.250 . S
O979 Gd925 2.412 . S
O979 C992 1.252 . S
C980 O969 1.284 . S
C980 O972 1.250 1_565 S
C981 H950 0.929 . S
C981 C966 1.424 1_565 S
C981 C982 1.317 . S
C982 H953 0.930 . S
C982 C958 1.431 . S
C982 C981 1.317 . S
C983 Gd924 2.828 1_545 S
C983 O968 1.258 . S
C983 O973 1.252 . S
C983 C984 1.497 . S
C984 C983 1.497 . S
C984 C985 1.395 . S
C984 C986 1.380 . S
C985 C984 1.395 . S
C985 C988 1.398 . S
C985 H1000 0.930 . S
C986 C984 1.380 . S
C986 C987 1.391 . S
C986 H1001 0.930 . S
C987 C986 1.391 . S
C987 C989 1.387 . S
C988 C985 1.398 . S
C988 C989 1.380 . S
C988 H1002 0.930 . S
C989 C987 1.387 . S
C989 C988 1.380 . S
C989 H1003 0.930 . S
C990 O970 1.254 . S
C990 O971 1.268 . S
C991 O975 1.284 . S
C991 O978 1.250 . S
C992 Gd925 2.828 . S
C992 O974 1.258 . S
C992 O979 1.252 . S
C992 C993 1.497 . S
C993 C992 1.497 . S
C993 C994 1.395 . S
C993 C995 1.380 . S
C994 C993 1.395 . S
C994 C997 1.398 . S
C994 H1004 0.930 . S
C995 C993 1.380 . S
C995 C996 1.391 . S
C995 H1005 0.930 . S
C996 C995 1.391 . S
C996 C998 1.387 . S
C997 C994 1.398 . S
C997 C998 1.380 . S
C997 H1006 0.930 . S
C998 C996 1.387 . S
C998 C997 1.380 . S
C998 H1007 0.930 . S
C999 O976 1.254 . S
C999 O977 1.268 . S
H1000 C985 0.930 . S
H1001 C986 0.930 . S
H1002 C988 0.930 . S
H1003 C989 0.930 . S
H1004 C994 0.930 . S
H1005 C995 0.930 . S
H1006 C997 0.930 . S
H1007 C998 0.930 . S
Gd1008 N1039 2.661 . S
Gd1008 N1045 2.601 1_554 S
Gd1008 O1052 2.545 1_554 S
Gd1008 O1053 2.606 . S
Gd1008 O1055 2.429 . S
Gd1008 O1056 2.545 1_554 S
Gd1008 O1057 2.412 1_554 S
Gd1008 O1059 2.362 . S
Gd1008 O1060 2.324 . S
Gd1008 C1067 2.828 1_554 S
Gd1009 N1018 2.661 . S
Gd1009 N1022 2.601 . S
Gd1009 O1053 2.362 . S
Gd1009 O1054 2.324 . S
Gd1009 O1058 2.545 . S
Gd1009 O1059 2.606 . S
Gd1009 O1061 2.429 . S
Gd1009 O1062 2.545 . S
Gd1009 O1063 2.412 . S
Gd1009 C1076 2.828 . S
C1010 C1013 1.417 . S
C1010 C1015 1.431 . S
C1010 C1016 1.412 . S
C1011 C1014 1.437 . S
C1011 C1015 1.317 . S
C1011 H1030 0.929 . S
C1012 C1013 1.426 . S
C1012 C1014 1.413 . S
C1012 N1022 1.359 . S
C1013 C1010 1.417 . S
C1013 C1012 1.426 . S
C1013 N1018 1.350 . S
C1014 C1011 1.437 . S
C1014 C1012 1.413 . S
C1014 C1024 1.391 . S
C1015 C1010 1.431 . S
C1015 C1011 1.317 . S
C1015 H1026 0.930 . S
C1016 C1010 1.412 . S
C1016 C1017 1.355 . S
C1016 H1028 0.930 . S
C1017 C1016 1.355 . S
C1017 C1019 1.402 . S
C1017 H1029 0.930 1_554 S
N1018 Gd1009 2.661 . S
N1018 C1013 1.350 . S
N1018 C1019 1.307 . S
C1019 C1017 1.402 . S
C1019 N1018 1.307 . S
C1019 H1020 0.930 . S
H1020 C1019 0.930 . S
C1021 N1022 1.334 . S
C1021 C1023 1.394 . S
C1021 H1025 0.930 . S
N1022 Gd1009 2.601 . S
N1022 C1012 1.359 . S
N1022 C1021 1.334 . S
C1023 C1021 1.394 . S
C1023 C1024 1.359 . S
C1023 H1035 0.930 . S
C1024 C1014 1.391 . S
C1024 C1023 1.359 . S
C1024 H1036 0.929 . S
H1025 C1021 0.930 . S
H1026 C1015 0.930 . S
H1027 C1044 0.930 . S
H1028 C1016 0.930 . S
H1029 C1017 0.930 1_556 S
H1030 C1011 0.929 . S
H1031 C1049 0.930 . S
H1032 C1040 0.930 . S
H1033 C1041 0.930 . S
H1034 C1065 0.929 . S
H1035 C1023 0.930 . S
H1036 C1024 0.929 . S
H1037 C1066 0.930 . S
H1038 C1047 0.930 . S
N1039 Gd1008 2.661 . S
N1039 C1043 1.350 . S
N1039 C1044 1.307 . S
C1040 H1032 0.930 . S
C1040 C1041 1.355 . S
C1040 C1042 1.412 . S
C1041 H1033 0.930 . S
C1041 C1040 1.355 . S
C1041 C1044 1.402 . S
C1042 C1040 1.412 . S
C1042 C1043 1.417 . S
C1042 C1066 1.431 . S
C1043 N1039 1.350 . S
C1043 C1042 1.417 . S
C1043 C1046 1.426 . S
C1044 H1027 0.930 . S
C1044 N1039 1.307 . S
C1044 C1041 1.402 . S
N1045 Gd1008 2.601 1_556 S
N1045 C1046 1.359 1_556 S
N1045 C1049 1.334 . S
C1046 C1043 1.426 . S
C1046 N1045 1.359 1_554 S
C1046 C1050 1.406 1_554 S
C1047 H1038 0.930 . S
C1047 C1048 1.359 . S
C1047 C1049 1.394 . S
C1048 C1047 1.359 . S
C1048 C1050 1.409 . S
C1048 H1051 0.929 . S
C1049 H1031 0.930 . S
C1049 N1045 1.334 . S
C1049 C1047 1.394 . S
C1050 C1046 1.406 1_556 S
C1050 C1048 1.409 . S
C1050 C1065 1.426 1_556 S
H1051 C1048 0.929 . S
O1052 Gd1008 2.545 1_556 S
O1052 C1067 1.258 . S
O1053 Gd1008 2.606 . S
O1053 Gd1009 2.362 . S
O1053 C1064 1.284 . S
O1054 Gd1009 2.324 . S
O1054 C1074 1.254 . S
O1055 Gd1008 2.429 . S
O1055 C1074 1.268 . S
O1056 Gd1008 2.545 1_556 S
O1056 C1064 1.250 1_556 S
O1057 Gd1008 2.412 1_556 S
O1057 C1067 1.252 . S
O1058 Gd1009 2.545 . S
O1058 C1076 1.258 . S
O1059 Gd1008 2.362 . S
O1059 Gd1009 2.606 . S
O1059 C1075 1.284 . S
O1060 Gd1008 2.324 . S
O1060 C1083 1.254 . S
O1061 Gd1009 2.429 . S
O1061 C1083 1.268 . S
O1062 Gd1009 2.545 . S
O1062 C1075 1.250 . S
O1063 Gd1009 2.412 . S
O1063 C1076 1.252 . S
C1064 O1053 1.284 . S
C1064 O1056 1.250 1_554 S
C1065 H1034 0.929 . S
C1065 C1050 1.426 1_554 S
C1065 C1066 1.317 . S
C1066 H1037 0.930 . S
C1066 C1042 1.431 . S
C1066 C1065 1.317 . S
C1067 Gd1008 2.828 1_556 S
C1067 O1052 1.258 . S
C1067 O1057 1.252 . S
C1067 C1068 1.497 . S
C1068 C1067 1.497 . S
C1068 C1069 1.395 . S
C1068 C1070 1.380 . S
C1069 C1068 1.395 . S
C1069 C1072 1.398 . S
C1069 H1084 0.930 . S
C1070 C1068 1.380 . S
C1070 C1071 1.391 . S
C1070 H1085 0.930 . S
C1071 C1070 1.391 . S
C1071 C1073 1.387 . S
C1072 C1069 1.398 . S
C1072 C1073 1.380 . S
C1072 H1086 0.930 . S
C1073 C1071 1.387 . S
C1073 C1072 1.380 . S
C1073 H1087 0.930 . S
C1074 O1054 1.254 . S
C1074 O1055 1.268 . S
C1075 O1059 1.284 . S
C1075 O1062 1.250 . S
C1076 Gd1009 2.828 . S
C1076 O1058 1.258 . S
C1076 O1063 1.252 . S
C1076 C1077 1.497 . S
C1077 C1076 1.497 . S
C1077 C1078 1.395 . S
C1077 C1079 1.380 . S
C1078 C1077 1.395 . S
C1078 C1081 1.398 . S
C1078 H1088 0.930 . S
C1079 C1077 1.380 . S
C1079 C1080 1.391 . S
C1079 H1089 0.930 . S
C1080 C1079 1.391 . S
C1080 C1082 1.387 . S
C1081 C1078 1.398 . S
C1081 C1082 1.380 . S
C1081 H1090 0.930 . S
C1082 C1080 1.387 . S
C1082 C1081 1.380 . S
C1082 H1091 0.930 . S
C1083 O1060 1.254 . S
C1083 O1061 1.268 . S
H1084 C1069 0.930 . S
H1085 C1070 0.930 . S
H1086 C1072 0.930 . S
H1087 C1073 0.930 . S
H1088 C1078 0.930 . S
H1089 C1079 0.930 . S
H1090 C1081 0.930 . S
H1091 C1082 0.930 . S
Gd1092 N1123 2.661 . S
Gd1092 N1129 2.601 . S
Gd1092 O1136 2.545 . S
Gd1092 O1137 2.606 . S
Gd1092 O1139 2.429 . S
Gd1092 O1140 2.545 . S
Gd1092 O1141 2.412 . S
Gd1092 O1143 2.362 . S
Gd1092 O1144 2.324 . S
Gd1092 C1151 2.828 . S
Gd1093 N1102 2.661 1_655 S
Gd1093 N1106 2.601 1_655 S
Gd1093 O1137 2.362 . S
Gd1093 O1138 2.324 1_655 S
Gd1093 O1142 2.545 1_655 S
Gd1093 O1143 2.606 . S
Gd1093 O1145 2.429 . S
Gd1093 O1146 2.545 . S
Gd1093 O1147 2.412 1_655 S
Gd1093 C1160 2.828 1_655 S
C1094 C1097 1.417 . S
C1094 C1099 1.431 . S
C1094 C1100 1.412 . S
C1095 C1098 1.437 . S
C1095 C1099 1.317 . S
C1095 H1114 0.929 . S
C1096 C1097 1.426 . S
C1096 C1098 1.413 . S
C1096 N1106 1.359 . S
C1097 C1094 1.417 . S
C1097 C1096 1.426 . S
C1097 N1102 1.350 . S
C1098 C1095 1.437 . S
C1098 C1096 1.413 . S
C1098 C1108 1.391 . S
C1099 C1094 1.431 . S
C1099 C1095 1.317 . S
C1099 H1110 0.930 . S
C1100 C1094 1.412 . S
C1100 C1101 1.355 . S
C1100 H1112 0.930 . S
C1101 C1100 1.355 . S
C1101 C1103 1.402 . S
C1101 H1113 0.930 . S
N1102 Gd1093 2.661 1_455 S
N1102 C1097 1.350 . S
N1102 C1103 1.307 . S
C1103 C1101 1.402 . S
C1103 N1102 1.307 . S
C1103 H1104 0.930 . S
H1104 C1103 0.930 . S
C1105 N1106 1.334 1_655 S
C1105 C1107 1.394 1_655 S
C1105 H1109 0.930 . S
N1106 Gd1093 2.601 1_455 S
N1106 C1096 1.359 . S
N1106 C1105 1.334 1_455 S
C1107 C1105 1.394 1_455 S
C1107 C1108 1.359 . S
C1107 H1119 0.930 1_455 S
C1108 C1098 1.391 . S
C1108 C1107 1.359 . S
C1108 H1120 0.929 . S
H1109 C1105 0.930 . S
H1110 C1099 0.930 . S
H1111 C1128 0.930 . S
H1112 C1100 0.930 . S
H1113 C1101 0.930 . S
H1114 C1095 0.929 . S
H1115 C1133 0.930 . S
H1116 C1124 0.930 . S
H1117 C1125 0.930 . S
H1118 C1149 0.929 . S
H1119 C1107 0.930 1_655 S
H1120 C1108 0.929 . S
H1121 C1150 0.930 . S
H1122 C1131 0.930 . S
N1123 Gd1092 2.661 . S
N1123 C1127 1.350 . S
N1123 C1128 1.307 . S
C1124 H1116 0.930 . S
C1124 C1125 1.355 . S
C1124 C1126 1.412 . S
C1125 H1117 0.930 . S
C1125 C1124 1.355 . S
C1125 C1128 1.402 . S
C1126 C1124 1.412 . S
C1126 C1127 1.417 . S
C1126 C1150 1.431 . S
C1127 N1123 1.350 . S
C1127 C1126 1.417 . S
C1127 C1130 1.426 . S
C1128 H1111 0.930 . S
C1128 N1123 1.307 . S
C1128 C1125 1.402 . S
N1129 Gd1092 2.601 . S
N1129 C1130 1.359 . S
N1129 C1133 1.334 . S
C1130 C1127 1.426 . S
C1130 N1129 1.359 . S
C1130 C1134 1.413 . S
C1131 H1122 0.930 . S
C1131 C1132 1.359 . S
C1131 C1133 1.394 . S
C1132 C1131 1.359 . S
C1132 C1134 1.391 . S
C1132 H1135 0.929 . S
C1133 H1115 0.930 . S
C1133 N1129 1.334 . S
C1133 C1131 1.394 . S
C1134 C1130 1.413 . S
C1134 C1132 1.391 . S
C1134 C1149 1.437 . S
H1135 C1132 0.929 . S
O1136 Gd1092 2.545 . S
O1136 C1151 1.258 . S
O1137 Gd1092 2.606 . S
O1137 Gd1093 2.362 . S
O1137 C1148 1.284 . S
O1138 Gd1093 2.324 1_455 S
O1138 C1158 1.254 1_455 S
O1139 Gd1092 2.429 . S
O1139 C1158 1.268 . S
O1140 Gd1092 2.545 . S
O1140 C1148 1.250 . S
O1141 Gd1092 2.412 . S
O1141 C1151 1.252 . S
O1142 Gd1093 2.545 1_455 S
O1142 C1160 1.258 . S
O1143 Gd1092 2.362 . S
O1143 Gd1093 2.606 . S
O1143 C1159 1.284 . S
O1144 Gd1092 2.324 . S
O1144 C1167 1.254 . S
O1145 Gd1093 2.429 . S
O1145 C1167 1.268 . S
O1146 Gd1093 2.545 . S
O1146 C1159 1.250 . S
O1147 Gd1093 2.412 1_455 S
O1147 C1160 1.252 . S
C1148 O1137 1.284 . S
C1148 O1140 1.250 . S
C1149 H1118 0.929 . S
C1149 C1134 1.437 . S
C1149 C1150 1.317 . S
C1150 H1121 0.930 . S
C1150 C1126 1.431 . S
C1150 C1149 1.317 . S
C1151 Gd1092 2.828 . S
C1151 O1136 1.258 . S
C1151 O1141 1.252 . S
C1151 C1152 1.497 . S
C1152 C1151 1.497 . S
C1152 C1153 1.395 . S
C1152 C1154 1.380 . S
C1153 C1152 1.395 . S
C1153 C1156 1.398 . S
C1153 H1168 0.930 . S
C1154 C1152 1.380 . S
C1154 C1155 1.391 . S
C1154 H1169 0.930 . S
C1155 C1154 1.391 . S
C1155 C1157 1.387 . S
C1156 C1153 1.398 . S
C1156 C1157 1.380 . S
C1156 H1170 0.930 . S
C1157 C1155 1.387 . S
C1157 C1156 1.380 . S
C1157 H1171 0.930 . S
C1158 O1138 1.254 1_655 S
C1158 O1139 1.268 . S
C1159 O1143 1.284 . S
C1159 O1146 1.250 . S
C1160 Gd1093 2.828 1_455 S
C1160 O1142 1.258 . S
C1160 O1147 1.252 . S
C1160 C1161 1.497 . S
C1161 C1160 1.497 . S
C1161 C1162 1.395 . S
C1161 C1163 1.380 . S
C1162 C1161 1.395 . S
C1162 C1165 1.398 . S
C1162 H1172 0.930 . S
C1163 C1161 1.380 . S
C1163 C1164 1.391 . S
C1163 H1173 0.930 . S
C1164 C1163 1.391 . S
C1164 C1166 1.387 . S
C1165 C1162 1.398 . S
C1165 C1166 1.380 . S
C1165 H1174 0.930 . S
C1166 C1164 1.387 . S
C1166 C1165 1.380 . S
C1166 H1175 0.930 . S
C1167 O1144 1.254 . S
C1167 O1145 1.268 . S
H1168 C1153 0.930 . S
H1169 C1154 0.930 . S
H1170 C1156 0.930 . S
H1171 C1157 0.930 . S
H1172 C1162 0.930 . S
H1173 C1163 0.930 . S
H1174 C1165 0.930 . S
H1175 C1166 0.930 . S
Gd1176 N1207 2.661 . S
Gd1176 N1213 2.601 . S
Gd1176 O1220 2.545 . S
Gd1176 O1221 2.606 . S
Gd1176 O1223 2.429 . S
Gd1176 O1224 2.545 . S
Gd1176 O1225 2.412 . S
Gd1176 O1227 2.362 . S
Gd1176 O1228 2.324 . S
Gd1176 C1235 2.828 . S
Gd1177 N1186 2.661 . S
Gd1177 N1190 2.601 . S
Gd1177 O1221 2.362 . S
Gd1177 O1222 2.324 . S
Gd1177 O1226 2.545 . S
Gd1177 O1227 2.606 . S
Gd1177 O1229 2.429 . S
Gd1177 O1230 2.545 . S
Gd1177 O1231 2.412 . S
Gd1177 C1244 2.828 . S
C1178 C1181 1.417 . S
C1178 C1183 1.431 . S
C1178 C1184 1.412 . S
C1179 C1182 1.437 . S
C1179 C1183 1.317 . S
C1179 H1198 0.929 . S
C1180 C1181 1.426 . S
C1180 C1182 1.413 . S
C1180 N1190 1.359 . S
C1181 C1178 1.417 . S
C1181 C1180 1.426 . S
C1181 N1186 1.350 . S
C1182 C1179 1.437 . S
C1182 C1180 1.413 . S
C1182 C1192 1.391 . S
C1183 C1178 1.431 . S
C1183 C1179 1.317 . S
C1183 H1194 0.930 . S
C1184 C1178 1.412 . S
C1184 C1185 1.355 . S
C1184 H1196 0.930 . S
C1185 C1184 1.355 . S
C1185 C1187 1.402 . S
C1185 H1197 0.930 . S
N1186 Gd1177 2.661 . S
N1186 C1181 1.350 . S
N1186 C1187 1.307 . S
C1187 C1185 1.402 . S
C1187 N1186 1.307 . S
C1187 H1188 0.930 . S
H1188 C1187 0.930 . S
C1189 N1190 1.334 . S
C1189 C1191 1.394 . S
C1189 H1193 0.930 . S
N1190 Gd1177 2.601 . S
N1190 C1180 1.359 . S
N1190 C1189 1.334 . S
C1191 C1189 1.394 . S
C1191 C1192 1.359 . S
C1191 H1203 0.930 . S
C1192 C1182 1.391 . S
C1192 C1191 1.359 . S
C1192 H1204 0.929 . S
H1193 C1189 0.930 . S
H1194 C1183 0.930 . S
H1195 C1212 0.930 . S
H1196 C1184 0.930 . S
H1197 C1185 0.930 . S
H1198 C1179 0.929 . S
H1199 C1217 0.930 . S
H1200 C1208 0.930 . S
H1201 C1209 0.930 . S
H1202 C1233 0.929 . S
H1203 C1191 0.930 . S
H1204 C1192 0.929 . S
H1205 C1234 0.930 . S
H1206 C1215 0.930 . S
N1207 Gd1176 2.661 . S
N1207 C1211 1.350 . S
N1207 C1212 1.307 . S
C1208 H1200 0.930 . S
C1208 C1209 1.355 . S
C1208 C1210 1.412 . S
C1209 H1201 0.930 . S
C1209 C1208 1.355 . S
C1209 C1212 1.402 . S
C1210 C1208 1.412 . S
C1210 C1211 1.417 . S
C1210 C1234 1.431 . S
C1211 N1207 1.350 . S
C1211 C1210 1.417 . S
C1211 C1214 1.426 . S
C1212 H1195 0.930 . S
C1212 N1207 1.307 . S
C1212 C1209 1.402 . S
N1213 Gd1176 2.601 . S
N1213 C1214 1.359 . S
N1213 C1217 1.334 . S
C1214 C1211 1.426 . S
C1214 N1213 1.359 . S
C1214 C1218 1.413 . S
C1215 H1206 0.930 . S
C1215 C1216 1.359 . S
C1215 C1217 1.394 . S
C1216 C1215 1.359 . S
C1216 C1218 1.391 . S
C1216 H1219 0.929 . S
C1217 H1199 0.930 . S
C1217 N1213 1.334 . S
C1217 C1215 1.394 . S
C1218 C1214 1.413 . S
C1218 C1216 1.391 . S
C1218 C1233 1.437 . S
H1219 C1216 0.929 . S
O1220 Gd1176 2.545 . S
O1220 C1235 1.258 . S
O1221 Gd1176 2.606 . S
O1221 Gd1177 2.362 . S
O1221 C1232 1.284 . S
O1222 Gd1177 2.324 . S
O1222 C1242 1.254 . S
O1223 Gd1176 2.429 . S
O1223 C1242 1.268 . S
O1224 Gd1176 2.545 . S
O1224 C1232 1.250 . S
O1225 Gd1176 2.412 . S
O1225 C1235 1.252 . S
O1226 Gd1177 2.545 . S
O1226 C1244 1.258 . S
O1227 Gd1176 2.362 . S
O1227 Gd1177 2.606 . S
O1227 C1243 1.284 . S
O1228 Gd1176 2.324 . S
O1228 C1251 1.254 . S
O1229 Gd1177 2.429 . S
O1229 C1251 1.268 . S
O1230 Gd1177 2.545 . S
O1230 C1243 1.250 . S
O1231 Gd1177 2.412 . S
O1231 C1244 1.252 . S
C1232 O1221 1.284 . S
C1232 O1224 1.250 . S
C1233 H1202 0.929 . S
C1233 C1218 1.437 . S
C1233 C1234 1.317 . S
C1234 H1205 0.930 . S
C1234 C1210 1.431 . S
C1234 C1233 1.317 . S
C1235 Gd1176 2.828 . S
C1235 O1220 1.258 . S
C1235 O1225 1.252 . S
C1235 C1236 1.497 . S
C1236 C1235 1.497 . S
C1236 C1237 1.395 . S
C1236 C1238 1.380 . S
C1237 C1236 1.395 . S
C1237 C1240 1.398 . S
C1237 H1252 0.930 . S
C1238 C1236 1.380 . S
C1238 C1239 1.391 . S
C1238 H1253 0.930 . S
C1239 C1238 1.391 . S
C1239 C1241 1.387 . S
C1240 C1237 1.398 . S
C1240 C1241 1.380 . S
C1240 H1254 0.930 . S
C1241 C1239 1.387 . S
C1241 C1240 1.380 . S
C1241 H1255 0.930 . S
C1242 O1222 1.254 . S
C1242 O1223 1.268 . S
C1243 O1227 1.284 . S
C1243 O1230 1.250 . S
C1244 Gd1177 2.828 . S
C1244 O1226 1.258 . S
C1244 O1231 1.252 . S
C1244 C1245 1.497 . S
C1245 C1244 1.497 . S
C1245 C1246 1.395 . S
C1245 C1247 1.380 . S
C1246 C1245 1.395 . S
C1246 C1249 1.398 . S
C1246 H1256 0.930 . S
C1247 C1245 1.380 . S
C1247 C1248 1.391 . S
C1247 H1257 0.930 . S
C1248 C1247 1.391 . S
C1248 C1250 1.387 . S
C1249 C1246 1.398 . S
C1249 C1250 1.380 . S
C1249 H1258 0.930 . S
C1250 C1248 1.387 . S
C1250 C1249 1.380 . S
C1250 H1259 0.930 . S
C1251 O1228 1.254 . S
C1251 O1229 1.268 . S
H1252 C1237 0.930 . S
H1253 C1238 0.930 . S
H1254 C1240 0.930 . S
H1255 C1241 0.930 . S
H1256 C1246 0.930 . S
H1257 C1247 0.930 . S
H1258 C1249 0.930 . S
H1259 C1250 0.930 . S
Gd1260 N1291 2.661 1_655 S
Gd1260 N1297 2.601 1_655 S
Gd1260 O1304 2.544 . S
Gd1260 O1305 2.606 . S
Gd1260 O1307 2.429 . S
Gd1260 O1308 2.545 . S
Gd1260 O1309 2.412 1_655 S
Gd1260 O1311 2.362 . S
Gd1260 O1312 2.328 . S
Gd1260 C1319 2.828 1_655 S
Gd1261 N1270 2.661 . S
Gd1261 N1274 2.601 . S
Gd1261 O1305 2.362 . S
Gd1261 O1306 2.324 . S
Gd1261 O1310 2.545 . S
Gd1261 O1311 2.606 . S
Gd1261 O1313 2.429 . S
Gd1261 O1314 2.545 . S
Gd1261 O1315 2.412 . S
Gd1261 C1328 2.828 . S
C1262 C1265 1.417 . S
C1262 C1267 1.431 . S
C1262 C1268 1.412 . S
C1263 C1266 1.437 . S
C1263 C1267 1.317 . S
C1263 H1282 0.929 . S
C1264 C1265 1.426 . S
C1264 C1266 1.413 . S
C1264 N1274 1.359 . S
C1265 C1262 1.417 . S
C1265 C1264 1.426 . S
C1265 N1270 1.350 . S
C1266 C1263 1.437 . S
C1266 C1264 1.413 . S
C1266 C1276 1.391 . S
C1267 C1262 1.431 . S
C1267 C1263 1.317 . S
C1267 H1278 0.930 . S
C1268 C1262 1.412 . S
C1268 C1269 1.355 . S
C1268 H1280 0.930 . S
C1269 C1268 1.355 . S
C1269 C1271 1.402 . S
C1269 H1281 0.930 . S
N1270 Gd1261 2.661 . S
N1270 C1265 1.350 . S
N1270 C1271 1.307 . S
C1271 C1269 1.402 . S
C1271 N1270 1.307 . S
C1271 H1272 0.930 . S
H1272 C1271 0.930 . S
C1273 N1274 1.334 . S
C1273 C1275 1.394 . S
C1273 H1277 0.930 . S
N1274 Gd1261 2.601 . S
N1274 C1264 1.359 . S
N1274 C1273 1.334 . S
C1275 C1273 1.394 . S
C1275 C1276 1.359 . S
C1275 H1287 0.930 . S
C1276 C1266 1.391 . S
C1276 C1275 1.359 . S
C1276 H1288 0.929 . S
H1277 C1273 0.930 . S
H1278 C1267 0.930 . S
H1279 C1296 0.930 . S
H1280 C1268 0.930 . S
H1281 C1269 0.930 . S
H1282 C1263 0.929 . S
H1283 C1301 0.930 . S
H1284 C1292 0.930 . S
H1285 C1293 0.930 . S
H1286 C1317 0.929 . S
H1287 C1275 0.930 . S
H1288 C1276 0.929 . S
H1289 C1318 0.930 . S
H1290 C1299 0.940 . S
N1291 Gd1260 2.661 1_455 S
N1291 C1295 1.350 . S
N1291 C1296 1.307 . S
C1292 H1284 0.930 . S
C1292 C1293 1.355 . S
C1292 C1294 1.412 . S
C1293 H1285 0.930 . S
C1293 C1292 1.355 . S
C1293 C1296 1.402 . S
C1294 C1292 1.412 . S
C1294 C1295 1.417 . S
C1294 C1318 1.431 . S
C1295 N1291 1.350 . S
C1295 C1294 1.417 . S
C1295 C1298 1.426 . S
C1296 H1279 0.930 . S
C1296 N1291 1.307 . S
C1296 C1293 1.402 . S
N1297 Gd1260 2.601 1_455 S
N1297 C1298 1.359 . S
N1297 C1301 1.334 1_455 S
C1298 C1295 1.426 . S
C1298 N1297 1.359 . S
C1298 C1302 1.413 . S
C1299 H1290 0.940 . S
C1299 C1300 1.342 1_655 S
C1299 C1301 1.402 . S
C1300 C1299 1.342 1_455 S
C1300 C1302 1.391 . S
C1300 H1303 0.929 . S
C1301 H1283 0.930 . S
C1301 N1297 1.334 1_655 S
C1301 C1299 1.402 . S
C1302 C1298 1.413 . S
C1302 C1300 1.391 . S
C1302 C1317 1.437 . S
H1303 C1300 0.929 . S
O1304 Gd1260 2.544 . S
O1304 C1319 1.259 1_655 S
O1305 Gd1260 2.606 . S
O1305 Gd1261 2.362 . S
O1305 C1316 1.284 . S
O1306 Gd1261 2.324 . S
O1306 C1326 1.254 . S
O1307 Gd1260 2.429 . S
O1307 C1326 1.268 . S
O1308 Gd1260 2.545 . S
O1308 C1316 1.250 . S
O1309 Gd1260 2.412 1_455 S
O1309 C1319 1.252 . S
O1310 Gd1261 2.545 . S
O1310 C1328 1.258 . S
O1311 Gd1260 2.362 . S
O1311 Gd1261 2.606 . S
O1311 C1327 1.284 . S
O1312 Gd1260 2.328 . S
O1312 C1335 1.259 . S
O1313 Gd1261 2.429 . S
O1313 C1335 1.268 . S
O1314 Gd1261 2.545 . S
O1314 C1327 1.250 . S
O1315 Gd1261 2.412 . S
O1315 C1328 1.252 . S
C1316 O1305 1.284 . S
C1316 O1308 1.250 . S
C1317 H1286 0.929 . S
C1317 C1302 1.437 . S
C1317 C1318 1.317 . S
C1318 H1289 0.930 . S
C1318 C1294 1.431 . S
C1318 C1317 1.317 . S
C1319 Gd1260 2.828 1_455 S
C1319 O1304 1.259 1_455 S
C1319 O1309 1.252 . S
C1319 C1320 1.497 . S
C1320 C1319 1.497 . S
C1320 C1321 1.395 . S
C1320 C1322 1.380 . S
C1321 C1320 1.395 . S
C1321 C1324 1.398 . S
C1321 H1336 0.930 . S
C1322 C1320 1.380 . S
C1322 C1323 1.391 . S
C1322 H1337 0.930 . S
C1323 C1322 1.391 . S
C1323 C1325 1.387 . S
C1324 C1321 1.398 . S
C1324 C1325 1.380 . S
C1324 H1338 0.930 . S
C1325 C1323 1.387 . S
C1325 C1324 1.380 . S
C1325 H1339 0.930 . S
C1326 O1306 1.254 . S
C1326 O1307 1.268 . S
C1327 O1311 1.284 . S
C1327 O1314 1.250 . S
C1328 Gd1261 2.828 . S
C1328 O1310 1.258 . S
C1328 O1315 1.252 . S
C1328 C1329 1.497 . S
C1329 C1328 1.497 . S
C1329 C1330 1.395 . S
C1329 C1331 1.380 . S
C1330 C1329 1.395 . S
C1330 C1333 1.398 . S
C1330 H1340 0.930 . S
C1331 C1329 1.380 . S
C1331 C1332 1.391 . S
C1331 H1341 0.930 . S
C1332 C1331 1.391 . S
C1332 C1334 1.387 . S
C1333 C1330 1.398 . S
C1333 C1334 1.380 . S
C1333 H1342 0.930 . S
C1334 C1332 1.387 . S
C1334 C1333 1.380 . S
C1334 H1343 0.930 . S
C1335 O1312 1.259 . S
C1335 O1313 1.268 . S
H1336 C1321 0.930 . S
H1337 C1322 0.930 . S
H1338 C1324 0.930 . S
H1339 C1325 0.930 . S
H1340 C1330 0.930 . S
H1341 C1331 0.930 . S
H1342 C1333 0.930 . S
H1343 C1334 0.930 . S
Gd1344 N1375 2.661 . S
Gd1344 N1381 2.601 . S
Gd1344 O1388 2.545 . S
Gd1344 O1389 2.606 . S
Gd1344 O1391 2.429 . S
Gd1344 O1392 2.545 . S
Gd1344 O1393 2.412 . S
Gd1344 O1395 2.362 . S
Gd1344 O1396 2.324 . S
Gd1344 C1403 2.828 . S
Gd1345 N1354 2.661 . S
Gd1345 N1358 2.601 . S
Gd1345 O1389 2.362 . S
Gd1345 O1390 2.324 . S
Gd1345 O1394 2.545 . S
Gd1345 O1395 2.606 . S
Gd1345 O1397 2.429 . S
Gd1345 O1398 2.545 . S
Gd1345 O1399 2.412 . S
Gd1345 C1412 2.828 . S
C1346 C1349 1.417 . S
C1346 C1351 1.431 . S
C1346 C1352 1.412 . S
C1347 C1350 1.437 . S
C1347 C1351 1.317 . S
C1347 H1366 0.929 . S
C1348 C1349 1.426 . S
C1348 C1350 1.413 . S
C1348 N1358 1.359 . S
C1349 C1346 1.417 . S
C1349 C1348 1.426 . S
C1349 N1354 1.350 . S
C1350 C1347 1.437 . S
C1350 C1348 1.413 . S
C1350 C1360 1.391 . S
C1351 C1346 1.431 . S
C1351 C1347 1.317 . S
C1351 H1362 0.930 . S
C1352 C1346 1.412 . S
C1352 C1353 1.355 . S
C1352 H1364 0.930 . S
C1353 C1352 1.355 . S
C1353 C1355 1.402 . S
C1353 H1365 0.930 . S
N1354 Gd1345 2.661 . S
N1354 C1349 1.350 . S
N1354 C1355 1.307 . S
C1355 C1353 1.402 . S
C1355 N1354 1.307 . S
C1355 H1356 0.930 . S
H1356 C1355 0.930 . S
C1357 N1358 1.334 . S
C1357 C1359 1.394 . S
C1357 H1361 0.930 . S
N1358 Gd1345 2.601 . S
N1358 C1348 1.359 . S
N1358 C1357 1.334 . S
C1359 C1357 1.394 . S
C1359 C1360 1.359 . S
C1359 H1371 0.930 . S
C1360 C1350 1.391 . S
C1360 C1359 1.359 . S
C1360 H1372 0.929 . S
H1361 C1357 0.930 . S
H1362 C1351 0.930 . S
H1363 C1380 0.930 . S
H1364 C1352 0.930 . S
H1365 C1353 0.930 . S
H1366 C1347 0.929 . S
H1367 C1385 0.930 . S
H1368 C1376 0.930 . S
H1369 C1377 0.930 . S
H1370 C1401 0.929 . S
H1371 C1359 0.930 . S
H1372 C1360 0.929 . S
H1373 C1402 0.930 . S
H1374 C1383 0.930 . S
N1375 Gd1344 2.661 . S
N1375 C1379 1.350 . S
N1375 C1380 1.307 . S
C1376 H1368 0.930 . S
C1376 C1377 1.355 . S
C1376 C1378 1.412 . S
C1377 H1369 0.930 . S
C1377 C1376 1.355 . S
C1377 C1380 1.402 . S
C1378 C1376 1.412 . S
C1378 C1379 1.417 . S
C1378 C1402 1.431 . S
C1379 N1375 1.350 . S
C1379 C1378 1.417 . S
C1379 C1382 1.426 . S
C1380 H1363 0.930 . S
C1380 N1375 1.307 . S
C1380 C1377 1.402 . S
N1381 Gd1344 2.601 . S
N1381 C1382 1.359 . S
N1381 C1385 1.334 . S
C1382 C1379 1.426 . S
C1382 N1381 1.359 . S
C1382 C1386 1.413 . S
C1383 H1374 0.930 . S
C1383 C1384 1.359 . S
C1383 C1385 1.394 . S
C1384 C1383 1.359 . S
C1384 C1386 1.391 . S
C1384 H1387 0.929 . S
C1385 H1367 0.930 . S
C1385 N1381 1.334 . S
C1385 C1383 1.394 . S
C1386 C1382 1.413 . S
C1386 C1384 1.391 . S
C1386 C1401 1.437 . S
H1387 C1384 0.929 . S
O1388 Gd1344 2.545 . S
O1388 C1403 1.258 . S
O1389 Gd1344 2.606 . S
O1389 Gd1345 2.362 . S
O1389 C1400 1.284 . S
O1390 Gd1345 2.324 . S
O1390 C1410 1.254 . S
O1391 Gd1344 2.429 . S
O1391 C1410 1.268 . S
O1392 Gd1344 2.545 . S
O1392 C1400 1.250 . S
O1393 Gd1344 2.412 . S
O1393 C1403 1.252 . S
O1394 Gd1345 2.545 . S
O1394 C1412 1.258 . S
O1395 Gd1344 2.362 . S
O1395 Gd1345 2.606 . S
O1395 C1411 1.284 . S
O1396 Gd1344 2.324 . S
O1396 C1419 1.254 . S
O1397 Gd1345 2.429 . S
O1397 C1419 1.268 . S
O1398 Gd1345 2.545 . S
O1398 C1411 1.250 . S
O1399 Gd1345 2.412 . S
O1399 C1412 1.252 . S
C1400 O1389 1.284 . S
C1400 O1392 1.250 . S
C1401 H1370 0.929 . S
C1401 C1386 1.437 . S
C1401 C1402 1.317 . S
C1402 H1373 0.930 . S
C1402 C1378 1.431 . S
C1402 C1401 1.317 . S
C1403 Gd1344 2.828 . S
C1403 O1388 1.258 . S
C1403 O1393 1.252 . S
C1403 C1404 1.497 . S
C1404 C1403 1.497 . S
C1404 C1405 1.395 . S
C1404 C1406 1.380 . S
C1405 C1404 1.395 . S
C1405 C1408 1.398 . S
C1405 H1420 0.930 . S
C1406 C1404 1.380 . S
C1406 C1407 1.391 . S
C1406 H1421 0.930 . S
C1407 C1406 1.391 . S
C1407 C1409 1.387 . S
C1408 C1405 1.398 . S
C1408 C1409 1.380 . S
C1408 H1422 0.930 . S
C1409 C1407 1.387 . S
C1409 C1408 1.380 . S
C1409 H1423 0.930 . S
C1410 O1390 1.254 . S
C1410 O1391 1.268 . S
C1411 O1395 1.284 . S
C1411 O1398 1.250 . S
C1412 Gd1345 2.828 . S
C1412 O1394 1.258 . S
C1412 O1399 1.252 . S
C1412 C1413 1.497 . S
C1413 C1412 1.497 . S
C1413 C1414 1.395 . S
C1413 C1415 1.380 . S
C1414 C1413 1.395 . S
C1414 C1417 1.398 . S
C1414 H1424 0.930 . S
C1415 C1413 1.380 . S
C1415 C1416 1.391 . S
C1415 H1425 0.930 . S
C1416 C1415 1.391 . S
C1416 C1418 1.387 . S
C1417 C1414 1.398 . S
C1417 C1418 1.380 . S
C1417 H1426 0.930 . S
C1418 C1416 1.387 . S
C1418 C1417 1.380 . S
C1418 H1427 0.930 . S
C1419 O1396 1.254 . S
C1419 O1397 1.268 . S
H1420 C1405 0.930 . S
H1421 C1406 0.930 . S
H1422 C1408 0.930 . S
H1423 C1409 0.930 . S
H1424 C1414 0.930 . S
H1425 C1415 0.930 . S
H1426 C1417 0.930 . S
H1427 C1418 0.930 . S
Gd1428 N1459 2.661 . S
Gd1428 N1465 2.601 . S
Gd1428 O1472 2.545 . S
Gd1428 O1473 2.606 . S
Gd1428 O1475 2.429 . S
Gd1428 O1476 2.545 . S
Gd1428 O1477 2.412 . S
Gd1428 O1479 2.362 . S
Gd1428 O1480 2.324 . S
Gd1428 C1487 2.828 . S
Gd1429 N1438 2.661 . S
Gd1429 N1442 2.601 . S
Gd1429 O1473 2.362 . S
Gd1429 O1474 2.324 . S
Gd1429 O1478 2.545 . S
Gd1429 O1479 2.606 . S
Gd1429 O1481 2.429 . S
Gd1429 O1482 2.545 . S
Gd1429 O1483 2.412 . S
Gd1429 C1496 2.828 . S
C1430 C1433 1.417 . S
C1430 C1435 1.431 . S
C1430 C1436 1.412 . S
C1431 C1434 1.437 . S
C1431 C1435 1.317 . S
C1431 H1450 0.929 . S
C1432 C1433 1.426 . S
C1432 C1434 1.413 . S
C1432 N1442 1.359 . S
C1433 C1430 1.417 . S
C1433 C1432 1.426 . S
C1433 N1438 1.350 . S
C1434 C1431 1.437 . S
C1434 C1432 1.413 . S
C1434 C1444 1.391 . S
C1435 C1430 1.431 . S
C1435 C1431 1.317 . S
C1435 H1446 0.930 . S
C1436 C1430 1.412 . S
C1436 C1437 1.355 . S
C1436 H1448 0.930 . S
C1437 C1436 1.355 . S
C1437 C1439 1.402 . S
C1437 H1449 0.930 . S
N1438 Gd1429 2.661 . S
N1438 C1433 1.350 . S
N1438 C1439 1.307 . S
C1439 C1437 1.402 . S
C1439 N1438 1.307 . S
C1439 H1440 0.930 . S
H1440 C1439 0.930 . S
C1441 N1442 1.334 . S
C1441 C1443 1.394 . S
C1441 H1445 0.930 . S
N1442 Gd1429 2.601 . S
N1442 C1432 1.359 . S
N1442 C1441 1.334 . S
C1443 C1441 1.394 . S
C1443 C1444 1.359 . S
C1443 H1455 0.930 . S
C1444 C1434 1.391 . S
C1444 C1443 1.359 . S
C1444 H1456 0.929 . S
H1445 C1441 0.930 . S
H1446 C1435 0.930 . S
H1447 C1464 0.930 . S
H1448 C1436 0.930 . S
H1449 C1437 0.930 . S
H1450 C1431 0.929 . S
H1451 C1469 0.930 . S
H1452 C1460 0.930 . S
H1453 C1461 0.930 . S
H1454 C1485 0.929 . S
H1455 C1443 0.930 . S
H1456 C1444 0.929 . S
H1457 C1486 0.930 . S
H1458 C1467 0.930 . S
N1459 Gd1428 2.661 . S
N1459 C1463 1.350 . S
N1459 C1464 1.307 . S
C1460 H1452 0.930 . S
C1460 C1461 1.355 . S
C1460 C1462 1.412 . S
C1461 H1453 0.930 . S
C1461 C1460 1.355 . S
C1461 C1464 1.402 . S
C1462 C1460 1.412 . S
C1462 C1463 1.417 . S
C1462 C1486 1.431 . S
C1463 N1459 1.350 . S
C1463 C1462 1.417 . S
C1463 C1466 1.426 . S
C1464 H1447 0.930 . S
C1464 N1459 1.307 . S
C1464 C1461 1.402 . S
N1465 Gd1428 2.601 . S
N1465 C1466 1.359 . S
N1465 C1469 1.334 . S
C1466 C1463 1.426 . S
C1466 N1465 1.359 . S
C1466 C1470 1.413 . S
C1467 H1458 0.930 . S
C1467 C1468 1.359 . S
C1467 C1469 1.394 . S
C1468 C1467 1.359 . S
C1468 C1470 1.391 . S
C1468 H1471 0.929 . S
C1469 H1451 0.930 . S
C1469 N1465 1.334 . S
C1469 C1467 1.394 . S
C1470 C1466 1.413 . S
C1470 C1468 1.391 . S
C1470 C1485 1.437 . S
H1471 C1468 0.929 . S
O1472 Gd1428 2.545 . S
O1472 C1487 1.258 . S
O1473 Gd1428 2.606 . S
O1473 Gd1429 2.362 . S
O1473 C1484 1.284 . S
O1474 Gd1429 2.324 . S
O1474 C1494 1.254 . S
O1475 Gd1428 2.429 . S
O1475 C1494 1.268 . S
O1476 Gd1428 2.545 . S
O1476 C1484 1.250 . S
O1477 Gd1428 2.412 . S
O1477 C1487 1.252 . S
O1478 Gd1429 2.545 . S
O1478 C1496 1.258 . S
O1479 Gd1428 2.362 . S
O1479 Gd1429 2.606 . S
O1479 C1495 1.284 . S
O1480 Gd1428 2.324 . S
O1480 C1503 1.254 . S
O1481 Gd1429 2.429 . S
O1481 C1503 1.268 . S
O1482 Gd1429 2.545 . S
O1482 C1495 1.250 . S
O1483 Gd1429 2.412 . S
O1483 C1496 1.252 . S
C1484 O1473 1.284 . S
C1484 O1476 1.250 . S
C1485 H1454 0.929 . S
C1485 C1470 1.437 . S
C1485 C1486 1.317 . S
C1486 H1457 0.930 . S
C1486 C1462 1.431 . S
C1486 C1485 1.317 . S
C1487 Gd1428 2.828 . S
C1487 O1472 1.258 . S
C1487 O1477 1.252 . S
C1487 C1488 1.497 . S
C1488 C1487 1.497 . S
C1488 C1489 1.395 . S
C1488 C1490 1.380 . S
C1489 C1488 1.395 . S
C1489 C1492 1.398 . S
C1489 H1504 0.930 . S
C1490 C1488 1.380 . S
C1490 C1491 1.391 . S
C1490 H1505 0.930 . S
C1491 C1490 1.391 . S
C1491 C1493 1.387 . S
C1492 C1489 1.398 . S
C1492 C1493 1.380 . S
C1492 H1506 0.930 . S
C1493 C1491 1.387 . S
C1493 C1492 1.380 . S
C1493 H1507 0.930 . S
C1494 O1474 1.254 . S
C1494 O1475 1.268 . S
C1495 O1479 1.284 . S
C1495 O1482 1.250 . S
C1496 Gd1429 2.828 . S
C1496 O1478 1.258 . S
C1496 O1483 1.252 . S
C1496 C1497 1.497 . S
C1497 C1496 1.497 . S
C1497 C1498 1.395 . S
C1497 C1499 1.380 . S
C1498 C1497 1.395 . S
C1498 C1501 1.398 . S
C1498 H1508 0.930 . S
C1499 C1497 1.380 . S
C1499 C1500 1.391 . S
C1499 H1509 0.930 . S
C1500 C1499 1.391 . S
C1500 C1502 1.387 . S
C1501 C1498 1.398 . S
C1501 C1502 1.380 . S
C1501 H1510 0.930 . S
C1502 C1500 1.387 . S
C1502 C1501 1.380 . S
C1502 H1511 0.930 . S
C1503 O1480 1.254 . S
C1503 O1481 1.268 . S
H1504 C1489 0.930 . S
H1505 C1490 0.930 . S
H1506 C1492 0.930 . S
H1507 C1493 0.930 . S
H1508 C1498 0.930 . S
H1509 C1499 0.930 . S
H1510 C1501 0.930 . S
H1511 C1502 0.930 . S
Gd1512 N1543 2.661 . S
Gd1512 N1549 2.601 . S
Gd1512 O1556 2.545 . S
Gd1512 O1557 2.606 . S
Gd1512 O1559 2.429 . S
Gd1512 O1560 2.545 . S
Gd1512 O1561 2.412 . S
Gd1512 O1563 2.362 . S
Gd1512 O1564 2.324 . S
Gd1512 C1571 2.828 . S
Gd1513 N1522 2.661 . S
Gd1513 N1526 2.601 1_556 S
Gd1513 O1557 2.362 . S
Gd1513 O1558 2.324 . S
Gd1513 O1562 2.545 1_556 S
Gd1513 O1563 2.606 . S
Gd1513 O1565 2.429 . S
Gd1513 O1566 2.545 1_556 S
Gd1513 O1567 2.412 1_556 S
Gd1513 C1580 2.828 1_556 S
C1514 C1517 1.417 . S
C1514 C1519 1.431 . S
C1514 C1520 1.412 . S
C1515 C1518 1.411 1_556 S
C1515 C1519 1.317 . S
C1515 H1534 0.929 . S
C1516 C1517 1.426 . S
C1516 C1518 1.396 1_556 S
C1516 N1526 1.359 1_556 S
C1517 C1514 1.417 . S
C1517 C1516 1.426 . S
C1517 N1522 1.350 . S
C1518 C1515 1.411 1_554 S
C1518 C1516 1.396 1_554 S
C1518 C1528 1.436 . S
C1519 C1514 1.431 . S
C1519 C1515 1.317 . S
C1519 H1530 0.930 . S
C1520 C1514 1.412 . S
C1520 C1521 1.355 . S
C1520 H1532 0.930 . S
C1521 C1520 1.355 . S
C1521 C1523 1.402 . S
C1521 H1533 0.930 . S
N1522 Gd1513 2.661 . S
N1522 C1517 1.350 . S
N1522 C1523 1.307 . S
C1523 C1521 1.402 . S
C1523 N1522 1.307 . S
C1523 H1524 0.930 . S
H1524 C1523 0.930 . S
C1525 N1526 1.334 . S
C1525 C1527 1.394 . S
C1525 H1529 0.930 . S
N1526 Gd1513 2.601 1_554 S
N1526 C1516 1.359 1_554 S
N1526 C1525 1.334 . S
C1527 C1525 1.394 . S
C1527 C1528 1.359 . S
C1527 H1539 0.930 . S
C1528 C1518 1.436 . S
C1528 C1527 1.359 . S
C1528 H1540 0.929 . S
H1529 C1525 0.930 . S
H1530 C1519 0.930 . S
H1531 C1548 0.930 . S
H1532 C1520 0.930 . S
H1533 C1521 0.930 . S
H1534 C1515 0.929 . S
H1535 C1553 0.930 . S
H1536 C1544 0.930 . S
H1537 C1545 0.930 1_554 S
H1538 C1569 0.929 . S
H1539 C1527 0.930 . S
H1540 C1528 0.929 . S
H1541 C1570 0.930 . S
H1542 C1551 0.930 . S
N1543 Gd1512 2.661 . S
N1543 C1547 1.350 . S
N1543 C1548 1.307 . S
C1544 H1536 0.930 . S
C1544 C1545 1.355 . S
C1544 C1546 1.412 . S
C1545 H1537 0.930 1_556 S
C1545 C1544 1.355 . S
C1545 C1548 1.402 . S
C1546 C1544 1.412 . S
C1546 C1547 1.417 . S
C1546 C1570 1.431 . S
C1547 N1543 1.350 . S
C1547 C1546 1.417 . S
C1547 C1550 1.426 . S
C1548 H1531 0.930 . S
C1548 N1543 1.307 . S
C1548 C1545 1.402 . S
N1549 Gd1512 2.601 . S
N1549 C1550 1.359 . S
N1549 C1553 1.334 . S
C1550 C1547 1.426 . S
C1550 N1549 1.359 . S
C1550 C1554 1.413 . S
C1551 H1542 0.930 . S
C1551 C1552 1.359 . S
C1551 C1553 1.394 . S
C1552 C1551 1.359 . S
C1552 C1554 1.391 . S
C1552 H1555 0.929 . S
C1553 H1535 0.930 . S
C1553 N1549 1.334 . S
C1553 C1551 1.394 . S
C1554 C1550 1.413 . S
C1554 C1552 1.391 . S
C1554 C1569 1.437 . S
H1555 C1552 0.929 . S
O1556 Gd1512 2.545 . S
O1556 C1571 1.258 . S
O1557 Gd1512 2.606 . S
O1557 Gd1513 2.362 . S
O1557 C1568 1.284 . S
O1558 Gd1513 2.324 . S
O1558 C1578 1.254 . S
O1559 Gd1512 2.429 . S
O1559 C1578 1.268 . S
O1560 Gd1512 2.545 . S
O1560 C1568 1.250 . S
O1561 Gd1512 2.412 . S
O1561 C1571 1.252 . S
O1562 Gd1513 2.545 1_554 S
O1562 C1580 1.258 . S
O1563 Gd1512 2.362 . S
O1563 Gd1513 2.606 . S
O1563 C1579 1.284 . S
O1564 Gd1512 2.324 . S
O1564 C1587 1.254 . S
O1565 Gd1513 2.429 . S
O1565 C1587 1.268 . S
O1566 Gd1513 2.545 1_554 S
O1566 C1579 1.250 1_554 S
O1567 Gd1513 2.412 1_554 S
O1567 C1580 1.252 . S
C1568 O1557 1.284 . S
C1568 O1560 1.250 . S
C1569 H1538 0.929 . S
C1569 C1554 1.437 . S
C1569 C1570 1.317 . S
C1570 H1541 0.930 . S
C1570 C1546 1.431 . S
C1570 C1569 1.317 . S
C1571 Gd1512 2.828 . S
C1571 O1556 1.258 . S
C1571 O1561 1.252 . S
C1571 C1572 1.497 . S
C1572 C1571 1.497 . S
C1572 C1573 1.395 . S
C1572 C1574 1.380 . S
C1573 C1572 1.395 . S
C1573 C1576 1.398 . S
C1573 H1588 0.930 . S
C1574 C1572 1.380 . S
C1574 C1575 1.391 . S
C1574 H1589 0.930 . S
C1575 C1574 1.391 . S
C1575 C1577 1.387 . S
C1576 C1573 1.398 . S
C1576 C1577 1.380 . S
C1576 H1590 0.930 . S
C1577 C1575 1.387 . S
C1577 C1576 1.380 . S
C1577 H1591 0.930 . S
C1578 O1558 1.254 . S
C1578 O1559 1.268 . S
C1579 O1563 1.284 . S
C1579 O1566 1.250 1_556 S
C1580 Gd1513 2.828 1_554 S
C1580 O1562 1.258 . S
C1580 O1567 1.252 . S
C1580 C1581 1.497 . S
C1581 C1580 1.497 . S
C1581 C1582 1.395 . S
C1581 C1583 1.380 . S
C1582 C1581 1.395 . S
C1582 C1585 1.398 . S
C1582 H1592 0.930 . S
C1583 C1581 1.380 . S
C1583 C1584 1.391 . S
C1583 H1593 0.930 . S
C1584 C1583 1.391 . S
C1584 C1586 1.387 . S
C1585 C1582 1.398 . S
C1585 C1586 1.380 . S
C1585 H1594 0.930 . S
C1586 C1584 1.387 . S
C1586 C1585 1.380 . S
C1586 H1595 0.930 . S
C1587 O1564 1.254 . S
C1587 O1565 1.268 . S
H1588 C1573 0.930 . S
H1589 C1574 0.930 . S
H1590 C1576 0.930 . S
H1591 C1577 0.930 . S
H1592 C1582 0.930 . S
H1593 C1583 0.930 . S
H1594 C1585 0.930 . S
H1595 C1586 0.930 . S
Gd1596 N1627 2.661 1_655 S
Gd1596 N1633 2.601 1_655 S
Gd1596 O1640 2.545 1_655 S
Gd1596 O1641 2.606 . S
Gd1596 O1643 2.429 . S
Gd1596 O1644 2.545 . S
Gd1596 O1645 2.412 1_655 S
Gd1596 O1647 2.362 . S
Gd1596 O1648 2.312 1_655 S
Gd1596 C1655 2.828 1_655 S
Gd1597 N1606 2.661 . S
Gd1597 N1610 2.601 . S
Gd1597 O1641 2.362 . S
Gd1597 O1642 2.324 . S
Gd1597 O1646 2.545 . S
Gd1597 O1647 2.606 . S
Gd1597 O1649 2.429 . S
Gd1597 O1650 2.545 . S
Gd1597 O1651 2.412 . S
Gd1597 C1664 2.828 . S
C1598 C1601 1.417 . S
C1598 C1603 1.431 . S
C1598 C1604 1.412 . S
C1599 C1602 1.437 . S
C1599 C1603 1.317 . S
C1599 H1618 0.929 . S
C1600 C1601 1.426 . S
C1600 C1602 1.413 . S
C1600 N1610 1.359 . S
C1601 C1598 1.417 . S
C1601 C1600 1.426 . S
C1601 N1606 1.350 . S
C1602 C1599 1.437 . S
C1602 C1600 1.413 . S
C1602 C1612 1.391 . S
C1603 C1598 1.431 . S
C1603 C1599 1.317 . S
C1603 H1614 0.930 . S
C1604 C1598 1.412 . S
C1604 C1605 1.355 . S
C1604 H1616 0.930 . S
C1605 C1604 1.355 . S
C1605 C1607 1.402 . S
C1605 H1617 0.930 . S
N1606 Gd1597 2.661 . S
N1606 C1601 1.350 . S
N1606 C1607 1.307 . S
C1607 C1605 1.402 . S
C1607 N1606 1.307 . S
C1607 H1608 0.930 . S
H1608 C1607 0.930 . S
C1609 N1610 1.334 . S
C1609 C1611 1.394 . S
C1609 H1613 0.930 . S
N1610 Gd1597 2.601 . S
N1610 C1600 1.359 . S
N1610 C1609 1.334 . S
C1611 C1609 1.394 . S
C1611 C1612 1.359 . S
C1611 H1623 0.930 . S
C1612 C1602 1.391 . S
C1612 C1611 1.359 . S
C1612 H1624 0.929 . S
H1613 C1609 0.930 . S
H1614 C1603 0.930 . S
H1615 C1632 0.930 . S
H1616 C1604 0.930 . S
H1617 C1605 0.930 . S
H1618 C1599 0.929 . S
H1619 C1637 0.930 . S
H1620 C1628 0.930 . S
H1621 C1629 0.930 . S
H1622 C1653 0.929 . S
H1623 C1611 0.930 . S
H1624 C1612 0.929 . S
H1625 C1654 0.930 . S
H1626 C1635 0.930 1_655 S
N1627 Gd1596 2.661 1_455 S
N1627 C1631 1.350 . S
N1627 C1632 1.307 . S
C1628 H1620 0.930 . S
C1628 C1629 1.355 . S
C1628 C1630 1.412 . S
C1629 H1621 0.930 . S
C1629 C1628 1.355 . S
C1629 C1632 1.402 . S
C1630 C1628 1.412 . S
C1630 C1631 1.417 . S
C1630 C1654 1.431 . S
C1631 N1627 1.350 . S
C1631 C1630 1.417 . S
C1631 C1634 1.426 . S
C1632 H1615 0.930 . S
C1632 N1627 1.307 . S
C1632 C1629 1.402 . S
N1633 Gd1596 2.601 1_455 S
N1633 C1634 1.359 . S
N1633 C1637 1.334 1_455 S
C1634 C1631 1.426 . S
C1634 N1633 1.359 . S
C1634 C1638 1.413 . S
C1635 H1626 0.930 1_455 S
C1635 C1636 1.359 . S
C1635 C1637 1.394 1_455 S
C1636 C1635 1.359 . S
C1636 C1638 1.391 . S
C1636 H1639 0.929 . S
C1637 H1619 0.930 . S
C1637 N1633 1.334 1_655 S
C1637 C1635 1.394 1_655 S
C1638 C1634 1.413 . S
C1638 C1636 1.391 . S
C1638 C1653 1.437 . S
H1639 C1636 0.929 . S
O1640 Gd1596 2.545 1_455 S
O1640 C1655 1.258 . S
O1641 Gd1596 2.606 . S
O1641 Gd1597 2.362 . S
O1641 C1652 1.284 . S
O1642 Gd1597 2.324 . S
O1642 C1662 1.254 . S
O1643 Gd1596 2.429 . S
O1643 C1662 1.268 . S
O1644 Gd1596 2.545 . S
O1644 C1652 1.250 . S
O1645 Gd1596 2.412 1_455 S
O1645 C1655 1.252 . S
O1646 Gd1597 2.545 . S
O1646 C1664 1.258 . S
O1647 Gd1596 2.362 . S
O1647 Gd1597 2.606 . S
O1647 C1663 1.284 . S
O1648 Gd1596 2.312 1_455 S
O1648 C1671 1.240 1_455 S
O1649 Gd1597 2.429 . S
O1649 C1671 1.268 . S
O1650 Gd1597 2.545 . S
O1650 C1663 1.250 . S
O1651 Gd1597 2.412 . S
O1651 C1664 1.252 . S
C1652 O1641 1.284 . S
C1652 O1644 1.250 . S
C1653 H1622 0.929 . S
C1653 C1638 1.437 . S
C1653 C1654 1.317 . S
C1654 H1625 0.930 . S
C1654 C1630 1.431 . S
C1654 C1653 1.317 . S
C1655 Gd1596 2.828 1_455 S
C1655 O1640 1.258 . S
C1655 O1645 1.252 . S
C1655 C1656 1.497 . S
C1656 C1655 1.497 . S
C1656 C1657 1.395 . S
C1656 C1658 1.380 . S
C1657 C1656 1.395 . S
C1657 C1660 1.398 . S
C1657 H1672 0.930 . S
C1658 C1656 1.380 . S
C1658 C1659 1.391 . S
C1658 H1673 0.930 . S
C1659 C1658 1.391 . S
C1659 C1661 1.387 . S
C1660 C1657 1.398 . S
C1660 C1661 1.380 . S
C1660 H1674 0.930 . S
C1661 C1659 1.387 . S
C1661 C1660 1.380 . S
C1661 H1675 0.930 . S
C1662 O1642 1.254 . S
C1662 O1643 1.268 . S
C1663 O1647 1.284 . S
C1663 O1650 1.250 . S
C1664 Gd1597 2.828 . S
C1664 O1646 1.258 . S
C1664 O1651 1.252 . S
C1664 C1665 1.497 . S
C1665 C1664 1.497 . S
C1665 C1666 1.395 . S
C1665 C1667 1.380 . S
C1666 C1665 1.395 . S
C1666 C1669 1.398 . S
C1666 H1676 0.930 . S
C1667 C1665 1.380 . S
C1667 C1668 1.391 . S
C1667 H1677 0.930 . S
C1668 C1667 1.391 . S
C1668 C1670 1.387 . S
C1669 C1666 1.398 . S
C1669 C1670 1.380 . S
C1669 H1678 0.930 . S
C1670 C1668 1.387 . S
C1670 C1669 1.380 . S
C1670 H1679 0.930 . S
C1671 O1648 1.240 1_655 S
C1671 O1649 1.268 . S
H1672 C1657 0.930 . S
H1673 C1658 0.930 . S
H1674 C1660 0.930 . S
H1675 C1661 0.930 . S
H1676 C1666 0.930 . S
H1677 C1667 0.930 . S
H1678 C1669 0.930 . S
H1679 C1670 0.930 . S
Gd1680 N1711 2.661 . S
Gd1680 N1717 2.601 . S
Gd1680 O1724 2.545 . S
Gd1680 O1725 2.606 . S
Gd1680 O1727 2.429 . S
Gd1680 O1728 2.545 . S
Gd1680 O1729 2.412 . S
Gd1680 O1731 2.362 . S
Gd1680 O1732 2.324 . S
Gd1680 C1739 2.828 . S
Gd1681 N1690 2.661 . S
Gd1681 N1694 2.601 . S
Gd1681 O1725 2.362 . S
Gd1681 O1726 2.324 . S
Gd1681 O1730 2.545 . S
Gd1681 O1731 2.606 . S
Gd1681 O1733 2.429 . S
Gd1681 O1734 2.545 . S
Gd1681 O1735 2.412 . S
Gd1681 C1748 2.828 . S
C1682 C1685 1.417 . S
C1682 C1687 1.431 . S
C1682 C1688 1.412 . S
C1683 C1686 1.437 . S
C1683 C1687 1.317 . S
C1683 H1702 0.929 . S
C1684 C1685 1.426 . S
C1684 C1686 1.413 . S
C1684 N1694 1.359 . S
C1685 C1682 1.417 . S
C1685 C1684 1.426 . S
C1685 N1690 1.350 . S
C1686 C1683 1.437 . S
C1686 C1684 1.413 . S
C1686 C1696 1.391 . S
C1687 C1682 1.431 . S
C1687 C1683 1.317 . S
C1687 H1698 0.930 . S
C1688 C1682 1.412 . S
C1688 C1689 1.355 . S
C1688 H1700 0.930 . S
C1689 C1688 1.355 . S
C1689 C1691 1.402 . S
C1689 H1701 0.930 . S
N1690 Gd1681 2.661 . S
N1690 C1685 1.350 . S
N1690 C1691 1.307 . S
C1691 C1689 1.402 . S
C1691 N1690 1.307 . S
C1691 H1692 0.930 . S
H1692 C1691 0.930 . S
C1693 N1694 1.334 . S
C1693 C1695 1.394 . S
C1693 H1697 0.930 . S
N1694 Gd1681 2.601 . S
N1694 C1684 1.359 . S
N1694 C1693 1.334 . S
C1695 C1693 1.394 . S
C1695 C1696 1.359 . S
C1695 H1707 0.930 . S
C1696 C1686 1.391 . S
C1696 C1695 1.359 . S
C1696 H1708 0.929 . S
H1697 C1693 0.930 . S
H1698 C1687 0.930 . S
H1699 C1716 0.930 . S
H1700 C1688 0.930 . S
H1701 C1689 0.930 . S
H1702 C1683 0.929 . S
H1703 C1721 0.930 . S
H1704 C1712 0.930 . S
H1705 C1713 0.930 . S
H1706 C1737 0.929 . S
H1707 C1695 0.930 . S
H1708 C1696 0.929 . S
H1709 C1738 0.930 . S
H1710 C1719 0.930 . S
N1711 Gd1680 2.661 . S
N1711 C1715 1.350 . S
N1711 C1716 1.307 . S
C1712 H1704 0.930 . S
C1712 C1713 1.355 . S
C1712 C1714 1.412 . S
C1713 H1705 0.930 . S
C1713 C1712 1.355 . S
C1713 C1716 1.402 . S
C1714 C1712 1.412 . S
C1714 C1715 1.417 . S
C1714 C1738 1.431 . S
C1715 N1711 1.350 . S
C1715 C1714 1.417 . S
C1715 C1718 1.426 . S
C1716 H1699 0.930 . S
C1716 N1711 1.307 . S
C1716 C1713 1.402 . S
N1717 Gd1680 2.601 . S
N1717 C1718 1.359 . S
N1717 C1721 1.334 . S
C1718 C1715 1.426 . S
C1718 N1717 1.359 . S
C1718 C1722 1.413 . S
C1719 H1710 0.930 . S
C1719 C1720 1.359 . S
C1719 C1721 1.394 . S
C1720 C1719 1.359 . S
C1720 C1722 1.391 . S
C1720 H1723 0.929 . S
C1721 H1703 0.930 . S
C1721 N1717 1.334 . S
C1721 C1719 1.394 . S
C1722 C1718 1.413 . S
C1722 C1720 1.391 . S
C1722 C1737 1.437 . S
H1723 C1720 0.929 . S
O1724 Gd1680 2.545 . S
O1724 C1739 1.258 . S
O1725 Gd1680 2.606 . S
O1725 Gd1681 2.362 . S
O1725 C1736 1.284 . S
O1726 Gd1681 2.324 . S
O1726 C1746 1.254 . S
O1727 Gd1680 2.429 . S
O1727 C1746 1.268 . S
O1728 Gd1680 2.545 . S
O1728 C1736 1.250 . S
O1729 Gd1680 2.412 . S
O1729 C1739 1.252 . S
O1730 Gd1681 2.545 . S
O1730 C1748 1.258 . S
O1731 Gd1680 2.362 . S
O1731 Gd1681 2.606 . S
O1731 C1747 1.284 . S
O1732 Gd1680 2.324 . S
O1732 C1755 1.254 . S
O1733 Gd1681 2.429 . S
O1733 C1755 1.268 . S
O1734 Gd1681 2.545 . S
O1734 C1747 1.250 . S
O1735 Gd1681 2.412 . S
O1735 C1748 1.252 . S
C1736 O1725 1.284 . S
C1736 O1728 1.250 . S
C1737 H1706 0.929 . S
C1737 C1722 1.437 . S
C1737 C1738 1.317 . S
C1738 H1709 0.930 . S
C1738 C1714 1.431 . S
C1738 C1737 1.317 . S
C1739 Gd1680 2.828 . S
C1739 O1724 1.258 . S
C1739 O1729 1.252 . S
C1739 C1740 1.497 . S
C1740 C1739 1.497 . S
C1740 C1741 1.395 . S
C1740 C1742 1.380 . S
C1741 C1740 1.395 . S
C1741 C1744 1.398 . S
C1741 H1756 0.930 . S
C1742 C1740 1.380 . S
C1742 C1743 1.391 . S
C1742 H1757 0.930 . S
C1743 C1742 1.391 . S
C1743 C1745 1.387 . S
C1744 C1741 1.398 . S
C1744 C1745 1.380 . S
C1744 H1758 0.930 . S
C1745 C1743 1.387 . S
C1745 C1744 1.380 . S
C1745 H1759 0.930 . S
C1746 O1726 1.254 . S
C1746 O1727 1.268 . S
C1747 O1731 1.284 . S
C1747 O1734 1.250 . S
C1748 Gd1681 2.828 . S
C1748 O1730 1.258 . S
C1748 O1735 1.252 . S
C1748 C1749 1.497 . S
C1749 C1748 1.497 . S
C1749 C1750 1.395 . S
C1749 C1751 1.380 . S
C1750 C1749 1.395 . S
C1750 C1753 1.398 . S
C1750 H1760 0.930 . S
C1751 C1749 1.380 . S
C1751 C1752 1.391 . S
C1751 H1761 0.930 . S
C1752 C1751 1.391 . S
C1752 C1754 1.387 . S
C1753 C1750 1.398 . S
C1753 C1754 1.380 . S
C1753 H1762 0.930 . S
C1754 C1752 1.387 . S
C1754 C1753 1.380 . S
C1754 H1763 0.930 . S
C1755 O1732 1.254 . S
C1755 O1733 1.268 . S
H1756 C1741 0.930 . S
H1757 C1742 0.930 . S
H1758 C1744 0.930 . S
H1759 C1745 0.930 . S
H1760 C1750 0.930 . S
H1761 C1751 0.930 . S
H1762 C1753 0.930 . S
H1763 C1754 0.930 . S
Gd1764 N1795 2.661 . S
Gd1764 N1801 2.601 . S
Gd1764 O1808 2.545 . S
Gd1764 O1809 2.606 . S
Gd1764 O1811 2.429 . S
Gd1764 O1812 2.545 . S
Gd1764 O1813 2.412 . S
Gd1764 O1815 2.362 . S
Gd1764 O1816 2.324 . S
Gd1764 C1823 2.828 . S
Gd1765 N1774 2.661 . S
Gd1765 N1778 2.601 . S
Gd1765 O1809 2.362 . S
Gd1765 O1810 2.324 . S
Gd1765 O1814 2.545 . S
Gd1765 O1815 2.606 . S
Gd1765 O1817 2.429 . S
Gd1765 O1818 2.545 . S
Gd1765 O1819 2.412 . S
Gd1765 C1832 2.828 . S
C1766 C1769 1.417 . S
C1766 C1771 1.431 . S
C1766 C1772 1.412 . S
C1767 C1770 1.437 . S
C1767 C1771 1.317 . S
C1767 H1786 0.929 . S
C1768 C1769 1.426 . S
C1768 C1770 1.413 . S
C1768 N1778 1.359 . S
C1769 C1766 1.417 . S
C1769 C1768 1.426 . S
C1769 N1774 1.350 . S
C1770 C1767 1.437 . S
C1770 C1768 1.413 . S
C1770 C1780 1.391 . S
C1771 C1766 1.431 . S
C1771 C1767 1.317 . S
C1771 H1782 0.930 . S
C1772 C1766 1.412 . S
C1772 C1773 1.355 . S
C1772 H1784 0.930 . S
C1773 C1772 1.355 . S
C1773 C1775 1.402 . S
C1773 H1785 0.930 . S
N1774 Gd1765 2.661 . S
N1774 C1769 1.350 . S
N1774 C1775 1.307 . S
C1775 C1773 1.402 . S
C1775 N1774 1.307 . S
C1775 H1776 0.930 . S
H1776 C1775 0.930 . S
C1777 N1778 1.334 . S
C1777 C1779 1.394 . S
C1777 H1781 0.930 . S
N1778 Gd1765 2.601 . S
N1778 C1768 1.359 . S
N1778 C1777 1.334 . S
C1779 C1777 1.394 . S
C1779 C1780 1.359 . S
C1779 H1791 0.930 . S
C1780 C1770 1.391 . S
C1780 C1779 1.359 . S
C1780 H1792 0.929 . S
H1781 C1777 0.930 . S
H1782 C1771 0.930 . S
H1783 C1800 0.930 . S
H1784 C1772 0.930 . S
H1785 C1773 0.930 . S
H1786 C1767 0.929 . S
H1787 C1805 0.930 . S
H1788 C1796 0.930 . S
H1789 C1797 0.930 . S
H1790 C1821 0.929 . S
H1791 C1779 0.930 . S
H1792 C1780 0.929 . S
H1793 C1822 0.930 . S
H1794 C1803 0.930 . S
N1795 Gd1764 2.661 . S
N1795 C1799 1.350 . S
N1795 C1800 1.307 . S
C1796 H1788 0.930 . S
C1796 C1797 1.355 . S
C1796 C1798 1.412 . S
C1797 H1789 0.930 . S
C1797 C1796 1.355 . S
C1797 C1800 1.402 . S
C1798 C1796 1.412 . S
C1798 C1799 1.417 . S
C1798 C1822 1.431 . S
C1799 N1795 1.350 . S
C1799 C1798 1.417 . S
C1799 C1802 1.426 . S
C1800 H1783 0.930 . S
C1800 N1795 1.307 . S
C1800 C1797 1.402 . S
N1801 Gd1764 2.601 . S
N1801 C1802 1.359 . S
N1801 C1805 1.334 . S
C1802 C1799 1.426 . S
C1802 N1801 1.359 . S
C1802 C1806 1.413 . S
C1803 H1794 0.930 . S
C1803 C1804 1.359 . S
C1803 C1805 1.394 . S
C1804 C1803 1.359 . S
C1804 C1806 1.391 . S
C1804 H1807 0.929 . S
C1805 H1787 0.930 . S
C1805 N1801 1.334 . S
C1805 C1803 1.394 . S
C1806 C1802 1.413 . S
C1806 C1804 1.391 . S
C1806 C1821 1.437 . S
H1807 C1804 0.929 . S
O1808 Gd1764 2.545 . S
O1808 C1823 1.258 . S
O1809 Gd1764 2.606 . S
O1809 Gd1765 2.362 . S
O1809 C1820 1.284 . S
O1810 Gd1765 2.324 . S
O1810 C1830 1.254 . S
O1811 Gd1764 2.429 . S
O1811 C1830 1.268 . S
O1812 Gd1764 2.545 . S
O1812 C1820 1.250 . S
O1813 Gd1764 2.412 . S
O1813 C1823 1.252 . S
O1814 Gd1765 2.545 . S
O1814 C1832 1.258 . S
O1815 Gd1764 2.362 . S
O1815 Gd1765 2.606 . S
O1815 C1831 1.284 . S
O1816 Gd1764 2.324 . S
O1816 C1839 1.254 . S
O1817 Gd1765 2.429 . S
O1817 C1839 1.268 . S
O1818 Gd1765 2.545 . S
O1818 C1831 1.250 . S
O1819 Gd1765 2.412 . S
O1819 C1832 1.252 . S
C1820 O1809 1.284 . S
C1820 O1812 1.250 . S
C1821 H1790 0.929 . S
C1821 C1806 1.437 . S
C1821 C1822 1.317 . S
C1822 H1793 0.930 . S
C1822 C1798 1.431 . S
C1822 C1821 1.317 . S
C1823 Gd1764 2.828 . S
C1823 O1808 1.258 . S
C1823 O1813 1.252 . S
C1823 C1824 1.497 . S
C1824 C1823 1.497 . S
C1824 C1825 1.395 . S
C1824 C1826 1.380 . S
C1825 C1824 1.395 . S
C1825 C1828 1.398 . S
C1825 H1840 0.930 . S
C1826 C1824 1.380 . S
C1826 C1827 1.391 . S
C1826 H1841 0.930 . S
C1827 C1826 1.391 . S
C1827 C1829 1.387 . S
C1828 C1825 1.398 . S
C1828 C1829 1.380 . S
C1828 H1842 0.930 . S
C1829 C1827 1.387 . S
C1829 C1828 1.380 . S
C1829 H1843 0.930 . S
C1830 O1810 1.254 . S
C1830 O1811 1.268 . S
C1831 O1815 1.284 . S
C1831 O1818 1.250 . S
C1832 Gd1765 2.828 . S
C1832 O1814 1.258 . S
C1832 O1819 1.252 . S
C1832 C1833 1.497 . S
C1833 C1832 1.497 . S
C1833 C1834 1.395 . S
C1833 C1835 1.380 . S
C1834 C1833 1.395 . S
C1834 C1837 1.398 . S
C1834 H1844 0.930 . S
C1835 C1833 1.380 . S
C1835 C1836 1.391 . S
C1835 H1845 0.930 . S
C1836 C1835 1.391 . S
C1836 C1838 1.387 . S
C1837 C1834 1.398 . S
C1837 C1838 1.380 . S
C1837 H1846 0.930 . S
C1838 C1836 1.387 . S
C1838 C1837 1.380 . S
C1838 H1847 0.930 . S
C1839 O1816 1.254 . S
C1839 O1817 1.268 . S
H1840 C1825 0.930 . S
H1841 C1826 0.930 . S
H1842 C1828 0.930 . S
H1843 C1829 0.930 . S
H1844 C1834 0.930 . S
H1845 C1835 0.930 . S
H1846 C1837 0.930 . S
H1847 C1838 0.930 . S
Gd1848 N1879 2.661 1_554 S
Gd1848 N1885 2.601 1_554 S
Gd1848 O1892 2.545 1_554 S
Gd1848 O1893 2.606 . S
Gd1848 O1895 2.429 . S
Gd1848 O1896 2.545 . S
Gd1848 O1897 2.412 1_554 S
Gd1848 O1899 2.362 . S
Gd1848 O1900 2.324 1_554 S
Gd1848 C1907 2.828 1_554 S
Gd1849 N1858 2.661 . S
Gd1849 N1862 2.601 . S
Gd1849 O1893 2.362 . S
Gd1849 O1894 2.324 . S
Gd1849 O1898 2.545 . S
Gd1849 O1899 2.606 . S
Gd1849 O1901 2.429 . S
Gd1849 O1902 2.545 . S
Gd1849 O1903 2.412 . S
Gd1849 C1916 2.828 . S
C1850 C1853 1.417 . S
C1850 C1855 1.431 . S
C1850 C1856 1.412 . S
C1851 C1854 1.437 . S
C1851 C1855 1.317 . S
C1851 H1870 0.929 . S
C1852 C1853 1.426 . S
C1852 C1854 1.413 . S
C1852 N1862 1.359 . S
C1853 C1850 1.417 . S
C1853 C1852 1.426 . S
C1853 N1858 1.350 . S
C1854 C1851 1.437 . S
C1854 C1852 1.413 . S
C1854 C1864 1.391 . S
C1855 C1850 1.431 . S
C1855 C1851 1.317 . S
C1855 H1866 0.930 . S
C1856 C1850 1.412 . S
C1856 C1857 1.355 . S
C1856 H1868 0.930 . S
C1857 C1856 1.355 . S
C1857 C1859 1.402 . S
C1857 H1869 0.930 . S
N1858 Gd1849 2.661 . S
N1858 C1853 1.350 . S
N1858 C1859 1.307 . S
C1859 C1857 1.402 . S
C1859 N1858 1.307 . S
C1859 H1860 0.930 . S
H1860 C1859 0.930 . S
C1861 N1862 1.334 . S
C1861 C1863 1.394 . S
C1861 H1865 0.930 . S
N1862 Gd1849 2.601 . S
N1862 C1852 1.359 . S
N1862 C1861 1.334 . S
C1863 C1861 1.394 . S
C1863 C1864 1.359 . S
C1863 H1875 0.930 . S
C1864 C1854 1.391 . S
C1864 C1863 1.359 . S
C1864 H1876 0.929 . S
H1865 C1861 0.930 . S
H1866 C1855 0.930 . S
H1867 C1884 0.930 . S
H1868 C1856 0.930 . S
H1869 C1857 0.930 . S
H1870 C1851 0.929 . S
H1871 C1889 0.930 . S
H1872 C1880 0.930 . S
H1873 C1881 0.930 . S
H1874 C1905 0.929 . S
H1875 C1863 0.930 . S
H1876 C1864 0.929 . S
H1877 C1906 0.930 . S
H1878 C1887 0.930 1_554 S
N1879 Gd1848 2.661 1_556 S
N1879 C1883 1.350 . S
N1879 C1884 1.307 . S
C1880 H1872 0.930 . S
C1880 C1881 1.355 . S
C1880 C1882 1.412 . S
C1881 H1873 0.930 . S
C1881 C1880 1.355 . S
C1881 C1884 1.402 . S
C1882 C1880 1.412 . S
C1882 C1883 1.417 . S
C1882 C1906 1.431 . S
C1883 N1879 1.350 . S
C1883 C1882 1.417 . S
C1883 C1886 1.426 . S
C1884 H1867 0.930 . S
C1884 N1879 1.307 . S
C1884 C1881 1.402 . S
N1885 Gd1848 2.601 1_556 S
N1885 C1886 1.359 . S
N1885 C1889 1.334 1_556 S
C1886 C1883 1.426 . S
C1886 N1885 1.359 . S
C1886 C1890 1.413 . S
C1887 H1878 0.930 1_556 S
C1887 C1888 1.359 . S
C1887 C1889 1.394 1_556 S
C1888 C1887 1.359 . S
C1888 C1890 1.391 . S
C1888 H1891 0.929 . S
C1889 H1871 0.930 . S
C1889 N1885 1.334 1_554 S
C1889 C1887 1.394 1_554 S
C1890 C1886 1.413 . S
C1890 C1888 1.391 . S
C1890 C1905 1.437 . S
H1891 C1888 0.929 . S
O1892 Gd1848 2.545 1_556 S
O1892 C1907 1.258 . S
O1893 Gd1848 2.606 . S
O1893 Gd1849 2.362 . S
O1893 C1904 1.284 . S
O1894 Gd1849 2.324 . S
O1894 C1914 1.254 . S
O1895 Gd1848 2.429 . S
O1895 C1914 1.268 . S
O1896 Gd1848 2.545 . S
O1896 C1904 1.250 . S
O1897 Gd1848 2.412 1_556 S
O1897 C1907 1.252 . S
O1898 Gd1849 2.545 . S
O1898 C1916 1.258 . S
O1899 Gd1848 2.362 . S
O1899 Gd1849 2.606 . S
O1899 C1915 1.284 . S
O1900 Gd1848 2.324 1_556 S
O1900 C1923 1.254 1_556 S
O1901 Gd1849 2.429 . S
O1901 C1923 1.268 . S
O1902 Gd1849 2.545 . S
O1902 C1915 1.250 . S
O1903 Gd1849 2.412 . S
O1903 C1916 1.252 . S
C1904 O1893 1.284 . S
C1904 O1896 1.250 . S
C1905 H1874 0.929 . S
C1905 C1890 1.437 . S
C1905 C1906 1.317 . S
C1906 H1877 0.930 . S
C1906 C1882 1.431 . S
C1906 C1905 1.317 . S
C1907 Gd1848 2.828 1_556 S
C1907 O1892 1.258 . S
C1907 O1897 1.252 . S
C1907 C1908 1.497 . S
C1908 C1907 1.497 . S
C1908 C1909 1.395 . S
C1908 C1910 1.380 . S
C1909 C1908 1.395 . S
C1909 C1912 1.398 . S
C1909 H1924 0.930 . S
C1910 C1908 1.380 . S
C1910 C1911 1.391 . S
C1910 H1925 0.930 . S
C1911 C1910 1.391 . S
C1911 C1913 1.387 . S
C1912 C1909 1.398 . S
C1912 C1913 1.380 . S
C1912 H1926 0.930 . S
C1913 C1911 1.387 . S
C1913 C1912 1.380 . S
C1913 H1927 0.930 . S
C1914 O1894 1.254 . S
C1914 O1895 1.268 . S
C1915 O1899 1.284 . S
C1915 O1902 1.250 . S
C1916 Gd1849 2.828 . S
C1916 O1898 1.258 . S
C1916 O1903 1.252 . S
C1916 C1917 1.497 . S
C1917 C1916 1.497 . S
C1917 C1918 1.395 . S
C1917 C1919 1.380 . S
C1918 C1917 1.395 . S
C1918 C1921 1.398 . S
C1918 H1928 0.930 . S
C1919 C1917 1.380 . S
C1919 C1920 1.391 . S
C1919 H1929 0.930 . S
C1920 C1919 1.391 . S
C1920 C1922 1.387 . S
C1921 C1918 1.398 . S
C1921 C1922 1.380 . S
C1921 H1930 0.930 . S
C1922 C1920 1.387 . S
C1922 C1921 1.380 . S
C1922 H1931 0.930 . S
C1923 O1900 1.254 1_554 S
C1923 O1901 1.268 . S
H1924 C1909 0.930 . S
H1925 C1910 0.930 . S
H1926 C1912 0.930 . S
H1927 C1913 0.930 . S
H1928 C1918 0.930 . S
H1929 C1919 0.930 . S
H1930 C1921 0.930 . S
H1931 C1922 0.930 . S
Gd1932 N1963 2.661 1_565 S
Gd1932 N1969 2.601 1_565 S
Gd1932 O1976 2.529 1_565 S
Gd1932 O1977 2.606 . S
Gd1932 O1979 2.429 . S
Gd1932 O1980 2.545 . S
Gd1932 O1981 2.412 1_565 S
Gd1932 O1983 2.362 . S
Gd1932 O1984 2.315 1_565 S
Gd1932 C1991 2.828 1_565 S
Gd1933 N1942 2.661 . S
Gd1933 N1946 2.601 . S
Gd1933 O1977 2.362 . S
Gd1933 O1978 2.324 . S
Gd1933 O1982 2.545 . S
Gd1933 O1983 2.606 . S
Gd1933 O1985 2.429 . S
Gd1933 O1986 2.545 . S
Gd1933 O1987 2.412 . S
Gd1933 C2000 2.828 . S
C1934 C1937 1.417 . S
C1934 C1939 1.431 . S
C1934 C1940 1.412 . S
C1935 C1938 1.437 . S
C1935 C1939 1.317 . S
C1935 H1954 0.929 . S
C1936 C1937 1.426 . S
C1936 C1938 1.413 . S
C1936 N1946 1.359 . S
C1937 C1934 1.417 . S
C1937 C1936 1.426 . S
C1937 N1942 1.350 . S
C1938 C1935 1.437 . S
C1938 C1936 1.413 . S
C1938 C1948 1.391 . S
C1939 C1934 1.431 . S
C1939 C1935 1.317 . S
C1939 H1950 0.930 . S
C1940 C1934 1.412 . S
C1940 C1941 1.355 . S
C1940 H1952 0.930 . S
C1941 C1940 1.355 . S
C1941 C1943 1.402 . S
C1941 H1953 0.930 . S
N1942 Gd1933 2.661 . S
N1942 C1937 1.350 . S
N1942 C1943 1.307 . S
C1943 C1941 1.402 . S
C1943 N1942 1.307 . S
C1943 H1944 0.930 . S
H1944 C1943 0.930 . S
C1945 N1946 1.334 . S
C1945 C1947 1.394 . S
C1945 H1949 0.930 . S
N1946 Gd1933 2.601 . S
N1946 C1936 1.359 . S
N1946 C1945 1.334 . S
C1947 C1945 1.394 . S
C1947 C1948 1.359 . S
C1947 H1959 0.930 . S
C1948 C1938 1.391 . S
C1948 C1947 1.359 . S
C1948 H1960 0.929 . S
H1949 C1945 0.930 . S
H1950 C1939 0.930 . S
H1951 C1968 0.930 . S
H1952 C1940 0.930 . S
H1953 C1941 0.930 . S
H1954 C1935 0.929 . S
H1955 C1973 0.930 . S
H1956 C1964 0.930 . S
H1957 C1965 0.930 . S
H1958 C1989 0.929 . S
H1959 C1947 0.930 . S
H1960 C1948 0.929 . S
H1961 C1990 0.930 . S
H1962 C1971 0.908 1_565 S
N1963 Gd1932 2.661 1_545 S
N1963 C1967 1.350 . S
N1963 C1968 1.307 . S
C1964 H1956 0.930 . S
C1964 C1965 1.355 . S
C1964 C1966 1.412 . S
C1965 H1957 0.930 . S
C1965 C1964 1.355 . S
C1965 C1968 1.402 . S
C1966 C1964 1.412 . S
C1966 C1967 1.417 . S
C1966 C1990 1.431 . S
C1967 N1963 1.350 . S
C1967 C1966 1.417 . S
C1967 C1970 1.426 . S
C1968 H1951 0.930 . S
C1968 N1963 1.307 . S
C1968 C1965 1.402 . S
N1969 Gd1932 2.601 1_545 S
N1969 C1970 1.359 . S
N1969 C1973 1.334 1_545 S
C1970 C1967 1.426 . S
C1970 N1969 1.359 . S
C1970 C1974 1.413 . S
C1971 H1962 0.908 1_545 S
C1971 C1972 1.402 . S
C1971 C1973 1.376 1_545 S
C1972 C1971 1.402 . S
C1972 C1974 1.391 . S
C1972 H1975 0.929 . S
C1973 H1955 0.930 . S
C1973 N1969 1.334 1_565 S
C1973 C1971 1.376 1_565 S
C1974 C1970 1.413 . S
C1974 C1972 1.391 . S
C1974 C1989 1.437 . S
H1975 C1972 0.929 . S
O1976 Gd1932 2.529 1_545 S
O1976 C1991 1.304 . S
O1977 Gd1932 2.606 . S
O1977 Gd1933 2.362 . S
O1977 C1988 1.284 . S
O1978 Gd1933 2.324 . S
O1978 C1998 1.254 . S
O1979 Gd1932 2.429 . S
O1979 C1998 1.268 . S
O1980 Gd1932 2.545 . S
O1980 C1988 1.250 . S
O1981 Gd1932 2.412 1_545 S
O1981 C1991 1.252 . S
O1982 Gd1933 2.545 . S
O1982 C2000 1.258 . S
O1983 Gd1932 2.362 . S
O1983 Gd1933 2.606 . S
O1983 C1999 1.284 . S
O1984 Gd1932 2.315 1_545 S
O1984 C2007 1.243 1_545 S
O1985 Gd1933 2.429 . S
O1985 C2007 1.268 . S
O1986 Gd1933 2.545 . S
O1986 C1999 1.250 . S
O1987 Gd1933 2.412 . S
O1987 C2000 1.252 . S
C1988 O1977 1.284 . S
C1988 O1980 1.250 . S
C1989 H1958 0.929 . S
C1989 C1974 1.437 . S
C1989 C1990 1.317 . S
C1990 H1961 0.930 . S
C1990 C1966 1.431 . S
C1990 C1989 1.317 . S
C1991 Gd1932 2.828 1_545 S
C1991 O1976 1.304 . S
C1991 O1981 1.252 . S
C1991 C1992 1.497 . S
C1992 C1991 1.497 . S
C1992 C1993 1.395 . S
C1992 C1994 1.380 . S
C1993 C1992 1.395 . S
C1993 C1996 1.398 . S
C1993 H2008 0.930 . S
C1994 C1992 1.380 . S
C1994 C1995 1.391 . S
C1994 H2009 0.930 . S
C1995 C1994 1.391 . S
C1995 C1997 1.387 . S
C1996 C1993 1.398 . S
C1996 C1997 1.380 . S
C1996 H2010 0.930 . S
C1997 C1995 1.387 . S
C1997 C1996 1.380 . S
C1997 H2011 0.930 . S
C1998 O1978 1.254 . S
C1998 O1979 1.268 . S
C1999 O1983 1.284 . S
C1999 O1986 1.250 . S
C2000 Gd1933 2.828 . S
C2000 O1982 1.258 . S
C2000 O1987 1.252 . S
C2000 C2001 1.497 . S
C2001 C2000 1.497 . S
C2001 C2002 1.395 . S
C2001 C2003 1.380 . S
C2002 C2001 1.395 . S
C2002 C2005 1.398 . S
C2002 H2012 0.930 . S
C2003 C2001 1.380 . S
C2003 C2004 1.391 . S
C2003 H2013 0.930 . S
C2004 C2003 1.391 . S
C2004 C2006 1.387 . S
C2005 C2002 1.398 . S
C2005 C2006 1.380 . S
C2005 H2014 0.930 . S
C2006 C2004 1.387 . S
C2006 C2005 1.380 . S
C2006 H2015 0.930 . S
C2007 O1984 1.243 1_565 S
C2007 O1985 1.268 . S
H2008 C1993 0.930 . S
H2009 C1994 0.930 . S
H2010 C1996 0.930 . S
H2011 C1997 0.930 . S
H2012 C2002 0.930 . S
H2013 C2003 0.930 . S
H2014 C2005 0.930 . S
H2015 C2006 0.930 . S
Gd2016 N2047 2.661 . S
Gd2016 N2053 2.601 . S
Gd2016 O2060 2.545 . S
Gd2016 O2061 2.606 . S
Gd2016 O2063 2.429 . S
Gd2016 O2064 2.545 . S
Gd2016 O2065 2.412 . S
Gd2016 O2067 2.362 . S
Gd2016 O2068 2.324 . S
Gd2016 C2075 2.828 . S
Gd2017 N2026 2.661 . S
Gd2017 N2030 2.601 1_565 S
Gd2017 O2061 2.362 . S
Gd2017 O2062 2.324 . S
Gd2017 O2066 2.545 1_565 S
Gd2017 O2067 2.606 . S
Gd2017 O2069 2.429 . S
Gd2017 O2070 2.545 1_565 S
Gd2017 O2071 2.412 1_565 S
Gd2017 C2084 2.828 1_565 S
C2018 C2021 1.417 . S
C2018 C2023 1.431 . S
C2018 C2024 1.412 . S
C2019 C2022 1.433 1_565 S
C2019 C2023 1.317 . S
C2019 H2038 0.929 . S
C2020 C2021 1.426 . S
C2020 C2022 1.410 1_565 S
C2020 N2030 1.359 1_565 S
C2021 C2018 1.417 . S
C2021 C2020 1.426 . S
C2021 N2026 1.350 . S
C2022 C2019 1.433 1_545 S
C2022 C2020 1.410 1_545 S
C2022 C2032 1.398 . S
C2023 C2018 1.431 . S
C2023 C2019 1.317 . S
C2023 H2034 0.930 . S
C2024 C2018 1.412 . S
C2024 C2025 1.355 . S
C2024 H2036 0.930 . S
C2025 C2024 1.355 . S
C2025 C2027 1.402 . S
C2025 H2037 0.930 . S
N2026 Gd2017 2.661 . S
N2026 C2021 1.350 . S
N2026 C2027 1.307 . S
C2027 C2025 1.402 . S
C2027 N2026 1.307 . S
C2027 H2028 0.930 . S
H2028 C2027 0.930 . S
C2029 N2030 1.334 . S
C2029 C2031 1.394 . S
C2029 H2033 0.930 . S
N2030 Gd2017 2.601 1_545 S
N2030 C2020 1.359 1_545 S
N2030 C2029 1.334 . S
C2031 C2029 1.394 . S
C2031 C2032 1.359 . S
C2031 H2043 0.930 . S
C2032 C2022 1.398 . S
C2032 C2031 1.359 . S
C2032 H2044 0.929 . S
H2033 C2029 0.930 . S
H2034 C2023 0.930 . S
H2035 C2052 0.930 . S
H2036 C2024 0.930 . S
H2037 C2025 0.930 . S
H2038 C2019 0.929 . S
H2039 C2057 0.930 . S
H2040 C2048 0.930 . S
H2041 C2049 0.930 1_545 S
H2042 C2073 0.929 . S
H2043 C2031 0.930 . S
H2044 C2032 0.929 . S
H2045 C2074 0.930 . S
H2046 C2055 0.930 . S
N2047 Gd2016 2.661 . S
N2047 C2051 1.350 . S
N2047 C2052 1.307 . S
C2048 H2040 0.930 . S
C2048 C2049 1.355 . S
C2048 C2050 1.412 . S
C2049 H2041 0.930 1_565 S
C2049 C2048 1.355 . S
C2049 C2052 1.402 . S
C2050 C2048 1.412 . S
C2050 C2051 1.417 . S
C2050 C2074 1.431 . S
C2051 N2047 1.350 . S
C2051 C2050 1.417 . S
C2051 C2054 1.426 . S
C2052 H2035 0.930 . S
C2052 N2047 1.307 . S
C2052 C2049 1.402 . S
N2053 Gd2016 2.601 . S
N2053 C2054 1.359 . S
N2053 C2057 1.334 . S
C2054 C2051 1.426 . S
C2054 N2053 1.359 . S
C2054 C2058 1.413 . S
C2055 H2046 0.930 . S
C2055 C2056 1.359 . S
C2055 C2057 1.394 . S
C2056 C2055 1.359 . S
C2056 C2058 1.391 . S
C2056 H2059 0.929 . S
C2057 H2039 0.930 . S
C2057 N2053 1.334 . S
C2057 C2055 1.394 . S
C2058 C2054 1.413 . S
C2058 C2056 1.391 . S
C2058 C2073 1.437 . S
H2059 C2056 0.929 . S
O2060 Gd2016 2.545 . S
O2060 C2075 1.258 . S
O2061 Gd2016 2.606 . S
O2061 Gd2017 2.362 . S
O2061 C2072 1.284 . S
O2062 Gd2017 2.324 . S
O2062 C2082 1.254 . S
O2063 Gd2016 2.429 . S
O2063 C2082 1.268 . S
O2064 Gd2016 2.545 . S
O2064 C2072 1.250 . S
O2065 Gd2016 2.412 . S
O2065 C2075 1.252 . S
O2066 Gd2017 2.545 1_545 S
O2066 C2084 1.258 . S
O2067 Gd2016 2.362 . S
O2067 Gd2017 2.606 . S
O2067 C2083 1.284 . S
O2068 Gd2016 2.324 . S
O2068 C2091 1.254 . S
O2069 Gd2017 2.429 . S
O2069 C2091 1.268 . S
O2070 Gd2017 2.545 1_545 S
O2070 C2083 1.250 1_545 S
O2071 Gd2017 2.412 1_545 S
O2071 C2084 1.252 . S
C2072 O2061 1.284 . S
C2072 O2064 1.250 . S
C2073 H2042 0.929 . S
C2073 C2058 1.437 . S
C2073 C2074 1.317 . S
C2074 H2045 0.930 . S
C2074 C2050 1.431 . S
C2074 C2073 1.317 . S
C2075 Gd2016 2.828 . S
C2075 O2060 1.258 . S
C2075 O2065 1.252 . S
C2075 C2076 1.497 . S
C2076 C2075 1.497 . S
C2076 C2077 1.395 . S
C2076 C2078 1.380 . S
C2077 C2076 1.395 . S
C2077 C2080 1.398 . S
C2077 H2092 0.930 . S
C2078 C2076 1.380 . S
C2078 C2079 1.391 . S
C2078 H2093 0.930 . S
C2079 C2078 1.391 . S
C2079 C2081 1.387 . S
C2080 C2077 1.398 . S
C2080 C2081 1.380 . S
C2080 H2094 0.930 . S
C2081 C2079 1.387 . S
C2081 C2080 1.380 . S
C2081 H2095 0.930 . S
C2082 O2062 1.254 . S
C2082 O2063 1.268 . S
C2083 O2067 1.284 . S
C2083 O2070 1.250 1_565 S
C2084 Gd2017 2.828 1_545 S
C2084 O2066 1.258 . S
C2084 O2071 1.252 . S
C2084 C2085 1.497 . S
C2085 C2084 1.497 . S
C2085 C2086 1.395 . S
C2085 C2087 1.380 . S
C2086 C2085 1.395 . S
C2086 C2089 1.398 . S
C2086 H2096 0.930 . S
C2087 C2085 1.380 . S
C2087 C2088 1.391 . S
C2087 H2097 0.930 . S
C2088 C2087 1.391 . S
C2088 C2090 1.387 . S
C2089 C2086 1.398 . S
C2089 C2090 1.380 . S
C2089 H2098 0.930 . S
C2090 C2088 1.387 . S
C2090 C2089 1.380 . S
C2090 H2099 0.930 . S
C2091 O2068 1.254 . S
C2091 O2069 1.268 . S
H2092 C2077 0.930 . S
H2093 C2078 0.930 . S
H2094 C2080 0.930 . S
H2095 C2081 0.930 . S
H2096 C2086 0.930 . S
H2097 C2087 0.930 . S
H2098 C2089 0.930 . S
H2099 C2090 0.930 . S
Gd2100 N2131 2.661 1_545 S
Gd2100 N2137 2.601 1_545 S
Gd2100 O2144 2.545 1_545 S
Gd2100 O2145 2.606 . S
Gd2100 O2147 2.429 . S
Gd2100 O2148 2.545 . S
Gd2100 O2149 2.412 1_545 S
Gd2100 O2151 2.362 . S
Gd2100 O2152 2.324 1_545 S
Gd2100 C2159 2.828 1_545 S
Gd2101 N2110 2.661 . S
Gd2101 N2114 2.601 . S
Gd2101 O2145 2.362 . S
Gd2101 O2146 2.324 . S
Gd2101 O2150 2.545 . S
Gd2101 O2151 2.606 . S
Gd2101 O2153 2.429 . S
Gd2101 O2154 2.545 . S
Gd2101 O2155 2.412 . S
Gd2101 C2168 2.828 . S
C2102 C2105 1.417 . S
C2102 C2107 1.431 . S
C2102 C2108 1.412 . S
C2103 C2106 1.437 . S
C2103 C2107 1.317 . S
C2103 H2122 0.929 . S
C2104 C2105 1.426 . S
C2104 C2106 1.413 . S
C2104 N2114 1.359 . S
C2105 C2102 1.417 . S
C2105 C2104 1.426 . S
C2105 N2110 1.350 . S
C2106 C2103 1.437 . S
C2106 C2104 1.413 . S
C2106 C2116 1.391 . S
C2107 C2102 1.431 . S
C2107 C2103 1.317 . S
C2107 H2118 0.930 . S
C2108 C2102 1.412 . S
C2108 C2109 1.355 . S
C2108 H2120 0.930 . S
C2109 C2108 1.355 . S
C2109 C2111 1.402 . S
C2109 H2121 0.930 . S
N2110 Gd2101 2.661 . S
N2110 C2105 1.350 . S
N2110 C2111 1.307 . S
C2111 C2109 1.402 . S
C2111 N2110 1.307 . S
C2111 H2112 0.930 . S
H2112 C2111 0.930 . S
C2113 N2114 1.334 . S
C2113 C2115 1.394 . S
C2113 H2117 0.930 . S
N2114 Gd2101 2.601 . S
N2114 C2104 1.359 . S
N2114 C2113 1.334 . S
C2115 C2113 1.394 . S
C2115 C2116 1.359 . S
C2115 H2127 0.930 . S
C2116 C2106 1.391 . S
C2116 C2115 1.359 . S
C2116 H2128 0.929 . S
H2117 C2113 0.930 . S
H2118 C2107 0.930 . S
H2119 C2136 0.930 . S
H2120 C2108 0.930 . S
H2121 C2109 0.930 . S
H2122 C2103 0.929 . S
H2123 C2141 0.930 . S
H2124 C2132 0.930 . S
H2125 C2133 0.930 . S
H2126 C2157 0.929 . S
H2127 C2115 0.930 . S
H2128 C2116 0.929 . S
H2129 C2158 0.930 . S
H2130 C2139 0.930 1_545 S
N2131 Gd2100 2.661 1_565 S
N2131 C2135 1.350 . S
N2131 C2136 1.307 . S
C2132 H2124 0.930 . S
C2132 C2133 1.355 . S
C2132 C2134 1.412 . S
C2133 H2125 0.930 . S
C2133 C2132 1.355 . S
C2133 C2136 1.402 . S
C2134 C2132 1.412 . S
C2134 C2135 1.417 . S
C2134 C2158 1.431 . S
C2135 N2131 1.350 . S
C2135 C2134 1.417 . S
C2135 C2138 1.426 . S
C2136 H2119 0.930 . S
C2136 N2131 1.307 . S
C2136 C2133 1.402 . S
N2137 Gd2100 2.601 1_565 S
N2137 C2138 1.359 . S
N2137 C2141 1.334 1_565 S
C2138 C2135 1.426 . S
C2138 N2137 1.359 . S
C2138 C2142 1.413 . S
C2139 H2130 0.930 1_565 S
C2139 C2140 1.359 . S
C2139 C2141 1.394 1_565 S
C2140 C2139 1.359 . S
C2140 C2142 1.391 . S
C2140 H2143 0.929 . S
C2141 H2123 0.930 . S
C2141 N2137 1.334 1_545 S
C2141 C2139 1.394 1_545 S
C2142 C2138 1.413 . S
C2142 C2140 1.391 . S
C2142 C2157 1.437 . S
H2143 C2140 0.929 . S
O2144 Gd2100 2.545 1_565 S
O2144 C2159 1.258 . S
O2145 Gd2100 2.606 . S
O2145 Gd2101 2.362 . S
O2145 C2156 1.284 . S
O2146 Gd2101 2.324 . S
O2146 C2166 1.254 . S
O2147 Gd2100 2.429 . S
O2147 C2166 1.268 . S
O2148 Gd2100 2.545 . S
O2148 C2156 1.250 . S
O2149 Gd2100 2.412 1_565 S
O2149 C2159 1.252 . S
O2150 Gd2101 2.545 . S
O2150 C2168 1.258 . S
O2151 Gd2100 2.362 . S
O2151 Gd2101 2.606 . S
O2151 C2167 1.284 . S
O2152 Gd2100 2.324 1_565 S
O2152 C2175 1.254 1_565 S
O2153 Gd2101 2.429 . S
O2153 C2175 1.268 . S
O2154 Gd2101 2.545 . S
O2154 C2167 1.250 . S
O2155 Gd2101 2.412 . S
O2155 C2168 1.252 . S
C2156 O2145 1.284 . S
C2156 O2148 1.250 . S
C2157 H2126 0.929 . S
C2157 C2142 1.437 . S
C2157 C2158 1.317 . S
C2158 H2129 0.930 . S
C2158 C2134 1.431 . S
C2158 C2157 1.317 . S
C2159 Gd2100 2.828 1_565 S
C2159 O2144 1.258 . S
C2159 O2149 1.252 . S
C2159 C2160 1.497 . S
C2160 C2159 1.497 . S
C2160 C2161 1.395 . S
C2160 C2162 1.380 . S
C2161 C2160 1.395 . S
C2161 C2164 1.398 . S
C2161 H2176 0.930 . S
C2162 C2160 1.380 . S
C2162 C2163 1.391 . S
C2162 H2177 0.930 . S
C2163 C2162 1.391 . S
C2163 C2165 1.387 . S
C2164 C2161 1.398 . S
C2164 C2165 1.380 . S
C2164 H2178 0.930 . S
C2165 C2163 1.387 . S
C2165 C2164 1.380 . S
C2165 H2179 0.930 . S
C2166 O2146 1.254 . S
C2166 O2147 1.268 . S
C2167 O2151 1.284 . S
C2167 O2154 1.250 . S
C2168 Gd2101 2.828 . S
C2168 O2150 1.258 . S
C2168 O2155 1.252 . S
C2168 C2169 1.497 . S
C2169 C2168 1.497 . S
C2169 C2170 1.395 . S
C2169 C2171 1.380 . S
C2170 C2169 1.395 . S
C2170 C2173 1.398 . S
C2170 H2180 0.930 . S
C2171 C2169 1.380 . S
C2171 C2172 1.391 . S
C2171 H2181 0.930 . S
C2172 C2171 1.391 . S
C2172 C2174 1.387 . S
C2173 C2170 1.398 . S
C2173 C2174 1.380 . S
C2173 H2182 0.930 . S
C2174 C2172 1.387 . S
C2174 C2173 1.380 . S
C2174 H2183 0.930 . S
C2175 O2152 1.254 1_545 S
C2175 O2153 1.268 . S
H2176 C2161 0.930 . S
H2177 C2162 0.930 . S
H2178 C2164 0.930 . S
H2179 C2165 0.930 . S
H2180 C2170 0.930 . S
H2181 C2171 0.930 . S
H2182 C2173 0.930 . S
H2183 C2174 0.930 . S
Gd2184 N2215 2.661 . S
Gd2184 N2221 2.601 . S
Gd2184 O2228 2.545 . S
Gd2184 O2229 2.606 . S
Gd2184 O2231 2.429 . S
Gd2184 O2232 2.545 . S
Gd2184 O2233 2.412 . S
Gd2184 O2235 2.362 . S
Gd2184 O2236 2.324 . S
Gd2184 C2243 2.828 . S
Gd2185 N2194 2.661 . S
Gd2185 N2198 2.601 1_545 S
Gd2185 O2229 2.362 . S
Gd2185 O2230 2.324 . S
Gd2185 O2234 2.545 1_545 S
Gd2185 O2235 2.606 . S
Gd2185 O2237 2.429 . S
Gd2185 O2238 2.545 1_545 S
Gd2185 O2239 2.412 1_545 S
Gd2185 C2252 2.828 1_545 S
C2186 C2189 1.417 . S
C2186 C2191 1.431 . S
C2186 C2192 1.412 . S
C2187 C2190 1.424 1_545 S
C2187 C2191 1.317 . S
C2187 H2206 0.929 . S
C2188 C2189 1.426 . S
C2188 C2190 1.404 1_545 S
C2188 N2198 1.359 1_545 S
C2189 C2186 1.417 . S
C2189 C2188 1.426 . S
C2189 N2194 1.350 . S
C2190 C2187 1.424 1_565 S
C2190 C2188 1.404 1_565 S
C2190 C2200 1.413 . S
C2191 C2186 1.431 . S
C2191 C2187 1.317 . S
C2191 H2202 0.930 . S
C2192 C2186 1.412 . S
C2192 C2193 1.355 . S
C2192 H2204 0.930 . S
C2193 C2192 1.355 . S
C2193 C2195 1.402 . S
C2193 H2205 0.930 . S
N2194 Gd2185 2.661 . S
N2194 C2189 1.350 . S
N2194 C2195 1.307 . S
C2195 C2193 1.402 . S
C2195 N2194 1.307 . S
C2195 H2196 0.930 . S
H2196 C2195 0.930 . S
C2197 N2198 1.334 . S
C2197 C2199 1.394 . S
C2197 H2201 0.930 . S
N2198 Gd2185 2.601 1_565 S
N2198 C2188 1.359 1_565 S
N2198 C2197 1.334 . S
C2199 C2197 1.394 . S
C2199 C2200 1.359 . S
C2199 H2211 0.930 . S
C2200 C2190 1.413 . S
C2200 C2199 1.359 . S
C2200 H2212 0.929 . S
H2201 C2197 0.930 . S
H2202 C2191 0.930 . S
H2203 C2220 0.930 . S
H2204 C2192 0.930 . S
H2205 C2193 0.930 . S
H2206 C2187 0.929 . S
H2207 C2225 0.930 . S
H2208 C2216 0.930 . S
H2209 C2217 0.930 1_565 S
H2210 C2241 0.929 . S
H2211 C2199 0.930 . S
H2212 C2200 0.929 . S
H2213 C2242 0.930 . S
H2214 C2223 0.930 . S
N2215 Gd2184 2.661 . S
N2215 C2219 1.350 . S
N2215 C2220 1.307 . S
C2216 H2208 0.930 . S
C2216 C2217 1.355 . S
C2216 C2218 1.412 . S
C2217 H2209 0.930 1_545 S
C2217 C2216 1.355 . S
C2217 C2220 1.402 . S
C2218 C2216 1.412 . S
C2218 C2219 1.417 . S
C2218 C2242 1.431 . S
C2219 N2215 1.350 . S
C2219 C2218 1.417 . S
C2219 C2222 1.426 . S
C2220 H2203 0.930 . S
C2220 N2215 1.307 . S
C2220 C2217 1.402 . S
N2221 Gd2184 2.601 . S
N2221 C2222 1.359 . S
N2221 C2225 1.334 . S
C2222 C2219 1.426 . S
C2222 N2221 1.359 . S
C2222 C2226 1.413 . S
C2223 H2214 0.930 . S
C2223 C2224 1.359 . S
C2223 C2225 1.394 . S
C2224 C2223 1.359 . S
C2224 C2226 1.391 . S
C2224 H2227 0.929 . S
C2225 H2207 0.930 . S
C2225 N2221 1.334 . S
C2225 C2223 1.394 . S
C2226 C2222 1.413 . S
C2226 C2224 1.391 . S
C2226 C2241 1.437 . S
H2227 C2224 0.929 . S
O2228 Gd2184 2.545 . S
O2228 C2243 1.258 . S
O2229 Gd2184 2.606 . S
O2229 Gd2185 2.362 . S
O2229 C2240 1.284 . S
O2230 Gd2185 2.324 . S
O2230 C2250 1.254 . S
O2231 Gd2184 2.429 . S
O2231 C2250 1.268 . S
O2232 Gd2184 2.545 . S
O2232 C2240 1.250 . S
O2233 Gd2184 2.412 . S
O2233 C2243 1.252 . S
O2234 Gd2185 2.545 1_565 S
O2234 C2252 1.258 . S
O2235 Gd2184 2.362 . S
O2235 Gd2185 2.606 . S
O2235 C2251 1.284 . S
O2236 Gd2184 2.324 . S
O2236 C2259 1.254 . S
O2237 Gd2185 2.429 . S
O2237 C2259 1.268 . S
O2238 Gd2185 2.545 1_565 S
O2238 C2251 1.250 1_565 S
O2239 Gd2185 2.412 1_565 S
O2239 C2252 1.252 . S
C2240 O2229 1.284 . S
C2240 O2232 1.250 . S
C2241 H2210 0.929 . S
C2241 C2226 1.437 . S
C2241 C2242 1.317 . S
C2242 H2213 0.930 . S
C2242 C2218 1.431 . S
C2242 C2241 1.317 . S
C2243 Gd2184 2.828 . S
C2243 O2228 1.258 . S
C2243 O2233 1.252 . S
C2243 C2244 1.497 . S
C2244 C2243 1.497 . S
C2244 C2245 1.395 . S
C2244 C2246 1.380 . S
C2245 C2244 1.395 . S
C2245 C2248 1.398 . S
C2245 H2260 0.930 . S
C2246 C2244 1.380 . S
C2246 C2247 1.391 . S
C2246 H2261 0.930 . S
C2247 C2246 1.391 . S
C2247 C2249 1.387 . S
C2248 C2245 1.398 . S
C2248 C2249 1.380 . S
C2248 H2262 0.930 . S
C2249 C2247 1.387 . S
C2249 C2248 1.380 . S
C2249 H2263 0.930 . S
C2250 O2230 1.254 . S
C2250 O2231 1.268 . S
C2251 O2235 1.284 . S
C2251 O2238 1.250 1_545 S
C2252 Gd2185 2.828 1_565 S
C2252 O2234 1.258 . S
C2252 O2239 1.252 . S
C2252 C2253 1.497 . S
C2253 C2252 1.497 . S
C2253 C2254 1.395 . S
C2253 C2255 1.380 . S
C2254 C2253 1.395 . S
C2254 C2257 1.398 . S
C2254 H2264 0.930 . S
C2255 C2253 1.380 . S
C2255 C2256 1.391 . S
C2255 H2265 0.930 . S
C2256 C2255 1.391 . S
C2256 C2258 1.387 . S
C2257 C2254 1.398 . S
C2257 C2258 1.380 . S
C2257 H2266 0.930 . S
C2258 C2256 1.387 . S
C2258 C2257 1.380 . S
C2258 H2267 0.930 . S
C2259 O2236 1.254 . S
C2259 O2237 1.268 . S
H2260 C2245 0.930 . S
H2261 C2246 0.930 . S
H2262 C2248 0.930 . S
H2263 C2249 0.930 . S
H2264 C2254 0.930 . S
H2265 C2255 0.930 . S
H2266 C2257 0.930 . S
H2267 C2258 0.930 . S
Gd2268 N2299 2.661 . S
Gd2268 N2305 2.601 . S
Gd2268 O2312 2.545 . S
Gd2268 O2313 2.606 . S
Gd2268 O2315 2.429 . S
Gd2268 O2316 2.545 . S
Gd2268 O2317 2.412 . S
Gd2268 O2319 2.362 . S
Gd2268 O2320 2.324 . S
Gd2268 C2327 2.828 . S
Gd2269 N2278 2.661 . S
Gd2269 N2282 2.601 1_556 S
Gd2269 O2313 2.362 . S
Gd2269 O2314 2.324 . S
Gd2269 O2318 2.545 1_556 S
Gd2269 O2319 2.606 . S
Gd2269 O2321 2.429 . S
Gd2269 O2322 2.545 1_556 S
Gd2269 O2323 2.412 1_556 S
Gd2269 C2336 2.828 1_556 S
C2270 C2273 1.417 . S
C2270 C2275 1.431 . S
C2270 C2276 1.412 . S
C2271 C2274 1.426 1_556 S
C2271 C2275 1.317 . S
C2271 H2290 0.929 . S
C2272 C2273 1.426 . S
C2272 C2274 1.406 1_556 S
C2272 N2282 1.359 1_556 S
C2273 C2270 1.417 . S
C2273 C2272 1.426 . S
C2273 N2278 1.350 . S
C2274 C2271 1.426 1_554 S
C2274 C2272 1.406 1_554 S
C2274 C2284 1.409 . S
C2275 C2270 1.431 . S
C2275 C2271 1.317 . S
C2275 H2286 0.930 . S
C2276 C2270 1.412 . S
C2276 C2277 1.355 . S
C2276 H2288 0.930 . S
C2277 C2276 1.355 . S
C2277 C2279 1.402 . S
C2277 H2289 0.930 . S
N2278 Gd2269 2.661 . S
N2278 C2273 1.350 . S
N2278 C2279 1.307 . S
C2279 C2277 1.402 . S
C2279 N2278 1.307 . S
C2279 H2280 0.930 . S
H2280 C2279 0.930 . S
C2281 N2282 1.334 . S
C2281 C2283 1.394 . S
C2281 H2285 0.930 . S
N2282 Gd2269 2.601 1_554 S
N2282 C2272 1.359 1_554 S
N2282 C2281 1.334 . S
C2283 C2281 1.394 . S
C2283 C2284 1.359 . S
C2283 H2295 0.930 . S
C2284 C2274 1.409 . S
C2284 C2283 1.359 . S
C2284 H2296 0.929 . S
H2285 C2281 0.930 . S
H2286 C2275 0.930 . S
H2287 C2304 0.930 . S
H2288 C2276 0.930 . S
H2289 C2277 0.930 . S
H2290 C2271 0.929 . S
H2291 C2309 0.930 . S
H2292 C2300 0.930 . S
H2293 C2301 0.930 1_554 S
H2294 C2325 0.929 . S
H2295 C2283 0.930 . S
H2296 C2284 0.929 . S
H2297 C2326 0.930 . S
H2298 C2307 0.930 . S
N2299 Gd2268 2.661 . S
N2299 C2303 1.350 . S
N2299 C2304 1.307 . S
C2300 H2292 0.930 . S
C2300 C2301 1.355 . S
C2300 C2302 1.412 . S
C2301 H2293 0.930 1_556 S
C2301 C2300 1.355 . S
C2301 C2304 1.402 . S
C2302 C2300 1.412 . S
C2302 C2303 1.417 . S
C2302 C2326 1.431 . S
C2303 N2299 1.350 . S
C2303 C2302 1.417 . S
C2303 C2306 1.426 . S
C2304 H2287 0.930 . S
C2304 N2299 1.307 . S
C2304 C2301 1.402 . S
N2305 Gd2268 2.601 . S
N2305 C2306 1.359 . S
N2305 C2309 1.334 . S
C2306 C2303 1.426 . S
C2306 N2305 1.359 . S
C2306 C2310 1.413 . S
C2307 H2298 0.930 . S
C2307 C2308 1.359 . S
C2307 C2309 1.394 . S
C2308 C2307 1.359 . S
C2308 C2310 1.391 . S
C2308 H2311 0.929 . S
C2309 H2291 0.930 . S
C2309 N2305 1.334 . S
C2309 C2307 1.394 . S
C2310 C2306 1.413 . S
C2310 C2308 1.391 . S
C2310 C2325 1.437 . S
H2311 C2308 0.929 . S
O2312 Gd2268 2.545 . S
O2312 C2327 1.258 . S
O2313 Gd2268 2.606 . S
O2313 Gd2269 2.362 . S
O2313 C2324 1.284 . S
O2314 Gd2269 2.324 . S
O2314 C2334 1.254 . S
O2315 Gd2268 2.429 . S
O2315 C2334 1.268 . S
O2316 Gd2268 2.545 . S
O2316 C2324 1.250 . S
O2317 Gd2268 2.412 . S
O2317 C2327 1.252 . S
O2318 Gd2269 2.545 1_554 S
O2318 C2336 1.258 . S
O2319 Gd2268 2.362 . S
O2319 Gd2269 2.606 . S
O2319 C2335 1.284 . S
O2320 Gd2268 2.324 . S
O2320 C2343 1.254 . S
O2321 Gd2269 2.429 . S
O2321 C2343 1.268 . S
O2322 Gd2269 2.545 1_554 S
O2322 C2335 1.250 1_554 S
O2323 Gd2269 2.412 1_554 S
O2323 C2336 1.252 . S
C2324 O2313 1.284 . S
C2324 O2316 1.250 . S
C2325 H2294 0.929 . S
C2325 C2310 1.437 . S
C2325 C2326 1.317 . S
C2326 H2297 0.930 . S
C2326 C2302 1.431 . S
C2326 C2325 1.317 . S
C2327 Gd2268 2.828 . S
C2327 O2312 1.258 . S
C2327 O2317 1.252 . S
C2327 C2328 1.497 . S
C2328 C2327 1.497 . S
C2328 C2329 1.395 . S
C2328 C2330 1.380 . S
C2329 C2328 1.395 . S
C2329 C2332 1.398 . S
C2329 H2344 0.930 . S
C2330 C2328 1.380 . S
C2330 C2331 1.391 . S
C2330 H2345 0.930 . S
C2331 C2330 1.391 . S
C2331 C2333 1.387 . S
C2332 C2329 1.398 . S
C2332 C2333 1.380 . S
C2332 H2346 0.930 . S
C2333 C2331 1.387 . S
C2333 C2332 1.380 . S
C2333 H2347 0.930 . S
C2334 O2314 1.254 . S
C2334 O2315 1.268 . S
C2335 O2319 1.284 . S
C2335 O2322 1.250 1_556 S
C2336 Gd2269 2.828 1_554 S
C2336 O2318 1.258 . S
C2336 O2323 1.252 . S
C2336 C2337 1.497 . S
C2337 C2336 1.497 . S
C2337 C2338 1.395 . S
C2337 C2339 1.380 . S
C2338 C2337 1.395 . S
C2338 C2341 1.398 . S
C2338 H2348 0.930 . S
C2339 C2337 1.380 . S
C2339 C2340 1.391 . S
C2339 H2349 0.930 . S
C2340 C2339 1.391 . S
C2340 C2342 1.387 . S
C2341 C2338 1.398 . S
C2341 C2342 1.380 . S
C2341 H2350 0.930 . S
C2342 C2340 1.387 . S
C2342 C2341 1.380 . S
C2342 H2351 0.930 . S
C2343 O2320 1.254 . S
C2343 O2321 1.268 . S
H2344 C2329 0.930 . S
H2345 C2330 0.930 . S
H2346 C2332 0.930 . S
H2347 C2333 0.930 . S
H2348 C2338 0.930 . S
H2349 C2339 0.930 . S
H2350 C2341 0.930 . S
H2351 C2342 0.930 . S
Gd2352 N2383 2.661 1_455 S
Gd2352 N2389 2.601 1_455 S
Gd2352 O2396 2.545 1_455 S
Gd2352 O2397 2.606 . S
Gd2352 O2399 2.429 . S
Gd2352 O2400 2.545 . S
Gd2352 O2401 2.412 1_455 S
Gd2352 O2403 2.362 . S
Gd2352 O2404 2.324 1_455 S
Gd2352 C2411 2.828 1_455 S
Gd2353 N2362 2.661 . S
Gd2353 N2366 2.601 . S
Gd2353 O2397 2.362 . S
Gd2353 O2398 2.324 . S
Gd2353 O2402 2.545 . S
Gd2353 O2403 2.606 . S
Gd2353 O2405 2.429 . S
Gd2353 O2406 2.545 . S
Gd2353 O2407 2.412 . S
Gd2353 C2420 2.828 . S
C2354 C2357 1.417 . S
C2354 C2359 1.431 . S
C2354 C2360 1.412 . S
C2355 C2358 1.437 . S
C2355 C2359 1.317 . S
C2355 H2374 0.929 . S
C2356 C2357 1.426 . S
C2356 C2358 1.413 . S
C2356 N2366 1.359 . S
C2357 C2354 1.417 . S
C2357 C2356 1.426 . S
C2357 N2362 1.350 . S
C2358 C2355 1.437 . S
C2358 C2356 1.413 . S
C2358 C2368 1.391 . S
C2359 C2354 1.431 . S
C2359 C2355 1.317 . S
C2359 H2370 0.930 . S
C2360 C2354 1.412 . S
C2360 C2361 1.355 . S
C2360 H2372 0.930 . S
C2361 C2360 1.355 . S
C2361 C2363 1.402 . S
C2361 H2373 0.930 . S
N2362 Gd2353 2.661 . S
N2362 C2357 1.350 . S
N2362 C2363 1.307 . S
C2363 C2361 1.402 . S
C2363 N2362 1.307 . S
C2363 H2364 0.930 . S
H2364 C2363 0.930 . S
C2365 N2366 1.334 . S
C2365 C2367 1.394 . S
C2365 H2369 0.930 . S
N2366 Gd2353 2.601 . S
N2366 C2356 1.359 . S
N2366 C2365 1.334 . S
C2367 C2365 1.394 . S
C2367 C2368 1.359 . S
C2367 H2379 0.930 . S
C2368 C2358 1.391 . S
C2368 C2367 1.359 . S
C2368 H2380 0.929 . S
H2369 C2365 0.930 . S
H2370 C2359 0.930 . S
H2371 C2388 0.930 . S
H2372 C2360 0.930 . S
H2373 C2361 0.930 . S
H2374 C2355 0.929 . S
H2375 C2393 0.930 . S
H2376 C2384 0.930 . S
H2377 C2385 0.930 . S
H2378 C2409 0.929 . S
H2379 C2367 0.930 . S
H2380 C2368 0.929 . S
H2381 C2410 0.930 . S
H2382 C2391 0.930 1_455 S
N2383 Gd2352 2.661 1_655 S
N2383 C2387 1.350 . S
N2383 C2388 1.307 . S
C2384 H2376 0.930 . S
C2384 C2385 1.355 . S
C2384 C2386 1.412 . S
C2385 H2377 0.930 . S
C2385 C2384 1.355 . S
C2385 C2388 1.402 . S
C2386 C2384 1.412 . S
C2386 C2387 1.417 . S
C2386 C2410 1.431 . S
C2387 N2383 1.350 . S
C2387 C2386 1.417 . S
C2387 C2390 1.426 . S
C2388 H2371 0.930 . S
C2388 N2383 1.307 . S
C2388 C2385 1.402 . S
N2389 Gd2352 2.601 1_655 S
N2389 C2390 1.359 . S
N2389 C2393 1.334 1_655 S
C2390 C2387 1.426 . S
C2390 N2389 1.359 . S
C2390 C2394 1.413 . S
C2391 H2382 0.930 1_655 S
C2391 C2392 1.359 . S
C2391 C2393 1.394 1_655 S
C2392 C2391 1.359 . S
C2392 C2394 1.391 . S
C2392 H2395 0.929 . S
C2393 H2375 0.930 . S
C2393 N2389 1.334 1_455 S
C2393 C2391 1.394 1_455 S
C2394 C2390 1.413 . S
C2394 C2392 1.391 . S
C2394 C2409 1.437 . S
H2395 C2392 0.929 . S
O2396 Gd2352 2.545 1_655 S
O2396 C2411 1.258 . S
O2397 Gd2352 2.606 . S
O2397 Gd2353 2.362 . S
O2397 C2408 1.284 . S
O2398 Gd2353 2.324 . S
O2398 C2418 1.254 . S
O2399 Gd2352 2.429 . S
O2399 C2418 1.268 . S
O2400 Gd2352 2.545 . S
O2400 C2408 1.250 . S
O2401 Gd2352 2.412 1_655 S
O2401 C2411 1.252 . S
O2402 Gd2353 2.545 . S
O2402 C2420 1.258 . S
O2403 Gd2352 2.362 . S
O2403 Gd2353 2.606 . S
O2403 C2419 1.284 . S
O2404 Gd2352 2.324 1_655 S
O2404 C2427 1.254 1_655 S
O2405 Gd2353 2.429 . S
O2405 C2427 1.268 . S
O2406 Gd2353 2.545 . S
O2406 C2419 1.250 . S
O2407 Gd2353 2.412 . S
O2407 C2420 1.252 . S
C2408 O2397 1.284 . S
C2408 O2400 1.250 . S
C2409 H2378 0.929 . S
C2409 C2394 1.437 . S
C2409 C2410 1.317 . S
C2410 H2381 0.930 . S
C2410 C2386 1.431 . S
C2410 C2409 1.317 . S
C2411 Gd2352 2.828 1_655 S
C2411 O2396 1.258 . S
C2411 O2401 1.252 . S
C2411 C2412 1.497 . S
C2412 C2411 1.497 . S
C2412 C2413 1.395 . S
C2412 C2414 1.380 . S
C2413 C2412 1.395 . S
C2413 C2416 1.398 . S
C2413 H2428 0.930 . S
C2414 C2412 1.380 . S
C2414 C2415 1.391 . S
C2414 H2429 0.930 . S
C2415 C2414 1.391 . S
C2415 C2417 1.387 . S
C2416 C2413 1.398 . S
C2416 C2417 1.380 . S
C2416 H2430 0.930 . S
C2417 C2415 1.387 . S
C2417 C2416 1.380 . S
C2417 H2431 0.930 . S
C2418 O2398 1.254 . S
C2418 O2399 1.268 . S
C2419 O2403 1.284 . S
C2419 O2406 1.250 . S
C2420 Gd2353 2.828 . S
C2420 O2402 1.258 . S
C2420 O2407 1.252 . S
C2420 C2421 1.497 . S
C2421 C2420 1.497 . S
C2421 C2422 1.395 . S
C2421 C2423 1.380 . S
C2422 C2421 1.395 . S
C2422 C2425 1.398 . S
C2422 H2432 0.930 . S
C2423 C2421 1.380 . S
C2423 C2424 1.391 . S
C2423 H2433 0.930 . S
C2424 C2423 1.391 . S
C2424 C2426 1.387 . S
C2425 C2422 1.398 . S
C2425 C2426 1.380 . S
C2425 H2434 0.930 . S
C2426 C2424 1.387 . S
C2426 C2425 1.380 . S
C2426 H2435 0.930 . S
C2427 O2404 1.254 1_455 S
C2427 O2405 1.268 . S
H2428 C2413 0.930 . S
H2429 C2414 0.930 . S
H2430 C2416 0.930 . S
H2431 C2417 0.930 . S
H2432 C2422 0.930 . S
H2433 C2423 0.930 . S
H2434 C2425 0.930 . S
H2435 C2426 0.930 . S
Gd2436 N2467 2.661 . S
Gd2436 N2473 2.601 . S
Gd2436 O2480 2.545 . S
Gd2436 O2481 2.606 . S
Gd2436 O2483 2.429 . S
Gd2436 O2484 2.545 . S
Gd2436 O2485 2.412 . S
Gd2436 O2487 2.362 . S
Gd2436 O2488 2.324 . S
Gd2436 C2495 2.828 . S
Gd2437 N2446 2.661 . S
Gd2437 N2450 2.601 . S
Gd2437 O2481 2.362 . S
Gd2437 O2482 2.324 . S
Gd2437 O2486 2.545 . S
Gd2437 O2487 2.606 . S
Gd2437 O2489 2.429 . S
Gd2437 O2490 2.545 . S
Gd2437 O2491 2.412 . S
Gd2437 C2504 2.828 . S
C2438 C2441 1.417 . S
C2438 C2443 1.431 . S
C2438 C2444 1.412 . S
C2439 C2442 1.437 . S
C2439 C2443 1.317 . S
C2439 H2458 0.929 . S
C2440 C2441 1.426 . S
C2440 C2442 1.413 . S
C2440 N2450 1.359 . S
C2441 C2438 1.417 . S
C2441 C2440 1.426 . S
C2441 N2446 1.350 . S
C2442 C2439 1.437 . S
C2442 C2440 1.413 . S
C2442 C2452 1.391 . S
C2443 C2438 1.431 . S
C2443 C2439 1.317 . S
C2443 H2454 0.930 . S
C2444 C2438 1.412 . S
C2444 C2445 1.355 . S
C2444 H2456 0.930 . S
C2445 C2444 1.355 . S
C2445 C2447 1.402 . S
C2445 H2457 0.930 . S
N2446 Gd2437 2.661 . S
N2446 C2441 1.350 . S
N2446 C2447 1.307 . S
C2447 C2445 1.402 . S
C2447 N2446 1.307 . S
C2447 H2448 0.930 . S
H2448 C2447 0.930 . S
C2449 N2450 1.334 . S
C2449 C2451 1.394 . S
C2449 H2453 0.930 . S
N2450 Gd2437 2.601 . S
N2450 C2440 1.359 . S
N2450 C2449 1.334 . S
C2451 C2449 1.394 . S
C2451 C2452 1.359 . S
C2451 H2463 0.930 . S
C2452 C2442 1.391 . S
C2452 C2451 1.359 . S
C2452 H2464 0.929 . S
H2453 C2449 0.930 . S
H2454 C2443 0.930 . S
H2455 C2472 0.930 . S
H2456 C2444 0.930 . S
H2457 C2445 0.930 . S
H2458 C2439 0.929 . S
H2459 C2477 0.930 . S
H2460 C2468 0.930 . S
H2461 C2469 0.930 . S
H2462 C2493 0.929 . S
H2463 C2451 0.930 . S
H2464 C2452 0.929 . S
H2465 C2494 0.930 . S
H2466 C2475 0.930 . S
N2467 Gd2436 2.661 . S
N2467 C2471 1.350 . S
N2467 C2472 1.307 . S
C2468 H2460 0.930 . S
C2468 C2469 1.355 . S
C2468 C2470 1.412 . S
C2469 H2461 0.930 . S
C2469 C2468 1.355 . S
C2469 C2472 1.402 . S
C2470 C2468 1.412 . S
C2470 C2471 1.417 . S
C2470 C2494 1.431 . S
C2471 N2467 1.350 . S
C2471 C2470 1.417 . S
C2471 C2474 1.426 . S
C2472 H2455 0.930 . S
C2472 N2467 1.307 . S
C2472 C2469 1.402 . S
N2473 Gd2436 2.601 . S
N2473 C2474 1.359 . S
N2473 C2477 1.334 . S
C2474 C2471 1.426 . S
C2474 N2473 1.359 . S
C2474 C2478 1.413 . S
C2475 H2466 0.930 . S
C2475 C2476 1.359 . S
C2475 C2477 1.394 . S
C2476 C2475 1.359 . S
C2476 C2478 1.391 . S
C2476 H2479 0.929 . S
C2477 H2459 0.930 . S
C2477 N2473 1.334 . S
C2477 C2475 1.394 . S
C2478 C2474 1.413 . S
C2478 C2476 1.391 . S
C2478 C2493 1.437 . S
H2479 C2476 0.929 . S
O2480 Gd2436 2.545 . S
O2480 C2495 1.258 . S
O2481 Gd2436 2.606 . S
O2481 Gd2437 2.362 . S
O2481 C2492 1.284 . S
O2482 Gd2437 2.324 . S
O2482 C2502 1.254 . S
O2483 Gd2436 2.429 . S
O2483 C2502 1.268 . S
O2484 Gd2436 2.545 . S
O2484 C2492 1.250 . S
O2485 Gd2436 2.412 . S
O2485 C2495 1.252 . S
O2486 Gd2437 2.545 . S
O2486 C2504 1.258 . S
O2487 Gd2436 2.362 . S
O2487 Gd2437 2.606 . S
O2487 C2503 1.284 . S
O2488 Gd2436 2.324 . S
O2488 C2511 1.254 . S
O2489 Gd2437 2.429 . S
O2489 C2511 1.268 . S
O2490 Gd2437 2.545 . S
O2490 C2503 1.250 . S
O2491 Gd2437 2.412 . S
O2491 C2504 1.252 . S
C2492 O2481 1.284 . S
C2492 O2484 1.250 . S
C2493 H2462 0.929 . S
C2493 C2478 1.437 . S
C2493 C2494 1.317 . S
C2494 H2465 0.930 . S
C2494 C2470 1.431 . S
C2494 C2493 1.317 . S
C2495 Gd2436 2.828 . S
C2495 O2480 1.258 . S
C2495 O2485 1.252 . S
C2495 C2496 1.497 . S
C2496 C2495 1.497 . S
C2496 C2497 1.395 . S
C2496 C2498 1.380 . S
C2497 C2496 1.395 . S
C2497 C2500 1.398 . S
C2497 H2512 0.930 . S
C2498 C2496 1.380 . S
C2498 C2499 1.391 . S
C2498 H2513 0.930 . S
C2499 C2498 1.391 . S
C2499 C2501 1.387 . S
C2500 C2497 1.398 . S
C2500 C2501 1.380 . S
C2500 H2514 0.930 . S
C2501 C2499 1.387 . S
C2501 C2500 1.380 . S
C2501 H2515 0.930 . S
C2502 O2482 1.254 . S
C2502 O2483 1.268 . S
C2503 O2487 1.284 . S
C2503 O2490 1.250 . S
C2504 Gd2437 2.828 . S
C2504 O2486 1.258 . S
C2504 O2491 1.252 . S
C2504 C2505 1.497 . S
C2505 C2504 1.497 . S
C2505 C2506 1.395 . S
C2505 C2507 1.380 . S
C2506 C2505 1.395 . S
C2506 C2509 1.398 . S
C2506 H2516 0.930 . S
C2507 C2505 1.380 . S
C2507 C2508 1.391 . S
C2507 H2517 0.930 . S
C2508 C2507 1.391 . S
C2508 C2510 1.387 . S
C2509 C2506 1.398 . S
C2509 C2510 1.380 . S
C2509 H2518 0.930 . S
C2510 C2508 1.387 . S
C2510 C2509 1.380 . S
C2510 H2519 0.930 . S
C2511 O2488 1.254 . S
C2511 O2489 1.268 . S
H2512 C2497 0.930 . S
H2513 C2498 0.930 . S
H2514 C2500 0.930 . S
H2515 C2501 0.930 . S
H2516 C2506 0.930 . S
H2517 C2507 0.930 . S
H2518 C2509 0.930 . S
H2519 C2510 0.930 . S
Gd2520 N2551 2.661 . S
Gd2520 N2557 2.601 . S
Gd2520 O2564 2.545 . S
Gd2520 O2565 2.606 . S
Gd2520 O2567 2.429 . S
Gd2520 O2568 2.545 . S
Gd2520 O2569 2.412 . S
Gd2520 O2571 2.362 . S
Gd2520 O2572 2.324 . S
Gd2520 C2579 2.828 . S
Gd2521 N2530 2.661 . S
Gd2521 N2534 2.601 . S
Gd2521 O2565 2.362 . S
Gd2521 O2566 2.324 . S
Gd2521 O2570 2.545 . S
Gd2521 O2571 2.606 . S
Gd2521 O2573 2.429 . S
Gd2521 O2574 2.545 . S
Gd2521 O2575 2.412 . S
Gd2521 C2588 2.828 . S
C2522 C2525 1.417 . S
C2522 C2527 1.431 . S
C2522 C2528 1.412 . S
C2523 C2526 1.437 . S
C2523 C2527 1.317 . S
C2523 H2542 0.929 . S
C2524 C2525 1.426 . S
C2524 C2526 1.413 . S
C2524 N2534 1.359 . S
C2525 C2522 1.417 . S
C2525 C2524 1.426 . S
C2525 N2530 1.350 . S
C2526 C2523 1.437 . S
C2526 C2524 1.413 . S
C2526 C2536 1.391 . S
C2527 C2522 1.431 . S
C2527 C2523 1.317 . S
C2527 H2538 0.930 . S
C2528 C2522 1.412 . S
C2528 C2529 1.355 . S
C2528 H2540 0.930 . S
C2529 C2528 1.355 . S
C2529 C2531 1.402 . S
C2529 H2541 0.930 . S
N2530 Gd2521 2.661 . S
N2530 C2525 1.350 . S
N2530 C2531 1.307 . S
C2531 C2529 1.402 . S
C2531 N2530 1.307 . S
C2531 H2532 0.930 . S
H2532 C2531 0.930 . S
C2533 N2534 1.334 . S
C2533 C2535 1.394 . S
C2533 H2537 0.930 . S
N2534 Gd2521 2.601 . S
N2534 C2524 1.359 . S
N2534 C2533 1.334 . S
C2535 C2533 1.394 . S
C2535 C2536 1.359 . S
C2535 H2547 0.930 . S
C2536 C2526 1.391 . S
C2536 C2535 1.359 . S
C2536 H2548 0.929 . S
H2537 C2533 0.930 . S
H2538 C2527 0.930 . S
H2539 C2556 0.930 . S
H2540 C2528 0.930 . S
H2541 C2529 0.930 . S
H2542 C2523 0.929 . S
H2543 C2561 0.930 . S
H2544 C2552 0.930 . S
H2545 C2553 0.930 . S
H2546 C2577 0.929 . S
H2547 C2535 0.930 . S
H2548 C2536 0.929 . S
H2549 C2578 0.930 . S
H2550 C2559 0.930 . S
N2551 Gd2520 2.661 . S
N2551 C2555 1.350 . S
N2551 C2556 1.307 . S
C2552 H2544 0.930 . S
C2552 C2553 1.355 . S
C2552 C2554 1.412 . S
C2553 H2545 0.930 . S
C2553 C2552 1.355 . S
C2553 C2556 1.402 . S
C2554 C2552 1.412 . S
C2554 C2555 1.417 . S
C2554 C2578 1.431 . S
C2555 N2551 1.350 . S
C2555 C2554 1.417 . S
C2555 C2558 1.426 . S
C2556 H2539 0.930 . S
C2556 N2551 1.307 . S
C2556 C2553 1.402 . S
N2557 Gd2520 2.601 . S
N2557 C2558 1.359 . S
N2557 C2561 1.334 . S
C2558 C2555 1.426 . S
C2558 N2557 1.359 . S
C2558 C2562 1.413 . S
C2559 H2550 0.930 . S
C2559 C2560 1.359 . S
C2559 C2561 1.394 . S
C2560 C2559 1.359 . S
C2560 C2562 1.391 . S
C2560 H2563 0.929 . S
C2561 H2543 0.930 . S
C2561 N2557 1.334 . S
C2561 C2559 1.394 . S
C2562 C2558 1.413 . S
C2562 C2560 1.391 . S
C2562 C2577 1.437 . S
H2563 C2560 0.929 . S
O2564 Gd2520 2.545 . S
O2564 C2579 1.258 . S
O2565 Gd2520 2.606 . S
O2565 Gd2521 2.362 . S
O2565 C2576 1.284 . S
O2566 Gd2521 2.324 . S
O2566 C2586 1.254 . S
O2567 Gd2520 2.429 . S
O2567 C2586 1.268 . S
O2568 Gd2520 2.545 . S
O2568 C2576 1.250 . S
O2569 Gd2520 2.412 . S
O2569 C2579 1.252 . S
O2570 Gd2521 2.545 . S
O2570 C2588 1.258 . S
O2571 Gd2520 2.362 . S
O2571 Gd2521 2.606 . S
O2571 C2587 1.284 . S
O2572 Gd2520 2.324 . S
O2572 C2595 1.254 . S
O2573 Gd2521 2.429 . S
O2573 C2595 1.268 . S
O2574 Gd2521 2.545 . S
O2574 C2587 1.250 . S
O2575 Gd2521 2.412 . S
O2575 C2588 1.252 . S
C2576 O2565 1.284 . S
C2576 O2568 1.250 . S
C2577 H2546 0.929 . S
C2577 C2562 1.437 . S
C2577 C2578 1.317 . S
C2578 H2549 0.930 . S
C2578 C2554 1.431 . S
C2578 C2577 1.317 . S
C2579 Gd2520 2.828 . S
C2579 O2564 1.258 . S
C2579 O2569 1.252 . S
C2579 C2580 1.497 . S
C2580 C2579 1.497 . S
C2580 C2581 1.395 . S
C2580 C2582 1.380 . S
C2581 C2580 1.395 . S
C2581 C2584 1.398 . S
C2581 H2596 0.930 . S
C2582 C2580 1.380 . S
C2582 C2583 1.391 . S
C2582 H2597 0.930 . S
C2583 C2582 1.391 . S
C2583 C2585 1.387 . S
C2584 C2581 1.398 . S
C2584 C2585 1.380 . S
C2584 H2598 0.930 . S
C2585 C2583 1.387 . S
C2585 C2584 1.380 . S
C2585 H2599 0.930 . S
C2586 O2566 1.254 . S
C2586 O2567 1.268 . S
C2587 O2571 1.284 . S
C2587 O2574 1.250 . S
C2588 Gd2521 2.828 . S
C2588 O2570 1.258 . S
C2588 O2575 1.252 . S
C2588 C2589 1.497 . S
C2589 C2588 1.497 . S
C2589 C2590 1.395 . S
C2589 C2591 1.380 . S
C2590 C2589 1.395 . S
C2590 C2593 1.398 . S
C2590 H2600 0.930 . S
C2591 C2589 1.380 . S
C2591 C2592 1.391 . S
C2591 H2601 0.930 . S
C2592 C2591 1.391 . S
C2592 C2594 1.387 . S
C2593 C2590 1.398 . S
C2593 C2594 1.380 . S
C2593 H2602 0.930 . S
C2594 C2592 1.387 . S
C2594 C2593 1.380 . S
C2594 H2603 0.930 . S
C2595 O2572 1.254 . S
C2595 O2573 1.268 . S
H2596 C2581 0.930 . S
H2597 C2582 0.930 . S
H2598 C2584 0.930 . S
H2599 C2585 0.930 . S
H2600 C2590 0.930 . S
H2601 C2591 0.930 . S
H2602 C2593 0.930 . S
H2603 C2594 0.930 . S
Gd2604 N2635 2.661 . S
Gd2604 N2641 2.601 1_655 S
Gd2604 O2648 2.545 1_655 S
Gd2604 O2649 2.606 . S
Gd2604 O2651 2.429 . S
Gd2604 O2652 2.545 1_655 S
Gd2604 O2653 2.412 1_655 S
Gd2604 O2655 2.362 . S
Gd2604 O2656 2.324 . S
Gd2604 C2663 2.828 1_655 S
Gd2605 N2614 2.661 . S
Gd2605 N2618 2.601 . S
Gd2605 O2649 2.362 . S
Gd2605 O2650 2.324 . S
Gd2605 O2654 2.545 . S
Gd2605 O2655 2.606 . S
Gd2605 O2657 2.429 . S
Gd2605 O2658 2.545 . S
Gd2605 O2659 2.412 . S
Gd2605 C2672 2.828 . S
C2606 C2609 1.417 . S
C2606 C2611 1.431 . S
C2606 C2612 1.412 . S
C2607 C2610 1.437 . S
C2607 C2611 1.317 . S
C2607 H2626 0.929 . S
C2608 C2609 1.426 . S
C2608 C2610 1.413 . S
C2608 N2618 1.359 . S
C2609 C2606 1.417 . S
C2609 C2608 1.426 . S
C2609 N2614 1.350 . S
C2610 C2607 1.437 . S
C2610 C2608 1.413 . S
C2610 C2620 1.391 . S
C2611 C2606 1.431 . S
C2611 C2607 1.317 . S
C2611 H2622 0.930 . S
C2612 C2606 1.412 . S
C2612 C2613 1.355 . S
C2612 H2624 0.930 . S
C2613 C2612 1.355 . S
C2613 C2615 1.402 . S
C2613 H2625 0.930 1_655 S
N2614 Gd2605 2.661 . S
N2614 C2609 1.350 . S
N2614 C2615 1.307 . S
C2615 C2613 1.402 . S
C2615 N2614 1.307 . S
C2615 H2616 0.930 . S
H2616 C2615 0.930 . S
C2617 N2618 1.334 . S
C2617 C2619 1.394 . S
C2617 H2621 0.930 . S
N2618 Gd2605 2.601 . S
N2618 C2608 1.359 . S
N2618 C2617 1.334 . S
C2619 C2617 1.394 . S
C2619 C2620 1.359 . S
C2619 H2631 0.930 . S
C2620 C2610 1.391 . S
C2620 C2619 1.359 . S
C2620 H2632 0.929 . S
H2621 C2617 0.930 . S
H2622 C2611 0.930 . S
H2623 C2640 0.930 . S
H2624 C2612 0.930 . S
H2625 C2613 0.930 1_455 S
H2626 C2607 0.929 . S
H2627 C2645 0.930 . S
H2628 C2636 0.930 . S
H2629 C2637 0.930 . S
H2630 C2661 0.929 . S
H2631 C2619 0.930 . S
H2632 C2620 0.929 . S
H2633 C2662 0.930 . S
H2634 C2643 0.930 . S
N2635 Gd2604 2.661 . S
N2635 C2639 1.350 . S
N2635 C2640 1.307 . S
C2636 H2628 0.930 . S
C2636 C2637 1.355 . S
C2636 C2638 1.412 . S
C2637 H2629 0.930 . S
C2637 C2636 1.355 . S
C2637 C2640 1.402 . S
C2638 C2636 1.412 . S
C2638 C2639 1.417 . S
C2638 C2662 1.431 . S
C2639 N2635 1.350 . S
C2639 C2638 1.417 . S
C2639 C2642 1.426 . S
C2640 H2623 0.930 . S
C2640 N2635 1.307 . S
C2640 C2637 1.402 . S
N2641 Gd2604 2.601 1_455 S
N2641 C2642 1.359 1_455 S
N2641 C2645 1.334 . S
C2642 C2639 1.426 . S
C2642 N2641 1.359 1_655 S
C2642 C2646 1.409 1_655 S
C2643 H2634 0.930 . S
C2643 C2644 1.359 . S
C2643 C2645 1.394 . S
C2644 C2643 1.359 . S
C2644 C2646 1.403 . S
C2644 H2647 0.929 . S
C2645 H2627 0.930 . S
C2645 N2641 1.334 . S
C2645 C2643 1.394 . S
C2646 C2642 1.409 1_455 S
C2646 C2644 1.403 . S
C2646 C2661 1.430 1_455 S
H2647 C2644 0.929 . S
O2648 Gd2604 2.545 1_455 S
O2648 C2663 1.258 . S
O2649 Gd2604 2.606 . S
O2649 Gd2605 2.362 . S
O2649 C2660 1.284 . S
O2650 Gd2605 2.324 . S
O2650 C2670 1.254 . S
O2651 Gd2604 2.429 . S
O2651 C2670 1.268 . S
O2652 Gd2604 2.545 1_455 S
O2652 C2660 1.250 1_455 S
O2653 Gd2604 2.412 1_455 S
O2653 C2663 1.252 . S
O2654 Gd2605 2.545 . S
O2654 C2672 1.258 . S
O2655 Gd2604 2.362 . S
O2655 Gd2605 2.606 . S
O2655 C2671 1.284 . S
O2656 Gd2604 2.324 . S
O2656 C2679 1.254 . S
O2657 Gd2605 2.429 . S
O2657 C2679 1.268 . S
O2658 Gd2605 2.545 . S
O2658 C2671 1.250 . S
O2659 Gd2605 2.412 . S
O2659 C2672 1.252 . S
C2660 O2649 1.284 . S
C2660 O2652 1.250 1_655 S
C2661 H2630 0.929 . S
C2661 C2646 1.430 1_655 S
C2661 C2662 1.317 . S
C2662 H2633 0.930 . S
C2662 C2638 1.431 . S
C2662 C2661 1.317 . S
C2663 Gd2604 2.828 1_455 S
C2663 O2648 1.258 . S
C2663 O2653 1.252 . S
C2663 C2664 1.497 . S
C2664 C2663 1.497 . S
C2664 C2665 1.395 . S
C2664 C2666 1.380 . S
C2665 C2664 1.395 . S
C2665 C2668 1.398 . S
C2665 H2680 0.930 . S
C2666 C2664 1.380 . S
C2666 C2667 1.391 . S
C2666 H2681 0.930 . S
C2667 C2666 1.391 . S
C2667 C2669 1.387 . S
C2668 C2665 1.398 . S
C2668 C2669 1.380 . S
C2668 H2682 0.930 . S
C2669 C2667 1.387 . S
C2669 C2668 1.380 . S
C2669 H2683 0.930 . S
C2670 O2650 1.254 . S
C2670 O2651 1.268 . S
C2671 O2655 1.284 . S
C2671 O2658 1.250 . S
C2672 Gd2605 2.828 . S
C2672 O2654 1.258 . S
C2672 O2659 1.252 . S
C2672 C2673 1.497 . S
C2673 C2672 1.497 . S
C2673 C2674 1.395 . S
C2673 C2675 1.380 . S
C2674 C2673 1.395 . S
C2674 C2677 1.398 . S
C2674 H2684 0.930 . S
C2675 C2673 1.380 . S
C2675 C2676 1.391 . S
C2675 H2685 0.930 . S
C2676 C2675 1.391 . S
C2676 C2678 1.387 . S
C2677 C2674 1.398 . S
C2677 C2678 1.380 . S
C2677 H2686 0.930 . S
C2678 C2676 1.387 . S
C2678 C2677 1.380 . S
C2678 H2687 0.930 . S
C2679 O2656 1.254 . S
C2679 O2657 1.268 . S
H2680 C2665 0.930 . S
H2681 C2666 0.930 . S
H2682 C2668 0.930 . S
H2683 C2669 0.930 . S
H2684 C2674 0.930 . S
H2685 C2675 0.930 . S
H2686 C2677 0.930 . S
H2687 C2678 0.930 . S
Gd2688 N2719 2.661 . S
Gd2688 N2725 2.601 . S
Gd2688 O2732 2.545 . S
Gd2688 O2733 2.606 . S
Gd2688 O2735 2.429 . S
Gd2688 O2736 2.545 . S
Gd2688 O2737 2.412 . S
Gd2688 O2739 2.362 . S
Gd2688 O2740 2.324 . S
Gd2688 C2747 2.828 . S
Gd2689 N2698 2.661 . S
Gd2689 N2702 2.601 . S
Gd2689 O2733 2.362 . S
Gd2689 O2734 2.324 . S
Gd2689 O2738 2.545 . S
Gd2689 O2739 2.606 . S
Gd2689 O2741 2.429 . S
Gd2689 O2742 2.545 . S
Gd2689 O2743 2.412 . S
Gd2689 C2756 2.828 . S
C2690 C2693 1.417 . S
C2690 C2695 1.431 . S
C2690 C2696 1.412 . S
C2691 C2694 1.437 . S
C2691 C2695 1.317 . S
C2691 H2710 0.929 . S
C2692 C2693 1.426 . S
C2692 C2694 1.413 . S
C2692 N2702 1.359 . S
C2693 C2690 1.417 . S
C2693 C2692 1.426 . S
C2693 N2698 1.350 . S
C2694 C2691 1.437 . S
C2694 C2692 1.413 . S
C2694 C2704 1.391 . S
C2695 C2690 1.431 . S
C2695 C2691 1.317 . S
C2695 H2706 0.930 . S
C2696 C2690 1.412 . S
C2696 C2697 1.355 . S
C2696 H2708 0.930 . S
C2697 C2696 1.355 . S
C2697 C2699 1.402 . S
C2697 H2709 0.930 . S
N2698 Gd2689 2.661 . S
N2698 C2693 1.350 . S
N2698 C2699 1.307 . S
C2699 C2697 1.402 . S
C2699 N2698 1.307 . S
C2699 H2700 0.930 . S
H2700 C2699 0.930 . S
C2701 N2702 1.334 . S
C2701 C2703 1.394 . S
C2701 H2705 0.930 . S
N2702 Gd2689 2.601 . S
N2702 C2692 1.359 . S
N2702 C2701 1.334 . S
C2703 C2701 1.394 . S
C2703 C2704 1.359 . S
C2703 H2715 0.930 . S
C2704 C2694 1.391 . S
C2704 C2703 1.359 . S
C2704 H2716 0.929 . S
H2705 C2701 0.930 . S
H2706 C2695 0.930 . S
H2707 C2724 0.930 . S
H2708 C2696 0.930 . S
H2709 C2697 0.930 . S
H2710 C2691 0.929 . S
H2711 C2729 0.930 . S
H2712 C2720 0.930 . S
H2713 C2721 0.930 . S
H2714 C2745 0.929 . S
H2715 C2703 0.930 . S
H2716 C2704 0.929 . S
H2717 C2746 0.930 . S
H2718 C2727 0.930 . S
N2719 Gd2688 2.661 . S
N2719 C2723 1.350 . S
N2719 C2724 1.307 . S
C2720 H2712 0.930 . S
C2720 C2721 1.355 . S
C2720 C2722 1.412 . S
C2721 H2713 0.930 . S
C2721 C2720 1.355 . S
C2721 C2724 1.402 . S
C2722 C2720 1.412 . S
C2722 C2723 1.417 . S
C2722 C2746 1.431 . S
C2723 N2719 1.350 . S
C2723 C2722 1.417 . S
C2723 C2726 1.426 . S
C2724 H2707 0.930 . S
C2724 N2719 1.307 . S
C2724 C2721 1.402 . S
N2725 Gd2688 2.601 . S
N2725 C2726 1.359 . S
N2725 C2729 1.334 . S
C2726 C2723 1.426 . S
C2726 N2725 1.359 . S
C2726 C2730 1.413 . S
C2727 H2718 0.930 . S
C2727 C2728 1.359 . S
C2727 C2729 1.394 . S
C2728 C2727 1.359 . S
C2728 C2730 1.391 . S
C2728 H2731 0.929 . S
C2729 H2711 0.930 . S
C2729 N2725 1.334 . S
C2729 C2727 1.394 . S
C2730 C2726 1.413 . S
C2730 C2728 1.391 . S
C2730 C2745 1.437 . S
H2731 C2728 0.929 . S
O2732 Gd2688 2.545 . S
O2732 C2747 1.258 . S
O2733 Gd2688 2.606 . S
O2733 Gd2689 2.362 . S
O2733 C2744 1.284 . S
O2734 Gd2689 2.324 . S
O2734 C2754 1.254 . S
O2735 Gd2688 2.429 . S
O2735 C2754 1.268 . S
O2736 Gd2688 2.545 . S
O2736 C2744 1.250 . S
O2737 Gd2688 2.412 . S
O2737 C2747 1.252 . S
O2738 Gd2689 2.545 . S
O2738 C2756 1.258 . S
O2739 Gd2688 2.362 . S
O2739 Gd2689 2.606 . S
O2739 C2755 1.284 . S
O2740 Gd2688 2.324 . S
O2740 C2763 1.254 . S
O2741 Gd2689 2.429 . S
O2741 C2763 1.268 . S
O2742 Gd2689 2.545 . S
O2742 C2755 1.250 . S
O2743 Gd2689 2.412 . S
O2743 C2756 1.252 . S
C2744 O2733 1.284 . S
C2744 O2736 1.250 . S
C2745 H2714 0.929 . S
C2745 C2730 1.437 . S
C2745 C2746 1.317 . S
C2746 H2717 0.930 . S
C2746 C2722 1.431 . S
C2746 C2745 1.317 . S
C2747 Gd2688 2.828 . S
C2747 O2732 1.258 . S
C2747 O2737 1.252 . S
C2747 C2748 1.497 . S
C2748 C2747 1.497 . S
C2748 C2749 1.395 . S
C2748 C2750 1.380 . S
C2749 C2748 1.395 . S
C2749 C2752 1.398 . S
C2749 H2764 0.930 . S
C2750 C2748 1.380 . S
C2750 C2751 1.391 . S
C2750 H2765 0.930 . S
C2751 C2750 1.391 . S
C2751 C2753 1.387 . S
C2752 C2749 1.398 . S
C2752 C2753 1.380 . S
C2752 H2766 0.930 . S
C2753 C2751 1.387 . S
C2753 C2752 1.380 . S
C2753 H2767 0.930 . S
C2754 O2734 1.254 . S
C2754 O2735 1.268 . S
C2755 O2739 1.284 . S
C2755 O2742 1.250 . S
C2756 Gd2689 2.828 . S
C2756 O2738 1.258 . S
C2756 O2743 1.252 . S
C2756 C2757 1.497 . S
C2757 C2756 1.497 . S
C2757 C2758 1.395 . S
C2757 C2759 1.380 . S
C2758 C2757 1.395 . S
C2758 C2761 1.398 . S
C2758 H2768 0.930 . S
C2759 C2757 1.380 . S
C2759 C2760 1.391 . S
C2759 H2769 0.930 . S
C2760 C2759 1.391 . S
C2760 C2762 1.387 . S
C2761 C2758 1.398 . S
C2761 C2762 1.380 . S
C2761 H2770 0.930 . S
C2762 C2760 1.387 . S
C2762 C2761 1.380 . S
C2762 H2771 0.930 . S
C2763 O2740 1.254 . S
C2763 O2741 1.268 . S
H2764 C2749 0.930 . S
H2765 C2750 0.930 . S
H2766 C2752 0.930 . S
H2767 C2753 0.930 . S
H2768 C2758 0.930 . S
H2769 C2759 0.930 . S
H2770 C2761 0.930 . S
H2771 C2762 0.930 . S
Gd2772 N2803 2.661 . S
Gd2772 N2809 2.601 1_556 S
Gd2772 O2816 2.545 1_556 S
Gd2772 O2817 2.606 . S
Gd2772 O2819 2.429 . S
Gd2772 O2820 2.545 1_556 S
Gd2772 O2821 2.412 1_556 S
Gd2772 O2823 2.362 . S
Gd2772 O2824 2.324 . S
Gd2772 C2831 2.828 1_556 S
Gd2773 N2782 2.661 . S
Gd2773 N2786 2.601 . S
Gd2773 O2817 2.362 . S
Gd2773 O2818 2.324 . S
Gd2773 O2822 2.545 . S
Gd2773 O2823 2.606 . S
Gd2773 O2825 2.429 . S
Gd2773 O2826 2.545 . S
Gd2773 O2827 2.412 . S
Gd2773 C2840 2.828 . S
C2774 C2777 1.417 . S
C2774 C2779 1.431 . S
C2774 C2780 1.412 . S
C2775 C2778 1.437 . S
C2775 C2779 1.317 . S
C2775 H2794 0.929 . S
C2776 C2777 1.426 . S
C2776 C2778 1.413 . S
C2776 N2786 1.359 . S
C2777 C2774 1.417 . S
C2777 C2776 1.426 . S
C2777 N2782 1.350 . S
C2778 C2775 1.437 . S
C2778 C2776 1.413 . S
C2778 C2788 1.391 . S
C2779 C2774 1.431 . S
C2779 C2775 1.317 . S
C2779 H2790 0.930 . S
C2780 C2774 1.412 . S
C2780 C2781 1.355 . S
C2780 H2792 0.930 . S
C2781 C2780 1.355 . S
C2781 C2783 1.402 . S
C2781 H2793 0.930 1_556 S
N2782 Gd2773 2.661 . S
N2782 C2777 1.350 . S
N2782 C2783 1.307 . S
C2783 C2781 1.402 . S
C2783 N2782 1.307 . S
C2783 H2784 0.930 . S
H2784 C2783 0.930 . S
C2785 N2786 1.334 . S
C2785 C2787 1.394 . S
C2785 H2789 0.930 . S
N2786 Gd2773 2.601 . S
N2786 C2776 1.359 . S
N2786 C2785 1.334 . S
C2787 C2785 1.394 . S
C2787 C2788 1.359 . S
C2787 H2799 0.930 . S
C2788 C2778 1.391 . S
C2788 C2787 1.359 . S
C2788 H2800 0.929 . S
H2789 C2785 0.930 . S
H2790 C2779 0.930 . S
H2791 C2808 0.930 . S
H2792 C2780 0.930 . S
H2793 C2781 0.930 1_554 S
H2794 C2775 0.929 . S
H2795 C2813 0.930 . S
H2796 C2804 0.930 . S
H2797 C2805 0.930 . S
H2798 C2829 0.929 . S
H2799 C2787 0.930 . S
H2800 C2788 0.929 . S
H2801 C2830 0.930 . S
H2802 C2811 0.930 . S
N2803 Gd2772 2.661 . S
N2803 C2807 1.350 . S
N2803 C2808 1.307 . S
C2804 H2796 0.930 . S
C2804 C2805 1.355 . S
C2804 C2806 1.412 . S
C2805 H2797 0.930 . S
C2805 C2804 1.355 . S
C2805 C2808 1.402 . S
C2806 C2804 1.412 . S
C2806 C2807 1.417 . S
C2806 C2830 1.431 . S
C2807 N2803 1.350 . S
C2807 C2806 1.417 . S
C2807 C2810 1.426 . S
C2808 H2791 0.930 . S
C2808 N2803 1.307 . S
C2808 C2805 1.402 . S
N2809 Gd2772 2.601 1_554 S
N2809 C2810 1.359 1_554 S
N2809 C2813 1.334 . S
C2810 C2807 1.426 . S
C2810 N2809 1.359 1_556 S
C2810 C2814 1.413 . S
C2811 H2802 0.930 . S
C2811 C2812 1.359 . S
C2811 C2813 1.394 . S
C2812 C2811 1.359 . S
C2812 C2814 1.392 1_554 S
C2812 H2815 0.929 . S
C2813 H2795 0.930 . S
C2813 N2809 1.334 . S
C2813 C2811 1.394 . S
C2814 C2810 1.413 . S
C2814 C2812 1.392 1_556 S
C2814 C2829 1.436 . S
H2815 C2812 0.929 . S
O2816 Gd2772 2.545 1_554 S
O2816 C2831 1.258 . S
O2817 Gd2772 2.606 . S
O2817 Gd2773 2.362 . S
O2817 C2828 1.284 . S
O2818 Gd2773 2.324 . S
O2818 C2838 1.254 . S
O2819 Gd2772 2.429 . S
O2819 C2838 1.268 . S
O2820 Gd2772 2.545 1_554 S
O2820 C2828 1.250 1_554 S
O2821 Gd2772 2.412 1_554 S
O2821 C2831 1.252 . S
O2822 Gd2773 2.545 . S
O2822 C2840 1.258 . S
O2823 Gd2772 2.362 . S
O2823 Gd2773 2.606 . S
O2823 C2839 1.284 . S
O2824 Gd2772 2.324 . S
O2824 C2847 1.254 . S
O2825 Gd2773 2.429 . S
O2825 C2847 1.268 . S
O2826 Gd2773 2.545 . S
O2826 C2839 1.250 . S
O2827 Gd2773 2.412 . S
O2827 C2840 1.252 . S
C2828 O2817 1.284 . S
C2828 O2820 1.250 1_556 S
C2829 H2798 0.929 . S
C2829 C2814 1.436 . S
C2829 C2830 1.317 . S
C2830 H2801 0.930 . S
C2830 C2806 1.431 . S
C2830 C2829 1.317 . S
C2831 Gd2772 2.828 1_554 S
C2831 O2816 1.258 . S
C2831 O2821 1.252 . S
C2831 C2832 1.497 . S
C2832 C2831 1.497 . S
C2832 C2833 1.395 . S
C2832 C2834 1.380 . S
C2833 C2832 1.395 . S
C2833 C2836 1.398 . S
C2833 H2848 0.930 . S
C2834 C2832 1.380 . S
C2834 C2835 1.391 . S
C2834 H2849 0.930 . S
C2835 C2834 1.391 . S
C2835 C2837 1.387 . S
C2836 C2833 1.398 . S
C2836 C2837 1.380 . S
C2836 H2850 0.930 . S
C2837 C2835 1.387 . S
C2837 C2836 1.380 . S
C2837 H2851 0.930 . S
C2838 O2818 1.254 . S
C2838 O2819 1.268 . S
C2839 O2823 1.284 . S
C2839 O2826 1.250 . S
C2840 Gd2773 2.828 . S
C2840 O2822 1.258 . S
C2840 O2827 1.252 . S
C2840 C2841 1.497 . S
C2841 C2840 1.497 . S
C2841 C2842 1.395 . S
C2841 C2843 1.380 . S
C2842 C2841 1.395 . S
C2842 C2845 1.398 . S
C2842 H2852 0.930 . S
C2843 C2841 1.380 . S
C2843 C2844 1.391 . S
C2843 H2853 0.930 . S
C2844 C2843 1.391 . S
C2844 C2846 1.387 . S
C2845 C2842 1.398 . S
C2845 C2846 1.380 . S
C2845 H2854 0.930 . S
C2846 C2844 1.387 . S
C2846 C2845 1.380 . S
C2846 H2855 0.930 . S
C2847 O2824 1.254 . S
C2847 O2825 1.268 . S
H2848 C2833 0.930 . S
H2849 C2834 0.930 . S
H2850 C2836 0.930 . S
H2851 C2837 0.930 . S
H2852 C2842 0.930 . S
H2853 C2843 0.930 . S
H2854 C2845 0.930 . S
H2855 C2846 0.930 . S
Gd2856 N2887 2.661 . S
Gd2856 N2893 2.601 . S
Gd2856 O2900 2.545 . S
Gd2856 O2901 2.606 . S
Gd2856 O2903 2.429 . S
Gd2856 O2904 2.545 . S
Gd2856 O2905 2.412 . S
Gd2856 O2907 2.362 . S
Gd2856 O2908 2.324 . S
Gd2856 C2915 2.828 . S
Gd2857 N2866 2.661 . S
Gd2857 N2870 2.601 . S
Gd2857 O2901 2.362 . S
Gd2857 O2902 2.324 . S
Gd2857 O2906 2.545 . S
Gd2857 O2907 2.606 . S
Gd2857 O2909 2.429 . S
Gd2857 O2910 2.545 . S
Gd2857 O2911 2.412 . S
Gd2857 C2924 2.828 . S
C2858 C2861 1.417 . S
C2858 C2863 1.431 . S
C2858 C2864 1.412 . S
C2859 C2862 1.437 . S
C2859 C2863 1.317 . S
C2859 H2878 0.929 . S
C2860 C2861 1.426 . S
C2860 C2862 1.413 . S
C2860 N2870 1.359 . S
C2861 C2858 1.417 . S
C2861 C2860 1.426 . S
C2861 N2866 1.350 . S
C2862 C2859 1.437 . S
C2862 C2860 1.413 . S
C2862 C2872 1.391 . S
C2863 C2858 1.431 . S
C2863 C2859 1.317 . S
C2863 H2874 0.930 . S
C2864 C2858 1.412 . S
C2864 C2865 1.355 . S
C2864 H2876 0.930 . S
C2865 C2864 1.355 . S
C2865 C2867 1.402 . S
C2865 H2877 0.930 . S
N2866 Gd2857 2.661 . S
N2866 C2861 1.350 . S
N2866 C2867 1.307 . S
C2867 C2865 1.402 . S
C2867 N2866 1.307 . S
C2867 H2868 0.930 . S
H2868 C2867 0.930 . S
C2869 N2870 1.334 . S
C2869 C2871 1.394 . S
C2869 H2873 0.930 . S
N2870 Gd2857 2.601 . S
N2870 C2860 1.359 . S
N2870 C2869 1.334 . S
C2871 C2869 1.394 . S
C2871 C2872 1.359 . S
C2871 H2883 0.930 . S
C2872 C2862 1.391 . S
C2872 C2871 1.359 . S
C2872 H2884 0.929 . S
H2873 C2869 0.930 . S
H2874 C2863 0.930 . S
H2875 C2892 0.930 . S
H2876 C2864 0.930 . S
H2877 C2865 0.930 . S
H2878 C2859 0.929 . S
H2879 C2897 0.930 . S
H2880 C2888 0.930 . S
H2881 C2889 0.930 . S
H2882 C2913 0.929 . S
H2883 C2871 0.930 . S
H2884 C2872 0.929 . S
H2885 C2914 0.930 . S
H2886 C2895 0.930 . S
N2887 Gd2856 2.661 . S
N2887 C2891 1.350 . S
N2887 C2892 1.307 . S
C2888 H2880 0.930 . S
C2888 C2889 1.355 . S
C2888 C2890 1.412 . S
C2889 H2881 0.930 . S
C2889 C2888 1.355 . S
C2889 C2892 1.402 . S
C2890 C2888 1.412 . S
C2890 C2891 1.417 . S
C2890 C2914 1.431 . S
C2891 N2887 1.350 . S
C2891 C2890 1.417 . S
C2891 C2894 1.426 . S
C2892 H2875 0.930 . S
C2892 N2887 1.307 . S
C2892 C2889 1.402 . S
N2893 Gd2856 2.601 . S
N2893 C2894 1.359 . S
N2893 C2897 1.334 . S
C2894 C2891 1.426 . S
C2894 N2893 1.359 . S
C2894 C2898 1.413 . S
C2895 H2886 0.930 . S
C2895 C2896 1.359 . S
C2895 C2897 1.394 . S
C2896 C2895 1.359 . S
C2896 C2898 1.391 . S
C2896 H2899 0.929 . S
C2897 H2879 0.930 . S
C2897 N2893 1.334 . S
C2897 C2895 1.394 . S
C2898 C2894 1.413 . S
C2898 C2896 1.391 . S
C2898 C2913 1.437 . S
H2899 C2896 0.929 . S
O2900 Gd2856 2.545 . S
O2900 C2915 1.258 . S
O2901 Gd2856 2.606 . S
O2901 Gd2857 2.362 . S
O2901 C2912 1.284 . S
O2902 Gd2857 2.324 . S
O2902 C2922 1.254 . S
O2903 Gd2856 2.429 . S
O2903 C2922 1.268 . S
O2904 Gd2856 2.545 . S
O2904 C2912 1.250 . S
O2905 Gd2856 2.412 . S
O2905 C2915 1.252 . S
O2906 Gd2857 2.545 . S
O2906 C2924 1.258 . S
O2907 Gd2856 2.362 . S
O2907 Gd2857 2.606 . S
O2907 C2923 1.284 . S
O2908 Gd2856 2.324 . S
O2908 C2931 1.254 . S
O2909 Gd2857 2.429 . S
O2909 C2931 1.268 . S
O2910 Gd2857 2.545 . S
O2910 C2923 1.250 . S
O2911 Gd2857 2.412 . S
O2911 C2924 1.252 . S
C2912 O2901 1.284 . S
C2912 O2904 1.250 . S
C2913 H2882 0.929 . S
C2913 C2898 1.437 . S
C2913 C2914 1.317 . S
C2914 H2885 0.930 . S
C2914 C2890 1.431 . S
C2914 C2913 1.317 . S
C2915 Gd2856 2.828 . S
C2915 O2900 1.258 . S
C2915 O2905 1.252 . S
C2915 C2916 1.497 . S
C2916 C2915 1.497 . S
C2916 C2917 1.395 . S
C2916 C2918 1.380 . S
C2917 C2916 1.395 . S
C2917 C2920 1.398 . S
C2917 H2932 0.930 . S
C2918 C2916 1.380 . S
C2918 C2919 1.391 . S
C2918 H2933 0.930 . S
C2919 C2918 1.391 . S
C2919 C2921 1.387 . S
C2920 C2917 1.398 . S
C2920 C2921 1.380 . S
C2920 H2934 0.930 . S
C2921 C2919 1.387 . S
C2921 C2920 1.380 . S
C2921 H2935 0.930 . S
C2922 O2902 1.254 . S
C2922 O2903 1.268 . S
C2923 O2907 1.284 . S
C2923 O2910 1.250 . S
C2924 Gd2857 2.828 . S
C2924 O2906 1.258 . S
C2924 O2911 1.252 . S
C2924 C2925 1.497 . S
C2925 C2924 1.497 . S
C2925 C2926 1.395 . S
C2925 C2927 1.380 . S
C2926 C2925 1.395 . S
C2926 C2929 1.398 . S
C2926 H2936 0.930 . S
C2927 C2925 1.380 . S
C2927 C2928 1.391 . S
C2927 H2937 0.930 . S
C2928 C2927 1.391 . S
C2928 C2930 1.387 . S
C2929 C2926 1.398 . S
C2929 C2930 1.380 . S
C2929 H2938 0.930 . S
C2930 C2928 1.387 . S
C2930 C2929 1.380 . S
C2930 H2939 0.930 . S
C2931 O2908 1.254 . S
C2931 O2909 1.268 . S
H2932 C2917 0.930 . S
H2933 C2918 0.930 . S
H2934 C2920 0.930 . S
H2935 C2921 0.930 . S
H2936 C2926 0.930 . S
H2937 C2927 0.930 . S
H2938 C2929 0.930 . S
H2939 C2930 0.930 . S
Gd2940 N2971 2.661 . S
Gd2940 N2977 2.601 . S
Gd2940 O2984 2.545 . S
Gd2940 O2985 2.606 . S
Gd2940 O2987 2.429 . S
Gd2940 O2988 2.545 . S
Gd2940 O2989 2.412 . S
Gd2940 O2991 2.362 . S
Gd2940 O2992 2.324 . S
Gd2940 C2999 2.828 . S
Gd2941 N2950 2.661 . S
Gd2941 N2954 2.601 . S
Gd2941 O2985 2.362 . S
Gd2941 O2986 2.324 . S
Gd2941 O2990 2.545 . S
Gd2941 O2991 2.606 . S
Gd2941 O2993 2.429 . S
Gd2941 O2994 2.545 . S
Gd2941 O2995 2.412 . S
Gd2941 C3008 2.828 . S
C2942 C2945 1.417 . S
C2942 C2947 1.431 . S
C2942 C2948 1.412 . S
C2943 C2946 1.437 . S
C2943 C2947 1.317 . S
C2943 H2962 0.929 . S
C2944 C2945 1.426 . S
C2944 C2946 1.413 . S
C2944 N2954 1.359 . S
C2945 C2942 1.417 . S
C2945 C2944 1.426 . S
C2945 N2950 1.350 . S
C2946 C2943 1.437 . S
C2946 C2944 1.413 . S
C2946 C2956 1.391 . S
C2947 C2942 1.431 . S
C2947 C2943 1.317 . S
C2947 H2958 0.930 . S
C2948 C2942 1.412 . S
C2948 C2949 1.355 . S
C2948 H2960 0.930 . S
C2949 C2948 1.355 . S
C2949 C2951 1.402 . S
C2949 H2961 0.930 . S
N2950 Gd2941 2.661 . S
N2950 C2945 1.350 . S
N2950 C2951 1.307 . S
C2951 C2949 1.402 . S
C2951 N2950 1.307 . S
C2951 H2952 0.930 . S
H2952 C2951 0.930 . S
C2953 N2954 1.334 . S
C2953 C2955 1.394 . S
C2953 H2957 0.930 . S
N2954 Gd2941 2.601 . S
N2954 C2944 1.359 . S
N2954 C2953 1.334 . S
C2955 C2953 1.394 . S
C2955 C2956 1.359 . S
C2955 H2967 0.930 . S
C2956 C2946 1.391 . S
C2956 C2955 1.359 . S
C2956 H2968 0.929 . S
H2957 C2953 0.930 . S
H2958 C2947 0.930 . S
H2959 C2976 0.930 . S
H2960 C2948 0.930 . S
H2961 C2949 0.930 . S
H2962 C2943 0.929 . S
H2963 C2981 0.930 . S
H2964 C2972 0.930 . S
H2965 C2973 0.930 . S
H2966 C2997 0.929 . S
H2967 C2955 0.930 . S
H2968 C2956 0.929 . S
H2969 C2998 0.930 . S
H2970 C2979 0.930 . S
N2971 Gd2940 2.661 . S
N2971 C2975 1.350 . S
N2971 C2976 1.307 . S
C2972 H2964 0.930 . S
C2972 C2973 1.355 . S
C2972 C2974 1.412 . S
C2973 H2965 0.930 . S
C2973 C2972 1.355 . S
C2973 C2976 1.402 . S
C2974 C2972 1.412 . S
C2974 C2975 1.417 . S
C2974 C2998 1.431 . S
C2975 N2971 1.350 . S
C2975 C2974 1.417 . S
C2975 C2978 1.426 . S
C2976 H2959 0.930 . S
C2976 N2971 1.307 . S
C2976 C2973 1.402 . S
N2977 Gd2940 2.601 . S
N2977 C2978 1.359 . S
N2977 C2981 1.334 . S
C2978 C2975 1.426 . S
C2978 N2977 1.359 . S
C2978 C2982 1.413 . S
C2979 H2970 0.930 . S
C2979 C2980 1.359 . S
C2979 C2981 1.394 . S
C2980 C2979 1.359 . S
C2980 C2982 1.391 . S
C2980 H2983 0.929 . S
C2981 H2963 0.930 . S
C2981 N2977 1.334 . S
C2981 C2979 1.394 . S
C2982 C2978 1.413 . S
C2982 C2980 1.391 . S
C2982 C2997 1.437 . S
H2983 C2980 0.929 . S
O2984 Gd2940 2.545 . S
O2984 C2999 1.258 . S
O2985 Gd2940 2.606 . S
O2985 Gd2941 2.362 . S
O2985 C2996 1.284 . S
O2986 Gd2941 2.324 . S
O2986 C3006 1.254 . S
O2987 Gd2940 2.429 . S
O2987 C3006 1.268 . S
O2988 Gd2940 2.545 . S
O2988 C2996 1.250 . S
O2989 Gd2940 2.412 . S
O2989 C2999 1.252 . S
O2990 Gd2941 2.545 . S
O2990 C3008 1.258 . S
O2991 Gd2940 2.362 . S
O2991 Gd2941 2.606 . S
O2991 C3007 1.284 . S
O2992 Gd2940 2.324 . S
O2992 C3015 1.254 . S
O2993 Gd2941 2.429 . S
O2993 C3015 1.268 . S
O2994 Gd2941 2.545 . S
O2994 C3007 1.250 . S
O2995 Gd2941 2.412 . S
O2995 C3008 1.252 . S
C2996 O2985 1.284 . S
C2996 O2988 1.250 . S
C2997 H2966 0.929 . S
C2997 C2982 1.437 . S
C2997 C2998 1.317 . S
C2998 H2969 0.930 . S
C2998 C2974 1.431 . S
C2998 C2997 1.317 . S
C2999 Gd2940 2.828 . S
C2999 O2984 1.258 . S
C2999 O2989 1.252 . S
C2999 C3000 1.497 . S
C3000 C2999 1.497 . S
C3000 C3001 1.395 . S
C3000 C3002 1.380 . S
C3001 C3000 1.395 . S
C3001 C3004 1.398 . S
C3001 H3016 0.930 . S
C3002 C3000 1.380 . S
C3002 C3003 1.391 . S
C3002 H3017 0.930 . S
C3003 C3002 1.391 . S
C3003 C3005 1.387 . S
C3004 C3001 1.398 . S
C3004 C3005 1.380 . S
C3004 H3018 0.930 . S
C3005 C3003 1.387 . S
C3005 C3004 1.380 . S
C3005 H3019 0.930 . S
C3006 O2986 1.254 . S
C3006 O2987 1.268 . S
C3007 O2991 1.284 . S
C3007 O2994 1.250 . S
C3008 Gd2941 2.828 . S
C3008 O2990 1.258 . S
C3008 O2995 1.252 . S
C3008 C3009 1.497 . S
C3009 C3008 1.497 . S
C3009 C3010 1.395 . S
C3009 C3011 1.380 . S
C3010 C3009 1.395 . S
C3010 C3013 1.398 . S
C3010 H3020 0.930 . S
C3011 C3009 1.380 . S
C3011 C3012 1.391 . S
C3011 H3021 0.930 . S
C3012 C3011 1.391 . S
C3012 C3014 1.387 . S
C3013 C3010 1.398 . S
C3013 C3014 1.380 . S
C3013 H3022 0.930 . S
C3014 C3012 1.387 . S
C3014 C3013 1.380 . S
C3014 H3023 0.930 . S
C3015 O2992 1.254 . S
C3015 O2993 1.268 . S
H3016 C3001 0.930 . S
H3017 C3002 0.930 . S
H3018 C3004 0.930 . S
H3019 C3005 0.930 . S
H3020 C3010 0.930 . S
H3021 C3011 0.930 . S
H3022 C3013 0.930 . S
H3023 C3014 0.930 . S
Gd3024 N3055 2.661 . S
Gd3024 N3061 2.601 . S
Gd3024 O3068 2.545 . S
Gd3024 O3069 2.606 . S
Gd3024 O3071 2.429 . S
Gd3024 O3072 2.545 . S
Gd3024 O3073 2.412 . S
Gd3024 O3075 2.362 . S
Gd3024 O3076 2.324 . S
Gd3024 C3083 2.828 . S
Gd3025 N3034 2.661 . S
Gd3025 N3038 2.601 . S
Gd3025 O3069 2.362 . S
Gd3025 O3070 2.324 . S
Gd3025 O3074 2.545 . S
Gd3025 O3075 2.606 . S
Gd3025 O3077 2.429 . S
Gd3025 O3078 2.545 . S
Gd3025 O3079 2.412 . S
Gd3025 C3092 2.828 . S
C3026 C3029 1.417 . S
C3026 C3031 1.431 . S
C3026 C3032 1.412 . S
C3027 C3030 1.437 . S
C3027 C3031 1.317 . S
C3027 H3046 0.929 . S
C3028 C3029 1.426 . S
C3028 C3030 1.413 . S
C3028 N3038 1.359 . S
C3029 C3026 1.417 . S
C3029 C3028 1.426 . S
C3029 N3034 1.350 . S
C3030 C3027 1.437 . S
C3030 C3028 1.413 . S
C3030 C3040 1.391 . S
C3031 C3026 1.431 . S
C3031 C3027 1.317 . S
C3031 H3042 0.930 . S
C3032 C3026 1.412 . S
C3032 C3033 1.355 . S
C3032 H3044 0.930 . S
C3033 C3032 1.355 . S
C3033 C3035 1.402 . S
C3033 H3045 0.930 . S
N3034 Gd3025 2.661 . S
N3034 C3029 1.350 . S
N3034 C3035 1.307 . S
C3035 C3033 1.402 . S
C3035 N3034 1.307 . S
C3035 H3036 0.930 . S
H3036 C3035 0.930 . S
C3037 N3038 1.334 . S
C3037 C3039 1.394 . S
C3037 H3041 0.930 . S
N3038 Gd3025 2.601 . S
N3038 C3028 1.359 . S
N3038 C3037 1.334 . S
C3039 C3037 1.394 . S
C3039 C3040 1.359 . S
C3039 H3051 0.930 . S
C3040 C3030 1.391 . S
C3040 C3039 1.359 . S
C3040 H3052 0.929 . S
H3041 C3037 0.930 . S
H3042 C3031 0.930 . S
H3043 C3060 0.930 . S
H3044 C3032 0.930 . S
H3045 C3033 0.930 . S
H3046 C3027 0.929 . S
H3047 C3065 0.930 . S
H3048 C3056 0.930 . S
H3049 C3057 0.930 . S
H3050 C3081 0.929 . S
H3051 C3039 0.930 . S
H3052 C3040 0.929 . S
H3053 C3082 0.930 . S
H3054 C3063 0.930 . S
N3055 Gd3024 2.661 . S
N3055 C3059 1.350 . S
N3055 C3060 1.307 . S
C3056 H3048 0.930 . S
C3056 C3057 1.355 . S
C3056 C3058 1.412 . S
C3057 H3049 0.930 . S
C3057 C3056 1.355 . S
C3057 C3060 1.402 . S
C3058 C3056 1.412 . S
C3058 C3059 1.417 . S
C3058 C3082 1.431 . S
C3059 N3055 1.350 . S
C3059 C3058 1.417 . S
C3059 C3062 1.426 . S
C3060 H3043 0.930 . S
C3060 N3055 1.307 . S
C3060 C3057 1.402 . S
N3061 Gd3024 2.601 . S
N3061 C3062 1.359 . S
N3061 C3065 1.334 . S
C3062 C3059 1.426 . S
C3062 N3061 1.359 . S
C3062 C3066 1.413 . S
C3063 H3054 0.930 . S
C3063 C3064 1.359 . S
C3063 C3065 1.394 . S
C3064 C3063 1.359 . S
C3064 C3066 1.391 . S
C3064 H3067 0.929 . S
C3065 H3047 0.930 . S
C3065 N3061 1.334 . S
C3065 C3063 1.394 . S
C3066 C3062 1.413 . S
C3066 C3064 1.391 . S
C3066 C3081 1.437 . S
H3067 C3064 0.929 . S
O3068 Gd3024 2.545 . S
O3068 C3083 1.258 . S
O3069 Gd3024 2.606 . S
O3069 Gd3025 2.362 . S
O3069 C3080 1.284 . S
O3070 Gd3025 2.324 . S
O3070 C3090 1.254 . S
O3071 Gd3024 2.429 . S
O3071 C3090 1.268 . S
O3072 Gd3024 2.545 . S
O3072 C3080 1.250 . S
O3073 Gd3024 2.412 . S
O3073 C3083 1.252 . S
O3074 Gd3025 2.545 . S
O3074 C3092 1.258 . S
O3075 Gd3024 2.362 . S
O3075 Gd3025 2.606 . S
O3075 C3091 1.284 . S
O3076 Gd3024 2.324 . S
O3076 C3099 1.254 . S
O3077 Gd3025 2.429 . S
O3077 C3099 1.268 . S
O3078 Gd3025 2.545 . S
O3078 C3091 1.250 . S
O3079 Gd3025 2.412 . S
O3079 C3092 1.252 . S
C3080 O3069 1.284 . S
C3080 O3072 1.250 . S
C3081 H3050 0.929 . S
C3081 C3066 1.437 . S
C3081 C3082 1.317 . S
C3082 H3053 0.930 . S
C3082 C3058 1.431 . S
C3082 C3081 1.317 . S
C3083 Gd3024 2.828 . S
C3083 O3068 1.258 . S
C3083 O3073 1.252 . S
C3083 C3084 1.497 . S
C3084 C3083 1.497 . S
C3084 C3085 1.395 . S
C3084 C3086 1.380 . S
C3085 C3084 1.395 . S
C3085 C3088 1.398 . S
C3085 H3100 0.930 . S
C3086 C3084 1.380 . S
C3086 C3087 1.391 . S
C3086 H3101 0.930 . S
C3087 C3086 1.391 . S
C3087 C3089 1.387 . S
C3088 C3085 1.398 . S
C3088 C3089 1.380 . S
C3088 H3102 0.930 . S
C3089 C3087 1.387 . S
C3089 C3088 1.380 . S
C3089 H3103 0.930 . S
C3090 O3070 1.254 . S
C3090 O3071 1.268 . S
C3091 O3075 1.284 . S
C3091 O3078 1.250 . S
C3092 Gd3025 2.828 . S
C3092 O3074 1.258 . S
C3092 O3079 1.252 . S
C3092 C3093 1.497 . S
C3093 C3092 1.497 . S
C3093 C3094 1.395 . S
C3093 C3095 1.380 . S
C3094 C3093 1.395 . S
C3094 C3097 1.398 . S
C3094 H3104 0.930 . S
C3095 C3093 1.380 . S
C3095 C3096 1.391 . S
C3095 H3105 0.930 . S
C3096 C3095 1.391 . S
C3096 C3098 1.387 . S
C3097 C3094 1.398 . S
C3097 C3098 1.380 . S
C3097 H3106 0.930 . S
C3098 C3096 1.387 . S
C3098 C3097 1.380 . S
C3098 H3107 0.930 . S
C3099 O3076 1.254 . S
C3099 O3077 1.268 . S
H3100 C3085 0.930 . S
H3101 C3086 0.930 . S
H3102 C3088 0.930 . S
H3103 C3089 0.930 . S
H3104 C3094 0.930 . S
H3105 C3095 0.930 . S
H3106 C3097 0.930 . S
H3107 C3098 0.930 . S
Gd3108 N3139 2.661 . S
Gd3108 N3145 2.601 . S
Gd3108 O3152 2.545 . S
Gd3108 O3153 2.606 . S
Gd3108 O3155 2.429 . S
Gd3108 O3156 2.545 . S
Gd3108 O3157 2.412 . S
Gd3108 O3159 2.362 . S
Gd3108 O3160 2.324 . S
Gd3108 C3167 2.828 . S
Gd3109 N3118 2.661 . S
Gd3109 N3122 2.601 . S
Gd3109 O3153 2.362 . S
Gd3109 O3154 2.324 . S
Gd3109 O3158 2.545 . S
Gd3109 O3159 2.606 . S
Gd3109 O3161 2.429 . S
Gd3109 O3162 2.545 . S
Gd3109 O3163 2.412 . S
Gd3109 C3176 2.828 . S
C3110 C3113 1.417 . S
C3110 C3115 1.431 . S
C3110 C3116 1.412 . S
C3111 C3114 1.437 . S
C3111 C3115 1.317 . S
C3111 H3130 0.929 . S
C3112 C3113 1.426 . S
C3112 C3114 1.413 . S
C3112 N3122 1.359 . S
C3113 C3110 1.417 . S
C3113 C3112 1.426 . S
C3113 N3118 1.350 . S
C3114 C3111 1.437 . S
C3114 C3112 1.413 . S
C3114 C3124 1.391 . S
C3115 C3110 1.431 . S
C3115 C3111 1.317 . S
C3115 H3126 0.930 . S
C3116 C3110 1.412 . S
C3116 C3117 1.355 . S
C3116 H3128 0.930 . S
C3117 C3116 1.355 . S
C3117 C3119 1.402 . S
C3117 H3129 0.930 . S
N3118 Gd3109 2.661 . S
N3118 C3113 1.350 . S
N3118 C3119 1.307 . S
C3119 C3117 1.402 . S
C3119 N3118 1.307 . S
C3119 H3120 0.930 . S
H3120 C3119 0.930 . S
C3121 N3122 1.334 . S
C3121 C3123 1.394 . S
C3121 H3125 0.930 . S
N3122 Gd3109 2.601 . S
N3122 C3112 1.359 . S
N3122 C3121 1.334 . S
C3123 C3121 1.394 . S
C3123 C3124 1.359 . S
C3123 H3135 0.930 . S
C3124 C3114 1.391 . S
C3124 C3123 1.359 . S
C3124 H3136 0.929 . S
H3125 C3121 0.930 . S
H3126 C3115 0.930 . S
H3127 C3144 0.930 . S
H3128 C3116 0.930 . S
H3129 C3117 0.930 . S
H3130 C3111 0.929 . S
H3131 C3149 0.930 . S
H3132 C3140 0.930 . S
H3133 C3141 0.930 . S
H3134 C3165 0.929 . S
H3135 C3123 0.930 . S
H3136 C3124 0.929 . S
H3137 C3166 0.930 . S
H3138 C3147 0.930 . S
N3139 Gd3108 2.661 . S
N3139 C3143 1.350 . S
N3139 C3144 1.307 . S
C3140 H3132 0.930 . S
C3140 C3141 1.355 . S
C3140 C3142 1.412 . S
C3141 H3133 0.930 . S
C3141 C3140 1.355 . S
C3141 C3144 1.402 . S
C3142 C3140 1.412 . S
C3142 C3143 1.417 . S
C3142 C3166 1.431 . S
C3143 N3139 1.350 . S
C3143 C3142 1.417 . S
C3143 C3146 1.426 . S
C3144 H3127 0.930 . S
C3144 N3139 1.307 . S
C3144 C3141 1.402 . S
N3145 Gd3108 2.601 . S
N3145 C3146 1.359 . S
N3145 C3149 1.334 . S
C3146 C3143 1.426 . S
C3146 N3145 1.359 . S
C3146 C3150 1.413 . S
C3147 H3138 0.930 . S
C3147 C3148 1.359 . S
C3147 C3149 1.394 . S
C3148 C3147 1.359 . S
C3148 C3150 1.391 . S
C3148 H3151 0.929 . S
C3149 H3131 0.930 . S
C3149 N3145 1.334 . S
C3149 C3147 1.394 . S
C3150 C3146 1.413 . S
C3150 C3148 1.391 . S
C3150 C3165 1.437 . S
H3151 C3148 0.929 . S
O3152 Gd3108 2.545 . S
O3152 C3167 1.258 . S
O3153 Gd3108 2.606 . S
O3153 Gd3109 2.362 . S
O3153 C3164 1.284 . S
O3154 Gd3109 2.324 . S
O3154 C3174 1.254 . S
O3155 Gd3108 2.429 . S
O3155 C3174 1.268 . S
O3156 Gd3108 2.545 . S
O3156 C3164 1.250 . S
O3157 Gd3108 2.412 . S
O3157 C3167 1.252 . S
O3158 Gd3109 2.545 . S
O3158 C3176 1.258 . S
O3159 Gd3108 2.362 . S
O3159 Gd3109 2.606 . S
O3159 C3175 1.284 . S
O3160 Gd3108 2.324 . S
O3160 C3183 1.254 . S
O3161 Gd3109 2.429 . S
O3161 C3183 1.268 . S
O3162 Gd3109 2.545 . S
O3162 C3175 1.250 . S
O3163 Gd3109 2.412 . S
O3163 C3176 1.252 . S
C3164 O3153 1.284 . S
C3164 O3156 1.250 . S
C3165 H3134 0.929 . S
C3165 C3150 1.437 . S
C3165 C3166 1.317 . S
C3166 H3137 0.930 . S
C3166 C3142 1.431 . S
C3166 C3165 1.317 . S
C3167 Gd3108 2.828 . S
C3167 O3152 1.258 . S
C3167 O3157 1.252 . S
C3167 C3168 1.497 . S
C3168 C3167 1.497 . S
C3168 C3169 1.395 . S
C3168 C3170 1.380 . S
C3169 C3168 1.395 . S
C3169 C3172 1.398 . S
C3169 H3184 0.930 . S
C3170 C3168 1.380 . S
C3170 C3171 1.391 . S
C3170 H3185 0.930 . S
C3171 C3170 1.391 . S
C3171 C3173 1.387 . S
C3172 C3169 1.398 . S
C3172 C3173 1.380 . S
C3172 H3186 0.930 . S
C3173 C3171 1.387 . S
C3173 C3172 1.380 . S
C3173 H3187 0.930 . S
C3174 O3154 1.254 . S
C3174 O3155 1.268 . S
C3175 O3159 1.284 . S
C3175 O3162 1.250 . S
C3176 Gd3109 2.828 . S
C3176 O3158 1.258 . S
C3176 O3163 1.252 . S
C3176 C3177 1.497 . S
C3177 C3176 1.497 . S
C3177 C3178 1.395 . S
C3177 C3179 1.380 . S
C3178 C3177 1.395 . S
C3178 C3181 1.398 . S
C3178 H3188 0.930 . S
C3179 C3177 1.380 . S
C3179 C3180 1.391 . S
C3179 H3189 0.930 . S
C3180 C3179 1.391 . S
C3180 C3182 1.387 . S
C3181 C3178 1.398 . S
C3181 C3182 1.380 . S
C3181 H3190 0.930 . S
C3182 C3180 1.387 . S
C3182 C3181 1.380 . S
C3182 H3191 0.930 . S
C3183 O3160 1.254 . S
C3183 O3161 1.268 . S
H3184 C3169 0.930 . S
H3185 C3170 0.930 . S
H3186 C3172 0.930 . S
H3187 C3173 0.930 . S
H3188 C3178 0.930 . S
H3189 C3179 0.930 . S
H3190 C3181 0.930 . S
H3191 C3182 0.930 . S
Gd3192 N3223 2.661 . S
Gd3192 N3229 2.601 . S
Gd3192 O3236 2.545 . S
Gd3192 O3237 2.606 . S
Gd3192 O3239 2.429 . S
Gd3192 O3240 2.545 . S
Gd3192 O3241 2.412 . S
Gd3192 O3243 2.362 . S
Gd3192 O3244 2.324 . S
Gd3192 C3251 2.828 . S
Gd3193 N3202 2.661 . S
Gd3193 N3206 2.601 . S
Gd3193 O3237 2.362 . S
Gd3193 O3238 2.324 . S
Gd3193 O3242 2.545 . S
Gd3193 O3243 2.606 . S
Gd3193 O3245 2.429 . S
Gd3193 O3246 2.545 . S
Gd3193 O3247 2.412 . S
Gd3193 C3260 2.828 . S
C3194 C3197 1.417 . S
C3194 C3199 1.431 . S
C3194 C3200 1.412 . S
C3195 C3198 1.437 . S
C3195 C3199 1.317 . S
C3195 H3214 0.929 . S
C3196 C3197 1.426 . S
C3196 C3198 1.413 . S
C3196 N3206 1.359 . S
C3197 C3194 1.417 . S
C3197 C3196 1.426 . S
C3197 N3202 1.350 . S
C3198 C3195 1.437 . S
C3198 C3196 1.413 . S
C3198 C3208 1.391 . S
C3199 C3194 1.431 . S
C3199 C3195 1.317 . S
C3199 H3210 0.930 . S
C3200 C3194 1.412 . S
C3200 C3201 1.355 . S
C3200 H3212 0.930 . S
C3201 C3200 1.355 . S
C3201 C3203 1.402 . S
C3201 H3213 0.930 . S
N3202 Gd3193 2.661 . S
N3202 C3197 1.350 . S
N3202 C3203 1.307 . S
C3203 C3201 1.402 . S
C3203 N3202 1.307 . S
C3203 H3204 0.930 . S
H3204 C3203 0.930 . S
C3205 N3206 1.334 . S
C3205 C3207 1.394 . S
C3205 H3209 0.930 . S
N3206 Gd3193 2.601 . S
N3206 C3196 1.359 . S
N3206 C3205 1.334 . S
C3207 C3205 1.394 . S
C3207 C3208 1.359 . S
C3207 H3219 0.930 . S
C3208 C3198 1.391 . S
C3208 C3207 1.359 . S
C3208 H3220 0.929 . S
H3209 C3205 0.930 . S
H3210 C3199 0.930 . S
H3211 C3228 0.930 . S
H3212 C3200 0.930 . S
H3213 C3201 0.930 . S
H3214 C3195 0.929 . S
H3215 C3233 0.930 . S
H3216 C3224 0.930 . S
H3217 C3225 0.930 . S
H3218 C3249 0.929 . S
H3219 C3207 0.930 . S
H3220 C3208 0.929 . S
H3221 C3250 0.930 . S
H3222 C3231 0.930 . S
N3223 Gd3192 2.661 . S
N3223 C3227 1.350 . S
N3223 C3228 1.307 . S
C3224 H3216 0.930 . S
C3224 C3225 1.355 . S
C3224 C3226 1.412 . S
C3225 H3217 0.930 . S
C3225 C3224 1.355 . S
C3225 C3228 1.402 . S
C3226 C3224 1.412 . S
C3226 C3227 1.417 . S
C3226 C3250 1.431 . S
C3227 N3223 1.350 . S
C3227 C3226 1.417 . S
C3227 C3230 1.426 . S
C3228 H3211 0.930 . S
C3228 N3223 1.307 . S
C3228 C3225 1.402 . S
N3229 Gd3192 2.601 . S
N3229 C3230 1.359 . S
N3229 C3233 1.334 . S
C3230 C3227 1.426 . S
C3230 N3229 1.359 . S
C3230 C3234 1.413 . S
C3231 H3222 0.930 . S
C3231 C3232 1.359 . S
C3231 C3233 1.394 . S
C3232 C3231 1.359 . S
C3232 C3234 1.391 . S
C3232 H3235 0.929 . S
C3233 H3215 0.930 . S
C3233 N3229 1.334 . S
C3233 C3231 1.394 . S
C3234 C3230 1.413 . S
C3234 C3232 1.391 . S
C3234 C3249 1.437 . S
H3235 C3232 0.929 . S
O3236 Gd3192 2.545 . S
O3236 C3251 1.258 . S
O3237 Gd3192 2.606 . S
O3237 Gd3193 2.362 . S
O3237 C3248 1.284 . S
O3238 Gd3193 2.324 . S
O3238 C3258 1.254 . S
O3239 Gd3192 2.429 . S
O3239 C3258 1.268 . S
O3240 Gd3192 2.545 . S
O3240 C3248 1.250 . S
O3241 Gd3192 2.412 . S
O3241 C3251 1.252 . S
O3242 Gd3193 2.545 . S
O3242 C3260 1.258 . S
O3243 Gd3192 2.362 . S
O3243 Gd3193 2.606 . S
O3243 C3259 1.284 . S
O3244 Gd3192 2.324 . S
O3244 C3267 1.254 . S
O3245 Gd3193 2.429 . S
O3245 C3267 1.268 . S
O3246 Gd3193 2.545 . S
O3246 C3259 1.250 . S
O3247 Gd3193 2.412 . S
O3247 C3260 1.252 . S
C3248 O3237 1.284 . S
C3248 O3240 1.250 . S
C3249 H3218 0.929 . S
C3249 C3234 1.437 . S
C3249 C3250 1.317 . S
C3250 H3221 0.930 . S
C3250 C3226 1.431 . S
C3250 C3249 1.317 . S
C3251 Gd3192 2.828 . S
C3251 O3236 1.258 . S
C3251 O3241 1.252 . S
C3251 C3252 1.497 . S
C3252 C3251 1.497 . S
C3252 C3253 1.395 . S
C3252 C3254 1.380 . S
C3253 C3252 1.395 . S
C3253 C3256 1.398 . S
C3253 H3268 0.930 . S
C3254 C3252 1.380 . S
C3254 C3255 1.391 . S
C3254 H3269 0.930 . S
C3255 C3254 1.391 . S
C3255 C3257 1.387 . S
C3256 C3253 1.398 . S
C3256 C3257 1.380 . S
C3256 H3270 0.930 . S
C3257 C3255 1.387 . S
C3257 C3256 1.380 . S
C3257 H3271 0.930 . S
C3258 O3238 1.254 . S
C3258 O3239 1.268 . S
C3259 O3243 1.284 . S
C3259 O3246 1.250 . S
C3260 Gd3193 2.828 . S
C3260 O3242 1.258 . S
C3260 O3247 1.252 . S
C3260 C3261 1.497 . S
C3261 C3260 1.497 . S
C3261 C3262 1.395 . S
C3261 C3263 1.380 . S
C3262 C3261 1.395 . S
C3262 C3265 1.398 . S
C3262 H3272 0.930 . S
C3263 C3261 1.380 . S
C3263 C3264 1.391 . S
C3263 H3273 0.930 . S
C3264 C3263 1.391 . S
C3264 C3266 1.387 . S
C3265 C3262 1.398 . S
C3265 C3266 1.380 . S
C3265 H3274 0.930 . S
C3266 C3264 1.387 . S
C3266 C3265 1.380 . S
C3266 H3275 0.930 . S
C3267 O3244 1.254 . S
C3267 O3245 1.268 . S
H3268 C3253 0.930 . S
H3269 C3254 0.930 . S
H3270 C3256 0.930 . S
H3271 C3257 0.930 . S
H3272 C3262 0.930 . S
H3273 C3263 0.930 . S
H3274 C3265 0.930 . S
H3275 C3266 0.930 . S
Gd3276 N3307 2.661 . S
Gd3276 N3313 2.601 . S
Gd3276 O3320 2.545 . S
Gd3276 O3321 2.606 . S
Gd3276 O3323 2.429 . S
Gd3276 O3324 2.545 . S
Gd3276 O3325 2.412 . S
Gd3276 O3327 2.362 . S
Gd3276 O3328 2.324 . S
Gd3276 C3335 2.828 . S
Gd3277 N3286 2.661 . S
Gd3277 N3290 2.601 . S
Gd3277 O3321 2.362 . S
Gd3277 O3322 2.324 . S
Gd3277 O3326 2.545 . S
Gd3277 O3327 2.606 . S
Gd3277 O3329 2.429 . S
Gd3277 O3330 2.545 . S
Gd3277 O3331 2.412 . S
Gd3277 C3344 2.828 . S
C3278 C3281 1.417 . S
C3278 C3283 1.431 . S
C3278 C3284 1.412 . S
C3279 C3282 1.437 . S
C3279 C3283 1.317 . S
C3279 H3298 0.929 . S
C3280 C3281 1.426 . S
C3280 C3282 1.413 . S
C3280 N3290 1.359 . S
C3281 C3278 1.417 . S
C3281 C3280 1.426 . S
C3281 N3286 1.350 . S
C3282 C3279 1.437 . S
C3282 C3280 1.413 . S
C3282 C3292 1.391 . S
C3283 C3278 1.431 . S
C3283 C3279 1.317 . S
C3283 H3294 0.930 . S
C3284 C3278 1.412 . S
C3284 C3285 1.355 . S
C3284 H3296 0.930 . S
C3285 C3284 1.355 . S
C3285 C3287 1.402 . S
C3285 H3297 0.930 . S
N3286 Gd3277 2.661 . S
N3286 C3281 1.350 . S
N3286 C3287 1.307 . S
C3287 C3285 1.402 . S
C3287 N3286 1.307 . S
C3287 H3288 0.930 . S
H3288 C3287 0.930 . S
C3289 N3290 1.334 . S
C3289 C3291 1.394 . S
C3289 H3293 0.930 . S
N3290 Gd3277 2.601 . S
N3290 C3280 1.359 . S
N3290 C3289 1.334 . S
C3291 C3289 1.394 . S
C3291 C3292 1.359 . S
C3291 H3303 0.930 . S
C3292 C3282 1.391 . S
C3292 C3291 1.359 . S
C3292 H3304 0.929 . S
H3293 C3289 0.930 . S
H3294 C3283 0.930 . S
H3295 C3312 0.930 . S
H3296 C3284 0.930 . S
H3297 C3285 0.930 . S
H3298 C3279 0.929 . S
H3299 C3317 0.930 . S
H3300 C3308 0.930 . S
H3301 C3309 0.930 . S
H3302 C3333 0.929 . S
H3303 C3291 0.930 . S
H3304 C3292 0.929 . S
H3305 C3334 0.930 . S
H3306 C3315 0.930 . S
N3307 Gd3276 2.661 . S
N3307 C3311 1.350 . S
N3307 C3312 1.307 . S
C3308 H3300 0.930 . S
C3308 C3309 1.355 . S
C3308 C3310 1.412 . S
C3309 H3301 0.930 . S
C3309 C3308 1.355 . S
C3309 C3312 1.402 . S
C3310 C3308 1.412 . S
C3310 C3311 1.417 . S
C3310 C3334 1.431 . S
C3311 N3307 1.350 . S
C3311 C3310 1.417 . S
C3311 C3314 1.426 . S
C3312 H3295 0.930 . S
C3312 N3307 1.307 . S
C3312 C3309 1.402 . S
N3313 Gd3276 2.601 . S
N3313 C3314 1.359 . S
N3313 C3317 1.334 . S
C3314 C3311 1.426 . S
C3314 N3313 1.359 . S
C3314 C3318 1.413 . S
C3315 H3306 0.930 . S
C3315 C3316 1.359 . S
C3315 C3317 1.394 . S
C3316 C3315 1.359 . S
C3316 C3318 1.391 . S
C3316 H3319 0.929 . S
C3317 H3299 0.930 . S
C3317 N3313 1.334 . S
C3317 C3315 1.394 . S
C3318 C3314 1.413 . S
C3318 C3316 1.391 . S
C3318 C3333 1.437 . S
H3319 C3316 0.929 . S
O3320 Gd3276 2.545 . S
O3320 C3335 1.258 . S
O3321 Gd3276 2.606 . S
O3321 Gd3277 2.362 . S
O3321 C3332 1.284 . S
O3322 Gd3277 2.324 . S
O3322 C3342 1.254 . S
O3323 Gd3276 2.429 . S
O3323 C3342 1.268 . S
O3324 Gd3276 2.545 . S
O3324 C3332 1.250 . S
O3325 Gd3276 2.412 . S
O3325 C3335 1.252 . S
O3326 Gd3277 2.545 . S
O3326 C3344 1.258 . S
O3327 Gd3276 2.362 . S
O3327 Gd3277 2.606 . S
O3327 C3343 1.284 . S
O3328 Gd3276 2.324 . S
O3328 C3351 1.254 . S
O3329 Gd3277 2.429 . S
O3329 C3351 1.268 . S
O3330 Gd3277 2.545 . S
O3330 C3343 1.250 . S
O3331 Gd3277 2.412 . S
O3331 C3344 1.252 . S
C3332 O3321 1.284 . S
C3332 O3324 1.250 . S
C3333 H3302 0.929 . S
C3333 C3318 1.437 . S
C3333 C3334 1.317 . S
C3334 H3305 0.930 . S
C3334 C3310 1.431 . S
C3334 C3333 1.317 . S
C3335 Gd3276 2.828 . S
C3335 O3320 1.258 . S
C3335 O3325 1.252 . S
C3335 C3336 1.497 . S
C3336 C3335 1.497 . S
C3336 C3337 1.395 . S
C3336 C3338 1.380 . S
C3337 C3336 1.395 . S
C3337 C3340 1.398 . S
C3337 H3352 0.930 . S
C3338 C3336 1.380 . S
C3338 C3339 1.391 . S
C3338 H3353 0.930 . S
C3339 C3338 1.391 . S
C3339 C3341 1.387 . S
C3340 C3337 1.398 . S
C3340 C3341 1.380 . S
C3340 H3354 0.930 . S
C3341 C3339 1.387 . S
C3341 C3340 1.380 . S
C3341 H3355 0.930 . S
C3342 O3322 1.254 . S
C3342 O3323 1.268 . S
C3343 O3327 1.284 . S
C3343 O3330 1.250 . S
C3344 Gd3277 2.828 . S
C3344 O3326 1.258 . S
C3344 O3331 1.252 . S
C3344 C3345 1.497 . S
C3345 C3344 1.497 . S
C3345 C3346 1.395 . S
C3345 C3347 1.380 . S
C3346 C3345 1.395 . S
C3346 C3349 1.398 . S
C3346 H3356 0.930 . S
C3347 C3345 1.380 . S
C3347 C3348 1.391 . S
C3347 H3357 0.930 . S
C3348 C3347 1.391 . S
C3348 C3350 1.387 . S
C3349 C3346 1.398 . S
C3349 C3350 1.380 . S
C3349 H3358 0.930 . S
C3350 C3348 1.387 . S
C3350 C3349 1.380 . S
C3350 H3359 0.930 . S
C3351 O3328 1.254 . S
C3351 O3329 1.268 . S
H3352 C3337 0.930 . S
H3353 C3338 0.930 . S
H3354 C3340 0.930 . S
H3355 C3341 0.930 . S
H3356 C3346 0.930 . S
H3357 C3347 0.930 . S
H3358 C3349 0.930 . S
H3359 C3350 0.930 . S
Gd3360 N3391 2.661 . S
Gd3360 N3397 2.601 . S
Gd3360 O3404 2.545 . S
Gd3360 O3405 2.606 . S
Gd3360 O3407 2.429 . S
Gd3360 O3408 2.545 . S
Gd3360 O3409 2.412 . S
Gd3360 O3411 2.362 . S
Gd3360 O3412 2.324 . S
Gd3360 C3419 2.828 . S
Gd3361 N3370 2.661 . S
Gd3361 N3374 2.601 1_455 S
Gd3361 O3405 2.362 . S
Gd3361 O3406 2.324 . S
Gd3361 O3410 2.545 1_455 S
Gd3361 O3411 2.606 . S
Gd3361 O3413 2.429 . S
Gd3361 O3414 2.545 1_455 S
Gd3361 O3415 2.412 1_455 S
Gd3361 C3428 2.828 1_455 S
C3362 C3365 1.417 . S
C3362 C3367 1.431 . S
C3362 C3368 1.412 . S
C3363 C3366 1.430 1_455 S
C3363 C3367 1.317 . S
C3363 H3382 0.929 . S
C3364 C3365 1.426 . S
C3364 C3366 1.409 1_455 S
C3364 N3374 1.359 1_455 S
C3365 C3362 1.417 . S
C3365 C3364 1.426 . S
C3365 N3370 1.350 . S
C3366 C3363 1.430 1_655 S
C3366 C3364 1.409 1_655 S
C3366 C3376 1.403 . S
C3367 C3362 1.431 . S
C3367 C3363 1.317 . S
C3367 H3378 0.930 . S
C3368 C3362 1.412 . S
C3368 C3369 1.355 . S
C3368 H3380 0.930 . S
C3369 C3368 1.355 . S
C3369 C3371 1.402 . S
C3369 H3381 0.930 . S
N3370 Gd3361 2.661 . S
N3370 C3365 1.350 . S
N3370 C3371 1.307 . S
C3371 C3369 1.402 . S
C3371 N3370 1.307 . S
C3371 H3372 0.930 . S
H3372 C3371 0.930 . S
C3373 N3374 1.334 . S
C3373 C3375 1.394 . S
C3373 H3377 0.930 . S
N3374 Gd3361 2.601 1_655 S
N3374 C3364 1.359 1_655 S
N3374 C3373 1.334 . S
C3375 C3373 1.394 . S
C3375 C3376 1.359 . S
C3375 H3387 0.930 . S
C3376 C3366 1.403 . S
C3376 C3375 1.359 . S
C3376 H3388 0.929 . S
H3377 C3373 0.930 . S
H3378 C3367 0.930 . S
H3379 C3396 0.930 . S
H3380 C3368 0.930 . S
H3381 C3369 0.930 . S
H3382 C3363 0.929 . S
H3383 C3401 0.930 . S
H3384 C3392 0.930 . S
H3385 C3393 0.930 1_655 S
H3386 C3417 0.929 . S
H3387 C3375 0.930 . S
H3388 C3376 0.929 . S
H3389 C3418 0.930 . S
H3390 C3399 0.930 . S
N3391 Gd3360 2.661 . S
N3391 C3395 1.350 . S
N3391 C3396 1.307 . S
C3392 H3384 0.930 . S
C3392 C3393 1.355 . S
C3392 C3394 1.412 . S
C3393 H3385 0.930 1_455 S
C3393 C3392 1.355 . S
C3393 C3396 1.402 . S
C3394 C3392 1.412 . S
C3394 C3395 1.417 . S
C3394 C3418 1.431 . S
C3395 N3391 1.350 . S
C3395 C3394 1.417 . S
C3395 C3398 1.426 . S
C3396 H3379 0.930 . S
C3396 N3391 1.307 . S
C3396 C3393 1.402 . S
N3397 Gd3360 2.601 . S
N3397 C3398 1.359 . S
N3397 C3401 1.334 . S
C3398 C3395 1.426 . S
C3398 N3397 1.359 . S
C3398 C3402 1.413 . S
C3399 H3390 0.930 . S
C3399 C3400 1.359 . S
C3399 C3401 1.394 . S
C3400 C3399 1.359 . S
C3400 C3402 1.391 . S
C3400 H3403 0.929 . S
C3401 H3383 0.930 . S
C3401 N3397 1.334 . S
C3401 C3399 1.394 . S
C3402 C3398 1.413 . S
C3402 C3400 1.391 . S
C3402 C3417 1.437 . S
H3403 C3400 0.929 . S
O3404 Gd3360 2.545 . S
O3404 C3419 1.258 . S
O3405 Gd3360 2.606 . S
O3405 Gd3361 2.362 . S
O3405 C3416 1.284 . S
O3406 Gd3361 2.324 . S
O3406 C3426 1.254 . S
O3407 Gd3360 2.429 . S
O3407 C3426 1.268 . S
O3408 Gd3360 2.545 . S
O3408 C3416 1.250 . S
O3409 Gd3360 2.412 . S
O3409 C3419 1.252 . S
O3410 Gd3361 2.545 1_655 S
O3410 C3428 1.258 . S
O3411 Gd3360 2.362 . S
O3411 Gd3361 2.606 . S
O3411 C3427 1.284 . S
O3412 Gd3360 2.324 . S
O3412 C3435 1.254 . S
O3413 Gd3361 2.429 . S
O3413 C3435 1.268 . S
O3414 Gd3361 2.545 1_655 S
O3414 C3427 1.250 1_655 S
O3415 Gd3361 2.412 1_655 S
O3415 C3428 1.252 . S
C3416 O3405 1.284 . S
C3416 O3408 1.250 . S
C3417 H3386 0.929 . S
C3417 C3402 1.437 . S
C3417 C3418 1.317 . S
C3418 H3389 0.930 . S
C3418 C3394 1.431 . S
C3418 C3417 1.317 . S
C3419 Gd3360 2.828 . S
C3419 O3404 1.258 . S
C3419 O3409 1.252 . S
C3419 C3420 1.497 . S
C3420 C3419 1.497 . S
C3420 C3421 1.395 . S
C3420 C3422 1.380 . S
C3421 C3420 1.395 . S
C3421 C3424 1.398 . S
C3421 H3436 0.930 . S
C3422 C3420 1.380 . S
C3422 C3423 1.391 . S
C3422 H3437 0.930 . S
C3423 C3422 1.391 . S
C3423 C3425 1.387 . S
C3424 C3421 1.398 . S
C3424 C3425 1.380 . S
C3424 H3438 0.930 . S
C3425 C3423 1.387 . S
C3425 C3424 1.380 . S
C3425 H3439 0.930 . S
C3426 O3406 1.254 . S
C3426 O3407 1.268 . S
C3427 O3411 1.284 . S
C3427 O3414 1.250 1_455 S
C3428 Gd3361 2.828 1_655 S
C3428 O3410 1.258 . S
C3428 O3415 1.252 . S
C3428 C3429 1.497 . S
C3429 C3428 1.497 . S
C3429 C3430 1.395 . S
C3429 C3431 1.380 . S
C3430 C3429 1.395 . S
C3430 C3433 1.398 . S
C3430 H3440 0.930 . S
C3431 C3429 1.380 . S
C3431 C3432 1.391 . S
C3431 H3441 0.930 . S
C3432 C3431 1.391 . S
C3432 C3434 1.387 . S
C3433 C3430 1.398 . S
C3433 C3434 1.380 . S
C3433 H3442 0.930 . S
C3434 C3432 1.387 . S
C3434 C3433 1.380 . S
C3434 H3443 0.930 . S
C3435 O3412 1.254 . S
C3435 O3413 1.268 . S
H3436 C3421 0.930 . S
H3437 C3422 0.930 . S
H3438 C3424 0.930 . S
H3439 C3425 0.930 . S
H3440 C3430 0.930 . S
H3441 C3431 0.930 . S
H3442 C3433 0.930 . S
H3443 C3434 0.930 . S
Gd3444 N3475 2.661 . S
Gd3444 N3481 2.601 . S
Gd3444 O3488 2.545 . S
Gd3444 O3489 2.606 . S
Gd3444 O3491 2.429 . S
Gd3444 O3492 2.545 . S
Gd3444 O3493 2.412 . S
Gd3444 O3495 2.362 . S
Gd3444 O3496 2.324 . S
Gd3444 C3503 2.828 . S
Gd3445 N3454 2.661 . S
Gd3445 N3458 2.601 . S
Gd3445 O3489 2.362 . S
Gd3445 O3490 2.324 . S
Gd3445 O3494 2.545 . S
Gd3445 O3495 2.606 . S
Gd3445 O3497 2.429 . S
Gd3445 O3498 2.545 . S
Gd3445 O3499 2.412 . S
Gd3445 C3512 2.828 . S
C3446 C3449 1.417 . S
C3446 C3451 1.431 . S
C3446 C3452 1.412 . S
C3447 C3450 1.437 . S
C3447 C3451 1.317 . S
C3447 H3466 0.929 . S
C3448 C3449 1.426 . S
C3448 C3450 1.413 . S
C3448 N3458 1.359 . S
C3449 C3446 1.417 . S
C3449 C3448 1.426 . S
C3449 N3454 1.350 . S
C3450 C3447 1.437 . S
C3450 C3448 1.413 . S
C3450 C3460 1.391 . S
C3451 C3446 1.431 . S
C3451 C3447 1.317 . S
C3451 H3462 0.930 . S
C3452 C3446 1.412 . S
C3452 C3453 1.355 . S
C3452 H3464 0.930 . S
C3453 C3452 1.355 . S
C3453 C3455 1.402 . S
C3453 H3465 0.930 . S
N3454 Gd3445 2.661 . S
N3454 C3449 1.350 . S
N3454 C3455 1.307 . S
C3455 C3453 1.402 . S
C3455 N3454 1.307 . S
C3455 H3456 0.930 . S
H3456 C3455 0.930 . S
C3457 N3458 1.334 . S
C3457 C3459 1.394 . S
C3457 H3461 0.930 . S
N3458 Gd3445 2.601 . S
N3458 C3448 1.359 . S
N3458 C3457 1.334 . S
C3459 C3457 1.394 . S
C3459 C3460 1.359 . S
C3459 H3471 0.930 . S
C3460 C3450 1.391 . S
C3460 C3459 1.359 . S
C3460 H3472 0.929 . S
H3461 C3457 0.930 . S
H3462 C3451 0.930 . S
H3463 C3480 0.930 . S
H3464 C3452 0.930 . S
H3465 C3453 0.930 . S
H3466 C3447 0.929 . S
H3467 C3485 0.930 . S
H3468 C3476 0.930 . S
H3469 C3477 0.930 . S
H3470 C3501 0.929 . S
H3471 C3459 0.930 . S
H3472 C3460 0.929 . S
H3473 C3502 0.930 . S
H3474 C3483 0.930 . S
N3475 Gd3444 2.661 . S
N3475 C3479 1.350 . S
N3475 C3480 1.307 . S
C3476 H3468 0.930 . S
C3476 C3477 1.355 . S
C3476 C3478 1.412 . S
C3477 H3469 0.930 . S
C3477 C3476 1.355 . S
C3477 C3480 1.402 . S
C3478 C3476 1.412 . S
C3478 C3479 1.417 . S
C3478 C3502 1.431 . S
C3479 N3475 1.350 . S
C3479 C3478 1.417 . S
C3479 C3482 1.426 . S
C3480 H3463 0.930 . S
C3480 N3475 1.307 . S
C3480 C3477 1.402 . S
N3481 Gd3444 2.601 . S
N3481 C3482 1.359 . S
N3481 C3485 1.334 . S
C3482 C3479 1.426 . S
C3482 N3481 1.359 . S
C3482 C3486 1.413 . S
C3483 H3474 0.930 . S
C3483 C3484 1.359 . S
C3483 C3485 1.394 . S
C3484 C3483 1.359 . S
C3484 C3486 1.391 . S
C3484 H3487 0.929 . S
C3485 H3467 0.930 . S
C3485 N3481 1.334 . S
C3485 C3483 1.394 . S
C3486 C3482 1.413 . S
C3486 C3484 1.391 . S
C3486 C3501 1.437 . S
H3487 C3484 0.929 . S
O3488 Gd3444 2.545 . S
O3488 C3503 1.258 . S
O3489 Gd3444 2.606 . S
O3489 Gd3445 2.362 . S
O3489 C3500 1.284 . S
O3490 Gd3445 2.324 . S
O3490 C3510 1.254 . S
O3491 Gd3444 2.429 . S
O3491 C3510 1.268 . S
O3492 Gd3444 2.545 . S
O3492 C3500 1.250 . S
O3493 Gd3444 2.412 . S
O3493 C3503 1.252 . S
O3494 Gd3445 2.545 . S
O3494 C3512 1.258 . S
O3495 Gd3444 2.362 . S
O3495 Gd3445 2.606 . S
O3495 C3511 1.284 . S
O3496 Gd3444 2.324 . S
O3496 C3519 1.254 . S
O3497 Gd3445 2.429 . S
O3497 C3519 1.268 . S
O3498 Gd3445 2.545 . S
O3498 C3511 1.250 . S
O3499 Gd3445 2.412 . S
O3499 C3512 1.252 . S
C3500 O3489 1.284 . S
C3500 O3492 1.250 . S
C3501 H3470 0.929 . S
C3501 C3486 1.437 . S
C3501 C3502 1.317 . S
C3502 H3473 0.930 . S
C3502 C3478 1.431 . S
C3502 C3501 1.317 . S
C3503 Gd3444 2.828 . S
C3503 O3488 1.258 . S
C3503 O3493 1.252 . S
C3503 C3504 1.497 . S
C3504 C3503 1.497 . S
C3504 C3505 1.395 . S
C3504 C3506 1.380 . S
C3505 C3504 1.395 . S
C3505 C3508 1.398 . S
C3505 H3520 0.930 . S
C3506 C3504 1.380 . S
C3506 C3507 1.391 . S
C3506 H3521 0.930 . S
C3507 C3506 1.391 . S
C3507 C3509 1.387 . S
C3508 C3505 1.398 . S
C3508 C3509 1.380 . S
C3508 H3522 0.930 . S
C3509 C3507 1.387 . S
C3509 C3508 1.380 . S
C3509 H3523 0.930 . S
C3510 O3490 1.254 . S
C3510 O3491 1.268 . S
C3511 O3495 1.284 . S
C3511 O3498 1.250 . S
C3512 Gd3445 2.828 . S
C3512 O3494 1.258 . S
C3512 O3499 1.252 . S
C3512 C3513 1.497 . S
C3513 C3512 1.497 . S
C3513 C3514 1.395 . S
C3513 C3515 1.380 . S
C3514 C3513 1.395 . S
C3514 C3517 1.398 . S
C3514 H3524 0.930 . S
C3515 C3513 1.380 . S
C3515 C3516 1.391 . S
C3515 H3525 0.930 . S
C3516 C3515 1.391 . S
C3516 C3518 1.387 . S
C3517 C3514 1.398 . S
C3517 C3518 1.380 . S
C3517 H3526 0.930 . S
C3518 C3516 1.387 . S
C3518 C3517 1.380 . S
C3518 H3527 0.930 . S
C3519 O3496 1.254 . S
C3519 O3497 1.268 . S
H3520 C3505 0.930 . S
H3521 C3506 0.930 . S
H3522 C3508 0.930 . S
H3523 C3509 0.930 . S
H3524 C3514 0.930 . S
H3525 C3515 0.930 . S
H3526 C3517 0.930 . S
H3527 C3518 0.930 . S
Gd3528 N3559 2.661 . S
Gd3528 N3565 2.601 . S
Gd3528 O3572 2.545 . S
Gd3528 O3573 2.606 . S
Gd3528 O3575 2.429 . S
Gd3528 O3576 2.545 . S
Gd3528 O3577 2.412 . S
Gd3528 O3579 2.362 . S
Gd3528 O3580 2.324 . S
Gd3528 C3587 2.828 . S
Gd3529 N3538 2.661 . S
Gd3529 N3542 2.601 1_554 S
Gd3529 O3573 2.362 . S
Gd3529 O3574 2.324 . S
Gd3529 O3578 2.545 1_554 S
Gd3529 O3579 2.606 . S
Gd3529 O3581 2.429 . S
Gd3529 O3582 2.545 1_554 S
Gd3529 O3583 2.412 1_554 S
Gd3529 C3596 2.828 1_554 S
C3530 C3533 1.417 . S
C3530 C3535 1.431 . S
C3530 C3536 1.412 . S
C3531 C3534 1.436 . S
C3531 C3535 1.317 . S
C3531 H3550 0.929 . S
C3532 C3533 1.426 . S
C3532 C3534 1.413 . S
C3532 N3542 1.359 1_554 S
C3533 C3530 1.417 . S
C3533 C3532 1.426 . S
C3533 N3538 1.350 . S
C3534 C3531 1.436 . S
C3534 C3532 1.413 . S
C3534 C3544 1.392 1_554 S
C3535 C3530 1.431 . S
C3535 C3531 1.317 . S
C3535 H3546 0.930 . S
C3536 C3530 1.412 . S
C3536 C3537 1.355 . S
C3536 H3548 0.930 . S
C3537 C3536 1.355 . S
C3537 C3539 1.402 . S
C3537 H3549 0.930 . S
N3538 Gd3529 2.661 . S
N3538 C3533 1.350 . S
N3538 C3539 1.307 . S
C3539 C3537 1.402 . S
C3539 N3538 1.307 . S
C3539 H3540 0.930 . S
H3540 C3539 0.930 . S
C3541 N3542 1.334 . S
C3541 C3543 1.394 . S
C3541 H3545 0.930 . S
N3542 Gd3529 2.601 1_556 S
N3542 C3532 1.359 1_556 S
N3542 C3541 1.334 . S
C3543 C3541 1.394 . S
C3543 C3544 1.359 . S
C3543 H3555 0.930 . S
C3544 C3534 1.392 1_556 S
C3544 C3543 1.359 . S
C3544 H3556 0.929 . S
H3545 C3541 0.930 . S
H3546 C3535 0.930 . S
H3547 C3564 0.930 . S
H3548 C3536 0.930 . S
H3549 C3537 0.930 . S
H3550 C3531 0.929 . S
H3551 C3569 0.930 . S
H3552 C3560 0.930 . S
H3553 C3561 0.930 1_556 S
H3554 C3585 0.929 . S
H3555 C3543 0.930 . S
H3556 C3544 0.929 . S
H3557 C3586 0.930 . S
H3558 C3567 0.930 . S
N3559 Gd3528 2.661 . S
N3559 C3563 1.350 . S
N3559 C3564 1.307 . S
C3560 H3552 0.930 . S
C3560 C3561 1.355 . S
C3560 C3562 1.412 . S
C3561 H3553 0.930 1_554 S
C3561 C3560 1.355 . S
C3561 C3564 1.402 . S
C3562 C3560 1.412 . S
C3562 C3563 1.417 . S
C3562 C3586 1.431 . S
C3563 N3559 1.350 . S
C3563 C3562 1.417 . S
C3563 C3566 1.426 . S
C3564 H3547 0.930 . S
C3564 N3559 1.307 . S
C3564 C3561 1.402 . S
N3565 Gd3528 2.601 . S
N3565 C3566 1.359 . S
N3565 C3569 1.334 . S
C3566 C3563 1.426 . S
C3566 N3565 1.359 . S
C3566 C3570 1.413 . S
C3567 H3558 0.930 . S
C3567 C3568 1.359 . S
C3567 C3569 1.394 . S
C3568 C3567 1.359 . S
C3568 C3570 1.391 . S
C3568 H3571 0.929 . S
C3569 H3551 0.930 . S
C3569 N3565 1.334 . S
C3569 C3567 1.394 . S
C3570 C3566 1.413 . S
C3570 C3568 1.391 . S
C3570 C3585 1.437 . S
H3571 C3568 0.929 . S
O3572 Gd3528 2.545 . S
O3572 C3587 1.258 . S
O3573 Gd3528 2.606 . S
O3573 Gd3529 2.362 . S
O3573 C3584 1.284 . S
O3574 Gd3529 2.324 . S
O3574 C3594 1.254 . S
O3575 Gd3528 2.429 . S
O3575 C3594 1.268 . S
O3576 Gd3528 2.545 . S
O3576 C3584 1.250 . S
O3577 Gd3528 2.412 . S
O3577 C3587 1.252 . S
O3578 Gd3529 2.545 1_556 S
O3578 C3596 1.258 . S
O3579 Gd3528 2.362 . S
O3579 Gd3529 2.606 . S
O3579 C3595 1.284 . S
O3580 Gd3528 2.324 . S
O3580 C3603 1.254 . S
O3581 Gd3529 2.429 . S
O3581 C3603 1.268 . S
O3582 Gd3529 2.545 1_556 S
O3582 C3595 1.250 1_556 S
O3583 Gd3529 2.412 1_556 S
O3583 C3596 1.252 . S
C3584 O3573 1.284 . S
C3584 O3576 1.250 . S
C3585 H3554 0.929 . S
C3585 C3570 1.437 . S
C3585 C3586 1.317 . S
C3586 H3557 0.930 . S
C3586 C3562 1.431 . S
C3586 C3585 1.317 . S
C3587 Gd3528 2.828 . S
C3587 O3572 1.258 . S
C3587 O3577 1.252 . S
C3587 C3588 1.497 . S
C3588 C3587 1.497 . S
C3588 C3589 1.395 . S
C3588 C3590 1.380 . S
C3589 C3588 1.395 . S
C3589 C3592 1.398 . S
C3589 H3604 0.930 . S
C3590 C3588 1.380 . S
C3590 C3591 1.391 . S
C3590 H3605 0.930 . S
C3591 C3590 1.391 . S
C3591 C3593 1.387 . S
C3592 C3589 1.398 . S
C3592 C3593 1.380 . S
C3592 H3606 0.930 . S
C3593 C3591 1.387 . S
C3593 C3592 1.380 . S
C3593 H3607 0.930 . S
C3594 O3574 1.254 . S
C3594 O3575 1.268 . S
C3595 O3579 1.284 . S
C3595 O3582 1.250 1_554 S
C3596 Gd3529 2.828 1_556 S
C3596 O3578 1.258 . S
C3596 O3583 1.252 . S
C3596 C3597 1.497 . S
C3597 C3596 1.497 . S
C3597 C3598 1.395 . S
C3597 C3599 1.380 . S
C3598 C3597 1.395 . S
C3598 C3601 1.398 . S
C3598 H3608 0.930 . S
C3599 C3597 1.380 . S
C3599 C3600 1.391 . S
C3599 H3609 0.930 . S
C3600 C3599 1.391 . S
C3600 C3602 1.387 . S
C3601 C3598 1.398 . S
C3601 C3602 1.380 . S
C3601 H3610 0.930 . S
C3602 C3600 1.387 . S
C3602 C3601 1.380 . S
C3602 H3611 0.930 . S
C3603 O3580 1.254 . S
C3603 O3581 1.268 . S
H3604 C3589 0.930 . S
H3605 C3590 0.930 . S
H3606 C3592 0.930 . S
H3607 C3593 0.930 . S
H3608 C3598 0.930 . S
H3609 C3599 0.930 . S
H3610 C3601 0.930 . S
H3611 C3602 0.930 . S
Gd3612 N3643 2.661 . S
Gd3612 N3649 2.601 . S
Gd3612 O3656 2.545 . S
Gd3612 O3657 2.606 . S
Gd3612 O3659 2.429 . S
Gd3612 O3660 2.545 . S
Gd3612 O3661 2.412 . S
Gd3612 O3663 2.362 . S
Gd3612 O3664 2.324 . S
Gd3612 C3671 2.828 . S
Gd3613 N3622 2.661 . S
Gd3613 N3626 2.601 . S
Gd3613 O3657 2.362 . S
Gd3613 O3658 2.324 . S
Gd3613 O3662 2.545 . S
Gd3613 O3663 2.606 . S
Gd3613 O3665 2.429 . S
Gd3613 O3666 2.545 . S
Gd3613 O3667 2.412 . S
Gd3613 C3680 2.828 . S
C3614 C3617 1.417 . S
C3614 C3619 1.431 . S
C3614 C3620 1.412 . S
C3615 C3618 1.437 . S
C3615 C3619 1.317 . S
C3615 H3634 0.929 . S
C3616 C3617 1.426 . S
C3616 C3618 1.413 . S
C3616 N3626 1.359 . S
C3617 C3614 1.417 . S
C3617 C3616 1.426 . S
C3617 N3622 1.350 . S
C3618 C3615 1.437 . S
C3618 C3616 1.413 . S
C3618 C3628 1.391 . S
C3619 C3614 1.431 . S
C3619 C3615 1.317 . S
C3619 H3630 0.930 . S
C3620 C3614 1.412 . S
C3620 C3621 1.355 . S
C3620 H3632 0.930 . S
C3621 C3620 1.355 . S
C3621 C3623 1.402 . S
C3621 H3633 0.930 . S
N3622 Gd3613 2.661 . S
N3622 C3617 1.350 . S
N3622 C3623 1.307 . S
C3623 C3621 1.402 . S
C3623 N3622 1.307 . S
C3623 H3624 0.930 . S
H3624 C3623 0.930 . S
C3625 N3626 1.334 . S
C3625 C3627 1.394 . S
C3625 H3629 0.930 . S
N3626 Gd3613 2.601 . S
N3626 C3616 1.359 . S
N3626 C3625 1.334 . S
C3627 C3625 1.394 . S
C3627 C3628 1.359 . S
C3627 H3639 0.930 . S
C3628 C3618 1.391 . S
C3628 C3627 1.359 . S
C3628 H3640 0.929 . S
H3629 C3625 0.930 . S
H3630 C3619 0.930 . S
H3631 C3648 0.930 . S
H3632 C3620 0.930 . S
H3633 C3621 0.930 . S
H3634 C3615 0.929 . S
H3635 C3653 0.930 . S
H3636 C3644 0.930 . S
H3637 C3645 0.930 . S
H3638 C3669 0.929 . S
H3639 C3627 0.930 . S
H3640 C3628 0.929 . S
H3641 C3670 0.930 . S
H3642 C3651 0.930 . S
N3643 Gd3612 2.661 . S
N3643 C3647 1.350 . S
N3643 C3648 1.307 . S
C3644 H3636 0.930 . S
C3644 C3645 1.355 . S
C3644 C3646 1.412 . S
C3645 H3637 0.930 . S
C3645 C3644 1.355 . S
C3645 C3648 1.402 . S
C3646 C3644 1.412 . S
C3646 C3647 1.417 . S
C3646 C3670 1.431 . S
C3647 N3643 1.350 . S
C3647 C3646 1.417 . S
C3647 C3650 1.426 . S
C3648 H3631 0.930 . S
C3648 N3643 1.307 . S
C3648 C3645 1.402 . S
N3649 Gd3612 2.601 . S
N3649 C3650 1.359 . S
N3649 C3653 1.334 . S
C3650 C3647 1.426 . S
C3650 N3649 1.359 . S
C3650 C3654 1.413 . S
C3651 H3642 0.930 . S
C3651 C3652 1.359 . S
C3651 C3653 1.394 . S
C3652 C3651 1.359 . S
C3652 C3654 1.391 . S
C3652 H3655 0.929 . S
C3653 H3635 0.930 . S
C3653 N3649 1.334 . S
C3653 C3651 1.394 . S
C3654 C3650 1.413 . S
C3654 C3652 1.391 . S
C3654 C3669 1.437 . S
H3655 C3652 0.929 . S
O3656 Gd3612 2.545 . S
O3656 C3671 1.258 . S
O3657 Gd3612 2.606 . S
O3657 Gd3613 2.362 . S
O3657 C3668 1.284 . S
O3658 Gd3613 2.324 . S
O3658 C3678 1.254 . S
O3659 Gd3612 2.429 . S
O3659 C3678 1.268 . S
O3660 Gd3612 2.545 . S
O3660 C3668 1.250 . S
O3661 Gd3612 2.412 . S
O3661 C3671 1.252 . S
O3662 Gd3613 2.545 . S
O3662 C3680 1.258 . S
O3663 Gd3612 2.362 . S
O3663 Gd3613 2.606 . S
O3663 C3679 1.284 . S
O3664 Gd3612 2.324 . S
O3664 C3687 1.254 . S
O3665 Gd3613 2.429 . S
O3665 C3687 1.268 . S
O3666 Gd3613 2.545 . S
O3666 C3679 1.250 . S
O3667 Gd3613 2.412 . S
O3667 C3680 1.252 . S
C3668 O3657 1.284 . S
C3668 O3660 1.250 . S
C3669 H3638 0.929 . S
C3669 C3654 1.437 . S
C3669 C3670 1.317 . S
C3670 H3641 0.930 . S
C3670 C3646 1.431 . S
C3670 C3669 1.317 . S
C3671 Gd3612 2.828 . S
C3671 O3656 1.258 . S
C3671 O3661 1.252 . S
C3671 C3672 1.497 . S
C3672 C3671 1.497 . S
C3672 C3673 1.395 . S
C3672 C3674 1.380 . S
C3673 C3672 1.395 . S
C3673 C3676 1.398 . S
C3673 H3688 0.930 . S
C3674 C3672 1.380 . S
C3674 C3675 1.391 . S
C3674 H3689 0.930 . S
C3675 C3674 1.391 . S
C3675 C3677 1.387 . S
C3676 C3673 1.398 . S
C3676 C3677 1.380 . S
C3676 H3690 0.930 . S
C3677 C3675 1.387 . S
C3677 C3676 1.380 . S
C3677 H3691 0.930 . S
C3678 O3658 1.254 . S
C3678 O3659 1.268 . S
C3679 O3663 1.284 . S
C3679 O3666 1.250 . S
C3680 Gd3613 2.828 . S
C3680 O3662 1.258 . S
C3680 O3667 1.252 . S
C3680 C3681 1.497 . S
C3681 C3680 1.497 . S
C3681 C3682 1.395 . S
C3681 C3683 1.380 . S
C3682 C3681 1.395 . S
C3682 C3685 1.398 . S
C3682 H3692 0.930 . S
C3683 C3681 1.380 . S
C3683 C3684 1.391 . S
C3683 H3693 0.930 . S
C3684 C3683 1.391 . S
C3684 C3686 1.387 . S
C3685 C3682 1.398 . S
C3685 C3686 1.380 . S
C3685 H3694 0.930 . S
C3686 C3684 1.387 . S
C3686 C3685 1.380 . S
C3686 H3695 0.930 . S
C3687 O3664 1.254 . S
C3687 O3665 1.268 . S
H3688 C3673 0.930 . S
H3689 C3674 0.930 . S
H3690 C3676 0.930 . S
H3691 C3677 0.930 . S
H3692 C3682 0.930 . S
H3693 C3683 0.930 . S
H3694 C3685 0.930 . S
H3695 C3686 0.930 . S
Gd3696 N3727 2.661 . S
Gd3696 N3733 2.601 . S
Gd3696 O3740 2.545 . S
Gd3696 O3741 2.606 . S
Gd3696 O3743 2.429 . S
Gd3696 O3744 2.545 . S
Gd3696 O3745 2.412 . S
Gd3696 O3747 2.362 . S
Gd3696 O3748 2.324 . S
Gd3696 C3755 2.828 . S
Gd3697 N3706 2.661 . S
Gd3697 N3710 2.601 . S
Gd3697 O3741 2.362 . S
Gd3697 O3742 2.324 . S
Gd3697 O3746 2.545 . S
Gd3697 O3747 2.606 . S
Gd3697 O3749 2.429 . S
Gd3697 O3750 2.545 . S
Gd3697 O3751 2.412 . S
Gd3697 C3764 2.828 . S
C3698 C3701 1.417 . S
C3698 C3703 1.431 . S
C3698 C3704 1.412 . S
C3699 C3702 1.437 . S
C3699 C3703 1.317 . S
C3699 H3718 0.929 . S
C3700 C3701 1.426 . S
C3700 C3702 1.413 . S
C3700 N3710 1.359 . S
C3701 C3698 1.417 . S
C3701 C3700 1.426 . S
C3701 N3706 1.350 . S
C3702 C3699 1.437 . S
C3702 C3700 1.413 . S
C3702 C3712 1.391 . S
C3703 C3698 1.431 . S
C3703 C3699 1.317 . S
C3703 H3714 0.930 . S
C3704 C3698 1.412 . S
C3704 C3705 1.355 . S
C3704 H3716 0.930 . S
C3705 C3704 1.355 . S
C3705 C3707 1.402 . S
C3705 H3717 0.930 . S
N3706 Gd3697 2.661 . S
N3706 C3701 1.350 . S
N3706 C3707 1.307 . S
C3707 C3705 1.402 . S
C3707 N3706 1.307 . S
C3707 H3708 0.930 . S
H3708 C3707 0.930 . S
C3709 N3710 1.334 . S
C3709 C3711 1.394 . S
C3709 H3713 0.930 . S
N3710 Gd3697 2.601 . S
N3710 C3700 1.359 . S
N3710 C3709 1.334 . S
C3711 C3709 1.394 . S
C3711 C3712 1.359 . S
C3711 H3723 0.930 . S
C3712 C3702 1.391 . S
C3712 C3711 1.359 . S
C3712 H3724 0.929 . S
H3713 C3709 0.930 . S
H3714 C3703 0.930 . S
H3715 C3732 0.930 . S
H3716 C3704 0.930 . S
H3717 C3705 0.930 . S
H3718 C3699 0.929 . S
H3719 C3737 0.930 . S
H3720 C3728 0.930 . S
H3721 C3729 0.930 . S
H3722 C3753 0.929 . S
H3723 C3711 0.930 . S
H3724 C3712 0.929 . S
H3725 C3754 0.930 . S
H3726 C3735 0.930 . S
N3727 Gd3696 2.661 . S
N3727 C3731 1.350 . S
N3727 C3732 1.307 . S
C3728 H3720 0.930 . S
C3728 C3729 1.355 . S
C3728 C3730 1.412 . S
C3729 H3721 0.930 . S
C3729 C3728 1.355 . S
C3729 C3732 1.402 . S
C3730 C3728 1.412 . S
C3730 C3731 1.417 . S
C3730 C3754 1.431 . S
C3731 N3727 1.350 . S
C3731 C3730 1.417 . S
C3731 C3734 1.426 . S
C3732 H3715 0.930 . S
C3732 N3727 1.307 . S
C3732 C3729 1.402 . S
N3733 Gd3696 2.601 . S
N3733 C3734 1.359 . S
N3733 C3737 1.334 . S
C3734 C3731 1.426 . S
C3734 N3733 1.359 . S
C3734 C3738 1.413 . S
C3735 H3726 0.930 . S
C3735 C3736 1.359 . S
C3735 C3737 1.394 . S
C3736 C3735 1.359 . S
C3736 C3738 1.391 . S
C3736 H3739 0.929 . S
C3737 H3719 0.930 . S
C3737 N3733 1.334 . S
C3737 C3735 1.394 . S
C3738 C3734 1.413 . S
C3738 C3736 1.391 . S
C3738 C3753 1.437 . S
H3739 C3736 0.929 . S
O3740 Gd3696 2.545 . S
O3740 C3755 1.258 . S
O3741 Gd3696 2.606 . S
O3741 Gd3697 2.362 . S
O3741 C3752 1.284 . S
O3742 Gd3697 2.324 . S
O3742 C3762 1.254 . S
O3743 Gd3696 2.429 . S
O3743 C3762 1.268 . S
O3744 Gd3696 2.545 . S
O3744 C3752 1.250 . S
O3745 Gd3696 2.412 . S
O3745 C3755 1.252 . S
O3746 Gd3697 2.545 . S
O3746 C3764 1.258 . S
O3747 Gd3696 2.362 . S
O3747 Gd3697 2.606 . S
O3747 C3763 1.284 . S
O3748 Gd3696 2.324 . S
O3748 C3771 1.254 . S
O3749 Gd3697 2.429 . S
O3749 C3771 1.268 . S
O3750 Gd3697 2.545 . S
O3750 C3763 1.250 . S
O3751 Gd3697 2.412 . S
O3751 C3764 1.252 . S
C3752 O3741 1.284 . S
C3752 O3744 1.250 . S
C3753 H3722 0.929 . S
C3753 C3738 1.437 . S
C3753 C3754 1.317 . S
C3754 H3725 0.930 . S
C3754 C3730 1.431 . S
C3754 C3753 1.317 . S
C3755 Gd3696 2.828 . S
C3755 O3740 1.258 . S
C3755 O3745 1.252 . S
C3755 C3756 1.497 . S
C3756 C3755 1.497 . S
C3756 C3757 1.395 . S
C3756 C3758 1.380 . S
C3757 C3756 1.395 . S
C3757 C3760 1.398 . S
C3757 H3772 0.930 . S
C3758 C3756 1.380 . S
C3758 C3759 1.391 . S
C3758 H3773 0.930 . S
C3759 C3758 1.391 . S
C3759 C3761 1.387 . S
C3760 C3757 1.398 . S
C3760 C3761 1.380 . S
C3760 H3774 0.930 . S
C3761 C3759 1.387 . S
C3761 C3760 1.380 . S
C3761 H3775 0.930 . S
C3762 O3742 1.254 . S
C3762 O3743 1.268 . S
C3763 O3747 1.284 . S
C3763 O3750 1.250 . S
C3764 Gd3697 2.828 . S
C3764 O3746 1.258 . S
C3764 O3751 1.252 . S
C3764 C3765 1.497 . S
C3765 C3764 1.497 . S
C3765 C3766 1.395 . S
C3765 C3767 1.380 . S
C3766 C3765 1.395 . S
C3766 C3769 1.398 . S
C3766 H3776 0.930 . S
C3767 C3765 1.380 . S
C3767 C3768 1.391 . S
C3767 H3777 0.930 . S
C3768 C3767 1.391 . S
C3768 C3770 1.387 . S
C3769 C3766 1.398 . S
C3769 C3770 1.380 . S
C3769 H3778 0.930 . S
C3770 C3768 1.387 . S
C3770 C3769 1.380 . S
C3770 H3779 0.930 . S
C3771 O3748 1.254 . S
C3771 O3749 1.268 . S
H3772 C3757 0.930 . S
H3773 C3758 0.930 . S
H3774 C3760 0.930 . S
H3775 C3761 0.930 . S
H3776 C3766 0.930 . S
H3777 C3767 0.930 . S
H3778 C3769 0.930 . S
H3779 C3770 0.930 . S
Gd3780 N3811 2.661 . S
Gd3780 N3817 2.601 . S
Gd3780 O3824 2.545 . S
Gd3780 O3825 2.606 . S
Gd3780 O3827 2.429 . S
Gd3780 O3828 2.545 . S
Gd3780 O3829 2.412 . S
Gd3780 O3831 2.362 . S
Gd3780 O3832 2.324 . S
Gd3780 C3839 2.828 . S
Gd3781 N3790 2.661 . S
Gd3781 N3794 2.601 . S
Gd3781 O3825 2.362 . S
Gd3781 O3826 2.324 . S
Gd3781 O3830 2.545 . S
Gd3781 O3831 2.606 . S
Gd3781 O3833 2.429 . S
Gd3781 O3834 2.545 . S
Gd3781 O3835 2.412 . S
Gd3781 C3848 2.828 . S
C3782 C3785 1.417 . S
C3782 C3787 1.431 . S
C3782 C3788 1.412 . S
C3783 C3786 1.437 . S
C3783 C3787 1.317 . S
C3783 H3802 0.929 . S
C3784 C3785 1.426 . S
C3784 C3786 1.413 . S
C3784 N3794 1.359 . S
C3785 C3782 1.417 . S
C3785 C3784 1.426 . S
C3785 N3790 1.350 . S
C3786 C3783 1.437 . S
C3786 C3784 1.413 . S
C3786 C3796 1.391 . S
C3787 C3782 1.431 . S
C3787 C3783 1.317 . S
C3787 H3798 0.930 . S
C3788 C3782 1.412 . S
C3788 C3789 1.355 . S
C3788 H3800 0.930 . S
C3789 C3788 1.355 . S
C3789 C3791 1.402 . S
C3789 H3801 0.930 . S
N3790 Gd3781 2.661 . S
N3790 C3785 1.350 . S
N3790 C3791 1.307 . S
C3791 C3789 1.402 . S
C3791 N3790 1.307 . S
C3791 H3792 0.930 . S
H3792 C3791 0.930 . S
C3793 N3794 1.334 . S
C3793 C3795 1.394 . S
C3793 H3797 0.930 . S
N3794 Gd3781 2.601 . S
N3794 C3784 1.359 . S
N3794 C3793 1.334 . S
C3795 C3793 1.394 . S
C3795 C3796 1.359 . S
C3795 H3807 0.930 . S
C3796 C3786 1.391 . S
C3796 C3795 1.359 . S
C3796 H3808 0.929 . S
H3797 C3793 0.930 . S
H3798 C3787 0.930 . S
H3799 C3816 0.930 . S
H3800 C3788 0.930 . S
H3801 C3789 0.930 . S
H3802 C3783 0.929 . S
H3803 C3821 0.930 . S
H3804 C3812 0.930 . S
H3805 C3813 0.930 . S
H3806 C3837 0.929 . S
H3807 C3795 0.930 . S
H3808 C3796 0.929 . S
H3809 C3838 0.930 . S
H3810 C3819 0.930 . S
N3811 Gd3780 2.661 . S
N3811 C3815 1.350 . S
N3811 C3816 1.307 . S
C3812 H3804 0.930 . S
C3812 C3813 1.355 . S
C3812 C3814 1.412 . S
C3813 H3805 0.930 . S
C3813 C3812 1.355 . S
C3813 C3816 1.402 . S
C3814 C3812 1.412 . S
C3814 C3815 1.417 . S
C3814 C3838 1.431 . S
C3815 N3811 1.350 . S
C3815 C3814 1.417 . S
C3815 C3818 1.426 . S
C3816 H3799 0.930 . S
C3816 N3811 1.307 . S
C3816 C3813 1.402 . S
N3817 Gd3780 2.601 . S
N3817 C3818 1.359 . S
N3817 C3821 1.334 . S
C3818 C3815 1.426 . S
C3818 N3817 1.359 . S
C3818 C3822 1.413 . S
C3819 H3810 0.930 . S
C3819 C3820 1.359 . S
C3819 C3821 1.394 . S
C3820 C3819 1.359 . S
C3820 C3822 1.391 . S
C3820 H3823 0.929 . S
C3821 H3803 0.930 . S
C3821 N3817 1.334 . S
C3821 C3819 1.394 . S
C3822 C3818 1.413 . S
C3822 C3820 1.391 . S
C3822 C3837 1.437 . S
H3823 C3820 0.929 . S
O3824 Gd3780 2.545 . S
O3824 C3839 1.258 . S
O3825 Gd3780 2.606 . S
O3825 Gd3781 2.362 . S
O3825 C3836 1.284 . S
O3826 Gd3781 2.324 . S
O3826 C3846 1.254 . S
O3827 Gd3780 2.429 . S
O3827 C3846 1.268 . S
O3828 Gd3780 2.545 . S
O3828 C3836 1.250 . S
O3829 Gd3780 2.412 . S
O3829 C3839 1.252 . S
O3830 Gd3781 2.545 . S
O3830 C3848 1.258 . S
O3831 Gd3780 2.362 . S
O3831 Gd3781 2.606 . S
O3831 C3847 1.284 . S
O3832 Gd3780 2.324 . S
O3832 C3855 1.254 . S
O3833 Gd3781 2.429 . S
O3833 C3855 1.268 . S
O3834 Gd3781 2.545 . S
O3834 C3847 1.250 . S
O3835 Gd3781 2.412 . S
O3835 C3848 1.252 . S
C3836 O3825 1.284 . S
C3836 O3828 1.250 . S
C3837 H3806 0.929 . S
C3837 C3822 1.437 . S
C3837 C3838 1.317 . S
C3838 H3809 0.930 . S
C3838 C3814 1.431 . S
C3838 C3837 1.317 . S
C3839 Gd3780 2.828 . S
C3839 O3824 1.258 . S
C3839 O3829 1.252 . S
C3839 C3840 1.497 . S
C3840 C3839 1.497 . S
C3840 C3841 1.395 . S
C3840 C3842 1.380 . S
C3841 C3840 1.395 . S
C3841 C3844 1.398 . S
C3841 H3856 0.930 . S
C3842 C3840 1.380 . S
C3842 C3843 1.391 . S
C3842 H3857 0.930 . S
C3843 C3842 1.391 . S
C3843 C3845 1.387 . S
C3844 C3841 1.398 . S
C3844 C3845 1.380 . S
C3844 H3858 0.930 . S
C3845 C3843 1.387 . S
C3845 C3844 1.380 . S
C3845 H3859 0.930 . S
C3846 O3826 1.254 . S
C3846 O3827 1.268 . S
C3847 O3831 1.284 . S
C3847 O3834 1.250 . S
C3848 Gd3781 2.828 . S
C3848 O3830 1.258 . S
C3848 O3835 1.252 . S
C3848 C3849 1.497 . S
C3849 C3848 1.497 . S
C3849 C3850 1.395 . S
C3849 C3851 1.380 . S
C3850 C3849 1.395 . S
C3850 C3853 1.398 . S
C3850 H3860 0.930 . S
C3851 C3849 1.380 . S
C3851 C3852 1.391 . S
C3851 H3861 0.930 . S
C3852 C3851 1.391 . S
C3852 C3854 1.387 . S
C3853 C3850 1.398 . S
C3853 C3854 1.380 . S
C3853 H3862 0.930 . S
C3854 C3852 1.387 . S
C3854 C3853 1.380 . S
C3854 H3863 0.930 . S
C3855 O3832 1.254 . S
C3855 O3833 1.268 . S
H3856 C3841 0.930 . S
H3857 C3842 0.930 . S
H3858 C3844 0.930 . S
H3859 C3845 0.930 . S
H3860 C3850 0.930 . S
H3861 C3851 0.930 . S
H3862 C3853 0.930 . S
H3863 C3854 0.930 . S
Gd3864 N3895 2.661 . S
Gd3864 N3901 2.601 . S
Gd3864 O3908 2.545 . S
Gd3864 O3909 2.606 . S
Gd3864 O3911 2.429 . S
Gd3864 O3912 2.545 . S
Gd3864 O3913 2.412 . S
Gd3864 O3915 2.362 . S
Gd3864 O3916 2.324 . S
Gd3864 C3923 2.828 . S
Gd3865 N3874 2.661 . S
Gd3865 N3878 2.601 . S
Gd3865 O3909 2.362 . S
Gd3865 O3910 2.324 . S
Gd3865 O3914 2.545 . S
Gd3865 O3915 2.606 . S
Gd3865 O3917 2.429 . S
Gd3865 O3918 2.545 . S
Gd3865 O3919 2.412 . S
Gd3865 C3932 2.828 . S
C3866 C3869 1.417 . S
C3866 C3871 1.431 . S
C3866 C3872 1.412 . S
C3867 C3870 1.437 . S
C3867 C3871 1.317 . S
C3867 H3886 0.929 . S
C3868 C3869 1.426 . S
C3868 C3870 1.413 . S
C3868 N3878 1.359 . S
C3869 C3866 1.417 . S
C3869 C3868 1.426 . S
C3869 N3874 1.350 . S
C3870 C3867 1.437 . S
C3870 C3868 1.413 . S
C3870 C3880 1.391 . S
C3871 C3866 1.431 . S
C3871 C3867 1.317 . S
C3871 H3882 0.930 . S
C3872 C3866 1.412 . S
C3872 C3873 1.355 . S
C3872 H3884 0.930 . S
C3873 C3872 1.355 . S
C3873 C3875 1.402 . S
C3873 H3885 0.930 . S
N3874 Gd3865 2.661 . S
N3874 C3869 1.350 . S
N3874 C3875 1.307 . S
C3875 C3873 1.402 . S
C3875 N3874 1.307 . S
C3875 H3876 0.930 . S
H3876 C3875 0.930 . S
C3877 N3878 1.334 . S
C3877 C3879 1.394 . S
C3877 H3881 0.930 . S
N3878 Gd3865 2.601 . S
N3878 C3868 1.359 . S
N3878 C3877 1.334 . S
C3879 C3877 1.394 . S
C3879 C3880 1.359 . S
C3879 H3891 0.930 . S
C3880 C3870 1.391 . S
C3880 C3879 1.359 . S
C3880 H3892 0.929 . S
H3881 C3877 0.930 . S
H3882 C3871 0.930 . S
H3883 C3900 0.930 . S
H3884 C3872 0.930 . S
H3885 C3873 0.930 . S
H3886 C3867 0.929 . S
H3887 C3905 0.930 . S
H3888 C3896 0.930 . S
H3889 C3897 0.930 . S
H3890 C3921 0.929 . S
H3891 C3879 0.930 . S
H3892 C3880 0.929 . S
H3893 C3922 0.930 . S
H3894 C3903 0.930 . S
N3895 Gd3864 2.661 . S
N3895 C3899 1.350 . S
N3895 C3900 1.307 . S
C3896 H3888 0.930 . S
C3896 C3897 1.355 . S
C3896 C3898 1.412 . S
C3897 H3889 0.930 . S
C3897 C3896 1.355 . S
C3897 C3900 1.402 . S
C3898 C3896 1.412 . S
C3898 C3899 1.417 . S
C3898 C3922 1.431 . S
C3899 N3895 1.350 . S
C3899 C3898 1.417 . S
C3899 C3902 1.426 . S
C3900 H3883 0.930 . S
C3900 N3895 1.307 . S
C3900 C3897 1.402 . S
N3901 Gd3864 2.601 . S
N3901 C3902 1.359 . S
N3901 C3905 1.334 . S
C3902 C3899 1.426 . S
C3902 N3901 1.359 . S
C3902 C3906 1.413 . S
C3903 H3894 0.930 . S
C3903 C3904 1.359 . S
C3903 C3905 1.394 . S
C3904 C3903 1.359 . S
C3904 C3906 1.391 . S
C3904 H3907 0.929 . S
C3905 H3887 0.930 . S
C3905 N3901 1.334 . S
C3905 C3903 1.394 . S
C3906 C3902 1.413 . S
C3906 C3904 1.391 . S
C3906 C3921 1.437 . S
H3907 C3904 0.929 . S
O3908 Gd3864 2.545 . S
O3908 C3923 1.258 . S
O3909 Gd3864 2.606 . S
O3909 Gd3865 2.362 . S
O3909 C3920 1.284 . S
O3910 Gd3865 2.324 . S
O3910 C3930 1.254 . S
O3911 Gd3864 2.429 . S
O3911 C3930 1.268 . S
O3912 Gd3864 2.545 . S
O3912 C3920 1.250 . S
O3913 Gd3864 2.412 . S
O3913 C3923 1.252 . S
O3914 Gd3865 2.545 . S
O3914 C3932 1.258 . S
O3915 Gd3864 2.362 . S
O3915 Gd3865 2.606 . S
O3915 C3931 1.284 . S
O3916 Gd3864 2.324 . S
O3916 C3939 1.254 . S
O3917 Gd3865 2.429 . S
O3917 C3939 1.268 . S
O3918 Gd3865 2.545 . S
O3918 C3931 1.250 . S
O3919 Gd3865 2.412 . S
O3919 C3932 1.252 . S
C3920 O3909 1.284 . S
C3920 O3912 1.250 . S
C3921 H3890 0.929 . S
C3921 C3906 1.437 . S
C3921 C3922 1.317 . S
C3922 H3893 0.930 . S
C3922 C3898 1.431 . S
C3922 C3921 1.317 . S
C3923 Gd3864 2.828 . S
C3923 O3908 1.258 . S
C3923 O3913 1.252 . S
C3923 C3924 1.497 . S
C3924 C3923 1.497 . S
C3924 C3925 1.395 . S
C3924 C3926 1.380 . S
C3925 C3924 1.395 . S
C3925 C3928 1.398 . S
C3925 H3940 0.930 . S
C3926 C3924 1.380 . S
C3926 C3927 1.391 . S
C3926 H3941 0.930 . S
C3927 C3926 1.391 . S
C3927 C3929 1.387 . S
C3928 C3925 1.398 . S
C3928 C3929 1.380 . S
C3928 H3942 0.930 . S
C3929 C3927 1.387 . S
C3929 C3928 1.380 . S
C3929 H3943 0.930 . S
C3930 O3910 1.254 . S
C3930 O3911 1.268 . S
C3931 O3915 1.284 . S
C3931 O3918 1.250 . S
C3932 Gd3865 2.828 . S
C3932 O3914 1.258 . S
C3932 O3919 1.252 . S
C3932 C3933 1.497 . S
C3933 C3932 1.497 . S
C3933 C3934 1.395 . S
C3933 C3935 1.380 . S
C3934 C3933 1.395 . S
C3934 C3937 1.398 . S
C3934 H3944 0.930 . S
C3935 C3933 1.380 . S
C3935 C3936 1.391 . S
C3935 H3945 0.930 . S
C3936 C3935 1.391 . S
C3936 C3938 1.387 . S
C3937 C3934 1.398 . S
C3937 C3938 1.380 . S
C3937 H3946 0.930 . S
C3938 C3936 1.387 . S
C3938 C3937 1.380 . S
C3938 H3947 0.930 . S
C3939 O3916 1.254 . S
C3939 O3917 1.268 . S
H3940 C3925 0.930 . S
H3941 C3926 0.930 . S
H3942 C3928 0.930 . S
H3943 C3929 0.930 . S
H3944 C3934 0.930 . S
H3945 C3935 0.930 . S
H3946 C3937 0.930 . S
H3947 C3938 0.930 . S
Gd3948 N3979 2.661 . S
Gd3948 N3985 2.601 . S
Gd3948 O3992 2.545 . S
Gd3948 O3993 2.606 . S
Gd3948 O3995 2.429 . S
Gd3948 O3996 2.545 . S
Gd3948 O3997 2.412 . S
Gd3948 O3999 2.362 . S
Gd3948 O4000 2.324 . S
Gd3948 C4007 2.828 . S
Gd3949 N3958 2.661 . S
Gd3949 N3962 2.601 . S
Gd3949 O3993 2.362 . S
Gd3949 O3994 2.324 . S
Gd3949 O3998 2.545 . S
Gd3949 O3999 2.606 . S
Gd3949 O4001 2.429 . S
Gd3949 O4002 2.545 . S
Gd3949 O4003 2.412 . S
Gd3949 C4016 2.828 . S
C3950 C3953 1.417 . S
C3950 C3955 1.431 . S
C3950 C3956 1.412 . S
C3951 C3954 1.437 . S
C3951 C3955 1.317 . S
C3951 H3970 0.929 . S
C3952 C3953 1.426 . S
C3952 C3954 1.413 . S
C3952 N3962 1.359 . S
C3953 C3950 1.417 . S
C3953 C3952 1.426 . S
C3953 N3958 1.350 . S
C3954 C3951 1.437 . S
C3954 C3952 1.413 . S
C3954 C3964 1.391 . S
C3955 C3950 1.431 . S
C3955 C3951 1.317 . S
C3955 H3966 0.930 . S
C3956 C3950 1.412 . S
C3956 C3957 1.355 . S
C3956 H3968 0.930 . S
C3957 C3956 1.355 . S
C3957 C3959 1.402 . S
C3957 H3969 0.930 . S
N3958 Gd3949 2.661 . S
N3958 C3953 1.350 . S
N3958 C3959 1.307 . S
C3959 C3957 1.402 . S
C3959 N3958 1.307 . S
C3959 H3960 0.930 . S
H3960 C3959 0.930 . S
C3961 N3962 1.334 . S
C3961 C3963 1.394 . S
C3961 H3965 0.930 . S
N3962 Gd3949 2.601 . S
N3962 C3952 1.359 . S
N3962 C3961 1.334 . S
C3963 C3961 1.394 . S
C3963 C3964 1.359 . S
C3963 H3975 0.930 . S
C3964 C3954 1.391 . S
C3964 C3963 1.359 . S
C3964 H3976 0.929 . S
H3965 C3961 0.930 . S
H3966 C3955 0.930 . S
H3967 C3984 0.930 . S
H3968 C3956 0.930 . S
H3969 C3957 0.930 . S
H3970 C3951 0.929 . S
H3971 C3989 0.930 . S
H3972 C3980 0.930 . S
H3973 C3981 0.930 . S
H3974 C4005 0.929 . S
H3975 C3963 0.930 . S
H3976 C3964 0.929 . S
H3977 C4006 0.930 . S
H3978 C3987 0.930 . S
N3979 Gd3948 2.661 . S
N3979 C3983 1.350 . S
N3979 C3984 1.307 . S
C3980 H3972 0.930 . S
C3980 C3981 1.355 . S
C3980 C3982 1.412 . S
C3981 H3973 0.930 . S
C3981 C3980 1.355 . S
C3981 C3984 1.402 . S
C3982 C3980 1.412 . S
C3982 C3983 1.417 . S
C3982 C4006 1.431 . S
C3983 N3979 1.350 . S
C3983 C3982 1.417 . S
C3983 C3986 1.426 . S
C3984 H3967 0.930 . S
C3984 N3979 1.307 . S
C3984 C3981 1.402 . S
N3985 Gd3948 2.601 . S
N3985 C3986 1.359 . S
N3985 C3989 1.334 . S
C3986 C3983 1.426 . S
C3986 N3985 1.359 . S
C3986 C3990 1.413 . S
C3987 H3978 0.930 . S
C3987 C3988 1.359 . S
C3987 C3989 1.394 . S
C3988 C3987 1.359 . S
C3988 C3990 1.391 . S
C3988 H3991 0.929 . S
C3989 H3971 0.930 . S
C3989 N3985 1.334 . S
C3989 C3987 1.394 . S
C3990 C3986 1.413 . S
C3990 C3988 1.391 . S
C3990 C4005 1.437 . S
H3991 C3988 0.929 . S
O3992 Gd3948 2.545 . S
O3992 C4007 1.258 . S
O3993 Gd3948 2.606 . S
O3993 Gd3949 2.362 . S
O3993 C4004 1.284 . S
O3994 Gd3949 2.324 . S
O3994 C4014 1.254 . S
O3995 Gd3948 2.429 . S
O3995 C4014 1.268 . S
O3996 Gd3948 2.545 . S
O3996 C4004 1.250 . S
O3997 Gd3948 2.412 . S
O3997 C4007 1.252 . S
O3998 Gd3949 2.545 . S
O3998 C4016 1.258 . S
O3999 Gd3948 2.362 . S
O3999 Gd3949 2.606 . S
O3999 C4015 1.284 . S
O4000 Gd3948 2.324 . S
O4000 C4023 1.254 . S
O4001 Gd3949 2.429 . S
O4001 C4023 1.268 . S
O4002 Gd3949 2.545 . S
O4002 C4015 1.250 . S
O4003 Gd3949 2.412 . S
O4003 C4016 1.252 . S
C4004 O3993 1.284 . S
C4004 O3996 1.250 . S
C4005 H3974 0.929 . S
C4005 C3990 1.437 . S
C4005 C4006 1.317 . S
C4006 H3977 0.930 . S
C4006 C3982 1.431 . S
C4006 C4005 1.317 . S
C4007 Gd3948 2.828 . S
C4007 O3992 1.258 . S
C4007 O3997 1.252 . S
C4007 C4008 1.497 . S
C4008 C4007 1.497 . S
C4008 C4009 1.395 . S
C4008 C4010 1.380 . S
C4009 C4008 1.395 . S
C4009 C4012 1.398 . S
C4009 H4024 0.930 . S
C4010 C4008 1.380 . S
C4010 C4011 1.391 . S
C4010 H4025 0.930 . S
C4011 C4010 1.391 . S
C4011 C4013 1.387 . S
C4012 C4009 1.398 . S
C4012 C4013 1.380 . S
C4012 H4026 0.930 . S
C4013 C4011 1.387 . S
C4013 C4012 1.380 . S
C4013 H4027 0.930 . S
C4014 O3994 1.254 . S
C4014 O3995 1.268 . S
C4015 O3999 1.284 . S
C4015 O4002 1.250 . S
C4016 Gd3949 2.828 . S
C4016 O3998 1.258 . S
C4016 O4003 1.252 . S
C4016 C4017 1.497 . S
C4017 C4016 1.497 . S
C4017 C4018 1.395 . S
C4017 C4019 1.380 . S
C4018 C4017 1.395 . S
C4018 C4021 1.398 . S
C4018 H4028 0.930 . S
C4019 C4017 1.380 . S
C4019 C4020 1.391 . S
C4019 H4029 0.930 . S
C4020 C4019 1.391 . S
C4020 C4022 1.387 . S
C4021 C4018 1.398 . S
C4021 C4022 1.380 . S
C4021 H4030 0.930 . S
C4022 C4020 1.387 . S
C4022 C4021 1.380 . S
C4022 H4031 0.930 . S
C4023 O4000 1.254 . S
C4023 O4001 1.268 . S
H4024 C4009 0.930 . S
H4025 C4010 0.930 . S
H4026 C4012 0.930 . S
H4027 C4013 0.930 . S
H4028 C4018 0.930 . S
H4029 C4019 0.930 . S
H4030 C4021 0.930 . S
H4031 C4022 0.930 . S
C4032 C4033 1.391 . S
C4032 C4034 1.394 . S
C4032 H4048 0.931 . S
C4033 C4032 1.391 . S
C4033 C4037 1.376 . S
C4034 C4032 1.394 . S
C4034 C4035 1.369 . S
C4034 C4038 1.531 . S
C4035 C4034 1.369 . S
C4035 C4036 1.410 . S
C4035 C4043 1.503 . S
C4036 C4035 1.410 . S
C4036 C4037 1.392 . S
C4036 C4039 1.511 1_455 S
C4037 C4033 1.376 . S
C4037 C4036 1.392 . S
C4037 H4049 0.929 1_455 S
C4038 C4034 1.531 . S
C4038 H4050 0.960 . S
C4038 H4051 0.962 . S
C4038 H4052 0.960 . S
C4039 C4036 1.511 1_655 S
C4039 H4053 0.961 . S
C4039 H4054 0.961 . S
C4039 H4055 0.961 . S
C4040 C4041 1.370 . S
C4040 C4042 1.363 . S
C4040 H4056 0.931 . S
C4041 C4040 1.370 . S
C4041 C4045 1.408 . S
C4042 C4040 1.363 . S
C4042 C4043 1.370 . S
C4042 C4046 1.524 . S
C4043 C4035 1.503 . S
C4043 C4042 1.370 . S
C4043 C4044 1.403 . S
C4044 C4043 1.403 . S
C4044 C4045 1.404 . S
C4044 C4047 1.539 1_455 S
C4045 C4041 1.408 . S
C4045 C4044 1.404 . S
C4045 H4057 0.930 1_455 S
C4046 C4042 1.524 . S
C4046 H4058 0.956 . S
C4046 H4059 0.961 . S
C4046 H4060 0.961 . S
C4047 C4044 1.539 1_655 S
C4047 H4061 0.958 . S
C4047 H4062 0.961 . S
C4047 H4063 0.960 . S
H4048 C4032 0.931 . S
H4049 C4037 0.929 1_655 S
H4050 C4038 0.960 . S
H4051 C4038 0.962 . S
H4052 C4038 0.960 . S
H4053 C4039 0.961 . S
H4054 C4039 0.961 . S
H4055 C4039 0.961 . S
H4056 C4040 0.931 . S
H4057 C4045 0.930 1_655 S
H4058 C4046 0.956 . S
H4059 C4046 0.961 . S
H4060 C4046 0.961 . S
H4061 C4047 0.958 . S
H4062 C4047 0.961 . S
H4063 C4047 0.960 . S
C4064 C4065 1.391 . S
C4064 C4066 1.394 . S
C4064 H4080 0.931 . S
C4065 C4064 1.391 . S
C4065 C4069 1.376 . S
C4066 C4064 1.394 . S
C4066 C4067 1.369 . S
C4066 C4070 1.531 . S
C4067 C4066 1.369 . S
C4067 C4068 1.410 . S
C4067 C4075 1.503 . S
C4068 C4067 1.410 . S
C4068 C4069 1.392 . S
C4068 C4071 1.511 . S
C4069 C4065 1.376 . S
C4069 C4068 1.392 . S
C4069 H4081 0.929 . S
C4070 C4066 1.531 . S
C4070 H4082 0.960 . S
C4070 H4083 0.962 . S
C4070 H4084 0.960 . S
C4071 C4068 1.511 . S
C4071 H4085 0.961 . S
C4071 H4086 0.961 . S
C4071 H4087 0.961 . S
C4072 C4073 1.370 . S
C4072 C4074 1.363 . S
C4072 H4088 0.931 . S
C4073 C4072 1.370 . S
C4073 C4077 1.408 . S
C4074 C4072 1.363 . S
C4074 C4075 1.370 . S
C4074 C4078 1.524 . S
C4075 C4067 1.503 . S
C4075 C4074 1.370 . S
C4075 C4076 1.403 . S
C4076 C4075 1.403 . S
C4076 C4077 1.404 . S
C4076 C4079 1.539 . S
C4077 C4073 1.408 . S
C4077 C4076 1.404 . S
C4077 H4089 0.930 . S
C4078 C4074 1.524 . S
C4078 H4090 0.956 . S
C4078 H4091 0.961 . S
C4078 H4092 0.961 . S
C4079 C4076 1.539 . S
C4079 H4093 0.958 . S
C4079 H4094 0.961 . S
C4079 H4095 0.960 . S
H4080 C4064 0.931 . S
H4081 C4069 0.929 . S
H4082 C4070 0.960 . S
H4083 C4070 0.962 . S
H4084 C4070 0.960 . S
H4085 C4071 0.961 . S
H4086 C4071 0.961 . S
H4087 C4071 0.961 . S
H4088 C4072 0.931 . S
H4089 C4077 0.930 . S
H4090 C4078 0.956 . S
H4091 C4078 0.961 . S
H4092 C4078 0.961 . S
H4093 C4079 0.958 . S
H4094 C4079 0.961 . S
H4095 C4079 0.960 . S
C4096 C4097 1.391 . S
C4096 C4098 1.394 . S
C4096 H4112 0.931 . S
C4097 C4096 1.391 . S
C4097 C4101 1.376 . S
C4098 C4096 1.394 . S
C4098 C4099 1.369 . S
C4098 C4102 1.531 . S
C4099 C4098 1.369 . S
C4099 C4100 1.410 . S
C4099 C4107 1.503 . S
C4100 C4099 1.410 . S
C4100 C4101 1.392 . S
C4100 C4103 1.511 . S
C4101 C4097 1.376 . S
C4101 C4100 1.392 . S
C4101 H4113 0.929 . S
C4102 C4098 1.531 . S
C4102 H4114 0.960 . S
C4102 H4115 0.962 . S
C4102 H4116 0.960 . S
C4103 C4100 1.511 . S
C4103 H4117 0.961 . S
C4103 H4118 0.961 . S
C4103 H4119 0.961 . S
C4104 C4105 1.370 . S
C4104 C4106 1.363 . S
C4104 H4120 0.931 . S
C4105 C4104 1.370 . S
C4105 C4109 1.408 . S
C4106 C4104 1.363 . S
C4106 C4107 1.370 . S
C4106 C4110 1.524 . S
C4107 C4099 1.503 . S
C4107 C4106 1.370 . S
C4107 C4108 1.403 . S
C4108 C4107 1.403 . S
C4108 C4109 1.404 . S
C4108 C4111 1.539 . S
C4109 C4105 1.408 . S
C4109 C4108 1.404 . S
C4109 H4121 0.930 . S
C4110 C4106 1.524 . S
C4110 H4122 0.956 . S
C4110 H4123 0.961 . S
C4110 H4124 0.961 . S
C4111 C4108 1.539 . S
C4111 H4125 0.958 . S
C4111 H4126 0.961 . S
C4111 H4127 0.960 . S
H4112 C4096 0.931 . S
H4113 C4101 0.929 . S
H4114 C4102 0.960 . S
H4115 C4102 0.962 . S
H4116 C4102 0.960 . S
H4117 C4103 0.961 . S
H4118 C4103 0.961 . S
H4119 C4103 0.961 . S
H4120 C4104 0.931 . S
H4121 C4109 0.930 . S
H4122 C4110 0.956 . S
H4123 C4110 0.961 . S
H4124 C4110 0.961 . S
H4125 C4111 0.958 . S
H4126 C4111 0.961 . S
H4127 C4111 0.960 . S
C4128 C4129 1.391 . S
C4128 C4130 1.394 . S
C4128 H4144 0.931 . S
C4129 C4128 1.391 . S
C4129 C4133 1.376 1_554 S
C4130 C4128 1.394 . S
C4130 C4131 1.369 . S
C4130 C4134 1.531 . S
C4131 C4130 1.369 . S
C4131 C4132 1.410 1_554 S
C4131 C4139 1.503 . S
C4132 C4131 1.410 1_556 S
C4132 C4133 1.392 . S
C4132 C4135 1.511 . S
C4133 C4129 1.376 1_556 S
C4133 C4132 1.392 . S
C4133 H4145 0.929 . S
C4134 C4130 1.531 . S
C4134 H4146 0.960 . S
C4134 H4147 0.962 . S
C4134 H4148 0.960 . S
C4135 C4132 1.511 . S
C4135 H4149 0.961 . S
C4135 H4150 0.961 . S
C4135 H4151 0.927 1_556 S
C4136 C4137 1.370 1_556 S
C4136 C4138 1.363 . S
C4136 H4152 0.931 . S
C4137 C4136 1.370 1_554 S
C4137 C4141 1.408 . S
C4138 C4136 1.363 . S
C4138 C4139 1.370 1_556 S
C4138 C4142 1.524 . S
C4139 C4131 1.503 . S
C4139 C4138 1.370 1_554 S
C4139 C4140 1.403 . S
C4140 C4139 1.403 . S
C4140 C4141 1.404 . S
C4140 C4143 1.539 . S
C4141 C4137 1.408 . S
C4141 C4140 1.404 . S
C4141 H4153 0.930 . S
C4142 C4138 1.524 . S
C4142 H4154 0.956 . S
C4142 H4155 0.961 . S
C4142 H4156 0.961 . S
C4143 C4140 1.539 . S
C4143 H4157 0.958 . S
C4143 H4158 0.961 . S
C4143 H4159 0.960 . S
H4144 C4128 0.931 . S
H4145 C4133 0.929 . S
H4146 C4134 0.960 . S
H4147 C4134 0.962 . S
H4148 C4134 0.960 . S
H4149 C4135 0.961 . S
H4150 C4135 0.961 . S
H4151 C4135 0.927 1_554 S
H4152 C4136 0.931 . S
H4153 C4141 0.930 . S
H4154 C4142 0.956 . S
H4155 C4142 0.961 . S
H4156 C4142 0.961 . S
H4157 C4143 0.958 . S
H4158 C4143 0.961 . S
H4159 C4143 0.960 . S
C4160 C4161 1.391 . S
C4160 C4162 1.394 . S
C4160 H4176 0.945 . S
C4161 C4160 1.391 . S
C4161 C4165 1.376 . S
C4162 C4160 1.394 . S
C4162 C4163 1.369 . S
C4162 C4166 1.531 1_545 S
C4163 C4162 1.369 . S
C4163 C4164 1.410 . S
C4163 C4171 1.503 . S
C4164 C4163 1.410 . S
C4164 C4165 1.392 . S
C4164 C4167 1.511 . S
C4165 C4161 1.376 . S
C4165 C4164 1.392 . S
C4165 H4177 0.929 . S
C4166 C4162 1.531 1_565 S
C4166 H4178 0.960 . S
C4166 H4179 0.962 1_565 S
C4166 H4180 0.960 . S
C4167 C4164 1.511 . S
C4167 H4181 0.961 . S
C4167 H4182 0.961 . S
C4167 H4183 0.961 . S
C4168 C4169 1.370 . S
C4168 C4170 1.363 . S
C4168 H4184 0.931 . S
C4169 C4168 1.370 . S
C4169 C4173 1.408 1_545 S
C4170 C4168 1.363 . S
C4170 C4171 1.370 . S
C4170 C4174 1.524 . S
C4171 C4163 1.503 . S
C4171 C4170 1.370 . S
C4171 C4172 1.403 1_545 S
C4172 C4171 1.403 1_565 S
C4172 C4173 1.404 . S
C4172 C4175 1.539 . S
C4173 C4169 1.408 1_565 S
C4173 C4172 1.404 . S
C4173 H4185 0.930 . S
C4174 C4170 1.524 . S
C4174 H4186 0.956 . S
C4174 H4187 0.961 . S
C4174 H4188 0.961 . S
C4175 C4172 1.539 . S
C4175 H4189 0.958 . S
C4175 H4190 0.961 . S
C4175 H4191 0.960 . S
H4176 C4160 0.945 . S
H4177 C4165 0.929 . S
H4178 C4166 0.960 . S
H4179 C4166 0.962 1_545 S
H4180 C4166 0.960 . S
H4181 C4167 0.961 . S
H4182 C4167 0.961 . S
H4183 C4167 0.961 . S
H4184 C4168 0.931 . S
H4185 C4173 0.930 . S
H4186 C4174 0.956 . S
H4187 C4174 0.961 . S
H4188 C4174 0.961 . S
H4189 C4175 0.958 . S
H4190 C4175 0.961 . S
H4191 C4175 0.960 . S
C4192 C4193 1.375 1_565 S
C4192 C4194 1.394 . S
C4192 H4208 0.931 . S
C4193 C4192 1.375 1_545 S
C4193 C4197 1.390 . S
C4194 C4192 1.394 . S
C4194 C4195 1.369 . S
C4194 C4198 1.531 . S
C4195 C4194 1.369 . S
C4195 C4196 1.410 1_565 S
C4195 C4203 1.503 . S
C4196 C4195 1.410 1_545 S
C4196 C4197 1.392 . S
C4196 C4199 1.511 . S
C4197 C4193 1.390 . S
C4197 C4196 1.392 . S
C4197 H4209 0.929 . S
C4198 C4194 1.531 . S
C4198 H4210 0.960 . S
C4198 H4211 0.962 . S
C4198 H4212 0.960 . S
C4199 C4196 1.511 . S
C4199 H4213 0.961 . S
C4199 H4214 0.961 . S
C4199 H4215 0.961 . S
C4200 C4201 1.359 1_545 S
C4200 C4202 1.363 . S
C4200 H4216 0.931 . S
C4201 C4200 1.359 1_565 S
C4201 C4205 1.422 . S
C4202 C4200 1.363 . S
C4202 C4203 1.370 1_545 S
C4202 C4206 1.524 . S
C4203 C4195 1.503 . S
C4203 C4202 1.370 1_565 S
C4203 C4204 1.403 . S
C4204 C4203 1.403 . S
C4204 C4205 1.404 . S
C4204 C4207 1.539 . S
C4205 C4201 1.422 . S
C4205 C4204 1.404 . S
C4205 H4217 0.930 . S
C4206 C4202 1.524 . S
C4206 H4218 0.956 . S
C4206 H4219 0.961 . S
C4206 H4220 0.961 . S
C4207 C4204 1.539 . S
C4207 H4221 0.958 . S
C4207 H4222 0.961 . S
C4207 H4223 0.960 . S
H4208 C4192 0.931 . S
H4209 C4197 0.929 . S
H4210 C4198 0.960 . S
H4211 C4198 0.962 . S
H4212 C4198 0.960 . S
H4213 C4199 0.961 . S
H4214 C4199 0.961 . S
H4215 C4199 0.961 . S
H4216 C4200 0.931 . S
H4217 C4205 0.930 . S
H4218 C4206 0.956 . S
H4219 C4206 0.961 . S
H4220 C4206 0.961 . S
H4221 C4207 0.958 . S
H4222 C4207 0.961 . S
H4223 C4207 0.960 . S
C4224 C4225 1.391 . S
C4224 C4226 1.394 . S
C4224 H4240 0.931 . S
C4225 C4224 1.391 . S
C4225 C4229 1.376 . S
C4226 C4224 1.394 . S
C4226 C4227 1.369 . S
C4226 C4230 1.531 1_565 S
C4227 C4226 1.369 . S
C4227 C4228 1.410 . S
C4227 C4235 1.503 1_554 S
C4228 C4227 1.410 . S
C4228 C4229 1.392 . S
C4228 C4231 1.511 . S
C4229 C4225 1.376 . S
C4229 C4228 1.392 . S
C4229 H4241 0.929 . S
C4230 C4226 1.531 1_545 S
C4230 H4242 0.960 1_554 S
C4230 H4243 0.962 1_545 S
C4230 H4244 0.960 . S
C4231 C4228 1.511 . S
C4231 H4245 0.961 . S
C4231 H4246 0.961 1_554 S
C4231 H4247 0.961 . S
C4232 C4233 1.370 . S
C4232 C4234 1.363 . S
C4232 H4248 0.931 . S
C4233 C4232 1.370 . S
C4233 C4237 1.408 1_565 S
C4234 C4232 1.363 . S
C4234 C4235 1.370 . S
C4234 C4238 1.524 . S
C4235 C4227 1.503 1_556 S
C4235 C4234 1.370 . S
C4235 C4236 1.403 1_565 S
C4236 C4235 1.403 1_545 S
C4236 C4237 1.404 . S
C4236 C4239 1.539 . S
C4237 C4233 1.408 1_545 S
C4237 C4236 1.404 . S
C4237 H4249 0.930 . S
C4238 C4234 1.524 . S
C4238 H4250 0.956 . S
C4238 H4251 0.993 . S
C4238 H4252 0.961 . S
C4239 C4236 1.539 . S
C4239 H4253 0.958 . S
C4239 H4254 0.961 . S
C4239 H4255 0.960 . S
H4240 C4224 0.931 . S
H4241 C4229 0.929 . S
H4242 C4230 0.960 1_556 S
H4243 C4230 0.962 1_565 S
H4244 C4230 0.960 . S
H4245 C4231 0.961 . S
H4246 C4231 0.961 1_556 S
H4247 C4231 0.961 . S
H4248 C4232 0.931 . S
H4249 C4237 0.930 . S
H4250 C4238 0.956 . S
H4251 C4238 0.993 . S
H4252 C4238 0.961 . S
H4253 C4239 0.958 . S
H4254 C4239 0.961 . S
H4255 C4239 0.960 . S
C4256 C4257 1.403 . S
C4256 C4258 1.394 . S
C4256 H4272 0.931 . S
C4257 C4256 1.403 . S
C4257 C4261 1.367 1_545 S
C4258 C4256 1.394 . S
C4258 C4259 1.369 . S
C4258 C4262 1.531 . S
C4259 C4258 1.369 . S
C4259 C4260 1.410 1_545 S
C4259 C4267 1.503 . S
C4260 C4259 1.410 1_565 S
C4260 C4261 1.392 . S
C4260 C4263 1.511 . S
C4261 C4257 1.367 1_565 S
C4261 C4260 1.392 . S
C4261 H4273 0.929 . S
C4262 C4258 1.531 . S
C4262 H4274 0.960 . S
C4262 H4275 0.962 . S
C4262 H4276 0.960 . S
C4263 C4260 1.511 . S
C4263 H4277 0.961 . S
C4263 H4278 0.961 . S
C4263 H4279 0.961 . S
C4264 C4265 1.370 1_565 S
C4264 C4266 1.363 . S
C4264 H4280 0.931 . S
C4265 C4264 1.370 1_545 S
C4265 C4269 1.408 . S
C4266 C4264 1.363 . S
C4266 C4267 1.370 1_565 S
C4266 C4270 1.524 . S
C4267 C4259 1.503 . S
C4267 C4266 1.370 1_545 S
C4267 C4268 1.403 . S
C4268 C4267 1.403 . S
C4268 C4269 1.404 . S
C4268 C4271 1.539 . S
C4269 C4265 1.408 . S
C4269 C4268 1.404 . S
C4269 H4281 0.930 . S
C4270 C4266 1.524 . S
C4270 H4282 0.956 . S
C4270 H4283 0.961 . S
C4270 H4284 0.961 . S
C4271 C4268 1.539 . S
C4271 H4285 0.958 . S
C4271 H4286 0.961 . S
C4271 H4287 0.960 . S
H4272 C4256 0.931 . S
H4273 C4261 0.929 . S
H4274 C4262 0.960 . S
H4275 C4262 0.962 . S
H4276 C4262 0.960 . S
H4277 C4263 0.961 . S
H4278 C4263 0.961 . S
H4279 C4263 0.961 . S
H4280 C4264 0.931 . S
H4281 C4269 0.930 . S
H4282 C4270 0.956 . S
H4283 C4270 0.961 . S
H4284 C4270 0.961 . S
H4285 C4271 0.958 . S
H4286 C4271 0.961 . S
H4287 C4271 0.960 . S
C4288 C4289 1.391 . S
C4288 C4290 1.394 . S
C4288 H4304 0.931 . S
C4289 C4288 1.391 . S
C4289 C4293 1.376 . S
C4290 C4288 1.394 . S
C4290 C4291 1.369 . S
C4290 C4294 1.531 . S
C4291 C4290 1.369 . S
C4291 C4292 1.410 . S
C4291 C4299 1.503 . S
C4292 C4291 1.410 . S
C4292 C4293 1.392 . S
C4292 C4295 1.511 . S
C4293 C4289 1.376 . S
C4293 C4292 1.392 . S
C4293 H4305 0.929 . S
C4294 C4290 1.531 . S
C4294 H4306 0.960 . S
C4294 H4307 0.962 1_554 S
C4294 H4308 0.960 . S
C4295 C4292 1.511 . S
C4295 H4309 0.961 . S
C4295 H4310 0.961 . S
C4295 H4311 0.961 . S
C4296 C4297 1.324 1_556 S
C4296 C4298 1.361 1_556 S
C4296 H4312 0.983 . S
C4297 C4296 1.324 1_554 S
C4297 C4301 1.408 . S
C4298 C4296 1.361 1_554 S
C4298 C4299 1.377 . S
C4298 C4302 1.519 1_554 S
C4299 C4291 1.503 . S
C4299 C4298 1.377 . S
C4299 C4300 1.403 . S
C4300 C4299 1.403 . S
C4300 C4301 1.404 . S
C4300 C4303 1.539 . S
C4301 C4297 1.408 . S
C4301 C4300 1.404 . S
C4301 H4313 0.930 . S
C4302 C4298 1.519 1_556 S
C4302 H4314 0.956 . S
C4302 H4315 0.961 . S
C4302 H4316 0.961 . S
C4303 C4300 1.539 . S
C4303 H4317 0.958 . S
C4303 H4318 0.961 . S
C4303 H4319 0.960 . S
H4304 C4288 0.931 . S
H4305 C4293 0.929 . S
H4306 C4294 0.960 . S
H4307 C4294 0.962 1_556 S
H4308 C4294 0.960 . S
H4309 C4295 0.961 . S
H4310 C4295 0.961 . S
H4311 C4295 0.961 . S
H4312 C4296 0.983 . S
H4313 C4301 0.930 . S
H4314 C4302 0.956 . S
H4315 C4302 0.961 . S
H4316 C4302 0.961 . S
H4317 C4303 0.958 . S
H4318 C4303 0.961 . S
H4319 C4303 0.960 . S
C4320 C4321 1.391 . S
C4320 C4322 1.394 . S
C4320 H4336 0.931 . S
C4321 C4320 1.391 . S
C4321 C4325 1.376 . S
C4322 C4320 1.394 . S
C4322 C4323 1.369 . S
C4322 C4326 1.531 . S
C4323 C4322 1.369 . S
C4323 C4324 1.410 . S
C4323 C4331 1.503 1_655 S
C4324 C4323 1.410 . S
C4324 C4325 1.392 . S
C4324 C4327 1.511 . S
C4325 C4321 1.376 . S
C4325 C4324 1.392 . S
C4325 H4337 0.929 . S
C4326 C4322 1.531 . S
C4326 H4338 1.010 1_556 S
C4326 H4339 0.962 . S
C4326 H4340 0.960 1_556 S
C4327 C4324 1.511 . S
C4327 H4341 0.961 . S
C4327 H4342 0.940 1_655 S
C4327 H4343 0.961 . S
C4328 C4329 1.370 . S
C4328 C4330 1.363 . S
C4328 H4344 0.931 . S
C4329 C4328 1.370 . S
C4329 C4333 1.408 1_556 S
C4330 C4328 1.363 . S
C4330 C4331 1.370 . S
C4330 C4334 1.524 . S
C4331 C4323 1.503 1_455 S
C4331 C4330 1.370 . S
C4331 C4332 1.403 1_556 S
C4332 C4331 1.403 1_554 S
C4332 C4333 1.404 . S
C4332 C4335 1.539 . S
C4333 C4329 1.408 1_554 S
C4333 C4332 1.404 . S
C4333 H4345 0.930 . S
C4334 C4330 1.524 . S
C4334 H4346 0.956 1_455 S
C4334 H4347 0.961 1_455 S
C4334 H4348 0.961 . S
C4335 C4332 1.539 . S
C4335 H4349 0.958 . S
C4335 H4350 0.961 . S
C4335 H4351 0.960 1_455 S
H4336 C4320 0.931 . S
H4337 C4325 0.929 . S
H4338 C4326 1.010 1_554 S
H4339 C4326 0.962 . S
H4340 C4326 0.960 1_554 S
H4341 C4327 0.961 . S
H4342 C4327 0.940 1_455 S
H4343 C4327 0.961 . S
H4344 C4328 0.931 . S
H4345 C4333 0.930 . S
H4346 C4334 0.956 1_655 S
H4347 C4334 0.961 1_655 S
H4348 C4334 0.961 . S
H4349 C4335 0.958 . S
H4350 C4335 0.961 . S
H4351 C4335 0.960 1_655 S
C4352 C4353 1.391 1_655 S
C4352 C4354 1.394 . S
C4352 H4368 0.931 . S
C4353 C4352 1.391 1_455 S
C4353 C4357 1.376 . S
C4354 C4352 1.394 . S
C4354 C4355 1.369 1_655 S
C4354 C4358 1.531 . S
C4355 C4354 1.369 1_455 S
C4355 C4356 1.410 . S
C4355 C4363 1.503 . S
C4356 C4355 1.410 . S
C4356 C4357 1.392 . S
C4356 C4359 1.511 . S
C4357 C4353 1.376 . S
C4357 C4356 1.392 . S
C4357 H4369 0.929 . S
C4358 C4354 1.531 . S
C4358 H4370 0.960 . S
C4358 H4371 0.962 . S
C4358 H4372 0.960 . S
C4359 C4356 1.511 . S
C4359 H4373 0.961 . S
C4359 H4374 0.961 . S
C4359 H4375 0.961 . S
C4360 C4361 1.344 1_655 S
C4360 C4362 1.363 . S
C4360 H4376 0.931 . S
C4361 C4360 1.344 1_455 S
C4361 C4365 1.439 . S
C4362 C4360 1.363 . S
C4362 C4363 1.370 1_655 S
C4362 C4366 1.524 . S
C4363 C4355 1.503 . S
C4363 C4362 1.370 1_455 S
C4363 C4364 1.403 . S
C4364 C4363 1.403 . S
C4364 C4365 1.404 . S
C4364 C4367 1.539 . S
C4365 C4361 1.439 . S
C4365 C4364 1.404 . S
C4365 H4377 0.930 . S
C4366 C4362 1.524 . S
C4366 H4378 0.956 . S
C4366 H4379 0.961 . S
C4366 H4380 0.961 . S
C4367 C4364 1.539 . S
C4367 H4381 0.958 . S
C4367 H4382 0.961 . S
C4367 H4383 0.960 . S
H4368 C4352 0.931 . S
H4369 C4357 0.929 . S
H4370 C4358 0.960 . S
H4371 C4358 0.962 . S
H4372 C4358 0.960 . S
H4373 C4359 0.961 . S
H4374 C4359 0.961 . S
H4375 C4359 0.961 . S
H4376 C4360 0.931 . S
H4377 C4365 0.930 . S
H4378 C4366 0.956 . S
H4379 C4366 0.961 . S
H4380 C4366 0.961 . S
H4381 C4367 0.958 . S
H4382 C4367 0.961 . S
H4383 C4367 0.960 . S
C4384 C4385 1.391 . S
C4384 C4386 1.394 . S
C4384 H4400 0.931 . S
C4385 C4384 1.391 . S
C4385 C4389 1.376 . S
C4386 C4384 1.394 . S
C4386 C4387 1.369 . S
C4386 C4390 1.531 . S
C4387 C4386 1.369 . S
C4387 C4388 1.410 . S
C4387 C4395 1.503 . S
C4388 C4387 1.410 . S
C4388 C4389 1.392 . S
C4388 C4391 1.511 . S
C4389 C4385 1.376 . S
C4389 C4388 1.392 . S
C4389 H4401 0.929 . S
C4390 C4386 1.531 . S
C4390 H4402 0.960 . S
C4390 H4403 0.962 . S
C4390 H4404 0.960 . S
C4391 C4388 1.511 . S
C4391 H4405 0.961 . S
C4391 H4406 0.961 . S
C4391 H4407 0.961 . S
C4392 C4393 1.370 . S
C4392 C4394 1.363 . S
C4392 H4408 0.931 . S
C4393 C4392 1.370 . S
C4393 C4397 1.408 . S
C4394 C4392 1.363 . S
C4394 C4395 1.370 . S
C4394 C4398 1.524 . S
C4395 C4387 1.503 . S
C4395 C4394 1.370 . S
C4395 C4396 1.403 . S
C4396 C4395 1.403 . S
C4396 C4397 1.404 . S
C4396 C4399 1.539 . S
C4397 C4393 1.408 . S
C4397 C4396 1.404 . S
C4397 H4409 0.930 . S
C4398 C4394 1.524 . S
C4398 H4410 0.956 . S
C4398 H4411 0.961 . S
C4398 H4412 0.961 . S
C4399 C4396 1.539 . S
C4399 H4413 0.958 . S
C4399 H4414 0.961 . S
C4399 H4415 0.960 . S
H4400 C4384 0.931 . S
H4401 C4389 0.929 . S
H4402 C4390 0.960 . S
H4403 C4390 0.962 . S
H4404 C4390 0.960 . S
H4405 C4391 0.961 . S
H4406 C4391 0.961 . S
H4407 C4391 0.961 . S
H4408 C4392 0.931 . S
H4409 C4397 0.930 . S
H4410 C4398 0.956 . S
H4411 C4398 0.961 . S
H4412 C4398 0.961 . S
H4413 C4399 0.958 . S
H4414 C4399 0.961 . S
H4415 C4399 0.960 . S
C4416 C4417 1.391 . S
C4416 C4418 1.394 . S
C4416 H4432 0.931 . S
C4417 C4416 1.391 . S
C4417 C4421 1.376 . S
C4418 C4416 1.394 . S
C4418 C4419 1.369 . S
C4418 C4422 1.531 . S
C4419 C4418 1.369 . S
C4419 C4420 1.410 . S
C4419 C4427 1.503 1_655 S
C4420 C4419 1.410 . S
C4420 C4421 1.392 . S
C4420 C4423 1.511 . S
C4421 C4417 1.376 . S
C4421 C4420 1.392 . S
C4421 H4433 0.929 . S
C4422 C4418 1.531 . S
C4422 H4434 0.960 1_655 S
C4422 H4435 0.962 . S
C4422 H4436 0.960 . S
C4423 C4420 1.511 . S
C4423 H4437 0.961 . S
C4423 H4438 0.919 1_655 S
C4423 H4439 0.961 . S
C4424 C4425 1.370 . S
C4424 C4426 1.363 . S
C4424 H4440 0.931 . S
C4425 C4424 1.370 . S
C4425 C4429 1.408 . S
C4426 C4424 1.363 . S
C4426 C4427 1.370 . S
C4426 C4430 1.524 . S
C4427 C4419 1.503 1_455 S
C4427 C4426 1.370 . S
C4427 C4428 1.403 . S
C4428 C4427 1.403 . S
C4428 C4429 1.404 . S
C4428 C4431 1.539 . S
C4429 C4425 1.408 . S
C4429 C4428 1.404 . S
C4429 H4441 0.930 . S
C4430 C4426 1.524 . S
C4430 H4442 0.969 . S
C4430 H4443 0.961 1_455 S
C4430 H4444 0.961 . S
C4431 C4428 1.539 . S
C4431 H4445 0.958 . S
C4431 H4446 0.961 . S
C4431 H4447 0.919 1_455 S
H4432 C4416 0.931 . S
H4433 C4421 0.929 . S
H4434 C4422 0.960 1_455 S
H4435 C4422 0.962 . S
H4436 C4422 0.960 . S
H4437 C4423 0.961 . S
H4438 C4423 0.919 1_455 S
H4439 C4423 0.961 . S
H4440 C4424 0.931 . S
H4441 C4429 0.930 . S
H4442 C4430 0.969 . S
H4443 C4430 0.961 1_655 S
H4444 C4430 0.961 . S
H4445 C4431 0.958 . S
H4446 C4431 0.961 . S
H4447 C4431 0.919 1_655 S
C4448 C4449 1.391 1_455 S
C4448 C4450 1.394 . S
C4448 H4464 0.931 . S
C4449 C4448 1.391 1_655 S
C4449 C4453 1.376 . S
C4450 C4448 1.394 . S
C4450 C4451 1.369 1_455 S
C4450 C4454 1.531 . S
C4451 C4450 1.369 1_655 S
C4451 C4452 1.410 . S
C4451 C4459 1.503 . S
C4452 C4451 1.410 . S
C4452 C4453 1.392 . S
C4452 C4455 1.511 . S
C4453 C4449 1.376 . S
C4453 C4452 1.392 . S
C4453 H4465 0.929 . S
C4454 C4450 1.531 . S
C4454 H4466 0.960 . S
C4454 H4467 0.962 . S
C4454 H4468 0.960 . S
C4455 C4452 1.511 . S
C4455 H4469 0.961 . S
C4455 H4470 0.961 . S
C4455 H4471 0.961 . S
C4456 C4457 1.401 . S
C4456 C4458 1.363 . S
C4456 H4472 0.931 . S
C4457 C4456 1.401 . S
C4457 C4461 1.377 1_455 S
C4458 C4456 1.363 . S
C4458 C4459 1.370 1_455 S
C4458 C4462 1.524 . S
C4459 C4451 1.503 . S
C4459 C4458 1.370 1_655 S
C4459 C4460 1.403 . S
C4460 C4459 1.403 . S
C4460 C4461 1.404 . S
C4460 C4463 1.539 . S
C4461 C4457 1.377 1_655 S
C4461 C4460 1.404 . S
C4461 H4473 0.930 . S
C4462 C4458 1.524 . S
C4462 H4474 0.956 . S
C4462 H4475 0.961 . S
C4462 H4476 0.961 . S
C4463 C4460 1.539 . S
C4463 H4477 0.958 . S
C4463 H4478 0.961 . S
C4463 H4479 0.960 . S
H4464 C4448 0.931 . S
H4465 C4453 0.929 . S
H4466 C4454 0.960 . S
H4467 C4454 0.962 . S
H4468 C4454 0.960 . S
H4469 C4455 0.961 . S
H4470 C4455 0.961 . S
H4471 C4455 0.961 . S
H4472 C4456 0.931 . S
H4473 C4461 0.930 . S
H4474 C4462 0.956 . S
H4475 C4462 0.961 . S
H4476 C4462 0.961 . S
H4477 C4463 0.958 . S
H4478 C4463 0.961 . S
H4479 C4463 0.960 . S
C4480 C4481 1.391 . S
C4480 C4482 1.394 . S
C4480 H4496 0.931 . S
C4481 C4480 1.391 . S
C4481 C4485 1.376 . S
C4482 C4480 1.394 . S
C4482 C4483 1.369 . S
C4482 C4486 1.531 . S
C4483 C4482 1.369 . S
C4483 C4484 1.410 . S
C4483 C4491 1.503 . S
C4484 C4483 1.410 . S
C4484 C4485 1.392 . S
C4484 C4487 1.511 . S
C4485 C4481 1.376 . S
C4485 C4484 1.392 . S
C4485 H4497 0.929 . S
C4486 C4482 1.531 . S
C4486 H4498 0.960 . S
C4486 H4499 0.962 . S
C4486 H4500 0.960 . S
C4487 C4484 1.511 . S
C4487 H4501 0.961 . S
C4487 H4502 0.961 . S
C4487 H4503 0.961 . S
C4488 C4489 1.370 . S
C4488 C4490 1.363 . S
C4488 H4504 0.931 . S
C4489 C4488 1.370 . S
C4489 C4493 1.408 . S
C4490 C4488 1.363 . S
C4490 C4491 1.370 . S
C4490 C4494 1.524 . S
C4491 C4483 1.503 . S
C4491 C4490 1.370 . S
C4491 C4492 1.403 . S
C4492 C4491 1.403 . S
C4492 C4493 1.404 . S
C4492 C4495 1.539 . S
C4493 C4489 1.408 . S
C4493 C4492 1.404 . S
C4493 H4505 0.930 . S
C4494 C4490 1.524 . S
C4494 H4506 0.956 . S
C4494 H4507 0.961 . S
C4494 H4508 0.961 . S
C4495 C4492 1.539 . S
C4495 H4509 0.958 . S
C4495 H4510 0.961 . S
C4495 H4511 0.960 . S
H4496 C4480 0.931 . S
H4497 C4485 0.929 . S
H4498 C4486 0.960 . S
H4499 C4486 0.962 . S
H4500 C4486 0.960 . S
H4501 C4487 0.961 . S
H4502 C4487 0.961 . S
H4503 C4487 0.961 . S
H4504 C4488 0.931 . S
H4505 C4493 0.930 . S
H4506 C4494 0.956 . S
H4507 C4494 0.961 . S
H4508 C4494 0.961 . S
H4509 C4495 0.958 . S
H4510 C4495 0.961 . S
H4511 C4495 0.960 . S
C4512 C4513 1.391 . S
C4512 C4514 1.394 . S
C4512 H4528 0.931 . S
C4513 C4512 1.391 . S
C4513 C4517 1.376 . S
C4514 C4512 1.394 . S
C4514 C4515 1.369 . S
C4514 C4518 1.531 . S
C4515 C4514 1.369 . S
C4515 C4516 1.410 . S
C4515 C4523 1.503 . S
C4516 C4515 1.410 . S
C4516 C4517 1.392 . S
C4516 C4519 1.511 . S
C4517 C4513 1.376 . S
C4517 C4516 1.392 . S
C4517 H4529 0.929 . S
C4518 C4514 1.531 . S
C4518 H4530 0.960 . S
C4518 H4531 0.962 . S
C4518 H4532 0.960 . S
C4519 C4516 1.511 . S
C4519 H4533 0.961 . S
C4519 H4534 0.961 . S
C4519 H4535 0.961 1_655 S
C4520 C4521 1.370 . S
C4520 C4522 1.363 . S
C4520 H4536 0.931 . S
C4521 C4520 1.370 . S
C4521 C4525 1.408 1_655 S
C4522 C4520 1.363 . S
C4522 C4523 1.370 . S
C4522 C4526 1.524 . S
C4523 C4515 1.503 . S
C4523 C4522 1.370 . S
C4523 C4524 1.403 1_655 S
C4524 C4523 1.403 1_455 S
C4524 C4525 1.404 . S
C4524 C4527 1.539 . S
C4525 C4521 1.408 1_455 S
C4525 C4524 1.404 . S
C4525 H4537 0.930 . S
C4526 C4522 1.524 . S
C4526 H4538 0.956 . S
C4526 H4539 0.961 . S
C4526 H4540 0.961 . S
C4527 C4524 1.539 . S
C4527 H4541 0.958 . S
C4527 H4542 0.961 . S
C4527 H4543 0.960 . S
H4528 C4512 0.931 . S
H4529 C4517 0.929 . S
H4530 C4518 0.960 . S
H4531 C4518 0.962 . S
H4532 C4518 0.960 . S
H4533 C4519 0.961 . S
H4534 C4519 0.961 . S
H4535 C4519 0.961 1_455 S
H4536 C4520 0.931 . S
H4537 C4525 0.930 . S
H4538 C4526 0.956 . S
H4539 C4526 0.961 . S
H4540 C4526 0.961 . S
H4541 C4527 0.958 . S
H4542 C4527 0.961 . S
H4543 C4527 0.960 . S
C4544 C4545 1.391 . S
C4544 C4546 1.394 . S
C4544 H4560 0.931 . S
C4545 C4544 1.391 . S
C4545 C4549 1.376 . S
C4546 C4544 1.394 . S
C4546 C4547 1.369 . S
C4546 C4550 1.531 . S
C4547 C4546 1.369 . S
C4547 C4548 1.410 . S
C4547 C4555 1.503 . S
C4548 C4547 1.410 . S
C4548 C4549 1.392 . S
C4548 C4551 1.511 . S
C4549 C4545 1.376 . S
C4549 C4548 1.392 . S
C4549 H4561 0.929 . S
C4550 C4546 1.531 . S
C4550 H4562 0.960 . S
C4550 H4563 0.962 . S
C4550 H4564 0.960 . S
C4551 C4548 1.511 . S
C4551 H4565 0.961 . S
C4551 H4566 0.961 . S
C4551 H4567 0.961 . S
C4552 C4553 1.370 . S
C4552 C4554 1.363 . S
C4552 H4568 0.931 . S
C4553 C4552 1.370 . S
C4553 C4557 1.408 . S
C4554 C4552 1.363 . S
C4554 C4555 1.370 . S
C4554 C4558 1.524 . S
C4555 C4547 1.503 . S
C4555 C4554 1.370 . S
C4555 C4556 1.403 . S
C4556 C4555 1.403 . S
C4556 C4557 1.404 . S
C4556 C4559 1.539 . S
C4557 C4553 1.408 . S
C4557 C4556 1.404 . S
C4557 H4569 0.930 . S
C4558 C4554 1.524 . S
C4558 H4570 0.956 . S
C4558 H4571 0.961 . S
C4558 H4572 0.961 . S
C4559 C4556 1.539 . S
C4559 H4573 0.958 . S
C4559 H4574 0.961 . S
C4559 H4575 0.960 . S
H4560 C4544 0.931 . S
H4561 C4549 0.929 . S
H4562 C4550 0.960 . S
H4563 C4550 0.962 . S
H4564 C4550 0.960 . S
H4565 C4551 0.961 . S
H4566 C4551 0.961 . S
H4567 C4551 0.961 . S
H4568 C4552 0.931 . S
H4569 C4557 0.930 . S
H4570 C4558 0.956 . S
H4571 C4558 0.961 . S
H4572 C4558 0.961 . S
H4573 C4559 0.958 . S
H4574 C4559 0.961 . S
H4575 C4559 0.960 . S
C4576 C4577 1.391 . S
C4576 C4578 1.394 . S
C4576 H4592 0.931 . S
C4577 C4576 1.391 . S
C4577 C4581 1.376 . S
C4578 C4576 1.394 . S
C4578 C4579 1.369 . S
C4578 C4582 1.531 . S
C4579 C4578 1.369 . S
C4579 C4580 1.410 . S
C4579 C4587 1.503 . S
C4580 C4579 1.410 . S
C4580 C4581 1.392 . S
C4580 C4583 1.511 . S
C4581 C4577 1.376 . S
C4581 C4580 1.392 . S
C4581 H4593 0.929 . S
C4582 C4578 1.531 . S
C4582 H4594 0.960 . S
C4582 H4595 0.962 . S
C4582 H4596 0.960 . S
C4583 C4580 1.511 . S
C4583 H4597 0.961 . S
C4583 H4598 0.961 . S
C4583 H4599 0.961 . S
C4584 C4585 1.370 . S
C4584 C4586 1.363 . S
C4584 H4600 0.931 . S
C4585 C4584 1.370 . S
C4585 C4589 1.408 . S
C4586 C4584 1.363 . S
C4586 C4587 1.370 . S
C4586 C4590 1.524 . S
C4587 C4579 1.503 . S
C4587 C4586 1.370 . S
C4587 C4588 1.403 . S
C4588 C4587 1.403 . S
C4588 C4589 1.404 . S
C4588 C4591 1.539 . S
C4589 C4585 1.408 . S
C4589 C4588 1.404 . S
C4589 H4601 0.930 . S
C4590 C4586 1.524 . S
C4590 H4602 0.956 . S
C4590 H4603 0.961 . S
C4590 H4604 0.961 . S
C4591 C4588 1.539 . S
C4591 H4605 0.958 . S
C4591 H4606 0.961 . S
C4591 H4607 0.960 . S
H4592 C4576 0.931 . S
H4593 C4581 0.929 . S
H4594 C4582 0.960 . S
H4595 C4582 0.962 . S
H4596 C4582 0.960 . S
H4597 C4583 0.961 . S
H4598 C4583 0.961 . S
H4599 C4583 0.961 . S
H4600 C4584 0.931 . S
H4601 C4589 0.930 . S
H4602 C4590 0.956 . S
H4603 C4590 0.961 . S
H4604 C4590 0.961 . S
H4605 C4591 0.958 . S
H4606 C4591 0.961 . S
H4607 C4591 0.960 . S
C4608 C4609 1.410 . S
C4608 C4610 1.394 . S
C4608 H4624 0.931 . S
C4609 C4608 1.410 . S
C4609 C4613 1.362 1_554 S
C4610 C4608 1.394 . S
C4610 C4611 1.369 . S
C4610 C4614 1.531 . S
C4611 C4610 1.369 . S
C4611 C4612 1.410 1_554 S
C4611 C4619 1.503 . S
C4612 C4611 1.410 1_556 S
C4612 C4613 1.392 . S
C4612 C4615 1.511 . S
C4613 C4609 1.362 1_556 S
C4613 C4612 1.392 . S
C4613 H4625 0.929 . S
C4614 C4610 1.531 . S
C4614 H4626 0.960 . S
C4614 H4627 0.962 . S
C4614 H4628 0.960 . S
C4615 C4612 1.511 . S
C4615 H4629 0.961 . S
C4615 H4630 0.961 . S
C4615 H4631 0.961 . S
C4616 C4617 1.333 1_556 S
C4616 C4618 1.363 . S
C4616 H4632 0.931 . S
C4617 C4616 1.333 1_554 S
C4617 C4621 1.451 . S
C4618 C4616 1.363 . S
C4618 C4619 1.370 1_556 S
C4618 C4622 1.524 . S
C4619 C4611 1.503 . S
C4619 C4618 1.370 1_554 S
C4619 C4620 1.403 . S
C4620 C4619 1.403 . S
C4620 C4621 1.404 . S
C4620 C4623 1.539 . S
C4621 C4617 1.451 . S
C4621 C4620 1.404 . S
C4621 H4633 0.930 . S
C4622 C4618 1.524 . S
C4622 H4634 0.956 . S
C4622 H4635 0.961 . S
C4622 H4636 0.961 . S
C4623 C4620 1.539 . S
C4623 H4637 0.958 . S
C4623 H4638 0.961 . S
C4623 H4639 0.960 . S
H4624 C4608 0.931 . S
H4625 C4613 0.929 . S
H4626 C4614 0.960 . S
H4627 C4614 0.962 . S
H4628 C4614 0.960 . S
H4629 C4615 0.961 . S
H4630 C4615 0.961 . S
H4631 C4615 0.961 . S
H4632 C4616 0.931 . S
H4633 C4621 0.930 . S
H4634 C4622 0.956 . S
H4635 C4622 0.961 . S
H4636 C4622 0.961 . S
H4637 C4623 0.958 . S
H4638 C4623 0.961 . S
H4639 C4623 0.960 . S
C4640 C4641 1.391 . S
C4640 C4642 1.394 . S
C4640 H4656 0.931 . S
C4641 C4640 1.391 . S
C4641 C4645 1.376 . S
C4642 C4640 1.394 . S
C4642 C4643 1.369 . S
C4642 C4646 1.531 . S
C4643 C4642 1.369 . S
C4643 C4644 1.410 . S
C4643 C4651 1.503 . S
C4644 C4643 1.410 . S
C4644 C4645 1.392 . S
C4644 C4647 1.511 . S
C4645 C4641 1.376 . S
C4645 C4644 1.392 . S
C4645 H4657 0.929 . S
C4646 C4642 1.531 . S
C4646 H4658 0.960 . S
C4646 H4659 0.962 . S
C4646 H4660 0.960 . S
C4647 C4644 1.511 . S
C4647 H4661 0.961 1_565 S
C4647 H4662 0.961 . S
C4647 H4663 0.961 . S
C4648 C4649 1.370 . S
C4648 C4650 1.363 . S
C4648 H4664 0.931 1_565 S
C4649 C4648 1.370 . S
C4649 C4653 1.408 . S
C4650 C4648 1.363 . S
C4650 C4651 1.370 . S
C4650 C4654 1.524 1_565 S
C4651 C4643 1.503 . S
C4651 C4650 1.370 . S
C4651 C4652 1.403 . S
C4652 C4651 1.403 . S
C4652 C4653 1.404 . S
C4652 C4655 1.539 . S
C4653 C4649 1.408 . S
C4653 C4652 1.404 . S
C4653 H4665 0.930 . S
C4654 C4650 1.524 1_545 S
C4654 H4666 0.956 . S
C4654 H4667 0.961 . S
C4654 H4668 0.961 . S
C4655 C4652 1.539 . S
C4655 H4669 0.958 . S
C4655 H4670 0.961 . S
C4655 H4671 0.960 . S
H4656 C4640 0.931 . S
H4657 C4645 0.929 . S
H4658 C4646 0.960 . S
H4659 C4646 0.962 . S
H4660 C4646 0.960 . S
H4661 C4647 0.961 1_545 S
H4662 C4647 0.961 . S
H4663 C4647 0.961 . S
H4664 C4648 0.931 1_545 S
H4665 C4653 0.930 . S
H4666 C4654 0.956 . S
H4667 C4654 0.961 . S
H4668 C4654 0.961 . S
H4669 C4655 0.958 . S
H4670 C4655 0.961 . S
H4671 C4655 0.960 . S
C4672 C4673 1.391 . S
C4672 C4674 1.394 . S
C4672 H4688 0.931 . S
C4673 C4672 1.391 . S
C4673 C4677 1.376 1_565 S
C4674 C4672 1.394 . S
C4674 C4675 1.369 . S
C4674 C4678 1.531 . S
C4675 C4674 1.369 . S
C4675 C4676 1.410 1_565 S
C4675 C4683 1.503 . S
C4676 C4675 1.410 1_545 S
C4676 C4677 1.392 . S
C4676 C4679 1.511 . S
C4677 C4673 1.376 1_545 S
C4677 C4676 1.392 . S
C4677 H4689 0.929 . S
C4678 C4674 1.531 . S
C4678 H4690 0.960 . S
C4678 H4691 0.962 . S
C4678 H4692 0.960 . S
C4679 C4676 1.511 . S
C4679 H4693 0.961 . S
C4679 H4694 0.961 . S
C4679 H4695 0.961 . S
C4680 C4681 1.365 1_545 S
C4680 C4682 1.363 . S
C4680 H4696 0.931 . S
C4681 C4680 1.365 1_565 S
C4681 C4685 1.415 . S
C4682 C4680 1.363 . S
C4682 C4683 1.370 1_545 S
C4682 C4686 1.524 . S
C4683 C4675 1.503 . S
C4683 C4682 1.370 1_565 S
C4683 C4684 1.403 . S
C4684 C4683 1.403 . S
C4684 C4685 1.404 . S
C4684 C4687 1.539 . S
C4685 C4681 1.415 . S
C4685 C4684 1.404 . S
C4685 H4697 0.930 . S
C4686 C4682 1.524 . S
C4686 H4698 0.956 . S
C4686 H4699 0.961 . S
C4686 H4700 0.961 . S
C4687 C4684 1.539 . S
C4687 H4701 0.958 . S
C4687 H4702 0.961 . S
C4687 H4703 0.960 . S
H4688 C4672 0.931 . S
H4689 C4677 0.929 . S
H4690 C4678 0.960 . S
H4691 C4678 0.962 . S
H4692 C4678 0.960 . S
H4693 C4679 0.961 . S
H4694 C4679 0.961 . S
H4695 C4679 0.961 . S
H4696 C4680 0.931 . S
H4697 C4685 0.930 . S
H4698 C4686 0.956 . S
H4699 C4686 0.961 . S
H4700 C4686 0.961 . S
H4701 C4687 0.958 . S
H4702 C4687 0.961 . S
H4703 C4687 0.960 . S
C4704 C4705 1.391 . S
C4704 C4706 1.394 . S
C4704 H4720 0.931 . S
C4705 C4704 1.391 . S
C4705 C4709 1.376 . S
C4706 C4704 1.394 . S
C4706 C4707 1.369 . S
C4706 C4710 1.531 . S
C4707 C4706 1.369 . S
C4707 C4708 1.410 . S
C4707 C4715 1.503 1_556 S
C4708 C4707 1.410 . S
C4708 C4709 1.392 . S
C4708 C4711 1.511 . S
C4709 C4705 1.376 . S
C4709 C4708 1.392 . S
C4709 H4721 0.929 . S
C4710 C4706 1.531 . S
C4710 H4722 0.960 1_556 S
C4710 H4723 0.962 . S
C4710 H4724 0.960 . S
C4711 C4708 1.511 . S
C4711 H4725 0.961 1_545 S
C4711 H4726 0.962 1_556 S
C4711 H4727 0.961 . S
C4712 C4713 1.370 . S
C4712 C4714 1.363 . S
C4712 H4728 0.931 1_545 S
C4713 C4712 1.370 . S
C4713 C4717 1.408 . S
C4714 C4712 1.363 . S
C4714 C4715 1.370 . S
C4714 C4718 1.524 1_545 S
C4715 C4707 1.503 1_554 S
C4715 C4714 1.370 . S
C4715 C4716 1.403 . S
C4716 C4715 1.403 . S
C4716 C4717 1.404 . S
C4716 C4719 1.539 . S
C4717 C4713 1.408 . S
C4717 C4716 1.404 . S
C4717 H4729 0.930 . S
C4718 C4714 1.524 1_565 S
C4718 H4730 0.956 . S
C4718 H4731 0.961 . S
C4718 H4732 0.961 . S
C4719 C4716 1.539 . S
C4719 H4733 0.958 . S
C4719 H4734 0.961 . S
C4719 H4735 0.960 . S
H4720 C4704 0.931 . S
H4721 C4709 0.929 . S
H4722 C4710 0.960 1_554 S
H4723 C4710 0.962 . S
H4724 C4710 0.960 . S
H4725 C4711 0.961 1_565 S
H4726 C4711 0.962 1_554 S
H4727 C4711 0.961 . S
H4728 C4712 0.931 1_565 S
H4729 C4717 0.930 . S
H4730 C4718 0.956 . S
H4731 C4718 0.961 . S
H4732 C4718 0.961 . S
H4733 C4719 0.958 . S
H4734 C4719 0.961 . S
H4735 C4719 0.960 . S
C4736 C4737 1.391 . S
C4736 C4738 1.394 . S
C4736 H4752 0.931 . S
C4737 C4736 1.391 . S
C4737 C4741 1.376 1_565 S
C4738 C4736 1.394 . S
C4738 C4739 1.369 . S
C4738 C4742 1.531 . S
C4739 C4738 1.369 . S
C4739 C4740 1.410 1_565 S
C4739 C4747 1.503 . S
C4740 C4739 1.410 1_545 S
C4740 C4741 1.392 . S
C4740 C4743 1.511 . S
C4741 C4737 1.376 1_545 S
C4741 C4740 1.392 . S
C4741 H4753 0.929 . S
C4742 C4738 1.531 . S
C4742 H4754 0.960 . S
C4742 H4755 0.962 . S
C4742 H4756 0.960 . S
C4743 C4740 1.511 . S
C4743 H4757 0.961 . S
C4743 H4758 0.961 . S
C4743 H4759 0.961 . S
C4744 C4745 1.390 . S
C4744 C4746 1.363 . S
C4744 H4760 0.931 . S
C4745 C4744 1.390 . S
C4745 C4749 1.386 1_545 S
C4746 C4744 1.363 . S
C4746 C4747 1.370 1_545 S
C4746 C4750 1.524 . S
C4747 C4739 1.503 . S
C4747 C4746 1.370 1_565 S
C4747 C4748 1.403 . S
C4748 C4747 1.403 . S
C4748 C4749 1.404 . S
C4748 C4751 1.539 . S
C4749 C4745 1.386 1_565 S
C4749 C4748 1.404 . S
C4749 H4761 0.930 . S
C4750 C4746 1.524 . S
C4750 H4762 0.956 . S
C4750 H4763 0.961 . S
C4750 H4764 0.961 . S
C4751 C4748 1.539 . S
C4751 H4765 0.958 . S
C4751 H4766 0.961 . S
C4751 H4767 0.960 . S
H4752 C4736 0.931 . S
H4753 C4741 0.929 . S
H4754 C4742 0.960 . S
H4755 C4742 0.962 . S
H4756 C4742 0.960 . S
H4757 C4743 0.961 . S
H4758 C4743 0.961 . S
H4759 C4743 0.961 . S
H4760 C4744 0.931 . S
H4761 C4749 0.930 . S
H4762 C4750 0.956 . S
H4763 C4750 0.961 . S
H4764 C4750 0.961 . S
H4765 C4751 0.958 . S
H4766 C4751 0.961 . S
H4767 C4751 0.960 . S
C4768 C4769 1.391 . S
C4768 C4770 1.394 . S
C4768 H4784 0.931 . S
C4769 C4768 1.391 . S
C4769 C4773 1.376 . S
C4770 C4768 1.394 . S
C4770 C4771 1.369 . S
C4770 C4774 1.529 . S
C4771 C4770 1.369 . S
C4771 C4772 1.410 . S
C4771 C4779 1.503 . S
C4772 C4771 1.410 . S
C4772 C4773 1.392 . S
C4772 C4775 1.511 . S
C4773 C4769 1.376 . S
C4773 C4772 1.392 . S
C4773 H4785 0.929 . S
C4774 C4770 1.529 . S
C4774 H4786 0.962 1_556 S
C4774 H4787 0.958 . S
C4774 H4788 0.963 1_556 S
C4775 C4772 1.511 . S
C4775 H4789 0.961 . S
C4775 H4790 0.961 . S
C4775 H4791 0.961 . S
C4776 C4777 1.370 . S
C4776 C4778 1.363 . S
C4776 H4792 0.931 . S
C4777 C4776 1.370 . S
C4777 C4781 1.408 1_556 S
C4778 C4776 1.363 . S
C4778 C4779 1.370 . S
C4778 C4782 1.524 . S
C4779 C4771 1.503 . S
C4779 C4778 1.370 . S
C4779 C4780 1.403 1_556 S
C4780 C4779 1.403 1_554 S
C4780 C4781 1.404 . S
C4780 C4783 1.539 . S
C4781 C4777 1.408 1_554 S
C4781 C4780 1.404 . S
C4781 H4793 0.930 . S
C4782 C4778 1.524 . S
C4782 H4794 0.956 . S
C4782 H4795 0.961 . S
C4782 H4796 0.961 . S
C4783 C4780 1.539 . S
C4783 H4797 0.958 . S
C4783 H4798 0.961 . S
C4783 H4799 0.960 . S
H4784 C4768 0.931 . S
H4785 C4773 0.929 . S
H4786 C4774 0.962 1_554 S
H4787 C4774 0.958 . S
H4788 C4774 0.963 1_554 S
H4789 C4775 0.961 . S
H4790 C4775 0.961 . S
H4791 C4775 0.961 . S
H4792 C4776 0.931 . S
H4793 C4781 0.930 . S
H4794 C4782 0.956 . S
H4795 C4782 0.961 . S
H4796 C4782 0.961 . S
H4797 C4783 0.958 . S
H4798 C4783 0.961 . S
H4799 C4783 0.960 . S
C4800 C4801 1.391 . S
C4800 C4802 1.394 . S
C4800 H4816 0.931 . S
C4801 C4800 1.391 . S
C4801 C4805 1.376 . S
C4802 C4800 1.394 . S
C4802 C4803 1.369 . S
C4802 C4806 1.531 . S
C4803 C4802 1.369 . S
C4803 C4804 1.410 . S
C4803 C4811 1.503 1_655 S
C4804 C4803 1.410 . S
C4804 C4805 1.392 . S
C4804 C4807 1.511 . S
C4805 C4801 1.376 . S
C4805 C4804 1.392 . S
C4805 H4817 0.929 . S
C4806 C4802 1.531 . S
C4806 H4818 0.960 1_655 S
C4806 H4819 0.962 . S
C4806 H4820 0.960 . S
C4807 C4804 1.511 . S
C4807 H4821 0.961 . S
C4807 H4822 0.961 1_655 S
C4807 H4823 0.961 . S
C4808 C4809 1.396 . S
C4808 C4810 1.365 . S
C4808 H4824 0.904 1_554 S
C4809 C4808 1.396 . S
C4809 C4813 1.408 . S
C4810 C4808 1.365 . S
C4810 C4811 1.370 . S
C4810 C4814 1.524 1_554 S
C4811 C4803 1.503 1_455 S
C4811 C4810 1.370 . S
C4811 C4812 1.403 . S
C4812 C4811 1.403 . S
C4812 C4813 1.404 . S
C4812 C4815 1.539 . S
C4813 C4809 1.408 . S
C4813 C4812 1.404 . S
C4813 H4825 0.930 . S
C4814 C4810 1.524 1_556 S
C4814 H4826 0.956 . S
C4814 H4827 0.961 . S
C4814 H4828 0.961 . S
C4815 C4812 1.539 . S
C4815 H4829 0.958 . S
C4815 H4830 0.961 . S
C4815 H4831 0.960 . S
H4816 C4800 0.931 . S
H4817 C4805 0.929 . S
H4818 C4806 0.960 1_455 S
H4819 C4806 0.962 . S
H4820 C4806 0.960 . S
H4821 C4807 0.961 . S
H4822 C4807 0.961 1_455 S
H4823 C4807 0.961 . S
H4824 C4808 0.904 1_556 S
H4825 C4813 0.930 . S
H4826 C4814 0.956 . S
H4827 C4814 0.961 . S
H4828 C4814 0.961 . S
H4829 C4815 0.958 . S
H4830 C4815 0.961 . S
H4831 C4815 0.960 . S
C4832 C4833 1.383 1_655 S
C4832 C4834 1.394 . S
C4832 H4848 0.931 . S
C4833 C4832 1.383 1_455 S
C4833 C4837 1.384 . S
C4834 C4832 1.394 . S
C4834 C4835 1.335 1_655 S
C4834 C4838 1.531 . S
C4835 C4834 1.335 1_455 S
C4835 C4836 1.444 . S
C4835 C4843 1.503 . S
C4836 C4835 1.444 . S
C4836 C4837 1.392 . S
C4836 C4839 1.511 . S
C4837 C4833 1.384 . S
C4837 C4836 1.392 . S
C4837 H4849 0.929 . S
C4838 C4834 1.531 . S
C4838 H4850 0.960 . S
C4838 H4851 0.962 . S
C4838 H4852 0.960 . S
C4839 C4836 1.511 . S
C4839 H4853 0.961 . S
C4839 H4854 0.961 . S
C4839 H4855 0.961 . S
C4840 C4841 1.383 . S
C4840 C4842 1.363 . S
C4840 H4856 0.931 . S
C4841 C4840 1.383 . S
C4841 C4845 1.396 1_655 S
C4842 C4840 1.363 . S
C4842 C4843 1.367 1_655 S
C4842 C4846 1.524 . S
C4843 C4835 1.503 . S
C4843 C4842 1.367 1_455 S
C4843 C4844 1.406 . S
C4844 C4843 1.406 . S
C4844 C4845 1.404 . S
C4844 C4847 1.539 . S
C4845 C4841 1.396 1_455 S
C4845 C4844 1.404 . S
C4845 H4857 0.930 . S
C4846 C4842 1.524 . S
C4846 H4858 0.956 . S
C4846 H4859 0.961 . S
C4846 H4860 0.961 . S
C4847 C4844 1.539 . S
C4847 H4861 0.958 . S
C4847 H4862 0.961 . S
C4847 H4863 0.960 . S
H4848 C4832 0.931 . S
H4849 C4837 0.929 . S
H4850 C4838 0.960 . S
H4851 C4838 0.962 . S
H4852 C4838 0.960 . S
H4853 C4839 0.961 . S
H4854 C4839 0.961 . S
H4855 C4839 0.961 . S
H4856 C4840 0.931 . S
H4857 C4845 0.930 . S
H4858 C4846 0.956 . S
H4859 C4846 0.961 . S
H4860 C4846 0.961 . S
H4861 C4847 0.958 . S
H4862 C4847 0.961 . S
H4863 C4847 0.960 . S
C4864 C4865 1.391 . S
C4864 C4866 1.394 . S
C4864 H4880 0.931 . S
C4865 C4864 1.391 . S
C4865 C4869 1.376 . S
C4866 C4864 1.394 . S
C4866 C4867 1.369 . S
C4866 C4870 1.531 . S
C4867 C4866 1.369 . S
C4867 C4868 1.410 . S
C4867 C4875 1.503 . S
C4868 C4867 1.410 . S
C4868 C4869 1.392 . S
C4868 C4871 1.511 . S
C4869 C4865 1.376 . S
C4869 C4868 1.392 . S
C4869 H4881 0.929 . S
C4870 C4866 1.531 . S
C4870 H4882 0.960 . S
C4870 H4883 0.962 . S
C4870 H4884 0.960 . S
C4871 C4868 1.511 . S
C4871 H4885 0.961 . S
C4871 H4886 0.961 . S
C4871 H4887 0.961 . S
C4872 C4873 1.370 . S
C4872 C4874 1.363 . S
C4872 H4888 0.931 . S
C4873 C4872 1.370 . S
C4873 C4877 1.408 . S
C4874 C4872 1.363 . S
C4874 C4875 1.370 . S
C4874 C4878 1.524 . S
C4875 C4867 1.503 . S
C4875 C4874 1.370 . S
C4875 C4876 1.403 . S
C4876 C4875 1.403 . S
C4876 C4877 1.404 . S
C4876 C4879 1.539 . S
C4877 C4873 1.408 . S
C4877 C4876 1.404 . S
C4877 H4889 0.930 . S
C4878 C4874 1.524 . S
C4878 H4890 0.956 . S
C4878 H4891 0.961 . S
C4878 H4892 0.961 . S
C4879 C4876 1.539 . S
C4879 H4893 0.958 . S
C4879 H4894 0.961 . S
C4879 H4895 0.960 . S
H4880 C4864 0.931 . S
H4881 C4869 0.929 . S
H4882 C4870 0.960 . S
H4883 C4870 0.962 . S
H4884 C4870 0.960 . S
H4885 C4871 0.961 . S
H4886 C4871 0.961 . S
H4887 C4871 0.961 . S
H4888 C4872 0.931 . S
H4889 C4877 0.930 . S
H4890 C4878 0.956 . S
H4891 C4878 0.961 . S
H4892 C4878 0.961 . S
H4893 C4879 0.958 . S
H4894 C4879 0.961 . S
H4895 C4879 0.960 . S
C4896 C4897 1.391 . S
C4896 C4898 1.394 . S
C4896 H4912 0.931 . S
C4897 C4896 1.391 . S
C4897 C4901 1.376 . S
C4898 C4896 1.394 . S
C4898 C4899 1.369 . S
C4898 C4902 1.531 . S
C4899 C4898 1.369 . S
C4899 C4900 1.410 . S
C4899 C4907 1.503 1_655 S
C4900 C4899 1.410 . S
C4900 C4901 1.392 . S
C4900 C4903 1.511 . S
C4901 C4897 1.376 . S
C4901 C4900 1.392 . S
C4901 H4913 0.929 . S
C4902 C4898 1.531 . S
C4902 H4914 0.960 1_655 S
C4902 H4915 0.962 . S
C4902 H4916 0.960 . S
C4903 C4900 1.511 . S
C4903 H4917 0.961 . S
C4903 H4918 0.961 1_655 S
C4903 H4919 0.961 . S
C4904 C4905 1.370 . S
C4904 C4906 1.363 . S
C4904 H4920 0.931 . S
C4905 C4904 1.370 . S
C4905 C4909 1.408 . S
C4906 C4904 1.363 . S
C4906 C4907 1.370 . S
C4906 C4910 1.524 . S
C4907 C4899 1.503 1_455 S
C4907 C4906 1.370 . S
C4907 C4908 1.403 . S
C4908 C4907 1.403 . S
C4908 C4909 1.404 . S
C4908 C4911 1.539 . S
C4909 C4905 1.408 . S
C4909 C4908 1.404 . S
C4909 H4921 0.930 . S
C4910 C4906 1.524 . S
C4910 H4922 0.956 . S
C4910 H4923 0.927 1_455 S
C4910 H4924 0.961 . S
C4911 C4908 1.539 . S
C4911 H4925 0.958 . S
C4911 H4926 0.961 . S
C4911 H4927 0.960 . S
H4912 C4896 0.931 . S
H4913 C4901 0.929 . S
H4914 C4902 0.960 1_455 S
H4915 C4902 0.962 . S
H4916 C4902 0.960 . S
H4917 C4903 0.961 . S
H4918 C4903 0.961 1_455 S
H4919 C4903 0.961 . S
H4920 C4904 0.931 . S
H4921 C4909 0.930 . S
H4922 C4910 0.956 . S
H4923 C4910 0.927 1_655 S
H4924 C4910 0.961 . S
H4925 C4911 0.958 . S
H4926 C4911 0.961 . S
H4927 C4911 0.960 . S
C4928 C4929 1.391 1_455 S
C4928 C4930 1.394 . S
C4928 H4944 0.931 . S
C4929 C4928 1.391 1_655 S
C4929 C4933 1.376 . S
C4930 C4928 1.394 . S
C4930 C4931 1.369 1_455 S
C4930 C4934 1.531 . S
C4931 C4930 1.369 1_655 S
C4931 C4932 1.410 . S
C4931 C4939 1.503 . S
C4932 C4931 1.410 . S
C4932 C4933 1.392 . S
C4932 C4935 1.511 . S
C4933 C4929 1.376 . S
C4933 C4932 1.392 . S
C4933 H4945 0.929 . S
C4934 C4930 1.531 . S
C4934 H4946 0.960 . S
C4934 H4947 0.962 . S
C4934 H4948 0.960 . S
C4935 C4932 1.511 . S
C4935 H4949 0.961 . S
C4935 H4950 0.961 . S
C4935 H4951 0.961 . S
C4936 C4937 1.374 1_455 S
C4936 C4938 1.363 . S
C4936 H4952 0.931 . S
C4937 C4936 1.374 1_655 S
C4937 C4941 1.405 . S
C4938 C4936 1.363 . S
C4938 C4939 1.370 1_455 S
C4938 C4942 1.524 . S
C4939 C4931 1.503 . S
C4939 C4938 1.370 1_655 S
C4939 C4940 1.403 . S
C4940 C4939 1.403 . S
C4940 C4941 1.404 . S
C4940 C4943 1.539 . S
C4941 C4937 1.405 . S
C4941 C4940 1.404 . S
C4941 H4953 0.930 . S
C4942 C4938 1.524 . S
C4942 H4954 0.956 . S
C4942 H4955 0.961 . S
C4942 H4956 0.961 . S
C4943 C4940 1.539 . S
C4943 H4957 0.958 . S
C4943 H4958 0.961 . S
C4943 H4959 0.960 . S
H4944 C4928 0.931 . S
H4945 C4933 0.929 . S
H4946 C4934 0.960 . S
H4947 C4934 0.962 . S
H4948 C4934 0.960 . S
H4949 C4935 0.961 . S
H4950 C4935 0.961 . S
H4951 C4935 0.961 . S
H4952 C4936 0.931 . S
H4953 C4941 0.930 . S
H4954 C4942 0.956 . S
H4955 C4942 0.961 . S
H4956 C4942 0.961 . S
H4957 C4943 0.958 . S
H4958 C4943 0.961 . S
H4959 C4943 0.960 . S
C4960 C4961 1.391 . S
C4960 C4962 1.394 . S
C4960 H4976 0.931 . S
C4961 C4960 1.391 . S
C4961 C4965 1.376 . S
C4962 C4960 1.394 . S
C4962 C4963 1.369 . S
C4962 C4966 1.531 . S
C4963 C4962 1.369 . S
C4963 C4964 1.410 . S
C4963 C4971 1.503 . S
C4964 C4963 1.410 . S
C4964 C4965 1.392 . S
C4964 C4967 1.511 . S
C4965 C4961 1.376 . S
C4965 C4964 1.392 . S
C4965 H4977 0.929 . S
C4966 C4962 1.531 . S
C4966 H4978 0.960 . S
C4966 H4979 0.962 . S
C4966 H4980 0.960 . S
C4967 C4964 1.511 . S
C4967 H4981 0.961 . S
C4967 H4982 0.961 . S
C4967 H4983 0.961 . S
C4968 C4969 1.370 . S
C4968 C4970 1.363 . S
C4968 H4984 0.931 . S
C4969 C4968 1.370 . S
C4969 C4973 1.408 . S
C4970 C4968 1.363 . S
C4970 C4971 1.370 . S
C4970 C4974 1.524 . S
C4971 C4963 1.503 . S
C4971 C4970 1.370 . S
C4971 C4972 1.403 . S
C4972 C4971 1.403 . S
C4972 C4973 1.404 . S
C4972 C4975 1.539 . S
C4973 C4969 1.408 . S
C4973 C4972 1.404 . S
C4973 H4985 0.930 . S
C4974 C4970 1.524 . S
C4974 H4986 0.956 . S
C4974 H4987 0.961 . S
C4974 H4988 0.961 . S
C4975 C4972 1.539 . S
C4975 H4989 0.958 . S
C4975 H4990 0.961 . S
C4975 H4991 0.960 . S
H4976 C4960 0.931 . S
H4977 C4965 0.929 . S
H4978 C4966 0.960 . S
H4979 C4966 0.962 . S
H4980 C4966 0.960 . S
H4981 C4967 0.961 . S
H4982 C4967 0.961 . S
H4983 C4967 0.961 . S
H4984 C4968 0.931 . S
H4985 C4973 0.930 . S
H4986 C4974 0.956 . S
H4987 C4974 0.961 . S
H4988 C4974 0.961 . S
H4989 C4975 0.958 . S
H4990 C4975 0.961 . S
H4991 C4975 0.960 . S
C4992 C4993 1.391 . S
C4992 C4994 1.394 . S
C4992 H5008 0.931 . S
C4993 C4992 1.391 . S
C4993 C4997 1.376 . S
C4994 C4992 1.394 . S
C4994 C4995 1.369 . S
C4994 C4998 1.531 . S
C4995 C4994 1.369 . S
C4995 C4996 1.410 . S
C4995 C5003 1.503 1_545 S
C4996 C4995 1.410 . S
C4996 C4997 1.392 . S
C4996 C4999 1.511 . S
C4997 C4993 1.376 . S
C4997 C4996 1.392 . S
C4997 H5009 0.929 . S
C4998 C4994 1.531 . S
C4998 H5010 0.960 1_545 S
C4998 H5011 0.962 . S
C4998 H5012 0.960 . S
C4999 C4996 1.511 . S
C4999 H5013 0.961 . S
C4999 H5014 0.961 1_545 S
C4999 H5015 0.961 . S
C5000 C5001 1.370 . S
C5000 C5002 1.363 . S
C5000 H5016 0.931 . S
C5001 C5000 1.370 . S
C5001 C5005 1.408 . S
C5002 C5000 1.363 . S
C5002 C5003 1.370 . S
C5002 C5006 1.524 . S
C5003 C4995 1.503 1_565 S
C5003 C5002 1.370 . S
C5003 C5004 1.403 . S
C5004 C5003 1.403 . S
C5004 C5005 1.404 . S
C5004 C5007 1.539 . S
C5005 C5001 1.408 . S
C5005 C5004 1.404 . S
C5005 H5017 0.930 . S
C5006 C5002 1.524 . S
C5006 H5018 0.956 . S
C5006 H5019 0.970 . S
C5006 H5020 0.961 . S
C5007 C5004 1.539 . S
C5007 H5021 0.958 . S
C5007 H5022 0.961 . S
C5007 H5023 0.992 . S
H5008 C4992 0.931 . S
H5009 C4997 0.929 . S
H5010 C4998 0.960 1_565 S
H5011 C4998 0.962 . S
H5012 C4998 0.960 . S
H5013 C4999 0.961 . S
H5014 C4999 0.961 1_565 S
H5015 C4999 0.961 . S
H5016 C5000 0.931 . S
H5017 C5005 0.930 . S
H5018 C5006 0.956 . S
H5019 C5006 0.970 . S
H5020 C5006 0.961 . S
H5021 C5007 0.958 . S
H5022 C5007 0.961 . S
H5023 C5007 0.992 . S
C5024 C5025 1.363 1_554 S
C5024 C5026 1.394 . S
C5024 H5040 0.931 . S
C5025 C5024 1.363 1_556 S
C5025 C5029 1.402 . S
C5026 C5024 1.394 . S
C5026 C5027 1.369 . S
C5026 C5030 1.531 . S
C5027 C5026 1.369 . S
C5027 C5028 1.410 1_554 S
C5027 C5035 1.503 . S
C5028 C5027 1.410 1_556 S
C5028 C5029 1.392 . S
C5028 C5031 1.511 . S
C5029 C5025 1.402 . S
C5029 C5028 1.392 . S
C5029 H5041 0.929 . S
C5030 C5026 1.531 . S
C5030 H5042 0.960 . S
C5030 H5043 0.962 . S
C5030 H5044 0.960 . S
C5031 C5028 1.511 . S
C5031 H5045 0.961 . S
C5031 H5046 0.961 . S
C5031 H5047 0.961 . S
C5032 C5033 1.352 1_556 S
C5032 C5034 1.363 . S
C5032 H5048 0.931 . S
C5033 C5032 1.352 1_554 S
C5033 C5037 1.431 . S
C5034 C5032 1.363 . S
C5034 C5035 1.370 1_556 S
C5034 C5038 1.524 . S
C5035 C5027 1.503 . S
C5035 C5034 1.370 1_554 S
C5035 C5036 1.403 . S
C5036 C5035 1.403 . S
C5036 C5037 1.404 . S
C5036 C5039 1.539 . S
C5037 C5033 1.431 . S
C5037 C5036 1.404 . S
C5037 H5049 0.930 . S
C5038 C5034 1.524 . S
C5038 H5050 0.956 . S
C5038 H5051 0.961 . S
C5038 H5052 0.961 . S
C5039 C5036 1.539 . S
C5039 H5053 0.958 . S
C5039 H5054 0.961 . S
C5039 H5055 0.960 . S
H5040 C5024 0.931 . S
H5041 C5029 0.929 . S
H5042 C5030 0.960 . S
H5043 C5030 0.962 . S
H5044 C5030 0.960 . S
H5045 C5031 0.961 . S
H5046 C5031 0.961 . S
H5047 C5031 0.961 . S
H5048 C5032 0.931 . S
H5049 C5037 0.930 . S
H5050 C5038 0.956 . S
H5051 C5038 0.961 . S
H5052 C5038 0.961 . S
H5053 C5039 0.958 . S
H5054 C5039 0.961 . S
H5055 C5039 0.960 . S
C5056 C5057 1.391 . S
C5056 C5058 1.394 . S
C5056 H5072 0.931 . S
C5057 C5056 1.391 . S
C5057 C5061 1.376 1_655 S
C5058 C5056 1.394 . S
C5058 C5059 1.369 . S
C5058 C5062 1.531 . S
C5059 C5058 1.369 . S
C5059 C5060 1.410 1_655 S
C5059 C5067 1.503 1_545 S
C5060 C5059 1.410 1_455 S
C5060 C5061 1.392 . S
C5060 C5063 1.511 . S
C5061 C5057 1.376 1_455 S
C5061 C5060 1.392 . S
C5061 H5073 0.929 . S
C5062 C5058 1.531 . S
C5062 H5074 0.960 1_545 S
C5062 H5075 0.962 . S
C5062 H5076 0.960 . S
C5063 C5060 1.511 . S
C5063 H5077 0.961 . S
C5063 H5078 0.961 1_545 S
C5063 H5079 0.961 . S
C5064 C5065 1.370 . S
C5064 C5066 1.363 . S
C5064 H5080 0.931 . S
C5065 C5064 1.370 . S
C5065 C5069 1.408 . S
C5066 C5064 1.363 . S
C5066 C5067 1.370 . S
C5066 C5070 1.524 . S
C5067 C5059 1.503 1_565 S
C5067 C5066 1.370 . S
C5067 C5068 1.403 . S
C5068 C5067 1.403 . S
C5068 C5069 1.404 . S
C5068 C5071 1.539 1_655 S
C5069 C5065 1.408 . S
C5069 C5068 1.404 . S
C5069 H5081 0.930 . S
C5070 C5066 1.524 . S
C5070 H5082 0.956 . S
C5070 H5083 0.992 . S
C5070 H5084 0.961 . S
C5071 C5068 1.539 1_455 S
C5071 H5085 0.958 1_455 S
C5071 H5086 0.961 . S
C5071 H5087 0.960 . S
H5072 C5056 0.931 . S
H5073 C5061 0.929 . S
H5074 C5062 0.960 1_565 S
H5075 C5062 0.962 . S
H5076 C5062 0.960 . S
H5077 C5063 0.961 . S
H5078 C5063 0.961 1_565 S
H5079 C5063 0.961 . S
H5080 C5064 0.931 . S
H5081 C5069 0.930 . S
H5082 C5070 0.956 . S
H5083 C5070 0.992 . S
H5084 C5070 0.961 . S
H5085 C5071 0.958 1_655 S
H5086 C5071 0.961 . S
H5087 C5071 0.960 . S
C5088 C5089 1.391 . S
C5088 C5090 1.394 . S
C5088 H5104 0.931 . S
C5089 C5088 1.391 . S
C5089 C5093 1.376 . S
C5090 C5088 1.394 . S
C5090 C5091 1.369 . S
C5090 C5094 1.531 . S
C5091 C5090 1.369 . S
C5091 C5092 1.410 . S
C5091 C5099 1.503 . S
C5092 C5091 1.410 . S
C5092 C5093 1.392 . S
C5092 C5095 1.511 . S
C5093 C5089 1.376 . S
C5093 C5092 1.392 . S
C5093 H5105 0.929 . S
C5094 C5090 1.531 . S
C5094 H5106 0.960 . S
C5094 H5107 0.962 . S
C5094 H5108 0.960 . S
C5095 C5092 1.511 . S
C5095 H5109 0.961 . S
C5095 H5110 0.961 . S
C5095 H5111 0.961 . S
C5096 C5097 1.370 . S
C5096 C5098 1.363 . S
C5096 H5112 0.931 . S
C5097 C5096 1.370 . S
C5097 C5101 1.408 . S
C5098 C5096 1.363 . S
C5098 C5099 1.370 . S
C5098 C5102 1.524 . S
C5099 C5091 1.503 . S
C5099 C5098 1.370 . S
C5099 C5100 1.403 . S
C5100 C5099 1.403 . S
C5100 C5101 1.404 . S
C5100 C5103 1.539 . S
C5101 C5097 1.408 . S
C5101 C5100 1.404 . S
C5101 H5113 0.930 . S
C5102 C5098 1.524 . S
C5102 H5114 0.956 . S
C5102 H5115 0.961 . S
C5102 H5116 0.961 . S
C5103 C5100 1.539 . S
C5103 H5117 0.958 . S
C5103 H5118 0.961 . S
C5103 H5119 0.960 . S
H5104 C5088 0.931 . S
H5105 C5093 0.929 . S
H5106 C5094 0.960 . S
H5107 C5094 0.962 . S
H5108 C5094 0.960 . S
H5109 C5095 0.961 . S
H5110 C5095 0.961 . S
H5111 C5095 0.961 . S
H5112 C5096 0.931 . S
H5113 C5101 0.930 . S
H5114 C5102 0.956 . S
H5115 C5102 0.961 . S
H5116 C5102 0.961 . S
H5117 C5103 0.958 . S
H5118 C5103 0.961 . S
H5119 C5103 0.960 . S
C5120 C5121 1.391 . S
C5120 C5122 1.394 . S
C5120 H5136 0.931 . S
C5121 C5120 1.391 . S
C5121 C5125 1.376 . S
C5122 C5120 1.394 . S
C5122 C5123 1.369 . S
C5122 C5126 1.531 . S
C5123 C5122 1.369 . S
C5123 C5124 1.410 . S
C5123 C5131 1.503 1_556 S
C5124 C5123 1.410 . S
C5124 C5125 1.392 . S
C5124 C5127 1.511 . S
C5125 C5121 1.376 . S
C5125 C5124 1.392 . S
C5125 H5137 0.929 . S
C5126 C5122 1.531 . S
C5126 H5138 0.960 1_556 S
C5126 H5139 0.962 . S
C5126 H5140 0.960 . S
C5127 C5124 1.511 . S
C5127 H5141 0.961 . S
C5127 H5142 0.961 1_556 S
C5127 H5143 0.961 . S
C5128 C5129 1.370 . S
C5128 C5130 1.363 . S
C5128 H5144 0.931 . S
C5129 C5128 1.370 . S
C5129 C5133 1.408 . S
C5130 C5128 1.363 . S
C5130 C5131 1.370 . S
C5130 C5134 1.524 . S
C5131 C5123 1.503 1_554 S
C5131 C5130 1.370 . S
C5131 C5132 1.403 . S
C5132 C5131 1.403 . S
C5132 C5133 1.404 . S
C5132 C5135 1.539 . S
C5133 C5129 1.408 . S
C5133 C5132 1.404 . S
C5133 H5145 0.930 . S
C5134 C5130 1.524 . S
C5134 H5146 0.956 . S
C5134 H5147 0.924 1_554 S
C5134 H5148 0.961 . S
C5135 C5132 1.539 . S
C5135 H5149 0.958 . S
C5135 H5150 0.961 . S
C5135 H5151 0.948 1_554 S
H5136 C5120 0.931 . S
H5137 C5125 0.929 . S
H5138 C5126 0.960 1_554 S
H5139 C5126 0.962 . S
H5140 C5126 0.960 . S
H5141 C5127 0.961 . S
H5142 C5127 0.961 1_554 S
H5143 C5127 0.961 . S
H5144 C5128 0.931 . S
H5145 C5133 0.930 . S
H5146 C5134 0.956 . S
H5147 C5134 0.924 1_556 S
H5148 C5134 0.961 . S
H5149 C5135 0.958 . S
H5150 C5135 0.961 . S
H5151 C5135 0.948 1_556 S
C5152 C5153 1.391 . S
C5152 C5154 1.394 . S
C5152 H5168 0.931 . S
C5153 C5152 1.391 . S
C5153 C5157 1.376 . S
C5154 C5152 1.394 . S
C5154 C5155 1.369 . S
C5154 C5158 1.531 . S
C5155 C5154 1.369 . S
C5155 C5156 1.410 . S
C5155 C5163 1.503 . S
C5156 C5155 1.410 . S
C5156 C5157 1.392 . S
C5156 C5159 1.511 . S
C5157 C5153 1.376 . S
C5157 C5156 1.392 . S
C5157 H5169 0.929 . S
C5158 C5154 1.531 . S
C5158 H5170 0.960 . S
C5158 H5171 0.962 . S
C5158 H5172 0.960 . S
C5159 C5156 1.511 . S
C5159 H5173 0.961 . S
C5159 H5174 0.961 . S
C5159 H5175 0.961 . S
C5160 C5161 1.370 . S
C5160 C5162 1.363 . S
C5160 H5176 0.931 . S
C5161 C5160 1.370 . S
C5161 C5165 1.408 . S
C5162 C5160 1.363 . S
C5162 C5163 1.370 . S
C5162 C5166 1.524 . S
C5163 C5155 1.503 . S
C5163 C5162 1.370 . S
C5163 C5164 1.403 . S
C5164 C5163 1.403 . S
C5164 C5165 1.404 . S
C5164 C5167 1.539 . S
C5165 C5161 1.408 . S
C5165 C5164 1.404 . S
C5165 H5177 0.930 . S
C5166 C5162 1.524 . S
C5166 H5178 0.956 . S
C5166 H5179 0.961 . S
C5166 H5180 0.961 . S
C5167 C5164 1.539 . S
C5167 H5181 0.958 . S
C5167 H5182 0.961 . S
C5167 H5183 0.960 . S
H5168 C5152 0.931 . S
H5169 C5157 0.929 . S
H5170 C5158 0.960 . S
H5171 C5158 0.962 . S
H5172 C5158 0.960 . S
H5173 C5159 0.961 . S
H5174 C5159 0.961 . S
H5175 C5159 0.961 . S
H5176 C5160 0.931 . S
H5177 C5165 0.930 . S
H5178 C5166 0.956 . S
H5179 C5166 0.961 . S
H5180 C5166 0.961 . S
H5181 C5167 0.958 . S
H5182 C5167 0.961 . S
H5183 C5167 0.960 . S
C5184 C5185 1.391 . S
C5184 C5186 1.394 . S
C5184 H5200 0.931 . S
C5185 C5184 1.391 . S
C5185 C5189 1.376 . S
C5186 C5184 1.394 . S
C5186 C5187 1.369 . S
C5186 C5190 1.531 . S
C5187 C5186 1.369 . S
C5187 C5188 1.410 . S
C5187 C5195 1.503 . S
C5188 C5187 1.410 . S
C5188 C5189 1.392 . S
C5188 C5191 1.511 . S
C5189 C5185 1.376 . S
C5189 C5188 1.392 . S
C5189 H5201 0.929 . S
C5190 C5186 1.531 . S
C5190 H5202 0.960 . S
C5190 H5203 0.962 . S
C5190 H5204 0.960 . S
C5191 C5188 1.511 . S
C5191 H5205 0.961 . S
C5191 H5206 0.961 . S
C5191 H5207 0.961 . S
C5192 C5193 1.370 . S
C5192 C5194 1.363 . S
C5192 H5208 0.931 . S
C5193 C5192 1.370 . S
C5193 C5197 1.408 . S
C5194 C5192 1.363 . S
C5194 C5195 1.370 . S
C5194 C5198 1.524 . S
C5195 C5187 1.503 . S
C5195 C5194 1.370 . S
C5195 C5196 1.403 . S
C5196 C5195 1.403 . S
C5196 C5197 1.404 . S
C5196 C5199 1.539 . S
C5197 C5193 1.408 . S
C5197 C5196 1.404 . S
C5197 H5209 0.930 . S
C5198 C5194 1.524 . S
C5198 H5210 0.956 . S
C5198 H5211 0.961 . S
C5198 H5212 0.961 . S
C5199 C5196 1.539 . S
C5199 H5213 0.958 . S
C5199 H5214 0.961 . S
C5199 H5215 0.960 . S
H5200 C5184 0.931 . S
H5201 C5189 0.929 . S
H5202 C5190 0.960 . S
H5203 C5190 0.962 . S
H5204 C5190 0.960 . S
H5205 C5191 0.961 . S
H5206 C5191 0.961 . S
H5207 C5191 0.961 . S
H5208 C5192 0.931 . S
H5209 C5197 0.930 . S
H5210 C5198 0.956 . S
H5211 C5198 0.961 . S
H5212 C5198 0.961 . S
H5213 C5199 0.958 . S
H5214 C5199 0.961 . S
H5215 C5199 0.960 . S
C5216 C5217 1.391 . S
C5216 C5218 1.394 . S
C5216 H5232 0.931 . S
C5217 C5216 1.391 . S
C5217 C5221 1.376 . S
C5218 C5216 1.394 . S
C5218 C5219 1.369 . S
C5218 C5222 1.531 . S
C5219 C5218 1.369 . S
C5219 C5220 1.410 . S
C5219 C5227 1.503 . S
C5220 C5219 1.410 . S
C5220 C5221 1.392 . S
C5220 C5223 1.511 . S
C5221 C5217 1.376 . S
C5221 C5220 1.392 . S
C5221 H5233 0.929 . S
C5222 C5218 1.531 . S
C5222 H5234 0.960 . S
C5222 H5235 0.962 . S
C5222 H5236 0.960 . S
C5223 C5220 1.511 . S
C5223 H5237 0.961 . S
C5223 H5238 0.961 . S
C5223 H5239 0.961 . S
C5224 C5225 1.370 . S
C5224 C5226 1.363 . S
C5224 H5240 0.931 . S
C5225 C5224 1.370 . S
C5225 C5229 1.408 . S
C5226 C5224 1.363 . S
C5226 C5227 1.370 . S
C5226 C5230 1.524 . S
C5227 C5219 1.503 . S
C5227 C5226 1.370 . S
C5227 C5228 1.403 . S
C5228 C5227 1.403 . S
C5228 C5229 1.404 . S
C5228 C5231 1.539 . S
C5229 C5225 1.408 . S
C5229 C5228 1.404 . S
C5229 H5241 0.930 . S
C5230 C5226 1.524 . S
C5230 H5242 0.956 . S
C5230 H5243 0.961 . S
C5230 H5244 0.961 . S
C5231 C5228 1.539 . S
C5231 H5245 0.958 . S
C5231 H5246 0.961 . S
C5231 H5247 0.960 . S
H5232 C5216 0.931 . S
H5233 C5221 0.929 . S
H5234 C5222 0.960 . S
H5235 C5222 0.962 . S
H5236 C5222 0.960 . S
H5237 C5223 0.961 . S
H5238 C5223 0.961 . S
H5239 C5223 0.961 . S
H5240 C5224 0.931 . S
H5241 C5229 0.930 . S
H5242 C5230 0.956 . S
H5243 C5230 0.961 . S
H5244 C5230 0.961 . S
H5245 C5231 0.958 . S
H5246 C5231 0.961 . S
H5247 C5231 0.960 . S
C5248 C5249 1.391 . S
C5248 C5250 1.394 . S
C5248 H5264 0.931 . S
C5249 C5248 1.391 . S
C5249 C5253 1.376 . S
C5250 C5248 1.394 . S
C5250 C5251 1.369 . S
C5250 C5254 1.531 . S
C5251 C5250 1.369 . S
C5251 C5252 1.410 . S
C5251 C5259 1.503 . S
C5252 C5251 1.410 . S
C5252 C5253 1.392 . S
C5252 C5255 1.511 . S
C5253 C5249 1.376 . S
C5253 C5252 1.392 . S
C5253 H5265 0.929 . S
C5254 C5250 1.531 . S
C5254 H5266 0.960 . S
C5254 H5267 0.962 . S
C5254 H5268 0.960 . S
C5255 C5252 1.511 . S
C5255 H5269 0.961 . S
C5255 H5270 0.961 . S
C5255 H5271 0.961 . S
C5256 C5257 1.370 . S
C5256 C5258 1.363 . S
C5256 H5272 0.931 . S
C5257 C5256 1.370 . S
C5257 C5261 1.408 . S
C5258 C5256 1.363 . S
C5258 C5259 1.370 . S
C5258 C5262 1.524 . S
C5259 C5251 1.503 . S
C5259 C5258 1.370 . S
C5259 C5260 1.403 . S
C5260 C5259 1.403 . S
C5260 C5261 1.404 . S
C5260 C5263 1.539 . S
C5261 C5257 1.408 . S
C5261 C5260 1.404 . S
C5261 H5273 0.930 . S
C5262 C5258 1.524 . S
C5262 H5274 0.956 . S
C5262 H5275 0.961 . S
C5262 H5276 0.961 . S
C5263 C5260 1.539 . S
C5263 H5277 0.958 . S
C5263 H5278 0.961 . S
C5263 H5279 0.960 . S
H5264 C5248 0.931 . S
H5265 C5253 0.929 . S
H5266 C5254 0.960 . S
H5267 C5254 0.962 . S
H5268 C5254 0.960 . S
H5269 C5255 0.961 . S
H5270 C5255 0.961 . S
H5271 C5255 0.961 . S
H5272 C5256 0.931 . S
H5273 C5261 0.930 . S
H5274 C5262 0.956 . S
H5275 C5262 0.961 . S
H5276 C5262 0.961 . S
H5277 C5263 0.958 . S
H5278 C5263 0.961 . S
H5279 C5263 0.960 . S
C5280 C5281 1.391 . S
C5280 C5282 1.394 . S
C5280 H5296 0.931 . S
C5281 C5280 1.391 . S
C5281 C5285 1.376 . S
C5282 C5280 1.394 . S
C5282 C5283 1.369 . S
C5282 C5286 1.531 . S
C5283 C5282 1.369 . S
C5283 C5284 1.410 . S
C5283 C5291 1.503 1_565 S
C5284 C5283 1.410 . S
C5284 C5285 1.392 . S
C5284 C5287 1.511 . S
C5285 C5281 1.376 . S
C5285 C5284 1.392 . S
C5285 H5297 0.929 . S
C5286 C5282 1.531 . S
C5286 H5298 0.960 1_565 S
C5286 H5299 0.962 . S
C5286 H5300 0.960 . S
C5287 C5284 1.511 . S
C5287 H5301 0.961 . S
C5287 H5302 0.961 1_565 S
C5287 H5303 0.961 . S
C5288 C5289 1.370 . S
C5288 C5290 1.363 . S
C5288 H5304 0.931 . S
C5289 C5288 1.370 . S
C5289 C5293 1.408 . S
C5290 C5288 1.363 . S
C5290 C5291 1.370 . S
C5290 C5294 1.524 . S
C5291 C5283 1.503 1_545 S
C5291 C5290 1.370 . S
C5291 C5292 1.403 . S
C5292 C5291 1.403 . S
C5292 C5293 1.404 . S
C5292 C5295 1.539 . S
C5293 C5289 1.408 . S
C5293 C5292 1.404 . S
C5293 H5305 0.930 . S
C5294 C5290 1.524 . S
C5294 H5306 0.956 . S
C5294 H5307 0.969 . S
C5294 H5308 0.961 . S
C5295 C5292 1.539 . S
C5295 H5309 0.958 . S
C5295 H5310 0.961 . S
C5295 H5311 0.970 . S
H5296 C5280 0.931 . S
H5297 C5285 0.929 . S
H5298 C5286 0.960 1_545 S
H5299 C5286 0.962 . S
H5300 C5286 0.960 . S
H5301 C5287 0.961 . S
H5302 C5287 0.961 1_545 S
H5303 C5287 0.961 . S
H5304 C5288 0.931 . S
H5305 C5293 0.930 . S
H5306 C5294 0.956 . S
H5307 C5294 0.969 . S
H5308 C5294 0.961 . S
H5309 C5295 0.958 . S
H5310 C5295 0.961 . S
H5311 C5295 0.970 . S
C5312 C5313 1.391 . S
C5312 C5314 1.394 . S
C5312 H5328 0.931 . S
C5313 C5312 1.391 . S
C5313 C5317 1.376 1_554 S
C5314 C5312 1.394 . S
C5314 C5315 1.369 . S
C5314 C5318 1.531 . S
C5315 C5314 1.369 . S
C5315 C5316 1.410 1_554 S
C5315 C5323 1.503 . S
C5316 C5315 1.410 1_556 S
C5316 C5317 1.392 . S
C5316 C5319 1.511 . S
C5317 C5313 1.376 1_556 S
C5317 C5316 1.392 . S
C5317 H5329 0.929 . S
C5318 C5314 1.531 . S
C5318 H5330 0.960 . S
C5318 H5331 0.962 . S
C5318 H5332 0.960 . S
C5319 C5316 1.511 . S
C5319 H5333 0.961 . S
C5319 H5334 0.961 . S
C5319 H5335 0.961 . S
C5320 C5321 1.375 . S
C5320 C5322 1.363 . S
C5320 H5336 0.931 . S
C5321 C5320 1.375 . S
C5321 C5325 1.403 1_556 S
C5322 C5320 1.363 . S
C5322 C5323 1.370 1_556 S
C5322 C5326 1.524 . S
C5323 C5315 1.503 . S
C5323 C5322 1.370 1_554 S
C5323 C5324 1.403 . S
C5324 C5323 1.403 . S
C5324 C5325 1.404 . S
C5324 C5327 1.539 . S
C5325 C5321 1.403 1_554 S
C5325 C5324 1.404 . S
C5325 H5337 0.930 . S
C5326 C5322 1.524 . S
C5326 H5338 0.956 . S
C5326 H5339 0.961 . S
C5326 H5340 0.961 . S
C5327 C5324 1.539 . S
C5327 H5341 0.958 . S
C5327 H5342 0.961 . S
C5327 H5343 0.960 . S
H5328 C5312 0.931 . S
H5329 C5317 0.929 . S
H5330 C5318 0.960 . S
H5331 C5318 0.962 . S
H5332 C5318 0.960 . S
H5333 C5319 0.961 . S
H5334 C5319 0.961 . S
H5335 C5319 0.961 . S
H5336 C5320 0.931 . S
H5337 C5325 0.930 . S
H5338 C5326 0.956 . S
H5339 C5326 0.961 . S
H5340 C5326 0.961 . S
H5341 C5327 0.958 . S
H5342 C5327 0.961 . S
H5343 C5327 0.960 . S
C5344 C5345 1.391 1_655 S
C5344 C5346 1.394 . S
C5344 H5360 0.931 . S
C5345 C5344 1.391 1_455 S
C5345 C5349 1.376 . S
C5346 C5344 1.394 . S
C5346 C5347 1.369 1_655 S
C5346 C5350 1.531 . S
C5347 C5346 1.369 1_455 S
C5347 C5348 1.410 . S
C5347 C5355 1.503 1_545 S
C5348 C5347 1.410 . S
C5348 C5349 1.392 . S
C5348 C5351 1.511 . S
C5349 C5345 1.376 . S
C5349 C5348 1.392 . S
C5349 H5361 0.929 . S
C5350 C5346 1.531 . S
C5350 H5362 0.958 1_545 S
C5350 H5363 0.962 . S
C5350 H5364 0.960 . S
C5351 C5348 1.511 . S
C5351 H5365 0.961 . S
C5351 H5366 0.936 1_545 S
C5351 H5367 0.961 . S
C5352 C5353 1.370 . S
C5352 C5354 1.363 . S
C5352 H5368 0.931 . S
C5353 C5352 1.370 . S
C5353 C5357 1.408 . S
C5354 C5352 1.363 . S
C5354 C5355 1.370 . S
C5354 C5358 1.524 . S
C5355 C5347 1.503 1_565 S
C5355 C5354 1.370 . S
C5355 C5356 1.403 . S
C5356 C5355 1.403 . S
C5356 C5357 1.404 . S
C5356 C5359 1.539 1_455 S
C5357 C5353 1.408 . S
C5357 C5356 1.404 . S
C5357 H5369 0.909 1_455 S
C5358 C5354 1.524 . S
C5358 H5370 0.955 1_565 S
C5358 H5371 0.961 1_565 S
C5358 H5372 0.961 . S
C5359 C5356 1.539 1_655 S
C5359 H5373 0.958 . S
C5359 H5374 0.961 . S
C5359 H5375 0.960 1_665 S
H5360 C5344 0.931 . S
H5361 C5349 0.929 . S
H5362 C5350 0.958 1_565 S
H5363 C5350 0.962 . S
H5364 C5350 0.960 . S
H5365 C5351 0.961 . S
H5366 C5351 0.936 1_565 S
H5367 C5351 0.961 . S
H5368 C5352 0.931 . S
H5369 C5357 0.909 1_655 S
H5370 C5358 0.955 1_545 S
H5371 C5358 0.961 1_545 S
H5372 C5358 0.961 . S
H5373 C5359 0.958 . S
H5374 C5359 0.961 . S
H5375 C5359 0.960 1_445 S
C5376 C5377 1.391 . S
C5376 C5378 1.394 . S
C5376 H5392 0.931 . S
C5377 C5376 1.391 . S
C5377 C5381 1.376 . S
C5378 C5376 1.394 . S
C5378 C5379 1.369 . S
C5378 C5382 1.531 . S
C5379 C5378 1.369 . S
C5379 C5380 1.410 . S
C5379 C5387 1.503 . S
C5380 C5379 1.410 . S
C5380 C5381 1.392 . S
C5380 C5383 1.511 . S
C5381 C5377 1.376 . S
C5381 C5380 1.392 . S
C5381 H5393 0.929 . S
C5382 C5378 1.531 . S
C5382 H5394 0.960 . S
C5382 H5395 0.962 . S
C5382 H5396 0.960 . S
C5383 C5380 1.511 . S
C5383 H5397 0.961 . S
C5383 H5398 0.961 . S
C5383 H5399 0.961 . S
C5384 C5385 1.370 . S
C5384 C5386 1.363 . S
C5384 H5400 0.931 . S
C5385 C5384 1.370 . S
C5385 C5389 1.408 . S
C5386 C5384 1.363 . S
C5386 C5387 1.370 . S
C5386 C5390 1.524 . S
C5387 C5379 1.503 . S
C5387 C5386 1.370 . S
C5387 C5388 1.403 . S
C5388 C5387 1.403 . S
C5388 C5389 1.404 . S
C5388 C5391 1.539 . S
C5389 C5385 1.408 . S
C5389 C5388 1.404 . S
C5389 H5401 0.930 . S
C5390 C5386 1.524 . S
C5390 H5402 0.956 . S
C5390 H5403 0.961 . S
C5390 H5404 0.961 . S
C5391 C5388 1.539 . S
C5391 H5405 0.958 . S
C5391 H5406 0.961 . S
C5391 H5407 0.960 . S
H5392 C5376 0.931 . S
H5393 C5381 0.929 . S
H5394 C5382 0.960 . S
H5395 C5382 0.962 . S
H5396 C5382 0.960 . S
H5397 C5383 0.961 . S
H5398 C5383 0.961 . S
H5399 C5383 0.961 . S
H5400 C5384 0.931 . S
H5401 C5389 0.930 . S
H5402 C5390 0.956 . S
H5403 C5390 0.961 . S
H5404 C5390 0.961 . S
H5405 C5391 0.958 . S
H5406 C5391 0.961 . S
H5407 C5391 0.960 . S
C5408 C5409 1.391 . S
C5408 C5410 1.394 . S
C5408 H5424 0.931 . S
C5409 C5408 1.391 . S
C5409 C5413 1.376 . S
C5410 C5408 1.394 . S
C5410 C5411 1.369 . S
C5410 C5414 1.531 . S
C5411 C5410 1.369 . S
C5411 C5412 1.410 . S
C5411 C5419 1.503 1_554 S
C5412 C5411 1.410 . S
C5412 C5413 1.392 . S
C5412 C5415 1.511 . S
C5413 C5409 1.376 . S
C5413 C5412 1.392 . S
C5413 H5425 0.929 . S
C5414 C5410 1.531 . S
C5414 H5426 0.960 1_554 S
C5414 H5427 0.962 . S
C5414 H5428 0.960 . S
C5415 C5412 1.511 . S
C5415 H5429 0.961 . S
C5415 H5430 0.961 1_554 S
C5415 H5431 0.961 . S
C5416 C5417 1.370 . S
C5416 C5418 1.363 . S
C5416 H5432 0.931 . S
C5417 C5416 1.370 . S
C5417 C5421 1.408 . S
C5418 C5416 1.363 . S
C5418 C5419 1.370 . S
C5418 C5422 1.524 . S
C5419 C5411 1.503 1_556 S
C5419 C5418 1.370 . S
C5419 C5420 1.403 . S
C5420 C5419 1.403 . S
C5420 C5421 1.404 . S
C5420 C5423 1.539 . S
C5421 C5417 1.408 . S
C5421 C5420 1.404 . S
C5421 H5433 0.930 . S
C5422 C5418 1.524 . S
C5422 H5434 0.956 . S
C5422 H5435 0.961 1_556 S
C5422 H5436 0.961 . S
C5423 C5420 1.539 . S
C5423 H5437 0.958 . S
C5423 H5438 0.961 . S
C5423 H5439 0.962 1_556 S
H5424 C5408 0.931 . S
H5425 C5413 0.929 . S
H5426 C5414 0.960 1_556 S
H5427 C5414 0.962 . S
H5428 C5414 0.960 . S
H5429 C5415 0.961 . S
H5430 C5415 0.961 1_556 S
H5431 C5415 0.961 . S
H5432 C5416 0.931 . S
H5433 C5421 0.930 . S
H5434 C5422 0.956 . S
H5435 C5422 0.961 1_554 S
H5436 C5422 0.961 . S
H5437 C5423 0.958 . S
H5438 C5423 0.961 . S
H5439 C5423 0.962 1_554 S
C5440 C5441 1.391 . S
C5440 C5442 1.394 . S
C5440 H5456 0.931 . S
C5441 C5440 1.391 . S
C5441 C5445 1.376 . S
C5442 C5440 1.394 . S
C5442 C5443 1.369 . S
C5442 C5446 1.531 . S
C5443 C5442 1.369 . S
C5443 C5444 1.410 . S
C5443 C5451 1.503 . S
C5444 C5443 1.410 . S
C5444 C5445 1.392 . S
C5444 C5447 1.511 . S
C5445 C5441 1.376 . S
C5445 C5444 1.392 . S
C5445 H5457 0.929 . S
C5446 C5442 1.531 . S
C5446 H5458 0.960 . S
C5446 H5459 0.962 . S
C5446 H5460 0.960 . S
C5447 C5444 1.511 . S
C5447 H5461 0.961 . S
C5447 H5462 0.961 . S
C5447 H5463 0.961 . S
C5448 C5449 1.370 . S
C5448 C5450 1.363 . S
C5448 H5464 0.931 . S
C5449 C5448 1.370 . S
C5449 C5453 1.408 . S
C5450 C5448 1.363 . S
C5450 C5451 1.370 . S
C5450 C5454 1.524 . S
C5451 C5443 1.503 . S
C5451 C5450 1.370 . S
C5451 C5452 1.403 . S
C5452 C5451 1.403 . S
C5452 C5453 1.404 . S
C5452 C5455 1.539 . S
C5453 C5449 1.408 . S
C5453 C5452 1.404 . S
C5453 H5465 0.930 . S
C5454 C5450 1.524 . S
C5454 H5466 0.956 . S
C5454 H5467 0.961 . S
C5454 H5468 0.961 . S
C5455 C5452 1.539 . S
C5455 H5469 0.958 . S
C5455 H5470 0.961 . S
C5455 H5471 0.960 . S
H5456 C5440 0.931 . S
H5457 C5445 0.929 . S
H5458 C5446 0.960 . S
H5459 C5446 0.962 . S
H5460 C5446 0.960 . S
H5461 C5447 0.961 . S
H5462 C5447 0.961 . S
H5463 C5447 0.961 . S
H5464 C5448 0.931 . S
H5465 C5453 0.930 . S
H5466 C5454 0.956 . S
H5467 C5454 0.961 . S
H5468 C5454 0.961 . S
H5469 C5455 0.958 . S
H5470 C5455 0.961 . S
H5471 C5455 0.960 . S
C5472 C5473 1.391 . S
C5472 C5474 1.394 . S
C5472 H5488 0.931 . S
C5473 C5472 1.391 . S
C5473 C5477 1.376 . S
C5474 C5472 1.394 . S
C5474 C5475 1.369 . S
C5474 C5478 1.531 . S
C5475 C5474 1.369 . S
C5475 C5476 1.410 . S
C5475 C5483 1.503 . S
C5476 C5475 1.410 . S
C5476 C5477 1.392 . S
C5476 C5479 1.511 . S
C5477 C5473 1.376 . S
C5477 C5476 1.392 . S
C5477 H5489 0.929 . S
C5478 C5474 1.531 . S
C5478 H5490 0.960 . S
C5478 H5491 0.962 . S
C5478 H5492 0.960 . S
C5479 C5476 1.511 . S
C5479 H5493 0.961 . S
C5479 H5494 0.961 . S
C5479 H5495 0.961 . S
C5480 C5481 1.370 . S
C5480 C5482 1.363 . S
C5480 H5496 0.931 . S
C5481 C5480 1.370 . S
C5481 C5485 1.408 . S
C5482 C5480 1.363 . S
C5482 C5483 1.370 . S
C5482 C5486 1.524 . S
C5483 C5475 1.503 . S
C5483 C5482 1.370 . S
C5483 C5484 1.403 . S
C5484 C5483 1.403 . S
C5484 C5485 1.404 . S
C5484 C5487 1.539 . S
C5485 C5481 1.408 . S
C5485 C5484 1.404 . S
C5485 H5497 0.930 . S
C5486 C5482 1.524 . S
C5486 H5498 0.956 . S
C5486 H5499 0.961 . S
C5486 H5500 0.961 . S
C5487 C5484 1.539 . S
C5487 H5501 0.958 . S
C5487 H5502 0.961 . S
C5487 H5503 0.960 . S
H5488 C5472 0.931 . S
H5489 C5477 0.929 . S
H5490 C5478 0.960 . S
H5491 C5478 0.962 . S
H5492 C5478 0.960 . S
H5493 C5479 0.961 . S
H5494 C5479 0.961 . S
H5495 C5479 0.961 . S
H5496 C5480 0.931 . S
H5497 C5485 0.930 . S
H5498 C5486 0.956 . S
H5499 C5486 0.961 . S
H5500 C5486 0.961 . S
H5501 C5487 0.958 . S
H5502 C5487 0.961 . S
H5503 C5487 0.960 . S
C5504 C5505 1.391 . S
C5504 C5506 1.394 . S
C5504 H5520 0.931 . S
C5505 C5504 1.391 . S
C5505 C5509 1.376 . S
C5506 C5504 1.394 . S
C5506 C5507 1.369 . S
C5506 C5510 1.531 . S
C5507 C5506 1.369 . S
C5507 C5508 1.410 . S
C5507 C5515 1.503 . S
C5508 C5507 1.410 . S
C5508 C5509 1.392 . S
C5508 C5511 1.511 . S
C5509 C5505 1.376 . S
C5509 C5508 1.392 . S
C5509 H5521 0.929 . S
C5510 C5506 1.531 . S
C5510 H5522 0.960 . S
C5510 H5523 0.962 . S
C5510 H5524 0.960 . S
C5511 C5508 1.511 . S
C5511 H5525 0.961 . S
C5511 H5526 0.961 . S
C5511 H5527 0.961 . S
C5512 C5513 1.370 . S
C5512 C5514 1.363 . S
C5512 H5528 0.931 . S
C5513 C5512 1.370 . S
C5513 C5517 1.408 . S
C5514 C5512 1.363 . S
C5514 C5515 1.370 . S
C5514 C5518 1.524 . S
C5515 C5507 1.503 . S
C5515 C5514 1.370 . S
C5515 C5516 1.403 . S
C5516 C5515 1.403 . S
C5516 C5517 1.404 . S
C5516 C5519 1.539 . S
C5517 C5513 1.408 . S
C5517 C5516 1.404 . S
C5517 H5529 0.930 . S
C5518 C5514 1.524 . S
C5518 H5530 0.956 . S
C5518 H5531 0.961 . S
C5518 H5532 0.961 . S
C5519 C5516 1.539 . S
C5519 H5533 0.958 . S
C5519 H5534 0.961 . S
C5519 H5535 0.960 . S
H5520 C5504 0.931 . S
H5521 C5509 0.929 . S
H5522 C5510 0.960 . S
H5523 C5510 0.962 . S
H5524 C5510 0.960 . S
H5525 C5511 0.961 . S
H5526 C5511 0.961 . S
H5527 C5511 0.961 . S
H5528 C5512 0.931 . S
H5529 C5517 0.930 . S
H5530 C5518 0.956 . S
H5531 C5518 0.961 . S
H5532 C5518 0.961 . S
H5533 C5519 0.958 . S
H5534 C5519 0.961 . S
H5535 C5519 0.960 . S
C5536 C5537 1.391 . S
C5536 C5538 1.394 . S
C5536 H5552 0.931 . S
C5537 C5536 1.391 . S
C5537 C5541 1.376 . S
C5538 C5536 1.394 . S
C5538 C5539 1.369 . S
C5538 C5542 1.531 . S
C5539 C5538 1.369 . S
C5539 C5540 1.410 . S
C5539 C5547 1.503 . S
C5540 C5539 1.410 . S
C5540 C5541 1.392 . S
C5540 C5543 1.511 . S
C5541 C5537 1.376 . S
C5541 C5540 1.392 . S
C5541 H5553 0.929 . S
C5542 C5538 1.531 . S
C5542 H5554 0.960 . S
C5542 H5555 0.962 . S
C5542 H5556 0.960 . S
C5543 C5540 1.511 . S
C5543 H5557 0.961 . S
C5543 H5558 0.961 . S
C5543 H5559 0.961 . S
C5544 C5545 1.370 . S
C5544 C5546 1.363 . S
C5544 H5560 0.931 . S
C5545 C5544 1.370 . S
C5545 C5549 1.408 . S
C5546 C5544 1.363 . S
C5546 C5547 1.370 . S
C5546 C5550 1.524 . S
C5547 C5539 1.503 . S
C5547 C5546 1.370 . S
C5547 C5548 1.403 . S
C5548 C5547 1.403 . S
C5548 C5549 1.404 . S
C5548 C5551 1.539 . S
C5549 C5545 1.408 . S
C5549 C5548 1.404 . S
C5549 H5561 0.930 . S
C5550 C5546 1.524 . S
C5550 H5562 0.956 . S
C5550 H5563 0.961 . S
C5550 H5564 0.961 . S
C5551 C5548 1.539 . S
C5551 H5565 0.958 . S
C5551 H5566 0.961 . S
C5551 H5567 0.960 . S
H5552 C5536 0.931 . S
H5553 C5541 0.929 . S
H5554 C5542 0.960 . S
H5555 C5542 0.962 . S
H5556 C5542 0.960 . S
H5557 C5543 0.961 . S
H5558 C5543 0.961 . S
H5559 C5543 0.961 . S
H5560 C5544 0.931 . S
H5561 C5549 0.930 . S
H5562 C5550 0.956 . S
H5563 C5550 0.961 . S
H5564 C5550 0.961 . S
H5565 C5551 0.958 . S
H5566 C5551 0.961 . S
H5567 C5551 0.960 . S
C5568 C5569 1.391 . S
C5568 C5570 1.394 . S
C5568 H5584 0.931 . S
C5569 C5568 1.391 . S
C5569 C5573 1.376 . S
C5570 C5568 1.394 . S
C5570 C5571 1.369 . S
C5570 C5574 1.531 . S
C5571 C5570 1.369 . S
C5571 C5572 1.410 . S
C5571 C5579 1.503 . S
C5572 C5571 1.410 . S
C5572 C5573 1.392 . S
C5572 C5575 1.511 . S
C5573 C5569 1.376 . S
C5573 C5572 1.392 . S
C5573 H5585 0.929 . S
C5574 C5570 1.531 . S
C5574 H5586 0.960 . S
C5574 H5587 0.962 . S
C5574 H5588 0.960 . S
C5575 C5572 1.511 . S
C5575 H5589 0.961 . S
C5575 H5590 0.961 . S
C5575 H5591 0.961 . S
C5576 C5577 1.370 . S
C5576 C5578 1.363 . S
C5576 H5592 0.931 . S
C5577 C5576 1.370 . S
C5577 C5581 1.408 . S
C5578 C5576 1.363 . S
C5578 C5579 1.370 . S
C5578 C5582 1.524 . S
C5579 C5571 1.503 . S
C5579 C5578 1.370 . S
C5579 C5580 1.403 . S
C5580 C5579 1.403 . S
C5580 C5581 1.404 . S
C5580 C5583 1.539 . S
C5581 C5577 1.408 . S
C5581 C5580 1.404 . S
C5581 H5593 0.930 . S
C5582 C5578 1.524 . S
C5582 H5594 0.956 . S
C5582 H5595 0.961 . S
C5582 H5596 0.961 . S
C5583 C5580 1.539 . S
C5583 H5597 0.958 . S
C5583 H5598 0.961 . S
C5583 H5599 0.960 . S
H5584 C5568 0.931 . S
H5585 C5573 0.929 . S
H5586 C5574 0.960 . S
H5587 C5574 0.962 . S
H5588 C5574 0.960 . S
H5589 C5575 0.961 . S
H5590 C5575 0.961 . S
H5591 C5575 0.961 . S
H5592 C5576 0.931 . S
H5593 C5581 0.930 . S
H5594 C5582 0.956 . S
H5595 C5582 0.961 . S
H5596 C5582 0.961 . S
H5597 C5583 0.958 . S
H5598 C5583 0.961 . S
H5599 C5583 0.960 . S
C5600 C5601 1.391 . S
C5600 C5602 1.394 . S
C5600 H5616 0.931 . S
C5601 C5600 1.391 . S
C5601 C5605 1.376 . S
C5602 C5600 1.394 . S
C5602 C5603 1.369 . S
C5602 C5606 1.531 . S
C5603 C5602 1.369 . S
C5603 C5604 1.410 . S
C5603 C5611 1.503 . S
C5604 C5603 1.410 . S
C5604 C5605 1.392 . S
C5604 C5607 1.511 . S
C5605 C5601 1.376 . S
C5605 C5604 1.392 . S
C5605 H5617 0.929 . S
C5606 C5602 1.531 . S
C5606 H5618 0.960 . S
C5606 H5619 0.962 . S
C5606 H5620 0.960 . S
C5607 C5604 1.511 . S
C5607 H5621 0.961 . S
C5607 H5622 0.961 . S
C5607 H5623 0.961 . S
C5608 C5609 1.370 . S
C5608 C5610 1.363 . S
C5608 H5624 0.931 . S
C5609 C5608 1.370 . S
C5609 C5613 1.408 . S
C5610 C5608 1.363 . S
C5610 C5611 1.370 . S
C5610 C5614 1.524 . S
C5611 C5603 1.503 . S
C5611 C5610 1.370 . S
C5611 C5612 1.403 . S
C5612 C5611 1.403 . S
C5612 C5613 1.404 . S
C5612 C5615 1.539 . S
C5613 C5609 1.408 . S
C5613 C5612 1.404 . S
C5613 H5625 0.930 . S
C5614 C5610 1.524 . S
C5614 H5626 0.956 . S
C5614 H5627 0.961 . S
C5614 H5628 0.961 . S
C5615 C5612 1.539 . S
C5615 H5629 0.958 . S
C5615 H5630 0.961 . S
C5615 H5631 0.960 . S
H5616 C5600 0.931 . S
H5617 C5605 0.929 . S
H5618 C5606 0.960 . S
H5619 C5606 0.962 . S
H5620 C5606 0.960 . S
H5621 C5607 0.961 . S
H5622 C5607 0.961 . S
H5623 C5607 0.961 . S
H5624 C5608 0.931 . S
H5625 C5613 0.930 . S
H5626 C5614 0.956 . S
H5627 C5614 0.961 . S
H5628 C5614 0.961 . S
H5629 C5615 0.958 . S
H5630 C5615 0.961 . S
H5631 C5615 0.960 . S
C5632 C5633 1.391 . S
C5632 C5634 1.394 . S
C5632 H5648 0.931 . S
C5633 C5632 1.391 . S
C5633 C5637 1.376 . S
C5634 C5632 1.394 . S
C5634 C5635 1.369 . S
C5634 C5638 1.531 . S
C5635 C5634 1.369 . S
C5635 C5636 1.410 . S
C5635 C5643 1.503 . S
C5636 C5635 1.410 . S
C5636 C5637 1.392 . S
C5636 C5639 1.511 . S
C5637 C5633 1.376 . S
C5637 C5636 1.392 . S
C5637 H5649 0.929 . S
C5638 C5634 1.531 . S
C5638 H5650 0.960 . S
C5638 H5651 0.962 . S
C5638 H5652 0.960 . S
C5639 C5636 1.511 . S
C5639 H5653 0.961 . S
C5639 H5654 0.961 . S
C5639 H5655 0.961 . S
C5640 C5641 1.370 . S
C5640 C5642 1.363 . S
C5640 H5656 0.931 . S
C5641 C5640 1.370 . S
C5641 C5645 1.408 . S
C5642 C5640 1.363 . S
C5642 C5643 1.370 . S
C5642 C5646 1.524 . S
C5643 C5635 1.503 . S
C5643 C5642 1.370 . S
C5643 C5644 1.403 . S
C5644 C5643 1.403 . S
C5644 C5645 1.404 . S
C5644 C5647 1.539 . S
C5645 C5641 1.408 . S
C5645 C5644 1.404 . S
C5645 H5657 0.930 . S
C5646 C5642 1.524 . S
C5646 H5658 0.956 . S
C5646 H5659 0.961 . S
C5646 H5660 0.961 . S
C5647 C5644 1.539 . S
C5647 H5661 0.958 . S
C5647 H5662 0.961 . S
C5647 H5663 0.960 . S
H5648 C5632 0.931 . S
H5649 C5637 0.929 . S
H5650 C5638 0.960 . S
H5651 C5638 0.962 . S
H5652 C5638 0.960 . S
H5653 C5639 0.961 . S
H5654 C5639 0.961 . S
H5655 C5639 0.961 . S
H5656 C5640 0.931 . S
H5657 C5645 0.930 . S
H5658 C5646 0.956 . S
H5659 C5646 0.961 . S
H5660 C5646 0.961 . S
H5661 C5647 0.958 . S
H5662 C5647 0.961 . S
H5663 C5647 0.960 . S
C5664 C5665 1.391 . S
C5664 C5666 1.394 . S
C5664 H5680 0.931 . S
C5665 C5664 1.391 . S
C5665 C5669 1.376 . S
C5666 C5664 1.394 . S
C5666 C5667 1.369 . S
C5666 C5670 1.531 . S
C5667 C5666 1.369 . S
C5667 C5668 1.410 . S
C5667 C5675 1.503 . S
C5668 C5667 1.410 . S
C5668 C5669 1.392 . S
C5668 C5671 1.511 . S
C5669 C5665 1.376 . S
C5669 C5668 1.392 . S
C5669 H5681 0.929 . S
C5670 C5666 1.531 . S
C5670 H5682 0.960 . S
C5670 H5683 0.962 . S
C5670 H5684 0.960 . S
C5671 C5668 1.511 . S
C5671 H5685 0.961 . S
C5671 H5686 0.961 . S
C5671 H5687 0.961 . S
C5672 C5673 1.370 . S
C5672 C5674 1.363 . S
C5672 H5688 0.931 . S
C5673 C5672 1.370 . S
C5673 C5677 1.408 . S
C5674 C5672 1.363 . S
C5674 C5675 1.370 . S
C5674 C5678 1.524 . S
C5675 C5667 1.503 . S
C5675 C5674 1.370 . S
C5675 C5676 1.403 . S
C5676 C5675 1.403 . S
C5676 C5677 1.404 . S
C5676 C5679 1.539 . S
C5677 C5673 1.408 . S
C5677 C5676 1.404 . S
C5677 H5689 0.930 . S
C5678 C5674 1.524 . S
C5678 H5690 0.956 . S
C5678 H5691 0.961 . S
C5678 H5692 0.961 . S
C5679 C5676 1.539 . S
C5679 H5693 0.958 . S
C5679 H5694 0.961 . S
C5679 H5695 0.960 . S
H5680 C5664 0.931 . S
H5681 C5669 0.929 . S
H5682 C5670 0.960 . S
H5683 C5670 0.962 . S
H5684 C5670 0.960 . S
H5685 C5671 0.961 . S
H5686 C5671 0.961 . S
H5687 C5671 0.961 . S
H5688 C5672 0.931 . S
H5689 C5677 0.930 . S
H5690 C5678 0.956 . S
H5691 C5678 0.961 . S
H5692 C5678 0.961 . S
H5693 C5679 0.958 . S
H5694 C5679 0.961 . S
H5695 C5679 0.960 . S
C5696 C5697 1.391 . S
C5696 C5698 1.394 . S
C5696 H5712 0.931 . S
C5697 C5696 1.391 . S
C5697 C5701 1.376 . S
C5698 C5696 1.394 . S
C5698 C5699 1.369 . S
C5698 C5702 1.531 . S
C5699 C5698 1.369 . S
C5699 C5700 1.410 . S
C5699 C5707 1.503 . S
C5700 C5699 1.410 . S
C5700 C5701 1.392 . S
C5700 C5703 1.511 . S
C5701 C5697 1.376 . S
C5701 C5700 1.392 . S
C5701 H5713 0.929 . S
C5702 C5698 1.531 . S
C5702 H5714 0.960 . S
C5702 H5715 0.962 . S
C5702 H5716 0.960 . S
C5703 C5700 1.511 . S
C5703 H5717 0.961 . S
C5703 H5718 0.961 . S
C5703 H5719 0.961 . S
C5704 C5705 1.370 . S
C5704 C5706 1.363 . S
C5704 H5720 0.931 . S
C5705 C5704 1.370 . S
C5705 C5709 1.408 . S
C5706 C5704 1.363 . S
C5706 C5707 1.370 . S
C5706 C5710 1.524 . S
C5707 C5699 1.503 . S
C5707 C5706 1.370 . S
C5707 C5708 1.403 . S
C5708 C5707 1.403 . S
C5708 C5709 1.404 . S
C5708 C5711 1.539 . S
C5709 C5705 1.408 . S
C5709 C5708 1.404 . S
C5709 H5721 0.930 . S
C5710 C5706 1.524 . S
C5710 H5722 0.956 . S
C5710 H5723 0.961 . S
C5710 H5724 0.961 . S
C5711 C5708 1.539 . S
C5711 H5725 0.958 . S
C5711 H5726 0.961 . S
C5711 H5727 0.960 . S
H5712 C5696 0.931 . S
H5713 C5701 0.929 . S
H5714 C5702 0.960 . S
H5715 C5702 0.962 . S
H5716 C5702 0.960 . S
H5717 C5703 0.961 . S
H5718 C5703 0.961 . S
H5719 C5703 0.961 . S
H5720 C5704 0.931 . S
H5721 C5709 0.930 . S
H5722 C5710 0.956 . S
H5723 C5710 0.961 . S
H5724 C5710 0.961 . S
H5725 C5711 0.958 . S
H5726 C5711 0.961 . S
H5727 C5711 0.960 . S
C5728 C5729 1.391 . S
C5728 C5730 1.394 . S
C5728 H5744 0.931 . S
C5729 C5728 1.391 . S
C5729 C5733 1.376 . S
C5730 C5728 1.394 . S
C5730 C5731 1.369 . S
C5730 C5734 1.531 . S
C5731 C5730 1.369 . S
C5731 C5732 1.410 . S
C5731 C5739 1.503 . S
C5732 C5731 1.410 . S
C5732 C5733 1.392 . S
C5732 C5735 1.511 . S
C5733 C5729 1.376 . S
C5733 C5732 1.392 . S
C5733 H5745 0.929 . S
C5734 C5730 1.531 . S
C5734 H5746 0.960 . S
C5734 H5747 0.962 . S
C5734 H5748 0.960 . S
C5735 C5732 1.511 . S
C5735 H5749 0.961 . S
C5735 H5750 0.961 . S
C5735 H5751 0.961 . S
C5736 C5737 1.370 . S
C5736 C5738 1.363 . S
C5736 H5752 0.931 . S
C5737 C5736 1.370 . S
C5737 C5741 1.408 . S
C5738 C5736 1.363 . S
C5738 C5739 1.370 . S
C5738 C5742 1.524 . S
C5739 C5731 1.503 . S
C5739 C5738 1.370 . S
C5739 C5740 1.403 . S
C5740 C5739 1.403 . S
C5740 C5741 1.404 . S
C5740 C5743 1.539 . S
C5741 C5737 1.408 . S
C5741 C5740 1.404 . S
C5741 H5753 0.930 . S
C5742 C5738 1.524 . S
C5742 H5754 0.956 . S
C5742 H5755 0.961 . S
C5742 H5756 0.961 . S
C5743 C5740 1.539 . S
C5743 H5757 0.958 . S
C5743 H5758 0.961 . S
C5743 H5759 0.960 . S
H5744 C5728 0.931 . S
H5745 C5733 0.929 . S
H5746 C5734 0.960 . S
H5747 C5734 0.962 . S
H5748 C5734 0.960 . S
H5749 C5735 0.961 . S
H5750 C5735 0.961 . S
H5751 C5735 0.961 . S
H5752 C5736 0.931 . S
H5753 C5741 0.930 . S
H5754 C5742 0.956 . S
H5755 C5742 0.961 . S
H5756 C5742 0.961 . S
H5757 C5743 0.958 . S
H5758 C5743 0.961 . S
H5759 C5743 0.960 . S
C5760 C5761 1.391 . S
C5760 C5762 1.394 . S
C5760 H5776 0.931 . S
C5761 C5760 1.391 . S
C5761 C5765 1.376 . S
C5762 C5760 1.394 . S
C5762 C5763 1.369 . S
C5762 C5766 1.531 . S
C5763 C5762 1.369 . S
C5763 C5764 1.410 . S
C5763 C5771 1.503 . S
C5764 C5763 1.410 . S
C5764 C5765 1.392 . S
C5764 C5767 1.511 . S
C5765 C5761 1.376 . S
C5765 C5764 1.392 . S
C5765 H5777 0.929 . S
C5766 C5762 1.531 . S
C5766 H5778 0.960 . S
C5766 H5779 0.962 . S
C5766 H5780 0.960 . S
C5767 C5764 1.511 . S
C5767 H5781 0.961 . S
C5767 H5782 0.961 . S
C5767 H5783 0.961 . S
C5768 C5769 1.370 . S
C5768 C5770 1.363 . S
C5768 H5784 0.931 . S
C5769 C5768 1.370 . S
C5769 C5773 1.408 . S
C5770 C5768 1.363 . S
C5770 C5771 1.370 . S
C5770 C5774 1.524 . S
C5771 C5763 1.503 . S
C5771 C5770 1.370 . S
C5771 C5772 1.403 . S
C5772 C5771 1.403 . S
C5772 C5773 1.404 . S
C5772 C5775 1.539 . S
C5773 C5769 1.408 . S
C5773 C5772 1.404 . S
C5773 H5785 0.930 . S
C5774 C5770 1.524 . S
C5774 H5786 0.956 . S
C5774 H5787 0.961 . S
C5774 H5788 0.961 . S
C5775 C5772 1.539 . S
C5775 H5789 0.958 . S
C5775 H5790 0.961 . S
C5775 H5791 0.960 . S
H5776 C5760 0.931 . S
H5777 C5765 0.929 . S
H5778 C5766 0.960 . S
H5779 C5766 0.962 . S
H5780 C5766 0.960 . S
H5781 C5767 0.961 . S
H5782 C5767 0.961 . S
H5783 C5767 0.961 . S
H5784 C5768 0.931 . S
H5785 C5773 0.930 . S
H5786 C5774 0.956 . S
H5787 C5774 0.961 . S
H5788 C5774 0.961 . S
H5789 C5775 0.958 . S
H5790 C5775 0.961 . S
H5791 C5775 0.960 . S
C5792 C5793 1.391 . S
C5792 C5794 1.394 . S
C5792 H5808 0.931 . S
C5793 C5792 1.391 . S
C5793 C5797 1.376 . S
C5794 C5792 1.394 . S
C5794 C5795 1.369 . S
C5794 C5798 1.531 . S
C5795 C5794 1.369 . S
C5795 C5796 1.410 . S
C5795 C5803 1.503 . S
C5796 C5795 1.410 . S
C5796 C5797 1.392 . S
C5796 C5799 1.511 . S
C5797 C5793 1.376 . S
C5797 C5796 1.392 . S
C5797 H5809 0.929 . S
C5798 C5794 1.531 . S
C5798 H5810 0.960 . S
C5798 H5811 0.962 . S
C5798 H5812 0.960 . S
C5799 C5796 1.511 . S
C5799 H5813 0.961 . S
C5799 H5814 0.961 . S
C5799 H5815 0.961 . S
C5800 C5801 1.370 . S
C5800 C5802 1.363 . S
C5800 H5816 0.931 . S
C5801 C5800 1.370 . S
C5801 C5805 1.408 . S
C5802 C5800 1.363 . S
C5802 C5803 1.370 . S
C5802 C5806 1.524 . S
C5803 C5795 1.503 . S
C5803 C5802 1.370 . S
C5803 C5804 1.403 . S
C5804 C5803 1.403 . S
C5804 C5805 1.404 . S
C5804 C5807 1.539 . S
C5805 C5801 1.408 . S
C5805 C5804 1.404 . S
C5805 H5817 0.930 . S
C5806 C5802 1.524 . S
C5806 H5818 0.956 . S
C5806 H5819 0.961 . S
C5806 H5820 0.961 . S
C5807 C5804 1.539 . S
C5807 H5821 0.958 . S
C5807 H5822 0.961 . S
C5807 H5823 0.960 . S
H5808 C5792 0.931 . S
H5809 C5797 0.929 . S
H5810 C5798 0.960 . S
H5811 C5798 0.962 . S
H5812 C5798 0.960 . S
H5813 C5799 0.961 . S
H5814 C5799 0.961 . S
H5815 C5799 0.961 . S
H5816 C5800 0.931 . S
H5817 C5805 0.930 . S
H5818 C5806 0.956 . S
H5819 C5806 0.961 . S
H5820 C5806 0.961 . S
H5821 C5807 0.958 . S
H5822 C5807 0.961 . S
H5823 C5807 0.960 . S
C5824 C5825 1.391 . S
C5824 C5826 1.394 . S
C5824 H5840 0.931 . S
C5825 C5824 1.391 . S
C5825 C5829 1.376 . S
C5826 C5824 1.394 . S
C5826 C5827 1.369 . S
C5826 C5830 1.531 . S
C5827 C5826 1.369 . S
C5827 C5828 1.410 . S
C5827 C5835 1.503 . S
C5828 C5827 1.410 . S
C5828 C5829 1.392 . S
C5828 C5831 1.511 . S
C5829 C5825 1.376 . S
C5829 C5828 1.392 . S
C5829 H5841 0.929 . S
C5830 C5826 1.531 . S
C5830 H5842 0.960 . S
C5830 H5843 0.962 . S
C5830 H5844 0.960 . S
C5831 C5828 1.511 . S
C5831 H5845 0.961 . S
C5831 H5846 0.961 . S
C5831 H5847 0.961 . S
C5832 C5833 1.370 . S
C5832 C5834 1.363 . S
C5832 H5848 0.931 . S
C5833 C5832 1.370 . S
C5833 C5837 1.408 . S
C5834 C5832 1.363 . S
C5834 C5835 1.370 . S
C5834 C5838 1.524 . S
C5835 C5827 1.503 . S
C5835 C5834 1.370 . S
C5835 C5836 1.403 . S
C5836 C5835 1.403 . S
C5836 C5837 1.404 . S
C5836 C5839 1.539 . S
C5837 C5833 1.408 . S
C5837 C5836 1.404 . S
C5837 H5849 0.930 . S
C5838 C5834 1.524 . S
C5838 H5850 0.956 . S
C5838 H5851 0.961 . S
C5838 H5852 0.961 . S
C5839 C5836 1.539 . S
C5839 H5853 0.958 . S
C5839 H5854 0.961 . S
C5839 H5855 0.960 . S
H5840 C5824 0.931 . S
H5841 C5829 0.929 . S
H5842 C5830 0.960 . S
H5843 C5830 0.962 . S
H5844 C5830 0.960 . S
H5845 C5831 0.961 . S
H5846 C5831 0.961 . S
H5847 C5831 0.961 . S
H5848 C5832 0.931 . S
H5849 C5837 0.930 . S
H5850 C5838 0.956 . S
H5851 C5838 0.961 . S
H5852 C5838 0.961 . S
H5853 C5839 0.958 . S
H5854 C5839 0.961 . S
H5855 C5839 0.960 . S
C5856 C5857 1.391 . S
C5856 C5858 1.394 . S
C5856 H5872 0.931 . S
C5857 C5856 1.391 . S
C5857 C5861 1.376 . S
C5858 C5856 1.394 . S
C5858 C5859 1.369 . S
C5858 C5862 1.531 . S
C5859 C5858 1.369 . S
C5859 C5860 1.410 . S
C5859 C5867 1.503 . S
C5860 C5859 1.410 . S
C5860 C5861 1.392 . S
C5860 C5863 1.511 . S
C5861 C5857 1.376 . S
C5861 C5860 1.392 . S
C5861 H5873 0.929 . S
C5862 C5858 1.531 . S
C5862 H5874 0.960 . S
C5862 H5875 0.962 . S
C5862 H5876 0.960 . S
C5863 C5860 1.511 . S
C5863 H5877 0.961 . S
C5863 H5878 0.961 . S
C5863 H5879 0.961 . S
C5864 C5865 1.370 . S
C5864 C5866 1.363 . S
C5864 H5880 0.931 . S
C5865 C5864 1.370 . S
C5865 C5869 1.408 . S
C5866 C5864 1.363 . S
C5866 C5867 1.370 . S
C5866 C5870 1.524 . S
C5867 C5859 1.503 . S
C5867 C5866 1.370 . S
C5867 C5868 1.403 . S
C5868 C5867 1.403 . S
C5868 C5869 1.404 . S
C5868 C5871 1.539 . S
C5869 C5865 1.408 . S
C5869 C5868 1.404 . S
C5869 H5881 0.930 . S
C5870 C5866 1.524 . S
C5870 H5882 0.956 . S
C5870 H5883 0.961 . S
C5870 H5884 0.961 . S
C5871 C5868 1.539 . S
C5871 H5885 0.958 . S
C5871 H5886 0.961 . S
C5871 H5887 0.960 . S
H5872 C5856 0.931 . S
H5873 C5861 0.929 . S
H5874 C5862 0.960 . S
H5875 C5862 0.962 . S
H5876 C5862 0.960 . S
H5877 C5863 0.961 . S
H5878 C5863 0.961 . S
H5879 C5863 0.961 . S
H5880 C5864 0.931 . S
H5881 C5869 0.930 . S
H5882 C5870 0.956 . S
H5883 C5870 0.961 . S
H5884 C5870 0.961 . S
H5885 C5871 0.958 . S
H5886 C5871 0.961 . S
H5887 C5871 0.960 . S
C5888 C5889 1.391 . S
C5888 C5890 1.394 . S
C5888 H5904 0.931 . S
C5889 C5888 1.391 . S
C5889 C5893 1.376 . S
C5890 C5888 1.394 . S
C5890 C5891 1.369 . S
C5890 C5894 1.531 . S
C5891 C5890 1.369 . S
C5891 C5892 1.410 . S
C5891 C5899 1.503 . S
C5892 C5891 1.410 . S
C5892 C5893 1.392 . S
C5892 C5895 1.511 . S
C5893 C5889 1.376 . S
C5893 C5892 1.392 . S
C5893 H5905 0.929 . S
C5894 C5890 1.531 . S
C5894 H5906 0.960 . S
C5894 H5907 0.962 . S
C5894 H5908 0.960 . S
C5895 C5892 1.511 . S
C5895 H5909 0.961 . S
C5895 H5910 0.961 . S
C5895 H5911 0.961 . S
C5896 C5897 1.370 . S
C5896 C5898 1.363 . S
C5896 H5912 0.931 . S
C5897 C5896 1.370 . S
C5897 C5901 1.408 . S
C5898 C5896 1.363 . S
C5898 C5899 1.370 . S
C5898 C5902 1.524 . S
C5899 C5891 1.503 . S
C5899 C5898 1.370 . S
C5899 C5900 1.403 . S
C5900 C5899 1.403 . S
C5900 C5901 1.404 . S
C5900 C5903 1.539 . S
C5901 C5897 1.408 . S
C5901 C5900 1.404 . S
C5901 H5913 0.930 . S
C5902 C5898 1.524 . S
C5902 H5914 0.956 . S
C5902 H5915 0.961 . S
C5902 H5916 0.961 . S
C5903 C5900 1.539 . S
C5903 H5917 0.958 . S
C5903 H5918 0.961 . S
C5903 H5919 0.960 . S
H5904 C5888 0.931 . S
H5905 C5893 0.929 . S
H5906 C5894 0.960 . S
H5907 C5894 0.962 . S
H5908 C5894 0.960 . S
H5909 C5895 0.961 . S
H5910 C5895 0.961 . S
H5911 C5895 0.961 . S
H5912 C5896 0.931 . S
H5913 C5901 0.930 . S
H5914 C5902 0.956 . S
H5915 C5902 0.961 . S
H5916 C5902 0.961 . S
H5917 C5903 0.958 . S
H5918 C5903 0.961 . S
H5919 C5903 0.960 . S
C5920 C5921 1.391 . S
C5920 C5922 1.394 . S
C5920 H5936 0.931 . S
C5921 C5920 1.391 . S
C5921 C5925 1.376 . S
C5922 C5920 1.394 . S
C5922 C5923 1.369 . S
C5922 C5926 1.531 . S
C5923 C5922 1.369 . S
C5923 C5924 1.410 . S
C5923 C5931 1.503 . S
C5924 C5923 1.410 . S
C5924 C5925 1.392 . S
C5924 C5927 1.511 . S
C5925 C5921 1.376 . S
C5925 C5924 1.392 . S
C5925 H5937 0.929 . S
C5926 C5922 1.531 . S
C5926 H5938 0.960 . S
C5926 H5939 0.962 . S
C5926 H5940 0.960 . S
C5927 C5924 1.511 . S
C5927 H5941 0.961 . S
C5927 H5942 0.961 . S
C5927 H5943 0.961 . S
C5928 C5929 1.370 . S
C5928 C5930 1.363 . S
C5928 H5944 0.931 . S
C5929 C5928 1.370 . S
C5929 C5933 1.408 . S
C5930 C5928 1.363 . S
C5930 C5931 1.370 . S
C5930 C5934 1.524 . S
C5931 C5923 1.503 . S
C5931 C5930 1.370 . S
C5931 C5932 1.403 . S
C5932 C5931 1.403 . S
C5932 C5933 1.404 . S
C5932 C5935 1.539 . S
C5933 C5929 1.408 . S
C5933 C5932 1.404 . S
C5933 H5945 0.930 . S
C5934 C5930 1.524 . S
C5934 H5946 0.956 . S
C5934 H5947 0.961 . S
C5934 H5948 0.961 . S
C5935 C5932 1.539 . S
C5935 H5949 0.958 . S
C5935 H5950 0.961 . S
C5935 H5951 0.960 . S
H5936 C5920 0.931 . S
H5937 C5925 0.929 . S
H5938 C5926 0.960 . S
H5939 C5926 0.962 . S
H5940 C5926 0.960 . S
H5941 C5927 0.961 . S
H5942 C5927 0.961 . S
H5943 C5927 0.961 . S
H5944 C5928 0.931 . S
H5945 C5933 0.930 . S
H5946 C5934 0.956 . S
H5947 C5934 0.961 . S
H5948 C5934 0.961 . S
H5949 C5935 0.958 . S
H5950 C5935 0.961 . S
H5951 C5935 0.960 . S
C5952 C5953 1.391 . S
C5952 C5954 1.394 . S
C5952 H5968 0.931 . S
C5953 C5952 1.391 . S
C5953 C5957 1.376 . S
C5954 C5952 1.394 . S
C5954 C5955 1.369 . S
C5954 C5958 1.531 . S
C5955 C5954 1.369 . S
C5955 C5956 1.410 . S
C5955 C5963 1.503 . S
C5956 C5955 1.410 . S
C5956 C5957 1.392 . S
C5956 C5959 1.511 . S
C5957 C5953 1.376 . S
C5957 C5956 1.392 . S
C5957 H5969 0.929 . S
C5958 C5954 1.531 . S
C5958 H5970 0.960 . S
C5958 H5971 0.962 . S
C5958 H5972 0.960 . S
C5959 C5956 1.511 . S
C5959 H5973 0.961 . S
C5959 H5974 0.961 . S
C5959 H5975 0.961 . S
C5960 C5961 1.370 . S
C5960 C5962 1.363 . S
C5960 H5976 0.931 . S
C5961 C5960 1.370 . S
C5961 C5965 1.408 . S
C5962 C5960 1.363 . S
C5962 C5963 1.370 . S
C5962 C5966 1.524 . S
C5963 C5955 1.503 . S
C5963 C5962 1.370 . S
C5963 C5964 1.403 . S
C5964 C5963 1.403 . S
C5964 C5965 1.404 . S
C5964 C5967 1.539 . S
C5965 C5961 1.408 . S
C5965 C5964 1.404 . S
C5965 H5977 0.930 . S
C5966 C5962 1.524 . S
C5966 H5978 0.956 . S
C5966 H5979 0.961 . S
C5966 H5980 0.961 . S
C5967 C5964 1.539 . S
C5967 H5981 0.958 . S
C5967 H5982 0.961 . S
C5967 H5983 0.960 . S
H5968 C5952 0.931 . S
H5969 C5957 0.929 . S
H5970 C5958 0.960 . S
H5971 C5958 0.962 . S
H5972 C5958 0.960 . S
H5973 C5959 0.961 . S
H5974 C5959 0.961 . S
H5975 C5959 0.961 . S
H5976 C5960 0.931 . S
H5977 C5965 0.930 . S
H5978 C5966 0.956 . S
H5979 C5966 0.961 . S
H5980 C5966 0.961 . S
H5981 C5967 0.958 . S
H5982 C5967 0.961 . S
H5983 C5967 0.960 . S
C5984 C5985 1.391 . S
C5984 C5986 1.394 . S
C5984 H6000 0.931 . S
C5985 C5984 1.391 . S
C5985 C5989 1.376 . S
C5986 C5984 1.394 . S
C5986 C5987 1.369 . S
C5986 C5990 1.531 . S
C5987 C5986 1.369 . S
C5987 C5988 1.410 . S
C5987 C5995 1.503 . S
C5988 C5987 1.410 . S
C5988 C5989 1.392 . S
C5988 C5991 1.511 . S
C5989 C5985 1.376 . S
C5989 C5988 1.392 . S
C5989 H6001 0.929 . S
C5990 C5986 1.531 . S
C5990 H6002 0.960 . S
C5990 H6003 0.962 . S
C5990 H6004 0.960 . S
C5991 C5988 1.511 . S
C5991 H6005 0.961 . S
C5991 H6006 0.961 . S
C5991 H6007 0.961 . S
C5992 C5993 1.370 . S
C5992 C5994 1.363 . S
C5992 H6008 0.931 . S
C5993 C5992 1.370 . S
C5993 C5997 1.408 . S
C5994 C5992 1.363 . S
C5994 C5995 1.370 . S
C5994 C5998 1.524 . S
C5995 C5987 1.503 . S
C5995 C5994 1.370 . S
C5995 C5996 1.403 . S
C5996 C5995 1.403 . S
C5996 C5997 1.404 . S
C5996 C5999 1.539 . S
C5997 C5993 1.408 . S
C5997 C5996 1.404 . S
C5997 H6009 0.930 . S
C5998 C5994 1.524 . S
C5998 H6010 0.956 . S
C5998 H6011 0.961 . S
C5998 H6012 0.961 . S
C5999 C5996 1.539 . S
C5999 H6013 0.958 . S
C5999 H6014 0.961 . S
C5999 H6015 0.960 . S
H6000 C5984 0.931 . S
H6001 C5989 0.929 . S
H6002 C5990 0.960 . S
H6003 C5990 0.962 . S
H6004 C5990 0.960 . S
H6005 C5991 0.961 . S
H6006 C5991 0.961 . S
H6007 C5991 0.961 . S
H6008 C5992 0.931 . S
H6009 C5997 0.930 . S
H6010 C5998 0.956 . S
H6011 C5998 0.961 . S
H6012 C5998 0.961 . S
H6013 C5999 0.958 . S
H6014 C5999 0.961 . S
H6015 C5999 0.960 . S
C6016 C6017 1.391 . S
C6016 C6018 1.394 . S
C6016 H6032 0.931 . S
C6017 C6016 1.391 . S
C6017 C6021 1.376 . S
C6018 C6016 1.394 . S
C6018 C6019 1.369 . S
C6018 C6022 1.531 . S
C6019 C6018 1.369 . S
C6019 C6020 1.410 . S
C6019 C6027 1.503 . S
C6020 C6019 1.410 . S
C6020 C6021 1.392 . S
C6020 C6023 1.511 . S
C6021 C6017 1.376 . S
C6021 C6020 1.392 . S
C6021 H6033 0.929 . S
C6022 C6018 1.531 . S
C6022 H6034 0.960 . S
C6022 H6035 0.962 . S
C6022 H6036 0.960 . S
C6023 C6020 1.511 . S
C6023 H6037 0.961 . S
C6023 H6038 0.961 . S
C6023 H6039 0.961 . S
C6024 C6025 1.370 . S
C6024 C6026 1.363 . S
C6024 H6040 0.931 . S
C6025 C6024 1.370 . S
C6025 C6029 1.408 . S
C6026 C6024 1.363 . S
C6026 C6027 1.370 . S
C6026 C6030 1.524 . S
C6027 C6019 1.503 . S
C6027 C6026 1.370 . S
C6027 C6028 1.403 . S
C6028 C6027 1.403 . S
C6028 C6029 1.404 . S
C6028 C6031 1.539 . S
C6029 C6025 1.408 . S
C6029 C6028 1.404 . S
C6029 H6041 0.930 . S
C6030 C6026 1.524 . S
C6030 H6042 0.956 . S
C6030 H6043 0.961 . S
C6030 H6044 0.961 . S
C6031 C6028 1.539 . S
C6031 H6045 0.958 . S
C6031 H6046 0.961 . S
C6031 H6047 0.960 . S
H6032 C6016 0.931 . S
H6033 C6021 0.929 . S
H6034 C6022 0.960 . S
H6035 C6022 0.962 . S
H6036 C6022 0.960 . S
H6037 C6023 0.961 . S
H6038 C6023 0.961 . S
H6039 C6023 0.961 . S
H6040 C6024 0.931 . S
H6041 C6029 0.930 . S
H6042 C6030 0.956 . S
H6043 C6030 0.961 . S
H6044 C6030 0.961 . S
H6045 C6031 0.958 . S
H6046 C6031 0.961 . S
H6047 C6031 0.960 . S
C6048 C6049 1.391 . S
C6048 C6050 1.394 . S
C6048 H6064 0.931 . S
C6049 C6048 1.391 . S
C6049 C6053 1.376 . S
C6050 C6048 1.394 . S
C6050 C6051 1.369 . S
C6050 C6054 1.531 . S
C6051 C6050 1.369 . S
C6051 C6052 1.410 . S
C6051 C6059 1.503 . S
C6052 C6051 1.410 . S
C6052 C6053 1.392 . S
C6052 C6055 1.511 . S
C6053 C6049 1.376 . S
C6053 C6052 1.392 . S
C6053 H6065 0.929 . S
C6054 C6050 1.531 . S
C6054 H6066 0.960 . S
C6054 H6067 0.962 . S
C6054 H6068 0.960 . S
C6055 C6052 1.511 . S
C6055 H6069 0.961 . S
C6055 H6070 0.961 . S
C6055 H6071 0.961 . S
C6056 C6057 1.370 . S
C6056 C6058 1.363 . S
C6056 H6072 0.931 . S
C6057 C6056 1.370 . S
C6057 C6061 1.408 . S
C6058 C6056 1.363 . S
C6058 C6059 1.370 . S
C6058 C6062 1.524 . S
C6059 C6051 1.503 . S
C6059 C6058 1.370 . S
C6059 C6060 1.403 . S
C6060 C6059 1.403 . S
C6060 C6061 1.404 . S
C6060 C6063 1.539 . S
C6061 C6057 1.408 . S
C6061 C6060 1.404 . S
C6061 H6073 0.930 . S
C6062 C6058 1.524 . S
C6062 H6074 0.956 . S
C6062 H6075 0.961 . S
C6062 H6076 0.961 . S
C6063 C6060 1.539 . S
C6063 H6077 0.958 . S
C6063 H6078 0.961 . S
C6063 H6079 0.960 . S
H6064 C6048 0.931 . S
H6065 C6053 0.929 . S
H6066 C6054 0.960 . S
H6067 C6054 0.962 . S
H6068 C6054 0.960 . S
H6069 C6055 0.961 . S
H6070 C6055 0.961 . S
H6071 C6055 0.961 . S
H6072 C6056 0.931 . S
H6073 C6061 0.930 . S
H6074 C6062 0.956 . S
H6075 C6062 0.961 . S
H6076 C6062 0.961 . S
H6077 C6063 0.958 . S
H6078 C6063 0.961 . S
H6079 C6063 0.960 . S
C6080 C6081 1.391 . S
C6080 C6082 1.394 . S
C6080 H6096 0.931 . S
C6081 C6080 1.391 . S
C6081 C6085 1.376 . S
C6082 C6080 1.394 . S
C6082 C6083 1.369 . S
C6082 C6086 1.531 . S
C6083 C6082 1.369 . S
C6083 C6084 1.410 . S
C6083 C6091 1.503 . S
C6084 C6083 1.410 . S
C6084 C6085 1.392 . S
C6084 C6087 1.511 . S
C6085 C6081 1.376 . S
C6085 C6084 1.392 . S
C6085 H6097 0.929 . S
C6086 C6082 1.531 . S
C6086 H6098 0.960 . S
C6086 H6099 0.962 . S
C6086 H6100 0.960 . S
C6087 C6084 1.511 . S
C6087 H6101 0.961 . S
C6087 H6102 0.961 . S
C6087 H6103 0.961 . S
C6088 C6089 1.370 . S
C6088 C6090 1.363 . S
C6088 H6104 0.931 . S
C6089 C6088 1.370 . S
C6089 C6093 1.408 . S
C6090 C6088 1.363 . S
C6090 C6091 1.370 . S
C6090 C6094 1.524 . S
C6091 C6083 1.503 . S
C6091 C6090 1.370 . S
C6091 C6092 1.403 . S
C6092 C6091 1.403 . S
C6092 C6093 1.404 . S
C6092 C6095 1.539 . S
C6093 C6089 1.408 . S
C6093 C6092 1.404 . S
C6093 H6105 0.930 . S
C6094 C6090 1.524 . S
C6094 H6106 0.956 . S
C6094 H6107 0.961 . S
C6094 H6108 0.961 . S
C6095 C6092 1.539 . S
C6095 H6109 0.958 . S
C6095 H6110 0.961 . S
C6095 H6111 0.960 . S
H6096 C6080 0.931 . S
H6097 C6085 0.929 . S
H6098 C6086 0.960 . S
H6099 C6086 0.962 . S
H6100 C6086 0.960 . S
H6101 C6087 0.961 . S
H6102 C6087 0.961 . S
H6103 C6087 0.961 . S
H6104 C6088 0.931 . S
H6105 C6093 0.930 . S
H6106 C6094 0.956 . S
H6107 C6094 0.961 . S
H6108 C6094 0.961 . S
H6109 C6095 0.958 . S
H6110 C6095 0.961 . S
H6111 C6095 0.960 . S
C6112 C6113 1.391 . S
C6112 C6114 1.394 . S
C6112 H6128 0.931 . S
C6113 C6112 1.391 . S
C6113 C6117 1.376 . S
C6114 C6112 1.394 . S
C6114 C6115 1.369 . S
C6114 C6118 1.531 . S
C6115 C6114 1.369 . S
C6115 C6116 1.410 . S
C6115 C6123 1.503 . S
C6116 C6115 1.410 . S
C6116 C6117 1.392 . S
C6116 C6119 1.511 . S
C6117 C6113 1.376 . S
C6117 C6116 1.392 . S
C6117 H6129 0.929 . S
C6118 C6114 1.531 . S
C6118 H6130 0.960 . S
C6118 H6131 0.962 . S
C6118 H6132 0.960 . S
C6119 C6116 1.511 . S
C6119 H6133 0.961 . S
C6119 H6134 0.961 . S
C6119 H6135 0.961 . S
C6120 C6121 1.370 . S
C6120 C6122 1.363 . S
C6120 H6136 0.931 . S
C6121 C6120 1.370 . S
C6121 C6125 1.408 . S
C6122 C6120 1.363 . S
C6122 C6123 1.370 . S
C6122 C6126 1.524 . S
C6123 C6115 1.503 . S
C6123 C6122 1.370 . S
C6123 C6124 1.403 . S
C6124 C6123 1.403 . S
C6124 C6125 1.404 . S
C6124 C6127 1.539 . S
C6125 C6121 1.408 . S
C6125 C6124 1.404 . S
C6125 H6137 0.930 . S
C6126 C6122 1.524 . S
C6126 H6138 0.956 . S
C6126 H6139 0.961 . S
C6126 H6140 0.961 . S
C6127 C6124 1.539 . S
C6127 H6141 0.958 . S
C6127 H6142 0.961 . S
C6127 H6143 0.960 . S
H6128 C6112 0.931 . S
H6129 C6117 0.929 . S
H6130 C6118 0.960 . S
H6131 C6118 0.962 . S
H6132 C6118 0.960 . S
H6133 C6119 0.961 . S
H6134 C6119 0.961 . S
H6135 C6119 0.961 . S
H6136 C6120 0.931 . S
H6137 C6125 0.930 . S
H6138 C6126 0.956 . S
H6139 C6126 0.961 . S
H6140 C6126 0.961 . S
H6141 C6127 0.958 . S
H6142 C6127 0.961 . S
H6143 C6127 0.960 . S
C6144 C6145 1.391 . S
C6144 C6146 1.394 . S
C6144 H6160 0.931 . S
C6145 C6144 1.391 . S
C6145 C6149 1.376 . S
C6146 C6144 1.394 . S
C6146 C6147 1.369 . S
C6146 C6150 1.531 . S
C6147 C6146 1.369 . S
C6147 C6148 1.410 . S
C6147 C6155 1.503 . S
C6148 C6147 1.410 . S
C6148 C6149 1.392 . S
C6148 C6151 1.511 . S
C6149 C6145 1.376 . S
C6149 C6148 1.392 . S
C6149 H6161 0.929 . S
C6150 C6146 1.531 . S
C6150 H6162 0.960 . S
C6150 H6163 0.962 . S
C6150 H6164 0.960 . S
C6151 C6148 1.511 . S
C6151 H6165 0.961 . S
C6151 H6166 0.961 . S
C6151 H6167 0.961 . S
C6152 C6153 1.370 . S
C6152 C6154 1.363 . S
C6152 H6168 0.931 . S
C6153 C6152 1.370 . S
C6153 C6157 1.408 . S
C6154 C6152 1.363 . S
C6154 C6155 1.370 . S
C6154 C6158 1.524 . S
C6155 C6147 1.503 . S
C6155 C6154 1.370 . S
C6155 C6156 1.403 . S
C6156 C6155 1.403 . S
C6156 C6157 1.404 . S
C6156 C6159 1.539 . S
C6157 C6153 1.408 . S
C6157 C6156 1.404 . S
C6157 H6169 0.930 . S
C6158 C6154 1.524 . S
C6158 H6170 0.956 . S
C6158 H6171 0.961 . S
C6158 H6172 0.961 . S
C6159 C6156 1.539 . S
C6159 H6173 0.958 . S
C6159 H6174 0.961 . S
C6159 H6175 0.960 . S
H6160 C6144 0.931 . S
H6161 C6149 0.929 . S
H6162 C6150 0.960 . S
H6163 C6150 0.962 . S
H6164 C6150 0.960 . S
H6165 C6151 0.961 . S
H6166 C6151 0.961 . S
H6167 C6151 0.961 . S
H6168 C6152 0.931 . S
H6169 C6157 0.930 . S
H6170 C6158 0.956 . S
H6171 C6158 0.961 . S
H6172 C6158 0.961 . S
H6173 C6159 0.958 . S
H6174 C6159 0.961 . S
H6175 C6159 0.960 . S
C6176 C6177 1.391 . S
C6176 C6178 1.394 . S
C6176 H6192 0.931 . S
C6177 C6176 1.391 . S
C6177 C6181 1.376 . S
C6178 C6176 1.394 . S
C6178 C6179 1.369 . S
C6178 C6182 1.531 . S
C6179 C6178 1.369 . S
C6179 C6180 1.410 . S
C6179 C6187 1.503 . S
C6180 C6179 1.410 . S
C6180 C6181 1.392 . S
C6180 C6183 1.511 . S
C6181 C6177 1.376 . S
C6181 C6180 1.392 . S
C6181 H6193 0.929 . S
C6182 C6178 1.531 . S
C6182 H6194 0.960 . S
C6182 H6195 0.962 . S
C6182 H6196 0.960 . S
C6183 C6180 1.511 . S
C6183 H6197 0.961 . S
C6183 H6198 0.961 . S
C6183 H6199 0.961 . S
C6184 C6185 1.370 . S
C6184 C6186 1.363 . S
C6184 H6200 0.931 . S
C6185 C6184 1.370 . S
C6185 C6189 1.408 . S
C6186 C6184 1.363 . S
C6186 C6187 1.370 . S
C6186 C6190 1.524 . S
C6187 C6179 1.503 . S
C6187 C6186 1.370 . S
C6187 C6188 1.403 . S
C6188 C6187 1.403 . S
C6188 C6189 1.404 . S
C6188 C6191 1.539 . S
C6189 C6185 1.408 . S
C6189 C6188 1.404 . S
C6189 H6201 0.930 . S
C6190 C6186 1.524 . S
C6190 H6202 0.956 . S
C6190 H6203 0.961 . S
C6190 H6204 0.961 . S
C6191 C6188 1.539 . S
C6191 H6205 0.958 . S
C6191 H6206 0.961 . S
C6191 H6207 0.960 . S
H6192 C6176 0.931 . S
H6193 C6181 0.929 . S
H6194 C6182 0.960 . S
H6195 C6182 0.962 . S
H6196 C6182 0.960 . S
H6197 C6183 0.961 . S
H6198 C6183 0.961 . S
H6199 C6183 0.961 . S
H6200 C6184 0.931 . S
H6201 C6189 0.930 . S
H6202 C6190 0.956 . S
H6203 C6190 0.961 . S
H6204 C6190 0.961 . S
H6205 C6191 0.958 . S
H6206 C6191 0.961 . S
H6207 C6191 0.960 . S
C6208 C6209 1.391 . S
C6208 C6210 1.394 . S
C6208 H6224 0.931 . S
C6209 C6208 1.391 . S
C6209 C6213 1.376 . S
C6210 C6208 1.394 . S
C6210 C6211 1.369 . S
C6210 C6214 1.531 . S
C6211 C6210 1.369 . S
C6211 C6212 1.410 . S
C6211 C6219 1.503 . S
C6212 C6211 1.410 . S
C6212 C6213 1.392 . S
C6212 C6215 1.511 . S
C6213 C6209 1.376 . S
C6213 C6212 1.392 . S
C6213 H6225 0.929 . S
C6214 C6210 1.531 . S
C6214 H6226 0.960 . S
C6214 H6227 0.962 . S
C6214 H6228 0.960 . S
C6215 C6212 1.511 . S
C6215 H6229 0.961 . S
C6215 H6230 0.961 . S
C6215 H6231 0.961 . S
C6216 C6217 1.370 . S
C6216 C6218 1.363 . S
C6216 H6232 0.931 . S
C6217 C6216 1.370 . S
C6217 C6221 1.408 . S
C6218 C6216 1.363 . S
C6218 C6219 1.370 . S
C6218 C6222 1.524 . S
C6219 C6211 1.503 . S
C6219 C6218 1.370 . S
C6219 C6220 1.403 . S
C6220 C6219 1.403 . S
C6220 C6221 1.404 . S
C6220 C6223 1.539 . S
C6221 C6217 1.408 . S
C6221 C6220 1.404 . S
C6221 H6233 0.930 . S
C6222 C6218 1.524 . S
C6222 H6234 0.956 . S
C6222 H6235 0.961 . S
C6222 H6236 0.961 . S
C6223 C6220 1.539 . S
C6223 H6237 0.958 . S
C6223 H6238 0.961 . S
C6223 H6239 0.960 . S
H6224 C6208 0.931 . S
H6225 C6213 0.929 . S
H6226 C6214 0.960 . S
H6227 C6214 0.962 . S
H6228 C6214 0.960 . S
H6229 C6215 0.961 . S
H6230 C6215 0.961 . S
H6231 C6215 0.961 . S
H6232 C6216 0.931 . S
H6233 C6221 0.930 . S
H6234 C6222 0.956 . S
H6235 C6222 0.961 . S
H6236 C6222 0.961 . S
H6237 C6223 0.958 . S
H6238 C6223 0.961 . S
H6239 C6223 0.960 . S
C6240 C6241 1.391 . S
C6240 C6242 1.394 . S
C6240 H6256 0.931 . S
C6241 C6240 1.391 . S
C6241 C6245 1.376 . S
C6242 C6240 1.394 . S
C6242 C6243 1.369 . S
C6242 C6246 1.531 . S
C6243 C6242 1.369 . S
C6243 C6244 1.410 . S
C6243 C6251 1.503 . S
C6244 C6243 1.410 . S
C6244 C6245 1.392 . S
C6244 C6247 1.511 . S
C6245 C6241 1.376 . S
C6245 C6244 1.392 . S
C6245 H6257 0.929 . S
C6246 C6242 1.531 . S
C6246 H6258 0.960 . S
C6246 H6259 0.962 . S
C6246 H6260 0.960 . S
C6247 C6244 1.511 . S
C6247 H6261 0.961 . S
C6247 H6262 0.961 . S
C6247 H6263 0.961 . S
C6248 C6249 1.370 . S
C6248 C6250 1.363 . S
C6248 H6264 0.931 . S
C6249 C6248 1.370 . S
C6249 C6253 1.408 . S
C6250 C6248 1.363 . S
C6250 C6251 1.370 . S
C6250 C6254 1.524 . S
C6251 C6243 1.503 . S
C6251 C6250 1.370 . S
C6251 C6252 1.403 . S
C6252 C6251 1.403 . S
C6252 C6253 1.404 . S
C6252 C6255 1.539 . S
C6253 C6249 1.408 . S
C6253 C6252 1.404 . S
C6253 H6265 0.930 . S
C6254 C6250 1.524 . S
C6254 H6266 0.956 . S
C6254 H6267 0.961 . S
C6254 H6268 0.961 . S
C6255 C6252 1.539 . S
C6255 H6269 0.958 . S
C6255 H6270 0.961 . S
C6255 H6271 0.960 . S
H6256 C6240 0.931 . S
H6257 C6245 0.929 . S
H6258 C6246 0.960 . S
H6259 C6246 0.962 . S
H6260 C6246 0.960 . S
H6261 C6247 0.961 . S
H6262 C6247 0.961 . S
H6263 C6247 0.961 . S
H6264 C6248 0.931 . S
H6265 C6253 0.930 . S
H6266 C6254 0.956 . S
H6267 C6254 0.961 . S
H6268 C6254 0.961 . S
H6269 C6255 0.958 . S
H6270 C6255 0.961 . S
H6271 C6255 0.960 . S
C6272 C6273 1.391 . S
C6272 C6274 1.394 . S
C6272 H6288 0.931 . S
C6273 C6272 1.391 . S
C6273 C6277 1.376 . S
C6274 C6272 1.394 . S
C6274 C6275 1.369 . S
C6274 C6278 1.531 . S
C6275 C6274 1.369 . S
C6275 C6276 1.410 . S
C6275 C6283 1.503 . S
C6276 C6275 1.410 . S
C6276 C6277 1.392 . S
C6276 C6279 1.511 . S
C6277 C6273 1.376 . S
C6277 C6276 1.392 . S
C6277 H6289 0.929 . S
C6278 C6274 1.531 . S
C6278 H6290 0.960 . S
C6278 H6291 0.962 . S
C6278 H6292 0.960 . S
C6279 C6276 1.511 . S
C6279 H6293 0.961 . S
C6279 H6294 0.961 . S
C6279 H6295 0.961 . S
C6280 C6281 1.370 . S
C6280 C6282 1.363 . S
C6280 H6296 0.931 . S
C6281 C6280 1.370 . S
C6281 C6285 1.408 . S
C6282 C6280 1.363 . S
C6282 C6283 1.370 . S
C6282 C6286 1.524 . S
C6283 C6275 1.503 . S
C6283 C6282 1.370 . S
C6283 C6284 1.403 . S
C6284 C6283 1.403 . S
C6284 C6285 1.404 . S
C6284 C6287 1.539 . S
C6285 C6281 1.408 . S
C6285 C6284 1.404 . S
C6285 H6297 0.930 . S
C6286 C6282 1.524 . S
C6286 H6298 0.956 . S
C6286 H6299 0.961 . S
C6286 H6300 0.961 . S
C6287 C6284 1.539 . S
C6287 H6301 0.958 . S
C6287 H6302 0.961 . S
C6287 H6303 0.960 . S
H6288 C6272 0.931 . S
H6289 C6277 0.929 . S
H6290 C6278 0.960 . S
H6291 C6278 0.962 . S
H6292 C6278 0.960 . S
H6293 C6279 0.961 . S
H6294 C6279 0.961 . S
H6295 C6279 0.961 . S
H6296 C6280 0.931 . S
H6297 C6285 0.930 . S
H6298 C6286 0.956 . S
H6299 C6286 0.961 . S
H6300 C6286 0.961 . S
H6301 C6287 0.958 . S
H6302 C6287 0.961 . S
H6303 C6287 0.960 . S
C6304 C6305 1.391 . S
C6304 C6306 1.394 . S
C6304 H6320 0.931 . S
C6305 C6304 1.391 . S
C6305 C6309 1.376 . S
C6306 C6304 1.394 . S
C6306 C6307 1.369 . S
C6306 C6310 1.531 . S
C6307 C6306 1.369 . S
C6307 C6308 1.410 . S
C6307 C6315 1.503 . S
C6308 C6307 1.410 . S
C6308 C6309 1.392 . S
C6308 C6311 1.511 . S
C6309 C6305 1.376 . S
C6309 C6308 1.392 . S
C6309 H6321 0.929 . S
C6310 C6306 1.531 . S
C6310 H6322 0.960 . S
C6310 H6323 0.962 . S
C6310 H6324 0.960 . S
C6311 C6308 1.511 . S
C6311 H6325 0.961 . S
C6311 H6326 0.961 . S
C6311 H6327 0.961 . S
C6312 C6313 1.370 . S
C6312 C6314 1.363 . S
C6312 H6328 0.931 . S
C6313 C6312 1.370 . S
C6313 C6317 1.408 . S
C6314 C6312 1.363 . S
C6314 C6315 1.370 . S
C6314 C6318 1.524 . S
C6315 C6307 1.503 . S
C6315 C6314 1.370 . S
C6315 C6316 1.403 . S
C6316 C6315 1.403 . S
C6316 C6317 1.404 . S
C6316 C6319 1.539 . S
C6317 C6313 1.408 . S
C6317 C6316 1.404 . S
C6317 H6329 0.930 . S
C6318 C6314 1.524 . S
C6318 H6330 0.956 . S
C6318 H6331 0.961 . S
C6318 H6332 0.961 . S
C6319 C6316 1.539 . S
C6319 H6333 0.958 . S
C6319 H6334 0.961 . S
C6319 H6335 0.960 . S
H6320 C6304 0.931 . S
H6321 C6309 0.929 . S
H6322 C6310 0.960 . S
H6323 C6310 0.962 . S
H6324 C6310 0.960 . S
H6325 C6311 0.961 . S
H6326 C6311 0.961 . S
H6327 C6311 0.961 . S
H6328 C6312 0.931 . S
H6329 C6317 0.930 . S
H6330 C6318 0.956 . S
H6331 C6318 0.961 . S
H6332 C6318 0.961 . S
H6333 C6319 0.958 . S
H6334 C6319 0.961 . S
H6335 C6319 0.960 . S
C6336 C6337 1.391 . S
C6336 C6338 1.394 . S
C6336 H6352 0.931 . S
C6337 C6336 1.391 . S
C6337 C6341 1.376 . S
C6338 C6336 1.394 . S
C6338 C6339 1.369 . S
C6338 C6342 1.531 . S
C6339 C6338 1.369 . S
C6339 C6340 1.410 . S
C6339 C6347 1.503 . S
C6340 C6339 1.410 . S
C6340 C6341 1.392 . S
C6340 C6343 1.511 . S
C6341 C6337 1.376 . S
C6341 C6340 1.392 . S
C6341 H6353 0.929 . S
C6342 C6338 1.531 . S
C6342 H6354 0.960 . S
C6342 H6355 0.962 . S
C6342 H6356 0.960 . S
C6343 C6340 1.511 . S
C6343 H6357 0.961 . S
C6343 H6358 0.961 . S
C6343 H6359 0.961 . S
C6344 C6345 1.370 . S
C6344 C6346 1.363 . S
C6344 H6360 0.931 . S
C6345 C6344 1.370 . S
C6345 C6349 1.408 . S
C6346 C6344 1.363 . S
C6346 C6347 1.370 . S
C6346 C6350 1.524 . S
C6347 C6339 1.503 . S
C6347 C6346 1.370 . S
C6347 C6348 1.403 . S
C6348 C6347 1.403 . S
C6348 C6349 1.404 . S
C6348 C6351 1.539 . S
C6349 C6345 1.408 . S
C6349 C6348 1.404 . S
C6349 H6361 0.930 . S
C6350 C6346 1.524 . S
C6350 H6362 0.956 . S
C6350 H6363 0.961 . S
C6350 H6364 0.961 . S
C6351 C6348 1.539 . S
C6351 H6365 0.958 . S
C6351 H6366 0.961 . S
C6351 H6367 0.960 . S
H6352 C6336 0.931 . S
H6353 C6341 0.929 . S
H6354 C6342 0.960 . S
H6355 C6342 0.962 . S
H6356 C6342 0.960 . S
H6357 C6343 0.961 . S
H6358 C6343 0.961 . S
H6359 C6343 0.961 . S
H6360 C6344 0.931 . S
H6361 C6349 0.930 . S
H6362 C6350 0.956 . S
H6363 C6350 0.961 . S
H6364 C6350 0.961 . S
H6365 C6351 0.958 . S
H6366 C6351 0.961 . S
H6367 C6351 0.960 . S
C6368 C6369 1.391 . S
C6368 C6370 1.394 . S
C6368 H6384 0.931 . S
C6369 C6368 1.391 . S
C6369 C6373 1.376 . S
C6370 C6368 1.394 . S
C6370 C6371 1.369 . S
C6370 C6374 1.531 . S
C6371 C6370 1.369 . S
C6371 C6372 1.410 . S
C6371 C6379 1.503 . S
C6372 C6371 1.410 . S
C6372 C6373 1.392 . S
C6372 C6375 1.511 . S
C6373 C6369 1.376 . S
C6373 C6372 1.392 . S
C6373 H6385 0.929 . S
C6374 C6370 1.531 . S
C6374 H6386 0.960 . S
C6374 H6387 0.962 . S
C6374 H6388 0.960 . S
C6375 C6372 1.511 . S
C6375 H6389 0.961 . S
C6375 H6390 0.961 . S
C6375 H6391 0.961 . S
C6376 C6377 1.370 . S
C6376 C6378 1.363 . S
C6376 H6392 0.931 . S
C6377 C6376 1.370 . S
C6377 C6381 1.408 . S
C6378 C6376 1.363 . S
C6378 C6379 1.370 . S
C6378 C6382 1.524 . S
C6379 C6371 1.503 . S
C6379 C6378 1.370 . S
C6379 C6380 1.403 . S
C6380 C6379 1.403 . S
C6380 C6381 1.404 . S
C6380 C6383 1.539 . S
C6381 C6377 1.408 . S
C6381 C6380 1.404 . S
C6381 H6393 0.930 . S
C6382 C6378 1.524 . S
C6382 H6394 0.956 . S
C6382 H6395 0.961 . S
C6382 H6396 0.961 . S
C6383 C6380 1.539 . S
C6383 H6397 0.958 . S
C6383 H6398 0.961 . S
C6383 H6399 0.960 . S
H6384 C6368 0.931 . S
H6385 C6373 0.929 . S
H6386 C6374 0.960 . S
H6387 C6374 0.962 . S
H6388 C6374 0.960 . S
H6389 C6375 0.961 . S
H6390 C6375 0.961 . S
H6391 C6375 0.961 . S
H6392 C6376 0.931 . S
H6393 C6381 0.930 . S
H6394 C6382 0.956 . S
H6395 C6382 0.961 . S
H6396 C6382 0.961 . S
H6397 C6383 0.958 . S
H6398 C6383 0.961 . S
H6399 C6383 0.960 . S
C6400 C6401 1.391 . S
C6400 C6402 1.394 . S
C6400 H6416 0.931 . S
C6401 C6400 1.391 . S
C6401 C6405 1.376 . S
C6402 C6400 1.394 . S
C6402 C6403 1.369 . S
C6402 C6406 1.531 . S
C6403 C6402 1.369 . S
C6403 C6404 1.410 . S
C6403 C6411 1.503 . S
C6404 C6403 1.410 . S
C6404 C6405 1.392 . S
C6404 C6407 1.511 . S
C6405 C6401 1.376 . S
C6405 C6404 1.392 . S
C6405 H6417 0.929 . S
C6406 C6402 1.531 . S
C6406 H6418 0.960 . S
C6406 H6419 0.962 . S
C6406 H6420 0.960 . S
C6407 C6404 1.511 . S
C6407 H6421 0.961 . S
C6407 H6422 0.961 . S
C6407 H6423 0.961 . S
C6408 C6409 1.370 . S
C6408 C6410 1.363 . S
C6408 H6424 0.931 . S
C6409 C6408 1.370 . S
C6409 C6413 1.408 . S
C6410 C6408 1.363 . S
C6410 C6411 1.370 . S
C6410 C6414 1.524 . S
C6411 C6403 1.503 . S
C6411 C6410 1.370 . S
C6411 C6412 1.403 . S
C6412 C6411 1.403 . S
C6412 C6413 1.404 . S
C6412 C6415 1.539 . S
C6413 C6409 1.408 . S
C6413 C6412 1.404 . S
C6413 H6425 0.930 . S
C6414 C6410 1.524 . S
C6414 H6426 0.956 . S
C6414 H6427 0.961 . S
C6414 H6428 0.961 . S
C6415 C6412 1.539 . S
C6415 H6429 0.958 . S
C6415 H6430 0.961 . S
C6415 H6431 0.960 . S
H6416 C6400 0.931 . S
H6417 C6405 0.929 . S
H6418 C6406 0.960 . S
H6419 C6406 0.962 . S
H6420 C6406 0.960 . S
H6421 C6407 0.961 . S
H6422 C6407 0.961 . S
H6423 C6407 0.961 . S
H6424 C6408 0.931 . S
H6425 C6413 0.930 . S
H6426 C6414 0.956 . S
H6427 C6414 0.961 . S
H6428 C6414 0.961 . S
H6429 C6415 0.958 . S
H6430 C6415 0.961 . S
H6431 C6415 0.960 . S
C6432 C6433 1.391 . S
C6432 C6434 1.394 . S
C6432 H6448 0.931 . S
C6433 C6432 1.391 . S
C6433 C6437 1.376 . S
C6434 C6432 1.394 . S
C6434 C6435 1.369 . S
C6434 C6438 1.531 . S
C6435 C6434 1.369 . S
C6435 C6436 1.410 . S
C6435 C6443 1.503 . S
C6436 C6435 1.410 . S
C6436 C6437 1.392 . S
C6436 C6439 1.511 . S
C6437 C6433 1.376 . S
C6437 C6436 1.392 . S
C6437 H6449 0.929 . S
C6438 C6434 1.531 . S
C6438 H6450 0.960 . S
C6438 H6451 0.962 . S
C6438 H6452 0.960 . S
C6439 C6436 1.511 . S
C6439 H6453 0.961 . S
C6439 H6454 0.961 . S
C6439 H6455 0.961 . S
C6440 C6441 1.370 . S
C6440 C6442 1.363 . S
C6440 H6456 0.931 . S
C6441 C6440 1.370 . S
C6441 C6445 1.408 . S
C6442 C6440 1.363 . S
C6442 C6443 1.370 . S
C6442 C6446 1.524 . S
C6443 C6435 1.503 . S
C6443 C6442 1.370 . S
C6443 C6444 1.403 . S
C6444 C6443 1.403 . S
C6444 C6445 1.404 . S
C6444 C6447 1.539 . S
C6445 C6441 1.408 . S
C6445 C6444 1.404 . S
C6445 H6457 0.930 . S
C6446 C6442 1.524 . S
C6446 H6458 0.956 . S
C6446 H6459 0.961 . S
C6446 H6460 0.961 . S
C6447 C6444 1.539 . S
C6447 H6461 0.958 . S
C6447 H6462 0.961 . S
C6447 H6463 0.960 . S
H6448 C6432 0.931 . S
H6449 C6437 0.929 . S
H6450 C6438 0.960 . S
H6451 C6438 0.962 . S
H6452 C6438 0.960 . S
H6453 C6439 0.961 . S
H6454 C6439 0.961 . S
H6455 C6439 0.961 . S
H6456 C6440 0.931 . S
H6457 C6445 0.930 . S
H6458 C6446 0.956 . S
H6459 C6446 0.961 . S
H6460 C6446 0.961 . S
H6461 C6447 0.958 . S
H6462 C6447 0.961 . S
H6463 C6447 0.960 . S
C6464 C6465 1.391 . S
C6464 C6466 1.394 . S
C6464 H6480 0.931 . S
C6465 C6464 1.391 . S
C6465 C6469 1.376 . S
C6466 C6464 1.394 . S
C6466 C6467 1.369 . S
C6466 C6470 1.531 . S
C6467 C6466 1.369 . S
C6467 C6468 1.410 . S
C6467 C6475 1.503 . S
C6468 C6467 1.410 . S
C6468 C6469 1.392 . S
C6468 C6471 1.511 . S
C6469 C6465 1.376 . S
C6469 C6468 1.392 . S
C6469 H6481 0.929 . S
C6470 C6466 1.531 . S
C6470 H6482 0.960 . S
C6470 H6483 0.962 . S
C6470 H6484 0.960 . S
C6471 C6468 1.511 . S
C6471 H6485 0.961 . S
C6471 H6486 0.961 . S
C6471 H6487 0.961 . S
C6472 C6473 1.370 . S
C6472 C6474 1.363 . S
C6472 H6488 0.931 . S
C6473 C6472 1.370 . S
C6473 C6477 1.408 . S
C6474 C6472 1.363 . S
C6474 C6475 1.370 . S
C6474 C6478 1.524 . S
C6475 C6467 1.503 . S
C6475 C6474 1.370 . S
C6475 C6476 1.403 . S
C6476 C6475 1.403 . S
C6476 C6477 1.404 . S
C6476 C6479 1.539 . S
C6477 C6473 1.408 . S
C6477 C6476 1.404 . S
C6477 H6489 0.930 . S
C6478 C6474 1.524 . S
C6478 H6490 0.956 . S
C6478 H6491 0.961 . S
C6478 H6492 0.961 . S
C6479 C6476 1.539 . S
C6479 H6493 0.958 . S
C6479 H6494 0.961 . S
C6479 H6495 0.960 . S
H6480 C6464 0.931 . S
H6481 C6469 0.929 . S
H6482 C6470 0.960 . S
H6483 C6470 0.962 . S
H6484 C6470 0.960 . S
H6485 C6471 0.961 . S
H6486 C6471 0.961 . S
H6487 C6471 0.961 . S
H6488 C6472 0.931 . S
H6489 C6477 0.930 . S
H6490 C6478 0.956 . S
H6491 C6478 0.961 . S
H6492 C6478 0.961 . S
H6493 C6479 0.958 . S
H6494 C6479 0.961 . S
H6495 C6479 0.960 . S
C6496 C6497 1.391 . S
C6496 C6498 1.394 . S
C6496 H6512 0.931 . S
C6497 C6496 1.391 . S
C6497 C6501 1.376 . S
C6498 C6496 1.394 . S
C6498 C6499 1.369 . S
C6498 C6502 1.531 . S
C6499 C6498 1.369 . S
C6499 C6500 1.410 . S
C6499 C6507 1.503 . S
C6500 C6499 1.410 . S
C6500 C6501 1.392 . S
C6500 C6503 1.511 . S
C6501 C6497 1.376 . S
C6501 C6500 1.392 . S
C6501 H6513 0.929 . S
C6502 C6498 1.531 . S
C6502 H6514 0.960 . S
C6502 H6515 0.962 . S
C6502 H6516 0.960 . S
C6503 C6500 1.511 . S
C6503 H6517 0.961 . S
C6503 H6518 0.961 . S
C6503 H6519 0.961 . S
C6504 C6505 1.370 . S
C6504 C6506 1.363 . S
C6504 H6520 0.931 . S
C6505 C6504 1.370 . S
C6505 C6509 1.408 . S
C6506 C6504 1.363 . S
C6506 C6507 1.370 . S
C6506 C6510 1.524 . S
C6507 C6499 1.503 . S
C6507 C6506 1.370 . S
C6507 C6508 1.403 . S
C6508 C6507 1.403 . S
C6508 C6509 1.404 . S
C6508 C6511 1.539 . S
C6509 C6505 1.408 . S
C6509 C6508 1.404 . S
C6509 H6521 0.930 . S
C6510 C6506 1.524 . S
C6510 H6522 0.956 . S
C6510 H6523 0.961 . S
C6510 H6524 0.961 . S
C6511 C6508 1.539 . S
C6511 H6525 0.958 . S
C6511 H6526 0.961 . S
C6511 H6527 0.960 . S
H6512 C6496 0.931 . S
H6513 C6501 0.929 . S
H6514 C6502 0.960 . S
H6515 C6502 0.962 . S
H6516 C6502 0.960 . S
H6517 C6503 0.961 . S
H6518 C6503 0.961 . S
H6519 C6503 0.961 . S
H6520 C6504 0.931 . S
H6521 C6509 0.930 . S
H6522 C6510 0.956 . S
H6523 C6510 0.961 . S
H6524 C6510 0.961 . S
H6525 C6511 0.958 . S
H6526 C6511 0.961 . S
H6527 C6511 0.960 . S
C6528 C6529 1.391 . S
C6528 C6530 1.394 . S
C6528 H6544 0.931 . S
C6529 C6528 1.391 . S
C6529 C6533 1.376 . S
C6530 C6528 1.394 . S
C6530 C6531 1.369 . S
C6530 C6534 1.531 . S
C6531 C6530 1.369 . S
C6531 C6532 1.410 . S
C6531 C6539 1.503 . S
C6532 C6531 1.410 . S
C6532 C6533 1.392 . S
C6532 C6535 1.511 . S
C6533 C6529 1.376 . S
C6533 C6532 1.392 . S
C6533 H6545 0.929 . S
C6534 C6530 1.531 . S
C6534 H6546 0.960 . S
C6534 H6547 0.962 . S
C6534 H6548 0.960 . S
C6535 C6532 1.511 . S
C6535 H6549 0.961 . S
C6535 H6550 0.961 . S
C6535 H6551 0.961 . S
C6536 C6537 1.370 . S
C6536 C6538 1.363 . S
C6536 H6552 0.931 . S
C6537 C6536 1.370 . S
C6537 C6541 1.408 . S
C6538 C6536 1.363 . S
C6538 C6539 1.370 . S
C6538 C6542 1.524 . S
C6539 C6531 1.503 . S
C6539 C6538 1.370 . S
C6539 C6540 1.403 . S
C6540 C6539 1.403 . S
C6540 C6541 1.404 . S
C6540 C6543 1.539 . S
C6541 C6537 1.408 . S
C6541 C6540 1.404 . S
C6541 H6553 0.930 . S
C6542 C6538 1.524 . S
C6542 H6554 0.956 . S
C6542 H6555 0.961 . S
C6542 H6556 0.961 . S
C6543 C6540 1.539 . S
C6543 H6557 0.958 . S
C6543 H6558 0.961 . S
C6543 H6559 0.960 . S
H6544 C6528 0.931 . S
H6545 C6533 0.929 . S
H6546 C6534 0.960 . S
H6547 C6534 0.962 . S
H6548 C6534 0.960 . S
H6549 C6535 0.961 . S
H6550 C6535 0.961 . S
H6551 C6535 0.961 . S
H6552 C6536 0.931 . S
H6553 C6541 0.930 . S
H6554 C6542 0.956 . S
H6555 C6542 0.961 . S
H6556 C6542 0.961 . S
H6557 C6543 0.958 . S
H6558 C6543 0.961 . S
H6559 C6543 0.960 . S
C6560 C6561 1.391 . S
C6560 C6562 1.394 . S
C6560 H6576 0.931 . S
C6561 C6560 1.391 . S
C6561 C6565 1.376 . S
C6562 C6560 1.394 . S
C6562 C6563 1.369 . S
C6562 C6566 1.531 . S
C6563 C6562 1.369 . S
C6563 C6564 1.410 . S
C6563 C6571 1.503 . S
C6564 C6563 1.410 . S
C6564 C6565 1.392 . S
C6564 C6567 1.511 . S
C6565 C6561 1.376 . S
C6565 C6564 1.392 . S
C6565 H6577 0.929 . S
C6566 C6562 1.531 . S
C6566 H6578 0.960 . S
C6566 H6579 0.962 . S
C6566 H6580 0.960 . S
C6567 C6564 1.511 . S
C6567 H6581 0.961 . S
C6567 H6582 0.961 . S
C6567 H6583 0.961 . S
C6568 C6569 1.370 . S
C6568 C6570 1.363 . S
C6568 H6584 0.931 . S
C6569 C6568 1.370 . S
C6569 C6573 1.408 . S
C6570 C6568 1.363 . S
C6570 C6571 1.370 . S
C6570 C6574 1.524 . S
C6571 C6563 1.503 . S
C6571 C6570 1.370 . S
C6571 C6572 1.403 . S
C6572 C6571 1.403 . S
C6572 C6573 1.404 . S
C6572 C6575 1.539 . S
C6573 C6569 1.408 . S
C6573 C6572 1.404 . S
C6573 H6585 0.930 . S
C6574 C6570 1.524 . S
C6574 H6586 0.956 . S
C6574 H6587 0.961 . S
C6574 H6588 0.961 . S
C6575 C6572 1.539 . S
C6575 H6589 0.958 . S
C6575 H6590 0.961 . S
C6575 H6591 0.960 . S
H6576 C6560 0.931 . S
H6577 C6565 0.929 . S
H6578 C6566 0.960 . S
H6579 C6566 0.962 . S
H6580 C6566 0.960 . S
H6581 C6567 0.961 . S
H6582 C6567 0.961 . S
H6583 C6567 0.961 . S
H6584 C6568 0.931 . S
H6585 C6573 0.930 . S
H6586 C6574 0.956 . S
H6587 C6574 0.961 . S
H6588 C6574 0.961 . S
H6589 C6575 0.958 . S
H6590 C6575 0.961 . S
H6591 C6575 0.960 . S
C6592 C6593 1.391 . S
C6592 C6594 1.394 . S
C6592 H6608 0.931 . S
C6593 C6592 1.391 . S
C6593 C6597 1.376 . S
C6594 C6592 1.394 . S
C6594 C6595 1.369 . S
C6594 C6598 1.531 . S
C6595 C6594 1.369 . S
C6595 C6596 1.410 . S
C6595 C6603 1.503 . S
C6596 C6595 1.410 . S
C6596 C6597 1.392 . S
C6596 C6599 1.511 . S
C6597 C6593 1.376 . S
C6597 C6596 1.392 . S
C6597 H6609 0.929 . S
C6598 C6594 1.531 . S
C6598 H6610 0.960 . S
C6598 H6611 0.962 . S
C6598 H6612 0.960 . S
C6599 C6596 1.511 . S
C6599 H6613 0.961 . S
C6599 H6614 0.961 . S
C6599 H6615 0.961 . S
C6600 C6601 1.370 . S
C6600 C6602 1.363 . S
C6600 H6616 0.931 . S
C6601 C6600 1.370 . S
C6601 C6605 1.408 . S
C6602 C6600 1.363 . S
C6602 C6603 1.370 . S
C6602 C6606 1.524 . S
C6603 C6595 1.503 . S
C6603 C6602 1.370 . S
C6603 C6604 1.403 . S
C6604 C6603 1.403 . S
C6604 C6605 1.404 . S
C6604 C6607 1.539 . S
C6605 C6601 1.408 . S
C6605 C6604 1.404 . S
C6605 H6617 0.930 . S
C6606 C6602 1.524 . S
C6606 H6618 0.956 . S
C6606 H6619 0.961 . S
C6606 H6620 0.961 . S
C6607 C6604 1.539 . S
C6607 H6621 0.958 . S
C6607 H6622 0.961 . S
C6607 H6623 0.960 . S
H6608 C6592 0.931 . S
H6609 C6597 0.929 . S
H6610 C6598 0.960 . S
H6611 C6598 0.962 . S
H6612 C6598 0.960 . S
H6613 C6599 0.961 . S
H6614 C6599 0.961 . S
H6615 C6599 0.961 . S
H6616 C6600 0.931 . S
H6617 C6605 0.930 . S
H6618 C6606 0.956 . S
H6619 C6606 0.961 . S
H6620 C6606 0.961 . S
H6621 C6607 0.958 . S
H6622 C6607 0.961 . S
H6623 C6607 0.960 . S
C6624 C6625 1.391 . S
C6624 C6626 1.394 . S
C6624 H6640 0.931 . S
C6625 C6624 1.391 . S
C6625 C6629 1.376 . S
C6626 C6624 1.394 . S
C6626 C6627 1.369 . S
C6626 C6630 1.531 . S
C6627 C6626 1.369 . S
C6627 C6628 1.410 . S
C6627 C6635 1.503 . S
C6628 C6627 1.410 . S
C6628 C6629 1.392 . S
C6628 C6631 1.511 . S
C6629 C6625 1.376 . S
C6629 C6628 1.392 . S
C6629 H6641 0.929 . S
C6630 C6626 1.531 . S
C6630 H6642 0.960 . S
C6630 H6643 0.962 . S
C6630 H6644 0.960 . S
C6631 C6628 1.511 . S
C6631 H6645 0.961 . S
C6631 H6646 0.961 . S
C6631 H6647 0.961 . S
C6632 C6633 1.370 . S
C6632 C6634 1.363 . S
C6632 H6648 0.931 . S
C6633 C6632 1.370 . S
C6633 C6637 1.408 . S
C6634 C6632 1.363 . S
C6634 C6635 1.370 . S
C6634 C6638 1.524 . S
C6635 C6627 1.503 . S
C6635 C6634 1.370 . S
C6635 C6636 1.403 . S
C6636 C6635 1.403 . S
C6636 C6637 1.404 . S
C6636 C6639 1.539 . S
C6637 C6633 1.408 . S
C6637 C6636 1.404 . S
C6637 H6649 0.930 . S
C6638 C6634 1.524 . S
C6638 H6650 0.956 . S
C6638 H6651 0.961 . S
C6638 H6652 0.961 . S
C6639 C6636 1.539 . S
C6639 H6653 0.958 . S
C6639 H6654 0.961 . S
C6639 H6655 0.960 . S
H6640 C6624 0.931 . S
H6641 C6629 0.929 . S
H6642 C6630 0.960 . S
H6643 C6630 0.962 . S
H6644 C6630 0.960 . S
H6645 C6631 0.961 . S
H6646 C6631 0.961 . S
H6647 C6631 0.961 . S
H6648 C6632 0.931 . S
H6649 C6637 0.930 . S
H6650 C6638 0.956 . S
H6651 C6638 0.961 . S
H6652 C6638 0.961 . S
H6653 C6639 0.958 . S
H6654 C6639 0.961 . S
H6655 C6639 0.960 . S
C6656 C6657 1.391 . S
C6656 C6658 1.394 . S
C6656 H6672 0.931 . S
C6657 C6656 1.391 . S
C6657 C6661 1.376 . S
C6658 C6656 1.394 . S
C6658 C6659 1.369 . S
C6658 C6662 1.531 . S
C6659 C6658 1.369 . S
C6659 C6660 1.410 . S
C6659 C6667 1.503 . S
C6660 C6659 1.410 . S
C6660 C6661 1.392 . S
C6660 C6663 1.511 . S
C6661 C6657 1.376 . S
C6661 C6660 1.392 . S
C6661 H6673 0.929 . S
C6662 C6658 1.531 . S
C6662 H6674 0.960 . S
C6662 H6675 0.962 . S
C6662 H6676 0.960 . S
C6663 C6660 1.511 . S
C6663 H6677 0.961 . S
C6663 H6678 0.961 . S
C6663 H6679 0.961 . S
C6664 C6665 1.370 . S
C6664 C6666 1.363 . S
C6664 H6680 0.931 . S
C6665 C6664 1.370 . S
C6665 C6669 1.408 . S
C6666 C6664 1.363 . S
C6666 C6667 1.370 . S
C6666 C6670 1.524 . S
C6667 C6659 1.503 . S
C6667 C6666 1.370 . S
C6667 C6668 1.403 . S
C6668 C6667 1.403 . S
C6668 C6669 1.404 . S
C6668 C6671 1.539 . S
C6669 C6665 1.408 . S
C6669 C6668 1.404 . S
C6669 H6681 0.930 . S
C6670 C6666 1.524 . S
C6670 H6682 0.956 . S
C6670 H6683 0.961 . S
C6670 H6684 0.961 . S
C6671 C6668 1.539 . S
C6671 H6685 0.958 . S
C6671 H6686 0.961 . S
C6671 H6687 0.960 . S
H6672 C6656 0.931 . S
H6673 C6661 0.929 . S
H6674 C6662 0.960 . S
H6675 C6662 0.962 . S
H6676 C6662 0.960 . S
H6677 C6663 0.961 . S
H6678 C6663 0.961 . S
H6679 C6663 0.961 . S
H6680 C6664 0.931 . S
H6681 C6669 0.930 . S
H6682 C6670 0.956 . S
H6683 C6670 0.961 . S
H6684 C6670 0.961 . S
H6685 C6671 0.958 . S
H6686 C6671 0.961 . S
H6687 C6671 0.960 . S
C6688 C6689 1.391 . S
C6688 C6690 1.394 . S
C6688 H6704 0.931 . S
C6689 C6688 1.391 . S
C6689 C6693 1.376 . S
C6690 C6688 1.394 . S
C6690 C6691 1.369 . S
C6690 C6694 1.531 . S
C6691 C6690 1.369 . S
C6691 C6692 1.410 . S
C6691 C6699 1.503 . S
C6692 C6691 1.410 . S
C6692 C6693 1.392 . S
C6692 C6695 1.511 . S
C6693 C6689 1.376 . S
C6693 C6692 1.392 . S
C6693 H6705 0.929 . S
C6694 C6690 1.531 . S
C6694 H6706 0.960 . S
C6694 H6707 0.962 . S
C6694 H6708 0.960 . S
C6695 C6692 1.511 . S
C6695 H6709 0.961 . S
C6695 H6710 0.961 . S
C6695 H6711 0.961 . S
C6696 C6697 1.370 . S
C6696 C6698 1.363 . S
C6696 H6712 0.931 . S
C6697 C6696 1.370 . S
C6697 C6701 1.408 . S
C6698 C6696 1.363 . S
C6698 C6699 1.370 . S
C6698 C6702 1.524 . S
C6699 C6691 1.503 . S
C6699 C6698 1.370 . S
C6699 C6700 1.403 . S
C6700 C6699 1.403 . S
C6700 C6701 1.404 . S
C6700 C6703 1.539 . S
C6701 C6697 1.408 . S
C6701 C6700 1.404 . S
C6701 H6713 0.930 . S
C6702 C6698 1.524 . S
C6702 H6714 0.956 . S
C6702 H6715 0.961 . S
C6702 H6716 0.961 . S
C6703 C6700 1.539 . S
C6703 H6717 0.958 . S
C6703 H6718 0.961 . S
C6703 H6719 0.960 . S
H6704 C6688 0.931 . S
H6705 C6693 0.929 . S
H6706 C6694 0.960 . S
H6707 C6694 0.962 . S
H6708 C6694 0.960 . S
H6709 C6695 0.961 . S
H6710 C6695 0.961 . S
H6711 C6695 0.961 . S
H6712 C6696 0.931 . S
H6713 C6701 0.930 . S
H6714 C6702 0.956 . S
H6715 C6702 0.961 . S
H6716 C6702 0.961 . S
H6717 C6703 0.958 . S
H6718 C6703 0.961 . S
H6719 C6703 0.960 . S
C6720 C6721 1.391 . S
C6720 C6722 1.394 . S
C6720 H6736 0.931 . S
C6721 C6720 1.391 . S
C6721 C6725 1.376 . S
C6722 C6720 1.394 . S
C6722 C6723 1.369 . S
C6722 C6726 1.531 . S
C6723 C6722 1.369 . S
C6723 C6724 1.410 . S
C6723 C6731 1.503 . S
C6724 C6723 1.410 . S
C6724 C6725 1.392 . S
C6724 C6727 1.511 . S
C6725 C6721 1.376 . S
C6725 C6724 1.392 . S
C6725 H6737 0.929 . S
C6726 C6722 1.531 . S
C6726 H6738 0.960 . S
C6726 H6739 0.962 . S
C6726 H6740 0.960 . S
C6727 C6724 1.511 . S
C6727 H6741 0.961 . S
C6727 H6742 0.961 . S
C6727 H6743 0.961 . S
C6728 C6729 1.370 . S
C6728 C6730 1.363 . S
C6728 H6744 0.931 . S
C6729 C6728 1.370 . S
C6729 C6733 1.408 . S
C6730 C6728 1.363 . S
C6730 C6731 1.370 . S
C6730 C6734 1.524 . S
C6731 C6723 1.503 . S
C6731 C6730 1.370 . S
C6731 C6732 1.403 . S
C6732 C6731 1.403 . S
C6732 C6733 1.404 . S
C6732 C6735 1.539 . S
C6733 C6729 1.408 . S
C6733 C6732 1.404 . S
C6733 H6745 0.930 . S
C6734 C6730 1.524 . S
C6734 H6746 0.956 . S
C6734 H6747 0.961 . S
C6734 H6748 0.961 . S
C6735 C6732 1.539 . S
C6735 H6749 0.958 . S
C6735 H6750 0.961 . S
C6735 H6751 0.960 . S
H6736 C6720 0.931 . S
H6737 C6725 0.929 . S
H6738 C6726 0.960 . S
H6739 C6726 0.962 . S
H6740 C6726 0.960 . S
H6741 C6727 0.961 . S
H6742 C6727 0.961 . S
H6743 C6727 0.961 . S
H6744 C6728 0.931 . S
H6745 C6733 0.930 . S
H6746 C6734 0.956 . S
H6747 C6734 0.961 . S
H6748 C6734 0.961 . S
H6749 C6735 0.958 . S
H6750 C6735 0.961 . S
H6751 C6735 0.960 . S
C6752 C6753 1.391 . S
C6752 C6754 1.394 . S
C6752 H6768 0.931 . S
C6753 C6752 1.391 . S
C6753 C6757 1.376 . S
C6754 C6752 1.394 . S
C6754 C6755 1.369 . S
C6754 C6758 1.531 . S
C6755 C6754 1.369 . S
C6755 C6756 1.410 . S
C6755 C6763 1.503 . S
C6756 C6755 1.410 . S
C6756 C6757 1.392 . S
C6756 C6759 1.511 . S
C6757 C6753 1.376 . S
C6757 C6756 1.392 . S
C6757 H6769 0.929 . S
C6758 C6754 1.531 . S
C6758 H6770 0.960 . S
C6758 H6771 0.962 . S
C6758 H6772 0.960 . S
C6759 C6756 1.511 . S
C6759 H6773 0.961 . S
C6759 H6774 0.961 . S
C6759 H6775 0.961 . S
C6760 C6761 1.370 . S
C6760 C6762 1.363 . S
C6760 H6776 0.931 . S
C6761 C6760 1.370 . S
C6761 C6765 1.408 . S
C6762 C6760 1.363 . S
C6762 C6763 1.370 . S
C6762 C6766 1.524 . S
C6763 C6755 1.503 . S
C6763 C6762 1.370 . S
C6763 C6764 1.403 . S
C6764 C6763 1.403 . S
C6764 C6765 1.404 . S
C6764 C6767 1.539 . S
C6765 C6761 1.408 . S
C6765 C6764 1.404 . S
C6765 H6777 0.930 . S
C6766 C6762 1.524 . S
C6766 H6778 0.956 . S
C6766 H6779 0.961 . S
C6766 H6780 0.961 . S
C6767 C6764 1.539 . S
C6767 H6781 0.958 . S
C6767 H6782 0.961 . S
C6767 H6783 0.960 . S
H6768 C6752 0.931 . S
H6769 C6757 0.929 . S
H6770 C6758 0.960 . S
H6771 C6758 0.962 . S
H6772 C6758 0.960 . S
H6773 C6759 0.961 . S
H6774 C6759 0.961 . S
H6775 C6759 0.961 . S
H6776 C6760 0.931 . S
H6777 C6765 0.930 . S
H6778 C6766 0.956 . S
H6779 C6766 0.961 . S
H6780 C6766 0.961 . S
H6781 C6767 0.958 . S
H6782 C6767 0.961 . S
H6783 C6767 0.960 . S
C6784 C6785 1.391 . S
C6784 C6786 1.394 . S
C6784 H6800 0.931 . S
C6785 C6784 1.391 . S
C6785 C6789 1.376 . S
C6786 C6784 1.394 . S
C6786 C6787 1.369 . S
C6786 C6790 1.531 . S
C6787 C6786 1.369 . S
C6787 C6788 1.410 . S
C6787 C6795 1.503 . S
C6788 C6787 1.410 . S
C6788 C6789 1.392 . S
C6788 C6791 1.511 . S
C6789 C6785 1.376 . S
C6789 C6788 1.392 . S
C6789 H6801 0.929 . S
C6790 C6786 1.531 . S
C6790 H6802 0.960 . S
C6790 H6803 0.962 . S
C6790 H6804 0.960 . S
C6791 C6788 1.511 . S
C6791 H6805 0.961 . S
C6791 H6806 0.961 . S
C6791 H6807 0.961 . S
C6792 C6793 1.370 . S
C6792 C6794 1.363 . S
C6792 H6808 0.931 . S
C6793 C6792 1.370 . S
C6793 C6797 1.408 . S
C6794 C6792 1.363 . S
C6794 C6795 1.370 . S
C6794 C6798 1.524 . S
C6795 C6787 1.503 . S
C6795 C6794 1.370 . S
C6795 C6796 1.403 . S
C6796 C6795 1.403 . S
C6796 C6797 1.404 . S
C6796 C6799 1.539 . S
C6797 C6793 1.408 . S
C6797 C6796 1.404 . S
C6797 H6809 0.930 . S
C6798 C6794 1.524 . S
C6798 H6810 0.956 . S
C6798 H6811 0.961 . S
C6798 H6812 0.961 . S
C6799 C6796 1.539 . S
C6799 H6813 0.958 . S
C6799 H6814 0.961 . S
C6799 H6815 0.960 . S
H6800 C6784 0.931 . S
H6801 C6789 0.929 . S
H6802 C6790 0.960 . S
H6803 C6790 0.962 . S
H6804 C6790 0.960 . S
H6805 C6791 0.961 . S
H6806 C6791 0.961 . S
H6807 C6791 0.961 . S
H6808 C6792 0.931 . S
H6809 C6797 0.930 . S
H6810 C6798 0.956 . S
H6811 C6798 0.961 . S
H6812 C6798 0.961 . S
H6813 C6799 0.958 . S
H6814 C6799 0.961 . S
H6815 C6799 0.960 . S
C6816 C6817 1.391 . S
C6816 C6818 1.394 . S
C6816 H6832 0.931 . S
C6817 C6816 1.391 . S
C6817 C6821 1.376 . S
C6818 C6816 1.394 . S
C6818 C6819 1.369 . S
C6818 C6822 1.531 . S
C6819 C6818 1.369 . S
C6819 C6820 1.410 . S
C6819 C6827 1.503 . S
C6820 C6819 1.410 . S
C6820 C6821 1.392 . S
C6820 C6823 1.511 . S
C6821 C6817 1.376 . S
C6821 C6820 1.392 . S
C6821 H6833 0.929 . S
C6822 C6818 1.531 . S
C6822 H6834 0.960 . S
C6822 H6835 0.962 . S
C6822 H6836 0.960 . S
C6823 C6820 1.511 . S
C6823 H6837 0.961 . S
C6823 H6838 0.961 . S
C6823 H6839 0.961 . S
C6824 C6825 1.370 . S
C6824 C6826 1.363 . S
C6824 H6840 0.931 . S
C6825 C6824 1.370 . S
C6825 C6829 1.408 . S
C6826 C6824 1.363 . S
C6826 C6827 1.370 . S
C6826 C6830 1.524 . S
C6827 C6819 1.503 . S
C6827 C6826 1.370 . S
C6827 C6828 1.403 . S
C6828 C6827 1.403 . S
C6828 C6829 1.404 . S
C6828 C6831 1.539 . S
C6829 C6825 1.408 . S
C6829 C6828 1.404 . S
C6829 H6841 0.930 . S
C6830 C6826 1.524 . S
C6830 H6842 0.956 . S
C6830 H6843 0.961 . S
C6830 H6844 0.961 . S
C6831 C6828 1.539 . S
C6831 H6845 0.958 . S
C6831 H6846 0.961 . S
C6831 H6847 0.960 . S
H6832 C6816 0.931 . S
H6833 C6821 0.929 . S
H6834 C6822 0.960 . S
H6835 C6822 0.962 . S
H6836 C6822 0.960 . S
H6837 C6823 0.961 . S
H6838 C6823 0.961 . S
H6839 C6823 0.961 . S
H6840 C6824 0.931 . S
H6841 C6829 0.930 . S
H6842 C6830 0.956 . S
H6843 C6830 0.961 . S
H6844 C6830 0.961 . S
H6845 C6831 0.958 . S
H6846 C6831 0.961 . S
H6847 C6831 0.960 . S
C6848 C6849 1.391 . S
C6848 C6850 1.394 . S
C6848 H6864 0.931 . S
C6849 C6848 1.391 . S
C6849 C6853 1.376 . S
C6850 C6848 1.394 . S
C6850 C6851 1.369 . S
C6850 C6854 1.531 . S
C6851 C6850 1.369 . S
C6851 C6852 1.410 . S
C6851 C6859 1.503 . S
C6852 C6851 1.410 . S
C6852 C6853 1.392 . S
C6852 C6855 1.511 . S
C6853 C6849 1.376 . S
C6853 C6852 1.392 . S
C6853 H6865 0.929 . S
C6854 C6850 1.531 . S
C6854 H6866 0.960 . S
C6854 H6867 0.962 . S
C6854 H6868 0.960 . S
C6855 C6852 1.511 . S
C6855 H6869 0.961 . S
C6855 H6870 0.961 . S
C6855 H6871 0.961 . S
C6856 C6857 1.370 . S
C6856 C6858 1.363 . S
C6856 H6872 0.931 . S
C6857 C6856 1.370 . S
C6857 C6861 1.408 . S
C6858 C6856 1.363 . S
C6858 C6859 1.370 . S
C6858 C6862 1.524 . S
C6859 C6851 1.503 . S
C6859 C6858 1.370 . S
C6859 C6860 1.403 . S
C6860 C6859 1.403 . S
C6860 C6861 1.404 . S
C6860 C6863 1.539 . S
C6861 C6857 1.408 . S
C6861 C6860 1.404 . S
C6861 H6873 0.930 . S
C6862 C6858 1.524 . S
C6862 H6874 0.956 . S
C6862 H6875 0.961 . S
C6862 H6876 0.961 . S
C6863 C6860 1.539 . S
C6863 H6877 0.958 . S
C6863 H6878 0.961 . S
C6863 H6879 0.960 . S
H6864 C6848 0.931 . S
H6865 C6853 0.929 . S
H6866 C6854 0.960 . S
H6867 C6854 0.962 . S
H6868 C6854 0.960 . S
H6869 C6855 0.961 . S
H6870 C6855 0.961 . S
H6871 C6855 0.961 . S
H6872 C6856 0.931 . S
H6873 C6861 0.930 . S
H6874 C6862 0.956 . S
H6875 C6862 0.961 . S
H6876 C6862 0.961 . S
H6877 C6863 0.958 . S
H6878 C6863 0.961 . S
H6879 C6863 0.960 . S
C6880 C6881 1.391 . S
C6880 C6882 1.394 . S
C6880 H6896 0.931 . S
C6881 C6880 1.391 . S
C6881 C6885 1.376 . S
C6882 C6880 1.394 . S
C6882 C6883 1.369 . S
C6882 C6886 1.531 . S
C6883 C6882 1.369 . S
C6883 C6884 1.410 . S
C6883 C6891 1.503 . S
C6884 C6883 1.410 . S
C6884 C6885 1.392 . S
C6884 C6887 1.511 . S
C6885 C6881 1.376 . S
C6885 C6884 1.392 . S
C6885 H6897 0.929 . S
C6886 C6882 1.531 . S
C6886 H6898 0.960 . S
C6886 H6899 0.962 . S
C6886 H6900 0.960 . S
C6887 C6884 1.511 . S
C6887 H6901 0.961 . S
C6887 H6902 0.961 . S
C6887 H6903 0.961 . S
C6888 C6889 1.370 . S
C6888 C6890 1.363 . S
C6888 H6904 0.931 . S
C6889 C6888 1.370 . S
C6889 C6893 1.408 . S
C6890 C6888 1.363 . S
C6890 C6891 1.370 . S
C6890 C6894 1.524 . S
C6891 C6883 1.503 . S
C6891 C6890 1.370 . S
C6891 C6892 1.403 . S
C6892 C6891 1.403 . S
C6892 C6893 1.404 . S
C6892 C6895 1.539 . S
C6893 C6889 1.408 . S
C6893 C6892 1.404 . S
C6893 H6905 0.930 . S
C6894 C6890 1.524 . S
C6894 H6906 0.956 . S
C6894 H6907 0.961 . S
C6894 H6908 0.961 . S
C6895 C6892 1.539 . S
C6895 H6909 0.958 . S
C6895 H6910 0.961 . S
C6895 H6911 0.960 . S
H6896 C6880 0.931 . S
H6897 C6885 0.929 . S
H6898 C6886 0.960 . S
H6899 C6886 0.962 . S
H6900 C6886 0.960 . S
H6901 C6887 0.961 . S
H6902 C6887 0.961 . S
H6903 C6887 0.961 . S
H6904 C6888 0.931 . S
H6905 C6893 0.930 . S
H6906 C6894 0.956 . S
H6907 C6894 0.961 . S
H6908 C6894 0.961 . S
H6909 C6895 0.958 . S
H6910 C6895 0.961 . S
H6911 C6895 0.960 . S
C6912 C6913 1.391 . S
C6912 C6914 1.394 . S
C6912 H6928 0.931 . S
C6913 C6912 1.391 . S
C6913 C6917 1.376 . S
C6914 C6912 1.394 . S
C6914 C6915 1.369 . S
C6914 C6918 1.531 . S
C6915 C6914 1.369 . S
C6915 C6916 1.410 . S
C6915 C6923 1.503 . S
C6916 C6915 1.410 . S
C6916 C6917 1.392 . S
C6916 C6919 1.511 . S
C6917 C6913 1.376 . S
C6917 C6916 1.392 . S
C6917 H6929 0.929 . S
C6918 C6914 1.531 . S
C6918 H6930 0.960 . S
C6918 H6931 0.962 . S
C6918 H6932 0.960 . S
C6919 C6916 1.511 . S
C6919 H6933 0.961 . S
C6919 H6934 0.961 . S
C6919 H6935 0.961 . S
C6920 C6921 1.370 . S
C6920 C6922 1.363 . S
C6920 H6936 0.931 . S
C6921 C6920 1.370 . S
C6921 C6925 1.408 . S
C6922 C6920 1.363 . S
C6922 C6923 1.370 . S
C6922 C6926 1.524 . S
C6923 C6915 1.503 . S
C6923 C6922 1.370 . S
C6923 C6924 1.403 . S
C6924 C6923 1.403 . S
C6924 C6925 1.404 . S
C6924 C6927 1.539 . S
C6925 C6921 1.408 . S
C6925 C6924 1.404 . S
C6925 H6937 0.930 . S
C6926 C6922 1.524 . S
C6926 H6938 0.956 . S
C6926 H6939 0.961 . S
C6926 H6940 0.961 . S
C6927 C6924 1.539 . S
C6927 H6941 0.958 . S
C6927 H6942 0.961 . S
C6927 H6943 0.960 . S
H6928 C6912 0.931 . S
H6929 C6917 0.929 . S
H6930 C6918 0.960 . S
H6931 C6918 0.962 . S
H6932 C6918 0.960 . S
H6933 C6919 0.961 . S
H6934 C6919 0.961 . S
H6935 C6919 0.961 . S
H6936 C6920 0.931 . S
H6937 C6925 0.930 . S
H6938 C6926 0.956 . S
H6939 C6926 0.961 . S
H6940 C6926 0.961 . S
H6941 C6927 0.958 . S
H6942 C6927 0.961 . S
H6943 C6927 0.960 . S
C6944 C6945 1.391 . S
C6944 C6946 1.394 . S
C6944 H6960 0.931 . S
C6945 C6944 1.391 . S
C6945 C6949 1.376 . S
C6946 C6944 1.394 . S
C6946 C6947 1.369 . S
C6946 C6950 1.531 . S
C6947 C6946 1.369 . S
C6947 C6948 1.410 . S
C6947 C6955 1.503 . S
C6948 C6947 1.410 . S
C6948 C6949 1.392 . S
C6948 C6951 1.511 . S
C6949 C6945 1.376 . S
C6949 C6948 1.392 . S
C6949 H6961 0.929 . S
C6950 C6946 1.531 . S
C6950 H6962 0.960 . S
C6950 H6963 0.962 . S
C6950 H6964 0.960 . S
C6951 C6948 1.511 . S
C6951 H6965 0.961 . S
C6951 H6966 0.961 . S
C6951 H6967 0.961 . S
C6952 C6953 1.370 . S
C6952 C6954 1.363 . S
C6952 H6968 0.931 . S
C6953 C6952 1.370 . S
C6953 C6957 1.408 . S
C6954 C6952 1.363 . S
C6954 C6955 1.370 . S
C6954 C6958 1.524 . S
C6955 C6947 1.503 . S
C6955 C6954 1.370 . S
C6955 C6956 1.403 . S
C6956 C6955 1.403 . S
C6956 C6957 1.404 . S
C6956 C6959 1.539 . S
C6957 C6953 1.408 . S
C6957 C6956 1.404 . S
C6957 H6969 0.930 . S
C6958 C6954 1.524 . S
C6958 H6970 0.956 . S
C6958 H6971 0.961 . S
C6958 H6972 0.961 . S
C6959 C6956 1.539 . S
C6959 H6973 0.958 . S
C6959 H6974 0.961 . S
C6959 H6975 0.960 . S
H6960 C6944 0.931 . S
H6961 C6949 0.929 . S
H6962 C6950 0.960 . S
H6963 C6950 0.962 . S
H6964 C6950 0.960 . S
H6965 C6951 0.961 . S
H6966 C6951 0.961 . S
H6967 C6951 0.961 . S
H6968 C6952 0.931 . S
H6969 C6957 0.930 . S
H6970 C6958 0.956 . S
H6971 C6958 0.961 . S
H6972 C6958 0.961 . S
H6973 C6959 0.958 . S
H6974 C6959 0.961 . S
H6975 C6959 0.960 . S
C6976 C6977 1.391 . S
C6976 C6978 1.394 . S
C6976 H6992 0.931 . S
C6977 C6976 1.391 . S
C6977 C6981 1.376 . S
C6978 C6976 1.394 . S
C6978 C6979 1.369 . S
C6978 C6982 1.531 . S
C6979 C6978 1.369 . S
C6979 C6980 1.410 . S
C6979 C6987 1.503 . S
C6980 C6979 1.410 . S
C6980 C6981 1.392 . S
C6980 C6983 1.511 . S
C6981 C6977 1.376 . S
C6981 C6980 1.392 . S
C6981 H6993 0.929 . S
C6982 C6978 1.531 . S
C6982 H6994 0.960 . S
C6982 H6995 0.962 . S
C6982 H6996 0.960 . S
C6983 C6980 1.511 . S
C6983 H6997 0.961 . S
C6983 H6998 0.961 . S
C6983 H6999 0.961 . S
C6984 C6985 1.370 . S
C6984 C6986 1.363 . S
C6984 H7000 0.931 . S
C6985 C6984 1.370 . S
C6985 C6989 1.408 . S
C6986 C6984 1.363 . S
C6986 C6987 1.370 . S
C6986 C6990 1.524 . S
C6987 C6979 1.503 . S
C6987 C6986 1.370 . S
C6987 C6988 1.403 . S
C6988 C6987 1.403 . S
C6988 C6989 1.404 . S
C6988 C6991 1.539 . S
C6989 C6985 1.408 . S
C6989 C6988 1.404 . S
C6989 H7001 0.930 . S
C6990 C6986 1.524 . S
C6990 H7002 0.956 . S
C6990 H7003 0.961 . S
C6990 H7004 0.961 . S
C6991 C6988 1.539 . S
C6991 H7005 0.958 . S
C6991 H7006 0.961 . S
C6991 H7007 0.960 . S
H6992 C6976 0.931 . S
H6993 C6981 0.929 . S
H6994 C6982 0.960 . S
H6995 C6982 0.962 . S
H6996 C6982 0.960 . S
H6997 C6983 0.961 . S
H6998 C6983 0.961 . S
H6999 C6983 0.961 . S
H7000 C6984 0.931 . S
H7001 C6989 0.930 . S
H7002 C6990 0.956 . S
H7003 C6990 0.961 . S
H7004 C6990 0.961 . S
H7005 C6991 0.958 . S
H7006 C6991 0.961 . S
H7007 C6991 0.960 . S
C7008 C7009 1.391 . S
C7008 C7010 1.394 . S
C7008 H7024 0.931 . S
C7009 C7008 1.391 . S
C7009 C7013 1.376 . S
C7010 C7008 1.394 . S
C7010 C7011 1.369 . S
C7010 C7014 1.531 . S
C7011 C7010 1.369 . S
C7011 C7012 1.410 . S
C7011 C7019 1.503 . S
C7012 C7011 1.410 . S
C7012 C7013 1.392 . S
C7012 C7015 1.511 . S
C7013 C7009 1.376 . S
C7013 C7012 1.392 . S
C7013 H7025 0.929 . S
C7014 C7010 1.531 . S
C7014 H7026 0.960 . S
C7014 H7027 0.962 . S
C7014 H7028 0.960 . S
C7015 C7012 1.511 . S
C7015 H7029 0.961 . S
C7015 H7030 0.961 . S
C7015 H7031 0.961 . S
C7016 C7017 1.370 . S
C7016 C7018 1.363 . S
C7016 H7032 0.931 . S
C7017 C7016 1.370 . S
C7017 C7021 1.408 . S
C7018 C7016 1.363 . S
C7018 C7019 1.370 . S
C7018 C7022 1.524 . S
C7019 C7011 1.503 . S
C7019 C7018 1.370 . S
C7019 C7020 1.403 . S
C7020 C7019 1.403 . S
C7020 C7021 1.404 . S
C7020 C7023 1.539 . S
C7021 C7017 1.408 . S
C7021 C7020 1.404 . S
C7021 H7033 0.930 . S
C7022 C7018 1.524 . S
C7022 H7034 0.956 . S
C7022 H7035 0.961 . S
C7022 H7036 0.961 . S
C7023 C7020 1.539 . S
C7023 H7037 0.958 . S
C7023 H7038 0.961 . S
C7023 H7039 0.960 . S
H7024 C7008 0.931 . S
H7025 C7013 0.929 . S
H7026 C7014 0.960 . S
H7027 C7014 0.962 . S
H7028 C7014 0.960 . S
H7029 C7015 0.961 . S
H7030 C7015 0.961 . S
H7031 C7015 0.961 . S
H7032 C7016 0.931 . S
H7033 C7021 0.930 . S
H7034 C7022 0.956 . S
H7035 C7022 0.961 . S
H7036 C7022 0.961 . S
H7037 C7023 0.958 . S
H7038 C7023 0.961 . S
H7039 C7023 0.960 . S
C7040 C7041 1.391 . S
C7040 C7042 1.394 . S
C7040 H7056 0.931 . S
C7041 C7040 1.391 . S
C7041 C7045 1.376 . S
C7042 C7040 1.394 . S
C7042 C7043 1.369 . S
C7042 C7046 1.531 . S
C7043 C7042 1.369 . S
C7043 C7044 1.410 . S
C7043 C7051 1.503 . S
C7044 C7043 1.410 . S
C7044 C7045 1.392 . S
C7044 C7047 1.511 . S
C7045 C7041 1.376 . S
C7045 C7044 1.392 . S
C7045 H7057 0.929 . S
C7046 C7042 1.531 . S
C7046 H7058 0.960 . S
C7046 H7059 0.962 . S
C7046 H7060 0.960 . S
C7047 C7044 1.511 . S
C7047 H7061 0.961 . S
C7047 H7062 0.961 . S
C7047 H7063 0.961 . S
C7048 C7049 1.370 . S
C7048 C7050 1.363 . S
C7048 H7064 0.931 . S
C7049 C7048 1.370 . S
C7049 C7053 1.408 . S
C7050 C7048 1.363 . S
C7050 C7051 1.370 . S
C7050 C7054 1.524 . S
C7051 C7043 1.503 . S
C7051 C7050 1.370 . S
C7051 C7052 1.403 . S
C7052 C7051 1.403 . S
C7052 C7053 1.404 . S
C7052 C7055 1.539 . S
C7053 C7049 1.408 . S
C7053 C7052 1.404 . S
C7053 H7065 0.930 . S
C7054 C7050 1.524 . S
C7054 H7066 0.956 . S
C7054 H7067 0.961 . S
C7054 H7068 0.961 . S
C7055 C7052 1.539 . S
C7055 H7069 0.958 . S
C7055 H7070 0.961 . S
C7055 H7071 0.960 . S
H7056 C7040 0.931 . S
H7057 C7045 0.929 . S
H7058 C7046 0.960 . S
H7059 C7046 0.962 . S
H7060 C7046 0.960 . S
H7061 C7047 0.961 . S
H7062 C7047 0.961 . S
H7063 C7047 0.961 . S
H7064 C7048 0.931 . S
H7065 C7053 0.930 . S
H7066 C7054 0.956 . S
H7067 C7054 0.961 . S
H7068 C7054 0.961 . S
H7069 C7055 0.958 . S
H7070 C7055 0.961 . S
H7071 C7055 0.960 . S
C7072 C7073 1.391 . S
C7072 C7074 1.394 . S
C7072 H7088 0.931 . S
C7073 C7072 1.391 . S
C7073 C7077 1.376 . S
C7074 C7072 1.394 . S
C7074 C7075 1.369 . S
C7074 C7078 1.531 . S
C7075 C7074 1.369 . S
C7075 C7076 1.410 . S
C7075 C7083 1.503 . S
C7076 C7075 1.410 . S
C7076 C7077 1.392 . S
C7076 C7079 1.511 . S
C7077 C7073 1.376 . S
C7077 C7076 1.392 . S
C7077 H7089 0.929 . S
C7078 C7074 1.531 . S
C7078 H7090 0.960 . S
C7078 H7091 0.962 . S
C7078 H7092 0.960 . S
C7079 C7076 1.511 . S
C7079 H7093 0.961 . S
C7079 H7094 0.961 . S
C7079 H7095 0.961 . S
C7080 C7081 1.370 . S
C7080 C7082 1.363 . S
C7080 H7096 0.931 . S
C7081 C7080 1.370 . S
C7081 C7085 1.408 . S
C7082 C7080 1.363 . S
C7082 C7083 1.370 . S
C7082 C7086 1.524 . S
C7083 C7075 1.503 . S
C7083 C7082 1.370 . S
C7083 C7084 1.403 . S
C7084 C7083 1.403 . S
C7084 C7085 1.404 . S
C7084 C7087 1.539 . S
C7085 C7081 1.408 . S
C7085 C7084 1.404 . S
C7085 H7097 0.930 . S
C7086 C7082 1.524 . S
C7086 H7098 0.956 . S
C7086 H7099 0.961 . S
C7086 H7100 0.961 . S
C7087 C7084 1.539 . S
C7087 H7101 0.958 . S
C7087 H7102 0.961 . S
C7087 H7103 0.960 . S
H7088 C7072 0.931 . S
H7089 C7077 0.929 . S
H7090 C7078 0.960 . S
H7091 C7078 0.962 . S
H7092 C7078 0.960 . S
H7093 C7079 0.961 . S
H7094 C7079 0.961 . S
H7095 C7079 0.961 . S
H7096 C7080 0.931 . S
H7097 C7085 0.930 . S
H7098 C7086 0.956 . S
H7099 C7086 0.961 . S
H7100 C7086 0.961 . S
H7101 C7087 0.958 . S
H7102 C7087 0.961 . S
H7103 C7087 0.960 . S
C7104 C7105 1.391 . S
C7104 C7106 1.394 . S
C7104 H7120 0.931 . S
C7105 C7104 1.391 . S
C7105 C7109 1.376 . S
C7106 C7104 1.394 . S
C7106 C7107 1.369 . S
C7106 C7110 1.531 . S
C7107 C7106 1.369 . S
C7107 C7108 1.410 . S
C7107 C7115 1.503 . S
C7108 C7107 1.410 . S
C7108 C7109 1.392 . S
C7108 C7111 1.511 . S
C7109 C7105 1.376 . S
C7109 C7108 1.392 . S
C7109 H7121 0.929 . S
C7110 C7106 1.531 . S
C7110 H7122 0.960 . S
C7110 H7123 0.962 . S
C7110 H7124 0.960 . S
C7111 C7108 1.511 . S
C7111 H7125 0.961 . S
C7111 H7126 0.961 . S
C7111 H7127 0.961 . S
C7112 C7113 1.370 . S
C7112 C7114 1.363 . S
C7112 H7128 0.931 . S
C7113 C7112 1.370 . S
C7113 C7117 1.408 . S
C7114 C7112 1.363 . S
C7114 C7115 1.370 . S
C7114 C7118 1.524 . S
C7115 C7107 1.503 . S
C7115 C7114 1.370 . S
C7115 C7116 1.403 . S
C7116 C7115 1.403 . S
C7116 C7117 1.404 . S
C7116 C7119 1.539 . S
C7117 C7113 1.408 . S
C7117 C7116 1.404 . S
C7117 H7129 0.930 . S
C7118 C7114 1.524 . S
C7118 H7130 0.956 . S
C7118 H7131 0.961 . S
C7118 H7132 0.961 . S
C7119 C7116 1.539 . S
C7119 H7133 0.958 . S
C7119 H7134 0.961 . S
C7119 H7135 0.960 . S
H7120 C7104 0.931 . S
H7121 C7109 0.929 . S
H7122 C7110 0.960 . S
H7123 C7110 0.962 . S
H7124 C7110 0.960 . S
H7125 C7111 0.961 . S
H7126 C7111 0.961 . S
H7127 C7111 0.961 . S
H7128 C7112 0.931 . S
H7129 C7117 0.930 . S
H7130 C7118 0.956 . S
H7131 C7118 0.961 . S
H7132 C7118 0.961 . S
H7133 C7119 0.958 . S
H7134 C7119 0.961 . S
H7135 C7119 0.960 . S
C7136 C7137 1.391 . S
C7136 C7138 1.394 . S
C7136 H7152 0.931 . S
C7137 C7136 1.391 . S
C7137 C7141 1.376 . S
C7138 C7136 1.394 . S
C7138 C7139 1.369 . S
C7138 C7142 1.531 . S
C7139 C7138 1.369 . S
C7139 C7140 1.410 . S
C7139 C7147 1.503 . S
C7140 C7139 1.410 . S
C7140 C7141 1.392 . S
C7140 C7143 1.511 . S
C7141 C7137 1.376 . S
C7141 C7140 1.392 . S
C7141 H7153 0.929 . S
C7142 C7138 1.531 . S
C7142 H7154 0.960 . S
C7142 H7155 0.962 . S
C7142 H7156 0.960 . S
C7143 C7140 1.511 . S
C7143 H7157 0.961 . S
C7143 H7158 0.961 . S
C7143 H7159 0.961 . S
C7144 C7145 1.370 . S
C7144 C7146 1.363 . S
C7144 H7160 0.931 . S
C7145 C7144 1.370 . S
C7145 C7149 1.408 . S
C7146 C7144 1.363 . S
C7146 C7147 1.370 . S
C7146 C7150 1.524 . S
C7147 C7139 1.503 . S
C7147 C7146 1.370 . S
C7147 C7148 1.403 . S
C7148 C7147 1.403 . S
C7148 C7149 1.404 . S
C7148 C7151 1.539 . S
C7149 C7145 1.408 . S
C7149 C7148 1.404 . S
C7149 H7161 0.930 . S
C7150 C7146 1.524 . S
C7150 H7162 0.956 . S
C7150 H7163 0.961 . S
C7150 H7164 0.961 . S
C7151 C7148 1.539 . S
C7151 H7165 0.958 . S
C7151 H7166 0.961 . S
C7151 H7167 0.960 . S
H7152 C7136 0.931 . S
H7153 C7141 0.929 . S
H7154 C7142 0.960 . S
H7155 C7142 0.962 . S
H7156 C7142 0.960 . S
H7157 C7143 0.961 . S
H7158 C7143 0.961 . S
H7159 C7143 0.961 . S
H7160 C7144 0.931 . S
H7161 C7149 0.930 . S
H7162 C7150 0.956 . S
H7163 C7150 0.961 . S
H7164 C7150 0.961 . S
H7165 C7151 0.958 . S
H7166 C7151 0.961 . S
H7167 C7151 0.960 . S
C7168 C7169 1.391 . S
C7168 C7170 1.394 . S
C7168 H7184 0.931 . S
C7169 C7168 1.391 . S
C7169 C7173 1.376 . S
C7170 C7168 1.394 . S
C7170 C7171 1.369 . S
C7170 C7174 1.531 . S
C7171 C7170 1.369 . S
C7171 C7172 1.410 . S
C7171 C7179 1.503 . S
C7172 C7171 1.410 . S
C7172 C7173 1.392 . S
C7172 C7175 1.511 . S
C7173 C7169 1.376 . S
C7173 C7172 1.392 . S
C7173 H7185 0.929 . S
C7174 C7170 1.531 . S
C7174 H7186 0.960 . S
C7174 H7187 0.962 . S
C7174 H7188 0.960 . S
C7175 C7172 1.511 . S
C7175 H7189 0.961 . S
C7175 H7190 0.961 . S
C7175 H7191 0.961 . S
C7176 C7177 1.370 . S
C7176 C7178 1.363 . S
C7176 H7192 0.931 . S
C7177 C7176 1.370 . S
C7177 C7181 1.408 . S
C7178 C7176 1.363 . S
C7178 C7179 1.370 . S
C7178 C7182 1.524 . S
C7179 C7171 1.503 . S
C7179 C7178 1.370 . S
C7179 C7180 1.403 . S
C7180 C7179 1.403 . S
C7180 C7181 1.404 . S
C7180 C7183 1.539 . S
C7181 C7177 1.408 . S
C7181 C7180 1.404 . S
C7181 H7193 0.930 . S
C7182 C7178 1.524 . S
C7182 H7194 0.956 . S
C7182 H7195 0.961 . S
C7182 H7196 0.961 . S
C7183 C7180 1.539 . S
C7183 H7197 0.958 . S
C7183 H7198 0.961 . S
C7183 H7199 0.960 . S
H7184 C7168 0.931 . S
H7185 C7173 0.929 . S
H7186 C7174 0.960 . S
H7187 C7174 0.962 . S
H7188 C7174 0.960 . S
H7189 C7175 0.961 . S
H7190 C7175 0.961 . S
H7191 C7175 0.961 . S
H7192 C7176 0.931 . S
H7193 C7181 0.930 . S
H7194 C7182 0.956 . S
H7195 C7182 0.961 . S
H7196 C7182 0.961 . S
H7197 C7183 0.958 . S
H7198 C7183 0.961 . S
H7199 C7183 0.960 . S
C7200 C7201 1.391 . S
C7200 C7202 1.394 . S
C7200 H7216 0.931 . S
C7201 C7200 1.391 . S
C7201 C7205 1.376 . S
C7202 C7200 1.394 . S
C7202 C7203 1.369 . S
C7202 C7206 1.531 . S
C7203 C7202 1.369 . S
C7203 C7204 1.410 . S
C7203 C7211 1.503 . S
C7204 C7203 1.410 . S
C7204 C7205 1.392 . S
C7204 C7207 1.511 . S
C7205 C7201 1.376 . S
C7205 C7204 1.392 . S
C7205 H7217 0.929 . S
C7206 C7202 1.531 . S
C7206 H7218 0.960 . S
C7206 H7219 0.962 . S
C7206 H7220 0.960 . S
C7207 C7204 1.511 . S
C7207 H7221 0.961 . S
C7207 H7222 0.961 . S
C7207 H7223 0.961 . S
C7208 C7209 1.370 . S
C7208 C7210 1.363 . S
C7208 H7224 0.931 . S
C7209 C7208 1.370 . S
C7209 C7213 1.408 . S
C7210 C7208 1.363 . S
C7210 C7211 1.370 . S
C7210 C7214 1.524 . S
C7211 C7203 1.503 . S
C7211 C7210 1.370 . S
C7211 C7212 1.403 . S
C7212 C7211 1.403 . S
C7212 C7213 1.404 . S
C7212 C7215 1.539 . S
C7213 C7209 1.408 . S
C7213 C7212 1.404 . S
C7213 H7225 0.930 . S
C7214 C7210 1.524 . S
C7214 H7226 0.956 . S
C7214 H7227 0.961 . S
C7214 H7228 0.961 . S
C7215 C7212 1.539 . S
C7215 H7229 0.958 . S
C7215 H7230 0.961 . S
C7215 H7231 0.960 . S
H7216 C7200 0.931 . S
H7217 C7205 0.929 . S
H7218 C7206 0.960 . S
H7219 C7206 0.962 . S
H7220 C7206 0.960 . S
H7221 C7207 0.961 . S
H7222 C7207 0.961 . S
H7223 C7207 0.961 . S
H7224 C7208 0.931 . S
H7225 C7213 0.930 . S
H7226 C7214 0.956 . S
H7227 C7214 0.961 . S
H7228 C7214 0.961 . S
H7229 C7215 0.958 . S
H7230 C7215 0.961 . S
H7231 C7215 0.960 . S
C7232 C7233 1.391 . S
C7232 C7234 1.394 . S
C7232 H7248 0.931 . S
C7233 C7232 1.391 . S
C7233 C7237 1.376 . S
C7234 C7232 1.394 . S
C7234 C7235 1.369 . S
C7234 C7238 1.531 . S
C7235 C7234 1.369 . S
C7235 C7236 1.410 . S
C7235 C7243 1.503 . S
C7236 C7235 1.410 . S
C7236 C7237 1.392 . S
C7236 C7239 1.511 . S
C7237 C7233 1.376 . S
C7237 C7236 1.392 . S
C7237 H7249 0.929 . S
C7238 C7234 1.531 . S
C7238 H7250 0.960 . S
C7238 H7251 0.962 . S
C7238 H7252 0.960 . S
C7239 C7236 1.511 . S
C7239 H7253 0.961 . S
C7239 H7254 0.961 . S
C7239 H7255 0.961 . S
C7240 C7241 1.370 . S
C7240 C7242 1.363 . S
C7240 H7256 0.931 . S
C7241 C7240 1.370 . S
C7241 C7245 1.408 . S
C7242 C7240 1.363 . S
C7242 C7243 1.370 . S
C7242 C7246 1.524 . S
C7243 C7235 1.503 . S
C7243 C7242 1.370 . S
C7243 C7244 1.403 . S
C7244 C7243 1.403 . S
C7244 C7245 1.404 . S
C7244 C7247 1.539 . S
C7245 C7241 1.408 . S
C7245 C7244 1.404 . S
C7245 H7257 0.930 . S
C7246 C7242 1.524 . S
C7246 H7258 0.956 . S
C7246 H7259 0.961 . S
C7246 H7260 0.961 . S
C7247 C7244 1.539 . S
C7247 H7261 0.958 . S
C7247 H7262 0.961 . S
C7247 H7263 0.960 . S
H7248 C7232 0.931 . S
H7249 C7237 0.929 . S
H7250 C7238 0.960 . S
H7251 C7238 0.962 . S
H7252 C7238 0.960 . S
H7253 C7239 0.961 . S
H7254 C7239 0.961 . S
H7255 C7239 0.961 . S
H7256 C7240 0.931 . S
H7257 C7245 0.930 . S
H7258 C7246 0.956 . S
H7259 C7246 0.961 . S
H7260 C7246 0.961 . S
H7261 C7247 0.958 . S
H7262 C7247 0.961 . S
H7263 C7247 0.960 . S
C7264 C7265 1.391 . S
C7264 C7266 1.394 . S
C7264 H7280 0.931 . S
C7265 C7264 1.391 . S
C7265 C7269 1.376 . S
C7266 C7264 1.394 . S
C7266 C7267 1.369 . S
C7266 C7270 1.531 . S
C7267 C7266 1.369 . S
C7267 C7268 1.410 . S
C7267 C7275 1.503 . S
C7268 C7267 1.410 . S
C7268 C7269 1.392 . S
C7268 C7271 1.511 . S
C7269 C7265 1.376 . S
C7269 C7268 1.392 . S
C7269 H7281 0.929 . S
C7270 C7266 1.531 . S
C7270 H7282 0.960 . S
C7270 H7283 0.962 . S
C7270 H7284 0.960 . S
C7271 C7268 1.511 . S
C7271 H7285 0.961 . S
C7271 H7286 0.961 . S
C7271 H7287 0.961 . S
C7272 C7273 1.370 . S
C7272 C7274 1.363 . S
C7272 H7288 0.931 . S
C7273 C7272 1.370 . S
C7273 C7277 1.408 . S
C7274 C7272 1.363 . S
C7274 C7275 1.370 . S
C7274 C7278 1.524 . S
C7275 C7267 1.503 . S
C7275 C7274 1.370 . S
C7275 C7276 1.403 . S
C7276 C7275 1.403 . S
C7276 C7277 1.404 . S
C7276 C7279 1.539 . S
C7277 C7273 1.408 . S
C7277 C7276 1.404 . S
C7277 H7289 0.930 . S
C7278 C7274 1.524 . S
C7278 H7290 0.956 . S
C7278 H7291 0.961 . S
C7278 H7292 0.961 . S
C7279 C7276 1.539 . S
C7279 H7293 0.958 . S
C7279 H7294 0.961 . S
C7279 H7295 0.960 . S
H7280 C7264 0.931 . S
H7281 C7269 0.929 . S
H7282 C7270 0.960 . S
H7283 C7270 0.962 . S
H7284 C7270 0.960 . S
H7285 C7271 0.961 . S
H7286 C7271 0.961 . S
H7287 C7271 0.961 . S
H7288 C7272 0.931 . S
H7289 C7277 0.930 . S
H7290 C7278 0.956 . S
H7291 C7278 0.961 . S
H7292 C7278 0.961 . S
H7293 C7279 0.958 . S
H7294 C7279 0.961 . S
H7295 C7279 0.960 . S
C7296 C7297 1.391 . S
C7296 C7298 1.394 . S
C7296 H7312 0.931 . S
C7297 C7296 1.391 . S
C7297 C7301 1.376 . S
C7298 C7296 1.394 . S
C7298 C7299 1.369 . S
C7298 C7302 1.531 . S
C7299 C7298 1.369 . S
C7299 C7300 1.410 . S
C7299 C7307 1.503 . S
C7300 C7299 1.410 . S
C7300 C7301 1.392 . S
C7300 C7303 1.511 . S
C7301 C7297 1.376 . S
C7301 C7300 1.392 . S
C7301 H7313 0.929 . S
C7302 C7298 1.531 . S
C7302 H7314 0.960 . S
C7302 H7315 0.962 . S
C7302 H7316 0.960 . S
C7303 C7300 1.511 . S
C7303 H7317 0.961 . S
C7303 H7318 0.961 . S
C7303 H7319 0.961 . S
C7304 C7305 1.370 . S
C7304 C7306 1.363 . S
C7304 H7320 0.931 . S
C7305 C7304 1.370 . S
C7305 C7309 1.408 . S
C7306 C7304 1.363 . S
C7306 C7307 1.370 . S
C7306 C7310 1.524 . S
C7307 C7299 1.503 . S
C7307 C7306 1.370 . S
C7307 C7308 1.403 . S
C7308 C7307 1.403 . S
C7308 C7309 1.404 . S
C7308 C7311 1.539 . S
C7309 C7305 1.408 . S
C7309 C7308 1.404 . S
C7309 H7321 0.930 . S
C7310 C7306 1.524 . S
C7310 H7322 0.956 . S
C7310 H7323 0.961 . S
C7310 H7324 0.961 . S
C7311 C7308 1.539 . S
C7311 H7325 0.958 . S
C7311 H7326 0.961 . S
C7311 H7327 0.960 . S
H7312 C7296 0.931 . S
H7313 C7301 0.929 . S
H7314 C7302 0.960 . S
H7315 C7302 0.962 . S
H7316 C7302 0.960 . S
H7317 C7303 0.961 . S
H7318 C7303 0.961 . S
H7319 C7303 0.961 . S
H7320 C7304 0.931 . S
H7321 C7309 0.930 . S
H7322 C7310 0.956 . S
H7323 C7310 0.961 . S
H7324 C7310 0.961 . S
H7325 C7311 0.958 . S
H7326 C7311 0.961 . S
H7327 C7311 0.960 . S
C7328 C7329 1.391 . S
C7328 C7330 1.394 . S
C7328 H7344 0.931 . S
C7329 C7328 1.391 . S
C7329 C7333 1.376 . S
C7330 C7328 1.394 . S
C7330 C7331 1.369 . S
C7330 C7334 1.531 . S
C7331 C7330 1.369 . S
C7331 C7332 1.410 . S
C7331 C7339 1.503 . S
C7332 C7331 1.410 . S
C7332 C7333 1.392 . S
C7332 C7335 1.511 . S
C7333 C7329 1.376 . S
C7333 C7332 1.392 . S
C7333 H7345 0.929 . S
C7334 C7330 1.531 . S
C7334 H7346 0.960 . S
C7334 H7347 0.962 . S
C7334 H7348 0.960 . S
C7335 C7332 1.511 . S
C7335 H7349 0.961 . S
C7335 H7350 0.961 . S
C7335 H7351 0.961 . S
C7336 C7337 1.370 . S
C7336 C7338 1.363 . S
C7336 H7352 0.931 . S
C7337 C7336 1.370 . S
C7337 C7341 1.408 . S
C7338 C7336 1.363 . S
C7338 C7339 1.370 . S
C7338 C7342 1.524 . S
C7339 C7331 1.503 . S
C7339 C7338 1.370 . S
C7339 C7340 1.403 . S
C7340 C7339 1.403 . S
C7340 C7341 1.404 . S
C7340 C7343 1.539 . S
C7341 C7337 1.408 . S
C7341 C7340 1.404 . S
C7341 H7353 0.930 . S
C7342 C7338 1.524 . S
C7342 H7354 0.956 . S
C7342 H7355 0.961 . S
C7342 H7356 0.961 . S
C7343 C7340 1.539 . S
C7343 H7357 0.958 . S
C7343 H7358 0.961 . S
C7343 H7359 0.960 . S
H7344 C7328 0.931 . S
H7345 C7333 0.929 . S
H7346 C7334 0.960 . S
H7347 C7334 0.962 . S
H7348 C7334 0.960 . S
H7349 C7335 0.961 . S
H7350 C7335 0.961 . S
H7351 C7335 0.961 . S
H7352 C7336 0.931 . S
H7353 C7341 0.930 . S
H7354 C7342 0.956 . S
H7355 C7342 0.961 . S
H7356 C7342 0.961 . S
H7357 C7343 0.958 . S
H7358 C7343 0.961 . S
H7359 C7343 0.960 . S
C7360 C7361 1.391 . S
C7360 C7362 1.394 . S
C7360 H7376 0.931 . S
C7361 C7360 1.391 . S
C7361 C7365 1.376 . S
C7362 C7360 1.394 . S
C7362 C7363 1.369 . S
C7362 C7366 1.531 . S
C7363 C7362 1.369 . S
C7363 C7364 1.410 . S
C7363 C7371 1.503 . S
C7364 C7363 1.410 . S
C7364 C7365 1.392 . S
C7364 C7367 1.511 . S
C7365 C7361 1.376 . S
C7365 C7364 1.392 . S
C7365 H7377 0.929 . S
C7366 C7362 1.531 . S
C7366 H7378 0.960 . S
C7366 H7379 0.962 . S
C7366 H7380 0.960 . S
C7367 C7364 1.511 . S
C7367 H7381 0.961 . S
C7367 H7382 0.961 . S
C7367 H7383 0.961 . S
C7368 C7369 1.370 . S
C7368 C7370 1.363 . S
C7368 H7384 0.931 . S
C7369 C7368 1.370 . S
C7369 C7373 1.408 . S
C7370 C7368 1.363 . S
C7370 C7371 1.370 . S
C7370 C7374 1.524 . S
C7371 C7363 1.503 . S
C7371 C7370 1.370 . S
C7371 C7372 1.403 . S
C7372 C7371 1.403 . S
C7372 C7373 1.404 . S
C7372 C7375 1.539 . S
C7373 C7369 1.408 . S
C7373 C7372 1.404 . S
C7373 H7385 0.930 . S
C7374 C7370 1.524 . S
C7374 H7386 0.956 . S
C7374 H7387 0.961 . S
C7374 H7388 0.961 . S
C7375 C7372 1.539 . S
C7375 H7389 0.958 . S
C7375 H7390 0.961 . S
C7375 H7391 0.960 . S
H7376 C7360 0.931 . S
H7377 C7365 0.929 . S
H7378 C7366 0.960 . S
H7379 C7366 0.962 . S
H7380 C7366 0.960 . S
H7381 C7367 0.961 . S
H7382 C7367 0.961 . S
H7383 C7367 0.961 . S
H7384 C7368 0.931 . S
H7385 C7373 0.930 . S
H7386 C7374 0.956 . S
H7387 C7374 0.961 . S
H7388 C7374 0.961 . S
H7389 C7375 0.958 . S
H7390 C7375 0.961 . S
H7391 C7375 0.960 . S
C7392 C7393 1.391 . S
C7392 C7394 1.394 . S
C7392 H7408 0.931 . S
C7393 C7392 1.391 . S
C7393 C7397 1.376 . S
C7394 C7392 1.394 . S
C7394 C7395 1.369 . S
C7394 C7398 1.531 . S
C7395 C7394 1.369 . S
C7395 C7396 1.410 . S
C7395 C7403 1.503 . S
C7396 C7395 1.410 . S
C7396 C7397 1.392 . S
C7396 C7399 1.511 . S
C7397 C7393 1.376 . S
C7397 C7396 1.392 . S
C7397 H7409 0.929 . S
C7398 C7394 1.531 . S
C7398 H7410 0.960 . S
C7398 H7411 0.962 . S
C7398 H7412 0.960 . S
C7399 C7396 1.511 . S
C7399 H7413 0.961 . S
C7399 H7414 0.961 . S
C7399 H7415 0.961 . S
C7400 C7401 1.370 . S
C7400 C7402 1.363 . S
C7400 H7416 0.931 . S
C7401 C7400 1.370 . S
C7401 C7405 1.408 . S
C7402 C7400 1.363 . S
C7402 C7403 1.370 . S
C7402 C7406 1.524 . S
C7403 C7395 1.503 . S
C7403 C7402 1.370 . S
C7403 C7404 1.403 . S
C7404 C7403 1.403 . S
C7404 C7405 1.404 . S
C7404 C7407 1.539 . S
C7405 C7401 1.408 . S
C7405 C7404 1.404 . S
C7405 H7417 0.930 . S
C7406 C7402 1.524 . S
C7406 H7418 0.956 . S
C7406 H7419 0.961 . S
C7406 H7420 0.961 . S
C7407 C7404 1.539 . S
C7407 H7421 0.958 . S
C7407 H7422 0.961 . S
C7407 H7423 0.960 . S
H7408 C7392 0.931 . S
H7409 C7397 0.929 . S
H7410 C7398 0.960 . S
H7411 C7398 0.962 . S
H7412 C7398 0.960 . S
H7413 C7399 0.961 . S
H7414 C7399 0.961 . S
H7415 C7399 0.961 . S
H7416 C7400 0.931 . S
H7417 C7405 0.930 . S
H7418 C7406 0.956 . S
H7419 C7406 0.961 . S
H7420 C7406 0.961 . S
H7421 C7407 0.958 . S
H7422 C7407 0.961 . S
H7423 C7407 0.960 . S
C7424 C7425 1.391 . S
C7424 C7426 1.394 . S
C7424 H7440 0.931 . S
C7425 C7424 1.391 . S
C7425 C7429 1.376 . S
C7426 C7424 1.394 . S
C7426 C7427 1.369 . S
C7426 C7430 1.531 . S
C7427 C7426 1.369 . S
C7427 C7428 1.410 . S
C7427 C7435 1.503 . S
C7428 C7427 1.410 . S
C7428 C7429 1.392 . S
C7428 C7431 1.511 . S
C7429 C7425 1.376 . S
C7429 C7428 1.392 . S
C7429 H7441 0.929 . S
C7430 C7426 1.531 . S
C7430 H7442 0.960 . S
C7430 H7443 0.962 . S
C7430 H7444 0.960 . S
C7431 C7428 1.511 . S
C7431 H7445 0.961 . S
C7431 H7446 0.961 . S
C7431 H7447 0.961 . S
C7432 C7433 1.370 . S
C7432 C7434 1.363 . S
C7432 H7448 0.931 . S
C7433 C7432 1.370 . S
C7433 C7437 1.408 . S
C7434 C7432 1.363 . S
C7434 C7435 1.370 . S
C7434 C7438 1.524 . S
C7435 C7427 1.503 . S
C7435 C7434 1.370 . S
C7435 C7436 1.403 . S
C7436 C7435 1.403 . S
C7436 C7437 1.404 . S
C7436 C7439 1.539 . S
C7437 C7433 1.408 . S
C7437 C7436 1.404 . S
C7437 H7449 0.930 . S
C7438 C7434 1.524 . S
C7438 H7450 0.956 . S
C7438 H7451 0.961 . S
C7438 H7452 0.961 . S
C7439 C7436 1.539 . S
C7439 H7453 0.958 . S
C7439 H7454 0.961 . S
C7439 H7455 0.960 . S
H7440 C7424 0.931 . S
H7441 C7429 0.929 . S
H7442 C7430 0.960 . S
H7443 C7430 0.962 . S
H7444 C7430 0.960 . S
H7445 C7431 0.961 . S
H7446 C7431 0.961 . S
H7447 C7431 0.961 . S
H7448 C7432 0.931 . S
H7449 C7437 0.930 . S
H7450 C7438 0.956 . S
H7451 C7438 0.961 . S
H7452 C7438 0.961 . S
H7453 C7439 0.958 . S
H7454 C7439 0.961 . S
H7455 C7439 0.960 . S
C7456 C7457 1.391 . S
C7456 C7458 1.394 . S
C7456 H7472 0.931 . S
C7457 C7456 1.391 . S
C7457 C7461 1.376 . S
C7458 C7456 1.394 . S
C7458 C7459 1.369 . S
C7458 C7462 1.531 . S
C7459 C7458 1.369 . S
C7459 C7460 1.410 . S
C7459 C7467 1.503 . S
C7460 C7459 1.410 . S
C7460 C7461 1.392 . S
C7460 C7463 1.511 . S
C7461 C7457 1.376 . S
C7461 C7460 1.392 . S
C7461 H7473 0.929 . S
C7462 C7458 1.531 . S
C7462 H7474 0.960 . S
C7462 H7475 0.962 . S
C7462 H7476 0.960 . S
C7463 C7460 1.511 . S
C7463 H7477 0.961 . S
C7463 H7478 0.961 . S
C7463 H7479 0.961 . S
C7464 C7465 1.370 . S
C7464 C7466 1.363 . S
C7464 H7480 0.931 . S
C7465 C7464 1.370 . S
C7465 C7469 1.408 . S
C7466 C7464 1.363 . S
C7466 C7467 1.370 . S
C7466 C7470 1.524 . S
C7467 C7459 1.503 . S
C7467 C7466 1.370 . S
C7467 C7468 1.403 . S
C7468 C7467 1.403 . S
C7468 C7469 1.404 . S
C7468 C7471 1.539 . S
C7469 C7465 1.408 . S
C7469 C7468 1.404 . S
C7469 H7481 0.930 . S
C7470 C7466 1.524 . S
C7470 H7482 0.956 . S
C7470 H7483 0.961 . S
C7470 H7484 0.961 . S
C7471 C7468 1.539 . S
C7471 H7485 0.958 . S
C7471 H7486 0.961 . S
C7471 H7487 0.960 . S
H7472 C7456 0.931 . S
H7473 C7461 0.929 . S
H7474 C7462 0.960 . S
H7475 C7462 0.962 . S
H7476 C7462 0.960 . S
H7477 C7463 0.961 . S
H7478 C7463 0.961 . S
H7479 C7463 0.961 . S
H7480 C7464 0.931 . S
H7481 C7469 0.930 . S
H7482 C7470 0.956 . S
H7483 C7470 0.961 . S
H7484 C7470 0.961 . S
H7485 C7471 0.958 . S
H7486 C7471 0.961 . S
H7487 C7471 0.960 . S
C7488 C7489 1.391 . S
C7488 C7490 1.394 . S
C7488 H7504 0.931 . S
C7489 C7488 1.391 . S
C7489 C7493 1.376 . S
C7490 C7488 1.394 . S
C7490 C7491 1.369 . S
C7490 C7494 1.531 . S
C7491 C7490 1.369 . S
C7491 C7492 1.410 . S
C7491 C7499 1.503 . S
C7492 C7491 1.410 . S
C7492 C7493 1.392 . S
C7492 C7495 1.511 . S
C7493 C7489 1.376 . S
C7493 C7492 1.392 . S
C7493 H7505 0.929 . S
C7494 C7490 1.531 . S
C7494 H7506 0.960 . S
C7494 H7507 0.962 . S
C7494 H7508 0.960 . S
C7495 C7492 1.511 . S
C7495 H7509 0.961 . S
C7495 H7510 0.961 . S
C7495 H7511 0.961 . S
C7496 C7497 1.370 . S
C7496 C7498 1.363 . S
C7496 H7512 0.931 . S
C7497 C7496 1.370 . S
C7497 C7501 1.408 . S
C7498 C7496 1.363 . S
C7498 C7499 1.370 . S
C7498 C7502 1.524 . S
C7499 C7491 1.503 . S
C7499 C7498 1.370 . S
C7499 C7500 1.403 . S
C7500 C7499 1.403 . S
C7500 C7501 1.404 . S
C7500 C7503 1.539 . S
C7501 C7497 1.408 . S
C7501 C7500 1.404 . S
C7501 H7513 0.930 . S
C7502 C7498 1.524 . S
C7502 H7514 0.956 . S
C7502 H7515 0.961 . S
C7502 H7516 0.961 . S
C7503 C7500 1.539 . S
C7503 H7517 0.958 . S
C7503 H7518 0.961 . S
C7503 H7519 0.960 . S
H7504 C7488 0.931 . S
H7505 C7493 0.929 . S
H7506 C7494 0.960 . S
H7507 C7494 0.962 . S
H7508 C7494 0.960 . S
H7509 C7495 0.961 . S
H7510 C7495 0.961 . S
H7511 C7495 0.961 . S
H7512 C7496 0.931 . S
H7513 C7501 0.930 . S
H7514 C7502 0.956 . S
H7515 C7502 0.961 . S
H7516 C7502 0.961 . S
H7517 C7503 0.958 . S
H7518 C7503 0.961 . S
H7519 C7503 0.960 . S
C7520 C7521 1.391 . S
C7520 C7522 1.394 . S
C7520 H7536 0.931 . S
C7521 C7520 1.391 . S
C7521 C7525 1.376 . S
C7522 C7520 1.394 . S
C7522 C7523 1.369 . S
C7522 C7526 1.531 . S
C7523 C7522 1.369 . S
C7523 C7524 1.410 . S
C7523 C7531 1.503 . S
C7524 C7523 1.410 . S
C7524 C7525 1.392 . S
C7524 C7527 1.511 . S
C7525 C7521 1.376 . S
C7525 C7524 1.392 . S
C7525 H7537 0.929 . S
C7526 C7522 1.531 . S
C7526 H7538 0.960 . S
C7526 H7539 0.962 . S
C7526 H7540 0.960 . S
C7527 C7524 1.511 . S
C7527 H7541 0.961 . S
C7527 H7542 0.961 . S
C7527 H7543 0.961 . S
C7528 C7529 1.370 . S
C7528 C7530 1.363 . S
C7528 H7544 0.931 . S
C7529 C7528 1.370 . S
C7529 C7533 1.408 . S
C7530 C7528 1.363 . S
C7530 C7531 1.370 . S
C7530 C7534 1.524 . S
C7531 C7523 1.503 . S
C7531 C7530 1.370 . S
C7531 C7532 1.403 . S
C7532 C7531 1.403 . S
C7532 C7533 1.404 . S
C7532 C7535 1.539 . S
C7533 C7529 1.408 . S
C7533 C7532 1.404 . S
C7533 H7545 0.930 . S
C7534 C7530 1.524 . S
C7534 H7546 0.956 . S
C7534 H7547 0.961 . S
C7534 H7548 0.961 . S
C7535 C7532 1.539 . S
C7535 H7549 0.958 . S
C7535 H7550 0.961 . S
C7535 H7551 0.960 . S
H7536 C7520 0.931 . S
H7537 C7525 0.929 . S
H7538 C7526 0.960 . S
H7539 C7526 0.962 . S
H7540 C7526 0.960 . S
H7541 C7527 0.961 . S
H7542 C7527 0.961 . S
H7543 C7527 0.961 . S
H7544 C7528 0.931 . S
H7545 C7533 0.930 . S
H7546 C7534 0.956 . S
H7547 C7534 0.961 . S
H7548 C7534 0.961 . S
H7549 C7535 0.958 . S
H7550 C7535 0.961 . S
H7551 C7535 0.960 . S
C7552 C7553 1.391 . S
C7552 C7554 1.394 . S
C7552 H7568 0.931 . S
C7553 C7552 1.391 . S
C7553 C7557 1.376 . S
C7554 C7552 1.394 . S
C7554 C7555 1.369 . S
C7554 C7558 1.531 . S
C7555 C7554 1.369 . S
C7555 C7556 1.410 . S
C7555 C7563 1.503 . S
C7556 C7555 1.410 . S
C7556 C7557 1.392 . S
C7556 C7559 1.511 . S
C7557 C7553 1.376 . S
C7557 C7556 1.392 . S
C7557 H7569 0.929 . S
C7558 C7554 1.531 . S
C7558 H7570 0.960 . S
C7558 H7571 0.962 . S
C7558 H7572 0.960 . S
C7559 C7556 1.511 . S
C7559 H7573 0.961 . S
C7559 H7574 0.961 . S
C7559 H7575 0.961 . S
C7560 C7561 1.370 . S
C7560 C7562 1.363 . S
C7560 H7576 0.931 . S
C7561 C7560 1.370 . S
C7561 C7565 1.408 . S
C7562 C7560 1.363 . S
C7562 C7563 1.370 . S
C7562 C7566 1.524 . S
C7563 C7555 1.503 . S
C7563 C7562 1.370 . S
C7563 C7564 1.403 . S
C7564 C7563 1.403 . S
C7564 C7565 1.404 . S
C7564 C7567 1.539 . S
C7565 C7561 1.408 . S
C7565 C7564 1.404 . S
C7565 H7577 0.930 . S
C7566 C7562 1.524 . S
C7566 H7578 0.956 . S
C7566 H7579 0.961 . S
C7566 H7580 0.961 . S
C7567 C7564 1.539 . S
C7567 H7581 0.958 . S
C7567 H7582 0.961 . S
C7567 H7583 0.960 . S
H7568 C7552 0.931 . S
H7569 C7557 0.929 . S
H7570 C7558 0.960 . S
H7571 C7558 0.962 . S
H7572 C7558 0.960 . S
H7573 C7559 0.961 . S
H7574 C7559 0.961 . S
H7575 C7559 0.961 . S
H7576 C7560 0.931 . S
H7577 C7565 0.930 . S
H7578 C7566 0.956 . S
H7579 C7566 0.961 . S
H7580 C7566 0.961 . S
H7581 C7567 0.958 . S
H7582 C7567 0.961 . S
H7583 C7567 0.960 . S
C7584 C7585 1.391 . S
C7584 C7586 1.394 . S
C7584 H7600 0.931 . S
C7585 C7584 1.391 . S
C7585 C7589 1.376 . S
C7586 C7584 1.394 . S
C7586 C7587 1.369 . S
C7586 C7590 1.531 . S
C7587 C7586 1.369 . S
C7587 C7588 1.410 . S
C7587 C7595 1.503 . S
C7588 C7587 1.410 . S
C7588 C7589 1.392 . S
C7588 C7591 1.511 . S
C7589 C7585 1.376 . S
C7589 C7588 1.392 . S
C7589 H7601 0.929 . S
C7590 C7586 1.531 . S
C7590 H7602 0.960 . S
C7590 H7603 0.962 . S
C7590 H7604 0.960 . S
C7591 C7588 1.511 . S
C7591 H7605 0.961 . S
C7591 H7606 0.961 . S
C7591 H7607 0.961 . S
C7592 C7593 1.370 . S
C7592 C7594 1.363 . S
C7592 H7608 0.931 . S
C7593 C7592 1.370 . S
C7593 C7597 1.408 . S
C7594 C7592 1.363 . S
C7594 C7595 1.370 . S
C7594 C7598 1.524 . S
C7595 C7587 1.503 . S
C7595 C7594 1.370 . S
C7595 C7596 1.403 . S
C7596 C7595 1.403 . S
C7596 C7597 1.404 . S
C7596 C7599 1.539 . S
C7597 C7593 1.408 . S
C7597 C7596 1.404 . S
C7597 H7609 0.930 . S
C7598 C7594 1.524 . S
C7598 H7610 0.956 . S
C7598 H7611 0.961 . S
C7598 H7612 0.961 . S
C7599 C7596 1.539 . S
C7599 H7613 0.958 . S
C7599 H7614 0.961 . S
C7599 H7615 0.960 . S
H7600 C7584 0.931 . S
H7601 C7589 0.929 . S
H7602 C7590 0.960 . S
H7603 C7590 0.962 . S
H7604 C7590 0.960 . S
H7605 C7591 0.961 . S
H7606 C7591 0.961 . S
H7607 C7591 0.961 . S
H7608 C7592 0.931 . S
H7609 C7597 0.930 . S
H7610 C7598 0.956 . S
H7611 C7598 0.961 . S
H7612 C7598 0.961 . S
H7613 C7599 0.958 . S
H7614 C7599 0.961 . S
H7615 C7599 0.960 . S
C7616 C7617 1.391 . S
C7616 C7618 1.394 . S
C7616 H7632 0.931 . S
C7617 C7616 1.391 . S
C7617 C7621 1.376 . S
C7618 C7616 1.394 . S
C7618 C7619 1.369 . S
C7618 C7622 1.531 . S
C7619 C7618 1.369 . S
C7619 C7620 1.410 . S
C7619 C7627 1.503 . S
C7620 C7619 1.410 . S
C7620 C7621 1.392 . S
C7620 C7623 1.511 . S
C7621 C7617 1.376 . S
C7621 C7620 1.392 . S
C7621 H7633 0.929 . S
C7622 C7618 1.531 . S
C7622 H7634 0.960 . S
C7622 H7635 0.962 . S
C7622 H7636 0.960 . S
C7623 C7620 1.511 . S
C7623 H7637 0.961 . S
C7623 H7638 0.961 . S
C7623 H7639 0.961 . S
C7624 C7625 1.370 . S
C7624 C7626 1.363 . S
C7624 H7640 0.931 . S
C7625 C7624 1.370 . S
C7625 C7629 1.408 . S
C7626 C7624 1.363 . S
C7626 C7627 1.370 . S
C7626 C7630 1.524 . S
C7627 C7619 1.503 . S
C7627 C7626 1.370 . S
C7627 C7628 1.403 . S
C7628 C7627 1.403 . S
C7628 C7629 1.404 . S
C7628 C7631 1.539 . S
C7629 C7625 1.408 . S
C7629 C7628 1.404 . S
C7629 H7641 0.930 . S
C7630 C7626 1.524 . S
C7630 H7642 0.956 . S
C7630 H7643 0.961 . S
C7630 H7644 0.961 . S
C7631 C7628 1.539 . S
C7631 H7645 0.958 . S
C7631 H7646 0.961 . S
C7631 H7647 0.960 . S
H7632 C7616 0.931 . S
H7633 C7621 0.929 . S
H7634 C7622 0.960 . S
H7635 C7622 0.962 . S
H7636 C7622 0.960 . S
H7637 C7623 0.961 . S
H7638 C7623 0.961 . S
H7639 C7623 0.961 . S
H7640 C7624 0.931 . S
H7641 C7629 0.930 . S
H7642 C7630 0.956 . S
H7643 C7630 0.961 . S
H7644 C7630 0.961 . S
H7645 C7631 0.958 . S
H7646 C7631 0.961 . S
H7647 C7631 0.960 . S
C7648 C7649 1.391 . S
C7648 C7650 1.394 . S
C7648 H7664 0.931 . S
C7649 C7648 1.391 . S
C7649 C7653 1.376 . S
C7650 C7648 1.394 . S
C7650 C7651 1.369 . S
C7650 C7654 1.531 . S
C7651 C7650 1.369 . S
C7651 C7652 1.410 . S
C7651 C7659 1.503 . S
C7652 C7651 1.410 . S
C7652 C7653 1.392 . S
C7652 C7655 1.511 . S
C7653 C7649 1.376 . S
C7653 C7652 1.392 . S
C7653 H7665 0.929 . S
C7654 C7650 1.531 . S
C7654 H7666 0.960 . S
C7654 H7667 0.962 . S
C7654 H7668 0.960 . S
C7655 C7652 1.511 . S
C7655 H7669 0.961 . S
C7655 H7670 0.961 . S
C7655 H7671 0.961 . S
C7656 C7657 1.370 . S
C7656 C7658 1.363 . S
C7656 H7672 0.931 . S
C7657 C7656 1.370 . S
C7657 C7661 1.408 . S
C7658 C7656 1.363 . S
C7658 C7659 1.370 . S
C7658 C7662 1.524 . S
C7659 C7651 1.503 . S
C7659 C7658 1.370 . S
C7659 C7660 1.403 . S
C7660 C7659 1.403 . S
C7660 C7661 1.404 . S
C7660 C7663 1.539 . S
C7661 C7657 1.408 . S
C7661 C7660 1.404 . S
C7661 H7673 0.930 . S
C7662 C7658 1.524 . S
C7662 H7674 0.956 . S
C7662 H7675 0.961 . S
C7662 H7676 0.961 . S
C7663 C7660 1.539 . S
C7663 H7677 0.958 . S
C7663 H7678 0.961 . S
C7663 H7679 0.960 . S
H7664 C7648 0.931 . S
H7665 C7653 0.929 . S
H7666 C7654 0.960 . S
H7667 C7654 0.962 . S
H7668 C7654 0.960 . S
H7669 C7655 0.961 . S
H7670 C7655 0.961 . S
H7671 C7655 0.961 . S
H7672 C7656 0.931 . S
H7673 C7661 0.930 . S
H7674 C7662 0.956 . S
H7675 C7662 0.961 . S
H7676 C7662 0.961 . S
H7677 C7663 0.958 . S
H7678 C7663 0.961 . S
H7679 C7663 0.960 . S
C7680 C7681 1.391 . S
C7680 C7682 1.394 . S
C7680 H7696 0.931 . S
C7681 C7680 1.391 . S
C7681 C7685 1.376 . S
C7682 C7680 1.394 . S
C7682 C7683 1.369 . S
C7682 C7686 1.531 . S
C7683 C7682 1.369 . S
C7683 C7684 1.410 . S
C7683 C7691 1.503 . S
C7684 C7683 1.410 . S
C7684 C7685 1.392 . S
C7684 C7687 1.511 . S
C7685 C7681 1.376 . S
C7685 C7684 1.392 . S
C7685 H7697 0.929 . S
C7686 C7682 1.531 . S
C7686 H7698 0.960 . S
C7686 H7699 0.962 . S
C7686 H7700 0.960 . S
C7687 C7684 1.511 . S
C7687 H7701 0.961 . S
C7687 H7702 0.961 . S
C7687 H7703 0.961 . S
C7688 C7689 1.370 . S
C7688 C7690 1.363 . S
C7688 H7704 0.931 . S
C7689 C7688 1.370 . S
C7689 C7693 1.408 . S
C7690 C7688 1.363 . S
C7690 C7691 1.370 . S
C7690 C7694 1.524 . S
C7691 C7683 1.503 . S
C7691 C7690 1.370 . S
C7691 C7692 1.403 . S
C7692 C7691 1.403 . S
C7692 C7693 1.404 . S
C7692 C7695 1.539 . S
C7693 C7689 1.408 . S
C7693 C7692 1.404 . S
C7693 H7705 0.930 . S
C7694 C7690 1.524 . S
C7694 H7706 0.956 . S
C7694 H7707 0.961 . S
C7694 H7708 0.961 . S
C7695 C7692 1.539 . S
C7695 H7709 0.958 . S
C7695 H7710 0.961 . S
C7695 H7711 0.960 . S
H7696 C7680 0.931 . S
H7697 C7685 0.929 . S
H7698 C7686 0.960 . S
H7699 C7686 0.962 . S
H7700 C7686 0.960 . S
H7701 C7687 0.961 . S
H7702 C7687 0.961 . S
H7703 C7687 0.961 . S
H7704 C7688 0.931 . S
H7705 C7693 0.930 . S
H7706 C7694 0.956 . S
H7707 C7694 0.961 . S
H7708 C7694 0.961 . S
H7709 C7695 0.958 . S
H7710 C7695 0.961 . S
H7711 C7695 0.960 . S
C7712 C7713 1.391 . S
C7712 C7714 1.394 . S
C7712 H7728 0.931 . S
C7713 C7712 1.391 . S
C7713 C7717 1.376 . S
C7714 C7712 1.394 . S
C7714 C7715 1.369 . S
C7714 C7718 1.531 . S
C7715 C7714 1.369 . S
C7715 C7716 1.410 . S
C7715 C7723 1.503 . S
C7716 C7715 1.410 . S
C7716 C7717 1.392 . S
C7716 C7719 1.511 . S
C7717 C7713 1.376 . S
C7717 C7716 1.392 . S
C7717 H7729 0.929 . S
C7718 C7714 1.531 . S
C7718 H7730 0.960 . S
C7718 H7731 0.962 . S
C7718 H7732 0.960 . S
C7719 C7716 1.511 . S
C7719 H7733 0.961 . S
C7719 H7734 0.961 . S
C7719 H7735 0.961 . S
C7720 C7721 1.370 . S
C7720 C7722 1.363 . S
C7720 H7736 0.931 . S
C7721 C7720 1.370 . S
C7721 C7725 1.408 . S
C7722 C7720 1.363 . S
C7722 C7723 1.370 . S
C7722 C7726 1.524 . S
C7723 C7715 1.503 . S
C7723 C7722 1.370 . S
C7723 C7724 1.403 . S
C7724 C7723 1.403 . S
C7724 C7725 1.404 . S
C7724 C7727 1.539 . S
C7725 C7721 1.408 . S
C7725 C7724 1.404 . S
C7725 H7737 0.930 . S
C7726 C7722 1.524 . S
C7726 H7738 0.956 . S
C7726 H7739 0.961 . S
C7726 H7740 0.961 . S
C7727 C7724 1.539 . S
C7727 H7741 0.958 . S
C7727 H7742 0.961 . S
C7727 H7743 0.960 . S
H7728 C7712 0.931 . S
H7729 C7717 0.929 . S
H7730 C7718 0.960 . S
H7731 C7718 0.962 . S
H7732 C7718 0.960 . S
H7733 C7719 0.961 . S
H7734 C7719 0.961 . S
H7735 C7719 0.961 . S
H7736 C7720 0.931 . S
H7737 C7725 0.930 . S
H7738 C7726 0.956 . S
H7739 C7726 0.961 . S
H7740 C7726 0.961 . S
H7741 C7727 0.958 . S
H7742 C7727 0.961 . S
H7743 C7727 0.960 . S
C7744 C7745 1.391 . S
C7744 C7746 1.394 . S
C7744 H7760 0.931 . S
C7745 C7744 1.391 . S
C7745 C7749 1.376 . S
C7746 C7744 1.394 . S
C7746 C7747 1.369 . S
C7746 C7750 1.531 . S
C7747 C7746 1.369 . S
C7747 C7748 1.410 . S
C7747 C7755 1.503 . S
C7748 C7747 1.410 . S
C7748 C7749 1.392 . S
C7748 C7751 1.511 . S
C7749 C7745 1.376 . S
C7749 C7748 1.392 . S
C7749 H7761 0.929 . S
C7750 C7746 1.531 . S
C7750 H7762 0.960 . S
C7750 H7763 0.962 . S
C7750 H7764 0.960 . S
C7751 C7748 1.511 . S
C7751 H7765 0.961 . S
C7751 H7766 0.961 . S
C7751 H7767 0.961 . S
C7752 C7753 1.370 . S
C7752 C7754 1.363 . S
C7752 H7768 0.931 . S
C7753 C7752 1.370 . S
C7753 C7757 1.408 . S
C7754 C7752 1.363 . S
C7754 C7755 1.370 . S
C7754 C7758 1.524 . S
C7755 C7747 1.503 . S
C7755 C7754 1.370 . S
C7755 C7756 1.403 . S
C7756 C7755 1.403 . S
C7756 C7757 1.404 . S
C7756 C7759 1.539 . S
C7757 C7753 1.408 . S
C7757 C7756 1.404 . S
C7757 H7769 0.930 . S
C7758 C7754 1.524 . S
C7758 H7770 0.956 . S
C7758 H7771 0.961 . S
C7758 H7772 0.961 . S
C7759 C7756 1.539 . S
C7759 H7773 0.958 . S
C7759 H7774 0.961 . S
C7759 H7775 0.960 . S
H7760 C7744 0.931 . S
H7761 C7749 0.929 . S
H7762 C7750 0.960 . S
H7763 C7750 0.962 . S
H7764 C7750 0.960 . S
H7765 C7751 0.961 . S
H7766 C7751 0.961 . S
H7767 C7751 0.961 . S
H7768 C7752 0.931 . S
H7769 C7757 0.930 . S
H7770 C7758 0.956 . S
H7771 C7758 0.961 . S
H7772 C7758 0.961 . S
H7773 C7759 0.958 . S
H7774 C7759 0.961 . S
H7775 C7759 0.960 . S
C7776 C7777 1.391 . S
C7776 C7778 1.394 . S
C7776 H7792 0.931 . S
C7777 C7776 1.391 . S
C7777 C7781 1.376 . S
C7778 C7776 1.394 . S
C7778 C7779 1.369 . S
C7778 C7782 1.531 . S
C7779 C7778 1.369 . S
C7779 C7780 1.410 . S
C7779 C7787 1.503 . S
C7780 C7779 1.410 . S
C7780 C7781 1.392 . S
C7780 C7783 1.511 . S
C7781 C7777 1.376 . S
C7781 C7780 1.392 . S
C7781 H7793 0.929 . S
C7782 C7778 1.531 . S
C7782 H7794 0.960 . S
C7782 H7795 0.962 . S
C7782 H7796 0.960 . S
C7783 C7780 1.511 . S
C7783 H7797 0.961 . S
C7783 H7798 0.961 . S
C7783 H7799 0.961 . S
C7784 C7785 1.370 . S
C7784 C7786 1.363 . S
C7784 H7800 0.931 . S
C7785 C7784 1.370 . S
C7785 C7789 1.408 . S
C7786 C7784 1.363 . S
C7786 C7787 1.370 . S
C7786 C7790 1.524 . S
C7787 C7779 1.503 . S
C7787 C7786 1.370 . S
C7787 C7788 1.403 . S
C7788 C7787 1.403 . S
C7788 C7789 1.404 . S
C7788 C7791 1.539 . S
C7789 C7785 1.408 . S
C7789 C7788 1.404 . S
C7789 H7801 0.930 . S
C7790 C7786 1.524 . S
C7790 H7802 0.956 . S
C7790 H7803 0.961 . S
C7790 H7804 0.961 . S
C7791 C7788 1.539 . S
C7791 H7805 0.958 . S
C7791 H7806 0.961 . S
C7791 H7807 0.960 . S
H7792 C7776 0.931 . S
H7793 C7781 0.929 . S
H7794 C7782 0.960 . S
H7795 C7782 0.962 . S
H7796 C7782 0.960 . S
H7797 C7783 0.961 . S
H7798 C7783 0.961 . S
H7799 C7783 0.961 . S
H7800 C7784 0.931 . S
H7801 C7789 0.930 . S
H7802 C7790 0.956 . S
H7803 C7790 0.961 . S
H7804 C7790 0.961 . S
H7805 C7791 0.958 . S
H7806 C7791 0.961 . S
H7807 C7791 0.960 . S
C7808 C7809 1.391 . S
C7808 C7810 1.394 . S
C7808 H7824 0.931 . S
C7809 C7808 1.391 . S
C7809 C7813 1.376 . S
C7810 C7808 1.394 . S
C7810 C7811 1.369 . S
C7810 C7814 1.531 . S
C7811 C7810 1.369 . S
C7811 C7812 1.410 . S
C7811 C7819 1.503 . S
C7812 C7811 1.410 . S
C7812 C7813 1.392 . S
C7812 C7815 1.511 . S
C7813 C7809 1.376 . S
C7813 C7812 1.392 . S
C7813 H7825 0.929 . S
C7814 C7810 1.531 . S
C7814 H7826 0.960 . S
C7814 H7827 0.962 . S
C7814 H7828 0.960 . S
C7815 C7812 1.511 . S
C7815 H7829 0.961 . S
C7815 H7830 0.961 . S
C7815 H7831 0.961 . S
C7816 C7817 1.370 . S
C7816 C7818 1.363 . S
C7816 H7832 0.931 . S
C7817 C7816 1.370 . S
C7817 C7821 1.408 . S
C7818 C7816 1.363 . S
C7818 C7819 1.370 . S
C7818 C7822 1.524 . S
C7819 C7811 1.503 . S
C7819 C7818 1.370 . S
C7819 C7820 1.403 . S
C7820 C7819 1.403 . S
C7820 C7821 1.404 . S
C7820 C7823 1.539 . S
C7821 C7817 1.408 . S
C7821 C7820 1.404 . S
C7821 H7833 0.930 . S
C7822 C7818 1.524 . S
C7822 H7834 0.956 . S
C7822 H7835 0.961 . S
C7822 H7836 0.961 . S
C7823 C7820 1.539 . S
C7823 H7837 0.958 . S
C7823 H7838 0.961 . S
C7823 H7839 0.960 . S
H7824 C7808 0.931 . S
H7825 C7813 0.929 . S
H7826 C7814 0.960 . S
H7827 C7814 0.962 . S
H7828 C7814 0.960 . S
H7829 C7815 0.961 . S
H7830 C7815 0.961 . S
H7831 C7815 0.961 . S
H7832 C7816 0.931 . S
H7833 C7821 0.930 . S
H7834 C7822 0.956 . S
H7835 C7822 0.961 . S
H7836 C7822 0.961 . S
H7837 C7823 0.958 . S
H7838 C7823 0.961 . S
H7839 C7823 0.960 . S
C7840 C7841 1.391 . S
C7840 C7842 1.394 . S
C7840 H7856 0.931 . S
C7841 C7840 1.391 . S
C7841 C7845 1.376 . S
C7842 C7840 1.394 . S
C7842 C7843 1.369 . S
C7842 C7846 1.531 . S
C7843 C7842 1.369 . S
C7843 C7844 1.410 . S
C7843 C7851 1.503 . S
C7844 C7843 1.410 . S
C7844 C7845 1.392 . S
C7844 C7847 1.511 . S
C7845 C7841 1.376 . S
C7845 C7844 1.392 . S
C7845 H7857 0.929 . S
C7846 C7842 1.531 . S
C7846 H7858 0.960 . S
C7846 H7859 0.962 . S
C7846 H7860 0.960 . S
C7847 C7844 1.511 . S
C7847 H7861 0.961 . S
C7847 H7862 0.961 . S
C7847 H7863 0.961 . S
C7848 C7849 1.370 . S
C7848 C7850 1.363 . S
C7848 H7864 0.931 . S
C7849 C7848 1.370 . S
C7849 C7853 1.408 . S
C7850 C7848 1.363 . S
C7850 C7851 1.370 . S
C7850 C7854 1.524 . S
C7851 C7843 1.503 . S
C7851 C7850 1.370 . S
C7851 C7852 1.403 . S
C7852 C7851 1.403 . S
C7852 C7853 1.404 . S
C7852 C7855 1.539 . S
C7853 C7849 1.408 . S
C7853 C7852 1.404 . S
C7853 H7865 0.930 . S
C7854 C7850 1.524 . S
C7854 H7866 0.956 . S
C7854 H7867 0.961 . S
C7854 H7868 0.961 . S
C7855 C7852 1.539 . S
C7855 H7869 0.958 . S
C7855 H7870 0.961 . S
C7855 H7871 0.960 . S
H7856 C7840 0.931 . S
H7857 C7845 0.929 . S
H7858 C7846 0.960 . S
H7859 C7846 0.962 . S
H7860 C7846 0.960 . S
H7861 C7847 0.961 . S
H7862 C7847 0.961 . S
H7863 C7847 0.961 . S
H7864 C7848 0.931 . S
H7865 C7853 0.930 . S
H7866 C7854 0.956 . S
H7867 C7854 0.961 . S
H7868 C7854 0.961 . S
H7869 C7855 0.958 . S
H7870 C7855 0.961 . S
H7871 C7855 0.960 . S
C7872 C7873 1.391 . S
C7872 C7874 1.394 . S
C7872 H7888 0.931 . S
C7873 C7872 1.391 . S
C7873 C7877 1.376 . S
C7874 C7872 1.394 . S
C7874 C7875 1.369 . S
C7874 C7878 1.531 . S
C7875 C7874 1.369 . S
C7875 C7876 1.410 . S
C7875 C7883 1.503 . S
C7876 C7875 1.410 . S
C7876 C7877 1.392 . S
C7876 C7879 1.511 . S
C7877 C7873 1.376 . S
C7877 C7876 1.392 . S
C7877 H7889 0.929 . S
C7878 C7874 1.531 . S
C7878 H7890 0.960 . S
C7878 H7891 0.962 . S
C7878 H7892 0.960 . S
C7879 C7876 1.511 . S
C7879 H7893 0.961 . S
C7879 H7894 0.961 . S
C7879 H7895 0.961 . S
C7880 C7881 1.370 . S
C7880 C7882 1.363 . S
C7880 H7896 0.931 . S
C7881 C7880 1.370 . S
C7881 C7885 1.408 . S
C7882 C7880 1.363 . S
C7882 C7883 1.370 . S
C7882 C7886 1.524 . S
C7883 C7875 1.503 . S
C7883 C7882 1.370 . S
C7883 C7884 1.403 . S
C7884 C7883 1.403 . S
C7884 C7885 1.404 . S
C7884 C7887 1.539 . S
C7885 C7881 1.408 . S
C7885 C7884 1.404 . S
C7885 H7897 0.930 . S
C7886 C7882 1.524 . S
C7886 H7898 0.956 . S
C7886 H7899 0.961 . S
C7886 H7900 0.961 . S
C7887 C7884 1.539 . S
C7887 H7901 0.958 . S
C7887 H7902 0.961 . S
C7887 H7903 0.960 . S
H7888 C7872 0.931 . S
H7889 C7877 0.929 . S
H7890 C7878 0.960 . S
H7891 C7878 0.962 . S
H7892 C7878 0.960 . S
H7893 C7879 0.961 . S
H7894 C7879 0.961 . S
H7895 C7879 0.961 . S
H7896 C7880 0.931 . S
H7897 C7885 0.930 . S
H7898 C7886 0.956 . S
H7899 C7886 0.961 . S
H7900 C7886 0.961 . S
H7901 C7887 0.958 . S
H7902 C7887 0.961 . S
H7903 C7887 0.960 . S
C7904 C7905 1.391 . S
C7904 C7906 1.394 . S
C7904 H7920 0.931 . S
C7905 C7904 1.391 . S
C7905 C7909 1.376 . S
C7906 C7904 1.394 . S
C7906 C7907 1.369 . S
C7906 C7910 1.531 . S
C7907 C7906 1.369 . S
C7907 C7908 1.410 . S
C7907 C7915 1.503 . S
C7908 C7907 1.410 . S
C7908 C7909 1.392 . S
C7908 C7911 1.511 . S
C7909 C7905 1.376 . S
C7909 C7908 1.392 . S
C7909 H7921 0.929 . S
C7910 C7906 1.531 . S
C7910 H7922 0.960 . S
C7910 H7923 0.962 . S
C7910 H7924 0.960 . S
C7911 C7908 1.511 . S
C7911 H7925 0.961 . S
C7911 H7926 0.961 . S
C7911 H7927 0.961 . S
C7912 C7913 1.370 . S
C7912 C7914 1.363 . S
C7912 H7928 0.931 . S
C7913 C7912 1.370 . S
C7913 C7917 1.408 . S
C7914 C7912 1.363 . S
C7914 C7915 1.370 . S
C7914 C7918 1.524 . S
C7915 C7907 1.503 . S
C7915 C7914 1.370 . S
C7915 C7916 1.403 . S
C7916 C7915 1.403 . S
C7916 C7917 1.404 . S
C7916 C7919 1.539 . S
C7917 C7913 1.408 . S
C7917 C7916 1.404 . S
C7917 H7929 0.930 . S
C7918 C7914 1.524 . S
C7918 H7930 0.956 . S
C7918 H7931 0.961 . S
C7918 H7932 0.961 . S
C7919 C7916 1.539 . S
C7919 H7933 0.958 . S
C7919 H7934 0.961 . S
C7919 H7935 0.960 . S
H7920 C7904 0.931 . S
H7921 C7909 0.929 . S
H7922 C7910 0.960 . S
H7923 C7910 0.962 . S
H7924 C7910 0.960 . S
H7925 C7911 0.961 . S
H7926 C7911 0.961 . S
H7927 C7911 0.961 . S
H7928 C7912 0.931 . S
H7929 C7917 0.930 . S
H7930 C7918 0.956 . S
H7931 C7918 0.961 . S
H7932 C7918 0.961 . S
H7933 C7919 0.958 . S
H7934 C7919 0.961 . S
H7935 C7919 0.960 . S
C7936 C7937 1.391 . S
C7936 C7938 1.394 . S
C7936 H7952 0.931 . S
C7937 C7936 1.391 . S
C7937 C7941 1.376 . S
C7938 C7936 1.394 . S
C7938 C7939 1.369 . S
C7938 C7942 1.531 . S
C7939 C7938 1.369 . S
C7939 C7940 1.410 . S
C7939 C7947 1.503 . S
C7940 C7939 1.410 . S
C7940 C7941 1.392 . S
C7940 C7943 1.511 . S
C7941 C7937 1.376 . S
C7941 C7940 1.392 . S
C7941 H7953 0.929 . S
C7942 C7938 1.531 . S
C7942 H7954 0.960 . S
C7942 H7955 0.962 . S
C7942 H7956 0.960 . S
C7943 C7940 1.511 . S
C7943 H7957 0.961 . S
C7943 H7958 0.961 . S
C7943 H7959 0.961 . S
C7944 C7945 1.370 . S
C7944 C7946 1.363 . S
C7944 H7960 0.931 . S
C7945 C7944 1.370 . S
C7945 C7949 1.408 . S
C7946 C7944 1.363 . S
C7946 C7947 1.370 . S
C7946 C7950 1.524 . S
C7947 C7939 1.503 . S
C7947 C7946 1.370 . S
C7947 C7948 1.403 . S
C7948 C7947 1.403 . S
C7948 C7949 1.404 . S
C7948 C7951 1.539 . S
C7949 C7945 1.408 . S
C7949 C7948 1.404 . S
C7949 H7961 0.930 . S
C7950 C7946 1.524 . S
C7950 H7962 0.956 . S
C7950 H7963 0.961 . S
C7950 H7964 0.961 . S
C7951 C7948 1.539 . S
C7951 H7965 0.958 . S
C7951 H7966 0.961 . S
C7951 H7967 0.960 . S
H7952 C7936 0.931 . S
H7953 C7941 0.929 . S
H7954 C7942 0.960 . S
H7955 C7942 0.962 . S
H7956 C7942 0.960 . S
H7957 C7943 0.961 . S
H7958 C7943 0.961 . S
H7959 C7943 0.961 . S
H7960 C7944 0.931 . S
H7961 C7949 0.930 . S
H7962 C7950 0.956 . S
H7963 C7950 0.961 . S
H7964 C7950 0.961 . S
H7965 C7951 0.958 . S
H7966 C7951 0.961 . S
H7967 C7951 0.960 . S
C7968 C7969 1.391 . S
C7968 C7970 1.394 . S
C7968 H7984 0.931 . S
C7969 C7968 1.391 . S
C7969 C7973 1.376 . S
C7970 C7968 1.394 . S
C7970 C7971 1.369 . S
C7970 C7974 1.531 . S
C7971 C7970 1.369 . S
C7971 C7972 1.410 . S
C7971 C7979 1.503 . S
C7972 C7971 1.410 . S
C7972 C7973 1.392 . S
C7972 C7975 1.511 . S
C7973 C7969 1.376 . S
C7973 C7972 1.392 . S
C7973 H7985 0.929 . S
C7974 C7970 1.531 . S
C7974 H7986 0.960 . S
C7974 H7987 0.962 . S
C7974 H7988 0.960 . S
C7975 C7972 1.511 . S
C7975 H7989 0.961 . S
C7975 H7990 0.961 . S
C7975 H7991 0.961 . S
C7976 C7977 1.370 . S
C7976 C7978 1.363 . S
C7976 H7992 0.931 . S
C7977 C7976 1.370 . S
C7977 C7981 1.408 . S
C7978 C7976 1.363 . S
C7978 C7979 1.370 . S
C7978 C7982 1.524 . S
C7979 C7971 1.503 . S
C7979 C7978 1.370 . S
C7979 C7980 1.403 . S
C7980 C7979 1.403 . S
C7980 C7981 1.404 . S
C7980 C7983 1.539 . S
C7981 C7977 1.408 . S
C7981 C7980 1.404 . S
C7981 H7993 0.930 . S
C7982 C7978 1.524 . S
C7982 H7994 0.956 . S
C7982 H7995 0.961 . S
C7982 H7996 0.961 . S
C7983 C7980 1.539 . S
C7983 H7997 0.958 . S
C7983 H7998 0.961 . S
C7983 H7999 0.960 . S
H7984 C7968 0.931 . S
H7985 C7973 0.929 . S
H7986 C7974 0.960 . S
H7987 C7974 0.962 . S
H7988 C7974 0.960 . S
H7989 C7975 0.961 . S
H7990 C7975 0.961 . S
H7991 C7975 0.961 . S
H7992 C7976 0.931 . S
H7993 C7981 0.930 . S
H7994 C7982 0.956 . S
H7995 C7982 0.961 . S
H7996 C7982 0.961 . S
H7997 C7983 0.958 . S
H7998 C7983 0.961 . S
H7999 C7983 0.960 . S
C8000 C8001 1.391 . S
C8000 C8002 1.394 . S
C8000 H8016 0.931 . S
C8001 C8000 1.391 . S
C8001 C8005 1.376 . S
C8002 C8000 1.394 . S
C8002 C8003 1.369 . S
C8002 C8006 1.531 . S
C8003 C8002 1.369 . S
C8003 C8004 1.410 . S
C8003 C8011 1.503 . S
C8004 C8003 1.410 . S
C8004 C8005 1.392 . S
C8004 C8007 1.511 . S
C8005 C8001 1.376 . S
C8005 C8004 1.392 . S
C8005 H8017 0.929 . S
C8006 C8002 1.531 . S
C8006 H8018 0.960 . S
C8006 H8019 0.962 . S
C8006 H8020 0.960 . S
C8007 C8004 1.511 . S
C8007 H8021 0.961 . S
C8007 H8022 0.961 . S
C8007 H8023 0.961 . S
C8008 C8009 1.370 . S
C8008 C8010 1.363 . S
C8008 H8024 0.931 . S
C8009 C8008 1.370 . S
C8009 C8013 1.408 . S
C8010 C8008 1.363 . S
C8010 C8011 1.370 . S
C8010 C8014 1.524 . S
C8011 C8003 1.503 . S
C8011 C8010 1.370 . S
C8011 C8012 1.403 . S
C8012 C8011 1.403 . S
C8012 C8013 1.404 . S
C8012 C8015 1.539 . S
C8013 C8009 1.408 . S
C8013 C8012 1.404 . S
C8013 H8025 0.930 . S
C8014 C8010 1.524 . S
C8014 H8026 0.956 . S
C8014 H8027 0.961 . S
C8014 H8028 0.961 . S
C8015 C8012 1.539 . S
C8015 H8029 0.958 . S
C8015 H8030 0.961 . S
C8015 H8031 0.960 . S
H8016 C8000 0.931 . S
H8017 C8005 0.929 . S
H8018 C8006 0.960 . S
H8019 C8006 0.962 . S
H8020 C8006 0.960 . S
H8021 C8007 0.961 . S
H8022 C8007 0.961 . S
H8023 C8007 0.961 . S
H8024 C8008 0.931 . S
H8025 C8013 0.930 . S
H8026 C8014 0.956 . S
H8027 C8014 0.961 . S
H8028 C8014 0.961 . S
H8029 C8015 0.958 . S
H8030 C8015 0.961 . S
H8031 C8015 0.960 . S
C8032 C8033 1.391 . S
C8032 C8034 1.394 . S
C8032 H8048 0.931 . S
C8033 C8032 1.391 . S
C8033 C8037 1.376 . S
C8034 C8032 1.394 . S
C8034 C8035 1.369 . S
C8034 C8038 1.531 . S
C8035 C8034 1.369 . S
C8035 C8036 1.410 . S
C8035 C8043 1.503 . S
C8036 C8035 1.410 . S
C8036 C8037 1.392 . S
C8036 C8039 1.511 . S
C8037 C8033 1.376 . S
C8037 C8036 1.392 . S
C8037 H8049 0.929 . S
C8038 C8034 1.531 . S
C8038 H8050 0.960 . S
C8038 H8051 0.962 . S
C8038 H8052 0.960 . S
C8039 C8036 1.511 . S
C8039 H8053 0.961 . S
C8039 H8054 0.961 . S
C8039 H8055 0.961 . S
C8040 C8041 1.370 . S
C8040 C8042 1.363 . S
C8040 H8056 0.931 . S
C8041 C8040 1.370 . S
C8041 C8045 1.408 . S
C8042 C8040 1.363 . S
C8042 C8043 1.370 . S
C8042 C8046 1.524 . S
C8043 C8035 1.503 . S
C8043 C8042 1.370 . S
C8043 C8044 1.403 . S
C8044 C8043 1.403 . S
C8044 C8045 1.404 . S
C8044 C8047 1.539 . S
C8045 C8041 1.408 . S
C8045 C8044 1.404 . S
C8045 H8057 0.930 . S
C8046 C8042 1.524 . S
C8046 H8058 0.956 . S
C8046 H8059 0.961 . S
C8046 H8060 0.961 . S
C8047 C8044 1.539 . S
C8047 H8061 0.958 . S
C8047 H8062 0.961 . S
C8047 H8063 0.960 . S
H8048 C8032 0.931 . S
H8049 C8037 0.929 . S
H8050 C8038 0.960 . S
H8051 C8038 0.962 . S
H8052 C8038 0.960 . S
H8053 C8039 0.961 . S
H8054 C8039 0.961 . S
H8055 C8039 0.961 . S
H8056 C8040 0.931 . S
H8057 C8045 0.930 . S
H8058 C8046 0.956 . S
H8059 C8046 0.961 . S
H8060 C8046 0.961 . S
H8061 C8047 0.958 . S
H8062 C8047 0.961 . S
H8063 C8047 0.960 . S
C8064 C8065 1.391 . S
C8064 C8066 1.394 . S
C8064 H8080 0.931 . S
C8065 C8064 1.391 . S
C8065 C8069 1.376 . S
C8066 C8064 1.394 . S
C8066 C8067 1.369 . S
C8066 C8070 1.531 . S
C8067 C8066 1.369 . S
C8067 C8068 1.410 . S
C8067 C8075 1.503 . S
C8068 C8067 1.410 . S
C8068 C8069 1.392 . S
C8068 C8071 1.511 . S
C8069 C8065 1.376 . S
C8069 C8068 1.392 . S
C8069 H8081 0.929 . S
C8070 C8066 1.531 . S
C8070 H8082 0.960 . S
C8070 H8083 0.962 . S
C8070 H8084 0.960 . S
C8071 C8068 1.511 . S
C8071 H8085 0.961 . S
C8071 H8086 0.961 . S
C8071 H8087 0.961 . S
C8072 C8073 1.370 . S
C8072 C8074 1.363 . S
C8072 H8088 0.931 . S
C8073 C8072 1.370 . S
C8073 C8077 1.408 . S
C8074 C8072 1.363 . S
C8074 C8075 1.370 . S
C8074 C8078 1.524 . S
C8075 C8067 1.503 . S
C8075 C8074 1.370 . S
C8075 C8076 1.403 . S
C8076 C8075 1.403 . S
C8076 C8077 1.404 . S
C8076 C8079 1.539 . S
C8077 C8073 1.408 . S
C8077 C8076 1.404 . S
C8077 H8089 0.930 . S
C8078 C8074 1.524 . S
C8078 H8090 0.956 . S
C8078 H8091 0.961 . S
C8078 H8092 0.961 . S
C8079 C8076 1.539 . S
C8079 H8093 0.958 . S
C8079 H8094 0.961 . S
C8079 H8095 0.960 . S
H8080 C8064 0.931 . S
H8081 C8069 0.929 . S
H8082 C8070 0.960 . S
H8083 C8070 0.962 . S
H8084 C8070 0.960 . S
H8085 C8071 0.961 . S
H8086 C8071 0.961 . S
H8087 C8071 0.961 . S
H8088 C8072 0.931 . S
H8089 C8077 0.930 . S
H8090 C8078 0.956 . S
H8091 C8078 0.961 . S
H8092 C8078 0.961 . S
H8093 C8079 0.958 . S
H8094 C8079 0.961 . S
H8095 C8079 0.960 . S
C8096 C8097 1.391 . S
C8096 C8098 1.394 . S
C8096 H8112 0.931 . S
C8097 C8096 1.391 . S
C8097 C8101 1.376 . S
C8098 C8096 1.394 . S
C8098 C8099 1.369 . S
C8098 C8102 1.531 . S
C8099 C8098 1.369 . S
C8099 C8100 1.410 . S
C8099 C8107 1.503 . S
C8100 C8099 1.410 . S
C8100 C8101 1.392 . S
C8100 C8103 1.511 . S
C8101 C8097 1.376 . S
C8101 C8100 1.392 . S
C8101 H8113 0.929 . S
C8102 C8098 1.531 . S
C8102 H8114 0.960 . S
C8102 H8115 0.962 . S
C8102 H8116 0.960 . S
C8103 C8100 1.511 . S
C8103 H8117 0.961 . S
C8103 H8118 0.961 . S
C8103 H8119 0.961 . S
C8104 C8105 1.370 . S
C8104 C8106 1.363 . S
C8104 H8120 0.931 . S
C8105 C8104 1.370 . S
C8105 C8109 1.408 . S
C8106 C8104 1.363 . S
C8106 C8107 1.370 . S
C8106 C8110 1.524 . S
C8107 C8099 1.503 . S
C8107 C8106 1.370 . S
C8107 C8108 1.403 . S
C8108 C8107 1.403 . S
C8108 C8109 1.404 . S
C8108 C8111 1.539 . S
C8109 C8105 1.408 . S
C8109 C8108 1.404 . S
C8109 H8121 0.930 . S
C8110 C8106 1.524 . S
C8110 H8122 0.956 . S
C8110 H8123 0.961 . S
C8110 H8124 0.961 . S
C8111 C8108 1.539 . S
C8111 H8125 0.958 . S
C8111 H8126 0.961 . S
C8111 H8127 0.960 . S
H8112 C8096 0.931 . S
H8113 C8101 0.929 . S
H8114 C8102 0.960 . S
H8115 C8102 0.962 . S
H8116 C8102 0.960 . S
H8117 C8103 0.961 . S
H8118 C8103 0.961 . S
H8119 C8103 0.961 . S
H8120 C8104 0.931 . S
H8121 C8109 0.930 . S
H8122 C8110 0.956 . S
H8123 C8110 0.961 . S
H8124 C8110 0.961 . S
H8125 C8111 0.958 . S
H8126 C8111 0.961 . S
H8127 C8111 0.960 . S
C8128 C8129 1.391 . S
C8128 C8130 1.394 . S
C8128 H8144 0.931 . S
C8129 C8128 1.391 . S
C8129 C8133 1.376 . S
C8130 C8128 1.394 . S
C8130 C8131 1.369 . S
C8130 C8134 1.531 . S
C8131 C8130 1.369 . S
C8131 C8132 1.410 . S
C8131 C8139 1.503 . S
C8132 C8131 1.410 . S
C8132 C8133 1.392 . S
C8132 C8135 1.511 . S
C8133 C8129 1.376 . S
C8133 C8132 1.392 . S
C8133 H8145 0.929 . S
C8134 C8130 1.531 . S
C8134 H8146 0.960 . S
C8134 H8147 0.962 . S
C8134 H8148 0.960 . S
C8135 C8132 1.511 . S
C8135 H8149 0.961 . S
C8135 H8150 0.961 . S
C8135 H8151 0.961 . S
C8136 C8137 1.370 . S
C8136 C8138 1.363 . S
C8136 H8152 0.931 . S
C8137 C8136 1.370 . S
C8137 C8141 1.408 . S
C8138 C8136 1.363 . S
C8138 C8139 1.370 . S
C8138 C8142 1.524 . S
C8139 C8131 1.503 . S
C8139 C8138 1.370 . S
C8139 C8140 1.403 . S
C8140 C8139 1.403 . S
C8140 C8141 1.404 . S
C8140 C8143 1.539 . S
C8141 C8137 1.408 . S
C8141 C8140 1.404 . S
C8141 H8153 0.930 . S
C8142 C8138 1.524 . S
C8142 H8154 0.956 . S
C8142 H8155 0.961 . S
C8142 H8156 0.961 . S
C8143 C8140 1.539 . S
C8143 H8157 0.958 . S
C8143 H8158 0.961 . S
C8143 H8159 0.960 . S
H8144 C8128 0.931 . S
H8145 C8133 0.929 . S
H8146 C8134 0.960 . S
H8147 C8134 0.962 . S
H8148 C8134 0.960 . S
H8149 C8135 0.961 . S
H8150 C8135 0.961 . S
H8151 C8135 0.961 . S
H8152 C8136 0.931 . S
H8153 C8141 0.930 . S
H8154 C8142 0.956 . S
H8155 C8142 0.961 . S
H8156 C8142 0.961 . S
H8157 C8143 0.958 . S
H8158 C8143 0.961 . S
H8159 C8143 0.960 . S
C8160 C8161 1.391 . S
C8160 C8162 1.394 . S
C8160 H8176 0.931 . S
C8161 C8160 1.391 . S
C8161 C8165 1.376 . S
C8162 C8160 1.394 . S
C8162 C8163 1.369 . S
C8162 C8166 1.531 . S
C8163 C8162 1.369 . S
C8163 C8164 1.410 . S
C8163 C8171 1.503 . S
C8164 C8163 1.410 . S
C8164 C8165 1.392 . S
C8164 C8167 1.511 . S
C8165 C8161 1.376 . S
C8165 C8164 1.392 . S
C8165 H8177 0.929 . S
C8166 C8162 1.531 . S
C8166 H8178 0.960 . S
C8166 H8179 0.962 . S
C8166 H8180 0.960 . S
C8167 C8164 1.511 . S
C8167 H8181 0.961 . S
C8167 H8182 0.961 . S
C8167 H8183 0.961 . S
C8168 C8169 1.370 . S
C8168 C8170 1.363 . S
C8168 H8184 0.931 . S
C8169 C8168 1.370 . S
C8169 C8173 1.408 . S
C8170 C8168 1.363 . S
C8170 C8171 1.370 . S
C8170 C8174 1.524 . S
C8171 C8163 1.503 . S
C8171 C8170 1.370 . S
C8171 C8172 1.403 . S
C8172 C8171 1.403 . S
C8172 C8173 1.404 . S
C8172 C8175 1.539 . S
C8173 C8169 1.408 . S
C8173 C8172 1.404 . S
C8173 H8185 0.930 . S
C8174 C8170 1.524 . S
C8174 H8186 0.956 . S
C8174 H8187 0.961 . S
C8174 H8188 0.961 . S
C8175 C8172 1.539 . S
C8175 H8189 0.958 . S
C8175 H8190 0.961 . S
C8175 H8191 0.960 . S
H8176 C8160 0.931 . S
H8177 C8165 0.929 . S
H8178 C8166 0.960 . S
H8179 C8166 0.962 . S
H8180 C8166 0.960 . S
H8181 C8167 0.961 . S
H8182 C8167 0.961 . S
H8183 C8167 0.961 . S
H8184 C8168 0.931 . S
H8185 C8173 0.930 . S
H8186 C8174 0.956 . S
H8187 C8174 0.961 . S
H8188 C8174 0.961 . S
H8189 C8175 0.958 . S
H8190 C8175 0.961 . S
H8191 C8175 0.960 . S
C8192 C8193 1.391 . S
C8192 C8194 1.394 . S
C8192 H8208 0.931 . S
C8193 C8192 1.391 . S
C8193 C8197 1.376 . S
C8194 C8192 1.394 . S
C8194 C8195 1.369 . S
C8194 C8198 1.531 . S
C8195 C8194 1.369 . S
C8195 C8196 1.410 . S
C8195 C8203 1.503 . S
C8196 C8195 1.410 . S
C8196 C8197 1.392 . S
C8196 C8199 1.511 . S
C8197 C8193 1.376 . S
C8197 C8196 1.392 . S
C8197 H8209 0.929 . S
C8198 C8194 1.531 . S
C8198 H8210 0.960 . S
C8198 H8211 0.962 . S
C8198 H8212 0.960 . S
C8199 C8196 1.511 . S
C8199 H8213 0.961 . S
C8199 H8214 0.961 . S
C8199 H8215 0.961 . S
C8200 C8201 1.370 . S
C8200 C8202 1.363 . S
C8200 H8216 0.931 . S
C8201 C8200 1.370 . S
C8201 C8205 1.408 . S
C8202 C8200 1.363 . S
C8202 C8203 1.370 . S
C8202 C8206 1.524 . S
C8203 C8195 1.503 . S
C8203 C8202 1.370 . S
C8203 C8204 1.403 . S
C8204 C8203 1.403 . S
C8204 C8205 1.404 . S
C8204 C8207 1.539 . S
C8205 C8201 1.408 . S
C8205 C8204 1.404 . S
C8205 H8217 0.930 . S
C8206 C8202 1.524 . S
C8206 H8218 0.956 . S
C8206 H8219 0.961 . S
C8206 H8220 0.961 . S
C8207 C8204 1.539 . S
C8207 H8221 0.958 . S
C8207 H8222 0.961 . S
C8207 H8223 0.960 . S
H8208 C8192 0.931 . S
H8209 C8197 0.929 . S
H8210 C8198 0.960 . S
H8211 C8198 0.962 . S
H8212 C8198 0.960 . S
H8213 C8199 0.961 . S
H8214 C8199 0.961 . S
H8215 C8199 0.961 . S
H8216 C8200 0.931 . S
H8217 C8205 0.930 . S
H8218 C8206 0.956 . S
H8219 C8206 0.961 . S
H8220 C8206 0.961 . S
H8221 C8207 0.958 . S
H8222 C8207 0.961 . S
H8223 C8207 0.960 . S
C8224 C8225 1.391 . S
C8224 C8226 1.394 . S
C8224 H8240 0.931 . S
C8225 C8224 1.391 . S
C8225 C8229 1.376 . S
C8226 C8224 1.394 . S
C8226 C8227 1.369 . S
C8226 C8230 1.531 . S
C8227 C8226 1.369 . S
C8227 C8228 1.410 . S
C8227 C8235 1.503 . S
C8228 C8227 1.410 . S
C8228 C8229 1.392 . S
C8228 C8231 1.511 . S
C8229 C8225 1.376 . S
C8229 C8228 1.392 . S
C8229 H8241 0.929 . S
C8230 C8226 1.531 . S
C8230 H8242 0.960 . S
C8230 H8243 0.962 . S
C8230 H8244 0.960 . S
C8231 C8228 1.511 . S
C8231 H8245 0.961 . S
C8231 H8246 0.961 . S
C8231 H8247 0.961 . S
C8232 C8233 1.370 . S
C8232 C8234 1.363 . S
C8232 H8248 0.931 . S
C8233 C8232 1.370 . S
C8233 C8237 1.408 . S
C8234 C8232 1.363 . S
C8234 C8235 1.370 . S
C8234 C8238 1.524 . S
C8235 C8227 1.503 . S
C8235 C8234 1.370 . S
C8235 C8236 1.403 . S
C8236 C8235 1.403 . S
C8236 C8237 1.404 . S
C8236 C8239 1.539 . S
C8237 C8233 1.408 . S
C8237 C8236 1.404 . S
C8237 H8249 0.930 . S
C8238 C8234 1.524 . S
C8238 H8250 0.956 . S
C8238 H8251 0.961 . S
C8238 H8252 0.961 . S
C8239 C8236 1.539 . S
C8239 H8253 0.958 . S
C8239 H8254 0.961 . S
C8239 H8255 0.960 . S
H8240 C8224 0.931 . S
H8241 C8229 0.929 . S
H8242 C8230 0.960 . S
H8243 C8230 0.962 . S
H8244 C8230 0.960 . S
H8245 C8231 0.961 . S
H8246 C8231 0.961 . S
H8247 C8231 0.961 . S
H8248 C8232 0.931 . S
H8249 C8237 0.930 . S
H8250 C8238 0.956 . S
H8251 C8238 0.961 . S
H8252 C8238 0.961 . S
H8253 C8239 0.958 . S
H8254 C8239 0.961 . S
H8255 C8239 0.960 . S
C8256 C8257 1.391 . S
C8256 C8258 1.394 . S
C8256 H8272 0.931 . S
C8257 C8256 1.391 . S
C8257 C8261 1.376 . S
C8258 C8256 1.394 . S
C8258 C8259 1.369 . S
C8258 C8262 1.531 . S
C8259 C8258 1.369 . S
C8259 C8260 1.410 . S
C8259 C8267 1.503 . S
C8260 C8259 1.410 . S
C8260 C8261 1.392 . S
C8260 C8263 1.511 . S
C8261 C8257 1.376 . S
C8261 C8260 1.392 . S
C8261 H8273 0.929 . S
C8262 C8258 1.531 . S
C8262 H8274 0.960 . S
C8262 H8275 0.962 . S
C8262 H8276 0.960 . S
C8263 C8260 1.511 . S
C8263 H8277 0.961 . S
C8263 H8278 0.961 . S
C8263 H8279 0.961 . S
C8264 C8265 1.370 . S
C8264 C8266 1.363 . S
C8264 H8280 0.931 . S
C8265 C8264 1.370 . S
C8265 C8269 1.408 . S
C8266 C8264 1.363 . S
C8266 C8267 1.370 . S
C8266 C8270 1.524 . S
C8267 C8259 1.503 . S
C8267 C8266 1.370 . S
C8267 C8268 1.403 . S
C8268 C8267 1.403 . S
C8268 C8269 1.404 . S
C8268 C8271 1.539 . S
C8269 C8265 1.408 . S
C8269 C8268 1.404 . S
C8269 H8281 0.930 . S
C8270 C8266 1.524 . S
C8270 H8282 0.956 . S
C8270 H8283 0.961 . S
C8270 H8284 0.961 . S
C8271 C8268 1.539 . S
C8271 H8285 0.958 . S
C8271 H8286 0.961 . S
C8271 H8287 0.960 . S
H8272 C8256 0.931 . S
H8273 C8261 0.929 . S
H8274 C8262 0.960 . S
H8275 C8262 0.962 . S
H8276 C8262 0.960 . S
H8277 C8263 0.961 . S
H8278 C8263 0.961 . S
H8279 C8263 0.961 . S
H8280 C8264 0.931 . S
H8281 C8269 0.930 . S
H8282 C8270 0.956 . S
H8283 C8270 0.961 . S
H8284 C8270 0.961 . S
H8285 C8271 0.958 . S
H8286 C8271 0.961 . S
H8287 C8271 0.960 . S
C8288 C8289 1.391 . S
C8288 C8290 1.394 . S
C8288 H8304 0.931 . S
C8289 C8288 1.391 . S
C8289 C8293 1.376 . S
C8290 C8288 1.394 . S
C8290 C8291 1.369 . S
C8290 C8294 1.531 . S
C8291 C8290 1.369 . S
C8291 C8292 1.410 . S
C8291 C8299 1.503 . S
C8292 C8291 1.410 . S
C8292 C8293 1.392 . S
C8292 C8295 1.511 . S
C8293 C8289 1.376 . S
C8293 C8292 1.392 . S
C8293 H8305 0.929 . S
C8294 C8290 1.531 . S
C8294 H8306 0.960 . S
C8294 H8307 0.962 . S
C8294 H8308 0.960 . S
C8295 C8292 1.511 . S
C8295 H8309 0.961 . S
C8295 H8310 0.961 . S
C8295 H8311 0.961 . S
C8296 C8297 1.370 . S
C8296 C8298 1.363 . S
C8296 H8312 0.931 . S
C8297 C8296 1.370 . S
C8297 C8301 1.408 . S
C8298 C8296 1.363 . S
C8298 C8299 1.370 . S
C8298 C8302 1.524 . S
C8299 C8291 1.503 . S
C8299 C8298 1.370 . S
C8299 C8300 1.403 . S
C8300 C8299 1.403 . S
C8300 C8301 1.404 . S
C8300 C8303 1.539 . S
C8301 C8297 1.408 . S
C8301 C8300 1.404 . S
C8301 H8313 0.930 . S
C8302 C8298 1.524 . S
C8302 H8314 0.956 . S
C8302 H8315 0.961 . S
C8302 H8316 0.961 . S
C8303 C8300 1.539 . S
C8303 H8317 0.958 . S
C8303 H8318 0.961 . S
C8303 H8319 0.960 . S
H8304 C8288 0.931 . S
H8305 C8293 0.929 . S
H8306 C8294 0.960 . S
H8307 C8294 0.962 . S
H8308 C8294 0.960 . S
H8309 C8295 0.961 . S
H8310 C8295 0.961 . S
H8311 C8295 0.961 . S
H8312 C8296 0.931 . S
H8313 C8301 0.930 . S
H8314 C8302 0.956 . S
H8315 C8302 0.961 . S
H8316 C8302 0.961 . S
H8317 C8303 0.958 . S
H8318 C8303 0.961 . S
H8319 C8303 0.960 . S
C8320 C8321 1.391 . S
C8320 C8322 1.394 . S
C8320 H8336 0.931 . S
C8321 C8320 1.391 . S
C8321 C8325 1.376 . S
C8322 C8320 1.394 . S
C8322 C8323 1.369 . S
C8322 C8326 1.531 . S
C8323 C8322 1.369 . S
C8323 C8324 1.410 . S
C8323 C8331 1.503 . S
C8324 C8323 1.410 . S
C8324 C8325 1.392 . S
C8324 C8327 1.511 . S
C8325 C8321 1.376 . S
C8325 C8324 1.392 . S
C8325 H8337 0.929 . S
C8326 C8322 1.531 . S
C8326 H8338 0.960 . S
C8326 H8339 0.962 . S
C8326 H8340 0.960 . S
C8327 C8324 1.511 . S
C8327 H8341 0.961 . S
C8327 H8342 0.961 . S
C8327 H8343 0.961 . S
C8328 C8329 1.370 . S
C8328 C8330 1.363 . S
C8328 H8344 0.931 . S
C8329 C8328 1.370 . S
C8329 C8333 1.408 . S
C8330 C8328 1.363 . S
C8330 C8331 1.370 . S
C8330 C8334 1.524 . S
C8331 C8323 1.503 . S
C8331 C8330 1.370 . S
C8331 C8332 1.403 . S
C8332 C8331 1.403 . S
C8332 C8333 1.404 . S
C8332 C8335 1.539 . S
C8333 C8329 1.408 . S
C8333 C8332 1.404 . S
C8333 H8345 0.930 . S
C8334 C8330 1.524 . S
C8334 H8346 0.956 . S
C8334 H8347 0.961 . S
C8334 H8348 0.961 . S
C8335 C8332 1.539 . S
C8335 H8349 0.958 . S
C8335 H8350 0.961 . S
C8335 H8351 0.960 . S
H8336 C8320 0.931 . S
H8337 C8325 0.929 . S
H8338 C8326 0.960 . S
H8339 C8326 0.962 . S
H8340 C8326 0.960 . S
H8341 C8327 0.961 . S
H8342 C8327 0.961 . S
H8343 C8327 0.961 . S
H8344 C8328 0.931 . S
H8345 C8333 0.930 . S
H8346 C8334 0.956 . S
H8347 C8334 0.961 . S
H8348 C8334 0.961 . S
H8349 C8335 0.958 . S
H8350 C8335 0.961 . S
H8351 C8335 0.960 . S
C8352 C8353 1.391 . S
C8352 C8354 1.394 . S
C8352 H8368 0.931 . S
C8353 C8352 1.391 . S
C8353 C8357 1.376 . S
C8354 C8352 1.394 . S
C8354 C8355 1.369 . S
C8354 C8358 1.531 . S
C8355 C8354 1.369 . S
C8355 C8356 1.410 . S
C8355 C8363 1.503 . S
C8356 C8355 1.410 . S
C8356 C8357 1.392 . S
C8356 C8359 1.511 . S
C8357 C8353 1.376 . S
C8357 C8356 1.392 . S
C8357 H8369 0.929 . S
C8358 C8354 1.531 . S
C8358 H8370 0.960 . S
C8358 H8371 0.962 . S
C8358 H8372 0.960 . S
C8359 C8356 1.511 . S
C8359 H8373 0.961 . S
C8359 H8374 0.961 . S
C8359 H8375 0.961 . S
C8360 C8361 1.370 . S
C8360 C8362 1.363 . S
C8360 H8376 0.931 . S
C8361 C8360 1.370 . S
C8361 C8365 1.408 . S
C8362 C8360 1.363 . S
C8362 C8363 1.370 . S
C8362 C8366 1.524 . S
C8363 C8355 1.503 . S
C8363 C8362 1.370 . S
C8363 C8364 1.403 . S
C8364 C8363 1.403 . S
C8364 C8365 1.404 . S
C8364 C8367 1.539 . S
C8365 C8361 1.408 . S
C8365 C8364 1.404 . S
C8365 H8377 0.930 . S
C8366 C8362 1.524 . S
C8366 H8378 0.956 . S
C8366 H8379 0.961 . S
C8366 H8380 0.961 . S
C8367 C8364 1.539 . S
C8367 H8381 0.958 . S
C8367 H8382 0.961 . S
C8367 H8383 0.960 . S
H8368 C8352 0.931 . S
H8369 C8357 0.929 . S
H8370 C8358 0.960 . S
H8371 C8358 0.962 . S
H8372 C8358 0.960 . S
H8373 C8359 0.961 . S
H8374 C8359 0.961 . S
H8375 C8359 0.961 . S
H8376 C8360 0.931 . S
H8377 C8365 0.930 . S
H8378 C8366 0.956 . S
H8379 C8366 0.961 . S
H8380 C8366 0.961 . S
H8381 C8367 0.958 . S
H8382 C8367 0.961 . S
H8383 C8367 0.960 . S
C8384 C8385 1.391 . S
C8384 C8386 1.394 . S
C8384 H8400 0.931 . S
C8385 C8384 1.391 . S
C8385 C8389 1.376 . S
C8386 C8384 1.394 . S
C8386 C8387 1.369 . S
C8386 C8390 1.531 . S
C8387 C8386 1.369 . S
C8387 C8388 1.410 . S
C8387 C8395 1.503 . S
C8388 C8387 1.410 . S
C8388 C8389 1.392 . S
C8388 C8391 1.511 . S
C8389 C8385 1.376 . S
C8389 C8388 1.392 . S
C8389 H8401 0.929 . S
C8390 C8386 1.531 . S
C8390 H8402 0.960 . S
C8390 H8403 0.962 . S
C8390 H8404 0.960 . S
C8391 C8388 1.511 . S
C8391 H8405 0.961 . S
C8391 H8406 0.961 . S
C8391 H8407 0.961 . S
C8392 C8393 1.370 . S
C8392 C8394 1.363 . S
C8392 H8408 0.931 . S
C8393 C8392 1.370 . S
C8393 C8397 1.408 . S
C8394 C8392 1.363 . S
C8394 C8395 1.370 . S
C8394 C8398 1.524 . S
C8395 C8387 1.503 . S
C8395 C8394 1.370 . S
C8395 C8396 1.403 . S
C8396 C8395 1.403 . S
C8396 C8397 1.404 . S
C8396 C8399 1.539 . S
C8397 C8393 1.408 . S
C8397 C8396 1.404 . S
C8397 H8409 0.930 . S
C8398 C8394 1.524 . S
C8398 H8410 0.956 . S
C8398 H8411 0.961 . S
C8398 H8412 0.961 . S
C8399 C8396 1.539 . S
C8399 H8413 0.958 . S
C8399 H8414 0.961 . S
C8399 H8415 0.960 . S
H8400 C8384 0.931 . S
H8401 C8389 0.929 . S
H8402 C8390 0.960 . S
H8403 C8390 0.962 . S
H8404 C8390 0.960 . S
H8405 C8391 0.961 . S
H8406 C8391 0.961 . S
H8407 C8391 0.961 . S
H8408 C8392 0.931 . S
H8409 C8397 0.930 . S
H8410 C8398 0.956 . S
H8411 C8398 0.961 . S
H8412 C8398 0.961 . S
H8413 C8399 0.958 . S
H8414 C8399 0.961 . S
H8415 C8399 0.960 . S
C8416 C8417 1.391 . S
C8416 C8418 1.394 . S
C8416 H8432 0.931 . S
C8417 C8416 1.391 . S
C8417 C8421 1.376 . S
C8418 C8416 1.394 . S
C8418 C8419 1.369 . S
C8418 C8422 1.531 . S
C8419 C8418 1.369 . S
C8419 C8420 1.410 . S
C8419 C8427 1.503 . S
C8420 C8419 1.410 . S
C8420 C8421 1.392 . S
C8420 C8423 1.511 . S
C8421 C8417 1.376 . S
C8421 C8420 1.392 . S
C8421 H8433 0.929 . S
C8422 C8418 1.531 . S
C8422 H8434 0.960 . S
C8422 H8435 0.962 . S
C8422 H8436 0.960 . S
C8423 C8420 1.511 . S
C8423 H8437 0.961 . S
C8423 H8438 0.961 . S
C8423 H8439 0.961 . S
C8424 C8425 1.370 . S
C8424 C8426 1.363 . S
C8424 H8440 0.931 . S
C8425 C8424 1.370 . S
C8425 C8429 1.408 . S
C8426 C8424 1.363 . S
C8426 C8427 1.370 . S
C8426 C8430 1.524 . S
C8427 C8419 1.503 . S
C8427 C8426 1.370 . S
C8427 C8428 1.403 . S
C8428 C8427 1.403 . S
C8428 C8429 1.404 . S
C8428 C8431 1.539 . S
C8429 C8425 1.408 . S
C8429 C8428 1.404 . S
C8429 H8441 0.930 . S
C8430 C8426 1.524 . S
C8430 H8442 0.956 . S
C8430 H8443 0.961 . S
C8430 H8444 0.961 . S
C8431 C8428 1.539 . S
C8431 H8445 0.958 . S
C8431 H8446 0.961 . S
C8431 H8447 0.960 . S
H8432 C8416 0.931 . S
H8433 C8421 0.929 . S
H8434 C8422 0.960 . S
H8435 C8422 0.962 . S
H8436 C8422 0.960 . S
H8437 C8423 0.961 . S
H8438 C8423 0.961 . S
H8439 C8423 0.961 . S
H8440 C8424 0.931 . S
H8441 C8429 0.930 . S
H8442 C8430 0.956 . S
H8443 C8430 0.961 . S
H8444 C8430 0.961 . S
H8445 C8431 0.958 . S
H8446 C8431 0.961 . S
H8447 C8431 0.960 . S
C8448 C8449 1.391 . S
C8448 C8450 1.394 . S
C8448 H8464 0.931 . S
C8449 C8448 1.391 . S
C8449 C8453 1.376 . S
C8450 C8448 1.394 . S
C8450 C8451 1.369 . S
C8450 C8454 1.531 . S
C8451 C8450 1.369 . S
C8451 C8452 1.410 . S
C8451 C8459 1.503 . S
C8452 C8451 1.410 . S
C8452 C8453 1.392 . S
C8452 C8455 1.511 . S
C8453 C8449 1.376 . S
C8453 C8452 1.392 . S
C8453 H8465 0.929 . S
C8454 C8450 1.531 . S
C8454 H8466 0.960 . S
C8454 H8467 0.962 . S
C8454 H8468 0.960 . S
C8455 C8452 1.511 . S
C8455 H8469 0.961 . S
C8455 H8470 0.961 . S
C8455 H8471 0.961 . S
C8456 C8457 1.370 . S
C8456 C8458 1.363 . S
C8456 H8472 0.931 . S
C8457 C8456 1.370 . S
C8457 C8461 1.408 . S
C8458 C8456 1.363 . S
C8458 C8459 1.370 . S
C8458 C8462 1.524 . S
C8459 C8451 1.503 . S
C8459 C8458 1.370 . S
C8459 C8460 1.403 . S
C8460 C8459 1.403 . S
C8460 C8461 1.404 . S
C8460 C8463 1.539 . S
C8461 C8457 1.408 . S
C8461 C8460 1.404 . S
C8461 H8473 0.930 . S
C8462 C8458 1.524 . S
C8462 H8474 0.956 . S
C8462 H8475 0.961 . S
C8462 H8476 0.961 . S
C8463 C8460 1.539 . S
C8463 H8477 0.958 . S
C8463 H8478 0.961 . S
C8463 H8479 0.960 . S
H8464 C8448 0.931 . S
H8465 C8453 0.929 . S
H8466 C8454 0.960 . S
H8467 C8454 0.962 . S
H8468 C8454 0.960 . S
H8469 C8455 0.961 . S
H8470 C8455 0.961 . S
H8471 C8455 0.961 . S
H8472 C8456 0.931 . S
H8473 C8461 0.930 . S
H8474 C8462 0.956 . S
H8475 C8462 0.961 . S
H8476 C8462 0.961 . S
H8477 C8463 0.958 . S
H8478 C8463 0.961 . S
H8479 C8463 0.960 . S
C8480 C8481 1.391 . S
C8480 C8482 1.394 . S
C8480 H8496 0.931 . S
C8481 C8480 1.391 . S
C8481 C8485 1.376 . S
C8482 C8480 1.394 . S
C8482 C8483 1.369 . S
C8482 C8486 1.531 . S
C8483 C8482 1.369 . S
C8483 C8484 1.410 . S
C8483 C8491 1.503 . S
C8484 C8483 1.410 . S
C8484 C8485 1.392 . S
C8484 C8487 1.511 . S
C8485 C8481 1.376 . S
C8485 C8484 1.392 . S
C8485 H8497 0.929 . S
C8486 C8482 1.531 . S
C8486 H8498 0.960 . S
C8486 H8499 0.962 . S
C8486 H8500 0.960 . S
C8487 C8484 1.511 . S
C8487 H8501 0.961 . S
C8487 H8502 0.961 . S
C8487 H8503 0.961 . S
C8488 C8489 1.370 . S
C8488 C8490 1.363 . S
C8488 H8504 0.931 . S
C8489 C8488 1.370 . S
C8489 C8493 1.408 . S
C8490 C8488 1.363 . S
C8490 C8491 1.370 . S
C8490 C8494 1.524 . S
C8491 C8483 1.503 . S
C8491 C8490 1.370 . S
C8491 C8492 1.403 . S
C8492 C8491 1.403 . S
C8492 C8493 1.404 . S
C8492 C8495 1.539 . S
C8493 C8489 1.408 . S
C8493 C8492 1.404 . S
C8493 H8505 0.930 . S
C8494 C8490 1.524 . S
C8494 H8506 0.956 . S
C8494 H8507 0.961 . S
C8494 H8508 0.961 . S
C8495 C8492 1.539 . S
C8495 H8509 0.958 . S
C8495 H8510 0.961 . S
C8495 H8511 0.960 . S
H8496 C8480 0.931 . S
H8497 C8485 0.929 . S
H8498 C8486 0.960 . S
H8499 C8486 0.962 . S
H8500 C8486 0.960 . S
H8501 C8487 0.961 . S
H8502 C8487 0.961 . S
H8503 C8487 0.961 . S
H8504 C8488 0.931 . S
H8505 C8493 0.930 . S
H8506 C8494 0.956 . S
H8507 C8494 0.961 . S
H8508 C8494 0.961 . S
H8509 C8495 0.958 . S
H8510 C8495 0.961 . S
H8511 C8495 0.960 . S
C8512 C8513 1.391 . S
C8512 C8514 1.394 . S
C8512 H8528 0.931 . S
C8513 C8512 1.391 . S
C8513 C8517 1.376 . S
C8514 C8512 1.394 . S
C8514 C8515 1.369 . S
C8514 C8518 1.531 . S
C8515 C8514 1.369 . S
C8515 C8516 1.410 . S
C8515 C8523 1.503 . S
C8516 C8515 1.410 . S
C8516 C8517 1.392 . S
C8516 C8519 1.511 . S
C8517 C8513 1.376 . S
C8517 C8516 1.392 . S
C8517 H8529 0.929 . S
C8518 C8514 1.531 . S
C8518 H8530 0.960 . S
C8518 H8531 0.962 . S
C8518 H8532 0.960 . S
C8519 C8516 1.511 . S
C8519 H8533 0.961 . S
C8519 H8534 0.961 . S
C8519 H8535 0.961 . S
C8520 C8521 1.370 . S
C8520 C8522 1.363 . S
C8520 H8536 0.931 . S
C8521 C8520 1.370 . S
C8521 C8525 1.408 . S
C8522 C8520 1.363 . S
C8522 C8523 1.370 . S
C8522 C8526 1.524 . S
C8523 C8515 1.503 . S
C8523 C8522 1.370 . S
C8523 C8524 1.403 . S
C8524 C8523 1.403 . S
C8524 C8525 1.404 . S
C8524 C8527 1.539 . S
C8525 C8521 1.408 . S
C8525 C8524 1.404 . S
C8525 H8537 0.930 . S
C8526 C8522 1.524 . S
C8526 H8538 0.956 . S
C8526 H8539 0.961 . S
C8526 H8540 0.961 . S
C8527 C8524 1.539 . S
C8527 H8541 0.958 . S
C8527 H8542 0.961 . S
C8527 H8543 0.960 . S
H8528 C8512 0.931 . S
H8529 C8517 0.929 . S
H8530 C8518 0.960 . S
H8531 C8518 0.962 . S
H8532 C8518 0.960 . S
H8533 C8519 0.961 . S
H8534 C8519 0.961 . S
H8535 C8519 0.961 . S
H8536 C8520 0.931 . S
H8537 C8525 0.930 . S
H8538 C8526 0.956 . S
H8539 C8526 0.961 . S
H8540 C8526 0.961 . S
H8541 C8527 0.958 . S
H8542 C8527 0.961 . S
H8543 C8527 0.960 . S
C8544 C8545 1.391 . S
C8544 C8546 1.394 . S
C8544 H8560 0.931 . S
C8545 C8544 1.391 . S
C8545 C8549 1.376 . S
C8546 C8544 1.394 . S
C8546 C8547 1.369 . S
C8546 C8550 1.531 . S
C8547 C8546 1.369 . S
C8547 C8548 1.410 . S
C8547 C8555 1.503 . S
C8548 C8547 1.410 . S
C8548 C8549 1.392 . S
C8548 C8551 1.511 . S
C8549 C8545 1.376 . S
C8549 C8548 1.392 . S
C8549 H8561 0.929 . S
C8550 C8546 1.531 . S
C8550 H8562 0.960 . S
C8550 H8563 0.962 . S
C8550 H8564 0.960 . S
C8551 C8548 1.511 . S
C8551 H8565 0.961 . S
C8551 H8566 0.961 . S
C8551 H8567 0.961 . S
C8552 C8553 1.370 . S
C8552 C8554 1.363 . S
C8552 H8568 0.931 . S
C8553 C8552 1.370 . S
C8553 C8557 1.408 . S
C8554 C8552 1.363 . S
C8554 C8555 1.370 . S
C8554 C8558 1.524 . S
C8555 C8547 1.503 . S
C8555 C8554 1.370 . S
C8555 C8556 1.403 . S
C8556 C8555 1.403 . S
C8556 C8557 1.404 . S
C8556 C8559 1.539 . S
C8557 C8553 1.408 . S
C8557 C8556 1.404 . S
C8557 H8569 0.930 . S
C8558 C8554 1.524 . S
C8558 H8570 0.956 . S
C8558 H8571 0.961 . S
C8558 H8572 0.961 . S
C8559 C8556 1.539 . S
C8559 H8573 0.958 . S
C8559 H8574 0.961 . S
C8559 H8575 0.960 . S
H8560 C8544 0.931 . S
H8561 C8549 0.929 . S
H8562 C8550 0.960 . S
H8563 C8550 0.962 . S
H8564 C8550 0.960 . S
H8565 C8551 0.961 . S
H8566 C8551 0.961 . S
H8567 C8551 0.961 . S
H8568 C8552 0.931 . S
H8569 C8557 0.930 . S
H8570 C8558 0.956 . S
H8571 C8558 0.961 . S
H8572 C8558 0.961 . S
H8573 C8559 0.958 . S
H8574 C8559 0.961 . S
H8575 C8559 0.960 . S
C8576 C8577 1.391 . S
C8576 C8578 1.394 . S
C8576 H8592 0.931 . S
C8577 C8576 1.391 . S
C8577 C8581 1.376 . S
C8578 C8576 1.394 . S
C8578 C8579 1.369 . S
C8578 C8582 1.531 . S
C8579 C8578 1.369 . S
C8579 C8580 1.410 . S
C8579 C8587 1.503 . S
C8580 C8579 1.410 . S
C8580 C8581 1.392 . S
C8580 C8583 1.511 . S
C8581 C8577 1.376 . S
C8581 C8580 1.392 . S
C8581 H8593 0.929 . S
C8582 C8578 1.531 . S
C8582 H8594 0.960 . S
C8582 H8595 0.962 . S
C8582 H8596 0.960 . S
C8583 C8580 1.511 . S
C8583 H8597 0.961 . S
C8583 H8598 0.961 . S
C8583 H8599 0.961 . S
C8584 C8585 1.370 . S
C8584 C8586 1.363 . S
C8584 H8600 0.931 . S
C8585 C8584 1.370 . S
C8585 C8589 1.408 . S
C8586 C8584 1.363 . S
C8586 C8587 1.370 . S
C8586 C8590 1.524 . S
C8587 C8579 1.503 . S
C8587 C8586 1.370 . S
C8587 C8588 1.403 . S
C8588 C8587 1.403 . S
C8588 C8589 1.404 . S
C8588 C8591 1.539 . S
C8589 C8585 1.408 . S
C8589 C8588 1.404 . S
C8589 H8601 0.930 . S
C8590 C8586 1.524 . S
C8590 H8602 0.956 . S
C8590 H8603 0.961 . S
C8590 H8604 0.961 . S
C8591 C8588 1.539 . S
C8591 H8605 0.958 . S
C8591 H8606 0.961 . S
C8591 H8607 0.960 . S
H8592 C8576 0.931 . S
H8593 C8581 0.929 . S
H8594 C8582 0.960 . S
H8595 C8582 0.962 . S
H8596 C8582 0.960 . S
H8597 C8583 0.961 . S
H8598 C8583 0.961 . S
H8599 C8583 0.961 . S
H8600 C8584 0.931 . S
H8601 C8589 0.930 . S
H8602 C8590 0.956 . S
H8603 C8590 0.961 . S
H8604 C8590 0.961 . S
H8605 C8591 0.958 . S
H8606 C8591 0.961 . S
H8607 C8591 0.960 . S
C8608 C8609 1.391 . S
C8608 C8610 1.394 . S
C8608 H8624 0.931 . S
C8609 C8608 1.391 . S
C8609 C8613 1.376 . S
C8610 C8608 1.394 . S
C8610 C8611 1.369 . S
C8610 C8614 1.531 . S
C8611 C8610 1.369 . S
C8611 C8612 1.410 . S
C8611 C8619 1.503 . S
C8612 C8611 1.410 . S
C8612 C8613 1.392 . S
C8612 C8615 1.511 . S
C8613 C8609 1.376 . S
C8613 C8612 1.392 . S
C8613 H8625 0.929 . S
C8614 C8610 1.531 . S
C8614 H8626 0.960 . S
C8614 H8627 0.962 . S
C8614 H8628 0.960 . S
C8615 C8612 1.511 . S
C8615 H8629 0.961 . S
C8615 H8630 0.961 . S
C8615 H8631 0.961 . S
C8616 C8617 1.370 . S
C8616 C8618 1.363 . S
C8616 H8632 0.931 . S
C8617 C8616 1.370 . S
C8617 C8621 1.408 . S
C8618 C8616 1.363 . S
C8618 C8619 1.370 . S
C8618 C8622 1.524 . S
C8619 C8611 1.503 . S
C8619 C8618 1.370 . S
C8619 C8620 1.403 . S
C8620 C8619 1.403 . S
C8620 C8621 1.404 . S
C8620 C8623 1.539 . S
C8621 C8617 1.408 . S
C8621 C8620 1.404 . S
C8621 H8633 0.930 . S
C8622 C8618 1.524 . S
C8622 H8634 0.956 . S
C8622 H8635 0.961 . S
C8622 H8636 0.961 . S
C8623 C8620 1.539 . S
C8623 H8637 0.958 . S
C8623 H8638 0.961 . S
C8623 H8639 0.960 . S
H8624 C8608 0.931 . S
H8625 C8613 0.929 . S
H8626 C8614 0.960 . S
H8627 C8614 0.962 . S
H8628 C8614 0.960 . S
H8629 C8615 0.961 . S
H8630 C8615 0.961 . S
H8631 C8615 0.961 . S
H8632 C8616 0.931 . S
H8633 C8621 0.930 . S
H8634 C8622 0.956 . S
H8635 C8622 0.961 . S
H8636 C8622 0.961 . S
H8637 C8623 0.958 . S
H8638 C8623 0.961 . S
H8639 C8623 0.960 . S
C4033 C56 3.379 . S
C4041 C392 3.373 . S
C4065 C140 3.389 . S
C4073 C476 3.387 . S
C4097 C560 3.247 . S
C4105 C234 3.289 . S
C4129 C654 3.346 1_554 S
C4137 C308 3.306 . S
C4161 C728 3.369 . S
C4169 C822 3.408 . S
C4193 C812 3.292 . S
C4201 C906 3.326 . S
C4225 C990 3.319 . S
C4233 C896 3.293 . S
C4257 C980 3.364 1_545 S
C4265 C738 3.404 . S
C4289 C1074 3.259 . S
C4297 C318 3.269 . S
C4321 C644 3.212 . S
C4329 C2838 3.246 . S
C4353 C402 3.251 . S
C4361 C1158 3.262 1_455 S
C4385 C486 3.248 . S
C4393 C2912 3.226 . S
C4417 C150 3.291 . S
C4425 C1242 3.286 . S
C4449 C2660 3.227 . S
C4457 C66 3.275 . S
C4481 C2586 3.292 . S
C4489 C224 3.245 . S
C4513 C1663 3.376 . S
C4521 C1327 3.379 . S
C4545 C1411 3.362 . S
C4553 C1747 3.377 . S
C4577 C1503 3.272 . S
C4585 C1831 3.243 . S
C4609 C1579 3.289 1_554 S
C4617 C1923 3.345 . S
C4641 C2091 3.396 . S
C4649 C1999 3.358 . S
C4673 C2083 3.288 . S
C4681 C2175 3.327 1_565 S
C4705 C2259 3.320 . S
C4713 C2167 3.283 . S
C4737 C2007 3.396 . S
C4745 C2251 3.371 . S
C4769 C1587 3.264 . S
C4777 C2343 3.266 . S
C4801 C3603 3.240 . S
C4809 C1915 3.198 . S
C4833 C2427 3.256 . S
C4841 C1671 3.272 . S
C4865 C1755 3.252 . S
C4873 C3679 3.230 . S
C4897 C2511 3.279 . S
C4905 C1419 3.290 . S
C4929 C1335 3.253 . S
C4937 C3427 3.220 1_655 S
C4961 C1495 3.259 . S
C4969 C3351 3.290 . S
C4993 C2744 3.373 . S
C5001 C2576 3.380 . S
C5025 C2828 3.442 . S
C5033 C1064 3.438 . S
C5057 C2670 3.341 . S
C5065 C1148 3.298 . S
C5089 C2922 3.341 . S
C5097 C1232 3.317 . S
C5121 C2996 3.409 . S
C5129 C3080 3.420 . S
C5153 C3090 3.249 . S
C5161 C3174 3.263 . S
C5185 C3258 3.313 . S
C5193 C3164 3.287 . S
C5217 C3006 3.403 . S
C5225 C3248 3.367 . S
C5249 C570 3.283 . S
C5257 C2754 3.279 . S
C5281 C3511 3.364 . S
C5289 C3343 3.374 . S
C5313 C3595 3.435 . S
C5321 C2335 3.436 . S
C5345 C2419 3.298 . S
C5353 C3435 3.333 . S
C5377 C3687 3.356 . S
C5385 C2503 3.310 . S
C5409 C3763 3.434 . S
C5417 C3847 3.430 . S
C5441 C3855 3.264 . S
C5449 C3939 3.257 . S
C5473 C3931 3.290 . S
C5481 C4023 3.324 . S
C5505 C4015 3.366 . S
C5513 C3771 3.408 . S
C5537 C3519 3.271 . S
C5545 C1839 3.283 . S
C5569 C67 0.667 . S
C5577 C1407 0.798 . S
C5601 C3432 0.891 . S
C5609 C151 0.782 . S
C5633 C243 0.829 . S
C5641 C1575 0.737 . S
C5665 C319 0.774 . S
C5673 C3339 0.799 . S
C5697 C403 0.727 . S
C5705 C1920 0.851 . S
C5729 C487 0.739 . S
C5737 C3507 0.761 . S
C5761 C571 0.726 . S
C5769 C1743 0.792 . S
C5793 C2415 0.675 . S
C5801 C663 0.778 . S
C5825 C739 0.870 . S
C5833 C3348 0.774 . S
C5857 C823 0.871 . S
C5865 C1416 0.767 . S
C5889 C907 0.698 . S
C5897 C3423 0.775 . S
C5921 C1584 0.862 . S
C5929 C991 0.821 . S
C5953 C3516 0.666 . S
C5961 C999 0.737 . S
C5985 C1752 0.813 . S
C5993 C747 0.786 . S
C6017 C831 0.819 . S
C6025 C2424 0.758 . S
C6049 C1911 0.676 . S
C6057 C915 0.703 . S
C6081 C3768 0.662 . S
C6089 C1083 0.699 . S
C6113 C2247 0.851 . S
C6121 C655 0.724 . S
C6145 C411 0.716 . S
C6153 C3759 0.760 . S
C6177 C495 0.618 . S
C6185 C2079 0.740 . S
C6209 C1167 0.775 . S
C6217 C2163 0.703 . S
C6241 C3936 0.845 . S
C6249 C1251 0.771 . S
C6273 C75 0.778 . S
C6281 C4020 0.708 . S
C6305 C235 0.763 . S
C6313 C3843 0.796 . S
C6337 C156 0.660 . S
C6345 C1316 0.781 . S
C6369 C1400 0.855 . S
C6377 C2667 0.852 . S
C6401 C1494 0.817 . S
C6409 C324 0.729 . S
C6433 C1568 0.689 . S
C6441 C2592 0.808 . S
C6465 C651 0.879 . S
C6473 C1652 0.787 . S
C6497 C2760 0.845 . S
C6505 C1736 0.775 . S
C6529 C492 0.856 . S
C6537 C1820 0.752 . S
C6561 C1914 0.736 . S
C6569 C1164 0.789 . S
C6593 C1988 0.682 . S
C6601 C2583 0.787 . S
C6625 C147 0.794 . S
C6633 C2072 0.741 . S
C6657 C2156 0.760 . S
C6665 C2676 0.800 . S
C6689 C315 0.872 . S
C6697 C2240 0.825 . S
C6721 C2751 0.827 . S
C6729 C2250 0.762 . S
C6753 C1998 0.839 . S
C6761 C483 0.779 . S
C6785 C2082 0.813 . S
C6793 C1155 0.765 . S
C6817 C660 0.763 . S
C6825 C2166 0.768 . S
C6849 C2334 0.771 . S
C6857 C3003 0.718 . S
C6881 C996 0.668 . S
C6889 C1904 0.796 . S
C6913 C3012 0.742 . S
C6921 C1662 0.744 . S
C6945 C1746 0.752 . S
C6953 C828 0.681 . S
C6977 C2418 0.691 . S
C6985 C912 0.706 . S
C7009 C3171 0.863 . S
C7017 C2502 0.816 . S
C7041 C1326 0.698 . S
C7049 C3255 0.696 . S
C7073 C3096 0.864 . S
C7081 C1484 0.743 . S
C7105 C2331 0.728 . S
C7113 C2587 0.750 . S
C7137 C1075 0.809 . S
C7145 C1500 0.848 . S
C7169 C2499 0.800 . S
C7177 C2679 0.771 . S
C7201 C1243 0.806 . S
C7209 C1323 0.792 . S
C7233 C2755 0.899 . S
C7241 C3684 0.806 . S
C7265 C1659 0.695 . S
C7273 C2839 0.773 . S
C7297 C1159 0.690 . S
C7305 C3591 0.813 . S
C7329 C1827 0.708 . S
C7337 C2931 0.785 . S
C7361 C3007 0.687 . S
C7369 C1332 0.778 . S
C7393 C3099 0.702 . S
C7401 C2340 0.758 . S
C7425 C3175 0.784 . S
C7433 C1491 0.809 . S
C7457 C2508 0.878 . S
C7465 C3259 0.771 . S
C7489 C1668 0.828 . S
C7497 C3267 0.750 . S
C7521 C3015 0.804 . S
C7529 C3600 0.748 . S
C7553 C1836 0.898 . S
C7561 C3091 0.825 . S
C7585 C3183 0.803 . S
C7593 C3675 0.707 . S
C7617 C159 0.654 . S
C7625 C2004 0.723 . S
C7649 C4011 0.839 . S
C7657 C2923 0.746 . S
C7681 C2763 0.659 . S
C7689 C1995 0.687 . S
C7713 C2847 0.816 . S
C7721 C3852 0.734 . S
C7745 C3927 0.782 . S
C7753 C579 0.713 . S
C7777 C2172 0.846 . S
C7785 C327 0.771 . S
C7809 C2595 0.831 . S
C7817 C2256 0.761 . S
C7841 C2088 0.834 . S
C7849 C2671 0.756 . S
C7873 C1080 0.835 . S
C7881 C3332 0.720 . S
C7905 C2324 0.879 . S
C7913 C231 0.835 . S
C7937 C1248 0.637 . S
C7945 C3426 0.731 . S
C7969 C2492 0.816 . S
C7977 C72 0.799 . S
C8001 C3500 0.871 . S
C8009 C2919 0.801 . S
C8033 C408 0.792 . S
C8041 C3584 0.728 . S
C8065 C2844 0.840 . S
C8073 C2408 0.795 . S
C8097 C576 0.675 . S
C8105 C3678 0.719 . S
C8129 C63 0.860 . S
C8137 C3752 0.775 . S
C8161 C3846 0.768 . S
C8169 C1071 0.717 . S
C8193 C240 0.689 . S
C8201 C3920 0.801 . S
C8225 C1239 0.776 . S
C8233 C4004 0.839 . S
C8257 C399 0.673 . S
C8265 C4014 0.710 . S
C8289 C2835 0.754 . S
C8297 C3762 0.757 . S
C8321 C3836 0.879 . S
C8329 C567 0.808 . S
C8353 C2928 0.747 . S
C8361 C3930 0.699 . S
C8385 C735 0.660 . S
C8393 C1410 0.713 . S
C8417 C3668 0.849 . S
C8425 C3264 0.740 . S
C8449 C3510 0.653 . S
C8457 C744 0.680 . S
C8481 C3087 0.670 . S
C8489 C3594 0.684 . S
C8513 C1830 0.712 . S
C8521 C3180 0.709 . S
C8545 C1578 0.845 . S
C8553 C903 0.818 . S
C8577 C987 0.734 . S
C8585 C3342 0.766 . S
C8609 C819 0.800 . S
C8617 C3416 0.756 . S
