# Generated by pormake.
# Topology wjr, (5)-cn, num edge types: 1
# Building blocks:
#     Node 0, Type 0, BuildingBlock: BEQFEK_clean_sbu_0, # of connection points: 5
#     Node 1, Type 0, BuildingBlock: BEQFEK_clean_sbu_0, # of connection points: 5
#     Node 2, Type 0, BuildingBlock: BEQFEK_clean_sbu_0, # of connection points: 5
#     Node 3, Type 0, BuildingBlock: BEQFEK_clean_sbu_0, # of connection points: 5
#     Node 4, Type 0, BuildingBlock: BEQFEK_clean_sbu_0, # of connection points: 5
#     Node 5, Type 0, BuildingBlock: BEQFEK_clean_sbu_0, # of connection points: 5
#     Node 6, Type 0, BuildingBlock: BEQFEK_clean_sbu_0, # of connection points: 5
#     Node 7, Type 0, BuildingBlock: BEQFEK_clean_sbu_0, # of connection points: 5
#     Node 8, Type 0, BuildingBlock: BEQFEK_clean_sbu_0, # of connection points: 5
#     Node 9, Type 0, BuildingBlock: BEQFEK_clean_sbu_0, # of connection points: 5
#     Node 10, Type 0, BuildingBlock: BEQFEK_clean_sbu_0, # of connection points: 5
#     Node 11, Type 0, BuildingBlock: BEQFEK_clean_sbu_0, # of connection points: 5
#     Node 12, Type 0, BuildingBlock: BEQFEK_clean_sbu_0, # of connection points: 5
#     Node 13, Type 0, BuildingBlock: BEQFEK_clean_sbu_0, # of connection points: 5
#     Node 14, Type 0, BuildingBlock: BEQFEK_clean_sbu_0, # of connection points: 5
#     Node 15, Type 0, BuildingBlock: BEQFEK_clean_sbu_0, # of connection points: 5
#     Node 16, Type 0, BuildingBlock: BEQFEK_clean_sbu_0, # of connection points: 5
#     Node 17, Type 0, BuildingBlock: BEQFEK_clean_sbu_0, # of connection points: 5
#     Node 18, Type 0, BuildingBlock: BEQFEK_clean_sbu_0, # of connection points: 5
#     Node 19, Type 0, BuildingBlock: BEQFEK_clean_sbu_0, # of connection points: 5
#     Node 20, Type 0, BuildingBlock: BEQFEK_clean_sbu_0, # of connection points: 5
#     Node 21, Type 0, BuildingBlock: BEQFEK_clean_sbu_0, # of connection points: 5
#     Node 22, Type 0, BuildingBlock: BEQFEK_clean_sbu_0, # of connection points: 5
#     Node 23, Type 0, BuildingBlock: BEQFEK_clean_sbu_0, # of connection points: 5
#     Edge 24, Type (0, 0), BuildingBlock: EZIPEK_clean_linker_0, # of connection points: 2
#     Edge 25, Type (0, 0), BuildingBlock: EZIPEK_clean_linker_0, # of connection points: 2
#     Edge 26, Type (0, 0), BuildingBlock: EZIPEK_clean_linker_0, # of connection points: 2
#     Edge 27, Type (0, 0), BuildingBlock: EZIPEK_clean_linker_0, # of connection points: 2
#     Edge 28, Type (0, 0), BuildingBlock: EZIPEK_clean_linker_0, # of connection points: 2
#     Edge 29, Type (0, 0), BuildingBlock: EZIPEK_clean_linker_0, # of connection points: 2
#     Edge 30, Type (0, 0), BuildingBlock: EZIPEK_clean_linker_0, # of connection points: 2
#     Edge 31, Type (0, 0), BuildingBlock: EZIPEK_clean_linker_0, # of connection points: 2
#     Edge 32, Type (0, 0), BuildingBlock: EZIPEK_clean_linker_0, # of connection points: 2
#     Edge 33, Type (0, 0), BuildingBlock: EZIPEK_clean_linker_0, # of connection points: 2
#     Edge 34, Type (0, 0), BuildingBlock: EZIPEK_clean_linker_0, # of connection points: 2
#     Edge 35, Type (0, 0), BuildingBlock: EZIPEK_clean_linker_0, # of connection points: 2
#     Edge 36, Type (0, 0), BuildingBlock: EZIPEK_clean_linker_0, # of connection points: 2
#     Edge 37, Type (0, 0), BuildingBlock: EZIPEK_clean_linker_0, # of connection points: 2
#     Edge 38, Type (0, 0), BuildingBlock: EZIPEK_clean_linker_0, # of connection points: 2
#     Edge 39, Type (0, 0), BuildingBlock: EZIPEK_clean_linker_0, # of connection points: 2
#     Edge 40, Type (0, 0), BuildingBlock: EZIPEK_clean_linker_0, # of connection points: 2
#     Edge 41, Type (0, 0), BuildingBlock: EZIPEK_clean_linker_0, # of connection points: 2
#     Edge 42, Type (0, 0), BuildingBlock: EZIPEK_clean_linker_0, # of connection points: 2
#     Edge 43, Type (0, 0), BuildingBlock: EZIPEK_clean_linker_0, # of connection points: 2
#     Edge 44, Type (0, 0), BuildingBlock: EZIPEK_clean_linker_0, # of connection points: 2
#     Edge 45, Type (0, 0), BuildingBlock: EZIPEK_clean_linker_0, # of connection points: 2
#     Edge 46, Type (0, 0), BuildingBlock: EZIPEK_clean_linker_0, # of connection points: 2
#     Edge 47, Type (0, 0), BuildingBlock: EZIPEK_clean_linker_0, # of connection points: 2
#     Edge 48, Type (0, 0), BuildingBlock: EZIPEK_clean_linker_0, # of connection points: 2
#     Edge 49, Type (0, 0), BuildingBlock: EZIPEK_clean_linker_0, # of connection points: 2
#     Edge 50, Type (0, 0), BuildingBlock: EZIPEK_clean_linker_0, # of connection points: 2
#     Edge 51, Type (0, 0), BuildingBlock: EZIPEK_clean_linker_0, # of connection points: 2
#     Edge 52, Type (0, 0), BuildingBlock: EZIPEK_clean_linker_0, # of connection points: 2
#     Edge 53, Type (0, 0), BuildingBlock: EZIPEK_clean_linker_0, # of connection points: 2
#     Edge 54, Type (0, 0), BuildingBlock: EZIPEK_clean_linker_0, # of connection points: 2
#     Edge 55, Type (0, 0), BuildingBlock: EZIPEK_clean_linker_0, # of connection points: 2
#     Edge 56, Type (0, 0), BuildingBlock: EZIPEK_clean_linker_0, # of connection points: 2
#     Edge 57, Type (0, 0), BuildingBlock: EZIPEK_clean_linker_0, # of connection points: 2
#     Edge 58, Type (0, 0), BuildingBlock: EZIPEK_clean_linker_0, # of connection points: 2
#     Edge 59, Type (0, 0), BuildingBlock: EZIPEK_clean_linker_0, # of connection points: 2
#     Edge 60, Type (0, 0), BuildingBlock: EZIPEK_clean_linker_0, # of connection points: 2
#     Edge 61, Type (0, 0), BuildingBlock: EZIPEK_clean_linker_0, # of connection points: 2
#     Edge 62, Type (0, 0), BuildingBlock: EZIPEK_clean_linker_0, # of connection points: 2
#     Edge 63, Type (0, 0), BuildingBlock: EZIPEK_clean_linker_0, # of connection points: 2
#     Edge 64, Type (0, 0), BuildingBlock: EZIPEK_clean_linker_0, # of connection points: 2
#     Edge 65, Type (0, 0), BuildingBlock: EZIPEK_clean_linker_0, # of connection points: 2
#     Edge 66, Type (0, 0), BuildingBlock: EZIPEK_clean_linker_0, # of connection points: 2
#     Edge 67, Type (0, 0), BuildingBlock: EZIPEK_clean_linker_0, # of connection points: 2
#     Edge 68, Type (0, 0), BuildingBlock: EZIPEK_clean_linker_0, # of connection points: 2
#     Edge 69, Type (0, 0), BuildingBlock: EZIPEK_clean_linker_0, # of connection points: 2
#     Edge 70, Type (0, 0), BuildingBlock: EZIPEK_clean_linker_0, # of connection points: 2
#     Edge 71, Type (0, 0), BuildingBlock: EZIPEK_clean_linker_0, # of connection points: 2
#     Edge 72, Type (0, 0), BuildingBlock: EZIPEK_clean_linker_0, # of connection points: 2
#     Edge 73, Type (0, 0), BuildingBlock: EZIPEK_clean_linker_0, # of connection points: 2
#     Edge 74, Type (0, 0), BuildingBlock: EZIPEK_clean_linker_0, # of connection points: 2
#     Edge 75, Type (0, 0), BuildingBlock: EZIPEK_clean_linker_0, # of connection points: 2
#     Edge 76, Type (0, 0), BuildingBlock: EZIPEK_clean_linker_0, # of connection points: 2
#     Edge 77, Type (0, 0), BuildingBlock: EZIPEK_clean_linker_0, # of connection points: 2
#     Edge 78, Type (0, 0), BuildingBlock: EZIPEK_clean_linker_0, # of connection points: 2
#     Edge 79, Type (0, 0), BuildingBlock: EZIPEK_clean_linker_0, # of connection points: 2
#     Edge 80, Type (0, 0), BuildingBlock: EZIPEK_clean_linker_0, # of connection points: 2
#     Edge 81, Type (0, 0), BuildingBlock: EZIPEK_clean_linker_0, # of connection points: 2
#     Edge 82, Type (0, 0), BuildingBlock: EZIPEK_clean_linker_0, # of connection points: 2
#     Edge 83, Type (0, 0), BuildingBlock: EZIPEK_clean_linker_0, # of connection points: 2
# Relax obj value: 0.373
# Max RMSD: 0.191
# Mean RMSD: 0.191
data_MOF--net-wjr--node1-BEQFEK_clean_sbu_0--edge1-EZIPEK_clean_linker_0
_symmetry_space_group_name_H-M    P1
_symmetry_Int_Tables_number       1
_symmetry_cell_setting            triclinic
loop_
_symmetry_equiv_pos_as_xyz
'x, y, z'
_cell_length_a     55.379868
_cell_length_b     55.371992
_cell_length_c     36.091533
_cell_angle_alpha  90.042164
_cell_angle_beta   89.994306
_cell_angle_gamma 120.01333
loop_
_atom_site_label
_atom_site_type_symbol
_atom_site_fract_x
_atom_site_fract_y
_atom_site_fract_z
_atom_type_partial_charge
Co0 Co 0.47427 0.07423 0.15983 0.0
Co1 Co 0.46222 0.11587 0.20211 0.0
C2 C 0.51388 0.11351 0.21741 0.0
O3 O 0.50676 0.09564 0.1916 0.0
O4 O 0.49885 0.12425 0.22568 0.0
C5 C 0.50801 0.06454 0.11073 0.0
O6 O 0.52112 0.09174 0.10647 0.0
C7 C 0.46712 0.16869 0.22824 0.0
C8 C 0.42275 0.15631 0.23531 0.0
C9 C 0.44958 0.17867 0.23832 0.0
N10 N 0.45133 0.14154 0.21949 0.0
N11 N 0.42484 0.13429 0.22386 0.0
C12 C 0.49825 0.18466 0.22658 0.0
H13 H 0.50576 0.17624 0.20427 0.0
H14 H 0.50602 0.20719 0.22197 0.0
H15 H 0.50667 0.18222 0.25334 0.0
C16 C 0.46232 0.09836 0.09492 0.0
N17 N 0.46541 0.09694 0.13163 0.0
N18 N 0.46268 0.11648 0.14851 0.0
C19 C 0.45871 0.13173 0.12237 0.0
C20 C 0.45844 0.12065 0.08762 0.0
C21 C 0.462 0.07815 0.06712 0.0
H22 H 0.45579 0.05781 0.08033 0.0
H23 H 0.48307 0.08678 0.05478 0.0
H24 H 0.44715 0.07483 0.0444 0.0
O25 O 0.44363 0.04888 0.19236 0.0
O26 O 0.43339 0.07789 0.22164 0.0
H27 H 0.45364 0.16614 0.10436 0.0
H28 H 0.47347 0.17182 0.14662 0.0
C29 C 0.45532 0.15633 0.13032 0.0
H30 H 0.43628 0.14961 0.14721 0.0
H31 H 0.40816 0.11432 0.21869 0.0
O32 O 0.48559 0.05253 0.12939 0.0
C33 C 0.42951 0.05338 0.21637 0.0
Co34 Co 0.40427 0.47291 0.15862 0.0
Co35 Co 0.35068 0.46085 0.20151 0.0
C36 C 0.40643 0.51314 0.21491 0.0
O37 O 0.41751 0.50661 0.18876 0.0
O38 O 0.3807 0.49765 0.22343 0.0
C39 C 0.45498 0.47816 0.13986 0.0
O40 O 0.45577 0.47582 0.17599 0.0
C41 C 0.30259 0.46673 0.22519 0.0
C42 C 0.27334 0.4237 0.24373 0.0
C43 C 0.27619 0.44982 0.23973 0.0
N44 N 0.31485 0.45121 0.22066 0.0
N45 N 0.29722 0.42554 0.23186 0.0
C46 C 0.31586 0.497 0.21591 0.0
H47 H 0.33469 0.50364 0.19854 0.0
H48 H 0.30069 0.50119 0.20129 0.0
H49 H 0.32196 0.5093 0.24198 0.0
C50 C 0.36899 0.46417 0.09429 0.0
N51 N 0.37268 0.46528 0.13115 0.0
N52 N 0.34977 0.46078 0.14803 0.0
C53 C 0.33054 0.45663 0.12178 0.0
C54 C 0.3423 0.45891 0.08687 0.0
C55 C 0.39072 0.46784 0.06668 0.0
H56 H 0.3979 0.45281 0.07279 0.0
H57 H 0.4089 0.48924 0.0691 0.0
H58 H 0.38261 0.46434 0.03799 0.0
O59 O 0.39813 0.44262 0.19267 0.0
O60 O 0.35859 0.43148 0.2213 0.0
H61 H 0.29183 0.43362 0.15065 0.0
H62 H 0.28866 0.44428 0.10421 0.0
C63 C 0.30156 0.4505 0.12975 0.0
H64 H 0.30245 0.46944 0.14143 0.0
H65 H 0.30146 0.40918 0.23122 0.0
O66 O 0.43409 0.47776 0.12501 0.0
C67 C 0.37954 0.42816 0.21643 0.0
Co68 Co 0.93142 0.40828 0.16354 0.0
Co69 Co 0.89013 0.35301 0.20356 0.0
C70 C 0.89414 0.40867 0.22229 0.0
O71 O 0.91212 0.42113 0.19687 0.0
O72 O 0.88373 0.38252 0.22828 0.0
C73 C 0.97896 0.458 0.14483 0.0
O74 O 0.98291 0.4584 0.18077 0.0
C75 C 0.83614 0.3059 0.22891 0.0
C76 C 0.84693 0.27264 0.23427 0.0
C77 C 0.82521 0.27802 0.238 0.0
N78 N 0.86316 0.3165 0.21991 0.0
N79 N 0.86943 0.29649 0.22326 0.0
C80 C 0.82132 0.32221 0.22873 0.0
H81 H 0.82622 0.33443 0.25479 0.0
H82 H 0.82882 0.33715 0.20524 0.0
H83 H 0.7984 0.30819 0.22692 0.0
C84 C 0.90374 0.37553 0.09749 0.0
N85 N 0.9066 0.378 0.1345 0.0
N86 N 0.88921 0.35413 0.15024 0.0
C87 C 0.87489 0.33539 0.12314 0.0
C88 C 0.88374 0.34846 0.08883 0.0
C89 C 0.9203 0.3987 0.07082 0.0
H90 H 0.94233 0.40361 0.07118 0.0
H91 H 0.91972 0.41763 0.07945 0.0
H92 H 0.91204 0.39304 0.04226 0.0
O93 O 0.95542 0.39993 0.19489 0.0
O94 O 0.92733 0.35963 0.22209 0.0
H95 H 0.86316 0.29532 0.14556 0.0
H96 H 0.84491 0.29425 0.10334 0.0
C97 C 0.85357 0.30557 0.12979 0.0
H98 H 0.83649 0.30467 0.1468 0.0
H99 H 0.8891 0.2991 0.21777 0.0
O100 O 0.95709 0.43822 0.13065 0.0
C101 C 0.95162 0.38056 0.21707 0.0
Co102 Co 0.53162 0.9338 0.15552 0.0
Co103 Co 0.54177 0.89177 0.20028 0.0
C104 C 0.48977 0.89636 0.21076 0.0
O105 O 0.49705 0.9139 0.18436 0.0
O106 O 0.50485 0.88591 0.22043 0.0
C107 C 0.52593 0.97825 0.13778 0.0
O108 O 0.52377 0.9774 0.17406 0.0
C109 C 0.53302 0.83701 0.22536 0.0
C110 C 0.57578 0.8487 0.24281 0.0
C111 C 0.549 0.82629 0.23955 0.0
N112 N 0.54974 0.8646 0.22018 0.0
N113 N 0.57523 0.8714 0.23076 0.0
C114 C 0.50248 0.82147 0.21722 0.0
H115 H 0.49739 0.83252 0.19566 0.0
H116 H 0.4957 0.79983 0.20821 0.0
H117 H 0.49093 0.8204 0.24287 0.0
C118 C 0.53926 0.90553 0.09241 0.0
N119 N 0.53867 0.9091 0.12913 0.0
N120 N 0.54275 0.89072 0.14684 0.0
C121 C 0.5464 0.87486 0.12129 0.0
C122 C 0.54435 0.88388 0.08602 0.0
C123 C 0.53373 0.92187 0.06404 0.0
H124 H 0.51381 0.92115 0.07057 0.0
H125 H 0.53247 0.91358 0.03575 0.0
H126 H 0.55067 0.94398 0.06501 0.0
O127 O 0.56179 0.95756 0.19029 0.0
O128 O 0.57168 0.9288 0.22037 0.0
H129 H 0.55661 0.84348 0.10517 0.0
H130 H 0.53074 0.83362 0.1412 0.0
C131 C 0.55057 0.8509 0.13018 0.0
H132 H 0.56685 0.85711 0.15179 0.0
H133 H 0.59234 0.89156 0.22949 0.0
O134 O 0.52918 0.95992 0.12129 0.0
C135 C 0.57578 0.95328 0.21465 0.0
Co136 Co 0.60153 0.53118 0.15838 0.0
Co137 Co 0.65488 0.54348 0.20227 0.0
C138 C 0.60033 0.49178 0.21679 0.0
O139 O 0.58951 0.49849 0.19058 0.0
O140 O 0.62604 0.507 0.22516 0.0
C141 C 0.55782 0.49766 0.1093 0.0
O142 O 0.56805 0.481 0.11386 0.0
C143 C 0.70233 0.53744 0.22707 0.0
C144 C 0.73271 0.58068 0.24353 0.0
C145 C 0.72899 0.55411 0.24093 0.0
N146 N 0.69078 0.5535 0.2215 0.0
N147 N 0.70905 0.57931 0.23146 0.0
C148 C 0.68804 0.50682 0.21955 0.0
H149 H 0.67056 0.50067 0.19977 0.0
H150 H 0.70311 0.50096 0.20846 0.0
H151 H 0.67955 0.4954 0.24594 0.0
C152 C 0.63861 0.54321 0.0948 0.0
N153 N 0.63371 0.53998 0.13142 0.0
N154 N 0.65595 0.54308 0.14876 0.0
C155 C 0.67557 0.54749 0.12299 0.0
C156 C 0.66501 0.54753 0.08798 0.0
C157 C 0.61896 0.54377 0.06689 0.0
H158 H 0.6064 0.55207 0.07962 0.0
H159 H 0.60491 0.52231 0.05655 0.0
H160 H 0.63057 0.55725 0.04312 0.0
O161 O 0.60666 0.5621 0.19043 0.0
O162 O 0.64561 0.57247 0.22072 0.0
H163 H 0.71442 0.56905 0.15179 0.0
H164 H 0.71676 0.55683 0.10606 0.0
C165 C 0.70384 0.55183 0.13148 0.0
H166 H 0.70156 0.53256 0.14411 0.0
H167 H 0.70541 0.59603 0.22986 0.0
O168 O 0.56991 0.52131 0.12521 0.0
C169 C 0.6251 0.5764 0.21457 0.0
Co170 Co 0.07469 0.6012 0.15694 0.0
Co171 Co 0.11474 0.65462 0.20023 0.0
C172 C 0.11607 0.60302 0.21454 0.0
O173 O 0.09571 0.59073 0.1921 0.0
O174 O 0.12813 0.62935 0.21925 0.0
C175 C 0.06534 0.55687 0.10824 0.0
O176 O 0.09248 0.56777 0.11046 0.0
C177 C 0.16536 0.70463 0.22695 0.0
C178 C 0.15001 0.73429 0.23434 0.0
C179 C 0.17361 0.73183 0.23696 0.0
N180 N 0.13806 0.69156 0.21846 0.0
N181 N 0.12901 0.7094 0.22306 0.0
C182 C 0.18309 0.69134 0.22511 0.0
H183 H 0.17917 0.67826 0.25014 0.0
H184 H 0.17729 0.6775 0.20051 0.0
H185 H 0.20558 0.70729 0.22408 0.0
C186 C 0.09868 0.63773 0.09275 0.0
N187 N 0.09712 0.6331 0.1294 0.0
N188 N 0.11531 0.65591 0.14666 0.0
C189 C 0.13008 0.67558 0.12077 0.0
C190 C 0.11989 0.66455 0.08578 0.0
C191 C 0.07902 0.6175 0.06489 0.0
H192 H 0.05856 0.60351 0.07782 0.0
H193 H 0.08788 0.60498 0.05344 0.0
H194 H 0.07577 0.62882 0.04195 0.0
O195 O 0.04762 0.60617 0.18472 0.0
O196 O 0.07582 0.64021 0.22267 0.0
H197 H 0.16278 0.71624 0.10335 0.0
H198 H 0.17019 0.70192 0.14402 0.0
C199 C 0.15384 0.704 0.12908 0.0
H200 H 0.14658 0.71519 0.14737 0.0
H201 H 0.10854 0.70465 0.21804 0.0
O202 O 0.05395 0.56879 0.12492 0.0
C203 C 0.05131 0.62136 0.2129 0.0
Co204 Co 0.93505 0.53848 0.37062 0.0
Co205 Co 0.89344 0.5475 0.32333 0.0
C206 C 0.89755 0.49467 0.31798 0.0
O207 O 0.91317 0.5018 0.34646 0.0
O208 O 0.88821 0.51013 0.30562 0.0
C209 C 0.9661 0.51757 0.40661 0.0
O210 O 0.94675 0.49344 0.3936 0.0
C211 C 0.83842 0.53828 0.29775 0.0
C212 C 0.85055 0.58046 0.27722 0.0
C213 C 0.82792 0.55402 0.2821 0.0
N214 N 0.86613 0.55482 0.30214 0.0
N215 N 0.87317 0.57996 0.28972 0.0
C216 C 0.8225 0.50816 0.30818 0.0
H217 H 0.81944 0.49534 0.28308 0.0
H218 H 0.83427 0.50338 0.32902 0.0
H219 H 0.80163 0.50263 0.31912 0.0
C220 C 0.90932 0.55083 0.43195 0.0
N221 N 0.91211 0.54831 0.39548 0.0
N222 N 0.89309 0.5509 0.37701 0.0
C223 C 0.87716 0.55498 0.402 0.0
C224 C 0.88695 0.55488 0.4376 0.0
C225 C 0.9272 0.54814 0.46087 0.0
H226 H 0.92344 0.52649 0.46082 0.0
H227 H 0.92292 0.55336 0.48884 0.0
H228 H 0.94947 0.5624 0.45417 0.0
O229 O 0.95763 0.56554 0.33246 0.0
O230 O 0.93003 0.57591 0.30042 0.0
H231 H 0.85799 0.57323 0.36987 0.0
H232 H 0.84481 0.56411 0.41684 0.0
C233 C 0.85244 0.55771 0.39237 0.0
H234 H 0.83555 0.53729 0.38223 0.0
H235 H 0.89346 0.59691 0.2901 0.0
O236 O 0.96333 0.53882 0.4035 0.0
C237 C 0.9541 0.57923 0.307 0.0
Co238 Co 0.40285 0.93254 0.36211 0.0
Co239 Co 0.34882 0.89264 0.31831 0.0
C240 C 0.40283 0.89442 0.30261 0.0
O241 O 0.41399 0.91181 0.32892 0.0
O242 O 0.37708 0.88426 0.29451 0.0
C243 C 0.44728 0.94204 0.40925 0.0
O244 O 0.43754 0.91544 0.40252 0.0
C245 C 0.29977 0.84057 0.29208 0.0
C246 C 0.26935 0.85479 0.28328 0.0
C247 C 0.2725 0.83158 0.28156 0.0
N248 N 0.31221 0.86795 0.29996 0.0
N249 N 0.29391 0.8763 0.29451 0.0
C250 C 0.31363 0.82341 0.29505 0.0
H251 H 0.33081 0.83272 0.31564 0.0
H252 H 0.29828 0.80162 0.30284 0.0
H253 H 0.3226 0.82306 0.26769 0.0
C254 C 0.36633 0.90637 0.42594 0.0
N255 N 0.37081 0.90904 0.38921 0.0
N256 N 0.34812 0.8908 0.37171 0.0
C257 C 0.32848 0.8755 0.39738 0.0
C258 C 0.33955 0.88493 0.43252 0.0
C259 C 0.38711 0.92452 0.45443 0.0
H260 H 0.39847 0.94639 0.44455 0.0
H261 H 0.40219 0.91723 0.45929 0.0
H262 H 0.37678 0.92365 0.48102 0.0
O263 O 0.3982 0.95891 0.33052 0.0
O264 O 0.35887 0.93114 0.30051 0.0
H265 H 0.28749 0.84316 0.41428 0.0
H266 H 0.30174 0.83572 0.37358 0.0
C267 C 0.29992 0.85217 0.38869 0.0
H268 H 0.28908 0.85987 0.37051 0.0
H269 H 0.2981 0.89667 0.29893 0.0
O270 O 0.43468 0.95374 0.39524 0.0
C271 C 0.37984 0.9553 0.30651 0.0
Co272 Co 0.47403 0.4055 0.36626 0.0
Co273 Co 0.46228 0.35198 0.32361 0.0
C274 C 0.51416 0.40642 0.30939 0.0
O275 O 0.50739 0.41701 0.33586 0.0
O276 O 0.49883 0.38081 0.30049 0.0
C277 C 0.50576 0.44949 0.41671 0.0
O278 O 0.52085 0.43739 0.42024 0.0
C279 C 0.46754 0.30447 0.29614 0.0
C280 C 0.42315 0.27194 0.29116 0.0
C281 C 0.45 0.27678 0.28666 0.0
N282 N 0.4517 0.31552 0.30608 0.0
N283 N 0.42521 0.29596 0.30293 0.0
C284 C 0.49869 0.32011 0.29606 0.0
H285 H 0.50612 0.33272 0.27035 0.0
H286 H 0.50658 0.33465 0.31999 0.0
H287 H 0.50707 0.30562 0.29694 0.0
C288 C 0.46187 0.36909 0.43092 0.0
N289 N 0.46491 0.37375 0.39422 0.0
N290 N 0.46242 0.35163 0.37717 0.0
C291 C 0.45869 0.3324 0.40314 0.0
C292 C 0.45827 0.343 0.43797 0.0
C293 C 0.46183 0.38894 0.45903 0.0
H294 H 0.4547 0.40251 0.44639 0.0
H295 H 0.48322 0.40195 0.47019 0.0
H296 H 0.44789 0.37743 0.48254 0.0
O297 O 0.44381 0.40015 0.33253 0.0
O298 O 0.43332 0.36063 0.30383 0.0
H299 H 0.43669 0.29188 0.37876 0.0
H300 H 0.45517 0.2935 0.42085 0.0
C301 C 0.45598 0.30471 0.39498 0.0
H302 H 0.47398 0.30785 0.37794 0.0
H303 H 0.4085 0.29898 0.30915 0.0
O304 O 0.4837 0.43803 0.39726 0.0
C305 C 0.42963 0.38139 0.30869 0.0
Co306 Co 0.07323 0.47659 0.35685 0.0
Co307 Co 0.11417 0.46223 0.31706 0.0
C308 C 0.11485 0.51543 0.30044 0.0
O309 O 0.09519 0.50858 0.32361 0.0
O310 O 0.12574 0.5001 0.29556 0.0
C311 C 0.06208 0.5096 0.40763 0.0
O312 O 0.08927 0.52445 0.41157 0.0
C313 C 0.16687 0.46601 0.29365 0.0
C314 C 0.15304 0.42207 0.27989 0.0
C315 C 0.17623 0.44851 0.28104 0.0
N316 N 0.13929 0.45058 0.29986 0.0
N317 N 0.13117 0.42434 0.29158 0.0
C318 C 0.18369 0.49686 0.29905 0.0
H319 H 0.18331 0.50732 0.27302 0.0
H320 H 0.17453 0.50348 0.32147 0.0
H321 H 0.20571 0.50339 0.30562 0.0
C322 C 0.09626 0.46395 0.42332 0.0
N323 N 0.0953 0.46696 0.38644 0.0
N324 N 0.11401 0.46245 0.37036 0.0
C325 C 0.12816 0.45742 0.39703 0.0
C326 C 0.11737 0.45841 0.43145 0.0
C327 C 0.07638 0.46472 0.45057 0.0
H328 H 0.05624 0.45883 0.43702 0.0
H329 H 0.08569 0.48601 0.46239 0.0
H330 H 0.0725 0.45004 0.47368 0.0
O331 O 0.04736 0.44543 0.32548 0.0
O332 O 0.07594 0.43445 0.29658 0.0
H333 H 0.14424 0.4338 0.37074 0.0
H334 H 0.15903 0.44728 0.416 0.0
C335 C 0.15144 0.45178 0.38988 0.0
H336 H 0.16884 0.47026 0.37634 0.0
H337 H 0.11065 0.40798 0.29387 0.0
O338 O 0.05136 0.48804 0.38719 0.0
C339 C 0.05153 0.43083 0.3019 0.0
Co340 Co 0.6011 0.07101 0.36253 0.0
Co341 Co 0.65428 0.11348 0.31994 0.0
C342 C 0.5986 0.11016 0.30814 0.0
O343 O 0.58787 0.09224 0.33401 0.0
O344 O 0.6242 0.12045 0.29894 0.0
C345 C 0.55047 0.02535 0.38061 0.0
O346 O 0.54981 0.02253 0.34443 0.0
C347 C 0.70065 0.16803 0.29515 0.0
C348 C 0.73328 0.15717 0.28365 0.0
C349 C 0.72805 0.1791 0.28358 0.0
N350 N 0.69014 0.14069 0.30192 0.0
N351 N 0.70977 0.13437 0.29491 0.0
C352 C 0.68482 0.18313 0.29994 0.0
H353 H 0.66946 0.17358 0.32277 0.0
H354 H 0.69919 0.20561 0.30559 0.0
H355 H 0.67321 0.18122 0.27402 0.0
C356 C 0.63671 0.09597 0.42696 0.0
N357 N 0.63274 0.09423 0.39015 0.0
N358 N 0.65519 0.11359 0.37348 0.0
C359 C 0.67424 0.1288 0.39987 0.0
C360 C 0.66298 0.11804 0.43462 0.0
C361 C 0.61558 0.07666 0.45434 0.0
H362 H 0.59779 0.08057 0.45515 0.0
H363 H 0.62463 0.07948 0.48244 0.0
H364 H 0.60761 0.05477 0.44555 0.0
O365 O 0.60731 0.04745 0.32763 0.0
O366 O 0.64672 0.0763 0.29902 0.0
H367 H 0.71448 0.16185 0.41811 0.0
H368 H 0.69962 0.16975 0.37845 0.0
C369 C 0.70231 0.15335 0.3922 0.0
H370 H 0.7139 0.14715 0.37299 0.0
H371 H 0.70716 0.11447 0.29813 0.0
O372 O 0.57129 0.04572 0.3958 0.0
C373 C 0.62593 0.05184 0.30379 0.0
Co374 Co 0.53375 0.60364 0.3626 0.0
Co375 Co 0.54474 0.65583 0.31742 0.0
C376 C 0.49232 0.59853 0.30769 0.0
O377 O 0.49874 0.58847 0.33518 0.0
O378 O 0.50802 0.62386 0.29741 0.0
C379 C 0.51318 0.55211 0.4008 0.0
O380 O 0.48888 0.54637 0.38727 0.0
C381 C 0.53501 0.70163 0.29454 0.0
C382 C 0.57603 0.73129 0.27041 0.0
C383 C 0.54995 0.72763 0.27804 0.0
N384 N 0.55165 0.69045 0.2968 0.0
N385 N 0.5761 0.70829 0.28224 0.0
C386 C 0.50548 0.68763 0.30767 0.0
H387 H 0.50108 0.66996 0.32633 0.0
H388 H 0.50131 0.70286 0.32215 0.0
H389 H 0.49138 0.67957 0.28333 0.0
C390 C 0.54139 0.63968 0.42537 0.0
N391 N 0.54089 0.63549 0.3887 0.0
N392 N 0.54605 0.65826 0.37088 0.0
C393 C 0.55083 0.67817 0.39637 0.0
C394 C 0.54795 0.66689 0.43168 0.0
C395 C 0.5346 0.61753 0.45379 0.0
H396 H 0.51575 0.59796 0.44513 0.0
H397 H 0.53071 0.6238 0.48128 0.0
H398 H 0.55221 0.61343 0.45597 0.0
O399 O 0.56288 0.60982 0.32638 0.0
O400 O 0.57497 0.6494 0.2975 0.0
H401 H 0.56652 0.72111 0.41178 0.0
H402 H 0.53787 0.70663 0.37947 0.0
C403 C 0.55745 0.70715 0.38744 0.0
H404 H 0.57217 0.71536 0.36379 0.0
H405 H 0.59295 0.70485 0.28059 0.0
O406 O 0.53422 0.57607 0.39606 0.0
C407 C 0.57772 0.62815 0.30257 0.0
Co408 Co 0.52826 0.92918 0.86194 0.0
Co409 Co 0.5392 0.88675 0.81899 0.0
C410 C 0.48803 0.89036 0.80433 0.0
O411 O 0.49549 0.90836 0.8301 0.0
O412 O 0.50265 0.87918 0.79602 0.0
C413 C 0.49672 0.94129 0.9132 0.0
O414 O 0.48153 0.91407 0.91629 0.0
C415 C 0.53309 0.83323 0.79286 0.0
C416 C 0.57724 0.84476 0.78595 0.0
C417 C 0.55024 0.82266 0.78313 0.0
N418 N 0.54928 0.8604 0.80137 0.0
N419 N 0.57563 0.86712 0.79706 0.0
C420 C 0.50195 0.81783 0.79429 0.0
H421 H 0.49472 0.82595 0.81731 0.0
H422 H 0.4936 0.79508 0.79767 0.0
H423 H 0.49383 0.82136 0.76797 0.0
C424 C 0.53975 0.90416 0.92632 0.0
N425 N 0.53656 0.90576 0.88966 0.0
N426 N 0.53886 0.88602 0.87257 0.0
C427 C 0.5426 0.87051 0.89852 0.0
C428 C 0.5431 0.88152 0.93339 0.0
C429 C 0.5411 0.92479 0.95418 0.0
H430 H 0.54822 0.9453 0.94095 0.0
H431 H 0.52015 0.91699 0.9665 0.0
H432 H 0.55578 0.9275 0.97683 0.0
O433 O 0.5592 0.95414 0.82948 0.0
O434 O 0.56854 0.92467 0.7996 0.0
H435 H 0.54743 0.83588 0.91613 0.0
H436 H 0.52712 0.83034 0.8744 0.0
C437 C 0.54559 0.84571 0.89031 0.0
H438 H 0.56437 0.85217 0.87298 0.0
H439 H 0.59256 0.88697 0.80211 0.0
O440 O 0.5186 0.95194 0.89339 0.0
C441 C 0.57304 0.94938 0.80533 0.0
Co442 Co 0.59946 0.52689 0.866 0.0
Co443 Co 0.65284 0.54206 0.82096 0.0
C444 C 0.60117 0.48854 0.80709 0.0
O445 O 0.5888 0.49593 0.83033 0.0
O446 O 0.62746 0.5032 0.80212 0.0
C447 C 0.55305 0.4905 0.91009 0.0
O448 O 0.56117 0.4727 0.90112 0.0
C449 C 0.70356 0.54212 0.79635 0.0
C450 C 0.72953 0.58536 0.77627 0.0
C451 C 0.72928 0.56044 0.78105 0.0
N452 N 0.68921 0.55563 0.80065 0.0
N453 N 0.70486 0.58145 0.78854 0.0
C454 C 0.69267 0.51223 0.80623 0.0
H455 H 0.67581 0.50531 0.82718 0.0
H456 H 0.70973 0.50912 0.81684 0.0
H457 H 0.68401 0.49928 0.78095 0.0
C458 C 0.63627 0.53714 0.9292 0.0
N459 N 0.63172 0.53585 0.89253 0.0
N460 N 0.65504 0.54318 0.87459 0.0
C461 C 0.6754 0.54941 0.89998 0.0
C462 C 0.66401 0.54568 0.93536 0.0
C463 C 0.61439 0.53051 0.95793 0.0
H464 H 0.60366 0.54248 0.95218 0.0
H465 H 0.59884 0.50795 0.95681 0.0
H466 H 0.62341 0.53554 0.98612 0.0
O467 O 0.60373 0.55901 0.83823 0.0
O468 O 0.63734 0.56548 0.79912 0.0
H469 H 0.71267 0.57453 0.86901 0.0
H470 H 0.71849 0.56652 0.91576 0.0
C471 C 0.70497 0.55832 0.89089 0.0
H472 H 0.70595 0.54005 0.88023 0.0
H473 H 0.69873 0.59647 0.78879 0.0
O474 O 0.56758 0.51556 0.89916 0.0
C475 C 0.61819 0.57047 0.80946 0.0
Co476 Co 0.0747 0.59961 0.86264 0.0
Co477 Co 0.11398 0.65314 0.81852 0.0
C478 C 0.11479 0.60072 0.80441 0.0
O479 O 0.09526 0.58861 0.82799 0.0
O480 O 0.12633 0.62696 0.79891 0.0
C481 C 0.06439 0.55472 0.91065 0.0
O482 O 0.0913 0.56439 0.90738 0.0
C483 C 0.1651 0.70254 0.79189 0.0
C484 C 0.15009 0.73221 0.78183 0.0
C485 C 0.17363 0.72956 0.78068 0.0
N486 N 0.13769 0.68977 0.79964 0.0
N487 N 0.12885 0.7076 0.79345 0.0
C488 C 0.18265 0.68915 0.79552 0.0
H489 H 0.17983 0.67644 0.7704 0.0
H490 H 0.17577 0.67499 0.81984 0.0
H491 H 0.20506 0.70508 0.79818 0.0
C492 C 0.09992 0.63649 0.92634 0.0
N493 N 0.09757 0.6318 0.88967 0.0
N494 N 0.11494 0.65479 0.87205 0.0
C495 C 0.12954 0.67482 0.89765 0.0
C496 C 0.1204 0.66372 0.93286 0.0
C497 C 0.0821 0.61553 0.95475 0.0
H498 H 0.0604 0.60324 0.94445 0.0
H499 H 0.09036 0.60134 0.9604 0.0
H500 H 0.08209 0.62587 0.98092 0.0
O501 O 0.04765 0.60406 0.83367 0.0
O502 O 0.07515 0.63944 0.79698 0.0
H503 H 0.1604 0.71653 0.91431 0.0
H504 H 0.1694 0.7024 0.87489 0.0
C505 C 0.15225 0.70367 0.88886 0.0
H506 H 0.1443 0.71367 0.86959 0.0
H507 H 0.10834 0.70304 0.79758 0.0
O508 O 0.05361 0.56764 0.89511 0.0
C509 C 0.05091 0.61996 0.80648 0.0
Co510 Co 0.47005 0.06906 0.86405 0.0
Co511 Co 0.45956 0.11128 0.82035 0.0
C512 C 0.51141 0.10615 0.80882 0.0
O513 O 0.50472 0.0891 0.83571 0.0
O514 O 0.49608 0.11638 0.7993 0.0
C515 C 0.49041 0.03652 0.89803 0.0
O516 O 0.51365 0.05328 0.88055 0.0
C517 C 0.4686 0.16625 0.79565 0.0
C518 C 0.4254 0.15519 0.78154 0.0
C519 C 0.45245 0.17727 0.78313 0.0
N520 N 0.45172 0.13877 0.80144 0.0
N521 N 0.42598 0.13235 0.79283 0.0
C522 C 0.49934 0.18151 0.8023 0.0
H523 H 0.50483 0.1704 0.8233 0.0
H524 H 0.50657 0.20323 0.8114 0.0
H525 H 0.51012 0.18234 0.776 0.0
C526 C 0.46283 0.09702 0.92788 0.0
N527 N 0.46317 0.09359 0.8911 0.0
N528 N 0.45888 0.11197 0.87378 0.0
C529 C 0.4552 0.1276 0.89963 0.0
C530 C 0.45763 0.11855 0.9347 0.0
C531 C 0.46847 0.08054 0.9559 0.0
H532 H 0.48791 0.08057 0.94845 0.0
H533 H 0.47063 0.08918 0.98419 0.0
H534 H 0.45109 0.05862 0.95558 0.0
O535 O 0.44058 0.04641 0.82818 0.0
O536 O 0.42922 0.07475 0.80011 0.0
H537 H 0.4452 0.15899 0.91657 0.0
H538 H 0.46986 0.1685 0.87898 0.0
C539 C 0.4505 0.1513 0.89117 0.0
H540 H 0.4335 0.14466 0.87055 0.0
H541 H 0.40869 0.11235 0.79507 0.0
O542 O 0.47014 0.04099 0.89696 0.0
C543 C 0.426 0.05051 0.80462 0.0
Co544 Co 0.40333 0.47585 0.85942 0.0
Co545 Co 0.34798 0.46009 0.8185 0.0
C546 C 0.4031 0.51241 0.79975 0.0
O547 O 0.41576 0.50772 0.82573 0.0
O548 O 0.37712 0.49597 0.7935 0.0
C549 C 0.45396 0.48065 0.87704 0.0
O550 O 0.45447 0.47876 0.8408 0.0
C551 C 0.29926 0.46483 0.79552 0.0
C552 C 0.27003 0.42145 0.77821 0.0
C553 C 0.27278 0.44758 0.78147 0.0
N554 N 0.3117 0.44954 0.80042 0.0
N555 N 0.29409 0.42364 0.79002 0.0
C556 C 0.31247 0.49525 0.80389 0.0
H557 H 0.33161 0.50235 0.82079 0.0
H558 H 0.29744 0.49953 0.81871 0.0
H559 H 0.31804 0.50706 0.77746 0.0
C560 C 0.36989 0.47069 0.92475 0.0
N561 N 0.37258 0.46994 0.88785 0.0
N562 N 0.34859 0.46256 0.87174 0.0
C563 C 0.32953 0.45775 0.89851 0.0
C564 C 0.34251 0.46268 0.93301 0.0
C565 C 0.39329 0.47898 0.95166 0.0
H566 H 0.41222 0.49779 0.94138 0.0
H567 H 0.38793 0.48361 0.97932 0.0
H568 H 0.398 0.46179 0.95418 0.0
O569 O 0.39587 0.44331 0.82876 0.0
O570 O 0.35541 0.42992 0.80133 0.0
H571 H 0.29081 0.43066 0.87147 0.0
H572 H 0.28723 0.44186 0.91744 0.0
C573 C 0.29953 0.44829 0.89139 0.0
H574 H 0.29795 0.4657 0.87877 0.0
H575 H 0.29848 0.40739 0.79101 0.0
O576 O 0.43355 0.4809 0.89241 0.0
C577 C 0.3766 0.42714 0.80681 0.0
Co578 Co 0.93268 0.40363 0.85663 0.0
Co579 Co 0.88872 0.34855 0.81913 0.0
C580 C 0.89131 0.40377 0.80373 0.0
O581 O 0.91156 0.41653 0.82631 0.0
O582 O 0.87977 0.37738 0.79884 0.0
C583 C 0.9683 0.45835 0.88545 0.0
O584 O 0.9546 0.46637 0.86376 0.0
C585 C 0.83435 0.30149 0.79474 0.0
C586 C 0.84442 0.26761 0.79171 0.0
C587 C 0.82308 0.27339 0.78675 0.0
N588 N 0.86124 0.31186 0.80427 0.0
N589 N 0.86708 0.29148 0.80234 0.0
C590 C 0.81996 0.3182 0.79332 0.0
H591 H 0.82603 0.33223 0.81776 0.0
H592 H 0.79696 0.30447 0.79241 0.0
H593 H 0.82685 0.33145 0.76812 0.0
C594 C 0.90785 0.37156 0.92425 0.0
N595 N 0.90949 0.37347 0.88711 0.0
N596 N 0.89039 0.3499 0.87233 0.0
C597 C 0.87568 0.33214 0.90012 0.0
C598 C 0.88642 0.34538 0.93393 0.0
C599 C 0.92617 0.39478 0.94998 0.0
H600 H 0.94819 0.40031 0.94569 0.0
H601 H 0.9244 0.41343 0.94359 0.0
H602 H 0.92055 0.38888 0.97935 0.0
O603 O 0.95472 0.39526 0.82258 0.0
O604 O 0.92503 0.35529 0.79602 0.0
H605 H 0.8583 0.29059 0.87948 0.0
H606 H 0.8419 0.29343 0.92138 0.0
C607 C 0.85136 0.30351 0.89454 0.0
H608 H 0.83551 0.30482 0.87724 0.0
H609 H 0.88658 0.29389 0.80844 0.0
O610 O 0.96118 0.43287 0.88752 0.0
C611 C 0.9497 0.37591 0.79977 0.0
Co612 Co 0.0705 0.47381 0.65995 0.0
Co613 Co 0.1114 0.45951 0.69999 0.0
C614 C 0.11149 0.51248 0.71711 0.0
O615 O 0.09193 0.50575 0.69375 0.0
O616 O 0.12235 0.49712 0.72202 0.0
C617 C 0.05947 0.50833 0.6135 0.0
O618 O 0.08641 0.52522 0.61725 0.0
C619 C 0.16393 0.46349 0.72465 0.0
C620 C 0.15023 0.41943 0.73726 0.0
C621 C 0.17327 0.44598 0.73723 0.0
N622 N 0.13651 0.44796 0.71742 0.0
N623 N 0.12847 0.42165 0.72501 0.0
C624 C 0.18061 0.49444 0.72025 0.0
H625 H 0.17945 0.5044 0.74637 0.0
H626 H 0.17186 0.50128 0.69757 0.0
H627 H 0.20283 0.5013 0.71461 0.0
C628 C 0.09509 0.46319 0.59367 0.0
N629 N 0.09337 0.46513 0.63062 0.0
N630 N 0.11184 0.46032 0.64679 0.0
C631 C 0.12646 0.45591 0.62015 0.0
C632 C 0.1162 0.4576 0.58562 0.0
C633 C 0.07616 0.4656 0.56635 0.0
H634 H 0.05466 0.45522 0.57756 0.0
H635 H 0.08336 0.48794 0.56137 0.0
H636 H 0.07613 0.45582 0.53954 0.0
O637 O 0.04449 0.44213 0.69058 0.0
O638 O 0.07312 0.43124 0.71945 0.0
H639 H 0.14246 0.43207 0.64596 0.0
H640 H 0.15792 0.44654 0.60133 0.0
C641 C 0.14981 0.45041 0.62746 0.0
H642 H 0.16688 0.46869 0.64183 0.0
H643 H 0.10807 0.40519 0.72189 0.0
O644 O 0.04843 0.48444 0.62862 0.0
C645 C 0.04865 0.42737 0.71386 0.0
Co646 Co 0.59922 0.06805 0.65917 0.0
Co647 Co 0.65273 0.1092 0.70254 0.0
C648 C 0.59625 0.10519 0.71539 0.0
O649 O 0.58526 0.08817 0.68856 0.0
O650 O 0.62186 0.11491 0.72434 0.0
C651 C 0.54559 0.03472 0.62751 0.0
O652 O 0.53841 0.04899 0.64947 0.0
C653 C 0.69872 0.16391 0.72783 0.0
C654 C 0.73111 0.15304 0.74103 0.0
C655 C 0.72592 0.175 0.74029 0.0
N656 N 0.6883 0.13653 0.72131 0.0
N657 N 0.70778 0.13022 0.72935 0.0
C658 C 0.68295 0.17898 0.72205 0.0
H659 H 0.66756 0.16902 0.69933 0.0
H660 H 0.69739 0.20132 0.71576 0.0
H661 H 0.67142 0.17764 0.74783 0.0
C662 C 0.63389 0.09659 0.59518 0.0
N663 N 0.63052 0.09272 0.63195 0.0
N664 N 0.65371 0.11024 0.64907 0.0
C665 C 0.67304 0.12551 0.62304 0.0
C666 C 0.66099 0.11724 0.58806 0.0
C667 C 0.61108 0.08151 0.56746 0.0
H668 H 0.59155 0.08013 0.5777 0.0
H669 H 0.61647 0.09232 0.54036 0.0
H670 H 0.60739 0.06002 0.56377 0.0
O671 O 0.60593 0.04469 0.69399 0.0
O672 O 0.64598 0.07222 0.722 0.0
H673 H 0.7149 0.15533 0.60575 0.0
H674 H 0.70125 0.16575 0.64421 0.0
C675 C 0.7021 0.14801 0.63133 0.0
H676 H 0.71185 0.1403 0.65138 0.0
H677 H 0.70521 0.11031 0.72656 0.0
O678 O 0.57079 0.04068 0.62575 0.0
C679 C 0.62465 0.04818 0.71717 0.0
Co680 Co 0.53079 0.59999 0.64903 0.0
Co681 Co 0.5414 0.65089 0.69704 0.0
C682 C 0.48826 0.59498 0.7031 0.0
O683 O 0.49451 0.5869 0.67354 0.0
O684 O 0.50428 0.61946 0.71599 0.0
C685 C 0.50234 0.55713 0.59644 0.0
O686 O 0.48547 0.56735 0.59554 0.0
C687 C 0.5336 0.69708 0.72505 0.0
C688 C 0.57711 0.72852 0.73878 0.0
C689 C 0.55024 0.72411 0.73802 0.0
N690 N 0.55001 0.68608 0.71813 0.0
N691 N 0.57596 0.705 0.72658 0.0
C692 C 0.50279 0.6821 0.71891 0.0
H693 H 0.49717 0.66725 0.69547 0.0
H694 H 0.4954 0.69707 0.71353 0.0
H695 H 0.49227 0.67002 0.7442 0.0
C696 C 0.54652 0.63985 0.58833 0.0
N697 N 0.54233 0.63342 0.6245 0.0
N698 N 0.54434 0.65464 0.64341 0.0
C699 C 0.54904 0.67517 0.61904 0.0
C700 C 0.55042 0.66628 0.58338 0.0
C701 C 0.54656 0.62091 0.55881 0.0
H702 H 0.55469 0.60772 0.56999 0.0
H703 H 0.52496 0.60733 0.54869 0.0
H704 H 0.55976 0.63308 0.53509 0.0
O705 O 0.55793 0.60282 0.68666 0.0
O706 O 0.56935 0.64145 0.71836 0.0
H707 H 0.55539 0.7158 0.60466 0.0
H708 H 0.53086 0.69779 0.64172 0.0
C709 C 0.55094 0.70217 0.62925 0.0
H710 H 0.56761 0.71307 0.65017 0.0
H711 H 0.593 0.70198 0.72344 0.0
O712 O 0.5246 0.56967 0.61535 0.0
C713 C 0.57203 0.62026 0.71193 0.0
Co714 Co 0.92701 0.52736 0.65855 0.0
Co715 Co 0.88934 0.54331 0.70392 0.0
C716 C 0.88828 0.48878 0.7165 0.0
O717 O 0.90696 0.49505 0.69185 0.0
O718 O 0.87795 0.50453 0.72287 0.0
C719 C 0.96919 0.51792 0.64025 0.0
O720 O 0.96902 0.51616 0.67654 0.0
C721 C 0.83759 0.54212 0.72734 0.0
C722 C 0.85445 0.58479 0.74956 0.0
C723 C 0.82989 0.56008 0.7432 0.0
N724 N 0.86554 0.55569 0.72424 0.0
N725 N 0.87545 0.58116 0.7376 0.0
C726 C 0.81878 0.51257 0.71575 0.0
H727 H 0.81215 0.4991 0.74073 0.0
H728 H 0.82981 0.5056 0.69666 0.0
H729 H 0.79978 0.51036 0.70223 0.0
C730 C 0.89941 0.53629 0.59581 0.0
N731 N 0.90323 0.53582 0.63247 0.0
N732 N 0.88819 0.54435 0.65035 0.0
C733 C 0.87461 0.55119 0.6249 0.0
C734 C 0.8814 0.54632 0.58954 0.0
C735 C 0.91289 0.52724 0.56733 0.0
H736 H 0.91216 0.50778 0.57652 0.0
H737 H 0.90232 0.52344 0.54013 0.0
H738 H 0.93507 0.54367 0.56419 0.0
O739 O 0.95359 0.55865 0.68883 0.0
O740 O 0.92774 0.56865 0.72545 0.0
H741 H 0.86409 0.57732 0.65667 0.0
H742 H 0.85137 0.57133 0.60927 0.0
C743 C 0.85528 0.5618 0.63393 0.0
H744 H 0.83516 0.54402 0.64332 0.0
H745 H 0.89659 0.59616 0.7384 0.0
O746 O 0.95095 0.52159 0.62427 0.0
C747 C 0.95144 0.57227 0.71563 0.0
Co748 Co 0.40199 0.93223 0.65631 0.0
Co749 Co 0.34865 0.89034 0.69944 0.0
C750 C 0.40269 0.89242 0.71317 0.0
O751 O 0.41343 0.91065 0.6877 0.0
O752 O 0.37695 0.88159 0.72167 0.0
C753 C 0.44484 0.94317 0.60441 0.0
O754 O 0.43285 0.91588 0.60327 0.0
C755 C 0.30011 0.83797 0.72589 0.0
C756 C 0.26875 0.85127 0.73224 0.0
C757 C 0.27258 0.82853 0.73543 0.0
N758 N 0.31206 0.86516 0.71715 0.0
N759 N 0.2932 0.87296 0.72112 0.0
C760 C 0.31472 0.82145 0.72469 0.0
H761 H 0.33076 0.8295 0.70252 0.0
H762 H 0.29964 0.79898 0.72016 0.0
H763 H 0.3254 0.82381 0.75157 0.0
C764 C 0.36478 0.90798 0.59235 0.0
N765 N 0.36981 0.90945 0.62892 0.0
N766 N 0.34788 0.88965 0.64603 0.0
C767 C 0.32853 0.87411 0.62016 0.0
C768 C 0.33878 0.88533 0.58532 0.0
C769 C 0.38388 0.92871 0.56454 0.0
H770 H 0.39759 0.94905 0.57802 0.0
H771 H 0.39666 0.9208 0.55129 0.0
H772 H 0.37162 0.93179 0.5427 0.0
O773 O 0.39711 0.95765 0.68924 0.0
O774 O 0.35832 0.9284 0.71921 0.0
H775 H 0.2895 0.83882 0.60254 0.0
H776 H 0.30453 0.83388 0.64445 0.0
C777 C 0.30105 0.84892 0.62837 0.0
H778 H 0.28836 0.85504 0.64553 0.0
H779 H 0.29696 0.89307 0.71578 0.0
O780 O 0.43404 0.9544 0.62399 0.0
C781 C 0.37872 0.953 0.71366 0.0
Co782 Co 0.4719 0.40399 0.66632 0.0
Co783 Co 0.45965 0.34901 0.70569 0.0
C784 C 0.5126 0.40414 0.72037 0.0
O785 O 0.50565 0.41691 0.6971 0.0
O786 O 0.49731 0.3779 0.72585 0.0
C787 C 0.49494 0.45751 0.63062 0.0
O788 O 0.51862 0.46351 0.64655 0.0
C789 C 0.46777 0.30272 0.73021 0.0
C790 C 0.42407 0.26874 0.73616 0.0
C791 C 0.45142 0.27477 0.73924 0.0
N792 N 0.45078 0.31273 0.72173 0.0
N793 N 0.4247 0.29232 0.72545 0.0
C794 C 0.49888 0.31964 0.72961 0.0
H795 H 0.50583 0.333 0.70451 0.0
H796 H 0.50837 0.3061 0.73026 0.0
H797 H 0.50607 0.33356 0.75418 0.0
C798 C 0.46476 0.37053 0.59984 0.0
N799 N 0.46486 0.37321 0.63687 0.0
N800 N 0.45933 0.3496 0.65262 0.0
C801 C 0.45535 0.33094 0.62566 0.0
C802 C 0.45861 0.34368 0.59139 0.0
C803 C 0.47107 0.39358 0.57305 0.0
H804 H 0.45466 0.39943 0.57508 0.0
H805 H 0.49131 0.41213 0.58043 0.0
H806 H 0.47208 0.3874 0.54412 0.0
O807 O 0.44115 0.39607 0.70011 0.0
O808 O 0.43025 0.35619 0.72754 0.0
H809 H 0.43005 0.29042 0.64893 0.0
H810 H 0.44712 0.29063 0.60602 0.0
C811 C 0.44944 0.30189 0.63242 0.0
H812 H 0.46681 0.30272 0.64867 0.0
H813 H 0.40732 0.29447 0.72043 0.0
O814 O 0.47384 0.43344 0.63427 0.0
C815 C 0.42653 0.37693 0.7231 0.0
C816 C 0.50672 0.02368 0.0817 0.0
C817 C 0.52179 0.04828 0.10289 0.0
C818 C 0.54885 0.0293 0.13079 0.0
C819 C 0.52861 0.00265 0.11788 0.0
N820 N 0.49016 0.97411 0.07713 0.0
N821 N 0.55924 0.07602 0.14571 0.0
C822 C 0.50856 0.99977 0.09118 0.0
C823 C 0.54417 0.05197 0.12591 0.0
N824 N 0.49002 0.02326 0.05359 0.0
N825 N 0.57227 0.03264 0.14813 0.0
H826 H 0.55756 0.09373 0.14184 0.0
H827 H 0.57277 0.07809 0.16711 0.0
H828 H 0.5761 0.01613 0.15159 0.0
H829 H 0.58897 0.05202 0.15548 0.0
H830 H 0.47971 0.00668 0.03522 0.0
H831 H 0.4888 0.04095 0.04672 0.0
H832 H 0.47317 0.97022 0.06065 0.0
H833 H 0.49127 0.95628 0.08312 0.0
C834 C 0.508 0.46001 0.10501 0.0
C835 C 0.52906 0.48717 0.09537 0.0
C836 C 0.49581 0.50377 0.09737 0.0
C837 C 0.47734 0.47904 0.11688 0.0
N838 N 0.46272 0.43151 0.13365 0.0
N839 N 0.53977 0.52928 0.0639 0.0
C840 C 0.48223 0.45622 0.11829 0.0
C841 C 0.52161 0.50711 0.08494 0.0
N842 N 0.51255 0.43814 0.10048 0.0
N843 N 0.48976 0.52474 0.09361 0.0
H844 H 0.5584 0.531 0.05444 0.0
H845 H 0.53544 0.54414 0.05317 0.0
H846 H 0.47093 0.52285 0.1022 0.0
H847 H 0.50366 0.54436 0.08306 0.0
H848 H 0.49753 0.41744 0.10537 0.0
H849 H 0.53038 0.44057 0.08727 0.0
H850 H 0.4663 0.41517 0.13956 0.0
H851 H 0.44297 0.42769 0.14148 0.0
C852 C 0.01991 0.52116 0.08395 0.0
C853 C 0.04682 0.52786 0.09565 0.0
C854 C 0.02837 0.48195 0.12341 0.0
C855 C 1.0013 0.47878 0.12098 0.0
N856 N 0.97018 0.49297 0.09444 0.0
N857 N 0.07771 0.51027 0.10809 0.0
C858 C 0.99651 0.49712 0.0987 0.0
C859 C 0.05147 0.50665 0.10922 0.0
N860 N 0.01726 0.53876 0.06005 0.0
N861 N 0.03179 0.46172 0.14014 0.0
H862 H 0.09394 0.52715 0.09435 0.0
H863 H 0.0829 0.49562 0.11708 0.0
H864 H 0.01493 0.44264 0.14835 0.0
H865 H 0.05105 0.46365 0.14604 0.0
H866 H 0.99845 0.53478 0.04833 0.0
H867 H 0.03483 0.5563 0.04946 0.0
H868 H 0.96582 0.50722 0.08175 0.0
H869 H 0.95248 0.47568 0.10503 0.0
C870 C 0.02273 0.50595 0.44503 0.0
C871 C 0.04397 0.52072 0.41859 0.0
C872 C 0.01595 0.53744 0.38824 0.0
C873 C 0.99404 0.52173 0.4138 0.0
N874 N 0.97885 0.49721 0.47181 0.0
N875 N 0.06512 0.55812 0.37437 0.0
C876 C 0.99823 0.50805 0.44412 0.0
C877 C 0.04214 0.53941 0.39377 0.0
N878 N 0.02565 0.48904 0.46986 0.0
N879 N 0.01117 0.54829 0.35686 0.0
H880 H 0.08459 0.55983 0.37786 0.0
H881 H 0.06555 0.57385 0.35807 0.0
H882 H 0.99193 0.5462 0.35021 0.0
H883 H 0.02558 0.55708 0.33541 0.0
H884 H 0.00939 0.47442 0.48615 0.0
H885 H 0.04451 0.48937 0.47316 0.0
H886 H 0.98177 0.48898 0.49622 0.0
H887 H 0.96073 0.4986 0.47162 0.0
C888 C 0.49702 0.95399 0.41412 0.0
C889 C 0.47597 0.96014 0.42358 0.0
C890 C 0.50945 0.00995 0.42273 0.0
C891 C 0.52796 0.00376 0.40322 0.0
N892 N 0.5425 0.97083 0.38611 0.0
N893 N 0.46535 0.99135 0.45586 0.0
C894 C 0.52296 0.97601 0.40138 0.0
C895 C 0.4835 0.98745 0.43464 0.0
N896 N 0.49231 0.9275 0.41836 0.0
N897 N 0.5156 0.03697 0.42698 0.0
H898 H 0.44668 0.9744 0.46509 0.0
H899 H 0.46977 0.01046 0.46704 0.0
H900 H 0.53454 0.05395 0.4188 0.0
H901 H 0.50166 0.04267 0.43751 0.0
H902 H 0.50731 0.92177 0.41361 0.0
H903 H 0.4743 0.91204 0.4312 0.0
H904 H 0.53887 0.95092 0.37993 0.0
H905 H 0.56235 0.98679 0.37864 0.0
C906 C 0.50262 0.48719 0.44948 0.0
C907 C 0.51744 0.47926 0.42509 0.0
C908 C 0.53397 0.52187 0.38942 0.0
C909 C 0.51766 0.52917 0.41225 0.0
N910 N 0.49276 0.52337 0.46929 0.0
N911 N 0.55549 0.49338 0.38226 0.0
C912 C 0.50414 0.51336 0.44429 0.0
C913 C 0.53627 0.49836 0.39898 0.0
N914 N 0.48634 0.46903 0.47642 0.0
N915 N 0.5452 0.5357 0.3569 0.0
H916 H 0.55769 0.47629 0.38898 0.0
H917 H 0.57124 0.50776 0.36508 0.0
H918 H 0.54315 0.55235 0.34746 0.0
H919 H 0.55442 0.52902 0.33732 0.0
H920 H 0.47262 0.47194 0.49299 0.0
H921 H 0.48647 0.45054 0.48159 0.0
H922 H 0.48416 0.51378 0.49447 0.0
H923 H 0.49386 0.54263 0.46596 0.0
C924 C 0.50182 0.00821 0.94072 0.0
C925 C 0.4856 0.00932 0.91113 0.0
C926 C 0.46465 0.9591 0.90184 0.0
C927 C 0.48586 0.9597 0.92414 0.0
N928 N 0.5214 0.98233 0.97021 0.0
N929 N 0.45197 0.98587 0.86187 0.0
C930 C 0.50311 0.98344 0.9459 0.0
C931 C 0.46651 0.98466 0.8918 0.0
N932 N 0.51597 0.03083 0.96335 0.0
N933 N 0.44335 0.93426 0.88929 0.0
H934 H 0.45313 0.00418 0.85241 0.0
H935 H 0.44047 0.96901 0.84427 0.0
H936 H 0.44123 0.91517 0.897 0.0
H937 H 0.42613 0.93244 0.87512 0.0
H938 H 0.52682 0.03089 0.98692 0.0
H939 H 0.51501 0.04906 0.96002 0.0
H940 H 0.53682 0.99953 0.98435 0.0
H941 H 0.52105 0.96365 0.97574 0.0
C942 C 0.47785 0.45448 0.8954 0.0
C943 C 0.47494 0.47843 0.89956 0.0
C944 C 0.51802 0.50138 0.93541 0.0
C945 C 0.52409 0.48097 0.92241 0.0
N946 N 0.5048 0.43209 0.91069 0.0
N947 N 0.48955 0.52305 0.92847 0.0
C948 C 0.50227 0.45534 0.90913 0.0
C949 C 0.49372 0.50106 0.92224 0.0
N950 N 0.45778 0.43152 0.87724 0.0
N951 N 0.53605 0.5211 0.95962 0.0
H952 H 0.47191 0.52343 0.91929 0.0
H953 H 0.50399 0.54141 0.94158 0.0
H954 H 0.55353 0.52059 0.9695 0.0
H955 H 0.53247 0.5359 0.97233 0.0
H956 H 0.46018 0.41477 0.8693 0.0
H957 H 0.43877 0.42958 0.86926 0.0
H958 H 0.48915 0.41228 0.90288 0.0
H959 H 0.52152 0.43223 0.92422 0.0
C960 C 0.99479 0.49636 0.93129 0.0
C961 C 0.99481 0.47912 0.9023 0.0
C962 C 0.04571 0.50432 0.90256 0.0
C963 C 0.04507 0.52583 0.92261 0.0
N964 N 0.02127 0.54019 0.96463 0.0
N965 N 0.02045 0.46587 0.86035 0.0
C966 C 0.02026 0.52071 0.94055 0.0
C967 C 0.02033 0.48235 0.88853 0.0
N968 N 0.97053 0.48945 0.94948 0.0
N969 N 0.07049 0.50528 0.89644 0.0
H970 H 1.00238 0.44976 0.84855 0.0
H971 H 0.03855 0.46959 0.84664 0.0
H972 H 0.089 0.52049 0.90853 0.0
H973 H 0.07202 0.4892 0.88374 0.0
H974 H 0.96936 0.50014 0.97249 0.0
H975 H 0.95169 0.47156 0.94301 0.0
H976 H 0.00378 0.53986 0.9758 0.0
H977 H 0.0403 0.55706 0.97304 0.0
C978 C 0.99037 0.49968 0.59496 0.0
C979 C 0.9934 0.52099 0.61953 0.0
C980 C 0.04409 0.54348 0.61497 0.0
C981 C 0.04063 0.51831 0.60035 0.0
N982 N 0.0133 0.47748 0.56385 0.0
N983 N 0.02255 0.56576 0.64838 0.0
C984 C 0.01455 0.49829 0.58546 0.0
C985 C 0.02016 0.54402 0.6276 0.0
N986 N 0.9645 0.48039 0.58238 0.0
N987 N 0.06998 0.56662 0.61627 0.0
H988 H 0.00537 0.56766 0.65586 0.0
H989 H 0.04137 0.58136 0.65923 0.0
H990 H 0.0872 0.56708 0.60383 0.0
H991 H 0.07374 0.5861 0.62511 0.0
H992 H 0.96068 0.46444 0.56394 0.0
H993 H 0.94653 0.48096 0.58942 0.0
H994 H 0.99503 0.46062 0.55385 0.0
H995 H 0.03148 0.47797 0.55501 0.0
C996 C 0.50628 0.01107 0.58276 0.0
C997 C 0.52381 0.00914 0.60973 0.0
C998 C 0.49487 0.95841 0.60914 0.0
C999 C 0.47375 0.96134 0.59154 0.0
N1000 N 0.46069 0.98812 0.5531 0.0
N1001 N 0.53538 0.98068 0.64871 0.0
C1002 C 0.48024 0.98697 0.57484 0.0
C1003 C 0.51879 0.98267 0.62224 0.0
N1004 N 0.51453 0.03589 0.56533 0.0
N1005 N 0.49174 0.93256 0.61397 0.0
H1006 H 0.55298 0.99784 0.65975 0.0
H1007 H 0.53049 0.96203 0.66185 0.0
H1008 H 0.47496 0.91472 0.6027 0.0
H1009 H 0.50737 0.92933 0.62466 0.0
H1010 H 0.50354 0.03841 0.54372 0.0
H1011 H 0.53373 0.05366 0.57075 0.0
H1012 H 0.46237 0.00649 0.543 0.0
H1013 H 0.44242 0.97002 0.54546 0.0
C1014 C 0.47073 0.48535 0.62375 0.0
C1015 C 0.49183 0.47952 0.61202 0.0
C1016 C 0.51206 0.5209 0.57253 0.0
C1017 C 0.49246 0.52767 0.58703 0.0
N1018 N 0.44553 0.50938 0.60916 0.0
N1019 N 0.52628 0.48611 0.56614 0.0
C1020 C 0.469 0.50731 0.60645 0.0
C1021 C 0.51044 0.49542 0.58318 0.0
N1022 N 0.45387 0.47175 0.65327 0.0
N1023 N 0.53286 0.53964 0.55015 0.0
H1024 H 0.52509 0.46728 0.57324 0.0
H1025 H 0.53862 0.49569 0.543 0.0
H1026 H 0.53313 0.55762 0.5408 0.0
H1027 H 0.54979 0.5377 0.54169 0.0
H1028 H 0.44025 0.47754 0.66479 0.0
H1029 H 0.45532 0.45669 0.66878 0.0
H1030 H 0.4272 0.49402 0.62142 0.0
H1031 H 0.44328 0.52437 0.59457 0.0
C1032 C 0.46086 0.23891 0.30022 0.0
C1033 C 0.45717 0.25573 0.27378 0.0
C1034 C 0.45767 0.22624 0.22343 0.0
C1035 C 0.45683 0.20712 0.2502 0.0
N1036 N 0.45869 0.19487 0.31369 0.0
N1037 N 0.45326 0.26692 0.21044 0.0
C1038 C 0.45921 0.21358 0.28852 0.0
C1039 C 0.45637 0.25006 0.23534 0.0
N1040 N 0.4658 0.24722 0.33644 0.0
N1041 N 0.4597 0.22148 0.18669 0.0
H1042 H 0.45378 0.28534 0.21819 0.0
H1043 H 0.44914 0.26233 0.18241 0.0
H1044 H 0.46042 0.20405 0.1773 0.0
H1045 H 0.46284 0.23564 0.16573 0.0
H1046 H 0.47111 0.23738 0.35675 0.0
H1047 H 0.4667 0.26547 0.34576 0.0
H1048 H 0.45699 0.1965 0.34217 0.0
H1049 H 0.45885 0.1768 0.3059 0.0
C1050 C 0.23518 0.45476 0.22146 0.0
C1051 C 0.25434 0.45678 0.24905 0.0
C1052 C 0.22435 0.45835 0.29773 0.0
C1053 C 0.20483 0.45557 0.27021 0.0
N1054 N 0.19448 0.45853 0.20618 0.0
N1055 N 0.27121 0.4678 0.31168 0.0
C1056 C 0.21125 0.45627 0.23208 0.0
C1057 C 0.25025 0.4611 0.28667 0.0
N1058 N 0.23916 0.45 0.18542 0.0
N1059 N 0.21752 0.45687 0.33438 0.0
H1060 H 0.29038 0.46992 0.30415 0.0
H1061 H 0.27065 0.47371 0.3389 0.0
H1062 H 0.19898 0.45542 0.34347 0.0
H1063 H 0.22938 0.45544 0.35572 0.0
H1064 H 0.22431 0.44492 0.16468 0.0
H1065 H 0.25688 0.44965 0.17654 0.0
H1066 H 0.19931 0.46171 0.17809 0.0
H1067 H 0.17685 0.45974 0.21329 0.0
C1068 C 0.77616 0.24107 0.22378 0.0
C1069 C 0.79672 0.25731 0.2505 0.0
C1070 C 0.76675 0.22678 0.30011 0.0
C1071 C 0.74855 0.20812 0.27283 0.0
N1072 N 0.73414 0.19737 0.20921 0.0
N1073 N 0.81163 0.26754 0.31402 0.0
C1074 C 0.75248 0.21549 0.23479 0.0
C1075 C 0.79178 0.25097 0.28878 0.0
N1076 N 0.77953 0.25012 0.18793 0.0
N1077 N 0.76004 0.22115 0.33674 0.0
H1078 H 0.82939 0.28621 0.30669 0.0
H1079 H 0.81116 0.26256 0.34189 0.0
H1080 H 0.74196 0.20342 0.34564 0.0
H1081 H 0.77103 0.23482 0.35821 0.0
H1082 H 0.76444 0.24064 0.16743 0.0
H1083 H 0.79682 0.26864 0.17921 0.0
H1084 H 0.73727 0.19964 0.18071 0.0
H1085 H 0.71588 0.1792 0.21665 0.0
C1086 C 0.54015 0.79052 0.28758 0.0
C1087 C 0.5407 0.79721 0.24962 0.0
C1088 C 0.53615 0.75229 0.23246 0.0
C1089 C 0.54129 0.7484 0.26977 0.0
N1090 N 0.54873 0.76375 0.3334 0.0
N1091 N 0.5397 0.78499 0.18527 0.0
C1092 C 0.54289 0.76721 0.29768 0.0
C1093 C 0.53825 0.77798 0.22181 0.0
N1094 N 0.53718 0.80665 0.31382 0.0
N1095 N 0.52947 0.73143 0.2073 0.0
H1096 H 0.54084 0.80343 0.17651 0.0
H1097 H 0.54144 0.77339 0.1638 0.0
H1098 H 0.52777 0.7124 0.21461 0.0
H1099 H 0.52306 0.73189 0.18031 0.0
H1100 H 0.53418 0.80157 0.34185 0.0
H1101 H 0.53501 0.82377 0.30693 0.0
H1102 H 0.55347 0.77851 0.35417 0.0
H1103 H 0.5505 0.74672 0.3418 0.0
C1104 C 0.75497 0.54392 0.2891 0.0
C1105 C 0.75015 0.54636 0.25112 0.0
C1106 C 0.79121 0.54289 0.23451 0.0
C1107 C 0.79881 0.54586 0.2724 0.0
N1108 N 0.78847 0.54951 0.33635 0.0
N1109 N 0.76333 0.54835 0.18706 0.0
C1110 C 0.78058 0.54592 0.29999 0.0
C1111 C 0.76789 0.54537 0.22354 0.0
N1112 N 0.73502 0.53976 0.31462 0.0
N1113 N 0.80644 0.53776 0.20916 0.0
H1114 H 0.74612 0.54959 0.17804 0.0
H1115 H 0.77732 0.55117 0.16596 0.0
H1116 H 0.82354 0.53573 0.2167 0.0
H1117 H 0.80068 0.53294 0.1815 0.0
H1118 H 0.73606 0.53528 0.34238 0.0
H1119 H 0.71607 0.53821 0.30723 0.0
H1120 H 0.77777 0.55316 0.35731 0.0
H1121 H 0.80675 0.55039 0.34534 0.0
C1122 C 0.24529 0.79661 0.23224 0.0
C1123 C 0.25039 0.80328 0.27043 0.0
C1124 C 0.20723 0.76046 0.28686 0.0
C1125 C 0.20157 0.75436 0.24861 0.0
N1126 N 0.21697 0.76294 0.18512 0.0
N1127 N 0.2399 0.7897 0.33437 0.0
C1128 C 0.2213 0.77124 0.22136 0.0
C1129 C 0.23253 0.78448 0.29786 0.0
N1130 N 0.26292 0.81514 0.20644 0.0
N1131 N 0.18789 0.74371 0.31252 0.0
H1132 H 0.25797 0.80742 0.34321 0.0
H1133 H 0.22938 0.77575 0.35575 0.0
H1134 H 0.16991 0.72513 0.30552 0.0
H1135 H 0.18889 0.74855 0.34053 0.0
H1136 H 0.25887 0.81345 0.17813 0.0
H1137 H 0.28144 0.83316 0.21353 0.0
H1138 H 0.23162 0.77265 0.1642 0.0
H1139 H 0.19922 0.74492 0.1762 0.0
C1140 C 0.54278 0.78837 0.73294 0.0
C1141 C 0.54262 0.79405 0.77123 0.0
C1142 C 0.54034 0.74989 0.78723 0.0
C1143 C 0.54241 0.74513 0.74904 0.0
N1144 N 0.53937 0.75583 0.6852 0.0
N1145 N 0.53501 0.77823 0.83446 0.0
C1146 C 0.54142 0.76305 0.72175 0.0
C1147 C 0.53919 0.774 0.79827 0.0
N1148 N 0.5454 0.80782 0.70746 0.0
N1149 N 0.54059 0.73184 0.81286 0.0
H1150 H 0.53451 0.79589 0.84326 0.0
H1151 H 0.53004 0.76357 0.85537 0.0
H1152 H 0.53979 0.71322 0.80549 0.0
H1153 H 0.54247 0.73549 0.84127 0.0
H1154 H 0.54902 0.80684 0.67937 0.0
H1155 H 0.54486 0.82579 0.71472 0.0
H1156 H 0.53616 0.76651 0.66384 0.0
H1157 H 0.53883 0.73768 0.67632 0.0
C1158 C 0.78432 0.556 0.72402 0.0
C1159 C 0.80161 0.55499 0.75227 0.0
C1160 C 0.77017 0.5552 0.79982 0.0
C1161 C 0.75249 0.55546 0.77155 0.0
N1162 N 0.73892 0.54926 0.70731 0.0
N1163 N 0.8078 0.54675 0.81613 0.0
C1164 C 0.75834 0.55359 0.73378 0.0
C1165 C 0.79342 0.55229 0.78992 0.0
N1166 N 0.79336 0.56079 0.68813 0.0
N1167 N 0.76565 0.55923 0.83593 0.0
H1168 H 0.82488 0.5444 0.80965 0.0
H1169 H 0.80126 0.54186 0.84353 0.0
H1170 H 0.74893 0.56157 0.84422 0.0
H1171 H 0.77961 0.56243 0.85725 0.0
H1172 H 0.78316 0.56492 0.66697 0.0
H1173 H 0.81229 0.56275 0.67997 0.0
H1174 H 0.74078 0.54497 0.6797 0.0
H1175 H 0.71964 0.54733 0.71366 0.0
C1176 C 0.24515 0.79449 0.7854 0.0
C1177 C 0.2508 0.80028 0.74712 0.0
C1178 C 0.20811 0.75692 0.73097 0.0
C1179 C 0.2018 0.75176 0.76924 0.0
N1180 N 0.21616 0.76188 0.83304 0.0
N1181 N 0.24163 0.78507 0.68361 0.0
C1182 C 0.22105 0.76932 0.79653 0.0
C1183 C 0.23355 0.78074 0.71993 0.0
N1184 N 0.26234 0.81366 0.81097 0.0
N1185 N 0.18925 0.7395 0.70529 0.0
H1186 H 0.25994 0.80254 0.67477 0.0
H1187 H 0.23151 0.77061 0.66259 0.0
H1188 H 0.17117 0.72108 0.71245 0.0
H1189 H 0.19076 0.74365 0.67702 0.0
H1190 H 0.25787 0.8126 0.83911 0.0
H1191 H 0.28094 0.83153 0.80376 0.0
H1192 H 0.23045 0.77213 0.85419 0.0
H1193 H 0.1983 0.74404 0.84206 0.0
C1194 C 0.46022 0.22429 0.80068 0.0
C1195 C 0.4609 0.20638 0.77314 0.0
C1196 C 0.46556 0.23939 0.7246 0.0
C1197 C 0.46007 0.2547 0.75149 0.0
N1198 N 0.45449 0.26404 0.81507 0.0
N1199 N 0.46635 0.19696 0.70957 0.0
C1200 C 0.45859 0.2481 0.78966 0.0
C1201 C 0.46475 0.21425 0.73529 0.0
N1202 N 0.46088 0.21825 0.83724 0.0
N1203 N 0.47124 0.24883 0.68891 0.0
H1204 H 0.4673 0.17922 0.71691 0.0
H1205 H 0.46593 0.19951 0.68108 0.0
H1206 H 0.47161 0.26698 0.68039 0.0
H1207 H 0.4776 0.24007 0.66833 0.0
H1208 H 0.46262 0.23135 0.859 0.0
H1209 H 0.46178 0.20078 0.84583 0.0
H1210 H 0.44995 0.25883 0.84288 0.0
H1211 H 0.45486 0.28249 0.80797 0.0
C1212 C 0.22175 0.45631 0.72198 0.0
C1213 C 0.20171 0.45312 0.74894 0.0
C1214 C 0.23132 0.45203 0.79854 0.0
C1215 C 0.25095 0.45437 0.77149 0.0
N1216 N 0.26886 0.46598 0.70939 0.0
N1217 N 0.19014 0.45526 0.81267 0.0
C1218 C 0.24748 0.45902 0.73378 0.0
C1219 C 0.20747 0.45344 0.78724 0.0
N1220 N 0.21556 0.45527 0.68514 0.0
N1221 N 0.23486 0.44714 0.8347 0.0
H1222 H 0.17256 0.4564 0.80504 0.0
H1223 H 0.19442 0.45812 0.84092 0.0
H1224 H 0.25257 0.44694 0.84406 0.0
H1225 H 0.21972 0.44186 0.85506 0.0
H1226 H 0.22781 0.45414 0.66411 0.0
H1227 H 0.19718 0.45392 0.67553 0.0
H1228 H 0.26875 0.47214 0.68218 0.0
H1229 H 0.28789 0.46801 0.71741 0.0
C1230 C 0.75016 0.21128 0.78932 0.0
C1231 C 0.74631 0.20403 0.75121 0.0
C1232 C 0.78976 0.24675 0.73567 0.0
C1233 C 0.79462 0.25289 0.77401 0.0
N1234 N 0.77732 0.24568 0.83649 0.0
N1235 N 0.75808 0.21725 0.68743 0.0
C1236 C 0.77395 0.2367 0.80058 0.0
C1237 C 0.76467 0.22272 0.72412 0.0
N1238 N 0.73161 0.19319 0.81472 0.0
N1239 N 0.80976 0.2633 0.71061 0.0
H1240 H 0.73999 0.19961 0.67838 0.0
H1241 H 0.76918 0.23097 0.66609 0.0
H1242 H 0.82763 0.28182 0.71813 0.0
H1243 H 0.80931 0.25843 0.68269 0.0
H1244 H 0.73463 0.19536 0.84324 0.0
H1245 H 0.71327 0.17517 0.80706 0.0
H1246 H 0.7622 0.23621 0.85693 0.0
H1247 H 0.79469 0.26413 0.84534 0.0
C1248 C 0.41126 0.03091 0.27947 0.0
C1249 C 0.40988 0.02936 0.24006 0.0
C1250 C 0.38432 0.97826 0.24375 0.0
C1251 C 0.38504 0.97977 0.28319 0.0
N1252 N 0.39041 0.00751 0.3373 0.0
N1253 N 0.38627 0.00182 0.18634 0.0
C1254 C 0.39545 0.00614 0.30054 0.0
C1255 C 0.39324 0.00307 0.22286 0.0
N1256 N 0.4292 0.05525 0.29711 0.0
N1257 N 0.37758 0.95393 0.22581 0.0
H1258 H 0.39205 0.01973 0.17061 0.0
H1259 H 0.37226 0.98326 0.17313 0.0
H1260 H 0.37237 0.93533 0.23918 0.0
H1261 H 0.37989 0.95292 0.19729 0.0
H1262 H 0.43307 0.0563 0.32549 0.0
H1263 H 0.44216 0.07388 0.28349 0.0
H1264 H 0.39551 0.02616 0.35069 0.0
H1265 H 0.3783 0.98969 0.35317 0.0
C1266 C 0.38343 0.41002 0.27981 0.0
C1267 C 0.38447 0.40901 0.24041 0.0
C1268 C 0.41177 0.3853 0.24526 0.0
C1269 C 0.41012 0.38566 0.28461 0.0
N1270 N 0.38598 0.3894 0.33785 0.0
N1271 N 0.39088 0.38676 0.18694 0.0
C1272 C 0.39296 0.39489 0.3013 0.0
C1273 C 0.39557 0.39345 0.22367 0.0
N1274 N 0.37571 0.42706 0.29716 0.0
N1275 N 0.43035 0.37954 0.22817 0.0
H1276 H 0.3785 0.39189 0.17069 0.0
H1277 H 0.39661 0.37356 0.17394 0.0
H1278 H 0.44373 0.37465 0.24226 0.0
H1279 H 0.43436 0.38225 0.19981 0.0
H1280 H 0.37789 0.43073 0.32562 0.0
H1281 H 0.3696 0.43959 0.28337 0.0
H1282 H 0.37159 0.39356 0.3507 0.0
H1283 H 0.39221 0.37785 0.35403 0.0
C1284 C 1.0013 0.39385 0.29814 0.0
C1285 C 0.02702 0.41034 0.27954 0.0
C1286 C 1.00206 0.39462 0.22031 0.0
C1287 C 0.97624 0.38454 0.23903 0.0
N1288 N 0.95174 0.37655 0.29752 0.0
N1289 N 0.05152 0.42763 0.22125 0.0
C1290 C 0.97581 0.38406 0.27847 0.0
C1291 C 0.0275 0.41061 0.24009 0.0
N1292 N 1.00129 0.38776 0.33481 0.0
N1293 N 1.00217 0.38915 0.18343 0.0
H1294 H 0.07062 0.4404 0.23397 0.0
H1295 H 0.05207 0.43073 0.19274 0.0
H1296 H 0.98378 0.37711 0.16855 0.0
H1297 H 0.02025 0.3939 0.16884 0.0
H1298 H 0.98327 0.37387 0.34911 0.0
H1299 H 0.01971 0.39419 0.34962 0.0
H1300 H 0.95134 0.37932 0.32603 0.0
H1301 H 0.93248 0.36967 0.28499 0.0
C1302 C 0.59443 0.97637 0.27736 0.0
C1303 C 0.59559 0.97757 0.23796 0.0
C1304 C 0.62234 0.02881 0.24107 0.0
C1305 C 0.62147 0.02754 0.2805 0.0
N1306 N 0.61594 1.0 0.33483 0.0
N1307 N 0.61918 0.00444 0.18379 0.0
C1308 C 0.61076 1.00121 0.29809 0.0
C1309 C 0.61255 0.00368 0.22039 0.0
N1310 N 0.57621 0.95234 0.29535 0.0
N1311 N 0.63036 0.05334 0.22298 0.0
H1312 H 0.61284 0.98633 0.16825 0.0
H1313 H 0.63337 0.02271 0.17023 0.0
H1314 H 0.63701 0.0723 0.23625 0.0
H1315 H 0.62825 0.05446 0.19445 0.0
H1316 H 0.57254 0.95161 0.32376 0.0
H1317 H 0.56279 0.93372 0.28198 0.0
H1318 H 0.61052 0.98137 0.34845 0.0
H1319 H 0.62843 0.01788 0.35044 0.0
C1320 C 0.61195 0.6114 0.29758 0.0
C1321 C 0.59717 0.62289 0.27967 0.0
C1322 C 0.61219 0.61368 0.21985 0.0
C1323 C 0.62061 0.59624 0.23764 0.0
N1324 N 0.62475 0.57573 0.29502 0.0
N1325 N 0.58112 0.63239 0.2218 0.0
C1326 C 0.62002 0.59469 0.27701 0.0
C1327 C 0.59713 0.6239 0.24023 0.0
N1328 N 0.61801 0.61622 0.33446 0.0
N1329 N 0.61844 0.62032 0.18333 0.0
H1330 H 0.569 0.63938 0.23482 0.0
H1331 H 0.57799 0.63022 0.19324 0.0
H1332 H 0.62996 0.61358 0.16798 0.0
H1333 H 0.61495 0.63489 0.16971 0.0
H1334 H 0.63066 0.61018 0.34828 0.0
H1335 H 0.61301 0.62904 0.34999 0.0
H1336 H 0.62127 0.57183 0.32333 0.0
H1337 H 0.62943 0.56193 0.28164 0.0
C1338 C 0.99528 0.6212 0.2768 0.0
C1339 C 0.9766 0.59203 0.27885 0.0
C1340 C 0.0092 0.58346 0.24406 0.0
C1341 C 0.02672 0.61251 0.23779 0.0
N1342 N 0.03409 0.65916 0.24393 0.0
N1343 N 0.96198 0.54648 0.2536 0.0
C1344 C 0.01917 0.63157 0.253 0.0
C1345 C 0.98232 0.57359 0.25876 0.0
N1346 N 0.9905 0.6388 0.29796 0.0
N1347 N 0.01876 0.56527 0.23835 0.0
H1348 H 0.94162 0.53871 0.26312 0.0
H1349 H 0.96467 0.53281 0.2365 0.0
H1350 H 0.03937 0.57174 0.23123 0.0
H1351 H 0.00723 0.54423 0.24553 0.0
H1352 H 0.00479 0.66 0.30068 0.0
H1353 H 0.9727 0.63167 0.31439 0.0
H1354 H 0.02807 0.67353 0.25152 0.0
H1355 H 0.05129 0.66725 0.2263 0.0
C1356 C 0.59138 0.97237 0.74263 0.0
C1357 C 0.59315 0.97341 0.782 0.0
C1358 C 0.62109 0.02456 0.77932 0.0
C1359 C 0.61965 0.02347 0.73988 0.0
N1360 N 0.61236 0.99591 0.68496 0.0
N1361 N 0.61786 0.99965 0.83604 0.0
C1362 C 0.60793 0.99716 0.72196 0.0
C1363 C 0.61092 0.99927 0.79965 0.0
N1364 N 0.57241 0.9486 0.72476 0.0
N1365 N 0.6299 0.04911 0.79782 0.0
H1366 H 0.61113 0.98138 0.85133 0.0
H1367 H 0.63265 0.01768 0.84955 0.0
H1368 H 0.63691 0.06823 0.78488 0.0
H1369 H 0.62802 0.05011 0.82644 0.0
H1370 H 0.56828 0.94808 0.6965 0.0
H1371 H 0.55892 0.93006 0.7382 0.0
H1372 H 0.60617 0.97721 0.67102 0.0
H1373 H 0.625 0.01373 0.66935 0.0
C1374 C 0.62607 0.61132 0.76803 0.0
C1375 C 0.60797 0.58478 0.78415 0.0
C1376 C 0.56771 0.58694 0.76063 0.0
C1377 C 0.58543 0.61107 0.73993 0.0
N1378 N 0.63176 0.64557 0.72129 0.0
N1379 N 0.56175 0.54383 0.78446 0.0
C1380 C 0.6148 0.6232 0.7429 0.0
C1381 C 0.57882 0.57161 0.77732 0.0
N1382 N 0.65362 0.62547 0.77751 0.0
N1383 N 0.54016 0.5788 0.76484 0.0
H1384 H 0.56917 0.53078 0.79319 0.0
H1385 H 0.54075 0.53306 0.77696 0.0
H1386 H 0.53149 0.59031 0.75425 0.0
H1387 H 0.52689 0.56252 0.78231 0.0
H1388 H 0.66728 0.6459 0.7693 0.0
H1389 H 0.66232 0.61755 0.79611 0.0
H1390 H 0.65321 0.65362 0.71927 0.0
H1391 H 0.62397 0.655 0.70368 0.0
C1392 C 0.01443 0.62665 0.77184 0.0
C1393 C 0.02676 0.61022 0.78082 0.0
C1394 C 0.98681 0.5692 0.75413 0.0
C1395 C 0.97584 0.58588 0.74101 0.0
N1396 N 0.98038 0.6312 0.7341 0.0
N1397 N 0.02851 0.56808 0.76945 0.0
C1398 C 0.98994 0.6149 0.74898 0.0
C1399 C 0.0141 0.58218 0.76854 0.0
N1400 N 0.02558 0.65299 0.78586 0.0
N1401 N 0.97075 0.54075 0.75417 0.0
H1402 H 0.04928 0.57731 0.77791 0.0
H1403 H 0.02091 0.5484 0.75763 0.0
H1404 H 0.94991 0.53025 0.74583 0.0
H1405 H 0.97713 0.52785 0.76652 0.0
H1406 H 0.01608 0.66506 0.78338 0.0
H1407 H 0.04362 0.66209 0.80203 0.0
H1408 H 0.99118 0.65288 0.73582 0.0
H1409 H 0.96232 0.62297 0.718 0.0
C1410 C 0.39146 0.99971 0.79823 0.0
C1411 C 0.40645 0.02627 0.78109 0.0
C1412 C 0.39153 0.00304 0.72062 0.0
C1413 C 0.38304 0.97688 0.73757 0.0
N1414 N 0.37849 0.95125 0.79417 0.0
N1415 N 0.42284 0.05273 0.72389 0.0
C1416 C 0.38341 0.97525 0.7769 0.0
C1417 C 0.40664 0.02797 0.74168 0.0
N1418 N 0.38524 0.99791 0.83509 0.0
N1419 N 0.38533 0.00405 0.68423 0.0
H1420 H 0.43505 0.07163 0.73736 0.0
H1421 H 0.42604 0.05409 0.69533 0.0
H1422 H 0.37376 0.98605 0.6684 0.0
H1423 H 0.38891 0.02236 0.67124 0.0
H1424 H 0.37245 0.979 0.84839 0.0
H1425 H 0.39024 0.01549 0.85116 0.0
H1426 H 0.38179 0.95034 0.82245 0.0
H1427 H 0.3738 0.93296 0.78024 0.0
C1428 C 0.38046 0.40634 0.7459 0.0
C1429 C 0.38092 0.40656 0.78533 0.0
C1430 C 0.40592 0.38029 0.78476 0.0
C1431 C 0.40573 0.38046 0.74532 0.0
N1432 N 0.38351 0.38387 0.68988 0.0
N1433 N 0.38523 0.38549 0.84137 0.0
C1434 C 0.38963 0.39004 0.72653 0.0
C1435 C 0.39058 0.39059 0.80439 0.0
N1436 N 0.37369 0.42335 0.72659 0.0
N1437 N 0.42218 0.37236 0.80367 0.0
H1438 H 0.37367 0.39247 0.85614 0.0
H1439 H 0.38962 0.37203 0.85625 0.0
H1440 H 0.43401 0.36489 0.79098 0.0
H1441 H 0.42538 0.37489 0.83217 0.0
H1442 H 0.37649 0.42629 0.69805 0.0
H1443 H 0.36762 0.43646 0.73892 0.0
H1444 H 0.36992 0.38833 0.67541 0.0
H1445 H 0.3896 0.3715 0.67527 0.0
C1446 C 0.99842 0.38985 0.71745 0.0
C1447 C 0.02419 0.40659 0.73598 0.0
C1448 C 0.99976 0.38949 0.79518 0.0
C1449 C 0.97373 0.37924 0.77697 0.0
N1450 N 0.94846 0.37053 0.71913 0.0
N1451 N 0.04864 0.42412 0.79435 0.0
C1452 C 0.97295 0.37902 0.73757 0.0
C1453 C 0.02488 0.40645 0.7754 0.0
N1454 N 0.99835 0.38441 0.68052 0.0
N1455 N 1.00033 0.38347 0.83174 0.0
H1456 H 0.06746 0.43789 0.78172 0.0
H1457 H 0.04899 0.42693 0.82295 0.0
H1458 H 0.98212 0.37071 0.8466 0.0
H1459 H 0.01869 0.38849 0.84582 0.0
H1460 H 0.9804 0.37043 0.66615 0.0
H1461 H 0.01675 0.39153 0.66538 0.0
H1462 H 0.94754 0.37346 0.69075 0.0
H1463 H 0.92918 0.36221 0.73215 0.0
C1464 C 0.53204 0.08929 0.25639 0.0
C1465 C 0.53548 0.11501 0.24348 0.0
C1466 C 0.58103 0.13939 0.27509 0.0
C1467 C 0.57868 0.11317 0.2834 0.0
N1468 N 0.55543 0.0637 0.2703 0.0
N1469 N 0.56449 0.16478 0.23745 0.0
C1470 C 0.55522 0.08829 0.27054 0.0
C1471 C 0.56034 0.14026 0.25203 0.0
N1472 N 0.50631 0.06576 0.25621 0.0
N1473 N 0.60241 0.16318 0.2899 0.0
H1474 H 0.54956 0.16594 0.22113 0.0
H1475 H 0.58329 0.1835 0.2396 0.0
H1476 H 0.61775 0.16308 0.30655 0.0
H1477 H 0.60384 0.1826 0.28779 0.0
H1478 H 0.50252 0.04707 0.26825 0.0
H1479 H 0.48823 0.06584 0.24823 0.0
H1480 H 0.53963 0.04557 0.25811 0.0
H1481 H 0.57282 0.06224 0.27801 0.0
C1482 C 0.44654 0.58064 0.27209 0.0
C1483 C 0.46987 0.57805 0.28281 0.0
C1484 C 0.44766 0.53117 0.25621 0.0
C1485 C 0.42608 0.53486 0.24119 0.0
N1486 N 0.40584 0.56405 0.23196 0.0
N1487 N 0.49588 0.55397 0.27445 0.0
C1488 C 0.42565 0.55988 0.2484 0.0
C1489 C 0.47135 0.55421 0.27178 0.0
N1490 N 0.44399 0.60237 0.28528 0.0
N1491 N 0.44523 0.50534 0.25657 0.0
H1492 H 0.51451 0.57117 0.28321 0.0
H1493 H 0.49849 0.53796 0.26362 0.0
H1494 H 0.42752 0.48745 0.24704 0.0
H1495 H 0.45934 0.50121 0.27028 0.0
H1496 H 0.42625 0.60404 0.28142 0.0
H1497 H 0.45895 0.61779 0.30237 0.0
H1498 H 0.40599 0.58292 0.23303 0.0
H1499 H 0.39014 0.54901 0.21524 0.0
C1500 C 0.91899 0.46808 0.28954 0.0
C1501 C 0.89485 0.47063 0.29544 0.0
C1502 C 0.86823 0.43006 0.25429 0.0
C1503 C 0.89196 0.4268 0.25101 0.0
N1504 N 0.93676 0.43725 0.27502 0.0
N1505 N 0.845 0.45022 0.28915 0.0
C1506 C 0.91619 0.44396 0.27196 0.0
C1507 C 0.86895 0.45048 0.27942 0.0
N1508 N 0.94511 0.48949 0.29796 0.0
N1509 N 0.84536 0.41416 0.23284 0.0
H1510 H 0.84466 0.46411 0.30836 0.0
H1511 H 0.82524 0.43466 0.28092 0.0
H1512 H 0.84406 0.39852 0.21537 0.0
H1513 H 0.82851 0.41753 0.23083 0.0
H1514 H 0.96326 0.48944 0.29046 0.0
H1515 H 0.94924 0.50879 0.308 0.0
H1516 H 0.95363 0.44753 0.29305 0.0
H1517 H 0.9354 0.41955 0.26273 0.0
C1518 C 0.44484 0.91823 0.26283 0.0
C1519 C 0.42252 0.89266 0.27604 0.0
C1520 C 0.44298 0.86777 0.24401 0.0
C1521 C 0.46695 0.89383 0.23536 0.0
N1522 N 0.49369 0.94335 0.24788 0.0
N1523 N 0.40125 0.84284 0.28214 0.0
C1524 C 0.46874 0.9189 0.2481 0.0
C1525 C 0.42172 0.86723 0.26736 0.0
N1526 N 0.44298 0.94194 0.26345 0.0
N1527 N 0.44022 0.84381 0.22927 0.0
H1528 H 0.38533 0.84191 0.29863 0.0
H1529 H 0.40105 0.82399 0.27995 0.0
H1530 H 0.45545 0.84366 0.21244 0.0
H1531 H 0.42212 0.82448 0.23163 0.0
H1532 H 0.45785 0.96055 0.25117 0.0
H1533 H 0.42511 0.94213 0.27216 0.0
H1534 H 0.49636 0.96164 0.25995 0.0
H1535 H 0.51237 0.94455 0.23991 0.0
C1536 C 0.58117 0.44523 0.25063 0.0
C1537 C 0.58054 0.47011 0.24301 0.0
C1538 C 0.53488 0.45033 0.27271 0.0
C1539 C 0.53639 0.42654 0.28392 0.0
N1540 N 0.56272 0.40272 0.28742 0.0
N1541 N 0.55883 0.49812 0.25602 0.0
C1542 C 0.56002 0.42425 0.27385 0.0
C1543 C 0.5583 0.47324 0.25699 0.0
N1544 N 0.60135 0.44129 0.23487 0.0
N1545 N 0.5108 0.45128 0.27673 0.0
H1546 H 0.57591 0.51688 0.24735 0.0
H1547 H 0.57591 0.51688 0.24735 0.0
H1548 H 0.49187 0.43402 0.28449 0.0
H1549 H 0.50929 0.46866 0.26905 0.0
H1550 H 0.60137 0.42251 0.23615 0.0
H1551 H 0.6172 0.4564 0.21844 0.0
H1552 H 0.58066 0.40132 0.28419 0.0
H1553 H 0.54763 0.38717 0.30421 0.0
C1554 C 0.12399 0.5859 0.27623 0.0
C1555 C 0.12414 0.58534 0.23677 0.0
C1556 C 0.12415 0.54087 0.23866 0.0
C1557 C 0.12359 0.54126 0.27805 0.0
N1558 N 0.13327 0.56893 0.33336 0.0
N1559 N 0.13153 0.56505 0.18132 0.0
C1560 C 0.12698 0.56545 0.29644 0.0
C1561 C 0.12692 0.56409 0.21849 0.0
N1562 N 0.11869 0.60431 0.29471 0.0
N1563 N 0.12103 0.51811 0.21972 0.0
H1564 H 0.135 0.58183 0.1645 0.0
H1565 H 0.135 0.58183 0.1645 0.0
H1566 H 0.11766 0.4998 0.23232 0.0
H1567 H 0.12085 0.51728 0.1908 0.0
H1568 H 0.11499 0.60317 0.32313 0.0
H1569 H 0.11556 0.61927 0.28169 0.0
H1570 H 0.13851 0.58727 0.34765 0.0
H1571 H 0.13629 0.55465 0.34863 0.0
C1572 C 0.44148 0.86319 0.7699 0.0
C1573 C 0.46611 0.88865 0.77863 0.0
C1574 C 0.44575 0.91477 0.75144 0.0
C1575 C 0.42262 0.88973 0.73831 0.0
N1576 N 0.39968 0.83977 0.73161 0.0
N1577 N 0.49467 0.93799 0.76592 0.0
C1578 C 0.42072 0.86371 0.74663 0.0
C1579 C 0.46913 0.91421 0.76575 0.0
N1580 N 0.43761 0.83878 0.78456 0.0
N1581 N 0.44506 0.93912 0.75172 0.0
H1582 H 0.51292 0.93826 0.7739 0.0
H1583 H 0.49814 0.95656 0.75383 0.0
H1584 H 0.4275 0.94024 0.74392 0.0
H1585 H 0.46061 0.95734 0.76407 0.0
H1586 H 0.41898 0.81992 0.78225 0.0
H1587 H 0.45252 0.83785 0.8012 0.0
H1588 H 0.39865 0.82052 0.73367 0.0
H1589 H 0.38424 0.8396 0.71486 0.0
C1590 C 0.53785 0.42029 0.78212 0.0
C1591 C 0.53842 0.42114 0.7427 0.0
C1592 C 0.58378 0.46444 0.74475 0.0
C1593 C 0.58343 0.46324 0.78417 0.0
N1594 N 0.56502 0.43485 0.83873 0.0
N1595 N 0.56618 0.43868 0.68737 0.0
C1596 C 0.56211 0.43929 0.80221 0.0
C1597 C 0.56291 0.44142 0.72436 0.0
N1598 N 0.51374 0.40312 0.80073 0.0
N1599 N 0.60247 0.48815 0.72656 0.0
H1600 H 0.55154 0.42169 0.67192 0.0
H1601 H 0.58466 0.4515 0.67319 0.0
H1602 H 0.61785 0.50591 0.73977 0.0
H1603 H 0.6012 0.49102 0.69824 0.0
H1604 H 0.51172 0.40427 0.8293 0.0
H1605 H 0.49497 0.3896 0.78773 0.0
H1606 H 0.55117 0.41662 0.85267 0.0
H1607 H 0.583 0.44808 0.85373 0.0
C1608 C 0.12017 0.53739 0.77923 0.0
C1609 C 0.12021 0.53818 0.7398 0.0
C1610 C 0.12128 0.58308 0.74211 0.0
C1611 C 0.12208 0.5827 0.78154 0.0
N1612 N 0.13158 0.56402 0.8363 0.0
N1613 N 0.1304 0.56624 0.68478 0.0
C1614 C 0.12477 0.56138 0.79957 0.0
C1615 C 0.1241 0.56262 0.72168 0.0
N1616 N 0.11363 0.51328 0.79756 0.0
N1617 N 0.11559 0.6013 0.72391 0.0
H1618 H 0.13337 0.55197 0.66936 0.0
H1619 H 0.13572 0.58468 0.67074 0.0
H1620 H 0.11236 0.61614 0.73714 0.0
H1621 H 0.11151 0.59995 0.69556 0.0
H1622 H 0.11013 0.51093 0.82604 0.0
H1623 H 0.10915 0.4948 0.78434 0.0
H1624 H 0.13605 0.55025 0.85026 0.0
H1625 H 0.13576 0.58171 0.85161 0.0
C1626 C 0.55759 0.1335 0.77399 0.0
C1627 C 0.53341 0.10784 0.78334 0.0
C1628 C 0.5539 0.08218 0.75487 0.0
C1629 C 0.57655 0.10743 0.74141 0.0
N1630 N 0.59896 0.15733 0.73499 0.0
N1631 N 0.50543 0.05822 0.77208 0.0
C1632 C 0.57823 0.13327 0.75016 0.0
C1633 C 0.53067 0.08233 0.77061 0.0
N1634 N 0.56116 0.15782 0.78857 0.0
N1635 N 0.55491 0.058 0.75381 0.0
H1636 H 0.48723 0.05752 0.78124 0.0
H1637 H 0.50193 0.03962 0.76002 0.0
H1638 H 0.57226 0.05712 0.74435 0.0
H1639 H 0.53994 0.03962 0.76641 0.0
H1640 H 0.5795 0.1769 0.78579 0.0
H1641 H 0.54632 0.15854 0.80563 0.0
H1642 H 0.59981 0.17649 0.73726 0.0
H1643 H 0.61439 0.15771 0.718 0.0
C1644 C 0.42416 0.55949 0.76749 0.0
C1645 C 0.42099 0.53253 0.77076 0.0
C1646 C 0.46144 0.54643 0.73074 0.0
C1647 C 0.46447 0.57347 0.72579 0.0
N1648 N 0.44451 0.6032 0.73336 0.0
N1649 N 0.43342 0.49873 0.74989 0.0
C1650 C 0.44461 0.57932 0.74251 0.0
C1651 C 0.43829 0.52553 0.75003 0.0
N1652 N 0.40822 0.56637 0.78903 0.0
N1653 N 0.48087 0.5398 0.71923 0.0
H1654 H 0.41617 0.48223 0.76272 0.0
H1655 H 0.44587 0.49277 0.73525 0.0
H1656 H 0.50016 0.55358 0.70759 0.0
H1657 H 0.50016 0.55358 0.70759 0.0
H1658 H 0.41155 0.58656 0.79129 0.0
H1659 H 0.39254 0.55194 0.80635 0.0
H1660 H 0.42914 0.60755 0.74196 0.0
H1661 H 0.45835 0.61752 0.71422 0.0
C1662 C 0.87639 0.43891 0.72218 0.0
C1663 C 0.8808 0.46369 0.7399 0.0
C1664 C 0.88021 0.44242 0.79988 0.0
C1665 C 0.88258 0.42099 0.78159 0.0
N1666 N 0.886 0.40093 0.72339 0.0
N1667 N 0.8904 0.49014 0.79699 0.0
C1668 C 0.88097 0.41939 0.74219 0.0
C1669 C 0.88314 0.46564 0.77922 0.0
N1670 N 0.86802 0.43416 0.68601 0.0
N1671 N 0.87524 0.44062 0.83712 0.0
H1672 H 0.89388 0.50822 0.78355 0.0
H1673 H 0.89551 0.49328 0.82505 0.0
H1674 H 0.87227 0.4235 0.85279 0.0
H1675 H 0.87095 0.45443 0.85138 0.0
H1676 H 0.86215 0.41537 0.67253 0.0
H1677 H 0.864 0.44786 0.67095 0.0
H1678 H 0.88818 0.40133 0.69468 0.0
H1679 H 0.89062 0.38689 0.73617 0.0
C1680 C 0.48166 0.14725 0.03 0.0
C1681 C 0.45666 0.13043 0.04988 0.0
C1682 C 0.43033 0.1149 0.99184 0.0
C1683 C 0.45582 0.12892 0.97207 0.0
N1684 N 0.50396 0.16469 0.97015 0.0
N1685 N 0.40669 0.10527 0.05152 0.0
C1686 C 0.4809 0.1475 0.99057 0.0
C1687 C 0.43071 0.11687 0.03122 0.0
N1688 N 0.50622 0.16149 0.04895 0.0
N1689 N 0.40617 0.09847 0.97293 0.0
H1690 H 0.40691 0.10667 0.08038 0.0
H1691 H 0.38683 0.09634 0.04004 0.0
H1692 H 0.40539 0.09776 0.94403 0.0
H1693 H 0.38716 0.08518 0.98553 0.0
H1694 H 0.52575 0.17166 0.03643 0.0
H1695 H 0.50699 0.16251 0.07783 0.0
H1696 H 0.52265 0.18009 0.98149 0.0
H1697 H 0.50355 0.16494 0.94124 0.0
C1698 C 0.33431 0.48104 0.03129 0.0
C1699 C 0.3304 0.45654 0.04909 0.0
C1700 C 0.32126 0.43273 0.989 0.0
C1701 C 0.33074 0.45873 0.97114 0.0
N1702 N 0.34264 0.50675 0.97349 0.0
N1703 N 0.31642 0.40796 0.04677 0.0
C1704 C 0.33548 0.4825 0.99182 0.0
C1705 C 0.32201 0.4318 0.02845 0.0
N1706 N 0.33761 0.50298 0.0524 0.0
N1707 N 0.31227 0.40924 0.96797 0.0
H1708 H 0.31563 0.40668 0.07565 0.0
H1709 H 0.31302 0.38973 0.03387 0.0
H1710 H 0.31172 0.40965 0.9391 0.0
H1711 H 0.30356 0.38919 0.97874 0.0
H1712 H 0.33911 0.52111 0.04171 0.0
H1713 H 0.33684 0.50214 0.08128 0.0
H1714 H 0.34924 0.52585 0.9864 0.0
H1715 H 0.34234 0.50775 0.94462 0.0
C1716 C 0.85705 0.34132 0.03007 0.0
C1717 C 0.87624 0.33683 0.05059 0.0
C1718 C 0.89217 0.32543 0.99317 0.0
C1719 C 0.87728 0.33549 0.97256 0.0
N1720 N 0.84367 0.35083 0.96999 0.0
N1721 N 0.91055 0.32237 0.0531 0.0
C1722 C 0.85861 0.34217 0.99061 0.0
C1723 C 0.8929 0.32755 0.03256 0.0
N1724 N 0.83779 0.34527 0.0486 0.0
N1725 N 0.90595 0.31435 0.97477 0.0
H1726 H 0.91054 0.32259 0.08201 0.0
H1727 H 0.92571 0.31873 0.04177 0.0
H1728 H 0.90554 0.31268 0.94594 0.0
H1729 H 0.9157 0.30477 0.98781 0.0
H1730 H 0.82181 0.34681 0.0357 0.0
H1731 H 0.83648 0.34466 0.07747 0.0
H1732 H 0.83208 0.35913 0.98122 0.0
H1733 H 0.84359 0.35045 0.94108 0.0
C1734 C 0.52017 0.85547 0.0299 0.0
C1735 C 0.5455 0.87284 0.04883 0.0
C1736 C 0.57103 0.88574 0.99004 0.0
C1737 C 0.54521 0.87172 0.97102 0.0
N1738 N 0.49666 0.83696 0.97093 0.0
N1739 N 0.59551 0.89787 0.04925 0.0
C1740 C 0.52025 0.85416 0.99048 0.0
C1741 C 0.5712 0.88549 0.02953 0.0
N1742 N 0.49599 0.84174 0.04976 0.0
N1743 N 0.59501 0.90062 0.97009 0.0
H1744 H 0.59575 0.89772 0.07817 0.0
H1745 H 0.61524 0.90648 0.03745 0.0
H1746 H 0.59519 0.9 0.94118 0.0
H1747 H 0.61447 0.91371 0.9817 0.0
H1748 H 0.47621 0.83095 0.03803 0.0
H1749 H 0.49584 0.84158 0.07868 0.0
H1750 H 0.47787 0.82243 0.98293 0.0
H1751 H 0.49656 0.83588 0.94206 0.0
C1752 C 0.67038 0.52448 0.03133 0.0
C1753 C 0.67703 0.54943 0.05045 0.0
C1754 C 0.68702 0.57475 0.99164 0.0
C1755 C 0.67699 0.54912 0.97255 0.0
N1756 N 0.66762 0.50191 0.97225 0.0
N1757 N 0.69956 0.59935 0.05078 0.0
C1758 C 0.67185 0.52479 0.99191 0.0
C1759 C 0.68838 0.57504 0.0311 0.0
N1760 N 0.66097 0.50029 0.05085 0.0
N1761 N 0.69342 0.59829 0.97202 0.0
H1762 H 0.70055 0.59961 0.07968 0.0
H1763 H 0.70975 0.61907 0.03879 0.0
H1764 H 0.69354 0.59861 0.94311 0.0
H1765 H 0.69793 0.61717 0.98406 0.0
H1766 H 0.65266 0.48067 0.03873 0.0
H1767 H 0.66087 0.49986 0.07976 0.0
H1768 H 0.66541 0.48384 0.98426 0.0
H1769 H 0.6687 0.50207 0.94336 0.0
C1770 C 0.11534 0.68716 0.9894 0.0
C1771 C 0.13016 0.67626 0.97025 0.0
C1772 C 0.14768 0.66887 0.02897 0.0
C1773 C 0.13002 0.67633 0.04816 0.0
N1774 N 0.10373 0.7 0.04864 0.0
N1775 N 0.16663 0.6649 0.96983 0.0
C1776 C 0.11634 0.68834 0.02888 0.0
C1777 C 0.1487 0.67015 0.98955 0.0
N1778 N 0.09902 0.69462 0.96974 0.0
N1779 N 0.16203 0.65896 0.04852 0.0
H1780 H 0.1675 0.66585 0.94094 0.0
H1781 H 0.18202 0.66188 0.98175 0.0
H1782 H 0.16253 0.65908 0.07743 0.0
H1783 H 0.17284 0.65011 0.03647 0.0
H1784 H 0.08524 0.69996 0.98169 0.0
H1785 H 0.09898 0.69489 0.94082 0.0
H1786 H 0.09456 0.71057 0.03676 0.0
H1787 H 0.1044 0.70088 0.07754 0.0
C1788 C 0.88976 0.58011 0.49597 0.0
C1789 C 0.87537 0.55548 0.47461 0.0
C1790 C 0.85399 0.52864 0.5311 0.0
C1791 C 0.87342 0.55173 0.55235 0.0
N1792 N 0.90783 0.60042 0.55651 0.0
N1793 N 0.84134 0.5067 0.4704 0.0
C1794 C 0.89019 0.57802 0.53528 0.0
C1795 C 0.85608 0.52997 0.49173 0.0
N1796 N 0.90368 0.60521 0.47827 0.0
N1797 N 0.83425 0.50532 0.54891 0.0
H1798 H 0.84182 0.50746 0.44151 0.0
H1799 H 0.82935 0.48668 0.48107 0.0
H1800 H 0.83269 0.50427 0.57776 0.0
H1801 H 0.81818 0.4882 0.53543 0.0
H1802 H 0.91329 0.62436 0.49185 0.0
H1803 H 0.90341 0.60674 0.44944 0.0
H1804 H 0.923 0.61944 0.54571 0.0
H1805 H 0.90777 0.59959 0.58538 0.0
C1806 C 0.33456 0.85706 0.48905 0.0
C1807 C 0.32727 0.87477 0.46987 0.0
C1808 C 0.31413 0.88743 0.52854 0.0
C1809 C 0.32727 0.87484 0.54771 0.0
N1810 N 0.34709 0.84489 0.54787 0.0
N1811 N 0.30678 0.90408 0.46953 0.0
C1812 C 0.33594 0.85816 0.52845 0.0
C1813 C 0.3153 0.88856 0.48908 0.0
N1814 N 0.34081 0.83987 0.46926 0.0
N1815 N 0.30137 0.89891 0.54838 0.0
H1816 H 0.30651 0.90417 0.44061 0.0
H1817 H 0.30059 0.91718 0.48159 0.0
H1818 H 0.30048 0.89811 0.57728 0.0
H1819 H 0.28994 0.90716 0.53654 0.0
H1820 H 0.34467 0.82502 0.48114 0.0
H1821 H 0.33981 0.83896 0.44037 0.0
H1822 H 0.35684 0.83498 0.53568 0.0
H1823 H 0.34715 0.84443 0.57677 0.0
C1824 C 0.48222 0.34018 0.49514 0.0
C1825 C 0.45698 0.33153 0.47561 0.0
C1826 C 0.43109 0.32068 0.53398 0.0
C1827 C 0.45675 0.3324 0.55343 0.0
N1828 N 0.50508 0.34533 0.5546 0.0
N1829 N 0.40701 0.30605 0.47464 0.0
C1830 C 0.48178 0.33921 0.53456 0.0
C1831 C 0.43119 0.31891 0.49461 0.0
N1832 N 0.50668 0.3509 0.47588 0.0
N1833 N 0.40701 0.31287 0.55313 0.0
H1834 H 0.40703 0.30474 0.44578 0.0
H1835 H 0.38727 0.29486 0.48641 0.0
H1836 H 0.40638 0.31298 0.58203 0.0
H1837 H 0.38792 0.30702 0.54069 0.0
H1838 H 0.5263 0.36066 0.48818 0.0
H1839 H 0.50725 0.3506 0.44698 0.0
H1840 H 0.52371 0.34876 0.54292 0.0
H1841 H 0.50494 0.34468 0.58351 0.0
C1842 C 0.14443 0.48097 0.48892 0.0
C1843 C 0.12636 0.45609 0.46959 0.0
C1844 C 0.11248 0.43037 0.52835 0.0
C1845 C 0.12591 0.45612 0.5476 0.0
N1846 N 0.15715 0.50567 0.54783 0.0
N1847 N 0.09566 0.4065 0.46921 0.0
C1848 C 0.14322 0.4813 0.52834 0.0
C1849 C 0.11165 0.43042 0.48884 0.0
N1850 N 0.16221 0.50426 0.46928 0.0
N1851 N 0.10002 0.4061 0.54812 0.0
H1852 H 0.09579 0.40607 0.4403 0.0
H1853 H 0.08193 0.38736 0.48117 0.0
H1854 H 0.10049 0.40589 0.57703 0.0
H1855 H 0.09116 0.38635 0.53628 0.0
H1856 H 0.17734 0.52279 0.48128 0.0
H1857 H 0.16328 0.50424 0.44041 0.0
H1858 H 0.16759 0.52534 0.53573 0.0
H1859 H 0.15761 0.50616 0.57674 0.0
C1860 C 0.66716 0.14547 0.49193 0.0
C1861 C 0.67442 0.12773 0.47252 0.0
C1862 C 0.68366 0.11155 0.53115 0.0
C1863 C 0.67324 0.12673 0.55047 0.0
N1864 N 0.66311 0.16407 0.55135 0.0
N1865 N 0.69731 0.10071 0.47201 0.0
C1866 C 0.66799 0.14597 0.53141 0.0
C1867 C 0.68561 0.11329 0.49176 0.0
N1868 N 0.65787 0.16039 0.47251 0.0
N1869 N 0.69003 0.09424 0.55045 0.0
H1870 H 0.69879 0.10195 0.44315 0.0
H1871 H 0.70749 0.09115 0.48395 0.0
H1872 H 0.68988 0.0936 0.57935 0.0
H1873 H 0.69475 0.08011 0.53813 0.0
H1874 H 0.6492 0.17135 0.48466 0.0
H1875 H 0.65826 0.16119 0.44361 0.0
H1876 H 0.66079 0.17995 0.53962 0.0
H1877 H 0.66367 0.16452 0.58027 0.0
C1878 C 0.57734 0.69143 0.52715 0.0
C1879 C 0.55178 0.67915 0.54668 0.0
C1880 C 0.52669 0.67384 0.48857 0.0
C1881 C 0.55112 0.67972 0.4689 0.0
N1882 N 0.60057 0.69771 0.46777 0.0
N1883 N 0.5024 0.66183 0.54771 0.0
C1884 C 0.57693 0.69038 0.4877 0.0
C1885 C 0.52659 0.67205 0.52794 0.0
N1886 N 0.60173 0.70312 0.54667 0.0
N1887 N 0.50352 0.66909 0.46923 0.0
H1888 H 0.5021 0.66138 0.57661 0.0
H1889 H 0.48271 0.65321 0.53577 0.0
H1890 H 0.50354 0.67032 0.44036 0.0
H1891 H 0.4853 0.66627 0.48152 0.0
H1892 H 0.62139 0.71391 0.53458 0.0
H1893 H 0.60202 0.70387 0.57559 0.0
H1894 H 0.61968 0.70278 0.47954 0.0
H1895 H 0.60075 0.69809 0.43885 0.0
loop_
_geom_bond_atom_site_label_1
_geom_bond_atom_site_label_2
_geom_bond_distance
_geom_bond_site_symmetry_2
_ccdc_geom_bond_type
Co0 O3 1.970 . S
Co0 N17 1.989 . S
Co0 O25 1.967 . S
Co0 O32 1.920 . S
Co1 O4 1.966 . S
Co1 N10 2.022 . S
Co1 N18 1.993 . S
Co1 O26 1.941 . S
C2 O3 1.258 . S
C2 O4 1.263 . S
O3 Co0 1.970 . S
O3 C2 1.258 . S
O4 Co1 1.966 . S
O4 C2 1.263 . S
C5 O6 1.235 . S
C5 O32 1.289 . S
O6 C5 1.235 . S
C7 C9 1.400 . S
C7 N10 1.351 . S
C7 C12 1.501 . S
C8 C9 1.387 . S
C8 N11 1.341 . S
C9 C7 1.400 . S
C9 C8 1.387 . S
N10 Co1 2.022 . S
N10 C7 1.351 . S
N10 N11 1.365 . S
N11 C8 1.341 . S
N11 N10 1.365 . S
N11 H31 0.862 . S
C12 C7 1.501 . S
C12 H13 0.961 . S
C12 H14 0.961 . S
C12 H15 0.960 . S
H13 C12 0.961 . S
H14 C12 0.961 . S
H15 C12 0.960 . S
C16 N17 1.342 . S
C16 C20 1.401 . S
C16 C21 1.499 . S
N17 Co0 1.989 . S
N17 C16 1.342 . S
N17 N18 1.388 . S
N18 Co1 1.993 . S
N18 N17 1.388 . S
N18 C19 1.346 . S
C19 N18 1.346 . S
C19 C20 1.396 . S
C19 C29 1.510 . S
C20 C16 1.401 . S
C20 C19 1.396 . S
C21 C16 1.499 . S
C21 H22 0.959 . S
C21 H23 0.960 . S
C21 H24 0.961 . S
H22 C21 0.959 . S
H23 C21 0.960 . S
H24 C21 0.961 . S
O25 Co0 1.967 . S
O25 C33 1.258 . S
O26 Co1 1.941 . S
O26 C33 1.266 . S
H27 C29 0.959 . S
H28 C29 0.961 . S
C29 C19 1.510 . S
C29 H27 0.959 . S
C29 H28 0.961 . S
C29 H30 0.960 . S
H30 C29 0.960 . S
H31 N11 0.862 . S
O32 Co0 1.920 . S
O32 C5 1.289 . S
C33 O25 1.258 . S
C33 O26 1.266 . S
Co34 O37 1.970 . S
Co34 N51 1.989 . S
Co34 O59 1.967 . S
Co34 O66 1.920 . S
Co35 O38 1.966 . S
Co35 N44 2.022 . S
Co35 N52 1.993 . S
Co35 O60 1.941 . S
C36 O37 1.258 . S
C36 O38 1.263 . S
O37 Co34 1.970 . S
O37 C36 1.258 . S
O38 Co35 1.966 . S
O38 C36 1.263 . S
C39 O40 1.235 . S
C39 O66 1.289 . S
O40 C39 1.235 . S
C41 C43 1.400 . S
C41 N44 1.351 . S
C41 C46 1.501 . S
C42 C43 1.387 . S
C42 N45 1.341 . S
C43 C41 1.400 . S
C43 C42 1.387 . S
N44 Co35 2.022 . S
N44 C41 1.351 . S
N44 N45 1.365 . S
N45 C42 1.341 . S
N45 N44 1.365 . S
N45 H65 0.862 . S
C46 C41 1.501 . S
C46 H47 0.961 . S
C46 H48 0.961 . S
C46 H49 0.960 . S
H47 C46 0.961 . S
H48 C46 0.961 . S
H49 C46 0.960 . S
C50 N51 1.342 . S
C50 C54 1.401 . S
C50 C55 1.499 . S
N51 Co34 1.989 . S
N51 C50 1.342 . S
N51 N52 1.388 . S
N52 Co35 1.993 . S
N52 N51 1.388 . S
N52 C53 1.346 . S
C53 N52 1.346 . S
C53 C54 1.396 . S
C53 C63 1.510 . S
C54 C50 1.401 . S
C54 C53 1.396 . S
C55 C50 1.499 . S
C55 H56 0.959 . S
C55 H57 0.960 . S
C55 H58 0.961 . S
H56 C55 0.959 . S
H57 C55 0.960 . S
H58 C55 0.961 . S
O59 Co34 1.967 . S
O59 C67 1.258 . S
O60 Co35 1.941 . S
O60 C67 1.266 . S
H61 C63 0.959 . S
H62 C63 0.961 . S
C63 C53 1.510 . S
C63 H61 0.959 . S
C63 H62 0.961 . S
C63 H64 0.960 . S
H64 C63 0.960 . S
H65 N45 0.862 . S
O66 Co34 1.920 . S
O66 C39 1.289 . S
C67 O59 1.258 . S
C67 O60 1.266 . S
Co68 O71 1.970 . S
Co68 N85 1.989 . S
Co68 O93 1.967 . S
Co68 O100 1.920 . S
Co69 O72 1.966 . S
Co69 N78 2.022 . S
Co69 N86 1.993 . S
Co69 O94 1.941 . S
C70 O71 1.258 . S
C70 O72 1.263 . S
O71 Co68 1.970 . S
O71 C70 1.258 . S
O72 Co69 1.966 . S
O72 C70 1.263 . S
C73 O74 1.235 . S
C73 O100 1.289 . S
O74 C73 1.235 . S
C75 C77 1.400 . S
C75 N78 1.351 . S
C75 C80 1.501 . S
C76 C77 1.387 . S
C76 N79 1.341 . S
C77 C75 1.400 . S
C77 C76 1.387 . S
N78 Co69 2.022 . S
N78 C75 1.351 . S
N78 N79 1.365 . S
N79 C76 1.341 . S
N79 N78 1.365 . S
N79 H99 0.862 . S
C80 C75 1.501 . S
C80 H81 0.961 . S
C80 H82 0.961 . S
C80 H83 0.960 . S
H81 C80 0.961 . S
H82 C80 0.961 . S
H83 C80 0.960 . S
C84 N85 1.342 . S
C84 C88 1.401 . S
C84 C89 1.499 . S
N85 Co68 1.989 . S
N85 C84 1.342 . S
N85 N86 1.388 . S
N86 Co69 1.993 . S
N86 N85 1.388 . S
N86 C87 1.346 . S
C87 N86 1.346 . S
C87 C88 1.396 . S
C87 C97 1.510 . S
C88 C84 1.401 . S
C88 C87 1.396 . S
C89 C84 1.499 . S
C89 H90 0.959 . S
C89 H91 0.960 . S
C89 H92 0.961 . S
H90 C89 0.959 . S
H91 C89 0.960 . S
H92 C89 0.961 . S
O93 Co68 1.967 . S
O93 C101 1.258 . S
O94 Co69 1.941 . S
O94 C101 1.266 . S
H95 C97 0.959 . S
H96 C97 0.961 . S
C97 C87 1.510 . S
C97 H95 0.959 . S
C97 H96 0.961 . S
C97 H98 0.960 . S
H98 C97 0.960 . S
H99 N79 0.862 . S
O100 Co68 1.920 . S
O100 C73 1.289 . S
C101 O93 1.258 . S
C101 O94 1.266 . S
Co102 O105 1.970 . S
Co102 N119 1.989 . S
Co102 O127 1.967 . S
Co102 O134 1.920 . S
Co103 O106 1.966 . S
Co103 N112 2.022 . S
Co103 N120 1.993 . S
Co103 O128 1.941 . S
C104 O105 1.258 . S
C104 O106 1.263 . S
O105 Co102 1.970 . S
O105 C104 1.258 . S
O106 Co103 1.966 . S
O106 C104 1.263 . S
C107 O108 1.235 . S
C107 O134 1.289 . S
O108 C107 1.235 . S
C109 C111 1.400 . S
C109 N112 1.351 . S
C109 C114 1.501 . S
C110 C111 1.387 . S
C110 N113 1.341 . S
C111 C109 1.400 . S
C111 C110 1.387 . S
N112 Co103 2.022 . S
N112 C109 1.351 . S
N112 N113 1.365 . S
N113 C110 1.341 . S
N113 N112 1.365 . S
N113 H133 0.862 . S
C114 C109 1.501 . S
C114 H115 0.961 . S
C114 H116 0.961 . S
C114 H117 0.960 . S
H115 C114 0.961 . S
H116 C114 0.961 . S
H117 C114 0.960 . S
C118 N119 1.342 . S
C118 C122 1.401 . S
C118 C123 1.499 . S
N119 Co102 1.989 . S
N119 C118 1.342 . S
N119 N120 1.388 . S
N120 Co103 1.993 . S
N120 N119 1.388 . S
N120 C121 1.346 . S
C121 N120 1.346 . S
C121 C122 1.396 . S
C121 C131 1.510 . S
C122 C118 1.401 . S
C122 C121 1.396 . S
C123 C118 1.499 . S
C123 H124 0.959 . S
C123 H125 0.960 . S
C123 H126 0.961 . S
H124 C123 0.959 . S
H125 C123 0.960 . S
H126 C123 0.961 . S
O127 Co102 1.967 . S
O127 C135 1.258 . S
O128 Co103 1.941 . S
O128 C135 1.266 . S
H129 C131 0.959 . S
H130 C131 0.961 . S
C131 C121 1.510 . S
C131 H129 0.959 . S
C131 H130 0.961 . S
C131 H132 0.960 . S
H132 C131 0.960 . S
H133 N113 0.862 . S
O134 Co102 1.920 . S
O134 C107 1.289 . S
C135 O127 1.258 . S
C135 O128 1.266 . S
Co136 O139 1.970 . S
Co136 N153 1.989 . S
Co136 O161 1.967 . S
Co136 O168 1.920 . S
Co137 O140 1.966 . S
Co137 N146 2.022 . S
Co137 N154 1.993 . S
Co137 O162 1.941 . S
C138 O139 1.258 . S
C138 O140 1.263 . S
O139 Co136 1.970 . S
O139 C138 1.258 . S
O140 Co137 1.966 . S
O140 C138 1.263 . S
C141 O142 1.235 . S
C141 O168 1.289 . S
O142 C141 1.235 . S
C143 C145 1.400 . S
C143 N146 1.351 . S
C143 C148 1.501 . S
C144 C145 1.387 . S
C144 N147 1.341 . S
C145 C143 1.400 . S
C145 C144 1.387 . S
N146 Co137 2.022 . S
N146 C143 1.351 . S
N146 N147 1.365 . S
N147 C144 1.341 . S
N147 N146 1.365 . S
N147 H167 0.862 . S
C148 C143 1.501 . S
C148 H149 0.961 . S
C148 H150 0.961 . S
C148 H151 0.960 . S
H149 C148 0.961 . S
H150 C148 0.961 . S
H151 C148 0.960 . S
C152 N153 1.342 . S
C152 C156 1.401 . S
C152 C157 1.499 . S
N153 Co136 1.989 . S
N153 C152 1.342 . S
N153 N154 1.388 . S
N154 Co137 1.993 . S
N154 N153 1.388 . S
N154 C155 1.346 . S
C155 N154 1.346 . S
C155 C156 1.396 . S
C155 C165 1.510 . S
C156 C152 1.401 . S
C156 C155 1.396 . S
C157 C152 1.499 . S
C157 H158 0.959 . S
C157 H159 0.960 . S
C157 H160 0.961 . S
H158 C157 0.959 . S
H159 C157 0.960 . S
H160 C157 0.961 . S
O161 Co136 1.967 . S
O161 C169 1.258 . S
O162 Co137 1.941 . S
O162 C169 1.266 . S
H163 C165 0.959 . S
H164 C165 0.961 . S
C165 C155 1.510 . S
C165 H163 0.959 . S
C165 H164 0.961 . S
C165 H166 0.960 . S
H166 C165 0.960 . S
H167 N147 0.862 . S
O168 Co136 1.920 . S
O168 C141 1.289 . S
C169 O161 1.258 . S
C169 O162 1.266 . S
Co170 O173 1.970 . S
Co170 N187 1.989 . S
Co170 O195 1.967 . S
Co170 O202 1.920 . S
Co171 O174 1.966 . S
Co171 N180 2.022 . S
Co171 N188 1.993 . S
Co171 O196 1.941 . S
C172 O173 1.258 . S
C172 O174 1.263 . S
O173 Co170 1.970 . S
O173 C172 1.258 . S
O174 Co171 1.966 . S
O174 C172 1.263 . S
C175 O176 1.235 . S
C175 O202 1.289 . S
O176 C175 1.235 . S
C177 C179 1.400 . S
C177 N180 1.351 . S
C177 C182 1.501 . S
C178 C179 1.387 . S
C178 N181 1.341 . S
C179 C177 1.400 . S
C179 C178 1.387 . S
N180 Co171 2.022 . S
N180 C177 1.351 . S
N180 N181 1.365 . S
N181 C178 1.341 . S
N181 N180 1.365 . S
N181 H201 0.862 . S
C182 C177 1.501 . S
C182 H183 0.961 . S
C182 H184 0.961 . S
C182 H185 0.960 . S
H183 C182 0.961 . S
H184 C182 0.961 . S
H185 C182 0.960 . S
C186 N187 1.342 . S
C186 C190 1.401 . S
C186 C191 1.499 . S
N187 Co170 1.989 . S
N187 C186 1.342 . S
N187 N188 1.388 . S
N188 Co171 1.993 . S
N188 N187 1.388 . S
N188 C189 1.346 . S
C189 N188 1.346 . S
C189 C190 1.396 . S
C189 C199 1.510 . S
C190 C186 1.401 . S
C190 C189 1.396 . S
C191 C186 1.499 . S
C191 H192 0.959 . S
C191 H193 0.960 . S
C191 H194 0.961 . S
H192 C191 0.959 . S
H193 C191 0.960 . S
H194 C191 0.961 . S
O195 Co170 1.967 . S
O195 C203 1.258 . S
O196 Co171 1.941 . S
O196 C203 1.266 . S
H197 C199 0.959 . S
H198 C199 0.961 . S
C199 C189 1.510 . S
C199 H197 0.959 . S
C199 H198 0.961 . S
C199 H200 0.960 . S
H200 C199 0.960 . S
H201 N181 0.862 . S
O202 Co170 1.920 . S
O202 C175 1.289 . S
C203 O195 1.258 . S
C203 O196 1.266 . S
Co204 O207 1.970 . S
Co204 N221 1.989 . S
Co204 O229 1.967 . S
Co204 O236 1.920 . S
Co205 O208 1.966 . S
Co205 N214 2.022 . S
Co205 N222 1.993 . S
Co205 O230 1.941 . S
C206 O207 1.258 . S
C206 O208 1.263 . S
O207 Co204 1.970 . S
O207 C206 1.258 . S
O208 Co205 1.966 . S
O208 C206 1.263 . S
C209 O210 1.235 . S
C209 O236 1.289 . S
O210 C209 1.235 . S
C211 C213 1.400 . S
C211 N214 1.351 . S
C211 C216 1.501 . S
C212 C213 1.387 . S
C212 N215 1.341 . S
C213 C211 1.400 . S
C213 C212 1.387 . S
N214 Co205 2.022 . S
N214 C211 1.351 . S
N214 N215 1.365 . S
N215 C212 1.341 . S
N215 N214 1.365 . S
N215 H235 0.862 . S
C216 C211 1.501 . S
C216 H217 0.961 . S
C216 H218 0.961 . S
C216 H219 0.960 . S
H217 C216 0.961 . S
H218 C216 0.961 . S
H219 C216 0.960 . S
C220 N221 1.342 . S
C220 C224 1.401 . S
C220 C225 1.499 . S
N221 Co204 1.989 . S
N221 C220 1.342 . S
N221 N222 1.388 . S
N222 Co205 1.993 . S
N222 N221 1.388 . S
N222 C223 1.346 . S
C223 N222 1.346 . S
C223 C224 1.396 . S
C223 C233 1.510 . S
C224 C220 1.401 . S
C224 C223 1.396 . S
C225 C220 1.499 . S
C225 H226 0.959 . S
C225 H227 0.960 . S
C225 H228 0.961 . S
H226 C225 0.959 . S
H227 C225 0.960 . S
H228 C225 0.961 . S
O229 Co204 1.967 . S
O229 C237 1.258 . S
O230 Co205 1.941 . S
O230 C237 1.266 . S
H231 C233 0.959 . S
H232 C233 0.961 . S
C233 C223 1.510 . S
C233 H231 0.959 . S
C233 H232 0.961 . S
C233 H234 0.960 . S
H234 C233 0.960 . S
H235 N215 0.862 . S
O236 Co204 1.920 . S
O236 C209 1.289 . S
C237 O229 1.258 . S
C237 O230 1.266 . S
Co238 O241 1.970 . S
Co238 N255 1.989 . S
Co238 O263 1.967 . S
Co238 O270 1.920 . S
Co239 O242 1.966 . S
Co239 N248 2.022 . S
Co239 N256 1.993 . S
Co239 O264 1.941 . S
C240 O241 1.258 . S
C240 O242 1.263 . S
O241 Co238 1.970 . S
O241 C240 1.258 . S
O242 Co239 1.966 . S
O242 C240 1.263 . S
C243 O244 1.235 . S
C243 O270 1.289 . S
O244 C243 1.235 . S
C245 C247 1.400 . S
C245 N248 1.351 . S
C245 C250 1.501 . S
C246 C247 1.387 . S
C246 N249 1.341 . S
C247 C245 1.400 . S
C247 C246 1.387 . S
N248 Co239 2.022 . S
N248 C245 1.351 . S
N248 N249 1.365 . S
N249 C246 1.341 . S
N249 N248 1.365 . S
N249 H269 0.862 . S
C250 C245 1.501 . S
C250 H251 0.961 . S
C250 H252 0.961 . S
C250 H253 0.960 . S
H251 C250 0.961 . S
H252 C250 0.961 . S
H253 C250 0.960 . S
C254 N255 1.342 . S
C254 C258 1.401 . S
C254 C259 1.499 . S
N255 Co238 1.989 . S
N255 C254 1.342 . S
N255 N256 1.388 . S
N256 Co239 1.993 . S
N256 N255 1.388 . S
N256 C257 1.346 . S
C257 N256 1.346 . S
C257 C258 1.396 . S
C257 C267 1.510 . S
C258 C254 1.401 . S
C258 C257 1.396 . S
C259 C254 1.499 . S
C259 H260 0.959 . S
C259 H261 0.960 . S
C259 H262 0.961 . S
H260 C259 0.959 . S
H261 C259 0.960 . S
H262 C259 0.961 . S
O263 Co238 1.967 . S
O263 C271 1.258 . S
O264 Co239 1.941 . S
O264 C271 1.266 . S
H265 C267 0.959 . S
H266 C267 0.961 . S
C267 C257 1.510 . S
C267 H265 0.959 . S
C267 H266 0.961 . S
C267 H268 0.960 . S
H268 C267 0.960 . S
H269 N249 0.862 . S
O270 Co238 1.920 . S
O270 C243 1.289 . S
C271 O263 1.258 . S
C271 O264 1.266 . S
Co272 O275 1.970 . S
Co272 N289 1.989 . S
Co272 O297 1.967 . S
Co272 O304 1.920 . S
Co273 O276 1.966 . S
Co273 N282 2.022 . S
Co273 N290 1.993 . S
Co273 O298 1.941 . S
C274 O275 1.258 . S
C274 O276 1.263 . S
O275 Co272 1.970 . S
O275 C274 1.258 . S
O276 Co273 1.966 . S
O276 C274 1.263 . S
C277 O278 1.235 . S
C277 O304 1.289 . S
O278 C277 1.235 . S
C279 C281 1.400 . S
C279 N282 1.351 . S
C279 C284 1.501 . S
C280 C281 1.387 . S
C280 N283 1.341 . S
C281 C279 1.400 . S
C281 C280 1.387 . S
N282 Co273 2.022 . S
N282 C279 1.351 . S
N282 N283 1.365 . S
N283 C280 1.341 . S
N283 N282 1.365 . S
N283 H303 0.862 . S
C284 C279 1.501 . S
C284 H285 0.961 . S
C284 H286 0.961 . S
C284 H287 0.960 . S
H285 C284 0.961 . S
H286 C284 0.961 . S
H287 C284 0.960 . S
C288 N289 1.342 . S
C288 C292 1.401 . S
C288 C293 1.499 . S
N289 Co272 1.989 . S
N289 C288 1.342 . S
N289 N290 1.388 . S
N290 Co273 1.993 . S
N290 N289 1.388 . S
N290 C291 1.346 . S
C291 N290 1.346 . S
C291 C292 1.396 . S
C291 C301 1.510 . S
C292 C288 1.401 . S
C292 C291 1.396 . S
C293 C288 1.499 . S
C293 H294 0.959 . S
C293 H295 0.960 . S
C293 H296 0.961 . S
H294 C293 0.959 . S
H295 C293 0.960 . S
H296 C293 0.961 . S
O297 Co272 1.967 . S
O297 C305 1.258 . S
O298 Co273 1.941 . S
O298 C305 1.266 . S
H299 C301 0.959 . S
H300 C301 0.961 . S
C301 C291 1.510 . S
C301 H299 0.959 . S
C301 H300 0.961 . S
C301 H302 0.960 . S
H302 C301 0.960 . S
H303 N283 0.862 . S
O304 Co272 1.920 . S
O304 C277 1.289 . S
C305 O297 1.258 . S
C305 O298 1.266 . S
Co306 O309 1.970 . S
Co306 N323 1.989 . S
Co306 O331 1.967 . S
Co306 O338 1.920 . S
Co307 O310 1.966 . S
Co307 N316 2.022 . S
Co307 N324 1.993 . S
Co307 O332 1.941 . S
C308 O309 1.258 . S
C308 O310 1.263 . S
O309 Co306 1.970 . S
O309 C308 1.258 . S
O310 Co307 1.966 . S
O310 C308 1.263 . S
C311 O312 1.235 . S
C311 O338 1.289 . S
O312 C311 1.235 . S
C313 C315 1.400 . S
C313 N316 1.351 . S
C313 C318 1.501 . S
C314 C315 1.387 . S
C314 N317 1.341 . S
C315 C313 1.400 . S
C315 C314 1.387 . S
N316 Co307 2.022 . S
N316 C313 1.351 . S
N316 N317 1.365 . S
N317 C314 1.341 . S
N317 N316 1.365 . S
N317 H337 0.862 . S
C318 C313 1.501 . S
C318 H319 0.961 . S
C318 H320 0.961 . S
C318 H321 0.960 . S
H319 C318 0.961 . S
H320 C318 0.961 . S
H321 C318 0.960 . S
C322 N323 1.342 . S
C322 C326 1.401 . S
C322 C327 1.499 . S
N323 Co306 1.989 . S
N323 C322 1.342 . S
N323 N324 1.388 . S
N324 Co307 1.993 . S
N324 N323 1.388 . S
N324 C325 1.346 . S
C325 N324 1.346 . S
C325 C326 1.396 . S
C325 C335 1.510 . S
C326 C322 1.401 . S
C326 C325 1.396 . S
C327 C322 1.499 . S
C327 H328 0.959 . S
C327 H329 0.960 . S
C327 H330 0.961 . S
H328 C327 0.959 . S
H329 C327 0.960 . S
H330 C327 0.961 . S
O331 Co306 1.967 . S
O331 C339 1.258 . S
O332 Co307 1.941 . S
O332 C339 1.266 . S
H333 C335 0.959 . S
H334 C335 0.961 . S
C335 C325 1.510 . S
C335 H333 0.959 . S
C335 H334 0.961 . S
C335 H336 0.960 . S
H336 C335 0.960 . S
H337 N317 0.862 . S
O338 Co306 1.920 . S
O338 C311 1.289 . S
C339 O331 1.258 . S
C339 O332 1.266 . S
Co340 O343 1.970 . S
Co340 N357 1.989 . S
Co340 O365 1.967 . S
Co340 O372 1.920 . S
Co341 O344 1.966 . S
Co341 N350 2.022 . S
Co341 N358 1.993 . S
Co341 O366 1.941 . S
C342 O343 1.258 . S
C342 O344 1.263 . S
O343 Co340 1.970 . S
O343 C342 1.258 . S
O344 Co341 1.966 . S
O344 C342 1.263 . S
C345 O346 1.235 . S
C345 O372 1.289 . S
O346 C345 1.235 . S
C347 C349 1.400 . S
C347 N350 1.351 . S
C347 C352 1.501 . S
C348 C349 1.387 . S
C348 N351 1.341 . S
C349 C347 1.400 . S
C349 C348 1.387 . S
N350 Co341 2.022 . S
N350 C347 1.351 . S
N350 N351 1.365 . S
N351 C348 1.341 . S
N351 N350 1.365 . S
N351 H371 0.862 . S
C352 C347 1.501 . S
C352 H353 0.961 . S
C352 H354 0.961 . S
C352 H355 0.960 . S
H353 C352 0.961 . S
H354 C352 0.961 . S
H355 C352 0.960 . S
C356 N357 1.342 . S
C356 C360 1.401 . S
C356 C361 1.499 . S
N357 Co340 1.989 . S
N357 C356 1.342 . S
N357 N358 1.388 . S
N358 Co341 1.993 . S
N358 N357 1.388 . S
N358 C359 1.346 . S
C359 N358 1.346 . S
C359 C360 1.396 . S
C359 C369 1.510 . S
C360 C356 1.401 . S
C360 C359 1.396 . S
C361 C356 1.499 . S
C361 H362 0.959 . S
C361 H363 0.960 . S
C361 H364 0.961 . S
H362 C361 0.959 . S
H363 C361 0.960 . S
H364 C361 0.961 . S
O365 Co340 1.967 . S
O365 C373 1.258 . S
O366 Co341 1.941 . S
O366 C373 1.266 . S
H367 C369 0.959 . S
H368 C369 0.961 . S
C369 C359 1.510 . S
C369 H367 0.959 . S
C369 H368 0.961 . S
C369 H370 0.960 . S
H370 C369 0.960 . S
H371 N351 0.862 . S
O372 Co340 1.920 . S
O372 C345 1.289 . S
C373 O365 1.258 . S
C373 O366 1.266 . S
Co374 O377 1.970 . S
Co374 N391 1.989 . S
Co374 O399 1.967 . S
Co374 O406 1.920 . S
Co375 O378 1.966 . S
Co375 N384 2.022 . S
Co375 N392 1.993 . S
Co375 O400 1.941 . S
C376 O377 1.258 . S
C376 O378 1.263 . S
O377 Co374 1.970 . S
O377 C376 1.258 . S
O378 Co375 1.966 . S
O378 C376 1.263 . S
C379 O380 1.235 . S
C379 O406 1.289 . S
O380 C379 1.235 . S
C381 C383 1.400 . S
C381 N384 1.351 . S
C381 C386 1.501 . S
C382 C383 1.387 . S
C382 N385 1.341 . S
C383 C381 1.400 . S
C383 C382 1.387 . S
N384 Co375 2.022 . S
N384 C381 1.351 . S
N384 N385 1.365 . S
N385 C382 1.341 . S
N385 N384 1.365 . S
N385 H405 0.862 . S
C386 C381 1.501 . S
C386 H387 0.961 . S
C386 H388 0.961 . S
C386 H389 0.960 . S
H387 C386 0.961 . S
H388 C386 0.961 . S
H389 C386 0.960 . S
C390 N391 1.342 . S
C390 C394 1.401 . S
C390 C395 1.499 . S
N391 Co374 1.989 . S
N391 C390 1.342 . S
N391 N392 1.388 . S
N392 Co375 1.993 . S
N392 N391 1.388 . S
N392 C393 1.346 . S
C393 N392 1.346 . S
C393 C394 1.396 . S
C393 C403 1.510 . S
C394 C390 1.401 . S
C394 C393 1.396 . S
C395 C390 1.499 . S
C395 H396 0.959 . S
C395 H397 0.960 . S
C395 H398 0.961 . S
H396 C395 0.959 . S
H397 C395 0.960 . S
H398 C395 0.961 . S
O399 Co374 1.967 . S
O399 C407 1.258 . S
O400 Co375 1.941 . S
O400 C407 1.266 . S
H401 C403 0.959 . S
H402 C403 0.961 . S
C403 C393 1.510 . S
C403 H401 0.959 . S
C403 H402 0.961 . S
C403 H404 0.960 . S
H404 C403 0.960 . S
H405 N385 0.862 . S
O406 Co374 1.920 . S
O406 C379 1.289 . S
C407 O399 1.258 . S
C407 O400 1.266 . S
Co408 O411 1.970 . S
Co408 N425 1.989 . S
Co408 O433 1.967 . S
Co408 O440 1.920 . S
Co409 O412 1.966 . S
Co409 N418 2.022 . S
Co409 N426 1.993 . S
Co409 O434 1.941 . S
C410 O411 1.258 . S
C410 O412 1.263 . S
O411 Co408 1.970 . S
O411 C410 1.258 . S
O412 Co409 1.966 . S
O412 C410 1.263 . S
C413 O414 1.235 . S
C413 O440 1.289 . S
O414 C413 1.235 . S
C415 C417 1.400 . S
C415 N418 1.351 . S
C415 C420 1.501 . S
C416 C417 1.387 . S
C416 N419 1.341 . S
C417 C415 1.400 . S
C417 C416 1.387 . S
N418 Co409 2.022 . S
N418 C415 1.351 . S
N418 N419 1.365 . S
N419 C416 1.341 . S
N419 N418 1.365 . S
N419 H439 0.862 . S
C420 C415 1.501 . S
C420 H421 0.961 . S
C420 H422 0.961 . S
C420 H423 0.960 . S
H421 C420 0.961 . S
H422 C420 0.961 . S
H423 C420 0.960 . S
C424 N425 1.342 . S
C424 C428 1.401 . S
C424 C429 1.499 . S
N425 Co408 1.989 . S
N425 C424 1.342 . S
N425 N426 1.388 . S
N426 Co409 1.993 . S
N426 N425 1.388 . S
N426 C427 1.346 . S
C427 N426 1.346 . S
C427 C428 1.396 . S
C427 C437 1.510 . S
C428 C424 1.401 . S
C428 C427 1.396 . S
C429 C424 1.499 . S
C429 H430 0.959 . S
C429 H431 0.960 . S
C429 H432 0.961 . S
H430 C429 0.959 . S
H431 C429 0.960 . S
H432 C429 0.961 . S
O433 Co408 1.967 . S
O433 C441 1.258 . S
O434 Co409 1.941 . S
O434 C441 1.266 . S
H435 C437 0.959 . S
H436 C437 0.961 . S
C437 C427 1.510 . S
C437 H435 0.959 . S
C437 H436 0.961 . S
C437 H438 0.960 . S
H438 C437 0.960 . S
H439 N419 0.862 . S
O440 Co408 1.920 . S
O440 C413 1.289 . S
C441 O433 1.258 . S
C441 O434 1.266 . S
Co442 O445 1.970 . S
Co442 N459 1.989 . S
Co442 O467 1.967 . S
Co442 O474 1.920 . S
Co443 O446 1.966 . S
Co443 N452 2.022 . S
Co443 N460 1.993 . S
Co443 O468 1.941 . S
C444 O445 1.258 . S
C444 O446 1.263 . S
O445 Co442 1.970 . S
O445 C444 1.258 . S
O446 Co443 1.966 . S
O446 C444 1.263 . S
C447 O448 1.235 . S
C447 O474 1.289 . S
O448 C447 1.235 . S
C449 C451 1.400 . S
C449 N452 1.351 . S
C449 C454 1.501 . S
C450 C451 1.387 . S
C450 N453 1.341 . S
C451 C449 1.400 . S
C451 C450 1.387 . S
N452 Co443 2.022 . S
N452 C449 1.351 . S
N452 N453 1.365 . S
N453 C450 1.341 . S
N453 N452 1.365 . S
N453 H473 0.862 . S
C454 C449 1.501 . S
C454 H455 0.961 . S
C454 H456 0.961 . S
C454 H457 0.960 . S
H455 C454 0.961 . S
H456 C454 0.961 . S
H457 C454 0.960 . S
C458 N459 1.342 . S
C458 C462 1.401 . S
C458 C463 1.499 . S
N459 Co442 1.989 . S
N459 C458 1.342 . S
N459 N460 1.388 . S
N460 Co443 1.993 . S
N460 N459 1.388 . S
N460 C461 1.346 . S
C461 N460 1.346 . S
C461 C462 1.396 . S
C461 C471 1.510 . S
C462 C458 1.401 . S
C462 C461 1.396 . S
C463 C458 1.499 . S
C463 H464 0.959 . S
C463 H465 0.960 . S
C463 H466 0.961 . S
H464 C463 0.959 . S
H465 C463 0.960 . S
H466 C463 0.961 . S
O467 Co442 1.967 . S
O467 C475 1.258 . S
O468 Co443 1.941 . S
O468 C475 1.266 . S
H469 C471 0.959 . S
H470 C471 0.961 . S
C471 C461 1.510 . S
C471 H469 0.959 . S
C471 H470 0.961 . S
C471 H472 0.960 . S
H472 C471 0.960 . S
H473 N453 0.862 . S
O474 Co442 1.920 . S
O474 C447 1.289 . S
C475 O467 1.258 . S
C475 O468 1.266 . S
Co476 O479 1.970 . S
Co476 N493 1.989 . S
Co476 O501 1.967 . S
Co476 O508 1.920 . S
Co477 O480 1.966 . S
Co477 N486 2.022 . S
Co477 N494 1.993 . S
Co477 O502 1.941 . S
C478 O479 1.258 . S
C478 O480 1.263 . S
O479 Co476 1.970 . S
O479 C478 1.258 . S
O480 Co477 1.966 . S
O480 C478 1.263 . S
C481 O482 1.235 . S
C481 O508 1.289 . S
O482 C481 1.235 . S
C483 C485 1.400 . S
C483 N486 1.351 . S
C483 C488 1.501 . S
C484 C485 1.387 . S
C484 N487 1.341 . S
C485 C483 1.400 . S
C485 C484 1.387 . S
N486 Co477 2.022 . S
N486 C483 1.351 . S
N486 N487 1.365 . S
N487 C484 1.341 . S
N487 N486 1.365 . S
N487 H507 0.862 . S
C488 C483 1.501 . S
C488 H489 0.961 . S
C488 H490 0.961 . S
C488 H491 0.960 . S
H489 C488 0.961 . S
H490 C488 0.961 . S
H491 C488 0.960 . S
C492 N493 1.342 . S
C492 C496 1.401 . S
C492 C497 1.499 . S
N493 Co476 1.989 . S
N493 C492 1.342 . S
N493 N494 1.388 . S
N494 Co477 1.993 . S
N494 N493 1.388 . S
N494 C495 1.346 . S
C495 N494 1.346 . S
C495 C496 1.396 . S
C495 C505 1.510 . S
C496 C492 1.401 . S
C496 C495 1.396 . S
C497 C492 1.499 . S
C497 H498 0.959 . S
C497 H499 0.960 . S
C497 H500 0.961 . S
H498 C497 0.959 . S
H499 C497 0.960 . S
H500 C497 0.961 . S
O501 Co476 1.967 . S
O501 C509 1.258 . S
O502 Co477 1.941 . S
O502 C509 1.266 . S
H503 C505 0.959 . S
H504 C505 0.961 . S
C505 C495 1.510 . S
C505 H503 0.959 . S
C505 H504 0.961 . S
C505 H506 0.960 . S
H506 C505 0.960 . S
H507 N487 0.862 . S
O508 Co476 1.920 . S
O508 C481 1.289 . S
C509 O501 1.258 . S
C509 O502 1.266 . S
Co510 O513 1.970 . S
Co510 N527 1.989 . S
Co510 O535 1.967 . S
Co510 O542 1.920 . S
Co511 O514 1.966 . S
Co511 N520 2.022 . S
Co511 N528 1.993 . S
Co511 O536 1.941 . S
C512 O513 1.258 . S
C512 O514 1.263 . S
O513 Co510 1.970 . S
O513 C512 1.258 . S
O514 Co511 1.966 . S
O514 C512 1.263 . S
C515 O516 1.235 . S
C515 O542 1.289 . S
O516 C515 1.235 . S
C517 C519 1.400 . S
C517 N520 1.351 . S
C517 C522 1.501 . S
C518 C519 1.387 . S
C518 N521 1.341 . S
C519 C517 1.400 . S
C519 C518 1.387 . S
N520 Co511 2.022 . S
N520 C517 1.351 . S
N520 N521 1.365 . S
N521 C518 1.341 . S
N521 N520 1.365 . S
N521 H541 0.862 . S
C522 C517 1.501 . S
C522 H523 0.961 . S
C522 H524 0.961 . S
C522 H525 0.960 . S
H523 C522 0.961 . S
H524 C522 0.961 . S
H525 C522 0.960 . S
C526 N527 1.342 . S
C526 C530 1.401 . S
C526 C531 1.499 . S
N527 Co510 1.989 . S
N527 C526 1.342 . S
N527 N528 1.388 . S
N528 Co511 1.993 . S
N528 N527 1.388 . S
N528 C529 1.346 . S
C529 N528 1.346 . S
C529 C530 1.396 . S
C529 C539 1.510 . S
C530 C526 1.401 . S
C530 C529 1.396 . S
C531 C526 1.499 . S
C531 H532 0.959 . S
C531 H533 0.960 . S
C531 H534 0.961 . S
H532 C531 0.959 . S
H533 C531 0.960 . S
H534 C531 0.961 . S
O535 Co510 1.967 . S
O535 C543 1.258 . S
O536 Co511 1.941 . S
O536 C543 1.266 . S
H537 C539 0.959 . S
H538 C539 0.961 . S
C539 C529 1.510 . S
C539 H537 0.959 . S
C539 H538 0.961 . S
C539 H540 0.960 . S
H540 C539 0.960 . S
H541 N521 0.862 . S
O542 Co510 1.920 . S
O542 C515 1.289 . S
C543 O535 1.258 . S
C543 O536 1.266 . S
Co544 O547 1.970 . S
Co544 N561 1.989 . S
Co544 O569 1.967 . S
Co544 O576 1.920 . S
Co545 O548 1.966 . S
Co545 N554 2.022 . S
Co545 N562 1.993 . S
Co545 O570 1.941 . S
C546 O547 1.258 . S
C546 O548 1.263 . S
O547 Co544 1.970 . S
O547 C546 1.258 . S
O548 Co545 1.966 . S
O548 C546 1.263 . S
C549 O550 1.235 . S
C549 O576 1.289 . S
O550 C549 1.235 . S
C551 C553 1.400 . S
C551 N554 1.351 . S
C551 C556 1.501 . S
C552 C553 1.387 . S
C552 N555 1.341 . S
C553 C551 1.400 . S
C553 C552 1.387 . S
N554 Co545 2.022 . S
N554 C551 1.351 . S
N554 N555 1.365 . S
N555 C552 1.341 . S
N555 N554 1.365 . S
N555 H575 0.862 . S
C556 C551 1.501 . S
C556 H557 0.961 . S
C556 H558 0.961 . S
C556 H559 0.960 . S
H557 C556 0.961 . S
H558 C556 0.961 . S
H559 C556 0.960 . S
C560 N561 1.342 . S
C560 C564 1.401 . S
C560 C565 1.499 . S
N561 Co544 1.989 . S
N561 C560 1.342 . S
N561 N562 1.388 . S
N562 Co545 1.993 . S
N562 N561 1.388 . S
N562 C563 1.346 . S
C563 N562 1.346 . S
C563 C564 1.396 . S
C563 C573 1.510 . S
C564 C560 1.401 . S
C564 C563 1.396 . S
C565 C560 1.499 . S
C565 H566 0.959 . S
C565 H567 0.960 . S
C565 H568 0.961 . S
H566 C565 0.959 . S
H567 C565 0.960 . S
H568 C565 0.961 . S
O569 Co544 1.967 . S
O569 C577 1.258 . S
O570 Co545 1.941 . S
O570 C577 1.266 . S
H571 C573 0.959 . S
H572 C573 0.961 . S
C573 C563 1.510 . S
C573 H571 0.959 . S
C573 H572 0.961 . S
C573 H574 0.960 . S
H574 C573 0.960 . S
H575 N555 0.862 . S
O576 Co544 1.920 . S
O576 C549 1.289 . S
C577 O569 1.258 . S
C577 O570 1.266 . S
Co578 O581 1.970 . S
Co578 N595 1.989 . S
Co578 O603 1.967 . S
Co578 O610 1.920 . S
Co579 O582 1.966 . S
Co579 N588 2.022 . S
Co579 N596 1.993 . S
Co579 O604 1.941 . S
C580 O581 1.258 . S
C580 O582 1.263 . S
O581 Co578 1.970 . S
O581 C580 1.258 . S
O582 Co579 1.966 . S
O582 C580 1.263 . S
C583 O584 1.235 . S
C583 O610 1.289 . S
O584 C583 1.235 . S
C585 C587 1.400 . S
C585 N588 1.351 . S
C585 C590 1.501 . S
C586 C587 1.387 . S
C586 N589 1.341 . S
C587 C585 1.400 . S
C587 C586 1.387 . S
N588 Co579 2.022 . S
N588 C585 1.351 . S
N588 N589 1.365 . S
N589 C586 1.341 . S
N589 N588 1.365 . S
N589 H609 0.862 . S
C590 C585 1.501 . S
C590 H591 0.961 . S
C590 H592 0.961 . S
C590 H593 0.960 . S
H591 C590 0.961 . S
H592 C590 0.961 . S
H593 C590 0.960 . S
C594 N595 1.342 . S
C594 C598 1.401 . S
C594 C599 1.499 . S
N595 Co578 1.989 . S
N595 C594 1.342 . S
N595 N596 1.388 . S
N596 Co579 1.993 . S
N596 N595 1.388 . S
N596 C597 1.346 . S
C597 N596 1.346 . S
C597 C598 1.396 . S
C597 C607 1.510 . S
C598 C594 1.401 . S
C598 C597 1.396 . S
C599 C594 1.499 . S
C599 H600 0.959 . S
C599 H601 0.960 . S
C599 H602 0.961 . S
H600 C599 0.959 . S
H601 C599 0.960 . S
H602 C599 0.961 . S
O603 Co578 1.967 . S
O603 C611 1.258 . S
O604 Co579 1.941 . S
O604 C611 1.266 . S
H605 C607 0.959 . S
H606 C607 0.961 . S
C607 C597 1.510 . S
C607 H605 0.959 . S
C607 H606 0.961 . S
C607 H608 0.960 . S
H608 C607 0.960 . S
H609 N589 0.862 . S
O610 Co578 1.920 . S
O610 C583 1.289 . S
C611 O603 1.258 . S
C611 O604 1.266 . S
Co612 O615 1.970 . S
Co612 N629 1.989 . S
Co612 O637 1.967 . S
Co612 O644 1.920 . S
Co613 O616 1.966 . S
Co613 N622 2.022 . S
Co613 N630 1.993 . S
Co613 O638 1.941 . S
C614 O615 1.258 . S
C614 O616 1.263 . S
O615 Co612 1.970 . S
O615 C614 1.258 . S
O616 Co613 1.966 . S
O616 C614 1.263 . S
C617 O618 1.235 . S
C617 O644 1.289 . S
O618 C617 1.235 . S
C619 C621 1.400 . S
C619 N622 1.351 . S
C619 C624 1.501 . S
C620 C621 1.387 . S
C620 N623 1.341 . S
C621 C619 1.400 . S
C621 C620 1.387 . S
N622 Co613 2.022 . S
N622 C619 1.351 . S
N622 N623 1.365 . S
N623 C620 1.341 . S
N623 N622 1.365 . S
N623 H643 0.862 . S
C624 C619 1.501 . S
C624 H625 0.961 . S
C624 H626 0.961 . S
C624 H627 0.960 . S
H625 C624 0.961 . S
H626 C624 0.961 . S
H627 C624 0.960 . S
C628 N629 1.342 . S
C628 C632 1.401 . S
C628 C633 1.499 . S
N629 Co612 1.989 . S
N629 C628 1.342 . S
N629 N630 1.388 . S
N630 Co613 1.993 . S
N630 N629 1.388 . S
N630 C631 1.346 . S
C631 N630 1.346 . S
C631 C632 1.396 . S
C631 C641 1.510 . S
C632 C628 1.401 . S
C632 C631 1.396 . S
C633 C628 1.499 . S
C633 H634 0.959 . S
C633 H635 0.960 . S
C633 H636 0.961 . S
H634 C633 0.959 . S
H635 C633 0.960 . S
H636 C633 0.961 . S
O637 Co612 1.967 . S
O637 C645 1.258 . S
O638 Co613 1.941 . S
O638 C645 1.266 . S
H639 C641 0.959 . S
H640 C641 0.961 . S
C641 C631 1.510 . S
C641 H639 0.959 . S
C641 H640 0.961 . S
C641 H642 0.960 . S
H642 C641 0.960 . S
H643 N623 0.862 . S
O644 Co612 1.920 . S
O644 C617 1.289 . S
C645 O637 1.258 . S
C645 O638 1.266 . S
Co646 O649 1.970 . S
Co646 N663 1.989 . S
Co646 O671 1.967 . S
Co646 O678 1.920 . S
Co647 O650 1.966 . S
Co647 N656 2.022 . S
Co647 N664 1.993 . S
Co647 O672 1.941 . S
C648 O649 1.258 . S
C648 O650 1.263 . S
O649 Co646 1.970 . S
O649 C648 1.258 . S
O650 Co647 1.966 . S
O650 C648 1.263 . S
C651 O652 1.235 . S
C651 O678 1.289 . S
O652 C651 1.235 . S
C653 C655 1.400 . S
C653 N656 1.351 . S
C653 C658 1.501 . S
C654 C655 1.387 . S
C654 N657 1.341 . S
C655 C653 1.400 . S
C655 C654 1.387 . S
N656 Co647 2.022 . S
N656 C653 1.351 . S
N656 N657 1.365 . S
N657 C654 1.341 . S
N657 N656 1.365 . S
N657 H677 0.862 . S
C658 C653 1.501 . S
C658 H659 0.961 . S
C658 H660 0.961 . S
C658 H661 0.960 . S
H659 C658 0.961 . S
H660 C658 0.961 . S
H661 C658 0.960 . S
C662 N663 1.342 . S
C662 C666 1.401 . S
C662 C667 1.499 . S
N663 Co646 1.989 . S
N663 C662 1.342 . S
N663 N664 1.388 . S
N664 Co647 1.993 . S
N664 N663 1.388 . S
N664 C665 1.346 . S
C665 N664 1.346 . S
C665 C666 1.396 . S
C665 C675 1.510 . S
C666 C662 1.401 . S
C666 C665 1.396 . S
C667 C662 1.499 . S
C667 H668 0.959 . S
C667 H669 0.960 . S
C667 H670 0.961 . S
H668 C667 0.959 . S
H669 C667 0.960 . S
H670 C667 0.961 . S
O671 Co646 1.967 . S
O671 C679 1.258 . S
O672 Co647 1.941 . S
O672 C679 1.266 . S
H673 C675 0.959 . S
H674 C675 0.961 . S
C675 C665 1.510 . S
C675 H673 0.959 . S
C675 H674 0.961 . S
C675 H676 0.960 . S
H676 C675 0.960 . S
H677 N657 0.862 . S
O678 Co646 1.920 . S
O678 C651 1.289 . S
C679 O671 1.258 . S
C679 O672 1.266 . S
Co680 O683 1.970 . S
Co680 N697 1.989 . S
Co680 O705 1.967 . S
Co680 O712 1.920 . S
Co681 O684 1.966 . S
Co681 N690 2.022 . S
Co681 N698 1.993 . S
Co681 O706 1.941 . S
C682 O683 1.258 . S
C682 O684 1.263 . S
O683 Co680 1.970 . S
O683 C682 1.258 . S
O684 Co681 1.966 . S
O684 C682 1.263 . S
C685 O686 1.235 . S
C685 O712 1.289 . S
O686 C685 1.235 . S
C687 C689 1.400 . S
C687 N690 1.351 . S
C687 C692 1.501 . S
C688 C689 1.387 . S
C688 N691 1.341 . S
C689 C687 1.400 . S
C689 C688 1.387 . S
N690 Co681 2.022 . S
N690 C687 1.351 . S
N690 N691 1.365 . S
N691 C688 1.341 . S
N691 N690 1.365 . S
N691 H711 0.862 . S
C692 C687 1.501 . S
C692 H693 0.961 . S
C692 H694 0.961 . S
C692 H695 0.960 . S
H693 C692 0.961 . S
H694 C692 0.961 . S
H695 C692 0.960 . S
C696 N697 1.342 . S
C696 C700 1.401 . S
C696 C701 1.499 . S
N697 Co680 1.989 . S
N697 C696 1.342 . S
N697 N698 1.388 . S
N698 Co681 1.993 . S
N698 N697 1.388 . S
N698 C699 1.346 . S
C699 N698 1.346 . S
C699 C700 1.396 . S
C699 C709 1.510 . S
C700 C696 1.401 . S
C700 C699 1.396 . S
C701 C696 1.499 . S
C701 H702 0.959 . S
C701 H703 0.960 . S
C701 H704 0.961 . S
H702 C701 0.959 . S
H703 C701 0.960 . S
H704 C701 0.961 . S
O705 Co680 1.967 . S
O705 C713 1.258 . S
O706 Co681 1.941 . S
O706 C713 1.266 . S
H707 C709 0.959 . S
H708 C709 0.961 . S
C709 C699 1.510 . S
C709 H707 0.959 . S
C709 H708 0.961 . S
C709 H710 0.960 . S
H710 C709 0.960 . S
H711 N691 0.862 . S
O712 Co680 1.920 . S
O712 C685 1.289 . S
C713 O705 1.258 . S
C713 O706 1.266 . S
Co714 O717 1.970 . S
Co714 N731 1.989 . S
Co714 O739 1.967 . S
Co714 O746 1.920 . S
Co715 O718 1.966 . S
Co715 N724 2.022 . S
Co715 N732 1.993 . S
Co715 O740 1.941 . S
C716 O717 1.258 . S
C716 O718 1.263 . S
O717 Co714 1.970 . S
O717 C716 1.258 . S
O718 Co715 1.966 . S
O718 C716 1.263 . S
C719 O720 1.235 . S
C719 O746 1.289 . S
O720 C719 1.235 . S
C721 C723 1.400 . S
C721 N724 1.351 . S
C721 C726 1.501 . S
C722 C723 1.387 . S
C722 N725 1.341 . S
C723 C721 1.400 . S
C723 C722 1.387 . S
N724 Co715 2.022 . S
N724 C721 1.351 . S
N724 N725 1.365 . S
N725 C722 1.341 . S
N725 N724 1.365 . S
N725 H745 0.862 . S
C726 C721 1.501 . S
C726 H727 0.961 . S
C726 H728 0.961 . S
C726 H729 0.960 . S
H727 C726 0.961 . S
H728 C726 0.961 . S
H729 C726 0.960 . S
C730 N731 1.342 . S
C730 C734 1.401 . S
C730 C735 1.499 . S
N731 Co714 1.989 . S
N731 C730 1.342 . S
N731 N732 1.388 . S
N732 Co715 1.993 . S
N732 N731 1.388 . S
N732 C733 1.346 . S
C733 N732 1.346 . S
C733 C734 1.396 . S
C733 C743 1.510 . S
C734 C730 1.401 . S
C734 C733 1.396 . S
C735 C730 1.499 . S
C735 H736 0.959 . S
C735 H737 0.960 . S
C735 H738 0.961 . S
H736 C735 0.959 . S
H737 C735 0.960 . S
H738 C735 0.961 . S
O739 Co714 1.967 . S
O739 C747 1.258 . S
O740 Co715 1.941 . S
O740 C747 1.266 . S
H741 C743 0.959 . S
H742 C743 0.961 . S
C743 C733 1.510 . S
C743 H741 0.959 . S
C743 H742 0.961 . S
C743 H744 0.960 . S
H744 C743 0.960 . S
H745 N725 0.862 . S
O746 Co714 1.920 . S
O746 C719 1.289 . S
C747 O739 1.258 . S
C747 O740 1.266 . S
Co748 O751 1.970 . S
Co748 N765 1.989 . S
Co748 O773 1.967 . S
Co748 O780 1.920 . S
Co749 O752 1.966 . S
Co749 N758 2.022 . S
Co749 N766 1.993 . S
Co749 O774 1.941 . S
C750 O751 1.258 . S
C750 O752 1.263 . S
O751 Co748 1.970 . S
O751 C750 1.258 . S
O752 Co749 1.966 . S
O752 C750 1.263 . S
C753 O754 1.235 . S
C753 O780 1.289 . S
O754 C753 1.235 . S
C755 C757 1.400 . S
C755 N758 1.351 . S
C755 C760 1.501 . S
C756 C757 1.387 . S
C756 N759 1.341 . S
C757 C755 1.400 . S
C757 C756 1.387 . S
N758 Co749 2.022 . S
N758 C755 1.351 . S
N758 N759 1.365 . S
N759 C756 1.341 . S
N759 N758 1.365 . S
N759 H779 0.862 . S
C760 C755 1.501 . S
C760 H761 0.961 . S
C760 H762 0.961 . S
C760 H763 0.960 . S
H761 C760 0.961 . S
H762 C760 0.961 . S
H763 C760 0.960 . S
C764 N765 1.342 . S
C764 C768 1.401 . S
C764 C769 1.499 . S
N765 Co748 1.989 . S
N765 C764 1.342 . S
N765 N766 1.388 . S
N766 Co749 1.993 . S
N766 N765 1.388 . S
N766 C767 1.346 . S
C767 N766 1.346 . S
C767 C768 1.396 . S
C767 C777 1.510 . S
C768 C764 1.401 . S
C768 C767 1.396 . S
C769 C764 1.499 . S
C769 H770 0.959 . S
C769 H771 0.960 . S
C769 H772 0.961 . S
H770 C769 0.959 . S
H771 C769 0.960 . S
H772 C769 0.961 . S
O773 Co748 1.967 . S
O773 C781 1.258 . S
O774 Co749 1.941 . S
O774 C781 1.266 . S
H775 C777 0.959 . S
H776 C777 0.961 . S
C777 C767 1.510 . S
C777 H775 0.959 . S
C777 H776 0.961 . S
C777 H778 0.960 . S
H778 C777 0.960 . S
H779 N759 0.862 . S
O780 Co748 1.920 . S
O780 C753 1.289 . S
C781 O773 1.258 . S
C781 O774 1.266 . S
Co782 O785 1.970 . S
Co782 N799 1.989 . S
Co782 O807 1.967 . S
Co782 O814 1.920 . S
Co783 O786 1.966 . S
Co783 N792 2.022 . S
Co783 N800 1.993 . S
Co783 O808 1.941 . S
C784 O785 1.258 . S
C784 O786 1.263 . S
O785 Co782 1.970 . S
O785 C784 1.258 . S
O786 Co783 1.966 . S
O786 C784 1.263 . S
C787 O788 1.235 . S
C787 O814 1.289 . S
O788 C787 1.235 . S
C789 C791 1.400 . S
C789 N792 1.351 . S
C789 C794 1.501 . S
C790 C791 1.387 . S
C790 N793 1.341 . S
C791 C789 1.400 . S
C791 C790 1.387 . S
N792 Co783 2.022 . S
N792 C789 1.351 . S
N792 N793 1.365 . S
N793 C790 1.341 . S
N793 N792 1.365 . S
N793 H813 0.862 . S
C794 C789 1.501 . S
C794 H795 0.961 . S
C794 H796 0.961 . S
C794 H797 0.960 . S
H795 C794 0.961 . S
H796 C794 0.961 . S
H797 C794 0.960 . S
C798 N799 1.342 . S
C798 C802 1.401 . S
C798 C803 1.499 . S
N799 Co782 1.989 . S
N799 C798 1.342 . S
N799 N800 1.388 . S
N800 Co783 1.993 . S
N800 N799 1.388 . S
N800 C801 1.346 . S
C801 N800 1.346 . S
C801 C802 1.396 . S
C801 C811 1.510 . S
C802 C798 1.401 . S
C802 C801 1.396 . S
C803 C798 1.499 . S
C803 H804 0.959 . S
C803 H805 0.960 . S
C803 H806 0.961 . S
H804 C803 0.959 . S
H805 C803 0.960 . S
H806 C803 0.961 . S
O807 Co782 1.967 . S
O807 C815 1.258 . S
O808 Co783 1.941 . S
O808 C815 1.266 . S
H809 C811 0.959 . S
H810 C811 0.961 . S
C811 C801 1.510 . S
C811 H809 0.959 . S
C811 H810 0.961 . S
C811 H812 0.960 . S
H812 C811 0.960 . S
H813 N793 0.862 . S
O814 Co782 1.920 . S
O814 C787 1.289 . S
C815 O807 1.258 . S
C815 O808 1.266 . S
C816 C817 1.363 . S
C816 C822 1.379 1_545 S
C816 N824 1.356 . S
C817 C816 1.363 . S
C817 C823 1.363 . S
C818 C819 1.363 . S
C818 C823 1.379 1_565 S
C818 N825 1.356 . S
C819 C818 1.363 . S
C819 C822 1.363 . S
N820 C822 1.356 . S
N820 H832 0.984 . S
N820 H833 0.985 . S
N821 C823 1.356 . S
N821 H826 0.984 . S
N821 H827 0.985 . S
C822 C816 1.379 1_565 S
C822 C819 1.363 . S
C822 N820 1.356 . S
C823 C817 1.363 . S
C823 C818 1.379 1_545 S
C823 N821 1.356 . S
N824 C816 1.356 . S
N824 H830 0.984 . S
N824 H831 0.984 . S
N825 C818 1.356 . S
N825 H828 0.984 . S
N825 H829 0.985 . S
H826 N821 0.984 . S
H827 N821 0.985 . S
H828 N825 0.984 . S
H829 N825 0.985 . S
H830 N824 0.984 . S
H831 N824 0.984 . S
H832 N820 0.984 . S
H833 N820 0.985 . S
C834 C835 1.363 . S
C834 C840 1.379 . S
C834 N842 1.356 . S
C835 C834 1.363 . S
C835 C841 1.363 . S
C836 C837 1.363 . S
C836 C841 1.379 . S
C836 N843 1.356 . S
C837 C836 1.363 . S
C837 C840 1.363 . S
N838 C840 1.356 . S
N838 H850 0.984 . S
N838 H851 0.985 . S
N839 C841 1.356 . S
N839 H844 0.984 . S
N839 H845 0.985 . S
C840 C834 1.379 . S
C840 C837 1.363 . S
C840 N838 1.356 . S
C841 C835 1.363 . S
C841 C836 1.379 . S
C841 N839 1.356 . S
N842 C834 1.356 . S
N842 H848 0.984 . S
N842 H849 0.984 . S
N843 C836 1.356 . S
N843 H846 0.984 . S
N843 H847 0.985 . S
H844 N839 0.984 . S
H845 N839 0.985 . S
H846 N843 0.984 . S
H847 N843 0.985 . S
H848 N842 0.984 . S
H849 N842 0.984 . S
H850 N838 0.984 . S
H851 N838 0.985 . S
C852 C853 1.363 . S
C852 C858 1.379 1_455 S
C852 N860 1.356 . S
C853 C852 1.363 . S
C853 C859 1.363 . S
C854 C855 1.363 . S
C854 C859 1.379 1_655 S
C854 N861 1.356 . S
C855 C854 1.363 . S
C855 C858 1.363 . S
N856 C858 1.356 . S
N856 H868 0.984 . S
N856 H869 0.985 . S
N857 C859 1.356 . S
N857 H862 0.984 . S
N857 H863 0.985 . S
C858 C852 1.379 1_655 S
C858 C855 1.363 . S
C858 N856 1.356 . S
C859 C853 1.363 . S
C859 C854 1.379 1_455 S
C859 N857 1.356 . S
N860 C852 1.356 . S
N860 H866 0.984 . S
N860 H867 0.984 . S
N861 C854 1.356 . S
N861 H864 0.984 . S
N861 H865 0.985 . S
H862 N857 0.984 . S
H863 N857 0.985 . S
H864 N861 0.984 . S
H865 N861 0.985 . S
H866 N860 0.984 . S
H867 N860 0.984 . S
H868 N856 0.984 . S
H869 N856 0.985 . S
C870 C871 1.363 . S
C870 C876 1.379 1_455 S
C870 N878 1.356 . S
C871 C870 1.363 . S
C871 C877 1.363 . S
C872 C873 1.363 . S
C872 C877 1.379 1_655 S
C872 N879 1.356 . S
C873 C872 1.363 . S
C873 C876 1.363 . S
N874 C876 1.356 . S
N874 H886 0.984 . S
N874 H887 0.985 . S
N875 C877 1.356 . S
N875 H880 0.984 . S
N875 H881 0.985 . S
C876 C870 1.379 1_655 S
C876 C873 1.363 . S
C876 N874 1.356 . S
C877 C871 1.363 . S
C877 C872 1.379 1_455 S
C877 N875 1.356 . S
N878 C870 1.356 . S
N878 H884 0.984 . S
N878 H885 0.984 . S
N879 C872 1.356 . S
N879 H882 0.984 . S
N879 H883 0.985 . S
H880 N875 0.984 . S
H881 N875 0.985 . S
H882 N879 0.984 . S
H883 N879 0.985 . S
H884 N878 0.984 . S
H885 N878 0.984 . S
H886 N874 0.984 . S
H887 N874 0.985 . S
C888 C889 1.363 . S
C888 C894 1.379 1_565 S
C888 N896 1.356 . S
C889 C888 1.363 . S
C889 C895 1.363 . S
C890 C891 1.363 . S
C890 C895 1.379 1_545 S
C890 N897 1.356 . S
C891 C890 1.363 . S
C891 C894 1.363 . S
N892 C894 1.356 . S
N892 H904 0.984 . S
N892 H905 0.985 . S
N893 C895 1.356 . S
N893 H898 0.984 . S
N893 H899 0.985 . S
C894 C888 1.379 1_545 S
C894 C891 1.363 . S
C894 N892 1.356 . S
C895 C889 1.363 . S
C895 C890 1.379 1_565 S
C895 N893 1.356 . S
N896 C888 1.356 . S
N896 H902 0.984 . S
N896 H903 0.984 . S
N897 C890 1.356 . S
N897 H900 0.984 . S
N897 H901 0.985 . S
H898 N893 0.984 . S
H899 N893 0.985 . S
H900 N897 0.984 . S
H901 N897 0.985 . S
H902 N896 0.984 . S
H903 N896 0.984 . S
H904 N892 0.984 . S
H905 N892 0.985 . S
C906 C907 1.363 . S
C906 C912 1.379 . S
C906 N914 1.356 . S
C907 C906 1.363 . S
C907 C913 1.363 . S
C908 C909 1.363 . S
C908 C913 1.379 . S
C908 N915 1.356 . S
C909 C908 1.363 . S
C909 C912 1.363 . S
N910 C912 1.356 . S
N910 H922 0.984 . S
N910 H923 0.985 . S
N911 C913 1.356 . S
N911 H916 0.984 . S
N911 H917 0.985 . S
C912 C906 1.379 . S
C912 C909 1.363 . S
C912 N910 1.356 . S
C913 C907 1.363 . S
C913 C908 1.379 . S
C913 N911 1.356 . S
N914 C906 1.356 . S
N914 H920 0.984 . S
N914 H921 0.984 . S
N915 C908 1.356 . S
N915 H918 0.984 . S
N915 H919 0.985 . S
H916 N911 0.984 . S
H917 N911 0.985 . S
H918 N915 0.984 . S
H919 N915 0.985 . S
H920 N914 0.984 . S
H921 N914 0.984 . S
H922 N910 0.984 . S
H923 N910 0.985 . S
C924 C925 1.363 . S
C924 C930 1.379 1_545 S
C924 N932 1.356 . S
C925 C924 1.363 . S
C925 C931 1.363 . S
C926 C927 1.363 . S
C926 C931 1.379 1_565 S
C926 N933 1.356 . S
C927 C926 1.363 . S
C927 C930 1.363 . S
N928 C930 1.356 . S
N928 H940 0.984 . S
N928 H941 0.985 . S
N929 C931 1.356 . S
N929 H934 0.984 . S
N929 H935 0.985 . S
C930 C924 1.379 1_565 S
C930 C927 1.363 . S
C930 N928 1.356 . S
C931 C925 1.363 . S
C931 C926 1.379 1_545 S
C931 N929 1.356 . S
N932 C924 1.356 . S
N932 H938 0.984 . S
N932 H939 0.984 . S
N933 C926 1.356 . S
N933 H936 0.984 . S
N933 H937 0.985 . S
H934 N929 0.984 . S
H935 N929 0.985 . S
H936 N933 0.984 . S
H937 N933 0.985 . S
H938 N932 0.984 . S
H939 N932 0.984 . S
H940 N928 0.984 . S
H941 N928 0.985 . S
C942 C943 1.363 . S
C942 C948 1.379 . S
C942 N950 1.356 . S
C943 C942 1.363 . S
C943 C949 1.363 . S
C944 C945 1.363 . S
C944 C949 1.379 . S
C944 N951 1.356 . S
C945 C944 1.363 . S
C945 C948 1.363 . S
N946 C948 1.356 . S
N946 H958 0.984 . S
N946 H959 0.985 . S
N947 C949 1.356 . S
N947 H952 0.984 . S
N947 H953 0.985 . S
C948 C942 1.379 . S
C948 C945 1.363 . S
C948 N946 1.356 . S
C949 C943 1.363 . S
C949 C944 1.379 . S
C949 N947 1.356 . S
N950 C942 1.356 . S
N950 H956 0.984 . S
N950 H957 0.984 . S
N951 C944 1.356 . S
N951 H954 0.984 . S
N951 H955 0.985 . S
H952 N947 0.984 . S
H953 N947 0.985 . S
H954 N951 0.984 . S
H955 N951 0.985 . S
H956 N950 0.984 . S
H957 N950 0.984 . S
H958 N946 0.984 . S
H959 N946 0.985 . S
C960 C961 1.363 . S
C960 C966 1.379 1_655 S
C960 N968 1.356 . S
C961 C960 1.363 . S
C961 C967 1.363 . S
C962 C963 1.363 . S
C962 C967 1.379 1_455 S
C962 N969 1.356 . S
C963 C962 1.363 . S
C963 C966 1.363 . S
N964 C966 1.356 . S
N964 H976 0.984 . S
N964 H977 0.985 . S
N965 C967 1.356 . S
N965 H970 0.984 . S
N965 H971 0.985 . S
C966 C960 1.379 1_455 S
C966 C963 1.363 . S
C966 N964 1.356 . S
C967 C961 1.363 . S
C967 C962 1.379 1_655 S
C967 N965 1.356 . S
N968 C960 1.356 . S
N968 H974 0.984 . S
N968 H975 0.984 . S
N969 C962 1.356 . S
N969 H972 0.984 . S
N969 H973 0.985 . S
H970 N965 0.984 . S
H971 N965 0.985 . S
H972 N969 0.984 . S
H973 N969 0.985 . S
H974 N968 0.984 . S
H975 N968 0.984 . S
H976 N964 0.984 . S
H977 N964 0.985 . S
C978 C979 1.363 . S
C978 C984 1.379 1_655 S
C978 N986 1.356 . S
C979 C978 1.363 . S
C979 C985 1.363 . S
C980 C981 1.363 . S
C980 C985 1.379 1_455 S
C980 N987 1.356 . S
C981 C980 1.363 . S
C981 C984 1.363 . S
N982 C984 1.356 . S
N982 H994 0.984 . S
N982 H995 0.985 . S
N983 C985 1.356 . S
N983 H988 0.984 . S
N983 H989 0.985 . S
C984 C978 1.379 1_455 S
C984 C981 1.363 . S
C984 N982 1.356 . S
C985 C979 1.363 . S
C985 C980 1.379 1_655 S
C985 N983 1.356 . S
N986 C978 1.356 . S
N986 H992 0.984 . S
N986 H993 0.984 . S
N987 C980 1.356 . S
N987 H990 0.984 . S
N987 H991 0.985 . S
H988 N983 0.984 . S
H989 N983 0.985 . S
H990 N987 0.984 . S
H991 N987 0.985 . S
H992 N986 0.984 . S
H993 N986 0.984 . S
H994 N982 0.984 . S
H995 N982 0.985 . S
C996 C997 1.363 . S
C996 C1002 1.379 1_545 S
C996 N1004 1.356 . S
C997 C996 1.363 . S
C997 C1003 1.363 . S
C998 C999 1.363 . S
C998 C1003 1.379 1_565 S
C998 N1005 1.356 . S
C999 C998 1.363 . S
C999 C1002 1.363 . S
N1000 C1002 1.356 . S
N1000 H1012 0.984 . S
N1000 H1013 0.985 . S
N1001 C1003 1.356 . S
N1001 H1006 0.984 . S
N1001 H1007 0.985 . S
C1002 C996 1.379 1_565 S
C1002 C999 1.363 . S
C1002 N1000 1.356 . S
C1003 C997 1.363 . S
C1003 C998 1.379 1_545 S
C1003 N1001 1.356 . S
N1004 C996 1.356 . S
N1004 H1010 0.984 . S
N1004 H1011 0.984 . S
N1005 C998 1.356 . S
N1005 H1008 0.984 . S
N1005 H1009 0.985 . S
H1006 N1001 0.984 . S
H1007 N1001 0.985 . S
H1008 N1005 0.984 . S
H1009 N1005 0.985 . S
H1010 N1004 0.984 . S
H1011 N1004 0.984 . S
H1012 N1000 0.984 . S
H1013 N1000 0.985 . S
C1014 C1015 1.363 . S
C1014 C1020 1.379 . S
C1014 N1022 1.356 . S
C1015 C1014 1.363 . S
C1015 C1021 1.363 . S
C1016 C1017 1.363 . S
C1016 C1021 1.379 . S
C1016 N1023 1.356 . S
C1017 C1016 1.363 . S
C1017 C1020 1.363 . S
N1018 C1020 1.356 . S
N1018 H1030 0.984 . S
N1018 H1031 0.985 . S
N1019 C1021 1.356 . S
N1019 H1024 0.984 . S
N1019 H1025 0.985 . S
C1020 C1014 1.379 . S
C1020 C1017 1.363 . S
C1020 N1018 1.356 . S
C1021 C1015 1.363 . S
C1021 C1016 1.379 . S
C1021 N1019 1.356 . S
N1022 C1014 1.356 . S
N1022 H1028 0.984 . S
N1022 H1029 0.984 . S
N1023 C1016 1.356 . S
N1023 H1026 0.984 . S
N1023 H1027 0.985 . S
H1024 N1019 0.984 . S
H1025 N1019 0.985 . S
H1026 N1023 0.984 . S
H1027 N1023 0.985 . S
H1028 N1022 0.984 . S
H1029 N1022 0.984 . S
H1030 N1018 0.984 . S
H1031 N1018 0.985 . S
C1032 C1033 1.363 . S
C1032 C1038 1.379 . S
C1032 N1040 1.356 . S
C1033 C1032 1.363 . S
C1033 C1039 1.363 . S
C1034 C1035 1.363 . S
C1034 C1039 1.379 . S
C1034 N1041 1.356 . S
C1035 C1034 1.363 . S
C1035 C1038 1.363 . S
N1036 C1038 1.356 . S
N1036 H1048 0.984 . S
N1036 H1049 0.985 . S
N1037 C1039 1.356 . S
N1037 H1042 0.984 . S
N1037 H1043 0.985 . S
C1038 C1032 1.379 . S
C1038 C1035 1.363 . S
C1038 N1036 1.356 . S
C1039 C1033 1.363 . S
C1039 C1034 1.379 . S
C1039 N1037 1.356 . S
N1040 C1032 1.356 . S
N1040 H1046 0.984 . S
N1040 H1047 0.984 . S
N1041 C1034 1.356 . S
N1041 H1044 0.984 . S
N1041 H1045 0.985 . S
H1042 N1037 0.984 . S
H1043 N1037 0.985 . S
H1044 N1041 0.984 . S
H1045 N1041 0.985 . S
H1046 N1040 0.984 . S
H1047 N1040 0.984 . S
H1048 N1036 0.984 . S
H1049 N1036 0.985 . S
C1050 C1051 1.363 . S
C1050 C1056 1.379 . S
C1050 N1058 1.356 . S
C1051 C1050 1.363 . S
C1051 C1057 1.363 . S
C1052 C1053 1.363 . S
C1052 C1057 1.379 . S
C1052 N1059 1.356 . S
C1053 C1052 1.363 . S
C1053 C1056 1.363 . S
N1054 C1056 1.356 . S
N1054 H1066 0.984 . S
N1054 H1067 0.985 . S
N1055 C1057 1.356 . S
N1055 H1060 0.984 . S
N1055 H1061 0.985 . S
C1056 C1050 1.379 . S
C1056 C1053 1.363 . S
C1056 N1054 1.356 . S
C1057 C1051 1.363 . S
C1057 C1052 1.379 . S
C1057 N1055 1.356 . S
N1058 C1050 1.356 . S
N1058 H1064 0.984 . S
N1058 H1065 0.984 . S
N1059 C1052 1.356 . S
N1059 H1062 0.984 . S
N1059 H1063 0.985 . S
H1060 N1055 0.984 . S
H1061 N1055 0.985 . S
H1062 N1059 0.984 . S
H1063 N1059 0.985 . S
H1064 N1058 0.984 . S
H1065 N1058 0.984 . S
H1066 N1054 0.984 . S
H1067 N1054 0.985 . S
C1068 C1069 1.363 . S
C1068 C1074 1.379 . S
C1068 N1076 1.356 . S
C1069 C1068 1.363 . S
C1069 C1075 1.363 . S
C1070 C1071 1.363 . S
C1070 C1075 1.379 . S
C1070 N1077 1.356 . S
C1071 C1070 1.363 . S
C1071 C1074 1.363 . S
N1072 C1074 1.356 . S
N1072 H1084 0.984 . S
N1072 H1085 0.985 . S
N1073 C1075 1.356 . S
N1073 H1078 0.984 . S
N1073 H1079 0.985 . S
C1074 C1068 1.379 . S
C1074 C1071 1.363 . S
C1074 N1072 1.356 . S
C1075 C1069 1.363 . S
C1075 C1070 1.379 . S
C1075 N1073 1.356 . S
N1076 C1068 1.356 . S
N1076 H1082 0.984 . S
N1076 H1083 0.984 . S
N1077 C1070 1.356 . S
N1077 H1080 0.984 . S
N1077 H1081 0.985 . S
H1078 N1073 0.984 . S
H1079 N1073 0.985 . S
H1080 N1077 0.984 . S
H1081 N1077 0.985 . S
H1082 N1076 0.984 . S
H1083 N1076 0.984 . S
H1084 N1072 0.984 . S
H1085 N1072 0.985 . S
C1086 C1087 1.363 . S
C1086 C1092 1.379 . S
C1086 N1094 1.356 . S
C1087 C1086 1.363 . S
C1087 C1093 1.363 . S
C1088 C1089 1.363 . S
C1088 C1093 1.379 . S
C1088 N1095 1.356 . S
C1089 C1088 1.363 . S
C1089 C1092 1.363 . S
N1090 C1092 1.356 . S
N1090 H1102 0.984 . S
N1090 H1103 0.985 . S
N1091 C1093 1.356 . S
N1091 H1096 0.984 . S
N1091 H1097 0.985 . S
C1092 C1086 1.379 . S
C1092 C1089 1.363 . S
C1092 N1090 1.356 . S
C1093 C1087 1.363 . S
C1093 C1088 1.379 . S
C1093 N1091 1.356 . S
N1094 C1086 1.356 . S
N1094 H1100 0.984 . S
N1094 H1101 0.984 . S
N1095 C1088 1.356 . S
N1095 H1098 0.984 . S
N1095 H1099 0.985 . S
H1096 N1091 0.984 . S
H1097 N1091 0.985 . S
H1098 N1095 0.984 . S
H1099 N1095 0.985 . S
H1100 N1094 0.984 . S
H1101 N1094 0.984 . S
H1102 N1090 0.984 . S
H1103 N1090 0.985 . S
C1104 C1105 1.363 . S
C1104 C1110 1.379 . S
C1104 N1112 1.356 . S
C1105 C1104 1.363 . S
C1105 C1111 1.363 . S
C1106 C1107 1.363 . S
C1106 C1111 1.379 . S
C1106 N1113 1.356 . S
C1107 C1106 1.363 . S
C1107 C1110 1.363 . S
N1108 C1110 1.356 . S
N1108 H1120 0.984 . S
N1108 H1121 0.985 . S
N1109 C1111 1.356 . S
N1109 H1114 0.984 . S
N1109 H1115 0.985 . S
C1110 C1104 1.379 . S
C1110 C1107 1.363 . S
C1110 N1108 1.356 . S
C1111 C1105 1.363 . S
C1111 C1106 1.379 . S
C1111 N1109 1.356 . S
N1112 C1104 1.356 . S
N1112 H1118 0.984 . S
N1112 H1119 0.984 . S
N1113 C1106 1.356 . S
N1113 H1116 0.984 . S
N1113 H1117 0.985 . S
H1114 N1109 0.984 . S
H1115 N1109 0.985 . S
H1116 N1113 0.984 . S
H1117 N1113 0.985 . S
H1118 N1112 0.984 . S
H1119 N1112 0.984 . S
H1120 N1108 0.984 . S
H1121 N1108 0.985 . S
C1122 C1123 1.363 . S
C1122 C1128 1.379 . S
C1122 N1130 1.356 . S
C1123 C1122 1.363 . S
C1123 C1129 1.363 . S
C1124 C1125 1.363 . S
C1124 C1129 1.379 . S
C1124 N1131 1.356 . S
C1125 C1124 1.363 . S
C1125 C1128 1.363 . S
N1126 C1128 1.356 . S
N1126 H1138 0.984 . S
N1126 H1139 0.985 . S
N1127 C1129 1.356 . S
N1127 H1132 0.984 . S
N1127 H1133 0.985 . S
C1128 C1122 1.379 . S
C1128 C1125 1.363 . S
C1128 N1126 1.356 . S
C1129 C1123 1.363 . S
C1129 C1124 1.379 . S
C1129 N1127 1.356 . S
N1130 C1122 1.356 . S
N1130 H1136 0.984 . S
N1130 H1137 0.984 . S
N1131 C1124 1.356 . S
N1131 H1134 0.984 . S
N1131 H1135 0.985 . S
H1132 N1127 0.984 . S
H1133 N1127 0.985 . S
H1134 N1131 0.984 . S
H1135 N1131 0.985 . S
H1136 N1130 0.984 . S
H1137 N1130 0.984 . S
H1138 N1126 0.984 . S
H1139 N1126 0.985 . S
C1140 C1141 1.363 . S
C1140 C1146 1.379 . S
C1140 N1148 1.356 . S
C1141 C1140 1.363 . S
C1141 C1147 1.363 . S
C1142 C1143 1.363 . S
C1142 C1147 1.379 . S
C1142 N1149 1.356 . S
C1143 C1142 1.363 . S
C1143 C1146 1.363 . S
N1144 C1146 1.356 . S
N1144 H1156 0.984 . S
N1144 H1157 0.985 . S
N1145 C1147 1.356 . S
N1145 H1150 0.984 . S
N1145 H1151 0.985 . S
C1146 C1140 1.379 . S
C1146 C1143 1.363 . S
C1146 N1144 1.356 . S
C1147 C1141 1.363 . S
C1147 C1142 1.379 . S
C1147 N1145 1.356 . S
N1148 C1140 1.356 . S
N1148 H1154 0.984 . S
N1148 H1155 0.984 . S
N1149 C1142 1.356 . S
N1149 H1152 0.984 . S
N1149 H1153 0.985 . S
H1150 N1145 0.984 . S
H1151 N1145 0.985 . S
H1152 N1149 0.984 . S
H1153 N1149 0.985 . S
H1154 N1148 0.984 . S
H1155 N1148 0.984 . S
H1156 N1144 0.984 . S
H1157 N1144 0.985 . S
C1158 C1159 1.363 . S
C1158 C1164 1.379 . S
C1158 N1166 1.356 . S
C1159 C1158 1.363 . S
C1159 C1165 1.363 . S
C1160 C1161 1.363 . S
C1160 C1165 1.379 . S
C1160 N1167 1.356 . S
C1161 C1160 1.363 . S
C1161 C1164 1.363 . S
N1162 C1164 1.356 . S
N1162 H1174 0.984 . S
N1162 H1175 0.985 . S
N1163 C1165 1.356 . S
N1163 H1168 0.984 . S
N1163 H1169 0.985 . S
C1164 C1158 1.379 . S
C1164 C1161 1.363 . S
C1164 N1162 1.356 . S
C1165 C1159 1.363 . S
C1165 C1160 1.379 . S
C1165 N1163 1.356 . S
N1166 C1158 1.356 . S
N1166 H1172 0.984 . S
N1166 H1173 0.984 . S
N1167 C1160 1.356 . S
N1167 H1170 0.984 . S
N1167 H1171 0.985 . S
H1168 N1163 0.984 . S
H1169 N1163 0.985 . S
H1170 N1167 0.984 . S
H1171 N1167 0.985 . S
H1172 N1166 0.984 . S
H1173 N1166 0.984 . S
H1174 N1162 0.984 . S
H1175 N1162 0.985 . S
C1176 C1177 1.363 . S
C1176 C1182 1.379 . S
C1176 N1184 1.356 . S
C1177 C1176 1.363 . S
C1177 C1183 1.363 . S
C1178 C1179 1.363 . S
C1178 C1183 1.379 . S
C1178 N1185 1.356 . S
C1179 C1178 1.363 . S
C1179 C1182 1.363 . S
N1180 C1182 1.356 . S
N1180 H1192 0.984 . S
N1180 H1193 0.985 . S
N1181 C1183 1.356 . S
N1181 H1186 0.984 . S
N1181 H1187 0.985 . S
C1182 C1176 1.379 . S
C1182 C1179 1.363 . S
C1182 N1180 1.356 . S
C1183 C1177 1.363 . S
C1183 C1178 1.379 . S
C1183 N1181 1.356 . S
N1184 C1176 1.356 . S
N1184 H1190 0.984 . S
N1184 H1191 0.984 . S
N1185 C1178 1.356 . S
N1185 H1188 0.984 . S
N1185 H1189 0.985 . S
H1186 N1181 0.984 . S
H1187 N1181 0.985 . S
H1188 N1185 0.984 . S
H1189 N1185 0.985 . S
H1190 N1184 0.984 . S
H1191 N1184 0.984 . S
H1192 N1180 0.984 . S
H1193 N1180 0.985 . S
C1194 C1195 1.363 . S
C1194 C1200 1.379 . S
C1194 N1202 1.356 . S
C1195 C1194 1.363 . S
C1195 C1201 1.363 . S
C1196 C1197 1.363 . S
C1196 C1201 1.379 . S
C1196 N1203 1.356 . S
C1197 C1196 1.363 . S
C1197 C1200 1.363 . S
N1198 C1200 1.356 . S
N1198 H1210 0.984 . S
N1198 H1211 0.985 . S
N1199 C1201 1.356 . S
N1199 H1204 0.984 . S
N1199 H1205 0.985 . S
C1200 C1194 1.379 . S
C1200 C1197 1.363 . S
C1200 N1198 1.356 . S
C1201 C1195 1.363 . S
C1201 C1196 1.379 . S
C1201 N1199 1.356 . S
N1202 C1194 1.356 . S
N1202 H1208 0.984 . S
N1202 H1209 0.984 . S
N1203 C1196 1.356 . S
N1203 H1206 0.984 . S
N1203 H1207 0.985 . S
H1204 N1199 0.984 . S
H1205 N1199 0.985 . S
H1206 N1203 0.984 . S
H1207 N1203 0.985 . S
H1208 N1202 0.984 . S
H1209 N1202 0.984 . S
H1210 N1198 0.984 . S
H1211 N1198 0.985 . S
C1212 C1213 1.363 . S
C1212 C1218 1.379 . S
C1212 N1220 1.356 . S
C1213 C1212 1.363 . S
C1213 C1219 1.363 . S
C1214 C1215 1.363 . S
C1214 C1219 1.379 . S
C1214 N1221 1.356 . S
C1215 C1214 1.363 . S
C1215 C1218 1.363 . S
N1216 C1218 1.356 . S
N1216 H1228 0.984 . S
N1216 H1229 0.985 . S
N1217 C1219 1.356 . S
N1217 H1222 0.984 . S
N1217 H1223 0.985 . S
C1218 C1212 1.379 . S
C1218 C1215 1.363 . S
C1218 N1216 1.356 . S
C1219 C1213 1.363 . S
C1219 C1214 1.379 . S
C1219 N1217 1.356 . S
N1220 C1212 1.356 . S
N1220 H1226 0.984 . S
N1220 H1227 0.984 . S
N1221 C1214 1.356 . S
N1221 H1224 0.984 . S
N1221 H1225 0.985 . S
H1222 N1217 0.984 . S
H1223 N1217 0.985 . S
H1224 N1221 0.984 . S
H1225 N1221 0.985 . S
H1226 N1220 0.984 . S
H1227 N1220 0.984 . S
H1228 N1216 0.984 . S
H1229 N1216 0.985 . S
C1230 C1231 1.363 . S
C1230 C1236 1.379 . S
C1230 N1238 1.356 . S
C1231 C1230 1.363 . S
C1231 C1237 1.363 . S
C1232 C1233 1.363 . S
C1232 C1237 1.379 . S
C1232 N1239 1.356 . S
C1233 C1232 1.363 . S
C1233 C1236 1.363 . S
N1234 C1236 1.356 . S
N1234 H1246 0.984 . S
N1234 H1247 0.985 . S
N1235 C1237 1.356 . S
N1235 H1240 0.984 . S
N1235 H1241 0.985 . S
C1236 C1230 1.379 . S
C1236 C1233 1.363 . S
C1236 N1234 1.356 . S
C1237 C1231 1.363 . S
C1237 C1232 1.379 . S
C1237 N1235 1.356 . S
N1238 C1230 1.356 . S
N1238 H1244 0.984 . S
N1238 H1245 0.984 . S
N1239 C1232 1.356 . S
N1239 H1242 0.984 . S
N1239 H1243 0.985 . S
H1240 N1235 0.984 . S
H1241 N1235 0.985 . S
H1242 N1239 0.984 . S
H1243 N1239 0.985 . S
H1244 N1238 0.984 . S
H1245 N1238 0.984 . S
H1246 N1234 0.984 . S
H1247 N1234 0.985 . S
C1248 C1249 1.363 . S
C1248 C1254 1.379 1_545 S
C1248 N1256 1.356 . S
C1249 C1248 1.363 . S
C1249 C1255 1.363 . S
C1250 C1251 1.363 . S
C1250 C1255 1.379 1_565 S
C1250 N1257 1.356 . S
C1251 C1250 1.363 . S
C1251 C1254 1.363 . S
N1252 C1254 1.356 . S
N1252 H1264 1.016 . S
N1252 H1265 0.985 . S
N1253 C1255 1.356 . S
N1253 H1258 0.984 . S
N1253 H1259 1.016 . S
C1254 C1248 1.379 1_565 S
C1254 C1251 1.363 . S
C1254 N1252 1.356 . S
C1255 C1249 1.363 . S
C1255 C1250 1.379 1_545 S
C1255 N1253 1.356 . S
N1256 C1248 1.356 . S
N1256 H1262 0.984 . S
N1256 H1263 0.984 . S
N1257 C1250 1.356 . S
N1257 H1260 0.984 . S
N1257 H1261 0.985 . S
H1258 N1253 0.984 . S
H1259 N1253 1.016 . S
H1260 N1257 0.984 . S
H1261 N1257 0.985 . S
H1262 N1256 0.984 . S
H1263 N1256 0.984 . S
H1264 N1252 1.016 . S
H1265 N1252 0.985 . S
C1266 C1267 1.363 . S
C1266 C1272 1.379 . S
C1266 N1274 1.356 . S
C1267 C1266 1.363 . S
C1267 C1273 1.363 . S
C1268 C1269 1.363 . S
C1268 C1273 1.379 . S
C1268 N1275 1.356 . S
C1269 C1268 1.363 . S
C1269 C1272 1.363 . S
N1270 C1272 1.356 . S
N1270 H1282 0.984 . S
N1270 H1283 0.985 . S
N1271 C1273 1.356 . S
N1271 H1276 0.984 . S
N1271 H1277 0.985 . S
C1272 C1266 1.379 . S
C1272 C1269 1.363 . S
C1272 N1270 1.356 . S
C1273 C1267 1.363 . S
C1273 C1268 1.379 . S
C1273 N1271 1.356 . S
N1274 C1266 1.356 . S
N1274 H1280 0.984 . S
N1274 H1281 0.984 . S
N1275 C1268 1.356 . S
N1275 H1278 0.984 . S
N1275 H1279 0.985 . S
H1276 N1271 0.984 . S
H1277 N1271 0.985 . S
H1278 N1275 0.984 . S
H1279 N1275 0.985 . S
H1280 N1274 0.984 . S
H1281 N1274 0.984 . S
H1282 N1270 0.984 . S
H1283 N1270 0.985 . S
C1284 C1285 1.363 . S
C1284 C1290 1.379 1_455 S
C1284 N1292 1.356 . S
C1285 C1284 1.363 . S
C1285 C1291 1.363 . S
C1286 C1287 1.363 . S
C1286 C1291 1.379 1_655 S
C1286 N1293 1.356 . S
C1287 C1286 1.363 . S
C1287 C1290 1.363 . S
N1288 C1290 1.356 . S
N1288 H1300 0.984 . S
N1288 H1301 0.985 . S
N1289 C1291 1.356 . S
N1289 H1294 0.984 . S
N1289 H1295 0.985 . S
C1290 C1284 1.379 1_655 S
C1290 C1287 1.363 . S
C1290 N1288 1.356 . S
C1291 C1285 1.363 . S
C1291 C1286 1.379 1_455 S
C1291 N1289 1.356 . S
N1292 C1284 1.356 . S
N1292 H1298 0.984 . S
N1292 H1299 0.984 . S
N1293 C1286 1.356 . S
N1293 H1296 0.984 . S
N1293 H1297 0.985 . S
H1294 N1289 0.984 . S
H1295 N1289 0.985 . S
H1296 N1293 0.984 . S
H1297 N1293 0.985 . S
H1298 N1292 0.984 . S
H1299 N1292 0.984 . S
H1300 N1288 0.984 . S
H1301 N1288 0.985 . S
C1302 C1303 1.363 . S
C1302 C1308 1.379 1_565 S
C1302 N1310 1.356 . S
C1303 C1302 1.363 . S
C1303 C1309 1.363 . S
C1304 C1305 1.363 . S
C1304 C1309 1.379 1_545 S
C1304 N1311 1.356 . S
C1305 C1304 1.363 . S
C1305 C1308 1.363 . S
N1306 C1308 1.356 . S
N1306 H1318 0.984 . S
N1306 H1319 0.985 . S
N1307 C1309 1.356 . S
N1307 H1312 0.984 . S
N1307 H1313 0.985 . S
C1308 C1302 1.379 1_545 S
C1308 C1305 1.363 . S
C1308 N1306 1.356 . S
C1309 C1303 1.363 . S
C1309 C1304 1.379 1_565 S
C1309 N1307 1.356 . S
N1310 C1302 1.356 . S
N1310 H1316 0.984 . S
N1310 H1317 0.984 . S
N1311 C1304 1.356 . S
N1311 H1314 0.984 . S
N1311 H1315 0.985 . S
H1312 N1307 0.984 . S
H1313 N1307 0.985 . S
H1314 N1311 0.984 . S
H1315 N1311 0.985 . S
H1316 N1310 0.984 . S
H1317 N1310 0.984 . S
H1318 N1306 0.984 . S
H1319 N1306 0.985 . S
C1320 C1321 1.363 . S
C1320 C1326 1.379 . S
C1320 N1328 1.356 . S
C1321 C1320 1.363 . S
C1321 C1327 1.363 . S
C1322 C1323 1.363 . S
C1322 C1327 1.379 . S
C1322 N1329 1.356 . S
C1323 C1322 1.363 . S
C1323 C1326 1.363 . S
N1324 C1326 1.356 . S
N1324 H1336 0.984 . S
N1324 H1337 0.985 . S
N1325 C1327 1.356 . S
N1325 H1330 0.984 . S
N1325 H1331 0.985 . S
C1326 C1320 1.379 . S
C1326 C1323 1.363 . S
C1326 N1324 1.356 . S
C1327 C1321 1.363 . S
C1327 C1322 1.379 . S
C1327 N1325 1.356 . S
N1328 C1320 1.356 . S
N1328 H1334 0.984 . S
N1328 H1335 0.984 . S
N1329 C1322 1.356 . S
N1329 H1332 0.984 . S
N1329 H1333 0.985 . S
H1330 N1325 0.984 . S
H1331 N1325 0.985 . S
H1332 N1329 0.984 . S
H1333 N1329 0.985 . S
H1334 N1328 0.984 . S
H1335 N1328 0.984 . S
H1336 N1324 0.984 . S
H1337 N1324 0.985 . S
C1338 C1339 1.363 . S
C1338 C1344 1.379 1_655 S
C1338 N1346 1.356 . S
C1339 C1338 1.363 . S
C1339 C1345 1.363 . S
C1340 C1341 1.363 . S
C1340 C1345 1.379 1_455 S
C1340 N1347 1.356 . S
C1341 C1340 1.363 . S
C1341 C1344 1.363 . S
N1342 C1344 1.356 . S
N1342 H1354 0.984 . S
N1342 H1355 0.985 . S
N1343 C1345 1.356 . S
N1343 H1348 0.984 . S
N1343 H1349 0.985 . S
C1344 C1338 1.379 1_455 S
C1344 C1341 1.363 . S
C1344 N1342 1.356 . S
C1345 C1339 1.363 . S
C1345 C1340 1.379 1_655 S
C1345 N1343 1.356 . S
N1346 C1338 1.356 . S
N1346 H1352 0.984 . S
N1346 H1353 0.984 . S
N1347 C1340 1.356 . S
N1347 H1350 0.984 . S
N1347 H1351 0.985 . S
H1348 N1343 0.984 . S
H1349 N1343 0.985 . S
H1350 N1347 0.984 . S
H1351 N1347 0.985 . S
H1352 N1346 0.984 . S
H1353 N1346 0.984 . S
H1354 N1342 0.984 . S
H1355 N1342 0.985 . S
C1356 C1357 1.363 . S
C1356 C1362 1.379 1_565 S
C1356 N1364 1.356 . S
C1357 C1356 1.363 . S
C1357 C1363 1.363 . S
C1358 C1359 1.363 . S
C1358 C1363 1.379 1_545 S
C1358 N1365 1.356 . S
C1359 C1358 1.363 . S
C1359 C1362 1.363 . S
N1360 C1362 1.356 . S
N1360 H1372 0.984 . S
N1360 H1373 0.985 . S
N1361 C1363 1.356 . S
N1361 H1366 0.984 . S
N1361 H1367 0.985 . S
C1362 C1356 1.379 1_545 S
C1362 C1359 1.363 . S
C1362 N1360 1.356 . S
C1363 C1357 1.363 . S
C1363 C1358 1.379 1_565 S
C1363 N1361 1.356 . S
N1364 C1356 1.356 . S
N1364 H1370 0.984 . S
N1364 H1371 0.984 . S
N1365 C1358 1.356 . S
N1365 H1368 0.984 . S
N1365 H1369 0.985 . S
H1366 N1361 0.984 . S
H1367 N1361 0.985 . S
H1368 N1365 0.984 . S
H1369 N1365 0.985 . S
H1370 N1364 0.984 . S
H1371 N1364 0.984 . S
H1372 N1360 0.984 . S
H1373 N1360 0.985 . S
C1374 C1375 1.363 . S
C1374 C1380 1.379 . S
C1374 N1382 1.356 . S
C1375 C1374 1.363 . S
C1375 C1381 1.363 . S
C1376 C1377 1.363 . S
C1376 C1381 1.379 . S
C1376 N1383 1.356 . S
C1377 C1376 1.363 . S
C1377 C1380 1.363 . S
N1378 C1380 1.356 . S
N1378 H1390 0.984 . S
N1378 H1391 0.985 . S
N1379 C1381 1.356 . S
N1379 H1384 0.984 . S
N1379 H1385 0.985 . S
C1380 C1374 1.379 . S
C1380 C1377 1.363 . S
C1380 N1378 1.356 . S
C1381 C1375 1.363 . S
C1381 C1376 1.379 . S
C1381 N1379 1.356 . S
N1382 C1374 1.356 . S
N1382 H1388 0.984 . S
N1382 H1389 0.984 . S
N1383 C1376 1.356 . S
N1383 H1386 0.984 . S
N1383 H1387 0.985 . S
H1384 N1379 0.984 . S
H1385 N1379 0.985 . S
H1386 N1383 0.984 . S
H1387 N1383 0.985 . S
H1388 N1382 0.984 . S
H1389 N1382 0.984 . S
H1390 N1378 0.984 . S
H1391 N1378 0.985 . S
C1392 C1393 1.363 . S
C1392 C1398 1.379 1_455 S
C1392 N1400 1.356 . S
C1393 C1392 1.363 . S
C1393 C1399 1.363 . S
C1394 C1395 1.363 . S
C1394 C1399 1.379 1_655 S
C1394 N1401 1.356 . S
C1395 C1394 1.363 . S
C1395 C1398 1.363 . S
N1396 C1398 1.356 . S
N1396 H1408 0.984 . S
N1396 H1409 0.985 . S
N1397 C1399 1.356 . S
N1397 H1402 0.984 . S
N1397 H1403 0.985 . S
C1398 C1392 1.379 1_655 S
C1398 C1395 1.363 . S
C1398 N1396 1.356 . S
C1399 C1393 1.363 . S
C1399 C1394 1.379 1_455 S
C1399 N1397 1.356 . S
N1400 C1392 1.356 . S
N1400 H1406 0.984 . S
N1400 H1407 0.984 . S
N1401 C1394 1.356 . S
N1401 H1404 0.984 . S
N1401 H1405 0.985 . S
H1402 N1397 0.984 . S
H1403 N1397 0.985 . S
H1404 N1401 0.984 . S
H1405 N1401 0.985 . S
H1406 N1400 0.984 . S
H1407 N1400 0.984 . S
H1408 N1396 0.984 . S
H1409 N1396 0.985 . S
C1410 C1411 1.363 . S
C1410 C1416 1.379 1_545 S
C1410 N1418 1.356 . S
C1411 C1410 1.363 . S
C1411 C1417 1.363 . S
C1412 C1413 1.363 . S
C1412 C1417 1.379 1_565 S
C1412 N1419 1.356 . S
C1413 C1412 1.363 . S
C1413 C1416 1.363 . S
N1414 C1416 1.356 . S
N1414 H1426 0.984 . S
N1414 H1427 0.985 . S
N1415 C1417 1.356 . S
N1415 H1420 0.984 . S
N1415 H1421 0.985 . S
C1416 C1410 1.379 1_565 S
C1416 C1413 1.363 . S
C1416 N1414 1.356 . S
C1417 C1411 1.363 . S
C1417 C1412 1.379 1_545 S
C1417 N1415 1.356 . S
N1418 C1410 1.356 . S
N1418 H1424 0.984 . S
N1418 H1425 0.984 . S
N1419 C1412 1.356 . S
N1419 H1422 0.984 . S
N1419 H1423 0.985 . S
H1420 N1415 0.984 . S
H1421 N1415 0.985 . S
H1422 N1419 0.984 . S
H1423 N1419 0.985 . S
H1424 N1418 0.984 . S
H1425 N1418 0.984 . S
H1426 N1414 0.984 . S
H1427 N1414 0.985 . S
C1428 C1429 1.363 . S
C1428 C1434 1.379 . S
C1428 N1436 1.356 . S
C1429 C1428 1.363 . S
C1429 C1435 1.363 . S
C1430 C1431 1.363 . S
C1430 C1435 1.379 . S
C1430 N1437 1.356 . S
C1431 C1430 1.363 . S
C1431 C1434 1.363 . S
N1432 C1434 1.356 . S
N1432 H1444 0.984 . S
N1432 H1445 0.985 . S
N1433 C1435 1.356 . S
N1433 H1438 0.984 . S
N1433 H1439 0.985 . S
C1434 C1428 1.379 . S
C1434 C1431 1.363 . S
C1434 N1432 1.356 . S
C1435 C1429 1.363 . S
C1435 C1430 1.379 . S
C1435 N1433 1.356 . S
N1436 C1428 1.356 . S
N1436 H1442 0.984 . S
N1436 H1443 0.984 . S
N1437 C1430 1.356 . S
N1437 H1440 0.984 . S
N1437 H1441 0.985 . S
H1438 N1433 0.984 . S
H1439 N1433 0.985 . S
H1440 N1437 0.984 . S
H1441 N1437 0.985 . S
H1442 N1436 0.984 . S
H1443 N1436 0.984 . S
H1444 N1432 0.984 . S
H1445 N1432 0.985 . S
C1446 C1447 1.363 . S
C1446 C1452 1.379 1_455 S
C1446 N1454 1.356 . S
C1447 C1446 1.363 . S
C1447 C1453 1.363 . S
C1448 C1449 1.363 . S
C1448 C1453 1.379 1_655 S
C1448 N1455 1.356 . S
C1449 C1448 1.363 . S
C1449 C1452 1.363 . S
N1450 C1452 1.356 . S
N1450 H1462 0.984 . S
N1450 H1463 0.985 . S
N1451 C1453 1.356 . S
N1451 H1456 0.984 . S
N1451 H1457 0.985 . S
C1452 C1446 1.379 1_655 S
C1452 C1449 1.363 . S
C1452 N1450 1.356 . S
C1453 C1447 1.363 . S
C1453 C1448 1.379 1_455 S
C1453 N1451 1.356 . S
N1454 C1446 1.356 . S
N1454 H1460 0.984 . S
N1454 H1461 0.984 . S
N1455 C1448 1.356 . S
N1455 H1458 0.984 . S
N1455 H1459 0.985 . S
H1456 N1451 0.984 . S
H1457 N1451 0.985 . S
H1458 N1455 0.984 . S
H1459 N1455 0.985 . S
H1460 N1454 0.984 . S
H1461 N1454 0.984 . S
H1462 N1450 0.984 . S
H1463 N1450 0.985 . S
C1464 C1465 1.363 . S
C1464 C1470 1.379 . S
C1464 N1472 1.356 . S
C1465 C1464 1.363 . S
C1465 C1471 1.363 . S
C1466 C1467 1.363 . S
C1466 C1471 1.379 . S
C1466 N1473 1.356 . S
C1467 C1466 1.363 . S
C1467 C1470 1.363 . S
N1468 C1470 1.356 . S
N1468 H1480 0.984 . S
N1468 H1481 0.985 . S
N1469 C1471 1.356 . S
N1469 H1474 0.984 . S
N1469 H1475 0.985 . S
C1470 C1464 1.379 . S
C1470 C1467 1.363 . S
C1470 N1468 1.356 . S
C1471 C1465 1.363 . S
C1471 C1466 1.379 . S
C1471 N1469 1.356 . S
N1472 C1464 1.356 . S
N1472 H1478 0.984 . S
N1472 H1479 0.984 . S
N1473 C1466 1.356 . S
N1473 H1476 0.984 . S
N1473 H1477 0.985 . S
H1474 N1469 0.984 . S
H1475 N1469 0.985 . S
H1476 N1473 0.984 . S
H1477 N1473 0.985 . S
H1478 N1472 0.984 . S
H1479 N1472 0.984 . S
H1480 N1468 0.984 . S
H1481 N1468 0.985 . S
C1482 C1483 1.363 . S
C1482 C1488 1.379 . S
C1482 N1490 1.356 . S
C1483 C1482 1.363 . S
C1483 C1489 1.363 . S
C1484 C1485 1.363 . S
C1484 C1489 1.379 . S
C1484 N1491 1.356 . S
C1485 C1484 1.363 . S
C1485 C1488 1.363 . S
N1486 C1488 1.356 . S
N1486 H1498 0.984 . S
N1486 H1499 0.985 . S
N1487 C1489 1.356 . S
N1487 H1492 0.984 . S
N1487 H1493 0.985 . S
C1488 C1482 1.379 . S
C1488 C1485 1.363 . S
C1488 N1486 1.356 . S
C1489 C1483 1.363 . S
C1489 C1484 1.379 . S
C1489 N1487 1.356 . S
N1490 C1482 1.356 . S
N1490 H1496 0.984 . S
N1490 H1497 0.984 . S
N1491 C1484 1.356 . S
N1491 H1494 0.984 . S
N1491 H1495 0.985 . S
H1492 N1487 0.984 . S
H1493 N1487 0.985 . S
H1494 N1491 0.984 . S
H1495 N1491 0.985 . S
H1496 N1490 0.984 . S
H1497 N1490 0.984 . S
H1498 N1486 0.984 . S
H1499 N1486 0.985 . S
C1500 C1501 1.363 . S
C1500 C1506 1.379 . S
C1500 N1508 1.356 . S
C1501 C1500 1.363 . S
C1501 C1507 1.363 . S
C1502 C1503 1.363 . S
C1502 C1507 1.379 . S
C1502 N1509 1.356 . S
C1503 C1502 1.363 . S
C1503 C1506 1.363 . S
N1504 C1506 1.356 . S
N1504 H1516 0.984 . S
N1504 H1517 0.985 . S
N1505 C1507 1.356 . S
N1505 H1510 0.984 . S
N1505 H1511 0.985 . S
C1506 C1500 1.379 . S
C1506 C1503 1.363 . S
C1506 N1504 1.356 . S
C1507 C1501 1.363 . S
C1507 C1502 1.379 . S
C1507 N1505 1.356 . S
N1508 C1500 1.356 . S
N1508 H1514 0.984 . S
N1508 H1515 0.984 . S
N1509 C1502 1.356 . S
N1509 H1512 0.984 . S
N1509 H1513 0.985 . S
H1510 N1505 0.984 . S
H1511 N1505 0.985 . S
H1512 N1509 0.984 . S
H1513 N1509 0.985 . S
H1514 N1508 0.984 . S
H1515 N1508 0.984 . S
H1516 N1504 0.984 . S
H1517 N1504 0.985 . S
C1518 C1519 1.363 . S
C1518 C1524 1.379 . S
C1518 N1526 1.356 . S
C1519 C1518 1.363 . S
C1519 C1525 1.363 . S
C1520 C1521 1.363 . S
C1520 C1525 1.379 . S
C1520 N1527 1.356 . S
C1521 C1520 1.363 . S
C1521 C1524 1.363 . S
N1522 C1524 1.356 . S
N1522 H1534 0.984 . S
N1522 H1535 0.985 . S
N1523 C1525 1.356 . S
N1523 H1528 0.984 . S
N1523 H1529 0.985 . S
C1524 C1518 1.379 . S
C1524 C1521 1.363 . S
C1524 N1522 1.356 . S
C1525 C1519 1.363 . S
C1525 C1520 1.379 . S
C1525 N1523 1.356 . S
N1526 C1518 1.356 . S
N1526 H1532 0.984 . S
N1526 H1533 0.984 . S
N1527 C1520 1.356 . S
N1527 H1530 0.984 . S
N1527 H1531 0.985 . S
H1528 N1523 0.984 . S
H1529 N1523 0.985 . S
H1530 N1527 0.984 . S
H1531 N1527 0.985 . S
H1532 N1526 0.984 . S
H1533 N1526 0.984 . S
H1534 N1522 0.984 . S
H1535 N1522 0.985 . S
C1536 C1537 1.363 . S
C1536 C1542 1.379 . S
C1536 N1544 1.356 . S
C1537 C1536 1.363 . S
C1537 C1543 1.363 . S
C1538 C1539 1.363 . S
C1538 C1543 1.379 . S
C1538 N1545 1.356 . S
C1539 C1538 1.363 . S
C1539 C1542 1.363 . S
N1540 C1542 1.356 . S
N1540 H1552 0.984 . S
N1540 H1553 0.985 . S
N1541 C1543 1.356 . S
N1541 H1546 0.984 . S
N1541 H1547 0.985 . S
C1542 C1536 1.379 . S
C1542 C1539 1.363 . S
C1542 N1540 1.356 . S
C1543 C1537 1.363 . S
C1543 C1538 1.379 . S
C1543 N1541 1.356 . S
N1544 C1536 1.356 . S
N1544 H1550 0.984 . S
N1544 H1551 0.984 . S
N1545 C1538 1.356 . S
N1545 H1548 0.984 . S
N1545 H1549 0.985 . S
H1546 N1541 0.984 . S
H1547 N1541 0.985 . S
H1548 N1545 0.984 . S
H1549 N1545 0.985 . S
H1550 N1544 0.984 . S
H1551 N1544 0.984 . S
H1552 N1540 0.984 . S
H1553 N1540 0.985 . S
C1554 C1555 1.363 . S
C1554 C1560 1.379 . S
C1554 N1562 1.356 . S
C1555 C1554 1.363 . S
C1555 C1561 1.363 . S
C1556 C1557 1.363 . S
C1556 C1561 1.379 . S
C1556 N1563 1.356 . S
C1557 C1556 1.363 . S
C1557 C1560 1.363 . S
N1558 C1560 1.356 . S
N1558 H1570 0.984 . S
N1558 H1571 0.985 . S
N1559 C1561 1.356 . S
N1559 H1564 0.984 . S
N1559 H1565 0.985 . S
C1560 C1554 1.379 . S
C1560 C1557 1.363 . S
C1560 N1558 1.356 . S
C1561 C1555 1.363 . S
C1561 C1556 1.379 . S
C1561 N1559 1.356 . S
N1562 C1554 1.356 . S
N1562 H1568 0.984 . S
N1562 H1569 0.984 . S
N1563 C1556 1.356 . S
N1563 H1566 0.984 . S
N1563 H1567 0.985 . S
H1564 N1559 0.984 . S
H1565 N1559 0.985 . S
H1566 N1563 0.984 . S
H1567 N1563 0.985 . S
H1568 N1562 0.984 . S
H1569 N1562 0.984 . S
H1570 N1558 0.984 . S
H1571 N1558 0.985 . S
C1572 C1573 1.363 . S
C1572 C1578 1.379 . S
C1572 N1580 1.356 . S
C1573 C1572 1.363 . S
C1573 C1579 1.363 . S
C1574 C1575 1.363 . S
C1574 C1579 1.379 . S
C1574 N1581 1.356 . S
C1575 C1574 1.363 . S
C1575 C1578 1.363 . S
N1576 C1578 1.356 . S
N1576 H1588 0.984 . S
N1576 H1589 0.985 . S
N1577 C1579 1.356 . S
N1577 H1582 0.984 . S
N1577 H1583 0.985 . S
C1578 C1572 1.379 . S
C1578 C1575 1.363 . S
C1578 N1576 1.356 . S
C1579 C1573 1.363 . S
C1579 C1574 1.379 . S
C1579 N1577 1.356 . S
N1580 C1572 1.356 . S
N1580 H1586 0.984 . S
N1580 H1587 0.984 . S
N1581 C1574 1.356 . S
N1581 H1584 0.984 . S
N1581 H1585 0.985 . S
H1582 N1577 0.984 . S
H1583 N1577 0.985 . S
H1584 N1581 0.984 . S
H1585 N1581 0.985 . S
H1586 N1580 0.984 . S
H1587 N1580 0.984 . S
H1588 N1576 0.984 . S
H1589 N1576 0.985 . S
C1590 C1591 1.363 . S
C1590 C1596 1.379 . S
C1590 N1598 1.356 . S
C1591 C1590 1.363 . S
C1591 C1597 1.363 . S
C1592 C1593 1.363 . S
C1592 C1597 1.379 . S
C1592 N1599 1.356 . S
C1593 C1592 1.363 . S
C1593 C1596 1.363 . S
N1594 C1596 1.356 . S
N1594 H1606 0.984 . S
N1594 H1607 0.985 . S
N1595 C1597 1.356 . S
N1595 H1600 0.984 . S
N1595 H1601 0.985 . S
C1596 C1590 1.379 . S
C1596 C1593 1.363 . S
C1596 N1594 1.356 . S
C1597 C1591 1.363 . S
C1597 C1592 1.379 . S
C1597 N1595 1.356 . S
N1598 C1590 1.356 . S
N1598 H1604 0.984 . S
N1598 H1605 0.984 . S
N1599 C1592 1.356 . S
N1599 H1602 0.984 . S
N1599 H1603 0.985 . S
H1600 N1595 0.984 . S
H1601 N1595 0.985 . S
H1602 N1599 0.984 . S
H1603 N1599 0.985 . S
H1604 N1598 0.984 . S
H1605 N1598 0.984 . S
H1606 N1594 0.984 . S
H1607 N1594 0.985 . S
C1608 C1609 1.363 . S
C1608 C1614 1.379 . S
C1608 N1616 1.356 . S
C1609 C1608 1.363 . S
C1609 C1615 1.363 . S
C1610 C1611 1.363 . S
C1610 C1615 1.379 . S
C1610 N1617 1.356 . S
C1611 C1610 1.363 . S
C1611 C1614 1.363 . S
N1612 C1614 1.356 . S
N1612 H1624 0.984 . S
N1612 H1625 0.985 . S
N1613 C1615 1.356 . S
N1613 H1618 0.984 . S
N1613 H1619 0.985 . S
C1614 C1608 1.379 . S
C1614 C1611 1.363 . S
C1614 N1612 1.356 . S
C1615 C1609 1.363 . S
C1615 C1610 1.379 . S
C1615 N1613 1.356 . S
N1616 C1608 1.356 . S
N1616 H1622 0.984 . S
N1616 H1623 0.984 . S
N1617 C1610 1.356 . S
N1617 H1620 0.984 . S
N1617 H1621 0.985 . S
H1618 N1613 0.984 . S
H1619 N1613 0.985 . S
H1620 N1617 0.984 . S
H1621 N1617 0.985 . S
H1622 N1616 0.984 . S
H1623 N1616 0.984 . S
H1624 N1612 0.984 . S
H1625 N1612 0.985 . S
C1626 C1627 1.363 . S
C1626 C1632 1.379 . S
C1626 N1634 1.356 . S
C1627 C1626 1.363 . S
C1627 C1633 1.363 . S
C1628 C1629 1.363 . S
C1628 C1633 1.379 . S
C1628 N1635 1.356 . S
C1629 C1628 1.363 . S
C1629 C1632 1.363 . S
N1630 C1632 1.356 . S
N1630 H1642 0.984 . S
N1630 H1643 0.985 . S
N1631 C1633 1.356 . S
N1631 H1636 0.984 . S
N1631 H1637 0.985 . S
C1632 C1626 1.379 . S
C1632 C1629 1.363 . S
C1632 N1630 1.356 . S
C1633 C1627 1.363 . S
C1633 C1628 1.379 . S
C1633 N1631 1.356 . S
N1634 C1626 1.356 . S
N1634 H1640 0.984 . S
N1634 H1641 0.984 . S
N1635 C1628 1.356 . S
N1635 H1638 0.984 . S
N1635 H1639 0.985 . S
H1636 N1631 0.984 . S
H1637 N1631 0.985 . S
H1638 N1635 0.984 . S
H1639 N1635 0.985 . S
H1640 N1634 0.984 . S
H1641 N1634 0.984 . S
H1642 N1630 0.984 . S
H1643 N1630 0.985 . S
C1644 C1645 1.363 . S
C1644 C1650 1.379 . S
C1644 N1652 1.356 . S
C1645 C1644 1.363 . S
C1645 C1651 1.363 . S
C1646 C1647 1.363 . S
C1646 C1651 1.379 . S
C1646 N1653 1.356 . S
C1647 C1646 1.363 . S
C1647 C1650 1.363 . S
N1648 C1650 1.356 . S
N1648 H1660 0.984 . S
N1648 H1661 0.985 . S
N1649 C1651 1.356 . S
N1649 H1654 0.984 . S
N1649 H1655 0.985 . S
C1650 C1644 1.379 . S
C1650 C1647 1.363 . S
C1650 N1648 1.356 . S
C1651 C1645 1.363 . S
C1651 C1646 1.379 . S
C1651 N1649 1.356 . S
N1652 C1644 1.356 . S
N1652 H1658 0.984 . S
N1652 H1659 0.984 . S
N1653 C1646 1.356 . S
N1653 H1656 0.984 . S
N1653 H1657 0.985 . S
H1654 N1649 0.984 . S
H1655 N1649 0.985 . S
H1656 N1653 0.984 . S
H1657 N1653 0.985 . S
H1658 N1652 0.984 . S
H1659 N1652 0.984 . S
H1660 N1648 0.984 . S
H1661 N1648 0.985 . S
C1662 C1663 1.363 . S
C1662 C1668 1.379 . S
C1662 N1670 1.356 . S
C1663 C1662 1.363 . S
C1663 C1669 1.363 . S
C1664 C1665 1.363 . S
C1664 C1669 1.379 . S
C1664 N1671 1.356 . S
C1665 C1664 1.363 . S
C1665 C1668 1.363 . S
N1666 C1668 1.356 . S
N1666 H1678 0.984 . S
N1666 H1679 0.985 . S
N1667 C1669 1.356 . S
N1667 H1672 0.984 . S
N1667 H1673 0.985 . S
C1668 C1662 1.379 . S
C1668 C1665 1.363 . S
C1668 N1666 1.356 . S
C1669 C1663 1.363 . S
C1669 C1664 1.379 . S
C1669 N1667 1.356 . S
N1670 C1662 1.356 . S
N1670 H1676 0.984 . S
N1670 H1677 0.984 . S
N1671 C1664 1.356 . S
N1671 H1674 0.984 . S
N1671 H1675 0.985 . S
H1672 N1667 0.984 . S
H1673 N1667 0.985 . S
H1674 N1671 0.984 . S
H1675 N1671 0.985 . S
H1676 N1670 0.984 . S
H1677 N1670 0.984 . S
H1678 N1666 0.984 . S
H1679 N1666 0.985 . S
C1680 C1681 1.363 . S
C1680 C1686 1.379 1_554 S
C1680 N1688 1.356 . S
C1681 C1680 1.363 . S
C1681 C1687 1.363 . S
C1682 C1683 1.363 . S
C1682 C1687 1.379 1_556 S
C1682 N1689 1.356 . S
C1683 C1682 1.363 . S
C1683 C1686 1.363 . S
N1684 C1686 1.356 . S
N1684 H1696 0.984 . S
N1684 H1697 0.985 . S
N1685 C1687 1.356 . S
N1685 H1690 0.984 . S
N1685 H1691 0.985 . S
C1686 C1680 1.379 1_556 S
C1686 C1683 1.363 . S
C1686 N1684 1.356 . S
C1687 C1681 1.363 . S
C1687 C1682 1.379 1_554 S
C1687 N1685 1.356 . S
N1688 C1680 1.356 . S
N1688 H1694 0.984 . S
N1688 H1695 0.984 . S
N1689 C1682 1.356 . S
N1689 H1692 0.984 . S
N1689 H1693 0.985 . S
H1690 N1685 0.984 . S
H1691 N1685 0.985 . S
H1692 N1689 0.984 . S
H1693 N1689 0.985 . S
H1694 N1688 0.984 . S
H1695 N1688 0.984 . S
H1696 N1684 0.984 . S
H1697 N1684 0.985 . S
C1698 C1699 1.363 . S
C1698 C1704 1.379 1_554 S
C1698 N1706 1.356 . S
C1699 C1698 1.363 . S
C1699 C1705 1.363 . S
C1700 C1701 1.363 . S
C1700 C1705 1.379 1_556 S
C1700 N1707 1.356 . S
C1701 C1700 1.363 . S
C1701 C1704 1.363 . S
N1702 C1704 1.356 . S
N1702 H1714 0.984 . S
N1702 H1715 0.985 . S
N1703 C1705 1.356 . S
N1703 H1708 0.984 . S
N1703 H1709 0.985 . S
C1704 C1698 1.379 1_556 S
C1704 C1701 1.363 . S
C1704 N1702 1.356 . S
C1705 C1699 1.363 . S
C1705 C1700 1.379 1_554 S
C1705 N1703 1.356 . S
N1706 C1698 1.356 . S
N1706 H1712 0.984 . S
N1706 H1713 0.984 . S
N1707 C1700 1.356 . S
N1707 H1710 0.984 . S
N1707 H1711 0.985 . S
H1708 N1703 0.984 . S
H1709 N1703 0.985 . S
H1710 N1707 0.984 . S
H1711 N1707 0.985 . S
H1712 N1706 0.984 . S
H1713 N1706 0.984 . S
H1714 N1702 0.984 . S
H1715 N1702 0.985 . S
C1716 C1717 1.363 . S
C1716 C1722 1.379 1_554 S
C1716 N1724 1.356 . S
C1717 C1716 1.363 . S
C1717 C1723 1.363 . S
C1718 C1719 1.363 . S
C1718 C1723 1.379 1_556 S
C1718 N1725 1.356 . S
C1719 C1718 1.363 . S
C1719 C1722 1.363 . S
N1720 C1722 1.356 . S
N1720 H1732 0.984 . S
N1720 H1733 0.985 . S
N1721 C1723 1.356 . S
N1721 H1726 0.984 . S
N1721 H1727 0.985 . S
C1722 C1716 1.379 1_556 S
C1722 C1719 1.363 . S
C1722 N1720 1.356 . S
C1723 C1717 1.363 . S
C1723 C1718 1.379 1_554 S
C1723 N1721 1.356 . S
N1724 C1716 1.356 . S
N1724 H1730 0.984 . S
N1724 H1731 0.984 . S
N1725 C1718 1.356 . S
N1725 H1728 0.984 . S
N1725 H1729 0.985 . S
H1726 N1721 0.984 . S
H1727 N1721 0.985 . S
H1728 N1725 0.984 . S
H1729 N1725 0.985 . S
H1730 N1724 0.984 . S
H1731 N1724 0.984 . S
H1732 N1720 0.984 . S
H1733 N1720 0.985 . S
C1734 C1735 1.363 . S
C1734 C1740 1.379 1_554 S
C1734 N1742 1.356 . S
C1735 C1734 1.363 . S
C1735 C1741 1.363 . S
C1736 C1737 1.363 . S
C1736 C1741 1.379 1_556 S
C1736 N1743 1.356 . S
C1737 C1736 1.363 . S
C1737 C1740 1.363 . S
N1738 C1740 1.356 . S
N1738 H1750 0.984 . S
N1738 H1751 0.985 . S
N1739 C1741 1.356 . S
N1739 H1744 0.984 . S
N1739 H1745 0.985 . S
C1740 C1734 1.379 1_556 S
C1740 C1737 1.363 . S
C1740 N1738 1.356 . S
C1741 C1735 1.363 . S
C1741 C1736 1.379 1_554 S
C1741 N1739 1.356 . S
N1742 C1734 1.356 . S
N1742 H1748 0.984 . S
N1742 H1749 0.984 . S
N1743 C1736 1.356 . S
N1743 H1746 0.984 . S
N1743 H1747 0.985 . S
H1744 N1739 0.984 . S
H1745 N1739 0.985 . S
H1746 N1743 0.984 . S
H1747 N1743 0.985 . S
H1748 N1742 0.984 . S
H1749 N1742 0.984 . S
H1750 N1738 0.984 . S
H1751 N1738 0.985 . S
C1752 C1753 1.363 . S
C1752 C1758 1.379 1_554 S
C1752 N1760 1.356 . S
C1753 C1752 1.363 . S
C1753 C1759 1.363 . S
C1754 C1755 1.363 . S
C1754 C1759 1.379 1_556 S
C1754 N1761 1.356 . S
C1755 C1754 1.363 . S
C1755 C1758 1.363 . S
N1756 C1758 1.356 . S
N1756 H1768 0.984 . S
N1756 H1769 0.985 . S
N1757 C1759 1.356 . S
N1757 H1762 0.984 . S
N1757 H1763 0.985 . S
C1758 C1752 1.379 1_556 S
C1758 C1755 1.363 . S
C1758 N1756 1.356 . S
C1759 C1753 1.363 . S
C1759 C1754 1.379 1_554 S
C1759 N1757 1.356 . S
N1760 C1752 1.356 . S
N1760 H1766 0.984 . S
N1760 H1767 0.984 . S
N1761 C1754 1.356 . S
N1761 H1764 0.984 . S
N1761 H1765 0.985 . S
H1762 N1757 0.984 . S
H1763 N1757 0.985 . S
H1764 N1761 0.984 . S
H1765 N1761 0.985 . S
H1766 N1760 0.984 . S
H1767 N1760 0.984 . S
H1768 N1756 0.984 . S
H1769 N1756 0.985 . S
C1770 C1771 1.363 . S
C1770 C1776 1.379 1_556 S
C1770 N1778 1.356 . S
C1771 C1770 1.363 . S
C1771 C1777 1.363 . S
C1772 C1773 1.363 . S
C1772 C1777 1.379 1_554 S
C1772 N1779 1.356 . S
C1773 C1772 1.363 . S
C1773 C1776 1.363 . S
N1774 C1776 1.356 . S
N1774 H1786 0.984 . S
N1774 H1787 0.985 . S
N1775 C1777 1.356 . S
N1775 H1780 0.984 . S
N1775 H1781 0.985 . S
C1776 C1770 1.379 1_554 S
C1776 C1773 1.363 . S
C1776 N1774 1.356 . S
C1777 C1771 1.363 . S
C1777 C1772 1.379 1_556 S
C1777 N1775 1.356 . S
N1778 C1770 1.356 . S
N1778 H1784 0.984 . S
N1778 H1785 0.984 . S
N1779 C1772 1.356 . S
N1779 H1782 0.984 . S
N1779 H1783 0.985 . S
H1780 N1775 0.984 . S
H1781 N1775 0.985 . S
H1782 N1779 0.984 . S
H1783 N1779 0.985 . S
H1784 N1778 0.984 . S
H1785 N1778 0.984 . S
H1786 N1774 0.984 . S
H1787 N1774 0.985 . S
C1788 C1789 1.363 . S
C1788 C1794 1.379 . S
C1788 N1796 1.356 . S
C1789 C1788 1.363 . S
C1789 C1795 1.363 . S
C1790 C1791 1.363 . S
C1790 C1795 1.379 . S
C1790 N1797 1.356 . S
C1791 C1790 1.363 . S
C1791 C1794 1.363 . S
N1792 C1794 1.356 . S
N1792 H1804 0.984 . S
N1792 H1805 0.985 . S
N1793 C1795 1.356 . S
N1793 H1798 0.984 . S
N1793 H1799 0.985 . S
C1794 C1788 1.379 . S
C1794 C1791 1.363 . S
C1794 N1792 1.356 . S
C1795 C1789 1.363 . S
C1795 C1790 1.379 . S
C1795 N1793 1.356 . S
N1796 C1788 1.356 . S
N1796 H1802 0.984 . S
N1796 H1803 0.984 . S
N1797 C1790 1.356 . S
N1797 H1800 0.984 . S
N1797 H1801 0.985 . S
H1798 N1793 0.984 . S
H1799 N1793 0.985 . S
H1800 N1797 0.984 . S
H1801 N1797 0.985 . S
H1802 N1796 0.984 . S
H1803 N1796 0.984 . S
H1804 N1792 0.984 . S
H1805 N1792 0.985 . S
C1806 C1807 1.363 . S
C1806 C1812 1.379 . S
C1806 N1814 1.356 . S
C1807 C1806 1.363 . S
C1807 C1813 1.363 . S
C1808 C1809 1.363 . S
C1808 C1813 1.379 . S
C1808 N1815 1.356 . S
C1809 C1808 1.363 . S
C1809 C1812 1.363 . S
N1810 C1812 1.356 . S
N1810 H1822 0.984 . S
N1810 H1823 0.985 . S
N1811 C1813 1.356 . S
N1811 H1816 0.984 . S
N1811 H1817 0.985 . S
C1812 C1806 1.379 . S
C1812 C1809 1.363 . S
C1812 N1810 1.356 . S
C1813 C1807 1.363 . S
C1813 C1808 1.379 . S
C1813 N1811 1.356 . S
N1814 C1806 1.356 . S
N1814 H1820 0.984 . S
N1814 H1821 0.984 . S
N1815 C1808 1.356 . S
N1815 H1818 0.984 . S
N1815 H1819 0.985 . S
H1816 N1811 0.984 . S
H1817 N1811 0.985 . S
H1818 N1815 0.984 . S
H1819 N1815 0.985 . S
H1820 N1814 0.984 . S
H1821 N1814 0.984 . S
H1822 N1810 0.984 . S
H1823 N1810 0.985 . S
C1824 C1825 1.363 . S
C1824 C1830 1.379 . S
C1824 N1832 1.356 . S
C1825 C1824 1.363 . S
C1825 C1831 1.363 . S
C1826 C1827 1.363 . S
C1826 C1831 1.379 . S
C1826 N1833 1.356 . S
C1827 C1826 1.363 . S
C1827 C1830 1.363 . S
N1828 C1830 1.356 . S
N1828 H1840 0.984 . S
N1828 H1841 0.985 . S
N1829 C1831 1.356 . S
N1829 H1834 0.984 . S
N1829 H1835 0.985 . S
C1830 C1824 1.379 . S
C1830 C1827 1.363 . S
C1830 N1828 1.356 . S
C1831 C1825 1.363 . S
C1831 C1826 1.379 . S
C1831 N1829 1.356 . S
N1832 C1824 1.356 . S
N1832 H1838 0.984 . S
N1832 H1839 0.984 . S
N1833 C1826 1.356 . S
N1833 H1836 0.984 . S
N1833 H1837 0.985 . S
H1834 N1829 0.984 . S
H1835 N1829 0.985 . S
H1836 N1833 0.984 . S
H1837 N1833 0.985 . S
H1838 N1832 0.984 . S
H1839 N1832 0.984 . S
H1840 N1828 0.984 . S
H1841 N1828 0.985 . S
C1842 C1843 1.363 . S
C1842 C1848 1.379 . S
C1842 N1850 1.356 . S
C1843 C1842 1.363 . S
C1843 C1849 1.363 . S
C1844 C1845 1.363 . S
C1844 C1849 1.379 . S
C1844 N1851 1.356 . S
C1845 C1844 1.363 . S
C1845 C1848 1.363 . S
N1846 C1848 1.356 . S
N1846 H1858 0.984 . S
N1846 H1859 0.985 . S
N1847 C1849 1.356 . S
N1847 H1852 0.984 . S
N1847 H1853 0.985 . S
C1848 C1842 1.379 . S
C1848 C1845 1.363 . S
C1848 N1846 1.356 . S
C1849 C1843 1.363 . S
C1849 C1844 1.379 . S
C1849 N1847 1.356 . S
N1850 C1842 1.356 . S
N1850 H1856 0.984 . S
N1850 H1857 0.984 . S
N1851 C1844 1.356 . S
N1851 H1854 0.984 . S
N1851 H1855 0.985 . S
H1852 N1847 0.984 . S
H1853 N1847 0.985 . S
H1854 N1851 0.984 . S
H1855 N1851 0.985 . S
H1856 N1850 0.984 . S
H1857 N1850 0.984 . S
H1858 N1846 0.984 . S
H1859 N1846 0.985 . S
C1860 C1861 1.363 . S
C1860 C1866 1.379 . S
C1860 N1868 1.356 . S
C1861 C1860 1.363 . S
C1861 C1867 1.363 . S
C1862 C1863 1.363 . S
C1862 C1867 1.379 . S
C1862 N1869 1.356 . S
C1863 C1862 1.363 . S
C1863 C1866 1.363 . S
N1864 C1866 1.356 . S
N1864 H1876 0.984 . S
N1864 H1877 0.985 . S
N1865 C1867 1.356 . S
N1865 H1870 0.984 . S
N1865 H1871 0.985 . S
C1866 C1860 1.379 . S
C1866 C1863 1.363 . S
C1866 N1864 1.356 . S
C1867 C1861 1.363 . S
C1867 C1862 1.379 . S
C1867 N1865 1.356 . S
N1868 C1860 1.356 . S
N1868 H1874 0.984 . S
N1868 H1875 0.984 . S
N1869 C1862 1.356 . S
N1869 H1872 0.984 . S
N1869 H1873 0.985 . S
H1870 N1865 0.984 . S
H1871 N1865 0.985 . S
H1872 N1869 0.984 . S
H1873 N1869 0.985 . S
H1874 N1868 0.984 . S
H1875 N1868 0.984 . S
H1876 N1864 0.984 . S
H1877 N1864 0.985 . S
C1878 C1879 1.363 . S
C1878 C1884 1.379 . S
C1878 N1886 1.356 . S
C1879 C1878 1.363 . S
C1879 C1885 1.363 . S
C1880 C1881 1.363 . S
C1880 C1885 1.379 . S
C1880 N1887 1.356 . S
C1881 C1880 1.363 . S
C1881 C1884 1.363 . S
N1882 C1884 1.356 . S
N1882 H1894 0.984 . S
N1882 H1895 0.985 . S
N1883 C1885 1.356 . S
N1883 H1888 0.984 . S
N1883 H1889 0.985 . S
C1884 C1878 1.379 . S
C1884 C1881 1.363 . S
C1884 N1882 1.356 . S
C1885 C1879 1.363 . S
C1885 C1880 1.379 . S
C1885 N1883 1.356 . S
N1886 C1878 1.356 . S
N1886 H1892 0.984 . S
N1886 H1893 0.984 . S
N1887 C1880 1.356 . S
N1887 H1890 0.984 . S
N1887 H1891 0.985 . S
H1888 N1883 0.984 . S
H1889 N1883 0.985 . S
H1890 N1887 0.984 . S
H1891 N1887 0.985 . S
H1892 N1886 0.984 . S
H1893 N1886 0.984 . S
H1894 N1882 0.984 . S
H1895 N1882 0.985 . S
C817 C5 0.784 . S
C819 C107 0.784 . S
C835 C141 0.784 . S
C837 C39 0.784 . S
C853 C175 0.784 . S
C855 C73 0.784 . S
C871 C311 0.784 . S
C873 C209 0.784 . S
C889 C243 0.784 . S
C891 C345 0.784 . S
C907 C277 0.784 . S
C909 C379 0.784 . S
C925 C515 0.784 . S
C927 C413 0.784 . S
C943 C549 0.784 . S
C945 C447 0.784 . S
C961 C583 0.784 . S
C963 C481 0.784 . S
C979 C719 0.784 . S
C981 C617 0.784 . S
C997 C651 0.784 . S
C999 C753 0.784 . S
C1015 C787 0.784 . S
C1017 C685 0.784 . S
C1033 C281 1.679 . S
C1035 C9 1.679 . S
C1051 C43 1.679 . S
C1053 C315 1.679 . S
C1069 C77 1.679 . S
C1071 C349 1.679 . S
C1087 C111 1.679 . S
C1089 C383 1.679 . S
C1105 C145 1.679 . S
C1107 C213 1.679 . S
C1123 C247 1.679 . S
C1125 C179 1.679 . S
C1141 C417 1.679 . S
C1143 C689 1.679 . S
C1159 C723 1.679 . S
C1161 C451 1.679 . S
C1177 C757 1.679 . S
C1179 C485 1.679 . S
C1195 C519 1.679 . S
C1197 C791 1.679 . S
C1213 C621 1.679 . S
C1215 C553 1.679 . S
C1231 C655 1.679 . S
C1233 C587 1.679 . S
C1249 C33 1.409 . S
C1251 C271 1.409 . S
C1267 C67 1.409 . S
C1269 C305 1.409 . S
C1285 C339 1.409 . S
C1287 C101 1.409 . S
C1303 C135 1.409 . S
C1305 C373 1.409 . S
C1321 C407 1.409 . S
C1323 C169 1.409 . S
C1339 C237 1.409 . S
C1341 C203 1.409 . S
C1357 C441 1.409 . S
C1359 C679 1.409 . S
C1375 C475 1.409 . S
C1377 C713 1.409 . S
C1393 C509 1.409 . S
C1395 C747 1.409 . S
C1411 C543 1.409 . S
C1413 C781 1.409 . S
C1429 C577 1.409 . S
C1431 C815 1.409 . S
C1447 C645 1.409 . S
C1449 C611 1.409 . S
C1465 C2 1.594 . S
C1467 C342 1.594 . S
C1483 C376 1.594 . S
C1485 C36 1.594 . S
C1501 C206 1.594 . S
C1503 C70 1.594 . S
C1519 C240 1.594 . S
C1521 C104 1.594 . S
C1537 C138 1.594 . S
C1539 C274 1.594 . S
C1555 C172 1.594 . S
C1557 C308 1.594 . S
C1573 C410 1.594 . S
C1575 C750 1.594 . S
C1591 C784 1.594 . S
C1593 C444 1.594 . S
C1609 C614 1.594 . S
C1611 C478 1.594 . S
C1627 C512 1.594 . S
C1629 C648 1.594 . S
C1645 C546 1.594 . S
C1647 C682 1.594 . S
C1663 C716 1.594 . S
C1665 C580 1.594 . S
C1681 C20 1.494 . S
C1683 C530 1.494 . S
C1699 C54 1.494 . S
C1701 C564 1.494 . S
C1717 C88 1.494 . S
C1719 C598 1.494 . S
C1735 C122 1.494 . S
C1737 C428 1.494 . S
C1753 C156 1.494 . S
C1755 C462 1.494 . S
C1771 C496 1.494 . S
C1773 C190 1.494 . S
C1789 C224 1.494 . S
C1791 C734 1.494 . S
C1807 C258 1.494 . S
C1809 C768 1.494 . S
C1825 C292 1.494 . S
C1827 C802 1.494 . S
C1843 C326 1.494 . S
C1845 C632 1.494 . S
C1861 C360 1.494 . S
C1863 C666 1.494 . S
C1879 C700 1.494 . S
C1881 C394 1.494 . S
