# Generated by pormake.
# Topology wjh, (4)-cn, num edge types: 1
# Building blocks:
#     Node 0, Type 0, BuildingBlock: KUFVIS_clean_sbu_0, # of connection points: 4
#     Node 1, Type 0, BuildingBlock: KUFVIS_clean_sbu_0, # of connection points: 4
#     Node 2, Type 0, BuildingBlock: KUFVIS_clean_sbu_0, # of connection points: 4
#     Node 3, Type 0, BuildingBlock: KUFVIS_clean_sbu_0, # of connection points: 4
#     Node 4, Type 0, BuildingBlock: KUFVIS_clean_sbu_0, # of connection points: 4
#     Node 5, Type 0, BuildingBlock: KUFVIS_clean_sbu_0, # of connection points: 4
#     Node 6, Type 0, BuildingBlock: KUFVIS_clean_sbu_0, # of connection points: 4
#     Node 7, Type 0, BuildingBlock: KUFVIS_clean_sbu_0, # of connection points: 4
#     Node 8, Type 0, BuildingBlock: KUFVIS_clean_sbu_0, # of connection points: 4
#     Node 9, Type 0, BuildingBlock: KUFVIS_clean_sbu_0, # of connection points: 4
#     Node 10, Type 0, BuildingBlock: KUFVIS_clean_sbu_0, # of connection points: 4
#     Node 11, Type 0, BuildingBlock: KUFVIS_clean_sbu_0, # of connection points: 4
#     Edge 12, Type (0, 0), BuildingBlock: AJUNOK_clean_linker_0, # of connection points: 2
#     Edge 13, Type (0, 0), BuildingBlock: AJUNOK_clean_linker_0, # of connection points: 2
#     Edge 14, Type (0, 0), BuildingBlock: AJUNOK_clean_linker_0, # of connection points: 2
#     Edge 15, Type (0, 0), BuildingBlock: AJUNOK_clean_linker_0, # of connection points: 2
#     Edge 16, Type (0, 0), BuildingBlock: AJUNOK_clean_linker_0, # of connection points: 2
#     Edge 17, Type (0, 0), BuildingBlock: AJUNOK_clean_linker_0, # of connection points: 2
#     Edge 18, Type (0, 0), BuildingBlock: AJUNOK_clean_linker_0, # of connection points: 2
#     Edge 19, Type (0, 0), BuildingBlock: AJUNOK_clean_linker_0, # of connection points: 2
#     Edge 20, Type (0, 0), BuildingBlock: AJUNOK_clean_linker_0, # of connection points: 2
#     Edge 21, Type (0, 0), BuildingBlock: AJUNOK_clean_linker_0, # of connection points: 2
#     Edge 22, Type (0, 0), BuildingBlock: AJUNOK_clean_linker_0, # of connection points: 2
#     Edge 23, Type (0, 0), BuildingBlock: AJUNOK_clean_linker_0, # of connection points: 2
#     Edge 24, Type (0, 0), BuildingBlock: AJUNOK_clean_linker_0, # of connection points: 2
#     Edge 25, Type (0, 0), BuildingBlock: AJUNOK_clean_linker_0, # of connection points: 2
#     Edge 26, Type (0, 0), BuildingBlock: AJUNOK_clean_linker_0, # of connection points: 2
#     Edge 27, Type (0, 0), BuildingBlock: AJUNOK_clean_linker_0, # of connection points: 2
#     Edge 28, Type (0, 0), BuildingBlock: AJUNOK_clean_linker_0, # of connection points: 2
#     Edge 29, Type (0, 0), BuildingBlock: AJUNOK_clean_linker_0, # of connection points: 2
#     Edge 30, Type (0, 0), BuildingBlock: AJUNOK_clean_linker_0, # of connection points: 2
#     Edge 31, Type (0, 0), BuildingBlock: AJUNOK_clean_linker_0, # of connection points: 2
#     Edge 32, Type (0, 0), BuildingBlock: AJUNOK_clean_linker_0, # of connection points: 2
#     Edge 33, Type (0, 0), BuildingBlock: AJUNOK_clean_linker_0, # of connection points: 2
#     Edge 34, Type (0, 0), BuildingBlock: AJUNOK_clean_linker_0, # of connection points: 2
#     Edge 35, Type (0, 0), BuildingBlock: AJUNOK_clean_linker_0, # of connection points: 2
# Relax obj value: 0.089
# Max RMSD: 0.110
# Mean RMSD: 0.110
data_MOF--net-wjh--node1-KUFVIS_clean_sbu_0--edge1-AJUNOK_clean_linker_0
_symmetry_space_group_name_H-M    P1
_symmetry_Int_Tables_number       1
_symmetry_cell_setting            triclinic
loop_
_symmetry_equiv_pos_as_xyz
'x, y, z'
_cell_length_a     44.810625
_cell_length_b     44.973871
_cell_length_c     19.447714
_cell_angle_alpha  89.92677
_cell_angle_beta   90.156181
_cell_angle_gamma 119.79115
loop_
_atom_site_label
_atom_site_type_symbol
_atom_site_fract_x
_atom_site_fract_y
_atom_site_fract_z
_atom_type_partial_charge
Mn0 Mn 0.55285 0.17117 0.054 0.0
Mn1 Mn 0.60581 0.13786 0.05428 0.0
C2 C 0.56681 0.15516 0.15564 0.0
C3 C 0.55012 0.22216 0.06318 0.0
C4 C 0.52902 0.0954 0.02471 0.0
O5 O 0.57215 0.18085 0.95561 0.0
O6 O 0.60875 0.16063 0.96586 0.0
C7 C 0.66921 0.20573 0.05468 0.0
N8 N 0.64972 0.17417 0.0833 0.0
C9 C 0.69 0.18812 0.17643 0.0
C10 C 0.71077 0.22054 0.14733 0.0
C11 C 0.70023 0.22943 0.08633 0.0
C12 C 0.65916 0.16573 0.14298 0.0
H13 H 0.66094 0.21293 0.00853 0.0
C14 C 0.5956 0.17546 0.93152 0.0
O15 O 0.52415 0.1942 0.03919 0.0
O16 O 0.57762 0.22079 0.0761 0.0
N17 N 0.60701 0.11467 0.13583 0.0
C18 C 0.58588 0.08117 0.15294 0.0
C19 C 0.59379 0.06739 0.21044 0.0
C20 C 0.62374 0.08795 0.24873 0.0
C21 C 0.64589 0.12183 0.22828 0.0
C22 C 0.63697 0.13392 0.16984 0.0
H23 H 0.56315 0.06509 0.12298 0.0
O24 O 0.54116 0.16066 0.15301 0.0
O25 O 0.58473 0.16115 0.09992 0.0
O26 O 0.52147 0.1194 0.0317 0.0
O27 O 0.55968 0.1 0.0284 0.0
C28 C 0.67689 0.14381 0.26266 0.0
C29 C 0.6987 0.17712 0.23729 0.0
H30 H 0.73476 0.23886 0.1715 0.0
H31 H 0.71593 0.25454 0.0639 0.0
H32 H 0.57685 0.04101 0.22517 0.0
H33 H 0.6298 0.07741 0.29315 0.0
H34 H 0.68428 0.13528 0.30844 0.0
H35 H 0.72237 0.19387 0.26438 0.0
Mn36 Mn 0.39852 0.53952 0.21889 0.0
Mn37 Mn 0.48603 0.58523 0.21224 0.0
C38 C 0.42852 0.56354 0.31873 0.0
C39 C 0.34429 0.53619 0.22332 0.0
C40 C 0.44594 0.50812 0.21782 0.0
O41 O 0.40652 0.55017 0.11653 0.0
O42 O 0.46428 0.577 0.12115 0.0
C43 C 0.49216 0.65022 0.16168 0.0
N44 N 0.50218 0.63321 0.20553 0.0
C45 C 0.54769 0.68607 0.25144 0.0
C46 C 0.53808 0.70423 0.20629 0.0
C47 C 0.51007 0.68621 0.16147 0.0
C48 C 0.52902 0.65026 0.24893 0.0
H49 H 0.47076 0.63641 0.12709 0.0
C50 C 0.43605 0.5653 0.08835 0.0
O51 O 0.34708 0.50946 0.20879 0.0
O52 O 0.37283 0.56498 0.22758 0.0
N53 N 0.51344 0.59645 0.29352 0.0
C54 C 0.51664 0.57516 0.33886 0.0
C55 C 0.54231 0.58902 0.38961 0.0
C56 C 0.56474 0.62459 0.39265 0.0
C57 C 0.56121 0.64602 0.34487 0.0
C58 C 0.53554 0.63068 0.29469 0.0
H59 H 0.4998 0.54789 0.33601 0.0
O60 O 0.39851 0.5364 0.31845 0.0
O61 O 0.44242 0.57611 0.2586 0.0
O62 O 0.41566 0.50413 0.21249 0.0
O63 O 0.47321 0.53714 0.21976 0.0
C64 C 0.58123 0.68204 0.34667 0.0
C65 C 0.57443 0.70206 0.30007 0.0
H66 H 0.55171 0.73198 0.20626 0.0
H67 H 0.50237 0.70003 0.12678 0.0
H68 H 0.54478 0.57227 0.42613 0.0
H69 H 0.5842 0.63522 0.4325 0.0
H70 H 0.60133 0.69464 0.38483 0.0
H71 H 0.58946 0.72974 0.30303 0.0
Mn72 Mn 0.87549 0.3841 0.38226 0.0
Mn73 Mn 0.90705 0.46998 0.37602 0.0
C74 C 0.88831 0.41538 0.48137 0.0
C75 C 0.82522 0.32988 0.391 0.0
C76 C 0.952 0.4372 0.36194 0.0
O77 O 0.86714 0.39154 0.2817 0.0
O78 O 0.88786 0.44828 0.28699 0.0
C79 C 0.83833 0.46355 0.35921 0.0
N80 N 0.86856 0.47619 0.39441 0.0
C81 C 0.84885 0.50077 0.48066 0.0
C82 C 0.81764 0.48821 0.44505 0.0
C83 C 0.81236 0.46947 0.38411 0.0
C84 C 0.87361 0.49365 0.45383 0.0
H85 H 0.83393 0.4488 0.31277 0.0
C86 C 0.87356 0.41997 0.25438 0.0
O87 O 0.85419 0.33242 0.37155 0.0
O88 O 0.82549 0.35837 0.40012 0.0
N89 N 0.9267 0.49616 0.45776 0.0
C90 C 0.96032 0.51191 0.47779 0.0
C91 C 0.97111 0.53406 0.53474 0.0
C92 C 0.94752 0.54078 0.56895 0.0
C93 C 0.91374 0.52636 0.54412 0.0
C94 C 0.90471 0.50495 0.48645 0.0
H95 H 0.97874 0.50753 0.45056 0.0
O96 O 0.88399 0.38479 0.48244 0.0
O97 O 0.88312 0.42622 0.42335 0.0
O98 O 0.92807 0.40559 0.36557 0.0
O99 O 0.94683 0.46286 0.36248 0.0
C100 C 0.88907 0.53344 0.57268 0.0
C101 C 0.85649 0.52033 0.54138 0.0
H102 H 0.79761 0.49289 0.46389 0.0
H103 H 0.78828 0.45957 0.35647 0.0
H104 H 0.99753 0.54594 0.55212 0.0
H105 H 0.95584 0.55772 0.61307 0.0
H106 H 0.89509 0.5494 0.61802 0.0
H107 H 0.8378 0.52612 0.56352 0.0
Mn108 Mn 0.49498 0.86232 0.56192 0.0
Mn109 Mn 0.44339 0.89737 0.56433 0.0
C110 C 0.48148 0.8783 0.66359 0.0
C111 C 0.49761 0.81138 0.57471 0.0
C112 C 0.52052 0.93889 0.53944 0.0
O113 O 0.47519 0.85267 0.46376 0.0
O114 O 0.4423 0.87713 0.4742 0.0
C115 C 0.38026 0.82935 0.5561 0.0
N116 N 0.39887 0.86026 0.58789 0.0
C117 C 0.35714 0.84322 0.67879 0.0
C118 C 0.33722 0.81155 0.64617 0.0
C119 C 0.34893 0.80453 0.58472 0.0
C120 C 0.38838 0.86677 0.6483 0.0
H121 H 0.38949 0.82342 0.50986 0.0
C122 C 0.45363 0.86083 0.43955 0.0
O123 O 0.52341 0.83882 0.54875 0.0
O124 O 0.47011 0.81301 0.58519 0.0
N125 N 0.44011 0.91837 0.64729 0.0
C126 C 0.45958 0.95193 0.66588 0.0
C127 C 0.45028 0.96417 0.72373 0.0
C128 C 0.42032 0.94213 0.76037 0.0
C129 C 0.39937 0.90841 0.73736 0.0
C130 C 0.40976 0.8979 0.67875 0.0
H131 H 0.482 0.96925 0.63664 0.0
O132 O 0.50716 0.87289 0.66058 0.0
O133 O 0.46332 0.87252 0.60825 0.0
O134 O 0.52677 0.91387 0.53969 0.0
O135 O 0.49044 0.93555 0.54579 0.0
C136 C 0.36804 0.88519 0.76895 0.0
C137 C 0.34719 0.85239 0.74029 0.0
H138 H 0.31299 0.79238 0.66799 0.0
H139 H 0.33394 0.77997 0.55967 0.0
H140 H 0.46609 0.99053 0.73986 0.0
H141 H 0.41331 0.95157 0.80518 0.0
H142 H 0.35956 0.89241 0.81488 0.0
H143 H 0.32322 0.83469 0.76516 0.0
Mn144 Mn 0.66653 0.5021 0.72581 0.0
Mn145 Mn 0.57992 0.45152 0.71697 0.0
C146 C 0.63353 0.48617 0.82477 0.0
C147 C 0.72054 0.50558 0.74401 0.0
C148 C 0.61652 0.52866 0.69423 0.0
O149 O 0.65925 0.48391 0.62582 0.0
O150 O 0.60176 0.45086 0.62964 0.0
C151 C 0.58253 0.38706 0.70955 0.0
N152 N 0.57077 0.40643 0.74044 0.0
C153 C 0.54236 0.36384 0.82838 0.0
C154 C 0.55392 0.34334 0.79715 0.0
C155 C 0.57416 0.35505 0.73756 0.0
C156 C 0.55193 0.39572 0.79866 0.0
H157 H 0.59844 0.39608 0.66423 0.0
C158 C 0.63033 0.46277 0.59802 0.0
O159 O 0.71863 0.53116 0.71742 0.0
O160 O 0.69158 0.47767 0.75196 0.0
N161 N 0.55355 0.44824 0.79669 0.0
C162 C 0.54032 0.46875 0.81406 0.0
C163 C 0.51727 0.45949 0.86936 0.0
C164 C 0.50724 0.42873 0.90484 0.0
C165 C 0.51963 0.40711 0.88357 0.0
C166 C 0.54204 0.41744 0.82735 0.0
H167 H 0.54735 0.49203 0.78598 0.0
O168 O 0.6645 0.51189 0.82542 0.0
O169 O 0.62312 0.46969 0.76714 0.0
O170 O 0.64752 0.53449 0.70086 0.0
O171 O 0.58967 0.4988 0.69736 0.0
C172 C 0.50983 0.37526 0.91468 0.0
C173 C 0.52155 0.35382 0.88761 0.0
H174 H 0.54738 0.31856 0.81841 0.0
H175 H 0.58335 0.33947 0.71334 0.0
H176 H 0.50723 0.47597 0.8845 0.0
H177 H 0.48958 0.42164 0.94754 0.0
H178 H 0.49301 0.36687 0.959 0.0
H179 H 0.51383 0.32936 0.91189 0.0
Mn180 Mn 0.18279 0.64698 0.89429 0.0
Mn181 Mn 0.17594 0.56887 0.90354 0.0
C182 C 0.17657 0.62154 -0.00139 0.0
C183 C 0.2229 0.70648 0.89631 0.0
C184 C 0.11349 0.5782 0.88206 0.0
O185 O 0.19439 0.64009 0.79595 0.0
O186 O 0.1854 0.58692 0.80904 0.0
C187 C 0.25032 0.59809 0.87554 0.0
N188 N 0.22267 0.57968 0.91711 0.0
C189 C 0.25828 0.57335 0.00218 0.0
C190 C 0.28705 0.59217 0.96019 0.0
C191 C 0.28304 0.60464 0.89664 0.0
C192 C 0.22643 0.5683 0.97909 0.0
H193 H 0.24756 0.60789 0.82672 0.0
C194 C 0.19258 0.61288 0.77175 0.0
O195 O 0.1915 0.69538 0.87516 0.0
O196 O 0.23092 0.68348 0.91094 0.0
N197 N 0.16741 0.54583 -0.00961 0.0
C198 C 0.13663 0.52046 0.01405 0.0
C199 C 0.13542 0.5019 0.07311 0.0
C200 C 0.16606 0.50852 0.1057 0.0
C201 C 0.19761 0.53242 0.0769 0.0
C202 C 0.19705 0.54972 0.01726 0.0
H203 H 0.11317 0.51456 -0.01193 0.0
O204 O 0.17252 0.64788 -0.0071 0.0
O205 O 0.18724 0.61259 0.94454 0.0
O206 O 0.13041 0.61137 0.87687 0.0
O207 O 0.12807 0.56001 0.89319 0.0
C208 C 0.22943 0.53789 0.10221 0.0
C209 C 0.25985 0.55872 0.06526 0.0
H210 H 0.31225 0.5969 0.9759 0.0
H211 H 0.30511 0.61919 0.86389 0.0
H212 H 0.11091 0.48238 0.09314 0.0
H213 H 0.16509 0.49386 0.15069 0.0
H214 H 0.23067 0.52533 0.14885 0.0
H215 H 0.28412 0.56228 0.08455 0.0
Mn216 Mn 0.89018 0.49425 0.84588 0.0
Mn217 Mn 0.9058 0.42827 0.83933 0.0
C218 C 0.89986 0.4764 0.74241 0.0
C219 C 0.84437 0.50649 0.83989 0.0
C220 C 0.96131 0.50167 0.87497 0.0
O221 O 0.87734 0.47384 0.94251 0.0
O222 O 0.8848 0.42849 0.92789 0.0
C223 C 0.8324 0.37454 0.8356 0.0
N224 N 0.86445 0.38926 0.80766 0.0
C225 C 0.84421 0.34929 0.71346 0.0
C226 C 0.81105 0.33349 0.74158 0.0
C227 C 0.8051 0.34628 0.80275 0.0
C228 C 0.87025 0.37774 0.74786 0.0
H229 H 0.82765 0.38444 0.88233 0.0
C230 C 0.87563 0.44616 0.96403 0.0
O231 O 0.87446 0.52936 0.863 0.0
O232 O 0.84105 0.47729 0.82436 0.0
N233 N 0.92629 0.42327 0.75712 0.0
C234 C 0.96033 0.43935 0.7405 0.0
C235 C 0.97112 0.42845 0.68277 0.0
C236 C 0.94696 0.40048 0.64384 0.0
C237 C 0.91233 0.3833 0.66372 0.0
C238 C 0.90319 0.39516 0.72211 0.0
H239 H 0.97913 0.46052 0.7707 0.0
O240 O 0.90161 0.50588 0.74705 0.0
O241 O 0.89111 0.45785 0.7974 0.0
O242 O 0.94289 0.51641 0.86915 0.0
O243 O 0.94882 0.46923 0.86781 0.0
C244 C 0.88664 0.35449 0.62865 0.0
C245 C 0.85248 0.33782 0.65288 0.0
H246 H 0.78999 0.31154 0.71664 0.0
H247 H 0.77954 0.33436 0.82457 0.0
H248 H 0.99798 0.44154 0.66841 0.0
H249 H 0.95533 0.39224 0.59916 0.0
H250 H 0.89289 0.34488 0.58309 0.0
H251 H 0.8329 0.31585 0.62518 0.0
Mn252 Mn 0.39662 0.87457 0.02121 0.0
Mn253 Mn 0.48147 0.89974 0.03058 0.0
C254 C 0.42928 0.88683 0.92363 0.0
C255 C 0.34037 0.82801 0.00232 0.0
C256 C 0.45395 0.94932 0.04334 0.0
O257 O 0.40136 0.86265 0.12125 0.0
O258 O 0.45821 0.8822 0.11906 0.0
C259 C 0.46835 0.82878 0.04977 0.0
N260 N 0.48364 0.85884 0.01412 0.0
C261 C 0.50498 0.83509 0.92934 0.0
C262 C 0.48974 0.80405 0.96556 0.0
C263 C 0.4713 0.80088 0.02598 0.0
C264 C 0.50078 0.86186 0.95505 0.0
H265 H 0.45369 0.8259 0.09565 0.0
C266 C 0.42939 0.86819 0.15007 0.0
O267 O 0.34491 0.85684 0.02726 0.0
O268 O 0.36765 0.82551 -0.00343 0.0
N269 N 0.50904 0.91711 0.94971 0.0
C270 C 0.52842 0.95055 0.93048 0.0
C271 C 0.55062 0.95915 0.87387 0.0
C272 C 0.55407 0.93349 0.83989 0.0
C273 C 0.53644 0.8998 0.86484 0.0
C274 C 0.5149 0.89295 0.92181 0.0
H275 H 0.52727 0.97053 0.9588 0.0
O276 O 0.40006 0.88597 0.922 0.0
O277 O 0.43802 0.87901 0.98138 0.0
O278 O 0.42161 0.92692 0.04292 0.0
O279 O 0.47821 0.94189 0.04115 0.0
C280 C 0.54052 0.87309 0.83728 0.0
C281 C 0.52448 0.84062 0.8691 0.0
H282 H 0.49211 0.78253 0.94759 0.0
H283 H 0.45929 0.77694 0.05407 0.0
H284 H 0.5653 0.98551 0.857 0.0
H285 H 0.5712 0.94015 0.79626 0.0
H286 H 0.55649 0.87744 0.79247 0.0
H287 H 0.52803 0.82035 0.84783 0.0
Mn288 Mn 0.55483 0.39834 0.18428 0.0
Mn289 Mn 0.60129 0.48475 0.19448 0.0
C290 C 0.56869 0.43119 0.08464 0.0
C291 C 0.55308 0.34557 0.16814 0.0
C292 C 0.52465 0.44346 0.22501 0.0
O293 O 0.57468 0.40688 0.28344 0.0
O294 O 0.609 0.46404 0.27728 0.0
C295 C 0.66917 0.4891 0.18165 0.0
N296 N 0.64642 0.49898 0.16047 0.0
C297 C 0.68438 0.53353 0.06992 0.0
C298 C 0.70858 0.5244 0.09188 0.0
C299 C 0.70083 0.5019 0.14772 0.0
C300 C 0.65315 0.5197 0.1054 0.0
H301 H 0.66297 0.47118 0.22344 0.0
C302 C 0.59785 0.43556 0.30876 0.0
O303 O 0.52729 0.34701 0.19503 0.0
O304 O 0.58062 0.37467 0.15738 0.0
N305 N 0.5974 0.50995 0.11899 0.0
C306 C 0.57214 0.5179 0.10708 0.0
C307 C 0.57621 0.54089 0.05411 0.0
C308 C 0.60658 0.55622 0.01518 0.0
C309 C 0.63296 0.54909 0.03075 0.0
C310 C 0.62759 0.52629 0.08472 0.0
H311 H 0.54901 0.5068 0.13757 0.0
O312 O 0.54386 0.39975 0.08509 0.0
O313 O 0.58504 0.44227 0.14244 0.0
O314 O 0.52028 0.41388 0.21015 0.0
O315 O 0.55403 0.47094 0.2261 0.0
C316 C 0.66435 0.56363 -0.00522 0.0
C317 C 0.6899 0.55556 0.01388 0.0
H318 H 0.73303 0.53424 0.06585 0.0
H319 H 0.71915 0.49431 0.16433 0.0
H320 H 0.55599 0.54677 0.04339 0.0
H321 H 0.6095 0.57368 0.97394 0.0
H322 H 0.66903 0.58093 0.95215 0.0
H323 H 0.71379 0.56663 -0.01458 0.0
Mn324 Mn 0.1724 0.53911 0.35495 0.0
Mn325 Mn 0.13663 0.58963 0.36607 0.0
C326 C 0.15431 0.55506 0.25761 0.0
C327 C 0.22308 0.5364 0.33574 0.0
C328 C 0.09693 0.51272 0.39125 0.0
O329 O 0.1845 0.55773 0.45406 0.0
O330 O 0.16237 0.59297 0.45064 0.0
C331 C 0.20342 0.65429 0.361 0.0
N332 N 0.17099 0.63421 0.33608 0.0
C333 C 0.18098 0.67418 0.24454 0.0
C334 C 0.21409 0.69575 0.27054 0.0
C335 C 0.22543 0.68564 0.32878 0.0
C336 C 0.16031 0.64313 0.27858 0.0
H337 H 0.21267 0.64617 0.40432 0.0
C338 C 0.17911 0.58067 0.48101 0.0
O339 O 0.1958 0.51048 0.3618 0.0
O340 O 0.2216 0.56411 0.32756 0.0
N341 N 0.1107 0.58994 0.28802 0.0
C342 C 0.07682 0.56802 0.27429 0.0
C343 C 0.06062 0.57544 0.2204 0.0
C344 C 0.07937 0.60535 0.18122 0.0
C345 C 0.11373 0.62828 0.19828 0.0
C346 C 0.12808 0.62008 0.25416 0.0
H347 H 0.0621 0.5452 0.30465 0.0
O348 O 0.15937 0.52918 0.25618 0.0
O349 O 0.16087 0.57118 0.31545 0.0
O350 O 0.12159 0.5066 0.38024 0.0
O351 O 0.10034 0.54279 0.39213 0.0
C352 C 0.13398 0.65941 0.1633 0.0
C353 C 0.16776 0.68217 0.18593 0.0
H354 H 0.23113 0.71995 0.24581 0.0
H355 H 0.25117 0.70184 0.34846 0.0
H356 H 0.03384 0.55798 0.20866 0.0
H357 H 0.06695 0.61071 0.13897 0.0
H358 H 0.12377 0.6662 0.11923 0.0
H359 H 0.18316 0.70596 0.15845 0.0
Mn360 Mn 0.64973 0.15736 0.51526 0.0
Mn361 Mn 0.56398 0.12393 0.53072 0.0
C362 C 0.61527 0.13995 0.41805 0.0
C363 C 0.70278 0.20818 0.49592 0.0
C364 C 0.60055 0.08325 0.55641 0.0
O365 O 0.64426 0.16951 0.61475 0.0
O366 O 0.58766 0.1515 0.61244 0.0
C367 C 0.56429 0.18982 0.52188 0.0
N368 N 0.55275 0.15736 0.49852 0.0
C369 C 0.5193 0.1644 0.40963 0.0
C370 C 0.53059 0.19781 0.43308 0.0
C371 C 0.55329 0.21061 0.48929 0.0
C372 C 0.53153 0.14509 0.44355 0.0
H373 H 0.5819 0.19982 0.56479 0.0
C374 C 0.61693 0.1665 0.6422 0.0
O375 O 0.70207 0.1809 0.52061 0.0
O376 O 0.6733 0.20623 0.48869 0.0
N377 N 0.53644 0.09621 0.45609 0.0
C378 C 0.52537 0.06239 0.44445 0.0
C379 C 0.501 0.04494 0.39262 0.0
C380 C 0.48757 0.06216 0.35454 0.0
C381 C 0.49816 0.09649 0.36937 0.0
C382 C 0.52216 0.11239 0.42232 0.0
H383 H 0.5348 0.04869 0.47475 0.0
O384 O 0.64615 0.14465 0.41641 0.0
O385 O 0.60589 0.14651 0.47643 0.0
O386 O 0.63117 0.10651 0.54047 0.0
O387 O 0.5748 0.08822 0.56034 0.0
C388 C 0.48544 0.11538 0.33448 0.0
C389 C 0.4963 0.14946 0.35412 0.0
H390 H 0.52202 0.21385 0.40832 0.0
H391 H 0.56226 0.23642 0.50747 0.0
H392 H 0.49238 0.01822 0.38245 0.0
H393 H 0.46854 0.04854 0.31524 0.0
H394 H 0.46721 0.10391 0.29265 0.0
H395 H 0.48642 0.16378 0.32683 0.0
Mn396 Mn 0.50767 0.643 0.68525 0.0
Mn397 Mn 0.4676 0.55667 0.67462 0.0
C398 C 0.48825 0.61653 0.58137 0.0
C399 C 0.50579 0.69445 0.68572 0.0
C400 C 0.5445 0.6005 0.68289 0.0
O401 O 0.4922 0.62936 0.78417 0.0
O402 O 0.47213 0.57271 0.77073 0.0
C403 C 0.39907 0.54023 0.72762 0.0
N404 N 0.41878 0.53718 0.67795 0.0
C405 C 0.36866 0.49316 0.62032 0.0
C406 C 0.34787 0.49574 0.671 0.0
C407 C 0.36314 0.51958 0.72455 0.0
C408 C 0.40432 0.51465 0.62573 0.0
H409 H 0.4106 0.55802 0.76963 0.0
C410 C 0.47897 0.59886 0.80769 0.0
O411 O 0.53375 0.69417 0.70284 0.0
O412 O 0.47885 0.66491 0.67584 0.0
N413 N 0.46023 0.53667 0.58512 0.0
C414 C 0.4838 0.53811 0.53921 0.0
C415 C 0.47254 0.51693 0.48086 0.0
C416 C 0.43725 0.49451 0.47039 0.0
C417 C 0.41353 0.49317 0.51872 0.0
C418 C 0.42624 0.5147 0.57608 0.0
H419 H 0.51098 0.55485 0.54776 0.0
O420 O 0.51449 0.64711 0.58558 0.0
O421 O 0.47469 0.60071 0.63898 0.0
O422 O 0.54557 0.629 0.69547 0.0
O423 O 0.51685 0.57272 0.67059 0.0
C424 C 0.37779 0.47102 0.51256 0.0
C425 C 0.35537 0.47093 0.56343 0.0
H426 H 0.32014 0.47986 0.66882 0.0
H427 H 0.34726 0.52182 0.76374 0.0
H428 H 0.49104 0.51728 0.44486 0.0
H429 H 0.42856 0.478 0.42572 0.0
H430 H 0.36726 0.45403 0.46875 0.0
H431 H 0.32791 0.45407 0.55775 0.0
C432 C 0.56332 0.1191 0.25474 0.0
C433 C 0.57894 0.15105 0.22208 0.0
C434 C 0.57593 0.11512 0.31784 0.0
C435 C 0.60101 0.14368 0.35349 0.0
H436 H 0.54258 0.09688 0.22976 0.0
H437 H 0.56649 0.08967 0.33804 0.0
S438 S 0.64868 0.23307 0.29002 0.0
N439 N 0.62137 0.21149 0.22763 0.0
N440 N 0.64157 0.20485 0.35129 0.0
C441 C 0.61589 0.17598 0.32209 0.0
C442 C 0.60512 0.17958 0.25559 0.0
C443 C 0.4726 0.61111 0.39085 0.0
C444 C 0.44099 0.58143 0.38495 0.0
C445 C 0.48873 0.62147 0.45465 0.0
C446 C 0.47065 0.60555 0.515 0.0
H447 H 0.48387 0.62665 0.34659 0.0
H448 H 0.51486 0.64269 0.45671 0.0
S449 S 0.37568 0.55521 0.5222 0.0
N450 N 0.38525 0.55219 0.4416 0.0
N451 N 0.41286 0.57816 0.56216 0.0
C452 C 0.43497 0.58442 0.50938 0.0
C453 C 0.42013 0.57103 0.44404 0.0
C454 C 0.92646 0.46785 0.6396 0.0
C455 C 0.89697 0.46157 0.6755 0.0
C456 C 0.92347 0.45174 0.57682 0.0
C457 C 0.89131 0.43258 0.54553 0.0
H458 H 0.95175 0.48433 0.66114 0.0
H459 H 0.94637 0.45477 0.55212 0.0
S460 S 0.80666 0.41121 0.6171 0.0
N461 N 0.83472 0.43506 0.6767 0.0
N462 N 0.82946 0.40831 0.55353 0.0
C463 C 0.8617 0.42737 0.57965 0.0
C464 C 0.86453 0.44165 0.64567 0.0
C465 C 0.48168 0.91221 0.76287 0.0
C466 C 0.46868 0.88056 0.72995 0.0
C467 C 0.46787 0.91446 0.82545 0.0
C468 C 0.44411 0.8847 0.85957 0.0
H469 H 0.50153 0.93532 0.73893 0.0
H470 H 0.47591 0.93942 0.84743 0.0
S471 S 0.40463 0.79548 0.79671 0.0
N472 N 0.43102 0.81892 0.73471 0.0
N473 N 0.40848 0.82272 0.85769 0.0
C474 C 0.43218 0.85273 0.82857 0.0
C475 C 0.44421 0.85069 0.76268 0.0
C476 C 0.57984 0.46963 -0.01615 0.0
C477 C 0.58544 0.44567 0.01894 0.0
C478 C 0.5972 0.48438 0.92249 0.0
C479 C 0.61637 0.47171 0.88983 0.0
H480 H 0.56198 0.47693 0.00368 0.0
H481 H 0.59452 0.5048 0.89912 0.0
S482 S 0.6347 0.40521 0.95559 0.0
N483 N 0.61094 0.40901 0.01596 0.0
N484 N 0.63893 0.43262 0.89457 0.0
C485 C 0.62048 0.44617 0.92218 0.0
C486 C 0.60543 0.43349 -0.01244 0.0
C487 C 0.19095 0.59877 0.17513 0.0
C488 C 0.15784 0.57304 0.1938 0.0
C489 C 0.19695 0.61401 0.11055 0.0
C490 C 0.16977 0.60437 0.06423 0.0
H491 H 0.2125 0.6063 0.20986 0.0
H492 H 0.22288 0.6333 0.09667 0.0
S493 S 0.07842 0.53918 0.08942 0.0
N494 N 0.09802 0.53753 0.16032 0.0
N495 N 0.10839 0.57026 0.04242 0.0
C496 C 0.13623 0.58038 0.0839 0.0
C497 C 0.13049 0.56325 0.14787 0.0
C498 C 0.5808 0.31353 0.12058 0.0
C499 C 0.5507 0.31309 0.1427 0.0
C500 C 0.57984 0.28442 0.0922 0.0
C501 C 0.5487 0.25342 0.0836 0.0
H502 H 0.60558 0.33661 0.12543 0.0
H503 H 0.60399 0.28619 0.07759 0.0
S504 S 0.46219 0.23856 0.1308 0.0
N505 N 0.48843 0.27891 0.15234 0.0
N506 N 0.48674 0.22417 0.09873 0.0
C507 C 0.51822 0.25263 0.10411 0.0
C508 C 0.5192 0.28237 0.13385 0.0
C509 C 0.31028 0.56462 0.25403 0.0
C510 C 0.3114 0.5341 0.24585 0.0
C511 C 0.28201 0.56483 0.28427 0.0
C512 C 0.25333 0.53456 0.30843 0.0
H513 H 0.33178 0.58888 0.23785 0.0
H514 H 0.28284 0.58924 0.28882 0.0
S515 S 0.24253 0.44734 0.29758 0.0
N516 N 0.2807 0.47238 0.26325 0.0
N517 N 0.22742 0.4728 0.31986 0.0
C518 C 0.25371 0.50366 0.2997 0.0
C519 C 0.28265 0.50341 0.26837 0.0
C520 C 0.76646 0.24015 0.46491 0.0
C521 C 0.73447 0.23903 0.46941 0.0
C522 C 0.79563 0.26872 0.43602 0.0
C523 C 0.79381 0.29713 0.41029 0.0
H524 H 0.76904 0.2189 0.48395 0.0
H525 H 0.81993 0.269 0.43584 0.0
S526 S 0.71596 0.30646 0.40616 0.0
N527 N 0.70309 0.26911 0.44345 0.0
N528 N 0.7569 0.32141 0.3883 0.0
C529 C 0.76178 0.29579 0.41288 0.0
C530 C 0.73246 0.26721 0.44266 0.0
C531 C 0.53157 0.78175 0.6058 0.0
C532 C 0.49995 0.78139 0.60191 0.0
C533 C 0.53402 0.75457 0.63691 0.0
C534 C 0.50496 0.72605 0.66544 0.0
H535 H 0.55461 0.80315 0.58483 0.0
H536 H 0.55859 0.7554 0.6365 0.0
S537 S 0.41658 0.71329 0.67273 0.0
N538 N 0.43913 0.75006 0.63214 0.0
N539 N 0.44405 0.70003 0.69057 0.0
C540 C 0.47351 0.72586 0.66335 0.0
C541 C 0.47091 0.75316 0.63159 0.0
C542 C 0.786 0.5352 0.75478 0.0
C543 C 0.75298 0.50843 0.77306 0.0
C544 C 0.81625 0.53667 0.78123 0.0
C545 C 0.81449 0.51174 0.82771 0.0
H546 H 0.78851 0.55441 0.71802 0.0
H547 H 0.841 0.55625 0.76226 0.0
S548 S 0.73498 0.43907 0.89899 0.0
N549 N 0.7211 0.45831 0.84615 0.0
N550 N 0.77731 0.46132 0.89468 0.0
C551 C 0.7818 0.48612 0.84895 0.0
C552 C 0.75127 0.48441 0.82208 0.0
C553 C 0.28196 0.75512 0.88345 0.0
C554 C 0.24884 0.74283 0.91035 0.0
C555 C 0.31066 0.78357 0.91211 0.0
C556 C 0.30782 0.80109 0.96964 0.0
H557 H 0.28609 0.74125 0.84247 0.0
H558 H 0.33564 0.79107 0.89029 0.0
S559 S 0.22649 0.7805 0.05743 0.0
N560 N 0.21443 0.75131 -0.00395 0.0
N561 N 0.26857 0.80535 0.04954 0.0
C562 C 0.27458 0.79053 -0.00545 0.0
C563 C 0.24509 0.76123 0.96513 0.0
C564 C 0.58805 0.17947 0.73838 0.0
C565 C 0.61691 0.17772 0.71431 0.0
C566 C 0.58268 0.18184 0.8087 0.0
C567 C 0.60595 0.1826 0.85799 0.0
H568 H 0.56825 0.177 0.70293 0.0
H569 H 0.55891 0.18058 0.82454 0.0
S570 S 0.68942 0.18668 0.82166 0.0
N571 N 0.67174 0.18261 0.74515 0.0
N572 N 0.66204 0.1875 0.87717 0.0
C573 C 0.63672 0.1846 0.83426 0.0
C574 C 0.64215 0.18213 0.76252 0.0
C575 C 0.46727 0.56312 0.91222 0.0
C576 C 0.4677 0.59138 0.87994 0.0
C577 C 0.45387 0.55287 0.97821 0.0
C578 C 0.43977 0.57002 0.01393 0.0
H579 H 0.47789 0.54907 0.88665 0.0
H580 H 0.45577 0.53219 0.00264 0.0
S581 S 0.43313 0.64443 0.95214 0.0
N582 N 0.45169 0.63565 0.88811 0.0
N583 N 0.42639 0.6161 0.013 0.0
C584 C 0.43919 0.59774 -0.01787 0.0
C585 C 0.45327 0.60855 0.91494 0.0
C586 C 0.86861 0.4593 0.08563 0.0
C587 C 0.86666 0.43549 0.03681 0.0
C588 C 0.86833 0.45277 0.15596 0.0
C589 C 0.86624 0.4222 0.18061 0.0
H590 H 0.87254 0.48408 0.06973 0.0
H591 H 0.87155 0.4728 0.19119 0.0
S592 S 0.85261 0.34822 0.07401 0.0
N593 N 0.85627 0.37743 0.01794 0.0
N594 N 0.85653 0.36566 0.15052 0.0
C595 C 0.86076 0.39674 0.13258 0.0
C596 C 0.86083 0.40328 0.06063 0.0
C597 C 0.46486 0.85378 0.3164 0.0
C598 C 0.44272 0.85446 0.36628 0.0
C599 C 0.45892 0.85607 0.24635 0.0
C600 C 0.43051 0.85898 0.22313 0.0
H601 H 0.48815 0.85379 0.33151 0.0
H602 H 0.47782 0.85716 0.21028 0.0
S603 S 0.3613 0.85535 0.33261 0.0
N604 N 0.38845 0.85326 0.38728 0.0
N605 N 0.37765 0.85773 0.25549 0.0
C606 C 0.40651 0.85652 0.27204 0.0
C607 C 0.41257 0.85428 0.34359 0.0
C608 C 0.59764 0.42228 0.50175 0.0
C609 C 0.62753 0.45225 0.52429 0.0
C610 C 0.58949 0.41527 0.43159 0.0
C611 C 0.61081 0.43801 0.38072 0.0
H612 H 0.57923 0.40486 0.53881 0.0
H613 H 0.56515 0.39318 0.41757 0.0
S614 S 0.69524 0.51671 0.41128 0.0
N615 N 0.68072 0.50224 0.4892 0.0
N616 N 0.66585 0.48927 0.35766 0.0
C617 C 0.64237 0.4664 0.40232 0.0
C618 C 0.65066 0.47343 0.47387 0.0
C619 C 0.19261 0.57107 0.60165 0.0
C620 C 0.19003 0.59267 0.55284 0.0
C621 C 0.1956 0.57903 0.672 0.0
C622 C 0.19619 0.60895 0.69658 0.0
H623 H 0.19022 0.54687 0.58601 0.0
H624 H 0.19587 0.56061 0.70756 0.0
S625 S 0.19697 0.67726 0.58835 0.0
N626 N 0.1933 0.6478 0.53313 0.0
N627 N 0.19879 0.66245 0.66497 0.0
C628 C 0.19667 0.63217 0.64776 0.0
C629 C 0.19358 0.62408 0.57612 0.0
C630 C 0.50335 0.03831 0.9687 0.0
C631 C 0.50131 0.05915 0.01999 0.0
C632 C 0.48509 1.00251 0.97439 0.0
C633 C 0.46501 0.98607 0.03269 0.0
H634 H 0.52074 0.04981 0.92575 0.0
H635 H 0.48803 0.98758 0.93416 0.0
S636 S 0.44711 0.02867 0.17632 0.0
N637 N 0.47412 0.06066 0.12686 0.0
N638 N 0.44058 0.99307 0.13832 0.0
C639 C 0.46039 1.00633 0.08154 0.0
C640 C 0.47852 0.04298 0.07509 0.0
C641 C 0.48778 0.46118 0.28844 0.0
C642 C 0.49426 0.448 0.22859 0.0
C643 C 0.46652 0.47585 0.28657 0.0
C644 C 0.45178 0.47874 0.22465 0.0
H645 H 0.5013 0.46256 0.33567 0.0
H646 H 0.46469 0.48839 0.33232 0.0
S647 S 0.45933 0.44629 0.05476 0.0
N648 N 0.4821 0.43612 0.10679 0.0
N649 N 0.44334 0.46513 0.10322 0.0
C650 C 0.45591 0.46326 0.16572 0.0
C651 C 0.477 0.44765 0.16773 0.0
C652 C 0.03922 0.47736 0.4445 0.0
C653 C 0.06117 0.48405 0.38825 0.0
C654 C 1.00338 0.45822 0.43632 0.0
C655 C 0.98822 0.44609 0.37134 0.0
H656 H 0.04972 0.48882 0.49407 0.0
H657 H 0.98739 0.45526 0.48022 0.0
S658 S 0.03456 0.45536 0.20855 0.0
N659 N 0.06539 0.47496 0.26633 0.0
N660 N 0.99789 0.44051 0.25068 0.0
C661 C 1.00985 0.45094 0.3155 0.0
C662 C 0.0464 0.46962 0.32411 0.0
C663 C 0.55487 0.99102 0.60928 0.0
C664 C 0.54952 0.97427 0.54555 0.0
C665 C 0.57518 0.02675 0.61469 0.0
C666 C 0.59155 0.04691 0.55677 0.0
H667 H 0.54119 0.97663 0.65442 0.0
H668 H 0.57597 0.03887 0.6633 0.0
S669 S 0.58762 1.01512 0.37924 0.0
N670 N 0.56356 0.98009 0.42438 0.0
N671 N 0.6027 0.04731 0.43444 0.0
C672 C 0.58865 0.03015 0.49385 0.0
C673 C 0.56736 0.99375 0.48818 0.0
C674 C 0.59963 0.56715 0.75243 0.0
C675 C 0.61001 0.55781 0.69179 0.0
C676 C 0.58269 0.58638 0.75011 0.0
C677 C 0.57548 0.59686 0.68703 0.0
H678 H 0.60191 0.55698 0.8015 0.0
H679 H 0.57195 0.58986 0.79727 0.0
S680 S 0.60183 0.58303 0.51491 0.0
N681 N 0.61549 0.56366 0.56806 0.0
N682 N 0.58356 0.5997 0.56331 0.0
C683 C 0.58861 0.59033 0.62677 0.0
C684 C 0.60586 0.57076 0.6292 0.0
C685 C 0.05534 0.57618 0.87349 0.0
C686 C 0.07458 0.55912 0.88008 0.0
C687 C 1.01882 0.55807 0.87438 0.0
C688 C 0.99989 0.52219 0.88378 0.0
H689 H 0.06853 0.60371 0.86686 0.0
H690 H 1.00541 0.57225 0.86641 0.0
S691 S 0.03754 0.46517 0.9069 0.0
N692 N 0.07083 0.50353 0.89434 0.0
N693 N 1.00403 0.47089 0.90513 0.0
C694 C 1.01902 0.50521 0.89338 0.0
C695 C 0.0557 0.5232 0.88897 0.0
loop_
_geom_bond_atom_site_label_1
_geom_bond_atom_site_label_2
_geom_bond_distance
_geom_bond_site_symmetry_2
_ccdc_geom_bond_type
Mn0 O5 2.095 1_554 S
Mn0 O15 2.162 . S
Mn0 O16 2.297 . S
Mn0 O24 2.385 . S
Mn0 O25 2.209 . S
Mn0 O26 2.094 . S
Mn1 O6 2.121 1_554 S
Mn1 N8 2.257 . S
Mn1 N17 2.282 . S
Mn1 O25 2.215 . S
Mn1 O27 2.117 . S
C2 O24 1.234 . S
C2 O25 1.283 . S
C3 O15 1.281 . S
C3 O16 1.236 . S
C4 O26 1.240 . S
C4 O27 1.264 . S
O5 Mn0 2.095 1_556 S
O5 C14 1.250 . S
O6 Mn1 2.121 1_556 S
O6 C14 1.258 . S
C7 N8 1.326 . S
C7 C11 1.460 . S
C7 H13 0.929 . S
N8 Mn1 2.257 . S
N8 C7 1.326 . S
N8 C12 1.362 . S
C9 C10 1.258 . S
C9 C12 1.431 . S
C9 C29 1.449 . S
C10 C9 1.258 . S
C10 C11 1.477 . S
C10 H30 0.931 . S
C11 C7 1.460 . S
C11 C10 1.477 . S
C11 H31 0.930 . S
C12 N8 1.362 . S
C12 C9 1.431 . S
C12 C22 1.476 . S
H13 C7 0.929 . S
C14 O5 1.250 . S
C14 O6 1.258 . S
O15 Mn0 2.162 . S
O15 C3 1.281 . S
O16 Mn0 2.297 . S
O16 C3 1.236 . S
N17 Mn1 2.282 . S
N17 C18 1.328 . S
N17 C22 1.318 . S
C18 N17 1.328 . S
C18 C19 1.457 . S
C18 H23 0.929 . S
C19 C18 1.457 . S
C19 C20 1.291 . S
C19 H32 0.931 . S
C20 C19 1.291 . S
C20 C21 1.373 . S
C20 H33 0.929 . S
C21 C20 1.373 . S
C21 C22 1.396 . S
C21 C28 1.403 . S
C22 C12 1.476 . S
C22 N17 1.318 . S
C22 C21 1.396 . S
H23 C18 0.929 . S
O24 Mn0 2.385 . S
O24 C2 1.234 . S
O25 Mn0 2.209 . S
O25 Mn1 2.215 . S
O25 C2 1.283 . S
O26 Mn0 2.094 . S
O26 C4 1.240 . S
O27 Mn1 2.117 . S
O27 C4 1.264 . S
C28 C21 1.403 . S
C28 C29 1.399 . S
C28 H34 0.929 . S
C29 C9 1.449 . S
C29 C28 1.399 . S
C29 H35 0.930 . S
H30 C10 0.931 . S
H31 C11 0.930 . S
H32 C19 0.931 . S
H33 C20 0.929 . S
H34 C28 0.929 . S
H35 C29 0.930 . S
Mn36 O41 2.095 . S
Mn36 O51 2.162 . S
Mn36 O52 2.297 . S
Mn36 O60 2.385 . S
Mn36 O61 2.209 . S
Mn36 O62 2.094 . S
Mn37 O42 2.121 . S
Mn37 N44 2.257 . S
Mn37 N53 2.282 . S
Mn37 O61 2.215 . S
Mn37 O63 2.117 . S
C38 O60 1.234 . S
C38 O61 1.283 . S
C39 O51 1.281 . S
C39 O52 1.236 . S
C40 O62 1.240 . S
C40 O63 1.264 . S
O41 Mn36 2.095 . S
O41 C50 1.250 . S
O42 Mn37 2.121 . S
O42 C50 1.258 . S
C43 N44 1.326 . S
C43 C47 1.460 . S
C43 H49 0.929 . S
N44 Mn37 2.257 . S
N44 C43 1.326 . S
N44 C48 1.362 . S
C45 C46 1.258 . S
C45 C48 1.431 . S
C45 C65 1.449 . S
C46 C45 1.258 . S
C46 C47 1.477 . S
C46 H66 0.931 . S
C47 C43 1.460 . S
C47 C46 1.477 . S
C47 H67 0.930 . S
C48 N44 1.362 . S
C48 C45 1.431 . S
C48 C58 1.476 . S
H49 C43 0.929 . S
C50 O41 1.250 . S
C50 O42 1.258 . S
O51 Mn36 2.162 . S
O51 C39 1.281 . S
O52 Mn36 2.297 . S
O52 C39 1.236 . S
N53 Mn37 2.282 . S
N53 C54 1.328 . S
N53 C58 1.318 . S
C54 N53 1.328 . S
C54 C55 1.457 . S
C54 H59 0.929 . S
C55 C54 1.457 . S
C55 C56 1.291 . S
C55 H68 0.931 . S
C56 C55 1.291 . S
C56 C57 1.373 . S
C56 H69 0.929 . S
C57 C56 1.373 . S
C57 C58 1.396 . S
C57 C64 1.403 . S
C58 C48 1.476 . S
C58 N53 1.318 . S
C58 C57 1.396 . S
H59 C54 0.929 . S
O60 Mn36 2.385 . S
O60 C38 1.234 . S
O61 Mn36 2.209 . S
O61 Mn37 2.215 . S
O61 C38 1.283 . S
O62 Mn36 2.094 . S
O62 C40 1.240 . S
O63 Mn37 2.117 . S
O63 C40 1.264 . S
C64 C57 1.403 . S
C64 C65 1.399 . S
C64 H70 0.929 . S
C65 C45 1.449 . S
C65 C64 1.399 . S
C65 H71 0.930 . S
H66 C46 0.931 . S
H67 C47 0.930 . S
H68 C55 0.931 . S
H69 C56 0.929 . S
H70 C64 0.929 . S
H71 C65 0.930 . S
Mn72 O77 2.095 . S
Mn72 O87 2.162 . S
Mn72 O88 2.297 . S
Mn72 O96 2.385 . S
Mn72 O97 2.209 . S
Mn72 O98 2.094 . S
Mn73 O78 2.121 . S
Mn73 N80 2.257 . S
Mn73 N89 2.282 . S
Mn73 O97 2.215 . S
Mn73 O99 2.117 . S
C74 O96 1.234 . S
C74 O97 1.283 . S
C75 O87 1.281 . S
C75 O88 1.236 . S
C76 O98 1.240 . S
C76 O99 1.264 . S
O77 Mn72 2.095 . S
O77 C86 1.250 . S
O78 Mn73 2.121 . S
O78 C86 1.258 . S
C79 N80 1.326 . S
C79 C83 1.460 . S
C79 H85 0.929 . S
N80 Mn73 2.257 . S
N80 C79 1.326 . S
N80 C84 1.362 . S
C81 C82 1.258 . S
C81 C84 1.431 . S
C81 C101 1.449 . S
C82 C81 1.258 . S
C82 C83 1.477 . S
C82 H102 0.931 . S
C83 C79 1.460 . S
C83 C82 1.477 . S
C83 H103 0.930 . S
C84 N80 1.362 . S
C84 C81 1.431 . S
C84 C94 1.476 . S
H85 C79 0.929 . S
C86 O77 1.250 . S
C86 O78 1.258 . S
O87 Mn72 2.162 . S
O87 C75 1.281 . S
O88 Mn72 2.297 . S
O88 C75 1.236 . S
N89 Mn73 2.282 . S
N89 C90 1.328 . S
N89 C94 1.318 . S
C90 N89 1.328 . S
C90 C91 1.457 . S
C90 H95 0.929 . S
C91 C90 1.457 . S
C91 C92 1.291 . S
C91 H104 0.931 . S
C92 C91 1.291 . S
C92 C93 1.373 . S
C92 H105 0.929 . S
C93 C92 1.373 . S
C93 C94 1.396 . S
C93 C100 1.403 . S
C94 C84 1.476 . S
C94 N89 1.318 . S
C94 C93 1.396 . S
H95 C90 0.929 . S
O96 Mn72 2.385 . S
O96 C74 1.234 . S
O97 Mn72 2.209 . S
O97 Mn73 2.215 . S
O97 C74 1.283 . S
O98 Mn72 2.094 . S
O98 C76 1.240 . S
O99 Mn73 2.117 . S
O99 C76 1.264 . S
C100 C93 1.403 . S
C100 C101 1.399 . S
C100 H106 0.929 . S
C101 C81 1.449 . S
C101 C100 1.399 . S
C101 H107 0.930 . S
H102 C82 0.931 . S
H103 C83 0.930 . S
H104 C91 0.931 . S
H105 C92 0.929 . S
H106 C100 0.929 . S
H107 C101 0.930 . S
Mn108 O113 2.095 . S
Mn108 O123 2.162 . S
Mn108 O124 2.297 . S
Mn108 O132 2.385 . S
Mn108 O133 2.209 . S
Mn108 O134 2.094 . S
Mn109 O114 2.121 . S
Mn109 N116 2.257 . S
Mn109 N125 2.282 . S
Mn109 O133 2.215 . S
Mn109 O135 2.117 . S
C110 O132 1.234 . S
C110 O133 1.283 . S
C111 O123 1.281 . S
C111 O124 1.236 . S
C112 O134 1.240 . S
C112 O135 1.264 . S
O113 Mn108 2.095 . S
O113 C122 1.250 . S
O114 Mn109 2.121 . S
O114 C122 1.258 . S
C115 N116 1.326 . S
C115 C119 1.460 . S
C115 H121 0.929 . S
N116 Mn109 2.257 . S
N116 C115 1.326 . S
N116 C120 1.362 . S
C117 C118 1.258 . S
C117 C120 1.431 . S
C117 C137 1.449 . S
C118 C117 1.258 . S
C118 C119 1.477 . S
C118 H138 0.931 . S
C119 C115 1.460 . S
C119 C118 1.477 . S
C119 H139 0.930 . S
C120 N116 1.362 . S
C120 C117 1.431 . S
C120 C130 1.476 . S
H121 C115 0.929 . S
C122 O113 1.250 . S
C122 O114 1.258 . S
O123 Mn108 2.162 . S
O123 C111 1.281 . S
O124 Mn108 2.297 . S
O124 C111 1.236 . S
N125 Mn109 2.282 . S
N125 C126 1.328 . S
N125 C130 1.318 . S
C126 N125 1.328 . S
C126 C127 1.457 . S
C126 H131 0.929 . S
C127 C126 1.457 . S
C127 C128 1.291 . S
C127 H140 0.931 . S
C128 C127 1.291 . S
C128 C129 1.373 . S
C128 H141 0.929 . S
C129 C128 1.373 . S
C129 C130 1.396 . S
C129 C136 1.403 . S
C130 C120 1.476 . S
C130 N125 1.318 . S
C130 C129 1.396 . S
H131 C126 0.929 . S
O132 Mn108 2.385 . S
O132 C110 1.234 . S
O133 Mn108 2.209 . S
O133 Mn109 2.215 . S
O133 C110 1.283 . S
O134 Mn108 2.094 . S
O134 C112 1.240 . S
O135 Mn109 2.117 . S
O135 C112 1.264 . S
C136 C129 1.403 . S
C136 C137 1.399 . S
C136 H142 0.929 . S
C137 C117 1.449 . S
C137 C136 1.399 . S
C137 H143 0.930 . S
H138 C118 0.931 . S
H139 C119 0.930 . S
H140 C127 0.931 . S
H141 C128 0.929 . S
H142 C136 0.929 . S
H143 C137 0.930 . S
Mn144 O149 2.095 . S
Mn144 O159 2.162 . S
Mn144 O160 2.297 . S
Mn144 O168 2.385 . S
Mn144 O169 2.209 . S
Mn144 O170 2.094 . S
Mn145 O150 2.121 . S
Mn145 N152 2.257 . S
Mn145 N161 2.282 . S
Mn145 O169 2.215 . S
Mn145 O171 2.117 . S
C146 O168 1.234 . S
C146 O169 1.283 . S
C147 O159 1.281 . S
C147 O160 1.236 . S
C148 O170 1.240 . S
C148 O171 1.264 . S
O149 Mn144 2.095 . S
O149 C158 1.250 . S
O150 Mn145 2.121 . S
O150 C158 1.258 . S
C151 N152 1.326 . S
C151 C155 1.460 . S
C151 H157 0.929 . S
N152 Mn145 2.257 . S
N152 C151 1.326 . S
N152 C156 1.362 . S
C153 C154 1.258 . S
C153 C156 1.431 . S
C153 C173 1.449 . S
C154 C153 1.258 . S
C154 C155 1.477 . S
C154 H174 0.931 . S
C155 C151 1.460 . S
C155 C154 1.477 . S
C155 H175 0.930 . S
C156 N152 1.362 . S
C156 C153 1.431 . S
C156 C166 1.476 . S
H157 C151 0.929 . S
C158 O149 1.250 . S
C158 O150 1.258 . S
O159 Mn144 2.162 . S
O159 C147 1.281 . S
O160 Mn144 2.297 . S
O160 C147 1.236 . S
N161 Mn145 2.282 . S
N161 C162 1.328 . S
N161 C166 1.318 . S
C162 N161 1.328 . S
C162 C163 1.457 . S
C162 H167 0.929 . S
C163 C162 1.457 . S
C163 C164 1.291 . S
C163 H176 0.931 . S
C164 C163 1.291 . S
C164 C165 1.373 . S
C164 H177 0.929 1_556 S
C165 C164 1.373 . S
C165 C166 1.396 . S
C165 C172 1.403 . S
C166 C156 1.476 . S
C166 N161 1.318 . S
C166 C165 1.396 . S
H167 C162 0.929 . S
O168 Mn144 2.385 . S
O168 C146 1.234 . S
O169 Mn144 2.209 . S
O169 Mn145 2.215 . S
O169 C146 1.283 . S
O170 Mn144 2.094 . S
O170 C148 1.240 . S
O171 Mn145 2.117 . S
O171 C148 1.264 . S
C172 C165 1.403 . S
C172 C173 1.399 . S
C172 H178 0.929 . S
C173 C153 1.449 . S
C173 C172 1.399 . S
C173 H179 0.930 . S
H174 C154 0.931 . S
H175 C155 0.930 . S
H176 C163 0.931 . S
H177 C164 0.929 1_554 S
H178 C172 0.929 . S
H179 C173 0.930 . S
Mn180 O185 2.095 . S
Mn180 O195 2.162 . S
Mn180 O196 2.297 . S
Mn180 O204 2.385 1_556 S
Mn180 O205 2.209 . S
Mn180 O206 2.094 . S
Mn181 O186 2.121 . S
Mn181 N188 2.257 . S
Mn181 N197 2.282 . S
Mn181 O205 2.215 . S
Mn181 O207 2.117 . S
C182 O204 1.234 . S
C182 O205 1.283 1_554 S
C183 O195 1.281 . S
C183 O196 1.236 . S
C184 O206 1.240 . S
C184 O207 1.264 . S
O185 Mn180 2.095 . S
O185 C194 1.250 . S
O186 Mn181 2.121 . S
O186 C194 1.258 . S
C187 N188 1.326 . S
C187 C191 1.460 . S
C187 H193 0.929 . S
N188 Mn181 2.257 . S
N188 C187 1.326 . S
N188 C192 1.362 . S
C189 C190 1.258 . S
C189 C192 1.431 . S
C189 C209 1.449 1_556 S
C190 C189 1.258 . S
C190 C191 1.477 . S
C190 H210 0.931 . S
C191 C187 1.460 . S
C191 C190 1.477 . S
C191 H211 0.930 . S
C192 N188 1.362 . S
C192 C189 1.431 . S
C192 C202 1.476 1_556 S
H193 C187 0.929 . S
C194 O185 1.250 . S
C194 O186 1.258 . S
O195 Mn180 2.162 . S
O195 C183 1.281 . S
O196 Mn180 2.297 . S
O196 C183 1.236 . S
N197 Mn181 2.282 . S
N197 C198 1.328 1_556 S
N197 C202 1.318 1_556 S
C198 N197 1.328 1_554 S
C198 C199 1.457 . S
C198 H203 0.929 . S
C199 C198 1.457 . S
C199 C200 1.291 . S
C199 H212 0.931 . S
C200 C199 1.291 . S
C200 C201 1.373 . S
C200 H213 0.929 . S
C201 C200 1.373 . S
C201 C202 1.396 . S
C201 C208 1.403 . S
C202 C192 1.476 1_554 S
C202 N197 1.318 1_554 S
C202 C201 1.396 . S
H203 C198 0.929 . S
O204 Mn180 2.385 1_554 S
O204 C182 1.234 . S
O205 Mn180 2.209 . S
O205 Mn181 2.215 . S
O205 C182 1.283 1_556 S
O206 Mn180 2.094 . S
O206 C184 1.240 . S
O207 Mn181 2.117 . S
O207 C184 1.264 . S
C208 C201 1.403 . S
C208 C209 1.399 . S
C208 H214 0.929 . S
C209 C189 1.449 1_554 S
C209 C208 1.399 . S
C209 H215 0.930 . S
H210 C190 0.931 . S
H211 C191 0.930 . S
H212 C199 0.931 . S
H213 C200 0.929 . S
H214 C208 0.929 . S
H215 C209 0.930 . S
Mn216 O221 2.095 . S
Mn216 O231 2.162 . S
Mn216 O232 2.297 . S
Mn216 O240 2.385 . S
Mn216 O241 2.209 . S
Mn216 O242 2.094 . S
Mn217 O222 2.121 . S
Mn217 N224 2.257 . S
Mn217 N233 2.282 . S
Mn217 O241 2.215 . S
Mn217 O243 2.117 . S
C218 O240 1.234 . S
C218 O241 1.283 . S
C219 O231 1.281 . S
C219 O232 1.236 . S
C220 O242 1.240 . S
C220 O243 1.264 . S
O221 Mn216 2.095 . S
O221 C230 1.250 1_556 S
O222 Mn217 2.121 . S
O222 C230 1.258 1_556 S
C223 N224 1.326 . S
C223 C227 1.460 . S
C223 H229 0.929 . S
N224 Mn217 2.257 . S
N224 C223 1.326 . S
N224 C228 1.362 . S
C225 C226 1.258 . S
C225 C228 1.431 . S
C225 C245 1.449 . S
C226 C225 1.258 . S
C226 C227 1.477 . S
C226 H246 0.931 . S
C227 C223 1.460 . S
C227 C226 1.477 . S
C227 H247 0.930 . S
C228 N224 1.362 . S
C228 C225 1.431 . S
C228 C238 1.476 . S
H229 C223 0.929 . S
C230 O221 1.250 1_554 S
C230 O222 1.258 1_554 S
O231 Mn216 2.162 . S
O231 C219 1.281 . S
O232 Mn216 2.297 . S
O232 C219 1.236 . S
N233 Mn217 2.282 . S
N233 C234 1.328 . S
N233 C238 1.318 . S
C234 N233 1.328 . S
C234 C235 1.457 . S
C234 H239 0.929 . S
C235 C234 1.457 . S
C235 C236 1.291 . S
C235 H248 0.931 . S
C236 C235 1.291 . S
C236 C237 1.373 . S
C236 H249 0.929 . S
C237 C236 1.373 . S
C237 C238 1.396 . S
C237 C244 1.403 . S
C238 C228 1.476 . S
C238 N233 1.318 . S
C238 C237 1.396 . S
H239 C234 0.929 . S
O240 Mn216 2.385 . S
O240 C218 1.234 . S
O241 Mn216 2.209 . S
O241 Mn217 2.215 . S
O241 C218 1.283 . S
O242 Mn216 2.094 . S
O242 C220 1.240 . S
O243 Mn217 2.117 . S
O243 C220 1.264 . S
C244 C237 1.403 . S
C244 C245 1.399 . S
C244 H250 0.929 . S
C245 C225 1.449 . S
C245 C244 1.399 . S
C245 H251 0.930 . S
H246 C226 0.931 . S
H247 C227 0.930 . S
H248 C235 0.931 . S
H249 C236 0.929 . S
H250 C244 0.929 . S
H251 C245 0.930 . S
Mn252 O257 2.095 . S
Mn252 O267 2.162 . S
Mn252 O268 2.297 . S
Mn252 O276 2.385 1_554 S
Mn252 O277 2.209 1_554 S
Mn252 O278 2.094 . S
Mn253 O258 2.121 . S
Mn253 N260 2.257 . S
Mn253 N269 2.282 1_554 S
Mn253 O277 2.215 1_554 S
Mn253 O279 2.117 . S
C254 O276 1.234 . S
C254 O277 1.283 . S
C255 O267 1.281 . S
C255 O268 1.236 . S
C256 O278 1.240 . S
C256 O279 1.264 . S
O257 Mn252 2.095 . S
O257 C266 1.250 . S
O258 Mn253 2.121 . S
O258 C266 1.258 . S
C259 N260 1.326 . S
C259 C263 1.460 . S
C259 H265 0.929 . S
N260 Mn253 2.257 . S
N260 C259 1.326 . S
N260 C264 1.362 1_554 S
C261 C262 1.258 . S
C261 C264 1.431 . S
C261 C281 1.449 . S
C262 C261 1.258 . S
C262 C263 1.477 1_556 S
C262 H282 0.931 . S
C263 C259 1.460 . S
C263 C262 1.477 1_554 S
C263 H283 0.930 . S
C264 N260 1.362 1_556 S
C264 C261 1.431 . S
C264 C274 1.476 . S
H265 C259 0.929 . S
C266 O257 1.250 . S
C266 O258 1.258 . S
O267 Mn252 2.162 . S
O267 C255 1.281 . S
O268 Mn252 2.297 . S
O268 C255 1.236 . S
N269 Mn253 2.282 1_556 S
N269 C270 1.328 . S
N269 C274 1.318 . S
C270 N269 1.328 . S
C270 C271 1.457 . S
C270 H275 0.929 . S
C271 C270 1.457 . S
C271 C272 1.291 . S
C271 H284 0.931 . S
C272 C271 1.291 . S
C272 C273 1.373 . S
C272 H285 0.929 . S
C273 C272 1.373 . S
C273 C274 1.396 . S
C273 C280 1.403 . S
C274 C264 1.476 . S
C274 N269 1.318 . S
C274 C273 1.396 . S
H275 C270 0.929 . S
O276 Mn252 2.385 1_556 S
O276 C254 1.234 . S
O277 Mn252 2.209 1_556 S
O277 Mn253 2.215 1_556 S
O277 C254 1.283 . S
O278 Mn252 2.094 . S
O278 C256 1.240 . S
O279 Mn253 2.117 . S
O279 C256 1.264 . S
C280 C273 1.403 . S
C280 C281 1.399 . S
C280 H286 0.929 . S
C281 C261 1.449 . S
C281 C280 1.399 . S
C281 H287 0.930 . S
H282 C262 0.931 . S
H283 C263 0.930 . S
H284 C271 0.931 . S
H285 C272 0.929 . S
H286 C280 0.929 . S
H287 C281 0.930 . S
Mn288 O293 2.095 . S
Mn288 O303 2.162 . S
Mn288 O304 2.297 . S
Mn288 O312 2.385 . S
Mn288 O313 2.209 . S
Mn288 O314 2.094 . S
Mn289 O294 2.121 . S
Mn289 N296 2.257 . S
Mn289 N305 2.282 . S
Mn289 O313 2.215 . S
Mn289 O315 2.117 . S
C290 O312 1.234 . S
C290 O313 1.283 . S
C291 O303 1.281 . S
C291 O304 1.236 . S
C292 O314 1.240 . S
C292 O315 1.264 . S
O293 Mn288 2.095 . S
O293 C302 1.250 . S
O294 Mn289 2.121 . S
O294 C302 1.258 . S
C295 N296 1.326 . S
C295 C299 1.460 . S
C295 H301 0.929 . S
N296 Mn289 2.257 . S
N296 C295 1.326 . S
N296 C300 1.362 . S
C297 C298 1.258 . S
C297 C300 1.431 . S
C297 C317 1.449 . S
C298 C297 1.258 . S
C298 C299 1.477 . S
C298 H318 0.931 . S
C299 C295 1.460 . S
C299 C298 1.477 . S
C299 H319 0.930 . S
C300 N296 1.362 . S
C300 C297 1.431 . S
C300 C310 1.476 . S
H301 C295 0.929 . S
C302 O293 1.250 . S
C302 O294 1.258 . S
O303 Mn288 2.162 . S
O303 C291 1.281 . S
O304 Mn288 2.297 . S
O304 C291 1.236 . S
N305 Mn289 2.282 . S
N305 C306 1.328 . S
N305 C310 1.318 . S
C306 N305 1.328 . S
C306 C307 1.457 . S
C306 H311 0.929 . S
C307 C306 1.457 . S
C307 C308 1.291 1_554 S
C307 H320 0.931 1_554 S
C308 C307 1.291 1_556 S
C308 C309 1.373 1_556 S
C308 H321 0.929 . S
C309 C308 1.373 1_554 S
C309 C310 1.396 . S
C309 C316 1.403 . S
C310 C300 1.476 . S
C310 N305 1.318 . S
C310 C309 1.396 . S
H311 C306 0.929 . S
O312 Mn288 2.385 . S
O312 C290 1.234 . S
O313 Mn288 2.209 . S
O313 Mn289 2.215 . S
O313 C290 1.283 . S
O314 Mn288 2.094 . S
O314 C292 1.240 . S
O315 Mn289 2.117 . S
O315 C292 1.264 . S
C316 C309 1.403 . S
C316 C317 1.399 . S
C316 H322 0.929 1_554 S
C317 C297 1.449 . S
C317 C316 1.399 . S
C317 H323 0.930 . S
H318 C298 0.931 . S
H319 C299 0.930 . S
H320 C307 0.931 1_556 S
H321 C308 0.929 . S
H322 C316 0.929 1_556 S
H323 C317 0.930 . S
Mn324 O329 2.095 . S
Mn324 O339 2.162 . S
Mn324 O340 2.297 . S
Mn324 O348 2.385 . S
Mn324 O349 2.209 . S
Mn324 O350 2.094 . S
Mn325 O330 2.121 . S
Mn325 N332 2.257 . S
Mn325 N341 2.282 . S
Mn325 O349 2.215 . S
Mn325 O351 2.117 . S
C326 O348 1.234 . S
C326 O349 1.283 . S
C327 O339 1.281 . S
C327 O340 1.236 . S
C328 O350 1.240 . S
C328 O351 1.264 . S
O329 Mn324 2.095 . S
O329 C338 1.250 . S
O330 Mn325 2.121 . S
O330 C338 1.258 . S
C331 N332 1.326 . S
C331 C335 1.460 . S
C331 H337 0.929 . S
N332 Mn325 2.257 . S
N332 C331 1.326 . S
N332 C336 1.362 . S
C333 C334 1.258 . S
C333 C336 1.431 . S
C333 C353 1.449 . S
C334 C333 1.258 . S
C334 C335 1.477 . S
C334 H354 0.931 . S
C335 C331 1.460 . S
C335 C334 1.477 . S
C335 H355 0.930 . S
C336 N332 1.362 . S
C336 C333 1.431 . S
C336 C346 1.476 . S
H337 C331 0.929 . S
C338 O329 1.250 . S
C338 O330 1.258 . S
O339 Mn324 2.162 . S
O339 C327 1.281 . S
O340 Mn324 2.297 . S
O340 C327 1.236 . S
N341 Mn325 2.282 . S
N341 C342 1.328 . S
N341 C346 1.318 . S
C342 N341 1.328 . S
C342 C343 1.457 . S
C342 H347 0.929 . S
C343 C342 1.457 . S
C343 C344 1.291 . S
C343 H356 0.931 . S
C344 C343 1.291 . S
C344 C345 1.373 . S
C344 H357 0.929 . S
C345 C344 1.373 . S
C345 C346 1.396 . S
C345 C352 1.403 . S
C346 C336 1.476 . S
C346 N341 1.318 . S
C346 C345 1.396 . S
H347 C342 0.929 . S
O348 Mn324 2.385 . S
O348 C326 1.234 . S
O349 Mn324 2.209 . S
O349 Mn325 2.215 . S
O349 C326 1.283 . S
O350 Mn324 2.094 . S
O350 C328 1.240 . S
O351 Mn325 2.117 . S
O351 C328 1.264 . S
C352 C345 1.403 . S
C352 C353 1.399 . S
C352 H358 0.929 . S
C353 C333 1.449 . S
C353 C352 1.399 . S
C353 H359 0.930 . S
H354 C334 0.931 . S
H355 C335 0.930 . S
H356 C343 0.931 . S
H357 C344 0.929 . S
H358 C352 0.929 . S
H359 C353 0.930 . S
Mn360 O365 2.095 . S
Mn360 O375 2.162 . S
Mn360 O376 2.297 . S
Mn360 O384 2.385 . S
Mn360 O385 2.209 . S
Mn360 O386 2.094 . S
Mn361 O366 2.121 . S
Mn361 N368 2.257 . S
Mn361 N377 2.282 . S
Mn361 O385 2.215 . S
Mn361 O387 2.117 . S
C362 O384 1.234 . S
C362 O385 1.283 . S
C363 O375 1.281 . S
C363 O376 1.236 . S
C364 O386 1.240 . S
C364 O387 1.264 . S
O365 Mn360 2.095 . S
O365 C374 1.250 . S
O366 Mn361 2.121 . S
O366 C374 1.258 . S
C367 N368 1.326 . S
C367 C371 1.460 . S
C367 H373 0.929 . S
N368 Mn361 2.257 . S
N368 C367 1.326 . S
N368 C372 1.362 . S
C369 C370 1.258 . S
C369 C372 1.431 . S
C369 C389 1.449 . S
C370 C369 1.258 . S
C370 C371 1.477 . S
C370 H390 0.931 . S
C371 C367 1.460 . S
C371 C370 1.477 . S
C371 H391 0.930 . S
C372 N368 1.362 . S
C372 C369 1.431 . S
C372 C382 1.476 . S
H373 C367 0.929 . S
C374 O365 1.250 . S
C374 O366 1.258 . S
O375 Mn360 2.162 . S
O375 C363 1.281 . S
O376 Mn360 2.297 . S
O376 C363 1.236 . S
N377 Mn361 2.282 . S
N377 C378 1.328 . S
N377 C382 1.318 . S
C378 N377 1.328 . S
C378 C379 1.457 . S
C378 H383 0.929 . S
C379 C378 1.457 . S
C379 C380 1.291 . S
C379 H392 0.931 . S
C380 C379 1.291 . S
C380 C381 1.373 . S
C380 H393 0.929 . S
C381 C380 1.373 . S
C381 C382 1.396 . S
C381 C388 1.403 . S
C382 C372 1.476 . S
C382 N377 1.318 . S
C382 C381 1.396 . S
H383 C378 0.929 . S
O384 Mn360 2.385 . S
O384 C362 1.234 . S
O385 Mn360 2.209 . S
O385 Mn361 2.215 . S
O385 C362 1.283 . S
O386 Mn360 2.094 . S
O386 C364 1.240 . S
O387 Mn361 2.117 . S
O387 C364 1.264 . S
C388 C381 1.403 . S
C388 C389 1.399 . S
C388 H394 0.929 . S
C389 C369 1.449 . S
C389 C388 1.399 . S
C389 H395 0.930 . S
H390 C370 0.931 . S
H391 C371 0.930 . S
H392 C379 0.931 . S
H393 C380 0.929 . S
H394 C388 0.929 . S
H395 C389 0.930 . S
Mn396 O401 2.095 . S
Mn396 O411 2.162 . S
Mn396 O412 2.297 . S
Mn396 O420 2.385 . S
Mn396 O421 2.209 . S
Mn396 O422 2.094 . S
Mn397 O402 2.121 . S
Mn397 N404 2.257 . S
Mn397 N413 2.282 . S
Mn397 O421 2.215 . S
Mn397 O423 2.117 . S
C398 O420 1.234 . S
C398 O421 1.283 . S
C399 O411 1.281 . S
C399 O412 1.236 . S
C400 O422 1.240 . S
C400 O423 1.264 . S
O401 Mn396 2.095 . S
O401 C410 1.250 . S
O402 Mn397 2.121 . S
O402 C410 1.258 . S
C403 N404 1.326 . S
C403 C407 1.460 . S
C403 H409 0.929 . S
N404 Mn397 2.257 . S
N404 C403 1.326 . S
N404 C408 1.362 . S
C405 C406 1.258 . S
C405 C408 1.431 . S
C405 C425 1.449 . S
C406 C405 1.258 . S
C406 C407 1.477 . S
C406 H426 0.931 . S
C407 C403 1.460 . S
C407 C406 1.477 . S
C407 H427 0.930 . S
C408 N404 1.362 . S
C408 C405 1.431 . S
C408 C418 1.476 . S
H409 C403 0.929 . S
C410 O401 1.250 . S
C410 O402 1.258 . S
O411 Mn396 2.162 . S
O411 C399 1.281 . S
O412 Mn396 2.297 . S
O412 C399 1.236 . S
N413 Mn397 2.282 . S
N413 C414 1.328 . S
N413 C418 1.318 . S
C414 N413 1.328 . S
C414 C415 1.457 . S
C414 H419 0.929 . S
C415 C414 1.457 . S
C415 C416 1.291 . S
C415 H428 0.931 . S
C416 C415 1.291 . S
C416 C417 1.373 . S
C416 H429 0.929 . S
C417 C416 1.373 . S
C417 C418 1.396 . S
C417 C424 1.403 . S
C418 C408 1.476 . S
C418 N413 1.318 . S
C418 C417 1.396 . S
H419 C414 0.929 . S
O420 Mn396 2.385 . S
O420 C398 1.234 . S
O421 Mn396 2.209 . S
O421 Mn397 2.215 . S
O421 C398 1.283 . S
O422 Mn396 2.094 . S
O422 C400 1.240 . S
O423 Mn397 2.117 . S
O423 C400 1.264 . S
C424 C417 1.403 . S
C424 C425 1.399 . S
C424 H430 0.929 . S
C425 C405 1.449 . S
C425 C424 1.399 . S
C425 H431 0.930 . S
H426 C406 0.931 . S
H427 C407 0.930 . S
H428 C415 0.931 . S
H429 C416 0.929 . S
H430 C424 0.929 . S
H431 C425 0.930 . S
C432 C433 1.369 . S
C432 C434 1.419 . S
C432 H436 0.930 . S
C433 C432 1.369 . S
C433 C442 1.429 . S
C434 C432 1.419 . S
C434 C435 1.363 . S
C434 H437 0.929 . S
C435 C434 1.363 . S
C435 C441 1.428 . S
H436 C432 0.930 . S
H437 C434 0.929 . S
S438 N439 1.613 . S
S438 N440 1.610 . S
N439 S438 1.613 . S
N439 C442 1.350 . S
N440 S438 1.610 . S
N440 C441 1.351 . S
C441 C435 1.428 . S
C441 N440 1.351 . S
C441 C442 1.434 . S
C442 C433 1.429 . S
C442 N439 1.350 . S
C442 C441 1.434 . S
C443 C444 1.369 . S
C443 C445 1.419 . S
C443 H447 0.930 . S
C444 C443 1.369 . S
C444 C453 1.429 . S
C445 C443 1.419 . S
C445 C446 1.363 . S
C445 H448 0.929 . S
C446 C445 1.363 . S
C446 C452 1.428 . S
H447 C443 0.930 . S
H448 C445 0.929 . S
S449 N450 1.613 . S
S449 N451 1.610 . S
N450 S449 1.613 . S
N450 C453 1.350 . S
N451 S449 1.610 . S
N451 C452 1.351 . S
C452 C446 1.428 . S
C452 N451 1.351 . S
C452 C453 1.434 . S
C453 C444 1.429 . S
C453 N450 1.350 . S
C453 C452 1.434 . S
C454 C455 1.369 . S
C454 C456 1.419 . S
C454 H458 0.930 . S
C455 C454 1.369 . S
C455 C464 1.429 . S
C456 C454 1.419 . S
C456 C457 1.363 . S
C456 H459 0.929 . S
C457 C456 1.363 . S
C457 C463 1.428 . S
H458 C454 0.930 . S
H459 C456 0.929 . S
S460 N461 1.613 . S
S460 N462 1.610 . S
N461 S460 1.613 . S
N461 C464 1.350 . S
N462 S460 1.610 . S
N462 C463 1.351 . S
C463 C457 1.428 . S
C463 N462 1.351 . S
C463 C464 1.434 . S
C464 C455 1.429 . S
C464 N461 1.350 . S
C464 C463 1.434 . S
C465 C466 1.369 . S
C465 C467 1.419 . S
C465 H469 0.930 . S
C466 C465 1.369 . S
C466 C475 1.429 . S
C467 C465 1.419 . S
C467 C468 1.363 . S
C467 H470 0.929 . S
C468 C467 1.363 . S
C468 C474 1.428 . S
H469 C465 0.930 . S
H470 C467 0.929 . S
S471 N472 1.613 . S
S471 N473 1.610 . S
N472 S471 1.613 . S
N472 C475 1.350 . S
N473 S471 1.610 . S
N473 C474 1.351 . S
C474 C468 1.428 . S
C474 N473 1.351 . S
C474 C475 1.434 . S
C475 C466 1.429 . S
C475 N472 1.350 . S
C475 C474 1.434 . S
C476 C477 1.369 . S
C476 C478 1.419 1_554 S
C476 H480 0.930 . S
C477 C476 1.369 . S
C477 C486 1.429 1_554 S
C478 C476 1.419 1_556 S
C478 C479 1.363 . S
C478 H481 0.929 . S
C479 C478 1.363 . S
C479 C485 1.428 . S
H480 C476 0.930 . S
H481 C478 0.929 . S
S482 N483 1.613 . S
S482 N484 1.610 . S
N483 S482 1.613 . S
N483 C486 1.350 . S
N484 S482 1.610 . S
N484 C485 1.351 . S
C485 C479 1.428 . S
C485 N484 1.351 . S
C485 C486 1.434 . S
C486 C477 1.429 1_556 S
C486 N483 1.350 . S
C486 C485 1.434 . S
C487 C488 1.369 . S
C487 C489 1.419 . S
C487 H491 0.930 . S
C488 C487 1.369 . S
C488 C497 1.429 . S
C489 C487 1.419 . S
C489 C490 1.363 . S
C489 H492 0.929 . S
C490 C489 1.363 . S
C490 C496 1.428 . S
H491 C487 0.930 . S
H492 C489 0.929 . S
S493 N494 1.613 . S
S493 N495 1.610 . S
N494 S493 1.613 . S
N494 C497 1.350 . S
N495 S493 1.610 . S
N495 C496 1.351 . S
C496 C490 1.428 . S
C496 N495 1.351 . S
C496 C497 1.434 . S
C497 C488 1.429 . S
C497 N494 1.350 . S
C497 C496 1.434 . S
C498 C499 1.369 . S
C498 C500 1.419 . S
C498 H502 0.930 . S
C499 C498 1.369 . S
C499 C508 1.429 . S
C500 C498 1.419 . S
C500 C501 1.363 . S
C500 H503 0.929 . S
C501 C500 1.363 . S
C501 C507 1.428 . S
H502 C498 0.930 . S
H503 C500 0.929 . S
S504 N505 1.613 . S
S504 N506 1.610 . S
N505 S504 1.613 . S
N505 C508 1.350 . S
N506 S504 1.610 . S
N506 C507 1.351 . S
C507 C501 1.428 . S
C507 N506 1.351 . S
C507 C508 1.434 . S
C508 C499 1.429 . S
C508 N505 1.350 . S
C508 C507 1.434 . S
C509 C510 1.369 . S
C509 C511 1.419 . S
C509 H513 0.930 . S
C510 C509 1.369 . S
C510 C519 1.429 . S
C511 C509 1.419 . S
C511 C512 1.363 . S
C511 H514 0.929 . S
C512 C511 1.363 . S
C512 C518 1.428 . S
H513 C509 0.930 . S
H514 C511 0.929 . S
S515 N516 1.613 . S
S515 N517 1.610 . S
N516 S515 1.613 . S
N516 C519 1.350 . S
N517 S515 1.610 . S
N517 C518 1.351 . S
C518 C512 1.428 . S
C518 N517 1.351 . S
C518 C519 1.434 . S
C519 C510 1.429 . S
C519 N516 1.350 . S
C519 C518 1.434 . S
C520 C521 1.369 . S
C520 C522 1.419 . S
C520 H524 0.930 . S
C521 C520 1.369 . S
C521 C530 1.429 . S
C522 C520 1.419 . S
C522 C523 1.363 . S
C522 H525 0.929 . S
C523 C522 1.363 . S
C523 C529 1.428 . S
H524 C520 0.930 . S
H525 C522 0.929 . S
S526 N527 1.613 . S
S526 N528 1.610 . S
N527 S526 1.613 . S
N527 C530 1.350 . S
N528 S526 1.610 . S
N528 C529 1.351 . S
C529 C523 1.428 . S
C529 N528 1.351 . S
C529 C530 1.434 . S
C530 C521 1.429 . S
C530 N527 1.350 . S
C530 C529 1.434 . S
C531 C532 1.369 . S
C531 C533 1.419 . S
C531 H535 0.930 . S
C532 C531 1.369 . S
C532 C541 1.429 . S
C533 C531 1.419 . S
C533 C534 1.363 . S
C533 H536 0.929 . S
C534 C533 1.363 . S
C534 C540 1.428 . S
H535 C531 0.930 . S
H536 C533 0.929 . S
S537 N538 1.613 . S
S537 N539 1.610 . S
N538 S537 1.613 . S
N538 C541 1.350 . S
N539 S537 1.610 . S
N539 C540 1.351 . S
C540 C534 1.428 . S
C540 N539 1.351 . S
C540 C541 1.434 . S
C541 C532 1.429 . S
C541 N538 1.350 . S
C541 C540 1.434 . S
C542 C543 1.369 . S
C542 C544 1.419 . S
C542 H546 0.930 . S
C543 C542 1.369 . S
C543 C552 1.429 . S
C544 C542 1.419 . S
C544 C545 1.363 . S
C544 H547 0.929 . S
C545 C544 1.363 . S
C545 C551 1.428 . S
H546 C542 0.930 . S
H547 C544 0.929 . S
S548 N549 1.613 . S
S548 N550 1.610 . S
N549 S548 1.613 . S
N549 C552 1.350 . S
N550 S548 1.610 . S
N550 C551 1.351 . S
C551 C545 1.428 . S
C551 N550 1.351 . S
C551 C552 1.434 . S
C552 C543 1.429 . S
C552 N549 1.350 . S
C552 C551 1.434 . S
C553 C554 1.369 . S
C553 C555 1.419 1_556 S
C553 H557 0.930 1_556 S
C554 C553 1.369 . S
C554 C563 1.429 . S
C555 C553 1.419 1_554 S
C555 C556 1.363 . S
C555 H558 0.929 . S
C556 C555 1.363 . S
C556 C562 1.428 1_554 S
H557 C553 0.930 1_554 S
H558 C555 0.929 . S
S559 N560 1.613 . S
S559 N561 1.610 . S
N560 S559 1.613 . S
N560 C563 1.350 . S
N561 S559 1.610 . S
N561 C562 1.351 . S
C562 C556 1.428 1_556 S
C562 N561 1.351 . S
C562 C563 1.434 . S
C563 C554 1.429 . S
C563 N560 1.350 . S
C563 C562 1.434 . S
C564 C565 1.369 . S
C564 C566 1.419 . S
C564 H568 0.930 . S
C565 C564 1.369 . S
C565 C574 1.429 . S
C566 C564 1.419 . S
C566 C567 1.363 . S
C566 H569 0.929 . S
C567 C566 1.363 . S
C567 C573 1.428 . S
H568 C564 0.930 . S
H569 C566 0.929 . S
S570 N571 1.613 . S
S570 N572 1.610 . S
N571 S570 1.613 . S
N571 C574 1.350 . S
N572 S570 1.610 . S
N572 C573 1.351 . S
C573 C567 1.428 . S
C573 N572 1.351 . S
C573 C574 1.434 . S
C574 C565 1.429 . S
C574 N571 1.350 . S
C574 C573 1.434 . S
C575 C576 1.369 . S
C575 C577 1.419 . S
C575 H579 0.930 . S
C576 C575 1.369 . S
C576 C585 1.429 . S
C577 C575 1.419 . S
C577 C578 1.363 1_556 S
C577 H580 0.929 . S
C578 C577 1.363 1_554 S
C578 C584 1.428 . S
H579 C575 0.930 . S
H580 C577 0.929 . S
S581 N582 1.613 1_554 S
S581 N583 1.610 . S
N582 S581 1.613 1_556 S
N582 C585 1.350 . S
N583 S581 1.610 . S
N583 C584 1.351 . S
C584 C578 1.428 . S
C584 N583 1.351 . S
C584 C585 1.434 1_554 S
C585 C576 1.429 . S
C585 N582 1.350 . S
C585 C584 1.434 1_556 S
C586 C587 1.369 . S
C586 C588 1.419 . S
C586 H590 0.930 . S
C587 C586 1.369 . S
C587 C596 1.429 . S
C588 C586 1.419 . S
C588 C589 1.363 . S
C588 H591 0.929 . S
C589 C588 1.363 . S
C589 C595 1.428 . S
H590 C586 0.930 . S
H591 C588 0.929 . S
S592 N593 1.613 . S
S592 N594 1.610 . S
N593 S592 1.613 . S
N593 C596 1.350 . S
N594 S592 1.610 . S
N594 C595 1.351 . S
C595 C589 1.428 . S
C595 N594 1.351 . S
C595 C596 1.434 . S
C596 C587 1.429 . S
C596 N593 1.350 . S
C596 C595 1.434 . S
C597 C598 1.369 . S
C597 C599 1.419 . S
C597 H601 0.930 . S
C598 C597 1.369 . S
C598 C607 1.429 . S
C599 C597 1.419 . S
C599 C600 1.363 . S
C599 H602 0.929 . S
C600 C599 1.363 . S
C600 C606 1.428 . S
H601 C597 0.930 . S
H602 C599 0.929 . S
S603 N604 1.613 . S
S603 N605 1.610 . S
N604 S603 1.613 . S
N604 C607 1.350 . S
N605 S603 1.610 . S
N605 C606 1.351 . S
C606 C600 1.428 . S
C606 N605 1.351 . S
C606 C607 1.434 . S
C607 C598 1.429 . S
C607 N604 1.350 . S
C607 C606 1.434 . S
C608 C609 1.369 . S
C608 C610 1.419 . S
C608 H612 0.930 . S
C609 C608 1.369 . S
C609 C618 1.429 . S
C610 C608 1.419 . S
C610 C611 1.363 . S
C610 H613 0.929 . S
C611 C610 1.363 . S
C611 C617 1.428 . S
H612 C608 0.930 . S
H613 C610 0.929 . S
S614 N615 1.613 . S
S614 N616 1.610 . S
N615 S614 1.613 . S
N615 C618 1.350 . S
N616 S614 1.610 . S
N616 C617 1.351 . S
C617 C611 1.428 . S
C617 N616 1.351 . S
C617 C618 1.434 . S
C618 C609 1.429 . S
C618 N615 1.350 . S
C618 C617 1.434 . S
C619 C620 1.369 . S
C619 C621 1.419 . S
C619 H623 0.930 . S
C620 C619 1.369 . S
C620 C629 1.429 . S
C621 C619 1.419 . S
C621 C622 1.363 . S
C621 H624 0.929 . S
C622 C621 1.363 . S
C622 C628 1.428 . S
H623 C619 0.930 . S
H624 C621 0.929 . S
S625 N626 1.613 . S
S625 N627 1.610 . S
N626 S625 1.613 . S
N626 C629 1.350 . S
N627 S625 1.610 . S
N627 C628 1.351 . S
C628 C622 1.428 . S
C628 N627 1.351 . S
C628 C629 1.434 . S
C629 C620 1.429 . S
C629 N626 1.350 . S
C629 C628 1.434 . S
C630 C631 1.369 . S
C630 C632 1.419 1_545 S
C630 H634 0.930 1_554 S
C631 C630 1.369 . S
C631 C640 1.429 . S
C632 C630 1.419 1_565 S
C632 C633 1.363 . S
C632 H635 0.929 1_554 S
C633 C632 1.363 . S
C633 C639 1.428 . S
H634 C630 0.930 1_556 S
H635 C632 0.929 1_556 S
S636 N637 1.613 1_565 S
S636 N638 1.610 . S
N637 S636 1.613 1_545 S
N637 C640 1.350 . S
N638 S636 1.610 . S
N638 C639 1.351 . S
C639 C633 1.428 . S
C639 N638 1.351 . S
C639 C640 1.434 1_565 S
C640 C631 1.429 . S
C640 N637 1.350 . S
C640 C639 1.434 1_545 S
C641 C642 1.369 . S
C641 C643 1.419 . S
C641 H645 0.930 . S
C642 C641 1.369 . S
C642 C651 1.429 . S
C643 C641 1.419 . S
C643 C644 1.363 . S
C643 H646 0.929 . S
C644 C643 1.363 . S
C644 C650 1.428 . S
H645 C641 0.930 . S
H646 C643 0.929 . S
S647 N648 1.613 . S
S647 N649 1.610 . S
N648 S647 1.613 . S
N648 C651 1.350 . S
N649 S647 1.610 . S
N649 C650 1.351 . S
C650 C644 1.428 . S
C650 N649 1.351 . S
C650 C651 1.434 . S
C651 C642 1.429 . S
C651 N648 1.350 . S
C651 C650 1.434 . S
C652 C653 1.369 . S
C652 C654 1.419 1_455 S
C652 H656 0.930 . S
C653 C652 1.369 . S
C653 C662 1.429 . S
C654 C652 1.419 1_655 S
C654 C655 1.363 . S
C654 H657 0.929 . S
C655 C654 1.363 . S
C655 C661 1.428 . S
H656 C652 0.930 . S
H657 C654 0.929 . S
S658 N659 1.613 1_655 S
S658 N660 1.610 . S
N659 S658 1.613 1_455 S
N659 C662 1.350 . S
N660 S658 1.610 . S
N660 C661 1.351 . S
C661 C655 1.428 . S
C661 N660 1.351 . S
C661 C662 1.434 1_655 S
C662 C653 1.429 . S
C662 N659 1.350 . S
C662 C661 1.434 1_455 S
C663 C664 1.369 . S
C663 C665 1.419 1_565 S
C663 H667 0.930 . S
C664 C663 1.369 . S
C664 C673 1.429 . S
C665 C663 1.419 1_545 S
C665 C666 1.363 . S
C665 H668 0.929 . S
C666 C665 1.363 . S
C666 C672 1.428 . S
H667 C663 0.930 . S
H668 C665 0.929 . S
S669 N670 1.613 . S
S669 N671 1.610 1_565 S
N670 S669 1.613 . S
N670 C673 1.350 . S
N671 S669 1.610 1_545 S
N671 C672 1.351 . S
C672 C666 1.428 . S
C672 N671 1.351 . S
C672 C673 1.434 1_545 S
C673 C664 1.429 . S
C673 N670 1.350 . S
C673 C672 1.434 1_565 S
C674 C675 1.369 . S
C674 C676 1.419 . S
C674 H678 0.930 . S
C675 C674 1.369 . S
C675 C684 1.429 . S
C676 C674 1.419 . S
C676 C677 1.363 . S
C676 H679 0.929 . S
C677 C676 1.363 . S
C677 C683 1.428 . S
H678 C674 0.930 . S
H679 C676 0.929 . S
S680 N681 1.613 . S
S680 N682 1.610 . S
N681 S680 1.613 . S
N681 C684 1.350 . S
N682 S680 1.610 . S
N682 C683 1.351 . S
C683 C677 1.428 . S
C683 N682 1.351 . S
C683 C684 1.434 . S
C684 C675 1.429 . S
C684 N681 1.350 . S
C684 C683 1.434 . S
C685 C686 1.369 . S
C685 C687 1.419 1_455 S
C685 H689 0.930 . S
C686 C685 1.369 . S
C686 C695 1.429 . S
C687 C685 1.419 1_655 S
C687 C688 1.363 . S
C687 H690 0.929 . S
C688 C687 1.363 . S
C688 C694 1.428 . S
H689 C685 0.930 . S
H690 C687 0.929 . S
S691 N692 1.615 . S
S691 N693 1.607 1_455 S
N692 S691 1.615 . S
N692 C695 1.350 . S
N693 S691 1.607 1_655 S
N693 C694 1.351 . S
C694 C688 1.428 . S
C694 N693 1.351 . S
C694 C695 1.434 1_655 S
C695 C686 1.429 . S
C695 N692 1.350 . S
C695 C694 1.434 1_455 S
C433 C2 1.294 . S
C435 C362 1.295 . S
C444 C38 1.290 . S
C446 C398 1.295 . S
C455 C218 1.290 . S
C457 C74 1.294 . S
C466 C110 1.295 . S
C468 C254 1.295 . S
C477 C290 1.292 . S
C479 C146 1.296 . S
C488 C326 1.293 . S
C490 C182 1.292 . S
C499 C291 1.380 . S
C501 C3 1.377 . S
C510 C39 1.380 . S
C512 C327 1.375 . S
C521 C363 1.375 . S
C523 C75 1.380 . S
C532 C111 1.375 . S
C534 C399 1.379 . S
C543 C147 1.376 . S
C545 C219 1.377 . S
C554 C183 1.380 . S
C556 C255 1.376 . S
C565 C374 1.455 . S
C567 C14 1.456 . S
C576 C410 1.465 . S
C578 C50 1.460 . S
C587 C230 1.459 . S
C589 C86 1.464 . S
C598 C122 1.459 . S
C600 C266 1.464 . S
C609 C158 1.462 . S
C611 C302 1.457 . S
C620 C338 1.458 . S
C622 C194 1.463 . S
C631 C4 1.369 . S
C633 C256 1.370 . S
C642 C292 1.368 . S
C644 C40 1.369 . S
C653 C328 1.369 . S
C655 C76 1.370 . S
C664 C112 1.371 . S
C666 C364 1.369 . S
C675 C148 1.365 . S
C677 C400 1.365 . S
C686 C184 1.365 . S
C688 C220 1.365 . S
