# Generated by pormake.
# Topology wfy, (7)-cn, num edge types: 1
# Building blocks:
#     Node 0, Type 0, BuildingBlock: HICVOG_clean_sbu_0, # of connection points: 7
#     Node 1, Type 0, BuildingBlock: HICVOG_clean_sbu_0, # of connection points: 7
#     Node 2, Type 0, BuildingBlock: HICVOG_clean_sbu_0, # of connection points: 7
#     Node 3, Type 0, BuildingBlock: HICVOG_clean_sbu_0, # of connection points: 7
#     Node 4, Type 0, BuildingBlock: HICVOG_clean_sbu_0, # of connection points: 7
#     Node 5, Type 0, BuildingBlock: HICVOG_clean_sbu_0, # of connection points: 7
#     Node 6, Type 0, BuildingBlock: HICVOG_clean_sbu_0, # of connection points: 7
#     Node 7, Type 0, BuildingBlock: HICVOG_clean_sbu_0, # of connection points: 7
#     Edge 8, Type (0, 0), BuildingBlock: ZUJKAS_clean_linker_0, # of connection points: 2
#     Edge 9, Type (0, 0), BuildingBlock: ZUJKAS_clean_linker_0, # of connection points: 2
#     Edge 10, Type (0, 0), BuildingBlock: ZUJKAS_clean_linker_0, # of connection points: 2
#     Edge 11, Type (0, 0), BuildingBlock: ZUJKAS_clean_linker_0, # of connection points: 2
#     Edge 12, Type (0, 0), BuildingBlock: ZUJKAS_clean_linker_0, # of connection points: 2
#     Edge 13, Type (0, 0), BuildingBlock: ZUJKAS_clean_linker_0, # of connection points: 2
#     Edge 14, Type (0, 0), BuildingBlock: ZUJKAS_clean_linker_0, # of connection points: 2
#     Edge 15, Type (0, 0), BuildingBlock: ZUJKAS_clean_linker_0, # of connection points: 2
#     Edge 16, Type (0, 0), BuildingBlock: ZUJKAS_clean_linker_0, # of connection points: 2
#     Edge 17, Type (0, 0), BuildingBlock: ZUJKAS_clean_linker_0, # of connection points: 2
#     Edge 18, Type (0, 0), BuildingBlock: ZUJKAS_clean_linker_0, # of connection points: 2
#     Edge 19, Type (0, 0), BuildingBlock: ZUJKAS_clean_linker_0, # of connection points: 2
#     Edge 20, Type (0, 0), BuildingBlock: ZUJKAS_clean_linker_0, # of connection points: 2
#     Edge 21, Type (0, 0), BuildingBlock: ZUJKAS_clean_linker_0, # of connection points: 2
#     Edge 22, Type (0, 0), BuildingBlock: ZUJKAS_clean_linker_0, # of connection points: 2
#     Edge 23, Type (0, 0), BuildingBlock: ZUJKAS_clean_linker_0, # of connection points: 2
#     Edge 24, Type (0, 0), BuildingBlock: ZUJKAS_clean_linker_0, # of connection points: 2
#     Edge 25, Type (0, 0), BuildingBlock: ZUJKAS_clean_linker_0, # of connection points: 2
#     Edge 26, Type (0, 0), BuildingBlock: ZUJKAS_clean_linker_0, # of connection points: 2
#     Edge 27, Type (0, 0), BuildingBlock: ZUJKAS_clean_linker_0, # of connection points: 2
#     Edge 28, Type (0, 0), BuildingBlock: ZUJKAS_clean_linker_0, # of connection points: 2
#     Edge 29, Type (0, 0), BuildingBlock: ZUJKAS_clean_linker_0, # of connection points: 2
#     Edge 30, Type (0, 0), BuildingBlock: ZUJKAS_clean_linker_0, # of connection points: 2
#     Edge 31, Type (0, 0), BuildingBlock: ZUJKAS_clean_linker_0, # of connection points: 2
#     Edge 32, Type (0, 0), BuildingBlock: ZUJKAS_clean_linker_0, # of connection points: 2
#     Edge 33, Type (0, 0), BuildingBlock: ZUJKAS_clean_linker_0, # of connection points: 2
#     Edge 34, Type (0, 0), BuildingBlock: ZUJKAS_clean_linker_0, # of connection points: 2
#     Edge 35, Type (0, 0), BuildingBlock: ZUJKAS_clean_linker_0, # of connection points: 2
# Relax obj value: 0.128
# Max RMSD: 0.241
# Mean RMSD: 0.241
data_MOF--net-wfy--node1-HICVOG_clean_sbu_0--edge1-ZUJKAS_clean_linker_0
_symmetry_space_group_name_H-M    P1
_symmetry_Int_Tables_number       1
_symmetry_cell_setting            triclinic
loop_
_symmetry_equiv_pos_as_xyz
'x, y, z'
_cell_length_a     48.491559
_cell_length_b     48.499366
_cell_length_c     31.162267
_cell_angle_alpha  89.949286
_cell_angle_beta   89.944227
_cell_angle_gamma 89.871618
loop_
_atom_site_label
_atom_site_type_symbol
_atom_site_fract_x
_atom_site_fract_y
_atom_site_fract_z
_atom_type_partial_charge
Zn0 Zn 0.32427 0.0942 0.07486 0.0
C1 C 0.30302 0.17216 0.06192 0.0
N2 N 0.32856 0.17569 0.07799 0.0
C3 C 0.33989 0.15054 0.07436 0.0
N4 N 0.32201 0.13223 0.05816 0.0
N5 N 0.29892 0.14573 0.04947 0.0
C6 C 0.21584 0.14422 0.03278 0.0
O7 O 0.21944 0.121 0.05379 0.0
O8 O 0.3628 0.07839 0.06808 0.0
Zn9 Zn 0.27192 0.13235 1.00816 0.0
N10 N 0.31618 0.0935 0.13543 0.0
C11 C 0.29101 0.11109 0.19493 0.0
C12 C 0.29621 0.11046 0.15098 0.0
C13 C 0.3309 0.07674 0.16188 0.0
N14 N 0.30559 0.09427 0.22141 0.0
C15 C 0.32535 0.07681 0.20619 0.0
O16 O 0.26292 0.09093 0.01273 0.0
C17 C 0.27426 0.06878 0.02629 0.0
O18 O 0.29682 0.06917 0.04707 0.0
H19 H 0.2847 0.12359 0.12947 0.0
H20 H 0.34687 0.06379 0.14839 0.0
C21 C 0.28423 0.15805 0.92388 0.0
C22 C 0.29978 0.15964 0.8855 0.0
C23 C 0.32405 0.11908 0.90615 0.0
C24 C 0.30877 0.11768 0.94384 0.0
N25 N 0.28923 0.13706 0.95214 0.0
N26 N 0.31928 0.13993 0.87814 0.0
H27 H 0.26896 0.17354 0.93175 0.0
C28 C 0.37701 0.07701 0.03386 0.0
O29 O 0.36684 0.08712 0.99808 0.0
O30 O 0.23589 0.154 0.01118 0.0
H31 H 0.31266 0.10141 0.96681 0.0
H32 H 0.2754 0.1247 0.20791 0.0
H33 H 0.33976 0.10382 0.89931 0.0
Zn34 Zn 0.13576 0.74459 1.00826 0.0
C35 C 0.14651 0.67611 0.93936 0.0
N36 N 0.17213 0.68552 0.93239 0.0
C37 C 0.17122 0.7111 0.94929 0.0
N38 N 0.14607 0.71688 0.96596 0.0
N39 N 0.13055 0.69496 0.95895 0.0
C40 C 0.08372 0.63446 0.98586 0.0
O41 O 0.10463 0.63733 0.01226 0.0
O42 O 0.15894 0.77956 1.00369 0.0
Zn43 Zn 0.09096 0.69403 0.9621 0.0
N44 N 0.14182 0.72697 0.06404 0.0
C45 C 0.13085 0.68781 0.10682 0.0
C46 C 0.12831 0.70264 0.06888 0.0
C47 C 0.1585 0.73687 0.09582 0.0
N48 N 0.14718 0.69765 0.1385 0.0
C49 C 0.16135 0.72173 0.13445 0.0
O50 O 0.07308 0.71588 0.00975 0.0
C51 C 0.07294 0.74205 0.01237 0.0
O52 O 0.0948 0.75605 1.00561 0.0
H53 H 0.11572 0.69468 0.04325 0.0
H54 H 0.16907 0.75625 0.09115 0.0
C55 C 0.06168 0.6956 0.88317 0.0
C56 C 0.05362 0.70666 0.84341 0.0
C57 C 0.07914 0.74723 0.85917 0.0
C58 C 0.08721 0.73598 0.89834 0.0
N59 N 0.0783 0.71043 0.90947 0.0
N60 N 0.06269 0.73234 0.83269 0.0
H61 H 0.05593 0.67501 0.89273 0.0
C62 C 0.14965 0.80009 0.98262 0.0
O63 O 0.1261 0.79752 0.96222 0.0
O64 O 0.0758 0.65497 0.96356 0.0
H65 H 0.10077 0.74729 0.91945 0.0
H66 H 0.12006 0.6685 0.11102 0.0
H67 H 0.08608 0.76752 0.84968 0.0
Zn68 Zn 0.69528 0.9221 0.05917 0.0
C69 C 0.71369 0.84163 0.05245 0.0
N70 N 0.68731 0.83852 0.0652 0.0
C71 C 0.6774 0.86438 0.06421 0.0
N72 N 0.69679 0.8826 0.05191 0.0
N73 N 0.71945 0.86832 0.04362 0.0
C74 C 0.80108 0.86358 0.03535 0.0
O75 O 0.79604 0.88254 0.06443 0.0
O76 O 0.65576 0.93613 0.05702 0.0
Zn77 Zn 0.74761 0.88158 1.00425 0.0
N78 N 0.70963 0.92958 0.11573 0.0
C79 C 0.7413 0.91846 0.17133 0.0
C80 C 0.73189 0.915 0.12946 0.0
C81 C 0.69674 0.94805 0.14177 0.0
N82 N 0.72812 0.93647 0.19768 0.0
C83 C 0.70606 0.95156 0.18408 0.0
O84 O 0.75823 0.92229 0.01211 0.0
C85 C 0.74431 0.94469 0.01175 0.0
O86 O 0.71851 0.94501 0.01929 0.0
H87 H 0.74197 0.90055 0.10822 0.0
H88 H 0.67883 0.95904 0.13001 0.0
C89 C 0.73993 0.86096 0.91565 0.0
C90 C 0.72535 0.85989 0.87631 0.0
C91 C 0.69412 0.89365 0.90314 0.0
C92 C 0.70837 0.89438 0.94176 0.0
N93 N 0.73106 0.87833 0.94734 0.0
N94 N 0.70288 0.87654 0.87159 0.0
H95 H 0.75806 0.84844 0.9211 0.0
C96 C 0.6446 0.94672 0.02397 0.0
O97 O 0.65889 0.94828 0.98821 0.0
O98 O 0.78298 0.85877 1.00674 0.0
H99 H 0.70122 0.90751 0.96742 0.0
H100 H 0.75883 0.90681 0.18292 0.0
H101 H 0.67607 0.90643 0.89831 0.0
Zn102 Zn 0.92301 0.32062 0.94522 0.0
C103 C 0.84414 0.30111 0.96055 0.0
N104 N 0.84032 0.32711 0.94634 0.0
C105 C 0.86584 0.33771 0.94717 0.0
N106 N 0.88457 0.31905 0.96029 0.0
N107 N 0.87098 0.29623 0.96982 0.0
C108 C 0.87291 0.21179 0.02379 0.0
O109 O 0.89726 0.21314 0.04207 0.0
O110 O 0.93897 0.35926 0.94932 0.0
Zn111 Zn 0.88433 0.2694 0.01147 0.0
N112 N 0.92528 0.30973 0.88595 0.0
C113 C 0.90911 0.28277 0.82759 0.0
C114 C 0.90839 0.28962 0.87096 0.0
C115 C 0.94326 0.32295 0.85965 0.0
N116 N 0.92693 0.2961 0.80116 0.0
C117 C 0.94414 0.31618 0.81578 0.0
O118 O 0.92555 0.25973 1.00731 0.0
C119 C 0.94794 0.27148 0.99598 0.0
O120 O 0.9479 0.29438 0.97608 0.0
H121 H 0.89429 0.27926 0.89242 0.0
H122 H 0.95688 0.33817 0.87333 0.0
C123 C 0.86014 0.28126 0.09673 0.0
C124 C 0.8581 0.29761 0.13416 0.0
C125 C 0.89563 0.32479 0.10937 0.0
C126 C 0.89747 0.30872 0.07256 0.0
N127 N 0.87978 0.28738 0.06678 0.0
N128 N 0.87603 0.31895 0.13904 0.0
H129 H 0.84594 0.26451 0.09086 0.0
C130 C 0.933 0.37807 0.9762 0.0
O131 O 0.91439 0.37324 1.00592 0.0
O132 O 0.86225 0.23377 1.00876 0.0
H133 H 0.91267 0.31345 0.04823 0.0
H134 H 0.89568 0.26695 0.81501 0.0
H135 H 0.9095 0.34194 0.11421 0.0
Zn136 Zn 0.82321 0.59295 0.55625 0.0
C137 C 0.8058 0.67354 0.55134 0.0
N138 N 0.83217 0.67606 0.56438 0.0
C139 C 0.84176 0.6501 0.56224 0.0
N140 N 0.8222 0.63241 0.54928 0.0
N141 N 0.79976 0.64705 0.5415 0.0
C142 C 0.71897 0.6544 0.53178 0.0
O143 O 0.72369 0.63767 0.56414 0.0
O144 O 0.86262 0.57839 0.55701 0.0
Zn145 Zn 0.77202 0.63364 0.50199 0.0
N146 N 0.80717 0.58538 0.61163 0.0
C147 C 0.77241 0.59442 0.66356 0.0
C148 C 0.7837 0.59885 0.62304 0.0
C149 C 0.81974 0.56742 0.63885 0.0
N150 N 0.78507 0.5767 0.69097 0.0
C151 C 0.80864 0.56304 0.68 0.0
O152 O 0.76091 0.59319 0.51151 0.0
C153 C 0.77491 0.5709 0.50916 0.0
O154 O 0.80095 0.57068 0.5142 0.0
H155 H 0.77392 0.61291 0.60084 0.0
H156 H 0.83803 0.55667 0.62812 0.0
C157 C 0.78029 0.65327 0.41343 0.0
C158 C 0.79493 0.65422 0.37415 0.0
C159 C 0.82625 0.62075 0.40137 0.0
C160 C 0.81201 0.62022 0.44008 0.0
N161 N 0.78916 0.63612 0.44537 0.0
N162 N 0.81744 0.63763 0.36955 0.0
H163 H 0.76213 0.66581 0.41865 0.0
C164 C 0.88073 0.58286 0.52829 0.0
O165 O 0.8742 0.59801 0.49483 0.0
O166 O 0.73698 0.65669 0.50227 0.0
H167 H 0.81934 0.60744 0.46598 0.0
H168 H 0.75374 0.60498 0.6732 0.0
H169 H 0.84439 0.60806 0.39677 0.0
Zn170 Zn 0.63752 0.24535 0.51655 0.0
C171 C 0.66028 0.17845 0.45016 0.0
N172 N 0.68452 0.19148 0.44634 0.0
C173 C 0.67931 0.21656 0.46292 0.0
N174 N 0.65276 0.21875 0.47608 0.0
N175 N 0.64082 0.19486 0.46739 0.0
C176 C 0.5617 0.14936 0.47687 0.0
O177 O 0.54539 0.17084 0.47248 0.0
O178 O 0.65911 0.28123 0.51704 0.0
Zn179 Zn 0.60247 0.18989 0.45312 0.0
N180 N 0.63955 0.2279 0.57269 0.0
C181 C 0.61982 0.19391 0.6183 0.0
C182 C 0.61983 0.20861 0.57996 0.0
C183 C 0.65952 0.23313 0.60244 0.0
N184 N 0.63964 0.19899 0.64789 0.0
C185 C 0.65967 0.21822 0.64148 0.0
O186 O 0.57705 0.22009 0.47341 0.0
C187 C 0.57564 0.24352 0.4916 0.0
O188 O 0.59699 0.25517 0.50702 0.0
H189 H 0.60439 0.2045 0.55579 0.0
H190 H 0.67531 0.24815 0.59521 0.0
C191 C 0.58115 0.17634 0.37006 0.0
C192 C 0.57936 0.178 0.32505 0.0
C193 C 0.61827 0.20776 0.3248 0.0
C194 C 0.61919 0.20682 0.36943 0.0
N195 N 0.60079 0.19096 0.39114 0.0
N196 N 0.59833 0.19358 0.30378 0.0
H197 H 0.56714 0.16374 0.38844 0.0
C198 C 0.65327 0.29992 0.4898 0.0
O199 O 0.63403 0.29518 0.46111 0.0
O200 O 0.58757 0.15258 0.47202 0.0
H201 H 0.63458 0.2185 0.38661 0.0
H202 H 0.60427 0.17844 0.62443 0.0
H203 H 0.63298 0.22002 0.30701 0.0
Zn204 Zn 0.19479 0.42068 0.56588 0.0
C205 C 0.22074 0.34317 0.56321 0.0
N206 N 0.19552 0.33917 0.58015 0.0
C207 C 0.18304 0.36356 0.57405 0.0
N208 N 0.1999 0.38193 0.55547 0.0
N209 N 0.2236 0.36919 0.54799 0.0
C210 C 0.30624 0.36873 0.52941 0.0
O211 O 0.30334 0.39137 0.55212 0.0
O212 O 0.15591 0.43382 0.55094 0.0
Zn213 Zn 0.2502 0.38246 0.50615 0.0
N214 N 0.19918 0.42498 0.62722 0.0
C215 C 0.22197 0.41125 0.69126 0.0
C216 C 0.2188 0.40951 0.64698 0.0
C217 C 0.18286 0.44259 0.64988 0.0
N218 N 0.20572 0.42881 0.71389 0.0
C219 C 0.18611 0.44476 0.69467 0.0
O220 O 0.25979 0.42355 0.51146 0.0
C221 C 0.24707 0.44568 0.52165 0.0
O222 O 0.22329 0.4453 0.53898 0.0
H223 H 0.23169 0.39572 0.62848 0.0
H224 H 0.16807 0.45505 0.63281 0.0
C225 C 0.23784 0.35805 0.42137 0.0
C226 C 0.22224 0.35668 0.38306 0.0
C227 C 0.19679 0.39608 0.40565 0.0
C228 C 0.21211 0.39725 0.44327 0.0
N229 N 0.2323 0.37837 0.45053 0.0
N230 N 0.20214 0.37592 0.37671 0.0
H231 H 0.25361 0.34293 0.42851 0.0
C232 C 0.15156 0.45962 0.54724 0.0
O233 O 0.17259 0.47652 0.55018 0.0
O234 O 0.28585 0.36013 0.50749 0.0
H235 H 0.20774 0.41294 0.46696 0.0
H236 H 0.23734 0.39889 0.70754 0.0
H237 H 0.1806 0.41096 0.39957 0.0
Zn238 Zn 0.38459 0.77136 0.50567 0.0
C239 C 0.36548 0.84383 0.45483 0.0
N240 N 0.33987 0.83355 0.45207 0.0
C241 C 0.34353 0.80668 0.46183 0.0
N242 N 0.37036 0.80098 0.46996 0.0
N243 N 0.38406 0.82425 0.46447 0.0
C244 C 0.43636 0.88005 0.48817 0.0
O245 O 0.42448 0.87023 0.52286 0.0
O246 O 0.36256 0.73579 0.49954 0.0
Zn247 Zn 0.42187 0.82691 0.4467 0.0
N248 N 0.38172 0.78529 0.56417 0.0
C249 C 0.40178 0.81623 0.61435 0.0
C250 C 0.40204 0.80332 0.57457 0.0
C251 C 0.36081 0.77964 0.59224 0.0
N252 N 0.38102 0.81081 0.64222 0.0
C253 C 0.36033 0.79288 0.6327 0.0
O254 O 0.44786 0.79982 0.47362 0.0
C255 C 0.44798 0.77538 0.48845 0.0
O256 O 0.42575 0.76238 0.49689 0.0
H257 H 0.41811 0.808 0.55168 0.0
H258 H 0.34451 0.76577 0.58264 0.0
C259 C 0.44103 0.83296 0.36048 0.0
C260 C 0.44084 0.82858 0.31578 0.0
C261 C 0.40336 0.79751 0.32467 0.0
C262 C 0.40379 0.80189 0.36879 0.0
N263 N 0.42244 0.81966 0.38575 0.0
N264 N 0.42183 0.81083 0.29937 0.0
H265 H 0.45595 0.8463 0.37557 0.0
C266 C 0.37453 0.71342 0.51027 0.0
O267 O 0.39981 0.71458 0.52526 0.0
O268 O 0.43702 0.86544 0.45435 0.0
H269 H 0.38926 0.79141 0.3893 0.0
H270 H 0.4178 0.83069 0.62292 0.0
H271 H 0.38854 0.78355 0.3106 0.0
H272 H 0.34568 0.0247 0.19022 0.0
H273 H 0.36339 0.99174 0.24238 0.0
H274 H 0.35404 0.05195 0.34307 0.0
H275 H 0.3362 0.08531 0.29096 0.0
H276 H 0.40737 0.99163 0.30415 0.0
H277 H 0.303 0.98835 0.37909 0.0
H278 H 0.30909 1.00449 0.32781 0.0
H279 H 0.31929 0.02155 0.37638 0.0
C280 C 0.34805 0.03135 0.22315 0.0
C281 C 0.33946 0.05776 0.23637 0.0
C282 C 0.35812 0.01236 0.25301 0.0
C283 C 0.35971 0.01931 0.2966 0.0
C284 C 0.35259 0.04607 0.30962 0.0
H285 H 0.36578 0.89269 0.49699 0.0
H286 H 0.37136 0.93876 0.46506 0.0
C287 C 0.34239 0.06507 0.27981 0.0
C288 C 0.36619 0.99761 0.32849 0.0
H289 H 0.33582 0.95709 0.40444 0.0
C290 C 0.39191 0.9843 0.32658 0.0
C291 C 0.34601 0.98819 0.35782 0.0
C292 C 0.31771 1.00117 0.36042 0.0
C293 C 0.39759 0.96112 0.35218 0.0
C294 C 0.37684 0.95084 0.37977 0.0
C295 C 0.35173 0.96508 0.38336 0.0
C296 C 0.37899 0.92352 0.40083 0.0
C297 C 0.42551 0.94754 0.34879 0.0
C298 C 0.38174 0.89977 0.37543 0.0
C299 C 0.37845 0.87368 0.39356 0.0
C300 C 0.37259 0.87094 0.43737 0.0
C301 C 0.37065 0.89451 0.46317 0.0
C302 C 0.3739 0.92069 0.44502 0.0
H303 H 0.44166 0.96277 0.34005 0.0
H304 H 0.43142 0.93738 0.37934 0.0
H305 H 0.42493 0.93166 0.32319 0.0
H306 H 0.38475 0.90142 0.34108 0.0
H307 H 0.37909 0.85576 0.37294 0.0
H308 H 0.04913 0.71458 0.75708 0.0
H309 H 0.01726 0.69242 0.70737 0.0
H310 H 0.98672 0.64101 0.80969 0.0
H311 H 0.01724 0.66373 0.86011 0.0
H312 H 1.00643 0.63616 0.68243 0.0
H313 H 0.91925 0.68541 0.77034 0.0
H314 H 0.95464 0.69522 0.77907 0.0
H315 H 0.94145 0.66395 0.8022 0.0
C316 C 0.03574 0.69849 0.76914 0.0
C317 C 0.0359 0.69117 0.81287 0.0
C318 C 0.01776 0.68564 0.7405 0.0
C319 C 0.99957 0.66525 0.75499 0.0
C320 C 1.00053 0.65687 0.798 0.0
H321 H 0.84773 0.6174 0.6317 0.0
H322 H 0.88907 0.6114 0.67531 0.0
C323 C 0.01831 0.66984 0.82679 0.0
C324 C 0.97764 0.65507 0.72623 0.0
H325 H 0.90824 0.65876 0.7104 0.0
C326 C 0.9849 0.6408 0.68863 0.0
C327 C 0.94962 0.66122 0.73451 0.0
C328 C 0.94067 0.67747 0.77349 0.0
C329 C 0.96475 0.63289 0.65868 0.0
C330 C 0.93689 0.63983 0.66648 0.0
C331 C 0.92963 0.65326 0.70472 0.0
C332 C 0.91498 0.63625 0.63404 0.0
C333 C 0.97338 0.61742 0.61889 0.0
C334 C 0.91607 0.65137 0.59562 0.0
C335 C 0.89246 0.65432 0.57033 0.0
C336 C 0.86763 0.64205 0.58305 0.0
C337 C 0.86694 0.62582 0.62024 0.0
C338 C 0.8905 0.62268 0.64535 0.0
H339 H 0.99325 0.60641 0.62377 0.0
H340 H 0.95742 0.60226 0.6092 0.0
H341 H 0.97617 0.63227 0.59214 0.0
H342 H 0.93449 0.66265 0.58691 0.0
H343 H 0.89319 0.66741 0.54216 0.0
H344 H 0.63861 0.13021 0.48029 0.0
H345 H 0.63536 0.08624 0.44083 0.0
H346 H 0.66677 0.12611 0.32719 0.0
H347 H 0.67038 0.16962 0.3664 0.0
H348 H 0.61522 0.08167 0.32444 0.0
H349 H 0.71631 0.05253 0.39716 0.0
H350 H 0.68958 0.06822 0.42931 0.0
H351 H 0.70728 0.08835 0.38975 0.0
C352 C 0.64404 0.12959 0.44659 0.0
C353 C 0.65449 0.15311 0.42608 0.0
C354 C 0.64223 0.10461 0.4242 0.0
C355 C 0.65068 0.10315 0.38116 0.0
C356 C 0.65995 0.12697 0.36029 0.0
H357 H 0.68375 1.00237 0.16633 0.0
H358 H 0.66541 0.03574 0.21748 0.0
C359 C 0.66211 0.1517 0.3827 0.0
C360 C 0.65331 0.07646 0.35889 0.0
H361 H 0.7006 0.02594 0.33953 0.0
C362 C 0.63357 0.06906 0.32819 0.0
C363 C 0.67723 0.06017 0.36413 0.0
C364 C 0.69895 0.06752 0.39681 0.0
C365 C 0.63767 0.04613 0.30137 0.0
C366 C 0.66254 0.03088 0.30461 0.0
C367 C 0.68157 0.03761 0.33689 0.0
C368 C 0.6705 0.00935 0.27306 0.0
C369 C 0.61543 0.03871 0.26964 0.0
C370 C 0.68001 0.98353 0.28719 0.0
C371 C 0.69103 0.96459 0.25805 0.0
C372 C 0.69251 0.97098 0.21412 0.0
C373 C 0.68234 0.99655 0.19982 0.0
C374 C 0.67167 0.01563 0.22907 0.0
H375 H 0.59477 0.04502 0.2816 0.0
H376 H 0.61918 0.04986 0.23908 0.0
H377 H 0.61517 0.01623 0.26296 0.0
H378 H 0.67953 0.97828 0.32099 0.0
H379 H 0.69865 0.94502 0.26997 0.0
H380 H 0.96353 0.29466 0.74095 0.0
H381 H 1.00085 0.31199 0.69612 0.0
H382 H 1.00845 0.38343 0.77735 0.0
H383 H 0.97024 0.36708 0.82144 0.0
H384 H 0.01721 0.39388 0.68627 0.0
H385 H 0.07868 0.30625 0.75009 0.0
H386 H 0.04691 0.29614 0.72515 0.0
H387 H 0.04616 0.3166 0.77324 0.0
C388 C 0.9727 0.31432 0.74903 0.0
C389 C 0.96445 0.32885 0.78594 0.0
C390 C 0.99409 0.32415 0.72333 0.0
C391 C 1.00776 0.34862 0.7341 0.0
C392 C 0.99832 0.36431 0.76888 0.0
H393 H 0.17717 0.36775 0.65954 0.0
H394 H 0.13413 0.37193 0.69972 0.0
C395 C 0.97674 0.3546 0.79452 0.0
C396 C 0.03367 0.35602 0.71197 0.0
H397 H 0.09854 0.33185 0.69353 0.0
C398 C 0.03513 0.3805 0.68794 0.0
C399 C 0.05709 0.33877 0.71506 0.0
C400 C 0.05733 0.31311 0.74259 0.0
C401 C 0.05937 0.38773 0.66577 0.0
C402 C 0.08237 0.36976 0.66742 0.0
C403 C 0.08091 0.34564 0.69223 0.0
C404 C 0.10822 0.3747 0.64328 0.0
C405 C 0.0602 0.41451 0.64118 0.0
C406 C 0.1081 0.37612 0.59821 0.0
C407 C 0.13288 0.37452 0.57526 0.0
C408 C 0.15785 0.37099 0.59721 0.0
C409 C 0.15809 0.37086 0.64213 0.0
C410 C 0.13353 0.37316 0.66501 0.0
H411 H 0.0448 0.42949 0.65366 0.0
H412 H 0.08099 0.42404 0.64261 0.0
H413 H 0.05521 0.41042 0.60704 0.0
H414 H 0.08884 0.37666 0.58069 0.0
H415 H 0.1324 0.37428 0.54051 0.0
H416 H 0.86336 0.54697 0.68788 0.0
H417 H 0.88194 0.51127 0.73531 0.0
H418 H 0.80146 0.49991 0.79129 0.0
H419 H 0.78241 0.53485 0.74335 0.0
H420 H 0.87996 0.50407 0.83062 0.0
H421 H 0.82434 0.42384 0.73799 0.0
H422 H 0.83016 0.45815 0.71742 0.0
H423 H 0.80296 0.45199 0.75545 0.0
C424 C 0.84947 0.53674 0.70992 0.0
C425 C 0.82112 0.54324 0.71082 0.0
C426 C 0.86028 0.51663 0.73745 0.0
C427 C 0.84297 0.5028 0.7663 0.0
C428 C 0.81507 0.51022 0.76886 0.0
H429 H 0.857 0.38998 0.97469 0.0
H430 H 0.85858 0.43199 0.93082 0.0
C431 C 0.80424 0.53023 0.74143 0.0
C432 C 0.85326 0.47909 0.79151 0.0
H433 H 0.84293 0.41024 0.80512 0.0
C434 C 0.87218 0.48345 0.82491 0.0
C435 C 0.84347 0.45221 0.78331 0.0
C436 C 0.82431 0.44611 0.74635 0.0
C437 C 0.8806 0.4616 0.85167 0.0
C438 C 0.86944 0.43502 0.84494 0.0
C439 C 0.85143 0.43063 0.81039 0.0
C440 C 0.87461 0.41151 0.87425 0.0
C441 C 0.90124 0.46709 0.88682 0.0
C442 C 0.88321 0.38613 0.85721 0.0
C443 C 0.88171 0.36222 0.88193 0.0
C444 C 0.87243 0.36336 0.92445 0.0
C445 C 0.86497 0.38885 0.94225 0.0
C446 C 0.86612 0.41283 0.91733 0.0
H447 H 0.91396 0.48555 0.87957 0.0
H448 H 0.89008 0.47101 0.91732 0.0
H449 H 0.91514 0.44912 0.89173 0.0
H450 H 0.88927 0.38451 0.82382 0.0
H451 H 0.88574 0.34268 0.86667 0.0
H452 H 0.57899 0.16446 0.24004 0.0
H453 H 0.53939 0.15065 0.19659 0.0
H454 H 0.48858 0.14821 0.31 0.0
H455 H 0.5273 0.16292 0.35346 0.0
H456 H 0.49833 0.10534 0.20028 0.0
H457 H 0.4557 0.20987 0.23196 0.0
H458 H 0.4912 0.201 0.24255 0.0
H459 H 0.46454 0.19048 0.27913 0.0
C460 C 0.5595 0.16062 0.25594 0.0
C461 C 0.55656 0.16501 0.3004 0.0
C462 C 0.53697 0.15253 0.23103 0.0
C463 C 0.51109 0.14871 0.25011 0.0
C464 C 0.50842 0.15122 0.29473 0.0
H465 H 0.34422 0.14672 0.16018 0.0
H466 H 0.38635 0.14047 0.20219 0.0
C467 C 0.53084 0.15945 0.31964 0.0
C468 C 0.48625 0.14548 0.22313 0.0
H469 H 0.42715 0.17889 0.19464 0.0
C470 C 0.48271 0.12135 0.1989 0.0
C471 C 0.46617 0.16661 0.22112 0.0
C472 C 0.4696 0.19358 0.24473 0.0
C473 C 0.45899 0.11748 0.1736 0.0
C474 C 0.43869 0.13845 0.17237 0.0
C475 C 0.44259 0.1627 0.19608 0.0
C476 C 0.41306 0.13623 0.14684 0.0
C477 C 0.4555 0.09087 0.14926 0.0
C478 C 0.414 0.13519 0.10179 0.0
C479 C 0.38981 0.13845 0.07781 0.0
C480 C 0.36456 0.14283 0.09868 0.0
C481 C 0.36349 0.14291 0.14359 0.0
C482 C 0.38751 0.13939 0.1675 0.0
H483 H 0.46972 0.07454 0.16102 0.0
H484 H 0.43397 0.08333 0.15195 0.0
H485 H 0.46 0.09449 0.1148 0.0
H486 H 0.43355 0.13343 0.08516 0.0
H487 H 0.39098 0.13882 0.04309 0.0
H488 H 0.13603 0.4711 0.67689 0.0
H489 H 0.11442 0.50803 0.71818 0.0
H490 H 0.17739 0.50047 0.81492 0.0
H491 H 0.19978 0.46423 0.7737 0.0
H492 H 0.11727 0.50799 0.84438 0.0
H493 H 0.15715 0.58486 0.72632 0.0
H494 H 0.13842 0.55527 0.70727 0.0
H495 H 0.17199 0.55079 0.73032 0.0
C496 C 0.14559 0.47729 0.70667 0.0
C497 C 0.17036 0.46505 0.72108 0.0
C498 C 0.13288 0.49824 0.73052 0.0
C499 C 0.14447 0.50704 0.76935 0.0
C500 C 0.16812 0.49388 0.78501 0.0
H501 H 0.16145 0.62413 0.96011 0.0
H502 H 0.15159 0.58211 0.91951 0.0
C503 C 0.18094 0.47315 0.7612 0.0
C504 C 0.13393 0.53169 0.79199 0.0
H505 H 0.14004 0.60167 0.7913 0.0
C506 C 0.12168 0.52854 0.83252 0.0
C507 C 0.13941 0.55842 0.77612 0.0
C508 C 0.15252 0.5628 0.73269 0.0
C509 C 0.11607 0.55152 0.85857 0.0
C510 C 0.12378 0.57808 0.84418 0.0
C511 C 0.13425 0.58129 0.80244 0.0
C512 C 0.12485 0.60222 0.87334 0.0
C513 C 0.10238 0.54717 0.9015 0.0
C514 C 0.1132 0.62756 0.86095 0.0
C515 C 0.11917 0.65156 0.88391 0.0
C516 C 0.13652 0.65052 0.9198 0.0
C517 C 0.14748 0.62517 0.93303 0.0
C518 C 0.1416 0.60117 0.91009 0.0
H519 H 0.08914 0.5285 0.90124 0.0
H520 H 0.11842 0.54415 0.92645 0.0
H521 H 0.08957 0.56525 0.91052 0.0
H522 H 0.10073 0.629 0.83221 0.0
H523 H 0.11178 0.67114 0.87196 0.0
H524 H 0.47242 0.87597 0.32759 0.0
H525 H 0.50929 0.89288 0.28135 0.0
H526 H 0.49218 0.82855 0.18996 0.0
H527 H 0.45588 0.81078 0.23626 0.0
H528 H 0.55511 0.85783 0.25781 0.0
H529 H 0.50077 0.89916 0.1149 0.0
H530 H 0.48436 0.8957 0.16676 0.0
H531 H 0.48881 0.86606 0.1329 0.0
C532 C 0.47646 0.86515 0.29791 0.0
C533 C 0.46147 0.84137 0.28644 0.0
C534 C 0.49736 0.8752 0.27118 0.0
C535 C 0.50326 0.86212 0.23212 0.0
C536 C 0.4876 0.83925 0.21964 0.0
H537 H 0.62823 0.84117 0.04541 0.0
H538 H 0.58494 0.84623 0.08544 0.0
C539 C 0.46691 0.82904 0.24641 0.0
C540 C 0.52784 0.86998 0.20678 0.0
H541 H 0.54881 0.88906 0.10644 0.0
C542 C 0.55383 0.86518 0.22497 0.0
C543 C 0.52595 0.87935 0.16393 0.0
C544 C 0.49848 0.88562 0.14346 0.0
C545 C 0.57802 0.86792 0.20069 0.0
C546 C 0.57616 0.87653 0.15732 0.0
C547 C 0.55018 0.88248 0.13964 0.0
C548 C 0.60077 0.87706 0.1291 0.0
C549 C 0.60516 0.85995 0.22106 0.0
C550 C 0.62372 0.89329 0.13951 0.0
C551 C 0.64846 0.89004 0.1171 0.0
C552 C 0.6504 0.87136 0.08295 0.0
C553 C 0.62705 0.85612 0.07117 0.0
C554 C 0.60236 0.85905 0.09392 0.0
H555 H 0.6022 0.84784 0.25099 0.0
H556 H 0.61794 0.84757 0.19859 0.0
H557 H 0.61676 0.87888 0.22941 0.0
H558 H 0.6229 0.9075 0.16628 0.0
H559 H 0.6664 0.90096 0.12805 0.0
H560 H 0.40238 0.05114 0.10132 0.0
H561 H 0.44782 0.02912 0.10235 0.0
H562 H 0.45977 0.05087 0.96946 0.0
H563 H 0.41445 0.07315 0.96818 0.0
H564 H 0.46739 0.98531 0.05208 0.0
H565 H 0.5301 0.07942 0.02698 0.0
H566 H 0.49433 0.08069 0.04298 0.0
H567 H 0.5034 0.07489 0.98775 0.0
C568 C 0.4147 0.05137 0.07231 0.0
C569 C 0.40476 0.064 0.03465 0.0
C570 C 0.44066 0.0387 0.07296 0.0
C571 C 0.45735 0.03862 0.03616 0.0
C572 C 0.44747 0.05112 0.99849 0.0
H573 H 0.61571 0.97297 0.96054 0.0
H574 H 0.56998 0.99406 0.96538 0.0
C575 C 0.42147 0.06373 0.99775 0.0
C576 C 0.48482 0.02491 0.03679 0.0
H577 H 0.55345 0.03646 0.0199 0.0
C578 C 0.48625 0.9965 0.04535 0.0
C579 C 0.50941 0.03957 0.02828 0.0
C580 C 0.50938 0.07038 0.02139 0.0
C581 C 0.51152 0.98218 0.04417 0.0
C582 C 0.53604 0.99675 0.03465 0.0
C583 C 0.53462 0.02525 0.02684 0.0
C584 C 0.56336 0.98285 0.0318 0.0
C585 C 0.51163 0.95146 0.05191 0.0
C586 C 0.57491 0.9695 0.06756 0.0
C587 C 0.60109 0.95735 0.06488 0.0
C588 C 0.61632 0.95845 0.02642 0.0
C589 C 0.60458 0.97168 0.99062 0.0
C590 C 0.57844 0.98382 0.99335 0.0
H591 H 0.49071 0.94243 0.04862 0.0
H592 H 0.52577 0.94084 0.02922 0.0
H593 H 0.51898 0.94727 0.085 0.0
H594 H 0.56391 0.96892 0.09781 0.0
H595 H 0.60953 0.94745 0.09314 0.0
H596 H 0.91867 0.42636 0.01605 0.0
H597 H 0.94322 0.47042 0.01391 0.0
H598 H 1.0048 0.43449 0.93092 0.0
H599 H 0.97988 0.39081 0.93169 0.0
H600 H 0.99298 0.48286 0.04159 0.0
H601 H 0.9895 0.50435 0.86741 0.0
H602 H 0.96923 0.47745 0.8919 0.0
H603 H 1.0049 0.47148 0.87855 0.0
C604 C 0.93733 0.42792 0.99709 0.0
C605 C 0.94733 0.40505 0.97412 0.0
C606 C 0.95136 0.45314 0.99586 0.0
C607 C 0.97573 0.456 0.97178 0.0
C608 C 0.9857 0.43314 0.94882 0.0
H609 H 0.09822 0.58451 0.02071 0.0
H610 H 0.0729 0.54099 0.01633 0.0
C611 C 0.97152 0.40805 0.94958 0.0
C612 C 0.99144 0.4824 0.97253 0.0
H613 H 0.02138 0.53116 0.90842 0.0
C614 C 0.99901 0.49351 0.01244 0.0
C615 C 0.99908 0.49658 0.93457 0.0
C616 C 0.99 0.48701 0.89074 0.0
C617 C 0.01421 0.51808 0.01548 0.0
C618 C 0.02294 0.53157 0.9775 0.0
C619 C 0.01508 0.52067 0.93757 0.0
C620 C 0.03929 0.55758 0.97849 0.0
C621 C 0.02009 0.52964 0.05948 0.0
C622 C 0.02961 0.58116 0.95702 0.0
C623 C 0.04428 0.60593 0.95886 0.0
C624 C 0.06896 0.60776 0.98241 0.0
C625 C 0.07905 0.58395 1.00293 0.0
C626 C 0.06448 0.55907 1.00069 0.0
H627 H 1.00536 0.52166 0.08383 0.0
H628 H 0.04114 0.52338 0.0695 0.0
H629 H 0.01896 0.55251 0.05948 0.0
H630 H 0.01037 0.58055 0.93939 0.0
H631 H 0.03598 0.62378 0.94237 0.0
H632 H 0.9229 0.58455 0.46986 0.0
H633 H 0.96826 0.56266 0.47516 0.0
H634 H 0.94751 0.5316 0.60074 0.0
H635 H 0.90214 0.55369 0.59595 0.0
H636 H 1.00072 0.55369 0.59605 0.0
H637 H 0.98239 0.47945 0.4639 0.0
H638 H 0.97658 0.51479 0.44915 0.0
H639 H 0.95491 0.49884 0.48885 0.0
C640 C 0.92795 0.5731 0.49865 0.0
C641 C 0.90871 0.57058 0.53223 0.0
C642 C 0.95386 0.56045 0.50152 0.0
C643 C 0.96108 0.54498 0.53794 0.0
C644 C 0.94228 0.54318 0.57212 0.0
H645 H 0.10224 0.43174 0.5522 0.0
H646 H 0.05563 0.45158 0.55195 0.0
C647 C 0.91632 0.55577 0.56927 0.0
C648 C 0.98823 0.53072 0.54032 0.0
H649 H 0.02841 0.4826 0.48988 0.0
C650 C 1.00673 0.53806 0.57297 0.0
C651 C 0.9959 0.50995 0.51067 0.0
C652 C 0.97633 0.50004 0.47639 0.0
C653 C 0.03299 0.52581 0.57596 0.0
C654 C 0.04113 0.50596 0.54508 0.0
C655 C 0.0223 0.49801 0.51326 0.0
C656 C 0.06932 0.49376 0.54465 0.0
C657 C 0.05168 0.5341 0.6124 0.0
C658 C 0.09247 0.51076 0.53957 0.0
C659 C 0.11904 0.49952 0.5396 0.0
C660 C 0.12312 0.47094 0.54437 0.0
C661 C 0.09986 0.45381 0.54839 0.0
C662 C 0.07321 0.46513 0.54839 0.0
H663 H 0.03984 0.5431 0.63956 0.0
H664 H 0.06373 0.51619 0.62442 0.0
H665 H 0.06639 0.54995 0.60085 0.0
H666 H 0.08999 0.53281 0.53555 0.0
H667 H 0.13641 0.51334 0.53618 0.0
H668 H 0.58838 0.09932 0.47699 0.0
H669 H 0.56746 0.05338 0.47957 0.0
H670 H 0.48692 0.09037 0.49212 0.0
H671 H 0.50752 0.1362 0.48881 0.0
H672 H 0.535 0.0276 0.54105 0.0
H673 H 0.47722 0.03985 0.38874 0.0
H674 H 0.50428 0.06317 0.4047 0.0
H675 H 0.47023 0.06658 0.42705 0.0
C676 C 0.56624 0.09768 0.48046 0.0
C677 C 0.54963 0.12147 0.4823 0.0
C678 C 0.5543 0.0714 0.48192 0.0
C679 C 0.52556 0.06843 0.48514 0.0
C680 C 0.50907 0.09214 0.48856 0.0
H681 H 0.435 0.91906 0.55183 0.0
H682 H 0.4566 0.96465 0.55142 0.0
C683 C 0.52094 0.11836 0.48697 0.0
C684 C 0.51274 0.04061 0.48482 0.0
H685 H 0.46611 1.00068 0.43125 0.0
C686 C 0.52 0.02166 0.51698 0.0
C687 C 0.49347 0.03273 0.45302 0.0
C688 C 0.48601 0.05152 0.41616 0.0
C689 C 0.50814 0.99525 0.51869 0.0
C690 C 0.48808 0.98776 0.48784 0.0
C691 C 0.48121 1.00654 0.45522 0.0
C692 C 0.47448 0.96029 0.4881 0.0
C693 C 0.51763 0.97544 0.55303 0.0
C694 C 0.47654 0.94301 0.45213 0.0
C695 C 0.46403 0.91707 0.45213 0.0
C696 C 0.44907 0.90785 0.48809 0.0
C697 C 0.4466 0.92539 0.52381 0.0
C698 C 0.45908 0.95141 0.52372 0.0
H699 H 0.53801 0.98141 0.56634 0.0
H700 H 0.5025 0.97553 0.57976 0.0
H701 H 0.51913 0.9541 0.54036 0.0
H702 H 0.4881 0.94949 0.42412 0.0
H703 H 0.46625 0.90417 0.42397 0.0
H704 H 0.26777 0.35729 0.60528 0.0
H705 H 0.29191 0.3269 0.65567 0.0
H706 H 0.24574 0.25758 0.6077 0.0
H707 H 0.2222 0.28776 0.55699 0.0
H708 H 0.26234 0.30289 0.71808 0.0
H709 H 0.31846 0.22101 0.63127 0.0
H710 H 0.30784 0.25267 0.60551 0.0
H711 H 0.28392 0.22454 0.61153 0.0
C712 C 0.26419 0.33528 0.60349 0.0
C713 C 0.24344 0.3248 0.57668 0.0
C714 C 0.27762 0.31796 0.63293 0.0
C715 C 0.27065 0.28986 0.63575 0.0
C716 C 0.25196 0.27897 0.60585 0.0
H717 H 0.25242 0.18838 0.86303 0.0
H718 H 0.24706 0.22149 0.80421 0.0
C719 C 0.23857 0.29626 0.57655 0.0
C720 C 0.27896 0.27305 0.67377 0.0
H721 H 0.30366 0.2098 0.70334 0.0
C722 C 0.27183 0.28272 0.71487 0.0
C723 C 0.29141 0.24676 0.66988 0.0
C724 C 0.3011 0.23577 0.62717 0.0
C725 C 0.27584 0.26649 0.75179 0.0
C726 C 0.28673 0.23951 0.74759 0.0
C727 C 0.29488 0.23028 0.70669 0.0
C728 C 0.29001 0.22055 0.78504 0.0
C729 C 0.26846 0.27851 0.79495 0.0
C730 C 0.31579 0.20864 0.79376 0.0
C731 C 0.31885 0.18959 0.82713 0.0
C732 C 0.29622 0.1819 0.85287 0.0
C733 C 0.27044 0.19419 0.84462 0.0
C734 C 0.26735 0.21317 0.81087 0.0
H735 H 0.26859 0.30142 0.79418 0.0
H736 H 0.24735 0.27182 0.8039 0.0
H737 H 0.28295 0.27141 0.82022 0.0
H738 H 0.3336 0.21391 0.77443 0.0
H739 H 0.33904 0.18065 0.83252 0.0
H740 H 0.154 0.70997 0.21893 0.0
H741 H 0.18423 0.72041 0.27913 0.0
H742 H 0.23999 0.76264 0.19377 0.0
H743 H 0.20968 0.75239 0.13301 0.0
H744 H 0.23771 0.70497 0.29303 0.0
H745 H 0.22893 0.81906 0.28852 0.0
H746 H 0.20606 0.79689 0.25876 0.0
H747 H 0.24014 0.80397 0.23887 0.0
C748 C 0.17259 0.72168 0.21281 0.0
C749 C 0.17915 0.73056 0.17096 0.0
C750 C 0.18991 0.72757 0.24739 0.0
C751 C 0.21431 0.7425 0.24121 0.0
C752 C 0.221 0.75155 0.19956 0.0
H753 H 0.35288 0.75966 0.4157 0.0
H754 H 0.31996 0.73986 0.36509 0.0
C755 C 0.20354 0.74576 0.16478 0.0
C756 C 0.23272 0.74814 0.27847 0.0
H757 H 0.26171 0.8002 0.33651 0.0
C758 C 0.24293 0.7258 0.30262 0.0
C759 C 0.23925 0.7753 0.29139 0.0
C760 C 0.22785 0.80021 0.26834 0.0
C761 C 0.25965 0.7299 0.339 0.0
C762 C 0.26667 0.75706 0.35129 0.0
C763 C 0.25633 0.77934 0.32723 0.0
C764 C 0.28497 0.76328 0.38848 0.0
C765 C 0.2692 0.70515 0.36435 0.0
C766 C 0.27613 0.78201 0.42 0.0
C767 C 0.29499 0.79344 0.44879 0.0
C768 C 0.32306 0.78634 0.44675 0.0
C769 C 0.33133 0.76526 0.41855 0.0
C770 C 0.31247 0.754 0.38932 0.0
H771 H 0.25574 0.68701 0.35875 0.0
H772 H 0.29041 0.69955 0.35412 0.0
H773 H 0.26961 0.70966 0.39928 0.0
H774 H 0.25502 0.78936 0.42026 0.0
H775 H 0.28809 0.80981 0.46992 0.0
H776 H 0.76252 0.66443 0.60428 0.0
H777 H 0.7426 0.69841 0.65294 0.0
H778 H 0.78674 0.76296 0.58719 0.0
H779 H 0.80664 0.72877 0.5383 0.0
H780 H 0.80057 0.75921 0.6715 0.0
H781 H 0.68666 0.76087 0.65711 0.0
H782 H 0.70083 0.72679 0.66221 0.0
H783 H 0.70876 0.74712 0.61556 0.0
C784 C 0.76636 0.68604 0.59815 0.0
C785 C 0.78547 0.69401 0.56658 0.0
C786 C 0.75528 0.70552 0.62655 0.0
C787 C 0.76312 0.73334 0.62384 0.0
C788 C 0.78031 0.74165 0.5899 0.0
H789 H 0.71227 0.8667 0.79202 0.0
H790 H 0.72153 0.836 0.73192 0.0
C791 C 0.7914 0.72216 0.56158 0.0
C792 C 0.75728 0.75261 0.65997 0.0
H793 H 0.70571 0.78083 0.7207 0.0
C794 C 0.77979 0.7641 0.68199 0.0
C795 C 0.73021 0.75895 0.67386 0.0
C796 C 0.70521 0.748 0.65075 0.0
C797 C 0.77604 0.78147 0.7176 0.0
C798 C 0.74902 0.78728 0.73217 0.0
C799 C 0.72645 0.77612 0.70985 0.0
C800 C 0.74377 0.8058 0.76943 0.0
C801 C 0.80106 0.79381 0.73893 0.0
C802 C 0.75321 0.7991 0.81083 0.0
C803 C 0.74795 0.81672 0.84565 0.0
C804 C 0.73305 0.84142 0.83977 0.0
C805 C 0.72376 0.84792 0.79809 0.0
C806 C 0.72898 0.83035 0.7635 0.0
H807 H 0.81963 0.79255 0.71809 0.0
H808 H 0.79736 0.81576 0.74736 0.0
H809 H 0.80549 0.78236 0.769 0.0
H810 H 0.76428 0.78001 0.81635 0.0
H811 H 0.75492 0.81049 0.87718 0.0
H812 H 0.83306 0.33638 0.18359 0.0
H813 H 0.80164 0.32958 0.24383 0.0
H814 H 0.80481 0.24165 0.22391 0.0
H815 H 0.83594 0.24835 0.16276 0.0
H816 H 0.75318 0.25854 0.24115 0.0
H817 H 0.82373 0.30394 0.36151 0.0
H818 H 0.81571 0.32721 0.31851 0.0
H819 H 0.83459 0.296 0.30754 0.0
C820 C 0.82703 0.31555 0.19188 0.0
C821 C 0.83711 0.29292 0.16829 0.0
C822 C 0.80919 0.3117 0.22662 0.0
C823 C 0.80138 0.28507 0.23927 0.0
C824 C 0.81069 0.26242 0.215 0.0
H825 H 0.73445 0.22143 0.47262 0.0
H826 H 0.76433 0.24382 0.42 0.0
C827 C 0.82837 0.26628 0.17982 0.0
C828 C 0.7834 0.2809 0.27759 0.0
H829 H 0.77833 0.29376 0.38533 0.0
C830 C 0.75867 0.26629 0.27264 0.0
C831 C 0.79069 0.29074 0.3189 0.0
C832 C 0.81775 0.3051 0.32714 0.0
C833 C 0.74109 0.26117 0.30764 0.0
C834 C 0.74798 0.27167 0.34874 0.0
C835 C 0.77273 0.28627 0.35373 0.0
C836 C 0.73112 0.26508 0.3874 0.0
C837 C 0.71585 0.24356 0.30049 0.0
C838 C 0.70285 0.27149 0.38901 0.0
C839 C 0.68573 0.25863 0.41919 0.0
C840 C 0.69674 0.23971 0.44878 0.0
C841 C 0.72549 0.23633 0.45073 0.0
C842 C 0.74256 0.24889 0.42027 0.0
H843 H 0.71703 0.23196 0.2698 0.0
H844 H 0.71311 0.22854 0.32707 0.0
H845 H 0.6973 0.25696 0.29922 0.0
H846 H 0.69364 0.28443 0.36456 0.0
H847 H 0.66364 0.26082 0.41572 0.0
H848 H 0.80526 0.64597 0.28933 0.0
H849 H 0.7966 0.67708 0.22935 0.0
H850 H 0.75944 0.73588 0.31557 0.0
H851 H 0.76804 0.70485 0.37611 0.0
H852 H 0.72933 0.72854 0.24171 0.0
H853 H 0.839 0.74709 0.20084 0.0
H854 H 0.83 0.71122 0.20214 0.0
H855 H 0.82844 0.73124 0.25064 0.0
C856 C 0.79523 0.66552 0.29574 0.0
C857 C 0.78732 0.67274 0.33778 0.0
C858 C 0.79047 0.68338 0.26131 0.0
C859 C 0.77794 0.70909 0.26801 0.0
C860 C 0.76934 0.71619 0.30967 0.0
H861 H 0.75843 0.85045 0.10266 0.0
H862 H 0.77838 0.81623 0.15117 0.0
C863 C 0.77404 0.69826 0.34427 0.0
C864 C 0.77318 0.72818 0.23129 0.0
H865 H 0.80571 0.76315 0.15033 0.0
C866 C 0.74604 0.73613 0.22181 0.0
C867 C 0.79504 0.73836 0.20555 0.0
C868 C 0.82479 0.73179 0.21548 0.0
C869 C 0.74008 0.75358 0.18703 0.0
C870 C 0.76182 0.76295 0.16034 0.0
C871 C 0.78905 0.75548 0.17024 0.0
C872 C 0.7564 0.78178 0.1236 0.0
C873 C 0.71055 0.76231 0.17971 0.0
C874 C 0.73923 0.77343 0.08978 0.0
C875 C 0.72811 0.79297 0.0616 0.0
C876 C 0.73427 0.82108 0.06648 0.0
C877 C 0.75404 0.82888 0.09708 0.0
C878 C 0.7651 0.80934 0.1254 0.0
H879 H 0.69746 0.75852 0.20839 0.0
H880 H 0.70931 0.78455 0.17137 0.0
H881 H 0.70187 0.75034 0.15259 0.0
H882 H 0.73261 0.75217 0.08739 0.0
H883 H 0.7126 0.78648 0.03876 0.0
H884 H 0.78854 0.30472 0.9639 0.0
H885 H 0.75707 0.2808 0.91581 0.0
H886 H 0.82298 0.22652 0.87659 0.0
H887 H 0.85472 0.25088 0.92425 0.0
H888 H 0.80178 0.25458 0.80964 0.0
H889 H 0.71546 0.20974 0.90166 0.0
H890 H 0.72152 0.24486 0.91678 0.0
H891 H 0.7477 0.21921 0.92656 0.0
C892 C 0.79597 0.28675 0.94676 0.0
C893 C 0.82408 0.27965 0.94804 0.0
C894 C 0.77794 0.27308 0.91906 0.0
C895 C 0.78758 0.25185 0.89232 0.0
C896 C 0.81502 0.24284 0.89686 0.0
H897 H 0.67714 0.18047 0.70022 0.0
H898 H 0.70939 0.18676 0.75939 0.0
C899 C 0.83311 0.25654 0.92467 0.0
C900 C 0.77053 0.24267 0.85522 0.0
H901 H 0.70599 0.22092 0.82747 0.0
C902 C 0.78099 0.24677 0.8136 0.0
C903 C 0.74342 0.23239 0.86014 0.0
C904 C 0.73148 0.22603 0.90373 0.0
C905 C 0.7648 0.24189 0.77698 0.0
C906 C 0.73714 0.23321 0.78197 0.0
C907 C 0.72704 0.22802 0.82352 0.0
C908 C 0.71833 0.22938 0.74461 0.0
C909 C 0.77757 0.24606 0.73329 0.0
C910 C 0.71248 0.25127 0.71637 0.0
C911 C 0.69403 0.24773 0.68215 0.0
C912 C 0.68083 0.22224 0.67567 0.0
C913 C 0.68683 0.20042 0.7041 0.0
C914 C 0.70531 0.20395 0.73807 0.0
H915 H 0.80043 0.2446 0.7346 0.0
H916 H 0.76984 0.23063 0.70993 0.0
H917 H 0.77214 0.26693 0.72131 0.0
H918 H 0.7217 0.27132 0.72133 0.0
H919 H 0.68951 0.26524 0.66176 0.0
H920 H 0.1839 0.33678 0.32754 0.0
H921 H 0.1902 0.30424 0.26877 0.0
H922 H 0.27612 0.29572 0.30175 0.0
H923 H 0.27 0.32825 0.36103 0.0
H924 H 0.22237 0.30878 0.19866 0.0
H925 H 0.25291 0.21587 0.29068 0.0
H926 H 0.23819 0.24596 0.31601 0.0
H927 H 0.2742 0.24518 0.30201 0.0
C928 C 0.20416 0.32786 0.32267 0.0
C929 C 0.22637 0.33508 0.34952 0.0
C930 C 0.2077 0.30921 0.28891 0.0
C931 C 0.23353 0.2972 0.28098 0.0
C932 C 0.25579 0.30417 0.30779 0.0
H933 H 0.3046 0.22769 0.05649 0.0
H934 H 0.28132 0.25888 0.10604 0.0
C935 C 0.25225 0.3228 0.34183 0.0
C936 C 0.23727 0.27838 0.24355 0.0
H937 H 0.26031 0.21436 0.21498 0.0
C938 C 0.23044 0.28803 0.20231 0.0
C939 C 0.24724 0.25109 0.24817 0.0
C940 C 0.2533 0.23877 0.29164 0.0
C941 C 0.2343 0.27158 0.16559 0.0
C942 C 0.24573 0.24486 0.17002 0.0
C943 C 0.25159 0.23485 0.2114 0.0
C944 C 0.25417 0.2278 0.13241 0.0
C945 C 0.22612 0.28302 0.12241 0.0
C946 C 0.24587 0.20011 0.12901 0.0
C947 C 0.25914 0.18221 0.10028 0.0
C948 C 0.2811 0.19168 0.0748 0.0
C949 C 0.28738 0.21995 0.07511 0.0
C950 C 0.27413 0.23782 0.10371 0.0
H951 H 0.20942 0.29862 0.12557 0.0
H952 H 0.24418 0.29336 0.10764 0.0
H953 H 0.21906 0.26646 0.10046 0.0
H954 H 0.23055 0.19185 0.15082 0.0
H955 H 0.25431 0.16045 0.10166 0.0
H956 H 0.22654 0.70512 0.95098 0.0
H957 H 0.25862 0.72789 0.90225 0.0
H958 H 0.1944 0.78431 0.86357 0.0
H959 H 0.16203 0.76096 0.9118 0.0
H960 H 0.21525 0.75602 0.79621 0.0
H961 H 0.30214 0.79808 0.88985 0.0
H962 H 0.29498 0.76303 0.90433 0.0
H963 H 0.26949 0.78935 0.91421 0.0
C964 C 0.21969 0.72335 0.93385 0.0
C965 C 0.19194 0.73161 0.93585 0.0
C966 C 0.23805 0.73633 0.90576 0.0
C967 C 0.22904 0.75792 0.87915 0.0
C968 C 0.2019 0.76779 0.88388 0.0
H969 H 0.34217 0.82982 0.69188 0.0
H970 H 0.3089 0.82293 0.74952 0.0
C971 C 0.18351 0.75478 0.91212 0.0
C972 C 0.2465 0.76688 0.84229 0.0
H973 H 0.31157 0.78766 0.81558 0.0
C974 C 0.23618 0.76336 0.80049 0.0
C975 C 0.27379 0.77654 0.84765 0.0
C976 C 0.28565 0.78224 0.89147 0.0
C977 C 0.25263 0.76832 0.76409 0.0
C978 C 0.28041 0.77649 0.7695 0.0
C979 C 0.29042 0.78098 0.81127 0.0
C980 C 0.29942 0.7808 0.73243 0.0
C981 C 0.24 0.76486 0.7202 0.0
C982 C 0.30519 0.75946 0.70316 0.0
C983 C 0.32423 0.76338 0.66972 0.0
C984 C 0.33811 0.78868 0.66519 0.0
C985 C 0.332 0.81002 0.69437 0.0
C986 C 0.31294 0.80613 0.72747 0.0
H987 H 0.21715 0.76658 0.72139 0.0
H988 H 0.24801 0.7805 0.69736 0.0
H989 H 0.24524 0.7441 0.70766 0.0
H990 H 0.29555 0.73948 0.70686 0.0
H991 H 0.32877 0.74628 0.64854 0.0
H992 H 0.29254 0.01815 0.05242 0.0
H993 H 0.27111 0.97338 0.04138 0.0
H994 H 0.20434 0.01209 0.97263 0.0
H995 H 0.22583 0.05737 0.98325 0.0
H996 H 0.21882 0.95634 0.06874 0.0
H997 H 0.22897 0.94955 0.89138 0.0
H998 H 0.24824 0.97402 0.92302 0.0
H999 H 0.2125 0.98022 0.91135 0.0
C1000 C 0.27335 0.01732 0.03471 0.0
C1001 C 0.26099 0.04154 0.01863 0.0
C1002 C 0.26111 0.99159 0.02849 0.0
C1003 C 0.23628 0.98928 1.0058 0.0
C1004 C 0.22376 0.01331 0.98962 0.0
H1005 H 0.13296 0.84822 0.94501 0.0
H1006 H 0.15426 0.89366 0.9504 0.0
C1007 C 0.23601 0.03921 0.99592 0.0
C1008 C 0.22332 0.96169 1.00053 0.0
H1009 H 0.20487 0.91349 0.92597 0.0
C1010 C 0.21579 0.94695 0.03752 0.0
C1011 C 0.21934 0.94947 0.9598 0.0
C1012 C 0.22785 0.96395 0.91904 0.0
C1013 C 0.20415 0.92048 0.03493 0.0
C1014 C 0.20049 0.90806 0.99422 0.0
C1015 C 0.20781 0.92291 0.95717 0.0
C1016 C 0.18851 0.87997 0.98944 0.0
C1017 C 0.1953 0.90634 0.07584 0.0
C1018 C 0.20102 0.85688 1.00869 0.0
C1019 C 0.1888 0.83077 1.00582 0.0
C1020 C 0.16393 0.82719 0.98331 0.0
C1021 C 0.15203 0.85018 0.96278 0.0
C1022 C 0.1642 0.87624 0.96578 0.0
H1023 H 0.1926 0.92126 0.10256 0.0
H1024 H 0.17564 0.89503 0.07125 0.0
H1025 H 0.21138 0.89127 0.08552 0.0
H1026 H 0.22015 0.85909 0.02624 0.0
H1027 H 0.19865 0.81349 0.0217 0.0
H1028 H 0.05716 0.79401 0.98766 0.0
H1029 H 0.01119 0.81468 0.99355 0.0
H1030 H 0.98244 0.74268 0.06147 0.0
H1031 H 0.0279 0.72148 0.05381 0.0
H1032 H 0.94676 0.75548 1.00392 0.0
H1033 H 0.97261 0.85179 0.08961 0.0
H1034 H 0.99137 0.84872 0.04027 0.0
H1035 H 0.99723 0.82423 0.08284 0.0
C1036 C 0.04114 0.78281 1.00447 0.0
C1037 C 0.04623 0.75616 0.02045 0.0
C1038 C 0.01483 0.79471 1.00801 0.0
C1039 C 0.99325 0.78051 0.0286 0.0
C1040 C 0.9986 0.75414 0.04544 0.0
H1041 H 0.83753 0.858 0.10148 0.0
H1042 H 0.88317 0.83647 0.10013 0.0
C1043 C 0.02468 0.74206 0.04119 0.0
C1044 C 0.96473 0.79226 0.03063 0.0
H1045 H 0.92764 0.84949 0.05878 0.0
C1046 C 0.94261 0.77599 0.01624 0.0
C1047 C 0.95904 0.81887 0.04721 0.0
C1048 C 0.98129 0.83678 0.06627 0.0
C1049 C 0.91522 0.78555 0.01762 0.0
C1050 C 0.90968 0.81266 0.03227 0.0
C1051 C 0.93176 0.82884 0.04706 0.0
C1052 C 0.88122 0.82455 0.03325 0.0
C1053 C 0.89249 0.76611 1.00444 0.0
C1054 C 0.86463 0.82503 0.99622 0.0
C1055 C 0.83823 0.83685 0.99719 0.0
C1056 C 0.82812 0.84914 0.03492 0.0
C1057 C 0.84473 0.84876 0.07188 0.0
C1058 C 0.8709 0.8365 0.07109 0.0
H1059 H 0.89897 0.74422 1.00789 0.0
H1060 H 0.87357 0.7694 0.02386 0.0
H1061 H 0.88741 0.76963 0.97016 0.0
H1062 H 0.87228 0.81674 0.96623 0.0
H1063 H 0.82609 0.83713 0.96803 0.0
H1064 H 0.72062 0.99405 0.99112 0.0
H1065 H 0.74258 0.03916 0.98691 0.0
H1066 H 0.82135 1.00193 0.01522 0.0
H1067 H 0.79958 0.95645 0.01828 0.0
H1068 H 0.76765 0.06616 0.04959 0.0
H1069 H 0.84225 0.05117 0.91689 0.0
H1070 H 0.81488 0.027 0.92775 0.0
H1071 H 0.84617 0.02609 0.95878 0.0
C1072 C 0.74271 0.99533 0.99581 0.0
C1073 C 0.75835 0.97155 1.00497 0.0
C1074 C 0.75524 0.02121 0.99345 0.0
C1075 C 0.7837 0.02405 1.0003 0.0
C1076 C 0.79949 1.00029 1.00876 0.0
H1077 H 0.89273 0.16115 0.04655 0.0
H1078 H 0.87018 0.11644 0.03919 0.0
C1079 C 0.78699 0.97426 0.01069 0.0
C1080 C 0.7963 0.05205 1.00142 0.0
H1081 H 0.84816 0.09158 0.95975 0.0
C1082 C 0.78508 0.07176 0.02959 0.0
C1083 C 0.81905 0.05946 0.97534 0.0
C1084 C 0.83113 0.03991 0.94268 0.0
C1085 C 0.79634 0.09834 0.0331 0.0
C1086 C 0.81936 0.10552 1.00764 0.0
C1087 C 0.8305 0.08598 0.97926 0.0
C1088 C 0.83281 0.1329 0.01132 0.0
C1089 C 0.78401 0.11836 0.06484 0.0
C1090 C 0.81931 0.15705 0.99779 0.0
C1091 C 0.83221 0.18278 1.00181 0.0
C1092 C 0.8588 0.18477 0.0196 0.0
C1093 C 0.87221 0.16046 0.03292 0.0
C1094 C 0.8594 0.13482 0.02862 0.0
H1095 H 0.76931 0.10818 0.08712 0.0
H1096 H 0.80049 0.12838 0.08398 0.0
H1097 H 0.77277 0.13478 0.04719 0.0
H1098 H 0.79886 0.15598 0.98394 0.0
H1099 H 0.82136 0.20106 0.99101 0.0
H1100 H 0.95855 0.2218 0.03615 0.0
H1101 H 1.00368 0.20009 0.04823 0.0
H1102 H 0.0436 0.26884 0.98642 0.0
H1103 H 0.99908 0.29076 0.97486 0.0
H1104 H 0.0426 0.18395 0.98831 0.0
H1105 H 0.08762 0.26236 0.09639 0.0
H1106 H 0.05122 0.26108 0.08449 0.0
H1107 H 0.07482 0.27696 0.04737 0.0
C1108 C 0.97695 0.23241 0.02549 0.0
C1109 C 0.97506 0.25814 1.00472 0.0
C1110 C 1.00274 0.21996 0.03238 0.0
C1111 C 0.02711 0.23307 0.01895 0.0
C1112 C 0.02521 0.25863 0.99809 0.0
H1113 H 0.20108 0.19366 0.99605 0.0
H1114 H 0.15506 0.21479 0.99425 0.0
C1115 C 0.99959 0.27106 0.99124 0.0
C1116 C 0.05451 0.21967 0.02475 0.0
H1117 H 0.11926 0.23028 0.06488 0.0
C1118 C 0.05926 0.19392 1.00549 0.0
C1119 C 0.07632 0.23272 0.04705 0.0
C1120 C 0.07221 0.25968 0.07037 0.0
C1121 C 0.0854 0.18132 1.00676 0.0
C1122 C 0.10732 0.19465 0.02832 0.0
C1123 C 0.1025 0.22019 0.04811 0.0
C1124 C 0.13537 0.18233 0.03069 0.0
C1125 C 0.08959 0.15421 0.98392 0.0
C1126 C 0.13969 0.1574 0.05255 0.0
C1127 C 0.16591 0.14535 0.05374 0.0
C1128 C 0.18843 0.15797 0.03309 0.0
C1129 C 0.18418 0.18331 0.01205 0.0
C1130 C 0.15791 0.19542 0.01104 0.0
H1131 H 0.07265 0.14983 0.96094 0.0
H1132 H 0.10948 0.15405 0.96624 0.0
H1133 H 0.09014 0.1373 1.00792 0.0
H1134 H 0.12272 0.14719 0.06859 0.0
H1135 H 0.1684 0.12592 0.07045 0.0
H1136 H 0.67753 0.32507 0.55862 0.0
H1137 H 0.69671 0.37171 0.56173 0.0
H1138 H 0.68053 0.38219 0.42653 0.0
H1139 H 0.66007 0.33621 0.42389 0.0
H1140 H 0.73822 0.39587 0.52702 0.0
H1141 H 0.64515 0.45039 0.46954 0.0
H1142 H 0.64484 0.41425 0.48301 0.0
H1143 H 0.65675 0.42552 0.43105 0.0
C1144 C 0.67806 0.33737 0.52961 0.0
C1145 C 0.66698 0.32715 0.49115 0.0
C1146 C 0.689 0.36406 0.53139 0.0
C1147 C 0.6894 0.38092 0.49463 0.0
C1148 C 0.6795 0.37014 0.45575 0.0
H1149 H 0.79575 0.52448 0.47211 0.0
H1150 H 0.77436 0.47905 0.46762 0.0
C1151 C 0.66804 0.34372 0.45416 0.0
C1152 C 0.70064 0.40951 0.49684 0.0
H1153 H 0.68687 0.47658 0.47034 0.0
C1154 C 0.72686 0.41352 0.51488 0.0
C1155 C 0.68568 0.43278 0.48192 0.0
C1156 C 0.65644 0.43058 0.46577 0.0
C1157 C 0.73872 0.43987 0.51765 0.0
C1158 C 0.72451 0.46288 0.50021 0.0
C1159 C 0.69804 0.45898 0.48303 0.0
C1160 C 0.73664 0.49112 0.49986 0.0
C1161 C 0.76607 0.44273 0.54032 0.0
C1162 C 0.72192 0.51365 0.51687 0.0
C1163 C 0.73383 0.53995 0.51822 0.0
C1164 C 0.7608 0.54413 0.50302 0.0
C1165 C 0.77507 0.52182 0.48462 0.0
C1166 C 0.76296 0.49573 0.48245 0.0
H1167 H 0.76936 0.42576 0.56376 0.0
H1168 H 0.78298 0.44164 0.51637 0.0
H1169 H 0.76754 0.46267 0.55764 0.0
H1170 H 0.70148 0.51075 0.53014 0.0
H1171 H 0.72236 0.55673 0.53271 0.0
H1172 H 0.32031 0.32188 0.48481 0.0
H1173 H 0.36581 0.2999 0.48031 0.0
H1174 H 0.39908 0.36156 0.5652 0.0
H1175 H 0.35379 0.38334 0.5704 0.0
H1176 H 0.4144 0.32262 0.45016 0.0
H1177 H 0.42693 0.29078 0.61994 0.0
H1178 H 0.39409 0.30118 0.59793 0.0
H1179 H 0.41898 0.32671 0.61359 0.0
C1180 C 0.33724 0.33059 0.50287 0.0
C1181 C 0.33334 0.35436 0.52803 0.0
C1182 C 0.36326 0.31803 0.50021 0.0
C1183 C 0.38583 0.32884 0.52287 0.0
C1184 C 0.38191 0.35246 0.54817 0.0
H1185 H 0.56188 0.29095 0.53534 0.0
H1186 H 0.51611 0.31219 0.54208 0.0
C1187 C 0.35596 0.365 0.55088 0.0
C1188 C 0.41374 0.31627 0.51853 0.0
H1189 H 0.46695 0.28807 0.57578 0.0
C1190 C 0.4258 0.3149 0.47759 0.0
C1191 C 0.42872 0.30631 0.55437 0.0
C1192 C 0.41645 0.30604 0.59889 0.0
C1193 C 0.45255 0.3043 0.4716 0.0
C1194 C 0.46754 0.29442 0.50743 0.0
C1195 C 0.45551 0.29579 0.54838 0.0
C1196 C 0.4954 0.28185 0.50286 0.0
C1197 C 0.46475 0.30425 0.42704 0.0
C1198 C 0.49894 0.25763 0.47889 0.0
C1199 C 0.52498 0.24546 0.47499 0.0
C1200 C 0.54817 0.25714 0.49515 0.0
C1201 C 0.54457 0.28144 0.51924 0.0
C1202 C 0.5184 0.29357 0.52322 0.0
H1203 H 0.45386 0.3189 0.40544 0.0
H1204 H 0.48696 0.30974 0.42784 0.0
H1205 H 0.46285 0.2833 0.41312 0.0
H1206 H 0.48144 0.24793 0.46352 0.0
H1207 H 0.52685 0.22676 0.45622 0.0
H1208 H 0.30217 0.4577 0.51134 0.0
H1209 H 0.32321 0.50358 0.50545 0.0
H1210 H 0.24244 0.54093 0.5081 0.0
H1211 H 0.22148 0.49556 0.51518 0.0
H1212 H 0.31891 0.54538 0.44744 0.0
H1213 H 0.27935 0.58126 0.6047 0.0
H1214 H 0.27761 0.54566 0.58832 0.0
H1215 H 0.25236 0.57011 0.56952 0.0
C1216 C 0.28893 0.47571 0.51054 0.0
C1217 C 0.26017 0.47296 0.51445 0.0
C1218 C 0.30097 0.50192 0.50721 0.0
C1219 C 0.28446 0.52581 0.5075 0.0
C1220 C 0.2557 0.52295 0.50928 0.0
H1221 H 0.3201 0.70275 0.49143 0.0
H1222 H 0.2976 0.65741 0.48766 0.0
C1223 C 0.24372 0.4969 0.51312 0.0
C1224 C 0.29713 0.55376 0.50629 0.0
H1225 H 0.29954 0.61532 0.55972 0.0
C1226 C 0.31475 0.56061 0.47209 0.0
C1227 C 0.29177 0.57371 0.53851 0.0
C1228 C 0.27448 0.56726 0.57755 0.0
C1229 C 0.32681 0.5869 0.46899 0.0
C1230 C 0.32117 0.60682 0.50093 0.0
C1231 C 0.30353 0.60008 0.535 0.0
C1232 C 0.33476 0.63421 0.50108 0.0
C1233 C 0.34539 0.59333 0.43148 0.0
C1234 C 0.36299 0.63612 0.51011 0.0
C1235 C 0.37578 0.66185 0.51273 0.0
C1236 C 0.36063 0.68629 0.50623 0.0
C1237 C 0.33235 0.68434 0.49662 0.0
C1238 C 0.31948 0.65849 0.49443 0.0
H1239 H 0.34333 0.5779 0.40535 0.0
H1240 H 0.34072 0.61413 0.41839 0.0
H1241 H 0.36715 0.59332 0.44247 0.0
H1242 H 0.37508 0.61767 0.51586 0.0
H1243 H 0.39759 0.66254 0.52008 0.0
H1244 H 0.68501 0.67131 0.59654 0.0
H1245 H 0.63911 0.69204 0.59016 0.0
H1246 H 0.64543 0.68826 0.45211 0.0
H1247 H 0.69196 0.66912 0.4585 0.0
H1248 H 0.62258 0.73357 0.47177 0.0
H1249 H 0.56924 0.65345 0.56662 0.0
H1250 H 0.59523 0.67027 0.59784 0.0
H1251 H 0.60497 0.6503 0.55142 0.0
C1252 C 0.67658 0.67503 0.56487 0.0
C1253 C 0.69195 0.66844 0.52801 0.0
C1254 C 0.6502 0.6866 0.56122 0.0
C1255 C 0.63825 0.69094 0.52064 0.0
C1256 C 0.65397 0.68496 0.48382 0.0
H1257 H 0.46113 0.72032 0.48414 0.0
H1258 H 0.50713 0.69946 0.49073 0.0
C1259 C 0.68061 0.67405 0.48747 0.0
C1260 C 0.60966 0.70216 0.51634 0.0
H1261 H 0.54322 0.69413 0.55111 0.0
C1262 C 0.60524 0.72476 0.48894 0.0
C1263 C 0.58671 0.69041 0.53788 0.0
C1264 C 0.5892 0.66459 0.56467 0.0
C1265 C 0.57885 0.73615 0.48298 0.0
C1266 C 0.55623 0.72555 0.50666 0.0
C1267 C 0.56052 0.70262 0.53345 0.0
C1268 C 0.52807 0.73795 0.50405 0.0
C1269 C 0.57552 0.75895 0.45034 0.0
C1270 C 0.52423 0.76636 0.51053 0.0
C1271 C 0.49817 0.77831 0.50579 0.0
C1272 C 0.47509 0.76203 0.49589 0.0
C1273 C 0.47856 0.73338 0.49169 0.0
C1274 C 0.50485 0.72148 0.49544 0.0
H1275 H 0.59176 0.75783 0.42522 0.0
H1276 H 0.55508 0.75807 0.4344 0.0
H1277 H 0.57758 0.77918 0.4666 0.0
H1278 H 0.54146 0.77942 0.51899 0.0
H1279 H 0.49608 0.80039 0.51002 0.0
loop_
_geom_bond_atom_site_label_1
_geom_bond_atom_site_label_2
_geom_bond_distance
_geom_bond_site_symmetry_2
_ccdc_geom_bond_type
Zn0 N4 2.020 . S
Zn0 O8 2.019 . S
Zn0 N10 2.119 . S
Zn0 O18 1.975 . S
C1 N2 1.334 . S
C1 N5 1.336 . S
N2 C1 1.334 . S
N2 C3 1.334 . S
C3 N2 1.334 . S
C3 N4 1.336 . S
N4 Zn0 2.020 . S
N4 C3 1.336 . S
N4 N5 1.354 . S
N5 C1 1.336 . S
N5 N4 1.354 . S
N5 Zn9 2.020 . S
C6 O7 1.244 . S
C6 O30 1.257 . S
O7 C6 1.244 . S
O8 Zn0 2.019 . S
O8 C28 1.257 . S
Zn9 N5 2.020 . S
Zn9 O16 1.975 . S
Zn9 N25 2.119 1_554 S
Zn9 O30 2.019 . S
N10 Zn0 2.119 . S
N10 C12 1.334 . S
N10 C13 1.328 . S
C11 C12 1.391 . S
C11 N14 1.329 . S
C11 H32 0.930 . S
C12 N10 1.334 . S
C12 C11 1.391 . S
C12 H19 0.930 . S
C13 N10 1.328 . S
C13 C15 1.392 . S
C13 H20 0.930 . S
N14 C11 1.329 . S
N14 C15 1.331 . S
C15 C13 1.392 . S
C15 N14 1.331 . S
O16 Zn9 1.975 . S
O16 C17 1.252 . S
C17 O16 1.252 . S
C17 O18 1.252 . S
O18 Zn0 1.975 . S
O18 C17 1.252 . S
H19 C12 0.930 . S
H20 C13 0.930 . S
C21 C22 1.392 . S
C21 N25 1.328 . S
C21 H27 0.930 . S
C22 C21 1.392 . S
C22 N26 1.331 . S
C23 C24 1.391 . S
C23 N26 1.329 . S
C23 H33 0.930 . S
C24 C23 1.391 . S
C24 N25 1.334 . S
C24 H31 0.930 . S
N25 Zn9 2.119 1_556 S
N25 C21 1.328 . S
N25 C24 1.334 . S
N26 C22 1.331 . S
N26 C23 1.329 . S
H27 C21 0.930 . S
C28 O8 1.257 . S
C28 O29 1.244 . S
O29 C28 1.244 . S
O30 C6 1.257 . S
O30 Zn9 2.019 . S
H31 C24 0.930 . S
H32 C11 0.930 . S
H33 C23 0.930 . S
Zn34 N38 2.020 . S
Zn34 O42 2.019 . S
Zn34 N44 2.119 1_556 S
Zn34 O52 1.975 . S
C35 N36 1.334 . S
C35 N39 1.336 . S
N36 C35 1.334 . S
N36 C37 1.334 . S
C37 N36 1.334 . S
C37 N38 1.336 . S
N38 Zn34 2.020 . S
N38 C37 1.336 . S
N38 N39 1.354 . S
N39 C35 1.336 . S
N39 N38 1.354 . S
N39 Zn43 2.020 . S
C40 O41 1.244 . S
C40 O64 1.257 . S
O41 C40 1.244 . S
O42 Zn34 2.019 . S
O42 C62 1.257 . S
Zn43 N39 2.020 . S
Zn43 O50 1.975 . S
Zn43 N59 2.119 . S
Zn43 O64 2.019 . S
N44 Zn34 2.119 1_554 S
N44 C46 1.334 . S
N44 C47 1.328 . S
C45 C46 1.391 . S
C45 N48 1.329 . S
C45 H66 0.930 . S
C46 N44 1.334 . S
C46 C45 1.391 . S
C46 H53 0.930 . S
C47 N44 1.328 . S
C47 C49 1.392 . S
C47 H54 0.930 . S
N48 C45 1.329 . S
N48 C49 1.331 . S
C49 C47 1.392 . S
C49 N48 1.331 . S
O50 Zn43 1.975 . S
O50 C51 1.252 . S
C51 O50 1.252 . S
C51 O52 1.252 . S
O52 Zn34 1.975 . S
O52 C51 1.252 . S
H53 C46 0.930 . S
H54 C47 0.930 . S
C55 C56 1.392 . S
C55 N59 1.328 . S
C55 H61 0.930 . S
C56 C55 1.392 . S
C56 N60 1.331 . S
C57 C58 1.391 . S
C57 N60 1.329 . S
C57 H67 0.930 . S
C58 C57 1.391 . S
C58 N59 1.334 . S
C58 H65 0.930 . S
N59 Zn43 2.119 . S
N59 C55 1.328 . S
N59 C58 1.334 . S
N60 C56 1.331 . S
N60 C57 1.329 . S
H61 C55 0.930 . S
C62 O42 1.257 . S
C62 O63 1.244 . S
O63 C62 1.244 . S
O64 C40 1.257 . S
O64 Zn43 2.019 . S
H65 C58 0.930 . S
H66 C45 0.930 . S
H67 C57 0.930 . S
Zn68 N72 2.020 . S
Zn68 O76 2.019 . S
Zn68 N78 2.119 . S
Zn68 O86 1.975 . S
C69 N70 1.334 . S
C69 N73 1.336 . S
N70 C69 1.334 . S
N70 C71 1.334 . S
C71 N70 1.334 . S
C71 N72 1.336 . S
N72 Zn68 2.020 . S
N72 C71 1.336 . S
N72 N73 1.354 . S
N73 C69 1.336 . S
N73 N72 1.354 . S
N73 Zn77 2.020 . S
C74 O75 1.244 . S
C74 O98 1.257 . S
O75 C74 1.244 . S
O76 Zn68 2.019 . S
O76 C96 1.257 . S
Zn77 N73 2.020 . S
Zn77 O84 1.975 . S
Zn77 N93 2.119 1_554 S
Zn77 O98 2.019 . S
N78 Zn68 2.119 . S
N78 C80 1.334 . S
N78 C81 1.328 . S
C79 C80 1.391 . S
C79 N82 1.329 . S
C79 H100 0.930 . S
C80 N78 1.334 . S
C80 C79 1.391 . S
C80 H87 0.930 . S
C81 N78 1.328 . S
C81 C83 1.392 . S
C81 H88 0.930 . S
N82 C79 1.329 . S
N82 C83 1.331 . S
C83 C81 1.392 . S
C83 N82 1.331 . S
O84 Zn77 1.975 . S
O84 C85 1.252 . S
C85 O84 1.252 . S
C85 O86 1.252 . S
O86 Zn68 1.975 . S
O86 C85 1.252 . S
H87 C80 0.930 . S
H88 C81 0.930 . S
C89 C90 1.392 . S
C89 N93 1.328 . S
C89 H95 0.930 . S
C90 C89 1.392 . S
C90 N94 1.331 . S
C91 C92 1.391 . S
C91 N94 1.329 . S
C91 H101 0.930 . S
C92 C91 1.391 . S
C92 N93 1.334 . S
C92 H99 0.930 . S
N93 Zn77 2.119 1_556 S
N93 C89 1.328 . S
N93 C92 1.334 . S
N94 C90 1.331 . S
N94 C91 1.329 . S
H95 C89 0.930 . S
C96 O76 1.257 . S
C96 O97 1.244 . S
O97 C96 1.244 . S
O98 C74 1.257 . S
O98 Zn77 2.019 . S
H99 C92 0.930 . S
H100 C79 0.930 . S
H101 C91 0.930 . S
Zn102 N106 2.020 . S
Zn102 O110 2.019 . S
Zn102 N112 2.119 . S
Zn102 O120 1.975 . S
C103 N104 1.334 . S
C103 N107 1.336 . S
N104 C103 1.334 . S
N104 C105 1.334 . S
C105 N104 1.334 . S
C105 N106 1.336 . S
N106 Zn102 2.020 . S
N106 C105 1.336 . S
N106 N107 1.354 . S
N107 C103 1.336 . S
N107 N106 1.354 . S
N107 Zn111 2.020 . S
C108 O109 1.244 . S
C108 O132 1.257 . S
O109 C108 1.244 . S
O110 Zn102 2.019 . S
O110 C130 1.257 . S
Zn111 N107 2.020 . S
Zn111 O118 1.975 . S
Zn111 N127 2.119 1_556 S
Zn111 O132 2.019 . S
N112 Zn102 2.119 . S
N112 C114 1.334 . S
N112 C115 1.328 . S
C113 C114 1.391 . S
C113 N116 1.329 . S
C113 H134 0.930 . S
C114 N112 1.334 . S
C114 C113 1.391 . S
C114 H121 0.930 . S
C115 N112 1.328 . S
C115 C117 1.392 . S
C115 H122 0.930 . S
N116 C113 1.329 . S
N116 C117 1.331 . S
C117 C115 1.392 . S
C117 N116 1.331 . S
O118 Zn111 1.975 . S
O118 C119 1.252 . S
C119 O118 1.252 . S
C119 O120 1.252 . S
O120 Zn102 1.975 . S
O120 C119 1.252 . S
H121 C114 0.930 . S
H122 C115 0.930 . S
C123 C124 1.392 . S
C123 N127 1.328 . S
C123 H129 0.930 . S
C124 C123 1.392 . S
C124 N128 1.331 . S
C125 C126 1.391 . S
C125 N128 1.329 . S
C125 H135 0.930 . S
C126 C125 1.391 . S
C126 N127 1.334 . S
C126 H133 0.930 . S
N127 Zn111 2.119 1_554 S
N127 C123 1.328 . S
N127 C126 1.334 . S
N128 C124 1.331 . S
N128 C125 1.329 . S
H129 C123 0.930 . S
C130 O110 1.257 . S
C130 O131 1.244 . S
O131 C130 1.244 . S
O132 C108 1.257 . S
O132 Zn111 2.019 . S
H133 C126 0.930 . S
H134 C113 0.930 . S
H135 C125 0.930 . S
Zn136 N140 2.020 . S
Zn136 O144 2.019 . S
Zn136 N146 2.119 . S
Zn136 O154 1.975 . S
C137 N138 1.334 . S
C137 N141 1.336 . S
N138 C137 1.334 . S
N138 C139 1.334 . S
C139 N138 1.334 . S
C139 N140 1.336 . S
N140 Zn136 2.020 . S
N140 C139 1.336 . S
N140 N141 1.354 . S
N141 C137 1.336 . S
N141 N140 1.354 . S
N141 Zn145 2.020 . S
C142 O143 1.244 . S
C142 O166 1.257 . S
O143 C142 1.244 . S
O144 Zn136 2.019 . S
O144 C164 1.257 . S
Zn145 N141 2.020 . S
Zn145 O152 1.975 . S
Zn145 N161 2.119 . S
Zn145 O166 2.019 . S
N146 Zn136 2.119 . S
N146 C148 1.334 . S
N146 C149 1.328 . S
C147 C148 1.391 . S
C147 N150 1.329 . S
C147 H168 0.930 . S
C148 N146 1.334 . S
C148 C147 1.391 . S
C148 H155 0.930 . S
C149 N146 1.328 . S
C149 C151 1.392 . S
C149 H156 0.930 . S
N150 C147 1.329 . S
N150 C151 1.331 . S
C151 C149 1.392 . S
C151 N150 1.331 . S
O152 Zn145 1.975 . S
O152 C153 1.252 . S
C153 O152 1.252 . S
C153 O154 1.252 . S
O154 Zn136 1.975 . S
O154 C153 1.252 . S
H155 C148 0.930 . S
H156 C149 0.930 . S
C157 C158 1.392 . S
C157 N161 1.328 . S
C157 H163 0.930 . S
C158 C157 1.392 . S
C158 N162 1.331 . S
C159 C160 1.391 . S
C159 N162 1.329 . S
C159 H169 0.930 . S
C160 C159 1.391 . S
C160 N161 1.334 . S
C160 H167 0.930 . S
N161 Zn145 2.119 . S
N161 C157 1.328 . S
N161 C160 1.334 . S
N162 C158 1.331 . S
N162 C159 1.329 . S
H163 C157 0.930 . S
C164 O144 1.257 . S
C164 O165 1.244 . S
O165 C164 1.244 . S
O166 C142 1.257 . S
O166 Zn145 2.019 . S
H167 C160 0.930 . S
H168 C147 0.930 . S
H169 C159 0.930 . S
Zn170 N174 2.020 . S
Zn170 O178 2.019 . S
Zn170 N180 2.119 . S
Zn170 O188 1.975 . S
C171 N172 1.334 . S
C171 N175 1.336 . S
N172 C171 1.334 . S
N172 C173 1.334 . S
C173 N172 1.334 . S
C173 N174 1.336 . S
N174 Zn170 2.020 . S
N174 C173 1.336 . S
N174 N175 1.354 . S
N175 C171 1.336 . S
N175 N174 1.354 . S
N175 Zn179 2.020 . S
C176 O177 1.244 . S
C176 O200 1.257 . S
O177 C176 1.244 . S
O178 Zn170 2.019 . S
O178 C198 1.257 . S
Zn179 N175 2.020 . S
Zn179 O186 1.975 . S
Zn179 N195 2.119 . S
Zn179 O200 2.019 . S
N180 Zn170 2.119 . S
N180 C182 1.334 . S
N180 C183 1.328 . S
C181 C182 1.391 . S
C181 N184 1.329 . S
C181 H202 0.930 . S
C182 N180 1.334 . S
C182 C181 1.391 . S
C182 H189 0.930 . S
C183 N180 1.328 . S
C183 C185 1.392 . S
C183 H190 0.930 . S
N184 C181 1.329 . S
N184 C185 1.331 . S
C185 C183 1.392 . S
C185 N184 1.331 . S
O186 Zn179 1.975 . S
O186 C187 1.252 . S
C187 O186 1.252 . S
C187 O188 1.252 . S
O188 Zn170 1.975 . S
O188 C187 1.252 . S
H189 C182 0.930 . S
H190 C183 0.930 . S
C191 C192 1.392 . S
C191 N195 1.328 . S
C191 H197 0.930 . S
C192 C191 1.392 . S
C192 N196 1.331 . S
C193 C194 1.391 . S
C193 N196 1.329 . S
C193 H203 0.930 . S
C194 C193 1.391 . S
C194 N195 1.334 . S
C194 H201 0.930 . S
N195 Zn179 2.119 . S
N195 C191 1.328 . S
N195 C194 1.334 . S
N196 C192 1.331 . S
N196 C193 1.329 . S
H197 C191 0.930 . S
C198 O178 1.257 . S
C198 O199 1.244 . S
O199 C198 1.244 . S
O200 C176 1.257 . S
O200 Zn179 2.019 . S
H201 C194 0.930 . S
H202 C181 0.930 . S
H203 C193 0.930 . S
Zn204 N208 2.020 . S
Zn204 O212 2.019 . S
Zn204 N214 2.119 . S
Zn204 O222 1.975 . S
C205 N206 1.334 . S
C205 N209 1.336 . S
N206 C205 1.334 . S
N206 C207 1.334 . S
C207 N206 1.334 . S
C207 N208 1.336 . S
N208 Zn204 2.020 . S
N208 C207 1.336 . S
N208 N209 1.354 . S
N209 C205 1.336 . S
N209 N208 1.354 . S
N209 Zn213 2.020 . S
C210 O211 1.244 . S
C210 O234 1.257 . S
O211 C210 1.244 . S
O212 Zn204 2.019 . S
O212 C232 1.257 . S
Zn213 N209 2.020 . S
Zn213 O220 1.975 . S
Zn213 N229 2.119 . S
Zn213 O234 2.019 . S
N214 Zn204 2.119 . S
N214 C216 1.334 . S
N214 C217 1.328 . S
C215 C216 1.391 . S
C215 N218 1.329 . S
C215 H236 0.930 . S
C216 N214 1.334 . S
C216 C215 1.391 . S
C216 H223 0.930 . S
C217 N214 1.328 . S
C217 C219 1.392 . S
C217 H224 0.930 . S
N218 C215 1.329 . S
N218 C219 1.331 . S
C219 C217 1.392 . S
C219 N218 1.331 . S
O220 Zn213 1.975 . S
O220 C221 1.252 . S
C221 O220 1.252 . S
C221 O222 1.252 . S
O222 Zn204 1.975 . S
O222 C221 1.252 . S
H223 C216 0.930 . S
H224 C217 0.930 . S
C225 C226 1.392 . S
C225 N229 1.328 . S
C225 H231 0.930 . S
C226 C225 1.392 . S
C226 N230 1.331 . S
C227 C228 1.391 . S
C227 N230 1.329 . S
C227 H237 0.930 . S
C228 C227 1.391 . S
C228 N229 1.334 . S
C228 H235 0.930 . S
N229 Zn213 2.119 . S
N229 C225 1.328 . S
N229 C228 1.334 . S
N230 C226 1.331 . S
N230 C227 1.329 . S
H231 C225 0.930 . S
C232 O212 1.257 . S
C232 O233 1.244 . S
O233 C232 1.244 . S
O234 C210 1.257 . S
O234 Zn213 2.019 . S
H235 C228 0.930 . S
H236 C215 0.930 . S
H237 C227 0.930 . S
Zn238 N242 2.020 . S
Zn238 O246 2.019 . S
Zn238 N248 2.119 . S
Zn238 O256 1.975 . S
C239 N240 1.334 . S
C239 N243 1.336 . S
N240 C239 1.334 . S
N240 C241 1.334 . S
C241 N240 1.334 . S
C241 N242 1.336 . S
N242 Zn238 2.020 . S
N242 C241 1.336 . S
N242 N243 1.354 . S
N243 C239 1.336 . S
N243 N242 1.354 . S
N243 Zn247 2.020 . S
C244 O245 1.244 . S
C244 O268 1.257 . S
O245 C244 1.244 . S
O246 Zn238 2.019 . S
O246 C266 1.257 . S
Zn247 N243 2.020 . S
Zn247 O254 1.975 . S
Zn247 N263 2.119 . S
Zn247 O268 2.019 . S
N248 Zn238 2.119 . S
N248 C250 1.334 . S
N248 C251 1.328 . S
C249 C250 1.391 . S
C249 N252 1.329 . S
C249 H270 0.930 . S
C250 N248 1.334 . S
C250 C249 1.391 . S
C250 H257 0.930 . S
C251 N248 1.328 . S
C251 C253 1.392 . S
C251 H258 0.930 . S
N252 C249 1.329 . S
N252 C253 1.331 . S
C253 C251 1.392 . S
C253 N252 1.331 . S
O254 Zn247 1.975 . S
O254 C255 1.252 . S
C255 O254 1.252 . S
C255 O256 1.252 . S
O256 Zn238 1.975 . S
O256 C255 1.252 . S
H257 C250 0.930 . S
H258 C251 0.930 . S
C259 C260 1.392 . S
C259 N263 1.328 . S
C259 H265 0.930 . S
C260 C259 1.392 . S
C260 N264 1.331 . S
C261 C262 1.391 . S
C261 N264 1.329 . S
C261 H271 0.930 . S
C262 C261 1.391 . S
C262 N263 1.334 . S
C262 H269 0.930 . S
N263 Zn247 2.119 . S
N263 C259 1.328 . S
N263 C262 1.334 . S
N264 C260 1.331 . S
N264 C261 1.329 . S
H265 C259 0.930 . S
C266 O246 1.257 . S
C266 O267 1.244 . S
O267 C266 1.244 . S
O268 C244 1.257 . S
O268 Zn247 2.019 . S
H269 C262 0.930 . S
H270 C249 0.930 . S
H271 C261 0.930 . S
H272 C280 0.929 . S
H273 C282 0.930 . S
H274 C284 0.930 . S
H275 C287 0.929 . S
H276 C290 0.930 . S
H277 C292 0.960 . S
H278 C292 0.960 . S
H279 C292 0.960 . S
C280 H272 0.929 . S
C280 C281 1.409 . S
C280 C282 1.384 . S
C281 C280 1.409 . S
C281 C287 1.384 1_565 S
C282 H273 0.930 . S
C282 C280 1.384 . S
C282 C283 1.372 . S
C283 C282 1.372 . S
C283 C284 1.400 . S
C283 C288 1.490 . S
C284 H274 0.930 . S
C284 C283 1.400 . S
C284 C287 1.386 1_565 S
H285 C301 0.930 . S
H286 C302 0.931 . S
C287 H275 0.929 . S
C287 C281 1.384 1_545 S
C287 C284 1.386 1_545 S
C288 C283 1.490 . S
C288 C290 1.395 . S
C288 C291 1.403 . S
H289 C295 0.930 . S
C290 H276 0.930 . S
C290 C288 1.395 . S
C290 C293 1.403 . S
C291 C288 1.403 . S
C291 C292 1.524 . S
C291 C295 1.400 . S
C292 H277 0.960 . S
C292 H278 0.960 . S
C292 H279 0.960 . S
C292 C291 1.524 . S
C293 C290 1.403 . S
C293 C294 1.392 . S
C293 C297 1.495 . S
C294 C293 1.392 . S
C294 C295 1.385 . S
C294 C296 1.478 . S
C295 H289 0.930 . S
C295 C291 1.400 . S
C295 C294 1.385 . S
C296 C294 1.478 . S
C296 C298 1.381 . S
C296 C302 1.383 . S
C297 C293 1.495 . S
C297 H303 0.959 . S
C297 H304 0.961 . S
C297 H305 0.960 . S
C298 C296 1.381 . S
C298 C299 1.394 . S
C298 H306 0.930 . S
C299 C298 1.394 . S
C299 C300 1.383 . S
C299 H307 0.929 . S
C300 C299 1.383 . S
C300 C301 1.377 . S
C301 H285 0.930 . S
C301 C300 1.377 . S
C301 C302 1.379 . S
C302 H286 0.931 . S
C302 C296 1.383 . S
C302 C301 1.379 . S
H303 C297 0.959 . S
H304 C297 0.961 . S
H305 C297 0.960 . S
H306 C298 0.930 . S
H307 C299 0.929 . S
H308 C316 0.929 1_455 S
H309 C318 0.930 . S
H310 C320 0.930 . S
H311 C323 0.929 . S
H312 C326 0.930 . S
H313 C328 0.960 . S
H314 C328 0.960 . S
H315 C328 0.960 . S
C316 H308 0.929 1_655 S
C316 C317 1.379 . S
C316 C318 1.384 . S
C317 C316 1.379 . S
C317 C323 1.409 . S
C318 H309 0.930 . S
C318 C316 1.384 . S
C318 C319 1.372 . S
C319 C318 1.372 . S
C319 C320 1.400 . S
C319 C324 1.490 . S
C320 H310 0.930 . S
C320 C319 1.400 . S
C320 C323 1.386 . S
H321 C337 0.930 . S
H322 C338 0.931 . S
C323 H311 0.929 . S
C323 C317 1.409 . S
C323 C320 1.386 . S
C324 C319 1.490 . S
C324 C326 1.395 . S
C324 C327 1.403 . S
H325 C331 0.930 . S
C326 H312 0.930 . S
C326 C324 1.395 . S
C326 C329 1.403 . S
C327 C324 1.403 . S
C327 C328 1.524 . S
C327 C331 1.400 . S
C328 H313 0.960 . S
C328 H314 0.960 . S
C328 H315 0.960 . S
C328 C327 1.524 . S
C329 C326 1.403 . S
C329 C330 1.392 . S
C329 C333 1.495 . S
C330 C329 1.392 . S
C330 C331 1.385 . S
C330 C332 1.478 . S
C331 H325 0.930 . S
C331 C327 1.400 . S
C331 C330 1.385 . S
C332 C330 1.478 . S
C332 C334 1.381 . S
C332 C338 1.383 . S
C333 C329 1.495 . S
C333 H339 0.959 . S
C333 H340 0.961 . S
C333 H341 0.960 . S
C334 C332 1.381 . S
C334 C335 1.394 . S
C334 H342 0.930 . S
C335 C334 1.394 . S
C335 C336 1.383 . S
C335 H343 0.929 . S
C336 C335 1.383 . S
C336 C337 1.377 . S
C337 H321 0.930 . S
C337 C336 1.377 . S
C337 C338 1.379 . S
C338 H322 0.931 . S
C338 C332 1.383 . S
C338 C337 1.379 . S
H339 C333 0.959 . S
H340 C333 0.961 . S
H341 C333 0.960 . S
H342 C334 0.930 . S
H343 C335 0.929 . S
H344 C352 0.929 . S
H345 C354 0.930 . S
H346 C356 0.930 . S
H347 C359 0.929 . S
H348 C362 0.930 . S
H349 C364 0.960 . S
H350 C364 0.960 . S
H351 C364 0.960 . S
C352 H344 0.929 . S
C352 C353 1.377 . S
C352 C354 1.384 . S
C353 C352 1.377 . S
C353 C359 1.390 . S
C354 H345 0.930 . S
C354 C352 1.384 . S
C354 C355 1.372 . S
C355 C354 1.372 . S
C355 C356 1.400 . S
C355 C360 1.490 . S
C356 H346 0.930 . S
C356 C355 1.400 . S
C356 C359 1.386 . S
H357 C373 0.930 . S
H358 C374 0.931 . S
C359 H347 0.929 . S
C359 C353 1.390 . S
C359 C356 1.386 . S
C360 C355 1.490 . S
C360 C362 1.395 . S
C360 C363 1.403 . S
H361 C367 0.930 . S
C362 H348 0.930 . S
C362 C360 1.395 . S
C362 C365 1.403 . S
C363 C360 1.403 . S
C363 C364 1.524 . S
C363 C367 1.400 . S
C364 H349 0.960 . S
C364 H350 0.960 . S
C364 H351 0.960 . S
C364 C363 1.524 . S
C365 C362 1.403 . S
C365 C366 1.392 . S
C365 C369 1.495 . S
C366 C365 1.392 . S
C366 C367 1.385 . S
C366 C368 1.478 . S
C367 H361 0.930 . S
C367 C363 1.400 . S
C367 C366 1.385 . S
C368 C366 1.478 . S
C368 C370 1.381 . S
C368 C374 1.383 . S
C369 C365 1.495 . S
C369 H375 0.959 . S
C369 H376 0.961 . S
C369 H377 0.960 . S
C370 C368 1.381 . S
C370 C371 1.394 1_545 S
C370 H378 0.930 . S
C371 C370 1.394 1_565 S
C371 C372 1.383 . S
C371 H379 0.929 . S
C372 C371 1.383 . S
C372 C373 1.378 1_565 S
C373 H357 0.930 . S
C373 C372 1.378 1_545 S
C373 C374 1.379 . S
C374 H358 0.931 . S
C374 C368 1.383 . S
C374 C373 1.379 . S
H375 C369 0.959 . S
H376 C369 0.961 . S
H377 C369 0.960 . S
H378 C370 0.930 . S
H379 C371 0.929 . S
H380 C388 0.929 . S
H381 C390 0.930 . S
H382 C392 0.930 . S
H383 C395 0.929 1_655 S
H384 C398 0.930 . S
H385 C400 0.960 . S
H386 C400 0.960 . S
H387 C400 0.960 . S
C388 H380 0.929 . S
C388 C389 1.401 . S
C388 C390 1.384 . S
C389 C388 1.401 . S
C389 C395 1.395 . S
C390 H381 0.930 . S
C390 C388 1.384 . S
C390 C391 1.372 . S
C391 C390 1.372 . S
C391 C392 1.400 . S
C391 C396 1.490 . S
C392 H382 0.930 . S
C392 C391 1.400 . S
C392 C395 1.386 . S
H393 C409 0.930 . S
H394 C410 0.931 . S
C395 H383 0.929 1_455 S
C395 C389 1.395 . S
C395 C392 1.386 . S
C396 C391 1.490 . S
C396 C398 1.395 . S
C396 C399 1.403 . S
H397 C403 0.930 . S
C398 H384 0.930 . S
C398 C396 1.395 . S
C398 C401 1.403 . S
C399 C396 1.403 . S
C399 C400 1.524 . S
C399 C403 1.400 . S
C400 H385 0.960 . S
C400 H386 0.960 . S
C400 H387 0.960 . S
C400 C399 1.524 . S
C401 C398 1.403 . S
C401 C402 1.392 . S
C401 C405 1.495 . S
C402 C401 1.392 . S
C402 C403 1.385 . S
C402 C404 1.478 . S
C403 H397 0.930 . S
C403 C399 1.400 . S
C403 C402 1.385 . S
C404 C402 1.478 . S
C404 C406 1.381 . S
C404 C410 1.383 . S
C405 C401 1.495 . S
C405 H411 0.959 . S
C405 H412 0.961 . S
C405 H413 0.960 . S
C406 C404 1.381 . S
C406 C407 1.394 . S
C406 H414 0.930 . S
C407 C406 1.394 . S
C407 C408 1.383 . S
C407 H415 0.929 . S
C408 C407 1.383 . S
C408 C409 1.377 . S
C409 H393 0.930 . S
C409 C408 1.377 . S
C409 C410 1.379 . S
C410 H394 0.931 . S
C410 C404 1.383 . S
C410 C409 1.379 . S
H411 C405 0.959 . S
H412 C405 0.961 . S
H413 C405 0.960 . S
H414 C406 0.930 . S
H415 C407 0.929 . S
H416 C424 0.929 . S
H417 C426 0.930 . S
H418 C428 0.930 . S
H419 C431 0.929 . S
H420 C434 0.930 . S
H421 C436 0.960 . S
H422 C436 0.960 . S
H423 C436 0.960 . S
C424 H416 0.929 . S
C424 C425 1.377 . S
C424 C426 1.384 . S
C425 C424 1.377 . S
C425 C431 1.390 . S
C426 H417 0.930 . S
C426 C424 1.384 . S
C426 C427 1.372 . S
C427 C426 1.372 . S
C427 C428 1.400 . S
C427 C432 1.490 . S
C428 H418 0.930 . S
C428 C427 1.400 . S
C428 C431 1.386 . S
H429 C445 0.930 . S
H430 C446 0.931 . S
C431 H419 0.929 . S
C431 C425 1.390 . S
C431 C428 1.386 . S
C432 C427 1.490 . S
C432 C434 1.395 . S
C432 C435 1.403 . S
H433 C439 0.930 . S
C434 H420 0.930 . S
C434 C432 1.395 . S
C434 C437 1.403 . S
C435 C432 1.403 . S
C435 C436 1.524 . S
C435 C439 1.400 . S
C436 H421 0.960 . S
C436 H422 0.960 . S
C436 H423 0.960 . S
C436 C435 1.524 . S
C437 C434 1.403 . S
C437 C438 1.392 . S
C437 C441 1.495 . S
C438 C437 1.392 . S
C438 C439 1.385 . S
C438 C440 1.478 . S
C439 H433 0.930 . S
C439 C435 1.400 . S
C439 C438 1.385 . S
C440 C438 1.478 . S
C440 C442 1.381 . S
C440 C446 1.383 . S
C441 C437 1.495 . S
C441 H447 0.959 . S
C441 H448 0.961 . S
C441 H449 0.960 . S
C442 C440 1.381 . S
C442 C443 1.394 . S
C442 H450 0.930 . S
C443 C442 1.394 . S
C443 C444 1.383 . S
C443 H451 0.929 . S
C444 C443 1.383 . S
C444 C445 1.377 . S
C445 H429 0.930 . S
C445 C444 1.377 . S
C445 C446 1.379 . S
C446 H430 0.931 . S
C446 C440 1.383 . S
C446 C445 1.379 . S
H447 C441 0.959 . S
H448 C441 0.961 . S
H449 C441 0.960 . S
H450 C442 0.930 . S
H451 C443 0.929 . S
H452 C460 0.929 . S
H453 C462 0.930 . S
H454 C464 0.930 . S
H455 C467 0.929 . S
H456 C470 0.930 . S
H457 C472 0.960 . S
H458 C472 0.960 . S
H459 C472 0.960 . S
C460 H452 0.929 . S
C460 C461 1.377 . S
C460 C462 1.384 . S
C461 C460 1.377 . S
C461 C467 1.390 . S
C462 H453 0.930 . S
C462 C460 1.384 . S
C462 C463 1.372 . S
C463 C462 1.372 . S
C463 C464 1.400 . S
C463 C468 1.490 . S
C464 H454 0.930 . S
C464 C463 1.400 . S
C464 C467 1.386 . S
H465 C481 0.930 . S
H466 C482 0.931 . S
C467 H455 0.929 . S
C467 C461 1.390 . S
C467 C464 1.386 . S
C468 C463 1.490 . S
C468 C470 1.395 . S
C468 C471 1.403 . S
H469 C475 0.930 . S
C470 H456 0.930 . S
C470 C468 1.395 . S
C470 C473 1.403 . S
C471 C468 1.403 . S
C471 C472 1.524 . S
C471 C475 1.400 . S
C472 H457 0.960 . S
C472 H458 0.960 . S
C472 H459 0.960 . S
C472 C471 1.524 . S
C473 C470 1.403 . S
C473 C474 1.392 . S
C473 C477 1.495 . S
C474 C473 1.392 . S
C474 C475 1.385 . S
C474 C476 1.478 . S
C475 H469 0.930 . S
C475 C471 1.400 . S
C475 C474 1.385 . S
C476 C474 1.478 . S
C476 C478 1.381 . S
C476 C482 1.383 . S
C477 C473 1.495 . S
C477 H483 0.959 . S
C477 H484 0.961 . S
C477 H485 0.960 . S
C478 C476 1.381 . S
C478 C479 1.394 . S
C478 H486 0.930 . S
C479 C478 1.394 . S
C479 C480 1.383 . S
C479 H487 0.929 . S
C480 C479 1.383 . S
C480 C481 1.377 . S
C481 H465 0.930 . S
C481 C480 1.377 . S
C481 C482 1.379 . S
C482 H466 0.931 . S
C482 C476 1.383 . S
C482 C481 1.379 . S
H483 C477 0.959 . S
H484 C477 0.961 . S
H485 C477 0.960 . S
H486 C478 0.930 . S
H487 C479 0.929 . S
H488 C496 0.929 . S
H489 C498 0.930 . S
H490 C500 0.930 . S
H491 C503 0.929 . S
H492 C506 0.930 . S
H493 C508 0.960 . S
H494 C508 0.960 . S
H495 C508 0.960 . S
C496 H488 0.929 . S
C496 C497 1.377 . S
C496 C498 1.384 . S
C497 C496 1.377 . S
C497 C503 1.390 . S
C498 H489 0.930 . S
C498 C496 1.384 . S
C498 C499 1.372 . S
C499 C498 1.372 . S
C499 C500 1.400 . S
C499 C504 1.490 . S
C500 H490 0.930 . S
C500 C499 1.400 . S
C500 C503 1.386 . S
H501 C517 0.930 . S
H502 C518 0.931 . S
C503 H491 0.929 . S
C503 C497 1.390 . S
C503 C500 1.386 . S
C504 C499 1.490 . S
C504 C506 1.395 . S
C504 C507 1.403 . S
H505 C511 0.930 . S
C506 H492 0.930 . S
C506 C504 1.395 . S
C506 C509 1.403 . S
C507 C504 1.403 . S
C507 C508 1.524 . S
C507 C511 1.400 . S
C508 H493 0.960 . S
C508 H494 0.960 . S
C508 H495 0.960 . S
C508 C507 1.524 . S
C509 C506 1.403 . S
C509 C510 1.392 . S
C509 C513 1.495 . S
C510 C509 1.392 . S
C510 C511 1.385 . S
C510 C512 1.478 . S
C511 H505 0.930 . S
C511 C507 1.400 . S
C511 C510 1.385 . S
C512 C510 1.478 . S
C512 C514 1.381 . S
C512 C518 1.383 . S
C513 C509 1.495 . S
C513 H519 0.959 . S
C513 H520 0.961 . S
C513 H521 0.960 . S
C514 C512 1.381 . S
C514 C515 1.394 . S
C514 H522 0.930 . S
C515 C514 1.394 . S
C515 C516 1.383 . S
C515 H523 0.929 . S
C516 C515 1.383 . S
C516 C517 1.377 . S
C517 H501 0.930 . S
C517 C516 1.377 . S
C517 C518 1.379 . S
C518 H502 0.931 . S
C518 C512 1.383 . S
C518 C517 1.379 . S
H519 C513 0.959 . S
H520 C513 0.961 . S
H521 C513 0.960 . S
H522 C514 0.930 . S
H523 C515 0.929 . S
H524 C532 0.929 . S
H525 C534 0.930 . S
H526 C536 0.930 . S
H527 C539 0.929 . S
H528 C542 0.930 . S
H529 C544 0.960 . S
H530 C544 0.960 . S
H531 C544 0.960 . S
C532 H524 0.929 . S
C532 C533 1.377 . S
C532 C534 1.384 . S
C533 C532 1.377 . S
C533 C539 1.390 . S
C534 H525 0.930 . S
C534 C532 1.384 . S
C534 C535 1.372 . S
C535 C534 1.372 . S
C535 C536 1.400 . S
C535 C540 1.490 . S
C536 H526 0.930 . S
C536 C535 1.400 . S
C536 C539 1.386 . S
H537 C553 0.930 . S
H538 C554 0.931 . S
C539 H527 0.929 . S
C539 C533 1.390 . S
C539 C536 1.386 . S
C540 C535 1.490 . S
C540 C542 1.395 . S
C540 C543 1.403 . S
H541 C547 0.930 . S
C542 H528 0.930 . S
C542 C540 1.395 . S
C542 C545 1.403 . S
C543 C540 1.403 . S
C543 C544 1.524 . S
C543 C547 1.400 . S
C544 H529 0.960 . S
C544 H530 0.960 . S
C544 H531 0.960 . S
C544 C543 1.524 . S
C545 C542 1.403 . S
C545 C546 1.392 . S
C545 C549 1.495 . S
C546 C545 1.392 . S
C546 C547 1.385 . S
C546 C548 1.478 . S
C547 H541 0.930 . S
C547 C543 1.400 . S
C547 C546 1.385 . S
C548 C546 1.478 . S
C548 C550 1.381 . S
C548 C554 1.383 . S
C549 C545 1.495 . S
C549 H555 0.959 . S
C549 H556 0.961 . S
C549 H557 0.960 . S
C550 C548 1.381 . S
C550 C551 1.394 . S
C550 H558 0.930 . S
C551 C550 1.394 . S
C551 C552 1.383 . S
C551 H559 0.929 . S
C552 C551 1.383 . S
C552 C553 1.377 . S
C553 H537 0.930 . S
C553 C552 1.377 . S
C553 C554 1.379 . S
C554 H538 0.931 . S
C554 C548 1.383 . S
C554 C553 1.379 . S
H555 C549 0.959 . S
H556 C549 0.961 . S
H557 C549 0.960 . S
H558 C550 0.930 . S
H559 C551 0.929 . S
H560 C568 0.929 . S
H561 C570 0.930 . S
H562 C572 0.930 1_556 S
H563 C575 0.929 1_556 S
H564 C578 0.930 . S
H565 C580 0.960 . S
H566 C580 0.960 . S
H567 C580 0.960 1_556 S
C568 H560 0.929 . S
C568 C569 1.377 . S
C568 C570 1.384 . S
C569 C568 1.377 . S
C569 C575 1.390 . S
C570 H561 0.930 . S
C570 C568 1.384 . S
C570 C571 1.372 . S
C571 C570 1.372 . S
C571 C572 1.400 . S
C571 C576 1.490 . S
C572 H562 0.930 1_554 S
C572 C571 1.400 . S
C572 C575 1.386 . S
H573 C589 0.930 1_556 S
H574 C590 0.931 1_556 S
C575 H563 0.929 1_554 S
C575 C569 1.390 . S
C575 C572 1.386 . S
C576 C571 1.490 . S
C576 C578 1.395 1_545 S
C576 C579 1.403 . S
H577 C583 0.930 . S
C578 H564 0.930 . S
C578 C576 1.395 1_565 S
C578 C581 1.403 . S
C579 C576 1.403 . S
C579 C580 1.524 . S
C579 C583 1.400 . S
C580 H565 0.960 . S
C580 H566 0.960 . S
C580 H567 0.960 1_554 S
C580 C579 1.524 . S
C581 C578 1.403 . S
C581 C582 1.392 . S
C581 C585 1.495 . S
C582 C581 1.392 . S
C582 C583 1.385 1_565 S
C582 C584 1.478 . S
C583 H577 0.930 . S
C583 C579 1.400 . S
C583 C582 1.385 1_545 S
C584 C582 1.478 . S
C584 C586 1.381 . S
C584 C590 1.383 . S
C585 C581 1.495 . S
C585 H591 0.959 . S
C585 H592 0.961 . S
C585 H593 0.960 . S
C586 C584 1.381 . S
C586 C587 1.394 . S
C586 H594 0.930 . S
C587 C586 1.394 . S
C587 C588 1.383 . S
C587 H595 0.929 . S
C588 C587 1.383 . S
C588 C589 1.377 . S
C589 H573 0.930 1_554 S
C589 C588 1.377 . S
C589 C590 1.379 . S
C590 H574 0.931 1_554 S
C590 C584 1.383 . S
C590 C589 1.379 . S
H591 C585 0.959 . S
H592 C585 0.961 . S
H593 C585 0.960 . S
H594 C586 0.930 . S
H595 C587 0.929 . S
H596 C604 0.929 . S
H597 C606 0.930 . S
H598 C608 0.930 1_455 S
H599 C611 0.929 . S
H600 C614 0.930 . S
H601 C616 0.960 . S
H602 C616 0.960 . S
H603 C616 0.960 . S
C604 H596 0.929 . S
C604 C605 1.377 . S
C604 C606 1.384 . S
C605 C604 1.377 . S
C605 C611 1.390 . S
C606 H597 0.930 . S
C606 C604 1.384 . S
C606 C607 1.372 . S
C607 C606 1.372 . S
C607 C608 1.400 . S
C607 C612 1.490 . S
C608 H598 0.930 1_655 S
C608 C607 1.400 . S
C608 C611 1.386 . S
H609 C625 0.943 . S
H610 C626 0.931 1_554 S
C611 H599 0.929 . S
C611 C605 1.390 . S
C611 C608 1.386 . S
C612 C607 1.490 . S
C612 C614 1.395 . S
C612 C615 1.403 1_655 S
H613 C619 0.930 . S
C614 H600 0.930 . S
C614 C612 1.395 . S
C614 C617 1.403 . S
C615 C612 1.403 1_455 S
C615 C616 1.524 . S
C615 C619 1.400 . S
C616 H601 0.960 . S
C616 H602 0.960 . S
C616 H603 0.960 . S
C616 C615 1.524 . S
C617 C614 1.403 . S
C617 C618 1.392 1_655 S
C617 C621 1.488 1_556 S
C618 C617 1.392 1_455 S
C618 C619 1.385 . S
C618 C620 1.478 . S
C619 H613 0.930 . S
C619 C615 1.400 . S
C619 C618 1.385 . S
C620 C618 1.478 . S
C620 C622 1.381 . S
C620 C626 1.383 . S
C621 C617 1.488 1_554 S
C621 H627 0.964 . S
C621 H628 0.973 . S
C621 H629 0.950 1_554 S
C622 C620 1.381 . S
C622 C623 1.394 . S
C622 H630 0.930 1_455 S
C623 C622 1.394 . S
C623 C624 1.383 . S
C623 H631 0.929 . S
C624 C623 1.383 . S
C624 C625 1.377 . S
C625 H609 0.943 . S
C625 C624 1.377 . S
C625 C626 1.379 . S
C626 H610 0.931 1_556 S
C626 C620 1.383 . S
C626 C625 1.379 . S
H627 C621 0.964 . S
H628 C621 0.973 . S
H629 C621 0.950 1_556 S
H630 C622 0.930 1_655 S
H631 C623 0.929 . S
H632 C640 0.929 . S
H633 C642 0.930 . S
H634 C644 0.930 . S
H635 C647 0.929 . S
H636 C650 0.930 . S
H637 C652 0.960 . S
H638 C652 0.960 . S
H639 C652 0.960 . S
C640 H632 0.929 . S
C640 C641 1.377 . S
C640 C642 1.384 . S
C641 C640 1.377 . S
C641 C647 1.390 . S
C642 H633 0.930 . S
C642 C640 1.384 . S
C642 C643 1.372 . S
C643 C642 1.372 . S
C643 C644 1.400 . S
C643 C648 1.490 . S
C644 H634 0.930 . S
C644 C643 1.400 . S
C644 C647 1.386 . S
H645 C661 0.930 . S
H646 C662 0.931 . S
C647 H635 0.929 . S
C647 C641 1.390 . S
C647 C644 1.386 . S
C648 C643 1.490 . S
C648 C650 1.395 . S
C648 C651 1.403 . S
H649 C655 0.930 . S
C650 H636 0.930 . S
C650 C648 1.395 . S
C650 C653 1.403 1_655 S
C651 C648 1.403 . S
C651 C652 1.524 . S
C651 C655 1.400 1_655 S
C652 H637 0.960 . S
C652 H638 0.960 . S
C652 H639 0.960 . S
C652 C651 1.524 . S
C653 C650 1.403 1_455 S
C653 C654 1.392 . S
C653 C657 1.495 . S
C654 C653 1.392 . S
C654 C655 1.385 . S
C654 C656 1.478 . S
C655 H649 0.930 . S
C655 C651 1.400 1_455 S
C655 C654 1.385 . S
C656 C654 1.478 . S
C656 C658 1.381 . S
C656 C662 1.383 . S
C657 C653 1.495 . S
C657 H663 0.959 . S
C657 H664 0.961 . S
C657 H665 0.960 . S
C658 C656 1.381 . S
C658 C659 1.394 . S
C658 H666 0.930 . S
C659 C658 1.394 . S
C659 C660 1.383 . S
C659 H667 0.929 . S
C660 C659 1.383 . S
C660 C661 1.377 . S
C661 H645 0.930 . S
C661 C660 1.377 . S
C661 C662 1.379 . S
C662 H646 0.931 . S
C662 C656 1.383 . S
C662 C661 1.379 . S
H663 C657 0.959 . S
H664 C657 0.961 . S
H665 C657 0.960 . S
H666 C658 0.930 . S
H667 C659 0.929 . S
H668 C676 0.929 . S
H669 C678 0.930 . S
H670 C680 0.930 . S
H671 C683 0.929 . S
H672 C686 0.930 . S
H673 C688 0.960 . S
H674 C688 0.960 . S
H675 C688 0.960 . S
C676 H668 0.929 . S
C676 C677 1.377 . S
C676 C678 1.384 . S
C677 C676 1.377 . S
C677 C683 1.390 . S
C678 H669 0.930 . S
C678 C676 1.384 . S
C678 C679 1.372 . S
C679 C678 1.372 . S
C679 C680 1.400 . S
C679 C684 1.490 . S
C680 H670 0.930 . S
C680 C679 1.400 . S
C680 C683 1.386 . S
H681 C697 0.930 . S
H682 C698 0.931 . S
C683 H671 0.929 . S
C683 C677 1.390 . S
C683 C680 1.386 . S
C684 C679 1.490 . S
C684 C686 1.395 . S
C684 C687 1.403 . S
H685 C691 0.930 . S
C686 H672 0.930 . S
C686 C684 1.395 . S
C686 C689 1.403 1_545 S
C687 C684 1.403 . S
C687 C688 1.524 . S
C687 C691 1.400 1_545 S
C688 H673 0.960 . S
C688 H674 0.960 . S
C688 H675 0.960 . S
C688 C687 1.524 . S
C689 C686 1.403 1_565 S
C689 C690 1.392 . S
C689 C693 1.495 . S
C690 C689 1.392 . S
C690 C691 1.385 . S
C690 C692 1.478 . S
C691 H685 0.930 . S
C691 C687 1.400 1_565 S
C691 C690 1.385 . S
C692 C690 1.478 . S
C692 C694 1.381 . S
C692 C698 1.383 . S
C693 C689 1.495 . S
C693 H699 0.959 . S
C693 H700 0.961 . S
C693 H701 0.960 . S
C694 C692 1.381 . S
C694 C695 1.394 . S
C694 H702 0.930 . S
C695 C694 1.394 . S
C695 C696 1.383 . S
C695 H703 0.929 . S
C696 C695 1.383 . S
C696 C697 1.377 . S
C697 H681 0.930 . S
C697 C696 1.377 . S
C697 C698 1.379 . S
C698 H682 0.931 . S
C698 C692 1.383 . S
C698 C697 1.379 . S
H699 C693 0.959 . S
H700 C693 0.961 . S
H701 C693 0.960 . S
H702 C694 0.930 . S
H703 C695 0.929 . S
H704 C712 0.929 . S
H705 C714 0.930 . S
H706 C716 0.930 . S
H707 C719 0.929 . S
H708 C722 0.930 . S
H709 C724 0.960 . S
H710 C724 0.960 . S
H711 C724 0.960 . S
C712 H704 0.929 . S
C712 C713 1.377 . S
C712 C714 1.384 . S
C713 C712 1.377 . S
C713 C719 1.390 . S
C714 H705 0.930 . S
C714 C712 1.384 . S
C714 C715 1.372 . S
C715 C714 1.372 . S
C715 C716 1.400 . S
C715 C720 1.490 . S
C716 H706 0.930 . S
C716 C715 1.400 . S
C716 C719 1.386 . S
H717 C733 0.930 . S
H718 C734 0.931 . S
C719 H707 0.929 . S
C719 C713 1.390 . S
C719 C716 1.386 . S
C720 C715 1.490 . S
C720 C722 1.395 . S
C720 C723 1.403 . S
H721 C727 0.930 . S
C722 H708 0.930 . S
C722 C720 1.395 . S
C722 C725 1.403 . S
C723 C720 1.403 . S
C723 C724 1.524 . S
C723 C727 1.400 . S
C724 H709 0.960 . S
C724 H710 0.960 . S
C724 H711 0.960 . S
C724 C723 1.524 . S
C725 C722 1.403 . S
C725 C726 1.392 . S
C725 C729 1.495 . S
C726 C725 1.392 . S
C726 C727 1.385 . S
C726 C728 1.478 . S
C727 H721 0.930 . S
C727 C723 1.400 . S
C727 C726 1.385 . S
C728 C726 1.478 . S
C728 C730 1.381 . S
C728 C734 1.383 . S
C729 C725 1.495 . S
C729 H735 0.959 . S
C729 H736 0.961 . S
C729 H737 0.960 . S
C730 C728 1.381 . S
C730 C731 1.394 . S
C730 H738 0.930 . S
C731 C730 1.394 . S
C731 C732 1.383 . S
C731 H739 0.929 . S
C732 C731 1.383 . S
C732 C733 1.377 . S
C733 H717 0.930 . S
C733 C732 1.377 . S
C733 C734 1.379 . S
C734 H718 0.931 . S
C734 C728 1.383 . S
C734 C733 1.379 . S
H735 C729 0.959 . S
H736 C729 0.961 . S
H737 C729 0.960 . S
H738 C730 0.930 . S
H739 C731 0.929 . S
H740 C748 0.929 . S
H741 C750 0.930 . S
H742 C752 0.930 . S
H743 C755 0.929 . S
H744 C758 0.930 . S
H745 C760 0.960 . S
H746 C760 0.960 . S
H747 C760 0.960 . S
C748 H740 0.929 . S
C748 C749 1.377 . S
C748 C750 1.384 . S
C749 C748 1.377 . S
C749 C755 1.390 . S
C750 H741 0.930 . S
C750 C748 1.384 . S
C750 C751 1.372 . S
C751 C750 1.372 . S
C751 C752 1.400 . S
C751 C756 1.490 . S
C752 H742 0.930 . S
C752 C751 1.400 . S
C752 C755 1.386 . S
H753 C769 0.930 . S
H754 C770 0.931 . S
C755 H743 0.929 . S
C755 C749 1.390 . S
C755 C752 1.386 . S
C756 C751 1.490 . S
C756 C758 1.395 . S
C756 C759 1.403 . S
H757 C763 0.930 . S
C758 H744 0.930 . S
C758 C756 1.395 . S
C758 C761 1.403 . S
C759 C756 1.403 . S
C759 C760 1.524 . S
C759 C763 1.400 . S
C760 H745 0.960 . S
C760 H746 0.960 . S
C760 H747 0.960 . S
C760 C759 1.524 . S
C761 C758 1.403 . S
C761 C762 1.392 . S
C761 C765 1.495 . S
C762 C761 1.392 . S
C762 C763 1.385 . S
C762 C764 1.478 . S
C763 H757 0.930 . S
C763 C759 1.400 . S
C763 C762 1.385 . S
C764 C762 1.478 . S
C764 C766 1.381 . S
C764 C770 1.383 . S
C765 C761 1.495 . S
C765 H771 0.959 . S
C765 H772 0.961 . S
C765 H773 0.960 . S
C766 C764 1.381 . S
C766 C767 1.394 . S
C766 H774 0.930 . S
C767 C766 1.394 . S
C767 C768 1.383 . S
C767 H775 0.929 . S
C768 C767 1.383 . S
C768 C769 1.377 . S
C769 H753 0.930 . S
C769 C768 1.377 . S
C769 C770 1.379 . S
C770 H754 0.931 . S
C770 C764 1.383 . S
C770 C769 1.379 . S
H771 C765 0.959 . S
H772 C765 0.961 . S
H773 C765 0.960 . S
H774 C766 0.930 . S
H775 C767 0.929 . S
H776 C784 0.929 . S
H777 C786 0.930 . S
H778 C788 0.930 . S
H779 C791 0.929 . S
H780 C794 0.930 . S
H781 C796 0.960 . S
H782 C796 0.960 . S
H783 C796 0.960 . S
C784 H776 0.929 . S
C784 C785 1.377 . S
C784 C786 1.384 . S
C785 C784 1.377 . S
C785 C791 1.390 . S
C786 H777 0.930 . S
C786 C784 1.384 . S
C786 C787 1.372 . S
C787 C786 1.372 . S
C787 C788 1.400 . S
C787 C792 1.490 . S
C788 H778 0.930 . S
C788 C787 1.400 . S
C788 C791 1.386 . S
H789 C805 0.930 . S
H790 C806 0.931 . S
C791 H779 0.929 . S
C791 C785 1.390 . S
C791 C788 1.386 . S
C792 C787 1.490 . S
C792 C794 1.395 . S
C792 C795 1.403 . S
H793 C799 0.930 . S
C794 H780 0.930 . S
C794 C792 1.395 . S
C794 C797 1.403 . S
C795 C792 1.403 . S
C795 C796 1.524 . S
C795 C799 1.400 . S
C796 H781 0.960 . S
C796 H782 0.960 . S
C796 H783 0.960 . S
C796 C795 1.524 . S
C797 C794 1.403 . S
C797 C798 1.392 . S
C797 C801 1.495 . S
C798 C797 1.392 . S
C798 C799 1.385 . S
C798 C800 1.478 . S
C799 H793 0.930 . S
C799 C795 1.400 . S
C799 C798 1.385 . S
C800 C798 1.478 . S
C800 C802 1.381 . S
C800 C806 1.383 . S
C801 C797 1.495 . S
C801 H807 0.959 . S
C801 H808 0.961 . S
C801 H809 0.960 . S
C802 C800 1.381 . S
C802 C803 1.394 . S
C802 H810 0.930 . S
C803 C802 1.394 . S
C803 C804 1.383 . S
C803 H811 0.929 . S
C804 C803 1.383 . S
C804 C805 1.377 . S
C805 H789 0.930 . S
C805 C804 1.377 . S
C805 C806 1.379 . S
C806 H790 0.931 . S
C806 C800 1.383 . S
C806 C805 1.379 . S
H807 C801 0.959 . S
H808 C801 0.961 . S
H809 C801 0.960 . S
H810 C802 0.930 . S
H811 C803 0.929 . S
H812 C820 0.929 . S
H813 C822 0.930 . S
H814 C824 0.930 . S
H815 C827 0.929 . S
H816 C830 0.930 . S
H817 C832 0.960 . S
H818 C832 0.960 . S
H819 C832 0.960 . S
C820 H812 0.929 . S
C820 C821 1.377 . S
C820 C822 1.384 . S
C821 C820 1.377 . S
C821 C827 1.390 . S
C822 H813 0.930 . S
C822 C820 1.384 . S
C822 C823 1.372 . S
C823 C822 1.372 . S
C823 C824 1.400 . S
C823 C828 1.490 . S
C824 H814 0.930 . S
C824 C823 1.400 . S
C824 C827 1.386 . S
H825 C841 0.930 . S
H826 C842 0.931 . S
C827 H815 0.929 . S
C827 C821 1.390 . S
C827 C824 1.386 . S
C828 C823 1.490 . S
C828 C830 1.395 . S
C828 C831 1.403 . S
H829 C835 0.930 . S
C830 H816 0.930 . S
C830 C828 1.395 . S
C830 C833 1.403 . S
C831 C828 1.403 . S
C831 C832 1.524 . S
C831 C835 1.400 . S
C832 H817 0.960 . S
C832 H818 0.960 . S
C832 H819 0.960 . S
C832 C831 1.524 . S
C833 C830 1.403 . S
C833 C834 1.392 . S
C833 C837 1.495 . S
C834 C833 1.392 . S
C834 C835 1.385 . S
C834 C836 1.478 . S
C835 H829 0.930 . S
C835 C831 1.400 . S
C835 C834 1.385 . S
C836 C834 1.478 . S
C836 C838 1.381 . S
C836 C842 1.383 . S
C837 C833 1.495 . S
C837 H843 0.959 . S
C837 H844 0.961 . S
C837 H845 0.960 . S
C838 C836 1.381 . S
C838 C839 1.394 . S
C838 H846 0.930 . S
C839 C838 1.394 . S
C839 C840 1.383 . S
C839 H847 0.929 . S
C840 C839 1.383 . S
C840 C841 1.377 . S
C841 H825 0.930 . S
C841 C840 1.377 . S
C841 C842 1.379 . S
C842 H826 0.931 . S
C842 C836 1.383 . S
C842 C841 1.379 . S
H843 C837 0.959 . S
H844 C837 0.961 . S
H845 C837 0.960 . S
H846 C838 0.930 . S
H847 C839 0.929 . S
H848 C856 0.929 . S
H849 C858 0.930 . S
H850 C860 0.930 . S
H851 C863 0.929 . S
H852 C866 0.930 . S
H853 C868 0.960 . S
H854 C868 0.960 . S
H855 C868 0.960 . S
C856 H848 0.929 . S
C856 C857 1.377 . S
C856 C858 1.384 . S
C857 C856 1.377 . S
C857 C863 1.390 . S
C858 H849 0.930 . S
C858 C856 1.384 . S
C858 C859 1.372 . S
C859 C858 1.372 . S
C859 C860 1.400 . S
C859 C864 1.490 . S
C860 H850 0.930 . S
C860 C859 1.400 . S
C860 C863 1.386 . S
H861 C877 0.930 . S
H862 C878 0.931 . S
C863 H851 0.929 . S
C863 C857 1.390 . S
C863 C860 1.386 . S
C864 C859 1.490 . S
C864 C866 1.395 . S
C864 C867 1.403 . S
H865 C871 0.930 . S
C866 H852 0.930 . S
C866 C864 1.395 . S
C866 C869 1.403 . S
C867 C864 1.403 . S
C867 C868 1.524 . S
C867 C871 1.400 . S
C868 H853 0.960 . S
C868 H854 0.960 . S
C868 H855 0.960 . S
C868 C867 1.524 . S
C869 C866 1.403 . S
C869 C870 1.392 . S
C869 C873 1.495 . S
C870 C869 1.392 . S
C870 C871 1.385 . S
C870 C872 1.478 . S
C871 H865 0.930 . S
C871 C867 1.400 . S
C871 C870 1.385 . S
C872 C870 1.478 . S
C872 C874 1.381 . S
C872 C878 1.383 . S
C873 C869 1.495 . S
C873 H879 0.959 . S
C873 H880 0.961 . S
C873 H881 0.960 . S
C874 C872 1.381 . S
C874 C875 1.394 . S
C874 H882 0.930 . S
C875 C874 1.394 . S
C875 C876 1.383 . S
C875 H883 0.929 . S
C876 C875 1.383 . S
C876 C877 1.377 . S
C877 H861 0.930 . S
C877 C876 1.377 . S
C877 C878 1.379 . S
C878 H862 0.931 . S
C878 C872 1.383 . S
C878 C877 1.379 . S
H879 C873 0.959 . S
H880 C873 0.961 . S
H881 C873 0.960 . S
H882 C874 0.930 . S
H883 C875 0.929 . S
H884 C892 0.929 . S
H885 C894 0.930 . S
H886 C896 0.930 . S
H887 C899 0.929 . S
H888 C902 0.930 . S
H889 C904 0.960 . S
H890 C904 0.960 . S
H891 C904 0.960 . S
C892 H884 0.929 . S
C892 C893 1.377 . S
C892 C894 1.384 . S
C893 C892 1.377 . S
C893 C899 1.390 . S
C894 H885 0.930 . S
C894 C892 1.384 . S
C894 C895 1.372 . S
C895 C894 1.372 . S
C895 C896 1.400 . S
C895 C900 1.490 . S
C896 H886 0.930 . S
C896 C895 1.400 . S
C896 C899 1.386 . S
H897 C913 0.930 . S
H898 C914 0.931 . S
C899 H887 0.929 . S
C899 C893 1.390 . S
C899 C896 1.386 . S
C900 C895 1.490 . S
C900 C902 1.395 . S
C900 C903 1.403 . S
H901 C907 0.930 . S
C902 H888 0.930 . S
C902 C900 1.395 . S
C902 C905 1.403 . S
C903 C900 1.403 . S
C903 C904 1.524 . S
C903 C907 1.400 . S
C904 H889 0.960 . S
C904 H890 0.960 . S
C904 H891 0.960 . S
C904 C903 1.524 . S
C905 C902 1.403 . S
C905 C906 1.392 . S
C905 C909 1.495 . S
C906 C905 1.392 . S
C906 C907 1.385 . S
C906 C908 1.478 . S
C907 H901 0.930 . S
C907 C903 1.400 . S
C907 C906 1.385 . S
C908 C906 1.478 . S
C908 C910 1.381 . S
C908 C914 1.383 . S
C909 C905 1.495 . S
C909 H915 0.959 . S
C909 H916 0.961 . S
C909 H917 0.960 . S
C910 C908 1.381 . S
C910 C911 1.394 . S
C910 H918 0.930 . S
C911 C910 1.394 . S
C911 C912 1.383 . S
C911 H919 0.929 . S
C912 C911 1.383 . S
C912 C913 1.377 . S
C913 H897 0.930 . S
C913 C912 1.377 . S
C913 C914 1.379 . S
C914 H898 0.931 . S
C914 C908 1.383 . S
C914 C913 1.379 . S
H915 C909 0.959 . S
H916 C909 0.961 . S
H917 C909 0.960 . S
H918 C910 0.930 . S
H919 C911 0.929 . S
H920 C928 0.929 . S
H921 C930 0.930 . S
H922 C932 0.930 . S
H923 C935 0.929 . S
H924 C938 0.930 . S
H925 C940 0.960 . S
H926 C940 0.960 . S
H927 C940 0.960 . S
C928 H920 0.929 . S
C928 C929 1.377 . S
C928 C930 1.384 . S
C929 C928 1.377 . S
C929 C935 1.390 . S
C930 H921 0.930 . S
C930 C928 1.384 . S
C930 C931 1.372 . S
C931 C930 1.372 . S
C931 C932 1.400 . S
C931 C936 1.490 . S
C932 H922 0.930 . S
C932 C931 1.400 . S
C932 C935 1.386 . S
H933 C949 0.930 . S
H934 C950 0.931 . S
C935 H923 0.929 . S
C935 C929 1.390 . S
C935 C932 1.386 . S
C936 C931 1.490 . S
C936 C938 1.395 . S
C936 C939 1.403 . S
H937 C943 0.930 . S
C938 H924 0.930 . S
C938 C936 1.395 . S
C938 C941 1.403 . S
C939 C936 1.403 . S
C939 C940 1.524 . S
C939 C943 1.400 . S
C940 H925 0.960 . S
C940 H926 0.960 . S
C940 H927 0.960 . S
C940 C939 1.524 . S
C941 C938 1.403 . S
C941 C942 1.392 . S
C941 C945 1.495 . S
C942 C941 1.392 . S
C942 C943 1.385 . S
C942 C944 1.478 . S
C943 H937 0.930 . S
C943 C939 1.400 . S
C943 C942 1.385 . S
C944 C942 1.478 . S
C944 C946 1.381 . S
C944 C950 1.383 . S
C945 C941 1.495 . S
C945 H951 0.959 . S
C945 H952 0.961 . S
C945 H953 0.960 . S
C946 C944 1.381 . S
C946 C947 1.394 . S
C946 H954 0.930 . S
C947 C946 1.394 . S
C947 C948 1.383 . S
C947 H955 0.929 . S
C948 C947 1.383 . S
C948 C949 1.377 . S
C949 H933 0.930 . S
C949 C948 1.377 . S
C949 C950 1.379 . S
C950 H934 0.931 . S
C950 C944 1.383 . S
C950 C949 1.379 . S
H951 C945 0.959 . S
H952 C945 0.961 . S
H953 C945 0.960 . S
H954 C946 0.930 . S
H955 C947 0.929 . S
H956 C964 0.929 . S
H957 C966 0.930 . S
H958 C968 0.930 . S
H959 C971 0.929 . S
H960 C974 0.930 . S
H961 C976 0.960 . S
H962 C976 0.960 . S
H963 C976 0.960 . S
C964 H956 0.929 . S
C964 C965 1.377 . S
C964 C966 1.384 . S
C965 C964 1.377 . S
C965 C971 1.390 . S
C966 H957 0.930 . S
C966 C964 1.384 . S
C966 C967 1.372 . S
C967 C966 1.372 . S
C967 C968 1.400 . S
C967 C972 1.490 . S
C968 H958 0.930 . S
C968 C967 1.400 . S
C968 C971 1.386 . S
H969 C985 0.930 . S
H970 C986 0.931 . S
C971 H959 0.929 . S
C971 C965 1.390 . S
C971 C968 1.386 . S
C972 C967 1.490 . S
C972 C974 1.395 . S
C972 C975 1.403 . S
H973 C979 0.930 . S
C974 H960 0.930 . S
C974 C972 1.395 . S
C974 C977 1.403 . S
C975 C972 1.403 . S
C975 C976 1.524 . S
C975 C979 1.400 . S
C976 H961 0.960 . S
C976 H962 0.960 . S
C976 H963 0.960 . S
C976 C975 1.524 . S
C977 C974 1.403 . S
C977 C978 1.392 . S
C977 C981 1.495 . S
C978 C977 1.392 . S
C978 C979 1.385 . S
C978 C980 1.478 . S
C979 H973 0.930 . S
C979 C975 1.400 . S
C979 C978 1.385 . S
C980 C978 1.478 . S
C980 C982 1.381 . S
C980 C986 1.383 . S
C981 C977 1.495 . S
C981 H987 0.959 . S
C981 H988 0.961 . S
C981 H989 0.960 . S
C982 C980 1.381 . S
C982 C983 1.394 . S
C982 H990 0.930 . S
C983 C982 1.394 . S
C983 C984 1.383 . S
C983 H991 0.929 . S
C984 C983 1.383 . S
C984 C985 1.377 . S
C985 H969 0.930 . S
C985 C984 1.377 . S
C985 C986 1.379 . S
C986 H970 0.931 . S
C986 C980 1.383 . S
C986 C985 1.379 . S
H987 C981 0.959 . S
H988 C981 0.961 . S
H989 C981 0.960 . S
H990 C982 0.930 . S
H991 C983 0.929 . S
H992 C1000 0.929 1_565 S
H993 C1002 0.930 . S
H994 C1004 0.930 . S
H995 C1007 0.929 . S
H996 C1010 0.930 . S
H997 C1012 0.960 . S
H998 C1012 0.960 . S
H999 C1012 0.960 . S
C1000 H992 0.929 1_545 S
C1000 C1001 1.378 1_554 S
C1000 C1002 1.383 1_545 S
C1001 C1000 1.378 1_556 S
C1001 C1007 1.390 . S
C1002 H993 0.930 . S
C1002 C1000 1.383 1_565 S
C1002 C1003 1.372 1_554 S
C1003 C1002 1.372 1_556 S
C1003 C1004 1.379 1_565 S
C1003 C1008 1.490 . S
C1004 H994 0.930 . S
C1004 C1003 1.379 1_545 S
C1004 C1007 1.406 . S
H1005 C1021 0.930 . S
H1006 C1022 0.931 . S
C1007 H995 0.929 . S
C1007 C1001 1.390 . S
C1007 C1004 1.406 . S
C1008 C1003 1.490 . S
C1008 C1010 1.395 1_556 S
C1008 C1011 1.403 . S
H1009 C1015 0.930 . S
C1010 H996 0.930 . S
C1010 C1008 1.395 1_554 S
C1010 C1013 1.403 . S
C1011 C1008 1.403 . S
C1011 C1012 1.524 . S
C1011 C1015 1.400 . S
C1012 H997 0.960 . S
C1012 H998 0.960 . S
C1012 H999 0.960 . S
C1012 C1011 1.524 . S
C1013 C1010 1.403 . S
C1013 C1014 1.392 1_554 S
C1013 C1017 1.495 . S
C1014 C1013 1.392 1_556 S
C1014 C1015 1.385 . S
C1014 C1016 1.478 . S
C1015 H1009 0.930 . S
C1015 C1011 1.400 . S
C1015 C1014 1.385 . S
C1016 C1014 1.478 . S
C1016 C1018 1.381 . S
C1016 C1022 1.383 . S
C1017 C1013 1.495 . S
C1017 H1023 0.959 . S
C1017 H1024 0.961 . S
C1017 H1025 0.960 . S
C1018 C1016 1.381 . S
C1018 C1019 1.394 . S
C1018 H1026 0.930 . S
C1019 C1018 1.394 . S
C1019 C1020 1.383 . S
C1019 H1027 0.929 . S
C1020 C1019 1.383 . S
C1020 C1021 1.377 . S
C1021 H1005 0.930 . S
C1021 C1020 1.377 . S
C1021 C1022 1.379 . S
C1022 H1006 0.931 . S
C1022 C1016 1.383 . S
C1022 C1021 1.379 . S
H1023 C1017 0.959 . S
H1024 C1017 0.961 . S
H1025 C1017 0.960 . S
H1026 C1018 0.930 . S
H1027 C1019 0.929 . S
H1028 C1036 0.929 . S
H1029 C1038 0.930 . S
H1030 C1040 0.930 . S
H1031 C1043 0.929 . S
H1032 C1046 0.930 . S
H1033 C1048 0.960 . S
H1034 C1048 0.960 . S
H1035 C1048 0.960 . S
C1036 H1028 0.929 . S
C1036 C1037 1.377 1_556 S
C1036 C1038 1.384 1_455 S
C1037 C1036 1.377 1_554 S
C1037 C1043 1.390 . S
C1038 H1029 0.930 . S
C1038 C1036 1.384 1_655 S
C1038 C1039 1.372 1_556 S
C1039 C1038 1.372 1_554 S
C1039 C1040 1.400 . S
C1039 C1044 1.490 . S
C1040 H1030 0.930 . S
C1040 C1039 1.400 . S
C1040 C1043 1.386 1_655 S
H1041 C1057 0.930 . S
H1042 C1058 0.931 . S
C1043 H1031 0.929 . S
C1043 C1037 1.390 . S
C1043 C1040 1.386 1_455 S
C1044 C1039 1.490 . S
C1044 C1046 1.395 1_554 S
C1044 C1047 1.403 . S
H1045 C1051 0.930 . S
C1046 H1032 0.930 . S
C1046 C1044 1.395 1_556 S
C1046 C1049 1.403 . S
C1047 C1044 1.403 . S
C1047 C1048 1.524 . S
C1047 C1051 1.400 . S
C1048 H1033 0.960 . S
C1048 H1034 0.960 . S
C1048 H1035 0.960 . S
C1048 C1047 1.524 . S
C1049 C1046 1.403 . S
C1049 C1050 1.392 1_556 S
C1049 C1053 1.495 . S
C1050 C1049 1.392 1_554 S
C1050 C1051 1.385 . S
C1050 C1052 1.478 . S
C1051 H1045 0.930 . S
C1051 C1047 1.400 . S
C1051 C1050 1.385 . S
C1052 C1050 1.478 . S
C1052 C1054 1.381 . S
C1052 C1058 1.383 . S
C1053 C1049 1.495 . S
C1053 H1059 0.959 . S
C1053 H1060 0.961 . S
C1053 H1061 0.960 . S
C1054 C1052 1.381 . S
C1054 C1055 1.394 . S
C1054 H1062 0.930 1_554 S
C1055 C1054 1.394 . S
C1055 C1056 1.383 . S
C1055 H1063 0.929 . S
C1056 C1055 1.383 . S
C1056 C1057 1.377 . S
C1057 H1041 0.930 . S
C1057 C1056 1.377 . S
C1057 C1058 1.379 . S
C1058 H1042 0.931 . S
C1058 C1052 1.383 . S
C1058 C1057 1.379 . S
H1059 C1053 0.959 . S
H1060 C1053 0.961 . S
H1061 C1053 0.960 . S
H1062 C1054 0.930 1_556 S
H1063 C1055 0.929 . S
H1064 C1072 0.929 . S
H1065 C1074 0.930 . S
H1066 C1076 0.930 . S
H1067 C1079 0.929 . S
H1068 C1082 0.928 1_554 S
H1069 C1084 0.960 . S
H1070 C1084 0.960 . S
H1071 C1084 0.960 . S
C1072 H1064 0.929 . S
C1072 C1073 1.377 . S
C1072 C1074 1.384 1_565 S
C1073 C1072 1.377 . S
C1073 C1079 1.390 1_556 S
C1074 H1065 0.930 . S
C1074 C1072 1.384 1_545 S
C1074 C1075 1.372 . S
C1075 C1074 1.372 . S
C1075 C1076 1.400 1_556 S
C1075 C1080 1.490 . S
C1076 H1066 0.930 . S
C1076 C1075 1.400 1_554 S
C1076 C1079 1.386 1_545 S
H1077 C1093 0.930 . S
H1078 C1094 0.931 . S
C1079 H1067 0.929 . S
C1079 C1073 1.390 1_554 S
C1079 C1076 1.386 1_565 S
C1080 C1075 1.490 . S
C1080 C1082 1.395 . S
C1080 C1083 1.403 . S
H1081 C1087 0.930 . S
C1082 H1068 0.928 1_556 S
C1082 C1080 1.395 . S
C1082 C1085 1.403 . S
C1083 C1080 1.403 . S
C1083 C1084 1.524 . S
C1083 C1087 1.400 . S
C1084 H1069 0.960 . S
C1084 H1070 0.960 . S
C1084 H1071 0.960 . S
C1084 C1083 1.524 . S
C1085 C1082 1.403 . S
C1085 C1086 1.392 . S
C1085 C1089 1.495 . S
C1086 C1085 1.392 . S
C1086 C1087 1.385 . S
C1086 C1088 1.478 . S
C1087 H1081 0.930 . S
C1087 C1083 1.400 . S
C1087 C1086 1.385 . S
C1088 C1086 1.478 . S
C1088 C1090 1.381 . S
C1088 C1094 1.383 . S
C1089 C1085 1.495 . S
C1089 H1095 0.959 1_556 S
C1089 H1096 0.961 1_556 S
C1089 H1097 0.960 . S
C1090 C1088 1.381 . S
C1090 C1091 1.394 . S
C1090 H1098 0.930 . S
C1091 C1090 1.394 . S
C1091 C1092 1.383 . S
C1091 H1099 0.929 . S
C1092 C1091 1.383 . S
C1092 C1093 1.377 . S
C1093 H1077 0.930 . S
C1093 C1092 1.377 . S
C1093 C1094 1.379 . S
C1094 H1078 0.931 . S
C1094 C1088 1.383 . S
C1094 C1093 1.379 . S
H1095 C1089 0.959 1_554 S
H1096 C1089 0.961 1_554 S
H1097 C1089 0.960 . S
H1098 C1090 0.930 . S
H1099 C1091 0.929 . S
H1100 C1108 0.929 . S
H1101 C1110 0.930 . S
H1102 C1112 0.930 . S
H1103 C1115 0.929 . S
H1104 C1118 0.930 . S
H1105 C1120 0.960 . S
H1106 C1120 0.960 . S
H1107 C1120 0.960 . S
C1108 H1100 0.929 . S
C1108 C1109 1.377 . S
C1108 C1110 1.384 . S
C1109 C1108 1.377 . S
C1109 C1115 1.411 1_554 S
C1110 H1101 0.930 . S
C1110 C1108 1.384 . S
C1110 C1111 1.372 1_655 S
C1111 C1110 1.372 1_455 S
C1111 C1112 1.400 1_554 S
C1111 C1116 1.490 . S
C1112 H1102 0.930 . S
C1112 C1111 1.400 1_556 S
C1112 C1115 1.365 1_455 S
H1113 C1129 0.930 . S
H1114 C1130 0.931 1_556 S
C1115 H1103 0.929 . S
C1115 C1109 1.411 1_556 S
C1115 C1112 1.365 1_655 S
C1116 C1111 1.490 . S
C1116 C1118 1.395 . S
C1116 C1119 1.403 . S
H1117 C1123 0.930 . S
C1118 H1104 0.930 . S
C1118 C1116 1.395 . S
C1118 C1121 1.403 . S
C1119 C1116 1.403 . S
C1119 C1120 1.524 . S
C1119 C1123 1.400 . S
C1120 H1105 0.960 . S
C1120 H1106 0.960 . S
C1120 H1107 0.960 . S
C1120 C1119 1.524 . S
C1121 C1118 1.403 . S
C1121 C1122 1.392 . S
C1121 C1125 1.495 . S
C1122 C1121 1.392 . S
C1122 C1123 1.385 . S
C1122 C1124 1.478 . S
C1123 H1117 0.930 . S
C1123 C1119 1.400 . S
C1123 C1122 1.385 . S
C1124 C1122 1.478 . S
C1124 C1126 1.381 . S
C1124 C1130 1.383 . S
C1125 C1121 1.495 . S
C1125 H1131 0.959 1_554 S
C1125 H1132 0.961 1_554 S
C1125 H1133 0.960 . S
C1126 C1124 1.381 . S
C1126 C1127 1.394 . S
C1126 H1134 0.930 . S
C1127 C1126 1.394 . S
C1127 C1128 1.383 . S
C1127 H1135 0.929 . S
C1128 C1127 1.383 . S
C1128 C1129 1.377 . S
C1129 H1113 0.930 . S
C1129 C1128 1.377 . S
C1129 C1130 1.379 . S
C1130 H1114 0.931 1_554 S
C1130 C1124 1.383 . S
C1130 C1129 1.379 . S
H1131 C1125 0.959 1_556 S
H1132 C1125 0.961 1_556 S
H1133 C1125 0.960 . S
H1134 C1126 0.930 . S
H1135 C1127 0.929 . S
H1136 C1144 0.929 . S
H1137 C1146 0.930 . S
H1138 C1148 0.930 . S
H1139 C1151 0.929 . S
H1140 C1154 0.930 . S
H1141 C1156 0.960 . S
H1142 C1156 0.960 . S
H1143 C1156 0.960 . S
C1144 H1136 0.929 . S
C1144 C1145 1.377 . S
C1144 C1146 1.384 . S
C1145 C1144 1.377 . S
C1145 C1151 1.390 . S
C1146 H1137 0.930 . S
C1146 C1144 1.384 . S
C1146 C1147 1.372 . S
C1147 C1146 1.372 . S
C1147 C1148 1.400 . S
C1147 C1152 1.490 . S
C1148 H1138 0.930 . S
C1148 C1147 1.400 . S
C1148 C1151 1.386 . S
H1149 C1165 0.930 . S
H1150 C1166 0.931 . S
C1151 H1139 0.929 . S
C1151 C1145 1.390 . S
C1151 C1148 1.386 . S
C1152 C1147 1.490 . S
C1152 C1154 1.395 . S
C1152 C1155 1.403 . S
H1153 C1159 0.930 . S
C1154 H1140 0.930 . S
C1154 C1152 1.395 . S
C1154 C1157 1.403 . S
C1155 C1152 1.403 . S
C1155 C1156 1.524 . S
C1155 C1159 1.400 . S
C1156 H1141 0.960 . S
C1156 H1142 0.960 . S
C1156 H1143 0.960 . S
C1156 C1155 1.524 . S
C1157 C1154 1.403 . S
C1157 C1158 1.392 . S
C1157 C1161 1.495 . S
C1158 C1157 1.392 . S
C1158 C1159 1.385 . S
C1158 C1160 1.478 . S
C1159 H1153 0.930 . S
C1159 C1155 1.400 . S
C1159 C1158 1.385 . S
C1160 C1158 1.478 . S
C1160 C1162 1.381 . S
C1160 C1166 1.383 . S
C1161 C1157 1.495 . S
C1161 H1167 0.959 . S
C1161 H1168 0.961 . S
C1161 H1169 0.960 . S
C1162 C1160 1.381 . S
C1162 C1163 1.394 . S
C1162 H1170 0.930 . S
C1163 C1162 1.394 . S
C1163 C1164 1.383 . S
C1163 H1171 0.929 . S
C1164 C1163 1.383 . S
C1164 C1165 1.377 . S
C1165 H1149 0.930 . S
C1165 C1164 1.377 . S
C1165 C1166 1.379 . S
C1166 H1150 0.931 . S
C1166 C1160 1.383 . S
C1166 C1165 1.379 . S
H1167 C1161 0.959 . S
H1168 C1161 0.961 . S
H1169 C1161 0.960 . S
H1170 C1162 0.930 . S
H1171 C1163 0.929 . S
H1172 C1180 0.929 . S
H1173 C1182 0.930 . S
H1174 C1184 0.930 . S
H1175 C1187 0.929 . S
H1176 C1190 0.930 . S
H1177 C1192 0.960 . S
H1178 C1192 0.960 . S
H1179 C1192 0.960 . S
C1180 H1172 0.929 . S
C1180 C1181 1.377 . S
C1180 C1182 1.384 . S
C1181 C1180 1.377 . S
C1181 C1187 1.390 . S
C1182 H1173 0.930 . S
C1182 C1180 1.384 . S
C1182 C1183 1.372 . S
C1183 C1182 1.372 . S
C1183 C1184 1.400 . S
C1183 C1188 1.490 . S
C1184 H1174 0.930 . S
C1184 C1183 1.400 . S
C1184 C1187 1.386 . S
H1185 C1201 0.930 . S
H1186 C1202 0.931 . S
C1187 H1175 0.929 . S
C1187 C1181 1.390 . S
C1187 C1184 1.386 . S
C1188 C1183 1.490 . S
C1188 C1190 1.395 . S
C1188 C1191 1.403 . S
H1189 C1195 0.930 . S
C1190 H1176 0.930 . S
C1190 C1188 1.395 . S
C1190 C1193 1.403 . S
C1191 C1188 1.403 . S
C1191 C1192 1.524 . S
C1191 C1195 1.400 . S
C1192 H1177 0.960 . S
C1192 H1178 0.960 . S
C1192 H1179 0.960 . S
C1192 C1191 1.524 . S
C1193 C1190 1.403 . S
C1193 C1194 1.392 . S
C1193 C1197 1.495 . S
C1194 C1193 1.392 . S
C1194 C1195 1.385 . S
C1194 C1196 1.478 . S
C1195 H1189 0.930 . S
C1195 C1191 1.400 . S
C1195 C1194 1.385 . S
C1196 C1194 1.478 . S
C1196 C1198 1.381 . S
C1196 C1202 1.383 . S
C1197 C1193 1.495 . S
C1197 H1203 0.959 . S
C1197 H1204 0.961 . S
C1197 H1205 0.960 . S
C1198 C1196 1.381 . S
C1198 C1199 1.394 . S
C1198 H1206 0.930 . S
C1199 C1198 1.394 . S
C1199 C1200 1.383 . S
C1199 H1207 0.929 . S
C1200 C1199 1.383 . S
C1200 C1201 1.377 . S
C1201 H1185 0.930 . S
C1201 C1200 1.377 . S
C1201 C1202 1.379 . S
C1202 H1186 0.931 . S
C1202 C1196 1.383 . S
C1202 C1201 1.379 . S
H1203 C1197 0.959 . S
H1204 C1197 0.961 . S
H1205 C1197 0.960 . S
H1206 C1198 0.930 . S
H1207 C1199 0.929 . S
H1208 C1216 0.929 . S
H1209 C1218 0.930 . S
H1210 C1220 0.930 . S
H1211 C1223 0.929 . S
H1212 C1226 0.930 . S
H1213 C1228 0.960 . S
H1214 C1228 0.960 . S
H1215 C1228 0.960 . S
C1216 H1208 0.929 . S
C1216 C1217 1.377 . S
C1216 C1218 1.384 . S
C1217 C1216 1.377 . S
C1217 C1223 1.390 . S
C1218 H1209 0.930 . S
C1218 C1216 1.384 . S
C1218 C1219 1.372 . S
C1219 C1218 1.372 . S
C1219 C1220 1.400 . S
C1219 C1224 1.490 . S
C1220 H1210 0.930 . S
C1220 C1219 1.400 . S
C1220 C1223 1.386 . S
H1221 C1237 0.930 . S
H1222 C1238 0.931 . S
C1223 H1211 0.929 . S
C1223 C1217 1.390 . S
C1223 C1220 1.386 . S
C1224 C1219 1.490 . S
C1224 C1226 1.395 . S
C1224 C1227 1.403 . S
H1225 C1231 0.930 . S
C1226 H1212 0.930 . S
C1226 C1224 1.395 . S
C1226 C1229 1.403 . S
C1227 C1224 1.403 . S
C1227 C1228 1.524 . S
C1227 C1231 1.400 . S
C1228 H1213 0.960 . S
C1228 H1214 0.960 . S
C1228 H1215 0.960 . S
C1228 C1227 1.524 . S
C1229 C1226 1.403 . S
C1229 C1230 1.392 . S
C1229 C1233 1.495 . S
C1230 C1229 1.392 . S
C1230 C1231 1.385 . S
C1230 C1232 1.478 . S
C1231 H1225 0.930 . S
C1231 C1227 1.400 . S
C1231 C1230 1.385 . S
C1232 C1230 1.478 . S
C1232 C1234 1.381 . S
C1232 C1238 1.383 . S
C1233 C1229 1.495 . S
C1233 H1239 0.959 . S
C1233 H1240 0.961 . S
C1233 H1241 0.960 . S
C1234 C1232 1.381 . S
C1234 C1235 1.394 . S
C1234 H1242 0.930 . S
C1235 C1234 1.394 . S
C1235 C1236 1.383 . S
C1235 H1243 0.929 . S
C1236 C1235 1.383 . S
C1236 C1237 1.377 . S
C1237 H1221 0.930 . S
C1237 C1236 1.377 . S
C1237 C1238 1.379 . S
C1238 H1222 0.931 . S
C1238 C1232 1.383 . S
C1238 C1237 1.379 . S
H1239 C1233 0.959 . S
H1240 C1233 0.961 . S
H1241 C1233 0.960 . S
H1242 C1234 0.930 . S
H1243 C1235 0.929 . S
H1244 C1252 0.929 . S
H1245 C1254 0.930 . S
H1246 C1256 0.930 . S
H1247 C1259 0.929 . S
H1248 C1262 0.930 . S
H1249 C1264 0.960 . S
H1250 C1264 0.960 . S
H1251 C1264 0.960 . S
C1252 H1244 0.929 . S
C1252 C1253 1.377 . S
C1252 C1254 1.384 . S
C1253 C1252 1.377 . S
C1253 C1259 1.390 . S
C1254 H1245 0.930 . S
C1254 C1252 1.384 . S
C1254 C1255 1.372 . S
C1255 C1254 1.372 . S
C1255 C1256 1.400 . S
C1255 C1260 1.490 . S
C1256 H1246 0.930 . S
C1256 C1255 1.400 . S
C1256 C1259 1.386 . S
H1257 C1273 0.930 . S
H1258 C1274 0.931 . S
C1259 H1247 0.929 . S
C1259 C1253 1.390 . S
C1259 C1256 1.386 . S
C1260 C1255 1.490 . S
C1260 C1262 1.395 . S
C1260 C1263 1.403 . S
H1261 C1267 0.930 . S
C1262 H1248 0.930 . S
C1262 C1260 1.395 . S
C1262 C1265 1.403 . S
C1263 C1260 1.403 . S
C1263 C1264 1.524 . S
C1263 C1267 1.400 . S
C1264 H1249 0.960 . S
C1264 H1250 0.960 . S
C1264 H1251 0.960 . S
C1264 C1263 1.524 . S
C1265 C1262 1.403 . S
C1265 C1266 1.392 . S
C1265 C1269 1.495 . S
C1266 C1265 1.392 . S
C1266 C1267 1.385 . S
C1266 C1268 1.478 . S
C1267 H1261 0.930 . S
C1267 C1263 1.400 . S
C1267 C1266 1.385 . S
C1268 C1266 1.478 . S
C1268 C1270 1.381 . S
C1268 C1274 1.383 . S
C1269 C1265 1.495 . S
C1269 H1275 0.959 . S
C1269 H1276 0.961 . S
C1269 H1277 0.960 . S
C1270 C1268 1.381 . S
C1270 C1271 1.394 . S
C1270 H1278 0.930 . S
C1271 C1270 1.394 . S
C1271 C1272 1.383 . S
C1271 H1279 0.929 . S
C1272 C1271 1.383 . S
C1272 C1273 1.377 . S
C1273 H1257 0.930 . S
C1273 C1272 1.377 . S
C1273 C1274 1.379 . S
C1274 H1258 0.931 . S
C1274 C1268 1.383 . S
C1274 C1273 1.379 . S
H1275 C1269 0.959 . S
H1276 C1269 0.961 . S
H1277 C1269 0.960 . S
H1278 C1270 0.930 . S
H1279 C1271 0.929 . S
C281 C15 0.371 1_565 S
C300 C239 0.611 . S
C317 C56 0.374 1_655 S
C336 C139 0.628 . S
C353 C171 0.547 . S
C372 C83 0.442 . S
C389 C117 0.373 1_455 S
C408 C207 0.545 . S
C425 C151 0.407 . S
C444 C105 0.598 . S
C461 C192 0.391 . S
C480 C3 0.623 . S
C497 C219 0.407 . S
C516 C35 0.585 . S
C533 C260 0.403 . S
C552 C71 0.564 . S
C569 C28 1.596 . S
C588 C96 1.588 . S
C605 C130 1.596 . S
C624 C40 1.604 . S
C641 C164 1.600 . S
C660 C232 1.596 . S
C677 C176 1.596 . S
C696 C244 1.605 . S
C713 C205 1.600 . S
C732 C22 1.745 . S
C749 C49 1.739 . S
C768 C241 1.582 . S
C785 C137 1.586 . S
C804 C90 1.752 . S
C821 C124 1.738 . S
C840 C173 1.569 . S
C857 C158 1.738 . S
C876 C69 1.570 . S
C893 C103 1.590 . S
C912 C185 1.745 . S
C929 C226 1.741 . S
C948 C1 1.628 . S
C965 C37 1.596 . S
C984 C253 1.757 . S
C1001 C17 1.891 1_556 S
C1020 C62 1.899 . S
C1037 C51 1.888 1_554 S
C1056 C74 1.893 . S
C1073 C85 1.893 1_556 S
C1092 C108 1.893 . S
C1109 C119 1.893 1_554 S
C1128 C6 1.914 . S
C1145 C198 1.913 . S
C1164 C153 1.877 . S
C1181 C210 1.912 . S
C1200 C187 1.871 . S
C1217 C221 1.885 . S
C1236 C266 1.922 . S
C1253 C142 1.915 . S
C1272 C255 1.893 . S
