# Generated by pormake.
# Topology wjx, (5)-cn, num edge types: 1
# Building blocks:
#     Node 0, Type 0, BuildingBlock: XOMCOT_clean_sbu_0, # of connection points: 5
#     Node 1, Type 0, BuildingBlock: XOMCOT_clean_sbu_0, # of connection points: 5
#     Node 2, Type 0, BuildingBlock: XOMCOT_clean_sbu_0, # of connection points: 5
#     Node 3, Type 0, BuildingBlock: XOMCOT_clean_sbu_0, # of connection points: 5
#     Node 4, Type 0, BuildingBlock: XOMCOT_clean_sbu_0, # of connection points: 5
#     Node 5, Type 0, BuildingBlock: XOMCOT_clean_sbu_0, # of connection points: 5
#     Node 6, Type 0, BuildingBlock: XOMCOT_clean_sbu_0, # of connection points: 5
#     Node 7, Type 0, BuildingBlock: XOMCOT_clean_sbu_0, # of connection points: 5
#     Node 8, Type 0, BuildingBlock: XOMCOT_clean_sbu_0, # of connection points: 5
#     Node 9, Type 0, BuildingBlock: XOMCOT_clean_sbu_0, # of connection points: 5
#     Node 10, Type 0, BuildingBlock: XOMCOT_clean_sbu_0, # of connection points: 5
#     Node 11, Type 0, BuildingBlock: XOMCOT_clean_sbu_0, # of connection points: 5
#     Edge 12, Type (0, 0), BuildingBlock: UVAHIK_clean_linker_0, # of connection points: 2
#     Edge 13, Type (0, 0), BuildingBlock: UVAHIK_clean_linker_0, # of connection points: 2
#     Edge 14, Type (0, 0), BuildingBlock: UVAHIK_clean_linker_0, # of connection points: 2
#     Edge 15, Type (0, 0), BuildingBlock: UVAHIK_clean_linker_0, # of connection points: 2
#     Edge 16, Type (0, 0), BuildingBlock: UVAHIK_clean_linker_0, # of connection points: 2
#     Edge 17, Type (0, 0), BuildingBlock: UVAHIK_clean_linker_0, # of connection points: 2
#     Edge 18, Type (0, 0), BuildingBlock: UVAHIK_clean_linker_0, # of connection points: 2
#     Edge 19, Type (0, 0), BuildingBlock: UVAHIK_clean_linker_0, # of connection points: 2
#     Edge 20, Type (0, 0), BuildingBlock: UVAHIK_clean_linker_0, # of connection points: 2
#     Edge 21, Type (0, 0), BuildingBlock: UVAHIK_clean_linker_0, # of connection points: 2
#     Edge 22, Type (0, 0), BuildingBlock: UVAHIK_clean_linker_0, # of connection points: 2
#     Edge 23, Type (0, 0), BuildingBlock: UVAHIK_clean_linker_0, # of connection points: 2
#     Edge 24, Type (0, 0), BuildingBlock: UVAHIK_clean_linker_0, # of connection points: 2
#     Edge 25, Type (0, 0), BuildingBlock: UVAHIK_clean_linker_0, # of connection points: 2
#     Edge 26, Type (0, 0), BuildingBlock: UVAHIK_clean_linker_0, # of connection points: 2
#     Edge 27, Type (0, 0), BuildingBlock: UVAHIK_clean_linker_0, # of connection points: 2
#     Edge 28, Type (0, 0), BuildingBlock: UVAHIK_clean_linker_0, # of connection points: 2
#     Edge 29, Type (0, 0), BuildingBlock: UVAHIK_clean_linker_0, # of connection points: 2
#     Edge 30, Type (0, 0), BuildingBlock: UVAHIK_clean_linker_0, # of connection points: 2
#     Edge 31, Type (0, 0), BuildingBlock: UVAHIK_clean_linker_0, # of connection points: 2
#     Edge 32, Type (0, 0), BuildingBlock: UVAHIK_clean_linker_0, # of connection points: 2
#     Edge 33, Type (0, 0), BuildingBlock: UVAHIK_clean_linker_0, # of connection points: 2
#     Edge 34, Type (0, 0), BuildingBlock: UVAHIK_clean_linker_0, # of connection points: 2
#     Edge 35, Type (0, 0), BuildingBlock: UVAHIK_clean_linker_0, # of connection points: 2
#     Edge 36, Type (0, 0), BuildingBlock: UVAHIK_clean_linker_0, # of connection points: 2
#     Edge 37, Type (0, 0), BuildingBlock: UVAHIK_clean_linker_0, # of connection points: 2
#     Edge 38, Type (0, 0), BuildingBlock: UVAHIK_clean_linker_0, # of connection points: 2
#     Edge 39, Type (0, 0), BuildingBlock: UVAHIK_clean_linker_0, # of connection points: 2
#     Edge 40, Type (0, 0), BuildingBlock: UVAHIK_clean_linker_0, # of connection points: 2
#     Edge 41, Type (0, 0), BuildingBlock: UVAHIK_clean_linker_0, # of connection points: 2
# Relax obj value: 0.157
# Max RMSD: 0.145
# Mean RMSD: 0.145
data_MOF--net-wjx--node1-XOMCOT_clean_sbu_0--edge1-UVAHIK_clean_linker_0
_symmetry_space_group_name_H-M    P1
_symmetry_Int_Tables_number       1
_symmetry_cell_setting            triclinic
loop_
_symmetry_equiv_pos_as_xyz
'x, y, z'
_cell_length_a     91.651931
_cell_length_b     91.634882
_cell_length_c     22.143251
_cell_angle_alpha  89.99764
_cell_angle_beta   89.960332
_cell_angle_gamma 119.99625
loop_
_atom_site_label
_atom_site_type_symbol
_atom_site_fract_x
_atom_site_fract_y
_atom_site_fract_z
_atom_type_partial_charge
Co0 Co 0.11449 0.43495 0.14975 0.0
C1 C 0.11675 0.43392 0.2853 0.0
C2 C 0.12358 0.41761 0.23948 0.0
C3 C 0.12446 0.4156 0.30056 0.0
N4 N 0.11905 0.42932 0.22963 0.0
N5 N 0.12013 0.42583 0.32948 0.0
H6 H 0.11204 0.44237 0.29391 0.0
H7 H 0.12591 0.41083 0.20435 0.0
C8 C 0.15015 0.44344 0.14696 0.0
O9 O 0.15161 0.45124 0.19835 0.0
N10 N 0.10961 0.43987 0.07009 0.0
C11 C 0.10166 0.4485 0.05739 0.0
C12 C 0.10101 0.44983 0.99573 0.0
C13 C 0.11357 0.43589 0.01623 0.0
N14 N 0.10852 0.44193 0.96989 0.0
C15 C 0.11845 0.46525 0.20399 0.0
C16 C 0.14522 0.48744 0.13302 0.0
C17 C 0.13772 0.4939 0.17172 0.0
C18 C 0.12426 0.48252 0.20806 0.0
C19 C 0.13889 0.47009 0.12984 0.0
N20 N 0.12593 0.45914 0.16627 0.0
H21 H 0.10706 0.45678 0.22786 0.0
H22 H 0.14381 0.4655 0.09506 0.0
H23 H 0.09678 0.45359 0.09073 0.0
H24 H 0.12026 0.42902 0.01115 0.0
O25 O 0.09215 0.42912 0.17559 0.0
O26 O 0.09901 0.41113 0.13611 0.0
O27 O 0.136 0.4363 0.11918 0.0
C28 C 0.08743 0.41382 0.15874 0.0
H29 H 0.12801 0.4072 0.32182 0.0
H30 H 0.0953 0.456 0.97178 0.0
H31 H 0.15551 0.49564 0.10349 0.0
H32 H 0.11753 0.48675 0.23668 0.0
Co33 Co 0.68036 0.11194 0.4836 0.0
C34 C 0.68382 0.11387 0.61678 0.0
C35 C 0.70781 0.12682 0.57211 0.0
C36 C 0.71046 0.12793 0.63354 0.0
N37 N 0.69113 0.11807 0.56173 0.0
N38 N 0.69538 0.11975 0.66174 0.0
H39 H 0.67035 0.10634 0.62355 0.0
H40 H 0.7174 0.13189 0.53741 0.0
C41 C 0.69736 0.14432 0.41244 0.0
O42 O 0.68272 0.14085 0.38975 0.0
N43 N 0.6697 0.10549 0.40429 0.0
C44 C 0.65316 0.09573 0.39171 0.0
C45 C 0.65109 0.09379 0.33023 0.0
C46 C 0.67748 0.10867 0.34987 0.0
N47 N 0.66636 0.10207 0.3037 0.0
C48 C 0.64927 0.10919 0.52184 0.0
C49 C 0.65997 0.14317 0.52863 0.0
C50 C 0.64283 0.13147 0.53655 0.0
C51 C 0.63766 0.1143 0.5351 0.0
C52 C 0.67129 0.13743 0.5167 0.0
N53 N 0.66563 0.12063 0.50843 0.0
H54 H 0.64489 0.09588 0.52174 0.0
H55 H 0.68453 0.14658 0.51414 0.0
H56 H 0.64315 0.08986 0.4243 0.0
H57 H 0.691 0.11595 0.34422 0.0
O58 O 0.66676 0.08898 0.51087 0.0
O59 O 0.69168 0.09932 0.46618 0.0
O60 O 0.69828 0.13443 0.45096 0.0
C61 C 0.67864 0.08653 0.49053 0.0
H62 H 0.72262 0.13436 0.65559 0.0
H63 H 0.63919 0.08653 0.30701 0.0
H64 H 0.66457 0.15656 0.53203 0.0
H65 H 0.6246 0.10482 0.54237 0.0
Co66 Co 0.56561 0.68027 0.82509 0.0
C67 C 0.56429 0.68289 0.95841 0.0
C68 C 0.57262 0.70666 0.91453 0.0
C69 C 0.57318 0.70907 0.97595 0.0
N70 N 0.56699 0.69026 0.90349 0.0
N71 N 0.56807 0.69416 1.00378 0.0
H72 H 0.56028 0.66971 0.96482 0.0
H73 H 0.57655 0.71635 0.88048 0.0
C74 C 0.55136 0.69758 0.74948 0.0
O75 O 0.53998 0.68288 0.72785 0.0
N76 N 0.56485 0.67047 0.74545 0.0
C77 C 0.56329 0.65526 0.73401 0.0
C78 C 0.56396 0.65326 0.67278 0.0
C79 C 0.56763 0.67789 0.69037 0.0
N80 N 0.56653 0.66744 0.64517 0.0
C81 C 0.53531 0.64853 0.83475 0.0
C82 C 0.51317 0.66045 0.84947 0.0
C83 C 0.50679 0.64323 0.83883 0.0
C84 C 0.51809 0.63724 0.83417 0.0
C85 C 0.5307 0.67141 0.84931 0.0
N86 N 0.54143 0.66547 0.83681 0.0
H87 H 0.54368 0.64353 0.83296 0.0
H88 H 0.53557 0.68471 0.85677 0.0
H89 H 0.56243 0.64631 0.7675 0.0
H90 H 0.57058 0.69072 0.68313 0.0
O91 O 0.57312 0.6661 0.86081 0.0
O92 O 0.59004 0.69136 0.82162 0.0
O93 O 0.56241 0.69855 0.78705 0.0
C94 C 0.58835 0.67789 0.84807 0.0
H95 H 0.57726 0.72101 0.99816 0.0
H96 H 0.56307 0.64234 0.65047 0.0
H97 H 0.50476 0.66544 0.85538 0.0
H98 H 0.51361 0.6239 0.82908 0.0
Co99 Co 0.88607 0.56938 0.15773 0.0
C100 C 0.88398 0.57091 0.29079 0.0
C101 C 0.87125 0.58218 0.24609 0.0
C102 C 0.87011 0.5837 0.30758 0.0
N103 N 0.8799 0.57414 0.2357 0.0
N104 N 0.87814 0.57665 0.33579 0.0
H105 H 0.8914 0.56486 0.29755 0.0
H106 H 0.86627 0.58679 0.21139 0.0
C107 C 0.8541 0.55445 0.08525 0.0
O108 O 0.85751 0.54309 0.06397 0.0
N109 N 0.89258 0.56504 0.07859 0.0
C110 C 0.90186 0.55773 0.0661 0.0
C111 C 0.90383 0.55754 1.0046 0.0
C112 C 0.88972 0.56989 0.02412 0.0
N113 N 0.89604 0.56503 0.97795 0.0
C114 C 0.88779 0.54044 0.1962 0.0
C115 C 0.85357 0.51809 0.20264 0.0
C116 C 0.86481 0.51211 0.2105 0.0
C117 C 0.88209 0.52359 0.20962 0.0
C118 C 0.85988 0.53524 0.19102 0.0
N119 N 0.87678 0.5459 0.18254 0.0
H120 H 0.90118 0.54904 0.1962 0.0
H121 H 0.8511 0.5398 0.18855 0.0
H122 H 0.90734 0.55318 0.09874 0.0
H123 H 0.8828 0.5765 0.01843 0.0
O124 O 0.90881 0.57819 0.18602 0.0
O125 O 0.89923 0.5933 0.14062 0.0
O126 O 0.86388 0.56531 0.12388 0.0
C127 C 0.91177 0.5927 0.16557 0.0
H128 H 0.86375 0.5895 0.32965 0.0
H129 H 0.91074 0.5525 0.98146 0.0
H130 H 0.8401 0.50962 0.20559 0.0
H131 H 0.89115 0.51947 0.21731 0.0
Co132 Co 0.31485 0.88534 0.48913 0.0
C133 C 0.31148 0.88231 0.62457 0.0
C134 C 0.288 0.87392 0.579 0.0
C135 C 0.28503 0.87248 0.64017 0.0
N136 N 0.30453 0.87977 0.56893 0.0
N137 N 0.29981 0.87778 0.66878 0.0
H138 H 0.3247 0.88756 0.63332 0.0
H139 H 0.27874 0.87114 0.54401 0.0
C140 C 0.2897 0.84897 0.48421 0.0
O141 O 0.29625 0.84776 0.53547 0.0
N142 N 0.32473 0.89118 0.40958 0.0
C143 C 0.3413 0.90016 0.39705 0.0
C144 C 0.34332 0.90163 0.33542 0.0
C145 C 0.31685 0.88736 0.35566 0.0
N146 N 0.32795 0.89362 0.3093 0.0
C147 C 0.34248 0.88365 0.54358 0.0
C148 C 0.34021 0.85803 0.47131 0.0
C149 C 0.3538 0.86604 0.51127 0.0
C150 C 0.35472 0.87889 0.54826 0.0
C151 C 0.32827 0.86319 0.46805 0.0
N152 N 0.32912 0.87554 0.50516 0.0
H153 H 0.34453 0.89473 0.56768 0.0
H154 H 0.31895 0.8579 0.43271 0.0
H155 H 0.35123 0.90516 0.43047 0.0
H156 H 0.30329 0.88034 0.35067 0.0
O157 O 0.32996 0.908 0.51597 0.0
O158 O 0.30475 0.89928 0.47585 0.0
O159 O 0.29588 0.86324 0.45749 0.0
C160 C 0.31852 0.91153 0.49884 0.0
H161 H 0.27301 0.86837 0.6619 0.0
H162 H 0.35526 0.90789 0.31181 0.0
H163 H 0.33915 0.84827 0.44098 0.0
H164 H 0.36541 0.88597 0.5778 0.0
Co165 Co 0.43041 0.31533 0.82576 0.0
C166 C 0.42965 0.31184 0.96127 0.0
C167 C 0.41464 0.28841 0.91531 0.0
C168 C 0.41294 0.28539 0.97646 0.0
N169 N 0.42539 0.30494 0.9055 0.0
N170 N 0.42237 0.30015 1.00531 0.0
H171 H 0.43763 0.32505 0.97027 0.0
H172 H 0.40824 0.27918 0.88015 0.0
C173 C 0.44149 0.29006 0.82143 0.0
O174 O 0.4491 0.29656 0.87295 0.0
N175 N 0.43471 0.32526 0.74625 0.0
C176 C 0.4425 0.34184 0.73372 0.0
C177 C 0.44303 0.34386 0.67209 0.0
C178 C 0.43051 0.31737 0.69233 0.0
N179 N 0.43547 0.32848 0.64596 0.0
C180 C 0.45963 0.34272 0.88152 0.0
C181 C 0.48318 0.34044 0.81034 0.0
C182 C 0.48867 0.35381 0.8513 0.0
C183 C 0.47665 0.35477 0.88758 0.0
C184 C 0.46604 0.32864 0.80591 0.0
N185 N 0.45445 0.32947 0.84262 0.0
H186 H 0.45057 0.34483 0.90511 0.0
H187 H 0.46209 0.31942 0.77022 0.0
H188 H 0.44753 0.35177 0.76715 0.0
H189 H 0.42378 0.30381 0.68734 0.0
O190 O 0.42297 0.33056 0.85225 0.0
O191 O 0.4064 0.30541 0.81171 0.0
O192 O 0.43351 0.29629 0.79434 0.0
C193 C 0.40801 0.31923 0.83468 0.0
H194 H 0.40496 0.27336 0.99798 0.0
H195 H 0.44881 0.35579 0.64847 0.0
H196 H 0.49197 0.33942 0.7804 0.0
H197 H 0.48023 0.36532 0.91775 0.0
Co198 Co 0.5679 0.8848 0.52636 0.0
C199 C 0.56847 0.88191 0.39086 0.0
C200 C 0.58311 0.87304 0.43675 0.0
C201 C 0.58473 0.87166 0.37559 0.0
N202 N 0.57263 0.87914 0.44663 0.0
N203 N 0.57554 0.87727 0.34678 0.0
H204 H 0.56076 0.88745 0.3819 0.0
H205 H 0.58941 0.87007 0.47185 0.0
C206 C 0.55653 0.8484 0.53207 0.0
O207 O 0.54871 0.84715 0.48096 0.0
N208 N 0.56388 0.89071 0.60582 0.0
C209 C 0.55631 0.89972 0.61829 0.0
C210 C 0.55581 0.90125 0.67992 0.0
C211 C 0.56798 0.88693 0.65977 0.0
N212 N 0.56317 0.89323 0.7061 0.0
C213 C 0.53869 0.88305 0.471 0.0
C214 C 0.51514 0.85761 0.54344 0.0
C215 C 0.50968 0.8654 0.50198 0.0
C216 C 0.5217 0.87818 0.46511 0.0
C217 C 0.53225 0.8628 0.54758 0.0
N218 N 0.54384 0.87503 0.51026 0.0
H219 H 0.54776 0.89411 0.44696 0.0
H220 H 0.53622 0.85759 0.58345 0.0
H221 H 0.55137 0.90471 0.58484 0.0
H222 H 0.5745 0.8799 0.66481 0.0
O223 O 0.57541 0.90742 0.49912 0.0
O224 O 0.59196 0.89879 0.53942 0.0
O225 O 0.56472 0.8627 0.55842 0.0
C226 C 0.5904 0.91099 0.5161 0.0
H227 H 0.59253 0.86738 0.35404 0.0
H228 H 0.55017 0.90754 0.70351 0.0
H229 H 0.50634 0.84796 0.57389 0.0
H230 H 0.51815 0.88512 0.43457 0.0
Co231 Co 0.68233 0.56754 0.85142 0.0
C232 C 0.68573 0.56861 0.71591 0.0
C233 C 0.70909 0.58394 0.76176 0.0
C234 C 0.71203 0.58592 0.70065 0.0
N235 N 0.69267 0.57281 0.77162 0.0
N236 N 0.69732 0.5763 0.67172 0.0
H237 H 0.67248 0.56085 0.70724 0.0
H238 H 0.71831 0.59039 0.79688 0.0
C239 C 0.70893 0.55829 0.8569 0.0
O240 O 0.70263 0.55032 0.80575 0.0
N241 N 0.6724 0.56298 0.93099 0.0
C242 C 0.65579 0.55471 0.94339 0.0
C243 C 0.6537 0.55354 1.00502 0.0
C244 C 0.68023 0.5669 0.98504 0.0
N245 N 0.66906 0.56117 0.0312 0.0
C246 C 0.65597 0.53736 0.79687 0.0
C247 C 0.65927 0.51507 0.87178 0.0
C248 C 0.6456 0.5088 0.83191 0.0
C249 C 0.64421 0.52017 0.79338 0.0
C250 C 0.67075 0.53233 0.87377 0.0
N251 N 0.6693 0.54333 0.83572 0.0
H252 H 0.6534 0.54589 0.77192 0.0
H253 H 0.68009 0.53689 0.90913 0.0
H254 H 0.6459 0.54975 0.90985 0.0
H255 H 0.69378 0.57349 0.99039 0.0
O256 O 0.66609 0.57351 0.82459 0.0
O257 O 0.69094 0.59146 0.86407 0.0
O258 O 0.70216 0.56588 0.88323 0.0
C259 C 0.6767 0.58881 0.84134 0.0
H260 H 0.72409 0.59392 0.67938 0.0
H261 H 0.64177 0.54765 0.0287 0.0
H262 H 0.66069 0.5068 0.90318 0.0
H263 H 0.63345 0.51603 0.76378 0.0
Co264 Co 0.11169 0.68249 0.19371 0.0
C265 C 0.11509 0.68552 0.06053 0.0
C266 C 0.12955 0.70943 0.10462 0.0
C267 C 0.13131 0.71192 0.04318 0.0
N268 N 0.11946 0.69288 0.11543 0.0
N269 N 0.12214 0.6969 0.01525 0.0
H270 H 0.10653 0.67218 0.05414 0.0
H271 H 0.13501 0.71908 0.13893 0.0
C272 C 0.14402 0.69889 0.26453 0.0
O273 O 0.1407 0.68398 0.28392 0.0
N274 N 0.10348 0.6723 0.27347 0.0
C275 C 0.08977 0.65718 0.28549 0.0
C276 C 0.08756 0.65511 0.3469 0.0
C277 C 0.10863 0.67961 0.32848 0.0
N278 N 0.09949 0.66918 0.37402 0.0
C279 C 0.11015 0.65067 0.17972 0.0
C280 C 0.14374 0.66305 0.15229 0.0
C281 C 0.13333 0.64576 0.16272 0.0
C282 C 0.11625 0.63954 0.17454 0.0
C283 C 0.1371 0.67383 0.15889 0.0
N284 N 0.12074 0.66765 0.17672 0.0
H285 H 0.09687 0.64553 0.18599 0.0
H286 H 0.14524 0.68718 0.15141 0.0
H287 H 0.08126 0.64844 0.25239 0.0
H288 H 0.11864 0.69241 0.33539 0.0
O289 O 0.08951 0.66879 0.16045 0.0
O290 O 0.09888 0.69391 0.20296 0.0
O291 O 0.13367 0.70031 0.22977 0.0
C292 C 0.08667 0.68078 0.17655 0.0
H293 H 0.13876 0.72396 0.02104 0.0
H294 H 0.07752 0.64429 0.36972 0.0
H295 H 0.15692 0.66821 0.14117 0.0
H296 H 0.10766 0.62614 0.17986 0.0
Co297 Co 0.42912 0.11143 0.53343 0.0
C298 C 0.42879 0.11423 0.40016 0.0
C299 C 0.41952 0.12881 0.44456 0.0
C300 C 0.4184 0.13029 0.38315 0.0
N301 N 0.42608 0.11881 0.45514 0.0
N302 N 0.42416 0.12106 0.35508 0.0
H303 H 0.43357 0.10567 0.39356 0.0
H304 H 0.4155 0.13439 0.47907 0.0
C305 C 0.44547 0.14364 0.60611 0.0
O306 O 0.4562 0.13959 0.62888 0.0
N307 N 0.43166 0.10373 0.61306 0.0
C308 C 0.4356 0.09168 0.62548 0.0
C309 C 0.43534 0.08947 0.6869 0.0
C310 C 0.42811 0.10793 0.66759 0.0
N311 N 0.4308 0.09982 0.71356 0.0
C312 C 0.4574 0.10744 0.50617 0.0
C313 C 0.4816 0.14117 0.5018 0.0
C314 C 0.48669 0.12908 0.50472 0.0
C315 C 0.47432 0.11204 0.50343 0.0
C316 C 0.46436 0.13592 0.50481 0.0
N317 N 0.45267 0.11928 0.51322 0.0
H318 H 0.44815 0.09425 0.50428 0.0
H319 H 0.46055 0.14531 0.50257 0.0
H320 H 0.43784 0.08433 0.59279 0.0
H321 H 0.42376 0.11684 0.6736 0.0
O322 O 0.41927 0.08871 0.50334 0.0
O323 O 0.40498 0.09962 0.54645 0.0
O324 O 0.4344 0.13398 0.56785 0.0
C325 C 0.40493 0.08673 0.52161 0.0
H326 H 0.41366 0.13762 0.36107 0.0
H327 H 0.4379 0.08059 0.70999 0.0
H328 H 0.49081 0.15448 0.50008 0.0
H329 H 0.47773 0.10229 0.5021 0.0
Co330 Co 0.31778 0.43108 0.86495 0.0
C331 C 0.31421 0.42973 0.73183 0.0
C332 C 0.29022 0.41849 0.77657 0.0
C333 C 0.28756 0.41695 0.71511 0.0
N334 N 0.3069 0.42653 0.78694 0.0
N335 N 0.30265 0.42398 0.68685 0.0
H336 H 0.32768 0.43574 0.72505 0.0
H337 H 0.28062 0.41382 0.81127 0.0
C338 C 0.30012 0.44531 0.93841 0.0
O339 O 0.31472 0.45673 0.9606 0.0
N340 N 0.32858 0.43521 0.94407 0.0
C341 C 0.34516 0.44235 0.95639 0.0
C342 C 0.34732 0.44239 0.01783 0.0
C343 C 0.32088 0.43029 0.99857 0.0
N344 N 0.33206 0.43497 0.04461 0.0
C345 C 0.34828 0.46041 0.82801 0.0
C346 C 0.33607 0.4825 0.82228 0.0
C347 C 0.35333 0.48869 0.8141 0.0
C348 C 0.35929 0.47732 0.81497 0.0
C349 C 0.32537 0.46529 0.83372 0.0
N350 N 0.33176 0.45473 0.8415 0.0
H351 H 0.35321 0.45193 0.82751 0.0
H352 H 0.31201 0.4606 0.83624 0.0
H353 H 0.35517 0.44685 0.92365 0.0
H354 H 0.30735 0.42372 1.00439 0.0
O355 O 0.33199 0.42268 0.83541 0.0
O356 O 0.30731 0.40708 0.8806 0.0
O357 O 0.29939 0.43468 0.89939 0.0
C358 C 0.32053 0.40802 0.85491 0.0
H359 H 0.2754 0.41111 0.6931 0.0
H360 H 0.35928 0.44728 0.04082 0.0
H361 H 0.3309 0.49083 0.81929 0.0
H362 H 0.37249 0.48153 0.80717 0.0
Co363 Co 0.88318 0.31868 0.1965 0.0
C364 C 0.88074 0.31542 0.06098 0.0
C365 C 0.87245 0.29197 0.10665 0.0
C366 C 0.87151 0.28908 0.04555 0.0
N367 N 0.87788 0.30842 0.11664 0.0
N368 N 0.87675 0.30384 0.01675 0.0
H369 H 0.88644 0.32871 0.0524 0.0
H370 H 0.86964 0.28271 0.14167 0.0
C371 C 0.84736 0.29216 0.20266 0.0
O372 O 0.84571 0.29877 0.15224 0.0
N373 N 0.88884 0.32855 0.27609 0.0
C374 C 0.8973 0.34516 0.28842 0.0
C375 C 0.89823 0.34725 0.35003 0.0
C376 C 0.88485 0.32071 0.33015 0.0
N377 N 0.89037 0.33189 0.37625 0.0
C378 C 0.87871 0.3449 0.14313 0.0
C379 C 0.85393 0.34162 0.22232 0.0
C380 C 0.86085 0.35521 0.18208 0.0
C381 C 0.87314 0.35658 0.1412 0.0
C382 C 0.85974 0.33017 0.22243 0.0
N383 N 0.87183 0.33164 0.1825 0.0
H384 H 0.88958 0.34749 0.11661 0.0
H385 H 0.85535 0.32087 0.25795 0.0
H386 H 0.90225 0.35506 0.25484 0.0
H387 H 0.87773 0.30716 0.33558 0.0
O388 O 0.90535 0.33502 0.16865 0.0
O389 O 0.89856 0.31012 0.20759 0.0
O390 O 0.86175 0.29873 0.22871 0.0
C391 C 0.91007 0.32435 0.18444 0.0
H392 H 0.86738 0.27702 0.02418 0.0
H393 H 0.90431 0.35918 0.37368 0.0
H394 H 0.84467 0.34031 0.25558 0.0
H395 H 0.87934 0.36731 0.11115 0.0
C396 C 0.05886 0.40272 0.20347 0.0
C397 C 0.06965 0.40036 0.16472 0.0
C398 C 0.04179 0.39065 0.20706 0.0
C399 C 0.00771 0.35922 0.11639 0.0
H400 H 0.98321 0.34734 0.2681 0.0
C401 C 0.93455 0.32056 0.21197 0.0
C402 C 0.92781 0.32865 0.1775 0.0
C403 C 0.95179 0.32593 0.20887 0.0
C404 C 0.98987 0.3503 0.22542 0.0
H405 H 0.07113 0.38338 0.10017 0.0
H406 H 0.041 0.36232 0.10541 0.0
H407 H 0.01402 0.36293 0.26866 0.0
H408 H 0.93358 0.34814 0.11084 0.0
H409 H 0.96347 0.35728 0.10476 0.0
H410 H 0.98355 0.34726 0.07314 0.0
C411 C 0.04588 0.3735 0.13332 0.0
C412 C 0.00749 0.35933 0.22573 0.0
C413 C 0.06309 0.3855 0.13047 0.0
C414 C 0.93843 0.3417 0.13814 0.0
C415 C 0.95554 0.34686 0.1343 0.0
C416 C 0.99009 0.35037 0.11608 0.0
C417 C 0.03505 0.37604 0.17138 0.0
C418 C 0.01658 0.36425 0.17122 0.0
C419 C 0.96247 0.33925 0.17035 0.0
C420 C 0.98099 0.34619 0.17058 0.0
H421 H 0.06357 0.41402 0.23063 0.0
H422 H 0.03374 0.39306 0.23623 0.0
H423 H 0.01436 0.36292 0.0737 0.0
H424 H 0.92664 0.31049 0.24279 0.0
H425 H 0.95682 0.31982 0.23706 0.0
C426 C 0.67802 0.06267 0.54598 0.0
C427 C 0.67659 0.06963 0.49157 0.0
C428 C 0.67348 0.04566 0.54887 0.0
C429 C 0.65973 0.00702 0.45288 0.0
H430 H 0.63523 0.98407 0.59787 0.0
C431 C 0.6046 0.93875 0.46417 0.0
C432 C 0.60469 0.92829 0.51028 0.0
C433 C 0.61716 0.95566 0.46136 0.0
C434 C 0.6423 0.99034 0.55754 0.0
H435 H 0.66956 0.06477 0.39754 0.0
H436 H 0.66089 0.03496 0.40254 0.0
H437 H 0.65037 0.01469 0.59443 0.0
H438 H 0.61808 0.92708 0.58895 0.0
H439 H 0.63984 0.95706 0.58541 0.0
H440 H 0.65034 0.98238 0.4148 0.0
C441 C 0.66612 0.04253 0.44272 0.0
C442 C 0.65108 0.00794 0.55548 0.0
C443 C 0.671 0.05961 0.43969 0.0
C444 C 0.61782 0.93491 0.55276 0.0
C445 C 0.63019 0.952 0.55086 0.0
C446 C 0.65064 0.9894 0.4546 0.0
C447 C 0.66695 0.0352 0.4977 0.0
C448 C 0.6596 0.01656 0.50259 0.0
C449 C 0.62984 0.96253 0.50543 0.0
C450 C 0.64158 0.98094 0.50653 0.0
H451 H 0.68224 0.07028 0.58656 0.0
H452 H 0.67467 0.04065 0.59167 0.0
H453 H 0.66647 0.01312 0.4119 0.0
H454 H 0.59462 0.93392 0.43079 0.0
H455 H 0.61653 0.96357 0.42627 0.0
C456 C 0.68086 0.61727 0.86951 0.0
C457 C 0.67205 0.60207 0.8373 0.0
C458 C 0.67476 0.6286 0.8714 0.0
C459 C 0.63432 0.62704 0.86265 0.0
H460 H 0.65949 0.67568 0.8459 0.0
C461 C 0.61634 0.68124 0.81958 0.0
C462 C 0.60258 0.67507 0.85938 0.0
C463 C 0.62773 0.67525 0.82305 0.0
C464 C 0.65235 0.66211 0.85075 0.0
H465 H 0.65078 0.58741 0.77814 0.0
H466 H 0.64032 0.60708 0.7811 0.0
H467 H 0.67403 0.65937 0.83492 0.0
H468 H 0.59084 0.65931 0.93763 0.0
H469 H 0.61088 0.6493 0.94492 0.0
H470 H 0.61265 0.62944 0.87719 0.0
C471 C 0.65168 0.61014 0.80593 0.0
C472 C 0.66067 0.65282 0.8448 0.0
C473 C 0.6577 0.59889 0.80417 0.0
C474 C 0.60123 0.66407 0.90586 0.0
C475 C 0.61265 0.65829 0.90983 0.0
C476 C 0.6261 0.63624 0.86894 0.0
C477 C 0.6598 0.62483 0.84111 0.0
C478 C 0.65163 0.63515 0.84987 0.0
C479 C 0.62552 0.66314 0.86669 0.0
C480 C 0.63495 0.65387 0.86287 0.0
H481 H 0.69198 0.62005 0.89535 0.0
H482 H 0.68126 0.63984 0.89888 0.0
H483 H 0.62706 0.61347 0.86763 0.0
H484 H 0.6176 0.6897 0.78321 0.0
H485 H 0.6375 0.67921 0.78913 0.0
C486 C 0.06119 0.68035 0.21744 0.0
C487 C 0.06992 0.67883 0.16816 0.0
C488 C 0.04411 0.67535 0.21209 0.0
C489 C 0.00746 0.64734 0.11515 0.0
H490 H 0.9839 0.66167 0.22414 0.0
C491 C 0.93469 0.61966 0.12201 0.0
C492 C 0.92889 0.6074 0.16779 0.0
C493 C 0.95173 0.6321 0.11942 0.0
C494 C 0.9904 0.65778 0.19289 0.0
H495 H 0.0684 0.67228 0.07372 0.0
H496 H 0.03904 0.66483 0.06256 0.0
H497 H 0.01472 0.67752 0.22014 0.0
H498 H 0.93591 0.59908 0.24872 0.0
H499 H 0.96557 0.62116 0.24504 0.0
H500 H 0.98302 0.62767 0.08805 0.0
C501 C 0.04489 0.66895 0.1064 0.0
C502 C 0.00804 0.66668 0.19098 0.0
C503 C 0.06178 0.67341 0.11239 0.0
C504 C 0.9401 0.60838 0.21291 0.0
C505 C 0.957 0.62101 0.21106 0.0
C506 C 0.98989 0.63873 0.11619 0.0
C507 C 0.03557 0.66912 0.15681 0.0
C508 C 0.01685 0.6613 0.15323 0.0
C509 C 0.96299 0.63266 0.1635 0.0
C510 C 0.98128 0.64365 0.15596 0.0
H511 H 0.06726 0.68433 0.26109 0.0
H512 H 0.03747 0.6755 0.25228 0.0
H513 H 0.01356 0.64243 0.08647 0.0
H514 H 0.9263 0.61905 0.08645 0.0
H515 H 0.95624 0.64089 0.08198 0.0
C516 C 0.38482 0.0601 0.5721 0.0
C517 C 0.38983 0.07002 0.51987 0.0
C518 C 0.37261 0.04305 0.56889 0.0
C519 C 0.35419 0.0083 0.45641 0.0
H520 H 0.32869 0.98278 0.59619 0.0
C521 C 0.31475 0.93521 0.46132 0.0
C522 C 0.32149 0.92884 0.50388 0.0
C523 C 0.3193 0.95225 0.46251 0.0
C524 C 0.3356 0.9898 0.55663 0.0
H525 H 0.38578 0.07051 0.42397 0.0
H526 H 0.36361 0.04094 0.41844 0.0
H527 H 0.34287 0.01351 0.59818 0.0
H528 H 0.33746 0.93487 0.58278 0.0
H529 H 0.3449 0.96447 0.58613 0.0
H530 H 0.34673 0.98443 0.41511 0.0
C531 C 0.36941 0.04601 0.46174 0.0
C532 C 0.34389 0.00741 0.55783 0.0
C533 C 0.38193 0.06299 0.46484 0.0
C534 C 0.33214 0.93951 0.54935 0.0
C535 C 0.33632 0.95638 0.5515 0.0
C536 C 0.34559 0.9907 0.45479 0.0
C537 C 0.36498 0.03562 0.51335 0.0
C538 C 0.35382 0.01695 0.50853 0.0
C539 C 0.33024 0.96299 0.50736 0.0
C540 C 0.33667 0.98134 0.50553 0.0
H541 H 0.39106 0.0653 0.61476 0.0
H542 H 0.3699 0.03555 0.6095 0.0
H543 H 0.36186 0.01504 0.41781 0.0
H544 H 0.30659 0.92722 0.42562 0.0
H545 H 0.31453 0.95713 0.42791 0.0
C546 C 0.32363 0.38498 0.90108 0.0
C547 C 0.32296 0.39343 0.84942 0.0
C548 C 0.32889 0.37307 0.89672 0.0
C549 C 0.35309 0.36108 0.79148 0.0
H550 H 0.3435 0.32724 0.9141 0.0
C551 C 0.38131 0.31656 0.79404 0.0
C552 C 0.39383 0.32246 0.83879 0.0
C553 C 0.36929 0.32175 0.79382 0.0
C554 C 0.34607 0.33651 0.8792 0.0
H555 H 0.32602 0.3955 0.75249 0.0
H556 H 0.33385 0.3738 0.74367 0.0
H557 H 0.32774 0.34229 0.91351 0.0
H558 H 0.4031 0.33748 0.92016 0.0
H559 H 0.38167 0.34598 0.92096 0.0
H560 H 0.37124 0.35497 0.75702 0.0
C561 C 0.33127 0.37684 0.7882 0.0
C562 C 0.33723 0.34531 0.87913 0.0
C563 C 0.32657 0.38913 0.79293 0.0
C564 C 0.39358 0.3328 0.88512 0.0
C565 C 0.38132 0.33758 0.88579 0.0
C566 C 0.36156 0.35198 0.79072 0.0
C567 C 0.33318 0.36908 0.84026 0.0
C568 C 0.34092 0.35808 0.8362 0.0
C569 C 0.36936 0.33244 0.83938 0.0
C570 C 0.3584 0.33992 0.8353 0.0
H571 H 0.32109 0.38833 0.94521 0.0
H572 H 0.33039 0.36768 0.93812 0.0
H573 H 0.35672 0.371 0.75841 0.0
H574 H 0.38135 0.3087 0.75761 0.0
H575 H 0.36022 0.31779 0.75735 0.0
C576 C 0.11132 0.42653 0.88283 0.0
C577 C 0.11071 0.44049 0.90609 0.0
C578 C 0.1128 0.42491 0.82059 0.0
C579 C 0.12611 0.44937 0.67868 0.0
H580 H 0.09709 0.40626 0.60247 0.0
C581 C 0.12003 0.44198 0.41922 0.0
C582 C 0.11896 0.42738 0.39401 0.0
C583 C 0.11917 0.44354 0.48179 0.0
C584 C 0.10545 0.41834 0.62306 0.0
H585 H 0.11173 0.46393 0.88235 0.0
H586 H 0.11419 0.46106 0.77406 0.0
H587 H 0.09591 0.40903 0.7116 0.0
H588 H 0.11581 0.40285 0.41553 0.0
H589 H 0.11482 0.40579 0.52413 0.0
H590 H 0.13574 0.45868 0.59034 0.0
C591 C 0.11353 0.45137 0.80382 0.0
C592 C 0.10476 0.41992 0.68565 0.0
C593 C 0.11193 0.45292 0.86587 0.0
C594 C 0.11691 0.41437 0.43307 0.0
C595 C 0.11611 0.41596 0.49555 0.0
C596 C 0.12686 0.44778 0.61613 0.0
C597 C 0.11387 0.4373 0.78039 0.0
C598 C 0.11503 0.43547 0.71414 0.0
C599 C 0.11725 0.43057 0.52078 0.0
C600 C 0.1165 0.43226 0.58745 0.0
H601 H 0.1103 0.41669 0.91258 0.0
H602 H 0.11317 0.41399 0.80393 0.0
H603 H 0.13434 0.46147 0.69939 0.0
H604 H 0.12177 0.45233 0.39077 0.0
H605 H 0.11988 0.45489 0.49956 0.0
C606 C 0.70501 0.11875 0.76553 0.0
C607 C 0.69242 0.11761 0.72621 0.0
C608 C 0.70236 0.11703 0.82798 0.0
C609 C 0.6758 0.11977 0.94877 0.0
H610 H 0.69246 0.09559 0.0436 0.0
C611 C 0.65736 0.10258 0.19868 0.0
C612 C 0.66977 0.10398 0.23947 0.0
C613 C 0.66047 0.10444 0.13658 0.0
C614 C 0.68791 0.10256 0.01793 0.0
H615 H 0.66707 0.1137 0.72251 0.0
H616 H 0.66231 0.11038 0.83127 0.0
H617 H 0.69684 0.09805 0.93453 0.0
H618 H 0.69527 0.10844 0.24616 0.0
H619 H 0.7008 0.11188 0.13754 0.0
H620 H 0.66683 0.12424 0.03207 0.0
C621 C 0.67436 0.11283 0.81373 0.0
C622 C 0.69041 0.10397 0.95529 0.0
C623 C 0.67702 0.11454 0.75116 0.0
C624 C 0.68545 0.10736 0.21626 0.0
C625 C 0.68856 0.10918 0.15388 0.0
C626 C 0.6733 0.11836 0.01133 0.0
C627 C 0.68703 0.11411 0.85302 0.0
C628 C 0.68434 0.11256 0.91981 0.0
C629 C 0.6761 0.10776 0.11324 0.0
C630 C 0.67925 0.10967 0.04676 0.0
H631 H 0.71695 0.12087 0.74817 0.0
H632 H 0.71247 0.11826 0.85673 0.0
H633 H 0.67124 0.12676 0.92319 0.0
H634 H 0.64522 0.10024 0.21467 0.0
H635 H 0.6505 0.10307 0.10674 0.0
C636 C 0.5586 0.6567 0.54081 0.0
C637 C 0.56714 0.67034 0.58076 0.0
C638 C 0.55881 0.65934 0.47856 0.0
C639 C 0.56687 0.69223 0.36438 0.0
H640 H 0.56907 0.66049 0.25414 0.0
C641 C 0.57746 0.70476 0.10785 0.0
C642 C 0.56784 0.69128 0.06822 0.0
C643 C 0.57726 0.70212 0.17009 0.0
C644 C 0.56827 0.66937 0.28428 0.0
H645 H 0.58278 0.6975 0.58593 0.0
H646 H 0.58334 0.70213 0.47715 0.0
H647 H 0.56944 0.65638 0.36278 0.0
H648 H 0.55039 0.66436 0.0641 0.0
H649 H 0.5502 0.65974 0.17276 0.0
H650 H 0.56587 0.7053 0.28568 0.0
C651 C 0.57621 0.68936 0.49419 0.0
C652 C 0.56847 0.66702 0.34669 0.0
C653 C 0.57593 0.68672 0.55666 0.0
C654 C 0.55811 0.67503 0.09284 0.0
C655 C 0.55799 0.67237 0.15525 0.0
C656 C 0.56675 0.69462 0.30197 0.0
C657 C 0.56764 0.67569 0.45426 0.0
C658 C 0.56774 0.67839 0.38766 0.0
C659 C 0.56752 0.68591 0.19466 0.0
C660 C 0.56743 0.68321 0.26111 0.0
H661 H 0.55139 0.64395 0.55771 0.0
H662 H 0.55177 0.64852 0.44958 0.0
H663 H 0.56599 0.70109 0.39436 0.0
H664 H 0.58541 0.7174 0.09098 0.0
H665 H 0.58499 0.71278 0.19894 0.0
C666 C 0.8911 0.57908 0.89045 0.0
C667 C 0.89422 0.56659 0.91366 0.0
C668 C 0.88928 0.5804 0.82807 0.0
C669 C 0.87966 0.55581 0.68546 0.0
H670 H 0.90007 0.59965 0.60855 0.0
C671 C 0.88318 0.56333 0.4251 0.0
C672 C 0.88023 0.57575 0.40029 0.0
C673 C 0.88491 0.56235 0.48764 0.0
C674 C 0.89412 0.5873 0.62933 0.0
H675 H 0.89749 0.5455 0.88869 0.0
H676 H 0.89468 0.54801 0.78082 0.0
H677 H 0.9027 0.59774 0.71751 0.0
H678 H 0.87715 0.59713 0.42256 0.0
H679 H 0.87982 0.59521 0.53109 0.0
H680 H 0.87108 0.54536 0.59742 0.0
C681 C 0.89351 0.55673 0.81068 0.0
C682 C 0.89562 0.58621 0.69194 0.0
C683 C 0.89536 0.55544 0.87279 0.0
C684 C 0.8792 0.58725 0.43979 0.0
C685 C 0.88094 0.58628 0.50222 0.0
C686 C 0.87816 0.5569 0.62292 0.0
C687 C 0.89043 0.5692 0.78735 0.0
C688 C 0.88847 0.57044 0.72085 0.0
C689 C 0.88378 0.57379 0.52711 0.0
C690 C 0.88541 0.57266 0.5939 0.0
H691 H 0.89022 0.58795 0.92034 0.0
H692 H 0.88677 0.59007 0.81182 0.0
H693 H 0.87373 0.54345 0.7062 0.0
H694 H 0.88393 0.55418 0.39634 0.0
H695 H 0.88728 0.55268 0.50502 0.0
C696 C 0.30923 0.87867 0.22251 0.0
C697 C 0.3244 0.89199 0.24529 0.0
C698 C 0.30618 0.87685 0.16022 0.0
C699 C 0.32839 0.88848 0.01378 0.0
H700 H 0.28491 0.87767 0.9483 0.0
C701 C 0.31793 0.8913 0.75789 0.0
C702 C 0.30254 0.87894 0.73319 0.0
C703 C 0.3204 0.89259 0.82043 0.0
C704 C 0.29706 0.88047 0.96584 0.0
H705 H 0.34792 0.91419 0.21995 0.0
H706 H 0.34266 0.9109 0.11193 0.0
H707 H 0.28934 0.88034 0.05733 0.0
H708 H 0.27783 0.85799 0.75489 0.0
H709 H 0.28218 0.86008 0.86382 0.0
H710 H 0.33612 0.88851 0.92261 0.0
C711 C 0.33325 0.9017 0.14214 0.0
C712 C 0.2996 0.88202 0.02837 0.0
C713 C 0.33627 0.90357 0.20423 0.0
C714 C 0.28974 0.86781 0.7725 0.0
C715 C 0.29223 0.86904 0.835 0.0
C716 C 0.32584 0.88685 0.95135 0.0
C717 C 0.31824 0.88826 0.11932 0.0
C718 C 0.31533 0.88616 0.05302 0.0
C719 C 0.30757 0.88148 0.85983 0.0
C720 C 0.31017 0.88292 0.92649 0.0
H721 H 0.29987 0.86942 0.25258 0.0
H722 H 0.29453 0.86628 0.14401 0.0
H723 H 0.34058 0.8914 0.03141 0.0
H724 H 0.32795 0.90024 0.72899 0.0
H725 H 0.33228 0.90251 0.83791 0.0
C726 C 0.42204 0.28999 0.10908 0.0
C727 C 0.42384 0.30284 0.06977 0.0
C728 C 0.4233 0.29249 0.1716 0.0
C729 C 0.43942 0.32617 0.2878 0.0
H730 H 0.4094 0.28982 0.39423 0.0
C731 C 0.43379 0.33685 0.54103 0.0
C732 C 0.4334 0.32491 0.58196 0.0
C733 C 0.43248 0.3338 0.47893 0.0
C734 C 0.41799 0.30003 0.36514 0.0
H735 H 0.42812 0.32831 0.0656 0.0
H736 H 0.43017 0.33265 0.17451 0.0
H737 H 0.40746 0.28533 0.28521 0.0
H738 H 0.43112 0.30024 0.58902 0.0
H739 H 0.42867 0.29485 0.48046 0.0
H740 H 0.44982 0.34092 0.3677 0.0
C741 C 0.42812 0.32073 0.15703 0.0
C742 C 0.4169 0.29746 0.30261 0.0
C743 C 0.42694 0.31826 0.09448 0.0
C744 C 0.43131 0.30965 0.55905 0.0
C745 C 0.42992 0.30657 0.49676 0.0
C746 C 0.44045 0.32875 0.35022 0.0
C747 C 0.42632 0.30788 0.19644 0.0
C748 C 0.42757 0.31052 0.2631 0.0
C749 C 0.43066 0.31869 0.45597 0.0
C750 C 0.42971 0.31574 0.38964 0.0
H751 H 0.41989 0.27806 0.09147 0.0
H752 H 0.42214 0.28241 0.20041 0.0
H753 H 0.44806 0.33641 0.25893 0.0
H754 H 0.43501 0.34857 0.55686 0.0
H755 H 0.43276 0.34325 0.44884 0.0
C756 C 0.56493 0.90328 0.81108 0.0
C757 C 0.56514 0.89165 0.77012 0.0
C758 C 0.56615 0.90147 0.87319 0.0
C759 C 0.58007 0.88167 0.98698 0.0
H760 H 0.5504 0.88859 0.09314 0.0
C761 C 0.57566 0.86736 0.24295 0.0
C762 C 0.57412 0.87856 0.28233 0.0
C763 C 0.57445 0.86866 0.18043 0.0
C764 C 0.55893 0.88682 0.06429 0.0
H765 H 0.56698 0.86901 0.76301 0.0
H766 H 0.56927 0.86594 0.87158 0.0
H767 H 0.54877 0.89147 0.98437 0.0
H768 H 0.57036 0.90008 0.28658 0.0
H769 H 0.56839 0.90247 0.17769 0.0
H770 H 0.59037 0.87718 0.06692 0.0
C771 C 0.56824 0.87653 0.8553 0.0
C772 C 0.55797 0.88844 1.00186 0.0
C773 C 0.56695 0.87831 0.79301 0.0
C774 C 0.57133 0.89108 0.25766 0.0
C775 C 0.57019 0.89244 0.19513 0.0
C776 C 0.58109 0.88011 0.04951 0.0
C777 C 0.56769 0.88801 0.89613 0.0
C778 C 0.56857 0.88595 0.96246 0.0
C779 C 0.57174 0.88125 0.15566 0.0
C780 C 0.57056 0.88272 0.089 0.0
H781 H 0.56394 0.91392 0.79526 0.0
H782 H 0.56603 0.91072 0.9033 0.0
H783 H 0.58855 0.87986 0.95791 0.0
H784 H 0.57756 0.85742 0.2605 0.0
H785 H 0.57541 0.85964 0.15157 0.0
C786 C 0.68051 0.56076 0.58209 0.0
C787 C 0.69454 0.57493 0.60721 0.0
C788 C 0.67793 0.55939 0.5196 0.0
C789 C 0.7002 0.575 0.37439 0.0
H790 H 0.65539 0.55918 0.31053 0.0
C791 C 0.68734 0.57625 0.11851 0.0
C792 C 0.67254 0.56261 0.09513 0.0
C793 C 0.69032 0.57787 0.18084 0.0
C794 C 0.66795 0.56342 0.32755 0.0
H795 H 0.71668 0.59891 0.58558 0.0
H796 H 0.71225 0.5964 0.47693 0.0
H797 H 0.65987 0.56163 0.41936 0.0
H798 H 0.64962 0.53962 0.11886 0.0
H799 H 0.65485 0.54232 0.22701 0.0
H800 H 0.70827 0.57666 0.28262 0.0
C801 C 0.70336 0.58626 0.50563 0.0
C802 C 0.67051 0.56484 0.38999 0.0
C803 C 0.7059 0.58768 0.56808 0.0
C804 C 0.66097 0.55047 0.13539 0.0
C805 C 0.66397 0.55203 0.19752 0.0
C806 C 0.69763 0.57351 0.31188 0.0
C807 C 0.68935 0.57211 0.48063 0.0
C808 C 0.68666 0.57063 0.41417 0.0
C809 C 0.67859 0.56583 0.22118 0.0
C810 C 0.68146 0.56765 0.28766 0.0
H811 H 0.67164 0.55057 0.61053 0.0
H812 H 0.66712 0.54821 0.5017 0.0
H813 H 0.71276 0.57931 0.39162 0.0
H814 H 0.69642 0.5859 0.08877 0.0
H815 H 0.70163 0.58876 0.19749 0.0
C816 C 0.09714 0.65858 0.47832 0.0
C817 C 0.10196 0.67215 0.43828 0.0
C818 C 0.09949 0.66128 0.54056 0.0
C819 C 0.12333 0.69453 0.65494 0.0
H820 H 0.08945 0.6623 0.76427 0.0
C821 C 0.12335 0.70721 0.91067 0.0
C822 C 0.11989 0.69393 0.95079 0.0
C823 C 0.12132 0.70446 0.84839 0.0
C824 C 0.09911 0.67133 0.73438 0.0
H825 H 0.11297 0.69925 0.43268 0.0
H826 H 0.11686 0.70399 0.54142 0.0
H827 H 0.08551 0.65797 0.65556 0.0
H828 H 0.11157 0.66724 0.95569 0.0
H829 H 0.10781 0.66242 0.84702 0.0
H830 H 0.13679 0.70799 0.73401 0.0
C831 C 0.11153 0.69124 0.52456 0.0
C832 C 0.09688 0.66884 0.67194 0.0
C833 C 0.10927 0.68854 0.46212 0.0
C834 C 0.11418 0.67775 0.9266 0.0
C835 C 0.11204 0.67498 0.86417 0.0
C836 C 0.12551 0.69706 0.71739 0.0
C837 C 0.10664 0.67763 0.56467 0.0
C838 C 0.10897 0.6804 0.6313 0.0
C839 C 0.11564 0.68833 0.82431 0.0
C840 C 0.11343 0.68549 0.75788 0.0
H841 H 0.0918 0.64584 0.46148 0.0
H842 H 0.09591 0.65051 0.56969 0.0
H843 H 0.13306 0.70354 0.62524 0.0
H844 H 0.12743 0.71977 0.92718 0.0
H845 H 0.12393 0.71496 0.81908 0.0
C846 C 0.41409 0.12131 0.25135 0.0
C847 C 0.42461 0.11865 0.29064 0.0
C848 C 0.41465 0.11927 0.18897 0.0
C849 C 0.44185 0.11783 0.06781 0.0
H850 H 0.40057 0.09792 0.97422 0.0
C851 C 0.43963 0.09874 0.81823 0.0
C852 C 0.42984 0.1021 0.77777 0.0
C853 C 0.43893 0.10098 0.88034 0.0
C854 C 0.41224 0.10369 0.99958 0.0
H855 H 0.44399 0.11168 0.29428 0.0
H856 H 0.4447 0.10775 0.18561 0.0
H857 H 0.39941 0.10092 0.08329 0.0
H858 H 0.41157 0.11048 0.7715 0.0
H859 H 0.41042 0.11454 0.88023 0.0
H860 H 0.45465 0.12047 0.9841 0.0
C861 C 0.43616 0.11167 0.20315 0.0
C862 C 0.41158 0.10541 0.0622 0.0
C863 C 0.43562 0.11373 0.26568 0.0
C864 C 0.41934 0.10784 0.80121 0.0
C865 C 0.41857 0.11002 0.86361 0.0
C866 C 0.4425 0.11606 1.00525 0.0
C867 C 0.42571 0.11446 0.16393 0.0
C868 C 0.42638 0.11249 0.09721 0.0
C869 C 0.4284 0.10665 0.90392 0.0
C870 C 0.4277 0.10893 0.97033 0.0
H871 H 0.40527 0.12486 0.26863 0.0
H872 H 0.40654 0.12172 0.1603 0.0
H873 H 0.45354 0.12363 0.093 0.0
H874 H 0.44806 0.09455 0.80192 0.0
H875 H 0.44653 0.09809 0.91001 0.0
C876 C 0.32106 0.43694 0.59731 0.0
C877 C 0.30561 0.42471 0.62235 0.0
C878 C 0.32379 0.4377 0.53479 0.0
C879 C 0.30105 0.4245 0.38831 0.0
H880 H 0.34439 0.43377 0.32612 0.0
C881 C 0.31308 0.42085 0.13214 0.0
C882 C 0.32871 0.43329 0.10894 0.0
C883 C 0.31002 0.41939 0.19459 0.0
C884 C 0.33226 0.43134 0.34263 0.0
H885 H 0.28108 0.40342 0.60049 0.0
H886 H 0.28581 0.40478 0.4921 0.0
H887 H 0.33972 0.43225 0.43483 0.0
H888 H 0.35313 0.45427 0.13394 0.0
H889 H 0.34782 0.45172 0.24181 0.0
H890 H 0.29361 0.42366 0.29604 0.0
C891 C 0.29574 0.41399 0.52066 0.0
C892 C 0.32958 0.43048 0.40511 0.0
C893 C 0.29302 0.41322 0.58308 0.0
C894 C 0.34109 0.44428 0.14987 0.0
C895 C 0.33804 0.44282 0.21205 0.0
C896 C 0.30373 0.42537 0.32576 0.0
C897 C 0.31114 0.42626 0.49558 0.0
C898 C 0.31396 0.4271 0.42886 0.0
C899 C 0.32249 0.43033 0.23541 0.0
C900 C 0.3194 0.42888 0.30204 0.0
H901 H 0.33098 0.44613 0.62584 0.0
H902 H 0.33573 0.44747 0.51708 0.0
H903 H 0.28892 0.42209 0.40489 0.0
H904 H 0.30329 0.41208 0.10221 0.0
H905 H 0.29795 0.4095 0.21092 0.0
C906 C 0.88751 0.33998 0.4801 0.0
C907 C 0.88819 0.32841 0.44015 0.0
C908 C 0.886 0.33701 0.54224 0.0
C909 C 0.87383 0.30345 0.65713 0.0
H910 H 0.89959 0.34132 0.76413 0.0
C911 C 0.87974 0.29534 0.91328 0.0
C912 C 0.87827 0.30667 0.95227 0.0
C913 C 0.88089 0.29788 0.85083 0.0
C914 C 0.89218 0.33064 0.7349 0.0
H915 H 0.88768 0.30456 0.43427 0.0
H916 H 0.8852 0.2994 0.54307 0.0
H917 H 0.90163 0.34572 0.65525 0.0
H918 H 0.87675 0.32954 0.9555 0.0
H919 H 0.87893 0.33404 0.84659 0.0
H920 H 0.86452 0.28836 0.73705 0.0
C921 C 0.8856 0.31069 0.52617 0.0
C922 C 0.89333 0.33316 0.67243 0.0
C923 C 0.88704 0.31364 0.46381 0.0
C924 C 0.87812 0.32069 0.92709 0.0
C925 C 0.87934 0.32326 0.86458 0.0
C926 C 0.87274 0.30092 0.71965 0.0
C927 C 0.8852 0.32242 0.56621 0.0
C928 C 0.88411 0.31961 0.63271 0.0
C929 C 0.88068 0.31185 0.82573 0.0
C930 C 0.88187 0.3145 0.75925 0.0
H931 H 0.88801 0.3513 0.46329 0.0
H932 H 0.88533 0.34612 0.5715 0.0
H933 H 0.86637 0.29277 0.62799 0.0
H934 H 0.88021 0.28458 0.93089 0.0
H935 H 0.88218 0.289 0.82221 0.0
C936 C 0.14223 0.52046 0.22241 0.0
C937 C 0.14271 0.51208 0.16992 0.0
C938 C 0.14536 0.53702 0.2195 0.0
C939 C 0.14421 0.56703 0.11044 0.0
H940 H 0.16354 0.59821 0.24428 0.0
C941 C 0.14754 0.63174 0.11158 0.0
C942 C 0.13996 0.63401 0.16306 0.0
C943 C 0.15166 0.61893 0.11026 0.0
C944 C 0.1582 0.58966 0.20643 0.0
H945 H 0.14733 0.51489 0.0732 0.0
H946 H 0.15348 0.54388 0.06872 0.0
H947 H 0.16389 0.57174 0.24569 0.0
H948 H 0.13154 0.62549 0.25435 0.0
H949 H 0.13897 0.60338 0.25256 0.0
H950 H 0.13835 0.5849 0.07168 0.0
C951 C 0.15032 0.53754 0.11202 0.0
C952 C 0.15829 0.57445 0.20736 0.0
C953 C 0.14704 0.52094 0.11482 0.0
C954 C 0.13736 0.62392 0.21412 0.0
C955 C 0.14171 0.61135 0.21318 0.0
C956 C 0.14428 0.58231 0.10926 0.0
C957 C 0.14919 0.5457 0.16408 0.0
C958 C 0.15091 0.56273 0.16009 0.0
C959 C 0.14853 0.60845 0.16082 0.0
C960 C 0.15089 0.59359 0.15792 0.0
H961 H 0.13916 0.51414 0.26575 0.0
H962 H 0.14417 0.54279 0.2605 0.0
H963 H 0.13818 0.55827 0.07361 0.0
H964 H 0.14957 0.63935 0.07163 0.0
H965 H 0.15696 0.61698 0.06939 0.0
C966 C 0.62895 0.14771 0.50247 0.0
C967 C 0.63006 0.13675 0.54423 0.0
C968 C 0.61489 0.14995 0.50242 0.0
C969 C 0.57032 0.12588 0.54487 0.0
H970 H 0.56926 0.16689 0.51147 0.0
C971 C 0.50856 0.12609 0.56036 0.0
C972 C 0.50452 0.13374 0.51339 0.0
C973 C 0.52484 0.1288 0.56644 0.0
C974 C 0.56939 0.15533 0.52032 0.0
H975 H 0.61824 0.1208 0.62199 0.0
H976 H 0.59395 0.12494 0.62278 0.0
H977 H 0.59645 0.16785 0.52005 0.0
H978 H 0.51452 0.15095 0.43775 0.0
H979 H 0.54326 0.15552 0.44763 0.0
H980 H 0.54348 0.11325 0.54436 0.0
C981 C 0.60362 0.13142 0.58893 0.0
C982 C 0.58493 0.15589 0.52536 0.0
C983 C 0.61756 0.12912 0.58872 0.0
C984 C 0.51735 0.14487 0.47422 0.0
C985 C 0.53375 0.1475 0.48002 0.0
C986 C 0.55491 0.12533 0.53975 0.0
C987 C 0.60178 0.14131 0.54431 0.0
C988 C 0.58554 0.14117 0.53849 0.0
C989 C 0.53753 0.1391 0.52531 0.0
C990 C 0.55421 0.14004 0.52823 0.0
H991 H 0.63839 0.15368 0.46748 0.0
H992 H 0.61384 0.15763 0.46743 0.0
H993 H 0.57029 0.11421 0.55311 0.0
H994 H 0.49898 0.11773 0.59197 0.0
H995 H 0.52742 0.12252 0.60287 0.0
C996 C 0.4767 0.62794 0.8748 0.0
C997 C 0.48866 0.63129 0.82932 0.0
C998 C 0.4602 0.61434 0.86873 0.0
C999 C 0.43899 0.57327 0.79403 0.0
H1000 H 0.39713 0.57114 0.83979 0.0
C1001 C 0.37696 0.51237 0.75827 0.0
C1002 C 0.36541 0.50688 0.8062 0.0
C1003 C 0.39035 0.52893 0.75648 0.0
C1004 C 0.40874 0.57153 0.82718 0.0
H1005 H 0.4926 0.62418 0.74019 0.0
H1006 H 0.46393 0.60079 0.72906 0.0
H1007 H 0.42374 0.59801 0.84657 0.0
H1008 H 0.35819 0.51451 0.88821 0.0
H1009 H 0.3819 0.54345 0.88611 0.0
H1010 H 0.42442 0.54695 0.77628 0.0
C1011 C 0.46725 0.60827 0.76996 0.0
C1012 C 0.42394 0.5869 0.83105 0.0
C1013 C 0.48362 0.62169 0.77615 0.0
C1014 C 0.36691 0.51851 0.85055 0.0
C1015 C 0.38048 0.53508 0.84926 0.0
C1016 C 0.42392 0.558 0.7905 0.0
C1017 C 0.45553 0.60401 0.81706 0.0
C1018 C 0.43921 0.58793 0.81394 0.0
C1019 C 0.39269 0.54031 0.80325 0.0
C1020 C 0.40856 0.5569 0.80647 0.0
H1021 H 0.48035 0.63517 0.91627 0.0
H1022 H 0.45143 0.61134 0.90578 0.0
H1023 H 0.45057 0.57352 0.78206 0.0
H1024 H 0.37596 0.50366 0.72323 0.0
H1025 H 0.39922 0.53264 0.71942 0.0
C1026 C 0.85736 0.37582 0.24552 0.0
C1027 C 0.85698 0.36904 0.1882 0.0
C1028 C 0.85536 0.38987 0.25153 0.0
C1029 C 0.83942 0.41505 0.17977 0.0
H1030 H 0.87559 0.45234 0.26638 0.0
C1031 C 0.85076 0.48306 0.16817 0.0
C1032 C 0.85888 0.49397 0.21671 0.0
C1033 C 0.84802 0.46661 0.16894 0.0
C1034 C 0.86513 0.44199 0.24328 0.0
H1035 H 0.85362 0.37128 0.0925 0.0
H1036 H 0.84985 0.39586 0.10319 0.0
H1037 H 0.8752 0.42572 0.25928 0.0
H1038 H 0.86953 0.49617 0.30558 0.0
H1039 H 0.86388 0.46718 0.30892 0.0
H1040 H 0.82915 0.4312 0.16446 0.0
C1041 C 0.85174 0.39024 0.1433 0.0
C1042 C 0.86501 0.42675 0.23888 0.0
C1043 C 0.85399 0.37628 0.13715 0.0
C1044 C 0.86328 0.48793 0.26761 0.0
C1045 C 0.86022 0.47139 0.26901 0.0
C1046 C 0.83936 0.43026 0.18504 0.0
C1047 C 0.85274 0.39735 0.20046 0.0
C1048 C 0.85225 0.41319 0.20669 0.0
C1049 C 0.85313 0.46068 0.21875 0.0
C1050 C 0.85232 0.44401 0.21644 0.0
H1051 H 0.85986 0.37065 0.28561 0.0
H1052 H 0.85613 0.39509 0.29611 0.0
H1053 H 0.82937 0.40471 0.15505 0.0
H1054 H 0.84746 0.48758 0.12814 0.0
H1055 H 0.84271 0.4589 0.12909 0.0
C1056 C 0.48373 0.86037 0.44627 0.0
C1057 C 0.49189 0.8615 0.50119 0.0
C1058 C 0.46753 0.85825 0.44576 0.0
C1059 C 0.43005 0.84691 0.54227 0.0
H1060 H 0.42272 0.87471 0.42824 0.0
C1061 C 0.37581 0.86184 0.56339 0.0
C1062 C 0.36783 0.86233 0.50984 0.0
C1063 C 0.38986 0.85965 0.56128 0.0
C1064 C 0.42445 0.86668 0.45981 0.0
H1065 H 0.48936 0.86104 0.59866 0.0
H1066 H 0.46121 0.8575 0.59784 0.0
H1067 H 0.44909 0.87443 0.42589 0.0
H1068 H 0.36829 0.86074 0.41211 0.0
H1069 H 0.39255 0.85666 0.40861 0.0
H1070 H 0.40547 0.83951 0.57702 0.0
C1071 C 0.46715 0.85792 0.55508 0.0
C1072 C 0.43958 0.86648 0.4584 0.0
C1073 C 0.48331 0.85996 0.55557 0.0
C1074 C 0.37398 0.8602 0.45429 0.0
C1075 C 0.38802 0.85807 0.45219 0.0
C1076 C 0.41492 0.84716 0.54383 0.0
C1077 C 0.45917 0.85732 0.50018 0.0
C1078 C 0.44263 0.85668 0.49982 0.0
C1079 C 0.39627 0.85801 0.50557 0.0
C1080 C 0.412 0.85712 0.50279 0.0
H1081 H 0.48995 0.86131 0.40365 0.0
H1082 H 0.46162 0.85752 0.40266 0.0
H1083 H 0.4319 0.83905 0.57432 0.0
H1084 H 0.37131 0.86334 0.60689 0.0
H1085 H 0.39601 0.85978 0.60318 0.0
C1086 C 0.62375 0.48195 0.78274 0.0
C1087 C 0.63181 0.49097 0.83534 0.0
C1088 C 0.60968 0.46577 0.78662 0.0
C1089 C 0.57511 0.43956 0.89027 0.0
H1090 H 0.56675 0.4034 0.77969 0.0
C1091 C 0.51466 0.37482 0.90689 0.0
C1092 C 0.50653 0.36758 0.85209 0.0
C1093 C 0.53101 0.38866 0.90717 0.0
C1094 C 0.56886 0.41341 0.81066 0.0
H1095 H 0.63157 0.48989 0.93329 0.0
H1096 H 0.60726 0.46162 0.93992 0.0
H1097 H 0.59356 0.42986 0.77533 0.0
H1098 H 0.50925 0.36916 0.75461 0.0
H1099 H 0.53765 0.39333 0.75505 0.0
H1100 H 0.55033 0.4234 0.92465 0.0
C1101 C 0.61173 0.4671 0.89569 0.0
C1102 C 0.58421 0.42855 0.80817 0.0
C1103 C 0.62581 0.48323 0.89182 0.0
C1104 C 0.51526 0.37425 0.79765 0.0
C1105 C 0.53157 0.38813 0.79791 0.0
C1106 C 0.55976 0.42448 0.89261 0.0
C1107 C 0.60333 0.4583 0.84321 0.0
C1108 C 0.58745 0.44184 0.84766 0.0
C1109 C 0.53957 0.39565 0.85263 0.0
C1110 C 0.55637 0.41126 0.85251 0.0
H1111 H 0.62815 0.48752 0.73858 0.0
H1112 H 0.60342 0.45936 0.74536 0.0
H1113 H 0.57709 0.44966 0.92065 0.0
H1114 H 0.50832 0.36983 0.94957 0.0
H1115 H 0.5369 0.39397 0.95016 0.0
C1116 C 0.28467 0.45521 1.00503 0.0
C1117 C 0.28446 0.44499 0.95735 0.0
C1118 C 0.26982 0.45465 0.02362 0.0
C1119 C 0.22697 0.44295 0.97354 0.0
H1120 H 0.21816 0.44188 0.14519 0.0
C1121 C 0.16388 0.43383 0.07027 0.0
C1122 C 0.16509 0.44342 0.12156 0.0
C1123 C 0.17811 0.43359 0.04831 0.0
C1124 C 0.2205 0.44237 0.09708 0.0
H1125 H 0.26846 0.4263 0.89129 0.0
H1126 H 0.24258 0.42538 0.92379 0.0
H1127 H 0.24371 0.44258 0.11061 0.0
H1128 H 0.18231 0.46062 0.1889 0.0
H1129 H 0.20696 0.46044 0.15019 0.0
H1130 H 0.20382 0.44295 0.96008 0.0
C1131 C 0.25425 0.43387 0.94659 0.0
C1132 C 0.23515 0.44275 0.0773 0.0
C1133 C 0.26908 0.43433 0.92825 0.0
C1134 C 0.18085 0.45296 0.14965 0.0
C1135 C 0.19501 0.45277 0.12766 0.0
C1136 C 0.21232 0.44265 0.99336 0.0
C1137 C 0.25444 0.44395 0.99473 0.0
C1138 C 0.23863 0.44318 0.01535 0.0
C1139 C 0.19382 0.44295 0.07715 0.0
C1140 C 0.20898 0.44252 0.05544 0.0
H1141 H 0.29629 0.46356 0.02839 0.0
H1142 H 0.27041 0.46273 0.06039 0.0
H1143 H 0.22937 0.4434 0.92548 0.0
H1144 H 0.15192 0.42635 0.04762 0.0
H1145 H 0.17673 0.4258 0.00952 0.0
C1146 C 0.83367 0.26874 0.27917 0.0
C1147 C 0.8324 0.27731 0.22858 0.0
C1148 C 0.81939 0.25438 0.3015 0.0
C1149 C 0.77665 0.22131 0.25413 0.0
H1150 H 0.76821 0.21334 0.42589 0.0
C1151 C 0.71259 0.16997 0.34696 0.0
C1152 C 0.71291 0.15988 0.39414 0.0
C1153 C 0.7274 0.18435 0.32851 0.0
C1154 C 0.77048 0.21532 0.37778 0.0
H1155 H 0.81504 0.27776 0.1629 0.0
H1156 H 0.79034 0.2531 0.20219 0.0
H1157 H 0.79386 0.23828 0.39088 0.0
H1158 H 0.72902 0.15715 0.45958 0.0
H1159 H 0.7548 0.18222 0.42729 0.0
H1160 H 0.75325 0.19848 0.24093 0.0
C1161 C 0.80235 0.25715 0.22391 0.0
C1162 C 0.78519 0.22959 0.35773 0.0
C1163 C 0.81655 0.2714 0.20159 0.0
C1164 C 0.72832 0.16463 0.42302 0.0
C1165 C 0.7431 0.17905 0.40479 0.0
C1166 C 0.76195 0.20713 0.27413 0.0
C1167 C 0.80358 0.24833 0.27368 0.0
C1168 C 0.78837 0.23283 0.29561 0.0
C1169 C 0.74283 0.189 0.35701 0.0
C1170 C 0.75863 0.20402 0.33615 0.0
H1171 H 0.84571 0.27299 0.30098 0.0
H1172 H 0.8208 0.24781 0.33974 0.0
H1173 H 0.77886 0.2232 0.20597 0.0
H1174 H 0.70095 0.16669 0.32379 0.0
H1175 H 0.72674 0.19187 0.29204 0.0
C1176 C 0.54511 0.8173 0.53237 0.0
C1177 C 0.55568 0.83314 0.55846 0.0
C1178 C 0.54462 0.80286 0.55511 0.0
C1179 C 0.55523 0.78567 0.68876 0.0
H1180 H 0.55237 0.75253 0.57316 0.0
C1181 C 0.56312 0.72883 0.75504 0.0
C1182 C 0.55177 0.71317 0.72909 0.0
C1183 C 0.56357 0.74357 0.73568 0.0
C1184 C 0.553 0.76158 0.60604 0.0
H1185 H 0.57383 0.84621 0.62969 0.0
H1186 H 0.57319 0.82096 0.66893 0.0
H1187 H 0.55345 0.77816 0.53731 0.0
H1188 H 0.53195 0.70077 0.66245 0.0
H1189 H 0.53279 0.72651 0.6286 0.0
H1190 H 0.55497 0.76905 0.75745 0.0
C1191 C 0.56512 0.81969 0.63124 0.0
C1192 C 0.5536 0.77628 0.58553 0.0
C1193 C 0.56555 0.83418 0.60859 0.0
C1194 C 0.54087 0.71261 0.68337 0.0
C1195 C 0.5414 0.72737 0.66374 0.0
C1196 C 0.55472 0.77097 0.70928 0.0
C1197 C 0.55476 0.80387 0.60433 0.0
C1198 C 0.55459 0.78846 0.62661 0.0
C1199 C 0.55277 0.74302 0.68963 0.0
C1200 C 0.5535 0.75872 0.66812 0.0
H1201 H 0.5372 0.81599 0.49407 0.0
H1202 H 0.53621 0.79086 0.5341 0.0
H1203 H 0.55579 0.79468 0.72167 0.0
H1204 H 0.57172 0.72975 0.79027 0.0
H1205 H 0.57259 0.75545 0.75607 0.0
C1206 C 0.83399 0.56542 0.09233 0.0
C1207 C 0.8388 0.5546 0.065 0.0
C1208 C 0.81978 0.56588 0.07216 0.0
C1209 C 0.79286 0.55683 0.93857 0.0
H1210 H 0.76075 0.55758 0.05092 0.0
C1211 C 0.72954 0.54804 0.85766 0.0
C1212 C 0.72352 0.55797 0.88398 0.0
C1213 C 0.7435 0.54784 0.88167 0.0
C1214 C 0.76972 0.55761 0.01897 0.0
H1215 H 0.83234 0.53568 0.99542 0.0
H1216 H 0.80755 0.53651 0.96027 0.0
H1217 H 0.7853 0.55671 0.08938 0.0
H1218 H 0.72734 0.57536 0.95678 0.0
H1219 H 0.752 0.57524 0.99833 0.0
H1220 H 0.77748 0.55787 0.86817 0.0
C1221 C 0.81485 0.54471 0.99703 0.0
C1222 C 0.78375 0.55707 0.04101 0.0
C1223 C 0.829 0.54417 0.01742 0.0
C1224 C 0.73168 0.56758 0.93546 0.0
C1225 C 0.74575 0.56743 0.95942 0.0
C1226 C 0.77891 0.55745 0.91657 0.0
C1227 C 0.81014 0.55563 0.02395 0.0
C1228 C 0.79538 0.55652 1.00099 0.0
C1229 C 0.7519 0.55765 0.93246 0.0
C1230 C 0.76707 0.55768 0.95644 0.0
H1231 H 0.84125 0.57362 0.12916 0.0
H1232 H 0.81654 0.57453 0.09347 0.0
H1233 H 0.80177 0.55676 0.9066 0.0
H1234 H 0.72348 0.54036 0.81832 0.0
H1235 H 0.74764 0.53988 0.86053 0.0
C1236 C 0.27022 0.81784 0.48364 0.0
C1237 C 0.27541 0.83369 0.45766 0.0
C1238 C 0.25642 0.80336 0.46052 0.0
C1239 C 0.22893 0.78623 0.32609 0.0
H1240 H 0.19851 0.75279 0.44072 0.0
C1241 C 0.164 0.73001 0.25916 0.0
C1242 C 0.1595 0.71423 0.28453 0.0
C1243 C 0.17846 0.74456 0.27854 0.0
C1244 C 0.20698 0.76193 0.40812 0.0
H1245 H 0.27031 0.84673 0.38633 0.0
H1246 H 0.24592 0.82141 0.34651 0.0
H1247 H 0.22297 0.77837 0.47735 0.0
H1248 H 0.16674 0.70138 0.34991 0.0
H1249 H 0.19196 0.72684 0.3839 0.0
H1250 H 0.21268 0.76978 0.25693 0.0
C1251 C 0.2527 0.82017 0.38435 0.0
C1252 C 0.22103 0.77659 0.42906 0.0
C1253 C 0.26662 0.8347 0.40734 0.0
C1254 C 0.16983 0.71333 0.32949 0.0
C1255 C 0.18423 0.72792 0.34918 0.0
C1256 C 0.21479 0.77158 0.30515 0.0
C1257 C 0.24734 0.80435 0.41106 0.0
C1258 C 0.23224 0.7889 0.38834 0.0
C1259 C 0.18867 0.7437 0.32403 0.0
C1260 C 0.20371 0.75924 0.34597 0.0
H1261 H 0.2768 0.81657 0.52209 0.0
H1262 H 0.2529 0.79136 0.48141 0.0
H1263 H 0.2374 0.79533 0.29344 0.0
H1264 H 0.15634 0.73116 0.22439 0.0
H1265 H 0.18145 0.75655 0.25872 0.0
C1266 C 0.43321 0.26724 0.74359 0.0
C1267 C 0.44253 0.27574 0.79516 0.0
C1268 C 0.43387 0.25331 0.72082 0.0
C1269 C 0.44466 0.22099 0.76768 0.0
H1270 H 0.44526 0.21352 0.5956 0.0
C1271 C 0.45655 0.16925 0.67221 0.0
C1272 C 0.44595 0.15939 0.62506 0.0
C1273 C 0.45653 0.18379 0.69127 0.0
C1274 C 0.44497 0.21538 0.6438 0.0
H1275 H 0.46023 0.27658 0.86209 0.0
H1276 H 0.4616 0.25266 0.82195 0.0
H1277 H 0.44433 0.23824 0.63156 0.0
H1278 H 0.42721 0.15726 0.56029 0.0
H1279 H 0.42717 0.18256 0.59363 0.0
H1280 H 0.44538 0.1982 0.77996 0.0
C1281 C 0.45347 0.25643 0.79981 0.0
C1282 C 0.44439 0.22952 0.6644 0.0
C1283 C 0.45275 0.27024 0.82264 0.0
C1284 C 0.43553 0.16454 0.59679 0.0
C1285 C 0.43557 0.17911 0.61562 0.0
C1286 C 0.44531 0.20693 0.7471 0.0
C1287 C 0.4439 0.24765 0.74906 0.0
C1288 C 0.44428 0.23252 0.72664 0.0
C1289 C 0.44597 0.18884 0.66339 0.0
C1290 C 0.4455 0.20396 0.68496 0.0
H1291 H 0.42521 0.27117 0.72138 0.0
H1292 H 0.42624 0.24677 0.68192 0.0
H1293 H 0.44423 0.22271 0.81591 0.0
H1294 H 0.46476 0.16567 0.6949 0.0
H1295 H 0.46483 0.19113 0.72776 0.0
loop_
_geom_bond_atom_site_label_1
_geom_bond_atom_site_label_2
_geom_bond_distance
_geom_bond_site_symmetry_2
_ccdc_geom_bond_type
Co0 N4 2.148 . S
Co0 N10 2.128 . S
Co0 N20 2.194 . S
Co0 O25 2.351 . S
Co0 O26 2.155 . S
Co0 O27 2.096 . S
C1 N4 1.301 . S
C1 N5 1.328 . S
C1 H6 0.930 . S
C2 C3 1.333 . S
C2 N4 1.317 . S
C2 H7 0.930 . S
C3 C2 1.333 . S
C3 N5 1.350 . S
C3 H29 0.931 . S
N4 Co0 2.148 . S
N4 C1 1.301 . S
N4 C2 1.317 . S
N5 C1 1.328 . S
N5 C3 1.350 . S
H6 C1 0.930 . S
H7 C2 0.930 . S
C8 O9 1.224 . S
C8 O27 1.247 . S
O9 C8 1.224 . S
N10 Co0 2.128 . S
N10 C11 1.355 . S
N10 C13 1.311 1_554 S
C11 N10 1.355 . S
C11 C12 1.363 1_554 S
C11 H23 0.929 . S
C12 C11 1.363 1_556 S
C12 N14 1.375 . S
C12 H30 0.931 . S
C13 N10 1.311 1_556 S
C13 N14 1.347 . S
C13 H24 0.929 . S
N14 C12 1.375 . S
N14 C13 1.347 . S
C15 C18 1.365 . S
C15 N20 1.328 . S
C15 H21 0.929 . S
C16 C17 1.362 . S
C16 C19 1.378 . S
C16 H31 0.929 . S
C17 C16 1.362 . S
C17 C18 1.366 . S
C18 C15 1.365 . S
C18 C17 1.366 . S
C18 H32 0.930 . S
C19 C16 1.378 . S
C19 N20 1.315 . S
C19 H22 0.930 . S
N20 Co0 2.194 . S
N20 C15 1.328 . S
N20 C19 1.315 . S
H21 C15 0.929 . S
H22 C19 0.930 . S
H23 C11 0.929 . S
H24 C13 0.929 . S
O25 Co0 2.351 . S
O25 C28 1.244 . S
O26 Co0 2.155 . S
O26 C28 1.240 . S
O27 Co0 2.096 . S
O27 C8 1.247 . S
C28 O25 1.244 . S
C28 O26 1.240 . S
H29 C3 0.931 . S
H30 C12 0.931 . S
H31 C16 0.929 . S
H32 C18 0.930 . S
Co33 N37 2.148 . S
Co33 N43 2.128 . S
Co33 N53 2.194 . S
Co33 O58 2.351 . S
Co33 O59 2.155 . S
Co33 O60 2.096 . S
C34 N37 1.301 . S
C34 N38 1.328 . S
C34 H39 0.930 . S
C35 C36 1.333 . S
C35 N37 1.317 . S
C35 H40 0.930 . S
C36 C35 1.333 . S
C36 N38 1.350 . S
C36 H62 0.931 . S
N37 Co33 2.148 . S
N37 C34 1.301 . S
N37 C35 1.317 . S
N38 C34 1.328 . S
N38 C36 1.350 . S
H39 C34 0.930 . S
H40 C35 0.930 . S
C41 O42 1.224 . S
C41 O60 1.247 . S
O42 C41 1.224 . S
N43 Co33 2.128 . S
N43 C44 1.355 . S
N43 C46 1.311 . S
C44 N43 1.355 . S
C44 C45 1.363 . S
C44 H56 0.929 . S
C45 C44 1.363 . S
C45 N47 1.375 . S
C45 H63 0.931 . S
C46 N43 1.311 . S
C46 N47 1.347 . S
C46 H57 0.929 . S
N47 C45 1.375 . S
N47 C46 1.347 . S
C48 C51 1.365 . S
C48 N53 1.328 . S
C48 H54 0.929 . S
C49 C50 1.362 . S
C49 C52 1.378 . S
C49 H64 0.929 . S
C50 C49 1.362 . S
C50 C51 1.366 . S
C51 C48 1.365 . S
C51 C50 1.366 . S
C51 H65 0.930 . S
C52 C49 1.378 . S
C52 N53 1.315 . S
C52 H55 0.930 . S
N53 Co33 2.194 . S
N53 C48 1.328 . S
N53 C52 1.315 . S
H54 C48 0.929 . S
H55 C52 0.930 . S
H56 C44 0.929 . S
H57 C46 0.929 . S
O58 Co33 2.351 . S
O58 C61 1.244 . S
O59 Co33 2.155 . S
O59 C61 1.240 . S
O60 Co33 2.096 . S
O60 C41 1.247 . S
C61 O58 1.244 . S
C61 O59 1.240 . S
H62 C36 0.931 . S
H63 C45 0.931 . S
H64 C49 0.929 . S
H65 C51 0.930 . S
Co66 N70 2.148 . S
Co66 N76 2.128 . S
Co66 N86 2.194 . S
Co66 O91 2.351 . S
Co66 O92 2.155 . S
Co66 O93 2.096 . S
C67 N70 1.301 . S
C67 N71 1.328 . S
C67 H72 0.930 . S
C68 C69 1.333 . S
C68 N70 1.317 . S
C68 H73 0.930 . S
C69 C68 1.333 . S
C69 N71 1.350 . S
C69 H95 0.931 . S
N70 Co66 2.148 . S
N70 C67 1.301 . S
N70 C68 1.317 . S
N71 C67 1.328 . S
N71 C69 1.350 . S
H72 C67 0.930 . S
H73 C68 0.930 . S
C74 O75 1.224 . S
C74 O93 1.247 . S
O75 C74 1.224 . S
N76 Co66 2.128 . S
N76 C77 1.355 . S
N76 C79 1.311 . S
C77 N76 1.355 . S
C77 C78 1.363 . S
C77 H89 0.929 . S
C78 C77 1.363 . S
C78 N80 1.375 . S
C78 H96 0.931 . S
C79 N76 1.311 . S
C79 N80 1.347 . S
C79 H90 0.929 . S
N80 C78 1.375 . S
N80 C79 1.347 . S
C81 C84 1.365 . S
C81 N86 1.328 . S
C81 H87 0.929 . S
C82 C83 1.362 . S
C82 C85 1.378 . S
C82 H97 0.929 . S
C83 C82 1.362 . S
C83 C84 1.366 . S
C84 C81 1.365 . S
C84 C83 1.366 . S
C84 H98 0.930 . S
C85 C82 1.378 . S
C85 N86 1.315 . S
C85 H88 0.930 . S
N86 Co66 2.194 . S
N86 C81 1.328 . S
N86 C85 1.315 . S
H87 C81 0.929 . S
H88 C85 0.930 . S
H89 C77 0.929 . S
H90 C79 0.929 . S
O91 Co66 2.351 . S
O91 C94 1.244 . S
O92 Co66 2.155 . S
O92 C94 1.240 . S
O93 Co66 2.096 . S
O93 C74 1.247 . S
C94 O91 1.244 . S
C94 O92 1.240 . S
H95 C69 0.931 . S
H96 C78 0.931 . S
H97 C82 0.929 . S
H98 C84 0.930 . S
Co99 N103 2.148 . S
Co99 N109 2.128 . S
Co99 N119 2.194 . S
Co99 O124 2.351 . S
Co99 O125 2.155 . S
Co99 O126 2.096 . S
C100 N103 1.301 . S
C100 N104 1.328 . S
C100 H105 0.930 . S
C101 C102 1.333 . S
C101 N103 1.317 . S
C101 H106 0.930 . S
C102 C101 1.333 . S
C102 N104 1.350 . S
C102 H128 0.931 . S
N103 Co99 2.148 . S
N103 C100 1.301 . S
N103 C101 1.317 . S
N104 C100 1.328 . S
N104 C102 1.350 . S
H105 C100 0.930 . S
H106 C101 0.930 . S
C107 O108 1.224 . S
C107 O126 1.247 . S
O108 C107 1.224 . S
N109 Co99 2.128 . S
N109 C110 1.355 . S
N109 C112 1.311 1_554 S
C110 N109 1.355 . S
C110 C111 1.363 1_554 S
C110 H122 0.929 . S
C111 C110 1.363 1_556 S
C111 N113 1.375 . S
C111 H129 0.931 . S
C112 N109 1.311 1_556 S
C112 N113 1.347 . S
C112 H123 0.929 . S
N113 C111 1.375 . S
N113 C112 1.347 . S
C114 C117 1.365 . S
C114 N119 1.328 . S
C114 H120 0.929 . S
C115 C116 1.362 . S
C115 C118 1.378 . S
C115 H130 0.929 . S
C116 C115 1.362 . S
C116 C117 1.366 . S
C117 C114 1.365 . S
C117 C116 1.366 . S
C117 H131 0.930 . S
C118 C115 1.378 . S
C118 N119 1.315 . S
C118 H121 0.930 . S
N119 Co99 2.194 . S
N119 C114 1.328 . S
N119 C118 1.315 . S
H120 C114 0.929 . S
H121 C118 0.930 . S
H122 C110 0.929 . S
H123 C112 0.929 . S
O124 Co99 2.351 . S
O124 C127 1.244 . S
O125 Co99 2.155 . S
O125 C127 1.240 . S
O126 Co99 2.096 . S
O126 C107 1.247 . S
C127 O124 1.244 . S
C127 O125 1.240 . S
H128 C102 0.931 . S
H129 C111 0.931 . S
H130 C115 0.929 . S
H131 C117 0.930 . S
Co132 N136 2.148 . S
Co132 N142 2.128 . S
Co132 N152 2.194 . S
Co132 O157 2.351 . S
Co132 O158 2.155 . S
Co132 O159 2.096 . S
C133 N136 1.301 . S
C133 N137 1.328 . S
C133 H138 0.930 . S
C134 C135 1.333 . S
C134 N136 1.317 . S
C134 H139 0.930 . S
C135 C134 1.333 . S
C135 N137 1.350 . S
C135 H161 0.931 . S
N136 Co132 2.148 . S
N136 C133 1.301 . S
N136 C134 1.317 . S
N137 C133 1.328 . S
N137 C135 1.350 . S
H138 C133 0.930 . S
H139 C134 0.930 . S
C140 O141 1.224 . S
C140 O159 1.247 . S
O141 C140 1.224 . S
N142 Co132 2.128 . S
N142 C143 1.355 . S
N142 C145 1.311 . S
C143 N142 1.355 . S
C143 C144 1.363 . S
C143 H155 0.929 . S
C144 C143 1.363 . S
C144 N146 1.375 . S
C144 H162 0.931 . S
C145 N142 1.311 . S
C145 N146 1.347 . S
C145 H156 0.929 . S
N146 C144 1.375 . S
N146 C145 1.347 . S
C147 C150 1.365 . S
C147 N152 1.328 . S
C147 H153 0.929 . S
C148 C149 1.362 . S
C148 C151 1.378 . S
C148 H163 0.929 . S
C149 C148 1.362 . S
C149 C150 1.366 . S
C150 C147 1.365 . S
C150 C149 1.366 . S
C150 H164 0.930 . S
C151 C148 1.378 . S
C151 N152 1.315 . S
C151 H154 0.930 . S
N152 Co132 2.194 . S
N152 C147 1.328 . S
N152 C151 1.315 . S
H153 C147 0.929 . S
H154 C151 0.930 . S
H155 C143 0.929 . S
H156 C145 0.929 . S
O157 Co132 2.351 . S
O157 C160 1.244 . S
O158 Co132 2.155 . S
O158 C160 1.240 . S
O159 Co132 2.096 . S
O159 C140 1.247 . S
C160 O157 1.244 . S
C160 O158 1.240 . S
H161 C135 0.931 . S
H162 C144 0.931 . S
H163 C148 0.929 . S
H164 C150 0.930 . S
Co165 N169 2.148 . S
Co165 N175 2.128 . S
Co165 N185 2.194 . S
Co165 O190 2.351 . S
Co165 O191 2.155 . S
Co165 O192 2.096 . S
C166 N169 1.301 . S
C166 N170 1.328 . S
C166 H171 0.930 . S
C167 C168 1.333 . S
C167 N169 1.317 . S
C167 H172 0.930 . S
C168 C167 1.333 . S
C168 N170 1.350 . S
C168 H194 0.931 . S
N169 Co165 2.148 . S
N169 C166 1.301 . S
N169 C167 1.317 . S
N170 C166 1.328 . S
N170 C168 1.350 . S
H171 C166 0.930 . S
H172 C167 0.930 . S
C173 O174 1.224 . S
C173 O192 1.247 . S
O174 C173 1.224 . S
N175 Co165 2.128 . S
N175 C176 1.355 . S
N175 C178 1.311 . S
C176 N175 1.355 . S
C176 C177 1.363 . S
C176 H188 0.929 . S
C177 C176 1.363 . S
C177 N179 1.375 . S
C177 H195 0.931 . S
C178 N175 1.311 . S
C178 N179 1.347 . S
C178 H189 0.929 . S
N179 C177 1.375 . S
N179 C178 1.347 . S
C180 C183 1.365 . S
C180 N185 1.328 . S
C180 H186 0.929 . S
C181 C182 1.362 . S
C181 C184 1.378 . S
C181 H196 0.929 . S
C182 C181 1.362 . S
C182 C183 1.366 . S
C183 C180 1.365 . S
C183 C182 1.366 . S
C183 H197 0.930 . S
C184 C181 1.378 . S
C184 N185 1.315 . S
C184 H187 0.930 . S
N185 Co165 2.194 . S
N185 C180 1.328 . S
N185 C184 1.315 . S
H186 C180 0.929 . S
H187 C184 0.930 . S
H188 C176 0.929 . S
H189 C178 0.929 . S
O190 Co165 2.351 . S
O190 C193 1.244 . S
O191 Co165 2.155 . S
O191 C193 1.240 . S
O192 Co165 2.096 . S
O192 C173 1.247 . S
C193 O190 1.244 . S
C193 O191 1.240 . S
H194 C168 0.931 . S
H195 C177 0.931 . S
H196 C181 0.929 . S
H197 C183 0.930 . S
Co198 N202 2.148 . S
Co198 N208 2.128 . S
Co198 N218 2.194 . S
Co198 O223 2.351 . S
Co198 O224 2.155 . S
Co198 O225 2.096 . S
C199 N202 1.301 . S
C199 N203 1.328 . S
C199 H204 0.930 . S
C200 C201 1.333 . S
C200 N202 1.317 . S
C200 H205 0.930 . S
C201 C200 1.333 . S
C201 N203 1.350 . S
C201 H227 0.931 . S
N202 Co198 2.148 . S
N202 C199 1.301 . S
N202 C200 1.317 . S
N203 C199 1.328 . S
N203 C201 1.350 . S
H204 C199 0.930 . S
H205 C200 0.930 . S
C206 O207 1.224 . S
C206 O225 1.247 . S
O207 C206 1.224 . S
N208 Co198 2.128 . S
N208 C209 1.355 . S
N208 C211 1.311 . S
C209 N208 1.355 . S
C209 C210 1.363 . S
C209 H221 0.929 . S
C210 C209 1.363 . S
C210 N212 1.375 . S
C210 H228 0.931 . S
C211 N208 1.311 . S
C211 N212 1.347 . S
C211 H222 0.929 . S
N212 C210 1.375 . S
N212 C211 1.347 . S
C213 C216 1.365 . S
C213 N218 1.328 . S
C213 H219 0.929 . S
C214 C215 1.362 . S
C214 C217 1.378 . S
C214 H229 0.929 . S
C215 C214 1.362 . S
C215 C216 1.366 . S
C216 C213 1.365 . S
C216 C215 1.366 . S
C216 H230 0.930 . S
C217 C214 1.378 . S
C217 N218 1.315 . S
C217 H220 0.930 . S
N218 Co198 2.194 . S
N218 C213 1.328 . S
N218 C217 1.315 . S
H219 C213 0.929 . S
H220 C217 0.930 . S
H221 C209 0.929 . S
H222 C211 0.929 . S
O223 Co198 2.351 . S
O223 C226 1.244 . S
O224 Co198 2.155 . S
O224 C226 1.240 . S
O225 Co198 2.096 . S
O225 C206 1.247 . S
C226 O223 1.244 . S
C226 O224 1.240 . S
H227 C201 0.931 . S
H228 C210 0.931 . S
H229 C214 0.929 . S
H230 C216 0.930 . S
Co231 N235 2.148 . S
Co231 N241 2.128 . S
Co231 N251 2.194 . S
Co231 O256 2.351 . S
Co231 O257 2.155 . S
Co231 O258 2.096 . S
C232 N235 1.301 . S
C232 N236 1.328 . S
C232 H237 0.930 . S
C233 C234 1.333 . S
C233 N235 1.317 . S
C233 H238 0.930 . S
C234 C233 1.333 . S
C234 N236 1.350 . S
C234 H260 0.931 . S
N235 Co231 2.148 . S
N235 C232 1.301 . S
N235 C233 1.317 . S
N236 C232 1.328 . S
N236 C234 1.350 . S
H237 C232 0.930 . S
H238 C233 0.930 . S
C239 O240 1.224 . S
C239 O258 1.247 . S
O240 C239 1.224 . S
N241 Co231 2.128 . S
N241 C242 1.355 . S
N241 C244 1.311 1_556 S
C242 N241 1.355 . S
C242 C243 1.363 1_556 S
C242 H254 0.929 . S
C243 C242 1.363 1_554 S
C243 N245 1.375 . S
C243 H261 0.931 . S
C244 N241 1.311 1_554 S
C244 N245 1.347 . S
C244 H255 0.929 . S
N245 C243 1.375 . S
N245 C244 1.347 . S
C246 C249 1.365 . S
C246 N251 1.328 . S
C246 H252 0.929 . S
C247 C248 1.362 . S
C247 C250 1.378 . S
C247 H262 0.929 . S
C248 C247 1.362 . S
C248 C249 1.366 . S
C249 C246 1.365 . S
C249 C248 1.366 . S
C249 H263 0.930 . S
C250 C247 1.378 . S
C250 N251 1.315 . S
C250 H253 0.930 . S
N251 Co231 2.194 . S
N251 C246 1.328 . S
N251 C250 1.315 . S
H252 C246 0.929 . S
H253 C250 0.930 . S
H254 C242 0.929 . S
H255 C244 0.929 . S
O256 Co231 2.351 . S
O256 C259 1.244 . S
O257 Co231 2.155 . S
O257 C259 1.240 . S
O258 Co231 2.096 . S
O258 C239 1.247 . S
C259 O256 1.244 . S
C259 O257 1.240 . S
H260 C234 0.931 . S
H261 C243 0.931 . S
H262 C247 0.929 . S
H263 C249 0.930 . S
Co264 N268 2.148 . S
Co264 N274 2.128 . S
Co264 N284 2.194 . S
Co264 O289 2.351 . S
Co264 O290 2.155 . S
Co264 O291 2.096 . S
C265 N268 1.301 . S
C265 N269 1.328 . S
C265 H270 0.930 . S
C266 C267 1.333 . S
C266 N268 1.317 . S
C266 H271 0.930 . S
C267 C266 1.333 . S
C267 N269 1.350 . S
C267 H293 0.931 . S
N268 Co264 2.148 . S
N268 C265 1.301 . S
N268 C266 1.317 . S
N269 C265 1.328 . S
N269 C267 1.350 . S
H270 C265 0.930 . S
H271 C266 0.930 . S
C272 O273 1.224 . S
C272 O291 1.247 . S
O273 C272 1.224 . S
N274 Co264 2.128 . S
N274 C275 1.355 . S
N274 C277 1.311 . S
C275 N274 1.355 . S
C275 C276 1.363 . S
C275 H287 0.929 . S
C276 C275 1.363 . S
C276 N278 1.375 . S
C276 H294 0.931 . S
C277 N274 1.311 . S
C277 N278 1.347 . S
C277 H288 0.929 . S
N278 C276 1.375 . S
N278 C277 1.347 . S
C279 C282 1.365 . S
C279 N284 1.328 . S
C279 H285 0.929 . S
C280 C281 1.362 . S
C280 C283 1.378 . S
C280 H295 0.929 . S
C281 C280 1.362 . S
C281 C282 1.366 . S
C282 C279 1.365 . S
C282 C281 1.366 . S
C282 H296 0.930 . S
C283 C280 1.378 . S
C283 N284 1.315 . S
C283 H286 0.930 . S
N284 Co264 2.194 . S
N284 C279 1.328 . S
N284 C283 1.315 . S
H285 C279 0.929 . S
H286 C283 0.930 . S
H287 C275 0.929 . S
H288 C277 0.929 . S
O289 Co264 2.351 . S
O289 C292 1.244 . S
O290 Co264 2.155 . S
O290 C292 1.240 . S
O291 Co264 2.096 . S
O291 C272 1.247 . S
C292 O289 1.244 . S
C292 O290 1.240 . S
H293 C267 0.931 . S
H294 C276 0.931 . S
H295 C280 0.929 . S
H296 C282 0.930 . S
Co297 N301 2.148 . S
Co297 N307 2.128 . S
Co297 N317 2.194 . S
Co297 O322 2.351 . S
Co297 O323 2.155 . S
Co297 O324 2.096 . S
C298 N301 1.301 . S
C298 N302 1.328 . S
C298 H303 0.930 . S
C299 C300 1.333 . S
C299 N301 1.317 . S
C299 H304 0.930 . S
C300 C299 1.333 . S
C300 N302 1.350 . S
C300 H326 0.931 . S
N301 Co297 2.148 . S
N301 C298 1.301 . S
N301 C299 1.317 . S
N302 C298 1.328 . S
N302 C300 1.350 . S
H303 C298 0.930 . S
H304 C299 0.930 . S
C305 O306 1.224 . S
C305 O324 1.247 . S
O306 C305 1.224 . S
N307 Co297 2.128 . S
N307 C308 1.355 . S
N307 C310 1.311 . S
C308 N307 1.355 . S
C308 C309 1.363 . S
C308 H320 0.929 . S
C309 C308 1.363 . S
C309 N311 1.375 . S
C309 H327 0.931 . S
C310 N307 1.311 . S
C310 N311 1.347 . S
C310 H321 0.929 . S
N311 C309 1.375 . S
N311 C310 1.347 . S
C312 C315 1.365 . S
C312 N317 1.328 . S
C312 H318 0.929 . S
C313 C314 1.362 . S
C313 C316 1.378 . S
C313 H328 0.929 . S
C314 C313 1.362 . S
C314 C315 1.366 . S
C315 C312 1.365 . S
C315 C314 1.366 . S
C315 H329 0.930 . S
C316 C313 1.378 . S
C316 N317 1.315 . S
C316 H319 0.930 . S
N317 Co297 2.194 . S
N317 C312 1.328 . S
N317 C316 1.315 . S
H318 C312 0.929 . S
H319 C316 0.930 . S
H320 C308 0.929 . S
H321 C310 0.929 . S
O322 Co297 2.351 . S
O322 C325 1.244 . S
O323 Co297 2.155 . S
O323 C325 1.240 . S
O324 Co297 2.096 . S
O324 C305 1.247 . S
C325 O322 1.244 . S
C325 O323 1.240 . S
H326 C300 0.931 . S
H327 C309 0.931 . S
H328 C313 0.929 . S
H329 C315 0.930 . S
Co330 N334 2.148 . S
Co330 N340 2.128 . S
Co330 N350 2.194 . S
Co330 O355 2.351 . S
Co330 O356 2.155 . S
Co330 O357 2.096 . S
C331 N334 1.301 . S
C331 N335 1.328 . S
C331 H336 0.930 . S
C332 C333 1.333 . S
C332 N334 1.317 . S
C332 H337 0.930 . S
C333 C332 1.333 . S
C333 N335 1.350 . S
C333 H359 0.931 . S
N334 Co330 2.148 . S
N334 C331 1.301 . S
N334 C332 1.317 . S
N335 C331 1.328 . S
N335 C333 1.350 . S
H336 C331 0.930 . S
H337 C332 0.930 . S
C338 O339 1.224 . S
C338 O357 1.247 . S
O339 C338 1.224 . S
N340 Co330 2.128 . S
N340 C341 1.355 . S
N340 C343 1.311 1_556 S
C341 N340 1.355 . S
C341 C342 1.363 1_556 S
C341 H353 0.929 . S
C342 C341 1.363 1_554 S
C342 N344 1.375 . S
C342 H360 0.931 . S
C343 N340 1.311 1_554 S
C343 N344 1.347 . S
C343 H354 0.929 . S
N344 C342 1.375 . S
N344 C343 1.347 . S
C345 C348 1.365 . S
C345 N350 1.328 . S
C345 H351 0.929 . S
C346 C347 1.362 . S
C346 C349 1.378 . S
C346 H361 0.929 . S
C347 C346 1.362 . S
C347 C348 1.366 . S
C348 C345 1.365 . S
C348 C347 1.366 . S
C348 H362 0.930 . S
C349 C346 1.378 . S
C349 N350 1.315 . S
C349 H352 0.930 . S
N350 Co330 2.194 . S
N350 C345 1.328 . S
N350 C349 1.315 . S
H351 C345 0.929 . S
H352 C349 0.930 . S
H353 C341 0.929 . S
H354 C343 0.929 . S
O355 Co330 2.351 . S
O355 C358 1.244 . S
O356 Co330 2.155 . S
O356 C358 1.240 . S
O357 Co330 2.096 . S
O357 C338 1.247 . S
C358 O355 1.244 . S
C358 O356 1.240 . S
H359 C333 0.931 . S
H360 C342 0.931 . S
H361 C346 0.929 . S
H362 C348 0.930 . S
Co363 N367 2.148 . S
Co363 N373 2.128 . S
Co363 N383 2.194 . S
Co363 O388 2.351 . S
Co363 O389 2.155 . S
Co363 O390 2.096 . S
C364 N367 1.301 . S
C364 N368 1.328 . S
C364 H369 0.930 . S
C365 C366 1.333 . S
C365 N367 1.317 . S
C365 H370 0.930 . S
C366 C365 1.333 . S
C366 N368 1.350 . S
C366 H392 0.931 . S
N367 Co363 2.148 . S
N367 C364 1.301 . S
N367 C365 1.317 . S
N368 C364 1.328 . S
N368 C366 1.350 . S
H369 C364 0.930 . S
H370 C365 0.930 . S
C371 O372 1.224 . S
C371 O390 1.247 . S
O372 C371 1.224 . S
N373 Co363 2.128 . S
N373 C374 1.355 . S
N373 C376 1.311 . S
C374 N373 1.355 . S
C374 C375 1.363 . S
C374 H386 0.929 . S
C375 C374 1.363 . S
C375 N377 1.375 . S
C375 H393 0.931 . S
C376 N373 1.311 . S
C376 N377 1.347 . S
C376 H387 0.929 . S
N377 C375 1.375 . S
N377 C376 1.347 . S
C378 C381 1.365 . S
C378 N383 1.328 . S
C378 H384 0.929 . S
C379 C380 1.362 . S
C379 C382 1.378 . S
C379 H394 0.929 . S
C380 C379 1.362 . S
C380 C381 1.366 . S
C381 C378 1.365 . S
C381 C380 1.366 . S
C381 H395 0.930 . S
C382 C379 1.378 . S
C382 N383 1.315 . S
C382 H385 0.930 . S
N383 Co363 2.194 . S
N383 C378 1.328 . S
N383 C382 1.315 . S
H384 C378 0.929 . S
H385 C382 0.930 . S
H386 C374 0.929 . S
H387 C376 0.929 . S
O388 Co363 2.351 . S
O388 C391 1.244 . S
O389 Co363 2.155 . S
O389 C391 1.240 . S
O390 Co363 2.096 . S
O390 C371 1.247 . S
C391 O388 1.244 . S
C391 O389 1.240 . S
H392 C366 0.931 . S
H393 C375 0.931 . S
H394 C379 0.929 . S
H395 C381 0.930 . S
C396 C397 1.349 . S
C396 C398 1.327 . S
C396 H421 0.950 . S
C397 C396 1.349 . S
C397 C413 1.349 . S
C398 C396 1.327 . S
C398 C417 1.429 . S
C398 H422 0.950 . S
C399 C416 1.574 1_455 S
C399 C418 1.368 . S
C399 H423 0.949 . S
H400 C404 0.949 . S
C401 C402 1.349 . S
C401 C403 1.327 . S
C401 H424 0.950 . S
C402 C401 1.349 . S
C402 C414 1.349 . S
C403 C401 1.327 . S
C403 C419 1.429 . S
C403 H425 0.950 . S
C404 H400 0.949 . S
C404 C412 1.574 1_655 S
C404 C420 1.368 . S
H405 C413 0.950 . S
H406 C411 0.950 . S
H407 C412 0.949 . S
H408 C414 0.950 . S
H409 C415 0.950 . S
H410 C416 0.949 . S
C411 H406 0.950 . S
C411 C413 1.327 . S
C411 C417 1.429 . S
C412 C404 1.574 1_455 S
C412 H407 0.949 . S
C412 C418 1.368 . S
C413 C397 1.349 . S
C413 H405 0.950 . S
C413 C411 1.327 . S
C414 C402 1.349 . S
C414 H408 0.950 . S
C414 C415 1.327 . S
C415 H409 0.950 . S
C415 C414 1.327 . S
C415 C419 1.429 . S
C416 C399 1.574 1_655 S
C416 H410 0.949 . S
C416 C420 1.368 . S
C417 C398 1.429 . S
C417 C411 1.429 . S
C417 C418 1.523 . S
C418 C399 1.368 . S
C418 C412 1.368 . S
C418 C417 1.523 . S
C419 C403 1.429 . S
C419 C415 1.429 . S
C419 C420 1.523 . S
C420 C404 1.368 . S
C420 C416 1.368 . S
C420 C419 1.523 . S
H421 C396 0.950 . S
H422 C398 0.950 . S
H423 C399 0.949 . S
H424 C401 0.950 . S
H425 C403 0.950 . S
C426 C427 1.349 . S
C426 C428 1.327 . S
C426 H451 0.950 . S
C427 C426 1.349 . S
C427 C443 1.349 . S
C428 C426 1.327 . S
C428 C447 1.429 . S
C428 H452 0.950 . S
C429 C446 1.574 1_545 S
C429 C448 1.368 . S
C429 H453 0.949 . S
H430 C434 0.949 . S
C431 C432 1.349 . S
C431 C433 1.327 . S
C431 H454 0.950 . S
C432 C431 1.349 . S
C432 C444 1.349 . S
C433 C431 1.327 . S
C433 C449 1.429 . S
C433 H455 0.950 . S
C434 H430 0.949 . S
C434 C442 1.574 1_565 S
C434 C450 1.368 . S
H435 C443 0.950 . S
H436 C441 0.950 . S
H437 C442 0.949 . S
H438 C444 0.950 . S
H439 C445 0.950 . S
H440 C446 0.949 . S
C441 H436 0.950 . S
C441 C443 1.327 . S
C441 C447 1.429 . S
C442 C434 1.574 1_545 S
C442 H437 0.949 . S
C442 C448 1.368 . S
C443 C427 1.349 . S
C443 H435 0.950 . S
C443 C441 1.327 . S
C444 C432 1.349 . S
C444 H438 0.950 . S
C444 C445 1.327 . S
C445 H439 0.950 . S
C445 C444 1.327 . S
C445 C449 1.429 . S
C446 C429 1.574 1_565 S
C446 H440 0.949 . S
C446 C450 1.368 . S
C447 C428 1.429 . S
C447 C441 1.429 . S
C447 C448 1.523 . S
C448 C429 1.368 . S
C448 C442 1.368 . S
C448 C447 1.523 . S
C449 C433 1.429 . S
C449 C445 1.429 . S
C449 C450 1.523 . S
C450 C434 1.368 . S
C450 C446 1.368 . S
C450 C449 1.523 . S
H451 C426 0.950 . S
H452 C428 0.950 . S
H453 C429 0.949 . S
H454 C431 0.950 . S
H455 C433 0.950 . S
C456 C457 1.349 . S
C456 C458 1.327 . S
C456 H481 0.950 . S
C457 C456 1.349 . S
C457 C473 1.349 . S
C458 C456 1.327 . S
C458 C477 1.429 . S
C458 H482 0.950 . S
C459 C476 1.574 . S
C459 C478 1.368 . S
C459 H483 0.949 . S
H460 C464 0.949 . S
C461 C462 1.349 . S
C461 C463 1.327 . S
C461 H484 0.950 . S
C462 C461 1.349 . S
C462 C474 1.349 . S
C463 C461 1.327 . S
C463 C479 1.429 . S
C463 H485 0.950 . S
C464 H460 0.949 . S
C464 C472 1.574 . S
C464 C480 1.368 . S
H465 C473 0.950 . S
H466 C471 0.950 . S
H467 C472 0.949 . S
H468 C474 0.950 . S
H469 C475 0.950 . S
H470 C476 0.949 . S
C471 H466 0.950 . S
C471 C473 1.327 . S
C471 C477 1.429 . S
C472 C464 1.574 . S
C472 H467 0.949 . S
C472 C478 1.368 . S
C473 C457 1.349 . S
C473 H465 0.950 . S
C473 C471 1.327 . S
C474 C462 1.349 . S
C474 H468 0.950 . S
C474 C475 1.327 . S
C475 H469 0.950 . S
C475 C474 1.327 . S
C475 C479 1.429 . S
C476 C459 1.574 . S
C476 H470 0.949 . S
C476 C480 1.368 . S
C477 C458 1.429 . S
C477 C471 1.429 . S
C477 C478 1.523 . S
C478 C459 1.368 . S
C478 C472 1.368 . S
C478 C477 1.523 . S
C479 C463 1.429 . S
C479 C475 1.429 . S
C479 C480 1.523 . S
C480 C464 1.368 . S
C480 C476 1.368 . S
C480 C479 1.523 . S
H481 C456 0.950 . S
H482 C458 0.950 . S
H483 C459 0.949 . S
H484 C461 0.950 . S
H485 C463 0.950 . S
C486 C487 1.349 . S
C486 C488 1.327 . S
C486 H511 0.950 . S
C487 C486 1.349 . S
C487 C503 1.349 . S
C488 C486 1.327 . S
C488 C507 1.429 . S
C488 H512 0.950 . S
C489 C506 1.574 1_455 S
C489 C508 1.368 . S
C489 H513 0.949 . S
H490 C494 0.949 . S
C491 C492 1.349 . S
C491 C493 1.327 . S
C491 H514 0.950 . S
C492 C491 1.349 . S
C492 C504 1.349 . S
C493 C491 1.327 . S
C493 C509 1.429 . S
C493 H515 0.950 . S
C494 H490 0.949 . S
C494 C502 1.574 1_655 S
C494 C510 1.368 . S
H495 C503 0.950 . S
H496 C501 0.950 . S
H497 C502 0.949 . S
H498 C504 0.950 . S
H499 C505 0.950 . S
H500 C506 0.949 . S
C501 H496 0.950 . S
C501 C503 1.327 . S
C501 C507 1.429 . S
C502 C494 1.574 1_455 S
C502 H497 0.949 . S
C502 C508 1.368 . S
C503 C487 1.349 . S
C503 H495 0.950 . S
C503 C501 1.327 . S
C504 C492 1.349 . S
C504 H498 0.950 . S
C504 C505 1.327 . S
C505 H499 0.950 . S
C505 C504 1.327 . S
C505 C509 1.429 . S
C506 C489 1.574 1_655 S
C506 H500 0.949 . S
C506 C510 1.368 . S
C507 C488 1.429 . S
C507 C501 1.429 . S
C507 C508 1.523 . S
C508 C489 1.368 . S
C508 C502 1.368 . S
C508 C507 1.523 . S
C509 C493 1.429 . S
C509 C505 1.429 . S
C509 C510 1.523 . S
C510 C494 1.368 . S
C510 C506 1.368 . S
C510 C509 1.523 . S
H511 C486 0.950 . S
H512 C488 0.950 . S
H513 C489 0.949 . S
H514 C491 0.950 . S
H515 C493 0.950 . S
C516 C517 1.349 . S
C516 C518 1.327 . S
C516 H541 0.950 . S
C517 C516 1.349 . S
C517 C533 1.349 . S
C518 C516 1.327 . S
C518 C537 1.429 . S
C518 H542 0.950 . S
C519 C536 1.574 1_545 S
C519 C538 1.368 . S
C519 H543 0.949 . S
H520 C524 0.949 . S
C521 C522 1.349 . S
C521 C523 1.327 . S
C521 H544 0.950 . S
C522 C521 1.349 . S
C522 C534 1.349 . S
C523 C521 1.327 . S
C523 C539 1.429 . S
C523 H545 0.950 . S
C524 H520 0.949 . S
C524 C532 1.574 1_565 S
C524 C540 1.368 . S
H525 C533 0.950 . S
H526 C531 0.950 . S
H527 C532 0.949 . S
H528 C534 0.950 . S
H529 C535 0.950 . S
H530 C536 0.949 . S
C531 H526 0.950 . S
C531 C533 1.327 . S
C531 C537 1.429 . S
C532 C524 1.574 1_545 S
C532 H527 0.949 . S
C532 C538 1.368 . S
C533 C517 1.349 . S
C533 H525 0.950 . S
C533 C531 1.327 . S
C534 C522 1.349 . S
C534 H528 0.950 . S
C534 C535 1.327 . S
C535 H529 0.950 . S
C535 C534 1.327 . S
C535 C539 1.429 . S
C536 C519 1.574 1_565 S
C536 H530 0.949 . S
C536 C540 1.368 . S
C537 C518 1.429 . S
C537 C531 1.429 . S
C537 C538 1.523 . S
C538 C519 1.368 . S
C538 C532 1.368 . S
C538 C537 1.523 . S
C539 C523 1.429 . S
C539 C535 1.429 . S
C539 C540 1.523 . S
C540 C524 1.368 . S
C540 C536 1.368 . S
C540 C539 1.523 . S
H541 C516 0.950 . S
H542 C518 0.950 . S
H543 C519 0.949 . S
H544 C521 0.950 . S
H545 C523 0.950 . S
C546 C547 1.349 . S
C546 C548 1.327 . S
C546 H571 0.950 . S
C547 C546 1.349 . S
C547 C563 1.349 . S
C548 C546 1.327 . S
C548 C567 1.429 . S
C548 H572 0.950 . S
C549 C566 1.574 . S
C549 C568 1.368 . S
C549 H573 0.949 . S
H550 C554 0.949 . S
C551 C552 1.349 . S
C551 C553 1.327 . S
C551 H574 0.950 . S
C552 C551 1.349 . S
C552 C564 1.349 . S
C553 C551 1.327 . S
C553 C569 1.429 . S
C553 H575 0.950 . S
C554 H550 0.949 . S
C554 C562 1.574 . S
C554 C570 1.368 . S
H555 C563 0.950 . S
H556 C561 0.950 . S
H557 C562 0.949 . S
H558 C564 0.950 . S
H559 C565 0.950 . S
H560 C566 0.949 . S
C561 H556 0.950 . S
C561 C563 1.327 . S
C561 C567 1.429 . S
C562 C554 1.574 . S
C562 H557 0.949 . S
C562 C568 1.368 . S
C563 C547 1.349 . S
C563 H555 0.950 . S
C563 C561 1.327 . S
C564 C552 1.349 . S
C564 H558 0.950 . S
C564 C565 1.327 . S
C565 H559 0.950 . S
C565 C564 1.327 . S
C565 C569 1.429 . S
C566 C549 1.574 . S
C566 H560 0.949 . S
C566 C570 1.368 . S
C567 C548 1.429 . S
C567 C561 1.429 . S
C567 C568 1.523 . S
C568 C549 1.368 . S
C568 C562 1.368 . S
C568 C567 1.523 . S
C569 C553 1.429 . S
C569 C565 1.429 . S
C569 C570 1.523 . S
C570 C554 1.368 . S
C570 C566 1.368 . S
C570 C569 1.523 . S
H571 C546 0.950 . S
H572 C548 0.950 . S
H573 C549 0.949 . S
H574 C551 0.950 . S
H575 C553 0.950 . S
C576 C577 1.349 . S
C576 C578 1.327 . S
C576 H601 0.950 . S
C577 C576 1.349 . S
C577 C593 1.349 . S
C578 C576 1.327 . S
C578 C597 1.429 . S
C578 H602 0.950 . S
C579 C596 1.574 . S
C579 C598 1.368 . S
C579 H603 0.949 . S
H580 C584 0.949 . S
C581 C582 1.349 . S
C581 C583 1.327 . S
C581 H604 0.950 . S
C582 C581 1.349 . S
C582 C594 1.349 . S
C583 C581 1.327 . S
C583 C599 1.429 . S
C583 H605 0.950 . S
C584 H580 0.949 . S
C584 C592 1.574 . S
C584 C600 1.368 . S
H585 C593 0.950 . S
H586 C591 0.950 . S
H587 C592 0.949 . S
H588 C594 0.950 . S
H589 C595 0.950 . S
H590 C596 0.949 . S
C591 H586 0.950 . S
C591 C593 1.327 . S
C591 C597 1.429 . S
C592 C584 1.574 . S
C592 H587 0.949 . S
C592 C598 1.368 . S
C593 C577 1.349 . S
C593 H585 0.950 . S
C593 C591 1.327 . S
C594 C582 1.349 . S
C594 H588 0.950 . S
C594 C595 1.327 . S
C595 H589 0.950 . S
C595 C594 1.327 . S
C595 C599 1.429 . S
C596 C579 1.574 . S
C596 H590 0.949 . S
C596 C600 1.368 . S
C597 C578 1.429 . S
C597 C591 1.429 . S
C597 C598 1.523 . S
C598 C579 1.368 . S
C598 C592 1.368 . S
C598 C597 1.523 . S
C599 C583 1.429 . S
C599 C595 1.429 . S
C599 C600 1.523 . S
C600 C584 1.368 . S
C600 C596 1.368 . S
C600 C599 1.523 . S
H601 C576 0.950 . S
H602 C578 0.950 . S
H603 C579 0.949 . S
H604 C581 0.950 . S
H605 C583 0.950 . S
C606 C607 1.349 . S
C606 C608 1.327 . S
C606 H631 0.950 . S
C607 C606 1.349 . S
C607 C623 1.349 . S
C608 C606 1.327 . S
C608 C627 1.429 . S
C608 H632 0.950 . S
C609 C626 1.574 . S
C609 C628 1.368 . S
C609 H633 0.949 . S
H610 C614 0.949 1_554 S
C611 C612 1.349 . S
C611 C613 1.327 . S
C611 H634 0.950 . S
C612 C611 1.349 . S
C612 C624 1.349 . S
C613 C611 1.327 . S
C613 C629 1.429 . S
C613 H635 0.950 . S
C614 H610 0.949 1_556 S
C614 C622 1.574 . S
C614 C630 1.368 1_556 S
H615 C623 0.950 . S
H616 C621 0.950 . S
H617 C622 0.949 . S
H618 C624 0.950 . S
H619 C625 0.950 . S
H620 C626 0.949 1_554 S
C621 H616 0.950 . S
C621 C623 1.327 . S
C621 C627 1.429 . S
C622 C614 1.574 . S
C622 H617 0.949 . S
C622 C628 1.368 . S
C623 C607 1.349 . S
C623 H615 0.950 . S
C623 C621 1.327 . S
C624 C612 1.349 . S
C624 H618 0.950 . S
C624 C625 1.327 . S
C625 H619 0.950 . S
C625 C624 1.327 . S
C625 C629 1.429 . S
C626 C609 1.574 . S
C626 H620 0.949 1_556 S
C626 C630 1.368 1_556 S
C627 C608 1.429 . S
C627 C621 1.429 . S
C627 C628 1.523 . S
C628 C609 1.368 . S
C628 C622 1.368 . S
C628 C627 1.523 . S
C629 C613 1.429 . S
C629 C625 1.429 . S
C629 C630 1.523 . S
C630 C614 1.368 1_554 S
C630 C626 1.368 1_554 S
C630 C629 1.523 . S
H631 C606 0.950 . S
H632 C608 0.950 . S
H633 C609 0.949 . S
H634 C611 0.950 . S
H635 C613 0.950 . S
C636 C637 1.349 . S
C636 C638 1.327 . S
C636 H661 0.950 . S
C637 C636 1.349 . S
C637 C653 1.349 . S
C638 C636 1.327 . S
C638 C657 1.429 . S
C638 H662 0.950 . S
C639 C656 1.574 . S
C639 C658 1.368 . S
C639 H663 0.949 . S
H640 C644 0.949 . S
C641 C642 1.349 . S
C641 C643 1.327 . S
C641 H664 0.950 . S
C642 C641 1.349 . S
C642 C654 1.349 . S
C643 C641 1.327 . S
C643 C659 1.429 . S
C643 H665 0.950 . S
C644 H640 0.949 . S
C644 C652 1.574 . S
C644 C660 1.368 . S
H645 C653 0.950 . S
H646 C651 0.950 . S
H647 C652 0.949 . S
H648 C654 0.950 . S
H649 C655 0.950 . S
H650 C656 0.949 . S
C651 H646 0.950 . S
C651 C653 1.327 . S
C651 C657 1.429 . S
C652 C644 1.574 . S
C652 H647 0.949 . S
C652 C658 1.368 . S
C653 C637 1.349 . S
C653 H645 0.950 . S
C653 C651 1.327 . S
C654 C642 1.349 . S
C654 H648 0.950 . S
C654 C655 1.327 . S
C655 H649 0.950 . S
C655 C654 1.327 . S
C655 C659 1.429 . S
C656 C639 1.574 . S
C656 H650 0.949 . S
C656 C660 1.368 . S
C657 C638 1.429 . S
C657 C651 1.429 . S
C657 C658 1.523 . S
C658 C639 1.368 . S
C658 C652 1.368 . S
C658 C657 1.523 . S
C659 C643 1.429 . S
C659 C655 1.429 . S
C659 C660 1.523 . S
C660 C644 1.368 . S
C660 C656 1.368 . S
C660 C659 1.523 . S
H661 C636 0.950 . S
H662 C638 0.950 . S
H663 C639 0.949 . S
H664 C641 0.950 . S
H665 C643 0.950 . S
C666 C667 1.349 . S
C666 C668 1.327 . S
C666 H691 0.950 . S
C667 C666 1.349 . S
C667 C683 1.349 . S
C668 C666 1.327 . S
C668 C687 1.429 . S
C668 H692 0.950 . S
C669 C686 1.574 . S
C669 C688 1.368 . S
C669 H693 0.949 . S
H670 C674 0.949 . S
C671 C672 1.349 . S
C671 C673 1.327 . S
C671 H694 0.950 . S
C672 C671 1.349 . S
C672 C684 1.349 . S
C673 C671 1.327 . S
C673 C689 1.429 . S
C673 H695 0.950 . S
C674 H670 0.949 . S
C674 C682 1.574 . S
C674 C690 1.368 . S
H675 C683 0.950 . S
H676 C681 0.950 . S
H677 C682 0.949 . S
H678 C684 0.950 . S
H679 C685 0.950 . S
H680 C686 0.949 . S
C681 H676 0.950 . S
C681 C683 1.327 . S
C681 C687 1.429 . S
C682 C674 1.574 . S
C682 H677 0.949 . S
C682 C688 1.368 . S
C683 C667 1.349 . S
C683 H675 0.950 . S
C683 C681 1.327 . S
C684 C672 1.349 . S
C684 H678 0.950 . S
C684 C685 1.327 . S
C685 H679 0.950 . S
C685 C684 1.327 . S
C685 C689 1.429 . S
C686 C669 1.574 . S
C686 H680 0.949 . S
C686 C690 1.368 . S
C687 C668 1.429 . S
C687 C681 1.429 . S
C687 C688 1.523 . S
C688 C669 1.368 . S
C688 C682 1.368 . S
C688 C687 1.523 . S
C689 C673 1.429 . S
C689 C685 1.429 . S
C689 C690 1.523 . S
C690 C674 1.368 . S
C690 C686 1.368 . S
C690 C689 1.523 . S
H691 C666 0.950 . S
H692 C668 0.950 . S
H693 C669 0.949 . S
H694 C671 0.950 . S
H695 C673 0.950 . S
C696 C697 1.349 . S
C696 C698 1.327 . S
C696 H721 0.950 . S
C697 C696 1.349 . S
C697 C713 1.349 . S
C698 C696 1.327 . S
C698 C717 1.429 . S
C698 H722 0.950 . S
C699 C716 1.574 . S
C699 C718 1.368 1_556 S
C699 H723 0.949 1_556 S
H700 C704 0.949 . S
C701 C702 1.349 . S
C701 C703 1.327 . S
C701 H724 0.950 . S
C702 C701 1.349 . S
C702 C714 1.349 . S
C703 C701 1.327 . S
C703 C719 1.429 . S
C703 H725 0.950 . S
C704 H700 0.949 . S
C704 C712 1.574 . S
C704 C720 1.368 . S
H705 C713 0.950 . S
H706 C711 0.950 . S
H707 C712 0.949 1_554 S
H708 C714 0.950 . S
H709 C715 0.950 . S
H710 C716 0.949 . S
C711 H706 0.950 . S
C711 C713 1.327 . S
C711 C717 1.429 . S
C712 C704 1.574 . S
C712 H707 0.949 1_556 S
C712 C718 1.368 1_556 S
C713 C697 1.349 . S
C713 H705 0.950 . S
C713 C711 1.327 . S
C714 C702 1.349 . S
C714 H708 0.950 . S
C714 C715 1.327 . S
C715 H709 0.950 . S
C715 C714 1.327 . S
C715 C719 1.429 . S
C716 C699 1.574 . S
C716 H710 0.949 . S
C716 C720 1.368 . S
C717 C698 1.429 . S
C717 C711 1.429 . S
C717 C718 1.523 . S
C718 C699 1.368 1_554 S
C718 C712 1.368 1_554 S
C718 C717 1.523 . S
C719 C703 1.429 . S
C719 C715 1.429 . S
C719 C720 1.523 . S
C720 C704 1.368 . S
C720 C716 1.368 . S
C720 C719 1.523 . S
H721 C696 0.950 . S
H722 C698 0.950 . S
H723 C699 0.949 1_554 S
H724 C701 0.950 . S
H725 C703 0.950 . S
C726 C727 1.349 . S
C726 C728 1.327 . S
C726 H751 0.950 . S
C727 C726 1.349 . S
C727 C743 1.349 . S
C728 C726 1.327 . S
C728 C747 1.429 . S
C728 H752 0.950 . S
C729 C746 1.574 . S
C729 C748 1.368 . S
C729 H753 0.949 . S
H730 C734 0.949 . S
C731 C732 1.349 . S
C731 C733 1.327 . S
C731 H754 0.950 . S
C732 C731 1.349 . S
C732 C744 1.349 . S
C733 C731 1.327 . S
C733 C749 1.429 . S
C733 H755 0.950 . S
C734 H730 0.949 . S
C734 C742 1.574 . S
C734 C750 1.368 . S
H735 C743 0.950 . S
H736 C741 0.950 . S
H737 C742 0.949 . S
H738 C744 0.950 . S
H739 C745 0.950 . S
H740 C746 0.949 . S
C741 H736 0.950 . S
C741 C743 1.327 . S
C741 C747 1.429 . S
C742 C734 1.574 . S
C742 H737 0.949 . S
C742 C748 1.368 . S
C743 C727 1.349 . S
C743 H735 0.950 . S
C743 C741 1.327 . S
C744 C732 1.349 . S
C744 H738 0.950 . S
C744 C745 1.327 . S
C745 H739 0.950 . S
C745 C744 1.327 . S
C745 C749 1.429 . S
C746 C729 1.574 . S
C746 H740 0.949 . S
C746 C750 1.368 . S
C747 C728 1.429 . S
C747 C741 1.429 . S
C747 C748 1.523 . S
C748 C729 1.368 . S
C748 C742 1.368 . S
C748 C747 1.523 . S
C749 C733 1.429 . S
C749 C745 1.429 . S
C749 C750 1.523 . S
C750 C734 1.368 . S
C750 C746 1.368 . S
C750 C749 1.523 . S
H751 C726 0.950 . S
H752 C728 0.950 . S
H753 C729 0.949 . S
H754 C731 0.950 . S
H755 C733 0.950 . S
C756 C757 1.349 . S
C756 C758 1.327 . S
C756 H781 0.950 . S
C757 C756 1.349 . S
C757 C773 1.349 . S
C758 C756 1.327 . S
C758 C777 1.429 . S
C758 H782 0.950 . S
C759 C776 1.574 . S
C759 C778 1.368 1_554 S
C759 H783 0.949 1_554 S
H760 C764 0.949 . S
C761 C762 1.349 . S
C761 C763 1.327 . S
C761 H784 0.950 . S
C762 C761 1.349 . S
C762 C774 1.349 . S
C763 C761 1.327 . S
C763 C779 1.429 . S
C763 H785 0.950 . S
C764 H760 0.949 . S
C764 C772 1.574 . S
C764 C780 1.368 . S
H765 C773 0.950 . S
H766 C771 0.950 . S
H767 C772 0.949 1_556 S
H768 C774 0.950 . S
H769 C775 0.950 . S
H770 C776 0.949 . S
C771 H766 0.950 . S
C771 C773 1.327 . S
C771 C777 1.429 . S
C772 C764 1.574 . S
C772 H767 0.949 1_554 S
C772 C778 1.368 1_554 S
C773 C757 1.349 . S
C773 H765 0.950 . S
C773 C771 1.327 . S
C774 C762 1.349 . S
C774 H768 0.950 . S
C774 C775 1.327 . S
C775 H769 0.950 . S
C775 C774 1.327 . S
C775 C779 1.429 . S
C776 C759 1.574 . S
C776 H770 0.949 . S
C776 C780 1.368 . S
C777 C758 1.429 . S
C777 C771 1.429 . S
C777 C778 1.523 . S
C778 C759 1.368 1_556 S
C778 C772 1.368 1_556 S
C778 C777 1.523 . S
C779 C763 1.429 . S
C779 C775 1.429 . S
C779 C780 1.523 . S
C780 C764 1.368 . S
C780 C776 1.368 . S
C780 C779 1.523 . S
H781 C756 0.950 . S
H782 C758 0.950 . S
H783 C759 0.949 1_556 S
H784 C761 0.950 . S
H785 C763 0.950 . S
C786 C787 1.349 . S
C786 C788 1.327 . S
C786 H811 0.950 . S
C787 C786 1.349 . S
C787 C803 1.349 . S
C788 C786 1.327 . S
C788 C807 1.429 . S
C788 H812 0.950 . S
C789 C806 1.574 . S
C789 C808 1.368 . S
C789 H813 0.949 . S
H790 C794 0.949 . S
C791 C792 1.349 . S
C791 C793 1.327 . S
C791 H814 0.950 . S
C792 C791 1.349 . S
C792 C804 1.349 . S
C793 C791 1.327 . S
C793 C809 1.429 . S
C793 H815 0.950 . S
C794 H790 0.949 . S
C794 C802 1.574 . S
C794 C810 1.368 . S
H795 C803 0.950 . S
H796 C801 0.950 . S
H797 C802 0.949 . S
H798 C804 0.950 . S
H799 C805 0.950 . S
H800 C806 0.949 . S
C801 H796 0.950 . S
C801 C803 1.327 . S
C801 C807 1.429 . S
C802 C794 1.574 . S
C802 H797 0.949 . S
C802 C808 1.368 . S
C803 C787 1.349 . S
C803 H795 0.950 . S
C803 C801 1.327 . S
C804 C792 1.349 . S
C804 H798 0.950 . S
C804 C805 1.327 . S
C805 H799 0.950 . S
C805 C804 1.327 . S
C805 C809 1.429 . S
C806 C789 1.574 . S
C806 H800 0.949 . S
C806 C810 1.368 . S
C807 C788 1.429 . S
C807 C801 1.429 . S
C807 C808 1.523 . S
C808 C789 1.368 . S
C808 C802 1.368 . S
C808 C807 1.523 . S
C809 C793 1.429 . S
C809 C805 1.429 . S
C809 C810 1.523 . S
C810 C794 1.368 . S
C810 C806 1.368 . S
C810 C809 1.523 . S
H811 C786 0.950 . S
H812 C788 0.950 . S
H813 C789 0.949 . S
H814 C791 0.950 . S
H815 C793 0.950 . S
C816 C817 1.349 . S
C816 C818 1.327 . S
C816 H841 0.950 . S
C817 C816 1.349 . S
C817 C833 1.349 . S
C818 C816 1.327 . S
C818 C837 1.429 . S
C818 H842 0.950 . S
C819 C836 1.574 . S
C819 C838 1.368 . S
C819 H843 0.949 . S
H820 C824 0.949 . S
C821 C822 1.349 . S
C821 C823 1.327 . S
C821 H844 0.950 . S
C822 C821 1.349 . S
C822 C834 1.349 . S
C823 C821 1.327 . S
C823 C839 1.429 . S
C823 H845 0.950 . S
C824 H820 0.949 . S
C824 C832 1.574 . S
C824 C840 1.368 . S
H825 C833 0.950 . S
H826 C831 0.950 . S
H827 C832 0.949 . S
H828 C834 0.950 . S
H829 C835 0.950 . S
H830 C836 0.949 . S
C831 H826 0.950 . S
C831 C833 1.327 . S
C831 C837 1.429 . S
C832 C824 1.574 . S
C832 H827 0.949 . S
C832 C838 1.368 . S
C833 C817 1.349 . S
C833 H825 0.950 . S
C833 C831 1.327 . S
C834 C822 1.349 . S
C834 H828 0.950 . S
C834 C835 1.327 . S
C835 H829 0.950 . S
C835 C834 1.327 . S
C835 C839 1.429 . S
C836 C819 1.574 . S
C836 H830 0.949 . S
C836 C840 1.368 . S
C837 C818 1.429 . S
C837 C831 1.429 . S
C837 C838 1.523 . S
C838 C819 1.368 . S
C838 C832 1.368 . S
C838 C837 1.523 . S
C839 C823 1.429 . S
C839 C835 1.429 . S
C839 C840 1.523 . S
C840 C824 1.368 . S
C840 C836 1.368 . S
C840 C839 1.523 . S
H841 C816 0.950 . S
H842 C818 0.950 . S
H843 C819 0.949 . S
H844 C821 0.950 . S
H845 C823 0.950 . S
C846 C847 1.349 . S
C846 C848 1.327 . S
C846 H871 0.950 . S
C847 C846 1.349 . S
C847 C863 1.349 . S
C848 C846 1.327 . S
C848 C867 1.429 . S
C848 H872 0.950 . S
C849 C866 1.574 . S
C849 C868 1.368 . S
C849 H873 0.949 . S
H850 C854 0.949 1_556 S
C851 C852 1.349 . S
C851 C853 1.327 . S
C851 H874 0.950 . S
C852 C851 1.349 . S
C852 C864 1.349 . S
C853 C851 1.327 . S
C853 C869 1.429 . S
C853 H875 0.950 . S
C854 H850 0.949 1_554 S
C854 C862 1.574 . S
C854 C870 1.368 1_554 S
H855 C863 0.950 . S
H856 C861 0.950 . S
H857 C862 0.949 . S
H858 C864 0.950 . S
H859 C865 0.950 . S
H860 C866 0.949 1_556 S
C861 H856 0.950 . S
C861 C863 1.327 . S
C861 C867 1.429 . S
C862 C854 1.574 . S
C862 H857 0.949 . S
C862 C868 1.368 . S
C863 C847 1.349 . S
C863 H855 0.950 . S
C863 C861 1.327 . S
C864 C852 1.349 . S
C864 H858 0.950 . S
C864 C865 1.327 . S
C865 H859 0.950 . S
C865 C864 1.327 . S
C865 C869 1.429 . S
C866 C849 1.574 . S
C866 H860 0.949 1_554 S
C866 C870 1.368 1_554 S
C867 C848 1.429 . S
C867 C861 1.429 . S
C867 C868 1.523 . S
C868 C849 1.368 . S
C868 C862 1.368 . S
C868 C867 1.523 . S
C869 C853 1.429 . S
C869 C865 1.429 . S
C869 C870 1.523 . S
C870 C854 1.368 1_556 S
C870 C866 1.368 1_556 S
C870 C869 1.523 . S
H871 C846 0.950 . S
H872 C848 0.950 . S
H873 C849 0.949 . S
H874 C851 0.950 . S
H875 C853 0.950 . S
C876 C877 1.349 . S
C876 C878 1.327 . S
C876 H901 0.950 . S
C877 C876 1.349 . S
C877 C893 1.349 . S
C878 C876 1.327 . S
C878 C897 1.429 . S
C878 H902 0.950 . S
C879 C896 1.574 . S
C879 C898 1.368 . S
C879 H903 0.949 . S
H880 C884 0.949 . S
C881 C882 1.349 . S
C881 C883 1.327 . S
C881 H904 0.950 . S
C882 C881 1.349 . S
C882 C894 1.349 . S
C883 C881 1.327 . S
C883 C899 1.429 . S
C883 H905 0.950 . S
C884 H880 0.949 . S
C884 C892 1.574 . S
C884 C900 1.368 . S
H885 C893 0.950 . S
H886 C891 0.950 . S
H887 C892 0.949 . S
H888 C894 0.950 . S
H889 C895 0.950 . S
H890 C896 0.949 . S
C891 H886 0.950 . S
C891 C893 1.327 . S
C891 C897 1.429 . S
C892 C884 1.574 . S
C892 H887 0.949 . S
C892 C898 1.368 . S
C893 C877 1.349 . S
C893 H885 0.950 . S
C893 C891 1.327 . S
C894 C882 1.349 . S
C894 H888 0.950 . S
C894 C895 1.327 . S
C895 H889 0.950 . S
C895 C894 1.327 . S
C895 C899 1.429 . S
C896 C879 1.574 . S
C896 H890 0.949 . S
C896 C900 1.368 . S
C897 C878 1.429 . S
C897 C891 1.429 . S
C897 C898 1.523 . S
C898 C879 1.368 . S
C898 C892 1.368 . S
C898 C897 1.523 . S
C899 C883 1.429 . S
C899 C895 1.429 . S
C899 C900 1.523 . S
C900 C884 1.368 . S
C900 C896 1.368 . S
C900 C899 1.523 . S
H901 C876 0.950 . S
H902 C878 0.950 . S
H903 C879 0.949 . S
H904 C881 0.950 . S
H905 C883 0.950 . S
C906 C907 1.349 . S
C906 C908 1.327 . S
C906 H931 0.950 . S
C907 C906 1.349 . S
C907 C923 1.349 . S
C908 C906 1.327 . S
C908 C927 1.429 . S
C908 H932 0.950 . S
C909 C926 1.574 . S
C909 C928 1.368 . S
C909 H933 0.949 . S
H910 C914 0.949 . S
C911 C912 1.349 . S
C911 C913 1.327 . S
C911 H934 0.950 . S
C912 C911 1.349 . S
C912 C924 1.349 . S
C913 C911 1.327 . S
C913 C929 1.429 . S
C913 H935 0.950 . S
C914 H910 0.949 . S
C914 C922 1.574 . S
C914 C930 1.368 . S
H915 C923 0.950 . S
H916 C921 0.950 . S
H917 C922 0.949 . S
H918 C924 0.950 . S
H919 C925 0.950 . S
H920 C926 0.949 . S
C921 H916 0.950 . S
C921 C923 1.327 . S
C921 C927 1.429 . S
C922 C914 1.574 . S
C922 H917 0.949 . S
C922 C928 1.368 . S
C923 C907 1.349 . S
C923 H915 0.950 . S
C923 C921 1.327 . S
C924 C912 1.349 . S
C924 H918 0.950 . S
C924 C925 1.327 . S
C925 H919 0.950 . S
C925 C924 1.327 . S
C925 C929 1.429 . S
C926 C909 1.574 . S
C926 H920 0.949 . S
C926 C930 1.368 . S
C927 C908 1.429 . S
C927 C921 1.429 . S
C927 C928 1.523 . S
C928 C909 1.368 . S
C928 C922 1.368 . S
C928 C927 1.523 . S
C929 C913 1.429 . S
C929 C925 1.429 . S
C929 C930 1.523 . S
C930 C914 1.368 . S
C930 C926 1.368 . S
C930 C929 1.523 . S
H931 C906 0.950 . S
H932 C908 0.950 . S
H933 C909 0.949 . S
H934 C911 0.950 . S
H935 C913 0.950 . S
C936 C937 1.349 . S
C936 C938 1.327 . S
C936 H961 0.950 . S
C937 C936 1.349 . S
C937 C953 1.349 . S
C938 C936 1.327 . S
C938 C957 1.429 . S
C938 H962 0.950 . S
C939 C956 1.574 . S
C939 C958 1.368 . S
C939 H963 0.949 . S
H940 C944 0.949 . S
C941 C942 1.349 . S
C941 C943 1.327 . S
C941 H964 0.950 . S
C942 C941 1.349 . S
C942 C954 1.349 . S
C943 C941 1.327 . S
C943 C959 1.429 . S
C943 H965 0.950 . S
C944 H940 0.949 . S
C944 C952 1.574 . S
C944 C960 1.368 . S
H945 C953 0.950 . S
H946 C951 0.950 . S
H947 C952 0.949 . S
H948 C954 0.950 . S
H949 C955 0.950 . S
H950 C956 0.949 . S
C951 H946 0.950 . S
C951 C953 1.327 . S
C951 C957 1.429 . S
C952 C944 1.574 . S
C952 H947 0.949 . S
C952 C958 1.368 . S
C953 C937 1.349 . S
C953 H945 0.950 . S
C953 C951 1.327 . S
C954 C942 1.349 . S
C954 H948 0.950 . S
C954 C955 1.327 . S
C955 H949 0.950 . S
C955 C954 1.327 . S
C955 C959 1.429 . S
C956 C939 1.574 . S
C956 H950 0.949 . S
C956 C960 1.368 . S
C957 C938 1.429 . S
C957 C951 1.429 . S
C957 C958 1.523 . S
C958 C939 1.368 . S
C958 C952 1.368 . S
C958 C957 1.523 . S
C959 C943 1.429 . S
C959 C955 1.429 . S
C959 C960 1.523 . S
C960 C944 1.368 . S
C960 C956 1.368 . S
C960 C959 1.523 . S
H961 C936 0.950 . S
H962 C938 0.950 . S
H963 C939 0.949 . S
H964 C941 0.950 . S
H965 C943 0.950 . S
C966 C967 1.349 . S
C966 C968 1.327 . S
C966 H991 0.950 . S
C967 C966 1.349 . S
C967 C983 1.349 . S
C968 C966 1.327 . S
C968 C987 1.429 . S
C968 H992 0.950 . S
C969 C986 1.574 . S
C969 C988 1.368 . S
C969 H993 0.949 . S
H970 C974 0.949 . S
C971 C972 1.349 . S
C971 C973 1.327 . S
C971 H994 0.950 . S
C972 C971 1.349 . S
C972 C984 1.349 . S
C973 C971 1.327 . S
C973 C989 1.429 . S
C973 H995 0.950 . S
C974 H970 0.949 . S
C974 C982 1.574 . S
C974 C990 1.368 . S
H975 C983 0.950 . S
H976 C981 0.950 . S
H977 C982 0.949 . S
H978 C984 0.950 . S
H979 C985 0.950 . S
H980 C986 0.949 . S
C981 H976 0.950 . S
C981 C983 1.327 . S
C981 C987 1.429 . S
C982 C974 1.574 . S
C982 H977 0.949 . S
C982 C988 1.368 . S
C983 C967 1.349 . S
C983 H975 0.950 . S
C983 C981 1.327 . S
C984 C972 1.349 . S
C984 H978 0.950 . S
C984 C985 1.327 . S
C985 H979 0.950 . S
C985 C984 1.327 . S
C985 C989 1.429 . S
C986 C969 1.574 . S
C986 H980 0.949 . S
C986 C990 1.368 . S
C987 C968 1.429 . S
C987 C981 1.429 . S
C987 C988 1.523 . S
C988 C969 1.368 . S
C988 C982 1.368 . S
C988 C987 1.523 . S
C989 C973 1.429 . S
C989 C985 1.429 . S
C989 C990 1.523 . S
C990 C974 1.368 . S
C990 C986 1.368 . S
C990 C989 1.523 . S
H991 C966 0.950 . S
H992 C968 0.950 . S
H993 C969 0.949 . S
H994 C971 0.950 . S
H995 C973 0.950 . S
C996 C997 1.349 . S
C996 C998 1.327 . S
C996 H1021 0.950 . S
C997 C996 1.349 . S
C997 C1013 1.349 . S
C998 C996 1.327 . S
C998 C1017 1.429 . S
C998 H1022 0.950 . S
C999 C1016 1.574 . S
C999 C1018 1.368 . S
C999 H1023 0.949 . S
H1000 C1004 0.949 . S
C1001 C1002 1.349 . S
C1001 C1003 1.327 . S
C1001 H1024 0.950 . S
C1002 C1001 1.349 . S
C1002 C1014 1.349 . S
C1003 C1001 1.327 . S
C1003 C1019 1.429 . S
C1003 H1025 0.950 . S
C1004 H1000 0.949 . S
C1004 C1012 1.574 . S
C1004 C1020 1.368 . S
H1005 C1013 0.950 . S
H1006 C1011 0.950 . S
H1007 C1012 0.949 . S
H1008 C1014 0.950 . S
H1009 C1015 0.950 . S
H1010 C1016 0.949 . S
C1011 H1006 0.950 . S
C1011 C1013 1.327 . S
C1011 C1017 1.429 . S
C1012 C1004 1.574 . S
C1012 H1007 0.949 . S
C1012 C1018 1.368 . S
C1013 C997 1.349 . S
C1013 H1005 0.950 . S
C1013 C1011 1.327 . S
C1014 C1002 1.349 . S
C1014 H1008 0.950 . S
C1014 C1015 1.327 . S
C1015 H1009 0.950 . S
C1015 C1014 1.327 . S
C1015 C1019 1.429 . S
C1016 C999 1.574 . S
C1016 H1010 0.949 . S
C1016 C1020 1.368 . S
C1017 C998 1.429 . S
C1017 C1011 1.429 . S
C1017 C1018 1.523 . S
C1018 C999 1.368 . S
C1018 C1012 1.368 . S
C1018 C1017 1.523 . S
C1019 C1003 1.429 . S
C1019 C1015 1.429 . S
C1019 C1020 1.523 . S
C1020 C1004 1.368 . S
C1020 C1016 1.368 . S
C1020 C1019 1.523 . S
H1021 C996 0.950 . S
H1022 C998 0.950 . S
H1023 C999 0.949 . S
H1024 C1001 0.950 . S
H1025 C1003 0.950 . S
C1026 C1027 1.349 . S
C1026 C1028 1.327 . S
C1026 H1051 0.950 . S
C1027 C1026 1.349 . S
C1027 C1043 1.349 . S
C1028 C1026 1.327 . S
C1028 C1047 1.429 . S
C1028 H1052 0.950 . S
C1029 C1046 1.574 . S
C1029 C1048 1.368 . S
C1029 H1053 0.949 . S
H1030 C1034 0.949 . S
C1031 C1032 1.349 . S
C1031 C1033 1.327 . S
C1031 H1054 0.950 . S
C1032 C1031 1.349 . S
C1032 C1044 1.349 . S
C1033 C1031 1.327 . S
C1033 C1049 1.429 . S
C1033 H1055 0.950 . S
C1034 H1030 0.949 . S
C1034 C1042 1.574 . S
C1034 C1050 1.368 . S
H1035 C1043 0.950 . S
H1036 C1041 0.950 . S
H1037 C1042 0.949 . S
H1038 C1044 0.950 . S
H1039 C1045 0.950 . S
H1040 C1046 0.949 . S
C1041 H1036 0.950 . S
C1041 C1043 1.327 . S
C1041 C1047 1.429 . S
C1042 C1034 1.574 . S
C1042 H1037 0.949 . S
C1042 C1048 1.368 . S
C1043 C1027 1.349 . S
C1043 H1035 0.950 . S
C1043 C1041 1.327 . S
C1044 C1032 1.349 . S
C1044 H1038 0.950 . S
C1044 C1045 1.327 . S
C1045 H1039 0.950 . S
C1045 C1044 1.327 . S
C1045 C1049 1.429 . S
C1046 C1029 1.574 . S
C1046 H1040 0.949 . S
C1046 C1050 1.368 . S
C1047 C1028 1.429 . S
C1047 C1041 1.429 . S
C1047 C1048 1.523 . S
C1048 C1029 1.368 . S
C1048 C1042 1.368 . S
C1048 C1047 1.523 . S
C1049 C1033 1.429 . S
C1049 C1045 1.429 . S
C1049 C1050 1.523 . S
C1050 C1034 1.368 . S
C1050 C1046 1.368 . S
C1050 C1049 1.523 . S
H1051 C1026 0.950 . S
H1052 C1028 0.950 . S
H1053 C1029 0.949 . S
H1054 C1031 0.950 . S
H1055 C1033 0.950 . S
C1056 C1057 1.349 . S
C1056 C1058 1.327 . S
C1056 H1081 0.950 . S
C1057 C1056 1.349 . S
C1057 C1073 1.349 . S
C1058 C1056 1.327 . S
C1058 C1077 1.429 . S
C1058 H1082 0.950 . S
C1059 C1076 1.574 . S
C1059 C1078 1.368 . S
C1059 H1083 0.949 . S
H1060 C1064 0.949 . S
C1061 C1062 1.349 . S
C1061 C1063 1.327 . S
C1061 H1084 0.950 . S
C1062 C1061 1.349 . S
C1062 C1074 1.349 . S
C1063 C1061 1.327 . S
C1063 C1079 1.429 . S
C1063 H1085 0.950 . S
C1064 H1060 0.949 . S
C1064 C1072 1.574 . S
C1064 C1080 1.368 . S
H1065 C1073 0.950 . S
H1066 C1071 0.950 . S
H1067 C1072 0.949 . S
H1068 C1074 0.950 . S
H1069 C1075 0.950 . S
H1070 C1076 0.949 . S
C1071 H1066 0.950 . S
C1071 C1073 1.327 . S
C1071 C1077 1.429 . S
C1072 C1064 1.574 . S
C1072 H1067 0.949 . S
C1072 C1078 1.368 . S
C1073 C1057 1.349 . S
C1073 H1065 0.950 . S
C1073 C1071 1.327 . S
C1074 C1062 1.349 . S
C1074 H1068 0.950 . S
C1074 C1075 1.327 . S
C1075 H1069 0.950 . S
C1075 C1074 1.327 . S
C1075 C1079 1.429 . S
C1076 C1059 1.574 . S
C1076 H1070 0.949 . S
C1076 C1080 1.368 . S
C1077 C1058 1.429 . S
C1077 C1071 1.429 . S
C1077 C1078 1.523 . S
C1078 C1059 1.368 . S
C1078 C1072 1.368 . S
C1078 C1077 1.523 . S
C1079 C1063 1.429 . S
C1079 C1075 1.429 . S
C1079 C1080 1.523 . S
C1080 C1064 1.368 . S
C1080 C1076 1.368 . S
C1080 C1079 1.523 . S
H1081 C1056 0.950 . S
H1082 C1058 0.950 . S
H1083 C1059 0.949 . S
H1084 C1061 0.950 . S
H1085 C1063 0.950 . S
C1086 C1087 1.349 . S
C1086 C1088 1.327 . S
C1086 H1111 0.950 . S
C1087 C1086 1.349 . S
C1087 C1103 1.349 . S
C1088 C1086 1.327 . S
C1088 C1107 1.429 . S
C1088 H1112 0.950 . S
C1089 C1106 1.574 . S
C1089 C1108 1.368 . S
C1089 H1113 0.949 . S
H1090 C1094 0.949 . S
C1091 C1092 1.349 . S
C1091 C1093 1.327 . S
C1091 H1114 0.950 . S
C1092 C1091 1.349 . S
C1092 C1104 1.349 . S
C1093 C1091 1.327 . S
C1093 C1109 1.429 . S
C1093 H1115 0.950 . S
C1094 H1090 0.949 . S
C1094 C1102 1.574 . S
C1094 C1110 1.368 . S
H1095 C1103 0.950 . S
H1096 C1101 0.950 . S
H1097 C1102 0.949 . S
H1098 C1104 0.950 . S
H1099 C1105 0.950 . S
H1100 C1106 0.949 . S
C1101 H1096 0.950 . S
C1101 C1103 1.327 . S
C1101 C1107 1.429 . S
C1102 C1094 1.574 . S
C1102 H1097 0.949 . S
C1102 C1108 1.368 . S
C1103 C1087 1.349 . S
C1103 H1095 0.950 . S
C1103 C1101 1.327 . S
C1104 C1092 1.349 . S
C1104 H1098 0.950 . S
C1104 C1105 1.327 . S
C1105 H1099 0.950 . S
C1105 C1104 1.327 . S
C1105 C1109 1.429 . S
C1106 C1089 1.574 . S
C1106 H1100 0.949 . S
C1106 C1110 1.368 . S
C1107 C1088 1.429 . S
C1107 C1101 1.429 . S
C1107 C1108 1.523 . S
C1108 C1089 1.368 . S
C1108 C1102 1.368 . S
C1108 C1107 1.523 . S
C1109 C1093 1.429 . S
C1109 C1105 1.429 . S
C1109 C1110 1.523 . S
C1110 C1094 1.368 . S
C1110 C1106 1.368 . S
C1110 C1109 1.523 . S
H1111 C1086 0.950 . S
H1112 C1088 0.950 . S
H1113 C1089 0.949 . S
H1114 C1091 0.950 . S
H1115 C1093 0.950 . S
C1116 C1117 1.349 . S
C1116 C1118 1.327 . S
C1116 H1141 0.950 . S
C1117 C1116 1.349 . S
C1117 C1133 1.349 . S
C1118 C1116 1.327 . S
C1118 C1137 1.429 . S
C1118 H1142 0.948 . S
C1119 C1136 1.574 . S
C1119 C1138 1.368 . S
C1119 H1143 0.949 . S
H1120 C1124 0.949 . S
C1121 C1122 1.349 . S
C1121 C1123 1.327 . S
C1121 H1144 0.950 . S
C1122 C1121 1.349 . S
C1122 C1134 1.349 . S
C1123 C1121 1.327 . S
C1123 C1139 1.429 . S
C1123 H1145 0.949 . S
C1124 H1120 0.949 . S
C1124 C1132 1.574 . S
C1124 C1140 1.368 . S
H1125 C1133 0.950 . S
H1126 C1131 0.950 . S
H1127 C1132 0.949 . S
H1128 C1134 0.950 . S
H1129 C1135 0.950 . S
H1130 C1136 0.949 . S
C1131 H1126 0.950 . S
C1131 C1133 1.327 . S
C1131 C1137 1.429 . S
C1132 C1124 1.574 . S
C1132 H1127 0.949 . S
C1132 C1138 1.368 1_554 S
C1133 C1117 1.349 . S
C1133 H1125 0.950 . S
C1133 C1131 1.327 . S
C1134 C1122 1.349 . S
C1134 H1128 0.950 . S
C1134 C1135 1.327 . S
C1135 H1129 0.950 . S
C1135 C1134 1.327 . S
C1135 C1139 1.429 . S
C1136 C1119 1.574 . S
C1136 H1130 0.949 . S
C1136 C1140 1.368 1_556 S
C1137 C1118 1.429 . S
C1137 C1131 1.429 . S
C1137 C1138 1.523 . S
C1138 C1119 1.368 . S
C1138 C1132 1.368 1_556 S
C1138 C1137 1.523 . S
C1139 C1123 1.429 . S
C1139 C1135 1.429 . S
C1139 C1140 1.523 . S
C1140 C1124 1.368 . S
C1140 C1136 1.368 1_554 S
C1140 C1139 1.523 . S
H1141 C1116 0.950 . S
H1142 C1118 0.948 . S
H1143 C1119 0.949 . S
H1144 C1121 0.950 . S
H1145 C1123 0.949 . S
C1146 C1147 1.349 . S
C1146 C1148 1.327 . S
C1146 H1171 0.950 . S
C1147 C1146 1.349 . S
C1147 C1163 1.349 . S
C1148 C1146 1.327 . S
C1148 C1167 1.429 . S
C1148 H1172 0.950 . S
C1149 C1166 1.574 . S
C1149 C1168 1.368 . S
C1149 H1173 0.949 . S
H1150 C1154 0.949 . S
C1151 C1152 1.349 . S
C1151 C1153 1.327 . S
C1151 H1174 0.950 . S
C1152 C1151 1.349 . S
C1152 C1164 1.349 . S
C1153 C1151 1.327 . S
C1153 C1169 1.429 . S
C1153 H1175 0.950 . S
C1154 H1150 0.949 . S
C1154 C1162 1.574 . S
C1154 C1170 1.368 . S
H1155 C1163 0.950 . S
H1156 C1161 0.950 . S
H1157 C1162 0.949 . S
H1158 C1164 0.950 . S
H1159 C1165 0.950 . S
H1160 C1166 0.949 . S
C1161 H1156 0.950 . S
C1161 C1163 1.327 . S
C1161 C1167 1.429 . S
C1162 C1154 1.574 . S
C1162 H1157 0.949 . S
C1162 C1168 1.368 . S
C1163 C1147 1.349 . S
C1163 H1155 0.950 . S
C1163 C1161 1.327 . S
C1164 C1152 1.349 . S
C1164 H1158 0.950 . S
C1164 C1165 1.327 . S
C1165 H1159 0.950 . S
C1165 C1164 1.327 . S
C1165 C1169 1.429 . S
C1166 C1149 1.574 . S
C1166 H1160 0.949 . S
C1166 C1170 1.368 . S
C1167 C1148 1.429 . S
C1167 C1161 1.429 . S
C1167 C1168 1.523 . S
C1168 C1149 1.368 . S
C1168 C1162 1.368 . S
C1168 C1167 1.523 . S
C1169 C1153 1.429 . S
C1169 C1165 1.429 . S
C1169 C1170 1.523 . S
C1170 C1154 1.368 . S
C1170 C1166 1.368 . S
C1170 C1169 1.523 . S
H1171 C1146 0.950 . S
H1172 C1148 0.950 . S
H1173 C1149 0.949 . S
H1174 C1151 0.950 . S
H1175 C1153 0.950 . S
C1176 C1177 1.349 . S
C1176 C1178 1.327 . S
C1176 H1201 0.950 . S
C1177 C1176 1.349 . S
C1177 C1193 1.349 . S
C1178 C1176 1.327 . S
C1178 C1197 1.429 . S
C1178 H1202 0.950 . S
C1179 C1196 1.574 . S
C1179 C1198 1.368 . S
C1179 H1203 0.949 . S
H1180 C1184 0.949 . S
C1181 C1182 1.349 . S
C1181 C1183 1.327 . S
C1181 H1204 0.950 . S
C1182 C1181 1.349 . S
C1182 C1194 1.349 . S
C1183 C1181 1.327 . S
C1183 C1199 1.429 . S
C1183 H1205 0.950 . S
C1184 H1180 0.949 . S
C1184 C1192 1.574 . S
C1184 C1200 1.368 . S
H1185 C1193 0.950 . S
H1186 C1191 0.950 . S
H1187 C1192 0.949 . S
H1188 C1194 0.950 . S
H1189 C1195 0.950 . S
H1190 C1196 0.949 . S
C1191 H1186 0.950 . S
C1191 C1193 1.327 . S
C1191 C1197 1.429 . S
C1192 C1184 1.574 . S
C1192 H1187 0.949 . S
C1192 C1198 1.368 . S
C1193 C1177 1.349 . S
C1193 H1185 0.950 . S
C1193 C1191 1.327 . S
C1194 C1182 1.349 . S
C1194 H1188 0.950 . S
C1194 C1195 1.327 . S
C1195 H1189 0.950 . S
C1195 C1194 1.327 . S
C1195 C1199 1.429 . S
C1196 C1179 1.574 . S
C1196 H1190 0.949 . S
C1196 C1200 1.368 . S
C1197 C1178 1.429 . S
C1197 C1191 1.429 . S
C1197 C1198 1.523 . S
C1198 C1179 1.368 . S
C1198 C1192 1.368 . S
C1198 C1197 1.523 . S
C1199 C1183 1.429 . S
C1199 C1195 1.429 . S
C1199 C1200 1.523 . S
C1200 C1184 1.368 . S
C1200 C1196 1.368 . S
C1200 C1199 1.523 . S
H1201 C1176 0.950 . S
H1202 C1178 0.950 . S
H1203 C1179 0.949 . S
H1204 C1181 0.950 . S
H1205 C1183 0.950 . S
C1206 C1207 1.349 . S
C1206 C1208 1.327 . S
C1206 H1231 0.950 . S
C1207 C1206 1.349 . S
C1207 C1223 1.349 . S
C1208 C1206 1.327 . S
C1208 C1227 1.429 . S
C1208 H1232 0.950 . S
C1209 C1226 1.574 . S
C1209 C1228 1.368 1_556 S
C1209 H1233 0.949 . S
H1210 C1214 0.949 . S
C1211 C1212 1.349 . S
C1211 C1213 1.327 . S
C1211 H1234 0.950 . S
C1212 C1211 1.349 . S
C1212 C1224 1.349 . S
C1213 C1211 1.327 . S
C1213 C1229 1.429 . S
C1213 H1235 0.950 . S
C1214 H1210 0.949 . S
C1214 C1222 1.574 . S
C1214 C1230 1.368 1_554 S
H1215 C1223 0.950 . S
H1216 C1221 0.950 1_556 S
H1217 C1222 0.949 . S
H1218 C1224 0.950 . S
H1219 C1225 0.949 1_554 S
H1220 C1226 0.949 . S
C1221 H1216 0.950 1_554 S
C1221 C1223 1.327 . S
C1221 C1227 1.429 . S
C1222 C1214 1.574 . S
C1222 H1217 0.949 . S
C1222 C1228 1.368 . S
C1223 C1207 1.349 . S
C1223 H1215 0.950 . S
C1223 C1221 1.327 . S
C1224 C1212 1.349 . S
C1224 H1218 0.950 . S
C1224 C1225 1.327 . S
C1225 H1219 0.949 1_556 S
C1225 C1224 1.327 . S
C1225 C1229 1.429 . S
C1226 C1209 1.574 . S
C1226 H1220 0.949 . S
C1226 C1230 1.368 . S
C1227 C1208 1.429 . S
C1227 C1221 1.429 . S
C1227 C1228 1.523 . S
C1228 C1209 1.368 1_554 S
C1228 C1222 1.368 . S
C1228 C1227 1.523 . S
C1229 C1213 1.429 . S
C1229 C1225 1.429 . S
C1229 C1230 1.523 . S
C1230 C1214 1.368 1_556 S
C1230 C1226 1.368 . S
C1230 C1229 1.523 . S
H1231 C1206 0.950 . S
H1232 C1208 0.950 . S
H1233 C1209 0.949 . S
H1234 C1211 0.950 . S
H1235 C1213 0.950 . S
C1236 C1237 1.349 . S
C1236 C1238 1.327 . S
C1236 H1261 0.950 . S
C1237 C1236 1.349 . S
C1237 C1253 1.349 . S
C1238 C1236 1.327 . S
C1238 C1257 1.429 . S
C1238 H1262 0.950 . S
C1239 C1256 1.574 . S
C1239 C1258 1.368 . S
C1239 H1263 0.949 . S
H1240 C1244 0.949 . S
C1241 C1242 1.349 . S
C1241 C1243 1.327 . S
C1241 H1264 0.950 . S
C1242 C1241 1.349 . S
C1242 C1254 1.349 . S
C1243 C1241 1.327 . S
C1243 C1259 1.429 . S
C1243 H1265 0.950 . S
C1244 H1240 0.949 . S
C1244 C1252 1.574 . S
C1244 C1260 1.368 . S
H1245 C1253 0.950 . S
H1246 C1251 0.950 . S
H1247 C1252 0.949 . S
H1248 C1254 0.950 . S
H1249 C1255 0.950 . S
H1250 C1256 0.949 . S
C1251 H1246 0.950 . S
C1251 C1253 1.327 . S
C1251 C1257 1.429 . S
C1252 C1244 1.574 . S
C1252 H1247 0.949 . S
C1252 C1258 1.368 . S
C1253 C1237 1.349 . S
C1253 H1245 0.950 . S
C1253 C1251 1.327 . S
C1254 C1242 1.349 . S
C1254 H1248 0.950 . S
C1254 C1255 1.327 . S
C1255 H1249 0.950 . S
C1255 C1254 1.327 . S
C1255 C1259 1.429 . S
C1256 C1239 1.574 . S
C1256 H1250 0.949 . S
C1256 C1260 1.368 . S
C1257 C1238 1.429 . S
C1257 C1251 1.429 . S
C1257 C1258 1.523 . S
C1258 C1239 1.368 . S
C1258 C1252 1.368 . S
C1258 C1257 1.523 . S
C1259 C1243 1.429 . S
C1259 C1255 1.429 . S
C1259 C1260 1.523 . S
C1260 C1244 1.368 . S
C1260 C1256 1.368 . S
C1260 C1259 1.523 . S
H1261 C1236 0.950 . S
H1262 C1238 0.950 . S
H1263 C1239 0.949 . S
H1264 C1241 0.950 . S
H1265 C1243 0.950 . S
C1266 C1267 1.349 . S
C1266 C1268 1.327 . S
C1266 H1291 0.950 . S
C1267 C1266 1.349 . S
C1267 C1283 1.349 . S
C1268 C1266 1.327 . S
C1268 C1287 1.429 . S
C1268 H1292 0.950 . S
C1269 C1286 1.574 . S
C1269 C1288 1.368 . S
C1269 H1293 0.949 . S
H1270 C1274 0.949 . S
C1271 C1272 1.349 . S
C1271 C1273 1.327 . S
C1271 H1294 0.950 . S
C1272 C1271 1.349 . S
C1272 C1284 1.349 . S
C1273 C1271 1.327 . S
C1273 C1289 1.429 . S
C1273 H1295 0.950 . S
C1274 H1270 0.949 . S
C1274 C1282 1.574 . S
C1274 C1290 1.368 . S
H1275 C1283 0.950 . S
H1276 C1281 0.950 . S
H1277 C1282 0.949 . S
H1278 C1284 0.950 . S
H1279 C1285 0.950 . S
H1280 C1286 0.949 . S
C1281 H1276 0.950 . S
C1281 C1283 1.327 . S
C1281 C1287 1.429 . S
C1282 C1274 1.574 . S
C1282 H1277 0.949 . S
C1282 C1288 1.368 . S
C1283 C1267 1.349 . S
C1283 H1275 0.950 . S
C1283 C1281 1.327 . S
C1284 C1272 1.349 . S
C1284 H1278 0.950 . S
C1284 C1285 1.327 . S
C1285 H1279 0.950 . S
C1285 C1284 1.327 . S
C1285 C1289 1.429 . S
C1286 C1269 1.574 . S
C1286 H1280 0.949 . S
C1286 C1290 1.368 . S
C1287 C1268 1.429 . S
C1287 C1281 1.429 . S
C1287 C1288 1.523 . S
C1288 C1269 1.368 . S
C1288 C1282 1.368 . S
C1288 C1287 1.523 . S
C1289 C1273 1.429 . S
C1289 C1285 1.429 . S
C1289 C1290 1.523 . S
C1290 C1274 1.368 . S
C1290 C1286 1.368 . S
C1290 C1289 1.523 . S
H1291 C1266 0.950 . S
H1292 C1268 0.950 . S
H1293 C1269 0.949 . S
H1294 C1271 0.950 . S
H1295 C1273 0.950 . S
C397 C28 1.147 . S
C402 C391 1.147 . S
C427 C61 1.147 . S
C432 C226 1.147 . S
C457 C259 1.147 . S
C462 C94 1.147 . S
C487 C292 1.147 . S
C492 C127 1.147 . S
C517 C325 1.147 . S
C522 C160 1.147 . S
C547 C358 1.147 . S
C552 C193 1.147 . S
C577 N14 1.408 . S
C582 N5 1.412 . S
C607 N38 1.412 . S
C612 N47 1.408 . S
C637 N80 1.408 . S
C642 N71 1.412 1_554 S
C667 N113 1.408 . S
C672 N104 1.412 . S
C697 N146 1.408 . S
C702 N137 1.412 . S
C727 N170 1.412 1_554 S
C732 N179 1.408 . S
C757 N212 1.408 . S
C762 N203 1.412 . S
C787 N236 1.412 . S
C792 N245 1.408 . S
C817 N278 1.408 . S
C822 N269 1.412 1_556 S
C847 N302 1.412 . S
C852 N311 1.408 . S
C877 N335 1.412 . S
C882 N344 1.408 . S
C907 N377 1.408 . S
C912 N368 1.412 1_556 S
C937 C17 1.617 . S
C942 C281 1.617 . S
C967 C50 1.617 . S
C972 C314 1.617 . S
C997 C83 1.617 . S
C1002 C347 1.617 . S
C1027 C380 1.617 . S
C1032 C116 1.617 . S
C1057 C215 1.617 . S
C1062 C149 1.617 . S
C1087 C248 1.617 . S
C1092 C182 1.617 . S
C1117 C338 0.949 . S
C1122 C8 0.949 . S
C1147 C371 0.949 . S
C1152 C41 0.949 . S
C1177 C206 0.949 . S
C1182 C74 0.949 . S
C1207 C107 0.949 . S
C1212 C239 0.949 . S
C1237 C140 0.949 . S
C1242 C272 0.949 . S
C1267 C173 0.949 . S
C1272 C305 0.949 . S
