# Generated by pormake.
# Topology uky, (4)-cn, num edge types: 1
# Building blocks:
#     Node 0, Type 0, BuildingBlock: ESEHIV_clean_sbu_0, # of connection points: 4
#     Node 1, Type 0, BuildingBlock: ESEHIV_clean_sbu_0, # of connection points: 4
#     Node 2, Type 0, BuildingBlock: ESEHIV_clean_sbu_0, # of connection points: 4
#     Node 3, Type 0, BuildingBlock: ESEHIV_clean_sbu_0, # of connection points: 4
#     Node 4, Type 0, BuildingBlock: ESEHIV_clean_sbu_0, # of connection points: 4
#     Node 5, Type 0, BuildingBlock: ESEHIV_clean_sbu_0, # of connection points: 4
#     Node 6, Type 0, BuildingBlock: ESEHIV_clean_sbu_0, # of connection points: 4
#     Node 7, Type 0, BuildingBlock: ESEHIV_clean_sbu_0, # of connection points: 4
#     Node 8, Type 0, BuildingBlock: ESEHIV_clean_sbu_0, # of connection points: 4
#     Node 9, Type 0, BuildingBlock: ESEHIV_clean_sbu_0, # of connection points: 4
#     Node 10, Type 0, BuildingBlock: ESEHIV_clean_sbu_0, # of connection points: 4
#     Node 11, Type 0, BuildingBlock: ESEHIV_clean_sbu_0, # of connection points: 4
#     Node 12, Type 0, BuildingBlock: ESEHIV_clean_sbu_0, # of connection points: 4
#     Node 13, Type 0, BuildingBlock: ESEHIV_clean_sbu_0, # of connection points: 4
#     Node 14, Type 0, BuildingBlock: ESEHIV_clean_sbu_0, # of connection points: 4
#     Node 15, Type 0, BuildingBlock: ESEHIV_clean_sbu_0, # of connection points: 4
#     Node 16, Type 0, BuildingBlock: ESEHIV_clean_sbu_0, # of connection points: 4
#     Node 17, Type 0, BuildingBlock: ESEHIV_clean_sbu_0, # of connection points: 4
#     Node 18, Type 0, BuildingBlock: ESEHIV_clean_sbu_0, # of connection points: 4
#     Node 19, Type 0, BuildingBlock: ESEHIV_clean_sbu_0, # of connection points: 4
#     Node 20, Type 0, BuildingBlock: ESEHIV_clean_sbu_0, # of connection points: 4
#     Node 21, Type 0, BuildingBlock: ESEHIV_clean_sbu_0, # of connection points: 4
#     Node 22, Type 0, BuildingBlock: ESEHIV_clean_sbu_0, # of connection points: 4
#     Node 23, Type 0, BuildingBlock: ESEHIV_clean_sbu_0, # of connection points: 4
#     Node 24, Type 0, BuildingBlock: ESEHIV_clean_sbu_0, # of connection points: 4
#     Node 25, Type 0, BuildingBlock: ESEHIV_clean_sbu_0, # of connection points: 4
#     Node 26, Type 0, BuildingBlock: ESEHIV_clean_sbu_0, # of connection points: 4
#     Node 27, Type 0, BuildingBlock: ESEHIV_clean_sbu_0, # of connection points: 4
#     Node 28, Type 0, BuildingBlock: ESEHIV_clean_sbu_0, # of connection points: 4
#     Node 29, Type 0, BuildingBlock: ESEHIV_clean_sbu_0, # of connection points: 4
#     Node 30, Type 0, BuildingBlock: ESEHIV_clean_sbu_0, # of connection points: 4
#     Node 31, Type 0, BuildingBlock: ESEHIV_clean_sbu_0, # of connection points: 4
#     Node 32, Type 0, BuildingBlock: ESEHIV_clean_sbu_0, # of connection points: 4
#     Node 33, Type 0, BuildingBlock: ESEHIV_clean_sbu_0, # of connection points: 4
#     Node 34, Type 0, BuildingBlock: ESEHIV_clean_sbu_0, # of connection points: 4
#     Node 35, Type 0, BuildingBlock: ESEHIV_clean_sbu_0, # of connection points: 4
#     Node 36, Type 0, BuildingBlock: ESEHIV_clean_sbu_0, # of connection points: 4
#     Node 37, Type 0, BuildingBlock: ESEHIV_clean_sbu_0, # of connection points: 4
#     Node 38, Type 0, BuildingBlock: ESEHIV_clean_sbu_0, # of connection points: 4
#     Node 39, Type 0, BuildingBlock: ESEHIV_clean_sbu_0, # of connection points: 4
#     Node 40, Type 0, BuildingBlock: ESEHIV_clean_sbu_0, # of connection points: 4
#     Node 41, Type 0, BuildingBlock: ESEHIV_clean_sbu_0, # of connection points: 4
#     Node 42, Type 0, BuildingBlock: ESEHIV_clean_sbu_0, # of connection points: 4
#     Node 43, Type 0, BuildingBlock: ESEHIV_clean_sbu_0, # of connection points: 4
#     Node 44, Type 0, BuildingBlock: ESEHIV_clean_sbu_0, # of connection points: 4
#     Node 45, Type 0, BuildingBlock: ESEHIV_clean_sbu_0, # of connection points: 4
#     Node 46, Type 0, BuildingBlock: ESEHIV_clean_sbu_0, # of connection points: 4
#     Node 47, Type 0, BuildingBlock: ESEHIV_clean_sbu_0, # of connection points: 4
#     Edge 48, Type (0, 0), BuildingBlock: CIFDUS_clean_linker_0, # of connection points: 2
#     Edge 49, Type (0, 0), BuildingBlock: CIFDUS_clean_linker_0, # of connection points: 2
#     Edge 50, Type (0, 0), BuildingBlock: CIFDUS_clean_linker_0, # of connection points: 2
#     Edge 51, Type (0, 0), BuildingBlock: CIFDUS_clean_linker_0, # of connection points: 2
#     Edge 52, Type (0, 0), BuildingBlock: CIFDUS_clean_linker_0, # of connection points: 2
#     Edge 53, Type (0, 0), BuildingBlock: CIFDUS_clean_linker_0, # of connection points: 2
#     Edge 54, Type (0, 0), BuildingBlock: CIFDUS_clean_linker_0, # of connection points: 2
#     Edge 55, Type (0, 0), BuildingBlock: CIFDUS_clean_linker_0, # of connection points: 2
#     Edge 56, Type (0, 0), BuildingBlock: CIFDUS_clean_linker_0, # of connection points: 2
#     Edge 57, Type (0, 0), BuildingBlock: CIFDUS_clean_linker_0, # of connection points: 2
#     Edge 58, Type (0, 0), BuildingBlock: CIFDUS_clean_linker_0, # of connection points: 2
#     Edge 59, Type (0, 0), BuildingBlock: CIFDUS_clean_linker_0, # of connection points: 2
#     Edge 60, Type (0, 0), BuildingBlock: CIFDUS_clean_linker_0, # of connection points: 2
#     Edge 61, Type (0, 0), BuildingBlock: CIFDUS_clean_linker_0, # of connection points: 2
#     Edge 62, Type (0, 0), BuildingBlock: CIFDUS_clean_linker_0, # of connection points: 2
#     Edge 63, Type (0, 0), BuildingBlock: CIFDUS_clean_linker_0, # of connection points: 2
#     Edge 64, Type (0, 0), BuildingBlock: CIFDUS_clean_linker_0, # of connection points: 2
#     Edge 65, Type (0, 0), BuildingBlock: CIFDUS_clean_linker_0, # of connection points: 2
#     Edge 66, Type (0, 0), BuildingBlock: CIFDUS_clean_linker_0, # of connection points: 2
#     Edge 67, Type (0, 0), BuildingBlock: CIFDUS_clean_linker_0, # of connection points: 2
#     Edge 68, Type (0, 0), BuildingBlock: CIFDUS_clean_linker_0, # of connection points: 2
#     Edge 69, Type (0, 0), BuildingBlock: CIFDUS_clean_linker_0, # of connection points: 2
#     Edge 70, Type (0, 0), BuildingBlock: CIFDUS_clean_linker_0, # of connection points: 2
#     Edge 71, Type (0, 0), BuildingBlock: CIFDUS_clean_linker_0, # of connection points: 2
#     Edge 72, Type (0, 0), BuildingBlock: CIFDUS_clean_linker_0, # of connection points: 2
#     Edge 73, Type (0, 0), BuildingBlock: CIFDUS_clean_linker_0, # of connection points: 2
#     Edge 74, Type (0, 0), BuildingBlock: CIFDUS_clean_linker_0, # of connection points: 2
#     Edge 75, Type (0, 0), BuildingBlock: CIFDUS_clean_linker_0, # of connection points: 2
#     Edge 76, Type (0, 0), BuildingBlock: CIFDUS_clean_linker_0, # of connection points: 2
#     Edge 77, Type (0, 0), BuildingBlock: CIFDUS_clean_linker_0, # of connection points: 2
#     Edge 78, Type (0, 0), BuildingBlock: CIFDUS_clean_linker_0, # of connection points: 2
#     Edge 79, Type (0, 0), BuildingBlock: CIFDUS_clean_linker_0, # of connection points: 2
#     Edge 80, Type (0, 0), BuildingBlock: CIFDUS_clean_linker_0, # of connection points: 2
#     Edge 81, Type (0, 0), BuildingBlock: CIFDUS_clean_linker_0, # of connection points: 2
#     Edge 82, Type (0, 0), BuildingBlock: CIFDUS_clean_linker_0, # of connection points: 2
#     Edge 83, Type (0, 0), BuildingBlock: CIFDUS_clean_linker_0, # of connection points: 2
#     Edge 84, Type (0, 0), BuildingBlock: CIFDUS_clean_linker_0, # of connection points: 2
#     Edge 85, Type (0, 0), BuildingBlock: CIFDUS_clean_linker_0, # of connection points: 2
#     Edge 86, Type (0, 0), BuildingBlock: CIFDUS_clean_linker_0, # of connection points: 2
#     Edge 87, Type (0, 0), BuildingBlock: CIFDUS_clean_linker_0, # of connection points: 2
#     Edge 88, Type (0, 0), BuildingBlock: CIFDUS_clean_linker_0, # of connection points: 2
#     Edge 89, Type (0, 0), BuildingBlock: CIFDUS_clean_linker_0, # of connection points: 2
#     Edge 90, Type (0, 0), BuildingBlock: CIFDUS_clean_linker_0, # of connection points: 2
#     Edge 91, Type (0, 0), BuildingBlock: CIFDUS_clean_linker_0, # of connection points: 2
#     Edge 92, Type (0, 0), BuildingBlock: CIFDUS_clean_linker_0, # of connection points: 2
#     Edge 93, Type (0, 0), BuildingBlock: CIFDUS_clean_linker_0, # of connection points: 2
#     Edge 94, Type (0, 0), BuildingBlock: CIFDUS_clean_linker_0, # of connection points: 2
#     Edge 95, Type (0, 0), BuildingBlock: CIFDUS_clean_linker_0, # of connection points: 2
#     Edge 96, Type (0, 0), BuildingBlock: CIFDUS_clean_linker_0, # of connection points: 2
#     Edge 97, Type (0, 0), BuildingBlock: CIFDUS_clean_linker_0, # of connection points: 2
#     Edge 98, Type (0, 0), BuildingBlock: CIFDUS_clean_linker_0, # of connection points: 2
#     Edge 99, Type (0, 0), BuildingBlock: CIFDUS_clean_linker_0, # of connection points: 2
#     Edge 100, Type (0, 0), BuildingBlock: CIFDUS_clean_linker_0, # of connection points: 2
#     Edge 101, Type (0, 0), BuildingBlock: CIFDUS_clean_linker_0, # of connection points: 2
#     Edge 102, Type (0, 0), BuildingBlock: CIFDUS_clean_linker_0, # of connection points: 2
#     Edge 103, Type (0, 0), BuildingBlock: CIFDUS_clean_linker_0, # of connection points: 2
#     Edge 104, Type (0, 0), BuildingBlock: CIFDUS_clean_linker_0, # of connection points: 2
#     Edge 105, Type (0, 0), BuildingBlock: CIFDUS_clean_linker_0, # of connection points: 2
#     Edge 106, Type (0, 0), BuildingBlock: CIFDUS_clean_linker_0, # of connection points: 2
#     Edge 107, Type (0, 0), BuildingBlock: CIFDUS_clean_linker_0, # of connection points: 2
#     Edge 108, Type (0, 0), BuildingBlock: CIFDUS_clean_linker_0, # of connection points: 2
#     Edge 109, Type (0, 0), BuildingBlock: CIFDUS_clean_linker_0, # of connection points: 2
#     Edge 110, Type (0, 0), BuildingBlock: CIFDUS_clean_linker_0, # of connection points: 2
#     Edge 111, Type (0, 0), BuildingBlock: CIFDUS_clean_linker_0, # of connection points: 2
#     Edge 112, Type (0, 0), BuildingBlock: CIFDUS_clean_linker_0, # of connection points: 2
#     Edge 113, Type (0, 0), BuildingBlock: CIFDUS_clean_linker_0, # of connection points: 2
#     Edge 114, Type (0, 0), BuildingBlock: CIFDUS_clean_linker_0, # of connection points: 2
#     Edge 115, Type (0, 0), BuildingBlock: CIFDUS_clean_linker_0, # of connection points: 2
#     Edge 116, Type (0, 0), BuildingBlock: CIFDUS_clean_linker_0, # of connection points: 2
#     Edge 117, Type (0, 0), BuildingBlock: CIFDUS_clean_linker_0, # of connection points: 2
#     Edge 118, Type (0, 0), BuildingBlock: CIFDUS_clean_linker_0, # of connection points: 2
#     Edge 119, Type (0, 0), BuildingBlock: CIFDUS_clean_linker_0, # of connection points: 2
#     Edge 120, Type (0, 0), BuildingBlock: CIFDUS_clean_linker_0, # of connection points: 2
#     Edge 121, Type (0, 0), BuildingBlock: CIFDUS_clean_linker_0, # of connection points: 2
#     Edge 122, Type (0, 0), BuildingBlock: CIFDUS_clean_linker_0, # of connection points: 2
#     Edge 123, Type (0, 0), BuildingBlock: CIFDUS_clean_linker_0, # of connection points: 2
#     Edge 124, Type (0, 0), BuildingBlock: CIFDUS_clean_linker_0, # of connection points: 2
#     Edge 125, Type (0, 0), BuildingBlock: CIFDUS_clean_linker_0, # of connection points: 2
#     Edge 126, Type (0, 0), BuildingBlock: CIFDUS_clean_linker_0, # of connection points: 2
#     Edge 127, Type (0, 0), BuildingBlock: CIFDUS_clean_linker_0, # of connection points: 2
#     Edge 128, Type (0, 0), BuildingBlock: CIFDUS_clean_linker_0, # of connection points: 2
#     Edge 129, Type (0, 0), BuildingBlock: CIFDUS_clean_linker_0, # of connection points: 2
#     Edge 130, Type (0, 0), BuildingBlock: CIFDUS_clean_linker_0, # of connection points: 2
#     Edge 131, Type (0, 0), BuildingBlock: CIFDUS_clean_linker_0, # of connection points: 2
#     Edge 132, Type (0, 0), BuildingBlock: CIFDUS_clean_linker_0, # of connection points: 2
#     Edge 133, Type (0, 0), BuildingBlock: CIFDUS_clean_linker_0, # of connection points: 2
#     Edge 134, Type (0, 0), BuildingBlock: CIFDUS_clean_linker_0, # of connection points: 2
#     Edge 135, Type (0, 0), BuildingBlock: CIFDUS_clean_linker_0, # of connection points: 2
#     Edge 136, Type (0, 0), BuildingBlock: CIFDUS_clean_linker_0, # of connection points: 2
#     Edge 137, Type (0, 0), BuildingBlock: CIFDUS_clean_linker_0, # of connection points: 2
#     Edge 138, Type (0, 0), BuildingBlock: CIFDUS_clean_linker_0, # of connection points: 2
#     Edge 139, Type (0, 0), BuildingBlock: CIFDUS_clean_linker_0, # of connection points: 2
#     Edge 140, Type (0, 0), BuildingBlock: CIFDUS_clean_linker_0, # of connection points: 2
#     Edge 141, Type (0, 0), BuildingBlock: CIFDUS_clean_linker_0, # of connection points: 2
#     Edge 142, Type (0, 0), BuildingBlock: CIFDUS_clean_linker_0, # of connection points: 2
#     Edge 143, Type (0, 0), BuildingBlock: CIFDUS_clean_linker_0, # of connection points: 2
# Relax obj value: 0.113
# Max RMSD: 0.299
# Mean RMSD: 0.273
data_MOF--net-uky--node1-ESEHIV_clean_sbu_0--edge1-CIFDUS_clean_linker_0
_symmetry_space_group_name_H-M    P1
_symmetry_Int_Tables_number       1
_symmetry_cell_setting            triclinic
loop_
_symmetry_equiv_pos_as_xyz
'x, y, z'
_cell_length_a     54.548219
_cell_length_b     65.823876
_cell_length_c     65.755432
_cell_angle_alpha  89.958018
_cell_angle_beta   89.957762
_cell_angle_gamma 89.988486
loop_
_atom_site_label
_atom_site_type_symbol
_atom_site_fract_x
_atom_site_fract_y
_atom_site_fract_z
_atom_type_partial_charge
Cu0 Cu 0.21323 0.24232 0.39385 0.0
N1 N 0.22795 0.25363 0.41674 0.0
N2 N 0.23903 0.25877 0.44904 0.0
C3 C 0.22413 0.24845 0.43629 0.0
C4 C 0.25269 0.27093 0.43697 0.0
C5 C 0.24579 0.26772 0.41706 0.0
O6 O 0.18998 0.22176 0.40314 0.0
C7 C 0.23992 0.23241 0.35759 0.0
O8 O 0.22055 0.23917 0.34786 0.0
H9 H 0.21114 0.23694 0.441 0.0
H10 H 0.25345 0.27493 0.4037 0.0
N11 N 0.19584 0.26266 0.38011 0.0
N12 N 0.1859 0.28893 0.3601 0.0
C13 C 0.20432 0.27748 0.36777 0.0
C14 C 0.17136 0.26494 0.38041 0.0
C15 C 0.16517 0.28108 0.36812 0.0
C16 C 0.19643 0.20458 0.41024 0.0
O17 O 0.21977 0.19966 0.41015 0.0
H18 H 0.22356 0.27968 0.36438 0.0
H19 H 0.15885 0.25529 0.38876 0.0
O20 O 0.23958 0.23144 0.37693 0.0
H21 H 0.2666 0.28144 0.44215 0.0
H22 H 0.14674 0.28624 0.36489 0.0
Cu23 Cu 0.02244 0.97779 0.66021 0.0
N24 N 0.03874 1.00072 0.64998 0.0
N25 N 0.04948 0.0268 0.62981 0.0
C26 C 0.03346 0.01139 0.633 0.0
C27 C 0.06551 0.02555 0.64545 0.0
C28 C 0.05886 0.00952 0.65778 0.0
O29 O 0.99474 0.97146 0.64284 0.0
C30 C 0.00955 0.99798 0.6977 0.0
O31 O 0.01115 0.015 0.68735 0.0
H32 H 0.01815 0.00783 0.62321 0.0
H33 H 0.06818 1.00446 0.67139 0.0
N34 N 0.04322 0.9553 0.65882 0.0
N35 N 0.06434 0.92764 0.66787 0.0
C36 C 0.05321 0.9448 0.67436 0.0
C37 C 0.04832 0.9445 0.64198 0.0
C38 C 0.06132 0.92741 0.64751 0.0
C39 C 0.97751 0.98371 0.63845 0.0
O40 O 0.97692 1.00168 0.64713 0.0
H41 H 0.05132 0.94913 0.69017 0.0
H42 H 0.0422 0.94843 0.62684 0.0
O43 O 0.01293 0.98112 0.68863 0.0
H44 H 0.08131 0.0352 0.64774 0.0
H45 H 0.06774 0.91558 0.63739 0.0
Cu46 Cu 0.29402 0.7691 0.89409 0.0
N47 N 0.27505 0.76106 0.91624 0.0
N48 N 0.26088 0.75409 0.94734 0.0
C49 C 0.28058 0.75978 0.93618 0.0
C50 C 0.24251 0.75152 0.93386 0.0
C51 C 0.25131 0.75579 0.91475 0.0
O52 O 0.32214 0.78552 0.90248 0.0
C53 C 0.27185 0.78165 0.85655 0.0
O54 O 0.29058 0.77282 0.84764 0.0
H55 H 0.2984 0.76343 0.94241 0.0
H56 H 0.24108 0.75529 0.90067 0.0
N57 N 0.30625 0.74567 0.88167 0.0
N58 N 0.31064 0.71855 0.86147 0.0
C59 C 0.29527 0.73325 0.86814 0.0
C60 C 0.32907 0.73834 0.884 0.0
C61 C 0.33185 0.72166 0.87161 0.0
C62 C 0.32221 0.79903 0.91635 0.0
O63 O 0.30155 0.80376 0.92547 0.0
H64 H 0.27674 0.73548 0.86273 0.0
H65 H 0.34285 0.74492 0.89381 0.0
O66 O 0.27143 0.78314 0.87584 0.0
H67 H 0.22402 0.7468 0.93753 0.0
H68 H 0.34833 0.71263 0.87015 0.0
Cu69 Cu 0.49807 0.03518 0.16193 0.0
N70 N 0.47623 0.01461 0.15466 0.0
N71 N 0.4605 0.9874 0.13899 0.0
C72 C 0.48004 0.99992 0.14075 0.0
C73 C 0.4438 0.99463 0.15236 0.0
C74 C 0.45354 0.0114 0.16197 0.0
O75 O 0.5256 0.03318 0.14315 0.0
C76 C 0.50857 0.01505 0.19955 0.0
O77 O 0.50413 0.9983 0.18935 0.0
H78 H 0.49695 0.99835 0.13228 0.0
H79 H 0.44471 0.02068 0.1734 0.0
N80 N 0.48216 0.06025 0.15949 0.0
N81 N 0.4617 0.08847 0.16796 0.0
C82 C 0.47117 0.07068 0.17459 0.0
C83 C 0.47931 0.0717 0.14269 0.0
C84 C 0.46684 0.08919 0.14789 0.0
C85 C 0.53858 0.04787 0.13661 0.0
O86 O 0.53511 0.06619 0.14398 0.0
H87 H 0.47041 0.06543 0.19018 0.0
H88 H 0.48591 0.06762 0.12772 0.0
O89 O 0.5079 0.03205 0.19028 0.0
H90 H 0.42564 0.98847 0.15482 0.0
H91 H 0.46161 0.10132 0.13765 0.0
Cu92 Cu 0.20752 0.76546 0.1195 0.0
N93 N 0.21868 0.75163 0.09666 0.0
N94 N 0.22871 0.74539 0.06436 0.0
C95 C 0.21561 0.75721 0.07714 0.0
C96 C 0.24042 0.73183 0.07631 0.0
C97 C 0.23415 0.73572 0.09626 0.0
O98 O 0.18692 0.78774 0.10978 0.0
C99 C 0.23821 0.77796 0.15276 0.0
O100 O 0.21808 0.77835 0.16373 0.0
H101 H 0.20491 0.77027 0.0725 0.0
H102 H 0.24103 0.72798 0.10961 0.0
N103 N 0.18904 0.74762 0.13548 0.0
N104 N 0.17822 0.72293 0.15716 0.0
C105 C 0.19702 0.73343 0.14874 0.0
C106 C 0.16448 0.74601 0.13544 0.0
C107 C 0.15776 0.73094 0.14881 0.0
C108 C 0.17142 0.79729 0.12066 0.0
O109 O 0.17039 0.79352 0.14027 0.0
H110 H 0.21622 0.73063 0.15177 0.0
H111 H 0.1523 0.75511 0.12619 0.0
O112 O 0.23687 0.77399 0.13387 0.0
H113 H 0.25284 0.72014 0.07104 0.0
H114 H 0.13914 0.72635 0.15213 0.0
Cu115 Cu 0.49557 0.97528 0.35731 0.0
N116 N 0.4763 0.99728 0.36575 0.0
N117 N 0.46348 0.02384 0.38421 0.0
C118 C 0.47733 0.0068 0.38386 0.0
C119 C 0.45285 0.02472 0.36567 0.0
C120 C 0.46076 0.00833 0.35436 0.0
O121 O 0.52423 0.97306 0.37485 0.0
C122 C 0.50936 0.99423 0.3195 0.0
O123 O 0.51093 0.01113 0.33003 0.0
H124 H 0.48863 1.00159 0.39632 0.0
H125 H 0.45641 1.00521 0.33863 0.0
N126 N 0.4781 0.9511 0.36037 0.0
N127 N 0.45709 0.92294 0.35291 0.0
C128 C 0.46385 0.94165 0.34655 0.0
C129 C 0.48026 0.938 0.37598 0.0
C130 C 0.46736 0.92059 0.37142 0.0
C131 C 0.5364 0.98806 0.38174 0.0
O132 O 0.53146 1.00648 0.37522 0.0
H133 H 0.45955 0.94794 0.33176 0.0
H134 H 0.49124 0.94064 0.38941 0.0
O135 O 0.50402 0.97772 0.3286 0.0
H136 H 0.44122 0.03687 0.36023 0.0
H137 H 0.46594 0.90713 0.38081 0.0
Cu138 Cu 0.29724 0.24409 0.62241 0.0
N139 N 0.27869 0.24996 0.59932 0.0
N140 N 0.26581 0.25455 0.56738 0.0
C141 C 0.28512 0.25009 0.57951 0.0
C142 C 0.24672 0.25751 0.58012 0.0
C143 C 0.25473 0.25469 0.59973 0.0
O144 O 0.3238 0.22512 0.61611 0.0
C145 C 0.27738 0.23486 0.66192 0.0
O146 O 0.29901 0.24007 0.66897 0.0
H147 H 0.30338 0.24656 0.57412 0.0
H148 H 0.24382 0.2559 0.61342 0.0
N149 N 0.31199 0.26811 0.63129 0.0
N150 N 0.3212 0.29621 0.64882 0.0
C151 C 0.30488 0.28096 0.64613 0.0
C152 C 0.33332 0.27554 0.62426 0.0
C153 C 0.33906 0.29284 0.635 0.0
C154 C 0.32304 0.21076 0.60313 0.0
O155 O 0.30222 0.20659 0.59402 0.0
H156 H 0.28817 0.27911 0.6548 0.0
H157 H 0.34419 0.26858 0.61238 0.0
O158 O 0.27397 0.23438 0.64278 0.0
H159 H 0.22829 0.26161 0.57563 0.0
H160 H 0.35549 0.30186 0.63315 0.0
Cu161 Cu 0.01666 0.03796 0.85528 0.0
N162 N 0.03271 0.01459 0.8647 0.0
N163 N 0.04371 0.98786 0.88372 0.0
C164 C 0.02749 1.0032 0.88124 0.0
C165 C 0.05972 0.98975 0.86815 0.0
C166 C 0.05292 1.00622 0.85652 0.0
O167 O 0.98986 0.04458 0.87362 0.0
C168 C 1.00419 0.01811 0.81768 0.0
O169 O 0.00647 1.00107 0.82792 0.0
H170 H 0.0125 1.00639 0.89153 0.0
H171 H 0.06209 0.01181 0.84304 0.0
N172 N 0.03873 0.05961 0.8561 0.0
N173 N 0.05996 0.08739 0.84734 0.0
C174 C 0.04293 0.07362 0.84154 0.0
C175 C 0.0535 0.06464 0.87165 0.0
C176 C 0.06661 0.08173 0.86631 0.0
C177 C 0.97244 0.03248 0.87794 0.0
O178 O 0.97101 0.01497 0.86843 0.0
H179 H 0.03381 0.07354 0.82693 0.0
H180 H 0.0545 0.05649 0.88592 0.0
O181 O 0.00651 0.03498 0.82696 0.0
H182 H 0.07516 0.97983 0.86526 0.0
H183 H 0.07971 0.08955 0.87587 0.0
Cu184 Cu 0.38963 0.23583 0.25095 0.0
N185 N 0.3864 0.25688 0.23208 0.0
N186 N 0.37354 0.28594 0.21795 0.0
C187 C 0.3715 0.2731 0.23392 0.0
C188 C 0.3904 0.27734 0.20558 0.0
C189 C 0.39834 0.25946 0.21437 0.0
O190 O 0.36262 0.23878 0.27005 0.0
C191 C 0.43392 0.2534 0.26596 0.0
O192 O 0.42344 0.27082 0.26151 0.0
H193 H 0.35921 0.27526 0.24665 0.0
H194 H 0.41194 0.24911 0.20837 0.0
N195 N 0.38699 0.21074 0.23786 0.0
N196 N 0.39703 0.18244 0.22099 0.0
C197 C 0.40414 0.20134 0.22647 0.0
C198 C 0.36839 0.19743 0.23952 0.0
C199 C 0.37454 0.17995 0.22917 0.0
C200 C 0.35835 0.22787 0.28564 0.0
O201 O 0.37399 0.2136 0.29083 0.0
H202 H 0.42182 0.20793 0.22293 0.0
H203 H 0.35175 0.20009 0.24808 0.0
O204 O 0.42189 0.237 0.26355 0.0
H205 H 0.39683 0.28363 0.19134 0.0
H206 H 0.36337 0.16643 0.22784 0.0
Cu207 Cu 0.04587 0.1432 0.49696 0.0
N208 N 0.02486 0.16296 0.5073 0.0
N209 N 0.00657 0.19274 0.51314 0.0
C210 C 0.02635 0.18328 0.50516 0.0
C211 C 0.99222 0.17781 0.52063 0.0
C212 C 1.00358 0.15946 0.51703 0.0
O213 O 0.06873 0.15672 0.47847 0.0
C214 C 0.02554 0.10474 0.48488 0.0
O215 O 0.04318 0.09645 0.49563 0.0
H216 H 0.04117 0.19089 0.49728 0.0
H217 H 0.99659 0.14455 0.5208 0.0
N218 N 0.06235 0.13116 0.51896 0.0
N219 N 0.07035 0.11343 0.54729 0.0
C220 C 0.05327 0.11846 0.53326 0.0
C221 C 0.0858 0.13447 0.52433 0.0
C222 C 0.0908 0.12356 0.54173 0.0
C223 C 0.08799 0.14875 0.47095 0.0
O224 O 0.09323 0.12973 0.47522 0.0
H225 H 0.03446 0.11324 0.53352 0.0
H226 H 0.09836 0.14428 0.51623 0.0
O227 O 0.0248 0.12394 0.48271 0.0
H228 H 0.97472 0.17998 0.52809 0.0
H229 H 0.10823 0.12296 0.54956 0.0
Cu230 Cu 0.12222 0.77597 0.75085 0.0
N231 N 0.12804 0.75563 0.73163 0.0
N232 N 0.14518 0.72865 0.71656 0.0
C233 C 0.14364 0.73987 0.73372 0.0
C234 C 0.12988 0.73773 0.7032 0.0
C235 C 0.1193 0.75433 0.71256 0.0
O236 O 0.14675 0.77215 0.77198 0.0
C237 C 0.07578 0.75866 0.76219 0.0
O238 O 0.08644 0.74103 0.7591 0.0
H239 H 0.15435 0.73717 0.7473 0.0
H240 H 0.10656 0.76498 0.70582 0.0
N241 N 0.12696 0.80138 0.73874 0.0
N242 N 0.11948 0.83047 0.7223 0.0
C243 C 0.11082 0.81189 0.72731 0.0
C244 C 0.14654 0.81364 0.74083 0.0
C245 C 0.14194 0.83163 0.73079 0.0
C246 C 0.15245 0.78467 0.78595 0.0
O247 O 0.13935 0.80124 0.7884 0.0
H248 H 0.09284 0.80625 0.72326 0.0
H249 H 0.16289 0.80988 0.74932 0.0
O250 O 0.08834 0.77488 0.76039 0.0
H251 H 0.1267 0.73283 0.68772 0.0
H252 H 0.15418 0.84454 0.72973 0.0
Cu253 Cu 0.46778 0.87147 1.00072 0.0
N254 N 0.48891 0.85002 1.00675 0.0
N255 N 0.50713 0.81973 0.00908 0.0
C256 C 0.48595 0.82972 1.00524 0.0
C257 C 0.52381 0.83423 0.01331 0.0
C258 C 0.51251 0.85283 0.01191 0.0
O259 O 0.43862 0.86232 0.98609 0.0
C260 C 0.4868 0.9099 0.98714 0.0
O261 O 0.4689 0.91816 0.99764 0.0
H262 H 0.469 0.82248 1.00069 0.0
H263 H 0.52104 0.86752 0.01398 0.0
N264 N 0.45743 0.88333 0.02515 0.0
N265 N 0.45509 0.90344 0.05256 0.0
C266 C 0.46932 0.89681 0.03704 0.0
C267 C 0.43514 0.8811 0.03358 0.0
C268 C 0.43362 0.89344 0.05043 0.0
C269 C 0.43831 0.85114 0.97029 0.0
O270 O 0.45915 0.8453 0.96215 0.0
H271 H 0.48778 0.90201 0.03402 0.0
H272 H 0.4207 0.87165 0.02746 0.0
O273 O 0.48777 0.89067 0.98532 0.0
H274 H 0.54287 0.83155 0.01704 0.0
H275 H 0.4175 0.89556 0.0598 0.0
Cu276 Cu 0.38391 0.7813 0.26212 0.0
N277 N 0.37614 0.75646 0.27432 0.0
N278 N 0.36044 0.72532 0.27853 0.0
C279 C 0.36266 0.7415 0.26598 0.0
C280 C 0.37301 0.73043 0.29547 0.0
C281 C 0.3827 0.74963 0.29281 0.0
O282 O 0.35833 0.78715 0.24245 0.0
C283 C 0.42919 0.76451 0.24799 0.0
O284 O 0.4183 0.74692 0.25068 0.0
H285 H 0.35443 0.7426 0.25106 0.0
H286 H 0.39384 0.75799 0.30353 0.0
N287 N 0.38242 0.80211 0.28134 0.0
N288 N 0.39314 0.82842 0.30085 0.0
C289 C 0.40115 0.8123 0.28999 0.0
C290 C 0.36197 0.81202 0.28704 0.0
C291 C 0.36852 0.82828 0.29905 0.0
C292 C 0.35651 0.78014 0.2245 0.0
O293 O 0.37419 0.76877 0.2171 0.0
H294 H 0.42027 0.8086 0.28754 0.0
H295 H 0.34365 0.80811 0.28214 0.0
O296 O 0.41709 0.78082 0.2509 0.0
H297 H 0.37537 0.72088 0.30873 0.0
H298 H 0.35618 0.83934 0.30567 0.0
Cu299 Cu 0.46377 0.14031 0.5138 0.0
N300 N 0.48349 0.16339 0.51131 0.0
N301 N 0.49615 0.19562 0.50852 0.0
C302 C 0.47681 0.18311 0.51168 0.0
C303 C 0.5156 0.18318 0.50595 0.0
C304 C 0.50773 0.16339 0.50763 0.0
O305 O 0.43589 0.1452 0.53187 0.0
C306 C 0.50167 0.1165 0.53378 0.0
O307 O 0.50472 0.13161 0.54656 0.0
H308 H 0.45815 0.18808 0.51421 0.0
H309 H 0.51883 0.14989 0.50589 0.0
N310 N 0.45133 0.13398 0.48818 0.0
N311 N 0.44341 0.11634 0.45985 0.0
C312 C 0.45487 0.11643 0.47807 0.0
C313 C 0.43718 0.14547 0.47602 0.0
C314 C 0.43222 0.13462 0.45853 0.0
C315 C 0.43627 0.1566 0.54752 0.0
O316 O 0.4572 0.16449 0.55345 0.0
H317 H 0.46538 0.10388 0.48414 0.0
H318 H 0.43098 0.16066 0.47961 0.0
O319 O 0.48438 0.11721 0.5208 0.0
H320 H 0.53412 0.18794 0.5025 0.0
H321 H 0.42151 0.13993 0.44574 0.0
Cu322 Cu 0.12654 0.23091 0.76089 0.0
N323 N 0.12997 0.25324 0.77814 0.0
N324 N 0.14047 0.28397 0.78992 0.0
C325 C 0.14019 0.27133 0.77367 0.0
C326 C 0.12992 0.27322 0.80513 0.0
C327 C 0.12347 0.25435 0.79782 0.0
O328 O 0.15136 0.2331 0.73968 0.0
C329 C 0.08104 0.24567 0.74588 0.0
O330 O 0.09244 0.26325 0.74567 0.0
H331 H 0.14723 0.27501 0.75875 0.0
H332 H 0.11501 0.24214 0.80631 0.0
N333 N 0.1333 0.20736 0.7757 0.0
N334 N 0.12985 0.17924 0.79463 0.0
C335 C 0.11773 0.19443 0.78505 0.0
C336 C 0.15588 0.2001 0.77939 0.0
C337 C 0.15385 0.18281 0.79103 0.0
C338 C 0.14996 0.22516 0.72209 0.0
O339 O 0.1298 0.21564 0.71675 0.0
H340 H 0.09802 0.19634 0.78511 0.0
H341 H 0.17268 0.20697 0.77397 0.0
O342 O 0.0929 0.22978 0.75096 0.0
H343 H 0.12756 0.27832 0.82064 0.0
H344 H 0.16892 0.17347 0.79625 0.0
Cu345 Cu 0.04744 0.86815 0.01449 0.0
N346 N 0.02976 0.84564 1.00564 0.0
N347 N 0.01723 0.81367 1.00094 0.0
C348 C 0.03486 0.82585 0.0087 0.0
C349 C 1.00051 0.82635 0.99268 0.0
C350 C 0.00831 0.84604 0.9956 0.0
O351 O 0.07432 0.85854 0.03156 0.0
C352 C 0.02482 0.90491 0.02888 0.0
O353 O 0.04349 0.91445 0.02065 0.0
H354 H 0.05086 0.82055 0.01685 0.0
H355 H 0.99893 0.85974 0.9909 0.0
N356 N 0.06129 0.88083 0.99164 0.0
N357 N 0.06962 0.90119 0.96514 0.0
C358 C 0.05322 0.8963 0.97986 0.0
C359 C 0.08312 0.87551 0.98384 0.0
C360 C 0.0883 0.88792 0.9676 0.0
C361 C 0.07325 0.85487 0.05056 0.0
O362 O 0.05278 0.85846 0.06045 0.0
H363 H 0.03598 0.90405 0.98231 0.0
H364 H 0.09457 0.86344 0.98971 0.0
O365 O 0.0242 0.8856 0.02872 0.0
H366 H 0.98392 0.82173 0.98493 0.0
H367 H 0.10464 0.88709 0.9583 0.0
Cu368 Cu 0.24387 0.40505 0.23173 0.0
N369 N 0.22189 0.39021 0.24762 0.0
N370 N 0.20815 0.36802 0.27079 0.0
C371 C 0.22797 0.37558 0.26105 0.0
C372 C 0.18884 0.37835 0.26312 0.0
C373 C 0.19738 0.39201 0.24882 0.0
O374 O 0.27416 0.38933 0.23288 0.0
C375 C 0.2572 0.44722 0.23665 0.0
O376 O 0.26547 0.44634 0.2179 0.0
H377 H 0.24668 0.37091 0.2639 0.0
H378 H 0.18654 0.40258 0.23999 0.0
N379 N 0.23149 0.40713 0.20509 0.0
N380 N 0.21482 0.41888 0.17619 0.0
C381 C 0.22195 0.42343 0.19539 0.0
C382 C 0.2298 0.39174 0.19171 0.0
C383 C 0.21975 0.39893 0.17389 0.0
C384 C 0.28786 0.38385 0.21819 0.0
O385 O 0.28366 0.39086 0.19982 0.0
H386 H 0.22031 0.4383 0.20225 0.0
H387 H 0.23542 0.37628 0.19478 0.0
O388 O 0.24787 0.43144 0.24475 0.0
H389 H 0.16986 0.3761 0.26738 0.0
H390 H 0.21586 0.39002 0.16045 0.0
Cu391 Cu 0.7411 0.10822 0.78261 0.0
N392 N 0.71575 0.12235 0.77 0.0
N393 N 0.69652 0.14302 0.74822 0.0
C394 C 0.71809 0.13451 0.75366 0.0
C395 C 0.67998 0.13582 0.76174 0.0
C396 C 0.69192 0.1231 0.77518 0.0
O397 O 0.76998 0.12523 0.77866 0.0
C398 C 0.75487 0.06628 0.77612 0.0
O399 O 0.76858 0.06806 0.79243 0.0
H400 H 0.73532 0.13688 0.74584 0.0
H401 H 0.68387 0.11509 0.78791 0.0
N402 N 0.73371 0.10562 0.81029 0.0
N403 N 0.71712 0.09492 0.83958 0.0
C404 C 0.71963 0.09142 0.81939 0.0
C405 C 0.74014 0.1186 0.82513 0.0
C406 C 0.73007 0.11202 0.84318 0.0
C407 C 0.78923 0.12533 0.78956 0.0
O408 O 0.79184 0.11157 0.80388 0.0
H409 H 0.7113 0.07889 0.8113 0.0
H410 H 0.75096 0.13219 0.82288 0.0
O411 O 0.74302 0.08165 0.76963 0.0
H412 H 0.66071 0.1397 0.76216 0.0
H413 H 0.73151 0.11967 0.8577 0.0
Cu414 Cu 0.14385 0.50214 0.02656 0.0
N415 N 0.13621 0.48185 0.00775 0.0
N416 N 0.12084 0.46752 0.97959 0.0
C417 C 0.12391 0.48489 0.99026 0.0
C418 C 0.13175 0.45297 0.99096 0.0
C419 C 0.1412 0.46186 0.00831 0.0
O420 O 0.11738 0.52185 0.02385 0.0
C421 C 0.18056 0.52014 1.00211 0.0
O422 O 0.16238 0.52207 0.98916 0.0
H423 H 0.11759 0.4997 0.98544 0.0
H424 H 0.15088 0.45429 0.02051 0.0
N425 N 0.14402 0.49154 0.05307 0.0
N426 N 0.15561 0.47633 0.08204 0.0
C427 C 0.16174 0.48079 0.06257 0.0
C428 C 0.12607 0.49379 0.06693 0.0
C429 C 0.13315 0.48451 0.08477 0.0
C430 C 0.11239 0.53705 0.03508 0.0
O431 O 0.12729 0.54199 0.04996 0.0
H432 H 0.17889 0.4766 0.05542 0.0
H433 H 0.10898 0.50168 0.06424 0.0
O434 O 0.17614 0.51285 0.01968 0.0
H435 H 0.13256 0.43698 0.98726 0.0
H436 H 0.12239 0.48357 0.09857 0.0
Cu437 Cu 0.77203 0.90847 0.28737 0.0
N438 N 0.79024 0.90006 0.26485 0.0
N439 N 0.80124 0.88197 0.2375 0.0
C440 C 0.78364 0.88552 0.25155 0.0
C441 C 0.81959 0.89494 0.24221 0.0
C442 C 0.81276 0.90603 0.2591 0.0
O443 O 0.74548 0.88888 0.2904 0.0
C444 C 0.7601 0.94598 0.26734 0.0
O445 O 0.7639 0.93582 0.25044 0.0
H446 H 0.76624 0.87768 0.25231 0.0
H447 H 0.82361 0.91736 0.26689 0.0
N448 N 0.79182 0.90697 0.3105 0.0
N449 N 0.81174 0.91522 0.33911 0.0
C450 C 0.79671 0.92177 0.32409 0.0
C451 C 0.80406 0.89053 0.31709 0.0
C452 C 0.81635 0.89554 0.33469 0.0
C453 C 0.72321 0.89178 0.28549 0.0
O454 O 0.71632 0.90976 0.27896 0.0
H455 H 0.78957 0.93705 0.32282 0.0
H456 H 0.80393 0.87588 0.30964 0.0
O457 O 0.76144 0.9367 0.28432 0.0
H458 H 0.83703 0.89597 0.23442 0.0
H459 H 0.82749 0.88531 0.34368 0.0
Cu460 Cu 0.87369 0.0086 0.03251 0.0
N461 N 0.87884 0.0251 0.00981 0.0
N462 N 0.89157 0.03334 0.97851 0.0
C463 C 0.88775 0.01822 0.99201 0.0
C464 C 0.88483 0.05051 0.98828 0.0
C465 C 0.87692 0.04535 0.00762 0.0
O466 O 0.8972 0.98672 0.02904 0.0
C467 C 0.82705 0.99556 0.01773 0.0
O468 O 0.83789 0.99521 0.99989 0.0
H469 H 0.89221 1.00242 0.98934 0.0
H470 H 0.87078 0.05566 0.01938 0.0
N471 N 0.88074 0.02269 0.05648 0.0
N472 N 0.87584 0.03813 0.08648 0.0
C473 C 0.86466 0.03127 0.06949 0.0
C474 C 0.90281 0.02436 0.06546 0.0
C475 C 0.89984 0.03381 0.084 0.0
C476 C 0.90612 0.97487 0.04241 0.0
O477 O 0.89711 0.97487 0.06094 0.0
H478 H 0.84506 0.0317 0.06693 0.0
H479 H 0.91975 0.01853 0.0592 0.0
O480 O 0.8396 0.99987 0.03347 0.0
H481 H 0.88574 0.06569 0.98201 0.0
H482 H 0.91416 0.03709 0.0949 0.0
Cu483 Cu 0.27301 0.60571 0.72985 0.0
N484 N 0.29348 0.61581 0.75015 0.0
N485 N 0.30974 0.6348 0.77485 0.0
C486 C 0.29036 0.6321 0.76232 0.0
C487 C 0.32546 0.6196 0.77039 0.0
C488 C 0.31537 0.60793 0.75521 0.0
O489 O 0.24393 0.62309 0.72974 0.0
C490 C 0.25749 0.56277 0.7292 0.0
O491 O 0.25275 0.56413 0.70968 0.0
H492 H 0.27449 0.64195 0.76171 0.0
H493 H 0.32345 0.59465 0.74821 0.0
N494 N 0.29115 0.60767 0.70555 0.0
N495 N 0.30893 0.60413 0.67496 0.0
C496 C 0.29279 0.59617 0.68851 0.0
C497 C 0.30689 0.62311 0.70261 0.0
C498 C 0.3178 0.62101 0.68396 0.0
C499 C 0.23797 0.63509 0.71535 0.0
O500 O 0.25068 0.63493 0.69838 0.0
H501 H 0.2823 0.5825 0.68592 0.0
H502 H 0.31022 0.63514 0.71346 0.0
O503 O 0.26544 0.57817 0.73884 0.0
H504 H 0.34295 0.61697 0.7777 0.0
H505 H 0.33157 0.63105 0.67766 0.0
Cu506 Cu 0.13482 0.50948 0.48304 0.0
N507 N 0.13151 0.52671 0.50545 0.0
N508 N 0.11942 0.53828 0.53591 0.0
C509 C 0.11926 0.52248 0.52274 0.0
C510 C 0.13241 0.55298 0.52638 0.0
C511 C 0.13981 0.5458 0.50763 0.0
O512 O 0.11026 0.48841 0.48677 0.0
C513 C 0.18089 0.49536 0.49736 0.0
O514 O 0.17015 0.49602 0.51524 0.0
H515 H 0.11048 0.50802 0.52553 0.0
H516 H 0.15019 0.554 0.49625 0.0
N517 N 0.12735 0.524 0.45939 0.0
N518 N 0.13008 0.54193 0.43055 0.0
C519 C 0.14251 0.53144 0.44494 0.0
C520 C 0.10469 0.52983 0.45388 0.0
C521 C 0.1063 0.54089 0.43617 0.0
C522 C 0.10398 0.47477 0.47411 0.0
O523 O 0.11622 0.47271 0.45702 0.0
H524 H 0.16224 0.52972 0.4453 0.0
H525 H 0.08818 0.52643 0.46234 0.0
O526 O 0.16842 0.49957 0.48153 0.0
H527 H 0.13587 0.56806 0.53224 0.0
H528 H 0.09111 0.54769 0.42805 0.0
Cu529 Cu 0.37333 0.50394 0.97976 0.0
N530 N 0.38563 0.48837 1.00117 0.0
N531 N 0.40234 0.48091 0.03137 0.0
C532 C 0.39592 0.49579 0.01822 0.0
C533 C 0.3958 0.46342 0.02208 0.0
C534 C 0.38545 0.46808 1.00349 0.0
O535 O 0.39775 0.52493 0.97467 0.0
C536 C 0.32413 0.52049 0.97738 0.0
O537 O 0.32834 0.52361 0.95795 0.0
H538 H 0.39876 0.51185 0.0208 0.0
H539 H 0.37808 0.45747 0.99253 0.0
N540 N 0.37131 0.48819 0.95607 0.0
N541 N 0.35793 0.47161 0.92847 0.0
C542 C 0.35162 0.48041 0.94635 0.0
C543 C 0.39061 0.48395 0.94406 0.0
C544 C 0.38247 0.47377 0.9271 0.0
C545 C 0.40027 0.54172 0.98399 0.0
O546 O 0.38373 0.5473 0.99741 0.0
H547 H 0.33302 0.48173 0.95193 0.0
H548 H 0.4093 0.48837 0.94729 0.0
O549 O 0.34119 0.51347 0.98856 0.0
H550 H 0.39788 0.44832 0.02838 0.0
H551 H 0.39378 0.46839 0.91469 0.0
Cu552 Cu 0.71823 0.74204 0.89788 0.0
N553 N 0.73715 0.7515 0.91944 0.0
N554 N 0.75404 0.75598 0.95006 0.0
C555 C 0.73668 0.74609 0.93921 0.0
C556 C 0.7657 0.76805 0.93655 0.0
C557 C 0.75526 0.76523 0.91773 0.0
O558 O 0.6907 0.72596 0.9083 0.0
C559 C 0.73699 0.72684 0.86034 0.0
O560 O 0.7153 0.73166 0.85312 0.0
H561 H 0.72417 0.73491 0.94538 0.0
H562 H 0.76053 0.77262 0.90369 0.0
N563 N 0.70532 0.76473 0.88459 0.0
N564 N 0.70129 0.79168 0.86405 0.0
C565 C 0.71614 0.77644 0.87035 0.0
C566 C 0.68301 0.77285 0.88756 0.0
C567 C 0.68045 0.78943 0.87496 0.0
C568 C 0.69139 0.7078 0.915 0.0
O569 O 0.71213 0.69768 0.91428 0.0
H570 H 0.73439 0.77361 0.86457 0.0
H571 H 0.66958 0.76712 0.89825 0.0
O572 O 0.74081 0.72836 0.87937 0.0
H573 H 0.78051 0.77841 0.94004 0.0
H574 H 0.66454 0.79922 0.87418 0.0
Cu575 Cu 0.52407 0.4729 0.15701 0.0
N576 N 0.54211 0.49502 0.14707 0.0
N577 N 0.5541 0.52111 0.12747 0.0
C578 C 0.53714 0.50641 0.13051 0.0
C579 C 0.57045 0.51866 0.14273 0.0
C580 C 0.56303 0.5026 0.15472 0.0
O581 O 0.49731 0.46743 0.13828 0.0
C582 C 0.51161 0.4944 0.19382 0.0
O583 O 0.51594 0.51106 0.18341 0.0
H584 H 0.52131 0.50399 0.12096 0.0
H585 H 0.57228 0.49675 0.16804 0.0
N586 N 0.54389 0.44974 0.15715 0.0
N587 N 0.56546 0.42303 0.1682 0.0
C588 C 0.55506 0.44099 0.17322 0.0
C589 C 0.54747 0.43698 0.14146 0.0
C590 C 0.56074 0.42048 0.14822 0.0
C591 C 0.48068 0.48014 0.13356 0.0
O592 O 0.47976 0.49768 0.14305 0.0
H593 H 0.55464 0.44723 0.18844 0.0
H594 H 0.54027 0.43926 0.1263 0.0
O595 O 0.5131 0.47724 0.18495 0.0
H596 H 0.58689 0.52757 0.14497 0.0
H597 H 0.56629 0.40753 0.13919 0.0
Cu598 Cu 0.80092 0.25761 0.39783 0.0
N599 N 0.7855 0.24429 0.41939 0.0
N600 N 0.772 0.23575 0.45031 0.0
C601 C 0.78349 0.25004 0.43901 0.0
C602 C 0.76656 0.22057 0.43729 0.0
C603 C 0.77486 0.2259 0.41826 0.0
O604 O 0.82716 0.27466 0.40858 0.0
C605 C 0.75429 0.27315 0.38549 0.0
O606 O 0.74692 0.26705 0.4035 0.0
H607 H 0.79088 0.26409 0.44496 0.0
H608 H 0.77352 0.2169 0.40455 0.0
N609 N 0.81506 0.2376 0.38149 0.0
N610 N 0.8195 0.21333 0.35787 0.0
C611 C 0.80476 0.22803 0.36551 0.0
C612 C 0.83701 0.22875 0.38413 0.0
C613 C 0.83983 0.21382 0.36963 0.0
C614 C 0.825 0.293 0.41447 0.0
O615 O 0.80371 0.30216 0.4127 0.0
H616 H 0.78671 0.23174 0.35981 0.0
H617 H 0.84981 0.23258 0.39608 0.0
O618 O 0.77696 0.27185 0.38092 0.0
H619 H 0.75728 0.20658 0.44126 0.0
H620 H 0.85539 0.20371 0.36836 0.0
Cu621 Cu 0.99096 0.52614 0.65844 0.0
N622 N 0.96545 0.51056 0.64787 0.0
N623 N 0.94656 0.48675 0.62933 0.0
C624 C 0.96817 0.49549 0.63421 0.0
C625 C 0.92958 0.49677 0.64046 0.0
C626 C 0.9413 0.51147 0.65186 0.0
O627 O 0.01684 0.52358 0.63818 0.0
C628 C 0.00645 0.52384 0.70043 0.0
O629 O 0.00858 0.5437 0.69963 0.0
H630 H 0.98579 0.49086 0.62824 0.0
H631 H 0.93285 0.52208 0.66229 0.0
N632 N 0.98076 0.5533 0.66089 0.0
N633 N 0.96278 0.58193 0.67184 0.0
C634 C 0.96611 0.56179 0.67511 0.0
C635 C 0.98652 0.56849 0.64805 0.0
C636 C 0.9756 0.58611 0.65477 0.0
C637 C 0.03594 0.53438 0.63562 0.0
O638 O 0.04104 0.54893 0.64862 0.0
H639 H 0.95832 0.55338 0.6877 0.0
H640 H 0.99771 0.56682 0.63458 0.0
O641 O 1.00013 0.51412 0.68452 0.0
H642 H 0.91005 0.49388 0.64023 0.0
H643 H 0.97664 0.60077 0.64738 0.0
Cu644 Cu 0.71235 0.26942 0.62075 0.0
N645 N 0.72976 0.25927 0.59847 0.0
N646 N 0.74397 0.25256 0.56729 0.0
C647 C 0.72873 0.26423 0.57857 0.0
C648 C 0.75493 0.23989 0.58062 0.0
C649 C 0.74613 0.24405 0.59976 0.0
O650 O 0.68459 0.28626 0.61241 0.0
C651 C 0.7569 0.28693 0.63593 0.0
O652 O 0.7643 0.28648 0.61692 0.0
H653 H 0.71669 0.27575 0.57242 0.0
H654 H 0.75121 0.23647 0.61374 0.0
N655 N 0.69933 0.24699 0.63427 0.0
N656 N 0.69464 0.22183 0.65683 0.0
C657 C 0.70806 0.2382 0.65128 0.0
C658 C 0.67977 0.23587 0.62877 0.0
C659 C 0.6768 0.22036 0.64265 0.0
C660 C 0.68508 0.3021 0.60127 0.0
O661 O 0.70627 0.30923 0.59499 0.0
H662 H 0.7239 0.24382 0.65942 0.0
H663 H 0.66865 0.23874 0.61546 0.0
O664 O 0.73482 0.28209 0.64009 0.0
H665 H 0.7685 0.2285 0.57684 0.0
H666 H 0.66289 0.20866 0.64204 0.0
Cu667 Cu 0.99331 0.47839 0.85655 0.0
N668 N 0.96817 0.49399 0.86774 0.0
N669 N 0.94964 0.51803 0.88625 0.0
C670 C 0.97121 0.50951 0.88083 0.0
C671 C 0.93238 0.50737 0.87609 0.0
C672 C 0.94387 0.49254 0.8647 0.0
O673 O 0.0199 0.48085 0.87619 0.0
C674 C 0.00845 0.4811 0.81445 0.0
O675 O 0.0119 0.46137 0.8153 0.0
H676 H 0.989 0.51461 0.88602 0.0
H677 H 0.93516 0.48147 0.85494 0.0
N678 N 0.9827 0.45133 0.85403 0.0
N679 N 0.96482 0.42289 0.84252 0.0
C680 C 0.96899 0.44291 0.83915 0.0
C681 C 0.98689 0.43625 0.8674 0.0
C682 C 0.97607 0.41873 0.86032 0.0
C683 C 0.03774 0.46887 0.87966 0.0
O684 O 0.04101 0.45287 0.86804 0.0
H685 H 0.96244 0.45125 0.82606 0.0
H686 H 0.99691 0.43793 0.88148 0.0
O687 O 1.00157 0.49059 0.83035 0.0
H688 H 0.9128 0.50989 0.877 0.0
H689 H 0.97604 0.40415 0.86794 0.0
Cu690 Cu 0.79855 0.75245 0.12197 0.0
N691 N 0.77566 0.753 0.10084 0.0
N692 N 0.75769 0.75189 0.07031 0.0
C693 C 0.77884 0.74953 0.08081 0.0
C694 C 0.74076 0.75725 0.08429 0.0
C695 C 0.75191 0.75804 0.10301 0.0
O696 O 0.82711 0.73565 0.11541 0.0
C697 C 0.76314 0.73371 0.1488 0.0
O698 O 0.75684 0.72205 0.13346 0.0
H699 H 0.79625 0.74535 0.0741 0.0
H700 H 0.74337 0.76224 0.11725 0.0
N701 N 0.8092 0.77901 0.12633 0.0
N702 N 0.81535 0.80857 0.14234 0.0
C703 C 0.80765 0.78913 0.14406 0.0
C704 C 0.81823 0.7924 0.11282 0.0
C705 C 0.82212 0.81065 0.12266 0.0
C706 C 0.82651 0.71892 0.10566 0.0
O707 O 0.80521 0.7112 0.10048 0.0
H708 H 0.80092 0.7823 0.15794 0.0
H709 H 0.82128 0.78922 0.09688 0.0
O710 O 0.78168 0.74533 0.14709 0.0
H711 H 0.72179 0.76091 0.08115 0.0
H712 H 0.82876 0.82449 0.11569 0.0
Cu713 Cu 0.51193 0.53756 0.3515 0.0
N714 N 0.53218 0.51688 0.36124 0.0
N715 N 0.54499 0.49126 0.38096 0.0
C716 C 0.52718 0.5051 0.37747 0.0
C717 C 0.56187 0.49455 0.36626 0.0
C718 C 0.55392 0.51039 0.35414 0.0
O719 O 0.48222 0.53547 0.36785 0.0
C720 C 0.50431 0.51719 0.31337 0.0
O721 O 0.50532 0.50036 0.32407 0.0
H722 H 0.51057 0.5065 0.38635 0.0
H723 H 0.56329 0.51673 0.34109 0.0
N724 N 0.52753 0.56264 0.35518 0.0
N725 N 0.54834 0.5911 0.34822 0.0
C726 C 0.54004 0.57318 0.34096 0.0
C727 C 0.52826 0.57417 0.37207 0.0
C728 C 0.54091 0.59182 0.36777 0.0
C729 C 0.46894 0.54989 0.37456 0.0
O730 O 0.47311 0.56857 0.36843 0.0
H731 H 0.54264 0.56795 0.32551 0.0
H732 H 0.52 0.57008 0.38646 0.0
O733 O 0.50588 0.53423 0.32245 0.0
H734 H 0.57891 0.48632 0.36451 0.0
H735 H 0.54464 0.6041 0.37827 0.0
Cu736 Cu 0.88371 0.72641 0.75709 0.0
N737 N 0.87566 0.74721 0.73882 0.0
N738 N 0.85777 0.77438 0.72467 0.0
C739 C 0.86068 0.76328 0.74183 0.0
C740 C 0.87152 0.76495 0.71044 0.0
C741 C 0.88254 0.74828 0.71921 0.0
O742 O 0.85884 0.72586 0.77845 0.0
C743 C 0.92998 0.74573 0.76565 0.0
O744 O 0.91934 0.76257 0.75956 0.0
H745 H 0.85142 0.76634 0.75607 0.0
H746 H 0.89437 0.7374 0.71173 0.0
N747 N 0.8827 0.70151 0.74339 0.0
N748 N 0.89486 0.67358 0.72672 0.0
C749 C 0.90157 0.69187 0.7343 0.0
C750 C 0.86338 0.68898 0.7415 0.0
C751 C 0.8708 0.67175 0.73124 0.0
C752 C 0.86273 0.72305 0.79732 0.0
O753 O 0.88535 0.72073 0.80378 0.0
H754 H 0.91997 0.69799 0.73369 0.0
H755 H 0.84523 0.69208 0.74736 0.0
O756 O 0.91738 0.72946 0.76682 0.0
H757 H 0.87331 0.76968 0.69474 0.0
H758 H 0.85928 0.65897 0.72728 0.0
Cu759 Cu 0.54828 0.64736 1.00379 0.0
N760 N 0.53535 0.67007 0.01687 0.0
N761 N 0.51991 0.70096 0.02268 0.0
C762 C 0.53307 0.68921 0.00982 0.0
C763 C 0.51382 0.68875 0.03839 0.0
C764 C 0.52337 0.66974 0.03475 0.0
O765 O 0.57087 0.65652 0.98238 0.0
C766 C 0.51848 0.61358 0.98997 0.0
O767 O 0.53865 0.60269 0.98955 0.0
H768 H 0.54004 0.69419 0.99522 0.0
H769 H 0.52115 0.65639 0.04418 0.0
N770 N 0.56547 0.63226 0.02328 0.0
N771 N 0.5746 0.61161 0.04925 0.0
C772 C 0.55715 0.61761 0.0359 0.0
C773 C 0.58885 0.63558 0.02881 0.0
C774 C 0.59455 0.62288 0.04474 0.0
C775 C 0.58779 0.64513 0.97536 0.0
O776 O 0.58869 0.62608 0.9813 0.0
H777 H 0.53848 0.61205 0.03583 0.0
H778 H 0.60076 0.64682 0.02197 0.0
O779 O 0.51967 0.63238 0.99435 0.0
H780 H 0.50311 0.69323 0.05151 0.0
H781 H 0.61201 0.62212 0.05252 0.0
Cu782 Cu 0.62647 0.28311 0.26744 0.0
N783 N 0.63533 0.25951 0.25346 0.0
N784 N 0.6516 0.22894 0.24692 0.0
C785 C 0.64935 0.24422 0.26057 0.0
C786 C 0.63841 0.235 0.23061 0.0
C787 C 0.6284 0.25381 0.2347 0.0
O788 O 0.64729 0.2852 0.29138 0.0
C789 C 0.57896 0.26651 0.27591 0.0
O790 O 0.59005 0.2488 0.27544 0.0
H791 H 0.65779 0.24442 0.27545 0.0
H792 H 0.61663 0.26263 0.22482 0.0
N793 N 0.63193 0.30598 0.25121 0.0
N794 N 0.62463 0.33263 0.23099 0.0
C795 C 0.61605 0.31475 0.23818 0.0
C796 C 0.65123 0.31865 0.25221 0.0
C797 C 0.64678 0.33513 0.23977 0.0
C798 C 0.64059 0.28066 0.30934 0.0
O799 O 0.61793 0.27474 0.31256 0.0
H800 H 0.5981 0.30861 0.2348 0.0
H801 H 0.66705 0.3164 0.26186 0.0
O802 O 0.59156 0.28265 0.27376 0.0
H803 H 0.63572 0.22633 0.21682 0.0
H804 H 0.65875 0.34806 0.23756 0.0
Cu805 Cu 0.9651 0.36418 0.49815 0.0
N806 N 0.98277 0.34318 0.51022 0.0
N807 N 0.99911 0.31277 0.51682 0.0
C808 C 0.98186 0.3231 0.50629 0.0
C809 C 0.01119 0.32689 0.52781 0.0
C810 C 1.00105 0.3456 0.52372 0.0
O811 O 0.9408 0.35255 0.47968 0.0
C812 C 0.98841 0.40049 0.4838 0.0
O813 O 0.96892 0.40988 0.49082 0.0
H814 H 0.96944 0.31633 0.4954 0.0
H815 H 0.00692 0.36007 0.52979 0.0
N816 N 0.94969 0.37901 0.51887 0.0
N817 N 0.94366 0.40142 0.54403 0.0
C818 C 0.96021 0.39254 0.53154 0.0
C819 C 0.92576 0.37897 0.52378 0.0
C820 C 0.92196 0.39278 0.53922 0.0
C821 C 0.92379 0.36305 0.47158 0.0
O822 O 0.9231 0.38271 0.47494 0.0
H823 H 0.97961 0.39597 0.5313 0.0
H824 H 0.91193 0.36984 0.51635 0.0
O825 O 0.98927 0.38116 0.48425 0.0
H826 H 0.02635 0.3239 0.53799 0.0
H827 H 0.90441 0.39662 0.54586 0.0
Cu828 Cu 0.89 0.28102 0.75089 0.0
N829 N 0.88047 0.25856 0.7665 0.0
N830 N 0.86281 0.22913 0.77541 0.0
C831 C 0.86547 0.24336 0.7607 0.0
C832 C 0.87672 0.23576 0.79106 0.0
C833 C 0.88755 0.25389 0.78552 0.0
O834 O 0.86713 0.28342 0.72824 0.0
C835 C 0.93585 0.26144 0.74183 0.0
O836 O 0.92422 0.24442 0.74581 0.0
H837 H 0.85703 0.24263 0.74583 0.0
H838 H 0.89979 0.26302 0.79467 0.0
N839 N 0.88811 0.30477 0.76647 0.0
N840 N 0.89928 0.33201 0.78465 0.0
C841 C 0.90654 0.31416 0.77639 0.0
C842 C 0.86853 0.31701 0.76856 0.0
C843 C 0.87534 0.3338 0.77976 0.0
C844 C 0.8726 0.29036 0.71076 0.0
O845 O 0.89526 0.29606 0.70709 0.0
H846 H 0.92508 0.30832 0.77695 0.0
H847 H 0.85067 0.31409 0.76205 0.0
O848 O 0.92409 0.27817 0.74225 0.0
H849 H 0.87867 0.22825 0.80561 0.0
H850 H 0.86355 0.34634 0.78396 0.0
Cu851 Cu 0.96379 0.64038 0.01852 0.0
N852 N 0.97919 0.66335 0.00786 0.0
N853 N 0.99046 0.69538 1.00151 0.0
C854 C 0.97342 0.68314 0.01008 0.0
C855 C 0.00737 0.68276 0.99344 0.0
C856 C 1.00035 0.66306 0.99737 0.0
O857 O 0.93687 0.64825 0.03659 0.0
C858 C 0.99059 0.60507 0.031 0.0
O859 O 0.97188 0.59485 0.02372 0.0
H860 H 0.95753 0.68847 0.01838 0.0
H861 H 0.01023 0.64942 0.99327 0.0
N862 N 0.95029 0.62561 0.99692 0.0
N863 N 0.94569 0.60375 0.97109 0.0
C864 C 0.96174 0.61328 0.98356 0.0
C865 C 0.92629 0.62409 0.9926 0.0
C866 C 0.92337 0.61066 0.97673 0.0
C867 C 0.93813 0.66112 0.05104 0.0
O868 O 0.95944 0.66918 0.05565 0.0
H869 H 0.98139 0.611 0.98339 0.0
H870 H 0.91184 0.63174 1.00087 0.0
O871 O 0.98956 0.62439 0.03166 0.0
H872 H 0.02372 0.68741 0.98535 0.0
H873 H 0.90602 0.60573 0.97047 0.0
Cu874 Cu 0.62052 0.73534 0.26162 0.0
N875 N 0.62795 0.7597 0.27524 0.0
N876 N 0.64603 0.78884 0.28449 0.0
C877 C 0.64872 0.77087 0.27474 0.0
C878 C 0.6229 0.78872 0.29179 0.0
C879 C 0.6119 0.77074 0.28617 0.0
O880 O 0.6426 0.73036 0.23874 0.0
C881 C 0.57469 0.75104 0.24651 0.0
O882 O 0.58641 0.76829 0.24394 0.0
H883 H 0.66511 0.76635 0.26664 0.0
H884 H 0.59316 0.76631 0.28922 0.0
N885 N 0.62386 0.71332 0.27937 0.0
N886 N 0.6141 0.68625 0.2983 0.0
C887 C 0.60588 0.70354 0.28953 0.0
C888 C 0.6441 0.70191 0.28192 0.0
C889 C 0.63813 0.68519 0.29356 0.0
C890 C 0.65206 0.74402 0.22749 0.0
O891 O 0.64596 0.76313 0.23014 0.0
H892 H 0.58692 0.70839 0.28953 0.0
H893 H 0.6617 0.7051 0.27504 0.0
O894 O 0.58634 0.73556 0.25299 0.0
H895 H 0.61439 0.80089 0.3003 0.0
H896 H 0.65038 0.67297 0.29785 0.0
Cu897 Cu 0.54461 0.37153 0.51088 0.0
N898 N 0.52962 0.34719 0.50323 0.0
N899 N 0.51909 0.31442 0.50063 0.0
C900 C 0.53511 0.32795 0.50861 0.0
C901 C 0.50314 0.32568 0.48968 0.0
C902 C 0.50968 0.3458 0.49133 0.0
O903 O 0.57178 0.36616 0.52954 0.0
C904 C 0.51828 0.40812 0.52137 0.0
O905 O 0.53748 0.41797 0.51441 0.0
H906 H 0.55024 0.324 0.51846 0.0
H907 H 0.50043 0.35863 0.48446 0.0
N908 N 0.55845 0.38307 0.48752 0.0
N909 N 0.56537 0.40096 0.45913 0.0
C910 C 0.54915 0.39657 0.4741 0.0
C911 C 0.58111 0.37876 0.48075 0.0
C912 C 0.58545 0.38973 0.46331 0.0
C913 C 0.57108 0.35528 0.54556 0.0
O914 O 0.54997 0.34789 0.55174 0.0
H915 H 0.53089 0.40289 0.4752 0.0
H916 H 0.59368 0.3684 0.48812 0.0
O917 O 0.51875 0.38879 0.52208 0.0
H918 H 0.48789 0.31984 0.48095 0.0
H919 H 0.6023 0.38974 0.45461 0.0
Cu920 Cu 0.74434 0.90747 0.73676 0.0
N921 N 0.72354 0.8991 0.75774 0.0
N922 N 0.70637 0.88029 0.78225 0.0
C923 C 0.72553 0.88228 0.76934 0.0
C924 C 0.69189 0.89653 0.77861 0.0
C925 C 0.7025 0.90806 0.76351 0.0
O926 O 0.77151 0.88793 0.7363 0.0
C927 C 0.74173 0.95034 0.74093 0.0
O928 O 0.71966 0.94768 0.73343 0.0
H929 H 0.74034 0.87142 0.76789 0.0
H930 H 0.69515 0.92183 0.75696 0.0
N931 N 0.7259 0.90704 0.71259 0.0
N932 N 0.70686 0.91576 0.68366 0.0
C933 C 0.72518 0.92024 0.69683 0.0
C934 C 0.7077 0.89373 0.70909 0.0
C935 C 0.69604 0.89897 0.69133 0.0
C936 C 0.77302 0.8732 0.72377 0.0
O937 O 0.75691 0.87179 0.70902 0.0
H938 H 0.73698 0.93341 0.69558 0.0
H939 H 0.70283 0.88135 0.71913 0.0
O940 O 0.75571 0.93496 0.74316 0.0
H941 H 0.67481 0.89986 0.7863 0.0
H942 H 0.68052 0.89115 0.68473 0.0
Cu943 Cu 0.23537 0.60208 0.28298 0.0
N944 N 0.21657 0.61474 0.26287 0.0
N945 N 0.20382 0.63661 0.23897 0.0
C946 C 0.219 0.63356 0.25498 0.0
C947 C 0.19127 0.61902 0.23698 0.0
C948 C 0.19916 0.60564 0.25168 0.0
O949 O 0.26379 0.61909 0.28836 0.0
C950 C 0.25258 0.56015 0.28157 0.0
O951 O 0.25699 0.56137 0.30116 0.0
H952 H 0.23198 0.6446 0.26064 0.0
H953 H 0.19329 0.59006 0.25363 0.0
N954 N 0.21665 0.6008 0.3069 0.0
N955 N 0.19683 0.59119 0.3352 0.0
C956 C 0.20973 0.58497 0.31871 0.0
C957 C 0.20779 0.61742 0.31621 0.0
C958 C 0.19561 0.6116 0.33357 0.0
C959 C 0.27766 0.6258 0.27431 0.0
O960 O 0.2742 0.61955 0.25556 0.0
H961 H 0.21382 0.56928 0.31526 0.0
H962 H 0.21035 0.6328 0.31081 0.0
O963 O 0.2442 0.57552 0.27209 0.0
H964 H 0.17806 0.61563 0.2252 0.0
H965 H 0.18706 0.62172 0.34443 0.0
Cu966 Cu 0.64174 1.0033 0.53926 0.0
N967 N 0.63277 0.99208 0.51408 0.0
N968 N 0.61543 0.98741 0.48356 0.0
C969 C 0.61521 0.99826 0.50102 0.0
C970 C 0.63353 0.97363 0.48592 0.0
C971 C 0.64414 0.97654 0.50472 0.0
O972 O 0.62014 0.02599 0.54601 0.0
C973 C 0.6868 0.0164 0.5218 0.0
O974 O 0.67394 0.01774 0.50497 0.0
H975 H 0.60257 0.0105 0.50419 0.0
H976 H 0.6596 0.96832 0.51092 0.0
N977 N 0.63796 0.98313 0.55908 0.0
N978 N 0.64211 0.9636 0.58678 0.0
C979 C 0.65091 0.97974 0.57627 0.0
C980 C 0.62063 0.96864 0.55864 0.0
C981 C 0.62312 0.95661 0.57561 0.0
C982 C 0.6161 0.04056 0.53373 0.0
O983 O 0.62797 0.04126 0.51636 0.0
H984 H 0.66614 0.9891 0.58112 0.0
H985 H 0.60711 0.96697 0.54673 0.0
O986 O 0.67612 0.01132 0.53828 0.0
H987 H 0.63935 0.96273 0.47459 0.0
H988 H 0.61189 0.94357 0.57932 0.0
Cu989 Cu 0.26477 0.40728 0.77808 0.0
N990 N 0.28947 0.39439 0.76336 0.0
N991 N 0.30596 0.37259 0.74116 0.0
C992 C 0.28643 0.37697 0.75296 0.0
C993 C 0.32204 0.38786 0.74436 0.0
C994 C 0.3118 0.40131 0.7581 0.0
O995 O 0.2369 0.38917 0.77482 0.0
C996 C 0.25223 0.44972 0.77405 0.0
O997 O 0.24757 0.44934 0.79365 0.0
H998 H 0.26957 0.36831 0.7531 0.0
H999 H 0.31958 0.41553 0.76319 0.0
N1000 N 0.27399 0.40945 0.80553 0.0
N1001 N 0.29066 0.42022 0.83476 0.0
C1002 C 0.28792 0.42378 0.8146 0.0
C1003 C 0.26816 0.39623 0.82038 0.0
C1004 C 0.27823 0.40287 0.83839 0.0
C1005 C 0.21846 0.3862 0.78628 0.0
O1006 O 0.21511 0.39773 0.80234 0.0
H1007 H 0.29573 0.43661 0.80658 0.0
H1008 H 0.25755 0.38253 0.81822 0.0
O1009 O 0.25901 0.43351 0.76514 0.0
H1010 H 0.33964 0.38948 0.73693 0.0
H1011 H 0.27703 0.3952 0.85292 0.0
Cu1012 Cu 0.36955 0.51626 0.52517 0.0
N1013 N 0.37119 0.53309 0.50228 0.0
N1014 N 0.38327 0.5467 0.47272 0.0
C1015 C 0.38677 0.53163 0.48642 0.0
C1016 C 0.36474 0.558 0.48032 0.0
C1017 C 0.35733 0.54956 0.49851 0.0
O1018 O 0.39838 0.49875 0.52439 0.0
C1019 C 0.32621 0.49832 0.50909 0.0
O1020 O 0.33673 0.50156 0.4914 0.0
H1021 H 0.40073 0.52001 0.48521 0.0
H1022 H 0.34294 0.55508 0.50839 0.0
N1023 N 0.3709 0.53288 0.54821 0.0
N1024 N 0.36086 0.54931 0.57682 0.0
C1025 C 0.35525 0.53382 0.56413 0.0
C1026 C 0.38692 0.54813 0.55102 0.0
C1027 C 0.38079 0.55829 0.5686 0.0
C1028 C 0.40052 0.4806 0.53084 0.0
O1029 O 0.38154 0.47151 0.53912 0.0
H1030 H 0.33957 0.52391 0.56594 0.0
H1031 H 0.40165 0.55192 0.54067 0.0
O1032 O 0.3381 0.5022 0.5253 0.0
H1033 H 0.35697 0.57137 0.47321 0.0
H1034 H 0.39015 0.57141 0.57478 0.0
Cu1035 Cu 0.77247 0.10359 0.22639 0.0
N1036 N 0.79426 0.11147 0.2469 0.0
N1037 N 0.81263 0.12922 0.27158 0.0
C1038 C 0.79408 0.12871 0.25798 0.0
C1039 C 0.82505 0.11169 0.26879 0.0
C1040 C 0.81369 0.10081 0.25358 0.0
O1041 O 0.74425 0.12175 0.22603 0.0
C1042 C 0.7609 0.06582 0.2462 0.0
O1043 O 0.76257 0.07621 0.26319 0.0
H1044 H 0.78081 0.14076 0.25595 0.0
H1045 H 0.81906 0.08605 0.24787 0.0
N1046 N 0.78778 0.10682 0.20118 0.0
N1047 N 0.80443 0.10042 0.17078 0.0
C1048 C 0.79799 0.0926 0.18904 0.0
C1049 C 0.78801 0.12413 0.19029 0.0
C1050 C 0.79819 0.12023 0.17153 0.0
C1051 C 0.73244 0.12811 0.24148 0.0
O1052 O 0.7376 0.12077 0.25955 0.0
H1053 H 0.7996 0.07672 0.19313 0.0
H1054 H 0.78049 0.13844 0.19544 0.0
O1055 O 0.76362 0.075 0.22927 0.0
H1056 H 0.84094 0.10689 0.2774 0.0
H1057 H 0.8005 0.13104 0.15926 0.0
Cu1058 Cu 0.63759 0.01503 0.98665 0.0
N1059 N 0.63399 0.03405 0.00749 0.0
N1060 N 0.62091 0.0483 0.03643 0.0
C1061 C 0.61908 0.03224 0.02372 0.0
C1062 C 0.63766 0.0607 0.02773 0.0
C1063 C 0.64572 0.05185 0.0099 0.0
O1064 O 0.61029 0.99623 0.98944 0.0
C1065 C 0.68176 1.00066 1.00511 0.0
O1066 O 0.67132 1.00602 0.02229 0.0
H1067 H 0.60697 0.01942 0.026 0.0
H1068 H 0.6593 0.05785 0.99952 0.0
N1069 N 0.63621 0.02814 0.96147 0.0
N1070 N 0.64841 0.04396 0.93306 0.0
C1071 C 0.65518 0.03659 0.95143 0.0
C1072 C 0.61672 0.03025 0.94913 0.0
C1073 C 0.62418 0.03998 0.93159 0.0
C1074 C 0.60366 0.98258 0.9769 0.0
O1075 O 0.61686 0.97925 0.96052 0.0
H1076 H 0.67369 0.03688 0.95733 0.0
H1077 H 0.59843 0.0249 0.95258 0.0
O1078 O 0.66969 1.00219 0.9886 0.0
H1079 H 0.64397 0.075 0.03392 0.0
H1080 H 0.6126 0.04396 0.91883 0.0
Cu1081 Cu 0.87561 1.00004 0.48427 0.0
N1082 N 0.88138 0.98509 0.50788 0.0
N1083 N 0.89462 0.97873 0.53942 0.0
C1084 C 0.89151 0.99288 0.52481 0.0
C1085 C 0.88623 0.96122 0.53128 0.0
C1086 C 0.87799 0.96522 0.51179 0.0
O1087 O 0.89866 0.0224 0.48626 0.0
C1088 C 0.83076 0.01458 0.50001 0.0
O1089 O 0.84355 0.01636 0.51682 0.0
H1090 H 0.89707 0.0086 0.52614 0.0
H1091 H 0.8704 0.9544 0.50114 0.0
N1092 N 0.88292 0.98415 0.46151 0.0
N1093 N 0.87984 0.96499 0.43351 0.0
C1094 C 0.86759 0.97604 0.4476 0.0
C1095 C 0.90551 0.97813 0.45603 0.0
C1096 C 0.90371 0.96635 0.43882 0.0
C1097 C 0.90932 0.03203 0.47199 0.0
O1098 O 0.90275 0.02897 0.45303 0.0
H1099 H 0.84788 0.97788 0.44806 0.0
H1100 H 0.92214 0.98205 0.46408 0.0
O1101 O 0.84147 0.00864 0.48385 0.0
H1102 H 0.88607 0.94661 0.53883 0.0
H1103 H 0.91888 0.95947 0.43075 0.0
H1104 H 0.22703 0.24715 0.54319 0.0
H1105 H 0.30334 0.26423 0.54207 0.0
H1106 H 0.3019 0.26695 0.50498 0.0
H1107 H 0.27864 0.26494 0.47291 0.0
H1108 H 0.20216 0.2483 0.47446 0.0
H1109 H 0.20395 0.24503 0.51137 0.0
C1110 C 0.24331 0.25166 0.53489 0.0
C1111 C 0.26522 0.25563 0.54546 0.0
C1112 C 0.2423 0.25327 0.51363 0.0
C1113 C 0.28629 0.26095 0.53435 0.0
C1114 C 0.28543 0.26263 0.51314 0.0
C1115 C 0.26232 0.26077 0.48134 0.0
C1116 C 0.24027 0.25692 0.47088 0.0
C1117 C 0.26348 0.25893 0.50262 0.0
C1118 C 0.21942 0.25115 0.48205 0.0
C1119 C 0.22039 0.24937 0.50319 0.0
H1120 H 1.00419 0.03113 0.72234 0.0
H1121 H 0.00668 0.96558 0.72366 0.0
H1122 H 1.00365 0.96601 0.76066 0.0
H1123 H 1.00266 0.98493 0.79284 0.0
H1124 H 1.00086 0.05049 0.79166 0.0
H1125 H 1.00105 0.05004 0.75454 0.0
C1126 C 1.00388 0.01692 0.73069 0.0
C1127 C 1.0058 0.99836 0.72013 0.0
C1128 C 1.00232 0.01725 0.75207 0.0
C1129 C 1.00531 0.98012 0.73129 0.0
C1130 C 1.0036 0.98033 0.75251 0.0
C1131 C 1.00206 0.99914 0.7845 0.0
C1132 C 1.00184 0.01772 0.79513 0.0
C1133 C 1.00244 0.9988 0.76309 0.0
C1134 C 1.00107 0.03595 0.78396 0.0
C1135 C 1.00124 0.03572 0.76268 0.0
H1136 H 0.22127 0.76111 0.97058 0.0
H1137 H 0.29685 0.74215 0.9731 0.0
H1138 H 0.29353 0.7374 0.00995 0.0
H1139 H 0.26882 0.73843 0.04141 0.0
H1140 H 0.19342 0.75786 0.03857 0.0
H1141 H 0.19686 0.76249 1.0018 0.0
C1142 C 0.23696 0.75576 0.97916 0.0
C1143 C 0.25923 0.75182 0.9691 0.0
C1144 C 0.2349 0.75313 1.00025 0.0
C1145 C 0.27957 0.74539 0.98051 0.0
C1146 C 0.27762 0.74257 1.00154 0.0
C1147 C 0.25312 0.74349 0.03268 0.0
C1148 C 0.23085 0.74771 0.04265 0.0
C1149 C 0.25533 0.74631 0.01156 0.0
C1150 C 0.21077 0.75465 0.03124 0.0
C1151 C 0.21272 0.75724 0.01023 0.0
H1152 H 0.51629 0.02714 0.29479 0.0
H1153 H 0.50705 0.96201 0.29336 0.0
H1154 H 0.50737 0.96261 0.25628 0.0
H1155 H 0.50806 0.98172 0.22419 0.0
H1156 H 0.51654 0.0469 0.22549 0.0
H1157 H 0.51889 0.04611 0.26257 0.0
C1158 C 0.51456 0.01305 0.28639 0.0
C1159 C 0.51155 0.99458 0.29695 0.0
C1160 C 0.51453 0.01349 0.26497 0.0
C1161 C 0.50933 0.97648 0.28572 0.0
C1162 C 0.50947 0.97679 0.26446 0.0
C1163 C 0.51062 0.99576 0.23254 0.0
C1164 C 0.51202 0.01435 0.22198 0.0
C1165 C 0.51172 0.99523 0.25392 0.0
C1166 C 0.51537 0.03236 0.23315 0.0
C1167 C 0.51666 0.03194 0.2544 0.0
H1168 H 0.54648 0.23512 0.27903 0.0
H1169 H 0.55014 0.3005 0.27455 0.0
H1170 H 0.50553 0.30228 0.27259 0.0
H1171 H 0.46564 0.2852 0.26971 0.0
H1172 H 0.462 0.2198 0.27364 0.0
H1173 H 0.50632 0.21819 0.27842 0.0
C1174 C 0.53754 0.24979 0.27782 0.0
C1175 C 0.55176 0.26763 0.2768 0.0
C1176 C 0.51182 0.25072 0.27651 0.0
C1177 C 0.53975 0.28649 0.27532 0.0
C1178 C 0.51419 0.28754 0.27414 0.0
C1179 C 0.47446 0.27059 0.27183 0.0
C1180 C 0.46042 0.25265 0.27117 0.0
C1181 C 0.50006 0.26974 0.27436 0.0
C1182 C 0.47227 0.23387 0.27401 0.0
C1183 C 0.49768 0.23292 0.27669 0.0
H1184 H 0.96669 0.28233 0.51206 0.0
H1185 H 0.04363 0.29508 0.51963 0.0
H1186 H 0.05294 0.25878 0.51872 0.0
H1187 H 0.0391 0.22329 0.51625 0.0
H1188 H 0.96206 0.21042 0.5097 0.0
H1189 H 0.95283 0.24676 0.50973 0.0
C1190 C 0.98548 0.27711 0.51335 0.0
C1191 C 1.00443 0.29135 0.51592 0.0
C1192 C 0.99065 0.25619 0.51307 0.0
C1193 C 0.0287 0.28441 0.51786 0.0
C1194 C 0.03404 0.26366 0.51725 0.0
C1195 C 0.02034 0.22849 0.51468 0.0
C1196 C 1.00131 0.2142 0.51297 0.0
C1197 C 0.01516 0.2494 0.51494 0.0
C1198 C 0.977 0.22112 0.51125 0.0
C1199 C 0.97173 0.24189 0.51117 0.0
H1200 H 0.04374 0.72736 0.76858 0.0
H1201 H 0.04693 0.79265 0.76294 0.0
H1202 H 1.00231 0.79452 0.76482 0.0
H1203 H 0.96216 0.77752 0.76573 0.0
H1204 H 0.95891 0.71224 0.7715 0.0
H1205 H 1.00361 0.71057 0.77209 0.0
C1206 C 0.03471 0.74203 0.76794 0.0
C1207 C 0.04879 0.75981 0.76546 0.0
C1208 C 0.00893 0.74303 0.76899 0.0
C1209 C 0.03668 0.77868 0.76481 0.0
C1210 C 0.01109 0.77978 0.76583 0.0
C1211 C 0.97119 0.76293 0.76733 0.0
C1212 C 0.95706 0.74504 0.76843 0.0
C1213 C 0.997 0.76203 0.76757 0.0
C1214 C 0.9692 0.72629 0.77061 0.0
C1215 C 0.99483 0.72529 0.77087 0.0
H1216 H 0.47746 0.78977 0.02214 0.0
H1217 H 0.54752 0.8015 0.99426 0.0
H1218 H 0.55727 0.76527 0.99496 0.0
H1219 H 0.54676 0.73039 1.00515 0.0
H1220 H 0.47757 0.7187 0.03453 0.0
H1221 H 0.46652 0.75459 0.03166 0.0
C1222 C 0.49468 0.78428 0.01601 0.0
C1223 C 0.51177 0.79822 0.00821 0.0
C1224 C 0.50039 0.76344 0.01689 0.0
C1225 C 0.5342 0.79102 1.00052 0.0
C1226 C 0.53976 0.77033 1.00089 0.0
C1227 C 0.52918 0.7357 0.01069 0.0
C1228 C 0.51306 0.72195 0.02009 0.0
C1229 C 0.52315 0.75642 0.00929 0.0
C1230 C 0.49042 0.72906 0.02747 0.0
C1231 C 0.48406 0.74956 0.02575 0.0
H1232 H 0.54273 0.78249 0.24071 0.0
H1233 H 0.54566 0.71726 0.24719 0.0
H1234 H 0.501 0.71561 0.24653 0.0
H1235 H 0.46112 0.73276 0.24653 0.0
H1236 H 0.45789 0.79809 0.2414 0.0
H1237 H 0.50256 0.79956 0.23893 0.0
C1238 C 0.53363 0.76789 0.24174 0.0
C1239 C 0.54763 0.75004 0.24408 0.0
C1240 C 0.50782 0.76705 0.24169 0.0
C1241 C 0.53543 0.73126 0.24546 0.0
C1242 C 0.50984 0.73029 0.24511 0.0
C1243 C 0.47011 0.74733 0.24464 0.0
C1244 C 0.45607 0.76529 0.24424 0.0
C1245 C 0.49585 0.74811 0.24359 0.0
C1246 C 0.46816 0.78401 0.2418 0.0
C1247 C 0.49376 0.78488 0.24044 0.0
H1248 H 0.47991 0.28947 0.49728 0.0
H1249 H 0.55741 0.29 0.5105 0.0
H1250 H 0.55687 0.25322 0.51494 0.0
H1251 H 0.53463 0.22085 0.51444 0.0
H1252 H 0.45751 0.22019 0.49973 0.0
H1253 H 0.45772 0.25708 0.4966 0.0
C1254 C 0.49677 0.28158 0.50092 0.0
C1255 C 0.5187 0.29263 0.50344 0.0
C1256 C 0.4964 0.26036 0.50325 0.0
C1257 C 0.54021 0.28204 0.50864 0.0
C1258 C 0.53995 0.26094 0.51107 0.0
C1259 C 0.51788 0.22868 0.51037 0.0
C1260 C 0.49611 0.21757 0.50725 0.0
C1261 C 0.51818 0.24994 0.50831 0.0
C1262 C 0.4745 0.2282 0.50244 0.0
C1263 C 0.47463 0.24936 0.5005 0.0
H1264 H 0.96698 0.22899 0.74336 0.0
H1265 H 0.96581 0.294 0.73461 0.0
H1266 H 0.01053 0.2946 0.73367 0.0
H1267 H 0.05001 0.27709 0.73765 0.0
H1268 H 0.05126 0.21219 0.74713 0.0
H1269 H 0.00656 0.21117 0.7453 0.0
C1270 C 0.97646 0.24328 0.74104 0.0
C1271 C 0.96293 0.26143 0.73918 0.0
C1272 C 1.00227 0.24357 0.74074 0.0
C1273 C 0.97565 0.27978 0.73615 0.0
C1274 C 1.00128 0.28016 0.73565 0.0
C1275 C 0.04056 0.26267 0.73911 0.0
C1276 C 0.05408 0.24477 0.74264 0.0
C1277 C 0.01479 0.26221 0.73828 0.0
C1278 C 0.04141 0.22624 0.74445 0.0
C1279 C 0.0158 0.22564 0.74346 0.0
H1280 H 0.03081 0.71897 1.00177 0.0
H1281 H 0.9518 0.72117 1.00204 0.0
H1282 H 0.95308 0.75832 1.00209 0.0
H1283 H 0.97674 0.79015 1.00171 0.0
H1284 H 0.05576 0.78779 1.00138 0.0
H1285 H 0.05441 0.75071 1.00172 0.0
C1286 C 0.01386 0.72756 1.00164 0.0
C1287 C 0.99123 0.71729 1.00175 0.0
C1288 C 0.01476 0.74889 1.00171 0.0
C1289 C 0.96945 0.72869 1.00208 0.0
C1290 C 0.97018 0.74993 1.00201 0.0
C1291 C 0.99366 0.78152 1.00155 0.0
C1292 C 0.01632 0.79177 1.00143 0.0
C1293 C 0.99273 0.76019 1.00176 0.0
C1294 C 0.03808 0.78033 1.00165 0.0
C1295 C 0.03732 0.75911 1.00174 0.0
H1296 H 0.26193 0.48556 0.22148 0.0
H1297 H 0.25343 0.45248 0.27771 0.0
H1298 H 0.25284 0.48436 0.29672 0.0
H1299 H 0.2532 0.5218 0.29731 0.0
H1300 H 0.25905 0.55483 0.24083 0.0
H1301 H 0.26234 0.52293 0.22207 0.0
C1302 C 0.26014 0.48532 0.23791 0.0
C1303 C 0.25778 0.46663 0.24813 0.0
C1304 C 0.25929 0.50376 0.24873 0.0
C1305 C 0.2552 0.46663 0.26942 0.0
C1306 C 0.25489 0.48487 0.28033 0.0
C1307 C 0.25544 0.52201 0.28092 0.0
C1308 C 0.25596 0.54069 0.27052 0.0
C1309 C 0.25671 0.50355 0.27014 0.0
C1310 C 0.25854 0.54067 0.24923 0.0
C1311 C 0.26042 0.52243 0.23847 0.0
H1312 H 0.77993 0.03083 0.78317 0.0
H1313 H 0.72153 0.05632 0.7469 0.0
H1314 H 0.71312 0.02302 0.73239 0.0
H1315 H 0.7208 0.9864 0.73107 0.0
H1316 H 0.77958 0.96052 0.76648 0.0
H1317 H 0.78946 0.99418 0.78006 0.0
C1318 C 0.76546 0.02912 0.772 0.0
C1319 C 0.7513 0.04613 0.76629 0.0
C1320 C 0.76072 0.00982 0.76356 0.0
C1321 C 0.73275 0.04359 0.75165 0.0
C1322 C 0.72785 0.0245 0.74334 0.0
C1323 C 0.73587 0.9881 0.74168 0.0
C1324 C 0.74929 0.9709 0.74786 0.0
C1325 C 0.74149 0.00748 0.74936 0.0
C1326 C 0.76894 0.97348 0.76144 0.0
C1327 C 0.77454 0.99273 0.76928 0.0
H1328 H 0.22287 0.51552 0.02397 0.0
H1329 H 0.196 0.53343 0.96488 0.0
H1330 H 0.23794 0.53647 0.95239 0.0
H1331 H 0.28227 0.53172 0.95743 0.0
H1332 H 0.30911 0.51357 0.01646 0.0
H1333 H 0.26735 0.51314 0.02968 0.0
C1334 C 0.22616 0.5203 0.00842 0.0
C1335 C 0.20618 0.52408 0.99538 0.0
C1336 C 0.25042 0.5219 1.00122 0.0
C1337 C 0.21092 0.53033 0.97528 0.0
C1338 C 0.23496 0.53204 0.96807 0.0
C1339 C 0.27905 0.5279 0.97325 0.0
C1340 C 0.29892 0.52254 0.98583 0.0
C1341 C 0.25486 0.52751 0.98079 0.0
C1342 C 0.29426 0.51768 1.00633 0.0
C1343 C 0.27032 0.51738 0.01394 0.0
H1344 H 0.75597 0.04129 0.27952 0.0
H1345 H 0.75968 0.0396 0.21395 0.0
H1346 H 0.7583 1.00257 0.21468 0.0
H1347 H 0.75835 0.97054 0.23391 0.0
H1348 H 0.75511 0.97211 0.29949 0.0
H1349 H 0.7538 0.00919 0.2987 0.0
C1350 C 0.75628 0.03285 0.26537 0.0
C1351 C 0.75806 0.04333 0.24672 0.0
C1352 C 0.75564 0.01146 0.26588 0.0
C1353 C 0.75837 0.03204 0.22855 0.0
C1354 C 0.75762 0.0108 0.22894 0.0
C1355 C 0.75713 0.97895 0.24805 0.0
C1356 C 0.75695 0.96844 0.26674 0.0
C1357 C 0.7566 1.00033 0.24752 0.0
C1358 C 0.75532 0.9797 0.28487 0.0
C1359 C 0.75463 1.00096 0.28445 0.0
H1360 H 0.71374 0.99935 0.03695 0.0
H1361 H 0.70978 0.99117 0.97189 0.0
H1362 H 0.75423 0.98727 0.97031 0.0
H1363 H 0.79451 0.98897 0.98694 0.0
H1364 H 0.79851 0.99789 0.0519 0.0
H1365 H 0.75385 0.99854 0.05392 0.0
C1366 C 0.72253 0.99647 0.02244 0.0
C1367 C 0.70835 0.99572 1.00456 0.0
C1368 C 0.7482 0.9945 0.02157 0.0
C1369 C 0.72015 0.9919 0.98591 0.0
C1370 C 0.74563 0.98973 0.98497 0.0
C1371 C 0.78565 0.99083 1.00159 0.0
C1372 C 0.79996 0.99354 0.01921 0.0
C1373 C 0.75989 0.99143 1.00264 0.0
C1374 C 0.78805 0.99585 0.03805 0.0
C1375 C 0.76246 0.99627 0.03923 0.0
H1376 H 0.24996 0.4881 0.78937 0.0
H1377 H 0.2525 0.45502 0.73278 0.0
H1378 H 0.25296 0.48696 0.71382 0.0
H1379 H 0.25434 0.52445 0.7133 0.0
H1380 H 0.25387 0.55722 0.77013 0.0
H1381 H 0.25081 0.52536 0.78887 0.0
C1382 C 0.2504 0.48785 0.77289 0.0
C1383 C 0.25117 0.46915 0.76256 0.0
C1384 C 0.25113 0.50629 0.76206 0.0
C1385 C 0.25196 0.46918 0.74117 0.0
C1386 C 0.25222 0.48746 0.73028 0.0
C1387 C 0.25336 0.52461 0.72977 0.0
C1388 C 0.25435 0.54324 0.74025 0.0
C1389 C 0.25206 0.50613 0.74056 0.0
C1390 C 0.25327 0.54313 0.76163 0.0
C1391 C 0.25149 0.5249 0.7724 0.0
H1392 H 0.29409 0.49482 0.47754 0.0
H1393 H 0.29825 0.49158 0.54303 0.0
H1394 H 0.2537 0.48858 0.54502 0.0
H1395 H 0.21338 0.49001 0.52841 0.0
H1396 H 0.20922 0.49439 0.46299 0.0
H1397 H 0.25389 0.49365 0.46079 0.0
C1398 C 0.28533 0.49317 0.49226 0.0
C1399 C 0.29959 0.49358 0.51011 0.0
C1400 C 0.25962 0.49182 0.49333 0.0
C1401 C 0.2878 0.49139 0.52903 0.0
C1402 C 0.26227 0.48975 0.53019 0.0
C1403 C 0.22219 0.49055 0.51364 0.0
C1404 C 0.20786 0.49242 0.49591 0.0
C1405 C 0.24796 0.49043 0.51248 0.0
C1406 C 0.21971 0.49304 0.47691 0.0
C1407 C 0.2453 0.49267 0.47563 0.0
H1408 H 0.79086 0.75829 0.04049 0.0
H1409 H 0.71562 0.74129 0.05134 0.0
H1410 H 0.70795 0.74036 0.01482 0.0
H1411 H 0.7221 0.74588 0.97978 0.0
H1412 H 0.79744 0.7626 0.9689 0.0
H1413 H 0.80557 0.76207 1.00536 0.0
C1414 C 0.77289 0.7541 0.03487 0.0
C1415 C 0.75382 0.75002 0.04869 0.0
C1416 C 0.76855 0.75368 0.0138 0.0
C1417 C 0.73054 0.74484 0.04109 0.0
C1418 C 0.72615 0.74422 0.02017 0.0
C1419 C 0.74037 0.74913 0.98535 0.0
C1420 C 0.75905 0.75442 0.97156 0.0
C1421 C 0.74494 0.74884 1.00638 0.0
C1422 C 0.78258 0.75883 0.97914 0.0
C1423 C 0.7873 0.75843 1.00001 0.0
H1424 H 0.50136 0.48361 0.28909 0.0
H1425 H 0.50531 0.54907 0.28664 0.0
H1426 H 0.50668 0.54785 0.24957 0.0
H1427 H 0.50879 0.5282 0.21781 0.0
H1428 H 0.50514 0.46273 0.22027 0.0
H1429 H 0.50147 0.46403 0.25723 0.0
C1430 C 0.50235 0.49763 0.28047 0.0
C1431 C 0.50333 0.51639 0.29075 0.0
C1432 C 0.50325 0.49685 0.25908 0.0
C1433 C 0.50455 0.53439 0.27923 0.0
C1434 C 0.50538 0.53372 0.25797 0.0
C1435 C 0.507 0.5142 0.22638 0.0
C1436 C 0.50735 0.4954 0.21617 0.0
C1437 C 0.50505 0.51503 0.24773 0.0
C1438 C 0.50496 0.47744 0.22764 0.0
C1439 C 0.50291 0.47816 0.24884 0.0
H1440 H 0.76061 0.26811 0.47375 0.0
H1441 H 0.77346 0.20351 0.47548 0.0
H1442 H 0.76549 0.20303 0.51197 0.0
H1443 H 0.75488 0.22081 0.54336 0.0
H1444 H 0.7413 0.28529 0.54229 0.0
H1445 H 0.74924 0.28602 0.50559 0.0
C1446 C 0.76179 0.254 0.4822 0.0
C1447 C 0.7676 0.23587 0.47193 0.0
C1448 C 0.75692 0.25381 0.50325 0.0
C1449 C 0.76876 0.21761 0.48298 0.0
C1450 C 0.7643 0.21734 0.50386 0.0
C1451 C 0.75383 0.23505 0.53514 0.0
C1452 C 0.7477 0.25298 0.54557 0.0
C1453 C 0.75835 0.23532 0.51414 0.0
C1454 C 0.74584 0.27125 0.53459 0.0
C1455 C 0.75053 0.27169 0.51363 0.0
H1456 H 0.00941 0.54014 0.73848 0.0
H1457 H 0.00987 0.48285 0.7066 0.0
H1458 H 0.01204 0.46466 0.73893 0.0
H1459 H 0.01178 0.46488 0.77636 0.0
H1460 H 0.00953 0.52216 0.80822 0.0
H1461 H 0.01022 0.54039 0.77588 0.0
C1462 C 0.01022 0.52368 0.73857 0.0
C1463 C 0.00946 0.51292 0.72007 0.0
C1464 C 0.01105 0.51326 0.75727 0.0
C1465 C 0.01035 0.49156 0.72057 0.0
C1466 C 0.01159 0.48112 0.73908 0.0
C1467 C 0.01168 0.48136 0.77625 0.0
C1468 C 0.01059 0.4921 0.79476 0.0
C1469 C 0.01165 0.49179 0.75754 0.0
C1470 C 0.01029 0.51346 0.79426 0.0
C1471 C 0.01068 0.52393 0.77574 0.0
H1472 H 0.80164 0.01892 0.5333 0.0
H1473 H 0.79912 0.01613 0.46775 0.0
H1474 H 0.75438 0.01794 0.46873 0.0
H1475 H 0.71596 0.01826 0.48825 0.0
H1476 H 0.71852 0.01932 0.55386 0.0
H1477 H 0.76327 0.02035 0.55277 0.0
C1478 C 0.79135 0.01892 0.51919 0.0
C1479 C 0.80377 0.01736 0.50047 0.0
C1480 C 0.76561 0.01956 0.51989 0.0
C1481 C 0.79007 0.01726 0.48237 0.0
C1482 C 0.76446 0.01828 0.48292 0.0
C1483 C 0.72627 0.01894 0.50233 0.0
C1484 C 0.71384 0.01869 0.52112 0.0
C1485 C 0.75203 0.01912 0.5016 0.0
C1486 C 0.72757 0.01944 0.53919 0.0
C1487 C 0.75318 0.02001 0.53858 0.0
H1488 H 0.17484 0.36329 0.30083 0.0
H1489 H 0.24088 0.33738 0.27573 0.0
H1490 H 0.24048 0.31094 0.30179 0.0
H1491 H 0.22067 0.29451 0.33122 0.0
H1492 H 0.15457 0.32053 0.35613 0.0
H1493 H 0.15553 0.34733 0.33053 0.0
C1494 C 0.18904 0.35179 0.30094 0.0
C1495 C 0.20783 0.35238 0.28625 0.0
C1496 C 0.18867 0.33656 0.31595 0.0
C1497 C 0.22633 0.33749 0.28692 0.0
C1498 C 0.22606 0.32227 0.30179 0.0
C1499 C 0.20665 0.30618 0.33122 0.0
C1500 C 0.18751 0.30539 0.34559 0.0
C1501 C 0.20729 0.32162 0.31638 0.0
C1502 C 0.16932 0.32054 0.34512 0.0
C1503 C 0.1699 0.33595 0.33051 0.0
H1504 H 0.9447 0.00876 0.61978 0.0
H1505 H 0.97226 0.94729 0.61901 0.0
H1506 H 0.94766 0.93986 0.58895 0.0
H1507 H 0.92071 0.95154 0.5613 0.0
H1508 H 0.89381 0.01315 0.56181 0.0
H1509 H 0.91577 0.01977 0.59342 0.0
C1510 C 0.9451 0.99366 0.61322 0.0
C1511 C 0.96043 0.97867 0.62164 0.0
C1512 C 0.9312 0.98955 0.5957 0.0
C1513 C 0.96073 0.95918 0.61283 0.0
C1514 C 0.94669 0.9549 0.59559 0.0
C1515 C 0.91934 0.9663 0.5685 0.0
C1516 C 0.90582 0.98187 0.55905 0.0
C1517 C 0.9322 0.97007 0.58666 0.0
C1518 C 0.90444 1.00099 0.56853 0.0
C1519 C 0.91691 1.00478 0.58668 0.0
H1520 H 0.34436 0.70011 0.83781 0.0
H1521 H 0.2666 0.70335 0.84943 0.0
H1522 H 0.25917 0.67816 0.82284 0.0
H1523 H 0.27504 0.65435 0.79684 0.0
H1524 H 0.35298 0.65111 0.78617 0.0
H1525 H 0.36005 0.67686 0.81209 0.0
C1526 C 0.32578 0.69518 0.83479 0.0
C1527 C 0.30612 0.7036 0.84581 0.0
C1528 C 0.32166 0.68058 0.81963 0.0
C1529 C 0.28212 0.69729 0.84116 0.0
C1530 C 0.27785 0.68279 0.82599 0.0
C1531 C 0.29352 0.65943 0.80008 0.0
C1532 C 0.31346 0.65068 0.78965 0.0
C1533 C 0.2975 0.67427 0.81515 0.0
C1534 C 0.33734 0.65731 0.79417 0.0
C1535 C 0.3414 0.67213 0.80894 0.0
H1536 H 0.60125 0.01958 0.06094 0.0
H1537 H 0.6106 0.08436 0.05453 0.0
H1538 H 0.58735 0.08992 0.08575 0.0
H1539 H 0.56273 0.07649 0.11413 0.0
H1540 H 0.55231 0.0117 0.11975 0.0
H1541 H 0.57744 1.00612 0.08957 0.0
C1542 C 0.59808 0.03494 0.06624 0.0
C1543 C 0.60764 0.05151 0.05522 0.0
C1544 C 0.58445 0.03805 0.08412 0.0
C1545 C 0.60372 0.07128 0.0627 0.0
C1546 C 0.59028 0.07449 0.08054 0.0
C1547 C 0.56613 0.06113 0.10888 0.0
C1548 C 0.55558 0.04456 0.11925 0.0
C1549 C 0.58039 0.058 0.0913 0.0
C1550 C 0.56014 0.02477 0.11211 0.0
C1551 C 0.57449 0.02154 0.0948 0.0
H1552 H 0.21509 0.71422 0.18352 0.0
H1553 H 0.14402 0.69367 0.16322 0.0
H1554 H 0.14527 0.66587 0.18749 0.0
H1555 H 0.1664 0.64706 0.21419 0.0
H1556 H 0.23845 0.66602 0.23353 0.0
H1557 H 0.23675 0.69476 0.21014 0.0
C1558 C 0.19996 0.70359 0.18426 0.0
C1559 C 0.17943 0.70626 0.1715 0.0
C1560 C 0.20087 0.68733 0.1982 0.0
C1561 C 0.15989 0.69236 0.17298 0.0
C1562 C 0.16062 0.6763 0.18682 0.0
C1563 C 0.18189 0.6573 0.21324 0.0
C1564 C 0.20254 0.65415 0.22569 0.0
C1565 C 0.18101 0.67361 0.19947 0.0
C1566 C 0.22214 0.66803 0.2244 0.0
C1567 C 0.22128 0.68445 0.21086 0.0
H1568 H 0.60271 0.95969 0.45522 0.0
H1569 H 0.59519 0.02295 0.47114 0.0
H1570 H 0.5711 0.02895 0.44047 0.0
H1571 H 0.55176 0.01621 0.4092 0.0
H1572 H 0.5584 0.95276 0.39368 0.0
H1573 H 0.58364 0.94697 0.42383 0.0
C1574 C 0.59597 0.97482 0.45191 0.0
C1575 C 0.60078 0.99081 0.46556 0.0
C1576 C 0.58211 0.97818 0.43419 0.0
C1577 C 0.59153 0.01027 0.46113 0.0
C1578 C 0.57789 0.01377 0.44347 0.0
C1579 C 0.559 1.00116 0.41226 0.0
C1580 C 0.55336 0.98498 0.39909 0.0
C1581 C 0.57306 0.99784 0.42989 0.0
C1582 C 0.56252 0.9655 0.40352 0.0
C1583 C 0.5769 0.96216 0.4208 0.0
H1584 H 0.29886 0.29527 0.68554 0.0
H1585 H 0.34228 0.33336 0.64607 0.0
H1586 H 0.34249 0.36011 0.6717 0.0
H1587 H 0.32966 0.37306 0.70512 0.0
H1588 H 0.28565 0.33529 0.74435 0.0
H1589 H 0.28611 0.30818 0.71899 0.0
C1590 C 0.30815 0.30948 0.68244 0.0
C1591 C 0.32055 0.31221 0.66385 0.0
C1592 C 0.30812 0.3249 0.69725 0.0
C1593 C 0.33284 0.33068 0.6603 0.0
C1594 C 0.33289 0.34606 0.67494 0.0
C1595 C 0.32046 0.35881 0.70823 0.0
C1596 C 0.30766 0.35622 0.72663 0.0
C1597 C 0.32064 0.34333 0.69349 0.0
C1598 C 0.29545 0.33774 0.73025 0.0
C1599 C 0.29574 0.32222 0.71576 0.0
H1600 H 0.91921 0.06096 0.95843 0.0
H1601 H 0.88812 1.00094 0.95345 0.0
H1602 H 0.90916 0.99585 0.92111 0.0
H1603 H 0.93838 0.00756 0.89525 0.0
H1604 H 0.97004 0.06744 0.90035 0.0
H1605 H 0.94651 0.07356 0.93134 0.0
C1606 C 0.91673 0.04691 0.95011 0.0
C1607 C 0.90227 0.03129 0.95851 0.0
C1608 C 0.92906 0.04401 0.93152 0.0
C1609 C 0.89947 0.01308 0.94756 0.0
C1610 C 0.91143 0.01018 0.929 0.0
C1611 C 0.93994 0.02205 0.90298 0.0
C1612 C 0.95609 0.03695 0.89547 0.0
C1613 C 0.92661 0.02539 0.92099 0.0
C1614 C 0.95784 0.05563 0.90578 0.0
C1615 C 0.94441 0.05915 0.92356 0.0
H1616 H 0.34499 0.21136 0.32229 0.0
H1617 H 0.31873 0.25025 0.27407 0.0
H1618 H 0.27959 0.25407 0.29148 0.0
H1619 H 0.25277 0.24679 0.32045 0.0
H1620 H 0.27921 0.20952 0.36975 0.0
H1621 H 0.31813 0.20454 0.35183 0.0
C1622 C 0.33071 0.22067 0.3156 0.0
C1623 C 0.33489 0.23047 0.29686 0.0
C1624 C 0.30817 0.22302 0.32584 0.0
C1625 C 0.31616 0.24257 0.28849 0.0
C1626 C 0.29367 0.24473 0.29841 0.0
C1627 C 0.26694 0.23739 0.3272 0.0
C1628 C 0.26298 0.22837 0.34632 0.0
C1629 C 0.28945 0.23503 0.31706 0.0
C1630 C 0.28175 0.21657 0.355 0.0
C1631 C 0.30403 0.21376 0.34478 0.0
H1632 H 0.07429 0.06251 0.6279 0.0
H1633 H 0.02529 0.02409 0.59354 0.0
H1634 H 0.02629 0.04813 0.56541 0.0
H1635 H 0.04233 0.07963 0.54978 0.0
H1636 H 0.09268 0.11696 0.58372 0.0
H1637 H 0.09018 0.09364 0.61253 0.0
C1638 C 0.06395 0.05916 0.61427 0.0
C1639 C 0.0498 0.04126 0.6131 0.0
C1640 C 0.06492 0.07291 0.59789 0.0
C1641 C 0.03621 0.03768 0.59522 0.0
C1642 C 0.03686 0.05143 0.57896 0.0
C1643 C 0.05253 0.08273 0.56357 0.0
C1644 C 0.06772 0.10002 0.56456 0.0
C1645 C 0.05125 0.06906 0.58006 0.0
C1646 C 0.08108 0.10368 0.58246 0.0
C1647 C 0.07959 0.09037 0.59898 0.0
H1648 H 0.16871 0.80548 0.81942 0.0
H1649 H 0.18854 0.75713 0.7782 0.0
H1650 H 0.22773 0.75313 0.79541 0.0
H1651 H 0.25646 0.763 0.82223 0.0
H1652 H 0.23615 0.80961 0.86508 0.0
H1653 H 0.19731 0.81481 0.84707 0.0
C1654 C 0.18157 0.79403 0.81425 0.0
C1655 C 0.17558 0.78165 0.79751 0.0
C1656 C 0.20416 0.79162 0.82439 0.0
C1657 C 0.1925 0.76683 0.79109 0.0
C1658 C 0.21504 0.76457 0.80086 0.0
C1659 C 0.24369 0.77451 0.82746 0.0
C1660 C 0.24933 0.78613 0.84477 0.0
C1661 C 0.22111 0.77691 0.81747 0.0
C1662 C 0.23231 0.8006 0.85168 0.0
C1663 C 0.21006 0.80351 0.84144 0.0
H1664 H 0.4347 0.90856 0.08962 0.0
H1665 H 0.48741 0.93459 0.04817 0.0
H1666 H 0.49444 0.96264 0.0717 0.0
H1667 H 0.48406 0.98075 0.10331 0.0
H1668 H 0.43094 0.95476 0.14446 0.0
H1669 H 0.4252 0.92608 0.12155 0.0
C1670 C 0.44765 0.92039 0.08565 0.0
C1671 C 0.4604 0.91938 0.06704 0.0
C1672 C 0.45136 0.93666 0.09913 0.0
C1673 C 0.4775 0.93473 0.06242 0.0
C1674 C 0.4814 0.95092 0.07583 0.0
C1675 C 0.47144 0.96872 0.10742 0.0
C1676 C 0.45785 0.9701 0.12562 0.0
C1677 C 0.46825 0.95215 0.09415 0.0
C1678 C 0.44135 0.95439 0.13046 0.0
C1679 C 0.43816 0.93786 0.1174 0.0
H1680 H 0.34736 0.77184 0.18448 0.0
H1681 H 0.31315 0.79485 0.23903 0.0
H1682 H 0.27389 0.79704 0.22153 0.0
H1683 H 0.24857 0.79071 0.19128 0.0
H1684 H 0.28286 0.76857 0.13642 0.0
H1685 H 0.32257 0.76794 0.15342 0.0
C1686 C 0.33136 0.77747 0.1925 0.0
C1687 C 0.33326 0.78302 0.2131 0.0
C1688 C 0.30872 0.77881 0.18229 0.0
C1689 C 0.31232 0.79044 0.22318 0.0
C1690 C 0.28977 0.79166 0.2132 0.0
C1691 C 0.26476 0.7859 0.18299 0.0
C1692 C 0.26262 0.77958 0.16264 0.0
C1693 C 0.28766 0.78563 0.19284 0.0
C1694 C 0.28388 0.77354 0.1521 0.0
C1695 C 0.30665 0.77309 0.16183 0.0
H1696 H 0.42794 0.05188 0.39047 0.0
H1697 H 0.49746 0.03071 0.41366 0.0
H1698 H 0.49699 0.05719 0.43941 0.0
H1699 H 0.47776 0.0872 0.45469 0.0
H1700 H 0.40862 0.10886 0.43136 0.0
H1701 H 0.40845 0.08176 0.40604 0.0
C1702 C 0.44306 0.05308 0.40106 0.0
C1703 C 0.46264 0.03914 0.4 0.0
C1704 C 0.44291 0.06862 0.41575 0.0
C1705 C 0.4819 0.04088 0.41416 0.0
C1706 C 0.48178 0.05619 0.42886 0.0
C1707 C 0.4625 0.0859 0.44424 0.0
C1708 C 0.44324 0.10015 0.445 0.0
C1709 C 0.46246 0.07022 0.42974 0.0
C1710 C 0.42385 0.09834 0.43102 0.0
C1711 C 0.42366 0.08274 0.41658 0.0
H1712 H 0.19734 0.23415 0.73161 0.0
H1713 H 0.15095 0.21733 0.68124 0.0
H1714 H 0.18628 0.21813 0.65835 0.0
H1715 H 0.2303 0.22415 0.65249 0.0
H1716 H 0.27674 0.2402 0.70314 0.0
H1717 H 0.24152 0.23893 0.72601 0.0
C1718 C 0.19491 0.23072 0.71561 0.0
C1719 C 0.17143 0.22584 0.70815 0.0
C1720 C 0.21539 0.23094 0.70257 0.0
C1721 C 0.16875 0.22117 0.68741 0.0
C1722 C 0.18898 0.22162 0.67429 0.0
C1723 C 0.23279 0.22722 0.66856 0.0
C1724 C 0.25624 0.23227 0.67602 0.0
C1725 C 0.21239 0.2265 0.68169 0.0
C1726 C 0.25901 0.2362 0.69692 0.0
C1727 C 0.23882 0.23557 0.71003 0.0
H1728 H 0.02902 0.92099 0.95133 0.0
H1729 H 0.10791 0.91902 0.94579 0.0
H1730 H 0.10665 0.94549 0.92018 0.0
H1731 H 0.08355 0.96921 0.89902 0.0
H1732 H 1.00492 0.97242 0.90454 0.0
H1733 H 1.00578 0.94596 0.93075 0.0
C1734 C 0.04596 0.92643 0.94467 0.0
C1735 C 0.06849 0.91758 0.95042 0.0
C1736 C 0.04521 0.94204 0.92993 0.0
C1737 C 0.0902 0.92497 0.94145 0.0
C1738 C 0.08956 0.94032 0.92683 0.0
C1739 C 0.06656 0.96404 0.90582 0.0
C1740 C 0.0442 0.97271 0.89966 0.0
C1741 C 0.06721 0.94885 0.92084 0.0
C1742 C 0.02242 0.96611 0.90905 0.0
C1743 C 0.02289 0.95089 0.92398 0.0
H1744 H 0.31333 0.36239 0.18956 0.0
H1745 H 0.30316 0.36806 0.25443 0.0
H1746 H 0.32954 0.33869 0.26008 0.0
H1747 H 0.35386 0.31038 0.24665 0.0
H1748 H 0.363 0.30387 0.18181 0.0
H1749 H 0.33901 0.33467 0.17617 0.0
C1750 C 0.31712 0.35738 0.20495 0.0
C1751 C 0.30617 0.36746 0.22152 0.0
C1752 C 0.33206 0.34022 0.20812 0.0
C1753 C 0.31125 0.36062 0.24136 0.0
C1754 C 0.32631 0.34376 0.24463 0.0
C1755 C 0.35052 0.31559 0.23127 0.0
C1756 C 0.36015 0.30463 0.21469 0.0
C1757 C 0.33646 0.33323 0.22812 0.0
C1758 C 0.35602 0.31199 0.19489 0.0
C1759 C 0.34217 0.32958 0.19163 0.0
H1760 H 0.78612 0.15856 0.76484 0.0
H1761 H 0.83211 0.13082 0.81049 0.0
H1762 H 0.85931 0.16029 0.80976 0.0
H1763 H 0.86925 0.19452 0.79709 0.0
H1764 H 0.82253 0.22251 0.75215 0.0
H1765 H 0.79667 0.19231 0.75154 0.0
C1766 C 0.80221 0.15883 0.77452 0.0
C1767 C 0.80697 0.14242 0.78774 0.0
C1768 C 0.81766 0.17595 0.77421 0.0
C1769 C 0.82792 0.14317 0.80017 0.0
C1770 C 0.84348 0.16008 0.79981 0.0
C1771 C 0.85335 0.1941 0.78724 0.0
C1772 C 0.84791 0.21093 0.77474 0.0
C1773 C 0.83836 0.17668 0.78709 0.0
C1774 C 0.82741 0.20982 0.76179 0.0
C1775 C 0.81248 0.19255 0.76152 0.0
H1776 H 1.00573 0.56909 0.01554 0.0
H1777 H 0.02857 0.61763 0.05523 0.0
H1778 H 0.06828 0.60091 0.06023 0.0
H1779 H 0.09685 0.5726 0.05274 0.0
H1780 H 0.07407 0.52538 0.01128 0.0
H1781 H 0.03422 0.54155 0.00749 0.0
C1782 C 0.01927 0.57591 0.02549 0.0
C1783 C 0.01406 0.59445 0.03521 0.0
C1784 C 0.04224 0.56653 0.02782 0.0
C1785 C 0.03206 0.6033 0.04767 0.0
C1786 C 0.0548 0.59377 0.05049 0.0
C1787 C 0.08318 0.56588 0.04286 0.0
C1788 C 0.08858 0.54775 0.03235 0.0
C1789 C 0.06018 0.57542 0.04052 0.0
C1790 C 0.0706 0.53933 0.01953 0.0
C1791 C 0.04768 0.54853 0.01738 0.0
H1792 H 0.63551 0.82888 0.28472 0.0
H1793 H 0.69554 0.7863 0.28583 0.0
H1794 H 0.72486 0.81445 0.28688 0.0
H1795 H 0.7334 0.85123 0.28716 0.0
H1796 H 0.6732 0.89371 0.28473 0.0
H1797 H 0.64399 0.86556 0.28474 0.0
C1798 C 0.65499 0.82575 0.28543 0.0
C1799 C 0.6633 0.80547 0.28534 0.0
C1800 C 0.67172 0.84201 0.2858 0.0
C1801 C 0.68866 0.80173 0.28578 0.0
C1802 C 0.70542 0.81783 0.28645 0.0
C1803 C 0.71388 0.85434 0.28678 0.0
C1804 C 0.70552 0.87461 0.28608 0.0
C1805 C 0.69716 0.83804 0.28644 0.0
C1806 C 0.68016 0.87831 0.28529 0.0
C1807 C 0.66343 0.8622 0.2853 0.0
H1808 H 0.92527 0.9417 0.06205 0.0
H1809 H 0.93825 0.98262 0.01184 0.0
H1810 H 0.9768 0.9656 1.00434 0.0
H1811 H 0.00687 0.93898 0.01166 0.0
H1812 H 0.99288 0.89591 0.05964 0.0
H1813 H 0.95495 0.91389 0.06853 0.0
C1814 C 0.93653 0.94682 0.04946 0.0
C1815 C 0.92882 0.96343 0.03756 0.0
C1816 C 0.95864 0.93667 0.04492 0.0
C1817 C 0.94358 0.9698 0.02119 0.0
C1818 C 0.96575 0.96015 0.01693 0.0
C1819 C 0.99566 0.9337 0.02423 0.0
C1820 C 1.0028 0.91638 0.03521 0.0
C1821 C 0.9735 0.94361 0.02869 0.0
C1822 C 0.9878 0.90934 0.05109 0.0
C1823 C 0.96609 0.91957 0.05612 0.0
H1824 H 0.21909 0.66142 0.6874 0.0
H1825 H 0.21307 0.64379 0.75045 0.0
H1826 H 0.18347 0.67101 0.75632 0.0
H1827 H 0.16031 0.70069 0.74386 0.0
H1828 H 0.16625 0.7181 0.68083 0.0
H1829 H 0.19463 0.69008 0.67464 0.0
C1830 C 0.2112 0.66342 0.70241 0.0
C1831 C 0.21843 0.65056 0.71846 0.0
C1832 C 0.19417 0.67914 0.70571 0.0
C1833 C 0.20788 0.65339 0.73778 0.0
C1834 C 0.19098 0.66902 0.74119 0.0
C1835 C 0.16787 0.69836 0.72879 0.0
C1836 C 0.16119 0.71155 0.71286 0.0
C1837 C 0.1842 0.68215 0.72533 0.0
C1838 C 0.17086 0.7081 0.69333 0.0
C1839 C 0.18721 0.69213 0.6898 0.0
H1840 H 1.0018 0.437 0.49886 0.0
H1841 H 0.02537 0.39003 0.4576 0.0
H1842 H 0.06317 0.40895 0.45054 0.0
H1843 H 0.08988 0.4388 0.45666 0.0
H1844 H 0.06694 0.48414 0.50011 0.0
H1845 H 0.02873 0.46589 0.50581 0.0
C1846 C 0.01507 0.43101 0.48813 0.0
C1847 C 0.01064 0.4123 0.47853 0.0
C1848 C 0.03703 0.44162 0.48469 0.0
C1849 C 0.0283 0.40449 0.46506 0.0
C1850 C 0.04993 0.41528 0.46107 0.0
C1851 C 0.07651 0.44464 0.46738 0.0
C1852 C 0.08132 0.46284 0.47791 0.0
C1853 C 0.05458 0.43383 0.4709 0.0
C1854 C 0.06385 0.47013 0.49187 0.0
C1855 C 0.04189 0.45974 0.49509 0.0
H1856 H 0.50795 0.57611 0.97435 0.0
H1857 H 0.47402 0.62877 1.00147 0.0
H1858 H 0.4344 0.61161 1.00146 0.0
H1859 H 0.40959 0.58089 0.99549 0.0
H1860 H 0.44319 0.52875 0.9671 0.0
H1861 H 0.48242 0.54645 0.96578 0.0
C1862 C 0.49186 0.58389 0.98011 0.0
C1863 C 0.49409 0.60367 0.98801 0.0
C1864 C 0.46896 0.57398 0.97991 0.0
C1865 C 0.47293 0.61356 0.99525 0.0
C1866 C 0.45021 0.60372 0.99534 0.0
C1867 C 0.42545 0.57346 0.98887 0.0
C1868 C 0.42339 0.55345 0.98154 0.0
C1869 C 0.44804 0.58382 0.98797 0.0
C1870 C 0.44414 0.54415 0.97285 0.0
C1871 C 0.46668 0.55424 0.97214 0.0
H1872 H 0.66828 0.81355 0.8426 0.0
H1873 H 0.74601 0.80469 0.85106 0.0
H1874 H 0.75455 0.83093 0.8258 0.0
H1875 H 0.7399 0.85729 0.80197 0.0
H1876 H 0.66212 0.86639 0.79443 0.0
H1877 H 0.65372 0.83952 0.81897 0.0
C1878 C 0.68712 0.81743 0.83915 0.0
C1879 C 0.70642 0.80708 0.84891 0.0
C1880 C 0.69193 0.83274 0.8248 0.0
C1881 C 0.73071 0.81216 0.84375 0.0
C1882 C 0.73565 0.8273 0.82935 0.0
C1883 C 0.72113 0.85327 0.80558 0.0
C1884 C 0.70168 0.86397 0.79642 0.0
C1885 C 0.71639 0.83776 0.81983 0.0
C1886 C 0.67745 0.85868 0.80146 0.0
C1887 C 0.67261 0.84321 0.81543 0.0
H1888 H 0.44911 0.5064 0.11496 0.0
H1889 H 0.47738 0.44526 0.1112 0.0
H1890 H 0.45502 0.43989 0.07954 0.0
H1891 H 0.42939 0.45315 0.05187 0.0
H1892 H 0.40099 0.51424 0.05569 0.0
H1893 H 0.42168 0.51903 0.08814 0.0
C1894 C 0.45017 0.49181 0.10736 0.0
C1895 C 0.46499 0.47629 0.1155 0.0
C1896 C 0.43749 0.48887 0.08897 0.0
C1897 C 0.46618 0.45751 0.10533 0.0
C1898 C 0.45344 0.45443 0.08715 0.0
C1899 C 0.42741 0.46743 0.05987 0.0
C1900 C 0.41375 0.48334 0.05109 0.0
C1901 C 0.43931 0.47009 0.07866 0.0
C1902 C 0.41173 0.50182 0.06174 0.0
C1903 C 0.42344 0.50455 0.08044 0.0
H1904 H 0.85219 0.19093 0.33639 0.0
H1905 H 0.77484 0.20389 0.34183 0.0
H1906 H 0.76602 0.17973 0.3148 0.0
H1907 H 0.78001 0.15368 0.29048 0.0
H1908 H 0.85711 0.13988 0.28613 0.0
H1909 H 0.86615 0.16524 0.31214 0.0
C1910 C 0.83335 0.18843 0.33188 0.0
C1911 C 0.81429 0.19935 0.3414 0.0
C1912 C 0.8283 0.17418 0.31653 0.0
C1913 C 0.79004 0.19601 0.33482 0.0
C1914 C 0.7849 0.18203 0.31937 0.0
C1915 C 0.7988 0.15639 0.29507 0.0
C1916 C 0.81785 0.14483 0.28637 0.0
C1917 C 0.80386 0.17092 0.31021 0.0
C1918 C 0.84209 0.14836 0.29273 0.0
C1919 C 0.84728 0.16293 0.30755 0.0
H1920 H 0.07582 0.55636 0.62288 0.0
H1921 H 0.02926 0.50611 0.60583 0.0
H1922 H 0.05119 0.50272 0.57377 0.0
H1923 H 0.08218 0.51482 0.54984 0.0
H1924 H 0.12958 0.56452 0.56677 0.0
H1925 H 0.1085 0.56741 0.59934 0.0
C1926 C 0.07059 0.54456 0.61224 0.0
C1927 C 0.05081 0.53158 0.61685 0.0
C1928 C 0.08326 0.54269 0.59363 0.0
C1929 C 0.04435 0.51638 0.60278 0.0
C1930 C 0.05686 0.51443 0.58435 0.0
C1931 C 0.08825 0.52612 0.56067 0.0
C1932 C 0.1075 0.53948 0.55558 0.0
C1933 C 0.07617 0.52761 0.57952 0.0
C1934 C 0.11463 0.55421 0.56995 0.0
C1935 C 0.10265 0.55581 0.58872 0.0
H1936 H 0.66128 0.19793 0.67567 0.0
H1937 H 0.73751 0.21549 0.67684 0.0
H1938 H 0.74465 0.19295 0.70563 0.0
H1939 H 0.72944 0.16801 0.73031 0.0
H1940 H 0.65361 0.14942 0.72835 0.0
H1941 H 0.6462 0.1726 0.70007 0.0
C1942 C 0.67952 0.19672 0.68205 0.0
C1943 C 0.69879 0.20849 0.67397 0.0
C1944 C 0.6836 0.18354 0.69854 0.0
C1945 C 0.72221 0.2069 0.6828 0.0
C1946 C 0.72637 0.19388 0.69924 0.0
C1947 C 0.71134 0.16883 0.72361 0.0
C1948 C 0.69216 0.15686 0.73153 0.0
C1949 C 0.70723 0.18208 0.70719 0.0
C1950 C 0.6687 0.15854 0.72281 0.0
C1951 C 0.66445 0.17174 0.70651 0.0
H1952 H 0.08736 0.49293 0.96288 0.0
H1953 H 0.1258 0.43655 0.95244 0.0
H1954 H 0.10414 0.43222 0.92029 0.0
H1955 H 0.07362 0.44417 0.89524 0.0
H1956 H 0.03601 0.50093 0.90587 0.0
H1957 H 0.05846 0.50551 0.9375 0.0
C1958 C 0.09136 0.4798 0.95354 0.0
C1959 C 0.1083 0.4651 0.96031 0.0
C1960 C 0.079 0.47747 0.93494 0.0
C1961 C 0.11269 0.44803 0.94793 0.0
C1962 C 0.10039 0.44558 0.9294 0.0
C1963 C 0.07049 0.45763 0.90437 0.0
C1964 C 0.05306 0.47214 0.89808 0.0
C1965 C 0.08341 0.46017 0.92277 0.0
C1966 C 0.04924 0.48946 0.91024 0.0
C1967 C 0.06205 0.4921 0.92842 0.0
H1968 H 0.8282 0.88182 0.20285 0.0
H1969 H 0.7735 0.84773 0.23589 0.0
H1970 H 0.77269 0.82231 0.20909 0.0
H1971 H 0.78751 0.80953 0.17641 0.0
H1972 H 0.84349 0.8426 0.14385 0.0
H1973 H 0.84372 0.86857 0.17031 0.0
C1974 C 0.81625 0.86877 0.20433 0.0
C1975 C 0.80089 0.86689 0.22148 0.0
C1976 C 0.81605 0.85396 0.18889 0.0
C1977 C 0.78527 0.84991 0.22283 0.0
C1978 C 0.7849 0.83521 0.20753 0.0
C1979 C 0.80001 0.82224 0.17513 0.0
C1980 C 0.81551 0.82395 0.15806 0.0
C1981 C 0.80023 0.83705 0.19051 0.0
C1982 C 0.83115 0.8409 0.15663 0.0
C1983 C 0.8314 0.85574 0.17185 0.0
H1984 H 0.40594 0.51885 0.44911 0.0
H1985 H 0.39144 0.58303 0.45454 0.0
H1986 H 0.41523 0.58959 0.42379 0.0
H1987 H 0.44177 0.57732 0.39614 0.0
H1988 H 0.45676 0.51311 0.39104 0.0
H1989 H 0.43124 0.50642 0.42075 0.0
C1990 C 0.40808 0.53427 0.44363 0.0
C1991 C 0.39694 0.5504 0.45424 0.0
C1992 C 0.42189 0.53797 0.42592 0.0
C1993 C 0.39957 0.57028 0.44664 0.0
C1994 C 0.4133 0.57407 0.42907 0.0
C1995 C 0.43926 0.56183 0.40137 0.0
C1996 C 0.45127 0.54578 0.3913 0.0
C1997 C 0.4247 0.55805 0.41866 0.0
C1998 C 0.44779 0.52581 0.39842 0.0
C1999 C 0.43324 0.52194 0.4155 0.0
H2000 H 0.78575 0.72348 0.86953 0.0
H2001 H 0.73525 0.72278 0.81902 0.0
H2002 H 0.76952 0.72123 0.7952 0.0
H2003 H 0.81386 0.72185 0.78852 0.0
H2004 H 0.86447 0.72263 0.83893 0.0
H2005 H 0.83018 0.72243 0.86286 0.0
C2006 C 0.78219 0.72272 0.85333 0.0
C2007 C 0.75784 0.72328 0.84615 0.0
C2008 C 0.80206 0.72207 0.83963 0.0
C2009 C 0.75371 0.72238 0.82505 0.0
C2010 C 0.77334 0.72158 0.81137 0.0
C2011 C 0.81743 0.72195 0.80474 0.0
C2012 C 0.8418 0.72241 0.81186 0.0
C2013 C 0.7976 0.72175 0.81846 0.0
C2014 C 0.84598 0.72234 0.83297 0.0
C2015 C 0.82634 0.72221 0.8467 0.0
H2016 H 0.57927 0.55658 0.12709 0.0
H2017 H 0.53016 0.51987 0.09107 0.0
H2018 H 0.53118 0.54514 0.06401 0.0
H2019 H 0.54705 0.57745 0.04992 0.0
H2020 H 0.59723 0.61322 0.08569 0.0
H2021 H 0.59507 0.58843 0.1132 0.0
C2022 C 0.56895 0.5539 0.1133 0.0
C2023 C 0.55469 0.53615 0.11134 0.0
C2024 C 0.56989 0.56838 0.09758 0.0
C2025 C 0.54111 0.53337 0.09332 0.0
C2026 C 0.54178 0.54782 0.07769 0.0
C2027 C 0.55733 0.57985 0.06381 0.0
C2028 C 0.57238 0.59713 0.06567 0.0
C2029 C 0.55617 0.56537 0.0796 0.0
C2030 C 0.58579 0.59993 0.08371 0.0
C2031 C 0.58449 0.58579 0.09951 0.0
H2032 H 0.68972 0.28846 0.30722 0.0
H2033 H 0.63211 0.27312 0.34959 0.0
H2034 H 0.66197 0.27117 0.37713 0.0
H2035 H 0.70461 0.27174 0.38882 0.0
H2036 H 0.76255 0.28597 0.34638 0.0
H2037 H 0.73234 0.29066 0.31935 0.0
C2038 C 0.68364 0.28484 0.3225 0.0
C2039 C 0.65865 0.28083 0.32625 0.0
C2040 C 0.70099 0.28352 0.33829 0.0
C2041 C 0.65118 0.27619 0.34619 0.0
C2042 C 0.66827 0.27506 0.36198 0.0
C2043 C 0.71068 0.27611 0.37373 0.0
C2044 C 0.73589 0.27843 0.36968 0.0
C2045 C 0.69325 0.27842 0.35815 0.0
C2046 C 0.74331 0.28406 0.34998 0.0
C2047 C 0.72603 0.28667 0.33446 0.0
H2048 H 0.97486 0.47645 0.59718 0.0
H2049 H 0.90931 0.45945 0.62977 0.0
H2050 H 0.9027 0.43131 0.60625 0.0
H2051 H 0.91577 0.41126 0.57665 0.0
H2052 H 0.9811 0.42865 0.54387 0.0
H2053 H 0.9879 0.45645 0.56761 0.0
C2054 C 0.95925 0.4665 0.5993 0.0
C2055 C 0.94263 0.47014 0.61532 0.0
C2056 C 0.95561 0.45026 0.58576 0.0
C2057 C 0.92225 0.45723 0.6175 0.0
C2058 C 0.91854 0.44102 0.60411 0.0
C2059 C 0.93141 0.42118 0.57457 0.0
C2060 C 0.9479 0.41767 0.55842 0.0
C2061 C 0.93509 0.43739 0.58817 0.0
C2062 C 0.96827 0.43063 0.55626 0.0
C2063 C 0.9721 0.44671 0.56977 0.0
H2064 H 0.82308 0.28577 0.71483 0.0
H2065 H 0.87928 0.29838 0.67034 0.0
H2066 H 0.84834 0.29977 0.64355 0.0
H2067 H 0.80555 0.29595 0.63245 0.0
H2068 H 0.7493 0.28352 0.67697 0.0
H2069 H 0.77996 0.2838 0.70398 0.0
C2070 C 0.82858 0.28886 0.69928 0.0
C2071 C 0.85357 0.2918 0.69463 0.0
C2072 C 0.81064 0.28976 0.68392 0.0
C2073 C 0.86025 0.296 0.6744 0.0
C2074 C 0.84254 0.2968 0.65904 0.0
C2075 C 0.79991 0.29353 0.64808 0.0
C2076 C 0.77507 0.28967 0.65258 0.0
C2077 C 0.8177 0.29353 0.66358 0.0
C2078 C 0.76821 0.28658 0.67298 0.0
C2079 C 0.78579 0.28662 0.68847 0.0
H2080 H 0.97929 0.53004 0.91699 0.0
H2081 H 0.91145 0.54439 0.88646 0.0
H2082 H 0.9046 0.57263 0.90976 0.0
H2083 H 0.91768 0.59318 0.9389 0.0
H2084 H 0.98519 0.57856 0.96983 0.0
H2085 H 0.99271 0.55099 0.94587 0.0
C2086 C 0.96313 0.53945 0.91525 0.0
C2087 C 0.94589 0.53495 0.89994 0.0
C2088 C 0.95932 0.55577 0.92872 0.0
C2089 C 0.92487 0.54722 0.89822 0.0
C2090 C 0.92101 0.5635 0.91149 0.0
C2091 C 0.93398 0.58393 0.94052 0.0
C2092 C 0.95077 0.58805 0.95627 0.0
C2093 C 0.93804 0.56785 0.92686 0.0
C2094 C 0.97204 0.57603 0.95778 0.0
C2095 C 0.97628 0.56009 0.94415 0.0
H2096 H 0.69241 0.76577 0.21768 0.0
H2097 H 0.65499 0.70971 0.2043 0.0
H2098 H 0.68659 0.70094 0.17924 0.0
H2099 H 0.72431 0.70992 0.16031 0.0
H2100 H 0.76287 0.76505 0.17587 0.0
H2101 H 0.73172 0.77325 0.20105 0.0
C2102 C 0.69117 0.75166 0.20921 0.0
C2103 C 0.67123 0.73856 0.21253 0.0
C2104 C 0.70975 0.74647 0.19533 0.0
C2105 C 0.67011 0.7201 0.20186 0.0
C2106 C 0.68818 0.71508 0.18757 0.0
C2107 C 0.72604 0.7236 0.16938 0.0
C2108 C 0.74592 0.73686 0.16605 0.0
C2109 C 0.70805 0.72821 0.18408 0.0
C2110 C 0.7479 0.75447 0.17807 0.0
C2111 C 0.72995 0.75929 0.19243 0.0
H2112 H 0.56923 0.45545 0.38077 0.0
H2113 H 0.52222 0.49316 0.41766 0.0
H2114 H 0.52324 0.46795 0.44483 0.0
H2115 H 0.53863 0.43554 0.45871 0.0
H2116 H 0.58615 0.39824 0.42194 0.0
H2117 H 0.58404 0.42297 0.39435 0.0
C2118 C 0.55936 0.45826 0.39479 0.0
C2119 C 0.54569 0.47627 0.39705 0.0
C2120 C 0.56016 0.44374 0.41048 0.0
C2121 C 0.53267 0.47939 0.41529 0.0
C2122 C 0.53334 0.465 0.43094 0.0
C2123 C 0.54826 0.43273 0.44457 0.0
C2124 C 0.56262 0.41508 0.44247 0.0
C2125 C 0.54708 0.44712 0.42874 0.0
C2126 C 0.57525 0.41181 0.4241 0.0
C2127 C 0.57398 0.42592 0.40826 0.0
H2128 H 0.78513 0.84317 0.69723 0.0
H2129 H 0.80173 0.86577 0.75723 0.0
H2130 H 0.82926 0.83698 0.76303 0.0
H2131 H 0.848 0.8047 0.75124 0.0
H2132 H 0.83178 0.783 0.69091 0.0
H2133 H 0.8048 0.81199 0.68509 0.0
C2134 C 0.79485 0.84189 0.71156 0.0
C2135 C 0.79128 0.85665 0.72677 0.0
C2136 C 0.81069 0.82533 0.71478 0.0
C2137 C 0.80418 0.85473 0.7452 0.0
C2138 C 0.81985 0.83818 0.74857 0.0
C2139 C 0.83846 0.80634 0.73688 0.0
C2140 C 0.8419 0.79168 0.72154 0.0
C2141 C 0.8231 0.82327 0.73354 0.0
C2142 C 0.82967 0.79414 0.70288 0.0
C2143 C 0.81415 0.81069 0.69957 0.0
H2144 H 0.30242 0.64915 0.24694 0.0
H2145 H 0.29149 0.64067 0.31141 0.0
H2146 H 0.31689 0.6704 0.31845 0.0
H2147 H 0.34035 0.6999 0.30626 0.0
H2148 H 0.35088 0.70847 0.24177 0.0
H2149 H 0.32729 0.6778 0.23484 0.0
C2150 C 0.30581 0.65364 0.26255 0.0
C2151 C 0.29502 0.64264 0.27861 0.0
C2152 C 0.32014 0.67095 0.26651 0.0
C2153 C 0.29952 0.64882 0.29873 0.0
C2154 C 0.314 0.66588 0.30279 0.0
C2155 C 0.33778 0.69495 0.2907 0.0
C2156 C 0.3473 0.70666 0.27458 0.0
C2157 C 0.32414 0.67722 0.28679 0.0
C2158 C 0.34345 0.70004 0.25449 0.0
C2159 C 0.33007 0.68239 0.2505 0.0
H2160 H 0.53497 0.10334 0.56216 0.0
H2161 H 0.51171 0.09419 0.50008 0.0
H2162 H 0.5454 0.07061 0.49454 0.0
H2163 H 0.58229 0.05322 0.50677 0.0
H2164 H 0.60402 0.05941 0.56942 0.0
H2165 H 0.57032 0.08348 0.57531 0.0
C2166 C 0.5372 0.09604 0.54749 0.0
C2167 C 0.52084 0.10063 0.53157 0.0
C2168 C 0.5565 0.08209 0.54444 0.0
C2169 C 0.52388 0.0909 0.51268 0.0
C2170 C 0.54327 0.07748 0.50941 0.0
C2171 C 0.57967 0.05993 0.52169 0.0
C2172 C 0.59578 0.05491 0.53756 0.0
C2173 C 0.55984 0.07312 0.52509 0.0
C2174 C 0.59189 0.06323 0.55695 0.0
C2175 C 0.57263 0.07695 0.5603 0.0
H2176 H 0.18175 0.37098 0.81035 0.0
H2177 H 0.22099 0.35985 0.75438 0.0
H2178 H 0.1998 0.32762 0.75028 0.0
H2179 H 0.17241 0.30153 0.76359 0.0
H2180 H 0.13215 0.3126 0.81908 0.0
H2181 H 0.15168 0.34567 0.82236 0.0
C2182 C 0.18544 0.36164 0.79713 0.0
C2183 C 0.20312 0.36787 0.78281 0.0
C2184 C 0.17325 0.3429 0.79486 0.0
C2185 C 0.20761 0.35549 0.76575 0.0
C2186 C 0.19552 0.33696 0.76338 0.0
C2187 C 0.1675 0.31117 0.77627 0.0
C2188 C 0.1509 0.30419 0.79115 0.0
C2189 C 0.17863 0.33034 0.77801 0.0
C2190 C 0.14517 0.31715 0.80754 0.0
C2191 C 0.15624 0.33623 0.8094 0.0
H2192 H 0.41177 0.44128 0.54104 0.0
H2193 H 0.44344 0.49597 0.516 0.0
H2194 H 0.4827 0.47881 0.51194 0.0
H2195 H 0.50796 0.44807 0.51447 0.0
H2196 H 0.47638 0.39303 0.53871 0.0
H2197 H 0.43744 0.41055 0.5442 0.0
C2198 C 0.42726 0.44947 0.53475 0.0
C2199 C 0.42449 0.46993 0.52881 0.0
C2200 C 0.44994 0.43945 0.53232 0.0
C2201 C 0.44488 0.48024 0.52068 0.0
C2202 C 0.46743 0.47043 0.51835 0.0
C2203 C 0.49266 0.43992 0.52114 0.0
C2204 C 0.49522 0.41923 0.52618 0.0
C2205 C 0.47016 0.45002 0.52401 0.0
C2206 C 0.47503 0.40895 0.53467 0.0
C2207 C 0.45269 0.41896 0.53779 0.0
H2208 H 0.66924 0.20472 0.21705 0.0
H2209 H 0.66448 0.21042 0.28232 0.0
H2210 H 0.68813 0.17927 0.28643 0.0
H2211 H 0.71115 0.15073 0.27154 0.0
H2212 H 0.71566 0.1451 0.20623 0.0
H2213 H 0.69069 0.17556 0.20218 0.0
C2214 C 0.67305 0.19908 0.23219 0.0
C2215 C 0.66508 0.21013 0.24932 0.0
C2216 C 0.68659 0.18102 0.23448 0.0
C2217 C 0.67064 0.20256 0.26881 0.0
C2218 C 0.68406 0.1846 0.2712 0.0
C2219 C 0.70645 0.15601 0.25641 0.0
C2220 C 0.71533 0.14555 0.23923 0.0
C2221 C 0.69227 0.17376 0.25415 0.0
C2222 C 0.70914 0.15279 0.21975 0.0
C2223 C 0.69489 0.17028 0.2174 0.0
H2224 H 0.58673 0.94863 0.95734 0.0
H2225 H 0.56795 0.99163 1.00442 0.0
H2226 H 0.52938 0.97399 0.0104 0.0
H2227 H 0.50141 0.94581 1.00319 0.0
H2228 H 0.52082 0.90141 0.95775 0.0
H2229 H 0.55843 0.92023 0.95006 0.0
C2230 C 0.57417 0.95416 0.96887 0.0
C2231 C 0.58035 0.97144 0.98042 0.0
C2232 C 0.552 0.94375 0.97247 0.0
C2233 C 0.56384 0.97832 0.99536 0.0
C2234 C 0.54167 0.96828 0.99877 0.0
C2235 C 0.51366 0.94042 0.99136 0.0
C2236 C 0.50818 0.92235 0.9809 0.0
C2237 C 0.53559 0.95095 0.98748 0.0
C2238 C 0.52455 0.91534 0.96594 0.0
C2239 C 0.54611 0.92605 0.9616 0.0
H2240 H 0.006 0.07297 0.50495 0.0
H2241 H 0.99701 0.10936 0.45098 0.0
H2242 H 0.96035 0.08981 0.44174 0.0
H2243 H 0.93031 0.06258 0.44958 0.0
H2244 H 0.93804 0.02871 0.50547 0.0
H2245 H 0.97549 0.04711 0.51344 0.0
C2246 C 0.99617 0.07644 0.49103 0.0
C2247 C 1.00436 0.09231 0.47847 0.0
C2248 C 0.97469 0.06572 0.48629 0.0
C2249 C 0.99111 0.09706 0.46078 0.0
C2250 C 0.97014 0.08594 0.45554 0.0
C2251 C 0.9402 0.0593 0.4635 0.0
C2252 C 0.93134 0.04428 0.47688 0.0
C2253 C 0.96163 0.07029 0.46827 0.0
C2254 C 0.94428 0.04029 0.49495 0.0
C2255 C 0.96582 0.05073 0.4995 0.0
H2256 H 0.13366 0.13853 0.45717 0.0
H2257 H 0.08057 0.18717 0.45631 0.0
H2258 H 0.10878 0.20824 0.43666 0.0
H2259 H 0.14911 0.21343 0.42066 0.0
H2260 H 0.20272 0.16524 0.4225 0.0
H2261 H 0.17374 0.14351 0.44065 0.0
C2262 C 0.12817 0.1537 0.45259 0.0
C2263 C 0.10495 0.16119 0.45828 0.0
C2264 C 0.14464 0.16589 0.44145 0.0
C2265 C 0.09829 0.18095 0.45224 0.0
C2266 C 0.11444 0.19305 0.44096 0.0
C2267 C 0.15441 0.19811 0.42486 0.0
C2268 C 0.17813 0.19102 0.42016 0.0
C2269 C 0.13774 0.18575 0.43561 0.0
C2270 C 0.18465 0.17116 0.42591 0.0
C2271 C 0.16807 0.15869 0.43633 0.0
H2272 H 0.06216 0.88725 0.66195 0.0
H2273 H 0.09174 0.9332 0.70155 0.0
H2274 H 0.11182 0.90696 0.72211 0.0
H2275 H 0.12129 0.87085 0.72851 0.0
H2276 H 0.0901 0.82487 0.68979 0.0
H2277 H 0.07023 0.85111 0.66917 0.0
C2278 C 0.07312 0.89147 0.67502 0.0
C2279 C 0.07569 0.91212 0.68015 0.0
C2280 C 0.08425 0.87629 0.6869 0.0
C2281 C 0.08949 0.9174 0.69737 0.0
C2282 C 0.10101 0.90242 0.70906 0.0
C2283 C 0.11022 0.86664 0.7155 0.0
C2284 C 0.10728 0.84598 0.71057 0.0
C2285 C 0.09859 0.88181 0.70392 0.0
C2286 C 0.09251 0.84066 0.69392 0.0
C2287 C 0.08125 0.85566 0.68209 0.0
H2288 H 0.43066 0.82632 0.93752 0.0
H2289 H 0.39213 0.85997 0.98394 0.0
H2290 H 0.35303 0.84751 0.97099 0.0
H2291 H 0.32963 0.82624 0.94715 0.0
H2292 H 0.36813 0.79234 0.90091 0.0
H2293 H 0.40714 0.80578 0.91306 0.0
C2294 C 0.41373 0.83102 0.94477 0.0
C2295 C 0.41449 0.84407 0.96175 0.0
C2296 C 0.39117 0.82372 0.93728 0.0
C2297 C 0.39224 0.84995 0.97088 0.0
C2298 C 0.36979 0.8428 0.96349 0.0
C2299 C 0.34652 0.82186 0.93963 0.0
C2300 C 0.3458 0.80823 0.92312 0.0
C2301 C 0.36902 0.82957 0.94679 0.0
C2302 C 0.36799 0.80277 0.91364 0.0
C2303 C 0.39039 0.81044 0.92061 0.0
H2304 H 0.39686 0.14186 0.22616 0.0
H2305 H 0.42852 0.18984 0.1901 0.0
H2306 H 0.45147 0.16481 0.17017 0.0
H2307 H 0.46226 0.12912 0.16286 0.0
H2308 H 0.43143 0.08133 0.19969 0.0
H2309 H 0.40844 0.10636 0.21947 0.0
C2310 C 0.40866 0.1468 0.21385 0.0
C2311 C 0.41086 0.16767 0.20951 0.0
C2312 C 0.42197 0.13234 0.20263 0.0
C2313 C 0.42663 0.17389 0.19379 0.0
C2314 C 0.43966 0.15957 0.18235 0.0
C2315 C 0.4504 0.12422 0.17514 0.0
C2316 C 0.44848 0.10338 0.17974 0.0
C2317 C 0.43743 0.13875 0.18659 0.0
C2318 C 0.43337 0.09727 0.19595 0.0
C2319 C 0.42014 0.11157 0.2072 0.0
H2320 H 0.16806 0.80824 0.08065 0.0
H2321 H 0.13217 0.81591 0.13867 0.0
H2322 H 0.09912 0.83484 0.12232 0.0
H2323 H 0.0792 0.84781 0.09128 0.0
H2324 H 0.11538 0.84035 0.03335 0.0
H2325 H 0.14935 0.82287 0.04994 0.0
C2326 C 0.15313 0.81419 0.08978 0.0
C2327 C 0.15265 0.81051 0.11089 0.0
C2328 C 0.13406 0.82505 0.08026 0.0
C2329 C 0.13312 0.81845 0.12241 0.0
C2330 C 0.11411 0.82925 0.11305 0.0
C2331 C 0.09457 0.84246 0.08228 0.0
C2332 C 0.09455 0.84534 0.06104 0.0
C2333 C 0.11419 0.83241 0.09194 0.0
C2334 C 0.11477 0.83838 0.0497 0.0
C2335 C 0.13426 0.82832 0.05918 0.0
H2336 H 0.46544 0.88271 0.35152 0.0
H2337 H 0.41766 0.92979 0.32919 0.0
H2338 H 0.39314 0.90442 0.31102 0.0
H2339 H 0.38511 0.8687 0.30189 0.0
H2340 H 0.4342 0.82185 0.32269 0.0
H2341 H 0.45854 0.84718 0.34107 0.0
C2342 C 0.44958 0.88734 0.34274 0.0
C2343 C 0.44316 0.90803 0.34182 0.0
C2344 C 0.4359 0.87271 0.33209 0.0
C2345 C 0.42291 0.91395 0.33005 0.0
C2346 C 0.40889 0.89945 0.31974 0.0
C2347 C 0.40108 0.86409 0.31054 0.0
C2348 C 0.40777 0.84345 0.31114 0.0
C2349 C 0.41516 0.87878 0.32073 0.0
C2350 C 0.42879 0.83766 0.32201 0.0
C2351 C 0.44261 0.85212 0.33255 0.0
H2352 H 0.43018 0.18183 0.58014 0.0
H2353 H 0.38952 0.14548 0.53722 0.0
H2354 H 0.35102 0.15805 0.55135 0.0
H2355 H 0.32878 0.18099 0.57449 0.0
H2356 H 0.36952 0.21754 0.61721 0.0
H2357 H 0.40788 0.20318 0.60466 0.0
C2358 C 0.41292 0.17649 0.57398 0.0
C2359 C 0.41289 0.16277 0.55752 0.0
C2360 C 0.39074 0.1839 0.5821 0.0
C2361 C 0.39023 0.15603 0.54983 0.0
C2362 C 0.36813 0.16327 0.55789 0.0
C2363 C 0.34601 0.18569 0.58122 0.0
C2364 C 0.34612 0.20045 0.59674 0.0
C2365 C 0.36814 0.17745 0.57381 0.0
C2366 C 0.36874 0.20626 0.60524 0.0
C2367 C 0.39077 0.19808 0.59802 0.0
H2368 H 0.08546 0.16134 0.79011 0.0
H2369 H 0.15155 0.15987 0.82607 0.0
H2370 H 0.13577 0.13116 0.84543 0.0
H2371 H 0.10366 0.10609 0.8519 0.0
H2372 H 0.03701 0.10755 0.81665 0.0
H2373 H 0.0526 0.13645 0.79724 0.0
C2374 C 0.09629 0.15486 0.8023 0.0
C2375 C 0.11976 0.16274 0.80649 0.0
C2376 C 0.08707 0.13823 0.81346 0.0
C2377 C 0.13364 0.15396 0.82225 0.0
C2378 C 0.12456 0.13757 0.83343 0.0
C2379 C 0.09236 0.11282 0.84015 0.0
C2380 C 0.06913 0.10454 0.83584 0.0
C2381 C 0.10137 0.12951 0.82911 0.0
C2382 C 0.05506 0.11335 0.82021 0.0
C2383 C 0.06391 0.13001 0.80915 0.0
H2384 H 0.21855 0.41642 0.13531 0.0
H2385 H 0.18558 0.45135 0.18356 0.0
H2386 H 0.16479 0.47274 0.15852 0.0
H2387 H 0.15488 0.48082 0.12287 0.0
H2388 H 0.18788 0.44593 0.0746 0.0
H2389 H 0.20982 0.4253 0.09962 0.0
C2390 C 0.20675 0.42866 0.14035 0.0
C2391 C 0.20352 0.43214 0.16135 0.0
C2392 C 0.19485 0.44092 0.12583 0.0
C2393 C 0.18854 0.44838 0.16756 0.0
C2394 C 0.17653 0.46056 0.15322 0.0
C2395 C 0.16679 0.46866 0.11782 0.0
C2396 C 0.16955 0.46486 0.09683 0.0
C2397 C 0.17936 0.45685 0.13232 0.0
C2398 C 0.18551 0.44929 0.09059 0.0
C2399 C 0.19796 0.43741 0.10492 0.0
H2400 H 0.72446 0.09246 0.88011 0.0
H2401 H 0.67692 0.07181 0.83198 0.0
H2402 H 0.65152 0.05384 0.85675 0.0
H2403 H 0.64225 0.04459 0.89225 0.0
H2404 H 0.68949 0.06585 0.94032 0.0
H2405 H 0.71547 0.08301 0.91544 0.0
C2406 C 0.70847 0.08416 0.87501 0.0
C2407 C 0.70263 0.08362 0.85414 0.0
C2408 C 0.69383 0.07396 0.88937 0.0
C2409 C 0.68206 0.07237 0.84786 0.0
C2410 C 0.6674 0.06219 0.86206 0.0
C2411 C 0.65811 0.0531 0.89731 0.0
C2412 C 0.66381 0.05393 0.9182 0.0
C2413 C 0.673 0.06299 0.88287 0.0
C2414 C 0.68476 0.06474 0.92438 0.0
C2415 C 0.69958 0.07466 0.91015 0.0
H2416 H 0.85306 0.90783 0.36046 0.0
H2417 H 0.79132 0.94861 0.35665 0.0
H2418 H 0.80681 0.9677 0.38579 0.0
H2419 H 0.83811 0.97282 0.41253 0.0
H2420 H 0.89917 0.93131 0.4163 0.0
H2421 H 0.88362 0.91248 0.3872 0.0
C2422 C 0.84279 0.92074 0.36607 0.0
C2423 C 0.82097 0.92665 0.35628 0.0
C2424 C 0.85173 0.93159 0.38291 0.0
C2425 C 0.80828 0.94376 0.36366 0.0
C2426 C 0.81707 0.95464 0.38044 0.0
C2427 C 0.84788 0.95956 0.40709 0.0
C2428 C 0.8699 0.95362 0.41661 0.0
C2429 C 0.83878 0.94869 0.39023 0.0
C2430 C 0.88244 0.93649 0.40915 0.0
C2431 C 0.87348 0.9256 0.39253 0.0
H2432 H 0.83947 0.0716 0.17093 0.0
H2433 H 0.79146 0.10559 0.13162 0.0
H2434 H 0.8087 0.08859 0.1018 0.0
H2435 H 0.83831 0.06461 0.08675 0.0
H2436 H 0.88811 0.03211 0.12579 0.0
H2437 H 0.8695 0.04784 0.15579 0.0
C2438 C 0.83273 0.0751 0.15582 0.0
C2439 C 0.81424 0.08978 0.15343 0.0
C2440 C 0.84316 0.06558 0.13869 0.0
C2441 C 0.80583 0.09445 0.13378 0.0
C2442 C 0.81563 0.08469 0.11674 0.0
C2443 C 0.8449 0.06091 0.10186 0.0
C2444 C 0.86451 0.04723 0.10408 0.0
C2445 C 0.83443 0.07033 0.11899 0.0
C2446 C 0.87318 0.04274 0.12371 0.0
C2447 C 0.86248 0.05167 0.14085 0.0
H2448 H 0.35324 0.58773 0.58858 0.0
H2449 H 0.33903 0.52564 0.60538 0.0
H2450 H 0.31993 0.53702 0.63728 0.0
H2451 H 0.30989 0.56498 0.66148 0.0
H2452 H 0.32355 0.62692 0.64312 0.0
H2453 H 0.34025 0.6153 0.61093 0.0
C2454 C 0.34596 0.57669 0.59924 0.0
C2455 C 0.34786 0.55588 0.59479 0.0
C2456 C 0.33501 0.58336 0.61737 0.0
C2457 C 0.3378 0.54175 0.6085 0.0
C2458 C 0.32698 0.54827 0.62675 0.0
C2459 C 0.31619 0.5759 0.65031 0.0
C2460 C 0.31592 0.59682 0.65502 0.0
C2461 C 0.32579 0.56908 0.63153 0.0
C2462 C 0.32413 0.61075 0.64025 0.0
C2463 C 0.33361 0.60413 0.62172 0.0
H2464 H 0.15721 0.5997 0.35803 0.0
H2465 H 0.21434 0.55526 0.34957 0.0
H2466 H 0.19895 0.53592 0.37877 0.0
H2467 H 0.16941 0.53207 0.40734 0.0
H2468 H 0.11255 0.57693 0.41508 0.0
H2469 H 0.12782 0.59577 0.38579 0.0
C2470 C 0.16642 0.58586 0.36262 0.0
C2471 C 0.18703 0.57906 0.35166 0.0
C2472 C 0.15754 0.57491 0.37942 0.0
C2473 C 0.19835 0.56079 0.3576 0.0
C2474 C 0.18965 0.5498 0.37441 0.0
C2475 C 0.16052 0.54603 0.40264 0.0
C2476 C 0.13982 0.55305 0.4134 0.0
C2477 C 0.16933 0.55679 0.38555 0.0
C2478 C 0.12829 0.57105 0.40697 0.0
C2479 C 0.13707 0.58189 0.39024 0.0
H2480 H 0.36462 0.47062 0.88783 0.0
H2481 H 0.31529 0.45167 0.93545 0.0
H2482 H 0.28946 0.43446 0.91038 0.0
H2483 H 0.2817 0.42384 0.87501 0.0
H2484 H 0.33119 0.44286 0.82749 0.0
H2485 H 0.3561 0.46107 0.8524 0.0
C2486 C 0.3483 0.46264 0.89276 0.0
C2487 C 0.34206 0.46228 0.91357 0.0
C2488 C 0.33355 0.4528 0.87825 0.0
C2489 C 0.32048 0.45227 0.91957 0.0
C2490 C 0.30577 0.44233 0.90524 0.0
C2491 C 0.29799 0.4319 0.87011 0.0
C2492 C 0.30463 0.43184 0.84937 0.0
C2493 C 0.31226 0.44234 0.88456 0.0
C2494 C 0.32552 0.44275 0.84327 0.0
C2495 C 0.33987 0.45307 0.85755 0.0
H2496 H 0.59258 0.68385 0.96014 0.0
H2497 H 0.62859 0.62546 0.9616 0.0
H2498 H 0.66327 0.63939 0.94285 0.0
H2499 H 0.68443 0.66844 0.92712 0.0
H2500 H 0.64835 0.72675 0.92502 0.0
H2501 H 0.6129 0.71256 0.94273 0.0
C2502 C 0.60791 0.67412 0.95622 0.0
C2503 C 0.60786 0.6536 0.96243 0.0
C2504 C 0.62798 0.68224 0.94534 0.0
C2505 C 0.62798 0.64128 0.95712 0.0
C2506 C 0.64794 0.64926 0.94639 0.0
C2507 C 0.66879 0.67805 0.93045 0.0
C2508 C 0.66925 0.6987 0.92477 0.0
C2509 C 0.64831 0.66977 0.94061 0.0
C2510 C 0.64863 0.71082 0.92915 0.0
C2511 C 0.62829 0.70272 0.93935 0.0
H2512 H 0.62628 0.37352 0.23257 0.0
H2513 H 0.59465 0.32336 0.19971 0.0
H2514 H 0.57356 0.34708 0.17696 0.0
H2515 H 0.56416 0.38216 0.16645 0.0
H2516 H 0.59451 0.43234 0.2001 0.0
H2517 H 0.61605 0.40862 0.22257 0.0
C2518 C 0.61491 0.36782 0.22033 0.0
C2519 C 0.61216 0.34671 0.21772 0.0
C2520 C 0.60259 0.38156 0.20752 0.0
C2521 C 0.59696 0.33952 0.20206 0.0
C2522 C 0.58498 0.35308 0.18903 0.0
C2523 C 0.57564 0.38788 0.17861 0.0
C2524 C 0.57789 0.40898 0.18153 0.0
C2525 C 0.58768 0.37413 0.1916 0.0
C2526 C 0.59241 0.41617 0.19763 0.0
C2527 C 0.60479 0.40262 0.21041 0.0
H2528 H 0.82883 0.33305 0.42501 0.0
H2529 H 0.86886 0.27649 0.42596 0.0
H2530 H 0.90297 0.29308 0.44326 0.0
H2531 H 0.92118 0.32347 0.45902 0.0
H2532 H 0.88148 0.38019 0.45745 0.0
H2533 H 0.84776 0.36376 0.43951 0.0
C2534 C 0.84503 0.32435 0.42894 0.0
C2535 C 0.84613 0.3035 0.42421 0.0
C2536 C 0.86474 0.33403 0.43884 0.0
C2537 C 0.86741 0.29254 0.42936 0.0
C2538 C 0.88697 0.30202 0.43931 0.0
C2539 C 0.9052 0.33227 0.45469 0.0
C2540 C 0.90393 0.35306 0.45969 0.0
C2541 C 0.8858 0.32273 0.44426 0.0
C2542 C 0.88307 0.36419 0.45383 0.0
C2543 C 0.86368 0.35479 0.44358 0.0
H2544 H 0.8889 0.63277 0.72502 0.0
H2545 H 0.93543 0.68159 0.70431 0.0
H2546 H 0.961 0.65736 0.68591 0.0
H2547 H 0.96986 0.6224 0.67521 0.0
H2548 H 0.92313 0.57351 0.69537 0.0
H2549 H 0.89805 0.59762 0.71452 0.0
C2550 C 0.90452 0.63815 0.71637 0.0
C2551 C 0.91011 0.65907 0.71606 0.0
C2552 C 0.91918 0.62408 0.70574 0.0
C2553 C 0.93076 0.66563 0.70504 0.0
C2554 C 0.94535 0.65176 0.6944 0.0
C2555 C 0.95409 0.61699 0.68365 0.0
C2556 C 0.94838 0.5961 0.68369 0.0
C2557 C 0.93967 0.63097 0.69456 0.0
C2558 C 0.92814 0.58941 0.69515 0.0
C2559 C 0.91367 0.60324 0.70602 0.0
H2560 H 0.57729 0.32763 0.57619 0.0
H2561 H 0.6175 0.36889 0.53752 0.0
H2562 H 0.65609 0.35687 0.55195 0.0
H2563 H 0.67873 0.33338 0.57429 0.0
H2564 H 0.63844 0.29166 0.61241 0.0
H2565 H 0.59983 0.30516 0.59952 0.0
C2566 C 0.59446 0.33417 0.57104 0.0
C2567 C 0.59436 0.34915 0.55572 0.0
C2568 C 0.61671 0.327 0.57924 0.0
C2569 C 0.6169 0.35733 0.54925 0.0
C2570 C 0.63905 0.35043 0.55748 0.0
C2571 C 0.66152 0.32734 0.57992 0.0
C2572 C 0.66164 0.31143 0.59429 0.0
C2573 C 0.63923 0.33507 0.57229 0.0
C2574 C 0.63905 0.30383 0.60133 0.0
C2575 C 0.61687 0.31155 0.59394 0.0
H2576 H 0.89346 0.37278 0.7865 0.0
H2577 H 0.93855 0.32357 0.80833 0.0
H2578 H 0.96324 0.34752 0.82794 0.0
H2579 H 0.97169 0.3824 0.83932 0.0
H2580 H 0.92667 0.43169 0.81758 0.0
H2581 H 0.90239 0.40782 0.79746 0.0
C2582 C 0.90858 0.36727 0.79566 0.0
C2583 C 0.91403 0.34633 0.79598 0.0
C2584 C 0.92276 0.38118 0.80689 0.0
C2585 C 0.93403 0.33956 0.80764 0.0
C2586 C 0.9481 0.35327 0.81895 0.0
C2587 C 0.95647 0.38793 0.8303 0.0
C2588 C 0.95097 0.40886 0.8301 0.0
C2589 C 0.94258 0.37409 0.81876 0.0
C2590 C 0.93147 0.41574 0.81793 0.0
C2591 C 0.91748 0.40206 0.8065 0.0
H2592 H 0.83187 0.68548 0.0814 0.0
H2593 H 0.87362 0.73053 0.11414 0.0
H2594 H 0.9117 0.71607 0.10104 0.0
H2595 H 0.93323 0.69162 0.07901 0.0
H2596 H 0.89137 0.64701 0.04576 0.0
H2597 H 0.85348 0.66024 0.0604 0.0
C2598 C 0.84929 0.69207 0.08582 0.0
C2599 C 0.84974 0.70915 0.09874 0.0
C2600 C 0.87121 0.68378 0.07806 0.0
C2601 C 0.87259 0.71743 0.10422 0.0
C2602 C 0.89444 0.70917 0.0967 0.0
C2603 C 0.91586 0.68465 0.07508 0.0
C2604 C 0.91529 0.66832 0.06122 0.0
C2605 C 0.89399 0.69249 0.08342 0.0
C2606 C 0.89249 0.65959 0.05633 0.0
C2607 C 0.87073 0.66718 0.06468 0.0
H2608 H 0.61856 0.64565 0.29556 0.0
H2609 H 0.57733 0.69313 0.32489 0.0
H2610 H 0.55332 0.66768 0.34351 0.0
H2611 H 0.54418 0.63175 0.35144 0.0
H2612 H 0.58396 0.58437 0.32057 0.0
H2613 H 0.60842 0.60982 0.30251 0.0
C2614 C 0.60441 0.65037 0.30613 0.0
C2615 C 0.59984 0.67122 0.30902 0.0
C2616 C 0.59042 0.63565 0.31643 0.0
C2617 C 0.58111 0.67717 0.32242 0.0
C2618 C 0.56746 0.66263 0.33308 0.0
C2619 C 0.5583 0.62707 0.34082 0.0
C2620 C 0.56238 0.60622 0.33741 0.0
C2621 C 0.57197 0.64182 0.33023 0.0
C2622 C 0.58041 0.60031 0.32335 0.0
C2623 C 0.59445 0.61486 0.31309 0.0
H2624 H 0.68831 0.96442 0.60235 0.0
H2625 H 0.61448 0.94442 0.61488 0.0
H2626 H 0.62808 0.92831 0.64616 0.0
H2627 H 0.66078 0.91893 0.66956 0.0
H2628 H 0.7349 0.93842 0.65804 0.0
H2629 H 0.72133 0.95607 0.62712 0.0
C2630 C 0.6752 0.95672 0.61205 0.0
C2631 C 0.65041 0.95542 0.60602 0.0
C2632 C 0.68319 0.94738 0.63023 0.0
C2633 C 0.63371 0.94531 0.6188 0.0
C2634 C 0.64145 0.93615 0.63681 0.0
C2635 C 0.67406 0.92689 0.66024 0.0
C2636 C 0.6989 0.92708 0.66599 0.0
C2637 C 0.66615 0.93684 0.64253 0.0
C2638 C 0.71568 0.93803 0.65399 0.0
C2639 C 0.70792 0.94804 0.63625 0.0
loop_
_geom_bond_atom_site_label_1
_geom_bond_atom_site_label_2
_geom_bond_distance
_geom_bond_site_symmetry_2
_ccdc_geom_bond_type
Cu0 N1 1.999 . S
Cu0 O6 1.974 . S
Cu0 N11 1.985 . S
Cu0 O20 1.959 . S
N1 Cu0 1.999 . S
N1 C3 1.263 . S
N1 C5 1.389 . S
N2 C3 1.358 . S
N2 C4 1.400 . S
C3 N1 1.263 . S
C3 N2 1.358 . S
C3 H9 0.930 . S
C4 N2 1.400 . S
C4 C5 1.351 . S
C4 H21 0.930 . S
C5 N1 1.389 . S
C5 C4 1.351 . S
C5 H10 0.930 . S
O6 Cu0 1.974 . S
O6 C16 1.282 . S
C7 O8 1.261 . S
C7 O20 1.251 . S
O8 C7 1.261 . S
H9 C3 0.930 . S
H10 C5 0.930 . S
N11 Cu0 1.985 . S
N11 C13 1.335 . S
N11 C14 1.390 . S
N12 C13 1.345 . S
N12 C15 1.336 . S
C13 N11 1.335 . S
C13 N12 1.345 . S
C13 H18 0.930 . S
C14 N11 1.390 . S
C14 C15 1.346 . S
C14 H19 0.930 . S
C15 N12 1.336 . S
C15 C14 1.346 . S
C15 H22 0.929 . S
C16 O6 1.282 . S
C16 O17 1.216 . S
O17 C16 1.216 . S
H18 C13 0.930 . S
H19 C14 0.930 . S
O20 Cu0 1.959 . S
O20 C7 1.251 . S
H21 C4 0.930 . S
H22 C15 0.929 . S
Cu23 N24 1.999 1_565 S
Cu23 O29 1.974 . S
Cu23 N34 1.985 . S
Cu23 O43 1.959 . S
N24 Cu23 1.999 1_545 S
N24 C26 1.263 . S
N24 C28 1.389 . S
N25 C26 1.358 . S
N25 C27 1.400 . S
C26 N24 1.263 . S
C26 N25 1.358 . S
C26 H32 0.930 . S
C27 N25 1.400 . S
C27 C28 1.351 . S
C27 H44 0.930 . S
C28 N24 1.389 . S
C28 C27 1.351 . S
C28 H33 0.930 . S
O29 Cu23 1.974 . S
O29 C39 1.282 . S
C30 O31 1.261 . S
C30 O43 1.251 . S
O31 C30 1.261 . S
H32 C26 0.930 . S
H33 C28 0.930 . S
N34 Cu23 1.985 . S
N34 C36 1.335 . S
N34 C37 1.390 . S
N35 C36 1.345 . S
N35 C38 1.336 . S
C36 N34 1.335 . S
C36 N35 1.345 . S
C36 H41 0.930 . S
C37 N34 1.390 . S
C37 C38 1.346 . S
C37 H42 0.930 . S
C38 N35 1.336 . S
C38 C37 1.346 . S
C38 H45 0.929 . S
C39 O29 1.282 . S
C39 O40 1.249 . S
O40 C39 1.249 . S
H41 C36 0.930 . S
H42 C37 0.930 . S
O43 Cu23 1.959 . S
O43 C30 1.251 . S
H44 C27 0.930 . S
H45 C38 0.929 . S
Cu46 N47 1.999 . S
Cu46 O52 1.974 . S
Cu46 N57 1.985 . S
Cu46 O66 1.959 . S
N47 Cu46 1.999 . S
N47 C49 1.263 . S
N47 C51 1.389 . S
N48 C49 1.358 . S
N48 C50 1.400 . S
C49 N47 1.263 . S
C49 N48 1.358 . S
C49 H55 0.930 . S
C50 N48 1.400 . S
C50 C51 1.351 . S
C50 H67 0.930 . S
C51 N47 1.389 . S
C51 C50 1.351 . S
C51 H56 0.930 . S
O52 Cu46 1.974 . S
O52 C62 1.282 . S
C53 O54 1.261 . S
C53 O66 1.251 . S
O54 C53 1.261 . S
H55 C49 0.930 . S
H56 C51 0.930 . S
N57 Cu46 1.985 . S
N57 C59 1.335 . S
N57 C60 1.390 . S
N58 C59 1.345 . S
N58 C61 1.336 . S
C59 N57 1.335 . S
C59 N58 1.345 . S
C59 H64 0.930 . S
C60 N57 1.390 . S
C60 C61 1.346 . S
C60 H65 0.930 . S
C61 N58 1.336 . S
C61 C60 1.346 . S
C61 H68 0.929 . S
C62 O52 1.282 . S
C62 O63 1.216 . S
O63 C62 1.216 . S
H64 C59 0.930 . S
H65 C60 0.930 . S
O66 Cu46 1.959 . S
O66 C53 1.251 . S
H67 C50 0.930 . S
H68 C61 0.929 . S
Cu69 N70 1.999 1_545 S
Cu69 O75 1.974 . S
Cu69 N80 1.985 . S
Cu69 O89 1.959 . S
N70 Cu69 1.999 1_565 S
N70 C72 1.263 . S
N70 C74 1.389 . S
N71 C72 1.358 . S
N71 C73 1.400 . S
C72 N70 1.263 . S
C72 N71 1.358 . S
C72 H78 0.930 . S
C73 N71 1.400 . S
C73 C74 1.351 . S
C73 H90 0.930 . S
C74 N70 1.389 . S
C74 C73 1.351 . S
C74 H79 0.930 . S
O75 Cu69 1.974 . S
O75 C85 1.282 . S
C76 O77 1.261 . S
C76 O89 1.251 . S
O77 C76 1.261 . S
H78 C72 0.930 . S
H79 C74 0.930 . S
N80 Cu69 1.985 . S
N80 C82 1.335 . S
N80 C83 1.390 . S
N81 C82 1.345 . S
N81 C84 1.336 . S
C82 N80 1.335 . S
C82 N81 1.345 . S
C82 H87 0.930 . S
C83 N80 1.390 . S
C83 C84 1.346 . S
C83 H88 0.930 . S
C84 N81 1.336 . S
C84 C83 1.346 . S
C84 H91 0.929 . S
C85 O75 1.282 . S
C85 O86 1.216 . S
O86 C85 1.216 . S
H87 C82 0.930 . S
H88 C83 0.930 . S
O89 Cu69 1.959 . S
O89 C76 1.251 . S
H90 C73 0.930 . S
H91 C84 0.929 . S
Cu92 N93 1.999 . S
Cu92 O98 1.974 . S
Cu92 N103 1.985 . S
Cu92 O112 1.959 . S
N93 Cu92 1.999 . S
N93 C95 1.263 . S
N93 C97 1.389 . S
N94 C95 1.358 . S
N94 C96 1.400 . S
C95 N93 1.263 . S
C95 N94 1.358 . S
C95 H101 0.930 . S
C96 N94 1.400 . S
C96 C97 1.351 . S
C96 H113 0.930 . S
C97 N93 1.389 . S
C97 C96 1.351 . S
C97 H102 0.930 . S
O98 Cu92 1.974 . S
O98 C108 1.282 . S
C99 O100 1.261 . S
C99 O112 1.251 . S
O100 C99 1.261 . S
H101 C95 0.930 . S
H102 C97 0.930 . S
N103 Cu92 1.985 . S
N103 C105 1.335 . S
N103 C106 1.390 . S
N104 C105 1.345 . S
N104 C107 1.336 . S
C105 N103 1.335 . S
C105 N104 1.345 . S
C105 H110 0.930 . S
C106 N103 1.390 . S
C106 C107 1.346 . S
C106 H111 0.930 . S
C107 N104 1.336 . S
C107 C106 1.346 . S
C107 H114 0.929 . S
C108 O98 1.282 . S
C108 O109 1.216 . S
O109 C108 1.216 . S
H110 C105 0.930 . S
H111 C106 0.930 . S
O112 Cu92 1.959 . S
O112 C99 1.251 . S
H113 C96 0.930 . S
H114 C107 0.929 . S
Cu115 N116 1.999 1_565 S
Cu115 O121 1.974 . S
Cu115 N126 1.985 . S
Cu115 O135 1.959 . S
N116 Cu115 1.999 1_545 S
N116 C118 1.263 . S
N116 C120 1.389 . S
N117 C118 1.358 . S
N117 C119 1.400 . S
C118 N116 1.263 . S
C118 N117 1.358 . S
C118 H124 0.930 . S
C119 N117 1.400 . S
C119 C120 1.351 . S
C119 H136 0.930 . S
C120 N116 1.389 . S
C120 C119 1.351 . S
C120 H125 0.930 . S
O121 Cu115 1.974 . S
O121 C131 1.282 . S
C122 O123 1.261 . S
C122 O135 1.251 . S
O123 C122 1.261 . S
H124 C118 0.930 . S
H125 C120 0.930 . S
N126 Cu115 1.985 . S
N126 C128 1.335 . S
N126 C129 1.390 . S
N127 C128 1.345 . S
N127 C130 1.336 . S
C128 N126 1.335 . S
C128 N127 1.345 . S
C128 H133 0.930 . S
C129 N126 1.390 . S
C129 C130 1.346 . S
C129 H134 0.930 . S
C130 N127 1.336 . S
C130 C129 1.346 . S
C130 H137 0.929 . S
C131 O121 1.282 . S
C131 O132 1.216 . S
O132 C131 1.216 . S
H133 C128 0.930 . S
H134 C129 0.930 . S
O135 Cu115 1.959 . S
O135 C122 1.251 . S
H136 C119 0.930 . S
H137 C130 0.929 . S
Cu138 N139 1.999 . S
Cu138 O144 1.974 . S
Cu138 N149 1.985 . S
Cu138 O158 1.959 . S
N139 Cu138 1.999 . S
N139 C141 1.263 . S
N139 C143 1.389 . S
N140 C141 1.358 . S
N140 C142 1.400 . S
C141 N139 1.263 . S
C141 N140 1.358 . S
C141 H147 0.930 . S
C142 N140 1.400 . S
C142 C143 1.351 . S
C142 H159 0.930 . S
C143 N139 1.389 . S
C143 C142 1.351 . S
C143 H148 0.930 . S
O144 Cu138 1.974 . S
O144 C154 1.282 . S
C145 O146 1.261 . S
C145 O158 1.251 . S
O146 C145 1.261 . S
H147 C141 0.930 . S
H148 C143 0.930 . S
N149 Cu138 1.985 . S
N149 C151 1.335 . S
N149 C152 1.390 . S
N150 C151 1.345 . S
N150 C153 1.336 . S
C151 N149 1.335 . S
C151 N150 1.345 . S
C151 H156 0.930 . S
C152 N149 1.390 . S
C152 C153 1.346 . S
C152 H157 0.930 . S
C153 N150 1.336 . S
C153 C152 1.346 . S
C153 H160 0.929 . S
C154 O144 1.282 . S
C154 O155 1.216 . S
O155 C154 1.216 . S
H156 C151 0.930 . S
H157 C152 0.930 . S
O158 Cu138 1.959 . S
O158 C145 1.251 . S
H159 C142 0.930 . S
H160 C153 0.929 . S
Cu161 N162 1.999 1_545 S
Cu161 O167 1.974 . S
Cu161 N172 1.985 . S
Cu161 O181 1.959 . S
N162 Cu161 1.999 1_565 S
N162 C164 1.263 . S
N162 C166 1.389 . S
N163 C164 1.358 . S
N163 C165 1.400 . S
C164 N162 1.263 . S
C164 N163 1.358 . S
C164 H170 0.930 . S
C165 N163 1.400 . S
C165 C166 1.351 . S
C165 H182 0.930 . S
C166 N162 1.389 . S
C166 C165 1.351 . S
C166 H171 0.930 . S
O167 Cu161 1.974 . S
O167 C177 1.282 . S
C168 O169 1.261 . S
C168 O181 1.251 . S
O169 C168 1.261 . S
H170 C164 0.930 . S
H171 C166 0.930 . S
N172 Cu161 1.985 . S
N172 C174 1.335 . S
N172 C175 1.390 . S
N173 C174 1.345 . S
N173 C176 1.336 . S
C174 N172 1.335 . S
C174 N173 1.345 . S
C174 H179 0.930 . S
C175 N172 1.390 . S
C175 C176 1.346 . S
C175 H180 0.930 . S
C176 N173 1.336 . S
C176 C175 1.346 . S
C176 H183 0.929 . S
C177 O167 1.282 . S
C177 O178 1.249 . S
O178 C177 1.249 . S
H179 C174 0.930 . S
H180 C175 0.930 . S
O181 Cu161 1.959 . S
O181 C168 1.251 . S
H182 C165 0.930 . S
H183 C176 0.929 . S
Cu184 N185 1.999 . S
Cu184 O190 1.974 . S
Cu184 N195 1.985 . S
Cu184 O204 1.959 . S
N185 Cu184 1.999 . S
N185 C187 1.263 . S
N185 C189 1.389 . S
N186 C187 1.358 . S
N186 C188 1.400 . S
C187 N185 1.263 . S
C187 N186 1.358 . S
C187 H193 0.930 . S
C188 N186 1.400 . S
C188 C189 1.351 . S
C188 H205 0.930 . S
C189 N185 1.389 . S
C189 C188 1.351 . S
C189 H194 0.930 . S
O190 Cu184 1.974 . S
O190 C200 1.282 . S
C191 O192 1.261 . S
C191 O204 1.251 . S
O192 C191 1.261 . S
H193 C187 0.930 . S
H194 C189 0.930 . S
N195 Cu184 1.985 . S
N195 C197 1.335 . S
N195 C198 1.390 . S
N196 C197 1.345 . S
N196 C199 1.336 . S
C197 N195 1.335 . S
C197 N196 1.345 . S
C197 H202 0.930 . S
C198 N195 1.390 . S
C198 C199 1.346 . S
C198 H203 0.930 . S
C199 N196 1.336 . S
C199 C198 1.346 . S
C199 H206 0.929 . S
C200 O190 1.282 . S
C200 O201 1.216 . S
O201 C200 1.216 . S
H202 C197 0.930 . S
H203 C198 0.930 . S
O204 Cu184 1.959 . S
O204 C191 1.251 . S
H205 C188 0.930 . S
H206 C199 0.929 . S
Cu207 N208 1.999 . S
Cu207 O213 1.974 . S
Cu207 N218 1.985 . S
Cu207 O227 1.959 . S
N208 Cu207 1.999 . S
N208 C210 1.263 . S
N208 C212 1.389 1_455 S
N209 C210 1.358 . S
N209 C211 1.400 1_455 S
C210 N208 1.263 . S
C210 N209 1.358 . S
C210 H216 0.930 . S
C211 N209 1.400 1_655 S
C211 C212 1.351 . S
C211 H228 0.930 . S
C212 N208 1.389 1_655 S
C212 C211 1.351 . S
C212 H217 0.930 . S
O213 Cu207 1.974 . S
O213 C223 1.282 . S
C214 O215 1.261 1_655 S
C214 O227 1.251 1_655 S
O215 C214 1.261 1_455 S
H216 C210 0.930 . S
H217 C212 0.930 . S
N218 Cu207 1.985 . S
N218 C220 1.335 . S
N218 C221 1.390 . S
N219 C220 1.345 . S
N219 C222 1.336 . S
C220 N218 1.335 . S
C220 N219 1.345 . S
C220 H225 0.930 . S
C221 N218 1.390 . S
C221 C222 1.346 . S
C221 H226 0.930 . S
C222 N219 1.336 . S
C222 C221 1.346 . S
C222 H229 0.929 . S
C223 O213 1.282 . S
C223 O224 1.216 . S
O224 C223 1.216 . S
H225 C220 0.930 . S
H226 C221 0.930 . S
O227 Cu207 1.959 . S
O227 C214 1.251 1_455 S
H228 C211 0.930 . S
H229 C222 0.929 . S
Cu230 N231 1.999 . S
Cu230 O236 1.974 . S
Cu230 N241 1.985 . S
Cu230 O250 1.959 . S
N231 Cu230 1.999 . S
N231 C233 1.263 . S
N231 C235 1.389 . S
N232 C233 1.358 . S
N232 C234 1.400 . S
C233 N231 1.263 . S
C233 N232 1.358 . S
C233 H239 0.930 . S
C234 N232 1.400 . S
C234 C235 1.351 . S
C234 H251 0.930 . S
C235 N231 1.389 . S
C235 C234 1.351 . S
C235 H240 0.930 . S
O236 Cu230 1.974 . S
O236 C246 1.282 . S
C237 O238 1.261 . S
C237 O250 1.251 . S
O238 C237 1.261 . S
H239 C233 0.930 . S
H240 C235 0.930 . S
N241 Cu230 1.985 . S
N241 C243 1.335 . S
N241 C244 1.390 . S
N242 C243 1.345 . S
N242 C245 1.336 . S
C243 N241 1.335 . S
C243 N242 1.345 . S
C243 H248 0.930 . S
C244 N241 1.390 . S
C244 C245 1.346 . S
C244 H249 0.930 . S
C245 N242 1.336 . S
C245 C244 1.346 . S
C245 H252 0.929 . S
C246 O236 1.282 . S
C246 O247 1.216 . S
O247 C246 1.216 . S
H248 C243 0.930 . S
H249 C244 0.930 . S
O250 Cu230 1.959 . S
O250 C237 1.251 . S
H251 C234 0.930 . S
H252 C245 0.929 . S
Cu253 N254 1.999 . S
Cu253 O259 1.974 . S
Cu253 N264 1.985 . S
Cu253 O273 1.959 . S
N254 Cu253 1.999 . S
N254 C256 1.263 . S
N254 C258 1.389 . S
N255 C256 1.358 . S
N255 C257 1.400 . S
C256 N254 1.263 . S
C256 N255 1.358 . S
C256 H262 0.930 . S
C257 N255 1.400 . S
C257 C258 1.351 . S
C257 H274 0.930 . S
C258 N254 1.389 . S
C258 C257 1.351 . S
C258 H263 0.930 . S
O259 Cu253 1.974 . S
O259 C269 1.282 . S
C260 O261 1.261 . S
C260 O273 1.251 . S
O261 C260 1.261 . S
H262 C256 0.930 . S
H263 C258 0.930 . S
N264 Cu253 1.985 . S
N264 C266 1.335 1_556 S
N264 C267 1.390 . S
N265 C266 1.345 . S
N265 C268 1.336 1_554 S
C266 N264 1.335 1_554 S
C266 N265 1.345 . S
C266 H271 0.930 . S
C267 N264 1.390 . S
C267 C268 1.346 . S
C267 H272 0.930 . S
C268 N265 1.336 1_556 S
C268 C267 1.346 . S
C268 H275 0.929 . S
C269 O259 1.282 . S
C269 O270 1.216 . S
O270 C269 1.216 . S
H271 C266 0.930 . S
H272 C267 0.930 . S
O273 Cu253 1.959 . S
O273 C260 1.251 . S
H274 C257 0.930 . S
H275 C268 0.929 . S
Cu276 N277 1.999 . S
Cu276 O282 1.974 . S
Cu276 N287 1.985 . S
Cu276 O296 1.959 . S
N277 Cu276 1.999 . S
N277 C279 1.263 . S
N277 C281 1.389 . S
N278 C279 1.358 . S
N278 C280 1.400 . S
C279 N277 1.263 . S
C279 N278 1.358 . S
C279 H285 0.930 . S
C280 N278 1.400 . S
C280 C281 1.351 . S
C280 H297 0.930 . S
C281 N277 1.389 . S
C281 C280 1.351 . S
C281 H286 0.930 . S
O282 Cu276 1.974 . S
O282 C292 1.282 . S
C283 O284 1.261 . S
C283 O296 1.251 . S
O284 C283 1.261 . S
H285 C279 0.930 . S
H286 C281 0.930 . S
N287 Cu276 1.985 . S
N287 C289 1.335 . S
N287 C290 1.390 . S
N288 C289 1.345 . S
N288 C291 1.336 . S
C289 N287 1.335 . S
C289 N288 1.345 . S
C289 H294 0.930 . S
C290 N287 1.390 . S
C290 C291 1.346 . S
C290 H295 0.930 . S
C291 N288 1.336 . S
C291 C290 1.346 . S
C291 H298 0.929 . S
C292 O282 1.282 . S
C292 O293 1.216 . S
O293 C292 1.216 . S
H294 C289 0.930 . S
H295 C290 0.930 . S
O296 Cu276 1.959 . S
O296 C283 1.251 . S
H297 C280 0.930 . S
H298 C291 0.929 . S
Cu299 N300 1.999 . S
Cu299 O305 1.974 . S
Cu299 N310 1.985 . S
Cu299 O319 1.959 . S
N300 Cu299 1.999 . S
N300 C302 1.263 . S
N300 C304 1.389 . S
N301 C302 1.358 . S
N301 C303 1.400 . S
C302 N300 1.263 . S
C302 N301 1.358 . S
C302 H308 0.930 . S
C303 N301 1.400 . S
C303 C304 1.351 . S
C303 H320 0.930 . S
C304 N300 1.389 . S
C304 C303 1.351 . S
C304 H309 0.930 . S
O305 Cu299 1.974 . S
O305 C315 1.282 . S
C306 O307 1.261 . S
C306 O319 1.251 . S
O307 C306 1.261 . S
H308 C302 0.930 . S
H309 C304 0.930 . S
N310 Cu299 1.985 . S
N310 C312 1.335 . S
N310 C313 1.390 . S
N311 C312 1.345 . S
N311 C314 1.336 . S
C312 N310 1.335 . S
C312 N311 1.345 . S
C312 H317 0.930 . S
C313 N310 1.390 . S
C313 C314 1.346 . S
C313 H318 0.930 . S
C314 N311 1.336 . S
C314 C313 1.346 . S
C314 H321 0.929 . S
C315 O305 1.282 . S
C315 O316 1.216 . S
O316 C315 1.216 . S
H317 C312 0.930 . S
H318 C313 0.930 . S
O319 Cu299 1.959 . S
O319 C306 1.251 . S
H320 C303 0.930 . S
H321 C314 0.929 . S
Cu322 N323 1.999 . S
Cu322 O328 1.974 . S
Cu322 N333 1.985 . S
Cu322 O342 1.959 . S
N323 Cu322 1.999 . S
N323 C325 1.263 . S
N323 C327 1.389 . S
N324 C325 1.358 . S
N324 C326 1.400 . S
C325 N323 1.263 . S
C325 N324 1.358 . S
C325 H331 0.930 . S
C326 N324 1.400 . S
C326 C327 1.351 . S
C326 H343 0.930 . S
C327 N323 1.389 . S
C327 C326 1.351 . S
C327 H332 0.930 . S
O328 Cu322 1.974 . S
O328 C338 1.282 . S
C329 O330 1.261 . S
C329 O342 1.251 . S
O330 C329 1.261 . S
H331 C325 0.930 . S
H332 C327 0.930 . S
N333 Cu322 1.985 . S
N333 C335 1.335 . S
N333 C336 1.390 . S
N334 C335 1.345 . S
N334 C337 1.336 . S
C335 N333 1.335 . S
C335 N334 1.345 . S
C335 H340 0.930 . S
C336 N333 1.390 . S
C336 C337 1.346 . S
C336 H341 0.930 . S
C337 N334 1.336 . S
C337 C336 1.346 . S
C337 H344 0.929 . S
C338 O328 1.282 . S
C338 O339 1.216 . S
O339 C338 1.216 . S
H340 C335 0.930 . S
H341 C336 0.930 . S
O342 Cu322 1.959 . S
O342 C329 1.251 . S
H343 C326 0.930 . S
H344 C337 0.929 . S
Cu345 N346 1.999 . S
Cu345 O351 1.974 . S
Cu345 N356 1.985 . S
Cu345 O365 1.959 . S
N346 Cu345 1.999 . S
N346 C348 1.263 . S
N346 C350 1.389 1_455 S
N347 C348 1.358 . S
N347 C349 1.400 1_455 S
C348 N346 1.263 . S
C348 N347 1.358 . S
C348 H354 0.930 . S
C349 N347 1.400 1_655 S
C349 C350 1.351 . S
C349 H366 0.930 . S
C350 N346 1.389 1_655 S
C350 C349 1.351 . S
C350 H355 0.930 . S
O351 Cu345 1.974 . S
O351 C361 1.282 . S
C352 O353 1.261 1_655 S
C352 O365 1.251 1_655 S
O353 C352 1.261 1_455 S
H354 C348 0.930 . S
H355 C350 0.930 . S
N356 Cu345 1.985 . S
N356 C358 1.335 1_554 S
N356 C359 1.390 . S
N357 C358 1.345 . S
N357 C360 1.336 1_556 S
C358 N356 1.335 1_556 S
C358 N357 1.345 . S
C358 H363 0.930 . S
C359 N356 1.390 . S
C359 C360 1.346 . S
C359 H364 0.930 . S
C360 N357 1.336 1_554 S
C360 C359 1.346 . S
C360 H367 0.929 . S
C361 O351 1.282 . S
C361 O362 1.216 . S
O362 C361 1.216 . S
H363 C358 0.930 . S
H364 C359 0.930 . S
O365 Cu345 1.959 . S
O365 C352 1.251 1_455 S
H366 C349 0.930 . S
H367 C360 0.929 . S
Cu368 N369 1.999 . S
Cu368 O374 1.974 . S
Cu368 N379 1.985 . S
Cu368 O388 1.959 . S
N369 Cu368 1.999 . S
N369 C371 1.263 . S
N369 C373 1.389 . S
N370 C371 1.358 . S
N370 C372 1.400 . S
C371 N369 1.263 . S
C371 N370 1.358 . S
C371 H377 0.930 . S
C372 N370 1.400 . S
C372 C373 1.351 . S
C372 H389 0.930 . S
C373 N369 1.389 . S
C373 C372 1.351 . S
C373 H378 0.930 . S
O374 Cu368 1.974 . S
O374 C384 1.282 . S
C375 O376 1.261 . S
C375 O388 1.251 . S
O376 C375 1.261 . S
H377 C371 0.930 . S
H378 C373 0.930 . S
N379 Cu368 1.985 . S
N379 C381 1.335 . S
N379 C382 1.390 . S
N380 C381 1.345 . S
N380 C383 1.336 . S
C381 N379 1.335 . S
C381 N380 1.345 . S
C381 H386 0.930 . S
C382 N379 1.390 . S
C382 C383 1.346 . S
C382 H387 0.930 . S
C383 N380 1.336 . S
C383 C382 1.346 . S
C383 H390 0.929 . S
C384 O374 1.282 . S
C384 O385 1.216 . S
O385 C384 1.216 . S
H386 C381 0.930 . S
H387 C382 0.930 . S
O388 Cu368 1.959 . S
O388 C375 1.251 . S
H389 C372 0.930 . S
H390 C383 0.929 . S
Cu391 N392 1.999 . S
Cu391 O397 1.974 . S
Cu391 N402 1.985 . S
Cu391 O411 1.959 . S
N392 Cu391 1.999 . S
N392 C394 1.263 . S
N392 C396 1.389 . S
N393 C394 1.358 . S
N393 C395 1.400 . S
C394 N392 1.263 . S
C394 N393 1.358 . S
C394 H400 0.930 . S
C395 N393 1.400 . S
C395 C396 1.351 . S
C395 H412 0.930 . S
C396 N392 1.389 . S
C396 C395 1.351 . S
C396 H401 0.930 . S
O397 Cu391 1.974 . S
O397 C407 1.282 . S
C398 O399 1.261 . S
C398 O411 1.251 . S
O399 C398 1.261 . S
H400 C394 0.930 . S
H401 C396 0.930 . S
N402 Cu391 1.985 . S
N402 C404 1.335 . S
N402 C405 1.390 . S
N403 C404 1.345 . S
N403 C406 1.336 . S
C404 N402 1.335 . S
C404 N403 1.345 . S
C404 H409 0.930 . S
C405 N402 1.390 . S
C405 C406 1.346 . S
C405 H410 0.930 . S
C406 N403 1.336 . S
C406 C405 1.346 . S
C406 H413 0.929 . S
C407 O397 1.282 . S
C407 O408 1.216 . S
O408 C407 1.216 . S
H409 C404 0.930 . S
H410 C405 0.930 . S
O411 Cu391 1.959 . S
O411 C398 1.251 . S
H412 C395 0.930 . S
H413 C406 0.929 . S
Cu414 N415 1.999 1_554 S
Cu414 O420 1.974 . S
Cu414 N425 1.985 . S
Cu414 O434 1.959 . S
N415 Cu414 1.999 1_556 S
N415 C417 1.263 . S
N415 C419 1.389 . S
N416 C417 1.358 . S
N416 C418 1.400 . S
C417 N415 1.263 . S
C417 N416 1.358 . S
C417 H423 0.930 . S
C418 N416 1.400 . S
C418 C419 1.351 . S
C418 H435 0.930 . S
C419 N415 1.389 . S
C419 C418 1.351 . S
C419 H424 0.930 . S
O420 Cu414 1.974 . S
O420 C430 1.282 . S
C421 O422 1.261 . S
C421 O434 1.251 . S
O422 C421 1.261 . S
H423 C417 0.930 . S
H424 C419 0.930 . S
N425 Cu414 1.985 . S
N425 C427 1.335 . S
N425 C428 1.390 . S
N426 C427 1.345 . S
N426 C429 1.336 . S
C427 N425 1.335 . S
C427 N426 1.345 . S
C427 H432 0.930 . S
C428 N425 1.390 . S
C428 C429 1.346 . S
C428 H433 0.930 . S
C429 N426 1.336 . S
C429 C428 1.346 . S
C429 H436 0.929 . S
C430 O420 1.282 . S
C430 O431 1.216 . S
O431 C430 1.216 . S
H432 C427 0.930 . S
H433 C428 0.930 . S
O434 Cu414 1.959 . S
O434 C421 1.251 . S
H435 C418 0.930 . S
H436 C429 0.929 . S
Cu437 N438 1.999 . S
Cu437 O443 1.974 . S
Cu437 N448 1.985 . S
Cu437 O457 1.959 . S
N438 Cu437 1.999 . S
N438 C440 1.263 . S
N438 C442 1.389 . S
N439 C440 1.358 . S
N439 C441 1.400 . S
C440 N438 1.263 . S
C440 N439 1.358 . S
C440 H446 0.930 . S
C441 N439 1.400 . S
C441 C442 1.351 . S
C441 H458 0.930 . S
C442 N438 1.389 . S
C442 C441 1.351 . S
C442 H447 0.930 . S
O443 Cu437 1.974 . S
O443 C453 1.282 . S
C444 O445 1.261 . S
C444 O457 1.251 . S
O445 C444 1.261 . S
H446 C440 0.930 . S
H447 C442 0.930 . S
N448 Cu437 1.985 . S
N448 C450 1.335 . S
N448 C451 1.390 . S
N449 C450 1.345 . S
N449 C452 1.336 . S
C450 N448 1.335 . S
C450 N449 1.345 . S
C450 H455 0.930 . S
C451 N448 1.390 . S
C451 C452 1.346 . S
C451 H456 0.930 . S
C452 N449 1.336 . S
C452 C451 1.346 . S
C452 H459 0.929 . S
C453 O443 1.282 . S
C453 O454 1.216 . S
O454 C453 1.216 . S
H455 C450 0.930 . S
H456 C451 0.930 . S
O457 Cu437 1.959 . S
O457 C444 1.251 . S
H458 C441 0.930 . S
H459 C452 0.929 . S
Cu460 N461 1.999 1_554 S
Cu460 O466 1.974 . S
Cu460 N471 1.985 . S
Cu460 O480 1.959 . S
N461 Cu460 1.999 1_556 S
N461 C463 1.263 . S
N461 C465 1.389 . S
N462 C463 1.358 . S
N462 C464 1.400 . S
C463 N461 1.263 . S
C463 N462 1.358 . S
C463 H469 0.930 1_545 S
C464 N462 1.400 . S
C464 C465 1.351 . S
C464 H481 0.930 . S
C465 N461 1.389 . S
C465 C464 1.351 . S
C465 H470 0.930 . S
O466 Cu460 1.974 . S
O466 C476 1.282 1_545 S
C467 O468 1.261 . S
C467 O480 1.251 . S
O468 C467 1.261 . S
H469 C463 0.930 1_565 S
H470 C465 0.930 . S
N471 Cu460 1.985 . S
N471 C473 1.335 . S
N471 C474 1.390 . S
N472 C473 1.345 . S
N472 C475 1.336 . S
C473 N471 1.335 . S
C473 N472 1.345 . S
C473 H478 0.930 . S
C474 N471 1.390 . S
C474 C475 1.346 . S
C474 H479 0.930 1_545 S
C475 N472 1.336 . S
C475 C474 1.346 . S
C475 H482 0.915 1_545 S
C476 O466 1.282 1_565 S
C476 O477 1.216 . S
O477 C476 1.216 . S
H478 C473 0.930 . S
H479 C474 0.930 1_565 S
O480 Cu460 1.959 . S
O480 C467 1.251 . S
H481 C464 0.930 . S
H482 C475 0.915 1_565 S
Cu483 N484 1.999 . S
Cu483 O489 1.974 . S
Cu483 N494 1.985 . S
Cu483 O503 1.959 . S
N484 Cu483 1.999 . S
N484 C486 1.263 . S
N484 C488 1.389 . S
N485 C486 1.358 . S
N485 C487 1.400 . S
C486 N484 1.263 . S
C486 N485 1.358 . S
C486 H492 0.930 . S
C487 N485 1.400 . S
C487 C488 1.351 . S
C487 H504 0.930 . S
C488 N484 1.389 . S
C488 C487 1.351 . S
C488 H493 0.930 . S
O489 Cu483 1.974 . S
O489 C499 1.282 . S
C490 O491 1.261 . S
C490 O503 1.251 . S
O491 C490 1.261 . S
H492 C486 0.930 . S
H493 C488 0.930 . S
N494 Cu483 1.985 . S
N494 C496 1.335 . S
N494 C497 1.390 . S
N495 C496 1.345 . S
N495 C498 1.336 . S
C496 N494 1.335 . S
C496 N495 1.345 . S
C496 H501 0.930 . S
C497 N494 1.390 . S
C497 C498 1.346 . S
C497 H502 0.930 . S
C498 N495 1.336 . S
C498 C497 1.346 . S
C498 H505 0.929 . S
C499 O489 1.282 . S
C499 O500 1.216 . S
O500 C499 1.216 . S
H501 C496 0.930 . S
H502 C497 0.930 . S
O503 Cu483 1.959 . S
O503 C490 1.251 . S
H504 C487 0.930 . S
H505 C498 0.929 . S
Cu506 N507 1.999 . S
Cu506 O512 1.974 . S
Cu506 N517 1.985 . S
Cu506 O526 1.959 . S
N507 Cu506 1.999 . S
N507 C509 1.263 . S
N507 C511 1.389 . S
N508 C509 1.358 . S
N508 C510 1.400 . S
C509 N507 1.263 . S
C509 N508 1.358 . S
C509 H515 0.930 . S
C510 N508 1.400 . S
C510 C511 1.351 . S
C510 H527 0.930 . S
C511 N507 1.389 . S
C511 C510 1.351 . S
C511 H516 0.930 . S
O512 Cu506 1.974 . S
O512 C522 1.282 . S
C513 O514 1.261 . S
C513 O526 1.251 . S
O514 C513 1.261 . S
H515 C509 0.930 . S
H516 C511 0.930 . S
N517 Cu506 1.985 . S
N517 C519 1.335 . S
N517 C520 1.390 . S
N518 C519 1.345 . S
N518 C521 1.336 . S
C519 N517 1.335 . S
C519 N518 1.345 . S
C519 H524 0.930 . S
C520 N517 1.390 . S
C520 C521 1.346 . S
C520 H525 0.930 . S
C521 N518 1.336 . S
C521 C520 1.346 . S
C521 H528 0.929 . S
C522 O512 1.282 . S
C522 O523 1.216 . S
O523 C522 1.216 . S
H524 C519 0.930 . S
H525 C520 0.930 . S
O526 Cu506 1.959 . S
O526 C513 1.251 . S
H527 C510 0.930 . S
H528 C521 0.929 . S
Cu529 N530 1.999 1_556 S
Cu529 O535 1.974 . S
Cu529 N540 1.985 . S
Cu529 O549 1.959 . S
N530 Cu529 1.999 1_554 S
N530 C532 1.263 . S
N530 C534 1.389 . S
N531 C532 1.358 . S
N531 C533 1.400 . S
C532 N530 1.263 . S
C532 N531 1.358 . S
C532 H538 0.930 . S
C533 N531 1.400 . S
C533 C534 1.351 . S
C533 H550 0.930 . S
C534 N530 1.389 . S
C534 C533 1.351 . S
C534 H539 0.930 . S
O535 Cu529 1.974 . S
O535 C545 1.282 . S
C536 O537 1.261 . S
C536 O549 1.251 . S
O537 C536 1.261 . S
H538 C532 0.930 . S
H539 C534 0.930 . S
N540 Cu529 1.985 . S
N540 C542 1.335 . S
N540 C543 1.390 . S
N541 C542 1.345 . S
N541 C544 1.336 . S
C542 N540 1.335 . S
C542 N541 1.345 . S
C542 H547 0.930 . S
C543 N540 1.390 . S
C543 C544 1.346 . S
C543 H548 0.930 . S
C544 N541 1.336 . S
C544 C543 1.346 . S
C544 H551 0.929 . S
C545 O535 1.282 . S
C545 O546 1.216 . S
O546 C545 1.216 . S
H547 C542 0.930 . S
H548 C543 0.930 . S
O549 Cu529 1.959 . S
O549 C536 1.251 . S
H550 C533 0.930 . S
H551 C544 0.929 . S
Cu552 N553 1.999 . S
Cu552 O558 1.974 . S
Cu552 N563 1.985 . S
Cu552 O572 1.959 . S
N553 Cu552 1.999 . S
N553 C555 1.263 . S
N553 C557 1.389 . S
N554 C555 1.358 . S
N554 C556 1.400 . S
C555 N553 1.263 . S
C555 N554 1.358 . S
C555 H561 0.930 . S
C556 N554 1.400 . S
C556 C557 1.351 . S
C556 H573 0.930 . S
C557 N553 1.389 . S
C557 C556 1.351 . S
C557 H562 0.930 . S
O558 Cu552 1.974 . S
O558 C568 1.282 . S
C559 O560 1.261 . S
C559 O572 1.251 . S
O560 C559 1.261 . S
H561 C555 0.930 . S
H562 C557 0.930 . S
N563 Cu552 1.985 . S
N563 C565 1.335 . S
N563 C566 1.390 . S
N564 C565 1.345 . S
N564 C567 1.336 . S
C565 N563 1.335 . S
C565 N564 1.345 . S
C565 H570 0.930 . S
C566 N563 1.390 . S
C566 C567 1.346 . S
C566 H571 0.930 . S
C567 N564 1.336 . S
C567 C566 1.346 . S
C567 H574 0.929 . S
C568 O558 1.282 . S
C568 O569 1.216 . S
O569 C568 1.216 . S
H570 C565 0.930 . S
H571 C566 0.930 . S
O572 Cu552 1.959 . S
O572 C559 1.251 . S
H573 C556 0.930 . S
H574 C567 0.929 . S
Cu575 N576 1.999 . S
Cu575 O581 1.974 . S
Cu575 N586 1.985 . S
Cu575 O595 1.959 . S
N576 Cu575 1.999 . S
N576 C578 1.263 . S
N576 C580 1.389 . S
N577 C578 1.358 . S
N577 C579 1.400 . S
C578 N576 1.263 . S
C578 N577 1.358 . S
C578 H584 0.930 . S
C579 N577 1.400 . S
C579 C580 1.351 . S
C579 H596 0.930 . S
C580 N576 1.389 . S
C580 C579 1.351 . S
C580 H585 0.930 . S
O581 Cu575 1.974 . S
O581 C591 1.282 . S
C582 O583 1.261 . S
C582 O595 1.251 . S
O583 C582 1.261 . S
H584 C578 0.930 . S
H585 C580 0.930 . S
N586 Cu575 1.985 . S
N586 C588 1.335 . S
N586 C589 1.390 . S
N587 C588 1.345 . S
N587 C590 1.336 . S
C588 N586 1.335 . S
C588 N587 1.345 . S
C588 H593 0.930 . S
C589 N586 1.390 . S
C589 C590 1.346 . S
C589 H594 0.930 . S
C590 N587 1.336 . S
C590 C589 1.346 . S
C590 H597 0.929 . S
C591 O581 1.282 . S
C591 O592 1.216 . S
O592 C591 1.216 . S
H593 C588 0.930 . S
H594 C589 0.930 . S
O595 Cu575 1.959 . S
O595 C582 1.251 . S
H596 C579 0.930 . S
H597 C590 0.929 . S
Cu598 N599 1.999 . S
Cu598 O604 1.974 . S
Cu598 N609 1.985 . S
Cu598 O618 1.959 . S
N599 Cu598 1.999 . S
N599 C601 1.263 . S
N599 C603 1.389 . S
N600 C601 1.358 . S
N600 C602 1.400 . S
C601 N599 1.263 . S
C601 N600 1.358 . S
C601 H607 0.930 . S
C602 N600 1.400 . S
C602 C603 1.351 . S
C602 H619 0.930 . S
C603 N599 1.389 . S
C603 C602 1.351 . S
C603 H608 0.930 . S
O604 Cu598 1.974 . S
O604 C614 1.282 . S
C605 O606 1.261 . S
C605 O618 1.251 . S
O606 C605 1.261 . S
H607 C601 0.930 . S
H608 C603 0.930 . S
N609 Cu598 1.985 . S
N609 C611 1.335 . S
N609 C612 1.390 . S
N610 C611 1.345 . S
N610 C613 1.336 . S
C611 N609 1.335 . S
C611 N610 1.345 . S
C611 H616 0.930 . S
C612 N609 1.390 . S
C612 C613 1.346 . S
C612 H617 0.930 . S
C613 N610 1.336 . S
C613 C612 1.346 . S
C613 H620 0.929 . S
C614 O604 1.282 . S
C614 O615 1.216 . S
O615 C614 1.216 . S
H616 C611 0.930 . S
H617 C612 0.930 . S
O618 Cu598 1.959 . S
O618 C605 1.251 . S
H619 C602 0.930 . S
H620 C613 0.929 . S
Cu621 N622 1.999 . S
Cu621 O627 1.974 . S
Cu621 N632 1.985 . S
Cu621 O641 1.959 . S
N622 Cu621 1.999 . S
N622 C624 1.263 . S
N622 C626 1.389 . S
N623 C624 1.358 . S
N623 C625 1.400 . S
C624 N622 1.263 . S
C624 N623 1.358 . S
C624 H630 0.930 . S
C625 N623 1.400 . S
C625 C626 1.351 . S
C625 H642 0.930 . S
C626 N622 1.389 . S
C626 C625 1.351 . S
C626 H631 0.930 . S
O627 Cu621 1.974 . S
O627 C637 1.282 . S
C628 O629 1.261 . S
C628 O641 1.251 . S
O629 C628 1.261 . S
H630 C624 0.930 . S
H631 C626 0.930 . S
N632 Cu621 1.985 . S
N632 C634 1.335 . S
N632 C635 1.390 . S
N633 C634 1.345 . S
N633 C636 1.336 . S
C634 N632 1.335 . S
C634 N633 1.345 . S
C634 H639 0.930 . S
C635 N632 1.390 . S
C635 C636 1.346 . S
C635 H640 0.930 . S
C636 N633 1.336 . S
C636 C635 1.346 . S
C636 H643 0.929 . S
C637 O627 1.282 . S
C637 O638 1.249 . S
O638 C637 1.249 . S
H639 C634 0.930 . S
H640 C635 0.930 . S
O641 Cu621 1.959 . S
O641 C628 1.251 . S
H642 C625 0.930 . S
H643 C636 0.929 . S
Cu644 N645 1.999 . S
Cu644 O650 1.974 . S
Cu644 N655 1.985 . S
Cu644 O664 1.959 . S
N645 Cu644 1.999 . S
N645 C647 1.263 . S
N645 C649 1.389 . S
N646 C647 1.358 . S
N646 C648 1.400 . S
C647 N645 1.263 . S
C647 N646 1.358 . S
C647 H653 0.930 . S
C648 N646 1.400 . S
C648 C649 1.351 . S
C648 H665 0.930 . S
C649 N645 1.389 . S
C649 C648 1.351 . S
C649 H654 0.930 . S
O650 Cu644 1.974 . S
O650 C660 1.282 . S
C651 O652 1.261 . S
C651 O664 1.251 . S
O652 C651 1.261 . S
H653 C647 0.930 . S
H654 C649 0.930 . S
N655 Cu644 1.985 . S
N655 C657 1.335 . S
N655 C658 1.390 . S
N656 C657 1.345 . S
N656 C659 1.336 . S
C657 N655 1.335 . S
C657 N656 1.345 . S
C657 H662 0.930 . S
C658 N655 1.390 . S
C658 C659 1.346 . S
C658 H663 0.930 . S
C659 N656 1.336 . S
C659 C658 1.346 . S
C659 H666 0.929 . S
C660 O650 1.282 . S
C660 O661 1.216 . S
O661 C660 1.216 . S
H662 C657 0.930 . S
H663 C658 0.930 . S
O664 Cu644 1.959 . S
O664 C651 1.251 . S
H665 C648 0.930 . S
H666 C659 0.929 . S
Cu667 N668 1.999 . S
Cu667 O673 1.974 . S
Cu667 N678 1.985 . S
Cu667 O687 1.959 . S
N668 Cu667 1.999 . S
N668 C670 1.263 . S
N668 C672 1.389 . S
N669 C670 1.358 . S
N669 C671 1.400 . S
C670 N668 1.263 . S
C670 N669 1.358 . S
C670 H676 0.930 . S
C671 N669 1.400 . S
C671 C672 1.351 . S
C671 H688 0.930 . S
C672 N668 1.389 . S
C672 C671 1.351 . S
C672 H677 0.930 . S
O673 Cu667 1.974 . S
O673 C683 1.282 . S
C674 O675 1.261 . S
C674 O687 1.251 . S
O675 C674 1.261 . S
H676 C670 0.930 . S
H677 C672 0.930 . S
N678 Cu667 1.985 . S
N678 C680 1.335 . S
N678 C681 1.390 . S
N679 C680 1.345 . S
N679 C682 1.336 . S
C680 N678 1.335 . S
C680 N679 1.345 . S
C680 H685 0.930 . S
C681 N678 1.390 . S
C681 C682 1.346 . S
C681 H686 0.930 . S
C682 N679 1.336 . S
C682 C681 1.346 . S
C682 H689 0.929 . S
C683 O673 1.282 . S
C683 O684 1.248 . S
O684 C683 1.248 . S
H685 C680 0.930 . S
H686 C681 0.930 . S
O687 Cu667 1.959 . S
O687 C674 1.251 . S
H688 C671 0.930 . S
H689 C682 0.929 . S
Cu690 N691 1.999 . S
Cu690 O696 1.974 . S
Cu690 N701 1.985 . S
Cu690 O710 1.959 . S
N691 Cu690 1.999 . S
N691 C693 1.263 . S
N691 C695 1.389 . S
N692 C693 1.358 . S
N692 C694 1.400 . S
C693 N691 1.263 . S
C693 N692 1.358 . S
C693 H699 0.930 . S
C694 N692 1.400 . S
C694 C695 1.351 . S
C694 H711 0.930 . S
C695 N691 1.389 . S
C695 C694 1.351 . S
C695 H700 0.930 . S
O696 Cu690 1.974 . S
O696 C706 1.282 . S
C697 O698 1.261 . S
C697 O710 1.251 . S
O698 C697 1.261 . S
H699 C693 0.930 . S
H700 C695 0.930 . S
N701 Cu690 1.985 . S
N701 C703 1.335 . S
N701 C704 1.390 . S
N702 C703 1.345 . S
N702 C705 1.336 . S
C703 N701 1.335 . S
C703 N702 1.345 . S
C703 H708 0.930 . S
C704 N701 1.390 . S
C704 C705 1.346 . S
C704 H709 0.930 . S
C705 N702 1.336 . S
C705 C704 1.346 . S
C705 H712 0.929 . S
C706 O696 1.282 . S
C706 O707 1.216 . S
O707 C706 1.216 . S
H708 C703 0.930 . S
H709 C704 0.930 . S
O710 Cu690 1.959 . S
O710 C697 1.251 . S
H711 C694 0.930 . S
H712 C705 0.929 . S
Cu713 N714 1.999 . S
Cu713 O719 1.974 . S
Cu713 N724 1.985 . S
Cu713 O733 1.959 . S
N714 Cu713 1.999 . S
N714 C716 1.263 . S
N714 C718 1.389 . S
N715 C716 1.358 . S
N715 C717 1.400 . S
C716 N714 1.263 . S
C716 N715 1.358 . S
C716 H722 0.930 . S
C717 N715 1.400 . S
C717 C718 1.351 . S
C717 H734 0.930 . S
C718 N714 1.389 . S
C718 C717 1.351 . S
C718 H723 0.930 . S
O719 Cu713 1.974 . S
O719 C729 1.282 . S
C720 O721 1.261 . S
C720 O733 1.251 . S
O721 C720 1.261 . S
H722 C716 0.930 . S
H723 C718 0.930 . S
N724 Cu713 1.985 . S
N724 C726 1.335 . S
N724 C727 1.390 . S
N725 C726 1.345 . S
N725 C728 1.336 . S
C726 N724 1.335 . S
C726 N725 1.345 . S
C726 H731 0.930 . S
C727 N724 1.390 . S
C727 C728 1.346 . S
C727 H732 0.930 . S
C728 N725 1.336 . S
C728 C727 1.346 . S
C728 H735 0.929 . S
C729 O719 1.282 . S
C729 O730 1.216 . S
O730 C729 1.216 . S
H731 C726 0.930 . S
H732 C727 0.930 . S
O733 Cu713 1.959 . S
O733 C720 1.251 . S
H734 C717 0.930 . S
H735 C728 0.929 . S
Cu736 N737 1.999 . S
Cu736 O742 1.974 . S
Cu736 N747 1.985 . S
Cu736 O756 1.959 . S
N737 Cu736 1.999 . S
N737 C739 1.263 . S
N737 C741 1.389 . S
N738 C739 1.358 . S
N738 C740 1.400 . S
C739 N737 1.263 . S
C739 N738 1.358 . S
C739 H745 0.930 . S
C740 N738 1.400 . S
C740 C741 1.351 . S
C740 H757 0.930 . S
C741 N737 1.389 . S
C741 C740 1.351 . S
C741 H746 0.930 . S
O742 Cu736 1.974 . S
O742 C752 1.282 . S
C743 O744 1.261 . S
C743 O756 1.251 . S
O744 C743 1.261 . S
H745 C739 0.930 . S
H746 C741 0.930 . S
N747 Cu736 1.985 . S
N747 C749 1.335 . S
N747 C750 1.390 . S
N748 C749 1.345 . S
N748 C751 1.336 . S
C749 N747 1.335 . S
C749 N748 1.345 . S
C749 H754 0.930 . S
C750 N747 1.390 . S
C750 C751 1.346 . S
C750 H755 0.930 . S
C751 N748 1.336 . S
C751 C750 1.346 . S
C751 H758 0.929 . S
C752 O742 1.282 . S
C752 O753 1.216 . S
O753 C752 1.216 . S
H754 C749 0.930 . S
H755 C750 0.930 . S
O756 Cu736 1.959 . S
O756 C743 1.251 . S
H757 C740 0.930 . S
H758 C751 0.929 . S
Cu759 N760 1.999 . S
Cu759 O765 1.974 . S
Cu759 N770 1.985 . S
Cu759 O779 1.959 . S
N760 Cu759 1.999 . S
N760 C762 1.263 . S
N760 C764 1.389 . S
N761 C762 1.358 . S
N761 C763 1.400 . S
C762 N760 1.263 . S
C762 N761 1.358 . S
C762 H768 0.930 . S
C763 N761 1.400 . S
C763 C764 1.351 . S
C763 H780 0.930 . S
C764 N760 1.389 . S
C764 C763 1.351 . S
C764 H769 0.930 . S
O765 Cu759 1.974 . S
O765 C775 1.282 . S
C766 O767 1.261 . S
C766 O779 1.251 . S
O767 C766 1.261 . S
H768 C762 0.930 . S
H769 C764 0.930 . S
N770 Cu759 1.985 . S
N770 C772 1.335 1_556 S
N770 C773 1.390 . S
N771 C772 1.345 . S
N771 C774 1.336 1_554 S
C772 N770 1.335 1_554 S
C772 N771 1.345 . S
C772 H777 0.930 . S
C773 N770 1.390 . S
C773 C774 1.346 . S
C773 H778 0.930 . S
C774 N771 1.336 1_556 S
C774 C773 1.346 . S
C774 H781 0.929 . S
C775 O765 1.282 . S
C775 O776 1.216 . S
O776 C775 1.216 . S
H777 C772 0.930 . S
H778 C773 0.930 . S
O779 Cu759 1.959 . S
O779 C766 1.251 . S
H780 C763 0.930 . S
H781 C774 0.929 . S
Cu782 N783 1.999 . S
Cu782 O788 1.974 . S
Cu782 N793 1.985 . S
Cu782 O802 1.959 . S
N783 Cu782 1.999 . S
N783 C785 1.263 . S
N783 C787 1.389 . S
N784 C785 1.358 . S
N784 C786 1.400 . S
C785 N783 1.263 . S
C785 N784 1.358 . S
C785 H791 0.930 . S
C786 N784 1.400 . S
C786 C787 1.351 . S
C786 H803 0.930 . S
C787 N783 1.389 . S
C787 C786 1.351 . S
C787 H792 0.930 . S
O788 Cu782 1.974 . S
O788 C798 1.282 . S
C789 O790 1.261 . S
C789 O802 1.251 . S
O790 C789 1.261 . S
H791 C785 0.930 . S
H792 C787 0.930 . S
N793 Cu782 1.985 . S
N793 C795 1.335 . S
N793 C796 1.390 . S
N794 C795 1.345 . S
N794 C797 1.336 . S
C795 N793 1.335 . S
C795 N794 1.345 . S
C795 H800 0.930 . S
C796 N793 1.390 . S
C796 C797 1.346 . S
C796 H801 0.930 . S
C797 N794 1.336 . S
C797 C796 1.346 . S
C797 H804 0.929 . S
C798 O788 1.282 . S
C798 O799 1.216 . S
O799 C798 1.216 . S
H800 C795 0.930 . S
H801 C796 0.930 . S
O802 Cu782 1.959 . S
O802 C789 1.251 . S
H803 C786 0.930 . S
H804 C797 0.929 . S
Cu805 N806 1.999 . S
Cu805 O811 1.974 . S
Cu805 N816 1.985 . S
Cu805 O825 1.959 . S
N806 Cu805 1.999 . S
N806 C808 1.263 . S
N806 C810 1.389 1_655 S
N807 C808 1.358 . S
N807 C809 1.400 1_655 S
C808 N806 1.263 . S
C808 N807 1.358 . S
C808 H814 0.930 . S
C809 N807 1.400 1_455 S
C809 C810 1.351 . S
C809 H826 0.930 . S
C810 N806 1.389 1_455 S
C810 C809 1.351 . S
C810 H815 0.930 . S
O811 Cu805 1.974 . S
O811 C821 1.282 . S
C812 O813 1.261 1_455 S
C812 O825 1.251 1_455 S
O813 C812 1.261 1_655 S
H814 C808 0.930 . S
H815 C810 0.930 . S
N816 Cu805 1.985 . S
N816 C818 1.335 . S
N816 C819 1.390 . S
N817 C818 1.345 . S
N817 C820 1.336 . S
C818 N816 1.335 . S
C818 N817 1.345 . S
C818 H823 0.930 . S
C819 N816 1.390 . S
C819 C820 1.346 . S
C819 H824 0.930 . S
C820 N817 1.336 . S
C820 C819 1.346 . S
C820 H827 0.929 . S
C821 O811 1.282 . S
C821 O822 1.216 . S
O822 C821 1.216 . S
H823 C818 0.930 . S
H824 C819 0.930 . S
O825 Cu805 1.959 . S
O825 C812 1.251 1_655 S
H826 C809 0.930 . S
H827 C820 0.929 . S
Cu828 N829 1.999 . S
Cu828 O834 1.974 . S
Cu828 N839 1.985 . S
Cu828 O848 1.959 . S
N829 Cu828 1.999 . S
N829 C831 1.263 . S
N829 C833 1.389 . S
N830 C831 1.358 . S
N830 C832 1.400 . S
C831 N829 1.263 . S
C831 N830 1.358 . S
C831 H837 0.930 . S
C832 N830 1.400 . S
C832 C833 1.351 . S
C832 H849 0.930 . S
C833 N829 1.389 . S
C833 C832 1.351 . S
C833 H838 0.930 . S
O834 Cu828 1.974 . S
O834 C844 1.282 . S
C835 O836 1.261 . S
C835 O848 1.251 . S
O836 C835 1.261 . S
H837 C831 0.930 . S
H838 C833 0.930 . S
N839 Cu828 1.985 . S
N839 C841 1.335 . S
N839 C842 1.390 . S
N840 C841 1.345 . S
N840 C843 1.336 . S
C841 N839 1.335 . S
C841 N840 1.345 . S
C841 H846 0.930 . S
C842 N839 1.390 . S
C842 C843 1.346 . S
C842 H847 0.930 . S
C843 N840 1.336 . S
C843 C842 1.346 . S
C843 H850 0.929 . S
C844 O834 1.282 . S
C844 O845 1.216 . S
O845 C844 1.216 . S
H846 C841 0.930 . S
H847 C842 0.930 . S
O848 Cu828 1.959 . S
O848 C835 1.251 . S
H849 C832 0.930 . S
H850 C843 0.929 . S
Cu851 N852 1.999 . S
Cu851 O857 1.974 . S
Cu851 N862 1.985 . S
Cu851 O871 1.959 . S
N852 Cu851 1.999 . S
N852 C854 1.263 . S
N852 C856 1.389 1_655 S
N853 C854 1.358 . S
N853 C855 1.400 1_655 S
C854 N852 1.263 . S
C854 N853 1.358 . S
C854 H860 0.930 . S
C855 N853 1.400 1_455 S
C855 C856 1.351 . S
C855 H872 0.930 . S
C856 N852 1.389 1_455 S
C856 C855 1.351 . S
C856 H861 0.930 . S
O857 Cu851 1.974 . S
O857 C867 1.282 . S
C858 O859 1.261 1_455 S
C858 O871 1.251 1_455 S
O859 C858 1.261 1_655 S
H860 C854 0.930 . S
H861 C856 0.930 . S
N862 Cu851 1.985 . S
N862 C864 1.335 1_554 S
N862 C865 1.390 . S
N863 C864 1.345 . S
N863 C866 1.336 1_556 S
C864 N862 1.335 1_556 S
C864 N863 1.345 . S
C864 H869 0.930 . S
C865 N862 1.390 . S
C865 C866 1.346 . S
C865 H870 0.930 . S
C866 N863 1.336 1_554 S
C866 C865 1.346 . S
C866 H873 0.929 . S
C867 O857 1.282 . S
C867 O868 1.216 . S
O868 C867 1.216 . S
H869 C864 0.930 . S
H870 C865 0.930 . S
O871 Cu851 1.959 . S
O871 C858 1.251 1_655 S
H872 C855 0.930 . S
H873 C866 0.929 . S
Cu874 N875 1.999 . S
Cu874 O880 1.974 . S
Cu874 N885 1.985 . S
Cu874 O894 1.959 . S
N875 Cu874 1.999 . S
N875 C877 1.263 . S
N875 C879 1.389 . S
N876 C877 1.358 . S
N876 C878 1.400 . S
C877 N875 1.263 . S
C877 N876 1.358 . S
C877 H883 0.930 . S
C878 N876 1.400 . S
C878 C879 1.351 . S
C878 H895 0.930 . S
C879 N875 1.389 . S
C879 C878 1.351 . S
C879 H884 0.930 . S
O880 Cu874 1.974 . S
O880 C890 1.282 . S
C881 O882 1.261 . S
C881 O894 1.251 . S
O882 C881 1.261 . S
H883 C877 0.930 . S
H884 C879 0.930 . S
N885 Cu874 1.985 . S
N885 C887 1.335 . S
N885 C888 1.390 . S
N886 C887 1.345 . S
N886 C889 1.336 . S
C887 N885 1.335 . S
C887 N886 1.345 . S
C887 H892 0.930 . S
C888 N885 1.390 . S
C888 C889 1.346 . S
C888 H893 0.930 . S
C889 N886 1.336 . S
C889 C888 1.346 . S
C889 H896 0.929 . S
C890 O880 1.282 . S
C890 O891 1.216 . S
O891 C890 1.216 . S
H892 C887 0.930 . S
H893 C888 0.930 . S
O894 Cu874 1.959 . S
O894 C881 1.251 . S
H895 C878 0.930 . S
H896 C889 0.929 . S
Cu897 N898 1.999 . S
Cu897 O903 1.974 . S
Cu897 N908 1.985 . S
Cu897 O917 1.959 . S
N898 Cu897 1.999 . S
N898 C900 1.263 . S
N898 C902 1.389 . S
N899 C900 1.358 . S
N899 C901 1.400 . S
C900 N898 1.263 . S
C900 N899 1.358 . S
C900 H906 0.930 . S
C901 N899 1.400 . S
C901 C902 1.351 . S
C901 H918 0.930 . S
C902 N898 1.389 . S
C902 C901 1.351 . S
C902 H907 0.930 . S
O903 Cu897 1.974 . S
O903 C913 1.282 . S
C904 O905 1.261 . S
C904 O917 1.251 . S
O905 C904 1.261 . S
H906 C900 0.930 . S
H907 C902 0.930 . S
N908 Cu897 1.985 . S
N908 C910 1.335 . S
N908 C911 1.390 . S
N909 C910 1.345 . S
N909 C912 1.336 . S
C910 N908 1.335 . S
C910 N909 1.345 . S
C910 H915 0.930 . S
C911 N908 1.390 . S
C911 C912 1.346 . S
C911 H916 0.930 . S
C912 N909 1.336 . S
C912 C911 1.346 . S
C912 H919 0.929 . S
C913 O903 1.282 . S
C913 O914 1.216 . S
O914 C913 1.216 . S
H915 C910 0.930 . S
H916 C911 0.930 . S
O917 Cu897 1.959 . S
O917 C904 1.251 . S
H918 C901 0.930 . S
H919 C912 0.929 . S
Cu920 N921 1.999 . S
Cu920 O926 1.974 . S
Cu920 N931 1.985 . S
Cu920 O940 1.959 . S
N921 Cu920 1.999 . S
N921 C923 1.263 . S
N921 C925 1.389 . S
N922 C923 1.358 . S
N922 C924 1.400 . S
C923 N921 1.263 . S
C923 N922 1.358 . S
C923 H929 0.930 . S
C924 N922 1.400 . S
C924 C925 1.351 . S
C924 H941 0.930 . S
C925 N921 1.389 . S
C925 C924 1.351 . S
C925 H930 0.930 . S
O926 Cu920 1.974 . S
O926 C936 1.282 . S
C927 O928 1.261 . S
C927 O940 1.251 . S
O928 C927 1.261 . S
H929 C923 0.930 . S
H930 C925 0.930 . S
N931 Cu920 1.985 . S
N931 C933 1.335 . S
N931 C934 1.390 . S
N932 C933 1.345 . S
N932 C935 1.336 . S
C933 N931 1.335 . S
C933 N932 1.345 . S
C933 H938 0.930 . S
C934 N931 1.390 . S
C934 C935 1.346 . S
C934 H939 0.930 . S
C935 N932 1.336 . S
C935 C934 1.346 . S
C935 H942 0.929 . S
C936 O926 1.282 . S
C936 O937 1.216 . S
O937 C936 1.216 . S
H938 C933 0.930 . S
H939 C934 0.930 . S
O940 Cu920 1.959 . S
O940 C927 1.251 . S
H941 C924 0.930 . S
H942 C935 0.929 . S
Cu943 N944 1.999 . S
Cu943 O949 1.974 . S
Cu943 N954 1.985 . S
Cu943 O963 1.959 . S
N944 Cu943 1.999 . S
N944 C946 1.263 . S
N944 C948 1.389 . S
N945 C946 1.358 . S
N945 C947 1.400 . S
C946 N944 1.263 . S
C946 N945 1.358 . S
C946 H952 0.930 . S
C947 N945 1.400 . S
C947 C948 1.351 . S
C947 H964 0.930 . S
C948 N944 1.389 . S
C948 C947 1.351 . S
C948 H953 0.930 . S
O949 Cu943 1.974 . S
O949 C959 1.282 . S
C950 O951 1.261 . S
C950 O963 1.251 . S
O951 C950 1.261 . S
H952 C946 0.930 . S
H953 C948 0.930 . S
N954 Cu943 1.985 . S
N954 C956 1.335 . S
N954 C957 1.390 . S
N955 C956 1.345 . S
N955 C958 1.336 . S
C956 N954 1.335 . S
C956 N955 1.345 . S
C956 H961 0.930 . S
C957 N954 1.390 . S
C957 C958 1.346 . S
C957 H962 0.930 . S
C958 N955 1.336 . S
C958 C957 1.346 . S
C958 H965 0.929 . S
C959 O949 1.282 . S
C959 O960 1.216 . S
O960 C959 1.216 . S
H961 C956 0.930 . S
H962 C957 0.930 . S
O963 Cu943 1.959 . S
O963 C950 1.251 . S
H964 C947 0.930 . S
H965 C958 0.929 . S
Cu966 N967 1.999 . S
Cu966 O972 1.974 . S
Cu966 N977 1.985 . S
Cu966 O986 1.959 . S
N967 Cu966 1.999 . S
N967 C969 1.263 . S
N967 C971 1.389 . S
N968 C969 1.358 . S
N968 C970 1.400 . S
C969 N967 1.263 . S
C969 N968 1.358 . S
C969 H975 0.930 1_565 S
C970 N968 1.400 . S
C970 C971 1.351 . S
C970 H987 0.930 . S
C971 N967 1.389 . S
C971 C970 1.351 . S
C971 H976 0.930 . S
O972 Cu966 1.974 . S
O972 C982 1.282 1_565 S
C973 O974 1.261 . S
C973 O986 1.251 . S
O974 C973 1.261 . S
H975 C969 0.930 1_545 S
H976 C971 0.930 . S
N977 Cu966 1.985 . S
N977 C979 1.335 . S
N977 C980 1.390 . S
N978 C979 1.345 . S
N978 C981 1.336 . S
C979 N977 1.335 . S
C979 N978 1.345 . S
C979 H984 0.930 . S
C980 N977 1.390 . S
C980 C981 1.346 . S
C980 H985 0.930 1_565 S
C981 N978 1.336 . S
C981 C980 1.346 . S
C981 H988 0.936 . S
C982 O972 1.282 1_545 S
C982 O983 1.216 . S
O983 C982 1.216 . S
H984 C979 0.930 . S
H985 C980 0.930 1_545 S
O986 Cu966 1.959 . S
O986 C973 1.251 . S
H987 C970 0.930 . S
H988 C981 0.936 . S
Cu989 N990 1.999 . S
Cu989 O995 1.974 . S
Cu989 N1000 1.985 . S
Cu989 O1009 1.959 . S
N990 Cu989 1.999 . S
N990 C992 1.263 . S
N990 C994 1.389 . S
N991 C992 1.358 . S
N991 C993 1.400 . S
C992 N990 1.263 . S
C992 N991 1.358 . S
C992 H998 0.930 . S
C993 N991 1.400 . S
C993 C994 1.351 . S
C993 H1010 0.930 . S
C994 N990 1.389 . S
C994 C993 1.351 . S
C994 H999 0.930 . S
O995 Cu989 1.974 . S
O995 C1005 1.282 . S
C996 O997 1.261 . S
C996 O1009 1.251 . S
O997 C996 1.261 . S
H998 C992 0.930 . S
H999 C994 0.930 . S
N1000 Cu989 1.985 . S
N1000 C1002 1.335 . S
N1000 C1003 1.390 . S
N1001 C1002 1.345 . S
N1001 C1004 1.336 . S
C1002 N1000 1.335 . S
C1002 N1001 1.345 . S
C1002 H1007 0.930 . S
C1003 N1000 1.390 . S
C1003 C1004 1.346 . S
C1003 H1008 0.930 . S
C1004 N1001 1.336 . S
C1004 C1003 1.346 . S
C1004 H1011 0.929 . S
C1005 O995 1.282 . S
C1005 O1006 1.216 . S
O1006 C1005 1.216 . S
H1007 C1002 0.930 . S
H1008 C1003 0.930 . S
O1009 Cu989 1.959 . S
O1009 C996 1.251 . S
H1010 C993 0.930 . S
H1011 C1004 0.929 . S
Cu1012 N1013 1.999 . S
Cu1012 O1018 1.974 . S
Cu1012 N1023 1.985 . S
Cu1012 O1032 1.959 . S
N1013 Cu1012 1.999 . S
N1013 C1015 1.263 . S
N1013 C1017 1.389 . S
N1014 C1015 1.358 . S
N1014 C1016 1.400 . S
C1015 N1013 1.263 . S
C1015 N1014 1.358 . S
C1015 H1021 0.930 . S
C1016 N1014 1.400 . S
C1016 C1017 1.351 . S
C1016 H1033 0.930 . S
C1017 N1013 1.389 . S
C1017 C1016 1.351 . S
C1017 H1022 0.930 . S
O1018 Cu1012 1.974 . S
O1018 C1028 1.282 . S
C1019 O1020 1.261 . S
C1019 O1032 1.251 . S
O1020 C1019 1.261 . S
H1021 C1015 0.930 . S
H1022 C1017 0.930 . S
N1023 Cu1012 1.985 . S
N1023 C1025 1.335 . S
N1023 C1026 1.390 . S
N1024 C1025 1.345 . S
N1024 C1027 1.336 . S
C1025 N1023 1.335 . S
C1025 N1024 1.345 . S
C1025 H1030 0.930 . S
C1026 N1023 1.390 . S
C1026 C1027 1.346 . S
C1026 H1031 0.930 . S
C1027 N1024 1.336 . S
C1027 C1026 1.346 . S
C1027 H1034 0.929 . S
C1028 O1018 1.282 . S
C1028 O1029 1.216 . S
O1029 C1028 1.216 . S
H1030 C1025 0.930 . S
H1031 C1026 0.930 . S
O1032 Cu1012 1.959 . S
O1032 C1019 1.251 . S
H1033 C1016 0.930 . S
H1034 C1027 0.929 . S
Cu1035 N1036 1.999 . S
Cu1035 O1041 1.974 . S
Cu1035 N1046 1.985 . S
Cu1035 O1055 1.959 . S
N1036 Cu1035 1.999 . S
N1036 C1038 1.263 . S
N1036 C1040 1.389 . S
N1037 C1038 1.358 . S
N1037 C1039 1.400 . S
C1038 N1036 1.263 . S
C1038 N1037 1.358 . S
C1038 H1044 0.930 . S
C1039 N1037 1.400 . S
C1039 C1040 1.351 . S
C1039 H1056 0.930 . S
C1040 N1036 1.389 . S
C1040 C1039 1.351 . S
C1040 H1045 0.930 . S
O1041 Cu1035 1.974 . S
O1041 C1051 1.282 . S
C1042 O1043 1.261 . S
C1042 O1055 1.251 . S
O1043 C1042 1.261 . S
H1044 C1038 0.930 . S
H1045 C1040 0.930 . S
N1046 Cu1035 1.985 . S
N1046 C1048 1.335 . S
N1046 C1049 1.390 . S
N1047 C1048 1.345 . S
N1047 C1050 1.336 . S
C1048 N1046 1.335 . S
C1048 N1047 1.345 . S
C1048 H1053 0.930 . S
C1049 N1046 1.390 . S
C1049 C1050 1.346 . S
C1049 H1054 0.930 . S
C1050 N1047 1.336 . S
C1050 C1049 1.346 . S
C1050 H1057 0.929 . S
C1051 O1041 1.282 . S
C1051 O1052 1.216 . S
O1052 C1051 1.216 . S
H1053 C1048 0.930 . S
H1054 C1049 0.930 . S
O1055 Cu1035 1.959 . S
O1055 C1042 1.251 . S
H1056 C1039 0.930 . S
H1057 C1050 0.929 . S
Cu1058 N1059 1.999 1_556 S
Cu1058 O1064 1.974 . S
Cu1058 N1069 1.985 . S
Cu1058 O1078 1.959 . S
N1059 Cu1058 1.999 1_554 S
N1059 C1061 1.263 . S
N1059 C1063 1.389 . S
N1060 C1061 1.358 . S
N1060 C1062 1.400 . S
C1061 N1059 1.263 . S
C1061 N1060 1.358 . S
C1061 H1067 0.930 1_545 S
C1062 N1060 1.400 . S
C1062 C1063 1.351 . S
C1062 H1079 0.930 . S
C1063 N1059 1.389 . S
C1063 C1062 1.351 . S
C1063 H1068 0.930 . S
O1064 Cu1058 1.974 . S
O1064 C1074 1.282 1_545 S
C1065 O1066 1.261 . S
C1065 O1078 1.251 . S
O1066 C1065 1.261 . S
H1067 C1061 0.930 1_565 S
H1068 C1063 0.930 . S
N1069 Cu1058 1.985 . S
N1069 C1071 1.335 . S
N1069 C1072 1.390 . S
N1070 C1071 1.345 . S
N1070 C1073 1.336 . S
C1071 N1069 1.335 . S
C1071 N1070 1.345 . S
C1071 H1076 0.930 . S
C1072 N1069 1.390 . S
C1072 C1073 1.346 . S
C1072 H1077 0.930 1_545 S
C1073 N1070 1.336 . S
C1073 C1072 1.346 . S
C1073 H1080 0.915 1_545 S
C1074 O1064 1.282 1_565 S
C1074 O1075 1.216 . S
O1075 C1074 1.216 . S
H1076 C1071 0.930 . S
H1077 C1072 0.930 1_565 S
O1078 Cu1058 1.959 . S
O1078 C1065 1.251 . S
H1079 C1062 0.930 . S
H1080 C1073 0.915 1_565 S
Cu1081 N1082 1.999 . S
Cu1081 O1087 1.974 . S
Cu1081 N1092 1.985 . S
Cu1081 O1101 1.959 . S
N1082 Cu1081 1.999 . S
N1082 C1084 1.263 . S
N1082 C1086 1.389 . S
N1083 C1084 1.358 . S
N1083 C1085 1.400 . S
C1084 N1082 1.263 . S
C1084 N1083 1.358 . S
C1084 H1090 0.930 1_565 S
C1085 N1083 1.400 . S
C1085 C1086 1.351 . S
C1085 H1102 0.930 . S
C1086 N1082 1.389 . S
C1086 C1085 1.351 . S
C1086 H1091 0.930 . S
O1087 Cu1081 1.974 . S
O1087 C1097 1.282 1_565 S
C1088 O1089 1.261 . S
C1088 O1101 1.251 . S
O1089 C1088 1.261 . S
H1090 C1084 0.930 1_545 S
H1091 C1086 0.930 . S
N1092 Cu1081 1.985 . S
N1092 C1094 1.335 . S
N1092 C1095 1.390 . S
N1093 C1094 1.345 . S
N1093 C1096 1.336 . S
C1094 N1092 1.335 . S
C1094 N1093 1.345 . S
C1094 H1099 0.930 . S
C1095 N1092 1.390 . S
C1095 C1096 1.346 . S
C1095 H1100 0.930 1_565 S
C1096 N1093 1.336 . S
C1096 C1095 1.346 . S
C1096 H1103 0.936 . S
C1097 O1087 1.282 1_545 S
C1097 O1098 1.216 . S
O1098 C1097 1.216 . S
H1099 C1094 0.930 . S
H1100 C1095 0.930 1_545 S
O1101 Cu1081 1.959 . S
O1101 C1088 1.251 . S
H1102 C1085 0.930 . S
H1103 C1096 0.936 . S
H1104 C1110 0.930 . S
H1105 C1113 0.930 . S
H1106 C1114 0.930 . S
H1107 C1115 0.930 . S
H1108 C1118 0.930 . S
H1109 C1119 0.930 . S
C1110 H1104 0.930 . S
C1110 C1111 1.355 . S
C1110 C1112 1.415 . S
C1111 C1110 1.355 . S
C1111 C1113 1.419 . S
C1112 C1110 1.415 . S
C1112 C1117 1.425 . S
C1112 C1119 1.409 . S
C1113 H1105 0.930 . S
C1113 C1111 1.419 . S
C1113 C1114 1.362 . S
C1114 H1106 0.930 . S
C1114 C1113 1.362 . S
C1114 C1117 1.409 . S
C1115 H1107 0.930 . S
C1115 C1116 1.355 . S
C1115 C1117 1.415 . S
C1116 C1115 1.355 . S
C1116 C1118 1.419 . S
C1117 C1112 1.425 . S
C1117 C1114 1.409 . S
C1117 C1115 1.415 . S
C1118 H1108 0.930 . S
C1118 C1116 1.419 . S
C1118 C1119 1.362 . S
C1119 H1109 0.930 . S
C1119 C1112 1.409 . S
C1119 C1118 1.362 . S
H1120 C1126 0.930 . S
H1121 C1129 0.930 . S
H1122 C1130 0.930 . S
H1123 C1131 0.930 . S
H1124 C1134 0.930 . S
H1125 C1135 0.930 . S
C1126 H1120 0.930 . S
C1126 C1127 1.355 1_545 S
C1126 C1128 1.415 . S
C1127 C1126 1.355 1_565 S
C1127 C1129 1.419 . S
C1128 C1126 1.415 . S
C1128 C1133 1.425 1_545 S
C1128 C1135 1.409 . S
C1129 H1121 0.930 . S
C1129 C1127 1.419 . S
C1129 C1130 1.362 . S
C1130 H1122 0.930 . S
C1130 C1129 1.362 . S
C1130 C1133 1.409 . S
C1131 H1123 0.930 . S
C1131 C1132 1.355 1_565 S
C1131 C1133 1.415 . S
C1132 C1131 1.355 1_545 S
C1132 C1134 1.419 . S
C1133 C1128 1.425 1_565 S
C1133 C1130 1.409 . S
C1133 C1131 1.415 . S
C1134 H1124 0.930 . S
C1134 C1132 1.419 . S
C1134 C1135 1.362 . S
C1135 H1125 0.930 . S
C1135 C1128 1.409 . S
C1135 C1134 1.362 . S
H1136 C1142 0.930 . S
H1137 C1145 0.930 . S
H1138 C1146 0.942 . S
H1139 C1147 0.930 . S
H1140 C1150 0.930 . S
H1141 C1151 0.942 . S
C1142 H1136 0.930 . S
C1142 C1143 1.355 . S
C1142 C1144 1.415 . S
C1143 C1142 1.355 . S
C1143 C1145 1.419 . S
C1144 C1142 1.415 . S
C1144 C1149 1.425 1_556 S
C1144 C1151 1.409 1_556 S
C1145 H1137 0.930 . S
C1145 C1143 1.419 . S
C1145 C1146 1.362 . S
C1146 H1138 0.942 . S
C1146 C1145 1.362 . S
C1146 C1149 1.409 1_556 S
C1147 H1139 0.930 . S
C1147 C1148 1.355 . S
C1147 C1149 1.415 . S
C1148 C1147 1.355 . S
C1148 C1150 1.419 . S
C1149 C1144 1.425 1_554 S
C1149 C1146 1.409 1_554 S
C1149 C1147 1.415 . S
C1150 H1140 0.930 . S
C1150 C1148 1.419 . S
C1150 C1151 1.362 . S
C1151 H1141 0.942 . S
C1151 C1144 1.409 1_554 S
C1151 C1150 1.362 . S
H1152 C1158 0.930 . S
H1153 C1161 0.930 . S
H1154 C1162 0.930 . S
H1155 C1163 0.930 . S
H1156 C1166 0.930 . S
H1157 C1167 0.930 . S
C1158 H1152 0.930 . S
C1158 C1159 1.355 1_545 S
C1158 C1160 1.415 . S
C1159 C1158 1.355 1_565 S
C1159 C1161 1.419 . S
C1160 C1158 1.415 . S
C1160 C1165 1.425 1_545 S
C1160 C1167 1.409 . S
C1161 H1153 0.930 . S
C1161 C1159 1.419 . S
C1161 C1162 1.362 . S
C1162 H1154 0.930 . S
C1162 C1161 1.362 . S
C1162 C1165 1.409 . S
C1163 H1155 0.930 . S
C1163 C1164 1.355 1_565 S
C1163 C1165 1.415 . S
C1164 C1163 1.355 1_545 S
C1164 C1166 1.419 . S
C1165 C1160 1.425 1_565 S
C1165 C1162 1.409 . S
C1165 C1163 1.415 . S
C1166 H1156 0.930 . S
C1166 C1164 1.419 . S
C1166 C1167 1.362 . S
C1167 H1157 0.930 . S
C1167 C1160 1.409 . S
C1167 C1166 1.362 . S
H1168 C1174 0.930 . S
H1169 C1177 0.930 . S
H1170 C1178 0.930 . S
H1171 C1179 0.930 . S
H1172 C1182 0.930 . S
H1173 C1183 0.930 . S
C1174 H1168 0.930 . S
C1174 C1175 1.355 . S
C1174 C1176 1.415 . S
C1175 C1174 1.355 . S
C1175 C1177 1.419 . S
C1176 C1174 1.415 . S
C1176 C1181 1.425 . S
C1176 C1183 1.409 . S
C1177 H1169 0.930 . S
C1177 C1175 1.419 . S
C1177 C1178 1.362 . S
C1178 H1170 0.930 . S
C1178 C1177 1.362 . S
C1178 C1181 1.409 . S
C1179 H1171 0.930 . S
C1179 C1180 1.355 . S
C1179 C1181 1.415 . S
C1180 C1179 1.355 . S
C1180 C1182 1.419 . S
C1181 C1176 1.425 . S
C1181 C1178 1.409 . S
C1181 C1179 1.415 . S
C1182 H1172 0.930 . S
C1182 C1180 1.419 . S
C1182 C1183 1.362 . S
C1183 H1173 0.930 . S
C1183 C1176 1.409 . S
C1183 C1182 1.362 . S
H1184 C1190 0.930 . S
H1185 C1193 0.930 . S
H1186 C1194 0.930 . S
H1187 C1195 0.930 . S
H1188 C1198 0.930 . S
H1189 C1199 0.930 . S
C1190 H1184 0.930 . S
C1190 C1191 1.355 . S
C1190 C1192 1.415 . S
C1191 C1190 1.355 . S
C1191 C1193 1.419 1_655 S
C1192 C1190 1.415 . S
C1192 C1197 1.425 1_655 S
C1192 C1199 1.409 . S
C1193 H1185 0.930 . S
C1193 C1191 1.419 1_455 S
C1193 C1194 1.362 . S
C1194 H1186 0.930 . S
C1194 C1193 1.362 . S
C1194 C1197 1.409 . S
C1195 H1187 0.930 . S
C1195 C1196 1.355 . S
C1195 C1197 1.415 . S
C1196 C1195 1.355 . S
C1196 C1198 1.419 1_455 S
C1197 C1192 1.425 1_455 S
C1197 C1194 1.409 . S
C1197 C1195 1.415 . S
C1198 H1188 0.930 . S
C1198 C1196 1.419 1_655 S
C1198 C1199 1.362 . S
C1199 H1189 0.930 . S
C1199 C1192 1.409 . S
C1199 C1198 1.362 . S
H1200 C1206 0.930 . S
H1201 C1209 0.930 . S
H1202 C1210 0.930 . S
H1203 C1211 0.930 . S
H1204 C1214 0.930 . S
H1205 C1215 0.930 . S
C1206 H1200 0.930 . S
C1206 C1207 1.355 . S
C1206 C1208 1.415 . S
C1207 C1206 1.355 . S
C1207 C1209 1.419 . S
C1208 C1206 1.415 . S
C1208 C1213 1.425 1_455 S
C1208 C1215 1.409 1_455 S
C1209 H1201 0.930 . S
C1209 C1207 1.419 . S
C1209 C1210 1.362 . S
C1210 H1202 0.930 . S
C1210 C1209 1.362 . S
C1210 C1213 1.409 1_455 S
C1211 H1203 0.930 . S
C1211 C1212 1.355 . S
C1211 C1213 1.415 . S
C1212 C1211 1.355 . S
C1212 C1214 1.419 . S
C1213 C1208 1.425 1_655 S
C1213 C1210 1.409 1_655 S
C1213 C1211 1.415 . S
C1214 H1204 0.930 . S
C1214 C1212 1.419 . S
C1214 C1215 1.362 . S
C1215 H1205 0.930 . S
C1215 C1208 1.409 1_655 S
C1215 C1214 1.362 . S
H1216 C1222 0.930 . S
H1217 C1225 0.930 . S
H1218 C1226 0.930 . S
H1219 C1227 0.930 . S
H1220 C1230 0.930 . S
H1221 C1231 0.930 . S
C1222 H1216 0.930 . S
C1222 C1223 1.355 . S
C1222 C1224 1.415 . S
C1223 C1222 1.355 . S
C1223 C1225 1.419 . S
C1224 C1222 1.415 . S
C1224 C1229 1.425 . S
C1224 C1231 1.409 . S
C1225 H1217 0.930 . S
C1225 C1223 1.419 . S
C1225 C1226 1.362 . S
C1226 H1218 0.930 . S
C1226 C1225 1.362 . S
C1226 C1229 1.409 . S
C1227 H1219 0.930 . S
C1227 C1228 1.355 . S
C1227 C1229 1.415 . S
C1228 C1227 1.355 . S
C1228 C1230 1.419 . S
C1229 C1224 1.425 . S
C1229 C1226 1.409 . S
C1229 C1227 1.415 . S
C1230 H1220 0.930 . S
C1230 C1228 1.419 . S
C1230 C1231 1.362 . S
C1231 H1221 0.930 . S
C1231 C1224 1.409 . S
C1231 C1230 1.362 . S
H1232 C1238 0.930 . S
H1233 C1241 0.930 . S
H1234 C1242 0.930 . S
H1235 C1243 0.930 . S
H1236 C1246 0.930 . S
H1237 C1247 0.930 . S
C1238 H1232 0.930 . S
C1238 C1239 1.355 . S
C1238 C1240 1.415 . S
C1239 C1238 1.355 . S
C1239 C1241 1.419 . S
C1240 C1238 1.415 . S
C1240 C1245 1.425 . S
C1240 C1247 1.409 . S
C1241 H1233 0.930 . S
C1241 C1239 1.419 . S
C1241 C1242 1.362 . S
C1242 H1234 0.930 . S
C1242 C1241 1.362 . S
C1242 C1245 1.409 . S
C1243 H1235 0.930 . S
C1243 C1244 1.355 . S
C1243 C1245 1.415 . S
C1244 C1243 1.355 . S
C1244 C1246 1.419 . S
C1245 C1240 1.425 . S
C1245 C1242 1.409 . S
C1245 C1243 1.415 . S
C1246 H1236 0.930 . S
C1246 C1244 1.419 . S
C1246 C1247 1.362 . S
C1247 H1237 0.930 . S
C1247 C1240 1.409 . S
C1247 C1246 1.362 . S
H1248 C1254 0.930 . S
H1249 C1257 0.930 . S
H1250 C1258 0.930 . S
H1251 C1259 0.930 . S
H1252 C1262 0.930 . S
H1253 C1263 0.930 . S
C1254 H1248 0.930 . S
C1254 C1255 1.355 . S
C1254 C1256 1.415 . S
C1255 C1254 1.355 . S
C1255 C1257 1.419 . S
C1256 C1254 1.415 . S
C1256 C1261 1.425 . S
C1256 C1263 1.409 . S
C1257 H1249 0.930 . S
C1257 C1255 1.419 . S
C1257 C1258 1.362 . S
C1258 H1250 0.930 . S
C1258 C1257 1.362 . S
C1258 C1261 1.409 . S
C1259 H1251 0.930 . S
C1259 C1260 1.355 . S
C1259 C1261 1.415 . S
C1260 C1259 1.355 . S
C1260 C1262 1.419 . S
C1261 C1256 1.425 . S
C1261 C1258 1.409 . S
C1261 C1259 1.415 . S
C1262 H1252 0.930 . S
C1262 C1260 1.419 . S
C1262 C1263 1.362 . S
C1263 H1253 0.930 . S
C1263 C1256 1.409 . S
C1263 C1262 1.362 . S
H1264 C1270 0.930 . S
H1265 C1273 0.930 . S
H1266 C1274 0.930 . S
H1267 C1275 0.930 . S
H1268 C1278 0.930 . S
H1269 C1279 0.930 . S
C1270 H1264 0.930 . S
C1270 C1271 1.355 . S
C1270 C1272 1.415 . S
C1271 C1270 1.355 . S
C1271 C1273 1.419 . S
C1272 C1270 1.415 . S
C1272 C1277 1.425 1_655 S
C1272 C1279 1.409 1_655 S
C1273 H1265 0.930 . S
C1273 C1271 1.419 . S
C1273 C1274 1.362 . S
C1274 H1266 0.930 . S
C1274 C1273 1.362 . S
C1274 C1277 1.409 1_655 S
C1275 H1267 0.930 . S
C1275 C1276 1.355 . S
C1275 C1277 1.415 . S
C1276 C1275 1.355 . S
C1276 C1278 1.419 . S
C1277 C1272 1.425 1_455 S
C1277 C1274 1.409 1_455 S
C1277 C1275 1.415 . S
C1278 H1268 0.930 . S
C1278 C1276 1.419 . S
C1278 C1279 1.362 . S
C1279 H1269 0.930 . S
C1279 C1272 1.409 1_455 S
C1279 C1278 1.362 . S
H1280 C1286 0.925 1_455 S
H1281 C1289 0.930 . S
H1282 C1290 0.930 . S
H1283 C1291 0.925 1_655 S
H1284 C1294 0.930 . S
H1285 C1295 0.930 . S
C1286 H1280 0.925 1_655 S
C1286 C1287 1.364 . S
C1286 C1288 1.412 1_655 S
C1287 C1286 1.364 . S
C1287 C1289 1.419 . S
C1288 C1286 1.412 1_455 S
C1288 C1293 1.425 1_455 S
C1288 C1295 1.409 . S
C1289 H1281 0.930 . S
C1289 C1287 1.419 . S
C1289 C1290 1.362 . S
C1290 H1282 0.930 . S
C1290 C1289 1.362 . S
C1290 C1293 1.409 . S
C1291 H1283 0.925 1_455 S
C1291 C1292 1.365 . S
C1291 C1293 1.412 1_455 S
C1292 C1291 1.365 . S
C1292 C1294 1.419 . S
C1293 C1288 1.425 1_655 S
C1293 C1290 1.409 . S
C1293 C1291 1.412 1_655 S
C1294 H1284 0.930 . S
C1294 C1292 1.419 . S
C1294 C1295 1.362 . S
C1295 H1285 0.930 . S
C1295 C1288 1.409 . S
C1295 C1294 1.362 . S
H1296 C1302 0.930 . S
H1297 C1305 0.930 . S
H1298 C1306 0.930 . S
H1299 C1307 0.930 . S
H1300 C1310 0.930 . S
H1301 C1311 0.930 . S
C1302 H1296 0.930 . S
C1302 C1303 1.355 . S
C1302 C1304 1.415 . S
C1303 C1302 1.355 . S
C1303 C1305 1.419 . S
C1304 C1302 1.415 . S
C1304 C1309 1.425 . S
C1304 C1311 1.409 . S
C1305 H1297 0.930 . S
C1305 C1303 1.419 . S
C1305 C1306 1.362 . S
C1306 H1298 0.930 . S
C1306 C1305 1.362 . S
C1306 C1309 1.409 . S
C1307 H1299 0.930 . S
C1307 C1308 1.355 . S
C1307 C1309 1.415 . S
C1308 C1307 1.355 . S
C1308 C1310 1.419 . S
C1309 C1304 1.425 . S
C1309 C1306 1.409 . S
C1309 C1307 1.415 . S
C1310 H1300 0.930 . S
C1310 C1308 1.419 . S
C1310 C1311 1.362 . S
C1311 H1301 0.930 . S
C1311 C1304 1.409 . S
C1311 C1310 1.362 . S
H1312 C1318 0.930 . S
H1313 C1321 0.930 . S
H1314 C1322 0.930 . S
H1315 C1323 0.930 . S
H1316 C1326 0.930 . S
H1317 C1327 0.930 . S
C1318 H1312 0.930 . S
C1318 C1319 1.355 . S
C1318 C1320 1.415 . S
C1319 C1318 1.355 . S
C1319 C1321 1.419 . S
C1320 C1318 1.415 . S
C1320 C1325 1.425 1_545 S
C1320 C1327 1.409 1_545 S
C1321 H1313 0.930 . S
C1321 C1319 1.419 . S
C1321 C1322 1.362 . S
C1322 H1314 0.930 . S
C1322 C1321 1.362 . S
C1322 C1325 1.409 1_545 S
C1323 H1315 0.930 . S
C1323 C1324 1.355 . S
C1323 C1325 1.415 . S
C1324 C1323 1.355 . S
C1324 C1326 1.419 . S
C1325 C1320 1.425 1_565 S
C1325 C1322 1.409 1_565 S
C1325 C1323 1.415 . S
C1326 H1316 0.930 . S
C1326 C1324 1.419 . S
C1326 C1327 1.362 . S
C1327 H1317 0.930 . S
C1327 C1320 1.409 1_565 S
C1327 C1326 1.362 . S
H1328 C1334 0.930 . S
H1329 C1337 0.930 . S
H1330 C1338 0.930 . S
H1331 C1339 0.930 . S
H1332 C1342 0.930 . S
H1333 C1343 0.930 . S
C1334 H1328 0.930 . S
C1334 C1335 1.355 . S
C1334 C1336 1.415 . S
C1335 C1334 1.355 . S
C1335 C1337 1.419 1_554 S
C1336 C1334 1.415 . S
C1336 C1341 1.425 1_554 S
C1336 C1343 1.409 . S
C1337 H1329 0.930 . S
C1337 C1335 1.419 1_556 S
C1337 C1338 1.362 . S
C1338 H1330 0.930 . S
C1338 C1337 1.362 . S
C1338 C1341 1.409 . S
C1339 H1331 0.930 . S
C1339 C1340 1.355 . S
C1339 C1341 1.415 . S
C1340 C1339 1.355 . S
C1340 C1342 1.419 1_556 S
C1341 C1336 1.425 1_556 S
C1341 C1338 1.409 . S
C1341 C1339 1.415 . S
C1342 H1332 0.930 . S
C1342 C1340 1.419 1_554 S
C1342 C1343 1.362 . S
C1343 H1333 0.930 . S
C1343 C1336 1.409 . S
C1343 C1342 1.362 . S
H1344 C1350 0.930 . S
H1345 C1353 0.930 . S
H1346 C1354 0.947 . S
H1347 C1355 0.930 . S
H1348 C1358 0.930 . S
H1349 C1359 0.930 . S
C1350 H1344 0.930 . S
C1350 C1351 1.355 . S
C1350 C1352 1.415 . S
C1351 C1350 1.355 . S
C1351 C1353 1.419 . S
C1352 C1350 1.415 . S
C1352 C1357 1.425 1_545 S
C1352 C1359 1.409 1_545 S
C1353 H1345 0.930 . S
C1353 C1351 1.419 . S
C1353 C1354 1.362 . S
C1354 H1346 0.947 . S
C1354 C1353 1.362 . S
C1354 C1357 1.409 1_545 S
C1355 H1347 0.930 . S
C1355 C1356 1.355 . S
C1355 C1357 1.415 . S
C1356 C1355 1.355 . S
C1356 C1358 1.419 . S
C1357 C1352 1.425 1_565 S
C1357 C1354 1.409 1_565 S
C1357 C1355 1.415 . S
C1358 H1348 0.930 . S
C1358 C1356 1.419 . S
C1358 C1359 1.362 . S
C1359 H1349 0.930 . S
C1359 C1352 1.409 1_565 S
C1359 C1358 1.362 . S
H1360 C1366 0.930 . S
H1361 C1369 0.930 . S
H1362 C1370 0.930 . S
H1363 C1371 0.930 . S
H1364 C1374 0.930 . S
H1365 C1375 0.930 . S
C1366 H1360 0.930 . S
C1366 C1367 1.355 1_554 S
C1366 C1368 1.415 . S
C1367 C1366 1.355 1_556 S
C1367 C1369 1.419 . S
C1368 C1366 1.415 . S
C1368 C1373 1.425 1_554 S
C1368 C1375 1.409 . S
C1369 H1361 0.930 . S
C1369 C1367 1.419 . S
C1369 C1370 1.362 . S
C1370 H1362 0.930 . S
C1370 C1369 1.362 . S
C1370 C1373 1.409 . S
C1371 H1363 0.930 . S
C1371 C1372 1.355 1_556 S
C1371 C1373 1.415 . S
C1372 C1371 1.355 1_554 S
C1372 C1374 1.419 . S
C1373 C1368 1.425 1_556 S
C1373 C1370 1.409 . S
C1373 C1371 1.415 . S
C1374 H1364 0.930 . S
C1374 C1372 1.419 . S
C1374 C1375 1.362 . S
C1375 H1365 0.930 . S
C1375 C1368 1.409 . S
C1375 C1374 1.362 . S
H1376 C1382 0.930 . S
H1377 C1385 0.930 . S
H1378 C1386 0.930 . S
H1379 C1387 0.930 . S
H1380 C1390 0.930 . S
H1381 C1391 0.930 . S
C1382 H1376 0.930 . S
C1382 C1383 1.355 . S
C1382 C1384 1.415 . S
C1383 C1382 1.355 . S
C1383 C1385 1.419 . S
C1384 C1382 1.415 . S
C1384 C1389 1.425 . S
C1384 C1391 1.409 . S
C1385 H1377 0.930 . S
C1385 C1383 1.419 . S
C1385 C1386 1.362 . S
C1386 H1378 0.930 . S
C1386 C1385 1.362 . S
C1386 C1389 1.409 . S
C1387 H1379 0.930 . S
C1387 C1388 1.355 . S
C1387 C1389 1.415 . S
C1388 C1387 1.355 . S
C1388 C1390 1.419 . S
C1389 C1384 1.425 . S
C1389 C1386 1.409 . S
C1389 C1387 1.415 . S
C1390 H1380 0.930 . S
C1390 C1388 1.419 . S
C1390 C1391 1.362 . S
C1391 H1381 0.930 . S
C1391 C1384 1.409 . S
C1391 C1390 1.362 . S
H1392 C1398 0.930 . S
H1393 C1401 0.930 . S
H1394 C1402 0.930 . S
H1395 C1403 0.930 . S
H1396 C1406 0.930 . S
H1397 C1407 0.930 . S
C1398 H1392 0.930 . S
C1398 C1399 1.355 . S
C1398 C1400 1.415 . S
C1399 C1398 1.355 . S
C1399 C1401 1.419 . S
C1400 C1398 1.415 . S
C1400 C1405 1.425 . S
C1400 C1407 1.409 . S
C1401 H1393 0.930 . S
C1401 C1399 1.419 . S
C1401 C1402 1.362 . S
C1402 H1394 0.930 . S
C1402 C1401 1.362 . S
C1402 C1405 1.409 . S
C1403 H1395 0.930 . S
C1403 C1404 1.355 . S
C1403 C1405 1.415 . S
C1404 C1403 1.355 . S
C1404 C1406 1.419 . S
C1405 C1400 1.425 . S
C1405 C1402 1.409 . S
C1405 C1403 1.415 . S
C1406 H1396 0.930 . S
C1406 C1404 1.419 . S
C1406 C1407 1.362 . S
C1407 H1397 0.930 . S
C1407 C1400 1.409 . S
C1407 C1406 1.362 . S
H1408 C1414 0.930 . S
H1409 C1417 0.930 . S
H1410 C1418 0.930 . S
H1411 C1419 0.930 . S
H1412 C1422 0.930 . S
H1413 C1423 0.930 . S
C1414 H1408 0.930 . S
C1414 C1415 1.355 . S
C1414 C1416 1.415 . S
C1415 C1414 1.355 . S
C1415 C1417 1.419 . S
C1416 C1414 1.415 . S
C1416 C1421 1.425 1_554 S
C1416 C1423 1.409 1_554 S
C1417 H1409 0.930 . S
C1417 C1415 1.419 . S
C1417 C1418 1.362 . S
C1418 H1410 0.930 . S
C1418 C1417 1.362 . S
C1418 C1421 1.409 1_554 S
C1419 H1411 0.930 . S
C1419 C1420 1.355 . S
C1419 C1421 1.415 . S
C1420 C1419 1.355 . S
C1420 C1422 1.419 . S
C1421 C1416 1.425 1_556 S
C1421 C1418 1.409 1_556 S
C1421 C1419 1.415 . S
C1422 H1412 0.930 . S
C1422 C1420 1.419 . S
C1422 C1423 1.362 . S
C1423 H1413 0.930 . S
C1423 C1416 1.409 1_556 S
C1423 C1422 1.362 . S
H1424 C1430 0.930 . S
H1425 C1433 0.930 . S
H1426 C1434 0.930 . S
H1427 C1435 0.930 . S
H1428 C1438 0.930 . S
H1429 C1439 0.930 . S
C1430 H1424 0.930 . S
C1430 C1431 1.355 . S
C1430 C1432 1.415 . S
C1431 C1430 1.355 . S
C1431 C1433 1.419 . S
C1432 C1430 1.415 . S
C1432 C1437 1.425 . S
C1432 C1439 1.409 . S
C1433 H1425 0.930 . S
C1433 C1431 1.419 . S
C1433 C1434 1.362 . S
C1434 H1426 0.930 . S
C1434 C1433 1.362 . S
C1434 C1437 1.409 . S
C1435 H1427 0.930 . S
C1435 C1436 1.355 . S
C1435 C1437 1.415 . S
C1436 C1435 1.355 . S
C1436 C1438 1.419 . S
C1437 C1432 1.425 . S
C1437 C1434 1.409 . S
C1437 C1435 1.415 . S
C1438 H1428 0.930 . S
C1438 C1436 1.419 . S
C1438 C1439 1.362 . S
C1439 H1429 0.930 . S
C1439 C1432 1.409 . S
C1439 C1438 1.362 . S
H1440 C1446 0.930 . S
H1441 C1449 0.930 . S
H1442 C1450 0.930 . S
H1443 C1451 0.930 . S
H1444 C1454 0.930 . S
H1445 C1455 0.930 . S
C1446 H1440 0.930 . S
C1446 C1447 1.355 . S
C1446 C1448 1.415 . S
C1447 C1446 1.355 . S
C1447 C1449 1.419 . S
C1448 C1446 1.415 . S
C1448 C1453 1.425 . S
C1448 C1455 1.409 . S
C1449 H1441 0.930 . S
C1449 C1447 1.419 . S
C1449 C1450 1.362 . S
C1450 H1442 0.930 . S
C1450 C1449 1.362 . S
C1450 C1453 1.409 . S
C1451 H1443 0.930 . S
C1451 C1452 1.355 . S
C1451 C1453 1.415 . S
C1452 C1451 1.355 . S
C1452 C1454 1.419 . S
C1453 C1448 1.425 . S
C1453 C1450 1.409 . S
C1453 C1451 1.415 . S
C1454 H1444 0.930 . S
C1454 C1452 1.419 . S
C1454 C1455 1.362 . S
C1455 H1445 0.930 . S
C1455 C1448 1.409 . S
C1455 C1454 1.362 . S
H1456 C1462 0.930 . S
H1457 C1465 0.930 . S
H1458 C1466 0.930 . S
H1459 C1467 0.930 . S
H1460 C1470 0.930 . S
H1461 C1471 0.930 . S
C1462 H1456 0.930 . S
C1462 C1463 1.355 . S
C1462 C1464 1.415 . S
C1463 C1462 1.355 . S
C1463 C1465 1.419 . S
C1464 C1462 1.415 . S
C1464 C1469 1.425 . S
C1464 C1471 1.409 . S
C1465 H1457 0.930 . S
C1465 C1463 1.419 . S
C1465 C1466 1.362 . S
C1466 H1458 0.930 . S
C1466 C1465 1.362 . S
C1466 C1469 1.409 . S
C1467 H1459 0.930 . S
C1467 C1468 1.355 . S
C1467 C1469 1.415 . S
C1468 C1467 1.355 . S
C1468 C1470 1.419 . S
C1469 C1464 1.425 . S
C1469 C1466 1.409 . S
C1469 C1467 1.415 . S
C1470 H1460 0.930 . S
C1470 C1468 1.419 . S
C1470 C1471 1.362 . S
C1471 H1461 0.930 . S
C1471 C1464 1.409 . S
C1471 C1470 1.362 . S
H1472 C1478 0.930 . S
H1473 C1481 0.930 . S
H1474 C1482 0.930 . S
H1475 C1483 0.930 . S
H1476 C1486 0.930 . S
H1477 C1487 0.930 . S
C1478 H1472 0.930 . S
C1478 C1479 1.355 . S
C1478 C1480 1.415 . S
C1479 C1478 1.355 . S
C1479 C1481 1.419 . S
C1480 C1478 1.415 . S
C1480 C1485 1.425 . S
C1480 C1487 1.409 . S
C1481 H1473 0.930 . S
C1481 C1479 1.419 . S
C1481 C1482 1.362 . S
C1482 H1474 0.930 . S
C1482 C1481 1.362 . S
C1482 C1485 1.409 . S
C1483 H1475 0.930 . S
C1483 C1484 1.355 . S
C1483 C1485 1.415 . S
C1484 C1483 1.355 . S
C1484 C1486 1.419 . S
C1485 C1480 1.425 . S
C1485 C1482 1.409 . S
C1485 C1483 1.415 . S
C1486 H1476 0.930 . S
C1486 C1484 1.419 . S
C1486 C1487 1.362 . S
C1487 H1477 0.930 . S
C1487 C1480 1.409 . S
C1487 C1486 1.362 . S
H1488 C1494 0.930 . S
H1489 C1497 0.930 . S
H1490 C1498 0.930 . S
H1491 C1499 0.930 . S
H1492 C1502 0.930 . S
H1493 C1503 0.930 . S
C1494 H1488 0.930 . S
C1494 C1495 1.355 . S
C1494 C1496 1.415 . S
C1495 C1494 1.355 . S
C1495 C1497 1.419 . S
C1496 C1494 1.415 . S
C1496 C1501 1.425 . S
C1496 C1503 1.409 . S
C1497 H1489 0.930 . S
C1497 C1495 1.419 . S
C1497 C1498 1.362 . S
C1498 H1490 0.930 . S
C1498 C1497 1.362 . S
C1498 C1501 1.409 . S
C1499 H1491 0.930 . S
C1499 C1500 1.355 . S
C1499 C1501 1.415 . S
C1500 C1499 1.355 . S
C1500 C1502 1.419 . S
C1501 C1496 1.425 . S
C1501 C1498 1.409 . S
C1501 C1499 1.415 . S
C1502 H1492 0.930 . S
C1502 C1500 1.419 . S
C1502 C1503 1.362 . S
C1503 H1493 0.930 . S
C1503 C1496 1.409 . S
C1503 C1502 1.362 . S
H1504 C1510 0.930 1_455 S
H1505 C1513 0.930 . S
H1506 C1514 0.930 . S
H1507 C1515 0.930 . S
H1508 C1518 0.931 . S
H1509 C1519 0.930 . S
C1510 H1504 0.930 1_655 S
C1510 C1511 1.355 . S
C1510 C1512 1.415 . S
C1511 C1510 1.355 . S
C1511 C1513 1.419 . S
C1512 C1510 1.415 . S
C1512 C1517 1.425 . S
C1512 C1519 1.409 . S
C1513 H1505 0.930 . S
C1513 C1511 1.419 . S
C1513 C1514 1.362 . S
C1514 H1506 0.930 . S
C1514 C1513 1.362 . S
C1514 C1517 1.409 . S
C1515 H1507 0.930 . S
C1515 C1516 1.355 . S
C1515 C1517 1.415 . S
C1516 C1515 1.355 . S
C1516 C1518 1.419 . S
C1517 C1512 1.425 . S
C1517 C1514 1.409 . S
C1517 C1515 1.415 . S
C1518 H1508 0.931 . S
C1518 C1516 1.419 . S
C1518 C1519 1.362 . S
C1519 H1509 0.930 . S
C1519 C1512 1.409 . S
C1519 C1518 1.362 . S
H1520 C1526 0.930 . S
H1521 C1529 0.930 . S
H1522 C1530 0.930 . S
H1523 C1531 0.930 . S
H1524 C1534 0.930 . S
H1525 C1535 0.930 . S
C1526 H1520 0.930 . S
C1526 C1527 1.355 . S
C1526 C1528 1.415 . S
C1527 C1526 1.355 . S
C1527 C1529 1.419 . S
C1528 C1526 1.415 . S
C1528 C1533 1.425 . S
C1528 C1535 1.409 . S
C1529 H1521 0.930 . S
C1529 C1527 1.419 . S
C1529 C1530 1.362 . S
C1530 H1522 0.930 . S
C1530 C1529 1.362 . S
C1530 C1533 1.409 . S
C1531 H1523 0.930 . S
C1531 C1532 1.355 . S
C1531 C1533 1.415 . S
C1532 C1531 1.355 . S
C1532 C1534 1.419 . S
C1533 C1528 1.425 . S
C1533 C1530 1.409 . S
C1533 C1531 1.415 . S
C1534 H1524 0.930 . S
C1534 C1532 1.419 . S
C1534 C1535 1.362 . S
C1535 H1525 0.930 . S
C1535 C1528 1.409 . S
C1535 C1534 1.362 . S
H1536 C1542 0.885 1_565 S
H1537 C1545 0.930 . S
H1538 C1546 0.930 . S
H1539 C1547 0.930 . S
H1540 C1550 0.930 1_565 S
H1541 C1551 0.930 . S
C1542 H1536 0.885 1_545 S
C1542 C1543 1.382 . S
C1542 C1544 1.433 . S
C1543 C1542 1.382 . S
C1543 C1545 1.419 . S
C1544 C1542 1.433 . S
C1544 C1549 1.425 . S
C1544 C1551 1.409 1_545 S
C1545 H1537 0.930 . S
C1545 C1543 1.419 . S
C1545 C1546 1.362 . S
C1546 H1538 0.930 . S
C1546 C1545 1.362 . S
C1546 C1549 1.409 . S
C1547 H1539 0.930 . S
C1547 C1548 1.355 . S
C1547 C1549 1.415 . S
C1548 C1547 1.355 . S
C1548 C1550 1.419 . S
C1549 C1544 1.425 . S
C1549 C1546 1.409 . S
C1549 C1547 1.415 . S
C1550 H1540 0.930 1_545 S
C1550 C1548 1.419 . S
C1550 C1551 1.362 1_545 S
C1551 H1541 0.930 . S
C1551 C1544 1.409 1_565 S
C1551 C1550 1.362 1_565 S
H1552 C1558 0.930 . S
H1553 C1561 0.930 . S
H1554 C1562 0.930 . S
H1555 C1563 0.930 . S
H1556 C1566 0.930 . S
H1557 C1567 0.930 . S
C1558 H1552 0.930 . S
C1558 C1559 1.355 . S
C1558 C1560 1.415 . S
C1559 C1558 1.355 . S
C1559 C1561 1.419 . S
C1560 C1558 1.415 . S
C1560 C1565 1.425 . S
C1560 C1567 1.409 . S
C1561 H1553 0.930 . S
C1561 C1559 1.419 . S
C1561 C1562 1.362 . S
C1562 H1554 0.930 . S
C1562 C1561 1.362 . S
C1562 C1565 1.409 . S
C1563 H1555 0.930 . S
C1563 C1564 1.355 . S
C1563 C1565 1.415 . S
C1564 C1563 1.355 . S
C1564 C1566 1.419 . S
C1565 C1560 1.425 . S
C1565 C1562 1.409 . S
C1565 C1563 1.415 . S
C1566 H1556 0.930 . S
C1566 C1564 1.419 . S
C1566 C1567 1.362 . S
C1567 H1557 0.930 . S
C1567 C1560 1.409 . S
C1567 C1566 1.362 . S
H1568 C1574 0.930 . S
H1569 C1577 0.930 . S
H1570 C1578 0.930 . S
H1571 C1579 0.930 . S
H1572 C1582 0.930 . S
H1573 C1583 0.930 . S
C1574 H1568 0.930 . S
C1574 C1575 1.355 . S
C1574 C1576 1.415 . S
C1575 C1574 1.355 . S
C1575 C1577 1.419 1_565 S
C1576 C1574 1.415 . S
C1576 C1581 1.425 . S
C1576 C1583 1.409 . S
C1577 H1569 0.930 . S
C1577 C1575 1.419 1_545 S
C1577 C1578 1.362 . S
C1578 H1570 0.930 . S
C1578 C1577 1.362 . S
C1578 C1581 1.409 1_545 S
C1579 H1571 0.930 . S
C1579 C1580 1.355 . S
C1579 C1581 1.415 . S
C1580 C1579 1.355 . S
C1580 C1582 1.419 . S
C1581 C1576 1.425 . S
C1581 C1578 1.409 1_565 S
C1581 C1579 1.415 . S
C1582 H1572 0.930 . S
C1582 C1580 1.419 . S
C1582 C1583 1.362 . S
C1583 H1573 0.930 . S
C1583 C1576 1.409 . S
C1583 C1582 1.362 . S
H1584 C1590 0.930 . S
H1585 C1593 0.930 . S
H1586 C1594 0.930 . S
H1587 C1595 0.930 . S
H1588 C1598 0.930 . S
H1589 C1599 0.930 . S
C1590 H1584 0.930 . S
C1590 C1591 1.355 . S
C1590 C1592 1.415 . S
C1591 C1590 1.355 . S
C1591 C1593 1.419 . S
C1592 C1590 1.415 . S
C1592 C1597 1.425 . S
C1592 C1599 1.409 . S
C1593 H1585 0.930 . S
C1593 C1591 1.419 . S
C1593 C1594 1.362 . S
C1594 H1586 0.930 . S
C1594 C1593 1.362 . S
C1594 C1597 1.409 . S
C1595 H1587 0.930 . S
C1595 C1596 1.355 . S
C1595 C1597 1.415 . S
C1596 C1595 1.355 . S
C1596 C1598 1.419 . S
C1597 C1592 1.425 . S
C1597 C1594 1.409 . S
C1597 C1595 1.415 . S
C1598 H1588 0.930 . S
C1598 C1596 1.419 . S
C1598 C1599 1.362 . S
C1599 H1589 0.930 . S
C1599 C1592 1.409 . S
C1599 C1598 1.362 . S
H1600 C1606 0.930 . S
H1601 C1609 0.930 . S
H1602 C1610 0.930 . S
H1603 C1611 0.930 . S
H1604 C1614 0.930 1_455 S
H1605 C1615 0.930 . S
C1606 H1600 0.930 . S
C1606 C1607 1.355 . S
C1606 C1608 1.415 . S
C1607 C1606 1.355 . S
C1607 C1609 1.419 1_545 S
C1608 C1606 1.415 . S
C1608 C1613 1.425 . S
C1608 C1615 1.409 . S
C1609 H1601 0.930 . S
C1609 C1607 1.419 1_565 S
C1609 C1610 1.362 . S
C1610 H1602 0.930 . S
C1610 C1609 1.362 . S
C1610 C1613 1.409 1_565 S
C1611 H1603 0.930 . S
C1611 C1612 1.355 . S
C1611 C1613 1.415 . S
C1612 C1611 1.355 . S
C1612 C1614 1.419 . S
C1613 C1608 1.425 . S
C1613 C1610 1.409 1_545 S
C1613 C1611 1.415 . S
C1614 H1604 0.930 1_655 S
C1614 C1612 1.419 . S
C1614 C1615 1.362 . S
C1615 H1605 0.930 . S
C1615 C1608 1.409 . S
C1615 C1614 1.362 . S
H1616 C1622 0.930 . S
H1617 C1625 0.930 . S
H1618 C1626 0.930 . S
H1619 C1627 0.930 . S
H1620 C1630 0.930 . S
H1621 C1631 0.930 . S
C1622 H1616 0.930 . S
C1622 C1623 1.355 . S
C1622 C1624 1.415 . S
C1623 C1622 1.355 . S
C1623 C1625 1.419 . S
C1624 C1622 1.415 . S
C1624 C1629 1.425 . S
C1624 C1631 1.409 . S
C1625 H1617 0.930 . S
C1625 C1623 1.419 . S
C1625 C1626 1.362 . S
C1626 H1618 0.930 . S
C1626 C1625 1.362 . S
C1626 C1629 1.409 . S
C1627 H1619 0.930 . S
C1627 C1628 1.355 . S
C1627 C1629 1.415 . S
C1628 C1627 1.355 . S
C1628 C1630 1.419 . S
C1629 C1624 1.425 . S
C1629 C1626 1.409 . S
C1629 C1627 1.415 . S
C1630 H1620 0.930 . S
C1630 C1628 1.419 . S
C1630 C1631 1.362 . S
C1631 H1621 0.930 . S
C1631 C1624 1.409 . S
C1631 C1630 1.362 . S
H1632 C1638 0.930 . S
H1633 C1641 0.930 . S
H1634 C1642 0.930 . S
H1635 C1643 0.930 . S
H1636 C1646 0.930 . S
H1637 C1647 0.930 . S
C1638 H1632 0.930 . S
C1638 C1639 1.355 . S
C1638 C1640 1.415 . S
C1639 C1638 1.355 . S
C1639 C1641 1.419 . S
C1640 C1638 1.415 . S
C1640 C1645 1.425 . S
C1640 C1647 1.409 . S
C1641 H1633 0.930 . S
C1641 C1639 1.419 . S
C1641 C1642 1.362 . S
C1642 H1634 0.930 . S
C1642 C1641 1.362 . S
C1642 C1645 1.409 . S
C1643 H1635 0.930 . S
C1643 C1644 1.355 . S
C1643 C1645 1.415 . S
C1644 C1643 1.355 . S
C1644 C1646 1.419 . S
C1645 C1640 1.425 . S
C1645 C1642 1.409 . S
C1645 C1643 1.415 . S
C1646 H1636 0.930 . S
C1646 C1644 1.419 . S
C1646 C1647 1.362 . S
C1647 H1637 0.930 . S
C1647 C1640 1.409 . S
C1647 C1646 1.362 . S
H1648 C1654 0.930 . S
H1649 C1657 0.930 . S
H1650 C1658 0.930 . S
H1651 C1659 0.930 . S
H1652 C1662 0.930 . S
H1653 C1663 0.930 . S
C1654 H1648 0.930 . S
C1654 C1655 1.355 . S
C1654 C1656 1.415 . S
C1655 C1654 1.355 . S
C1655 C1657 1.419 . S
C1656 C1654 1.415 . S
C1656 C1661 1.425 . S
C1656 C1663 1.409 . S
C1657 H1649 0.930 . S
C1657 C1655 1.419 . S
C1657 C1658 1.362 . S
C1658 H1650 0.930 . S
C1658 C1657 1.362 . S
C1658 C1661 1.409 . S
C1659 H1651 0.930 . S
C1659 C1660 1.355 . S
C1659 C1661 1.415 . S
C1660 C1659 1.355 . S
C1660 C1662 1.419 . S
C1661 C1656 1.425 . S
C1661 C1658 1.409 . S
C1661 C1659 1.415 . S
C1662 H1652 0.930 . S
C1662 C1660 1.419 . S
C1662 C1663 1.362 . S
C1663 H1653 0.930 . S
C1663 C1656 1.409 . S
C1663 C1662 1.362 . S
H1664 C1670 0.930 . S
H1665 C1673 0.930 . S
H1666 C1674 0.930 . S
H1667 C1675 0.930 . S
H1668 C1678 0.930 . S
H1669 C1679 0.930 . S
C1670 H1664 0.930 . S
C1670 C1671 1.355 . S
C1670 C1672 1.415 . S
C1671 C1670 1.355 . S
C1671 C1673 1.419 . S
C1672 C1670 1.415 . S
C1672 C1677 1.425 . S
C1672 C1679 1.409 . S
C1673 H1665 0.930 . S
C1673 C1671 1.419 . S
C1673 C1674 1.362 . S
C1674 H1666 0.930 . S
C1674 C1673 1.362 . S
C1674 C1677 1.409 . S
C1675 H1667 0.930 . S
C1675 C1676 1.355 . S
C1675 C1677 1.415 . S
C1676 C1675 1.355 . S
C1676 C1678 1.419 . S
C1677 C1672 1.425 . S
C1677 C1674 1.409 . S
C1677 C1675 1.415 . S
C1678 H1668 0.930 . S
C1678 C1676 1.419 . S
C1678 C1679 1.362 . S
C1679 H1669 0.930 . S
C1679 C1672 1.409 . S
C1679 C1678 1.362 . S
H1680 C1686 0.930 . S
H1681 C1689 0.930 . S
H1682 C1690 0.930 . S
H1683 C1691 0.930 . S
H1684 C1694 0.930 . S
H1685 C1695 0.930 . S
C1686 H1680 0.930 . S
C1686 C1687 1.355 . S
C1686 C1688 1.415 . S
C1687 C1686 1.355 . S
C1687 C1689 1.419 . S
C1688 C1686 1.415 . S
C1688 C1693 1.425 . S
C1688 C1695 1.409 . S
C1689 H1681 0.930 . S
C1689 C1687 1.419 . S
C1689 C1690 1.362 . S
C1690 H1682 0.930 . S
C1690 C1689 1.362 . S
C1690 C1693 1.409 . S
C1691 H1683 0.930 . S
C1691 C1692 1.355 . S
C1691 C1693 1.415 . S
C1692 C1691 1.355 . S
C1692 C1694 1.419 . S
C1693 C1688 1.425 . S
C1693 C1690 1.409 . S
C1693 C1691 1.415 . S
C1694 H1684 0.930 . S
C1694 C1692 1.419 . S
C1694 C1695 1.362 . S
C1695 H1685 0.930 . S
C1695 C1688 1.409 . S
C1695 C1694 1.362 . S
H1696 C1702 0.930 . S
H1697 C1705 0.930 . S
H1698 C1706 0.930 . S
H1699 C1707 0.930 . S
H1700 C1710 0.930 . S
H1701 C1711 0.930 . S
C1702 H1696 0.930 . S
C1702 C1703 1.355 . S
C1702 C1704 1.415 . S
C1703 C1702 1.355 . S
C1703 C1705 1.419 . S
C1704 C1702 1.415 . S
C1704 C1709 1.425 . S
C1704 C1711 1.409 . S
C1705 H1697 0.930 . S
C1705 C1703 1.419 . S
C1705 C1706 1.362 . S
C1706 H1698 0.930 . S
C1706 C1705 1.362 . S
C1706 C1709 1.409 . S
C1707 H1699 0.930 . S
C1707 C1708 1.355 . S
C1707 C1709 1.415 . S
C1708 C1707 1.355 . S
C1708 C1710 1.419 . S
C1709 C1704 1.425 . S
C1709 C1706 1.409 . S
C1709 C1707 1.415 . S
C1710 H1700 0.930 . S
C1710 C1708 1.419 . S
C1710 C1711 1.362 . S
C1711 H1701 0.930 . S
C1711 C1704 1.409 . S
C1711 C1710 1.362 . S
H1712 C1718 0.930 . S
H1713 C1721 0.930 . S
H1714 C1722 0.930 . S
H1715 C1723 0.930 . S
H1716 C1726 0.930 . S
H1717 C1727 0.930 . S
C1718 H1712 0.930 . S
C1718 C1719 1.355 . S
C1718 C1720 1.415 . S
C1719 C1718 1.355 . S
C1719 C1721 1.419 . S
C1720 C1718 1.415 . S
C1720 C1725 1.425 . S
C1720 C1727 1.409 . S
C1721 H1713 0.930 . S
C1721 C1719 1.419 . S
C1721 C1722 1.362 . S
C1722 H1714 0.930 . S
C1722 C1721 1.362 . S
C1722 C1725 1.409 . S
C1723 H1715 0.930 . S
C1723 C1724 1.355 . S
C1723 C1725 1.415 . S
C1724 C1723 1.355 . S
C1724 C1726 1.419 . S
C1725 C1720 1.425 . S
C1725 C1722 1.409 . S
C1725 C1723 1.415 . S
C1726 H1716 0.930 . S
C1726 C1724 1.419 . S
C1726 C1727 1.362 . S
C1727 H1717 0.930 . S
C1727 C1720 1.409 . S
C1727 C1726 1.362 . S
H1728 C1734 0.930 . S
H1729 C1737 0.930 . S
H1730 C1738 0.930 . S
H1731 C1739 0.930 . S
H1732 C1742 0.930 . S
H1733 C1743 0.930 . S
C1734 H1728 0.930 . S
C1734 C1735 1.355 . S
C1734 C1736 1.415 . S
C1735 C1734 1.355 . S
C1735 C1737 1.419 . S
C1736 C1734 1.415 . S
C1736 C1741 1.425 . S
C1736 C1743 1.409 . S
C1737 H1729 0.930 . S
C1737 C1735 1.419 . S
C1737 C1738 1.362 . S
C1738 H1730 0.930 . S
C1738 C1737 1.362 . S
C1738 C1741 1.409 . S
C1739 H1731 0.930 . S
C1739 C1740 1.355 . S
C1739 C1741 1.415 . S
C1740 C1739 1.355 . S
C1740 C1742 1.419 . S
C1741 C1736 1.425 . S
C1741 C1738 1.409 . S
C1741 C1739 1.415 . S
C1742 H1732 0.930 . S
C1742 C1740 1.419 . S
C1742 C1743 1.362 . S
C1743 H1733 0.930 . S
C1743 C1736 1.409 . S
C1743 C1742 1.362 . S
H1744 C1750 0.930 . S
H1745 C1753 0.930 . S
H1746 C1754 0.930 . S
H1747 C1755 0.930 . S
H1748 C1758 0.930 . S
H1749 C1759 0.930 . S
C1750 H1744 0.930 . S
C1750 C1751 1.355 . S
C1750 C1752 1.415 . S
C1751 C1750 1.355 . S
C1751 C1753 1.419 . S
C1752 C1750 1.415 . S
C1752 C1757 1.425 . S
C1752 C1759 1.409 . S
C1753 H1745 0.930 . S
C1753 C1751 1.419 . S
C1753 C1754 1.362 . S
C1754 H1746 0.930 . S
C1754 C1753 1.362 . S
C1754 C1757 1.409 . S
C1755 H1747 0.930 . S
C1755 C1756 1.355 . S
C1755 C1757 1.415 . S
C1756 C1755 1.355 . S
C1756 C1758 1.419 . S
C1757 C1752 1.425 . S
C1757 C1754 1.409 . S
C1757 C1755 1.415 . S
C1758 H1748 0.930 . S
C1758 C1756 1.419 . S
C1758 C1759 1.362 . S
C1759 H1749 0.930 . S
C1759 C1752 1.409 . S
C1759 C1758 1.362 . S
H1760 C1766 0.930 . S
H1761 C1769 0.930 . S
H1762 C1770 0.930 . S
H1763 C1771 0.930 . S
H1764 C1774 0.930 . S
H1765 C1775 0.930 . S
C1766 H1760 0.930 . S
C1766 C1767 1.355 . S
C1766 C1768 1.415 . S
C1767 C1766 1.355 . S
C1767 C1769 1.419 . S
C1768 C1766 1.415 . S
C1768 C1773 1.425 . S
C1768 C1775 1.409 . S
C1769 H1761 0.930 . S
C1769 C1767 1.419 . S
C1769 C1770 1.362 . S
C1770 H1762 0.930 . S
C1770 C1769 1.362 . S
C1770 C1773 1.409 . S
C1771 H1763 0.930 . S
C1771 C1772 1.355 . S
C1771 C1773 1.415 . S
C1772 C1771 1.355 . S
C1772 C1774 1.419 . S
C1773 C1768 1.425 . S
C1773 C1770 1.409 . S
C1773 C1771 1.415 . S
C1774 H1764 0.930 . S
C1774 C1772 1.419 . S
C1774 C1775 1.362 . S
C1775 H1765 0.930 . S
C1775 C1768 1.409 . S
C1775 C1774 1.362 . S
H1776 C1782 0.930 . S
H1777 C1785 0.930 . S
H1778 C1786 0.930 . S
H1779 C1787 0.930 . S
H1780 C1790 0.930 . S
H1781 C1791 0.930 1_556 S
C1782 H1776 0.930 . S
C1782 C1783 1.355 . S
C1782 C1784 1.415 . S
C1783 C1782 1.355 . S
C1783 C1785 1.419 . S
C1784 C1782 1.415 . S
C1784 C1789 1.425 . S
C1784 C1791 1.409 . S
C1785 H1777 0.930 . S
C1785 C1783 1.419 . S
C1785 C1786 1.362 . S
C1786 H1778 0.930 . S
C1786 C1785 1.362 . S
C1786 C1789 1.409 . S
C1787 H1779 0.930 . S
C1787 C1788 1.355 . S
C1787 C1789 1.415 . S
C1788 C1787 1.355 . S
C1788 C1790 1.419 . S
C1789 C1784 1.425 . S
C1789 C1786 1.409 . S
C1789 C1787 1.415 . S
C1790 H1780 0.930 . S
C1790 C1788 1.419 . S
C1790 C1791 1.362 . S
C1791 H1781 0.930 1_554 S
C1791 C1784 1.409 . S
C1791 C1790 1.362 . S
H1792 C1798 0.930 . S
H1793 C1801 0.930 . S
H1794 C1802 0.930 . S
H1795 C1803 0.930 . S
H1796 C1806 0.930 . S
H1797 C1807 0.930 . S
C1798 H1792 0.930 . S
C1798 C1799 1.355 . S
C1798 C1800 1.415 . S
C1799 C1798 1.355 . S
C1799 C1801 1.419 . S
C1800 C1798 1.415 . S
C1800 C1805 1.425 . S
C1800 C1807 1.409 . S
C1801 H1793 0.930 . S
C1801 C1799 1.419 . S
C1801 C1802 1.362 . S
C1802 H1794 0.930 . S
C1802 C1801 1.362 . S
C1802 C1805 1.409 . S
C1803 H1795 0.930 . S
C1803 C1804 1.355 . S
C1803 C1805 1.415 . S
C1804 C1803 1.355 . S
C1804 C1806 1.419 . S
C1805 C1800 1.425 . S
C1805 C1802 1.409 . S
C1805 C1803 1.415 . S
C1806 H1796 0.930 . S
C1806 C1804 1.419 . S
C1806 C1807 1.362 . S
C1807 H1797 0.930 . S
C1807 C1800 1.409 . S
C1807 C1806 1.362 . S
H1808 C1814 0.930 . S
H1809 C1817 0.930 1_556 S
H1810 C1818 0.930 1_556 S
H1811 C1819 0.930 1_556 S
H1812 C1822 0.930 . S
H1813 C1823 0.930 . S
C1814 H1808 0.930 . S
C1814 C1815 1.355 . S
C1814 C1816 1.415 . S
C1815 C1814 1.355 . S
C1815 C1817 1.419 . S
C1816 C1814 1.415 . S
C1816 C1821 1.425 . S
C1816 C1823 1.409 . S
C1817 H1809 0.930 1_554 S
C1817 C1815 1.419 . S
C1817 C1818 1.362 . S
C1818 H1810 0.930 1_554 S
C1818 C1817 1.362 . S
C1818 C1821 1.409 . S
C1819 H1811 0.930 1_554 S
C1819 C1820 1.355 . S
C1819 C1821 1.415 . S
C1820 C1819 1.355 . S
C1820 C1822 1.419 . S
C1821 C1816 1.425 . S
C1821 C1818 1.409 . S
C1821 C1819 1.415 . S
C1822 H1812 0.930 . S
C1822 C1820 1.419 . S
C1822 C1823 1.362 . S
C1823 H1813 0.930 . S
C1823 C1816 1.409 . S
C1823 C1822 1.362 . S
H1824 C1830 0.930 . S
H1825 C1833 0.930 . S
H1826 C1834 0.930 . S
H1827 C1835 0.930 . S
H1828 C1838 0.930 . S
H1829 C1839 0.930 . S
C1830 H1824 0.930 . S
C1830 C1831 1.355 . S
C1830 C1832 1.415 . S
C1831 C1830 1.355 . S
C1831 C1833 1.419 . S
C1832 C1830 1.415 . S
C1832 C1837 1.425 . S
C1832 C1839 1.409 . S
C1833 H1825 0.930 . S
C1833 C1831 1.419 . S
C1833 C1834 1.362 . S
C1834 H1826 0.930 . S
C1834 C1833 1.362 . S
C1834 C1837 1.409 . S
C1835 H1827 0.930 . S
C1835 C1836 1.355 . S
C1835 C1837 1.415 . S
C1836 C1835 1.355 . S
C1836 C1838 1.419 . S
C1837 C1832 1.425 . S
C1837 C1834 1.409 . S
C1837 C1835 1.415 . S
C1838 H1828 0.930 . S
C1838 C1836 1.419 . S
C1838 C1839 1.362 . S
C1839 H1829 0.930 . S
C1839 C1832 1.409 . S
C1839 C1838 1.362 . S
H1840 C1846 0.930 . S
H1841 C1849 0.930 . S
H1842 C1850 0.930 . S
H1843 C1851 0.930 . S
H1844 C1854 0.930 . S
H1845 C1855 0.930 . S
C1846 H1840 0.930 . S
C1846 C1847 1.355 . S
C1846 C1848 1.415 . S
C1847 C1846 1.355 . S
C1847 C1849 1.419 . S
C1848 C1846 1.415 . S
C1848 C1853 1.425 . S
C1848 C1855 1.409 . S
C1849 H1841 0.930 . S
C1849 C1847 1.419 . S
C1849 C1850 1.362 . S
C1850 H1842 0.930 . S
C1850 C1849 1.362 . S
C1850 C1853 1.409 . S
C1851 H1843 0.930 . S
C1851 C1852 1.355 . S
C1851 C1853 1.415 . S
C1852 C1851 1.355 . S
C1852 C1854 1.419 . S
C1853 C1848 1.425 . S
C1853 C1850 1.409 . S
C1853 C1851 1.415 . S
C1854 H1844 0.930 . S
C1854 C1852 1.419 . S
C1854 C1855 1.362 . S
C1855 H1845 0.930 . S
C1855 C1848 1.409 . S
C1855 C1854 1.362 . S
H1856 C1862 0.930 . S
H1857 C1865 0.930 . S
H1858 C1866 0.930 . S
H1859 C1867 0.930 . S
H1860 C1870 0.930 . S
H1861 C1871 0.930 . S
C1862 H1856 0.930 . S
C1862 C1863 1.355 . S
C1862 C1864 1.415 . S
C1863 C1862 1.355 . S
C1863 C1865 1.419 . S
C1864 C1862 1.415 . S
C1864 C1869 1.425 . S
C1864 C1871 1.409 . S
C1865 H1857 0.930 . S
C1865 C1863 1.419 . S
C1865 C1866 1.362 . S
C1866 H1858 0.930 . S
C1866 C1865 1.362 . S
C1866 C1869 1.409 . S
C1867 H1859 0.930 . S
C1867 C1868 1.355 . S
C1867 C1869 1.415 . S
C1868 C1867 1.355 . S
C1868 C1870 1.419 . S
C1869 C1864 1.425 . S
C1869 C1866 1.409 . S
C1869 C1867 1.415 . S
C1870 H1860 0.930 . S
C1870 C1868 1.419 . S
C1870 C1871 1.362 . S
C1871 H1861 0.930 . S
C1871 C1864 1.409 . S
C1871 C1870 1.362 . S
H1872 C1878 0.930 . S
H1873 C1881 0.930 . S
H1874 C1882 0.930 . S
H1875 C1883 0.930 . S
H1876 C1886 0.930 . S
H1877 C1887 0.930 . S
C1878 H1872 0.930 . S
C1878 C1879 1.355 . S
C1878 C1880 1.415 . S
C1879 C1878 1.355 . S
C1879 C1881 1.419 . S
C1880 C1878 1.415 . S
C1880 C1885 1.425 . S
C1880 C1887 1.409 . S
C1881 H1873 0.930 . S
C1881 C1879 1.419 . S
C1881 C1882 1.362 . S
C1882 H1874 0.930 . S
C1882 C1881 1.362 . S
C1882 C1885 1.409 . S
C1883 H1875 0.930 . S
C1883 C1884 1.355 . S
C1883 C1885 1.415 . S
C1884 C1883 1.355 . S
C1884 C1886 1.419 . S
C1885 C1880 1.425 . S
C1885 C1882 1.409 . S
C1885 C1883 1.415 . S
C1886 H1876 0.930 . S
C1886 C1884 1.419 . S
C1886 C1887 1.362 . S
C1887 H1877 0.930 . S
C1887 C1880 1.409 . S
C1887 C1886 1.362 . S
H1888 C1894 0.930 . S
H1889 C1897 0.930 . S
H1890 C1898 0.930 . S
H1891 C1899 0.930 . S
H1892 C1902 0.930 . S
H1893 C1903 0.930 . S
C1894 H1888 0.930 . S
C1894 C1895 1.355 . S
C1894 C1896 1.415 . S
C1895 C1894 1.355 . S
C1895 C1897 1.419 . S
C1896 C1894 1.415 . S
C1896 C1901 1.425 . S
C1896 C1903 1.409 . S
C1897 H1889 0.930 . S
C1897 C1895 1.419 . S
C1897 C1898 1.362 . S
C1898 H1890 0.930 . S
C1898 C1897 1.362 . S
C1898 C1901 1.409 . S
C1899 H1891 0.930 . S
C1899 C1900 1.355 . S
C1899 C1901 1.415 . S
C1900 C1899 1.355 . S
C1900 C1902 1.419 . S
C1901 C1896 1.425 . S
C1901 C1898 1.409 . S
C1901 C1899 1.415 . S
C1902 H1892 0.930 . S
C1902 C1900 1.419 . S
C1902 C1903 1.362 . S
C1903 H1893 0.930 . S
C1903 C1896 1.409 . S
C1903 C1902 1.362 . S
H1904 C1910 0.930 . S
H1905 C1913 0.930 . S
H1906 C1914 0.930 . S
H1907 C1915 0.930 . S
H1908 C1918 0.930 . S
H1909 C1919 0.930 . S
C1910 H1904 0.930 . S
C1910 C1911 1.355 . S
C1910 C1912 1.415 . S
C1911 C1910 1.355 . S
C1911 C1913 1.419 . S
C1912 C1910 1.415 . S
C1912 C1917 1.425 . S
C1912 C1919 1.409 . S
C1913 H1905 0.930 . S
C1913 C1911 1.419 . S
C1913 C1914 1.362 . S
C1914 H1906 0.930 . S
C1914 C1913 1.362 . S
C1914 C1917 1.409 . S
C1915 H1907 0.930 . S
C1915 C1916 1.355 . S
C1915 C1917 1.415 . S
C1916 C1915 1.355 . S
C1916 C1918 1.419 . S
C1917 C1912 1.425 . S
C1917 C1914 1.409 . S
C1917 C1915 1.415 . S
C1918 H1908 0.930 . S
C1918 C1916 1.419 . S
C1918 C1919 1.362 . S
C1919 H1909 0.930 . S
C1919 C1912 1.409 . S
C1919 C1918 1.362 . S
H1920 C1926 0.930 . S
H1921 C1929 0.930 . S
H1922 C1930 0.930 . S
H1923 C1931 0.930 . S
H1924 C1934 0.930 . S
H1925 C1935 0.930 . S
C1926 H1920 0.930 . S
C1926 C1927 1.395 . S
C1926 C1928 1.415 . S
C1927 C1926 1.395 . S
C1927 C1929 1.410 1_455 S
C1928 C1926 1.415 . S
C1928 C1933 1.425 . S
C1928 C1935 1.409 . S
C1929 H1921 0.930 . S
C1929 C1927 1.410 1_655 S
C1929 C1930 1.362 1_655 S
C1930 H1922 0.930 . S
C1930 C1929 1.362 1_455 S
C1930 C1933 1.409 . S
C1931 H1923 0.930 . S
C1931 C1932 1.355 . S
C1931 C1933 1.415 . S
C1932 C1931 1.355 . S
C1932 C1934 1.419 . S
C1933 C1928 1.425 . S
C1933 C1930 1.409 . S
C1933 C1931 1.415 . S
C1934 H1924 0.930 . S
C1934 C1932 1.419 . S
C1934 C1935 1.362 . S
C1935 H1925 0.930 . S
C1935 C1928 1.409 . S
C1935 C1934 1.362 . S
H1936 C1942 0.930 . S
H1937 C1945 0.930 . S
H1938 C1946 0.930 . S
H1939 C1947 0.930 . S
H1940 C1950 0.930 . S
H1941 C1951 0.930 . S
C1942 H1936 0.930 . S
C1942 C1943 1.355 . S
C1942 C1944 1.415 . S
C1943 C1942 1.355 . S
C1943 C1945 1.419 . S
C1944 C1942 1.415 . S
C1944 C1949 1.425 . S
C1944 C1951 1.409 . S
C1945 H1937 0.930 . S
C1945 C1943 1.419 . S
C1945 C1946 1.362 . S
C1946 H1938 0.930 . S
C1946 C1945 1.362 . S
C1946 C1949 1.409 . S
C1947 H1939 0.930 . S
C1947 C1948 1.355 . S
C1947 C1949 1.415 . S
C1948 C1947 1.355 . S
C1948 C1950 1.419 . S
C1949 C1944 1.425 . S
C1949 C1946 1.409 . S
C1949 C1947 1.415 . S
C1950 H1940 0.930 . S
C1950 C1948 1.419 . S
C1950 C1951 1.362 . S
C1951 H1941 0.930 . S
C1951 C1944 1.409 . S
C1951 C1950 1.362 . S
H1952 C1958 0.930 . S
H1953 C1961 0.930 . S
H1954 C1962 0.930 . S
H1955 C1963 0.930 . S
H1956 C1966 0.930 . S
H1957 C1967 0.930 . S
C1958 H1952 0.930 . S
C1958 C1959 1.355 . S
C1958 C1960 1.415 . S
C1959 C1958 1.355 . S
C1959 C1961 1.419 . S
C1960 C1958 1.415 . S
C1960 C1965 1.425 . S
C1960 C1967 1.409 . S
C1961 H1953 0.930 . S
C1961 C1959 1.419 . S
C1961 C1962 1.362 . S
C1962 H1954 0.930 . S
C1962 C1961 1.362 . S
C1962 C1965 1.409 . S
C1963 H1955 0.930 . S
C1963 C1964 1.355 . S
C1963 C1965 1.415 . S
C1964 C1963 1.355 . S
C1964 C1966 1.419 1_455 S
C1965 C1960 1.425 . S
C1965 C1962 1.409 . S
C1965 C1963 1.415 . S
C1966 H1956 0.930 . S
C1966 C1964 1.419 1_655 S
C1966 C1967 1.362 1_655 S
C1967 H1957 0.930 . S
C1967 C1960 1.409 . S
C1967 C1966 1.362 1_455 S
H1968 C1974 0.930 . S
H1969 C1977 0.930 . S
H1970 C1978 0.930 . S
H1971 C1979 0.930 . S
H1972 C1982 0.930 . S
H1973 C1983 0.930 . S
C1974 H1968 0.930 . S
C1974 C1975 1.355 . S
C1974 C1976 1.415 . S
C1975 C1974 1.355 . S
C1975 C1977 1.419 . S
C1976 C1974 1.415 . S
C1976 C1981 1.425 . S
C1976 C1983 1.409 . S
C1977 H1969 0.930 . S
C1977 C1975 1.419 . S
C1977 C1978 1.362 . S
C1978 H1970 0.930 . S
C1978 C1977 1.362 . S
C1978 C1981 1.409 . S
C1979 H1971 0.930 . S
C1979 C1980 1.355 . S
C1979 C1981 1.415 . S
C1980 C1979 1.355 . S
C1980 C1982 1.419 . S
C1981 C1976 1.425 . S
C1981 C1978 1.409 . S
C1981 C1979 1.415 . S
C1982 H1972 0.930 . S
C1982 C1980 1.419 . S
C1982 C1983 1.362 . S
C1983 H1973 0.930 . S
C1983 C1976 1.409 . S
C1983 C1982 1.362 . S
H1984 C1990 0.930 . S
H1985 C1993 0.930 . S
H1986 C1994 0.930 . S
H1987 C1995 0.930 . S
H1988 C1998 0.930 . S
H1989 C1999 0.930 . S
C1990 H1984 0.930 . S
C1990 C1991 1.355 . S
C1990 C1992 1.415 . S
C1991 C1990 1.355 . S
C1991 C1993 1.419 . S
C1992 C1990 1.415 . S
C1992 C1997 1.425 . S
C1992 C1999 1.409 . S
C1993 H1985 0.930 . S
C1993 C1991 1.419 . S
C1993 C1994 1.362 . S
C1994 H1986 0.930 . S
C1994 C1993 1.362 . S
C1994 C1997 1.409 . S
C1995 H1987 0.930 . S
C1995 C1996 1.355 . S
C1995 C1997 1.415 . S
C1996 C1995 1.355 . S
C1996 C1998 1.419 . S
C1997 C1992 1.425 . S
C1997 C1994 1.409 . S
C1997 C1995 1.415 . S
C1998 H1988 0.930 . S
C1998 C1996 1.419 . S
C1998 C1999 1.362 . S
C1999 H1989 0.930 . S
C1999 C1992 1.409 . S
C1999 C1998 1.362 . S
H2000 C2006 0.930 . S
H2001 C2009 0.930 . S
H2002 C2010 0.930 . S
H2003 C2011 0.930 . S
H2004 C2014 0.930 . S
H2005 C2015 0.930 . S
C2006 H2000 0.930 . S
C2006 C2007 1.355 . S
C2006 C2008 1.415 . S
C2007 C2006 1.355 . S
C2007 C2009 1.419 . S
C2008 C2006 1.415 . S
C2008 C2013 1.425 . S
C2008 C2015 1.409 . S
C2009 H2001 0.930 . S
C2009 C2007 1.419 . S
C2009 C2010 1.362 . S
C2010 H2002 0.930 . S
C2010 C2009 1.362 . S
C2010 C2013 1.409 . S
C2011 H2003 0.930 . S
C2011 C2012 1.355 . S
C2011 C2013 1.415 . S
C2012 C2011 1.355 . S
C2012 C2014 1.419 . S
C2013 C2008 1.425 . S
C2013 C2010 1.409 . S
C2013 C2011 1.415 . S
C2014 H2004 0.930 . S
C2014 C2012 1.419 . S
C2014 C2015 1.362 . S
C2015 H2005 0.930 . S
C2015 C2008 1.409 . S
C2015 C2014 1.362 . S
H2016 C2022 0.930 . S
H2017 C2025 0.930 . S
H2018 C2026 0.930 . S
H2019 C2027 0.930 . S
H2020 C2030 0.930 . S
H2021 C2031 0.930 . S
C2022 H2016 0.930 . S
C2022 C2023 1.355 . S
C2022 C2024 1.415 . S
C2023 C2022 1.355 . S
C2023 C2025 1.419 . S
C2024 C2022 1.415 . S
C2024 C2029 1.425 . S
C2024 C2031 1.409 . S
C2025 H2017 0.930 . S
C2025 C2023 1.419 . S
C2025 C2026 1.362 . S
C2026 H2018 0.930 . S
C2026 C2025 1.362 . S
C2026 C2029 1.409 . S
C2027 H2019 0.930 . S
C2027 C2028 1.355 . S
C2027 C2029 1.415 . S
C2028 C2027 1.355 . S
C2028 C2030 1.419 . S
C2029 C2024 1.425 . S
C2029 C2026 1.409 . S
C2029 C2027 1.415 . S
C2030 H2020 0.930 . S
C2030 C2028 1.419 . S
C2030 C2031 1.362 . S
C2031 H2021 0.930 . S
C2031 C2024 1.409 . S
C2031 C2030 1.362 . S
H2032 C2038 0.930 . S
H2033 C2041 0.930 . S
H2034 C2042 0.930 . S
H2035 C2043 0.930 . S
H2036 C2046 0.930 . S
H2037 C2047 0.930 . S
C2038 H2032 0.930 . S
C2038 C2039 1.355 . S
C2038 C2040 1.415 . S
C2039 C2038 1.355 . S
C2039 C2041 1.419 . S
C2040 C2038 1.415 . S
C2040 C2045 1.425 . S
C2040 C2047 1.409 . S
C2041 H2033 0.930 . S
C2041 C2039 1.419 . S
C2041 C2042 1.362 . S
C2042 H2034 0.930 . S
C2042 C2041 1.362 . S
C2042 C2045 1.409 . S
C2043 H2035 0.930 . S
C2043 C2044 1.355 . S
C2043 C2045 1.415 . S
C2044 C2043 1.355 . S
C2044 C2046 1.419 . S
C2045 C2040 1.425 . S
C2045 C2042 1.409 . S
C2045 C2043 1.415 . S
C2046 H2036 0.930 . S
C2046 C2044 1.419 . S
C2046 C2047 1.362 . S
C2047 H2037 0.930 . S
C2047 C2040 1.409 . S
C2047 C2046 1.362 . S
H2048 C2054 0.930 . S
H2049 C2057 0.930 . S
H2050 C2058 0.930 . S
H2051 C2059 0.930 . S
H2052 C2062 0.930 . S
H2053 C2063 0.930 . S
C2054 H2048 0.930 . S
C2054 C2055 1.355 . S
C2054 C2056 1.415 . S
C2055 C2054 1.355 . S
C2055 C2057 1.419 . S
C2056 C2054 1.415 . S
C2056 C2061 1.425 . S
C2056 C2063 1.409 . S
C2057 H2049 0.930 . S
C2057 C2055 1.419 . S
C2057 C2058 1.362 . S
C2058 H2050 0.930 . S
C2058 C2057 1.362 . S
C2058 C2061 1.409 . S
C2059 H2051 0.930 . S
C2059 C2060 1.355 . S
C2059 C2061 1.415 . S
C2060 C2059 1.355 . S
C2060 C2062 1.419 . S
C2061 C2056 1.425 . S
C2061 C2058 1.409 . S
C2061 C2059 1.415 . S
C2062 H2052 0.930 . S
C2062 C2060 1.419 . S
C2062 C2063 1.362 . S
C2063 H2053 0.930 . S
C2063 C2056 1.409 . S
C2063 C2062 1.362 . S
H2064 C2070 0.930 . S
H2065 C2073 0.930 . S
H2066 C2074 0.930 . S
H2067 C2075 0.930 . S
H2068 C2078 0.930 . S
H2069 C2079 0.930 . S
C2070 H2064 0.930 . S
C2070 C2071 1.355 . S
C2070 C2072 1.415 . S
C2071 C2070 1.355 . S
C2071 C2073 1.419 . S
C2072 C2070 1.415 . S
C2072 C2077 1.425 . S
C2072 C2079 1.409 . S
C2073 H2065 0.930 . S
C2073 C2071 1.419 . S
C2073 C2074 1.362 . S
C2074 H2066 0.930 . S
C2074 C2073 1.362 . S
C2074 C2077 1.409 . S
C2075 H2067 0.930 . S
C2075 C2076 1.355 . S
C2075 C2077 1.415 . S
C2076 C2075 1.355 . S
C2076 C2078 1.419 . S
C2077 C2072 1.425 . S
C2077 C2074 1.409 . S
C2077 C2075 1.415 . S
C2078 H2068 0.930 . S
C2078 C2076 1.419 . S
C2078 C2079 1.362 . S
C2079 H2069 0.930 . S
C2079 C2072 1.409 . S
C2079 C2078 1.362 . S
H2080 C2086 0.930 . S
H2081 C2089 0.930 . S
H2082 C2090 0.930 . S
H2083 C2091 0.930 . S
H2084 C2094 0.930 . S
H2085 C2095 0.930 . S
C2086 H2080 0.930 . S
C2086 C2087 1.355 . S
C2086 C2088 1.415 . S
C2087 C2086 1.355 . S
C2087 C2089 1.419 . S
C2088 C2086 1.415 . S
C2088 C2093 1.425 . S
C2088 C2095 1.409 . S
C2089 H2081 0.930 . S
C2089 C2087 1.419 . S
C2089 C2090 1.362 . S
C2090 H2082 0.930 . S
C2090 C2089 1.362 . S
C2090 C2093 1.409 . S
C2091 H2083 0.930 . S
C2091 C2092 1.355 . S
C2091 C2093 1.415 . S
C2092 C2091 1.355 . S
C2092 C2094 1.419 . S
C2093 C2088 1.425 . S
C2093 C2090 1.409 . S
C2093 C2091 1.415 . S
C2094 H2084 0.930 . S
C2094 C2092 1.419 . S
C2094 C2095 1.362 . S
C2095 H2085 0.930 . S
C2095 C2088 1.409 . S
C2095 C2094 1.362 . S
H2096 C2102 0.930 . S
H2097 C2105 0.930 . S
H2098 C2106 0.930 . S
H2099 C2107 0.930 . S
H2100 C2110 0.930 . S
H2101 C2111 0.930 . S
C2102 H2096 0.930 . S
C2102 C2103 1.355 . S
C2102 C2104 1.415 . S
C2103 C2102 1.355 . S
C2103 C2105 1.419 . S
C2104 C2102 1.415 . S
C2104 C2109 1.425 . S
C2104 C2111 1.409 . S
C2105 H2097 0.930 . S
C2105 C2103 1.419 . S
C2105 C2106 1.362 . S
C2106 H2098 0.930 . S
C2106 C2105 1.362 . S
C2106 C2109 1.409 . S
C2107 H2099 0.930 . S
C2107 C2108 1.355 . S
C2107 C2109 1.415 . S
C2108 C2107 1.355 . S
C2108 C2110 1.419 . S
C2109 C2104 1.425 . S
C2109 C2106 1.409 . S
C2109 C2107 1.415 . S
C2110 H2100 0.930 . S
C2110 C2108 1.419 . S
C2110 C2111 1.362 . S
C2111 H2101 0.930 . S
C2111 C2104 1.409 . S
C2111 C2110 1.362 . S
H2112 C2118 0.930 . S
H2113 C2121 0.930 . S
H2114 C2122 0.930 . S
H2115 C2123 0.930 . S
H2116 C2126 0.930 . S
H2117 C2127 0.930 . S
C2118 H2112 0.930 . S
C2118 C2119 1.355 . S
C2118 C2120 1.415 . S
C2119 C2118 1.355 . S
C2119 C2121 1.419 . S
C2120 C2118 1.415 . S
C2120 C2125 1.425 . S
C2120 C2127 1.409 . S
C2121 H2113 0.930 . S
C2121 C2119 1.419 . S
C2121 C2122 1.362 . S
C2122 H2114 0.930 . S
C2122 C2121 1.362 . S
C2122 C2125 1.409 . S
C2123 H2115 0.930 . S
C2123 C2124 1.355 . S
C2123 C2125 1.415 . S
C2124 C2123 1.355 . S
C2124 C2126 1.419 . S
C2125 C2120 1.425 . S
C2125 C2122 1.409 . S
C2125 C2123 1.415 . S
C2126 H2116 0.930 . S
C2126 C2124 1.419 . S
C2126 C2127 1.362 . S
C2127 H2117 0.930 . S
C2127 C2120 1.409 . S
C2127 C2126 1.362 . S
H2128 C2134 0.930 . S
H2129 C2137 0.930 . S
H2130 C2138 0.930 . S
H2131 C2139 0.930 . S
H2132 C2142 0.930 . S
H2133 C2143 0.930 . S
C2134 H2128 0.930 . S
C2134 C2135 1.355 . S
C2134 C2136 1.415 . S
C2135 C2134 1.355 . S
C2135 C2137 1.419 . S
C2136 C2134 1.415 . S
C2136 C2141 1.425 . S
C2136 C2143 1.409 . S
C2137 H2129 0.930 . S
C2137 C2135 1.419 . S
C2137 C2138 1.362 . S
C2138 H2130 0.930 . S
C2138 C2137 1.362 . S
C2138 C2141 1.409 . S
C2139 H2131 0.930 . S
C2139 C2140 1.355 . S
C2139 C2141 1.415 . S
C2140 C2139 1.355 . S
C2140 C2142 1.419 . S
C2141 C2136 1.425 . S
C2141 C2138 1.409 . S
C2141 C2139 1.415 . S
C2142 H2132 0.930 . S
C2142 C2140 1.419 . S
C2142 C2143 1.362 . S
C2143 H2133 0.930 . S
C2143 C2136 1.409 . S
C2143 C2142 1.362 . S
H2144 C2150 0.930 . S
H2145 C2153 0.930 . S
H2146 C2154 0.930 . S
H2147 C2155 0.930 . S
H2148 C2158 0.930 . S
H2149 C2159 0.930 . S
C2150 H2144 0.930 . S
C2150 C2151 1.355 . S
C2150 C2152 1.415 . S
C2151 C2150 1.355 . S
C2151 C2153 1.419 . S
C2152 C2150 1.415 . S
C2152 C2157 1.425 . S
C2152 C2159 1.409 . S
C2153 H2145 0.930 . S
C2153 C2151 1.419 . S
C2153 C2154 1.362 . S
C2154 H2146 0.930 . S
C2154 C2153 1.362 . S
C2154 C2157 1.409 . S
C2155 H2147 0.930 . S
C2155 C2156 1.355 . S
C2155 C2157 1.415 . S
C2156 C2155 1.355 . S
C2156 C2158 1.419 . S
C2157 C2152 1.425 . S
C2157 C2154 1.409 . S
C2157 C2155 1.415 . S
C2158 H2148 0.930 . S
C2158 C2156 1.419 . S
C2158 C2159 1.362 . S
C2159 H2149 0.930 . S
C2159 C2152 1.409 . S
C2159 C2158 1.362 . S
H2160 C2166 0.930 . S
H2161 C2169 0.930 . S
H2162 C2170 0.930 . S
H2163 C2171 0.930 . S
H2164 C2174 0.930 . S
H2165 C2175 0.930 . S
C2166 H2160 0.930 . S
C2166 C2167 1.355 . S
C2166 C2168 1.415 . S
C2167 C2166 1.355 . S
C2167 C2169 1.419 . S
C2168 C2166 1.415 . S
C2168 C2173 1.425 . S
C2168 C2175 1.409 . S
C2169 H2161 0.930 . S
C2169 C2167 1.419 . S
C2169 C2170 1.362 . S
C2170 H2162 0.930 . S
C2170 C2169 1.362 . S
C2170 C2173 1.409 . S
C2171 H2163 0.930 . S
C2171 C2172 1.355 . S
C2171 C2173 1.415 . S
C2172 C2171 1.355 . S
C2172 C2174 1.419 . S
C2173 C2168 1.425 . S
C2173 C2170 1.409 . S
C2173 C2171 1.415 . S
C2174 H2164 0.930 . S
C2174 C2172 1.419 . S
C2174 C2175 1.362 . S
C2175 H2165 0.930 . S
C2175 C2168 1.409 . S
C2175 C2174 1.362 . S
H2176 C2182 0.930 . S
H2177 C2185 0.930 . S
H2178 C2186 0.930 . S
H2179 C2187 0.930 . S
H2180 C2190 0.930 . S
H2181 C2191 0.930 . S
C2182 H2176 0.930 . S
C2182 C2183 1.355 . S
C2182 C2184 1.415 . S
C2183 C2182 1.355 . S
C2183 C2185 1.419 . S
C2184 C2182 1.415 . S
C2184 C2189 1.425 . S
C2184 C2191 1.409 . S
C2185 H2177 0.930 . S
C2185 C2183 1.419 . S
C2185 C2186 1.362 . S
C2186 H2178 0.930 . S
C2186 C2185 1.362 . S
C2186 C2189 1.409 . S
C2187 H2179 0.930 . S
C2187 C2188 1.355 . S
C2187 C2189 1.415 . S
C2188 C2187 1.355 . S
C2188 C2190 1.419 . S
C2189 C2184 1.425 . S
C2189 C2186 1.409 . S
C2189 C2187 1.415 . S
C2190 H2180 0.930 . S
C2190 C2188 1.419 . S
C2190 C2191 1.362 . S
C2191 H2181 0.930 . S
C2191 C2184 1.409 . S
C2191 C2190 1.362 . S
H2192 C2198 0.930 . S
H2193 C2201 0.930 . S
H2194 C2202 0.930 . S
H2195 C2203 0.930 . S
H2196 C2206 0.930 . S
H2197 C2207 0.930 . S
C2198 H2192 0.930 . S
C2198 C2199 1.355 . S
C2198 C2200 1.415 . S
C2199 C2198 1.355 . S
C2199 C2201 1.419 . S
C2200 C2198 1.415 . S
C2200 C2205 1.425 . S
C2200 C2207 1.409 . S
C2201 H2193 0.930 . S
C2201 C2199 1.419 . S
C2201 C2202 1.362 . S
C2202 H2194 0.930 . S
C2202 C2201 1.362 . S
C2202 C2205 1.409 . S
C2203 H2195 0.930 . S
C2203 C2204 1.355 . S
C2203 C2205 1.415 . S
C2204 C2203 1.355 . S
C2204 C2206 1.419 . S
C2205 C2200 1.425 . S
C2205 C2202 1.409 . S
C2205 C2203 1.415 . S
C2206 H2196 0.930 . S
C2206 C2204 1.419 . S
C2206 C2207 1.362 . S
C2207 H2197 0.930 . S
C2207 C2200 1.409 . S
C2207 C2206 1.362 . S
H2208 C2214 0.930 . S
H2209 C2217 0.930 . S
H2210 C2218 0.930 . S
H2211 C2219 0.930 . S
H2212 C2222 0.930 . S
H2213 C2223 0.930 . S
C2214 H2208 0.930 . S
C2214 C2215 1.355 . S
C2214 C2216 1.415 . S
C2215 C2214 1.355 . S
C2215 C2217 1.419 . S
C2216 C2214 1.415 . S
C2216 C2221 1.425 . S
C2216 C2223 1.409 . S
C2217 H2209 0.930 . S
C2217 C2215 1.419 . S
C2217 C2218 1.362 . S
C2218 H2210 0.930 . S
C2218 C2217 1.362 . S
C2218 C2221 1.409 . S
C2219 H2211 0.930 . S
C2219 C2220 1.355 . S
C2219 C2221 1.415 . S
C2220 C2219 1.355 . S
C2220 C2222 1.419 . S
C2221 C2216 1.425 . S
C2221 C2218 1.409 . S
C2221 C2219 1.415 . S
C2222 H2212 0.930 . S
C2222 C2220 1.419 . S
C2222 C2223 1.362 . S
C2223 H2213 0.930 . S
C2223 C2216 1.409 . S
C2223 C2222 1.362 . S
H2224 C2230 0.930 1_554 S
H2225 C2233 0.930 . S
H2226 C2234 0.930 . S
H2227 C2235 0.930 . S
H2228 C2238 0.930 . S
H2229 C2239 0.930 . S
C2230 H2224 0.930 1_556 S
C2230 C2231 1.355 . S
C2230 C2232 1.415 . S
C2231 C2230 1.355 . S
C2231 C2233 1.419 . S
C2232 C2230 1.415 . S
C2232 C2237 1.425 . S
C2232 C2239 1.409 1_556 S
C2233 H2225 0.930 . S
C2233 C2231 1.419 . S
C2233 C2234 1.362 . S
C2234 H2226 0.930 . S
C2234 C2233 1.362 . S
C2234 C2237 1.409 . S
C2235 H2227 0.930 . S
C2235 C2236 1.355 . S
C2235 C2237 1.415 . S
C2236 C2235 1.355 . S
C2236 C2238 1.419 1_556 S
C2237 C2232 1.425 . S
C2237 C2234 1.409 . S
C2237 C2235 1.415 . S
C2238 H2228 0.930 . S
C2238 C2236 1.419 1_554 S
C2238 C2239 1.362 . S
C2239 H2229 0.930 . S
C2239 C2232 1.409 1_554 S
C2239 C2238 1.362 . S
H2240 C2246 0.958 . S
H2241 C2249 0.930 . S
H2242 C2250 0.930 . S
H2243 C2251 0.930 . S
H2244 C2254 0.930 . S
H2245 C2255 0.930 . S
C2246 H2240 0.958 . S
C2246 C2247 1.355 . S
C2246 C2248 1.415 . S
C2247 C2246 1.355 . S
C2247 C2249 1.419 . S
C2248 C2246 1.415 . S
C2248 C2253 1.425 . S
C2248 C2255 1.409 . S
C2249 H2241 0.930 . S
C2249 C2247 1.419 . S
C2249 C2250 1.362 . S
C2250 H2242 0.930 . S
C2250 C2249 1.362 . S
C2250 C2253 1.409 . S
C2251 H2243 0.930 . S
C2251 C2252 1.355 . S
C2251 C2253 1.415 . S
C2252 C2251 1.355 . S
C2252 C2254 1.419 . S
C2253 C2248 1.425 . S
C2253 C2250 1.409 . S
C2253 C2251 1.415 . S
C2254 H2244 0.930 . S
C2254 C2252 1.419 . S
C2254 C2255 1.362 . S
C2255 H2245 0.930 . S
C2255 C2248 1.409 . S
C2255 C2254 1.362 . S
H2256 C2262 0.930 . S
H2257 C2265 0.930 . S
H2258 C2266 0.930 . S
H2259 C2267 0.930 . S
H2260 C2270 0.930 . S
H2261 C2271 0.930 . S
C2262 H2256 0.930 . S
C2262 C2263 1.355 . S
C2262 C2264 1.415 . S
C2263 C2262 1.355 . S
C2263 C2265 1.419 . S
C2264 C2262 1.415 . S
C2264 C2269 1.425 . S
C2264 C2271 1.409 . S
C2265 H2257 0.930 . S
C2265 C2263 1.419 . S
C2265 C2266 1.362 . S
C2266 H2258 0.930 . S
C2266 C2265 1.362 . S
C2266 C2269 1.409 . S
C2267 H2259 0.930 . S
C2267 C2268 1.355 . S
C2267 C2269 1.415 . S
C2268 C2267 1.355 . S
C2268 C2270 1.419 . S
C2269 C2264 1.425 . S
C2269 C2266 1.409 . S
C2269 C2267 1.415 . S
C2270 H2260 0.930 . S
C2270 C2268 1.419 . S
C2270 C2271 1.362 . S
C2271 H2261 0.930 . S
C2271 C2264 1.409 . S
C2271 C2270 1.362 . S
H2272 C2278 0.930 . S
H2273 C2281 0.930 . S
H2274 C2282 0.930 . S
H2275 C2283 0.930 . S
H2276 C2286 0.930 . S
H2277 C2287 0.930 . S
C2278 H2272 0.930 . S
C2278 C2279 1.355 . S
C2278 C2280 1.415 . S
C2279 C2278 1.355 . S
C2279 C2281 1.419 . S
C2280 C2278 1.415 . S
C2280 C2285 1.425 . S
C2280 C2287 1.409 . S
C2281 H2273 0.930 . S
C2281 C2279 1.419 . S
C2281 C2282 1.362 . S
C2282 H2274 0.930 . S
C2282 C2281 1.362 . S
C2282 C2285 1.409 . S
C2283 H2275 0.930 . S
C2283 C2284 1.355 . S
C2283 C2285 1.415 . S
C2284 C2283 1.355 . S
C2284 C2286 1.419 . S
C2285 C2280 1.425 . S
C2285 C2282 1.409 . S
C2285 C2283 1.415 . S
C2286 H2276 0.930 . S
C2286 C2284 1.419 . S
C2286 C2287 1.362 . S
C2287 H2277 0.930 . S
C2287 C2280 1.409 . S
C2287 C2286 1.362 . S
H2288 C2294 0.930 . S
H2289 C2297 0.930 . S
H2290 C2298 0.930 . S
H2291 C2299 0.930 . S
H2292 C2302 0.930 . S
H2293 C2303 0.930 . S
C2294 H2288 0.930 . S
C2294 C2295 1.355 . S
C2294 C2296 1.415 . S
C2295 C2294 1.355 . S
C2295 C2297 1.419 . S
C2296 C2294 1.415 . S
C2296 C2301 1.425 . S
C2296 C2303 1.409 . S
C2297 H2289 0.930 . S
C2297 C2295 1.419 . S
C2297 C2298 1.362 . S
C2298 H2290 0.930 . S
C2298 C2297 1.362 . S
C2298 C2301 1.409 . S
C2299 H2291 0.930 . S
C2299 C2300 1.355 . S
C2299 C2301 1.415 . S
C2300 C2299 1.355 . S
C2300 C2302 1.419 . S
C2301 C2296 1.425 . S
C2301 C2298 1.409 . S
C2301 C2299 1.415 . S
C2302 H2292 0.930 . S
C2302 C2300 1.419 . S
C2302 C2303 1.362 . S
C2303 H2293 0.930 . S
C2303 C2296 1.409 . S
C2303 C2302 1.362 . S
H2304 C2310 0.930 . S
H2305 C2313 0.930 . S
H2306 C2314 0.930 . S
H2307 C2315 0.930 . S
H2308 C2318 0.930 . S
H2309 C2319 0.930 . S
C2310 H2304 0.930 . S
C2310 C2311 1.355 . S
C2310 C2312 1.415 . S
C2311 C2310 1.355 . S
C2311 C2313 1.419 . S
C2312 C2310 1.415 . S
C2312 C2317 1.425 . S
C2312 C2319 1.409 . S
C2313 H2305 0.930 . S
C2313 C2311 1.419 . S
C2313 C2314 1.362 . S
C2314 H2306 0.930 . S
C2314 C2313 1.362 . S
C2314 C2317 1.409 . S
C2315 H2307 0.930 . S
C2315 C2316 1.355 . S
C2315 C2317 1.415 . S
C2316 C2315 1.355 . S
C2316 C2318 1.419 . S
C2317 C2312 1.425 . S
C2317 C2314 1.409 . S
C2317 C2315 1.415 . S
C2318 H2308 0.930 . S
C2318 C2316 1.419 . S
C2318 C2319 1.362 . S
C2319 H2309 0.930 . S
C2319 C2312 1.409 . S
C2319 C2318 1.362 . S
H2320 C2326 0.930 . S
H2321 C2329 0.930 . S
H2322 C2330 0.930 . S
H2323 C2331 0.930 . S
H2324 C2334 0.930 . S
H2325 C2335 0.930 . S
C2326 H2320 0.930 . S
C2326 C2327 1.355 . S
C2326 C2328 1.415 . S
C2327 C2326 1.355 . S
C2327 C2329 1.419 . S
C2328 C2326 1.415 . S
C2328 C2333 1.425 . S
C2328 C2335 1.409 . S
C2329 H2321 0.930 . S
C2329 C2327 1.419 . S
C2329 C2330 1.362 . S
C2330 H2322 0.930 . S
C2330 C2329 1.362 . S
C2330 C2333 1.409 . S
C2331 H2323 0.930 . S
C2331 C2332 1.355 . S
C2331 C2333 1.415 . S
C2332 C2331 1.355 . S
C2332 C2334 1.419 . S
C2333 C2328 1.425 . S
C2333 C2330 1.409 . S
C2333 C2331 1.415 . S
C2334 H2324 0.930 . S
C2334 C2332 1.419 . S
C2334 C2335 1.362 . S
C2335 H2325 0.930 . S
C2335 C2328 1.409 . S
C2335 C2334 1.362 . S
H2336 C2342 0.930 . S
H2337 C2345 0.930 . S
H2338 C2346 0.930 . S
H2339 C2347 0.930 . S
H2340 C2350 0.930 . S
H2341 C2351 0.930 . S
C2342 H2336 0.930 . S
C2342 C2343 1.355 . S
C2342 C2344 1.415 . S
C2343 C2342 1.355 . S
C2343 C2345 1.419 . S
C2344 C2342 1.415 . S
C2344 C2349 1.425 . S
C2344 C2351 1.409 . S
C2345 H2337 0.930 . S
C2345 C2343 1.419 . S
C2345 C2346 1.362 . S
C2346 H2338 0.930 . S
C2346 C2345 1.362 . S
C2346 C2349 1.409 . S
C2347 H2339 0.930 . S
C2347 C2348 1.355 . S
C2347 C2349 1.415 . S
C2348 C2347 1.355 . S
C2348 C2350 1.419 . S
C2349 C2344 1.425 . S
C2349 C2346 1.409 . S
C2349 C2347 1.415 . S
C2350 H2340 0.930 . S
C2350 C2348 1.419 . S
C2350 C2351 1.362 . S
C2351 H2341 0.930 . S
C2351 C2344 1.409 . S
C2351 C2350 1.362 . S
H2352 C2358 0.930 . S
H2353 C2361 0.930 . S
H2354 C2362 0.930 . S
H2355 C2363 0.930 . S
H2356 C2366 0.930 . S
H2357 C2367 0.930 . S
C2358 H2352 0.930 . S
C2358 C2359 1.355 . S
C2358 C2360 1.415 . S
C2359 C2358 1.355 . S
C2359 C2361 1.419 . S
C2360 C2358 1.415 . S
C2360 C2365 1.425 . S
C2360 C2367 1.409 . S
C2361 H2353 0.930 . S
C2361 C2359 1.419 . S
C2361 C2362 1.362 . S
C2362 H2354 0.930 . S
C2362 C2361 1.362 . S
C2362 C2365 1.409 . S
C2363 H2355 0.930 . S
C2363 C2364 1.355 . S
C2363 C2365 1.415 . S
C2364 C2363 1.355 . S
C2364 C2366 1.419 . S
C2365 C2360 1.425 . S
C2365 C2362 1.409 . S
C2365 C2363 1.415 . S
C2366 H2356 0.930 . S
C2366 C2364 1.419 . S
C2366 C2367 1.362 . S
C2367 H2357 0.930 . S
C2367 C2360 1.409 . S
C2367 C2366 1.362 . S
H2368 C2374 0.930 . S
H2369 C2377 0.930 . S
H2370 C2378 0.930 . S
H2371 C2379 0.930 . S
H2372 C2382 0.930 . S
H2373 C2383 0.930 . S
C2374 H2368 0.930 . S
C2374 C2375 1.355 . S
C2374 C2376 1.415 . S
C2375 C2374 1.355 . S
C2375 C2377 1.419 . S
C2376 C2374 1.415 . S
C2376 C2381 1.425 . S
C2376 C2383 1.409 . S
C2377 H2369 0.930 . S
C2377 C2375 1.419 . S
C2377 C2378 1.362 . S
C2378 H2370 0.930 . S
C2378 C2377 1.362 . S
C2378 C2381 1.409 . S
C2379 H2371 0.930 . S
C2379 C2380 1.355 . S
C2379 C2381 1.415 . S
C2380 C2379 1.355 . S
C2380 C2382 1.419 . S
C2381 C2376 1.425 . S
C2381 C2378 1.409 . S
C2381 C2379 1.415 . S
C2382 H2372 0.930 . S
C2382 C2380 1.419 . S
C2382 C2383 1.362 . S
C2383 H2373 0.930 . S
C2383 C2376 1.409 . S
C2383 C2382 1.362 . S
H2384 C2390 0.930 . S
H2385 C2393 0.930 . S
H2386 C2394 0.930 . S
H2387 C2395 0.930 . S
H2388 C2398 0.930 . S
H2389 C2399 0.930 . S
C2390 H2384 0.930 . S
C2390 C2391 1.355 . S
C2390 C2392 1.415 . S
C2391 C2390 1.355 . S
C2391 C2393 1.419 . S
C2392 C2390 1.415 . S
C2392 C2397 1.425 . S
C2392 C2399 1.409 . S
C2393 H2385 0.930 . S
C2393 C2391 1.419 . S
C2393 C2394 1.362 . S
C2394 H2386 0.930 . S
C2394 C2393 1.362 . S
C2394 C2397 1.409 . S
C2395 H2387 0.930 . S
C2395 C2396 1.355 . S
C2395 C2397 1.415 . S
C2396 C2395 1.355 . S
C2396 C2398 1.419 . S
C2397 C2392 1.425 . S
C2397 C2394 1.409 . S
C2397 C2395 1.415 . S
C2398 H2388 0.930 . S
C2398 C2396 1.419 . S
C2398 C2399 1.362 . S
C2399 H2389 0.930 . S
C2399 C2392 1.409 . S
C2399 C2398 1.362 . S
H2400 C2406 0.930 . S
H2401 C2409 0.930 . S
H2402 C2410 0.930 . S
H2403 C2411 0.930 . S
H2404 C2414 0.930 . S
H2405 C2415 0.930 . S
C2406 H2400 0.930 . S
C2406 C2407 1.355 . S
C2406 C2408 1.415 . S
C2407 C2406 1.355 . S
C2407 C2409 1.419 . S
C2408 C2406 1.415 . S
C2408 C2413 1.425 . S
C2408 C2415 1.409 . S
C2409 H2401 0.930 . S
C2409 C2407 1.419 . S
C2409 C2410 1.362 . S
C2410 H2402 0.930 . S
C2410 C2409 1.362 . S
C2410 C2413 1.409 . S
C2411 H2403 0.930 . S
C2411 C2412 1.355 . S
C2411 C2413 1.415 . S
C2412 C2411 1.355 . S
C2412 C2414 1.419 . S
C2413 C2408 1.425 . S
C2413 C2410 1.409 . S
C2413 C2411 1.415 . S
C2414 H2404 0.930 . S
C2414 C2412 1.419 . S
C2414 C2415 1.362 . S
C2415 H2405 0.930 . S
C2415 C2408 1.409 . S
C2415 C2414 1.362 . S
H2416 C2422 0.930 . S
H2417 C2425 0.930 . S
H2418 C2426 0.930 . S
H2419 C2427 0.930 . S
H2420 C2430 0.930 . S
H2421 C2431 0.930 . S
C2422 H2416 0.930 . S
C2422 C2423 1.355 . S
C2422 C2424 1.415 . S
C2423 C2422 1.355 . S
C2423 C2425 1.419 . S
C2424 C2422 1.415 . S
C2424 C2429 1.425 . S
C2424 C2431 1.409 . S
C2425 H2417 0.930 . S
C2425 C2423 1.419 . S
C2425 C2426 1.362 . S
C2426 H2418 0.930 . S
C2426 C2425 1.362 . S
C2426 C2429 1.409 . S
C2427 H2419 0.930 . S
C2427 C2428 1.355 . S
C2427 C2429 1.415 . S
C2428 C2427 1.355 . S
C2428 C2430 1.419 . S
C2429 C2424 1.425 . S
C2429 C2426 1.409 . S
C2429 C2427 1.415 . S
C2430 H2420 0.930 . S
C2430 C2428 1.419 . S
C2430 C2431 1.362 . S
C2431 H2421 0.930 . S
C2431 C2424 1.409 . S
C2431 C2430 1.362 . S
H2432 C2438 0.930 . S
H2433 C2441 0.930 . S
H2434 C2442 0.930 . S
H2435 C2443 0.930 . S
H2436 C2446 0.930 . S
H2437 C2447 0.930 . S
C2438 H2432 0.930 . S
C2438 C2439 1.355 . S
C2438 C2440 1.415 . S
C2439 C2438 1.355 . S
C2439 C2441 1.419 . S
C2440 C2438 1.415 . S
C2440 C2445 1.425 . S
C2440 C2447 1.409 . S
C2441 H2433 0.930 . S
C2441 C2439 1.419 . S
C2441 C2442 1.362 . S
C2442 H2434 0.930 . S
C2442 C2441 1.362 . S
C2442 C2445 1.409 . S
C2443 H2435 0.930 . S
C2443 C2444 1.355 . S
C2443 C2445 1.415 . S
C2444 C2443 1.355 . S
C2444 C2446 1.419 . S
C2445 C2440 1.425 . S
C2445 C2442 1.409 . S
C2445 C2443 1.415 . S
C2446 H2436 0.930 . S
C2446 C2444 1.419 . S
C2446 C2447 1.362 . S
C2447 H2437 0.930 . S
C2447 C2440 1.409 . S
C2447 C2446 1.362 . S
H2448 C2454 0.930 . S
H2449 C2457 0.930 . S
H2450 C2458 0.930 . S
H2451 C2459 0.930 . S
H2452 C2462 0.930 . S
H2453 C2463 0.930 . S
C2454 H2448 0.930 . S
C2454 C2455 1.355 . S
C2454 C2456 1.415 . S
C2455 C2454 1.355 . S
C2455 C2457 1.419 . S
C2456 C2454 1.415 . S
C2456 C2461 1.425 . S
C2456 C2463 1.409 . S
C2457 H2449 0.930 . S
C2457 C2455 1.419 . S
C2457 C2458 1.362 . S
C2458 H2450 0.930 . S
C2458 C2457 1.362 . S
C2458 C2461 1.409 . S
C2459 H2451 0.930 . S
C2459 C2460 1.355 . S
C2459 C2461 1.415 . S
C2460 C2459 1.355 . S
C2460 C2462 1.419 . S
C2461 C2456 1.425 . S
C2461 C2458 1.409 . S
C2461 C2459 1.415 . S
C2462 H2452 0.930 . S
C2462 C2460 1.419 . S
C2462 C2463 1.362 . S
C2463 H2453 0.930 . S
C2463 C2456 1.409 . S
C2463 C2462 1.362 . S
H2464 C2470 0.930 . S
H2465 C2473 0.930 . S
H2466 C2474 0.930 . S
H2467 C2475 0.930 . S
H2468 C2478 0.930 . S
H2469 C2479 0.930 . S
C2470 H2464 0.930 . S
C2470 C2471 1.355 . S
C2470 C2472 1.415 . S
C2471 C2470 1.355 . S
C2471 C2473 1.419 . S
C2472 C2470 1.415 . S
C2472 C2477 1.425 . S
C2472 C2479 1.409 . S
C2473 H2465 0.930 . S
C2473 C2471 1.419 . S
C2473 C2474 1.362 . S
C2474 H2466 0.930 . S
C2474 C2473 1.362 . S
C2474 C2477 1.409 . S
C2475 H2467 0.930 . S
C2475 C2476 1.355 . S
C2475 C2477 1.415 . S
C2476 C2475 1.355 . S
C2476 C2478 1.419 . S
C2477 C2472 1.425 . S
C2477 C2474 1.409 . S
C2477 C2475 1.415 . S
C2478 H2468 0.930 . S
C2478 C2476 1.419 . S
C2478 C2479 1.362 . S
C2479 H2469 0.930 . S
C2479 C2472 1.409 . S
C2479 C2478 1.362 . S
H2480 C2486 0.930 . S
H2481 C2489 0.930 . S
H2482 C2490 0.930 . S
H2483 C2491 0.930 . S
H2484 C2494 0.930 . S
H2485 C2495 0.930 . S
C2486 H2480 0.930 . S
C2486 C2487 1.355 . S
C2486 C2488 1.415 . S
C2487 C2486 1.355 . S
C2487 C2489 1.419 . S
C2488 C2486 1.415 . S
C2488 C2493 1.425 . S
C2488 C2495 1.409 . S
C2489 H2481 0.930 . S
C2489 C2487 1.419 . S
C2489 C2490 1.362 . S
C2490 H2482 0.930 . S
C2490 C2489 1.362 . S
C2490 C2493 1.409 . S
C2491 H2483 0.930 . S
C2491 C2492 1.355 . S
C2491 C2493 1.415 . S
C2492 C2491 1.355 . S
C2492 C2494 1.419 . S
C2493 C2488 1.425 . S
C2493 C2490 1.409 . S
C2493 C2491 1.415 . S
C2494 H2484 0.930 . S
C2494 C2492 1.419 . S
C2494 C2495 1.362 . S
C2495 H2485 0.930 . S
C2495 C2488 1.409 . S
C2495 C2494 1.362 . S
H2496 C2502 0.930 . S
H2497 C2505 0.930 . S
H2498 C2506 0.930 . S
H2499 C2507 0.930 . S
H2500 C2510 0.930 . S
H2501 C2511 0.930 . S
C2502 H2496 0.930 . S
C2502 C2503 1.355 . S
C2502 C2504 1.415 . S
C2503 C2502 1.355 . S
C2503 C2505 1.419 . S
C2504 C2502 1.415 . S
C2504 C2509 1.425 . S
C2504 C2511 1.409 . S
C2505 H2497 0.930 . S
C2505 C2503 1.419 . S
C2505 C2506 1.362 . S
C2506 H2498 0.930 . S
C2506 C2505 1.362 . S
C2506 C2509 1.409 . S
C2507 H2499 0.930 . S
C2507 C2508 1.355 . S
C2507 C2509 1.415 . S
C2508 C2507 1.355 . S
C2508 C2510 1.419 . S
C2509 C2504 1.425 . S
C2509 C2506 1.409 . S
C2509 C2507 1.415 . S
C2510 H2500 0.930 . S
C2510 C2508 1.419 . S
C2510 C2511 1.362 . S
C2511 H2501 0.930 . S
C2511 C2504 1.409 . S
C2511 C2510 1.362 . S
H2512 C2518 0.930 . S
H2513 C2521 0.930 . S
H2514 C2522 0.930 . S
H2515 C2523 0.930 . S
H2516 C2526 0.930 . S
H2517 C2527 0.930 . S
C2518 H2512 0.930 . S
C2518 C2519 1.355 . S
C2518 C2520 1.415 . S
C2519 C2518 1.355 . S
C2519 C2521 1.419 . S
C2520 C2518 1.415 . S
C2520 C2525 1.425 . S
C2520 C2527 1.409 . S
C2521 H2513 0.930 . S
C2521 C2519 1.419 . S
C2521 C2522 1.362 . S
C2522 H2514 0.930 . S
C2522 C2521 1.362 . S
C2522 C2525 1.409 . S
C2523 H2515 0.930 . S
C2523 C2524 1.355 . S
C2523 C2525 1.415 . S
C2524 C2523 1.355 . S
C2524 C2526 1.419 . S
C2525 C2520 1.425 . S
C2525 C2522 1.409 . S
C2525 C2523 1.415 . S
C2526 H2516 0.930 . S
C2526 C2524 1.419 . S
C2526 C2527 1.362 . S
C2527 H2517 0.930 . S
C2527 C2520 1.409 . S
C2527 C2526 1.362 . S
H2528 C2534 0.930 . S
H2529 C2537 0.930 . S
H2530 C2538 0.930 . S
H2531 C2539 0.930 . S
H2532 C2542 0.930 . S
H2533 C2543 0.930 . S
C2534 H2528 0.930 . S
C2534 C2535 1.355 . S
C2534 C2536 1.415 . S
C2535 C2534 1.355 . S
C2535 C2537 1.419 . S
C2536 C2534 1.415 . S
C2536 C2541 1.425 . S
C2536 C2543 1.409 . S
C2537 H2529 0.930 . S
C2537 C2535 1.419 . S
C2537 C2538 1.362 . S
C2538 H2530 0.930 . S
C2538 C2537 1.362 . S
C2538 C2541 1.409 . S
C2539 H2531 0.930 . S
C2539 C2540 1.355 . S
C2539 C2541 1.415 . S
C2540 C2539 1.355 . S
C2540 C2542 1.419 . S
C2541 C2536 1.425 . S
C2541 C2538 1.409 . S
C2541 C2539 1.415 . S
C2542 H2532 0.930 . S
C2542 C2540 1.419 . S
C2542 C2543 1.362 . S
C2543 H2533 0.930 . S
C2543 C2536 1.409 . S
C2543 C2542 1.362 . S
H2544 C2550 0.930 . S
H2545 C2553 0.930 . S
H2546 C2554 0.930 . S
H2547 C2555 0.930 . S
H2548 C2558 0.930 . S
H2549 C2559 0.930 . S
C2550 H2544 0.930 . S
C2550 C2551 1.355 . S
C2550 C2552 1.415 . S
C2551 C2550 1.355 . S
C2551 C2553 1.419 . S
C2552 C2550 1.415 . S
C2552 C2557 1.425 . S
C2552 C2559 1.409 . S
C2553 H2545 0.930 . S
C2553 C2551 1.419 . S
C2553 C2554 1.362 . S
C2554 H2546 0.930 . S
C2554 C2553 1.362 . S
C2554 C2557 1.409 . S
C2555 H2547 0.930 . S
C2555 C2556 1.355 . S
C2555 C2557 1.415 . S
C2556 C2555 1.355 . S
C2556 C2558 1.419 . S
C2557 C2552 1.425 . S
C2557 C2554 1.409 . S
C2557 C2555 1.415 . S
C2558 H2548 0.930 . S
C2558 C2556 1.419 . S
C2558 C2559 1.362 . S
C2559 H2549 0.930 . S
C2559 C2552 1.409 . S
C2559 C2558 1.362 . S
H2560 C2566 0.930 . S
H2561 C2569 0.930 . S
H2562 C2570 0.930 . S
H2563 C2571 0.930 . S
H2564 C2574 0.930 . S
H2565 C2575 0.930 . S
C2566 H2560 0.930 . S
C2566 C2567 1.355 . S
C2566 C2568 1.415 . S
C2567 C2566 1.355 . S
C2567 C2569 1.419 . S
C2568 C2566 1.415 . S
C2568 C2573 1.425 . S
C2568 C2575 1.409 . S
C2569 H2561 0.930 . S
C2569 C2567 1.419 . S
C2569 C2570 1.362 . S
C2570 H2562 0.930 . S
C2570 C2569 1.362 . S
C2570 C2573 1.409 . S
C2571 H2563 0.930 . S
C2571 C2572 1.355 . S
C2571 C2573 1.415 . S
C2572 C2571 1.355 . S
C2572 C2574 1.419 . S
C2573 C2568 1.425 . S
C2573 C2570 1.409 . S
C2573 C2571 1.415 . S
C2574 H2564 0.930 . S
C2574 C2572 1.419 . S
C2574 C2575 1.362 . S
C2575 H2565 0.930 . S
C2575 C2568 1.409 . S
C2575 C2574 1.362 . S
H2576 C2582 0.930 . S
H2577 C2585 0.930 . S
H2578 C2586 0.930 . S
H2579 C2587 0.930 . S
H2580 C2590 0.930 . S
H2581 C2591 0.930 . S
C2582 H2576 0.930 . S
C2582 C2583 1.355 . S
C2582 C2584 1.415 . S
C2583 C2582 1.355 . S
C2583 C2585 1.419 . S
C2584 C2582 1.415 . S
C2584 C2589 1.425 . S
C2584 C2591 1.409 . S
C2585 H2577 0.930 . S
C2585 C2583 1.419 . S
C2585 C2586 1.362 . S
C2586 H2578 0.930 . S
C2586 C2585 1.362 . S
C2586 C2589 1.409 . S
C2587 H2579 0.930 . S
C2587 C2588 1.355 . S
C2587 C2589 1.415 . S
C2588 C2587 1.355 . S
C2588 C2590 1.419 . S
C2589 C2584 1.425 . S
C2589 C2586 1.409 . S
C2589 C2587 1.415 . S
C2590 H2580 0.930 . S
C2590 C2588 1.419 . S
C2590 C2591 1.362 . S
C2591 H2581 0.930 . S
C2591 C2584 1.409 . S
C2591 C2590 1.362 . S
H2592 C2598 0.930 . S
H2593 C2601 0.930 . S
H2594 C2602 0.930 . S
H2595 C2603 0.930 . S
H2596 C2606 0.930 . S
H2597 C2607 0.930 . S
C2598 H2592 0.930 . S
C2598 C2599 1.355 . S
C2598 C2600 1.415 . S
C2599 C2598 1.355 . S
C2599 C2601 1.419 . S
C2600 C2598 1.415 . S
C2600 C2605 1.425 . S
C2600 C2607 1.409 . S
C2601 H2593 0.930 . S
C2601 C2599 1.419 . S
C2601 C2602 1.362 . S
C2602 H2594 0.930 . S
C2602 C2601 1.362 . S
C2602 C2605 1.409 . S
C2603 H2595 0.930 . S
C2603 C2604 1.355 . S
C2603 C2605 1.415 . S
C2604 C2603 1.355 . S
C2604 C2606 1.419 . S
C2605 C2600 1.425 . S
C2605 C2602 1.409 . S
C2605 C2603 1.415 . S
C2606 H2596 0.930 . S
C2606 C2604 1.419 . S
C2606 C2607 1.362 . S
C2607 H2597 0.930 . S
C2607 C2600 1.409 . S
C2607 C2606 1.362 . S
H2608 C2614 0.930 . S
H2609 C2617 0.930 . S
H2610 C2618 0.930 . S
H2611 C2619 0.930 . S
H2612 C2622 0.930 . S
H2613 C2623 0.930 . S
C2614 H2608 0.930 . S
C2614 C2615 1.355 . S
C2614 C2616 1.415 . S
C2615 C2614 1.355 . S
C2615 C2617 1.419 . S
C2616 C2614 1.415 . S
C2616 C2621 1.425 . S
C2616 C2623 1.409 . S
C2617 H2609 0.930 . S
C2617 C2615 1.419 . S
C2617 C2618 1.362 . S
C2618 H2610 0.930 . S
C2618 C2617 1.362 . S
C2618 C2621 1.409 . S
C2619 H2611 0.930 . S
C2619 C2620 1.355 . S
C2619 C2621 1.415 . S
C2620 C2619 1.355 . S
C2620 C2622 1.419 . S
C2621 C2616 1.425 . S
C2621 C2618 1.409 . S
C2621 C2619 1.415 . S
C2622 H2612 0.930 . S
C2622 C2620 1.419 . S
C2622 C2623 1.362 . S
C2623 H2613 0.930 . S
C2623 C2616 1.409 . S
C2623 C2622 1.362 . S
H2624 C2630 0.930 . S
H2625 C2633 0.930 . S
H2626 C2634 0.930 . S
H2627 C2635 0.930 . S
H2628 C2638 0.930 . S
H2629 C2639 0.930 . S
C2630 H2624 0.930 . S
C2630 C2631 1.355 . S
C2630 C2632 1.415 . S
C2631 C2630 1.355 . S
C2631 C2633 1.419 . S
C2632 C2630 1.415 . S
C2632 C2637 1.425 . S
C2632 C2639 1.409 . S
C2633 H2625 0.930 . S
C2633 C2631 1.419 . S
C2633 C2634 1.362 . S
C2634 H2626 0.930 . S
C2634 C2633 1.362 . S
C2634 C2637 1.409 . S
C2635 H2627 0.930 . S
C2635 C2636 1.355 . S
C2635 C2637 1.415 . S
C2636 C2635 1.355 . S
C2636 C2638 1.419 . S
C2637 C2632 1.425 . S
C2637 C2634 1.409 . S
C2637 C2635 1.415 . S
C2638 H2628 0.930 . S
C2638 C2636 1.419 . S
C2638 C2639 1.362 . S
C2639 H2629 0.930 . S
C2639 C2632 1.409 . S
C2639 C2638 1.362 . S
C1111 N140 1.578 . S
C1116 N2 1.612 . S
C1127 C30 1.814 . S
C1132 C168 1.787 . S
C1143 N48 1.600 . S
C1148 N94 1.592 . S
C1159 C122 1.794 . S
C1164 C76 1.807 . S
C1175 C789 1.762 . S
C1180 C191 1.744 . S
C1191 N807 1.571 . S
C1196 N209 1.590 . S
C1207 C237 1.763 . S
C1212 C743 1.744 . S
C1223 N255 1.563 . S
C1228 N761 1.599 . S
C1239 C881 1.773 . S
C1244 C283 1.736 . S
C1255 N899 1.628 . S
C1260 N301 1.557 . S
C1271 C835 1.756 . S
C1276 C329 1.749 . S
C1287 N853 1.629 . S
C1292 N347 1.543 . S
C1303 C375 1.779 . S
C1308 C950 1.819 . S
C1319 C398 1.822 . S
C1324 C927 1.777 . S
C1335 C421 1.732 . S
C1340 C536 1.779 . S
C1351 C1042 1.820 . S
C1356 C444 1.780 . S
C1367 C1065 1.758 . S
C1372 C467 1.748 . S
C1383 C996 1.777 . S
C1388 C490 1.822 . S
C1399 C1019 1.740 . S
C1404 C513 1.768 . S
C1415 N692 1.564 . S
C1420 N554 1.598 . S
C1431 C720 1.821 . S
C1436 C582 1.779 . S
C1447 N600 1.545 . S
C1452 N646 1.632 . S
C1463 C628 1.790 . S
C1468 C674 1.807 . S
C1479 C1088 1.772 . S
C1484 C973 1.737 . S
C1495 N370 1.793 . S
C1500 N12 1.817 . S
C1511 C39 1.592 1_655 S
C1516 N1083 1.609 . S
C1527 N58 1.843 . S
C1532 N485 1.756 . S
C1543 N1060 1.580 . S
C1548 C85 1.599 . S
C1559 N104 1.819 . S
C1564 N945 1.795 . S
C1575 N968 1.673 . S
C1580 C131 1.677 . S
C1591 N150 1.795 . S
C1596 N991 1.760 . S
C1607 N462 1.670 . S
C1612 C177 1.679 1_655 S
C1623 C200 1.714 . S
C1628 C7 1.781 . S
C1639 N25 1.765 . S
C1644 N219 1.797 . S
C1655 C246 1.717 . S
C1660 C53 1.789 . S
C1671 N265 1.857 . S
C1676 N71 1.783 . S
C1687 C292 1.673 . S
C1692 C99 1.772 . S
C1703 N117 1.809 . S
C1708 N311 1.839 . S
C1719 C338 1.634 . S
C1724 C145 1.735 . S
C1735 N357 1.827 . S
C1740 N163 1.802 . S
C1751 C384 1.681 . S
C1756 N186 1.661 . S
C1767 C407 1.595 . S
C1772 N830 1.580 . S
C1783 C858 1.767 . S
C1788 C430 1.698 . S
C1799 N876 1.609 . S
C1804 C453 1.592 . S
C1815 C476 1.711 . S
C1820 C352 1.777 . S
C1831 C499 1.612 . S
C1836 N232 1.583 . S
C1847 C812 1.787 . S
C1852 C522 1.718 . S
C1863 C766 1.786 . S
C1868 C545 1.718 . S
C1879 N564 1.834 . S
C1884 N922 1.745 . S
C1895 C591 1.675 . S
C1900 N531 1.674 . S
C1911 N610 1.825 . S
C1916 N1037 1.736 . S
C1927 C637 1.656 1_455 S
C1932 N508 1.662 . S
C1943 N656 1.848 . S
C1948 N393 1.764 . S
C1959 N416 1.595 . S
C1964 C683 1.633 1_455 S
C1975 N439 1.807 . S
C1980 N702 1.834 . S
C1991 N1014 1.614 . S
C1996 C729 1.653 . S
C2007 C559 1.747 . S
C2012 C752 1.638 . S
C2023 N577 1.793 . S
C2028 N771 1.817 . S
C2039 C798 1.632 . S
C2044 C605 1.738 . S
C2055 N623 1.754 . S
C2060 N817 1.842 . S
C2071 C844 1.632 . S
C2076 C651 1.739 . S
C2087 N669 1.762 . S
C2092 N863 1.847 . S
C2103 C890 1.632 . S
C2108 C697 1.739 . S
C2119 N715 1.800 . S
C2124 N909 1.825 . S
C2135 C936 1.669 . S
C2140 N738 1.634 . S
C2151 C959 1.630 . S
C2156 N278 1.655 . S
C2167 C306 1.770 . S
C2172 C982 1.671 . S
C2183 C1005 1.677 . S
C2188 N324 1.648 . S
C2199 C1028 1.709 . S
C2204 C904 1.788 . S
C2215 N784 1.648 . S
C2220 C1051 1.621 . S
C2231 C1074 1.679 . S
C2236 C260 1.775 . S
C2247 C214 1.773 . S
C2252 C1097 1.706 . S
C2263 C223 1.358 . S
C2268 C16 1.326 . S
C2279 N35 1.502 . S
C2284 N242 1.513 . S
C2295 C269 1.359 . S
C2300 C62 1.394 . S
C2311 N196 1.514 . S
C2316 N81 1.503 . S
C2327 C108 1.323 . S
C2332 C361 1.381 . S
C2343 N127 1.520 . S
C2348 N288 1.502 . S
C2359 C315 1.379 . S
C2364 C154 1.380 . S
C2375 N334 1.459 . S
C2380 N173 1.497 . S
C2391 N380 1.519 . S
C2396 N426 1.488 . S
C2407 N403 1.496 . S
C2412 N1070 1.511 . S
C2423 N449 1.483 . S
C2428 N1093 1.455 . S
C2439 N1047 1.472 . S
C2444 N472 1.483 . S
C2455 N1024 1.470 . S
C2460 N495 1.470 . S
C2471 N955 1.486 . S
C2476 N518 1.455 . S
C2487 N541 1.514 . S
C2492 N1001 1.506 . S
C2503 C775 1.330 . S
C2508 C568 1.392 . S
C2519 N794 1.504 . S
C2524 N587 1.520 . S
C2535 C614 1.387 . S
C2540 C821 1.372 . S
C2551 N748 1.512 . S
C2556 N633 1.515 . S
C2567 C913 1.381 . S
C2572 C660 1.379 . S
C2583 N840 1.510 . S
C2588 N679 1.517 . S
C2599 C706 1.350 . S
C2604 C867 1.396 . S
C2615 N886 1.508 . S
C2620 N725 1.491 . S
C2631 N978 1.456 . S
C2636 N932 1.491 . S
