# Generated by pormake.
# Topology mdf, (4)-cn, num edge types: 1
# Building blocks:
#     Node 0, Type 0, BuildingBlock: CEKHIL_clean_sbu_0, # of connection points: 4
#     Node 1, Type 0, BuildingBlock: CEKHIL_clean_sbu_0, # of connection points: 4
#     Node 2, Type 0, BuildingBlock: CEKHIL_clean_sbu_0, # of connection points: 4
#     Node 3, Type 0, BuildingBlock: CEKHIL_clean_sbu_0, # of connection points: 4
#     Node 4, Type 0, BuildingBlock: CEKHIL_clean_sbu_0, # of connection points: 4
#     Node 5, Type 0, BuildingBlock: CEKHIL_clean_sbu_0, # of connection points: 4
#     Node 6, Type 0, BuildingBlock: CEKHIL_clean_sbu_0, # of connection points: 4
#     Node 7, Type 0, BuildingBlock: CEKHIL_clean_sbu_0, # of connection points: 4
#     Edge 8, Type (0, 0), BuildingBlock: ZUJKAS_clean_linker_0, # of connection points: 2
#     Edge 9, Type (0, 0), BuildingBlock: ZUJKAS_clean_linker_0, # of connection points: 2
#     Edge 10, Type (0, 0), BuildingBlock: ZUJKAS_clean_linker_0, # of connection points: 2
#     Edge 11, Type (0, 0), BuildingBlock: ZUJKAS_clean_linker_0, # of connection points: 2
#     Edge 12, Type (0, 0), BuildingBlock: ZUJKAS_clean_linker_0, # of connection points: 2
#     Edge 13, Type (0, 0), BuildingBlock: ZUJKAS_clean_linker_0, # of connection points: 2
#     Edge 14, Type (0, 0), BuildingBlock: ZUJKAS_clean_linker_0, # of connection points: 2
#     Edge 15, Type (0, 0), BuildingBlock: ZUJKAS_clean_linker_0, # of connection points: 2
#     Edge 16, Type (0, 0), BuildingBlock: ZUJKAS_clean_linker_0, # of connection points: 2
#     Edge 17, Type (0, 0), BuildingBlock: ZUJKAS_clean_linker_0, # of connection points: 2
#     Edge 18, Type (0, 0), BuildingBlock: ZUJKAS_clean_linker_0, # of connection points: 2
#     Edge 19, Type (0, 0), BuildingBlock: ZUJKAS_clean_linker_0, # of connection points: 2
#     Edge 20, Type (0, 0), BuildingBlock: ZUJKAS_clean_linker_0, # of connection points: 2
#     Edge 21, Type (0, 0), BuildingBlock: ZUJKAS_clean_linker_0, # of connection points: 2
#     Edge 22, Type (0, 0), BuildingBlock: ZUJKAS_clean_linker_0, # of connection points: 2
#     Edge 23, Type (0, 0), BuildingBlock: ZUJKAS_clean_linker_0, # of connection points: 2
# Relax obj value: 0.019
# Max RMSD: 0.044
# Mean RMSD: 0.044
data_MOF--net-mdf--node1-CEKHIL_clean_sbu_0--edge1-ZUJKAS_clean_linker_0
_symmetry_space_group_name_H-M    P1
_symmetry_Int_Tables_number       1
_symmetry_cell_setting            triclinic
loop_
_symmetry_equiv_pos_as_xyz
'x, y, z'
_cell_length_a     49.311563
_cell_length_b     49.373989
_cell_length_c     14.724557
_cell_angle_alpha  90.008924
_cell_angle_beta   90.024149
_cell_angle_gamma 91.660515
loop_
_atom_site_label
_atom_site_type_symbol
_atom_site_fract_x
_atom_site_fract_y
_atom_site_fract_z
_atom_type_partial_charge
Co0 Co 0.25256 0.53555 0.38147 0.0
O1 O 0.22497 0.56221 0.38928 0.0
O2 O 0.23874 0.53776 0.50521 0.0
C3 C 0.28196 0.56159 0.30047 0.0
O4 O 0.28149 0.50674 0.39788 0.0
Co5 Co 0.27011 0.51388 0.19172 0.0
O6 O 0.30136 0.50055 0.26188 0.0
C7 C 0.2177 0.49579 0.27204 0.0
C8 C 0.22301 0.55652 0.47494 0.0
C9 C 0.30039 0.49706 0.34762 0.0
O10 O 0.22418 0.50699 0.34839 0.0
O11 O 0.23225 0.49823 0.20028 0.0
O12 O 0.28099 0.56409 0.3883 0.0
O13 O 0.26396 0.54535 0.26535 0.0
Co14 Co 0.47347 0.75031 0.61587 0.0
O15 O 0.44662 0.77774 0.60979 0.0
O16 O 0.46971 0.76346 0.49154 0.0
C17 C 0.44852 0.72132 0.70207 0.0
O18 O 0.50224 0.7213 0.59827 0.0
Co19 Co 0.49726 0.73504 0.80521 0.0
O20 O 0.51186 0.70426 0.73624 0.0
C21 C 0.51302 0.78701 0.71897 0.0
C22 C 0.45132 0.77935 0.52343 0.0
C23 C 0.51377 0.70379 0.64987 0.0
O24 O 0.50223 0.77908 0.64345 0.0
O25 O 0.51091 0.77344 0.79286 0.0
O26 O 0.44491 0.72179 0.61461 0.0
O27 O 0.46501 0.73965 0.73377 0.0
Co28 Co 0.25282 0.97118 0.88537 0.0
O29 O 0.27889 0.9431 0.89486 0.0
O30 O 0.26638 0.96864 0.00965 0.0
C31 C 0.2221 0.94655 0.80453 0.0
O32 O 0.22537 1.00157 0.899 0.0
Co33 Co 0.23869 0.99271 0.692 0.0
O34 O 0.21075 0.01268 0.75896 0.0
C35 C 0.29141 0.00701 0.77512 0.0
C36 C 0.28123 0.94906 0.98017 0.0
C37 C 0.20987 0.01495 0.84522 0.0
O38 O 0.28286 0.99809 0.8525 0.0
O39 O 0.2779 0.00405 0.70136 0.0
O40 O 0.22286 0.94423 0.89245 0.0
O41 O 0.2412 0.96143 0.76937 0.0
Co42 Co 0.03327 0.75306 0.12574 0.0
O43 O 0.06135 0.72698 0.1156 0.0
O44 O 0.03623 0.74042 0.00077 0.0
C45 C 0.05755 0.78314 0.21016 0.0
O46 O 1.00301 0.7806 0.11205 0.0
Co47 Co 0.01059 0.76634 0.31829 0.0
O48 O 0.99108 0.79468 0.25184 0.0
C49 C 0.99664 0.71407 0.23149 0.0
C50 C 0.05565 0.7253 0.02987 0.0
C51 C 0.98934 0.79591 0.1655 0.0
O52 O 0.00611 0.7229 0.15516 0.0
O53 O 0.99911 0.7273 0.30595 0.0
O54 O 0.06038 0.78295 0.12236 0.0
O55 O 0.04238 0.7639 0.24306 0.0
Co56 Co 0.75478 0.0334 0.88666 0.0
O57 O 0.727 0.05986 0.89447 0.0
O58 O 0.74126 0.03587 0.01075 0.0
C59 C 0.78376 0.05938 0.80371 0.0
O60 O 0.78404 0.0049 0.90298 0.0
Co61 Co 0.7716 0.01137 0.69643 0.0
O62 O 0.8025 0.99707 0.76577 0.0
C63 C 0.71924 0.99417 0.77828 0.0
C64 C 0.72528 0.05438 0.98034 0.0
C65 C 0.80227 0.99432 0.85189 0.0
O66 O 0.72644 0.00457 0.8552 0.0
O67 O 0.73333 0.99699 0.70567 0.0
O68 O 0.78303 0.06224 0.89146 0.0
O69 O 0.76576 0.0429 0.76999 0.0
Co70 Co 0.97258 0.25101 0.11698 0.0
O71 O 0.94655 0.27923 0.10956 0.0
O72 O 0.96992 0.2644 0.9927 0.0
C73 C 0.94617 0.22266 0.20074 0.0
O74 O 1.00062 0.22125 0.10032 0.0
Co75 Co 0.99469 0.23388 0.30665 0.0
O76 O 0.00817 0.20265 0.23742 0.0
C77 C 0.01377 0.28535 0.22257 0.0
C78 C 0.95174 0.28071 0.02348 0.0
C79 C 0.01094 0.20285 0.15132 0.0
O80 O 1.00198 0.27888 0.14717 0.0
O81 O 0.01133 0.27118 0.2951 0.0
O82 O 0.9433 0.2233 0.11301 0.0
O83 O 0.96304 0.24037 0.23416 0.0
Co84 Co 0.75259 0.46984 0.3784 0.0
O85 O 0.77827 0.44147 0.38963 0.0
O86 O 0.76546 0.46721 0.50351 0.0
C87 C 0.72213 0.44552 0.29562 0.0
O88 O 0.7254 0.50053 0.39029 0.0
Co89 Co 0.73977 0.49162 0.18449 0.0
O90 O 0.71117 0.51123 0.24954 0.0
C91 C 0.79199 0.50586 0.27129 0.0
C92 C 0.78026 0.44746 0.47501 0.0
C93 C 0.70999 0.51371 0.33569 0.0
O94 O 0.78308 0.49641 0.34752 0.0
O95 O 0.7788 0.50342 0.1967 0.0
O96 O 0.72231 0.44324 0.3836 0.0
O97 O 0.74158 0.46021 0.26164 0.0
Co98 Co 0.53308 0.2541 0.6108 0.0
O99 O 0.55996 0.2266 0.60801 0.0
O100 O 0.53711 0.24007 0.48797 0.0
C101 C 0.55779 0.28374 0.69545 0.0
O102 O 0.5044 0.28282 0.58874 0.0
Co103 Co 0.50828 0.27185 0.79569 0.0
O104 O 0.49646 0.30316 0.72284 0.0
C105 C 0.49184 0.21919 0.71398 0.0
C106 C 0.55544 0.22443 0.52159 0.0
C107 C 0.49418 0.30194 0.63671 0.0
O108 O 0.50418 0.22565 0.63959 0.0
O109 O 0.49294 0.23392 0.78559 0.0
O110 O 0.56167 0.28254 0.60822 0.0
O111 O 0.54104 0.2658 0.72824 0.0
H112 H 0.40873 0.68357 0.65888 0.0
H113 H 0.38353 0.65375 0.76472 0.0
H114 H 0.43227 0.68475 0.98685 0.0
H115 H 0.45717 0.71467 0.88262 0.0
H116 H 0.40267 0.6135 0.89276 0.0
H117 H 0.35321 0.69994 0.06128 0.0
H118 H 0.36986 0.70312 0.95249 0.0
H119 H 0.38957 0.7026 0.05509 0.0
C120 C 0.41416 0.68384 0.73017 0.0
C121 C 0.43469 0.70161 0.76269 0.0
C122 C 0.3998 0.66683 0.79037 0.0
C123 C 0.40582 0.66748 0.88356 0.0
C124 C 0.42704 0.68437 0.91537 0.0
H125 H 0.32451 0.59482 0.35445 0.0
H126 H 0.35738 0.61891 0.25598 0.0
C127 C 0.44128 0.70137 0.85558 0.0
C128 C 0.3894 0.65118 0.94842 0.0
H129 H 0.3455 0.65666 0.12599 0.0
C130 C 0.39014 0.62286 0.94378 0.0
C131 C 0.37327 0.66358 0.0151 0.0
C132 C 0.37116 0.69398 0.02119 0.0
C133 C 0.37518 0.6065 0.00475 0.0
C134 C 0.35872 0.6189 0.0706 0.0
C135 C 0.35828 0.64725 0.0758 0.0
C136 C 0.34033 0.60297 0.13072 0.0
C137 C 0.37737 0.57614 0.99862 0.0
C138 C 0.31985 0.58628 0.09274 0.0
C139 C 0.30124 0.57256 0.14846 0.0
C140 C 0.30253 0.57551 0.24332 0.0
C141 C 0.32309 0.59217 0.28157 0.0
C142 C 0.34184 0.60587 0.22553 0.0
H143 H 0.39673 0.5704 0.96624 0.0
H144 H 0.37601 0.56657 0.06678 0.0
H145 H 0.36049 0.56779 0.95624 0.0
H146 H 0.31784 0.58435 0.01975 0.0
H147 H 0.28552 0.56001 0.11686 0.0
H148 H 0.41734 0.8182 0.58084 0.0
H149 H 0.38994 0.84818 0.48969 0.0
H150 H 0.42195 0.81345 0.24484 0.0
H151 H 0.45011 0.78347 0.33646 0.0
H152 H 0.4194 0.8695 0.23638 0.0
H153 H 0.32104 0.82586 0.35667 0.0
H154 H 0.34277 0.83724 0.44753 0.0
H155 H 0.35279 0.80959 0.37656 0.0
C156 C 0.41864 0.81684 0.50755 0.0
C157 C 0.43579 0.79821 0.46596 0.0
C158 C 0.40276 0.83395 0.45546 0.0
C159 C 0.40331 0.83267 0.36032 0.0
C160 C 0.42098 0.81464 0.31822 0.0
H161 H 0.31697 0.9113 0.9268 0.0
H162 H 0.34701 0.88473 0.02054 0.0
C163 C 0.43707 0.79752 0.37057 0.0
C164 C 0.38552 0.85036 0.30556 0.0
H165 H 0.31931 0.86691 0.27264 0.0
C166 C 0.39752 0.86882 0.24396 0.0
C167 C 0.35691 0.84959 0.31557 0.0
C168 C 0.34256 0.82933 0.37699 0.0
C169 C 0.38177 0.88676 0.19336 0.0
C170 C 0.3532 0.88604 0.20371 0.0
C171 C 0.34121 0.86765 0.26538 0.0
C172 C 0.3353 0.9031 0.14737 0.0
C173 C 0.39589 0.90663 0.13011 0.0
C174 C 0.31822 0.92205 0.1875 0.0
C175 C 0.30083 0.93743 0.13369 0.0
C176 C 0.3 0.93382 0.03896 0.0
C177 C 0.31709 0.91473 0.99945 0.0
C178 C 0.33447 0.89957 0.05294 0.0
H179 H 0.41765 0.90974 0.14797 0.0
H180 H 0.39477 0.89863 0.05973 0.0
H181 H 0.38597 0.92653 0.13132 0.0
H182 H 0.31837 0.92495 0.26042 0.0
H183 H 0.28786 0.95185 0.16626 0.0
H184 H 0.0519 0.78781 0.39277 0.0
H185 H 0.07607 0.81909 0.4945 0.0
H186 H 0.11788 0.85543 0.26579 0.0
H187 H 0.09341 0.8242 0.16268 0.0
H188 H 0.13271 0.82168 0.51136 0.0
H189 H 0.09179 0.92116 0.4126 0.0
H190 H 0.07495 0.88931 0.38394 0.0
H191 H 0.10408 0.90104 0.32042 0.0
C192 C 0.06598 0.80266 0.36375 0.0
C193 C 0.07084 0.80354 0.26972 0.0
C194 C 0.07974 0.82052 0.42208 0.0
C195 C 0.09854 0.83967 0.38756 0.0
C196 C 0.10307 0.84106 0.29349 0.0
H197 H 0.21768 0.94897 0.62088 0.0
H198 H 0.18588 0.92365 0.52381 0.0
C199 C 0.08923 0.82314 0.23482 0.0
C200 C 0.11481 0.85665 0.45113 0.0
H201 H 0.12926 0.92199 0.5141 0.0
C202 C 0.13185 0.84361 0.51252 0.0
C203 C 0.1136 0.8852 0.452 0.0
C204 C 0.09497 0.90009 0.3893 0.0
C205 C 0.14823 0.85841 0.57368 0.0
C206 C 0.14708 0.88699 0.57459 0.0
C207 C 0.12992 0.90005 0.51351 0.0
C208 C 0.16475 0.90369 0.63494 0.0
C209 C 0.16728 0.84336 0.63466 0.0
C210 C 0.16295 0.90129 0.72982 0.0
C211 C 0.18124 0.91567 0.78572 0.0
C212 C 0.20141 0.93275 0.74734 0.0
C213 C 0.20243 0.93586 0.65249 0.0
C214 C 0.18425 0.92147 0.59685 0.0
H215 H 0.17017 0.82227 0.61101 0.0
H216 H 0.18742 0.85396 0.63823 0.0
H217 H 0.15872 0.8424 0.7043 0.0
H218 H 0.14768 0.888 0.76047 0.0
H219 H 0.17987 0.91306 0.85863 0.0
H220 H 0.09273 0.68852 0.0811 0.0
H221 H 0.11929 0.65905 0.98491 0.0
H222 H 0.08012 0.69052 0.74705 0.0
H223 H 0.0533 0.72037 0.84345 0.0
H224 H 0.10136 0.61855 0.85889 0.0
H225 H 0.16239 0.70118 0.69386 0.0
H226 H 0.14308 0.7064 0.79621 0.0
H227 H 0.1262 0.70436 0.68824 0.0
C228 C 0.08968 0.68925 0.0083 0.0
C229 C 0.07096 0.70696 0.96993 0.0
C230 C 0.10489 0.67229 0.95342 0.0
C231 C 0.10195 0.67276 0.85876 0.0
C232 C 0.083 0.6901 0.81995 0.0
H233 H 0.1855 0.59255 0.42149 0.0
H234 H 0.15566 0.61915 0.51593 0.0
C235 C 0.0676 0.70705 0.87508 0.0
C236 C 0.11893 0.65509 0.80147 0.0
H237 H 0.16949 0.65665 0.64284 0.0
C238 C 0.11625 0.62684 0.81154 0.0
C239 C 0.13844 0.66595 0.74013 0.0
C240 C 0.14298 0.69612 0.72911 0.0
C241 C 0.13221 0.60915 0.76074 0.0
C242 C 0.15184 0.62001 0.6996 0.0
C243 C 0.15449 0.64829 0.68969 0.0
C244 C 0.16938 0.60254 0.64326 0.0
C245 C 0.12744 0.579 0.77149 0.0
C246 C 0.18715 0.58416 0.68313 0.0
C247 C 0.20427 0.56866 0.62888 0.0
C248 C 0.20411 0.5715 0.53386 0.0
C249 C 0.1862 0.58982 0.49443 0.0
C250 C 0.1691 0.60513 0.5484 0.0
H251 H 0.10723 0.5741 0.80162 0.0
H252 H 0.12891 0.56846 0.70513 0.0
H253 H 0.1431 0.57092 0.81746 0.0
H254 H 0.1882 0.58218 0.75627 0.0
H255 H 0.21796 0.55489 0.66138 0.0
H256 H 0.78972 0.0532 0.62198 0.0
H257 H 0.82032 0.07834 0.52089 0.0
H258 H 0.85313 0.12323 0.74906 0.0
H259 H 0.82253 0.09776 0.85181 0.0
H260 H 0.8203 0.13523 0.50112 0.0
H261 H 0.92102 0.09857 0.60791 0.0
H262 H 0.88963 0.08056 0.63484 0.0
H263 H 0.89961 0.1104 0.69754 0.0
C264 C 0.80363 0.06818 0.65112 0.0
C265 C 0.80372 0.07357 0.74487 0.0
C266 C 0.82109 0.08252 0.59312 0.0
C267 C 0.83905 0.10244 0.62765 0.0
C268 C 0.83965 0.10759 0.72146 0.0
H269 H 0.94787 0.22036 0.38465 0.0
H270 H 0.92207 0.18993 0.48466 0.0
C271 C 0.82212 0.09316 0.77989 0.0
C272 C 0.85571 0.11894 0.56402 0.0
H273 H 0.92086 0.13441 0.50093 0.0
C274 C 0.84229 0.13501 0.50067 0.0
C275 C 0.88433 0.11851 0.56406 0.0
C276 C 0.8996 0.10095 0.62917 0.0
C277 C 0.85678 0.15116 0.43811 0.0
C278 C 0.88544 0.15069 0.43779 0.0
C279 C 0.89887 0.13454 0.50107 0.0
C280 C 0.90187 0.16799 0.37562 0.0
C281 C 0.84129 0.16915 0.37483 0.0
C282 C 0.89939 0.16539 0.28093 0.0
C283 C 0.91401 0.18296 0.22327 0.0
C284 C 0.93148 0.20313 0.25974 0.0
C285 C 0.9345 0.20506 0.35447 0.0
C286 C 0.91983 0.18766 0.41181 0.0
H287 H 0.82018 0.17201 0.39857 0.0
H288 H 0.85158 0.18935 0.3681 0.0
H289 H 0.84025 0.15968 0.30653 0.0
H290 H 0.88602 0.14993 0.25172 0.0
H291 H 0.91148 0.1809 0.1505 0.0
H292 H 0.91949 0.32142 0.07801 0.0
H293 H 0.89197 0.3508 0.98437 0.0
H294 H 0.92195 0.31255 0.74268 0.0
H295 H 0.94975 0.28286 0.8365 0.0
H296 H 0.90742 0.38775 0.84123 0.0
H297 H 0.83776 0.3044 0.72371 0.0
H298 H 0.86006 0.30086 0.82001 0.0
H299 H 0.87334 0.29916 0.7067 0.0
C300 C 0.92039 0.31927 0.00487 0.0
C301 C 0.93673 0.29964 0.96474 0.0
C302 C 0.90464 0.33616 0.95144 0.0
C303 C 0.9046 0.33368 0.85662 0.0
C304 C 0.92139 0.31458 0.81589 0.0
H305 H 0.81347 0.40707 0.42521 0.0
H306 H 0.84359 0.381 0.52009 0.0
C307 C 0.93738 0.29773 0.86948 0.0
C308 C 0.88651 0.35079 0.80123 0.0
H309 H 0.83098 0.34782 0.66232 0.0
C310 C 0.89069 0.37906 0.80205 0.0
C311 C 0.86458 0.33944 0.75076 0.0
C312 C 0.8584 0.30933 0.75043 0.0
C313 C 0.87392 0.39622 0.75205 0.0
C314 C 0.85198 0.38486 0.70141 0.0
C315 C 0.84775 0.35657 0.70116 0.0
C316 C 0.83384 0.40168 0.64485 0.0
C317 C 0.88031 0.42629 0.75191 0.0
C318 C 0.81807 0.42207 0.68319 0.0
C319 C 0.8007 0.43724 0.62858 0.0
C320 C 0.79868 0.43212 0.53481 0.0
C321 C 0.81446 0.41164 0.49711 0.0
C322 C 0.83174 0.39662 0.55137 0.0
H323 H 0.90137 0.43097 0.77519 0.0
H324 H 0.87768 0.43496 0.68299 0.0
H325 H 0.86621 0.43646 0.79869 0.0
H326 H 0.8189 0.42602 0.75547 0.0
H327 H 0.78874 0.45276 0.65981 0.0
H328 H 0.67719 0.41543 0.34741 0.0
H329 H 0.64499 0.39094 0.24778 0.0
H330 H 0.68926 0.42002 0.01292 0.0
H331 H 0.72094 0.44495 0.11134 0.0
H332 H 0.63404 0.42213 0.98993 0.0
H333 H 0.66349 0.32118 0.11767 0.0
H334 H 0.65162 0.34375 0.20357 0.0
H335 H 0.68264 0.35186 0.1441 0.0
C336 C 0.67991 0.41668 0.27452 0.0
C337 C 0.70168 0.43187 0.23713 0.0
C338 C 0.66162 0.40261 0.21779 0.0
C339 C 0.66507 0.4033 0.1231 0.0
C340 C 0.6863 0.41916 0.0858 0.0
H341 H 0.59749 0.32135 0.65005 0.0
H342 H 0.622 0.35243 0.75346 0.0
C343 C 0.70442 0.43333 0.14223 0.0
C344 C 0.64722 0.38693 0.06227 0.0
H345 H 0.62832 0.32183 0.00927 0.0
C346 C 0.6327 0.4002 0.99419 0.0
C347 C 0.64571 0.35833 0.06775 0.0
C348 C 0.66186 0.34286 0.1366 0.0
C349 C 0.61652 0.38558 0.93168 0.0
C350 C 0.61514 0.35701 0.93706 0.0
C351 C 0.62944 0.34378 0.0056 0.0
C352 C 0.599 0.3402 0.87257 0.0
C353 C 0.60083 0.4008 0.86112 0.0
C354 C 0.57814 0.32303 0.90549 0.0
C355 C 0.56437 0.30521 0.84707 0.0
C356 C 0.57125 0.30416 0.75452 0.0
C357 C 0.59172 0.32182 0.72098 0.0
C358 C 0.6056 0.33967 0.7798 0.0
H359 H 0.59879 0.42245 0.87979 0.0
H360 H 0.6117 0.39996 0.79525 0.0
H361 H 0.58026 0.39149 0.85149 0.0
H362 H 0.57284 0.3231 0.9769 0.0
H363 H 0.54866 0.29189 0.875 0.0
H364 H 0.72001 0.05255 0.16674 0.0
H365 H 0.6895 0.07918 0.26147 0.0
H366 H 0.65768 0.11677 0.02126 0.0
H367 H 0.68771 0.09037 0.92685 0.0
H368 H 0.68735 0.13673 0.27036 0.0
H369 H 0.58878 0.0916 0.1567 0.0
H370 H 0.62064 0.0754 0.13742 0.0
H371 H 0.61055 0.10277 0.06556 0.0
C372 C 0.70631 0.06629 0.13421 0.0
C373 C 0.70627 0.06924 0.03921 0.0
C374 C 0.68892 0.08153 0.18836 0.0
C375 C 0.67098 0.09969 0.14837 0.0
C376 C 0.67089 0.10251 0.05363 0.0
H377 H 0.55605 0.21885 0.33536 0.0
H378 H 0.58414 0.18849 0.24528 0.0
C379 C 0.68825 0.08747 0.99973 0.0
C380 C 0.65323 0.11675 0.20514 0.0
H381 H 0.58704 0.13249 0.24199 0.0
C382 C 0.6654 0.13563 0.26487 0.0
C383 C 0.6246 0.11552 0.19718 0.0
C384 C 0.6103 0.09508 0.13637 0.0
C385 C 0.64981 0.15371 0.31525 0.0
C386 C 0.62114 0.1525 0.30737 0.0
C387 C 0.60897 0.13351 0.24791 0.0
C388 C 0.60349 0.17042 0.36158 0.0
C389 C 0.66429 0.17449 0.37443 0.0
C390 C 0.60451 0.16994 0.45678 0.0
C391 C 0.58865 0.18728 0.50807 0.0
C392 C 0.57109 0.20533 0.46553 0.0
C393 C 0.56941 0.20525 0.37018 0.0
C394 C 0.58546 0.18792 0.31869 0.0
H395 H 0.68569 0.17801 0.35281 0.0
H396 H 0.65388 0.19413 0.37306 0.0
H397 H 0.66448 0.16707 0.44555 0.0
H398 H 0.61765 0.15615 0.49164 0.0
H399 H 0.59027 0.18656 0.58139 0.0
H400 H 0.35312 0.49395 0.29711 0.0
H401 H 0.38618 0.46124 0.34696 0.0
H402 H 0.32744 0.42652 0.53373 0.0
H403 H 0.29459 0.4603 0.48684 0.0
H404 H 0.37517 0.42671 0.60874 0.0
H405 H 0.38675 0.38491 0.26366 0.0
H406 H 0.39559 0.42035 0.26552 0.0
H407 H 0.36129 0.4091 0.29065 0.0
C408 C 0.34735 0.47953 0.3496 0.0
C409 C 0.3212 0.47955 0.38764 0.0
C410 C 0.36618 0.46059 0.37727 0.0
C411 C 0.35907 0.44064 0.44164 0.0
C412 C 0.33335 0.44144 0.48303 0.0
H413 H 0.45444 0.29439 0.50841 0.0
H414 H 0.42101 0.32749 0.46073 0.0
C415 C 0.31462 0.46083 0.45661 0.0
C416 C 0.37849 0.41907 0.46531 0.0
H417 H 0.42036 0.37249 0.37224 0.0
C418 C 0.38487 0.41473 0.55698 0.0
C419 C 0.39075 0.4028 0.39823 0.0
C420 C 0.383 0.4043 0.2992 0.0
C421 C 0.40363 0.39526 0.5832 0.0
C422 C 0.41736 0.3804 0.51564 0.0
C423 C 0.41036 0.38417 0.42414 0.0
C424 C 0.43883 0.36076 0.53859 0.0
C425 C 0.40792 0.39049 0.68338 0.0
C426 C 0.46072 0.36858 0.5948 0.0
C427 C 0.47941 0.3496 0.62327 0.0
C428 C 0.47728 0.32259 0.59346 0.0
C429 C 0.45665 0.31514 0.5318 0.0
C430 C 0.43747 0.33403 0.50504 0.0
H431 H 0.38985 0.3961 0.72352 0.0
H432 H 0.41227 0.36897 0.6977 0.0
H433 H 0.4253 0.40337 0.70731 0.0
H434 H 0.46302 0.38926 0.61859 0.0
H435 H 0.49528 0.35591 0.67028 0.0
H436 H 0.68886 0.97222 0.91799 0.0
H437 H 0.64984 0.94046 0.90486 0.0
H438 H 0.65361 0.94656 0.61302 0.0
H439 H 0.69253 0.97782 0.62495 0.0
H440 H 0.59803 0.94442 0.81472 0.0
H441 H 0.6621 0.86518 0.66485 0.0
H442 H 0.67628 0.89472 0.72169 0.0
H443 H 0.66408 0.8972 0.60702 0.0
C444 C 0.68122 0.96697 0.85109 0.0
C445 C 0.69409 0.97719 0.77252 0.0
C446 C 0.65895 0.94887 0.84376 0.0
C447 C 0.64929 0.94084 0.75792 0.0
C448 C 0.66118 0.9521 0.67977 0.0
H449 H 0.53245 0.81706 0.57486 0.0
H450 H 0.56306 0.85704 0.58108 0.0
C451 C 0.68343 0.96999 0.68689 0.0
C452 C 0.62758 0.91978 0.74926 0.0
H453 H 0.61478 0.85609 0.66706 0.0
C454 C 0.60163 0.92508 0.78262 0.0
C455 C 0.63246 0.89463 0.70721 0.0
C456 C 0.66028 0.8874 0.67381 0.0
C457 C 0.58024 0.90586 0.77408 0.0
C458 C 0.58517 0.88072 0.73205 0.0
C459 C 0.61107 0.87553 0.6983 0.0
C460 C 0.56435 0.85866 0.72787 0.0
C461 C 0.55253 0.91262 0.80934 0.0
C462 C 0.55499 0.84653 0.80832 0.0
C463 C 0.53773 0.8237 0.80509 0.0
C464 C 0.52954 0.81249 0.72119 0.0
C465 C 0.53834 0.8252 0.64051 0.0
C466 C 0.55579 0.84801 0.6439 0.0
H467 H 0.5503 0.93483 0.81691 0.0
H468 H 0.53634 0.90457 0.76344 0.0
H469 H 0.54952 0.90317 0.8771 0.0
H470 H 0.56179 0.85415 0.87372 0.0
H471 H 0.53126 0.81454 0.86861 0.0
H472 H 0.03629 0.20226 0.98397 0.0
H473 H 0.06884 0.16914 0.92929 0.0
H474 H 0.05798 0.12311 0.17602 0.0
H475 H 0.02548 0.1555 0.23013 0.0
H476 H 0.11763 0.1564 0.0131 0.0
H477 H 0.05144 0.06421 0.98436 0.0
H478 H 0.03806 0.09776 0.99323 0.0
H479 H 0.04925 0.08034 0.0932 0.0
C480 C 0.04045 0.18479 0.02567 0.0
C481 C 0.02824 0.18164 0.11153 0.0
C482 C 0.05915 0.16595 0.99459 0.0
C483 C 0.06568 0.14343 0.04814 0.0
C484 C 0.05297 0.13995 0.13261 0.0
H485 H 0.18778 0.01734 0.01778 0.0
H486 H 0.15341 0.04881 0.07205 0.0
C487 C 0.03446 0.15871 0.16375 0.0
C488 C 0.08702 0.12447 0.01932 0.0
H489 H 0.09919 0.0575 0.98167 0.0
C490 C 0.11353 0.13482 0.00553 0.0
C491 C 0.08177 0.09622 0.01026 0.0
C492 C 0.05354 0.08397 0.02017 0.0
C493 C 0.13493 0.11769 0.98418 0.0
C494 C 0.12969 0.08949 0.97561 0.0
C495 C 0.10323 0.07909 0.98943 0.0
C496 C 0.15102 0.07081 0.94533 0.0
C497 C 0.16311 0.12984 0.97187 0.0
C498 C 0.16093 0.07271 0.85641 0.0
C499 C 0.18023 0.05479 0.82532 0.0
C500 C 0.19027 0.03448 0.88243 0.0
C501 C 0.18061 0.0328 0.97224 0.0
C502 C 0.16092 0.05068 0.00316 0.0
H503 H 0.16503 0.15057 0.00097 0.0
H504 H 0.17843 0.1169 0.00424 0.0
H505 H 0.1678 0.13112 0.89827 0.0
H506 H 0.1534 0.08788 0.81039 0.0
H507 H 0.18723 0.05688 0.75588 0.0
H508 H 0.97592 0.68446 0.08794 0.0
H509 H 0.94528 0.64448 0.09596 0.0
H510 H 0.95134 0.64506 0.38804 0.0
H511 H 0.98156 0.6849 0.38123 0.0
H512 H 0.95021 0.59137 0.18282 0.0
H513 H 0.86948 0.65367 0.33274 0.0
H514 H 0.89894 0.66844 0.27694 0.0
H515 H 0.90147 0.65585 0.39104 0.0
C516 C 0.97098 0.67588 0.15379 0.0
C517 C 0.98081 0.68816 0.23399 0.0
C518 C 0.95352 0.65306 0.15819 0.0
C519 C 0.94576 0.64223 0.24268 0.0
C520 C 0.95675 0.65348 0.32233 0.0
H521 H 0.82202 0.52481 0.41608 0.0
H522 H 0.86215 0.55515 0.41118 0.0
C523 C 0.97403 0.67627 0.31814 0.0
C524 C 0.92489 0.62025 0.24859 0.0
H525 H 0.86085 0.60641 0.32641 0.0
C526 C 0.93064 0.59458 0.21401 0.0
C527 C 0.89943 0.62465 0.28934 0.0
C528 C 0.89176 0.65218 0.32399 0.0
C529 C 0.91159 0.57297 0.22036 0.0
C530 C 0.88617 0.57739 0.26134 0.0
C531 C 0.8805 0.60306 0.29598 0.0
C532 C 0.86436 0.55627 0.26447 0.0
C533 C 0.91886 0.54553 0.18422 0.0
C534 C 0.85255 0.54674 0.1836 0.0
C535 C 0.82961 0.52957 0.18606 0.0
C536 C 0.81795 0.52168 0.26958 0.0
C537 C 0.83046 0.53048 0.35066 0.0
C538 C 0.85338 0.54779 0.34804 0.0
H539 H 0.94117 0.54362 0.17756 0.0
H540 H 0.91084 0.52909 0.22904 0.0
H541 H 0.9097 0.54266 0.11592 0.0
H542 H 0.86041 0.55346 0.11846 0.0
H543 H 0.8206 0.5231 0.12226 0.0
H544 H 0.3219 0.01825 0.62482 0.0
H545 H 0.3612 0.04913 0.61297 0.0
H546 H 0.35817 0.06366 0.90162 0.0
H547 H 0.31905 0.03225 0.91456 0.0
H548 H 0.35909 0.10244 0.65367 0.0
H549 H 0.43888 0.05502 0.86026 0.0
H550 H 0.40881 0.03652 0.82242 0.0
H551 H 0.4074 0.05845 0.91977 0.0
C552 C 0.32983 0.02765 0.68617 0.0
C553 C 0.31722 0.02296 0.77062 0.0
C554 C 0.35234 0.04525 0.67921 0.0
C555 C 0.36271 0.05854 0.75639 0.0
C556 C 0.35084 0.05318 0.84144 0.0
H557 H 0.46525 0.19744 0.86078 0.0
H558 H 0.43583 0.15698 0.86566 0.0
C559 C 0.32839 0.03533 0.84866 0.0
C560 C 0.38395 0.08011 0.74595 0.0
H561 H 0.44658 0.10156 0.81978 0.0
C562 C 0.37837 0.10208 0.68905 0.0
C563 C 0.40901 0.07961 0.79252 0.0
C564 C 0.41654 0.05601 0.85152 0.0
C565 C 0.39685 0.12397 0.67943 0.0
C566 C 0.4217 0.12368 0.7271 0.0
C567 C 0.4275 0.10159 0.78311 0.0
C568 C 0.44112 0.147 0.72394 0.0
C569 C 0.38922 0.14769 0.62098 0.0
C570 C 0.45417 0.15449 0.6427 0.0
C571 C 0.47102 0.17774 0.63935 0.0
C572 C 0.47507 0.19383 0.71735 0.0
C573 C 0.46248 0.18571 0.79915 0.0
C574 C 0.44573 0.1625 0.80235 0.0
H575 H 0.36731 0.14704 0.60317 0.0
H576 H 0.39408 0.16714 0.65608 0.0
H577 H 0.40105 0.14736 0.55694 0.0
H578 H 0.45106 0.14252 0.58172 0.0
H579 H 0.48053 0.18328 0.57544 0.0
H580 H 0.80206 0.96837 0.01797 0.0
H581 H 0.83509 0.93585 0.07343 0.0
H582 H 0.88249 0.94783 0.83006 0.0
H583 H 0.85007 0.98024 0.77492 0.0
H584 H 0.84882 0.8873 0.98519 0.0
H585 H 0.93992 0.95449 0.02944 0.0
H586 H 0.90613 0.96737 0.01992 0.0
H587 H 0.92424 0.95739 0.91994 0.0
C588 C 0.81978 0.96444 0.97715 0.0
C589 C 0.82332 0.97691 0.89191 0.0
C590 C 0.83857 0.94576 0.00867 0.0
C591 C 0.86143 0.93958 0.95626 0.0
C592 C 0.86531 0.95256 0.87245 0.0
H593 H 0.9882 0.81844 0.99361 0.0
H594 H 0.95699 0.85279 0.9376 0.0
C595 C 0.84657 0.971 0.84076 0.0
C596 C 0.88039 0.91835 0.98563 0.0
H597 H 0.94711 0.90696 0.0317 0.0
C598 C 0.87026 0.89165 0.996 0.0
C599 C 0.90845 0.92396 0.99886 0.0
C600 C 0.92035 0.95239 0.99232 0.0
C601 C 0.88746 0.87041 0.0182 0.0
C602 C 0.91548 0.87602 0.03115 0.0
C603 C 0.92567 0.90267 0.02064 0.0
C604 C 0.93408 0.85483 0.0626 0.0
C605 C 0.87564 0.84201 0.02684 0.0
C606 C 0.93157 0.84475 0.15115 0.0
C607 C 0.94935 0.82548 0.18329 0.0
C608 C 0.9701 0.81563 0.12753 0.0
C609 C 0.9724 0.82548 0.0381 0.0
C610 C 0.95467 0.84514 0.00618 0.0
H611 H 0.85512 0.84004 0.99593 0.0
H612 H 0.88908 0.82723 0.99402 0.0
H613 H 0.87394 0.83663 0.09983 0.0
H614 H 0.91599 0.85209 0.19601 0.0
H615 H 0.94679 0.8183 0.25236 0.0
H616 H 0.04532 0.30261 0.36461 0.0
H617 H 0.0762 0.34188 0.37068 0.0
H618 H 0.05426 0.36327 0.09707 0.0
H619 H 0.02297 0.32377 0.08977 0.0
H620 H 0.12057 0.35042 0.24227 0.0
H621 H 0.04813 0.43486 0.2535 0.0
H622 H 0.03854 0.40059 0.2859 0.0
H623 H 0.04249 0.40914 0.1682 0.0
C624 C 0.04677 0.31568 0.30565 0.0
C625 C 0.03166 0.30993 0.22645 0.0
C626 C 0.06445 0.33815 0.30949 0.0
C627 C 0.06727 0.35548 0.23471 0.0
C628 C 0.05202 0.35021 0.15587 0.0
H629 H 0.19549 0.47218 0.12053 0.0
H630 H 0.15729 0.43983 0.11256 0.0
C631 C 0.03431 0.32758 0.1517 0.0
C632 C 0.08755 0.37799 0.23815 0.0
H633 H 0.09496 0.4469 0.24802 0.0
C634 C 0.11501 0.37151 0.24344 0.0
C635 C 0.08006 0.40539 0.24028 0.0
C636 C 0.05071 0.4131 0.23727 0.0
C637 C 0.13529 0.39183 0.25022 0.0
C638 C 0.12784 0.41921 0.25177 0.0
C639 C 0.10041 0.42579 0.24684 0.0
C640 C 0.14868 0.4411 0.25628 0.0
C641 C 0.16461 0.38404 0.25582 0.0
C642 C 0.156 0.45278 0.33986 0.0
C643 C 0.17797 0.47127 0.34508 0.0
C644 C 0.19291 0.47822 0.26662 0.0
C645 C 0.18466 0.46715 0.18252 0.0
C646 C 0.16276 0.44874 0.17753 0.0
H647 H 0.16683 0.36179 0.26188 0.0
H648 H 0.17548 0.39115 0.19388 0.0
H649 H 0.17455 0.39408 0.31511 0.0
H650 H 0.14528 0.44691 0.40131 0.0
H651 H 0.18371 0.47946 0.4108 0.0
H652 H 0.53513 0.70068 0.47645 0.0
H653 H 0.56706 0.66727 0.41945 0.0
H654 H 0.56432 0.62635 0.678 0.0
H655 H 0.53246 0.65892 0.73451 0.0
H656 H 0.61828 0.65677 0.48872 0.0
H657 H 0.55328 0.56354 0.5037 0.0
H658 H 0.5396 0.59701 0.5097 0.0
H659 H 0.55403 0.5818 0.60903 0.0
C660 C 0.54099 0.6843 0.52053 0.0
C661 C 0.53116 0.68261 0.61013 0.0
C662 C 0.55932 0.66528 0.48804 0.0
C663 C 0.56786 0.64404 0.54407 0.0
C664 C 0.55768 0.64213 0.63273 0.0
H665 H 0.69067 0.51912 0.51121 0.0
H666 H 0.65675 0.55107 0.56516 0.0
C667 C 0.53953 0.66103 0.66517 0.0
C668 C 0.5886 0.62475 0.51281 0.0
H669 H 0.60096 0.55726 0.48899 0.0
C670 C 0.61439 0.63504 0.48799 0.0
C671 C 0.58366 0.59632 0.51258 0.0
C672 C 0.55606 0.584 0.53433 0.0
C673 C 0.63544 0.61772 0.46457 0.0
C674 C 0.63055 0.58933 0.46515 0.0
C675 C 0.60478 0.579 0.48971 0.0
C676 C 0.65141 0.5702 0.43439 0.0
C677 C 0.66293 0.62987 0.4406 0.0
C678 C 0.65944 0.57022 0.34321 0.0
C679 C 0.67852 0.55204 0.31232 0.0
C680 C 0.69019 0.53327 0.37184 0.0
C681 C 0.68224 0.53333 0.46365 0.0
C682 C 0.66282 0.55152 0.49447 0.0
H683 H 0.66528 0.65121 0.464 0.0
H684 H 0.67936 0.61789 0.47092 0.0
H685 H 0.66547 0.6296 0.36573 0.0
H686 H 0.65069 0.5842 0.29544 0.0
H687 H 0.6841 0.55276 0.24121 0.0
loop_
_geom_bond_atom_site_label_1
_geom_bond_atom_site_label_2
_geom_bond_distance
_geom_bond_site_symmetry_2
_ccdc_geom_bond_type
Co0 O1 2.216 . S
Co0 O2 2.091 . S
Co0 O4 2.004 . S
Co0 O10 2.021 . S
Co0 O12 2.137 . S
Co0 O13 2.244 . S
O1 Co0 2.216 . S
O1 C8 1.247 . S
O2 Co0 2.091 . S
O2 C8 1.261 . S
C3 O12 1.247 . S
C3 O13 1.272 . S
O4 Co0 2.004 . S
O4 C9 1.259 . S
Co5 O6 2.061 . S
Co5 O11 2.052 . S
Co5 O13 2.135 . S
O6 Co5 2.061 . S
O6 C9 1.235 . S
C7 O10 1.238 . S
C7 O11 1.241 . S
C8 O1 1.247 . S
C8 O2 1.261 . S
C9 O4 1.259 . S
C9 O6 1.235 . S
O10 Co0 2.021 . S
O10 C7 1.238 . S
O11 Co5 2.052 . S
O11 C7 1.241 . S
O12 Co0 2.137 . S
O12 C3 1.247 . S
O13 Co0 2.244 . S
O13 C3 1.272 . S
O13 Co5 2.135 . S
Co14 O15 2.216 . S
Co14 O16 2.091 . S
Co14 O18 2.004 . S
Co14 O24 2.021 . S
Co14 O26 2.137 . S
Co14 O27 2.244 . S
O15 Co14 2.216 . S
O15 C22 1.247 . S
O16 Co14 2.091 . S
O16 C22 1.261 . S
C17 O26 1.247 . S
C17 O27 1.272 . S
O18 Co14 2.004 . S
O18 C23 1.259 . S
Co19 O20 2.061 . S
Co19 O25 2.052 . S
Co19 O27 2.135 . S
O20 Co19 2.061 . S
O20 C23 1.235 . S
C21 O24 1.238 . S
C21 O25 1.241 . S
C22 O15 1.247 . S
C22 O16 1.261 . S
C23 O18 1.259 . S
C23 O20 1.235 . S
O24 Co14 2.021 . S
O24 C21 1.238 . S
O25 Co19 2.052 . S
O25 C21 1.241 . S
O26 Co14 2.137 . S
O26 C17 1.247 . S
O27 Co14 2.244 . S
O27 C17 1.272 . S
O27 Co19 2.135 . S
Co28 O29 2.216 . S
Co28 O30 2.091 1_556 S
Co28 O32 2.004 . S
Co28 O38 2.021 1_565 S
Co28 O40 2.137 . S
Co28 O41 2.244 . S
O29 Co28 2.216 . S
O29 C36 1.247 . S
O30 Co28 2.091 1_554 S
O30 C36 1.261 1_554 S
C31 O40 1.247 . S
C31 O41 1.272 . S
O32 Co28 2.004 . S
O32 C37 1.259 1_565 S
Co33 O34 2.061 . S
Co33 O39 2.052 . S
Co33 O41 2.135 1_545 S
O34 Co33 2.061 . S
O34 C37 1.235 . S
C35 O38 1.238 . S
C35 O39 1.241 . S
C36 O29 1.247 . S
C36 O30 1.261 1_556 S
C37 O32 1.259 1_545 S
C37 O34 1.235 . S
O38 Co28 2.021 1_545 S
O38 C35 1.238 . S
O39 Co33 2.052 . S
O39 C35 1.241 . S
O40 Co28 2.137 . S
O40 C31 1.247 . S
O41 Co28 2.244 . S
O41 C31 1.272 . S
O41 Co33 2.135 1_565 S
Co42 O43 2.216 . S
Co42 O44 2.091 1_554 S
Co42 O46 2.004 . S
Co42 O52 2.021 1_455 S
Co42 O54 2.137 . S
Co42 O55 2.244 . S
O43 Co42 2.216 . S
O43 C50 1.247 . S
O44 Co42 2.091 1_556 S
O44 C50 1.261 1_556 S
C45 O54 1.247 . S
C45 O55 1.272 . S
O46 Co42 2.004 . S
O46 C51 1.259 1_455 S
Co47 O48 2.061 . S
Co47 O53 2.052 . S
Co47 O55 2.135 1_655 S
O48 Co47 2.061 . S
O48 C51 1.235 . S
C49 O52 1.238 . S
C49 O53 1.241 . S
C50 O43 1.247 . S
C50 O44 1.261 1_554 S
C51 O46 1.259 1_655 S
C51 O48 1.235 . S
O52 Co42 2.021 1_655 S
O52 C49 1.238 . S
O53 Co47 2.052 . S
O53 C49 1.241 . S
O54 Co42 2.137 . S
O54 C45 1.247 . S
O55 Co42 2.244 . S
O55 C45 1.272 . S
O55 Co47 2.135 1_455 S
Co56 O57 2.216 . S
Co56 O58 2.091 1_556 S
Co56 O60 2.004 . S
Co56 O66 2.021 1_545 S
Co56 O68 2.137 . S
Co56 O69 2.244 . S
O57 Co56 2.216 . S
O57 C64 1.247 . S
O58 Co56 2.091 1_554 S
O58 C64 1.261 1_554 S
C59 O68 1.247 . S
C59 O69 1.272 . S
O60 Co56 2.004 . S
O60 C65 1.259 1_545 S
Co61 O62 2.061 . S
Co61 O67 2.052 . S
Co61 O69 2.135 1_565 S
O62 Co61 2.061 . S
O62 C65 1.235 . S
C63 O66 1.238 . S
C63 O67 1.241 . S
C64 O57 1.247 . S
C64 O58 1.261 1_556 S
C65 O60 1.259 1_565 S
C65 O62 1.235 . S
O66 Co56 2.021 1_565 S
O66 C63 1.238 . S
O67 Co61 2.052 . S
O67 C63 1.241 . S
O68 Co56 2.137 . S
O68 C59 1.247 . S
O69 Co56 2.244 . S
O69 C59 1.272 . S
O69 Co61 2.135 1_545 S
Co70 O71 2.216 . S
Co70 O72 2.091 1_554 S
Co70 O74 2.004 . S
Co70 O80 2.021 1_655 S
Co70 O82 2.137 . S
Co70 O83 2.244 . S
O71 Co70 2.216 . S
O71 C78 1.247 . S
O72 Co70 2.091 1_556 S
O72 C78 1.261 1_556 S
C73 O82 1.247 . S
C73 O83 1.272 . S
O74 Co70 2.004 . S
O74 C79 1.259 1_655 S
Co75 O76 2.061 . S
Co75 O81 2.052 . S
Co75 O83 2.135 1_455 S
O76 Co75 2.061 . S
O76 C79 1.235 . S
C77 O80 1.238 . S
C77 O81 1.241 . S
C78 O71 1.247 . S
C78 O72 1.261 1_554 S
C79 O74 1.259 1_455 S
C79 O76 1.235 . S
O80 Co70 2.021 1_455 S
O80 C77 1.238 . S
O81 Co75 2.052 . S
O81 C77 1.241 . S
O82 Co70 2.137 . S
O82 C73 1.247 . S
O83 Co70 2.244 . S
O83 C73 1.272 . S
O83 Co75 2.135 1_655 S
Co84 O85 2.216 . S
Co84 O86 2.091 . S
Co84 O88 2.004 . S
Co84 O94 2.021 . S
Co84 O96 2.137 . S
Co84 O97 2.244 . S
O85 Co84 2.216 . S
O85 C92 1.247 . S
O86 Co84 2.091 . S
O86 C92 1.261 . S
C87 O96 1.247 . S
C87 O97 1.272 . S
O88 Co84 2.004 . S
O88 C93 1.259 . S
Co89 O90 2.061 . S
Co89 O95 2.052 . S
Co89 O97 2.135 . S
O90 Co89 2.061 . S
O90 C93 1.235 . S
C91 O94 1.238 . S
C91 O95 1.241 . S
C92 O85 1.247 . S
C92 O86 1.261 . S
C93 O88 1.259 . S
C93 O90 1.235 . S
O94 Co84 2.021 . S
O94 C91 1.238 . S
O95 Co89 2.052 . S
O95 C91 1.241 . S
O96 Co84 2.137 . S
O96 C87 1.247 . S
O97 Co84 2.244 . S
O97 C87 1.272 . S
O97 Co89 2.135 . S
Co98 O99 2.216 . S
Co98 O100 2.091 . S
Co98 O102 2.004 . S
Co98 O108 2.021 . S
Co98 O110 2.137 . S
Co98 O111 2.244 . S
O99 Co98 2.216 . S
O99 C106 1.247 . S
O100 Co98 2.091 . S
O100 C106 1.261 . S
C101 O110 1.247 . S
C101 O111 1.272 . S
O102 Co98 2.004 . S
O102 C107 1.259 . S
Co103 O104 2.061 . S
Co103 O109 2.052 . S
Co103 O111 2.135 . S
O104 Co103 2.061 . S
O104 C107 1.235 . S
C105 O108 1.238 . S
C105 O109 1.241 . S
C106 O99 1.247 . S
C106 O100 1.261 . S
C107 O102 1.259 . S
C107 O104 1.235 . S
O108 Co98 2.021 . S
O108 C105 1.238 . S
O109 Co103 2.052 . S
O109 C105 1.241 . S
O110 Co98 2.137 . S
O110 C101 1.247 . S
O111 Co98 2.244 . S
O111 C101 1.272 . S
O111 Co103 2.135 . S
H112 C120 0.929 . S
H113 C122 0.930 . S
H114 C124 0.930 . S
H115 C127 0.929 . S
H116 C130 0.930 . S
H117 C132 0.960 . S
H118 C132 0.960 . S
H119 C132 0.960 . S
C120 H112 0.929 . S
C120 C121 1.377 . S
C120 C122 1.384 . S
C121 C120 1.377 . S
C121 C127 1.390 . S
C122 H113 0.930 . S
C122 C120 1.384 . S
C122 C123 1.372 . S
C123 C122 1.372 . S
C123 C124 1.400 . S
C123 C128 1.490 . S
C124 H114 0.930 . S
C124 C123 1.400 . S
C124 C127 1.386 . S
H125 C141 0.930 . S
H126 C142 0.931 . S
C127 H115 0.929 . S
C127 C121 1.390 . S
C127 C124 1.386 . S
C128 C123 1.490 . S
C128 C130 1.395 . S
C128 C131 1.403 1_556 S
H129 C135 0.930 . S
C130 H116 0.930 . S
C130 C128 1.395 . S
C130 C133 1.403 . S
C131 C128 1.403 1_554 S
C131 C132 1.524 . S
C131 C135 1.400 . S
C132 H117 0.960 . S
C132 H118 0.960 . S
C132 H119 0.960 . S
C132 C131 1.524 . S
C133 C130 1.403 . S
C133 C134 1.392 1_556 S
C133 C137 1.495 . S
C134 C133 1.392 1_554 S
C134 C135 1.385 . S
C134 C136 1.478 . S
C135 H129 0.930 . S
C135 C131 1.400 . S
C135 C134 1.385 . S
C136 C134 1.478 . S
C136 C138 1.381 . S
C136 C142 1.383 . S
C137 C133 1.495 . S
C137 H143 0.959 . S
C137 H144 0.961 . S
C137 H145 0.960 . S
C138 C136 1.381 . S
C138 C139 1.394 . S
C138 H146 0.930 . S
C139 C138 1.394 . S
C139 C140 1.383 . S
C139 H147 0.929 . S
C140 C139 1.383 . S
C140 C141 1.377 . S
C141 H125 0.930 . S
C141 C140 1.377 . S
C141 C142 1.379 . S
C142 H126 0.931 . S
C142 C136 1.383 . S
C142 C141 1.379 . S
H143 C137 0.959 . S
H144 C137 0.961 . S
H145 C137 0.960 . S
H146 C138 0.930 . S
H147 C139 0.929 . S
H148 C156 0.929 . S
H149 C158 0.930 . S
H150 C160 0.930 . S
H151 C163 0.929 . S
H152 C166 0.930 . S
H153 C168 0.960 . S
H154 C168 0.960 . S
H155 C168 0.960 . S
C156 H148 0.929 . S
C156 C157 1.377 . S
C156 C158 1.384 . S
C157 C156 1.377 . S
C157 C163 1.390 . S
C158 H149 0.930 . S
C158 C156 1.384 . S
C158 C159 1.372 . S
C159 C158 1.372 . S
C159 C160 1.400 . S
C159 C164 1.490 . S
C160 H150 0.930 . S
C160 C159 1.400 . S
C160 C163 1.386 . S
H161 C177 0.930 1_556 S
H162 C178 0.931 . S
C163 H151 0.929 . S
C163 C157 1.390 . S
C163 C160 1.386 . S
C164 C159 1.490 . S
C164 C166 1.395 . S
C164 C167 1.403 . S
H165 C171 0.930 . S
C166 H152 0.930 . S
C166 C164 1.395 . S
C166 C169 1.403 . S
C167 C164 1.403 . S
C167 C168 1.524 . S
C167 C171 1.400 . S
C168 H153 0.960 . S
C168 H154 0.960 . S
C168 H155 0.960 . S
C168 C167 1.524 . S
C169 C166 1.403 . S
C169 C170 1.392 . S
C169 C173 1.495 . S
C170 C169 1.392 . S
C170 C171 1.385 . S
C170 C172 1.478 . S
C171 H165 0.930 . S
C171 C167 1.400 . S
C171 C170 1.385 . S
C172 C170 1.478 . S
C172 C174 1.381 . S
C172 C178 1.383 . S
C173 C169 1.495 . S
C173 H179 0.959 . S
C173 H180 0.961 . S
C173 H181 0.960 . S
C174 C172 1.381 . S
C174 C175 1.394 . S
C174 H182 0.930 . S
C175 C174 1.394 . S
C175 C176 1.383 . S
C175 H183 0.929 . S
C176 C175 1.383 . S
C176 C177 1.377 . S
C177 H161 0.930 1_554 S
C177 C176 1.377 . S
C177 C178 1.379 . S
C178 H162 0.931 . S
C178 C172 1.383 . S
C178 C177 1.379 . S
H179 C173 0.959 . S
H180 C173 0.961 . S
H181 C173 0.960 . S
H182 C174 0.930 . S
H183 C175 0.929 . S
H184 C192 0.929 . S
H185 C194 0.930 . S
H186 C196 0.930 . S
H187 C199 0.929 . S
H188 C202 0.930 . S
H189 C204 0.960 . S
H190 C204 0.960 . S
H191 C204 0.960 . S
C192 H184 0.929 . S
C192 C193 1.377 . S
C192 C194 1.384 . S
C193 C192 1.377 . S
C193 C199 1.390 . S
C194 H185 0.930 . S
C194 C192 1.384 . S
C194 C195 1.372 . S
C195 C194 1.372 . S
C195 C196 1.400 . S
C195 C200 1.490 . S
C196 H186 0.930 . S
C196 C195 1.400 . S
C196 C199 1.386 . S
H197 C213 0.930 . S
H198 C214 0.931 . S
C199 H187 0.929 . S
C199 C193 1.390 . S
C199 C196 1.386 . S
C200 C195 1.490 . S
C200 C202 1.395 . S
C200 C203 1.403 . S
H201 C207 0.930 . S
C202 H188 0.930 . S
C202 C200 1.395 . S
C202 C205 1.403 . S
C203 C200 1.403 . S
C203 C204 1.524 . S
C203 C207 1.400 . S
C204 H189 0.960 . S
C204 H190 0.960 . S
C204 H191 0.960 . S
C204 C203 1.524 . S
C205 C202 1.403 . S
C205 C206 1.392 . S
C205 C209 1.495 . S
C206 C205 1.392 . S
C206 C207 1.385 . S
C206 C208 1.478 . S
C207 H201 0.930 . S
C207 C203 1.400 . S
C207 C206 1.385 . S
C208 C206 1.478 . S
C208 C210 1.381 . S
C208 C214 1.383 . S
C209 C205 1.495 . S
C209 H215 0.959 . S
C209 H216 0.961 . S
C209 H217 0.960 . S
C210 C208 1.381 . S
C210 C211 1.394 . S
C210 H218 0.930 . S
C211 C210 1.394 . S
C211 C212 1.383 . S
C211 H219 0.929 . S
C212 C211 1.383 . S
C212 C213 1.377 . S
C213 H197 0.930 . S
C213 C212 1.377 . S
C213 C214 1.379 . S
C214 H198 0.931 . S
C214 C208 1.383 . S
C214 C213 1.379 . S
H215 C209 0.959 . S
H216 C209 0.961 . S
H217 C209 0.960 . S
H218 C210 0.930 . S
H219 C211 0.929 . S
H220 C228 0.929 1_554 S
H221 C230 0.930 . S
H222 C232 0.930 . S
H223 C235 0.929 . S
H224 C238 0.930 . S
H225 C240 0.960 . S
H226 C240 0.960 . S
H227 C240 0.960 . S
C228 H220 0.929 1_556 S
C228 C229 1.377 . S
C228 C230 1.384 . S
C229 C228 1.377 . S
C229 C235 1.390 . S
C230 H221 0.930 . S
C230 C228 1.384 . S
C230 C231 1.372 . S
C231 C230 1.372 . S
C231 C232 1.400 . S
C231 C236 1.490 . S
C232 H222 0.930 . S
C232 C231 1.400 . S
C232 C235 1.386 . S
H233 C249 0.930 . S
H234 C250 0.931 . S
C235 H223 0.929 . S
C235 C229 1.390 . S
C235 C232 1.386 . S
C236 C231 1.490 . S
C236 C238 1.395 . S
C236 C239 1.403 . S
H237 C243 0.930 . S
C238 H224 0.930 . S
C238 C236 1.395 . S
C238 C241 1.403 . S
C239 C236 1.403 . S
C239 C240 1.524 . S
C239 C243 1.400 . S
C240 H225 0.960 . S
C240 H226 0.960 . S
C240 H227 0.960 . S
C240 C239 1.524 . S
C241 C238 1.403 . S
C241 C242 1.392 . S
C241 C245 1.495 . S
C242 C241 1.392 . S
C242 C243 1.385 . S
C242 C244 1.478 . S
C243 H237 0.930 . S
C243 C239 1.400 . S
C243 C242 1.385 . S
C244 C242 1.478 . S
C244 C246 1.381 . S
C244 C250 1.383 . S
C245 C241 1.495 . S
C245 H251 0.959 . S
C245 H252 0.961 . S
C245 H253 0.960 . S
C246 C244 1.381 . S
C246 C247 1.394 . S
C246 H254 0.930 . S
C247 C246 1.394 . S
C247 C248 1.383 . S
C247 H255 0.929 . S
C248 C247 1.383 . S
C248 C249 1.377 . S
C249 H233 0.930 . S
C249 C248 1.377 . S
C249 C250 1.379 . S
C250 H234 0.931 . S
C250 C244 1.383 . S
C250 C249 1.379 . S
H251 C245 0.959 . S
H252 C245 0.961 . S
H253 C245 0.960 . S
H254 C246 0.930 . S
H255 C247 0.929 . S
H256 C264 0.929 . S
H257 C266 0.930 . S
H258 C268 0.930 . S
H259 C271 0.929 . S
H260 C274 0.930 . S
H261 C276 0.960 . S
H262 C276 0.960 . S
H263 C276 0.960 . S
C264 H256 0.929 . S
C264 C265 1.377 . S
C264 C266 1.384 . S
C265 C264 1.377 . S
C265 C271 1.390 . S
C266 H257 0.930 . S
C266 C264 1.384 . S
C266 C267 1.372 . S
C267 C266 1.372 . S
C267 C268 1.400 . S
C267 C272 1.490 . S
C268 H258 0.930 . S
C268 C267 1.400 . S
C268 C271 1.386 . S
H269 C285 0.930 . S
H270 C286 0.931 . S
C271 H259 0.929 . S
C271 C265 1.390 . S
C271 C268 1.386 . S
C272 C267 1.490 . S
C272 C274 1.395 . S
C272 C275 1.403 . S
H273 C279 0.930 . S
C274 H260 0.930 . S
C274 C272 1.395 . S
C274 C277 1.403 . S
C275 C272 1.403 . S
C275 C276 1.524 . S
C275 C279 1.400 . S
C276 H261 0.960 . S
C276 H262 0.960 . S
C276 H263 0.960 . S
C276 C275 1.524 . S
C277 C274 1.403 . S
C277 C278 1.392 . S
C277 C281 1.495 . S
C278 C277 1.392 . S
C278 C279 1.385 . S
C278 C280 1.478 . S
C279 H273 0.930 . S
C279 C275 1.400 . S
C279 C278 1.385 . S
C280 C278 1.478 . S
C280 C282 1.381 . S
C280 C286 1.383 . S
C281 C277 1.495 . S
C281 H287 0.959 . S
C281 H288 0.961 . S
C281 H289 0.960 . S
C282 C280 1.381 . S
C282 C283 1.394 . S
C282 H290 0.930 . S
C283 C282 1.394 . S
C283 C284 1.383 . S
C283 H291 0.929 . S
C284 C283 1.383 . S
C284 C285 1.377 . S
C285 H269 0.930 . S
C285 C284 1.377 . S
C285 C286 1.379 . S
C286 H270 0.931 . S
C286 C280 1.383 . S
C286 C285 1.379 . S
H287 C281 0.959 . S
H288 C281 0.961 . S
H289 C281 0.960 . S
H290 C282 0.930 . S
H291 C283 0.929 . S
H292 C300 0.929 1_554 S
H293 C302 0.930 . S
H294 C304 0.930 . S
H295 C307 0.929 . S
H296 C310 0.930 . S
H297 C312 0.960 . S
H298 C312 0.960 . S
H299 C312 0.960 . S
C300 H292 0.929 1_556 S
C300 C301 1.377 . S
C300 C302 1.384 . S
C301 C300 1.377 . S
C301 C307 1.390 . S
C302 H293 0.930 . S
C302 C300 1.384 . S
C302 C303 1.372 . S
C303 C302 1.372 . S
C303 C304 1.400 . S
C303 C308 1.490 . S
C304 H294 0.930 . S
C304 C303 1.400 . S
C304 C307 1.386 . S
H305 C321 0.930 . S
H306 C322 0.931 . S
C307 H295 0.929 . S
C307 C301 1.390 . S
C307 C304 1.386 . S
C308 C303 1.490 . S
C308 C310 1.395 . S
C308 C311 1.403 . S
H309 C315 0.930 . S
C310 H296 0.930 . S
C310 C308 1.395 . S
C310 C313 1.403 . S
C311 C308 1.403 . S
C311 C312 1.524 . S
C311 C315 1.400 . S
C312 H297 0.960 . S
C312 H298 0.960 . S
C312 H299 0.960 . S
C312 C311 1.524 . S
C313 C310 1.403 . S
C313 C314 1.392 . S
C313 C317 1.495 . S
C314 C313 1.392 . S
C314 C315 1.385 . S
C314 C316 1.478 . S
C315 H309 0.930 . S
C315 C311 1.400 . S
C315 C314 1.385 . S
C316 C314 1.478 . S
C316 C318 1.381 . S
C316 C322 1.383 . S
C317 C313 1.495 . S
C317 H323 0.959 . S
C317 H324 0.961 . S
C317 H325 0.960 . S
C318 C316 1.381 . S
C318 C319 1.394 . S
C318 H326 0.930 . S
C319 C318 1.394 . S
C319 C320 1.383 . S
C319 H327 0.929 . S
C320 C319 1.383 . S
C320 C321 1.377 . S
C321 H305 0.930 . S
C321 C320 1.377 . S
C321 C322 1.379 . S
C322 H306 0.931 . S
C322 C316 1.383 . S
C322 C321 1.379 . S
H323 C317 0.959 . S
H324 C317 0.961 . S
H325 C317 0.960 . S
H326 C318 0.930 . S
H327 C319 0.929 . S
H328 C336 0.929 . S
H329 C338 0.930 . S
H330 C340 0.930 . S
H331 C343 0.929 . S
H332 C346 0.930 . S
H333 C348 0.960 . S
H334 C348 0.960 . S
H335 C348 0.960 . S
C336 H328 0.929 . S
C336 C337 1.377 . S
C336 C338 1.384 . S
C337 C336 1.377 . S
C337 C343 1.390 . S
C338 H329 0.930 . S
C338 C336 1.384 . S
C338 C339 1.372 . S
C339 C338 1.372 . S
C339 C340 1.400 . S
C339 C344 1.490 . S
C340 H330 0.930 . S
C340 C339 1.400 . S
C340 C343 1.386 . S
H341 C357 0.930 . S
H342 C358 0.931 . S
C343 H331 0.929 . S
C343 C337 1.390 . S
C343 C340 1.386 . S
C344 C339 1.490 . S
C344 C346 1.395 1_554 S
C344 C347 1.403 . S
H345 C351 0.930 . S
C346 H332 0.930 . S
C346 C344 1.395 1_556 S
C346 C349 1.403 . S
C347 C344 1.403 . S
C347 C348 1.524 . S
C347 C351 1.400 . S
C348 H333 0.960 . S
C348 H334 0.960 . S
C348 H335 0.960 . S
C348 C347 1.524 . S
C349 C346 1.403 . S
C349 C350 1.392 . S
C349 C353 1.495 . S
C350 C349 1.392 . S
C350 C351 1.385 1_556 S
C350 C352 1.478 . S
C351 H345 0.930 . S
C351 C347 1.400 . S
C351 C350 1.385 1_554 S
C352 C350 1.478 . S
C352 C354 1.381 . S
C352 C358 1.383 . S
C353 C349 1.495 . S
C353 H359 0.959 . S
C353 H360 0.961 . S
C353 H361 0.960 . S
C354 C352 1.381 . S
C354 C355 1.394 . S
C354 H362 0.930 . S
C355 C354 1.394 . S
C355 C356 1.383 . S
C355 H363 0.929 . S
C356 C355 1.383 . S
C356 C357 1.377 . S
C357 H341 0.930 . S
C357 C356 1.377 . S
C357 C358 1.379 . S
C358 H342 0.931 . S
C358 C352 1.383 . S
C358 C357 1.379 . S
H359 C353 0.959 . S
H360 C353 0.961 . S
H361 C353 0.960 . S
H362 C354 0.930 . S
H363 C355 0.929 . S
H364 C372 0.929 . S
H365 C374 0.930 . S
H366 C376 0.930 . S
H367 C379 0.929 1_556 S
H368 C382 0.930 . S
H369 C384 0.960 . S
H370 C384 0.960 . S
H371 C384 0.960 . S
C372 H364 0.929 . S
C372 C373 1.377 . S
C372 C374 1.384 . S
C373 C372 1.377 . S
C373 C379 1.390 . S
C374 H365 0.930 . S
C374 C372 1.384 . S
C374 C375 1.372 . S
C375 C374 1.372 . S
C375 C376 1.400 . S
C375 C380 1.490 . S
C376 H366 0.930 . S
C376 C375 1.400 . S
C376 C379 1.386 . S
H377 C393 0.930 . S
H378 C394 0.931 . S
C379 H367 0.929 1_554 S
C379 C373 1.390 . S
C379 C376 1.386 . S
C380 C375 1.490 . S
C380 C382 1.395 . S
C380 C383 1.403 . S
H381 C387 0.930 . S
C382 H368 0.930 . S
C382 C380 1.395 . S
C382 C385 1.403 . S
C383 C380 1.403 . S
C383 C384 1.524 . S
C383 C387 1.400 . S
C384 H369 0.960 . S
C384 H370 0.960 . S
C384 H371 0.960 . S
C384 C383 1.524 . S
C385 C382 1.403 . S
C385 C386 1.392 . S
C385 C389 1.495 . S
C386 C385 1.392 . S
C386 C387 1.385 . S
C386 C388 1.478 . S
C387 H381 0.930 . S
C387 C383 1.400 . S
C387 C386 1.385 . S
C388 C386 1.478 . S
C388 C390 1.381 . S
C388 C394 1.383 . S
C389 C385 1.495 . S
C389 H395 0.959 . S
C389 H396 0.961 . S
C389 H397 0.960 . S
C390 C388 1.381 . S
C390 C391 1.394 . S
C390 H398 0.930 . S
C391 C390 1.394 . S
C391 C392 1.383 . S
C391 H399 0.929 . S
C392 C391 1.383 . S
C392 C393 1.377 . S
C393 H377 0.930 . S
C393 C392 1.377 . S
C393 C394 1.379 . S
C394 H378 0.931 . S
C394 C388 1.383 . S
C394 C393 1.379 . S
H395 C389 0.959 . S
H396 C389 0.961 . S
H397 C389 0.960 . S
H398 C390 0.930 . S
H399 C391 0.929 . S
H400 C408 0.929 . S
H401 C410 0.930 . S
H402 C412 0.930 . S
H403 C415 0.929 . S
H404 C418 0.930 . S
H405 C420 0.960 . S
H406 C420 0.960 . S
H407 C420 0.960 . S
C408 H400 0.929 . S
C408 C409 1.377 . S
C408 C410 1.384 . S
C409 C408 1.377 . S
C409 C415 1.390 . S
C410 H401 0.930 . S
C410 C408 1.384 . S
C410 C411 1.372 . S
C411 C410 1.372 . S
C411 C412 1.400 . S
C411 C416 1.490 . S
C412 H402 0.930 . S
C412 C411 1.400 . S
C412 C415 1.386 . S
H413 C429 0.930 . S
H414 C430 0.931 . S
C415 H403 0.929 . S
C415 C409 1.390 . S
C415 C412 1.386 . S
C416 C411 1.490 . S
C416 C418 1.395 . S
C416 C419 1.403 . S
H417 C423 0.930 . S
C418 H404 0.930 . S
C418 C416 1.395 . S
C418 C421 1.403 . S
C419 C416 1.403 . S
C419 C420 1.524 . S
C419 C423 1.400 . S
C420 H405 0.960 . S
C420 H406 0.960 . S
C420 H407 0.960 . S
C420 C419 1.524 . S
C421 C418 1.403 . S
C421 C422 1.392 . S
C421 C425 1.495 . S
C422 C421 1.392 . S
C422 C423 1.385 . S
C422 C424 1.478 . S
C423 H417 0.930 . S
C423 C419 1.400 . S
C423 C422 1.385 . S
C424 C422 1.478 . S
C424 C426 1.381 . S
C424 C430 1.383 . S
C425 C421 1.495 . S
C425 H431 0.959 . S
C425 H432 0.961 . S
C425 H433 0.960 . S
C426 C424 1.381 . S
C426 C427 1.394 . S
C426 H434 0.930 . S
C427 C426 1.394 . S
C427 C428 1.383 . S
C427 H435 0.929 . S
C428 C427 1.383 . S
C428 C429 1.377 . S
C429 H413 0.930 . S
C429 C428 1.377 . S
C429 C430 1.379 . S
C430 H414 0.931 . S
C430 C424 1.383 . S
C430 C429 1.379 . S
H431 C425 0.959 . S
H432 C425 0.961 . S
H433 C425 0.960 . S
H434 C426 0.930 . S
H435 C427 0.929 . S
H436 C444 0.929 . S
H437 C446 0.930 . S
H438 C448 0.930 . S
H439 C451 0.929 . S
H440 C454 0.930 . S
H441 C456 0.960 . S
H442 C456 0.960 . S
H443 C456 0.960 . S
C444 H436 0.929 . S
C444 C445 1.377 . S
C444 C446 1.384 . S
C445 C444 1.377 . S
C445 C451 1.390 . S
C446 H437 0.930 . S
C446 C444 1.384 . S
C446 C447 1.372 . S
C447 C446 1.372 . S
C447 C448 1.400 . S
C447 C452 1.490 . S
C448 H438 0.930 . S
C448 C447 1.400 . S
C448 C451 1.386 . S
H449 C465 0.930 . S
H450 C466 0.931 . S
C451 H439 0.929 . S
C451 C445 1.390 . S
C451 C448 1.386 . S
C452 C447 1.490 . S
C452 C454 1.395 . S
C452 C455 1.403 . S
H453 C459 0.930 . S
C454 H440 0.930 . S
C454 C452 1.395 . S
C454 C457 1.403 . S
C455 C452 1.403 . S
C455 C456 1.524 . S
C455 C459 1.400 . S
C456 H441 0.960 . S
C456 H442 0.960 . S
C456 H443 0.960 . S
C456 C455 1.524 . S
C457 C454 1.403 . S
C457 C458 1.392 . S
C457 C461 1.495 . S
C458 C457 1.392 . S
C458 C459 1.385 . S
C458 C460 1.478 . S
C459 H453 0.930 . S
C459 C455 1.400 . S
C459 C458 1.385 . S
C460 C458 1.478 . S
C460 C462 1.381 . S
C460 C466 1.383 . S
C461 C457 1.495 . S
C461 H467 0.959 . S
C461 H468 0.961 . S
C461 H469 0.960 . S
C462 C460 1.381 . S
C462 C463 1.394 . S
C462 H470 0.930 . S
C463 C462 1.394 . S
C463 C464 1.383 . S
C463 H471 0.929 . S
C464 C463 1.383 . S
C464 C465 1.377 . S
C465 H449 0.930 . S
C465 C464 1.377 . S
C465 C466 1.379 . S
C466 H450 0.931 . S
C466 C460 1.383 . S
C466 C465 1.379 . S
H467 C461 0.959 . S
H468 C461 0.961 . S
H469 C461 0.960 . S
H470 C462 0.930 . S
H471 C463 0.929 . S
H472 C480 0.929 . S
H473 C482 0.930 . S
H474 C484 0.930 . S
H475 C487 0.929 . S
H476 C490 0.930 . S
H477 C492 0.960 . S
H478 C492 0.960 . S
H479 C492 0.960 . S
C480 H472 0.929 . S
C480 C481 1.377 1_556 S
C480 C482 1.384 . S
C481 C480 1.377 1_554 S
C481 C487 1.390 . S
C482 H473 0.930 . S
C482 C480 1.384 . S
C482 C483 1.372 1_556 S
C483 C482 1.372 1_554 S
C483 C484 1.400 . S
C483 C488 1.490 . S
C484 H474 0.930 . S
C484 C483 1.400 . S
C484 C487 1.386 . S
H485 C501 0.930 . S
H486 C502 0.931 . S
C487 H475 0.929 . S
C487 C481 1.390 . S
C487 C484 1.386 . S
C488 C483 1.490 . S
C488 C490 1.395 . S
C488 C491 1.403 1_554 S
H489 C495 0.930 . S
C490 H476 0.930 . S
C490 C488 1.395 . S
C490 C493 1.403 . S
C491 C488 1.403 1_556 S
C491 C492 1.524 . S
C491 C495 1.400 . S
C492 H477 0.960 . S
C492 H478 0.960 . S
C492 H479 0.960 . S
C492 C491 1.524 . S
C493 C490 1.403 . S
C493 C494 1.392 1_554 S
C493 C497 1.495 . S
C494 C493 1.392 1_556 S
C494 C495 1.385 . S
C494 C496 1.478 . S
C495 H489 0.930 . S
C495 C491 1.400 . S
C495 C494 1.385 . S
C496 C494 1.478 . S
C496 C498 1.381 . S
C496 C502 1.383 1_556 S
C497 C493 1.495 . S
C497 H503 0.959 . S
C497 H504 0.961 . S
C497 H505 0.960 . S
C498 C496 1.381 . S
C498 C499 1.394 . S
C498 H506 0.930 . S
C499 C498 1.394 . S
C499 C500 1.383 . S
C499 H507 0.929 . S
C500 C499 1.383 . S
C500 C501 1.377 1_556 S
C501 H485 0.930 . S
C501 C500 1.377 1_554 S
C501 C502 1.379 . S
C502 H486 0.931 . S
C502 C496 1.383 1_554 S
C502 C501 1.379 . S
H503 C497 0.959 . S
H504 C497 0.961 . S
H505 C497 0.960 . S
H506 C498 0.930 . S
H507 C499 0.929 . S
H508 C516 0.929 . S
H509 C518 0.930 . S
H510 C520 0.930 . S
H511 C523 0.929 . S
H512 C526 0.930 . S
H513 C528 0.960 . S
H514 C528 0.960 . S
H515 C528 0.960 . S
C516 H508 0.929 . S
C516 C517 1.377 . S
C516 C518 1.384 . S
C517 C516 1.377 . S
C517 C523 1.390 . S
C518 H509 0.930 . S
C518 C516 1.384 . S
C518 C519 1.372 . S
C519 C518 1.372 . S
C519 C520 1.400 . S
C519 C524 1.490 . S
C520 H510 0.930 . S
C520 C519 1.400 . S
C520 C523 1.386 . S
H521 C537 0.930 . S
H522 C538 0.931 . S
C523 H511 0.929 . S
C523 C517 1.390 . S
C523 C520 1.386 . S
C524 C519 1.490 . S
C524 C526 1.395 . S
C524 C527 1.403 . S
H525 C531 0.930 . S
C526 H512 0.930 . S
C526 C524 1.395 . S
C526 C529 1.403 . S
C527 C524 1.403 . S
C527 C528 1.524 . S
C527 C531 1.400 . S
C528 H513 0.960 . S
C528 H514 0.960 . S
C528 H515 0.960 . S
C528 C527 1.524 . S
C529 C526 1.403 . S
C529 C530 1.392 . S
C529 C533 1.495 . S
C530 C529 1.392 . S
C530 C531 1.385 . S
C530 C532 1.478 . S
C531 H525 0.930 . S
C531 C527 1.400 . S
C531 C530 1.385 . S
C532 C530 1.478 . S
C532 C534 1.381 . S
C532 C538 1.383 . S
C533 C529 1.495 . S
C533 H539 0.959 . S
C533 H540 0.961 . S
C533 H541 0.960 . S
C534 C532 1.381 . S
C534 C535 1.394 . S
C534 H542 0.930 . S
C535 C534 1.394 . S
C535 C536 1.383 . S
C535 H543 0.929 . S
C536 C535 1.383 . S
C536 C537 1.377 . S
C537 H521 0.930 . S
C537 C536 1.377 . S
C537 C538 1.379 . S
C538 H522 0.931 . S
C538 C532 1.383 . S
C538 C537 1.379 . S
H539 C533 0.959 . S
H540 C533 0.961 . S
H541 C533 0.960 . S
H542 C534 0.930 . S
H543 C535 0.929 . S
H544 C552 0.929 . S
H545 C554 0.930 . S
H546 C556 0.930 . S
H547 C559 0.929 . S
H548 C562 0.930 . S
H549 C564 0.960 . S
H550 C564 0.960 . S
H551 C564 0.960 . S
C552 H544 0.929 . S
C552 C553 1.377 . S
C552 C554 1.384 . S
C553 C552 1.377 . S
C553 C559 1.390 . S
C554 H545 0.930 . S
C554 C552 1.384 . S
C554 C555 1.372 . S
C555 C554 1.372 . S
C555 C556 1.400 . S
C555 C560 1.490 . S
C556 H546 0.930 . S
C556 C555 1.400 . S
C556 C559 1.386 . S
H557 C573 0.930 . S
H558 C574 0.931 . S
C559 H547 0.929 . S
C559 C553 1.390 . S
C559 C556 1.386 . S
C560 C555 1.490 . S
C560 C562 1.395 . S
C560 C563 1.403 . S
H561 C567 0.930 . S
C562 H548 0.930 . S
C562 C560 1.395 . S
C562 C565 1.403 . S
C563 C560 1.403 . S
C563 C564 1.524 . S
C563 C567 1.400 . S
C564 H549 0.960 . S
C564 H550 0.960 . S
C564 H551 0.960 . S
C564 C563 1.524 . S
C565 C562 1.403 . S
C565 C566 1.392 . S
C565 C569 1.495 . S
C566 C565 1.392 . S
C566 C567 1.385 . S
C566 C568 1.478 . S
C567 H561 0.930 . S
C567 C563 1.400 . S
C567 C566 1.385 . S
C568 C566 1.478 . S
C568 C570 1.381 . S
C568 C574 1.383 . S
C569 C565 1.495 . S
C569 H575 0.959 . S
C569 H576 0.961 . S
C569 H577 0.960 . S
C570 C568 1.381 . S
C570 C571 1.394 . S
C570 H578 0.930 . S
C571 C570 1.394 . S
C571 C572 1.383 . S
C571 H579 0.929 . S
C572 C571 1.383 . S
C572 C573 1.377 . S
C573 H557 0.930 . S
C573 C572 1.377 . S
C573 C574 1.379 . S
C574 H558 0.931 . S
C574 C568 1.383 . S
C574 C573 1.379 . S
H575 C569 0.959 . S
H576 C569 0.961 . S
H577 C569 0.960 . S
H578 C570 0.930 . S
H579 C571 0.929 . S
H580 C588 0.929 . S
H581 C590 0.930 1_554 S
H582 C592 0.930 . S
H583 C595 0.929 . S
H584 C598 0.930 . S
H585 C600 0.960 . S
H586 C600 0.960 . S
H587 C600 0.960 . S
C588 H580 0.929 . S
C588 C589 1.377 . S
C588 C590 1.384 . S
C589 C588 1.377 . S
C589 C595 1.390 . S
C590 H581 0.930 1_556 S
C590 C588 1.384 . S
C590 C591 1.372 . S
C591 C590 1.372 . S
C591 C592 1.400 . S
C591 C596 1.490 . S
C592 H582 0.930 . S
C592 C591 1.400 . S
C592 C595 1.386 . S
H593 C609 0.930 1_556 S
H594 C610 0.931 . S
C595 H583 0.929 . S
C595 C589 1.390 . S
C595 C592 1.386 . S
C596 C591 1.490 . S
C596 C598 1.395 . S
C596 C599 1.403 1_556 S
H597 C603 0.930 . S
C598 H584 0.930 . S
C598 C596 1.395 . S
C598 C601 1.403 . S
C599 C596 1.403 1_554 S
C599 C600 1.524 . S
C599 C603 1.400 . S
C600 H585 0.960 . S
C600 H586 0.960 . S
C600 H587 0.960 . S
C600 C599 1.524 . S
C601 C598 1.403 . S
C601 C602 1.392 1_556 S
C601 C605 1.495 . S
C602 C601 1.392 1_554 S
C602 C603 1.385 . S
C602 C604 1.478 . S
C603 H597 0.930 . S
C603 C599 1.400 . S
C603 C602 1.385 . S
C604 C602 1.478 . S
C604 C606 1.381 . S
C604 C610 1.383 1_554 S
C605 C601 1.495 . S
C605 H611 0.959 . S
C605 H612 0.961 . S
C605 H613 0.960 . S
C606 C604 1.381 . S
C606 C607 1.394 . S
C606 H614 0.930 . S
C607 C606 1.394 . S
C607 C608 1.383 . S
C607 H615 0.929 . S
C608 C607 1.383 . S
C608 C609 1.377 . S
C609 H593 0.930 1_554 S
C609 C608 1.377 . S
C609 C610 1.379 1_554 S
C610 H594 0.931 . S
C610 C604 1.383 1_556 S
C610 C609 1.379 1_556 S
H611 C605 0.959 . S
H612 C605 0.961 . S
H613 C605 0.960 . S
H614 C606 0.930 . S
H615 C607 0.929 . S
H616 C624 0.929 . S
H617 C626 0.930 . S
H618 C628 0.930 . S
H619 C631 0.929 . S
H620 C634 0.930 . S
H621 C636 0.960 . S
H622 C636 0.960 . S
H623 C636 0.960 . S
C624 H616 0.929 . S
C624 C625 1.377 . S
C624 C626 1.384 . S
C625 C624 1.377 . S
C625 C631 1.390 . S
C626 H617 0.930 . S
C626 C624 1.384 . S
C626 C627 1.372 . S
C627 C626 1.372 . S
C627 C628 1.400 . S
C627 C632 1.490 . S
C628 H618 0.930 . S
C628 C627 1.400 . S
C628 C631 1.386 . S
H629 C645 0.930 . S
H630 C646 0.931 . S
C631 H619 0.929 . S
C631 C625 1.390 . S
C631 C628 1.386 . S
C632 C627 1.490 . S
C632 C634 1.395 . S
C632 C635 1.403 . S
H633 C639 0.930 . S
C634 H620 0.930 . S
C634 C632 1.395 . S
C634 C637 1.403 . S
C635 C632 1.403 . S
C635 C636 1.524 . S
C635 C639 1.400 . S
C636 H621 0.960 . S
C636 H622 0.960 . S
C636 H623 0.960 . S
C636 C635 1.524 . S
C637 C634 1.403 . S
C637 C638 1.392 . S
C637 C641 1.495 . S
C638 C637 1.392 . S
C638 C639 1.385 . S
C638 C640 1.478 . S
C639 H633 0.930 . S
C639 C635 1.400 . S
C639 C638 1.385 . S
C640 C638 1.478 . S
C640 C642 1.381 . S
C640 C646 1.383 . S
C641 C637 1.495 . S
C641 H647 0.959 . S
C641 H648 0.961 . S
C641 H649 0.960 . S
C642 C640 1.381 . S
C642 C643 1.394 . S
C642 H650 0.930 . S
C643 C642 1.394 . S
C643 C644 1.383 . S
C643 H651 0.929 . S
C644 C643 1.383 . S
C644 C645 1.377 . S
C645 H629 0.930 . S
C645 C644 1.377 . S
C645 C646 1.379 . S
C646 H630 0.931 . S
C646 C640 1.383 . S
C646 C645 1.379 . S
H647 C641 0.959 . S
H648 C641 0.961 . S
H649 C641 0.960 . S
H650 C642 0.930 . S
H651 C643 0.929 . S
H652 C660 0.929 . S
H653 C662 0.930 . S
H654 C664 0.930 . S
H655 C667 0.929 . S
H656 C670 0.930 . S
H657 C672 0.960 . S
H658 C672 0.960 . S
H659 C672 0.960 . S
C660 H652 0.929 . S
C660 C661 1.377 . S
C660 C662 1.384 . S
C661 C660 1.377 . S
C661 C667 1.390 . S
C662 H653 0.930 . S
C662 C660 1.384 . S
C662 C663 1.372 . S
C663 C662 1.372 . S
C663 C664 1.400 . S
C663 C668 1.490 . S
C664 H654 0.930 . S
C664 C663 1.400 . S
C664 C667 1.386 . S
H665 C681 0.930 . S
H666 C682 0.931 . S
C667 H655 0.929 . S
C667 C661 1.390 . S
C667 C664 1.386 . S
C668 C663 1.490 . S
C668 C670 1.395 . S
C668 C671 1.403 . S
H669 C675 0.930 . S
C670 H656 0.930 . S
C670 C668 1.395 . S
C670 C673 1.403 . S
C671 C668 1.403 . S
C671 C672 1.524 . S
C671 C675 1.400 . S
C672 H657 0.960 . S
C672 H658 0.960 . S
C672 H659 0.960 . S
C672 C671 1.524 . S
C673 C670 1.403 . S
C673 C674 1.392 . S
C673 C677 1.495 . S
C674 C673 1.392 . S
C674 C675 1.385 . S
C674 C676 1.478 . S
C675 H669 0.930 . S
C675 C671 1.400 . S
C675 C674 1.385 . S
C676 C674 1.478 . S
C676 C678 1.381 . S
C676 C682 1.383 . S
C677 C673 1.495 . S
C677 H683 0.959 . S
C677 H684 0.961 . S
C677 H685 0.960 . S
C678 C676 1.381 . S
C678 C679 1.394 . S
C678 H686 0.930 . S
C679 C678 1.394 . S
C679 C680 1.383 . S
C679 H687 0.929 . S
C680 C679 1.383 . S
C680 C681 1.377 . S
C681 H665 0.930 . S
C681 C680 1.377 . S
C681 C682 1.379 . S
C682 H666 0.931 . S
C682 C676 1.383 . S
C682 C681 1.379 . S
H683 C677 0.959 . S
H684 C677 0.961 . S
H685 C677 0.960 . S
H686 C678 0.930 . S
H687 C679 0.929 . S
C121 C17 1.414 . S
C140 C3 1.416 . S
C157 C22 1.414 . S
C176 C36 1.412 1_554 S
C193 C45 1.414 . S
C212 C31 1.411 . S
C229 C50 1.414 1_556 S
C248 C8 1.411 . S
C265 C59 1.413 . S
C284 C73 1.406 . S
C301 C78 1.414 1_556 S
C320 C92 1.411 . S
C337 C87 1.412 . S
C356 C101 1.404 . S
C373 C64 1.413 1_554 S
C392 C106 1.412 . S
C409 C9 1.416 . S
C428 C107 1.400 . S
C445 C63 1.423 . S
C464 C21 1.433 . S
C481 C79 1.423 . S
C500 C37 1.421 . S
C517 C49 1.423 . S
C536 C91 1.434 . S
C553 C35 1.426 . S
C572 C105 1.413 . S
C589 C65 1.422 . S
C608 C51 1.428 . S
C625 C77 1.422 . S
C644 C7 1.402 . S
C661 C23 1.423 . S
C680 C93 1.413 . S
