# Generated by pormake.
# Topology umm, (4)-cn, num edge types: 1
# Building blocks:
#     Node 0, Type 0, BuildingBlock: GALJAG_clean_sbu_0, # of connection points: 4
#     Node 1, Type 0, BuildingBlock: GALJAG_clean_sbu_0, # of connection points: 4
#     Node 2, Type 0, BuildingBlock: GALJAG_clean_sbu_0, # of connection points: 4
#     Node 3, Type 0, BuildingBlock: GALJAG_clean_sbu_0, # of connection points: 4
#     Node 4, Type 0, BuildingBlock: GALJAG_clean_sbu_0, # of connection points: 4
#     Node 5, Type 0, BuildingBlock: GALJAG_clean_sbu_0, # of connection points: 4
#     Node 6, Type 0, BuildingBlock: GALJAG_clean_sbu_0, # of connection points: 4
#     Node 7, Type 0, BuildingBlock: GALJAG_clean_sbu_0, # of connection points: 4
#     Node 8, Type 0, BuildingBlock: GALJAG_clean_sbu_0, # of connection points: 4
#     Node 9, Type 0, BuildingBlock: GALJAG_clean_sbu_0, # of connection points: 4
#     Node 10, Type 0, BuildingBlock: GALJAG_clean_sbu_0, # of connection points: 4
#     Node 11, Type 0, BuildingBlock: GALJAG_clean_sbu_0, # of connection points: 4
#     Edge 12, Type (0, 0), BuildingBlock: XIVTED_clean_linker_0, # of connection points: 2
#     Edge 13, Type (0, 0), BuildingBlock: XIVTED_clean_linker_0, # of connection points: 2
#     Edge 14, Type (0, 0), BuildingBlock: XIVTED_clean_linker_0, # of connection points: 2
#     Edge 15, Type (0, 0), BuildingBlock: XIVTED_clean_linker_0, # of connection points: 2
#     Edge 16, Type (0, 0), BuildingBlock: XIVTED_clean_linker_0, # of connection points: 2
#     Edge 17, Type (0, 0), BuildingBlock: XIVTED_clean_linker_0, # of connection points: 2
#     Edge 18, Type (0, 0), BuildingBlock: XIVTED_clean_linker_0, # of connection points: 2
#     Edge 19, Type (0, 0), BuildingBlock: XIVTED_clean_linker_0, # of connection points: 2
#     Edge 20, Type (0, 0), BuildingBlock: XIVTED_clean_linker_0, # of connection points: 2
#     Edge 21, Type (0, 0), BuildingBlock: XIVTED_clean_linker_0, # of connection points: 2
#     Edge 22, Type (0, 0), BuildingBlock: XIVTED_clean_linker_0, # of connection points: 2
#     Edge 23, Type (0, 0), BuildingBlock: XIVTED_clean_linker_0, # of connection points: 2
#     Edge 24, Type (0, 0), BuildingBlock: XIVTED_clean_linker_0, # of connection points: 2
#     Edge 25, Type (0, 0), BuildingBlock: XIVTED_clean_linker_0, # of connection points: 2
#     Edge 26, Type (0, 0), BuildingBlock: XIVTED_clean_linker_0, # of connection points: 2
#     Edge 27, Type (0, 0), BuildingBlock: XIVTED_clean_linker_0, # of connection points: 2
#     Edge 28, Type (0, 0), BuildingBlock: XIVTED_clean_linker_0, # of connection points: 2
#     Edge 29, Type (0, 0), BuildingBlock: XIVTED_clean_linker_0, # of connection points: 2
#     Edge 30, Type (0, 0), BuildingBlock: XIVTED_clean_linker_0, # of connection points: 2
#     Edge 31, Type (0, 0), BuildingBlock: XIVTED_clean_linker_0, # of connection points: 2
#     Edge 32, Type (0, 0), BuildingBlock: XIVTED_clean_linker_0, # of connection points: 2
#     Edge 33, Type (0, 0), BuildingBlock: XIVTED_clean_linker_0, # of connection points: 2
#     Edge 34, Type (0, 0), BuildingBlock: XIVTED_clean_linker_0, # of connection points: 2
#     Edge 35, Type (0, 0), BuildingBlock: XIVTED_clean_linker_0, # of connection points: 2
# Relax obj value: 0.093
# Max RMSD: 0.221
# Mean RMSD: 0.220
data_MOF--net-umm--node1-GALJAG_clean_sbu_0--edge1-XIVTED_clean_linker_0
_symmetry_space_group_name_H-M    P1
_symmetry_Int_Tables_number       1
_symmetry_cell_setting            triclinic
loop_
_symmetry_equiv_pos_as_xyz
'x, y, z'
_cell_length_a     55.966397
_cell_length_b     55.947222
_cell_length_c     28.469334
_cell_angle_alpha  90.00138
_cell_angle_beta   90.004947
_cell_angle_gamma 120.08572
loop_
_atom_site_label
_atom_site_type_symbol
_atom_site_fract_x
_atom_site_fract_y
_atom_site_fract_z
_atom_type_partial_charge
In0 In 0.3844 0.53682 0.08121 0.0
O1 O 0.39774 0.57303 0.13186 0.0
O2 O 0.37867 0.53231 0.16025 0.0
C3 C 0.39158 0.56192 0.99744 0.0
C4 C 0.42469 0.5236 0.08374 0.0
C5 C 0.32959 0.50438 0.06952 0.0
O6 O 0.38063 0.53618 0.00233 0.0
O7 O 0.39942 0.57565 0.03523 0.0
O8 O 0.34644 0.49652 0.05841 0.0
O9 O 0.3403 0.5279 0.08861 0.0
C10 C 0.38978 0.55791 0.1681 0.0
O11 O 0.42901 0.54735 0.07368 0.0
O12 O 0.39975 0.50604 0.09224 0.0
In13 In 0.84918 0.38097 0.41742 0.0
O14 O 0.82848 0.3964 0.4684 0.0
O15 O 0.85059 0.37775 0.49667 0.0
C16 C 0.83163 0.38772 0.33305 0.0
C17 C 0.90292 0.42104 0.41649 0.0
C18 C 0.82232 0.32542 0.41321 0.0
O19 O 0.82565 0.39567 0.37058 0.0
O20 O 0.84629 0.37666 0.33845 0.0
O21 O 0.84734 0.33992 0.40086 0.0
O22 O 0.81155 0.33891 0.42909 0.0
C23 C 0.83654 0.38932 0.50462 0.0
O24 O 0.89576 0.39585 0.42184 0.0
O25 O 0.88316 0.42553 0.41134 0.0
In26 In 0.46626 0.84799 0.74836 0.0
O27 O 0.42813 0.82559 0.79537 0.0
O28 O 0.46804 0.84308 0.8269 0.0
C29 C 0.44784 0.83417 0.65951 0.0
C30 C 0.47833 0.90096 0.75598 0.0
C31 C 0.49853 0.8253 0.74086 0.0
O32 O 0.43189 0.82272 0.69412 0.0
O33 O 0.47196 0.85263 0.67026 0.0
O34 O 0.50772 0.85073 0.73336 0.0
O35 O 0.47371 0.81191 0.75429 0.0
C36 C 0.44216 0.83006 0.83259 0.0
O37 O 0.49644 0.89401 0.76172 0.0
O38 O 0.45451 0.8813 0.74648 0.0
In39 In 0.61657 0.46485 0.08375 0.0
O40 O 0.60817 0.42956 0.13415 0.0
O41 O 0.6257 0.47017 0.16209 0.0
C42 C 0.6012 0.42946 0.0101 0.0
C43 C 0.57949 0.48216 0.09229 0.0
C44 C 0.66803 0.50243 0.05583 0.0
O45 O 0.62471 0.43957 0.02872 0.0
O46 O 0.5852 0.43586 0.03029 0.0
O47 O 0.66321 0.4889 0.09354 0.0
O48 O 0.64673 0.49834 0.03371 0.0
C49 C 0.61658 0.44487 0.17007 0.0
O50 O 0.60425 0.49852 0.08047 0.0
O51 O 0.57404 0.45784 0.10039 0.0
In52 In 0.15171 0.62027 0.41464 0.0
O53 O 0.17256 0.60454 0.46482 0.0
O54 O 0.15122 0.62379 0.49388 0.0
C55 C 0.16894 0.6145 0.32937 0.0
C56 C 0.09807 0.57996 0.41448 0.0
C57 C 0.17814 0.67578 0.41049 0.0
O58 O 0.17542 0.60647 0.36629 0.0
O59 O 0.15385 0.62498 0.33583 0.0
O60 O 0.15298 0.66111 0.39904 0.0
O61 O 0.18926 0.66246 0.42567 0.0
C62 C 0.16504 0.61194 0.50132 0.0
O63 O 0.10515 0.60508 0.42051 0.0
O64 O 0.11786 0.57563 0.40824 0.0
In65 In 0.53343 0.15082 0.74747 0.0
O66 O 0.57112 0.17274 0.79551 0.0
O67 O 0.53093 0.15543 0.82596 0.0
C68 C 0.55303 0.16422 0.65919 0.0
C69 C 0.52076 0.09772 0.75571 0.0
C70 C 0.50208 0.17446 0.73839 0.0
O71 O 0.56843 0.17603 0.69426 0.0
O72 O 0.52883 0.14567 0.66926 0.0
O73 O 0.4926 0.14903 0.73039 0.0
O74 O 0.52668 0.18736 0.75298 0.0
C75 C 0.55676 0.16823 0.83234 0.0
O76 O 0.50267 0.10483 0.76013 0.0
O77 O 0.5448 0.11728 0.74726 0.0
In78 In 0.47119 0.62043 0.58355 0.0
O79 O 0.43427 0.606 0.53434 0.0
O80 O 0.47471 0.62646 0.50453 0.0
C81 C 0.44771 0.61398 0.66872 0.0
C82 C 0.48381 0.57978 0.579 0.0
C83 C 0.50322 0.67541 0.59374 0.0
O84 O 0.43353 0.6078 0.63142 0.0
O85 O 0.47304 0.62268 0.66267 0.0
O86 O 0.51159 0.65892 0.60463 0.0
O87 O 0.47947 0.66424 0.57552 0.0
C88 C 0.44895 0.61455 0.49763 0.0
O89 O 0.50185 0.60487 0.57287 0.0
O90 O 0.45993 0.57555 0.58766 0.0
In91 In 0.84843 0.46912 0.92127 0.0
O92 O 0.82718 0.43291 0.87034 0.0
O93 O 0.8495 0.4737 0.84207 0.0
C94 C 0.83087 0.44502 0.00582 0.0
C95 C 0.90184 0.48208 0.92141 0.0
C96 C 0.82323 0.49924 0.92625 0.0
O97 O 0.82432 0.43099 0.96834 0.0
O98 O 0.84604 0.4707 1.00028 0.0
O99 O 0.84824 0.50908 0.93805 0.0
O100 O 0.81158 0.47488 0.91048 0.0
C101 C 0.83528 0.44806 0.83412 0.0
O102 O 0.89504 0.50033 0.91591 0.0
O103 O 0.8819 0.45795 0.92716 0.0
In104 In 0.38667 0.84625 0.25067 0.0
O105 O 0.39463 0.81963 0.19883 0.0
O106 O 0.3783 0.84395 0.17212 0.0
C107 C 0.40024 0.82441 0.32385 0.0
C108 C 0.425 0.90057 0.245 0.0
C109 C 0.33557 0.833 0.27966 0.0
O110 O 0.37678 0.81189 0.30479 0.0
O111 O 0.41706 0.84676 0.30421 0.0
O112 O 0.35712 0.85021 0.30132 0.0
O113 O 0.33998 0.82403 0.24188 0.0
C114 C 0.3868 0.82739 0.1633 0.0
O115 O 0.39966 0.8925 0.25088 0.0
O116 O 0.4305 0.88142 0.24155 0.0
In117 In 0.53646 0.3835 0.58426 0.0
O118 O 0.57441 0.39907 0.53697 0.0
O119 O 0.53441 0.37681 0.50564 0.0
C120 C 0.55494 0.38963 0.67329 0.0
C121 C 0.52453 0.4244 0.57612 0.0
C122 C 0.5049 0.32843 0.59302 0.0
O123 O 0.57074 0.39319 0.63886 0.0
O124 O 0.53087 0.38396 0.66221 0.0
O125 O 0.49515 0.34432 0.59872 0.0
O126 O 0.52992 0.34024 0.58067 0.0
C127 C 0.56028 0.38961 0.4998 0.0
O128 O 0.50619 0.39924 0.57157 0.0
O129 O 0.54846 0.42861 0.5845 0.0
In130 In 0.15056 0.53276 0.91818 0.0
O131 O 0.10389 0.50233 0.9116 0.0
O132 O 0.11757 0.54472 0.92415 0.0
C133 C 0.17372 0.50098 0.92756 0.0
C134 C 0.16517 0.55336 0.83093 0.0
C135 C 0.16876 0.55719 0.00231 0.0
O136 O 0.14882 0.49242 0.93863 0.0
O137 O 0.18622 0.5248 0.90952 0.0
O138 O 0.17515 0.57116 0.96477 0.0
O139 O 0.15331 0.53155 0.997 0.0
C140 C 0.09742 0.52077 0.91772 0.0
O141 O 0.17314 0.56862 0.86703 0.0
O142 O 0.15035 0.5278 0.83906 0.0
In143 In 0.61556 0.15309 0.24973 0.0
O144 O 0.6031 0.10693 0.25064 0.0
O145 O 0.57194 0.11757 0.24143 0.0
C146 C 0.66714 0.16768 0.27777 0.0
C147 C 0.61511 0.17115 0.16186 0.0
C148 C 0.60133 0.17433 0.32317 0.0
O149 O 0.64591 0.14889 0.29815 0.0
O150 O 0.66219 0.17759 0.24166 0.0
O151 O 0.6253 0.18633 0.30608 0.0
O152 O 0.5844 0.15285 0.30149 0.0
C153 C 0.57768 0.0986 0.24499 0.0
O154 O 0.60737 0.17921 0.19712 0.0
O155 O 0.62368 0.15471 0.17119 0.0
H156 H 0.42564 0.61083 0.19647 0.0
H157 H 0.39635 0.57686 0.47053 0.0
H158 H 0.36579 0.53043 0.24933 0.0
H159 H 0.4747 0.64028 0.4162 0.0
H160 H 0.37883 0.56525 0.38984 0.0
H161 H 0.43763 0.62743 0.27759 0.0
C162 C 0.41474 0.59681 0.22512 0.0
C163 C 0.39488 0.56917 0.21629 0.0
C164 C 0.39976 0.58189 0.39572 0.0
C165 C 0.40833 0.588 0.30876 0.0
C166 C 0.40971 0.5886 0.44167 0.0
C167 C 0.43707 0.6094 0.4499 0.0
C168 C 0.41717 0.59639 0.35794 0.0
C169 C 0.45355 0.62394 0.41128 0.0
C170 C 0.42167 0.60625 0.2713 0.0
C171 C 0.3814 0.55184 0.25467 0.0
N172 N 0.44336 0.61713 0.36693 0.0
N173 N 0.38842 0.56152 0.29928 0.0
H174 H 0.82096 0.42634 0.53212 0.0
H175 H 0.82026 0.39556 0.80648 0.0
H176 H 0.84035 0.36606 0.58646 0.0
H177 H 0.83894 0.47512 0.7524 0.0
H178 H 0.81639 0.37881 0.72558 0.0
H179 H 0.81636 0.43876 0.61293 0.0
C180 C 0.82391 0.4155 0.56105 0.0
C181 C 0.83124 0.3953 0.55274 0.0
C182 C 0.82109 0.39984 0.73156 0.0
C183 C 0.82578 0.40919 0.64481 0.0
C184 C 0.82316 0.40936 0.77759 0.0
C185 C 0.8301 0.43679 0.78599 0.0
C186 C 0.82552 0.41778 0.69385 0.0
C187 C 0.83375 0.45387 0.74736 0.0
C188 C 0.82139 0.42267 0.60703 0.0
C189 C 0.83489 0.38192 0.59143 0.0
N190 N 0.83142 0.44409 0.70291 0.0
N191 N 0.83212 0.38909 0.63585 0.0
H192 H 0.39047 0.81838 0.85991 0.0
H193 H 0.41798 0.80544 0.13229 0.0
H194 H 0.46575 0.82487 0.91272 0.0
H195 H 0.36306 0.83336 0.08373 0.0
H196 H 0.42799 0.80002 0.05037 0.0
H197 H 0.37277 0.81159 0.9407 0.0
C198 C 0.40305 0.81791 0.88841 0.0
C199 C 0.42968 0.82244 0.87982 0.0
C200 C 0.41347 0.80699 0.05775 0.0
C201 C 0.40959 0.81452 0.97177 0.0
C202 C 0.40765 0.80994 0.1044 0.0
C203 C 0.38988 0.82011 0.11469 0.0
C204 C 0.40114 0.8139 0.02125 0.0
C205 C 0.37709 0.8257 0.07724 0.0
C206 C 0.39302 0.81417 0.9344 0.0
C207 C 0.4452 0.82172 0.91794 0.0
N208 N 0.38307 0.82265 0.03213 0.0
N209 N 0.43496 0.81793 0.96229 0.0
H210 H 0.5842 0.39151 0.19963 0.0
H211 H 0.61231 0.42919 0.47293 0.0
H212 H 0.64094 0.47353 0.25031 0.0
H213 H 0.53624 0.36176 0.41901 0.0
H214 H 0.63008 0.44057 0.39228 0.0
H215 H 0.57375 0.37532 0.28111 0.0
C216 C 0.59484 0.40598 0.22788 0.0
C217 C 0.61327 0.43394 0.21832 0.0
C218 C 0.60964 0.42309 0.39828 0.0
C219 C 0.60149 0.41559 0.31129 0.0
C220 C 0.59955 0.41652 0.44421 0.0
C221 C 0.5727 0.39467 0.45249 0.0
C222 C 0.59288 0.4074 0.36063 0.0
C223 C 0.55697 0.37895 0.41405 0.0
C224 C 0.58876 0.39677 0.27429 0.0
C225 C 0.62642 0.45184 0.25623 0.0
N226 N 0.56726 0.38566 0.36976 0.0
N227 N 0.62018 0.4424 0.3011 0.0
H228 H 0.17937 0.57389 0.52852 0.0
H229 H 0.18231 0.60624 0.80273 0.0
H230 H 0.16304 0.63624 0.58309 0.0
H231 H 0.16083 0.5257 0.7495 0.0
H232 H 0.18687 0.62293 0.72171 0.0
H233 H 0.18407 0.56144 0.60931 0.0
C234 C 0.17715 0.58519 0.55748 0.0
C235 C 0.17061 0.60597 0.54928 0.0
C236 C 0.18142 0.60169 0.72789 0.0
C237 C 0.17618 0.59205 0.64127 0.0
C238 C 0.17895 0.5922 0.774 0.0
C239 C 0.17098 0.56451 0.7827 0.0
C240 C 0.17633 0.58346 0.69036 0.0
C241 C 0.16679 0.54715 0.74424 0.0
C242 C 0.17971 0.578 0.60345 0.0
C243 C 0.16786 0.61992 0.58799 0.0
N244 N 0.16949 0.5569 0.69968 0.0
N245 N 0.17065 0.61271 0.63236 0.0
H246 H 0.639 0.16495 0.08275 0.0
H247 H 0.53253 0.17296 0.91202 0.0
H248 H 0.58319 0.19205 0.12987 0.0
H249 H 0.60815 0.17955 0.8609 0.0
H250 H 0.55055 0.17979 0.99214 0.0
H251 H 0.62835 0.17014 0.00129 0.0
C252 C 0.62478 0.17236 0.0759 0.0
C253 C 0.61182 0.17793 0.11303 0.0
C254 C 0.56337 0.18013 0.96337 0.0
C255 C 0.59919 0.18345 0.02007 0.0
C256 C 0.55307 0.17614 0.91767 0.0
C257 C 0.56884 0.17554 0.87989 0.0
C258 C 0.5894 0.18294 0.97147 0.0
C259 C 0.59535 0.17988 0.8891 0.0
C260 C 0.61876 0.17537 0.02944 0.0
C261 C 0.59362 0.18752 0.10225 0.0
N262 N 0.60466 0.18296 0.93411 0.0
N263 N 0.58749 0.18955 0.05671 0.0
H264 H 0.30951 0.47539 0.98842 0.0
H265 H 0.16568 0.47191 0.00827 0.0
H266 H 0.28505 0.50311 0.11101 0.0
H267 H 0.21754 0.50119 0.88537 0.0
H268 H 0.19929 0.46184 0.04538 0.0
H269 H 0.2653 0.46345 0.95115 0.0
C270 C 0.29439 0.47794 0.00816 0.0
C271 C 0.30085 0.49036 0.05269 0.0
C272 C 0.20275 0.46959 0.0097 0.0
C273 C 0.25052 0.47654 0.01067 0.0
C274 C 0.18356 0.47514 0.98839 0.0
C275 C 0.18903 0.4875 0.94385 0.0
C276 C 0.2271 0.47587 0.98573 0.0
C277 C 0.21272 0.49175 0.91985 0.0
C278 C 0.26934 0.4713 0.98678 0.0
C279 C 0.28079 0.49368 0.07653 0.0
N280 N 0.23106 0.48614 0.94125 0.0
N281 N 0.25653 0.48698 0.05508 0.0
H282 H 0.77656 0.28756 0.46 0.0
H283 H 0.68052 0.1629 0.36845 0.0
H284 H 0.82841 0.29624 0.34178 0.0
H285 H 0.71642 0.2049 0.23805 0.0
H286 H 0.72316 0.1954 0.40923 0.0
H287 H 0.74238 0.24174 0.43205 0.0
C288 C 0.78109 0.27938 0.4289 0.0
C289 C 0.80527 0.29563 0.40311 0.0
C290 C 0.72182 0.19725 0.37159 0.0
C291 C 0.76612 0.24328 0.37043 0.0
C292 C 0.69763 0.17849 0.34819 0.0
C293 C 0.69475 0.18159 0.29995 0.0
C294 C 0.74319 0.21918 0.34648 0.0
C295 C 0.71763 0.20209 0.27542 0.0
C296 C 0.76163 0.25311 0.41304 0.0
C297 C 0.81007 0.28423 0.3628 0.0
N298 N 0.74077 0.22036 0.29907 0.0
N299 N 0.79028 0.25901 0.34693 0.0
H300 H 0.49773 0.78113 0.78247 0.0
H301 H 0.50373 0.71939 0.55169 0.0
H302 H 0.53048 0.83557 0.66319 0.0
H303 H 0.53157 0.69591 0.67525 0.0
H304 H 0.51475 0.76295 0.59009 0.0
H305 H 0.51118 0.75005 0.74554 0.0
C306 C 0.50856 0.78691 0.74918 0.0
C307 C 0.5131 0.81085 0.72578 0.0
C308 C 0.51928 0.74865 0.6082 0.0
C309 C 0.52744 0.77507 0.68268 0.0
C310 C 0.513 0.72385 0.58633 0.0
C311 C 0.51678 0.70417 0.61043 0.0
C312 C 0.52834 0.75318 0.65504 0.0
C313 C 0.52855 0.71071 0.65545 0.0
C314 C 0.51623 0.76924 0.72814 0.0
C315 C 0.52687 0.81736 0.68244 0.0
N316 N 0.53314 0.73435 0.67697 0.0
N317 N 0.53283 0.79911 0.66151 0.0
H318 H 0.68125 0.51579 0.96357 0.0
H319 H 0.83146 0.53506 0.99789 0.0
H320 H 0.71775 0.51965 0.09886 0.0
H321 H 0.77777 0.49315 0.88072 0.0
H322 H 0.79772 0.54744 0.02689 0.0
H323 H 0.72473 0.5261 0.92593 0.0
C324 C 0.69869 0.51975 0.98546 0.0
C325 C 0.6958 0.51643 0.03437 0.0
C326 C 0.79376 0.53621 0.99415 0.0
C327 C 0.7454 0.52814 0.99155 0.0
C328 C 0.81303 0.52931 0.97744 0.0
C329 C 0.80715 0.51284 0.93716 0.0
C330 C 0.7688 0.52694 0.96986 0.0
C331 C 0.78288 0.50565 0.91218 0.0
C332 C 0.7234 0.52544 0.96392 0.0
C333 C 0.71904 0.52169 0.06099 0.0
N334 N 0.76445 0.51253 0.92916 0.0
N335 N 0.7428 0.52691 0.0392 0.0
H336 H 0.17084 0.70418 0.33915 0.0
H337 H 0.32307 0.83279 0.37242 0.0
H338 H 0.22435 0.71433 0.45567 0.0
H339 H 0.28543 0.80127 0.23735 0.0
H340 H 0.27951 0.79999 0.41046 0.0
H341 H 0.20557 0.74999 0.31 0.0
C342 C 0.18946 0.71645 0.35944 0.0
C343 C 0.19494 0.70548 0.3996 0.0
C344 C 0.28062 0.80081 0.37246 0.0
C345 C 0.23446 0.75758 0.36669 0.0
C346 C 0.30538 0.81965 0.35069 0.0
C347 C 0.30793 0.81945 0.30168 0.0
C348 C 0.25823 0.78194 0.34496 0.0
C349 C 0.28439 0.80185 0.27528 0.0
C350 C 0.2093 0.74244 0.34263 0.0
C351 C 0.21949 0.72203 0.42433 0.0
N352 N 0.26058 0.78352 0.29727 0.0
N353 N 0.23848 0.74718 0.40727 0.0
H354 H 0.5014 0.21734 0.78211 0.0
H355 H 0.46932 0.30599 0.66661 0.0
H356 H 0.47365 0.16707 0.6573 0.0
H357 H 0.50936 0.28579 0.55694 0.0
H358 H 0.45696 0.26208 0.70567 0.0
H359 H 0.48981 0.24986 0.74544 0.0
C360 C 0.49192 0.2127 0.74763 0.0
C361 C 0.48824 0.18951 0.72272 0.0
C362 C 0.46775 0.267 0.67236 0.0
C363 C 0.47584 0.22685 0.68012 0.0
C364 C 0.47457 0.29183 0.64987 0.0
C365 C 0.49056 0.29947 0.60879 0.0
C366 C 0.47663 0.24969 0.65301 0.0
C367 C 0.49719 0.28064 0.58879 0.0
C368 C 0.48525 0.23117 0.72678 0.0
C369 C 0.47642 0.18459 0.67778 0.0
N370 N 0.49036 0.25664 0.61131 0.0
N371 N 0.47147 0.20364 0.65721 0.0
H372 H 0.42168 0.47472 0.10767 0.0
H373 H 0.58367 0.53201 0.07031 0.0
H374 H 0.47933 0.55832 0.06521 0.0
H375 H 0.5258 0.44956 0.11782 0.0
H376 H 0.54607 0.54258 0.06926 0.0
H377 H 0.45986 0.46529 0.11195 0.0
C378 C 0.44237 0.49106 0.0992 0.0
C379 C 0.44734 0.5173 0.08601 0.0
C380 C 0.54166 0.52221 0.0801 0.0
C381 C 0.49117 0.50677 0.0909 0.0
C382 C 0.56312 0.51623 0.08081 0.0
C383 C 0.55783 0.48988 0.09409 0.0
C384 C 0.51477 0.50166 0.09269 0.0
C385 C 0.53081 0.47014 0.10725 0.0
C386 C 0.46419 0.48572 0.10172 0.0
C387 C 0.47457 0.53777 0.0755 0.0
N388 N 0.51033 0.4764 0.10607 0.0
N389 N 0.49545 0.53207 0.07812 0.0
H390 H 0.95048 0.41806 0.42097 0.0
H391 H 0.05054 0.58276 0.42167 0.0
H392 H 0.92134 0.47621 0.4126 0.0
H393 H 0.07972 0.5248 0.40909 0.0
H394 H 0.00294 0.5439 0.42276 0.0
H395 H 0.99813 0.45688 0.42102 0.0
C396 C 0.95411 0.43896 0.41916 0.0
C397 C 0.93193 0.44391 0.41667 0.0
C398 C 0.01978 0.53971 0.41972 0.0
C399 C 0.98627 0.48838 0.4169 0.0
C400 C 0.04693 0.56189 0.41914 0.0
C401 C 0.06909 0.55702 0.41518 0.0
C402 C 0.01481 0.51247 0.41659 0.0
C403 C 0.06324 0.52953 0.41207 0.0
C404 C 0.98128 0.46112 0.41914 0.0
C405 C 0.93781 0.47142 0.41443 0.0
N406 N 0.03672 0.50833 0.41291 0.0
N407 N 0.96435 0.49258 0.41467 0.0
H408 H 0.55743 0.07916 0.7558 0.0
H409 H 0.44154 0.91939 0.75245 0.0
H410 H 0.47017 0.05051 0.76346 0.0
H411 H 0.52856 0.94816 0.76685 0.0
H412 H 0.45155 0.96717 0.75539 0.0
H413 H 0.54724 0.03136 0.75882 0.0
C414 C 0.53609 0.06278 0.75824 0.0
C415 C 0.51458 0.06881 0.75924 0.0
C416 C 0.46846 0.96306 0.75811 0.0
C417 C 0.50277 0.01394 0.76251 0.0
C418 C 0.46278 0.93578 0.75634 0.0
C419 C 0.48429 0.92981 0.75927 0.0
C420 C 0.4959 0.98461 0.76249 0.0
C421 C 0.51138 0.95185 0.76443 0.0
C422 C 0.5303 0.03548 0.76005 0.0
C423 C 0.48736 0.04677 0.76257 0.0
N424 N 0.51643 0.9783 0.76564 0.0
N425 N 0.48221 0.02029 0.76384 0.0
H426 H 0.44691 0.52458 0.58321 0.0
H427 H 0.5617 0.47962 0.57656 0.0
H428 H 0.53399 0.5827 0.56838 0.0
H429 H 0.47424 0.42154 0.56916 0.0
H430 H 0.55205 0.51761 0.57488 0.0
H431 H 0.45657 0.48666 0.57971 0.0
C432 C 0.4681 0.52937 0.57918 0.0
C433 C 0.48972 0.55686 0.57621 0.0
C434 C 0.53495 0.49658 0.57341 0.0
C435 C 0.50093 0.51345 0.57226 0.0
C436 C 0.54043 0.47486 0.57443 0.0
C437 C 0.51871 0.44737 0.57313 0.0
C438 C 0.50751 0.49082 0.57144 0.0
C439 C 0.49159 0.44243 0.57024 0.0
C440 C 0.47358 0.50767 0.57707 0.0
C441 C 0.51674 0.56182 0.57085 0.0
N442 N 0.48674 0.46396 0.56975 0.0
N443 N 0.52159 0.54031 0.56925 0.0
H444 H 0.0801 0.55835 0.92303 0.0
H445 H 0.91953 0.44483 0.92563 0.0
H446 H 0.04938 0.47077 0.91181 0.0
H447 H 0.94974 0.53234 0.91513 0.0
H448 H 0.96696 0.45404 0.92394 0.0
H449 H 0.03266 0.54932 0.92333 0.0
C450 C 0.06334 0.53718 0.92062 0.0
C451 C 0.06868 0.51524 0.91744 0.0
C452 C 0.96328 0.47126 0.92193 0.0
C453 C 0.01426 0.50477 0.9179 0.0
C454 C 0.93618 0.46604 0.923 0.0
C455 C 0.93068 0.48789 0.92055 0.0
C456 C 0.98517 0.49857 0.91864 0.0
C457 C 0.95307 0.51491 0.9171 0.0
C458 C 0.03626 0.53206 0.92071 0.0
C459 C 0.04618 0.48827 0.9143 0.0
N460 N 0.97937 0.5195 0.91636 0.0
N461 N 0.01994 0.48379 0.91475 0.0
H462 H 0.41968 0.9468 0.24818 0.0
H463 H 0.58325 0.05246 0.24864 0.0
H464 H 0.48048 0.9211 0.23895 0.0
H465 H 0.52223 0.07784 0.23874 0.0
H466 H 0.54593 0.00405 0.24774 0.0
H467 H 0.45708 0.99511 0.24734 0.0
C468 C 0.44087 0.95133 0.24588 0.0
C469 C 0.44698 0.92993 0.24359 0.0
C470 C 0.54075 0.02025 0.24566 0.0
C471 C 0.48985 0.98503 0.24286 0.0
C472 C 0.56205 0.04784 0.2462 0.0
C473 C 0.55584 0.06917 0.24374 0.0
C474 C 0.51309 0.01402 0.2429 0.0
C475 C 0.52798 0.06205 0.24066 0.0
C476 C 0.46222 0.97888 0.24539 0.0
C477 C 0.47482 0.93695 0.24071 0.0
N478 N 0.50768 0.03514 0.24045 0.0
N479 N 0.49519 0.96385 0.24056 0.0
H480 H 0.39382 0.58162 0.69679 0.0
H481 H 0.43073 0.6141 0.96993 0.0
H482 H 0.47528 0.63914 0.74867 0.0
H483 H 0.36261 0.53784 0.91811 0.0
H484 H 0.44166 0.63113 0.88872 0.0
H485 H 0.3767 0.57299 0.77808 0.0
C486 C 0.40796 0.5927 0.72521 0.0
C487 C 0.43604 0.61076 0.71626 0.0
C488 C 0.42407 0.61084 0.89533 0.0
C489 C 0.4167 0.60127 0.80866 0.0
C490 C 0.41778 0.60121 0.94155 0.0
C491 C 0.39601 0.57444 0.95043 0.0
C492 C 0.40819 0.59367 0.85813 0.0
C493 C 0.37984 0.55848 0.91254 0.0
C494 C 0.39824 0.58775 0.77146 0.0
C495 C 0.45354 0.6247 0.75423 0.0
N496 N 0.38635 0.56827 0.86799 0.0
N497 N 0.44363 0.61957 0.79881 0.0
H498 H 0.81524 0.42444 0.30675 0.0
H499 H 0.81389 0.39176 0.0324 0.0
H500 H 0.83037 0.36129 0.25218 0.0
H501 H 0.83052 0.47064 0.08668 0.0
H502 H 0.80729 0.37413 0.1132 0.0
H503 H 0.80821 0.43529 0.2261 0.0
C504 C 0.81662 0.41258 0.27787 0.0
C505 C 0.82373 0.39221 0.2859 0.0
C506 C 0.81202 0.39518 0.10724 0.0
C507 C 0.8156 0.40431 0.19415 0.0
C508 C 0.81567 0.40518 0.06125 0.0
C509 C 0.82308 0.43274 0.05308 0.0
C510 C 0.81546 0.41282 0.145 0.0
C511 C 0.82516 0.44933 0.09162 0.0
C512 C 0.81272 0.41882 0.23197 0.0
C513 C 0.82527 0.37742 0.24734 0.0
N514 N 0.82152 0.43916 0.13595 0.0
N515 N 0.82139 0.38384 0.20308 0.0
H516 H 0.48231 0.84803 0.5852 0.0
H517 H 0.36352 0.79082 0.39088 0.0
H518 H 0.39572 0.80316 0.6208 0.0
H519 H 0.45062 0.84177 0.36271 0.0
H520 H 0.37428 0.78762 0.4735 0.0
H521 H 0.47042 0.8388 0.5027 0.0
C522 C 0.46069 0.83616 0.57559 0.0
C523 C 0.43994 0.82672 0.60987 0.0
C524 C 0.39102 0.79905 0.449 0.0
C525 C 0.42606 0.8161 0.51479 0.0
C526 C 0.38492 0.80068 0.40181 0.0
C527 C 0.40625 0.81676 0.37011 0.0
C528 C 0.41862 0.81351 0.46423 0.0
C529 C 0.43356 0.82934 0.38609 0.0
C530 C 0.4539 0.8308 0.52834 0.0
C531 C 0.41232 0.81101 0.59536 0.0
N532 N 0.43892 0.82765 0.43205 0.0
N533 N 0.40612 0.80644 0.5487 0.0
H534 H 0.60676 0.40793 0.71125 0.0
H535 H 0.55016 0.39755 0.97268 0.0
H536 H 0.52114 0.37457 0.74884 0.0
H537 H 0.63661 0.43098 0.94206 0.0
H538 H 0.5392 0.38316 0.89109 0.0
H539 H 0.61845 0.41194 0.7954 0.0
C540 C 0.59046 0.40132 0.73713 0.0
C541 C 0.56302 0.39126 0.72311 0.0
C542 C 0.56059 0.3933 0.90212 0.0
C543 C 0.57607 0.39551 0.81882 0.0
C544 C 0.5668 0.40138 0.94885 0.0
C545 C 0.5943 0.41559 0.96398 0.0
C546 C 0.58206 0.3999 0.86992 0.0
C547 C 0.6151 0.42 0.93169 0.0
C548 C 0.5971 0.40354 0.78504 0.0
C549 C 0.54264 0.38281 0.75797 0.0
N550 N 0.6086 0.41259 0.88586 0.0
N551 N 0.5496 0.38525 0.804 0.0
H552 H 0.17174 0.5318 0.08138 0.0
H553 H 0.16936 0.64172 0.25007 0.0
H554 H 0.18431 0.6099 0.03056 0.0
H555 H 0.18621 0.5789 0.30027 0.0
H556 H 0.17672 0.63169 0.16962 0.0
H557 H 0.17906 0.54952 0.16159 0.0
C558 C 0.17639 0.55285 0.08717 0.0
C559 C 0.17714 0.56937 0.0495 0.0
C560 C 0.17924 0.62038 0.19821 0.0
C561 C 0.18514 0.58963 0.14119 0.0
C562 C 0.17492 0.62599 0.24411 0.0
C563 C 0.17688 0.61086 0.28171 0.0
C564 C 0.18502 0.59908 0.18976 0.0
C565 C 0.18439 0.59093 0.27217 0.0
C566 C 0.18067 0.56298 0.13292 0.0
C567 C 0.18349 0.59652 0.05875 0.0
N568 N 0.18774 0.58527 0.22697 0.0
N569 N 0.18676 0.60568 0.10387 0.0
H570 H 0.6054 0.19758 0.62302 0.0
H571 H 0.5504 0.1576 0.35918 0.0
H572 H 0.51992 0.14738 0.5827 0.0
H573 H 0.63705 0.20589 0.39292 0.0
H574 H 0.5392 0.16044 0.44087 0.0
H575 H 0.61793 0.20654 0.53929 0.0
C576 C 0.58932 0.18862 0.59664 0.0
C577 C 0.56165 0.17141 0.60973 0.0
C578 C 0.5607 0.17078 0.4305 0.0
C579 C 0.57566 0.18172 0.51454 0.0
C580 C 0.56707 0.16928 0.38372 0.0
C581 C 0.59466 0.18135 0.36942 0.0
C582 C 0.58208 0.18407 0.46355 0.0
C583 C 0.61548 0.1963 0.40262 0.0
C584 C 0.59644 0.19376 0.54898 0.0
C585 C 0.54157 0.16045 0.57426 0.0
N586 N 0.60878 0.19687 0.44844 0.0
N587 N 0.54898 0.16568 0.52849 0.0
loop_
_geom_bond_atom_site_label_1
_geom_bond_atom_site_label_2
_geom_bond_distance
_geom_bond_site_symmetry_2
_ccdc_geom_bond_type
In0 O1 2.294 . S
In0 O2 2.326 . S
In0 O6 2.266 . S
In0 O7 2.326 1_554 S
In0 O8 2.266 . S
In0 O9 2.326 . S
In0 O11 2.294 . S
In0 O12 2.326 . S
O1 In0 2.294 . S
O1 C10 1.240 . S
O2 In0 2.326 . S
O2 C10 1.252 . S
C3 O6 1.252 1_556 S
C3 O7 1.260 . S
C4 O11 1.240 . S
C4 O12 1.252 . S
C5 O8 1.252 . S
C5 O9 1.260 . S
O6 In0 2.266 . S
O6 C3 1.252 1_554 S
O7 In0 2.326 1_556 S
O7 C3 1.260 . S
O8 In0 2.266 . S
O8 C5 1.252 . S
O9 In0 2.326 . S
O9 C5 1.260 . S
C10 O1 1.240 . S
C10 O2 1.252 . S
O11 In0 2.294 . S
O11 C4 1.240 . S
O12 In0 2.326 . S
O12 C4 1.252 . S
In13 O14 2.294 . S
In13 O15 2.326 . S
In13 O19 2.266 . S
In13 O20 2.326 . S
In13 O21 2.266 . S
In13 O22 2.326 . S
In13 O24 2.294 . S
In13 O25 2.326 . S
O14 In13 2.294 . S
O14 C23 1.240 . S
O15 In13 2.326 . S
O15 C23 1.252 . S
C16 O19 1.252 . S
C16 O20 1.260 . S
C17 O24 1.240 . S
C17 O25 1.252 . S
C18 O21 1.252 . S
C18 O22 1.260 . S
O19 In13 2.266 . S
O19 C16 1.252 . S
O20 In13 2.326 . S
O20 C16 1.260 . S
O21 In13 2.266 . S
O21 C18 1.252 . S
O22 In13 2.326 . S
O22 C18 1.260 . S
C23 O14 1.240 . S
C23 O15 1.252 . S
O24 In13 2.294 . S
O24 C17 1.240 . S
O25 In13 2.326 . S
O25 C17 1.252 . S
In26 O27 2.294 . S
In26 O28 2.326 . S
In26 O32 2.266 . S
In26 O33 2.326 . S
In26 O34 2.266 . S
In26 O35 2.326 . S
In26 O37 2.294 . S
In26 O38 2.326 . S
O27 In26 2.294 . S
O27 C36 1.240 . S
O28 In26 2.326 . S
O28 C36 1.252 . S
C29 O32 1.252 . S
C29 O33 1.260 . S
C30 O37 1.240 . S
C30 O38 1.252 . S
C31 O34 1.252 . S
C31 O35 1.260 . S
O32 In26 2.266 . S
O32 C29 1.252 . S
O33 In26 2.326 . S
O33 C29 1.260 . S
O34 In26 2.266 . S
O34 C31 1.252 . S
O35 In26 2.326 . S
O35 C31 1.260 . S
C36 O27 1.240 . S
C36 O28 1.252 . S
O37 In26 2.294 . S
O37 C30 1.240 . S
O38 In26 2.326 . S
O38 C30 1.252 . S
In39 O40 2.294 . S
In39 O41 2.326 . S
In39 O45 2.266 . S
In39 O46 2.326 1_554 S
In39 O47 2.266 . S
In39 O48 2.326 . S
In39 O50 2.294 . S
In39 O51 2.326 . S
O40 In39 2.294 . S
O40 C49 1.240 . S
O41 In39 2.326 . S
O41 C49 1.252 . S
C42 O45 1.252 1_556 S
C42 O46 1.260 . S
C43 O50 1.240 . S
C43 O51 1.252 . S
C44 O47 1.252 . S
C44 O48 1.260 . S
O45 In39 2.266 . S
O45 C42 1.252 1_554 S
O46 In39 2.326 1_556 S
O46 C42 1.260 . S
O47 In39 2.266 . S
O47 C44 1.252 . S
O48 In39 2.326 . S
O48 C44 1.260 . S
C49 O40 1.240 . S
C49 O41 1.252 . S
O50 In39 2.294 . S
O50 C43 1.240 . S
O51 In39 2.326 . S
O51 C43 1.252 . S
In52 O53 2.294 . S
In52 O54 2.326 . S
In52 O58 2.266 . S
In52 O59 2.326 . S
In52 O60 2.266 . S
In52 O61 2.326 . S
In52 O63 2.294 . S
In52 O64 2.326 . S
O53 In52 2.294 . S
O53 C62 1.240 . S
O54 In52 2.326 . S
O54 C62 1.252 . S
C55 O58 1.252 . S
C55 O59 1.260 . S
C56 O63 1.240 . S
C56 O64 1.252 . S
C57 O60 1.252 . S
C57 O61 1.260 . S
O58 In52 2.266 . S
O58 C55 1.252 . S
O59 In52 2.326 . S
O59 C55 1.260 . S
O60 In52 2.266 . S
O60 C57 1.252 . S
O61 In52 2.326 . S
O61 C57 1.260 . S
C62 O53 1.240 . S
C62 O54 1.252 . S
O63 In52 2.294 . S
O63 C56 1.240 . S
O64 In52 2.326 . S
O64 C56 1.252 . S
In65 O66 2.294 . S
In65 O67 2.326 . S
In65 O71 2.266 . S
In65 O72 2.326 . S
In65 O73 2.266 . S
In65 O74 2.326 . S
In65 O76 2.294 . S
In65 O77 2.326 . S
O66 In65 2.294 . S
O66 C75 1.240 . S
O67 In65 2.326 . S
O67 C75 1.252 . S
C68 O71 1.252 . S
C68 O72 1.260 . S
C69 O76 1.240 . S
C69 O77 1.252 . S
C70 O73 1.252 . S
C70 O74 1.260 . S
O71 In65 2.266 . S
O71 C68 1.252 . S
O72 In65 2.326 . S
O72 C68 1.260 . S
O73 In65 2.266 . S
O73 C70 1.252 . S
O74 In65 2.326 . S
O74 C70 1.260 . S
C75 O66 1.240 . S
C75 O67 1.252 . S
O76 In65 2.294 . S
O76 C69 1.240 . S
O77 In65 2.326 . S
O77 C69 1.252 . S
In78 O79 2.294 . S
In78 O80 2.326 . S
In78 O84 2.266 . S
In78 O85 2.326 . S
In78 O86 2.266 . S
In78 O87 2.326 . S
In78 O89 2.294 . S
In78 O90 2.326 . S
O79 In78 2.294 . S
O79 C88 1.240 . S
O80 In78 2.326 . S
O80 C88 1.252 . S
C81 O84 1.252 . S
C81 O85 1.260 . S
C82 O89 1.240 . S
C82 O90 1.252 . S
C83 O86 1.252 . S
C83 O87 1.260 . S
O84 In78 2.266 . S
O84 C81 1.252 . S
O85 In78 2.326 . S
O85 C81 1.260 . S
O86 In78 2.266 . S
O86 C83 1.252 . S
O87 In78 2.326 . S
O87 C83 1.260 . S
C88 O79 1.240 . S
C88 O80 1.252 . S
O89 In78 2.294 . S
O89 C82 1.240 . S
O90 In78 2.326 . S
O90 C82 1.252 . S
In91 O92 2.294 . S
In91 O93 2.326 . S
In91 O97 2.266 . S
In91 O98 2.326 1_556 S
In91 O99 2.266 . S
In91 O100 2.326 . S
In91 O102 2.294 . S
In91 O103 2.326 . S
O92 In91 2.294 . S
O92 C101 1.240 . S
O93 In91 2.326 . S
O93 C101 1.252 . S
C94 O97 1.252 1_554 S
C94 O98 1.260 . S
C95 O102 1.240 . S
C95 O103 1.252 . S
C96 O99 1.252 . S
C96 O100 1.260 . S
O97 In91 2.266 . S
O97 C94 1.252 1_556 S
O98 In91 2.326 1_554 S
O98 C94 1.260 . S
O99 In91 2.266 . S
O99 C96 1.252 . S
O100 In91 2.326 . S
O100 C96 1.260 . S
C101 O92 1.240 . S
C101 O93 1.252 . S
O102 In91 2.294 . S
O102 C95 1.240 . S
O103 In91 2.326 . S
O103 C95 1.252 . S
In104 O105 2.294 . S
In104 O106 2.326 . S
In104 O110 2.266 . S
In104 O111 2.326 . S
In104 O112 2.266 . S
In104 O113 2.326 . S
In104 O115 2.294 . S
In104 O116 2.326 . S
O105 In104 2.294 . S
O105 C114 1.240 . S
O106 In104 2.326 . S
O106 C114 1.252 . S
C107 O110 1.252 . S
C107 O111 1.260 . S
C108 O115 1.240 . S
C108 O116 1.252 . S
C109 O112 1.252 . S
C109 O113 1.260 . S
O110 In104 2.266 . S
O110 C107 1.252 . S
O111 In104 2.326 . S
O111 C107 1.260 . S
O112 In104 2.266 . S
O112 C109 1.252 . S
O113 In104 2.326 . S
O113 C109 1.260 . S
C114 O105 1.240 . S
C114 O106 1.252 . S
O115 In104 2.294 . S
O115 C108 1.240 . S
O116 In104 2.326 . S
O116 C108 1.252 . S
In117 O118 2.294 . S
In117 O119 2.326 . S
In117 O123 2.266 . S
In117 O124 2.326 . S
In117 O125 2.266 . S
In117 O126 2.326 . S
In117 O128 2.294 . S
In117 O129 2.326 . S
O118 In117 2.294 . S
O118 C127 1.240 . S
O119 In117 2.326 . S
O119 C127 1.252 . S
C120 O123 1.252 . S
C120 O124 1.260 . S
C121 O128 1.240 . S
C121 O129 1.252 . S
C122 O125 1.252 . S
C122 O126 1.260 . S
O123 In117 2.266 . S
O123 C120 1.252 . S
O124 In117 2.326 . S
O124 C120 1.260 . S
O125 In117 2.266 . S
O125 C122 1.252 . S
O126 In117 2.326 . S
O126 C122 1.260 . S
C127 O118 1.240 . S
C127 O119 1.252 . S
O128 In117 2.294 . S
O128 C121 1.240 . S
O129 In117 2.326 . S
O129 C121 1.252 . S
In130 O131 2.294 . S
In130 O132 2.326 . S
In130 O136 2.266 . S
In130 O137 2.326 . S
In130 O138 2.266 . S
In130 O139 2.326 1_556 S
In130 O141 2.294 . S
In130 O142 2.326 . S
O131 In130 2.294 . S
O131 C140 1.240 . S
O132 In130 2.326 . S
O132 C140 1.252 . S
C133 O136 1.252 . S
C133 O137 1.260 . S
C134 O141 1.240 . S
C134 O142 1.252 . S
C135 O138 1.252 1_554 S
C135 O139 1.260 . S
O136 In130 2.266 . S
O136 C133 1.252 . S
O137 In130 2.326 . S
O137 C133 1.260 . S
O138 In130 2.266 . S
O138 C135 1.252 1_556 S
O139 In130 2.326 1_554 S
O139 C135 1.260 . S
C140 O131 1.240 . S
C140 O132 1.252 . S
O141 In130 2.294 . S
O141 C134 1.240 . S
O142 In130 2.326 . S
O142 C134 1.252 . S
In143 O144 2.294 . S
In143 O145 2.326 . S
In143 O149 2.266 . S
In143 O150 2.326 . S
In143 O151 2.266 . S
In143 O152 2.326 . S
In143 O154 2.294 . S
In143 O155 2.326 . S
O144 In143 2.294 . S
O144 C153 1.240 . S
O145 In143 2.326 . S
O145 C153 1.252 . S
C146 O149 1.252 . S
C146 O150 1.260 . S
C147 O154 1.240 . S
C147 O155 1.252 . S
C148 O151 1.252 . S
C148 O152 1.260 . S
O149 In143 2.266 . S
O149 C146 1.252 . S
O150 In143 2.326 . S
O150 C146 1.260 . S
O151 In143 2.266 . S
O151 C148 1.252 . S
O152 In143 2.326 . S
O152 C148 1.260 . S
C153 O144 1.240 . S
C153 O145 1.252 . S
O154 In143 2.294 . S
O154 C147 1.240 . S
O155 In143 2.326 . S
O155 C147 1.252 . S
H156 C162 0.930 . S
H157 C166 0.930 . S
H158 C171 0.929 . S
H159 C169 0.929 . S
H160 C164 0.929 . S
H161 C170 0.929 . S
C162 H156 0.930 . S
C162 C163 1.367 . S
C162 C170 1.378 . S
C163 C162 1.367 . S
C163 C171 1.433 . S
C164 H160 0.929 . S
C164 C166 1.378 . S
C164 C168 1.350 . S
C165 C168 1.463 . S
C165 C170 1.350 . S
C165 N173 1.427 . S
C166 H157 0.930 . S
C166 C164 1.378 . S
C166 C167 1.367 . S
C167 C166 1.367 . S
C167 C169 1.433 . S
C168 C164 1.350 . S
C168 C165 1.463 . S
C168 N172 1.427 . S
C169 H159 0.929 . S
C169 C167 1.433 . S
C169 N172 1.384 . S
C170 H161 0.929 . S
C170 C162 1.378 . S
C170 C165 1.350 . S
C171 H158 0.929 . S
C171 C163 1.433 . S
C171 N173 1.384 . S
N172 C168 1.427 . S
N172 C169 1.384 . S
N173 C165 1.427 . S
N173 C171 1.384 . S
H174 C180 0.930 . S
H175 C184 0.930 . S
H176 C189 0.929 . S
H177 C187 0.929 . S
H178 C182 0.929 . S
H179 C188 0.929 . S
C180 H174 0.930 . S
C180 C181 1.367 . S
C180 C188 1.378 . S
C181 C180 1.367 . S
C181 C189 1.433 . S
C182 H178 0.929 . S
C182 C184 1.378 . S
C182 C186 1.350 . S
C183 C186 1.463 . S
C183 C188 1.350 . S
C183 N191 1.427 . S
C184 H175 0.930 . S
C184 C182 1.378 . S
C184 C185 1.367 . S
C185 C184 1.367 . S
C185 C187 1.433 . S
C186 C182 1.350 . S
C186 C183 1.463 . S
C186 N190 1.427 . S
C187 H177 0.929 . S
C187 C185 1.433 . S
C187 N190 1.384 . S
C188 H179 0.929 . S
C188 C180 1.378 . S
C188 C183 1.350 . S
C189 H176 0.929 . S
C189 C181 1.433 . S
C189 N191 1.384 . S
N190 C186 1.427 . S
N190 C187 1.384 . S
N191 C183 1.427 . S
N191 C189 1.384 . S
H192 C198 0.930 . S
H193 C202 0.930 . S
H194 C207 0.929 . S
H195 C205 0.929 . S
H196 C200 0.929 . S
H197 C206 0.929 . S
C198 H192 0.930 . S
C198 C199 1.367 . S
C198 C206 1.378 . S
C199 C198 1.367 . S
C199 C207 1.433 . S
C200 H196 0.929 . S
C200 C202 1.378 . S
C200 C204 1.350 . S
C201 C204 1.463 1_556 S
C201 C206 1.350 . S
C201 N209 1.427 . S
C202 H193 0.930 . S
C202 C200 1.378 . S
C202 C203 1.367 . S
C203 C202 1.367 . S
C203 C205 1.433 . S
C204 C200 1.350 . S
C204 C201 1.463 1_554 S
C204 N208 1.427 . S
C205 H195 0.929 . S
C205 C203 1.433 . S
C205 N208 1.384 . S
C206 H197 0.929 . S
C206 C198 1.378 . S
C206 C201 1.350 . S
C207 H194 0.929 . S
C207 C199 1.433 . S
C207 N209 1.384 . S
N208 C204 1.427 . S
N208 C205 1.384 . S
N209 C201 1.427 . S
N209 C207 1.384 . S
H210 C216 0.930 . S
H211 C220 0.930 . S
H212 C225 0.929 . S
H213 C223 0.929 . S
H214 C218 0.929 . S
H215 C224 0.929 . S
C216 H210 0.930 . S
C216 C217 1.367 . S
C216 C224 1.378 . S
C217 C216 1.367 . S
C217 C225 1.433 . S
C218 H214 0.929 . S
C218 C220 1.378 . S
C218 C222 1.350 . S
C219 C222 1.463 . S
C219 C224 1.350 . S
C219 N227 1.427 . S
C220 H211 0.930 . S
C220 C218 1.378 . S
C220 C221 1.367 . S
C221 C220 1.367 . S
C221 C223 1.433 . S
C222 C218 1.350 . S
C222 C219 1.463 . S
C222 N226 1.427 . S
C223 H213 0.929 . S
C223 C221 1.433 . S
C223 N226 1.384 . S
C224 H215 0.929 . S
C224 C216 1.378 . S
C224 C219 1.350 . S
C225 H212 0.929 . S
C225 C217 1.433 . S
C225 N227 1.384 . S
N226 C222 1.427 . S
N226 C223 1.384 . S
N227 C219 1.427 . S
N227 C225 1.384 . S
H228 C234 0.930 . S
H229 C238 0.930 . S
H230 C243 0.929 . S
H231 C241 0.929 . S
H232 C236 0.929 . S
H233 C242 0.929 . S
C234 H228 0.930 . S
C234 C235 1.367 . S
C234 C242 1.378 . S
C235 C234 1.367 . S
C235 C243 1.433 . S
C236 H232 0.929 . S
C236 C238 1.378 . S
C236 C240 1.350 . S
C237 C240 1.463 . S
C237 C242 1.350 . S
C237 N245 1.427 . S
C238 H229 0.930 . S
C238 C236 1.378 . S
C238 C239 1.367 . S
C239 C238 1.367 . S
C239 C241 1.433 . S
C240 C236 1.350 . S
C240 C237 1.463 . S
C240 N244 1.427 . S
C241 H231 0.929 . S
C241 C239 1.433 . S
C241 N244 1.384 . S
C242 H233 0.929 . S
C242 C234 1.378 . S
C242 C237 1.350 . S
C243 H230 0.929 . S
C243 C235 1.433 . S
C243 N245 1.384 . S
N244 C240 1.427 . S
N244 C241 1.384 . S
N245 C237 1.427 . S
N245 C243 1.384 . S
H246 C252 0.930 . S
H247 C256 0.930 . S
H248 C261 0.929 . S
H249 C259 0.929 . S
H250 C254 0.929 . S
H251 C260 0.929 . S
C252 H246 0.930 . S
C252 C253 1.367 . S
C252 C260 1.378 . S
C253 C252 1.367 . S
C253 C261 1.433 . S
C254 H250 0.929 . S
C254 C256 1.378 . S
C254 C258 1.350 . S
C255 C258 1.463 1_554 S
C255 C260 1.350 . S
C255 N263 1.427 . S
C256 H247 0.930 . S
C256 C254 1.378 . S
C256 C257 1.367 . S
C257 C256 1.367 . S
C257 C259 1.433 . S
C258 C254 1.350 . S
C258 C255 1.463 1_556 S
C258 N262 1.427 . S
C259 H249 0.929 . S
C259 C257 1.433 . S
C259 N262 1.384 . S
C260 H251 0.929 . S
C260 C252 1.378 . S
C260 C255 1.350 . S
C261 H248 0.929 . S
C261 C253 1.433 . S
C261 N263 1.384 . S
N262 C258 1.427 . S
N262 C259 1.384 . S
N263 C255 1.427 . S
N263 C261 1.384 . S
H264 C270 0.930 . S
H265 C274 0.930 . S
H266 C279 0.929 . S
H267 C277 0.929 . S
H268 C272 0.929 . S
H269 C278 0.929 . S
C270 H264 0.930 . S
C270 C271 1.367 1_556 S
C270 C278 1.378 . S
C271 C270 1.367 1_554 S
C271 C279 1.433 . S
C272 H268 0.929 . S
C272 C274 1.378 . S
C272 C276 1.350 1_554 S
C273 C276 1.463 1_554 S
C273 C278 1.350 1_554 S
C273 N281 1.427 . S
C274 H265 0.930 . S
C274 C272 1.378 . S
C274 C275 1.367 1_554 S
C275 C274 1.367 1_556 S
C275 C277 1.433 . S
C276 C272 1.350 1_556 S
C276 C273 1.463 1_556 S
C276 N280 1.427 . S
C277 H267 0.929 . S
C277 C275 1.433 . S
C277 N280 1.384 . S
C278 H269 0.929 . S
C278 C270 1.378 . S
C278 C273 1.350 1_556 S
C279 H266 0.929 . S
C279 C271 1.433 . S
C279 N281 1.384 . S
N280 C276 1.427 . S
N280 C277 1.384 . S
N281 C273 1.427 . S
N281 C279 1.384 . S
H282 C288 0.930 . S
H283 C292 0.930 . S
H284 C297 0.929 . S
H285 C295 0.929 . S
H286 C290 0.929 . S
H287 C296 0.929 . S
C288 H282 0.930 . S
C288 C289 1.367 . S
C288 C296 1.378 . S
C289 C288 1.367 . S
C289 C297 1.433 . S
C290 H286 0.929 . S
C290 C292 1.378 . S
C290 C294 1.350 . S
C291 C294 1.463 . S
C291 C296 1.350 . S
C291 N299 1.427 . S
C292 H283 0.930 . S
C292 C290 1.378 . S
C292 C293 1.367 . S
C293 C292 1.367 . S
C293 C295 1.433 . S
C294 C290 1.350 . S
C294 C291 1.463 . S
C294 N298 1.427 . S
C295 H285 0.929 . S
C295 C293 1.433 . S
C295 N298 1.384 . S
C296 H287 0.929 . S
C296 C288 1.378 . S
C296 C291 1.350 . S
C297 H284 0.929 . S
C297 C289 1.433 . S
C297 N299 1.384 . S
N298 C294 1.427 . S
N298 C295 1.384 . S
N299 C291 1.427 . S
N299 C297 1.384 . S
H300 C306 0.930 . S
H301 C310 0.930 . S
H302 C315 0.929 . S
H303 C313 0.929 . S
H304 C308 0.929 . S
H305 C314 0.929 . S
C306 H300 0.930 . S
C306 C307 1.367 . S
C306 C314 1.378 . S
C307 C306 1.367 . S
C307 C315 1.433 . S
C308 H304 0.929 . S
C308 C310 1.378 . S
C308 C312 1.350 . S
C309 C312 1.463 . S
C309 C314 1.350 . S
C309 N317 1.427 . S
C310 H301 0.930 . S
C310 C308 1.378 . S
C310 C311 1.367 . S
C311 C310 1.367 . S
C311 C313 1.433 . S
C312 C308 1.350 . S
C312 C309 1.463 . S
C312 N316 1.427 . S
C313 H303 0.929 . S
C313 C311 1.433 . S
C313 N316 1.384 . S
C314 H305 0.929 . S
C314 C306 1.378 . S
C314 C309 1.350 . S
C315 H302 0.929 . S
C315 C307 1.433 . S
C315 N317 1.384 . S
N316 C312 1.427 . S
N316 C313 1.384 . S
N317 C309 1.427 . S
N317 C315 1.384 . S
H318 C324 0.930 1_556 S
H319 C328 0.930 1_554 S
H320 C333 0.929 . S
H321 C331 0.929 . S
H322 C326 0.929 . S
H323 C332 0.929 . S
C324 H318 0.930 1_554 S
C324 C325 1.367 . S
C324 C332 1.378 1_554 S
C325 C324 1.367 . S
C325 C333 1.433 . S
C326 H322 0.929 . S
C326 C328 1.378 1_554 S
C326 C330 1.350 1_554 S
C327 C330 1.463 1_554 S
C327 C332 1.350 1_554 S
C327 N335 1.427 . S
C328 H319 0.930 1_556 S
C328 C326 1.378 1_556 S
C328 C329 1.367 . S
C329 C328 1.367 . S
C329 C331 1.433 . S
C330 C326 1.350 1_556 S
C330 C327 1.463 1_556 S
C330 N334 1.427 . S
C331 H321 0.929 . S
C331 C329 1.433 . S
C331 N334 1.384 . S
C332 H323 0.929 . S
C332 C324 1.378 1_556 S
C332 C327 1.350 1_556 S
C333 H320 0.929 . S
C333 C325 1.433 . S
C333 N335 1.384 . S
N334 C330 1.427 . S
N334 C331 1.384 . S
N335 C327 1.427 . S
N335 C333 1.384 . S
H336 C342 0.930 . S
H337 C346 0.930 . S
H338 C351 0.929 . S
H339 C349 0.929 . S
H340 C344 0.929 . S
H341 C350 0.929 . S
C342 H336 0.930 . S
C342 C343 1.367 . S
C342 C350 1.378 . S
C343 C342 1.367 . S
C343 C351 1.433 . S
C344 H340 0.929 . S
C344 C346 1.378 . S
C344 C348 1.350 . S
C345 C348 1.463 . S
C345 C350 1.350 . S
C345 N353 1.427 . S
C346 H337 0.930 . S
C346 C344 1.378 . S
C346 C347 1.367 . S
C347 C346 1.367 . S
C347 C349 1.433 . S
C348 C344 1.350 . S
C348 C345 1.463 . S
C348 N352 1.427 . S
C349 H339 0.929 . S
C349 C347 1.433 . S
C349 N352 1.384 . S
C350 H341 0.929 . S
C350 C342 1.378 . S
C350 C345 1.350 . S
C351 H338 0.929 . S
C351 C343 1.433 . S
C351 N353 1.384 . S
N352 C348 1.427 . S
N352 C349 1.384 . S
N353 C345 1.427 . S
N353 C351 1.384 . S
H354 C360 0.930 . S
H355 C364 0.930 . S
H356 C369 0.929 . S
H357 C367 0.929 . S
H358 C362 0.929 . S
H359 C368 0.929 . S
C360 H354 0.930 . S
C360 C361 1.367 . S
C360 C368 1.378 . S
C361 C360 1.367 . S
C361 C369 1.433 . S
C362 H358 0.929 . S
C362 C364 1.378 . S
C362 C366 1.350 . S
C363 C366 1.463 . S
C363 C368 1.350 . S
C363 N371 1.427 . S
C364 H355 0.930 . S
C364 C362 1.378 . S
C364 C365 1.367 . S
C365 C364 1.367 . S
C365 C367 1.433 . S
C366 C362 1.350 . S
C366 C363 1.463 . S
C366 N370 1.427 . S
C367 H357 0.929 . S
C367 C365 1.433 . S
C367 N370 1.384 . S
C368 H359 0.929 . S
C368 C360 1.378 . S
C368 C363 1.350 . S
C369 H356 0.929 . S
C369 C361 1.433 . S
C369 N371 1.384 . S
N370 C366 1.427 . S
N370 C367 1.384 . S
N371 C363 1.427 . S
N371 C369 1.384 . S
H372 C378 0.930 . S
H373 C382 0.930 . S
H374 C387 0.929 . S
H375 C385 0.929 . S
H376 C380 0.929 . S
H377 C386 0.929 . S
C378 H372 0.930 . S
C378 C379 1.367 . S
C378 C386 1.378 . S
C379 C378 1.367 . S
C379 C387 1.433 . S
C380 H376 0.929 . S
C380 C382 1.378 . S
C380 C384 1.350 . S
C381 C384 1.463 . S
C381 C386 1.350 . S
C381 N389 1.427 . S
C382 H373 0.930 . S
C382 C380 1.378 . S
C382 C383 1.367 . S
C383 C382 1.367 . S
C383 C385 1.433 . S
C384 C380 1.350 . S
C384 C381 1.463 . S
C384 N388 1.427 . S
C385 H375 0.929 . S
C385 C383 1.433 . S
C385 N388 1.384 . S
C386 H377 0.929 . S
C386 C378 1.378 . S
C386 C381 1.350 . S
C387 H374 0.929 . S
C387 C379 1.433 . S
C387 N389 1.384 . S
N388 C384 1.427 . S
N388 C385 1.384 . S
N389 C381 1.427 . S
N389 C387 1.384 . S
H390 C396 0.930 . S
H391 C400 0.930 . S
H392 C405 0.929 . S
H393 C403 0.929 . S
H394 C398 0.929 . S
H395 C404 0.929 . S
C396 H390 0.930 . S
C396 C397 1.367 . S
C396 C404 1.378 . S
C397 C396 1.367 . S
C397 C405 1.433 . S
C398 H394 0.929 . S
C398 C400 1.378 . S
C398 C402 1.350 . S
C399 C402 1.463 1_655 S
C399 C404 1.350 . S
C399 N407 1.427 . S
C400 H391 0.930 . S
C400 C398 1.378 . S
C400 C401 1.367 . S
C401 C400 1.367 . S
C401 C403 1.433 . S
C402 C398 1.350 . S
C402 C399 1.463 1_455 S
C402 N406 1.427 . S
C403 H393 0.929 . S
C403 C401 1.433 . S
C403 N406 1.384 . S
C404 H395 0.929 . S
C404 C396 1.378 . S
C404 C399 1.350 . S
C405 H392 0.929 . S
C405 C397 1.433 . S
C405 N407 1.384 . S
N406 C402 1.427 . S
N406 C403 1.384 . S
N407 C399 1.427 . S
N407 C405 1.384 . S
H408 C414 0.930 . S
H409 C418 0.930 . S
H410 C423 0.929 . S
H411 C421 0.929 . S
H412 C416 0.929 . S
H413 C422 0.929 . S
C414 H408 0.930 . S
C414 C415 1.367 . S
C414 C422 1.378 . S
C415 C414 1.367 . S
C415 C423 1.433 . S
C416 H412 0.929 . S
C416 C418 1.378 . S
C416 C420 1.350 . S
C417 C420 1.463 1_545 S
C417 C422 1.350 . S
C417 N425 1.427 . S
C418 H409 0.930 . S
C418 C416 1.378 . S
C418 C419 1.367 . S
C419 C418 1.367 . S
C419 C421 1.433 . S
C420 C416 1.350 . S
C420 C417 1.463 1_565 S
C420 N424 1.427 . S
C421 H411 0.929 . S
C421 C419 1.433 . S
C421 N424 1.384 . S
C422 H413 0.929 . S
C422 C414 1.378 . S
C422 C417 1.350 . S
C423 H410 0.929 . S
C423 C415 1.433 . S
C423 N425 1.384 . S
N424 C420 1.427 . S
N424 C421 1.384 . S
N425 C417 1.427 . S
N425 C423 1.384 . S
H426 C432 0.930 . S
H427 C436 0.930 . S
H428 C441 0.929 . S
H429 C439 0.929 . S
H430 C434 0.929 . S
H431 C440 0.929 . S
C432 H426 0.930 . S
C432 C433 1.367 . S
C432 C440 1.378 . S
C433 C432 1.367 . S
C433 C441 1.433 . S
C434 H430 0.929 . S
C434 C436 1.378 . S
C434 C438 1.350 . S
C435 C438 1.463 . S
C435 C440 1.350 . S
C435 N443 1.427 . S
C436 H427 0.930 . S
C436 C434 1.378 . S
C436 C437 1.367 . S
C437 C436 1.367 . S
C437 C439 1.433 . S
C438 C434 1.350 . S
C438 C435 1.463 . S
C438 N442 1.427 . S
C439 H429 0.929 . S
C439 C437 1.433 . S
C439 N442 1.384 . S
C440 H431 0.929 . S
C440 C432 1.378 . S
C440 C435 1.350 . S
C441 H428 0.929 . S
C441 C433 1.433 . S
C441 N443 1.384 . S
N442 C438 1.427 . S
N442 C439 1.384 . S
N443 C435 1.427 . S
N443 C441 1.384 . S
H444 C450 0.930 . S
H445 C454 0.930 . S
H446 C459 0.929 . S
H447 C457 0.929 . S
H448 C452 0.929 . S
H449 C458 0.929 . S
C450 H444 0.930 . S
C450 C451 1.367 . S
C450 C458 1.378 . S
C451 C450 1.367 . S
C451 C459 1.433 . S
C452 H448 0.929 . S
C452 C454 1.378 . S
C452 C456 1.350 . S
C453 C456 1.463 1_455 S
C453 C458 1.350 . S
C453 N461 1.427 . S
C454 H445 0.930 . S
C454 C452 1.378 . S
C454 C455 1.367 . S
C455 C454 1.367 . S
C455 C457 1.433 . S
C456 C452 1.350 . S
C456 C453 1.463 1_655 S
C456 N460 1.427 . S
C457 H447 0.929 . S
C457 C455 1.433 . S
C457 N460 1.384 . S
C458 H449 0.929 . S
C458 C450 1.378 . S
C458 C453 1.350 . S
C459 H446 0.929 . S
C459 C451 1.433 . S
C459 N461 1.384 . S
N460 C456 1.427 . S
N460 C457 1.384 . S
N461 C453 1.427 . S
N461 C459 1.384 . S
H462 C468 0.930 . S
H463 C472 0.930 . S
H464 C477 0.929 . S
H465 C475 0.929 . S
H466 C470 0.929 . S
H467 C476 0.929 . S
C468 H462 0.930 . S
C468 C469 1.367 . S
C468 C476 1.378 . S
C469 C468 1.367 . S
C469 C477 1.433 . S
C470 H466 0.929 . S
C470 C472 1.378 . S
C470 C474 1.350 . S
C471 C474 1.463 1_565 S
C471 C476 1.350 . S
C471 N479 1.427 . S
C472 H463 0.930 . S
C472 C470 1.378 . S
C472 C473 1.367 . S
C473 C472 1.367 . S
C473 C475 1.433 . S
C474 C470 1.350 . S
C474 C471 1.463 1_545 S
C474 N478 1.427 . S
C475 H465 0.929 . S
C475 C473 1.433 . S
C475 N478 1.384 . S
C476 H467 0.929 . S
C476 C468 1.378 . S
C476 C471 1.350 . S
C477 H464 0.929 . S
C477 C469 1.433 . S
C477 N479 1.384 . S
N478 C474 1.427 . S
N478 C475 1.384 . S
N479 C471 1.427 . S
N479 C477 1.384 . S
H480 C486 0.930 . S
H481 C490 0.930 . S
H482 C495 0.929 . S
H483 C493 0.929 . S
H484 C488 0.929 . S
H485 C494 0.929 . S
C486 H480 0.930 . S
C486 C487 1.367 . S
C486 C494 1.378 . S
C487 C486 1.367 . S
C487 C495 1.433 . S
C488 H484 0.929 . S
C488 C490 1.378 . S
C488 C492 1.350 . S
C489 C492 1.463 . S
C489 C494 1.350 . S
C489 N497 1.427 . S
C490 H481 0.930 . S
C490 C488 1.378 . S
C490 C491 1.367 . S
C491 C490 1.367 . S
C491 C493 1.433 . S
C492 C488 1.350 . S
C492 C489 1.463 . S
C492 N496 1.427 . S
C493 H483 0.929 . S
C493 C491 1.433 . S
C493 N496 1.384 . S
C494 H485 0.929 . S
C494 C486 1.378 . S
C494 C489 1.350 . S
C495 H482 0.929 . S
C495 C487 1.433 . S
C495 N497 1.384 . S
N496 C492 1.427 . S
N496 C493 1.384 . S
N497 C489 1.427 . S
N497 C495 1.384 . S
H498 C504 0.930 . S
H499 C508 0.930 . S
H500 C513 0.929 . S
H501 C511 0.929 . S
H502 C506 0.929 . S
H503 C512 0.929 . S
C504 H498 0.930 . S
C504 C505 1.367 . S
C504 C512 1.378 . S
C505 C504 1.367 . S
C505 C513 1.433 . S
C506 H502 0.929 . S
C506 C508 1.378 . S
C506 C510 1.350 . S
C507 C510 1.463 . S
C507 C512 1.350 . S
C507 N515 1.427 . S
C508 H499 0.930 . S
C508 C506 1.378 . S
C508 C509 1.367 . S
C509 C508 1.367 . S
C509 C511 1.433 . S
C510 C506 1.350 . S
C510 C507 1.463 . S
C510 N514 1.427 . S
C511 H501 0.929 . S
C511 C509 1.433 . S
C511 N514 1.384 . S
C512 H503 0.929 . S
C512 C504 1.378 . S
C512 C507 1.350 . S
C513 H500 0.929 . S
C513 C505 1.433 . S
C513 N515 1.384 . S
N514 C510 1.427 . S
N514 C511 1.384 . S
N515 C507 1.427 . S
N515 C513 1.384 . S
H516 C522 0.930 . S
H517 C526 0.930 . S
H518 C531 0.929 . S
H519 C529 0.929 . S
H520 C524 0.929 . S
H521 C530 0.929 . S
C522 H516 0.930 . S
C522 C523 1.367 . S
C522 C530 1.378 . S
C523 C522 1.367 . S
C523 C531 1.433 . S
C524 H520 0.929 . S
C524 C526 1.378 . S
C524 C528 1.350 . S
C525 C528 1.463 . S
C525 C530 1.350 . S
C525 N533 1.427 . S
C526 H517 0.930 . S
C526 C524 1.378 . S
C526 C527 1.367 . S
C527 C526 1.367 . S
C527 C529 1.433 . S
C528 C524 1.350 . S
C528 C525 1.463 . S
C528 N532 1.427 . S
C529 H519 0.929 . S
C529 C527 1.433 . S
C529 N532 1.384 . S
C530 H521 0.929 . S
C530 C522 1.378 . S
C530 C525 1.350 . S
C531 H518 0.929 . S
C531 C523 1.433 . S
C531 N533 1.384 . S
N532 C528 1.427 . S
N532 C529 1.384 . S
N533 C525 1.427 . S
N533 C531 1.384 . S
H534 C540 0.930 . S
H535 C544 0.930 . S
H536 C549 0.929 . S
H537 C547 0.929 . S
H538 C542 0.929 . S
H539 C548 0.929 . S
C540 H534 0.930 . S
C540 C541 1.367 . S
C540 C548 1.378 . S
C541 C540 1.367 . S
C541 C549 1.433 . S
C542 H538 0.929 . S
C542 C544 1.378 . S
C542 C546 1.350 . S
C543 C546 1.463 . S
C543 C548 1.350 . S
C543 N551 1.427 . S
C544 H535 0.930 . S
C544 C542 1.378 . S
C544 C545 1.367 . S
C545 C544 1.367 . S
C545 C547 1.433 . S
C546 C542 1.350 . S
C546 C543 1.463 . S
C546 N550 1.427 . S
C547 H537 0.929 . S
C547 C545 1.433 . S
C547 N550 1.384 . S
C548 H539 0.929 . S
C548 C540 1.378 . S
C548 C543 1.350 . S
C549 H536 0.929 . S
C549 C541 1.433 . S
C549 N551 1.384 . S
N550 C546 1.427 . S
N550 C547 1.384 . S
N551 C543 1.427 . S
N551 C549 1.384 . S
H552 C558 0.930 . S
H553 C562 0.930 . S
H554 C567 0.929 . S
H555 C565 0.929 . S
H556 C560 0.929 . S
H557 C566 0.929 . S
C558 H552 0.930 . S
C558 C559 1.367 . S
C558 C566 1.378 . S
C559 C558 1.367 . S
C559 C567 1.433 . S
C560 H556 0.929 . S
C560 C562 1.378 . S
C560 C564 1.350 . S
C561 C564 1.463 . S
C561 C566 1.350 . S
C561 N569 1.427 . S
C562 H553 0.930 . S
C562 C560 1.378 . S
C562 C563 1.367 . S
C563 C562 1.367 . S
C563 C565 1.433 . S
C564 C560 1.350 . S
C564 C561 1.463 . S
C564 N568 1.427 . S
C565 H555 0.929 . S
C565 C563 1.433 . S
C565 N568 1.384 . S
C566 H557 0.929 . S
C566 C558 1.378 . S
C566 C561 1.350 . S
C567 H554 0.929 . S
C567 C559 1.433 . S
C567 N569 1.384 . S
N568 C564 1.427 . S
N568 C565 1.384 . S
N569 C561 1.427 . S
N569 C567 1.384 . S
H570 C576 0.930 . S
H571 C580 0.930 . S
H572 C585 0.929 . S
H573 C583 0.929 . S
H574 C578 0.929 . S
H575 C584 0.929 . S
C576 H570 0.930 . S
C576 C577 1.367 . S
C576 C584 1.378 . S
C577 C576 1.367 . S
C577 C585 1.433 . S
C578 H574 0.929 . S
C578 C580 1.378 . S
C578 C582 1.350 . S
C579 C582 1.463 . S
C579 C584 1.350 . S
C579 N587 1.427 . S
C580 H571 0.930 . S
C580 C578 1.378 . S
C580 C581 1.367 . S
C581 C580 1.367 . S
C581 C583 1.433 . S
C582 C578 1.350 . S
C582 C579 1.463 . S
C582 N586 1.427 . S
C583 H573 0.929 . S
C583 C581 1.433 . S
C583 N586 1.384 . S
C584 H575 0.929 . S
C584 C576 1.378 . S
C584 C579 1.350 . S
C585 H572 0.929 . S
C585 C577 1.433 . S
C585 N587 1.384 . S
N586 C582 1.427 . S
N586 C583 1.384 . S
N587 C579 1.427 . S
N587 C585 1.384 . S
C163 C10 1.405 . S
C167 C88 1.401 . S
C181 C23 1.407 . S
C185 C101 1.406 . S
C199 C36 1.402 . S
C203 C114 1.406 . S
C217 C49 1.406 . S
C221 C127 1.402 . S
C235 C62 1.407 . S
C239 C134 1.406 . S
C253 C147 1.400 . S
C257 C75 1.397 . S
C271 C5 1.360 . S
C275 C133 1.359 . S
C289 C18 1.358 . S
C293 C146 1.364 . S
C307 C31 1.365 . S
C311 C83 1.366 . S
C325 C44 1.357 . S
C329 C96 1.362 . S
C343 C57 1.359 . S
C347 C109 1.358 . S
C361 C70 1.358 . S
C365 C122 1.366 . S
C379 C4 1.453 . S
C383 C43 1.450 . S
C397 C17 1.449 . S
C401 C56 1.451 . S
C415 C69 1.443 . S
C419 C30 1.443 . S
C433 C82 1.443 . S
C437 C121 1.443 . S
C451 C140 1.448 . S
C455 C95 1.446 . S
C469 C108 1.457 . S
C473 C153 1.456 . S
C487 C81 1.116 . S
C491 C3 1.110 . S
C505 C16 1.115 . S
C509 C94 1.120 . S
C523 C29 1.105 . S
C527 C107 1.111 . S
C541 C120 1.115 . S
C545 C42 1.109 . S
C559 C135 1.105 . S
C563 C55 1.104 . S
C577 C68 1.118 . S
C581 C148 1.113 . S
