# Generated by pormake.
# Topology ukf, (4)-cn, num edge types: 1
# Building blocks:
#     Node 0, Type 0, BuildingBlock: ICAMEG_clean_sbu_1, # of connection points: 4
#     Node 1, Type 0, BuildingBlock: ICAMEG_clean_sbu_1, # of connection points: 4
#     Node 2, Type 0, BuildingBlock: ICAMEG_clean_sbu_1, # of connection points: 4
#     Node 3, Type 0, BuildingBlock: ICAMEG_clean_sbu_1, # of connection points: 4
#     Node 4, Type 0, BuildingBlock: ICAMEG_clean_sbu_1, # of connection points: 4
#     Node 5, Type 0, BuildingBlock: ICAMEG_clean_sbu_1, # of connection points: 4
#     Node 6, Type 0, BuildingBlock: ICAMEG_clean_sbu_1, # of connection points: 4
#     Node 7, Type 0, BuildingBlock: ICAMEG_clean_sbu_1, # of connection points: 4
#     Node 8, Type 0, BuildingBlock: ICAMEG_clean_sbu_1, # of connection points: 4
#     Node 9, Type 0, BuildingBlock: ICAMEG_clean_sbu_1, # of connection points: 4
#     Node 10, Type 0, BuildingBlock: ICAMEG_clean_sbu_1, # of connection points: 4
#     Node 11, Type 0, BuildingBlock: ICAMEG_clean_sbu_1, # of connection points: 4
#     Edge 12, Type (0, 0), BuildingBlock: MIFKUJ_clean_linker_0, # of connection points: 2
#     Edge 13, Type (0, 0), BuildingBlock: MIFKUJ_clean_linker_0, # of connection points: 2
#     Edge 14, Type (0, 0), BuildingBlock: MIFKUJ_clean_linker_0, # of connection points: 2
#     Edge 15, Type (0, 0), BuildingBlock: MIFKUJ_clean_linker_0, # of connection points: 2
#     Edge 16, Type (0, 0), BuildingBlock: MIFKUJ_clean_linker_0, # of connection points: 2
#     Edge 17, Type (0, 0), BuildingBlock: MIFKUJ_clean_linker_0, # of connection points: 2
#     Edge 18, Type (0, 0), BuildingBlock: MIFKUJ_clean_linker_0, # of connection points: 2
#     Edge 19, Type (0, 0), BuildingBlock: MIFKUJ_clean_linker_0, # of connection points: 2
#     Edge 20, Type (0, 0), BuildingBlock: MIFKUJ_clean_linker_0, # of connection points: 2
#     Edge 21, Type (0, 0), BuildingBlock: MIFKUJ_clean_linker_0, # of connection points: 2
#     Edge 22, Type (0, 0), BuildingBlock: MIFKUJ_clean_linker_0, # of connection points: 2
#     Edge 23, Type (0, 0), BuildingBlock: MIFKUJ_clean_linker_0, # of connection points: 2
#     Edge 24, Type (0, 0), BuildingBlock: MIFKUJ_clean_linker_0, # of connection points: 2
#     Edge 25, Type (0, 0), BuildingBlock: MIFKUJ_clean_linker_0, # of connection points: 2
#     Edge 26, Type (0, 0), BuildingBlock: MIFKUJ_clean_linker_0, # of connection points: 2
#     Edge 27, Type (0, 0), BuildingBlock: MIFKUJ_clean_linker_0, # of connection points: 2
#     Edge 28, Type (0, 0), BuildingBlock: MIFKUJ_clean_linker_0, # of connection points: 2
#     Edge 29, Type (0, 0), BuildingBlock: MIFKUJ_clean_linker_0, # of connection points: 2
#     Edge 30, Type (0, 0), BuildingBlock: MIFKUJ_clean_linker_0, # of connection points: 2
#     Edge 31, Type (0, 0), BuildingBlock: MIFKUJ_clean_linker_0, # of connection points: 2
#     Edge 32, Type (0, 0), BuildingBlock: MIFKUJ_clean_linker_0, # of connection points: 2
#     Edge 33, Type (0, 0), BuildingBlock: MIFKUJ_clean_linker_0, # of connection points: 2
#     Edge 34, Type (0, 0), BuildingBlock: MIFKUJ_clean_linker_0, # of connection points: 2
#     Edge 35, Type (0, 0), BuildingBlock: MIFKUJ_clean_linker_0, # of connection points: 2
# Relax obj value: 0.105
# Max RMSD: 0.104
# Mean RMSD: 0.104
data_MOF--net-ukf--node1-ICAMEG_clean_sbu_1--edge1-MIFKUJ_clean_linker_0
_symmetry_space_group_name_H-M    P1
_symmetry_Int_Tables_number       1
_symmetry_cell_setting            triclinic
loop_
_symmetry_equiv_pos_as_xyz
'x, y, z'
_cell_length_a     43.40283
_cell_length_b     43.414824
_cell_length_c     91.146022
_cell_angle_alpha  89.989046
_cell_angle_beta   90.011877
_cell_angle_gamma 119.98744
loop_
_atom_site_label
_atom_site_type_symbol
_atom_site_fract_x
_atom_site_fract_y
_atom_site_fract_z
_atom_type_partial_charge
Co0 Co 0.4152 0.24616 0.04182 0.0
Co1 Co 0.43436 0.20359 0.06872 0.0
O2 O 0.42158 0.23868 0.06241 0.0
C3 C 0.46527 0.32017 0.05155 0.0
O4 O 0.48728 0.30946 0.05582 0.0
C5 C 0.38196 0.16666 0.09268 0.0
O6 O 0.37227 0.13648 0.08589 0.0
O7 O 0.39232 0.16545 0.05813 0.0
O8 O 0.3944 0.19424 0.03738 0.0
H9 H 0.45294 0.09906 0.06227 0.0
H10 H 0.38585 0.27236 0.06488 0.0
O11 O 0.43542 0.29823 0.04583 0.0
H12 H 0.28289 0.19027 0.03469 0.0
H13 H 0.38393 0.30163 1.00012 0.0
H14 H 0.42777 0.22027 0.01359 0.0
H15 H 0.3431 0.20162 0.02872 0.0
H16 H 0.39091 0.29051 0.02612 0.0
O17 O 0.40518 0.19593 0.0869 0.0
H18 H 0.43787 0.14422 0.05433 0.0
H19 H 0.45694 0.18743 0.09738 0.0
H20 H 0.4209 0.23039 0.98746 0.0
H21 H 0.32612 0.26203 0.07116 0.0
H22 H 0.39883 0.27133 0.98058 0.0
H23 H 0.27412 0.2207 0.05601 0.0
O24 O 0.46347 0.25413 0.03716 0.0
H25 H 0.49768 0.31082 0.10133 0.0
H26 H 0.5117 0.22634 0.0698 0.0
H27 H 0.56427 0.27474 0.08206 0.0
H28 H 0.55744 0.31732 0.098 0.0
H29 H 0.44585 0.26229 0.08875 0.0
H30 H 0.47218 0.14267 0.10578 0.0
H31 H 0.47025 0.0981 0.08818 0.0
O32 O 0.46421 0.21141 0.0508 0.0
C33 C 0.38378 0.1656 0.04472 0.0
C34 C 0.45391 0.11836 0.07005 0.0
C35 C 0.4647 0.14284 0.09447 0.0
N36 N 0.44657 0.16848 0.07536 0.0
C37 C 0.44541 0.14402 0.06561 0.0
C38 C 0.45604 0.16811 0.08964 0.0
C39 C 0.46361 0.11784 0.08458 0.0
C40 C 0.36337 0.2545 0.05819 0.0
N41 N 0.36798 0.23778 0.0464 0.0
C42 C 0.32961 0.24868 0.06182 0.0
C43 C 0.30044 0.22546 0.05332 0.0
C44 C 0.30534 0.20837 0.04136 0.0
C45 C 0.33949 0.21483 0.03806 0.0
C46 C 0.3935 0.28368 0.00298 0.0
C47 C 0.41795 0.23796 0.01069 0.0
C48 C 0.39758 0.27734 0.01768 0.0
N49 N 0.40944 0.25453 0.02136 0.0
C50 C 0.41421 0.24366 0.99587 0.0
C51 C 0.40186 0.26666 0.99202 0.0
C52 C 0.47653 0.23445 0.04051 0.0
C53 C 0.50098 0.29235 0.09446 0.0
C54 C 0.50849 0.24484 0.07667 0.0
C55 C 0.53836 0.27215 0.08361 0.0
C56 C 0.53451 0.29601 0.09256 0.0
N57 N 0.47562 0.24126 0.07865 0.0
C58 C 0.47169 0.2647 0.08735 0.0
Co59 Co 0.16542 0.40761 0.37741 0.0
Co60 Co 0.23632 0.43622 0.40059 0.0
O61 O 0.18606 0.42011 0.39706 0.0
C62 C 0.14126 0.45735 0.38727 0.0
O63 O 0.17466 0.48076 0.39002 0.0
C64 C 0.19813 0.38276 0.42411 0.0
O65 O 0.17534 0.3617 0.41422 0.0
O66 O 0.23087 0.39223 0.39138 0.0
O67 O 0.19724 0.38792 0.37193 0.0
H68 H 0.35855 0.46034 0.38688 0.0
H69 H 0.11744 0.38267 0.4032 0.0
O70 O 0.13294 0.42665 0.38238 0.0
H71 H 0.09414 0.27377 0.37696 0.0
H72 H 0.06507 0.36149 0.34087 0.0
H73 H 0.19454 0.41408 0.34743 0.0
H74 H 0.13806 0.33287 0.36743 0.0
H75 H 0.09169 0.37621 0.3656 0.0
O76 O 0.22415 0.4128 0.42035 0.0
H77 H 0.29519 0.44005 0.38261 0.0
H78 H 0.28423 0.46575 0.42656 0.0
H79 H 0.16901 0.39946 0.32251 0.0
H80 H 0.073 0.32411 0.41303 0.0
H81 H 0.10382 0.37297 0.31912 0.0
H82 H 0.0612 0.26913 0.3999 0.0
O83 O 0.2018 0.4553 0.36995 0.0
H84 H 0.20034 0.50594 0.43337 0.0
H85 H 0.28811 0.5137 0.39703 0.0
H86 H 0.29373 0.56875 0.40737 0.0
H87 H 0.24972 0.56508 0.42572 0.0
H88 H 0.19541 0.45155 0.42258 0.0
H89 H 0.34744 0.48584 0.43134 0.0
H90 H 0.38508 0.4833 0.41139 0.0
O91 O 0.25031 0.46069 0.38113 0.0
C92 C 0.21855 0.38035 0.37861 0.0
C93 C 0.34242 0.4615 0.39566 0.0
C94 C 0.33617 0.47581 0.42062 0.0
N95 N 0.28602 0.45181 0.40431 0.0
C96 C 0.30652 0.45016 0.3933 0.0
C97 C 0.30037 0.46428 0.41786 0.0
C98 C 0.35727 0.47437 0.40942 0.0
C99 C 0.11219 0.35887 0.39735 0.0
N100 N 0.13025 0.36119 0.38474 0.0
C101 C 0.08711 0.32578 0.403 0.0
C102 C 0.08055 0.29495 0.39564 0.0
C103 C 0.09905 0.29753 0.38278 0.0
C104 C 0.12398 0.33107 0.37746 0.0
C105 C 0.09351 0.37295 0.34221 0.0
C106 C 0.16613 0.40236 0.34605 0.0
C107 C 0.10874 0.38141 0.35619 0.0
N108 N 0.14461 0.39573 0.35796 0.0
C109 C 0.15183 0.39423 0.33191 0.0
C110 C 0.11526 0.37939 0.33001 0.0
C111 C 0.23541 0.4701 0.37148 0.0
C112 C 0.21977 0.50788 0.42542 0.0
C113 C 0.26879 0.51186 0.40498 0.0
C114 C 0.27216 0.54314 0.41082 0.0
C115 C 0.24745 0.54106 0.42111 0.0
N116 N 0.24157 0.47941 0.40927 0.0
C117 C 0.2172 0.47717 0.41933 0.0
Co118 Co 0.76014 0.17272 0.71053 0.0
Co119 Co 0.8021 0.23571 0.73747 0.0
O120 O 0.76864 0.18691 0.73121 0.0
C121 C 0.68571 0.14504 0.72098 0.0
O122 O 0.69474 0.17743 0.72514 0.0
C123 C 0.80902 0.18777 0.75985 0.0
O124 O 0.78949 0.15951 0.75184 0.0
O125 O 0.84089 0.23552 0.72572 0.0
O126 O 0.81133 0.20608 0.70547 0.0
H127 H 0.89747 0.36256 0.72916 0.0
H128 H 0.73557 0.11498 0.7327 0.0
O129 O 0.70865 0.13875 0.71509 0.0
H130 H 0.82327 0.10342 0.70232 0.0
H131 H 0.70499 0.0846 0.66927 0.0
H132 H 0.78227 0.21097 0.68208 0.0
H133 H 0.80851 0.15025 0.69711 0.0
H134 H 0.71751 0.10329 0.69516 0.0
O135 O 0.81689 0.2186 0.75527 0.0
H136 H 0.85432 0.30106 0.72186 0.0
H137 H 0.82215 0.27399 0.76623 0.0
H138 H 0.77078 0.1934 0.65604 0.0
H139 H 0.74911 0.06735 0.73814 0.0
H140 H 0.73187 0.1298 0.6495 0.0
H141 H 0.79338 0.06145 0.72294 0.0
O142 O 0.74923 0.21111 0.70606 0.0
H143 H 0.69557 0.18273 0.77099 0.0
H144 H 0.77676 0.28759 0.74162 0.0
H145 H 0.72758 0.28756 0.75509 0.0
H146 H 0.68661 0.23489 0.76999 0.0
H147 H 0.74468 0.18368 0.75718 0.0
H148 H 0.86521 0.33509 0.77402 0.0
H149 H 0.90313 0.37991 0.75542 0.0
O150 O 0.78867 0.25545 0.72032 0.0
C151 C 0.84018 0.22631 0.71235 0.0
C152 C 0.88103 0.34329 0.73737 0.0
C153 C 0.86296 0.32787 0.76255 0.0
N154 N 0.83556 0.28399 0.74358 0.0
C155 C 0.85647 0.30845 0.73329 0.0
C156 C 0.8387 0.29327 0.75807 0.0
C157 C 0.88422 0.353 0.7521 0.0
C158 C 0.75467 0.11244 0.72597 0.0
N159 N 0.77137 0.13555 0.71467 0.0
C160 C 0.76232 0.08548 0.72913 0.0
C161 C 0.78719 0.08222 0.72061 0.0
C162 C 0.80401 0.10579 0.70906 0.0
C163 C 0.7957 0.13241 0.70622 0.0
C164 C 0.72208 0.11238 0.67198 0.0
C165 C 0.76555 0.18321 0.67932 0.0
C166 C 0.72922 0.12314 0.68663 0.0
N167 N 0.75088 0.15816 0.69013 0.0
C168 C 0.75903 0.17343 0.66456 0.0
C169 C 0.73717 0.13775 0.66089 0.0
C170 C 0.76605 0.24372 0.70989 0.0
C171 C 0.71338 0.20594 0.76462 0.0
C172 C 0.75907 0.26454 0.74802 0.0
C173 C 0.73127 0.26471 0.75567 0.0
C174 C 0.70831 0.23517 0.76402 0.0
N175 N 0.76407 0.23588 0.74872 0.0
C176 C 0.74148 0.20674 0.75683 0.0
Co177 Co 0.5914 0.75975 0.04171 0.0
Co178 Co 0.56845 0.79716 0.0696 0.0
O179 O 0.58587 0.76628 0.06252 0.0
C180 C 0.54782 0.68538 0.05207 0.0
O181 O 0.52487 0.69411 0.05711 0.0
C182 C 0.62182 0.83902 0.09267 0.0
O183 O 0.62736 0.8682 0.08601 0.0
O184 O 0.60652 0.83796 0.05832 0.0
O185 O 0.60702 0.81078 0.03741 0.0
H186 H 0.53273 0.89027 0.0645 0.0
H187 H 0.62731 0.73837 0.06384 0.0
O188 O 0.57605 0.70853 0.04563 0.0
H189 H 0.72346 0.82732 0.03259 0.0
H190 H 0.62642 0.71033 0.99898 0.0
H191 H 0.57281 0.78232 0.01395 0.0
H192 H 0.66091 0.80973 0.02772 0.0
H193 H 0.62032 0.72049 0.02519 0.0
O194 O 0.60064 0.80874 0.08705 0.0
H195 H 0.55482 0.851 0.05589 0.0
H196 H 0.54568 0.80983 0.09896 0.0
H197 H 0.57875 0.77318 0.98764 0.0
H198 H 0.68952 0.75492 0.06901 0.0
H199 H 0.60572 0.73694 0.98 0.0
H200 H 0.73809 0.79972 0.05334 0.0
O201 O 0.54131 0.74697 0.03778 0.0
H202 H 0.52063 0.69014 0.10254 0.0
H203 H 0.48978 0.76576 0.07281 0.0
H204 H 0.44243 0.71412 0.08592 0.0
H205 H 0.45775 0.67598 0.10099 0.0
H206 H 0.56709 0.74176 0.08908 0.0
H207 H 0.523 0.84836 0.10796 0.0
H208 H 0.51661 0.88906 0.09073 0.0
O209 O 0.53538 0.78512 0.05249 0.0
C210 C 0.61483 0.83875 0.04481 0.0
C211 C 0.5355 0.87272 0.07214 0.0
C212 C 0.53015 0.84925 0.09655 0.0
N213 N 0.55153 0.82813 0.07689 0.0
C214 C 0.54804 0.85044 0.06733 0.0
C215 C 0.54293 0.82746 0.09137 0.0
C216 C 0.52647 0.87203 0.08686 0.0
C217 C 0.6483 0.75772 0.05692 0.0
N218 N 0.64048 0.77291 0.04545 0.0
C219 C 0.68347 0.76706 0.05992 0.0
C220 C 0.71072 0.79223 0.05113 0.0
C221 C 0.70254 0.80773 0.0395 0.0
C222 C 0.66707 0.79773 0.03682 0.0
C223 C 0.61473 0.72627 1.00217 0.0
C224 C 0.58485 0.76679 0.01072 0.0
C225 C 0.61114 0.73206 0.01699 0.0
N226 N 0.59657 0.7523 0.02109 0.0
C227 C 0.58802 0.76158 0.9958 0.0
C228 C 0.60311 0.74121 0.99153 0.0
C229 C 0.52475 0.76282 0.04193 0.0
C230 C 0.51363 0.70664 0.09606 0.0
C231 C 0.49666 0.74919 0.07925 0.0
C232 C 0.46973 0.72004 0.0867 0.0
C233 C 0.47835 0.69867 0.09516 0.0
N234 N 0.53126 0.75697 0.08024 0.0
C235 C 0.53986 0.73602 0.08846 0.0
Co236 Co 0.84181 0.60053 0.37557 0.0
Co237 Co 0.77618 0.57759 0.40145 0.0
O238 O 0.82546 0.59252 0.39601 0.0
C239 C 0.86642 0.55144 0.38599 0.0
O240 O 0.83373 0.52947 0.39031 0.0
C241 C 0.82227 0.63187 0.4242 0.0
O242 O 0.85027 0.64374 0.4157 0.0
O243 O 0.77868 0.61843 0.39048 0.0
O244 O 0.81016 0.62055 0.37058 0.0
H245 H 0.65124 0.55071 0.39151 0.0
H246 H 0.89714 0.62914 0.39881 0.0
O247 O 0.87407 0.58095 0.38001 0.0
H248 H 0.91582 0.73359 0.37027 0.0
H249 H 0.93337 0.63649 0.33552 0.0
H250 H 0.80638 0.58921 0.34666 0.0
H251 H 0.868 0.6735 0.3636 0.0
H252 H 0.9124 0.62733 0.36115 0.0
O253 O 0.79205 0.60703 0.4199 0.0
H254 H 0.71311 0.56856 0.38507 0.0
H255 H 0.73479 0.55591 0.42944 0.0
H256 H 0.82625 0.59823 0.32088 0.0
H257 H 0.94576 0.68871 0.40568 0.0
H258 H 0.89017 0.62203 0.31517 0.0
H259 H 0.95522 0.7415 0.39141 0.0
O260 O 0.80316 0.55215 0.37001 0.0
H261 H 0.82118 0.51822 0.43584 0.0
H262 H 0.72378 0.49982 0.4026 0.0
H263 H 0.7207 0.44846 0.41549 0.0
H264 H 0.76957 0.45749 0.4323 0.0
H265 H 0.82343 0.56877 0.42259 0.0
H266 H 0.67323 0.53817 0.43638 0.0
H267 H 0.63092 0.53534 0.41733 0.0
O268 O 0.75775 0.5471 0.38353 0.0
C269 C 0.78956 0.62877 0.37741 0.0
C270 C 0.66938 0.55174 0.3999 0.0
C271 C 0.68174 0.54475 0.42508 0.0
N272 N 0.72751 0.56309 0.40684 0.0
C273 C 0.70444 0.56176 0.39632 0.0
C274 C 0.71661 0.55491 0.42109 0.0
C275 C 0.65801 0.54315 0.41439 0.0
C276 C 0.90127 0.65192 0.39246 0.0
N277 N 0.87955 0.64781 0.38088 0.0
C278 C 0.92876 0.68562 0.39644 0.0
C279 C 0.93402 0.71523 0.38845 0.0
C280 C 0.91188 0.71082 0.3766 0.0
C281 C 0.88465 0.67672 0.37294 0.0
C282 C 0.90546 0.62617 0.33786 0.0
C283 C 0.83427 0.59978 0.34427 0.0
C284 C 0.89342 0.62086 0.35236 0.0
N285 N 0.85823 0.60801 0.3554 0.0
C286 C 0.84535 0.60474 0.32965 0.0
C287 C 0.88121 0.61806 0.32645 0.0
C288 C 0.7702 0.53662 0.37324 0.0
C289 C 0.79963 0.51397 0.42861 0.0
C290 C 0.74522 0.50402 0.40987 0.0
C291 C 0.74328 0.4748 0.41716 0.0
C292 C 0.7707 0.4799 0.4266 0.0
N293 N 0.77358 0.53743 0.41197 0.0
C294 C 0.80066 0.54256 0.42113 0.0
Co295 Co 0.24758 0.82979 0.70908 0.0
Co296 Co 0.20303 0.76747 0.73565 0.0
O297 O 0.23797 0.81618 0.72981 0.0
C298 C 0.32135 0.85825 0.72044 0.0
O299 O 0.31183 0.82617 0.72522 0.0
C300 C 0.19606 0.81528 0.75809 0.0
O301 O 0.21428 0.84347 0.74986 0.0
O302 O 0.16563 0.77033 0.72405 0.0
O303 O 0.19657 0.79593 0.70357 0.0
H304 H 0.10345 0.64289 0.7265 0.0
H305 H 0.27016 0.88781 0.73094 0.0
O306 O 0.29879 0.86421 0.71398 0.0
H307 H 0.18431 0.89816 0.69883 0.0
H308 H 0.30393 0.91618 0.66733 0.0
H309 H 0.22763 0.7902 0.68094 0.0
H310 H 0.19995 0.85163 0.69442 0.0
H311 H 0.29031 0.89867 0.69331 0.0
O312 O 0.1893 0.78468 0.75367 0.0
H313 H 0.14846 0.70407 0.71963 0.0
H314 H 0.18206 0.72761 0.76402 0.0
H315 H 0.24038 0.80654 0.65484 0.0
H316 H 0.25575 0.93516 0.73558 0.0
H317 H 0.27878 0.86996 0.64789 0.0
H318 H 0.21239 0.94044 0.71951 0.0
O319 O 0.25922 0.79154 0.70553 0.0
H320 H 0.30728 0.81368 0.77017 0.0
H321 H 0.22672 0.71392 0.73825 0.0
H322 H 0.27438 0.71086 0.7517 0.0
H323 H 0.315 0.76094 0.76785 0.0
H324 H 0.25955 0.81582 0.75641 0.0
H325 H 0.13718 0.66676 0.77138 0.0
H326 H 0.09758 0.62387 0.75254 0.0
O327 O 0.21507 0.74739 0.71822 0.0
C328 C 0.16715 0.77775 0.71042 0.0
C329 C 0.12062 0.6613 0.7348 0.0
C330 C 0.13952 0.67471 0.75999 0.0
N331 N 0.16807 0.71935 0.74139 0.0
C332 C 0.14622 0.69597 0.73098 0.0
C333 C 0.16483 0.70917 0.75576 0.0
C334 C 0.11732 0.65066 0.74942 0.0
C335 C 0.25149 0.89011 0.72382 0.0
N336 N 0.2358 0.86685 0.71248 0.0
C337 C 0.24334 0.9169 0.72654 0.0
C338 C 0.21898 0.91982 0.71753 0.0
C339 C 0.20318 0.89608 0.70594 0.0
C340 C 0.21199 0.86963 0.70355 0.0
C341 C 0.28709 0.88847 0.67022 0.0
C342 C 0.24416 0.81787 0.67801 0.0
C343 C 0.27931 0.87839 0.68491 0.0
N344 N 0.25789 0.84348 0.68863 0.0
C345 C 0.25138 0.82695 0.66321 0.0
C346 C 0.27296 0.86253 0.65931 0.0
C347 C 0.23994 0.75872 0.70872 0.0
C348 C 0.28959 0.79158 0.76325 0.0
C349 C 0.24423 0.73582 0.74527 0.0
C350 C 0.27118 0.73392 0.75286 0.0
C351 C 0.29395 0.76202 0.76192 0.0
N352 N 0.23991 0.7648 0.74671 0.0
C353 C 0.26233 0.79254 0.75549 0.0
Co354 Co 0.76232 0.59485 0.62838 0.0
Co355 Co 0.80014 0.56645 0.60198 0.0
O356 O 0.76902 0.58505 0.60793 0.0
C357 C 0.68777 0.54579 0.619 0.0
O358 O 0.69776 0.52313 0.61485 0.0
C359 C 0.81483 0.62501 0.58036 0.0
O360 O 0.80152 0.63885 0.58937 0.0
O361 O 0.8404 0.60374 0.61375 0.0
O362 O 0.81392 0.61423 0.63273 0.0
H363 H 0.88896 0.52675 0.61145 0.0
H364 H 0.73457 0.62204 0.60495 0.0
O365 O 0.71031 0.57566 0.62451 0.0
H366 H 0.82396 0.72842 0.63147 0.0
H367 H 0.71068 0.6358 0.66822 0.0
H368 H 0.78862 0.58633 0.65729 0.0
H369 H 0.81117 0.66864 0.63899 0.0
H370 H 0.72031 0.62384 0.64268 0.0
O371 O 0.81717 0.59801 0.58415 0.0
H372 H 0.84835 0.54872 0.61818 0.0
H373 H 0.81905 0.5456 0.57349 0.0
H374 H 0.77993 0.5981 0.68298 0.0
H375 H 0.74604 0.68129 0.59725 0.0
H376 H 0.7407 0.62302 0.68858 0.0
H377 H 0.79117 0.73504 0.61049 0.0
O378 O 0.7524 0.54686 0.63483 0.0
H379 H 0.69533 0.52067 0.56781 0.0
H380 H 0.77005 0.48849 0.59745 0.0
H381 H 0.71923 0.44184 0.58368 0.0
H382 H 0.68147 0.45784 0.56869 0.0
H383 H 0.7461 0.56632 0.58189 0.0
H384 H 0.8593 0.52347 0.5663 0.0
H385 H 0.89446 0.51372 0.58536 0.0
O386 O 0.78371 0.53326 0.61909 0.0
C387 C 0.8415 0.61769 0.62623 0.0
C388 C 0.87356 0.5306 0.60306 0.0
C389 C 0.85701 0.5289 0.57771 0.0
N390 N 0.83112 0.5482 0.59626 0.0
C391 C 0.85049 0.54302 0.6068 0.0
C392 C 0.83433 0.54152 0.58185 0.0
C393 C 0.87672 0.52341 0.58841 0.0
C394 C 0.75396 0.64525 0.61088 0.0
N395 N 0.77223 0.64183 0.62238 0.0
C396 C 0.76048 0.67876 0.60642 0.0
C397 C 0.78585 0.7089 0.61383 0.0
C398 C 0.8043 0.70522 0.62558 0.0
C399 C 0.7971 0.67128 0.62974 0.0
C400 C 0.72786 0.62497 0.66592 0.0
C401 C 0.77163 0.5973 0.65963 0.0
C402 C 0.73336 0.61807 0.65148 0.0
N403 N 0.75515 0.60455 0.64849 0.0
C404 C 0.76676 0.60385 0.6742 0.0
C405 C 0.74473 0.61781 0.67734 0.0
C406 C 0.7644 0.52696 0.63048 0.0
C407 C 0.71159 0.51336 0.57429 0.0
C408 C 0.75359 0.49561 0.59107 0.0
C409 C 0.72494 0.46911 0.58323 0.0
C410 C 0.7038 0.47811 0.57481 0.0
N411 N 0.76107 0.53013 0.59053 0.0
C412 C 0.74049 0.53915 0.58227 0.0
Co413 Co 0.17238 0.76088 0.96259 0.0
Co414 Co 0.23208 0.8031 0.93457 0.0
O415 O 0.18383 0.76978 0.94161 0.0
C416 C 0.14192 0.68809 0.95022 0.0
O417 O 0.17177 0.69926 0.94296 0.0
C418 C 0.18235 0.81175 0.91374 0.0
O419 O 0.15479 0.79255 0.92216 0.0
O420 O 0.23361 0.84176 0.94693 0.0
O421 O 0.2066 0.81191 0.96746 0.0
H422 H 0.36007 0.89774 0.94087 0.0
H423 H 0.1121 0.73726 0.9418 0.0
O424 O 0.13772 0.70946 0.95843 0.0
H425 H 0.10514 0.82463 0.97414 0.0
H426 H 0.09038 0.70671 0.00582 0.0
H427 H 0.21487 0.78232 0.99001 0.0
H428 H 0.15213 0.80924 0.97766 0.0
H429 H 0.10519 0.71902 0.97956 0.0
O430 O 0.21337 0.81858 0.91757 0.0
H431 H 0.29932 0.85493 0.94918 0.0
H432 H 0.26712 0.82303 0.90514 0.0
H433 H 0.20122 0.77091 0.01638 0.0
H434 H 0.06427 0.75145 0.93804 0.0
H435 H 0.13858 0.73286 0.02444 0.0
H436 H 0.06067 0.79555 0.95424 0.0
O437 O 0.21076 0.74916 0.9655 0.0
H438 H 0.17522 0.69882 0.90002 0.0
H439 H 0.28226 0.77614 0.92911 0.0
H440 H 0.28036 0.72752 0.91447 0.0
H441 H 0.2266 0.68853 0.8997 0.0
H442 H 0.17823 0.74757 0.91479 0.0
H443 H 0.32742 0.86572 0.89636 0.0
H444 H 0.37444 0.90334 0.91429 0.0
O445 O 0.25355 0.78925 0.95091 0.0
C446 C 0.22594 0.84086 0.96051 0.0
C447 C 0.33983 0.88142 0.93296 0.0
C448 C 0.3215 0.86349 0.90797 0.0
N449 N 0.27974 0.83632 0.92768 0.0
C450 C 0.30541 0.85707 0.9376 0.0
C451 C 0.28737 0.83943 0.91302 0.0
C452 C 0.34787 0.88458 0.91804 0.0
C453 C 0.11055 0.75627 0.94896 0.0
N454 N 0.135 0.7725 0.95988 0.0
C455 C 0.08348 0.76429 0.94675 0.0
C456 C 0.0815 0.78907 0.95583 0.0
C457 C 0.10646 0.80544 0.96698 0.0
C458 C 0.13316 0.79676 0.96887 0.0
C459 C 0.11777 0.72339 1.00245 0.0
C460 C 0.18753 0.7659 0.99343 0.0
C461 C 0.12633 0.73041 0.9876 0.0
N462 N 0.16084 0.7516 0.98326 0.0
C463 C 0.17997 0.75946 0.00838 0.0
C464 C 0.14483 0.73808 0.01289 0.0
C465 C 0.24293 0.76612 0.96113 0.0
C466 C 0.19897 0.71586 0.90626 0.0
C467 C 0.25879 0.75937 0.92271 0.0
C468 C 0.25788 0.73187 0.91442 0.0
C469 C 0.22774 0.71002 0.90614 0.0
N470 N 0.23062 0.76522 0.92265 0.0
C471 C 0.20093 0.74376 0.9146 0.0
Co472 Co 0.41972 0.17519 0.29728 0.0
Co473 Co 0.44241 0.24015 0.27153 0.0
O474 O 0.42731 0.19068 0.2767 0.0
C475 C 0.46322 0.14533 0.28535 0.0
O476 O 0.48296 0.1756 0.27852 0.0
C477 C 0.38735 0.19644 0.24876 0.0
O478 O 0.36902 0.17158 0.25847 0.0
O479 O 0.39985 0.23602 0.2817 0.0
O480 O 0.40197 0.20884 0.30228 0.0
H481 H 0.46573 0.36374 0.28177 0.0
H482 H 0.38779 0.12018 0.27411 0.0
O483 O 0.43692 0.14085 0.29313 0.0
H484 H 0.28664 0.10657 0.30373 0.0
H485 H 0.38177 0.08529 0.33811 0.0
H486 H 0.43501 0.21249 0.3259 0.0
H487 H 0.34803 0.15217 0.31006 0.0
H488 H 0.39015 0.10494 0.3123 0.0
O489 O 0.41565 0.22461 0.25252 0.0
H490 H 0.44794 0.30174 0.28792 0.0
H491 H 0.46736 0.28321 0.24402 0.0
H492 H 0.42684 0.19397 0.35185 0.0
H493 H 0.32684 0.07378 0.26755 0.0
H494 H 0.40003 0.12995 0.35809 0.0
H495 H 0.27575 0.06687 0.28237 0.0
O496 O 0.46918 0.21259 0.30214 0.0
H497 H 0.50634 0.19905 0.23784 0.0
H498 H 0.52025 0.29319 0.27201 0.0
H499 H 0.57321 0.29772 0.26 0.0
H500 H 0.56647 0.25045 0.24275 0.0
H501 H 0.45408 0.19534 0.25022 0.0
H502 H 0.48508 0.34493 0.23738 0.0
H503 H 0.48449 0.38572 0.25634 0.0
O504 O 0.47083 0.25823 0.29005 0.0
C505 C 0.39156 0.22731 0.29511 0.0
C506 C 0.46616 0.34624 0.27341 0.0
C507 C 0.47698 0.33568 0.2485 0.0
N508 N 0.45671 0.28887 0.26636 0.0
C509 C 0.45615 0.3111 0.27683 0.0
C510 C 0.46679 0.3007 0.25232 0.0
C511 C 0.47665 0.35855 0.25914 0.0
C512 C 0.36572 0.11707 0.28071 0.0
N513 N 0.37148 0.13883 0.29246 0.0
C514 C 0.33125 0.09086 0.2769 0.0
C515 C 0.30259 0.08704 0.28521 0.0
C516 C 0.30869 0.10933 0.29718 0.0
C517 C 0.34351 0.13522 0.30067 0.0
C518 C 0.39339 0.11325 0.33553 0.0
C519 C 0.42311 0.18456 0.32853 0.0
C520 C 0.39826 0.12455 0.32094 0.0
N521 N 0.41276 0.15981 0.3176 0.0
C522 C 0.41865 0.17425 0.34324 0.0
C523 C 0.40364 0.13832 0.34674 0.0
C524 C 0.48332 0.24576 0.29954 0.0
C525 C 0.50962 0.21985 0.24531 0.0
C526 C 0.51706 0.27237 0.2646 0.0
C527 C 0.54717 0.27516 0.25779 0.0
C528 C 0.54335 0.24866 0.24809 0.0
N529 N 0.48403 0.24403 0.26181 0.0
C530 C 0.48009 0.21798 0.2523 0.0
Co531 Co 0.24568 0.40597 0.63063 0.0
Co532 Co 0.20341 0.42791 0.60471 0.0
O533 O 0.23807 0.41386 0.61026 0.0
C534 C 0.31967 0.45488 0.62059 0.0
O535 O 0.30934 0.47735 0.61657 0.0
C536 C 0.16672 0.37829 0.57982 0.0
O537 O 0.13635 0.3674 0.58665 0.0
O538 O 0.16507 0.38494 0.61473 0.0
O539 O 0.19387 0.38612 0.63536 0.0
H540 H 0.09965 0.44698 0.61291 0.0
H541 H 0.26984 0.37656 0.60683 0.0
O542 O 0.29752 0.42513 0.62633 0.0
H543 H 0.18684 0.2731 0.63656 0.0
H544 H 0.30062 0.37096 0.6713 0.0
H545 H 0.22114 0.41802 0.65929 0.0
H546 H 0.20008 0.33354 0.64327 0.0
H547 H 0.28904 0.37931 0.64552 0.0
O548 O 0.19579 0.40096 0.5859 0.0
H549 H 0.14448 0.43065 0.61994 0.0
H550 H 0.18752 0.45369 0.57686 0.0
H551 H 0.23176 0.40984 0.68521 0.0
H552 H 0.25759 0.3166 0.59979 0.0
H553 H 0.27176 0.38615 0.69135 0.0
H554 H 0.21579 0.26436 0.6147 0.0
O555 O 0.25525 0.45451 0.63582 0.0
H556 H 0.31176 0.49451 0.57293 0.0
H557 H 0.22654 0.50532 0.60525 0.0
H558 H 0.27577 0.55919 0.59408 0.0
H559 H 0.31875 0.55398 0.57775 0.0
H560 H 0.26242 0.44135 0.58447 0.0
H561 H 0.14309 0.47023 0.56935 0.0
H562 H 0.09876 0.46695 0.58745 0.0
O563 O 0.21138 0.45577 0.62327 0.0
C564 C 0.16517 0.37593 0.62808 0.0
C565 C 0.11883 0.44854 0.60493 0.0
C566 C 0.14321 0.46158 0.58048 0.0
N567 N 0.1686 0.44121 0.59883 0.0
C568 C 0.14429 0.43933 0.60884 0.0
C569 C 0.16828 0.45216 0.58479 0.0
C570 C 0.11834 0.45973 0.59064 0.0
C571 C 0.25178 0.35397 0.61341 0.0
N572 N 0.23585 0.35856 0.62548 0.0
C573 C 0.24488 0.32008 0.60935 0.0
C574 C 0.22139 0.29077 0.61772 0.0
C575 C 0.20513 0.29566 0.62998 0.0
C576 C 0.21267 0.32994 0.63371 0.0
C577 C 0.28308 0.38123 0.66876 0.0
C578 C 0.2384 0.40749 0.66187 0.0
C579 C 0.27648 0.38608 0.65419 0.0
N580 N 0.2542 0.39886 0.65091 0.0
C581 C 0.24439 0.40301 0.67657 0.0
C582 C 0.26687 0.38975 0.68001 0.0
C583 C 0.23553 0.46786 0.63311 0.0
C584 C 0.29311 0.4971 0.57997 0.0
C585 C 0.24517 0.5028 0.59819 0.0
C586 C 0.27296 0.53341 0.59187 0.0
C587 C 0.29705 0.53047 0.5827 0.0
N588 N 0.24139 0.47012 0.59542 0.0
C589 C 0.26499 0.46707 0.58648 0.0
Co590 Co 0.84007 0.24531 0.96314 0.0
Co591 Co 0.77074 0.20233 0.93911 0.0
O592 O 0.82089 0.23693 0.94312 0.0
C593 C 0.86607 0.31858 0.95182 0.0
O594 O 0.83416 0.30763 0.94648 0.0
C595 C 0.81116 0.1887 0.91593 0.0
O596 O 0.83632 0.19534 0.92549 0.0
O597 O 0.77594 0.16419 0.94881 0.0
O598 O 0.80809 0.19384 0.96849 0.0
H599 H 0.64796 0.10456 0.95235 0.0
H600 H 0.89084 0.26927 0.93829 0.0
O601 O 0.87282 0.29692 0.95856 0.0
H602 H 0.91177 0.18324 0.9655 0.0
H603 H 0.93709 0.2989 1.00118 0.0
H604 H 0.80824 0.22263 0.99273 0.0
H605 H 0.86654 0.19774 0.97395 0.0
H606 H 0.91276 0.28728 0.97605 0.0
O607 O 0.78363 0.19004 0.91971 0.0
H608 H 0.71119 0.14766 0.9569 0.0
H609 H 0.72401 0.18292 0.91267 0.0
H610 H 0.83147 0.23329 0.01803 0.0
H611 H 0.93672 0.25594 0.92958 0.0
H612 H 0.89634 0.27168 0.02238 0.0
H613 H 0.94732 0.21252 0.9432 0.0
O614 O 0.80309 0.25654 0.96981 0.0
H615 H 0.80683 0.30525 0.9047 0.0
H616 H 0.71883 0.22823 0.94162 0.0
H617 H 0.71289 0.27636 0.93008 0.0
H618 H 0.75701 0.31519 0.91143 0.0
H619 H 0.81213 0.2572 0.91671 0.0
H620 H 0.66097 0.13984 0.9076 0.0
H621 H 0.62243 0.10043 0.92755 0.0
O622 O 0.75559 0.21322 0.95822 0.0
C623 C 0.78753 0.16487 0.96174 0.0
C624 C 0.66447 0.1216 0.94357 0.0
C625 C 0.67178 0.14139 0.91846 0.0
N626 N 0.72126 0.16797 0.93509 0.0
C627 C 0.7003 0.14615 0.94609 0.0
C628 C 0.7075 0.16566 0.92138 0.0
C629 C 0.65017 0.11928 0.92965 0.0
C630 C 0.89557 0.25064 0.94436 0.0
N631 N 0.87605 0.23434 0.95661 0.0
C632 C 0.92147 0.24307 0.93934 0.0
C633 C 0.92735 0.21865 0.94696 0.0
C634 C 0.90738 0.20218 0.95947 0.0
C635 C 0.88168 0.21038 0.96416 0.0
C636 C 0.90878 0.28208 0.99942 0.0
C637 C 0.83652 0.23922 0.99453 0.0
C638 C 0.89484 0.27547 0.98522 0.0
N639 N 0.85914 0.2541 0.98292 0.0
C640 C 0.84951 0.24522 0.00888 0.0
C641 C 0.8859 0.26679 0.01131 0.0
C642 C 0.76963 0.23721 0.96804 0.0
C643 C 0.78739 0.28846 0.91279 0.0
C644 C 0.73829 0.24515 0.93359 0.0
C645 C 0.73471 0.27229 0.92705 0.0
C646 C 0.75946 0.29404 0.91658 0.0
N647 N 0.76574 0.2398 0.92979 0.0
C648 C 0.79015 0.26108 0.91957 0.0
Co649 Co 0.58868 0.83255 0.29577 0.0
Co650 Co 0.56168 0.7653 0.2706 0.0
O651 O 0.57789 0.81502 0.27557 0.0
C652 C 0.54064 0.85873 0.28559 0.0
O653 O 0.51903 0.8267 0.28052 0.0
C654 C 0.61729 0.80694 0.24796 0.0
O655 O 0.63739 0.82978 0.25803 0.0
O656 O 0.60425 0.76834 0.28031 0.0
O657 O 0.60854 0.80049 0.30028 0.0
H658 H 0.53618 0.64094 0.28077 0.0
H659 H 0.61493 0.88445 0.27131 0.0
O660 O 0.56956 0.86543 0.29188 0.0
H661 H 0.72245 0.9049 0.29795 0.0
H662 H 0.63183 0.92672 0.33501 0.0
H663 H 0.58034 0.79872 0.32486 0.0
H664 H 0.66292 0.85922 0.30638 0.0
H665 H 0.61893 0.90419 0.3096 0.0
O666 O 0.58744 0.78022 0.25139 0.0
H667 H 0.5556 0.70334 0.28689 0.0
H668 H 0.53443 0.72197 0.24328 0.0
H669 H 0.59313 0.82014 0.35042 0.0
H670 H 0.67393 0.93082 0.26262 0.0
H671 H 0.61906 0.88458 0.35562 0.0
H672 H 0.72823 0.94118 0.27594 0.0
O673 O 0.54056 0.79486 0.30233 0.0
H674 H 0.49804 0.80858 0.23788 0.0
H675 H 0.48348 0.71391 0.27193 0.0
H676 H 0.43054 0.71075 0.26043 0.0
H677 H 0.43759 0.75831 0.24332 0.0
H678 H 0.55031 0.81076 0.24959 0.0
H679 H 0.51505 0.65983 0.23665 0.0
H680 H 0.51571 0.61881 0.25549 0.0
O681 O 0.53467 0.74826 0.28942 0.0
C682 C 0.61604 0.77967 0.29319 0.0
C683 C 0.53568 0.65853 0.27248 0.0
C684 C 0.52387 0.66915 0.24771 0.0
N685 N 0.54599 0.71625 0.26549 0.0
C686 C 0.54657 0.69388 0.27589 0.0
C687 C 0.53498 0.70434 0.25152 0.0
C688 C 0.52423 0.64614 0.25829 0.0
C689 C 0.63841 0.88905 0.27725 0.0
N690 N 0.63546 0.86915 0.28934 0.0
C691 C 0.67176 0.91524 0.27224 0.0
C692 C 0.70221 0.92099 0.27971 0.0
C693 C 0.69899 0.90062 0.29205 0.0
C694 C 0.66521 0.87466 0.29673 0.0
C695 C 0.62057 0.89859 0.33288 0.0
C696 C 0.59179 0.82681 0.32703 0.0
C697 C 0.61312 0.88566 0.31852 0.0
N698 N 0.59908 0.85019 0.31575 0.0
C699 C 0.5989 0.83878 0.34153 0.0
C700 C 0.61341 0.87493 0.34444 0.0
C701 C 0.52528 0.76157 0.29976 0.0
C702 C 0.49461 0.78764 0.2453 0.0
C703 C 0.48681 0.73476 0.2645 0.0
C704 C 0.45672 0.7328 0.25802 0.0
C705 C 0.46071 0.75947 0.24839 0.0
N706 N 0.52001 0.7624 0.26137 0.0
C707 C 0.52412 0.78865 0.25193 0.0
H708 H 0.2241 0.84859 0.99019 0.0
H709 H 0.24958 0.90322 0.00438 0.0
H710 H 0.28716 0.96478 0.96457 0.0
H711 H 0.26265 0.90977 0.95019 0.0
H712 H 0.33659 0.99334 0.98486 0.0
H713 H 0.21227 0.95379 0.98359 0.0
H714 H 0.14826 0.91088 0.98635 0.0
H715 H 0.1631 0.90188 0.0324 0.0
H716 H 0.22735 0.94429 0.02987 0.0
H717 H 0.36737 0.15591 0.01552 0.0
H718 H 0.3389 0.10035 1.00182 0.0
H719 H 0.32469 0.04156 0.04176 0.0
H720 H 0.3539 0.09741 0.05571 0.0
H721 H 0.26324 0.01225 0.02161 0.0
H722 H 0.38873 0.05305 0.02218 0.0
H723 H 0.45195 0.09803 0.01889 0.0
H724 H 0.43348 0.10667 0.97318 0.0
H725 H 0.36993 0.06224 0.97627 0.0
C726 C 0.23765 0.87365 0.98436 0.0
C727 C 0.24101 0.87463 0.96898 0.0
C728 C 0.25213 0.90501 0.99254 0.0
C729 C 0.26975 0.93827 0.98557 0.0
C730 C 0.27355 0.93946 0.97022 0.0
C731 C 0.25938 0.90797 0.962 0.0
C732 C 0.28434 0.97162 0.99438 0.0
C733 C 0.32034 0.9976 0.99273 0.0
C734 C 0.26344 0.97711 0.0049 0.0
C735 C 0.2247 0.952 0.00651 0.0
C736 C 0.20193 0.9425 0.99429 0.0
C737 C 0.1656 0.91827 0.99581 0.0
C738 C 0.15164 0.90361 0.00954 0.0
C739 C 0.17397 0.91323 0.02178 0.0
C740 C 0.21034 0.93738 0.0203 0.0
C741 C 0.35802 0.13127 0.0215 0.0
C742 C 0.3632 0.13129 0.03677 0.0
C743 C 0.34174 0.09948 0.0136 0.0
C744 C 0.32996 0.0669 0.02075 0.0
C745 C 0.33366 0.0665 0.03604 0.0
C746 C 0.35039 0.09844 0.04399 0.0
C747 C 0.31525 0.0336 0.01205 0.0
C748 C 0.27932 0.00778 0.01372 0.0
C749 C 0.33608 0.02842 1.00146 0.0
C750 C 0.37447 0.05454 0.99949 0.0
C751 C 0.39807 0.06473 0.01145 0.0
C752 C 0.43399 0.09012 0.00962 0.0
C753 C 0.44672 0.10526 0.99584 0.0
C754 C 0.42357 0.09495 0.98385 0.0
C755 C 0.3876 0.06965 0.98564 0.0
H756 H 0.47453 0.12493 0.99444 0.0
H757 H 0.12351 0.88484 0.0107 0.0
H758 H 0.26628 0.36043 0.38803 0.0
H759 H 0.2931 0.3324 0.37365 0.0
H760 H 0.23011 0.32737 0.33615 0.0
H761 H 0.20243 0.35438 0.35053 0.0
H762 H 0.23392 0.26925 0.3371 0.0
H763 H 0.31796 0.39302 0.34005 0.0
H764 H 0.35609 0.45104 0.35188 0.0
H765 H 0.4137 0.40844 0.37421 0.0
H766 H 0.37543 0.34992 0.36275 0.0
H767 H 0.35001 0.25335 0.284 0.0
H768 H 0.31821 0.27746 0.29788 0.0
H769 H 0.35726 0.25849 0.33839 0.0
H770 H 0.38821 0.2337 0.32476 0.0
H771 H 0.36566 0.32966 0.33487 0.0
H772 H 0.2781 0.2045 0.33132 0.0
H773 H 0.24087 0.14873 0.31782 0.0
H774 H 0.19098 0.19799 0.29441 0.0
H775 H 0.22842 0.2543 0.3076 0.0
C776 C 0.25775 0.35296 0.37679 0.0
C777 C 0.23229 0.35997 0.37046 0.0
C778 C 0.27334 0.33714 0.36852 0.0
C779 C 0.26422 0.32838 0.35369 0.0
C780 C 0.23777 0.33399 0.34753 0.0
C781 C 0.22199 0.34957 0.3558 0.0
C782 C 0.28294 0.31437 0.34448 0.0
C783 C 0.26272 0.28276 0.3365 0.0
C784 C 0.32059 0.3318 0.34366 0.0
C785 C 0.34359 0.36695 0.35063 0.0
C786 C 0.33855 0.39591 0.34758 0.0
C787 C 0.36022 0.42891 0.3542 0.0
C788 C 0.38732 0.43342 0.36377 0.0
C789 C 0.39271 0.4049 0.36678 0.0
C790 C 0.37103 0.3718 0.36023 0.0
C791 C 0.35168 0.25418 0.29586 0.0
C792 C 0.37154 0.24141 0.30324 0.0
C793 C 0.33351 0.26795 0.30377 0.0
C794 C 0.33543 0.26977 0.31917 0.0
C795 C 0.35548 0.25738 0.32652 0.0
C796 C 0.373 0.24302 0.31868 0.0
C797 C 0.31662 0.28455 0.32771 0.0
C798 C 0.33686 0.31632 0.33551 0.0
C799 C 0.27908 0.26764 0.32816 0.0
C800 C 0.25636 0.23373 0.32032 0.0
C801 C 0.25945 0.20355 0.32319 0.0
C802 C 0.23826 0.17182 0.31562 0.0
C803 C 0.21364 0.16984 0.30523 0.0
C804 C 0.21011 0.19958 0.30244 0.0
C805 C 0.2313 0.2314 0.30996 0.0
H806 H 0.19725 0.14524 0.29938 0.0
H807 H 0.40416 0.45902 0.36885 0.0
H808 H 0.84843 0.22826 0.68263 0.0
H809 H 0.9032 0.25238 0.66859 0.0
H810 H 0.96398 0.28062 0.70873 0.0
H811 H 0.90883 0.25779 0.72297 0.0
H812 H 0.99702 0.33167 0.68988 0.0
H813 H 0.94673 0.20561 0.68709 0.0
H814 H 0.89964 0.14368 0.6826 0.0
H815 H 0.89415 0.16853 0.63741 0.0
H816 H 0.9408 0.23079 0.64169 0.0
H817 H 0.1553 0.35614 0.65697 0.0
H818 H 0.10001 0.32881 0.67089 0.0
H819 H 0.04152 0.32242 0.6317 0.0
H820 H 0.09705 0.35027 0.61755 0.0
H821 H 0.00834 0.25976 0.65014 0.0
H822 H 0.0597 0.38679 0.65368 0.0
H823 H 0.1089 0.4475 0.65857 0.0
H824 H 0.11426 0.41885 0.7032 0.0
H825 H 0.06555 0.35771 0.6985 0.0
C826 C 0.87335 0.23945 0.68855 0.0
C827 C 0.87407 0.24069 0.70399 0.0
C828 C 0.9048 0.25315 0.68045 0.0
C829 C 0.93789 0.26763 0.68754 0.0
C830 C 0.93883 0.26941 0.70297 0.0
C831 C 0.90726 0.25622 0.71111 0.0
C832 C 0.9713 0.28104 0.67878 0.0
C833 C 0.99958 0.31565 0.68135 0.0
C834 C 0.97471 0.26054 0.66742 0.0
C835 C 0.94708 0.22295 0.66475 0.0
C836 C 0.93535 0.19792 0.67621 0.0
C837 C 0.90874 0.16276 0.67371 0.0
C838 C 0.89387 0.1522 0.65974 0.0
C839 C 0.90567 0.17676 0.64823 0.0
C840 C 0.93222 0.21198 0.65069 0.0
C841 C 0.13075 0.34872 0.65119 0.0
C842 C 0.13082 0.35572 0.63609 0.0
C843 C 0.09911 0.3331 0.65923 0.0
C844 C 0.0667 0.32392 0.65238 0.0
C845 C 0.06629 0.32936 0.63721 0.0
C846 C 0.09807 0.34532 0.62914 0.0
C847 C 0.03366 0.31017 0.66127 0.0
C848 C 0.00559 0.27558 0.6587 0.0
C849 C 0.0306 0.3305 0.67272 0.0
C850 C 0.05917 0.36756 0.6757 0.0
C851 C 0.07151 0.39336 0.66452 0.0
C852 C 0.09931 0.42786 0.66725 0.0
C853 C 0.11474 0.43701 0.68118 0.0
C854 C 0.1023 0.41171 0.69242 0.0
C855 C 0.07459 0.37713 0.68972 0.0
H856 H 0.1363 0.46372 0.68327 0.0
H857 H 0.87325 0.12497 0.65782 0.0
H858 H 0.6163 0.8495 0.01535 0.0
H859 H 0.64666 0.9053 1.00197 0.0
H860 H 0.68592 0.9625 0.04269 0.0
H861 H 0.65406 0.90628 0.05632 0.0
H862 H 0.66748 0.99864 0.02484 0.0
H863 H 0.73886 0.9438 0.0196 0.0
H864 H 0.75012 0.89472 0.01401 0.0
H865 H 0.71711 0.89269 0.96943 0.0
H866 H 0.70503 0.94135 0.97482 0.0
H867 H 0.80032 0.15587 0.9904 0.0
H868 H 0.77307 0.10097 0.00465 0.0
H869 H 0.71645 0.04176 0.96626 0.0
H870 H 0.74335 0.09673 0.95183 0.0
H871 H 0.74637 0.00815 0.98355 0.0
H872 H 0.67381 0.06245 0.98937 0.0
H873 H 0.66435 0.11264 0.99506 0.0
H874 H 0.70209 0.1168 0.03897 0.0
H875 H 0.71249 0.06707 0.03345 0.0
C876 C 0.63141 0.87386 0.02152 0.0
C877 C 0.63315 0.8733 0.03693 0.0
C878 C 0.6489 0.90586 0.01382 0.0
C879 C 0.66943 0.93816 0.02125 0.0
C880 C 0.67049 0.93792 0.03668 0.0
C881 C 0.65237 0.90577 0.04446 0.0
C882 C 0.68998 0.97186 0.01279 0.0
C883 C 0.68516 1.00084 0.01598 0.0
C884 C 0.71271 0.97475 1.00102 0.0
C885 C 0.72081 0.94608 0.99765 0.0
C886 C 0.73385 0.93279 0.00862 0.0
C887 C 0.74037 0.90503 0.00549 0.0
C888 C 0.73429 0.89057 0.99138 0.0
C889 C 0.72179 0.90392 0.98036 0.0
C890 C 0.71514 0.93161 0.98344 0.0
C891 C 0.78236 0.13121 0.98489 0.0
C892 C 0.77391 0.13088 0.96994 0.0
C893 C 0.76674 0.09982 0.9931 0.0
C894 C 0.74247 0.06736 0.98656 0.0
C895 C 0.7351 0.06657 0.97152 0.0
C896 C 0.75049 0.09805 0.9633 0.0
C897 C 0.72364 0.03457 0.99558 0.0
C898 C 0.72882 0.00586 0.99248 0.0
C899 C 0.70149 0.03204 0.00747 0.0
C900 C 0.69425 0.06124 0.01095 0.0
C901 C 0.68031 0.07421 1.00022 0.0
C902 C 0.67477 0.10257 0.00341 0.0
C903 C 0.68268 0.11795 0.01736 0.0
C904 C 0.69601 0.10489 0.02816 0.0
C905 C 0.70173 0.0766 0.02501 0.0
H906 H 0.67842 0.13994 0.0198 0.0
H907 H 0.73931 0.86905 0.98898 0.0
H908 H 0.65284 0.80371 0.31899 0.0
H909 H 0.68479 0.77977 0.33243 0.0
H910 H 0.65904 0.70089 0.29875 0.0
H911 H 0.62716 0.72493 0.28504 0.0
H912 H 0.64616 0.67242 0.32726 0.0
H913 H 0.74063 0.76784 0.30029 0.0
H914 H 0.77641 0.82962 0.29151 0.0
H915 H 0.80507 0.86615 0.33587 0.0
H916 H 0.76901 0.80461 0.34493 0.0
H917 H 0.81086 0.66098 0.35054 0.0
H918 H 0.7841 0.6888 0.33604 0.0
H919 H 0.70959 0.6698 0.37092 0.0
H920 H 0.73622 0.64193 0.3856 0.0
H921 H 0.7738 0.74615 0.3404 0.0
H922 H 0.62861 0.64384 0.35463 0.0
H923 H 0.5939 0.58177 0.36325 0.0
H924 H 0.6684 0.55758 0.34278 0.0
H925 H 0.7032 0.61931 0.33383 0.0
C926 C 0.6542 0.78151 0.3143 0.0
C927 C 0.63749 0.76643 0.30083 0.0
C928 C 0.67251 0.76782 0.32204 0.0
C929 C 0.67441 0.7386 0.31659 0.0
C930 C 0.65788 0.72345 0.30317 0.0
C931 C 0.63984 0.73739 0.2953 0.0
C932 C 0.69336 0.72376 0.32505 0.0
C933 C 0.67407 0.68853 0.33011 0.0
C934 C 0.72984 0.74467 0.32872 0.0
C935 C 0.75187 0.78165 0.32329 0.0
C936 C 0.75435 0.78908 0.30818 0.0
C937 C 0.77471 0.82405 0.30315 0.0
C938 C 0.79294 0.8518 0.31313 0.0
C939 C 0.79092 0.84462 0.32816 0.0
C940 C 0.77055 0.8097 0.33324 0.0
C941 C 0.78907 0.66305 0.35526 0.0
C942 C 0.77567 0.649 0.36927 0.0
C943 C 0.77385 0.67908 0.34693 0.0
C944 C 0.74463 0.68108 0.35231 0.0
C945 C 0.73191 0.66824 0.36648 0.0
C946 C 0.74729 0.65241 0.37488 0.0
C947 C 0.72647 0.69504 0.34281 0.0
C948 C 0.74589 0.73007 0.33756 0.0
C949 C 0.69018 0.67387 0.33888 0.0
C950 C 0.66866 0.63629 0.34368 0.0
C951 C 0.63743 0.6252 0.35188 0.0
C952 C 0.61777 0.59009 0.35684 0.0
C953 C 0.629 0.56578 0.35361 0.0
C954 C 0.65979 0.57646 0.34532 0.0
C955 C 0.67948 0.6115 0.3403 0.0
H956 H 0.61383 0.53865 0.35751 0.0
H957 H 0.80868 0.87886 0.30922 0.0
H958 H 0.90789 0.63256 0.61682 0.0
H959 H 0.96366 0.66154 0.63065 0.0
H960 H 0.90914 0.67505 0.66749 0.0
H961 H 0.85379 0.64735 0.65365 0.0
H962 H 0.97084 0.73185 0.66499 0.0
H963 H 0.93012 0.60739 0.66602 0.0
H964 H 0.90867 0.54787 0.65541 0.0
H965 H 0.00705 0.58646 0.63201 0.0
H966 H 0.02893 0.64641 0.64234 0.0
H967 H 0.09892 0.75322 0.72034 0.0
H968 H 0.04406 0.72732 0.7057 0.0
H969 H 0.10472 0.74049 0.66642 0.0
H970 H 0.15953 0.76706 0.68081 0.0
H971 H 0.04061 0.67033 0.67032 0.0
H972 H 0.0801 0.79607 0.67069 0.0
H973 H 0.09931 0.85372 0.68273 0.0
H974 H 0.99967 0.80908 0.70563 0.0
H975 H 0.98011 0.75094 0.69392 0.0
C976 C 0.9078 0.642 0.62781 0.0
C977 C 0.87614 0.63738 0.63409 0.0
C978 C 0.93973 0.65838 0.63576 0.0
C979 C 0.94062 0.67 0.65025 0.0
C980 C 0.90928 0.66632 0.65637 0.0
C981 C 0.87749 0.65029 0.6484 0.0
C982 C 0.97387 0.68528 0.6592 0.0
C983 C 0.9858 0.71813 0.66625 0.0
C984 C 0.99374 0.66765 0.66085 0.0
C985 C 0.98101 0.63149 0.65483 0.0
C986 C 0.94711 0.60324 0.65854 0.0
C987 C 0.93487 0.56942 0.65258 0.0
C988 C 0.95642 0.56341 0.64299 0.0
C989 C 0.99035 0.59118 0.63941 0.0
C990 C 1.0027 0.62509 0.64533 0.0
C991 C 0.10058 0.75072 0.70858 0.0
C992 C 0.13369 0.76249 0.70176 0.0
C993 C 0.06923 0.7359 0.70024 0.0
C994 C 0.07036 0.73199 0.68498 0.0
C995 C 0.10325 0.74321 0.67818 0.0
C996 C 0.1346 0.75863 0.68644 0.0
C997 C 0.03735 0.71672 0.67601 0.0
C998 C 0.02553 0.68392 0.66899 0.0
C999 C 0.01723 0.73403 0.67462 0.0
C1000 C 0.02881 0.76905 0.68155 0.0
C1001 C 0.06242 0.79845 0.6784 0.0
C1002 C 0.07335 0.83124 0.68514 0.0
C1003 C 0.05076 0.83504 0.69497 0.0
C1004 C 0.01716 0.80608 0.69804 0.0
C1005 C 0.00614 0.77321 0.69134 0.0
H1006 H 0.05926 0.86044 0.70018 0.0
H1007 H 0.94686 0.53721 0.63836 0.0
H1008 H 0.71117 0.18472 0.98107 0.0
H1009 H 0.66462 0.18977 0.99394 0.0
H1010 H 0.72474 0.30393 0.98914 0.0
H1011 H 0.77243 0.29891 0.97671 0.0
H1012 H 0.68946 0.2855 0.01503 0.0
H1013 H 0.65956 0.25384 0.96485 0.0
H1014 H 0.6525 0.21935 0.94237 0.0
H1015 H 0.57275 0.12441 0.96353 0.0
H1016 H 0.5797 0.15821 0.98624 0.0
H1017 H 0.52854 0.29326 0.02638 0.0
H1018 H 0.58115 0.29886 0.01375 0.0
H1019 H 0.54557 0.18859 0.02283 0.0
H1020 H 0.49359 0.18298 0.03568 0.0
H1021 H 0.56973 0.21183 0.99295 0.0
H1022 H 0.60564 0.24381 0.04373 0.0
H1023 H 0.61397 0.2787 0.06621 0.0
H1024 H 0.68243 0.37513 0.04288 0.0
H1025 H 0.67424 0.34074 0.0202 0.0
C1026 C 0.71473 0.21094 0.98302 0.0
C1027 C 0.74507 0.24144 0.97783 0.0
C1028 C 0.68808 0.21381 0.9903 0.0
C1029 C 0.6907 0.24715 0.9921 0.0
C1030 C 0.72206 0.27793 0.98774 0.0
C1031 C 0.74924 0.27509 0.98069 0.0
C1032 C 0.65957 0.2492 0.99761 0.0
C1033 C 0.66344 0.26992 0.01003 0.0
C1034 C 0.62551 0.22879 0.99111 0.0
C1035 C 0.62028 0.20856 0.97729 0.0
C1036 C 0.64057 0.22559 0.96473 0.0
C1037 C 0.63663 0.20615 0.95195 0.0
C1038 C 0.61223 0.16971 0.95153 0.0
C1039 C 0.59164 0.15265 0.96388 0.0
C1040 C 0.59552 0.17194 0.97671 0.0
C1041 C 0.53188 0.2702 0.02558 0.0
C1042 C 0.50711 0.23776 0.03208 0.0
C1043 C 0.56191 0.27345 0.01841 0.0
C1044 C 0.5672 0.24415 0.01743 0.0
C1045 C 0.54192 0.21149 0.02349 0.0
C1046 C 0.51235 0.2084 0.03088 0.0
C1047 C 0.59959 0.24748 0.01051 0.0
C1048 C 0.5959 0.22781 0.99778 0.0
C1049 C 0.63378 0.26913 0.01662 0.0
C1050 C 0.63899 0.28978 0.03025 0.0
C1051 C 0.62223 0.27248 0.04337 0.0
C1052 C 0.62696 0.29215 0.05615 0.0
C1053 C 0.64856 0.32913 0.05596 0.0
C1054 C 0.66563 0.34649 0.043 0.0
C1055 C 0.661 0.32692 0.03019 0.0
H1056 H 0.65216 0.34432 0.06586 0.0
H1057 H 0.60922 0.15471 0.94163 0.0
H1058 H 0.29491 0.47985 0.35802 0.0
H1059 H 0.34082 0.53415 0.34642 0.0
H1060 H 0.27715 0.58382 0.35328 0.0
H1061 H 0.23011 0.52844 0.36436 0.0
H1062 H 0.31303 0.60589 0.3279 0.0
H1063 H 0.34404 0.59868 0.37745 0.0
H1064 H 0.35266 0.56973 0.39911 0.0
H1065 H 0.43255 0.55814 0.3761 0.0
H1066 H 0.4243 0.58681 0.35425 0.0
H1067 H 0.47642 0.77268 0.31454 0.0
H1068 H 0.42386 0.72804 0.32812 0.0
H1069 H 0.45461 0.64944 0.31948 0.0
H1070 H 0.50635 0.69328 0.30586 0.0
H1071 H 0.4334 0.65028 0.34904 0.0
H1072 H 0.39257 0.64655 0.29862 0.0
H1073 H 0.38225 0.6732 0.27661 0.0
H1074 H 0.32121 0.70679 0.30216 0.0
H1075 H 0.33098 0.68003 0.32433 0.0
C1076 C 0.29038 0.5021 0.35672 0.0
C1077 C 0.25917 0.50018 0.36207 0.0
C1078 C 0.31673 0.53321 0.35023 0.0
C1079 C 0.31295 0.56346 0.34943 0.0
C1080 C 0.28077 0.56091 0.35393 0.0
C1081 C 0.2539 0.52932 0.36017 0.0
C1082 C 0.34352 0.5979 0.3446 0.0
C1083 C 0.33917 0.61603 0.33275 0.0
C1084 C 0.37772 0.61126 0.35092 0.0
C1085 C 0.3835 0.59487 0.36419 0.0
C1086 C 0.36341 0.58992 0.37699 0.0
C1087 C 0.3682 0.57352 0.3893 0.0
C1088 C 0.39309 0.56208 0.38897 0.0
C1089 C 0.41332 0.56708 0.37634 0.0
C1090 C 0.40869 0.58351 0.36401 0.0
C1091 C 0.47208 0.74596 0.31571 0.0
C1092 C 0.49537 0.7364 0.3091 0.0
C1093 C 0.44205 0.72052 0.32339 0.0
C1094 C 0.43538 0.68546 0.32474 0.0
C1095 C 0.45931 0.67635 0.31858 0.0
C1096 C 0.48879 0.70142 0.31074 0.0
C1097 C 0.403 0.65746 0.3321 0.0
C1098 C 0.40705 0.64059 0.34447 0.0
C1099 C 0.36858 0.64553 0.32637 0.0
C1100 C 0.36285 0.66172 0.31312 0.0
C1101 C 0.37719 0.65987 0.29955 0.0
C1102 C 0.37139 0.67494 0.28705 0.0
C1103 C 0.35136 0.69196 0.288 0.0
C1104 C 0.33683 0.69371 0.30145 0.0
C1105 C 0.34239 0.6785 0.31397 0.0
H1106 H 0.34695 0.70364 0.2783 0.0
H1107 H 0.39679 0.54945 0.39851 0.0
H1108 H 0.78562 0.31165 0.71802 0.0
H1109 H 0.77767 0.35548 0.70444 0.0
H1110 H 0.72738 0.28049 0.66922 0.0
H1111 H 0.73392 0.23552 0.68303 0.0
H1112 H 0.79066 0.356 0.66269 0.0
H1113 H 0.67459 0.29192 0.68535 0.0
H1114 H 0.63411 0.26498 0.70639 0.0
H1115 H 0.68018 0.36692 0.72748 0.0
H1116 H 0.72136 0.39438 0.70666 0.0
H1117 H 0.74812 0.46222 0.61983 0.0
H1118 H 0.7417 0.41114 0.63346 0.0
H1119 H 0.75641 0.4679 0.67409 0.0
H1120 H 0.76167 0.51901 0.66035 0.0
H1121 H 0.70929 0.39962 0.67785 0.0
H1122 H 0.82568 0.46457 0.65737 0.0
H1123 H 0.87031 0.49468 0.63791 0.0
H1124 H 0.83018 0.39586 0.61474 0.0
H1125 H 0.78483 0.36523 0.63394 0.0
C1126 C 0.77232 0.30406 0.70751 0.0
C1127 C 0.76008 0.26981 0.70171 0.0
C1128 C 0.76791 0.32928 0.69975 0.0
C1129 C 0.75183 0.32109 0.6859 0.0
C1130 C 0.73973 0.28714 0.67996 0.0
C1131 C 0.74341 0.26151 0.68788 0.0
C1132 C 0.74903 0.34875 0.67753 0.0
C1133 C 0.77239 0.36512 0.66577 0.0
C1134 C 0.72629 0.36151 0.68205 0.0
C1135 C 0.70129 0.34514 0.69451 0.0
C1136 C 0.67632 0.30854 0.69454 0.0
C1137 C 0.6532 0.29318 0.70641 0.0
C1138 C 0.65463 0.31421 0.71828 0.0
C1139 C 0.67912 0.35066 0.71828 0.0
C1140 C 0.70234 0.36614 0.70644 0.0
C1141 C 0.7498 0.46381 0.63165 0.0
C1142 C 0.75611 0.49483 0.639 0.0
C1143 C 0.74612 0.43456 0.63945 0.0
C1144 C 0.7496 0.43602 0.65478 0.0
C1145 C 0.75391 0.46627 0.66225 0.0
C1146 C 0.75695 0.49544 0.65441 0.0
C1147 C 0.75063 0.40674 0.66279 0.0
C1148 C 0.72729 0.39032 0.6746 0.0
C1149 C 0.77402 0.3944 0.65852 0.0
C1150 C 0.80161 0.41265 0.64704 0.0
C1151 C 0.8262 0.44929 0.64808 0.0
C1152 C 0.85165 0.46645 0.6371 0.0
C1153 C 0.85305 0.4472 0.62509 0.0
C1154 C 0.82904 0.41073 0.62405 0.0
C1155 C 0.80346 0.39345 0.63498 0.0
H1156 H 0.87278 0.46052 0.6166 0.0
H1157 H 0.63671 0.30227 0.72747 0.0
H1158 H 0.31265 0.7934 0.9535 0.0
H1159 H 0.35812 0.78665 0.96624 0.0
H1160 H 0.28107 0.72007 0.99866 0.0
H1161 H 0.23484 0.72599 0.98573 0.0
H1162 H 0.38403 0.80815 0.99241 0.0
H1163 H 0.30579 0.66212 0.01276 0.0
H1164 H 0.25506 0.60469 0.00492 0.0
H1165 H 0.27438 0.63891 0.95999 0.0
H1166 H 0.32552 0.69631 0.96753 0.0
H1167 H 0.47916 0.78673 0.049 0.0
H1168 H 0.42894 0.78069 0.03485 0.0
H1169 H 0.44702 0.7198 1.0021 0.0
H1170 H 0.49722 0.72498 0.01641 0.0
H1171 H 0.37529 0.69383 0.0069 0.0
H1172 H 0.47909 0.80577 0.99646 0.0
H1173 H 0.53205 0.86291 0.00289 0.0
H1174 H 0.46578 0.89684 0.02415 0.0
H1175 H 0.41244 0.83962 0.01806 0.0
C1176 C 0.30508 0.77693 0.96324 0.0
C1177 C 0.26993 0.76017 0.96856 0.0
C1178 C 0.33126 0.77323 0.97055 0.0
C1179 C 0.32306 0.75277 0.98338 0.0
C1180 C 0.28794 0.73559 0.98866 0.0
C1181 C 0.26155 0.7391 0.98128 0.0
C1182 C 0.3518 0.75101 0.99152 0.0
C1183 C 0.38204 0.7831 0.99555 0.0
C1184 C 0.34956 0.71837 0.99543 0.0
C1185 C 0.31927 0.68366 0.99075 0.0
C1186 C 0.29931 0.65732 1.0012 0.0
C1187 C 0.27047 0.62478 0.99681 0.0
C1188 C 0.26142 0.6182 0.98197 0.0
C1189 C 0.28132 0.64409 0.97149 0.0
C1190 C 0.31022 0.67664 0.97582 0.0
C1191 C 0.47234 0.77162 0.03889 0.0
C1192 C 0.49252 0.75656 0.03381 0.0
C1193 C 0.44356 0.76825 0.0308 0.0
C1194 C 0.43457 0.75025 0.01733 0.0
C1195 C 0.45357 0.73384 0.01247 0.0
C1196 C 0.48234 0.73697 0.02064 0.0
C1197 C 0.40701 0.75093 0.00793 0.0
C1198 C 0.37712 0.71876 0.0037 0.0
C1199 C 0.40984 0.7835 0.00352 0.0
C1200 C 0.44179 0.81829 0.0069 0.0
C1201 C 0.47582 0.82534 1.00257 0.0
C1202 C 0.50591 0.85774 0.00615 0.0
C1203 C 0.50228 0.88347 0.01395 0.0
C1204 C 0.46854 0.87688 0.01813 0.0
C1205 C 0.43837 0.84448 0.0146 0.0
H1206 H 0.52561 0.90852 0.01672 0.0
H1207 H 0.23904 0.59303 0.9786 0.0
H1208 H 0.51561 0.31807 0.29879 0.0
H1209 H 0.56927 0.3611 0.31138 0.0
H1210 H 0.57823 0.27614 0.33165 0.0
H1211 H 0.52361 0.23226 0.31912 0.0
H1212 H 0.59234 0.32899 0.35105 0.0
H1213 H 0.63301 0.32118 0.30384 0.0
H1214 H 0.63181 0.31834 0.27682 0.0
H1215 H 0.64716 0.4239 0.27461 0.0
H1216 H 0.64793 0.4272 0.30163 0.0
H1217 H 0.7845 0.4972 0.35358 0.0
H1218 H 0.74131 0.44204 0.34124 0.0
H1219 H 0.65531 0.44895 0.36165 0.0
H1220 H 0.69778 0.50314 0.37414 0.0
H1221 H 0.68879 0.42613 0.32202 0.0
H1222 H 0.58938 0.36947 0.37106 0.0
H1223 H 0.59203 0.37128 0.39809 0.0
H1224 H 0.699 0.39018 0.39673 0.0
H1225 H 0.6968 0.38785 0.3697 0.0
C1226 C 0.5288 0.30826 0.30591 0.0
C1227 C 0.51535 0.27156 0.30783 0.0
C1228 C 0.55969 0.33304 0.31306 0.0
C1229 C 0.5782 0.32188 0.32222 0.0
C1230 C 0.56448 0.28531 0.32453 0.0
C1231 C 0.53331 0.2603 0.31736 0.0
C1232 C 0.61163 0.34891 0.32935 0.0
C1233 C 0.61362 0.35002 0.34472 0.0
C1234 C 0.63992 0.37579 0.32107 0.0
C1235 C 0.64041 0.37438 0.30479 0.0
C1236 C 0.636 0.34375 0.2976 0.0
C1237 C 0.63539 0.34205 0.28228 0.0
C1238 C 0.63936 0.3709 0.274 0.0
C1239 C 0.6441 0.40157 0.28103 0.0
C1240 C 0.64471 0.40341 0.29636 0.0
C1241 C 0.75638 0.48696 0.35541 0.0
C1242 C 0.74468 0.50446 0.36497 0.0
C1243 C 0.73176 0.45546 0.34835 0.0
C1244 C 0.69511 0.44097 0.35077 0.0
C1245 C 0.68346 0.45908 0.35991 0.0
C1246 C 0.70789 0.49027 0.367 0.0
C1247 C 0.66859 0.40713 0.34372 0.0
C1248 C 0.66792 0.40473 0.32836 0.0
C1249 C 0.64194 0.37867 0.35203 0.0
C1250 C 0.64295 0.37865 0.36832 0.0
C1251 C 0.61335 0.37366 0.37652 0.0
C1252 C 0.61481 0.37486 0.39185 0.0
C1253 C 0.64569 0.38092 0.39912 0.0
C1254 C 0.67512 0.38557 0.39108 0.0
C1255 C 0.67377 0.38431 0.37576 0.0
H1256 H 0.64681 0.38198 0.41098 0.0
H1257 H 0.63878 0.36949 0.26214 0.0
H1258 H 0.29773 0.5257 0.64177 0.0
H1259 H 0.30497 0.57936 0.65387 0.0
H1260 H 0.19072 0.53184 0.6563 0.0
H1261 H 0.18367 0.47943 0.6434 0.0
H1262 H 0.21521 0.595 0.64823 0.0
H1263 H 0.24836 0.54169 0.68689 0.0
H1264 H 0.28242 0.51646 0.69829 0.0
H1265 H 0.37942 0.61553 0.6921 0.0
H1266 H 0.34596 0.64121 0.68048 0.0
H1267 H 0.19343 0.68762 0.70695 0.0
H1268 H 0.20024 0.643 0.69346 0.0
H1269 H 0.3043 0.72339 0.67894 0.0
H1270 H 0.29755 0.76892 0.6923 0.0
H1271 H 0.29254 0.65068 0.69159 0.0
H1272 H 0.25293 0.70379 0.65482 0.0
H1273 H 0.21378 0.72593 0.64607 0.0
H1274 H 0.12261 0.62186 0.65146 0.0
H1275 H 0.16118 0.59926 0.66052 0.0
C1276 C 0.27428 0.52675 0.64505 0.0
C1277 C 0.24018 0.49858 0.64172 0.0
C1278 C 0.27838 0.55734 0.65199 0.0
C1279 C 0.2484 0.55969 0.65616 0.0
C1280 C 0.21432 0.53096 0.65312 0.0
C1281 C 0.21026 0.50091 0.64583 0.0
C1282 C 0.25211 0.59223 0.66331 0.0
C1283 C 0.23203 0.60691 0.65775 0.0
C1284 C 0.2746 0.60853 0.67558 0.0
C1285 C 0.29471 0.59323 0.68267 0.0
C1286 C 0.27698 0.55801 0.68787 0.0
C1287 C 0.29617 0.54364 0.69438 0.0
C1288 C 0.33308 0.56435 0.69588 0.0
C1289 C 0.35085 0.59951 0.69091 0.0
C1290 C 0.33178 0.61399 0.68437 0.0
C1291 C 0.21791 0.696 0.70096 0.0
C1292 C 0.24494 0.73193 0.70067 0.0
C1293 C 0.2217 0.67039 0.69326 0.0
C1294 C 0.25272 0.67999 0.68525 0.0
C1295 C 0.28021 0.71559 0.68513 0.0
C1296 C 0.27621 0.74151 0.69268 0.0
C1297 C 0.25522 0.65252 0.67661 0.0
C1298 C 0.27631 0.63888 0.68191 0.0
C1299 C 0.23306 0.6366 0.66432 0.0
C1300 C 0.20994 0.6499 0.65845 0.0
C1301 C 0.22451 0.68568 0.65423 0.0
C1302 C 0.20243 0.69831 0.64921 0.0
C1303 C 0.16572 0.67533 0.64823 0.0
C1304 C 0.15105 0.63964 0.65222 0.0
C1305 C 0.17302 0.6269 0.6573 0.0
H1306 H 0.14866 0.68516 0.64435 0.0
H1307 H 0.34789 0.55317 0.70092 0.0
H1308 H 0.39937 0.2243 0.11009 0.0
H1309 H 0.39134 0.22489 0.13654 0.0
H1310 H 0.33377 0.11027 0.13719 0.0
H1311 H 0.34164 0.10931 0.11057 0.0
H1312 H 0.30645 0.14326 0.15722 0.0
H1313 H 0.41597 0.14696 0.14479 0.0
H1314 H 0.47214 0.16984 0.13106 0.0
H1315 H 0.50991 0.27356 0.14957 0.0
H1316 H 0.45367 0.25142 0.16325 0.0
H1317 H 0.3412 0.13423 0.23445 0.0
H1318 H 0.33226 0.12525 0.20784 0.0
H1319 H 0.40351 0.23734 0.20082 0.0
H1320 H 0.41283 0.24637 0.22715 0.0
H1321 H 0.42162 0.20001 0.18384 0.0
H1322 H 0.31264 0.19796 0.19573 0.0
H1323 H 0.25555 0.1771 0.20853 0.0
H1324 H 0.21641 0.07227 0.19095 0.0
H1325 H 0.2735 0.09242 0.17819 0.0
C1326 C 0.3844 0.19913 0.11575 0.0
C1327 C 0.37155 0.16673 0.1082 0.0
C1328 C 0.37983 0.19955 0.1309 0.0
C1329 C 0.36239 0.16764 0.13885 0.0
C1330 C 0.34735 0.1352 0.13125 0.0
C1331 C 0.35197 0.13473 0.11604 0.0
C1332 C 0.36335 0.16853 0.15515 0.0
C1333 C 0.33153 0.15517 0.1631 0.0
C1334 C 0.39614 0.18447 0.16276 0.0
C1335 C 0.43049 0.19759 0.15496 0.0
C1336 C 0.43618 0.17469 0.14588 0.0
C1337 C 0.46802 0.18753 0.1381 0.0
C1338 C 0.49453 0.22316 0.1394 0.0
C1339 C 0.48933 0.24598 0.14856 0.0
C1340 C 0.45749 0.23329 0.15634 0.0
C1341 C 0.3545 0.15701 0.22723 0.0
C1342 C 0.37792 0.19097 0.23294 0.0
C1343 C 0.34936 0.15185 0.21202 0.0
C1344 C 0.36729 0.18062 0.20229 0.0
C1345 C 0.3896 0.21466 0.20806 0.0
C1346 C 0.39485 0.21979 0.22316 0.0
C1347 C 0.36469 0.17546 0.18607 0.0
C1348 C 0.39639 0.18789 0.17807 0.0
C1349 C 0.33178 0.15877 0.17847 0.0
C1350 C 0.29749 0.14659 0.18615 0.0
C1351 C 0.29198 0.17038 0.19471 0.0
C1352 C 0.2596 0.1587 0.20193 0.0
C1353 C 0.23241 0.12335 0.20059 0.0
C1354 C 0.23752 0.09963 0.192 0.0
C1355 C 0.26988 0.11116 0.18476 0.0
H1356 H 0.20735 0.11437 0.20619 0.0
H1357 H 0.51913 0.23307 0.13334 0.0
H1358 H 0.13792 0.33087 0.43771 0.0
H1359 H 0.12816 0.31955 0.46417 0.0
H1360 H 0.23605 0.40225 0.47258 0.0
H1361 H 0.24599 0.41369 0.44631 0.0
H1362 H 0.21633 0.34292 0.48977 0.0
H1363 H 0.16967 0.41945 0.47572 0.0
H1364 H 0.13095 0.43482 0.46145 0.0
H1365 H 0.03847 0.34228 0.47812 0.0
H1366 H 0.07672 0.32608 0.49233 0.0
H1367 H 0.22409 0.40452 0.56149 0.0
H1368 H 0.22463 0.39479 0.53527 0.0
H1369 H 0.11156 0.3214 0.53613 0.0
H1370 H 0.1106 0.33194 0.56251 0.0
H1371 H 0.12696 0.36518 0.51401 0.0
H1372 H 0.17371 0.29298 0.53085 0.0
H1373 H 0.21266 0.27801 0.54516 0.0
H1374 H 0.30445 0.36098 0.5234 0.0
H1375 H 0.26612 0.3768 0.5091 0.0
C1376 C 0.15967 0.34631 0.4452 0.0
C1377 C 0.19267 0.3733 0.4399 0.0
C1378 C 0.15401 0.33991 0.46031 0.0
C1379 C 0.18131 0.36024 0.47036 0.0
C1380 C 0.21462 0.38622 0.46504 0.0
C1381 C 0.22019 0.39282 0.45 0.0
C1382 C 0.1751 0.35597 0.48647 0.0
C1383 C 0.19686 0.34785 0.4951 0.0
C1384 C 0.14902 0.36144 0.49338 0.0
C1385 C 0.12604 0.37132 0.48494 0.0
C1386 C 0.14108 0.40222 0.47625 0.0
C1387 C 0.11923 0.41111 0.46818 0.0
C1388 C 0.08227 0.38948 0.46884 0.0
C1389 C 0.0671 0.35897 0.4776 0.0
C1390 C 0.08885 0.34992 0.48566 0.0
C1391 C 0.19932 0.38589 0.55621 0.0
C1392 C 0.16727 0.36894 0.56418 0.0
C1393 C 0.19972 0.3802 0.54115 0.0
C1394 C 0.16823 0.35692 0.53368 0.0
C1395 C 0.13624 0.3394 0.54163 0.0
C1396 C 0.13575 0.34532 0.55674 0.0
C1397 C 0.16872 0.35278 0.51745 0.0
C1398 C 0.14595 0.35945 0.50875 0.0
C1399 C 0.19384 0.34585 0.51047 0.0
C1400 C 0.21701 0.3362 0.51895 0.0
C1401 C 0.20222 0.30817 0.52917 0.0
C1402 C 0.22419 0.29952 0.53728 0.0
C1403 C 0.26101 0.31856 0.53521 0.0
C1404 C 0.27593 0.34624 0.52499 0.0
C1405 C 0.25408 0.35503 0.51687 0.0
H1406 H 0.27798 0.31183 0.5415 0.0
H1407 H 0.06539 0.3964 0.46259 0.0
H1408 H 0.87294 0.2164 0.90015 0.0
H1409 H 0.8787 0.21296 0.87344 0.0
H1410 H 0.76525 0.14402 0.86986 0.0
H1411 H 0.75914 0.14839 0.89639 0.0
H1412 H 0.81761 0.12697 0.8519 0.0
H1413 H 0.78226 0.21572 0.86299 0.0
H1414 H 0.79084 0.26875 0.87643 0.0
H1415 H 0.89628 0.32955 0.85871 0.0
H1416 H 0.88853 0.27657 0.84541 0.0
H1417 H 0.77024 0.13136 0.77799 0.0
H1418 H 0.7766 0.12886 0.80448 0.0
H1419 H 0.87098 0.23269 0.80342 0.0
H1420 H 0.86322 0.23611 0.77701 0.0
H1421 H 0.83473 0.23307 0.82442 0.0
H1422 H 0.86996 0.14937 0.8107 0.0
H1423 H 0.86625 0.09725 0.79821 0.0
H1424 H 0.76897 0.02849 0.82095 0.0
H1425 H 0.77183 0.08025 0.83344 0.0
C1426 C 0.84935 0.20001 0.89368 0.0
C1427 C 0.81559 0.18272 0.9003 0.0
C1428 C 0.85267 0.1981 0.87846 0.0
C1429 C 0.82239 0.17818 0.86973 0.0
C1430 C 0.78892 0.15934 0.87644 0.0
C1431 C 0.78548 0.16199 0.89156 0.0
C1432 C 0.82498 0.1796 0.85352 0.0
C1433 C 0.82119 0.14999 0.8458 0.0
C1434 C 0.83069 0.21009 0.8457 0.0
C1435 C 0.83499 0.24211 0.85337 0.0
C1436 C 0.80738 0.24031 0.86207 0.0
C1437 C 0.81208 0.27036 0.86965 0.0
C1438 C 0.84413 0.30248 0.86846 0.0
C1439 C 0.87149 0.30463 0.85964 0.0
C1440 C 0.86697 0.2746 0.85209 0.0
C1441 C 0.79275 0.15334 0.78336 0.0
C1442 C 0.81635 0.18385 0.7754 0.0
C1443 C 0.7965 0.15186 0.79856 0.0
C1444 C 0.82463 0.18037 0.80608 0.0
C1445 C 0.84899 0.21032 0.79798 0.0
C1446 C 0.8447 0.21219 0.78285 0.0
C1447 C 0.82708 0.18008 0.82244 0.0
C1448 C 0.83168 0.21 0.83031 0.0
C1449 C 0.82276 0.15 0.83038 0.0
C1450 C 0.82099 0.11876 0.82293 0.0
C1451 C 0.84765 0.12316 0.81297 0.0
C1452 C 0.84572 0.09368 0.8059 0.0
C1453 C 0.81736 0.05959 0.80876 0.0
C1454 C 0.79091 0.05491 0.81874 0.0
C1455 C 0.7927 0.08431 0.82583 0.0
H1456 H 0.81591 0.0368 0.80327 0.0
H1457 H 0.84772 0.32571 0.87433 0.0
H1458 H 0.60921 0.78308 0.11032 0.0
H1459 H 0.61911 0.78417 0.13666 0.0
H1460 H 0.67122 0.89859 0.13654 0.0
H1461 H 0.66106 0.89791 0.11001 0.0
H1462 H 0.70136 0.86058 0.15681 0.0
H1463 H 0.59725 0.87168 0.14681 0.0
H1464 H 0.542 0.85567 0.13336 0.0
H1465 H 0.49772 0.74685 0.14686 0.0
H1466 H 0.55281 0.76241 0.16051 0.0
H1467 H 0.66805 0.86841 0.23451 0.0
H1468 H 0.67839 0.87915 0.20803 0.0
H1469 H 0.59903 0.77 0.19947 0.0
H1470 H 0.58829 0.75931 0.22565 0.0
H1471 H 0.58659 0.81276 0.18335 0.0
H1472 H 0.689 0.8017 0.19468 0.0
H1473 H 0.74477 0.8164 0.20746 0.0
H1474 H 0.79355 0.92331 0.19105 0.0
H1475 H 0.73786 0.90936 0.17832 0.0
C1476 C 0.62347 0.80862 0.11576 0.0
C1477 C 0.63397 0.84042 0.10802 0.0
C1478 C 0.62918 0.80915 0.13084 0.0
C1479 C 0.64577 0.84143 0.13853 0.0
C1480 C 0.65853 0.87342 0.13076 0.0
C1481 C 0.65258 0.87294 0.11561 0.0
C1482 C 0.64517 0.84089 0.1548 0.0
C1483 C 0.67649 0.85077 0.16271 0.0
C1484 C 0.61262 0.82751 0.16239 0.0
C1485 C 0.57914 0.81814 0.15457 0.0
C1486 C 0.57575 0.84432 0.14686 0.0
C1487 C 0.54447 0.83533 0.13921 0.0
C1488 C 0.51642 0.80019 0.13915 0.0
C1489 C 0.51949 0.77405 0.14689 0.0
C1490 C 0.55067 0.78296 0.15464 0.0
C1491 C 0.65323 0.84662 0.22697 0.0
C1492 C 0.62716 0.81309 0.2322 0.0
C1493 C 0.65918 0.85277 0.21184 0.0
C1494 C 0.63942 0.82539 0.20172 0.0
C1495 C 0.61441 0.79164 0.20702 0.0
C1496 C 0.60834 0.78556 0.22204 0.0
C1497 C 0.6428 0.8319 0.1856 0.0
C1498 C 0.61176 0.82305 0.17763 0.0
C1499 C 0.67568 0.84616 0.17804 0.0
C1500 C 0.70913 0.8546 0.1857 0.0
C1501 C 0.71151 0.82843 0.19391 0.0
C1502 C 0.74313 0.83661 0.20112 0.0
C1503 C 0.77265 0.8708 0.20011 0.0
C1504 C 0.77064 0.89686 0.19185 0.0
C1505 C 0.73906 0.88883 0.18462 0.0
H1506 H 0.79712 0.87707 0.20569 0.0
H1507 H 0.49228 0.79326 0.13316 0.0
H1508 H 0.86011 0.61919 0.56133 0.0
H1509 H 0.86511 0.63005 0.53481 0.0
H1510 H 0.78786 0.66459 0.53747 0.0
H1511 H 0.7835 0.65484 0.56411 0.0
H1512 H 0.77575 0.6036 0.51614 0.0
H1513 H 0.85931 0.7251 0.53031 0.0
H1514 H 0.91209 0.77099 0.54341 0.0
H1515 H 0.97814 0.73909 0.52057 0.0
H1516 H 0.92562 0.69262 0.5075 0.0
H1517 H 0.77388 0.63703 0.44141 0.0
H1518 H 0.77664 0.64623 0.46794 0.0
H1519 H 0.88099 0.65688 0.46888 0.0
H1520 H 0.87917 0.65004 0.44217 0.0
H1521 H 0.87927 0.69736 0.48892 0.0
H1522 H 0.80168 0.57598 0.47601 0.0
H1523 H 0.75202 0.52673 0.4627 0.0
H1524 H 0.67817 0.55148 0.48342 0.0
H1525 H 0.72751 0.60135 0.49665 0.0
C1526 C 0.84476 0.62982 0.55631 0.0
C1527 C 0.82154 0.63634 0.5648 0.0
C1528 C 0.84761 0.63595 0.54118 0.0
C1529 C 0.82681 0.64805 0.53422 0.0
C1530 C 0.80418 0.65533 0.54268 0.0
C1531 C 0.80191 0.64998 0.55789 0.0
C1532 C 0.82709 0.65078 0.51799 0.0
C1533 C 0.79804 0.62446 0.51016 0.0
C1534 C 0.85687 0.6771 0.51026 0.0
C1535 C 0.88847 0.70516 0.51804 0.0
C1536 C 0.88503 0.72764 0.52819 0.0
C1537 C 0.91491 0.75381 0.53558 0.0
C1538 C 0.94843 0.75789 0.53285 0.0
C1539 C 0.95215 0.73587 0.52269 0.0
C1540 C 0.92234 0.70964 0.51527 0.0
C1541 C 0.79771 0.64214 0.44726 0.0
C1542 C 0.82624 0.64267 0.43977 0.0
C1543 C 0.79918 0.64709 0.46244 0.0
C1544 C 0.82857 0.65113 0.47055 0.0
C1545 C 0.85792 0.65362 0.46295 0.0
C1546 C 0.85688 0.6497 0.44767 0.0
C1547 C 0.82763 0.65033 0.48692 0.0
C1548 C 0.85669 0.67669 0.49482 0.0
C1549 C 0.79824 0.62335 0.49476 0.0
C1550 C 0.76834 0.59262 0.48722 0.0
C1551 C 0.77486 0.571 0.47769 0.0
C1552 C 0.74678 0.543 0.47015 0.0
C1553 C 0.71198 0.53604 0.47219 0.0
C1554 C 0.70516 0.55695 0.48183 0.0
C1555 C 0.73317 0.58509 0.48936 0.0
H1556 H 0.69028 0.51441 0.46631 0.0
H1557 H 0.97154 0.77817 0.53859 0.0
H1558 H 0.12435 0.77328 0.89626 0.0
H1559 H 0.12131 0.77829 0.86957 0.0
H1560 H 0.22594 0.87116 0.86966 0.0
H1561 H 0.22965 0.86571 0.89629 0.0
H1562 H 0.16944 0.8711 0.84921 0.0
H1563 H 0.22939 0.8063 0.86302 0.0
H1564 H 0.23453 0.75956 0.87627 0.0
H1565 H 0.13921 0.67932 0.85547 0.0
H1566 H 0.1331 0.7257 0.84233 0.0
H1567 H 0.22768 0.87473 0.77549 0.0
H1568 H 0.21978 0.87792 0.80191 0.0
H1569 H 0.13749 0.76746 0.802 0.0
H1570 H 0.14634 0.76382 0.77576 0.0
H1571 H 0.18024 0.77696 0.82284 0.0
H1572 H 0.12146 0.83986 0.8075 0.0
H1573 H 0.11446 0.8856 0.79433 0.0
H1574 H 0.20374 0.96779 0.81764 0.0
H1575 H 0.21159 0.92253 0.83081 0.0
C1576 C 0.14629 0.79535 0.89066 0.0
C1577 C 0.17726 0.8191 0.89835 0.0
C1578 C 0.14455 0.79809 0.87541 0.0
C1579 C 0.17344 0.82504 0.86768 0.0
C1580 C 0.20332 0.8503 0.87546 0.0
C1581 C 0.20541 0.8471 0.89065 0.0
C1582 C 0.17423 0.82437 0.85142 0.0
C1583 C 0.17203 0.85074 0.84338 0.0
C1584 C 0.17695 0.79737 0.8439 0.0
C1585 C 0.18053 0.76949 0.85184 0.0
C1586 C 0.20928 0.77872 0.86141 0.0
C1587 C 0.21243 0.75229 0.86888 0.0
C1588 C 0.1872 0.71649 0.86672 0.0
C1589 C 0.15871 0.70706 0.85713 0.0
C1590 C 0.15538 0.73341 0.84968 0.0
C1591 C 0.20745 0.85132 0.7811 0.0
C1592 C 0.18769 0.81901 0.77353 0.0
C1593 C 0.20286 0.85318 0.79623 0.0
C1594 C 0.17784 0.82297 0.80404 0.0
C1595 C 0.15709 0.79111 0.79632 0.0
C1596 C 0.16206 0.7891 0.78128 0.0
C1597 C 0.17509 0.82363 0.82035 0.0
C1598 C 0.17721 0.79726 0.82851 0.0
C1599 C 0.17198 0.8505 0.82792 0.0
C1600 C 0.1673 0.87779 0.82004 0.0
C1601 C 0.13977 0.86769 0.80974 0.0
C1602 C 0.13562 0.89353 0.80229 0.0
C1603 C 0.15869 0.92958 0.80512 0.0
C1604 C 0.18591 0.93986 0.81544 0.0
C1605 C 0.1902 0.91412 0.82291 0.0
H1606 H 0.15544 0.94955 0.79934 0.0
H1607 H 0.18977 0.69604 0.87243 0.0
H1608 H 0.5952 0.66165 0.04968 0.0
H1609 H 0.58304 0.60039 0.05106 0.0
H1610 H 0.4717 0.56385 0.05822 0.0
H1611 H 0.48408 0.62534 0.05754 0.0
H1612 H 0.48925 0.52724 0.07464 0.0
H1613 H 0.50745 0.5586 0.0238 0.0
H1614 H 0.53917 0.5948 1.00219 0.0
H1615 H 0.62627 0.57676 0.01048 0.0
H1616 H 0.59529 0.54086 0.03228 0.0
H1617 H 0.42116 0.348 0.05053 0.0
H1618 H 0.43739 0.41057 0.05206 0.0
H1619 H 0.54776 0.44075 0.05693 0.0
H1620 H 0.53168 0.37798 0.05566 0.0
H1621 H 0.53242 0.48021 0.03491 0.0
H1622 H 0.50926 0.44516 0.08569 0.0
H1623 H 0.4735 0.40698 0.1062 0.0
H1624 H 0.39014 0.42964 0.09624 0.0
H1625 H 0.42519 0.46754 0.07552 0.0
C1626 C 0.56814 0.64056 0.0516 0.0
C1627 C 0.54054 0.64831 0.05339 0.0
C1628 C 0.56116 0.60547 0.0523 0.0
C1629 C 0.52628 0.57723 0.05441 0.0
C1630 C 0.49882 0.58505 0.05653 0.0
C1631 C 0.5059 0.62024 0.05611 0.0
C1632 C 0.51835 0.53959 0.05428 0.0
C1633 C 0.4984 0.51696 0.06584 0.0
C1634 C 0.53063 0.52603 0.04294 0.0
C1635 C 0.5492 0.54734 0.02976 0.0
C1636 C 0.53347 0.56255 0.02107 0.0
C1637 C 0.55131 0.58299 0.00878 0.0
C1638 C 0.58476 0.58816 0.00499 0.0
C1639 C 0.60039 0.57278 0.01345 0.0
C1640 C 0.58269 0.55237 0.02577 0.0
C1641 C 0.44889 0.3679 0.05199 0.0
C1642 C 0.47516 0.35802 0.05298 0.0
C1643 C 0.45809 0.40363 0.05289 0.0
C1644 C 0.49375 0.43025 0.05463 0.0
C1645 C 0.52008 0.42057 0.05559 0.0
C1646 C 0.51084 0.38471 0.05492 0.0
C1647 C 0.5034 0.4682 0.05521 0.0
C1648 C 0.52354 0.49074 0.04371 0.0
C1649 C 0.49071 0.48147 0.06643 0.0
C1650 C 0.46973 0.45893 0.07897 0.0
C1651 C 0.48318 0.44177 0.0878 0.0
C1652 C 0.46306 0.42022 0.09948 0.0
C1653 C 0.42953 0.41582 0.1025 0.0
C1654 C 0.4161 0.43304 0.09388 0.0
C1655 C 0.4361 0.45459 0.08217 0.0
H1656 H 0.41399 0.39912 0.11155 0.0
H1657 H 0.59853 0.60401 0.99548 0.0
H1658 H 0.85857 0.48621 0.39253 0.0
H1659 H 0.90516 0.47025 0.39396 0.0
H1660 H 0.98465 0.57915 0.38493 0.0
H1661 H 0.93815 0.59494 0.38298 0.0
H1662 H 0.99875 0.53841 0.36942 0.0
H1663 H 0.97087 0.53969 0.42011 0.0
H1664 H 0.93225 0.52385 0.44192 0.0
H1665 H 0.90117 0.41389 0.43626 0.0
H1666 H 0.93923 0.42902 0.41429 0.0
H1667 H 0.14955 0.52392 0.38995 0.0
H1668 H 0.10272 0.53973 0.39103 0.0
H1669 H 0.02273 0.42867 0.38974 0.0
H1670 H 0.06931 0.4126 0.38843 0.0
H1671 H 0.00956 0.47037 0.4109 0.0
H1672 H 0.03824 0.47114 0.35971 0.0
H1673 H 0.07873 0.48897 0.33846 0.0
H1674 H 0.11069 0.59853 0.3461 0.0
H1675 H 0.07077 0.58138 0.36756 0.0
C1676 C 0.886 0.50678 0.39093 0.0
C1677 C 0.89461 0.54183 0.38764 0.0
C1678 C 0.91269 0.49767 0.39182 0.0
C1679 C 0.94863 0.52356 0.38973 0.0
C1680 C 0.95721 0.55863 0.38657 0.0
C1681 C 0.93054 0.56765 0.38549 0.0
C1682 C 0.97723 0.51404 0.39038 0.0
C1683 C 1.00133 0.52401 0.37863 0.0
C1684 C 0.98043 0.49463 0.40222 0.0
C1685 C 0.95764 0.48545 0.41547 0.0
C1686 C 0.9556 0.5121 0.42345 0.0
C1687 C 0.93384 0.50325 0.43585 0.0
C1688 C 0.91419 0.46788 0.44045 0.0
C1689 C 0.91636 0.44128 0.43267 0.0
C1690 C 0.93805 0.44997 0.42025 0.0
C1691 C 0.12201 0.50284 0.39002 0.0
C1692 C 0.11316 0.46701 0.38903 0.0
C1693 C 0.09529 0.51193 0.39061 0.0
C1694 C 0.05926 0.48537 0.39039 0.0
C1695 C 0.05036 0.44955 0.38992 0.0
C1696 C 0.07703 0.44046 0.38912 0.0
C1697 C 0.03088 0.49498 0.39003 0.0
C1698 C 0.00688 0.48493 0.40178 0.0
C1699 C 0.02798 0.51467 0.37828 0.0
C1700 C 0.05182 0.52501 0.36533 0.0
C1701 C 0.05414 0.49906 0.35694 0.0
C1702 C 0.07694 0.50904 0.34485 0.0
C1703 C 0.09735 0.54487 0.34096 0.0
C1704 C 0.09491 0.57079 0.34914 0.0
C1705 C 0.07219 0.56095 0.36127 0.0
H1706 H 0.11498 0.55254 0.33159 0.0
H1707 H 0.89736 0.46108 0.45005 0.0
H1708 H 0.66166 0.07371 0.72112 0.0
H1709 H 0.60023 0.02507 0.72252 0.0
H1710 H 0.56373 0.10094 0.72499 0.0
H1711 H 0.62545 0.14978 0.72433 0.0
H1712 H 0.52484 0.04913 0.74214 0.0
H1713 H 0.56125 0.05462 0.6923 0.0
H1714 H 0.59972 0.05618 0.67207 0.0
H1715 H 0.58099 0.95271 0.68434 0.0
H1716 H 0.54284 0.95077 0.7048 0.0
H1717 H 0.34696 0.92969 0.71755 0.0
H1718 H 0.40887 0.97783 0.71903 0.0
H1719 H 0.44248 0.90148 0.72776 0.0
H1720 H 0.38047 0.85309 0.72653 0.0
H1721 H 0.48206 0.95265 0.7051 0.0
H1722 H 0.44297 0.94878 0.75493 0.0
H1723 H 0.40298 0.94909 0.77407 0.0
H1724 H 0.42462 0.05233 0.75986 0.0
H1725 H 0.46435 0.0524 0.74048 0.0
C1726 C 0.64056 0.08006 0.72204 0.0
C1727 C 0.64843 0.11564 0.72251 0.0
C1728 C 0.60534 0.05217 0.72274 0.0
C1729 C 0.57704 0.05914 0.72349 0.0
C1730 C 0.58494 0.09472 0.72435 0.0
C1731 C 0.62028 0.12267 0.72395 0.0
C1732 C 0.53931 0.02942 0.72319 0.0
C1733 C 0.51549 0.02834 0.73391 0.0
C1734 C 0.52688 1.00183 0.71258 0.0
C1735 C 0.54946 0.00271 0.70018 0.0
C1736 C 0.56551 0.03229 0.69074 0.0
C1737 C 0.58725 0.03324 0.67923 0.0
C1738 C 0.59287 0.0046 0.67695 0.0
C1739 C 0.57666 0.9749 0.68614 0.0
C1740 C 0.55495 0.97385 0.69769 0.0
C1741 C 0.36748 0.9231 0.71987 0.0
C1742 C 0.35875 0.88751 0.72194 0.0
C1743 C 0.40285 0.95068 0.72074 0.0
C1744 C 0.43028 0.94325 0.72354 0.0
C1745 C 0.42171 0.90778 0.72559 0.0
C1746 C 0.38625 0.88019 0.72495 0.0
C1747 C 0.46795 0.97251 0.72404 0.0
C1748 C 0.49162 0.97349 0.71332 0.0
C1749 C 0.48004 1.00032 0.73445 0.0
C1750 C 0.45637 1.00044 0.74617 0.0
C1751 C 0.43898 0.97142 0.75581 0.0
C1752 C 0.4164 0.97155 0.76671 0.0
C1753 C 0.41119 1.00067 0.76815 0.0
C1754 C 0.42864 0.02977 0.75872 0.0
C1755 C 0.45122 0.02975 0.74778 0.0
H1756 H 0.3937 1.00072 0.7766 0.0
H1757 H 0.60973 0.0054 0.66804 0.0
H1758 H 0.62916 0.47992 0.61498 0.0
H1759 H 0.56681 0.46474 0.61422 0.0
H1760 H 0.5988 0.5757 0.61892 0.0
H1761 H 0.66098 0.59078 0.62032 0.0
H1762 H 0.54559 0.54001 0.63567 0.0
H1763 H 0.56831 0.52759 0.58533 0.0
H1764 H 0.58811 0.5058 0.56442 0.0
H1765 H 0.50924 0.39826 0.57482 0.0
H1766 H 0.48929 0.41938 0.59593 0.0
H1767 H 0.3776 0.52064 0.61553 0.0
H1768 H 0.44016 0.53621 0.61409 0.0
H1769 H 0.40957 0.42611 0.62027 0.0
H1770 H 0.34708 0.41034 0.62193 0.0
H1771 H 0.46137 0.46183 0.59746 0.0
H1772 H 0.44022 0.47682 0.64831 0.0
H1773 H 0.42053 0.5008 0.66846 0.0
H1774 H 0.49749 0.60725 0.65569 0.0
H1775 H 0.51727 0.58389 0.6353 0.0
C1776 C 0.6229 0.50109 0.61576 0.0
C1777 C 0.65004 0.53655 0.6177 0.0
C1778 C 0.5872 0.49241 0.61525 0.0
C1779 C 0.57791 0.51909 0.6163 0.0
C1780 C 0.60511 0.55456 0.6181 0.0
C1781 C 0.64072 0.56317 0.61886 0.0
C1782 C 0.53991 0.51007 0.61598 0.0
C1783 C 0.52743 0.52337 0.62716 0.0
C1784 C 0.51576 0.48784 0.60504 0.0
C1785 C 0.52753 0.47506 0.5923 0.0
C1786 C 0.55535 0.49928 0.58322 0.0
C1787 C 0.56658 0.48705 0.57132 0.0
C1788 C 0.55001 0.45067 0.56832 0.0
C1789 C 0.52209 0.42644 0.57717 0.0
C1790 C 0.51078 0.43852 0.5891 0.0
C1791 C 0.38416 0.49971 0.61649 0.0
C1792 C 0.35737 0.46428 0.61892 0.0
C1793 C 0.41991 0.50866 0.6157 0.0
C1794 C 0.42949 0.48232 0.61714 0.0
C1795 C 0.40274 0.44682 0.61912 0.0
C1796 C 0.36706 0.43791 0.62013 0.0
C1797 C 0.46748 0.4919 0.61708 0.0
C1798 C 0.47979 0.47863 0.60588 0.0
C1799 C 0.49161 0.51455 0.62786 0.0
C1800 C 0.47996 0.52862 0.64018 0.0
C1801 C 0.45274 0.50535 0.64972 0.0
C1802 C 0.44159 0.51883 0.6612 0.0
C1803 C 0.45767 0.55553 0.66333 0.0
C1804 C 0.48501 0.57883 0.65401 0.0
C1805 C 0.49621 0.56548 0.64249 0.0
H1806 H 0.44901 0.56592 0.67222 0.0
H1807 H 0.55875 0.44125 0.5591 0.0
H1808 H 0.08505 0.65278 0.96853 0.0
H1809 H 0.03878 0.59036 0.96767 0.0
H1810 H 0.08636 0.57571 0.92866 0.0
H1811 H 0.1337 0.63805 0.92982 0.0
H1812 H 0.98865 0.55151 0.95018 0.0
H1813 H 0.0715 0.49159 0.92675 0.0
H1814 H 0.13361 0.50419 0.92671 0.0
H1815 H 0.1531 0.56114 0.96731 0.0
H1816 H 0.09101 0.54847 0.96769 0.0
H1817 H 0.86769 0.37005 0.93377 0.0
H1818 H 0.91456 0.4325 0.932 0.0
H1819 H 0.97455 0.41522 0.96552 0.0
H1820 H 0.92867 0.35277 0.96691 0.0
H1821 H 0.01845 0.45542 0.94624 0.0
H1822 H 0.92348 0.45688 0.97226 0.0
H1823 H 0.86214 0.44434 0.97649 0.0
H1824 H 0.86829 0.50427 0.93802 0.0
H1825 H 0.92954 0.51679 0.93345 0.0
C1826 C 0.08573 0.63631 0.95976 0.0
C1827 C 0.11324 0.65036 0.9493 0.0
C1828 C 0.05911 0.60056 0.95924 0.0
C1829 C 0.05912 0.578 0.9482 0.0
C1830 C 0.08608 0.59224 0.93749 0.0
C1831 C 0.11309 0.62795 0.93813 0.0
C1832 C 0.03109 0.53963 0.94807 0.0
C1833 C 0.99523 0.53054 0.94926 0.0
C1834 C 0.03945 0.51203 0.94717 0.0
C1835 C 0.07672 0.51942 0.94714 0.0
C1836 C 0.08902 0.5067 0.93568 0.0
C1837 C 0.12422 0.51387 0.9356 0.0
C1838 C 0.14731 0.53357 0.94697 0.0
C1839 C 0.13522 0.54601 0.95849 0.0
C1840 C 0.10004 0.53887 0.95863 0.0
C1841 C 0.89092 0.37959 0.94074 0.0
C1842 C 0.89435 0.35642 0.95051 0.0
C1843 C 0.91768 0.41537 0.93976 0.0
C1844 C 0.94804 0.4289 0.94877 0.0
C1845 C 0.95156 0.4056 0.95841 0.0
C1846 C 0.92516 0.36981 0.95923 0.0
C1847 C 0.976 0.4673 0.94838 0.0
C1848 C 0.01185 0.47639 0.94704 0.0
C1849 C 0.96773 0.49488 0.94972 0.0
C1850 C 0.93093 0.48743 0.95243 0.0
C1851 C 0.91164 0.46716 0.96464 0.0
C1852 C 0.87692 0.46009 0.96711 0.0
C1853 C 0.86129 0.47341 0.9575 0.0
C1854 C 0.88041 0.49391 0.94543 0.0
C1855 C 0.91513 0.50102 0.9429 0.0
H1856 H 0.83441 0.46792 0.95943 0.0
H1857 H 0.17456 0.53912 0.94688 0.0
H1858 H 0.48662 0.85824 0.26966 0.0
H1859 H 0.47285 0.90633 0.26731 0.0
H1860 H 0.55976 0.97157 0.29643 0.0
H1861 H 0.57422 0.92428 0.29848 0.0
H1862 H 0.45209 0.93814 0.28551 0.0
H1863 H 0.59718 0.05782 0.28821 0.0
H1864 H 0.65739 0.07194 0.28059 0.0
H1865 H 0.6127 0.99155 0.24721 0.0
H1866 H 0.55227 0.97732 0.25447 0.0
H1867 H 0.44614 0.09156 0.3048 0.0
H1868 H 0.4589 0.043 0.30303 0.0
H1869 H 0.50972 0.08309 0.26114 0.0
H1870 H 0.49873 0.13307 0.26332 0.0
H1871 H 0.5462 0.06199 0.27469 0.0
H1872 H 0.4219 0.00697 0.26548 0.0
H1873 H 0.35981 0.99164 0.27 0.0
H1874 H 0.35916 0.94013 0.31031 0.0
H1875 H 0.42142 0.95559 0.30614 0.0
C1876 C 0.50286 0.88289 0.27552 0.0
C1877 C 0.53167 0.88744 0.28418 0.0
C1878 C 0.49491 0.91036 0.27419 0.0
C1879 C 0.51557 0.9429 0.2815 0.0
C1880 C 0.5439 0.94714 0.29038 0.0
C1881 C 0.55205 0.91991 0.2916 0.0
C1882 C 0.50734 0.97229 0.28012 0.0
C1883 C 0.47264 0.96519 0.28308 0.0
C1884 C 0.53384 0.00752 0.27656 0.0
C1885 C 0.57017 0.01631 0.27198 0.0
C1886 C 0.6002 0.04328 0.27919 0.0
C1887 C 0.63437 0.05128 0.27495 0.0
C1888 C 0.63886 0.03258 0.26346 0.0
C1889 C 0.60919 0.00593 0.25614 0.0
C1890 C 0.57497 0.99787 0.26033 0.0
C1891 C 0.46004 0.09003 0.29521 0.0
C1892 C 0.47127 0.11604 0.28416 0.0
C1893 C 0.46711 0.06204 0.29414 0.0
C1894 C 0.48453 0.05864 0.28177 0.0
C1895 C 0.49613 0.08489 0.27078 0.0
C1896 C 0.48979 0.11345 0.27202 0.0
C1897 C 0.49111 0.02807 0.28047 0.0
C1898 C 0.52553 0.03493 0.27701 0.0
C1899 C 0.46404 0.99242 0.28308 0.0
C1900 C 0.42642 0.98266 0.28554 0.0
C1901 C 0.40857 0.99253 0.27534 0.0
C1902 C 0.37334 0.98381 0.27784 0.0
C1903 C 0.35557 0.96498 0.29044 0.0
C1904 C 0.37296 0.95473 0.30055 0.0
C1905 C 0.40821 0.96342 0.29812 0.0
H1906 H 0.32831 0.95828 0.29236 0.0
H1907 H 0.66533 0.03878 0.2602 0.0
loop_
_geom_bond_atom_site_label_1
_geom_bond_atom_site_label_2
_geom_bond_distance
_geom_bond_site_symmetry_2
_ccdc_geom_bond_type
Co0 O2 2.143 . S
Co0 O8 2.074 . S
Co0 O11 2.093 . S
Co0 O24 2.097 . S
Co0 N41 2.151 . S
Co0 N49 2.214 . S
Co1 O2 2.160 . S
Co1 O7 2.058 . S
Co1 O17 2.057 . S
Co1 O32 2.037 . S
Co1 N36 2.145 . S
Co1 N57 2.257 . S
O2 Co0 2.143 . S
O2 Co1 2.160 . S
C3 O4 1.278 . S
C3 O11 1.224 . S
O4 C3 1.278 . S
C5 O6 1.245 . S
C5 O17 1.232 . S
O6 C5 1.245 . S
O7 Co1 2.058 . S
O7 C33 1.269 . S
O8 Co0 2.074 . S
O8 C33 1.257 . S
H9 C34 0.930 . S
H10 C40 0.930 . S
O11 Co0 2.093 . S
O11 C3 1.224 . S
H12 C44 0.929 . S
H13 C46 0.930 . S
H14 C47 0.926 1_554 S
H15 C45 0.929 . S
H16 C48 0.928 . S
O17 Co1 2.057 . S
O17 C5 1.232 . S
H18 C37 0.929 . S
H19 C38 0.929 . S
H20 C50 0.931 . S
H21 C42 0.929 . S
H22 C51 0.930 . S
H23 C43 0.931 . S
O24 Co0 2.097 . S
O24 C52 1.214 . S
H25 C53 0.929 . S
H26 C54 0.929 . S
H27 C55 0.930 . S
H28 C56 0.929 . S
H29 C58 0.930 . S
H30 C35 0.930 . S
H31 C39 0.930 . S
O32 Co1 2.037 . S
O32 C52 1.234 . S
C33 O7 1.269 . S
C33 O8 1.257 . S
C34 H9 0.930 . S
C34 C37 1.388 . S
C34 C39 1.418 . S
C35 H30 0.930 . S
C35 C38 1.404 . S
C35 C39 1.353 . S
N36 Co1 2.145 . S
N36 C37 1.397 . S
N36 C38 1.334 . S
C37 H18 0.929 . S
C37 C34 1.388 . S
C37 N36 1.397 . S
C38 H19 0.929 . S
C38 C35 1.404 . S
C38 N36 1.334 . S
C39 H31 0.930 . S
C39 C34 1.418 . S
C39 C35 1.353 . S
C40 H10 0.930 . S
C40 N41 1.330 . S
C40 C42 1.446 . S
N41 Co0 2.151 . S
N41 C40 1.330 . S
N41 C45 1.418 . S
C42 H21 0.929 . S
C42 C40 1.446 . S
C42 C43 1.332 . S
C43 H23 0.931 . S
C43 C42 1.332 . S
C43 C44 1.267 . S
C44 H12 0.929 . S
C44 C43 1.267 . S
C44 C45 1.251 . S
C45 H15 0.929 . S
C45 N41 1.418 . S
C45 C44 1.251 . S
C46 H13 0.930 . S
C46 C48 1.406 1_556 S
C46 C51 1.261 . S
C47 H14 0.926 1_556 S
C47 N49 1.320 1_556 S
C47 C50 1.366 . S
C48 H16 0.928 . S
C48 C46 1.406 1_554 S
C48 N49 1.261 . S
N49 Co0 2.214 . S
N49 C47 1.320 1_554 S
N49 C48 1.261 . S
C50 H20 0.931 . S
C50 C47 1.366 . S
C50 C51 1.312 . S
C51 H22 0.930 . S
C51 C46 1.261 . S
C51 C50 1.312 . S
C52 O24 1.214 . S
C52 O32 1.234 . S
C53 H25 0.929 . S
C53 C56 1.391 . S
C53 C58 1.391 . S
C54 H26 0.929 . S
C54 C55 1.390 . S
C54 N57 1.391 . S
C55 H27 0.930 . S
C55 C54 1.390 . S
C55 C56 1.392 . S
C56 H28 0.929 . S
C56 C53 1.391 . S
C56 C55 1.392 . S
N57 Co1 2.257 . S
N57 C54 1.391 . S
N57 C58 1.388 . S
C58 H29 0.930 . S
C58 C53 1.391 . S
C58 N57 1.388 . S
Co59 O61 2.143 . S
Co59 O67 2.074 . S
Co59 O70 2.093 . S
Co59 O83 2.097 . S
Co59 N100 2.151 . S
Co59 N108 2.214 . S
Co60 O61 2.160 . S
Co60 O66 2.058 . S
Co60 O76 2.057 . S
Co60 O91 2.037 . S
Co60 N95 2.145 . S
Co60 N116 2.257 . S
O61 Co59 2.143 . S
O61 Co60 2.160 . S
C62 O63 1.278 . S
C62 O70 1.224 . S
O63 C62 1.278 . S
C64 O65 1.245 . S
C64 O76 1.232 . S
O65 C64 1.245 . S
O66 Co60 2.058 . S
O66 C92 1.269 . S
O67 Co59 2.074 . S
O67 C92 1.257 . S
H68 C93 0.930 . S
H69 C99 0.930 . S
O70 Co59 2.093 . S
O70 C62 1.224 . S
H71 C103 0.929 . S
H72 C105 0.930 . S
H73 C106 0.930 . S
H74 C104 0.929 . S
H75 C107 0.928 . S
O76 Co60 2.057 . S
O76 C64 1.232 . S
H77 C96 0.929 . S
H78 C97 0.929 . S
H79 C109 0.931 . S
H80 C101 0.929 . S
H81 C110 0.930 . S
H82 C102 0.931 . S
O83 Co59 2.097 . S
O83 C111 1.214 . S
H84 C112 0.929 . S
H85 C113 0.929 . S
H86 C114 0.930 . S
H87 C115 0.929 . S
H88 C117 0.930 . S
H89 C94 0.930 . S
H90 C98 0.930 . S
O91 Co60 2.037 . S
O91 C111 1.234 . S
C92 O66 1.269 . S
C92 O67 1.257 . S
C93 H68 0.930 . S
C93 C96 1.388 . S
C93 C98 1.418 . S
C94 H89 0.930 . S
C94 C97 1.404 . S
C94 C98 1.353 . S
N95 Co60 2.145 . S
N95 C96 1.397 . S
N95 C97 1.334 . S
C96 H77 0.929 . S
C96 C93 1.388 . S
C96 N95 1.397 . S
C97 H78 0.929 . S
C97 C94 1.404 . S
C97 N95 1.334 . S
C98 H90 0.930 . S
C98 C93 1.418 . S
C98 C94 1.353 . S
C99 H69 0.930 . S
C99 N100 1.330 . S
C99 C101 1.446 . S
N100 Co59 2.151 . S
N100 C99 1.330 . S
N100 C104 1.418 . S
C101 H80 0.929 . S
C101 C99 1.446 . S
C101 C102 1.332 . S
C102 H82 0.931 . S
C102 C101 1.332 . S
C102 C103 1.267 . S
C103 H71 0.929 . S
C103 C102 1.267 . S
C103 C104 1.251 . S
C104 H74 0.929 . S
C104 N100 1.418 . S
C104 C103 1.251 . S
C105 H72 0.930 . S
C105 C107 1.406 . S
C105 C110 1.261 . S
C106 H73 0.930 . S
C106 N108 1.325 . S
C106 C109 1.357 . S
C107 H75 0.928 . S
C107 C105 1.406 . S
C107 N108 1.261 . S
N108 Co59 2.214 . S
N108 C106 1.325 . S
N108 C107 1.261 . S
C109 H79 0.931 . S
C109 C106 1.357 . S
C109 C110 1.312 . S
C110 H81 0.930 . S
C110 C105 1.261 . S
C110 C109 1.312 . S
C111 O83 1.214 . S
C111 O91 1.234 . S
C112 H84 0.929 . S
C112 C115 1.391 . S
C112 C117 1.391 . S
C113 H85 0.929 . S
C113 C114 1.390 . S
C113 N116 1.391 . S
C114 H86 0.930 . S
C114 C113 1.390 . S
C114 C115 1.392 . S
C115 H87 0.929 . S
C115 C112 1.391 . S
C115 C114 1.392 . S
N116 Co60 2.257 . S
N116 C113 1.391 . S
N116 C117 1.388 . S
C117 H88 0.930 . S
C117 C112 1.391 . S
C117 N116 1.388 . S
Co118 O120 2.143 . S
Co118 O126 2.074 . S
Co118 O129 2.093 . S
Co118 O142 2.097 . S
Co118 N159 2.151 . S
Co118 N167 2.214 . S
Co119 O120 2.160 . S
Co119 O125 2.058 . S
Co119 O135 2.057 . S
Co119 O150 2.037 . S
Co119 N154 2.145 . S
Co119 N175 2.257 . S
O120 Co118 2.143 . S
O120 Co119 2.160 . S
C121 O122 1.278 . S
C121 O129 1.224 . S
O122 C121 1.278 . S
C123 O124 1.245 . S
C123 O135 1.232 . S
O124 C123 1.245 . S
O125 Co119 2.058 . S
O125 C151 1.269 . S
O126 Co118 2.074 . S
O126 C151 1.257 . S
H127 C152 0.930 . S
H128 C158 0.930 . S
O129 Co118 2.093 . S
O129 C121 1.224 . S
H130 C162 0.929 . S
H131 C164 0.930 . S
H132 C165 0.930 . S
H133 C163 0.929 . S
H134 C166 0.928 . S
O135 Co119 2.057 . S
O135 C123 1.232 . S
H136 C155 0.929 . S
H137 C156 0.929 . S
H138 C168 0.931 . S
H139 C160 0.929 . S
H140 C169 0.930 . S
H141 C161 0.931 . S
O142 Co118 2.097 . S
O142 C170 1.214 . S
H143 C171 0.929 . S
H144 C172 0.929 . S
H145 C173 0.930 . S
H146 C174 0.929 . S
H147 C176 0.930 . S
H148 C153 0.930 . S
H149 C157 0.930 . S
O150 Co119 2.037 . S
O150 C170 1.234 . S
C151 O125 1.269 . S
C151 O126 1.257 . S
C152 H127 0.930 . S
C152 C155 1.388 . S
C152 C157 1.418 . S
C153 H148 0.930 . S
C153 C156 1.404 . S
C153 C157 1.353 . S
N154 Co119 2.145 . S
N154 C155 1.397 . S
N154 C156 1.334 . S
C155 H136 0.929 . S
C155 C152 1.388 . S
C155 N154 1.397 . S
C156 H137 0.929 . S
C156 C153 1.404 . S
C156 N154 1.334 . S
C157 H149 0.930 . S
C157 C152 1.418 . S
C157 C153 1.353 . S
C158 H128 0.930 . S
C158 N159 1.330 . S
C158 C160 1.446 . S
N159 Co118 2.151 . S
N159 C158 1.330 . S
N159 C163 1.418 . S
C160 H139 0.929 . S
C160 C158 1.446 . S
C160 C161 1.332 . S
C161 H141 0.931 . S
C161 C160 1.332 . S
C161 C162 1.267 . S
C162 H130 0.929 . S
C162 C161 1.267 . S
C162 C163 1.251 . S
C163 H133 0.929 . S
C163 N159 1.418 . S
C163 C162 1.251 . S
C164 H131 0.930 . S
C164 C166 1.406 . S
C164 C169 1.261 . S
C165 H132 0.930 . S
C165 N167 1.325 . S
C165 C168 1.357 . S
C166 H134 0.928 . S
C166 C164 1.406 . S
C166 N167 1.261 . S
N167 Co118 2.214 . S
N167 C165 1.325 . S
N167 C166 1.261 . S
C168 H138 0.931 . S
C168 C165 1.357 . S
C168 C169 1.312 . S
C169 H140 0.930 . S
C169 C164 1.261 . S
C169 C168 1.312 . S
C170 O142 1.214 . S
C170 O150 1.234 . S
C171 H143 0.929 . S
C171 C174 1.391 . S
C171 C176 1.391 . S
C172 H144 0.929 . S
C172 C173 1.390 . S
C172 N175 1.391 . S
C173 H145 0.930 . S
C173 C172 1.390 . S
C173 C174 1.392 . S
C174 H146 0.929 . S
C174 C171 1.391 . S
C174 C173 1.392 . S
N175 Co119 2.257 . S
N175 C172 1.391 . S
N175 C176 1.388 . S
C176 H147 0.930 . S
C176 C171 1.391 . S
C176 N175 1.388 . S
Co177 O179 2.143 . S
Co177 O185 2.074 . S
Co177 O188 2.093 . S
Co177 O201 2.097 . S
Co177 N218 2.151 . S
Co177 N226 2.214 . S
Co178 O179 2.160 . S
Co178 O184 2.058 . S
Co178 O194 2.057 . S
Co178 O209 2.037 . S
Co178 N213 2.145 . S
Co178 N234 2.257 . S
O179 Co177 2.143 . S
O179 Co178 2.160 . S
C180 O181 1.278 . S
C180 O188 1.224 . S
O181 C180 1.278 . S
C182 O183 1.245 . S
C182 O194 1.232 . S
O183 C182 1.245 . S
O184 Co178 2.058 . S
O184 C210 1.269 . S
O185 Co177 2.074 . S
O185 C210 1.257 . S
H186 C211 0.930 . S
H187 C217 0.930 . S
O188 Co177 2.093 . S
O188 C180 1.224 . S
H189 C221 0.929 . S
H190 C223 0.930 . S
H191 C224 0.926 1_554 S
H192 C222 0.929 . S
H193 C225 0.928 . S
O194 Co178 2.057 . S
O194 C182 1.232 . S
H195 C214 0.929 . S
H196 C215 0.929 . S
H197 C227 0.931 . S
H198 C219 0.929 . S
H199 C228 0.930 . S
H200 C220 0.931 . S
O201 Co177 2.097 . S
O201 C229 1.214 . S
H202 C230 0.929 . S
H203 C231 0.929 . S
H204 C232 0.930 . S
H205 C233 0.929 . S
H206 C235 0.930 . S
H207 C212 0.930 . S
H208 C216 0.930 . S
O209 Co178 2.037 . S
O209 C229 1.234 . S
C210 O184 1.269 . S
C210 O185 1.257 . S
C211 H186 0.930 . S
C211 C214 1.388 . S
C211 C216 1.418 . S
C212 H207 0.930 . S
C212 C215 1.404 . S
C212 C216 1.353 . S
N213 Co178 2.145 . S
N213 C214 1.397 . S
N213 C215 1.334 . S
C214 H195 0.929 . S
C214 C211 1.388 . S
C214 N213 1.397 . S
C215 H196 0.929 . S
C215 C212 1.404 . S
C215 N213 1.334 . S
C216 H208 0.930 . S
C216 C211 1.418 . S
C216 C212 1.353 . S
C217 H187 0.930 . S
C217 N218 1.330 . S
C217 C219 1.446 . S
N218 Co177 2.151 . S
N218 C217 1.330 . S
N218 C222 1.418 . S
C219 H198 0.929 . S
C219 C217 1.446 . S
C219 C220 1.332 . S
C220 H200 0.931 . S
C220 C219 1.332 . S
C220 C221 1.267 . S
C221 H189 0.929 . S
C221 C220 1.267 . S
C221 C222 1.251 . S
C222 H192 0.929 . S
C222 N218 1.418 . S
C222 C221 1.251 . S
C223 H190 0.930 . S
C223 C225 1.406 1_556 S
C223 C228 1.261 . S
C224 H191 0.926 1_556 S
C224 N226 1.320 1_556 S
C224 C227 1.366 . S
C225 H193 0.928 . S
C225 C223 1.406 1_554 S
C225 N226 1.261 . S
N226 Co177 2.214 . S
N226 C224 1.320 1_554 S
N226 C225 1.261 . S
C227 H197 0.931 . S
C227 C224 1.366 . S
C227 C228 1.312 . S
C228 H199 0.930 . S
C228 C223 1.261 . S
C228 C227 1.312 . S
C229 O201 1.214 . S
C229 O209 1.234 . S
C230 H202 0.929 . S
C230 C233 1.391 . S
C230 C235 1.391 . S
C231 H203 0.929 . S
C231 C232 1.390 . S
C231 N234 1.391 . S
C232 H204 0.930 . S
C232 C231 1.390 . S
C232 C233 1.392 . S
C233 H205 0.929 . S
C233 C230 1.391 . S
C233 C232 1.392 . S
N234 Co178 2.257 . S
N234 C231 1.391 . S
N234 C235 1.388 . S
C235 H206 0.930 . S
C235 C230 1.391 . S
C235 N234 1.388 . S
Co236 O238 2.143 . S
Co236 O244 2.074 . S
Co236 O247 2.093 . S
Co236 O260 2.097 . S
Co236 N277 2.151 . S
Co236 N285 2.214 . S
Co237 O238 2.160 . S
Co237 O243 2.058 . S
Co237 O253 2.057 . S
Co237 O268 2.037 . S
Co237 N272 2.145 . S
Co237 N293 2.257 . S
O238 Co236 2.143 . S
O238 Co237 2.160 . S
C239 O240 1.278 . S
C239 O247 1.224 . S
O240 C239 1.278 . S
C241 O242 1.245 . S
C241 O253 1.232 . S
O242 C241 1.245 . S
O243 Co237 2.058 . S
O243 C269 1.269 . S
O244 Co236 2.074 . S
O244 C269 1.257 . S
H245 C270 0.930 . S
H246 C276 0.930 . S
O247 Co236 2.093 . S
O247 C239 1.224 . S
H248 C280 0.929 . S
H249 C282 0.930 . S
H250 C283 0.930 . S
H251 C281 0.929 . S
H252 C284 0.928 . S
O253 Co237 2.057 . S
O253 C241 1.232 . S
H254 C273 0.929 . S
H255 C274 0.929 . S
H256 C286 0.931 . S
H257 C278 0.929 . S
H258 C287 0.930 . S
H259 C279 0.931 . S
O260 Co236 2.097 . S
O260 C288 1.214 . S
H261 C289 0.929 . S
H262 C290 0.929 . S
H263 C291 0.930 . S
H264 C292 0.929 . S
H265 C294 0.930 . S
H266 C271 0.930 . S
H267 C275 0.930 . S
O268 Co237 2.037 . S
O268 C288 1.234 . S
C269 O243 1.269 . S
C269 O244 1.257 . S
C270 H245 0.930 . S
C270 C273 1.388 . S
C270 C275 1.418 . S
C271 H266 0.930 . S
C271 C274 1.404 . S
C271 C275 1.353 . S
N272 Co237 2.145 . S
N272 C273 1.397 . S
N272 C274 1.334 . S
C273 H254 0.929 . S
C273 C270 1.388 . S
C273 N272 1.397 . S
C274 H255 0.929 . S
C274 C271 1.404 . S
C274 N272 1.334 . S
C275 H267 0.930 . S
C275 C270 1.418 . S
C275 C271 1.353 . S
C276 H246 0.930 . S
C276 N277 1.330 . S
C276 C278 1.446 . S
N277 Co236 2.151 . S
N277 C276 1.330 . S
N277 C281 1.418 . S
C278 H257 0.929 . S
C278 C276 1.446 . S
C278 C279 1.332 . S
C279 H259 0.931 . S
C279 C278 1.332 . S
C279 C280 1.267 . S
C280 H248 0.929 . S
C280 C279 1.267 . S
C280 C281 1.251 . S
C281 H251 0.929 . S
C281 N277 1.418 . S
C281 C280 1.251 . S
C282 H249 0.930 . S
C282 C284 1.406 . S
C282 C287 1.261 . S
C283 H250 0.930 . S
C283 N285 1.325 . S
C283 C286 1.357 . S
C284 H252 0.928 . S
C284 C282 1.406 . S
C284 N285 1.261 . S
N285 Co236 2.214 . S
N285 C283 1.325 . S
N285 C284 1.261 . S
C286 H256 0.931 . S
C286 C283 1.357 . S
C286 C287 1.312 . S
C287 H258 0.930 . S
C287 C282 1.261 . S
C287 C286 1.312 . S
C288 O260 1.214 . S
C288 O268 1.234 . S
C289 H261 0.929 . S
C289 C292 1.391 . S
C289 C294 1.391 . S
C290 H262 0.929 . S
C290 C291 1.390 . S
C290 N293 1.391 . S
C291 H263 0.930 . S
C291 C290 1.390 . S
C291 C292 1.392 . S
C292 H264 0.929 . S
C292 C289 1.391 . S
C292 C291 1.392 . S
N293 Co237 2.257 . S
N293 C290 1.391 . S
N293 C294 1.388 . S
C294 H265 0.930 . S
C294 C289 1.391 . S
C294 N293 1.388 . S
Co295 O297 2.143 . S
Co295 O303 2.074 . S
Co295 O306 2.093 . S
Co295 O319 2.097 . S
Co295 N336 2.151 . S
Co295 N344 2.214 . S
Co296 O297 2.160 . S
Co296 O302 2.058 . S
Co296 O312 2.057 . S
Co296 O327 2.037 . S
Co296 N331 2.145 . S
Co296 N352 2.257 . S
O297 Co295 2.143 . S
O297 Co296 2.160 . S
C298 O299 1.278 . S
C298 O306 1.224 . S
O299 C298 1.278 . S
C300 O301 1.245 . S
C300 O312 1.232 . S
O301 C300 1.245 . S
O302 Co296 2.058 . S
O302 C328 1.269 . S
O303 Co295 2.074 . S
O303 C328 1.257 . S
H304 C329 0.930 . S
H305 C335 0.930 . S
O306 Co295 2.093 . S
O306 C298 1.224 . S
H307 C339 0.929 . S
H308 C341 0.930 . S
H309 C342 0.930 . S
H310 C340 0.929 . S
H311 C343 0.928 . S
O312 Co296 2.057 . S
O312 C300 1.232 . S
H313 C332 0.929 . S
H314 C333 0.929 . S
H315 C345 0.931 . S
H316 C337 0.929 . S
H317 C346 0.930 . S
H318 C338 0.931 . S
O319 Co295 2.097 . S
O319 C347 1.214 . S
H320 C348 0.929 . S
H321 C349 0.929 . S
H322 C350 0.930 . S
H323 C351 0.929 . S
H324 C353 0.930 . S
H325 C330 0.930 . S
H326 C334 0.930 . S
O327 Co296 2.037 . S
O327 C347 1.234 . S
C328 O302 1.269 . S
C328 O303 1.257 . S
C329 H304 0.930 . S
C329 C332 1.388 . S
C329 C334 1.418 . S
C330 H325 0.930 . S
C330 C333 1.404 . S
C330 C334 1.353 . S
N331 Co296 2.145 . S
N331 C332 1.397 . S
N331 C333 1.334 . S
C332 H313 0.929 . S
C332 C329 1.388 . S
C332 N331 1.397 . S
C333 H314 0.929 . S
C333 C330 1.404 . S
C333 N331 1.334 . S
C334 H326 0.930 . S
C334 C329 1.418 . S
C334 C330 1.353 . S
C335 H305 0.930 . S
C335 N336 1.330 . S
C335 C337 1.446 . S
N336 Co295 2.151 . S
N336 C335 1.330 . S
N336 C340 1.418 . S
C337 H316 0.929 . S
C337 C335 1.446 . S
C337 C338 1.332 . S
C338 H318 0.931 . S
C338 C337 1.332 . S
C338 C339 1.267 . S
C339 H307 0.929 . S
C339 C338 1.267 . S
C339 C340 1.251 . S
C340 H310 0.929 . S
C340 N336 1.418 . S
C340 C339 1.251 . S
C341 H308 0.930 . S
C341 C343 1.406 . S
C341 C346 1.261 . S
C342 H309 0.930 . S
C342 N344 1.325 . S
C342 C345 1.357 . S
C343 H311 0.928 . S
C343 C341 1.406 . S
C343 N344 1.261 . S
N344 Co295 2.214 . S
N344 C342 1.325 . S
N344 C343 1.261 . S
C345 H315 0.931 . S
C345 C342 1.357 . S
C345 C346 1.312 . S
C346 H317 0.930 . S
C346 C341 1.261 . S
C346 C345 1.312 . S
C347 O319 1.214 . S
C347 O327 1.234 . S
C348 H320 0.929 . S
C348 C351 1.391 . S
C348 C353 1.391 . S
C349 H321 0.929 . S
C349 C350 1.390 . S
C349 N352 1.391 . S
C350 H322 0.930 . S
C350 C349 1.390 . S
C350 C351 1.392 . S
C351 H323 0.929 . S
C351 C348 1.391 . S
C351 C350 1.392 . S
N352 Co296 2.257 . S
N352 C349 1.391 . S
N352 C353 1.388 . S
C353 H324 0.930 . S
C353 C348 1.391 . S
C353 N352 1.388 . S
Co354 O356 2.143 . S
Co354 O362 2.074 . S
Co354 O365 2.093 . S
Co354 O378 2.097 . S
Co354 N395 2.151 . S
Co354 N403 2.214 . S
Co355 O356 2.160 . S
Co355 O361 2.058 . S
Co355 O371 2.057 . S
Co355 O386 2.037 . S
Co355 N390 2.145 . S
Co355 N411 2.257 . S
O356 Co354 2.143 . S
O356 Co355 2.160 . S
C357 O358 1.278 . S
C357 O365 1.224 . S
O358 C357 1.278 . S
C359 O360 1.245 . S
C359 O371 1.232 . S
O360 C359 1.245 . S
O361 Co355 2.058 . S
O361 C387 1.269 . S
O362 Co354 2.074 . S
O362 C387 1.257 . S
H363 C388 0.930 . S
H364 C394 0.930 . S
O365 Co354 2.093 . S
O365 C357 1.224 . S
H366 C398 0.929 . S
H367 C400 0.930 . S
H368 C401 0.930 . S
H369 C399 0.929 . S
H370 C402 0.928 . S
O371 Co355 2.057 . S
O371 C359 1.232 . S
H372 C391 0.929 . S
H373 C392 0.929 . S
H374 C404 0.931 . S
H375 C396 0.929 . S
H376 C405 0.930 . S
H377 C397 0.931 . S
O378 Co354 2.097 . S
O378 C406 1.214 . S
H379 C407 0.929 . S
H380 C408 0.929 . S
H381 C409 0.930 . S
H382 C410 0.929 . S
H383 C412 0.930 . S
H384 C389 0.930 . S
H385 C393 0.930 . S
O386 Co355 2.037 . S
O386 C406 1.234 . S
C387 O361 1.269 . S
C387 O362 1.257 . S
C388 H363 0.930 . S
C388 C391 1.388 . S
C388 C393 1.418 . S
C389 H384 0.930 . S
C389 C392 1.404 . S
C389 C393 1.353 . S
N390 Co355 2.145 . S
N390 C391 1.397 . S
N390 C392 1.334 . S
C391 H372 0.929 . S
C391 C388 1.388 . S
C391 N390 1.397 . S
C392 H373 0.929 . S
C392 C389 1.404 . S
C392 N390 1.334 . S
C393 H385 0.930 . S
C393 C388 1.418 . S
C393 C389 1.353 . S
C394 H364 0.930 . S
C394 N395 1.330 . S
C394 C396 1.446 . S
N395 Co354 2.151 . S
N395 C394 1.330 . S
N395 C399 1.418 . S
C396 H375 0.929 . S
C396 C394 1.446 . S
C396 C397 1.332 . S
C397 H377 0.931 . S
C397 C396 1.332 . S
C397 C398 1.267 . S
C398 H366 0.929 . S
C398 C397 1.267 . S
C398 C399 1.251 . S
C399 H369 0.929 . S
C399 N395 1.418 . S
C399 C398 1.251 . S
C400 H367 0.930 . S
C400 C402 1.406 . S
C400 C405 1.261 . S
C401 H368 0.930 . S
C401 N403 1.325 . S
C401 C404 1.357 . S
C402 H370 0.928 . S
C402 C400 1.406 . S
C402 N403 1.261 . S
N403 Co354 2.214 . S
N403 C401 1.325 . S
N403 C402 1.261 . S
C404 H374 0.931 . S
C404 C401 1.357 . S
C404 C405 1.312 . S
C405 H376 0.930 . S
C405 C400 1.261 . S
C405 C404 1.312 . S
C406 O378 1.214 . S
C406 O386 1.234 . S
C407 H379 0.929 . S
C407 C410 1.391 . S
C407 C412 1.391 . S
C408 H380 0.929 . S
C408 C409 1.390 . S
C408 N411 1.391 . S
C409 H381 0.930 . S
C409 C408 1.390 . S
C409 C410 1.392 . S
C410 H382 0.929 . S
C410 C407 1.391 . S
C410 C409 1.392 . S
N411 Co355 2.257 . S
N411 C408 1.391 . S
N411 C412 1.388 . S
C412 H383 0.930 . S
C412 C407 1.391 . S
C412 N411 1.388 . S
Co413 O415 2.143 . S
Co413 O421 2.074 . S
Co413 O424 2.093 . S
Co413 O437 2.097 . S
Co413 N454 2.151 . S
Co413 N462 2.214 . S
Co414 O415 2.160 . S
Co414 O420 2.058 . S
Co414 O430 2.057 . S
Co414 O445 2.037 . S
Co414 N449 2.145 . S
Co414 N470 2.257 . S
O415 Co413 2.143 . S
O415 Co414 2.160 . S
C416 O417 1.278 . S
C416 O424 1.224 . S
O417 C416 1.278 . S
C418 O419 1.245 . S
C418 O430 1.232 . S
O419 C418 1.245 . S
O420 Co414 2.058 . S
O420 C446 1.269 . S
O421 Co413 2.074 . S
O421 C446 1.257 . S
H422 C447 0.930 . S
H423 C453 0.930 . S
O424 Co413 2.093 . S
O424 C416 1.224 . S
H425 C457 0.929 . S
H426 C459 0.930 . S
H427 C460 0.926 1_556 S
H428 C458 0.929 . S
H429 C461 0.928 . S
O430 Co414 2.057 . S
O430 C418 1.232 . S
H431 C450 0.929 . S
H432 C451 0.929 . S
H433 C463 0.931 . S
H434 C455 0.929 . S
H435 C464 0.930 . S
H436 C456 0.931 . S
O437 Co413 2.097 . S
O437 C465 1.214 . S
H438 C466 0.929 . S
H439 C467 0.929 . S
H440 C468 0.930 . S
H441 C469 0.929 . S
H442 C471 0.930 . S
H443 C448 0.930 . S
H444 C452 0.930 . S
O445 Co414 2.037 . S
O445 C465 1.234 . S
C446 O420 1.269 . S
C446 O421 1.257 . S
C447 H422 0.930 . S
C447 C450 1.388 . S
C447 C452 1.418 . S
C448 H443 0.930 . S
C448 C451 1.404 . S
C448 C452 1.353 . S
N449 Co414 2.145 . S
N449 C450 1.397 . S
N449 C451 1.334 . S
C450 H431 0.929 . S
C450 C447 1.388 . S
C450 N449 1.397 . S
C451 H432 0.929 . S
C451 C448 1.404 . S
C451 N449 1.334 . S
C452 H444 0.930 . S
C452 C447 1.418 . S
C452 C448 1.353 . S
C453 H423 0.930 . S
C453 N454 1.330 . S
C453 C455 1.446 . S
N454 Co413 2.151 . S
N454 C453 1.330 . S
N454 C458 1.418 . S
C455 H434 0.929 . S
C455 C453 1.446 . S
C455 C456 1.332 . S
C456 H436 0.931 . S
C456 C455 1.332 . S
C456 C457 1.267 . S
C457 H425 0.929 . S
C457 C456 1.267 . S
C457 C458 1.251 . S
C458 H428 0.929 . S
C458 N454 1.418 . S
C458 C457 1.251 . S
C459 H426 0.930 . S
C459 C461 1.406 1_554 S
C459 C464 1.261 . S
C460 H427 0.926 1_554 S
C460 N462 1.320 1_554 S
C460 C463 1.366 . S
C461 H429 0.928 . S
C461 C459 1.406 1_556 S
C461 N462 1.261 . S
N462 Co413 2.214 . S
N462 C460 1.320 1_556 S
N462 C461 1.261 . S
C463 H433 0.931 . S
C463 C460 1.366 . S
C463 C464 1.312 . S
C464 H435 0.930 . S
C464 C459 1.261 . S
C464 C463 1.312 . S
C465 O437 1.214 . S
C465 O445 1.234 . S
C466 H438 0.929 . S
C466 C469 1.391 . S
C466 C471 1.391 . S
C467 H439 0.929 . S
C467 C468 1.390 . S
C467 N470 1.391 . S
C468 H440 0.930 . S
C468 C467 1.390 . S
C468 C469 1.392 . S
C469 H441 0.929 . S
C469 C466 1.391 . S
C469 C468 1.392 . S
N470 Co414 2.257 . S
N470 C467 1.391 . S
N470 C471 1.388 . S
C471 H442 0.930 . S
C471 C466 1.391 . S
C471 N470 1.388 . S
Co472 O474 2.143 . S
Co472 O480 2.074 . S
Co472 O483 2.093 . S
Co472 O496 2.097 . S
Co472 N513 2.151 . S
Co472 N521 2.214 . S
Co473 O474 2.160 . S
Co473 O479 2.058 . S
Co473 O489 2.057 . S
Co473 O504 2.037 . S
Co473 N508 2.145 . S
Co473 N529 2.257 . S
O474 Co472 2.143 . S
O474 Co473 2.160 . S
C475 O476 1.278 . S
C475 O483 1.224 . S
O476 C475 1.278 . S
C477 O478 1.245 . S
C477 O489 1.232 . S
O478 C477 1.245 . S
O479 Co473 2.058 . S
O479 C505 1.269 . S
O480 Co472 2.074 . S
O480 C505 1.257 . S
H481 C506 0.930 . S
H482 C512 0.930 . S
O483 Co472 2.093 . S
O483 C475 1.224 . S
H484 C516 0.929 . S
H485 C518 0.930 . S
H486 C519 0.930 . S
H487 C517 0.929 . S
H488 C520 0.928 . S
O489 Co473 2.057 . S
O489 C477 1.232 . S
H490 C509 0.929 . S
H491 C510 0.929 . S
H492 C522 0.931 . S
H493 C514 0.929 . S
H494 C523 0.930 . S
H495 C515 0.931 . S
O496 Co472 2.097 . S
O496 C524 1.214 . S
H497 C525 0.929 . S
H498 C526 0.929 . S
H499 C527 0.930 . S
H500 C528 0.929 . S
H501 C530 0.930 . S
H502 C507 0.930 . S
H503 C511 0.930 . S
O504 Co473 2.037 . S
O504 C524 1.234 . S
C505 O479 1.269 . S
C505 O480 1.257 . S
C506 H481 0.930 . S
C506 C509 1.388 . S
C506 C511 1.418 . S
C507 H502 0.930 . S
C507 C510 1.404 . S
C507 C511 1.353 . S
N508 Co473 2.145 . S
N508 C509 1.397 . S
N508 C510 1.334 . S
C509 H490 0.929 . S
C509 C506 1.388 . S
C509 N508 1.397 . S
C510 H491 0.929 . S
C510 C507 1.404 . S
C510 N508 1.334 . S
C511 H503 0.930 . S
C511 C506 1.418 . S
C511 C507 1.353 . S
C512 H482 0.930 . S
C512 N513 1.330 . S
C512 C514 1.446 . S
N513 Co472 2.151 . S
N513 C512 1.330 . S
N513 C517 1.418 . S
C514 H493 0.929 . S
C514 C512 1.446 . S
C514 C515 1.332 . S
C515 H495 0.931 . S
C515 C514 1.332 . S
C515 C516 1.267 . S
C516 H484 0.929 . S
C516 C515 1.267 . S
C516 C517 1.251 . S
C517 H487 0.929 . S
C517 N513 1.418 . S
C517 C516 1.251 . S
C518 H485 0.930 . S
C518 C520 1.406 . S
C518 C523 1.261 . S
C519 H486 0.930 . S
C519 N521 1.325 . S
C519 C522 1.357 . S
C520 H488 0.928 . S
C520 C518 1.406 . S
C520 N521 1.261 . S
N521 Co472 2.214 . S
N521 C519 1.325 . S
N521 C520 1.261 . S
C522 H492 0.931 . S
C522 C519 1.357 . S
C522 C523 1.312 . S
C523 H494 0.930 . S
C523 C518 1.261 . S
C523 C522 1.312 . S
C524 O496 1.214 . S
C524 O504 1.234 . S
C525 H497 0.929 . S
C525 C528 1.391 . S
C525 C530 1.391 . S
C526 H498 0.929 . S
C526 C527 1.390 . S
C526 N529 1.391 . S
C527 H499 0.930 . S
C527 C526 1.390 . S
C527 C528 1.392 . S
C528 H500 0.929 . S
C528 C525 1.391 . S
C528 C527 1.392 . S
N529 Co473 2.257 . S
N529 C526 1.391 . S
N529 C530 1.388 . S
C530 H501 0.930 . S
C530 C525 1.391 . S
C530 N529 1.388 . S
Co531 O533 2.143 . S
Co531 O539 2.074 . S
Co531 O542 2.093 . S
Co531 O555 2.097 . S
Co531 N572 2.151 . S
Co531 N580 2.214 . S
Co532 O533 2.160 . S
Co532 O538 2.058 . S
Co532 O548 2.057 . S
Co532 O563 2.037 . S
Co532 N567 2.145 . S
Co532 N588 2.257 . S
O533 Co531 2.143 . S
O533 Co532 2.160 . S
C534 O535 1.278 . S
C534 O542 1.224 . S
O535 C534 1.278 . S
C536 O537 1.245 . S
C536 O548 1.232 . S
O537 C536 1.245 . S
O538 Co532 2.058 . S
O538 C564 1.269 . S
O539 Co531 2.074 . S
O539 C564 1.257 . S
H540 C565 0.930 . S
H541 C571 0.930 . S
O542 Co531 2.093 . S
O542 C534 1.224 . S
H543 C575 0.929 . S
H544 C577 0.930 . S
H545 C578 0.930 . S
H546 C576 0.929 . S
H547 C579 0.928 . S
O548 Co532 2.057 . S
O548 C536 1.232 . S
H549 C568 0.929 . S
H550 C569 0.929 . S
H551 C581 0.931 . S
H552 C573 0.929 . S
H553 C582 0.930 . S
H554 C574 0.931 . S
O555 Co531 2.097 . S
O555 C583 1.214 . S
H556 C584 0.929 . S
H557 C585 0.929 . S
H558 C586 0.930 . S
H559 C587 0.929 . S
H560 C589 0.930 . S
H561 C566 0.930 . S
H562 C570 0.930 . S
O563 Co532 2.037 . S
O563 C583 1.234 . S
C564 O538 1.269 . S
C564 O539 1.257 . S
C565 H540 0.930 . S
C565 C568 1.388 . S
C565 C570 1.418 . S
C566 H561 0.930 . S
C566 C569 1.404 . S
C566 C570 1.353 . S
N567 Co532 2.145 . S
N567 C568 1.397 . S
N567 C569 1.334 . S
C568 H549 0.929 . S
C568 C565 1.388 . S
C568 N567 1.397 . S
C569 H550 0.929 . S
C569 C566 1.404 . S
C569 N567 1.334 . S
C570 H562 0.930 . S
C570 C565 1.418 . S
C570 C566 1.353 . S
C571 H541 0.930 . S
C571 N572 1.330 . S
C571 C573 1.446 . S
N572 Co531 2.151 . S
N572 C571 1.330 . S
N572 C576 1.418 . S
C573 H552 0.929 . S
C573 C571 1.446 . S
C573 C574 1.332 . S
C574 H554 0.931 . S
C574 C573 1.332 . S
C574 C575 1.267 . S
C575 H543 0.929 . S
C575 C574 1.267 . S
C575 C576 1.251 . S
C576 H546 0.929 . S
C576 N572 1.418 . S
C576 C575 1.251 . S
C577 H544 0.930 . S
C577 C579 1.406 . S
C577 C582 1.261 . S
C578 H545 0.930 . S
C578 N580 1.325 . S
C578 C581 1.357 . S
C579 H547 0.928 . S
C579 C577 1.406 . S
C579 N580 1.261 . S
N580 Co531 2.214 . S
N580 C578 1.325 . S
N580 C579 1.261 . S
C581 H551 0.931 . S
C581 C578 1.357 . S
C581 C582 1.312 . S
C582 H553 0.930 . S
C582 C577 1.261 . S
C582 C581 1.312 . S
C583 O555 1.214 . S
C583 O563 1.234 . S
C584 H556 0.929 . S
C584 C587 1.391 . S
C584 C589 1.391 . S
C585 H557 0.929 . S
C585 C586 1.390 . S
C585 N588 1.391 . S
C586 H558 0.930 . S
C586 C585 1.390 . S
C586 C587 1.392 . S
C587 H559 0.929 . S
C587 C584 1.391 . S
C587 C586 1.392 . S
N588 Co532 2.257 . S
N588 C585 1.391 . S
N588 C589 1.388 . S
C589 H560 0.930 . S
C589 C584 1.391 . S
C589 N588 1.388 . S
Co590 O592 2.143 . S
Co590 O598 2.074 . S
Co590 O601 2.093 . S
Co590 O614 2.097 . S
Co590 N631 2.151 . S
Co590 N639 2.214 . S
Co591 O592 2.160 . S
Co591 O597 2.058 . S
Co591 O607 2.057 . S
Co591 O622 2.037 . S
Co591 N626 2.145 . S
Co591 N647 2.257 . S
O592 Co590 2.143 . S
O592 Co591 2.160 . S
C593 O594 1.278 . S
C593 O601 1.224 . S
O594 C593 1.278 . S
C595 O596 1.245 . S
C595 O607 1.232 . S
O596 C595 1.245 . S
O597 Co591 2.058 . S
O597 C623 1.269 . S
O598 Co590 2.074 . S
O598 C623 1.257 . S
H599 C624 0.930 . S
H600 C630 0.930 . S
O601 Co590 2.093 . S
O601 C593 1.224 . S
H602 C634 0.929 . S
H603 C636 0.930 . S
H604 C637 0.926 1_556 S
H605 C635 0.929 . S
H606 C638 0.928 . S
O607 Co591 2.057 . S
O607 C595 1.232 . S
H608 C627 0.929 . S
H609 C628 0.929 . S
H610 C640 0.931 . S
H611 C632 0.929 . S
H612 C641 0.930 . S
H613 C633 0.931 . S
O614 Co590 2.097 . S
O614 C642 1.214 . S
H615 C643 0.929 . S
H616 C644 0.929 . S
H617 C645 0.930 . S
H618 C646 0.929 . S
H619 C648 0.930 . S
H620 C625 0.930 . S
H621 C629 0.930 . S
O622 Co591 2.037 . S
O622 C642 1.234 . S
C623 O597 1.269 . S
C623 O598 1.257 . S
C624 H599 0.930 . S
C624 C627 1.388 . S
C624 C629 1.418 . S
C625 H620 0.930 . S
C625 C628 1.404 . S
C625 C629 1.353 . S
N626 Co591 2.145 . S
N626 C627 1.397 . S
N626 C628 1.334 . S
C627 H608 0.929 . S
C627 C624 1.388 . S
C627 N626 1.397 . S
C628 H609 0.929 . S
C628 C625 1.404 . S
C628 N626 1.334 . S
C629 H621 0.930 . S
C629 C624 1.418 . S
C629 C625 1.353 . S
C630 H600 0.930 . S
C630 N631 1.330 . S
C630 C632 1.446 . S
N631 Co590 2.151 . S
N631 C630 1.330 . S
N631 C635 1.418 . S
C632 H611 0.929 . S
C632 C630 1.446 . S
C632 C633 1.332 . S
C633 H613 0.931 . S
C633 C632 1.332 . S
C633 C634 1.267 . S
C634 H602 0.929 . S
C634 C633 1.267 . S
C634 C635 1.251 . S
C635 H605 0.929 . S
C635 N631 1.418 . S
C635 C634 1.251 . S
C636 H603 0.930 . S
C636 C638 1.406 1_554 S
C636 C641 1.261 . S
C637 H604 0.926 1_554 S
C637 N639 1.320 1_554 S
C637 C640 1.366 . S
C638 H606 0.928 . S
C638 C636 1.406 1_556 S
C638 N639 1.261 . S
N639 Co590 2.214 . S
N639 C637 1.320 1_556 S
N639 C638 1.261 . S
C640 H610 0.931 . S
C640 C637 1.366 . S
C640 C641 1.312 . S
C641 H612 0.930 . S
C641 C636 1.261 . S
C641 C640 1.312 . S
C642 O614 1.214 . S
C642 O622 1.234 . S
C643 H615 0.929 . S
C643 C646 1.391 . S
C643 C648 1.391 . S
C644 H616 0.929 . S
C644 C645 1.390 . S
C644 N647 1.391 . S
C645 H617 0.930 . S
C645 C644 1.390 . S
C645 C646 1.392 . S
C646 H618 0.929 . S
C646 C643 1.391 . S
C646 C645 1.392 . S
N647 Co591 2.257 . S
N647 C644 1.391 . S
N647 C648 1.388 . S
C648 H619 0.930 . S
C648 C643 1.391 . S
C648 N647 1.388 . S
Co649 O651 2.143 . S
Co649 O657 2.074 . S
Co649 O660 2.093 . S
Co649 O673 2.097 . S
Co649 N690 2.151 . S
Co649 N698 2.214 . S
Co650 O651 2.160 . S
Co650 O656 2.058 . S
Co650 O666 2.057 . S
Co650 O681 2.037 . S
Co650 N685 2.145 . S
Co650 N706 2.257 . S
O651 Co649 2.143 . S
O651 Co650 2.160 . S
C652 O653 1.278 . S
C652 O660 1.224 . S
O653 C652 1.278 . S
C654 O655 1.245 . S
C654 O666 1.232 . S
O655 C654 1.245 . S
O656 Co650 2.058 . S
O656 C682 1.269 . S
O657 Co649 2.074 . S
O657 C682 1.257 . S
H658 C683 0.930 . S
H659 C689 0.930 . S
O660 Co649 2.093 . S
O660 C652 1.224 . S
H661 C693 0.929 . S
H662 C695 0.930 . S
H663 C696 0.930 . S
H664 C694 0.929 . S
H665 C697 0.928 . S
O666 Co650 2.057 . S
O666 C654 1.232 . S
H667 C686 0.929 . S
H668 C687 0.929 . S
H669 C699 0.931 . S
H670 C691 0.929 . S
H671 C700 0.930 . S
H672 C692 0.931 . S
O673 Co649 2.097 . S
O673 C701 1.214 . S
H674 C702 0.929 . S
H675 C703 0.929 . S
H676 C704 0.930 . S
H677 C705 0.929 . S
H678 C707 0.930 . S
H679 C684 0.930 . S
H680 C688 0.930 . S
O681 Co650 2.037 . S
O681 C701 1.234 . S
C682 O656 1.269 . S
C682 O657 1.257 . S
C683 H658 0.930 . S
C683 C686 1.388 . S
C683 C688 1.418 . S
C684 H679 0.930 . S
C684 C687 1.404 . S
C684 C688 1.353 . S
N685 Co650 2.145 . S
N685 C686 1.397 . S
N685 C687 1.334 . S
C686 H667 0.929 . S
C686 C683 1.388 . S
C686 N685 1.397 . S
C687 H668 0.929 . S
C687 C684 1.404 . S
C687 N685 1.334 . S
C688 H680 0.930 . S
C688 C683 1.418 . S
C688 C684 1.353 . S
C689 H659 0.930 . S
C689 N690 1.330 . S
C689 C691 1.446 . S
N690 Co649 2.151 . S
N690 C689 1.330 . S
N690 C694 1.418 . S
C691 H670 0.929 . S
C691 C689 1.446 . S
C691 C692 1.332 . S
C692 H672 0.931 . S
C692 C691 1.332 . S
C692 C693 1.267 . S
C693 H661 0.929 . S
C693 C692 1.267 . S
C693 C694 1.251 . S
C694 H664 0.929 . S
C694 N690 1.418 . S
C694 C693 1.251 . S
C695 H662 0.930 . S
C695 C697 1.406 . S
C695 C700 1.261 . S
C696 H663 0.930 . S
C696 N698 1.325 . S
C696 C699 1.357 . S
C697 H665 0.928 . S
C697 C695 1.406 . S
C697 N698 1.261 . S
N698 Co649 2.214 . S
N698 C696 1.325 . S
N698 C697 1.261 . S
C699 H669 0.931 . S
C699 C696 1.357 . S
C699 C700 1.312 . S
C700 H671 0.930 . S
C700 C695 1.261 . S
C700 C699 1.312 . S
C701 O673 1.214 . S
C701 O681 1.234 . S
C702 H674 0.929 . S
C702 C705 1.391 . S
C702 C707 1.391 . S
C703 H675 0.929 . S
C703 C704 1.390 . S
C703 N706 1.391 . S
C704 H676 0.930 . S
C704 C703 1.390 . S
C704 C705 1.392 . S
C705 H677 0.929 . S
C705 C702 1.391 . S
C705 C704 1.392 . S
N706 Co650 2.257 . S
N706 C703 1.391 . S
N706 C707 1.388 . S
C707 H678 0.930 . S
C707 C702 1.391 . S
C707 N706 1.388 . S
H708 C726 0.951 . S
H709 C728 0.951 1_554 S
H710 C730 0.950 . S
H711 C731 0.950 . S
H712 C733 0.950 . S
H713 C736 0.950 . S
H714 C737 0.950 . S
H715 C739 0.950 . S
H716 C740 0.950 . S
H717 C741 0.951 . S
H718 C743 0.951 1_556 S
H719 C745 0.950 . S
H720 C746 0.950 . S
H721 C748 0.950 . S
H722 C751 0.950 . S
H723 C752 0.950 . S
H724 C754 0.950 . S
H725 C755 0.950 . S
C726 H708 0.951 . S
C726 C727 1.366 . S
C726 C728 1.388 . S
C727 C726 1.366 . S
C727 C731 1.385 . S
C728 H709 0.951 1_556 S
C728 C726 1.388 . S
C728 C729 1.366 . S
C729 C728 1.366 . S
C729 C730 1.414 . S
C729 C732 1.499 . S
C730 H710 0.950 . S
C730 C729 1.414 . S
C730 C731 1.374 . S
C731 H711 0.950 . S
C731 C727 1.385 . S
C731 C730 1.374 . S
C732 C729 1.499 . S
C732 C733 1.373 . S
C732 C734 1.389 1_556 S
C733 H712 0.950 . S
C733 C732 1.373 . S
C733 C749 1.377 1_565 S
C734 C732 1.389 1_554 S
C734 C735 1.524 . S
C734 C748 1.377 1_565 S
C735 C734 1.524 . S
C735 C736 1.397 1_554 S
C735 C740 1.363 . S
C736 H713 0.950 . S
C736 C735 1.397 1_556 S
C736 C737 1.334 . S
C737 H714 0.950 . S
C737 C736 1.334 . S
C737 C738 1.287 1_556 S
C738 C737 1.287 1_554 S
C738 C739 1.524 . S
C738 H757 0.913 . S
C739 H715 0.950 . S
C739 C738 1.524 . S
C739 C740 1.415 . S
C740 H716 0.950 . S
C740 C735 1.363 . S
C740 C739 1.415 . S
C741 H717 0.951 . S
C741 C742 1.366 . S
C741 C743 1.388 . S
C742 C741 1.366 . S
C742 C746 1.385 . S
C743 H718 0.951 1_554 S
C743 C741 1.388 . S
C743 C744 1.366 . S
C744 C743 1.366 . S
C744 C745 1.414 . S
C744 C747 1.499 . S
C745 H719 0.950 . S
C745 C744 1.414 . S
C745 C746 1.374 . S
C746 H720 0.950 . S
C746 C742 1.385 . S
C746 C745 1.374 . S
C747 C744 1.499 . S
C747 C748 1.373 . S
C747 C749 1.389 1_554 S
C748 H721 0.950 . S
C748 C734 1.377 1_545 S
C748 C747 1.373 . S
C749 C733 1.377 1_545 S
C749 C747 1.389 1_556 S
C749 C750 1.524 . S
C750 C749 1.524 . S
C750 C751 1.397 1_556 S
C750 C755 1.363 . S
C751 H722 0.950 . S
C751 C750 1.397 1_554 S
C751 C752 1.334 . S
C752 H723 0.950 . S
C752 C751 1.334 . S
C752 C753 1.287 1_554 S
C753 C752 1.287 1_556 S
C753 C754 1.524 . S
C753 H756 0.999 . S
C754 H724 0.950 . S
C754 C753 1.524 . S
C754 C755 1.415 . S
C755 H725 0.950 . S
C755 C750 1.363 . S
C755 C754 1.415 . S
H756 C753 0.999 . S
H757 C738 0.913 . S
H758 C776 0.951 . S
H759 C778 0.951 . S
H760 C780 0.950 . S
H761 C781 0.950 . S
H762 C783 0.950 . S
H763 C786 0.950 . S
H764 C787 0.950 . S
H765 C789 0.950 . S
H766 C790 0.950 . S
H767 C791 0.951 . S
H768 C793 0.951 . S
H769 C795 0.950 . S
H770 C796 0.950 . S
H771 C798 0.950 . S
H772 C801 0.950 . S
H773 C802 0.950 . S
H774 C804 0.950 . S
H775 C805 0.950 . S
C776 H758 0.951 . S
C776 C777 1.366 . S
C776 C778 1.388 . S
C777 C776 1.366 . S
C777 C781 1.385 . S
C778 H759 0.951 . S
C778 C776 1.388 . S
C778 C779 1.366 . S
C779 C778 1.366 . S
C779 C780 1.414 . S
C779 C782 1.499 . S
C780 H760 0.950 . S
C780 C779 1.414 . S
C780 C781 1.374 . S
C781 H761 0.950 . S
C781 C777 1.385 . S
C781 C780 1.374 . S
C782 C779 1.499 . S
C782 C783 1.373 . S
C782 C784 1.389 . S
C783 H762 0.950 . S
C783 C782 1.373 . S
C783 C799 1.377 . S
C784 C782 1.389 . S
C784 C785 1.524 . S
C784 C798 1.377 . S
C785 C784 1.524 . S
C785 C786 1.397 . S
C785 C790 1.363 . S
C786 H763 0.950 . S
C786 C785 1.397 . S
C786 C787 1.334 . S
C787 H764 0.950 . S
C787 C786 1.334 . S
C787 C788 1.287 . S
C788 C787 1.287 . S
C788 C789 1.524 . S
C788 H807 0.913 . S
C789 H765 0.950 . S
C789 C788 1.524 . S
C789 C790 1.415 . S
C790 H766 0.950 . S
C790 C785 1.363 . S
C790 C789 1.415 . S
C791 H767 0.951 . S
C791 C792 1.366 . S
C791 C793 1.388 . S
C792 C791 1.366 . S
C792 C796 1.385 . S
C793 H768 0.951 . S
C793 C791 1.388 . S
C793 C794 1.366 . S
C794 C793 1.366 . S
C794 C795 1.414 . S
C794 C797 1.499 . S
C795 H769 0.950 . S
C795 C794 1.414 . S
C795 C796 1.374 . S
C796 H770 0.950 . S
C796 C792 1.385 . S
C796 C795 1.374 . S
C797 C794 1.499 . S
C797 C798 1.373 . S
C797 C799 1.389 . S
C798 H771 0.950 . S
C798 C784 1.377 . S
C798 C797 1.373 . S
C799 C783 1.377 . S
C799 C797 1.389 . S
C799 C800 1.524 . S
C800 C799 1.524 . S
C800 C801 1.397 . S
C800 C805 1.363 . S
C801 H772 0.950 . S
C801 C800 1.397 . S
C801 C802 1.334 . S
C802 H773 0.950 . S
C802 C801 1.334 . S
C802 C803 1.287 . S
C803 C802 1.287 . S
C803 C804 1.524 . S
C803 H806 0.999 . S
C804 H774 0.950 . S
C804 C803 1.524 . S
C804 C805 1.415 . S
C805 H775 0.950 . S
C805 C800 1.363 . S
C805 C804 1.415 . S
H806 C803 0.999 . S
H807 C788 0.913 . S
H808 C826 0.951 . S
H809 C828 0.951 . S
H810 C830 0.950 . S
H811 C831 0.950 . S
H812 C833 0.950 . S
H813 C836 0.950 . S
H814 C837 0.950 . S
H815 C839 0.950 . S
H816 C840 0.950 . S
H817 C841 0.951 . S
H818 C843 0.951 . S
H819 C845 0.950 . S
H820 C846 0.950 . S
H821 C848 0.950 . S
H822 C851 0.950 . S
H823 C852 0.950 . S
H824 C854 0.950 . S
H825 C855 0.950 . S
C826 H808 0.951 . S
C826 C827 1.366 . S
C826 C828 1.388 . S
C827 C826 1.366 . S
C827 C831 1.385 . S
C828 H809 0.951 . S
C828 C826 1.388 . S
C828 C829 1.366 . S
C829 C828 1.366 . S
C829 C830 1.414 . S
C829 C832 1.499 . S
C830 H810 0.950 . S
C830 C829 1.414 . S
C830 C831 1.374 . S
C831 H811 0.950 . S
C831 C827 1.385 . S
C831 C830 1.374 . S
C832 C829 1.499 . S
C832 C833 1.373 . S
C832 C834 1.389 . S
C833 H812 0.950 . S
C833 C832 1.373 . S
C833 C849 1.377 1_655 S
C834 C832 1.389 . S
C834 C835 1.524 . S
C834 C848 1.377 1_655 S
C835 C834 1.524 . S
C835 C836 1.397 . S
C835 C840 1.363 . S
C836 H813 0.950 . S
C836 C835 1.397 . S
C836 C837 1.334 . S
C837 H814 0.950 . S
C837 C836 1.334 . S
C837 C838 1.287 . S
C838 C837 1.287 . S
C838 C839 1.524 . S
C838 H857 0.913 . S
C839 H815 0.950 . S
C839 C838 1.524 . S
C839 C840 1.415 . S
C840 H816 0.950 . S
C840 C835 1.363 . S
C840 C839 1.415 . S
C841 H817 0.951 . S
C841 C842 1.366 . S
C841 C843 1.388 . S
C842 C841 1.366 . S
C842 C846 1.385 . S
C843 H818 0.951 . S
C843 C841 1.388 . S
C843 C844 1.366 . S
C844 C843 1.366 . S
C844 C845 1.414 . S
C844 C847 1.499 . S
C845 H819 0.950 . S
C845 C844 1.414 . S
C845 C846 1.374 . S
C846 H820 0.950 . S
C846 C842 1.385 . S
C846 C845 1.374 . S
C847 C844 1.499 . S
C847 C848 1.373 . S
C847 C849 1.389 . S
C848 H821 0.950 . S
C848 C834 1.377 1_455 S
C848 C847 1.373 . S
C849 C833 1.377 1_455 S
C849 C847 1.389 . S
C849 C850 1.524 . S
C850 C849 1.524 . S
C850 C851 1.397 . S
C850 C855 1.363 . S
C851 H822 0.950 . S
C851 C850 1.397 . S
C851 C852 1.334 . S
C852 H823 0.950 . S
C852 C851 1.334 . S
C852 C853 1.287 . S
C853 C852 1.287 . S
C853 C854 1.524 . S
C853 H856 0.999 . S
C854 H824 0.950 . S
C854 C853 1.524 . S
C854 C855 1.415 . S
C855 H825 0.950 . S
C855 C850 1.363 . S
C855 C854 1.415 . S
H856 C853 0.999 . S
H857 C838 0.913 . S
H858 C876 0.951 . S
H859 C878 0.951 . S
H860 C880 0.950 . S
H861 C881 0.950 . S
H862 C883 0.950 . S
H863 C886 0.950 . S
H864 C887 0.950 . S
H865 C889 0.950 . S
H866 C890 0.950 . S
H867 C891 0.951 . S
H868 C893 0.951 . S
H869 C895 0.950 . S
H870 C896 0.950 . S
H871 C898 0.950 . S
H872 C901 0.950 . S
H873 C902 0.950 . S
H874 C904 0.950 . S
H875 C905 0.950 . S
C876 H858 0.951 . S
C876 C877 1.366 . S
C876 C878 1.388 . S
C877 C876 1.366 . S
C877 C881 1.385 . S
C878 H859 0.951 . S
C878 C876 1.388 . S
C878 C879 1.366 . S
C879 C878 1.366 . S
C879 C880 1.414 . S
C879 C882 1.499 . S
C880 H860 0.950 . S
C880 C879 1.414 . S
C880 C881 1.374 . S
C881 H861 0.950 . S
C881 C877 1.385 . S
C881 C880 1.374 . S
C882 C879 1.499 . S
C882 C883 1.373 . S
C882 C884 1.389 1_554 S
C883 H862 0.950 . S
C883 C882 1.373 . S
C883 C899 1.377 1_565 S
C884 C882 1.389 1_556 S
C884 C885 1.524 . S
C884 C898 1.377 1_565 S
C885 C884 1.524 . S
C885 C886 1.397 . S
C885 C890 1.363 . S
C886 H863 0.950 . S
C886 C885 1.397 . S
C886 C887 1.334 . S
C887 H864 0.950 . S
C887 C886 1.334 . S
C887 C888 1.287 . S
C888 C887 1.287 . S
C888 C889 1.524 . S
C888 H907 0.913 . S
C889 H865 0.950 . S
C889 C888 1.524 . S
C889 C890 1.415 . S
C890 H866 0.950 . S
C890 C885 1.363 . S
C890 C889 1.415 . S
C891 H867 0.951 . S
C891 C892 1.366 . S
C891 C893 1.388 . S
C892 C891 1.366 . S
C892 C896 1.385 . S
C893 H868 0.951 . S
C893 C891 1.388 . S
C893 C894 1.366 . S
C894 C893 1.366 . S
C894 C895 1.414 . S
C894 C897 1.499 . S
C895 H869 0.950 . S
C895 C894 1.414 . S
C895 C896 1.374 . S
C896 H870 0.950 . S
C896 C892 1.385 . S
C896 C895 1.374 . S
C897 C894 1.499 . S
C897 C898 1.373 . S
C897 C899 1.389 1_556 S
C898 H871 0.950 . S
C898 C884 1.377 1_545 S
C898 C897 1.373 . S
C899 C883 1.377 1_545 S
C899 C897 1.389 1_554 S
C899 C900 1.524 . S
C900 C899 1.524 . S
C900 C901 1.397 . S
C900 C905 1.363 . S
C901 H872 0.950 . S
C901 C900 1.397 . S
C901 C902 1.334 . S
C902 H873 0.950 . S
C902 C901 1.334 . S
C902 C903 1.287 . S
C903 C902 1.287 . S
C903 C904 1.524 . S
C903 H906 0.999 . S
C904 H874 0.950 . S
C904 C903 1.524 . S
C904 C905 1.415 . S
C905 H875 0.950 . S
C905 C900 1.363 . S
C905 C904 1.415 . S
H906 C903 0.999 . S
H907 C888 0.913 . S
H908 C926 0.951 . S
H909 C928 0.951 . S
H910 C930 0.950 . S
H911 C931 0.950 . S
H912 C933 0.950 . S
H913 C936 0.950 . S
H914 C937 0.950 . S
H915 C939 0.950 . S
H916 C940 0.950 . S
H917 C941 0.951 . S
H918 C943 0.951 . S
H919 C945 0.950 . S
H920 C946 0.950 . S
H921 C948 0.950 . S
H922 C951 0.950 . S
H923 C952 0.950 . S
H924 C954 0.950 . S
H925 C955 0.950 . S
C926 H908 0.951 . S
C926 C927 1.366 . S
C926 C928 1.388 . S
C927 C926 1.366 . S
C927 C931 1.385 . S
C928 H909 0.951 . S
C928 C926 1.388 . S
C928 C929 1.366 . S
C929 C928 1.366 . S
C929 C930 1.414 . S
C929 C932 1.499 . S
C930 H910 0.950 . S
C930 C929 1.414 . S
C930 C931 1.374 . S
C931 H911 0.950 . S
C931 C927 1.385 . S
C931 C930 1.374 . S
C932 C929 1.499 . S
C932 C933 1.373 . S
C932 C934 1.389 . S
C933 H912 0.950 . S
C933 C932 1.373 . S
C933 C949 1.377 . S
C934 C932 1.389 . S
C934 C935 1.524 . S
C934 C948 1.377 . S
C935 C934 1.524 . S
C935 C936 1.397 . S
C935 C940 1.363 . S
C936 H913 0.950 . S
C936 C935 1.397 . S
C936 C937 1.334 . S
C937 H914 0.950 . S
C937 C936 1.334 . S
C937 C938 1.287 . S
C938 C937 1.287 . S
C938 C939 1.524 . S
C938 H957 0.913 . S
C939 H915 0.950 . S
C939 C938 1.524 . S
C939 C940 1.415 . S
C940 H916 0.950 . S
C940 C935 1.363 . S
C940 C939 1.415 . S
C941 H917 0.951 . S
C941 C942 1.366 . S
C941 C943 1.388 . S
C942 C941 1.366 . S
C942 C946 1.385 . S
C943 H918 0.951 . S
C943 C941 1.388 . S
C943 C944 1.366 . S
C944 C943 1.366 . S
C944 C945 1.414 . S
C944 C947 1.499 . S
C945 H919 0.950 . S
C945 C944 1.414 . S
C945 C946 1.374 . S
C946 H920 0.950 . S
C946 C942 1.385 . S
C946 C945 1.374 . S
C947 C944 1.499 . S
C947 C948 1.373 . S
C947 C949 1.389 . S
C948 H921 0.950 . S
C948 C934 1.377 . S
C948 C947 1.373 . S
C949 C933 1.377 . S
C949 C947 1.389 . S
C949 C950 1.524 . S
C950 C949 1.524 . S
C950 C951 1.397 . S
C950 C955 1.363 . S
C951 H922 0.950 . S
C951 C950 1.397 . S
C951 C952 1.334 . S
C952 H923 0.950 . S
C952 C951 1.334 . S
C952 C953 1.287 . S
C953 C952 1.287 . S
C953 C954 1.524 . S
C953 H956 0.999 . S
C954 H924 0.950 . S
C954 C953 1.524 . S
C954 C955 1.415 . S
C955 H925 0.950 . S
C955 C950 1.363 . S
C955 C954 1.415 . S
H956 C953 0.999 . S
H957 C938 0.913 . S
H958 C976 0.951 . S
H959 C978 0.951 . S
H960 C980 0.950 . S
H961 C981 0.950 . S
H962 C983 0.950 . S
H963 C986 0.950 . S
H964 C987 0.950 . S
H965 C989 0.950 . S
H966 C990 0.950 1_455 S
H967 C991 0.951 . S
H968 C993 0.951 . S
H969 C995 0.950 . S
H970 C996 0.950 . S
H971 C998 0.950 . S
H972 C1001 0.950 . S
H973 C1002 0.950 . S
H974 C1004 0.950 . S
H975 C1005 0.950 1_655 S
C976 H958 0.951 . S
C976 C977 1.366 . S
C976 C978 1.388 . S
C977 C976 1.366 . S
C977 C981 1.385 . S
C978 H959 0.951 . S
C978 C976 1.388 . S
C978 C979 1.366 . S
C979 C978 1.366 . S
C979 C980 1.414 . S
C979 C982 1.499 . S
C980 H960 0.950 . S
C980 C979 1.414 . S
C980 C981 1.374 . S
C981 H961 0.950 . S
C981 C977 1.385 . S
C981 C980 1.374 . S
C982 C979 1.499 . S
C982 C983 1.373 . S
C982 C984 1.389 . S
C983 H962 0.950 . S
C983 C982 1.373 . S
C983 C999 1.377 1_655 S
C984 C982 1.389 . S
C984 C985 1.524 . S
C984 C998 1.377 1_655 S
C985 C984 1.524 . S
C985 C986 1.397 . S
C985 C990 1.363 . S
C986 H963 0.950 . S
C986 C985 1.397 . S
C986 C987 1.334 . S
C987 H964 0.950 . S
C987 C986 1.334 . S
C987 C988 1.287 . S
C988 C987 1.287 . S
C988 C989 1.524 . S
C988 H1007 0.913 . S
C989 H965 0.950 . S
C989 C988 1.524 . S
C989 C990 1.415 . S
C990 H966 0.950 1_655 S
C990 C985 1.363 . S
C990 C989 1.415 . S
C991 H967 0.951 . S
C991 C992 1.366 . S
C991 C993 1.388 . S
C992 C991 1.366 . S
C992 C996 1.385 . S
C993 H968 0.951 . S
C993 C991 1.388 . S
C993 C994 1.366 . S
C994 C993 1.366 . S
C994 C995 1.414 . S
C994 C997 1.499 . S
C995 H969 0.950 . S
C995 C994 1.414 . S
C995 C996 1.374 . S
C996 H970 0.950 . S
C996 C992 1.385 . S
C996 C995 1.374 . S
C997 C994 1.499 . S
C997 C998 1.373 . S
C997 C999 1.389 . S
C998 H971 0.950 . S
C998 C984 1.377 1_455 S
C998 C997 1.373 . S
C999 C983 1.377 1_455 S
C999 C997 1.389 . S
C999 C1000 1.524 . S
C1000 C999 1.524 . S
C1000 C1001 1.397 . S
C1000 C1005 1.363 . S
C1001 H972 0.950 . S
C1001 C1000 1.397 . S
C1001 C1002 1.334 . S
C1002 H973 0.950 . S
C1002 C1001 1.334 . S
C1002 C1003 1.287 . S
C1003 C1002 1.287 . S
C1003 C1004 1.524 . S
C1003 H1006 0.999 . S
C1004 H974 0.950 . S
C1004 C1003 1.524 . S
C1004 C1005 1.415 . S
C1005 H975 0.950 1_455 S
C1005 C1000 1.363 . S
C1005 C1004 1.415 . S
H1006 C1003 0.999 . S
H1007 C988 0.913 . S
H1008 C1026 0.951 . S
H1009 C1028 0.951 . S
H1010 C1030 0.950 . S
H1011 C1031 0.950 . S
H1012 C1033 0.950 . S
H1013 C1036 0.950 . S
H1014 C1037 0.950 . S
H1015 C1039 0.950 . S
H1016 C1040 0.950 . S
H1017 C1041 0.951 . S
H1018 C1043 0.951 . S
H1019 C1045 0.950 . S
H1020 C1046 0.950 . S
H1021 C1048 0.950 . S
H1022 C1051 0.950 . S
H1023 C1052 0.950 . S
H1024 C1054 0.950 . S
H1025 C1055 0.950 . S
C1026 H1008 0.951 . S
C1026 C1027 1.366 . S
C1026 C1028 1.388 . S
C1027 C1026 1.366 . S
C1027 C1031 1.385 . S
C1028 H1009 0.951 . S
C1028 C1026 1.388 . S
C1028 C1029 1.366 . S
C1029 C1028 1.366 . S
C1029 C1030 1.414 . S
C1029 C1032 1.499 . S
C1030 H1010 0.950 . S
C1030 C1029 1.414 . S
C1030 C1031 1.374 . S
C1031 H1011 0.950 . S
C1031 C1027 1.385 . S
C1031 C1030 1.374 . S
C1032 C1029 1.499 . S
C1032 C1033 1.373 1_556 S
C1032 C1034 1.389 . S
C1033 H1012 0.950 . S
C1033 C1032 1.373 1_554 S
C1033 C1049 1.377 . S
C1034 C1032 1.389 . S
C1034 C1035 1.524 . S
C1034 C1048 1.377 . S
C1035 C1034 1.524 . S
C1035 C1036 1.397 . S
C1035 C1040 1.363 . S
C1036 H1013 0.950 . S
C1036 C1035 1.397 . S
C1036 C1037 1.334 . S
C1037 H1014 0.950 . S
C1037 C1036 1.334 . S
C1037 C1038 1.287 . S
C1038 C1037 1.287 . S
C1038 C1039 1.524 . S
C1038 H1057 0.913 . S
C1039 H1015 0.950 . S
C1039 C1038 1.524 . S
C1039 C1040 1.415 . S
C1040 H1016 0.950 . S
C1040 C1035 1.363 . S
C1040 C1039 1.415 . S
C1041 H1017 0.951 . S
C1041 C1042 1.366 . S
C1041 C1043 1.388 . S
C1042 C1041 1.366 . S
C1042 C1046 1.385 . S
C1043 H1018 0.951 . S
C1043 C1041 1.388 . S
C1043 C1044 1.366 . S
C1044 C1043 1.366 . S
C1044 C1045 1.414 . S
C1044 C1047 1.499 . S
C1045 H1019 0.950 . S
C1045 C1044 1.414 . S
C1045 C1046 1.374 . S
C1046 H1020 0.950 . S
C1046 C1042 1.385 . S
C1046 C1045 1.374 . S
C1047 C1044 1.499 . S
C1047 C1048 1.373 1_554 S
C1047 C1049 1.389 . S
C1048 H1021 0.950 . S
C1048 C1034 1.377 . S
C1048 C1047 1.373 1_556 S
C1049 C1033 1.377 . S
C1049 C1047 1.389 . S
C1049 C1050 1.524 . S
C1050 C1049 1.524 . S
C1050 C1051 1.397 . S
C1050 C1055 1.363 . S
C1051 H1022 0.950 . S
C1051 C1050 1.397 . S
C1051 C1052 1.334 . S
C1052 H1023 0.950 . S
C1052 C1051 1.334 . S
C1052 C1053 1.287 . S
C1053 C1052 1.287 . S
C1053 C1054 1.524 . S
C1053 H1056 0.999 . S
C1054 H1024 0.950 . S
C1054 C1053 1.524 . S
C1054 C1055 1.415 . S
C1055 H1025 0.950 . S
C1055 C1050 1.363 . S
C1055 C1054 1.415 . S
H1056 C1053 0.999 . S
H1057 C1038 0.913 . S
H1058 C1076 0.951 . S
H1059 C1078 0.951 . S
H1060 C1080 0.950 . S
H1061 C1081 0.950 . S
H1062 C1083 0.950 . S
H1063 C1086 0.950 . S
H1064 C1087 0.950 . S
H1065 C1089 0.950 . S
H1066 C1090 0.950 . S
H1067 C1091 0.951 . S
H1068 C1093 0.951 . S
H1069 C1095 0.950 . S
H1070 C1096 0.950 . S
H1071 C1098 0.950 . S
H1072 C1101 0.950 . S
H1073 C1102 0.950 . S
H1074 C1104 0.950 . S
H1075 C1105 0.950 . S
C1076 H1058 0.951 . S
C1076 C1077 1.366 . S
C1076 C1078 1.388 . S
C1077 C1076 1.366 . S
C1077 C1081 1.385 . S
C1078 H1059 0.951 . S
C1078 C1076 1.388 . S
C1078 C1079 1.366 . S
C1079 C1078 1.366 . S
C1079 C1080 1.414 . S
C1079 C1082 1.499 . S
C1080 H1060 0.950 . S
C1080 C1079 1.414 . S
C1080 C1081 1.374 . S
C1081 H1061 0.950 . S
C1081 C1077 1.385 . S
C1081 C1080 1.374 . S
C1082 C1079 1.499 . S
C1082 C1083 1.373 . S
C1082 C1084 1.389 . S
C1083 H1062 0.950 . S
C1083 C1082 1.373 . S
C1083 C1099 1.377 . S
C1084 C1082 1.389 . S
C1084 C1085 1.524 . S
C1084 C1098 1.377 . S
C1085 C1084 1.524 . S
C1085 C1086 1.397 . S
C1085 C1090 1.363 . S
C1086 H1063 0.950 . S
C1086 C1085 1.397 . S
C1086 C1087 1.334 . S
C1087 H1064 0.950 . S
C1087 C1086 1.334 . S
C1087 C1088 1.287 . S
C1088 C1087 1.287 . S
C1088 C1089 1.524 . S
C1088 H1107 0.913 . S
C1089 H1065 0.950 . S
C1089 C1088 1.524 . S
C1089 C1090 1.415 . S
C1090 H1066 0.950 . S
C1090 C1085 1.363 . S
C1090 C1089 1.415 . S
C1091 H1067 0.951 . S
C1091 C1092 1.366 . S
C1091 C1093 1.388 . S
C1092 C1091 1.366 . S
C1092 C1096 1.385 . S
C1093 H1068 0.951 . S
C1093 C1091 1.388 . S
C1093 C1094 1.366 . S
C1094 C1093 1.366 . S
C1094 C1095 1.414 . S
C1094 C1097 1.499 . S
C1095 H1069 0.950 . S
C1095 C1094 1.414 . S
C1095 C1096 1.374 . S
C1096 H1070 0.950 . S
C1096 C1092 1.385 . S
C1096 C1095 1.374 . S
C1097 C1094 1.499 . S
C1097 C1098 1.373 . S
C1097 C1099 1.389 . S
C1098 H1071 0.950 . S
C1098 C1084 1.377 . S
C1098 C1097 1.373 . S
C1099 C1083 1.377 . S
C1099 C1097 1.389 . S
C1099 C1100 1.524 . S
C1100 C1099 1.524 . S
C1100 C1101 1.397 . S
C1100 C1105 1.363 . S
C1101 H1072 0.950 . S
C1101 C1100 1.397 . S
C1101 C1102 1.334 . S
C1102 H1073 0.950 . S
C1102 C1101 1.334 . S
C1102 C1103 1.287 . S
C1103 C1102 1.287 . S
C1103 C1104 1.524 . S
C1103 H1106 0.999 . S
C1104 H1074 0.950 . S
C1104 C1103 1.524 . S
C1104 C1105 1.415 . S
C1105 H1075 0.950 . S
C1105 C1100 1.363 . S
C1105 C1104 1.415 . S
H1106 C1103 0.999 . S
H1107 C1088 0.913 . S
H1108 C1126 0.951 . S
H1109 C1128 0.951 . S
H1110 C1130 0.950 . S
H1111 C1131 0.950 . S
H1112 C1133 0.950 . S
H1113 C1136 0.950 . S
H1114 C1137 0.950 . S
H1115 C1139 0.950 . S
H1116 C1140 0.950 . S
H1117 C1141 0.951 . S
H1118 C1143 0.951 . S
H1119 C1145 0.950 . S
H1120 C1146 0.950 . S
H1121 C1148 0.950 . S
H1122 C1151 0.950 . S
H1123 C1152 0.950 . S
H1124 C1154 0.950 . S
H1125 C1155 0.950 . S
C1126 H1108 0.951 . S
C1126 C1127 1.366 . S
C1126 C1128 1.388 . S
C1127 C1126 1.366 . S
C1127 C1131 1.385 . S
C1128 H1109 0.951 . S
C1128 C1126 1.388 . S
C1128 C1129 1.366 . S
C1129 C1128 1.366 . S
C1129 C1130 1.414 . S
C1129 C1132 1.499 . S
C1130 H1110 0.950 . S
C1130 C1129 1.414 . S
C1130 C1131 1.374 . S
C1131 H1111 0.950 . S
C1131 C1127 1.385 . S
C1131 C1130 1.374 . S
C1132 C1129 1.499 . S
C1132 C1133 1.373 . S
C1132 C1134 1.389 . S
C1133 H1112 0.950 . S
C1133 C1132 1.373 . S
C1133 C1149 1.377 . S
C1134 C1132 1.389 . S
C1134 C1135 1.524 . S
C1134 C1148 1.377 . S
C1135 C1134 1.524 . S
C1135 C1136 1.397 . S
C1135 C1140 1.363 . S
C1136 H1113 0.950 . S
C1136 C1135 1.397 . S
C1136 C1137 1.334 . S
C1137 H1114 0.950 . S
C1137 C1136 1.334 . S
C1137 C1138 1.287 . S
C1138 C1137 1.287 . S
C1138 C1139 1.524 . S
C1138 H1157 0.913 . S
C1139 H1115 0.950 . S
C1139 C1138 1.524 . S
C1139 C1140 1.415 . S
C1140 H1116 0.950 . S
C1140 C1135 1.363 . S
C1140 C1139 1.415 . S
C1141 H1117 0.951 . S
C1141 C1142 1.366 . S
C1141 C1143 1.388 . S
C1142 C1141 1.366 . S
C1142 C1146 1.385 . S
C1143 H1118 0.951 . S
C1143 C1141 1.388 . S
C1143 C1144 1.366 . S
C1144 C1143 1.366 . S
C1144 C1145 1.414 . S
C1144 C1147 1.499 . S
C1145 H1119 0.950 . S
C1145 C1144 1.414 . S
C1145 C1146 1.374 . S
C1146 H1120 0.950 . S
C1146 C1142 1.385 . S
C1146 C1145 1.374 . S
C1147 C1144 1.499 . S
C1147 C1148 1.373 . S
C1147 C1149 1.389 . S
C1148 H1121 0.950 . S
C1148 C1134 1.377 . S
C1148 C1147 1.373 . S
C1149 C1133 1.377 . S
C1149 C1147 1.389 . S
C1149 C1150 1.524 . S
C1150 C1149 1.524 . S
C1150 C1151 1.397 . S
C1150 C1155 1.363 . S
C1151 H1122 0.950 . S
C1151 C1150 1.397 . S
C1151 C1152 1.334 . S
C1152 H1123 0.950 . S
C1152 C1151 1.334 . S
C1152 C1153 1.287 . S
C1153 C1152 1.287 . S
C1153 C1154 1.524 . S
C1153 H1156 0.999 . S
C1154 H1124 0.950 . S
C1154 C1153 1.524 . S
C1154 C1155 1.415 . S
C1155 H1125 0.950 . S
C1155 C1150 1.363 . S
C1155 C1154 1.415 . S
H1156 C1153 0.999 . S
H1157 C1138 0.913 . S
H1158 C1176 0.951 . S
H1159 C1178 0.951 . S
H1160 C1180 0.950 1_554 S
H1161 C1181 0.976 . S
H1162 C1183 0.950 . S
H1163 C1186 0.950 . S
H1164 C1187 0.950 . S
H1165 C1189 0.950 . S
H1166 C1190 0.950 . S
H1167 C1191 0.951 . S
H1168 C1193 0.951 . S
H1169 C1195 0.950 1_556 S
H1170 C1196 0.976 . S
H1171 C1198 0.950 . S
H1172 C1201 0.950 . S
H1173 C1202 0.950 . S
H1174 C1204 0.950 . S
H1175 C1205 0.950 . S
C1176 H1158 0.951 . S
C1176 C1177 1.366 . S
C1176 C1178 1.388 . S
C1177 C1176 1.366 . S
C1177 C1181 1.385 . S
C1178 H1159 0.951 . S
C1178 C1176 1.388 . S
C1178 C1179 1.366 . S
C1179 C1178 1.366 . S
C1179 C1180 1.414 . S
C1179 C1182 1.499 . S
C1180 H1160 0.950 1_556 S
C1180 C1179 1.414 . S
C1180 C1181 1.374 . S
C1181 H1161 0.976 . S
C1181 C1177 1.385 . S
C1181 C1180 1.374 . S
C1182 C1179 1.499 . S
C1182 C1183 1.373 1_556 S
C1182 C1184 1.389 . S
C1183 H1162 0.950 . S
C1183 C1182 1.373 1_554 S
C1183 C1199 1.377 . S
C1184 C1182 1.389 . S
C1184 C1185 1.524 . S
C1184 C1198 1.377 . S
C1185 C1184 1.524 . S
C1185 C1186 1.397 . S
C1185 C1190 1.363 . S
C1186 H1163 0.950 . S
C1186 C1185 1.397 . S
C1186 C1187 1.334 . S
C1187 H1164 0.950 . S
C1187 C1186 1.334 . S
C1187 C1188 1.287 . S
C1188 C1187 1.287 . S
C1188 C1189 1.524 . S
C1188 H1207 0.913 . S
C1189 H1165 0.950 . S
C1189 C1188 1.524 . S
C1189 C1190 1.415 . S
C1190 H1166 0.950 . S
C1190 C1185 1.363 . S
C1190 C1189 1.415 . S
C1191 H1167 0.951 . S
C1191 C1192 1.366 . S
C1191 C1193 1.388 . S
C1192 C1191 1.366 . S
C1192 C1196 1.385 . S
C1193 H1168 0.951 . S
C1193 C1191 1.388 . S
C1193 C1194 1.366 . S
C1194 C1193 1.366 . S
C1194 C1195 1.414 . S
C1194 C1197 1.499 . S
C1195 H1169 0.950 1_554 S
C1195 C1194 1.414 . S
C1195 C1196 1.374 . S
C1196 H1170 0.976 . S
C1196 C1192 1.385 . S
C1196 C1195 1.374 . S
C1197 C1194 1.499 . S
C1197 C1198 1.373 1_554 S
C1197 C1199 1.389 . S
C1198 H1171 0.950 . S
C1198 C1184 1.377 . S
C1198 C1197 1.373 1_556 S
C1199 C1183 1.377 . S
C1199 C1197 1.389 . S
C1199 C1200 1.524 . S
C1200 C1199 1.524 . S
C1200 C1201 1.397 . S
C1200 C1205 1.363 . S
C1201 H1172 0.950 . S
C1201 C1200 1.397 . S
C1201 C1202 1.334 . S
C1202 H1173 0.950 . S
C1202 C1201 1.334 . S
C1202 C1203 1.287 . S
C1203 C1202 1.287 . S
C1203 C1204 1.524 . S
C1203 H1206 0.999 . S
C1204 H1174 0.950 . S
C1204 C1203 1.524 . S
C1204 C1205 1.415 . S
C1205 H1175 0.950 . S
C1205 C1200 1.363 . S
C1205 C1204 1.415 . S
H1206 C1203 0.999 . S
H1207 C1188 0.913 . S
H1208 C1226 0.951 . S
H1209 C1228 0.951 . S
H1210 C1230 0.950 . S
H1211 C1231 0.950 . S
H1212 C1233 0.950 . S
H1213 C1236 0.950 . S
H1214 C1237 0.950 . S
H1215 C1239 0.950 . S
H1216 C1240 0.950 . S
H1217 C1241 0.951 . S
H1218 C1243 0.951 . S
H1219 C1245 0.950 . S
H1220 C1246 0.950 . S
H1221 C1248 0.950 . S
H1222 C1251 0.950 . S
H1223 C1252 0.950 . S
H1224 C1254 0.950 . S
H1225 C1255 0.950 . S
C1226 H1208 0.951 . S
C1226 C1227 1.366 . S
C1226 C1228 1.388 . S
C1227 C1226 1.366 . S
C1227 C1231 1.385 . S
C1228 H1209 0.951 . S
C1228 C1226 1.388 . S
C1228 C1229 1.366 . S
C1229 C1228 1.366 . S
C1229 C1230 1.414 . S
C1229 C1232 1.499 . S
C1230 H1210 0.950 . S
C1230 C1229 1.414 . S
C1230 C1231 1.374 . S
C1231 H1211 0.950 . S
C1231 C1227 1.385 . S
C1231 C1230 1.374 . S
C1232 C1229 1.499 . S
C1232 C1233 1.373 . S
C1232 C1234 1.389 . S
C1233 H1212 0.950 . S
C1233 C1232 1.373 . S
C1233 C1249 1.377 . S
C1234 C1232 1.389 . S
C1234 C1235 1.524 . S
C1234 C1248 1.377 . S
C1235 C1234 1.524 . S
C1235 C1236 1.397 . S
C1235 C1240 1.363 . S
C1236 H1213 0.950 . S
C1236 C1235 1.397 . S
C1236 C1237 1.334 . S
C1237 H1214 0.950 . S
C1237 C1236 1.334 . S
C1237 C1238 1.287 . S
C1238 C1237 1.287 . S
C1238 C1239 1.524 . S
C1238 H1257 0.913 . S
C1239 H1215 0.950 . S
C1239 C1238 1.524 . S
C1239 C1240 1.415 . S
C1240 H1216 0.950 . S
C1240 C1235 1.363 . S
C1240 C1239 1.415 . S
C1241 H1217 0.951 . S
C1241 C1242 1.366 . S
C1241 C1243 1.388 . S
C1242 C1241 1.366 . S
C1242 C1246 1.385 . S
C1243 H1218 0.951 . S
C1243 C1241 1.388 . S
C1243 C1244 1.366 . S
C1244 C1243 1.366 . S
C1244 C1245 1.414 . S
C1244 C1247 1.499 . S
C1245 H1219 0.950 . S
C1245 C1244 1.414 . S
C1245 C1246 1.374 . S
C1246 H1220 0.950 . S
C1246 C1242 1.385 . S
C1246 C1245 1.374 . S
C1247 C1244 1.499 . S
C1247 C1248 1.373 . S
C1247 C1249 1.389 . S
C1248 H1221 0.950 . S
C1248 C1234 1.377 . S
C1248 C1247 1.373 . S
C1249 C1233 1.377 . S
C1249 C1247 1.389 . S
C1249 C1250 1.524 . S
C1250 C1249 1.524 . S
C1250 C1251 1.397 . S
C1250 C1255 1.363 . S
C1251 H1222 0.950 . S
C1251 C1250 1.397 . S
C1251 C1252 1.334 . S
C1252 H1223 0.950 . S
C1252 C1251 1.334 . S
C1252 C1253 1.287 . S
C1253 C1252 1.287 . S
C1253 C1254 1.524 . S
C1253 H1256 0.999 . S
C1254 H1224 0.950 . S
C1254 C1253 1.524 . S
C1254 C1255 1.415 . S
C1255 H1225 0.950 . S
C1255 C1250 1.363 . S
C1255 C1254 1.415 . S
H1256 C1253 0.999 . S
H1257 C1238 0.913 . S
H1258 C1276 0.951 . S
H1259 C1278 0.951 . S
H1260 C1280 0.950 . S
H1261 C1281 0.950 . S
H1262 C1283 0.950 . S
H1263 C1286 0.950 . S
H1264 C1287 0.950 . S
H1265 C1289 0.950 . S
H1266 C1290 0.950 . S
H1267 C1291 0.951 . S
H1268 C1293 0.951 . S
H1269 C1295 0.950 . S
H1270 C1296 0.950 . S
H1271 C1298 0.950 . S
H1272 C1301 0.950 . S
H1273 C1302 0.950 . S
H1274 C1304 0.950 . S
H1275 C1305 0.950 . S
C1276 H1258 0.951 . S
C1276 C1277 1.366 . S
C1276 C1278 1.388 . S
C1277 C1276 1.366 . S
C1277 C1281 1.385 . S
C1278 H1259 0.951 . S
C1278 C1276 1.388 . S
C1278 C1279 1.366 . S
C1279 C1278 1.366 . S
C1279 C1280 1.414 . S
C1279 C1282 1.499 . S
C1280 H1260 0.950 . S
C1280 C1279 1.414 . S
C1280 C1281 1.374 . S
C1281 H1261 0.950 . S
C1281 C1277 1.385 . S
C1281 C1280 1.374 . S
C1282 C1279 1.499 . S
C1282 C1283 1.373 . S
C1282 C1284 1.389 . S
C1283 H1262 0.950 . S
C1283 C1282 1.373 . S
C1283 C1299 1.377 . S
C1284 C1282 1.389 . S
C1284 C1285 1.524 . S
C1284 C1298 1.377 . S
C1285 C1284 1.524 . S
C1285 C1286 1.397 . S
C1285 C1290 1.363 . S
C1286 H1263 0.950 . S
C1286 C1285 1.397 . S
C1286 C1287 1.334 . S
C1287 H1264 0.950 . S
C1287 C1286 1.334 . S
C1287 C1288 1.287 . S
C1288 C1287 1.287 . S
C1288 C1289 1.524 . S
C1288 H1307 0.913 . S
C1289 H1265 0.950 . S
C1289 C1288 1.524 . S
C1289 C1290 1.415 . S
C1290 H1266 0.950 . S
C1290 C1285 1.363 . S
C1290 C1289 1.415 . S
C1291 H1267 0.951 . S
C1291 C1292 1.366 . S
C1291 C1293 1.388 . S
C1292 C1291 1.366 . S
C1292 C1296 1.385 . S
C1293 H1268 0.951 . S
C1293 C1291 1.388 . S
C1293 C1294 1.366 . S
C1294 C1293 1.366 . S
C1294 C1295 1.414 . S
C1294 C1297 1.499 . S
C1295 H1269 0.950 . S
C1295 C1294 1.414 . S
C1295 C1296 1.374 . S
C1296 H1270 0.950 . S
C1296 C1292 1.385 . S
C1296 C1295 1.374 . S
C1297 C1294 1.499 . S
C1297 C1298 1.373 . S
C1297 C1299 1.389 . S
C1298 H1271 0.950 . S
C1298 C1284 1.377 . S
C1298 C1297 1.373 . S
C1299 C1283 1.377 . S
C1299 C1297 1.389 . S
C1299 C1300 1.524 . S
C1300 C1299 1.524 . S
C1300 C1301 1.397 . S
C1300 C1305 1.363 . S
C1301 H1272 0.950 . S
C1301 C1300 1.397 . S
C1301 C1302 1.334 . S
C1302 H1273 0.950 . S
C1302 C1301 1.334 . S
C1302 C1303 1.287 . S
C1303 C1302 1.287 . S
C1303 C1304 1.524 . S
C1303 H1306 0.999 . S
C1304 H1274 0.950 . S
C1304 C1303 1.524 . S
C1304 C1305 1.415 . S
C1305 H1275 0.950 . S
C1305 C1300 1.363 . S
C1305 C1304 1.415 . S
H1306 C1303 0.999 . S
H1307 C1288 0.913 . S
H1308 C1326 0.951 . S
H1309 C1328 0.951 . S
H1310 C1330 0.950 . S
H1311 C1331 0.950 . S
H1312 C1333 0.950 . S
H1313 C1336 0.950 . S
H1314 C1337 0.950 . S
H1315 C1339 0.950 . S
H1316 C1340 0.950 . S
H1317 C1341 0.951 . S
H1318 C1343 0.951 . S
H1319 C1345 0.950 . S
H1320 C1346 0.950 . S
H1321 C1348 0.950 . S
H1322 C1351 0.950 . S
H1323 C1352 0.950 . S
H1324 C1354 0.950 . S
H1325 C1355 0.950 . S
C1326 H1308 0.951 . S
C1326 C1327 1.366 . S
C1326 C1328 1.388 . S
C1327 C1326 1.366 . S
C1327 C1331 1.385 . S
C1328 H1309 0.951 . S
C1328 C1326 1.388 . S
C1328 C1329 1.366 . S
C1329 C1328 1.366 . S
C1329 C1330 1.414 . S
C1329 C1332 1.499 . S
C1330 H1310 0.950 . S
C1330 C1329 1.414 . S
C1330 C1331 1.374 . S
C1331 H1311 0.950 . S
C1331 C1327 1.385 . S
C1331 C1330 1.374 . S
C1332 C1329 1.499 . S
C1332 C1333 1.373 . S
C1332 C1334 1.389 . S
C1333 H1312 0.950 . S
C1333 C1332 1.373 . S
C1333 C1349 1.377 . S
C1334 C1332 1.389 . S
C1334 C1335 1.524 . S
C1334 C1348 1.377 . S
C1335 C1334 1.524 . S
C1335 C1336 1.397 . S
C1335 C1340 1.363 . S
C1336 H1313 0.950 . S
C1336 C1335 1.397 . S
C1336 C1337 1.334 . S
C1337 H1314 0.950 . S
C1337 C1336 1.334 . S
C1337 C1338 1.287 . S
C1338 C1337 1.287 . S
C1338 C1339 1.524 . S
C1338 H1357 0.913 . S
C1339 H1315 0.950 . S
C1339 C1338 1.524 . S
C1339 C1340 1.415 . S
C1340 H1316 0.950 . S
C1340 C1335 1.363 . S
C1340 C1339 1.415 . S
C1341 H1317 0.951 . S
C1341 C1342 1.366 . S
C1341 C1343 1.388 . S
C1342 C1341 1.366 . S
C1342 C1346 1.385 . S
C1343 H1318 0.951 . S
C1343 C1341 1.388 . S
C1343 C1344 1.366 . S
C1344 C1343 1.366 . S
C1344 C1345 1.414 . S
C1344 C1347 1.499 . S
C1345 H1319 0.950 . S
C1345 C1344 1.414 . S
C1345 C1346 1.374 . S
C1346 H1320 0.950 . S
C1346 C1342 1.385 . S
C1346 C1345 1.374 . S
C1347 C1344 1.499 . S
C1347 C1348 1.373 . S
C1347 C1349 1.389 . S
C1348 H1321 0.950 . S
C1348 C1334 1.377 . S
C1348 C1347 1.373 . S
C1349 C1333 1.377 . S
C1349 C1347 1.389 . S
C1349 C1350 1.524 . S
C1350 C1349 1.524 . S
C1350 C1351 1.397 . S
C1350 C1355 1.363 . S
C1351 H1322 0.950 . S
C1351 C1350 1.397 . S
C1351 C1352 1.334 . S
C1352 H1323 0.950 . S
C1352 C1351 1.334 . S
C1352 C1353 1.287 . S
C1353 C1352 1.287 . S
C1353 C1354 1.524 . S
C1353 H1356 0.999 . S
C1354 H1324 0.950 . S
C1354 C1353 1.524 . S
C1354 C1355 1.415 . S
C1355 H1325 0.950 . S
C1355 C1350 1.363 . S
C1355 C1354 1.415 . S
H1356 C1353 0.999 . S
H1357 C1338 0.913 . S
H1358 C1376 0.951 . S
H1359 C1378 0.951 . S
H1360 C1380 0.950 . S
H1361 C1381 0.950 . S
H1362 C1383 0.950 . S
H1363 C1386 0.950 . S
H1364 C1387 0.950 . S
H1365 C1389 0.950 . S
H1366 C1390 0.950 . S
H1367 C1391 0.951 . S
H1368 C1393 0.951 . S
H1369 C1395 0.950 . S
H1370 C1396 0.950 . S
H1371 C1398 0.950 . S
H1372 C1401 0.950 . S
H1373 C1402 0.950 . S
H1374 C1404 0.950 . S
H1375 C1405 0.950 . S
C1376 H1358 0.951 . S
C1376 C1377 1.366 . S
C1376 C1378 1.388 . S
C1377 C1376 1.366 . S
C1377 C1381 1.385 . S
C1378 H1359 0.951 . S
C1378 C1376 1.388 . S
C1378 C1379 1.366 . S
C1379 C1378 1.366 . S
C1379 C1380 1.414 . S
C1379 C1382 1.499 . S
C1380 H1360 0.950 . S
C1380 C1379 1.414 . S
C1380 C1381 1.374 . S
C1381 H1361 0.950 . S
C1381 C1377 1.385 . S
C1381 C1380 1.374 . S
C1382 C1379 1.499 . S
C1382 C1383 1.373 . S
C1382 C1384 1.389 . S
C1383 H1362 0.950 . S
C1383 C1382 1.373 . S
C1383 C1399 1.377 . S
C1384 C1382 1.389 . S
C1384 C1385 1.524 . S
C1384 C1398 1.377 . S
C1385 C1384 1.524 . S
C1385 C1386 1.397 . S
C1385 C1390 1.363 . S
C1386 H1363 0.950 . S
C1386 C1385 1.397 . S
C1386 C1387 1.334 . S
C1387 H1364 0.950 . S
C1387 C1386 1.334 . S
C1387 C1388 1.287 . S
C1388 C1387 1.287 . S
C1388 C1389 1.524 . S
C1388 H1407 0.913 . S
C1389 H1365 0.950 . S
C1389 C1388 1.524 . S
C1389 C1390 1.415 . S
C1390 H1366 0.950 . S
C1390 C1385 1.363 . S
C1390 C1389 1.415 . S
C1391 H1367 0.951 . S
C1391 C1392 1.366 . S
C1391 C1393 1.388 . S
C1392 C1391 1.366 . S
C1392 C1396 1.385 . S
C1393 H1368 0.951 . S
C1393 C1391 1.388 . S
C1393 C1394 1.366 . S
C1394 C1393 1.366 . S
C1394 C1395 1.414 . S
C1394 C1397 1.499 . S
C1395 H1369 0.950 . S
C1395 C1394 1.414 . S
C1395 C1396 1.374 . S
C1396 H1370 0.950 . S
C1396 C1392 1.385 . S
C1396 C1395 1.374 . S
C1397 C1394 1.499 . S
C1397 C1398 1.373 . S
C1397 C1399 1.389 . S
C1398 H1371 0.950 . S
C1398 C1384 1.377 . S
C1398 C1397 1.373 . S
C1399 C1383 1.377 . S
C1399 C1397 1.389 . S
C1399 C1400 1.524 . S
C1400 C1399 1.524 . S
C1400 C1401 1.397 . S
C1400 C1405 1.363 . S
C1401 H1372 0.950 . S
C1401 C1400 1.397 . S
C1401 C1402 1.334 . S
C1402 H1373 0.950 . S
C1402 C1401 1.334 . S
C1402 C1403 1.287 . S
C1403 C1402 1.287 . S
C1403 C1404 1.524 . S
C1403 H1406 0.999 . S
C1404 H1374 0.950 . S
C1404 C1403 1.524 . S
C1404 C1405 1.415 . S
C1405 H1375 0.950 . S
C1405 C1400 1.363 . S
C1405 C1404 1.415 . S
H1406 C1403 0.999 . S
H1407 C1388 0.913 . S
H1408 C1426 0.951 . S
H1409 C1428 0.951 . S
H1410 C1430 0.950 . S
H1411 C1431 0.950 . S
H1412 C1433 0.950 . S
H1413 C1436 0.950 . S
H1414 C1437 0.950 . S
H1415 C1439 0.950 . S
H1416 C1440 0.950 . S
H1417 C1441 0.951 . S
H1418 C1443 0.951 . S
H1419 C1445 0.950 . S
H1420 C1446 0.950 . S
H1421 C1448 0.950 . S
H1422 C1451 0.950 . S
H1423 C1452 0.950 . S
H1424 C1454 0.950 . S
H1425 C1455 0.950 . S
C1426 H1408 0.951 . S
C1426 C1427 1.366 . S
C1426 C1428 1.388 . S
C1427 C1426 1.366 . S
C1427 C1431 1.385 . S
C1428 H1409 0.951 . S
C1428 C1426 1.388 . S
C1428 C1429 1.366 . S
C1429 C1428 1.366 . S
C1429 C1430 1.414 . S
C1429 C1432 1.499 . S
C1430 H1410 0.950 . S
C1430 C1429 1.414 . S
C1430 C1431 1.374 . S
C1431 H1411 0.950 . S
C1431 C1427 1.385 . S
C1431 C1430 1.374 . S
C1432 C1429 1.499 . S
C1432 C1433 1.373 . S
C1432 C1434 1.389 . S
C1433 H1412 0.950 . S
C1433 C1432 1.373 . S
C1433 C1449 1.377 . S
C1434 C1432 1.389 . S
C1434 C1435 1.524 . S
C1434 C1448 1.377 . S
C1435 C1434 1.524 . S
C1435 C1436 1.397 . S
C1435 C1440 1.363 . S
C1436 H1413 0.950 . S
C1436 C1435 1.397 . S
C1436 C1437 1.334 . S
C1437 H1414 0.950 . S
C1437 C1436 1.334 . S
C1437 C1438 1.287 . S
C1438 C1437 1.287 . S
C1438 C1439 1.524 . S
C1438 H1457 0.913 . S
C1439 H1415 0.950 . S
C1439 C1438 1.524 . S
C1439 C1440 1.415 . S
C1440 H1416 0.950 . S
C1440 C1435 1.363 . S
C1440 C1439 1.415 . S
C1441 H1417 0.951 . S
C1441 C1442 1.366 . S
C1441 C1443 1.388 . S
C1442 C1441 1.366 . S
C1442 C1446 1.385 . S
C1443 H1418 0.951 . S
C1443 C1441 1.388 . S
C1443 C1444 1.366 . S
C1444 C1443 1.366 . S
C1444 C1445 1.414 . S
C1444 C1447 1.499 . S
C1445 H1419 0.950 . S
C1445 C1444 1.414 . S
C1445 C1446 1.374 . S
C1446 H1420 0.950 . S
C1446 C1442 1.385 . S
C1446 C1445 1.374 . S
C1447 C1444 1.499 . S
C1447 C1448 1.373 . S
C1447 C1449 1.389 . S
C1448 H1421 0.950 . S
C1448 C1434 1.377 . S
C1448 C1447 1.373 . S
C1449 C1433 1.377 . S
C1449 C1447 1.389 . S
C1449 C1450 1.524 . S
C1450 C1449 1.524 . S
C1450 C1451 1.397 . S
C1450 C1455 1.363 . S
C1451 H1422 0.950 . S
C1451 C1450 1.397 . S
C1451 C1452 1.334 . S
C1452 H1423 0.950 . S
C1452 C1451 1.334 . S
C1452 C1453 1.287 . S
C1453 C1452 1.287 . S
C1453 C1454 1.524 . S
C1453 H1456 0.999 . S
C1454 H1424 0.950 . S
C1454 C1453 1.524 . S
C1454 C1455 1.415 . S
C1455 H1425 0.950 . S
C1455 C1450 1.363 . S
C1455 C1454 1.415 . S
H1456 C1453 0.999 . S
H1457 C1438 0.913 . S
H1458 C1476 0.951 . S
H1459 C1478 0.951 . S
H1460 C1480 0.950 . S
H1461 C1481 0.950 . S
H1462 C1483 0.950 . S
H1463 C1486 0.950 . S
H1464 C1487 0.950 . S
H1465 C1489 0.950 . S
H1466 C1490 0.950 . S
H1467 C1491 0.951 . S
H1468 C1493 0.951 . S
H1469 C1495 0.950 . S
H1470 C1496 0.950 . S
H1471 C1498 0.950 . S
H1472 C1501 0.950 . S
H1473 C1502 0.950 . S
H1474 C1504 0.950 . S
H1475 C1505 0.950 . S
C1476 H1458 0.951 . S
C1476 C1477 1.366 . S
C1476 C1478 1.388 . S
C1477 C1476 1.366 . S
C1477 C1481 1.385 . S
C1478 H1459 0.951 . S
C1478 C1476 1.388 . S
C1478 C1479 1.366 . S
C1479 C1478 1.366 . S
C1479 C1480 1.414 . S
C1479 C1482 1.499 . S
C1480 H1460 0.950 . S
C1480 C1479 1.414 . S
C1480 C1481 1.374 . S
C1481 H1461 0.950 . S
C1481 C1477 1.385 . S
C1481 C1480 1.374 . S
C1482 C1479 1.499 . S
C1482 C1483 1.373 . S
C1482 C1484 1.389 . S
C1483 H1462 0.950 . S
C1483 C1482 1.373 . S
C1483 C1499 1.377 . S
C1484 C1482 1.389 . S
C1484 C1485 1.524 . S
C1484 C1498 1.377 . S
C1485 C1484 1.524 . S
C1485 C1486 1.397 . S
C1485 C1490 1.363 . S
C1486 H1463 0.950 . S
C1486 C1485 1.397 . S
C1486 C1487 1.334 . S
C1487 H1464 0.950 . S
C1487 C1486 1.334 . S
C1487 C1488 1.287 . S
C1488 C1487 1.287 . S
C1488 C1489 1.524 . S
C1488 H1507 0.913 . S
C1489 H1465 0.950 . S
C1489 C1488 1.524 . S
C1489 C1490 1.415 . S
C1490 H1466 0.950 . S
C1490 C1485 1.363 . S
C1490 C1489 1.415 . S
C1491 H1467 0.951 . S
C1491 C1492 1.366 . S
C1491 C1493 1.388 . S
C1492 C1491 1.366 . S
C1492 C1496 1.385 . S
C1493 H1468 0.951 . S
C1493 C1491 1.388 . S
C1493 C1494 1.366 . S
C1494 C1493 1.366 . S
C1494 C1495 1.414 . S
C1494 C1497 1.499 . S
C1495 H1469 0.950 . S
C1495 C1494 1.414 . S
C1495 C1496 1.374 . S
C1496 H1470 0.950 . S
C1496 C1492 1.385 . S
C1496 C1495 1.374 . S
C1497 C1494 1.499 . S
C1497 C1498 1.373 . S
C1497 C1499 1.389 . S
C1498 H1471 0.950 . S
C1498 C1484 1.377 . S
C1498 C1497 1.373 . S
C1499 C1483 1.377 . S
C1499 C1497 1.389 . S
C1499 C1500 1.524 . S
C1500 C1499 1.524 . S
C1500 C1501 1.397 . S
C1500 C1505 1.363 . S
C1501 H1472 0.950 . S
C1501 C1500 1.397 . S
C1501 C1502 1.334 . S
C1502 H1473 0.950 . S
C1502 C1501 1.334 . S
C1502 C1503 1.287 . S
C1503 C1502 1.287 . S
C1503 C1504 1.524 . S
C1503 H1506 0.999 . S
C1504 H1474 0.950 . S
C1504 C1503 1.524 . S
C1504 C1505 1.415 . S
C1505 H1475 0.950 . S
C1505 C1500 1.363 . S
C1505 C1504 1.415 . S
H1506 C1503 0.999 . S
H1507 C1488 0.913 . S
H1508 C1526 0.951 . S
H1509 C1528 0.951 . S
H1510 C1530 0.950 . S
H1511 C1531 0.950 . S
H1512 C1533 0.950 . S
H1513 C1536 0.950 . S
H1514 C1537 0.950 . S
H1515 C1539 0.950 . S
H1516 C1540 0.950 . S
H1517 C1541 0.951 . S
H1518 C1543 0.951 . S
H1519 C1545 0.950 . S
H1520 C1546 0.950 . S
H1521 C1548 0.950 . S
H1522 C1551 0.950 . S
H1523 C1552 0.950 . S
H1524 C1554 0.950 . S
H1525 C1555 0.950 . S
C1526 H1508 0.951 . S
C1526 C1527 1.366 . S
C1526 C1528 1.388 . S
C1527 C1526 1.366 . S
C1527 C1531 1.385 . S
C1528 H1509 0.951 . S
C1528 C1526 1.388 . S
C1528 C1529 1.366 . S
C1529 C1528 1.366 . S
C1529 C1530 1.414 . S
C1529 C1532 1.499 . S
C1530 H1510 0.950 . S
C1530 C1529 1.414 . S
C1530 C1531 1.374 . S
C1531 H1511 0.950 . S
C1531 C1527 1.385 . S
C1531 C1530 1.374 . S
C1532 C1529 1.499 . S
C1532 C1533 1.373 . S
C1532 C1534 1.389 . S
C1533 H1512 0.950 . S
C1533 C1532 1.373 . S
C1533 C1549 1.377 . S
C1534 C1532 1.389 . S
C1534 C1535 1.524 . S
C1534 C1548 1.377 . S
C1535 C1534 1.524 . S
C1535 C1536 1.397 . S
C1535 C1540 1.363 . S
C1536 H1513 0.950 . S
C1536 C1535 1.397 . S
C1536 C1537 1.334 . S
C1537 H1514 0.950 . S
C1537 C1536 1.334 . S
C1537 C1538 1.287 . S
C1538 C1537 1.287 . S
C1538 C1539 1.524 . S
C1538 H1557 0.913 . S
C1539 H1515 0.950 . S
C1539 C1538 1.524 . S
C1539 C1540 1.415 . S
C1540 H1516 0.950 . S
C1540 C1535 1.363 . S
C1540 C1539 1.415 . S
C1541 H1517 0.951 . S
C1541 C1542 1.366 . S
C1541 C1543 1.388 . S
C1542 C1541 1.366 . S
C1542 C1546 1.385 . S
C1543 H1518 0.951 . S
C1543 C1541 1.388 . S
C1543 C1544 1.366 . S
C1544 C1543 1.366 . S
C1544 C1545 1.414 . S
C1544 C1547 1.499 . S
C1545 H1519 0.950 . S
C1545 C1544 1.414 . S
C1545 C1546 1.374 . S
C1546 H1520 0.950 . S
C1546 C1542 1.385 . S
C1546 C1545 1.374 . S
C1547 C1544 1.499 . S
C1547 C1548 1.373 . S
C1547 C1549 1.389 . S
C1548 H1521 0.950 . S
C1548 C1534 1.377 . S
C1548 C1547 1.373 . S
C1549 C1533 1.377 . S
C1549 C1547 1.389 . S
C1549 C1550 1.524 . S
C1550 C1549 1.524 . S
C1550 C1551 1.397 . S
C1550 C1555 1.363 . S
C1551 H1522 0.950 . S
C1551 C1550 1.397 . S
C1551 C1552 1.334 . S
C1552 H1523 0.950 . S
C1552 C1551 1.334 . S
C1552 C1553 1.287 . S
C1553 C1552 1.287 . S
C1553 C1554 1.524 . S
C1553 H1556 0.999 . S
C1554 H1524 0.950 . S
C1554 C1553 1.524 . S
C1554 C1555 1.415 . S
C1555 H1525 0.950 . S
C1555 C1550 1.363 . S
C1555 C1554 1.415 . S
H1556 C1553 0.999 . S
H1557 C1538 0.913 . S
H1558 C1576 0.951 . S
H1559 C1578 0.951 . S
H1560 C1580 0.950 . S
H1561 C1581 0.950 . S
H1562 C1583 0.950 . S
H1563 C1586 0.950 . S
H1564 C1587 0.950 . S
H1565 C1589 0.950 . S
H1566 C1590 0.950 . S
H1567 C1591 0.951 . S
H1568 C1593 0.951 . S
H1569 C1595 0.950 . S
H1570 C1596 0.950 . S
H1571 C1598 0.950 . S
H1572 C1601 0.950 . S
H1573 C1602 0.950 . S
H1574 C1604 0.950 . S
H1575 C1605 0.950 . S
C1576 H1558 0.951 . S
C1576 C1577 1.366 . S
C1576 C1578 1.388 . S
C1577 C1576 1.366 . S
C1577 C1581 1.385 . S
C1578 H1559 0.951 . S
C1578 C1576 1.388 . S
C1578 C1579 1.366 . S
C1579 C1578 1.366 . S
C1579 C1580 1.414 . S
C1579 C1582 1.499 . S
C1580 H1560 0.950 . S
C1580 C1579 1.414 . S
C1580 C1581 1.374 . S
C1581 H1561 0.950 . S
C1581 C1577 1.385 . S
C1581 C1580 1.374 . S
C1582 C1579 1.499 . S
C1582 C1583 1.373 . S
C1582 C1584 1.389 . S
C1583 H1562 0.950 . S
C1583 C1582 1.373 . S
C1583 C1599 1.377 . S
C1584 C1582 1.389 . S
C1584 C1585 1.524 . S
C1584 C1598 1.377 . S
C1585 C1584 1.524 . S
C1585 C1586 1.397 . S
C1585 C1590 1.363 . S
C1586 H1563 0.950 . S
C1586 C1585 1.397 . S
C1586 C1587 1.334 . S
C1587 H1564 0.950 . S
C1587 C1586 1.334 . S
C1587 C1588 1.287 . S
C1588 C1587 1.287 . S
C1588 C1589 1.524 . S
C1588 H1607 0.913 . S
C1589 H1565 0.950 . S
C1589 C1588 1.524 . S
C1589 C1590 1.415 . S
C1590 H1566 0.950 . S
C1590 C1585 1.363 . S
C1590 C1589 1.415 . S
C1591 H1567 0.951 . S
C1591 C1592 1.366 . S
C1591 C1593 1.388 . S
C1592 C1591 1.366 . S
C1592 C1596 1.385 . S
C1593 H1568 0.951 . S
C1593 C1591 1.388 . S
C1593 C1594 1.366 . S
C1594 C1593 1.366 . S
C1594 C1595 1.414 . S
C1594 C1597 1.499 . S
C1595 H1569 0.950 . S
C1595 C1594 1.414 . S
C1595 C1596 1.374 . S
C1596 H1570 0.950 . S
C1596 C1592 1.385 . S
C1596 C1595 1.374 . S
C1597 C1594 1.499 . S
C1597 C1598 1.373 . S
C1597 C1599 1.389 . S
C1598 H1571 0.950 . S
C1598 C1584 1.377 . S
C1598 C1597 1.373 . S
C1599 C1583 1.377 . S
C1599 C1597 1.389 . S
C1599 C1600 1.524 . S
C1600 C1599 1.524 . S
C1600 C1601 1.397 . S
C1600 C1605 1.363 . S
C1601 H1572 0.950 . S
C1601 C1600 1.397 . S
C1601 C1602 1.334 . S
C1602 H1573 0.950 . S
C1602 C1601 1.334 . S
C1602 C1603 1.287 . S
C1603 C1602 1.287 . S
C1603 C1604 1.524 . S
C1603 H1606 0.999 . S
C1604 H1574 0.950 . S
C1604 C1603 1.524 . S
C1604 C1605 1.415 . S
C1605 H1575 0.950 . S
C1605 C1600 1.363 . S
C1605 C1604 1.415 . S
H1606 C1603 0.999 . S
H1607 C1588 0.913 . S
H1608 C1626 0.951 . S
H1609 C1628 0.951 . S
H1610 C1630 0.950 . S
H1611 C1631 0.950 . S
H1612 C1633 0.950 . S
H1613 C1636 0.950 . S
H1614 C1637 0.933 1_556 S
H1615 C1639 0.960 . S
H1616 C1640 0.950 . S
H1617 C1641 0.951 . S
H1618 C1643 0.951 . S
H1619 C1645 0.950 . S
H1620 C1646 0.950 . S
H1621 C1648 0.950 . S
H1622 C1651 0.950 . S
H1623 C1652 0.950 . S
H1624 C1654 0.950 . S
H1625 C1655 0.950 . S
C1626 H1608 0.951 . S
C1626 C1627 1.366 . S
C1626 C1628 1.388 . S
C1627 C1626 1.366 . S
C1627 C1631 1.385 . S
C1628 H1609 0.951 . S
C1628 C1626 1.388 . S
C1628 C1629 1.366 . S
C1629 C1628 1.366 . S
C1629 C1630 1.414 . S
C1629 C1632 1.499 . S
C1630 H1610 0.950 . S
C1630 C1629 1.414 . S
C1630 C1631 1.374 . S
C1631 H1611 0.950 . S
C1631 C1627 1.385 . S
C1631 C1630 1.374 . S
C1632 C1629 1.499 . S
C1632 C1633 1.373 . S
C1632 C1634 1.389 . S
C1633 H1612 0.950 . S
C1633 C1632 1.373 . S
C1633 C1649 1.377 . S
C1634 C1632 1.389 . S
C1634 C1635 1.524 . S
C1634 C1648 1.377 . S
C1635 C1634 1.524 . S
C1635 C1636 1.397 . S
C1635 C1640 1.363 . S
C1636 H1613 0.950 . S
C1636 C1635 1.397 . S
C1636 C1637 1.363 . S
C1637 H1614 0.933 1_554 S
C1637 C1636 1.363 . S
C1637 C1638 1.276 1_554 S
C1638 C1637 1.276 1_556 S
C1638 C1639 1.524 1_556 S
C1638 H1657 0.913 . S
C1639 H1615 0.960 . S
C1639 C1638 1.524 1_554 S
C1639 C1640 1.415 . S
C1640 H1616 0.950 . S
C1640 C1635 1.363 . S
C1640 C1639 1.415 . S
C1641 H1617 0.951 . S
C1641 C1642 1.366 . S
C1641 C1643 1.388 . S
C1642 C1641 1.366 . S
C1642 C1646 1.385 . S
C1643 H1618 0.951 . S
C1643 C1641 1.388 . S
C1643 C1644 1.366 . S
C1644 C1643 1.366 . S
C1644 C1645 1.414 . S
C1644 C1647 1.499 . S
C1645 H1619 0.950 . S
C1645 C1644 1.414 . S
C1645 C1646 1.374 . S
C1646 H1620 0.950 . S
C1646 C1642 1.385 . S
C1646 C1645 1.374 . S
C1647 C1644 1.499 . S
C1647 C1648 1.373 . S
C1647 C1649 1.389 . S
C1648 H1621 0.950 . S
C1648 C1634 1.377 . S
C1648 C1647 1.373 . S
C1649 C1633 1.377 . S
C1649 C1647 1.389 . S
C1649 C1650 1.524 . S
C1650 C1649 1.524 . S
C1650 C1651 1.397 . S
C1650 C1655 1.363 . S
C1651 H1622 0.950 . S
C1651 C1650 1.397 . S
C1651 C1652 1.334 . S
C1652 H1623 0.950 . S
C1652 C1651 1.334 . S
C1652 C1653 1.287 . S
C1653 C1652 1.287 . S
C1653 C1654 1.524 . S
C1653 H1656 0.999 . S
C1654 H1624 0.950 . S
C1654 C1653 1.524 . S
C1654 C1655 1.415 . S
C1655 H1625 0.950 . S
C1655 C1650 1.363 . S
C1655 C1654 1.415 . S
H1656 C1653 0.999 . S
H1657 C1638 0.913 . S
H1658 C1676 0.951 . S
H1659 C1678 0.951 . S
H1660 C1680 0.950 . S
H1661 C1681 0.950 . S
H1662 C1683 0.951 1_455 S
H1663 C1686 0.950 . S
H1664 C1687 0.950 . S
H1665 C1689 0.950 . S
H1666 C1690 0.950 . S
H1667 C1691 0.951 . S
H1668 C1693 0.951 . S
H1669 C1695 0.950 . S
H1670 C1696 0.950 . S
H1671 C1698 0.951 1_655 S
H1672 C1701 0.950 . S
H1673 C1702 0.950 . S
H1674 C1704 0.950 . S
H1675 C1705 0.950 . S
C1676 H1658 0.951 . S
C1676 C1677 1.366 . S
C1676 C1678 1.388 . S
C1677 C1676 1.366 . S
C1677 C1681 1.385 . S
C1678 H1659 0.951 . S
C1678 C1676 1.388 . S
C1678 C1679 1.366 . S
C1679 C1678 1.366 . S
C1679 C1680 1.414 . S
C1679 C1682 1.499 . S
C1680 H1660 0.950 . S
C1680 C1679 1.414 . S
C1680 C1681 1.374 . S
C1681 H1661 0.950 . S
C1681 C1677 1.385 . S
C1681 C1680 1.374 . S
C1682 C1679 1.499 . S
C1682 C1683 1.374 . S
C1682 C1684 1.389 . S
C1683 H1662 0.951 1_655 S
C1683 C1682 1.374 . S
C1683 C1699 1.376 1_655 S
C1684 C1682 1.389 . S
C1684 C1685 1.524 . S
C1684 C1698 1.376 1_655 S
C1685 C1684 1.524 . S
C1685 C1686 1.397 . S
C1685 C1690 1.363 . S
C1686 H1663 0.950 . S
C1686 C1685 1.397 . S
C1686 C1687 1.334 . S
C1687 H1664 0.950 . S
C1687 C1686 1.334 . S
C1687 C1688 1.287 . S
C1688 C1687 1.287 . S
C1688 C1689 1.524 . S
C1688 H1707 0.913 . S
C1689 H1665 0.950 . S
C1689 C1688 1.524 . S
C1689 C1690 1.415 . S
C1690 H1666 0.950 . S
C1690 C1685 1.363 . S
C1690 C1689 1.415 . S
C1691 H1667 0.951 . S
C1691 C1692 1.366 . S
C1691 C1693 1.388 . S
C1692 C1691 1.366 . S
C1692 C1696 1.385 . S
C1693 H1668 0.951 . S
C1693 C1691 1.388 . S
C1693 C1694 1.366 . S
C1694 C1693 1.366 . S
C1694 C1695 1.414 . S
C1694 C1697 1.499 . S
C1695 H1669 0.950 . S
C1695 C1694 1.414 . S
C1695 C1696 1.374 . S
C1696 H1670 0.950 . S
C1696 C1692 1.385 . S
C1696 C1695 1.374 . S
C1697 C1694 1.499 . S
C1697 C1698 1.374 . S
C1697 C1699 1.389 . S
C1698 H1671 0.951 1_455 S
C1698 C1684 1.376 1_455 S
C1698 C1697 1.374 . S
C1699 C1683 1.376 1_455 S
C1699 C1697 1.389 . S
C1699 C1700 1.524 . S
C1700 C1699 1.524 . S
C1700 C1701 1.397 . S
C1700 C1705 1.363 . S
C1701 H1672 0.950 . S
C1701 C1700 1.397 . S
C1701 C1702 1.334 . S
C1702 H1673 0.950 . S
C1702 C1701 1.334 . S
C1702 C1703 1.287 . S
C1703 C1702 1.287 . S
C1703 C1704 1.524 . S
C1703 H1706 0.999 . S
C1704 H1674 0.950 . S
C1704 C1703 1.524 . S
C1704 C1705 1.415 . S
C1705 H1675 0.950 . S
C1705 C1700 1.363 . S
C1705 C1704 1.415 . S
H1706 C1703 0.999 . S
H1707 C1688 0.913 . S
H1708 C1726 0.951 . S
H1709 C1728 0.951 . S
H1710 C1730 0.950 . S
H1711 C1731 0.950 . S
H1712 C1733 0.950 . S
H1713 C1736 0.950 . S
H1714 C1737 0.950 . S
H1715 C1739 0.950 . S
H1716 C1740 0.950 . S
H1717 C1741 0.951 . S
H1718 C1743 0.951 . S
H1719 C1745 0.950 . S
H1720 C1746 0.950 . S
H1721 C1748 0.950 . S
H1722 C1751 0.950 . S
H1723 C1752 0.950 . S
H1724 C1754 0.950 . S
H1725 C1755 0.950 . S
C1726 H1708 0.951 . S
C1726 C1727 1.366 . S
C1726 C1728 1.388 . S
C1727 C1726 1.366 . S
C1727 C1731 1.385 . S
C1728 H1709 0.951 . S
C1728 C1726 1.388 . S
C1728 C1729 1.366 . S
C1729 C1728 1.366 . S
C1729 C1730 1.414 . S
C1729 C1732 1.499 . S
C1730 H1710 0.950 . S
C1730 C1729 1.414 . S
C1730 C1731 1.374 . S
C1731 H1711 0.950 . S
C1731 C1727 1.385 . S
C1731 C1730 1.374 . S
C1732 C1729 1.499 . S
C1732 C1733 1.373 . S
C1732 C1734 1.389 1_545 S
C1733 H1712 0.950 . S
C1733 C1732 1.373 . S
C1733 C1749 1.377 . S
C1734 C1732 1.389 1_565 S
C1734 C1735 1.524 . S
C1734 C1748 1.377 . S
C1735 C1734 1.524 . S
C1735 C1736 1.397 1_565 S
C1735 C1740 1.363 . S
C1736 H1713 0.950 . S
C1736 C1735 1.397 1_545 S
C1736 C1737 1.334 . S
C1737 H1714 0.950 . S
C1737 C1736 1.334 . S
C1737 C1738 1.287 1_545 S
C1738 C1737 1.287 1_565 S
C1738 C1739 1.524 . S
C1738 H1757 0.913 . S
C1739 H1715 0.950 . S
C1739 C1738 1.524 . S
C1739 C1740 1.415 . S
C1740 H1716 0.950 . S
C1740 C1735 1.363 . S
C1740 C1739 1.415 . S
C1741 H1717 0.951 . S
C1741 C1742 1.366 . S
C1741 C1743 1.388 . S
C1742 C1741 1.366 . S
C1742 C1746 1.385 . S
C1743 H1718 0.951 . S
C1743 C1741 1.388 . S
C1743 C1744 1.366 . S
C1744 C1743 1.366 . S
C1744 C1745 1.414 . S
C1744 C1747 1.499 . S
C1745 H1719 0.950 . S
C1745 C1744 1.414 . S
C1745 C1746 1.374 . S
C1746 H1720 0.950 . S
C1746 C1742 1.385 . S
C1746 C1745 1.374 . S
C1747 C1744 1.499 . S
C1747 C1748 1.373 . S
C1747 C1749 1.389 1_565 S
C1748 H1721 0.950 . S
C1748 C1734 1.377 . S
C1748 C1747 1.373 . S
C1749 C1733 1.377 . S
C1749 C1747 1.389 1_545 S
C1749 C1750 1.524 . S
C1750 C1749 1.524 . S
C1750 C1751 1.397 1_545 S
C1750 C1755 1.363 . S
C1751 H1722 0.950 . S
C1751 C1750 1.397 1_565 S
C1751 C1752 1.334 . S
C1752 H1723 0.950 . S
C1752 C1751 1.334 . S
C1752 C1753 1.287 1_565 S
C1753 C1752 1.287 1_545 S
C1753 C1754 1.524 . S
C1753 H1756 0.999 . S
C1754 H1724 0.950 . S
C1754 C1753 1.524 . S
C1754 C1755 1.415 . S
C1755 H1725 0.950 . S
C1755 C1750 1.363 . S
C1755 C1754 1.415 . S
H1756 C1753 0.999 . S
H1757 C1738 0.913 . S
H1758 C1776 0.951 . S
H1759 C1778 0.951 . S
H1760 C1780 0.950 . S
H1761 C1781 0.950 . S
H1762 C1783 0.950 . S
H1763 C1786 0.950 . S
H1764 C1787 0.950 . S
H1765 C1789 0.950 . S
H1766 C1790 0.950 . S
H1767 C1791 0.951 . S
H1768 C1793 0.951 . S
H1769 C1795 0.950 . S
H1770 C1796 0.950 . S
H1771 C1798 0.950 . S
H1772 C1801 0.950 . S
H1773 C1802 0.950 . S
H1774 C1804 0.950 . S
H1775 C1805 0.950 . S
C1776 H1758 0.951 . S
C1776 C1777 1.366 . S
C1776 C1778 1.388 . S
C1777 C1776 1.366 . S
C1777 C1781 1.385 . S
C1778 H1759 0.951 . S
C1778 C1776 1.388 . S
C1778 C1779 1.366 . S
C1779 C1778 1.366 . S
C1779 C1780 1.414 . S
C1779 C1782 1.499 . S
C1780 H1760 0.950 . S
C1780 C1779 1.414 . S
C1780 C1781 1.374 . S
C1781 H1761 0.950 . S
C1781 C1777 1.385 . S
C1781 C1780 1.374 . S
C1782 C1779 1.499 . S
C1782 C1783 1.373 . S
C1782 C1784 1.389 . S
C1783 H1762 0.950 . S
C1783 C1782 1.373 . S
C1783 C1799 1.377 . S
C1784 C1782 1.389 . S
C1784 C1785 1.524 . S
C1784 C1798 1.377 . S
C1785 C1784 1.524 . S
C1785 C1786 1.397 . S
C1785 C1790 1.363 . S
C1786 H1763 0.950 . S
C1786 C1785 1.397 . S
C1786 C1787 1.334 . S
C1787 H1764 0.950 . S
C1787 C1786 1.334 . S
C1787 C1788 1.287 . S
C1788 C1787 1.287 . S
C1788 C1789 1.524 . S
C1788 H1807 0.913 . S
C1789 H1765 0.950 . S
C1789 C1788 1.524 . S
C1789 C1790 1.415 . S
C1790 H1766 0.950 . S
C1790 C1785 1.363 . S
C1790 C1789 1.415 . S
C1791 H1767 0.951 . S
C1791 C1792 1.366 . S
C1791 C1793 1.388 . S
C1792 C1791 1.366 . S
C1792 C1796 1.385 . S
C1793 H1768 0.951 . S
C1793 C1791 1.388 . S
C1793 C1794 1.366 . S
C1794 C1793 1.366 . S
C1794 C1795 1.414 . S
C1794 C1797 1.499 . S
C1795 H1769 0.950 . S
C1795 C1794 1.414 . S
C1795 C1796 1.374 . S
C1796 H1770 0.950 . S
C1796 C1792 1.385 . S
C1796 C1795 1.374 . S
C1797 C1794 1.499 . S
C1797 C1798 1.373 . S
C1797 C1799 1.389 . S
C1798 H1771 0.950 . S
C1798 C1784 1.377 . S
C1798 C1797 1.373 . S
C1799 C1783 1.377 . S
C1799 C1797 1.389 . S
C1799 C1800 1.524 . S
C1800 C1799 1.524 . S
C1800 C1801 1.397 . S
C1800 C1805 1.363 . S
C1801 H1772 0.950 . S
C1801 C1800 1.397 . S
C1801 C1802 1.334 . S
C1802 H1773 0.950 . S
C1802 C1801 1.334 . S
C1802 C1803 1.287 . S
C1803 C1802 1.287 . S
C1803 C1804 1.524 . S
C1803 H1806 0.999 . S
C1804 H1774 0.950 . S
C1804 C1803 1.524 . S
C1804 C1805 1.415 . S
C1805 H1775 0.950 . S
C1805 C1800 1.363 . S
C1805 C1804 1.415 . S
H1806 C1803 0.999 . S
H1807 C1788 0.913 . S
H1808 C1826 0.951 . S
H1809 C1828 0.951 . S
H1810 C1830 0.950 . S
H1811 C1831 0.950 . S
H1812 C1833 0.950 . S
H1813 C1836 0.950 . S
H1814 C1837 0.950 . S
H1815 C1839 0.950 . S
H1816 C1840 0.950 . S
H1817 C1841 0.951 . S
H1818 C1843 0.951 . S
H1819 C1845 0.950 . S
H1820 C1846 0.950 . S
H1821 C1848 0.950 . S
H1822 C1851 0.950 . S
H1823 C1852 0.950 . S
H1824 C1854 0.950 . S
H1825 C1855 0.950 . S
C1826 H1808 0.951 . S
C1826 C1827 1.366 . S
C1826 C1828 1.388 . S
C1827 C1826 1.366 . S
C1827 C1831 1.385 . S
C1828 H1809 0.951 . S
C1828 C1826 1.388 . S
C1828 C1829 1.366 . S
C1829 C1828 1.366 . S
C1829 C1830 1.414 . S
C1829 C1832 1.499 . S
C1830 H1810 0.950 . S
C1830 C1829 1.414 . S
C1830 C1831 1.374 . S
C1831 H1811 0.950 . S
C1831 C1827 1.385 . S
C1831 C1830 1.374 . S
C1832 C1829 1.499 . S
C1832 C1833 1.373 1_455 S
C1832 C1834 1.389 . S
C1833 H1812 0.950 . S
C1833 C1832 1.373 1_655 S
C1833 C1849 1.377 . S
C1834 C1832 1.389 . S
C1834 C1835 1.524 . S
C1834 C1848 1.377 . S
C1835 C1834 1.524 . S
C1835 C1836 1.397 . S
C1835 C1840 1.363 . S
C1836 H1813 0.950 . S
C1836 C1835 1.397 . S
C1836 C1837 1.334 . S
C1837 H1814 0.950 . S
C1837 C1836 1.334 . S
C1837 C1838 1.287 . S
C1838 C1837 1.287 . S
C1838 C1839 1.524 . S
C1838 H1857 0.913 . S
C1839 H1815 0.950 . S
C1839 C1838 1.524 . S
C1839 C1840 1.415 . S
C1840 H1816 0.950 . S
C1840 C1835 1.363 . S
C1840 C1839 1.415 . S
C1841 H1817 0.951 . S
C1841 C1842 1.366 . S
C1841 C1843 1.388 . S
C1842 C1841 1.366 . S
C1842 C1846 1.385 . S
C1843 H1818 0.951 . S
C1843 C1841 1.388 . S
C1843 C1844 1.366 . S
C1844 C1843 1.366 . S
C1844 C1845 1.414 . S
C1844 C1847 1.499 . S
C1845 H1819 0.950 . S
C1845 C1844 1.414 . S
C1845 C1846 1.374 . S
C1846 H1820 0.950 . S
C1846 C1842 1.385 . S
C1846 C1845 1.374 . S
C1847 C1844 1.499 . S
C1847 C1848 1.373 1_655 S
C1847 C1849 1.389 . S
C1848 H1821 0.950 . S
C1848 C1834 1.377 . S
C1848 C1847 1.373 1_455 S
C1849 C1833 1.377 . S
C1849 C1847 1.389 . S
C1849 C1850 1.524 . S
C1850 C1849 1.524 . S
C1850 C1851 1.397 . S
C1850 C1855 1.363 . S
C1851 H1822 0.950 . S
C1851 C1850 1.397 . S
C1851 C1852 1.334 . S
C1852 H1823 0.950 . S
C1852 C1851 1.334 . S
C1852 C1853 1.287 . S
C1853 C1852 1.287 . S
C1853 C1854 1.524 . S
C1853 H1856 0.999 . S
C1854 H1824 0.950 . S
C1854 C1853 1.524 . S
C1854 C1855 1.415 . S
C1855 H1825 0.950 . S
C1855 C1850 1.363 . S
C1855 C1854 1.415 . S
H1856 C1853 0.999 . S
H1857 C1838 0.913 . S
H1858 C1876 0.951 . S
H1859 C1878 0.951 . S
H1860 C1880 0.950 . S
H1861 C1881 0.950 . S
H1862 C1883 0.950 . S
H1863 C1886 0.950 . S
H1864 C1887 0.950 . S
H1865 C1889 0.950 . S
H1866 C1890 0.950 . S
H1867 C1891 0.951 . S
H1868 C1893 0.951 . S
H1869 C1895 0.950 . S
H1870 C1896 0.950 . S
H1871 C1898 0.950 . S
H1872 C1901 0.950 . S
H1873 C1902 0.950 . S
H1874 C1904 0.950 . S
H1875 C1905 0.950 . S
C1876 H1858 0.951 . S
C1876 C1877 1.366 . S
C1876 C1878 1.388 . S
C1877 C1876 1.366 . S
C1877 C1881 1.385 . S
C1878 H1859 0.951 . S
C1878 C1876 1.388 . S
C1878 C1879 1.366 . S
C1879 C1878 1.366 . S
C1879 C1880 1.414 . S
C1879 C1882 1.499 . S
C1880 H1860 0.950 . S
C1880 C1879 1.414 . S
C1880 C1881 1.374 . S
C1881 H1861 0.950 . S
C1881 C1877 1.385 . S
C1881 C1880 1.374 . S
C1882 C1879 1.499 . S
C1882 C1883 1.373 . S
C1882 C1884 1.389 1_565 S
C1883 H1862 0.950 . S
C1883 C1882 1.373 . S
C1883 C1899 1.377 . S
C1884 C1882 1.389 1_545 S
C1884 C1885 1.524 . S
C1884 C1898 1.377 . S
C1885 C1884 1.524 . S
C1885 C1886 1.397 . S
C1885 C1890 1.363 . S
C1886 H1863 0.950 . S
C1886 C1885 1.397 . S
C1886 C1887 1.334 . S
C1887 H1864 0.950 . S
C1887 C1886 1.334 . S
C1887 C1888 1.287 . S
C1888 C1887 1.287 . S
C1888 C1889 1.524 . S
C1888 H1907 0.913 . S
C1889 H1865 0.950 . S
C1889 C1888 1.524 . S
C1889 C1890 1.415 . S
C1890 H1866 0.950 . S
C1890 C1885 1.363 . S
C1890 C1889 1.415 . S
C1891 H1867 0.951 . S
C1891 C1892 1.366 . S
C1891 C1893 1.388 . S
C1892 C1891 1.366 . S
C1892 C1896 1.385 . S
C1893 H1868 0.951 . S
C1893 C1891 1.388 . S
C1893 C1894 1.366 . S
C1894 C1893 1.366 . S
C1894 C1895 1.414 . S
C1894 C1897 1.499 . S
C1895 H1869 0.950 . S
C1895 C1894 1.414 . S
C1895 C1896 1.374 . S
C1896 H1870 0.950 . S
C1896 C1892 1.385 . S
C1896 C1895 1.374 . S
C1897 C1894 1.499 . S
C1897 C1898 1.373 . S
C1897 C1899 1.389 1_545 S
C1898 H1871 0.950 . S
C1898 C1884 1.377 . S
C1898 C1897 1.373 . S
C1899 C1883 1.377 . S
C1899 C1897 1.389 1_565 S
C1899 C1900 1.524 . S
C1900 C1899 1.524 . S
C1900 C1901 1.397 . S
C1900 C1905 1.363 . S
C1901 H1872 0.950 . S
C1901 C1900 1.397 . S
C1901 C1902 1.334 . S
C1902 H1873 0.950 . S
C1902 C1901 1.334 . S
C1902 C1903 1.287 . S
C1903 C1902 1.287 . S
C1903 C1904 1.524 . S
C1903 H1906 0.999 . S
C1904 H1874 0.950 . S
C1904 C1903 1.524 . S
C1904 C1905 1.415 . S
C1905 H1875 0.950 . S
C1905 C1900 1.363 . S
C1905 C1904 1.415 . S
H1906 C1903 0.999 . S
H1907 C1888 0.913 . S
C727 C446 1.549 . S
C742 C33 1.550 . S
C777 C92 1.550 . S
C792 C505 1.549 . S
C827 C151 1.550 . S
C842 C564 1.550 . S
C877 C210 1.550 . S
C892 C623 1.550 . S
C927 C682 1.549 . S
C942 C269 1.550 . S
C977 C387 1.550 . S
C992 C328 1.549 . S
C1027 C642 1.721 . S
C1042 C52 1.721 . S
C1077 C111 1.721 . S
C1092 C701 1.721 . S
C1127 C170 1.721 . S
C1142 C406 1.721 . S
C1177 C465 1.721 . S
C1192 C229 1.721 . S
C1227 C524 1.721 . S
C1242 C288 1.721 . S
C1277 C583 1.721 . S
C1292 C347 1.721 . S
C1327 C5 1.783 . S
C1342 C477 1.783 . S
C1377 C64 1.783 . S
C1392 C536 1.783 . S
C1427 C595 1.783 . S
C1442 C123 1.783 . S
C1477 C182 1.783 . S
C1492 C654 1.783 . S
C1527 C359 1.783 . S
C1542 C241 1.783 . S
C1577 C418 1.783 . S
C1592 C300 1.783 . S
C1627 C180 1.213 . S
C1642 C3 1.213 . S
C1677 C239 1.213 . S
C1692 C62 1.214 . S
C1727 C121 1.213 . S
C1742 C298 1.213 . S
C1777 C357 1.213 . S
C1792 C534 1.214 . S
C1827 C416 1.214 . S
C1842 C593 1.214 . S
C1877 C652 1.213 . S
C1892 C475 1.213 . S
